# Generated by pormake.
# Topology ukb, (4)-cn, num edge types: 1
# Building blocks:
#     Node 0, Type 0, BuildingBlock: NAHDIM_clean_sbu_0, # of connection points: 4
#     Node 1, Type 0, BuildingBlock: NAHDIM_clean_sbu_0, # of connection points: 4
#     Node 2, Type 0, BuildingBlock: NAHDIM_clean_sbu_0, # of connection points: 4
#     Node 3, Type 0, BuildingBlock: NAHDIM_clean_sbu_0, # of connection points: 4
#     Node 4, Type 0, BuildingBlock: NAHDIM_clean_sbu_0, # of connection points: 4
#     Node 5, Type 0, BuildingBlock: NAHDIM_clean_sbu_0, # of connection points: 4
#     Node 6, Type 0, BuildingBlock: NAHDIM_clean_sbu_0, # of connection points: 4
#     Node 7, Type 0, BuildingBlock: NAHDIM_clean_sbu_0, # of connection points: 4
#     Node 8, Type 0, BuildingBlock: NAHDIM_clean_sbu_0, # of connection points: 4
#     Node 9, Type 0, BuildingBlock: NAHDIM_clean_sbu_0, # of connection points: 4
#     Node 10, Type 0, BuildingBlock: NAHDIM_clean_sbu_0, # of connection points: 4
#     Node 11, Type 0, BuildingBlock: NAHDIM_clean_sbu_0, # of connection points: 4
#     Node 12, Type 0, BuildingBlock: NAHDIM_clean_sbu_0, # of connection points: 4
#     Node 13, Type 0, BuildingBlock: NAHDIM_clean_sbu_0, # of connection points: 4
#     Node 14, Type 0, BuildingBlock: NAHDIM_clean_sbu_0, # of connection points: 4
#     Node 15, Type 0, BuildingBlock: NAHDIM_clean_sbu_0, # of connection points: 4
#     Edge 16, Type (0, 0), BuildingBlock: KIFKEQ_clean_linker_1, # of connection points: 2
#     Edge 17, Type (0, 0), BuildingBlock: KIFKEQ_clean_linker_1, # of connection points: 2
#     Edge 18, Type (0, 0), BuildingBlock: KIFKEQ_clean_linker_1, # of connection points: 2
#     Edge 19, Type (0, 0), BuildingBlock: KIFKEQ_clean_linker_1, # of connection points: 2
#     Edge 20, Type (0, 0), BuildingBlock: KIFKEQ_clean_linker_1, # of connection points: 2
#     Edge 21, Type (0, 0), BuildingBlock: KIFKEQ_clean_linker_1, # of connection points: 2
#     Edge 22, Type (0, 0), BuildingBlock: KIFKEQ_clean_linker_1, # of connection points: 2
#     Edge 23, Type (0, 0), BuildingBlock: KIFKEQ_clean_linker_1, # of connection points: 2
#     Edge 24, Type (0, 0), BuildingBlock: KIFKEQ_clean_linker_1, # of connection points: 2
#     Edge 25, Type (0, 0), BuildingBlock: KIFKEQ_clean_linker_1, # of connection points: 2
#     Edge 26, Type (0, 0), BuildingBlock: KIFKEQ_clean_linker_1, # of connection points: 2
#     Edge 27, Type (0, 0), BuildingBlock: KIFKEQ_clean_linker_1, # of connection points: 2
#     Edge 28, Type (0, 0), BuildingBlock: KIFKEQ_clean_linker_1, # of connection points: 2
#     Edge 29, Type (0, 0), BuildingBlock: KIFKEQ_clean_linker_1, # of connection points: 2
#     Edge 30, Type (0, 0), BuildingBlock: KIFKEQ_clean_linker_1, # of connection points: 2
#     Edge 31, Type (0, 0), BuildingBlock: KIFKEQ_clean_linker_1, # of connection points: 2
#     Edge 32, Type (0, 0), BuildingBlock: KIFKEQ_clean_linker_1, # of connection points: 2
#     Edge 33, Type (0, 0), BuildingBlock: KIFKEQ_clean_linker_1, # of connection points: 2
#     Edge 34, Type (0, 0), BuildingBlock: KIFKEQ_clean_linker_1, # of connection points: 2
#     Edge 35, Type (0, 0), BuildingBlock: KIFKEQ_clean_linker_1, # of connection points: 2
#     Edge 36, Type (0, 0), BuildingBlock: KIFKEQ_clean_linker_1, # of connection points: 2
#     Edge 37, Type (0, 0), BuildingBlock: KIFKEQ_clean_linker_1, # of connection points: 2
#     Edge 38, Type (0, 0), BuildingBlock: KIFKEQ_clean_linker_1, # of connection points: 2
#     Edge 39, Type (0, 0), BuildingBlock: KIFKEQ_clean_linker_1, # of connection points: 2
#     Edge 40, Type (0, 0), BuildingBlock: KIFKEQ_clean_linker_1, # of connection points: 2
#     Edge 41, Type (0, 0), BuildingBlock: KIFKEQ_clean_linker_1, # of connection points: 2
#     Edge 42, Type (0, 0), BuildingBlock: KIFKEQ_clean_linker_1, # of connection points: 2
#     Edge 43, Type (0, 0), BuildingBlock: KIFKEQ_clean_linker_1, # of connection points: 2
#     Edge 44, Type (0, 0), BuildingBlock: KIFKEQ_clean_linker_1, # of connection points: 2
#     Edge 45, Type (0, 0), BuildingBlock: KIFKEQ_clean_linker_1, # of connection points: 2
#     Edge 46, Type (0, 0), BuildingBlock: KIFKEQ_clean_linker_1, # of connection points: 2
#     Edge 47, Type (0, 0), BuildingBlock: KIFKEQ_clean_linker_1, # of connection points: 2
# Relax obj value: 0.148
# Max RMSD: 0.159
# Mean RMSD: 0.159
data_MOF--net-ukb--node1-NAHDIM_clean_sbu_0--edge1-KIFKEQ_clean_linker_1
_symmetry_space_group_name_H-M    P1
_symmetry_Int_Tables_number       1
_symmetry_cell_setting            triclinic
loop_
_symmetry_equiv_pos_as_xyz
'x, y, z'
_cell_length_a     43.949326
_cell_length_b     43.952956
_cell_length_c     38.570932
_cell_angle_alpha  90.025343
_cell_angle_beta   90.010872
_cell_angle_gamma 90.037119
loop_
_atom_site_label
_atom_site_type_symbol
_atom_site_fract_x
_atom_site_fract_y
_atom_site_fract_z
_atom_type_partial_charge
C0 C 0.46547 0.19004 0.19221 0.0
O1 O 0.47251 0.1832 0.16004 0.0
O2 O 0.51804 0.22637 0.13724 0.0
Zn3 Zn 0.52406 0.216 0.18745 0.0
O4 O 0.55131 0.17942 0.19115 0.0
C5 C 0.53406 0.27656 0.21763 0.0
O6 O 0.50493 0.28114 0.21205 0.0
O7 O 0.48404 0.20584 0.20995 0.0
C8 C 0.55239 0.16534 0.21989 0.0
O9 O 0.53531 0.17484 0.24566 0.0
C10 C 0.53994 0.23839 0.12068 0.0
O11 O 0.56573 0.24355 0.1369 0.0
O12 O 0.54565 0.25088 0.21036 0.0
C13 C 0.31272 0.46092 0.69136 0.0
O14 O 0.32181 0.4721 0.66151 0.0
O15 O 0.27258 0.51443 0.64087 0.0
Zn16 Zn 0.28339 0.51775 0.69157 0.0
O17 O 0.31982 0.54484 0.6991 0.0
C18 C 0.22085 0.53069 0.71325 0.0
O19 O 0.2131 0.51041 0.68981 0.0
O20 O 0.2944 0.4764 0.70976 0.0
C21 C 0.33101 0.56354 0.67744 0.0
O22 O 0.31891 0.56583 0.64641 0.0
C23 C 0.2561 0.53387 0.62532 0.0
O24 O 0.24605 0.55766 0.64248 0.0
O25 O 0.24885 0.53622 0.71853 0.0
C26 C 0.05003 0.29602 0.20945 0.0
O27 O 0.04875 0.28778 0.17674 0.0
O28 O 0.9878 0.27337 0.15755 0.0
Zn29 Zn 0.98517 0.28267 0.2087 0.0
O30 O 0.95678 0.31826 0.2157 0.0
C31 C 0.97089 0.2193 0.22388 0.0
O32 O 0.98843 0.21361 0.19708 0.0
O33 O 0.02611 0.29457 0.22791 0.0
C34 C 0.92853 0.31388 0.22082 0.0
O35 O 0.91799 0.28591 0.22128 0.0
C36 C 0.96471 0.26285 0.14172 0.0
O37 O 0.93944 0.2582 0.1591 0.0
O38 O 0.96769 0.24661 0.23408 0.0
C39 C 0.18747 0.04698 0.70015 0.0
O40 O 0.17914 0.03842 0.66893 0.0
O41 O 0.2259 0.99885 0.64279 0.0
Zn42 Zn 0.21869 0.9913 0.69387 0.0
O43 O 0.18403 0.9617 0.70118 0.0
C44 C 0.27375 0.95711 0.69645 0.0
O45 O 0.26745 0.95472 0.66327 0.0
O46 O 0.20619 0.03051 0.71685 0.0
C47 C 0.18677 0.93326 0.69608 0.0
O48 O 0.21277 0.92251 0.68466 0.0
C49 C 0.20884 0.98803 0.61919 0.0
O50 O 0.18512 0.97155 0.62791 0.0
O51 O 0.25653 0.9732 0.71559 0.0
C52 C 0.45376 0.31138 0.79662 0.0
O53 O 0.46429 0.3193 0.82719 0.0
O54 O 0.51153 0.27364 0.84589 0.0
Zn55 Zn 0.51149 0.28228 0.79443 0.0
O56 O 0.53937 0.31749 0.78453 0.0
C57 C 0.53059 0.22006 0.78246 0.0
O58 O 0.51913 0.21569 0.81351 0.0
O59 O 0.46968 0.29389 0.77765 0.0
C60 C 0.56785 0.31428 0.78871 0.0
O61 O 0.57836 0.28803 0.79976 0.0
C62 C 0.52043 0.29329 0.86788 0.0
O63 O 0.52893 0.32032 0.85706 0.0
O64 O 0.52845 0.24621 0.76861 0.0
C65 C 0.2012 0.4452 0.29758 0.0
O66 O 0.21122 0.44551 0.32966 0.0
O67 O 0.22267 0.50849 0.3504 0.0
Zn68 Zn 0.21371 0.51052 0.29919 0.0
O69 O 0.17894 0.5394 0.29105 0.0
C70 C 0.27604 0.52979 0.28736 0.0
O71 O 0.28056 0.51833 0.31839 0.0
O72 O 0.20138 0.4697 0.28007 0.0
C73 C 0.17753 0.56479 0.30673 0.0
O74 O 0.19888 0.57194 0.32916 0.0
C75 C 0.20161 0.50837 0.37296 0.0
O76 O 0.1731 0.50848 0.36268 0.0
O77 O 0.24979 0.5278 0.27372 0.0
C78 C 0.03712 0.18248 0.81442 0.0
O79 O 0.02428 0.17131 0.84242 0.0
O80 O 0.98319 0.2254 0.86575 0.0
Zn81 Zn 0.98192 0.21546 0.81469 0.0
O82 O 0.95317 0.18058 0.8062 0.0
C83 C 0.9675 0.27852 0.79865 0.0
O84 O 0.98306 0.28444 0.82696 0.0
O85 O 0.02339 0.20325 0.79769 0.0
C86 C 0.95126 0.16901 0.77609 0.0
O87 O 0.9686 0.17981 0.75121 0.0
C88 C 0.97239 0.20714 0.88816 0.0
O89 O 0.96065 0.18119 0.87782 0.0
O90 O 0.96532 0.25117 0.78825 0.0
C91 C 0.32196 0.04399 0.30082 0.0
O92 O 0.33358 0.02808 0.32643 0.0
O93 O 0.27269 0.99173 0.35053 0.0
Zn94 Zn 0.28424 0.99234 0.30006 0.0
O95 O 0.31877 0.96309 0.29302 0.0
C96 C 0.22196 0.97728 0.28222 0.0
O97 O 0.21596 0.99004 0.31224 0.0
O98 O 0.29877 0.03364 0.28504 0.0
C99 C 0.31436 0.9348 0.29743 0.0
O100 O 0.28734 0.92536 0.3073 0.0
C101 C 0.26538 0.01516 0.36794 0.0
O102 O 0.26533 0.04194 0.35284 0.0
O103 O 0.2492 0.97713 0.27116 0.0
C104 C 0.53956 0.81438 0.80188 0.0
O105 O 0.52825 0.82238 0.83205 0.0
O106 O 0.48567 0.76741 0.84926 0.0
Zn107 Zn 0.48388 0.78097 0.79935 0.0
O108 O 0.45369 0.81512 0.79359 0.0
C109 C 0.47519 0.71862 0.77502 0.0
O110 O 0.49401 0.71147 0.8002 0.0
O111 O 0.52481 0.79573 0.7831 0.0
C112 C 0.42559 0.80845 0.79194 0.0
O113 O 0.41727 0.77991 0.79567 0.0
C114 C 0.47639 0.78433 0.87381 0.0
O115 O 0.46571 0.8115 0.86656 0.0
O116 O 0.46893 0.74642 0.76961 0.0
C117 C 0.68407 0.54504 0.30622 0.0
O118 O 0.67471 0.53315 0.3356 0.0
O119 O 0.7252 0.49148 0.35714 0.0
Zn120 Zn 0.71607 0.48963 0.30614 0.0
O121 O 0.68135 0.46051 0.29801 0.0
C122 C 0.77948 0.47438 0.29285 0.0
O123 O 0.78463 0.48943 0.32169 0.0
O124 O 0.7036 0.53064 0.28833 0.0
C125 C 0.67877 0.4486 0.26813 0.0
O126 O 0.69811 0.45644 0.24373 0.0
C127 C 0.72375 0.4671 0.37473 0.0
O128 O 0.71609 0.44164 0.35912 0.0
O129 O 0.75253 0.47295 0.28102 0.0
C130 C 0.95882 0.69039 0.79997 0.0
O131 O 0.96968 0.68255 0.83041 0.0
O132 O 0.01358 0.7325 0.84893 0.0
Zn133 Zn 0.01546 0.72113 0.79831 0.0
O134 O 0.04395 0.6858 0.79145 0.0
C135 C 0.03229 0.78337 0.78311 0.0
O136 O 0.01928 0.78868 0.81317 0.0
O137 O 0.97424 0.70835 0.78105 0.0
C138 C 0.07253 0.69008 0.79226 0.0
O139 O 0.08298 0.71758 0.79836 0.0
C140 C 0.02323 0.71531 0.87302 0.0
O141 O 0.03446 0.6885 0.86515 0.0
O142 O 0.03211 0.75648 0.77097 0.0
C143 C 0.81349 0.95435 0.29963 0.0
O144 O 0.82221 0.96645 0.32915 0.0
O145 O 0.76897 0.0077 0.34866 0.0
Zn146 Zn 0.78079 0.00962 0.29821 0.0
O147 O 0.81571 0.03869 0.29153 0.0
C148 C 0.718 0.01781 0.27922 0.0
O149 O 0.71377 0.99718 0.30339 0.0
O150 O 0.79415 0.96849 0.28119 0.0
C151 C 0.81146 0.0672 0.29391 0.0
O152 O 0.78409 0.07734 0.30131 0.0
C153 C 0.78611 0.01714 0.37294 0.0
O154 O 0.81312 0.02807 0.36535 0.0
O155 O 0.74499 0.02561 0.27144 0.0
C156 C 0.53939 0.68898 0.19683 0.0
O157 O 0.52993 0.68093 0.16585 0.0
O158 O 0.48385 0.72882 0.14606 0.0
Zn159 Zn 0.48143 0.71765 0.19672 0.0
O160 O 0.45367 0.68176 0.20367 0.0
C161 C 0.46465 0.77983 0.21198 0.0
O162 O 0.47943 0.78542 0.18307 0.0
O163 O 0.52264 0.70617 0.21518 0.0
C164 C 0.42519 0.68454 0.19903 0.0
O165 O 0.41436 0.71082 0.18852 0.0
C166 C 0.47623 0.7109 0.12168 0.0
O167 O 0.46675 0.68334 0.12923 0.0
O168 O 0.46359 0.75274 0.2234 0.0
C169 C 0.81428 0.5421 0.69742 0.0
O170 O 0.82306 0.53022 0.66779 0.0
O171 O 0.77461 0.48737 0.64786 0.0
Zn172 Zn 0.78299 0.48604 0.6993 0.0
O173 O 0.81759 0.45709 0.70945 0.0
C174 C 0.71963 0.47045 0.71033 0.0
O175 O 0.71602 0.48277 0.67958 0.0
O176 O 0.79553 0.52743 0.71611 0.0
C177 C 0.81211 0.42942 0.71679 0.0
O178 O 0.78379 0.41984 0.71701 0.0
C179 C 0.77782 0.46391 0.62894 0.0
O180 O 0.78726 0.43845 0.64308 0.0
O181 O 0.74579 0.47086 0.72437 0.0
C182 C 0.96202 0.81183 0.19456 0.0
O183 O 0.97126 0.81917 0.16328 0.0
O184 O 0.01857 0.77163 0.14548 0.0
Zn185 Zn 0.02082 0.785 0.19542 0.0
O186 O 0.04752 0.82194 0.20028 0.0
C187 C 0.0311 0.72424 0.22304 0.0
O188 O 0.00677 0.71698 0.20504 0.0
O189 O 0.97929 0.79576 0.2136 0.0
C190 C 0.07605 0.81953 0.19577 0.0
O191 O 0.0874 0.793 0.18687 0.0
C192 C 0.02537 0.78933 0.12061 0.0
O193 O 0.03368 0.81741 0.12744 0.0
O194 O 0.04017 0.75168 0.2233 0.0
C195 C 0.68774 0.95849 0.6966 0.0
O196 O 0.67924 0.96939 0.66642 0.0
O197 O 0.73025 0.01114 0.64505 0.0
Zn198 Zn 0.71971 0.01425 0.6958 0.0
O199 O 0.68472 0.04304 0.70296 0.0
C200 C 0.78297 0.02488 0.71079 0.0
O201 O 0.78669 0.0053 0.68539 0.0
O202 O 0.70681 0.97348 0.71457 0.0
C203 C 0.68777 0.07151 0.69853 0.0
O204 O 0.7142 0.08223 0.68829 0.0
C205 C 0.71283 0.01989 0.62073 0.0
O206 O 0.68591 0.03103 0.62832 0.0
O207 O 0.75617 0.03116 0.72087 0.0
H208 H 0.4475 0.19397 0.26011 0.0
H209 H 0.42288 0.15367 0.16179 0.0
H210 H 0.40764 0.16446 0.28861 0.0
H211 H 0.38374 0.12376 0.19029 0.0
H212 H 0.30632 0.08049 0.24605 0.0
H213 H 0.33603 0.12216 0.22141 0.0
H214 H 0.40322 0.11094 0.30221 0.0
H215 H 0.37331 0.06998 0.3272 0.0
C216 C 0.43333 0.17916 0.2445 0.0
C217 C 0.43862 0.17586 0.20876 0.0
C218 C 0.4106 0.16213 0.26086 0.0
C219 C 0.39272 0.14149 0.24181 0.0
C220 C 0.39687 0.13962 0.20574 0.0
C221 C 0.41953 0.15663 0.1894 0.0
C222 C 0.32718 0.08728 0.25885 0.0
C223 C 0.33766 0.07167 0.28832 0.0
C224 C 0.34426 0.11107 0.24466 0.0
C225 C 0.37214 0.11971 0.25964 0.0
C226 C 0.38172 0.10513 0.29018 0.0
C227 C 0.36465 0.08142 0.30438 0.0
H228 H 0.30085 0.4323 0.75303 0.0
H229 H 0.35634 0.42594 0.66083 0.0
H230 H 0.3288 0.3899 0.77856 0.0
H231 H 0.38475 0.3844 0.68662 0.0
H232 H 0.42684 0.30261 0.73327 0.0
H233 H 0.3864 0.33302 0.70728 0.0
H234 H 0.37908 0.38521 0.80192 0.0
H235 H 0.41862 0.35434 0.82812 0.0
C236 C 0.31877 0.42166 0.73806 0.0
C237 C 0.32665 0.43276 0.7051 0.0
C238 C 0.33488 0.39745 0.75275 0.0
C239 C 0.35925 0.38393 0.73482 0.0
C240 C 0.36593 0.39399 0.70107 0.0
C241 C 0.34977 0.41805 0.68635 0.0
C242 C 0.41616 0.32019 0.74873 0.0
C243 C 0.42625 0.32634 0.78259 0.0
C244 C 0.39309 0.33773 0.73377 0.0
C245 C 0.37974 0.36183 0.75233 0.0
C246 C 0.38859 0.36668 0.78693 0.0
C247 C 0.41151 0.34908 0.8019 0.0
H248 H 0.10249 0.31018 0.17476 0.0
H249 H 0.0601 0.31565 0.27568 0.0
H250 H 0.14484 0.34104 0.1958 0.0
H251 H 0.1021 0.34678 0.29644 0.0
H252 H 0.18796 0.39197 0.33126 0.0
H253 H 0.15656 0.35005 0.31004 0.0
H254 H 0.14811 0.39508 0.21098 0.0
H255 H 0.17972 0.43662 0.23188 0.0
C256 C 0.1024 0.31757 0.20156 0.0
C257 C 0.07772 0.31079 0.22342 0.0
C258 C 0.1266 0.33535 0.21354 0.0
C259 C 0.12669 0.34659 0.24767 0.0
C260 C 0.10289 0.33828 0.27009 0.0
C261 C 0.07866 0.3206 0.25809 0.0
C262 C 0.17985 0.39265 0.30475 0.0
C263 C 0.18603 0.41781 0.28339 0.0
C264 C 0.16176 0.3687 0.29267 0.0
C265 C 0.14963 0.36936 0.25894 0.0
C266 C 0.1573 0.3937 0.23699 0.0
C267 C 0.17526 0.41766 0.24908 0.0
H268 H 0.146 0.08541 0.67134 0.0
H269 H 0.19388 0.06734 0.76702 0.0
H270 H 0.11483 0.12297 0.70068 0.0
H271 H 0.16304 0.10574 0.79634 0.0
H272 H 0.06882 0.13462 0.84116 0.0
H273 H 0.11047 0.10701 0.81431 0.0
H274 H 0.11123 0.17132 0.72959 0.0
H275 H 0.06883 0.19857 0.75607 0.0
C276 C 0.15031 0.08989 0.69852 0.0
C277 C 0.17212 0.07304 0.71697 0.0
C278 C 0.13256 0.11167 0.71532 0.0
C279 C 0.13625 0.11722 0.75096 0.0
C280 C 0.1593 0.10164 0.76898 0.0
C281 C 0.17708 0.07976 0.75215 0.0
C282 C 0.07811 0.14316 0.81704 0.0
C283 C 0.06519 0.16853 0.80049 0.0
C284 C 0.10222 0.12744 0.80176 0.0
C285 C 0.11406 0.13679 0.76963 0.0
C286 C 0.10228 0.16322 0.75406 0.0
C287 C 0.07807 0.17891 0.76931 0.0
H288 H 0.57273 0.85941 0.8327 0.0
H289 H 0.56867 0.804 0.74022 0.0
H290 H 0.61347 0.88935 0.8072 0.0
H291 H 0.61013 0.83352 0.71501 0.0
H292 H 0.6442 0.92368 0.66567 0.0
H293 H 0.61328 0.88422 0.69203 0.0
H294 H 0.66527 0.89207 0.78674 0.0
H295 H 0.69586 0.93235 0.76051 0.0
C296 C 0.58093 0.85323 0.80718 0.0
C297 C 0.56713 0.82961 0.78829 0.0
C298 C 0.60451 0.87028 0.79263 0.0
C299 C 0.61493 0.86403 0.75891 0.0
C300 C 0.60227 0.83928 0.74081 0.0
C301 C 0.57859 0.82227 0.75532 0.0
C302 C 0.64937 0.91674 0.69196 0.0
C303 C 0.67223 0.93146 0.71114 0.0
C304 C 0.63175 0.89388 0.70703 0.0
C305 C 0.63663 0.88509 0.74162 0.0
C306 C 0.66061 0.89866 0.76021 0.0
C307 C 0.67824 0.92162 0.74513 0.0
H308 H 0.56419 0.69837 0.26114 0.0
H309 H 0.5767 0.64718 0.16652 0.0
H310 H 0.60506 0.66944 0.28841 0.0
H311 H 0.61677 0.6178 0.19396 0.0
H312 H 0.63799 0.57765 0.33545 0.0
H313 H 0.60826 0.61791 0.30889 0.0
H314 H 0.66683 0.61564 0.21892 0.0
H315 H 0.69618 0.57457 0.24521 0.0
C316 C 0.57589 0.68122 0.24602 0.0
C317 C 0.56691 0.67478 0.21182 0.0
C318 C 0.59921 0.66454 0.2617 0.0
C319 C 0.61396 0.64105 0.24353 0.0
C320 C 0.60615 0.6359 0.20866 0.0
C321 C 0.58294 0.65262 0.19297 0.0
C322 C 0.64484 0.586 0.31022 0.0
C323 C 0.66916 0.57257 0.29222 0.0
C324 C 0.62791 0.60932 0.29506 0.0
C325 C 0.63499 0.61986 0.26161 0.0
C326 C 0.66047 0.60767 0.24447 0.0
C327 C 0.67736 0.58423 0.2596 0.0
H328 H 0.92391 0.64745 0.83189 0.0
H329 H 0.93158 0.69886 0.73679 0.0
H330 H 0.88376 0.61685 0.80631 0.0
H331 H 0.89063 0.66864 0.71141 0.0
H332 H 0.85853 0.57576 0.66606 0.0
H333 H 0.88814 0.61688 0.69117 0.0
H334 H 0.83282 0.61341 0.78371 0.0
H335 H 0.80359 0.57152 0.75887 0.0
C336 C 0.91659 0.65266 0.80574 0.0
C337 C 0.93128 0.67527 0.78619 0.0
C338 C 0.89334 0.63523 0.79113 0.0
C339 C 0.88413 0.6401 0.75667 0.0
C340 C 0.89757 0.66397 0.73782 0.0
C341 C 0.92093 0.68138 0.75242 0.0
C342 C 0.85235 0.58402 0.69157 0.0
C343 C 0.82901 0.57004 0.71068 0.0
C344 C 0.86921 0.60783 0.70589 0.0
C345 C 0.86304 0.6183 0.7396 0.0
C346 C 0.83849 0.60552 0.75791 0.0
C347 C 0.82166 0.5816 0.74361 0.0
H348 H 0.80266 0.92407 0.23869 0.0
H349 H 0.85959 0.92268 0.33004 0.0
H350 H 0.83297 0.88316 0.21344 0.0
H351 H 0.8903 0.88268 0.30452 0.0
H352 H 0.9368 0.80288 0.25873 0.0
H353 H 0.89498 0.83126 0.28486 0.0
H354 H 0.88312 0.88118 0.18928 0.0
H355 H 0.92407 0.85227 0.16296 0.0
C356 C 0.82141 0.91482 0.25354 0.0
C357 C 0.82896 0.9269 0.28617 0.0
C358 C 0.83887 0.89148 0.23901 0.0
C359 C 0.86429 0.87983 0.25676 0.0
C360 C 0.87072 0.89081 0.29022 0.0
C361 C 0.85321 0.91399 0.30478 0.0
C362 C 0.92487 0.81953 0.24313 0.0
C363 C 0.93404 0.82563 0.20893 0.0
C364 C 0.901 0.8359 0.25815 0.0
C365 C 0.88591 0.85879 0.23934 0.0
C366 C 0.89397 0.86355 0.20448 0.0
C367 C 0.91769 0.8471 0.18943 0.0
H368 H 0.51772 0.33353 0.24023 0.0
H369 H 0.596 0.27684 0.21946 0.0
H370 H 0.55169 0.3762 0.25374 0.0
H371 H 0.62954 0.31932 0.23269 0.0
H372 H 0.67514 0.41113 0.21207 0.0
H373 H 0.63905 0.37 0.20198 0.0
H374 H 0.59399 0.39085 0.29853 0.0
H375 H 0.63038 0.43215 0.30894 0.0
C376 C 0.54209 0.3301 0.2388 0.0
C377 C 0.55414 0.30184 0.22861 0.0
C378 C 0.56147 0.35447 0.24662 0.0
C379 C 0.59317 0.35107 0.2439 0.0
C380 C 0.60517 0.32265 0.23454 0.0
C381 C 0.58591 0.29828 0.22716 0.0
C382 C 0.65748 0.40713 0.23111 0.0
C383 C 0.65571 0.42481 0.26139 0.0
C384 C 0.63692 0.38346 0.22539 0.0
C385 C 0.61391 0.37715 0.24961 0.0
C386 C 0.6115 0.39533 0.27943 0.0
C387 C 0.63237 0.41884 0.28541 0.0
H388 H 0.16044 0.53538 0.69687 0.0
H389 H 0.2287 0.57007 0.76721 0.0
H390 H 0.12399 0.57225 0.71929 0.0
H391 H 0.19206 0.60628 0.79032 0.0
H392 H 0.13422 0.69294 0.78522 0.0
H393 H 0.16884 0.65205 0.76969 0.0
H394 H 0.09362 0.58868 0.76782 0.0
H395 H 0.05875 0.62991 0.78246 0.0
C396 C 0.16749 0.55046 0.71759 0.0
C397 C 0.19755 0.55002 0.72999 0.0
C398 C 0.14655 0.57154 0.73056 0.0
C399 C 0.15519 0.5925 0.75635 0.0
C400 C 0.18484 0.59095 0.76992 0.0
C401 C 0.20579 0.57004 0.75682 0.0
C402 C 0.12505 0.67027 0.78172 0.0
C403 C 0.09371 0.66473 0.78491 0.0
C404 C 0.14496 0.64673 0.77303 0.0
C405 C 0.13404 0.61702 0.76753 0.0
C406 C 0.10274 0.61135 0.77143 0.0
C407 C 0.08278 0.63496 0.77999 0.0
H408 H 0.87108 0.05378 0.2802 0.0
H409 H 0.80904 0.12925 0.29267 0.0
H410 H 0.91224 0.08928 0.26732 0.0
H411 H 0.84992 0.1646 0.279 0.0
H412 H 0.93333 0.22328 0.28013 0.0
H413 H 0.89695 0.18551 0.30054 0.0
H414 H 0.92721 0.12323 0.221 0.0
H415 H 0.96415 0.16071 0.20114 0.0
C416 C 0.86622 0.07794 0.28023 0.0
C417 C 0.83675 0.08869 0.28736 0.0
C418 C 0.88979 0.09827 0.27269 0.0
C419 C 0.88441 0.12979 0.2721 0.0
C420 C 0.85501 0.14051 0.27977 0.0
C421 C 0.83149 0.1202 0.28737 0.0
C422 C 0.93253 0.20137 0.26729 0.0
C423 C 0.95152 0.19508 0.23885 0.0
C424 C 0.91151 0.1798 0.27884 0.0
C425 C 0.90889 0.15147 0.26215 0.0
C426 C 0.92878 0.14471 0.23464 0.0
C427 C 0.94991 0.16627 0.22316 0.0
H428 H 0.30175 0.90863 0.66666 0.0
H429 H 0.29995 0.96183 0.76093 0.0
H430 H 0.33829 0.87398 0.69291 0.0
H431 H 0.3373 0.92709 0.78699 0.0
H432 H 0.43217 0.87049 0.79283 0.0
H433 H 0.3957 0.90852 0.77183 0.0
H434 H 0.33189 0.83698 0.7476 0.0
H435 H 0.36779 0.79909 0.76898 0.0
C436 C 0.30943 0.91318 0.69284 0.0
C437 C 0.29789 0.93794 0.71177 0.0
C438 C 0.33021 0.89321 0.70788 0.0
C439 C 0.34033 0.89783 0.74197 0.0
C440 C 0.32975 0.92314 0.76063 0.0
C441 C 0.30842 0.94291 0.74575 0.0
C442 C 0.41021 0.86296 0.7834 0.0
C443 C 0.40291 0.83179 0.78235 0.0
C444 C 0.38939 0.8847 0.77154 0.0
C445 C 0.36122 0.87553 0.75792 0.0
C446 C 0.35362 0.84452 0.75777 0.0
C447 C 0.37413 0.82289 0.77012 0.0
H448 H 0.54349 0.16326 0.80721 0.0
H449 H 0.56056 0.22299 0.72036 0.0
H450 H 0.57942 0.12658 0.78358 0.0
H451 H 0.59607 0.18595 0.69637 0.0
H452 H 0.68743 0.13361 0.69488 0.0
H453 H 0.64666 0.16805 0.7118 0.0
H454 H 0.58943 0.09112 0.73658 0.0
H455 H 0.63043 0.05662 0.72028 0.0
C456 C 0.55451 0.16836 0.78278 0.0
C457 C 0.54933 0.19618 0.76584 0.0
C458 C 0.57502 0.14724 0.76913 0.0
C459 C 0.5908 0.15344 0.73821 0.0
C460 C 0.58466 0.18072 0.72053 0.0
C461 C 0.56414 0.20185 0.73418 0.0
C462 C 0.66609 0.12402 0.7037 0.0
C463 C 0.66228 0.09238 0.70647 0.0
C464 C 0.64262 0.14377 0.71318 0.0
C465 C 0.61479 0.13233 0.72562 0.0
C466 C 0.61072 0.10066 0.72754 0.0
C467 C 0.63419 0.0809 0.71805 0.0
H468 H 0.36317 0.6838 0.19458 0.0
H469 H 0.44009 0.62778 0.22276 0.0
H470 H 0.32869 0.64348 0.21267 0.0
H471 H 0.40551 0.58716 0.24025 0.0
H472 H 0.33275 0.54338 0.31211 0.0
H473 H 0.36972 0.57846 0.28733 0.0
H474 H 0.31085 0.59254 0.19907 0.0
H475 H 0.27354 0.55793 0.22418 0.0
C476 C 0.37275 0.66274 0.20423 0.0
C477 C 0.40438 0.65911 0.20744 0.0
C478 C 0.35296 0.63952 0.2144 0.0
C479 C 0.36434 0.6121 0.22799 0.0
C480 C 0.39601 0.60815 0.23031 0.0
C481 C 0.41582 0.63139 0.22013 0.0
C482 C 0.32783 0.55366 0.28722 0.0
C483 C 0.30006 0.54806 0.2703 0.0
C484 C 0.34912 0.57367 0.27291 0.0
C485 C 0.34313 0.5885 0.24134 0.0
C486 C 0.31592 0.58189 0.22372 0.0
C487 C 0.29462 0.5619 0.23803 0.0
H488 H 0.87255 0.44261 0.7263 0.0
H489 H 0.80824 0.36816 0.72645 0.0
H490 H 0.91327 0.40733 0.74215 0.0
H491 H 0.84871 0.33319 0.74246 0.0
H492 H 0.9307 0.27284 0.74195 0.0
H493 H 0.89557 0.31045 0.71864 0.0
H494 H 0.92716 0.37607 0.79386 0.0
H495 H 0.96265 0.33853 0.81708 0.0
C496 C 0.86713 0.41874 0.72955 0.0
C497 C 0.83715 0.40819 0.7252 0.0
C498 C 0.89042 0.39859 0.73875 0.0
C499 C 0.88421 0.36749 0.74343 0.0
C500 C 0.85432 0.35695 0.73854 0.0
C501 C 0.83106 0.37706 0.72962 0.0
C502 C 0.93049 0.2954 0.75327 0.0
C503 C 0.94924 0.30257 0.78167 0.0
C504 C 0.91024 0.31689 0.73999 0.0
C505 C 0.90833 0.34606 0.75471 0.0
C506 C 0.92821 0.3538 0.78188 0.0
C507 C 0.94845 0.33224 0.79527 0.0
H508 H 0.06002 0.87752 0.2141 0.0
H509 H 0.13812 0.82063 0.19348 0.0
H510 H 0.09376 0.91939 0.22987 0.0
H511 H 0.17175 0.86214 0.21 0.0
H512 H 0.22706 0.947 0.22049 0.0
H513 H 0.19045 0.912 0.19468 0.0
H514 H 0.1273 0.93096 0.27777 0.0
H515 H 0.16352 0.96647 0.30308 0.0
C516 C 0.08438 0.87399 0.21275 0.0
C517 C 0.09639 0.84567 0.20276 0.0
C518 C 0.10371 0.89795 0.22194 0.0
C519 C 0.13546 0.8941 0.22136 0.0
C520 C 0.14742 0.86606 0.2103 0.0
C521 C 0.12812 0.84214 0.20106 0.0
C522 C 0.20517 0.94407 0.23296 0.0
C523 C 0.19833 0.95932 0.26404 0.0
C524 C 0.18427 0.92385 0.21827 0.0
C525 C 0.15609 0.91839 0.23436 0.0
C526 C 0.14868 0.9348 0.26451 0.0
C527 C 0.16954 0.95508 0.27914 0.0
H528 H 0.35794 0.60916 0.63991 0.0
H529 H 0.36085 0.56424 0.73952 0.0
H530 H 0.39677 0.64499 0.65957 0.0
H531 H 0.39897 0.60033 0.75932 0.0
H532 H 0.48197 0.65684 0.78019 0.0
H533 H 0.45084 0.61757 0.75286 0.0
H534 H 0.39904 0.68702 0.7 0.0
H535 H 0.43051 0.72611 0.72654 0.0
C536 C 0.36698 0.6068 0.6659 0.0
C537 C 0.35613 0.58396 0.6882 0.0
C538 C 0.38912 0.62742 0.67722 0.0
C539 C 0.40092 0.62562 0.71107 0.0
C540 C 0.39072 0.60217 0.73294 0.0
C541 C 0.36862 0.58159 0.72165 0.0
C542 C 0.4642 0.66369 0.76237 0.0
C543 C 0.4586 0.69462 0.75577 0.0
C544 C 0.44625 0.64119 0.74686 0.0
C545 C 0.42227 0.64914 0.72445 0.0
C546 C 0.41751 0.68003 0.71679 0.0
C547 C 0.43548 0.70249 0.73221 0.0
H548 H 0.94337 0.37392 0.23039 0.0
H549 H 0.86675 0.31232 0.22597 0.0
H550 H 0.90882 0.416 0.24352 0.0
H551 H 0.8325 0.35414 0.23932 0.0
H552 H 0.7751 0.43801 0.23562 0.0
H553 H 0.81252 0.40171 0.2143 0.0
H554 H 0.87579 0.43107 0.29321 0.0
H555 H 0.83848 0.46773 0.31442 0.0
C556 C 0.91918 0.36939 0.23202 0.0
C557 C 0.9078 0.33976 0.22725 0.0
C558 C 0.89945 0.39345 0.23967 0.0
C559 C 0.86796 0.38838 0.24236 0.0
C560 C 0.8566 0.35887 0.23693 0.0
C561 C 0.87628 0.33484 0.22954 0.0
C562 C 0.79714 0.43709 0.24815 0.0
C563 C 0.80368 0.45554 0.277 0.0
C564 C 0.81851 0.41616 0.23602 0.0
C565 C 0.84693 0.41328 0.25236 0.0
C566 C 0.85413 0.43287 0.27998 0.0
C567 C 0.83269 0.45379 0.29221 0.0
H568 H 0.0437 0.84099 0.80637 0.0
H569 H 0.06219 0.78001 0.72101 0.0
H570 H 0.0787 0.87809 0.78184 0.0
H571 H 0.09662 0.81751 0.69598 0.0
H572 H 0.18677 0.87123 0.69273 0.0
H573 H 0.14649 0.83655 0.71024 0.0
H574 H 0.08874 0.91308 0.73503 0.0
H575 H 0.12943 0.94788 0.71829 0.0
C576 C 0.0548 0.83571 0.78203 0.0
C577 C 0.05037 0.80741 0.76584 0.0
C578 C 0.07478 0.85708 0.76785 0.0
C579 C 0.09069 0.85068 0.73707 0.0
C580 C 0.08516 0.82292 0.72005 0.0
C581 C 0.06526 0.80151 0.7343 0.0
C582 C 0.16542 0.8807 0.70167 0.0
C583 C 0.16141 0.91232 0.70435 0.0
C584 C 0.1422 0.86079 0.71149 0.0
C585 C 0.11436 0.87202 0.72409 0.0
C586 C 0.11005 0.90368 0.72588 0.0
C587 C 0.13333 0.92362 0.71614 0.0
H588 H 0.59233 0.14111 0.17287 0.0
H589 H 0.56128 0.13203 0.27868 0.0
H590 H 0.63019 0.10148 0.18295 0.0
H591 H 0.59944 0.09301 0.28891 0.0
H592 H 0.65752 0.00944 0.29302 0.0
H593 H 0.61519 0.04159 0.27491 0.0
H594 H 0.6772 0.09742 0.21568 0.0
H595 H 0.71934 0.065 0.23311 0.0
C596 C 0.59346 0.13056 0.19821 0.0
C597 C 0.57393 0.13988 0.22505 0.0
C598 C 0.61523 0.10794 0.20401 0.0
C599 C 0.61792 0.09415 0.23676 0.0
C600 C 0.59774 0.10285 0.26324 0.0
C601 C 0.57599 0.12543 0.25745 0.0
C602 C 0.66205 0.02829 0.2757 0.0
C603 C 0.69185 0.03481 0.26477 0.0
C604 C 0.63781 0.04682 0.2655 0.0
C605 C 0.64285 0.07226 0.24414 0.0
C606 C 0.67245 0.07787 0.23188 0.0
C607 C 0.69667 0.05935 0.24205 0.0
H608 H 0.45642 0.83837 0.1901 0.0
H609 H 0.4316 0.77595 0.27192 0.0
H610 H 0.42209 0.87631 0.21418 0.0
H611 H 0.39782 0.81424 0.29654 0.0
H612 H 0.3107 0.87277 0.29814 0.0
H613 H 0.34957 0.83642 0.28087 0.0
H614 H 0.41237 0.91029 0.26205 0.0
H615 H 0.37316 0.94677 0.27851 0.0
C616 C 0.44403 0.83291 0.21356 0.0
C617 C 0.44656 0.80404 0.22891 0.0
C618 C 0.42444 0.85475 0.2275 0.0
C619 C 0.40702 0.84825 0.25717 0.0
C620 C 0.4105 0.81978 0.2733 0.0
C621 C 0.43002 0.79791 0.25931 0.0
C622 C 0.33286 0.88128 0.29057 0.0
C623 C 0.33875 0.91268 0.28946 0.0
C624 C 0.35525 0.8604 0.28088 0.0
C625 C 0.3841 0.87043 0.26998 0.0
C626 C 0.39025 0.90183 0.26982 0.0
C627 C 0.36782 0.92272 0.27942 0.0
H628 H 0.72044 0.44015 0.77221 0.0
H629 H 0.66302 0.45918 0.68385 0.0
H630 H 0.68233 0.40495 0.79446 0.0
H631 H 0.62524 0.42349 0.70576 0.0
H632 H 0.55354 0.37163 0.76644 0.0
H633 H 0.58854 0.41266 0.75136 0.0
H634 H 0.66474 0.35484 0.77712 0.0
H635 H 0.62985 0.31413 0.79283 0.0
C636 C 0.69956 0.43708 0.7577 0.0
C637 C 0.69488 0.45229 0.72609 0.0
C638 C 0.67781 0.41674 0.77035 0.0
C639 C 0.65092 0.41113 0.75168 0.0
C640 C 0.64561 0.42744 0.72091 0.0
C641 C 0.66735 0.44783 0.70827 0.0
C642 C 0.57777 0.36775 0.76908 0.0
C643 C 0.58893 0.33956 0.78071 0.0
C644 C 0.59781 0.39123 0.76032 0.0
C645 C 0.62942 0.38703 0.76303 0.0
C646 C 0.64051 0.359 0.77523 0.0
C647 C 0.6205 0.33556 0.784 0.0
H648 H 0.1353 0.56092 0.25491 0.0
H649 H 0.16438 0.61821 0.33976 0.0
H650 H 0.09769 0.59881 0.23834 0.0
H651 H 0.12604 0.65573 0.32389 0.0
H652 H 0.08584 0.73124 0.25542 0.0
H653 H 0.11871 0.69184 0.27858 0.0
H654 H 0.05111 0.62387 0.25336 0.0
H655 H 0.01846 0.6634 0.22906 0.0
C656 C 0.13337 0.58142 0.27034 0.0
C657 C 0.15304 0.58669 0.29844 0.0
C658 C 0.11162 0.60308 0.26098 0.0
C659 C 0.10889 0.63044 0.27966 0.0
C660 C 0.12789 0.63518 0.30854 0.0
C661 C 0.14978 0.6136 0.31774 0.0
C662 C 0.0778 0.70794 0.25507 0.0
C663 C 0.04959 0.70045 0.24016 0.0
C664 C 0.09662 0.68531 0.2686 0.0
C665 C 0.08763 0.65462 0.26779 0.0
C666 C 0.05894 0.64723 0.25391 0.0
C667 C 0.04015 0.6699 0.24017 0.0
H668 H 0.91189 0.14181 0.82151 0.0
H669 H 0.93954 0.14153 0.71398 0.0
H670 H 0.87303 0.1038 0.8086 0.0
H671 H 0.90034 0.10406 0.701 0.0
H672 H 0.8428 0.01948 0.6923 0.0
H673 H 0.88522 0.05151 0.71048 0.0
H674 H 0.82491 0.10209 0.77756 0.0
H675 H 0.78265 0.06974 0.75995 0.0
C676 C 0.90975 0.13358 0.79514 0.0
C677 C 0.92873 0.14481 0.76873 0.0
C678 C 0.88738 0.1119 0.78773 0.0
C679 C 0.88351 0.10095 0.75376 0.0
C680 C 0.90296 0.1117 0.72753 0.0
C681 C 0.92532 0.13336 0.73494 0.0
C682 C 0.83866 0.03718 0.71126 0.0
C683 C 0.80929 0.04216 0.72452 0.0
C684 C 0.86294 0.05567 0.7215 0.0
C685 C 0.85841 0.07952 0.74525 0.0
C686 C 0.82926 0.08374 0.75947 0.0
C687 C 0.80498 0.06527 0.74924 0.0
H688 H 0.58109 0.26733 0.07919 0.0
H689 H 0.49097 0.22785 0.07855 0.0
H690 H 0.57556 0.28063 0.01819 0.0
H691 H 0.48536 0.24153 0.01756 0.0
H692 H 0.50283 0.24034 0.89934 0.0
H693 H 0.50709 0.22719 0.96061 0.0
H694 H 0.54553 0.31572 0.98191 0.0
H695 H 0.54164 0.3288 0.9207 0.0
C696 C 0.56007 0.26155 0.06607 0.0
C697 C 0.53647 0.24653 0.08371 0.0
C698 C 0.55684 0.26934 0.03118 0.0
C699 C 0.53 0.26218 0.01313 0.0
C700 C 0.50642 0.24708 0.03072 0.0
C701 C 0.50959 0.23939 0.06568 0.0
C702 C 0.5121 0.25704 0.91711 0.0
C703 C 0.52196 0.28559 0.90514 0.0
C704 C 0.5144 0.24955 0.95222 0.0
C705 C 0.52672 0.27039 0.97603 0.0
C706 C 0.53631 0.29904 0.9641 0.0
C707 C 0.5339 0.30658 0.92905 0.0
H708 H 0.1626 0.51617 0.42746 0.0
H709 H 0.25785 0.50457 0.40285 0.0
H710 H 0.17551 0.52141 0.48873 0.0
H711 H 0.27068 0.51004 0.46404 0.0
H712 H 0.27776 0.49064 0.58076 0.0
H713 H 0.264 0.48303 0.52009 0.0
H714 H 0.20236 0.55935 0.52577 0.0
H715 H 0.2159 0.56689 0.58653 0.0
C716 C 0.18626 0.5146 0.43511 0.0
C717 C 0.2092 0.51001 0.41028 0.0
C718 C 0.19365 0.5178 0.47018 0.0
C719 C 0.22411 0.51626 0.48115 0.0
C720 C 0.24698 0.51108 0.4564 0.0
C721 C 0.23962 0.50808 0.42133 0.0
C722 C 0.26126 0.5058 0.56909 0.0
C723 C 0.24796 0.52941 0.58845 0.0
C724 C 0.25349 0.5015 0.53431 0.0
C725 C 0.23209 0.52057 0.5182 0.0
C726 C 0.21867 0.54408 0.5376 0.0
C727 C 0.2266 0.54853 0.57233 0.0
H728 H 0.92009 0.23811 0.10143 0.0
H729 H 0.01302 0.27024 0.09765 0.0
H730 H 0.92267 0.22498 0.0402 0.0
H731 H 0.01567 0.25664 0.03633 0.0
H732 H 0.99547 0.2585 0.91861 0.0
H733 H 0.99404 0.27226 0.97992 0.0
H734 H 0.94831 0.18765 0.00311 0.0
H735 H 0.94934 0.17406 0.94192 0.0
C736 C 0.9411 0.24233 0.08757 0.0
C737 C 0.96636 0.25519 0.10443 0.0
C738 C 0.94262 0.23462 0.0525 0.0
C739 C 0.96941 0.23965 0.03348 0.0
C740 C 0.99462 0.25275 0.05024 0.0
C741 C 0.99314 0.26039 0.08539 0.0
C742 C 0.98517 0.24281 0.93681 0.0
C743 C 0.97243 0.21522 0.92538 0.0
C744 C 0.9845 0.25063 0.97194 0.0
C745 C 0.97096 0.23109 0.99631 0.0
C746 C 0.95851 0.20339 0.98488 0.0
C747 C 0.95926 0.19553 0.94983 0.0
H748 H 0.25397 0.96269 0.40335 0.0
H749 H 0.25674 0.06042 0.41568 0.0
H750 H 0.2395 0.95721 0.464 0.0
H751 H 0.24214 0.05481 0.47652 0.0
H752 H 0.25219 0.0259 0.59222 0.0
H753 H 0.26513 0.03329 0.53124 0.0
H754 H 0.19481 0.96969 0.50176 0.0
H755 H 0.18186 0.96215 0.56264 0.0
C756 C 0.25148 0.98301 0.419 0.0
C757 C 0.25652 0.012 0.40473 0.0
C758 C 0.24301 0.97985 0.45367 0.0
C759 C 0.23963 0.00558 0.47491 0.0
C760 C 0.24479 0.03458 0.46075 0.0
C761 C 0.253 0.03778 0.42592 0.0
C762 C 0.23941 0.01356 0.57273 0.0
C763 C 0.21606 0.99335 0.58226 0.0
C764 C 0.24673 0.01795 0.53783 0.0
C765 C 0.23102 0.002 0.51182 0.0
C766 C 0.20749 0.98203 0.52132 0.0
C767 C 0.2 0.97784 0.55617 0.0
H768 H 0.45881 0.81497 0.93206 0.0
H769 H 0.49617 0.72915 0.89769 0.0
H770 H 0.45951 0.79689 0.99173 0.0
H771 H 0.49737 0.71129 0.95754 0.0
H772 H 0.46123 0.67879 0.06338 0.0
H773 H 0.46196 0.69649 0.00348 0.0
H774 H 0.49543 0.78397 0.03758 0.0
H775 H 0.49418 0.76652 0.09749 0.0
C776 C 0.46732 0.7923 0.93723 0.0
C777 C 0.47739 0.7735 0.9101 0.0
C778 C 0.46789 0.78201 0.97148 0.0
C779 C 0.47852 0.75267 0.97938 0.0
C780 C 0.48871 0.73389 0.95226 0.0
C781 C 0.48818 0.7442 0.91799 0.0
C782 C 0.4688 0.70177 0.0581 0.0
C783 C 0.47755 0.72126 0.08522 0.0
C784 C 0.46939 0.71186 0.02374 0.0
C785 C 0.4787 0.74165 0.01578 0.0
C786 C 0.48774 0.76102 0.0429 0.0
C787 C 0.48718 0.75095 0.07723 0.0
H788 H 0.78627 0.41927 0.58075 0.0
H789 H 0.75226 0.51092 0.59274 0.0
H790 H 0.77337 0.4206 0.51943 0.0
H791 H 0.73856 0.51194 0.5315 0.0
H792 H 0.74732 0.51383 0.41312 0.0
H793 H 0.76082 0.51336 0.47442 0.0
H794 H 0.72959 0.42035 0.48227 0.0
H795 H 0.71694 0.42054 0.42083 0.0
C796 C 0.77593 0.43968 0.57033 0.0
C797 C 0.77029 0.46499 0.59162 0.0
C798 C 0.76834 0.44036 0.5352 0.0
C799 C 0.7548 0.46633 0.52056 0.0
C800 C 0.7493 0.49172 0.54184 0.0
C801 C 0.75702 0.49108 0.57698 0.0
C802 C 0.74331 0.4933 0.42796 0.0
C803 C 0.73116 0.46719 0.41211 0.0
C804 C 0.7509 0.49308 0.46314 0.0
C805 C 0.74636 0.46679 0.48326 0.0
C806 C 0.73388 0.44081 0.46741 0.0
C807 C 0.72646 0.44097 0.43222 0.0
H808 H 0.03867 0.82116 0.06173 0.0
H809 H 0.00924 0.73272 0.09752 0.0
H810 H 0.03751 0.80291 0.00211 0.0
H811 H 0.00755 0.71467 0.03777 0.0
H812 H 0.0426 0.68473 0.93064 0.0
H813 H 0.04252 0.70259 0.99049 0.0
H814 H 0.00128 0.78704 0.95777 0.0
H815 H 0.00187 0.76948 0.89786 0.0
C816 C 0.0318 0.79787 0.05688 0.0
C817 C 0.02409 0.77838 0.08438 0.0
C818 C 0.03096 0.78747 0.02268 0.0
C819 C 0.02241 0.75735 0.01521 0.0
C820 C 0.01459 0.73789 0.04271 0.0
C821 C 0.0154 0.7483 0.07693 0.0
C822 C 0.03345 0.70708 0.93621 0.0
C823 C 0.02232 0.72571 0.90947 0.0
C824 C 0.03326 0.71724 0.97054 0.0
C825 C 0.02194 0.74625 0.97886 0.0
C826 C 0.01054 0.76474 0.95214 0.0
C827 C 0.01072 0.75459 0.91783 0.0
H828 H 0.68127 0.03576 0.56236 0.0
H829 H 0.76786 0.00015 0.59668 0.0
H830 H 0.69905 0.03434 0.50248 0.0
H831 H 0.78538 0.99832 0.53679 0.0
H832 H 0.81731 0.03431 0.43103 0.0
H833 H 0.79928 0.03421 0.49078 0.0
H834 H 0.71292 0.99776 0.45695 0.0
H835 H 0.73074 0.99827 0.3971 0.0
C836 C 0.70402 0.02747 0.55713 0.0
C837 C 0.72317 0.01814 0.58429 0.0
C838 C 0.71414 0.02651 0.5228 0.0
C839 C 0.74364 0.01627 0.51493 0.0
C840 C 0.76268 0.0067 0.54208 0.0
C841 C 0.75255 0.00758 0.57637 0.0
C842 C 0.7945 0.02621 0.43632 0.0
C843 C 0.77546 0.01633 0.4093 0.0
C844 C 0.78423 0.02601 0.47058 0.0
C845 C 0.75468 0.01598 0.47857 0.0
C846 C 0.73568 0.00595 0.45157 0.0
C847 C 0.74597 0.00608 0.4173 0.0
loop_
_geom_bond_atom_site_label_1
_geom_bond_atom_site_label_2
_geom_bond_distance
_geom_bond_site_symmetry_2
_ccdc_geom_bond_type
C0 O1 1.160 . S
C0 O7 1.185 . S
O1 C0 1.160 . S
O2 Zn3 1.899 . S
O2 C10 1.284 . S
Zn3 O2 1.899 . S
Zn3 O4 2.032 . S
Zn3 O7 2.086 . S
Zn3 O12 1.977 . S
O4 Zn3 2.032 . S
O4 C8 1.278 . S
C5 O6 1.203 . S
C5 O12 1.267 . S
O6 C5 1.203 . S
O7 C0 1.185 . S
O7 Zn3 2.086 . S
C8 O4 1.278 . S
C8 O9 1.211 . S
O9 C8 1.211 . S
C10 O2 1.284 . S
C10 O11 1.273 . S
O11 C10 1.273 . S
O12 Zn3 1.977 . S
O12 C5 1.267 . S
C13 O14 1.160 . S
C13 O20 1.185 . S
O14 C13 1.160 . S
O15 Zn16 1.899 . S
O15 C23 1.284 . S
Zn16 O15 1.899 . S
Zn16 O17 2.032 . S
Zn16 O20 2.086 . S
Zn16 O25 1.977 . S
O17 Zn16 2.032 . S
O17 C21 1.278 . S
C18 O19 1.203 . S
C18 O25 1.267 . S
O19 C18 1.203 . S
O20 C13 1.185 . S
O20 Zn16 2.086 . S
C21 O17 1.278 . S
C21 O22 1.211 . S
O22 C21 1.211 . S
C23 O15 1.284 . S
C23 O24 1.273 . S
O24 C23 1.273 . S
O25 Zn16 1.977 . S
O25 C18 1.267 . S
C26 O27 1.160 . S
C26 O33 1.185 . S
O27 C26 1.160 . S
O28 Zn29 1.899 . S
O28 C36 1.284 . S
Zn29 O28 1.899 . S
Zn29 O30 2.032 . S
Zn29 O33 2.086 1_655 S
Zn29 O38 1.977 . S
O30 Zn29 2.032 . S
O30 C34 1.278 . S
C31 O32 1.203 . S
C31 O38 1.267 . S
O32 C31 1.203 . S
O33 C26 1.185 . S
O33 Zn29 2.086 1_455 S
C34 O30 1.278 . S
C34 O35 1.211 . S
O35 C34 1.211 . S
C36 O28 1.284 . S
C36 O37 1.273 . S
O37 C36 1.273 . S
O38 Zn29 1.977 . S
O38 C31 1.267 . S
C39 O40 1.160 . S
C39 O46 1.185 . S
O40 C39 1.160 . S
O41 Zn42 1.899 . S
O41 C49 1.284 . S
Zn42 O41 1.899 . S
Zn42 O43 2.032 . S
Zn42 O46 2.086 1_565 S
Zn42 O51 1.977 . S
O43 Zn42 2.032 . S
O43 C47 1.278 . S
C44 O45 1.203 . S
C44 O51 1.267 . S
O45 C44 1.203 . S
O46 C39 1.185 . S
O46 Zn42 2.086 1_545 S
C47 O43 1.278 . S
C47 O48 1.211 . S
O48 C47 1.211 . S
C49 O41 1.284 . S
C49 O50 1.273 . S
O50 C49 1.273 . S
O51 Zn42 1.977 . S
O51 C44 1.267 . S
C52 O53 1.160 . S
C52 O59 1.185 . S
O53 C52 1.160 . S
O54 Zn55 1.899 . S
O54 C62 1.284 . S
Zn55 O54 1.899 . S
Zn55 O56 2.032 . S
Zn55 O59 2.086 . S
Zn55 O64 1.977 . S
O56 Zn55 2.032 . S
O56 C60 1.278 . S
C57 O58 1.203 . S
C57 O64 1.267 . S
O58 C57 1.203 . S
O59 C52 1.185 . S
O59 Zn55 2.086 . S
C60 O56 1.278 . S
C60 O61 1.211 . S
O61 C60 1.211 . S
C62 O54 1.284 . S
C62 O63 1.273 . S
O63 C62 1.273 . S
O64 Zn55 1.977 . S
O64 C57 1.267 . S
C65 O66 1.160 . S
C65 O72 1.185 . S
O66 C65 1.160 . S
O67 Zn68 1.899 . S
O67 C75 1.284 . S
Zn68 O67 1.899 . S
Zn68 O69 2.032 . S
Zn68 O72 2.086 . S
Zn68 O77 1.977 . S
O69 Zn68 2.032 . S
O69 C73 1.278 . S
C70 O71 1.203 . S
C70 O77 1.267 . S
O71 C70 1.203 . S
O72 C65 1.185 . S
O72 Zn68 2.086 . S
C73 O69 1.278 . S
C73 O74 1.211 . S
O74 C73 1.211 . S
C75 O67 1.284 . S
C75 O76 1.273 . S
O76 C75 1.273 . S
O77 Zn68 1.977 . S
O77 C70 1.267 . S
C78 O79 1.160 . S
C78 O85 1.185 . S
O79 C78 1.160 . S
O80 Zn81 1.899 . S
O80 C88 1.284 . S
Zn81 O80 1.899 . S
Zn81 O82 2.032 . S
Zn81 O85 2.086 1_655 S
Zn81 O90 1.977 . S
O82 Zn81 2.032 . S
O82 C86 1.278 . S
C83 O84 1.203 . S
C83 O90 1.267 . S
O84 C83 1.203 . S
O85 C78 1.185 . S
O85 Zn81 2.086 1_455 S
C86 O82 1.278 . S
C86 O87 1.211 . S
O87 C86 1.211 . S
C88 O80 1.284 . S
C88 O89 1.273 . S
O89 C88 1.273 . S
O90 Zn81 1.977 . S
O90 C83 1.267 . S
C91 O92 1.160 . S
C91 O98 1.185 . S
O92 C91 1.160 . S
O93 Zn94 1.899 . S
O93 C101 1.284 . S
Zn94 O93 1.899 . S
Zn94 O95 2.032 . S
Zn94 O98 2.086 1_565 S
Zn94 O103 1.977 . S
O95 Zn94 2.032 . S
O95 C99 1.278 . S
C96 O97 1.203 . S
C96 O103 1.267 . S
O97 C96 1.203 . S
O98 C91 1.185 . S
O98 Zn94 2.086 1_545 S
C99 O95 1.278 . S
C99 O100 1.211 . S
O100 C99 1.211 . S
C101 O93 1.284 . S
C101 O102 1.273 . S
O102 C101 1.273 . S
O103 Zn94 1.977 . S
O103 C96 1.267 . S
C104 O105 1.160 . S
C104 O111 1.185 . S
O105 C104 1.160 . S
O106 Zn107 1.899 . S
O106 C114 1.284 . S
Zn107 O106 1.899 . S
Zn107 O108 2.032 . S
Zn107 O111 2.086 . S
Zn107 O116 1.977 . S
O108 Zn107 2.032 . S
O108 C112 1.278 . S
C109 O110 1.203 . S
C109 O116 1.267 . S
O110 C109 1.203 . S
O111 C104 1.185 . S
O111 Zn107 2.086 . S
C112 O108 1.278 . S
C112 O113 1.211 . S
O113 C112 1.211 . S
C114 O106 1.284 . S
C114 O115 1.273 . S
O115 C114 1.273 . S
O116 Zn107 1.977 . S
O116 C109 1.267 . S
C117 O118 1.160 . S
C117 O124 1.185 . S
O118 C117 1.160 . S
O119 Zn120 1.899 . S
O119 C127 1.284 . S
Zn120 O119 1.899 . S
Zn120 O121 2.032 . S
Zn120 O124 2.086 . S
Zn120 O129 1.977 . S
O121 Zn120 2.032 . S
O121 C125 1.278 . S
C122 O123 1.203 . S
C122 O129 1.267 . S
O123 C122 1.203 . S
O124 C117 1.185 . S
O124 Zn120 2.086 . S
C125 O121 1.278 . S
C125 O126 1.211 . S
O126 C125 1.211 . S
C127 O119 1.284 . S
C127 O128 1.273 . S
O128 C127 1.273 . S
O129 Zn120 1.977 . S
O129 C122 1.267 . S
C130 O131 1.160 . S
C130 O137 1.185 . S
O131 C130 1.160 . S
O132 Zn133 1.899 . S
O132 C140 1.284 . S
Zn133 O132 1.899 . S
Zn133 O134 2.032 . S
Zn133 O137 2.086 1_455 S
Zn133 O142 1.977 . S
O134 Zn133 2.032 . S
O134 C138 1.278 . S
C135 O136 1.203 . S
C135 O142 1.267 . S
O136 C135 1.203 . S
O137 C130 1.185 . S
O137 Zn133 2.086 1_655 S
C138 O134 1.278 . S
C138 O139 1.211 . S
O139 C138 1.211 . S
C140 O132 1.284 . S
C140 O141 1.273 . S
O141 C140 1.273 . S
O142 Zn133 1.977 . S
O142 C135 1.267 . S
C143 O144 1.160 . S
C143 O150 1.185 . S
O144 C143 1.160 . S
O145 Zn146 1.899 . S
O145 C153 1.284 . S
Zn146 O145 1.899 . S
Zn146 O147 2.032 . S
Zn146 O150 2.086 1_545 S
Zn146 O155 1.977 . S
O147 Zn146 2.032 . S
O147 C151 1.278 . S
C148 O149 1.203 . S
C148 O155 1.267 . S
O149 C148 1.203 . S
O150 C143 1.185 . S
O150 Zn146 2.086 1_565 S
C151 O147 1.278 . S
C151 O152 1.211 . S
O152 C151 1.211 . S
C153 O145 1.284 . S
C153 O154 1.273 . S
O154 C153 1.273 . S
O155 Zn146 1.977 . S
O155 C148 1.267 . S
C156 O157 1.160 . S
C156 O163 1.185 . S
O157 C156 1.160 . S
O158 Zn159 1.899 . S
O158 C166 1.284 . S
Zn159 O158 1.899 . S
Zn159 O160 2.032 . S
Zn159 O163 2.086 . S
Zn159 O168 1.977 . S
O160 Zn159 2.032 . S
O160 C164 1.278 . S
C161 O162 1.203 . S
C161 O168 1.267 . S
O162 C161 1.203 . S
O163 C156 1.185 . S
O163 Zn159 2.086 . S
C164 O160 1.278 . S
C164 O165 1.211 . S
O165 C164 1.211 . S
C166 O158 1.284 . S
C166 O167 1.273 . S
O167 C166 1.273 . S
O168 Zn159 1.977 . S
O168 C161 1.267 . S
C169 O170 1.160 . S
C169 O176 1.185 . S
O170 C169 1.160 . S
O171 Zn172 1.899 . S
O171 C179 1.284 . S
Zn172 O171 1.899 . S
Zn172 O173 2.032 . S
Zn172 O176 2.086 . S
Zn172 O181 1.977 . S
O173 Zn172 2.032 . S
O173 C177 1.278 . S
C174 O175 1.203 . S
C174 O181 1.267 . S
O175 C174 1.203 . S
O176 C169 1.185 . S
O176 Zn172 2.086 . S
C177 O173 1.278 . S
C177 O178 1.211 . S
O178 C177 1.211 . S
C179 O171 1.284 . S
C179 O180 1.273 . S
O180 C179 1.273 . S
O181 Zn172 1.977 . S
O181 C174 1.267 . S
C182 O183 1.160 . S
C182 O189 1.185 . S
O183 C182 1.160 . S
O184 Zn185 1.899 . S
O184 C192 1.284 . S
Zn185 O184 1.899 . S
Zn185 O186 2.032 . S
Zn185 O189 2.086 1_455 S
Zn185 O194 1.977 . S
O186 Zn185 2.032 . S
O186 C190 1.278 . S
C187 O188 1.203 . S
C187 O194 1.267 . S
O188 C187 1.203 . S
O189 C182 1.185 . S
O189 Zn185 2.086 1_655 S
C190 O186 1.278 . S
C190 O191 1.211 . S
O191 C190 1.211 . S
C192 O184 1.284 . S
C192 O193 1.273 . S
O193 C192 1.273 . S
O194 Zn185 1.977 . S
O194 C187 1.267 . S
C195 O196 1.160 . S
C195 O202 1.185 . S
O196 C195 1.160 . S
O197 Zn198 1.899 . S
O197 C205 1.284 . S
Zn198 O197 1.899 . S
Zn198 O199 2.032 . S
Zn198 O202 2.086 1_545 S
Zn198 O207 1.977 . S
O199 Zn198 2.032 . S
O199 C203 1.278 . S
C200 O201 1.203 . S
C200 O207 1.267 . S
O201 C200 1.203 . S
O202 C195 1.185 . S
O202 Zn198 2.086 1_565 S
C203 O199 1.278 . S
C203 O204 1.211 . S
O204 C203 1.211 . S
C205 O197 1.284 . S
C205 O206 1.273 . S
O206 C205 1.273 . S
O207 Zn198 1.977 . S
O207 C200 1.267 . S
H208 C216 0.950 . S
H209 C221 0.950 . S
H210 C218 0.950 . S
H211 C220 0.950 . S
H212 C222 0.950 . S
H213 C224 0.950 . S
H214 C226 0.950 . S
H215 C227 0.950 . S
C216 H208 0.950 . S
C216 C217 1.386 . S
C216 C218 1.391 . S
C217 C216 1.386 . S
C217 C221 1.393 . S
C218 H210 0.950 . S
C218 C216 1.391 . S
C218 C219 1.400 . S
C219 C218 1.400 . S
C219 C220 1.398 . S
C219 C225 1.491 . S
C220 H211 0.950 . S
C220 C219 1.398 . S
C220 C221 1.391 . S
C221 H209 0.950 . S
C221 C217 1.393 . S
C221 C220 1.391 . S
C222 H212 0.950 . S
C222 C223 1.386 . S
C222 C224 1.391 . S
C223 C222 1.386 . S
C223 C227 1.393 . S
C224 H213 0.950 . S
C224 C222 1.391 . S
C224 C225 1.400 . S
C225 C219 1.491 . S
C225 C224 1.400 . S
C225 C226 1.398 . S
C226 H214 0.950 . S
C226 C225 1.398 . S
C226 C227 1.391 . S
C227 H215 0.950 . S
C227 C223 1.393 . S
C227 C226 1.391 . S
H228 C236 0.950 . S
H229 C241 0.950 . S
H230 C238 0.950 . S
H231 C240 0.950 . S
H232 C242 0.950 . S
H233 C244 0.950 . S
H234 C246 0.950 . S
H235 C247 0.950 . S
C236 H228 0.950 . S
C236 C237 1.386 . S
C236 C238 1.391 . S
C237 C236 1.386 . S
C237 C241 1.393 . S
C238 H230 0.950 . S
C238 C236 1.391 . S
C238 C239 1.400 . S
C239 C238 1.400 . S
C239 C240 1.398 . S
C239 C245 1.491 . S
C240 H231 0.950 . S
C240 C239 1.398 . S
C240 C241 1.391 . S
C241 H229 0.950 . S
C241 C237 1.393 . S
C241 C240 1.391 . S
C242 H232 0.950 . S
C242 C243 1.386 . S
C242 C244 1.391 . S
C243 C242 1.386 . S
C243 C247 1.393 . S
C244 H233 0.950 . S
C244 C242 1.391 . S
C244 C245 1.400 . S
C245 C239 1.491 . S
C245 C244 1.400 . S
C245 C246 1.398 . S
C246 H234 0.950 . S
C246 C245 1.398 . S
C246 C247 1.391 . S
C247 H235 0.950 . S
C247 C243 1.393 . S
C247 C246 1.391 . S
H248 C256 0.950 . S
H249 C261 0.950 . S
H250 C258 0.950 . S
H251 C260 0.950 . S
H252 C262 0.950 . S
H253 C264 0.950 . S
H254 C266 0.950 . S
H255 C267 0.950 . S
C256 H248 0.950 . S
C256 C257 1.386 . S
C256 C258 1.391 . S
C257 C256 1.386 . S
C257 C261 1.393 . S
C258 H250 0.950 . S
C258 C256 1.391 . S
C258 C259 1.400 . S
C259 C258 1.400 . S
C259 C260 1.398 . S
C259 C265 1.491 . S
C260 H251 0.950 . S
C260 C259 1.398 . S
C260 C261 1.391 . S
C261 H249 0.950 . S
C261 C257 1.393 . S
C261 C260 1.391 . S
C262 H252 0.950 . S
C262 C263 1.386 . S
C262 C264 1.391 . S
C263 C262 1.386 . S
C263 C267 1.393 . S
C264 H253 0.950 . S
C264 C262 1.391 . S
C264 C265 1.400 . S
C265 C259 1.491 . S
C265 C264 1.400 . S
C265 C266 1.398 . S
C266 H254 0.950 . S
C266 C265 1.398 . S
C266 C267 1.391 . S
C267 H255 0.950 . S
C267 C263 1.393 . S
C267 C266 1.391 . S
H268 C276 0.950 . S
H269 C281 0.950 . S
H270 C278 0.950 . S
H271 C280 0.950 . S
H272 C282 0.950 . S
H273 C284 0.950 . S
H274 C286 0.950 . S
H275 C287 0.950 . S
C276 H268 0.950 . S
C276 C277 1.386 . S
C276 C278 1.391 . S
C277 C276 1.386 . S
C277 C281 1.393 . S
C278 H270 0.950 . S
C278 C276 1.391 . S
C278 C279 1.400 . S
C279 C278 1.400 . S
C279 C280 1.398 . S
C279 C285 1.491 . S
C280 H271 0.950 . S
C280 C279 1.398 . S
C280 C281 1.391 . S
C281 H269 0.950 . S
C281 C277 1.393 . S
C281 C280 1.391 . S
C282 H272 0.950 . S
C282 C283 1.386 . S
C282 C284 1.391 . S
C283 C282 1.386 . S
C283 C287 1.393 . S
C284 H273 0.950 . S
C284 C282 1.391 . S
C284 C285 1.400 . S
C285 C279 1.491 . S
C285 C284 1.400 . S
C285 C286 1.398 . S
C286 H274 0.950 . S
C286 C285 1.398 . S
C286 C287 1.391 . S
C287 H275 0.950 . S
C287 C283 1.393 . S
C287 C286 1.391 . S
H288 C296 0.950 . S
H289 C301 0.950 . S
H290 C298 0.950 . S
H291 C300 0.950 . S
H292 C302 0.950 . S
H293 C304 0.950 . S
H294 C306 0.950 . S
H295 C307 0.950 . S
C296 H288 0.950 . S
C296 C297 1.386 . S
C296 C298 1.391 . S
C297 C296 1.386 . S
C297 C301 1.393 . S
C298 H290 0.950 . S
C298 C296 1.391 . S
C298 C299 1.400 . S
C299 C298 1.400 . S
C299 C300 1.398 . S
C299 C305 1.491 . S
C300 H291 0.950 . S
C300 C299 1.398 . S
C300 C301 1.391 . S
C301 H289 0.950 . S
C301 C297 1.393 . S
C301 C300 1.391 . S
C302 H292 0.950 . S
C302 C303 1.386 . S
C302 C304 1.391 . S
C303 C302 1.386 . S
C303 C307 1.393 . S
C304 H293 0.950 . S
C304 C302 1.391 . S
C304 C305 1.400 . S
C305 C299 1.491 . S
C305 C304 1.400 . S
C305 C306 1.398 . S
C306 H294 0.950 . S
C306 C305 1.398 . S
C306 C307 1.391 . S
C307 H295 0.950 . S
C307 C303 1.393 . S
C307 C306 1.391 . S
H308 C316 0.950 . S
H309 C321 0.950 . S
H310 C318 0.950 . S
H311 C320 0.950 . S
H312 C322 0.950 . S
H313 C324 0.950 . S
H314 C326 0.950 . S
H315 C327 0.950 . S
C316 H308 0.950 . S
C316 C317 1.386 . S
C316 C318 1.391 . S
C317 C316 1.386 . S
C317 C321 1.393 . S
C318 H310 0.950 . S
C318 C316 1.391 . S
C318 C319 1.400 . S
C319 C318 1.400 . S
C319 C320 1.398 . S
C319 C325 1.491 . S
C320 H311 0.950 . S
C320 C319 1.398 . S
C320 C321 1.391 . S
C321 H309 0.950 . S
C321 C317 1.393 . S
C321 C320 1.391 . S
C322 H312 0.950 . S
C322 C323 1.386 . S
C322 C324 1.391 . S
C323 C322 1.386 . S
C323 C327 1.393 . S
C324 H313 0.950 . S
C324 C322 1.391 . S
C324 C325 1.400 . S
C325 C319 1.491 . S
C325 C324 1.400 . S
C325 C326 1.398 . S
C326 H314 0.950 . S
C326 C325 1.398 . S
C326 C327 1.391 . S
C327 H315 0.950 . S
C327 C323 1.393 . S
C327 C326 1.391 . S
H328 C336 0.950 . S
H329 C341 0.950 . S
H330 C338 0.950 . S
H331 C340 0.950 . S
H332 C342 0.950 . S
H333 C344 0.950 . S
H334 C346 0.950 . S
H335 C347 0.950 . S
C336 H328 0.950 . S
C336 C337 1.386 . S
C336 C338 1.391 . S
C337 C336 1.386 . S
C337 C341 1.393 . S
C338 H330 0.950 . S
C338 C336 1.391 . S
C338 C339 1.400 . S
C339 C338 1.400 . S
C339 C340 1.398 . S
C339 C345 1.491 . S
C340 H331 0.950 . S
C340 C339 1.398 . S
C340 C341 1.391 . S
C341 H329 0.950 . S
C341 C337 1.393 . S
C341 C340 1.391 . S
C342 H332 0.950 . S
C342 C343 1.386 . S
C342 C344 1.391 . S
C343 C342 1.386 . S
C343 C347 1.393 . S
C344 H333 0.950 . S
C344 C342 1.391 . S
C344 C345 1.400 . S
C345 C339 1.491 . S
C345 C344 1.400 . S
C345 C346 1.398 . S
C346 H334 0.950 . S
C346 C345 1.398 . S
C346 C347 1.391 . S
C347 H335 0.950 . S
C347 C343 1.393 . S
C347 C346 1.391 . S
H348 C356 0.950 . S
H349 C361 0.950 . S
H350 C358 0.950 . S
H351 C360 0.950 . S
H352 C362 0.950 . S
H353 C364 0.950 . S
H354 C366 0.950 . S
H355 C367 0.950 . S
C356 H348 0.950 . S
C356 C357 1.386 . S
C356 C358 1.391 . S
C357 C356 1.386 . S
C357 C361 1.393 . S
C358 H350 0.950 . S
C358 C356 1.391 . S
C358 C359 1.400 . S
C359 C358 1.400 . S
C359 C360 1.398 . S
C359 C365 1.491 . S
C360 H351 0.950 . S
C360 C359 1.398 . S
C360 C361 1.391 . S
C361 H349 0.950 . S
C361 C357 1.393 . S
C361 C360 1.391 . S
C362 H352 0.950 . S
C362 C363 1.386 . S
C362 C364 1.391 . S
C363 C362 1.386 . S
C363 C367 1.393 . S
C364 H353 0.950 . S
C364 C362 1.391 . S
C364 C365 1.400 . S
C365 C359 1.491 . S
C365 C364 1.400 . S
C365 C366 1.398 . S
C366 H354 0.950 . S
C366 C365 1.398 . S
C366 C367 1.391 . S
C367 H355 0.950 . S
C367 C363 1.393 . S
C367 C366 1.391 . S
H368 C376 0.950 . S
H369 C381 0.950 . S
H370 C378 0.950 . S
H371 C380 0.950 . S
H372 C382 0.950 . S
H373 C384 0.950 . S
H374 C386 0.950 . S
H375 C387 0.950 . S
C376 H368 0.950 . S
C376 C377 1.386 . S
C376 C378 1.391 . S
C377 C376 1.386 . S
C377 C381 1.393 . S
C378 H370 0.950 . S
C378 C376 1.391 . S
C378 C379 1.400 . S
C379 C378 1.400 . S
C379 C380 1.398 . S
C379 C385 1.491 . S
C380 H371 0.950 . S
C380 C379 1.398 . S
C380 C381 1.391 . S
C381 H369 0.950 . S
C381 C377 1.393 . S
C381 C380 1.391 . S
C382 H372 0.950 . S
C382 C383 1.386 . S
C382 C384 1.391 . S
C383 C382 1.386 . S
C383 C387 1.393 . S
C384 H373 0.950 . S
C384 C382 1.391 . S
C384 C385 1.400 . S
C385 C379 1.491 . S
C385 C384 1.400 . S
C385 C386 1.398 . S
C386 H374 0.950 . S
C386 C385 1.398 . S
C386 C387 1.391 . S
C387 H375 0.950 . S
C387 C383 1.393 . S
C387 C386 1.391 . S
H388 C396 0.950 . S
H389 C401 0.950 . S
H390 C398 0.950 . S
H391 C400 0.950 . S
H392 C402 0.950 . S
H393 C404 0.950 . S
H394 C406 0.950 . S
H395 C407 0.950 . S
C396 H388 0.950 . S
C396 C397 1.386 . S
C396 C398 1.391 . S
C397 C396 1.386 . S
C397 C401 1.393 . S
C398 H390 0.950 . S
C398 C396 1.391 . S
C398 C399 1.400 . S
C399 C398 1.400 . S
C399 C400 1.398 . S
C399 C405 1.491 . S
C400 H391 0.950 . S
C400 C399 1.398 . S
C400 C401 1.391 . S
C401 H389 0.950 . S
C401 C397 1.393 . S
C401 C400 1.391 . S
C402 H392 0.950 . S
C402 C403 1.386 . S
C402 C404 1.391 . S
C403 C402 1.386 . S
C403 C407 1.393 . S
C404 H393 0.950 . S
C404 C402 1.391 . S
C404 C405 1.400 . S
C405 C399 1.491 . S
C405 C404 1.400 . S
C405 C406 1.398 . S
C406 H394 0.950 . S
C406 C405 1.398 . S
C406 C407 1.391 . S
C407 H395 0.950 . S
C407 C403 1.393 . S
C407 C406 1.391 . S
H408 C416 0.950 . S
H409 C421 0.950 . S
H410 C418 0.950 . S
H411 C420 0.950 . S
H412 C422 0.950 . S
H413 C424 0.950 . S
H414 C426 0.950 . S
H415 C427 0.950 . S
C416 H408 0.950 . S
C416 C417 1.386 . S
C416 C418 1.391 . S
C417 C416 1.386 . S
C417 C421 1.393 . S
C418 H410 0.950 . S
C418 C416 1.391 . S
C418 C419 1.400 . S
C419 C418 1.400 . S
C419 C420 1.398 . S
C419 C425 1.491 . S
C420 H411 0.950 . S
C420 C419 1.398 . S
C420 C421 1.391 . S
C421 H409 0.950 . S
C421 C417 1.393 . S
C421 C420 1.391 . S
C422 H412 0.950 . S
C422 C423 1.386 . S
C422 C424 1.391 . S
C423 C422 1.386 . S
C423 C427 1.393 . S
C424 H413 0.950 . S
C424 C422 1.391 . S
C424 C425 1.400 . S
C425 C419 1.491 . S
C425 C424 1.400 . S
C425 C426 1.398 . S
C426 H414 0.950 . S
C426 C425 1.398 . S
C426 C427 1.391 . S
C427 H415 0.950 . S
C427 C423 1.393 . S
C427 C426 1.391 . S
H428 C436 0.950 . S
H429 C441 0.950 . S
H430 C438 0.950 . S
H431 C440 0.950 . S
H432 C442 0.950 . S
H433 C444 0.950 . S
H434 C446 0.950 . S
H435 C447 0.950 . S
C436 H428 0.950 . S
C436 C437 1.386 . S
C436 C438 1.391 . S
C437 C436 1.386 . S
C437 C441 1.393 . S
C438 H430 0.950 . S
C438 C436 1.391 . S
C438 C439 1.400 . S
C439 C438 1.400 . S
C439 C440 1.398 . S
C439 C445 1.491 . S
C440 H431 0.950 . S
C440 C439 1.398 . S
C440 C441 1.391 . S
C441 H429 0.950 . S
C441 C437 1.393 . S
C441 C440 1.391 . S
C442 H432 0.950 . S
C442 C443 1.386 . S
C442 C444 1.391 . S
C443 C442 1.386 . S
C443 C447 1.393 . S
C444 H433 0.950 . S
C444 C442 1.391 . S
C444 C445 1.400 . S
C445 C439 1.491 . S
C445 C444 1.400 . S
C445 C446 1.398 . S
C446 H434 0.950 . S
C446 C445 1.398 . S
C446 C447 1.391 . S
C447 H435 0.950 . S
C447 C443 1.393 . S
C447 C446 1.391 . S
H448 C456 0.950 . S
H449 C461 0.950 . S
H450 C458 0.950 . S
H451 C460 0.950 . S
H452 C462 0.950 . S
H453 C464 0.950 . S
H454 C466 0.950 . S
H455 C467 0.950 . S
C456 H448 0.950 . S
C456 C457 1.386 . S
C456 C458 1.391 . S
C457 C456 1.386 . S
C457 C461 1.393 . S
C458 H450 0.950 . S
C458 C456 1.391 . S
C458 C459 1.400 . S
C459 C458 1.400 . S
C459 C460 1.398 . S
C459 C465 1.491 . S
C460 H451 0.950 . S
C460 C459 1.398 . S
C460 C461 1.391 . S
C461 H449 0.950 . S
C461 C457 1.393 . S
C461 C460 1.391 . S
C462 H452 0.950 . S
C462 C463 1.386 . S
C462 C464 1.391 . S
C463 C462 1.386 . S
C463 C467 1.393 . S
C464 H453 0.950 . S
C464 C462 1.391 . S
C464 C465 1.400 . S
C465 C459 1.491 . S
C465 C464 1.400 . S
C465 C466 1.398 . S
C466 H454 0.950 . S
C466 C465 1.398 . S
C466 C467 1.391 . S
C467 H455 0.950 . S
C467 C463 1.393 . S
C467 C466 1.391 . S
H468 C476 0.950 . S
H469 C481 0.950 . S
H470 C478 0.950 . S
H471 C480 0.950 . S
H472 C482 0.950 . S
H473 C484 0.950 . S
H474 C486 0.950 . S
H475 C487 0.950 . S
C476 H468 0.950 . S
C476 C477 1.386 . S
C476 C478 1.391 . S
C477 C476 1.386 . S
C477 C481 1.393 . S
C478 H470 0.950 . S
C478 C476 1.391 . S
C478 C479 1.400 . S
C479 C478 1.400 . S
C479 C480 1.398 . S
C479 C485 1.491 . S
C480 H471 0.950 . S
C480 C479 1.398 . S
C480 C481 1.391 . S
C481 H469 0.950 . S
C481 C477 1.393 . S
C481 C480 1.391 . S
C482 H472 0.950 . S
C482 C483 1.386 . S
C482 C484 1.391 . S
C483 C482 1.386 . S
C483 C487 1.393 . S
C484 H473 0.950 . S
C484 C482 1.391 . S
C484 C485 1.400 . S
C485 C479 1.491 . S
C485 C484 1.400 . S
C485 C486 1.398 . S
C486 H474 0.950 . S
C486 C485 1.398 . S
C486 C487 1.391 . S
C487 H475 0.950 . S
C487 C483 1.393 . S
C487 C486 1.391 . S
H488 C496 0.950 . S
H489 C501 0.950 . S
H490 C498 0.950 . S
H491 C500 0.950 . S
H492 C502 0.950 . S
H493 C504 0.950 . S
H494 C506 0.950 . S
H495 C507 0.950 . S
C496 H488 0.950 . S
C496 C497 1.386 . S
C496 C498 1.391 . S
C497 C496 1.386 . S
C497 C501 1.393 . S
C498 H490 0.950 . S
C498 C496 1.391 . S
C498 C499 1.400 . S
C499 C498 1.400 . S
C499 C500 1.398 . S
C499 C505 1.491 . S
C500 H491 0.950 . S
C500 C499 1.398 . S
C500 C501 1.391 . S
C501 H489 0.950 . S
C501 C497 1.393 . S
C501 C500 1.391 . S
C502 H492 0.950 . S
C502 C503 1.386 . S
C502 C504 1.391 . S
C503 C502 1.386 . S
C503 C507 1.393 . S
C504 H493 0.950 . S
C504 C502 1.391 . S
C504 C505 1.400 . S
C505 C499 1.491 . S
C505 C504 1.400 . S
C505 C506 1.398 . S
C506 H494 0.950 . S
C506 C505 1.398 . S
C506 C507 1.391 . S
C507 H495 0.950 . S
C507 C503 1.393 . S
C507 C506 1.391 . S
H508 C516 0.950 . S
H509 C521 0.950 . S
H510 C518 0.950 . S
H511 C520 0.950 . S
H512 C522 0.950 . S
H513 C524 0.950 . S
H514 C526 0.950 . S
H515 C527 0.950 . S
C516 H508 0.950 . S
C516 C517 1.386 . S
C516 C518 1.391 . S
C517 C516 1.386 . S
C517 C521 1.393 . S
C518 H510 0.950 . S
C518 C516 1.391 . S
C518 C519 1.400 . S
C519 C518 1.400 . S
C519 C520 1.398 . S
C519 C525 1.491 . S
C520 H511 0.950 . S
C520 C519 1.398 . S
C520 C521 1.391 . S
C521 H509 0.950 . S
C521 C517 1.393 . S
C521 C520 1.391 . S
C522 H512 0.950 . S
C522 C523 1.386 . S
C522 C524 1.391 . S
C523 C522 1.386 . S
C523 C527 1.393 . S
C524 H513 0.950 . S
C524 C522 1.391 . S
C524 C525 1.400 . S
C525 C519 1.491 . S
C525 C524 1.400 . S
C525 C526 1.398 . S
C526 H514 0.950 . S
C526 C525 1.398 . S
C526 C527 1.391 . S
C527 H515 0.950 . S
C527 C523 1.393 . S
C527 C526 1.391 . S
H528 C536 0.950 . S
H529 C541 0.950 . S
H530 C538 0.950 . S
H531 C540 0.950 . S
H532 C542 0.950 . S
H533 C544 0.950 . S
H534 C546 0.950 . S
H535 C547 0.950 . S
C536 H528 0.950 . S
C536 C537 1.386 . S
C536 C538 1.391 . S
C537 C536 1.386 . S
C537 C541 1.393 . S
C538 H530 0.950 . S
C538 C536 1.391 . S
C538 C539 1.400 . S
C539 C538 1.400 . S
C539 C540 1.398 . S
C539 C545 1.491 . S
C540 H531 0.950 . S
C540 C539 1.398 . S
C540 C541 1.391 . S
C541 H529 0.950 . S
C541 C537 1.393 . S
C541 C540 1.391 . S
C542 H532 0.950 . S
C542 C543 1.386 . S
C542 C544 1.391 . S
C543 C542 1.386 . S
C543 C547 1.393 . S
C544 H533 0.950 . S
C544 C542 1.391 . S
C544 C545 1.400 . S
C545 C539 1.491 . S
C545 C544 1.400 . S
C545 C546 1.398 . S
C546 H534 0.950 . S
C546 C545 1.398 . S
C546 C547 1.391 . S
C547 H535 0.950 . S
C547 C543 1.393 . S
C547 C546 1.391 . S
H548 C556 0.950 . S
H549 C561 0.950 . S
H550 C558 0.950 . S
H551 C560 0.950 . S
H552 C562 0.950 . S
H553 C564 0.950 . S
H554 C566 0.950 . S
H555 C567 0.950 . S
C556 H548 0.950 . S
C556 C557 1.386 . S
C556 C558 1.391 . S
C557 C556 1.386 . S
C557 C561 1.393 . S
C558 H550 0.950 . S
C558 C556 1.391 . S
C558 C559 1.400 . S
C559 C558 1.400 . S
C559 C560 1.398 . S
C559 C565 1.491 . S
C560 H551 0.950 . S
C560 C559 1.398 . S
C560 C561 1.391 . S
C561 H549 0.950 . S
C561 C557 1.393 . S
C561 C560 1.391 . S
C562 H552 0.950 . S
C562 C563 1.386 . S
C562 C564 1.391 . S
C563 C562 1.386 . S
C563 C567 1.393 . S
C564 H553 0.950 . S
C564 C562 1.391 . S
C564 C565 1.400 . S
C565 C559 1.491 . S
C565 C564 1.400 . S
C565 C566 1.398 . S
C566 H554 0.950 . S
C566 C565 1.398 . S
C566 C567 1.391 . S
C567 H555 0.950 . S
C567 C563 1.393 . S
C567 C566 1.391 . S
H568 C576 0.950 . S
H569 C581 0.950 . S
H570 C578 0.950 . S
H571 C580 0.950 . S
H572 C582 0.950 . S
H573 C584 0.950 . S
H574 C586 0.950 . S
H575 C587 0.950 . S
C576 H568 0.950 . S
C576 C577 1.386 . S
C576 C578 1.391 . S
C577 C576 1.386 . S
C577 C581 1.393 . S
C578 H570 0.950 . S
C578 C576 1.391 . S
C578 C579 1.400 . S
C579 C578 1.400 . S
C579 C580 1.398 . S
C579 C585 1.491 . S
C580 H571 0.950 . S
C580 C579 1.398 . S
C580 C581 1.391 . S
C581 H569 0.950 . S
C581 C577 1.393 . S
C581 C580 1.391 . S
C582 H572 0.950 . S
C582 C583 1.386 . S
C582 C584 1.391 . S
C583 C582 1.386 . S
C583 C587 1.393 . S
C584 H573 0.950 . S
C584 C582 1.391 . S
C584 C585 1.400 . S
C585 C579 1.491 . S
C585 C584 1.400 . S
C585 C586 1.398 . S
C586 H574 0.950 . S
C586 C585 1.398 . S
C586 C587 1.391 . S
C587 H575 0.950 . S
C587 C583 1.393 . S
C587 C586 1.391 . S
H588 C596 0.950 . S
H589 C601 0.950 . S
H590 C598 0.950 . S
H591 C600 0.950 . S
H592 C602 0.950 . S
H593 C604 0.950 . S
H594 C606 0.950 . S
H595 C607 0.950 . S
C596 H588 0.950 . S
C596 C597 1.386 . S
C596 C598 1.391 . S
C597 C596 1.386 . S
C597 C601 1.393 . S
C598 H590 0.950 . S
C598 C596 1.391 . S
C598 C599 1.400 . S
C599 C598 1.400 . S
C599 C600 1.398 . S
C599 C605 1.491 . S
C600 H591 0.950 . S
C600 C599 1.398 . S
C600 C601 1.391 . S
C601 H589 0.950 . S
C601 C597 1.393 . S
C601 C600 1.391 . S
C602 H592 0.950 . S
C602 C603 1.386 . S
C602 C604 1.391 . S
C603 C602 1.386 . S
C603 C607 1.393 . S
C604 H593 0.950 . S
C604 C602 1.391 . S
C604 C605 1.400 . S
C605 C599 1.491 . S
C605 C604 1.400 . S
C605 C606 1.398 . S
C606 H594 0.950 . S
C606 C605 1.398 . S
C606 C607 1.391 . S
C607 H595 0.950 . S
C607 C603 1.393 . S
C607 C606 1.391 . S
H608 C616 0.950 . S
H609 C621 0.950 . S
H610 C618 0.950 . S
H611 C620 0.950 . S
H612 C622 0.950 . S
H613 C624 0.950 . S
H614 C626 0.950 . S
H615 C627 0.950 . S
C616 H608 0.950 . S
C616 C617 1.386 . S
C616 C618 1.391 . S
C617 C616 1.386 . S
C617 C621 1.393 . S
C618 H610 0.950 . S
C618 C616 1.391 . S
C618 C619 1.400 . S
C619 C618 1.400 . S
C619 C620 1.398 . S
C619 C625 1.491 . S
C620 H611 0.950 . S
C620 C619 1.398 . S
C620 C621 1.391 . S
C621 H609 0.950 . S
C621 C617 1.393 . S
C621 C620 1.391 . S
C622 H612 0.950 . S
C622 C623 1.386 . S
C622 C624 1.391 . S
C623 C622 1.386 . S
C623 C627 1.393 . S
C624 H613 0.950 . S
C624 C622 1.391 . S
C624 C625 1.400 . S
C625 C619 1.491 . S
C625 C624 1.400 . S
C625 C626 1.398 . S
C626 H614 0.950 . S
C626 C625 1.398 . S
C626 C627 1.391 . S
C627 H615 0.950 . S
C627 C623 1.393 . S
C627 C626 1.391 . S
H628 C636 0.950 . S
H629 C641 0.950 . S
H630 C638 0.950 . S
H631 C640 0.950 . S
H632 C642 0.950 . S
H633 C644 0.950 . S
H634 C646 0.950 . S
H635 C647 0.950 . S
C636 H628 0.950 . S
C636 C637 1.386 . S
C636 C638 1.391 . S
C637 C636 1.386 . S
C637 C641 1.393 . S
C638 H630 0.950 . S
C638 C636 1.391 . S
C638 C639 1.400 . S
C639 C638 1.400 . S
C639 C640 1.398 . S
C639 C645 1.491 . S
C640 H631 0.950 . S
C640 C639 1.398 . S
C640 C641 1.391 . S
C641 H629 0.950 . S
C641 C637 1.393 . S
C641 C640 1.391 . S
C642 H632 0.950 . S
C642 C643 1.386 . S
C642 C644 1.391 . S
C643 C642 1.386 . S
C643 C647 1.393 . S
C644 H633 0.950 . S
C644 C642 1.391 . S
C644 C645 1.400 . S
C645 C639 1.491 . S
C645 C644 1.400 . S
C645 C646 1.398 . S
C646 H634 0.950 . S
C646 C645 1.398 . S
C646 C647 1.391 . S
C647 H635 0.950 . S
C647 C643 1.393 . S
C647 C646 1.391 . S
H648 C656 0.950 . S
H649 C661 0.950 . S
H650 C658 0.950 . S
H651 C660 0.950 . S
H652 C662 0.950 . S
H653 C664 0.950 . S
H654 C666 0.950 . S
H655 C667 0.950 . S
C656 H648 0.950 . S
C656 C657 1.386 . S
C656 C658 1.391 . S
C657 C656 1.386 . S
C657 C661 1.393 . S
C658 H650 0.950 . S
C658 C656 1.391 . S
C658 C659 1.400 . S
C659 C658 1.400 . S
C659 C660 1.398 . S
C659 C665 1.491 . S
C660 H651 0.950 . S
C660 C659 1.398 . S
C660 C661 1.391 . S
C661 H649 0.950 . S
C661 C657 1.393 . S
C661 C660 1.391 . S
C662 H652 0.950 . S
C662 C663 1.386 . S
C662 C664 1.391 . S
C663 C662 1.386 . S
C663 C667 1.393 . S
C664 H653 0.950 . S
C664 C662 1.391 . S
C664 C665 1.400 . S
C665 C659 1.491 . S
C665 C664 1.400 . S
C665 C666 1.398 . S
C666 H654 0.950 . S
C666 C665 1.398 . S
C666 C667 1.391 . S
C667 H655 0.950 . S
C667 C663 1.393 . S
C667 C666 1.391 . S
H668 C676 0.950 . S
H669 C681 0.950 . S
H670 C678 0.950 . S
H671 C680 0.950 . S
H672 C682 0.950 . S
H673 C684 0.950 . S
H674 C686 0.950 . S
H675 C687 0.950 . S
C676 H668 0.950 . S
C676 C677 1.386 . S
C676 C678 1.391 . S
C677 C676 1.386 . S
C677 C681 1.393 . S
C678 H670 0.950 . S
C678 C676 1.391 . S
C678 C679 1.400 . S
C679 C678 1.400 . S
C679 C680 1.398 . S
C679 C685 1.491 . S
C680 H671 0.950 . S
C680 C679 1.398 . S
C680 C681 1.391 . S
C681 H669 0.950 . S
C681 C677 1.393 . S
C681 C680 1.391 . S
C682 H672 0.950 . S
C682 C683 1.386 . S
C682 C684 1.391 . S
C683 C682 1.386 . S
C683 C687 1.393 . S
C684 H673 0.950 . S
C684 C682 1.391 . S
C684 C685 1.400 . S
C685 C679 1.491 . S
C685 C684 1.400 . S
C685 C686 1.398 . S
C686 H674 0.950 . S
C686 C685 1.398 . S
C686 C687 1.391 . S
C687 H675 0.950 . S
C687 C683 1.393 . S
C687 C686 1.391 . S
H688 C696 0.950 . S
H689 C701 0.950 . S
H690 C698 0.950 . S
H691 C700 0.950 . S
H692 C702 0.950 . S
H693 C704 0.950 . S
H694 C706 0.950 . S
H695 C707 0.950 . S
C696 H688 0.950 . S
C696 C697 1.386 . S
C696 C698 1.391 . S
C697 C696 1.386 . S
C697 C701 1.393 . S
C698 H690 0.950 . S
C698 C696 1.391 . S
C698 C699 1.400 . S
C699 C698 1.400 . S
C699 C700 1.398 . S
C699 C705 1.491 1_554 S
C700 H691 0.950 . S
C700 C699 1.398 . S
C700 C701 1.391 . S
C701 H689 0.950 . S
C701 C697 1.393 . S
C701 C700 1.391 . S
C702 H692 0.950 . S
C702 C703 1.386 . S
C702 C704 1.391 . S
C703 C702 1.386 . S
C703 C707 1.393 . S
C704 H693 0.950 . S
C704 C702 1.391 . S
C704 C705 1.400 . S
C705 C699 1.491 1_556 S
C705 C704 1.400 . S
C705 C706 1.398 . S
C706 H694 0.950 . S
C706 C705 1.398 . S
C706 C707 1.391 . S
C707 H695 0.950 . S
C707 C703 1.393 . S
C707 C706 1.391 . S
H708 C716 0.950 . S
H709 C721 0.950 . S
H710 C718 0.950 . S
H711 C720 0.950 . S
H712 C722 0.950 . S
H713 C724 0.950 . S
H714 C726 0.950 . S
H715 C727 0.950 . S
C716 H708 0.950 . S
C716 C717 1.386 . S
C716 C718 1.391 . S
C717 C716 1.386 . S
C717 C721 1.393 . S
C718 H710 0.950 . S
C718 C716 1.391 . S
C718 C719 1.400 . S
C719 C718 1.400 . S
C719 C720 1.398 . S
C719 C725 1.491 . S
C720 H711 0.950 . S
C720 C719 1.398 . S
C720 C721 1.391 . S
C721 H709 0.950 . S
C721 C717 1.393 . S
C721 C720 1.391 . S
C722 H712 0.950 . S
C722 C723 1.386 . S
C722 C724 1.391 . S
C723 C722 1.386 . S
C723 C727 1.393 . S
C724 H713 0.950 . S
C724 C722 1.391 . S
C724 C725 1.400 . S
C725 C719 1.491 . S
C725 C724 1.400 . S
C725 C726 1.398 . S
C726 H714 0.950 . S
C726 C725 1.398 . S
C726 C727 1.391 . S
C727 H715 0.950 . S
C727 C723 1.393 . S
C727 C726 1.391 . S
H728 C736 0.950 . S
H729 C741 0.950 . S
H730 C738 0.950 . S
H731 C740 0.950 . S
H732 C742 0.950 . S
H733 C744 0.950 . S
H734 C746 0.950 . S
H735 C747 0.950 . S
C736 H728 0.950 . S
C736 C737 1.386 . S
C736 C738 1.391 . S
C737 C736 1.386 . S
C737 C741 1.393 1_655 S
C738 H730 0.950 . S
C738 C736 1.391 . S
C738 C739 1.400 . S
C739 C738 1.400 . S
C739 C740 1.398 1_655 S
C739 C745 1.491 1_554 S
C740 H731 0.950 . S
C740 C739 1.398 1_455 S
C740 C741 1.391 . S
C741 H729 0.950 . S
C741 C737 1.393 1_455 S
C741 C740 1.391 . S
C742 H732 0.950 . S
C742 C743 1.386 1_455 S
C742 C744 1.391 . S
C743 C742 1.386 1_655 S
C743 C747 1.393 . S
C744 H733 0.950 . S
C744 C742 1.391 . S
C744 C745 1.400 1_455 S
C745 C739 1.491 1_556 S
C745 C744 1.400 1_655 S
C745 C746 1.398 . S
C746 H734 0.950 . S
C746 C745 1.398 . S
C746 C747 1.391 . S
C747 H735 0.950 . S
C747 C743 1.393 . S
C747 C746 1.391 . S
H748 C756 0.950 . S
H749 C761 0.950 1_545 S
H750 C758 0.950 . S
H751 C760 0.950 1_545 S
H752 C762 0.950 1_545 S
H753 C764 0.950 1_545 S
H754 C766 0.950 . S
H755 C767 0.950 . S
C756 H748 0.950 . S
C756 C757 1.386 . S
C756 C758 1.391 . S
C757 C756 1.386 . S
C757 C761 1.393 . S
C758 H750 0.950 . S
C758 C756 1.391 . S
C758 C759 1.400 . S
C759 C758 1.400 . S
C759 C760 1.398 . S
C759 C765 1.491 . S
C760 H751 0.950 1_565 S
C760 C759 1.398 . S
C760 C761 1.391 . S
C761 H749 0.950 1_565 S
C761 C757 1.393 . S
C761 C760 1.391 . S
C762 H752 0.950 1_565 S
C762 C763 1.386 . S
C762 C764 1.391 . S
C763 C762 1.386 . S
C763 C767 1.393 . S
C764 H753 0.950 1_565 S
C764 C762 1.391 . S
C764 C765 1.400 . S
C765 C759 1.491 . S
C765 C764 1.400 . S
C765 C766 1.398 . S
C766 H754 0.950 . S
C766 C765 1.398 . S
C766 C767 1.391 . S
C767 H755 0.950 . S
C767 C763 1.393 . S
C767 C766 1.391 . S
H768 C776 0.950 . S
H769 C781 0.950 . S
H770 C778 0.950 . S
H771 C780 0.950 . S
H772 C782 0.950 . S
H773 C784 0.950 . S
H774 C786 0.950 . S
H775 C787 0.950 . S
C776 H768 0.950 . S
C776 C777 1.386 . S
C776 C778 1.391 . S
C777 C776 1.386 . S
C777 C781 1.393 . S
C778 H770 0.950 . S
C778 C776 1.391 . S
C778 C779 1.400 . S
C779 C778 1.400 . S
C779 C780 1.398 . S
C779 C785 1.491 1_556 S
C780 H771 0.950 . S
C780 C779 1.398 . S
C780 C781 1.391 . S
C781 H769 0.950 . S
C781 C777 1.393 . S
C781 C780 1.391 . S
C782 H772 0.950 . S
C782 C783 1.386 . S
C782 C784 1.391 . S
C783 C782 1.386 . S
C783 C787 1.393 . S
C784 H773 0.950 . S
C784 C782 1.391 . S
C784 C785 1.400 . S
C785 C779 1.491 1_554 S
C785 C784 1.400 . S
C785 C786 1.398 . S
C786 H774 0.950 . S
C786 C785 1.398 . S
C786 C787 1.391 . S
C787 H775 0.950 . S
C787 C783 1.393 . S
C787 C786 1.391 . S
H788 C796 0.950 . S
H789 C801 0.950 . S
H790 C798 0.950 . S
H791 C800 0.950 . S
H792 C802 0.950 . S
H793 C804 0.950 . S
H794 C806 0.950 . S
H795 C807 0.950 . S
C796 H788 0.950 . S
C796 C797 1.386 . S
C796 C798 1.391 . S
C797 C796 1.386 . S
C797 C801 1.393 . S
C798 H790 0.950 . S
C798 C796 1.391 . S
C798 C799 1.400 . S
C799 C798 1.400 . S
C799 C800 1.398 . S
C799 C805 1.491 . S
C800 H791 0.950 . S
C800 C799 1.398 . S
C800 C801 1.391 . S
C801 H789 0.950 . S
C801 C797 1.393 . S
C801 C800 1.391 . S
C802 H792 0.950 . S
C802 C803 1.386 . S
C802 C804 1.391 . S
C803 C802 1.386 . S
C803 C807 1.393 . S
C804 H793 0.950 . S
C804 C802 1.391 . S
C804 C805 1.400 . S
C805 C799 1.491 . S
C805 C804 1.400 . S
C805 C806 1.398 . S
C806 H794 0.950 . S
C806 C805 1.398 . S
C806 C807 1.391 . S
C807 H795 0.950 . S
C807 C803 1.393 . S
C807 C806 1.391 . S
H808 C816 0.950 . S
H809 C821 0.950 . S
H810 C818 0.950 . S
H811 C820 0.950 . S
H812 C822 0.950 . S
H813 C824 0.950 . S
H814 C826 0.950 . S
H815 C827 0.950 . S
C816 H808 0.950 . S
C816 C817 1.386 . S
C816 C818 1.391 . S
C817 C816 1.386 . S
C817 C821 1.393 . S
C818 H810 0.950 . S
C818 C816 1.391 . S
C818 C819 1.400 . S
C819 C818 1.400 . S
C819 C820 1.398 . S
C819 C825 1.491 1_554 S
C820 H811 0.950 . S
C820 C819 1.398 . S
C820 C821 1.391 . S
C821 H809 0.950 . S
C821 C817 1.393 . S
C821 C820 1.391 . S
C822 H812 0.950 . S
C822 C823 1.386 . S
C822 C824 1.391 . S
C823 C822 1.386 . S
C823 C827 1.393 . S
C824 H813 0.950 . S
C824 C822 1.391 . S
C824 C825 1.400 . S
C825 C819 1.491 1_556 S
C825 C824 1.400 . S
C825 C826 1.398 . S
C826 H814 0.950 . S
C826 C825 1.398 . S
C826 C827 1.391 . S
C827 H815 0.950 . S
C827 C823 1.393 . S
C827 C826 1.391 . S
H828 C836 0.950 . S
H829 C841 0.950 1_565 S
H830 C838 0.950 . S
H831 C840 0.950 1_565 S
H832 C842 0.950 1_565 S
H833 C844 0.950 1_565 S
H834 C846 0.950 . S
H835 C847 0.950 . S
C836 H828 0.950 . S
C836 C837 1.386 . S
C836 C838 1.391 . S
C837 C836 1.386 . S
C837 C841 1.393 . S
C838 H830 0.950 . S
C838 C836 1.391 . S
C838 C839 1.400 . S
C839 C838 1.400 . S
C839 C840 1.398 . S
C839 C845 1.491 . S
C840 H831 0.950 1_545 S
C840 C839 1.398 . S
C840 C841 1.391 . S
C841 H829 0.950 1_545 S
C841 C837 1.393 . S
C841 C840 1.391 . S
C842 H832 0.950 1_545 S
C842 C843 1.386 . S
C842 C844 1.391 . S
C843 C842 1.386 . S
C843 C847 1.393 . S
C844 H833 0.950 1_545 S
C844 C842 1.391 . S
C844 C845 1.400 . S
C845 C839 1.491 . S
C845 C844 1.400 . S
C845 C846 1.398 . S
C846 H834 0.950 . S
C846 C845 1.398 . S
C846 C847 1.391 . S
C847 H835 0.950 . S
C847 C843 1.393 . S
C847 C846 1.391 . S
C217 C0 1.166 . S
C223 C91 1.160 . S
C237 C13 1.167 . S
C243 C52 1.162 . S
C257 C26 1.151 . S
C263 C65 1.158 . S
C277 C39 1.147 . S
C283 C78 1.154 . S
C297 C104 1.168 . S
C303 C195 1.163 . S
C317 C156 1.169 . S
C323 C117 1.169 . S
C337 C130 1.148 . S
C343 C169 1.143 . S
C357 C143 1.163 . S
C363 C182 1.168 . S
C377 C5 1.244 . S
C383 C125 1.307 . S
C397 C18 1.263 . S
C403 C138 1.296 . S
C417 C151 1.296 . S
C423 C31 1.263 . S
C437 C44 1.247 . S
C443 C112 1.300 . S
C457 C57 1.255 . S
C463 C203 1.301 . S
C477 C164 1.308 . S
C483 C70 1.243 . S
C497 C177 1.290 . S
C503 C83 1.268 . S
C517 C190 1.293 . S
C523 C96 1.266 . S
C537 C21 1.290 . S
C543 C109 1.267 . S
C557 C34 1.311 . S
C563 C122 1.231 . S
C577 C135 1.230 . S
C583 C47 1.312 . S
C597 C8 1.295 . S
C603 C148 1.256 . S
C617 C161 1.235 . S
C623 C99 1.307 . S
C637 C174 1.261 . S
C643 C60 1.297 . S
C657 C73 1.312 . S
C663 C187 1.234 . S
C677 C86 1.294 . S
C683 C200 1.258 . S
C697 C10 1.507 . S
C703 C62 1.516 . S
C717 C75 1.513 . S
C723 C23 1.508 . S
C737 C36 1.509 . S
C743 C88 1.513 . S
C757 C101 1.506 . S
C763 C49 1.516 . S
C777 C114 1.507 . S
C783 C166 1.519 . S
C797 C179 1.517 . S
C803 C127 1.511 . S
C817 C192 1.506 . S
C823 C140 1.519 . S
C837 C205 1.508 . S
C843 C153 1.518 . S
