# Generated by pormake.
# Topology tsi, (8)-cn, num edge types: 1
# Building blocks:
#     Node 0, Type 0, BuildingBlock: TAGTUT_clean_sbu_1, # of connection points: 8
#     Node 1, Type 0, BuildingBlock: TAGTUT_clean_sbu_1, # of connection points: 8
#     Node 2, Type 0, BuildingBlock: TAGTUT_clean_sbu_1, # of connection points: 8
#     Node 3, Type 0, BuildingBlock: TAGTUT_clean_sbu_1, # of connection points: 8
#     Edge 4, Type (0, 0), BuildingBlock: XUDNAN_clean_linker_2, # of connection points: 2
#     Edge 5, Type (0, 0), BuildingBlock: XUDNAN_clean_linker_2, # of connection points: 2
#     Edge 6, Type (0, 0), BuildingBlock: XUDNAN_clean_linker_2, # of connection points: 2
#     Edge 7, Type (0, 0), BuildingBlock: XUDNAN_clean_linker_2, # of connection points: 2
#     Edge 8, Type (0, 0), BuildingBlock: XUDNAN_clean_linker_2, # of connection points: 2
#     Edge 9, Type (0, 0), BuildingBlock: XUDNAN_clean_linker_2, # of connection points: 2
#     Edge 10, Type (0, 0), BuildingBlock: XUDNAN_clean_linker_2, # of connection points: 2
#     Edge 11, Type (0, 0), BuildingBlock: XUDNAN_clean_linker_2, # of connection points: 2
#     Edge 12, Type (0, 0), BuildingBlock: XUDNAN_clean_linker_2, # of connection points: 2
#     Edge 13, Type (0, 0), BuildingBlock: XUDNAN_clean_linker_2, # of connection points: 2
#     Edge 14, Type (0, 0), BuildingBlock: XUDNAN_clean_linker_2, # of connection points: 2
#     Edge 15, Type (0, 0), BuildingBlock: XUDNAN_clean_linker_2, # of connection points: 2
#     Edge 16, Type (0, 0), BuildingBlock: XUDNAN_clean_linker_2, # of connection points: 2
#     Edge 17, Type (0, 0), BuildingBlock: XUDNAN_clean_linker_2, # of connection points: 2
#     Edge 18, Type (0, 0), BuildingBlock: XUDNAN_clean_linker_2, # of connection points: 2
#     Edge 19, Type (0, 0), BuildingBlock: XUDNAN_clean_linker_2, # of connection points: 2
# Relax obj value: 0.135
# Max RMSD: 0.248
# Mean RMSD: 0.248
data_MOF--net-tsi--node1-TAGTUT_clean_sbu_1--edge1-XUDNAN_clean_linker_2
_symmetry_space_group_name_H-M    P1
_symmetry_Int_Tables_number       1
_symmetry_cell_setting            triclinic
loop_
_symmetry_equiv_pos_as_xyz
'x, y, z'
_cell_length_a     15.320501
_cell_length_b     15.82121
_cell_length_c     66.503929
_cell_angle_alpha  94.055811
_cell_angle_beta   91.502285
_cell_angle_gamma 110.97247
loop_
_atom_site_label
_atom_site_type_symbol
_atom_site_fract_x
_atom_site_fract_y
_atom_site_fract_z
_atom_type_partial_charge
C0 C 6e-05 0.13441 0.44162 0.0
C1 C 0.9789 0.38722 0.42579 0.0
C2 C 0.80187 0.17407 0.35641 0.0
Mg3 Mg 0.11783 0.29001 0.41691 0.0
O4 O 0.03323 0.22112 0.39636 0.0
Mg5 Mg 0.89646 0.17693 0.40057 0.0
Mg6 Mg 0.02815 0.24945 0.36788 0.0
O7 O 0.01789 0.27332 0.33979 0.0
Mg8 Mg 0.9396 0.17826 0.32133 0.0
Mg9 Mg 0.15048 0.33728 0.33459 0.0
C10 C 0.25425 0.3239 0.38 0.0
C11 C 0.08669 0.4693 0.36523 0.0
O12 O 0.92961 0.13031 0.4303 0.0
O13 O 0.08344 0.18863 0.43894 0.0
O14 O 0.91084 0.31697 0.41796 0.0
O15 O 0.06395 0.39264 0.42543 0.0
O16 O 0.2408 0.32385 0.39903 0.0
O17 O 0.18582 0.29771 0.36663 0.0
C18 C 0.94814 0.0309 0.37078 0.0
O19 O 0.00483 0.09548 0.36151 0.0
O20 O 0.8981 0.04681 0.38462 0.0
O21 O 0.08577 0.36669 0.30342 0.0
O22 O 0.93391 0.27241 0.30196 0.0
O23 O 0.147 0.19956 0.32229 0.0
C24 C 0.00058 0.33822 0.29571 0.0
O25 O 0.02895 0.13207 0.30072 0.0
O26 O 0.80856 0.14697 0.33793 0.0
C27 C 0.11763 0.16902 0.30433 0.0
O28 O 0.87444 0.21241 0.3684 0.0
O29 O 0.04628 0.39895 0.37471 0.0
O30 O 0.13432 0.46538 0.34986 0.0
C31 C 0.99251 0.51145 0.68733 0.0
C32 C 0.92438 0.72341 0.69258 0.0
C33 C 0.75421 0.58734 0.61285 0.0
Mg34 Mg 0.07886 0.66548 0.66967 0.0
O35 O 0.9866 0.65261 0.65065 0.0
Mg36 Mg 0.85825 0.5631 0.65646 0.0
Mg37 Mg 0.98239 0.66313 0.62154 0.0
O38 O 0.96956 0.67524 0.59227 0.0
Mg39 Mg 0.88138 0.57898 0.57579 0.0
Mg40 Mg 0.10663 0.72225 0.58691 0.0
C41 C 0.20845 0.73235 0.63303 0.0
C42 C 0.05337 0.87595 0.61374 0.0
O43 O 0.91168 0.51764 0.68579 0.0
O44 O 0.03926 0.52318 0.67172 0.0
O45 O 0.86159 0.68381 0.67818 0.0
O46 O 0.00878 0.7238 0.69216 0.0
O47 O 0.19859 0.72774 0.65208 0.0
O48 O 0.13843 0.70335 0.62009 0.0
C49 C 0.92974 0.44403 0.6242 0.0
O50 O 0.97359 0.5174 0.61637 0.0
O51 O 0.87583 0.44284 0.63848 0.0
O52 O 0.05592 0.74394 0.55514 0.0
O53 O 0.90408 0.65361 0.54947 0.0
O54 O 0.10102 0.57812 0.57507 0.0
C55 C 0.97871 0.71503 0.54422 0.0
O56 O 0.95433 0.48611 0.57332 0.0
O57 O 0.75923 0.56807 0.59388 0.0
C58 C 0.03203 0.51754 0.5649 0.0
O59 O 0.82683 0.61414 0.62497 0.0
O60 O 0.00186 0.81549 0.6247 0.0
O61 O 0.09972 0.85613 0.59956 0.0
C62 C 0.53208 0.80451 0.94216 0.0
C63 C 0.46977 0.99567 0.92052 0.0
C64 C 0.28729 0.74426 0.85587 0.0
Mg65 Mg 0.6222 0.93679 0.90952 0.0
O66 O 0.53487 0.83891 0.89337 0.0
Mg67 Mg 0.3988 0.78823 0.89983 0.0
Mg68 Mg 0.513 0.8453 0.86407 0.0
O69 O 0.48965 0.8466 0.83498 0.0
Mg70 Mg 0.42926 0.72606 0.82364 0.0
Mg71 Mg 0.61742 0.91449 0.8266 0.0
C72 C 0.74564 0.9308 0.87154 0.0
C73 C 0.55009 0.05359 0.85499 0.0
O74 O 0.4551 0.77268 0.93126 0.0
O75 O 0.60552 0.8667 0.93668 0.0
O76 O 0.40072 0.93167 0.9112 0.0
O77 O 0.54593 0.02677 0.91153 0.0
O78 O 0.74151 0.94972 0.89057 0.0
O79 O 0.67086 0.90081 0.85975 0.0
C80 C 0.45037 0.63399 0.87312 0.0
O81 O 0.49821 0.69411 0.86171 0.0
O82 O 0.4065 0.65405 0.88774 0.0
O83 O 0.53428 0.90555 0.79501 0.0
O84 O 0.4146 0.77043 0.79527 0.0
O85 O 0.64193 0.7865 0.81573 0.0
C86 C 0.45956 0.84226 0.78683 0.0
O87 O 0.52568 0.65484 0.81825 0.0
O88 O 0.30199 0.6968 0.84066 0.0
C89 C 0.60954 0.70007 0.81398 0.0
O90 O 0.35558 0.80138 0.86706 0.0
O91 O 0.52221 0.99063 0.86692 0.0
O92 O 0.58877 0.04286 0.83863 0.0
C93 C 0.54567 0.21675 0.19576 0.0
C94 C 0.4421 0.39795 0.1832 0.0
C95 C 0.28437 0.20906 0.11154 0.0
Mg96 Mg 0.61091 0.36002 0.16568 0.0
O97 O 0.52722 0.26471 0.14913 0.0
Mg98 Mg 0.3964 0.20578 0.15622 0.0
Mg99 Mg 0.51143 0.28552 0.12094 0.0
O100 O 0.49971 0.3113 0.0925 0.0
Mg101 Mg 0.40913 0.24492 0.07275 0.0
Mg102 Mg 0.63479 0.35782 0.08652 0.0
C103 C 0.73825 0.35519 0.1295 0.0
C104 C 0.59097 0.50422 0.1178 0.0
O105 O 0.46054 0.18828 0.18817 0.0
O106 O 0.61422 0.27429 0.18775 0.0
O107 O 0.39078 0.3405 0.16932 0.0
O108 O 0.53162 0.42816 0.18274 0.0
O109 O 0.73563 0.38647 0.1478 0.0
O110 O 0.66391 0.31908 0.11799 0.0
C111 C 0.4559 0.06839 0.12545 0.0
O112 O 0.49088 0.13558 0.11472 0.0
O113 O 0.41436 0.07621 0.14161 0.0
O114 O 0.59313 0.40771 0.05795 0.0
O115 O 0.43707 0.34999 0.05173 0.0
O116 O 0.61672 0.21923 0.06804 0.0
C117 C 0.51891 0.40508 0.04821 0.0
O118 O 0.46227 0.14446 0.06193 0.0
O119 O 0.29114 0.2078 0.09228 0.0
C120 C 0.54696 0.14986 0.06043 0.0
O121 O 0.35631 0.23843 0.12395 0.0
O122 O 0.5359 0.4398 0.12732 0.0
O123 O 0.63803 0.48786 0.1034 0.0
H124 H 0.84203 0.3482 0.4525 0.0
H125 H 0.08347 0.56635 0.43439 0.0
H126 H 0.11012 0.63941 0.46905 0.0
H127 H 0.77959 0.49854 0.49623 0.0
H128 H 0.74416 0.40187 0.51103 0.0
H129 H 0.72322 0.38578 0.48396 0.0
H130 H 0.81068 0.27311 0.48267 0.0
H131 H 0.83646 0.29141 0.50942 0.0
H132 H 0.93054 0.31096 0.49254 0.0
H133 H 0.1468 0.65193 0.50578 0.0
H134 H 0.16232 0.63349 0.54198 0.0
H135 H 0.89114 0.41437 0.53732 0.0
C136 C 0.89579 0.41496 0.45548 0.0
C137 C 0.96111 0.45138 0.44086 0.0
C138 C 0.03257 0.53755 0.44541 0.0
C139 C 0.04877 0.5791 0.46514 0.0
C140 C 0.99077 0.53511 0.47993 0.0
C141 C 0.91255 0.45734 0.4752 0.0
C142 C 0.86908 0.41702 0.49423 0.0
C143 C 0.77333 0.42639 0.4965 0.0
C144 C 0.86136 0.31731 0.49472 0.0
C145 C 0.94036 0.47838 0.51017 0.0
C146 C 0.00956 0.5465 0.50163 0.0
C147 C 0.0906 0.60198 0.51281 0.0
C148 C 0.09934 0.59005 0.53337 0.0
C149 C 0.02635 0.52457 0.54276 0.0
C150 C 0.94653 0.46739 0.53081 0.0
H151 H 0.55468 0.61371 0.77705 0.0
H152 H 0.78759 0.70722 0.82132 0.0
H153 H 0.89847 0.7341 0.79389 0.0
H154 H 0.6627 0.5086 0.73681 0.0
H155 H 0.60848 0.5503 0.71738 0.0
H156 H 0.55145 0.52077 0.74057 0.0
H157 H 0.54836 0.68585 0.74708 0.0
H158 H 0.59968 0.70954 0.72294 0.0
H159 H 0.65439 0.78148 0.74546 0.0
H160 H 0.97927 0.79254 0.76188 0.0
H161 H 0.03084 0.81237 0.72703 0.0
H162 H 0.74286 0.6758 0.70389 0.0
C163 C 0.62877 0.63328 0.78098 0.0
C164 C 0.6631 0.65916 0.80121 0.0
C165 C 0.76057 0.68763 0.80582 0.0
C166 C 0.8238 0.70463 0.79035 0.0
C167 C 0.78769 0.69033 0.77043 0.0
C168 C 0.69253 0.65093 0.76569 0.0
C169 C 0.67122 0.64921 0.7433 0.0
C170 C 0.62051 0.55138 0.73396 0.0
C171 C 0.615 0.7101 0.73939 0.0
C172 C 0.7688 0.69076 0.73605 0.0
C173 C 0.83487 0.71784 0.75201 0.0
C174 C 0.92854 0.76756 0.74918 0.0
C175 C 0.95691 0.78004 0.72932 0.0
C176 C 0.8916 0.74282 0.71259 0.0
C177 C 0.79543 0.70311 0.71621 0.0
H178 H 0.40952 0.64613 0.95452 0.0
H179 H 0.66601 0.87314 0.97305 0.0
H180 H 0.68274 0.79863 0.00349 0.0
H181 H 0.32736 0.59843 0.00605 0.0
H182 H 0.28165 0.47737 -0.00039 0.0
H183 H 0.28345 0.55363 0.98059 0.0
H184 H 0.37689 0.47981 0.95809 0.0
H185 H 0.37654 0.40419 0.97709 0.0
H186 H 0.48593 0.47599 0.96803 0.0
H187 H 0.68245 0.6937 0.0291 0.0
H188 H 0.66065 0.56843 0.05044 0.0
H189 H 0.40229 0.40772 0.01593 0.0
C190 C 0.46815 0.68117 0.96519 0.0
C191 C 0.53684 0.76524 0.9614 0.0
C192 C 0.61305 0.80842 0.9756 0.0
C193 C 0.62289 0.76684 0.99295 0.0
C194 C 0.55569 0.68252 -0.00415 0.0
C195 C 0.4792 0.64048 0.98254 0.0
C196 C 0.42039 0.54731 0.9886 0.0
C197 C 0.3224 0.54403 -0.00596 0.0
C198 C 0.41466 0.47245 0.97196 0.0
C199 C 0.4776 0.54239 0.00707 0.0
C200 C 0.55495 0.62151 0.01097 0.0
C201 C 0.6216 0.6319 0.0264 0.0
C202 C 0.60886 0.55972 0.03829 0.0
C203 C 0.52986 0.47793 0.03475 0.0
C204 C 0.46291 0.46954 0.01903 0.0
H205 H 0.99222 0.27652 0.2569 0.0
H206 H 0.92667 0.46982 0.29695 0.0
H207 H 0.77699 0.4356 0.27748 0.0
H208 H 0.85754 0.31186 0.2087 0.0
H209 H 0.83212 0.19362 0.20095 0.0
H210 H 0.94026 0.25988 0.21467 0.0
H211 H 0.89237 0.13064 0.24031 0.0
H212 H 0.78009 0.07493 0.22714 0.0
H213 H 0.7871 0.11257 0.25356 0.0
H214 H 0.62028 0.3563 0.2575 0.0
H215 H 0.49582 0.28032 0.23078 0.0
H216 H 0.66151 0.1318 0.20587 0.0
C217 C 0.95039 0.31756 0.26043 0.0
C218 C 0.97098 0.37567 0.27842 0.0
C219 C 0.9128 0.42586 0.28307 0.0
C220 C 0.82604 0.40461 0.27244 0.0
C221 C 0.8011 0.33603 0.25668 0.0
C222 C 0.86368 0.29678 0.24996 0.0
C223 C 0.81852 0.22195 0.2333 0.0
C224 C 0.86478 0.24825 0.21324 0.0
C225 C 0.81972 0.12966 0.23892 0.0
C226 C 0.71991 0.22195 0.23242 0.0
C227 C 0.71095 0.28851 0.24591 0.0
C228 C 0.62729 0.30476 0.24675 0.0
C229 C 0.55551 0.25923 0.23189 0.0
C230 C 0.56964 0.20086 0.21623 0.0
C231 C 0.64817 0.17468 0.21792 0.0
H232 H 0.267 0.28999 0.19263 0.0
H233 H 0.52351 0.49645 0.21929 0.0
H234 H 0.46637 0.46075 0.2533 0.0
H235 H 0.10553 0.31131 0.22919 0.0
H236 H 0.0444 0.18985 0.22834 0.0
H237 H 0.10027 0.24008 0.20644 0.0
H238 H 0.19332 0.133 0.20531 0.0
H239 H 0.13884 0.08284 0.22741 0.0
H240 H 0.26467 0.13147 0.22717 0.0
H241 H 0.38974 0.38777 0.28409 0.0
H242 H 0.29196 0.30064 0.30957 0.0
H243 H 0.08512 0.13941 0.26254 0.0
C244 C 0.31058 0.33031 0.2055 0.0
C245 C 0.3999 0.39706 0.20313 0.0
C246 C 0.45447 0.4461 0.2206 0.0
C247 C 0.42291 0.42551 0.24 0.0
C248 C 0.33724 0.35511 0.24163 0.0
C249 C 0.28168 0.30895 0.22482 0.0
C250 C 0.19615 0.23169 0.23046 0.0
C251 C 0.10625 0.24416 0.22319 0.0
C252 C 0.19844 0.13931 0.22209 0.0
C253 C 0.2096 0.24335 0.25323 0.0
C254 C 0.29271 0.31364 0.25931 0.0
C255 C 0.32379 0.33389 0.27949 0.0
C256 C 0.26741 0.28314 0.29387 0.0
C257 C 0.17946 0.21326 0.28818 0.0
C258 C 0.15106 0.19267 0.26747 0.0
H259 H 0.17954 0.54911 0.69392 0.0
H260 H 0.93683 0.56355 0.7242 0.0
H261 H 0.04349 0.67333 0.75062 0.0
H262 H 0.33542 0.58306 0.74049 0.0
H263 H 0.4288 0.63599 0.72428 0.0
H264 H 0.32374 0.55045 0.71372 0.0
H265 H 0.3326 0.67968 0.68924 0.0
H266 H 0.42552 0.76576 0.70444 0.0
H267 H 0.31578 0.78065 0.69969 0.0
H268 H 0.17309 0.81426 0.7674 0.0
H269 H 0.31922 0.90471 0.78708 0.0
H270 H 0.47523 0.79144 0.74716 0.0
C271 C 0.14789 0.57482 0.70612 0.0
C272 C 0.04951 0.55021 0.70646 0.0
C273 C 0.01182 0.58286 0.72321 0.0
C274 C 0.0715 0.6476 0.73788 0.0
C275 C 0.16743 0.68049 0.73518 0.0
C276 C 0.20557 0.6414 0.72041 0.0
C277 C 0.31129 0.68242 0.72175 0.0
C278 C 0.35214 0.60871 0.72539 0.0
C279 C 0.3484 0.7299 0.70264 0.0
C280 C 0.32734 0.75112 0.73988 0.0
C281 C 0.24303 0.75181 0.7467 0.0
C282 C 0.23936 0.81238 0.76258 0.0
C283 C 0.32335 0.86588 0.77327 0.0
C284 C 0.40821 0.85331 0.76892 0.0
C285 C 0.41145 0.8018 0.75091 0.0
H286 H 0.61077 0.10952 0.94683 0.0
H287 H 0.3472 0.88107 0.945 0.0
H288 H 0.36876 0.87187 0.98146 0.0
H289 H 0.73589 0.04262 0.98829 0.0
H290 H 0.78791 0.15803 -0.00065 0.0
H291 H 0.76267 0.13548 0.97244 0.0
H292 H 0.66252 0.23801 0.97364 0.0
H293 H 0.69026 0.26226 0.0003 0.0
H294 H 0.56959 0.21639 0.99088 0.0
H295 H 0.41081 0.89333 0.01815 0.0
H296 H 0.4431 0.97031 0.05249 0.0
H297 H 0.67398 0.19081 0.03151 0.0
C298 C 0.55837 0.05651 0.95404 0.0
C299 C 0.47887 0.99421 0.94281 0.0
C300 C 0.4098 0.9286 0.95306 0.0
C301 C 0.42202 0.92195 0.97378 0.0
C302 C 0.50263 0.98258 0.98425 0.0
C303 C 0.56828 0.05033 0.97483 0.0
C304 C 0.6395 0.11693 0.99008 0.0
C305 C 0.7373 0.11299 0.98737 0.0
C306 C 0.64041 0.21406 0.98865 0.0
C307 C 0.60071 0.07887 0.00964 0.0
C308 C 0.5244 0.99874 0.00585 0.0
C309 C 0.47097 0.95541 0.02132 0.0
C310 C 0.49045 0.99916 0.04087 0.0
C311 C 0.5611 0.08636 0.04463 0.0
C312 C 0.62134 0.12313 0.02917 0.0
H313 H 0.12202 0.11765 0.47141 0.0
H314 H 0.83898 0.99005 0.44429 0.0
H315 H 0.81113 0.86335 0.46525 0.0
H316 H 0.16679 0.90975 0.47684 0.0
H317 H 0.22825 0.94781 0.5012 0.0
H318 H 0.23029 0.02917 0.48339 0.0
H319 H 0.16571 0.11682 0.50985 0.0
H320 H 0.16498 0.03658 0.5278 0.0
H321 H 0.05914 0.05669 0.52168 0.0
H322 H 0.81167 0.74907 0.48805 0.0
H323 H 0.83253 0.66381 0.51608 0.0
H324 H 0.11155 0.86488 0.53026 0.0
C325 C 0.05423 0.06322 0.46996 0.0
C326 C 0.9832 0.06411 0.45607 0.0
C327 C 0.89499 0.99166 0.45476 0.0
C328 C 0.87836 0.91851 0.46649 0.0
C329 C 0.95008 0.91865 0.47965 0.0
C330 C 0.03561 0.98952 0.48184 0.0
C331 C 0.09793 0.97423 0.49817 0.0
C332 C 0.18604 0.96468 0.48937 0.0
C333 C 0.12339 0.0506 0.5154 0.0
C334 C 0.03308 0.88462 0.5049 0.0
C335 C 0.94904 0.85317 0.49365 0.0
C336 C 0.87699 0.77291 0.49708 0.0
C337 C 0.8896 0.72499 0.51305 0.0
C338 C 0.97318 0.75821 0.52554 0.0
C339 C 0.04685 0.8377 0.52099 0.0
H340 H 0.07608 0.96761 0.35183 0.0
H341 H 0.82129 0.88081 0.38463 0.0
H342 H 0.8367 0.73377 0.38808 0.0
H343 H 0.02779 0.73953 0.32451 0.0
H344 H 0.14966 0.75255 0.32542 0.0
H345 H 0.11702 0.85099 0.32458 0.0
H346 H 0.22157 0.92317 0.35706 0.0
H347 H 0.25266 0.82403 0.35833 0.0
H348 H 0.20151 0.86271 0.3795 0.0
H349 H 0.88744 0.60517 0.39207 0.0
H350 H 0.95004 0.48264 0.38919 0.0
H351 H 0.16552 0.64063 0.35131 0.0
C352 C 0.02223 0.91674 0.35923 0.0
C353 C 0.94806 0.93679 0.36816 0.0
C354 C 0.8794 0.86813 0.37782 0.0
C355 C 0.88761 0.78416 0.37999 0.0
C356 C 0.9638 0.76836 0.37205 0.0
C357 C 0.02832 0.83095 0.36126 0.0
C358 C 0.10211 0.79411 0.35392 0.0
C359 C 0.09892 0.78365 0.33073 0.0
C360 C 0.20026 0.85464 0.36273 0.0
C361 C 0.06928 0.70208 0.36263 0.0
C362 C 0.99031 0.69001 0.37332 0.0
C363 C 0.94834 0.61286 0.38345 0.0
C364 C 0.98528 0.54384 0.38187 0.0
C365 C 0.06265 0.5513 0.36993 0.0
C366 C 0.1063 0.63262 0.36052 0.0
H367 H 0.26474 0.65208 0.60104 0.0
H368 H 0.36562 0.85547 0.65187 0.0
H369 H 0.51966 0.84025 0.65131 0.0
H370 H 0.35612 0.50796 0.61636 0.0
H371 H 0.39368 0.47246 0.59284 0.0
H372 H 0.29897 0.51436 0.59277 0.0
H373 H 0.38484 0.63914 0.56955 0.0
H374 H 0.47794 0.59469 0.56849 0.0
H375 H 0.50393 0.71302 0.57626 0.0
H376 H 0.63956 0.77244 0.65201 0.0
H377 H 0.7496 0.69427 0.6464 0.0
H378 H 0.57921 0.53919 0.5935 0.0
C379 C 0.32125 0.69778 0.61109 0.0
C380 C 0.30397 0.75488 0.6265 0.0
C381 C 0.37825 0.81173 0.63991 0.0
C382 C 0.46555 0.80285 0.63984 0.0
C383 C 0.47743 0.73858 0.62591 0.0
C384 C 0.40932 0.68999 0.61112 0.0
C385 C 0.43821 0.62013 0.59907 0.0
C386 C 0.36751 0.52304 0.60035 0.0
C387 C 0.45211 0.64315 0.57704 0.0
C388 C 0.53046 0.63393 0.6102 0.0
C389 C 0.5507 0.70192 0.62573 0.0
C390 C 0.62669 0.72151 0.63942 0.0
C391 C 0.68789 0.67513 0.63628 0.0
C392 C 0.67398 0.61124 0.61929 0.0
C393 C 0.59228 0.58822 0.60649 0.0
H394 H 0.56301 0.56504 0.85029 0.0
H395 H 0.33148 0.48856 0.89006 0.0
H396 H 0.33329 0.33425 0.88899 0.0
H397 H 0.48518 0.34477 0.81929 0.0
H398 H 0.6027 0.34693 0.81656 0.0
H399 H 0.5813 0.45189 0.81943 0.0
H400 H 0.70117 0.50662 0.85004 0.0
H401 H 0.72228 0.40154 0.8475 0.0
H402 H 0.68631 0.438 0.87112 0.0
H403 H 0.3654 0.19458 0.88638 0.0
H404 H 0.4169 0.0664 0.87963 0.0
H405 H 0.62466 0.22383 0.84013 0.0
C406 C 0.51158 0.51528 0.85842 0.0
C407 C 0.44724 0.53932 0.8703 0.0
C408 C 0.3819 0.47239 0.88095 0.0
C409 C 0.38215 0.38425 0.88044 0.0
C410 C 0.44758 0.36337 0.86907 0.0
C411 C 0.51035 0.42595 0.85799 0.0
C412 C 0.57395 0.3844 0.84732 0.0
C413 C 0.55991 0.38183 0.82428 0.0
C414 C 0.67703 0.43571 0.85443 0.0
C415 C 0.53761 0.28938 0.8545 0.0
C416 C 0.465 0.27977 0.8671 0.0
C417 C 0.4216 0.20065 0.8764 0.0
C418 C 0.45217 0.12836 0.87256 0.0
C419 C 0.52524 0.13492 0.85939 0.0
C420 C 0.56853 0.21673 0.85021 0.0
H421 H 0.23362 0.30175 0.14224 0.0
H422 H 0.12529 0.07852 0.09571 0.0
H423 H 0.96944 0.08904 0.09721 0.0
H424 H -0.00049 0.24592 0.16982 0.0
H425 H 0.02243 0.36539 0.17522 0.0
H426 H 0.11818 0.32451 0.17474 0.0
H427 H 0.19576 0.43818 0.14878 0.0
H428 H 0.09921 0.47736 0.1482 0.0
H429 H 0.13313 0.4337 0.12514 0.0
H430 H 0.84896 0.15366 0.09531 0.0
H431 H 0.74003 0.23357 0.09867 0.0
H432 H 0.91548 0.41073 0.14864 0.0
C433 C 0.17545 0.25124 0.13344 0.0
C434 C 0.19057 0.18927 0.11887 0.0
C435 C 0.11424 0.12605 0.10699 0.0
C436 C 0.0258 0.13198 0.10765 0.0
C437 C 0.01514 0.20017 0.12059 0.0
C438 C 0.0861 0.25608 0.13403 0.0
C439 C 0.05747 0.32911 0.14489 0.0
C440 C 0.0488 0.31536 0.16751 0.0
C441 C 0.12546 0.4252 0.14153 0.0
C442 C 0.96255 0.3092 0.13429 0.0
C443 C 0.94054 0.2349 0.12028 0.0
C444 C 0.86302 0.20939 0.10684 0.0
C445 C 0.80239 0.2569 0.10866 0.0
C446 C 0.81798 0.32794 0.12419 0.0
C447 C 0.9009 0.35615 0.13679 0.0
H448 H 0.92756 0.94036 0.63249 0.0
H449 H 0.18002 0.02371 0.59894 0.0
H450 H 0.17049 0.1745 0.59702 0.0
H451 H 0.80737 0.05427 0.6055 0.0
H452 H 0.7564 0.0899 0.62709 0.0
H453 H 0.7841 0.98844 0.62712 0.0
H454 H 0.88722 0.05166 0.66018 0.0
H455 H 0.85831 0.15254 0.6605 0.0
H456 H 0.97916 0.16198 0.6614 0.0
H457 H 0.13039 0.3114 0.59657 0.0
H458 H 0.07276 0.4369 0.6015 0.0
H459 H 0.84657 0.26995 0.63579 0.0
C460 C 0.98187 0.99102 0.62514 0.0
C461 C 0.05434 0.96994 0.6158 0.0
C462 C 0.1235 0.03787 0.60611 0.0
C463 C 0.11868 0.12381 0.60488 0.0
C464 C 0.04464 0.1413 0.61351 0.0
C465 C 0.97833 0.07785 0.62378 0.0
C466 C 0.90602 0.11525 0.63161 0.0
C467 C 0.80766 0.05857 0.62227 0.0
C468 C 0.90784 0.1207 0.6548 0.0
C469 C 0.94211 0.20915 0.62396 0.0
C470 C 0.0217 0.22199 0.61343 0.0
C471 C 0.06816 0.30246 0.60481 0.0
C472 C 0.03406 0.37315 0.60752 0.0
C473 C 0.95435 0.36327 0.61884 0.0
C474 C 0.90713 0.27946 0.62692 0.0
H475 H 0.89933 0.93771 0.89481 0.0
H476 H 0.79411 0.9065 0.83244 0.0
H477 H 0.92272 0.85625 0.82195 0.0
H478 H 0.15367 0.014 0.8831 0.0
H479 H 0.17993 0.95609 0.90348 0.0
H480 H 0.08801 1.00178 0.90552 0.0
H481 H 0.97253 0.84272 0.91265 0.0
H482 H 0.06317 0.79589 0.90998 0.0
H483 H 0.95563 0.74696 0.89458 0.0
H484 H 0.03924 0.7767 0.81932 0.0
H485 H 0.16792 0.71962 0.82288 0.0
H486 H 0.2059 0.81178 0.8867 0.0
C487 C 0.90414 0.92242 0.87884 0.0
C488 C 0.83471 0.92421 0.86446 0.0
C489 C 0.84459 0.90365 0.84378 0.0
C490 C 0.91716 0.87444 0.83771 0.0
C491 C 0.97914 0.86582 0.85248 0.0
C492 C 0.97584 0.89279 0.87253 0.0
C493 C 0.05113 0.87694 0.88541 0.0
C494 C 0.12242 0.96759 0.89493 0.0
C495 C 0.00798 0.81176 0.90161 0.0
C496 C 0.0948 0.83326 0.86957 0.0
C497 C 0.05142 0.82666 0.85071 0.0
C498 C 0.07503 0.78342 0.83392 0.0
C499 C 0.14761 0.74983 0.83622 0.0
C500 C 0.19744 0.76074 0.85514 0.0
C501 C 0.16934 0.8021 0.87207 0.0
H502 H 0.46735 0.56897 0.13819 0.0
H503 H 0.7162 0.6538 0.10345 0.0
H504 H 0.702 0.80181 0.10081 0.0
H505 H 0.33943 0.67597 0.11211 0.0
H506 H 0.29217 0.7152 0.13384 0.0
H507 H 0.32255 0.61543 0.13452 0.0
H508 H 0.43211 0.68685 0.16635 0.0
H509 H 0.4004 0.78604 0.16609 0.0
H510 H 0.52184 0.79779 0.16602 0.0
H511 H 0.65188 0.931 0.09762 0.0
H512 H 0.58959 0.0536 0.10088 0.0
H513 H 0.38039 0.89831 0.14036 0.0
C514 C 0.52027 0.61963 0.13055 0.0
C515 C 0.59233 0.59873 0.12084 0.0
C516 C 0.65974 0.66711 0.11086 0.0
C517 C 0.6522 0.75168 0.10916 0.0
C518 C 0.57802 0.7684 0.1179 0.0
C519 C 0.51488 0.70606 0.12898 0.0
C520 C 0.44289 0.74382 0.13705 0.0
C521 C 0.34338 0.68402 0.12889 0.0
C522 C 0.44975 0.75426 0.16026 0.0
C523 C 0.47491 0.83595 0.12837 0.0
C524 C 0.55208 0.84731 0.1171 0.0
C525 C 0.5925 0.92393 0.10671 0.0
C526 C 0.55573 0.993 0.10852 0.0
C527 C 0.48015 0.9863 0.12097 0.0
C528 C 0.4383 0.90574 0.13078 0.0
H529 H 0.63322 0.14078 0.33409 0.0
H530 H 0.77131 0.23469 0.39374 0.0
H531 H 0.66169 0.30978 0.40176 0.0
H532 H 0.56113 0.32477 0.32497 0.0
H533 H 0.44397 0.25787 0.31517 0.0
H534 H 0.53623 0.21293 0.31257 0.0
H535 H 0.44121 0.07134 0.33073 0.0
H536 H 0.34753 0.11456 0.33253 0.0
H537 H 0.39653 0.08693 0.35497 0.0
H538 H 0.55853 0.39555 0.40169 0.0
H539 H 0.4122 0.42507 0.40194 0.0
H540 H 0.3132 0.25145 0.34618 0.0
C541 C 0.63882 0.17503 0.34901 0.0
C542 C 0.71462 0.18552 0.36291 0.0
C543 C 0.71715 0.22865 0.38247 0.0
C544 C 0.65554 0.27269 0.38716 0.0
C545 C 0.5878 0.26874 0.37255 0.0
C546 C 0.57394 0.21582 0.3545 0.0
C547 C 0.48554 0.21335 0.34306 0.0
C548 C 0.50813 0.25469 0.32273 0.0
C549 C 0.41341 0.11577 0.34017 0.0
C550 C 0.45347 0.27357 0.35766 0.0
C551 C 0.51713 0.30819 0.37395 0.0
C552 C 0.50643 0.36713 0.38933 0.0
C553 C 0.42341 0.38413 0.38922 0.0
C554 C 0.35057 0.33873 0.37438 0.0
C555 C 0.36784 0.28733 0.35766 0.0
loop_
_geom_bond_atom_site_label_1
_geom_bond_atom_site_label_2
_geom_bond_distance
_geom_bond_site_symmetry_2
_ccdc_geom_bond_type
C0 O12 1.241 1_455 S
C0 O13 1.280 . S
C1 O14 1.277 . S
C1 O15 1.245 1_655 S
C2 O26 1.247 . S
C2 O28 1.289 . S
Mg3 O4 1.926 . S
Mg3 O13 1.984 . S
Mg3 O15 1.988 . S
Mg3 O16 2.061 . S
O4 Mg3 1.926 . S
O4 Mg5 1.986 1_455 S
O4 Mg6 1.917 . S
Mg5 O4 1.986 1_655 S
Mg5 O12 2.042 . S
Mg5 O14 2.041 . S
Mg5 O20 2.038 . S
Mg5 O28 2.238 . S
Mg6 O4 1.917 . S
Mg6 O7 1.917 1_455 S
Mg6 O17 2.106 . S
Mg6 O19 2.079 . S
Mg6 O28 2.106 1_455 S
Mg6 O29 2.079 . S
O7 Mg6 1.917 1_655 S
O7 Mg8 1.926 . S
O7 Mg9 1.986 1_655 S
Mg8 O7 1.926 . S
Mg8 O22 1.984 . S
Mg8 O25 1.988 . S
Mg8 O26 2.061 . S
Mg9 O7 1.986 1_455 S
Mg9 O17 2.238 . S
Mg9 O21 2.042 . S
Mg9 O23 2.041 . S
Mg9 O30 2.038 . S
C10 O16 1.247 . S
C10 O17 1.289 . S
C11 O29 1.245 . S
C11 O30 1.274 . S
O12 C0 1.241 1_655 S
O12 Mg5 2.042 . S
O13 C0 1.280 . S
O13 Mg3 1.984 . S
O14 C1 1.277 . S
O14 Mg5 2.041 . S
O15 C1 1.245 1_455 S
O15 Mg3 1.988 . S
O16 Mg3 2.061 . S
O16 C10 1.247 . S
O17 Mg6 2.106 . S
O17 Mg9 2.238 . S
O17 C10 1.289 . S
C18 O19 1.245 1_655 S
C18 O20 1.274 . S
O19 Mg6 2.079 . S
O19 C18 1.245 1_455 S
O20 Mg5 2.038 . S
O20 C18 1.274 . S
O21 Mg9 2.042 . S
O21 C24 1.241 1_455 S
O22 Mg8 1.984 . S
O22 C24 1.280 . S
O23 Mg9 2.041 . S
O23 C27 1.277 . S
C24 O21 1.241 1_655 S
C24 O22 1.280 . S
O25 Mg8 1.988 . S
O25 C27 1.245 1_655 S
O26 C2 1.247 . S
O26 Mg8 2.061 . S
C27 O23 1.277 . S
C27 O25 1.245 1_455 S
O28 C2 1.289 . S
O28 Mg5 2.238 . S
O28 Mg6 2.106 1_655 S
O29 Mg6 2.079 . S
O29 C11 1.245 . S
O30 Mg9 2.038 . S
O30 C11 1.274 . S
C31 O43 1.241 1_455 S
C31 O44 1.280 . S
C32 O45 1.277 . S
C32 O46 1.245 1_655 S
C33 O57 1.247 . S
C33 O59 1.289 . S
Mg34 O35 1.926 . S
Mg34 O44 1.984 . S
Mg34 O46 1.988 . S
Mg34 O47 2.061 . S
O35 Mg34 1.926 . S
O35 Mg36 1.986 1_455 S
O35 Mg37 1.917 . S
Mg36 O35 1.986 1_655 S
Mg36 O43 2.042 . S
Mg36 O45 2.041 . S
Mg36 O51 2.038 . S
Mg36 O59 2.238 . S
Mg37 O35 1.917 . S
Mg37 O38 1.917 1_455 S
Mg37 O48 2.106 . S
Mg37 O50 2.079 1_455 S
Mg37 O59 2.106 1_455 S
Mg37 O60 2.079 . S
O38 Mg37 1.917 1_655 S
O38 Mg39 1.926 . S
O38 Mg40 1.986 1_655 S
Mg39 O38 1.926 . S
Mg39 O53 1.984 . S
Mg39 O56 1.988 . S
Mg39 O57 2.061 . S
Mg40 O38 1.986 1_455 S
Mg40 O48 2.238 . S
Mg40 O52 2.042 . S
Mg40 O54 2.041 . S
Mg40 O61 2.038 . S
C41 O47 1.247 . S
C41 O48 1.289 . S
C42 O60 1.245 . S
C42 O61 1.274 . S
O43 C31 1.241 1_655 S
O43 Mg36 2.042 . S
O44 C31 1.280 . S
O44 Mg34 1.984 . S
O45 C32 1.277 . S
O45 Mg36 2.041 . S
O46 C32 1.245 1_455 S
O46 Mg34 1.988 . S
O47 Mg34 2.061 . S
O47 C41 1.247 . S
O48 Mg37 2.106 . S
O48 Mg40 2.238 . S
O48 C41 1.289 . S
C49 O50 1.245 . S
C49 O51 1.274 . S
O50 Mg37 2.079 1_655 S
O50 C49 1.245 . S
O51 Mg36 2.038 . S
O51 C49 1.274 . S
O52 Mg40 2.042 . S
O52 C55 1.241 1_455 S
O53 Mg39 1.984 . S
O53 C55 1.280 . S
O54 Mg40 2.041 . S
O54 C58 1.277 . S
C55 O52 1.241 1_655 S
C55 O53 1.280 . S
O56 Mg39 1.988 . S
O56 C58 1.245 1_655 S
O57 C33 1.247 . S
O57 Mg39 2.061 . S
C58 O54 1.277 . S
C58 O56 1.245 1_455 S
O59 C33 1.289 . S
O59 Mg36 2.238 . S
O59 Mg37 2.106 1_655 S
O60 Mg37 2.079 . S
O60 C42 1.245 . S
O61 Mg40 2.038 . S
O61 C42 1.274 . S
C62 O74 1.241 . S
C62 O75 1.280 . S
C63 O76 1.277 . S
C63 O77 1.245 . S
C64 O88 1.247 . S
C64 O90 1.289 . S
Mg65 O66 1.926 . S
Mg65 O75 1.984 . S
Mg65 O77 1.988 . S
Mg65 O78 2.061 . S
O66 Mg65 1.926 . S
O66 Mg67 1.986 . S
O66 Mg68 1.917 . S
Mg67 O66 1.986 . S
Mg67 O74 2.042 . S
Mg67 O76 2.041 . S
Mg67 O82 2.038 . S
Mg67 O90 2.238 . S
Mg68 O66 1.917 . S
Mg68 O69 1.917 . S
Mg68 O79 2.106 . S
Mg68 O81 2.079 . S
Mg68 O90 2.106 . S
Mg68 O91 2.079 . S
O69 Mg68 1.917 . S
O69 Mg70 1.926 . S
O69 Mg71 1.986 . S
Mg70 O69 1.926 . S
Mg70 O84 1.984 . S
Mg70 O87 1.988 . S
Mg70 O88 2.061 . S
Mg71 O69 1.986 . S
Mg71 O79 2.238 . S
Mg71 O83 2.042 . S
Mg71 O85 2.041 . S
Mg71 O92 2.038 . S
C72 O78 1.247 . S
C72 O79 1.289 . S
C73 O91 1.245 . S
C73 O92 1.274 . S
O74 C62 1.241 . S
O74 Mg67 2.042 . S
O75 C62 1.280 . S
O75 Mg65 1.984 . S
O76 C63 1.277 . S
O76 Mg67 2.041 . S
O77 C63 1.245 . S
O77 Mg65 1.988 . S
O78 Mg65 2.061 . S
O78 C72 1.247 . S
O79 Mg68 2.106 . S
O79 Mg71 2.238 . S
O79 C72 1.289 . S
C80 O81 1.245 . S
C80 O82 1.274 . S
O81 Mg68 2.079 . S
O81 C80 1.245 . S
O82 Mg67 2.038 . S
O82 C80 1.274 . S
O83 Mg71 2.042 . S
O83 C86 1.241 . S
O84 Mg70 1.984 . S
O84 C86 1.280 . S
O85 Mg71 2.041 . S
O85 C89 1.277 . S
C86 O83 1.241 . S
C86 O84 1.280 . S
O87 Mg70 1.988 . S
O87 C89 1.245 . S
O88 C64 1.247 . S
O88 Mg70 2.061 . S
C89 O85 1.277 . S
C89 O87 1.245 . S
O90 C64 1.289 . S
O90 Mg67 2.238 . S
O90 Mg68 2.106 . S
O91 Mg68 2.079 . S
O91 C73 1.245 . S
O92 Mg71 2.038 . S
O92 C73 1.274 . S
C93 O105 1.241 . S
C93 O106 1.280 . S
C94 O107 1.277 . S
C94 O108 1.245 . S
C95 O119 1.247 . S
C95 O121 1.289 . S
Mg96 O97 1.926 . S
Mg96 O106 1.984 . S
Mg96 O108 1.988 . S
Mg96 O109 2.061 . S
O97 Mg96 1.926 . S
O97 Mg98 1.986 . S
O97 Mg99 1.917 . S
Mg98 O97 1.986 . S
Mg98 O105 2.042 . S
Mg98 O107 2.041 . S
Mg98 O113 2.038 . S
Mg98 O121 2.238 . S
Mg99 O97 1.917 . S
Mg99 O100 1.917 . S
Mg99 O110 2.106 . S
Mg99 O112 2.079 . S
Mg99 O121 2.106 . S
Mg99 O122 2.079 . S
O100 Mg99 1.917 . S
O100 Mg101 1.926 . S
O100 Mg102 1.986 . S
Mg101 O100 1.926 . S
Mg101 O115 1.984 . S
Mg101 O118 1.988 . S
Mg101 O119 2.061 . S
Mg102 O100 1.986 . S
Mg102 O110 2.238 . S
Mg102 O114 2.042 . S
Mg102 O116 2.041 . S
Mg102 O123 2.038 . S
C103 O109 1.247 . S
C103 O110 1.289 . S
C104 O122 1.245 . S
C104 O123 1.274 . S
O105 C93 1.241 . S
O105 Mg98 2.042 . S
O106 C93 1.280 . S
O106 Mg96 1.984 . S
O107 C94 1.277 . S
O107 Mg98 2.041 . S
O108 C94 1.245 . S
O108 Mg96 1.988 . S
O109 Mg96 2.061 . S
O109 C103 1.247 . S
O110 Mg99 2.106 . S
O110 Mg102 2.238 . S
O110 C103 1.289 . S
C111 O112 1.245 . S
C111 O113 1.274 . S
O112 Mg99 2.079 . S
O112 C111 1.245 . S
O113 Mg98 2.038 . S
O113 C111 1.274 . S
O114 Mg102 2.042 . S
O114 C117 1.241 . S
O115 Mg101 1.984 . S
O115 C117 1.280 . S
O116 Mg102 2.041 . S
O116 C120 1.277 . S
C117 O114 1.241 . S
C117 O115 1.280 . S
O118 Mg101 1.988 . S
O118 C120 1.245 . S
O119 C95 1.247 . S
O119 Mg101 2.061 . S
C120 O116 1.277 . S
C120 O118 1.245 . S
O121 C95 1.289 . S
O121 Mg98 2.238 . S
O121 Mg99 2.106 . S
O122 Mg99 2.079 . S
O122 C104 1.245 . S
O123 Mg102 2.038 . S
O123 C104 1.274 . S
H124 C136 0.930 . S
H125 C138 0.930 . S
H126 C139 0.930 . S
H127 C143 0.959 . S
H128 C143 0.959 . S
H129 C143 0.961 . S
H130 C144 0.960 . S
H131 C144 0.961 . S
H132 C144 0.959 . S
H133 C147 0.929 . S
H134 C148 0.931 . S
H135 C150 0.930 . S
C136 H124 0.930 . S
C136 C137 1.399 . S
C136 C141 1.399 . S
C137 C136 1.399 . S
C137 C138 1.376 1_655 S
C138 H125 0.930 . S
C138 C137 1.376 1_455 S
C138 C139 1.388 . S
C139 H126 0.930 . S
C139 C138 1.388 . S
C139 C140 1.390 . S
C140 C139 1.390 . S
C140 C141 1.394 1_455 S
C140 C146 1.465 . S
C141 C136 1.399 . S
C141 C140 1.394 1_655 S
C141 C142 1.516 . S
C142 C141 1.516 . S
C142 C143 1.502 . S
C142 C144 1.561 1_655 S
C142 C145 1.526 1_655 S
C143 H127 0.959 . S
C143 H128 0.959 . S
C143 H129 0.961 . S
C143 C142 1.502 . S
C144 H130 0.960 . S
C144 H131 0.961 . S
C144 H132 0.959 . S
C144 C142 1.561 1_455 S
C145 C142 1.526 1_455 S
C145 C146 1.396 . S
C145 C150 1.390 . S
C146 C140 1.465 . S
C146 C145 1.396 . S
C146 C147 1.399 . S
C147 H133 0.929 . S
C147 C146 1.399 . S
C147 C148 1.385 . S
C148 H134 0.931 . S
C148 C147 1.385 . S
C148 C149 1.389 . S
C149 C148 1.389 . S
C149 C150 1.387 . S
C150 H135 0.930 . S
C150 C145 1.390 . S
C150 C149 1.387 . S
H151 C163 0.930 . S
H152 C165 0.930 . S
H153 C166 0.930 . S
H154 C170 0.959 . S
H155 C170 0.959 . S
H156 C170 0.961 . S
H157 C171 0.960 . S
H158 C171 0.961 . S
H159 C171 0.959 . S
H160 C174 0.929 . S
H161 C175 0.931 1_455 S
H162 C177 0.930 . S
C163 H151 0.930 . S
C163 C164 1.399 . S
C163 C168 1.399 . S
C164 C163 1.399 . S
C164 C165 1.376 . S
C165 H152 0.930 . S
C165 C164 1.376 . S
C165 C166 1.388 . S
C166 H153 0.930 . S
C166 C165 1.388 . S
C166 C167 1.390 . S
C167 C166 1.390 . S
C167 C168 1.394 . S
C167 C173 1.465 . S
C168 C163 1.399 . S
C168 C167 1.394 . S
C168 C169 1.516 . S
C169 C168 1.516 . S
C169 C170 1.502 . S
C169 C171 1.561 . S
C169 C172 1.526 . S
C170 H154 0.959 . S
C170 H155 0.959 . S
C170 H156 0.961 . S
C170 C169 1.502 . S
C171 H157 0.960 . S
C171 H158 0.961 . S
C171 H159 0.959 . S
C171 C169 1.561 . S
C172 C169 1.526 . S
C172 C173 1.396 . S
C172 C177 1.390 . S
C173 C167 1.465 . S
C173 C172 1.396 . S
C173 C174 1.399 . S
C174 H160 0.929 . S
C174 C173 1.399 . S
C174 C175 1.385 . S
C175 H161 0.931 1_655 S
C175 C174 1.385 . S
C175 C176 1.389 . S
C176 C175 1.389 . S
C176 C177 1.387 . S
C177 H162 0.930 . S
C177 C172 1.390 . S
C177 C176 1.387 . S
H178 C190 0.930 . S
H179 C192 0.930 . S
H180 C193 0.930 1_554 S
H181 C197 0.959 . S
H182 C197 0.959 . S
H183 C197 0.961 . S
H184 C198 0.960 . S
H185 C198 0.961 . S
H186 C198 0.959 . S
H187 C201 0.929 . S
H188 C202 0.931 . S
H189 C204 0.930 . S
C190 H178 0.930 . S
C190 C191 1.399 . S
C190 C195 1.399 . S
C191 C190 1.399 . S
C191 C192 1.376 . S
C192 H179 0.930 . S
C192 C191 1.376 . S
C192 C193 1.388 . S
C193 H180 0.930 1_556 S
C193 C192 1.388 . S
C193 C194 1.390 . S
C194 C193 1.390 . S
C194 C195 1.394 . S
C194 C200 1.465 1_556 S
C195 C190 1.399 . S
C195 C194 1.394 . S
C195 C196 1.516 . S
C196 C195 1.516 . S
C196 C197 1.502 . S
C196 C198 1.561 . S
C196 C199 1.526 1_556 S
C197 H181 0.959 . S
C197 H182 0.959 . S
C197 H183 0.961 . S
C197 C196 1.502 . S
C198 H184 0.960 . S
C198 H185 0.961 . S
C198 H186 0.959 . S
C198 C196 1.561 . S
C199 C196 1.526 1_554 S
C199 C200 1.396 . S
C199 C204 1.390 . S
C200 C194 1.465 1_554 S
C200 C199 1.396 . S
C200 C201 1.399 . S
C201 H187 0.929 . S
C201 C200 1.399 . S
C201 C202 1.385 . S
C202 H188 0.931 . S
C202 C201 1.385 . S
C202 C203 1.389 . S
C203 C202 1.389 . S
C203 C204 1.387 . S
C204 H189 0.930 . S
C204 C199 1.390 . S
C204 C203 1.387 . S
H205 C217 0.930 . S
H206 C219 0.930 . S
H207 C220 0.930 . S
H208 C224 0.959 . S
H209 C224 0.959 . S
H210 C224 0.961 . S
H211 C225 0.960 . S
H212 C225 0.961 . S
H213 C225 0.959 . S
H214 C228 0.929 . S
H215 C229 0.931 . S
H216 C231 0.930 . S
C217 H205 0.930 . S
C217 C218 1.399 . S
C217 C222 1.399 . S
C218 C217 1.399 . S
C218 C219 1.376 . S
C219 H206 0.930 . S
C219 C218 1.376 . S
C219 C220 1.388 . S
C220 H207 0.930 . S
C220 C219 1.388 . S
C220 C221 1.390 . S
C221 C220 1.390 . S
C221 C222 1.394 . S
C221 C227 1.465 . S
C222 C217 1.399 . S
C222 C221 1.394 . S
C222 C223 1.516 . S
C223 C222 1.516 . S
C223 C224 1.502 . S
C223 C225 1.561 . S
C223 C226 1.526 . S
C224 H208 0.959 . S
C224 H209 0.959 . S
C224 H210 0.961 . S
C224 C223 1.502 . S
C225 H211 0.960 . S
C225 H212 0.961 . S
C225 H213 0.959 . S
C225 C223 1.561 . S
C226 C223 1.526 . S
C226 C227 1.396 . S
C226 C231 1.390 . S
C227 C221 1.465 . S
C227 C226 1.396 . S
C227 C228 1.399 . S
C228 H214 0.929 . S
C228 C227 1.399 . S
C228 C229 1.385 . S
C229 H215 0.931 . S
C229 C228 1.385 . S
C229 C230 1.389 . S
C230 C229 1.389 . S
C230 C231 1.387 . S
C231 H216 0.930 . S
C231 C226 1.390 . S
C231 C230 1.387 . S
H232 C244 0.930 . S
H233 C246 0.930 . S
H234 C247 0.930 . S
H235 C251 0.959 . S
H236 C251 0.959 . S
H237 C251 0.961 . S
H238 C252 0.960 . S
H239 C252 0.961 . S
H240 C252 0.959 . S
H241 C255 0.929 . S
H242 C256 0.931 . S
H243 C258 0.930 . S
C244 H232 0.930 . S
C244 C245 1.399 . S
C244 C249 1.399 . S
C245 C244 1.399 . S
C245 C246 1.376 . S
C246 H233 0.930 . S
C246 C245 1.376 . S
C246 C247 1.388 . S
C247 H234 0.930 . S
C247 C246 1.388 . S
C247 C248 1.390 . S
C248 C247 1.390 . S
C248 C249 1.394 . S
C248 C254 1.465 . S
C249 C244 1.399 . S
C249 C248 1.394 . S
C249 C250 1.516 . S
C250 C249 1.516 . S
C250 C251 1.502 . S
C250 C252 1.561 . S
C250 C253 1.526 . S
C251 H235 0.959 . S
C251 H236 0.959 . S
C251 H237 0.961 . S
C251 C250 1.502 . S
C252 H238 0.960 . S
C252 H239 0.961 . S
C252 H240 0.959 . S
C252 C250 1.561 . S
C253 C250 1.526 . S
C253 C254 1.396 . S
C253 C258 1.390 . S
C254 C248 1.465 . S
C254 C253 1.396 . S
C254 C255 1.399 . S
C255 H241 0.929 . S
C255 C254 1.399 . S
C255 C256 1.385 . S
C256 H242 0.931 . S
C256 C255 1.385 . S
C256 C257 1.389 . S
C257 C256 1.389 . S
C257 C258 1.387 . S
C258 H243 0.930 . S
C258 C253 1.390 . S
C258 C257 1.387 . S
H259 C271 0.930 . S
H260 C273 0.930 . S
H261 C274 0.930 . S
H262 C278 0.959 . S
H263 C278 0.959 . S
H264 C278 0.961 . S
H265 C279 0.960 . S
H266 C279 0.961 . S
H267 C279 0.959 . S
H268 C282 0.929 . S
H269 C283 0.931 . S
H270 C285 0.930 . S
C271 H259 0.930 . S
C271 C272 1.399 . S
C271 C276 1.399 . S
C272 C271 1.399 . S
C272 C273 1.376 . S
C273 H260 0.930 . S
C273 C272 1.376 . S
C273 C274 1.388 . S
C274 H261 0.930 . S
C274 C273 1.388 . S
C274 C275 1.390 . S
C275 C274 1.390 . S
C275 C276 1.394 . S
C275 C281 1.465 . S
C276 C271 1.399 . S
C276 C275 1.394 . S
C276 C277 1.516 . S
C277 C276 1.516 . S
C277 C278 1.502 . S
C277 C279 1.561 . S
C277 C280 1.526 . S
C278 H262 0.959 . S
C278 H263 0.959 . S
C278 H264 0.961 . S
C278 C277 1.502 . S
C279 H265 0.960 . S
C279 H266 0.961 . S
C279 H267 0.959 . S
C279 C277 1.561 . S
C280 C277 1.526 . S
C280 C281 1.396 . S
C280 C285 1.390 . S
C281 C275 1.465 . S
C281 C280 1.396 . S
C281 C282 1.399 . S
C282 H268 0.929 . S
C282 C281 1.399 . S
C282 C283 1.385 . S
C283 H269 0.931 . S
C283 C282 1.385 . S
C283 C284 1.389 . S
C284 C283 1.389 . S
C284 C285 1.387 . S
C285 H270 0.930 . S
C285 C280 1.390 . S
C285 C284 1.387 . S
H286 C298 0.930 1_545 S
H287 C300 0.930 . S
H288 C301 0.930 . S
H289 C305 0.959 . S
H290 C305 0.959 . S
H291 C305 0.961 . S
H292 C306 0.960 . S
H293 C306 0.961 . S
H294 C306 0.959 . S
H295 C309 0.929 . S
H296 C310 0.931 1_565 S
H297 C312 0.930 . S
C298 H286 0.930 1_565 S
C298 C299 1.399 . S
C298 C303 1.399 1_565 S
C299 C298 1.399 . S
C299 C300 1.376 . S
C300 H287 0.930 . S
C300 C299 1.376 . S
C300 C301 1.388 . S
C301 H288 0.930 . S
C301 C300 1.388 . S
C301 C302 1.390 . S
C302 C301 1.390 . S
C302 C303 1.394 1_565 S
C302 C308 1.465 1_556 S
C303 C298 1.399 1_545 S
C303 C302 1.394 1_545 S
C303 C304 1.516 . S
C304 C303 1.516 . S
C304 C305 1.502 . S
C304 C306 1.561 . S
C304 C307 1.526 1_556 S
C305 H289 0.959 . S
C305 H290 0.959 . S
C305 H291 0.961 . S
C305 C304 1.502 . S
C306 H292 0.960 . S
C306 H293 0.961 . S
C306 H294 0.959 . S
C306 C304 1.561 . S
C307 C304 1.526 1_554 S
C307 C308 1.396 1_545 S
C307 C312 1.390 . S
C308 C302 1.465 1_554 S
C308 C307 1.396 1_565 S
C308 C309 1.399 . S
C309 H295 0.929 . S
C309 C308 1.399 . S
C309 C310 1.385 1_565 S
C310 H296 0.931 1_545 S
C310 C309 1.385 1_545 S
C310 C311 1.389 . S
C311 C310 1.389 . S
C311 C312 1.387 . S
C312 H297 0.930 . S
C312 C307 1.390 . S
C312 C311 1.387 . S
H313 C325 0.930 . S
H314 C327 0.930 1_665 S
H315 C328 0.930 . S
H316 C332 0.959 . S
H317 C332 0.959 . S
H318 C332 0.961 . S
H319 C333 0.960 . S
H320 C333 0.961 . S
H321 C333 0.959 1_655 S
H322 C336 0.929 . S
H323 C337 0.931 . S
H324 C339 0.930 1_445 S
C325 H313 0.930 . S
C325 C326 1.399 . S
C325 C330 1.399 . S
C326 C325 1.399 . S
C326 C327 1.376 . S
C327 H314 0.930 1_445 S
C327 C326 1.376 . S
C327 C328 1.388 1_445 S
C328 H315 0.930 . S
C328 C327 1.388 1_665 S
C328 C329 1.390 . S
C329 C328 1.390 . S
C329 C330 1.394 1_665 S
C329 C335 1.465 . S
C330 C325 1.399 . S
C330 C329 1.394 1_445 S
C330 C331 1.516 . S
C331 C330 1.516 . S
C331 C332 1.502 . S
C331 C333 1.561 . S
C331 C334 1.526 . S
C332 H316 0.959 . S
C332 H317 0.959 . S
C332 H318 0.961 . S
C332 C331 1.502 . S
C333 H319 0.960 . S
C333 H320 0.961 . S
C333 H321 0.959 1_455 S
C333 C331 1.561 . S
C334 C331 1.526 . S
C334 C335 1.396 1_445 S
C334 C339 1.390 1_445 S
C335 C329 1.465 . S
C335 C334 1.396 1_665 S
C335 C336 1.399 . S
C336 H322 0.929 . S
C336 C335 1.399 . S
C336 C337 1.385 . S
C337 H323 0.931 . S
C337 C336 1.385 . S
C337 C338 1.389 . S
C338 C337 1.389 . S
C338 C339 1.387 . S
C339 H324 0.930 1_665 S
C339 C334 1.390 1_665 S
C339 C338 1.387 . S
H340 C352 0.930 . S
H341 C354 0.930 . S
H342 C355 0.930 . S
H343 C359 0.959 . S
H344 C359 0.959 . S
H345 C359 0.961 . S
H346 C360 0.960 . S
H347 C360 0.961 . S
H348 C360 0.959 . S
H349 C363 0.929 . S
H350 C364 0.931 . S
H351 C366 0.930 . S
C352 H340 0.930 . S
C352 C353 1.399 1_455 S
C352 C357 1.399 . S
C353 C352 1.399 1_655 S
C353 C354 1.376 . S
C354 H341 0.930 . S
C354 C353 1.376 . S
C354 C355 1.388 1_655 S
C355 H342 0.930 . S
C355 C354 1.388 1_455 S
C355 C356 1.390 . S
C356 C355 1.390 . S
C356 C357 1.394 . S
C356 C362 1.465 . S
C357 C352 1.399 . S
C357 C356 1.394 . S
C357 C358 1.516 . S
C358 C357 1.516 . S
C358 C359 1.502 1_455 S
C358 C360 1.561 . S
C358 C361 1.526 . S
C359 H343 0.959 . S
C359 H344 0.959 . S
C359 H345 0.961 . S
C359 C358 1.502 1_655 S
C360 H346 0.960 . S
C360 H347 0.961 . S
C360 H348 0.959 . S
C360 C358 1.561 . S
C361 C358 1.526 . S
C361 C362 1.396 . S
C361 C366 1.390 . S
C362 C356 1.465 . S
C362 C361 1.396 . S
C362 C363 1.399 . S
C363 H349 0.929 . S
C363 C362 1.399 . S
C363 C364 1.385 . S
C364 H350 0.931 . S
C364 C363 1.385 . S
C364 C365 1.389 . S
C365 C364 1.389 . S
C365 C366 1.387 . S
C366 H351 0.930 . S
C366 C361 1.390 . S
C366 C365 1.387 . S
H367 C379 0.930 . S
H368 C381 0.930 . S
H369 C382 0.930 . S
H370 C386 0.959 . S
H371 C386 0.959 . S
H372 C386 0.961 . S
H373 C387 0.960 . S
H374 C387 0.961 . S
H375 C387 0.959 . S
H376 C390 0.929 . S
H377 C391 0.931 . S
H378 C393 0.930 . S
C379 H367 0.930 . S
C379 C380 1.399 . S
C379 C384 1.399 . S
C380 C379 1.399 . S
C380 C381 1.376 . S
C381 H368 0.930 . S
C381 C380 1.376 . S
C381 C382 1.388 . S
C382 H369 0.930 . S
C382 C381 1.388 . S
C382 C383 1.390 . S
C383 C382 1.390 . S
C383 C384 1.394 . S
C383 C389 1.465 . S
C384 C379 1.399 . S
C384 C383 1.394 . S
C384 C385 1.516 . S
C385 C384 1.516 . S
C385 C386 1.502 . S
C385 C387 1.561 . S
C385 C388 1.526 . S
C386 H370 0.959 . S
C386 H371 0.959 . S
C386 H372 0.961 . S
C386 C385 1.502 . S
C387 H373 0.960 . S
C387 H374 0.961 . S
C387 H375 0.959 . S
C387 C385 1.561 . S
C388 C385 1.526 . S
C388 C389 1.396 . S
C388 C393 1.390 . S
C389 C383 1.465 . S
C389 C388 1.396 . S
C389 C390 1.399 . S
C390 H376 0.929 . S
C390 C389 1.399 . S
C390 C391 1.385 . S
C391 H377 0.931 . S
C391 C390 1.385 . S
C391 C392 1.389 . S
C392 C391 1.389 . S
C392 C393 1.387 . S
C393 H378 0.930 . S
C393 C388 1.390 . S
C393 C392 1.387 . S
H394 C406 0.930 . S
H395 C408 0.930 . S
H396 C409 0.930 . S
H397 C413 0.959 . S
H398 C413 0.959 . S
H399 C413 0.961 . S
H400 C414 0.960 . S
H401 C414 0.961 . S
H402 C414 0.959 . S
H403 C417 0.929 . S
H404 C418 0.931 1_565 S
H405 C420 0.930 . S
C406 H394 0.930 . S
C406 C407 1.399 . S
C406 C411 1.399 . S
C407 C406 1.399 . S
C407 C408 1.376 . S
C408 H395 0.930 . S
C408 C407 1.376 . S
C408 C409 1.388 . S
C409 H396 0.930 . S
C409 C408 1.388 . S
C409 C410 1.390 . S
C410 C409 1.390 . S
C410 C411 1.394 . S
C410 C416 1.465 . S
C411 C406 1.399 . S
C411 C410 1.394 . S
C411 C412 1.516 . S
C412 C411 1.516 . S
C412 C413 1.502 . S
C412 C414 1.561 . S
C412 C415 1.526 . S
C413 H397 0.959 . S
C413 H398 0.959 . S
C413 H399 0.961 . S
C413 C412 1.502 . S
C414 H400 0.960 . S
C414 H401 0.961 . S
C414 H402 0.959 . S
C414 C412 1.561 . S
C415 C412 1.526 . S
C415 C416 1.396 . S
C415 C420 1.390 . S
C416 C410 1.465 . S
C416 C415 1.396 . S
C416 C417 1.399 . S
C417 H403 0.929 . S
C417 C416 1.399 . S
C417 C418 1.385 . S
C418 H404 0.931 1_545 S
C418 C417 1.385 . S
C418 C419 1.389 . S
C419 C418 1.389 . S
C419 C420 1.387 . S
C420 H405 0.930 . S
C420 C415 1.390 . S
C420 C419 1.387 . S
H421 C433 0.930 . S
H422 C435 0.930 . S
H423 C436 0.930 . S
H424 C440 0.959 . S
H425 C440 0.959 . S
H426 C440 0.961 . S
H427 C441 0.960 . S
H428 C441 0.961 1_655 S
H429 C441 0.959 . S
H430 C444 0.929 . S
H431 C445 0.931 . S
H432 C447 0.930 . S
C433 H421 0.930 . S
C433 C434 1.399 . S
C433 C438 1.399 . S
C434 C433 1.399 . S
C434 C435 1.376 . S
C435 H422 0.930 . S
C435 C434 1.376 . S
C435 C436 1.388 . S
C436 H423 0.930 . S
C436 C435 1.388 . S
C436 C437 1.390 . S
C437 C436 1.390 . S
C437 C438 1.394 . S
C437 C443 1.465 1_455 S
C438 C433 1.399 . S
C438 C437 1.394 . S
C438 C439 1.516 1_455 S
C439 C438 1.516 1_655 S
C439 C440 1.502 . S
C439 C441 1.561 1_655 S
C439 C442 1.526 . S
C440 H424 0.959 . S
C440 H425 0.959 . S
C440 H426 0.961 . S
C440 C439 1.502 . S
C441 H427 0.960 . S
C441 H428 0.961 1_455 S
C441 H429 0.959 . S
C441 C439 1.561 1_455 S
C442 C439 1.526 . S
C442 C443 1.396 . S
C442 C447 1.390 . S
C443 C437 1.465 1_655 S
C443 C442 1.396 . S
C443 C444 1.399 . S
C444 H430 0.929 . S
C444 C443 1.399 . S
C444 C445 1.385 . S
C445 H431 0.931 . S
C445 C444 1.385 . S
C445 C446 1.389 . S
C446 C445 1.389 . S
C446 C447 1.387 . S
C447 H432 0.930 . S
C447 C442 1.390 . S
C447 C446 1.387 . S
H448 C460 0.930 . S
H449 C462 0.930 . S
H450 C463 0.930 . S
H451 C467 0.959 . S
H452 C467 0.959 . S
H453 C467 0.961 . S
H454 C468 0.960 1_655 S
H455 C468 0.961 1_655 S
H456 C468 0.959 . S
H457 C471 0.929 . S
H458 C472 0.931 . S
H459 C474 0.930 . S
C460 H448 0.930 . S
C460 C461 1.399 1_655 S
C460 C465 1.399 . S
C461 C460 1.399 1_455 S
C461 C462 1.376 . S
C462 H449 0.930 . S
C462 C461 1.376 . S
C462 C463 1.388 . S
C463 H450 0.930 . S
C463 C462 1.388 . S
C463 C464 1.390 . S
C464 C463 1.390 . S
C464 C465 1.394 1_455 S
C464 C470 1.465 . S
C465 C460 1.399 . S
C465 C464 1.394 1_655 S
C465 C466 1.516 . S
C466 C465 1.516 . S
C466 C467 1.502 . S
C466 C468 1.561 1_655 S
C466 C469 1.526 . S
C467 H451 0.959 . S
C467 H452 0.959 . S
C467 H453 0.961 . S
C467 C466 1.502 . S
C468 H454 0.960 1_455 S
C468 H455 0.961 1_455 S
C468 H456 0.959 . S
C468 C466 1.561 1_455 S
C469 C466 1.526 . S
C469 C470 1.396 1_655 S
C469 C474 1.390 . S
C470 C464 1.465 . S
C470 C469 1.396 1_455 S
C470 C471 1.399 . S
C471 H457 0.929 . S
C471 C470 1.399 . S
C471 C472 1.385 . S
C472 H458 0.931 . S
C472 C471 1.385 . S
C472 C473 1.389 1_455 S
C473 C472 1.389 1_655 S
C473 C474 1.387 . S
C474 H459 0.930 . S
C474 C469 1.390 . S
C474 C473 1.387 . S
H475 C487 0.930 . S
H476 C489 0.930 . S
H477 C490 0.930 . S
H478 C494 0.959 . S
H479 C494 0.959 . S
H480 C494 0.961 . S
H481 C495 0.960 1_655 S
H482 C495 0.961 . S
H483 C495 0.959 1_655 S
H484 C498 0.929 . S
H485 C499 0.931 . S
H486 C501 0.930 . S
C487 H475 0.930 . S
C487 C488 1.399 . S
C487 C492 1.399 . S
C488 C487 1.399 . S
C488 C489 1.376 . S
C489 H476 0.930 . S
C489 C488 1.376 . S
C489 C490 1.388 . S
C490 H477 0.930 . S
C490 C489 1.388 . S
C490 C491 1.390 . S
C491 C490 1.390 . S
C491 C492 1.394 . S
C491 C497 1.465 1_655 S
C492 C487 1.399 . S
C492 C491 1.394 . S
C492 C493 1.516 1_655 S
C493 C492 1.516 1_455 S
C493 C494 1.502 . S
C493 C495 1.561 . S
C493 C496 1.526 . S
C494 H478 0.959 . S
C494 H479 0.959 . S
C494 H480 0.961 . S
C494 C493 1.502 . S
C495 H481 0.960 1_455 S
C495 H482 0.961 . S
C495 H483 0.959 1_455 S
C495 C493 1.561 . S
C496 C493 1.526 . S
C496 C497 1.396 . S
C496 C501 1.390 . S
C497 C491 1.465 1_455 S
C497 C496 1.396 . S
C497 C498 1.399 . S
C498 H484 0.929 . S
C498 C497 1.399 . S
C498 C499 1.385 . S
C499 H485 0.931 . S
C499 C498 1.385 . S
C499 C500 1.389 . S
C500 C499 1.389 . S
C500 C501 1.387 . S
C501 H486 0.930 . S
C501 C496 1.390 . S
C501 C500 1.387 . S
H502 C514 0.930 . S
H503 C516 0.930 . S
H504 C517 0.930 . S
H505 C521 0.959 . S
H506 C521 0.959 . S
H507 C521 0.961 . S
H508 C522 0.960 . S
H509 C522 0.961 . S
H510 C522 0.959 . S
H511 C525 0.929 . S
H512 C526 0.931 . S
H513 C528 0.930 . S
C514 H502 0.930 . S
C514 C515 1.399 . S
C514 C519 1.399 . S
C515 C514 1.399 . S
C515 C516 1.376 . S
C516 H503 0.930 . S
C516 C515 1.376 . S
C516 C517 1.388 . S
C517 H504 0.930 . S
C517 C516 1.388 . S
C517 C518 1.390 . S
C518 C517 1.390 . S
C518 C519 1.394 . S
C518 C524 1.465 . S
C519 C514 1.399 . S
C519 C518 1.394 . S
C519 C520 1.516 . S
C520 C519 1.516 . S
C520 C521 1.502 . S
C520 C522 1.561 . S
C520 C523 1.526 . S
C521 H505 0.959 . S
C521 H506 0.959 . S
C521 H507 0.961 . S
C521 C520 1.502 . S
C522 H508 0.960 . S
C522 H509 0.961 . S
C522 H510 0.959 . S
C522 C520 1.561 . S
C523 C520 1.526 . S
C523 C524 1.396 . S
C523 C528 1.390 . S
C524 C518 1.465 . S
C524 C523 1.396 . S
C524 C525 1.399 . S
C525 H511 0.929 . S
C525 C524 1.399 . S
C525 C526 1.385 . S
C526 H512 0.931 . S
C526 C525 1.385 . S
C526 C527 1.389 . S
C527 C526 1.389 . S
C527 C528 1.387 . S
C528 H513 0.930 . S
C528 C523 1.390 . S
C528 C527 1.387 . S
H529 C541 0.930 . S
H530 C543 0.930 . S
H531 C544 0.930 . S
H532 C548 0.959 . S
H533 C548 0.959 . S
H534 C548 0.961 . S
H535 C549 0.960 . S
H536 C549 0.961 . S
H537 C549 0.959 . S
H538 C552 0.929 . S
H539 C553 0.931 . S
H540 C555 0.930 . S
C541 H529 0.930 . S
C541 C542 1.399 . S
C541 C546 1.399 . S
C542 C541 1.399 . S
C542 C543 1.376 . S
C543 H530 0.930 . S
C543 C542 1.376 . S
C543 C544 1.388 . S
C544 H531 0.930 . S
C544 C543 1.388 . S
C544 C545 1.390 . S
C545 C544 1.390 . S
C545 C546 1.394 . S
C545 C551 1.465 . S
C546 C541 1.399 . S
C546 C545 1.394 . S
C546 C547 1.516 . S
C547 C546 1.516 . S
C547 C548 1.502 . S
C547 C549 1.561 . S
C547 C550 1.526 . S
C548 H532 0.959 . S
C548 H533 0.959 . S
C548 H534 0.961 . S
C548 C547 1.502 . S
C549 H535 0.960 . S
C549 H536 0.961 . S
C549 H537 0.959 . S
C549 C547 1.561 . S
C550 C547 1.526 . S
C550 C551 1.396 . S
C550 C555 1.390 . S
C551 C545 1.465 . S
C551 C550 1.396 . S
C551 C552 1.399 . S
C552 H538 0.929 . S
C552 C551 1.399 . S
C552 C553 1.385 . S
C553 H539 0.931 . S
C553 C552 1.385 . S
C553 C554 1.389 . S
C554 C553 1.389 . S
C554 C555 1.387 . S
C555 H540 0.930 . S
C555 C550 1.390 . S
C555 C554 1.387 . S
C137 C1 1.271 . S
C149 C58 1.257 . S
C164 C89 1.878 . S
C176 C32 1.834 . S
C191 C62 1.298 . S
C203 C117 1.317 . S
C218 C24 1.348 . S
C230 C93 1.423 . S
C245 C94 1.881 . S
C257 C27 1.832 . S
C272 C31 1.426 . S
C284 C86 1.347 . S
C299 C63 1.291 . S
C311 C120 1.278 . S
C326 C0 1.287 . S
C338 C55 1.288 . S
C353 C18 1.644 1_565 S
C365 C11 1.685 . S
C380 C41 1.339 . S
C392 C33 1.382 . S
C407 C80 1.650 . S
C419 C73 1.671 1_545 S
C434 C95 1.334 . S
C446 C103 1.385 . S
C461 C42 1.649 1_545 S
C473 C49 1.682 . S
C488 C72 1.375 . S
C500 C64 1.333 . S
C515 C104 1.643 . S
C527 C111 1.686 1_565 S
C542 C2 1.378 . S
C554 C10 1.331 . S
