# Generated by pormake.
# Topology wiu, (6)-cn, num edge types: 1
# Building blocks:
#     Node 0, Type 0, BuildingBlock: GEDQOX_clean_sbu_0, # of connection points: 6
#     Node 1, Type 0, BuildingBlock: GEDQOX_clean_sbu_0, # of connection points: 6
#     Node 2, Type 0, BuildingBlock: GEDQOX_clean_sbu_0, # of connection points: 6
#     Node 3, Type 0, BuildingBlock: GEDQOX_clean_sbu_0, # of connection points: 6
#     Node 4, Type 0, BuildingBlock: GEDQOX_clean_sbu_0, # of connection points: 6
#     Node 5, Type 0, BuildingBlock: GEDQOX_clean_sbu_0, # of connection points: 6
#     Node 6, Type 0, BuildingBlock: GEDQOX_clean_sbu_0, # of connection points: 6
#     Node 7, Type 0, BuildingBlock: GEDQOX_clean_sbu_0, # of connection points: 6
#     Node 8, Type 0, BuildingBlock: GEDQOX_clean_sbu_0, # of connection points: 6
#     Node 9, Type 0, BuildingBlock: GEDQOX_clean_sbu_0, # of connection points: 6
#     Node 10, Type 0, BuildingBlock: GEDQOX_clean_sbu_0, # of connection points: 6
#     Node 11, Type 0, BuildingBlock: GEDQOX_clean_sbu_0, # of connection points: 6
#     Node 12, Type 0, BuildingBlock: GEDQOX_clean_sbu_0, # of connection points: 6
#     Node 13, Type 0, BuildingBlock: GEDQOX_clean_sbu_0, # of connection points: 6
#     Node 14, Type 0, BuildingBlock: GEDQOX_clean_sbu_0, # of connection points: 6
#     Node 15, Type 0, BuildingBlock: GEDQOX_clean_sbu_0, # of connection points: 6
#     Edge 16, Type (0, 0), BuildingBlock: XUDNAN_clean_linker_2, # of connection points: 2
#     Edge 17, Type (0, 0), BuildingBlock: XUDNAN_clean_linker_2, # of connection points: 2
#     Edge 18, Type (0, 0), BuildingBlock: XUDNAN_clean_linker_2, # of connection points: 2
#     Edge 19, Type (0, 0), BuildingBlock: XUDNAN_clean_linker_2, # of connection points: 2
#     Edge 20, Type (0, 0), BuildingBlock: XUDNAN_clean_linker_2, # of connection points: 2
#     Edge 21, Type (0, 0), BuildingBlock: XUDNAN_clean_linker_2, # of connection points: 2
#     Edge 22, Type (0, 0), BuildingBlock: XUDNAN_clean_linker_2, # of connection points: 2
#     Edge 23, Type (0, 0), BuildingBlock: XUDNAN_clean_linker_2, # of connection points: 2
#     Edge 24, Type (0, 0), BuildingBlock: XUDNAN_clean_linker_2, # of connection points: 2
#     Edge 25, Type (0, 0), BuildingBlock: XUDNAN_clean_linker_2, # of connection points: 2
#     Edge 26, Type (0, 0), BuildingBlock: XUDNAN_clean_linker_2, # of connection points: 2
#     Edge 27, Type (0, 0), BuildingBlock: XUDNAN_clean_linker_2, # of connection points: 2
#     Edge 28, Type (0, 0), BuildingBlock: XUDNAN_clean_linker_2, # of connection points: 2
#     Edge 29, Type (0, 0), BuildingBlock: XUDNAN_clean_linker_2, # of connection points: 2
#     Edge 30, Type (0, 0), BuildingBlock: XUDNAN_clean_linker_2, # of connection points: 2
#     Edge 31, Type (0, 0), BuildingBlock: XUDNAN_clean_linker_2, # of connection points: 2
#     Edge 32, Type (0, 0), BuildingBlock: XUDNAN_clean_linker_2, # of connection points: 2
#     Edge 33, Type (0, 0), BuildingBlock: XUDNAN_clean_linker_2, # of connection points: 2
#     Edge 34, Type (0, 0), BuildingBlock: XUDNAN_clean_linker_2, # of connection points: 2
#     Edge 35, Type (0, 0), BuildingBlock: XUDNAN_clean_linker_2, # of connection points: 2
#     Edge 36, Type (0, 0), BuildingBlock: XUDNAN_clean_linker_2, # of connection points: 2
#     Edge 37, Type (0, 0), BuildingBlock: XUDNAN_clean_linker_2, # of connection points: 2
#     Edge 38, Type (0, 0), BuildingBlock: XUDNAN_clean_linker_2, # of connection points: 2
#     Edge 39, Type (0, 0), BuildingBlock: XUDNAN_clean_linker_2, # of connection points: 2
#     Edge 40, Type (0, 0), BuildingBlock: XUDNAN_clean_linker_2, # of connection points: 2
#     Edge 41, Type (0, 0), BuildingBlock: XUDNAN_clean_linker_2, # of connection points: 2
#     Edge 42, Type (0, 0), BuildingBlock: XUDNAN_clean_linker_2, # of connection points: 2
#     Edge 43, Type (0, 0), BuildingBlock: XUDNAN_clean_linker_2, # of connection points: 2
#     Edge 44, Type (0, 0), BuildingBlock: XUDNAN_clean_linker_2, # of connection points: 2
#     Edge 45, Type (0, 0), BuildingBlock: XUDNAN_clean_linker_2, # of connection points: 2
#     Edge 46, Type (0, 0), BuildingBlock: XUDNAN_clean_linker_2, # of connection points: 2
#     Edge 47, Type (0, 0), BuildingBlock: XUDNAN_clean_linker_2, # of connection points: 2
#     Edge 48, Type (0, 0), BuildingBlock: XUDNAN_clean_linker_2, # of connection points: 2
#     Edge 49, Type (0, 0), BuildingBlock: XUDNAN_clean_linker_2, # of connection points: 2
#     Edge 50, Type (0, 0), BuildingBlock: XUDNAN_clean_linker_2, # of connection points: 2
#     Edge 51, Type (0, 0), BuildingBlock: XUDNAN_clean_linker_2, # of connection points: 2
#     Edge 52, Type (0, 0), BuildingBlock: XUDNAN_clean_linker_2, # of connection points: 2
#     Edge 53, Type (0, 0), BuildingBlock: XUDNAN_clean_linker_2, # of connection points: 2
#     Edge 54, Type (0, 0), BuildingBlock: XUDNAN_clean_linker_2, # of connection points: 2
#     Edge 55, Type (0, 0), BuildingBlock: XUDNAN_clean_linker_2, # of connection points: 2
#     Edge 56, Type (0, 0), BuildingBlock: XUDNAN_clean_linker_2, # of connection points: 2
#     Edge 57, Type (0, 0), BuildingBlock: XUDNAN_clean_linker_2, # of connection points: 2
#     Edge 58, Type (0, 0), BuildingBlock: XUDNAN_clean_linker_2, # of connection points: 2
#     Edge 59, Type (0, 0), BuildingBlock: XUDNAN_clean_linker_2, # of connection points: 2
#     Edge 60, Type (0, 0), BuildingBlock: XUDNAN_clean_linker_2, # of connection points: 2
#     Edge 61, Type (0, 0), BuildingBlock: XUDNAN_clean_linker_2, # of connection points: 2
#     Edge 62, Type (0, 0), BuildingBlock: XUDNAN_clean_linker_2, # of connection points: 2
#     Edge 63, Type (0, 0), BuildingBlock: XUDNAN_clean_linker_2, # of connection points: 2
# Relax obj value: 0.232
# Max RMSD: 0.312
# Mean RMSD: 0.267
data_MOF--net-wiu--node1-GEDQOX_clean_sbu_0--edge1-XUDNAN_clean_linker_2
_symmetry_space_group_name_H-M    P1
_symmetry_Int_Tables_number       1
_symmetry_cell_setting            triclinic
loop_
_symmetry_equiv_pos_as_xyz
'x, y, z'
_cell_length_a     29.415046
_cell_length_b     28.149747
_cell_length_c     87.012658
_cell_angle_alpha  77.76491
_cell_angle_beta   78.99763
_cell_angle_gamma 77.658352
loop_
_atom_site_label
_atom_site_type_symbol
_atom_site_fract_x
_atom_site_fract_y
_atom_site_fract_z
_atom_type_partial_charge
Nd0 Nd 0.3643 0.0262 0.12238 0.0
Nd1 Nd 0.30384 0.08956 0.10129 0.0
C2 C 0.39527 -0.01724 0.15006 0.0
C3 C 0.38967 -0.00487 0.16657 0.0
C4 C 0.39025 0.04325 0.16876 0.0
C5 C 0.38991 0.05366 0.18399 0.0
C6 C 0.3887 0.01655 0.1978 0.0
C7 C 0.38649 0.96869 0.19565 0.0
C8 C 0.3872 0.95819 0.18034 0.0
C9 C 0.41109 0.08986 0.10038 0.0
C10 C 0.30653 0.13561 0.13052 0.0
C11 C 0.25633 0.14522 0.07886 0.0
C12 C 0.23148 0.13831 0.06667 0.0
C13 C 0.19858 0.17756 0.06025 0.0
C14 C 0.17498 0.17194 0.04846 0.0
C15 C 0.18409 0.12692 0.0429 0.0
C16 C 0.21677 0.08739 0.04954 0.0
C17 C 0.24017 0.09298 0.0614 0.0
C18 C 0.25553 0.02766 0.12502 0.0
C19 C 0.3862 0.0059 0.0848 0.0
O20 O 0.35962 0.97139 0.14547 0.0
O21 O 0.41824 0.01011 0.13846 0.0
O22 O 0.42944 0.04416 0.10526 0.0
O23 O 0.3701 0.10188 0.10776 0.0
O24 O 0.32108 0.08874 0.13652 0.0
O25 O 0.30668 0.14816 0.11512 0.0
O26 O 0.30198 0.13114 0.07671 0.0
O27 O 0.23712 0.13277 0.09356 0.0
O28 O 0.2424 0.07468 0.12097 0.0
O29 O 0.29521 0.01333 0.11684 0.0
O30 O 0.34998 0.04255 0.08333 0.0
O31 O 0.39765 -0.0129 0.09946 0.0
H32 H 0.39188 0.073 0.15859 0.0
H33 H 0.39079 0.09122 0.18488 0.0
H34 H 0.38582 0.9387 0.20575 0.0
H35 H 0.38693 0.92065 0.17923 0.0
H36 H 0.19148 0.21273 0.06425 0.0
H37 H 0.15049 0.20323 0.04341 0.0
H38 H 0.22418 0.05218 0.04556 0.0
H39 H 0.26518 0.06213 0.0664 0.0
Nd40 Nd 0.61765 0.60145 0.36624 0.0
Nd41 Nd 0.60698 0.52897 0.34951 0.0
C42 C 0.63292 0.64818 0.38761 0.0
C43 C 0.63009 0.64389 0.40489 0.0
C44 C 0.66829 0.65231 0.41074 0.0
C45 C 0.66628 0.65048 0.42699 0.0
C46 C 0.62584 0.64038 0.43771 0.0
C47 C 0.58765 0.63144 0.43187 0.0
C48 C 0.58982 0.63294 0.41557 0.0
C49 C 0.56292 0.64302 0.34283 0.0
C50 C 0.52521 0.54435 0.37933 0.0
C51 C 0.60513 0.46795 0.33037 0.0
C52 C 0.62267 0.46019 0.31401 0.0
C53 C 0.63496 0.49891 0.3019 0.0
C54 C 0.6544 0.48973 0.28661 0.0
C55 C 0.66183 0.44163 0.28325 0.0
C56 C 0.64917 0.40312 0.29548 0.0
C57 C 0.62988 0.41236 0.31072 0.0
C58 C 0.65047 0.4862 0.37594 0.0
C59 C 0.67424 0.61316 0.33017 0.0
O60 O 0.66549 0.61651 0.38077 0.0
O61 O 0.59338 0.65737 0.38188 0.0
O62 O 0.59409 0.66364 0.34634 0.0
O63 O 0.56002 0.60226 0.35204 0.0
O64 O 0.55407 0.56942 0.38296 0.0
O65 O 0.53544 0.52763 0.36577 0.0
O66 O 0.57193 0.50614 0.33251 0.0
O67 O 0.6374 0.46135 0.33939 0.0
O68 O 0.61691 0.47081 0.3719 0.0
O69 O 0.6606 0.52438 0.3661 0.0
O70 O 0.65158 0.57783 0.32943 0.0
O71 O 0.67142 0.62645 0.34406 0.0
H72 H 0.69957 0.66097 0.40268 0.0
H73 H 0.69599 0.65822 0.4311 0.0
H74 H 0.55622 0.62317 0.4399 0.0
H75 H 0.55996 0.62598 0.41133 0.0
H76 H 0.62977 0.53602 0.30431 0.0
H77 H 0.66397 0.52012 0.27747 0.0
H78 H 0.65348 0.3659 0.29323 0.0
H79 H 0.62076 0.38203 0.31999 0.0
Nd80 Nd 0.14978 0.85728 0.60196 0.0
Nd81 Nd 0.21169 0.82058 0.57435 0.0
C82 C 0.11346 0.89448 0.62801 0.0
C83 C 0.12596 0.90382 0.64258 0.0
C84 C 0.15342 0.93962 0.64187 0.0
C85 C 0.16188 0.95099 0.65578 0.0
C86 C 0.14185 0.92795 0.67072 0.0
C87 C 0.1147 0.89175 0.67143 0.0
C88 C 0.10701 0.87972 0.65748 0.0
C89 C 0.10341 0.81116 0.58683 0.0
C90 C 0.21622 0.7462 0.60817 0.0
C91 C 0.2619 0.80337 0.54659 0.0
C92 C 0.26358 0.8191 0.52912 0.0
C93 C 0.22382 0.82604 0.52161 0.0
C94 C 0.22723 0.84122 0.50503 0.0
C95 C 0.27035 0.85015 0.49561 0.0
C96 C 0.30972 0.84401 0.50327 0.0
C97 C 0.30636 0.82856 0.51979 0.0
C98 C 0.25646 0.85877 0.59309 0.0
C99 C 0.1208 0.91179 0.56746 0.0
O100 O 0.1295 0.92054 0.61451 0.0
O101 O 0.11367 0.84865 0.62702 0.0
O102 O 0.08362 0.84761 0.59412 0.0
O103 O 0.1458 0.79603 0.58902 0.0
O104 O 0.19658 0.78674 0.61414 0.0
O105 O 0.22085 0.74688 0.59261 0.0
O106 O 0.23066 0.77683 0.55467 0.0
O107 O 0.26795 0.83632 0.55417 0.0
O108 O 0.27314 0.81835 0.58755 0.0
O109 O 0.2171 0.87855 0.58855 0.0
O110 O 0.15211 0.87587 0.56181 0.0
O111 O 0.1195 0.91783 0.58221 0.0
H112 H 0.16746 0.95992 0.6306 0.0
H113 H 0.1835 0.9785 0.65477 0.0
H114 H 0.09793 0.87391 0.68271 0.0
H115 H 0.08498 0.85264 0.65835 0.0
H116 H 0.19021 0.81975 0.52852 0.0
H117 H 0.19599 0.84616 0.49958 0.0
H118 H 0.34354 0.84993 0.49645 0.0
H119 H 0.33749 0.82373 0.52531 0.0
Nd120 Nd 0.82161 0.4984 0.85058 0.0
Nd121 Nd 0.90926 0.54264 0.84808 0.0
C122 C 0.75727 0.45024 0.84707 0.0
C123 C 0.75269 0.41584 0.83708 0.0
C124 C 0.79221 0.39234 0.82783 0.0
C125 C 0.7878 0.35565 0.81981 0.0
C126 C 0.74383 0.34182 0.82098 0.0
C127 C 0.70418 0.367 0.82977 0.0
C128 C 0.70863 0.40353 0.83775 0.0
C129 C 0.80351 0.58686 0.86149 0.0
C130 C 0.87461 0.5427 0.81475 0.0
C131 C 0.97737 0.58291 0.85384 0.0
C132 C 0.0032 0.58065 0.86727 0.0
C133 C 0.02977 0.61709 0.86677 0.0
C134 C 0.05817 0.61289 0.87849 0.0
C135 C 0.06109 0.57186 0.89103 0.0
C136 C 0.03343 0.53598 0.89167 0.0
C137 C 0.00491 0.54034 0.87998 0.0
C138 C 0.92575 0.45154 0.83963 0.0
C139 C 0.86239 0.48204 0.88293 0.0
O140 O 0.78733 0.4329 0.85709 0.0
O141 O 0.75879 0.4961 0.84016 0.0
O142 O 0.78059 0.55097 0.86728 0.0
O143 O 0.83224 0.5779 0.84909 0.0
O144 O 0.84965 0.51009 0.82359 0.0
O145 O 0.89583 0.56839 0.8216 0.0
O146 O 0.9332 0.60497 0.85479 0.0
O147 O 0.9847 0.54259 0.84791 0.0
O148 O 0.94938 0.48605 0.83249 0.0
O149 O 0.89711 0.46446 0.85139 0.0
O150 O 0.88833 0.51533 0.8752 0.0
O151 O 0.83803 0.46276 0.87541 0.0
H152 H 0.82661 0.40137 0.82719 0.0
H153 H 0.81905 0.33686 0.81322 0.0
H154 H 0.66968 0.35793 0.83067 0.0
H155 H 0.67776 0.42132 0.8448 0.0
H156 H 0.02949 0.64836 0.85705 0.0
H157 H 0.07903 0.64113 0.87742 0.0
H158 H 0.03384 0.50429 0.90123 0.0
H159 H 0.98486 0.5116 0.88071 0.0
Nd160 Nd 0.68655 0.8694 0.96578 0.0
Nd161 Nd 0.62526 0.94037 0.9405 0.0
C162 C 0.72057 0.80261 0.98885 0.0
C163 C 0.74829 0.80532 1.00084 0.0
C164 C 0.77327 0.76224 1.00893 0.0
C165 C 0.79889 0.76518 1.02058 0.0
C166 C 0.79953 0.81127 1.02429 0.0
C167 C 0.77523 0.85438 1.01587 0.0
C168 C 0.74998 0.85144 1.00419 0.0
C169 C 0.73655 0.94325 0.94833 0.0
C170 C 0.59645 0.95431 0.97914 0.0
C171 C 0.5966 -0.01596 0.91266 0.0
C172 C 0.60578 0.97265 0.89602 0.0
C173 C 0.59692 0.01011 0.88279 0.0
C174 C 0.59912 -0.00136 0.86755 0.0
C175 C 0.60986 0.9492 0.86504 0.0
C176 C 0.62041 0.91203 0.87824 0.0
C177 C 0.6183 0.92349 0.8934 0.0
C178 C 0.5825 0.87063 0.961 0.0
C179 C 0.69844 0.83809 0.93116 0.0
O180 O 0.67741 0.82766 0.99035 0.0
O181 O 0.74227 0.8081 0.97415 0.0
O182 O 0.75044 0.91048 0.96016 0.0
O183 O 0.69543 0.93831 0.94739 0.0
O184 O 0.62919 0.91456 0.98231 0.0
O185 O 0.59221 0.97604 0.96387 0.0
O186 O 0.62961 -0.00218 0.91809 0.0
O187 O 0.57475 0.9535 0.92352 0.0
O188 O 0.56019 0.91384 0.95528 0.0
O189 O 0.62536 0.86374 0.95472 0.0
O190 O 0.67552 0.88315 0.92648 0.0
O191 O 0.70188 0.82081 0.94634 0.0
H192 H 0.77249 0.72642 1.00637 0.0
H193 H 0.817 0.73137 1.027 0.0
H194 H 0.77555 0.89038 1.01839 0.0
H195 H 0.7313 0.88515 0.99789 0.0
H196 H 0.5867 0.04831 0.88434 0.0
H197 H 0.5905 0.02852 0.85786 0.0
H198 H 0.6298 0.87358 0.87694 0.0
H199 H 0.62506 0.89345 0.90321 0.0
Nd200 Nd 0.37352 0.43258 0.72213 0.0
Nd201 Nd 0.37114 0.3701 0.70211 0.0
C202 C 0.36402 0.48754 0.74415 0.0
C203 C 0.3554 0.48618 0.76137 0.0
C204 C 0.33291 0.45018 0.77196 0.0
C205 C 0.32346 0.45146 0.78828 0.0
C206 C 0.33665 0.48858 0.79416 0.0
C207 C 0.35918 0.52438 0.78342 0.0
C208 C 0.36848 0.52311 0.7672 0.0
C209 C 0.33248 0.48328 0.69544 0.0
C210 C 0.30795 0.34691 0.73633 0.0
C211 C 0.36452 0.33265 0.67728 0.0
C212 C 0.3298 0.33365 0.66698 0.0
C213 C 0.31097 0.37792 0.65759 0.0
C214 C 0.28129 0.37761 0.64691 0.0
C215 C 0.2705 0.33293 0.64516 0.0
C216 C 0.28799 0.28888 0.65497 0.0
C217 C 0.31738 0.28929 0.66578 0.0
C218 C 0.42318 0.31897 0.72554 0.0
C219 C 0.46436 0.42622 0.69475 0.0
O220 O 0.40469 0.46439 0.7381 0.0
O221 O 0.32903 0.48245 0.73776 0.0
O222 O 0.36527 0.49619 0.70073 0.0
O223 O 0.32268 0.44294 0.70386 0.0
O224 O 0.33553 0.37264 0.74012 0.0
O225 O 0.30751 0.34919 0.72099 0.0
O226 O 0.3572 0.30943 0.69191 0.0
O227 O 0.3803 0.37337 0.67613 0.0
O228 O 0.39447 0.30111 0.71977 0.0
O229 O 0.42553 0.36254 0.71844 0.0
O230 O 0.43919 0.40209 0.68901 0.0
O231 O 0.44856 0.439 0.70883 0.0
H232 H 0.3225 0.4214 0.76761 0.0
H233 H 0.3064 0.42319 0.79629 0.0
H234 H 0.36909 0.55389 0.78755 0.0
H235 H 0.3855 0.55139 0.75915 0.0
H236 H 0.32026 0.41265 0.6581 0.0
H237 H 0.26798 0.41224 0.63964 0.0
H238 H 0.28092 0.25375 0.65375 0.0
H239 H 0.33173 0.25465 0.67283 0.0
Nd240 Nd 0.77407 0.1429 0.49207 0.0
Nd241 Nd 0.84135 0.10206 0.46628 0.0
C242 C 0.7246 0.16586 0.51925 0.0
C243 C 0.72118 0.14175 0.53617 0.0
C244 C 0.73462 0.09032 0.54034 0.0
C245 C 0.72701 0.06686 0.55624 0.0
C246 C 0.70589 0.0943 0.56834 0.0
C247 C 0.69426 0.14607 0.56419 0.0
C248 C 0.70169 0.16955 0.54823 0.0
C249 C 0.73316 0.10365 0.47264 0.0
C250 C 0.86017 0.04728 0.5019 0.0
C251 C 0.88021 0.06807 0.43991 0.0
C252 C 0.87019 0.07379 0.42361 0.0
C253 C 0.83013 0.05981 0.42056 0.0
C254 C 0.82173 0.06562 0.40494 0.0
C255 C 0.85307 0.0858 0.39217 0.0
C256 C 0.89288 0.10004 0.39527 0.0
C257 C 0.90144 0.09389 0.41084 0.0
C258 C 0.88292 0.14748 0.48298 0.0
C259 C 0.77902 0.21612 0.45838 0.0
O260 O 0.76361 0.18187 0.51266 0.0
O261 O 0.70964 0.14364 0.50997 0.0
O262 O 0.71584 0.14492 0.47765 0.0
O263 O 0.77111 0.08326 0.47816 0.0
O264 O 0.82416 0.08123 0.50631 0.0
O265 O 0.87158 0.04284 0.48672 0.0
O266 O 0.85344 0.04426 0.45148 0.0
O267 O 0.89032 0.10695 0.44358 0.0
O268 O 0.90387 0.109 0.47678 0.0
O269 O 0.84251 0.16423 0.479 0.0
O270 O 0.80015 0.17517 0.45278 0.0
O271 O 0.7705 0.21572 0.47391 0.0
H272 H 0.74988 0.06806 0.53126 0.0
H273 H 0.73705 0.02704 0.55904 0.0
H274 H 0.67773 0.16824 0.57321 0.0
H275 H 0.69102 0.20926 0.54526 0.0
H276 H 0.80542 0.04423 0.43017 0.0
H277 H 0.79073 0.05446 0.40284 0.0
H278 H 0.91804 0.11489 0.38562 0.0
H279 H 0.93268 0.10466 0.41291 0.0
Nd280 Nd 0.10941 0.41521 0.21768 0.0
Nd281 Nd 0.20286 0.44316 0.22249 0.0
C282 C 0.04207 0.37435 0.21181 0.0
C283 C 0.01279 0.37692 0.19911 0.0
C284 C 0.02692 0.34395 0.18827 0.0
C285 C -0.00229 0.34192 0.1775 0.0
C286 C 0.95305 0.37258 0.17716 0.0
C287 C 0.93952 0.40708 0.18753 0.0
C288 C 0.96884 0.40901 0.19842 0.0
C289 C 0.10368 0.51125 0.22069 0.0
C290 C 0.16766 0.48198 0.18817 0.0
C291 C 0.26419 0.4851 0.23075 0.0
C292 C 0.25673 0.52079 0.24149 0.0
C293 C 0.21132 0.53525 0.24953 0.0
C294 C 0.20153 0.57538 0.25744 0.0
C295 C 0.23698 0.60188 0.25746 0.0
C296 C 0.283 0.58578 0.25004 0.0
C297 C 0.29273 0.54565 0.24203 0.0
C298 C 0.21753 0.36195 0.20777 0.0
C299 C 0.13207 0.40416 0.25501 0.0
O300 O 0.08714 0.35589 0.20912 0.0
O301 O 0.0335 0.41091 0.2197 0.0
O302 O 0.07874 0.49833 0.21196 0.0
O303 O 0.12671 0.47393 0.22823 0.0
O304 O 0.14142 0.44705 0.19196 0.0
O305 O 0.18764 0.49329 0.19895 0.0
O306 O 0.24452 0.50251 0.21792 0.0
O307 O 0.25754 0.44011 0.2373 0.0
O308 O 0.24706 0.39164 0.20584 0.0
O309 O 0.18377 0.37271 0.21867 0.0
O310 O 0.17144 0.42053 0.24851 0.0
O311 O 0.10332 0.39586 0.24596 0.0
H312 H 0.06021 0.31848 0.18839 0.0
H313 H 0.00977 0.31522 0.16961 0.0
H314 H 0.90536 0.43102 0.18773 0.0
H315 H 0.9564 0.43471 0.20662 0.0
H316 H 0.1829 0.51689 0.24907 0.0
H317 H 0.16589 0.58644 0.26321 0.0
H318 H 0.31095 0.60569 0.24973 0.0
H319 H 0.32779 0.53541 0.2357 0.0
Nd320 Nd 0.86616 0.51243 0.62671 0.0
Nd321 Nd 0.80057 0.58569 0.60318 0.0
C322 C 0.89749 0.46897 0.65417 0.0
C323 C 0.88907 0.48041 0.67084 0.0
C324 C 0.89693 0.44285 0.68414 0.0
C325 C 0.895 0.45423 0.69941 0.0
C326 C 0.88552 0.50368 0.70189 0.0
C327 C 0.87598 0.54099 0.68861 0.0
C328 C 0.87789 0.52963 0.67344 0.0
C329 C 0.90644 0.58381 0.60608 0.0
C330 C 0.79441 0.61411 0.6376 0.0
C331 C 0.76578 0.65375 0.58049 0.0
C332 C 0.73994 0.6527 0.56776 0.0
C333 C 0.71334 0.69623 0.56053 0.0
C334 C 0.69001 0.69541 0.54803 0.0
C335 C 0.6933 0.65103 0.54256 0.0
C336 C 0.71926 0.60732 0.5501 0.0
C337 C 0.74222 0.60811 0.56264 0.0
C338 C 0.75114 0.51258 0.62151 0.0
C339 C 0.88768 0.50072 0.58792 0.0
O340 O 0.86438 0.45438 0.64904 0.0
O341 O 0.91834 0.49986 0.64312 0.0
O342 O 0.9295 0.54014 0.61098 0.0
O343 O 0.86432 0.59006 0.61312 0.0
O344 O 0.81769 0.56872 0.64163 0.0
O345 O 0.78891 0.63279 0.62268 0.0
O346 O 0.80956 0.63039 0.57906 0.0
O347 O 0.74315 0.6454 0.59501 0.0
O348 O 0.73585 0.54584 0.61 0.0
O349 O 0.79329 0.5164 0.62157 0.0
O350 O 0.85382 0.54015 0.58601 0.0
O351 O 0.89603 0.47777 0.60274 0.0
H352 H 0.90608 0.40457 0.68265 0.0
H353 H 0.9028 0.42419 0.70914 0.0
H354 H 0.8675 0.57949 0.68985 0.0
H355 H 0.87191 0.5598 0.6636 0.0
H356 H 0.71114 0.7309 0.5644 0.0
H357 H 0.67057 0.7297 0.54234 0.0
H358 H 0.72193 0.57252 0.54625 0.0
H359 H 0.76227 0.574 0.56822 0.0
Nd360 Nd 0.11551 0.09381 0.86619 0.0
Nd361 Nd 0.10986 0.02294 0.84989 0.0
C362 C 0.12383 0.14157 0.88831 0.0
C363 C 0.1185 0.1343 0.90572 0.0
C364 C 0.13494 0.08841 0.91481 0.0
C365 C 0.13075 0.08308 0.93133 0.0
C366 C 0.10956 0.12334 0.93898 0.0
C367 C 0.09205 0.16876 0.92987 0.0
C368 C 0.09663 0.17419 0.91337 0.0
C369 C 0.06444 0.13775 0.84193 0.0
C370 C 0.02202 0.03856 0.87694 0.0
C371 C 0.11685 0.96072 0.83033 0.0
C372 C 0.12197 0.9643 0.81306 0.0
C373 C 0.09875 0.00567 0.8036 0.0
C374 C 0.10522 0.00912 0.78712 0.0
C375 C 0.13554 0.97161 0.77981 0.0
C376 C 0.1592 0.93061 0.78938 0.0
C377 C 0.1523 0.92694 0.80587 0.0
C378 C 0.14945 -0.01933 0.87744 0.0
C379 C 0.1727 0.10922 0.83016 0.0
O380 O 0.15921 0.1134 0.88114 0.0
O381 O 0.08518 0.14779 0.88229 0.0
O382 O 0.09441 0.15745 0.84646 0.0
O383 O 0.06047 0.0963 0.85058 0.0
O384 O 0.05136 0.05923 0.88219 0.0
O385 O 0.03415 0.02599 0.86279 0.0
O386 O 0.07662 -0.01807 0.83736 0.0
O387 O 0.15298 0.96838 0.83552 0.0
O388 O 0.11476 0.96733 0.87341 0.0
O389 O 0.16125 0.01749 0.86733 0.0
O390 O 0.14912 0.075 0.82927 0.0
O391 O 0.17086 0.12026 0.84436 0.0
H392 H 0.1514 0.0569 0.90915 0.0
H393 H 0.14422 0.04759 0.93811 0.0
H394 H 0.0761 0.20054 0.93545 0.0
H395 H 0.0836 0.20978 0.90653 0.0
H396 H 0.07565 0.03531 0.80892 0.0
H397 H 0.08595 0.04087 0.78015 0.0
H398 H 0.18346 0.90152 0.78413 0.0
H399 H 0.17102 0.89514 0.813 0.0
Nd400 Nd 0.65514 0.35837 0.10591 0.0
Nd401 Nd 0.71509 0.32545 0.07648 0.0
C402 C 0.62443 0.39031 0.13307 0.0
C403 C 0.64156 0.39005 0.14778 0.0
C404 C 0.68843 0.37009 0.14983 0.0
C405 C 0.7044 0.37238 0.16376 0.0
C406 C 0.67363 0.39484 0.17576 0.0
C407 C 0.6264 0.41353 0.17369 0.0
C408 C 0.61063 0.41133 0.1598 0.0
C409 C 0.6094 0.31233 0.09055 0.0
C410 C 0.72071 0.24649 0.10967 0.0
C411 C 0.75939 0.30726 0.04815 0.0
C412 C 0.75924 0.32775 1.03103 0.0
C413 C 0.78201 0.29836 1.01965 0.0
C414 C 0.79024 0.31952 1.00348 0.0
C415 C 0.7763 0.37064 0.99843 0.0
C416 C 0.75112 0.39943 1.00978 0.0
C417 C 0.74252 0.37819 1.02589 0.0
C418 C 0.76414 0.35699 0.09576 0.0
C419 C 0.62221 0.41705 0.07208 0.0
O420 O 0.64366 0.41701 0.12025 0.0
O421 O 0.61853 0.34771 0.13076 0.0
O422 O 0.58823 0.34691 0.09857 0.0
O423 O 0.65221 0.29958 0.09222 0.0
O424 O 0.70073 0.28518 0.11656 0.0
O425 O 0.72518 0.25008 0.09395 0.0
O426 O 0.72461 0.28551 0.05607 0.0
O427 O 0.7721 0.33498 0.05626 0.0
O428 O 0.78005 0.32134 0.08782 0.0
O429 O 0.72339 0.37785 0.09239 0.0
O430 O 0.65533 0.38451 0.06541 0.0
O431 O 0.62 0.41961 0.08726 0.0
H432 H 0.71261 0.35321 0.14063 0.0
H433 H 0.74091 0.35748 0.165 0.0
H434 H 0.60133 0.42962 0.18287 0.0
H435 H 0.57424 0.4265 0.15841 0.0
H436 H 0.79548 0.25946 1.02335 0.0
H437 H 0.80987 0.29638 0.99508 0.0
H438 H 0.73932 0.43877 1.00624 0.0
H439 H 0.7248 0.40165 1.03444 0.0
Nd440 Nd 0.29673 0.01674 0.34554 0.0
Nd441 Nd 0.39282 0.03506 0.34839 0.0
C442 C 0.22457 -0.00965 0.3376 0.0
C443 C 0.22067 0.95673 0.3273 0.0
C444 C 0.26107 0.93364 0.31836 0.0
C445 C 0.25754 0.89969 0.30921 0.0
C446 C 0.21355 0.88796 0.30892 0.0
C447 C 0.17317 0.9116 0.31785 0.0
C448 C 0.17675 0.94569 0.32694 0.0
C449 C 0.29129 0.09911 0.35875 0.0
C450 C 0.36743 0.04791 0.31219 0.0
C451 C 0.4666 0.05812 0.35716 0.0
C452 C 0.48905 0.05929 0.37116 0.0
C453 C 0.50576 0.10174 0.37208 0.0
C454 C 0.53319 0.10107 0.38379 0.0
C455 C 0.5452 0.05769 0.39486 0.0
C456 C 0.52688 0.01581 0.39428 0.0
C457 C 0.49923 0.01659 0.38266 0.0
C458 C 0.39604 0.95096 0.33693 0.0
C459 C 0.33005 0.9736 0.37936 0.0
O460 O 0.24297 0.96901 0.35043 0.0
O461 O 0.24079 0.03053 0.33044 0.0
O462 O 0.25927 0.0719 0.36196 0.0
O463 O 0.32264 0.08611 0.34745 0.0
O464 O 0.3325 0.02506 0.31948 0.0
O465 O 0.39313 0.0634 0.32067 0.0
O466 O 0.42927 0.09096 0.35381 0.0
O467 O 0.46509 0.01474 0.35436 0.0
O468 O 0.42745 -0.02084 0.33209 0.0
O469 O 0.36609 0.9656 0.34819 0.0
O470 O 0.36177 0.00305 0.37466 0.0
O471 O 0.30536 0.96634 0.36922 0.0
H472 H 0.2954 0.94143 0.31862 0.0
H473 H 0.28925 0.88268 0.30235 0.0
H474 H 0.13887 0.90291 0.31812 0.0
H475 H 0.14531 0.96285 0.3339 0.0
H476 H 0.49903 0.13509 0.36335 0.0
H477 H 0.54666 0.13404 0.38374 0.0
H478 H 0.53443 -0.01806 0.40272 0.0
H479 H 0.48701 -0.01687 0.38243 0.0
Nd480 Nd 0.18862 0.37329 0.4669 0.0
Nd481 Nd 0.12796 0.43195 0.44418 0.0
C482 C 0.23347 0.32452 0.49065 0.0
C483 C 0.22547 0.31742 0.50804 0.0
C484 C 0.17999 0.3187 0.51681 0.0
C485 C 0.17309 0.31662 0.53328 0.0
C486 C 0.21141 0.31449 0.54103 0.0
C487 C 0.25697 0.31137 0.53223 0.0
C488 C 0.26389 0.3128 0.51588 0.0
C489 C 0.23577 0.43476 0.4428 0.0
C490 C 0.09639 0.45121 0.48181 0.0
C491 C 0.09949 0.47519 0.41616 0.0
C492 C 0.10334 0.46137 0.39999 0.0
C493 C 0.09386 0.41574 0.39838 0.0
C494 C 0.09371 0.40474 0.38329 0.0
C495 C 0.10333 0.43873 0.3691 0.0
C496 C 0.11422 0.48381 0.37072 0.0
C497 C 0.11401 0.49496 0.38587 0.0
C498 C 0.08359 0.36578 0.46567 0.0
C499 C 0.19834 0.32664 0.43578 0.0
O500 O 0.20759 0.30465 0.48401 0.0
O501 O 0.23866 0.36911 0.48333 0.0
O502 O 0.25102 0.38861 0.4478 0.0
O503 O 0.19475 0.44845 0.45032 0.0
O504 O 0.13052 0.41301 0.48466 0.0
O505 O 0.09124 0.47111 0.46656 0.0
O506 O 0.13719 0.48291 0.42048 0.0
O507 O 0.07377 0.45187 0.42807 0.0
O508 O 0.0625 0.40943 0.45977 0.0
O509 O 0.1262 0.35635 0.45923 0.0
O510 O 0.17018 0.36821 0.43082 0.0
O511 O 0.20824 0.31656 0.45038 0.0
H512 H 0.14981 0.32249 0.5109 0.0
H513 H 0.13775 0.31848 0.53983 0.0
H514 H 0.28727 0.30862 0.53797 0.0
H515 H 0.29918 0.31167 0.50927 0.0
H516 H 0.08584 0.38853 0.40886 0.0
H517 H 0.08603 0.36922 0.38278 0.0
H518 H 0.12152 0.51137 0.36028 0.0
H519 H 0.12135 0.5305 0.38655 0.0
Nd520 Nd 0.884 0.92696 0.21959 0.0
Nd521 Nd 0.87435 0.86095 0.19996 0.0
C522 C 0.88845 -0.01711 0.23987 0.0
C523 C 0.88381 -0.0091 0.25624 0.0
C524 C 0.91613 0.01551 0.25975 0.0
C525 C 0.90893 0.03132 0.27428 0.0
C526 C 0.86916 0.0228 0.28557 0.0
C527 C 0.83805 -0.00427 0.2824 0.0
C528 C 0.84522 -0.01999 0.26777 0.0
C529 C 0.8421 0.97646 0.1932 0.0
C530 C 0.81462 0.84339 0.23555 0.0
C531 C 0.86008 0.8186 0.17737 0.0
C532 C 0.86424 0.82505 0.16 0.0
C533 C 0.82591 0.81988 0.15351 0.0
C534 C 0.82914 0.82328 0.13715 0.0
C535 C 0.87094 0.83175 0.12696 0.0
C536 C 0.90924 0.8376 0.13343 0.0
C537 C 0.90586 0.83454 0.14986 0.0
C538 C 0.92576 0.81283 0.22373 0.0
C539 C 0.96583 0.91817 0.18894 0.0
O540 O 0.92482 0.95192 0.23446 0.0
O541 O 0.85 -0.01669 0.23434 0.0
O542 O 0.87344 -0.00875 0.19863 0.0
O543 O 0.83214 0.93668 0.20191 0.0
O544 O 0.84065 0.87252 0.2386 0.0
O545 O 0.81591 0.83949 0.22058 0.0
O546 O 0.82755 0.84998 0.18434 0.0
O547 O 0.89898 0.80733 0.18356 0.0
O548 O 0.89477 0.79484 0.21906 0.0
O549 O 0.93006 0.85473 0.21553 0.0
O550 O 0.93652 0.89632 0.18422 0.0
O551 O 0.95596 0.93032 0.20324 0.0
H552 H 0.94607 0.02425 0.25098 0.0
H553 H 0.93397 0.05121 0.27656 0.0
H554 H 0.80717 -0.01136 0.29094 0.0
H555 H 0.81981 0.96104 0.26526 0.0
H556 H 0.79361 0.81237 0.16115 0.0
H557 H 0.79931 0.81783 0.13253 0.0
H558 H 0.94174 0.84445 0.12581 0.0
H559 H 0.93586 0.83898 0.15461 0.0
Nd560 Nd 0.27337 0.64 0.99463 0.0
Nd561 Nd 0.34304 0.59605 0.96982 0.0
C562 C 0.21966 0.66061 1.02144 0.0
C563 C 0.21914 0.64566 0.0389 0.0
C564 C 0.25938 0.64095 0.04598 0.0
C565 C 0.25782 0.62542 0.06248 0.0
C566 C 0.2161 0.61389 0.07229 0.0
C567 C 0.17614 0.61805 0.06509 0.0
C568 C 0.17766 0.63386 0.04863 0.0
C569 C 0.2353 0.59968 0.97478 0.0
C570 C 0.36221 0.54963 1.00604 0.0
C571 C 0.38062 0.55228 0.94522 0.0
C572 C 0.36667 0.546 0.93062 0.0
C573 C 0.32209 0.5683 0.92653 0.0
C574 C 0.30912 0.56066 0.91271 0.0
C575 C 0.34081 0.53095 0.90279 0.0
C576 C 0.38513 0.50831 0.90714 0.0
C577 C 0.3979 0.51581 0.92093 0.0
C578 C 0.38407 0.64517 0.98552 0.0
C579 C 0.27973 0.70959 0.9599 0.0
O580 O 0.25025 0.6877 1.01316 0.0
O581 O 0.21471 0.62637 1.01416 0.0
O582 O 0.21729 0.64125 0.97947 0.0
O583 O 0.272 0.5794 0.98103 0.0
O584 O 0.32639 0.58482 1.00968 0.0
O585 O 0.3733 0.54149 0.99122 0.0
O586 O 0.35873 0.53018 0.95845 0.0
O587 O 0.38585 0.59678 0.94591 0.0
O588 O 0.40566 0.60671 0.97935 0.0
O589 O 0.34304 0.66051 0.98183 0.0
O590 O 0.30667 0.66942 0.95509 0.0
O591 O 0.26492 0.71047 0.97526 0.0
H592 H 0.29208 0.64903 0.03876 0.0
H593 H 0.28946 0.62207 0.06757 0.0
H594 H 0.14333 0.61005 0.07223 0.0
H595 H 0.14622 0.63686 0.04345 0.0
H596 H 0.29753 0.59163 0.93399 0.0
H597 H 0.27483 0.5787 0.90963 0.0
H598 H 0.40995 0.48451 0.89989 0.0
H599 H 0.43219 0.49791 0.92406 0.0
Nd600 Nd 0.59193 0.91016 0.71852 0.0
Nd601 Nd 0.68073 0.95363 0.71703 0.0
C602 C 0.52681 0.86784 0.71179 0.0
C603 C 0.49692 0.87377 0.69909 0.0
C604 C 0.44762 0.88511 0.70289 0.0
C605 C 0.41841 0.89041 0.69137 0.0
C606 C 0.43743 0.88429 0.67562 0.0
C607 C 0.4869 0.87243 0.67183 0.0
C608 C 0.51624 0.86737 0.68337 0.0
C609 C 0.57534 0.00425 0.72472 0.0
C610 C 0.64374 0.96797 0.68383 0.0
C611 C 0.74259 0.00133 0.72262 0.0
C612 C 0.74071 0.03304 0.7343 0.0
C613 C 0.69803 0.04774 0.74389 0.0
C614 C 0.69578 0.07821 0.75487 0.0
C615 C 0.73627 0.09453 0.75658 0.0
C616 C 0.77899 0.07995 0.74686 0.0
C617 C 0.78116 0.04941 0.73582 0.0
C618 C 0.6985 0.86321 0.70763 0.0
C619 C 0.62218 0.91187 0.75217 0.0
O620 O 0.57215 0.85165 0.70864 0.0
O621 O 0.51719 0.90218 0.72054 0.0
O622 O 0.54853 0.97231 0.73157 0.0
O623 O 0.6065 -0.01251 0.71421 0.0
O624 O 0.61491 0.93743 0.69154 0.0
O625 O 0.66965 -0.01444 0.69135 0.0
O626 O 0.71473 0.01943 0.71191 0.0
O627 O 0.74208 0.95448 0.72838 0.0
O628 O 0.72323 0.89767 0.70175 0.0
O629 O 0.66821 0.87473 0.7194 0.0
O630 O 0.64697 0.94485 0.74351 0.0
O631 O 0.60286 0.88504 0.74515 0.0
H632 H 0.43146 0.88975 0.71488 0.0
H633 H 0.38065 0.89866 0.69493 0.0
H634 H 0.50308 0.86779 0.65984 0.0
H635 H 0.55403 0.85853 0.67996 0.0
H636 H 0.66632 0.03579 0.74284 0.0
H637 H 0.66211 0.08937 0.76192 0.0
H638 H 0.81091 0.09144 0.74796 0.0
H639 H 0.81442 0.0385 0.72851 0.0
H640 H 0.3942 0.18975 0.09827 0.0
H641 H 0.49294 0.06796 0.08083 0.0
H642 H 0.55035 0.12283 0.06932 0.0
H643 H 0.43903 0.29459 0.06479 0.0
H644 H 0.42974 0.33418 0.07931 0.0
H645 H 0.39054 0.29145 0.08093 0.0
H646 H 0.40679 0.25444 0.10966 0.0
H647 H 0.44619 0.29625 0.10812 0.0
H648 H 0.46666 0.2306 0.11314 0.0
H649 H 0.60359 0.17995 0.06746 0.0
H650 H 0.64704 0.23647 0.07433 0.0
H651 H 0.51498 0.32352 0.09231 0.0
C652 C 0.42703 0.17556 0.09131 0.0
C653 C 0.43955 0.12501 0.09043 0.0
C654 C 0.48304 0.10681 0.08164 0.0
C655 C 0.51566 0.13781 0.07494 0.0
C656 C 0.50388 0.18695 0.07699 0.0
C657 C 0.46012 0.20614 0.08467 0.0
C658 C 0.45934 0.25704 0.08793 0.0
C659 C 0.4278 0.29666 0.07762 0.0
C660 C 0.4439 0.25964 0.10576 0.0
C661 C 0.51066 0.26087 0.08257 0.0
C662 C 0.5354 0.22098 0.07572 0.0
C663 C 0.58446 0.2123 0.07224 0.0
C664 C 0.6089 0.24428 0.07629 0.0
C665 C 0.58412 0.28404 0.08382 0.0
C666 C 0.53453 0.29363 0.08634 0.0
H667 H 0.47681 0.67278 0.35844 0.0
H668 H 0.5633 0.68864 0.31225 0.0
H669 H 0.50767 0.76327 0.30286 0.0
H670 H 0.35532 0.74287 0.3441 0.0
H671 H 0.34059 0.77055 0.36171 0.0
H672 H 0.37304 0.70816 0.36259 0.0
H673 H 0.43802 0.73246 0.37405 0.0
H674 H 0.40652 0.79457 0.37299 0.0
H675 H 0.4664 0.78289 0.36303 0.0
H676 H 0.46241 0.84604 0.30133 0.0
H677 H 0.43305 0.92919 0.30786 0.0
H678 H 0.37491 0.86511 0.35535 0.0
C679 C 0.48178 0.69032 0.34605 0.0
C680 C 0.52304 0.67465 0.33583 0.0
C681 C 0.53089 0.69959 0.31999 0.0
C682 C 0.49938 0.74197 0.3146 0.0
C683 C 0.46057 0.75912 0.32529 0.0
C684 C 0.45118 0.73361 0.3407 0.0
C685 C 0.41461 0.76527 0.35092 0.0
C686 C 0.36813 0.74554 0.35507 0.0
C687 C 0.43253 0.76903 0.36611 0.0
C688 C 0.40938 0.81419 0.3395 0.0
C689 C 0.43434 0.80916 0.32454 0.0
C690 C 0.44148 0.85018 0.31279 0.0
C691 C 0.42502 0.89729 0.31662 0.0
C692 C 0.40176 0.90297 0.33205 0.0
C693 C 0.3916 0.86125 0.34335 0.0
H694 H 0.12093 0.71353 0.58439 0.0
H695 H 0.02137 0.85027 0.57588 0.0
H696 H 0.96249 0.80437 0.57271 0.0
H697 H 0.0702 0.64285 0.55847 0.0
H698 H 0.08145 0.58678 0.57275 0.0
H699 H 0.12105 0.63042 0.56841 0.0
H700 H 0.11024 0.63387 0.59841 0.0
H701 H 0.07039 0.59116 0.60284 0.0
H702 H 0.05175 0.65054 0.60894 0.0
H703 H 0.9084 0.74575 0.57981 0.0
H704 H 0.86613 0.67785 0.5936 0.0
H705 H -0.00031 0.57753 0.59609 0.0
C706 C 0.08763 0.73366 0.58096 0.0
C707 C 0.07525 0.78498 0.58047 0.0
C708 C 0.03115 0.81066 0.57638 0.0
C709 C -0.0024 0.78494 0.57444 0.0
C710 C 0.0091 0.73368 0.57634 0.0
C711 C 0.05363 0.70823 0.57902 0.0
C712 C 0.05441 0.65312 0.58337 0.0
C713 C 0.0835 0.62675 0.56994 0.0
C714 C 0.07271 0.63097 0.59933 0.0
C715 C 0.00255 0.65234 0.58459 0.0
C716 C 0.97714 0.69892 0.58001 0.0
C717 C 0.92793 0.7087 0.58279 0.0
C718 C 0.90416 0.67017 0.59074 0.0
C719 C 0.92981 0.62275 0.59577 0.0
C720 C 0.97933 0.61342 0.59209 0.0
H721 H 0.9778 0.1695 0.85659 0.0
H722 H 0.06938 0.18424 0.81141 0.0
H723 H 0.02076 0.2644 0.80244 0.0
H724 H 0.86251 0.25908 0.84082 0.0
H725 H 0.84937 0.28223 0.85926 0.0
H726 H 0.87388 0.21778 0.85912 0.0
H727 H 0.94099 0.22602 0.8732 0.0
H728 H 0.91781 0.29017 0.87303 0.0
H729 H 0.97774 0.2713 0.86402 0.0
H730 H 0.98579 0.35003 0.80227 0.0
H731 H 0.9657 0.43144 0.81041 0.0
H732 H 0.89698 0.36686 0.85629 0.0
C733 C 0.98491 0.18819 0.84438 0.0
C734 C 0.02608 0.17069 0.83445 0.0
C735 C 0.03695 0.19671 0.81891 0.0
C736 C 0.00946 0.24237 0.81377 0.0
C737 C 0.97155 0.26152 0.8244 0.0
C738 C 0.95836 0.23466 0.83933 0.0
C739 C 0.92453 0.26756 0.84988 0.0
C740 C 0.87462 0.25596 0.85241 0.0
C741 C 0.94137 0.26353 0.86594 0.0
C742 C 0.92666 0.31773 0.83949 0.0
C743 C 0.95171 0.31321 0.82453 0.0
C744 C 0.96484 0.35403 0.81373 0.0
C745 C 0.95385 0.40006 0.81853 0.0
C746 C 0.93026 0.40485 0.83401 0.0
C747 C 0.91461 0.36381 0.84433 0.0
H748 H 0.48908 0.87914 0.97025 0.0
H749 H 0.62118 0.77893 0.97603 0.0
H750 H 0.57731 0.71414 0.99163 0.0
H751 H 0.41458 0.82413 1.0089 0.0
H752 H 0.36516 0.83359 0.99844 0.0
H753 H 0.40551 0.8766 0.99313 0.0
H754 H 0.41945 0.8634 0.96387 0.0
H755 H 0.37942 0.8208 0.96908 0.0
H756 H 0.43877 0.8016 0.95964 0.0
H757 H 0.52199 0.65671 1.00056 0.0
H758 H 0.46327 0.60895 0.99852 0.0
H759 H 0.36635 0.74451 0.98534 0.0
C760 C 0.50875 0.84409 0.97533 0.0
C761 C 0.5583 0.83373 0.97209 0.0
C762 C 0.5831 0.78738 0.97853 0.0
C763 C 0.55842 0.75071 0.98753 0.0
C764 C 0.50918 0.7613 0.98992 0.0
C765 C 0.48461 0.80704 0.98396 0.0
C766 C 0.43286 0.80622 0.98488 0.0
C767 C 0.40275 0.83695 0.99707 0.0
C768 C 0.41677 0.82398 0.9684 0.0
C769 C 0.4329 0.75173 0.99077 0.0
C770 C 0.47669 0.72703 0.99447 0.0
C771 C 0.4874 0.67571 0.99806 0.0
C772 C 0.45391 0.6489 0.99678 0.0
C773 C 0.41076 0.6735 0.99164 0.0
C774 C 0.39889 0.72528 0.98956 0.0
H775 H 0.50741 0.04597 0.74615 0.0
H776 H 0.62986 0.07416 0.71157 0.0
H777 H 0.61554 0.15987 0.71615 0.0
H778 H 0.4364 0.14509 0.73277 0.0
H779 H 0.40294 0.15838 0.7515 0.0
H780 H 0.43227 0.09665 0.74999 0.0
H781 H 0.47621 0.0954 0.77328 0.0
H782 H 0.4472 0.15803 0.77461 0.0
H783 H 0.51057 0.14236 0.772 0.0
H784 H 0.57826 0.24473 0.71894 0.0
H785 H 0.51703 0.31965 0.71641 0.0
H786 H 0.41615 0.23934 0.74831 0.0
C787 C 0.53206 0.06988 0.74001 0.0
C788 C 0.56996 0.05361 0.72867 0.0
C789 C 0.60097 0.08587 0.72049 0.0
C790 C 0.59332 0.13451 0.72315 0.0
C791 C 0.55442 0.15033 0.734 0.0
C792 C 0.52422 0.1188 0.74232 0.0
C793 C 0.47974 0.14681 0.75055 0.0
C794 C 0.4353 0.13614 0.74589 0.0
C795 C 0.47838 0.13495 0.76869 0.0
C796 C 0.48705 0.19936 0.74399 0.0
C797 C 0.53157 0.20064 0.73528 0.0
C798 C 0.54389 0.24442 0.72609 0.0
C799 C 0.50896 0.28698 0.72476 0.0
C800 C 0.46231 0.28469 0.73228 0.0
C801 C 0.45209 0.24163 0.74281 0.0
H802 H 0.98955 0.37676 0.47413 0.0
H803 H 0.11932 0.27315 0.4806 0.0
H804 H 0.07342 0.20878 0.49488 0.0
H805 H 0.9106 0.31806 0.51159 0.0
H806 H 0.86259 0.33068 0.50032 0.0
H807 H 0.90346 0.37285 0.49654 0.0
H808 H 0.92015 0.36511 0.46675 0.0
H809 H 0.87976 0.32326 0.47043 0.0
H810 H 0.93973 0.3047 0.4614 0.0
H811 H 0.01775 0.15238 0.50143 0.0
H812 H 0.96026 0.10731 0.49678 0.0
H813 H 0.86539 0.2454 0.48476 0.0
C814 C 0.00817 0.34099 0.47913 0.0
C815 C 0.05771 0.32949 0.47632 0.0
C816 C 0.08124 0.28237 0.48269 0.0
C817 C 0.05539 0.24591 0.49098 0.0
C818 C 0.00624 0.25748 0.49277 0.0
C819 C 0.98282 0.30414 0.48705 0.0
C820 C 0.93125 0.30454 0.48707 0.0
C821 C 0.90014 0.33322 0.49963 0.0
C822 C 0.91698 0.32556 0.47043 0.0
C823 C 0.9305 0.24985 0.4919 0.0
C824 C 0.97338 0.22379 0.49605 0.0
C825 C 0.98376 0.17238 0.49861 0.0
C826 C 0.95103 0.14711 0.49582 0.0
C827 C 0.90893 0.17337 0.49028 0.0
C828 C 0.89716 0.2249 0.48925 0.0
H829 H 0.02356 0.54391 0.2388 0.0
H830 H 0.15683 0.58303 0.2149 0.0
H831 H 0.1311 0.6667 0.22182 0.0
H832 H 0.95429 0.64181 0.2252 0.0
H833 H 0.91168 0.64822 0.24288 0.0
H834 H 0.94635 0.58903 0.24067 0.0
H835 H 0.97541 0.58263 0.2675 0.0
H836 H 0.94093 0.64277 0.26961 0.0
H837 H 0.00322 0.63054 0.27041 0.0
H838 H 0.08335 0.74914 0.22379 0.0
H839 H 0.01888 0.82032 0.21952 0.0
H840 H 0.91728 0.72857 0.24411 0.0
C841 C 0.04756 0.56996 0.23553 0.0
C842 C 0.09148 0.55833 0.22622 0.0
C843 C 0.12272 0.5922 0.22198 0.0
C844 C 0.1086 0.63935 0.22605 0.0
C845 C 0.06379 0.65099 0.23472 0.0
C846 C 0.0341 0.61668 0.23971 0.0
C847 C 0.98526 0.64001 0.24646 0.0
C848 C 0.94726 0.62919 0.23829 0.0
C849 C 0.97566 0.62298 0.26457 0.0
C850 C 0.99012 0.69379 0.2424 0.0
C851 C 0.03624 0.69938 0.23638 0.0
C852 C 0.04754 0.74542 0.229 0.0
C853 C 0.01071 0.78578 0.22663 0.0
C854 C 0.96348 0.77922 0.23148 0.0
C855 C 0.95342 0.73402 0.24052 0.0
H856 H 0.48542 0.96702 0.07394 0.0
H857 H 0.34943 0.01511 0.05777 0.0
H858 H 0.38732 0.01166 1.03034 0.0
H859 H 0.55322 0.0311 0.03972 0.0
H860 H 0.60389 -0.0177 0.03833 0.0
H861 H 0.56715 -0.01285 0.05725 0.0
H862 H 0.5545 0.89742 0.06036 0.0
H863 H 0.59168 0.89216 0.04154 0.0
H864 H 0.53271 0.87952 0.04482 0.0
H865 H 0.4405 0.01057 1.00314 0.0
H866 H 0.50232 -0.00211 0.97996 0.0
H867 H 0.60599 0.94211 1.01182 0.0
C868 C 0.46332 0.97549 0.06475 0.0
C869 C 0.4132 -0.00861 0.06872 0.0
C870 C 0.38722 0.00294 0.05571 0.0
C871 C 0.40871 0.00133 0.03977 0.0
C872 C 0.45746 -0.0128 0.03622 0.0
C873 C 0.48456 0.97314 0.04838 0.0
C874 C 0.53644 0.95813 0.04092 0.0
C875 C 0.567 -0.00835 0.04426 0.0
C876 C 0.55494 0.90356 0.0473 0.0
C877 C 0.53397 0.96635 1.02291 0.0
C878 C 0.4879 -0.01598 1.02053 0.0
C879 C 0.47659 -0.00373 1.00501 0.0
C880 C 0.5124 -0.01061 0.99171 0.0
C881 C 0.56007 0.96938 0.99352 0.0
C882 C 0.5704 0.95786 1.00962 0.0
H883 H 0.72407 0.69342 0.32481 0.0
H884 H 0.67449 0.60114 0.29978 0.0
H885 H 0.70233 0.65043 0.27427 0.0
H886 H 0.69588 0.80937 0.29792 0.0
H887 H 0.74821 0.83222 0.29846 0.0
H888 H 0.725 0.78988 0.31525 0.0
H889 H 0.8052 0.73031 0.31369 0.0
H890 H 0.82873 0.77269 0.29698 0.0
H891 H 0.83136 0.70946 0.29523 0.0
H892 H 0.73151 0.71155 0.25103 0.0
H893 H 0.76709 0.77481 0.23148 0.0
H894 H 0.8047 0.82935 0.26962 0.0
C895 C 0.7195 0.68319 0.31396 0.0
C896 C 0.69657 0.64242 0.31469 0.0
C897 C 0.6916 0.63135 0.29997 0.0
C898 C 0.70732 0.65956 0.28523 0.0
C899 C 0.72894 0.69939 0.28494 0.0
C900 C 0.73585 0.71101 0.29887 0.0
C901 C 0.76129 0.75559 0.29481 0.0
C902 C 0.73077 0.79936 0.30204 0.0
C903 C 0.80951 0.74115 0.30052 0.0
C904 C 0.76701 0.76727 0.27652 0.0
C905 C 0.74754 0.73427 0.27125 0.0
C906 C 0.74714 0.73727 0.25507 0.0
C907 C 0.76757 0.77397 0.24395 0.0
C908 C 0.78923 0.80815 0.24863 0.0
C909 C 0.78855 0.80447 0.26537 0.0
H910 H 0.10664 0.91494 0.53586 0.0
H911 H 0.03929 0.96725 0.57967 0.0
H912 H 0.96672 0.00093 0.56813 0.0
H913 H 0.04996 0.02453 0.50946 0.0
H914 H 0.04397 -0.01066 0.49514 0.0
H915 H 0.09154 0.96867 0.5067 0.0
H916 H 0.06475 0.88417 0.51638 0.0
H917 H 0.01659 0.90488 0.50507 0.0
H918 H 0.0052 0.88203 0.52616 0.0
H919 H 0.89881 0.02458 0.55299 0.0
H920 H 0.84367 0.04955 0.53368 0.0
H921 H 0.95253 -0.00948 0.49779 0.0
C922 C 0.07688 0.93417 0.54294 0.0
C923 C 0.0796 0.93818 0.55884 0.0
C924 C 0.0392 0.96357 0.56754 0.0
C925 C -0.00276 -0.01731 0.56109 0.0
C926 C -0.00455 0.97735 0.54566 0.0
C927 C 0.03441 0.95486 0.53648 0.0
C928 C 0.02263 0.95631 0.51993 0.0
C929 C 0.0539 -0.01349 0.50704 0.0
C930 C 0.0276 0.90371 0.51669 0.0
C931 C 0.971 -0.01745 0.52139 0.0
C932 C 0.95625 -0.00649 0.53649 0.0
C933 C 0.91024 0.01664 0.54108 0.0
C934 C 0.87884 0.03055 0.52991 0.0
C935 C 0.8929 0.02234 0.51398 0.0
C936 C 0.93991 -0.0029 0.50981 0.0
H937 H 0.78383 0.31941 0.79129 0.0
H938 H 0.69369 0.26846 0.83468 0.0
H939 H 0.68343 0.19957 0.82307 0.0
H940 H 0.71947 0.2916 0.7643 0.0
H941 H 0.77092 0.27126 0.75072 0.0
H942 H 0.77243 0.31618 0.76251 0.0
H943 H 0.84497 0.26016 0.77377 0.0
H944 H 0.84374 0.21503 0.76201 0.0
H945 H 0.84172 0.19722 0.78325 0.0
H946 H 0.68125 0.1373 0.80683 0.0
H947 H 0.68766 0.08505 0.78686 0.0
H948 H 0.77917 0.17514 0.75374 0.0
C949 C 0.76231 0.29348 0.79839 0.0
C950 C 0.73923 0.29967 0.81387 0.0
C951 C 0.71104 0.26509 0.82271 0.0
C952 C 0.70523 0.22559 0.81626 0.0
C953 C 0.72795 0.22086 0.80095 0.0
C954 C 0.756 0.25371 0.7921 0.0
C955 C 0.77567 0.24042 0.7758 0.0
C956 C 0.75859 0.28236 0.76255 0.0
C957 C 0.82974 0.22743 0.77358 0.0
C958 C 0.75408 0.19517 0.77688 0.0
C959 C 0.72676 0.1846 0.79152 0.0
C960 C 0.70257 0.14518 0.79532 0.0
C961 C 0.70622 0.11582 0.78384 0.0
C962 C 0.7338 0.12584 0.76868 0.0
C963 C 0.75823 0.16605 0.76525 0.0
H964 H 0.30031 0.32839 0.7701 0.0
H965 H 0.25968 0.27923 0.73151 0.0
H966 H 0.22419 0.21464 0.75083 0.0
H967 H 0.32831 0.20692 0.7943 0.0
H968 H 0.30428 0.22628 0.81312 0.0
H969 H 0.32664 0.26959 0.79646 0.0
H970 H 0.24686 0.32946 0.79905 0.0
H971 H 0.22428 0.28656 0.81579 0.0
H972 H 0.19361 0.30775 0.79884 0.0
H973 H 0.19485 0.15203 0.77425 0.0
H974 H 0.16875 0.10107 0.7997 0.0
H975 H 0.22321 0.18936 0.82481 0.0
C976 C 0.28355 0.30438 0.76569 0.0
C977 C 0.28307 0.30998 0.74893 0.0
C978 C 0.26076 0.27688 0.74402 0.0
C979 C 0.24046 0.23953 0.75502 0.0
C980 C 0.24187 0.23483 0.77126 0.0
C981 C 0.26238 0.26668 0.77667 0.0
C982 C 0.25821 0.2534 0.79492 0.0
C983 C 0.30729 0.23815 0.8 0.0
C984 C 0.22901 0.29689 0.80261 0.0
C985 C 0.23231 0.20923 0.79889 0.0
C986 C 0.22377 0.19918 0.78492 0.0
C987 C 0.20126 0.15998 0.7852 0.0
C988 C 0.18657 0.13079 0.79992 0.0
C989 C 0.19353 0.14011 0.81468 0.0
C990 C 0.21714 0.18037 0.81396 0.0
H991 H 0.27376 0.79993 0.30564 0.0
H992 H 0.14465 0.89109 0.29126 0.0
H993 H 0.13633 0.82749 0.27687 0.0
H994 H 0.31693 0.75466 0.26853 0.0
H995 H 0.34168 0.6939 0.27814 0.0
H996 H 0.33748 0.74667 0.28731 0.0
H997 H 0.29054 0.70416 0.31293 0.0
H998 H 0.29436 0.65135 0.30383 0.0
H999 H 0.23765 0.68342 0.31171 0.0
H1000 H 0.14119 0.75359 0.26443 0.0
H1001 H 0.16044 0.67568 0.25393 0.0
H1002 H 0.28714 0.63299 0.27599 0.0
C1003 C 0.24404 0.8069 0.2993 0.0
C1004 C 0.20973 0.85055 0.29966 0.0
C1005 C 0.17101 0.85769 0.29138 0.0
C1006 C 0.1661 0.82189 0.2831 0.0
C1007 C 0.20029 0.77917 0.28313 0.0
C1008 C 0.23866 0.77162 0.29092 0.0
C1009 C 0.27036 0.72241 0.2891 0.0
C1010 C 0.31952 0.72987 0.28024 0.0
C1011 C 0.27338 0.68833 0.30536 0.0
C1012 C 0.24372 0.70342 0.27909 0.0
C1013 C 0.20333 0.73669 0.27582 0.0
C1014 C 0.17271 0.72723 0.26691 0.0
C1015 C 0.18378 0.68268 0.26111 0.0
C1016 C 0.22517 0.64808 0.26421 0.0
C1017 C 0.25543 0.65881 0.27333 0.0
H1018 H 0.10715 0.44471 0.51417 0.0
H1019 H 0.0005 0.4863 0.48322 0.0
H1020 H 0.93903 0.49678 0.50664 0.0
H1021 H 0.04339 0.37919 0.54813 0.0
H1022 H 0.06128 0.4031 0.56325 0.0
H1023 H 0.09904 0.40003 0.54446 0.0
H1024 H 0.1013 0.49227 0.53947 0.0
H1025 H 0.0654 0.49651 0.55856 0.0
H1026 H 0.04697 0.53633 0.54087 0.0
H1027 H 0.88684 0.49824 0.53411 0.0
H1028 H 0.84981 0.5031 0.56164 0.0
H1029 H 0.98749 0.46805 0.57655 0.0
C1030 C 0.0709 0.45693 0.51222 0.0
C1031 C 0.05966 0.46511 0.49629 0.0
C1032 C 0.01121 0.48052 0.49481 0.0
C1033 C 0.97563 0.48612 0.50826 0.0
C1034 C 0.98786 0.47734 0.52361 0.0
C1035 C 0.03458 0.46432 0.52564 0.0
C1036 C 0.03783 0.45963 0.54349 0.0
C1037 C 0.06178 0.40732 0.55023 0.0
C1038 C 0.06447 0.49848 0.54573 0.0
C1039 C 0.98573 0.47027 0.55127 0.0
C1040 C 0.95781 0.48011 0.53942 0.0
C1041 C 0.90882 0.49085 0.54331 0.0
C1042 C 0.88783 0.49321 0.55927 0.0
C1043 C 0.91451 0.48529 0.57196 0.0
C1044 C 0.96492 0.47307 0.56764 0.0
H1045 H 0.60756 0.4195 0.04074 0.0
H1046 H 0.54157 0.47517 0.08408 0.0
H1047 H 0.46928 0.51012 0.07233 0.0
H1048 H 0.55268 0.52742 1.01343 0.0
H1049 H 0.54581 0.49059 0.99971 0.0
H1050 H 0.59332 0.4705 1.01131 0.0
H1051 H 0.56486 0.38714 1.02207 0.0
H1052 H 0.51681 0.40732 1.01071 0.0
H1053 H 0.50513 0.38691 1.03193 0.0
H1054 H 0.4014 0.53522 0.05678 0.0
H1055 H 0.34633 0.55828 0.03738 0.0
H1056 H 0.45409 0.49208 1.00264 0.0
C1057 C 0.57823 0.4398 0.04768 0.0
C1058 C 0.58119 0.44443 0.06349 0.0
C1059 C 0.54124 0.47101 0.07202 0.0
C1060 C 0.49951 0.4909 0.06543 0.0
C1061 C 0.49746 0.48481 0.05009 0.0
C1062 C 0.53599 0.46077 0.04114 0.0
C1063 C 0.52403 0.4605 1.02476 0.0
C1064 C 0.55587 0.48894 1.01152 0.0
C1065 C 0.52796 0.4073 1.02222 0.0
C1066 C 0.47278 0.48767 1.026 0.0
C1067 C 0.45833 0.5008 0.04083 0.0
C1068 C 0.41263 0.52543 0.04509 0.0
C1069 C 0.38128 0.53827 1.03389 0.0
C1070 C 0.39503 0.52723 1.01827 0.0
C1071 C 0.44171 0.50081 1.01443 0.0
H1072 H 0.28815 0.12623 0.16378 0.0
H1073 H 0.28702 0.23429 0.11991 0.0
H1074 H 0.2566 0.30089 0.13525 0.0
H1075 H 0.18013 0.19005 0.18549 0.0
H1076 H 0.202 0.1755 0.20424 0.0
H1077 H 0.22239 0.13437 0.19005 0.0
H1078 H 0.30818 0.14031 0.19064 0.0
H1079 H 0.28867 0.18169 0.20472 0.0
H1080 H 0.32557 0.20001 0.18625 0.0
H1081 H 0.23209 0.35656 0.15434 0.0
H1082 H 0.21679 0.39986 0.17685 0.0
H1083 H 0.22695 0.26025 0.20969 0.0
C1084 C 0.28141 0.16392 0.15745 0.0
C1085 C 0.28988 0.17471 0.14054 0.0
C1086 C 0.28069 0.22464 0.13277 0.0
C1087 C 0.26319 0.26298 0.14139 0.0
C1088 C 0.25464 0.25129 0.1579 0.0
C1089 C 0.26347 0.20323 0.16596 0.0
C1090 C 0.2522 0.20212 0.1839 0.0
C1091 C 0.21177 0.17382 0.19136 0.0
C1092 C 0.2963 0.17973 0.19184 0.0
C1093 C 0.23685 0.25715 0.18451 0.0
C1094 C 0.23831 0.28436 0.16926 0.0
C1095 C 0.22943 0.33571 0.16635 0.0
C1096 C 0.21987 0.36019 0.1793 0.0
C1097 C 0.21767 0.33387 0.19512 0.0
C1098 C 0.22596 0.28142 0.19778 0.0
H1099 H 0.47235 0.47171 0.38192 0.0
H1100 H 0.47375 0.60132 0.40112 0.0
H1101 H 0.39651 0.59263 0.41776 0.0
H1102 H 0.34718 0.49106 0.38104 0.0
H1103 H 0.34353 0.42653 0.38727 0.0
H1104 H 0.39758 0.44445 0.37636 0.0
H1105 H 0.44302 0.39247 0.39885 0.0
H1106 H 0.38924 0.37391 0.4097 0.0
H1107 H 0.42314 0.40292 0.41898 0.0
H1108 H 0.3156 0.5694 0.43234 0.0
H1109 H 0.24801 0.5278 0.44559 0.0
H1110 H 0.30289 0.41089 0.41812 0.0
C1111 C 0.45642 0.4984 0.3896 0.0
C1112 C 0.47944 0.53747 0.39006 0.0
C1113 C 0.45726 0.571 0.40049 0.0
C1114 C 0.41303 0.56651 0.40995 0.0
C1115 C 0.39115 0.52778 0.40912 0.0
C1116 C 0.41271 0.49382 0.39937 0.0
C1117 C 0.38354 0.45376 0.4013 0.0
C1118 C 0.36698 0.45398 0.38555 0.0
C1119 C 0.41139 0.40275 0.40759 0.0
C1120 C 0.34223 0.47024 0.41364 0.0
C1121 C 0.34657 0.51351 0.41785 0.0
C1122 C 0.31216 0.53547 0.42907 0.0
C1123 C 0.27344 0.5119 0.43646 0.0
C1124 C 0.26961 0.46632 0.43282 0.0
C1125 C 0.30439 0.44597 0.42107 0.0
H1126 H 0.26902 0.73302 0.63232 0.0
H1127 H 0.19768 0.65343 0.60971 0.0
H1128 H 0.21648 0.57797 0.62984 0.0
H1129 H 0.3652 0.62623 0.64124 0.0
H1130 H 0.3702 0.64583 0.65919 0.0
H1131 H 0.35029 0.69063 0.64265 0.0
H1132 H 0.27592 0.72153 0.66208 0.0
H1133 H 0.29499 0.67414 0.67817 0.0
H1134 H 0.23814 0.67852 0.67255 0.0
H1135 H 0.23959 0.51114 0.65453 0.0
H1136 H 0.27334 0.45923 0.67805 0.0
H1137 H 0.33644 0.58036 0.68245 0.0
C1138 C 0.25757 0.69959 0.63156 0.0
C1139 C 0.23158 0.69938 0.61941 0.0
C1140 C 0.21779 0.65461 0.61879 0.0
C1141 C 0.2281 0.61156 0.63029 0.0
C1142 C 0.25335 0.61311 0.64223 0.0
C1143 C 0.26889 0.65583 0.64264 0.0
C1144 C 0.29766 0.64735 0.65609 0.0
C1145 C 0.34891 0.65281 0.64941 0.0
C1146 C 0.27533 0.68248 0.66792 0.0
C1147 C 0.29467 0.59394 0.66357 0.0
C1148 C 0.26873 0.57461 0.65553 0.0
C1149 C 0.26048 0.52606 0.66068 0.0
C1150 C 0.27983 0.49665 0.67408 0.0
C1151 C 0.30828 0.51508 0.68204 0.0
C1152 C 0.31526 0.56466 0.67663 0.0
H1153 H 0.08077 0.64384 0.90499 0.0
H1154 H 0.11552 0.4863 0.90463 0.0
H1155 H 0.16736 0.47584 0.92481 0.0
H1156 H 0.19845 0.65521 0.90986 0.0
H1157 H 0.17856 0.69968 0.92289 0.0
H1158 H 0.14399 0.69836 0.90798 0.0
H1159 H 0.07058 0.68679 0.92879 0.0
H1160 H 0.10239 0.69145 0.94397 0.0
H1161 H 0.07511 0.6384 0.94601 0.0
H1162 H 0.21584 0.48289 0.94597 0.0
H1163 H 0.25027 0.50674 0.96662 0.0
H1164 H 0.18178 0.65854 0.95331 0.0
C1165 C 0.09961 0.60714 0.90898 0.0
C1166 C 0.09344 0.5659 0.90313 0.0
C1167 C 0.11869 0.51854 0.90898 0.0
C1168 C 0.14871 0.51223 0.9204 0.0
C1169 C 0.15356 0.55357 0.92599 0.0
C1170 C 0.1296 0.60014 0.92043 0.0
C1171 C 0.13977 0.63845 0.92862 0.0
C1172 C 0.16673 0.67513 0.91661 0.0
C1173 C 0.09425 0.66533 0.93737 0.0
C1174 C 0.17115 0.60604 0.94019 0.0
C1175 C 0.17995 0.55732 0.93826 0.0
C1176 C 0.20885 0.521 0.94758 0.0
C1177 C 0.22836 0.53479 0.95929 0.0
C1178 C 0.21825 0.5843 0.96178 0.0
C1179 C 0.1897 0.62017 0.9519 0.0
H1180 H 0.77382 0.59108 0.89289 0.0
H1181 H 0.81658 0.68198 0.84777 0.0
H1182 H 0.79658 0.75577 0.86087 0.0
H1183 H 0.6768 0.67594 0.90748 0.0
H1184 H 0.68747 0.66014 0.92783 0.0
H1185 H 0.70661 0.61486 0.91501 0.0
H1186 H 0.79181 0.60273 0.92077 0.0
H1187 H 0.77301 0.64779 0.9337 0.0
H1188 H 0.82032 0.65551 0.91735 0.0
H1189 H 0.76369 0.82082 0.8787 0.0
H1190 H 0.73012 0.87011 0.89987 0.0
H1191 H 0.71474 0.73573 0.93404 0.0
C1192 C 0.77933 0.62651 0.88577 0.0
C1193 C 0.79641 0.63092 0.86923 0.0
C1194 C 0.80364 0.67773 0.86041 0.0
C1195 C 0.79218 0.71981 0.86778 0.0
C1196 C 0.77454 0.71428 0.88407 0.0
C1197 C 0.7691 0.66852 0.89301 0.0
C1198 C 0.75005 0.67219 0.91033 0.0
C1199 C 0.7024 0.65476 0.91546 0.0
C1200 C 0.78594 0.64282 0.92118 0.0
C1201 C 0.74436 0.72747 0.90976 0.0
C1202 C 0.75837 0.75111 0.89446 0.0
C1203 C 0.75351 0.80245 0.89074 0.0
C1204 C 0.73417 0.83022 0.90288 0.0
C1205 C 0.72026 0.80696 0.91873 0.0
C1206 C 0.72586 0.75469 0.92216 0.0
H1207 H 0.49775 0.44234 0.66207 0.0
H1208 H 0.54047 0.43064 0.70791 0.0
H1209 H 0.61994 0.44409 0.69453 0.0
H1210 H 0.60978 0.38469 0.64182 0.0
H1211 H 0.6054 0.42711 0.62325 0.0
H1212 H 0.55275 0.4134 0.6364 0.0
H1213 H 0.52287 0.5066 0.63682 0.0
H1214 H 0.57519 0.52056 0.62356 0.0
H1215 H 0.55973 0.54183 0.64233 0.0
H1216 H 0.69708 0.45882 0.67569 0.0
H1217 H 0.75918 0.48319 0.65347 0.0
H1218 H 0.66544 0.49126 0.61981 0.0
C1219 C 0.52394 0.44224 0.6693 0.0
C1220 C 0.51246 0.43496 0.68617 0.0
C1221 C 0.5479 0.4361 0.69505 0.0
C1222 C 0.59348 0.44348 0.68751 0.0
C1223 C 0.60367 0.45059 0.67091 0.0
C1224 C 0.56957 0.45079 0.6619 0.0
C1225 C 0.58865 0.46263 0.64422 0.0
C1226 C 0.58917 0.41938 0.63594 0.0
C1227 C 0.5599 0.51077 0.63626 0.0
C1228 C 0.63863 0.46895 0.64467 0.0
C1229 C 0.64696 0.46107 0.66018 0.0
C1230 C 0.6907 0.46496 0.66352 0.0
C1231 C 0.72616 0.47838 0.65078 0.0
C1232 C 0.71784 0.48856 0.63479 0.0
C1233 C 0.6734 0.48313 0.63185 0.0
H1234 H 0.75127 0.22796 0.42885 0.0
H1235 H 0.77352 0.31134 0.46244 0.0
H1236 H 0.74959 0.38946 0.4442 0.0
H1237 H 0.78916 0.31085 0.39229 0.0
H1238 H 0.744 0.30305 0.38213 0.0
H1239 H 0.7666 0.25389 0.3972 0.0
H1240 H 0.68257 0.25281 0.41228 0.0
H1241 H 0.65906 0.3021 0.39748 0.0
H1242 H 0.64693 0.30856 0.41812 0.0
H1243 H 0.72295 0.46032 0.42153 0.0
H1244 H 0.68716 0.51485 0.39881 0.0
H1245 H 0.67596 0.38547 0.38129 0.0
C1246 C 0.75165 0.26265 0.43228 0.0
C1247 C 0.76487 0.26321 0.4471 0.0
C1248 C 0.7637 0.30966 0.45122 0.0
C1249 C 0.75034 0.35438 0.44085 0.0
C1250 C 0.7374 0.35261 0.42637 0.0
C1251 C 0.73736 0.30779 0.4222 0.0
C1252 C 0.71876 0.31597 0.40651 0.0
C1253 C 0.75691 0.29467 0.39378 0.0
C1254 C 0.67412 0.29358 0.40874 0.0
C1255 C 0.7078 0.37217 0.40257 0.0
C1256 C 0.7198 0.39283 0.41395 0.0
C1257 C 0.71342 0.44428 0.41261 0.0
C1258 C 0.69339 0.47514 0.39958 0.0
C1259 C 0.67896 0.45466 0.38818 0.0
C1260 C 0.68676 0.4024 0.38976 0.0
H1261 H 0.77883 0.43367 0.11 0.0
H1262 H 0.79975 0.27432 0.11446 0.0
H1263 H 0.84156 0.26355 0.13684 0.0
H1264 H 0.89442 0.43184 0.1167 0.0
H1265 H 0.88007 0.48168 0.12781 0.0
H1266 H 0.8436 0.47953 0.11362 0.0
H1267 H 0.76987 0.48211 0.13553 0.0
H1268 H 0.80665 0.48624 0.14941 0.0
H1269 H 0.77197 0.43821 0.15387 0.0
H1270 H 0.88517 0.26661 0.15753 0.0
H1271 H 0.93501 0.28438 0.17446 0.0
H1272 H 0.89504 0.44162 0.15722 0.0
C1273 C 0.79054 0.39667 0.11616 0.0
C1274 C 0.7834 0.35476 0.11078 0.0
C1275 C 0.80213 0.30708 0.11865 0.0
C1276 C 0.82638 0.30038 0.13147 0.0
C1277 C 0.83311 0.34171 0.13644 0.0
C1278 C 0.81629 0.38911 0.12907 0.0
C1279 C 0.83438 0.42635 0.13585 0.0
C1280 C 0.86493 0.45664 0.12271 0.0
C1281 C 0.79325 0.46023 0.14415 0.0
C1282 C 0.86406 0.39215 0.14791 0.0
C1283 C 0.86198 0.34356 0.14804 0.0
C1284 C 0.88711 0.30455 0.15756 0.0
C1285 C 0.91574 0.31506 0.1671 0.0
C1286 C 0.91976 0.3643 0.16716 0.0
C1287 C 0.89274 0.40354 0.15755 0.0
H1288 H 0.77754 0.71585 0.63495 0.0
H1289 H 0.76758 0.58064 0.66923 0.0
H1290 H 0.73611 0.62945 0.69068 0.0
H1291 H 0.81879 0.7759 0.66034 0.0
H1292 H 0.78768 0.83667 0.65316 0.0
H1293 H 0.80518 0.79137 0.64033 0.0
H1294 H 0.71861 0.80223 0.63588 0.0
H1295 H 0.70099 0.84745 0.64876 0.0
H1296 H 0.67315 0.79403 0.65282 0.0
H1297 H 0.70444 0.69445 0.7087 0.0
H1298 H 0.68609 0.7683 0.72176 0.0
H1299 H 0.72315 0.85957 0.67614 0.0
C1300 C 0.7681 0.69658 0.64693 0.0
C1301 C 0.77455 0.64432 0.65033 0.0
C1302 C 0.76283 0.62058 0.66628 0.0
C1303 C 0.74467 0.64806 0.67856 0.0
C1304 C 0.73879 0.6995 0.67484 0.0
C1305 C 0.75077 0.72348 0.65942 0.0
C1306 C 0.74467 0.77878 0.65877 0.0
C1307 C 0.79189 0.79672 0.6528 0.0
C1308 C 0.70712 0.80729 0.64845 0.0
C1309 C 0.7278 0.7821 0.67619 0.0
C1310 C 0.72358 0.7362 0.68527 0.0
C1311 C 0.70789 0.73051 0.70168 0.0
C1312 C 0.69731 0.77259 0.70902 0.0
C1313 C 0.70356 0.81945 0.7 0.0
C1314 C 0.71844 0.82406 0.68337 0.0
H1315 H 0.82484 0.95591 0.9509 0.0
H1316 H 0.72661 -0.01337 0.91721 0.0
H1317 H 0.7876 0.01796 0.89587 0.0
H1318 H 0.8832 0.06403 0.93397 0.0
H1319 H 0.9404 0.03013 0.93784 0.0
H1320 H 0.88809 0.01357 0.95058 0.0
H1321 H 0.91418 0.92386 0.9454 0.0
H1322 H 0.96635 0.94017 0.93257 0.0
H1323 H 0.9266 0.9128 0.92523 0.0
H1324 H 0.86256 0.03827 0.87758 0.0
H1325 H 0.94196 0.05131 0.86426 0.0
H1326 H 0.99235 0.01133 0.90978 0.0
C1327 C 0.81574 0.97028 0.93909 0.0
C1328 C 0.77031 0.96931 0.93584 0.0
C1329 C 0.76047 -0.01229 0.92015 0.0
C1330 C 0.79521 0.00529 0.9079 0.0
C1331 C 0.83982 0.00482 0.91147 0.0
C1332 C 0.84996 -0.01162 0.92676 0.0
C1333 C 0.90105 -0.00944 0.92738 0.0
C1334 C 0.9033 0.02673 0.93808 0.0
C1335 C 0.92866 0.93877 0.93298 0.0
C1336 C 0.91853 0.01002 0.91 0.0
C1337 C 0.88255 0.01777 0.90104 0.0
C1338 C 0.89057 0.03291 0.88457 0.0
C1339 C 0.93608 0.0401 0.87708 0.0
C1340 C 0.97371 0.03292 0.88589 0.0
C1341 C 0.96439 0.01811 0.90268 0.0
H1342 H 0.81212 0.07643 0.18831 0.0
H1343 H 0.8183 0.94726 0.1679 0.0
H1344 H 0.78817 0.00146 0.14411 0.0
H1345 H 0.70178 0.14457 0.17393 0.0
H1346 H 0.71982 0.20359 0.17091 0.0
H1347 H 0.74065 0.15423 0.18623 0.0
H1348 H 0.82757 0.161 0.17396 0.0
H1349 H 0.80542 0.2114 0.15926 0.0
H1350 H 0.84644 0.15886 0.1531 0.0
H1351 H 0.76397 0.0729 0.12109 0.0
H1352 H 0.73846 0.15157 0.10321 0.0
H1353 H 0.74206 0.2328 0.13997 0.0
C1354 C 0.80638 0.0595 0.17894 0.0
C1355 C 0.81731 0.00749 0.18002 0.0
C1356 C 0.80947 -0.01317 0.16748 0.0
C1357 C 0.79275 0.0175 0.15384 0.0
C1358 C 0.78303 0.06884 0.15304 0.0
C1359 C 0.78856 0.08947 0.16549 0.0
C1360 C 0.77449 0.14542 0.16204 0.0
C1361 C 0.73163 0.16297 0.17398 0.0
C1362 C 0.816 0.1706 0.16207 0.0
C1363 C 0.76169 0.15349 0.14545 0.0
C1364 C 0.76706 0.10901 0.14037 0.0
C1365 C 0.7591 0.10773 0.12512 0.0
C1366 C 0.74482 0.15272 0.11497 0.0
C1367 C 0.73789 0.19866 0.1201 0.0
C1368 C 0.74653 0.19853 0.13562 0.0
H1369 H 0.65881 0.15328 0.45746 0.0
H1370 H 0.75848 0.0151 0.4614 0.0
H1371 H 0.72161 -0.01181 0.44204 0.0
H1372 H 0.55834 0.10326 0.45446 0.0
H1373 H 0.53575 0.15583 0.44041 0.0
H1374 H 0.57002 0.16355 0.4545 0.0
H1375 H 0.62752 0.20275 0.43144 0.0
H1376 H 0.59377 0.19508 0.41719 0.0
H1377 H 0.65574 0.16929 0.4156 0.0
H1378 H 0.6719 0.97654 0.42215 0.0
H1379 H 0.61674 -0.01846 0.40349 0.0
H1380 H 0.54977 0.12815 0.41243 0.0
C1381 C 0.67292 0.11721 0.45431 0.0
C1382 C 0.71166 0.0862 0.46104 0.0
C1383 C 0.72894 0.03948 0.45647 0.0
C1384 C 0.7081 0.02394 0.44547 0.0
C1385 C 0.66992 0.05551 0.43908 0.0
C1386 C 0.65261 0.10126 0.44335 0.0
C1387 C 0.61142 0.1285 0.43479 0.0
C1388 C 0.56621 0.13835 0.44675 0.0
C1389 C 0.62281 0.17676 0.42412 0.0
C1390 C 0.60809 0.09113 0.42494 0.0
C1391 C 0.64198 0.04914 0.42764 0.0
C1392 C 0.64531 0.00931 0.42003 0.0
C1393 C 0.61344 0.01241 0.40948 0.0
C1394 C 0.57839 0.05514 0.40641 0.0
C1395 C 0.57614 0.09504 0.41431 0.0
H1396 H 0.16564 0.31026 0.4098 0.0
H1397 H 0.28295 0.26412 0.4364 0.0
H1398 H 0.32299 0.20754 0.41782 0.0
H1399 H 0.16475 0.18951 0.40299 0.0
H1400 H 0.14878 0.21056 0.38335 0.0
H1401 H 0.13127 0.25069 0.39785 0.0
H1402 H 0.17199 0.31772 0.37833 0.0
H1403 H 0.18955 0.27765 0.36379 0.0
H1404 H 0.23318 0.30243 0.3701 0.0
H1405 H 0.35061 0.15491 0.39636 0.0
H1406 H 0.3582 0.10268 0.37612 0.0
H1407 H 0.22122 0.17752 0.36443 0.0
C1408 C 0.19989 0.28847 0.41163 0.0
C1409 C 0.22121 0.29189 0.42457 0.0
C1410 C 0.26576 0.26211 0.42666 0.0
C1411 C 0.28901 0.23008 0.41607 0.0
C1412 C 0.26716 0.22749 0.40346 0.0
C1413 C 0.22324 0.25531 0.40133 0.0
C1414 C 0.20598 0.2426 0.38755 0.0
C1415 C 0.15998 0.22211 0.39328 0.0
C1416 C 0.19982 0.28779 0.37415 0.0
C1417 C 0.24673 0.20292 0.38242 0.0
C1418 C 0.28218 0.19566 0.39151 0.0
C1419 C 0.32321 0.16067 0.38909 0.0
C1420 C 0.32764 0.13156 0.37738 0.0
C1421 C 0.2911 0.13704 0.36833 0.0
C1422 C 0.25024 0.17338 0.37091 0.0
H1423 H 0.02049 -0.01069 0.18732 0.0
H1424 H 0.01567 0.86405 0.16644 0.0
H1425 H 0.09215 0.87325 0.14951 0.0
H1426 H 0.06797 0.0611 0.15049 0.0
H1427 H 0.10358 0.08818 0.15974 0.0
H1428 H 0.0502 0.06945 0.17089 0.0
H1429 H 0.0974 0.01461 0.19253 0.0
H1430 H 0.15101 0.03282 0.18132 0.0
H1431 H 0.14702 0.96826 0.18697 0.0
H1432 H 0.17231 0.89586 0.13478 0.0
H1433 H 0.24017 0.9368 0.12143 0.0
H1434 H 0.18963 0.05088 0.15023 0.0
C1435 C 0.03563 0.96365 0.17925 0.0
C1436 C 0.01178 0.9256 0.1784 0.0
C1437 C 0.03283 0.8935 0.1674 0.0
C1438 C 0.07663 0.89827 0.15776 0.0
C1439 C 0.0993 0.93596 0.15891 0.0
C1440 C 0.07898 0.96866 0.1692 0.0
C1441 C 0.10888 0.0081 0.16737 0.0
C1442 C 0.081 0.05976 0.16179 0.0
C1443 C 0.12716 0.00579 0.18298 0.0
C1444 C 0.14907 -0.00743 0.1545 0.0
C1445 C 0.14353 0.9503 0.14994 0.0
C1446 C 0.17672 0.92906 0.13828 0.0
C1447 C 0.21556 0.95227 0.13082 0.0
C1448 C 0.2207 -0.00312 0.1348 0.0
C1449 C 0.18704 0.0166 0.14696 0.0
H1450 H 0.11753 0.91657 0.90385 0.0
H1451 H 0.24442 0.96949 0.87897 0.0
H1452 H 0.2909 0.90785 0.89769 0.0
H1453 H 0.15099 0.89438 0.94415 0.0
H1454 H 0.12333 0.84079 0.9509 0.0
H1455 H 0.10044 0.89021 0.93595 0.0
H1456 H 0.10847 0.82788 0.91731 0.0
H1457 H 0.13225 0.77818 0.93197 0.0
H1458 H 0.16494 0.79025 0.9122 0.0
H1459 H 0.32466 0.83339 0.91782 0.0
H1460 H 0.34138 0.76061 0.93897 0.0
H1461 H 0.192 0.75976 0.95241 0.0
C1462 C 0.15507 0.91568 0.90247 0.0
C1463 C 0.17727 0.94809 0.88982 0.0
C1464 C 0.22644 0.94554 0.88852 0.0
C1465 C 0.25316 0.91033 0.89911 0.0
C1466 C 0.23027 0.87831 0.91124 0.0
C1467 C 0.18206 0.88151 0.91318 0.0
C1468 C 0.16579 0.84322 0.92726 0.0
C1469 C 0.13321 0.86867 0.94034 0.0
C1470 C 0.14144 0.80775 0.92186 0.0
C1471 C 0.21246 0.81675 0.93272 0.0
C1472 C 0.24927 0.83749 0.92326 0.0
C1473 C 0.29591 0.81768 0.92542 0.0
C1474 C 0.30515 0.77617 0.93748 0.0
C1475 C 0.26815 0.75488 0.9476 0.0
C1476 C 0.22108 0.7758 0.94515 0.0
H1477 H 0.44523 0.82961 0.65177 0.0
H1478 H 0.35669 0.95335 0.67153 0.0
H1479 H 0.30253 0.96252 0.6522 0.0
H1480 H 0.42951 0.8793 0.61027 0.0
H1481 H 0.42883 0.81971 0.60589 0.0
H1482 H 0.46168 0.82419 0.62085 0.0
H1483 H 0.4159 0.76364 0.64157 0.0
H1484 H 0.38354 0.75905 0.62651 0.0
H1485 H 0.35241 0.77726 0.64495 0.0
H1486 H 0.25749 0.95868 0.63005 0.0
H1487 H 0.22359 0.93759 0.6088 0.0
H1488 H 0.33948 0.81482 0.6043 0.0
C1489 C 0.41485 0.85911 0.65193 0.0
C1490 C 0.40558 0.89068 0.66333 0.0
C1491 C 0.36467 0.92819 0.66315 0.0
C1492 C 0.33371 0.93399 0.65208 0.0
C1493 C 0.34376 0.9021 0.64111 0.0
C1494 C 0.38334 0.86531 0.64098 0.0
C1495 C 0.38528 0.83482 0.62832 0.0
C1496 C 0.42892 0.83982 0.61558 0.0
C1497 C 0.3842 0.78046 0.6358 0.0
C1498 C 0.34026 0.85945 0.62155 0.0
C1499 C 0.31712 0.89876 0.62889 0.0
C1500 C 0.27513 0.92756 0.62439 0.0
C1501 C 0.25596 0.91531 0.61235 0.0
C1502 C 0.27821 0.87419 0.60505 0.0
C1503 C 0.32125 0.84637 0.60968 0.0
H1504 H 0.22552 0.08633 1.01665 0.0
H1505 H 0.09142 0.15844 0.03913 0.0
H1506 H 0.05524 0.15772 1.01579 0.0
H1507 H 0.21797 0.15252 0.9786 0.0
H1508 H 0.24561 0.10179 0.96843 0.0
H1509 H 0.25937 0.10243 0.98764 0.0
H1510 H 0.23528 0.01674 0.99841 0.0
H1511 H 0.22153 0.01574 0.97918 0.0
H1512 H 0.17765 0.00807 0.99662 0.0
H1513 H 0.03602 0.15686 0.98902 0.0
H1514 H 0.03517 0.15574 0.96073 0.0
H1515 H 0.18168 0.08347 0.956 0.0
C1516 C 0.18823 0.10066 1.01686 0.0
C1517 C 0.16115 0.12219 1.0297 0.0
C1518 C 0.11278 0.14196 1.02935 0.0
C1519 C 0.09189 0.1414 1.01621 0.0
C1520 C 0.11983 0.1207 1.0036 0.0
C1521 C 0.1669 0.10045 1.00386 0.0
C1522 C 0.1901 0.08406 0.9883 0.0
C1523 C 0.23063 0.11188 0.98028 0.0
C1524 C 0.20713 0.0278 0.99078 0.0
C1525 C 0.14902 0.09939 0.9791 0.0
C1526 C 0.10868 0.12004 0.98818 0.0
C1527 C 0.06715 0.14008 0.98187 0.0
C1528 C 0.06705 0.13952 0.96581 0.0
C1529 C 0.10823 0.11914 0.95628 0.0
C1530 C 0.1494 0.09817 0.96313 0.0
H1531 H 0.64893 0.47213 0.19191 0.0
H1532 H 0.73364 0.32515 0.19331 0.0
H1533 H 0.75077 0.32726 0.21984 0.0
H1534 H 0.71636 0.52064 0.21561 0.0
H1535 H 0.66301 0.5531 0.22556 0.0
H1536 H 0.66607 0.54444 0.20542 0.0
H1537 H 0.59222 0.50311 0.21401 0.0
H1538 H 0.58901 0.51148 0.23411 0.0
H1539 H 0.59231 0.45059 0.23001 0.0
H1540 H 0.74823 0.34002 0.24771 0.0
H1541 H 0.72588 0.3618 0.27452 0.0
H1542 H 0.63881 0.49816 0.25519 0.0
C1543 C 0.67172 0.44063 0.19767 0.0
C1544 C 0.68978 0.39839 0.19055 0.0
C1545 C 0.71985 0.35819 0.19842 0.0
C1546 C 0.72971 0.35903 0.21351 0.0
C1547 C 0.70951 0.40046 0.22048 0.0
C1548 C 0.68137 0.44067 0.21274 0.0
C1549 C 0.65916 0.47803 0.22343 0.0
C1550 C 0.67725 0.52695 0.21713 0.0
C1551 C 0.60499 0.48623 0.22552 0.0
C1552 C 0.67744 0.45158 0.23866 0.0
C1553 C 0.70724 0.40741 0.23665 0.0
C1554 C 0.72551 0.37485 0.24936 0.0
C1555 C 0.71228 0.38734 0.26456 0.0
C1556 C 0.68057 0.4317 0.26694 0.0
C1557 C 0.66391 0.46457 0.25372 0.0
H1558 H 0.31892 0.91889 0.47493 0.0
H1559 H 0.2327 0.81052 0.47593 0.0
H1560 H 0.24124 0.82916 0.44667 0.0
H1561 H 0.27348 0.00763 0.44225 0.0
H1562 H 0.32934 0.02564 0.43356 0.0
H1563 H 0.31712 0.00385 0.45468 0.0
H1564 H 0.39237 0.9367 0.45287 0.0
H1565 H 0.4047 0.95816 0.43173 0.0
H1566 H 0.4001 0.89432 0.43929 0.0
H1567 H 0.25926 0.85772 0.41762 0.0
H1568 H 0.28164 0.89802 0.39016 0.0
H1569 H 0.3564 -0.00994 0.40682 0.0
C1570 C 0.30199 0.89897 0.46898 0.0
C1571 C 0.27487 0.86323 0.47784 0.0
C1572 C 0.25297 0.83847 0.46953 0.0
C1573 C 0.25796 0.84853 0.45287 0.0
C1574 C 0.28491 0.88365 0.44454 0.0
C1575 C 0.30636 0.90884 0.45224 0.0
C1576 C 0.3325 0.94562 0.44027 0.0
C1577 C 0.31187 -0.00116 0.44285 0.0
C1578 C 0.38557 0.93293 0.4411 0.0
C1579 C 0.32234 0.93703 0.42466 0.0
C1580 C 0.29501 0.90084 0.42752 0.0
C1581 C 0.28053 0.8862 0.41523 0.0
C1582 C 0.29351 0.90955 0.3996 0.0
C1583 C 0.32075 0.94757 0.39618 0.0
C1584 C 0.33582 0.96104 0.40896 0.0
H1585 H 0.85774 0.45574 0.73317 0.0
H1586 H 0.91965 0.58188 0.70715 0.0
H1587 H 0.92373 0.60553 0.73247 0.0
H1588 H 0.78663 0.51633 0.76474 0.0
H1589 H 0.79565 0.46285 0.78018 0.0
H1590 H 0.79794 0.45513 0.76001 0.0
H1591 H 0.88118 0.40184 0.76059 0.0
H1592 H 0.87899 0.40952 0.78077 0.0
H1593 H 0.92691 0.42652 0.76572 0.0
H1594 H 0.92235 0.61569 0.76139 0.0
H1595 H 0.91294 0.61167 0.79059 0.0
H1596 H 0.85106 0.4803 0.79802 0.0
C1597 C 0.87243 0.48821 0.73274 0.0
C1598 C 0.88795 0.51697 0.71781 0.0
C1599 C 0.90653 0.55939 0.71814 0.0
C1600 C 0.90938 0.57309 0.73259 0.0
C1601 C 0.89354 0.54431 0.74698 0.0
C1602 C 0.8753 0.50272 0.74716 0.0
C1603 C 0.8601 0.47858 0.76431 0.0
C1604 C 0.80692 0.47822 0.76749 0.0
C1605 C 0.88849 0.426 0.76806 0.0
C1606 C 0.87249 0.51305 0.77366 0.0
C1607 C 0.89206 0.55061 0.76347 0.0
C1608 C 0.90684 0.58641 0.76942 0.0
C1609 C 0.90139 0.5839 0.78611 0.0
C1610 C 0.88087 0.5461 0.79687 0.0
C1611 C 0.86644 0.51025 0.79033 0.0
H1612 H 0.80599 0.87854 0.10758 0.0
H1613 H 0.94332 0.78403 0.10775 0.0
H1614 H 0.94386 0.77476 0.08007 0.0
H1615 H 0.75921 0.81019 0.08814 0.0
H1616 H 0.72541 0.86214 0.07675 0.0
H1617 H 0.73909 0.8675 0.09552 0.0
H1618 H 0.77789 0.94337 0.08188 0.0
H1619 H 0.76396 0.93849 0.06304 0.0
H1620 H 0.8239 0.93823 0.06503 0.0
H1621 H 0.92406 0.76649 0.0539 0.0
H1622 H 0.88754 0.76424 1.03071 0.0
H1623 H 0.76341 0.864 0.04806 0.0
C1624 C 0.83657 0.85666 0.10167 0.0
C1625 C 0.87463 0.83204 0.10974 0.0
C1626 C 0.91408 0.80373 0.10167 0.0
C1627 C 0.91459 0.79811 0.08599 0.0
C1628 C 0.87566 0.82153 0.07856 0.0
C1629 C 0.83766 0.8508 0.08608 0.0
C1630 C 0.7987 0.86905 0.07603 0.0
C1631 C 0.75293 0.85113 0.08462 0.0
C1632 C 0.79066 0.92565 0.07121 0.0
C1633 C 0.82002 0.84422 0.06188 0.0
C1634 C 0.86454 0.81721 0.06347 0.0
C1635 C 0.8896 0.78822 0.05238 0.0
C1636 C 0.86852 0.78687 0.03934 0.0
C1637 C 0.82297 0.81437 0.03755 0.0
C1638 C 0.79877 0.8436 0.04893 0.0
H1639 H 0.39752 0.53475 0.87411 0.0
H1640 H 0.25735 0.51293 0.89727 0.0
H1641 H 0.24029 0.49841 0.87198 0.0
H1642 H 0.36584 0.59797 0.83633 0.0
H1643 H 0.41921 0.56943 0.82526 0.0
H1644 H 0.41914 0.5789 0.84509 0.0
H1645 H 0.45099 0.48543 0.85351 0.0
H1646 H 0.45096 0.47562 0.83372 0.0
H1647 H 0.41927 0.44067 0.85059 0.0
H1648 H 0.24049 0.48383 0.84387 0.0
H1649 H 0.25609 0.47575 0.81543 0.0
H1650 H 0.39683 0.50561 0.81176 0.0
C1651 C 0.36329 0.5266 0.87393 0.0
C1652 C 0.32892 0.52445 0.88766 0.0
C1653 C 0.28415 0.51487 0.88683 0.0
C1654 C 0.27428 0.50631 0.87256 0.0
C1655 C 0.30951 0.50776 0.8593 0.0
C1656 C 0.35298 0.51803 0.8599 0.0
C1657 C 0.38494 0.51784 0.84412 0.0
C1658 C 0.39803 0.56908 0.8373 0.0
C1659 C 0.42914 0.47748 0.84558 0.0
C1660 C 0.35287 0.50564 0.83447 0.0
C1661 C 0.30952 0.4998 0.84337 0.0
C1662 C 0.27431 0.48838 0.83682 0.0
C1663 C 0.28356 0.48353 0.82071 0.0
C1664 C 0.32756 0.49033 0.81139 0.0
C1665 C 0.36262 0.50091 0.81851 0.0
H1666 H 0.6819 0.04447 0.66375 0.0
H1667 H 0.61625 0.91997 0.66398 0.0
H1668 H 0.6256 0.93855 0.63469 0.0
H1669 H 0.62874 0.1258 0.63117 0.0
H1670 H 0.68031 0.15295 0.6229 0.0
H1671 H 0.66884 0.12981 0.64395 0.0
H1672 H 0.75111 0.07356 0.64242 0.0
H1673 H 0.76281 0.09644 0.62136 0.0
H1674 H 0.76723 0.03096 0.62864 0.0
H1675 H 0.64334 0.96923 0.6054 0.0
H1676 H 0.66522 0.01219 0.578 0.0
H1677 H 0.71794 0.11834 0.59637 0.0
C1678 C 0.66938 0.02122 0.65763 0.0
C1679 C 0.64815 -0.01917 0.66621 0.0
C1680 C 0.63219 0.95138 0.65773 0.0
C1681 C 0.63752 0.96151 0.64106 0.0
C1682 C 0.65856 0.0015 0.63298 0.0
C1683 C 0.67396 0.03115 0.64095 0.0
C1684 C 0.69484 0.07223 0.62933 0.0
C1685 C 0.66648 0.12322 0.632 0.0
C1686 C 0.7471 0.06802 0.63051 0.0
C1687 C 0.68892 0.0609 0.61361 0.0
C1688 C 0.66815 0.01974 0.61602 0.0
C1689 C 0.6596 0.00151 0.60336 0.0
C1690 C 0.67244 0.02602 0.58783 0.0
C1691 C 0.69349 0.06854 0.58499 0.0
C1692 C 0.70164 0.08616 0.59813 0.0
H1693 H 0.15853 0.46323 0.33947 0.0
H1694 H 0.04102 0.38929 0.36153 0.0
H1695 H 0.0351 0.37122 0.3355 0.0
H1696 H 0.11436 0.51915 0.30233 0.0
H1697 H 0.17168 0.51043 0.29036 0.0
H1698 H 0.16622 0.51769 0.31074 0.0
H1699 H 0.22396 0.43483 0.31647 0.0
H1700 H 0.22928 0.42744 0.2961 0.0
H1701 H 0.21143 0.3796 0.31206 0.0
H1702 H 0.04078 0.36303 0.30567 0.0
H1703 H 0.0602 0.36355 0.2765 0.0
H1704 H 0.17475 0.44062 0.27446 0.0
C1705 C 0.13128 0.44348 0.3389 0.0
C1706 C 0.10038 0.42772 0.35291 0.0
C1707 C 0.0658 0.40137 0.35129 0.0
C1708 C 0.06188 0.39113 0.3364 0.0
C1709 C 0.09286 0.40709 0.32291 0.0
C1710 C 0.12707 0.43259 0.32409 0.0
C1711 C 0.15656 0.44513 0.30787 0.0
C1712 C 0.15191 0.50144 0.30252 0.0
C1713 C 0.20838 0.42026 0.30815 0.0
C1714 C 0.13372 0.4229 0.29741 0.0
C1715 C 0.09677 0.40133 0.30619 0.0
C1716 C 0.06998 0.37961 0.29879 0.0
C1717 C 0.08125 0.37997 0.28214 0.0
C1718 C 0.11944 0.4014 0.2729 0.0
C1719 C 0.14569 0.42303 0.28092 0.0
H1720 H 0.69415 0.59848 0.45633 0.0
H1721 H 0.55264 0.68436 0.45761 0.0
H1722 H 0.55205 0.69206 0.48545 0.0
H1723 H 0.67984 0.53354 0.49782 0.0
H1724 H 0.73885 0.53612 0.5001 0.0
H1725 H 0.72602 0.53354 0.48089 0.0
H1726 H 0.75989 0.6135 0.46879 0.0
H1727 H 0.77262 0.61645 0.48795 0.0
H1728 H 0.7365 0.66833 0.47737 0.0
H1729 H 0.57035 0.69723 0.51223 0.0
H1730 H 0.60461 0.69566 0.53626 0.0
H1731 H 0.73386 0.60643 0.5171 0.0
C1732 C 0.66284 0.61848 0.46253 0.0
C1733 C 0.62343 0.64083 0.45485 0.0
C1734 C 0.583 0.66645 0.46336 0.0
C1735 C 0.58243 0.6712 0.47913 0.0
C1736 C 0.62238 0.64966 0.48623 0.0
C1737 C 0.66164 0.62337 0.47824 0.0
C1738 C 0.70083 0.60561 0.48823 0.0
C1739 C 0.71202 0.54883 0.49198 0.0
C1740 C 0.74505 0.62729 0.4801 0.0
C1741 C 0.67793 0.62697 0.50297 0.0
C1742 C 0.63264 0.65212 0.50164 0.0
C1743 C 0.60556 0.67711 0.51348 0.0
C1744 C 0.62535 0.6763 0.52701 0.0
C1745 C 0.67167 0.65059 0.52857 0.0
C1746 C 0.698 0.62549 0.51639 0.0
H1747 H 0.15168 0.86986 0.7 0.0
H1748 H 0.14207 0.02179 0.67498 0.0
H1749 H 0.14607 0.04848 0.69978 0.0
H1750 H 0.0752 0.89825 0.7345 0.0
H1751 H 0.10673 0.85085 0.74803 0.0
H1752 H 0.10897 0.84279 0.72792 0.0
H1753 H 0.20017 0.82923 0.72382 0.0
H1754 H 0.19822 0.83733 0.74395 0.0
H1755 H 0.22871 0.87534 0.72761 0.0
H1756 H 0.14638 0.05949 0.72758 0.0
H1757 H 0.14084 0.05411 0.75654 0.0
H1758 H 0.14366 0.89611 0.76352 0.0
C1759 C 0.15058 0.90874 0.69968 0.0
C1760 C 0.14701 0.94357 0.68546 0.0
C1761 C 0.14596 -0.0059 0.6856 0.0
C1762 C 0.14792 0.00975 0.69966 0.0
C1763 C 0.15071 0.9745 0.71349 0.0
C1764 C 0.15192 0.92508 0.71362 0.0
C1765 C 0.15167 0.89518 0.73025 0.0
C1766 C 0.10804 0.87033 0.73548 0.0
C1767 C 0.19742 0.85702 0.73147 0.0
C1768 C 0.14922 0.93571 0.73949 0.0
C1769 C 0.14933 -0.01893 0.7296 0.0
C1770 C 0.14632 0.02415 0.73547 0.0
C1771 C 0.14277 0.02077 0.75194 0.0
C1772 C 0.14166 0.97471 0.76234 0.0
C1773 C 0.14524 0.93173 0.75592 0.0
H1774 H 0.82461 0.40537 0.90298 0.0
H1775 H 0.88618 0.53253 0.90294 0.0
H1776 H 0.87035 0.51799 0.93227 0.0
H1777 H 0.73224 0.42301 0.93542 0.0
H1778 H 0.73577 0.35821 0.94373 0.0
H1779 H 0.75296 0.3775 0.92269 0.0
H1780 H 0.83501 0.32198 0.92424 0.0
H1781 H 0.81796 0.30218 0.94527 0.0
H1782 H 0.87018 0.32906 0.93818 0.0
H1783 H 0.84416 0.49248 0.96154 0.0
H1784 H 0.81529 0.45378 0.98887 0.0
H1785 H 0.77284 0.34125 0.97031 0.0
C1786 C 0.83523 0.42984 0.90914 0.0
C1787 C 0.85684 0.47004 0.90059 0.0
C1788 C 0.87004 0.50123 0.90916 0.0
C1789 C 0.86096 0.49342 0.92585 0.0
C1790 C 0.8391 0.45392 0.93388 0.0
C1791 C 0.82694 0.42223 0.92584 0.0
C1792 C 0.80398 0.38243 0.93739 0.0
C1793 C 0.75323 0.3855 0.93464 0.0
C1794 C 0.83356 0.33086 0.9362 0.0
C1795 C 0.8048 0.39692 0.95316 0.0
C1796 C 0.82491 0.43851 0.95082 0.0
C1797 C 0.82857 0.45976 0.96351 0.0
C1798 C 0.81172 0.43771 0.979 0.0
C1799 C 0.79164 0.39457 0.98177 0.0
C1800 C 0.78825 0.37401 0.9686 0.0
H1801 H 0.33441 -0.00229 0.29384 0.0
H1802 H 0.42617 0.10326 0.28941 0.0
H1803 H 0.44146 0.10681 0.26009 0.0
H1804 H 0.40425 0.93098 0.26358 0.0
H1805 H 0.35372 0.92012 0.25683 0.0
H1806 H 0.35019 0.92668 0.2772 0.0
H1807 H 0.27832 -0.00298 0.27415 0.0
H1808 H 0.28155 -0.009 0.25376 0.0
H1809 H 0.28295 0.04995 0.25848 0.0
H1810 H 0.44469 0.09946 0.23039 0.0
H1811 H 0.43902 0.08033 0.20453 0.0
H1812 H 0.34581 0.97789 0.22847 0.0
C1813 C 0.3577 0.02192 0.28681 0.0
C1814 C 0.37869 0.05072 0.29424 0.0
C1815 C 0.40941 0.08097 0.28427 0.0
C1816 C 0.41822 0.08318 0.26751 0.0
C1817 C 0.39658 0.05453 0.26068 0.0
C1818 C 0.36718 0.02414 0.27014 0.0
C1819 C 0.34867 -0.00376 0.26009 0.0
C1820 C 0.3652 0.94018 0.2647 0.0
C1821 C 0.29467 0.00935 0.26172 0.0
C1822 C 0.37169 0.01589 0.24334 0.0
C1823 C 0.3991 0.0496 0.24394 0.0
C1824 C 0.42323 0.07312 0.22995 0.0
C1825 C 0.41942 0.06215 0.21515 0.0
C1826 C 0.39169 0.02761 0.21405 0.0
C1827 C 0.36771 0.00416 0.22859 0.0
H1828 H 0.28462 0.38282 0.61479 0.0
H1829 H 0.20301 0.27802 0.64539 0.0
H1830 H 0.17063 0.26877 0.62214 0.0
H1831 H 0.19723 0.44074 0.58731 0.0
H1832 H 0.24329 0.44648 0.57044 0.0
H1833 H 0.25392 0.45 0.58986 0.0
H1834 H 0.32618 0.37921 0.58751 0.0
H1835 H 0.31556 0.37509 0.56822 0.0
H1836 H 0.31858 0.32111 0.58368 0.0
H1837 H 0.15464 0.2643 0.59482 0.0
H1838 H 0.15822 0.26386 0.56612 0.0
H1839 H 0.24951 0.37276 0.55425 0.0
C1840 C 0.25857 0.35932 0.61677 0.0
C1841 C 0.24591 0.33158 0.63193 0.0
C1842 C 0.21318 0.29964 0.63385 0.0
C1843 C 0.19438 0.29443 0.62075 0.0
C1844 C 0.20849 0.32166 0.60587 0.0
C1845 C 0.23963 0.35375 0.60389 0.0
C1846 C 0.25302 0.37521 0.58658 0.0
C1847 C 0.23581 0.43144 0.58337 0.0
C1848 C 0.30648 0.36182 0.58119 0.0
C1849 C 0.22587 0.34894 0.57904 0.0
C1850 C 0.19975 0.31875 0.59029 0.0
C1851 C 0.17438 0.2884 0.58592 0.0
C1852 C 0.17656 0.28838 0.56964 0.0
C1853 C 0.20443 0.31798 0.55806 0.0
C1854 C 0.22826 0.34943 0.56288 0.0
H1855 H 0.83258 0.01501 0.37881 0.0
H1856 H 0.85953 0.16503 0.36807 0.0
H1857 H 0.85805 0.16793 0.3396 0.0
H1858 H 0.90624 0.97503 0.34664 0.0
H1859 H 0.86963 0.93627 0.34284 0.0
H1860 H 0.86525 0.94837 0.3626 0.0
H1861 H 0.77579 -0.01823 0.36334 0.0
H1862 H 0.77976 0.96933 0.34359 0.0
H1863 H 0.75552 0.03054 0.34775 0.0
H1864 H 0.86324 0.15126 0.31239 0.0
H1865 H 0.8736 0.1166 0.28792 0.0
H1866 H 0.84367 0.97701 0.31621 0.0
C1867 C 0.83661 0.04898 0.37052 0.0
C1868 C 0.84592 0.08991 0.37557 0.0
C1869 C 0.85246 0.13329 0.36436 0.0
C1870 C 0.85139 0.13536 0.34822 0.0
C1871 C 0.84347 0.09384 0.34354 0.0
C1872 C 0.83582 0.05157 0.35436 0.0
C1873 C 0.83237 0.0106 0.34606 0.0
C1874 C 0.87066 0.9649 0.34975 0.0
C1875 C 0.78291 -0.00271 0.35045 0.0
C1876 C 0.84111 0.03582 0.32886 0.0
C1877 C 0.84676 0.08404 0.32771 0.0
C1878 C 0.85824 0.11382 0.31311 0.0
C1879 C 0.86445 0.09369 0.29932 0.0
C1880 C 0.8595 0.04416 0.30023 0.0
C1881 C 0.84695 0.01519 0.31519 0.0
H1882 H 0.14345 0.4644 0.16066 0.0
H1883 H 0.2134 0.56019 0.17759 0.0
H1884 H 0.23323 0.60275 0.15016 0.0
H1885 H 0.2259 0.45235 0.12473 0.0
H1886 H 0.18194 0.45359 0.11271 0.0
H1887 H 0.17201 0.43048 0.1338 0.0
H1888 H 0.09389 0.49336 0.13664 0.0
H1889 H 0.10346 0.51657 0.11555 0.0
H1890 H 0.09427 0.55825 0.12943 0.0
H1891 H 0.24779 0.63426 0.12099 0.0
H1892 H 0.25284 0.65519 0.09181 0.0
H1893 H 0.17339 0.54072 0.09295 0.0
C1894 C 0.16257 0.4946 0.15861 0.0
C1895 C 0.17678 0.50872 0.17143 0.0
C1896 C 0.20208 0.5483 0.16811 0.0
C1897 C 0.21363 0.57287 0.1525 0.0
C1898 C 0.19967 0.55779 0.14017 0.0
C1899 C 0.17448 0.51981 0.14299 0.0
C1900 C 0.16411 0.51113 0.12742 0.0
C1901 C 0.18738 0.45878 0.1245 0.0
C1902 C 0.11076 0.52039 0.12725 0.0
C1903 C 0.18729 0.55026 0.11551 0.0
C1904 C 0.20779 0.57647 0.12318 0.0
C1905 C 0.23183 0.61402 0.11484 0.0
C1906 C 0.2348 0.62544 0.09821 0.0
C1907 C 0.2137 0.59966 0.08998 0.0
C1908 C 0.18961 0.56148 0.09885 0.0
H1909 H 0.63696 -0.00224 0.83391 0.0
H1910 H 0.57706 0.87019 0.85976 0.0
H1911 H 0.57309 0.84682 0.83437 0.0
H1912 H 0.56744 0.0268 0.80177 0.0
H1913 H 0.61456 0.04451 0.78652 0.0
H1914 H 0.6132 0.05198 0.80667 0.0
H1915 H 0.69667 -0.00048 0.80703 0.0
H1916 H 0.69892 -0.00819 0.78684 0.0
H1917 H 0.70848 0.93837 0.80224 0.0
H1918 H 0.57451 0.83727 0.80534 0.0
H1919 H 0.58413 0.84202 0.77609 0.0
H1920 H 0.64388 0.97458 0.76911 0.0
C1921 C 0.62275 0.96503 0.83429 0.0
C1922 C 0.60768 0.93582 0.84915 0.0
C1923 C 0.58975 0.89303 0.84878 0.0
C1924 C 0.58698 0.8795 0.83431 0.0
C1925 C 0.6023 0.90881 0.81997 0.0
C1926 C 0.62001 0.95068 0.81986 0.0
C1927 C 0.63476 0.97543 0.80278 0.0
C1928 C 0.60577 0.02779 0.79923 0.0
C1929 C 0.68786 0.97634 0.79953 0.0
C1930 C 0.62269 0.94106 0.79336 0.0
C1931 C 0.60371 0.90294 0.80345 0.0
C1932 C 0.58952 0.86701 0.79738 0.0
C1933 C 0.59506 0.86997 0.78068 0.0
C1934 C 0.61503 0.90836 0.77004 0.0
C1935 C 0.62878 0.94431 0.7767 0.0
loop_
_geom_bond_atom_site_label_1
_geom_bond_atom_site_label_2
_geom_bond_distance
_geom_bond_site_symmetry_2
_ccdc_geom_bond_type
Nd0 C2 2.836 . S
Nd0 O20 2.500 . S
Nd0 O21 2.492 . S
Nd0 O22 2.487 . S
Nd0 O23 2.682 . S
Nd0 O24 2.410 . S
Nd0 O29 2.414 . S
Nd0 O31 2.424 . S
Nd1 C11 2.836 . S
Nd1 O23 2.414 . S
Nd1 O25 2.424 . S
Nd1 O26 2.500 . S
Nd1 O27 2.492 . S
Nd1 O28 2.487 . S
Nd1 O29 2.682 . S
Nd1 O30 2.410 . S
C2 Nd0 2.836 . S
C2 C3 1.498 . S
C2 O20 1.258 . S
C2 O21 1.239 . S
C3 C2 1.498 . S
C3 C4 1.366 . S
C3 C8 1.407 . S
C4 C3 1.366 . S
C4 C5 1.392 . S
C4 H32 0.930 . S
C5 C4 1.392 . S
C5 C6 1.398 . S
C5 H33 0.929 . S
C6 C5 1.398 . S
C6 C7 1.352 . S
C7 C6 1.352 . S
C7 C8 1.384 . S
C7 H34 0.930 . S
C8 C3 1.407 . S
C8 C7 1.384 . S
C8 H35 0.929 . S
C9 O22 1.241 . S
C9 O23 1.273 . S
C10 O24 1.251 . S
C10 O25 1.268 . S
C11 Nd1 2.836 . S
C11 C12 1.498 . S
C11 O26 1.258 . S
C11 O27 1.239 . S
C12 C11 1.498 . S
C12 C13 1.366 . S
C12 C17 1.407 . S
C13 C12 1.366 . S
C13 C14 1.388 1_554 S
C13 H36 0.930 . S
C14 C13 1.388 1_556 S
C14 C15 1.401 . S
C14 H37 0.932 . S
C15 C14 1.401 . S
C15 C16 1.352 1_556 S
C16 C15 1.352 1_554 S
C16 C17 1.384 . S
C16 H38 0.930 . S
C17 C12 1.407 . S
C17 C16 1.384 . S
C17 H39 0.929 . S
C18 O28 1.241 . S
C18 O29 1.273 . S
C19 O30 1.251 . S
C19 O31 1.268 . S
O20 Nd0 2.500 . S
O20 C2 1.258 . S
O21 Nd0 2.492 . S
O21 C2 1.239 . S
O22 Nd0 2.487 . S
O22 C9 1.241 . S
O23 Nd0 2.682 . S
O23 Nd1 2.414 . S
O23 C9 1.273 . S
O24 Nd0 2.410 . S
O24 C10 1.251 . S
O25 Nd1 2.424 . S
O25 C10 1.268 . S
O26 Nd1 2.500 . S
O26 C11 1.258 . S
O27 Nd1 2.492 . S
O27 C11 1.239 . S
O28 Nd1 2.487 . S
O28 C18 1.241 . S
O29 Nd0 2.414 . S
O29 Nd1 2.682 . S
O29 C18 1.273 . S
O30 Nd1 2.410 . S
O30 C19 1.251 . S
O31 Nd0 2.424 . S
O31 C19 1.268 . S
H32 C4 0.930 . S
H33 C5 0.929 . S
H34 C7 0.930 . S
H35 C8 0.929 . S
H36 C13 0.930 . S
H37 C14 0.932 . S
H38 C16 0.930 . S
H39 C17 0.929 . S
Nd40 C42 2.836 . S
Nd40 O60 2.500 . S
Nd40 O61 2.492 . S
Nd40 O62 2.487 . S
Nd40 O63 2.682 . S
Nd40 O64 2.410 . S
Nd40 O69 2.414 . S
Nd40 O71 2.424 . S
Nd41 C51 2.836 . S
Nd41 O63 2.414 . S
Nd41 O65 2.424 . S
Nd41 O66 2.500 . S
Nd41 O67 2.492 . S
Nd41 O68 2.487 . S
Nd41 O69 2.682 . S
Nd41 O70 2.410 . S
C42 Nd40 2.836 . S
C42 C43 1.498 . S
C42 O60 1.258 . S
C42 O61 1.239 . S
C43 C42 1.498 . S
C43 C44 1.366 . S
C43 C48 1.407 . S
C44 C43 1.366 . S
C44 C45 1.392 . S
C44 H72 0.930 . S
C45 C44 1.392 . S
C45 C46 1.398 . S
C45 H73 0.929 . S
C46 C45 1.398 . S
C46 C47 1.352 . S
C47 C46 1.352 . S
C47 C48 1.384 . S
C47 H74 0.930 . S
C48 C43 1.407 . S
C48 C47 1.384 . S
C48 H75 0.929 . S
C49 O62 1.241 . S
C49 O63 1.273 . S
C50 O64 1.251 . S
C50 O65 1.268 . S
C51 Nd41 2.836 . S
C51 C52 1.498 . S
C51 O66 1.258 . S
C51 O67 1.239 . S
C52 C51 1.498 . S
C52 C53 1.366 . S
C52 C57 1.407 . S
C53 C52 1.366 . S
C53 C54 1.392 . S
C53 H76 0.930 . S
C54 C53 1.392 . S
C54 C55 1.398 . S
C54 H77 0.929 . S
C55 C54 1.398 . S
C55 C56 1.352 . S
C56 C55 1.352 . S
C56 C57 1.384 . S
C56 H78 0.930 . S
C57 C52 1.407 . S
C57 C56 1.384 . S
C57 H79 0.929 . S
C58 O68 1.241 . S
C58 O69 1.273 . S
C59 O70 1.251 . S
C59 O71 1.268 . S
O60 Nd40 2.500 . S
O60 C42 1.258 . S
O61 Nd40 2.492 . S
O61 C42 1.239 . S
O62 Nd40 2.487 . S
O62 C49 1.241 . S
O63 Nd40 2.682 . S
O63 Nd41 2.414 . S
O63 C49 1.273 . S
O64 Nd40 2.410 . S
O64 C50 1.251 . S
O65 Nd41 2.424 . S
O65 C50 1.268 . S
O66 Nd41 2.500 . S
O66 C51 1.258 . S
O67 Nd41 2.492 . S
O67 C51 1.239 . S
O68 Nd41 2.487 . S
O68 C58 1.241 . S
O69 Nd40 2.414 . S
O69 Nd41 2.682 . S
O69 C58 1.273 . S
O70 Nd41 2.410 . S
O70 C59 1.251 . S
O71 Nd40 2.424 . S
O71 C59 1.268 . S
H72 C44 0.930 . S
H73 C45 0.929 . S
H74 C47 0.930 . S
H75 C48 0.929 . S
H76 C53 0.930 . S
H77 C54 0.929 . S
H78 C56 0.930 . S
H79 C57 0.929 . S
Nd80 C82 2.836 . S
Nd80 O100 2.500 . S
Nd80 O101 2.492 . S
Nd80 O102 2.487 . S
Nd80 O103 2.682 . S
Nd80 O104 2.410 . S
Nd80 O109 2.414 . S
Nd80 O111 2.424 . S
Nd81 C91 2.836 . S
Nd81 O103 2.414 . S
Nd81 O105 2.424 . S
Nd81 O106 2.500 . S
Nd81 O107 2.492 . S
Nd81 O108 2.487 . S
Nd81 O109 2.682 . S
Nd81 O110 2.410 . S
C82 Nd80 2.836 . S
C82 C83 1.498 . S
C82 O100 1.258 . S
C82 O101 1.239 . S
C83 C82 1.498 . S
C83 C84 1.366 . S
C83 C88 1.407 . S
C84 C83 1.366 . S
C84 C85 1.392 . S
C84 H112 0.930 . S
C85 C84 1.392 . S
C85 C86 1.398 . S
C85 H113 0.929 . S
C86 C85 1.398 . S
C86 C87 1.352 . S
C87 C86 1.352 . S
C87 C88 1.384 . S
C87 H114 0.930 . S
C88 C83 1.407 . S
C88 C87 1.384 . S
C88 H115 0.929 . S
C89 O102 1.241 . S
C89 O103 1.273 . S
C90 O104 1.251 . S
C90 O105 1.268 . S
C91 Nd81 2.836 . S
C91 C92 1.498 . S
C91 O106 1.258 . S
C91 O107 1.239 . S
C92 C91 1.498 . S
C92 C93 1.366 . S
C92 C97 1.407 . S
C93 C92 1.366 . S
C93 C94 1.392 . S
C93 H116 0.930 . S
C94 C93 1.392 . S
C94 C95 1.398 . S
C94 H117 0.929 . S
C95 C94 1.398 . S
C95 C96 1.352 . S
C96 C95 1.352 . S
C96 C97 1.384 . S
C96 H118 0.930 . S
C97 C92 1.407 . S
C97 C96 1.384 . S
C97 H119 0.929 . S
C98 O108 1.241 . S
C98 O109 1.273 . S
C99 O110 1.251 . S
C99 O111 1.268 . S
O100 Nd80 2.500 . S
O100 C82 1.258 . S
O101 Nd80 2.492 . S
O101 C82 1.239 . S
O102 Nd80 2.487 . S
O102 C89 1.241 . S
O103 Nd80 2.682 . S
O103 Nd81 2.414 . S
O103 C89 1.273 . S
O104 Nd80 2.410 . S
O104 C90 1.251 . S
O105 Nd81 2.424 . S
O105 C90 1.268 . S
O106 Nd81 2.500 . S
O106 C91 1.258 . S
O107 Nd81 2.492 . S
O107 C91 1.239 . S
O108 Nd81 2.487 . S
O108 C98 1.241 . S
O109 Nd80 2.414 . S
O109 Nd81 2.682 . S
O109 C98 1.273 . S
O110 Nd81 2.410 . S
O110 C99 1.251 . S
O111 Nd80 2.424 . S
O111 C99 1.268 . S
H112 C84 0.930 . S
H113 C85 0.929 . S
H114 C87 0.930 . S
H115 C88 0.929 . S
H116 C93 0.930 . S
H117 C94 0.929 . S
H118 C96 0.930 . S
H119 C97 0.929 . S
Nd120 C122 2.836 . S
Nd120 O140 2.500 . S
Nd120 O141 2.492 . S
Nd120 O142 2.487 . S
Nd120 O143 2.682 . S
Nd120 O144 2.410 . S
Nd120 O149 2.414 . S
Nd120 O151 2.424 . S
Nd121 C131 2.836 1_655 S
Nd121 O143 2.414 . S
Nd121 O145 2.424 . S
Nd121 O146 2.500 . S
Nd121 O147 2.492 1_655 S
Nd121 O148 2.487 1_655 S
Nd121 O149 2.682 . S
Nd121 O150 2.410 . S
C122 Nd120 2.836 . S
C122 C123 1.498 . S
C122 O140 1.258 . S
C122 O141 1.239 . S
C123 C122 1.498 . S
C123 C124 1.366 . S
C123 C128 1.407 . S
C124 C123 1.366 . S
C124 C125 1.392 . S
C124 H152 0.930 . S
C125 C124 1.392 . S
C125 C126 1.398 . S
C125 H153 0.929 . S
C126 C125 1.398 . S
C126 C127 1.352 . S
C127 C126 1.352 . S
C127 C128 1.384 . S
C127 H154 0.930 . S
C128 C123 1.407 . S
C128 C127 1.384 . S
C128 H155 0.929 . S
C129 O142 1.241 . S
C129 O143 1.273 . S
C130 O144 1.251 . S
C130 O145 1.268 . S
C131 Nd121 2.836 1_455 S
C131 C132 1.498 . S
C131 O146 1.258 1_455 S
C131 O147 1.239 . S
C132 C131 1.498 . S
C132 C133 1.366 . S
C132 C137 1.407 . S
C133 C132 1.366 . S
C133 C134 1.392 . S
C133 H156 0.930 1_455 S
C134 C133 1.392 . S
C134 C135 1.398 . S
C134 H157 0.929 . S
C135 C134 1.398 . S
C135 C136 1.352 . S
C136 C135 1.352 . S
C136 C137 1.384 . S
C136 H158 0.930 . S
C137 C132 1.407 . S
C137 C136 1.384 . S
C137 H159 0.929 . S
C138 O148 1.241 1_655 S
C138 O149 1.273 . S
C139 O150 1.251 . S
C139 O151 1.268 . S
O140 Nd120 2.500 . S
O140 C122 1.258 . S
O141 Nd120 2.492 . S
O141 C122 1.239 . S
O142 Nd120 2.487 . S
O142 C129 1.241 . S
O143 Nd120 2.682 . S
O143 Nd121 2.414 . S
O143 C129 1.273 . S
O144 Nd120 2.410 . S
O144 C130 1.251 . S
O145 Nd121 2.424 . S
O145 C130 1.268 . S
O146 Nd121 2.500 . S
O146 C131 1.258 1_655 S
O147 Nd121 2.492 1_455 S
O147 C131 1.239 . S
O148 Nd121 2.487 1_455 S
O148 C138 1.241 1_455 S
O149 Nd120 2.414 . S
O149 Nd121 2.682 . S
O149 C138 1.273 . S
O150 Nd121 2.410 . S
O150 C139 1.251 . S
O151 Nd120 2.424 . S
O151 C139 1.268 . S
H152 C124 0.930 . S
H153 C125 0.929 . S
H154 C127 0.930 . S
H155 C128 0.929 . S
H156 C133 0.930 1_655 S
H157 C134 0.929 . S
H158 C136 0.930 . S
H159 C137 0.929 . S
Nd160 C162 2.836 . S
Nd160 O180 2.500 . S
Nd160 O181 2.492 . S
Nd160 O182 2.487 . S
Nd160 O183 2.682 . S
Nd160 O184 2.410 . S
Nd160 O189 2.414 . S
Nd160 O191 2.424 . S
Nd161 C171 2.836 . S
Nd161 O183 2.414 . S
Nd161 O185 2.424 . S
Nd161 O186 2.500 . S
Nd161 O187 2.492 . S
Nd161 O188 2.487 . S
Nd161 O189 2.682 . S
Nd161 O190 2.410 . S
C162 Nd160 2.836 . S
C162 C163 1.498 . S
C162 O180 1.258 . S
C162 O181 1.239 . S
C163 C162 1.498 . S
C163 C164 1.366 . S
C163 C168 1.407 . S
C164 C163 1.366 . S
C164 C165 1.388 1_556 S
C164 H192 0.930 . S
C165 C164 1.388 1_554 S
C165 C166 1.401 . S
C165 H193 0.932 . S
C166 C165 1.401 . S
C166 C167 1.352 1_554 S
C167 C166 1.352 1_556 S
C167 C168 1.384 . S
C167 H194 0.930 . S
C168 C163 1.407 . S
C168 C167 1.384 . S
C168 H195 0.929 . S
C169 O182 1.241 . S
C169 O183 1.273 . S
C170 O184 1.251 . S
C170 O185 1.268 . S
C171 Nd161 2.836 . S
C171 C172 1.498 . S
C171 O186 1.258 . S
C171 O187 1.239 . S
C172 C171 1.498 . S
C172 C173 1.366 . S
C172 C177 1.407 . S
C173 C172 1.366 . S
C173 C174 1.392 . S
C173 H196 0.930 . S
C174 C173 1.392 . S
C174 C175 1.398 . S
C174 H197 0.929 . S
C175 C174 1.398 . S
C175 C176 1.352 . S
C176 C175 1.352 . S
C176 C177 1.384 . S
C176 H198 0.930 . S
C177 C172 1.407 . S
C177 C176 1.384 . S
C177 H199 0.929 . S
C178 O188 1.241 . S
C178 O189 1.273 . S
C179 O190 1.251 . S
C179 O191 1.268 . S
O180 Nd160 2.500 . S
O180 C162 1.258 . S
O181 Nd160 2.492 . S
O181 C162 1.239 . S
O182 Nd160 2.487 . S
O182 C169 1.241 . S
O183 Nd160 2.682 . S
O183 Nd161 2.414 . S
O183 C169 1.273 . S
O184 Nd160 2.410 . S
O184 C170 1.251 . S
O185 Nd161 2.424 . S
O185 C170 1.268 . S
O186 Nd161 2.500 . S
O186 C171 1.258 . S
O187 Nd161 2.492 . S
O187 C171 1.239 . S
O188 Nd161 2.487 . S
O188 C178 1.241 . S
O189 Nd160 2.414 . S
O189 Nd161 2.682 . S
O189 C178 1.273 . S
O190 Nd161 2.410 . S
O190 C179 1.251 . S
O191 Nd160 2.424 . S
O191 C179 1.268 . S
H192 C164 0.930 . S
H193 C165 0.932 . S
H194 C167 0.930 . S
H195 C168 0.929 . S
H196 C173 0.930 . S
H197 C174 0.929 . S
H198 C176 0.930 . S
H199 C177 0.929 . S
Nd200 C202 2.836 . S
Nd200 O220 2.500 . S
Nd200 O221 2.492 . S
Nd200 O222 2.487 . S
Nd200 O223 2.682 . S
Nd200 O224 2.410 . S
Nd200 O229 2.414 . S
Nd200 O231 2.424 . S
Nd201 C211 2.836 . S
Nd201 O223 2.414 . S
Nd201 O225 2.424 . S
Nd201 O226 2.500 . S
Nd201 O227 2.492 . S
Nd201 O228 2.487 . S
Nd201 O229 2.682 . S
Nd201 O230 2.410 . S
C202 Nd200 2.836 . S
C202 C203 1.498 . S
C202 O220 1.258 . S
C202 O221 1.239 . S
C203 C202 1.498 . S
C203 C204 1.366 . S
C203 C208 1.407 . S
C204 C203 1.366 . S
C204 C205 1.392 . S
C204 H232 0.930 . S
C205 C204 1.392 . S
C205 C206 1.398 . S
C205 H233 0.929 . S
C206 C205 1.398 . S
C206 C207 1.352 . S
C207 C206 1.352 . S
C207 C208 1.384 . S
C207 H234 0.930 . S
C208 C203 1.407 . S
C208 C207 1.384 . S
C208 H235 0.929 . S
C209 O222 1.241 . S
C209 O223 1.273 . S
C210 O224 1.251 . S
C210 O225 1.268 . S
C211 Nd201 2.836 . S
C211 C212 1.498 . S
C211 O226 1.258 . S
C211 O227 1.239 . S
C212 C211 1.498 . S
C212 C213 1.366 . S
C212 C217 1.407 . S
C213 C212 1.366 . S
C213 C214 1.392 . S
C213 H236 0.930 . S
C214 C213 1.392 . S
C214 C215 1.398 . S
C214 H237 0.929 . S
C215 C214 1.398 . S
C215 C216 1.352 . S
C216 C215 1.352 . S
C216 C217 1.384 . S
C216 H238 0.930 . S
C217 C212 1.407 . S
C217 C216 1.384 . S
C217 H239 0.929 . S
C218 O228 1.241 . S
C218 O229 1.273 . S
C219 O230 1.251 . S
C219 O231 1.268 . S
O220 Nd200 2.500 . S
O220 C202 1.258 . S
O221 Nd200 2.492 . S
O221 C202 1.239 . S
O222 Nd200 2.487 . S
O222 C209 1.241 . S
O223 Nd200 2.682 . S
O223 Nd201 2.414 . S
O223 C209 1.273 . S
O224 Nd200 2.410 . S
O224 C210 1.251 . S
O225 Nd201 2.424 . S
O225 C210 1.268 . S
O226 Nd201 2.500 . S
O226 C211 1.258 . S
O227 Nd201 2.492 . S
O227 C211 1.239 . S
O228 Nd201 2.487 . S
O228 C218 1.241 . S
O229 Nd200 2.414 . S
O229 Nd201 2.682 . S
O229 C218 1.273 . S
O230 Nd201 2.410 . S
O230 C219 1.251 . S
O231 Nd200 2.424 . S
O231 C219 1.268 . S
H232 C204 0.930 . S
H233 C205 0.929 . S
H234 C207 0.930 . S
H235 C208 0.929 . S
H236 C213 0.930 . S
H237 C214 0.929 . S
H238 C216 0.930 . S
H239 C217 0.929 . S
Nd240 C242 2.836 . S
Nd240 O260 2.500 . S
Nd240 O261 2.492 . S
Nd240 O262 2.487 . S
Nd240 O263 2.682 . S
Nd240 O264 2.410 . S
Nd240 O269 2.414 . S
Nd240 O271 2.424 . S
Nd241 C251 2.836 . S
Nd241 O263 2.414 . S
Nd241 O265 2.424 . S
Nd241 O266 2.500 . S
Nd241 O267 2.492 . S
Nd241 O268 2.487 . S
Nd241 O269 2.682 . S
Nd241 O270 2.410 . S
C242 Nd240 2.836 . S
C242 C243 1.498 . S
C242 O260 1.258 . S
C242 O261 1.239 . S
C243 C242 1.498 . S
C243 C244 1.366 . S
C243 C248 1.407 . S
C244 C243 1.366 . S
C244 C245 1.392 . S
C244 H272 0.930 . S
C245 C244 1.392 . S
C245 C246 1.398 . S
C245 H273 0.929 . S
C246 C245 1.398 . S
C246 C247 1.352 . S
C247 C246 1.352 . S
C247 C248 1.384 . S
C247 H274 0.930 . S
C248 C243 1.407 . S
C248 C247 1.384 . S
C248 H275 0.929 . S
C249 O262 1.241 . S
C249 O263 1.273 . S
C250 O264 1.251 . S
C250 O265 1.268 . S
C251 Nd241 2.836 . S
C251 C252 1.498 . S
C251 O266 1.258 . S
C251 O267 1.239 . S
C252 C251 1.498 . S
C252 C253 1.366 . S
C252 C257 1.407 . S
C253 C252 1.366 . S
C253 C254 1.392 . S
C253 H276 0.930 . S
C254 C253 1.392 . S
C254 C255 1.398 . S
C254 H277 0.929 . S
C255 C254 1.398 . S
C255 C256 1.352 . S
C256 C255 1.352 . S
C256 C257 1.384 . S
C256 H278 0.930 . S
C257 C252 1.407 . S
C257 C256 1.384 . S
C257 H279 0.929 . S
C258 O268 1.241 . S
C258 O269 1.273 . S
C259 O270 1.251 . S
C259 O271 1.268 . S
O260 Nd240 2.500 . S
O260 C242 1.258 . S
O261 Nd240 2.492 . S
O261 C242 1.239 . S
O262 Nd240 2.487 . S
O262 C249 1.241 . S
O263 Nd240 2.682 . S
O263 Nd241 2.414 . S
O263 C249 1.273 . S
O264 Nd240 2.410 . S
O264 C250 1.251 . S
O265 Nd241 2.424 . S
O265 C250 1.268 . S
O266 Nd241 2.500 . S
O266 C251 1.258 . S
O267 Nd241 2.492 . S
O267 C251 1.239 . S
O268 Nd241 2.487 . S
O268 C258 1.241 . S
O269 Nd240 2.414 . S
O269 Nd241 2.682 . S
O269 C258 1.273 . S
O270 Nd241 2.410 . S
O270 C259 1.251 . S
O271 Nd240 2.424 . S
O271 C259 1.268 . S
H272 C244 0.930 . S
H273 C245 0.929 . S
H274 C247 0.930 . S
H275 C248 0.929 . S
H276 C253 0.930 . S
H277 C254 0.929 . S
H278 C256 0.930 . S
H279 C257 0.929 . S
Nd280 C282 2.836 1_455 S
Nd280 O300 2.500 . S
Nd280 O301 2.492 1_455 S
Nd280 O302 2.487 1_455 S
Nd280 O303 2.682 . S
Nd280 O304 2.410 . S
Nd280 O309 2.414 . S
Nd280 O311 2.424 . S
Nd281 C291 2.836 . S
Nd281 O303 2.414 . S
Nd281 O305 2.424 . S
Nd281 O306 2.500 . S
Nd281 O307 2.492 . S
Nd281 O308 2.487 . S
Nd281 O309 2.682 . S
Nd281 O310 2.410 . S
C282 Nd280 2.836 1_655 S
C282 C283 1.498 . S
C282 O300 1.258 1_655 S
C282 O301 1.239 . S
C283 C282 1.498 . S
C283 C284 1.366 . S
C283 C288 1.407 . S
C284 C283 1.366 . S
C284 C285 1.392 . S
C284 H312 0.930 1_655 S
C285 C284 1.392 . S
C285 C286 1.398 . S
C285 H313 0.929 . S
C286 C285 1.398 . S
C286 C287 1.352 . S
C287 C286 1.352 . S
C287 C288 1.384 . S
C287 H314 0.930 . S
C288 C283 1.407 . S
C288 C287 1.384 . S
C288 H315 0.929 . S
C289 O302 1.241 1_455 S
C289 O303 1.273 . S
C290 O304 1.251 . S
C290 O305 1.268 . S
C291 Nd281 2.836 . S
C291 C292 1.498 . S
C291 O306 1.258 . S
C291 O307 1.239 . S
C292 C291 1.498 . S
C292 C293 1.366 . S
C292 C297 1.407 . S
C293 C292 1.366 . S
C293 C294 1.392 . S
C293 H316 0.930 . S
C294 C293 1.392 . S
C294 C295 1.398 . S
C294 H317 0.929 . S
C295 C294 1.398 . S
C295 C296 1.352 . S
C296 C295 1.352 . S
C296 C297 1.384 . S
C296 H318 0.930 . S
C297 C292 1.407 . S
C297 C296 1.384 . S
C297 H319 0.929 . S
C298 O308 1.241 . S
C298 O309 1.273 . S
C299 O310 1.251 . S
C299 O311 1.268 . S
O300 Nd280 2.500 . S
O300 C282 1.258 1_455 S
O301 Nd280 2.492 1_655 S
O301 C282 1.239 . S
O302 Nd280 2.487 1_655 S
O302 C289 1.241 1_655 S
O303 Nd280 2.682 . S
O303 Nd281 2.414 . S
O303 C289 1.273 . S
O304 Nd280 2.410 . S
O304 C290 1.251 . S
O305 Nd281 2.424 . S
O305 C290 1.268 . S
O306 Nd281 2.500 . S
O306 C291 1.258 . S
O307 Nd281 2.492 . S
O307 C291 1.239 . S
O308 Nd281 2.487 . S
O308 C298 1.241 . S
O309 Nd280 2.414 . S
O309 Nd281 2.682 . S
O309 C298 1.273 . S
O310 Nd281 2.410 . S
O310 C299 1.251 . S
O311 Nd280 2.424 . S
O311 C299 1.268 . S
H312 C284 0.930 1_455 S
H313 C285 0.929 . S
H314 C287 0.930 . S
H315 C288 0.929 . S
H316 C293 0.930 . S
H317 C294 0.929 . S
H318 C296 0.930 . S
H319 C297 0.929 . S
Nd320 C322 2.836 . S
Nd320 O340 2.500 . S
Nd320 O341 2.492 . S
Nd320 O342 2.487 . S
Nd320 O343 2.682 . S
Nd320 O344 2.410 . S
Nd320 O349 2.414 . S
Nd320 O351 2.424 . S
Nd321 C331 2.836 . S
Nd321 O343 2.414 . S
Nd321 O345 2.424 . S
Nd321 O346 2.500 . S
Nd321 O347 2.492 . S
Nd321 O348 2.487 . S
Nd321 O349 2.682 . S
Nd321 O350 2.410 . S
C322 Nd320 2.836 . S
C322 C323 1.498 . S
C322 O340 1.258 . S
C322 O341 1.239 . S
C323 C322 1.498 . S
C323 C324 1.366 . S
C323 C328 1.407 . S
C324 C323 1.366 . S
C324 C325 1.392 . S
C324 H352 0.930 . S
C325 C324 1.392 . S
C325 C326 1.398 . S
C325 H353 0.929 . S
C326 C325 1.398 . S
C326 C327 1.352 . S
C327 C326 1.352 . S
C327 C328 1.384 . S
C327 H354 0.930 . S
C328 C323 1.407 . S
C328 C327 1.384 . S
C328 H355 0.929 . S
C329 O342 1.241 . S
C329 O343 1.273 . S
C330 O344 1.251 . S
C330 O345 1.268 . S
C331 Nd321 2.836 . S
C331 C332 1.498 . S
C331 O346 1.258 . S
C331 O347 1.239 . S
C332 C331 1.498 . S
C332 C333 1.366 . S
C332 C337 1.407 . S
C333 C332 1.366 . S
C333 C334 1.392 . S
C333 H356 0.930 . S
C334 C333 1.392 . S
C334 C335 1.398 . S
C334 H357 0.929 . S
C335 C334 1.398 . S
C335 C336 1.352 . S
C336 C335 1.352 . S
C336 C337 1.384 . S
C336 H358 0.930 . S
C337 C332 1.407 . S
C337 C336 1.384 . S
C337 H359 0.929 . S
C338 O348 1.241 . S
C338 O349 1.273 . S
C339 O350 1.251 . S
C339 O351 1.268 . S
O340 Nd320 2.500 . S
O340 C322 1.258 . S
O341 Nd320 2.492 . S
O341 C322 1.239 . S
O342 Nd320 2.487 . S
O342 C329 1.241 . S
O343 Nd320 2.682 . S
O343 Nd321 2.414 . S
O343 C329 1.273 . S
O344 Nd320 2.410 . S
O344 C330 1.251 . S
O345 Nd321 2.424 . S
O345 C330 1.268 . S
O346 Nd321 2.500 . S
O346 C331 1.258 . S
O347 Nd321 2.492 . S
O347 C331 1.239 . S
O348 Nd321 2.487 . S
O348 C338 1.241 . S
O349 Nd320 2.414 . S
O349 Nd321 2.682 . S
O349 C338 1.273 . S
O350 Nd321 2.410 . S
O350 C339 1.251 . S
O351 Nd320 2.424 . S
O351 C339 1.268 . S
H352 C324 0.930 . S
H353 C325 0.929 . S
H354 C327 0.930 . S
H355 C328 0.929 . S
H356 C333 0.930 . S
H357 C334 0.929 . S
H358 C336 0.930 . S
H359 C337 0.929 . S
Nd360 C362 2.836 . S
Nd360 O380 2.500 . S
Nd360 O381 2.492 . S
Nd360 O382 2.487 . S
Nd360 O383 2.682 . S
Nd360 O384 2.410 . S
Nd360 O389 2.414 . S
Nd360 O391 2.424 . S
Nd361 C371 2.836 . S
Nd361 O383 2.414 . S
Nd361 O385 2.424 . S
Nd361 O386 2.500 . S
Nd361 O387 2.492 . S
Nd361 O388 2.487 1_545 S
Nd361 O389 2.682 . S
Nd361 O390 2.410 . S
C362 Nd360 2.836 . S
C362 C363 1.498 . S
C362 O380 1.258 . S
C362 O381 1.239 . S
C363 C362 1.498 . S
C363 C364 1.366 . S
C363 C368 1.407 . S
C364 C363 1.366 . S
C364 C365 1.392 . S
C364 H392 0.930 . S
C365 C364 1.392 . S
C365 C366 1.398 . S
C365 H393 0.929 . S
C366 C365 1.398 . S
C366 C367 1.352 . S
C367 C366 1.352 . S
C367 C368 1.384 . S
C367 H394 0.930 . S
C368 C363 1.407 . S
C368 C367 1.384 . S
C368 H395 0.929 . S
C369 O382 1.241 . S
C369 O383 1.273 . S
C370 O384 1.251 . S
C370 O385 1.268 . S
C371 Nd361 2.836 . S
C371 C372 1.498 . S
C371 O386 1.258 . S
C371 O387 1.239 . S
C372 C371 1.498 . S
C372 C373 1.366 . S
C372 C377 1.407 . S
C373 C372 1.366 . S
C373 C374 1.392 . S
C373 H396 0.930 . S
C374 C373 1.392 . S
C374 C375 1.398 . S
C374 H397 0.929 . S
C375 C374 1.398 . S
C375 C376 1.352 . S
C376 C375 1.352 . S
C376 C377 1.384 . S
C376 H398 0.930 1_545 S
C377 C372 1.407 . S
C377 C376 1.384 . S
C377 H399 0.929 1_545 S
C378 O388 1.241 . S
C378 O389 1.273 1_565 S
C379 O390 1.251 . S
C379 O391 1.268 . S
O380 Nd360 2.500 . S
O380 C362 1.258 . S
O381 Nd360 2.492 . S
O381 C362 1.239 . S
O382 Nd360 2.487 . S
O382 C369 1.241 . S
O383 Nd360 2.682 . S
O383 Nd361 2.414 . S
O383 C369 1.273 . S
O384 Nd360 2.410 . S
O384 C370 1.251 . S
O385 Nd361 2.424 . S
O385 C370 1.268 . S
O386 Nd361 2.500 . S
O386 C371 1.258 . S
O387 Nd361 2.492 . S
O387 C371 1.239 . S
O388 Nd361 2.487 1_565 S
O388 C378 1.241 . S
O389 Nd360 2.414 . S
O389 Nd361 2.682 . S
O389 C378 1.273 1_545 S
O390 Nd361 2.410 . S
O390 C379 1.251 . S
O391 Nd360 2.424 . S
O391 C379 1.268 . S
H392 C364 0.930 . S
H393 C365 0.929 . S
H394 C367 0.930 . S
H395 C368 0.929 . S
H396 C373 0.930 . S
H397 C374 0.929 . S
H398 C376 0.930 1_565 S
H399 C377 0.929 1_565 S
Nd400 C402 2.836 . S
Nd400 O420 2.500 . S
Nd400 O421 2.492 . S
Nd400 O422 2.487 . S
Nd400 O423 2.682 . S
Nd400 O424 2.410 . S
Nd400 O429 2.414 . S
Nd400 O431 2.424 . S
Nd401 C411 2.836 . S
Nd401 O423 2.414 . S
Nd401 O425 2.424 . S
Nd401 O426 2.500 . S
Nd401 O427 2.492 . S
Nd401 O428 2.487 . S
Nd401 O429 2.682 . S
Nd401 O430 2.410 . S
C402 Nd400 2.836 . S
C402 C403 1.498 . S
C402 O420 1.258 . S
C402 O421 1.239 . S
C403 C402 1.498 . S
C403 C404 1.366 . S
C403 C408 1.407 . S
C404 C403 1.366 . S
C404 C405 1.392 . S
C404 H432 0.930 . S
C405 C404 1.392 . S
C405 C406 1.398 . S
C405 H433 0.929 . S
C406 C405 1.398 . S
C406 C407 1.352 . S
C407 C406 1.352 . S
C407 C408 1.384 . S
C407 H434 0.930 . S
C408 C403 1.407 . S
C408 C407 1.384 . S
C408 H435 0.929 . S
C409 O422 1.241 . S
C409 O423 1.273 . S
C410 O424 1.251 . S
C410 O425 1.268 . S
C411 Nd401 2.836 . S
C411 C412 1.527 . S
C411 O426 1.258 . S
C411 O427 1.239 . S
C412 C411 1.527 . S
C412 C413 1.348 1_554 S
C412 C417 1.396 1_554 S
C413 C412 1.348 1_556 S
C413 C414 1.392 . S
C413 H436 0.930 . S
C414 C413 1.392 . S
C414 C415 1.398 . S
C414 H437 0.929 . S
C415 C414 1.398 . S
C415 C416 1.352 . S
C416 C415 1.352 . S
C416 C417 1.384 . S
C416 H438 0.930 . S
C417 C412 1.396 1_556 S
C417 C416 1.384 . S
C417 H439 0.929 . S
C418 O428 1.241 . S
C418 O429 1.273 . S
C419 O430 1.251 . S
C419 O431 1.268 . S
O420 Nd400 2.500 . S
O420 C402 1.258 . S
O421 Nd400 2.492 . S
O421 C402 1.239 . S
O422 Nd400 2.487 . S
O422 C409 1.241 . S
O423 Nd400 2.682 . S
O423 Nd401 2.414 . S
O423 C409 1.273 . S
O424 Nd400 2.410 . S
O424 C410 1.251 . S
O425 Nd401 2.424 . S
O425 C410 1.268 . S
O426 Nd401 2.500 . S
O426 C411 1.258 . S
O427 Nd401 2.492 . S
O427 C411 1.239 . S
O428 Nd401 2.487 . S
O428 C418 1.241 . S
O429 Nd400 2.414 . S
O429 Nd401 2.682 . S
O429 C418 1.273 . S
O430 Nd401 2.410 . S
O430 C419 1.251 . S
O431 Nd400 2.424 . S
O431 C419 1.268 . S
H432 C404 0.930 . S
H433 C405 0.929 . S
H434 C407 0.930 . S
H435 C408 0.929 . S
H436 C413 0.930 . S
H437 C414 0.929 . S
H438 C416 0.930 . S
H439 C417 0.929 . S
Nd440 C442 2.836 . S
Nd440 O460 2.500 . S
Nd440 O461 2.492 . S
Nd440 O462 2.487 1_565 S
Nd440 O463 2.682 1_565 S
Nd440 O464 2.410 . S
Nd440 O469 2.414 . S
Nd440 O471 2.424 . S
Nd441 C451 2.836 1_565 S
Nd441 O463 2.414 1_565 S
Nd441 O465 2.425 . S
Nd441 O466 2.500 1_565 S
Nd441 O467 2.492 . S
Nd441 O468 2.487 . S
Nd441 O469 2.682 . S
Nd441 O470 2.410 . S
C442 Nd440 2.836 . S
C442 C443 1.498 . S
C442 O460 1.258 . S
C442 O461 1.239 . S
C443 C442 1.498 . S
C443 C444 1.366 . S
C443 C448 1.407 . S
C444 C443 1.366 . S
C444 C445 1.392 . S
C444 H472 0.930 . S
C445 C444 1.392 . S
C445 C446 1.398 . S
C445 H473 0.929 . S
C446 C445 1.398 . S
C446 C447 1.352 . S
C447 C446 1.352 . S
C447 C448 1.384 . S
C447 H474 0.930 . S
C448 C443 1.407 . S
C448 C447 1.384 . S
C448 H475 0.929 . S
C449 O462 1.241 . S
C449 O463 1.273 . S
C450 O464 1.251 . S
C450 O465 1.267 . S
C451 Nd441 2.836 1_545 S
C451 C452 1.498 . S
C451 O466 1.258 . S
C451 O467 1.239 1_545 S
C452 C451 1.498 . S
C452 C453 1.366 . S
C452 C457 1.407 . S
C453 C452 1.366 . S
C453 C454 1.392 . S
C453 H476 0.930 . S
C454 C453 1.392 . S
C454 C455 1.398 . S
C454 H477 0.929 . S
C455 C454 1.398 . S
C455 C456 1.352 . S
C456 C455 1.352 . S
C456 C457 1.384 . S
C456 H478 0.930 . S
C457 C452 1.407 . S
C457 C456 1.384 . S
C457 H479 0.929 1_545 S
C458 O468 1.241 . S
C458 O469 1.273 . S
C459 O470 1.251 . S
C459 O471 1.268 . S
O460 Nd440 2.500 . S
O460 C442 1.258 . S
O461 Nd440 2.492 . S
O461 C442 1.239 . S
O462 Nd440 2.487 1_545 S
O462 C449 1.241 . S
O463 Nd440 2.682 1_545 S
O463 Nd441 2.414 1_545 S
O463 C449 1.273 . S
O464 Nd440 2.410 . S
O464 C450 1.251 . S
O465 Nd441 2.425 . S
O465 C450 1.267 . S
O466 Nd441 2.500 1_545 S
O466 C451 1.258 . S
O467 Nd441 2.492 . S
O467 C451 1.239 1_565 S
O468 Nd441 2.487 . S
O468 C458 1.241 . S
O469 Nd440 2.414 . S
O469 Nd441 2.682 . S
O469 C458 1.273 . S
O470 Nd441 2.410 . S
O470 C459 1.251 . S
O471 Nd440 2.424 . S
O471 C459 1.268 . S
H472 C444 0.930 . S
H473 C445 0.929 . S
H474 C447 0.930 . S
H475 C448 0.929 . S
H476 C453 0.930 . S
H477 C454 0.929 . S
H478 C456 0.930 . S
H479 C457 0.929 1_565 S
Nd480 C482 2.836 . S
Nd480 O500 2.500 . S
Nd480 O501 2.492 . S
Nd480 O502 2.487 . S
Nd480 O503 2.682 . S
Nd480 O504 2.410 . S
Nd480 O509 2.414 . S
Nd480 O511 2.424 . S
Nd481 C491 2.836 . S
Nd481 O503 2.414 . S
Nd481 O505 2.424 . S
Nd481 O506 2.500 . S
Nd481 O507 2.492 . S
Nd481 O508 2.487 . S
Nd481 O509 2.682 . S
Nd481 O510 2.410 . S
C482 Nd480 2.836 . S
C482 C483 1.498 . S
C482 O500 1.258 . S
C482 O501 1.239 . S
C483 C482 1.498 . S
C483 C484 1.366 . S
C483 C488 1.407 . S
C484 C483 1.366 . S
C484 C485 1.392 . S
C484 H512 0.930 . S
C485 C484 1.392 . S
C485 C486 1.398 . S
C485 H513 0.929 . S
C486 C485 1.398 . S
C486 C487 1.352 . S
C487 C486 1.352 . S
C487 C488 1.384 . S
C487 H514 0.930 . S
C488 C483 1.407 . S
C488 C487 1.384 . S
C488 H515 0.929 . S
C489 O502 1.241 . S
C489 O503 1.273 . S
C490 O504 1.251 . S
C490 O505 1.268 . S
C491 Nd481 2.836 . S
C491 C492 1.498 . S
C491 O506 1.258 . S
C491 O507 1.239 . S
C492 C491 1.498 . S
C492 C493 1.366 . S
C492 C497 1.407 . S
C493 C492 1.366 . S
C493 C494 1.392 . S
C493 H516 0.930 . S
C494 C493 1.392 . S
C494 C495 1.398 . S
C494 H517 0.929 . S
C495 C494 1.398 . S
C495 C496 1.352 . S
C496 C495 1.352 . S
C496 C497 1.384 . S
C496 H518 0.930 . S
C497 C492 1.407 . S
C497 C496 1.384 . S
C497 H519 0.929 . S
C498 O508 1.241 . S
C498 O509 1.273 . S
C499 O510 1.251 . S
C499 O511 1.268 . S
O500 Nd480 2.500 . S
O500 C482 1.258 . S
O501 Nd480 2.492 . S
O501 C482 1.239 . S
O502 Nd480 2.487 . S
O502 C489 1.241 . S
O503 Nd480 2.682 . S
O503 Nd481 2.414 . S
O503 C489 1.273 . S
O504 Nd480 2.410 . S
O504 C490 1.251 . S
O505 Nd481 2.424 . S
O505 C490 1.268 . S
O506 Nd481 2.500 . S
O506 C491 1.258 . S
O507 Nd481 2.492 . S
O507 C491 1.239 . S
O508 Nd481 2.487 . S
O508 C498 1.241 . S
O509 Nd480 2.414 . S
O509 Nd481 2.682 . S
O509 C498 1.273 . S
O510 Nd481 2.410 . S
O510 C499 1.251 . S
O511 Nd480 2.424 . S
O511 C499 1.268 . S
H512 C484 0.930 . S
H513 C485 0.929 . S
H514 C487 0.930 . S
H515 C488 0.929 . S
H516 C493 0.930 . S
H517 C494 0.929 . S
H518 C496 0.930 . S
H519 C497 0.929 . S
Nd520 C522 2.836 . S
Nd520 O540 2.500 . S
Nd520 O541 2.492 . S
Nd520 O542 2.487 1_565 S
Nd520 O543 2.682 . S
Nd520 O544 2.410 . S
Nd520 O549 2.414 . S
Nd520 O551 2.424 . S
Nd521 C531 2.836 . S
Nd521 O543 2.414 . S
Nd521 O545 2.424 . S
Nd521 O546 2.500 . S
Nd521 O547 2.492 . S
Nd521 O548 2.487 . S
Nd521 O549 2.682 . S
Nd521 O550 2.410 . S
C522 Nd520 2.836 . S
C522 C523 1.498 . S
C522 O540 1.258 . S
C522 O541 1.239 . S
C523 C522 1.498 . S
C523 C524 1.366 . S
C523 C528 1.407 . S
C524 C523 1.366 . S
C524 C525 1.392 . S
C524 H552 0.930 . S
C525 C524 1.392 . S
C525 C526 1.398 . S
C525 H553 0.929 . S
C526 C525 1.398 . S
C526 C527 1.352 . S
C527 C526 1.352 . S
C527 C528 1.384 . S
C527 H554 0.930 1_565 S
C528 C523 1.407 . S
C528 C527 1.384 . S
C528 H555 0.929 1_565 S
C529 O542 1.241 . S
C529 O543 1.273 1_545 S
C530 O544 1.251 . S
C530 O545 1.268 . S
C531 Nd521 2.836 . S
C531 C532 1.498 . S
C531 O546 1.258 . S
C531 O547 1.239 . S
C532 C531 1.498 . S
C532 C533 1.366 . S
C532 C537 1.407 . S
C533 C532 1.366 . S
C533 C534 1.392 . S
C533 H556 0.930 . S
C534 C533 1.392 . S
C534 C535 1.398 . S
C534 H557 0.929 . S
C535 C534 1.398 . S
C535 C536 1.352 . S
C536 C535 1.352 . S
C536 C537 1.384 . S
C536 H558 0.930 . S
C537 C532 1.407 . S
C537 C536 1.384 . S
C537 H559 0.929 . S
C538 O548 1.241 . S
C538 O549 1.273 . S
C539 O550 1.251 . S
C539 O551 1.268 . S
O540 Nd520 2.500 . S
O540 C522 1.258 . S
O541 Nd520 2.492 . S
O541 C522 1.239 . S
O542 Nd520 2.487 1_545 S
O542 C529 1.241 . S
O543 Nd520 2.682 . S
O543 Nd521 2.414 . S
O543 C529 1.273 1_565 S
O544 Nd520 2.410 . S
O544 C530 1.251 . S
O545 Nd521 2.424 . S
O545 C530 1.268 . S
O546 Nd521 2.500 . S
O546 C531 1.258 . S
O547 Nd521 2.492 . S
O547 C531 1.239 . S
O548 Nd521 2.487 . S
O548 C538 1.241 . S
O549 Nd520 2.414 . S
O549 Nd521 2.682 . S
O549 C538 1.273 . S
O550 Nd521 2.410 . S
O550 C539 1.251 . S
O551 Nd520 2.424 . S
O551 C539 1.268 . S
H552 C524 0.930 . S
H553 C525 0.929 . S
H554 C527 0.930 1_545 S
H555 C528 0.929 1_545 S
H556 C533 0.930 . S
H557 C534 0.929 . S
H558 C536 0.930 . S
H559 C537 0.929 . S
Nd560 C562 2.836 . S
Nd560 O580 2.500 . S
Nd560 O581 2.492 . S
Nd560 O582 2.487 . S
Nd560 O583 2.682 . S
Nd560 O584 2.410 . S
Nd560 O589 2.414 . S
Nd560 O591 2.424 . S
Nd561 C571 2.836 . S
Nd561 O583 2.414 . S
Nd561 O585 2.424 . S
Nd561 O586 2.500 . S
Nd561 O587 2.492 . S
Nd561 O588 2.487 . S
Nd561 O589 2.682 . S
Nd561 O590 2.410 . S
C562 Nd560 2.836 . S
C562 C563 1.527 . S
C562 O580 1.258 . S
C562 O581 1.239 . S
C563 C562 1.527 . S
C563 C564 1.348 1_556 S
C563 C568 1.396 1_556 S
C564 C563 1.348 1_554 S
C564 C565 1.392 . S
C564 H592 0.930 . S
C565 C564 1.392 . S
C565 C566 1.398 . S
C565 H593 0.929 . S
C566 C565 1.398 . S
C566 C567 1.352 . S
C567 C566 1.352 . S
C567 C568 1.384 . S
C567 H594 0.930 . S
C568 C563 1.396 1_554 S
C568 C567 1.384 . S
C568 H595 0.929 . S
C569 O582 1.241 . S
C569 O583 1.273 . S
C570 O584 1.251 . S
C570 O585 1.268 . S
C571 Nd561 2.836 . S
C571 C572 1.498 . S
C571 O586 1.258 . S
C571 O587 1.239 . S
C572 C571 1.498 . S
C572 C573 1.366 . S
C572 C577 1.407 . S
C573 C572 1.366 . S
C573 C574 1.392 . S
C573 H596 0.930 . S
C574 C573 1.392 . S
C574 C575 1.398 . S
C574 H597 0.929 . S
C575 C574 1.398 . S
C575 C576 1.352 . S
C576 C575 1.352 . S
C576 C577 1.384 . S
C576 H598 0.930 . S
C577 C572 1.407 . S
C577 C576 1.384 . S
C577 H599 0.929 . S
C578 O588 1.241 . S
C578 O589 1.273 . S
C579 O590 1.251 . S
C579 O591 1.268 . S
O580 Nd560 2.500 . S
O580 C562 1.258 . S
O581 Nd560 2.492 . S
O581 C562 1.239 . S
O582 Nd560 2.487 . S
O582 C569 1.241 . S
O583 Nd560 2.682 . S
O583 Nd561 2.414 . S
O583 C569 1.273 . S
O584 Nd560 2.410 . S
O584 C570 1.251 . S
O585 Nd561 2.424 . S
O585 C570 1.268 . S
O586 Nd561 2.500 . S
O586 C571 1.258 . S
O587 Nd561 2.492 . S
O587 C571 1.239 . S
O588 Nd561 2.487 . S
O588 C578 1.241 . S
O589 Nd560 2.414 . S
O589 Nd561 2.682 . S
O589 C578 1.273 . S
O590 Nd561 2.410 . S
O590 C579 1.251 . S
O591 Nd560 2.424 . S
O591 C579 1.268 . S
H592 C564 0.930 . S
H593 C565 0.929 . S
H594 C567 0.930 . S
H595 C568 0.929 . S
H596 C573 0.930 . S
H597 C574 0.929 . S
H598 C576 0.930 . S
H599 C577 0.929 . S
Nd600 C602 2.836 1_545 S
Nd600 O620 2.500 1_545 S
Nd600 O621 2.492 . S
Nd600 O622 2.487 . S
Nd600 O623 2.682 . S
Nd600 O624 2.410 . S
Nd600 O629 2.414 1_545 S
Nd600 O631 2.425 . S
Nd601 C611 2.836 . S
Nd601 O623 2.414 . S
Nd601 O625 2.424 . S
Nd601 O626 2.500 . S
Nd601 O627 2.492 . S
Nd601 O628 2.487 1_545 S
Nd601 O629 2.682 1_545 S
Nd601 O630 2.410 . S
C602 Nd600 2.836 1_565 S
C602 C603 1.498 . S
C602 O620 1.258 . S
C602 O621 1.239 1_565 S
C603 C602 1.498 . S
C603 C604 1.366 . S
C603 C608 1.407 . S
C604 C603 1.366 . S
C604 C605 1.392 . S
C604 H632 0.930 . S
C605 C604 1.392 . S
C605 C606 1.398 . S
C605 H633 0.929 . S
C606 C605 1.398 . S
C606 C607 1.352 . S
C607 C606 1.352 . S
C607 C608 1.384 . S
C607 H634 0.930 . S
C608 C603 1.407 . S
C608 C607 1.384 . S
C608 H635 0.929 1_565 S
C609 O622 1.241 . S
C609 O623 1.273 . S
C610 O624 1.251 . S
C610 O625 1.268 . S
C611 Nd601 2.836 . S
C611 C612 1.498 . S
C611 O626 1.258 . S
C611 O627 1.239 . S
C612 C611 1.498 . S
C612 C613 1.366 . S
C612 C617 1.407 . S
C613 C612 1.366 . S
C613 C614 1.392 . S
C613 H636 0.930 . S
C614 C613 1.392 . S
C614 C615 1.398 . S
C614 H637 0.929 . S
C615 C614 1.398 . S
C615 C616 1.352 . S
C616 C615 1.352 . S
C616 C617 1.384 . S
C616 H638 0.930 . S
C617 C612 1.407 . S
C617 C616 1.384 . S
C617 H639 0.929 . S
C618 O628 1.241 . S
C618 O629 1.273 . S
C619 O630 1.251 . S
C619 O631 1.267 . S
O620 Nd600 2.500 1_565 S
O620 C602 1.258 . S
O621 Nd600 2.492 . S
O621 C602 1.239 1_545 S
O622 Nd600 2.487 . S
O622 C609 1.241 . S
O623 Nd600 2.682 . S
O623 Nd601 2.414 . S
O623 C609 1.273 . S
O624 Nd600 2.410 . S
O624 C610 1.251 . S
O625 Nd601 2.424 . S
O625 C610 1.268 . S
O626 Nd601 2.500 . S
O626 C611 1.258 . S
O627 Nd601 2.492 . S
O627 C611 1.239 . S
O628 Nd601 2.487 1_565 S
O628 C618 1.241 . S
O629 Nd600 2.414 1_565 S
O629 Nd601 2.682 1_565 S
O629 C618 1.273 . S
O630 Nd601 2.410 . S
O630 C619 1.251 . S
O631 Nd600 2.425 . S
O631 C619 1.267 . S
H632 C604 0.930 . S
H633 C605 0.929 . S
H634 C607 0.930 . S
H635 C608 0.929 1_545 S
H636 C613 0.930 . S
H637 C614 0.929 . S
H638 C616 0.930 . S
H639 C617 0.929 . S
H640 C652 0.930 . S
H641 C654 0.930 . S
H642 C655 0.930 . S
H643 C659 0.959 . S
H644 C659 0.959 . S
H645 C659 0.961 . S
H646 C660 0.960 . S
H647 C660 0.961 . S
H648 C660 0.959 . S
H649 C663 0.929 . S
H650 C664 0.931 . S
H651 C666 0.930 . S
C652 H640 0.930 . S
C652 C653 1.399 . S
C652 C657 1.399 . S
C653 C652 1.399 . S
C653 C654 1.376 . S
C654 H641 0.930 . S
C654 C653 1.376 . S
C654 C655 1.388 . S
C655 H642 0.930 . S
C655 C654 1.388 . S
C655 C656 1.390 . S
C656 C655 1.390 . S
C656 C657 1.394 . S
C656 C662 1.465 . S
C657 C652 1.399 . S
C657 C656 1.394 . S
C657 C658 1.516 . S
C658 C657 1.516 . S
C658 C659 1.502 . S
C658 C660 1.561 . S
C658 C661 1.526 . S
C659 H643 0.959 . S
C659 H644 0.959 . S
C659 H645 0.961 . S
C659 C658 1.502 . S
C660 H646 0.960 . S
C660 H647 0.961 . S
C660 H648 0.959 . S
C660 C658 1.561 . S
C661 C658 1.526 . S
C661 C662 1.396 . S
C661 C666 1.390 . S
C662 C656 1.465 . S
C662 C661 1.396 . S
C662 C663 1.399 . S
C663 H649 0.929 . S
C663 C662 1.399 . S
C663 C664 1.385 . S
C664 H650 0.931 . S
C664 C663 1.385 . S
C664 C665 1.389 . S
C665 C664 1.389 . S
C665 C666 1.387 . S
C666 H651 0.930 . S
C666 C661 1.390 . S
C666 C665 1.387 . S
H667 C679 0.930 . S
H668 C681 0.930 . S
H669 C682 0.930 . S
H670 C686 0.959 . S
H671 C686 0.959 . S
H672 C686 0.961 . S
H673 C687 0.960 . S
H674 C687 0.961 . S
H675 C687 0.959 . S
H676 C690 0.929 . S
H677 C691 0.931 . S
H678 C693 0.930 . S
C679 H667 0.930 . S
C679 C680 1.399 . S
C679 C684 1.399 . S
C680 C679 1.399 . S
C680 C681 1.376 . S
C681 H668 0.930 . S
C681 C680 1.376 . S
C681 C682 1.388 . S
C682 H669 0.930 . S
C682 C681 1.388 . S
C682 C683 1.390 . S
C683 C682 1.390 . S
C683 C684 1.394 . S
C683 C689 1.465 . S
C684 C679 1.399 . S
C684 C683 1.394 . S
C684 C685 1.516 . S
C685 C684 1.516 . S
C685 C686 1.502 . S
C685 C687 1.561 . S
C685 C688 1.526 . S
C686 H670 0.959 . S
C686 H671 0.959 . S
C686 H672 0.961 . S
C686 C685 1.502 . S
C687 H673 0.960 . S
C687 H674 0.961 . S
C687 H675 0.959 . S
C687 C685 1.561 . S
C688 C685 1.526 . S
C688 C689 1.396 . S
C688 C693 1.390 . S
C689 C683 1.465 . S
C689 C688 1.396 . S
C689 C690 1.399 . S
C690 H676 0.929 . S
C690 C689 1.399 . S
C690 C691 1.385 . S
C691 H677 0.931 . S
C691 C690 1.385 . S
C691 C692 1.389 . S
C692 C691 1.389 . S
C692 C693 1.387 . S
C693 H678 0.930 . S
C693 C688 1.390 . S
C693 C692 1.387 . S
H694 C706 0.930 . S
H695 C708 0.930 . S
H696 C709 0.930 . S
H697 C713 0.959 . S
H698 C713 0.959 . S
H699 C713 0.961 . S
H700 C714 0.960 . S
H701 C714 0.961 . S
H702 C714 0.959 . S
H703 C717 0.929 . S
H704 C718 0.931 . S
H705 C720 0.930 . S
C706 H694 0.930 . S
C706 C707 1.399 . S
C706 C711 1.399 . S
C707 C706 1.399 . S
C707 C708 1.376 . S
C708 H695 0.930 . S
C708 C707 1.376 . S
C708 C709 1.388 . S
C709 H696 0.930 . S
C709 C708 1.388 . S
C709 C710 1.390 . S
C710 C709 1.390 . S
C710 C711 1.394 . S
C710 C716 1.465 1_455 S
C711 C706 1.399 . S
C711 C710 1.394 . S
C711 C712 1.516 . S
C712 C711 1.516 . S
C712 C713 1.502 1_455 S
C712 C714 1.561 . S
C712 C715 1.526 1_455 S
C713 H697 0.959 . S
C713 H698 0.959 . S
C713 H699 0.961 . S
C713 C712 1.502 1_655 S
C714 H700 0.960 . S
C714 H701 0.961 . S
C714 H702 0.959 . S
C714 C712 1.561 . S
C715 C712 1.526 1_655 S
C715 C716 1.396 . S
C715 C720 1.390 . S
C716 C710 1.465 1_655 S
C716 C715 1.396 . S
C716 C717 1.399 . S
C717 H703 0.929 . S
C717 C716 1.399 . S
C717 C718 1.385 . S
C718 H704 0.931 . S
C718 C717 1.385 . S
C718 C719 1.389 . S
C719 C718 1.389 . S
C719 C720 1.387 . S
C720 H705 0.930 . S
C720 C715 1.390 . S
C720 C719 1.387 . S
H721 C733 0.930 . S
H722 C735 0.930 . S
H723 C736 0.930 . S
H724 C740 0.959 . S
H725 C740 0.959 . S
H726 C740 0.961 1_455 S
H727 C741 0.960 . S
H728 C741 0.961 . S
H729 C741 0.959 . S
H730 C744 0.929 . S
H731 C745 0.931 . S
H732 C747 0.930 . S
C733 H721 0.930 . S
C733 C734 1.399 . S
C733 C738 1.399 . S
C734 C733 1.399 . S
C734 C735 1.376 . S
C735 H722 0.930 . S
C735 C734 1.376 . S
C735 C736 1.388 . S
C736 H723 0.930 . S
C736 C735 1.388 . S
C736 C737 1.390 . S
C737 C736 1.390 . S
C737 C738 1.394 . S
C737 C743 1.465 . S
C738 C733 1.399 . S
C738 C737 1.394 . S
C738 C739 1.516 . S
C739 C738 1.516 . S
C739 C740 1.502 1_455 S
C739 C741 1.561 . S
C739 C742 1.526 1_455 S
C740 H724 0.959 . S
C740 H725 0.959 . S
C740 H726 0.961 1_655 S
C740 C739 1.502 1_655 S
C741 H727 0.960 . S
C741 H728 0.961 . S
C741 H729 0.959 . S
C741 C739 1.561 . S
C742 C739 1.526 1_655 S
C742 C743 1.396 1_655 S
C742 C747 1.390 . S
C743 C737 1.465 . S
C743 C742 1.396 1_455 S
C743 C744 1.399 1_455 S
C744 H730 0.929 . S
C744 C743 1.399 1_655 S
C744 C745 1.385 . S
C745 H731 0.931 . S
C745 C744 1.385 . S
C745 C746 1.389 . S
C746 C745 1.389 . S
C746 C747 1.387 . S
C747 H732 0.930 . S
C747 C742 1.390 . S
C747 C746 1.387 . S
H748 C760 0.930 . S
H749 C762 0.930 . S
H750 C763 0.930 . S
H751 C767 0.959 . S
H752 C767 0.959 . S
H753 C767 0.961 . S
H754 C768 0.960 . S
H755 C768 0.961 . S
H756 C768 0.959 . S
H757 C771 0.929 . S
H758 C772 0.931 . S
H759 C774 0.930 . S
C760 H748 0.930 . S
C760 C761 1.399 . S
C760 C765 1.399 . S
C761 C760 1.399 . S
C761 C762 1.376 . S
C762 H749 0.930 . S
C762 C761 1.376 . S
C762 C763 1.388 . S
C763 H750 0.930 . S
C763 C762 1.388 . S
C763 C764 1.390 . S
C764 C763 1.390 . S
C764 C765 1.394 . S
C764 C770 1.465 . S
C765 C760 1.399 . S
C765 C764 1.394 . S
C765 C766 1.516 . S
C766 C765 1.516 . S
C766 C767 1.502 . S
C766 C768 1.561 . S
C766 C769 1.526 . S
C767 H751 0.959 . S
C767 H752 0.959 . S
C767 H753 0.961 . S
C767 C766 1.502 . S
C768 H754 0.960 . S
C768 H755 0.961 . S
C768 H756 0.959 . S
C768 C766 1.561 . S
C769 C766 1.526 . S
C769 C770 1.396 . S
C769 C774 1.390 . S
C770 C764 1.465 . S
C770 C769 1.396 . S
C770 C771 1.399 . S
C771 H757 0.929 . S
C771 C770 1.399 . S
C771 C772 1.385 . S
C772 H758 0.931 . S
C772 C771 1.385 . S
C772 C773 1.389 . S
C773 C772 1.389 . S
C773 C774 1.387 . S
C774 H759 0.930 . S
C774 C769 1.390 . S
C774 C773 1.387 . S
H775 C787 0.930 . S
H776 C789 0.930 . S
H777 C790 0.930 . S
H778 C794 0.959 . S
H779 C794 0.959 . S
H780 C794 0.961 . S
H781 C795 0.960 . S
H782 C795 0.961 . S
H783 C795 0.959 . S
H784 C798 0.929 . S
H785 C799 0.931 . S
H786 C801 0.930 . S
C787 H775 0.930 . S
C787 C788 1.399 . S
C787 C792 1.399 . S
C788 C787 1.399 . S
C788 C789 1.376 . S
C789 H776 0.930 . S
C789 C788 1.376 . S
C789 C790 1.388 . S
C790 H777 0.930 . S
C790 C789 1.388 . S
C790 C791 1.390 . S
C791 C790 1.390 . S
C791 C792 1.394 . S
C791 C797 1.465 . S
C792 C787 1.399 . S
C792 C791 1.394 . S
C792 C793 1.516 . S
C793 C792 1.516 . S
C793 C794 1.502 . S
C793 C795 1.561 . S
C793 C796 1.526 . S
C794 H778 0.959 . S
C794 H779 0.959 . S
C794 H780 0.961 . S
C794 C793 1.502 . S
C795 H781 0.960 . S
C795 H782 0.961 . S
C795 H783 0.959 . S
C795 C793 1.561 . S
C796 C793 1.526 . S
C796 C797 1.396 . S
C796 C801 1.390 . S
C797 C791 1.465 . S
C797 C796 1.396 . S
C797 C798 1.399 . S
C798 H784 0.929 . S
C798 C797 1.399 . S
C798 C799 1.385 . S
C799 H785 0.931 . S
C799 C798 1.385 . S
C799 C800 1.389 . S
C800 C799 1.389 . S
C800 C801 1.387 . S
C801 H786 0.930 . S
C801 C796 1.390 . S
C801 C800 1.387 . S
H802 C814 0.930 . S
H803 C816 0.930 . S
H804 C817 0.930 . S
H805 C821 0.959 . S
H806 C821 0.959 . S
H807 C821 0.961 . S
H808 C822 0.960 . S
H809 C822 0.961 1_655 S
H810 C822 0.959 . S
H811 C825 0.929 1_455 S
H812 C826 0.931 . S
H813 C828 0.930 . S
C814 H802 0.930 . S
C814 C815 1.399 . S
C814 C819 1.399 . S
C815 C814 1.399 . S
C815 C816 1.376 . S
C816 H803 0.930 . S
C816 C815 1.376 . S
C816 C817 1.388 . S
C817 H804 0.930 . S
C817 C816 1.388 . S
C817 C818 1.390 . S
C818 C817 1.390 . S
C818 C819 1.394 . S
C818 C824 1.465 1_455 S
C819 C814 1.399 . S
C819 C818 1.394 . S
C819 C820 1.516 1_455 S
C820 C819 1.516 1_655 S
C820 C821 1.502 . S
C820 C822 1.561 1_655 S
C820 C823 1.526 . S
C821 H805 0.959 . S
C821 H806 0.959 . S
C821 H807 0.961 . S
C821 C820 1.502 . S
C822 H808 0.960 . S
C822 H809 0.961 1_455 S
C822 H810 0.959 . S
C822 C820 1.561 1_455 S
C823 C820 1.526 . S
C823 C824 1.396 . S
C823 C828 1.390 . S
C824 C818 1.465 1_655 S
C824 C823 1.396 . S
C824 C825 1.399 . S
C825 H811 0.929 1_655 S
C825 C824 1.399 . S
C825 C826 1.385 . S
C826 H812 0.931 . S
C826 C825 1.385 . S
C826 C827 1.389 . S
C827 C826 1.389 . S
C827 C828 1.387 . S
C828 H813 0.930 . S
C828 C823 1.390 . S
C828 C827 1.387 . S
H829 C841 0.930 . S
H830 C843 0.930 . S
H831 C844 0.930 . S
H832 C848 0.959 . S
H833 C848 0.959 . S
H834 C848 0.961 . S
H835 C849 0.960 . S
H836 C849 0.961 . S
H837 C849 0.959 . S
H838 C852 0.929 . S
H839 C853 0.931 . S
H840 C855 0.930 . S
C841 H829 0.930 . S
C841 C842 1.399 . S
C841 C846 1.399 . S
C842 C841 1.399 . S
C842 C843 1.376 . S
C843 H830 0.930 . S
C843 C842 1.376 . S
C843 C844 1.388 . S
C844 H831 0.930 . S
C844 C843 1.388 . S
C844 C845 1.390 . S
C845 C844 1.390 . S
C845 C846 1.394 . S
C845 C851 1.465 1_455 S
C846 C841 1.399 . S
C846 C845 1.394 . S
C846 C847 1.516 1_455 S
C847 C846 1.516 1_655 S
C847 C848 1.502 . S
C847 C849 1.561 1_655 S
C847 C850 1.526 . S
C848 H832 0.959 . S
C848 H833 0.959 . S
C848 H834 0.961 . S
C848 C847 1.502 . S
C849 H835 0.960 . S
C849 H836 0.961 . S
C849 H837 0.959 . S
C849 C847 1.561 1_455 S
C850 C847 1.526 . S
C850 C851 1.396 . S
C850 C855 1.390 . S
C851 C845 1.465 1_655 S
C851 C850 1.396 . S
C851 C852 1.399 . S
C852 H838 0.929 . S
C852 C851 1.399 . S
C852 C853 1.385 . S
C853 H839 0.931 . S
C853 C852 1.385 . S
C853 C854 1.389 . S
C854 C853 1.389 . S
C854 C855 1.387 . S
C855 H840 0.930 . S
C855 C850 1.390 . S
C855 C854 1.387 . S
H856 C868 0.930 . S
H857 C870 0.930 . S
H858 C871 0.980 . S
H859 C875 0.959 . S
H860 C875 0.959 . S
H861 C875 0.961 . S
H862 C876 0.960 . S
H863 C876 0.961 . S
H864 C876 1.010 . S
H865 C879 0.929 . S
H866 C880 0.931 . S
H867 C882 0.930 . S
C868 H856 0.930 . S
C868 C869 1.399 1_565 S
C868 C873 1.399 . S
C869 C868 1.399 1_545 S
C869 C870 1.376 . S
C870 H857 0.930 . S
C870 C869 1.376 . S
C870 C871 1.388 . S
C871 H858 0.980 . S
C871 C870 1.388 . S
C871 C872 1.390 . S
C872 C871 1.390 . S
C872 C873 1.394 1_545 S
C872 C878 1.465 1_554 S
C873 C868 1.399 . S
C873 C872 1.394 1_565 S
C873 C874 1.516 . S
C874 C873 1.516 . S
C874 C875 1.502 . S
C874 C876 1.561 . S
C874 C877 1.526 1_554 S
C875 H859 0.959 . S
C875 H860 0.959 . S
C875 H861 0.961 . S
C875 C874 1.502 . S
C876 H862 0.960 . S
C876 H863 0.961 . S
C876 H864 1.010 . S
C876 C874 1.561 . S
C877 C874 1.526 1_556 S
C877 C878 1.396 1_565 S
C877 C882 1.390 . S
C878 C872 1.465 1_556 S
C878 C877 1.396 1_545 S
C878 C879 1.399 . S
C879 H865 0.929 . S
C879 C878 1.399 . S
C879 C880 1.385 . S
C880 H866 0.931 . S
C880 C879 1.385 . S
C880 C881 1.389 1_545 S
C881 C880 1.389 1_565 S
C881 C882 1.387 . S
C882 H867 0.930 . S
C882 C877 1.390 . S
C882 C881 1.387 . S
H883 C895 0.930 . S
H884 C897 0.930 . S
H885 C898 0.930 . S
H886 C902 0.959 . S
H887 C902 0.959 . S
H888 C902 0.961 . S
H889 C903 0.960 . S
H890 C903 0.961 . S
H891 C903 0.959 . S
H892 C906 0.929 . S
H893 C907 0.931 . S
H894 C909 0.930 . S
C895 H883 0.930 . S
C895 C896 1.399 . S
C895 C900 1.399 . S
C896 C895 1.399 . S
C896 C897 1.376 . S
C897 H884 0.930 . S
C897 C896 1.376 . S
C897 C898 1.388 . S
C898 H885 0.930 . S
C898 C897 1.388 . S
C898 C899 1.390 . S
C899 C898 1.390 . S
C899 C900 1.394 . S
C899 C905 1.465 . S
C900 C895 1.399 . S
C900 C899 1.394 . S
C900 C901 1.516 . S
C901 C900 1.516 . S
C901 C902 1.502 . S
C901 C903 1.561 . S
C901 C904 1.526 . S
C902 H886 0.959 . S
C902 H887 0.959 . S
C902 H888 0.961 . S
C902 C901 1.502 . S
C903 H889 0.960 . S
C903 H890 0.961 . S
C903 H891 0.959 . S
C903 C901 1.561 . S
C904 C901 1.526 . S
C904 C905 1.396 . S
C904 C909 1.390 . S
C905 C899 1.465 . S
C905 C904 1.396 . S
C905 C906 1.399 . S
C906 H892 0.929 . S
C906 C905 1.399 . S
C906 C907 1.385 . S
C907 H893 0.931 . S
C907 C906 1.385 . S
C907 C908 1.389 . S
C908 C907 1.389 . S
C908 C909 1.387 . S
C909 H894 0.930 . S
C909 C904 1.390 . S
C909 C908 1.387 . S
H910 C922 0.930 . S
H911 C924 0.940 . S
H912 C925 0.930 1_655 S
H913 C929 0.959 . S
H914 C929 0.959 . S
H915 C929 0.961 . S
H916 C930 0.960 . S
H917 C930 0.961 . S
H918 C930 0.959 1_655 S
H919 C933 0.929 . S
H920 C934 0.931 . S
H921 C936 0.930 1_565 S
C922 H910 0.930 . S
C922 C923 1.399 . S
C922 C927 1.399 . S
C923 C922 1.399 . S
C923 C924 1.364 1_565 S
C924 H911 0.940 . S
C924 C923 1.364 1_545 S
C924 C925 1.392 . S
C925 H912 0.930 1_455 S
C925 C924 1.392 . S
C925 C926 1.390 . S
C926 C925 1.390 . S
C926 C927 1.394 1_545 S
C926 C932 1.465 1_455 S
C927 C922 1.399 . S
C927 C926 1.394 1_565 S
C927 C928 1.516 . S
C928 C927 1.516 . S
C928 C929 1.502 . S
C928 C930 1.561 . S
C928 C931 1.526 1_455 S
C929 H913 0.959 . S
C929 H914 0.959 . S
C929 H915 0.961 . S
C929 C928 1.502 . S
C930 H916 0.960 . S
C930 H917 0.961 . S
C930 H918 0.959 1_455 S
C930 C928 1.561 . S
C931 C928 1.526 1_655 S
C931 C932 1.396 1_565 S
C931 C936 1.390 1_565 S
C932 C926 1.465 1_655 S
C932 C931 1.396 1_545 S
C932 C933 1.399 . S
C933 H919 0.929 . S
C933 C932 1.399 . S
C933 C934 1.385 . S
C934 H920 0.931 . S
C934 C933 1.385 . S
C934 C935 1.389 . S
C935 C934 1.389 . S
C935 C936 1.387 . S
C936 H921 0.930 1_545 S
C936 C931 1.390 1_545 S
C936 C935 1.387 . S
H937 C949 0.930 . S
H938 C951 0.930 . S
H939 C952 0.930 . S
H940 C956 0.959 . S
H941 C956 0.959 . S
H942 C956 0.961 . S
H943 C957 0.960 . S
H944 C957 0.961 . S
H945 C957 0.959 . S
H946 C960 0.929 . S
H947 C961 0.931 . S
H948 C963 0.930 . S
C949 H937 0.930 . S
C949 C950 1.399 . S
C949 C954 1.399 . S
C950 C949 1.399 . S
C950 C951 1.376 . S
C951 H938 0.930 . S
C951 C950 1.376 . S
C951 C952 1.388 . S
C952 H939 0.930 . S
C952 C951 1.388 . S
C952 C953 1.390 . S
C953 C952 1.390 . S
C953 C954 1.394 . S
C953 C959 1.465 . S
C954 C949 1.399 . S
C954 C953 1.394 . S
C954 C955 1.516 . S
C955 C954 1.516 . S
C955 C956 1.502 . S
C955 C957 1.561 . S
C955 C958 1.526 . S
C956 H940 0.959 . S
C956 H941 0.959 . S
C956 H942 0.961 . S
C956 C955 1.502 . S
C957 H943 0.960 . S
C957 H944 0.961 . S
C957 H945 0.959 . S
C957 C955 1.561 . S
C958 C955 1.526 . S
C958 C959 1.396 . S
C958 C963 1.390 . S
C959 C953 1.465 . S
C959 C958 1.396 . S
C959 C960 1.399 . S
C960 H946 0.929 . S
C960 C959 1.399 . S
C960 C961 1.385 . S
C961 H947 0.931 . S
C961 C960 1.385 . S
C961 C962 1.389 . S
C962 C961 1.389 . S
C962 C963 1.387 . S
C963 H948 0.930 . S
C963 C958 1.390 . S
C963 C962 1.387 . S
H964 C976 0.930 . S
H965 C978 0.930 . S
H966 C979 0.930 . S
H967 C983 0.959 . S
H968 C983 0.959 . S
H969 C983 0.961 . S
H970 C984 0.960 . S
H971 C984 0.961 . S
H972 C984 0.959 . S
H973 C987 0.929 . S
H974 C988 0.931 . S
H975 C990 0.930 . S
C976 H964 0.930 . S
C976 C977 1.399 . S
C976 C981 1.399 . S
C977 C976 1.399 . S
C977 C978 1.376 . S
C978 H965 0.930 . S
C978 C977 1.376 . S
C978 C979 1.388 . S
C979 H966 0.930 . S
C979 C978 1.388 . S
C979 C980 1.390 . S
C980 C979 1.390 . S
C980 C981 1.394 . S
C980 C986 1.465 . S
C981 C976 1.399 . S
C981 C980 1.394 . S
C981 C982 1.516 . S
C982 C981 1.516 . S
C982 C983 1.502 . S
C982 C984 1.561 . S
C982 C985 1.526 . S
C983 H967 0.959 . S
C983 H968 0.959 . S
C983 H969 0.961 . S
C983 C982 1.502 . S
C984 H970 0.960 . S
C984 H971 0.961 . S
C984 H972 0.959 . S
C984 C982 1.561 . S
C985 C982 1.526 . S
C985 C986 1.396 . S
C985 C990 1.390 . S
C986 C980 1.465 . S
C986 C985 1.396 . S
C986 C987 1.399 . S
C987 H973 0.929 . S
C987 C986 1.399 . S
C987 C988 1.385 . S
C988 H974 0.931 . S
C988 C987 1.385 . S
C988 C989 1.389 . S
C989 C988 1.389 . S
C989 C990 1.387 . S
C990 H975 0.930 . S
C990 C985 1.390 . S
C990 C989 1.387 . S
H991 C1003 0.930 . S
H992 C1005 0.930 . S
H993 C1006 0.930 . S
H994 C1010 0.959 . S
H995 C1010 0.959 . S
H996 C1010 0.961 . S
H997 C1011 0.960 . S
H998 C1011 0.961 . S
H999 C1011 0.959 . S
H1000 C1014 0.929 . S
H1001 C1015 0.931 . S
H1002 C1017 0.930 . S
C1003 H991 0.930 . S
C1003 C1004 1.399 . S
C1003 C1008 1.399 . S
C1004 C1003 1.399 . S
C1004 C1005 1.376 . S
C1005 H992 0.930 . S
C1005 C1004 1.376 . S
C1005 C1006 1.388 . S
C1006 H993 0.930 . S
C1006 C1005 1.388 . S
C1006 C1007 1.390 . S
C1007 C1006 1.390 . S
C1007 C1008 1.394 . S
C1007 C1013 1.465 . S
C1008 C1003 1.399 . S
C1008 C1007 1.394 . S
C1008 C1009 1.516 . S
C1009 C1008 1.516 . S
C1009 C1010 1.502 . S
C1009 C1011 1.561 . S
C1009 C1012 1.526 . S
C1010 H994 0.959 . S
C1010 H995 0.959 . S
C1010 H996 0.961 . S
C1010 C1009 1.502 . S
C1011 H997 0.960 . S
C1011 H998 0.961 . S
C1011 H999 0.959 . S
C1011 C1009 1.561 . S
C1012 C1009 1.526 . S
C1012 C1013 1.396 . S
C1012 C1017 1.390 . S
C1013 C1007 1.465 . S
C1013 C1012 1.396 . S
C1013 C1014 1.399 . S
C1014 H1000 0.929 . S
C1014 C1013 1.399 . S
C1014 C1015 1.385 . S
C1015 H1001 0.931 . S
C1015 C1014 1.385 . S
C1015 C1016 1.389 . S
C1016 C1015 1.389 . S
C1016 C1017 1.387 . S
C1017 H1002 0.930 . S
C1017 C1012 1.390 . S
C1017 C1016 1.387 . S
H1018 C1030 0.930 . S
H1019 C1032 0.930 . S
H1020 C1033 0.930 . S
H1021 C1037 0.959 . S
H1022 C1037 0.959 . S
H1023 C1037 0.961 . S
H1024 C1038 0.960 . S
H1025 C1038 0.961 . S
H1026 C1038 0.959 1_655 S
H1027 C1041 0.929 . S
H1028 C1042 0.931 . S
H1029 C1044 0.930 . S
C1030 H1018 0.930 . S
C1030 C1031 1.399 . S
C1030 C1035 1.399 . S
C1031 C1030 1.399 . S
C1031 C1032 1.376 . S
C1032 H1019 0.930 . S
C1032 C1031 1.376 . S
C1032 C1033 1.388 1_455 S
C1033 H1020 0.930 . S
C1033 C1032 1.388 1_655 S
C1033 C1034 1.390 . S
C1034 C1033 1.390 . S
C1034 C1035 1.394 1_655 S
C1034 C1040 1.465 . S
C1035 C1030 1.399 . S
C1035 C1034 1.394 1_455 S
C1035 C1036 1.516 . S
C1036 C1035 1.516 . S
C1036 C1037 1.502 . S
C1036 C1038 1.561 . S
C1036 C1039 1.526 1_455 S
C1037 H1021 0.959 . S
C1037 H1022 0.959 . S
C1037 H1023 0.961 . S
C1037 C1036 1.502 . S
C1038 H1024 0.960 . S
C1038 H1025 0.961 . S
C1038 H1026 0.959 1_455 S
C1038 C1036 1.561 . S
C1039 C1036 1.526 1_655 S
C1039 C1040 1.396 . S
C1039 C1044 1.390 . S
C1040 C1034 1.465 . S
C1040 C1039 1.396 . S
C1040 C1041 1.399 . S
C1041 H1027 0.929 . S
C1041 C1040 1.399 . S
C1041 C1042 1.385 . S
C1042 H1028 0.931 . S
C1042 C1041 1.385 . S
C1042 C1043 1.389 . S
C1043 C1042 1.389 . S
C1043 C1044 1.387 . S
C1044 H1029 0.930 . S
C1044 C1039 1.390 . S
C1044 C1043 1.387 . S
H1045 C1057 0.930 . S
H1046 C1059 0.930 . S
H1047 C1060 0.930 . S
H1048 C1064 0.959 . S
H1049 C1064 0.959 . S
H1050 C1064 0.961 . S
H1051 C1065 0.960 . S
H1052 C1065 0.961 . S
H1053 C1065 0.982 . S
H1054 C1068 0.970 . S
H1055 C1069 0.931 . S
H1056 C1071 0.930 . S
C1057 H1045 0.930 . S
C1057 C1058 1.399 . S
C1057 C1062 1.399 . S
C1058 C1057 1.399 . S
C1058 C1059 1.376 . S
C1059 H1046 0.930 . S
C1059 C1058 1.376 . S
C1059 C1060 1.388 . S
C1060 H1047 0.930 . S
C1060 C1059 1.388 . S
C1060 C1061 1.390 . S
C1061 C1060 1.390 . S
C1061 C1062 1.394 . S
C1061 C1067 1.461 . S
C1062 C1057 1.399 . S
C1062 C1061 1.394 . S
C1062 C1063 1.516 1_554 S
C1063 C1062 1.516 1_556 S
C1063 C1064 1.502 . S
C1063 C1065 1.561 . S
C1063 C1066 1.526 . S
C1064 H1048 0.959 . S
C1064 H1049 0.959 . S
C1064 H1050 0.961 . S
C1064 C1063 1.502 . S
C1065 H1051 0.960 . S
C1065 H1052 0.961 . S
C1065 H1053 0.982 . S
C1065 C1063 1.561 . S
C1066 C1063 1.526 . S
C1066 C1067 1.401 1_556 S
C1066 C1071 1.390 . S
C1067 C1061 1.461 . S
C1067 C1066 1.401 1_554 S
C1067 C1068 1.398 . S
C1068 H1054 0.970 . S
C1068 C1067 1.398 . S
C1068 C1069 1.346 1_554 S
C1069 H1055 0.931 . S
C1069 C1068 1.346 1_556 S
C1069 C1070 1.389 . S
C1070 C1069 1.389 . S
C1070 C1071 1.387 . S
C1071 H1056 0.930 . S
C1071 C1066 1.390 . S
C1071 C1070 1.387 . S
H1072 C1084 0.930 . S
H1073 C1086 0.930 . S
H1074 C1087 0.930 . S
H1075 C1091 0.959 . S
H1076 C1091 0.959 . S
H1077 C1091 0.961 . S
H1078 C1092 0.960 . S
H1079 C1092 0.961 . S
H1080 C1092 0.959 . S
H1081 C1095 0.929 . S
H1082 C1096 0.931 . S
H1083 C1098 0.930 . S
C1084 H1072 0.930 . S
C1084 C1085 1.399 . S
C1084 C1089 1.399 . S
C1085 C1084 1.399 . S
C1085 C1086 1.376 . S
C1086 H1073 0.930 . S
C1086 C1085 1.376 . S
C1086 C1087 1.388 . S
C1087 H1074 0.930 . S
C1087 C1086 1.388 . S
C1087 C1088 1.390 . S
C1088 C1087 1.390 . S
C1088 C1089 1.394 . S
C1088 C1094 1.465 . S
C1089 C1084 1.399 . S
C1089 C1088 1.394 . S
C1089 C1090 1.516 . S
C1090 C1089 1.516 . S
C1090 C1091 1.502 . S
C1090 C1092 1.561 . S
C1090 C1093 1.526 . S
C1091 H1075 0.959 . S
C1091 H1076 0.959 . S
C1091 H1077 0.961 . S
C1091 C1090 1.502 . S
C1092 H1078 0.960 . S
C1092 H1079 0.961 . S
C1092 H1080 0.959 . S
C1092 C1090 1.561 . S
C1093 C1090 1.526 . S
C1093 C1094 1.396 . S
C1093 C1098 1.390 . S
C1094 C1088 1.465 . S
C1094 C1093 1.396 . S
C1094 C1095 1.399 . S
C1095 H1081 0.929 . S
C1095 C1094 1.399 . S
C1095 C1096 1.385 . S
C1096 H1082 0.931 . S
C1096 C1095 1.385 . S
C1096 C1097 1.389 . S
C1097 C1096 1.389 . S
C1097 C1098 1.387 . S
C1098 H1083 0.930 . S
C1098 C1093 1.390 . S
C1098 C1097 1.387 . S
H1099 C1111 0.930 . S
H1100 C1113 0.930 . S
H1101 C1114 0.930 . S
H1102 C1118 0.959 . S
H1103 C1118 0.959 . S
H1104 C1118 0.961 . S
H1105 C1119 0.960 . S
H1106 C1119 0.961 . S
H1107 C1119 0.959 . S
H1108 C1122 0.929 . S
H1109 C1123 0.931 . S
H1110 C1125 0.930 . S
C1111 H1099 0.930 . S
C1111 C1112 1.399 . S
C1111 C1116 1.399 . S
C1112 C1111 1.399 . S
C1112 C1113 1.376 . S
C1113 H1100 0.930 . S
C1113 C1112 1.376 . S
C1113 C1114 1.388 . S
C1114 H1101 0.930 . S
C1114 C1113 1.388 . S
C1114 C1115 1.390 . S
C1115 C1114 1.390 . S
C1115 C1116 1.394 . S
C1115 C1121 1.465 . S
C1116 C1111 1.399 . S
C1116 C1115 1.394 . S
C1116 C1117 1.516 . S
C1117 C1116 1.516 . S
C1117 C1118 1.502 . S
C1117 C1119 1.561 . S
C1117 C1120 1.526 . S
C1118 H1102 0.959 . S
C1118 H1103 0.959 . S
C1118 H1104 0.961 . S
C1118 C1117 1.502 . S
C1119 H1105 0.960 . S
C1119 H1106 0.961 . S
C1119 H1107 0.959 . S
C1119 C1117 1.561 . S
C1120 C1117 1.526 . S
C1120 C1121 1.396 . S
C1120 C1125 1.390 . S
C1121 C1115 1.465 . S
C1121 C1120 1.396 . S
C1121 C1122 1.399 . S
C1122 H1108 0.929 . S
C1122 C1121 1.399 . S
C1122 C1123 1.385 . S
C1123 H1109 0.931 . S
C1123 C1122 1.385 . S
C1123 C1124 1.389 . S
C1124 C1123 1.389 . S
C1124 C1125 1.387 . S
C1125 H1110 0.930 . S
C1125 C1120 1.390 . S
C1125 C1124 1.387 . S
H1126 C1138 0.930 . S
H1127 C1140 0.930 . S
H1128 C1141 0.930 . S
H1129 C1145 0.959 . S
H1130 C1145 0.959 . S
H1131 C1145 0.961 . S
H1132 C1146 0.960 . S
H1133 C1146 0.961 . S
H1134 C1146 0.959 . S
H1135 C1149 0.929 . S
H1136 C1150 0.931 . S
H1137 C1152 0.930 . S
C1138 H1126 0.930 . S
C1138 C1139 1.399 . S
C1138 C1143 1.399 . S
C1139 C1138 1.399 . S
C1139 C1140 1.376 . S
C1140 H1127 0.930 . S
C1140 C1139 1.376 . S
C1140 C1141 1.388 . S
C1141 H1128 0.930 . S
C1141 C1140 1.388 . S
C1141 C1142 1.390 . S
C1142 C1141 1.390 . S
C1142 C1143 1.394 . S
C1142 C1148 1.465 . S
C1143 C1138 1.399 . S
C1143 C1142 1.394 . S
C1143 C1144 1.516 . S
C1144 C1143 1.516 . S
C1144 C1145 1.502 . S
C1144 C1146 1.561 . S
C1144 C1147 1.526 . S
C1145 H1129 0.959 . S
C1145 H1130 0.959 . S
C1145 H1131 0.961 . S
C1145 C1144 1.502 . S
C1146 H1132 0.960 . S
C1146 H1133 0.961 . S
C1146 H1134 0.959 . S
C1146 C1144 1.561 . S
C1147 C1144 1.526 . S
C1147 C1148 1.396 . S
C1147 C1152 1.390 . S
C1148 C1142 1.465 . S
C1148 C1147 1.396 . S
C1148 C1149 1.399 . S
C1149 H1135 0.929 . S
C1149 C1148 1.399 . S
C1149 C1150 1.385 . S
C1150 H1136 0.931 . S
C1150 C1149 1.385 . S
C1150 C1151 1.389 . S
C1151 C1150 1.389 . S
C1151 C1152 1.387 . S
C1152 H1137 0.930 . S
C1152 C1147 1.390 . S
C1152 C1151 1.387 . S
H1153 C1165 0.930 . S
H1154 C1167 0.930 . S
H1155 C1168 0.930 . S
H1156 C1172 0.959 . S
H1157 C1172 0.959 . S
H1158 C1172 0.961 . S
H1159 C1173 0.960 . S
H1160 C1173 0.961 . S
H1161 C1173 0.959 . S
H1162 C1176 0.929 . S
H1163 C1177 0.931 . S
H1164 C1179 0.930 . S
C1165 H1153 0.930 . S
C1165 C1166 1.399 . S
C1165 C1170 1.399 . S
C1166 C1165 1.399 . S
C1166 C1167 1.376 . S
C1167 H1154 0.930 . S
C1167 C1166 1.376 . S
C1167 C1168 1.388 . S
C1168 H1155 0.930 . S
C1168 C1167 1.388 . S
C1168 C1169 1.390 . S
C1169 C1168 1.390 . S
C1169 C1170 1.394 . S
C1169 C1175 1.465 . S
C1170 C1165 1.399 . S
C1170 C1169 1.394 . S
C1170 C1171 1.516 . S
C1171 C1170 1.516 . S
C1171 C1172 1.502 . S
C1171 C1173 1.561 . S
C1171 C1174 1.526 . S
C1172 H1156 0.959 . S
C1172 H1157 0.959 . S
C1172 H1158 0.961 . S
C1172 C1171 1.502 . S
C1173 H1159 0.960 . S
C1173 H1160 0.961 . S
C1173 H1161 0.959 . S
C1173 C1171 1.561 . S
C1174 C1171 1.526 . S
C1174 C1175 1.396 . S
C1174 C1179 1.390 . S
C1175 C1169 1.465 . S
C1175 C1174 1.396 . S
C1175 C1176 1.399 . S
C1176 H1162 0.929 . S
C1176 C1175 1.399 . S
C1176 C1177 1.385 . S
C1177 H1163 0.931 . S
C1177 C1176 1.385 . S
C1177 C1178 1.389 . S
C1178 C1177 1.389 . S
C1178 C1179 1.387 . S
C1179 H1164 0.930 . S
C1179 C1174 1.390 . S
C1179 C1178 1.387 . S
H1180 C1192 0.930 . S
H1181 C1194 0.930 . S
H1182 C1195 0.930 . S
H1183 C1199 0.959 . S
H1184 C1199 0.959 . S
H1185 C1199 0.961 . S
H1186 C1200 0.960 . S
H1187 C1200 0.961 . S
H1188 C1200 0.959 . S
H1189 C1203 0.929 . S
H1190 C1204 0.931 . S
H1191 C1206 0.930 . S
C1192 H1180 0.930 . S
C1192 C1193 1.399 . S
C1192 C1197 1.399 . S
C1193 C1192 1.399 . S
C1193 C1194 1.376 . S
C1194 H1181 0.930 . S
C1194 C1193 1.376 . S
C1194 C1195 1.388 . S
C1195 H1182 0.930 . S
C1195 C1194 1.388 . S
C1195 C1196 1.390 . S
C1196 C1195 1.390 . S
C1196 C1197 1.394 . S
C1196 C1202 1.465 . S
C1197 C1192 1.399 . S
C1197 C1196 1.394 . S
C1197 C1198 1.516 . S
C1198 C1197 1.516 . S
C1198 C1199 1.502 . S
C1198 C1200 1.561 . S
C1198 C1201 1.526 . S
C1199 H1183 0.959 . S
C1199 H1184 0.959 . S
C1199 H1185 0.961 . S
C1199 C1198 1.502 . S
C1200 H1186 0.960 . S
C1200 H1187 0.961 . S
C1200 H1188 0.959 . S
C1200 C1198 1.561 . S
C1201 C1198 1.526 . S
C1201 C1202 1.396 . S
C1201 C1206 1.390 . S
C1202 C1196 1.465 . S
C1202 C1201 1.396 . S
C1202 C1203 1.399 . S
C1203 H1189 0.929 . S
C1203 C1202 1.399 . S
C1203 C1204 1.385 . S
C1204 H1190 0.931 . S
C1204 C1203 1.385 . S
C1204 C1205 1.389 . S
C1205 C1204 1.389 . S
C1205 C1206 1.387 . S
C1206 H1191 0.930 . S
C1206 C1201 1.390 . S
C1206 C1205 1.387 . S
H1207 C1219 0.930 . S
H1208 C1221 0.930 . S
H1209 C1222 0.930 . S
H1210 C1226 0.959 . S
H1211 C1226 0.959 . S
H1212 C1226 0.961 . S
H1213 C1227 0.960 . S
H1214 C1227 0.961 . S
H1215 C1227 0.959 . S
H1216 C1230 0.929 . S
H1217 C1231 0.931 . S
H1218 C1233 0.930 . S
C1219 H1207 0.930 . S
C1219 C1220 1.399 . S
C1219 C1224 1.399 . S
C1220 C1219 1.399 . S
C1220 C1221 1.376 . S
C1221 H1208 0.930 . S
C1221 C1220 1.376 . S
C1221 C1222 1.388 . S
C1222 H1209 0.930 . S
C1222 C1221 1.388 . S
C1222 C1223 1.390 . S
C1223 C1222 1.390 . S
C1223 C1224 1.394 . S
C1223 C1229 1.465 . S
C1224 C1219 1.399 . S
C1224 C1223 1.394 . S
C1224 C1225 1.516 . S
C1225 C1224 1.516 . S
C1225 C1226 1.502 . S
C1225 C1227 1.561 . S
C1225 C1228 1.526 . S
C1226 H1210 0.959 . S
C1226 H1211 0.959 . S
C1226 H1212 0.961 . S
C1226 C1225 1.502 . S
C1227 H1213 0.960 . S
C1227 H1214 0.961 . S
C1227 H1215 0.959 . S
C1227 C1225 1.561 . S
C1228 C1225 1.526 . S
C1228 C1229 1.396 . S
C1228 C1233 1.390 . S
C1229 C1223 1.465 . S
C1229 C1228 1.396 . S
C1229 C1230 1.399 . S
C1230 H1216 0.929 . S
C1230 C1229 1.399 . S
C1230 C1231 1.385 . S
C1231 H1217 0.931 . S
C1231 C1230 1.385 . S
C1231 C1232 1.389 . S
C1232 C1231 1.389 . S
C1232 C1233 1.387 . S
C1233 H1218 0.930 . S
C1233 C1228 1.390 . S
C1233 C1232 1.387 . S
H1234 C1246 0.930 . S
H1235 C1248 0.930 . S
H1236 C1249 0.930 . S
H1237 C1253 0.959 . S
H1238 C1253 0.959 . S
H1239 C1253 0.961 . S
H1240 C1254 0.960 . S
H1241 C1254 0.961 . S
H1242 C1254 0.959 . S
H1243 C1257 0.929 . S
H1244 C1258 0.931 . S
H1245 C1260 0.930 . S
C1246 H1234 0.930 . S
C1246 C1247 1.399 . S
C1246 C1251 1.399 . S
C1247 C1246 1.399 . S
C1247 C1248 1.376 . S
C1248 H1235 0.930 . S
C1248 C1247 1.376 . S
C1248 C1249 1.388 . S
C1249 H1236 0.930 . S
C1249 C1248 1.388 . S
C1249 C1250 1.390 . S
C1250 C1249 1.390 . S
C1250 C1251 1.394 . S
C1250 C1256 1.465 . S
C1251 C1246 1.399 . S
C1251 C1250 1.394 . S
C1251 C1252 1.516 . S
C1252 C1251 1.516 . S
C1252 C1253 1.502 . S
C1252 C1254 1.561 . S
C1252 C1255 1.526 . S
C1253 H1237 0.959 . S
C1253 H1238 0.959 . S
C1253 H1239 0.961 . S
C1253 C1252 1.502 . S
C1254 H1240 0.960 . S
C1254 H1241 0.961 . S
C1254 H1242 0.959 . S
C1254 C1252 1.561 . S
C1255 C1252 1.526 . S
C1255 C1256 1.396 . S
C1255 C1260 1.390 . S
C1256 C1250 1.465 . S
C1256 C1255 1.396 . S
C1256 C1257 1.399 . S
C1257 H1243 0.929 . S
C1257 C1256 1.399 . S
C1257 C1258 1.385 . S
C1258 H1244 0.931 . S
C1258 C1257 1.385 . S
C1258 C1259 1.389 . S
C1259 C1258 1.389 . S
C1259 C1260 1.387 . S
C1260 H1245 0.930 . S
C1260 C1255 1.390 . S
C1260 C1259 1.387 . S
H1261 C1273 0.930 . S
H1262 C1275 0.930 . S
H1263 C1276 0.930 . S
H1264 C1280 0.959 . S
H1265 C1280 0.959 . S
H1266 C1280 0.961 . S
H1267 C1281 0.960 . S
H1268 C1281 0.961 . S
H1269 C1281 0.959 . S
H1270 C1284 0.929 . S
H1271 C1285 0.931 . S
H1272 C1287 0.930 . S
C1273 H1261 0.930 . S
C1273 C1274 1.399 . S
C1273 C1278 1.399 . S
C1274 C1273 1.399 . S
C1274 C1275 1.376 . S
C1275 H1262 0.930 . S
C1275 C1274 1.376 . S
C1275 C1276 1.388 . S
C1276 H1263 0.930 . S
C1276 C1275 1.388 . S
C1276 C1277 1.390 . S
C1277 C1276 1.390 . S
C1277 C1278 1.394 . S
C1277 C1283 1.465 . S
C1278 C1273 1.399 . S
C1278 C1277 1.394 . S
C1278 C1279 1.516 . S
C1279 C1278 1.516 . S
C1279 C1280 1.502 . S
C1279 C1281 1.561 . S
C1279 C1282 1.526 . S
C1280 H1264 0.959 . S
C1280 H1265 0.959 . S
C1280 H1266 0.961 . S
C1280 C1279 1.502 . S
C1281 H1267 0.960 . S
C1281 H1268 0.961 . S
C1281 H1269 0.959 . S
C1281 C1279 1.561 . S
C1282 C1279 1.526 . S
C1282 C1283 1.396 . S
C1282 C1287 1.390 . S
C1283 C1277 1.465 . S
C1283 C1282 1.396 . S
C1283 C1284 1.399 . S
C1284 H1270 0.929 . S
C1284 C1283 1.399 . S
C1284 C1285 1.385 . S
C1285 H1271 0.931 . S
C1285 C1284 1.385 . S
C1285 C1286 1.389 . S
C1286 C1285 1.389 . S
C1286 C1287 1.387 . S
C1287 H1272 0.930 . S
C1287 C1282 1.390 . S
C1287 C1286 1.387 . S
H1288 C1300 0.930 . S
H1289 C1302 0.930 . S
H1290 C1303 0.930 . S
H1291 C1307 0.959 . S
H1292 C1307 0.959 . S
H1293 C1307 0.961 . S
H1294 C1308 0.960 . S
H1295 C1308 0.961 . S
H1296 C1308 0.959 . S
H1297 C1311 0.929 . S
H1298 C1312 0.931 . S
H1299 C1314 0.930 . S
C1300 H1288 0.930 . S
C1300 C1301 1.399 . S
C1300 C1305 1.399 . S
C1301 C1300 1.399 . S
C1301 C1302 1.376 . S
C1302 H1289 0.930 . S
C1302 C1301 1.376 . S
C1302 C1303 1.388 . S
C1303 H1290 0.930 . S
C1303 C1302 1.388 . S
C1303 C1304 1.390 . S
C1304 C1303 1.390 . S
C1304 C1305 1.394 . S
C1304 C1310 1.465 . S
C1305 C1300 1.399 . S
C1305 C1304 1.394 . S
C1305 C1306 1.516 . S
C1306 C1305 1.516 . S
C1306 C1307 1.502 . S
C1306 C1308 1.561 . S
C1306 C1309 1.526 . S
C1307 H1291 0.959 . S
C1307 H1292 0.959 . S
C1307 H1293 0.961 . S
C1307 C1306 1.502 . S
C1308 H1294 0.960 . S
C1308 H1295 0.961 . S
C1308 H1296 0.959 . S
C1308 C1306 1.561 . S
C1309 C1306 1.526 . S
C1309 C1310 1.396 . S
C1309 C1314 1.390 . S
C1310 C1304 1.465 . S
C1310 C1309 1.396 . S
C1310 C1311 1.399 . S
C1311 H1297 0.929 . S
C1311 C1310 1.399 . S
C1311 C1312 1.385 . S
C1312 H1298 0.931 . S
C1312 C1311 1.385 . S
C1312 C1313 1.389 . S
C1313 C1312 1.389 . S
C1313 C1314 1.387 . S
C1314 H1299 0.930 . S
C1314 C1309 1.390 . S
C1314 C1313 1.387 . S
H1315 C1327 0.930 1_545 S
H1316 C1329 0.930 . S
H1317 C1330 0.930 . S
H1318 C1334 0.959 . S
H1319 C1334 0.959 . S
H1320 C1334 0.961 . S
H1321 C1335 0.960 . S
H1322 C1335 0.961 . S
H1323 C1335 0.959 . S
H1324 C1338 0.929 . S
H1325 C1339 0.931 . S
H1326 C1341 0.930 . S
C1327 H1315 0.930 1_565 S
C1327 C1328 1.399 . S
C1327 C1332 1.399 . S
C1328 C1327 1.399 . S
C1328 C1329 1.376 . S
C1329 H1316 0.930 . S
C1329 C1328 1.376 . S
C1329 C1330 1.388 . S
C1330 H1317 0.930 . S
C1330 C1329 1.388 . S
C1330 C1331 1.390 . S
C1331 C1330 1.390 . S
C1331 C1332 1.394 . S
C1331 C1337 1.465 . S
C1332 C1327 1.399 . S
C1332 C1331 1.394 . S
C1332 C1333 1.516 1_565 S
C1333 C1332 1.516 1_545 S
C1333 C1334 1.502 . S
C1333 C1335 1.561 . S
C1333 C1336 1.526 . S
C1334 H1318 0.959 . S
C1334 H1319 0.959 . S
C1334 H1320 0.961 . S
C1334 C1333 1.502 . S
C1335 H1321 0.960 . S
C1335 H1322 0.961 . S
C1335 H1323 0.959 . S
C1335 C1333 1.561 . S
C1336 C1333 1.526 . S
C1336 C1337 1.396 1_545 S
C1336 C1341 1.390 . S
C1337 C1331 1.465 . S
C1337 C1336 1.396 1_565 S
C1337 C1338 1.399 . S
C1338 H1324 0.929 . S
C1338 C1337 1.399 . S
C1338 C1339 1.385 1_655 S
C1339 H1325 0.931 . S
C1339 C1338 1.385 1_455 S
C1339 C1340 1.389 1_565 S
C1340 C1339 1.389 1_545 S
C1340 C1341 1.387 1_455 S
C1341 H1326 0.930 . S
C1341 C1336 1.390 . S
C1341 C1340 1.387 1_655 S
H1342 C1354 0.930 . S
H1343 C1356 0.930 . S
H1344 C1357 0.930 . S
H1345 C1361 0.959 . S
H1346 C1361 0.959 . S
H1347 C1361 0.961 . S
H1348 C1362 0.960 . S
H1349 C1362 0.961 . S
H1350 C1362 0.959 . S
H1351 C1365 0.929 . S
H1352 C1366 0.931 . S
H1353 C1368 0.930 . S
C1354 H1342 0.930 . S
C1354 C1355 1.399 . S
C1354 C1359 1.399 . S
C1355 C1354 1.399 . S
C1355 C1356 1.376 . S
C1356 H1343 0.930 . S
C1356 C1355 1.376 . S
C1356 C1357 1.388 . S
C1357 H1344 0.930 . S
C1357 C1356 1.388 . S
C1357 C1358 1.390 . S
C1358 C1357 1.390 . S
C1358 C1359 1.394 . S
C1358 C1364 1.465 . S
C1359 C1354 1.399 . S
C1359 C1358 1.394 . S
C1359 C1360 1.516 . S
C1360 C1359 1.516 . S
C1360 C1361 1.502 . S
C1360 C1362 1.561 . S
C1360 C1363 1.526 . S
C1361 H1345 0.959 . S
C1361 H1346 0.959 . S
C1361 H1347 0.961 . S
C1361 C1360 1.502 . S
C1362 H1348 0.960 . S
C1362 H1349 0.961 . S
C1362 H1350 0.959 . S
C1362 C1360 1.561 . S
C1363 C1360 1.526 . S
C1363 C1364 1.396 . S
C1363 C1368 1.390 . S
C1364 C1358 1.465 . S
C1364 C1363 1.396 . S
C1364 C1365 1.399 . S
C1365 H1351 0.929 . S
C1365 C1364 1.399 . S
C1365 C1366 1.385 . S
C1366 H1352 0.931 . S
C1366 C1365 1.385 . S
C1366 C1367 1.389 . S
C1367 C1366 1.389 . S
C1367 C1368 1.387 . S
C1368 H1353 0.930 . S
C1368 C1363 1.390 . S
C1368 C1367 1.387 . S
H1369 C1381 0.930 . S
H1370 C1383 0.930 . S
H1371 C1384 0.930 . S
H1372 C1388 0.959 . S
H1373 C1388 0.959 . S
H1374 C1388 0.961 . S
H1375 C1389 0.960 . S
H1376 C1389 0.961 . S
H1377 C1389 0.959 . S
H1378 C1392 0.929 . S
H1379 C1393 0.931 . S
H1380 C1395 0.930 . S
C1381 H1369 0.930 . S
C1381 C1382 1.399 . S
C1381 C1386 1.399 . S
C1382 C1381 1.399 . S
C1382 C1383 1.376 . S
C1383 H1370 0.930 . S
C1383 C1382 1.376 . S
C1383 C1384 1.388 . S
C1384 H1371 0.930 . S
C1384 C1383 1.388 . S
C1384 C1385 1.390 . S
C1385 C1384 1.390 . S
C1385 C1386 1.394 . S
C1385 C1391 1.465 . S
C1386 C1381 1.399 . S
C1386 C1385 1.394 . S
C1386 C1387 1.516 . S
C1387 C1386 1.516 . S
C1387 C1388 1.502 . S
C1387 C1389 1.561 . S
C1387 C1390 1.526 . S
C1388 H1372 0.959 . S
C1388 H1373 0.959 . S
C1388 H1374 0.961 . S
C1388 C1387 1.502 . S
C1389 H1375 0.960 . S
C1389 H1376 0.961 . S
C1389 H1377 0.959 . S
C1389 C1387 1.561 . S
C1390 C1387 1.526 . S
C1390 C1391 1.396 . S
C1390 C1395 1.390 . S
C1391 C1385 1.465 . S
C1391 C1390 1.396 . S
C1391 C1392 1.399 . S
C1392 H1378 0.929 . S
C1392 C1391 1.399 . S
C1392 C1393 1.385 . S
C1393 H1379 0.931 . S
C1393 C1392 1.385 . S
C1393 C1394 1.389 . S
C1394 C1393 1.389 . S
C1394 C1395 1.387 . S
C1395 H1380 0.930 . S
C1395 C1390 1.390 . S
C1395 C1394 1.387 . S
H1396 C1408 0.930 . S
H1397 C1410 0.930 . S
H1398 C1411 0.930 . S
H1399 C1415 0.959 . S
H1400 C1415 0.959 . S
H1401 C1415 0.961 . S
H1402 C1416 0.960 . S
H1403 C1416 0.961 . S
H1404 C1416 0.959 . S
H1405 C1419 0.929 . S
H1406 C1420 0.931 . S
H1407 C1422 0.930 . S
C1408 H1396 0.930 . S
C1408 C1409 1.399 . S
C1408 C1413 1.399 . S
C1409 C1408 1.399 . S
C1409 C1410 1.376 . S
C1410 H1397 0.930 . S
C1410 C1409 1.376 . S
C1410 C1411 1.388 . S
C1411 H1398 0.930 . S
C1411 C1410 1.388 . S
C1411 C1412 1.390 . S
C1412 C1411 1.390 . S
C1412 C1413 1.394 . S
C1412 C1418 1.465 . S
C1413 C1408 1.399 . S
C1413 C1412 1.394 . S
C1413 C1414 1.516 . S
C1414 C1413 1.516 . S
C1414 C1415 1.502 . S
C1414 C1416 1.561 . S
C1414 C1417 1.526 . S
C1415 H1399 0.959 . S
C1415 H1400 0.959 . S
C1415 H1401 0.961 . S
C1415 C1414 1.502 . S
C1416 H1402 0.960 . S
C1416 H1403 0.961 . S
C1416 H1404 0.959 . S
C1416 C1414 1.561 . S
C1417 C1414 1.526 . S
C1417 C1418 1.396 . S
C1417 C1422 1.390 . S
C1418 C1412 1.465 . S
C1418 C1417 1.396 . S
C1418 C1419 1.399 . S
C1419 H1405 0.929 . S
C1419 C1418 1.399 . S
C1419 C1420 1.385 . S
C1420 H1406 0.931 . S
C1420 C1419 1.385 . S
C1420 C1421 1.389 . S
C1421 C1420 1.389 . S
C1421 C1422 1.387 . S
C1422 H1407 0.930 . S
C1422 C1417 1.390 . S
C1422 C1421 1.387 . S
H1423 C1435 0.930 . S
H1424 C1437 0.930 . S
H1425 C1438 0.930 . S
H1426 C1442 0.959 . S
H1427 C1442 0.959 . S
H1428 C1442 0.961 . S
H1429 C1443 0.960 . S
H1430 C1443 0.961 . S
H1431 C1443 0.959 . S
H1432 C1446 0.929 . S
H1433 C1447 0.931 . S
H1434 C1449 0.930 . S
C1435 H1423 0.930 . S
C1435 C1436 1.399 1_545 S
C1435 C1440 1.399 . S
C1436 C1435 1.399 1_565 S
C1436 C1437 1.376 . S
C1437 H1424 0.930 . S
C1437 C1436 1.376 . S
C1437 C1438 1.388 . S
C1438 H1425 0.930 . S
C1438 C1437 1.388 . S
C1438 C1439 1.390 . S
C1439 C1438 1.390 . S
C1439 C1440 1.394 1_565 S
C1439 C1445 1.465 . S
C1440 C1435 1.399 . S
C1440 C1439 1.394 1_545 S
C1440 C1441 1.516 . S
C1441 C1440 1.516 . S
C1441 C1442 1.502 . S
C1441 C1443 1.561 . S
C1441 C1444 1.526 . S
C1442 H1426 0.959 . S
C1442 H1427 0.959 . S
C1442 H1428 0.961 . S
C1442 C1441 1.502 . S
C1443 H1429 0.960 . S
C1443 H1430 0.961 . S
C1443 H1431 0.959 . S
C1443 C1441 1.561 . S
C1444 C1441 1.526 . S
C1444 C1445 1.396 1_545 S
C1444 C1449 1.390 . S
C1445 C1439 1.465 . S
C1445 C1444 1.396 1_565 S
C1445 C1446 1.399 . S
C1446 H1432 0.929 . S
C1446 C1445 1.399 . S
C1446 C1447 1.385 . S
C1447 H1433 0.931 . S
C1447 C1446 1.385 . S
C1447 C1448 1.389 1_565 S
C1448 C1447 1.389 1_545 S
C1448 C1449 1.387 . S
C1449 H1434 0.930 . S
C1449 C1444 1.390 . S
C1449 C1448 1.387 . S
H1450 C1462 0.930 . S
H1451 C1464 0.930 . S
H1452 C1465 0.930 . S
H1453 C1469 0.959 . S
H1454 C1469 0.959 . S
H1455 C1469 0.961 . S
H1456 C1470 0.960 . S
H1457 C1470 0.961 . S
H1458 C1470 0.959 . S
H1459 C1473 0.929 . S
H1460 C1474 0.931 . S
H1461 C1476 0.930 . S
C1462 H1450 0.930 . S
C1462 C1463 1.399 . S
C1462 C1467 1.399 . S
C1463 C1462 1.399 . S
C1463 C1464 1.376 . S
C1464 H1451 0.930 . S
C1464 C1463 1.376 . S
C1464 C1465 1.388 . S
C1465 H1452 0.930 . S
C1465 C1464 1.388 . S
C1465 C1466 1.390 . S
C1466 C1465 1.390 . S
C1466 C1467 1.394 . S
C1466 C1472 1.465 . S
C1467 C1462 1.399 . S
C1467 C1466 1.394 . S
C1467 C1468 1.516 . S
C1468 C1467 1.516 . S
C1468 C1469 1.502 . S
C1468 C1470 1.561 . S
C1468 C1471 1.526 . S
C1469 H1453 0.959 . S
C1469 H1454 0.959 . S
C1469 H1455 0.961 . S
C1469 C1468 1.502 . S
C1470 H1456 0.960 . S
C1470 H1457 0.961 . S
C1470 H1458 0.959 . S
C1470 C1468 1.561 . S
C1471 C1468 1.526 . S
C1471 C1472 1.396 . S
C1471 C1476 1.390 . S
C1472 C1466 1.465 . S
C1472 C1471 1.396 . S
C1472 C1473 1.399 . S
C1473 H1459 0.929 . S
C1473 C1472 1.399 . S
C1473 C1474 1.385 . S
C1474 H1460 0.931 . S
C1474 C1473 1.385 . S
C1474 C1475 1.389 . S
C1475 C1474 1.389 . S
C1475 C1476 1.387 . S
C1476 H1461 0.930 . S
C1476 C1471 1.390 . S
C1476 C1475 1.387 . S
H1477 C1489 0.930 1_545 S
H1478 C1491 0.930 . S
H1479 C1492 0.930 . S
H1480 C1496 0.959 1_565 S
H1481 C1496 0.959 . S
H1482 C1496 0.961 . S
H1483 C1497 0.960 . S
H1484 C1497 0.961 . S
H1485 C1497 0.946 1_565 S
H1486 C1500 0.929 . S
H1487 C1501 0.931 . S
H1488 C1503 0.930 . S
C1489 H1477 0.930 1_565 S
C1489 C1490 1.399 . S
C1489 C1494 1.399 . S
C1490 C1489 1.399 . S
C1490 C1491 1.376 . S
C1491 H1478 0.930 . S
C1491 C1490 1.376 . S
C1491 C1492 1.388 . S
C1492 H1479 0.930 . S
C1492 C1491 1.388 . S
C1492 C1493 1.390 . S
C1493 C1492 1.390 . S
C1493 C1494 1.394 . S
C1493 C1499 1.465 . S
C1494 C1489 1.399 . S
C1494 C1493 1.394 . S
C1494 C1495 1.516 . S
C1495 C1494 1.516 . S
C1495 C1496 1.502 1_565 S
C1495 C1497 1.561 1_565 S
C1495 C1498 1.526 . S
C1496 H1480 0.959 1_545 S
C1496 H1481 0.959 . S
C1496 H1482 0.961 . S
C1496 C1495 1.502 1_545 S
C1497 H1483 0.960 . S
C1497 H1484 0.961 . S
C1497 H1485 0.946 1_545 S
C1497 C1495 1.561 1_545 S
C1498 C1495 1.526 . S
C1498 C1499 1.396 . S
C1498 C1503 1.390 . S
C1499 C1493 1.465 . S
C1499 C1498 1.396 . S
C1499 C1500 1.399 . S
C1500 H1486 0.929 . S
C1500 C1499 1.399 . S
C1500 C1501 1.385 . S
C1501 H1487 0.931 . S
C1501 C1500 1.385 . S
C1501 C1502 1.389 . S
C1502 C1501 1.389 . S
C1502 C1503 1.387 . S
C1503 H1488 0.930 . S
C1503 C1498 1.390 . S
C1503 C1502 1.387 . S
H1504 C1516 0.930 . S
H1505 C1518 0.930 . S
H1506 C1519 0.930 . S
H1507 C1523 0.959 . S
H1508 C1523 0.959 . S
H1509 C1523 0.961 . S
H1510 C1524 0.960 . S
H1511 C1524 0.961 . S
H1512 C1524 0.959 . S
H1513 C1527 0.929 . S
H1514 C1528 0.931 . S
H1515 C1530 0.930 . S
C1516 H1504 0.930 . S
C1516 C1517 1.399 . S
C1516 C1521 1.399 . S
C1517 C1516 1.399 . S
C1517 C1518 1.376 . S
C1518 H1505 0.930 . S
C1518 C1517 1.376 . S
C1518 C1519 1.388 . S
C1519 H1506 0.930 . S
C1519 C1518 1.388 . S
C1519 C1520 1.390 . S
C1520 C1519 1.390 . S
C1520 C1521 1.394 . S
C1520 C1526 1.465 . S
C1521 C1516 1.399 . S
C1521 C1520 1.394 . S
C1521 C1522 1.516 . S
C1522 C1521 1.516 . S
C1522 C1523 1.502 . S
C1522 C1524 1.561 . S
C1522 C1525 1.526 . S
C1523 H1507 0.959 . S
C1523 H1508 0.959 . S
C1523 H1509 0.961 . S
C1523 C1522 1.502 . S
C1524 H1510 0.960 . S
C1524 H1511 0.961 . S
C1524 H1512 0.959 . S
C1524 C1522 1.561 . S
C1525 C1522 1.526 . S
C1525 C1526 1.396 . S
C1525 C1530 1.390 . S
C1526 C1520 1.465 . S
C1526 C1525 1.396 . S
C1526 C1527 1.399 . S
C1527 H1513 0.929 . S
C1527 C1526 1.399 . S
C1527 C1528 1.385 . S
C1528 H1514 0.931 . S
C1528 C1527 1.385 . S
C1528 C1529 1.389 . S
C1529 C1528 1.389 . S
C1529 C1530 1.387 . S
C1530 H1515 0.930 . S
C1530 C1525 1.390 . S
C1530 C1529 1.387 . S
H1531 C1543 0.930 . S
H1532 C1545 0.930 . S
H1533 C1546 0.930 . S
H1534 C1550 0.959 . S
H1535 C1550 0.959 . S
H1536 C1550 0.961 . S
H1537 C1551 0.960 . S
H1538 C1551 0.961 . S
H1539 C1551 0.959 . S
H1540 C1554 0.929 . S
H1541 C1555 0.931 . S
H1542 C1557 0.930 . S
C1543 H1531 0.930 . S
C1543 C1544 1.399 . S
C1543 C1548 1.399 . S
C1544 C1543 1.399 . S
C1544 C1545 1.376 . S
C1545 H1532 0.930 . S
C1545 C1544 1.376 . S
C1545 C1546 1.388 . S
C1546 H1533 0.930 . S
C1546 C1545 1.388 . S
C1546 C1547 1.390 . S
C1547 C1546 1.390 . S
C1547 C1548 1.394 . S
C1547 C1553 1.465 . S
C1548 C1543 1.399 . S
C1548 C1547 1.394 . S
C1548 C1549 1.516 . S
C1549 C1548 1.516 . S
C1549 C1550 1.502 . S
C1549 C1551 1.561 . S
C1549 C1552 1.526 . S
C1550 H1534 0.959 . S
C1550 H1535 0.959 . S
C1550 H1536 0.961 . S
C1550 C1549 1.502 . S
C1551 H1537 0.960 . S
C1551 H1538 0.961 . S
C1551 H1539 0.959 . S
C1551 C1549 1.561 . S
C1552 C1549 1.526 . S
C1552 C1553 1.396 . S
C1552 C1557 1.390 . S
C1553 C1547 1.465 . S
C1553 C1552 1.396 . S
C1553 C1554 1.399 . S
C1554 H1540 0.929 . S
C1554 C1553 1.399 . S
C1554 C1555 1.385 . S
C1555 H1541 0.931 . S
C1555 C1554 1.385 . S
C1555 C1556 1.389 . S
C1556 C1555 1.389 . S
C1556 C1557 1.387 . S
C1557 H1542 0.930 . S
C1557 C1552 1.390 . S
C1557 C1556 1.387 . S
H1558 C1570 0.930 . S
H1559 C1572 0.930 . S
H1560 C1573 0.930 . S
H1561 C1577 0.959 . S
H1562 C1577 0.959 1_545 S
H1563 C1577 0.961 1_545 S
H1564 C1578 0.960 1_545 S
H1565 C1578 0.961 1_545 S
H1566 C1578 0.959 . S
H1567 C1581 0.929 . S
H1568 C1582 0.931 . S
H1569 C1584 0.930 . S
C1570 H1558 0.930 . S
C1570 C1571 1.399 . S
C1570 C1575 1.399 . S
C1571 C1570 1.399 . S
C1571 C1572 1.376 . S
C1572 H1559 0.930 . S
C1572 C1571 1.376 . S
C1572 C1573 1.388 . S
C1573 H1560 0.930 . S
C1573 C1572 1.388 . S
C1573 C1574 1.390 . S
C1574 C1573 1.390 . S
C1574 C1575 1.394 . S
C1574 C1580 1.465 . S
C1575 C1570 1.399 . S
C1575 C1574 1.394 . S
C1575 C1576 1.516 . S
C1576 C1575 1.516 . S
C1576 C1577 1.502 . S
C1576 C1578 1.561 . S
C1576 C1579 1.526 . S
C1577 H1561 0.959 . S
C1577 H1562 0.959 1_565 S
C1577 H1563 0.961 1_565 S
C1577 C1576 1.502 . S
C1578 H1564 0.960 1_565 S
C1578 H1565 0.961 1_565 S
C1578 H1566 0.959 . S
C1578 C1576 1.561 . S
C1579 C1576 1.526 . S
C1579 C1580 1.396 . S
C1579 C1584 1.390 . S
C1580 C1574 1.465 . S
C1580 C1579 1.396 . S
C1580 C1581 1.399 . S
C1581 H1567 0.929 . S
C1581 C1580 1.399 . S
C1581 C1582 1.385 . S
C1582 H1568 0.931 . S
C1582 C1581 1.385 . S
C1582 C1583 1.389 . S
C1583 C1582 1.389 . S
C1583 C1584 1.387 . S
C1584 H1569 0.930 . S
C1584 C1579 1.390 . S
C1584 C1583 1.387 . S
H1585 C1597 0.930 . S
H1586 C1599 0.930 . S
H1587 C1600 0.930 . S
H1588 C1604 0.959 . S
H1589 C1604 0.959 . S
H1590 C1604 0.961 . S
H1591 C1605 0.960 . S
H1592 C1605 0.961 . S
H1593 C1605 0.959 . S
H1594 C1608 0.929 . S
H1595 C1609 0.931 . S
H1596 C1611 0.930 . S
C1597 H1585 0.930 . S
C1597 C1598 1.399 . S
C1597 C1602 1.399 . S
C1598 C1597 1.399 . S
C1598 C1599 1.376 . S
C1599 H1586 0.930 . S
C1599 C1598 1.376 . S
C1599 C1600 1.388 . S
C1600 H1587 0.930 . S
C1600 C1599 1.388 . S
C1600 C1601 1.390 . S
C1601 C1600 1.390 . S
C1601 C1602 1.394 . S
C1601 C1607 1.465 . S
C1602 C1597 1.399 . S
C1602 C1601 1.394 . S
C1602 C1603 1.516 . S
C1603 C1602 1.516 . S
C1603 C1604 1.502 . S
C1603 C1605 1.561 . S
C1603 C1606 1.526 . S
C1604 H1588 0.959 . S
C1604 H1589 0.959 . S
C1604 H1590 0.961 . S
C1604 C1603 1.502 . S
C1605 H1591 0.960 . S
C1605 H1592 0.961 . S
C1605 H1593 0.959 . S
C1605 C1603 1.561 . S
C1606 C1603 1.526 . S
C1606 C1607 1.396 . S
C1606 C1611 1.390 . S
C1607 C1601 1.465 . S
C1607 C1606 1.396 . S
C1607 C1608 1.399 . S
C1608 H1594 0.929 . S
C1608 C1607 1.399 . S
C1608 C1609 1.385 . S
C1609 H1595 0.931 . S
C1609 C1608 1.385 . S
C1609 C1610 1.389 . S
C1610 C1609 1.389 . S
C1610 C1611 1.387 . S
C1611 H1596 0.930 . S
C1611 C1606 1.390 . S
C1611 C1610 1.387 . S
H1612 C1624 0.930 . S
H1613 C1626 0.930 . S
H1614 C1627 0.930 . S
H1615 C1631 0.959 . S
H1616 C1631 0.959 . S
H1617 C1631 0.961 . S
H1618 C1632 0.960 . S
H1619 C1632 0.961 . S
H1620 C1632 0.959 . S
H1621 C1635 0.929 . S
H1622 C1636 0.931 . S
H1623 C1638 0.930 . S
C1624 H1612 0.930 . S
C1624 C1625 1.399 . S
C1624 C1629 1.399 . S
C1625 C1624 1.399 . S
C1625 C1626 1.376 . S
C1626 H1613 0.930 . S
C1626 C1625 1.376 . S
C1626 C1627 1.388 . S
C1627 H1614 0.930 . S
C1627 C1626 1.388 . S
C1627 C1628 1.390 . S
C1628 C1627 1.390 . S
C1628 C1629 1.394 . S
C1628 C1634 1.465 . S
C1629 C1624 1.399 . S
C1629 C1628 1.394 . S
C1629 C1630 1.516 . S
C1630 C1629 1.516 . S
C1630 C1631 1.502 . S
C1630 C1632 1.561 . S
C1630 C1633 1.526 . S
C1631 H1615 0.959 . S
C1631 H1616 0.959 . S
C1631 H1617 0.961 . S
C1631 C1630 1.502 . S
C1632 H1618 0.960 . S
C1632 H1619 0.961 . S
C1632 H1620 0.959 . S
C1632 C1630 1.561 . S
C1633 C1630 1.526 . S
C1633 C1634 1.396 . S
C1633 C1638 1.390 . S
C1634 C1628 1.465 . S
C1634 C1633 1.396 . S
C1634 C1635 1.399 . S
C1635 H1621 0.929 . S
C1635 C1634 1.399 . S
C1635 C1636 1.385 . S
C1636 H1622 0.931 . S
C1636 C1635 1.385 . S
C1636 C1637 1.389 . S
C1637 C1636 1.389 . S
C1637 C1638 1.387 . S
C1638 H1623 0.930 . S
C1638 C1633 1.390 . S
C1638 C1637 1.387 . S
H1639 C1651 0.930 . S
H1640 C1653 0.930 . S
H1641 C1654 0.930 . S
H1642 C1658 0.959 . S
H1643 C1658 0.959 . S
H1644 C1658 0.961 . S
H1645 C1659 0.960 . S
H1646 C1659 0.961 . S
H1647 C1659 0.959 . S
H1648 C1662 0.929 . S
H1649 C1663 0.931 . S
H1650 C1665 0.930 . S
C1651 H1639 0.930 . S
C1651 C1652 1.399 . S
C1651 C1656 1.399 . S
C1652 C1651 1.399 . S
C1652 C1653 1.376 . S
C1653 H1640 0.930 . S
C1653 C1652 1.376 . S
C1653 C1654 1.388 . S
C1654 H1641 0.930 . S
C1654 C1653 1.388 . S
C1654 C1655 1.390 . S
C1655 C1654 1.390 . S
C1655 C1656 1.394 . S
C1655 C1661 1.465 . S
C1656 C1651 1.399 . S
C1656 C1655 1.394 . S
C1656 C1657 1.516 . S
C1657 C1656 1.516 . S
C1657 C1658 1.502 . S
C1657 C1659 1.561 . S
C1657 C1660 1.526 . S
C1658 H1642 0.959 . S
C1658 H1643 0.959 . S
C1658 H1644 0.961 . S
C1658 C1657 1.502 . S
C1659 H1645 0.960 . S
C1659 H1646 0.961 . S
C1659 H1647 0.959 . S
C1659 C1657 1.561 . S
C1660 C1657 1.526 . S
C1660 C1661 1.396 . S
C1660 C1665 1.390 . S
C1661 C1655 1.465 . S
C1661 C1660 1.396 . S
C1661 C1662 1.399 . S
C1662 H1648 0.929 . S
C1662 C1661 1.399 . S
C1662 C1663 1.385 . S
C1663 H1649 0.931 . S
C1663 C1662 1.385 . S
C1663 C1664 1.389 . S
C1664 C1663 1.389 . S
C1664 C1665 1.387 . S
C1665 H1650 0.930 . S
C1665 C1660 1.390 . S
C1665 C1664 1.387 . S
H1666 C1678 0.930 . S
H1667 C1680 0.930 1_565 S
H1668 C1681 0.930 1_565 S
H1669 C1685 0.959 . S
H1670 C1685 0.959 . S
H1671 C1685 0.961 . S
H1672 C1686 0.960 . S
H1673 C1686 0.961 . S
H1674 C1686 0.959 . S
H1675 C1689 0.929 . S
H1676 C1690 0.931 . S
H1677 C1692 0.930 . S
C1678 H1666 0.930 . S
C1678 C1679 1.399 . S
C1678 C1683 1.399 . S
C1679 C1678 1.399 . S
C1679 C1680 1.376 . S
C1680 H1667 0.930 1_545 S
C1680 C1679 1.376 . S
C1680 C1681 1.388 . S
C1681 H1668 0.930 1_545 S
C1681 C1680 1.388 . S
C1681 C1682 1.390 . S
C1682 C1681 1.390 . S
C1682 C1683 1.394 . S
C1682 C1688 1.465 . S
C1683 C1678 1.399 . S
C1683 C1682 1.394 . S
C1683 C1684 1.516 . S
C1684 C1683 1.516 . S
C1684 C1685 1.502 . S
C1684 C1686 1.561 . S
C1684 C1687 1.526 . S
C1685 H1669 0.959 . S
C1685 H1670 0.959 . S
C1685 H1671 0.961 . S
C1685 C1684 1.502 . S
C1686 H1672 0.960 . S
C1686 H1673 0.961 . S
C1686 H1674 0.959 . S
C1686 C1684 1.561 . S
C1687 C1684 1.526 . S
C1687 C1688 1.396 . S
C1687 C1692 1.390 . S
C1688 C1682 1.465 . S
C1688 C1687 1.396 . S
C1688 C1689 1.399 . S
C1689 H1675 0.929 . S
C1689 C1688 1.399 . S
C1689 C1690 1.385 . S
C1690 H1676 0.931 . S
C1690 C1689 1.385 . S
C1690 C1691 1.389 . S
C1691 C1690 1.389 . S
C1691 C1692 1.387 . S
C1692 H1677 0.930 . S
C1692 C1687 1.390 . S
C1692 C1691 1.387 . S
H1693 C1705 0.930 . S
H1694 C1707 0.930 . S
H1695 C1708 0.930 . S
H1696 C1712 0.959 . S
H1697 C1712 0.959 1_655 S
H1698 C1712 0.961 . S
H1699 C1713 0.960 . S
H1700 C1713 0.961 . S
H1701 C1713 0.959 . S
H1702 C1716 0.929 . S
H1703 C1717 0.931 . S
H1704 C1719 0.930 . S
C1705 H1693 0.930 . S
C1705 C1706 1.399 . S
C1705 C1710 1.399 . S
C1706 C1705 1.399 . S
C1706 C1707 1.376 . S
C1707 H1694 0.930 . S
C1707 C1706 1.376 . S
C1707 C1708 1.388 . S
C1708 H1695 0.930 . S
C1708 C1707 1.388 . S
C1708 C1709 1.390 . S
C1709 C1708 1.390 . S
C1709 C1710 1.394 . S
C1709 C1715 1.465 . S
C1710 C1705 1.399 . S
C1710 C1709 1.394 . S
C1710 C1711 1.516 . S
C1711 C1710 1.516 . S
C1711 C1712 1.502 . S
C1711 C1713 1.561 . S
C1711 C1714 1.526 . S
C1712 H1696 0.959 . S
C1712 H1697 0.959 1_455 S
C1712 H1698 0.961 . S
C1712 C1711 1.502 . S
C1713 H1699 0.960 . S
C1713 H1700 0.961 . S
C1713 H1701 0.959 . S
C1713 C1711 1.561 . S
C1714 C1711 1.526 . S
C1714 C1715 1.396 . S
C1714 C1719 1.390 . S
C1715 C1709 1.465 . S
C1715 C1714 1.396 . S
C1715 C1716 1.399 . S
C1716 H1702 0.929 . S
C1716 C1715 1.399 . S
C1716 C1717 1.385 . S
C1717 H1703 0.931 . S
C1717 C1716 1.385 . S
C1717 C1718 1.389 . S
C1718 C1717 1.389 . S
C1718 C1719 1.387 . S
C1719 H1704 0.930 . S
C1719 C1714 1.390 . S
C1719 C1718 1.387 . S
H1720 C1732 0.930 . S
H1721 C1734 0.930 . S
H1722 C1735 0.930 . S
H1723 C1739 0.959 . S
H1724 C1739 0.959 . S
H1725 C1739 0.961 . S
H1726 C1740 0.960 . S
H1727 C1740 0.961 . S
H1728 C1740 0.959 . S
H1729 C1743 0.929 . S
H1730 C1744 0.931 . S
H1731 C1746 0.930 . S
C1732 H1720 0.930 . S
C1732 C1733 1.399 . S
C1732 C1737 1.399 . S
C1733 C1732 1.399 . S
C1733 C1734 1.376 . S
C1734 H1721 0.930 . S
C1734 C1733 1.376 . S
C1734 C1735 1.388 . S
C1735 H1722 0.930 . S
C1735 C1734 1.388 . S
C1735 C1736 1.390 . S
C1736 C1735 1.390 . S
C1736 C1737 1.394 . S
C1736 C1742 1.465 . S
C1737 C1732 1.399 . S
C1737 C1736 1.394 . S
C1737 C1738 1.516 . S
C1738 C1737 1.516 . S
C1738 C1739 1.502 . S
C1738 C1740 1.561 . S
C1738 C1741 1.526 . S
C1739 H1723 0.959 . S
C1739 H1724 0.959 . S
C1739 H1725 0.961 . S
C1739 C1738 1.502 . S
C1740 H1726 0.960 . S
C1740 H1727 0.961 . S
C1740 H1728 0.959 . S
C1740 C1738 1.561 . S
C1741 C1738 1.526 . S
C1741 C1742 1.396 . S
C1741 C1746 1.390 . S
C1742 C1736 1.465 . S
C1742 C1741 1.396 . S
C1742 C1743 1.399 . S
C1743 H1729 0.929 . S
C1743 C1742 1.399 . S
C1743 C1744 1.385 . S
C1744 H1730 0.931 . S
C1744 C1743 1.385 . S
C1744 C1745 1.389 . S
C1745 C1744 1.389 . S
C1745 C1746 1.387 . S
C1746 H1731 0.930 . S
C1746 C1741 1.390 . S
C1746 C1745 1.387 . S
H1747 C1759 0.930 . S
H1748 C1761 0.930 . S
H1749 C1762 0.930 . S
H1750 C1766 0.959 . S
H1751 C1766 0.959 . S
H1752 C1766 0.961 . S
H1753 C1767 0.960 . S
H1754 C1767 0.961 . S
H1755 C1767 0.959 . S
H1756 C1770 0.929 . S
H1757 C1771 0.931 . S
H1758 C1773 0.930 . S
C1759 H1747 0.930 . S
C1759 C1760 1.399 . S
C1759 C1764 1.399 . S
C1760 C1759 1.399 . S
C1760 C1761 1.376 . S
C1761 H1748 0.930 . S
C1761 C1760 1.376 . S
C1761 C1762 1.388 . S
C1762 H1749 0.930 . S
C1762 C1761 1.388 . S
C1762 C1763 1.390 . S
C1763 C1762 1.390 . S
C1763 C1764 1.394 . S
C1763 C1769 1.465 . S
C1764 C1759 1.399 . S
C1764 C1763 1.394 . S
C1764 C1765 1.516 . S
C1765 C1764 1.516 . S
C1765 C1766 1.502 . S
C1765 C1767 1.561 . S
C1765 C1768 1.526 . S
C1766 H1750 0.959 . S
C1766 H1751 0.959 . S
C1766 H1752 0.961 . S
C1766 C1765 1.502 . S
C1767 H1753 0.960 . S
C1767 H1754 0.961 . S
C1767 H1755 0.959 . S
C1767 C1765 1.561 . S
C1768 C1765 1.526 . S
C1768 C1769 1.396 . S
C1768 C1773 1.390 . S
C1769 C1763 1.465 . S
C1769 C1768 1.396 . S
C1769 C1770 1.399 1_565 S
C1770 H1756 0.929 . S
C1770 C1769 1.399 1_545 S
C1770 C1771 1.385 . S
C1771 H1757 0.931 . S
C1771 C1770 1.385 . S
C1771 C1772 1.389 . S
C1772 C1771 1.389 . S
C1772 C1773 1.387 1_545 S
C1773 H1758 0.930 . S
C1773 C1768 1.390 . S
C1773 C1772 1.387 1_565 S
H1774 C1786 0.930 . S
H1775 C1788 0.930 . S
H1776 C1789 0.930 . S
H1777 C1793 0.959 . S
H1778 C1793 0.959 . S
H1779 C1793 0.961 . S
H1780 C1794 0.960 . S
H1781 C1794 0.961 . S
H1782 C1794 0.959 . S
H1783 C1797 0.929 . S
H1784 C1798 0.931 . S
H1785 C1800 0.930 . S
C1786 H1774 0.930 . S
C1786 C1787 1.399 . S
C1786 C1791 1.399 . S
C1787 C1786 1.399 . S
C1787 C1788 1.376 . S
C1788 H1775 0.930 . S
C1788 C1787 1.376 . S
C1788 C1789 1.388 . S
C1789 H1776 0.930 . S
C1789 C1788 1.388 . S
C1789 C1790 1.390 . S
C1790 C1789 1.390 . S
C1790 C1791 1.394 . S
C1790 C1796 1.465 . S
C1791 C1786 1.399 . S
C1791 C1790 1.394 . S
C1791 C1792 1.516 . S
C1792 C1791 1.516 . S
C1792 C1793 1.502 . S
C1792 C1794 1.561 . S
C1792 C1795 1.526 . S
C1793 H1777 0.959 . S
C1793 H1778 0.959 . S
C1793 H1779 0.961 . S
C1793 C1792 1.502 . S
C1794 H1780 0.960 . S
C1794 H1781 0.961 . S
C1794 H1782 0.959 . S
C1794 C1792 1.561 . S
C1795 C1792 1.526 . S
C1795 C1796 1.396 . S
C1795 C1800 1.390 . S
C1796 C1790 1.465 . S
C1796 C1795 1.396 . S
C1796 C1797 1.399 . S
C1797 H1783 0.929 . S
C1797 C1796 1.399 . S
C1797 C1798 1.385 . S
C1798 H1784 0.931 . S
C1798 C1797 1.385 . S
C1798 C1799 1.389 . S
C1799 C1798 1.389 . S
C1799 C1800 1.387 . S
C1800 H1785 0.930 . S
C1800 C1795 1.390 . S
C1800 C1799 1.387 . S
H1801 C1813 0.930 . S
H1802 C1815 0.930 . S
H1803 C1816 0.930 . S
H1804 C1820 0.959 . S
H1805 C1820 0.959 . S
H1806 C1820 0.961 . S
H1807 C1821 0.960 . S
H1808 C1821 0.961 . S
H1809 C1821 0.959 . S
H1810 C1824 0.929 . S
H1811 C1825 0.931 . S
H1812 C1827 0.930 1_565 S
C1813 H1801 0.930 . S
C1813 C1814 1.399 1_565 S
C1813 C1818 1.399 . S
C1814 C1813 1.399 1_545 S
C1814 C1815 1.376 . S
C1815 H1802 0.930 . S
C1815 C1814 1.376 . S
C1815 C1816 1.388 . S
C1816 H1803 0.930 . S
C1816 C1815 1.388 . S
C1816 C1817 1.390 . S
C1817 C1816 1.390 . S
C1817 C1818 1.394 1_545 S
C1817 C1823 1.465 . S
C1818 C1813 1.399 . S
C1818 C1817 1.394 1_565 S
C1818 C1819 1.516 . S
C1819 C1818 1.516 . S
C1819 C1820 1.502 . S
C1819 C1821 1.561 . S
C1819 C1822 1.526 1_565 S
C1820 H1804 0.959 . S
C1820 H1805 0.959 . S
C1820 H1806 0.961 . S
C1820 C1819 1.502 . S
C1821 H1807 0.960 . S
C1821 H1808 0.961 . S
C1821 H1809 0.959 . S
C1821 C1819 1.561 . S
C1822 C1819 1.526 1_545 S
C1822 C1823 1.396 . S
C1822 C1827 1.390 . S
C1823 C1817 1.465 . S
C1823 C1822 1.396 . S
C1823 C1824 1.399 . S
C1824 H1810 0.929 . S
C1824 C1823 1.399 . S
C1824 C1825 1.385 . S
C1825 H1811 0.931 . S
C1825 C1824 1.385 . S
C1825 C1826 1.389 . S
C1826 C1825 1.389 . S
C1826 C1827 1.387 . S
C1827 H1812 0.930 1_545 S
C1827 C1822 1.390 . S
C1827 C1826 1.387 . S
H1828 C1840 0.930 . S
H1829 C1842 0.930 . S
H1830 C1843 0.930 . S
H1831 C1847 0.959 . S
H1832 C1847 0.959 . S
H1833 C1847 0.961 . S
H1834 C1848 0.960 . S
H1835 C1848 0.961 . S
H1836 C1848 0.959 . S
H1837 C1851 0.929 . S
H1838 C1852 0.931 . S
H1839 C1854 0.930 . S
C1840 H1828 0.930 . S
C1840 C1841 1.399 . S
C1840 C1845 1.399 . S
C1841 C1840 1.399 . S
C1841 C1842 1.376 . S
C1842 H1829 0.930 . S
C1842 C1841 1.376 . S
C1842 C1843 1.388 . S
C1843 H1830 0.930 . S
C1843 C1842 1.388 . S
C1843 C1844 1.390 . S
C1844 C1843 1.390 . S
C1844 C1845 1.394 . S
C1844 C1850 1.465 . S
C1845 C1840 1.399 . S
C1845 C1844 1.394 . S
C1845 C1846 1.516 . S
C1846 C1845 1.516 . S
C1846 C1847 1.502 . S
C1846 C1848 1.561 . S
C1846 C1849 1.526 . S
C1847 H1831 0.959 . S
C1847 H1832 0.959 . S
C1847 H1833 0.961 . S
C1847 C1846 1.502 . S
C1848 H1834 0.960 . S
C1848 H1835 0.961 . S
C1848 H1836 0.959 . S
C1848 C1846 1.561 . S
C1849 C1846 1.526 . S
C1849 C1850 1.396 . S
C1849 C1854 1.390 . S
C1850 C1844 1.465 . S
C1850 C1849 1.396 . S
C1850 C1851 1.399 . S
C1851 H1837 0.929 . S
C1851 C1850 1.399 . S
C1851 C1852 1.385 . S
C1852 H1838 0.931 . S
C1852 C1851 1.385 . S
C1852 C1853 1.389 . S
C1853 C1852 1.389 . S
C1853 C1854 1.387 . S
C1854 H1839 0.930 . S
C1854 C1849 1.390 . S
C1854 C1853 1.387 . S
H1855 C1867 0.930 . S
H1856 C1869 0.930 . S
H1857 C1870 0.930 . S
H1858 C1874 0.959 . S
H1859 C1874 0.959 . S
H1860 C1874 0.961 . S
H1861 C1875 0.960 . S
H1862 C1875 0.961 . S
H1863 C1875 0.959 . S
H1864 C1878 0.929 . S
H1865 C1879 0.931 . S
H1866 C1881 0.930 . S
C1867 H1855 0.930 . S
C1867 C1868 1.399 . S
C1867 C1872 1.399 . S
C1868 C1867 1.399 . S
C1868 C1869 1.376 . S
C1869 H1856 0.930 . S
C1869 C1868 1.376 . S
C1869 C1870 1.388 . S
C1870 H1857 0.930 . S
C1870 C1869 1.388 . S
C1870 C1871 1.390 . S
C1871 C1870 1.390 . S
C1871 C1872 1.394 . S
C1871 C1877 1.465 . S
C1872 C1867 1.399 . S
C1872 C1871 1.394 . S
C1872 C1873 1.516 . S
C1873 C1872 1.516 . S
C1873 C1874 1.502 1_545 S
C1873 C1875 1.561 . S
C1873 C1876 1.526 . S
C1874 H1858 0.959 . S
C1874 H1859 0.959 . S
C1874 H1860 0.961 . S
C1874 C1873 1.502 1_565 S
C1875 H1861 0.960 . S
C1875 H1862 0.961 . S
C1875 H1863 0.959 . S
C1875 C1873 1.561 . S
C1876 C1873 1.526 . S
C1876 C1877 1.396 . S
C1876 C1881 1.390 1_545 S
C1877 C1871 1.465 . S
C1877 C1876 1.396 . S
C1877 C1878 1.399 . S
C1878 H1864 0.929 . S
C1878 C1877 1.399 . S
C1878 C1879 1.385 . S
C1879 H1865 0.931 . S
C1879 C1878 1.385 . S
C1879 C1880 1.389 1_545 S
C1880 C1879 1.389 1_565 S
C1880 C1881 1.387 . S
C1881 H1866 0.930 . S
C1881 C1876 1.390 1_565 S
C1881 C1880 1.387 . S
H1882 C1894 0.930 . S
H1883 C1896 0.930 . S
H1884 C1897 0.930 . S
H1885 C1901 0.959 . S
H1886 C1901 0.959 . S
H1887 C1901 0.961 . S
H1888 C1902 0.960 . S
H1889 C1902 0.961 . S
H1890 C1902 0.959 . S
H1891 C1905 0.929 . S
H1892 C1906 0.931 . S
H1893 C1908 0.930 . S
C1894 H1882 0.930 . S
C1894 C1895 1.399 . S
C1894 C1899 1.399 . S
C1895 C1894 1.399 . S
C1895 C1896 1.376 . S
C1896 H1883 0.930 . S
C1896 C1895 1.376 . S
C1896 C1897 1.388 . S
C1897 H1884 0.930 . S
C1897 C1896 1.388 . S
C1897 C1898 1.390 . S
C1898 C1897 1.390 . S
C1898 C1899 1.394 . S
C1898 C1904 1.465 . S
C1899 C1894 1.399 . S
C1899 C1898 1.394 . S
C1899 C1900 1.516 . S
C1900 C1899 1.516 . S
C1900 C1901 1.502 . S
C1900 C1902 1.561 . S
C1900 C1903 1.526 . S
C1901 H1885 0.959 . S
C1901 H1886 0.959 . S
C1901 H1887 0.961 . S
C1901 C1900 1.502 . S
C1902 H1888 0.960 . S
C1902 H1889 0.961 . S
C1902 H1890 0.959 . S
C1902 C1900 1.561 . S
C1903 C1900 1.526 . S
C1903 C1904 1.396 . S
C1903 C1908 1.390 . S
C1904 C1898 1.465 . S
C1904 C1903 1.396 . S
C1904 C1905 1.399 . S
C1905 H1891 0.929 . S
C1905 C1904 1.399 . S
C1905 C1906 1.385 . S
C1906 H1892 0.931 . S
C1906 C1905 1.385 . S
C1906 C1907 1.389 . S
C1907 C1906 1.389 . S
C1907 C1908 1.387 . S
C1908 H1893 0.930 . S
C1908 C1903 1.390 . S
C1908 C1907 1.387 . S
H1909 C1921 0.930 . S
H1910 C1923 0.930 . S
H1911 C1924 0.930 1_545 S
H1912 C1928 0.959 . S
H1913 C1928 0.959 . S
H1914 C1928 0.961 . S
H1915 C1929 0.960 . S
H1916 C1929 0.961 . S
H1917 C1929 0.959 . S
H1918 C1932 0.929 . S
H1919 C1933 0.931 . S
H1920 C1935 0.930 . S
C1921 H1909 0.930 . S
C1921 C1922 1.399 . S
C1921 C1926 1.399 . S
C1922 C1921 1.399 . S
C1922 C1923 1.376 . S
C1923 H1910 0.930 . S
C1923 C1922 1.376 . S
C1923 C1924 1.388 . S
C1924 H1911 0.930 1_565 S
C1924 C1923 1.388 . S
C1924 C1925 1.390 . S
C1925 C1924 1.390 . S
C1925 C1926 1.394 . S
C1925 C1931 1.465 . S
C1926 C1921 1.399 . S
C1926 C1925 1.394 . S
C1926 C1927 1.516 . S
C1927 C1926 1.516 . S
C1927 C1928 1.502 . S
C1927 C1929 1.561 . S
C1927 C1930 1.526 . S
C1928 H1912 0.959 . S
C1928 H1913 0.959 . S
C1928 H1914 0.961 . S
C1928 C1927 1.502 . S
C1929 H1915 0.960 . S
C1929 H1916 0.961 . S
C1929 H1917 0.959 . S
C1929 C1927 1.561 . S
C1930 C1927 1.526 . S
C1930 C1931 1.396 . S
C1930 C1935 1.390 . S
C1931 C1925 1.465 . S
C1931 C1930 1.396 . S
C1931 C1932 1.399 1_565 S
C1932 H1918 0.929 . S
C1932 C1931 1.399 1_545 S
C1932 C1933 1.385 . S
C1933 H1919 0.931 . S
C1933 C1932 1.385 . S
C1933 C1934 1.385 1_545 S
C1934 C1933 1.385 1_565 S
C1934 C1935 1.391 . S
C1935 H1920 0.930 . S
C1935 C1930 1.390 . S
C1935 C1934 1.391 . S
C653 C9 0.731 . S
C665 C409 0.795 . S
C680 C49 0.836 . S
C692 C458 0.302 . S
C707 C89 0.638 . S
C719 C329 0.602 . S
C734 C369 0.855 . S
C746 C138 0.321 . S
C761 C178 0.602 . S
C773 C578 0.598 . S
C788 C609 0.378 . S
C800 C218 0.769 . S
C815 C498 0.772 . S
C827 C258 0.745 . S
C842 C289 0.344 . S
C854 C538 0.712 . S
C869 C19 3.571 . S
C881 C170 3.585 . S
C896 C59 2.904 . S
C908 C530 2.888 . S
C923 C99 2.364 . S
C935 C250 2.369 . S
C950 C126 1.623 . S
C962 C615 1.618 . S
C977 C210 2.895 . S
C989 C379 2.899 . S
C1004 C446 1.677 . S
C1016 C295 1.586 . S
C1031 C490 3.575 . S
C1043 C339 3.582 . S
C1058 C419 2.362 . S
C1070 C570 2.371 . S
C1085 C10 1.512 . S
C1097 C298 1.516 . S
C1112 C50 1.742 . S
C1124 C489 1.813 . S
C1139 C90 1.632 . S
C1151 C209 1.591 . S
C1166 C135 0.683 . S
C1178 C569 0.756 . S
C1193 C129 1.572 . S
C1205 C179 1.571 . S
C1220 C219 1.757 . S
C1232 C338 1.804 . S
C1247 C259 1.597 . S
C1259 C58 1.622 . S
C1274 C418 0.655 . S
C1286 C286 0.736 . S
C1301 C330 1.571 . S
C1313 C618 1.572 . S
C1328 C169 1.760 . S
C1340 C370 1.783 . S
C1355 C529 1.584 . S
C1367 C410 1.617 . S
C1382 C249 0.733 . S
C1394 C455 0.686 . S
C1409 C499 1.565 . S
C1421 C449 1.559 . S
C1436 C539 1.769 1_455 S
C1448 C18 1.804 . S
C1463 C378 1.597 . S
C1475 C579 1.630 . S
C1490 C606 0.748 . S
C1502 C98 0.645 . S
C1517 C15 1.555 . S
C1529 C366 1.548 . S
C1544 C406 1.685 . S
C1556 C55 1.643 . S
C1571 C95 1.718 . S
C1583 C459 1.701 . S
C1598 C326 2.233 . S
C1610 C130 2.239 . S
C1625 C535 1.555 . S
C1637 C166 1.577 . S
C1652 C575 1.591 . S
C1664 C206 1.713 . S
C1679 C610 1.702 . S
C1691 C246 1.727 . S
C1706 C495 2.246 . S
C1718 C299 2.211 . S
C1733 C46 1.502 . S
C1745 C335 1.596 . S
C1760 C86 1.595 . S
C1772 C375 1.717 . S
C1787 C139 1.691 . S
C1799 C415 1.727 . S
C1814 C450 2.210 1_545 S
C1826 C6 2.250 . S
C1841 C215 1.556 . S
C1853 C486 1.577 . S
C1868 C255 1.687 . S
C1880 C526 1.633 . S
C1895 C290 1.702 . S
C1907 C566 1.736 . S
C1922 C175 2.237 . S
C1934 C619 2.240 1_565 S
