# Generated by pormake.
# Topology reo, (8)-cn, num edge types: 1
# Building blocks:
#     Node 0, Type 0, BuildingBlock: GIZVER_clean_sbu_0, # of connection points: 8
#     Node 1, Type 0, BuildingBlock: GIZVER_clean_sbu_0, # of connection points: 8
#     Node 2, Type 0, BuildingBlock: GIZVER_clean_sbu_0, # of connection points: 8
#     Edge 3, Type (0, 0), BuildingBlock: KIFKEQ_clean_linker_1, # of connection points: 2
#     Edge 4, Type (0, 0), BuildingBlock: KIFKEQ_clean_linker_1, # of connection points: 2
#     Edge 5, Type (0, 0), BuildingBlock: KIFKEQ_clean_linker_1, # of connection points: 2
#     Edge 6, Type (0, 0), BuildingBlock: KIFKEQ_clean_linker_1, # of connection points: 2
#     Edge 7, Type (0, 0), BuildingBlock: KIFKEQ_clean_linker_1, # of connection points: 2
#     Edge 8, Type (0, 0), BuildingBlock: KIFKEQ_clean_linker_1, # of connection points: 2
#     Edge 9, Type (0, 0), BuildingBlock: KIFKEQ_clean_linker_1, # of connection points: 2
#     Edge 10, Type (0, 0), BuildingBlock: KIFKEQ_clean_linker_1, # of connection points: 2
#     Edge 11, Type (0, 0), BuildingBlock: KIFKEQ_clean_linker_1, # of connection points: 2
#     Edge 12, Type (0, 0), BuildingBlock: KIFKEQ_clean_linker_1, # of connection points: 2
#     Edge 13, Type (0, 0), BuildingBlock: KIFKEQ_clean_linker_1, # of connection points: 2
#     Edge 14, Type (0, 0), BuildingBlock: KIFKEQ_clean_linker_1, # of connection points: 2
# Relax obj value: 0.091
# Max RMSD: 0.198
# Mean RMSD: 0.141
data_MOF--net-reo--node1-GIZVER_clean_sbu_0--edge1-KIFKEQ_clean_linker_1
_symmetry_space_group_name_H-M    P1
_symmetry_Int_Tables_number       1
_symmetry_cell_setting            triclinic
loop_
_symmetry_equiv_pos_as_xyz
'x, y, z'
_cell_length_a     24.498019
_cell_length_b     25.354924
_cell_length_c     25.855741
_cell_angle_alpha  107.00234
_cell_angle_beta   93.661537
_cell_angle_gamma 78.356768
loop_
_atom_site_label
_atom_site_type_symbol
_atom_site_fract_x
_atom_site_fract_y
_atom_site_fract_z
_atom_type_partial_charge
Co0 Co 0.05782 0.97976 0.61555 0.0
Co1 Co 0.12787 1.01983 0.57474 0.0
Co2 Co 0.02047 0.03855 0.51087 0.0
O3 O 0.07031 0.98518 0.54444 0.0
H4 H 0.08437 0.94927 0.51894 0.0
O5 O 0.97056 0.09156 0.47695 0.0
Co6 Co 0.98376 0.09511 0.40531 0.0
Co7 Co 0.91192 0.05779 0.44768 0.0
H8 H 0.95726 0.12796 0.50202 0.0
O9 O 0.19369 0.97566 0.57358 0.0
O10 O 0.12914 1.00781 0.64119 0.0
O11 O 0.12416 0.09913 0.58649 0.0
O12 O 0.03455 0.10997 0.5656 0.0
O13 O 0.08295 0.03717 0.46392 0.0
O14 O 0.99299 0.10311 0.34103 0.0
O15 O 0.94499 0.16658 0.41118 0.0
O16 O 0.0308 1.02286 0.39008 0.0
O17 O 1.00584 0.96742 0.4563 0.0
O18 O 0.91543 0.97863 0.43844 0.0
O19 O 0.9142 0.06487 0.3793 0.0
O20 O 0.84623 0.10257 0.44305 0.0
C21 C 0.07794 0.92087 0.65809 0.0
C22 C 0.96264 0.05252 0.60952 0.0
C23 C 0.07669 0.13032 0.58766 0.0
C24 C 0.17947 0.98214 0.62302 0.0
C25 C 0.96364 0.15291 0.36171 0.0
C26 C 0.07891 1.02304 0.41232 0.0
C27 C 0.96303 0.94725 0.43598 0.0
C28 C 0.86322 0.09128 0.39368 0.0
O29 O 0.049 0.97069 0.67942 0.0
O30 O 0.09594 0.90762 0.6084 0.0
O31 O 0.95842 0.03978 0.55794 0.0
O32 O 1.01084 0.05239 0.63191 0.0
Co33 Co 0.6245 1.0193 0.91072 0.0
Co34 Co 0.63017 0.06864 1.00467 0.0
Co35 Co 0.51902 1.03553 1.00769 0.0
O36 O 0.5677 0.0624 0.96505 0.0
H37 H 0.55048 0.09798 0.95913 0.0
O38 O 0.46973 1.00863 0.04967 0.0
Co39 Co 0.41162 0.05082 0.10272 0.0
Co40 Co 0.4074 1.00713 0.00989 0.0
H41 H 0.48542 0.9718 0.05348 0.0
O42 O 0.64843 0.13519 0.01523 0.0
O43 O 0.68629 0.05002 0.95759 0.0
O44 O 0.63924 0.0411 0.0662 0.0
O45 O 0.54923 0.07491 0.08018 0.0
O46 O 0.46241 0.10678 0.01014 0.0
O47 O 0.36156 0.08491 0.15477 0.0
O48 O 0.41165 0.99688 0.13663 0.0
O49 O 0.40283 0.11287 0.07462 0.0
O50 O 0.48897 0.99524 0.93567 0.0
O51 O 0.40067 1.03572 0.94858 0.0
O52 O 0.34887 1.02292 0.05373 0.0
O53 O 0.38898 0.94068 0.99268 0.0
C54 C 0.66126 1.03181 0.84633 0.0
C55 C 0.6185 0.93903 0.97572 0.0
C56 C 0.59793 0.05942 0.09769 0.0
C57 C 0.68611 0.10356 0.98037 0.0
C58 C 0.37379 0.03689 0.16556 0.0
C59 C 0.42036 0.13292 0.04057 0.0
C60 C 0.44079 1.01007 0.91687 0.0
C61 C 0.3471 0.97203 0.02247 0.0
O62 O 0.67401 0.98445 0.85834 0.0
O63 O 0.62265 0.07173 0.87434 0.0
O64 O 0.57591 0.96458 1.00557 0.0
O65 O 0.63537 0.95886 0.94116 0.0
Co66 Co 1.00434 0.43105 0.06062 0.0
Co67 Co 0.92558 0.47113 1.00226 0.0
Co68 Co 0.02098 0.53871 0.01182 0.0
O69 O 0.97697 0.50354 0.04996 0.0
H70 H 0.95822 0.53025 0.08151 0.0
O71 O 0.065 0.57414 0.97388 0.0
Co72 Co 0.03644 0.64617 0.96214 0.0
Co73 Co 0.1166 0.60769 0.02161 0.0
H74 H 0.0839 0.54738 0.94245 0.0
O75 O 0.8639 0.45297 0.0251 0.0
O76 O 0.94941 0.39872 1.00752 0.0
O77 O 0.93145 0.46663 0.92703 0.0
O78 O 1.01822 0.48121 0.93866 0.0
O79 O 0.94899 0.58678 0.996 0.0
O80 O 1.01496 0.71068 0.94516 0.0
O81 O 0.08226 0.63752 0.90623 0.0
O82 O 0.98316 0.66457 0.01788 0.0
O83 O 0.02372 0.5963 0.08493 0.0
O84 O 0.10985 0.61304 0.0969 0.0
O85 O 0.08984 0.67952 0.0157 0.0
O86 O 0.17694 0.62982 0.99883 0.0
C87 C 0.98773 0.38939 0.11399 0.0
C88 C 0.09955 0.43645 0.01306 0.0
C89 C 0.97918 0.46224 0.90815 0.0
C90 C 0.89676 0.40422 0.01695 0.0
C91 C 0.05314 0.68731 0.90821 0.0
C92 C 0.94145 0.64043 0.00984 0.0
C93 C 0.06222 0.61636 0.11551 0.0
C94 C 0.14153 0.67683 1.00533 0.0
O95 O 0.02538 0.36609 0.07654 0.0
O96 O 0.95893 0.43951 0.11678 0.0
O97 O 0.09275 0.49014 0.0274 0.0
O98 O 0.05735 0.41291 1.00463 0.0
H99 H 0.91431 0.42351 0.1997 0.0
H100 H 0.03898 0.2838 0.11448 0.0
H101 H 0.8997 0.36993 0.26125 0.0
H102 H 0.02514 0.23139 0.17566 0.0
H103 H 0.9568 0.12507 0.25268 0.0
H104 H 0.95543 0.18486 0.19432 0.0
H105 H 0.94698 0.32967 0.33437 0.0
H106 H 0.94706 0.26908 0.39342 0.0
C107 C 0.93856 0.38152 0.19404 0.0
C108 C 0.97768 0.35798 0.15188 0.0
C109 C 0.93037 0.35095 0.22948 0.0
C110 C 0.96079 0.29604 0.22319 0.0
C111 C 1.00004 0.27301 0.1812 0.0
C112 C 1.00827 0.30338 0.14615 0.0
C113 C 0.95389 0.16979 0.2712 0.0
C114 C 0.95283 0.1922 0.32776 0.0
C115 C 0.95344 0.20411 0.23765 0.0
C116 C 0.95255 0.26196 0.25954 0.0
C117 C 0.94782 0.28525 0.31612 0.0
C118 C 0.94782 0.25063 0.34997 0.0
H119 H 0.7626 0.1626 0.40989 0.0
H120 H 0.86811 0.03971 0.28532 0.0
H121 H 0.68449 0.16171 0.34597 0.0
H122 H 0.78989 0.03886 0.22192 0.0
H123 H 0.63396 0.98522 0.15342 0.0
H124 H 0.69606 1.0022 0.23155 0.0
H125 H 0.65911 0.17982 0.2464 0.0
H126 H 0.59672 0.1625 0.16762 0.0
C127 C 0.76933 0.13623 0.36862 0.0
C128 C 0.82103 0.1004 0.35264 0.0
C129 C 0.72469 0.1358 0.33234 0.0
C130 C 0.73123 0.09911 0.27997 0.0
C131 C 0.78392 0.06654 0.26277 0.0
C132 C 0.8287 0.06746 0.29877 0.0
C133 C 0.6369 1.02811 0.17516 0.0
C134 C 0.61084 0.07262 0.15515 0.0
C135 C 0.67291 0.03773 0.21918 0.0
C136 C 0.68314 0.09202 0.24351 0.0
C137 C 0.65182 0.13762 0.22777 0.0
C138 C 0.61571 0.12786 0.1834 0.0
H139 H 0.05278 0.86278 0.43341 0.0
H140 H 0.89363 0.89956 0.35646 0.0
H141 H 0.07533 0.77323 0.3638 0.0
H142 H 0.91691 0.81109 0.28576 0.0
H143 H 0.96288 0.64018 0.16902 0.0
H144 H 0.93602 0.7111 0.25469 0.0
H145 H 0.10197 0.74825 0.27234 0.0
H146 H 0.12918 0.67652 0.18818 0.0
C147 C 0.02222 0.85138 0.40206 0.0
C148 C 0.97162 0.88863 0.40026 0.0
C149 C 0.03535 0.80016 0.36183 0.0
C150 C 0.99849 0.78516 0.3184 0.0
C151 C 0.94627 0.8208 0.31866 0.0
C152 C 0.93288 0.8718 0.35926 0.0
C153 C 0.99396 0.66269 0.19177 0.0
C154 C 0.04813 0.65281 0.17132 0.0
C155 C 0.97839 0.70373 0.24076 0.0
C156 C 1.01656 0.73598 0.27044 0.0
C157 C 0.07149 0.72395 0.25124 0.0
C158 C 0.0871 0.68283 0.20252 0.0
H159 H 0.3239 0.11594 0.25343 0.0
H160 H 0.34752 0.93825 0.17185 0.0
H161 H 0.25837 0.10569 0.31537 0.0
H162 H 0.28002 0.92833 0.23326 0.0
H163 H 0.09209 0.97448 0.30295 0.0
H164 H 0.17063 0.97081 0.24698 0.0
H165 H 0.25569 0.05416 0.38931 0.0
H166 H 0.17799 0.05685 0.44548 0.0
C167 C 0.31567 0.07447 0.24919 0.0
C168 C 0.34096 1.02791 0.20766 0.0
C169 C 0.27812 0.06862 0.28476 0.0
C170 C 0.26382 1.01628 0.27908 0.0
C171 C 0.29014 0.96924 0.23849 0.0
C172 C 0.32908 0.97484 0.20367 0.0
C173 C 0.12788 0.99131 0.32242 0.0
C174 C 0.12853 1.01618 0.37874 0.0
C175 C 0.17299 0.98889 0.29036 0.0
C176 C 0.21931 1.01225 0.31374 0.0
C177 C 0.22053 1.03593 0.37014 0.0
C178 C 0.176 0.03733 0.4023 0.0
H179 H 0.08943 0.94827 0.76671 0.0
H180 H 0.09097 0.80483 0.62654 0.0
H181 H 0.09107 0.88905 0.82567 0.0
H182 H 0.09125 0.74485 0.68628 0.0
H183 H 0.12467 0.65098 0.82097 0.0
H184 H 0.13985 0.70348 0.75863 0.0
H185 H 0.01971 0.84569 0.84704 0.0
H186 H 1.00521 0.7942 0.90892 0.0
C187 C 0.09068 0.90376 0.74842 0.0
C188 C 0.08933 0.8814 0.69188 0.0
C189 C 0.09125 0.86979 0.78234 0.0
C190 C 0.08982 0.81236 0.76089 0.0
C191 C 0.09224 0.78896 0.70421 0.0
C192 C 0.09214 0.82322 0.66994 0.0
C193 C 0.1017 0.69354 0.82708 0.0
C194 C 0.06373 0.7183 0.87011 0.0
C195 C 0.11022 0.7235 0.79118 0.0
C196 C 0.08139 0.77905 0.79795 0.0
C197 C 0.04351 0.80345 0.84101 0.0
C198 C 0.03486 0.77363 0.87646 0.0
H199 H 0.39702 0.91702 0.88584 0.0
H200 H 0.44541 0.04355 0.82728 0.0
H201 H 0.33739 0.89244 0.80642 0.0
H202 H 0.38741 1.01754 0.74654 0.0
H203 H 0.28937 0.94212 0.59951 0.0
H204 H 0.36545 0.92991 0.66247 0.0
H205 H 0.24748 0.97124 0.79193 0.0
H206 H 0.17042 0.98509 0.72917 0.0
C207 C 0.39695 0.93747 0.85449 0.0
C208 C 0.42551 0.9819 0.86197 0.0
C209 C 0.36274 0.92367 0.80946 0.0
C210 C 0.35779 0.95352 0.7711 0.0
C211 C 0.39112 0.9938 0.77571 0.0
C212 C 0.42449 1.00842 0.82143 0.0
C213 C 0.27921 0.94781 0.64119 0.0
C214 C 0.22378 0.96572 0.65971 0.0
C215 C 0.32296 0.94054 0.67696 0.0
C216 C 0.31201 0.94982 0.73157 0.0
C217 C 0.25658 0.9635 0.74959 0.0
C218 C 0.21264 0.97175 0.71389 0.0
H219 H 0.07763 0.43834 0.8532 0.0
H220 H 0.91147 0.40181 0.83676 0.0
H221 H 0.10346 0.3672 0.76744 0.0
H222 H 0.9377 0.32975 0.75258 0.0
H223 H 0.98546 0.2138 0.59139 0.0
H224 H 0.9629 0.30351 0.66082 0.0
H225 H 0.12295 0.26762 0.73682 0.0
H226 H 0.14623 0.17915 0.66631 0.0
C227 C 0.04637 0.41571 0.83104 0.0
C228 C 0.99256 0.42563 0.85226 0.0
C229 C 0.06133 0.37453 0.78198 0.0
C230 C 0.02295 0.34208 0.75307 0.0
C231 C 0.96833 0.35417 0.77305 0.0
C232 C 0.95329 0.39549 0.82179 0.0
C233 C 1.01633 0.22565 0.62226 0.0
C234 C 0.06744 0.18895 0.62352 0.0
C235 C 1.00321 0.27697 0.6624 0.0
C236 C 0.0406 0.29263 0.7052 0.0
C237 C 0.09317 0.25746 0.70442 0.0
C238 C 0.10653 0.20641 0.66393 0.0
H239 H 0.68212 0.1313 0.83623 0.0
H240 H 0.71894 0.95181 0.7634 0.0
H241 H 0.75278 0.14218 0.7787 0.0
H242 H 0.787 0.96302 0.70443 0.0
H243 H 0.86555 1.01599 0.57391 0.0
H244 H 0.78706 1.01613 0.62773 0.0
H245 H 0.86737 0.1005 0.77285 0.0
H246 H 0.94716 0.0991 0.71918 0.0
C247 C 0.7045 0.09437 0.80747 0.0
C248 C 0.69533 0.04066 0.805 0.0
C249 C 0.74502 0.10058 0.77465 0.0
C250 C 0.77563 0.05337 0.73734 0.0
C251 C 0.76407 1.00015 0.73275 0.0
C252 C 0.72496 0.99381 0.76653 0.0
C253 C 0.86644 1.03513 0.61722 0.0
C254 C 0.91293 0.05734 0.64221 0.0
C255 C 0.82142 1.0351 0.64799 0.0
C256 C 0.82102 0.05845 0.70441 0.0
C257 C 0.86638 0.08264 0.72935 0.0
C258 C 0.91214 0.08155 0.69866 0.0
H259 H 0.19401 0.45856 0.07235 0.0
H260 H 0.13164 0.33071 0.94661 0.0
H261 H 0.28081 0.39122 0.07584 0.0
H262 H 0.21818 0.26417 0.94937 0.0
H263 H 0.39451 0.16265 0.94647 0.0
H264 H 0.32408 0.24241 0.93468 0.0
H265 H 0.29765 0.30189 0.10714 0.0
H266 H 0.36681 0.2221 0.1187 0.0
C267 C 0.19938 0.41663 0.04455 0.0
C268 C 0.15583 0.39993 0.0094 0.0
C269 C 0.24892 0.37796 0.04673 0.0
C270 C 0.25645 0.32221 0.01291 0.0
C271 C 0.21411 0.30677 0.97561 0.0
C272 C 0.16433 0.3449 0.97425 0.0
C273 C 0.37463 0.19357 0.98189 0.0
C274 C 0.38624 0.18605 0.03351 0.0
C275 C 0.33402 0.23902 0.97515 0.0
C276 C 0.30514 0.27856 0.02 0.0
C277 C 0.31937 0.27267 0.07181 0.0
C278 C 0.3589 0.22676 0.0784 0.0
H279 H 0.2355 0.68248 0.95855 0.0
H280 H 0.08915 0.78587 0.04677 0.0
H281 H 0.26935 0.76666 0.95952 0.0
H282 H 0.12373 0.87057 0.04828 0.0
H283 H 0.27737 0.9752 0.10269 0.0
H284 H 0.21357 0.90971 0.09449 0.0
H285 H 0.23912 0.85155 0.92171 0.0
H286 H 0.3034 0.91531 0.93022 0.0
C287 C 0.21046 0.72321 0.97784 0.0
C288 C 0.16003 0.72771 1.00288 0.0
C289 C 0.22954 0.77137 0.97805 0.0
C290 C 0.19887 0.82494 1.00383 0.0
C291 C 0.14796 0.82966 0.0282 0.0
C292 C 0.12831 0.7813 0.02717 0.0
C293 C 0.26785 0.94954 0.06305 0.0
C294 C 0.29639 0.94854 0.0174 0.0
C295 C 0.2313 0.91237 0.05822 0.0
C296 C 0.22285 0.87478 1.00757 0.0
C297 C 0.24601 0.87931 0.96127 0.0
C298 C 0.28266 0.91575 0.96618 0.0
H299 H 0.79717 0.08757 1.00392 0.0
H300 H 0.6663 0.18466 0.93157 0.0
H301 H 0.85621 0.15699 0.01029 0.0
H302 H 0.72544 0.25201 0.93511 0.0
H303 H 0.79064 0.40129 0.03894 0.0
H304 H 0.74782 0.31934 0.02038 0.0
H305 H 0.90555 0.21108 0.96461 0.0
H306 H 0.94921 0.29368 0.98418 0.0
C307 C 0.78237 0.12216 0.98683 0.0
C308 C 0.72778 0.13101 0.96681 0.0
C309 C 0.81584 0.16193 0.99072 0.0
C310 C 0.79466 0.21049 0.97446 0.0
C311 C 0.74221 0.21567 0.94918 0.0
C312 C 0.70873 0.17677 0.94628 0.0
C313 C 0.81643 0.36012 0.0231 0.0
C314 C 0.87303 0.35402 0.01217 0.0
C315 C 0.7918 0.31316 0.012 0.0
C316 C 0.8231 0.25903 0.9895 0.0
C317 C 0.88045 0.25243 0.98138 0.0
C318 C 0.90529 0.29967 0.99263 0.0
H319 H 0.84853 0.61649 0.94893 0.0
H320 H 0.9072 0.74606 0.07574 0.0
H321 H 0.76132 0.6826 0.94359 0.0
H322 H 0.82009 0.81136 0.07127 0.0
H323 H 0.64137 0.90864 0.06983 0.0
H324 H 0.71259 0.83022 0.08332 0.0
H325 H 0.74597 0.77275 0.91203 0.0
H326 H 0.67636 0.85147 0.89892 0.0
C327 C 0.84221 0.65852 0.97661 0.0
C328 C 0.88485 0.6761 0.01258 0.0
C329 C 0.79245 0.69647 0.97338 0.0
C330 C 0.78377 0.75231 1.00699 0.0
C331 C 0.82513 0.76863 0.04516 0.0
C332 C 0.87519 0.73123 0.04752 0.0
C333 C 0.66316 0.87859 0.03505 0.0
C334 C 0.65341 0.8865 0.98341 0.0
C335 C 0.7041 0.83385 0.04275 0.0
C336 C 0.73501 0.79522 0.99871 0.0
C337 C 0.72266 0.80132 0.94671 0.0
C338 C 0.68288 0.84664 0.93926 0.0
loop_
_geom_bond_atom_site_label_1
_geom_bond_atom_site_label_2
_geom_bond_distance
_geom_bond_site_symmetry_2
_ccdc_geom_bond_type
Co0 O3 2.042 . S
Co0 O10 2.264 . S
Co0 O29 2.286 . S
Co0 O30 2.069 . S
Co0 O32 2.015 1_455 S
Co1 O3 2.122 1_545 S
Co1 O9 2.073 1_545 S
Co1 O10 2.327 1_545 S
Co1 O11 1.976 . S
Co2 O3 2.087 1_545 S
Co2 O5 2.087 1_455 S
Co2 O12 2.111 . S
Co2 O13 2.143 . S
Co2 O17 2.111 1_445 S
Co2 O31 2.143 1_445 S
O3 Co0 2.042 . S
O3 Co1 2.122 1_565 S
O3 Co2 2.087 1_565 S
O3 H4 0.980 . S
H4 O3 0.980 . S
O5 Co2 2.087 1_655 S
O5 Co6 2.042 . S
O5 Co7 2.122 1_545 S
O5 H8 0.980 . S
Co6 O5 2.042 . S
Co6 O14 2.286 . S
Co6 O15 2.069 . S
Co6 O16 2.015 1_655 S
Co6 O19 2.264 . S
Co7 O5 2.122 1_565 S
Co7 O18 1.976 . S
Co7 O19 2.327 1_565 S
Co7 O20 2.073 1_565 S
H8 O5 0.980 . S
O9 Co1 2.073 1_565 S
O9 C24 1.245 . S
O10 Co0 2.264 . S
O10 Co1 2.327 1_565 S
O10 C24 1.257 . S
O11 Co1 1.976 . S
O11 C23 1.251 . S
O12 Co2 2.111 . S
O12 C23 1.274 . S
O13 Co2 2.143 . S
O13 C26 1.246 1_545 S
O14 Co6 2.286 . S
O14 C25 1.259 . S
O15 Co6 2.069 . S
O15 C25 1.289 . S
O16 Co6 2.015 1_455 S
O16 C26 1.257 1_545 S
O17 Co2 2.111 1_665 S
O17 C27 1.274 . S
O18 Co7 1.976 . S
O18 C27 1.251 . S
O19 Co6 2.264 . S
O19 Co7 2.327 1_545 S
O19 C28 1.257 . S
O20 Co7 2.073 1_545 S
O20 C28 1.245 . S
C21 O29 1.259 . S
C21 O30 1.289 . S
C22 O31 1.246 1_545 S
C22 O32 1.257 1_545 S
C23 O11 1.251 . S
C23 O12 1.274 . S
C24 O9 1.245 . S
C24 O10 1.257 . S
C25 O14 1.259 . S
C25 O15 1.289 . S
C26 O13 1.246 1_565 S
C26 O16 1.257 1_565 S
C27 O17 1.274 . S
C27 O18 1.251 . S
C28 O19 1.257 . S
C28 O20 1.245 . S
O29 Co0 2.286 . S
O29 C21 1.259 . S
O30 Co0 2.069 . S
O30 C21 1.289 . S
O31 Co2 2.143 1_665 S
O31 C22 1.246 1_565 S
O32 Co0 2.015 1_655 S
O32 C22 1.257 1_565 S
Co33 O36 2.042 . S
Co33 O43 2.264 . S
Co33 O62 2.286 1_545 S
Co33 O63 2.069 . S
Co33 O65 2.015 1_545 S
Co34 O36 2.122 1_554 S
Co34 O42 2.073 . S
Co34 O43 2.327 1_554 S
Co34 O44 1.976 . S
Co35 O36 2.087 1_554 S
Co35 O38 2.087 1_545 S
Co35 O45 2.111 . S
Co35 O46 2.143 . S
Co35 O50 2.111 1_544 S
Co35 O64 2.143 1_544 S
O36 Co33 2.042 . S
O36 Co34 2.122 1_556 S
O36 Co35 2.087 1_556 S
O36 H37 0.980 . S
H37 O36 0.980 . S
O38 Co35 2.087 1_565 S
O38 Co39 2.042 . S
O38 Co40 2.122 1_554 S
O38 H41 0.980 . S
Co39 O38 2.042 . S
Co39 O47 2.286 1_565 S
Co39 O48 2.069 . S
Co39 O49 2.015 1_565 S
Co39 O52 2.264 . S
Co40 O38 2.122 1_556 S
Co40 O51 1.976 . S
Co40 O52 2.327 1_556 S
Co40 O53 2.073 . S
H41 O38 0.980 . S
O42 Co34 2.073 . S
O42 C57 1.245 1_554 S
O43 Co33 2.264 . S
O43 Co34 2.327 1_556 S
O43 C57 1.257 . S
O44 Co34 1.976 . S
O44 C56 1.251 . S
O45 Co35 2.111 . S
O45 C56 1.274 . S
O46 Co35 2.143 . S
O46 C59 1.246 . S
O47 Co39 2.286 1_545 S
O47 C58 1.259 1_545 S
O48 Co39 2.069 . S
O48 C58 1.289 . S
O49 Co39 2.015 1_545 S
O49 C59 1.257 . S
O50 Co35 2.111 1_566 S
O50 C60 1.274 . S
O51 Co40 1.976 . S
O51 C60 1.251 . S
O52 Co39 2.264 . S
O52 Co40 2.327 1_554 S
O52 C61 1.257 . S
O53 Co40 2.073 . S
O53 C61 1.245 1_556 S
C54 O62 1.259 1_545 S
C54 O63 1.289 . S
C55 O64 1.246 . S
C55 O65 1.257 . S
C56 O44 1.251 . S
C56 O45 1.274 . S
C57 O42 1.245 1_556 S
C57 O43 1.257 . S
C58 O47 1.259 1_565 S
C58 O48 1.289 . S
C59 O46 1.246 . S
C59 O49 1.257 . S
C60 O50 1.274 . S
C60 O51 1.251 . S
C61 O52 1.257 . S
C61 O53 1.245 1_554 S
O62 Co33 2.286 1_565 S
O62 C54 1.259 1_565 S
O63 Co33 2.069 . S
O63 C54 1.289 . S
O64 Co35 2.143 1_566 S
O64 C55 1.246 . S
O65 Co33 2.015 1_565 S
O65 C55 1.257 . S
Co66 O69 2.042 . S
Co66 O76 2.264 . S
Co66 O95 2.286 1_655 S
Co66 O96 2.069 . S
Co66 O98 2.015 1_655 S
Co67 O69 2.122 1_556 S
Co67 O75 2.073 1_556 S
Co67 O76 2.327 1_556 S
Co67 O77 1.976 . S
Co68 O69 2.087 1_455 S
Co68 O71 2.087 1_554 S
Co68 O78 2.111 1_454 S
Co68 O79 2.143 1_454 S
Co68 O83 2.111 . S
Co68 O97 2.143 . S
O69 Co66 2.042 . S
O69 Co67 2.122 1_554 S
O69 Co68 2.087 1_655 S
O69 H70 0.980 . S
H70 O69 0.980 . S
O71 Co68 2.087 1_556 S
O71 Co72 2.042 . S
O71 Co73 2.122 1_556 S
O71 H74 0.980 . S
Co72 O71 2.042 . S
Co72 O80 2.286 1_455 S
Co72 O81 2.069 . S
Co72 O82 2.015 1_455 S
Co72 O85 2.264 . S
Co73 O71 2.122 1_554 S
Co73 O84 1.976 . S
Co73 O85 2.327 1_554 S
Co73 O86 2.073 1_554 S
H74 O71 0.980 . S
O75 Co67 2.073 1_554 S
O75 C90 1.245 . S
O76 Co66 2.264 . S
O76 Co67 2.327 1_554 S
O76 C90 1.257 . S
O77 Co67 1.976 . S
O77 C89 1.251 . S
O78 Co68 2.111 1_656 S
O78 C89 1.274 . S
O79 Co68 2.143 1_656 S
O79 C92 1.249 1_556 S
O80 Co72 2.286 1_655 S
O80 C91 1.259 1_655 S
O81 Co72 2.069 . S
O81 C91 1.289 . S
O82 Co72 2.015 1_655 S
O82 C92 1.249 1_556 S
O83 Co68 2.111 . S
O83 C93 1.274 . S
O84 Co73 1.976 . S
O84 C93 1.251 . S
O85 Co72 2.264 . S
O85 Co73 2.327 1_556 S
O85 C94 1.257 . S
O86 Co73 2.073 1_556 S
O86 C94 1.245 . S
C87 O95 1.259 1_655 S
C87 O96 1.289 . S
C88 O97 1.248 1_556 S
C88 O98 1.252 1_556 S
C89 O77 1.251 . S
C89 O78 1.274 . S
C90 O75 1.245 . S
C90 O76 1.257 . S
C91 O80 1.259 1_455 S
C91 O81 1.289 . S
C92 O79 1.249 1_554 S
C92 O82 1.249 1_554 S
C93 O83 1.274 . S
C93 O84 1.251 . S
C94 O85 1.257 . S
C94 O86 1.245 . S
O95 Co66 2.286 1_455 S
O95 C87 1.259 1_455 S
O96 Co66 2.069 . S
O96 C87 1.289 . S
O97 Co68 2.143 . S
O97 C88 1.248 1_554 S
O98 Co66 2.015 1_455 S
O98 C88 1.252 1_554 S
H99 C107 0.950 . S
H100 C112 0.935 1_455 S
H101 C109 0.950 . S
H102 C111 0.950 1_455 S
H103 C113 0.950 1_455 S
H104 C115 0.950 1_455 S
H105 C117 0.950 . S
H106 C118 0.950 . S
C107 H99 0.950 . S
C107 C108 1.386 . S
C107 C109 1.391 . S
C108 C107 1.386 . S
C108 C112 1.404 . S
C109 H101 0.950 . S
C109 C107 1.391 . S
C109 C110 1.400 . S
C110 C109 1.400 . S
C110 C111 1.398 . S
C110 C116 1.491 . S
C111 H102 0.950 1_655 S
C111 C110 1.398 . S
C111 C112 1.395 . S
C112 H100 0.935 1_655 S
C112 C108 1.404 . S
C112 C111 1.395 . S
C113 H103 0.950 1_655 S
C113 C114 1.386 . S
C113 C115 1.391 . S
C114 C113 1.386 . S
C114 C118 1.393 . S
C115 H104 0.950 1_655 S
C115 C113 1.391 . S
C115 C116 1.400 . S
C116 C110 1.491 . S
C116 C115 1.400 . S
C116 C117 1.398 . S
C117 H105 0.950 . S
C117 C116 1.398 . S
C117 C118 1.391 . S
C118 H106 0.950 . S
C118 C114 1.393 . S
C118 C117 1.391 . S
H119 C127 0.950 . S
H120 C132 0.950 . S
H121 C129 0.950 . S
H122 C131 0.950 . S
H123 C133 0.950 . S
H124 C135 0.950 . S
H125 C137 0.950 . S
H126 C138 0.950 . S
C127 H119 0.950 . S
C127 C128 1.386 . S
C127 C129 1.391 . S
C128 C127 1.386 . S
C128 C132 1.393 1_545 S
C129 H121 0.950 . S
C129 C127 1.391 . S
C129 C130 1.400 . S
C130 C129 1.400 . S
C130 C131 1.398 1_545 S
C130 C136 1.491 . S
C131 H122 0.950 . S
C131 C130 1.398 1_565 S
C131 C132 1.391 . S
C132 H120 0.950 . S
C132 C128 1.393 1_565 S
C132 C131 1.391 . S
C133 H123 0.950 . S
C133 C134 1.386 1_565 S
C133 C135 1.391 . S
C134 C133 1.386 1_545 S
C134 C138 1.393 . S
C135 H124 0.950 . S
C135 C133 1.391 . S
C135 C136 1.400 1_565 S
C136 C130 1.491 . S
C136 C135 1.400 1_545 S
C136 C137 1.398 . S
C137 H125 0.950 . S
C137 C136 1.398 . S
C137 C138 1.391 . S
C138 H126 0.950 . S
C138 C134 1.393 . S
C138 C137 1.391 . S
H139 C147 0.950 . S
H140 C152 0.950 . S
H141 C149 0.950 . S
H142 C151 0.950 . S
H143 C153 0.950 . S
H144 C155 0.950 . S
H145 C157 0.950 . S
H146 C158 0.950 . S
C147 H139 0.950 . S
C147 C148 1.386 . S
C147 C149 1.391 . S
C148 C147 1.386 . S
C148 C152 1.393 1_455 S
C149 H141 0.950 . S
C149 C147 1.391 . S
C149 C150 1.400 . S
C150 C149 1.400 . S
C150 C151 1.398 1_455 S
C150 C156 1.491 . S
C151 H142 0.950 . S
C151 C150 1.398 1_655 S
C151 C152 1.391 . S
C152 H140 0.950 . S
C152 C148 1.393 1_655 S
C152 C151 1.391 . S
C153 H143 0.950 . S
C153 C154 1.386 . S
C153 C155 1.391 . S
C154 C153 1.386 . S
C154 C158 1.393 1_655 S
C155 H144 0.950 . S
C155 C153 1.391 . S
C155 C156 1.401 1_655 S
C156 C150 1.491 . S
C156 C155 1.401 1_455 S
C156 C157 1.398 . S
C157 H145 0.950 . S
C157 C156 1.398 . S
C157 C158 1.391 . S
C158 H146 0.950 . S
C158 C154 1.393 1_455 S
C158 C157 1.391 . S
H159 C167 0.950 . S
H160 C172 0.950 . S
H161 C169 0.950 . S
H162 C171 0.950 . S
H163 C173 0.950 . S
H164 C175 0.950 . S
H165 C177 0.950 . S
H166 C178 0.950 . S
C167 H159 0.950 . S
C167 C168 1.386 1_545 S
C167 C169 1.391 . S
C168 C167 1.386 1_565 S
C168 C172 1.393 . S
C169 H161 0.950 . S
C169 C167 1.391 . S
C169 C170 1.400 1_545 S
C170 C169 1.400 1_565 S
C170 C171 1.398 . S
C170 C176 1.491 . S
C171 H162 0.950 . S
C171 C170 1.398 . S
C171 C172 1.391 . S
C172 H160 0.950 . S
C172 C168 1.393 . S
C172 C171 1.391 . S
C173 H163 0.950 . S
C173 C174 1.386 . S
C173 C175 1.391 . S
C174 C173 1.386 . S
C174 C178 1.393 1_565 S
C175 H164 0.950 . S
C175 C173 1.391 . S
C175 C176 1.400 . S
C176 C170 1.491 . S
C176 C175 1.400 . S
C176 C177 1.398 1_565 S
C177 H165 0.950 . S
C177 C176 1.398 1_545 S
C177 C178 1.391 . S
C178 H166 0.950 . S
C178 C174 1.393 1_545 S
C178 C177 1.391 . S
H179 C187 0.945 1_655 S
H180 C192 0.950 . S
H181 C189 0.950 1_655 S
H182 C191 0.950 . S
H183 C193 0.950 . S
H184 C195 0.950 . S
H185 C197 0.950 1_655 S
H186 C198 0.950 1_655 S
C187 H179 0.945 1_455 S
C187 C188 1.386 . S
C187 C189 1.391 . S
C188 C187 1.386 . S
C188 C192 1.393 . S
C189 H181 0.950 1_455 S
C189 C187 1.391 . S
C189 C190 1.400 . S
C190 C189 1.400 . S
C190 C191 1.398 . S
C190 C196 1.491 . S
C191 H182 0.950 . S
C191 C190 1.398 . S
C191 C192 1.391 . S
C192 H180 0.950 . S
C192 C188 1.393 . S
C192 C191 1.391 . S
C193 H183 0.950 . S
C193 C194 1.386 . S
C193 C195 1.391 . S
C194 C193 1.386 . S
C194 C198 1.393 . S
C195 H184 0.950 . S
C195 C193 1.391 . S
C195 C196 1.400 . S
C196 C190 1.491 . S
C196 C195 1.400 . S
C196 C197 1.398 . S
C197 H185 0.950 1_455 S
C197 C196 1.398 . S
C197 C198 1.391 . S
C198 H186 0.950 1_455 S
C198 C194 1.393 . S
C198 C197 1.391 . S
H199 C207 0.950 . S
H200 C212 0.950 . S
H201 C209 0.950 . S
H202 C211 0.950 . S
H203 C213 0.950 . S
H204 C215 0.950 . S
H205 C217 0.950 . S
H206 C218 0.950 . S
C207 H199 0.950 . S
C207 C208 1.386 . S
C207 C209 1.391 . S
C208 C207 1.386 . S
C208 C212 1.393 1_565 S
C209 H201 0.950 . S
C209 C207 1.391 . S
C209 C210 1.400 . S
C210 C209 1.400 . S
C210 C211 1.398 1_565 S
C210 C216 1.491 . S
C211 H202 0.950 . S
C211 C210 1.398 1_545 S
C211 C212 1.391 . S
C212 H200 0.950 . S
C212 C208 1.393 1_545 S
C212 C211 1.391 . S
C213 H203 0.950 . S
C213 C214 1.386 1_545 S
C213 C215 1.391 . S
C214 C213 1.386 1_565 S
C214 C218 1.393 . S
C215 H204 0.950 . S
C215 C213 1.391 . S
C215 C216 1.400 1_545 S
C216 C210 1.491 . S
C216 C215 1.400 1_565 S
C216 C217 1.398 . S
C217 H205 0.950 . S
C217 C216 1.398 . S
C217 C218 1.391 . S
C218 H206 0.950 . S
C218 C214 1.393 . S
C218 C217 1.391 . S
H219 C227 0.950 . S
H220 C232 0.950 . S
H221 C229 0.950 . S
H222 C231 0.950 . S
H223 C233 0.950 . S
H224 C235 0.950 . S
H225 C237 0.950 . S
H226 C238 0.950 . S
C227 H219 0.950 . S
C227 C228 1.386 . S
C227 C229 1.391 . S
C228 C227 1.386 . S
C228 C232 1.393 1_455 S
C229 H221 0.950 . S
C229 C227 1.391 . S
C229 C230 1.400 . S
C230 C229 1.400 . S
C230 C231 1.398 1_455 S
C230 C236 1.491 1_455 S
C231 H222 0.950 . S
C231 C230 1.398 1_655 S
C231 C232 1.391 . S
C232 H220 0.950 . S
C232 C228 1.393 1_655 S
C232 C231 1.391 . S
C233 H223 0.950 . S
C233 C234 1.386 . S
C233 C235 1.391 . S
C234 C233 1.386 . S
C234 C238 1.393 1_655 S
C235 H224 0.950 . S
C235 C233 1.391 . S
C235 C236 1.400 . S
C236 C230 1.491 1_655 S
C236 C235 1.400 . S
C236 C237 1.398 1_655 S
C237 H225 0.950 . S
C237 C236 1.398 1_455 S
C237 C238 1.391 . S
C238 H226 0.950 . S
C238 C234 1.393 1_455 S
C238 C237 1.391 . S
H239 C247 0.950 . S
H240 C252 0.950 . S
H241 C249 0.950 . S
H242 C251 0.950 . S
H243 C253 0.950 . S
H244 C255 0.950 . S
H245 C257 0.950 . S
H246 C258 0.950 . S
C247 H239 0.950 . S
C247 C248 1.386 . S
C247 C249 1.391 . S
C248 C247 1.386 . S
C248 C252 1.393 1_545 S
C249 H241 0.950 . S
C249 C247 1.391 . S
C249 C250 1.400 . S
C250 C249 1.400 . S
C250 C251 1.398 1_545 S
C250 C256 1.491 . S
C251 H242 0.950 . S
C251 C250 1.398 1_565 S
C251 C252 1.391 . S
C252 H240 0.950 . S
C252 C248 1.393 1_565 S
C252 C251 1.391 . S
C253 H243 0.950 . S
C253 C254 1.386 1_565 S
C253 C255 1.391 . S
C254 C253 1.386 1_545 S
C254 C258 1.393 . S
C255 H244 0.950 . S
C255 C253 1.391 . S
C255 C256 1.400 1_565 S
C256 C250 1.491 . S
C256 C255 1.400 1_545 S
C256 C257 1.398 . S
C257 H245 0.950 . S
C257 C256 1.398 . S
C257 C258 1.391 . S
C258 H246 0.950 . S
C258 C254 1.393 . S
C258 C257 1.391 . S
H259 C267 0.950 . S
H260 C272 0.950 . S
H261 C269 0.950 . S
H262 C271 0.950 . S
H263 C273 0.950 . S
H264 C275 0.950 . S
H265 C277 0.950 . S
H266 C278 0.950 . S
C267 H259 0.950 . S
C267 C268 1.386 1_554 S
C267 C269 1.391 . S
C268 C267 1.386 1_556 S
C268 C272 1.393 . S
C269 H261 0.950 . S
C269 C267 1.391 . S
C269 C270 1.400 1_554 S
C270 C269 1.400 1_556 S
C270 C271 1.398 . S
C270 C276 1.492 . S
C271 H262 0.950 . S
C271 C270 1.398 . S
C271 C272 1.391 . S
C272 H260 0.950 . S
C272 C268 1.393 . S
C272 C271 1.391 . S
C273 H263 0.950 . S
C273 C274 1.386 1_556 S
C273 C275 1.391 . S
C274 C273 1.386 1_554 S
C274 C278 1.393 . S
C275 H264 0.950 . S
C275 C273 1.391 . S
C275 C276 1.403 . S
C276 C270 1.492 . S
C276 C275 1.403 . S
C276 C277 1.395 1_556 S
C277 H265 0.950 . S
C277 C276 1.395 1_554 S
C277 C278 1.391 . S
C278 H266 0.950 . S
C278 C274 1.393 . S
C278 C277 1.391 . S
H279 C287 0.950 . S
H280 C292 0.950 . S
H281 C289 0.950 . S
H282 C291 0.950 . S
H283 C293 0.950 . S
H284 C295 0.950 . S
H285 C297 0.950 . S
H286 C298 0.950 . S
C287 H279 0.950 . S
C287 C288 1.386 . S
C287 C289 1.391 . S
C288 C287 1.386 . S
C288 C292 1.393 1_556 S
C289 H281 0.950 . S
C289 C287 1.391 . S
C289 C290 1.400 . S
C290 C289 1.400 . S
C290 C291 1.398 1_556 S
C290 C296 1.491 1_556 S
C291 H282 0.950 . S
C291 C290 1.398 1_554 S
C291 C292 1.391 . S
C292 H280 0.950 . S
C292 C288 1.393 1_554 S
C292 C291 1.391 . S
C293 H283 0.950 . S
C293 C294 1.386 . S
C293 C295 1.391 . S
C294 C293 1.386 . S
C294 C298 1.393 1_554 S
C295 H284 0.950 . S
C295 C293 1.391 . S
C295 C296 1.400 . S
C296 C290 1.491 1_554 S
C296 C295 1.400 . S
C296 C297 1.398 1_554 S
C297 H285 0.950 . S
C297 C296 1.398 1_556 S
C297 C298 1.391 . S
C298 H286 0.950 . S
C298 C294 1.393 1_556 S
C298 C297 1.391 . S
H299 C307 0.950 . S
H300 C312 0.950 . S
H301 C309 0.950 . S
H302 C311 0.950 . S
H303 C313 0.950 . S
H304 C315 0.950 . S
H305 C317 0.950 . S
H306 C318 0.950 . S
C307 H299 0.950 . S
C307 C308 1.386 . S
C307 C309 1.391 . S
C308 C307 1.386 . S
C308 C312 1.393 1_556 S
C309 H301 0.950 . S
C309 C307 1.391 . S
C309 C310 1.400 . S
C310 C309 1.400 . S
C310 C311 1.398 1_556 S
C310 C316 1.491 1_556 S
C311 H302 0.950 . S
C311 C310 1.398 1_554 S
C311 C312 1.391 . S
C312 H300 0.950 . S
C312 C308 1.393 1_554 S
C312 C311 1.391 . S
C313 H303 0.950 . S
C313 C314 1.386 . S
C313 C315 1.391 . S
C314 C313 1.386 . S
C314 C318 1.393 1_554 S
C315 H304 0.950 . S
C315 C313 1.391 . S
C315 C316 1.400 . S
C316 C310 1.491 1_554 S
C316 C315 1.400 . S
C316 C317 1.398 1_554 S
C317 H305 0.950 . S
C317 C316 1.398 1_556 S
C317 C318 1.391 . S
C318 H306 0.950 . S
C318 C314 1.393 1_556 S
C318 C317 1.391 . S
H319 C327 0.950 . S
H320 C332 0.950 . S
H321 C329 0.950 . S
H322 C331 0.950 . S
H323 C333 0.950 . S
H324 C335 0.950 . S
H325 C337 0.950 . S
H326 C338 0.950 . S
C327 H319 0.950 . S
C327 C328 1.386 1_556 S
C327 C329 1.391 . S
C328 C327 1.386 1_554 S
C328 C332 1.393 . S
C329 H321 0.950 . S
C329 C327 1.391 . S
C329 C330 1.400 1_556 S
C330 C329 1.400 1_554 S
C330 C331 1.398 . S
C330 C336 1.490 1_554 S
C331 H322 0.950 . S
C331 C330 1.398 . S
C331 C332 1.391 . S
C332 H320 0.950 . S
C332 C328 1.393 . S
C332 C331 1.391 . S
C333 H323 0.950 . S
C333 C334 1.386 1_554 S
C333 C335 1.391 . S
C334 C333 1.386 1_556 S
C334 C338 1.393 . S
C335 H324 0.950 . S
C335 C333 1.391 . S
C335 C336 1.399 1_554 S
C336 C330 1.490 1_556 S
C336 C335 1.399 1_556 S
C336 C337 1.400 . S
C337 H325 0.950 . S
C337 C336 1.400 . S
C337 C338 1.391 . S
C338 H326 0.950 . S
C338 C334 1.393 . S
C338 C337 1.391 . S
C108 C87 1.746 . S
C114 C25 1.700 . S
C128 C28 1.187 . S
C134 C56 1.178 . S
C148 C27 1.097 1_455 S
C154 C93 1.099 1_655 S
C168 C58 1.973 . S
C174 C26 1.840 . S
C188 C21 1.699 . S
C194 C91 1.748 . S
C208 C60 1.142 . S
C214 C24 1.156 . S
C228 C89 1.098 1_455 S
C234 C23 1.095 1_655 S
C248 C54 1.972 . S
C254 C22 1.847 . S
C268 C88 2.062 . S
C274 C59 2.146 . S
C288 C94 1.120 . S
C294 C61 1.119 . S
C308 C57 1.129 . S
C314 C90 1.128 . S
C328 C92 2.083 . S
C334 C55 2.134 . S
