# Generated by pormake.
# Topology gie, (4)-cn, num edge types: 1
# Building blocks:
#     Node 0, Type 0, BuildingBlock: MUDLON_clean_sbu_0, # of connection points: 4
#     Node 1, Type 0, BuildingBlock: MUDLON_clean_sbu_0, # of connection points: 4
#     Node 2, Type 0, BuildingBlock: MUDLON_clean_sbu_0, # of connection points: 4
#     Node 3, Type 0, BuildingBlock: MUDLON_clean_sbu_0, # of connection points: 4
#     Node 4, Type 0, BuildingBlock: MUDLON_clean_sbu_0, # of connection points: 4
#     Node 5, Type 0, BuildingBlock: MUDLON_clean_sbu_0, # of connection points: 4
#     Node 6, Type 0, BuildingBlock: MUDLON_clean_sbu_0, # of connection points: 4
#     Node 7, Type 0, BuildingBlock: MUDLON_clean_sbu_0, # of connection points: 4
#     Node 8, Type 0, BuildingBlock: MUDLON_clean_sbu_0, # of connection points: 4
#     Node 9, Type 0, BuildingBlock: MUDLON_clean_sbu_0, # of connection points: 4
#     Node 10, Type 0, BuildingBlock: MUDLON_clean_sbu_0, # of connection points: 4
#     Node 11, Type 0, BuildingBlock: MUDLON_clean_sbu_0, # of connection points: 4
#     Node 12, Type 0, BuildingBlock: MUDLON_clean_sbu_0, # of connection points: 4
#     Node 13, Type 0, BuildingBlock: MUDLON_clean_sbu_0, # of connection points: 4
#     Node 14, Type 0, BuildingBlock: MUDLON_clean_sbu_0, # of connection points: 4
#     Node 15, Type 0, BuildingBlock: MUDLON_clean_sbu_0, # of connection points: 4
#     Node 16, Type 0, BuildingBlock: MUDLON_clean_sbu_0, # of connection points: 4
#     Node 17, Type 0, BuildingBlock: MUDLON_clean_sbu_0, # of connection points: 4
#     Node 18, Type 0, BuildingBlock: MUDLON_clean_sbu_0, # of connection points: 4
#     Node 19, Type 0, BuildingBlock: MUDLON_clean_sbu_0, # of connection points: 4
#     Node 20, Type 0, BuildingBlock: MUDLON_clean_sbu_0, # of connection points: 4
#     Node 21, Type 0, BuildingBlock: MUDLON_clean_sbu_0, # of connection points: 4
#     Node 22, Type 0, BuildingBlock: MUDLON_clean_sbu_0, # of connection points: 4
#     Node 23, Type 0, BuildingBlock: MUDLON_clean_sbu_0, # of connection points: 4
#     Node 24, Type 0, BuildingBlock: MUDLON_clean_sbu_0, # of connection points: 4
#     Node 25, Type 0, BuildingBlock: MUDLON_clean_sbu_0, # of connection points: 4
#     Node 26, Type 0, BuildingBlock: MUDLON_clean_sbu_0, # of connection points: 4
#     Node 27, Type 0, BuildingBlock: MUDLON_clean_sbu_0, # of connection points: 4
#     Node 28, Type 0, BuildingBlock: MUDLON_clean_sbu_0, # of connection points: 4
#     Node 29, Type 0, BuildingBlock: MUDLON_clean_sbu_0, # of connection points: 4
#     Node 30, Type 0, BuildingBlock: MUDLON_clean_sbu_0, # of connection points: 4
#     Node 31, Type 0, BuildingBlock: MUDLON_clean_sbu_0, # of connection points: 4
#     Node 32, Type 0, BuildingBlock: MUDLON_clean_sbu_0, # of connection points: 4
#     Node 33, Type 0, BuildingBlock: MUDLON_clean_sbu_0, # of connection points: 4
#     Node 34, Type 0, BuildingBlock: MUDLON_clean_sbu_0, # of connection points: 4
#     Node 35, Type 0, BuildingBlock: MUDLON_clean_sbu_0, # of connection points: 4
#     Node 36, Type 0, BuildingBlock: MUDLON_clean_sbu_0, # of connection points: 4
#     Node 37, Type 0, BuildingBlock: MUDLON_clean_sbu_0, # of connection points: 4
#     Node 38, Type 0, BuildingBlock: MUDLON_clean_sbu_0, # of connection points: 4
#     Node 39, Type 0, BuildingBlock: MUDLON_clean_sbu_0, # of connection points: 4
#     Node 40, Type 0, BuildingBlock: MUDLON_clean_sbu_0, # of connection points: 4
#     Node 41, Type 0, BuildingBlock: MUDLON_clean_sbu_0, # of connection points: 4
#     Node 42, Type 0, BuildingBlock: MUDLON_clean_sbu_0, # of connection points: 4
#     Node 43, Type 0, BuildingBlock: MUDLON_clean_sbu_0, # of connection points: 4
#     Node 44, Type 0, BuildingBlock: MUDLON_clean_sbu_0, # of connection points: 4
#     Node 45, Type 0, BuildingBlock: MUDLON_clean_sbu_0, # of connection points: 4
#     Node 46, Type 0, BuildingBlock: MUDLON_clean_sbu_0, # of connection points: 4
#     Node 47, Type 0, BuildingBlock: MUDLON_clean_sbu_0, # of connection points: 4
#     Node 48, Type 0, BuildingBlock: MUDLON_clean_sbu_0, # of connection points: 4
#     Node 49, Type 0, BuildingBlock: MUDLON_clean_sbu_0, # of connection points: 4
#     Node 50, Type 0, BuildingBlock: MUDLON_clean_sbu_0, # of connection points: 4
#     Node 51, Type 0, BuildingBlock: MUDLON_clean_sbu_0, # of connection points: 4
#     Node 52, Type 0, BuildingBlock: MUDLON_clean_sbu_0, # of connection points: 4
#     Node 53, Type 0, BuildingBlock: MUDLON_clean_sbu_0, # of connection points: 4
#     Node 54, Type 0, BuildingBlock: MUDLON_clean_sbu_0, # of connection points: 4
#     Node 55, Type 0, BuildingBlock: MUDLON_clean_sbu_0, # of connection points: 4
#     Node 56, Type 0, BuildingBlock: MUDLON_clean_sbu_0, # of connection points: 4
#     Node 57, Type 0, BuildingBlock: MUDLON_clean_sbu_0, # of connection points: 4
#     Node 58, Type 0, BuildingBlock: MUDLON_clean_sbu_0, # of connection points: 4
#     Node 59, Type 0, BuildingBlock: MUDLON_clean_sbu_0, # of connection points: 4
#     Node 60, Type 0, BuildingBlock: MUDLON_clean_sbu_0, # of connection points: 4
#     Node 61, Type 0, BuildingBlock: MUDLON_clean_sbu_0, # of connection points: 4
#     Node 62, Type 0, BuildingBlock: MUDLON_clean_sbu_0, # of connection points: 4
#     Node 63, Type 0, BuildingBlock: MUDLON_clean_sbu_0, # of connection points: 4
#     Node 64, Type 0, BuildingBlock: MUDLON_clean_sbu_0, # of connection points: 4
#     Node 65, Type 0, BuildingBlock: MUDLON_clean_sbu_0, # of connection points: 4
#     Node 66, Type 0, BuildingBlock: MUDLON_clean_sbu_0, # of connection points: 4
#     Node 67, Type 0, BuildingBlock: MUDLON_clean_sbu_0, # of connection points: 4
#     Node 68, Type 0, BuildingBlock: MUDLON_clean_sbu_0, # of connection points: 4
#     Node 69, Type 0, BuildingBlock: MUDLON_clean_sbu_0, # of connection points: 4
#     Node 70, Type 0, BuildingBlock: MUDLON_clean_sbu_0, # of connection points: 4
#     Node 71, Type 0, BuildingBlock: MUDLON_clean_sbu_0, # of connection points: 4
#     Node 72, Type 0, BuildingBlock: MUDLON_clean_sbu_0, # of connection points: 4
#     Node 73, Type 0, BuildingBlock: MUDLON_clean_sbu_0, # of connection points: 4
#     Node 74, Type 0, BuildingBlock: MUDLON_clean_sbu_0, # of connection points: 4
#     Node 75, Type 0, BuildingBlock: MUDLON_clean_sbu_0, # of connection points: 4
#     Node 76, Type 0, BuildingBlock: MUDLON_clean_sbu_0, # of connection points: 4
#     Node 77, Type 0, BuildingBlock: MUDLON_clean_sbu_0, # of connection points: 4
#     Node 78, Type 0, BuildingBlock: MUDLON_clean_sbu_0, # of connection points: 4
#     Node 79, Type 0, BuildingBlock: MUDLON_clean_sbu_0, # of connection points: 4
#     Node 80, Type 0, BuildingBlock: MUDLON_clean_sbu_0, # of connection points: 4
#     Node 81, Type 0, BuildingBlock: MUDLON_clean_sbu_0, # of connection points: 4
#     Node 82, Type 0, BuildingBlock: MUDLON_clean_sbu_0, # of connection points: 4
#     Node 83, Type 0, BuildingBlock: MUDLON_clean_sbu_0, # of connection points: 4
#     Node 84, Type 0, BuildingBlock: MUDLON_clean_sbu_0, # of connection points: 4
#     Node 85, Type 0, BuildingBlock: MUDLON_clean_sbu_0, # of connection points: 4
#     Node 86, Type 0, BuildingBlock: MUDLON_clean_sbu_0, # of connection points: 4
#     Node 87, Type 0, BuildingBlock: MUDLON_clean_sbu_0, # of connection points: 4
#     Node 88, Type 0, BuildingBlock: MUDLON_clean_sbu_0, # of connection points: 4
#     Node 89, Type 0, BuildingBlock: MUDLON_clean_sbu_0, # of connection points: 4
#     Node 90, Type 0, BuildingBlock: MUDLON_clean_sbu_0, # of connection points: 4
#     Node 91, Type 0, BuildingBlock: MUDLON_clean_sbu_0, # of connection points: 4
#     Node 92, Type 0, BuildingBlock: MUDLON_clean_sbu_0, # of connection points: 4
#     Node 93, Type 0, BuildingBlock: MUDLON_clean_sbu_0, # of connection points: 4
#     Node 94, Type 0, BuildingBlock: MUDLON_clean_sbu_0, # of connection points: 4
#     Node 95, Type 0, BuildingBlock: MUDLON_clean_sbu_0, # of connection points: 4
#     Edge 96, Type (0, 0), None
#     Edge 97, Type (0, 0), None
#     Edge 98, Type (0, 0), None
#     Edge 99, Type (0, 0), None
#     Edge 100, Type (0, 0), None
#     Edge 101, Type (0, 0), None
#     Edge 102, Type (0, 0), None
#     Edge 103, Type (0, 0), None
#     Edge 104, Type (0, 0), None
#     Edge 105, Type (0, 0), None
#     Edge 106, Type (0, 0), None
#     Edge 107, Type (0, 0), None
#     Edge 108, Type (0, 0), None
#     Edge 109, Type (0, 0), None
#     Edge 110, Type (0, 0), None
#     Edge 111, Type (0, 0), None
#     Edge 112, Type (0, 0), None
#     Edge 113, Type (0, 0), None
#     Edge 114, Type (0, 0), None
#     Edge 115, Type (0, 0), None
#     Edge 116, Type (0, 0), None
#     Edge 117, Type (0, 0), None
#     Edge 118, Type (0, 0), None
#     Edge 119, Type (0, 0), None
#     Edge 120, Type (0, 0), None
#     Edge 121, Type (0, 0), None
#     Edge 122, Type (0, 0), None
#     Edge 123, Type (0, 0), None
#     Edge 124, Type (0, 0), None
#     Edge 125, Type (0, 0), None
#     Edge 126, Type (0, 0), None
#     Edge 127, Type (0, 0), None
#     Edge 128, Type (0, 0), None
#     Edge 129, Type (0, 0), None
#     Edge 130, Type (0, 0), None
#     Edge 131, Type (0, 0), None
#     Edge 132, Type (0, 0), None
#     Edge 133, Type (0, 0), None
#     Edge 134, Type (0, 0), None
#     Edge 135, Type (0, 0), None
#     Edge 136, Type (0, 0), None
#     Edge 137, Type (0, 0), None
#     Edge 138, Type (0, 0), None
#     Edge 139, Type (0, 0), None
#     Edge 140, Type (0, 0), None
#     Edge 141, Type (0, 0), None
#     Edge 142, Type (0, 0), None
#     Edge 143, Type (0, 0), None
#     Edge 144, Type (0, 0), None
#     Edge 145, Type (0, 0), None
#     Edge 146, Type (0, 0), None
#     Edge 147, Type (0, 0), None
#     Edge 148, Type (0, 0), None
#     Edge 149, Type (0, 0), None
#     Edge 150, Type (0, 0), None
#     Edge 151, Type (0, 0), None
#     Edge 152, Type (0, 0), None
#     Edge 153, Type (0, 0), None
#     Edge 154, Type (0, 0), None
#     Edge 155, Type (0, 0), None
#     Edge 156, Type (0, 0), None
#     Edge 157, Type (0, 0), None
#     Edge 158, Type (0, 0), None
#     Edge 159, Type (0, 0), None
#     Edge 160, Type (0, 0), None
#     Edge 161, Type (0, 0), None
#     Edge 162, Type (0, 0), None
#     Edge 163, Type (0, 0), None
#     Edge 164, Type (0, 0), None
#     Edge 165, Type (0, 0), None
#     Edge 166, Type (0, 0), None
#     Edge 167, Type (0, 0), None
#     Edge 168, Type (0, 0), None
#     Edge 169, Type (0, 0), None
#     Edge 170, Type (0, 0), None
#     Edge 171, Type (0, 0), None
#     Edge 172, Type (0, 0), None
#     Edge 173, Type (0, 0), None
#     Edge 174, Type (0, 0), None
#     Edge 175, Type (0, 0), None
#     Edge 176, Type (0, 0), None
#     Edge 177, Type (0, 0), None
#     Edge 178, Type (0, 0), None
#     Edge 179, Type (0, 0), None
#     Edge 180, Type (0, 0), None
#     Edge 181, Type (0, 0), None
#     Edge 182, Type (0, 0), None
#     Edge 183, Type (0, 0), None
#     Edge 184, Type (0, 0), None
#     Edge 185, Type (0, 0), None
#     Edge 186, Type (0, 0), None
#     Edge 187, Type (0, 0), None
#     Edge 188, Type (0, 0), None
#     Edge 189, Type (0, 0), None
#     Edge 190, Type (0, 0), None
#     Edge 191, Type (0, 0), None
#     Edge 192, Type (0, 0), None
#     Edge 193, Type (0, 0), None
#     Edge 194, Type (0, 0), None
#     Edge 195, Type (0, 0), None
#     Edge 196, Type (0, 0), None
#     Edge 197, Type (0, 0), None
#     Edge 198, Type (0, 0), None
#     Edge 199, Type (0, 0), None
#     Edge 200, Type (0, 0), None
#     Edge 201, Type (0, 0), None
#     Edge 202, Type (0, 0), None
#     Edge 203, Type (0, 0), None
#     Edge 204, Type (0, 0), None
#     Edge 205, Type (0, 0), None
#     Edge 206, Type (0, 0), None
#     Edge 207, Type (0, 0), None
#     Edge 208, Type (0, 0), None
#     Edge 209, Type (0, 0), None
#     Edge 210, Type (0, 0), None
#     Edge 211, Type (0, 0), None
#     Edge 212, Type (0, 0), None
#     Edge 213, Type (0, 0), None
#     Edge 214, Type (0, 0), None
#     Edge 215, Type (0, 0), None
#     Edge 216, Type (0, 0), None
#     Edge 217, Type (0, 0), None
#     Edge 218, Type (0, 0), None
#     Edge 219, Type (0, 0), None
#     Edge 220, Type (0, 0), None
#     Edge 221, Type (0, 0), None
#     Edge 222, Type (0, 0), None
#     Edge 223, Type (0, 0), None
#     Edge 224, Type (0, 0), None
#     Edge 225, Type (0, 0), None
#     Edge 226, Type (0, 0), None
#     Edge 227, Type (0, 0), None
#     Edge 228, Type (0, 0), None
#     Edge 229, Type (0, 0), None
#     Edge 230, Type (0, 0), None
#     Edge 231, Type (0, 0), None
#     Edge 232, Type (0, 0), None
#     Edge 233, Type (0, 0), None
#     Edge 234, Type (0, 0), None
#     Edge 235, Type (0, 0), None
#     Edge 236, Type (0, 0), None
#     Edge 237, Type (0, 0), None
#     Edge 238, Type (0, 0), None
#     Edge 239, Type (0, 0), None
#     Edge 240, Type (0, 0), None
#     Edge 241, Type (0, 0), None
#     Edge 242, Type (0, 0), None
#     Edge 243, Type (0, 0), None
#     Edge 244, Type (0, 0), None
#     Edge 245, Type (0, 0), None
#     Edge 246, Type (0, 0), None
#     Edge 247, Type (0, 0), None
#     Edge 248, Type (0, 0), None
#     Edge 249, Type (0, 0), None
#     Edge 250, Type (0, 0), None
#     Edge 251, Type (0, 0), None
#     Edge 252, Type (0, 0), None
#     Edge 253, Type (0, 0), None
#     Edge 254, Type (0, 0), None
#     Edge 255, Type (0, 0), None
#     Edge 256, Type (0, 0), None
#     Edge 257, Type (0, 0), None
#     Edge 258, Type (0, 0), None
#     Edge 259, Type (0, 0), None
#     Edge 260, Type (0, 0), None
#     Edge 261, Type (0, 0), None
#     Edge 262, Type (0, 0), None
#     Edge 263, Type (0, 0), None
#     Edge 264, Type (0, 0), None
#     Edge 265, Type (0, 0), None
#     Edge 266, Type (0, 0), None
#     Edge 267, Type (0, 0), None
#     Edge 268, Type (0, 0), None
#     Edge 269, Type (0, 0), None
#     Edge 270, Type (0, 0), None
#     Edge 271, Type (0, 0), None
#     Edge 272, Type (0, 0), None
#     Edge 273, Type (0, 0), None
#     Edge 274, Type (0, 0), None
#     Edge 275, Type (0, 0), None
#     Edge 276, Type (0, 0), None
#     Edge 277, Type (0, 0), None
#     Edge 278, Type (0, 0), None
#     Edge 279, Type (0, 0), None
#     Edge 280, Type (0, 0), None
#     Edge 281, Type (0, 0), None
#     Edge 282, Type (0, 0), None
#     Edge 283, Type (0, 0), None
#     Edge 284, Type (0, 0), None
#     Edge 285, Type (0, 0), None
#     Edge 286, Type (0, 0), None
#     Edge 287, Type (0, 0), None
# Relax obj value: 0.088
# Max RMSD: 0.232
# Mean RMSD: 0.232
data_MOF--net-gie--node1-MUDLON_clean_sbu_0--edge1-none
_symmetry_space_group_name_H-M    P1
_symmetry_Int_Tables_number       1
_symmetry_cell_setting            triclinic
loop_
_symmetry_equiv_pos_as_xyz
'x, y, z'
_cell_length_a     41.178188
_cell_length_b     41.665492
_cell_length_c     41.665859
_cell_angle_alpha  90.000027
_cell_angle_beta   89.999972
_cell_angle_gamma 89.99999
loop_
_atom_site_label
_atom_site_type_symbol
_atom_site_fract_x
_atom_site_fract_y
_atom_site_fract_z
_atom_type_partial_charge
Mg0 Mg 0.03057 0.15003 0.42234 0.0
C1 C 0.06709 0.1905 0.37369 0.0
O2 O 0.03842 0.2038 0.37008 0.0
C3 C 0.98224 0.10047 0.42788 0.0
O4 O 0.97699 0.11992 0.45214 0.0
C5 C 0.08043 0.15605 0.47463 0.0
O6 O 0.09154 0.17777 0.4546 0.0
O7 O 0.05344 0.1424 0.46877 0.0
O8 O 0.06975 0.16539 0.39081 0.0
O9 O 0.99186 0.18544 0.42035 0.0
C10 C 0.99304 0.21396 0.43095 0.0
O11 O 1.01884 0.22378 0.44663 0.0
O12 O 1.00616 0.10591 0.40938 0.0
Mg13 Mg 0.14759 0.77121 0.67147 0.0
C14 C 0.10453 0.80743 0.62458 0.0
O15 O 0.09237 0.77873 0.61961 0.0
C16 C 0.19778 0.72249 0.66966 0.0
O17 O 0.18015 0.71532 0.69494 0.0
C18 C 0.14383 0.81803 0.72634 0.0
O19 O 0.11785 0.8269 0.71037 0.0
O20 O 0.15972 0.79354 0.71709 0.0
O21 O 0.12959 0.81048 0.64212 0.0
O22 O 0.1105 0.734 0.67232 0.0
C23 C 0.08153 0.73771 0.68206 0.0
O24 O 0.07306 0.7648 0.6958 0.0
O25 O 0.19062 0.7473 0.65339 0.0
Mg26 Mg 0.51839 0.88666 0.92234 0.0
C27 C 0.48186 0.84618 0.87369 0.0
O28 O 0.51053 0.83288 0.87008 0.0
C29 C 0.56672 0.93622 0.92788 0.0
O30 O 0.57196 0.91676 0.95214 0.0
C31 C 0.46852 0.88063 0.97463 0.0
O32 O 0.45742 0.85892 0.9546 0.0
O33 O 0.49551 0.89428 0.96877 0.0
O34 O 0.47921 0.8713 0.89081 0.0
O35 O 0.55709 0.85125 0.92035 0.0
C36 C 0.55592 0.82273 0.93095 0.0
O37 O 0.53011 0.8129 0.94663 0.0
O38 O 0.54279 0.93077 0.90938 0.0
Mg39 Mg 0.40136 0.26547 0.17147 0.0
C40 C 0.44442 0.22926 0.12458 0.0
O41 O 0.45658 0.25796 0.11961 0.0
C42 C 0.35118 0.3142 0.16966 0.0
O43 O 0.3688 0.32137 0.19494 0.0
C44 C 0.40512 0.21866 0.22634 0.0
O45 O 0.43111 0.20978 0.21037 0.0
O46 O 0.38923 0.24315 0.21709 0.0
O47 O 0.41936 0.22621 0.14212 0.0
O48 O 0.43845 0.30269 0.17232 0.0
C49 C 0.46743 0.29898 0.18206 0.0
O50 O 0.4759 0.27189 0.1958 0.0
O51 O 0.35833 0.28939 0.15339 0.0
Mg52 Mg 0.03057 0.88666 0.11434 0.0
C53 C 0.06709 0.84618 0.16299 0.0
O54 O 0.03842 0.83288 0.1666 0.0
C55 C 0.98224 0.93622 0.1088 0.0
O56 O 0.97699 0.91676 0.08454 0.0
C57 C 0.08043 0.88063 0.06205 0.0
O58 O 0.09153 0.85892 0.08208 0.0
O59 O 0.05344 0.89428 0.06791 0.0
O60 O 0.06974 0.8713 0.14586 0.0
O61 O 0.99186 0.85125 0.11633 0.0
C62 C 0.99303 0.82273 0.10573 0.0
O63 O 1.01884 0.8129 0.09005 0.0
O64 O 1.00616 0.93077 0.1273 0.0
Mg65 Mg 0.40136 0.77121 0.36521 0.0
C66 C 0.44442 0.80743 0.41209 0.0
O67 O 0.45658 0.77873 0.41707 0.0
C68 C 0.35117 0.72249 0.36701 0.0
O69 O 0.3688 0.71532 0.34174 0.0
C70 C 0.40512 0.81803 0.31033 0.0
O71 O 0.43111 0.8269 0.3263 0.0
O72 O 0.38923 0.79353 0.31959 0.0
O73 O 0.41936 0.81047 0.39455 0.0
O74 O 0.43845 0.734 0.36436 0.0
C75 C 0.46743 0.73771 0.35461 0.0
O76 O 0.4759 0.7648 0.34087 0.0
O77 O 0.35833 0.7473 0.38329 0.0
Mg78 Mg 0.51839 0.15003 0.61434 0.0
C79 C 0.48186 0.1905 0.66299 0.0
O80 O 0.51053 0.2038 0.6666 0.0
C81 C 0.56672 0.10047 0.60879 0.0
O82 O 0.57196 0.11992 0.58454 0.0
C83 C 0.46853 0.15605 0.56205 0.0
O84 O 0.45742 0.17776 0.58208 0.0
O85 O 0.49552 0.1424 0.56791 0.0
O86 O 0.47921 0.16539 0.64586 0.0
O87 O 0.5571 0.18544 0.61633 0.0
C88 C 0.55592 0.21396 0.60573 0.0
O89 O 0.53011 0.22378 0.59005 0.0
O90 O 0.54279 0.10591 0.62729 0.0
Mg91 Mg 0.14759 0.26547 0.8652 0.0
C92 C 0.10453 0.22926 0.91209 0.0
O93 O 0.09237 0.25796 0.91707 0.0
C94 C 0.19778 0.3142 0.86701 0.0
O95 O 0.18015 0.32137 0.84174 0.0
C96 C 0.14383 0.21866 0.81033 0.0
O97 O 0.11785 0.20979 0.8263 0.0
O98 O 0.15972 0.24315 0.81959 0.0
O99 O 0.12959 0.22621 0.89455 0.0
O100 O 0.1105 0.30269 0.86436 0.0
C101 C 0.08153 0.29898 0.85461 0.0
O102 O 0.07306 0.27189 0.84087 0.0
O103 O 0.19062 0.28939 0.88329 0.0
Mg104 Mg 0.42067 0.03237 0.14955 0.0
C105 C 0.42863 0.97007 0.18664 0.0
O106 O 0.42036 0.95761 0.15888 0.0
C107 C 0.47459 0.07977 0.14469 0.0
O108 O 0.46492 0.08451 0.17435 0.0
C109 C 0.40578 0.99273 0.09029 0.0
O110 O 0.43703 0.99697 0.08561 0.0
O111 O 0.39217 1.00577 0.11438 0.0
O112 O 0.43348 1.00013 0.18869 0.0
O113 O 0.39314 0.0708 0.17189 0.0
C114 C 0.38171 0.0672 0.19998 0.0
O115 O 0.38248 0.03872 0.21343 0.0
O116 O 0.4617 0.05738 0.12828 0.0
Mg117 Mg 0.26839 0.17234 0.40002 0.0
C118 C 0.23186 0.12369 0.4405 0.0
O119 O 0.26053 0.12008 0.4538 0.0
C120 C 0.31672 0.17788 0.35046 0.0
O121 O 0.32196 0.20214 0.36992 0.0
C122 C 0.21853 0.22463 0.40605 0.0
O123 O 0.20742 0.2046 0.42776 0.0
O124 O 0.24552 0.21877 0.3924 0.0
O125 O 0.22921 0.14082 0.41538 0.0
O126 O 0.3071 0.17035 0.43543 0.0
C127 C 0.30592 0.18095 0.46395 0.0
O128 O 0.28011 0.19663 0.47378 0.0
O129 O 0.29279 0.15938 0.35591 0.0
Mg130 Mg 0.12828 1.00432 0.64955 0.0
C131 C 0.12032 0.06661 0.68664 0.0
O132 O 0.12859 0.07908 0.65888 0.0
C133 C 0.07436 0.95692 0.64469 0.0
O134 O 0.08403 0.95217 0.67435 0.0
C135 C 0.14317 0.04395 0.59029 0.0
O136 O 0.11192 0.03972 0.58561 0.0
O137 O 0.15678 0.03092 0.61438 0.0
O138 O 0.11547 0.03655 0.68869 0.0
O139 O 0.15581 0.96588 0.67189 0.0
C140 C 0.16724 0.96948 0.69998 0.0
O141 O 0.16647 0.99797 0.71343 0.0
O142 O 0.08725 0.97931 0.62828 0.0
Mg143 Mg 0.28056 0.86434 0.90002 0.0
C144 C 0.31709 0.91299 0.9405 0.0
O145 O 0.28842 0.9166 0.9538 0.0
C146 C 0.23224 0.8588 0.85046 0.0
O147 O 0.22699 0.83454 0.86992 0.0
C148 C 0.33043 0.81205 0.90605 0.0
O149 O 0.34153 0.83208 0.92776 0.0
O150 O 0.30344 0.81791 0.8924 0.0
O151 O 0.31974 0.89587 0.91538 0.0
O152 O 0.24186 0.86633 0.93543 0.0
C153 C 0.24304 0.85573 0.96395 0.0
O154 O 0.26884 0.84005 0.97378 0.0
O155 O 0.25616 0.8773 0.85591 0.0
Mg156 Mg 0.42067 1.00432 0.38713 0.0
C157 C 0.42863 0.06661 0.35003 0.0
O158 O 0.42036 0.07908 0.3778 0.0
C159 C 0.47459 0.95692 0.39198 0.0
O160 O 0.46492 0.95217 0.36232 0.0
C161 C 0.40578 0.04395 0.44639 0.0
O162 O 0.43703 0.03972 0.45107 0.0
O163 O 0.39217 0.03092 0.4223 0.0
O164 O 0.43348 0.03655 0.34798 0.0
O165 O 0.39314 0.96588 0.36478 0.0
C166 C 0.38171 0.96948 0.33669 0.0
O167 O 0.38248 0.99797 0.32324 0.0
O168 O 0.4617 0.97931 0.4084 0.0
Mg169 Mg 0.28057 0.17234 0.63665 0.0
C170 C 0.31709 0.12369 0.59618 0.0
O171 O 0.28842 0.12008 0.58288 0.0
C172 C 0.23224 0.17788 0.68621 0.0
O173 O 0.22699 0.20214 0.66676 0.0
C174 C 0.33043 0.22463 0.63063 0.0
O175 O 0.34153 0.2046 0.60891 0.0
O176 O 0.30344 0.21877 0.64428 0.0
O177 O 0.31975 0.14082 0.62129 0.0
O178 O 0.24186 0.17035 0.60124 0.0
C179 C 0.24304 0.18095 0.57272 0.0
O180 O 0.26884 0.19663 0.5629 0.0
O181 O 0.25616 0.15939 0.68077 0.0
Mg182 Mg 0.12828 0.03237 0.88713 0.0
C183 C 0.12032 0.97008 0.85003 0.0
O184 O 0.12859 0.95761 0.8778 0.0
C185 C 0.07437 0.07977 0.89198 0.0
O186 O 0.08403 0.08452 0.86232 0.0
C187 C 0.14317 0.99273 0.94639 0.0
O188 O 0.11192 0.99697 0.95107 0.0
O189 O 0.15678 1.00577 0.9223 0.0
O190 O 0.11547 1.00013 0.84798 0.0
O191 O 0.15581 0.0708 0.86478 0.0
C192 C 0.16724 0.0672 0.83669 0.0
O193 O 0.16647 0.03872 0.82324 0.0
O194 O 0.08725 0.05738 0.9084 0.0
Mg195 Mg 0.26839 0.86434 0.13665 0.0
C196 C 0.23186 0.91299 0.09618 0.0
O197 O 0.26053 0.9166 0.08287 0.0
C198 C 0.31672 0.8588 0.18621 0.0
O199 O 0.32196 0.83454 0.16676 0.0
C200 C 0.21852 0.81205 0.13063 0.0
O201 O 0.20742 0.83208 0.10891 0.0
O202 O 0.24551 0.81791 0.14428 0.0
O203 O 0.22921 0.89587 0.12129 0.0
O204 O 0.30709 0.86633 0.10124 0.0
C205 C 0.30592 0.85573 0.07272 0.0
O206 O 0.28011 0.84005 0.0629 0.0
O207 O 0.29279 0.8773 0.18077 0.0
Mg208 Mg 0.15136 0.42147 0.02121 0.0
C209 C 0.19442 0.37459 0.05742 0.0
O210 O 0.20658 0.36961 0.02872 0.0
C211 C 0.10117 0.41967 0.97248 0.0
O212 O 0.1188 0.44494 0.96531 0.0
C213 C 0.15512 0.47635 0.06802 0.0
O214 O 0.18111 0.46038 0.0769 0.0
O215 O 0.13923 0.46709 0.04353 0.0
O216 O 0.16936 0.39212 0.06047 0.0
O217 O 0.18845 0.42232 0.98399 0.0
C218 C 0.21743 0.43207 0.9877 0.0
O219 O 0.2259 0.44581 1.01479 0.0
O220 O 0.10833 0.40339 0.99729 0.0
Mg221 Mg 0.65136 0.11521 1.01547 0.0
C222 C 0.69443 0.1621 0.97925 0.0
O223 O 0.70658 0.16707 1.00795 0.0
C224 C 0.60118 0.11702 0.06419 0.0
O225 O 0.6188 0.09174 0.07136 0.0
C226 C 0.65512 0.06034 0.96865 0.0
O227 O 0.68111 0.07631 0.95978 0.0
O228 O 0.63923 0.06959 0.99315 0.0
O229 O 0.66936 0.14456 0.97621 0.0
O230 O 0.68845 0.11436 0.05269 0.0
C231 C 0.71743 0.10462 0.04897 0.0
O232 O 0.7259 0.09088 0.02188 0.0
O233 O 0.60833 0.13329 0.03938 0.0
Mg234 Mg 0.17068 0.39955 0.25431 0.0
C235 C 0.17863 0.43665 0.31661 0.0
O236 O 0.17036 0.40888 0.32907 0.0
C237 C 0.22459 0.3947 0.20691 0.0
O238 O 0.21492 0.42436 0.20217 0.0
C239 C 0.15578 0.34029 0.29395 0.0
O240 O 0.18703 0.33562 0.28972 0.0
O241 O 0.14217 0.36438 0.28091 0.0
O242 O 0.18348 0.4387 0.28655 0.0
O243 O 0.14315 0.4219 0.21588 0.0
C244 C 0.13171 0.44999 0.21948 0.0
O245 O 0.13248 0.46344 0.24796 0.0
O246 O 0.2117 0.37828 0.2293 0.0
Mg247 Mg 0.89759 0.92148 0.51547 0.0
C248 C 0.85453 0.87459 0.47925 0.0
O249 O 0.84237 0.86961 0.50795 0.0
C250 C 0.94778 0.91967 0.56419 0.0
O251 O 0.93015 0.94494 0.57136 0.0
C252 C 0.89383 0.97635 0.46865 0.0
O253 O 0.86785 0.96038 0.45978 0.0
O254 O 0.90972 0.96709 0.49314 0.0
O255 O 0.87959 0.89212 0.47621 0.0
O256 O 0.8605 0.92232 0.55268 0.0
C257 C 0.83153 0.93207 0.54897 0.0
O258 O 0.82306 0.94581 0.52188 0.0
O259 O 0.94062 0.90339 0.53938 0.0
Mg260 Mg 0.87828 0.13714 0.25431 0.0
C261 C 0.87033 0.10004 0.31661 0.0
O262 O 0.87859 0.1278 0.32907 0.0
C263 C 0.82437 0.14199 0.20691 0.0
O264 O 0.83404 0.11233 0.20216 0.0
C265 C 0.89317 0.19639 0.29395 0.0
O266 O 0.86192 0.20107 0.28972 0.0
O267 O 0.90678 0.1723 0.28091 0.0
O268 O 0.86547 0.09799 0.28655 0.0
O269 O 0.90581 0.11479 0.21588 0.0
C270 C 0.91724 0.0867 0.21948 0.0
O271 O 0.91647 0.07325 0.24796 0.0
O272 O 0.83725 0.1584 0.2293 0.0
Mg273 Mg 0.39759 0.61521 0.52121 0.0
C274 C 0.35453 0.6621 0.55742 0.0
O275 O 0.34237 0.66707 0.52872 0.0
C276 C 0.44778 0.61702 0.47248 0.0
O277 O 0.43015 0.59174 0.46531 0.0
C278 C 0.39383 0.56034 0.56802 0.0
O279 O 0.36785 0.57631 0.5769 0.0
O280 O 0.40972 0.5696 0.54353 0.0
O281 O 0.37959 0.64456 0.56047 0.0
O282 O 0.3605 0.61436 0.48399 0.0
C283 C 0.33153 0.60462 0.4877 0.0
O284 O 0.32306 0.59088 0.51479 0.0
O285 O 0.44062 0.63329 0.49729 0.0
Mg286 Mg 0.17067 0.63714 0.28236 0.0
C287 C 0.17863 0.60004 0.22007 0.0
O288 O 0.17036 0.6278 0.2076 0.0
C289 C 0.22459 0.64199 0.32976 0.0
O290 O 0.21492 0.61233 0.33451 0.0
C291 C 0.15578 0.69639 0.24273 0.0
O292 O 0.18703 0.70107 0.24696 0.0
O293 O 0.14217 0.6723 0.25576 0.0
O294 O 0.18348 0.59799 0.25013 0.0
O295 O 0.14314 0.61479 0.3208 0.0
C296 C 0.13171 0.5867 0.3172 0.0
O297 O 0.13248 0.57325 0.28871 0.0
O298 O 0.2117 0.6584 0.30737 0.0
Mg299 Mg 0.37828 0.39955 0.78236 0.0
C300 C 0.37032 0.43665 0.72007 0.0
O301 O 0.37859 0.40888 0.7076 0.0
C302 C 0.32437 0.3947 0.82976 0.0
O303 O 0.33404 0.42436 0.83451 0.0
C304 C 0.39317 0.34029 0.74273 0.0
O305 O 0.36192 0.33562 0.74696 0.0
O306 O 0.40678 0.36438 0.75576 0.0
O307 O 0.36547 0.4387 0.75013 0.0
O308 O 0.40581 0.4219 0.8208 0.0
C309 C 0.41724 0.44999 0.8172 0.0
O310 O 0.41647 0.46344 0.78871 0.0
O311 O 0.33725 0.37828 0.80737 0.0
Mg312 Mg 1.01917 0.86874 0.62159 0.0
C313 C 0.99245 0.82153 0.67093 0.0
O314 O 1.02328 0.81431 0.67436 0.0
C315 C 0.05282 0.93342 0.62932 0.0
O316 O 0.04719 0.93512 0.59835 0.0
C317 C 0.97252 0.90874 0.58698 0.0
O318 O 0.97406 0.92218 0.61545 0.0
O319 O 0.99068 0.88488 0.58087 0.0
O320 O 0.98433 0.84453 0.65251 0.0
O321 O 0.05491 0.83202 0.61035 0.0
C322 C 0.08442 0.83584 0.61843 0.0
O323 O 0.09397 0.86388 0.62928 0.0
O324 O 0.0431 0.90908 0.64509 0.0
Mg325 Mg 0.91895 0.26275 0.37299 0.0
C326 C 0.96855 0.23712 0.41998 0.0
O327 O 0.97293 0.26792 0.42507 0.0
C328 C 0.85224 0.28767 0.39256 0.0
O329 O 0.84295 0.27066 0.36767 0.0
C330 C 0.91119 0.21629 0.317 0.0
O331 O 0.94128 0.209 0.32451 0.0
O332 O 0.89659 0.23836 0.33235 0.0
O333 O 0.94615 0.22795 0.40102 0.0
O334 O 0.95587 0.29767 0.3598 0.0
C335 C 0.95261 0.32708 0.36726 0.0
O336 O 0.92443 0.33728 0.37791 0.0
O337 O 0.88192 0.28735 0.40102 0.0
Mg338 Mg 0.52978 0.16795 0.12159 0.0
C339 C 0.5565 0.21515 0.17093 0.0
O340 O 0.52567 0.22238 0.17436 0.0
C341 C 0.49613 0.10327 0.12932 0.0
O342 O 0.50177 0.10157 0.09835 0.0
C343 C 0.57644 0.12794 0.08698 0.0
O344 O 0.57489 0.11451 0.11545 0.0
O345 O 0.55828 0.15181 0.08087 0.0
O346 O 0.56462 0.19216 0.15251 0.0
O347 O 0.49405 0.20466 0.11035 0.0
C348 C 0.46454 0.20084 0.11843 0.0
O349 O 0.45498 0.17281 0.12928 0.0
O350 O 0.50585 0.1276 0.14509 0.0
Mg351 Mg 0.63001 0.77393 0.87298 0.0
C352 C 0.5804 0.79956 0.91997 0.0
O353 O 0.57602 0.76877 0.92507 0.0
C354 C 0.69671 0.74902 0.89256 0.0
O355 O 0.706 0.76603 0.86767 0.0
C356 C 0.63776 0.82039 0.817 0.0
O357 O 0.60768 0.82768 0.82451 0.0
O358 O 0.65236 0.79833 0.83235 0.0
O359 O 0.6028 0.80874 0.90101 0.0
O360 O 0.59308 0.73901 0.8598 0.0
C361 C 0.59634 0.70961 0.86726 0.0
O362 O 0.62453 0.69941 0.87791 0.0
O363 O 0.66704 0.74933 0.90102 0.0
Mg364 Mg 1.01917 0.16795 0.91508 0.0
C365 C 0.99245 0.21515 0.86575 0.0
O366 O 1.02328 0.22238 0.86232 0.0
C367 C 0.05282 0.10327 0.90736 0.0
O368 O 0.04719 0.10157 0.93833 0.0
C369 C 0.97252 0.12794 0.9497 0.0
O370 O 0.97406 0.11451 0.92122 0.0
O371 O 0.99068 0.15181 0.9558 0.0
O372 O 0.98433 0.19216 0.88417 0.0
O373 O 0.05491 0.20466 0.92633 0.0
C374 C 0.08442 0.20085 0.91824 0.0
O375 O 0.09397 0.17281 0.9074 0.0
O376 O 0.0431 0.1276 0.89158 0.0
Mg377 Mg 0.63001 0.26275 0.66369 0.0
C378 C 0.5804 0.23712 0.6167 0.0
O379 O 0.57602 0.26792 0.61161 0.0
C380 C 0.69671 0.28767 0.64412 0.0
O381 O 0.706 0.27066 0.66901 0.0
C382 C 0.63776 0.21629 0.71968 0.0
O383 O 0.60768 0.20901 0.71217 0.0
O384 O 0.65236 0.23836 0.70433 0.0
O385 O 0.6028 0.22795 0.63566 0.0
O386 O 0.59308 0.29767 0.67688 0.0
C387 C 0.59634 0.32708 0.66942 0.0
O388 O 0.62453 0.33728 0.65877 0.0
O389 O 0.66704 0.28735 0.63566 0.0
Mg390 Mg 0.52978 0.86874 0.41508 0.0
C391 C 0.5565 0.82153 0.36575 0.0
O392 O 0.52567 0.8143 0.36232 0.0
C393 C 0.49613 0.93342 0.40735 0.0
O394 O 0.50176 0.93512 0.43833 0.0
C395 C 0.57644 0.90874 0.4497 0.0
O396 O 0.57489 0.92217 0.42122 0.0
O397 O 0.55828 0.88488 0.4558 0.0
O398 O 0.56462 0.84453 0.38417 0.0
O399 O 0.49405 0.83202 0.42633 0.0
C400 C 0.46454 0.83584 0.41824 0.0
O401 O 0.45498 0.86388 0.4074 0.0
O402 O 0.50585 0.90908 0.39158 0.0
Mg403 Mg 0.91895 0.77393 0.16369 0.0
C404 C 0.96855 0.79956 0.1167 0.0
O405 O 0.97293 0.76877 0.11161 0.0
C406 C 0.85224 0.74902 0.14412 0.0
O407 O 0.84295 0.76603 0.16901 0.0
C408 C 0.91119 0.82039 0.21968 0.0
O409 O 0.94128 0.82768 0.21217 0.0
O410 O 0.89659 0.79833 0.20433 0.0
O411 O 0.94615 0.80874 0.13566 0.0
O412 O 0.95587 0.73901 0.17688 0.0
C413 C 0.95261 0.70961 0.16942 0.0
O414 O 0.92443 0.69941 0.15877 0.0
O415 O 0.88192 0.74933 0.13566 0.0
Mg416 Mg 0.63131 1.00375 0.88176 0.0
C417 C 0.67317 0.96616 0.8351 0.0
O418 O 0.67424 0.99403 0.82041 0.0
C419 C 0.64104 0.03631 0.94694 0.0
O420 O 0.61141 0.02583 0.952 0.0
C421 C 0.59157 0.95989 0.91955 0.0
O422 O 0.62038 0.95774 0.9329 0.0
O423 O 0.58721 0.97994 0.89703 0.0
O424 O 0.65976 0.96421 0.8625 0.0
O425 O 0.62311 0.03657 0.84214 0.0
C426 C 0.62575 0.06675 0.84559 0.0
O427 O 0.63033 0.07875 0.87438 0.0
O428 O 0.65528 0.02969 0.92066 0.0
Mg429 Mg 0.77978 0.8716 0.61873 0.0
C430 C 0.8065 0.92093 0.57153 0.0
O431 O 0.77567 0.92437 0.56429 0.0
C432 C 0.74613 0.87933 0.68341 0.0
O433 O 0.75176 0.84836 0.68511 0.0
C434 C 0.82644 0.83699 0.65874 0.0
O435 O 0.82489 0.86546 0.67217 0.0
O436 O 0.80828 0.83088 0.63487 0.0
O437 O 0.81462 0.90251 0.59452 0.0
O438 O 0.74405 0.86035 0.58201 0.0
C439 C 0.71454 0.86844 0.58582 0.0
O440 O 0.705 0.87929 0.61386 0.0
O441 O 0.75585 0.8951 0.65907 0.0
Mg442 Mg 0.91764 0.03293 0.38176 0.0
C443 C 0.87578 0.07051 0.3351 0.0
O444 O 0.8747 0.04265 0.3204 0.0
C445 C 0.90792 1.00038 0.44694 0.0
O446 O 0.93754 1.01086 0.452 0.0
C447 C 0.95738 0.07679 0.41955 0.0
O448 O 0.92857 0.07894 0.4329 0.0
O449 O 0.96175 0.05675 0.39703 0.0
O450 O 0.8892 0.07247 0.3625 0.0
O451 O 0.92585 1.00011 0.34214 0.0
C452 C 0.9232 0.96994 0.34559 0.0
O453 O 0.91862 0.95794 0.37438 0.0
O454 O 0.89368 1.00699 0.42066 0.0
Mg455 Mg 0.76917 0.16509 0.11873 0.0
C456 C 0.74246 0.11575 0.07153 0.0
O457 O 0.77329 0.11232 0.06429 0.0
C458 C 0.80282 0.15736 0.18341 0.0
O459 O 0.79719 0.18833 0.18511 0.0
C460 C 0.72252 0.1997 0.15874 0.0
O461 O 0.72406 0.17122 0.17217 0.0
O462 O 0.74068 0.20581 0.13487 0.0
O463 O 0.73434 0.13417 0.09452 0.0
O464 O 0.80491 0.17633 0.08201 0.0
C465 C 0.83441 0.16824 0.08583 0.0
O466 O 0.84396 0.15739 0.11386 0.0
O467 O 0.7931 0.14159 0.15908 0.0
Mg468 Mg 0.63131 0.03293 0.65492 0.0
C469 C 0.67317 0.07052 0.70158 0.0
O470 O 0.67424 0.04266 0.71627 0.0
C471 C 0.64104 1.00037 0.58974 0.0
O472 O 0.61141 1.01085 0.58469 0.0
C473 C 0.59157 0.07679 0.61712 0.0
O474 O 0.62038 0.07894 0.60377 0.0
O475 O 0.58721 0.05675 0.63965 0.0
O476 O 0.65976 0.07248 0.67417 0.0
O477 O 0.62311 1.00011 0.69454 0.0
C478 C 0.62575 0.96994 0.69109 0.0
O479 O 0.63033 0.95794 0.6623 0.0
O480 O 0.65528 1.00699 0.61602 0.0
Mg481 Mg 0.76917 0.8716 0.41794 0.0
C482 C 0.74245 0.92093 0.46515 0.0
O483 O 0.77328 0.92436 0.47238 0.0
C484 C 0.80282 0.87933 0.35327 0.0
O485 O 0.79719 0.84836 0.35157 0.0
C486 C 0.72252 0.83698 0.37794 0.0
O487 O 0.72406 0.86546 0.36451 0.0
O488 O 0.74067 0.83088 0.4018 0.0
O489 O 0.73433 0.90252 0.44215 0.0
O490 O 0.80491 0.86035 0.45466 0.0
C491 C 0.83442 0.86844 0.45084 0.0
O492 O 0.84397 0.87928 0.4228 0.0
O493 O 0.7931 0.8951 0.3776 0.0
Mg494 Mg 0.91764 1.00375 0.15491 0.0
C495 C 0.87578 0.96616 0.20158 0.0
O496 O 0.87471 0.99403 0.21627 0.0
C497 C 0.90792 0.03631 0.08974 0.0
O498 O 0.93754 0.02584 0.08469 0.0
C499 C 0.95738 0.95989 0.11712 0.0
O500 O 0.92857 0.95775 0.10377 0.0
O501 O 0.96175 0.97994 0.13965 0.0
O502 O 0.8892 0.96421 0.17417 0.0
O503 O 0.92584 0.03657 0.19453 0.0
C504 C 0.9232 0.06675 0.19108 0.0
O505 O 0.91863 0.07875 0.1623 0.0
O506 O 0.89367 0.02969 0.11602 0.0
Mg507 Mg 0.77978 0.16509 0.91794 0.0
C508 C 0.8065 0.11575 0.96515 0.0
O509 O 0.77567 0.11233 0.97238 0.0
C510 C 0.74613 0.15736 0.85326 0.0
O511 O 0.75176 0.18833 0.85157 0.0
C512 C 0.82644 0.1997 0.87794 0.0
O513 O 0.82489 0.17123 0.86451 0.0
O514 O 0.80828 0.20581 0.9018 0.0
O515 O 0.81462 0.13417 0.94215 0.0
O516 O 0.74405 0.17633 0.95466 0.0
C517 C 0.71454 0.16825 0.95084 0.0
O518 O 0.70498 0.1574 0.9228 0.0
O519 O 0.75585 0.14159 0.8776 0.0
Mg520 Mg 0.88001 0.62299 1.01275 0.0
C521 C 0.8304 0.66998 0.98712 0.0
O522 O 0.82602 0.67507 1.01791 0.0
C523 C 0.94671 0.64256 0.03767 0.0
O524 O 0.956 0.61767 0.02066 0.0
C525 C 0.88776 0.567 0.96629 0.0
O526 O 0.85767 0.57451 0.959 0.0
O527 O 0.90236 0.58235 0.98836 0.0
O528 O 0.8528 0.65102 0.97794 0.0
O529 O 0.84308 0.60981 0.04767 0.0
C530 C 0.84634 0.61727 0.07708 0.0
O531 O 0.87452 0.62791 0.08728 0.0
O532 O 0.91703 0.65102 0.03735 0.0
Mg533 Mg 0.38001 0.9137 0.02393 0.0
C534 C 0.3304 0.86671 0.04956 0.0
O535 O 0.32602 0.86161 0.01876 0.0
C536 C 0.44671 0.89413 0.99902 0.0
O537 O 0.45601 0.91901 1.01603 0.0
C538 C 0.38776 0.96968 0.07039 0.0
O539 O 0.35767 0.96217 0.07768 0.0
O540 O 0.40236 0.95433 0.04832 0.0
O541 O 0.3528 0.88566 0.05873 0.0
O542 O 0.34308 0.92688 0.98901 0.0
C543 C 0.34635 0.91943 0.9596 0.0
O544 O 0.37453 0.90879 0.94939 0.0
O545 O 0.41704 0.88567 0.99933 0.0
Mg546 Mg 0.88131 0.63177 0.78293 0.0
C547 C 0.92317 0.5851 0.82052 0.0
O548 O 0.92424 0.57041 0.79265 0.0
C549 C 0.89104 0.69695 0.75037 0.0
O550 O 0.86141 0.702 0.76085 0.0
C551 C 0.84157 0.66956 0.82679 0.0
O552 O 0.87039 0.68291 0.82893 0.0
O553 O 0.83721 0.64704 0.80674 0.0
O554 O 0.90976 0.61251 0.82247 0.0
O555 O 0.87311 0.59215 0.75011 0.0
C556 C 0.87575 0.59559 0.71993 0.0
O557 O 0.88033 0.62438 0.70794 0.0
O558 O 0.90528 0.67066 0.75699 0.0
Mg559 Mg 0.16895 0.12299 0.52393 0.0
C560 C 0.21856 0.16998 0.54956 0.0
O561 O 0.22294 0.17507 0.51876 0.0
C562 C 0.10224 0.14256 0.49902 0.0
O563 O 0.09295 0.11767 0.51603 0.0
C564 C 0.1612 0.067 0.57039 0.0
O565 O 0.19128 0.07451 0.57768 0.0
O566 O 0.14659 0.08235 0.54832 0.0
O567 O 0.19615 0.15102 0.55874 0.0
O568 O 0.20587 0.10981 0.48901 0.0
C569 C 0.2026 0.11726 0.4596 0.0
O570 O 0.17442 0.1279 0.44939 0.0
O571 O 0.13192 0.15102 0.49933 0.0
Mg572 Mg 0.16764 0.90492 0.78293 0.0
C573 C 0.12578 0.95158 0.82051 0.0
O574 O 0.1247 0.96628 0.79265 0.0
C575 C 0.15792 0.83974 0.75037 0.0
O576 O 0.18754 0.83468 0.76085 0.0
C577 C 0.20738 0.86713 0.82679 0.0
O578 O 0.17857 0.85378 0.82894 0.0
O579 O 0.21175 0.88965 0.80674 0.0
O580 O 0.1392 0.92418 0.82247 0.0
O581 O 0.17584 0.94454 0.75011 0.0
C582 C 0.1732 0.94109 0.71993 0.0
O583 O 0.16863 0.9123 0.70793 0.0
O584 O 0.14368 0.86602 0.75699 0.0
Mg585 Mg 0.66895 0.4137 0.51275 0.0
C586 C 0.71856 0.36671 0.48712 0.0
O587 O 0.72293 0.36162 0.51791 0.0
C588 C 0.60224 0.39413 0.53766 0.0
O589 O 0.59296 0.41901 0.52065 0.0
C590 C 0.6612 0.46968 0.46628 0.0
O591 O 0.69128 0.46217 0.459 0.0
O592 O 0.64659 0.45434 0.48836 0.0
O593 O 0.69615 0.38567 0.47794 0.0
O594 O 0.70588 0.42688 0.54767 0.0
C595 C 0.70261 0.41942 0.57708 0.0
O596 O 0.67443 0.40878 0.58728 0.0
O597 O 0.63192 0.38567 0.53735 0.0
Mg598 Mg 0.88131 0.40492 0.75375 0.0
C599 C 0.92317 0.45159 0.71616 0.0
O600 O 0.92424 0.46627 0.74403 0.0
C601 C 0.89104 0.33974 0.78631 0.0
O602 O 0.86141 0.33469 0.77583 0.0
C603 C 0.84157 0.36713 0.70989 0.0
O604 O 0.87039 0.35378 0.70774 0.0
O605 O 0.83721 0.38965 0.72994 0.0
O606 O 0.90976 0.42418 0.7142 0.0
O607 O 0.87311 0.44454 0.78657 0.0
C608 C 0.87575 0.44109 0.81675 0.0
O609 O 0.88033 0.4123 0.82874 0.0
O610 O 0.90528 0.36602 0.77969 0.0
Mg611 Mg 0.66764 0.63177 0.25375 0.0
C612 C 0.62578 0.5851 0.21616 0.0
O613 O 0.62472 0.57041 0.24402 0.0
C614 C 0.65792 0.69694 0.28631 0.0
O615 O 0.68754 0.702 0.27583 0.0
C616 C 0.70738 0.66956 0.20989 0.0
O617 O 0.67857 0.68291 0.20774 0.0
O618 O 0.71175 0.64703 0.22993 0.0
O619 O 0.6392 0.61251 0.2142 0.0
O620 O 0.67584 0.59214 0.28657 0.0
C621 C 0.6732 0.59559 0.31674 0.0
O622 O 0.66862 0.62438 0.32874 0.0
O623 O 0.64367 0.67066 0.27969 0.0
Mg624 Mg 0.53056 0.65003 0.92234 0.0
C625 C 0.56708 0.6905 0.87368 0.0
O626 O 0.53842 0.70381 0.87006 0.0
C627 C 0.48223 0.60047 0.92788 0.0
O628 O 0.47699 0.61992 0.95214 0.0
C629 C 0.58043 0.65605 0.97463 0.0
O630 O 0.59153 0.67776 0.9546 0.0
O631 O 0.55344 0.6424 0.96877 0.0
O632 O 0.56974 0.66539 0.89081 0.0
O633 O 0.49186 0.68544 0.92035 0.0
C634 C 0.49304 0.71396 0.93094 0.0
O635 O 0.51885 0.72379 0.94662 0.0
O636 O 0.50616 0.60591 0.90938 0.0
Mg637 Mg 0.64759 0.27121 0.17147 0.0
C638 C 0.60453 0.30743 0.12459 0.0
O639 O 0.59237 0.27873 0.11961 0.0
C640 C 0.69777 0.22248 0.16966 0.0
O641 O 0.68015 0.21531 0.19493 0.0
C642 C 0.64383 0.31803 0.22634 0.0
O643 O 0.61785 0.3269 0.21038 0.0
O644 O 0.65972 0.29353 0.21709 0.0
O645 O 0.62959 0.31047 0.14212 0.0
O646 O 0.6105 0.23399 0.17232 0.0
C647 C 0.58153 0.23771 0.18207 0.0
O648 O 0.57305 0.26479 0.19581 0.0
O649 O 0.69062 0.2473 0.15339 0.0
Mg650 Mg 1.01839 0.38666 0.42234 0.0
C651 C 0.98187 0.34619 0.37368 0.0
O652 O 1.01054 0.33288 0.37006 0.0
C653 C 0.06672 0.43622 0.42788 0.0
O654 O 0.07196 0.41676 0.45214 0.0
C655 C 0.96852 0.38063 0.47463 0.0
O656 O 0.95742 0.35892 0.4546 0.0
O657 O 0.99552 0.39428 0.46877 0.0
O658 O 0.97921 0.37129 0.39081 0.0
O659 O 0.0571 0.35125 0.42035 0.0
C660 C 0.05592 0.32273 0.43094 0.0
O661 O 0.0301 0.3129 0.44662 0.0
O662 O 0.04279 0.43077 0.40938 0.0
Mg663 Mg 0.90136 0.76547 0.67147 0.0
C664 C 0.94442 0.72926 0.62458 0.0
O665 O 0.95658 0.75796 0.61961 0.0
C666 C 0.85118 0.8142 0.66966 0.0
O667 O 0.8688 0.82137 0.69493 0.0
C668 C 0.90512 0.71866 0.72634 0.0
O669 O 0.93111 0.70978 0.71038 0.0
O670 O 0.88923 0.74315 0.71708 0.0
O671 O 0.91936 0.72621 0.64212 0.0
O672 O 0.93845 0.80269 0.67232 0.0
C673 C 0.96743 0.79898 0.68207 0.0
O674 O 0.9759 0.77189 0.69581 0.0
O675 O 0.85833 0.78939 0.65339 0.0
Mg676 Mg 0.53057 0.38666 0.61433 0.0
C677 C 0.56708 0.34619 0.663 0.0
O678 O 0.53842 0.33288 0.66661 0.0
C679 C 0.48224 0.43622 0.60879 0.0
O680 O 0.47699 0.41676 0.58454 0.0
C681 C 0.58043 0.38063 0.56205 0.0
O682 O 0.59154 0.35891 0.58207 0.0
O683 O 0.55344 0.39428 0.56791 0.0
O684 O 0.56974 0.37129 0.64586 0.0
O685 O 0.49186 0.35125 0.61633 0.0
C686 C 0.49304 0.32273 0.60573 0.0
O687 O 0.51885 0.3129 0.59006 0.0
O688 O 0.50616 0.43077 0.62729 0.0
Mg689 Mg 0.90136 0.27121 0.86521 0.0
C690 C 0.94442 0.30743 0.91209 0.0
O691 O 0.95658 0.27873 0.91707 0.0
C692 C 0.85118 0.22248 0.86701 0.0
O693 O 0.8688 0.21531 0.84174 0.0
C694 C 0.90512 0.31803 0.81034 0.0
O695 O 0.93111 0.3269 0.8263 0.0
O696 O 0.88923 0.29354 0.81959 0.0
O697 O 0.91936 0.31047 0.89456 0.0
O698 O 0.93845 0.234 0.86436 0.0
C699 C 0.96743 0.23771 0.85461 0.0
O700 O 0.9759 0.2648 0.84087 0.0
O701 O 0.85833 0.2473 0.88329 0.0
Mg702 Mg 1.01839 0.65003 0.11434 0.0
C703 C 0.98187 0.6905 0.163 0.0
O704 O 1.01054 0.70381 0.16662 0.0
C705 C 0.06672 0.60047 0.1088 0.0
O706 O 0.07196 0.61992 0.08454 0.0
C707 C 0.96852 0.65605 0.06205 0.0
O708 O 0.95741 0.67777 0.08207 0.0
O709 O 0.99551 0.6424 0.06791 0.0
O710 O 0.97921 0.66539 0.14586 0.0
O711 O 0.05709 0.68544 0.11633 0.0
C712 C 0.05591 0.71396 0.10573 0.0
O713 O 0.0301 0.72378 0.09006 0.0
O714 O 0.04279 0.60591 0.12729 0.0
Mg715 Mg 0.64759 0.76547 0.36521 0.0
C716 C 0.60453 0.72926 0.41209 0.0
O717 O 0.59237 0.75796 0.41707 0.0
C718 C 0.69777 0.8142 0.36701 0.0
O719 O 0.68015 0.82137 0.34174 0.0
C720 C 0.64383 0.71865 0.31034 0.0
O721 O 0.61784 0.70978 0.3263 0.0
O722 O 0.65972 0.74315 0.31959 0.0
O723 O 0.62959 0.72621 0.39456 0.0
O724 O 0.6105 0.80269 0.36436 0.0
C725 C 0.58153 0.79898 0.35461 0.0
O726 O 0.57305 0.77189 0.34087 0.0
O727 O 0.69062 0.78939 0.38329 0.0
Mg728 Mg 0.92067 0.53237 0.64955 0.0
C729 C 0.92863 0.47007 0.68663 0.0
O730 O 0.92037 0.4576 0.65887 0.0
C731 C 0.97459 0.57977 0.64469 0.0
O732 O 0.96492 0.58452 0.67435 0.0
C733 C 0.90578 0.49274 0.59029 0.0
O734 O 0.93703 0.49697 0.58561 0.0
O735 O 0.89217 0.50577 0.61438 0.0
O736 O 0.93348 0.50013 0.68869 0.0
O737 O 0.89314 0.5708 0.6719 0.0
C738 C 0.88171 0.5672 0.69999 0.0
O739 O 0.88247 0.53871 0.71344 0.0
O740 O 0.9617 0.55738 0.62828 0.0
Mg741 Mg 0.76839 0.67234 0.90002 0.0
C742 C 0.73186 0.62369 0.9405 0.0
O743 O 0.76053 0.62008 0.9538 0.0
C744 C 0.81672 0.67789 0.85047 0.0
O745 O 0.82197 0.70215 0.86992 0.0
C746 C 0.71852 0.72463 0.90605 0.0
O747 O 0.70742 0.70461 0.92777 0.0
O748 O 0.74551 0.71877 0.8924 0.0
O749 O 0.72921 0.64082 0.91538 0.0
O750 O 0.80709 0.67035 0.93543 0.0
C751 C 0.80592 0.68096 0.96395 0.0
O752 O 0.78011 0.69664 0.97378 0.0
O753 O 0.79279 0.65939 0.85591 0.0
Mg754 Mg 0.62828 0.50431 0.14954 0.0
C755 C 0.62032 0.56661 0.18663 0.0
O756 O 0.62858 0.57909 0.15887 0.0
C757 C 0.57437 0.45692 0.14469 0.0
O758 O 0.58404 0.45217 0.17435 0.0
C759 C 0.64317 0.54395 0.09029 0.0
O760 O 0.61193 0.53972 0.08561 0.0
O761 O 0.65678 0.53091 0.11438 0.0
O762 O 0.61548 0.53655 0.18869 0.0
O763 O 0.65581 0.46588 0.17189 0.0
C764 C 0.66724 0.46948 0.19998 0.0
O765 O 0.66647 0.49797 0.21343 0.0
O766 O 0.58725 0.47931 0.12828 0.0
Mg767 Mg 0.78057 0.36434 0.40002 0.0
C768 C 0.81709 0.413 0.4405 0.0
O769 O 0.78842 0.4166 0.4538 0.0
C770 C 0.73224 0.3588 0.35046 0.0
O771 O 0.72699 0.33454 0.36992 0.0
C772 C 0.83043 0.31206 0.40605 0.0
O773 O 0.84154 0.33208 0.42777 0.0
O774 O 0.80344 0.31792 0.3924 0.0
O775 O 0.81975 0.39587 0.41538 0.0
O776 O 0.74186 0.36633 0.43543 0.0
C777 C 0.74304 0.35573 0.46395 0.0
O778 O 0.76884 0.34005 0.47378 0.0
O779 O 0.75616 0.3773 0.35591 0.0
Mg780 Mg 0.92067 0.50432 0.88713 0.0
C781 C 0.92863 0.56661 0.85004 0.0
O782 O 0.92037 0.57909 0.8778 0.0
C783 C 0.97459 0.45692 0.89198 0.0
O784 O 0.96492 0.45217 0.86232 0.0
C785 C 0.90578 0.54395 0.94639 0.0
O786 O 0.93703 0.53972 0.95107 0.0
O787 O 0.89217 0.53092 0.9223 0.0
O788 O 0.93348 0.53655 0.84799 0.0
O789 O 0.89314 0.46588 0.86478 0.0
C790 C 0.88171 0.46949 0.83669 0.0
O791 O 0.88247 0.49797 0.82324 0.0
O792 O 0.9617 0.47931 0.9084 0.0
Mg793 Mg 0.78056 0.67235 0.13665 0.0
C794 C 0.81708 0.62368 0.09618 0.0
O795 O 0.78841 0.62007 0.08287 0.0
C796 C 0.73223 0.67789 0.18621 0.0
O797 O 0.72699 0.70215 0.16676 0.0
C798 C 0.83043 0.72463 0.13063 0.0
O799 O 0.84154 0.70461 0.10891 0.0
O800 O 0.80344 0.71877 0.14428 0.0
O801 O 0.81974 0.64082 0.12129 0.0
O802 O 0.74186 0.67036 0.10124 0.0
C803 C 0.74304 0.68095 0.07272 0.0
O804 O 0.76885 0.69662 0.0629 0.0
O805 O 0.75616 0.65939 0.18077 0.0
Mg806 Mg 0.62828 0.53237 0.38713 0.0
C807 C 0.62032 0.47007 0.35003 0.0
O808 O 0.62859 0.45761 0.3778 0.0
C809 C 0.57437 0.57977 0.39198 0.0
O810 O 0.58404 0.58452 0.36232 0.0
C811 C 0.64317 0.49273 0.44639 0.0
O812 O 0.61192 0.49697 0.45107 0.0
O813 O 0.65678 0.50577 0.4223 0.0
O814 O 0.61547 0.50013 0.34798 0.0
O815 O 0.65581 0.5708 0.36478 0.0
C816 C 0.66724 0.5672 0.33669 0.0
O817 O 0.66648 0.53871 0.32324 0.0
O818 O 0.58725 0.55738 0.4084 0.0
Mg819 Mg 0.76839 0.36434 0.63665 0.0
C820 C 0.73187 0.413 0.59618 0.0
O821 O 0.76054 0.41662 0.58287 0.0
C822 C 0.81672 0.3588 0.68621 0.0
O823 O 0.82197 0.33454 0.66676 0.0
C824 C 0.71852 0.31206 0.63063 0.0
O825 O 0.70742 0.33208 0.60891 0.0
O826 O 0.74551 0.31791 0.64428 0.0
O827 O 0.72921 0.39587 0.62129 0.0
O828 O 0.8071 0.36633 0.60124 0.0
C829 C 0.80591 0.35574 0.57272 0.0
O830 O 0.7801 0.34006 0.5629 0.0
O831 O 0.79279 0.3773 0.68077 0.0
Mg832 Mg 0.65136 0.92148 0.52121 0.0
C833 C 0.69442 0.87458 0.55741 0.0
O834 O 0.70659 0.8696 0.52872 0.0
C835 C 0.60118 0.91967 0.47248 0.0
O836 O 0.6188 0.94494 0.46531 0.0
C837 C 0.65512 0.97634 0.56803 0.0
O838 O 0.68111 0.96038 0.5769 0.0
O839 O 0.63923 0.96709 0.54353 0.0
O840 O 0.66937 0.89212 0.56047 0.0
O841 O 0.68845 0.92233 0.48399 0.0
C842 C 0.71743 0.93207 0.48771 0.0
O843 O 0.7259 0.94581 0.51479 0.0
O844 O 0.60833 0.90339 0.49729 0.0
Mg845 Mg 0.15136 0.61521 0.51547 0.0
C846 C 0.19442 0.6621 0.47925 0.0
O847 O 0.20658 0.66707 0.50795 0.0
C848 C 0.10117 0.61702 0.56419 0.0
O849 O 0.1188 0.59175 0.57136 0.0
C850 C 0.15512 0.56034 0.46865 0.0
O851 O 0.18111 0.57631 0.45978 0.0
O852 O 0.13923 0.5696 0.49315 0.0
O853 O 0.16936 0.64456 0.47621 0.0
O854 O 0.18845 0.61436 0.55269 0.0
C855 C 0.21743 0.60462 0.54897 0.0
O856 O 0.22589 0.59088 0.52188 0.0
O857 O 0.10833 0.63329 0.53938 0.0
Mg858 Mg 0.67067 0.89955 0.75431 0.0
C859 C 0.67863 0.93664 0.81661 0.0
O860 O 0.67037 0.90888 0.82908 0.0
C861 C 0.72458 0.8947 0.70691 0.0
O862 O 0.71492 0.92436 0.70216 0.0
C863 C 0.65578 0.84029 0.79395 0.0
O864 O 0.68703 0.83561 0.78971 0.0
O865 O 0.64217 0.86438 0.78091 0.0
O866 O 0.68348 0.9387 0.78655 0.0
O867 O 0.64314 0.9219 0.71588 0.0
C868 C 0.63171 0.94999 0.71948 0.0
O869 O 0.63247 0.96344 0.74797 0.0
O870 O 0.7117 0.87828 0.7293 0.0
Mg871 Mg 0.39759 0.42147 1.01547 0.0
C872 C 0.35453 0.37459 0.97925 0.0
O873 O 0.34237 0.36961 1.00795 0.0
C874 C 0.44778 0.41967 0.06419 0.0
O875 O 0.43015 0.44494 0.07136 0.0
C876 C 0.39383 0.47635 0.96865 0.0
O877 O 0.36785 0.46038 0.95978 0.0
O878 O 0.40972 0.46709 0.99315 0.0
O879 O 0.37959 0.39212 0.97621 0.0
O880 O 0.3605 0.42232 0.05268 0.0
C881 C 0.33153 0.43207 0.04897 0.0
O882 O 0.32306 0.44581 0.02188 0.0
O883 O 0.44062 0.40339 0.03938 0.0
Mg884 Mg 0.37828 0.63714 0.75431 0.0
C885 C 0.37032 0.60004 0.81661 0.0
O886 O 0.37859 0.6278 0.82907 0.0
C887 C 0.32436 0.64199 0.70691 0.0
O888 O 0.33403 0.61233 0.70217 0.0
C889 C 0.39317 0.69639 0.79395 0.0
O890 O 0.36192 0.70107 0.78971 0.0
O891 O 0.40678 0.6723 0.78091 0.0
O892 O 0.36547 0.59799 0.78655 0.0
O893 O 0.40581 0.61479 0.71588 0.0
C894 C 0.41724 0.5867 0.71948 0.0
O895 O 0.41647 0.57325 0.74796 0.0
O896 O 0.33725 0.6584 0.7293 0.0
Mg897 Mg 0.89759 0.11521 0.02121 0.0
C898 C 0.85453 0.1621 0.05741 0.0
O899 O 0.84237 0.16708 0.02872 0.0
C900 C 0.94777 0.11702 0.97248 0.0
O901 O 0.93015 0.09174 0.96531 0.0
C902 C 0.89383 0.06034 0.06803 0.0
O903 O 0.86784 0.0763 0.0769 0.0
O904 O 0.90972 0.0696 0.04353 0.0
O905 O 0.87959 0.14456 0.06047 0.0
O906 O 0.8605 0.11436 0.98399 0.0
C907 C 0.83153 0.10461 0.98771 0.0
O908 O 0.82305 0.09087 1.01479 0.0
O909 O 0.94062 0.13329 0.99729 0.0
Mg910 Mg 0.67067 0.13714 0.78237 0.0
C911 C 0.67863 0.10005 0.72007 0.0
O912 O 0.67037 0.12781 0.70759 0.0
C913 C 0.72458 0.14199 0.82977 0.0
O914 O 0.71492 0.11232 0.83451 0.0
C915 C 0.65578 0.19639 0.74273 0.0
O916 O 0.68703 0.20107 0.74696 0.0
O917 O 0.64217 0.17231 0.75577 0.0
O918 O 0.68348 0.09799 0.75013 0.0
O919 O 0.64314 0.11479 0.8208 0.0
C920 C 0.63171 0.0867 0.81719 0.0
O921 O 0.63247 0.07324 0.78871 0.0
O922 O 0.7117 0.1584 0.80738 0.0
Mg923 Mg 0.87828 0.89955 0.28237 0.0
C924 C 0.87032 0.93664 0.22007 0.0
O925 O 0.87858 0.90888 0.20759 0.0
C926 C 0.82437 0.8947 0.32977 0.0
O927 O 0.83403 0.92436 0.33451 0.0
C928 C 0.89317 0.84029 0.24273 0.0
O929 O 0.86192 0.83561 0.24696 0.0
O930 O 0.90678 0.86438 0.25577 0.0
O931 O 0.86547 0.93869 0.25013 0.0
O932 O 0.90581 0.9219 0.3208 0.0
C933 C 0.91725 0.94999 0.31719 0.0
O934 O 0.91648 0.96344 0.28871 0.0
O935 O 0.83725 0.87828 0.30738 0.0
Mg936 Mg 0.51917 0.36874 0.12159 0.0
C937 C 0.49246 0.32153 0.17093 0.0
O938 O 0.52329 0.3143 0.17436 0.0
C939 C 0.55282 0.43342 0.12932 0.0
O940 O 0.54719 0.43512 0.09835 0.0
C941 C 0.47252 0.40874 0.08698 0.0
O942 O 0.47406 0.42218 0.11545 0.0
O943 O 0.49068 0.38488 0.08087 0.0
O944 O 0.48434 0.34453 0.15251 0.0
O945 O 0.55491 0.33202 0.11035 0.0
C946 C 0.58442 0.33584 0.11843 0.0
O947 O 0.59397 0.36388 0.12928 0.0
O948 O 0.5431 0.40908 0.14509 0.0
Mg949 Mg 0.41894 0.76275 0.87299 0.0
C950 C 0.46856 0.73713 0.91997 0.0
O951 O 0.47294 0.76792 0.92506 0.0
C952 C 0.35224 0.78766 0.89256 0.0
O953 O 0.34294 0.77065 0.86767 0.0
C954 C 0.41119 0.71629 0.817 0.0
O955 O 0.44128 0.709 0.82451 0.0
O956 O 0.39659 0.73836 0.83235 0.0
O957 O 0.44615 0.72795 0.90102 0.0
O958 O 0.45587 0.79768 0.8598 0.0
C959 C 0.4526 0.82708 0.86725 0.0
O960 O 0.42442 0.8373 0.87789 0.0
O961 O 0.38191 0.78735 0.90101 0.0
Mg962 Mg 0.02978 0.66795 0.62159 0.0
C963 C 0.0565 0.71516 0.67093 0.0
O964 O 0.02567 0.72239 0.67436 0.0
C965 C 0.99613 0.60327 0.62932 0.0
O966 O 1.00176 0.60157 0.59835 0.0
C967 C 0.07644 0.62794 0.58698 0.0
O968 O 0.07489 0.61451 0.61545 0.0
O969 O 0.05828 0.65181 0.58087 0.0
O970 O 0.06462 0.69216 0.65251 0.0
O971 O 0.99404 0.70467 0.61035 0.0
C972 C 0.96454 0.70085 0.61843 0.0
O973 O 0.95498 0.67281 0.62928 0.0
O974 O 1.00585 0.62761 0.64509 0.0
Mg975 Mg 0.13001 0.27394 0.37299 0.0
C976 C 0.0804 0.29956 0.41997 0.0
O977 O 0.07601 0.26877 0.42506 0.0
C978 C 0.19671 0.24902 0.39256 0.0
O979 O 0.20601 0.26603 0.36767 0.0
C980 C 0.13776 0.3204 0.317 0.0
O981 O 0.10768 0.32768 0.32451 0.0
O982 O 0.15236 0.29833 0.33235 0.0
O983 O 0.1028 0.30874 0.40102 0.0
O984 O 0.09308 0.23901 0.3598 0.0
C985 C 0.09635 0.2096 0.36725 0.0
O986 O 0.12454 0.19939 0.37789 0.0
O987 O 0.16704 0.24933 0.40102 0.0
Mg988 Mg 0.51917 0.66795 0.41508 0.0
C989 C 0.49245 0.71515 0.36575 0.0
O990 O 0.52329 0.72239 0.36232 0.0
C991 C 0.55282 0.60327 0.40736 0.0
O992 O 0.54719 0.60157 0.43833 0.0
C993 C 0.47252 0.62794 0.4497 0.0
O994 O 0.47406 0.61451 0.42122 0.0
O995 O 0.49068 0.65181 0.45581 0.0
O996 O 0.48433 0.69216 0.38417 0.0
O997 O 0.55491 0.70466 0.42633 0.0
C998 C 0.58442 0.70085 0.41824 0.0
O999 O 0.59397 0.67281 0.4074 0.0
O1000 O 0.5431 0.62761 0.39159 0.0
Mg1001 Mg 0.13001 0.76275 0.16369 0.0
C1002 C 0.08039 0.73712 0.1167 0.0
O1003 O 0.07601 0.76792 0.11161 0.0
C1004 C 0.19671 0.78766 0.14412 0.0
O1005 O 0.20601 0.77065 0.16901 0.0
C1006 C 0.13776 0.71629 0.21968 0.0
O1007 O 0.10767 0.709 0.21217 0.0
O1008 O 0.15236 0.73836 0.20433 0.0
O1009 O 0.1028 0.72795 0.13566 0.0
O1010 O 0.09308 0.79767 0.17687 0.0
C1011 C 0.09635 0.82708 0.16942 0.0
O1012 O 0.12453 0.83729 0.15878 0.0
O1013 O 0.16704 0.78735 0.13566 0.0
Mg1014 Mg 0.02978 0.36874 0.91508 0.0
C1015 C 0.0565 0.32153 0.86575 0.0
O1016 O 0.02567 0.3143 0.86232 0.0
C1017 C 0.99613 0.43342 0.90736 0.0
O1018 O 1.00176 0.43512 0.93833 0.0
C1019 C 0.07644 0.40874 0.9497 0.0
O1020 O 0.07489 0.42218 0.92122 0.0
O1021 O 0.05828 0.38488 0.9558 0.0
O1022 O 0.06462 0.34453 0.88417 0.0
O1023 O 0.99405 0.33202 0.92633 0.0
C1024 C 0.96454 0.33584 0.91824 0.0
O1025 O 0.95498 0.36388 0.9074 0.0
O1026 O 1.00585 0.40908 0.89159 0.0
Mg1027 Mg 0.41895 0.27394 0.66369 0.0
C1028 C 0.46856 0.29956 0.6167 0.0
O1029 O 0.47294 0.26877 0.61161 0.0
C1030 C 0.35224 0.24902 0.64412 0.0
O1031 O 0.34295 0.26603 0.66901 0.0
C1032 C 0.4112 0.3204 0.71968 0.0
O1033 O 0.44128 0.32768 0.71217 0.0
O1034 O 0.39659 0.29833 0.70433 0.0
O1035 O 0.44615 0.30874 0.63566 0.0
O1036 O 0.45587 0.23901 0.67687 0.0
C1037 C 0.4526 0.2096 0.66942 0.0
O1038 O 0.42442 0.19939 0.65878 0.0
O1039 O 0.38192 0.24933 0.63566 0.0
Mg1040 Mg 0.13131 0.50375 0.38176 0.0
C1041 C 0.17318 0.46617 0.3351 0.0
O1042 O 0.17425 0.49404 0.3204 0.0
C1043 C 0.14103 0.53631 0.44694 0.0
O1044 O 0.11141 0.52583 0.452 0.0
C1045 C 0.09157 0.45989 0.41955 0.0
O1046 O 0.12039 0.45774 0.4329 0.0
O1047 O 0.08721 0.47994 0.39703 0.0
O1048 O 0.15976 0.46421 0.3625 0.0
O1049 O 0.12311 0.53657 0.34214 0.0
C1050 C 0.12575 0.56675 0.34559 0.0
O1051 O 0.13033 0.57876 0.37438 0.0
O1052 O 0.15528 0.52969 0.42066 0.0
Mg1053 Mg 0.27978 0.3716 0.11873 0.0
C1054 C 0.3065 0.42093 0.07153 0.0
O1055 O 0.27567 0.42436 0.06429 0.0
C1056 C 0.24613 0.37932 0.18341 0.0
O1057 O 0.25177 0.34835 0.18511 0.0
C1058 C 0.32644 0.33698 0.15874 0.0
O1059 O 0.32489 0.36546 0.17217 0.0
O1060 O 0.30828 0.33088 0.13487 0.0
O1061 O 0.31462 0.40251 0.09452 0.0
O1062 O 0.24405 0.36035 0.08202 0.0
C1063 C 0.21454 0.36844 0.08584 0.0
O1064 O 0.20498 0.37928 0.11387 0.0
O1065 O 0.25585 0.3951 0.15908 0.0
Mg1066 Mg 0.41764 0.53293 0.88176 0.0
C1067 C 0.37578 0.57051 0.8351 0.0
O1068 O 0.3747 0.54265 0.8204 0.0
C1069 C 0.40792 0.50038 0.94694 0.0
O1070 O 0.43754 0.51086 0.952 0.0
C1071 C 0.45738 0.57679 0.91955 0.0
O1072 O 0.42857 0.57894 0.9329 0.0
O1073 O 0.46175 0.55675 0.89703 0.0
O1074 O 0.3892 0.57247 0.8625 0.0
O1075 O 0.42584 0.50011 0.84214 0.0
C1076 C 0.4232 0.46993 0.84559 0.0
O1077 O 0.41863 0.45793 0.87438 0.0
O1078 O 0.39368 0.50699 0.92066 0.0
Mg1079 Mg 0.26917 0.66509 0.61873 0.0
C1080 C 0.24245 0.61575 0.57153 0.0
O1081 O 0.27329 0.61232 0.56429 0.0
C1082 C 0.30282 0.65736 0.68341 0.0
O1083 O 0.29719 0.68833 0.68511 0.0
C1084 C 0.22252 0.6997 0.65874 0.0
O1085 O 0.22406 0.67123 0.67217 0.0
O1086 O 0.24068 0.70581 0.63487 0.0
O1087 O 0.23433 0.63417 0.59452 0.0
O1088 O 0.30491 0.67633 0.58202 0.0
C1089 C 0.33442 0.66825 0.58584 0.0
O1090 O 0.34397 0.6574 0.61387 0.0
O1091 O 0.2931 0.64159 0.65908 0.0
Mg1092 Mg 0.13131 0.53293 0.15491 0.0
C1093 C 0.17318 0.57051 0.20158 0.0
O1094 O 0.17425 0.54265 0.21627 0.0
C1095 C 0.14104 0.50038 0.08973 0.0
O1096 O 0.11141 0.51086 0.08468 0.0
C1097 C 0.09157 0.57679 0.11712 0.0
O1098 O 0.12038 0.57894 0.10377 0.0
O1099 O 0.08721 0.55674 0.13965 0.0
O1100 O 0.15976 0.57247 0.17417 0.0
O1101 O 0.12311 0.50011 0.19453 0.0
C1102 C 0.12575 0.46993 0.19108 0.0
O1103 O 0.13033 0.45793 0.1623 0.0
O1104 O 0.15528 0.50699 0.11602 0.0
Mg1105 Mg 0.26917 0.3716 0.91794 0.0
C1106 C 0.24246 0.42093 0.96515 0.0
O1107 O 0.27329 0.42436 0.97238 0.0
C1108 C 0.30282 0.37932 0.85326 0.0
O1109 O 0.29719 0.34835 0.85156 0.0
C1110 C 0.22252 0.33698 0.87794 0.0
O1111 O 0.22406 0.36546 0.8645 0.0
O1112 O 0.24068 0.33088 0.9018 0.0
O1113 O 0.23434 0.40251 0.94215 0.0
O1114 O 0.30491 0.36035 0.95466 0.0
C1115 C 0.33442 0.36844 0.95084 0.0
O1116 O 0.34397 0.37928 0.9228 0.0
O1117 O 0.2931 0.3951 0.8776 0.0
Mg1118 Mg 0.41764 0.50375 0.65491 0.0
C1119 C 0.37578 0.46617 0.70158 0.0
O1120 O 0.3747 0.49404 0.71627 0.0
C1121 C 0.40792 0.53631 0.58973 0.0
O1122 O 0.43754 0.52583 0.58468 0.0
C1123 C 0.45738 0.45989 0.61712 0.0
O1124 O 0.42857 0.45774 0.60377 0.0
O1125 O 0.46175 0.47994 0.63965 0.0
O1126 O 0.3892 0.46421 0.67417 0.0
O1127 O 0.42584 0.53657 0.69453 0.0
C1128 C 0.4232 0.56675 0.69108 0.0
O1129 O 0.41862 0.57876 0.6623 0.0
O1130 O 0.39368 0.52969 0.61602 0.0
Mg1131 Mg 0.27978 0.66509 0.41794 0.0
C1132 C 0.3065 0.61575 0.46515 0.0
O1133 O 0.27567 0.61232 0.47238 0.0
C1134 C 0.24613 0.65736 0.35326 0.0
O1135 O 0.25177 0.68833 0.35156 0.0
C1136 C 0.32644 0.6997 0.37794 0.0
O1137 O 0.32489 0.67123 0.36451 0.0
O1138 O 0.30828 0.70581 0.4018 0.0
O1139 O 0.31462 0.63417 0.44215 0.0
O1140 O 0.24404 0.67633 0.45466 0.0
C1141 C 0.21454 0.66825 0.45084 0.0
O1142 O 0.20498 0.6574 0.4228 0.0
O1143 O 0.25585 0.64159 0.3776 0.0
Mg1144 Mg 0.38001 0.12299 0.51275 0.0
C1145 C 0.3304 0.16998 0.48712 0.0
O1146 O 0.32602 0.17507 0.51791 0.0
C1147 C 0.44671 0.14256 0.53766 0.0
O1148 O 0.45601 0.11767 0.52065 0.0
C1149 C 0.38776 0.067 0.46628 0.0
O1150 O 0.35768 0.07451 0.459 0.0
O1151 O 0.40236 0.08235 0.48835 0.0
O1152 O 0.3528 0.15102 0.47794 0.0
O1153 O 0.34308 0.10981 0.54767 0.0
C1154 C 0.34635 0.11726 0.57708 0.0
O1155 O 0.37453 0.1279 0.58729 0.0
O1156 O 0.41704 0.15102 0.53735 0.0
Mg1157 Mg 0.88001 0.4137 0.52393 0.0
C1158 C 0.8304 0.36671 0.54956 0.0
O1159 O 0.82601 0.36162 0.51876 0.0
C1160 C 0.94671 0.39413 0.49902 0.0
O1161 O 0.95601 0.41901 0.51603 0.0
C1162 C 0.88776 0.46968 0.57039 0.0
O1163 O 0.85767 0.46217 0.57768 0.0
O1164 O 0.90236 0.45434 0.54832 0.0
O1165 O 0.8528 0.38566 0.55874 0.0
O1166 O 0.84308 0.42688 0.48901 0.0
C1167 C 0.84635 0.41943 0.4596 0.0
O1168 O 0.87453 0.40879 0.44939 0.0
O1169 O 0.91704 0.38567 0.49933 0.0
Mg1170 Mg 0.38131 0.13177 0.28293 0.0
C1171 C 0.42318 0.0851 0.32051 0.0
O1172 O 0.42425 0.07041 0.29265 0.0
C1173 C 0.39103 0.19695 0.25037 0.0
O1174 O 0.36141 0.202 0.26085 0.0
C1175 C 0.34157 0.16956 0.32679 0.0
O1176 O 0.37038 0.18291 0.32894 0.0
O1177 O 0.33721 0.14703 0.30674 0.0
O1178 O 0.40976 0.11251 0.32247 0.0
O1179 O 0.37311 0.09215 0.25011 0.0
C1180 C 0.37575 0.0956 0.21993 0.0
O1181 O 0.38033 0.12439 0.20793 0.0
O1182 O 0.40528 0.17066 0.25699 0.0
Mg1183 Mg 0.66895 0.62299 0.02393 0.0
C1184 C 0.71856 0.66998 0.04956 0.0
O1185 O 0.72294 0.67507 0.01876 0.0
C1186 C 0.60224 0.64256 0.99902 0.0
O1187 O 0.59295 0.61767 1.01603 0.0
C1188 C 0.6612 0.567 0.07039 0.0
O1189 O 0.69128 0.57451 0.07768 0.0
O1190 O 0.64659 0.58235 0.04832 0.0
O1191 O 0.69615 0.65102 0.05873 0.0
O1192 O 0.70587 0.60981 0.98901 0.0
C1193 C 0.7026 0.61726 0.9596 0.0
O1194 O 0.67442 0.6279 0.94939 0.0
O1195 O 0.63192 0.65102 0.99933 0.0
Mg1196 Mg 0.66764 0.40492 0.28293 0.0
C1197 C 0.62578 0.45158 0.32051 0.0
O1198 O 0.6247 0.46628 0.29265 0.0
C1199 C 0.65792 0.33974 0.25037 0.0
O1200 O 0.68754 0.33468 0.26085 0.0
C1201 C 0.70738 0.36713 0.32679 0.0
O1202 O 0.67857 0.35378 0.32894 0.0
O1203 O 0.71175 0.38965 0.30674 0.0
O1204 O 0.6392 0.42418 0.32247 0.0
O1205 O 0.67584 0.44454 0.25011 0.0
C1206 C 0.6732 0.44109 0.21993 0.0
O1207 O 0.66863 0.4123 0.20793 0.0
O1208 O 0.64368 0.36602 0.25699 0.0
Mg1209 Mg 0.16894 0.9137 1.01275 0.0
C1210 C 0.21855 0.86671 0.98712 0.0
O1211 O 0.22294 0.86161 1.01791 0.0
C1212 C 0.10224 0.89413 0.03766 0.0
O1213 O 0.09294 0.91901 0.02065 0.0
C1214 C 0.16119 0.96968 0.96628 0.0
O1215 O 0.19128 0.96217 0.959 0.0
O1216 O 0.14659 0.95434 0.98835 0.0
O1217 O 0.19615 0.88567 0.97794 0.0
O1218 O 0.20587 0.92688 0.04767 0.0
C1219 C 0.2026 0.91943 0.07708 0.0
O1220 O 0.17442 0.90879 0.08729 0.0
O1221 O 0.13191 0.88567 0.03735 0.0
Mg1222 Mg 0.38131 0.90492 0.25375 0.0
C1223 C 0.42318 0.95158 0.21617 0.0
O1224 O 0.42425 0.96628 0.24403 0.0
C1225 C 0.39103 0.83974 0.2863 0.0
O1226 O 0.36141 0.83468 0.27582 0.0
C1227 C 0.34157 0.86713 0.20989 0.0
O1228 O 0.37038 0.85378 0.20774 0.0
O1229 O 0.33721 0.88965 0.22993 0.0
O1230 O 0.40976 0.92418 0.21421 0.0
O1231 O 0.37311 0.94454 0.28657 0.0
C1232 C 0.37575 0.94109 0.31675 0.0
O1233 O 0.38033 0.9123 0.32875 0.0
O1234 O 0.40528 0.86602 0.27969 0.0
Mg1235 Mg 0.16764 0.13177 0.75375 0.0
C1236 C 0.12578 0.0851 0.71617 0.0
O1237 O 0.1247 0.07041 0.74403 0.0
C1238 C 0.15792 0.19695 0.7863 0.0
O1239 O 0.18754 0.20201 0.77582 0.0
C1240 C 0.20738 0.16956 0.70989 0.0
O1241 O 0.17857 0.18291 0.70774 0.0
O1242 O 0.21175 0.14703 0.72993 0.0
O1243 O 0.1392 0.11251 0.71421 0.0
O1244 O 0.17584 0.09215 0.78657 0.0
C1245 C 0.1732 0.0956 0.81675 0.0
O1246 O 0.16863 0.12439 0.82875 0.0
O1247 O 0.14368 0.17066 0.77969 0.0
loop_
_geom_bond_atom_site_label_1
_geom_bond_atom_site_label_2
_geom_bond_distance
_geom_bond_site_symmetry_2
_ccdc_geom_bond_type
Mg0 O7 2.141 . S
Mg0 O8 2.048 . S
Mg0 O9 2.048 1_455 S
Mg0 O12 2.141 1_455 S
C1 O2 1.313 . S
C1 O8 1.195 . S
O2 C1 1.313 . S
C3 O4 1.245 . S
C3 O12 1.289 . S
O4 C3 1.245 . S
C5 O6 1.245 . S
C5 O7 1.289 . S
O6 C5 1.245 . S
O7 Mg0 2.141 . S
O7 C5 1.289 . S
O8 Mg0 2.048 . S
O8 C1 1.195 . S
O9 Mg0 2.048 1_655 S
O9 C10 1.195 . S
C10 O9 1.195 . S
C10 O11 1.313 . S
O11 C10 1.313 . S
O12 Mg0 2.141 1_655 S
O12 C3 1.289 . S
Mg13 O20 2.141 . S
Mg13 O21 2.048 . S
Mg13 O22 2.048 . S
Mg13 O25 2.141 . S
C14 O15 1.313 . S
C14 O21 1.195 . S
O15 C14 1.313 . S
C16 O17 1.245 . S
C16 O25 1.289 . S
O17 C16 1.245 . S
C18 O19 1.245 . S
C18 O20 1.289 . S
O19 C18 1.245 . S
O20 Mg13 2.141 . S
O20 C18 1.289 . S
O21 Mg13 2.048 . S
O21 C14 1.195 . S
O22 Mg13 2.048 . S
O22 C23 1.195 . S
C23 O22 1.195 . S
C23 O24 1.313 . S
O24 C23 1.313 . S
O25 Mg13 2.141 . S
O25 C16 1.289 . S
Mg26 O33 2.141 . S
Mg26 O34 2.048 . S
Mg26 O35 2.048 . S
Mg26 O38 2.141 . S
C27 O28 1.313 . S
C27 O34 1.195 . S
O28 C27 1.313 . S
C29 O30 1.245 . S
C29 O38 1.289 . S
O30 C29 1.245 . S
C31 O32 1.245 . S
C31 O33 1.289 . S
O32 C31 1.245 . S
O33 Mg26 2.141 . S
O33 C31 1.289 . S
O34 Mg26 2.048 . S
O34 C27 1.195 . S
O35 Mg26 2.048 . S
O35 C36 1.195 . S
C36 O35 1.195 . S
C36 O37 1.313 . S
O37 C36 1.313 . S
O38 Mg26 2.141 . S
O38 C29 1.289 . S
Mg39 O46 2.141 . S
Mg39 O47 2.048 . S
Mg39 O48 2.048 . S
Mg39 O51 2.141 . S
C40 O41 1.313 . S
C40 O47 1.195 . S
O41 C40 1.313 . S
C42 O43 1.245 . S
C42 O51 1.289 . S
O43 C42 1.245 . S
C44 O45 1.245 . S
C44 O46 1.289 . S
O45 C44 1.245 . S
O46 Mg39 2.141 . S
O46 C44 1.289 . S
O47 Mg39 2.048 . S
O47 C40 1.195 . S
O48 Mg39 2.048 . S
O48 C49 1.195 . S
C49 O48 1.195 . S
C49 O50 1.313 . S
O50 C49 1.313 . S
O51 Mg39 2.141 . S
O51 C42 1.289 . S
Mg52 O59 2.141 . S
Mg52 O60 2.048 . S
Mg52 O61 2.048 1_455 S
Mg52 O64 2.141 1_455 S
C53 O54 1.313 . S
C53 O60 1.195 . S
O54 C53 1.313 . S
C55 O56 1.245 . S
C55 O64 1.289 . S
O56 C55 1.245 . S
C57 O58 1.245 . S
C57 O59 1.289 . S
O58 C57 1.245 . S
O59 Mg52 2.141 . S
O59 C57 1.289 . S
O60 Mg52 2.048 . S
O60 C53 1.195 . S
O61 Mg52 2.048 1_655 S
O61 C62 1.195 . S
C62 O61 1.195 . S
C62 O63 1.313 . S
O63 C62 1.313 . S
O64 Mg52 2.141 1_655 S
O64 C55 1.289 . S
Mg65 O72 2.141 . S
Mg65 O73 2.048 . S
Mg65 O74 2.048 . S
Mg65 O77 2.141 . S
C66 O67 1.313 . S
C66 O73 1.195 . S
O67 C66 1.313 . S
C68 O69 1.245 . S
C68 O77 1.289 . S
O69 C68 1.245 . S
C70 O71 1.245 . S
C70 O72 1.289 . S
O71 C70 1.245 . S
O72 Mg65 2.141 . S
O72 C70 1.289 . S
O73 Mg65 2.048 . S
O73 C66 1.195 . S
O74 Mg65 2.048 . S
O74 C75 1.195 . S
C75 O74 1.195 . S
C75 O76 1.313 . S
O76 C75 1.313 . S
O77 Mg65 2.141 . S
O77 C68 1.289 . S
Mg78 O85 2.141 . S
Mg78 O86 2.048 . S
Mg78 O87 2.048 . S
Mg78 O90 2.141 . S
C79 O80 1.313 . S
C79 O86 1.195 . S
O80 C79 1.313 . S
C81 O82 1.245 . S
C81 O90 1.289 . S
O82 C81 1.245 . S
C83 O84 1.245 . S
C83 O85 1.289 . S
O84 C83 1.245 . S
O85 Mg78 2.141 . S
O85 C83 1.289 . S
O86 Mg78 2.048 . S
O86 C79 1.195 . S
O87 Mg78 2.048 . S
O87 C88 1.195 . S
C88 O87 1.195 . S
C88 O89 1.313 . S
O89 C88 1.313 . S
O90 Mg78 2.141 . S
O90 C81 1.289 . S
Mg91 O98 2.141 . S
Mg91 O99 2.048 . S
Mg91 O100 2.048 . S
Mg91 O103 2.141 . S
C92 O93 1.313 . S
C92 O99 1.195 . S
O93 C92 1.313 . S
C94 O95 1.245 . S
C94 O103 1.289 . S
O95 C94 1.245 . S
C96 O97 1.245 . S
C96 O98 1.289 . S
O97 C96 1.245 . S
O98 Mg91 2.141 . S
O98 C96 1.289 . S
O99 Mg91 2.048 . S
O99 C92 1.195 . S
O100 Mg91 2.048 . S
O100 C101 1.195 . S
C101 O100 1.195 . S
C101 O102 1.313 . S
O102 C101 1.313 . S
O103 Mg91 2.141 . S
O103 C94 1.289 . S
Mg104 O111 2.165 . S
Mg104 O112 2.076 . S
Mg104 O113 2.024 1_565 S
Mg104 O116 2.115 1_565 S
C105 O106 1.313 . S
C105 O112 1.195 . S
O106 C105 1.313 . S
C107 O108 1.245 . S
C107 O116 1.289 . S
O108 C107 1.245 . S
C109 O110 1.245 . S
C109 O111 1.289 . S
O110 C109 1.245 . S
O111 Mg104 2.165 . S
O111 C109 1.289 . S
O112 Mg104 2.076 . S
O112 C105 1.195 . S
O113 Mg104 2.024 1_545 S
O113 C114 1.195 . S
C114 O113 1.195 . S
C114 O115 1.313 . S
O115 C114 1.313 . S
O116 Mg104 2.115 1_545 S
O116 C107 1.289 . S
Mg117 O124 2.141 . S
Mg117 O125 2.048 . S
Mg117 O126 2.048 . S
Mg117 O129 2.141 . S
C118 O119 1.313 . S
C118 O125 1.195 . S
O119 C118 1.313 . S
C120 O121 1.245 . S
C120 O129 1.289 . S
O121 C120 1.245 . S
C122 O123 1.245 . S
C122 O124 1.289 . S
O123 C122 1.245 . S
O124 Mg117 2.141 . S
O124 C122 1.289 . S
O125 Mg117 2.048 . S
O125 C118 1.195 . S
O126 Mg117 2.048 . S
O126 C127 1.195 . S
C127 O126 1.195 . S
C127 O128 1.313 . S
O128 C127 1.313 . S
O129 Mg117 2.141 . S
O129 C120 1.289 . S
Mg130 O137 2.165 . S
Mg130 O138 2.076 . S
Mg130 O139 2.024 1_545 S
Mg130 O142 2.115 1_545 S
C131 O132 1.313 . S
C131 O138 1.195 . S
O132 C131 1.313 . S
C133 O134 1.245 . S
C133 O142 1.289 . S
O134 C133 1.245 . S
C135 O136 1.245 . S
C135 O137 1.289 . S
O136 C135 1.245 . S
O137 Mg130 2.165 . S
O137 C135 1.289 . S
O138 Mg130 2.076 . S
O138 C131 1.195 . S
O139 Mg130 2.024 1_565 S
O139 C140 1.195 . S
C140 O139 1.195 . S
C140 O141 1.313 . S
O141 C140 1.313 . S
O142 Mg130 2.115 1_565 S
O142 C133 1.289 . S
Mg143 O150 2.141 . S
Mg143 O151 2.048 . S
Mg143 O152 2.048 . S
Mg143 O155 2.141 . S
C144 O145 1.313 . S
C144 O151 1.195 . S
O145 C144 1.313 . S
C146 O147 1.245 . S
C146 O155 1.289 . S
O147 C146 1.245 . S
C148 O149 1.245 . S
C148 O150 1.289 . S
O149 C148 1.245 . S
O150 Mg143 2.141 . S
O150 C148 1.289 . S
O151 Mg143 2.048 . S
O151 C144 1.195 . S
O152 Mg143 2.048 . S
O152 C153 1.195 . S
C153 O152 1.195 . S
C153 O154 1.313 . S
O154 C153 1.313 . S
O155 Mg143 2.141 . S
O155 C146 1.289 . S
Mg156 O163 2.165 . S
Mg156 O164 2.076 . S
Mg156 O165 2.024 1_545 S
Mg156 O168 2.115 1_545 S
C157 O158 1.313 . S
C157 O164 1.195 . S
O158 C157 1.313 . S
C159 O160 1.245 . S
C159 O168 1.289 . S
O160 C159 1.245 . S
C161 O162 1.245 . S
C161 O163 1.289 . S
O162 C161 1.245 . S
O163 Mg156 2.165 . S
O163 C161 1.289 . S
O164 Mg156 2.076 . S
O164 C157 1.195 . S
O165 Mg156 2.024 1_565 S
O165 C166 1.195 . S
C166 O165 1.195 . S
C166 O167 1.313 . S
O167 C166 1.313 . S
O168 Mg156 2.115 1_565 S
O168 C159 1.289 . S
Mg169 O176 2.141 . S
Mg169 O177 2.048 . S
Mg169 O178 2.048 . S
Mg169 O181 2.141 . S
C170 O171 1.313 . S
C170 O177 1.195 . S
O171 C170 1.313 . S
C172 O173 1.245 . S
C172 O181 1.289 . S
O173 C172 1.245 . S
C174 O175 1.245 . S
C174 O176 1.289 . S
O175 C174 1.245 . S
O176 Mg169 2.141 . S
O176 C174 1.289 . S
O177 Mg169 2.048 . S
O177 C170 1.195 . S
O178 Mg169 2.048 . S
O178 C179 1.195 . S
C179 O178 1.195 . S
C179 O180 1.313 . S
O180 C179 1.313 . S
O181 Mg169 2.141 . S
O181 C172 1.289 . S
Mg182 O189 2.165 . S
Mg182 O190 2.076 . S
Mg182 O191 2.024 1_565 S
Mg182 O194 2.115 1_565 S
C183 O184 1.313 . S
C183 O190 1.195 . S
O184 C183 1.313 . S
C185 O186 1.245 . S
C185 O194 1.289 . S
O186 C185 1.245 . S
C187 O188 1.245 . S
C187 O189 1.289 . S
O188 C187 1.245 . S
O189 Mg182 2.165 . S
O189 C187 1.289 . S
O190 Mg182 2.076 . S
O190 C183 1.195 . S
O191 Mg182 2.024 1_545 S
O191 C192 1.195 . S
C192 O191 1.195 . S
C192 O193 1.313 . S
O193 C192 1.313 . S
O194 Mg182 2.115 1_545 S
O194 C185 1.289 . S
Mg195 O202 2.141 . S
Mg195 O203 2.048 . S
Mg195 O204 2.048 . S
Mg195 O207 2.141 . S
C196 O197 1.313 . S
C196 O203 1.195 . S
O197 C196 1.313 . S
C198 O199 1.245 . S
C198 O207 1.289 . S
O199 C198 1.245 . S
C200 O201 1.245 . S
C200 O202 1.289 . S
O201 C200 1.245 . S
O202 Mg195 2.141 . S
O202 C200 1.289 . S
O203 Mg195 2.048 . S
O203 C196 1.195 . S
O204 Mg195 2.048 . S
O204 C205 1.195 . S
C205 O204 1.195 . S
C205 O206 1.313 . S
O206 C205 1.313 . S
O207 Mg195 2.141 . S
O207 C198 1.289 . S
Mg208 O215 2.141 . S
Mg208 O216 2.048 . S
Mg208 O217 2.048 1_554 S
Mg208 O220 2.141 1_554 S
C209 O210 1.313 . S
C209 O216 1.195 . S
O210 C209 1.313 . S
C211 O212 1.245 . S
C211 O220 1.289 . S
O212 C211 1.245 . S
C213 O214 1.245 . S
C213 O215 1.289 . S
O214 C213 1.245 . S
O215 Mg208 2.141 . S
O215 C213 1.289 . S
O216 Mg208 2.048 . S
O216 C209 1.195 . S
O217 Mg208 2.048 1_556 S
O217 C218 1.195 . S
C218 O217 1.195 . S
C218 O219 1.313 . S
O219 C218 1.313 . S
O220 Mg208 2.141 1_556 S
O220 C211 1.289 . S
Mg221 O228 2.141 . S
Mg221 O229 2.048 . S
Mg221 O230 2.048 1_556 S
Mg221 O233 2.141 1_556 S
C222 O223 1.313 . S
C222 O229 1.195 . S
O223 C222 1.313 . S
C224 O225 1.245 . S
C224 O233 1.289 . S
O225 C224 1.245 . S
C226 O227 1.245 . S
C226 O228 1.289 . S
O227 C226 1.245 . S
O228 Mg221 2.141 . S
O228 C226 1.289 . S
O229 Mg221 2.048 . S
O229 C222 1.195 . S
O230 Mg221 2.048 1_554 S
O230 C231 1.195 . S
C231 O230 1.195 . S
C231 O232 1.313 . S
O232 C231 1.313 . S
O233 Mg221 2.141 1_554 S
O233 C224 1.289 . S
Mg234 O241 2.141 . S
Mg234 O242 2.048 . S
Mg234 O243 2.048 . S
Mg234 O246 2.141 . S
C235 O236 1.313 . S
C235 O242 1.195 . S
O236 C235 1.313 . S
C237 O238 1.245 . S
C237 O246 1.289 . S
O238 C237 1.245 . S
C239 O240 1.245 . S
C239 O241 1.289 . S
O240 C239 1.245 . S
O241 Mg234 2.141 . S
O241 C239 1.289 . S
O242 Mg234 2.048 . S
O242 C235 1.195 . S
O243 Mg234 2.048 . S
O243 C244 1.195 . S
C244 O243 1.195 . S
C244 O245 1.313 . S
O245 C244 1.313 . S
O246 Mg234 2.141 . S
O246 C237 1.289 . S
Mg247 O254 2.141 . S
Mg247 O255 2.048 . S
Mg247 O256 2.048 . S
Mg247 O259 2.141 . S
C248 O249 1.313 . S
C248 O255 1.195 . S
O249 C248 1.313 . S
C250 O251 1.245 . S
C250 O259 1.289 . S
O251 C250 1.245 . S
C252 O253 1.245 . S
C252 O254 1.289 . S
O253 C252 1.245 . S
O254 Mg247 2.141 . S
O254 C252 1.289 . S
O255 Mg247 2.048 . S
O255 C248 1.195 . S
O256 Mg247 2.048 . S
O256 C257 1.195 . S
C257 O256 1.195 . S
C257 O258 1.313 . S
O258 C257 1.313 . S
O259 Mg247 2.141 . S
O259 C250 1.289 . S
Mg260 O267 2.141 . S
Mg260 O268 2.048 . S
Mg260 O269 2.048 . S
Mg260 O272 2.141 . S
C261 O262 1.313 . S
C261 O268 1.195 . S
O262 C261 1.313 . S
C263 O264 1.245 . S
C263 O272 1.289 . S
O264 C263 1.245 . S
C265 O266 1.245 . S
C265 O267 1.289 . S
O266 C265 1.245 . S
O267 Mg260 2.141 . S
O267 C265 1.289 . S
O268 Mg260 2.048 . S
O268 C261 1.195 . S
O269 Mg260 2.048 . S
O269 C270 1.195 . S
C270 O269 1.195 . S
C270 O271 1.313 . S
O271 C270 1.313 . S
O272 Mg260 2.141 . S
O272 C263 1.289 . S
Mg273 O280 2.141 . S
Mg273 O281 2.048 . S
Mg273 O282 2.048 . S
Mg273 O285 2.141 . S
C274 O275 1.313 . S
C274 O281 1.195 . S
O275 C274 1.313 . S
C276 O277 1.245 . S
C276 O285 1.289 . S
O277 C276 1.245 . S
C278 O279 1.245 . S
C278 O280 1.289 . S
O279 C278 1.245 . S
O280 Mg273 2.141 . S
O280 C278 1.289 . S
O281 Mg273 2.048 . S
O281 C274 1.195 . S
O282 Mg273 2.048 . S
O282 C283 1.195 . S
C283 O282 1.195 . S
C283 O284 1.313 . S
O284 C283 1.313 . S
O285 Mg273 2.141 . S
O285 C276 1.289 . S
Mg286 O293 2.141 . S
Mg286 O294 2.048 . S
Mg286 O295 2.048 . S
Mg286 O298 2.141 . S
C287 O288 1.313 . S
C287 O294 1.195 . S
O288 C287 1.313 . S
C289 O290 1.245 . S
C289 O298 1.289 . S
O290 C289 1.245 . S
C291 O292 1.245 . S
C291 O293 1.289 . S
O292 C291 1.245 . S
O293 Mg286 2.141 . S
O293 C291 1.289 . S
O294 Mg286 2.048 . S
O294 C287 1.195 . S
O295 Mg286 2.048 . S
O295 C296 1.195 . S
C296 O295 1.195 . S
C296 O297 1.313 . S
O297 C296 1.313 . S
O298 Mg286 2.141 . S
O298 C289 1.289 . S
Mg299 O306 2.141 . S
Mg299 O307 2.048 . S
Mg299 O308 2.048 . S
Mg299 O311 2.141 . S
C300 O301 1.313 . S
C300 O307 1.195 . S
O301 C300 1.313 . S
C302 O303 1.245 . S
C302 O311 1.289 . S
O303 C302 1.245 . S
C304 O305 1.245 . S
C304 O306 1.289 . S
O305 C304 1.245 . S
O306 Mg299 2.141 . S
O306 C304 1.289 . S
O307 Mg299 2.048 . S
O307 C300 1.195 . S
O308 Mg299 2.048 . S
O308 C309 1.195 . S
C309 O308 1.195 . S
C309 O310 1.313 . S
O310 C309 1.313 . S
O311 Mg299 2.141 . S
O311 C302 1.289 . S
Mg312 O319 2.115 1_455 S
Mg312 O320 2.024 1_455 S
Mg312 O321 2.076 . S
Mg312 O324 2.165 . S
C313 O314 1.313 . S
C313 O320 1.195 . S
O314 C313 1.313 . S
C315 O316 1.245 . S
C315 O324 1.289 . S
O316 C315 1.245 . S
C317 O318 1.245 . S
C317 O319 1.289 . S
O318 C317 1.245 . S
O319 Mg312 2.115 1_655 S
O319 C317 1.289 . S
O320 Mg312 2.024 1_655 S
O320 C313 1.195 . S
O321 Mg312 2.076 . S
O321 C322 1.195 . S
C322 O321 1.195 . S
C322 O323 1.313 . S
O323 C322 1.313 . S
O324 Mg312 2.165 . S
O324 C315 1.289 . S
Mg325 O332 2.141 . S
Mg325 O333 2.048 . S
Mg325 O334 2.048 . S
Mg325 O337 2.141 . S
C326 O327 1.313 . S
C326 O333 1.195 . S
O327 C326 1.313 . S
C328 O329 1.245 . S
C328 O337 1.289 . S
O329 C328 1.245 . S
C330 O331 1.245 . S
C330 O332 1.289 . S
O331 C330 1.245 . S
O332 Mg325 2.141 . S
O332 C330 1.289 . S
O333 Mg325 2.048 . S
O333 C326 1.195 . S
O334 Mg325 2.048 . S
O334 C335 1.195 . S
C335 O334 1.195 . S
C335 O336 1.313 . S
O336 C335 1.313 . S
O337 Mg325 2.141 . S
O337 C328 1.289 . S
Mg338 O345 2.141 . S
Mg338 O346 2.048 . S
Mg338 O347 2.048 . S
Mg338 O350 2.141 . S
C339 O340 1.313 . S
C339 O346 1.195 . S
O340 C339 1.313 . S
C341 O342 1.245 . S
C341 O350 1.289 . S
O342 C341 1.245 . S
C343 O344 1.245 . S
C343 O345 1.289 . S
O344 C343 1.245 . S
O345 Mg338 2.141 . S
O345 C343 1.289 . S
O346 Mg338 2.048 . S
O346 C339 1.195 . S
O347 Mg338 2.048 . S
O347 C348 1.195 . S
C348 O347 1.195 . S
C348 O349 1.313 . S
O349 C348 1.313 . S
O350 Mg338 2.141 . S
O350 C341 1.289 . S
Mg351 O358 2.141 . S
Mg351 O359 2.048 . S
Mg351 O360 2.048 . S
Mg351 O363 2.141 . S
C352 O353 1.313 . S
C352 O359 1.195 . S
O353 C352 1.313 . S
C354 O355 1.245 . S
C354 O363 1.289 . S
O355 C354 1.245 . S
C356 O357 1.245 . S
C356 O358 1.289 . S
O357 C356 1.245 . S
O358 Mg351 2.141 . S
O358 C356 1.289 . S
O359 Mg351 2.048 . S
O359 C352 1.195 . S
O360 Mg351 2.048 . S
O360 C361 1.195 . S
C361 O360 1.195 . S
C361 O362 1.313 . S
O362 C361 1.313 . S
O363 Mg351 2.141 . S
O363 C354 1.289 . S
Mg364 O371 2.115 1_455 S
Mg364 O372 2.024 1_455 S
Mg364 O373 2.076 . S
Mg364 O376 2.165 . S
C365 O366 1.313 . S
C365 O372 1.195 . S
O366 C365 1.313 . S
C367 O368 1.245 . S
C367 O376 1.289 . S
O368 C367 1.245 . S
C369 O370 1.245 . S
C369 O371 1.289 . S
O370 C369 1.245 . S
O371 Mg364 2.115 1_655 S
O371 C369 1.289 . S
O372 Mg364 2.024 1_655 S
O372 C365 1.195 . S
O373 Mg364 2.076 . S
O373 C374 1.195 . S
C374 O373 1.195 . S
C374 O375 1.313 . S
O375 C374 1.313 . S
O376 Mg364 2.165 . S
O376 C367 1.289 . S
Mg377 O384 2.141 . S
Mg377 O385 2.048 . S
Mg377 O386 2.048 . S
Mg377 O389 2.141 . S
C378 O379 1.313 . S
C378 O385 1.195 . S
O379 C378 1.313 . S
C380 O381 1.245 . S
C380 O389 1.289 . S
O381 C380 1.245 . S
C382 O383 1.245 . S
C382 O384 1.289 . S
O383 C382 1.245 . S
O384 Mg377 2.141 . S
O384 C382 1.289 . S
O385 Mg377 2.048 . S
O385 C378 1.195 . S
O386 Mg377 2.048 . S
O386 C387 1.195 . S
C387 O386 1.195 . S
C387 O388 1.313 . S
O388 C387 1.313 . S
O389 Mg377 2.141 . S
O389 C380 1.289 . S
Mg390 O397 2.141 . S
Mg390 O398 2.048 . S
Mg390 O399 2.048 . S
Mg390 O402 2.141 . S
C391 O392 1.313 . S
C391 O398 1.195 . S
O392 C391 1.313 . S
C393 O394 1.245 . S
C393 O402 1.289 . S
O394 C393 1.245 . S
C395 O396 1.245 . S
C395 O397 1.289 . S
O396 C395 1.245 . S
O397 Mg390 2.141 . S
O397 C395 1.289 . S
O398 Mg390 2.048 . S
O398 C391 1.195 . S
O399 Mg390 2.048 . S
O399 C400 1.195 . S
C400 O399 1.195 . S
C400 O401 1.313 . S
O401 C400 1.313 . S
O402 Mg390 2.141 . S
O402 C393 1.289 . S
Mg403 O410 2.141 . S
Mg403 O411 2.048 . S
Mg403 O412 2.048 . S
Mg403 O415 2.141 . S
C404 O405 1.313 . S
C404 O411 1.195 . S
O405 C404 1.313 . S
C406 O407 1.245 . S
C406 O415 1.289 . S
O407 C406 1.245 . S
C408 O409 1.245 . S
C408 O410 1.289 . S
O409 C408 1.245 . S
O410 Mg403 2.141 . S
O410 C408 1.289 . S
O411 Mg403 2.048 . S
O411 C404 1.195 . S
O412 Mg403 2.048 . S
O412 C413 1.195 . S
C413 O412 1.195 . S
C413 O414 1.313 . S
O414 C413 1.313 . S
O415 Mg403 2.141 . S
O415 C406 1.289 . S
Mg416 O423 2.115 1_545 S
Mg416 O424 2.024 1_545 S
Mg416 O425 2.076 . S
Mg416 O428 2.165 . S
C417 O418 1.313 . S
C417 O424 1.195 . S
O418 C417 1.313 . S
C419 O420 1.245 . S
C419 O428 1.289 . S
O420 C419 1.245 . S
C421 O422 1.245 . S
C421 O423 1.289 . S
O422 C421 1.245 . S
O423 Mg416 2.115 1_565 S
O423 C421 1.289 . S
O424 Mg416 2.024 1_565 S
O424 C417 1.195 . S
O425 Mg416 2.076 . S
O425 C426 1.195 . S
C426 O425 1.195 . S
C426 O427 1.313 . S
O427 C426 1.313 . S
O428 Mg416 2.165 . S
O428 C419 1.289 . S
Mg429 O436 2.141 . S
Mg429 O437 2.048 . S
Mg429 O438 2.048 . S
Mg429 O441 2.141 . S
C430 O431 1.313 . S
C430 O437 1.195 . S
O431 C430 1.313 . S
C432 O433 1.245 . S
C432 O441 1.289 . S
O433 C432 1.245 . S
C434 O435 1.245 . S
C434 O436 1.289 . S
O435 C434 1.245 . S
O436 Mg429 2.141 . S
O436 C434 1.289 . S
O437 Mg429 2.048 . S
O437 C430 1.195 . S
O438 Mg429 2.048 . S
O438 C439 1.195 . S
C439 O438 1.195 . S
C439 O440 1.313 . S
O440 C439 1.313 . S
O441 Mg429 2.141 . S
O441 C432 1.289 . S
Mg442 O449 2.115 1_565 S
Mg442 O450 2.024 1_565 S
Mg442 O451 2.076 . S
Mg442 O454 2.165 . S
C443 O444 1.313 . S
C443 O450 1.195 . S
O444 C443 1.313 . S
C445 O446 1.245 . S
C445 O454 1.289 . S
O446 C445 1.245 . S
C447 O448 1.245 . S
C447 O449 1.289 . S
O448 C447 1.245 . S
O449 Mg442 2.115 1_545 S
O449 C447 1.289 . S
O450 Mg442 2.024 1_545 S
O450 C443 1.195 . S
O451 Mg442 2.076 . S
O451 C452 1.195 . S
C452 O451 1.195 . S
C452 O453 1.313 . S
O453 C452 1.313 . S
O454 Mg442 2.165 . S
O454 C445 1.289 . S
Mg455 O462 2.141 . S
Mg455 O463 2.048 . S
Mg455 O464 2.048 . S
Mg455 O467 2.141 . S
C456 O457 1.313 . S
C456 O463 1.195 . S
O457 C456 1.313 . S
C458 O459 1.245 . S
C458 O467 1.289 . S
O459 C458 1.245 . S
C460 O461 1.245 . S
C460 O462 1.289 . S
O461 C460 1.245 . S
O462 Mg455 2.141 . S
O462 C460 1.289 . S
O463 Mg455 2.048 . S
O463 C456 1.195 . S
O464 Mg455 2.048 . S
O464 C465 1.195 . S
C465 O464 1.195 . S
C465 O466 1.313 . S
O466 C465 1.313 . S
O467 Mg455 2.141 . S
O467 C458 1.289 . S
Mg468 O475 2.115 1_565 S
Mg468 O476 2.024 1_565 S
Mg468 O477 2.076 . S
Mg468 O480 2.165 . S
C469 O470 1.313 . S
C469 O476 1.195 . S
O470 C469 1.313 . S
C471 O472 1.245 . S
C471 O480 1.289 . S
O472 C471 1.245 . S
C473 O474 1.245 . S
C473 O475 1.289 . S
O474 C473 1.245 . S
O475 Mg468 2.115 1_545 S
O475 C473 1.289 . S
O476 Mg468 2.024 1_545 S
O476 C469 1.195 . S
O477 Mg468 2.076 . S
O477 C478 1.195 . S
C478 O477 1.195 . S
C478 O479 1.313 . S
O479 C478 1.313 . S
O480 Mg468 2.165 . S
O480 C471 1.289 . S
Mg481 O488 2.141 . S
Mg481 O489 2.048 . S
Mg481 O490 2.048 . S
Mg481 O493 2.141 . S
C482 O483 1.313 . S
C482 O489 1.195 . S
O483 C482 1.313 . S
C484 O485 1.245 . S
C484 O493 1.289 . S
O485 C484 1.245 . S
C486 O487 1.245 . S
C486 O488 1.289 . S
O487 C486 1.245 . S
O488 Mg481 2.141 . S
O488 C486 1.289 . S
O489 Mg481 2.048 . S
O489 C482 1.195 . S
O490 Mg481 2.048 . S
O490 C491 1.195 . S
C491 O490 1.195 . S
C491 O492 1.313 . S
O492 C491 1.313 . S
O493 Mg481 2.141 . S
O493 C484 1.289 . S
Mg494 O501 2.115 1_545 S
Mg494 O502 2.024 1_545 S
Mg494 O503 2.076 . S
Mg494 O506 2.165 . S
C495 O496 1.313 . S
C495 O502 1.195 . S
O496 C495 1.313 . S
C497 O498 1.245 . S
C497 O506 1.289 . S
O498 C497 1.245 . S
C499 O500 1.245 . S
C499 O501 1.289 . S
O500 C499 1.245 . S
O501 Mg494 2.115 1_565 S
O501 C499 1.289 . S
O502 Mg494 2.024 1_565 S
O502 C495 1.195 . S
O503 Mg494 2.076 . S
O503 C504 1.195 . S
C504 O503 1.195 . S
C504 O505 1.313 . S
O505 C504 1.313 . S
O506 Mg494 2.165 . S
O506 C497 1.289 . S
Mg507 O514 2.141 . S
Mg507 O515 2.048 . S
Mg507 O516 2.048 . S
Mg507 O519 2.141 . S
C508 O509 1.313 . S
C508 O515 1.195 . S
O509 C508 1.313 . S
C510 O511 1.245 . S
C510 O519 1.289 . S
O511 C510 1.245 . S
C512 O513 1.245 . S
C512 O514 1.289 . S
O513 C512 1.245 . S
O514 Mg507 2.141 . S
O514 C512 1.289 . S
O515 Mg507 2.048 . S
O515 C508 1.195 . S
O516 Mg507 2.048 . S
O516 C517 1.195 . S
C517 O516 1.195 . S
C517 O518 1.313 . S
O518 C517 1.313 . S
O519 Mg507 2.141 . S
O519 C510 1.289 . S
Mg520 O527 2.115 1_554 S
Mg520 O528 2.024 1_554 S
Mg520 O529 2.076 . S
Mg520 O532 2.165 . S
C521 O522 1.313 . S
C521 O528 1.195 . S
O522 C521 1.313 . S
C523 O524 1.245 . S
C523 O532 1.289 . S
O524 C523 1.245 . S
C525 O526 1.245 . S
C525 O527 1.289 . S
O526 C525 1.245 . S
O527 Mg520 2.115 1_556 S
O527 C525 1.289 . S
O528 Mg520 2.024 1_556 S
O528 C521 1.195 . S
O529 Mg520 2.076 . S
O529 C530 1.195 . S
C530 O529 1.195 . S
C530 O531 1.313 . S
O531 C530 1.313 . S
O532 Mg520 2.165 . S
O532 C523 1.289 . S
Mg533 O540 2.115 1_556 S
Mg533 O541 2.024 1_556 S
Mg533 O542 2.076 . S
Mg533 O545 2.165 . S
C534 O535 1.313 . S
C534 O541 1.195 . S
O535 C534 1.313 . S
C536 O537 1.245 . S
C536 O545 1.289 . S
O537 C536 1.245 . S
C538 O539 1.245 . S
C538 O540 1.289 . S
O539 C538 1.245 . S
O540 Mg533 2.115 1_554 S
O540 C538 1.289 . S
O541 Mg533 2.024 1_554 S
O541 C534 1.195 . S
O542 Mg533 2.076 . S
O542 C543 1.195 . S
C543 O542 1.195 . S
C543 O544 1.313 . S
O544 C543 1.313 . S
O545 Mg533 2.165 . S
O545 C536 1.289 . S
Mg546 O553 2.141 . S
Mg546 O554 2.048 . S
Mg546 O555 2.048 . S
Mg546 O558 2.141 . S
C547 O548 1.313 . S
C547 O554 1.195 . S
O548 C547 1.313 . S
C549 O550 1.245 . S
C549 O558 1.289 . S
O550 C549 1.245 . S
C551 O552 1.245 . S
C551 O553 1.289 . S
O552 C551 1.245 . S
O553 Mg546 2.141 . S
O553 C551 1.289 . S
O554 Mg546 2.048 . S
O554 C547 1.195 . S
O555 Mg546 2.048 . S
O555 C556 1.195 . S
C556 O555 1.195 . S
C556 O557 1.313 . S
O557 C556 1.313 . S
O558 Mg546 2.141 . S
O558 C549 1.289 . S
Mg559 O566 2.141 . S
Mg559 O567 2.048 . S
Mg559 O568 2.048 . S
Mg559 O571 2.141 . S
C560 O561 1.313 . S
C560 O567 1.195 . S
O561 C560 1.313 . S
C562 O563 1.245 . S
C562 O571 1.289 . S
O563 C562 1.245 . S
C564 O565 1.245 . S
C564 O566 1.289 . S
O565 C564 1.245 . S
O566 Mg559 2.141 . S
O566 C564 1.289 . S
O567 Mg559 2.048 . S
O567 C560 1.195 . S
O568 Mg559 2.048 . S
O568 C569 1.195 . S
C569 O568 1.195 . S
C569 O570 1.313 . S
O570 C569 1.313 . S
O571 Mg559 2.141 . S
O571 C562 1.289 . S
Mg572 O579 2.141 . S
Mg572 O580 2.048 . S
Mg572 O581 2.048 . S
Mg572 O584 2.141 . S
C573 O574 1.313 . S
C573 O580 1.195 . S
O574 C573 1.313 . S
C575 O576 1.245 . S
C575 O584 1.289 . S
O576 C575 1.245 . S
C577 O578 1.245 . S
C577 O579 1.289 . S
O578 C577 1.245 . S
O579 Mg572 2.141 . S
O579 C577 1.289 . S
O580 Mg572 2.048 . S
O580 C573 1.195 . S
O581 Mg572 2.048 . S
O581 C582 1.195 . S
C582 O581 1.195 . S
C582 O583 1.313 . S
O583 C582 1.313 . S
O584 Mg572 2.141 . S
O584 C575 1.289 . S
Mg585 O592 2.141 . S
Mg585 O593 2.048 . S
Mg585 O594 2.048 . S
Mg585 O597 2.141 . S
C586 O587 1.313 . S
C586 O593 1.195 . S
O587 C586 1.313 . S
C588 O589 1.245 . S
C588 O597 1.289 . S
O589 C588 1.245 . S
C590 O591 1.245 . S
C590 O592 1.289 . S
O591 C590 1.245 . S
O592 Mg585 2.141 . S
O592 C590 1.289 . S
O593 Mg585 2.048 . S
O593 C586 1.195 . S
O594 Mg585 2.048 . S
O594 C595 1.195 . S
C595 O594 1.195 . S
C595 O596 1.313 . S
O596 C595 1.313 . S
O597 Mg585 2.141 . S
O597 C588 1.289 . S
Mg598 O605 2.141 . S
Mg598 O606 2.048 . S
Mg598 O607 2.048 . S
Mg598 O610 2.141 . S
C599 O600 1.313 . S
C599 O606 1.195 . S
O600 C599 1.313 . S
C601 O602 1.245 . S
C601 O610 1.289 . S
O602 C601 1.245 . S
C603 O604 1.245 . S
C603 O605 1.289 . S
O604 C603 1.245 . S
O605 Mg598 2.141 . S
O605 C603 1.289 . S
O606 Mg598 2.048 . S
O606 C599 1.195 . S
O607 Mg598 2.048 . S
O607 C608 1.195 . S
C608 O607 1.195 . S
C608 O609 1.313 . S
O609 C608 1.313 . S
O610 Mg598 2.141 . S
O610 C601 1.289 . S
Mg611 O618 2.141 . S
Mg611 O619 2.048 . S
Mg611 O620 2.048 . S
Mg611 O623 2.141 . S
C612 O613 1.313 . S
C612 O619 1.195 . S
O613 C612 1.313 . S
C614 O615 1.245 . S
C614 O623 1.289 . S
O615 C614 1.245 . S
C616 O617 1.245 . S
C616 O618 1.289 . S
O617 C616 1.245 . S
O618 Mg611 2.141 . S
O618 C616 1.289 . S
O619 Mg611 2.048 . S
O619 C612 1.195 . S
O620 Mg611 2.048 . S
O620 C621 1.195 . S
C621 O620 1.195 . S
C621 O622 1.313 . S
O622 C621 1.313 . S
O623 Mg611 2.141 . S
O623 C614 1.289 . S
Mg624 O631 2.141 . S
Mg624 O632 2.048 . S
Mg624 O633 2.048 . S
Mg624 O636 2.141 . S
C625 O626 1.313 . S
C625 O632 1.195 . S
O626 C625 1.313 . S
C627 O628 1.245 . S
C627 O636 1.289 . S
O628 C627 1.245 . S
C629 O630 1.245 . S
C629 O631 1.289 . S
O630 C629 1.245 . S
O631 Mg624 2.141 . S
O631 C629 1.289 . S
O632 Mg624 2.048 . S
O632 C625 1.195 . S
O633 Mg624 2.048 . S
O633 C634 1.195 . S
C634 O633 1.195 . S
C634 O635 1.313 . S
O635 C634 1.313 . S
O636 Mg624 2.141 . S
O636 C627 1.289 . S
Mg637 O644 2.141 . S
Mg637 O645 2.048 . S
Mg637 O646 2.048 . S
Mg637 O649 2.141 . S
C638 O639 1.313 . S
C638 O645 1.195 . S
O639 C638 1.313 . S
C640 O641 1.245 . S
C640 O649 1.289 . S
O641 C640 1.245 . S
C642 O643 1.245 . S
C642 O644 1.289 . S
O643 C642 1.245 . S
O644 Mg637 2.141 . S
O644 C642 1.289 . S
O645 Mg637 2.048 . S
O645 C638 1.195 . S
O646 Mg637 2.048 . S
O646 C647 1.195 . S
C647 O646 1.195 . S
C647 O648 1.313 . S
O648 C647 1.313 . S
O649 Mg637 2.141 . S
O649 C640 1.289 . S
Mg650 O657 2.141 . S
Mg650 O658 2.048 . S
Mg650 O659 2.048 1_655 S
Mg650 O662 2.141 1_655 S
C651 O652 1.313 . S
C651 O658 1.195 . S
O652 C651 1.313 . S
C653 O654 1.245 . S
C653 O662 1.289 . S
O654 C653 1.245 . S
C655 O656 1.245 . S
C655 O657 1.289 . S
O656 C655 1.245 . S
O657 Mg650 2.141 . S
O657 C655 1.289 . S
O658 Mg650 2.048 . S
O658 C651 1.195 . S
O659 Mg650 2.048 1_455 S
O659 C660 1.195 . S
C660 O659 1.195 . S
C660 O661 1.313 . S
O661 C660 1.313 . S
O662 Mg650 2.141 1_455 S
O662 C653 1.289 . S
Mg663 O670 2.141 . S
Mg663 O671 2.048 . S
Mg663 O672 2.048 . S
Mg663 O675 2.141 . S
C664 O665 1.313 . S
C664 O671 1.195 . S
O665 C664 1.313 . S
C666 O667 1.245 . S
C666 O675 1.289 . S
O667 C666 1.245 . S
C668 O669 1.245 . S
C668 O670 1.289 . S
O669 C668 1.245 . S
O670 Mg663 2.141 . S
O670 C668 1.289 . S
O671 Mg663 2.048 . S
O671 C664 1.195 . S
O672 Mg663 2.048 . S
O672 C673 1.195 . S
C673 O672 1.195 . S
C673 O674 1.313 . S
O674 C673 1.313 . S
O675 Mg663 2.141 . S
O675 C666 1.289 . S
Mg676 O683 2.141 . S
Mg676 O684 2.048 . S
Mg676 O685 2.048 . S
Mg676 O688 2.141 . S
C677 O678 1.313 . S
C677 O684 1.195 . S
O678 C677 1.313 . S
C679 O680 1.245 . S
C679 O688 1.289 . S
O680 C679 1.245 . S
C681 O682 1.245 . S
C681 O683 1.289 . S
O682 C681 1.245 . S
O683 Mg676 2.141 . S
O683 C681 1.289 . S
O684 Mg676 2.048 . S
O684 C677 1.195 . S
O685 Mg676 2.048 . S
O685 C686 1.195 . S
C686 O685 1.195 . S
C686 O687 1.313 . S
O687 C686 1.313 . S
O688 Mg676 2.141 . S
O688 C679 1.289 . S
Mg689 O696 2.141 . S
Mg689 O697 2.048 . S
Mg689 O698 2.048 . S
Mg689 O701 2.141 . S
C690 O691 1.313 . S
C690 O697 1.195 . S
O691 C690 1.313 . S
C692 O693 1.245 . S
C692 O701 1.289 . S
O693 C692 1.245 . S
C694 O695 1.245 . S
C694 O696 1.289 . S
O695 C694 1.245 . S
O696 Mg689 2.141 . S
O696 C694 1.289 . S
O697 Mg689 2.048 . S
O697 C690 1.195 . S
O698 Mg689 2.048 . S
O698 C699 1.195 . S
C699 O698 1.195 . S
C699 O700 1.313 . S
O700 C699 1.313 . S
O701 Mg689 2.141 . S
O701 C692 1.289 . S
Mg702 O709 2.141 . S
Mg702 O710 2.048 . S
Mg702 O711 2.048 1_655 S
Mg702 O714 2.141 1_655 S
C703 O704 1.313 . S
C703 O710 1.195 . S
O704 C703 1.313 . S
C705 O706 1.245 . S
C705 O714 1.289 . S
O706 C705 1.245 . S
C707 O708 1.245 . S
C707 O709 1.289 . S
O708 C707 1.245 . S
O709 Mg702 2.141 . S
O709 C707 1.289 . S
O710 Mg702 2.048 . S
O710 C703 1.195 . S
O711 Mg702 2.048 1_455 S
O711 C712 1.195 . S
C712 O711 1.195 . S
C712 O713 1.313 . S
O713 C712 1.313 . S
O714 Mg702 2.141 1_455 S
O714 C705 1.289 . S
Mg715 O722 2.141 . S
Mg715 O723 2.048 . S
Mg715 O724 2.048 . S
Mg715 O727 2.141 . S
C716 O717 1.313 . S
C716 O723 1.195 . S
O717 C716 1.313 . S
C718 O719 1.245 . S
C718 O727 1.289 . S
O719 C718 1.245 . S
C720 O721 1.245 . S
C720 O722 1.289 . S
O721 C720 1.245 . S
O722 Mg715 2.141 . S
O722 C720 1.289 . S
O723 Mg715 2.048 . S
O723 C716 1.195 . S
O724 Mg715 2.048 . S
O724 C725 1.195 . S
C725 O724 1.195 . S
C725 O726 1.313 . S
O726 C725 1.313 . S
O727 Mg715 2.141 . S
O727 C718 1.289 . S
Mg728 O735 2.141 . S
Mg728 O736 2.048 . S
Mg728 O737 2.048 . S
Mg728 O740 2.141 . S
C729 O730 1.313 . S
C729 O736 1.195 . S
O730 C729 1.313 . S
C731 O732 1.245 . S
C731 O740 1.289 . S
O732 C731 1.245 . S
C733 O734 1.245 . S
C733 O735 1.289 . S
O734 C733 1.245 . S
O735 Mg728 2.141 . S
O735 C733 1.289 . S
O736 Mg728 2.048 . S
O736 C729 1.195 . S
O737 Mg728 2.048 . S
O737 C738 1.195 . S
C738 O737 1.195 . S
C738 O739 1.313 . S
O739 C738 1.313 . S
O740 Mg728 2.141 . S
O740 C731 1.289 . S
Mg741 O748 2.141 . S
Mg741 O749 2.048 . S
Mg741 O750 2.048 . S
Mg741 O753 2.141 . S
C742 O743 1.313 . S
C742 O749 1.195 . S
O743 C742 1.313 . S
C744 O745 1.245 . S
C744 O753 1.289 . S
O745 C744 1.245 . S
C746 O747 1.245 . S
C746 O748 1.289 . S
O747 C746 1.245 . S
O748 Mg741 2.141 . S
O748 C746 1.289 . S
O749 Mg741 2.048 . S
O749 C742 1.195 . S
O750 Mg741 2.048 . S
O750 C751 1.195 . S
C751 O750 1.195 . S
C751 O752 1.313 . S
O752 C751 1.313 . S
O753 Mg741 2.141 . S
O753 C744 1.289 . S
Mg754 O761 2.141 . S
Mg754 O762 2.048 . S
Mg754 O763 2.048 . S
Mg754 O766 2.141 . S
C755 O756 1.313 . S
C755 O762 1.195 . S
O756 C755 1.313 . S
C757 O758 1.245 . S
C757 O766 1.289 . S
O758 C757 1.245 . S
C759 O760 1.245 . S
C759 O761 1.289 . S
O760 C759 1.245 . S
O761 Mg754 2.141 . S
O761 C759 1.289 . S
O762 Mg754 2.048 . S
O762 C755 1.195 . S
O763 Mg754 2.048 . S
O763 C764 1.195 . S
C764 O763 1.195 . S
C764 O765 1.313 . S
O765 C764 1.313 . S
O766 Mg754 2.141 . S
O766 C757 1.289 . S
Mg767 O774 2.141 . S
Mg767 O775 2.048 . S
Mg767 O776 2.048 . S
Mg767 O779 2.141 . S
C768 O769 1.313 . S
C768 O775 1.195 . S
O769 C768 1.313 . S
C770 O771 1.245 . S
C770 O779 1.289 . S
O771 C770 1.245 . S
C772 O773 1.245 . S
C772 O774 1.289 . S
O773 C772 1.245 . S
O774 Mg767 2.141 . S
O774 C772 1.289 . S
O775 Mg767 2.048 . S
O775 C768 1.195 . S
O776 Mg767 2.048 . S
O776 C777 1.195 . S
C777 O776 1.195 . S
C777 O778 1.313 . S
O778 C777 1.313 . S
O779 Mg767 2.141 . S
O779 C770 1.289 . S
Mg780 O787 2.141 . S
Mg780 O788 2.048 . S
Mg780 O789 2.048 . S
Mg780 O792 2.141 . S
C781 O782 1.313 . S
C781 O788 1.195 . S
O782 C781 1.313 . S
C783 O784 1.245 . S
C783 O792 1.289 . S
O784 C783 1.245 . S
C785 O786 1.245 . S
C785 O787 1.289 . S
O786 C785 1.245 . S
O787 Mg780 2.141 . S
O787 C785 1.289 . S
O788 Mg780 2.048 . S
O788 C781 1.195 . S
O789 Mg780 2.048 . S
O789 C790 1.195 . S
C790 O789 1.195 . S
C790 O791 1.313 . S
O791 C790 1.313 . S
O792 Mg780 2.141 . S
O792 C783 1.289 . S
Mg793 O800 2.141 . S
Mg793 O801 2.048 . S
Mg793 O802 2.048 . S
Mg793 O805 2.141 . S
C794 O795 1.313 . S
C794 O801 1.195 . S
O795 C794 1.313 . S
C796 O797 1.245 . S
C796 O805 1.289 . S
O797 C796 1.245 . S
C798 O799 1.245 . S
C798 O800 1.289 . S
O799 C798 1.245 . S
O800 Mg793 2.141 . S
O800 C798 1.289 . S
O801 Mg793 2.048 . S
O801 C794 1.195 . S
O802 Mg793 2.048 . S
O802 C803 1.195 . S
C803 O802 1.195 . S
C803 O804 1.313 . S
O804 C803 1.313 . S
O805 Mg793 2.141 . S
O805 C796 1.289 . S
Mg806 O813 2.141 . S
Mg806 O814 2.048 . S
Mg806 O815 2.048 . S
Mg806 O818 2.141 . S
C807 O808 1.313 . S
C807 O814 1.195 . S
O808 C807 1.313 . S
C809 O810 1.245 . S
C809 O818 1.289 . S
O810 C809 1.245 . S
C811 O812 1.245 . S
C811 O813 1.289 . S
O812 C811 1.245 . S
O813 Mg806 2.141 . S
O813 C811 1.289 . S
O814 Mg806 2.048 . S
O814 C807 1.195 . S
O815 Mg806 2.048 . S
O815 C816 1.195 . S
C816 O815 1.195 . S
C816 O817 1.313 . S
O817 C816 1.313 . S
O818 Mg806 2.141 . S
O818 C809 1.289 . S
Mg819 O826 2.141 . S
Mg819 O827 2.048 . S
Mg819 O828 2.048 . S
Mg819 O831 2.141 . S
C820 O821 1.313 . S
C820 O827 1.195 . S
O821 C820 1.313 . S
C822 O823 1.245 . S
C822 O831 1.289 . S
O823 C822 1.245 . S
C824 O825 1.245 . S
C824 O826 1.289 . S
O825 C824 1.245 . S
O826 Mg819 2.141 . S
O826 C824 1.289 . S
O827 Mg819 2.048 . S
O827 C820 1.195 . S
O828 Mg819 2.048 . S
O828 C829 1.195 . S
C829 O828 1.195 . S
C829 O830 1.313 . S
O830 C829 1.313 . S
O831 Mg819 2.141 . S
O831 C822 1.289 . S
Mg832 O839 2.141 . S
Mg832 O840 2.048 . S
Mg832 O841 2.048 . S
Mg832 O844 2.141 . S
C833 O834 1.313 . S
C833 O840 1.195 . S
O834 C833 1.313 . S
C835 O836 1.245 . S
C835 O844 1.289 . S
O836 C835 1.245 . S
C837 O838 1.245 . S
C837 O839 1.289 . S
O838 C837 1.245 . S
O839 Mg832 2.141 . S
O839 C837 1.289 . S
O840 Mg832 2.048 . S
O840 C833 1.195 . S
O841 Mg832 2.048 . S
O841 C842 1.195 . S
C842 O841 1.195 . S
C842 O843 1.313 . S
O843 C842 1.313 . S
O844 Mg832 2.141 . S
O844 C835 1.289 . S
Mg845 O852 2.141 . S
Mg845 O853 2.048 . S
Mg845 O854 2.048 . S
Mg845 O857 2.141 . S
C846 O847 1.313 . S
C846 O853 1.195 . S
O847 C846 1.313 . S
C848 O849 1.245 . S
C848 O857 1.289 . S
O849 C848 1.245 . S
C850 O851 1.245 . S
C850 O852 1.289 . S
O851 C850 1.245 . S
O852 Mg845 2.141 . S
O852 C850 1.289 . S
O853 Mg845 2.048 . S
O853 C846 1.195 . S
O854 Mg845 2.048 . S
O854 C855 1.195 . S
C855 O854 1.195 . S
C855 O856 1.313 . S
O856 C855 1.313 . S
O857 Mg845 2.141 . S
O857 C848 1.289 . S
Mg858 O865 2.141 . S
Mg858 O866 2.048 . S
Mg858 O867 2.048 . S
Mg858 O870 2.141 . S
C859 O860 1.313 . S
C859 O866 1.195 . S
O860 C859 1.313 . S
C861 O862 1.245 . S
C861 O870 1.289 . S
O862 C861 1.245 . S
C863 O864 1.245 . S
C863 O865 1.289 . S
O864 C863 1.245 . S
O865 Mg858 2.141 . S
O865 C863 1.289 . S
O866 Mg858 2.048 . S
O866 C859 1.195 . S
O867 Mg858 2.048 . S
O867 C868 1.195 . S
C868 O867 1.195 . S
C868 O869 1.313 . S
O869 C868 1.313 . S
O870 Mg858 2.141 . S
O870 C861 1.289 . S
Mg871 O878 2.141 . S
Mg871 O879 2.048 . S
Mg871 O880 2.048 1_556 S
Mg871 O883 2.141 1_556 S
C872 O873 1.313 . S
C872 O879 1.195 . S
O873 C872 1.313 . S
C874 O875 1.245 . S
C874 O883 1.289 . S
O875 C874 1.245 . S
C876 O877 1.245 . S
C876 O878 1.289 . S
O877 C876 1.245 . S
O878 Mg871 2.141 . S
O878 C876 1.289 . S
O879 Mg871 2.048 . S
O879 C872 1.195 . S
O880 Mg871 2.048 1_554 S
O880 C881 1.195 . S
C881 O880 1.195 . S
C881 O882 1.313 . S
O882 C881 1.313 . S
O883 Mg871 2.141 1_554 S
O883 C874 1.289 . S
Mg884 O891 2.141 . S
Mg884 O892 2.048 . S
Mg884 O893 2.048 . S
Mg884 O896 2.141 . S
C885 O886 1.313 . S
C885 O892 1.195 . S
O886 C885 1.313 . S
C887 O888 1.245 . S
C887 O896 1.289 . S
O888 C887 1.245 . S
C889 O890 1.245 . S
C889 O891 1.289 . S
O890 C889 1.245 . S
O891 Mg884 2.141 . S
O891 C889 1.289 . S
O892 Mg884 2.048 . S
O892 C885 1.195 . S
O893 Mg884 2.048 . S
O893 C894 1.195 . S
C894 O893 1.195 . S
C894 O895 1.313 . S
O895 C894 1.313 . S
O896 Mg884 2.141 . S
O896 C887 1.289 . S
Mg897 O904 2.141 . S
Mg897 O905 2.048 . S
Mg897 O906 2.048 1_554 S
Mg897 O909 2.141 1_554 S
C898 O899 1.313 . S
C898 O905 1.195 . S
O899 C898 1.313 . S
C900 O901 1.245 . S
C900 O909 1.289 . S
O901 C900 1.245 . S
C902 O903 1.245 . S
C902 O904 1.289 . S
O903 C902 1.245 . S
O904 Mg897 2.141 . S
O904 C902 1.289 . S
O905 Mg897 2.048 . S
O905 C898 1.195 . S
O906 Mg897 2.048 1_556 S
O906 C907 1.195 . S
C907 O906 1.195 . S
C907 O908 1.313 . S
O908 C907 1.313 . S
O909 Mg897 2.141 1_556 S
O909 C900 1.289 . S
Mg910 O917 2.141 . S
Mg910 O918 2.048 . S
Mg910 O919 2.048 . S
Mg910 O922 2.141 . S
C911 O912 1.313 . S
C911 O918 1.195 . S
O912 C911 1.313 . S
C913 O914 1.245 . S
C913 O922 1.289 . S
O914 C913 1.245 . S
C915 O916 1.245 . S
C915 O917 1.289 . S
O916 C915 1.245 . S
O917 Mg910 2.141 . S
O917 C915 1.289 . S
O918 Mg910 2.048 . S
O918 C911 1.195 . S
O919 Mg910 2.048 . S
O919 C920 1.195 . S
C920 O919 1.195 . S
C920 O921 1.313 . S
O921 C920 1.313 . S
O922 Mg910 2.141 . S
O922 C913 1.289 . S
Mg923 O930 2.141 . S
Mg923 O931 2.048 . S
Mg923 O932 2.048 . S
Mg923 O935 2.141 . S
C924 O925 1.313 . S
C924 O931 1.195 . S
O925 C924 1.313 . S
C926 O927 1.245 . S
C926 O935 1.289 . S
O927 C926 1.245 . S
C928 O929 1.245 . S
C928 O930 1.289 . S
O929 C928 1.245 . S
O930 Mg923 2.141 . S
O930 C928 1.289 . S
O931 Mg923 2.048 . S
O931 C924 1.195 . S
O932 Mg923 2.048 . S
O932 C933 1.195 . S
C933 O932 1.195 . S
C933 O934 1.313 . S
O934 C933 1.313 . S
O935 Mg923 2.141 . S
O935 C926 1.289 . S
Mg936 O943 2.141 . S
Mg936 O944 2.048 . S
Mg936 O945 2.048 . S
Mg936 O948 2.141 . S
C937 O938 1.313 . S
C937 O944 1.195 . S
O938 C937 1.313 . S
C939 O940 1.245 . S
C939 O948 1.289 . S
O940 C939 1.245 . S
C941 O942 1.245 . S
C941 O943 1.289 . S
O942 C941 1.245 . S
O943 Mg936 2.141 . S
O943 C941 1.289 . S
O944 Mg936 2.048 . S
O944 C937 1.195 . S
O945 Mg936 2.048 . S
O945 C946 1.195 . S
C946 O945 1.195 . S
C946 O947 1.313 . S
O947 C946 1.313 . S
O948 Mg936 2.141 . S
O948 C939 1.289 . S
Mg949 O956 2.141 . S
Mg949 O957 2.048 . S
Mg949 O958 2.048 . S
Mg949 O961 2.141 . S
C950 O951 1.313 . S
C950 O957 1.195 . S
O951 C950 1.313 . S
C952 O953 1.245 . S
C952 O961 1.289 . S
O953 C952 1.245 . S
C954 O955 1.245 . S
C954 O956 1.289 . S
O955 C954 1.245 . S
O956 Mg949 2.141 . S
O956 C954 1.289 . S
O957 Mg949 2.048 . S
O957 C950 1.195 . S
O958 Mg949 2.048 . S
O958 C959 1.195 . S
C959 O958 1.195 . S
C959 O960 1.313 . S
O960 C959 1.313 . S
O961 Mg949 2.141 . S
O961 C952 1.289 . S
Mg962 O969 2.115 1_655 S
Mg962 O970 2.024 1_655 S
Mg962 O971 2.076 . S
Mg962 O974 2.165 . S
C963 O964 1.313 . S
C963 O970 1.195 . S
O964 C963 1.313 . S
C965 O966 1.245 . S
C965 O974 1.289 . S
O966 C965 1.245 . S
C967 O968 1.245 . S
C967 O969 1.289 . S
O968 C967 1.245 . S
O969 Mg962 2.115 1_455 S
O969 C967 1.289 . S
O970 Mg962 2.024 1_455 S
O970 C963 1.195 . S
O971 Mg962 2.076 . S
O971 C972 1.195 . S
C972 O971 1.195 . S
C972 O973 1.313 . S
O973 C972 1.313 . S
O974 Mg962 2.165 . S
O974 C965 1.289 . S
Mg975 O982 2.141 . S
Mg975 O983 2.048 . S
Mg975 O984 2.048 . S
Mg975 O987 2.141 . S
C976 O977 1.313 . S
C976 O983 1.195 . S
O977 C976 1.313 . S
C978 O979 1.245 . S
C978 O987 1.289 . S
O979 C978 1.245 . S
C980 O981 1.245 . S
C980 O982 1.289 . S
O981 C980 1.245 . S
O982 Mg975 2.141 . S
O982 C980 1.289 . S
O983 Mg975 2.048 . S
O983 C976 1.195 . S
O984 Mg975 2.048 . S
O984 C985 1.195 . S
C985 O984 1.195 . S
C985 O986 1.313 . S
O986 C985 1.313 . S
O987 Mg975 2.141 . S
O987 C978 1.289 . S
Mg988 O995 2.141 . S
Mg988 O996 2.048 . S
Mg988 O997 2.048 . S
Mg988 O1000 2.141 . S
C989 O990 1.313 . S
C989 O996 1.195 . S
O990 C989 1.313 . S
C991 O992 1.245 . S
C991 O1000 1.289 . S
O992 C991 1.245 . S
C993 O994 1.245 . S
C993 O995 1.289 . S
O994 C993 1.245 . S
O995 Mg988 2.141 . S
O995 C993 1.289 . S
O996 Mg988 2.048 . S
O996 C989 1.195 . S
O997 Mg988 2.048 . S
O997 C998 1.195 . S
C998 O997 1.195 . S
C998 O999 1.313 . S
O999 C998 1.313 . S
O1000 Mg988 2.141 . S
O1000 C991 1.289 . S
Mg1001 O1008 2.141 . S
Mg1001 O1009 2.048 . S
Mg1001 O1010 2.048 . S
Mg1001 O1013 2.141 . S
C1002 O1003 1.313 . S
C1002 O1009 1.195 . S
O1003 C1002 1.313 . S
C1004 O1005 1.245 . S
C1004 O1013 1.289 . S
O1005 C1004 1.245 . S
C1006 O1007 1.245 . S
C1006 O1008 1.289 . S
O1007 C1006 1.245 . S
O1008 Mg1001 2.141 . S
O1008 C1006 1.289 . S
O1009 Mg1001 2.048 . S
O1009 C1002 1.195 . S
O1010 Mg1001 2.048 . S
O1010 C1011 1.195 . S
C1011 O1010 1.195 . S
C1011 O1012 1.313 . S
O1012 C1011 1.313 . S
O1013 Mg1001 2.141 . S
O1013 C1004 1.289 . S
Mg1014 O1021 2.115 1_655 S
Mg1014 O1022 2.024 1_655 S
Mg1014 O1023 2.076 . S
Mg1014 O1026 2.165 . S
C1015 O1016 1.313 . S
C1015 O1022 1.195 . S
O1016 C1015 1.313 . S
C1017 O1018 1.245 . S
C1017 O1026 1.289 . S
O1018 C1017 1.245 . S
C1019 O1020 1.245 . S
C1019 O1021 1.289 . S
O1020 C1019 1.245 . S
O1021 Mg1014 2.115 1_455 S
O1021 C1019 1.289 . S
O1022 Mg1014 2.024 1_455 S
O1022 C1015 1.195 . S
O1023 Mg1014 2.076 . S
O1023 C1024 1.195 . S
C1024 O1023 1.195 . S
C1024 O1025 1.313 . S
O1025 C1024 1.313 . S
O1026 Mg1014 2.165 . S
O1026 C1017 1.289 . S
Mg1027 O1034 2.141 . S
Mg1027 O1035 2.048 . S
Mg1027 O1036 2.048 . S
Mg1027 O1039 2.141 . S
C1028 O1029 1.313 . S
C1028 O1035 1.195 . S
O1029 C1028 1.313 . S
C1030 O1031 1.245 . S
C1030 O1039 1.289 . S
O1031 C1030 1.245 . S
C1032 O1033 1.245 . S
C1032 O1034 1.289 . S
O1033 C1032 1.245 . S
O1034 Mg1027 2.141 . S
O1034 C1032 1.289 . S
O1035 Mg1027 2.048 . S
O1035 C1028 1.195 . S
O1036 Mg1027 2.048 . S
O1036 C1037 1.195 . S
C1037 O1036 1.195 . S
C1037 O1038 1.313 . S
O1038 C1037 1.313 . S
O1039 Mg1027 2.141 . S
O1039 C1030 1.289 . S
Mg1040 O1047 2.141 . S
Mg1040 O1048 2.048 . S
Mg1040 O1049 2.048 . S
Mg1040 O1052 2.141 . S
C1041 O1042 1.313 . S
C1041 O1048 1.195 . S
O1042 C1041 1.313 . S
C1043 O1044 1.245 . S
C1043 O1052 1.289 . S
O1044 C1043 1.245 . S
C1045 O1046 1.245 . S
C1045 O1047 1.289 . S
O1046 C1045 1.245 . S
O1047 Mg1040 2.141 . S
O1047 C1045 1.289 . S
O1048 Mg1040 2.048 . S
O1048 C1041 1.195 . S
O1049 Mg1040 2.048 . S
O1049 C1050 1.195 . S
C1050 O1049 1.195 . S
C1050 O1051 1.313 . S
O1051 C1050 1.313 . S
O1052 Mg1040 2.141 . S
O1052 C1043 1.289 . S
Mg1053 O1060 2.141 . S
Mg1053 O1061 2.048 . S
Mg1053 O1062 2.048 . S
Mg1053 O1065 2.141 . S
C1054 O1055 1.313 . S
C1054 O1061 1.195 . S
O1055 C1054 1.313 . S
C1056 O1057 1.245 . S
C1056 O1065 1.289 . S
O1057 C1056 1.245 . S
C1058 O1059 1.245 . S
C1058 O1060 1.289 . S
O1059 C1058 1.245 . S
O1060 Mg1053 2.141 . S
O1060 C1058 1.289 . S
O1061 Mg1053 2.048 . S
O1061 C1054 1.195 . S
O1062 Mg1053 2.048 . S
O1062 C1063 1.195 . S
C1063 O1062 1.195 . S
C1063 O1064 1.313 . S
O1064 C1063 1.313 . S
O1065 Mg1053 2.141 . S
O1065 C1056 1.289 . S
Mg1066 O1073 2.141 . S
Mg1066 O1074 2.048 . S
Mg1066 O1075 2.048 . S
Mg1066 O1078 2.141 . S
C1067 O1068 1.313 . S
C1067 O1074 1.195 . S
O1068 C1067 1.313 . S
C1069 O1070 1.245 . S
C1069 O1078 1.289 . S
O1070 C1069 1.245 . S
C1071 O1072 1.245 . S
C1071 O1073 1.289 . S
O1072 C1071 1.245 . S
O1073 Mg1066 2.141 . S
O1073 C1071 1.289 . S
O1074 Mg1066 2.048 . S
O1074 C1067 1.195 . S
O1075 Mg1066 2.048 . S
O1075 C1076 1.195 . S
C1076 O1075 1.195 . S
C1076 O1077 1.313 . S
O1077 C1076 1.313 . S
O1078 Mg1066 2.141 . S
O1078 C1069 1.289 . S
Mg1079 O1086 2.141 . S
Mg1079 O1087 2.048 . S
Mg1079 O1088 2.048 . S
Mg1079 O1091 2.141 . S
C1080 O1081 1.313 . S
C1080 O1087 1.195 . S
O1081 C1080 1.313 . S
C1082 O1083 1.245 . S
C1082 O1091 1.289 . S
O1083 C1082 1.245 . S
C1084 O1085 1.245 . S
C1084 O1086 1.289 . S
O1085 C1084 1.245 . S
O1086 Mg1079 2.141 . S
O1086 C1084 1.289 . S
O1087 Mg1079 2.048 . S
O1087 C1080 1.195 . S
O1088 Mg1079 2.048 . S
O1088 C1089 1.195 . S
C1089 O1088 1.195 . S
C1089 O1090 1.313 . S
O1090 C1089 1.313 . S
O1091 Mg1079 2.141 . S
O1091 C1082 1.289 . S
Mg1092 O1099 2.141 . S
Mg1092 O1100 2.048 . S
Mg1092 O1101 2.048 . S
Mg1092 O1104 2.141 . S
C1093 O1094 1.313 . S
C1093 O1100 1.195 . S
O1094 C1093 1.313 . S
C1095 O1096 1.245 . S
C1095 O1104 1.289 . S
O1096 C1095 1.245 . S
C1097 O1098 1.245 . S
C1097 O1099 1.289 . S
O1098 C1097 1.245 . S
O1099 Mg1092 2.141 . S
O1099 C1097 1.289 . S
O1100 Mg1092 2.048 . S
O1100 C1093 1.195 . S
O1101 Mg1092 2.048 . S
O1101 C1102 1.195 . S
C1102 O1101 1.195 . S
C1102 O1103 1.313 . S
O1103 C1102 1.313 . S
O1104 Mg1092 2.141 . S
O1104 C1095 1.289 . S
Mg1105 O1112 2.141 . S
Mg1105 O1113 2.048 . S
Mg1105 O1114 2.048 . S
Mg1105 O1117 2.141 . S
C1106 O1107 1.313 . S
C1106 O1113 1.195 . S
O1107 C1106 1.313 . S
C1108 O1109 1.245 . S
C1108 O1117 1.289 . S
O1109 C1108 1.245 . S
C1110 O1111 1.245 . S
C1110 O1112 1.289 . S
O1111 C1110 1.245 . S
O1112 Mg1105 2.141 . S
O1112 C1110 1.289 . S
O1113 Mg1105 2.048 . S
O1113 C1106 1.195 . S
O1114 Mg1105 2.048 . S
O1114 C1115 1.195 . S
C1115 O1114 1.195 . S
C1115 O1116 1.313 . S
O1116 C1115 1.313 . S
O1117 Mg1105 2.141 . S
O1117 C1108 1.289 . S
Mg1118 O1125 2.141 . S
Mg1118 O1126 2.048 . S
Mg1118 O1127 2.048 . S
Mg1118 O1130 2.141 . S
C1119 O1120 1.313 . S
C1119 O1126 1.195 . S
O1120 C1119 1.313 . S
C1121 O1122 1.245 . S
C1121 O1130 1.289 . S
O1122 C1121 1.245 . S
C1123 O1124 1.245 . S
C1123 O1125 1.289 . S
O1124 C1123 1.245 . S
O1125 Mg1118 2.141 . S
O1125 C1123 1.289 . S
O1126 Mg1118 2.048 . S
O1126 C1119 1.195 . S
O1127 Mg1118 2.048 . S
O1127 C1128 1.195 . S
C1128 O1127 1.195 . S
C1128 O1129 1.313 . S
O1129 C1128 1.313 . S
O1130 Mg1118 2.141 . S
O1130 C1121 1.289 . S
Mg1131 O1138 2.141 . S
Mg1131 O1139 2.048 . S
Mg1131 O1140 2.048 . S
Mg1131 O1143 2.141 . S
C1132 O1133 1.313 . S
C1132 O1139 1.195 . S
O1133 C1132 1.313 . S
C1134 O1135 1.245 . S
C1134 O1143 1.289 . S
O1135 C1134 1.245 . S
C1136 O1137 1.245 . S
C1136 O1138 1.289 . S
O1137 C1136 1.245 . S
O1138 Mg1131 2.141 . S
O1138 C1136 1.289 . S
O1139 Mg1131 2.048 . S
O1139 C1132 1.195 . S
O1140 Mg1131 2.048 . S
O1140 C1141 1.195 . S
C1141 O1140 1.195 . S
C1141 O1142 1.313 . S
O1142 C1141 1.313 . S
O1143 Mg1131 2.141 . S
O1143 C1134 1.289 . S
Mg1144 O1151 2.141 . S
Mg1144 O1152 2.048 . S
Mg1144 O1153 2.048 . S
Mg1144 O1156 2.141 . S
C1145 O1146 1.313 . S
C1145 O1152 1.195 . S
O1146 C1145 1.313 . S
C1147 O1148 1.245 . S
C1147 O1156 1.289 . S
O1148 C1147 1.245 . S
C1149 O1150 1.245 . S
C1149 O1151 1.289 . S
O1150 C1149 1.245 . S
O1151 Mg1144 2.141 . S
O1151 C1149 1.289 . S
O1152 Mg1144 2.048 . S
O1152 C1145 1.195 . S
O1153 Mg1144 2.048 . S
O1153 C1154 1.195 . S
C1154 O1153 1.195 . S
C1154 O1155 1.313 . S
O1155 C1154 1.313 . S
O1156 Mg1144 2.141 . S
O1156 C1147 1.289 . S
Mg1157 O1164 2.141 . S
Mg1157 O1165 2.048 . S
Mg1157 O1166 2.048 . S
Mg1157 O1169 2.141 . S
C1158 O1159 1.313 . S
C1158 O1165 1.195 . S
O1159 C1158 1.313 . S
C1160 O1161 1.245 . S
C1160 O1169 1.289 . S
O1161 C1160 1.245 . S
C1162 O1163 1.245 . S
C1162 O1164 1.289 . S
O1163 C1162 1.245 . S
O1164 Mg1157 2.141 . S
O1164 C1162 1.289 . S
O1165 Mg1157 2.048 . S
O1165 C1158 1.195 . S
O1166 Mg1157 2.048 . S
O1166 C1167 1.195 . S
C1167 O1166 1.195 . S
C1167 O1168 1.313 . S
O1168 C1167 1.313 . S
O1169 Mg1157 2.141 . S
O1169 C1160 1.289 . S
Mg1170 O1177 2.141 . S
Mg1170 O1178 2.048 . S
Mg1170 O1179 2.048 . S
Mg1170 O1182 2.141 . S
C1171 O1172 1.313 . S
C1171 O1178 1.195 . S
O1172 C1171 1.313 . S
C1173 O1174 1.245 . S
C1173 O1182 1.289 . S
O1174 C1173 1.245 . S
C1175 O1176 1.245 . S
C1175 O1177 1.289 . S
O1176 C1175 1.245 . S
O1177 Mg1170 2.141 . S
O1177 C1175 1.289 . S
O1178 Mg1170 2.048 . S
O1178 C1171 1.195 . S
O1179 Mg1170 2.048 . S
O1179 C1180 1.195 . S
C1180 O1179 1.195 . S
C1180 O1181 1.313 . S
O1181 C1180 1.313 . S
O1182 Mg1170 2.141 . S
O1182 C1173 1.289 . S
Mg1183 O1190 2.115 1_556 S
Mg1183 O1191 2.024 1_556 S
Mg1183 O1192 2.076 . S
Mg1183 O1195 2.165 . S
C1184 O1185 1.313 . S
C1184 O1191 1.195 . S
O1185 C1184 1.313 . S
C1186 O1187 1.245 . S
C1186 O1195 1.289 . S
O1187 C1186 1.245 . S
C1188 O1189 1.245 . S
C1188 O1190 1.289 . S
O1189 C1188 1.245 . S
O1190 Mg1183 2.115 1_554 S
O1190 C1188 1.289 . S
O1191 Mg1183 2.024 1_554 S
O1191 C1184 1.195 . S
O1192 Mg1183 2.076 . S
O1192 C1193 1.195 . S
C1193 O1192 1.195 . S
C1193 O1194 1.313 . S
O1194 C1193 1.313 . S
O1195 Mg1183 2.165 . S
O1195 C1186 1.289 . S
Mg1196 O1203 2.141 . S
Mg1196 O1204 2.048 . S
Mg1196 O1205 2.048 . S
Mg1196 O1208 2.141 . S
C1197 O1198 1.313 . S
C1197 O1204 1.195 . S
O1198 C1197 1.313 . S
C1199 O1200 1.245 . S
C1199 O1208 1.289 . S
O1200 C1199 1.245 . S
C1201 O1202 1.245 . S
C1201 O1203 1.289 . S
O1202 C1201 1.245 . S
O1203 Mg1196 2.141 . S
O1203 C1201 1.289 . S
O1204 Mg1196 2.048 . S
O1204 C1197 1.195 . S
O1205 Mg1196 2.048 . S
O1205 C1206 1.195 . S
C1206 O1205 1.195 . S
C1206 O1207 1.313 . S
O1207 C1206 1.313 . S
O1208 Mg1196 2.141 . S
O1208 C1199 1.289 . S
Mg1209 O1216 2.115 1_554 S
Mg1209 O1217 2.024 1_554 S
Mg1209 O1218 2.076 . S
Mg1209 O1221 2.165 . S
C1210 O1211 1.313 . S
C1210 O1217 1.195 . S
O1211 C1210 1.313 . S
C1212 O1213 1.245 . S
C1212 O1221 1.289 . S
O1213 C1212 1.245 . S
C1214 O1215 1.245 . S
C1214 O1216 1.289 . S
O1215 C1214 1.245 . S
O1216 Mg1209 2.115 1_556 S
O1216 C1214 1.289 . S
O1217 Mg1209 2.024 1_556 S
O1217 C1210 1.195 . S
O1218 Mg1209 2.076 . S
O1218 C1219 1.195 . S
C1219 O1218 1.195 . S
C1219 O1220 1.313 . S
O1220 C1219 1.313 . S
O1221 Mg1209 2.165 . S
O1221 C1212 1.289 . S
Mg1222 O1229 2.141 . S
Mg1222 O1230 2.048 . S
Mg1222 O1231 2.048 . S
Mg1222 O1234 2.141 . S
C1223 O1224 1.313 . S
C1223 O1230 1.195 . S
O1224 C1223 1.313 . S
C1225 O1226 1.245 . S
C1225 O1234 1.289 . S
O1226 C1225 1.245 . S
C1227 O1228 1.245 . S
C1227 O1229 1.289 . S
O1228 C1227 1.245 . S
O1229 Mg1222 2.141 . S
O1229 C1227 1.289 . S
O1230 Mg1222 2.048 . S
O1230 C1223 1.195 . S
O1231 Mg1222 2.048 . S
O1231 C1232 1.195 . S
C1232 O1231 1.195 . S
C1232 O1233 1.313 . S
O1233 C1232 1.313 . S
O1234 Mg1222 2.141 . S
O1234 C1225 1.289 . S
Mg1235 O1242 2.141 . S
Mg1235 O1243 2.048 . S
Mg1235 O1244 2.048 . S
Mg1235 O1247 2.141 . S
C1236 O1237 1.313 . S
C1236 O1243 1.195 . S
O1237 C1236 1.313 . S
C1238 O1239 1.245 . S
C1238 O1247 1.289 . S
O1239 C1238 1.245 . S
C1240 O1241 1.245 . S
C1240 O1242 1.289 . S
O1241 C1240 1.245 . S
O1242 Mg1235 2.141 . S
O1242 C1240 1.289 . S
O1243 Mg1235 2.048 . S
O1243 C1236 1.195 . S
O1244 Mg1235 2.048 . S
O1244 C1245 1.195 . S
C1245 O1244 1.195 . S
C1245 O1246 1.313 . S
O1246 C1245 1.313 . S
O1247 Mg1235 2.141 . S
O1247 C1238 1.289 . S
C1 C985 2.005 . S
C322 C14 2.005 . S
C959 C27 2.006 . S
C348 C40 2.005 . S
C53 C1011 2.006 . S
C66 C400 2.005 . S
C1037 C79 2.006 . S
C92 C374 2.005 . S
C114 C1180 1.850 . S
C569 C118 2.005 . S
C140 C582 1.850 . S
C144 C543 2.005 . S
C166 C1232 1.850 . S
C170 C1154 2.005 . S
C192 C1245 1.850 . S
C196 C1219 2.005 . S
C1063 C209 2.005 . S
C222 C517 2.006 . S
C244 C1102 1.849 . S
C491 C248 2.006 . S
C270 C504 1.849 . S
C1089 C274 2.006 . S
C296 C1050 1.849 . S
C1076 C309 1.850 . S
C673 C313 1.871 . S
C10 C326 1.871 . S
C339 C647 1.871 . S
C352 C36 1.871 . S
C365 C699 1.871 . S
C88 C378 1.871 . S
C391 C725 1.871 . S
C404 C62 1.871 . S
C417 C859 1.850 . S
C257 C430 1.871 . S
C443 C261 1.850 . S
C231 C456 1.871 . S
C469 C911 1.850 . S
C482 C842 1.871 . S
C495 C924 1.850 . S
C907 C508 1.871 . S
C751 C521 1.871 . S
C205 C534 1.871 . S
C781 C547 1.849 . S
C560 C179 1.871 . S
C573 C183 1.849 . S
C586 C777 1.871 . S
C729 C599 1.849 . S
C612 C755 1.850 . S
C361 C625 2.006 . S
C946 C638 2.005 . S
C651 C335 2.006 . S
C972 C664 2.005 . S
C677 C387 2.006 . S
C1024 C690 2.005 . S
C703 C413 2.006 . S
C998 C716 2.005 . S
C556 C738 1.850 . S
C742 C1193 2.005 . S
C1206 C764 1.850 . S
C768 C1167 2.005 . S
C608 C790 1.850 . S
C794 C530 2.005 . S
C621 C816 1.850 . S
C595 C820 2.005 . S
C439 C833 2.006 . S
C1141 C846 2.006 . S
C868 C478 1.849 . S
C872 C1115 2.006 . S
C1128 C894 1.849 . S
C465 C898 2.006 . S
C426 C920 1.850 . S
C452 C933 1.849 . S
C937 C49 1.871 . S
C950 C634 1.871 . S
C963 C23 1.871 . S
C976 C660 1.871 . S
C75 C989 1.871 . S
C712 C1002 1.871 . S
C101 C1015 1.871 . S
C686 C1028 1.871 . S
C1041 C235 1.850 . S
C881 C1054 1.871 . S
C1067 C885 1.850 . S
C1080 C855 1.871 . S
C287 C1093 1.850 . S
C218 C1106 1.871 . S
C1119 C300 1.850 . S
C283 C1132 1.871 . S
C1145 C127 1.871 . S
C1158 C829 1.871 . S
C157 C1171 1.849 . S
C1184 C803 1.871 . S
C807 C1197 1.849 . S
C1210 C153 1.871 . S
C1223 C105 1.850 . S
C1236 C131 1.849 . S
C5 C562 1.674 . S
C575 C18 1.674 . S
C536 C31 1.674 . S
C44 C1173 1.674 . S
C57 C1212 1.674 . S
C70 C1225 1.674 . S
C1147 C83 1.674 . S
C1238 C96 1.674 . S
C341 C107 1.713 . S
C122 C978 1.674 . S
C315 C133 1.713 . S
C952 C148 1.674 . S
C393 C159 1.713 . S
C174 C1030 1.674 . S
C185 C367 1.713 . S
C200 C1004 1.674 . S
C213 C1095 1.674 . S
C419 C226 1.674 . S
C237 C1056 1.713 . S
C252 C445 1.674 . S
C263 C458 1.713 . S
C278 C1121 1.674 . S
C1134 C289 1.713 . S
C1108 C302 1.713 . S
C250 C317 1.861 . S
C330 C265 1.713 . S
C343 C224 1.861 . S
C356 C863 1.713 . S
C900 C369 1.861 . S
C915 C382 1.713 . S
C395 C835 1.862 . S
C928 C408 1.713 . S
C421 C29 1.861 . S
C666 C434 1.861 . S
C447 C3 1.861 . S
C640 C460 1.861 . S
C473 C81 1.861 . S
C718 C486 1.861 . S
C55 C499 1.861 . S
C692 C512 1.861 . S
C525 C785 1.713 . S
C538 C109 1.713 . S
C744 C551 1.861 . S
C564 C135 1.713 . S
C146 C577 1.861 . S
C811 C590 1.713 . S
C822 C603 1.861 . S
C796 C616 1.861 . S
C629 C1186 1.674 . S
C642 C1199 1.674 . S
C655 C1160 1.674 . S
C549 C668 1.674 . S
C681 C588 1.674 . S
C601 C694 1.674 . S
C523 C707 1.674 . S
C614 C720 1.674 . S
C731 C965 1.713 . S
C354 C746 1.674 . S
C757 C939 1.713 . S
C772 C328 1.674 . S
C783 C1017 1.713 . S
C798 C406 1.674 . S
C991 C809 1.713 . S
C380 C824 1.674 . S
C837 C471 1.674 . S
C850 C1043 1.674 . S
C861 C432 1.713 . S
C1069 C876 1.674 . S
C887 C1082 1.713 . S
C902 C497 1.674 . S
C510 C913 1.713 . S
C926 C484 1.713 . S
C941 C874 1.861 . S
C889 C954 1.713 . S
C848 C967 1.861 . S
C980 C239 1.713 . S
C993 C276 1.861 . S
C1006 C291 1.713 . S
C211 C1019 1.861 . S
C1032 C304 1.713 . S
C1045 C653 1.861 . S
C1058 C42 1.861 . S
C1071 C627 1.862 . S
C1084 C16 1.861 . S
C1097 C705 1.861 . S
C1110 C94 1.861 . S
C1123 C679 1.861 . S
C1136 C68 1.861 . S
C1149 C161 1.713 . S
C1162 C733 1.713 . S
C1175 C120 1.861 . S
C1188 C759 1.713 . S
C1201 C770 1.861 . S
C187 C1214 1.713 . S
C1227 C198 1.861 . S
C1240 C172 1.861 . S
