# Generated by pormake.
# Topology wfa, (4)-cn, num edge types: 1
# Building blocks:
#     Node 0, Type 0, BuildingBlock: QUQFOY_clean_sbu_3, # of connection points: 4
#     Node 1, Type 0, BuildingBlock: QUQFOY_clean_sbu_3, # of connection points: 4
#     Node 2, Type 0, BuildingBlock: QUQFOY_clean_sbu_3, # of connection points: 4
#     Node 3, Type 0, BuildingBlock: QUQFOY_clean_sbu_3, # of connection points: 4
#     Node 4, Type 0, BuildingBlock: QUQFOY_clean_sbu_3, # of connection points: 4
#     Node 5, Type 0, BuildingBlock: QUQFOY_clean_sbu_3, # of connection points: 4
#     Node 6, Type 0, BuildingBlock: QUQFOY_clean_sbu_3, # of connection points: 4
#     Node 7, Type 0, BuildingBlock: QUQFOY_clean_sbu_3, # of connection points: 4
#     Node 8, Type 0, BuildingBlock: QUQFOY_clean_sbu_3, # of connection points: 4
#     Node 9, Type 0, BuildingBlock: QUQFOY_clean_sbu_3, # of connection points: 4
#     Node 10, Type 0, BuildingBlock: QUQFOY_clean_sbu_3, # of connection points: 4
#     Node 11, Type 0, BuildingBlock: QUQFOY_clean_sbu_3, # of connection points: 4
#     Node 12, Type 0, BuildingBlock: QUQFOY_clean_sbu_3, # of connection points: 4
#     Node 13, Type 0, BuildingBlock: QUQFOY_clean_sbu_3, # of connection points: 4
#     Node 14, Type 0, BuildingBlock: QUQFOY_clean_sbu_3, # of connection points: 4
#     Node 15, Type 0, BuildingBlock: QUQFOY_clean_sbu_3, # of connection points: 4
#     Edge 16, Type (0, 0), BuildingBlock: CIFDUS_clean_linker_0, # of connection points: 2
#     Edge 17, Type (0, 0), BuildingBlock: CIFDUS_clean_linker_0, # of connection points: 2
#     Edge 18, Type (0, 0), BuildingBlock: CIFDUS_clean_linker_0, # of connection points: 2
#     Edge 19, Type (0, 0), BuildingBlock: CIFDUS_clean_linker_0, # of connection points: 2
#     Edge 20, Type (0, 0), BuildingBlock: CIFDUS_clean_linker_0, # of connection points: 2
#     Edge 21, Type (0, 0), BuildingBlock: CIFDUS_clean_linker_0, # of connection points: 2
#     Edge 22, Type (0, 0), BuildingBlock: CIFDUS_clean_linker_0, # of connection points: 2
#     Edge 23, Type (0, 0), BuildingBlock: CIFDUS_clean_linker_0, # of connection points: 2
#     Edge 24, Type (0, 0), BuildingBlock: CIFDUS_clean_linker_0, # of connection points: 2
#     Edge 25, Type (0, 0), BuildingBlock: CIFDUS_clean_linker_0, # of connection points: 2
#     Edge 26, Type (0, 0), BuildingBlock: CIFDUS_clean_linker_0, # of connection points: 2
#     Edge 27, Type (0, 0), BuildingBlock: CIFDUS_clean_linker_0, # of connection points: 2
#     Edge 28, Type (0, 0), BuildingBlock: CIFDUS_clean_linker_0, # of connection points: 2
#     Edge 29, Type (0, 0), BuildingBlock: CIFDUS_clean_linker_0, # of connection points: 2
#     Edge 30, Type (0, 0), BuildingBlock: CIFDUS_clean_linker_0, # of connection points: 2
#     Edge 31, Type (0, 0), BuildingBlock: CIFDUS_clean_linker_0, # of connection points: 2
#     Edge 32, Type (0, 0), BuildingBlock: CIFDUS_clean_linker_0, # of connection points: 2
#     Edge 33, Type (0, 0), BuildingBlock: CIFDUS_clean_linker_0, # of connection points: 2
#     Edge 34, Type (0, 0), BuildingBlock: CIFDUS_clean_linker_0, # of connection points: 2
#     Edge 35, Type (0, 0), BuildingBlock: CIFDUS_clean_linker_0, # of connection points: 2
#     Edge 36, Type (0, 0), BuildingBlock: CIFDUS_clean_linker_0, # of connection points: 2
#     Edge 37, Type (0, 0), BuildingBlock: CIFDUS_clean_linker_0, # of connection points: 2
#     Edge 38, Type (0, 0), BuildingBlock: CIFDUS_clean_linker_0, # of connection points: 2
#     Edge 39, Type (0, 0), BuildingBlock: CIFDUS_clean_linker_0, # of connection points: 2
#     Edge 40, Type (0, 0), BuildingBlock: CIFDUS_clean_linker_0, # of connection points: 2
#     Edge 41, Type (0, 0), BuildingBlock: CIFDUS_clean_linker_0, # of connection points: 2
#     Edge 42, Type (0, 0), BuildingBlock: CIFDUS_clean_linker_0, # of connection points: 2
#     Edge 43, Type (0, 0), BuildingBlock: CIFDUS_clean_linker_0, # of connection points: 2
#     Edge 44, Type (0, 0), BuildingBlock: CIFDUS_clean_linker_0, # of connection points: 2
#     Edge 45, Type (0, 0), BuildingBlock: CIFDUS_clean_linker_0, # of connection points: 2
#     Edge 46, Type (0, 0), BuildingBlock: CIFDUS_clean_linker_0, # of connection points: 2
#     Edge 47, Type (0, 0), BuildingBlock: CIFDUS_clean_linker_0, # of connection points: 2
# Relax obj value: 0.197
# Max RMSD: 0.266
# Mean RMSD: 0.264
data_MOF--net-wfa--node1-QUQFOY_clean_sbu_3--edge1-CIFDUS_clean_linker_0
_symmetry_space_group_name_H-M    P1
_symmetry_Int_Tables_number       1
_symmetry_cell_setting            triclinic
loop_
_symmetry_equiv_pos_as_xyz
'x, y, z'
_cell_length_a     41.560318
_cell_length_b     41.658893
_cell_length_c     22.214318
_cell_angle_alpha  89.53417
_cell_angle_beta   90.063365
_cell_angle_gamma 89.871039
loop_
_atom_site_label
_atom_site_type_symbol
_atom_site_fract_x
_atom_site_fract_y
_atom_site_fract_z
_atom_type_partial_charge
C0 C 0.57377 0.95514 0.0433 0.0
O1 O 0.57742 0.93935 0.0921 0.0
Cd2 Cd 0.62771 0.93945 0.15007 0.0
O3 O 0.59785 0.96767 0.01718 0.0
Cd4 Cd 0.65537 0.97293 0.02779 0.0
C5 C 0.63251 0.02175 0.14041 0.0
O6 O 0.67676 0.93269 0.09718 0.0
O7 O 0.70246 0.9774 0.08285 0.0
O8 O 0.67006 0.94815 0.93371 0.0
C9 C 0.70043 0.95081 0.11066 0.0
O10 O 0.62955 -0.00384 0.17173 0.0
C11 C 0.68441 0.97308 0.91419 0.0
O12 O 0.63881 0.02088 0.08417 0.0
O13 O 0.68255 -0.00156 0.94563 0.0
C14 C 0.51624 0.57863 0.03265 0.0
O15 O 0.52935 0.5775 0.08442 0.0
Cd16 Cd 0.53819 0.6224 0.15274 0.0
O17 O 0.50732 0.60532 0.01002 0.0
Cd18 Cd 0.50548 0.66203 0.03866 0.0
C19 C 0.4581 0.64126 0.15957 0.0
O20 O 0.55107 0.67174 0.10502 0.0
O21 O 0.51451 0.70866 0.09707 0.0
O22 O 0.5303 0.67964 0.94536 0.0
C23 C 0.53998 0.69869 0.12249 0.0
O24 O 0.48416 0.63271 0.18537 0.0
C25 C 0.50571 0.69487 0.9265 0.0
O26 O 0.45762 0.6501 0.10416 0.0
O27 O 0.48047 0.6937 0.95899 0.0
C28 C 0.90407 0.5189 0.03351 0.0
O29 O 0.90464 0.5308 0.08606 0.0
Cd30 Cd 0.85818 0.53407 0.15299 0.0
O31 O 0.87741 0.51127 0.00935 0.0
Cd32 Cd 0.81928 0.51167 0.03052 0.0
C33 C 0.84025 0.45426 0.1323 0.0
O34 O 0.80914 0.55103 0.10907 0.0
O35 O 0.77276 0.51502 0.0926 0.0
O36 O 0.80964 0.54204 0.93791 0.0
C37 C 0.78242 0.53825 0.1242 0.0
O38 O 0.84822 0.47762 0.16581 0.0
C39 C 0.78806 0.52305 0.91894 0.0
O40 O 0.83146 0.45871 0.07759 0.0
O41 O 0.78234 0.49794 0.95011 0.0
C42 C 0.95897 0.90814 0.02607 0.0
O43 O 0.94614 0.90919 0.07793 0.0
Cd44 Cd 0.94331 0.86172 0.14469 0.0
O45 O 0.96705 0.88136 0.00415 0.0
Cd46 Cd 0.96639 0.82524 0.03047 0.0
C47 C 0.02334 0.84477 0.1309 0.0
O48 O 0.92948 0.80893 0.1114 0.0
O49 O 0.9736 0.78202 0.09389 0.0
O50 O 0.93181 0.80505 0.95226 0.0
C51 C 0.9484 0.78568 0.12532 0.0
O52 O -0.00048 0.85271 0.16364 0.0
C53 C 0.95488 0.7936 0.92171 0.0
O54 O 0.01948 0.83667 0.07597 0.0
O55 O 0.98338 0.79744 0.94145 0.0
C56 C 0.07509 0.0212 0.42316 0.0
O57 O 0.07688 0.03109 0.36906 0.0
Cd58 Cd 0.12644 0.02641 0.30968 0.0
O59 O 0.09994 0.01047 0.44946 0.0
Cd60 Cd 0.15534 0.0002 0.42457 0.0
C61 C 0.12937 0.94575 0.3262 0.0
O62 O 0.18014 0.03523 0.34694 0.0
O63 O 0.19765 0.98651 0.36265 0.0
O64 O 0.17722 0.02862 0.50994 0.0
C65 C 0.20097 0.01331 0.33603 0.0
O66 O 0.12744 0.96975 0.29052 0.0
C67 C 0.1886 0.00344 0.53471 0.0
O68 O 0.13544 0.9495 0.38206 0.0
O69 O 0.18307 0.97678 0.5092 0.0
C70 C 0.44555 0.06803 0.41298 0.0
O71 O 0.42655 0.07145 0.36819 0.0
Cd72 Cd 0.42686 0.12116 0.30774 0.0
O73 O 0.46007 0.09218 0.43471 0.0
Cd74 Cd 0.46931 0.15037 0.43249 0.0
C75 C 0.51241 0.12245 0.33526 0.0
O76 O 0.43055 0.17138 0.35757 0.0
O77 O 0.47571 0.19632 0.37245 0.0
O78 O 0.43361 0.16612 0.51244 0.0
C79 C 0.45018 0.19347 0.34153 0.0
O80 O 0.48252 0.12202 0.32573 0.0
C81 C 0.45578 0.17572 0.54719 0.0
O82 O 0.52223 0.13442 0.38458 0.0
O83 O 0.48479 0.1721 0.52985 0.0
C84 C 0.41353 0.4664 0.39876 0.0
O85 O 0.41024 0.45302 0.34782 0.0
Cd86 Cd 0.36036 0.44582 0.29238 0.0
O87 O 0.38895 0.47485 0.42908 0.0
Cd88 Cd 0.3294 0.47398 0.42179 0.0
C89 C 0.34176 0.52662 0.30486 0.0
O90 O 0.31783 0.42941 0.35544 0.0
O91 O 0.27919 0.46243 0.37272 0.0
O92 O 0.3287 0.44849 0.52055 0.0
C93 C 0.28916 0.43828 0.34389 0.0
O94 O 0.34878 0.50185 0.27419 0.0
C95 C 0.30657 0.4663 0.54143 0.0
O96 O 0.33602 0.52467 0.36148 0.0
O97 O 0.29655 0.48926 0.50812 0.0
C98 C 0.02119 0.41094 0.41443 0.0
O99 O 0.03385 0.40792 0.36265 0.0
Cd100 Cd 0.03159 0.36073 0.30051 0.0
O101 O 0.0101 0.38663 0.44258 0.0
Cd102 Cd 0.00411 0.32828 0.43048 0.0
C103 C 0.94936 0.3524 0.3254 0.0
O104 O 0.04323 0.31357 0.35564 0.0
O105 O 0.00604 0.27914 0.37457 0.0
O106 O 0.03204 0.31345 0.52286 0.0
C107 C 0.02993 0.28705 0.34248 0.0
O108 O 0.97353 0.35927 0.29253 0.0
C109 C 0.00828 0.29773 0.54379 0.0
O110 O 0.95275 0.34227 0.37956 0.0
O111 O 0.98211 0.29872 0.514 0.0
C112 C 0.41319 0.03231 0.90851 0.0
O113 O 0.41034 0.04586 0.85727 0.0
Cd114 Cd 0.36121 0.04323 0.79679 0.0
O115 O 0.38866 0.02125 0.93543 0.0
Cd116 Cd 0.33094 0.01698 0.92286 0.0
C117 C 0.3529 0.96173 0.81978 0.0
O118 O 0.31159 0.05366 0.84543 0.0
O119 O 0.28503 0.00968 0.8639 0.0
O120 O 0.31289 0.05051 0.00457 0.0
C121 C 0.28816 0.03512 0.83263 0.0
O122 O 0.35767 0.98562 0.78476 0.0
C123 C 0.30263 0.02718 0.03624 0.0
O124 O 0.3458 0.96539 0.87534 0.0
O125 O 0.30671 -0.00107 0.01597 0.0
C126 C 0.45946 0.40582 0.92244 0.0
O127 O 0.44907 0.40402 0.86881 0.0
Cd128 Cd 0.45062 0.35296 0.81304 0.0
O129 O 0.46947 0.38074 0.94906 0.0
Cd130 Cd 0.47844 0.32496 0.92579 0.0
C131 C 0.53106 0.34776 0.81871 0.0
O132 O 0.44112 0.29957 0.85315 0.0
O133 O 0.48955 0.28059 0.86781 0.0
O134 O 0.45062 0.3036 0.01354 0.0
C135 C 0.46212 0.27758 0.84349 0.0
O136 O 0.50619 0.34951 0.78542 0.0
C137 C 0.47627 0.29453 0.03987 0.0
O138 O 0.52863 0.34301 0.87544 0.0
O139 O 0.50281 0.30056 0.0136 0.0
C140 C 0.07891 0.46288 0.92422 0.0
O141 O 0.07818 0.45187 0.87098 0.0
Cd142 Cd 0.12417 0.44714 0.8032 0.0
O143 O 0.10568 0.46958 0.94895 0.0
Cd144 Cd 0.16361 0.46939 0.92492 0.0
C145 C 0.14358 0.52645 0.82162 0.0
O146 O 0.1729 0.4292 0.8472 0.0
O147 O 0.20962 0.46516 0.86143 0.0
O148 O 0.1805 0.44174 0.01741 0.0
C149 C 0.1997 0.44151 0.83123 0.0
O150 O 0.13524 0.5033 0.78789 0.0
C151 C 0.19774 0.46506 0.03506 0.0
O152 O 0.15217 0.52172 0.87624 0.0
O153 O 0.19754 0.49043 0.00278 0.0
C154 C 0.01729 0.08049 0.90867 0.0
O155 O 0.03435 0.07906 0.86089 0.0
Cd156 Cd 0.04261 0.12639 0.79594 0.0
O157 O 0.00745 0.10738 0.92858 0.0
Cd158 Cd 0.00358 0.16634 0.92538 0.0
C159 C 0.96166 0.14323 0.82814 0.0
O160 O 0.05018 0.17288 0.8569 0.0
O161 O 0.01983 0.21399 0.8726 0.0
O162 O 0.03104 0.16543 0.02132 0.0
C163 C 0.04267 0.20163 0.84286 0.0
O164 O 0.99184 0.14346 0.82674 0.0
C165 C 0.0128 0.18639 0.04466 0.0
O166 O 0.94899 0.1578 0.87222 0.0
O167 O 0.98903 0.19635 0.01339 0.0
C168 C 0.904 0.95791 0.52823 0.0
O169 O 0.9038 0.94258 0.57797 0.0
Cd170 Cd 0.85693 0.94117 0.64433 0.0
O171 O 0.87849 0.97077 0.50799 0.0
Cd172 Cd 0.82212 0.97834 0.52993 0.0
C173 C 0.85186 0.02415 0.64221 0.0
O174 O 0.8061 0.93486 0.59605 0.0
O175 O 0.77575 0.97737 0.58959 0.0
O176 O 0.8049 0.95166 0.44094 0.0
C177 C 0.78128 0.95018 0.61371 0.0
O178 O 0.85809 -0.00252 0.66821 0.0
C179 C 0.79491 0.97699 0.41484 0.0
O180 O 0.83968 0.02541 0.58936 0.0
O181 O 0.79787 0.00354 0.44241 0.0
C182 C 0.52646 0.90777 0.54574 0.0
O183 O 0.54799 0.90459 0.58632 0.0
Cd184 Cd 0.55289 0.85529 0.64595 0.0
O185 O 0.51142 0.88338 0.52608 0.0
Cd186 Cd 0.50572 0.82451 0.52813 0.0
C187 C 0.46622 0.84985 0.64034 0.0
O188 O 0.5496 0.80676 0.59355 0.0
O189 O 0.50849 0.77559 0.58274 0.0
O190 O 0.53337 0.82416 0.43266 0.0
C191 C 0.53375 0.78238 0.612 0.0
O192 O 0.49603 0.85338 0.64985 0.0
C193 C 0.51494 0.80357 0.40882 0.0
O194 O 0.45683 0.839 0.58954 0.0
O195 O 0.49056 0.79424 0.43896 0.0
C196 C 0.57593 0.52591 0.55621 0.0
O197 O 0.58022 0.54264 0.60319 0.0
Cd198 Cd 0.63174 0.54902 0.65548 0.0
O199 O 0.59974 0.51303 0.52975 0.0
Cd200 Cd 0.65857 0.50901 0.53777 0.0
C201 C 0.64338 0.46756 0.66802 0.0
O202 O 0.67755 0.55527 0.59301 0.0
O203 O 0.71077 0.51576 0.58019 0.0
O204 O 0.6586 0.53131 0.43747 0.0
C205 C 0.70499 0.54266 0.60412 0.0
O206 O 0.63909 0.49508 0.69129 0.0
C207 C 0.67778 0.51062 0.41594 0.0
O208 O 0.64826 0.46442 0.61134 0.0
O209 O 0.68658 0.48749 0.45016 0.0
C210 C 0.95739 0.57217 0.56378 0.0
O211 O 0.94785 0.57763 0.61708 0.0
Cd212 Cd 0.95316 0.6302 0.66511 0.0
O213 O 0.96746 0.59504 0.53087 0.0
Cd214 Cd 0.97766 0.65188 0.53434 0.0
C215 C 0.03406 0.63286 0.63882 0.0
O216 O 0.94277 0.67789 0.60753 0.0
O217 O 0.98814 0.70009 0.58232 0.0
O218 O 0.94918 0.66883 0.44389 0.0
C219 C 0.96253 0.70117 0.61311 0.0
O220 O 0.01094 0.63216 0.67646 0.0
C221 C 0.97478 0.67725 0.4168 0.0
O222 O 0.02887 0.63664 0.58249 0.0
O223 O 0.00139 0.67171 0.44331 0.0
H224 H 0.57894 0.12425 0.31925 0.0
H225 H 0.49128 0.08085 0.25318 0.0
H226 H 0.52094 0.0514 0.17936 0.0
H227 H 0.5711 0.03414 0.13728 0.0
H228 H 0.66063 0.07024 0.20576 0.0
H229 H 0.63125 0.10736 0.2722 0.0
C230 C 0.56653 0.10844 0.28847 0.0
C231 C 0.53286 0.10513 0.29186 0.0
C232 C 0.58399 0.09071 0.24536 0.0
C233 C 0.51708 0.08443 0.25158 0.0
C234 C 0.53398 0.06741 0.20889 0.0
C235 C 0.58412 0.05096 0.16542 0.0
C236 C 0.61764 0.05029 0.16612 0.0
C237 C 0.56728 0.07017 0.20561 0.0
C238 C 0.6346 0.07114 0.2039 0.0
C239 C 0.61781 0.09185 0.24245 0.0
H240 H 0.37066 0.57945 0.35012 0.0
H241 H 0.32619 0.54243 0.18987 0.0
H242 H 0.35401 0.58241 0.1284 0.0
H243 H 0.40139 0.61741 0.11852 0.0
H244 H 0.44886 0.65101 0.27856 0.0
H245 H 0.40927 0.62375 0.34157 0.0
C246 C 0.36587 0.58122 0.30218 0.0
C247 C 0.34683 0.55783 0.27442 0.0
C248 C 0.38324 0.60329 0.26671 0.0
C249 C 0.341 0.56013 0.21211 0.0
C250 C 0.35719 0.58278 0.17682 0.0
C251 C 0.40212 0.61995 0.16707 0.0
C252 C 0.4282 0.63572 0.19393 0.0
C253 C 0.38001 0.603 0.20319 0.0
C254 C 0.4291 0.63865 0.25696 0.0
C255 C 0.4066 0.62287 0.29307 0.0
H256 H 0.83227 0.43273 0.24582 0.0
H257 H 0.86794 0.40483 0.07175 0.0
H258 H 0.9016 0.36355 0.119 0.0
H259 H 0.93039 0.34612 0.21025 0.0
H260 H 0.89746 0.37697 0.38448 0.0
H261 H 0.85271 0.40593 0.33707 0.0
C262 C 0.84638 0.4166 0.21817 0.0
C263 C 0.84814 0.42202 0.15564 0.0
C264 C 0.86668 0.39401 0.24592 0.0
C265 C 0.86619 0.40101 0.11994 0.0
C266 C 0.88583 0.37776 0.1471 0.0
C267 C 0.91272 0.35832 0.23787 0.0
C268 C 0.9174 0.36007 0.30051 0.0
C269 C 0.88778 0.37563 0.21014 0.0
C270 C 0.8943 0.37544 0.33617 0.0
C271 C 0.86893 0.39223 0.30898 0.0
H272 H 0.04165 0.83584 0.24596 0.0
H273 H 0.07644 0.86764 0.07276 0.0
H274 H 0.11991 0.89711 0.12166 0.0
H275 H 0.1376 0.92483 0.21287 0.0
H276 H 0.09942 0.89666 0.38581 0.0
H277 H 0.06814 0.85418 0.3382 0.0
C278 C 0.05954 0.84827 0.21895 0.0
C279 C 0.05554 0.85042 0.15616 0.0
C280 C 0.08337 0.86631 0.24752 0.0
C281 C 0.079 0.8659 0.12122 0.0
C282 C 0.10357 0.88309 0.14926 0.0
C283 C 0.12319 0.90868 0.24028 0.0
C284 C 0.11999 0.91427 0.30235 0.0
C285 C 0.10445 0.88524 0.21232 0.0
C286 C 0.10196 0.89292 0.33784 0.0
C287 C 0.08386 0.86884 0.31052 0.0
H288 H 0.40748 0.93203 0.84598 0.0
H289 H 0.32205 0.92417 0.73796 0.0
H290 H 0.34829 0.8837 0.67463 0.0
H291 H 0.39965 0.85885 0.63908 0.0
H292 H 0.48476 0.87045 0.74928 0.0
H293 H 0.45508 0.90161 0.82051 0.0
C294 C 0.39421 0.92034 0.81018 0.0
C295 C 0.36292 0.9304 0.79694 0.0
C296 C 0.40996 0.89869 0.77243 0.0
C297 C 0.34615 0.91617 0.74922 0.0
C298 C 0.36133 0.89346 0.71255 0.0
C299 C 0.41135 0.86748 0.67945 0.0
C300 C 0.44462 0.8627 0.68752 0.0
C301 C 0.39389 0.88574 0.72182 0.0
C302 C 0.45933 0.87399 0.74063 0.0
C303 C 0.44237 0.89188 0.78213 0.0
H304 H 0.62412 0.40772 0.63505 0.0
H305 H 0.64706 0.46505 0.79012 0.0
H306 H 0.6192 0.42717 0.85556 0.0
H307 H 0.57796 0.38528 0.86462 0.0
H308 H 0.55212 0.33024 0.70857 0.0
H309 H 0.5922 0.35869 0.64834 0.0
C310 C 0.62411 0.41122 0.68338 0.0
C311 C 0.63688 0.43953 0.70738 0.0
C312 C 0.60711 0.38982 0.72074 0.0
C313 C 0.63681 0.44369 0.77028 0.0
C314 C 0.62076 0.4221 0.80786 0.0
C315 C 0.58215 0.37864 0.81815 0.0
C316 C 0.56198 0.35616 0.79066 0.0
C317 C 0.6042 0.39614 0.7831 0.0
C318 C 0.5673 0.34782 0.7303 0.0
C319 C 0.59002 0.36423 0.69575 0.0
H320 H 0.0568 0.63879 0.75233 0.0
H321 H 0.08342 0.60616 0.57532 0.0
H322 H 0.12813 0.57559 0.61844 0.0
H323 H 0.14957 0.54777 0.70752 0.0
H324 H 0.11993 0.57711 0.88469 0.0
H325 H 0.08726 0.62012 0.84066 0.0
C326 C 0.07301 0.62575 0.72303 0.0
C327 C 0.06632 0.62387 0.66103 0.0
C328 C 0.09792 0.60739 0.74837 0.0
C329 C 0.08786 0.60763 0.62328 0.0
C330 C 0.11328 0.58994 0.648 0.0
C331 C 0.13697 0.56447 0.73647 0.0
C332 C 0.13644 0.55897 0.79898 0.0
C333 C 0.11713 0.58806 0.71069 0.0
C334 C 0.12055 0.58086 0.83639 0.0
C335 C 0.10149 0.60515 0.81113 0.0
H336 H 0.89741 0.14347 0.79415 0.0
H337 H 0.98718 0.09206 0.77352 0.0
H338 H 0.96119 0.05268 0.71123 0.0
H339 H 0.91339 0.03098 0.66578 0.0
H340 H 0.82263 0.08014 0.68065 0.0
H341 H 0.84851 0.12268 0.74042 0.0
C342 C 0.9111 0.12368 0.77572 0.0
C343 C 0.94416 0.12072 0.78888 0.0
C344 C 0.89597 0.10089 0.73841 0.0
C345 C 0.96176 0.09511 0.76423 0.0
C346 C 0.94697 0.07243 0.72844 0.0
C347 C 0.89936 0.05128 0.68153 0.0
C348 C 0.86638 0.05268 0.66932 0.0
C349 C 0.9142 0.07496 0.71564 0.0
C350 C 0.84824 0.07892 0.68943 0.0
C351 C 0.86299 0.10296 0.72395 0.0
H352 H 0.68734 0.92631 0.829 0.0
H353 H 0.72963 0.01646 0.88206 0.0
H354 H 0.76734 0.0136 0.79877 0.0
H355 H 0.78598 0.98781 0.70786 0.0
H356 H 0.7423 0.90015 0.6476 0.0
H357 H 0.7079 0.89899 0.73786 0.0
C358 C 0.70474 0.94534 0.82201 0.0
C359 C 0.7054 0.9718 0.86102 0.0
C360 C 0.72629 0.94371 0.77349 0.0
C361 C 0.7282 -0.00382 0.85196 0.0
C362 C 0.75 -0.00556 0.80475 0.0
C363 C 0.76934 0.96811 0.71536 0.0
C364 C 0.76652 0.94401 0.6722 0.0
C365 C 0.74899 0.96856 0.76509 0.0
C366 C 0.74498 0.91862 0.68128 0.0
C367 C 0.72511 0.91828 0.73222 0.0
H368 H 0.48444 0.7716 0.68558 0.0
H369 H 0.58788 0.76536 0.67751 0.0
H370 H 0.58846 0.73779 0.77619 0.0
H371 H 0.55849 0.71231 0.8608 0.0
H372 H 0.45481 0.71981 0.86539 0.0
H373 H 0.45535 0.74987 0.77092 0.0
C374 C 0.50721 0.76421 0.70533 0.0
C375 C 0.53607 0.76975 0.67403 0.0
C376 C 0.50718 0.74837 0.76088 0.0
C377 C 0.56541 0.76106 0.70082 0.0
C378 C 0.56564 0.74517 0.75686 0.0
C379 C 0.53604 0.72052 0.84099 0.0
C380 C 0.50656 0.71349 0.86966 0.0
C381 C 0.53654 0.73808 0.78662 0.0
C382 C 0.47774 0.72472 0.8441 0.0
C383 C 0.47802 0.74194 0.79015 0.0
H384 H 0.80885 0.53823 0.80658 0.0
H385 H 0.7234 0.5264 0.91399 0.0
H386 H 0.68962 0.53926 0.82672 0.0
H387 H 0.68437 0.54797 0.718 0.0
H388 H 0.76931 0.55178 0.60753 0.0
H389 H 0.80348 0.54863 0.69729 0.0
C390 C 0.78284 0.53873 0.81058 0.0
C391 C 0.76842 0.5312 0.86597 0.0
C392 C 0.7636 0.54499 0.7597 0.0
C393 C 0.7348 0.53169 0.87121 0.0
C394 C 0.71555 0.53923 0.82155 0.0
C395 C 0.71032 0.54944 0.71399 0.0
C396 C 0.72442 0.55113 0.65677 0.0
C397 C 0.72965 0.54532 0.76533 0.0
C398 C 0.75809 0.55148 0.65155 0.0
C399 C 0.77757 0.54916 0.70272 0.0
H400 H 0.99072 0.79648 0.82202 0.0
H401 H 0.90552 0.75295 0.89639 0.0
H402 H 0.89825 0.72151 0.80441 0.0
H403 H 0.91892 0.7039 0.70541 0.0
H404 H 0.00254 0.75116 0.6309 0.0
H405 H 0.00727 0.78402 0.71985 0.0
C406 C 0.97048 0.78023 0.81775 0.0
C407 C 0.94894 0.77652 0.8655 0.0
C408 C 0.96612 0.76301 0.76473 0.0
C409 C 0.92242 0.75595 0.85969 0.0
C410 C 0.91831 0.73801 0.80733 0.0
C411 C 0.93772 0.72183 0.70828 0.0
C412 C 0.96061 0.72465 0.66212 0.0
C413 C 0.94032 0.74103 0.75978 0.0
C414 C 0.98479 0.74815 0.66617 0.0
C415 C 0.98766 0.76697 0.71712 0.0
H416 H 0.20287 0.05634 0.60127 0.0
H417 H 0.22029 0.95426 0.58909 0.0
H418 H 0.25463 0.95623 0.67764 0.0
H419 H 0.27788 0.98595 0.76002 0.0
H420 H 0.2615 0.08772 0.77573 0.0
H421 H 0.22869 0.08708 0.68328 0.0
C422 C 0.21412 0.03455 0.61819 0.0
C423 C 0.20872 0.0051 0.58916 0.0
C424 C 0.23396 0.03583 0.66932 0.0
C425 C 0.2237 0.97712 0.61108 0.0
C426 C 0.24345 0.97822 0.66152 0.0
C427 C 0.26711 0.00804 0.74317 0.0
C428 C 0.27146 0.03676 0.77457 0.0
C429 C 0.24842 0.0073 0.69115 0.0
C430 C 0.25825 0.06538 0.75189 0.0
C431 C 0.23942 0.06491 0.69949 0.0
H432 H 0.48658 0.17111 0.65365 0.0
H433 H 0.4074 0.21853 0.56451 0.0
H434 H 0.39894 0.2527 0.65241 0.0
H435 H 0.41877 0.27318 0.7503 0.0
H436 H 0.49631 0.22272 0.83982 0.0
H437 H 0.50009 0.18524 0.75714 0.0
C438 C 0.46722 0.18863 0.65402 0.0
C439 C 0.44799 0.1928 0.60289 0.0
C440 C 0.46218 0.20767 0.70483 0.0
C441 C 0.42258 0.21511 0.60375 0.0
C442 C 0.41779 0.23468 0.65383 0.0
C443 C 0.43583 0.25346 0.75229 0.0
C444 C 0.4577 0.25121 0.80037 0.0
C445 C 0.43803 0.23176 0.70415 0.0
C446 C 0.4796 0.22539 0.80263 0.0
C447 C 0.48191 0.20393 0.7553 0.0
H448 H 0.24308 0.46703 0.56663 0.0
H449 H 0.33592 0.4467 0.64486 0.0
H450 H 0.31036 0.43283 0.741 0.0
H451 H 0.2617 0.43032 0.8043 0.0
H452 H 0.16868 0.44681 0.72403 0.0
H453 H 0.19397 0.45756 0.62653 0.0
C454 C 0.25762 0.45971 0.60495 0.0
C455 C 0.2913 0.45871 0.5996 0.0
C456 C 0.24267 0.45055 0.65911 0.0
C457 C 0.30997 0.44817 0.64861 0.0
C458 C 0.29536 0.44007 0.7033 0.0
C459 C 0.24701 0.43516 0.76482 0.0
C460 C 0.21344 0.43739 0.77086 0.0
C461 C 0.26177 0.44146 0.70918 0.0
C462 C 0.1945 0.4442 0.71999 0.0
C463 C 0.20902 0.4509 0.66453 0.0
H464 H 0.05931 0.29302 0.62127 0.0
H465 H 0.96515 0.254 0.58425 0.0
H466 H 0.97115 0.21612 0.6673 0.0
H467 H 0.00106 0.19649 0.75396 0.0
H468 H 0.09252 0.23793 0.79963 0.0
H469 H 0.09042 0.27177 0.70833 0.0
C470 C 0.04011 0.27627 0.63159 0.0
C471 C 0.01168 0.27654 0.59696 0.0
C472 C 0.04358 0.25461 0.68004 0.0
C473 C 0.98708 0.25461 0.61061 0.0
C474 C 0.99058 0.23272 0.65775 0.0
C475 C 0.02099 0.2122 0.74268 0.0
C476 C 0.04724 0.21436 0.782 0.0
C477 C 0.01855 0.23267 0.69285 0.0
C478 C 0.07255 0.23541 0.76866 0.0
C479 C 0.07101 0.25507 0.71721 0.0
H480 H 0.20853 0.06025 0.24924 0.0
H481 H 0.24957 0.9717 0.31736 0.0
H482 H 0.28542 0.96893 0.23187 0.0
H483 H 0.30203 0.98854 0.13341 0.0
H484 H 0.26431 0.07805 0.0649 0.0
H485 H 0.23056 0.08371 0.15471 0.0
C486 C 0.22574 0.04076 0.24578 0.0
C487 C 0.22589 0.01598 0.28905 0.0
C488 C 0.24672 0.03924 0.19613 0.0
C489 C 0.2485 0.99091 0.28422 0.0
C490 C 0.2691 0.98918 0.23526 0.0
C491 C 0.28664 0.00943 0.13854 0.0
C492 C 0.28525 0.03261 0.0928 0.0
C493 C 0.26781 0.01268 0.19023 0.0
C494 C 0.26566 0.05987 0.09995 0.0
C495 C 0.2463 0.06305 0.15109 0.0
H496 H 0.49831 0.22427 0.2864 0.0
H497 H 0.39757 0.20179 0.26618 0.0
H498 H 0.39637 0.23218 0.17061 0.0
H499 H 0.42475 0.26525 0.09341 0.0
H500 H 0.52617 0.28448 0.11593 0.0
H501 H 0.52621 0.25506 0.21089 0.0
C502 C 0.47586 0.22607 0.26161 0.0
C503 C 0.44791 0.21118 0.28378 0.0
C504 C 0.47556 0.24297 0.20724 0.0
C505 C 0.41934 0.21326 0.25017 0.0
C506 C 0.4187 0.23061 0.19569 0.0
C507 C 0.44676 0.26311 0.11942 0.0
C508 C 0.47542 0.27721 0.09794 0.0
C509 C 0.44674 0.24566 0.17391 0.0
C510 C 0.50385 0.27392 0.13151 0.0
C511 C 0.5039 0.25711 0.18579 0.0
H512 H 0.29256 0.47925 0.25309 0.0
H513 H 0.25186 0.38827 0.30434 0.0
H514 H 0.21981 0.38784 0.21091 0.0
H515 H 0.2009 0.41608 0.11818 0.0
H516 H 0.24154 0.50853 0.07255 0.0
H517 H 0.27632 0.5057 0.16035 0.0
C518 C 0.27743 0.45889 0.24278 0.0
C519 C 0.27496 0.43354 0.28423 0.0
C520 C 0.25872 0.45944 0.19062 0.0
C521 C 0.25453 0.40767 0.27199 0.0
C522 C 0.23602 0.40768 0.21907 0.0
C523 C 0.21742 0.43553 0.12752 0.0
C524 C 0.21837 0.46265 0.08913 0.0
C525 C 0.23742 0.43386 0.17865 0.0
C526 C 0.24001 0.48759 0.10161 0.0
C527 C 0.26006 0.48595 0.15166 0.0
H528 H 0.98725 0.24012 0.09041 0.0
H529 H 0.05715 0.16593 0.12815 0.0
H530 H 0.07184 0.19249 0.2223 0.0
H531 H 0.06251 0.23608 0.29633 0.0
H532 H -0.00623 0.31006 0.25336 0.0
H533 H 0.9811 0.28473 0.15853 0.0
C534 C 0.00557 0.22959 0.11933 0.0
C535 C 0.02067 0.2009 0.10302 0.0
C536 C 0.01442 0.2453 0.17203 0.0
C537 C 0.04483 0.18787 0.14036 0.0
C538 C 0.05339 0.20312 0.19392 0.0
C539 C 0.04561 0.247 0.26502 0.0
C540 C 0.02962 0.2754 0.28066 0.0
C541 C 0.03824 0.23187 0.21035 0.0
C542 C 0.00705 0.28896 0.24106 0.0
C543 C -0.00056 0.27413 0.18725 0.0
H544 H 0.74586 0.99086 0.15038 0.0
H545 H 0.69711 0.90255 0.19626 0.0
H546 H 0.72379 0.90217 0.29502 0.0
H547 H 0.75814 0.92942 0.37006 0.0
H548 H 0.80048 0.02107 0.32559 0.0
H549 H 0.77836 0.01808 0.22388 0.0
C550 C 0.7411 0.97127 0.18158 0.0
C551 C 0.71949 0.94675 0.16612 0.0
C552 C 0.75497 0.9722 0.23858 0.0
C553 C 0.71381 0.92158 0.20709 0.0
C554 C 0.72881 0.92155 0.26359 0.0
C555 C 0.7625 0.94861 0.3378 0.0
C556 C 0.78084 0.97542 0.35459 0.0
C557 C 0.74892 0.94712 0.28013 0.0
C558 C 0.78619 0.0004 0.31331 0.0
C559 C 0.77375 -0.00142 0.2553 0.0
H560 H 0.52163 0.74055 0.38674 0.0
H561 H 0.52978 0.83408 0.30412 0.0
H562 H 0.54462 0.80942 0.20812 0.0
H563 H 0.54949 0.76093 0.14608 0.0
H564 H 0.54438 0.66752 0.23005 0.0
H565 H 0.53537 0.6923 0.32806 0.0
C566 C 0.52658 0.75538 0.34747 0.0
C567 C 0.52357 0.78888 0.35123 0.0
C568 C 0.53624 0.74108 0.29341 0.0
C569 C 0.53122 0.80816 0.30129 0.0
C570 C 0.53992 0.7941 0.24678 0.0
C571 C 0.54769 0.74613 0.18637 0.0
C572 C 0.54767 0.71256 0.18124 0.0
C573 C 0.54194 0.76057 0.24212 0.0
C574 C 0.54501 0.69343 0.23325 0.0
C575 C 0.53923 0.7076 0.28905 0.0
H576 H 0.74091 0.51266 0.39029 0.0
H577 H 0.64689 0.52324 0.31067 0.0
H578 H 0.67135 0.53692 0.21336 0.0
H579 H 0.7197 0.54345 0.15051 0.0
H580 H 0.81364 0.53694 0.23192 0.0
H581 H 0.78917 0.52505 0.32974 0.0
C582 C 0.72593 0.5176 0.35126 0.0
C583 C 0.6923 0.51601 0.35653 0.0
C584 C 0.74014 0.52691 0.29654 0.0
C585 C 0.67287 0.52364 0.30677 0.0
C586 C 0.68683 0.53173 0.25153 0.0
C587 C 0.73468 0.54044 0.19022 0.0
C588 C 0.76832 0.54142 0.18447 0.0
C589 C 0.72042 0.53339 0.24594 0.0
C590 C 0.78768 0.53705 0.23568 0.0
C591 C 0.77369 0.52967 0.29133 0.0
H592 H -0.00238 0.76123 0.18674 0.0
H593 H 0.89412 0.76879 0.19056 0.0
H594 H 0.89283 0.73409 0.28101 0.0
H595 H 0.92202 0.70115 0.35762 0.0
H596 H 0.02579 0.69515 0.34914 0.0
H597 H 0.02598 0.72956 0.26047 0.0
C598 C 0.97461 0.75517 0.20689 0.0
C599 C 0.94592 0.76704 0.18168 0.0
C600 C 0.97419 0.73535 0.25755 0.0
C601 C 0.91647 0.75978 0.20933 0.0
C602 C 0.9158 0.73985 0.26062 0.0
C603 C 0.94458 0.70709 0.33581 0.0
C604 C 0.97386 0.6954 0.35966 0.0
C605 C 0.94459 0.72727 0.28477 0.0
C606 C 0.00295 0.7036 0.33151 0.0
C607 C 0.00312 0.7234 0.28098 0.0
H608 H 0.42774 0.98546 -0.01059 0.0
H609 H 0.47113 0.0596 0.87963 0.0
H610 H 0.52465 0.04095 0.91006 0.0
H611 H 0.5587 0.00288 0.965 0.0
H612 H 0.51563 0.92849 0.07464 0.0
H613 H 0.46198 0.9476 0.04556 0.0
C614 C 0.44886 -0.0021 0.97272 0.0
C615 C 0.44544 0.02407 0.93247 0.0
C616 C 0.47946 0.98656 -0.01078 0.0
C617 C 0.4731 0.03951 0.91069 0.0
C618 C 0.50367 0.02872 0.92778 0.0
C619 C 0.53765 0.99049 -0.01787 0.0
C620 C 0.54122 0.96401 0.02154 0.0
C621 C 0.50707 0.00198 0.96622 0.0
C622 C 0.51358 0.94873 0.04396 0.0
C623 C 0.48294 0.9598 0.02765 0.0
H624 H 0.46614 0.46514 0.86958 0.0
H625 H 0.46741 0.4164 0.04182 0.0
H626 H 0.48734 0.46471 0.09003 0.0
H627 H 0.5063 0.52013 0.08345 0.0
H628 H 0.50389 0.57017 0.91279 0.0
H629 H 0.48316 0.52201 0.86381 0.0
C630 C 0.47011 0.46533 0.91784 0.0
C631 C 0.46519 0.43713 0.95195 0.0
C632 C 0.48212 0.49323 0.94545 0.0
C633 C 0.47092 0.43773 0.01439 0.0
C634 C 0.48259 0.4653 0.04204 0.0
C635 C 0.50164 0.5204 0.03539 0.0
C636 C 0.50705 0.54858 0.00175 0.0
C637 C 0.48886 0.49297 0.0079 0.0
C638 C 0.50019 0.54869 0.93969 0.0
C639 C 0.48811 0.52122 0.91171 0.0
H640 H 0.96526 0.52074 0.07879 0.0
H641 H 0.91133 0.49508 0.9201 0.0
H642 H 0.95996 0.47363 0.87411 0.0
H643 H 0.01775 0.46146 0.87895 0.0
H644 H 0.07177 0.48709 0.03754 0.0
H645 H 0.02317 0.50875 0.08344 0.0
C646 C 0.96417 0.51082 0.03385 0.0
C647 C 0.93455 0.50971 0.00306 0.0
C648 C 0.99223 0.49803 0.00779 0.0
C649 C 0.93372 0.49646 0.94496 0.0
C650 C 0.96153 0.48396 0.91864 0.0
C651 C 0.01889 0.47142 0.92385 0.0
C652 C 0.0485 0.47236 0.9547 0.0
C653 C 0.99087 0.48431 0.94984 0.0
C654 C 0.04938 0.48574 0.0127 0.0
C655 C 0.02158 0.49838 0.03895 0.0
H656 H 0.02529 0.01815 0.8736 0.0
H657 H 0.98127 0.07641 0.01092 0.0
H658 H 0.95738 0.02894 0.05668 0.0
H659 H 0.94932 0.97057 0.0592 0.0
H660 H -0.00696 0.91236 0.92149 0.0
H661 H 0.01632 0.9599 0.87492 0.0
C662 C 0.01076 0.02044 0.91387 0.0
C663 C 0.00545 0.05087 0.93885 0.0
C664 C -0.00332 -0.00702 0.93995 0.0
C665 C 0.98613 0.05332 -0.00925 0.0
C666 C 0.97223 0.02616 0.01698 0.0
C667 C 0.96359 0.96832 0.0186 0.0
C668 C 0.96921 0.93784 -0.00593 0.0
C669 C 0.97726 -0.00416 -0.00803 0.0
C670 C 0.98798 0.93547 0.94143 0.0
C671 C 0.00158 0.96267 0.91478 0.0
H672 H 0.0171 0.01203 0.36899 0.0
H673 H 0.06317 0.01538 0.543 0.0
H674 H 0.01517 -0.00699 0.5903 0.0
H675 H 0.96101 0.97014 0.58185 0.0
H676 H 0.91423 0.96776 0.40865 0.0
H677 H 0.96187 -0.00877 0.36116 0.0
C678 C 0.01633 0.00861 0.41742 0.0
C679 C 0.04365 0.01545 0.45239 0.0
C680 C 0.98892 -0.0051 0.44422 0.0
C681 C 0.04241 0.01042 0.51506 0.0
C682 C 0.01511 -0.00273 0.5421 0.0
C683 C 0.96158 0.9741 0.53353 0.0
C684 C 0.93453 0.96653 0.49854 0.0
C685 C 0.98856 0.98865 0.50694 0.0
C686 C 0.93508 0.97285 0.43627 0.0
C687 C 0.96213 0.98662 0.40924 0.0
H688 H 0.47843 0.92234 0.46662 0.0
H689 H 0.55052 0.96635 0.5791 0.0
H690 H 0.53043 0.01949 0.55037 0.0
H691 H 0.49251 0.05327 0.49392 0.0
H692 H 0.42079 0.00948 0.38035 0.0
H693 H 0.44046 0.95623 0.40999 0.0
C694 C 0.49 0.9435 0.48463 0.0
C695 C 0.51619 0.9402 0.52476 0.0
C696 C 0.47811 0.97398 0.46841 0.0
C697 C 0.53056 0.96804 0.54782 0.0
C698 C 0.51894 -0.00153 0.53168 0.0
C699 C 0.48081 0.03215 0.47599 0.0
C700 C 0.45488 0.03553 0.43525 0.0
C701 C 0.49263 0.00169 0.49231 0.0
C702 C 0.44051 0.00772 0.41213 0.0
C703 C 0.45191 0.97725 0.42878 0.0
H704 H 0.55789 0.50733 0.44422 0.0
H705 H 0.52004 0.52658 0.62107 0.0
H706 H 0.46678 0.50856 0.58892 0.0
H707 H 0.43109 0.4866 0.51079 0.0
H708 H 0.46927 0.46773 0.33385 0.0
H709 H 0.52213 0.48636 0.36585 0.0
C710 C 0.53792 0.50783 0.47562 0.0
C711 C 0.54294 0.51846 0.53489 0.0
C712 C 0.50742 0.49729 0.45691 0.0
C713 C 0.51678 0.51899 0.57495 0.0
C714 C 0.48636 0.50841 0.55672 0.0
C715 C 0.45101 0.48636 0.47932 0.0
C716 C 0.44617 0.47539 0.42014 0.0
C717 C 0.48144 0.49733 0.49791 0.0
C718 C 0.47231 0.47546 0.37994 0.0
C719 C 0.50256 0.48636 0.39806 0.0
H720 H 0.9805 0.55429 0.45543 0.0
H721 H 0.9489 0.51535 0.6261 0.0
H722 H 0.96795 0.46208 0.59646 0.0
H723 H -0.00485 0.42713 0.52298 0.0
H724 H 0.02874 0.46793 0.35499 0.0
H725 H 0.00815 0.52026 0.38391 0.0
C726 C 0.97738 0.53418 0.48618 0.0
C727 C 0.96315 0.53891 0.54293 0.0
C728 C 0.98945 0.50409 0.4699 0.0
C729 C 0.95944 0.51241 0.5819 0.0
C730 C 0.97069 0.48202 0.56526 0.0
C731 C -0.00164 0.44755 0.49302 0.0
C732 C 0.01364 0.44349 0.43692 0.0
C733 C 0.98621 0.47772 0.50972 0.0
C734 C 0.01745 0.47027 0.39867 0.0
C735 C 0.00535 0.5002 0.41485 0.0
loop_
_geom_bond_atom_site_label_1
_geom_bond_atom_site_label_2
_geom_bond_distance
_geom_bond_site_symmetry_2
_ccdc_geom_bond_type
C0 O1 1.306 . S
C0 O3 1.160 . S
O1 C0 1.306 . S
O1 Cd2 2.228 . S
Cd2 O1 2.228 . S
Cd2 O6 2.273 . S
Cd2 O10 2.277 1_565 S
O3 C0 1.160 . S
O3 Cd4 2.203 1_565 S
Cd4 O3 2.203 1_545 S
Cd4 O6 2.411 1_545 S
Cd4 O7 2.333 . S
Cd4 O8 2.352 1_544 S
Cd4 O12 2.277 . S
Cd4 O13 2.356 . S
C5 O10 1.209 . S
C5 O12 1.226 . S
O6 Cd2 2.273 . S
O6 Cd4 2.411 1_565 S
O6 C9 1.320 . S
O7 Cd4 2.333 . S
O7 C9 1.214 1_545 S
O8 Cd4 2.352 1_566 S
O8 C11 1.258 1_565 S
C9 O6 1.320 . S
C9 O7 1.214 1_565 S
O10 Cd2 2.277 1_545 S
O10 C5 1.209 . S
C11 O8 1.258 1_545 S
C11 O13 1.282 1_556 S
O12 Cd4 2.277 . S
O12 C5 1.226 . S
O13 Cd4 2.356 . S
O13 C11 1.282 1_554 S
C14 O15 1.306 . S
C14 O17 1.160 . S
O15 C14 1.306 . S
O15 Cd16 2.228 . S
Cd16 O15 2.228 . S
Cd16 O20 2.273 . S
Cd16 O24 2.277 . S
O17 C14 1.160 . S
O17 Cd18 2.203 . S
Cd18 O17 2.203 . S
Cd18 O20 2.411 . S
Cd18 O21 2.333 . S
Cd18 O22 2.340 1_554 S
Cd18 O26 2.277 . S
Cd18 O27 2.356 . S
C19 O24 1.209 . S
C19 O26 1.226 . S
O20 Cd16 2.273 . S
O20 Cd18 2.411 . S
O20 C23 1.320 . S
O21 Cd18 2.333 . S
O21 C23 1.214 . S
O22 Cd18 2.340 1_556 S
O22 C25 1.264 . S
C23 O20 1.320 . S
C23 O21 1.214 . S
O24 Cd16 2.277 . S
O24 C19 1.209 . S
C25 O22 1.264 . S
C25 O27 1.282 1_556 S
O26 Cd18 2.277 . S
O26 C19 1.226 . S
O27 Cd18 2.356 . S
O27 C25 1.282 1_554 S
C28 O29 1.306 . S
C28 O31 1.160 . S
O29 C28 1.306 . S
O29 Cd30 2.228 . S
Cd30 O29 2.228 . S
Cd30 O34 2.273 . S
Cd30 O38 2.277 . S
O31 C28 1.160 . S
O31 Cd32 2.203 . S
Cd32 O31 2.203 . S
Cd32 O34 2.411 . S
Cd32 O35 2.333 . S
Cd32 O36 2.341 1_554 S
Cd32 O40 2.277 . S
Cd32 O41 2.356 . S
C33 O38 1.209 . S
C33 O40 1.226 . S
O34 Cd30 2.273 . S
O34 Cd32 2.411 . S
O34 C37 1.320 . S
O35 Cd32 2.333 . S
O35 C37 1.214 . S
O36 Cd32 2.341 1_556 S
O36 C39 1.263 . S
C37 O34 1.320 . S
C37 O35 1.214 . S
O38 Cd30 2.277 . S
O38 C33 1.209 . S
C39 O36 1.263 . S
C39 O41 1.282 1_556 S
O40 Cd32 2.277 . S
O40 C33 1.226 . S
O41 Cd32 2.356 . S
O41 C39 1.282 1_554 S
C42 O43 1.306 . S
C42 O45 1.160 . S
O43 C42 1.306 . S
O43 Cd44 2.228 . S
Cd44 O43 2.228 . S
Cd44 O48 2.273 . S
Cd44 O52 2.277 1_655 S
O45 C42 1.160 . S
O45 Cd46 2.203 1_655 S
Cd46 O45 2.203 1_455 S
Cd46 O48 2.411 1_455 S
Cd46 O49 2.333 . S
Cd46 O50 2.352 1_454 S
Cd46 O54 2.277 . S
Cd46 O55 2.356 . S
C47 O52 1.209 . S
C47 O54 1.226 . S
O48 Cd44 2.273 . S
O48 Cd46 2.411 1_655 S
O48 C51 1.320 . S
O49 Cd46 2.333 . S
O49 C51 1.214 1_455 S
O50 Cd46 2.352 1_656 S
O50 C53 1.258 1_655 S
C51 O48 1.320 . S
C51 O49 1.214 1_655 S
O52 Cd44 2.277 1_455 S
O52 C47 1.209 . S
C53 O50 1.258 1_455 S
C53 O55 1.282 1_556 S
O54 Cd46 2.277 . S
O54 C47 1.226 . S
O55 Cd46 2.356 . S
O55 C53 1.282 1_554 S
C56 O57 1.306 . S
C56 O59 1.160 . S
O57 C56 1.306 . S
O57 Cd58 2.228 . S
Cd58 O57 2.228 . S
Cd58 O62 2.273 . S
Cd58 O66 2.277 1_545 S
O59 C56 1.160 . S
O59 Cd60 2.203 1_545 S
Cd60 O59 2.203 1_565 S
Cd60 O62 2.411 1_565 S
Cd60 O63 2.333 . S
Cd60 O64 2.352 1_565 S
Cd60 O68 2.277 . S
Cd60 O69 2.356 . S
C61 O66 1.209 . S
C61 O68 1.226 . S
O62 Cd58 2.273 . S
O62 Cd60 2.411 1_545 S
O62 C65 1.320 . S
O63 Cd60 2.333 . S
O63 C65 1.214 1_565 S
O64 Cd60 2.352 1_545 S
O64 C67 1.258 1_545 S
C65 O62 1.320 . S
C65 O63 1.214 1_545 S
O66 Cd58 2.277 1_565 S
O66 C61 1.209 . S
C67 O64 1.258 1_565 S
C67 O69 1.282 . S
O68 Cd60 2.277 . S
O68 C61 1.226 . S
O69 Cd60 2.356 . S
O69 C67 1.282 . S
C70 O71 1.306 . S
C70 O73 1.160 . S
O71 C70 1.306 . S
O71 Cd72 2.228 . S
Cd72 O71 2.228 . S
Cd72 O76 2.273 . S
Cd72 O80 2.277 . S
O73 C70 1.160 . S
O73 Cd74 2.203 . S
Cd74 O73 2.203 . S
Cd74 O76 2.411 . S
Cd74 O77 2.333 . S
Cd74 O78 2.352 . S
Cd74 O82 2.277 . S
Cd74 O83 2.356 . S
C75 O80 1.209 . S
C75 O82 1.226 . S
O76 Cd72 2.273 . S
O76 Cd74 2.411 . S
O76 C79 1.320 . S
O77 Cd74 2.333 . S
O77 C79 1.214 . S
O78 Cd74 2.352 . S
O78 C81 1.258 . S
C79 O76 1.320 . S
C79 O77 1.214 . S
O80 Cd72 2.277 . S
O80 C75 1.209 . S
C81 O78 1.258 . S
C81 O83 1.282 . S
O82 Cd74 2.277 . S
O82 C75 1.226 . S
O83 Cd74 2.356 . S
O83 C81 1.282 . S
C84 O85 1.306 . S
C84 O87 1.160 . S
O85 C84 1.306 . S
O85 Cd86 2.228 . S
Cd86 O85 2.228 . S
Cd86 O90 2.273 . S
Cd86 O94 2.277 . S
O87 C84 1.160 . S
O87 Cd88 2.203 . S
Cd88 O87 2.203 . S
Cd88 O90 2.411 . S
Cd88 O91 2.333 . S
Cd88 O92 2.352 . S
Cd88 O96 2.277 . S
Cd88 O97 2.356 . S
C89 O94 1.209 . S
C89 O96 1.226 . S
O90 Cd86 2.273 . S
O90 Cd88 2.411 . S
O90 C93 1.320 . S
O91 Cd88 2.333 . S
O91 C93 1.214 . S
O92 Cd88 2.352 . S
O92 C95 1.258 . S
C93 O90 1.320 . S
C93 O91 1.214 . S
O94 Cd86 2.277 . S
O94 C89 1.209 . S
C95 O92 1.258 . S
C95 O97 1.282 . S
O96 Cd88 2.277 . S
O96 C89 1.226 . S
O97 Cd88 2.356 . S
O97 C95 1.282 . S
C98 O99 1.306 . S
C98 O101 1.160 . S
O99 C98 1.306 . S
O99 Cd100 2.228 . S
Cd100 O99 2.228 . S
Cd100 O104 2.273 . S
Cd100 O108 2.277 1_455 S
O101 C98 1.160 . S
O101 Cd102 2.203 1_455 S
Cd102 O101 2.203 1_655 S
Cd102 O104 2.411 1_655 S
Cd102 O105 2.333 . S
Cd102 O106 2.352 1_655 S
Cd102 O110 2.277 . S
Cd102 O111 2.356 . S
C103 O108 1.209 . S
C103 O110 1.226 . S
O104 Cd100 2.273 . S
O104 Cd102 2.411 1_455 S
O104 C107 1.320 . S
O105 Cd102 2.333 . S
O105 C107 1.214 1_655 S
O106 Cd102 2.352 1_455 S
O106 C109 1.258 1_455 S
C107 O104 1.320 . S
C107 O105 1.214 1_455 S
O108 Cd100 2.277 1_655 S
O108 C103 1.209 . S
C109 O106 1.258 1_655 S
C109 O111 1.282 . S
O110 Cd102 2.277 . S
O110 C103 1.226 . S
O111 Cd102 2.356 . S
O111 C109 1.282 . S
C112 O113 1.306 . S
C112 O115 1.160 . S
O113 C112 1.306 . S
O113 Cd114 2.228 . S
Cd114 O113 2.228 . S
Cd114 O118 2.273 . S
Cd114 O122 2.277 1_545 S
O115 C112 1.160 . S
O115 Cd116 2.203 1_545 S
Cd116 O115 2.203 1_565 S
Cd116 O118 2.411 1_565 S
Cd116 O119 2.333 . S
Cd116 O120 2.352 1_566 S
Cd116 O124 2.277 . S
Cd116 O125 2.356 . S
C117 O122 1.209 . S
C117 O124 1.226 . S
O118 Cd114 2.273 . S
O118 Cd116 2.411 1_545 S
O118 C121 1.320 . S
O119 Cd116 2.333 . S
O119 C121 1.214 1_565 S
O120 Cd116 2.352 1_544 S
O120 C123 1.258 1_545 S
C121 O118 1.320 . S
C121 O119 1.214 1_545 S
O122 Cd114 2.277 1_565 S
O122 C117 1.209 . S
C123 O120 1.258 1_565 S
C123 O125 1.282 1_554 S
O124 Cd116 2.277 . S
O124 C117 1.226 . S
O125 Cd116 2.356 . S
O125 C123 1.282 1_556 S
C126 O127 1.306 . S
C126 O129 1.160 . S
O127 C126 1.306 . S
O127 Cd128 2.228 . S
Cd128 O127 2.228 . S
Cd128 O132 2.273 . S
Cd128 O136 2.277 . S
O129 C126 1.160 . S
O129 Cd130 2.203 . S
Cd130 O129 2.203 . S
Cd130 O132 2.411 . S
Cd130 O133 2.333 . S
Cd130 O134 2.340 1_556 S
Cd130 O138 2.277 . S
Cd130 O139 2.356 . S
C131 O136 1.209 . S
C131 O138 1.226 . S
O132 Cd128 2.273 . S
O132 Cd130 2.411 . S
O132 C135 1.320 . S
O133 Cd130 2.333 . S
O133 C135 1.214 . S
O134 Cd130 2.340 1_554 S
O134 C137 1.264 . S
C135 O132 1.320 . S
C135 O133 1.214 . S
O136 Cd128 2.277 . S
O136 C131 1.209 . S
C137 O134 1.264 . S
C137 O139 1.282 1_554 S
O138 Cd130 2.277 . S
O138 C131 1.226 . S
O139 Cd130 2.356 . S
O139 C137 1.282 1_556 S
C140 O141 1.306 . S
C140 O143 1.160 . S
O141 C140 1.306 . S
O141 Cd142 2.228 . S
Cd142 O141 2.228 . S
Cd142 O146 2.273 . S
Cd142 O150 2.277 . S
O143 C140 1.160 . S
O143 Cd144 2.203 . S
Cd144 O143 2.203 . S
Cd144 O146 2.411 . S
Cd144 O147 2.333 . S
Cd144 O148 2.341 1_556 S
Cd144 O152 2.277 . S
Cd144 O153 2.356 . S
C145 O150 1.209 . S
C145 O152 1.226 . S
O146 Cd142 2.273 . S
O146 Cd144 2.411 . S
O146 C149 1.320 . S
O147 Cd144 2.333 . S
O147 C149 1.214 . S
O148 Cd144 2.341 1_554 S
O148 C151 1.263 . S
C149 O146 1.320 . S
C149 O147 1.214 . S
O150 Cd142 2.277 . S
O150 C145 1.209 . S
C151 O148 1.263 . S
C151 O153 1.282 1_554 S
O152 Cd144 2.277 . S
O152 C145 1.226 . S
O153 Cd144 2.356 . S
O153 C151 1.282 1_556 S
C154 O155 1.306 . S
C154 O157 1.160 . S
O155 C154 1.306 . S
O155 Cd156 2.228 . S
Cd156 O155 2.228 . S
Cd156 O160 2.273 . S
Cd156 O164 2.277 1_455 S
O157 C154 1.160 . S
O157 Cd158 2.203 1_455 S
Cd158 O157 2.203 1_655 S
Cd158 O160 2.411 1_655 S
Cd158 O161 2.333 . S
Cd158 O162 2.352 1_656 S
Cd158 O166 2.277 . S
Cd158 O167 2.356 . S
C159 O164 1.209 . S
C159 O166 1.226 . S
O160 Cd156 2.273 . S
O160 Cd158 2.411 1_455 S
O160 C163 1.320 . S
O161 Cd158 2.333 . S
O161 C163 1.214 1_655 S
O162 Cd158 2.352 1_454 S
O162 C165 1.258 1_455 S
C163 O160 1.320 . S
C163 O161 1.214 1_455 S
O164 Cd156 2.277 1_655 S
O164 C159 1.209 . S
C165 O162 1.258 1_655 S
C165 O167 1.282 1_554 S
O166 Cd158 2.277 . S
O166 C159 1.226 . S
O167 Cd158 2.356 . S
O167 C165 1.282 1_556 S
C168 O169 1.306 . S
C168 O171 1.160 . S
O169 C168 1.306 . S
O169 Cd170 2.228 . S
Cd170 O169 2.228 . S
Cd170 O174 2.273 . S
Cd170 O178 2.277 1_565 S
O171 C168 1.160 . S
O171 Cd172 2.203 1_565 S
Cd172 O171 2.203 1_545 S
Cd172 O174 2.411 1_545 S
Cd172 O175 2.333 . S
Cd172 O176 2.352 1_545 S
Cd172 O180 2.277 . S
Cd172 O181 2.356 . S
C173 O178 1.209 . S
C173 O180 1.226 . S
O174 Cd170 2.273 . S
O174 Cd172 2.411 1_565 S
O174 C177 1.320 . S
O175 Cd172 2.333 . S
O175 C177 1.214 1_545 S
O176 Cd172 2.352 1_565 S
O176 C179 1.258 1_565 S
C177 O174 1.320 . S
C177 O175 1.214 1_565 S
O178 Cd170 2.277 1_545 S
O178 C173 1.209 . S
C179 O176 1.258 1_545 S
C179 O181 1.282 . S
O180 Cd172 2.277 . S
O180 C173 1.226 . S
O181 Cd172 2.356 . S
O181 C179 1.282 . S
C182 O183 1.306 . S
C182 O185 1.160 . S
O183 C182 1.306 . S
O183 Cd184 2.228 . S
Cd184 O183 2.228 . S
Cd184 O188 2.273 . S
Cd184 O192 2.277 . S
O185 C182 1.160 . S
O185 Cd186 2.203 . S
Cd186 O185 2.203 . S
Cd186 O188 2.411 . S
Cd186 O189 2.333 . S
Cd186 O190 2.352 . S
Cd186 O194 2.277 . S
Cd186 O195 2.356 . S
C187 O192 1.209 . S
C187 O194 1.226 . S
O188 Cd184 2.273 . S
O188 Cd186 2.411 . S
O188 C191 1.320 . S
O189 Cd186 2.333 . S
O189 C191 1.214 . S
O190 Cd186 2.352 . S
O190 C193 1.258 . S
C191 O188 1.320 . S
C191 O189 1.214 . S
O192 Cd184 2.277 . S
O192 C187 1.209 . S
C193 O190 1.258 . S
C193 O195 1.282 . S
O194 Cd186 2.277 . S
O194 C187 1.226 . S
O195 Cd186 2.356 . S
O195 C193 1.282 . S
C196 O197 1.306 . S
C196 O199 1.160 . S
O197 C196 1.306 . S
O197 Cd198 2.228 . S
Cd198 O197 2.228 . S
Cd198 O202 2.273 . S
Cd198 O206 2.277 . S
O199 C196 1.160 . S
O199 Cd200 2.203 . S
Cd200 O199 2.203 . S
Cd200 O202 2.411 . S
Cd200 O203 2.333 . S
Cd200 O204 2.352 . S
Cd200 O208 2.277 . S
Cd200 O209 2.356 . S
C201 O206 1.209 . S
C201 O208 1.226 . S
O202 Cd198 2.273 . S
O202 Cd200 2.411 . S
O202 C205 1.320 . S
O203 Cd200 2.333 . S
O203 C205 1.214 . S
O204 Cd200 2.352 . S
O204 C207 1.258 . S
C205 O202 1.320 . S
C205 O203 1.214 . S
O206 Cd198 2.277 . S
O206 C201 1.209 . S
C207 O204 1.258 . S
C207 O209 1.282 . S
O208 Cd200 2.277 . S
O208 C201 1.226 . S
O209 Cd200 2.356 . S
O209 C207 1.282 . S
C210 O211 1.306 . S
C210 O213 1.160 . S
O211 C210 1.306 . S
O211 Cd212 2.228 . S
Cd212 O211 2.228 . S
Cd212 O216 2.273 . S
Cd212 O220 2.277 1_655 S
O213 C210 1.160 . S
O213 Cd214 2.203 1_655 S
Cd214 O213 2.203 1_455 S
Cd214 O216 2.411 1_455 S
Cd214 O217 2.333 . S
Cd214 O218 2.352 1_455 S
Cd214 O222 2.277 . S
Cd214 O223 2.356 . S
C215 O220 1.209 . S
C215 O222 1.226 . S
O216 Cd212 2.273 . S
O216 Cd214 2.411 1_655 S
O216 C219 1.320 . S
O217 Cd214 2.333 . S
O217 C219 1.214 1_455 S
O218 Cd214 2.352 1_655 S
O218 C221 1.258 1_655 S
C219 O216 1.320 . S
C219 O217 1.214 1_655 S
O220 Cd212 2.277 1_455 S
O220 C215 1.209 . S
C221 O218 1.258 1_455 S
C221 O223 1.282 . S
O222 Cd214 2.277 . S
O222 C215 1.226 . S
O223 Cd214 2.356 . S
O223 C221 1.282 . S
H224 C230 0.930 . S
H225 C233 0.930 . S
H226 C234 0.930 . S
H227 C235 0.930 . S
H228 C238 0.930 . S
H229 C239 0.930 . S
C230 H224 0.930 . S
C230 C231 1.355 . S
C230 C232 1.415 . S
C231 C230 1.355 . S
C231 C233 1.419 . S
C232 C230 1.415 . S
C232 C237 1.425 . S
C232 C239 1.409 . S
C233 H225 0.930 . S
C233 C231 1.419 . S
C233 C234 1.362 . S
C234 H226 0.930 . S
C234 C233 1.362 . S
C234 C237 1.409 . S
C235 H227 0.930 . S
C235 C236 1.355 . S
C235 C237 1.415 . S
C236 C235 1.355 . S
C236 C238 1.419 . S
C237 C232 1.425 . S
C237 C234 1.409 . S
C237 C235 1.415 . S
C238 H228 0.930 . S
C238 C236 1.419 . S
C238 C239 1.362 . S
C239 H229 0.930 . S
C239 C232 1.409 . S
C239 C238 1.362 . S
H240 C246 0.930 . S
H241 C249 0.930 . S
H242 C250 0.930 . S
H243 C251 0.930 . S
H244 C254 0.930 . S
H245 C255 0.930 . S
C246 H240 0.930 . S
C246 C247 1.355 . S
C246 C248 1.415 . S
C247 C246 1.355 . S
C247 C249 1.419 . S
C248 C246 1.415 . S
C248 C253 1.425 . S
C248 C255 1.409 . S
C249 H241 0.930 . S
C249 C247 1.419 . S
C249 C250 1.362 . S
C250 H242 0.930 . S
C250 C249 1.362 . S
C250 C253 1.409 . S
C251 H243 0.930 . S
C251 C252 1.355 . S
C251 C253 1.415 . S
C252 C251 1.355 . S
C252 C254 1.419 . S
C253 C248 1.425 . S
C253 C250 1.409 . S
C253 C251 1.415 . S
C254 H244 0.930 . S
C254 C252 1.419 . S
C254 C255 1.362 . S
C255 H245 0.930 . S
C255 C248 1.409 . S
C255 C254 1.362 . S
H256 C262 0.930 . S
H257 C265 0.930 . S
H258 C266 0.930 . S
H259 C267 0.930 . S
H260 C270 0.930 . S
H261 C271 0.930 . S
C262 H256 0.930 . S
C262 C263 1.355 . S
C262 C264 1.415 . S
C263 C262 1.355 . S
C263 C265 1.419 . S
C264 C262 1.415 . S
C264 C269 1.425 . S
C264 C271 1.409 . S
C265 H257 0.930 . S
C265 C263 1.419 . S
C265 C266 1.362 . S
C266 H258 0.930 . S
C266 C265 1.362 . S
C266 C269 1.409 . S
C267 H259 0.930 . S
C267 C268 1.355 . S
C267 C269 1.415 . S
C268 C267 1.355 . S
C268 C270 1.419 . S
C269 C264 1.425 . S
C269 C266 1.409 . S
C269 C267 1.415 . S
C270 H260 0.930 . S
C270 C268 1.419 . S
C270 C271 1.362 . S
C271 H261 0.930 . S
C271 C264 1.409 . S
C271 C270 1.362 . S
H272 C278 0.930 . S
H273 C281 0.930 . S
H274 C282 0.930 . S
H275 C283 0.930 . S
H276 C286 0.930 . S
H277 C287 0.930 . S
C278 H272 0.930 . S
C278 C279 1.355 . S
C278 C280 1.415 . S
C279 C278 1.355 . S
C279 C281 1.419 . S
C280 C278 1.415 . S
C280 C285 1.425 . S
C280 C287 1.409 . S
C281 H273 0.930 . S
C281 C279 1.419 . S
C281 C282 1.362 . S
C282 H274 0.930 . S
C282 C281 1.362 . S
C282 C285 1.409 . S
C283 H275 0.930 . S
C283 C284 1.355 . S
C283 C285 1.415 . S
C284 C283 1.355 . S
C284 C286 1.419 . S
C285 C280 1.425 . S
C285 C282 1.409 . S
C285 C283 1.415 . S
C286 H276 0.930 . S
C286 C284 1.419 . S
C286 C287 1.362 . S
C287 H277 0.930 . S
C287 C280 1.409 . S
C287 C286 1.362 . S
H288 C294 0.930 . S
H289 C297 0.930 . S
H290 C298 0.930 . S
H291 C299 0.930 . S
H292 C302 0.930 . S
H293 C303 0.930 . S
C294 H288 0.930 . S
C294 C295 1.355 . S
C294 C296 1.415 . S
C295 C294 1.355 . S
C295 C297 1.419 . S
C296 C294 1.415 . S
C296 C301 1.425 . S
C296 C303 1.409 . S
C297 H289 0.930 . S
C297 C295 1.419 . S
C297 C298 1.362 . S
C298 H290 0.930 . S
C298 C297 1.362 . S
C298 C301 1.409 . S
C299 H291 0.930 . S
C299 C300 1.355 . S
C299 C301 1.415 . S
C300 C299 1.355 . S
C300 C302 1.419 . S
C301 C296 1.425 . S
C301 C298 1.409 . S
C301 C299 1.415 . S
C302 H292 0.930 . S
C302 C300 1.419 . S
C302 C303 1.362 . S
C303 H293 0.930 . S
C303 C296 1.409 . S
C303 C302 1.362 . S
H304 C310 0.930 . S
H305 C313 0.930 . S
H306 C314 0.930 . S
H307 C315 0.930 . S
H308 C318 0.930 . S
H309 C319 0.930 . S
C310 H304 0.930 . S
C310 C311 1.355 . S
C310 C312 1.415 . S
C311 C310 1.355 . S
C311 C313 1.419 . S
C312 C310 1.415 . S
C312 C317 1.425 . S
C312 C319 1.409 . S
C313 H305 0.930 . S
C313 C311 1.419 . S
C313 C314 1.362 . S
C314 H306 0.930 . S
C314 C313 1.362 . S
C314 C317 1.409 . S
C315 H307 0.930 . S
C315 C316 1.355 . S
C315 C317 1.415 . S
C316 C315 1.355 . S
C316 C318 1.419 . S
C317 C312 1.425 . S
C317 C314 1.409 . S
C317 C315 1.415 . S
C318 H308 0.930 . S
C318 C316 1.419 . S
C318 C319 1.362 . S
C319 H309 0.930 . S
C319 C312 1.409 . S
C319 C318 1.362 . S
H320 C326 0.930 . S
H321 C329 0.930 . S
H322 C330 0.930 . S
H323 C331 0.930 . S
H324 C334 0.930 . S
H325 C335 0.930 . S
C326 H320 0.930 . S
C326 C327 1.355 . S
C326 C328 1.415 . S
C327 C326 1.355 . S
C327 C329 1.419 . S
C328 C326 1.415 . S
C328 C333 1.425 . S
C328 C335 1.409 . S
C329 H321 0.930 . S
C329 C327 1.419 . S
C329 C330 1.362 . S
C330 H322 0.930 . S
C330 C329 1.362 . S
C330 C333 1.409 . S
C331 H323 0.930 . S
C331 C332 1.355 . S
C331 C333 1.415 . S
C332 C331 1.355 . S
C332 C334 1.419 . S
C333 C328 1.425 . S
C333 C330 1.409 . S
C333 C331 1.415 . S
C334 H324 0.930 . S
C334 C332 1.419 . S
C334 C335 1.362 . S
C335 H325 0.930 . S
C335 C328 1.409 . S
C335 C334 1.362 . S
H336 C342 0.930 . S
H337 C345 0.930 . S
H338 C346 0.930 . S
H339 C347 0.930 . S
H340 C350 0.930 . S
H341 C351 0.930 . S
C342 H336 0.930 . S
C342 C343 1.355 . S
C342 C344 1.415 . S
C343 C342 1.355 . S
C343 C345 1.419 . S
C344 C342 1.415 . S
C344 C349 1.425 . S
C344 C351 1.409 . S
C345 H337 0.930 . S
C345 C343 1.419 . S
C345 C346 1.362 . S
C346 H338 0.930 . S
C346 C345 1.362 . S
C346 C349 1.409 . S
C347 H339 0.930 . S
C347 C348 1.355 . S
C347 C349 1.415 . S
C348 C347 1.355 . S
C348 C350 1.419 . S
C349 C344 1.425 . S
C349 C346 1.409 . S
C349 C347 1.415 . S
C350 H340 0.930 . S
C350 C348 1.419 . S
C350 C351 1.362 . S
C351 H341 0.930 . S
C351 C344 1.409 . S
C351 C350 1.362 . S
H352 C358 0.930 . S
H353 C361 0.930 . S
H354 C362 0.930 . S
H355 C363 0.930 . S
H356 C366 0.930 . S
H357 C367 0.930 . S
C358 H352 0.930 . S
C358 C359 1.358 . S
C358 C360 1.415 . S
C359 C358 1.358 . S
C359 C361 1.417 1_565 S
C360 C358 1.415 . S
C360 C365 1.425 . S
C360 C367 1.409 . S
C361 H353 0.930 . S
C361 C359 1.417 1_545 S
C361 C362 1.362 . S
C362 H354 0.930 . S
C362 C361 1.362 . S
C362 C365 1.409 1_545 S
C363 H355 0.930 . S
C363 C364 1.355 . S
C363 C365 1.415 . S
C364 C363 1.355 . S
C364 C366 1.419 . S
C365 C360 1.425 . S
C365 C362 1.409 1_565 S
C365 C363 1.415 . S
C366 H356 0.930 . S
C366 C364 1.419 . S
C366 C367 1.362 . S
C367 H357 0.930 . S
C367 C360 1.409 . S
C367 C366 1.362 . S
H368 C374 0.930 . S
H369 C377 0.930 . S
H370 C378 0.930 . S
H371 C379 0.930 . S
H372 C382 0.930 . S
H373 C383 0.930 . S
C374 H368 0.930 . S
C374 C375 1.355 . S
C374 C376 1.415 . S
C375 C374 1.355 . S
C375 C377 1.419 . S
C376 C374 1.415 . S
C376 C381 1.425 . S
C376 C383 1.409 . S
C377 H369 0.930 . S
C377 C375 1.419 . S
C377 C378 1.362 . S
C378 H370 0.930 . S
C378 C377 1.362 . S
C378 C381 1.409 . S
C379 H371 0.930 . S
C379 C380 1.355 . S
C379 C381 1.415 . S
C380 C379 1.355 . S
C380 C382 1.419 . S
C381 C376 1.425 . S
C381 C378 1.409 . S
C381 C379 1.415 . S
C382 H372 0.930 . S
C382 C380 1.419 . S
C382 C383 1.362 . S
C383 H373 0.930 . S
C383 C376 1.409 . S
C383 C382 1.362 . S
H384 C390 0.930 . S
H385 C393 0.930 . S
H386 C394 0.930 . S
H387 C395 0.930 . S
H388 C398 0.930 . S
H389 C399 0.930 . S
C390 H384 0.930 . S
C390 C391 1.355 . S
C390 C392 1.415 . S
C391 C390 1.355 . S
C391 C393 1.419 . S
C392 C390 1.415 . S
C392 C397 1.425 . S
C392 C399 1.409 . S
C393 H385 0.930 . S
C393 C391 1.419 . S
C393 C394 1.362 . S
C394 H386 0.930 . S
C394 C393 1.362 . S
C394 C397 1.409 . S
C395 H387 0.930 . S
C395 C396 1.355 . S
C395 C397 1.415 . S
C396 C395 1.355 . S
C396 C398 1.419 . S
C397 C392 1.425 . S
C397 C394 1.409 . S
C397 C395 1.415 . S
C398 H388 0.930 . S
C398 C396 1.419 . S
C398 C399 1.362 . S
C399 H389 0.930 . S
C399 C392 1.409 . S
C399 C398 1.362 . S
H400 C406 0.930 . S
H401 C409 0.930 . S
H402 C410 0.930 . S
H403 C411 0.930 . S
H404 C414 0.930 . S
H405 C415 0.930 . S
C406 H400 0.930 . S
C406 C407 1.355 1_455 S
C406 C408 1.415 . S
C407 C406 1.355 1_655 S
C407 C409 1.419 . S
C408 C406 1.415 . S
C408 C413 1.425 1_455 S
C408 C415 1.409 . S
C409 H401 0.930 . S
C409 C407 1.419 . S
C409 C410 1.362 . S
C410 H402 0.930 . S
C410 C409 1.362 . S
C410 C413 1.409 . S
C411 H403 0.930 . S
C411 C412 1.355 . S
C411 C413 1.415 . S
C412 C411 1.355 . S
C412 C414 1.419 1_655 S
C413 C408 1.425 1_655 S
C413 C410 1.409 . S
C413 C411 1.415 . S
C414 H404 0.930 . S
C414 C412 1.419 1_455 S
C414 C415 1.362 . S
C415 H405 0.930 . S
C415 C408 1.409 . S
C415 C414 1.362 . S
H416 C422 0.930 . S
H417 C425 0.930 . S
H418 C426 0.930 . S
H419 C427 0.930 1_565 S
H420 C430 0.930 . S
H421 C431 0.930 . S
C422 H416 0.930 . S
C422 C423 1.355 1_545 S
C422 C424 1.415 . S
C423 C422 1.355 1_565 S
C423 C425 1.419 . S
C424 C422 1.415 . S
C424 C429 1.425 . S
C424 C431 1.409 . S
C425 H417 0.930 . S
C425 C423 1.419 . S
C425 C426 1.362 . S
C426 H418 0.930 . S
C426 C425 1.362 . S
C426 C429 1.409 1_565 S
C427 H419 0.930 1_545 S
C427 C428 1.355 . S
C427 C429 1.415 . S
C428 C427 1.355 . S
C428 C430 1.419 . S
C429 C424 1.425 . S
C429 C426 1.409 1_545 S
C429 C427 1.415 . S
C430 H420 0.930 . S
C430 C428 1.419 . S
C430 C431 1.362 . S
C431 H421 0.930 . S
C431 C424 1.409 . S
C431 C430 1.362 . S
H432 C438 0.930 . S
H433 C441 0.930 . S
H434 C442 0.930 . S
H435 C443 0.930 . S
H436 C446 0.930 . S
H437 C447 0.930 . S
C438 H432 0.930 . S
C438 C439 1.355 . S
C438 C440 1.415 . S
C439 C438 1.355 . S
C439 C441 1.419 . S
C440 C438 1.415 . S
C440 C445 1.425 . S
C440 C447 1.409 . S
C441 H433 0.930 . S
C441 C439 1.419 . S
C441 C442 1.362 . S
C442 H434 0.930 . S
C442 C441 1.362 . S
C442 C445 1.409 . S
C443 H435 0.930 . S
C443 C444 1.355 . S
C443 C445 1.415 . S
C444 C443 1.355 . S
C444 C446 1.419 . S
C445 C440 1.425 . S
C445 C442 1.409 . S
C445 C443 1.415 . S
C446 H436 0.930 . S
C446 C444 1.419 . S
C446 C447 1.362 . S
C447 H437 0.930 . S
C447 C440 1.409 . S
C447 C446 1.362 . S
H448 C454 0.930 . S
H449 C457 0.930 . S
H450 C458 0.930 . S
H451 C459 0.930 . S
H452 C462 0.930 . S
H453 C463 0.930 . S
C454 H448 0.930 . S
C454 C455 1.355 . S
C454 C456 1.415 . S
C455 C454 1.355 . S
C455 C457 1.419 . S
C456 C454 1.415 . S
C456 C461 1.425 . S
C456 C463 1.409 . S
C457 H449 0.930 . S
C457 C455 1.419 . S
C457 C458 1.362 . S
C458 H450 0.930 . S
C458 C457 1.362 . S
C458 C461 1.409 . S
C459 H451 0.930 . S
C459 C460 1.355 . S
C459 C461 1.415 . S
C460 C459 1.355 . S
C460 C462 1.419 . S
C461 C456 1.425 . S
C461 C458 1.409 . S
C461 C459 1.415 . S
C462 H452 0.930 . S
C462 C460 1.419 . S
C462 C463 1.362 . S
C463 H453 0.930 . S
C463 C456 1.409 . S
C463 C462 1.362 . S
H464 C470 0.930 . S
H465 C473 0.930 . S
H466 C474 0.930 . S
H467 C475 0.930 1_655 S
H468 C478 0.930 . S
H469 C479 0.930 . S
C470 H464 0.930 . S
C470 C471 1.340 1_455 S
C470 C472 1.415 . S
C471 C470 1.340 1_655 S
C471 C473 1.432 . S
C472 C470 1.415 . S
C472 C477 1.425 . S
C472 C479 1.409 . S
C473 H465 0.930 . S
C473 C471 1.432 . S
C473 C474 1.362 . S
C474 H466 0.930 . S
C474 C473 1.362 . S
C474 C477 1.409 1_655 S
C475 H467 0.930 1_455 S
C475 C476 1.355 . S
C475 C477 1.415 . S
C476 C475 1.355 . S
C476 C478 1.419 . S
C477 C472 1.425 . S
C477 C474 1.409 1_455 S
C477 C475 1.415 . S
C478 H468 0.930 . S
C478 C476 1.419 . S
C478 C479 1.362 . S
C479 H469 0.930 . S
C479 C472 1.409 . S
C479 C478 1.362 . S
H480 C486 0.930 . S
H481 C489 0.930 . S
H482 C490 0.930 . S
H483 C491 0.930 . S
H484 C494 0.930 . S
H485 C495 0.930 . S
C486 H480 0.930 . S
C486 C487 1.355 . S
C486 C488 1.415 . S
C487 C486 1.355 . S
C487 C489 1.419 1_545 S
C488 C486 1.415 . S
C488 C493 1.425 1_545 S
C488 C495 1.409 . S
C489 H481 0.930 . S
C489 C487 1.419 1_565 S
C489 C490 1.362 . S
C490 H482 0.930 . S
C490 C489 1.362 . S
C490 C493 1.409 . S
C491 H483 0.930 . S
C491 C492 1.355 1_565 S
C491 C493 1.415 . S
C492 C491 1.355 1_545 S
C492 C494 1.419 . S
C493 C488 1.425 1_565 S
C493 C490 1.409 . S
C493 C491 1.415 . S
C494 H484 0.930 . S
C494 C492 1.419 . S
C494 C495 1.362 . S
C495 H485 0.930 . S
C495 C488 1.409 . S
C495 C494 1.362 . S
H496 C502 0.930 . S
H497 C505 0.930 . S
H498 C506 0.930 . S
H499 C507 0.930 . S
H500 C510 0.930 . S
H501 C511 0.930 . S
C502 H496 0.930 . S
C502 C503 1.355 . S
C502 C504 1.415 . S
C503 C502 1.355 . S
C503 C505 1.419 . S
C504 C502 1.415 . S
C504 C509 1.425 . S
C504 C511 1.409 . S
C505 H497 0.930 . S
C505 C503 1.419 . S
C505 C506 1.362 . S
C506 H498 0.930 . S
C506 C505 1.362 . S
C506 C509 1.409 . S
C507 H499 0.930 . S
C507 C508 1.355 . S
C507 C509 1.415 . S
C508 C507 1.355 . S
C508 C510 1.419 . S
C509 C504 1.425 . S
C509 C506 1.409 . S
C509 C507 1.415 . S
C510 H500 0.930 . S
C510 C508 1.419 . S
C510 C511 1.362 . S
C511 H501 0.930 . S
C511 C504 1.409 . S
C511 C510 1.362 . S
H512 C518 0.930 . S
H513 C521 0.930 . S
H514 C522 0.930 . S
H515 C523 0.930 . S
H516 C526 0.930 . S
H517 C527 0.930 . S
C518 H512 0.930 . S
C518 C519 1.355 . S
C518 C520 1.415 . S
C519 C518 1.355 . S
C519 C521 1.419 . S
C520 C518 1.415 . S
C520 C525 1.425 . S
C520 C527 1.409 . S
C521 H513 0.930 . S
C521 C519 1.419 . S
C521 C522 1.362 . S
C522 H514 0.930 . S
C522 C521 1.362 . S
C522 C525 1.409 . S
C523 H515 0.930 . S
C523 C524 1.355 . S
C523 C525 1.415 . S
C524 C523 1.355 . S
C524 C526 1.419 . S
C525 C520 1.425 . S
C525 C522 1.409 . S
C525 C523 1.415 . S
C526 H516 0.930 . S
C526 C524 1.419 . S
C526 C527 1.362 . S
C527 H517 0.930 . S
C527 C520 1.409 . S
C527 C526 1.362 . S
H528 C534 0.930 . S
H529 C537 0.930 . S
H530 C538 0.930 . S
H531 C539 0.930 . S
H532 C542 0.930 . S
H533 C543 0.930 . S
C534 H528 0.930 . S
C534 C535 1.355 1_655 S
C534 C536 1.415 . S
C535 C534 1.355 1_455 S
C535 C537 1.419 . S
C536 C534 1.415 . S
C536 C541 1.425 1_655 S
C536 C543 1.409 . S
C537 H529 0.930 . S
C537 C535 1.419 . S
C537 C538 1.362 . S
C538 H530 0.930 . S
C538 C537 1.362 . S
C538 C541 1.409 . S
C539 H531 0.930 . S
C539 C540 1.355 . S
C539 C541 1.415 . S
C540 C539 1.355 . S
C540 C542 1.419 1_455 S
C541 C536 1.425 1_455 S
C541 C538 1.409 . S
C541 C539 1.415 . S
C542 H532 0.930 . S
C542 C540 1.419 1_655 S
C542 C543 1.362 . S
C543 H533 0.930 . S
C543 C536 1.409 . S
C543 C542 1.362 . S
H544 C550 0.930 . S
H545 C553 0.930 . S
H546 C554 0.930 . S
H547 C555 0.930 . S
H548 C558 0.930 . S
H549 C559 0.930 . S
C550 H544 0.930 . S
C550 C551 1.355 . S
C550 C552 1.415 . S
C551 C550 1.355 . S
C551 C553 1.419 . S
C552 C550 1.415 . S
C552 C557 1.425 . S
C552 C559 1.409 1_565 S
C553 H545 0.930 . S
C553 C551 1.419 . S
C553 C554 1.362 . S
C554 H546 0.930 . S
C554 C553 1.362 . S
C554 C557 1.409 . S
C555 H547 0.930 . S
C555 C556 1.355 1_565 S
C555 C557 1.415 . S
C556 C555 1.355 1_545 S
C556 C558 1.419 . S
C557 C552 1.425 . S
C557 C554 1.409 . S
C557 C555 1.415 . S
C558 H548 0.930 . S
C558 C556 1.419 . S
C558 C559 1.362 . S
C559 H549 0.930 . S
C559 C552 1.409 1_545 S
C559 C558 1.362 . S
H560 C566 0.930 . S
H561 C569 0.930 . S
H562 C570 0.930 . S
H563 C571 0.930 . S
H564 C574 0.930 . S
H565 C575 0.930 . S
C566 H560 0.930 . S
C566 C567 1.355 . S
C566 C568 1.415 . S
C567 C566 1.355 . S
C567 C569 1.419 . S
C568 C566 1.415 . S
C568 C573 1.425 . S
C568 C575 1.409 . S
C569 H561 0.930 . S
C569 C567 1.419 . S
C569 C570 1.362 . S
C570 H562 0.930 . S
C570 C569 1.362 . S
C570 C573 1.409 . S
C571 H563 0.930 . S
C571 C572 1.355 . S
C571 C573 1.415 . S
C572 C571 1.355 . S
C572 C574 1.419 . S
C573 C568 1.425 . S
C573 C570 1.409 . S
C573 C571 1.415 . S
C574 H564 0.930 . S
C574 C572 1.419 . S
C574 C575 1.362 . S
C575 H565 0.930 . S
C575 C568 1.409 . S
C575 C574 1.362 . S
H576 C582 0.930 . S
H577 C585 0.930 . S
H578 C586 0.930 . S
H579 C587 0.930 . S
H580 C590 0.930 . S
H581 C591 0.930 . S
C582 H576 0.930 . S
C582 C583 1.355 . S
C582 C584 1.415 . S
C583 C582 1.355 . S
C583 C585 1.419 . S
C584 C582 1.415 . S
C584 C589 1.425 . S
C584 C591 1.409 . S
C585 H577 0.930 . S
C585 C583 1.419 . S
C585 C586 1.362 . S
C586 H578 0.930 . S
C586 C585 1.362 . S
C586 C589 1.409 . S
C587 H579 0.930 . S
C587 C588 1.355 . S
C587 C589 1.415 . S
C588 C587 1.355 . S
C588 C590 1.419 . S
C589 C584 1.425 . S
C589 C586 1.409 . S
C589 C587 1.415 . S
C590 H580 0.930 . S
C590 C588 1.419 . S
C590 C591 1.362 . S
C591 H581 0.930 . S
C591 C584 1.409 . S
C591 C590 1.362 . S
H592 C598 0.957 . S
H593 C601 0.930 . S
H594 C602 0.930 . S
H595 C603 0.930 . S
H596 C606 0.930 . S
H597 C607 0.930 . S
C598 H592 0.957 . S
C598 C599 1.327 1_455 S
C598 C600 1.416 . S
C599 C598 1.327 1_655 S
C599 C601 1.419 . S
C600 C598 1.416 . S
C600 C605 1.425 1_455 S
C600 C607 1.409 . S
C601 H593 0.930 . S
C601 C599 1.419 . S
C601 C602 1.362 . S
C602 H594 0.930 . S
C602 C601 1.362 . S
C602 C605 1.409 . S
C603 H595 0.930 . S
C603 C604 1.355 1_655 S
C603 C605 1.415 . S
C604 C603 1.355 1_455 S
C604 C606 1.419 . S
C605 C600 1.425 1_655 S
C605 C602 1.409 . S
C605 C603 1.415 . S
C606 H596 0.930 . S
C606 C604 1.419 . S
C606 C607 1.362 . S
C607 H597 0.930 . S
C607 C600 1.409 . S
C607 C606 1.362 . S
H608 C614 0.915 1_565 S
H609 C617 0.930 . S
H610 C618 0.930 . S
H611 C619 0.930 1_545 S
H612 C622 0.930 . S
H613 C623 0.930 . S
C614 H608 0.915 1_545 S
C614 C615 1.378 1_554 S
C614 C616 1.406 1_545 S
C615 C614 1.378 1_556 S
C615 C617 1.419 . S
C616 C614 1.406 1_565 S
C616 C621 1.425 1_564 S
C616 C623 1.409 . S
C617 H609 0.930 . S
C617 C615 1.419 . S
C617 C618 1.362 . S
C618 H610 0.930 . S
C618 C617 1.362 . S
C618 C621 1.409 . S
C619 H611 0.930 1_565 S
C619 C620 1.355 1_556 S
C619 C621 1.415 1_565 S
C620 C619 1.355 1_554 S
C620 C622 1.419 . S
C621 C616 1.425 1_546 S
C621 C618 1.409 . S
C621 C619 1.415 1_545 S
C622 H612 0.930 . S
C622 C620 1.419 . S
C622 C623 1.362 . S
C623 H613 0.930 . S
C623 C616 1.409 . S
C623 C622 1.362 . S
H624 C630 0.930 . S
H625 C633 0.930 . S
H626 C634 0.930 . S
H627 C635 0.930 . S
H628 C638 0.930 . S
H629 C639 0.930 . S
C630 H624 0.930 . S
C630 C631 1.355 . S
C630 C632 1.415 . S
C631 C630 1.355 . S
C631 C633 1.419 1_556 S
C632 C630 1.415 . S
C632 C637 1.425 1_556 S
C632 C639 1.409 . S
C633 H625 0.930 . S
C633 C631 1.419 1_554 S
C633 C634 1.362 . S
C634 H626 0.930 . S
C634 C633 1.362 . S
C634 C637 1.409 . S
C635 H627 0.930 . S
C635 C636 1.355 . S
C635 C637 1.415 . S
C636 C635 1.355 . S
C636 C638 1.419 1_554 S
C637 C632 1.425 1_554 S
C637 C634 1.409 . S
C637 C635 1.415 . S
C638 H628 0.930 . S
C638 C636 1.419 1_556 S
C638 C639 1.362 . S
C639 H629 0.930 . S
C639 C632 1.409 . S
C639 C638 1.362 . S
H640 C646 0.930 . S
H641 C649 0.930 . S
H642 C650 0.930 . S
H643 C651 0.930 . S
H644 C654 0.930 . S
H645 C655 0.930 . S
C646 H640 0.930 . S
C646 C647 1.355 . S
C646 C648 1.415 1_655 S
C647 C646 1.355 . S
C647 C649 1.419 . S
C648 C646 1.415 1_455 S
C648 C653 1.425 1_454 S
C648 C655 1.409 . S
C649 H641 0.930 . S
C649 C647 1.419 . S
C649 C650 1.362 1_554 S
C650 H642 0.930 . S
C650 C649 1.362 1_556 S
C650 C653 1.409 . S
C651 H643 0.930 . S
C651 C652 1.355 . S
C651 C653 1.415 1_455 S
C652 C651 1.355 . S
C652 C654 1.419 . S
C653 C648 1.425 1_656 S
C653 C650 1.409 . S
C653 C651 1.415 1_655 S
C654 H644 0.930 . S
C654 C652 1.419 . S
C654 C655 1.362 1_556 S
C655 H645 0.930 . S
C655 C648 1.409 . S
C655 C654 1.362 1_554 S
H656 C662 0.930 . S
H657 C665 0.930 . S
H658 C666 0.930 . S
H659 C667 0.930 . S
H660 C670 0.930 . S
H661 C671 0.930 . S
C662 H656 0.930 . S
C662 C663 1.355 . S
C662 C664 1.416 1_545 S
C663 C662 1.355 . S
C663 C665 1.419 1_455 S
C664 C662 1.416 1_565 S
C664 C669 1.425 1_466 S
C664 C671 1.408 1_556 S
C665 H657 0.930 . S
C665 C663 1.419 1_655 S
C665 C666 1.362 . S
C666 H658 0.930 . S
C666 C665 1.362 . S
C666 C669 1.408 1_556 S
C667 H659 0.930 . S
C667 C668 1.355 . S
C667 C669 1.416 1_565 S
C668 C667 1.355 . S
C668 C670 1.419 1_655 S
C669 C664 1.425 1_644 S
C669 C666 1.408 1_554 S
C669 C667 1.416 1_545 S
C670 H660 0.930 . S
C670 C668 1.419 1_455 S
C670 C671 1.362 . S
C671 H661 0.930 . S
C671 C664 1.408 1_554 S
C671 C670 1.362 . S
H672 C678 0.930 . S
H673 C681 0.930 . S
H674 C682 0.930 . S
H675 C683 0.930 . S
H676 C686 0.930 . S
H677 C687 0.930 . S
C678 H672 0.930 . S
C678 C679 1.355 . S
C678 C680 1.415 1_455 S
C679 C678 1.355 . S
C679 C681 1.419 1_545 S
C680 C678 1.415 1_655 S
C680 C685 1.425 1_645 S
C680 C687 1.409 . S
C681 H673 0.930 . S
C681 C679 1.419 1_565 S
C681 C682 1.362 . S
C682 H674 0.930 . S
C682 C681 1.362 . S
C682 C685 1.409 . S
C683 H675 0.930 . S
C683 C684 1.355 . S
C683 C685 1.415 1_655 S
C684 C683 1.355 . S
C684 C686 1.419 1_565 S
C685 C680 1.425 1_465 S
C685 C682 1.409 . S
C685 C683 1.415 1_455 S
C686 H676 0.930 . S
C686 C684 1.419 1_545 S
C686 C687 1.362 . S
C687 H677 0.930 . S
C687 C680 1.409 . S
C687 C686 1.362 . S
H688 C694 0.930 . S
H689 C697 0.930 . S
H690 C698 0.930 . S
H691 C699 0.930 . S
H692 C702 0.930 . S
H693 C703 0.930 . S
C694 H688 0.930 . S
C694 C695 1.355 . S
C694 C696 1.415 . S
C695 C694 1.355 . S
C695 C697 1.419 . S
C696 C694 1.415 . S
C696 C701 1.425 1_565 S
C696 C703 1.409 . S
C697 H689 0.930 . S
C697 C695 1.419 . S
C697 C698 1.362 1_565 S
C698 H690 0.930 . S
C698 C697 1.362 1_545 S
C698 C701 1.409 . S
C699 H691 0.930 . S
C699 C700 1.355 . S
C699 C701 1.415 . S
C700 C699 1.355 . S
C700 C702 1.419 . S
C701 C696 1.425 1_545 S
C701 C698 1.409 . S
C701 C699 1.415 . S
C702 H692 0.930 . S
C702 C700 1.419 . S
C702 C703 1.362 1_545 S
C703 H693 0.930 . S
C703 C696 1.409 . S
C703 C702 1.362 1_565 S
H704 C710 0.930 . S
H705 C713 0.930 . S
H706 C714 0.930 . S
H707 C715 0.930 . S
H708 C718 0.930 . S
H709 C719 0.930 . S
C710 H704 0.930 . S
C710 C711 1.355 . S
C710 C712 1.415 . S
C711 C710 1.355 . S
C711 C713 1.419 . S
C712 C710 1.415 . S
C712 C717 1.425 . S
C712 C719 1.409 . S
C713 H705 0.930 . S
C713 C711 1.419 . S
C713 C714 1.362 . S
C714 H706 0.930 . S
C714 C713 1.362 . S
C714 C717 1.409 . S
C715 H707 0.930 . S
C715 C716 1.355 . S
C715 C717 1.415 . S
C716 C715 1.355 . S
C716 C718 1.419 . S
C717 C712 1.425 . S
C717 C714 1.409 . S
C717 C715 1.415 . S
C718 H708 0.930 . S
C718 C716 1.419 . S
C718 C719 1.362 . S
C719 H709 0.930 . S
C719 C712 1.409 . S
C719 C718 1.362 . S
H720 C726 0.930 . S
H721 C729 0.930 . S
H722 C730 0.930 . S
H723 C731 0.930 . S
H724 C734 0.930 . S
H725 C735 0.930 . S
C726 H720 0.930 . S
C726 C727 1.355 . S
C726 C728 1.415 . S
C727 C726 1.355 . S
C727 C729 1.419 1_655 S
C728 C726 1.415 . S
C728 C733 1.425 1_655 S
C728 C735 1.409 . S
C729 H721 0.930 . S
C729 C727 1.419 1_455 S
C729 C730 1.362 . S
C730 H722 0.930 . S
C730 C729 1.362 . S
C730 C733 1.409 . S
C731 H723 0.930 . S
C731 C732 1.355 . S
C731 C733 1.415 . S
C732 C731 1.355 . S
C732 C734 1.419 1_455 S
C733 C728 1.425 1_455 S
C733 C730 1.409 . S
C733 C731 1.415 . S
C734 H724 0.930 . S
C734 C732 1.419 1_655 S
C734 C735 1.362 . S
C735 H725 0.930 . S
C735 C728 1.409 . S
C735 C734 1.362 . S
C231 C75 0.377 . S
C236 C5 0.472 . S
C247 C89 0.426 . S
C252 C19 0.389 . S
C263 C33 0.462 . S
C268 C103 0.520 . S
C279 C47 0.485 . S
C284 C61 0.506 . S
C295 C117 0.464 . S
C300 C187 0.372 . S
C311 C201 0.385 . S
C316 C131 0.485 . S
C327 C215 0.524 . S
C332 C145 0.456 . S
C343 C159 0.393 . S
C348 C173 0.493 . S
C359 C11 1.622 1_565 S
C364 C177 1.543 . S
C375 C191 1.593 . S
C380 C25 1.648 . S
C391 C39 1.626 . S
C396 C205 1.526 . S
C407 C53 1.618 1_655 S
C412 C219 1.510 . S
C423 C67 1.630 . S
C428 C121 1.565 . S
C439 C81 1.624 . S
C444 C135 1.516 . S
C455 C95 1.638 . S
C460 C149 1.547 . S
C471 C109 1.629 . S
C476 C163 1.556 . S
C487 C65 1.506 . S
C492 C123 1.616 1_545 S
C503 C79 1.593 . S
C508 C137 1.648 . S
C519 C93 1.566 . S
C524 C151 1.634 . S
C535 C165 1.619 1_455 S
C540 C107 1.510 . S
C551 C9 1.577 . S
C556 C179 1.635 . S
C567 C193 1.629 . S
C572 C23 1.529 . S
C583 C207 1.633 . S
C588 C37 1.528 . S
C599 C51 1.581 . S
C604 C221 1.633 . S
C615 C112 1.696 . S
C620 C0 1.696 . S
C631 C126 1.633 . S
C636 C14 1.633 . S
C647 C28 1.678 . S
C652 C140 1.678 . S
C663 C154 1.629 . S
C668 C42 1.628 . S
C679 C56 1.677 . S
C684 C168 1.676 . S
C695 C182 1.731 . S
C700 C70 1.731 . S
C711 C196 1.629 . S
C716 C84 1.629 . S
C727 C210 1.621 . S
C732 C98 1.620 . S
