# Generated by pormake.
# Topology cag, (4)-cn, num edge types: 1
# Building blocks:
#     Node 0, Type 0, BuildingBlock: CEKHIL_clean_sbu_0, # of connection points: 4
#     Node 1, Type 0, BuildingBlock: CEKHIL_clean_sbu_0, # of connection points: 4
#     Node 2, Type 0, BuildingBlock: CEKHIL_clean_sbu_0, # of connection points: 4
#     Node 3, Type 0, BuildingBlock: CEKHIL_clean_sbu_0, # of connection points: 4
#     Node 4, Type 0, BuildingBlock: CEKHIL_clean_sbu_0, # of connection points: 4
#     Node 5, Type 0, BuildingBlock: CEKHIL_clean_sbu_0, # of connection points: 4
#     Node 6, Type 0, BuildingBlock: CEKHIL_clean_sbu_0, # of connection points: 4
#     Node 7, Type 0, BuildingBlock: CEKHIL_clean_sbu_0, # of connection points: 4
#     Node 8, Type 0, BuildingBlock: CEKHIL_clean_sbu_0, # of connection points: 4
#     Node 9, Type 0, BuildingBlock: CEKHIL_clean_sbu_0, # of connection points: 4
#     Node 10, Type 0, BuildingBlock: CEKHIL_clean_sbu_0, # of connection points: 4
#     Node 11, Type 0, BuildingBlock: CEKHIL_clean_sbu_0, # of connection points: 4
#     Node 12, Type 0, BuildingBlock: CEKHIL_clean_sbu_0, # of connection points: 4
#     Node 13, Type 0, BuildingBlock: CEKHIL_clean_sbu_0, # of connection points: 4
#     Node 14, Type 0, BuildingBlock: CEKHIL_clean_sbu_0, # of connection points: 4
#     Node 15, Type 0, BuildingBlock: CEKHIL_clean_sbu_0, # of connection points: 4
#     Edge 16, Type (0, 0), BuildingBlock: CIFDUS_clean_linker_0, # of connection points: 2
#     Edge 17, Type (0, 0), BuildingBlock: CIFDUS_clean_linker_0, # of connection points: 2
#     Edge 18, Type (0, 0), BuildingBlock: CIFDUS_clean_linker_0, # of connection points: 2
#     Edge 19, Type (0, 0), BuildingBlock: CIFDUS_clean_linker_0, # of connection points: 2
#     Edge 20, Type (0, 0), BuildingBlock: CIFDUS_clean_linker_0, # of connection points: 2
#     Edge 21, Type (0, 0), BuildingBlock: CIFDUS_clean_linker_0, # of connection points: 2
#     Edge 22, Type (0, 0), BuildingBlock: CIFDUS_clean_linker_0, # of connection points: 2
#     Edge 23, Type (0, 0), BuildingBlock: CIFDUS_clean_linker_0, # of connection points: 2
#     Edge 24, Type (0, 0), BuildingBlock: CIFDUS_clean_linker_0, # of connection points: 2
#     Edge 25, Type (0, 0), BuildingBlock: CIFDUS_clean_linker_0, # of connection points: 2
#     Edge 26, Type (0, 0), BuildingBlock: CIFDUS_clean_linker_0, # of connection points: 2
#     Edge 27, Type (0, 0), BuildingBlock: CIFDUS_clean_linker_0, # of connection points: 2
#     Edge 28, Type (0, 0), BuildingBlock: CIFDUS_clean_linker_0, # of connection points: 2
#     Edge 29, Type (0, 0), BuildingBlock: CIFDUS_clean_linker_0, # of connection points: 2
#     Edge 30, Type (0, 0), BuildingBlock: CIFDUS_clean_linker_0, # of connection points: 2
#     Edge 31, Type (0, 0), BuildingBlock: CIFDUS_clean_linker_0, # of connection points: 2
#     Edge 32, Type (0, 0), BuildingBlock: CIFDUS_clean_linker_0, # of connection points: 2
#     Edge 33, Type (0, 0), BuildingBlock: CIFDUS_clean_linker_0, # of connection points: 2
#     Edge 34, Type (0, 0), BuildingBlock: CIFDUS_clean_linker_0, # of connection points: 2
#     Edge 35, Type (0, 0), BuildingBlock: CIFDUS_clean_linker_0, # of connection points: 2
#     Edge 36, Type (0, 0), BuildingBlock: CIFDUS_clean_linker_0, # of connection points: 2
#     Edge 37, Type (0, 0), BuildingBlock: CIFDUS_clean_linker_0, # of connection points: 2
#     Edge 38, Type (0, 0), BuildingBlock: CIFDUS_clean_linker_0, # of connection points: 2
#     Edge 39, Type (0, 0), BuildingBlock: CIFDUS_clean_linker_0, # of connection points: 2
#     Edge 40, Type (0, 0), BuildingBlock: CIFDUS_clean_linker_0, # of connection points: 2
#     Edge 41, Type (0, 0), BuildingBlock: CIFDUS_clean_linker_0, # of connection points: 2
#     Edge 42, Type (0, 0), BuildingBlock: CIFDUS_clean_linker_0, # of connection points: 2
#     Edge 43, Type (0, 0), BuildingBlock: CIFDUS_clean_linker_0, # of connection points: 2
#     Edge 44, Type (0, 0), BuildingBlock: CIFDUS_clean_linker_0, # of connection points: 2
#     Edge 45, Type (0, 0), BuildingBlock: CIFDUS_clean_linker_0, # of connection points: 2
#     Edge 46, Type (0, 0), BuildingBlock: CIFDUS_clean_linker_0, # of connection points: 2
#     Edge 47, Type (0, 0), BuildingBlock: CIFDUS_clean_linker_0, # of connection points: 2
# Relax obj value: 0.094
# Max RMSD: 0.132
# Mean RMSD: 0.130
data_MOF--net-cag--node1-CEKHIL_clean_sbu_0--edge1-CIFDUS_clean_linker_0
_symmetry_space_group_name_H-M    P1
_symmetry_Int_Tables_number       1
_symmetry_cell_setting            triclinic
loop_
_symmetry_equiv_pos_as_xyz
'x, y, z'
_cell_length_a     38.51388
_cell_length_b     42.36343
_cell_length_c     35.116784
_cell_angle_alpha  89.912931
_cell_angle_beta   90.058724
_cell_angle_gamma 90.050354
loop_
_atom_site_label
_atom_site_type_symbol
_atom_site_fract_x
_atom_site_fract_y
_atom_site_fract_z
_atom_type_partial_charge
Co0 Co 0.31358 0.138 0.07754 0.0
O1 O 0.26566 0.14683 0.06392 0.0
O2 O 0.30994 0.17893 0.05337 0.0
C3 C 0.31553 0.08799 0.05508 0.0
O4 O 0.36654 0.13778 0.08439 0.0
Co5 Co 0.33639 0.08594 0.13457 0.0
O6 O 0.38417 0.09533 0.11765 0.0
C7 C 0.30118 0.14314 0.16281 0.0
C8 C 0.27689 0.17353 0.05032 0.0
C9 C 0.39065 0.1198 0.09784 0.0
O10 O 0.30438 0.15662 0.12999 0.0
O11 O 0.31026 0.11462 0.16938 0.0
O12 O 0.3192 0.11185 0.03205 0.0
O13 O 0.30825 0.09505 0.08991 0.0
Co14 Co 0.19083 0.86776 0.56651 0.0
O15 O 0.23865 0.86134 0.55214 0.0
O16 O 0.19679 0.82565 0.54676 0.0
C17 C 0.18462 0.91497 0.53773 0.0
O18 O 0.13834 0.86579 0.57546 0.0
Co19 Co 0.16774 0.92221 0.61877 0.0
O20 O 0.12009 0.91041 0.6036 0.0
C21 C 0.20474 0.86805 0.65219 0.0
C22 C 0.2291 0.83331 0.54147 0.0
C23 C 0.11399 0.88425 0.58712 0.0
O24 O 0.20264 0.85329 0.6202 0.0
O25 O 0.19409 0.89636 0.65689 0.0
O26 O 0.18176 0.88896 0.51848 0.0
O27 O 0.19385 0.91186 0.57302 0.0
Co28 Co 0.31722 0.86939 0.93 0.0
O29 O 0.27479 0.85218 0.95257 0.0
O30 O 0.32518 0.82754 0.94922 0.0
C31 C 0.31482 0.91806 0.95648 0.0
O32 O 0.36735 0.87764 0.91342 0.0
Co33 Co 0.32264 0.92685 0.87549 0.0
O34 O 0.3735 0.92372 0.88252 0.0
C35 C 0.29261 0.86703 0.84779 0.0
C36 C 0.29303 0.82702 0.96007 0.0
C37 C 0.38634 0.89929 0.89822 0.0
O38 O 0.30265 0.8523 0.8781 0.0
O39 O 0.29595 0.89678 0.843 0.0
O40 O 0.32612 0.89417 0.9763 0.0
O41 O 0.3031 0.91137 0.92306 0.0
Co42 Co 0.1886 0.14145 0.44042 0.0
O43 O 0.2352 0.14875 0.45845 0.0
O44 O 0.19279 0.18398 0.46029 0.0
C45 C 0.18179 0.09426 0.4693 0.0
O46 O 0.13671 0.14191 0.42666 0.0
Co47 Co 0.17175 0.08542 0.38707 0.0
O48 O 0.12282 0.09717 0.39556 0.0
C49 C 0.20916 0.14046 0.35643 0.0
C50 C 0.22486 0.17677 0.468 0.0
C51 C 0.11434 0.12301 0.41145 0.0
O52 O 0.20368 0.15571 0.3876 0.0
O53 O 0.20052 0.1116 0.35158 0.0
O54 O 0.17682 0.12031 0.48794 0.0
O55 O 0.19333 0.09748 0.43492 0.0
Co56 Co 0.65894 0.88677 0.90465 0.0
O57 O 0.70307 0.88961 0.87764 0.0
O58 O 0.65364 0.87391 0.85212 0.0
C59 C 0.66176 0.93448 0.9342 0.0
O60 O 0.6079 0.88226 0.91985 0.0
Co61 Co 0.65037 0.88756 0.99268 0.0
O62 O 0.59975 0.88854 0.98273 0.0
C63 C 0.68183 0.83254 0.95458 0.0
C64 C 0.68635 0.88014 0.8475 0.0
C65 C 0.58799 0.88452 0.94917 0.0
O66 O 0.67064 0.84197 0.92177 0.0
O67 O 0.67953 0.8491 0.98489 0.0
O68 O 0.65206 0.93254 0.89876 0.0
O69 O 0.67175 0.90831 0.9494 0.0
Co70 Co 0.84283 0.13211 0.419 0.0
O71 O 0.79902 0.12689 0.39157 0.0
O72 O 0.84848 0.14164 0.36543 0.0
C73 C 0.84025 0.08649 0.45314 0.0
O74 O 0.89375 0.13863 0.43439 0.0
Co75 Co 0.85172 0.1362 0.50704 0.0
O76 O 0.90216 0.13387 0.4974 0.0
C77 C 0.82404 0.19091 0.46413 0.0
C78 C 0.81594 0.1347 0.36086 0.0
C79 C 0.91381 0.13744 0.46378 0.0
O80 O 0.83013 0.17761 0.43168 0.0
O81 O 0.82894 0.17742 0.49628 0.0
O82 O 0.85044 0.08611 0.41781 0.0
O83 O 0.82997 0.11348 0.46554 0.0
Co84 Co 0.67163 0.1253 0.11249 0.0
O85 O 0.7171 0.12172 0.1375 0.0
O86 O 0.669 0.13807 0.16503 0.0
C87 C 0.67156 0.07776 0.08256 0.0
O88 O 0.6198 0.13038 0.10156 0.0
Co89 Co 0.65497 0.12504 0.02626 0.0
O90 O 0.60534 0.12198 0.04058 0.0
C91 C 0.68697 0.18164 0.06101 0.0
C92 C 0.7016 0.13121 0.16844 0.0
C93 C 0.59697 0.12688 0.07509 0.0
O94 O 0.6833 0.16996 0.09484 0.0
O95 O 0.67903 0.16667 0.03062 0.0
O96 O 0.66424 0.07976 0.11866 0.0
O97 O 0.68093 0.10382 0.06648 0.0
Co98 Co 0.83336 0.87746 0.60163 0.0
O99 O 0.78762 0.88156 0.62561 0.0
O100 O 0.83599 0.86841 0.65527 0.0
C101 C 0.83221 0.92261 0.56669 0.0
O102 O 0.8853 0.8728 0.59163 0.0
Co103 Co 0.85064 0.87264 0.51551 0.0
O104 O 0.90002 0.87718 0.53009 0.0
C105 C 0.82033 0.81773 0.55586 0.0
C106 C 0.80313 0.87452 0.65754 0.0
C107 C 0.90819 0.87473 0.56506 0.0
O108 O 0.8232 0.83154 0.58854 0.0
O109 O 0.82794 0.83096 0.5242 0.0
O110 O 0.83938 0.92353 0.60291 0.0
O111 O 0.82376 0.89526 0.55358 0.0
Co112 Co 0.81992 0.64705 0.06309 0.0
O113 O 0.77542 0.66301 0.04424 0.0
O114 O 0.82455 0.6899 0.04657 0.0
C115 C 0.81875 0.59987 0.03312 0.0
O116 O 0.87123 0.64106 0.07556 0.0
Co117 Co 0.83307 0.58845 0.11309 0.0
O118 O 0.88319 0.59433 0.10245 0.0
C119 C 0.80119 0.64506 0.14724 0.0
C120 C 0.79197 0.68929 0.03751 0.0
C121 C 0.89294 0.62019 0.08745 0.0
O122 O 0.80737 0.66113 0.11674 0.0
O123 O 0.80753 0.61555 0.15037 0.0
O124 O 0.82762 0.62534 0.01475 0.0
O125 O 0.80878 0.60392 0.0679 0.0
Co126 Co 0.6968 0.37247 0.58445 0.0
O127 O 0.74495 0.36366 0.5727 0.0
O128 O 0.70094 0.3312 0.56185 0.0
C129 C 0.69565 0.42158 0.55938 0.0
O130 O 0.6439 0.3728 0.58916 0.0
Co131 Co 0.67236 0.42642 0.63762 0.0
O132 O 0.62537 0.41702 0.61789 0.0
C133 C 0.70402 0.36908 0.67088 0.0
C134 C 0.73391 0.33703 0.55881 0.0
C135 C 0.6195 0.39163 0.59964 0.0
O136 O 0.70381 0.35511 0.63818 0.0
O137 O 0.69465 0.39775 0.67572 0.0
O138 O 0.69247 0.39701 0.53755 0.0
O139 O 0.70194 0.41575 0.59483 0.0
Co140 Co 0.81185 0.37 0.94475 0.0
O141 O 0.76402 0.35887 0.9558 0.0
O142 O 0.80924 0.32747 0.96452 0.0
C143 C 0.81141 0.41795 0.9732 0.0
O144 O 0.86475 0.37236 0.93989 0.0
Co145 Co 0.83373 0.42719 0.89495 0.0
O146 O 0.88157 0.4176 0.91185 0.0
C147 C 0.80489 0.3702 0.8581 0.0
C148 C 0.77603 0.3319 0.96765 0.0
C149 C 0.88845 0.39188 0.92904 0.0
O150 O 0.80552 0.35494 0.88998 0.0
O151 O 0.813 0.39937 0.85497 0.0
O152 O 0.81534 0.39238 0.99321 0.0
O153 O 0.80509 0.41372 0.93743 0.0
Co154 Co 0.69781 0.63676 0.42809 0.0
O155 O 0.74524 0.64419 0.44429 0.0
O156 O 0.70154 0.67749 0.45215 0.0
C157 C 0.69363 0.58726 0.45142 0.0
O158 O 0.64537 0.63795 0.41887 0.0
Co159 Co 0.67498 0.58532 0.37112 0.0
O160 O 0.62709 0.5948 0.38771 0.0
C161 C 0.71226 0.64167 0.34305 0.0
C162 C 0.73406 0.67093 0.45767 0.0
C163 C 0.62096 0.61994 0.40628 0.0
O164 O 0.7096 0.65494 0.37599 0.0
O165 O 0.70189 0.61356 0.33619 0.0
O166 O 0.68942 0.6115 0.47358 0.0
O167 O 0.70237 0.59353 0.41668 0.0
Co168 Co 0.16804 0.3798 0.90848 0.0
O169 O 0.21276 0.38313 0.88266 0.0
O170 O 0.16418 0.36594 0.85646 0.0
C171 C 0.16889 0.42804 0.93639 0.0
O172 O 0.11658 0.37503 0.92091 0.0
Co173 Co 0.15402 0.38152 0.99486 0.0
O174 O 0.10416 0.3858 0.98184 0.0
C175 C 0.18482 0.32421 0.96086 0.0
C176 C 0.19666 0.37311 0.85231 0.0
C177 C 0.09469 0.38007 0.94785 0.0
O178 O 0.18024 0.33552 0.927 0.0
O179 O 0.17764 0.33955 0.99119 0.0
O180 O 0.1604 0.42498 0.90073 0.0
O181 O 0.17869 0.40244 0.95337 0.0
Co182 Co 0.33887 0.62781 0.41038 0.0
O183 O 0.29108 0.6245 0.39257 0.0
O184 O 0.33637 0.63505 0.35619 0.0
C185 C 0.33905 0.5842 0.4478 0.0
O186 O 0.39167 0.63141 0.41489 0.0
Co187 Co 0.36268 0.63594 0.49437 0.0
O188 O 0.4105 0.62998 0.47538 0.0
C189 C 0.32852 0.68868 0.45385 0.0
C190 C 0.30315 0.63056 0.35868 0.0
C191 C 0.41628 0.63042 0.43973 0.0
O192 O 0.33103 0.67419 0.42166 0.0
O193 O 0.33748 0.67646 0.48569 0.0
O194 O 0.34313 0.58161 0.41113 0.0
O195 O 0.33281 0.61227 0.46004 0.0
Co196 Co 0.17534 0.62658 0.10238 0.0
O197 O 0.22257 0.62446 0.12149 0.0
O198 O 0.17722 0.63987 0.15511 0.0
C199 C 0.17464 0.57844 0.07412 0.0
O200 O 0.12277 0.62994 0.09533 0.0
Co201 Co 0.15618 0.62518 0.01661 0.0
O202 O 0.10746 0.62177 0.03433 0.0
C203 C 0.18978 0.68157 0.04899 0.0
C204 C 0.21023 0.63375 0.15407 0.0
C205 C 0.09968 0.62599 0.06919 0.0
O206 O 0.18394 0.67141 0.08311 0.0
O207 O 0.18379 0.66524 0.01911 0.0
O208 O 0.16984 0.58114 0.1106 0.0
O209 O 0.18246 0.6043 0.05657 0.0
Co210 Co 0.33972 0.37952 0.60443 0.0
O211 O 0.29427 0.38353 0.62894 0.0
O212 O 0.34336 0.37155 0.65808 0.0
C213 C 0.33739 0.42368 0.56804 0.0
O214 O 0.39155 0.3753 0.59428 0.0
Co215 Co 0.35734 0.37298 0.51879 0.0
O216 O 0.40666 0.37933 0.53292 0.0
C217 C 0.32451 0.31987 0.5603 0.0
C218 C 0.31045 0.37715 0.6607 0.0
C219 C 0.41462 0.37762 0.568 0.0
O220 O 0.32947 0.33346 0.59279 0.0
O221 O 0.33186 0.33272 0.52833 0.0
O222 O 0.34509 0.42565 0.60409 0.0
O223 O 0.3295 0.39588 0.55595 0.0
H224 H 0.28929 0.21264 0.99024 0.0
H225 H 0.2113 0.18772 0.07297 0.0
H226 H 0.17419 0.23071 0.05021 0.0
H227 H 0.16633 0.27829 0.01056 0.0
H228 H 0.24208 0.30119 0.92463 0.0
H229 H 0.27737 0.25575 0.94414 0.0
C230 C 0.26399 0.21649 1.00295 0.0
C231 C 0.25318 0.19736 0.03359 0.0
C232 C 0.24241 0.24079 0.98902 0.0
C233 C 0.22017 0.20218 0.04943 0.0
C234 C 0.199 0.2268 0.03648 0.0
C235 C 0.19019 0.27285 0.99555 0.0
C236 C 0.20167 0.29307 0.96627 0.0
C237 C 0.21013 0.24662 0.00678 0.0
C238 C 0.23255 0.28579 0.94697 0.0
C239 C 0.2529 0.26002 0.95843 0.0
H240 H 0.34747 0.73871 0.49628 0.0
H241 H 0.2686 0.70621 0.41853 0.0
H242 H 0.23037 0.74943 0.43823 0.0
H243 H 0.21688 0.79207 0.48403 0.0
H244 H 0.29698 0.82571 0.55964 0.0
H245 H 0.33734 0.78629 0.53459 0.0
C246 C 0.3223 0.74173 0.48285 0.0
C247 C 0.31071 0.71938 0.45615 0.0
C248 C 0.30047 0.76631 0.49466 0.0
C249 C 0.27815 0.72339 0.43883 0.0
C250 C 0.25613 0.7478 0.45054 0.0
C251 C 0.24327 0.79081 0.49473 0.0
C252 C 0.2539 0.81116 0.52412 0.0
C253 C 0.26653 0.7686 0.47952 0.0
C254 C 0.28828 0.81 0.53724 0.0
C255 C 0.31132 0.78753 0.52291 0.0
H256 H 0.22935 0.81916 0.99521 0.0
H257 H 0.32483 0.77053 0.96876 0.0
H258 H 0.30265 0.72254 0.99777 0.0
H259 H 0.25494 0.69279 0.02658 0.0
H260 H 0.15926 0.73972 0.05421 0.0
H261 H 0.18262 0.78982 0.02954 0.0
C262 C 0.24528 0.79808 0.99597 0.0
C263 C 0.27864 0.79853 0.97935 0.0
C264 C 0.23239 0.77021 0.01318 0.0
C265 C 0.29903 0.77101 0.981 0.0
C266 C 0.28641 0.74342 0.99769 0.0
C267 C 0.23961 0.71424 0.02809 0.0
C268 C 0.20576 0.71285 0.0427 0.0
C269 C 0.25305 0.7426 0.01342 0.0
C270 C 0.18572 0.7405 0.04383 0.0
C271 C 0.19896 0.76901 0.0293 0.0
H272 H 0.34368 0.26925 0.51949 0.0
H273 H 0.26275 0.30393 0.5928 0.0
H274 H 0.22378 0.26188 0.57072 0.0
H275 H 0.21081 0.21933 0.52413 0.0
H276 H 0.29322 0.18381 0.45312 0.0
H277 H 0.33353 0.22224 0.48033 0.0
C278 C 0.31789 0.26686 0.53158 0.0
C279 C 0.30606 0.28944 0.5578 0.0
C280 C 0.29565 0.24305 0.51829 0.0
C281 C 0.27256 0.28643 0.57309 0.0
C282 C 0.25011 0.26274 0.55994 0.0
C283 C 0.23764 0.22003 0.51484 0.0
C284 C 0.24897 0.1993 0.48615 0.0
C285 C 0.26098 0.24167 0.53143 0.0
C286 C 0.28393 0.19979 0.47492 0.0
C287 C 0.30699 0.22167 0.49052 0.0
H288 H 0.73043 0.69454 0.99709 0.0
H289 H 0.81709 0.74856 0.04029 0.0
H290 H 0.79245 0.79663 0.01432 0.0
H291 H 0.74515 0.82432 0.98298 0.0
H292 H 0.65793 0.7727 0.93834 0.0
H293 H 0.68405 0.72278 0.96027 0.0
C294 C 0.74378 0.71686 1.00075 0.0
C295 C 0.77545 0.71787 0.02101 0.0
C296 C 0.72957 0.74484 0.98512 0.0
C297 C 0.7927 0.74696 0.02502 0.0
C298 C 0.77867 0.77458 0.01009 0.0
C299 C 0.73225 0.80201 0.97731 0.0
C300 C 0.69992 0.80201 0.95889 0.0
C301 C 0.74709 0.77386 0.99045 0.0
C302 C 0.68319 0.77313 0.9519 0.0
C303 C 0.69793 0.74469 0.96492 0.0
H304 H 0.84715 0.23994 0.5053 0.0
H305 H 0.76424 0.21119 0.43061 0.0
H306 H 0.72864 0.25553 0.45275 0.0
H307 H 0.71851 0.29767 0.50026 0.0
H308 H 0.80232 0.32693 0.5737 0.0
H309 H 0.84029 0.28706 0.54538 0.0
C310 C 0.82174 0.24414 0.4929 0.0
C311 C 0.80827 0.22254 0.46631 0.0
C312 C 0.80134 0.26917 0.50638 0.0
C313 C 0.77529 0.22787 0.45062 0.0
C314 C 0.75476 0.25288 0.4638 0.0
C315 C 0.74517 0.29539 0.50982 0.0
C316 C 0.75748 0.31465 0.53959 0.0
C317 C 0.76702 0.27283 0.49284 0.0
C318 C 0.79225 0.31211 0.55112 0.0
C319 C 0.81394 0.28938 0.5349 0.0
H320 H 0.79055 0.29275 0.0269 0.0
H321 H 0.71012 0.3169 0.94655 0.0
H322 H 0.67357 0.27422 0.97134 0.0
H323 H 0.66668 0.22738 0.01226 0.0
H324 H 0.74521 0.20493 0.09545 0.0
H325 H 0.78004 0.25011 0.07399 0.0
C326 C 0.76492 0.28869 0.01503 0.0
C327 C 0.7532 0.30749 0.98449 0.0
C328 C 0.7437 0.26466 0.03018 0.0
C329 C 0.71972 0.30256 0.96987 0.0
C330 C 0.69886 0.27819 0.98404 0.0
C331 C 0.69105 0.23289 0.0263 0.0
C332 C 0.70344 0.21289 0.05535 0.0
C333 C 0.71081 0.2588 0.01376 0.0
C334 C 0.73498 0.22021 0.07336 0.0
C335 C 0.75507 0.24579 0.06073 0.0
H336 H 0.84491 0.7688 0.51532 0.0
H337 H 0.75955 0.79701 0.58672 0.0
H338 H 0.72508 0.75226 0.56352 0.0
H339 H 0.71672 0.70991 0.51584 0.0
H340 H 0.803 0.68094 0.44604 0.0
H341 H 0.83977 0.72127 0.47555 0.0
C342 C 0.81917 0.76445 0.52674 0.0
C343 C 0.8047 0.78605 0.55265 0.0
C344 C 0.79947 0.73907 0.51279 0.0
C345 C 0.77134 0.78041 0.56718 0.0
C346 C 0.75147 0.75513 0.55343 0.0
C347 C 0.74369 0.7123 0.50742 0.0
C348 C 0.75705 0.69301 0.47829 0.0
C349 C 0.7648 0.73514 0.52505 0.0
C350 C 0.79215 0.69573 0.46817 0.0
C351 C 0.81314 0.71876 0.48503 0.0
H352 H 0.31472 0.06549 0.98271 0.0
H353 H 0.32412 0.03583 0.09977 0.0
H354 H 0.32699 0.98065 0.07982 0.0
H355 H 0.32414 0.94035 0.02896 0.0
H356 H 0.31082 0.97067 0.9125 0.0
H357 H 0.31237 0.02563 0.93224 0.0
C358 C 0.3177 0.04696 1.00381 0.0
C359 C 0.31923 0.05478 0.04261 0.0
C360 C 0.31851 0.01521 0.99221 0.0
C361 C 0.32278 0.03046 0.06967 0.0
C362 C 0.32442 0.99885 0.05829 0.0
C363 C 0.32185 0.95903 0.00796 0.0
C364 C 0.31744 0.9513 0.96932 0.0
C365 C 0.3219 0.99087 0.01963 0.0
C366 C 0.3142 0.97581 0.94245 0.0
C367 C 0.31507 0.00737 0.95369 0.0
H368 H 0.17822 0.97217 0.57215 0.0
H369 H 0.18187 0.92754 0.46187 0.0
H370 H 0.17988 0.97904 0.43075 0.0
H371 H 0.18037 0.03694 0.43487 0.0
H372 H 0.17479 0.08168 0.54496 0.0
H373 H 0.17399 0.03008 0.57608 0.0
C374 C 0.17837 0.97376 0.54132 0.0
C375 C 0.18054 0.94614 0.51937 0.0
C376 C 0.17695 1.00349 0.52355 0.0
C377 C 0.18029 0.94848 0.47943 0.0
C378 C 0.17924 0.97793 0.46158 0.0
C379 C 0.17873 0.03535 0.46565 0.0
C380 C 0.17798 0.06304 0.48759 0.0
C381 C 0.17808 0.00561 0.48336 0.0
C382 C 0.17546 0.06068 0.52742 0.0
C383 C 0.17512 0.03118 0.54527 0.0
H384 H 0.6633 0.94089 0.01124 0.0
H385 H 0.65823 0.99501 0.90726 0.0
H386 H 0.66062 0.04409 0.94399 0.0
H387 H 0.66618 0.07152 1.0056 0.0
H388 H 0.6681 0.01736 0.10969 0.0
H389 H 0.66479 0.96835 0.07298 0.0
C390 C 0.66255 0.96341 0.99657 0.0
C391 C 0.66084 0.96426 0.95647 0.0
C392 C 0.66346 0.9915 0.01793 0.0
C393 C 0.65954 0.99368 0.93803 0.0
C394 C 0.66101 0.02174 0.95905 0.0
C395 C 0.66576 0.049 0.02029 0.0
C396 C 0.66767 0.04812 0.06039 0.0
C397 C 0.66331 0.02094 0.99899 0.0
C398 C 0.66669 0.01873 0.07892 0.0
C399 C 0.66487 0.99069 0.05791 0.0
H400 H 0.84283 0.02389 0.43427 0.0
H401 H 0.84099 0.08696 0.53054 0.0
H402 H 0.84051 0.0423 0.57415 0.0
H403 H 0.83788 0.98497 0.58547 0.0
H404 H 0.83545 0.92185 0.48924 0.0
H405 H 0.84036 0.9664 0.44563 0.0
C406 C 0.84266 0.02778 0.46478 0.0
C407 C 0.84208 0.05878 0.47898 0.0
C408 C 0.8414 1.00183 0.48996 0.0
C409 C 0.84145 0.06342 0.51866 0.0
C410 C 0.84113 0.03783 0.54378 0.0
C411 C 0.83866 0.981 0.55498 0.0
C412 C 0.83638 0.95008 0.54078 0.0
C413 C 0.84067 0.00689 0.52981 0.0
C414 C 0.83713 0.94537 0.5011 0.0
C415 C 0.83994 0.97089 0.47601 0.0
H416 H 0.8183 0.47418 0.9361 0.0
H417 H 0.81133 0.4333 0.04845 0.0
H418 H 0.8136 0.48589 0.07682 0.0
H419 H 0.81575 0.5435 0.06973 0.0
H420 H 0.82498 0.58467 0.95777 0.0
H421 H 0.82386 0.53197 0.92922 0.0
C422 C 0.81737 0.4768 0.9668 0.0
C423 C 0.81439 0.44986 0.99013 0.0
C424 C 0.81908 0.50715 0.98297 0.0
C425 C 0.81357 0.45362 0.02985 0.0
C426 C 0.81481 0.4837 0.04611 0.0
C427 C 0.81764 0.54097 0.03907 0.0
C428 C 0.82019 0.56799 0.01587 0.0
C429 C 0.81728 0.51063 0.02294 0.0
C430 C 0.82298 0.56425 0.97625 0.0
C431 C 0.82224 0.53412 0.95992 0.0
H432 H 0.69212 0.44094 0.48557 0.0
H433 H 0.6912 0.47555 0.60107 0.0
H434 H 0.68812 0.52979 0.57784 0.0
H435 H 0.68857 0.56759 0.5248 0.0
H436 H 0.69208 0.53327 0.40926 0.0
H437 H 0.69103 0.47883 0.43236 0.0
C438 C 0.69099 0.46036 0.50562 0.0
C439 C 0.69198 0.45422 0.54496 0.0
C440 C 0.68978 0.49158 0.49206 0.0
C441 C 0.69062 0.47962 0.57062 0.0
C442 C 0.68885 0.51067 0.55737 0.0
C443 C 0.68879 0.54819 0.50467 0.0
C444 C 0.69047 0.55445 0.46541 0.0
C445 C 0.68883 0.51696 0.51817 0.0
C446 C 0.69091 0.52907 0.43967 0.0
C447 C 0.69034 0.49793 0.45285 0.0
H448 H 0.16927 0.56846 0.99766 0.0
H449 H 0.17323 0.51952 0.10539 0.0
H450 H 0.17138 0.46876 0.07241 0.0
H451 H 0.17048 0.43818 0.01286 0.0
H452 H 0.16397 0.48696 0.90519 0.0
H453 H 0.1648 0.53779 0.93819 0.0
C454 C 0.16962 0.54668 0.01392 0.0
C455 C 0.17165 0.5478 0.05395 0.0
C456 C 0.16814 0.51752 0.99475 0.0
C457 C 0.17171 0.51935 0.07459 0.0
C458 C 0.17073 0.49029 0.05573 0.0
C459 C 0.16913 0.45993 0.99661 0.0
C460 C 0.16743 0.45876 0.95658 0.0
C461 C 0.16923 0.48908 0.01582 0.0
C462 C 0.16532 0.48717 0.936 0.0
C463 C 0.16588 0.51627 0.95486 0.0
H464 H 0.33946 0.52121 0.43156 0.0
H465 H 0.3453 0.58709 0.52489 0.0
H466 H 0.3472 0.54361 0.57036 0.0
H467 H 0.34462 0.48655 0.58417 0.0
H468 H 0.33581 0.42095 0.49076 0.0
H469 H 0.33778 0.46427 0.44527 0.0
C470 C 0.34144 0.526 0.46181 0.0
C471 C 0.34225 0.55735 0.4747 0.0
C472 C 0.34184 0.50081 0.48804 0.0
C473 C 0.34457 0.56317 0.51408 0.0
C474 C 0.34563 0.53829 0.54022 0.0
C475 C 0.34336 0.48178 0.55387 0.0
C476 C 0.34008 0.45052 0.54104 0.0
C477 C 0.34388 0.50697 0.52761 0.0
C478 C 0.33829 0.44476 0.5016 0.0
C479 C 0.3394 0.46956 0.47541 0.0
H480 H 0.54105 0.14418 0.03162 0.0
H481 H 0.56927 0.10925 0.14292 0.0
H482 H 0.50811 0.10503 0.16018 0.0
H483 H 0.44653 0.10866 0.14276 0.0
H484 H 0.41747 0.14659 0.03332 0.0
H485 H 0.47887 0.15258 0.01637 0.0
C486 C 0.53374 0.13581 0.0597 0.0
C487 C 0.55972 0.12679 0.08582 0.0
C488 C 0.49837 0.13398 0.06978 0.0
C489 C 0.54986 0.1164 0.12229 0.0
C490 C 0.51486 0.11387 0.13217 0.0
C491 C 0.45365 0.11847 0.1153 0.0
C492 C 0.42752 0.12692 0.0892 0.0
C493 C 0.4889 0.12222 0.10602 0.0
C494 C 0.43711 0.14 0.05395 0.0
C495 C 0.47221 0.14325 0.04417 0.0
H496 H 0.964 0.85409 0.52417 0.0
H497 H 0.9356 0.89746 0.63078 0.0
H498 H 0.99675 0.90287 0.64784 0.0
H499 H 0.05832 0.89807 0.63099 0.0
H500 H 0.08743 0.85205 0.52639 0.0
H501 H 0.02608 0.84449 0.5102 0.0
C502 C 0.97128 0.86457 0.55119 0.0
C503 C 0.94532 0.87565 0.576 0.0
C504 C 0.00658 0.86709 0.56119 0.0
C505 C 0.95506 0.88873 0.61119 0.0
C506 C 0.99003 0.89193 0.62093 0.0
C507 C 0.0512 0.8861 0.60483 0.0
C508 C 0.0773 0.87585 0.57977 0.0
C509 C 0.016 0.88157 0.59596 0.0
C510 C 0.06778 0.86003 0.5462 0.0
C511 C 0.03272 0.85591 0.53683 0.0
H512 H 0.42441 0.87264 0.95484 0.0
H513 H 0.43416 0.92007 0.84666 0.0
H514 H 0.49751 0.91775 0.85157 0.0
H515 H 0.55026 0.90421 0.888 0.0
H516 H 0.54011 0.86119 0.99883 0.0
H517 H 0.47699 0.85973 0.99155 0.0
C518 C 0.44044 0.88214 0.93216 0.0
C519 C 0.42464 0.89629 0.90029 0.0
C520 C 0.47683 0.88166 0.9358 0.0
C521 C 0.44572 0.90906 0.87147 0.0
C522 C 0.48194 0.90774 0.87427 0.0
C523 C 0.5342 0.89428 0.91038 0.0
C524 C 0.54985 0.8827 0.94383 0.0
C525 C 0.4978 0.89439 0.90649 0.0
C526 C 0.52869 0.87034 0.97286 0.0
C527 C 0.4926 0.86945 0.96869 0.0
H528 H 0.07784 0.1458 0.47173 0.0
H529 H 0.06675 0.115 0.35544 0.0
H530 H 1.00362 0.1191 0.36029 0.0
H531 H 0.95136 0.12711 0.39915 0.0
H532 H 0.96226 0.15385 0.51708 0.0
H533 H 0.02528 0.15564 0.51011 0.0
C534 C 0.06154 0.14067 0.44729 0.0
C535 C 0.07685 0.13036 0.41321 0.0
C536 C 0.02511 0.14188 0.45076 0.0
C537 C 0.05548 0.12308 0.38195 0.0
C538 C 0.01938 0.12528 0.38475 0.0
C539 C 0.96749 0.13364 0.42322 0.0
C540 C 0.952 0.14019 0.4586 0.0
C541 C 1.00385 0.13395 0.41927 0.0
C542 C 0.97342 0.1484 0.48957 0.0
C543 C 0.00953 0.14953 0.4856 0.0
H544 H 0.04477 0.64781 0.02859 0.0
H545 H 0.07146 0.60185 0.1342 0.0
H546 H 0.00978 0.59578 0.14962 0.0
H547 H 0.94791 0.6016 0.13149 0.0
H548 H 0.92197 0.6514 0.02808 0.0
H549 H 0.98348 0.65801 0.01346 0.0
C550 C 0.03703 0.63665 0.05508 0.0
C551 C 0.06256 0.62507 0.08007 0.0
C552 C 1.0016 0.63384 0.06409 0.0
C553 C 0.05224 0.61104 0.11456 0.0
C554 C 0.01699 0.60743 0.12329 0.0
C555 C 0.95582 0.61402 0.10589 0.0
C556 C 0.93043 0.6258 0.08078 0.0
C557 C 0.99139 0.61841 0.09804 0.0
C558 C 0.941 0.64221 0.04794 0.0
C559 C 0.97618 0.6459 0.03946 0.0
H560 H 0.56156 0.40615 0.63949 0.0
H561 H 0.59598 0.36023 0.53678 0.0
H562 H 0.53555 0.35174 0.51741 0.0
H563 H 0.47262 0.35931 0.5288 0.0
H564 H 0.43915 0.40229 0.63387 0.0
H565 H 0.49936 0.40993 0.65315 0.0
C566 C 0.55581 0.39415 0.61294 0.0
C567 C 0.58314 0.38406 0.58946 0.0
C568 C 0.52113 0.38892 0.60234 0.0
C569 C 0.57535 0.36814 0.55541 0.0
C570 C 0.54082 0.36343 0.54423 0.0
C571 C 0.4786 0.37024 0.55593 0.0
C572 C 0.45144 0.38037 0.57974 0.0
C573 C 0.51345 0.37403 0.5673 0.0
C574 C 0.45954 0.39416 0.61506 0.0
C575 C 0.49399 0.39865 0.62609 0.0
H576 H 0.03913 0.36355 0.99214 0.0
H577 H 0.06649 0.39984 0.88129 0.0
H578 H 0.00521 0.40629 0.86548 0.0
H579 H 0.94383 0.40381 0.88398 0.0
H580 H 0.91549 0.36384 0.99252 0.0
H581 H 0.97698 0.35637 0.00835 0.0
C582 C 0.03158 0.37268 0.96449 0.0
C583 C 0.05731 0.3814 0.93803 0.0
C584 C 0.99613 0.3757 0.95519 0.0
C585 C 0.04719 0.39285 0.9021 0.0
C586 C 0.01215 0.39668 0.89307 0.0
C587 C 0.95117 0.3933 0.91101 0.0
C588 C 0.92529 0.38466 0.93721 0.0
C589 C 0.98642 0.38851 0.91951 0.0
C590 C 0.93502 0.37062 0.97188 0.0
C591 C 0.97015 0.36649 0.98099 0.0
H592 H 0.56297 0.60371 0.36646 0.0
H593 H 0.59689 0.65347 0.46697 0.0
H594 H 0.53653 0.66165 0.48595 0.0
H595 H 0.4741 0.65213 0.47576 0.0
H596 H 0.4401 0.60493 0.37353 0.0
H597 H 0.50041 0.5984 0.35339 0.0
C598 C 0.55712 0.61655 0.39237 0.0
C599 C 0.5844 0.62775 0.41541 0.0
C600 C 0.52234 0.62149 0.4029 0.0
C601 C 0.57641 0.64469 0.44865 0.0
C602 C 0.54188 0.64923 0.45964 0.0
C603 C 0.47993 0.64054 0.44899 0.0
C604 C 0.45269 0.62875 0.42635 0.0
C605 C 0.51465 0.63733 0.43729 0.0
C606 C 0.46059 0.61423 0.39146 0.0
C607 C 0.49508 0.61039 0.37999 0.0
H608 H 0.32351 0.1561 0.23421 0.0
H609 H 0.23415 0.16184 0.16077 0.0
H610 H 0.19606 0.16644 0.21626 0.0
H611 H 0.18801 0.15721 0.28545 0.0
H612 H 0.27756 0.15374 0.35883 0.0
H613 H 0.31592 0.16047 0.30386 0.0
C614 C 0.29585 0.15989 0.23043 0.0
C615 C 0.28156 0.15865 0.19359 0.0
C616 C 0.27416 0.1623 0.26252 0.0
C617 C 0.24571 0.16315 0.18887 0.0
C618 C 0.22389 0.1653 0.22065 0.0
C619 C 0.21586 0.15927 0.28941 0.0
C620 C 0.2301 0.15497 0.32594 0.0
C621 C 0.23772 0.16323 0.2576 0.0
C622 C 0.26615 0.15731 0.33093 0.0
C623 C 0.28806 0.16084 0.29946 0.0
H624 H 0.31527 0.84786 0.77858 0.0
H625 H 0.22441 0.85364 0.84946 0.0
H626 H 0.18701 0.8499 0.79333 0.0
H627 H 0.1812 0.85678 0.7237 0.0
H628 H 0.27178 0.84907 0.65255 0.0
H629 H 0.30835 0.84122 0.70889 0.0
C630 C 0.28729 0.84658 0.78176 0.0
C631 C 0.27252 0.85073 0.81802 0.0
C632 C 0.26597 0.84487 0.74919 0.0
C633 C 0.23626 0.84986 0.82187 0.0
C634 C 0.21489 0.84825 0.78969 0.0
C635 C 0.20875 0.85216 0.72059 0.0
C636 C 0.22392 0.85367 0.68423 0.0
C637 C 0.22953 0.8475 0.75312 0.0
C638 C 0.2596 0.84779 0.68033 0.0
C639 C 0.28053 0.84359 0.71256 0.0
H640 H 0.75564 0.88038 0.83027 0.0
H641 H 0.6543 0.87483 0.77842 0.0
H642 H 0.6807 0.87304 0.71521 0.0
H643 H 0.73302 0.8737 0.67396 0.0
H644 H 0.83417 0.87658 0.72681 0.0
H645 H 0.80759 0.87872 0.78958 0.0
C646 C 0.73933 0.87872 0.80516 0.0
C647 C 0.703 0.87786 0.80926 0.0
C648 C 0.75473 0.87725 0.76873 0.0
C649 C 0.68234 0.87547 0.77627 0.0
C650 C 0.69744 0.87452 0.73998 0.0
C651 C 0.74918 0.87477 0.69923 0.0
C652 C 0.7856 0.87506 0.69542 0.0
C653 C 0.73366 0.87551 0.73574 0.0
C654 C 0.8061 0.87621 0.72864 0.0
C655 C 0.79091 0.87752 0.76474 0.0
H656 H 0.74679 0.1344 0.34231 0.0
H657 H 0.84888 0.1347 0.2921 0.0
H658 H 0.82337 0.1331 0.22839 0.0
H659 H 0.77158 0.13123 0.18621 0.0
H660 H 0.66973 0.13392 0.23714 0.0
H661 H 0.69541 0.13475 0.30047 0.0
C662 C 0.76345 0.13414 0.31744 0.0
C663 C 0.79974 0.13457 0.3222 0.0
C664 C 0.74856 0.13375 0.28064 0.0
C665 C 0.82086 0.13447 0.28947 0.0
C666 C 0.80627 0.13348 0.25288 0.0
C667 C 0.75506 0.13203 0.21117 0.0
C668 C 0.71869 0.13244 0.20663 0.0
C669 C 0.7701 0.13305 0.248 0.0
C670 C 0.69777 0.1337 0.23949 0.0
C671 C 0.71244 0.1341 0.27593 0.0
H672 H 0.68964 0.65786 0.27258 0.0
H673 H 0.78031 0.65713 0.34437 0.0
H674 H 0.81769 0.66347 0.28851 0.0
H675 H 0.82431 0.658 0.21861 0.0
H676 H 0.73356 0.66116 0.14704 0.0
H677 H 0.69634 0.66583 0.20319 0.0
C678 C 0.71749 0.66052 0.27601 0.0
C679 C 0.7323 0.65706 0.3124 0.0
C680 C 0.73877 0.66413 0.2437 0.0
C681 C 0.76839 0.66014 0.31664 0.0
C682 C 0.78977 0.66335 0.28463 0.0
C683 C 0.79652 0.66116 0.21538 0.0
C684 C 0.78159 0.65936 0.17888 0.0
C685 C 0.7753 0.66381 0.2479 0.0
C686 C 0.74555 0.66295 0.17488 0.0
C687 C 0.72426 0.66523 0.20703 0.0
H688 H 0.77065 0.35437 0.68698 0.0
H689 H 0.66712 0.35131 0.73277 0.0
H690 H 0.69035 0.34375 0.797 0.0
H691 H 0.73997 0.35007 0.84093 0.0
H692 H 0.84312 0.35908 0.79514 0.0
H693 H 0.82075 0.35155 0.73059 0.0
C694 C 0.75329 0.35051 0.71086 0.0
C695 C 0.71726 0.35291 0.70521 0.0
C696 C 0.76697 0.34785 0.748 0.0
C697 C 0.69494 0.34899 0.73646 0.0
C698 C 0.70826 0.34507 0.77326 0.0
C699 C 0.7576 0.34892 0.81689 0.0
C700 C 0.79315 0.35473 0.82268 0.0
C701 C 0.74423 0.34615 0.77961 0.0
C702 C 0.81572 0.3542 0.79129 0.0
C703 C 0.80285 0.35025 0.75434 0.0
H704 H 0.24123 0.37023 0.67832 0.0
H705 H 0.34214 0.38425 0.72899 0.0
H706 H 0.31652 0.38417 0.79234 0.0
H707 H 0.26538 0.38025 0.83409 0.0
H708 H 0.16469 0.36372 0.78404 0.0
H709 H 0.19011 0.36445 0.72048 0.0
C710 C 0.25751 0.37335 0.70324 0.0
C711 C 0.29353 0.37733 0.69876 0.0
C712 C 0.24265 0.37269 0.74002 0.0
C713 C 0.31432 0.38103 0.73147 0.0
C714 C 0.29971 0.38103 0.76786 0.0
C715 C 0.24905 0.37668 0.80929 0.0
C716 C 0.21318 0.37196 0.81402 0.0
C717 C 0.2639 0.37682 0.77258 0.0
C718 C 0.19243 0.36729 0.78143 0.0
C719 C 0.20693 0.36781 0.74491 0.0
H720 H 0.32359 0.63304 0.28465 0.0
H721 H 0.232 0.63155 0.35522 0.0
H722 H 0.19523 0.63411 0.29833 0.0
H723 H 0.18911 0.63569 0.22825 0.0
H724 H 0.28098 0.6346 0.15807 0.0
H725 H 0.31755 0.63435 0.215 0.0
C726 C 0.29557 0.63336 0.28766 0.0
C727 C 0.28061 0.63214 0.32427 0.0
C728 C 0.27462 0.63444 0.2548 0.0
C729 C 0.24424 0.63239 0.32748 0.0
C730 C 0.22319 0.63391 0.29492 0.0
C731 C 0.21714 0.63567 0.22542 0.0
C732 C 0.23226 0.63534 0.18884 0.0
C733 C 0.23808 0.63485 0.2584 0.0
C734 C 0.26863 0.6349 0.18577 0.0
C735 C 0.28959 0.63471 0.21836 0.0
loop_
_geom_bond_atom_site_label_1
_geom_bond_atom_site_label_2
_geom_bond_distance
_geom_bond_site_symmetry_2
_ccdc_geom_bond_type
Co0 O1 2.216 . S
Co0 O2 2.091 . S
Co0 O4 2.004 . S
Co0 O10 2.021 . S
Co0 O12 2.137 . S
Co0 O13 2.244 . S
O1 Co0 2.216 . S
O1 C8 1.247 . S
O2 Co0 2.091 . S
O2 C8 1.261 . S
C3 O12 1.247 . S
C3 O13 1.272 . S
O4 Co0 2.004 . S
O4 C9 1.259 . S
Co5 O6 2.061 . S
Co5 O11 2.052 . S
Co5 O13 2.135 . S
O6 Co5 2.061 . S
O6 C9 1.235 . S
C7 O10 1.238 . S
C7 O11 1.241 . S
C8 O1 1.247 . S
C8 O2 1.261 . S
C9 O4 1.259 . S
C9 O6 1.235 . S
O10 Co0 2.021 . S
O10 C7 1.238 . S
O11 Co5 2.052 . S
O11 C7 1.241 . S
O12 Co0 2.137 . S
O12 C3 1.247 . S
O13 Co0 2.244 . S
O13 C3 1.272 . S
O13 Co5 2.135 . S
Co14 O15 2.216 . S
Co14 O16 2.091 . S
Co14 O18 2.004 . S
Co14 O24 2.021 . S
Co14 O26 2.137 . S
Co14 O27 2.244 . S
O15 Co14 2.216 . S
O15 C22 1.247 . S
O16 Co14 2.091 . S
O16 C22 1.261 . S
C17 O26 1.247 . S
C17 O27 1.272 . S
O18 Co14 2.004 . S
O18 C23 1.259 . S
Co19 O20 2.061 . S
Co19 O25 2.052 . S
Co19 O27 2.135 . S
O20 Co19 2.061 . S
O20 C23 1.235 . S
C21 O24 1.238 . S
C21 O25 1.241 . S
C22 O15 1.247 . S
C22 O16 1.261 . S
C23 O18 1.259 . S
C23 O20 1.235 . S
O24 Co14 2.021 . S
O24 C21 1.238 . S
O25 Co19 2.052 . S
O25 C21 1.241 . S
O26 Co14 2.137 . S
O26 C17 1.247 . S
O27 Co14 2.244 . S
O27 C17 1.272 . S
O27 Co19 2.135 . S
Co28 O29 2.216 . S
Co28 O30 2.091 . S
Co28 O32 2.004 . S
Co28 O38 2.021 . S
Co28 O40 2.137 . S
Co28 O41 2.244 . S
O29 Co28 2.216 . S
O29 C36 1.247 . S
O30 Co28 2.091 . S
O30 C36 1.261 . S
C31 O40 1.247 . S
C31 O41 1.272 . S
O32 Co28 2.004 . S
O32 C37 1.259 . S
Co33 O34 2.061 . S
Co33 O39 2.052 . S
Co33 O41 2.135 . S
O34 Co33 2.061 . S
O34 C37 1.235 . S
C35 O38 1.238 . S
C35 O39 1.241 . S
C36 O29 1.247 . S
C36 O30 1.261 . S
C37 O32 1.259 . S
C37 O34 1.235 . S
O38 Co28 2.021 . S
O38 C35 1.238 . S
O39 Co33 2.052 . S
O39 C35 1.241 . S
O40 Co28 2.137 . S
O40 C31 1.247 . S
O41 Co28 2.244 . S
O41 C31 1.272 . S
O41 Co33 2.135 . S
Co42 O43 2.216 . S
Co42 O44 2.091 . S
Co42 O46 2.004 . S
Co42 O52 2.021 . S
Co42 O54 2.137 . S
Co42 O55 2.244 . S
O43 Co42 2.216 . S
O43 C50 1.247 . S
O44 Co42 2.091 . S
O44 C50 1.261 . S
C45 O54 1.247 . S
C45 O55 1.272 . S
O46 Co42 2.004 . S
O46 C51 1.259 . S
Co47 O48 2.061 . S
Co47 O53 2.052 . S
Co47 O55 2.135 . S
O48 Co47 2.061 . S
O48 C51 1.235 . S
C49 O52 1.238 . S
C49 O53 1.241 . S
C50 O43 1.247 . S
C50 O44 1.261 . S
C51 O46 1.259 . S
C51 O48 1.235 . S
O52 Co42 2.021 . S
O52 C49 1.238 . S
O53 Co47 2.052 . S
O53 C49 1.241 . S
O54 Co42 2.137 . S
O54 C45 1.247 . S
O55 Co42 2.244 . S
O55 C45 1.272 . S
O55 Co47 2.135 . S
Co56 O57 2.216 . S
Co56 O58 2.091 . S
Co56 O60 2.004 . S
Co56 O66 2.021 . S
Co56 O68 2.137 . S
Co56 O69 2.244 . S
O57 Co56 2.216 . S
O57 C64 1.247 . S
O58 Co56 2.091 . S
O58 C64 1.261 . S
C59 O68 1.247 . S
C59 O69 1.272 . S
O60 Co56 2.004 . S
O60 C65 1.259 . S
Co61 O62 2.061 . S
Co61 O67 2.052 . S
Co61 O69 2.135 . S
O62 Co61 2.061 . S
O62 C65 1.235 . S
C63 O66 1.238 . S
C63 O67 1.241 . S
C64 O57 1.247 . S
C64 O58 1.261 . S
C65 O60 1.259 . S
C65 O62 1.235 . S
O66 Co56 2.021 . S
O66 C63 1.238 . S
O67 Co61 2.052 . S
O67 C63 1.241 . S
O68 Co56 2.137 . S
O68 C59 1.247 . S
O69 Co56 2.244 . S
O69 C59 1.272 . S
O69 Co61 2.135 . S
Co70 O71 2.216 . S
Co70 O72 2.091 . S
Co70 O74 2.004 . S
Co70 O80 2.021 . S
Co70 O82 2.137 . S
Co70 O83 2.244 . S
O71 Co70 2.216 . S
O71 C78 1.247 . S
O72 Co70 2.091 . S
O72 C78 1.261 . S
C73 O82 1.247 . S
C73 O83 1.272 . S
O74 Co70 2.004 . S
O74 C79 1.259 . S
Co75 O76 2.061 . S
Co75 O81 2.052 . S
Co75 O83 2.135 . S
O76 Co75 2.061 . S
O76 C79 1.235 . S
C77 O80 1.238 . S
C77 O81 1.241 . S
C78 O71 1.247 . S
C78 O72 1.261 . S
C79 O74 1.259 . S
C79 O76 1.235 . S
O80 Co70 2.021 . S
O80 C77 1.238 . S
O81 Co75 2.052 . S
O81 C77 1.241 . S
O82 Co70 2.137 . S
O82 C73 1.247 . S
O83 Co70 2.244 . S
O83 C73 1.272 . S
O83 Co75 2.135 . S
Co84 O85 2.216 . S
Co84 O86 2.091 . S
Co84 O88 2.004 . S
Co84 O94 2.021 . S
Co84 O96 2.137 . S
Co84 O97 2.244 . S
O85 Co84 2.216 . S
O85 C92 1.247 . S
O86 Co84 2.091 . S
O86 C92 1.261 . S
C87 O96 1.247 . S
C87 O97 1.272 . S
O88 Co84 2.004 . S
O88 C93 1.259 . S
Co89 O90 2.061 . S
Co89 O95 2.052 . S
Co89 O97 2.135 . S
O90 Co89 2.061 . S
O90 C93 1.235 . S
C91 O94 1.238 . S
C91 O95 1.241 . S
C92 O85 1.247 . S
C92 O86 1.261 . S
C93 O88 1.259 . S
C93 O90 1.235 . S
O94 Co84 2.021 . S
O94 C91 1.238 . S
O95 Co89 2.052 . S
O95 C91 1.241 . S
O96 Co84 2.137 . S
O96 C87 1.247 . S
O97 Co84 2.244 . S
O97 C87 1.272 . S
O97 Co89 2.135 . S
Co98 O99 2.216 . S
Co98 O100 2.091 . S
Co98 O102 2.004 . S
Co98 O108 2.021 . S
Co98 O110 2.137 . S
Co98 O111 2.244 . S
O99 Co98 2.216 . S
O99 C106 1.247 . S
O100 Co98 2.091 . S
O100 C106 1.261 . S
C101 O110 1.247 . S
C101 O111 1.272 . S
O102 Co98 2.004 . S
O102 C107 1.259 . S
Co103 O104 2.061 . S
Co103 O109 2.052 . S
Co103 O111 2.135 . S
O104 Co103 2.061 . S
O104 C107 1.235 . S
C105 O108 1.238 . S
C105 O109 1.241 . S
C106 O99 1.247 . S
C106 O100 1.261 . S
C107 O102 1.259 . S
C107 O104 1.235 . S
O108 Co98 2.021 . S
O108 C105 1.238 . S
O109 Co103 2.052 . S
O109 C105 1.241 . S
O110 Co98 2.137 . S
O110 C101 1.247 . S
O111 Co98 2.244 . S
O111 C101 1.272 . S
O111 Co103 2.135 . S
Co112 O113 2.216 . S
Co112 O114 2.091 . S
Co112 O116 2.004 . S
Co112 O122 2.021 . S
Co112 O124 2.137 . S
Co112 O125 2.244 . S
O113 Co112 2.216 . S
O113 C120 1.247 . S
O114 Co112 2.091 . S
O114 C120 1.261 . S
C115 O124 1.247 . S
C115 O125 1.272 . S
O116 Co112 2.004 . S
O116 C121 1.259 . S
Co117 O118 2.061 . S
Co117 O123 2.052 . S
Co117 O125 2.135 . S
O118 Co117 2.061 . S
O118 C121 1.235 . S
C119 O122 1.238 . S
C119 O123 1.241 . S
C120 O113 1.247 . S
C120 O114 1.261 . S
C121 O116 1.259 . S
C121 O118 1.235 . S
O122 Co112 2.021 . S
O122 C119 1.238 . S
O123 Co117 2.052 . S
O123 C119 1.241 . S
O124 Co112 2.137 . S
O124 C115 1.247 . S
O125 Co112 2.244 . S
O125 C115 1.272 . S
O125 Co117 2.135 . S
Co126 O127 2.216 . S
Co126 O128 2.091 . S
Co126 O130 2.004 . S
Co126 O136 2.021 . S
Co126 O138 2.137 . S
Co126 O139 2.244 . S
O127 Co126 2.216 . S
O127 C134 1.247 . S
O128 Co126 2.091 . S
O128 C134 1.261 . S
C129 O138 1.247 . S
C129 O139 1.272 . S
O130 Co126 2.004 . S
O130 C135 1.259 . S
Co131 O132 2.061 . S
Co131 O137 2.052 . S
Co131 O139 2.135 . S
O132 Co131 2.061 . S
O132 C135 1.235 . S
C133 O136 1.238 . S
C133 O137 1.241 . S
C134 O127 1.247 . S
C134 O128 1.261 . S
C135 O130 1.259 . S
C135 O132 1.235 . S
O136 Co126 2.021 . S
O136 C133 1.238 . S
O137 Co131 2.052 . S
O137 C133 1.241 . S
O138 Co126 2.137 . S
O138 C129 1.247 . S
O139 Co126 2.244 . S
O139 C129 1.272 . S
O139 Co131 2.135 . S
Co140 O141 2.216 . S
Co140 O142 2.091 . S
Co140 O144 2.004 . S
Co140 O150 2.021 . S
Co140 O152 2.137 . S
Co140 O153 2.244 . S
O141 Co140 2.216 . S
O141 C148 1.247 . S
O142 Co140 2.091 . S
O142 C148 1.261 . S
C143 O152 1.247 . S
C143 O153 1.272 . S
O144 Co140 2.004 . S
O144 C149 1.259 . S
Co145 O146 2.061 . S
Co145 O151 2.052 . S
Co145 O153 2.135 . S
O146 Co145 2.061 . S
O146 C149 1.235 . S
C147 O150 1.238 . S
C147 O151 1.241 . S
C148 O141 1.247 . S
C148 O142 1.261 . S
C149 O144 1.259 . S
C149 O146 1.235 . S
O150 Co140 2.021 . S
O150 C147 1.238 . S
O151 Co145 2.052 . S
O151 C147 1.241 . S
O152 Co140 2.137 . S
O152 C143 1.247 . S
O153 Co140 2.244 . S
O153 C143 1.272 . S
O153 Co145 2.135 . S
Co154 O155 2.216 . S
Co154 O156 2.091 . S
Co154 O158 2.004 . S
Co154 O164 2.021 . S
Co154 O166 2.137 . S
Co154 O167 2.244 . S
O155 Co154 2.216 . S
O155 C162 1.247 . S
O156 Co154 2.091 . S
O156 C162 1.261 . S
C157 O166 1.247 . S
C157 O167 1.272 . S
O158 Co154 2.004 . S
O158 C163 1.259 . S
Co159 O160 2.061 . S
Co159 O165 2.052 . S
Co159 O167 2.135 . S
O160 Co159 2.061 . S
O160 C163 1.235 . S
C161 O164 1.238 . S
C161 O165 1.241 . S
C162 O155 1.247 . S
C162 O156 1.261 . S
C163 O158 1.259 . S
C163 O160 1.235 . S
O164 Co154 2.021 . S
O164 C161 1.238 . S
O165 Co159 2.052 . S
O165 C161 1.241 . S
O166 Co154 2.137 . S
O166 C157 1.247 . S
O167 Co154 2.244 . S
O167 C157 1.272 . S
O167 Co159 2.135 . S
Co168 O169 2.216 . S
Co168 O170 2.091 . S
Co168 O172 2.004 . S
Co168 O178 2.021 . S
Co168 O180 2.137 . S
Co168 O181 2.244 . S
O169 Co168 2.216 . S
O169 C176 1.247 . S
O170 Co168 2.091 . S
O170 C176 1.261 . S
C171 O180 1.247 . S
C171 O181 1.272 . S
O172 Co168 2.004 . S
O172 C177 1.259 . S
Co173 O174 2.061 . S
Co173 O179 2.052 . S
Co173 O181 2.135 . S
O174 Co173 2.061 . S
O174 C177 1.235 . S
C175 O178 1.238 . S
C175 O179 1.241 . S
C176 O169 1.247 . S
C176 O170 1.261 . S
C177 O172 1.259 . S
C177 O174 1.235 . S
O178 Co168 2.021 . S
O178 C175 1.238 . S
O179 Co173 2.052 . S
O179 C175 1.241 . S
O180 Co168 2.137 . S
O180 C171 1.247 . S
O181 Co168 2.244 . S
O181 C171 1.272 . S
O181 Co173 2.135 . S
Co182 O183 2.216 . S
Co182 O184 2.091 . S
Co182 O186 2.004 . S
Co182 O192 2.021 . S
Co182 O194 2.137 . S
Co182 O195 2.244 . S
O183 Co182 2.216 . S
O183 C190 1.247 . S
O184 Co182 2.091 . S
O184 C190 1.261 . S
C185 O194 1.247 . S
C185 O195 1.272 . S
O186 Co182 2.004 . S
O186 C191 1.259 . S
Co187 O188 2.061 . S
Co187 O193 2.052 . S
Co187 O195 2.135 . S
O188 Co187 2.061 . S
O188 C191 1.235 . S
C189 O192 1.238 . S
C189 O193 1.241 . S
C190 O183 1.247 . S
C190 O184 1.261 . S
C191 O186 1.259 . S
C191 O188 1.235 . S
O192 Co182 2.021 . S
O192 C189 1.238 . S
O193 Co187 2.052 . S
O193 C189 1.241 . S
O194 Co182 2.137 . S
O194 C185 1.247 . S
O195 Co182 2.244 . S
O195 C185 1.272 . S
O195 Co187 2.135 . S
Co196 O197 2.216 . S
Co196 O198 2.091 . S
Co196 O200 2.004 . S
Co196 O206 2.021 . S
Co196 O208 2.137 . S
Co196 O209 2.244 . S
O197 Co196 2.216 . S
O197 C204 1.247 . S
O198 Co196 2.091 . S
O198 C204 1.261 . S
C199 O208 1.247 . S
C199 O209 1.272 . S
O200 Co196 2.004 . S
O200 C205 1.259 . S
Co201 O202 2.061 . S
Co201 O207 2.052 . S
Co201 O209 2.135 . S
O202 Co201 2.061 . S
O202 C205 1.235 . S
C203 O206 1.238 . S
C203 O207 1.241 . S
C204 O197 1.247 . S
C204 O198 1.261 . S
C205 O200 1.259 . S
C205 O202 1.235 . S
O206 Co196 2.021 . S
O206 C203 1.238 . S
O207 Co201 2.052 . S
O207 C203 1.241 . S
O208 Co196 2.137 . S
O208 C199 1.247 . S
O209 Co196 2.244 . S
O209 C199 1.272 . S
O209 Co201 2.135 . S
Co210 O211 2.216 . S
Co210 O212 2.091 . S
Co210 O214 2.004 . S
Co210 O220 2.021 . S
Co210 O222 2.137 . S
Co210 O223 2.244 . S
O211 Co210 2.216 . S
O211 C218 1.247 . S
O212 Co210 2.091 . S
O212 C218 1.261 . S
C213 O222 1.247 . S
C213 O223 1.272 . S
O214 Co210 2.004 . S
O214 C219 1.259 . S
Co215 O216 2.061 . S
Co215 O221 2.052 . S
Co215 O223 2.135 . S
O216 Co215 2.061 . S
O216 C219 1.235 . S
C217 O220 1.238 . S
C217 O221 1.241 . S
C218 O211 1.247 . S
C218 O212 1.261 . S
C219 O214 1.259 . S
C219 O216 1.235 . S
O220 Co210 2.021 . S
O220 C217 1.238 . S
O221 Co215 2.052 . S
O221 C217 1.241 . S
O222 Co210 2.137 . S
O222 C213 1.247 . S
O223 Co210 2.244 . S
O223 C213 1.272 . S
O223 Co215 2.135 . S
H224 C230 0.930 . S
H225 C233 0.930 . S
H226 C234 0.930 . S
H227 C235 0.930 . S
H228 C238 0.930 . S
H229 C239 0.939 . S
C230 H224 0.930 . S
C230 C231 1.355 . S
C230 C232 1.415 1_554 S
C231 C230 1.355 . S
C231 C233 1.419 . S
C232 C230 1.415 1_556 S
C232 C237 1.425 . S
C232 C239 1.409 . S
C233 H225 0.930 . S
C233 C231 1.419 . S
C233 C234 1.362 1_554 S
C234 H226 0.930 . S
C234 C233 1.362 1_556 S
C234 C237 1.409 . S
C235 H227 0.930 . S
C235 C236 1.355 . S
C235 C237 1.415 . S
C236 C235 1.355 . S
C236 C238 1.419 . S
C237 C232 1.425 . S
C237 C234 1.409 . S
C237 C235 1.415 . S
C238 H228 0.930 . S
C238 C236 1.419 . S
C238 C239 1.362 . S
C239 H229 0.939 . S
C239 C232 1.409 . S
C239 C238 1.362 . S
H240 C246 0.930 . S
H241 C249 0.930 . S
H242 C250 0.930 . S
H243 C251 0.930 . S
H244 C254 0.930 . S
H245 C255 0.930 . S
C246 H240 0.930 . S
C246 C247 1.355 . S
C246 C248 1.415 . S
C247 C246 1.355 . S
C247 C249 1.419 . S
C248 C246 1.415 . S
C248 C253 1.425 . S
C248 C255 1.409 . S
C249 H241 0.930 . S
C249 C247 1.419 . S
C249 C250 1.362 . S
C250 H242 0.930 . S
C250 C249 1.362 . S
C250 C253 1.409 . S
C251 H243 0.930 . S
C251 C252 1.355 . S
C251 C253 1.415 . S
C252 C251 1.355 . S
C252 C254 1.419 . S
C253 C248 1.425 . S
C253 C250 1.409 . S
C253 C251 1.415 . S
C254 H244 0.930 . S
C254 C252 1.419 . S
C254 C255 1.362 . S
C255 H245 0.930 . S
C255 C248 1.409 . S
C255 C254 1.362 . S
H256 C262 0.930 . S
H257 C265 0.930 . S
H258 C266 0.930 . S
H259 C267 0.930 . S
H260 C270 0.930 . S
H261 C271 0.930 . S
C262 H256 0.930 . S
C262 C263 1.355 . S
C262 C264 1.415 . S
C263 C262 1.355 . S
C263 C265 1.419 1_556 S
C264 C262 1.415 . S
C264 C269 1.425 1_556 S
C264 C271 1.409 . S
C265 H257 0.930 . S
C265 C263 1.419 1_554 S
C265 C266 1.362 . S
C266 H258 0.930 . S
C266 C265 1.362 . S
C266 C269 1.409 . S
C267 H259 0.930 . S
C267 C268 1.355 . S
C267 C269 1.415 . S
C268 C267 1.355 . S
C268 C270 1.419 . S
C269 C264 1.425 1_554 S
C269 C266 1.409 . S
C269 C267 1.415 . S
C270 H260 0.930 . S
C270 C268 1.419 . S
C270 C271 1.362 1_554 S
C271 H261 0.930 . S
C271 C264 1.409 . S
C271 C270 1.362 1_556 S
H272 C278 0.930 . S
H273 C281 0.930 . S
H274 C282 0.930 . S
H275 C283 0.930 . S
H276 C286 0.930 . S
H277 C287 0.930 . S
C278 H272 0.930 . S
C278 C279 1.355 . S
C278 C280 1.415 . S
C279 C278 1.355 . S
C279 C281 1.419 . S
C280 C278 1.415 . S
C280 C285 1.425 . S
C280 C287 1.409 . S
C281 H273 0.930 . S
C281 C279 1.419 . S
C281 C282 1.362 . S
C282 H274 0.930 . S
C282 C281 1.362 . S
C282 C285 1.409 . S
C283 H275 0.930 . S
C283 C284 1.355 . S
C283 C285 1.415 . S
C284 C283 1.355 . S
C284 C286 1.419 . S
C285 C280 1.425 . S
C285 C282 1.409 . S
C285 C283 1.415 . S
C286 H276 0.930 . S
C286 C284 1.419 . S
C286 C287 1.362 . S
C287 H277 0.930 . S
C287 C280 1.409 . S
C287 C286 1.362 . S
H288 C294 0.930 . S
H289 C297 0.930 . S
H290 C298 0.930 . S
H291 C299 0.930 . S
H292 C302 0.929 1_554 S
H293 C303 0.930 . S
C294 H288 0.930 . S
C294 C295 1.355 . S
C294 C296 1.415 . S
C295 C294 1.355 . S
C295 C297 1.419 1_554 S
C296 C294 1.415 . S
C296 C301 1.425 1_554 S
C296 C303 1.409 . S
C297 H289 0.930 . S
C297 C295 1.419 1_556 S
C297 C298 1.362 . S
C298 H290 0.930 . S
C298 C297 1.362 . S
C298 C301 1.409 . S
C299 H291 0.930 . S
C299 C300 1.355 . S
C299 C301 1.415 . S
C300 C299 1.355 . S
C300 C302 1.419 . S
C301 C296 1.425 1_556 S
C301 C298 1.409 . S
C301 C299 1.415 . S
C302 H292 0.929 1_556 S
C302 C300 1.419 . S
C302 C303 1.362 1_556 S
C303 H293 0.930 . S
C303 C296 1.409 . S
C303 C302 1.362 1_554 S
H304 C310 0.930 . S
H305 C313 0.930 . S
H306 C314 0.930 . S
H307 C315 0.930 . S
H308 C318 0.930 . S
H309 C319 0.930 . S
C310 H304 0.930 . S
C310 C311 1.355 . S
C310 C312 1.415 . S
C311 C310 1.355 . S
C311 C313 1.419 . S
C312 C310 1.415 . S
C312 C317 1.425 . S
C312 C319 1.409 . S
C313 H305 0.930 . S
C313 C311 1.419 . S
C313 C314 1.362 . S
C314 H306 0.930 . S
C314 C313 1.362 . S
C314 C317 1.409 . S
C315 H307 0.930 . S
C315 C316 1.355 . S
C315 C317 1.415 . S
C316 C315 1.355 . S
C316 C318 1.419 . S
C317 C312 1.425 . S
C317 C314 1.409 . S
C317 C315 1.415 . S
C318 H308 0.930 . S
C318 C316 1.419 . S
C318 C319 1.362 . S
C319 H309 0.930 . S
C319 C312 1.409 . S
C319 C318 1.362 . S
H320 C326 0.930 . S
H321 C329 0.930 . S
H322 C330 0.930 . S
H323 C331 0.930 . S
H324 C334 0.930 . S
H325 C335 0.930 . S
C326 H320 0.930 . S
C326 C327 1.355 . S
C326 C328 1.415 . S
C327 C326 1.355 . S
C327 C329 1.419 1_556 S
C328 C326 1.415 . S
C328 C333 1.425 1_556 S
C328 C335 1.409 . S
C329 H321 0.930 . S
C329 C327 1.419 1_554 S
C329 C330 1.362 . S
C330 H322 0.930 . S
C330 C329 1.362 . S
C330 C333 1.409 . S
C331 H323 0.930 . S
C331 C332 1.355 . S
C331 C333 1.415 . S
C332 C331 1.355 . S
C332 C334 1.419 . S
C333 C328 1.425 1_554 S
C333 C330 1.409 . S
C333 C331 1.415 . S
C334 H324 0.930 . S
C334 C332 1.419 . S
C334 C335 1.362 1_554 S
C335 H325 0.930 . S
C335 C328 1.409 . S
C335 C334 1.362 1_556 S
H336 C342 0.930 . S
H337 C345 0.930 . S
H338 C346 0.930 . S
H339 C347 0.930 . S
H340 C350 0.930 . S
H341 C351 0.930 . S
C342 H336 0.930 . S
C342 C343 1.355 . S
C342 C344 1.415 . S
C343 C342 1.355 . S
C343 C345 1.419 . S
C344 C342 1.415 . S
C344 C349 1.425 . S
C344 C351 1.409 . S
C345 H337 0.930 . S
C345 C343 1.419 . S
C345 C346 1.362 . S
C346 H338 0.930 . S
C346 C345 1.362 . S
C346 C349 1.409 . S
C347 H339 0.930 . S
C347 C348 1.355 . S
C347 C349 1.415 . S
C348 C347 1.355 . S
C348 C350 1.419 . S
C349 C344 1.425 . S
C349 C346 1.409 . S
C349 C347 1.415 . S
C350 H340 0.930 . S
C350 C348 1.419 . S
C350 C351 1.362 . S
C351 H341 0.930 . S
C351 C344 1.409 . S
C351 C350 1.362 . S
H352 C358 0.930 . S
H353 C361 0.930 . S
H354 C362 0.930 1_565 S
H355 C363 0.930 . S
H356 C366 0.930 . S
H357 C367 0.930 1_545 S
C358 H352 0.930 . S
C358 C359 1.355 1_556 S
C358 C360 1.415 . S
C359 C358 1.355 1_554 S
C359 C361 1.419 . S
C360 C358 1.415 . S
C360 C365 1.425 1_546 S
C360 C367 1.409 1_545 S
C361 H353 0.930 . S
C361 C359 1.419 . S
C361 C362 1.362 . S
C362 H354 0.930 1_545 S
C362 C361 1.362 . S
C362 C365 1.409 1_545 S
C363 H355 0.930 . S
C363 C364 1.355 1_554 S
C363 C365 1.415 . S
C364 C363 1.355 1_556 S
C364 C366 1.419 . S
C365 C360 1.425 1_564 S
C365 C362 1.409 1_565 S
C365 C363 1.415 . S
C366 H356 0.930 . S
C366 C364 1.419 . S
C366 C367 1.362 . S
C367 H357 0.930 1_565 S
C367 C360 1.409 1_565 S
C367 C366 1.362 . S
H368 C374 0.930 . S
H369 C377 0.930 . S
H370 C378 0.930 . S
H371 C379 0.930 . S
H372 C382 0.930 . S
H373 C383 0.930 . S
C374 H368 0.930 . S
C374 C375 1.355 . S
C374 C376 1.415 . S
C375 C374 1.355 . S
C375 C377 1.419 . S
C376 C374 1.415 . S
C376 C381 1.425 1_565 S
C376 C383 1.409 1_565 S
C377 H369 0.930 . S
C377 C375 1.419 . S
C377 C378 1.362 . S
C378 H370 0.930 . S
C378 C377 1.362 . S
C378 C381 1.409 1_565 S
C379 H371 0.930 . S
C379 C380 1.355 . S
C379 C381 1.415 . S
C380 C379 1.355 . S
C380 C382 1.419 . S
C381 C376 1.425 1_545 S
C381 C378 1.409 1_545 S
C381 C379 1.415 . S
C382 H372 0.930 . S
C382 C380 1.419 . S
C382 C383 1.362 . S
C383 H373 0.930 . S
C383 C376 1.409 1_545 S
C383 C382 1.362 . S
H384 C390 0.930 . S
H385 C393 0.930 . S
H386 C394 0.930 1_554 S
H387 C395 0.930 . S
H388 C398 0.930 . S
H389 C399 0.930 1_556 S
C390 H384 0.930 . S
C390 C391 1.355 . S
C390 C392 1.415 . S
C391 C390 1.355 . S
C391 C393 1.419 . S
C392 C390 1.415 . S
C392 C397 1.425 1_566 S
C392 C399 1.409 1_566 S
C393 H385 0.930 . S
C393 C391 1.419 . S
C393 C394 1.362 . S
C394 H386 0.930 1_556 S
C394 C393 1.362 . S
C394 C397 1.409 1_566 S
C395 H387 0.930 . S
C395 C396 1.355 . S
C395 C397 1.415 . S
C396 C395 1.355 . S
C396 C398 1.419 . S
C397 C392 1.425 1_544 S
C397 C394 1.409 1_544 S
C397 C395 1.415 . S
C398 H388 0.930 . S
C398 C396 1.419 . S
C398 C399 1.362 . S
C399 H389 0.930 1_554 S
C399 C392 1.409 1_544 S
C399 C398 1.362 . S
H400 C406 0.930 . S
H401 C409 0.930 . S
H402 C410 0.930 . S
H403 C411 0.930 . S
H404 C414 0.930 . S
H405 C415 0.930 . S
C406 H400 0.930 . S
C406 C407 1.355 . S
C406 C408 1.415 1_545 S
C407 C406 1.355 . S
C407 C409 1.419 . S
C408 C406 1.415 1_565 S
C408 C413 1.425 1_565 S
C408 C415 1.409 . S
C409 H401 0.930 . S
C409 C407 1.419 . S
C409 C410 1.362 . S
C410 H402 0.930 . S
C410 C409 1.362 . S
C410 C413 1.409 . S
C411 H403 0.930 . S
C411 C412 1.355 . S
C411 C413 1.415 1_565 S
C412 C411 1.355 . S
C412 C414 1.419 . S
C413 C408 1.425 1_545 S
C413 C410 1.409 . S
C413 C411 1.415 1_545 S
C414 H404 0.930 . S
C414 C412 1.419 . S
C414 C415 1.362 . S
C415 H405 0.930 . S
C415 C408 1.409 . S
C415 C414 1.362 . S
H416 C422 0.930 . S
H417 C425 0.930 . S
H418 C426 0.930 . S
H419 C427 0.930 . S
H420 C430 0.930 . S
H421 C431 0.930 . S
C422 H416 0.930 . S
C422 C423 1.355 . S
C422 C424 1.415 . S
C423 C422 1.355 . S
C423 C425 1.419 1_556 S
C424 C422 1.415 . S
C424 C429 1.425 1_556 S
C424 C431 1.409 . S
C425 H417 0.930 . S
C425 C423 1.419 1_554 S
C425 C426 1.362 . S
C426 H418 0.930 . S
C426 C425 1.362 . S
C426 C429 1.409 . S
C427 H419 0.930 . S
C427 C428 1.355 . S
C427 C429 1.415 . S
C428 C427 1.355 . S
C428 C430 1.419 1_554 S
C429 C424 1.425 1_554 S
C429 C426 1.409 . S
C429 C427 1.415 . S
C430 H420 0.930 . S
C430 C428 1.419 1_556 S
C430 C431 1.362 . S
C431 H421 0.930 . S
C431 C424 1.409 . S
C431 C430 1.362 . S
H432 C438 0.930 . S
H433 C441 0.930 . S
H434 C442 0.930 . S
H435 C443 0.930 . S
H436 C446 0.930 . S
H437 C447 0.930 . S
C438 H432 0.930 . S
C438 C439 1.355 . S
C438 C440 1.415 . S
C439 C438 1.355 . S
C439 C441 1.419 . S
C440 C438 1.415 . S
C440 C445 1.425 . S
C440 C447 1.409 . S
C441 H433 0.930 . S
C441 C439 1.419 . S
C441 C442 1.362 . S
C442 H434 0.930 . S
C442 C441 1.362 . S
C442 C445 1.409 . S
C443 H435 0.930 . S
C443 C444 1.355 . S
C443 C445 1.415 . S
C444 C443 1.355 . S
C444 C446 1.419 . S
C445 C440 1.425 . S
C445 C442 1.409 . S
C445 C443 1.415 . S
C446 H436 0.930 . S
C446 C444 1.419 . S
C446 C447 1.362 . S
C447 H437 0.930 . S
C447 C440 1.409 . S
C447 C446 1.362 . S
H448 C454 0.930 . S
H449 C457 0.930 . S
H450 C458 0.930 . S
H451 C459 0.930 . S
H452 C462 0.930 . S
H453 C463 0.930 . S
C454 H448 0.930 . S
C454 C455 1.355 . S
C454 C456 1.415 1_554 S
C455 C454 1.355 . S
C455 C457 1.419 . S
C456 C454 1.415 1_556 S
C456 C461 1.425 1_556 S
C456 C463 1.409 . S
C457 H449 0.930 . S
C457 C455 1.419 . S
C457 C458 1.362 . S
C458 H450 0.930 . S
C458 C457 1.362 . S
C458 C461 1.409 . S
C459 H451 0.930 . S
C459 C460 1.355 . S
C459 C461 1.415 1_556 S
C460 C459 1.355 . S
C460 C462 1.419 . S
C461 C456 1.425 1_554 S
C461 C458 1.409 . S
C461 C459 1.415 1_554 S
C462 H452 0.930 . S
C462 C460 1.419 . S
C462 C463 1.362 . S
C463 H453 0.930 . S
C463 C456 1.409 . S
C463 C462 1.362 . S
H464 C470 0.930 . S
H465 C473 0.930 . S
H466 C474 0.930 . S
H467 C475 0.930 . S
H468 C478 0.930 . S
H469 C479 0.930 . S
C470 H464 0.930 . S
C470 C471 1.355 . S
C470 C472 1.415 . S
C471 C470 1.355 . S
C471 C473 1.419 . S
C472 C470 1.415 . S
C472 C477 1.425 . S
C472 C479 1.409 . S
C473 H465 0.930 . S
C473 C471 1.419 . S
C473 C474 1.362 . S
C474 H466 0.930 . S
C474 C473 1.362 . S
C474 C477 1.409 . S
C475 H467 0.930 . S
C475 C476 1.355 . S
C475 C477 1.415 . S
C476 C475 1.355 . S
C476 C478 1.419 . S
C477 C472 1.425 . S
C477 C474 1.409 . S
C477 C475 1.415 . S
C478 H468 0.930 . S
C478 C476 1.419 . S
C478 C479 1.362 . S
C479 H469 0.930 . S
C479 C472 1.409 . S
C479 C478 1.362 . S
H480 C486 0.930 . S
H481 C489 0.930 . S
H482 C490 0.930 . S
H483 C491 0.930 . S
H484 C494 0.930 . S
H485 C495 0.930 . S
C486 H480 0.930 . S
C486 C487 1.355 . S
C486 C488 1.415 . S
C487 C486 1.355 . S
C487 C489 1.419 . S
C488 C486 1.415 . S
C488 C493 1.425 . S
C488 C495 1.409 . S
C489 H481 0.930 . S
C489 C487 1.419 . S
C489 C490 1.362 . S
C490 H482 0.930 . S
C490 C489 1.362 . S
C490 C493 1.409 . S
C491 H483 0.930 . S
C491 C492 1.355 . S
C491 C493 1.415 . S
C492 C491 1.355 . S
C492 C494 1.419 . S
C493 C488 1.425 . S
C493 C490 1.409 . S
C493 C491 1.415 . S
C494 H484 0.930 . S
C494 C492 1.419 . S
C494 C495 1.362 . S
C495 H485 0.930 . S
C495 C488 1.409 . S
C495 C494 1.362 . S
H496 C502 0.930 . S
H497 C505 0.930 . S
H498 C506 0.930 . S
H499 C507 0.930 . S
H500 C510 0.930 . S
H501 C511 0.930 . S
C502 H496 0.930 . S
C502 C503 1.355 . S
C502 C504 1.415 1_655 S
C503 C502 1.355 . S
C503 C505 1.419 . S
C504 C502 1.415 1_455 S
C504 C509 1.425 . S
C504 C511 1.409 . S
C505 H497 0.930 . S
C505 C503 1.419 . S
C505 C506 1.362 1_655 S
C506 H498 0.930 . S
C506 C505 1.362 1_455 S
C506 C509 1.409 . S
C507 H499 0.930 . S
C507 C508 1.355 . S
C507 C509 1.415 . S
C508 C507 1.355 . S
C508 C510 1.419 . S
C509 C504 1.425 . S
C509 C506 1.409 . S
C509 C507 1.415 . S
C510 H500 0.930 . S
C510 C508 1.419 . S
C510 C511 1.362 . S
C511 H501 0.930 . S
C511 C504 1.409 . S
C511 C510 1.362 . S
H512 C518 0.930 . S
H513 C521 0.930 . S
H514 C522 0.930 . S
H515 C523 0.930 . S
H516 C526 0.930 . S
H517 C527 0.930 . S
C518 H512 0.930 . S
C518 C519 1.355 . S
C518 C520 1.415 . S
C519 C518 1.355 . S
C519 C521 1.419 . S
C520 C518 1.415 . S
C520 C525 1.425 . S
C520 C527 1.409 . S
C521 H513 0.930 . S
C521 C519 1.419 . S
C521 C522 1.362 . S
C522 H514 0.930 . S
C522 C521 1.362 . S
C522 C525 1.409 . S
C523 H515 0.930 . S
C523 C524 1.355 . S
C523 C525 1.415 . S
C524 C523 1.355 . S
C524 C526 1.419 . S
C525 C520 1.425 . S
C525 C522 1.409 . S
C525 C523 1.415 . S
C526 H516 0.930 . S
C526 C524 1.419 . S
C526 C527 1.362 . S
C527 H517 0.930 . S
C527 C520 1.409 . S
C527 C526 1.362 . S
H528 C534 0.930 . S
H529 C537 0.930 . S
H530 C538 0.930 . S
H531 C539 0.930 . S
H532 C542 0.930 . S
H533 C543 0.930 . S
C534 H528 0.930 . S
C534 C535 1.355 . S
C534 C536 1.415 . S
C535 C534 1.355 . S
C535 C537 1.419 . S
C536 C534 1.415 . S
C536 C541 1.425 . S
C536 C543 1.409 . S
C537 H529 0.930 . S
C537 C535 1.419 . S
C537 C538 1.362 . S
C538 H530 0.930 . S
C538 C537 1.362 . S
C538 C541 1.409 . S
C539 H531 0.930 . S
C539 C540 1.355 . S
C539 C541 1.415 1_655 S
C540 C539 1.355 . S
C540 C542 1.419 . S
C541 C536 1.425 . S
C541 C538 1.409 . S
C541 C539 1.415 1_455 S
C542 H532 0.930 . S
C542 C540 1.419 . S
C542 C543 1.362 1_655 S
C543 H533 0.930 . S
C543 C536 1.409 . S
C543 C542 1.362 1_455 S
H544 C550 0.930 . S
H545 C553 0.930 . S
H546 C554 0.930 . S
H547 C555 0.930 . S
H548 C558 0.930 . S
H549 C559 0.930 . S
C550 H544 0.930 . S
C550 C551 1.355 . S
C550 C552 1.415 1_455 S
C551 C550 1.355 . S
C551 C553 1.419 . S
C552 C550 1.415 1_655 S
C552 C557 1.425 . S
C552 C559 1.409 . S
C553 H545 0.930 . S
C553 C551 1.419 . S
C553 C554 1.362 1_455 S
C554 H546 0.930 . S
C554 C553 1.362 1_655 S
C554 C557 1.409 . S
C555 H547 0.930 . S
C555 C556 1.355 . S
C555 C557 1.415 . S
C556 C555 1.355 . S
C556 C558 1.419 . S
C557 C552 1.425 . S
C557 C554 1.409 . S
C557 C555 1.415 . S
C558 H548 0.930 . S
C558 C556 1.419 . S
C558 C559 1.362 . S
C559 H549 0.930 . S
C559 C552 1.409 . S
C559 C558 1.362 . S
H560 C566 0.930 . S
H561 C569 0.930 . S
H562 C570 0.930 . S
H563 C571 0.930 . S
H564 C574 0.930 . S
H565 C575 0.930 . S
C566 H560 0.930 . S
C566 C567 1.355 . S
C566 C568 1.415 . S
C567 C566 1.355 . S
C567 C569 1.419 . S
C568 C566 1.415 . S
C568 C573 1.425 . S
C568 C575 1.409 . S
C569 H561 0.930 . S
C569 C567 1.419 . S
C569 C570 1.362 . S
C570 H562 0.930 . S
C570 C569 1.362 . S
C570 C573 1.409 . S
C571 H563 0.930 . S
C571 C572 1.355 . S
C571 C573 1.415 . S
C572 C571 1.355 . S
C572 C574 1.419 . S
C573 C568 1.425 . S
C573 C570 1.409 . S
C573 C571 1.415 . S
C574 H564 0.930 . S
C574 C572 1.419 . S
C574 C575 1.362 . S
C575 H565 0.930 . S
C575 C568 1.409 . S
C575 C574 1.362 . S
H576 C582 0.930 . S
H577 C585 0.930 . S
H578 C586 0.930 . S
H579 C587 0.930 . S
H580 C590 0.930 . S
H581 C591 0.930 . S
C582 H576 0.930 . S
C582 C583 1.355 . S
C582 C584 1.415 1_455 S
C583 C582 1.355 . S
C583 C585 1.419 . S
C584 C582 1.415 1_655 S
C584 C589 1.425 . S
C584 C591 1.409 . S
C585 H577 0.930 . S
C585 C583 1.419 . S
C585 C586 1.362 1_455 S
C586 H578 0.930 . S
C586 C585 1.362 1_655 S
C586 C589 1.409 . S
C587 H579 0.930 . S
C587 C588 1.355 . S
C587 C589 1.415 . S
C588 C587 1.355 . S
C588 C590 1.419 . S
C589 C584 1.425 . S
C589 C586 1.409 . S
C589 C587 1.415 . S
C590 H580 0.930 . S
C590 C588 1.419 . S
C590 C591 1.362 . S
C591 H581 0.930 . S
C591 C584 1.409 . S
C591 C590 1.362 . S
H592 C598 0.930 . S
H593 C601 0.930 . S
H594 C602 0.930 . S
H595 C603 0.930 . S
H596 C606 0.930 . S
H597 C607 0.930 . S
C598 H592 0.930 . S
C598 C599 1.355 . S
C598 C600 1.415 . S
C599 C598 1.355 . S
C599 C601 1.419 . S
C600 C598 1.415 . S
C600 C605 1.425 . S
C600 C607 1.409 . S
C601 H593 0.930 . S
C601 C599 1.419 . S
C601 C602 1.362 . S
C602 H594 0.930 . S
C602 C601 1.362 . S
C602 C605 1.409 . S
C603 H595 0.930 . S
C603 C604 1.355 . S
C603 C605 1.415 . S
C604 C603 1.355 . S
C604 C606 1.419 . S
C605 C600 1.425 . S
C605 C602 1.409 . S
C605 C603 1.415 . S
C606 H596 0.930 . S
C606 C604 1.419 . S
C606 C607 1.362 . S
C607 H597 0.930 . S
C607 C600 1.409 . S
C607 C606 1.362 . S
H608 C614 0.930 . S
H609 C617 0.930 . S
H610 C618 0.930 . S
H611 C619 0.930 . S
H612 C622 0.930 . S
H613 C623 0.930 . S
C614 H608 0.930 . S
C614 C615 1.355 . S
C614 C616 1.415 . S
C615 C614 1.355 . S
C615 C617 1.419 . S
C616 C614 1.415 . S
C616 C621 1.425 . S
C616 C623 1.409 . S
C617 H609 0.930 . S
C617 C615 1.419 . S
C617 C618 1.362 . S
C618 H610 0.930 . S
C618 C617 1.362 . S
C618 C621 1.409 . S
C619 H611 0.930 . S
C619 C620 1.355 . S
C619 C621 1.415 . S
C620 C619 1.355 . S
C620 C622 1.419 . S
C621 C616 1.425 . S
C621 C618 1.409 . S
C621 C619 1.415 . S
C622 H612 0.930 . S
C622 C620 1.419 . S
C622 C623 1.362 . S
C623 H613 0.930 . S
C623 C616 1.409 . S
C623 C622 1.362 . S
H624 C630 0.930 . S
H625 C633 0.930 . S
H626 C634 0.930 . S
H627 C635 0.930 . S
H628 C638 0.930 . S
H629 C639 0.930 . S
C630 H624 0.930 . S
C630 C631 1.355 . S
C630 C632 1.415 . S
C631 C630 1.355 . S
C631 C633 1.419 . S
C632 C630 1.415 . S
C632 C637 1.425 . S
C632 C639 1.409 . S
C633 H625 0.930 . S
C633 C631 1.419 . S
C633 C634 1.362 . S
C634 H626 0.930 . S
C634 C633 1.362 . S
C634 C637 1.409 . S
C635 H627 0.930 . S
C635 C636 1.355 . S
C635 C637 1.415 . S
C636 C635 1.355 . S
C636 C638 1.419 . S
C637 C632 1.425 . S
C637 C634 1.409 . S
C637 C635 1.415 . S
C638 H628 0.930 . S
C638 C636 1.419 . S
C638 C639 1.362 . S
C639 H629 0.930 . S
C639 C632 1.409 . S
C639 C638 1.362 . S
H640 C646 0.930 . S
H641 C649 0.930 . S
H642 C650 0.930 . S
H643 C651 0.930 . S
H644 C654 0.930 . S
H645 C655 0.930 . S
C646 H640 0.930 . S
C646 C647 1.355 . S
C646 C648 1.415 . S
C647 C646 1.355 . S
C647 C649 1.419 . S
C648 C646 1.415 . S
C648 C653 1.425 . S
C648 C655 1.409 . S
C649 H641 0.930 . S
C649 C647 1.419 . S
C649 C650 1.362 . S
C650 H642 0.930 . S
C650 C649 1.362 . S
C650 C653 1.409 . S
C651 H643 0.930 . S
C651 C652 1.355 . S
C651 C653 1.415 . S
C652 C651 1.355 . S
C652 C654 1.419 . S
C653 C648 1.425 . S
C653 C650 1.409 . S
C653 C651 1.415 . S
C654 H644 0.930 . S
C654 C652 1.419 . S
C654 C655 1.362 . S
C655 H645 0.930 . S
C655 C648 1.409 . S
C655 C654 1.362 . S
H656 C662 0.930 . S
H657 C665 0.930 . S
H658 C666 0.930 . S
H659 C667 0.930 . S
H660 C670 0.930 . S
H661 C671 0.930 . S
C662 H656 0.930 . S
C662 C663 1.355 . S
C662 C664 1.415 . S
C663 C662 1.355 . S
C663 C665 1.419 . S
C664 C662 1.415 . S
C664 C669 1.425 . S
C664 C671 1.409 . S
C665 H657 0.930 . S
C665 C663 1.419 . S
C665 C666 1.362 . S
C666 H658 0.930 . S
C666 C665 1.362 . S
C666 C669 1.409 . S
C667 H659 0.930 . S
C667 C668 1.355 . S
C667 C669 1.415 . S
C668 C667 1.355 . S
C668 C670 1.419 . S
C669 C664 1.425 . S
C669 C666 1.409 . S
C669 C667 1.415 . S
C670 H660 0.930 . S
C670 C668 1.419 . S
C670 C671 1.362 . S
C671 H661 0.930 . S
C671 C664 1.409 . S
C671 C670 1.362 . S
H672 C678 0.930 . S
H673 C681 0.930 . S
H674 C682 0.930 . S
H675 C683 0.930 . S
H676 C686 0.930 . S
H677 C687 0.930 . S
C678 H672 0.930 . S
C678 C679 1.355 . S
C678 C680 1.415 . S
C679 C678 1.355 . S
C679 C681 1.419 . S
C680 C678 1.415 . S
C680 C685 1.425 . S
C680 C687 1.409 . S
C681 H673 0.930 . S
C681 C679 1.419 . S
C681 C682 1.362 . S
C682 H674 0.930 . S
C682 C681 1.362 . S
C682 C685 1.409 . S
C683 H675 0.930 . S
C683 C684 1.355 . S
C683 C685 1.415 . S
C684 C683 1.355 . S
C684 C686 1.419 . S
C685 C680 1.425 . S
C685 C682 1.409 . S
C685 C683 1.415 . S
C686 H676 0.930 . S
C686 C684 1.419 . S
C686 C687 1.362 . S
C687 H677 0.930 . S
C687 C680 1.409 . S
C687 C686 1.362 . S
H688 C694 0.930 . S
H689 C697 0.930 . S
H690 C698 0.930 . S
H691 C699 0.930 . S
H692 C702 0.930 . S
H693 C703 0.930 . S
C694 H688 0.930 . S
C694 C695 1.355 . S
C694 C696 1.415 . S
C695 C694 1.355 . S
C695 C697 1.419 . S
C696 C694 1.415 . S
C696 C701 1.425 . S
C696 C703 1.409 . S
C697 H689 0.930 . S
C697 C695 1.419 . S
C697 C698 1.362 . S
C698 H690 0.930 . S
C698 C697 1.362 . S
C698 C701 1.409 . S
C699 H691 0.930 . S
C699 C700 1.355 . S
C699 C701 1.415 . S
C700 C699 1.355 . S
C700 C702 1.419 . S
C701 C696 1.425 . S
C701 C698 1.409 . S
C701 C699 1.415 . S
C702 H692 0.930 . S
C702 C700 1.419 . S
C702 C703 1.362 . S
C703 H693 0.930 . S
C703 C696 1.409 . S
C703 C702 1.362 . S
H704 C710 0.930 . S
H705 C713 0.930 . S
H706 C714 0.930 . S
H707 C715 0.930 . S
H708 C718 0.930 . S
H709 C719 0.930 . S
C710 H704 0.930 . S
C710 C711 1.355 . S
C710 C712 1.415 . S
C711 C710 1.355 . S
C711 C713 1.419 . S
C712 C710 1.415 . S
C712 C717 1.425 . S
C712 C719 1.409 . S
C713 H705 0.930 . S
C713 C711 1.419 . S
C713 C714 1.362 . S
C714 H706 0.930 . S
C714 C713 1.362 . S
C714 C717 1.409 . S
C715 H707 0.930 . S
C715 C716 1.355 . S
C715 C717 1.415 . S
C716 C715 1.355 . S
C716 C718 1.419 . S
C717 C712 1.425 . S
C717 C714 1.409 . S
C717 C715 1.415 . S
C718 H708 0.930 . S
C718 C716 1.419 . S
C718 C719 1.362 . S
C719 H709 0.930 . S
C719 C712 1.409 . S
C719 C718 1.362 . S
H720 C726 0.930 . S
H721 C729 0.930 . S
H722 C730 0.930 . S
H723 C731 0.930 . S
H724 C734 0.930 . S
H725 C735 0.930 . S
C726 H720 0.930 . S
C726 C727 1.355 . S
C726 C728 1.415 . S
C727 C726 1.355 . S
C727 C729 1.419 . S
C728 C726 1.415 . S
C728 C733 1.425 . S
C728 C735 1.409 . S
C729 H721 0.930 . S
C729 C727 1.419 . S
C729 C730 1.362 . S
C730 H722 0.930 . S
C730 C729 1.362 . S
C730 C733 1.409 . S
C731 H723 0.930 . S
C731 C732 1.355 . S
C731 C733 1.415 . S
C732 C731 1.355 . S
C732 C734 1.419 . S
C733 C728 1.425 . S
C733 C730 1.409 . S
C733 C731 1.415 . S
C734 H724 0.930 . S
C734 C732 1.419 . S
C734 C735 1.362 . S
C735 H725 0.930 . S
C735 C728 1.409 . S
C735 C734 1.362 . S
C231 C8 1.517 . S
C236 C175 1.475 . S
C247 C189 1.484 . S
C252 C22 1.518 . S
C263 C36 1.485 . S
C268 C203 1.445 . S
C279 C217 1.448 . S
C284 C50 1.505 . S
C295 C120 1.491 . S
C300 C63 1.441 . S
C311 C77 1.484 . S
C316 C134 1.518 . S
C327 C148 1.513 . S
C332 C91 1.461 . S
C343 C105 1.454 . S
C348 C162 1.509 . S
C359 C3 1.535 . S
C364 C31 1.528 . S
C375 C17 1.534 . S
C380 C45 1.550 . S
C391 C59 1.544 . S
C396 C87 1.537 . S
C407 C73 1.531 . S
C412 C101 1.527 . S
C423 C143 1.558 . S
C428 C115 1.548 . S
C439 C129 1.529 . S
C444 C157 1.540 . S
C455 C199 1.551 . S
C460 C171 1.550 . S
C471 C185 1.536 . S
C476 C213 1.530 . S
C487 C93 1.529 . S
C492 C9 1.531 . S
C503 C107 1.538 . S
C508 C23 1.524 . S
C519 C37 1.527 . S
C524 C65 1.533 . S
C535 C51 1.524 . S
C540 C79 1.539 . S
C551 C205 1.518 . S
C556 C121 1.537 . S
C567 C135 1.544 . S
C572 C219 1.505 . S
C583 C177 1.534 . S
C588 C149 1.528 . S
C599 C163 1.546 . S
C604 C191 1.502 . S
C615 C7 1.282 . S
C620 C49 1.334 . S
C631 C35 1.262 . S
C636 C21 1.331 . S
C647 C64 1.587 . S
C652 C106 1.587 . S
C663 C78 1.589 . S
C668 C92 1.588 . S
C679 C161 1.335 . S
C684 C119 1.274 . S
C695 C133 1.310 . S
C700 C147 1.262 . S
C711 C218 1.587 . S
C716 C176 1.587 . S
C727 C190 1.597 . S
C732 C204 1.599 . S
