# Generated by pormake.
# Topology wjc, (7)-cn, num edge types: 1
# Building blocks:
#     Node 0, Type 0, BuildingBlock: NUHQUE_clean_sbu_2, # of connection points: 7
#     Node 1, Type 0, BuildingBlock: NUHQUE_clean_sbu_2, # of connection points: 7
#     Node 2, Type 0, BuildingBlock: NUHQUE_clean_sbu_2, # of connection points: 7
#     Node 3, Type 0, BuildingBlock: NUHQUE_clean_sbu_2, # of connection points: 7
#     Node 4, Type 0, BuildingBlock: NUHQUE_clean_sbu_2, # of connection points: 7
#     Node 5, Type 0, BuildingBlock: NUHQUE_clean_sbu_2, # of connection points: 7
#     Node 6, Type 0, BuildingBlock: NUHQUE_clean_sbu_2, # of connection points: 7
#     Node 7, Type 0, BuildingBlock: NUHQUE_clean_sbu_2, # of connection points: 7
#     Node 8, Type 0, BuildingBlock: NUHQUE_clean_sbu_2, # of connection points: 7
#     Node 9, Type 0, BuildingBlock: NUHQUE_clean_sbu_2, # of connection points: 7
#     Node 10, Type 0, BuildingBlock: NUHQUE_clean_sbu_2, # of connection points: 7
#     Node 11, Type 0, BuildingBlock: NUHQUE_clean_sbu_2, # of connection points: 7
#     Node 12, Type 0, BuildingBlock: NUHQUE_clean_sbu_2, # of connection points: 7
#     Node 13, Type 0, BuildingBlock: NUHQUE_clean_sbu_2, # of connection points: 7
#     Node 14, Type 0, BuildingBlock: NUHQUE_clean_sbu_2, # of connection points: 7
#     Node 15, Type 0, BuildingBlock: NUHQUE_clean_sbu_2, # of connection points: 7
#     Node 16, Type 0, BuildingBlock: NUHQUE_clean_sbu_2, # of connection points: 7
#     Node 17, Type 0, BuildingBlock: NUHQUE_clean_sbu_2, # of connection points: 7
#     Node 18, Type 0, BuildingBlock: NUHQUE_clean_sbu_2, # of connection points: 7
#     Node 19, Type 0, BuildingBlock: NUHQUE_clean_sbu_2, # of connection points: 7
#     Node 20, Type 0, BuildingBlock: NUHQUE_clean_sbu_2, # of connection points: 7
#     Node 21, Type 0, BuildingBlock: NUHQUE_clean_sbu_2, # of connection points: 7
#     Node 22, Type 0, BuildingBlock: NUHQUE_clean_sbu_2, # of connection points: 7
#     Node 23, Type 0, BuildingBlock: NUHQUE_clean_sbu_2, # of connection points: 7
#     Edge 24, Type (0, 0), BuildingBlock: ZUJKAS_clean_linker_0, # of connection points: 2
#     Edge 25, Type (0, 0), BuildingBlock: ZUJKAS_clean_linker_0, # of connection points: 2
#     Edge 26, Type (0, 0), BuildingBlock: ZUJKAS_clean_linker_0, # of connection points: 2
#     Edge 27, Type (0, 0), BuildingBlock: ZUJKAS_clean_linker_0, # of connection points: 2
#     Edge 28, Type (0, 0), BuildingBlock: ZUJKAS_clean_linker_0, # of connection points: 2
#     Edge 29, Type (0, 0), BuildingBlock: ZUJKAS_clean_linker_0, # of connection points: 2
#     Edge 30, Type (0, 0), BuildingBlock: ZUJKAS_clean_linker_0, # of connection points: 2
#     Edge 31, Type (0, 0), BuildingBlock: ZUJKAS_clean_linker_0, # of connection points: 2
#     Edge 32, Type (0, 0), BuildingBlock: ZUJKAS_clean_linker_0, # of connection points: 2
#     Edge 33, Type (0, 0), BuildingBlock: ZUJKAS_clean_linker_0, # of connection points: 2
#     Edge 34, Type (0, 0), BuildingBlock: ZUJKAS_clean_linker_0, # of connection points: 2
#     Edge 35, Type (0, 0), BuildingBlock: ZUJKAS_clean_linker_0, # of connection points: 2
#     Edge 36, Type (0, 0), BuildingBlock: ZUJKAS_clean_linker_0, # of connection points: 2
#     Edge 37, Type (0, 0), BuildingBlock: ZUJKAS_clean_linker_0, # of connection points: 2
#     Edge 38, Type (0, 0), BuildingBlock: ZUJKAS_clean_linker_0, # of connection points: 2
#     Edge 39, Type (0, 0), BuildingBlock: ZUJKAS_clean_linker_0, # of connection points: 2
#     Edge 40, Type (0, 0), BuildingBlock: ZUJKAS_clean_linker_0, # of connection points: 2
#     Edge 41, Type (0, 0), BuildingBlock: ZUJKAS_clean_linker_0, # of connection points: 2
#     Edge 42, Type (0, 0), BuildingBlock: ZUJKAS_clean_linker_0, # of connection points: 2
#     Edge 43, Type (0, 0), BuildingBlock: ZUJKAS_clean_linker_0, # of connection points: 2
#     Edge 44, Type (0, 0), BuildingBlock: ZUJKAS_clean_linker_0, # of connection points: 2
#     Edge 45, Type (0, 0), BuildingBlock: ZUJKAS_clean_linker_0, # of connection points: 2
#     Edge 46, Type (0, 0), BuildingBlock: ZUJKAS_clean_linker_0, # of connection points: 2
#     Edge 47, Type (0, 0), BuildingBlock: ZUJKAS_clean_linker_0, # of connection points: 2
#     Edge 48, Type (0, 0), BuildingBlock: ZUJKAS_clean_linker_0, # of connection points: 2
#     Edge 49, Type (0, 0), BuildingBlock: ZUJKAS_clean_linker_0, # of connection points: 2
#     Edge 50, Type (0, 0), BuildingBlock: ZUJKAS_clean_linker_0, # of connection points: 2
#     Edge 51, Type (0, 0), BuildingBlock: ZUJKAS_clean_linker_0, # of connection points: 2
#     Edge 52, Type (0, 0), BuildingBlock: ZUJKAS_clean_linker_0, # of connection points: 2
#     Edge 53, Type (0, 0), BuildingBlock: ZUJKAS_clean_linker_0, # of connection points: 2
#     Edge 54, Type (0, 0), BuildingBlock: ZUJKAS_clean_linker_0, # of connection points: 2
#     Edge 55, Type (0, 0), BuildingBlock: ZUJKAS_clean_linker_0, # of connection points: 2
#     Edge 56, Type (0, 0), BuildingBlock: ZUJKAS_clean_linker_0, # of connection points: 2
#     Edge 57, Type (0, 0), BuildingBlock: ZUJKAS_clean_linker_0, # of connection points: 2
#     Edge 58, Type (0, 0), BuildingBlock: ZUJKAS_clean_linker_0, # of connection points: 2
#     Edge 59, Type (0, 0), BuildingBlock: ZUJKAS_clean_linker_0, # of connection points: 2
#     Edge 60, Type (0, 0), BuildingBlock: ZUJKAS_clean_linker_0, # of connection points: 2
#     Edge 61, Type (0, 0), BuildingBlock: ZUJKAS_clean_linker_0, # of connection points: 2
#     Edge 62, Type (0, 0), BuildingBlock: ZUJKAS_clean_linker_0, # of connection points: 2
#     Edge 63, Type (0, 0), BuildingBlock: ZUJKAS_clean_linker_0, # of connection points: 2
#     Edge 64, Type (0, 0), BuildingBlock: ZUJKAS_clean_linker_0, # of connection points: 2
#     Edge 65, Type (0, 0), BuildingBlock: ZUJKAS_clean_linker_0, # of connection points: 2
#     Edge 66, Type (0, 0), BuildingBlock: ZUJKAS_clean_linker_0, # of connection points: 2
#     Edge 67, Type (0, 0), BuildingBlock: ZUJKAS_clean_linker_0, # of connection points: 2
#     Edge 68, Type (0, 0), BuildingBlock: ZUJKAS_clean_linker_0, # of connection points: 2
#     Edge 69, Type (0, 0), BuildingBlock: ZUJKAS_clean_linker_0, # of connection points: 2
#     Edge 70, Type (0, 0), BuildingBlock: ZUJKAS_clean_linker_0, # of connection points: 2
#     Edge 71, Type (0, 0), BuildingBlock: ZUJKAS_clean_linker_0, # of connection points: 2
#     Edge 72, Type (0, 0), BuildingBlock: ZUJKAS_clean_linker_0, # of connection points: 2
#     Edge 73, Type (0, 0), BuildingBlock: ZUJKAS_clean_linker_0, # of connection points: 2
#     Edge 74, Type (0, 0), BuildingBlock: ZUJKAS_clean_linker_0, # of connection points: 2
#     Edge 75, Type (0, 0), BuildingBlock: ZUJKAS_clean_linker_0, # of connection points: 2
#     Edge 76, Type (0, 0), BuildingBlock: ZUJKAS_clean_linker_0, # of connection points: 2
#     Edge 77, Type (0, 0), BuildingBlock: ZUJKAS_clean_linker_0, # of connection points: 2
#     Edge 78, Type (0, 0), BuildingBlock: ZUJKAS_clean_linker_0, # of connection points: 2
#     Edge 79, Type (0, 0), BuildingBlock: ZUJKAS_clean_linker_0, # of connection points: 2
#     Edge 80, Type (0, 0), BuildingBlock: ZUJKAS_clean_linker_0, # of connection points: 2
#     Edge 81, Type (0, 0), BuildingBlock: ZUJKAS_clean_linker_0, # of connection points: 2
#     Edge 82, Type (0, 0), BuildingBlock: ZUJKAS_clean_linker_0, # of connection points: 2
#     Edge 83, Type (0, 0), BuildingBlock: ZUJKAS_clean_linker_0, # of connection points: 2
#     Edge 84, Type (0, 0), BuildingBlock: ZUJKAS_clean_linker_0, # of connection points: 2
#     Edge 85, Type (0, 0), BuildingBlock: ZUJKAS_clean_linker_0, # of connection points: 2
#     Edge 86, Type (0, 0), BuildingBlock: ZUJKAS_clean_linker_0, # of connection points: 2
#     Edge 87, Type (0, 0), BuildingBlock: ZUJKAS_clean_linker_0, # of connection points: 2
#     Edge 88, Type (0, 0), BuildingBlock: ZUJKAS_clean_linker_0, # of connection points: 2
#     Edge 89, Type (0, 0), BuildingBlock: ZUJKAS_clean_linker_0, # of connection points: 2
#     Edge 90, Type (0, 0), BuildingBlock: ZUJKAS_clean_linker_0, # of connection points: 2
#     Edge 91, Type (0, 0), BuildingBlock: ZUJKAS_clean_linker_0, # of connection points: 2
#     Edge 92, Type (0, 0), BuildingBlock: ZUJKAS_clean_linker_0, # of connection points: 2
#     Edge 93, Type (0, 0), BuildingBlock: ZUJKAS_clean_linker_0, # of connection points: 2
#     Edge 94, Type (0, 0), BuildingBlock: ZUJKAS_clean_linker_0, # of connection points: 2
#     Edge 95, Type (0, 0), BuildingBlock: ZUJKAS_clean_linker_0, # of connection points: 2
#     Edge 96, Type (0, 0), BuildingBlock: ZUJKAS_clean_linker_0, # of connection points: 2
#     Edge 97, Type (0, 0), BuildingBlock: ZUJKAS_clean_linker_0, # of connection points: 2
#     Edge 98, Type (0, 0), BuildingBlock: ZUJKAS_clean_linker_0, # of connection points: 2
#     Edge 99, Type (0, 0), BuildingBlock: ZUJKAS_clean_linker_0, # of connection points: 2
#     Edge 100, Type (0, 0), BuildingBlock: ZUJKAS_clean_linker_0, # of connection points: 2
#     Edge 101, Type (0, 0), BuildingBlock: ZUJKAS_clean_linker_0, # of connection points: 2
#     Edge 102, Type (0, 0), BuildingBlock: ZUJKAS_clean_linker_0, # of connection points: 2
#     Edge 103, Type (0, 0), BuildingBlock: ZUJKAS_clean_linker_0, # of connection points: 2
#     Edge 104, Type (0, 0), BuildingBlock: ZUJKAS_clean_linker_0, # of connection points: 2
#     Edge 105, Type (0, 0), BuildingBlock: ZUJKAS_clean_linker_0, # of connection points: 2
#     Edge 106, Type (0, 0), BuildingBlock: ZUJKAS_clean_linker_0, # of connection points: 2
#     Edge 107, Type (0, 0), BuildingBlock: ZUJKAS_clean_linker_0, # of connection points: 2
# Relax obj value: 0.273
# Max RMSD: 0.235
# Mean RMSD: 0.235
data_MOF--net-wjc--node1-NUHQUE_clean_sbu_2--edge1-ZUJKAS_clean_linker_0
_symmetry_space_group_name_H-M    P1
_symmetry_Int_Tables_number       1
_symmetry_cell_setting            triclinic
loop_
_symmetry_equiv_pos_as_xyz
'x, y, z'
_cell_length_a     62.705655
_cell_length_b     62.657556
_cell_length_c     71.782293
_cell_angle_alpha  90.01129
_cell_angle_beta   89.987176
_cell_angle_gamma 119.99852
loop_
_atom_site_label
_atom_site_type_symbol
_atom_site_fract_x
_atom_site_fract_y
_atom_site_fract_z
_atom_type_partial_charge
O0 O 0.45086 0.22794 0.13247 0.0
Tb1 Tb 0.41442 0.19732 0.12647 0.0
Eu2 Eu 0.39424 0.11658 0.12364 0.0
C3 C 0.46985 0.23239 0.12199 0.0
O4 O 0.46697 0.21689 0.10858 0.0
C5 C 0.39377 0.15043 0.15247 0.0
O6 O 0.37092 0.07534 0.12077 0.0
C7 C 0.44104 0.1324 0.12093 0.0
C8 C 0.34675 0.06431 0.12141 0.0
O9 O 0.33618 0.07777 0.1232 0.0
C10 C 0.40165 0.15817 0.0951 0.0
C11 C 0.46031 0.1257 0.12109 0.0
C12 C 0.48488 0.1448 0.12198 0.0
C13 C 0.50406 0.13951 0.12317 0.0
C14 C 0.49835 0.11484 0.12334 0.0
C15 C 0.47386 0.09552 0.12241 0.0
C16 C 0.45474 0.10101 0.12113 0.0
O17 O 0.40696 0.16265 0.13805 0.0
O18 O 0.38498 0.12664 0.1515 0.0
O19 O 0.38722 0.20352 0.14098 0.0
O20 O 0.39322 0.21083 0.11184 0.0
C21 C 0.38101 0.21146 0.12628 0.0
O22 O 0.38553 0.14219 0.10703 0.0
O23 O 0.41461 0.18193 0.09928 0.0
O24 O 0.42992 0.13056 0.13685 0.0
O25 O 0.42625 0.12562 0.10644 0.0
H26 H 0.48902 0.16381 0.12212 0.0
H27 H 0.51311 0.11058 0.12382 0.0
H28 H 0.43573 0.08625 0.12058 0.0
O29 O 0.22968 0.47793 0.12473 0.0
Tb30 Tb 0.22438 0.4414 0.12921 0.0
Eu31 Eu 0.28512 0.42466 0.1215 0.0
C32 C 0.25134 0.49774 0.12723 0.0
O33 O 0.27011 0.49528 0.13238 0.0
C34 C 0.25572 0.42687 0.15388 0.0
O35 O 0.29977 0.399 0.11627 0.0
C36 C 0.31218 0.4713 0.11521 0.0
C37 C 0.28469 0.37569 0.12027 0.0
O38 O 0.26233 0.36925 0.12594 0.0
C39 C 0.24155 0.42223 0.09766 0.0
C40 C 0.33507 0.49355 0.11011 0.0
C41 C 0.33531 0.51604 0.11026 0.0
C42 C 0.35702 0.53815 0.10637 0.0
C43 C 0.37849 0.53739 0.10211 0.0
C44 C 0.37853 0.51497 0.10204 0.0
C45 C 0.35661 0.49296 0.10603 0.0
O46 O 0.2564 0.44265 0.14157 0.0
O47 O 0.26994 0.41752 0.15061 0.0
O48 O 0.19347 0.43167 0.14809 0.0
O49 O 0.19182 0.4048 0.12912 0.0
C50 C 0.18007 0.40912 0.14216 0.0
O51 O 0.24646 0.41262 0.11215 0.0
O52 O 0.22917 0.43379 0.10053 0.0
O53 O 0.31111 0.46132 0.13159 0.0
O54 O 0.29958 0.45533 0.10201 0.0
H55 H 0.31861 0.51635 0.11365 0.0
H56 H 0.39561 0.55449 0.09991 0.0
H57 H 0.35634 0.47553 0.10619 0.0
O58 O 0.75899 0.22566 0.12899 0.0
Tb59 Tb 0.7919 0.22314 0.12548 0.0
Eu60 Eu 0.87018 0.28947 0.11794 0.0
C61 C 0.75582 0.24191 0.11968 0.0
O62 O 0.77302 0.25699 0.10812 0.0
C63 C 0.83754 0.26072 0.14968 0.0
O64 O 0.91104 0.30494 0.11902 0.0
C65 C 0.85668 0.32049 0.10735 0.0
C66 C 0.91953 0.29209 0.12744 0.0
O67 O 0.90379 0.27023 0.1341 0.0
C68 C 0.82866 0.24734 0.09316 0.0
C69 C 0.86455 0.34677 0.10596 0.0
C70 C 0.84635 0.35357 0.10636 0.0
C71 C 0.85289 0.37847 0.10572 0.0
C72 C 0.87779 0.39645 0.10402 0.0
C73 C 0.89618 0.38995 0.10366 0.0
C74 C 0.88955 0.36501 0.10488 0.0
O75 O 0.82425 0.25622 0.13463 0.0
O76 O 0.86059 0.27792 0.14791 0.0
O77 O 0.78389 0.18674 0.11651 0.0
O78 O 0.78926 0.19546 0.14545 0.0
C79 C 0.78404 0.17831 0.13304 0.0
O80 O 0.84495 0.25135 0.10626 0.0
O81 O 0.80493 0.23353 0.09695 0.0
O82 O 0.85299 0.31131 0.12427 0.0
O83 O 0.86711 0.31181 0.09607 0.0
H84 H 0.82714 0.33949 0.10772 0.0
H85 H 0.88299 0.41575 0.10337 0.0
H86 H 0.90369 0.35986 0.10495 0.0
O87 O 0.51604 0.78314 0.12148 0.0
Tb88 Tb 0.55478 0.8101 0.12499 0.0
Eu89 Eu 0.57936 0.8688 0.13725 0.0
C90 C 0.49923 0.7779 0.13439 0.0
O91 O 0.50555 0.78954 0.15042 0.0
C92 C 0.57667 0.82946 0.16432 0.0
O93 O 0.60532 0.90901 0.1428 0.0
C94 C 0.5335 0.85609 0.14255 0.0
C95 C 0.6291 0.91801 0.14051 0.0
O96 O 0.63702 0.90316 0.13508 0.0
C97 C 0.57352 0.85325 0.09526 0.0
C98 C 0.5123 0.8564 0.13388 0.0
C99 C 0.48982 0.83414 0.13247 0.0
C100 C 0.46891 0.83373 0.12518 0.0
C101 C 0.47047 0.85587 0.11949 0.0
C102 C 0.4925 0.87842 0.12138 0.0
C103 C 0.51353 0.87852 0.12831 0.0
O104 O 0.5562 0.81493 0.15524 0.0
O105 O 0.5927 0.85081 0.15726 0.0
O106 O 0.5571 0.77758 0.11771 0.0
O107 O 0.59032 0.81178 0.12116 0.0
C108 C 0.581 0.78843 0.11735 0.0
O109 O 0.58875 0.86959 0.1072 0.0
O110 O 0.55538 0.8317 0.10079 0.0
O111 O 0.55205 0.8771 0.14838 0.0
O112 O 0.5404 0.84149 0.13494 0.0
H113 H 0.4884 0.81718 0.13743 0.0
H114 H 0.45391 0.85567 0.11488 0.0
H115 H 0.53061 0.89585 0.1298 0.0
O116 O 0.76872 0.55045 0.12393 0.0
Tb117 Tb 0.77116 0.58597 0.12102 0.0
Eu118 Eu 0.7041 0.59629 0.11545 0.0
C119 C 0.75243 0.53118 0.11449 0.0
O120 O 0.73692 0.53339 0.10346 0.0
C121 C 0.73604 0.59631 0.14612 0.0
O122 O 0.68541 0.61892 0.11325 0.0
C123 C 0.67575 0.54959 0.10884 0.0
C124 C 0.6978 0.64173 0.10713 0.0
O125 O 0.72083 0.65068 0.10199 0.0
C126 C 0.74521 0.59742 0.0891 0.0
C127 C 0.64986 0.53003 0.10808 0.0
C128 C 0.64413 0.50546 0.11048 0.0
C129 C 0.61951 0.48645 0.11138 0.0
C130 C 0.60074 0.49227 0.10948 0.0
C131 C 0.6062 0.51671 0.10709 0.0
C132 C 0.6309 0.53563 0.1063 0.0
O133 O 0.73896 0.58615 0.13117 0.0
O134 O 0.71912 0.60261 0.14475 0.0
O135 O 0.79941 0.61043 0.14081 0.0
O136 O 0.80738 0.61458 0.11175 0.0
C137 C 0.81625 0.62268 0.1283 0.0
O138 O 0.74146 0.61018 0.10199 0.0
O139 O 0.75951 0.588 0.0928 0.0
O140 O 0.68414 0.55858 0.12547 0.0
O141 O 0.68375 0.56648 0.09568 0.0
H142 H 0.65883 0.50127 0.11221 0.0
H143 H 0.58168 0.47758 0.1097 0.0
H144 H 0.63535 0.55464 0.10485 0.0
O145 O 0.21077 0.73845 0.1403 0.0
Tb146 Tb 0.18467 0.75165 0.14092 0.0
Eu147 Eu 0.12358 0.71844 0.14683 0.0
C148 C 0.22465 0.74053 0.15468 0.0
O149 O 0.22182 0.74971 0.17033 0.0
C150 C 0.15834 0.75348 0.17691 0.0
O151 O 0.08311 0.70554 0.14829 0.0
C152 C 0.13349 0.68387 0.1548 0.0
C153 C 0.07547 0.72136 0.14549 0.0
O154 O 0.09178 0.74444 0.14184 0.0
C155 C 0.14744 0.72934 0.10731 0.0
C156 C 0.13446 0.6628 0.14651 0.0
C157 C 0.15713 0.66327 0.14603 0.0
C158 C 0.15828 0.64266 0.13985 0.0
C159 C 0.13679 0.62178 0.13364 0.0
C160 C 0.11406 0.621 0.13391 0.0
C161 C 0.11297 0.64158 0.14042 0.0
O162 O 0.17379 0.74695 0.1702 0.0
O163 O 0.13863 0.74892 0.16753 0.0
O164 O 0.21831 0.78702 0.13726 0.0
O165 O 0.18374 0.78528 0.13401 0.0
C166 C 0.20757 0.79974 0.13366 0.0
O167 O 0.12938 0.72881 0.11686 0.0
O168 O 0.16699 0.73107 0.11558 0.0
O169 O 0.11176 0.68171 0.15754 0.0
O170 O 0.15017 0.70586 0.14911 0.0
H171 H 0.17368 0.67923 0.15119 0.0
H172 H 0.13768 0.60571 0.12915 0.0
H173 H 0.09537 0.6409 0.14089 0.0
O174 O 0.77669 0.52077 0.3595 0.0
Tb175 Tb 0.80538 0.55917 0.36225 0.0
Eu176 Eu 0.8669 0.58676 0.35367 0.0
C177 C 0.77157 0.50446 0.3728 0.0
O178 O 0.78535 0.5109 0.38782 0.0
C179 C 0.82914 0.58287 0.32424 0.0
O180 O 0.9076 0.6139 0.35088 0.0
C181 C 0.85726 0.5417 0.3485 0.0
C182 C 0.91776 0.63537 0.35939 0.0
O183 O 0.90385 0.64096 0.3696 0.0
C184 C 0.84511 0.5777 0.39423 0.0
C185 C 0.85836 0.52116 0.35775 0.0
C186 C 0.83634 0.49878 0.3607 0.0
C187 C 0.83676 0.47823 0.36806 0.0
C188 C 0.85955 0.48035 0.37251 0.0
C189 C 0.88174 0.50242 0.36962 0.0
C190 C 0.88102 0.52285 0.36226 0.0
O191 O 0.81456 0.56186 0.33269 0.0
O192 O 0.84979 0.59921 0.33209 0.0
O193 O 0.80601 0.59454 0.36339 0.0
O194 O 0.77307 0.56152 0.37028 0.0
C195 C 0.7831 0.58526 0.36854 0.0
O196 O 0.86244 0.59417 0.38346 0.0
O197 O 0.82515 0.5588 0.38724 0.0
O198 O 0.8781 0.56114 0.34352 0.0
O199 O 0.84101 0.54722 0.35487 0.0
H200 H 0.81888 0.49726 0.35693 0.0
H201 H 0.86015 0.46422 0.37724 0.0
H202 H 0.89811 0.53987 0.35983 0.0
O203 O 0.22811 0.77514 0.37987 0.0
Tb204 Tb 0.2249 0.80766 0.37514 0.0
Eu205 Eu 0.29104 0.88808 0.37808 0.0
C206 C 0.23974 0.76864 0.36793 0.0
O207 O 0.25058 0.7828 0.35346 0.0
C208 C 0.25613 0.85268 0.34883 0.0
O209 O 0.30712 0.92894 0.38241 0.0
C210 C 0.3212 0.87154 0.38232 0.0
C211 C 0.29274 0.93862 0.38183 0.0
O212 O 0.26898 0.92398 0.37932 0.0
C213 C 0.24914 0.84794 0.40427 0.0
C214 C 0.34669 0.87762 0.38575 0.0
C215 C 0.35242 0.85874 0.38389 0.0
C216 C 0.3767 0.86378 0.38606 0.0
C217 C 0.39507 0.88769 0.39077 0.0
C218 C 0.38963 0.90673 0.39281 0.0
C219 C 0.36535 0.90173 0.39004 0.0
O220 O 0.25675 0.83811 0.36171 0.0
O221 O 0.27181 0.87641 0.35039 0.0
O222 O 0.19519 0.79045 0.35466 0.0
O223 O 0.18949 0.80592 0.3792 0.0
C224 C 0.17936 0.79403 0.36386 0.0
O225 O 0.25327 0.86143 0.3893 0.0
O226 O 0.23414 0.82396 0.40285 0.0
O227 O 0.31657 0.87806 0.36605 0.0
O228 O 0.30901 0.87409 0.39628 0.0
H229 H 0.33811 0.84028 0.38015 0.0
H230 H 0.41389 0.89166 0.39249 0.0
H231 H 0.36103 0.91641 0.39122 0.0
O232 O 0.47286 0.26164 0.37201 0.0
Tb233 Tb 0.43418 0.25131 0.37021 0.0
Eu234 Eu 0.40883 0.28752 0.36299 0.0
C235 C 0.4874 0.26773 0.35737 0.0
O236 O 0.47911 0.26968 0.34104 0.0
C237 C 0.41027 0.25339 0.33263 0.0
O238 O 0.38398 0.30412 0.36268 0.0
C239 C 0.45484 0.32049 0.35771 0.0
C240 C 0.36012 0.29021 0.36554 0.0
O241 O 0.351 0.26648 0.36831 0.0
C242 C 0.41748 0.27335 0.40326 0.0
C243 C 0.47597 0.34129 0.36711 0.0
C244 C 0.49841 0.34136 0.36836 0.0
C245 C 0.51892 0.36106 0.3769 0.0
C246 C 0.51703 0.38091 0.38396 0.0
C247 C 0.49507 0.38155 0.38231 0.0
C248 C 0.47445 0.36148 0.37407 0.0
O249 O 0.43115 0.2588 0.34086 0.0
O250 O 0.39462 0.25841 0.3409 0.0
O251 O 0.43197 0.2157 0.37342 0.0
O252 O 0.39886 0.21717 0.3745 0.0
C253 C 0.40823 0.20271 0.37538 0.0
O254 O 0.40139 0.27527 0.39274 0.0
O255 O 0.43517 0.27037 0.39605 0.0
O256 O 0.4364 0.32346 0.35246 0.0
O257 O 0.44772 0.2985 0.36445 0.0
H258 H 0.49997 0.3262 0.36258 0.0
H259 H 0.53326 0.39661 0.38976 0.0
H260 H 0.45737 0.36179 0.37289 0.0
O261 O 0.21497 0.46779 0.37193 0.0
Tb262 Tb 0.1855 0.42992 0.3684 0.0
Eu263 Eu 0.12177 0.40639 0.36277 0.0
C264 C 0.22778 0.48136 0.35769 0.0
O265 O 0.22088 0.47283 0.34072 0.0
C266 C 0.15706 0.40932 0.33185 0.0
O267 O 0.08035 0.38175 0.36384 0.0
C268 C 0.13289 0.45195 0.35789 0.0
C269 C 0.07006 0.36004 0.37203 0.0
O270 O 0.08424 0.3526 0.37969 0.0
C271 C 0.14745 0.41398 0.4023 0.0
C272 C 0.12828 0.47096 0.36603 0.0
C273 C 0.1482 0.49503 0.36849 0.0
C274 C 0.14427 0.5139 0.37514 0.0
C275 C 0.12018 0.50838 0.37929 0.0
C276 C 0.10005 0.48462 0.37672 0.0
C277 C 0.10421 0.46588 0.37015 0.0
O278 O 0.17225 0.42998 0.3404 0.0
O279 O 0.13686 0.39301 0.34024 0.0
O280 O 0.21884 0.42732 0.36716 0.0
O281 O 0.18464 0.39436 0.37084 0.0
C282 C 0.20841 0.40361 0.36915 0.0
O283 O 0.12834 0.39889 0.39212 0.0
O284 O 0.16879 0.4303 0.39498 0.0
O285 O 0.11427 0.43314 0.34964 0.0
O286 O 0.14678 0.44574 0.36749 0.0
H287 H 0.16668 0.49914 0.36494 0.0
H288 H 0.11686 0.5231 0.38348 0.0
H289 H 0.08868 0.44753 0.36799 0.0
O290 O 0.74711 0.22545 0.3769 0.0
Tb291 Tb 0.75632 0.1965 0.37341 0.0
Eu292 Eu 0.7185 0.13605 0.36237 0.0
C293 C 0.73305 0.22908 0.36522 0.0
O294 O 0.72303 0.21413 0.35102 0.0
C295 C 0.75254 0.17469 0.33397 0.0
O296 O 0.70301 0.09502 0.35933 0.0
C297 C 0.68537 0.1492 0.35885 0.0
C298 C 0.71704 0.08668 0.35269 0.0
O299 O 0.73966 0.10262 0.34761 0.0
C300 C 0.73306 0.154 0.40384 0.0
C301 C 0.66335 0.14772 0.36759 0.0
C302 C 0.66099 0.16891 0.36783 0.0
C303 C 0.6397 0.16798 0.37503 0.0
C304 C 0.62081 0.14555 0.38208 0.0
C305 C 0.62266 0.12415 0.38172 0.0
C306 C 0.64408 0.12535 0.37453 0.0
O307 O 0.74766 0.18943 0.34382 0.0
O308 O 0.74802 0.1535 0.34087 0.0
O309 O 0.79249 0.22843 0.37881 0.0
O310 O 0.79009 0.19396 0.37342 0.0
C311 C 0.80508 0.2172 0.37704 0.0
O312 O 0.73027 0.137 0.39184 0.0
O313 O 0.73735 0.17596 0.39852 0.0
O314 O 0.6832 0.12898 0.35147 0.0
O315 O 0.7065 0.16279 0.36731 0.0
H316 H 0.67554 0.18603 0.3621 0.0
H317 H 0.6038 0.14434 0.38679 0.0
H318 H 0.64554 0.10883 0.37407 0.0
O319 O 0.54683 0.77787 0.36694 0.0
Tb320 Tb 0.58222 0.78033 0.37075 0.0
Eu321 Eu 0.59258 0.71186 0.37662 0.0
C322 C 0.52685 0.76092 0.3753 0.0
O323 O 0.52808 0.74436 0.38576 0.0
C324 C 0.59229 0.74453 0.34588 0.0
O325 O 0.61596 0.69406 0.38025 0.0
C326 C 0.54597 0.68313 0.38323 0.0
C327 C 0.63965 0.7067 0.37647 0.0
O328 O 0.64925 0.72976 0.37114 0.0
C329 C 0.59355 0.75375 0.40234 0.0
C330 C 0.52632 0.65782 0.38713 0.0
C331 C 0.50173 0.65235 0.38582 0.0
C332 C 0.48232 0.62853 0.38966 0.0
C333 C 0.4878 0.61024 0.39487 0.0
C334 C 0.51225 0.61528 0.39584 0.0
C335 C 0.53157 0.63918 0.39189 0.0
O336 O 0.58217 0.74782 0.36071 0.0
O337 O 0.5984 0.72743 0.34743 0.0
O338 O 0.60837 0.80927 0.35199 0.0
O339 O 0.60845 0.81697 0.38091 0.0
C340 C 0.6183 0.82626 0.36482 0.0
O341 O 0.60582 0.74974 0.38918 0.0
O342 O 0.58438 0.76834 0.39889 0.0
O343 O 0.55543 0.68766 0.36638 0.0
O344 O 0.56234 0.69467 0.39643 0.0
H345 H 0.49771 0.66667 0.38184 0.0
H346 H 0.47288 0.5916 0.39726 0.0
H347 H 0.55052 0.64324 0.39252 0.0
O348 O 0.56085 0.77253 0.87893 0.0
Tb349 Tb 0.59647 0.80532 0.87488 0.0
Eu350 Eu 0.60757 0.88437 0.87729 0.0
C351 C 0.54177 0.76745 0.86836 0.0
O352 O 0.54395 0.78286 0.8551 0.0
C353 C 0.60887 0.84986 0.84796 0.0
O354 O 0.63058 0.92572 0.88035 0.0
C355 C 0.56064 0.86677 0.88167 0.0
C356 C 0.65477 0.93674 0.88092 0.0
O357 O 0.66536 0.92319 0.88033 0.0
C358 C 0.60829 0.84444 0.90474 0.0
C359 C 0.54103 0.87289 0.88389 0.0
C360 C 0.51666 0.85347 0.88579 0.0
C361 C 0.49713 0.85828 0.88693 0.0
C362 C 0.50224 0.88273 0.88591 0.0
C363 C 0.52641 0.90229 0.88367 0.0
C364 C 0.54594 0.89737 0.88296 0.0
O365 O 0.59519 0.83577 0.86162 0.0
O366 O 0.61577 0.87336 0.84932 0.0
O367 O 0.61142 0.78871 0.85594 0.0
O368 O 0.63007 0.80447 0.88139 0.0
C369 C 0.62996 0.79257 0.86646 0.0
O370 O 0.6196 0.85938 0.89068 0.0
O371 O 0.60048 0.82073 0.90265 0.0
O372 O 0.57138 0.87128 0.86526 0.0
O373 O 0.57589 0.8717 0.89572 0.0
H374 H 0.51289 0.83459 0.88622 0.0
H375 H 0.48718 0.88656 0.8863 0.0
H376 H 0.56467 0.91231 0.88102 0.0
O377 O 0.77748 0.54297 0.87951 0.0
Tb378 Tb 0.78035 0.57868 0.87598 0.0
Eu379 Eu 0.70151 0.56218 0.86487 0.0
C380 C 0.75893 0.52265 0.87274 0.0
O381 O 0.74101 0.52368 0.86408 0.0
C382 C 0.74624 0.57737 0.84182 0.0
O383 O 0.69545 0.59409 0.87087 0.0
C384 C 0.66051 0.52053 0.86161 0.0
C385 C 0.71281 0.61698 0.86775 0.0
O386 O 0.73461 0.62135 0.86224 0.0
C387 C 0.73896 0.57946 0.89927 0.0
C388 C 0.64179 0.50028 0.87331 0.0
C389 C 0.64325 0.47888 0.87675 0.0
C390 C 0.6247 0.45919 0.88693 0.0
C391 C 0.60457 0.46092 0.89354 0.0
C392 C 0.60211 0.48145 0.88945 0.0
C393 C 0.621 0.50124 0.87958 0.0
O394 O 0.75008 0.57479 0.85933 0.0
O395 O 0.72411 0.5735 0.83844 0.0
O396 O 0.81189 0.60305 0.85847 0.0
O397 O 0.81563 0.60522 0.88805 0.0
C398 C 0.82708 0.6138 0.8723 0.0
O399 O 0.72396 0.56026 0.88906 0.0
O400 O 0.76301 0.58811 0.89836 0.0
O401 O 0.66161 0.542 0.86267 0.0
O402 O 0.6823 0.52249 0.86021 0.0
H403 H 0.65846 0.47726 0.8712 0.0
H404 H 0.58999 0.4455 0.90104 0.0
H405 H 0.61891 0.51689 0.87598 0.0
O406 O 0.23059 0.74881 0.87878 0.0
Tb407 Tb 0.20265 0.7596 0.8771 0.0
Eu408 Eu 0.14015 0.72128 0.86824 0.0
C409 C 0.24338 0.74959 0.86402 0.0
O410 O 0.23745 0.75467 0.84773 0.0
C411 C 0.17709 0.75779 0.84031 0.0
O412 O 0.09901 0.70505 0.86709 0.0
C413 C 0.15277 0.68829 0.86171 0.0
C414 C 0.08931 0.71858 0.87201 0.0
O415 O 0.10395 0.74122 0.87782 0.0
C416 C 0.16204 0.73608 0.90911 0.0
C417 C 0.1498 0.66479 0.86872 0.0
C418 C 0.17092 0.66265 0.87104 0.0
C419 C 0.16885 0.64017 0.87651 0.0
C420 C 0.14537 0.61981 0.87972 0.0
C421 C 0.12404 0.62144 0.87722 0.0
C422 C 0.12636 0.64407 0.87179 0.0
O423 O 0.19131 0.7506 0.84824 0.0
O424 O 0.15604 0.75225 0.84795 0.0
O425 O 0.23644 0.79507 0.8796 0.0
O426 O 0.20228 0.79445 0.8794 0.0
C427 C 0.22615 0.80861 0.88022 0.0
O428 O 0.14378 0.73245 0.8981 0.0
O429 O 0.18387 0.74118 0.90282 0.0
O430 O 0.13344 0.68783 0.85415 0.0
O431 O 0.16621 0.70809 0.87177 0.0
H432 H 0.18895 0.67839 0.86827 0.0
H433 H 0.14359 0.60212 0.88308 0.0
H434 H 0.10995 0.6454 0.8697 0.0
O435 O 0.45753 0.20191 0.87635 0.0
Tb436 Tb 0.41916 0.18054 0.86782 0.0
Eu437 Eu 0.41976 0.12476 0.85807 0.0
C438 C 0.47446 0.21534 0.86395 0.0
O439 O 0.46804 0.21358 0.84637 0.0
C440 C 0.40689 0.1544 0.82994 0.0
O441 O 0.39753 0.08342 0.8615 0.0
C442 C 0.4644 0.13969 0.84694 0.0
C443 C 0.37364 0.07289 0.86435 0.0
O444 O 0.36355 0.08689 0.86508 0.0
C445 C 0.40797 0.13988 0.89763 0.0
C446 C 0.48704 0.1406 0.85401 0.0
C447 C 0.50949 0.1631 0.85388 0.0
C448 C 0.53128 0.16414 0.86004 0.0
C449 C 0.53046 0.14244 0.86604 0.0
C450 C 0.50843 0.11979 0.86592 0.0
C451 C 0.48668 0.11903 0.86008 0.0
O452 O 0.42389 0.17347 0.839 0.0
O453 O 0.39737 0.13238 0.83734 0.0
O454 O 0.41994 0.21505 0.87464 0.0
O455 O 0.3894 0.18742 0.85976 0.0
C456 C 0.399 0.20937 0.86692 0.0
O457 O 0.42061 0.13143 0.88887 0.0
O458 O 0.39938 0.15251 0.88896 0.0
O459 O 0.44564 0.11778 0.84301 0.0
O460 O 0.45785 0.15441 0.85499 0.0
H461 H 0.51005 0.1797 0.84888 0.0
H462 H 0.54748 0.14297 0.8698 0.0
H463 H 0.46958 0.10156 0.86005 0.0
O464 O 0.25346 0.47136 0.8752 0.0
Tb465 Tb 0.24491 0.43365 0.87058 0.0
Eu466 Eu 0.28224 0.40957 0.86399 0.0
C467 C 0.26846 0.49 0.86459 0.0
O468 O 0.28015 0.48641 0.85085 0.0
C469 C 0.25265 0.41563 0.83272 0.0
O470 O 0.29989 0.38579 0.86479 0.0
C471 C 0.31616 0.45565 0.86146 0.0
C472 C 0.2885 0.3632 0.85813 0.0
O473 O 0.26647 0.3545 0.85083 0.0
C474 C 0.26372 0.41418 0.90396 0.0
C475 C 0.33867 0.47358 0.87129 0.0
C476 C 0.34422 0.49821 0.87275 0.0
C477 C 0.36612 0.51586 0.88137 0.0
C478 C 0.38238 0.5086 0.88845 0.0
C479 C 0.37733 0.48421 0.88679 0.0
C480 C 0.35523 0.46665 0.8784 0.0
O481 O 0.25815 0.43564 0.84226 0.0
O482 O 0.25518 0.39812 0.84053 0.0
O483 O 0.20857 0.43013 0.87036 0.0
O484 O 0.21097 0.39748 0.87123 0.0
C485 C 0.19594 0.40622 0.87082 0.0
O486 O 0.26728 0.39939 0.89304 0.0
O487 O 0.26049 0.43196 0.89729 0.0
O488 O 0.31706 0.43779 0.85254 0.0
O489 O 0.2953 0.44827 0.87028 0.0
H490 H 0.33173 0.50368 0.86692 0.0
H491 H 0.39995 0.52244 0.89412 0.0
H492 H 0.35122 0.44777 0.87703 0.0
O493 O 0.78955 0.2607 0.86376 0.0
Tb494 Tb 0.81807 0.25054 0.86401 0.0
Eu495 Eu 0.88104 0.28662 0.85851 0.0
C496 C 0.78129 0.26523 0.84827 0.0
O497 O 0.79173 0.26549 0.83235 0.0
C498 C 0.84625 0.25107 0.82867 0.0
O499 O 0.92212 0.30252 0.86095 0.0
C500 C 0.87116 0.32105 0.84993 0.0
C501 C 0.93178 0.28811 0.8614 0.0
O502 O 0.91711 0.26413 0.8604 0.0
C503 C 0.85502 0.27392 0.898 0.0
C504 C 0.87499 0.34497 0.85672 0.0
C505 C 0.85482 0.34898 0.85705 0.0
C506 C 0.85813 0.3721 0.86201 0.0
C507 C 0.8816 0.39095 0.86726 0.0
C508 C 0.90193 0.38736 0.86704 0.0
C509 C 0.89858 0.3643 0.86167 0.0
O510 O 0.8315 0.25843 0.83541 0.0
O511 O 0.8662 0.2558 0.83784 0.0
O512 O 0.78471 0.21464 0.86611 0.0
O513 O 0.81928 0.21663 0.86968 0.0
C514 C 0.79548 0.20189 0.86933 0.0
O515 O 0.87375 0.27564 0.88852 0.0
O516 O 0.83466 0.27039 0.88984 0.0
O517 O 0.89053 0.3204 0.84366 0.0
O518 O 0.85604 0.3014 0.85955 0.0
H519 H 0.83677 0.33441 0.85275 0.0
H520 H 0.8842 0.40889 0.87098 0.0
H521 H 0.91431 0.36155 0.86122 0.0
O522 O 0.24891 0.47851 0.6258 0.0
Tb523 Tb 0.21486 0.4435 0.62684 0.0
Eu524 Eu 0.13486 0.42797 0.62087 0.0
C525 C 0.24909 0.49956 0.62485 0.0
O526 O 0.2281 0.49946 0.62413 0.0
C527 C 0.16959 0.43209 0.6521 0.0
O528 O 0.0946 0.40039 0.61762 0.0
C529 C 0.1489 0.47326 0.61243 0.0
C530 C 0.08739 0.37701 0.62036 0.0
O531 O 0.10414 0.37075 0.62371 0.0
C532 C 0.17708 0.42871 0.59596 0.0
C533 C 0.14248 0.49165 0.60628 0.0
C534 C 0.16159 0.51615 0.60468 0.0
C535 C 0.15671 0.53466 0.59894 0.0
C536 C 0.13248 0.52819 0.59431 0.0
C537 C 0.1131 0.50377 0.59599 0.0
C538 C 0.11816 0.48543 0.60212 0.0
O539 O 0.18398 0.44543 0.63847 0.0
O540 O 0.14598 0.42399 0.64998 0.0
O541 O 0.22619 0.42403 0.64628 0.0
O542 O 0.2137 0.40931 0.6192 0.0
C543 C 0.22226 0.40626 0.63485 0.0
O544 O 0.16253 0.41778 0.61026 0.0
O545 O 0.20107 0.43947 0.59855 0.0
O546 O 0.14266 0.46448 0.62945 0.0
O547 O 0.14699 0.45688 0.60008 0.0
H548 H 0.1802 0.52088 0.60843 0.0
H549 H 0.12854 0.54239 0.58987 0.0
H550 H 0.10336 0.46654 0.6036 0.0
O551 O 0.77637 0.22473 0.62865 0.0
Tb552 Tb 0.78236 0.19346 0.629 0.0
Eu553 Eu 0.7218 0.11249 0.62171 0.0
C554 C 0.78026 0.23841 0.64355 0.0
O555 O 0.78771 0.23292 0.65897 0.0
C556 C 0.75369 0.14524 0.65281 0.0
O557 O 0.70671 0.0724 0.61491 0.0
C558 C 0.68996 0.12714 0.61869 0.0
C559 C 0.72076 0.0624 0.61605 0.0
O560 O 0.74414 0.07643 0.6203 0.0
C561 C 0.76008 0.15703 0.59667 0.0
C562 C 0.66436 0.11988 0.61453 0.0
C563 C 0.65788 0.13829 0.61431 0.0
C564 C 0.63363 0.13243 0.61046 0.0
C565 C 0.616 0.10788 0.60653 0.0
C566 C 0.62219 0.08923 0.60683 0.0
C567 C 0.64648 0.09527 0.61096 0.0
O568 O 0.75236 0.15954 0.6401 0.0
O569 O 0.73967 0.12147 0.6501 0.0
O570 O 0.81437 0.20748 0.64752 0.0
O571 O 0.81729 0.19778 0.6196 0.0
C572 C 0.82915 0.20665 0.63513 0.0
O573 O 0.7583 0.14129 0.60959 0.0
O574 O 0.77217 0.18081 0.6005 0.0
O575 O 0.69425 0.1192 0.63444 0.0
O576 O 0.70345 0.12713 0.60468 0.0
H577 H 0.67178 0.15723 0.6172 0.0
H578 H 0.59701 0.10298 0.60415 0.0
H579 H 0.65143 0.08099 0.61139 0.0
O580 O 0.53475 0.73876 0.63029 0.0
Tb581 Tb 0.57372 0.75027 0.63109 0.0
Eu582 Eu 0.60091 0.71675 0.6378 0.0
C583 C 0.51949 0.72743 0.64417 0.0
O584 O 0.52755 0.72194 0.65928 0.0
C585 C 0.5994 0.75065 0.66844 0.0
O586 O 0.62686 0.70167 0.6384 0.0
C587 C 0.55566 0.68236 0.64381 0.0
C588 C 0.65063 0.71614 0.63571 0.0
O589 O 0.65927 0.73981 0.63305 0.0
C590 C 0.58967 0.72846 0.59781 0.0
C591 C 0.5341 0.66191 0.63445 0.0
C592 C 0.51329 0.66424 0.63089 0.0
C593 C 0.49178 0.64459 0.62333 0.0
C594 C 0.49134 0.62244 0.61928 0.0
C595 C 0.51182 0.61966 0.62279 0.0
C596 C 0.53322 0.63952 0.63037 0.0
O597 O 0.57818 0.74486 0.66062 0.0
O598 O 0.61505 0.74592 0.65986 0.0
O599 O 0.60896 0.78394 0.62576 0.0
O600 O 0.57597 0.78573 0.62673 0.0
C601 C 0.59969 0.79845 0.62441 0.0
O602 O 0.60697 0.72816 0.60788 0.0
O603 O 0.57156 0.73015 0.60561 0.0
O604 O 0.57477 0.6797 0.64742 0.0
O605 O 0.56183 0.70471 0.63847 0.0
H606 H 0.51368 0.68124 0.63431 0.0
H607 H 0.47444 0.60671 0.61436 0.0
H608 H 0.549 0.63737 0.63328 0.0
O609 O 0.7883 0.53172 0.62633 0.0
Tb610 Tb 0.8174 0.56982 0.6289 0.0
Eu611 Eu 0.87902 0.5934 0.6321 0.0
C612 C 0.77425 0.51991 0.64065 0.0
O613 O 0.77933 0.53084 0.65697 0.0
C614 C 0.84671 0.58915 0.66555 0.0
O615 O 0.9201 0.61718 0.62862 0.0
C616 C 0.86709 0.54745 0.63521 0.0
C617 C 0.93162 0.64054 0.63346 0.0
O618 O 0.91887 0.64997 0.64065 0.0
C619 C 0.8521 0.58769 0.59365 0.0
C620 C 0.8689 0.52769 0.62553 0.0
C621 C 0.84872 0.5036 0.62626 0.0
C622 C 0.85035 0.4839 0.61851 0.0
C623 C 0.87234 0.48861 0.60984 0.0
C624 C 0.89282 0.51248 0.60924 0.0
C625 C 0.89093 0.53208 0.61697 0.0
O626 O 0.83088 0.56903 0.65667 0.0
O627 O 0.86654 0.60585 0.65696 0.0
O628 O 0.78483 0.57371 0.63024 0.0
O629 O 0.81992 0.60611 0.62795 0.0
C630 C 0.79625 0.5976 0.62924 0.0
O631 O 0.87131 0.60285 0.60366 0.0
O632 O 0.83201 0.56987 0.60135 0.0
O633 O 0.88754 0.5658 0.64199 0.0
O634 O 0.85237 0.55441 0.6279 0.0
H635 H 0.83199 0.50009 0.63334 0.0
H636 H 0.87416 0.47328 0.60481 0.0
H637 H 0.90675 0.55054 0.61677 0.0
O638 O 0.25835 0.79279 0.6024 0.0
Tb639 Tb 0.24344 0.81473 0.61391 0.0
Eu640 Eu 0.30095 0.86466 0.63087 0.0
C641 C 0.26764 0.78254 0.61322 0.0
O642 O 0.26963 0.7871 0.63117 0.0
C643 C 0.25342 0.83259 0.65428 0.0
O644 O 0.31844 0.9058 0.6332 0.0
C645 C 0.32923 0.84805 0.64204 0.0
C646 C 0.30389 0.91521 0.63175 0.0
O647 O 0.28038 0.90029 0.62842 0.0
C648 C 0.28008 0.86058 0.59001 0.0
C649 C 0.35056 0.84656 0.63488 0.0
C650 C 0.34998 0.82381 0.63492 0.0
C651 C 0.37037 0.82221 0.6286 0.0
C652 C 0.39142 0.84368 0.62239 0.0
C653 C 0.39244 0.86654 0.62256 0.0
C654 C 0.37183 0.8678 0.62861 0.0
O655 O 0.25013 0.81442 0.64343 0.0
O656 O 0.26893 0.85537 0.64962 0.0
O657 O 0.20772 0.81164 0.61968 0.0
O658 O 0.2087 0.78307 0.60457 0.0
C659 C 0.19436 0.79043 0.61163 0.0
O660 O 0.29926 0.86407 0.59976 0.0
O661 O 0.25739 0.84734 0.59631 0.0
O662 O 0.33304 0.87012 0.64632 0.0
O663 O 0.30807 0.83419 0.63362 0.0
H664 H 0.33377 0.80745 0.64001 0.0
H665 H 0.40769 0.84289 0.61842 0.0
H666 H 0.37254 0.88545 0.62862 0.0
O667 O 0.46382 0.22379 0.6218 0.0
Tb668 Tb 0.42813 0.21982 0.62747 0.0
Eu669 Eu 0.41282 0.28389 0.62376 0.0
C670 C 0.48213 0.23472 0.63366 0.0
O671 O 0.47901 0.24432 0.64897 0.0
C672 C 0.41381 0.25027 0.65382 0.0
O673 O 0.38787 0.29981 0.62065 0.0
C674 C 0.45921 0.31426 0.61826 0.0
C675 C 0.36455 0.28611 0.62522 0.0
O676 O 0.35642 0.2632 0.6304 0.0
C677 C 0.41202 0.24253 0.59719 0.0
C678 C 0.47784 0.33985 0.61421 0.0
C679 C 0.50257 0.34583 0.61316 0.0
C680 C 0.5211 0.37002 0.60927 0.0
C681 C 0.51458 0.38813 0.60633 0.0
C682 C 0.48998 0.38253 0.60761 0.0
C683 C 0.47153 0.35825 0.61165 0.0
O684 O 0.42907 0.2512 0.64092 0.0
O685 O 0.4054 0.26557 0.65192 0.0
O686 O 0.41775 0.18975 0.64723 0.0
O687 O 0.39382 0.18485 0.62456 0.0
C688 C 0.39722 0.17433 0.63901 0.0
O689 O 0.40154 0.24645 0.61166 0.0
O690 O 0.42141 0.22802 0.59942 0.0
O691 O 0.44893 0.3097 0.63487 0.0
O692 O 0.44381 0.3017 0.60474 0.0
H693 H 0.50739 0.33165 0.61544 0.0
H694 H 0.52891 0.40706 0.60399 0.0
H695 H 0.45248 0.35373 0.61281 0.0
H696 H 0.29646 0.03561 0.12221 0.0
H697 H 0.27191 0.99056 0.12324 0.0
H698 H 0.3383 0.98616 0.12076 0.0
H699 H 0.36301 0.03114 0.11984 0.0
H700 H 0.27015 0.95443 0.09765 0.0
H701 H 0.30256 0.9464 0.1679 0.0
H702 H 0.30662 0.97513 0.15895 0.0
H703 H 0.32666 0.96401 0.15146 0.0
C704 C 0.30586 0.02508 0.12184 0.0
C705 C 0.33173 0.03702 0.12108 0.0
C706 C 0.29178 0.99933 0.1224 0.0
C707 C 0.3033 0.98504 0.12235 0.0
C708 C 0.32906 0.99686 0.12114 0.0
H709 H 0.25701 0.83046 0.13157 0.0
H710 H 0.27925 0.87525 0.12786 0.0
C711 C 0.34315 0.02258 0.12053 0.0
C712 C 0.28841 0.95779 0.12377 0.0
H713 H 0.27849 0.90923 0.15129 0.0
C714 C 0.27184 0.94451 0.1094 0.0
C715 C 0.29065 0.94494 0.13914 0.0
C716 C 0.30741 0.9583 0.15534 0.0
C717 C 0.25793 0.91861 0.10976 0.0
C718 C 0.26033 0.90573 0.12508 0.0
C719 C 0.27672 0.9191 0.13953 0.0
C720 C 0.24646 0.87839 0.12633 0.0
C721 C 0.24137 0.90526 0.09347 0.0
C722 C 0.22057 0.86519 0.1267 0.0
C723 C 0.20779 0.8395 0.12872 0.0
C724 C 0.22071 0.82666 0.13059 0.0
C725 C 0.24657 0.83988 0.13013 0.0
C726 C 0.2593 0.86547 0.12804 0.0
H727 H 0.2464 0.91717 0.08091 0.0
H728 H 0.24216 0.88841 0.08993 0.0
H729 H 0.22209 0.89961 0.0972 0.0
H730 H 0.21026 0.87478 0.12581 0.0
H731 H 0.18786 0.82976 0.12917 0.0
H732 H 0.25813 0.32734 0.13023 0.0
H733 H 0.2721 0.29742 0.13206 0.0
H734 H 0.34351 0.35194 0.11149 0.0
H735 H 0.3298 0.38232 0.11 0.0
H736 H 0.28882 0.27866 0.1055 0.0
H737 H 0.36097 0.32845 0.15886 0.0
H738 H 0.33804 0.33677 0.15318 0.0
H739 H 0.36455 0.34653 0.13847 0.0
C740 C 0.27682 0.33303 0.12606 0.0
C741 C 0.29293 0.3573 0.12009 0.0
C742 C 0.28476 0.31586 0.12712 0.0
C743 C 0.30897 0.32255 0.12225 0.0
C744 C 0.32492 0.34655 0.11575 0.0
H745 H 0.36843 0.22901 0.09632 0.0
H746 H 0.34839 0.25381 0.09619 0.0
C747 C 0.31701 0.36383 0.11476 0.0
C748 C 0.3173 0.30425 0.1239 0.0
H749 H 0.36043 0.29396 0.14447 0.0
C750 C 0.3044 0.28195 0.11409 0.0
C751 C 0.33729 0.30832 0.13543 0.0
C752 C 0.35088 0.3312 0.14724 0.0
C753 C 0.3114 0.26391 0.11508 0.0
C754 C 0.33214 0.26852 0.12588 0.0
C755 C 0.3446 0.29051 0.13611 0.0
C756 C 0.34211 0.25147 0.12596 0.0
C757 C 0.2964 0.24004 0.10464 0.0
C758 C 0.34539 0.24197 0.14278 0.0
C759 C 0.35704 0.22785 0.1429 0.0
C760 C 0.36571 0.22323 0.12621 0.0
C761 C 0.36177 0.23216 0.10937 0.0
C762 C 0.3502 0.24623 0.10926 0.0
H763 H 0.27726 0.23612 0.10225 0.0
H764 H 0.30494 0.24143 0.09083 0.0
H765 H 0.29568 0.22429 0.11229 0.0
H766 H 0.33941 0.24593 0.15583 0.0
H767 H 0.36002 0.22131 0.15607 0.0
H768 H 0.94296 0.2695 0.14289 0.0
H769 H 0.9871 0.28722 0.14839 0.0
H770 H 1.00061 0.35609 0.12459 0.0
H771 H 0.95656 0.3384 0.11871 0.0
H772 H 0.03161 0.34113 0.11106 0.0
H773 H 0.02923 0.33671 0.18831 0.0
H774 H 0.00954 0.30773 0.17713 0.0
H775 H 0.00335 0.33266 0.17457 0.0
C776 C 0.95531 0.28844 0.13884 0.0
C777 C 0.94626 0.30257 0.13038 0.0
C778 C 0.98051 0.29859 0.14215 0.0
C779 C 0.99706 0.32311 0.13724 0.0
C780 C 0.9881 0.33717 0.12861 0.0
H781 H 0.15045 0.41964 0.16342 0.0
H782 H 0.10531 0.39642 0.16412 0.0
C783 C 0.96293 0.32702 0.12522 0.0
C784 C 0.02384 0.33386 0.14032 0.0
H785 H 0.06757 0.34792 0.17387 0.0
C786 C 0.03947 0.34262 0.12479 0.0
C787 C 0.03404 0.336 0.15828 0.0
C788 C 0.01822 0.328 0.17557 0.0
C789 C 0.06503 0.35337 0.12669 0.0
C790 C 0.0752 0.35488 0.14458 0.0
C791 C 0.05964 0.34635 0.16016 0.0
C792 C 0.1021 0.36633 0.14724 0.0
C793 C 0.08097 0.36355 0.10956 0.0
C794 C 0.11514 0.35639 0.13841 0.0
C795 C 0.14083 0.36965 0.13789 0.0
C796 C 0.1538 0.39292 0.14636 0.0
C797 C 0.14082 0.40181 0.15667 0.0
C798 C 0.11508 0.38858 0.15708 0.0
H799 H 0.07092 0.36625 0.09788 0.0
H800 H 0.09773 0.38146 0.11262 0.0
H801 H 0.08686 0.35043 0.10485 0.0
H802 H 0.10542 0.33898 0.13108 0.0
H803 H 0.15044 0.3623 0.13001 0.0
H804 H 0.77594 0.1425 0.1082 0.0
H805 H 0.75226 0.09799 0.11325 0.0
H806 H 0.7455 0.1099 0.1716 0.0
H807 H 0.76965 0.15469 0.16667 0.0
H808 H 0.75246 0.06825 0.16334 0.0
H809 H 0.6773 0.06785 0.12229 0.0
H810 H 0.70635 0.08161 0.11035 0.0
H811 H 0.70314 0.09582 0.13111 0.0
C812 C 0.76989 0.13564 0.12219 0.0
C813 C 0.77437 0.15197 0.13702 0.0
C814 C 0.75627 0.11023 0.12503 0.0
C815 C 0.74668 0.10072 0.1427 0.0
C816 C 0.75263 0.11693 0.15783 0.0
H817 H 0.61928 0.95322 0.15363 0.0
H818 H 0.64805 0.99742 0.15688 0.0
C819 C 0.76644 0.14246 0.15502 0.0
C820 C 0.72884 0.07409 0.14486 0.0
H821 H 0.67294 0.02882 0.12928 0.0
C822 C 0.73498 0.05959 0.15603 0.0
C823 C 0.70584 0.06297 0.1356 0.0
C824 C 0.69759 0.07787 0.12431 0.0
C825 C 0.71906 0.034 0.1576 0.0
C826 C 0.69664 0.02271 0.14751 0.0
C827 C 0.69019 0.03743 0.13689 0.0
C828 C 0.67981 0.99562 0.14721 0.0
C829 C 0.72632 0.01937 0.17013 0.0
C830 C 0.68808 0.97989 0.1407 0.0
C831 C 0.6717 0.95461 0.13889 0.0
C832 C 0.64665 0.94459 0.14334 0.0
C833 C 0.63845 0.96034 0.15005 0.0
C834 C 0.65488 0.98561 0.15195 0.0
H835 H 0.73951 0.0312 0.18105 0.0
H836 H 0.70997 0.00402 0.177 0.0
H837 H 0.73548 0.01142 0.16168 0.0
H838 H 0.70707 0.98725 0.13649 0.0
H839 H 0.67861 0.94302 0.13359 0.0
H840 H 0.65281 0.63112 0.12085 0.0
H841 H 0.63472 0.65787 0.12112 0.0
H842 H 0.69873 0.71469 0.09297 0.0
H843 H 0.71705 0.68815 0.09267 0.0
H844 H 0.65793 0.70802 0.13738 0.0
H845 H 0.6375 0.70464 0.06162 0.0
H846 H 0.64201 0.68147 0.073 0.0
H847 H 0.66798 0.71117 0.0679 0.0
C848 C 0.663 0.64925 0.11462 0.0
C849 C 0.68637 0.65749 0.10672 0.0
C850 C 0.65265 0.66451 0.11483 0.0
C851 C 0.66533 0.68816 0.10696 0.0
C852 C 0.68856 0.6964 0.09894 0.0
H853 H 0.63049 0.80647 0.12181 0.0
H854 H 0.65264 0.78348 0.11881 0.0
C855 C 0.69901 0.68122 0.09884 0.0
C856 C 0.65448 0.70441 0.10756 0.0
H857 H 0.6294 0.73086 0.08025 0.0
C858 C 0.65178 0.71312 0.1249 0.0
C859 C 0.64641 0.7109 0.09124 0.0
C860 C 0.6484 0.70149 0.07235 0.0
C861 C 0.64115 0.72817 0.12636 0.0
C862 C 0.63312 0.7347 0.11005 0.0
C863 C 0.63582 0.72599 0.0927 0.0
C864 C 0.62037 0.7492 0.11091 0.0
C865 C 0.63798 0.73651 0.14537 0.0
C866 C 0.59509 0.73764 0.1071 0.0
C867 C 0.58247 0.75063 0.10889 0.0
C868 C 0.59496 0.77551 0.11432 0.0
C869 C 0.62044 0.78732 0.1176 0.0
C870 C 0.63306 0.77421 0.11596 0.0
H871 H 0.64188 0.72696 0.15677 0.0
H872 H 0.65079 0.75662 0.14679 0.0
H873 H 0.61894 0.73314 0.14706 0.0
H874 H 0.585 0.71836 0.10317 0.0
H875 H 0.56283 0.74109 0.10624 0.0
H876 H 0.05345 0.74856 0.1376 0.0
H877 H 0.00942 0.7346 0.13724 0.0
H878 H 0.9933 0.6621 0.15449 0.0
H879 H 0.03728 0.67576 0.15452 0.0
H880 H 0.96596 0.66043 0.12498 0.0
H881 H 0.96118 0.72055 0.1795 0.0
H882 H 0.98335 0.73735 0.16163 0.0
H883 H 0.9877 0.71677 0.17654 0.0
C884 C 0.04056 0.72969 0.14147 0.0
C885 C 0.04888 0.71326 0.14607 0.0
C886 C 0.01539 0.7218 0.14141 0.0
C887 C 0.99807 0.69742 0.14614 0.0
C888 C 0.00635 0.68104 0.15091 0.0
H889 H 0.83981 0.6312 0.16179 0.0
H890 H 0.88445 0.65139 0.16677 0.0
C891 C 0.0315 0.68888 0.1509 0.0
C892 C 0.97129 0.68846 0.14482 0.0
H893 H 0.92554 0.69859 0.1603 0.0
C894 C 0.95712 0.66871 0.13279 0.0
C895 C 0.95972 0.6991 0.15516 0.0
C896 C 0.97371 0.71946 0.16908 0.0
C897 C 0.9318 0.65955 0.13055 0.0
C898 C 0.9204 0.67084 0.14028 0.0
C899 C 0.93441 0.69025 0.15264 0.0
C900 C 0.89382 0.66221 0.13795 0.0
C901 C 0.91743 0.63757 0.11799 0.0
C902 C 0.88441 0.66267 0.12031 0.0
C903 C 0.85902 0.65104 0.11743 0.0
C904 C 0.84264 0.63907 0.13219 0.0
C905 C 0.85207 0.6403 0.15016 0.0
C906 C 0.87754 0.65178 0.15302 0.0
H907 H 0.92732 0.62725 0.11559 0.0
H908 H 0.89903 0.62475 0.12396 0.0
H909 H 0.91471 0.644 0.10426 0.0
H910 H 0.8967 0.67113 0.1086 0.0
H911 H 0.85221 0.65051 0.10347 0.0
H912 H 0.14365 0.79663 0.38371 0.0
H913 H 0.09898 0.77143 0.37944 0.0
H914 H 0.11031 0.73864 0.33037 0.0
H915 H 0.15505 0.76386 0.33454 0.0
H916 H 0.06654 0.76431 0.34675 0.0
H917 H 0.06958 0.68039 0.36795 0.0
H918 H 0.09448 0.71113 0.3728 0.0
H919 H 0.09022 0.69882 0.34966 0.0
C920 C 0.13662 0.78439 0.37182 0.0
C921 C 0.15278 0.78204 0.35954 0.0
C922 C 0.11112 0.77 0.36941 0.0
C923 C 0.10137 0.75292 0.35477 0.0
C924 C 0.11749 0.75149 0.3419 0.0
H925 H 0.95123 0.63166 0.33703 0.0
H926 H 0.99545 0.66079 0.33438 0.0
C927 C 0.14301 0.76597 0.34425 0.0
C928 C 0.07444 0.73558 0.35371 0.0
H929 H 0.03082 0.67523 0.36036 0.0
C930 C 0.05868 0.74481 0.34965 0.0
C931 C 0.06429 0.71016 0.35745 0.0
C932 C 0.08041 0.69942 0.36234 0.0
C933 C 0.03298 0.72923 0.34916 0.0
C934 C 0.02275 0.70387 0.35337 0.0
C935 C 0.03861 0.69464 0.35715 0.0
C936 C 0.99569 0.68668 0.35447 0.0
C937 C 0.01708 0.74008 0.34388 0.0
C938 C 0.98109 0.69134 0.36679 0.0
C939 C 0.95579 0.6748 0.36825 0.0
C940 C 0.94456 0.65302 0.35761 0.0
C941 C 0.95925 0.64825 0.34541 0.0
C942 C 0.98455 0.6649 0.34387 0.0
H943 H 0.02752 0.75714 0.33548 0.0
H944 H 1.00068 0.72673 0.33581 0.0
H945 H 0.01068 0.74501 0.35673 0.0
H946 H 0.98931 0.70761 0.37552 0.0
H947 H 0.9451 0.67896 0.37791 0.0
H948 H 0.35818 0.17177 0.37716 0.0
H949 H 0.33609 0.1266 0.38035 0.0
H950 H 0.40542 0.12777 0.38184 0.0
H951 H 0.42743 0.17258 0.37877 0.0
H952 H 0.33889 0.09203 0.35619 0.0
H953 H 0.36902 0.08622 0.42768 0.0
H954 H 0.37152 0.11417 0.41839 0.0
H955 H 0.39392 0.10542 0.41231 0.0
C956 C 0.36863 0.16234 0.37832 0.0
C957 C 0.39449 0.17565 0.3778 0.0
C958 C 0.35603 0.13659 0.38012 0.0
C959 C 0.36913 0.12386 0.38164 0.0
C960 C 0.39494 0.13721 0.38109 0.0
H961 H 0.34127 0.97443 0.38484 0.0
H962 H 0.35845 0.01915 0.38515 0.0
C963 C 0.40749 0.16283 0.37923 0.0
C964 C 0.35602 0.09655 0.38298 0.0
H965 H 0.35087 0.04914 0.40981 0.0
C966 C 0.34123 0.0826 0.368 0.0
C967 C 0.35923 0.08431 0.39837 0.0
C968 C 0.3741 0.09826 0.41519 0.0
C969 C 0.33027 0.05679 0.36769 0.0
C970 C 0.33381 0.04457 0.38296 0.0
C971 C 0.34823 0.05851 0.39809 0.0
C972 C 0.32315 0.01738 0.3833 0.0
C973 C 0.31578 0.04292 0.35071 0.0
C974 C 0.29757 0.0015 0.38254 0.0
C975 C 0.2877 0.97593 0.38231 0.0
C976 C 0.3032 0.96571 0.38298 0.0
C977 C 0.3288 0.98166 0.38425 0.0
C978 C 0.33865 0.00724 0.38444 0.0
H979 H 0.31995 0.05529 0.33849 0.0
H980 H 0.3197 0.02803 0.34694 0.0
H981 H 0.29581 0.03435 0.35375 0.0
H982 H 0.28522 0.00887 0.38208 0.0
H983 H 0.2679 0.9642 0.38147 0.0
H984 H 0.25762 0.42293 0.36521 0.0
H985 H 0.28111 0.4015 0.36496 0.0
H986 H 0.21419 0.33218 0.37322 0.0
H987 H 0.19036 0.35371 0.37321 0.0
H988 H 0.28581 0.37358 0.39243 0.0
H989 H 0.24528 0.3174 0.32862 0.0
H990 H 0.24102 0.34299 0.33465 0.0
H991 H 0.22347 0.3139 0.3463 0.0
C992 C 0.24783 0.4031 0.36691 0.0
C993 C 0.22211 0.38998 0.36917 0.0
C994 C 0.26132 0.39087 0.36679 0.0
C995 C 0.24947 0.36518 0.36885 0.0
C996 C 0.22373 0.35196 0.37125 0.0
H997 H 0.31011 0.26614 0.3704 0.0
H998 H 0.28314 0.28388 0.3717 0.0
C999 C 0.21014 0.36426 0.37136 0.0
C1000 C 0.26439 0.35266 0.36881 0.0
H1001 H 0.27428 0.31104 0.34507 0.0
C1002 C 0.28325 0.35988 0.38208 0.0
C1003 C 0.26108 0.33475 0.35533 0.0
C1004 C 0.24177 0.32689 0.3403 0.0
C1005 C 0.29883 0.34974 0.38224 0.0
C1006 C 0.29579 0.33215 0.36858 0.0
C1007 C 0.27667 0.32458 0.35551 0.0
C1008 C 0.31235 0.32148 0.36758 0.0
C1009 C 0.31821 0.35774 0.39723 0.0
C1010 C 0.33777 0.33663 0.36455 0.0
C1011 C 0.3533 0.32654 0.36379 0.0
C1012 C 0.34371 0.30103 0.36597 0.0
C1013 C 0.31818 0.28587 0.36873 0.0
C1014 C 0.30269 0.29597 0.36945 0.0
H1015 H 0.31391 0.36599 0.40934 0.0
H1016 H 0.32008 0.34197 0.4022 0.0
H1017 H 0.33622 0.37188 0.39147 0.0
H1018 H 0.34562 0.3563 0.36269 0.0
H1019 H 0.37282 0.33875 0.36155 0.0
H1020 H 0.04308 0.31581 0.3899 0.0
H1021 H 0.99826 0.28952 0.39087 0.0
H1022 H 0.99036 0.34174 0.35673 0.0
H1023 H 0.03521 0.36816 0.35562 0.0
H1024 H 0.96293 0.30144 0.40426 0.0
H1025 H 0.94836 0.2753 0.32949 0.0
H1026 H 0.97818 0.28848 0.34052 0.0
H1027 H 0.96599 0.3079 0.33378 0.0
C1028 C 0.03186 0.3217 0.38252 0.0
C1029 C 0.04281 0.34409 0.37261 0.0
C1030 C 0.00621 0.30664 0.38312 0.0
C1031 C 0.99094 0.31347 0.37367 0.0
C1032 C 0.00178 0.33586 0.36385 0.0
H1033 H 0.83661 0.26461 0.38699 0.0
H1034 H 0.88164 0.2864 0.38689 0.0
C1035 C 0.02744 0.35102 0.36332 0.0
C1036 C 0.96369 0.29749 0.37451 0.0
H1037 H 0.91251 0.26433 0.34755 0.0
C1038 C 0.95192 0.29322 0.39187 0.0
C1039 C 0.94935 0.2865 0.35838 0.0
C1040 C 0.96106 0.28953 0.33949 0.0
C1041 C 0.92616 0.27887 0.39346 0.0
C1042 C 0.91175 0.26863 0.37725 0.0
C1043 C 0.92356 0.27229 0.35996 0.0
C1044 C 0.88437 0.25491 0.37787 0.0
C1045 C 0.91454 0.27472 0.41249 0.0
C1046 C 0.87086 0.22997 0.37266 0.0
C1047 C 0.84501 0.21739 0.37278 0.0
C1048 C 0.8323 0.22967 0.37788 0.0
C1049 C 0.84589 0.25461 0.38309 0.0
C1050 C 0.87163 0.26708 0.3831 0.0
H1051 H 0.92808 0.27834 0.42377 0.0
H1052 H 0.90722 0.28745 0.41445 0.0
H1053 H 0.89897 0.25556 0.41392 0.0
H1054 H 0.88033 0.22026 0.36847 0.0
H1055 H 0.835 0.19822 0.36858 0.0
H1056 H 0.63298 0.85038 0.33135 0.0
H1057 H 0.65396 0.89516 0.32628 0.0
H1058 H 0.6591 0.90685 0.38571 0.0
H1059 H 0.63863 0.86244 0.3908 0.0
H1060 H 0.63663 0.92545 0.33715 0.0
H1061 H 0.72778 0.95736 0.36928 0.0
H1062 H 0.70717 0.92545 0.36343 0.0
H1063 H 0.7031 0.93812 0.38476 0.0
C1064 C 0.63918 0.86259 0.34329 0.0
C1065 C 0.63429 0.85297 0.36146 0.0
C1066 C 0.65103 0.88813 0.34039 0.0
C1067 C 0.65836 0.90443 0.35561 0.0
C1068 C 0.65415 0.89476 0.37374 0.0
H1069 H 0.67287 0.04852 0.36486 0.0
H1070 H 0.65899 0.00442 0.36401 0.0
C1071 C 0.64234 0.86933 0.37664 0.0
C1072 C 0.66845 0.93131 0.35275 0.0
H1073 H 0.71561 0.98791 0.36547 0.0
C1074 C 0.65406 0.93912 0.34313 0.0
C1075 C 0.69131 0.94919 0.36037 0.0
C1076 C 0.70835 0.94212 0.36987 0.0
C1077 C 0.66143 0.96424 0.34155 0.0
C1078 C 0.68359 0.98204 0.35014 0.0
C1079 C 0.69845 0.97428 0.35912 0.0
C1080 C 0.69162 0.00878 0.35016 0.0
C1081 C 0.64544 0.97145 0.33065 0.0
C1082 C 0.71479 0.02601 0.34303 0.0
C1083 C 0.72287 0.05124 0.34366 0.0
C1084 C 0.70797 0.05983 0.35151 0.0
C1085 C 0.68473 0.04254 0.35859 0.0
C1086 C 0.6767 0.01728 0.35801 0.0
H1087 H 0.63362 0.95693 0.32049 0.0
H1088 H 0.63317 0.97401 0.3404 0.0
H1089 H 0.65674 0.98899 0.32299 0.0
H1090 H 0.72668 0.01992 0.33698 0.0
H1091 H 0.74088 0.06401 0.33809 0.0
H1092 H 0.62546 0.65879 0.38523 0.0
H1093 H 0.65098 0.63931 0.38536 0.0
H1094 H 0.71421 0.70829 0.36934 0.0
H1095 H 0.68899 0.72796 0.36937 0.0
H1096 H 0.67706 0.63514 0.35542 0.0
H1097 H 0.74056 0.68704 0.41339 0.0
H1098 H 0.71203 0.68689 0.4095 0.0
H1099 H 0.73867 0.70613 0.39556 0.0
C1100 C 0.64485 0.66989 0.38191 0.0
C1101 C 0.65517 0.69497 0.37734 0.0
C1102 C 0.65941 0.65871 0.38197 0.0
C1103 C 0.6846 0.67241 0.37762 0.0
C1104 C 0.69496 0.69746 0.37313 0.0
H1105 H 0.80017 0.63447 0.36278 0.0
H1106 H 0.77655 0.65606 0.36499 0.0
C1107 C 0.68043 0.70864 0.37305 0.0
C1108 C 0.69975 0.66024 0.37687 0.0
H1109 H 0.7507 0.66158 0.39531 0.0
C1110 C 0.69307 0.64083 0.36421 0.0
C1111 C 0.72078 0.66781 0.38825 0.0
C1112 C 0.72837 0.68796 0.40257 0.0
C1113 C 0.70698 0.62898 0.36246 0.0
C1114 C 0.7279 0.63641 0.37393 0.0
C1115 C 0.73469 0.65592 0.38651 0.0
C1116 C 0.74256 0.62372 0.37331 0.0
C1117 C 0.6994 0.60891 0.34806 0.0
C1118 C 0.73148 0.59858 0.37767 0.0
C1119 C 0.74488 0.58629 0.37641 0.0
C1120 C 0.76971 0.59894 0.37089 0.0
C1121 C 0.78105 0.62428 0.36704 0.0
C1122 C 0.76759 0.6366 0.36829 0.0
H1123 H 0.68746 0.61007 0.33714 0.0
H1124 H 0.71575 0.60985 0.34124 0.0
H1125 H 0.68883 0.59069 0.35496 0.0
H1126 H 0.71237 0.58838 0.38196 0.0
H1127 H 0.73568 0.56678 0.37957 0.0
H1128 H 0.815 0.17156 0.87407 0.0
H1129 H 0.79232 0.12632 0.8765 0.0
H1130 H 0.72361 0.12612 0.87232 0.0
H1131 H 0.74605 0.17098 0.86963 0.0
H1132 H 0.75682 0.09493 0.90234 0.0
H1133 H 0.71703 0.07824 0.83131 0.0
H1134 H 0.74211 0.10778 0.83853 0.0
H1135 H 0.71093 0.09873 0.84479 0.0
C1136 C 0.79506 0.1618 0.87367 0.0
C1137 C 0.78229 0.17476 0.87153 0.0
C1138 C 0.78213 0.13599 0.87506 0.0
C1139 C 0.75625 0.12277 0.87423 0.0
C1140 C 0.74355 0.13582 0.87255 0.0
H1141 H 0.639 0.9704 0.87976 0.0
H1142 H 0.66426 0.01541 0.87894 0.0
C1143 C 0.75642 0.1615 0.87113 0.0
C1144 C 0.74236 0.09536 0.87524 0.0
H1145 H 0.69998 0.04389 0.85195 0.0
C1146 C 0.74455 0.08374 0.89127 0.0
C1147 C 0.72634 0.08075 0.86078 0.0
C1148 C 0.72409 0.09196 0.8428 0.0
C1149 C 0.73061 0.05798 0.89345 0.0
C1150 C 0.71429 0.04344 0.87911 0.0
C1151 C 0.71235 0.05505 0.863 0.0
C1152 C 0.69907 0.01613 0.88045 0.0
C1153 C 0.73294 0.04661 0.9113 0.0
C1154 C 0.71022 0.00153 0.88151 0.0
C1155 C 0.69583 0.97579 0.88196 0.0
C1156 C 0.66996 0.96408 0.88128 0.0
C1157 C 0.65884 0.97877 0.88035 0.0
C1158 C 0.67326 0.00452 0.87986 0.0
H1159 H 0.74146 0.0605 0.92259 0.0
H1160 H 0.71466 0.03173 0.91609 0.0
H1161 H 0.74479 0.03839 0.90882 0.0
H1162 H 0.73009 0.01003 0.88164 0.0
H1163 H 0.70503 0.96508 0.8826 0.0
H1164 H 0.62458 0.75913 0.83988 0.0
H1165 H 0.64285 0.73253 0.83995 0.0
H1166 H 0.68639 0.77109 0.88803 0.0
H1167 H 0.66765 0.79728 0.88832 0.0
H1168 H 0.68926 0.73894 0.83802 0.0
H1169 H 0.64751 0.70085 0.90699 0.0
H1170 H 0.63964 0.72028 0.89359 0.0
H1171 H 0.66766 0.73364 0.90694 0.0
C1172 C 0.63836 0.7622 0.85027 0.0
C1173 C 0.64451 0.78008 0.86422 0.0
C1174 C 0.64876 0.74696 0.85032 0.0
C1175 C 0.66551 0.74937 0.86429 0.0
C1176 C 0.673 0.76843 0.87742 0.0
H1177 H 0.7445 0.66653 0.86332 0.0
H1178 H 0.73439 0.69954 0.86294 0.0
C1179 C 0.66247 0.78355 0.87747 0.0
C1180 C 0.67399 0.73108 0.86569 0.0
H1181 H 0.67341 0.68722 0.89434 0.0
C1182 C 0.68589 0.72768 0.85035 0.0
C1183 C 0.66917 0.71607 0.88167 0.0
C1184 C 0.65509 0.71766 0.89817 0.0
C1185 C 0.69313 0.70975 0.85057 0.0
C1186 C 0.68883 0.69515 0.86672 0.0
C1187 C 0.67694 0.69857 0.88204 0.0
C1188 C 0.6954 0.67541 0.86773 0.0
C1189 C 0.70456 0.70607 0.83325 0.0
C1190 C 0.67707 0.65097 0.87133 0.0
C1191 C 0.68284 0.63211 0.87182 0.0
C1192 C 0.70711 0.63728 0.86871 0.0
C1193 C 0.72559 0.66187 0.86562 0.0
C1194 C 0.71981 0.68076 0.86525 0.0
H1195 H 0.70066 0.71397 0.82073 0.0
H1196 H 0.72484 0.71547 0.83504 0.0
H1197 H 0.69771 0.6862 0.83071 0.0
H1198 H 0.65813 0.64639 0.87341 0.0
H1199 H 0.66815 0.61341 0.87426 0.0
H1200 H 0.06338 0.74044 0.8839 0.0
H1201 H 0.01892 0.724 0.88234 0.0
H1202 H 0.00979 0.65834 0.85554 0.0
H1203 H 0.05424 0.67443 0.85738 0.0
H1204 H 0.98732 0.71001 0.8521 0.0
H1205 H 0.96225 0.63062 0.89923 0.0
H1206 H 0.99344 0.65578 0.89694 0.0
H1207 H 0.98051 0.632 0.87951 0.0
C1208 C 0.05194 0.72247 0.87771 0.0
C1209 C 0.06236 0.70866 0.8709 0.0
C1210 C 0.02652 0.71313 0.87678 0.0
C1211 C 0.01099 0.68981 0.86905 0.0
C1212 C 0.02136 0.67617 0.86191 0.0
H1213 H 0.85513 0.62662 0.84062 0.0
H1214 H 0.90022 0.64693 0.83886 0.0
C1215 C 0.04679 0.68543 0.86292 0.0
C1216 C 0.98395 0.67979 0.86863 0.0
H1217 H 0.92942 0.63244 0.88458 0.0
C1218 C 0.97464 0.69304 0.85918 0.0
C1219 C 0.96745 0.65778 0.87805 0.0
C1220 C 0.97636 0.64329 0.88916 0.0
C1221 C 0.94926 0.6848 0.85883 0.0
C1222 C 0.93279 0.66262 0.86802 0.0
C1223 C 0.9421 0.6494 0.87747 0.0
C1224 C 0.90584 0.65299 0.86858 0.0
C1225 C 0.9403 0.70015 0.84904 0.0
C1226 C 0.89409 0.64992 0.88582 0.0
C1227 C 0.86846 0.63835 0.88684 0.0
C1228 C 0.85406 0.62951 0.87066 0.0
C1229 C 0.86582 0.63345 0.8533 0.0
C1230 C 0.89156 0.64506 0.85228 0.0
H1231 H 0.95556 0.71915 0.84621 0.0
H1232 H 0.93188 0.69139 0.83553 0.0
H1233 H 0.92603 0.70125 0.85748 0.0
H1234 H 0.90476 0.65589 0.89856 0.0
H1235 H 0.85988 0.63551 0.90041 0.0
H1236 H 0.32365 0.0459 0.86854 0.0
H1237 H 0.29798 1.00133 0.87244 0.0
H1238 H 0.36248 0.99367 0.86914 0.0
H1239 H 0.38842 0.03837 0.86533 0.0
H1240 H 0.29285 0.96355 0.8481 0.0
H1241 H 0.32827 0.95639 0.91732 0.0
H1242 H 0.33347 0.98532 0.90789 0.0
H1243 H 0.35156 0.97217 0.89991 0.0
C1244 C 0.33245 0.0348 0.86871 0.0
C1245 C 0.35815 0.04577 0.86669 0.0
C1246 C 0.3177 0.00928 0.87091 0.0
C1247 C 0.32831 0.99418 0.87133 0.0
C1248 C 0.35393 0.00501 0.8692 0.0
H1249 H 0.27575 0.83842 0.88042 0.0
H1250 H 0.29925 0.88335 0.87855 0.0
C1251 C 0.36872 0.03056 0.86692 0.0
C1252 C 0.31244 0.96706 0.87357 0.0
H1253 H 0.30153 0.91883 0.90192 0.0
C1254 C 0.29462 0.95376 0.85992 0.0
C1255 C 0.31476 0.95434 0.88901 0.0
C1256 C 0.33289 0.96775 0.90448 0.0
C1257 C 0.27955 0.928 0.861 0.0
C1258 C 0.28197 0.91523 0.87639 0.0
C1259 C 0.29962 0.9286 0.89015 0.0
C1260 C 0.26725 0.8879 0.87806 0.0
C1261 C 0.26177 0.91463 0.84533 0.0
C1262 C 0.24135 0.8754 0.87874 0.0
C1263 C 0.22781 0.84958 0.87975 0.0
C1264 C 0.23997 0.83589 0.88025 0.0
C1265 C 0.26585 0.84847 0.88004 0.0
C1266 C 0.27932 0.87417 0.87898 0.0
H1267 H 0.26646 0.92616 0.83257 0.0
H1268 H 0.26152 0.89725 0.8418 0.0
H1269 H 0.24294 0.90991 0.84971 0.0
H1270 H 0.23161 0.8856 0.87846 0.0
H1271 H 0.20789 0.84035 0.87996 0.0
H1272 H 0.33349 0.37518 0.87282 0.0
H1273 H 0.35277 0.34953 0.87403 0.0
H1274 H 0.28949 0.29053 0.84671 0.0
H1275 H 0.27017 0.31607 0.84528 0.0
H1276 H 0.33525 0.30329 0.89109 0.0
H1277 H 0.34706 0.29769 0.81496 0.0
H1278 H 0.34045 0.3201 0.82515 0.0
H1279 H 0.31621 0.28879 0.82191 0.0
C1280 C 0.32369 0.35679 0.86699 0.0
C1281 C 0.30031 0.34774 0.85887 0.0
C1282 C 0.33475 0.34214 0.86772 0.0
C1283 C 0.32275 0.31824 0.86022 0.0
C1284 C 0.29933 0.30909 0.85225 0.0
H1285 H 0.35516 0.19905 0.85142 0.0
H1286 H 0.33683 0.22562 0.85034 0.0
C1287 C 0.28824 0.32369 0.85154 0.0
C1288 C 0.33445 0.30266 0.86112 0.0
H1289 H 0.35487 0.27153 0.83418 0.0
C1290 C 0.33968 0.29646 0.87866 0.0
C1291 C 0.34017 0.2937 0.84488 0.0
C1292 C 0.33591 0.30055 0.82564 0.0
C1293 C 0.34996 0.2811 0.88041 0.0
C1294 C 0.35563 0.27208 0.86416 0.0
C1295 C 0.35049 0.27839 0.84662 0.0
C1296 C 0.36677 0.25599 0.86503 0.0
C1297 C 0.35405 0.27414 0.89966 0.0
C1298 C 0.38983 0.2643 0.87346 0.0
C1299 C 0.40028 0.24911 0.87413 0.0
C1300 C 0.38795 0.2254 0.86627 0.0
C1301 C 0.36502 0.2172 0.85766 0.0
C1302 C 0.35456 0.23238 0.85701 0.0
H1303 H 0.34283 0.27698 0.9103 0.0
H1304 H 0.34946 0.25458 0.90013 0.0
H1305 H 0.37372 0.28587 0.90349 0.0
H1306 H 0.39986 0.28263 0.87937 0.0
H1307 H 0.41806 0.25597 0.88074 0.0
H1308 H 0.95767 0.26354 0.86247 0.0
H1309 H 0.00227 0.28118 0.86532 0.0
H1310 H 0.01179 0.35424 0.86652 0.0
H1311 H 0.96725 0.3368 0.86389 0.0
H1312 H 0.03979 0.31425 0.84187 0.0
H1313 H 0.04993 0.35386 0.91255 0.0
H1314 H 0.02043 0.33149 0.90303 0.0
H1315 H 0.03437 0.36341 0.89649 0.0
C1316 C 0.96922 0.28337 0.86342 0.0
C1317 C 0.95883 0.29874 0.86305 0.0
C1318 C 0.99473 0.29341 0.86502 0.0
C1319 C 0.01035 0.319 0.86643 0.0
C1320 C 1.00006 0.33441 0.86586 0.0
H1321 H 0.16457 0.42411 0.87039 0.0
H1322 H 0.11963 0.40105 0.86957 0.0
C1323 C 0.97458 0.3244 0.86425 0.0
C1324 C 0.03744 0.32966 0.86807 0.0
H1325 H 0.08694 0.36685 0.89536 0.0
C1326 C 0.0501 0.32554 0.85365 0.0
C1327 C 0.05085 0.3443 0.88349 0.0
C1328 C 0.0382 0.34837 0.89987 0.0
C1329 C 0.07591 0.33649 0.85387 0.0
C1330 C 0.08936 0.35164 0.86907 0.0
C1331 C 0.07662 0.35527 0.8837 0.0
C1332 C 0.11672 0.36517 0.86958 0.0
C1333 C 0.08866 0.33256 0.8375 0.0
C1334 C 0.13011 0.35265 0.87004 0.0
C1335 C 0.15595 0.36587 0.8705 0.0
C1336 C 0.16872 0.39176 0.87059 0.0
C1337 C 0.15524 0.40416 0.87031 0.0
C1338 C 0.12954 0.39101 0.86986 0.0
H1339 H 0.07621 0.32467 0.8253 0.0
H1340 H 0.10504 0.35018 0.83325 0.0
H1341 H 0.09501 0.31957 0.84156 0.0
H1342 H 0.12059 0.33271 0.87015 0.0
H1343 H 0.1659 0.35587 0.87078 0.0
H1344 H 0.86075 0.20361 0.61097 0.0
H1345 H 0.90552 0.22982 0.61007 0.0
H1346 H 0.90324 0.26501 0.66111 0.0
H1347 H 0.8584 0.23827 0.66232 0.0
H1348 H 0.92805 0.27897 0.60638 0.0
H1349 H 0.96188 0.25597 0.67036 0.0
H1350 H 0.93115 0.23656 0.66145 0.0
H1351 H 0.93835 0.26368 0.67476 0.0
C1352 C 0.86988 0.21646 0.62227 0.0
C1353 C 0.85618 0.21895 0.63671 0.0
C1354 C 0.89545 0.2315 0.62171 0.0
C1355 C 0.90779 0.24936 0.63553 0.0
C1356 C 0.89421 0.25107 0.65047 0.0
H1357 H 0.04787 0.38437 0.61908 0.0
H1358 H 0.00432 0.35344 0.62267 0.0
C1359 C 0.86859 0.23583 0.65113 0.0
C1360 C 0.93433 0.26768 0.63321 0.0
H1361 H 0.99058 0.2925 0.65426 0.0
C1362 C 0.94175 0.28182 0.61681 0.0
C1363 C 0.9522 0.2713 0.64676 0.0
C1364 C 0.94558 0.25592 0.66424 0.0
C1365 C 0.96647 0.29957 0.61364 0.0
C1366 C 0.98423 0.30374 0.62744 0.0
C1367 C 0.97689 0.28944 0.64376 0.0
C1368 C 0.01058 0.32256 0.62507 0.0
C1369 C 0.97337 0.31336 0.59538 0.0
C1370 C 0.02861 0.31556 0.62553 0.0
C1371 C 0.05351 0.33321 0.62363 0.0
C1372 C 0.06089 0.35825 0.62126 0.0
C1373 C 0.04279 0.36522 0.6207 0.0
C1374 C 0.01787 0.34754 0.6227 0.0
H1375 H 0.95919 0.30341 0.5845 0.0
H1376 H 0.97496 0.33166 0.59742 0.0
H1377 H 0.99133 0.31629 0.59022 0.0
H1378 H 0.02341 0.29639 0.62737 0.0
H1379 H 0.06698 0.32721 0.62417 0.0
H1380 H 0.64976 0.82876 0.62282 0.0
H1381 H 0.67243 0.87396 0.62022 0.0
H1382 H 0.60364 0.87374 0.61691 0.0
H1383 H 0.58105 0.82889 0.61981 0.0
H1384 H 0.67193 0.90578 0.59264 0.0
H1385 H 0.63859 0.92037 0.66034 0.0
H1386 H 0.63546 0.89112 0.65378 0.0
H1387 H 0.61414 0.90004 0.64508 0.0
C1388 C 0.63955 0.83842 0.62148 0.0
C1389 C 0.61368 0.8254 0.62168 0.0
C1390 C 0.65248 0.86418 0.61999 0.0
C1391 C 0.6397 0.87723 0.61874 0.0
C1392 C 0.61387 0.86411 0.6183 0.0
H1393 H 0.67234 0.02783 0.61075 0.0
H1394 H 0.65396 0.98301 0.61029 0.0
C1395 C 0.60099 0.83847 0.61986 0.0
C1396 C 0.65315 0.90457 0.61807 0.0
H1397 H 0.65836 0.95519 0.64026 0.0
C1398 C 0.66916 0.91663 0.60312 0.0
C1399 C 0.64957 0.91868 0.63182 0.0
C1400 C 0.6337 0.90694 0.64876 0.0
C1401 C 0.68104 0.94241 0.60123 0.0
C1402 C 0.67694 0.9564 0.61473 0.0
C1403 C 0.66129 0.94437 0.62984 0.0
C1404 C 0.68854 0.98358 0.61351 0.0
C1405 C 0.69733 0.95444 0.58455 0.0
C1406 C 0.71411 0.99876 0.61538 0.0
C1407 C 0.7247 0.02442 0.61571 0.0
C1408 C 0.70987 0.03535 0.6142 0.0
C1409 C 0.68431 0.02006 0.61192 0.0
C1410 C 0.67375 0.99443 0.61167 0.0
H1411 H 0.69455 0.94082 0.57353 0.0
H1412 H 0.69377 0.96869 0.57853 0.0
H1413 H 0.7169 0.96366 0.58897 0.0
H1414 H 0.7258 0.99075 0.61711 0.0
H1415 H 0.74443 0.03565 0.61753 0.0
H1416 H 0.70079 0.74096 0.63137 0.0
H1417 H 0.72802 0.72348 0.62943 0.0
H1418 H 0.66566 0.65056 0.63686 0.0
H1419 H 0.6383 0.66778 0.6387 0.0
H1420 H 0.73565 0.69381 0.65576 0.0
H1421 H 0.69857 0.64479 0.58885 0.0
H1422 H 0.69288 0.66877 0.597 0.0
H1423 H 0.67547 0.63808 0.60625 0.0
C1424 C 0.69285 0.72119 0.63259 0.0
C1425 C 0.66732 0.70575 0.63509 0.0
C1426 C 0.70846 0.71125 0.63149 0.0
C1427 C 0.69882 0.6857 0.63271 0.0
C1428 C 0.67343 0.67029 0.63553 0.0
H1429 H 0.74728 0.58024 0.63247 0.0
H1430 H 0.72575 0.60365 0.63311 0.0
C1431 C 0.65783 0.6802 0.63668 0.0
C1432 C 0.71524 0.67505 0.63117 0.0
H1433 H 0.72479 0.63449 0.60579 0.0
C1434 C 0.7335 0.68103 0.64474 0.0
C1435 C 0.71244 0.65849 0.61672 0.0
C1436 C 0.69394 0.65229 0.60126 0.0
C1437 C 0.74832 0.67004 0.64471 0.0
C1438 C 0.74505 0.65296 0.63053 0.0
C1439 C 0.72724 0.64753 0.61668 0.0
C1440 C 0.75874 0.63927 0.63039 0.0
C1441 C 0.76665 0.67601 0.66026 0.0
C1442 C 0.78451 0.6515 0.62854 0.0
C1443 C 0.79694 0.63809 0.62821 0.0
C1444 C 0.78372 0.61226 0.62961 0.0
C1445 C 0.75797 0.60013 0.63136 0.0
C1446 C 0.74562 0.61348 0.63172 0.0
H1447 H 0.76328 0.68538 0.67209 0.0
H1448 H 0.76597 0.65901 0.66551 0.0
H1449 H 0.78549 0.68846 0.6549 0.0
H1450 H 0.79497 0.67136 0.62716 0.0
H1451 H 0.81679 0.64786 0.62676 0.0
H1452 H 0.96138 0.68888 0.64326 0.0
H1453 H 0.00581 0.71454 0.63837 0.0
H1454 H 0.00743 0.65321 0.6126 0.0
H1455 H 0.96299 0.62743 0.61731 0.0
H1456 H 0.04362 0.70615 0.65169 0.0
H1457 H 0.04263 0.70941 0.57438 0.0
H1458 H 0.01536 0.7 0.58829 0.0
H1459 H 0.02655 0.67901 0.58427 0.0
C1460 C 0.97114 0.68084 0.63649 0.0
C1461 C 0.95858 0.65611 0.63061 0.0
C1462 C 0.99654 0.69554 0.63372 0.0
C1463 C 0.00986 0.68589 0.62488 0.0
C1464 C 0.99744 0.66117 0.61913 0.0
H1465 H 0.16449 0.74416 0.59792 0.0
H1466 H 0.11961 0.71897 0.60104 0.0
C1467 C 0.97204 0.64642 0.62194 0.0
C1468 C 0.03685 0.70151 0.62218 0.0
H1469 H 0.08174 0.72647 0.58888 0.0
C1470 C 0.05197 0.7107 0.63797 0.0
C1471 C 0.04768 0.70732 0.60425 0.0
C1472 C 0.03226 0.69863 0.58679 0.0
C1473 C 0.07768 0.72521 0.63634 0.0
C1474 C 0.08853 0.73116 0.61841 0.0
C1475 C 0.0734 0.72193 0.60261 0.0
C1476 C 0.11556 0.74687 0.6158 0.0
C1477 C 0.09301 0.73352 0.65387 0.0
C1478 C 0.12811 0.77111 0.62263 0.0
C1479 C 0.1537 0.78547 0.6209 0.0
C1480 C 0.16718 0.77592 0.61215 0.0
C1481 C 0.15455 0.75196 0.60475 0.0
C1482 C 0.12893 0.73757 0.60653 0.0
H1483 H 0.08274 0.72205 0.66606 0.0
H1484 H 0.11022 0.73276 0.65218 0.0
H1485 H 0.09812 0.75285 0.65695 0.0
H1486 H 0.11812 0.77888 0.62945 0.0
H1487 H 0.16297 0.80393 0.62665 0.0
H1488 H 0.35174 0.95191 0.63672 0.0
H1489 H 0.36685 0.99599 0.64132 0.0
H1490 H 0.29256 0.98269 0.63745 0.0
H1491 H 0.27731 0.93879 0.63288 0.0
H1492 H 0.36005 0.02766 0.61636 0.0
H1493 H 0.31963 0.02342 0.68604 0.0
H1494 H 0.32338 0.99865 0.67684 0.0
H1495 H 0.29828 0.00253 0.66911 0.0
C1496 C 0.33862 0.95837 0.63692 0.0
C1497 C 0.31333 0.94186 0.63446 0.0
C1498 C 0.34727 0.98352 0.63958 0.0
C1499 C 0.33075 0.99247 0.64003 0.0
C1500 C 0.30554 0.97606 0.63752 0.0
H1501 H 0.3573 0.13937 0.62021 0.0
H1502 H 0.33988 0.09465 0.62209 0.0
C1503 C 0.2969 0.95099 0.63477 0.0
C1504 C 0.3399 0.01916 0.64214 0.0
H1505 H 0.33606 0.06158 0.66973 0.0
C1506 C 0.35494 0.03511 0.62808 0.0
C1507 C 0.33329 0.02878 0.65752 0.0
C1508 C 0.31793 0.01253 0.67335 0.0
C1509 C 0.36307 0.0604 0.62873 0.0
C1510 C 0.35579 0.06989 0.64378 0.0
C1511 C 0.3413 0.0541 0.65812 0.0
C1512 C 0.36342 0.09632 0.64473 0.0
C1513 C 0.37942 0.07685 0.61334 0.0
C1514 C 0.38162 0.11183 0.65741 0.0
C1515 C 0.39162 0.13736 0.65634 0.0
C1516 C 0.38339 0.14763 0.64268 0.0
C1517 C 0.36398 0.13192 0.63087 0.0
C1518 C 0.35408 0.10642 0.63187 0.0
H1519 H 0.38708 0.06755 0.60469 0.0
H1520 H 0.36856 0.08208 0.60414 0.0
H1521 H 0.39491 0.09404 0.61918 0.0
H1522 H 0.38898 0.1043 0.66745 0.0
H1523 H 0.40666 0.14909 0.66555 0.0
H1524 H 0.21189 0.36691 0.61307 0.0
H1525 H 0.23235 0.34241 0.61335 0.0
H1526 H 0.27431 0.38247 0.66161 0.0
H1527 H 0.25325 0.40652 0.6617 0.0
H1528 H 0.28042 0.36182 0.60753 0.0
H1529 H 0.25652 0.31311 0.67534 0.0
H1530 H 0.24001 0.32744 0.666 0.0
H1531 H 0.26899 0.34573 0.67769 0.0
C1532 C 0.22497 0.36999 0.62405 0.0
C1533 C 0.23104 0.38859 0.63735 0.0
C1534 C 0.23672 0.35605 0.62416 0.0
C1535 C 0.25484 0.36052 0.63751 0.0
C1536 C 0.26007 0.37833 0.65138 0.0
H1537 H 0.37688 0.33427 0.62038 0.0
H1538 H 0.34997 0.35192 0.62329 0.0
C1539 C 0.24809 0.39213 0.65139 0.0
C1540 C 0.26997 0.34847 0.63561 0.0
H1541 H 0.29019 0.31431 0.65875 0.0
C1542 C 0.28238 0.35126 0.6187 0.0
C1543 C 0.27242 0.33456 0.65012 0.0
C1544 C 0.25858 0.3298 0.66824 0.0
C1545 C 0.29739 0.34084 0.61595 0.0
C1546 C 0.30062 0.32775 0.63069 0.0
C1547 C 0.28791 0.32458 0.64752 0.0
C1548 C 0.31699 0.31708 0.62887 0.0
C1549 C 0.30933 0.34363 0.59715 0.0
C1550 C 0.30752 0.29172 0.63141 0.0
C1551 C 0.3229 0.28161 0.62993 0.0
C1552 C 0.34809 0.29669 0.62589 0.0
C1553 C 0.35753 0.3221 0.62331 0.0
C1554 C 0.34215 0.33221 0.62492 0.0
H1555 H 0.29952 0.3477 0.58605 0.0
H1556 H 0.32855 0.35921 0.59769 0.0
H1557 H 0.30976 0.32671 0.59325 0.0
H1558 H 0.28818 0.27971 0.63452 0.0
H1559 H 0.31505 0.26198 0.63204 0.0
H1560 H 0.36651 0.11842 0.07578 0.0
H1561 H 0.36679 0.11024 0.04245 0.0
H1562 H 0.44064 0.17213 0.03804 0.0
H1563 H 0.44006 0.18093 0.0711 0.0
H1564 H 0.41168 0.17562 0.01344 0.0
H1565 H 0.39781 0.08119 0.00984 0.0
H1566 H 0.37447 0.0828 0.02321 0.0
H1567 H 0.40589 0.09873 0.0312 0.0
C1568 C 0.38298 0.12993 0.06776 0.0
C1569 C 0.40317 0.15045 0.07595 0.0
C1570 C 0.38317 0.12516 0.04872 0.0
C1571 C 0.40379 0.14048 0.03773 0.0
C1572 C 0.42449 0.1601 0.04621 0.0
H1573 H 0.43155 0.1248 0.92174 0.0
H1574 H 0.42887 0.12323 0.95572 0.0
C1575 C 0.42414 0.16512 0.06511 0.0
C1576 C 0.40297 0.13798 0.01713 0.0
H1577 H 0.39277 0.09799 0.98137 0.0
C1578 C 0.40768 0.15866 0.00645 0.0
C1579 C 0.39788 0.11591 0.008 0.0
C1580 C 0.39397 0.09347 0.01865 0.0
C1581 C 0.40748 0.15796 0.98695 0.0
C1582 C 0.40153 0.13565 0.9778 0.0
C1583 C 0.39696 0.11496 0.98843 0.0
C1584 C 0.40101 0.13393 0.95718 0.0
C1585 C 0.41435 0.18138 0.97639 0.0
C1586 C 0.38563 0.13964 0.94669 0.0
C1587 C 0.38736 0.1409 0.92727 0.0
C1588 C 0.40417 0.13599 0.91797 0.0
C1589 C 0.41846 0.12877 0.92846 0.0
C1590 C 0.41693 0.12782 0.9479 0.0
H1591 H 0.42492 0.19798 0.98523 0.0
H1592 H 0.42556 0.18315 0.96389 0.0
H1593 H 0.39733 0.18108 0.97176 0.0
H1594 H 0.37273 0.14377 0.95355 0.0
H1595 H 0.37584 0.14617 0.91959 0.0
H1596 H 0.2612 0.39425 0.08572 0.0
H1597 H 0.27341 0.39101 0.0538 0.0
H1598 H 0.2553 0.44565 0.03567 0.0
H1599 H 0.24305 0.44894 0.06731 0.0
H1600 H 0.24044 0.37739 0.02237 0.0
H1601 H 0.32392 0.46851 0.01249 0.0
H1602 H 0.31237 0.4555 0.03525 0.0
H1603 H 0.29884 0.47059 0.02263 0.0
C1604 C 0.2602 0.40583 0.07496 0.0
C1605 C 0.25113 0.42181 0.07897 0.0
C1606 C 0.26716 0.40394 0.05678 0.0
C1607 C 0.26552 0.41831 0.04248 0.0
C1608 C 0.25711 0.43473 0.04659 0.0
H1609 H 0.25537 0.44031 0.93039 0.0
H1610 H 0.259 0.43869 0.964 0.0
C1611 C 0.24995 0.43646 0.06466 0.0
C1612 C 0.27038 0.41488 0.02288 0.0
H1613 H 0.30186 0.4476 0.98457 0.0
C1614 C 0.25428 0.39246 0.01412 0.0
C1615 C 0.28852 0.43457 0.01226 0.0
C1616 C 0.30707 0.45858 0.02117 0.0
C1617 C 0.25449 0.38995 0.99469 0.0
C1618 C 0.27148 0.4103 0.98393 0.0
C1619 C 0.28875 0.43208 0.99288 0.0
C1620 C 0.26948 0.41063 0.96342 0.0
C1621 C 0.23544 0.36623 0.98569 0.0
C1622 C 0.27409 0.39526 0.95193 0.0
C1623 C 0.27193 0.39605 0.93254 0.0
C1624 C 0.26524 0.41232 0.92443 0.0
C1625 C 0.2606 0.42758 0.93609 0.0
C1626 C 0.26273 0.42675 0.95535 0.0
H1627 H 0.22174 0.35331 0.9959 0.0
H1628 H 0.22555 0.37009 0.97455 0.0
H1629 H 0.24472 0.35698 0.97916 0.0
H1630 H 0.27956 0.38287 0.95792 0.0
H1631 H 0.27576 0.38415 0.92395 0.0
H1632 H 0.79988 0.24785 0.06495 0.0
H1633 H 0.81202 0.26052 0.03272 0.0
H1634 H 0.88736 0.28308 0.04634 0.0
H1635 H 0.87534 0.2702 0.07872 0.0
H1636 H 0.84907 0.30695 0.0163 0.0
H1637 H 0.86713 0.22931 0.00525 0.0
H1638 H 0.85007 0.23051 0.02508 0.0
H1639 H 0.8829 0.25003 0.02422 0.0
C1640 C 0.81909 0.25572 0.06117 0.0
C1641 C 0.83661 0.25776 0.07432 0.0
C1642 C 0.826 0.26305 0.04277 0.0
C1643 C 0.85049 0.27241 0.03716 0.0
C1644 C 0.8683 0.27559 0.05041 0.0
H1645 H 0.89485 0.28439 0.92002 0.0
H1646 H 0.89764 0.2884 0.95397 0.0
C1647 C 0.8614 0.2683 0.06888 0.0
C1648 C 0.85673 0.27709 0.01718 0.0
H1649 H 0.86947 0.25277 0.97913 0.0
C1650 C 0.85386 0.29536 0.00817 0.0
C1651 C 0.86307 0.26196 0.00669 0.0
C1652 C 0.86587 0.24172 0.01569 0.0
C1653 C 0.85648 0.29843 0.98878 0.0
C1654 C 0.86153 0.28244 0.97818 0.0
C1655 C 0.86554 0.26495 0.98731 0.0
C1656 C 0.86064 0.28201 0.95757 0.0
C1657 C 0.85351 0.31858 0.97984 0.0
C1658 C 0.83885 0.27689 0.94838 0.0
C1659 C 0.83716 0.27457 0.92903 0.0
C1660 C 0.85718 0.2771 0.91847 0.0
C1661 C 0.87907 0.28233 0.92772 0.0
C1662 C 0.88074 0.28469 0.94711 0.0
H1663 H 0.85803 0.33386 0.98977 0.0
H1664 H 0.86541 0.32616 0.96734 0.0
H1665 H 0.83405 0.31094 0.97548 0.0
H1666 H 0.82288 0.27406 0.95623 0.0
H1667 H 0.81998 0.2704 0.92242 0.0
H1668 H 0.63021 0.89179 0.91829 0.0
H1669 H 0.62483 0.90457 0.94957 0.0
H1670 H 0.56974 0.82952 0.962 0.0
H1671 H 0.57491 0.81672 0.93111 0.0
H1672 H 0.55873 0.86746 0.97472 0.0
H1673 H 0.65133 0.88361 0.99572 0.0
H1674 H 0.64894 0.89907 0.97537 0.0
H1675 H 0.63603 0.86628 0.97506 0.0
C1676 C 0.61671 0.87815 0.92764 0.0
C1677 C 0.60322 0.85321 0.92238 0.0
C1678 C 0.61371 0.88545 0.94546 0.0
C1679 C 0.59708 0.8679 0.95811 0.0
C1680 C 0.58269 0.84332 0.95245 0.0
H1681 H 0.54613 0.82393 0.06637 0.0
H1682 H 0.55227 0.83305 0.03317 0.0
C1683 C 0.58578 0.83602 0.93481 0.0
C1684 C 0.59572 0.87411 0.97779 0.0
H1685 H 0.62489 0.88171 0.01943 0.0
C1686 C 0.57337 0.87114 0.9845 0.0
C1687 C 0.6149 0.87901 0.99045 0.0
C1688 C 0.63918 0.88212 0.98393 0.0
C1689 C 0.56923 0.87163 0.00367 0.0
C1690 C 0.58772 0.87458 0.01642 0.0
C1691 C 0.61068 0.87929 0.00963 0.0
C1692 C 0.58283 0.87017 0.03667 0.0
C1693 C 0.54485 0.86833 0.01008 0.0
C1694 C 0.59829 0.88782 0.04974 0.0
C1695 C 0.595 0.88254 0.06881 0.0
C1696 C 0.57627 0.85943 0.07515 0.0
C1697 C 0.56064 0.84195 0.06202 0.0
C1698 C 0.56398 0.84723 0.04299 0.0
H1699 H 0.53685 0.87518 -0.00056 0.0
H1700 H 0.53169 0.84841 0.01219 0.0
H1701 H 0.54674 0.87812 0.0234 0.0
H1702 H 0.61312 0.90554 0.04515 0.0
H1703 H 0.60739 0.89644 0.07853 0.0
H1704 H 0.74251 0.56603 0.06189 0.0
H1705 H 0.73279 0.56675 0.02908 0.0
H1706 H 0.71629 0.62459 0.04013 0.0
H1707 H 0.72581 0.62386 0.07324 0.0
H1708 H 0.68393 0.58409 0.01148 0.0
H1709 H 0.78502 0.63173 0.00043 0.0
H1710 H 0.77302 0.60396 0.01397 0.0
H1711 H 0.77137 0.62988 0.02296 0.0
C1712 C 0.73642 0.57864 0.05745 0.0
C1713 C 0.73537 0.59522 0.07007 0.0
C1714 C 0.73077 0.57894 0.03872 0.0
C1715 C 0.72415 0.59592 0.03223 0.0
C1716 C 0.7214 0.61137 0.04494 0.0
H1717 H 0.75716 0.6245 0.91508 0.0
H1718 H 0.74859 0.63325 0.94653 0.0
C1719 C 0.72691 0.61097 0.06381 0.0
C1720 C 0.72323 0.59933 0.01195 0.0
H1721 H 0.75989 0.61487 0.97363 0.0
C1722 C 0.7005 0.59119 0.00312 0.0
C1723 C 0.74497 0.60917 0.00121 0.0
C1724 C 0.77003 0.61942 0.0101 0.0
C1725 C 0.69885 0.59128 0.98356 0.0
C1726 C 0.72043 0.59922 0.97274 0.0
C1727 C 0.74326 0.60871 0.98178 0.0
C1728 C 0.72003 0.59572 0.95224 0.0
C1729 C 0.67402 0.58263 0.97477 0.0
C1730 C 0.70584 0.57206 0.94452 0.0
C1731 C 0.71031 0.56722 0.92636 0.0
C1732 C 0.72952 0.58581 0.91588 0.0
C1733 C 0.74236 0.60985 0.923 0.0
C1734 C 0.73746 0.61483 0.94095 0.0
H1735 H 0.66228 0.58684 0.98387 0.0
H1736 H 0.67572 0.59128 0.96094 0.0
H1737 H 0.6645 0.56233 0.97296 0.0
H1738 H 0.69272 0.55682 0.95299 0.0
H1739 H 0.70027 0.54846 0.92121 0.0
H1740 H 0.18153 0.73077 0.08295 0.0
H1741 H 0.17891 0.72845 0.04904 0.0
H1742 H 0.10615 0.71949 0.0514 0.0
H1743 H 0.10866 0.72215 0.0854 0.0
H1744 H 0.1439 0.69063 0.02584 0.0
H1745 H 0.14453 0.77921 0.0168 0.0
H1746 H 0.1529 0.77073 0.03847 0.0
H1747 H 0.12109 0.757 0.03192 0.0
C1748 C 0.16492 0.72825 0.07631 0.0
C1749 C 0.14537 0.72682 0.08687 0.0
C1750 C 0.16346 0.72689 0.05694 0.0
C1751 C 0.14248 0.72412 0.0478 0.0
C1752 C 0.12266 0.72206 0.05825 0.0
H1753 H 0.12049 0.72761 0.92788 0.0
H1754 H 0.11313 0.72231 0.96146 0.0
C1755 C 0.12411 0.72349 0.07766 0.0
C1756 C 0.14174 0.72383 0.02727 0.0
H1757 H 0.1422 0.75719 0.98958 0.0
C1758 C 0.14337 0.70507 0.01788 0.0
C1759 C 0.14096 0.7427 0.01702 0.0
C1760 C 0.13996 0.76369 0.0265 0.0
C1761 C 0.14466 0.7049 -0.00159 0.0
C1762 C 0.14465 0.72417 0.98821 0.0
C1763 C 0.1422 0.74248 0.99754 0.0
C1764 C 0.14872 0.72653 0.96792 0.0
C1765 C 0.1462 0.68423 0.9889 0.0
C1766 C 0.1713 0.73097 0.9606 0.0
C1767 C 0.17564 0.73411 0.94149 0.0
C1768 C 0.15745 0.73291 0.92937 0.0
C1769 C 0.13486 0.72856 0.93681 0.0
C1770 C 0.13058 0.72551 0.95597 0.0
H1771 H 0.13937 0.66778 -0.00196 0.0
H1772 H 0.13542 0.67877 0.97576 0.0
H1773 H 0.16571 0.69054 0.98542 0.0
H1774 H 0.18568 0.7323 0.96972 0.0
H1775 H 0.19326 0.73749 0.93625 0.0
H1776 H 0.89104 0.61986 0.57181 0.0
H1777 H 0.89268 0.6219 0.53769 0.0
H1778 H 0.81801 0.56135 0.53494 0.0
H1779 H 0.81602 0.55932 0.5688 0.0
H1780 H 0.88575 0.5846 0.51233 0.0
H1781 H 0.81627 0.61341 0.50167 0.0
H1782 H 0.83059 0.61568 0.52396 0.0
H1783 H 0.80537 0.58668 0.51623 0.0
C1784 C 0.87491 0.6071 0.56394 0.0
C1785 C 0.85336 0.5895 0.57307 0.0
C1786 C 0.87591 0.60828 0.54446 0.0
C1787 C 0.85533 0.59204 0.53384 0.0
C1788 C 0.83391 0.5744 0.5429 0.0
H1789 H 0.81245 0.54859 0.42097 0.0
H1790 H 0.81709 0.5535 0.45475 0.0
C1791 C 0.83289 0.57319 0.56229 0.0
C1792 C 0.85626 0.59278 0.51323 0.0
H1793 H 0.82638 0.59725 0.47501 0.0
C1794 C 0.87304 0.58771 0.50412 0.0
C1795 C 0.83965 0.59689 0.50262 0.0
C1796 C 0.82211 0.60371 0.5116 0.0
C1797 C 0.87288 0.58554 0.48464 0.0
C1798 C 0.85567 0.58879 0.47411 0.0
C1799 C 0.83941 0.59458 0.48318 0.0
C1800 C 0.85362 0.58548 0.45367 0.0
C1801 C 0.89044 0.57886 0.47551 0.0
C1802 C 0.87266 0.60188 0.44192 0.0
C1803 C 0.87008 0.59917 0.42258 0.0
C1804 C 0.84837 0.58001 0.41469 0.0
C1805 C 0.82944 0.56349 0.42656 0.0
C1806 C 0.83202 0.56628 0.44587 0.0
H1807 H 0.89934 0.57256 0.4858 0.0
H1808 H 0.88068 0.56412 0.46498 0.0
H1809 H 0.90509 0.59527 0.46821 0.0
H1810 H 0.88933 0.61702 0.44771 0.0
H1811 H 0.88499 0.61226 0.41385 0.0
H1812 H 0.324 0.89309 0.57371 0.0
H1813 H 0.33085 0.90759 0.54147 0.0
H1814 H 0.25251 0.86669 0.53156 0.0
H1815 H 0.24545 0.8526 0.56371 0.0
H1816 H 0.32059 0.87847 0.51247 0.0
H1817 H 0.27041 0.92885 0.50383 0.0
H1818 H 0.27844 0.92256 0.52654 0.0
H1819 H 0.25056 0.90008 0.51506 0.0
C1820 C 0.30819 0.88756 0.56475 0.0
C1821 C 0.28416 0.87151 0.57122 0.0
C1822 C 0.31216 0.89598 0.54637 0.0
C1823 C 0.2922 0.88858 0.53419 0.0
C1824 C 0.26817 0.87328 0.54084 0.0
H1825 H 0.25215 0.82349 0.43449 0.0
H1826 H 0.2711 0.84091 0.4644 0.0
C1827 C 0.26416 0.86497 0.55921 0.0
C1828 C 0.29625 0.89348 0.51398 0.0
H1829 H 0.27028 0.90481 0.4764 0.0
C1830 C 0.31024 0.88501 0.50458 0.0
C1831 C 0.28341 0.90267 0.50362 0.0
C1832 C 0.27012 0.91432 0.51286 0.0
C1833 C 0.30923 0.88269 0.48516 0.0
C1834 C 0.29346 0.88849 0.47507 0.0
C1835 C 0.28194 0.89981 0.48422 0.0
C1836 C 0.2851 0.87886 0.45609 0.0
C1837 C 0.32388 0.87263 0.47575 0.0
C1838 C 0.2864 0.89442 0.44155 0.0
C1839 C 0.27534 0.88443 0.42441 0.0
C1840 C 0.26263 0.85875 0.4217 0.0
C1841 C 0.26184 0.84333 0.43616 0.0
C1842 C 0.27293 0.8533 0.4532 0.0
H1843 H 0.34132 0.87826 0.48337 0.0
H1844 H 0.31302 0.8522 0.47583 0.0
H1845 H 0.32828 0.87903 0.46109 0.0
H1846 H 0.29543 0.91417 0.44363 0.0
H1847 H 0.27608 0.89672 0.4135 0.0
H1848 H 0.38668 0.26501 0.58461 0.0
H1849 H 0.3865 0.27916 0.55265 0.0
H1850 H 0.44099 0.25982 0.53667 0.0
H1851 H 0.44133 0.24582 0.56825 0.0
H1852 H 0.44864 0.30676 0.52218 0.0
H1853 H 0.35443 0.22714 0.50967 0.0
H1854 H 0.35917 0.24674 0.52942 0.0
H1855 H 0.37299 0.22767 0.52907 0.0
C1856 C 0.39885 0.26414 0.57431 0.0
C1857 C 0.4138 0.25404 0.57886 0.0
C1858 C 0.39866 0.27212 0.55609 0.0
C1859 C 0.41352 0.27023 0.54229 0.0
C1860 C 0.42934 0.26137 0.54711 0.0
H1861 H 0.44791 0.271 0.4294 0.0
H1862 H 0.44609 0.27431 0.46311 0.0
C1863 C 0.42943 0.25328 0.56516 0.0
C1864 C 0.41176 0.27571 0.52248 0.0
H1865 H 0.37641 0.25036 0.48374 0.0
C1866 C 0.43268 0.29475 0.5138 0.0
C1867 C 0.39088 0.26007 0.51162 0.0
C1868 C 0.36805 0.23915 0.52029 0.0
C1869 C 0.43369 0.29787 0.49439 0.0
C1870 C 0.41345 0.28113 0.4834 0.0
C1871 C 0.39196 0.26307 0.49219 0.0
C1872 C 0.41506 0.28047 0.4628 0.0
C1873 C 0.45664 0.31872 0.48583 0.0
C1874 C 0.39779 0.28216 0.4514 0.0
C1875 C 0.39862 0.28004 0.43203 0.0
C1876 C 0.41665 0.27599 0.42374 0.0
C1877 C 0.43387 0.27426 0.43525 0.0
C1878 C 0.433 0.27637 0.45456 0.0
H1879 H 0.46627 0.33425 0.49579 0.0
H1880 H 0.46949 0.31205 0.48216 0.0
H1881 H 0.45233 0.3257 0.47299 0.0
H1882 H 0.38362 0.28504 0.4575 0.0
H1883 H 0.38504 0.28141 0.4236 0.0
H1884 H 0.12921 0.40191 0.58421 0.0
H1885 H 0.114 0.39834 0.55221 0.0
H1886 H 0.18717 0.4516 0.5339 0.0
H1887 H 0.20242 0.45546 0.56569 0.0
H1888 H 0.14785 0.45709 0.51782 0.0
H1889 H 0.13245 0.36153 0.51278 0.0
H1890 H 0.11766 0.36833 0.53148 0.0
H1891 H 0.15056 0.38224 0.53125 0.0
C1892 C 0.14195 0.41314 0.5734 0.0
C1893 C 0.16706 0.42878 0.57739 0.0
C1894 C 0.13325 0.41099 0.55515 0.0
C1895 C 0.14956 0.42445 0.54072 0.0
C1896 C 0.17432 0.44102 0.54488 0.0
H1897 H 0.18164 0.44436 0.42762 0.0
H1898 H 0.17675 0.4457 0.46113 0.0
C1899 C 0.18302 0.44313 0.56303 0.0
C1900 C 0.14172 0.42027 0.52102 0.0
H1901 H 0.1299 0.38003 0.4852 0.0
C1902 C 0.14344 0.44008 0.51071 0.0
C1903 C 0.13584 0.39799 0.51185 0.0
C1904 C 0.13409 0.37627 0.5223 0.0
C1905 C 0.14068 0.43865 0.4913 0.0
C1906 C 0.13657 0.41701 0.482 0.0
C1907 C 0.13317 0.39661 0.49241 0.0
C1908 C 0.13876 0.41628 0.46153 0.0
C1909 C 0.14296 0.46058 0.48085 0.0
C1910 C 0.11922 0.39872 0.45071 0.0
C1911 C 0.12198 0.39777 0.43143 0.0
C1912 C 0.14444 0.41421 0.42274 0.0
C1913 C 0.16404 0.43148 0.43376 0.0
C1914 C 0.16123 0.43245 0.45294 0.0
H1915 H 0.13792 0.47184 0.48982 0.0
H1916 H 0.16235 0.47247 0.47637 0.0
H1917 H 0.13107 0.45475 0.46826 0.0
H1918 H 0.10184 0.38587 0.45717 0.0
H1919 H 0.10652 0.3842 0.42337 0.0
H1920 H 0.73747 0.18403 0.43299 0.0
H1921 H 0.7333 0.17416 0.46615 0.0
H1922 H 0.71706 0.10025 0.45352 0.0
H1923 H 0.72148 0.10996 0.42024 0.0
H1924 H 0.69233 0.13599 0.48628 0.0
H1925 H 0.77622 0.12678 0.48961 0.0
H1926 H 0.77014 0.14118 0.47013 0.0
H1927 H 0.75317 0.10828 0.47269 0.0
C1928 C 0.73299 0.16565 0.4372 0.0
C1929 C 0.73001 0.14786 0.42393 0.0
C1930 C 0.73052 0.16003 0.45617 0.0
C1931 C 0.72508 0.13657 0.46224 0.0
C1932 C 0.72159 0.11857 0.44908 0.0
H1933 H 0.7422 0.11153 0.58059 0.0
H1934 H 0.72728 0.09995 0.54847 0.0
C1935 C 0.72409 0.12417 0.43008 0.0
C1936 C 0.72394 0.13151 0.48244 0.0
H1937 H 0.75658 0.12497 0.51778 0.0
C1938 C 0.70612 0.13317 0.49317 0.0
C1939 C 0.74179 0.12755 0.49134 0.0
C1940 C 0.76155 0.12596 0.48044 0.0
C1941 C 0.70646 0.13224 0.51268 0.0
C1942 C 0.72534 0.13002 0.52161 0.0
C1943 C 0.74212 0.12666 0.51086 0.0
C1944 C 0.73051 0.13511 0.54171 0.0
C1945 C 0.68709 0.13446 0.52359 0.0
C1946 C 0.73704 0.15857 0.54851 0.0
C1947 C 0.74572 0.16526 0.56664 0.0
C1948 C 0.74808 0.14861 0.57836 0.0
C1949 C 0.74055 0.12471 0.57185 0.0
C1950 C 0.73201 0.11807 0.55355 0.0
H1951 H 0.66976 0.12731 0.51547 0.0
H1952 H 0.68299 0.12434 0.53701 0.0
H1953 H 0.69385 0.15419 0.52663 0.0
H1954 H 0.73655 0.17219 0.53949 0.0
H1955 H 0.75128 0.18378 0.57126 0.0
H1956 H 0.61873 0.73265 0.41748 0.0
H1957 H 0.61733 0.71975 0.44996 0.0
H1958 H 0.56082 0.73786 0.46188 0.0
H1959 H 0.5621 0.75076 0.42966 0.0
H1960 H 0.62749 0.75313 0.48026 0.0
H1961 H 0.53525 0.67013 0.48715 0.0
H1962 H 0.55035 0.68122 0.46492 0.0
H1963 H 0.53471 0.6954 0.47582 0.0
C1964 C 0.60568 0.73342 0.42696 0.0
C1965 C 0.59064 0.74288 0.42108 0.0
C1966 C 0.60492 0.72606 0.44547 0.0
C1967 C 0.58881 0.72764 0.45824 0.0
C1968 C 0.57308 0.7361 0.45217 0.0
H1969 H 0.55948 0.73244 0.57238 0.0
H1970 H 0.5605 0.72945 0.53855 0.0
C1971 C 0.57398 0.74365 0.43378 0.0
C1972 C 0.59014 0.7232 0.47834 0.0
H1973 H 0.55453 0.69141 0.51554 0.0
C1974 C 0.61175 0.73931 0.48799 0.0
C1975 C 0.56952 0.70523 0.4883 0.0
C1976 C 0.54621 0.68684 0.47851 0.0
C1977 C 0.6128 0.73896 0.50751 0.0
C1978 C 0.59179 0.72164 0.51757 0.0
C1979 C 0.57057 0.70474 0.50782 0.0
C1980 C 0.59077 0.72213 0.53818 0.0
C1981 C 0.63585 0.75811 0.51721 0.0
C1982 C 0.60723 0.71865 0.54925 0.0
C1983 C 0.60687 0.72058 0.56865 0.0
C1984 C 0.5898 0.72573 0.57732 0.0
C1985 C 0.5729 0.72851 0.56619 0.0
C1986 C 0.5734 0.72674 0.54683 0.0
H1987 H 0.64819 0.77325 0.50767 0.0
H1988 H 0.63121 0.76622 0.52922 0.0
H1989 H 0.64618 0.74929 0.52257 0.0
H1990 H 0.62046 0.71459 0.54288 0.0
H1991 H 0.61998 0.71809 0.57683 0.0
H1992 H 0.42197 0.19804 0.16384 0.0
H1993 H 0.41952 0.21569 0.19366 0.0
H1994 H 0.35489 0.14699 0.20823 0.0
H1995 H 0.35749 0.12914 0.17853 0.0
H1996 H 0.38376 0.22212 0.21235 0.0
H1997 H 0.40388 0.15618 0.24926 0.0
H1998 H 0.40685 0.16039 0.22436 0.0
H1999 H 0.37697 0.14208 0.23474 0.0
C2000 C 0.40691 0.1869 0.17322 0.0
C2001 C 0.3899 0.16225 0.1689 0.0
C2002 C 0.40557 0.19698 0.19026 0.0
C2003 C 0.38727 0.18252 0.20328 0.0
C2004 C 0.36942 0.15832 0.19853 0.0
H2005 H 0.3691 0.23905 0.311 0.0
H2006 H 0.36167 0.22185 0.27942 0.0
C2007 C 0.37086 0.14819 0.18154 0.0
C2008 C 0.38815 0.19214 0.22232 0.0
H2009 H 0.39722 0.18321 0.26789 0.0
C2010 C 0.38655 0.21357 0.22453 0.0
C2011 C 0.39213 0.18111 0.23814 0.0
C2012 C 0.39529 0.1588 0.23658 0.0
C2013 C 0.38901 0.22436 0.24217 0.0
C2014 C 0.39284 0.2132 0.25797 0.0
C2015 C 0.39413 0.19163 0.25575 0.0
C2016 C 0.39724 0.22435 0.27682 0.0
C2017 C 0.38837 0.24805 0.24365 0.0
C2018 C 0.4195 0.23108 0.28594 0.0
C2019 C 0.4237 0.24065 0.30397 0.0
C2020 C 0.40571 0.24373 0.31332 0.0
C2021 C 0.38341 0.23707 0.30414 0.0
C2022 C 0.37918 0.22737 0.28606 0.0
H2023 H 0.39066 0.25699 0.22985 0.0
H2024 H 0.37036 0.24405 0.24948 0.0
H2025 H 0.40306 0.26124 0.25313 0.0
H2026 H 0.43366 0.22883 0.2791 0.0
H2027 H 0.44108 0.24553 0.31059 0.0
H2028 H 0.23712 0.38299 0.17213 0.0
H2029 H 0.21102 0.37008 0.19995 0.0
H2030 H 0.20933 0.43808 0.19872 0.0
H2031 H 0.2351 0.45085 0.17081 0.0
H2032 H 0.22521 0.39373 0.23215 0.0
H2033 H 0.13853 0.38967 0.21124 0.0
H2034 H 0.16004 0.38969 0.19448 0.0
H2035 H 0.1647 0.41822 0.20418 0.0
C2036 C 0.23074 0.39493 0.17762 0.0
C2037 C 0.23793 0.41784 0.16932 0.0
C2038 C 0.21577 0.3875 0.19343 0.0
C2039 C 0.20786 0.40291 0.20123 0.0
C2040 C 0.21455 0.42554 0.19264 0.0
H2041 H 0.19736 0.43941 0.31109 0.0
H2042 H 0.20641 0.43324 0.27922 0.0
C2043 C 0.22942 0.43291 0.17677 0.0
C2044 C 0.19577 0.39717 0.21971 0.0
H2045 H 0.14925 0.3975 0.24418 0.0
C2046 C 0.20828 0.39398 0.23469 0.0
C2047 C 0.17351 0.39713 0.22302 0.0
C2048 C 0.15829 0.39859 0.20732 0.0
C2049 C 0.20011 0.39255 0.25303 0.0
C2050 C 0.17916 0.39483 0.25648 0.0
C2051 C 0.16556 0.39617 0.24146 0.0
C2052 C 0.17278 0.39838 0.27559 0.0
C2053 C 0.21448 0.3895 0.26865 0.0
C2054 C 0.15055 0.38105 0.28392 0.0
C2055 C 0.14525 0.38453 0.30225 0.0
C2056 C 0.16205 0.40552 0.31237 0.0
C2057 C 0.18405 0.42301 0.30376 0.0
C2058 C 0.18931 0.41948 0.28555 0.0
H2059 H 0.22511 0.38077 0.26365 0.0
H2060 H 0.22777 0.4079 0.27437 0.0
H2061 H 0.2021 0.37814 0.28011 0.0
H2062 H 0.13752 0.36471 0.27636 0.0
H2063 H 0.12811 0.37077 0.30849 0.0
H2064 H 0.79045 0.23886 0.16248 0.0
H2065 H 0.77563 0.22035 0.19327 0.0
H2066 H 0.84822 0.23342 0.2069 0.0
H2067 H 0.8632 0.25239 0.17633 0.0
H2068 H 0.77475 0.18138 0.2126 0.0
H2069 H 0.83523 0.27106 0.2473 0.0
H2070 H 0.83018 0.26837 0.22247 0.0
H2071 H 0.85143 0.26047 0.23285 0.0
C2072 C 0.8031 0.23741 0.17198 0.0
C2073 C 0.82792 0.24703 0.16715 0.0
C2074 C 0.79465 0.22688 0.18952 0.0
C2075 C 0.81096 0.22593 0.20243 0.0
C2076 C 0.83549 0.23445 0.19725 0.0
H2077 H 0.76839 0.15117 0.31035 0.0
H2078 H 0.78234 0.16227 0.27811 0.0
C2079 C 0.84398 0.24519 0.17981 0.0
C2080 C 0.80267 0.21742 0.22166 0.0
H2081 H 0.81295 0.23662 0.2669 0.0
C2082 C 0.78307 0.19339 0.22451 0.0
C2083 C 0.8134 0.23332 0.23709 0.0
C2084 C 0.83356 0.25981 0.23483 0.0
C2085 C 0.77388 0.18479 0.24245 0.0
C2086 C 0.78497 0.20056 0.2579 0.0
C2087 C 0.80461 0.22454 0.25502 0.0
C2088 C 0.7759 0.19313 0.27717 0.0
C2089 C 0.75199 0.15923 0.24465 0.0
C2090 C 0.76821 0.20714 0.28743 0.0
C2091 C 0.76063 0.20111 0.30587 0.0
C2092 C 0.76049 0.18086 0.3144 0.0
C2093 C 0.76812 0.16677 0.3041 0.0
C2094 C 0.77593 0.17297 0.28565 0.0
H2095 H 0.74193 0.15205 0.2313 0.0
H2096 H 0.75844 0.14653 0.24933 0.0
H2097 H 0.73897 0.15898 0.25525 0.0
H2098 H 0.76815 0.22283 0.28115 0.0
H2099 H 0.75483 0.21232 0.31341 0.0
H2100 H 0.544 0.79074 0.18566 0.0
H2101 H 0.55038 0.77981 0.217 0.0
H2102 H 0.62475 0.84121 0.21683 0.0
H2103 H 0.61833 0.85268 0.18564 0.0
H2104 H 0.5831 0.76675 0.22899 0.0
H2105 H 0.59879 0.85139 0.26572 0.0
H2106 H 0.58676 0.84405 0.24232 0.0
H2107 H 0.61921 0.85706 0.24646 0.0
C2108 C 0.56168 0.80201 0.19231 0.0
C2109 C 0.5806 0.82268 0.18321 0.0
C2110 C 0.5653 0.79572 0.21022 0.0
C2111 C 0.5879 0.80993 0.21937 0.0
C2112 C 0.60696 0.83036 0.21022 0.0
H2113 H 0.6246 0.75212 0.31779 0.0
H2114 H 0.62654 0.77039 0.2872 0.0
C2115 C 0.6033 0.83678 0.19235 0.0
C2116 C 0.59156 0.80282 0.23828 0.0
H2117 H 0.6048 0.82281 0.28331 0.0
C2118 C 0.58789 0.77902 0.24087 0.0
C2119 C 0.59761 0.81881 0.25377 0.0
C2120 C 0.60061 0.84417 0.25203 0.0
C2121 C 0.58984 0.77063 0.25854 0.0
C2122 C 0.5963 0.78675 0.27399 0.0
C2123 C 0.60015 0.81062 0.2714 0.0
C2124 C 0.59748 0.77853 0.29311 0.0
C2125 C 0.58408 0.74428 0.26059 0.0
C2126 C 0.5814 0.7782 0.30685 0.0
C2127 C 0.58052 0.76811 0.32437 0.0
C2128 C 0.5958 0.7583 0.32845 0.0
C2129 C 0.61261 0.75955 0.31496 0.0
C2130 C 0.61362 0.76982 0.29748 0.0
H2131 H 0.57365 0.73281 0.24844 0.0
H2132 H 0.60155 0.74393 0.2616 0.0
H2133 H 0.57318 0.73578 0.2734 0.0
H2134 H 0.56881 0.78485 0.30378 0.0
H2135 H 0.56716 0.76706 0.33444 0.0
H2136 H 0.75658 0.5696 0.15798 0.0
H2137 H 0.77676 0.57293 0.18788 0.0
H2138 H 0.76744 0.63444 0.20296 0.0
H2139 H 0.7469 0.63093 0.17309 0.0
H2140 H 0.81809 0.6109 0.20545 0.0
H2141 H 0.7319 0.58473 0.24464 0.0
H2142 H 0.7324 0.58177 0.21967 0.0
H2143 H 0.7426 0.61144 0.23005 0.0
C2144 C 0.75921 0.58408 0.16756 0.0
C2145 C 0.75039 0.60012 0.16325 0.0
C2146 C 0.7707 0.58595 0.18462 0.0
C2147 C 0.77333 0.60375 0.19769 0.0
C2148 C 0.76525 0.62035 0.19316 0.0
H2149 H 0.85301 0.62493 0.30319 0.0
H2150 H 0.84117 0.63224 0.27235 0.0
C2151 C 0.75362 0.61839 0.17611 0.0
C2152 C 0.78319 0.6038 0.21643 0.0
H2153 H 0.7668 0.59293 0.26226 0.0
C2154 C 0.807 0.60716 0.21792 0.0
C2155 C 0.76849 0.59863 0.23259 0.0
C2156 C 0.74236 0.59371 0.23174 0.0
C2157 C 0.81639 0.60507 0.23516 0.0
C2158 C 0.80166 0.59987 0.25131 0.0
C2159 C 0.77806 0.59702 0.24984 0.0
C2160 C 0.80955 0.59561 0.26969 0.0
C2161 C 0.84155 0.60748 0.23584 0.0
C2162 C 0.79548 0.57276 0.27851 0.0
C2163 C 0.80202 0.5686 0.29614 0.0
C2164 C 0.82281 0.58724 0.30532 0.0
C2165 C 0.83699 0.61013 0.29642 0.0
C2166 C 0.83034 0.61431 0.27877 0.0
H2167 H 0.84816 0.60614 0.22177 0.0
H2168 H 0.85491 0.6257 0.2418 0.0
H2169 H 0.84139 0.59301 0.24487 0.0
H2170 H 0.77934 0.5581 0.27175 0.0
H2171 H 0.79068 0.55077 0.30258 0.0
H2172 H 0.19692 0.76515 0.20018 0.0
H2173 H 0.20435 0.78456 0.23075 0.0
H2174 H 0.13708 0.78712 0.22638 0.0
H2175 H 0.12928 0.76747 0.19569 0.0
H2176 H 0.2072 0.83227 0.23793 0.0
H2177 H 0.13414 0.75336 0.27817 0.0
H2178 H 0.14546 0.74871 0.25628 0.0
H2179 H 0.12629 0.76239 0.25655 0.0
C2180 C 0.18361 0.76969 0.20571 0.0
C2181 C 0.1625 0.76473 0.19555 0.0
C2182 C 0.1879 0.78081 0.22315 0.0
C2183 C 0.17117 0.78708 0.23074 0.0
C2184 C 0.15003 0.78214 0.22074 0.0
H2185 H 0.2339 0.87565 0.33226 0.0
H2186 H 0.20682 0.86126 0.30484 0.0
C2187 C 0.14569 0.771 0.20323 0.0
C2188 C 0.1766 0.7993 0.24903 0.0
H2189 H 0.16391 0.78713 0.29524 0.0
C2190 C 0.19746 0.82276 0.2505 0.0
C2191 C 0.16364 0.78667 0.26521 0.0
C2192 C 0.14114 0.76134 0.26416 0.0
C2193 C 0.20696 0.83323 0.26791 0.0
C2194 C 0.19491 0.81992 0.28418 0.0
C2195 C 0.17296 0.79724 0.28268 0.0
C2196 C 0.20724 0.82704 0.30244 0.0
C2197 C 0.23091 0.85745 0.26871 0.0
C2198 C 0.21554 0.81209 0.31046 0.0
C2199 C 0.23078 0.82018 0.32603 0.0
C2200 C 0.23777 0.84321 0.33389 0.0
C2201 C 0.22869 0.85778 0.32635 0.0
C2202 C 0.21327 0.84961 0.31078 0.0
H2203 H 0.23943 0.86365 0.25475 0.0
H2204 H 0.22748 0.87186 0.27454 0.0
H2205 H 0.24428 0.8559 0.27794 0.0
H2206 H 0.21122 0.79469 0.30412 0.0
H2207 H 0.23789 0.80886 0.33146 0.0
H2208 H 0.64184 0.76714 0.68891 0.0
H2209 H 0.6503 0.78548 0.72014 0.0
H2210 H 0.57719 0.77568 0.72228 0.0
H2211 H 0.56874 0.75783 0.69116 0.0
H2212 H 0.61334 0.82241 0.73233 0.0
H2213 H 0.62408 0.75104 0.77046 0.0
H2214 H 0.64331 0.76414 0.7503 0.0
H2215 H 0.61053 0.74576 0.74753 0.0
C2216 C 0.62753 0.76875 0.6961 0.0
C2217 C 0.6046 0.76097 0.68754 0.0
C2218 C 0.63235 0.77913 0.71397 0.0
C2219 C 0.61427 0.7817 0.7236 0.0
C2220 C 0.59139 0.77384 0.71511 0.0
H2221 H 0.58453 0.80281 0.83506 0.0
H2222 H 0.59049 0.78765 0.8053 0.0
C2223 C 0.58659 0.7636 0.69729 0.0
C2224 C 0.61909 0.79329 0.74229 0.0
H2225 H 0.62865 0.78496 0.78792 0.0
C2226 C 0.61694 0.81439 0.74447 0.0
C2227 C 0.62364 0.78266 0.75809 0.0
C2228 C 0.62536 0.75954 0.75662 0.0
C2229 C 0.61839 0.82471 0.76208 0.0
C2230 C 0.62271 0.81397 0.77794 0.0
C2231 C 0.62557 0.79327 0.77571 0.0
C2232 C 0.62177 0.8225 0.79704 0.0
C2233 C 0.61398 0.84624 0.76363 0.0
C2234 C 0.63793 0.84689 0.80259 0.0
C2235 C 0.63445 0.8556 0.81962 0.0
C2236 C 0.61506 0.83992 0.83149 0.0
C2237 C 0.59982 0.8152 0.82634 0.0
C2238 C 0.60318 0.80653 0.8093 0.0
H2239 H 0.60575 0.84883 0.75073 0.0
H2240 H 0.60157 0.8437 0.7755 0.0
H2241 H 0.63179 0.86336 0.76608 0.0
H2242 H 0.65268 0.8594 0.79348 0.0
H2243 H 0.6465 0.87477 0.82326 0.0
H2244 H 0.78156 0.56419 0.83937 0.0
H2245 H 0.81017 0.57236 0.81346 0.0
H2246 H 0.77755 0.60876 0.78363 0.0
H2247 H 0.75028 0.60207 0.80994 0.0
H2248 H 0.79951 0.55509 0.78039 0.0
H2249 H 0.84784 0.65587 0.77284 0.0
H2250 H 0.83013 0.64061 0.79338 0.0
H2251 H 0.81537 0.64453 0.77312 0.0
C2252 C 0.7813 0.57483 0.82757 0.0
C2253 C 0.7644 0.58328 0.82686 0.0
C2254 C 0.79744 0.57928 0.81271 0.0
C2255 C 0.79657 0.59185 0.79676 0.0
C2256 C 0.77938 0.59997 0.79603 0.0
H2257 H 0.80418 0.56347 0.68483 0.0
H2258 H 0.79716 0.56551 0.71788 0.0
C2259 C 0.76354 0.59584 0.81097 0.0
C2260 C 0.81128 0.59386 0.77995 0.0
H2261 H 0.8427 0.63264 0.744 0.0
C2262 C 0.80947 0.57221 0.77269 0.0
C2263 C 0.82493 0.61625 0.77003 0.0
C2264 C 0.82991 0.64064 0.77791 0.0
C2265 C 0.81904 0.57194 0.75511 0.0
C2266 C 0.82995 0.59369 0.74423 0.0
C2267 C 0.83376 0.61581 0.75214 0.0
C2268 C 0.83485 0.59311 0.72409 0.0
C2269 C 0.81668 0.54812 0.74816 0.0
C2270 C 0.85815 0.60885 0.71635 0.0
C2271 C 0.86217 0.60798 0.69721 0.0
C2272 C 0.84291 0.59133 0.68562 0.0
C2273 C 0.81953 0.57613 0.69341 0.0
C2274 C 0.81551 0.57716 0.71237 0.0
H2275 H 0.81702 0.53677 0.75993 0.0
H2276 H 0.79874 0.53725 0.74093 0.0
H2277 H 0.83168 0.55148 0.73829 0.0
H2278 H 0.87324 0.62156 0.72513 0.0
H2279 H 0.88035 0.62 0.69156 0.0
H2280 H 0.26647 0.86322 0.6844 0.0
H2281 H 0.2497 0.8523 0.71595 0.0
H2282 H 0.19675 0.77922 0.69713 0.0
H2283 H 0.21378 0.78974 0.66566 0.0
H2284 H 0.20273 0.83383 0.73194 0.0
H2285 H 0.23679 0.76739 0.73655 0.0
H2286 H 0.24564 0.78959 0.71797 0.0
H2287 H 0.21612 0.76182 0.71749 0.0
C2288 C 0.2511 0.84491 0.68695 0.0
C2289 C 0.24174 0.82713 0.67273 0.0
C2290 C 0.2415 0.83875 0.70493 0.0
C2291 C 0.22236 0.81485 0.70884 0.0
C2292 C 0.2119 0.79761 0.69439 0.0
H2293 H 0.14629 0.76038 0.8146 0.0
H2294 H 0.15675 0.77619 0.78273 0.0
C2295 C 0.22166 0.80363 0.67648 0.0
C2296 C 0.21477 0.80738 0.72826 0.0
H2297 H 0.21354 0.76853 0.76194 0.0
C2298 C 0.20503 0.81956 0.73857 0.0
C2299 C 0.21824 0.78903 0.73681 0.0
C2300 C 0.22998 0.77634 0.72672 0.0
C2301 C 0.19853 0.81372 0.75735 0.0
C2302 C 0.20154 0.795 0.76574 0.0
C2303 C 0.21122 0.78284 0.75538 0.0
C2304 C 0.19547 0.78792 0.78543 0.0
C2305 C 0.18912 0.82801 0.76813 0.0
C2306 C 0.21377 0.78922 0.79738 0.0
C2307 C 0.20779 0.77983 0.81537 0.0
C2308 C 0.18342 0.76908 0.82173 0.0
C2309 C 0.16524 0.76861 0.81001 0.0
C2310 C 0.17121 0.77779 0.79189 0.0
H2311 H 0.19381 0.84564 0.76113 0.0
H2312 H 0.16877 0.81682 0.76921 0.0
H2313 H 0.19681 0.83208 0.78246 0.0
H2314 H 0.23261 0.79699 0.7926 0.0
H2315 H 0.22221 0.78074 0.82422 0.0
H2316 H 0.42716 0.19721 0.81043 0.0
H2317 H 0.41746 0.20411 0.77911 0.0
H2318 H 0.36228 0.12729 0.77439 0.0
H2319 H 0.37233 0.11995 0.80604 0.0
H2320 H 0.39127 0.14474 0.743 0.0
H2321 H 0.35822 0.20832 0.76231 0.0
H2322 H 0.38776 0.21831 0.77262 0.0
H2323 H 0.36183 0.18903 0.77923 0.0
C2324 C 0.41286 0.18168 0.80287 0.0
C2325 C 0.40044 0.15801 0.81081 0.0
C2326 C 0.40719 0.18574 0.78496 0.0
C2327 C 0.38872 0.16637 0.77458 0.0
C2328 C 0.37641 0.14256 0.78227 0.0
H2329 H 0.36915 0.22877 0.67121 0.0
H2330 H 0.35655 0.20172 0.69857 0.0
C2331 C 0.38218 0.13841 0.80032 0.0
C2332 C 0.38344 0.17137 0.75545 0.0
H2333 H 0.37593 0.21393 0.73124 0.0
C2334 C 0.38733 0.15947 0.74037 0.0
C2335 C 0.37753 0.19004 0.75196 0.0
C2336 C 0.37081 0.20192 0.76742 0.0
C2337 C 0.38769 0.16732 0.72198 0.0
C2338 C 0.38481 0.18803 0.71872 0.0
C2339 C 0.37868 0.19839 0.73368 0.0
C2340 C 0.39063 0.20096 0.70048 0.0
C2341 C 0.39157 0.15363 0.70628 0.0
C2342 C 0.41388 0.20941 0.69234 0.0
C2343 C 0.42097 0.22465 0.67667 0.0
C2344 C 0.40508 0.23195 0.66895 0.0
C2345 C 0.38169 0.22325 0.67686 0.0
C2346 C 0.37447 0.20777 0.69244 0.0
H2347 H 0.38397 0.13389 0.70987 0.0
H2348 H 0.38276 0.15486 0.69322 0.0
H2349 H 0.41161 0.16167 0.70377 0.0
H2350 H 0.42707 0.20523 0.69861 0.0
H2351 H 0.4393 0.23159 0.67109 0.0
H2352 H 0.23791 0.37664 0.80859 0.0
H2353 H 0.22378 0.37403 0.77632 0.0
H2354 H 0.23672 0.44827 0.7802 0.0
H2355 H 0.25044 0.45096 0.81226 0.0
H2356 H 0.18989 0.41391 0.76716 0.0
H2357 H 0.26397 0.40817 0.7287 0.0
H2358 H 0.24923 0.3865 0.74737 0.0
H2359 H 0.26762 0.41874 0.75252 0.0
C2360 C 0.23792 0.39246 0.80249 0.0
C2361 C 0.24526 0.41399 0.81299 0.0
C2362 C 0.22997 0.39097 0.78405 0.0
C2363 C 0.22942 0.41104 0.77587 0.0
C2364 C 0.23705 0.4326 0.78627 0.0
H2365 H 0.21551 0.45721 0.66707 0.0
H2366 H 0.22946 0.44841 0.69648 0.0
C2367 C 0.24489 0.43408 0.80461 0.0
C2368 C 0.21969 0.40952 0.75685 0.0
H2369 H 0.23209 0.40747 0.71076 0.0
C2370 C 0.19895 0.41227 0.75481 0.0
C2371 C 0.23173 0.40755 0.74084 0.0
C2372 C 0.25449 0.40524 0.74233 0.0
C2373 C 0.19026 0.41379 0.73718 0.0
C2374 C 0.20235 0.41196 0.72113 0.0
C2375 C 0.2228 0.40867 0.72313 0.0
C2376 C 0.19493 0.41519 0.70225 0.0
C2377 C 0.16887 0.41843 0.73592 0.0
C2378 C 0.17118 0.39903 0.69555 0.0
C2379 C 0.16315 0.40412 0.67886 0.0
C2380 C 0.17893 0.42521 0.66849 0.0
C2381 C 0.20309 0.44072 0.67476 0.0
C2382 C 0.21106 0.43571 0.69151 0.0
H2383 H 0.16526 0.42474 0.74941 0.0
H2384 H 0.17231 0.43251 0.72514 0.0
H2385 H 0.15201 0.40109 0.73196 0.0
H2386 H 0.1586 0.3829 0.70351 0.0
H2387 H 0.14446 0.39182 0.67427 0.0
H2388 H 0.87431 0.23649 0.80891 0.0
H2389 H 0.8648 0.216 0.77843 0.0
H2390 H 0.79708 0.21798 0.77641 0.0
H2391 H 0.80622 0.23816 0.80672 0.0
H2392 H 0.79276 0.17105 0.76794 0.0
H2393 H 0.86639 0.24877 0.72728 0.0
H2394 H 0.87524 0.23913 0.74809 0.0
H2395 H 0.85657 0.25331 0.74986 0.0
C2396 C 0.85744 0.23263 0.80193 0.0
C2397 C 0.84108 0.23908 0.81019 0.0
C2398 C 0.85209 0.221 0.78452 0.0
C2399 C 0.83034 0.21568 0.77516 0.0
C2400 C 0.81398 0.22197 0.78343 0.0
H2401 H 0.76758 0.18868 0.6694 0.0
H2402 H 0.79059 0.20453 0.69841 0.0
C2403 C 0.8193 0.23359 0.80074 0.0
C2404 C 0.82413 0.20336 0.7568 0.0
H2405 H 0.8379 0.21387 0.71051 0.0
C2406 C 0.80283 0.18015 0.75538 0.0
C2407 C 0.83735 0.21544 0.74052 0.0
C2408 C 0.86011 0.2406 0.74134 0.0
C2409 C 0.79367 0.16916 0.738 0.0
C2410 C 0.8064 0.18162 0.72165 0.0
C2411 C 0.82834 0.20433 0.72312 0.0
C2412 C 0.7954 0.17305 0.70299 0.0
C2413 C 0.76964 0.14504 0.73721 0.0
C2414 C 0.79093 0.15035 0.69577 0.0
C2415 C 0.77793 0.14142 0.67906 0.0
C2416 C 0.76958 0.15527 0.6693 0.0
C2417 C 0.77464 0.17818 0.67635 0.0
C2418 C 0.78758 0.1871 0.69297 0.0
H2419 H 0.7603 0.13977 0.75097 0.0
H2420 H 0.75695 0.14615 0.72698 0.0
H2421 H 0.77321 0.1302 0.73262 0.0
H2422 H 0.79698 0.13932 0.70326 0.0
H2423 H 0.77407 0.12357 0.67393 0.0
H2424 H 0.44716 0.0585 0.09753 0.0
H2425 H 0.44536 0.0184 0.09563 0.0
H2426 H 0.48885 0.03556 0.14575 0.0
H2427 H 0.4905 0.07526 0.14775 0.0
H2428 H 0.4882 0.01396 0.0925 0.0
H2429 H 0.4335 0.96458 0.1547 0.0
H2430 H 0.43287 0.99073 0.14472 0.0
H2431 H 0.45771 0.99529 0.15982 0.0
C2432 C 0.45571 0.05332 0.10838 0.0
C2433 C 0.46896 0.06986 0.12278 0.0
C2434 C 0.45482 0.03056 0.10722 0.0
C2435 C 0.46681 0.02397 0.12063 0.0
C2436 C 0.47913 0.04009 0.13544 0.0
H2437 H 0.51259 0.91933 0.1435 0.0
H2438 H 0.50656 0.95488 0.14122 0.0
C2439 C 0.48016 0.06279 0.13652 0.0
C2440 C 0.4686 0.00142 0.11847 0.0
H2441 H 0.45916 0.94998 0.14179 0.0
C2442 C 0.4815 0.9997 0.10308 0.0
C2443 C 0.45992 0.98298 0.13236 0.0
C2444 C 0.44502 0.98331 0.14874 0.0
C2445 C 0.48699 0.9806 0.10169 0.0
C2446 C 0.47908 0.96267 0.11594 0.0
C2447 C 0.46543 0.96393 0.13098 0.0
C2448 C 0.48512 0.94265 0.11585 0.0
C2449 C 0.5021 0.98032 0.08542 0.0
C2450 C 0.47555 0.92432 0.10208 0.0
C2451 C 0.47918 0.90408 0.10325 0.0
C2452 C 0.4923 0.90177 0.11827 0.0
C2453 C 0.50272 0.92072 0.13161 0.0
C2454 C 0.49908 0.94092 0.13043 0.0
H2455 H 0.51116 0.99819 0.07786 0.0
H2456 H 0.51646 0.97611 0.09016 0.0
H2457 H 0.4899 0.96572 0.07548 0.0
H2458 H 0.46448 0.92516 0.09084 0.0
H2459 H 0.47102 0.88983 0.09272 0.0
H2460 H 0.56626 0.49928 0.12971 0.0
H2461 H 0.5301 0.5039 0.12597 0.0
H2462 H 0.56376 0.55109 0.07841 0.0
H2463 H 0.60004 0.54607 0.08187 0.0
H2464 H 0.52568 0.54667 0.12547 0.0
H2465 H 0.4971 0.49493 0.05843 0.0
H2466 H 0.51972 0.49421 0.07356 0.0
H2467 H 0.52782 0.52096 0.05961 0.0
C2468 C 0.56598 0.51067 0.11846 0.0
C2469 C 0.58576 0.52205 0.10591 0.0
C2470 C 0.54539 0.51338 0.1164 0.0
C2471 C 0.54414 0.52749 0.10175 0.0
C2472 C 0.56428 0.53979 0.08963 0.0
H2473 H 0.41418 0.54023 0.07589 0.0
H2474 H 0.45536 0.54482 0.07441 0.0
C2475 C 0.58502 0.53711 0.09171 0.0
C2476 C 0.52127 0.52847 0.09914 0.0
H2477 H 0.47036 0.50707 0.07142 0.0
C2478 C 0.5137 0.53827 0.11356 0.0
C2479 C 0.50574 0.51747 0.08356 0.0
C2480 C 0.5128 0.50612 0.06792 0.0
C2481 C 0.49067 0.53679 0.11308 0.0
C2482 C 0.47473 0.52489 0.0979 0.0
C2483 C 0.48267 0.51602 0.08307 0.0
C2484 C 0.44933 0.52056 0.09771 0.0
C2485 C 0.48338 0.54764 0.12894 0.0
C2486 C 0.4322 0.50478 0.1109 0.0
C2487 C 0.40875 0.50209 0.11177 0.0
C2488 C 0.40208 0.51517 0.09944 0.0
C2489 C 0.41895 0.53013 0.08569 0.0
C2490 C 0.44239 0.53273 0.08479 0.0
H2491 H 0.49965 0.56121 0.13704 0.0
H2492 H 0.47332 0.55682 0.1237 0.0
H2493 H 0.47097 0.53264 0.13853 0.0
H2494 H 0.4372 0.495 0.12083 0.0
H2495 H 0.39624 0.49061 0.1226 0.0
H2496 H 0.93201 0.39976 0.12925 0.0
H2497 H 0.9713 0.43851 0.13237 0.0
H2498 H 0.95766 0.46395 0.08031 0.0
H2499 H 0.91819 0.42558 0.07742 0.0
H2500 H 0.01397 0.46585 0.11118 0.0
H2501 H 0.96051 0.51419 0.11794 0.0
H2502 H 0.94622 0.48107 0.11851 0.0
H2503 H 0.95479 0.4972 0.09662 0.0
C2504 C 0.93781 0.41337 0.11825 0.0
C2505 C 0.92215 0.4099 0.10317 0.0
C2506 C 0.96014 0.43551 0.12008 0.0
C2507 C 0.96702 0.45432 0.10681 0.0
C2508 C 0.95237 0.44991 0.09092 0.0
H2509 H 0.1068 0.59249 0.10316 0.0
H2510 H 0.07114 0.55213 0.09616 0.0
C2511 C 0.92999 0.42796 0.0892 0.0
C2512 C 0.98834 0.47919 0.11031 0.0
H2513 H 0.00389 0.5393 0.11653 0.0
C2514 C 0.01183 0.48194 0.11235 0.0
C2515 C 0.98535 0.50005 0.11221 0.0
C2516 C 0.96034 0.49803 0.1114 0.0
C2517 C 0.03252 0.5051 0.11595 0.0
C2518 C 0.02965 0.52609 0.11716 0.0
C2519 C 0.0061 0.52325 0.11537 0.0
C2520 C 0.05071 0.5511 0.12078 0.0
C2521 C 0.05714 0.50675 0.11889 0.0
C2522 C 0.05055 0.56445 0.13645 0.0
C2523 C 0.07074 0.58765 0.14034 0.0
C2524 C 0.09146 0.59788 0.12862 0.0
C2525 C 0.09119 0.58488 0.11256 0.0
C2526 C 0.07093 0.56177 0.10862 0.0
H2527 H 0.05503 0.48857 0.12258 0.0
H2528 H 0.06797 0.51308 0.1058 0.0
H2529 H 0.06777 0.52013 0.13007 0.0
H2530 H 0.03504 0.55662 0.14595 0.0
H2531 H 0.07053 0.59715 0.15288 0.0
H2532 H 0.08261 0.49926 0.40596 0.0
H2533 H 0.04405 0.50011 0.40731 0.0
H2534 H 0.02239 0.46289 0.35429 0.0
H2535 H 0.06094 0.46195 0.35288 0.0
H2536 H 0.03197 0.52483 0.38129 0.0
H2537 H 0.95917 0.42642 0.38508 0.0
H2538 H 0.99106 0.43682 0.39031 0.0
H2539 H 0.98089 0.43336 0.36652 0.0
C2540 C 0.06937 0.49079 0.39478 0.0
C2541 C 0.0748 0.48059 0.37928 0.0
C2542 C 0.04739 0.49132 0.39556 0.0
C2543 C 0.03032 0.48153 0.38093 0.0
C2544 C 0.0351 0.47019 0.36588 0.0
H2545 H 0.92248 0.52182 0.34713 0.0
H2546 H 0.95928 0.51807 0.35083 0.0
C2547 C 0.05712 0.46961 0.36511 0.0
C2548 C 0.0088 0.48533 0.38062 0.0
H2549 H 0.94604 0.45529 0.37822 0.0
C2550 C 0.01317 0.50962 0.38074 0.0
C2551 C 0.9843 0.46548 0.38003 0.0
C2552 C 0.97847 0.43904 0.38065 0.0
C2553 C 0.99371 0.51461 0.37996 0.0
C2554 C 0.96926 0.49478 0.37877 0.0
C2555 C 0.96484 0.47048 0.379 0.0
C2556 C 0.94794 0.4988 0.3772 0.0
C2557 C 0.99949 0.54104 0.3806 0.0
C2558 C 0.92942 0.48932 0.39081 0.0
C2559 C 0.90845 0.49152 0.38876 0.0
C2560 C 0.90547 0.50308 0.37297 0.0
C2561 C 0.92439 0.51319 0.3596 0.0
C2562 C 0.94539 0.51098 0.36167 0.0
H2563 H 0.01816 0.55346 0.38632 0.0
H2564 H 0.99883 0.54729 0.36626 0.0
H2565 H 0.98578 0.5429 0.38919 0.0
H2566 H 0.93106 0.47991 0.40292 0.0
H2567 H 0.89429 0.48374 0.39938 0.0
H2568 H 0.59431 0.11414 0.41293 0.0
H2569 H 0.55462 0.07717 0.41921 0.0
H2570 H 0.56162 0.04414 0.36854 0.0
H2571 H 0.60141 0.0809 0.36234 0.0
H2572 H 0.51411 0.06038 0.39757 0.0
H2573 H 0.53924 0.98775 0.40488 0.0
H2574 H 0.56185 0.02016 0.40568 0.0
H2575 H 0.55061 0.00486 0.38364 0.0
C2576 C 0.58757 0.09876 0.40334 0.0
C2577 C 0.60095 0.10034 0.38717 0.0
C2578 C 0.5649 0.0777 0.40692 0.0
C2579 C 0.55521 0.05782 0.39442 0.0
C2580 C 0.56896 0.05901 0.3786 0.0
H2581 H 0.40444 0.94823 0.37208 0.0
H2582 H 0.44392 0.98674 0.37457 0.0
C2583 C 0.59172 0.08002 0.37507 0.0
C2584 C 0.52993 0.03674 0.39713 0.0
H2585 H 0.49665 0.97401 0.39939 0.0
C2586 C 0.5103 0.04149 0.39819 0.0
C2587 C 0.52498 0.01215 0.39815 0.0
C2588 C 0.54532 0.00591 0.39822 0.0
C2589 C 0.48579 0.02226 0.39967 0.0
C2590 C 0.48077 0.9976 0.39972 0.0
C2591 C 0.50047 0.99291 0.39922 0.0
C2592 C 0.45531 0.97623 0.3998 0.0
C2593 C 0.46558 0.02856 0.40127 0.0
C2594 C 0.44841 0.95768 0.41326 0.0
C2595 C 0.42605 0.93567 0.41173 0.0
C2596 C 0.41011 0.93184 0.39674 0.0
C2597 C 0.41625 0.95095 0.38391 0.0
C2598 C 0.4388 0.97293 0.38535 0.0
H2599 H 0.47267 0.04743 0.40693 0.0
H2600 H 0.45791 0.02794 0.38723 0.0
H2601 H 0.45043 0.01525 0.41038 0.0
H2602 H 0.46083 0.95981 0.42453 0.0
H2603 H 0.4217 0.92112 0.42175 0.0
H2604 H 0.51405 0.40939 0.41383 0.0
H2605 H 0.51803 0.44954 0.42063 0.0
H2606 H 0.48016 0.44552 0.36945 0.0
H2607 H 0.47609 0.40546 0.3626 0.0
H2608 H 0.54273 0.49155 0.39954 0.0
H2609 H 0.44474 0.46549 0.40684 0.0
H2610 H 0.4548 0.44307 0.40731 0.0
H2611 H 0.45086 0.45473 0.38544 0.0
C2612 C 0.50631 0.41696 0.40415 0.0
C2613 C 0.49467 0.40423 0.38771 0.0
C2614 C 0.5086 0.43987 0.40805 0.0
C2615 C 0.49919 0.45041 0.39564 0.0
C2616 C 0.48708 0.43749 0.37943 0.0
H2617 H 0.53908 0.60074 0.37501 0.0
H2618 H 0.53868 0.56156 0.37745 0.0
C2619 C 0.48472 0.41456 0.37554 0.0
C2620 C 0.50328 0.47552 0.39901 0.0
H2621 H 0.47342 0.5083 0.40208 0.0
C2622 C 0.52758 0.49523 0.40033 0.0
C2623 C 0.48352 0.48023 0.40029 0.0
C2624 C 0.45701 0.45973 0.40009 0.0
C2625 C 0.53266 0.51965 0.40221 0.0
C2626 C 0.51291 0.52447 0.40244 0.0
C2627 C 0.4886 0.50465 0.40178 0.0
C2628 C 0.51676 0.54984 0.40267 0.0
C2629 C 0.5591 0.53999 0.40395 0.0
C2630 C 0.50487 0.55645 0.41613 0.0
C2631 C 0.50487 0.57866 0.41462 0.0
C2632 C 0.51683 0.5947 0.39965 0.0
C2633 C 0.53004 0.58884 0.38683 0.0
C2634 C 0.52983 0.56647 0.38824 0.0
H2635 H 0.57093 0.53294 0.40955 0.0
H2636 H 0.56621 0.54786 0.38995 0.0
H2637 H 0.56078 0.555 0.41316 0.0
H2638 H 0.49467 0.54393 0.42737 0.0
H2639 H 0.49458 0.58282 0.42468 0.0
H2640 H 0.53279 0.112 0.89442 0.0
H2641 H 0.53926 0.07685 0.89842 0.0
H2642 H 0.49183 0.04062 0.8515 0.0
H2643 H 0.48587 0.076 0.84704 0.0
H2644 H 0.50706 0.02642 0.90409 0.0
H2645 H 0.55662 0.0438 0.83684 0.0
H2646 H 0.55016 0.06604 0.84754 0.0
H2647 H 0.52657 0.04046 0.83471 0.0
C2648 C 0.52364 0.09648 0.88501 0.0
C2649 C 0.50903 0.0969 0.87028 0.0
C2650 C 0.52731 0.07641 0.88735 0.0
C2651 C 0.51651 0.05643 0.87498 0.0
C2652 C 0.50078 0.05614 0.86094 0.0
H2653 H 0.50405 0.91682 0.85855 0.0
H2654 H 0.50525 0.95635 0.85711 0.0
C2655 C 0.49711 0.07621 0.85857 0.0
C2656 C 0.52217 0.03619 0.87645 0.0
H2657 H 0.54542 0.0057 0.8519 0.0
C2658 C 0.51569 0.02202 0.89279 0.0
C2659 C 0.5337 0.03072 0.86173 0.0
C2660 C 0.5424 0.04619 0.84428 0.0
C2661 C 0.51935 0.00174 0.89445 0.0
C2662 C 0.53008 0.99576 0.87947 0.0
C2663 C 0.53725 0.01039 0.86336 0.0
C2664 C 0.53166 0.97296 0.87947 0.0
C2665 C 0.51074 0.98619 0.91187 0.0
C2666 C 0.54678 0.96952 0.89213 0.0
C2667 C 0.5462 0.94687 0.89292 0.0
C2668 C 0.53037 0.92746 0.88114 0.0
C2669 C 0.51623 0.93145 0.8679 0.0
C2670 C 0.51692 0.954 0.86705 0.0
H2671 H 0.49942 0.99108 0.9209 0.0
H2672 H 0.49973 0.96634 0.90823 0.0
H2673 H 0.52698 0.98896 0.91999 0.0
H2674 H 0.55855 0.98411 0.90165 0.0
H2675 H 0.55723 0.94418 0.90324 0.0
H2676 H 0.40559 0.49718 0.91835 0.0
H2677 H 0.44313 0.49492 0.92323 0.0
H2678 H 0.43088 0.45635 0.87109 0.0
H2679 H 0.39353 0.45873 0.866 0.0
H2680 H 0.45317 0.451 0.92061 0.0
H2681 H 0.49879 0.5261 0.86826 0.0
H2682 H 0.47114 0.52009 0.88048 0.0
H2683 H 0.46946 0.5003 0.86178 0.0
C2684 C 0.41066 0.48779 0.90812 0.0
C2685 C 0.39675 0.47828 0.89173 0.0
C2686 C 0.43202 0.48646 0.91096 0.0
C2687 C 0.43978 0.47572 0.89741 0.0
C2688 C 0.42512 0.46479 0.88165 0.0
H2689 H 0.55533 0.44274 0.88558 0.0
H2690 H 0.51669 0.44224 0.89062 0.0
C2691 C 0.40372 0.466 0.87883 0.0
C2692 C 0.46434 0.47805 0.89879 0.0
H2693 H 0.52147 0.50773 0.87905 0.0
C2694 C 0.46819 0.46347 0.91163 0.0
C2695 C 0.48392 0.49469 0.88728 0.0
C2696 C 0.48083 0.51138 0.87373 0.0
C2697 C 0.49104 0.46447 0.91276 0.0
C2698 C 0.5103 0.48033 0.90064 0.0
C2699 C 0.50665 0.49556 0.8883 0.0
C2700 C 0.53382 0.48025 0.89954 0.0
C2701 C 0.49437 0.4485 0.92683 0.0
C2702 C 0.55634 0.50192 0.90269 0.0
C2703 C 0.5786 0.50227 0.89991 0.0
C2704 C 0.57868 0.48099 0.89376 0.0
C2705 C 0.556 0.45929 0.89078 0.0
C2706 C 0.53384 0.45895 0.89365 0.0
H2707 H 0.48085 0.44304 0.9384 0.0
H2708 H 0.4915 0.43144 0.91988 0.0
H2709 H 0.51326 0.45814 0.93276 0.0
H2710 H 0.55667 0.51862 0.90709 0.0
H2711 H 0.59573 0.51922 0.90241 0.0
H2712 H 0.10753 0.58685 0.90487 0.0
H2713 H 0.06979 0.5466 0.90502 0.0
H2714 H 0.048 0.56402 0.8528 0.0
H2715 H 0.0856 0.60445 0.8527 0.0
H2716 H 0.00929 0.54044 0.87686 0.0
H2717 H 0.06086 0.49003 0.87199 0.0
H2718 H 0.06926 0.51018 0.89177 0.0
H2719 H 0.07534 0.52291 0.86863 0.0
C2720 C 0.09456 0.58216 0.89351 0.0
C2721 C 0.09959 0.59872 0.87871 0.0
C2722 C 0.07311 0.55911 0.89355 0.0
C2723 C 0.05641 0.55204 0.87867 0.0
C2724 C 0.06075 0.56902 0.86435 0.0
H2725 H 0.94367 0.4047 0.84599 0.0
H2726 H 0.9819 0.44429 0.84962 0.0
C2727 C 0.08215 0.59217 0.86436 0.0
C2728 C 0.03468 0.5268 0.87783 0.0
H2729 H 0.0177 0.46577 0.87674 0.0
C2730 C 0.01112 0.52411 0.87684 0.0
C2731 C 0.03713 0.50552 0.87746 0.0
C2732 C 0.06201 0.50722 0.87733 0.0
C2733 C 0.98992 0.50074 0.87573 0.0
C2734 C 0.99231 0.47942 0.87605 0.0
C2735 C 0.01589 0.48211 0.87677 0.0
C2736 C 0.97052 0.45424 0.8751 0.0
C2737 C 0.96519 0.49915 0.87376 0.0
C2738 C 0.95198 0.44621 0.88867 0.0
C2739 C 0.93019 0.42371 0.8866 0.0
C2740 C 0.92668 0.40864 0.87105 0.0
C2741 C 0.94596 0.41588 0.85816 0.0
C2742 C 0.96772 0.43853 0.86017 0.0
H2743 H 0.96706 0.51677 0.86873 0.0
H2744 H 0.95313 0.48424 0.86396 0.0
H2745 H 0.95599 0.49502 0.88756 0.0
H2746 H 0.95404 0.45772 0.90057 0.0
H2747 H 0.91571 0.41842 0.89684 0.0
H2748 H 0.93749 0.53779 0.62642 0.0
H2749 H 0.97471 0.53618 0.61907 0.0
H2750 H 0.93919 0.49211 0.57047 0.0
H2751 H 0.90182 0.49361 0.5778 0.0
H2752 H 0.95823 0.4708 0.59333 0.0
H2753 H 0.02834 0.56818 0.57988 0.0
H2754 H 0.01231 0.56415 0.60146 0.0
H2755 H 0.99572 0.55746 0.57981 0.0
C2756 C 0.93789 0.52847 0.61383 0.0
C2757 C 0.91675 0.51583 0.60268 0.0
C2758 C 0.95917 0.52751 0.60966 0.0
C2759 C 0.95977 0.51412 0.59417 0.0
C2760 C 0.9391 0.50253 0.5825 0.0
H2761 H 0.096 0.51665 0.56564 0.0
H2762 H 0.05678 0.516 0.56287 0.0
C2763 C 0.91781 0.50343 0.58667 0.0
C2764 C 0.98101 0.51027 0.59123 0.0
H2765 H 0.0435 0.54072 0.58673 0.0
C2766 C 0.97686 0.48607 0.59164 0.0
C2767 C 0.00523 0.53015 0.58884 0.0
C2768 C 0.01068 0.55643 0.58728 0.0
C2769 C 0.99642 0.48127 0.59039 0.0
C2770 C 0.02078 0.50125 0.58901 0.0
C2771 C 0.02482 0.52539 0.58793 0.0
C2772 C 0.04252 0.49781 0.58931 0.0
C2773 C 0.99081 0.45489 0.59058 0.0
C2774 C 0.04721 0.4871 0.60484 0.0
C2775 C 0.06954 0.48728 0.60637 0.0
C2776 C 0.08763 0.49848 0.59252 0.0
C2777 C 0.08236 0.50798 0.57654 0.0
C2778 C 0.06002 0.50766 0.57496 0.0
H2779 H 0.97167 0.44206 0.58591 0.0
H2780 H 0.00374 0.45238 0.5815 0.0
H2781 H 0.99272 0.44972 0.60501 0.0
H2782 H 0.03419 0.47983 0.61625 0.0
H2783 H 0.0733 0.48017 0.61894 0.0
H2784 H 0.59008 0.07029 0.57787 0.0
H2785 H 0.55227 0.03008 0.57666 0.0
H2786 H 0.57115 0.01044 0.62923 0.0
H2787 H 0.60936 0.0504 0.63018 0.0
H2788 H 0.54837 0.9708 0.60533 0.0
H2789 H 0.49592 0.02044 0.61006 0.0
H2790 H 0.51573 0.02871 0.59011 0.0
H2791 H 0.52884 0.03572 0.61312 0.0
C2792 C 0.58638 0.0571 0.58892 0.0
C2793 C 0.60243 0.0634 0.60419 0.0
C2794 C 0.56475 0.03427 0.5883 0.0
C2795 C 0.55859 0.0176 0.60311 0.0
C2796 C 0.57549 0.02313 0.61771 0.0
H2797 H 0.41497 0.90967 0.64199 0.0
H2798 H 0.45525 0.94579 0.63597 0.0
C2799 C 0.59732 0.04589 0.61823 0.0
C2800 C 0.53378 0.9954 0.6042 0.0
H2801 H 0.47266 0.97721 0.60699 0.0
C2802 C 0.53178 0.97213 0.60562 0.0
C2803 C 0.51221 0.99729 0.60491 0.0
C2804 C 0.51319 0.02188 0.60465 0.0
C2805 C 0.50877 0.95067 0.60776 0.0
C2806 C 0.48718 0.95255 0.60807 0.0
C2807 C 0.48921 0.97581 0.60655 0.0
C2808 C 0.46239 0.93084 0.61109 0.0
C2809 C 0.50789 0.92634 0.61033 0.0
C2810 C 0.45276 0.91068 0.59884 0.0
C2811 C 0.42974 0.88997 0.60228 0.0
C2812 C 0.41582 0.88924 0.61789 0.0
C2813 C 0.42514 0.90981 0.62974 0.0
C2814 C 0.44821 0.9304 0.62638 0.0
H2815 H 0.52609 0.92889 0.61447 0.0
H2816 H 0.49413 0.91494 0.62108 0.0
H2817 H 0.50249 0.91602 0.59699 0.0
H2818 H 0.46308 0.9109 0.58667 0.0
H2819 H 0.42285 0.87447 0.5928 0.0
H2820 H 0.5037 0.41631 0.57979 0.0
H2821 H 0.50381 0.45541 0.58084 0.0
H2822 H 0.46551 0.43458 0.63345 0.0
H2823 H 0.46513 0.39521 0.63236 0.0
H2824 H 0.45086 0.4615 0.60886 0.0
H2825 H 0.55215 0.50695 0.61857 0.0
H2826 H 0.54085 0.48812 0.59806 0.0
H2827 H 0.53214 0.47407 0.62068 0.0
C2828 C 0.49476 0.41984 0.59134 0.0
C2829 C 0.4846 0.40292 0.60609 0.0
C2830 C 0.49495 0.44219 0.59197 0.0
C2831 C 0.48521 0.44807 0.60743 0.0
C2832 C 0.47326 0.4304 0.62146 0.0
H2833 H 0.52665 0.59499 0.64608 0.0
H2834 H 0.51979 0.55318 0.64229 0.0
C2835 C 0.47293 0.4079 0.62078 0.0
C2836 C 0.48951 0.47341 0.60972 0.0
H2837 H 0.53539 0.53316 0.61487 0.0
C2838 C 0.4693 0.4772 0.61018 0.0
C2839 C 0.51361 0.49375 0.61179 0.0
C2840 C 0.53595 0.4906 0.61244 0.0
C2841 C 0.4726 0.50097 0.61228 0.0
C2842 C 0.49677 0.5214 0.61369 0.0
C2843 C 0.51692 0.5175 0.61358 0.0
C2844 C 0.50159 0.54698 0.61559 0.0
C2845 C 0.4502 0.50395 0.61331 0.0
C2846 C 0.4943 0.55759 0.60158 0.0
C2847 C 0.49832 0.58149 0.60366 0.0
C2848 C 0.50987 0.5953 0.61974 0.0
C2849 C 0.51794 0.58493 0.63346 0.0
C2850 C 0.51386 0.56099 0.63138 0.0
H2851 H 0.43334 0.48633 0.61686 0.0
H2852 H 0.45275 0.51804 0.62382 0.0
H2853 H 0.44722 0.51011 0.59955 0.0
H2854 H 0.4854 0.54734 0.58906 0.0
H2855 H 0.49222 0.58913 0.59273 0.0
H2856 H 0.73898 0.26653 0.0981 0.0
H2857 H 0.69796 0.26237 0.09904 0.0
H2858 H 0.67854 0.21254 0.1456 0.0
H2859 H 0.71925 0.21668 0.14487 0.0
H2860 H 0.65542 0.21796 0.09357 0.0
H2861 H 0.6511 0.25634 0.16174 0.0
H2862 H 0.6799 0.26341 0.15086 0.0
H2863 H 0.66262 0.23541 0.16403 0.0
C2864 C 0.72612 0.25508 0.10876 0.0
C2865 C 0.73228 0.2418 0.12134 0.0
C2866 C 0.70274 0.25277 0.10929 0.0
C2867 C 0.68537 0.23747 0.12257 0.0
C2868 C 0.69185 0.22493 0.13553 0.0
H2869 H 0.53986 0.14223 0.14618 0.0
H2870 H 0.58383 0.17212 0.14518 0.0
C2871 C 0.71507 0.22711 0.13495 0.0
C2872 C 0.65947 0.23178 0.12156 0.0
H2873 H 0.61195 0.22431 0.14918 0.0
C2874 C 0.64595 0.21998 0.1055 0.0
C2875 C 0.64726 0.23453 0.13714 0.0
C2876 C 0.66106 0.24836 0.15434 0.0
C2877 C 0.62021 0.20883 0.10521 0.0
C2878 C 0.60781 0.20995 0.12133 0.0
C2879 C 0.62151 0.2234 0.13688 0.0
C2880 C 0.58082 0.19421 0.12328 0.0
C2881 C 0.60638 0.19429 0.08822 0.0
C2882 C 0.56448 0.19715 0.11166 0.0
C2883 C 0.53927 0.17989 0.11208 0.0
C2884 C 0.53014 0.1595 0.12415 0.0
C2885 C 0.54643 0.15747 0.13648 0.0
C2886 C 0.57152 0.17466 0.13604 0.0
H2887 H 0.61865 0.19252 0.07794 0.0
H2888 H 0.59167 0.17553 0.09228 0.0
H2889 H 0.59749 0.20367 0.08129 0.0
H2890 H 0.5713 0.21233 0.10189 0.0
H2891 H 0.52713 0.18192 0.10243 0.0
H2892 H 0.33733 0.55297 0.13411 0.0
H2893 H 0.34521 0.59478 0.14001 0.0
H2894 H 0.38808 0.61976 0.0895 0.0
H2895 H 0.37964 0.57799 0.08326 0.0
H2896 H 0.39167 0.63093 0.14623 0.0
H2897 H 0.35405 0.66015 0.0887 0.0
H2898 H 0.34315 0.62806 0.09381 0.0
H2899 H 0.37025 0.64556 0.0797 0.0
C2900 C 0.34765 0.5672 0.12391 0.0
C2901 C 0.35805 0.56226 0.10829 0.0
C2902 C 0.35219 0.5911 0.12734 0.0
C2903 C 0.36703 0.61039 0.11512 0.0
C2904 C 0.37611 0.60513 0.09893 0.0
H2905 H 0.48224 0.74696 0.10458 0.0
H2906 H 0.44327 0.70864 0.10191 0.0
C2907 C 0.3716 0.5813 0.09551 0.0
C2908 C 0.37697 0.63645 0.12076 0.0
H2909 H 0.39243 0.69273 0.10267 0.0
C2910 C 0.39118 0.64445 0.13706 0.0
C2911 C 0.37617 0.65401 0.10886 0.0
C2912 C 0.35983 0.64643 0.0919 0.0
C2913 C 0.40678 0.66959 0.1407 0.0
C2914 C 0.40781 0.68719 0.12781 0.0
C2915 C 0.39176 0.67922 0.11247 0.0
C2916 C 0.42862 0.7129 0.12805 0.0
C2917 C 0.42375 0.67697 0.15735 0.0
C2918 C 0.4329 0.72864 0.14327 0.0
C2919 C 0.4555 0.75057 0.14499 0.0
C2920 C 0.47395 0.7571 0.13142 0.0
C2921 C 0.46862 0.74234 0.11544 0.0
C2922 C 0.44622 0.72045 0.11381 0.0
H2923 H 0.42248 0.66079 0.16474 0.0
H2924 H 0.44315 0.68915 0.15297 0.0
H2925 H 0.41886 0.68734 0.16736 0.0
H2926 H 0.41931 0.7234 0.15423 0.0
H2927 H 0.45886 0.76184 0.15729 0.0
H2928 H 0.7262 0.48963 0.09323 0.0
H2929 H 0.73103 0.45315 0.09233 0.0
H2930 H 0.78552 0.48422 0.13592 0.0
H2931 H 0.78066 0.52038 0.13706 0.0
H2932 H 0.7743 0.4547 0.0834 0.0
H2933 H 0.74413 0.41337 0.15314 0.0
H2934 H 0.73605 0.43512 0.14366 0.0
H2935 H 0.76546 0.4458 0.15474 0.0
C2936 C 0.73886 0.48845 0.10287 0.0
C2937 C 0.75313 0.50795 0.11517 0.0
C2938 C 0.74157 0.4676 0.10234 0.0
C2939 C 0.75834 0.4658 0.11426 0.0
C2940 C 0.77201 0.48491 0.12692 0.0
H2941 H 0.85495 0.41444 0.12806 0.0
H2942 H 0.82621 0.42994 0.12932 0.0
C2943 C 0.76938 0.50572 0.12742 0.0
C2944 C 0.76396 0.4456 0.11215 0.0
H2945 H 0.7743 0.40575 0.1377 0.0
C2946 C 0.77366 0.44343 0.09509 0.0
C2947 C 0.76298 0.43086 0.12741 0.0
C2948 C 0.75133 0.43122 0.1457 0.0
C2949 C 0.78441 0.42854 0.09337 0.0
C2950 C 0.78514 0.41529 0.10907 0.0
C2951 C 0.77381 0.41604 0.12572 0.0
C2952 C 0.80077 0.40378 0.1093 0.0
C2953 C 0.79658 0.42857 0.07521 0.0
C2954 C 0.79569 0.38357 0.0979 0.0
C2955 C 0.81224 0.37473 0.09706 0.0
C2956 C 0.8341 0.3861 0.10757 0.0
C2957 C 0.83851 0.40564 0.11953 0.0
C2958 C 0.82201 0.41437 0.12039 0.0
H2959 H 0.79682 0.4421 0.06509 0.0
H2960 H 0.81582 0.43292 0.07771 0.0
H2961 H 0.78645 0.40998 0.06882 0.0
H2962 H 0.77923 0.375 0.08938 0.0
H2963 H 0.80838 0.3596 0.08776 0.0
H2964 H 0.26179 0.75059 0.17939 0.0
H2965 H 0.30105 0.7528 0.1725 0.0
H2966 H 0.27527 0.7243 0.11739 0.0
H2967 H 0.23593 0.72202 0.12408 0.0
H2968 H 0.31688 0.71588 0.1517 0.0
H2969 H 0.33328 0.80236 0.11671 0.0
H2970 H 0.31079 0.7883 0.13505 0.0
H2971 H 0.30476 0.77426 0.11246 0.0
C2972 C 0.26415 0.74411 0.16598 0.0
C2973 C 0.24593 0.73665 0.15213 0.0
C2974 C 0.28656 0.74523 0.16212 0.0
C2975 C 0.29102 0.73881 0.14443 0.0
C2976 C 0.27209 0.72927 0.13115 0.0
H2977 H 0.43677 0.81285 0.09639 0.0
H2978 H 0.3929 0.78243 0.0988 0.0
C2979 C 0.24969 0.72816 0.13497 0.0
C2980 C 0.3166 0.74674 0.13877 0.0
H2981 H 0.36613 0.79502 0.11816 0.0
C2982 C 0.32768 0.73301 0.14417 0.0
C2983 C 0.33049 0.76901 0.12889 0.0
C2984 C 0.31941 0.78451 0.12293 0.0
C2985 C 0.35263 0.74132 0.14012 0.0
C2986 C 0.3668 0.76419 0.13089 0.0
C2987 C 0.35532 0.77741 0.1251 0.0
C2988 C 0.39392 0.77624 0.12839 0.0
C2989 C 0.36351 0.72557 0.14572 0.0
C2990 C 0.40941 0.78185 0.14397 0.0
C2991 C 0.43458 0.79893 0.14251 0.0
C2992 C 0.4445 0.811 0.12553 0.0
C2993 C 0.42946 0.80385 0.10964 0.0
C2994 C 0.40443 0.78649 0.11103 0.0
H2995 H 0.34918 0.70574 0.14608 0.0
H2996 H 0.37838 0.72799 0.13604 0.0
H2997 H 0.37137 0.73086 0.15993 0.0
H2998 H 0.4018 0.77468 0.1576 0.0
H2999 H 0.44579 0.80429 0.15499 0.0
H3000 H 0.6381 0.46007 0.09415 0.0
H3001 H 0.62296 0.41566 0.09708 0.0
H3002 H 0.57063 0.41 0.13859 0.0
H3003 H 0.5859 0.45416 0.136 0.0
H3004 H 0.59371 0.38132 0.14646 0.0
H3005 H 0.55481 0.36655 0.07468 0.0
H3006 H 0.58724 0.38773 0.07737 0.0
H3007 H 0.56536 0.39522 0.08698 0.0
C3008 C 0.6237 0.44938 0.10414 0.0
C3009 C 0.61289 0.46045 0.11463 0.0
C3010 C 0.61498 0.42404 0.10572 0.0
C3011 C 0.59542 0.40951 0.11784 0.0
C3012 C 0.58566 0.42085 0.12909 0.0
H3013 H 0.4805 0.26961 0.14664 0.0
H3014 H 0.51583 0.31123 0.14612 0.0
C3015 C 0.59427 0.44604 0.12749 0.0
C3016 C 0.58348 0.38227 0.11797 0.0
H3017 H 0.54377 0.33159 0.09279 0.0
C3018 C 0.58313 0.37038 0.13463 0.0
C3019 C 0.56977 0.36805 0.10249 0.0
C3020 C 0.56907 0.37991 0.08436 0.0
C3021 C 0.56861 0.34468 0.13646 0.0
C3022 C 0.55369 0.33062 0.12137 0.0
C3023 C 0.55519 0.34239 0.10437 0.0
C3024 C 0.53434 0.30436 0.1234 0.0
C3025 C 0.56903 0.33291 0.15468 0.0
C3026 C 0.53288 0.28654 0.1108 0.0
C3027 C 0.51248 0.26268 0.11093 0.0
C3028 C 0.49307 0.25629 0.12358 0.0
C3029 C 0.49511 0.27387 0.13672 0.0
C3030 C 0.51547 0.29768 0.13655 0.0
H3031 H 0.58702 0.34389 0.16186 0.0
H3032 H 0.55455 0.33218 0.16399 0.0
H3033 H 0.56551 0.31385 0.1526 0.0
H3034 H 0.54715 0.29134 0.10044 0.0
H3035 H 0.5115 0.24958 0.10064 0.0
H3036 H 0.16517 0.60979 0.15921 0.0
H3037 H 0.19957 0.60231 0.15687 0.0
H3038 H 0.23763 0.66528 0.12056 0.0
H3039 H 0.20263 0.67271 0.12285 0.0
H3040 H 0.23217 0.62352 0.1049 0.0
H3041 H 0.26906 0.63003 0.17526 0.0
H3042 H 0.23614 0.61326 0.17659 0.0
H3043 H 0.25176 0.64498 0.169 0.0
C3044 C 0.18117 0.62243 0.15114 0.0
C3045 C 0.18127 0.64166 0.14108 0.0
C3046 C 0.20099 0.61835 0.14997 0.0
C3047 C 0.2214 0.63343 0.13875 0.0
C3048 C 0.22218 0.65357 0.12946 0.0
H3049 H 0.29146 0.54271 0.13582 0.0
H3050 H 0.29378 0.583 0.1354 0.0
C3051 C 0.20227 0.65781 0.13076 0.0
C3052 C 0.23912 0.62498 0.13443 0.0
H3053 H 0.26488 0.59492 0.15607 0.0
C3054 C 0.2402 0.61808 0.116 0.0
C3055 C 0.25031 0.61844 0.14872 0.0
C3056 C 0.25199 0.62737 0.16845 0.0
C3057 C 0.24897 0.60193 0.11196 0.0
C3058 C 0.25634 0.59216 0.12676 0.0
C3059 C 0.25859 0.60185 0.14475 0.0
C3060 C 0.25689 0.56889 0.12462 0.0
C3061 C 0.24863 0.59413 0.09204 0.0
C3062 C 0.23546 0.54764 0.11869 0.0
C3063 C 0.23404 0.52474 0.119 0.0
C3064 C 0.25399 0.52248 0.12538 0.0
C3065 C 0.27578 0.54386 0.13081 0.0
C3066 C 0.27716 0.56689 0.13056 0.0
H3067 H 0.25249 0.60946 0.08233 0.0
H3068 H 0.26234 0.58812 0.08965 0.0
H3069 H 0.23002 0.57859 0.08867 0.0
H3070 H 0.21933 0.54857 0.11456 0.0
H3071 H 0.217 0.50869 0.11472 0.0
H3072 H 0.82347 0.44459 0.39624 0.0
H3073 H 0.79228 0.40103 0.39495 0.0
H3074 H 0.76651 0.41266 0.34232 0.0
H3075 H 0.79861 0.45615 0.34304 0.0
H3076 H 0.74196 0.37129 0.39101 0.0
H3077 H 0.79165 0.36648 0.32818 0.0
H3078 H 0.80369 0.39371 0.34246 0.0
H3079 H 0.77889 0.38645 0.3265 0.0
C3080 C 0.81099 0.43796 0.38448 0.0
C3081 C 0.81401 0.45369 0.36949 0.0
C3082 C 0.79301 0.41307 0.38383 0.0
C3083 C 0.77754 0.40344 0.36828 0.0
C3084 C 0.7787 0.4196 0.35423 0.0
H3085 H 0.71203 0.24667 0.34063 0.0
H3086 H 0.71534 0.28732 0.34106 0.0
C3087 C 0.7969 0.44453 0.35477 0.0
C3088 C 0.76279 0.3763 0.36591 0.0
H3089 H 0.76145 0.32934 0.3408 0.0
C3090 C 0.74586 0.36209 0.37984 0.0
C3091 C 0.76791 0.36426 0.35132 0.0
C3092 C 0.78663 0.37841 0.33632 0.0
C3093 C 0.7348 0.33627 0.38004 0.0
C3094 C 0.74102 0.32445 0.36605 0.0
C3095 C 0.75667 0.33848 0.35148 0.0
C3096 C 0.73449 0.29825 0.36746 0.0
C3097 C 0.71712 0.32193 0.3955 0.0
C3098 C 0.74376 0.29076 0.38232 0.0
C3099 C 0.7421 0.26769 0.38204 0.0
C3100 C 0.73123 0.25168 0.36685 0.0
C3101 C 0.72064 0.25862 0.3525 0.0
C3102 C 0.72244 0.28181 0.35274 0.0
H3103 H 0.70808 0.33194 0.40115 0.0
H3104 H 0.7027 0.30344 0.39063 0.0
H3105 H 0.72742 0.3194 0.40705 0.0
H3106 H 0.75358 0.30331 0.39363 0.0
H3107 H 0.75035 0.2629 0.39336 0.0
H3108 H 0.51926 0.79359 0.3555 0.0
H3109 H 0.4835 0.7991 0.35645 0.0
H3110 H 0.4465 0.7367 0.39331 0.0
H3111 H 0.48264 0.73129 0.39276 0.0
H3112 H 0.43369 0.76871 0.34782 0.0
H3113 H 0.44778 0.79287 0.42332 0.0
H3114 H 0.47069 0.79077 0.40951 0.0
H3115 H 0.4434 0.76325 0.41679 0.0
C3116 C 0.50349 0.78087 0.36372 0.0
C3117 C 0.50395 0.76222 0.37428 0.0
C3118 C 0.48299 0.784 0.36418 0.0
C3119 C 0.46251 0.76857 0.37518 0.0
C3120 C 0.46232 0.7491 0.38501 0.0
H3121 H 0.3559 0.81739 0.40105 0.0
H3122 H 0.37053 0.78772 0.39762 0.0
C3123 C 0.48293 0.74598 0.3846 0.0
C3124 C 0.44235 0.77428 0.37709 0.0
H3125 H 0.41912 0.79952 0.4074 0.0
C3126 C 0.43011 0.77498 0.36093 0.0
C3127 C 0.43761 0.78232 0.39423 0.0
C3128 C 0.4506 0.78247 0.41197 0.0
C3129 C 0.41438 0.78486 0.36123 0.0
C3130 C 0.41103 0.79449 0.37808 0.0
C3131 C 0.42177 0.7921 0.39451 0.0
C3132 C 0.39987 0.81045 0.37847 0.0
C3133 C 0.40223 0.78582 0.34337 0.0
C3134 C 0.41149 0.83292 0.36882 0.0
C3135 C 0.40338 0.84982 0.37089 0.0
C3136 C 0.38347 0.84461 0.38266 0.0
C3137 C 0.37122 0.82175 0.39183 0.0
C3138 C 0.37955 0.80486 0.3899 0.0
H3139 H 0.39979 0.77097 0.33363 0.0
H3140 H 0.38399 0.78409 0.34609 0.0
H3141 H 0.4141 0.80376 0.33639 0.0
H3142 H 0.42751 0.83782 0.36023 0.0
H3143 H 0.41302 0.86725 0.36357 0.0
H3144 H 0.73818 0.48596 0.34429 0.0
H3145 H 0.69614 0.45104 0.3457 0.0
H3146 H 0.70942 0.43422 0.40122 0.0
H3147 H 0.75159 0.46909 0.39998 0.0
H3148 H 0.67281 0.3947 0.35896 0.0
H3149 H 0.65575 0.45896 0.40181 0.0
H3150 H 0.68168 0.47005 0.38617 0.0
H3151 H 0.68169 0.4553 0.40757 0.0
C3152 C 0.73241 0.47451 0.35665 0.0
C3153 C 0.74812 0.48061 0.37216 0.0
C3154 C 0.70841 0.45446 0.35737 0.0
C3155 C 0.69971 0.4402 0.37359 0.0
C3156 C 0.71587 0.44505 0.38857 0.0
H3157 H 0.54657 0.36495 0.4072 0.0
H3158 H 0.59043 0.3779 0.40748 0.0
C3159 C 0.73993 0.46504 0.38784 0.0
C3160 C 0.67296 0.42313 0.3759 0.0
H3161 H 0.62182 0.42086 0.39436 0.0
C3162 C 0.66159 0.40019 0.36685 0.0
C3163 C 0.65849 0.43039 0.38623 0.0
C3164 C 0.66984 0.45504 0.39598 0.0
C3165 C 0.6359 0.38436 0.36777 0.0
C3166 C 0.6213 0.39206 0.37758 0.0
C3167 C 0.63292 0.41481 0.38694 0.0
C3168 C 0.59389 0.37805 0.37745 0.0
C3169 C 0.62474 0.35958 0.35832 0.0
C3170 C 0.58089 0.37265 0.36053 0.0
C3171 C 0.55569 0.36476 0.36041 0.0
C3172 C 0.54325 0.36262 0.37718 0.0
C3173 C 0.55582 0.36641 0.39411 0.0
C3174 C 0.58086 0.37387 0.39425 0.0
H3175 H 0.63805 0.35279 0.35774 0.0
H3176 H 0.60783 0.34565 0.36559 0.0
H3177 H 0.61983 0.36138 0.34379 0.0
H3178 H 0.59052 0.37626 0.34736 0.0
H3179 H 0.54641 0.36228 0.34718 0.0
H3180 H 0.15334 0.54699 0.40304 0.0
H3181 H 0.17947 0.5917 0.40137 0.0
H3182 H 0.20748 0.58483 0.34818 0.0
H3183 H 0.1805 0.53999 0.34941 0.0
H3184 H 0.22864 0.62603 0.39704 0.0
H3185 H 0.17432 0.62441 0.33517 0.0
H3186 H 0.1655 0.5975 0.34932 0.0
H3187 H 0.19018 0.60735 0.33277 0.0
C3188 C 0.16532 0.55497 0.39109 0.0
C3189 C 0.16447 0.54 0.37617 0.0
C3190 C 0.18035 0.58053 0.3902 0.0
C3191 C 0.19493 0.59166 0.37443 0.0
C3192 C 0.1959 0.57664 0.36029 0.0
H3193 H 0.2565 0.74687 0.3434 0.0
H3194 H 0.25043 0.70516 0.34497 0.0
C3195 C 0.1807 0.55099 0.36111 0.0
C3196 C 0.2069 0.61881 0.37215 0.0
H3197 H 0.2038 0.6631 0.3465 0.0
C3198 C 0.22345 0.63418 0.38586 0.0
C3199 C 0.2 0.62943 0.35761 0.0
C3200 C 0.18139 0.61389 0.34295 0.0
C3201 C 0.23288 0.65979 0.38563 0.0
C3202 C 0.22535 0.67024 0.37143 0.0
C3203 C 0.20959 0.65503 0.35733 0.0
C3204 C 0.23189 0.6965 0.37163 0.0
C3205 C 0.25057 0.67543 0.4007 0.0
C3206 C 0.22361 0.70553 0.38616 0.0
C3207 C 0.22692 0.7293 0.38527 0.0
C3208 C 0.23852 0.74448 0.36979 0.0
C3209 C 0.24751 0.73568 0.35553 0.0
C3210 C 0.24408 0.71185 0.3564 0.0
H3211 H 0.26001 0.6662 0.40705 0.0
H3212 H 0.26469 0.69364 0.39516 0.0
H3213 H 0.24022 0.67859 0.41187 0.0
H3214 H 0.21369 0.69384 0.39786 0.0
H3215 H 0.21975 0.73548 0.39648 0.0
H3216 H 0.62049 0.18504 0.40144 0.0
H3217 H 0.60459 0.21315 0.3966 0.0
H3218 H 0.6336 0.22757 0.34069 0.0
H3219 H 0.64901 0.19889 0.34526 0.0
H3220 H 0.62334 0.26333 0.38435 0.0
H3221 H 0.55804 0.19345 0.33404 0.0
H3222 H 0.57671 0.1871 0.34966 0.0
H3223 H 0.59027 0.20587 0.32938 0.0
C3224 C 0.62385 0.19452 0.38821 0.0
C3225 C 0.63555 0.18934 0.37361 0.0
C3226 C 0.61489 0.2107 0.38551 0.0
C3227 C 0.61747 0.22204 0.36816 0.0
C3228 C 0.6311 0.21869 0.3541 0.0
H3229 H 0.52025 0.27544 0.32941 0.0
H3230 H 0.55636 0.27026 0.33104 0.0
C3231 C 0.64007 0.20244 0.35678 0.0
C3232 C 0.6032 0.23461 0.36427 0.0
H3233 H 0.55229 0.22664 0.34094 0.0
C3234 C 0.608 0.25555 0.37467 0.0
C3235 C 0.58315 0.22438 0.35167 0.0
C3236 C 0.5765 0.20137 0.34061 0.0
C3237 C 0.59295 0.26621 0.37307 0.0
C3238 C 0.57232 0.25533 0.36104 0.0
C3239 C 0.56815 0.23502 0.35011 0.0
C3240 C 0.55341 0.26303 0.36068 0.0
C3241 C 0.59914 0.28885 0.38439 0.0
C3242 C 0.54002 0.26122 0.37686 0.0
C3243 C 0.51934 0.26414 0.37597 0.0
C3244 C 0.51149 0.26873 0.35884 0.0
C3245 C 0.5257 0.27184 0.34282 0.0
C3246 C 0.54639 0.2689 0.34373 0.0
H3247 H 0.61914 0.29959 0.38759 0.0
H3248 H 0.59374 0.301 0.37701 0.0
H3249 H 0.58904 0.28314 0.39782 0.0
H3250 H 0.54473 0.2562 0.39003 0.0
H3251 H 0.50886 0.26165 0.38859 0.0
H3252 H 0.4616 0.63837 0.35978 0.0
H3253 H 0.41755 0.62156 0.35364 0.0
H3254 H 0.40016 0.5862 0.40742 0.0
H3255 H 0.44406 0.60295 0.41365 0.0
H3256 H 0.38465 0.56908 0.35365 0.0
H3257 H 0.35445 0.61644 0.40342 0.0
H3258 H 0.38618 0.62917 0.3963 0.0
H3259 H 0.37314 0.60509 0.41345 0.0
C3260 C 0.4484 0.62759 0.37049 0.0
C3261 C 0.45622 0.62191 0.38718 0.0
C3262 C 0.42327 0.61794 0.36694 0.0
C3263 C 0.40562 0.60283 0.38014 0.0
C3264 C 0.41347 0.59814 0.39717 0.0
H3265 H 0.25322 0.49718 0.39043 0.0
H3266 H 0.29595 0.52967 0.39459 0.0
C3267 C 0.43853 0.60756 0.40065 0.0
C3268 C 0.37906 0.58945 0.37535 0.0
H3269 H 0.3228 0.57925 0.38969 0.0
C3270 C 0.3711 0.57156 0.36128 0.0
C3271 C 0.36151 0.5926 0.38548 0.0
C3272 C 0.36919 0.61201 0.40042 0.0
C3273 C 0.34596 0.55588 0.35764 0.0
C3274 C 0.32827 0.55869 0.368 0.0
C3275 C 0.33632 0.57715 0.3817 0.0
C3276 C 0.30142 0.54139 0.36577 0.0
C3277 C 0.33864 0.53557 0.34346 0.0
C3278 C 0.2899 0.53782 0.34835 0.0
C3279 C 0.2655 0.519 0.34587 0.0
C3280 C 0.25204 0.50371 0.36085 0.0
C3281 C 0.26306 0.50855 0.37857 0.0
C3282 C 0.28753 0.52715 0.38098 0.0
H3283 H 0.35404 0.53221 0.34022 0.0
H3284 H 0.32276 0.51805 0.34848 0.0
H3285 H 0.3332 0.54087 0.33032 0.0
H3286 H 0.30003 0.54905 0.33653 0.0
H3287 H 0.25745 0.51595 0.33209 0.0
H3288 H 0.47444 0.81694 0.86516 0.0
H3289 H 0.4299 0.78883 0.86206 0.0
H3290 H 0.41662 0.82663 0.90677 0.0
H3291 H 0.46098 0.85463 0.91004 0.0
H3292 H 0.38599 0.75952 0.89368 0.0
H3293 H 0.38948 0.83638 0.8522 0.0
H3294 H 0.41596 0.83245 0.85484 0.0
H3295 H 0.40621 0.84409 0.87386 0.0
C3296 C 0.46205 0.81869 0.87475 0.0
C3297 C 0.4711 0.83812 0.88771 0.0
C3298 C 0.43666 0.80266 0.87294 0.0
C3299 C 0.4201 0.8058 0.88415 0.0
C3300 C 0.42918 0.82395 0.89803 0.0
H3301 H 0.26517 0.74717 0.89641 0.0
H3302 H 0.30748 0.75586 0.90026 0.0
C3303 C 0.45447 0.83998 0.89981 0.0
C3304 C 0.39358 0.79291 0.8796 0.0
H3305 H 0.35031 0.80284 0.85905 0.0
C3306 C 0.37811 0.7688 0.88598 0.0
C3307 C 0.38354 0.80509 0.86941 0.0
C3308 C 0.39956 0.83089 0.86204 0.0
C3309 C 0.35253 0.75675 0.8828 0.0
C3310 C 0.34239 0.76933 0.87318 0.0
C3311 C 0.35809 0.79318 0.86638 0.0
C3312 C 0.31551 0.759 0.87074 0.0
C3313 C 0.3366 0.73075 0.88974 0.0
C3314 C 0.30579 0.75742 0.85285 0.0
C3315 C 0.28167 0.75268 0.8506 0.0
C3316 C 0.26686 0.74958 0.86623 0.0
C3317 C 0.27608 0.7495 0.88408 0.0
C3318 C 0.30025 0.7543 0.88631 0.0
H3319 H 0.34747 0.72136 0.89183 0.0
H3320 H 0.32843 0.73121 0.90334 0.0
H3321 H 0.32134 0.71975 0.87987 0.0
H3322 H 0.31728 0.76107 0.84065 0.0
H3323 H 0.27511 0.75272 0.83665 0.0
H3324 H 0.61805 0.43241 0.91853 0.0
H3325 H 0.60399 0.3883 0.92001 0.0
H3326 H 0.61328 0.38726 0.86053 0.0
H3327 H 0.62779 0.43139 0.8591 0.0
H3328 H 0.56175 0.35872 0.90271 0.0
H3329 H 0.63164 0.33686 0.87696 0.0
H3330 H 0.63949 0.36732 0.88486 0.0
H3331 H 0.62813 0.35745 0.86158 0.0
C3332 C 0.61808 0.42292 0.90591 0.0
C3333 C 0.62388 0.43522 0.88869 0.0
C3334 C 0.61003 0.39774 0.90676 0.0
C3335 C 0.60758 0.3844 0.8904 0.0
C3336 C 0.61549 0.39716 0.87341 0.0
H3337 H 0.51172 0.24829 0.84175 0.0
H3338 H 0.54733 0.28707 0.8513 0.0
C3339 C 0.62375 0.42243 0.87258 0.0
C3340 C 0.59225 0.35709 0.89046 0.0
H3341 H 0.58897 0.30443 0.87382 0.0
C3342 C 0.5679 0.34676 0.89684 0.0
C3343 C 0.60019 0.34152 0.88263 0.0
C3344 C 0.62638 0.35135 0.87629 0.0
C3345 C 0.55085 0.32164 0.89456 0.0
C3346 C 0.5585 0.30618 0.88605 0.0
C3347 C 0.58315 0.31626 0.88042 0.0
C3348 C 0.54033 0.28042 0.88084 0.0
C3349 C 0.52439 0.31231 0.90013 0.0
C3350 C 0.52529 0.26314 0.8943 0.0
C3351 C 0.50461 0.24097 0.88887 0.0
C3352 C 0.49886 0.23568 0.86989 0.0
C3353 C 0.51539 0.25193 0.8565 0.0
C3354 C 0.53588 0.27411 0.86193 0.0
H3355 H 0.52071 0.32758 0.90307 0.0
H3356 H 0.51162 0.30058 0.88898 0.0
H3357 H 0.52018 0.301 0.91294 0.0
H3358 H 0.52875 0.26741 0.90899 0.0
H3359 H 0.49244 0.2287 0.89954 0.0
H3360 H 0.18034 0.61664 0.90326 0.0
H3361 H 0.2106 0.60314 0.90102 0.0
H3362 H 0.23689 0.64224 0.84903 0.0
H3363 H 0.20605 0.65526 0.85095 0.0
H3364 H 0.22267 0.59425 0.84572 0.0
H3365 H 0.28373 0.63102 0.90683 0.0
H3366 H 0.25206 0.6169 0.9137 0.0
H3367 H 0.26504 0.64373 0.8989 0.0
C3368 C 0.19295 0.62284 0.89156 0.0
C3369 C 0.19067 0.63681 0.8772 0.0
C3370 C 0.21047 0.61536 0.8904 0.0
C3371 C 0.22624 0.62188 0.87494 0.0
C3372 C 0.22506 0.63716 0.86115 0.0
H3373 H 0.29185 0.53109 0.84233 0.0
H3374 H 0.28824 0.56827 0.84402 0.0
C3375 C 0.2075 0.64468 0.86231 0.0
C3376 C 0.24076 0.60938 0.87187 0.0
H3377 H 0.27782 0.59218 0.8943 0.0
C3378 C 0.23531 0.59433 0.85606 0.0
C3379 C 0.25723 0.60948 0.88538 0.0
C3380 C 0.26504 0.62638 0.90205 0.0
C3381 C 0.24425 0.57792 0.85414 0.0
C3382 C 0.25939 0.57682 0.86828 0.0
C3383 C 0.26615 0.593 0.8835 0.0
C3384 C 0.26537 0.55673 0.86871 0.0
C3385 C 0.23595 0.56061 0.83766 0.0
C3386 C 0.25469 0.53854 0.8825 0.0
C3387 C 0.25675 0.51741 0.88162 0.0
C3388 C 0.26959 0.51403 0.86691 0.0
C3389 C 0.28165 0.53302 0.85375 0.0
C3390 C 0.27955 0.55424 0.85465 0.0
H3391 H 0.22137 0.56143 0.82944 0.0
H3392 H 0.25186 0.5656 0.82833 0.0
H3393 H 0.22879 0.54132 0.84236 0.0
H3394 H 0.24371 0.54014 0.8935 0.0
H3395 H 0.24744 0.50329 0.8921 0.0
H3396 H 0.75776 0.27222 0.81875 0.0
H3397 H 0.71673 0.26781 0.81859 0.0
H3398 H 0.71128 0.25559 0.87795 0.0
H3399 H 0.75235 0.26042 0.87831 0.0
H3400 H 0.67646 0.22545 0.82793 0.0
H3401 H 0.68123 0.2992 0.87292 0.0
H3402 H 0.70842 0.30011 0.86355 0.0
H3403 H 0.69393 0.28256 0.88426 0.0
C3404 C 0.74808 0.26919 0.83185 0.0
C3405 C 0.75828 0.26648 0.84853 0.0
C3406 C 0.72463 0.2667 0.83173 0.0
C3407 C 0.71097 0.26161 0.84828 0.0
C3408 C 0.72162 0.26009 0.86507 0.0
H3409 H 0.56648 0.18425 0.88692 0.0
H3410 H 0.61012 0.21382 0.88221 0.0
C3411 C 0.74509 0.26264 0.86522 0.0
C3412 C 0.68449 0.25435 0.84768 0.0
H3413 H 0.6408 0.26294 0.86934 0.0
C3414 C 0.66871 0.23404 0.83663 0.0
C3415 C 0.67437 0.26551 0.85908 0.0
C3416 C 0.69043 0.28821 0.87047 0.0
C3417 C 0.64305 0.22355 0.83756 0.0
C3418 C 0.63284 0.23397 0.84964 0.0
C3419 C 0.64864 0.25503 0.86004 0.0
C3420 C 0.60597 0.22116 0.85339 0.0
C3421 C 0.62707 0.20038 0.82654 0.0
C3422 C 0.58891 0.2166 0.83908 0.0
C3423 C 0.56388 0.19956 0.84173 0.0
C3424 C 0.55565 0.18695 0.85875 0.0
C3425 C 0.5724 0.19352 0.8736 0.0
C3426 C 0.59733 0.21047 0.87094 0.0
H3427 H 0.63784 0.19243 0.82039 0.0
H3428 H 0.6124 0.18618 0.8355 0.0
H3429 H 0.61807 0.20468 0.81499 0.0
H3430 H 0.59517 0.225 0.82551 0.0
H3431 H 0.55138 0.19484 0.83005 0.0
H3432 H 0.38516 0.54825 0.91027 0.0
H3433 H 0.40823 0.59323 0.90806 0.0
H3434 H 0.38869 0.58877 0.85006 0.0
H3435 H 0.36575 0.54363 0.85209 0.0
H3436 H 0.44794 0.61127 0.8767 0.0
H3437 H 0.38573 0.6509 0.87591 0.0
H3438 H 0.37787 0.62303 0.88867 0.0
H3439 H 0.37699 0.62247 0.86374 0.0
C3440 C 0.38516 0.55688 0.89719 0.0
C3441 C 0.37392 0.54246 0.8813 0.0
C3442 C 0.39825 0.58253 0.89597 0.0
C3443 C 0.40011 0.59422 0.87892 0.0
C3444 C 0.38719 0.58002 0.8634 0.0
H3445 H 0.50252 0.74555 0.84438 0.0
H3446 H 0.46666 0.70395 0.84676 0.0
C3447 C 0.37406 0.55426 0.86459 0.0
C3448 C 0.41911 0.62039 0.87664 0.0
H3449 H 0.42853 0.67885 0.87341 0.0
C3450 C 0.44373 0.62608 0.87597 0.0
C3451 C 0.4134 0.63945 0.8754 0.0
C3452 C 0.38709 0.63389 0.87598 0.0
C3453 C 0.46296 0.65045 0.87429 0.0
C3454 C 0.45743 0.66975 0.87379 0.0
C3455 C 0.4327 0.66403 0.874 0.0
C3456 C 0.47734 0.69589 0.87333 0.0
C3457 C 0.48902 0.65524 0.87284 0.0
C3458 C 0.49472 0.7054 0.88777 0.0
C3459 C 0.51529 0.72894 0.88636 0.0
C3460 C 0.51869 0.74362 0.8706 0.0
C3461 C 0.50048 0.73464 0.85665 0.0
C3462 C 0.47996 0.71092 0.858 0.0
H3463 H 0.48951 0.63861 0.8681 0.0
H3464 H 0.50008 0.67057 0.86303 0.0
H3465 H 0.49786 0.66041 0.88676 0.0
H3466 H 0.49275 0.69429 0.89991 0.0
H3467 H 0.52877 0.73544 0.89748 0.0
H3468 H 0.7251 0.47731 0.85874 0.0
H3469 H 0.72828 0.43986 0.85811 0.0
H3470 H 0.79737 0.47812 0.88757 0.0
H3471 H 0.79413 0.51518 0.8886 0.0
H3472 H 0.763 0.43442 0.84095 0.0
H3473 H 0.76475 0.4139 0.91527 0.0
H3474 H 0.75438 0.43453 0.90729 0.0
H3475 H 0.78671 0.44565 0.91098 0.0
C3476 C 0.74074 0.47758 0.86538 0.0
C3477 C 0.75939 0.49926 0.87369 0.0
C3478 C 0.74251 0.45616 0.86502 0.0
C3479 C 0.76283 0.456 0.8731 0.0
C3480 C 0.78114 0.4775 0.88173 0.0
H3481 H 0.85892 0.41049 0.8441 0.0
H3482 H 0.82843 0.42363 0.84548 0.0
C3483 C 0.77938 0.49882 0.88213 0.0
C3484 C 0.76665 0.43459 0.87083 0.0
H3485 H 0.78818 0.402 0.89449 0.0
C3486 C 0.76783 0.42681 0.85271 0.0
C3487 C 0.77231 0.42404 0.88613 0.0
C3488 C 0.76917 0.42979 0.906 0.0
C3489 C 0.77698 0.41078 0.84941 0.0
C3490 C 0.78564 0.4028 0.86457 0.0
C3491 C 0.782 0.40847 0.8828 0.0
C3492 C 0.80209 0.3924 0.86176 0.0
C3493 C 0.77831 0.40346 0.82961 0.0
C3494 C 0.79755 0.37046 0.87054 0.0
C3495 C 0.81522 0.36296 0.86988 0.0
C3496 C 0.83777 0.37759 0.86072 0.0
C3497 C 0.84177 0.39898 0.85138 0.0
C3498 C 0.8242 0.40635 0.85197 0.0
H3499 H 0.76295 0.40236 0.82115 0.0
H3500 H 0.79581 0.41769 0.8232 0.0
H3501 H 0.77763 0.38542 0.82898 0.0
H3502 H 0.78071 0.35955 0.87833 0.0
H3503 H 0.81177 0.34644 0.87723 0.0
H3504 H 0.20434 0.55481 0.5862 0.0
H3505 H 0.23664 0.59849 0.58672 0.0
H3506 H 0.18551 0.61718 0.61164 0.0
H3507 H 0.15369 0.57393 0.61174 0.0
H3508 H 0.23718 0.63947 0.57002 0.0
H3509 H 0.24487 0.64986 0.64639 0.0
H3510 H 0.23037 0.62008 0.63514 0.0
H3511 H 0.21329 0.63574 0.63927 0.0
C3512 C 0.20014 0.56826 0.59195 0.0
C3513 C 0.17645 0.56093 0.59889 0.0
C3514 C 0.21853 0.59315 0.59216 0.0
C3515 C 0.21355 0.61096 0.5995 0.0
C3516 C 0.18989 0.60367 0.60624 0.0
H3517 H 0.24397 0.7523 0.58397 0.0
H3518 H 0.23974 0.71215 0.57822 0.0
C3519 C 0.1716 0.57895 0.60606 0.0
C3520 C 0.23249 0.63741 0.59983 0.0
H3521 H 0.25499 0.68688 0.62885 0.0
C3522 C 0.24167 0.64989 0.5829 0.0
C3523 C 0.23904 0.65091 0.61666 0.0
C3524 C 0.23159 0.63838 0.6354 0.0
C3525 C 0.2552 0.67577 0.58226 0.0
C3526 C 0.25896 0.68935 0.5989 0.0
C3527 C 0.25188 0.67669 0.61597 0.0
C3528 C 0.26657 0.71596 0.59897 0.0
C3529 C 0.26464 0.68818 0.56368 0.0
C3530 C 0.2834 0.73192 0.61232 0.0
C3531 C 0.28523 0.75468 0.61604 0.0
C3532 C 0.27057 0.76201 0.60625 0.0
C3533 C 0.25562 0.7472 0.59165 0.0
C3534 C 0.25337 0.72422 0.58822 0.0
H3535 H 0.27034 0.67732 0.55487 0.0
H3536 H 0.24962 0.68908 0.55621 0.0
H3537 H 0.28052 0.70714 0.56526 0.0
H3538 H 0.29385 0.72605 0.62078 0.0
H3539 H 0.29705 0.76587 0.62729 0.0
H3540 H 0.52128 0.24947 0.65739 0.0
H3541 H 0.55637 0.24283 0.65362 0.0
H3542 H 0.52913 0.2105 0.59959 0.0
H3543 H 0.49436 0.21731 0.6031 0.0
H3544 H 0.55077 0.19695 0.64998 0.0
H3545 H 0.60217 0.25367 0.58931 0.0
H3546 H 0.58021 0.2587 0.60206 0.0
H3547 H 0.56989 0.23507 0.58449 0.0
C3548 C 0.52307 0.24144 0.64454 0.0
C3549 C 0.50496 0.23378 0.63059 0.0
C3550 C 0.54313 0.23769 0.64241 0.0
C3551 C 0.54554 0.22648 0.62622 0.0
C3552 C 0.52799 0.21972 0.612 0.0
H3553 H 0.60314 0.13922 0.58703 0.0
H3554 H 0.58609 0.16641 0.59174 0.0
C3555 C 0.50796 0.22342 0.61412 0.0
C3556 C 0.56436 0.21883 0.62508 0.0
H3557 H 0.6075 0.21874 0.59611 0.0
C3558 C 0.56361 0.20215 0.63845 0.0
C3559 C 0.58101 0.22561 0.60999 0.0
C3560 C 0.58356 0.24445 0.59576 0.0
C3561 C 0.57791 0.19081 0.63651 0.0
C3562 C 0.59369 0.19668 0.62092 0.0
C3563 C 0.59533 0.21426 0.60801 0.0
C3564 C 0.6067 0.18296 0.61695 0.0
C3565 C 0.5749 0.17153 0.65054 0.0
C3566 C 0.62452 0.18387 0.62925 0.0
C3567 C 0.63412 0.16818 0.6267 0.0
C3568 C 0.62611 0.15141 0.61174 0.0
C3569 C 0.60934 0.15163 0.59885 0.0
C3570 C 0.59974 0.16728 0.60144 0.0
H3571 H 0.55877 0.16604 0.6598 0.0
H3572 H 0.57267 0.15482 0.64339 0.0
H3573 H 0.59161 0.179 0.65938 0.0
H3574 H 0.63035 0.1961 0.64117 0.0
H3575 H 0.64693 0.16839 0.63692 0.0
H3576 H 0.45838 0.62649 0.59492 0.0
H3577 H 0.41614 0.61788 0.59591 0.0
H3578 H 0.43083 0.65792 0.64767 0.0
H3579 H 0.47289 0.66511 0.64739 0.0
H3580 H 0.39586 0.61426 0.65282 0.0
H3581 H 0.37167 0.64456 0.58897 0.0
H3582 H 0.38661 0.62801 0.58165 0.0
H3583 H 0.40347 0.6559 0.59517 0.0
C3584 C 0.45279 0.63391 0.60634 0.0
C3585 C 0.46881 0.64586 0.62133 0.0
C3586 C 0.42865 0.62938 0.60672 0.0
C3587 C 0.42012 0.63723 0.62187 0.0
C3588 C 0.43691 0.65159 0.63585 0.0
H3589 H 0.2571 0.54689 0.62258 0.0
H3590 H 0.29691 0.58547 0.62392 0.0
C3591 C 0.46105 0.65581 0.63562 0.0
C3592 C 0.39312 0.62566 0.62495 0.0
H3593 H 0.33933 0.60239 0.60051 0.0
C3594 C 0.38351 0.61244 0.64158 0.0
C3595 C 0.37664 0.62347 0.61059 0.0
C3596 C 0.38527 0.63904 0.59322 0.0
C3597 C 0.35845 0.59498 0.64329 0.0
C3598 C 0.3427 0.59025 0.62788 0.0
C3599 C 0.3516 0.60552 0.61214 0.0
C3600 C 0.31842 0.56739 0.62689 0.0
C3601 C 0.34937 0.58063 0.66122 0.0
C3602 C 0.31746 0.54455 0.62769 0.0
C3603 C 0.29496 0.52265 0.62688 0.0
C3604 C 0.27285 0.52305 0.62516 0.0
C3605 C 0.27382 0.54597 0.624 0.0
C3606 C 0.29649 0.568 0.62476 0.0
H3607 H 0.36058 0.59168 0.67326 0.0
H3608 H 0.32976 0.57487 0.66384 0.0
H3609 H 0.35107 0.56385 0.66033 0.0
H3610 H 0.33422 0.54366 0.6289 0.0
H3611 H 0.29496 0.50539 0.62769 0.0
H3612 H 0.78141 0.26731 0.67245 0.0
H3613 H 0.78194 0.30652 0.67064 0.0
H3614 H 0.77581 0.29992 0.61079 0.0
H3615 H 0.77455 0.26039 0.61253 0.0
H3616 H 0.81734 0.34604 0.65408 0.0
H3617 H 0.72898 0.32462 0.62148 0.0
H3618 H 0.73424 0.30105 0.63117 0.0
H3619 H 0.74489 0.31276 0.60807 0.0
C3620 C 0.77971 0.27398 0.65892 0.0
C3621 C 0.77808 0.26082 0.64262 0.0
C3622 C 0.77993 0.29636 0.65792 0.0
C3623 C 0.77858 0.30604 0.64061 0.0
C3624 C 0.77619 0.29255 0.62435 0.0
H3625 H 0.83121 0.44637 0.59316 0.0
H3626 H 0.80818 0.40226 0.60016 0.0
C3627 C 0.77573 0.27004 0.62536 0.0
C3628 C 0.78295 0.33156 0.63934 0.0
H3629 H 0.76184 0.36708 0.61947 0.0
C3630 C 0.80493 0.35058 0.64686 0.0
C3631 C 0.7668 0.33749 0.62984 0.0
C3632 C 0.74229 0.31785 0.62235 0.0
C3633 C 0.81182 0.37537 0.64438 0.0
C3634 C 0.79612 0.38134 0.6343 0.0
C3635 C 0.77376 0.36239 0.62724 0.0
C3636 C 0.80413 0.40723 0.6295 0.0
C3637 C 0.83648 0.39503 0.65174 0.0
C3638 C 0.80823 0.4245 0.64351 0.0
C3639 C 0.82151 0.44972 0.63957 0.0
C3640 C 0.83082 0.45795 0.62155 0.0
C3641 C 0.82451 0.44052 0.60721 0.0
C3642 C 0.81126 0.41534 0.61116 0.0
H3643 H 0.84808 0.38729 0.6565 0.0
H3644 H 0.84673 0.40911 0.64086 0.0
H3645 H 0.83356 0.40443 0.66374 0.0
H3646 H 0.80265 0.41852 0.65773 0.0
H3647 H 0.82615 0.4627 0.65092 0.0
H3648 H 0.48569 0.71307 0.67245 0.0
H3649 H 0.44669 0.71316 0.67214 0.0
H3650 H 0.45706 0.73262 0.61389 0.0
H3651 H 0.49578 0.73236 0.61404 0.0
H3652 H 0.44756 0.75605 0.66493 0.0
H3653 H 0.38324 0.68531 0.6159 0.0
H3654 H 0.40907 0.6843 0.62611 0.0
H3655 H 0.41334 0.70305 0.6059 0.0
C3656 C 0.47935 0.71676 0.65946 0.0
C3657 C 0.49405 0.72317 0.64335 0.0
C3658 C 0.457 0.7167 0.6593 0.0
C3659 C 0.44884 0.72273 0.64297 0.0
C3660 C 0.46268 0.72742 0.62657 0.0
H3661 H 0.38729 0.80242 0.60264 0.0
H3662 H 0.39926 0.77139 0.60808 0.0
C3663 C 0.48503 0.72759 0.62674 0.0
C3664 C 0.42873 0.72869 0.64371 0.0
H3665 H 0.37859 0.72156 0.61964 0.0
C3666 C 0.43202 0.74801 0.65544 0.0
C3667 C 0.40852 0.71821 0.6313 0.0
C3668 C 0.40318 0.69639 0.61924 0.0
C3669 C 0.41696 0.75858 0.654 0.0
C3670 C 0.39769 0.74919 0.6407 0.0
C3671 C 0.39335 0.72875 0.62982 0.0
C3672 C 0.38467 0.76282 0.63611 0.0
C3673 C 0.42313 0.781 0.6657 0.0
C3674 C 0.37115 0.76725 0.64964 0.0
C3675 C 0.36454 0.78528 0.64664 0.0
C3676 C 0.37124 0.79898 0.63001 0.0
C3677 C 0.38234 0.79252 0.61574 0.0
C3678 C 0.38903 0.77464 0.61878 0.0
H3679 H 0.441 0.78819 0.67308 0.0
H3680 H 0.42399 0.79599 0.65691 0.0
H3681 H 0.40856 0.77609 0.67633 0.0
H3682 H 0.3672 0.75799 0.66299 0.0
H3683 H 0.35592 0.78977 0.65787 0.0
H3684 H 0.55664 0.39862 0.58415 0.0
H3685 H 0.60117 0.41689 0.58778 0.0
H3686 H 0.58985 0.37668 0.63903 0.0
H3687 H 0.54522 0.35827 0.63544 0.0
H3688 H 0.6239 0.44639 0.61849 0.0
H3689 H 0.64589 0.37096 0.61382 0.0
H3690 H 0.6177 0.36809 0.60468 0.0
H3691 H 0.62095 0.36509 0.62925 0.0
C3692 C 0.56364 0.39328 0.59598 0.0
C3693 C 0.54751 0.37719 0.60959 0.0
C3694 C 0.58905 0.40364 0.598 0.0
C3695 C 0.5988 0.39806 0.61362 0.0
C3696 C 0.58271 0.38088 0.62669 0.0
H3697 H 0.73809 0.49396 0.66625 0.0
H3698 H 0.69601 0.46107 0.65989 0.0
C3699 C 0.55722 0.37041 0.62464 0.0
C3700 C 0.62553 0.41287 0.61753 0.0
H3701 H 0.67776 0.40979 0.62509 0.0
C3702 C 0.63568 0.43838 0.6198 0.0
C3703 C 0.64081 0.40234 0.61931 0.0
C3704 C 0.6309 0.37514 0.6165 0.0
C3705 C 0.66064 0.45364 0.62397 0.0
C3706 C 0.67584 0.44312 0.62604 0.0
C3707 C 0.66589 0.41767 0.62361 0.0
C3708 C 0.7022 0.45883 0.63052 0.0
C3709 C 0.67071 0.481 0.62618 0.0
C3710 C 0.71969 0.46775 0.61617 0.0
C3711 C 0.74374 0.48664 0.6197 0.0
C3712 C 0.75058 0.49689 0.63765 0.0
C3713 C 0.73341 0.48659 0.65225 0.0
C3714 C 0.70938 0.46775 0.64868 0.0
H3715 H 0.65706 0.48657 0.62221 0.0
H3716 H 0.67609 0.48632 0.64092 0.0
H3717 H 0.68746 0.49144 0.61748 0.0
H3718 H 0.71437 0.46111 0.60204 0.0
H3719 H 0.75655 0.49406 0.60817 0.0
loop_
_geom_bond_atom_site_label_1
_geom_bond_atom_site_label_2
_geom_bond_distance
_geom_bond_site_symmetry_2
_ccdc_geom_bond_type
O0 Tb1 2.292 . S
O0 C3 1.255 . S
Tb1 O0 2.292 . S
Tb1 O17 2.326 . S
Tb1 O19 2.500 . S
Tb1 O20 2.473 . S
Tb1 O23 2.324 . S
Eu2 O6 2.292 . S
Eu2 C7 2.852 . S
Eu2 O18 2.324 . S
Eu2 O22 2.326 . S
Eu2 O24 2.500 . S
Eu2 O25 2.473 . S
C3 O0 1.255 . S
C3 O4 1.247 . S
O4 C3 1.247 . S
C5 O17 1.242 . S
C5 O18 1.258 . S
O6 Eu2 2.292 . S
O6 C8 1.255 . S
C7 Eu2 2.852 . S
C7 C11 1.503 . S
C7 O24 1.273 . S
C7 O25 1.257 . S
C8 O6 1.255 . S
C8 O9 1.247 . S
O9 C8 1.247 . S
C10 O22 1.242 . S
C10 O23 1.258 . S
C11 C7 1.503 . S
C11 C12 1.379 . S
C11 C16 1.392 . S
C12 C11 1.379 . S
C12 C13 1.404 . S
C12 H26 0.929 . S
C13 C12 1.404 . S
C13 C14 1.389 . S
C14 C13 1.389 . S
C14 C15 1.399 . S
C14 H27 0.931 . S
C15 C14 1.399 . S
C15 C16 1.390 . S
C16 C11 1.392 . S
C16 C15 1.390 . S
C16 H28 0.929 . S
O17 Tb1 2.326 . S
O17 C5 1.242 . S
O18 Eu2 2.324 . S
O18 C5 1.258 . S
O19 Tb1 2.500 . S
O19 C21 1.273 . S
O20 Tb1 2.473 . S
O20 C21 1.257 . S
C21 O19 1.273 . S
C21 O20 1.257 . S
O22 Eu2 2.326 . S
O22 C10 1.242 . S
O23 Tb1 2.324 . S
O23 C10 1.258 . S
O24 Eu2 2.500 . S
O24 C7 1.273 . S
O25 Eu2 2.473 . S
O25 C7 1.257 . S
H26 C12 0.929 . S
H27 C14 0.931 . S
H28 C16 0.929 . S
O29 Tb30 2.292 . S
O29 C32 1.255 . S
Tb30 O29 2.292 . S
Tb30 O46 2.326 . S
Tb30 O48 2.500 . S
Tb30 O49 2.473 . S
Tb30 O52 2.324 . S
Eu31 O35 2.292 . S
Eu31 C36 2.852 . S
Eu31 O47 2.324 . S
Eu31 O51 2.326 . S
Eu31 O53 2.500 . S
Eu31 O54 2.473 . S
C32 O29 1.255 . S
C32 O33 1.247 . S
O33 C32 1.247 . S
C34 O46 1.242 . S
C34 O47 1.258 . S
O35 Eu31 2.292 . S
O35 C37 1.255 . S
C36 Eu31 2.852 . S
C36 C40 1.503 . S
C36 O53 1.273 . S
C36 O54 1.257 . S
C37 O35 1.255 . S
C37 O38 1.247 . S
O38 C37 1.247 . S
C39 O51 1.242 . S
C39 O52 1.258 . S
C40 C36 1.503 . S
C40 C41 1.379 . S
C40 C45 1.392 . S
C41 C40 1.379 . S
C41 C42 1.404 . S
C41 H55 0.929 . S
C42 C41 1.404 . S
C42 C43 1.389 . S
C43 C42 1.389 . S
C43 C44 1.399 . S
C43 H56 0.931 . S
C44 C43 1.399 . S
C44 C45 1.390 . S
C45 C40 1.392 . S
C45 C44 1.390 . S
C45 H57 0.929 . S
O46 Tb30 2.326 . S
O46 C34 1.242 . S
O47 Eu31 2.324 . S
O47 C34 1.258 . S
O48 Tb30 2.500 . S
O48 C50 1.273 . S
O49 Tb30 2.473 . S
O49 C50 1.257 . S
C50 O48 1.273 . S
C50 O49 1.257 . S
O51 Eu31 2.326 . S
O51 C39 1.242 . S
O52 Tb30 2.324 . S
O52 C39 1.258 . S
O53 Eu31 2.500 . S
O53 C36 1.273 . S
O54 Eu31 2.473 . S
O54 C36 1.257 . S
H55 C41 0.929 . S
H56 C43 0.931 . S
H57 C45 0.929 . S
O58 Tb59 2.292 . S
O58 C61 1.255 . S
Tb59 O58 2.292 . S
Tb59 O75 2.326 . S
Tb59 O77 2.500 . S
Tb59 O78 2.473 . S
Tb59 O81 2.324 . S
Eu60 O64 2.292 . S
Eu60 C65 2.852 . S
Eu60 O76 2.324 . S
Eu60 O80 2.326 . S
Eu60 O82 2.500 . S
Eu60 O83 2.473 . S
C61 O58 1.255 . S
C61 O62 1.247 . S
O62 C61 1.247 . S
C63 O75 1.242 . S
C63 O76 1.258 . S
O64 Eu60 2.292 . S
O64 C66 1.255 . S
C65 Eu60 2.852 . S
C65 C69 1.503 . S
C65 O82 1.273 . S
C65 O83 1.257 . S
C66 O64 1.255 . S
C66 O67 1.247 . S
O67 C66 1.247 . S
C68 O80 1.242 . S
C68 O81 1.258 . S
C69 C65 1.503 . S
C69 C70 1.379 . S
C69 C74 1.392 . S
C70 C69 1.379 . S
C70 C71 1.404 . S
C70 H84 0.929 . S
C71 C70 1.404 . S
C71 C72 1.389 . S
C72 C71 1.389 . S
C72 C73 1.399 . S
C72 H85 0.931 . S
C73 C72 1.399 . S
C73 C74 1.390 . S
C74 C69 1.392 . S
C74 C73 1.390 . S
C74 H86 0.929 . S
O75 Tb59 2.326 . S
O75 C63 1.242 . S
O76 Eu60 2.324 . S
O76 C63 1.258 . S
O77 Tb59 2.500 . S
O77 C79 1.273 . S
O78 Tb59 2.473 . S
O78 C79 1.257 . S
C79 O77 1.273 . S
C79 O78 1.257 . S
O80 Eu60 2.326 . S
O80 C68 1.242 . S
O81 Tb59 2.324 . S
O81 C68 1.258 . S
O82 Eu60 2.500 . S
O82 C65 1.273 . S
O83 Eu60 2.473 . S
O83 C65 1.257 . S
H84 C70 0.929 . S
H85 C72 0.931 . S
H86 C74 0.929 . S
O87 Tb88 2.292 . S
O87 C90 1.255 . S
Tb88 O87 2.292 . S
Tb88 O104 2.326 . S
Tb88 O106 2.500 . S
Tb88 O107 2.473 . S
Tb88 O110 2.324 . S
Eu89 O93 2.292 . S
Eu89 C94 2.852 . S
Eu89 O105 2.324 . S
Eu89 O109 2.326 . S
Eu89 O111 2.500 . S
Eu89 O112 2.473 . S
C90 O87 1.255 . S
C90 O91 1.247 . S
O91 C90 1.247 . S
C92 O104 1.242 . S
C92 O105 1.258 . S
O93 Eu89 2.292 . S
O93 C95 1.255 . S
C94 Eu89 2.852 . S
C94 C98 1.503 . S
C94 O111 1.273 . S
C94 O112 1.257 . S
C95 O93 1.255 . S
C95 O96 1.247 . S
O96 C95 1.247 . S
C97 O109 1.242 . S
C97 O110 1.258 . S
C98 C94 1.503 . S
C98 C99 1.379 . S
C98 C103 1.392 . S
C99 C98 1.379 . S
C99 C100 1.404 . S
C99 H113 0.929 . S
C100 C99 1.404 . S
C100 C101 1.389 . S
C101 C100 1.389 . S
C101 C102 1.399 . S
C101 H114 0.931 . S
C102 C101 1.399 . S
C102 C103 1.390 . S
C103 C98 1.392 . S
C103 C102 1.390 . S
C103 H115 0.929 . S
O104 Tb88 2.326 . S
O104 C92 1.242 . S
O105 Eu89 2.324 . S
O105 C92 1.258 . S
O106 Tb88 2.500 . S
O106 C108 1.273 . S
O107 Tb88 2.473 . S
O107 C108 1.257 . S
C108 O106 1.273 . S
C108 O107 1.257 . S
O109 Eu89 2.326 . S
O109 C97 1.242 . S
O110 Tb88 2.324 . S
O110 C97 1.258 . S
O111 Eu89 2.500 . S
O111 C94 1.273 . S
O112 Eu89 2.473 . S
O112 C94 1.257 . S
H113 C99 0.929 . S
H114 C101 0.931 . S
H115 C103 0.929 . S
O116 Tb117 2.292 . S
O116 C119 1.255 . S
Tb117 O116 2.292 . S
Tb117 O133 2.326 . S
Tb117 O135 2.500 . S
Tb117 O136 2.473 . S
Tb117 O139 2.324 . S
Eu118 O122 2.292 . S
Eu118 C123 2.852 . S
Eu118 O134 2.324 . S
Eu118 O138 2.326 . S
Eu118 O140 2.500 . S
Eu118 O141 2.473 . S
C119 O116 1.255 . S
C119 O120 1.247 . S
O120 C119 1.247 . S
C121 O133 1.242 . S
C121 O134 1.258 . S
O122 Eu118 2.292 . S
O122 C124 1.255 . S
C123 Eu118 2.852 . S
C123 C127 1.503 . S
C123 O140 1.273 . S
C123 O141 1.257 . S
C124 O122 1.255 . S
C124 O125 1.247 . S
O125 C124 1.247 . S
C126 O138 1.242 . S
C126 O139 1.258 . S
C127 C123 1.503 . S
C127 C128 1.379 . S
C127 C132 1.392 . S
C128 C127 1.379 . S
C128 C129 1.404 . S
C128 H142 0.929 . S
C129 C128 1.404 . S
C129 C130 1.389 . S
C130 C129 1.389 . S
C130 C131 1.399 . S
C130 H143 0.931 . S
C131 C130 1.399 . S
C131 C132 1.390 . S
C132 C127 1.392 . S
C132 C131 1.390 . S
C132 H144 0.929 . S
O133 Tb117 2.326 . S
O133 C121 1.242 . S
O134 Eu118 2.324 . S
O134 C121 1.258 . S
O135 Tb117 2.500 . S
O135 C137 1.273 . S
O136 Tb117 2.473 . S
O136 C137 1.257 . S
C137 O135 1.273 . S
C137 O136 1.257 . S
O138 Eu118 2.326 . S
O138 C126 1.242 . S
O139 Tb117 2.324 . S
O139 C126 1.258 . S
O140 Eu118 2.500 . S
O140 C123 1.273 . S
O141 Eu118 2.473 . S
O141 C123 1.257 . S
H142 C128 0.929 . S
H143 C130 0.931 . S
H144 C132 0.929 . S
O145 Tb146 2.292 . S
O145 C148 1.255 . S
Tb146 O145 2.292 . S
Tb146 O162 2.326 . S
Tb146 O164 2.500 . S
Tb146 O165 2.473 . S
Tb146 O168 2.324 . S
Eu147 O151 2.292 . S
Eu147 C152 2.852 . S
Eu147 O163 2.324 . S
Eu147 O167 2.326 . S
Eu147 O169 2.500 . S
Eu147 O170 2.473 . S
C148 O145 1.255 . S
C148 O149 1.247 . S
O149 C148 1.247 . S
C150 O162 1.242 . S
C150 O163 1.258 . S
O151 Eu147 2.292 . S
O151 C153 1.255 . S
C152 Eu147 2.852 . S
C152 C156 1.503 . S
C152 O169 1.273 . S
C152 O170 1.257 . S
C153 O151 1.255 . S
C153 O154 1.247 . S
O154 C153 1.247 . S
C155 O167 1.242 . S
C155 O168 1.258 . S
C156 C152 1.503 . S
C156 C157 1.379 . S
C156 C161 1.392 . S
C157 C156 1.379 . S
C157 C158 1.404 . S
C157 H171 0.929 . S
C158 C157 1.404 . S
C158 C159 1.389 . S
C159 C158 1.389 . S
C159 C160 1.399 . S
C159 H172 0.931 . S
C160 C159 1.399 . S
C160 C161 1.390 . S
C161 C156 1.392 . S
C161 C160 1.390 . S
C161 H173 0.929 . S
O162 Tb146 2.326 . S
O162 C150 1.242 . S
O163 Eu147 2.324 . S
O163 C150 1.258 . S
O164 Tb146 2.500 . S
O164 C166 1.273 . S
O165 Tb146 2.473 . S
O165 C166 1.257 . S
C166 O164 1.273 . S
C166 O165 1.257 . S
O167 Eu147 2.326 . S
O167 C155 1.242 . S
O168 Tb146 2.324 . S
O168 C155 1.258 . S
O169 Eu147 2.500 . S
O169 C152 1.273 . S
O170 Eu147 2.473 . S
O170 C152 1.257 . S
H171 C157 0.929 . S
H172 C159 0.931 . S
H173 C161 0.929 . S
O174 Tb175 2.292 . S
O174 C177 1.255 . S
Tb175 O174 2.292 . S
Tb175 O191 2.326 . S
Tb175 O193 2.500 . S
Tb175 O194 2.473 . S
Tb175 O197 2.324 . S
Eu176 O180 2.292 . S
Eu176 C181 2.852 . S
Eu176 O192 2.324 . S
Eu176 O196 2.326 . S
Eu176 O198 2.500 . S
Eu176 O199 2.473 . S
C177 O174 1.255 . S
C177 O178 1.247 . S
O178 C177 1.247 . S
C179 O191 1.242 . S
C179 O192 1.258 . S
O180 Eu176 2.292 . S
O180 C182 1.255 . S
C181 Eu176 2.852 . S
C181 C185 1.503 . S
C181 O198 1.273 . S
C181 O199 1.257 . S
C182 O180 1.255 . S
C182 O183 1.247 . S
O183 C182 1.247 . S
C184 O196 1.242 . S
C184 O197 1.258 . S
C185 C181 1.503 . S
C185 C186 1.379 . S
C185 C190 1.392 . S
C186 C185 1.379 . S
C186 C187 1.404 . S
C186 H200 0.929 . S
C187 C186 1.404 . S
C187 C188 1.389 . S
C188 C187 1.389 . S
C188 C189 1.399 . S
C188 H201 0.931 . S
C189 C188 1.399 . S
C189 C190 1.390 . S
C190 C185 1.392 . S
C190 C189 1.390 . S
C190 H202 0.929 . S
O191 Tb175 2.326 . S
O191 C179 1.242 . S
O192 Eu176 2.324 . S
O192 C179 1.258 . S
O193 Tb175 2.500 . S
O193 C195 1.273 . S
O194 Tb175 2.473 . S
O194 C195 1.257 . S
C195 O193 1.273 . S
C195 O194 1.257 . S
O196 Eu176 2.326 . S
O196 C184 1.242 . S
O197 Tb175 2.324 . S
O197 C184 1.258 . S
O198 Eu176 2.500 . S
O198 C181 1.273 . S
O199 Eu176 2.473 . S
O199 C181 1.257 . S
H200 C186 0.929 . S
H201 C188 0.931 . S
H202 C190 0.929 . S
O203 Tb204 2.292 . S
O203 C206 1.255 . S
Tb204 O203 2.292 . S
Tb204 O220 2.326 . S
Tb204 O222 2.500 . S
Tb204 O223 2.473 . S
Tb204 O226 2.324 . S
Eu205 O209 2.292 . S
Eu205 C210 2.852 . S
Eu205 O221 2.324 . S
Eu205 O225 2.326 . S
Eu205 O227 2.500 . S
Eu205 O228 2.473 . S
C206 O203 1.255 . S
C206 O207 1.247 . S
O207 C206 1.247 . S
C208 O220 1.242 . S
C208 O221 1.258 . S
O209 Eu205 2.292 . S
O209 C211 1.255 . S
C210 Eu205 2.852 . S
C210 C214 1.503 . S
C210 O227 1.273 . S
C210 O228 1.257 . S
C211 O209 1.255 . S
C211 O212 1.247 . S
O212 C211 1.247 . S
C213 O225 1.242 . S
C213 O226 1.258 . S
C214 C210 1.503 . S
C214 C215 1.379 . S
C214 C219 1.392 . S
C215 C214 1.379 . S
C215 C216 1.404 . S
C215 H229 0.929 . S
C216 C215 1.404 . S
C216 C217 1.389 . S
C217 C216 1.389 . S
C217 C218 1.399 . S
C217 H230 0.931 . S
C218 C217 1.399 . S
C218 C219 1.390 . S
C219 C214 1.392 . S
C219 C218 1.390 . S
C219 H231 0.929 . S
O220 Tb204 2.326 . S
O220 C208 1.242 . S
O221 Eu205 2.324 . S
O221 C208 1.258 . S
O222 Tb204 2.500 . S
O222 C224 1.273 . S
O223 Tb204 2.473 . S
O223 C224 1.257 . S
C224 O222 1.273 . S
C224 O223 1.257 . S
O225 Eu205 2.326 . S
O225 C213 1.242 . S
O226 Tb204 2.324 . S
O226 C213 1.258 . S
O227 Eu205 2.500 . S
O227 C210 1.273 . S
O228 Eu205 2.473 . S
O228 C210 1.257 . S
H229 C215 0.929 . S
H230 C217 0.931 . S
H231 C219 0.929 . S
O232 Tb233 2.292 . S
O232 C235 1.255 . S
Tb233 O232 2.292 . S
Tb233 O249 2.326 . S
Tb233 O251 2.500 . S
Tb233 O252 2.473 . S
Tb233 O255 2.324 . S
Eu234 O238 2.292 . S
Eu234 C239 2.852 . S
Eu234 O250 2.324 . S
Eu234 O254 2.326 . S
Eu234 O256 2.500 . S
Eu234 O257 2.473 . S
C235 O232 1.255 . S
C235 O236 1.247 . S
O236 C235 1.247 . S
C237 O249 1.242 . S
C237 O250 1.258 . S
O238 Eu234 2.292 . S
O238 C240 1.255 . S
C239 Eu234 2.852 . S
C239 C243 1.503 . S
C239 O256 1.273 . S
C239 O257 1.257 . S
C240 O238 1.255 . S
C240 O241 1.247 . S
O241 C240 1.247 . S
C242 O254 1.242 . S
C242 O255 1.258 . S
C243 C239 1.503 . S
C243 C244 1.379 . S
C243 C248 1.392 . S
C244 C243 1.379 . S
C244 C245 1.404 . S
C244 H258 0.929 . S
C245 C244 1.404 . S
C245 C246 1.389 . S
C246 C245 1.389 . S
C246 C247 1.399 . S
C246 H259 0.931 . S
C247 C246 1.399 . S
C247 C248 1.390 . S
C248 C243 1.392 . S
C248 C247 1.390 . S
C248 H260 0.929 . S
O249 Tb233 2.326 . S
O249 C237 1.242 . S
O250 Eu234 2.324 . S
O250 C237 1.258 . S
O251 Tb233 2.500 . S
O251 C253 1.273 . S
O252 Tb233 2.473 . S
O252 C253 1.257 . S
C253 O251 1.273 . S
C253 O252 1.257 . S
O254 Eu234 2.326 . S
O254 C242 1.242 . S
O255 Tb233 2.324 . S
O255 C242 1.258 . S
O256 Eu234 2.500 . S
O256 C239 1.273 . S
O257 Eu234 2.473 . S
O257 C239 1.257 . S
H258 C244 0.929 . S
H259 C246 0.931 . S
H260 C248 0.929 . S
O261 Tb262 2.292 . S
O261 C264 1.255 . S
Tb262 O261 2.292 . S
Tb262 O278 2.326 . S
Tb262 O280 2.500 . S
Tb262 O281 2.473 . S
Tb262 O284 2.324 . S
Eu263 O267 2.292 . S
Eu263 C268 2.852 . S
Eu263 O279 2.324 . S
Eu263 O283 2.326 . S
Eu263 O285 2.500 . S
Eu263 O286 2.473 . S
C264 O261 1.255 . S
C264 O265 1.247 . S
O265 C264 1.247 . S
C266 O278 1.242 . S
C266 O279 1.258 . S
O267 Eu263 2.292 . S
O267 C269 1.255 . S
C268 Eu263 2.852 . S
C268 C272 1.503 . S
C268 O285 1.273 . S
C268 O286 1.257 . S
C269 O267 1.255 . S
C269 O270 1.247 . S
O270 C269 1.247 . S
C271 O283 1.242 . S
C271 O284 1.258 . S
C272 C268 1.503 . S
C272 C273 1.379 . S
C272 C277 1.392 . S
C273 C272 1.379 . S
C273 C274 1.404 . S
C273 H287 0.929 . S
C274 C273 1.404 . S
C274 C275 1.389 . S
C275 C274 1.389 . S
C275 C276 1.399 . S
C275 H288 0.931 . S
C276 C275 1.399 . S
C276 C277 1.390 . S
C277 C272 1.392 . S
C277 C276 1.390 . S
C277 H289 0.929 . S
O278 Tb262 2.326 . S
O278 C266 1.242 . S
O279 Eu263 2.324 . S
O279 C266 1.258 . S
O280 Tb262 2.500 . S
O280 C282 1.273 . S
O281 Tb262 2.473 . S
O281 C282 1.257 . S
C282 O280 1.273 . S
C282 O281 1.257 . S
O283 Eu263 2.326 . S
O283 C271 1.242 . S
O284 Tb262 2.324 . S
O284 C271 1.258 . S
O285 Eu263 2.500 . S
O285 C268 1.273 . S
O286 Eu263 2.473 . S
O286 C268 1.257 . S
H287 C273 0.929 . S
H288 C275 0.931 . S
H289 C277 0.929 . S
O290 Tb291 2.292 . S
O290 C293 1.255 . S
Tb291 O290 2.292 . S
Tb291 O307 2.326 . S
Tb291 O309 2.500 . S
Tb291 O310 2.473 . S
Tb291 O313 2.324 . S
Eu292 O296 2.292 . S
Eu292 C297 2.852 . S
Eu292 O308 2.324 . S
Eu292 O312 2.326 . S
Eu292 O314 2.500 . S
Eu292 O315 2.473 . S
C293 O290 1.255 . S
C293 O294 1.247 . S
O294 C293 1.247 . S
C295 O307 1.242 . S
C295 O308 1.258 . S
O296 Eu292 2.292 . S
O296 C298 1.255 . S
C297 Eu292 2.852 . S
C297 C301 1.503 . S
C297 O314 1.273 . S
C297 O315 1.257 . S
C298 O296 1.255 . S
C298 O299 1.247 . S
O299 C298 1.247 . S
C300 O312 1.242 . S
C300 O313 1.258 . S
C301 C297 1.503 . S
C301 C302 1.379 . S
C301 C306 1.392 . S
C302 C301 1.379 . S
C302 C303 1.404 . S
C302 H316 0.929 . S
C303 C302 1.404 . S
C303 C304 1.389 . S
C304 C303 1.389 . S
C304 C305 1.399 . S
C304 H317 0.931 . S
C305 C304 1.399 . S
C305 C306 1.390 . S
C306 C301 1.392 . S
C306 C305 1.390 . S
C306 H318 0.929 . S
O307 Tb291 2.326 . S
O307 C295 1.242 . S
O308 Eu292 2.324 . S
O308 C295 1.258 . S
O309 Tb291 2.500 . S
O309 C311 1.273 . S
O310 Tb291 2.473 . S
O310 C311 1.257 . S
C311 O309 1.273 . S
C311 O310 1.257 . S
O312 Eu292 2.326 . S
O312 C300 1.242 . S
O313 Tb291 2.324 . S
O313 C300 1.258 . S
O314 Eu292 2.500 . S
O314 C297 1.273 . S
O315 Eu292 2.473 . S
O315 C297 1.257 . S
H316 C302 0.929 . S
H317 C304 0.931 . S
H318 C306 0.929 . S
O319 Tb320 2.292 . S
O319 C322 1.255 . S
Tb320 O319 2.292 . S
Tb320 O336 2.326 . S
Tb320 O338 2.500 . S
Tb320 O339 2.473 . S
Tb320 O342 2.324 . S
Eu321 O325 2.292 . S
Eu321 C326 2.852 . S
Eu321 O337 2.324 . S
Eu321 O341 2.326 . S
Eu321 O343 2.500 . S
Eu321 O344 2.473 . S
C322 O319 1.255 . S
C322 O323 1.247 . S
O323 C322 1.247 . S
C324 O336 1.242 . S
C324 O337 1.258 . S
O325 Eu321 2.292 . S
O325 C327 1.255 . S
C326 Eu321 2.852 . S
C326 C330 1.503 . S
C326 O343 1.273 . S
C326 O344 1.257 . S
C327 O325 1.255 . S
C327 O328 1.247 . S
O328 C327 1.247 . S
C329 O341 1.242 . S
C329 O342 1.258 . S
C330 C326 1.503 . S
C330 C331 1.379 . S
C330 C335 1.392 . S
C331 C330 1.379 . S
C331 C332 1.404 . S
C331 H345 0.929 . S
C332 C331 1.404 . S
C332 C333 1.389 . S
C333 C332 1.389 . S
C333 C334 1.399 . S
C333 H346 0.931 . S
C334 C333 1.399 . S
C334 C335 1.390 . S
C335 C330 1.392 . S
C335 C334 1.390 . S
C335 H347 0.929 . S
O336 Tb320 2.326 . S
O336 C324 1.242 . S
O337 Eu321 2.324 . S
O337 C324 1.258 . S
O338 Tb320 2.500 . S
O338 C340 1.273 . S
O339 Tb320 2.473 . S
O339 C340 1.257 . S
C340 O338 1.273 . S
C340 O339 1.257 . S
O341 Eu321 2.326 . S
O341 C329 1.242 . S
O342 Tb320 2.324 . S
O342 C329 1.258 . S
O343 Eu321 2.500 . S
O343 C326 1.273 . S
O344 Eu321 2.473 . S
O344 C326 1.257 . S
H345 C331 0.929 . S
H346 C333 0.931 . S
H347 C335 0.929 . S
O348 Tb349 2.292 . S
O348 C351 1.255 . S
Tb349 O348 2.292 . S
Tb349 O365 2.326 . S
Tb349 O367 2.500 . S
Tb349 O368 2.473 . S
Tb349 O371 2.324 . S
Eu350 O354 2.292 . S
Eu350 C355 2.852 . S
Eu350 O366 2.324 . S
Eu350 O370 2.326 . S
Eu350 O372 2.500 . S
Eu350 O373 2.473 . S
C351 O348 1.255 . S
C351 O352 1.247 . S
O352 C351 1.247 . S
C353 O365 1.242 . S
C353 O366 1.258 . S
O354 Eu350 2.292 . S
O354 C356 1.255 . S
C355 Eu350 2.852 . S
C355 C359 1.503 . S
C355 O372 1.273 . S
C355 O373 1.257 . S
C356 O354 1.255 . S
C356 O357 1.247 . S
O357 C356 1.247 . S
C358 O370 1.242 . S
C358 O371 1.258 . S
C359 C355 1.503 . S
C359 C360 1.379 . S
C359 C364 1.392 . S
C360 C359 1.379 . S
C360 C361 1.404 . S
C360 H374 0.929 . S
C361 C360 1.404 . S
C361 C362 1.389 . S
C362 C361 1.389 . S
C362 C363 1.399 . S
C362 H375 0.931 . S
C363 C362 1.399 . S
C363 C364 1.390 . S
C364 C359 1.392 . S
C364 C363 1.390 . S
C364 H376 0.929 . S
O365 Tb349 2.326 . S
O365 C353 1.242 . S
O366 Eu350 2.324 . S
O366 C353 1.258 . S
O367 Tb349 2.500 . S
O367 C369 1.273 . S
O368 Tb349 2.473 . S
O368 C369 1.257 . S
C369 O367 1.273 . S
C369 O368 1.257 . S
O370 Eu350 2.326 . S
O370 C358 1.242 . S
O371 Tb349 2.324 . S
O371 C358 1.258 . S
O372 Eu350 2.500 . S
O372 C355 1.273 . S
O373 Eu350 2.473 . S
O373 C355 1.257 . S
H374 C360 0.929 . S
H375 C362 0.931 . S
H376 C364 0.929 . S
O377 Tb378 2.292 . S
O377 C380 1.255 . S
Tb378 O377 2.292 . S
Tb378 O394 2.326 . S
Tb378 O396 2.500 . S
Tb378 O397 2.473 . S
Tb378 O400 2.324 . S
Eu379 O383 2.292 . S
Eu379 C384 2.852 . S
Eu379 O395 2.324 . S
Eu379 O399 2.326 . S
Eu379 O401 2.500 . S
Eu379 O402 2.473 . S
C380 O377 1.255 . S
C380 O381 1.247 . S
O381 C380 1.247 . S
C382 O394 1.242 . S
C382 O395 1.258 . S
O383 Eu379 2.292 . S
O383 C385 1.255 . S
C384 Eu379 2.852 . S
C384 C388 1.503 . S
C384 O401 1.273 . S
C384 O402 1.257 . S
C385 O383 1.255 . S
C385 O386 1.247 . S
O386 C385 1.247 . S
C387 O399 1.242 . S
C387 O400 1.258 . S
C388 C384 1.503 . S
C388 C389 1.379 . S
C388 C393 1.392 . S
C389 C388 1.379 . S
C389 C390 1.404 . S
C389 H403 0.929 . S
C390 C389 1.404 . S
C390 C391 1.389 . S
C391 C390 1.389 . S
C391 C392 1.399 . S
C391 H404 0.931 . S
C392 C391 1.399 . S
C392 C393 1.390 . S
C393 C388 1.392 . S
C393 C392 1.390 . S
C393 H405 0.929 . S
O394 Tb378 2.326 . S
O394 C382 1.242 . S
O395 Eu379 2.324 . S
O395 C382 1.258 . S
O396 Tb378 2.500 . S
O396 C398 1.273 . S
O397 Tb378 2.473 . S
O397 C398 1.257 . S
C398 O396 1.273 . S
C398 O397 1.257 . S
O399 Eu379 2.326 . S
O399 C387 1.242 . S
O400 Tb378 2.324 . S
O400 C387 1.258 . S
O401 Eu379 2.500 . S
O401 C384 1.273 . S
O402 Eu379 2.473 . S
O402 C384 1.257 . S
H403 C389 0.929 . S
H404 C391 0.931 . S
H405 C393 0.929 . S
O406 Tb407 2.292 . S
O406 C409 1.255 . S
Tb407 O406 2.292 . S
Tb407 O423 2.326 . S
Tb407 O425 2.500 . S
Tb407 O426 2.473 . S
Tb407 O429 2.324 . S
Eu408 O412 2.292 . S
Eu408 C413 2.852 . S
Eu408 O424 2.324 . S
Eu408 O428 2.326 . S
Eu408 O430 2.500 . S
Eu408 O431 2.473 . S
C409 O406 1.255 . S
C409 O410 1.247 . S
O410 C409 1.247 . S
C411 O423 1.242 . S
C411 O424 1.258 . S
O412 Eu408 2.292 . S
O412 C414 1.255 . S
C413 Eu408 2.852 . S
C413 C417 1.503 . S
C413 O430 1.273 . S
C413 O431 1.257 . S
C414 O412 1.255 . S
C414 O415 1.247 . S
O415 C414 1.247 . S
C416 O428 1.242 . S
C416 O429 1.258 . S
C417 C413 1.503 . S
C417 C418 1.379 . S
C417 C422 1.392 . S
C418 C417 1.379 . S
C418 C419 1.404 . S
C418 H432 0.929 . S
C419 C418 1.404 . S
C419 C420 1.389 . S
C420 C419 1.389 . S
C420 C421 1.399 . S
C420 H433 0.931 . S
C421 C420 1.399 . S
C421 C422 1.390 . S
C422 C417 1.392 . S
C422 C421 1.390 . S
C422 H434 0.929 . S
O423 Tb407 2.326 . S
O423 C411 1.242 . S
O424 Eu408 2.324 . S
O424 C411 1.258 . S
O425 Tb407 2.500 . S
O425 C427 1.273 . S
O426 Tb407 2.473 . S
O426 C427 1.257 . S
C427 O425 1.273 . S
C427 O426 1.257 . S
O428 Eu408 2.326 . S
O428 C416 1.242 . S
O429 Tb407 2.324 . S
O429 C416 1.258 . S
O430 Eu408 2.500 . S
O430 C413 1.273 . S
O431 Eu408 2.473 . S
O431 C413 1.257 . S
H432 C418 0.929 . S
H433 C420 0.931 . S
H434 C422 0.929 . S
O435 Tb436 2.292 . S
O435 C438 1.255 . S
Tb436 O435 2.292 . S
Tb436 O452 2.326 . S
Tb436 O454 2.500 . S
Tb436 O455 2.473 . S
Tb436 O458 2.324 . S
Eu437 O441 2.292 . S
Eu437 C442 2.852 . S
Eu437 O453 2.324 . S
Eu437 O457 2.326 . S
Eu437 O459 2.500 . S
Eu437 O460 2.473 . S
C438 O435 1.255 . S
C438 O439 1.247 . S
O439 C438 1.247 . S
C440 O452 1.242 . S
C440 O453 1.258 . S
O441 Eu437 2.292 . S
O441 C443 1.255 . S
C442 Eu437 2.852 . S
C442 C446 1.503 . S
C442 O459 1.273 . S
C442 O460 1.257 . S
C443 O441 1.255 . S
C443 O444 1.247 . S
O444 C443 1.247 . S
C445 O457 1.242 . S
C445 O458 1.258 . S
C446 C442 1.503 . S
C446 C447 1.379 . S
C446 C451 1.392 . S
C447 C446 1.379 . S
C447 C448 1.404 . S
C447 H461 0.929 . S
C448 C447 1.404 . S
C448 C449 1.389 . S
C449 C448 1.389 . S
C449 C450 1.399 . S
C449 H462 0.931 . S
C450 C449 1.399 . S
C450 C451 1.390 . S
C451 C446 1.392 . S
C451 C450 1.390 . S
C451 H463 0.929 . S
O452 Tb436 2.326 . S
O452 C440 1.242 . S
O453 Eu437 2.324 . S
O453 C440 1.258 . S
O454 Tb436 2.500 . S
O454 C456 1.273 . S
O455 Tb436 2.473 . S
O455 C456 1.257 . S
C456 O454 1.273 . S
C456 O455 1.257 . S
O457 Eu437 2.326 . S
O457 C445 1.242 . S
O458 Tb436 2.324 . S
O458 C445 1.258 . S
O459 Eu437 2.500 . S
O459 C442 1.273 . S
O460 Eu437 2.473 . S
O460 C442 1.257 . S
H461 C447 0.929 . S
H462 C449 0.931 . S
H463 C451 0.929 . S
O464 Tb465 2.292 . S
O464 C467 1.255 . S
Tb465 O464 2.292 . S
Tb465 O481 2.326 . S
Tb465 O483 2.500 . S
Tb465 O484 2.473 . S
Tb465 O487 2.324 . S
Eu466 O470 2.292 . S
Eu466 C471 2.852 . S
Eu466 O482 2.324 . S
Eu466 O486 2.326 . S
Eu466 O488 2.500 . S
Eu466 O489 2.473 . S
C467 O464 1.255 . S
C467 O468 1.247 . S
O468 C467 1.247 . S
C469 O481 1.242 . S
C469 O482 1.258 . S
O470 Eu466 2.292 . S
O470 C472 1.255 . S
C471 Eu466 2.852 . S
C471 C475 1.503 . S
C471 O488 1.273 . S
C471 O489 1.257 . S
C472 O470 1.255 . S
C472 O473 1.247 . S
O473 C472 1.247 . S
C474 O486 1.242 . S
C474 O487 1.258 . S
C475 C471 1.503 . S
C475 C476 1.379 . S
C475 C480 1.392 . S
C476 C475 1.379 . S
C476 C477 1.404 . S
C476 H490 0.929 . S
C477 C476 1.404 . S
C477 C478 1.389 . S
C478 C477 1.389 . S
C478 C479 1.399 . S
C478 H491 0.931 . S
C479 C478 1.399 . S
C479 C480 1.390 . S
C480 C475 1.392 . S
C480 C479 1.390 . S
C480 H492 0.929 . S
O481 Tb465 2.326 . S
O481 C469 1.242 . S
O482 Eu466 2.324 . S
O482 C469 1.258 . S
O483 Tb465 2.500 . S
O483 C485 1.273 . S
O484 Tb465 2.473 . S
O484 C485 1.257 . S
C485 O483 1.273 . S
C485 O484 1.257 . S
O486 Eu466 2.326 . S
O486 C474 1.242 . S
O487 Tb465 2.324 . S
O487 C474 1.258 . S
O488 Eu466 2.500 . S
O488 C471 1.273 . S
O489 Eu466 2.473 . S
O489 C471 1.257 . S
H490 C476 0.929 . S
H491 C478 0.931 . S
H492 C480 0.929 . S
O493 Tb494 2.292 . S
O493 C496 1.255 . S
Tb494 O493 2.292 . S
Tb494 O510 2.326 . S
Tb494 O512 2.500 . S
Tb494 O513 2.473 . S
Tb494 O516 2.324 . S
Eu495 O499 2.292 . S
Eu495 C500 2.852 . S
Eu495 O511 2.324 . S
Eu495 O515 2.326 . S
Eu495 O517 2.500 . S
Eu495 O518 2.473 . S
C496 O493 1.255 . S
C496 O497 1.247 . S
O497 C496 1.247 . S
C498 O510 1.242 . S
C498 O511 1.258 . S
O499 Eu495 2.292 . S
O499 C501 1.255 . S
C500 Eu495 2.852 . S
C500 C504 1.503 . S
C500 O517 1.273 . S
C500 O518 1.257 . S
C501 O499 1.255 . S
C501 O502 1.247 . S
O502 C501 1.247 . S
C503 O515 1.242 . S
C503 O516 1.258 . S
C504 C500 1.503 . S
C504 C505 1.379 . S
C504 C509 1.392 . S
C505 C504 1.379 . S
C505 C506 1.404 . S
C505 H519 0.929 . S
C506 C505 1.404 . S
C506 C507 1.389 . S
C507 C506 1.389 . S
C507 C508 1.399 . S
C507 H520 0.931 . S
C508 C507 1.399 . S
C508 C509 1.390 . S
C509 C504 1.392 . S
C509 C508 1.390 . S
C509 H521 0.929 . S
O510 Tb494 2.326 . S
O510 C498 1.242 . S
O511 Eu495 2.324 . S
O511 C498 1.258 . S
O512 Tb494 2.500 . S
O512 C514 1.273 . S
O513 Tb494 2.473 . S
O513 C514 1.257 . S
C514 O512 1.273 . S
C514 O513 1.257 . S
O515 Eu495 2.326 . S
O515 C503 1.242 . S
O516 Tb494 2.324 . S
O516 C503 1.258 . S
O517 Eu495 2.500 . S
O517 C500 1.273 . S
O518 Eu495 2.473 . S
O518 C500 1.257 . S
H519 C505 0.929 . S
H520 C507 0.931 . S
H521 C509 0.929 . S
O522 Tb523 2.292 . S
O522 C525 1.255 . S
Tb523 O522 2.292 . S
Tb523 O539 2.326 . S
Tb523 O541 2.500 . S
Tb523 O542 2.473 . S
Tb523 O545 2.324 . S
Eu524 O528 2.292 . S
Eu524 C529 2.852 . S
Eu524 O540 2.324 . S
Eu524 O544 2.326 . S
Eu524 O546 2.500 . S
Eu524 O547 2.473 . S
C525 O522 1.255 . S
C525 O526 1.247 . S
O526 C525 1.247 . S
C527 O539 1.242 . S
C527 O540 1.258 . S
O528 Eu524 2.292 . S
O528 C530 1.255 . S
C529 Eu524 2.852 . S
C529 C533 1.503 . S
C529 O546 1.273 . S
C529 O547 1.257 . S
C530 O528 1.255 . S
C530 O531 1.247 . S
O531 C530 1.247 . S
C532 O544 1.242 . S
C532 O545 1.258 . S
C533 C529 1.503 . S
C533 C534 1.379 . S
C533 C538 1.392 . S
C534 C533 1.379 . S
C534 C535 1.404 . S
C534 H548 0.929 . S
C535 C534 1.404 . S
C535 C536 1.389 . S
C536 C535 1.389 . S
C536 C537 1.399 . S
C536 H549 0.931 . S
C537 C536 1.399 . S
C537 C538 1.390 . S
C538 C533 1.392 . S
C538 C537 1.390 . S
C538 H550 0.929 . S
O539 Tb523 2.326 . S
O539 C527 1.242 . S
O540 Eu524 2.324 . S
O540 C527 1.258 . S
O541 Tb523 2.500 . S
O541 C543 1.273 . S
O542 Tb523 2.473 . S
O542 C543 1.257 . S
C543 O541 1.273 . S
C543 O542 1.257 . S
O544 Eu524 2.326 . S
O544 C532 1.242 . S
O545 Tb523 2.324 . S
O545 C532 1.258 . S
O546 Eu524 2.500 . S
O546 C529 1.273 . S
O547 Eu524 2.473 . S
O547 C529 1.257 . S
H548 C534 0.929 . S
H549 C536 0.931 . S
H550 C538 0.929 . S
O551 Tb552 2.292 . S
O551 C554 1.255 . S
Tb552 O551 2.292 . S
Tb552 O568 2.326 . S
Tb552 O570 2.500 . S
Tb552 O571 2.473 . S
Tb552 O574 2.324 . S
Eu553 O557 2.292 . S
Eu553 C558 2.852 . S
Eu553 O569 2.324 . S
Eu553 O573 2.326 . S
Eu553 O575 2.500 . S
Eu553 O576 2.473 . S
C554 O551 1.255 . S
C554 O555 1.247 . S
O555 C554 1.247 . S
C556 O568 1.242 . S
C556 O569 1.258 . S
O557 Eu553 2.292 . S
O557 C559 1.255 . S
C558 Eu553 2.852 . S
C558 C562 1.503 . S
C558 O575 1.273 . S
C558 O576 1.257 . S
C559 O557 1.255 . S
C559 O560 1.247 . S
O560 C559 1.247 . S
C561 O573 1.242 . S
C561 O574 1.258 . S
C562 C558 1.503 . S
C562 C563 1.379 . S
C562 C567 1.392 . S
C563 C562 1.379 . S
C563 C564 1.404 . S
C563 H577 0.929 . S
C564 C563 1.404 . S
C564 C565 1.389 . S
C565 C564 1.389 . S
C565 C566 1.399 . S
C565 H578 0.931 . S
C566 C565 1.399 . S
C566 C567 1.390 . S
C567 C562 1.392 . S
C567 C566 1.390 . S
C567 H579 0.929 . S
O568 Tb552 2.326 . S
O568 C556 1.242 . S
O569 Eu553 2.324 . S
O569 C556 1.258 . S
O570 Tb552 2.500 . S
O570 C572 1.273 . S
O571 Tb552 2.473 . S
O571 C572 1.257 . S
C572 O570 1.273 . S
C572 O571 1.257 . S
O573 Eu553 2.326 . S
O573 C561 1.242 . S
O574 Tb552 2.324 . S
O574 C561 1.258 . S
O575 Eu553 2.500 . S
O575 C558 1.273 . S
O576 Eu553 2.473 . S
O576 C558 1.257 . S
H577 C563 0.929 . S
H578 C565 0.931 . S
H579 C567 0.929 . S
O580 Tb581 2.292 . S
O580 C583 1.255 . S
Tb581 O580 2.292 . S
Tb581 O597 2.326 . S
Tb581 O599 2.500 . S
Tb581 O600 2.473 . S
Tb581 O603 2.324 . S
Eu582 O586 2.292 . S
Eu582 C587 2.852 . S
Eu582 O598 2.324 . S
Eu582 O602 2.326 . S
Eu582 O604 2.500 . S
Eu582 O605 2.473 . S
C583 O580 1.255 . S
C583 O584 1.247 . S
O584 C583 1.247 . S
C585 O597 1.242 . S
C585 O598 1.258 . S
O586 Eu582 2.292 . S
O586 C588 1.255 . S
C587 Eu582 2.852 . S
C587 C591 1.503 . S
C587 O604 1.273 . S
C587 O605 1.257 . S
C588 O586 1.255 . S
C588 O589 1.247 . S
O589 C588 1.247 . S
C590 O602 1.242 . S
C590 O603 1.258 . S
C591 C587 1.503 . S
C591 C592 1.379 . S
C591 C596 1.392 . S
C592 C591 1.379 . S
C592 C593 1.404 . S
C592 H606 0.929 . S
C593 C592 1.404 . S
C593 C594 1.389 . S
C594 C593 1.389 . S
C594 C595 1.399 . S
C594 H607 0.931 . S
C595 C594 1.399 . S
C595 C596 1.390 . S
C596 C591 1.392 . S
C596 C595 1.390 . S
C596 H608 0.929 . S
O597 Tb581 2.326 . S
O597 C585 1.242 . S
O598 Eu582 2.324 . S
O598 C585 1.258 . S
O599 Tb581 2.500 . S
O599 C601 1.273 . S
O600 Tb581 2.473 . S
O600 C601 1.257 . S
C601 O599 1.273 . S
C601 O600 1.257 . S
O602 Eu582 2.326 . S
O602 C590 1.242 . S
O603 Tb581 2.324 . S
O603 C590 1.258 . S
O604 Eu582 2.500 . S
O604 C587 1.273 . S
O605 Eu582 2.473 . S
O605 C587 1.257 . S
H606 C592 0.929 . S
H607 C594 0.931 . S
H608 C596 0.929 . S
O609 Tb610 2.292 . S
O609 C612 1.255 . S
Tb610 O609 2.292 . S
Tb610 O626 2.326 . S
Tb610 O628 2.500 . S
Tb610 O629 2.473 . S
Tb610 O632 2.324 . S
Eu611 O615 2.292 . S
Eu611 C616 2.852 . S
Eu611 O627 2.324 . S
Eu611 O631 2.326 . S
Eu611 O633 2.500 . S
Eu611 O634 2.473 . S
C612 O609 1.255 . S
C612 O613 1.247 . S
O613 C612 1.247 . S
C614 O626 1.242 . S
C614 O627 1.258 . S
O615 Eu611 2.292 . S
O615 C617 1.255 . S
C616 Eu611 2.852 . S
C616 C620 1.503 . S
C616 O633 1.273 . S
C616 O634 1.257 . S
C617 O615 1.255 . S
C617 O618 1.247 . S
O618 C617 1.247 . S
C619 O631 1.242 . S
C619 O632 1.258 . S
C620 C616 1.503 . S
C620 C621 1.379 . S
C620 C625 1.392 . S
C621 C620 1.379 . S
C621 C622 1.404 . S
C621 H635 0.929 . S
C622 C621 1.404 . S
C622 C623 1.389 . S
C623 C622 1.389 . S
C623 C624 1.399 . S
C623 H636 0.931 . S
C624 C623 1.399 . S
C624 C625 1.390 . S
C625 C620 1.392 . S
C625 C624 1.390 . S
C625 H637 0.929 . S
O626 Tb610 2.326 . S
O626 C614 1.242 . S
O627 Eu611 2.324 . S
O627 C614 1.258 . S
O628 Tb610 2.500 . S
O628 C630 1.273 . S
O629 Tb610 2.473 . S
O629 C630 1.257 . S
C630 O628 1.273 . S
C630 O629 1.257 . S
O631 Eu611 2.326 . S
O631 C619 1.242 . S
O632 Tb610 2.324 . S
O632 C619 1.258 . S
O633 Eu611 2.500 . S
O633 C616 1.273 . S
O634 Eu611 2.473 . S
O634 C616 1.257 . S
H635 C621 0.929 . S
H636 C623 0.931 . S
H637 C625 0.929 . S
O638 Tb639 2.292 . S
O638 C641 1.255 . S
Tb639 O638 2.292 . S
Tb639 O655 2.326 . S
Tb639 O657 2.500 . S
Tb639 O658 2.473 . S
Tb639 O661 2.324 . S
Eu640 O644 2.292 . S
Eu640 C645 2.852 . S
Eu640 O656 2.324 . S
Eu640 O660 2.326 . S
Eu640 O662 2.500 . S
Eu640 O663 2.473 . S
C641 O638 1.255 . S
C641 O642 1.247 . S
O642 C641 1.247 . S
C643 O655 1.242 . S
C643 O656 1.258 . S
O644 Eu640 2.292 . S
O644 C646 1.255 . S
C645 Eu640 2.852 . S
C645 C649 1.503 . S
C645 O662 1.273 . S
C645 O663 1.257 . S
C646 O644 1.255 . S
C646 O647 1.247 . S
O647 C646 1.247 . S
C648 O660 1.242 . S
C648 O661 1.258 . S
C649 C645 1.503 . S
C649 C650 1.379 . S
C649 C654 1.392 . S
C650 C649 1.379 . S
C650 C651 1.404 . S
C650 H664 0.929 . S
C651 C650 1.404 . S
C651 C652 1.389 . S
C652 C651 1.389 . S
C652 C653 1.399 . S
C652 H665 0.931 . S
C653 C652 1.399 . S
C653 C654 1.390 . S
C654 C649 1.392 . S
C654 C653 1.390 . S
C654 H666 0.929 . S
O655 Tb639 2.326 . S
O655 C643 1.242 . S
O656 Eu640 2.324 . S
O656 C643 1.258 . S
O657 Tb639 2.500 . S
O657 C659 1.273 . S
O658 Tb639 2.473 . S
O658 C659 1.257 . S
C659 O657 1.273 . S
C659 O658 1.257 . S
O660 Eu640 2.326 . S
O660 C648 1.242 . S
O661 Tb639 2.324 . S
O661 C648 1.258 . S
O662 Eu640 2.500 . S
O662 C645 1.273 . S
O663 Eu640 2.473 . S
O663 C645 1.257 . S
H664 C650 0.929 . S
H665 C652 0.931 . S
H666 C654 0.929 . S
O667 Tb668 2.292 . S
O667 C670 1.255 . S
Tb668 O667 2.292 . S
Tb668 O684 2.326 . S
Tb668 O686 2.500 . S
Tb668 O687 2.473 . S
Tb668 O690 2.324 . S
Eu669 O673 2.292 . S
Eu669 C674 2.852 . S
Eu669 O685 2.324 . S
Eu669 O689 2.326 . S
Eu669 O691 2.500 . S
Eu669 O692 2.473 . S
C670 O667 1.255 . S
C670 O671 1.247 . S
O671 C670 1.247 . S
C672 O684 1.242 . S
C672 O685 1.258 . S
O673 Eu669 2.292 . S
O673 C675 1.255 . S
C674 Eu669 2.852 . S
C674 C678 1.503 . S
C674 O691 1.273 . S
C674 O692 1.257 . S
C675 O673 1.255 . S
C675 O676 1.247 . S
O676 C675 1.247 . S
C677 O689 1.242 . S
C677 O690 1.258 . S
C678 C674 1.503 . S
C678 C679 1.379 . S
C678 C683 1.392 . S
C679 C678 1.379 . S
C679 C680 1.404 . S
C679 H693 0.929 . S
C680 C679 1.404 . S
C680 C681 1.389 . S
C681 C680 1.389 . S
C681 C682 1.399 . S
C681 H694 0.931 . S
C682 C681 1.399 . S
C682 C683 1.390 . S
C683 C678 1.392 . S
C683 C682 1.390 . S
C683 H695 0.929 . S
O684 Tb668 2.326 . S
O684 C672 1.242 . S
O685 Eu669 2.324 . S
O685 C672 1.258 . S
O686 Tb668 2.500 . S
O686 C688 1.273 . S
O687 Tb668 2.473 . S
O687 C688 1.257 . S
C688 O686 1.273 . S
C688 O687 1.257 . S
O689 Eu669 2.326 . S
O689 C677 1.242 . S
O690 Tb668 2.324 . S
O690 C677 1.258 . S
O691 Eu669 2.500 . S
O691 C674 1.273 . S
O692 Eu669 2.473 . S
O692 C674 1.257 . S
H693 C679 0.929 . S
H694 C681 0.931 . S
H695 C683 0.929 . S
H696 C704 0.929 . S
H697 C706 0.930 . S
H698 C708 0.930 1_565 S
H699 C711 0.929 . S
H700 C714 0.930 . S
H701 C716 0.960 . S
H702 C716 0.960 . S
H703 C716 0.960 . S
C704 H696 0.929 . S
C704 C705 1.377 . S
C704 C706 1.384 . S
C705 C704 1.377 . S
C705 C711 1.390 . S
C706 H697 0.930 . S
C706 C704 1.384 . S
C706 C707 1.372 1_545 S
C707 C706 1.372 1_565 S
C707 C708 1.400 1_565 S
C707 C712 1.490 . S
C708 H698 0.930 1_545 S
C708 C707 1.400 1_545 S
C708 C711 1.386 . S
H709 C725 0.930 . S
H710 C726 0.931 . S
C711 H699 0.929 . S
C711 C705 1.390 . S
C711 C708 1.386 . S
C712 C707 1.490 . S
C712 C714 1.395 . S
C712 C715 1.403 . S
H713 C719 0.930 . S
C714 H700 0.930 . S
C714 C712 1.395 . S
C714 C717 1.403 . S
C715 C712 1.403 . S
C715 C716 1.524 . S
C715 C719 1.400 . S
C716 H701 0.960 . S
C716 H702 0.960 . S
C716 H703 0.960 . S
C716 C715 1.524 . S
C717 C714 1.403 . S
C717 C718 1.392 . S
C717 C721 1.495 . S
C718 C717 1.392 . S
C718 C719 1.385 . S
C718 C720 1.478 . S
C719 H713 0.930 . S
C719 C715 1.400 . S
C719 C718 1.385 . S
C720 C718 1.478 . S
C720 C722 1.381 . S
C720 C726 1.383 . S
C721 C717 1.495 . S
C721 H727 0.959 . S
C721 H728 0.961 . S
C721 H729 0.960 . S
C722 C720 1.381 . S
C722 C723 1.394 . S
C722 H730 0.930 . S
C723 C722 1.394 . S
C723 C724 1.383 . S
C723 H731 0.929 . S
C724 C723 1.383 . S
C724 C725 1.377 . S
C725 H709 0.930 . S
C725 C724 1.377 . S
C725 C726 1.379 . S
C726 H710 0.931 . S
C726 C720 1.383 . S
C726 C725 1.379 . S
H727 C721 0.959 . S
H728 C721 0.961 . S
H729 C721 0.960 . S
H730 C722 0.930 . S
H731 C723 0.929 . S
H732 C740 0.929 . S
H733 C742 0.930 . S
H734 C744 0.930 . S
H735 C747 0.929 . S
H736 C750 0.930 . S
H737 C752 0.960 . S
H738 C752 0.960 . S
H739 C752 0.960 . S
C740 H732 0.929 . S
C740 C741 1.377 . S
C740 C742 1.384 . S
C741 C740 1.377 . S
C741 C747 1.390 . S
C742 H733 0.930 . S
C742 C740 1.384 . S
C742 C743 1.372 . S
C743 C742 1.372 . S
C743 C744 1.400 . S
C743 C748 1.490 . S
C744 H734 0.930 . S
C744 C743 1.400 . S
C744 C747 1.386 . S
H745 C761 0.930 . S
H746 C762 0.931 . S
C747 H735 0.929 . S
C747 C741 1.390 . S
C747 C744 1.386 . S
C748 C743 1.490 . S
C748 C750 1.395 . S
C748 C751 1.403 . S
H749 C755 0.930 . S
C750 H736 0.930 . S
C750 C748 1.395 . S
C750 C753 1.403 . S
C751 C748 1.403 . S
C751 C752 1.524 . S
C751 C755 1.400 . S
C752 H737 0.960 . S
C752 H738 0.960 . S
C752 H739 0.960 . S
C752 C751 1.524 . S
C753 C750 1.403 . S
C753 C754 1.392 . S
C753 C757 1.495 . S
C754 C753 1.392 . S
C754 C755 1.385 . S
C754 C756 1.478 . S
C755 H749 0.930 . S
C755 C751 1.400 . S
C755 C754 1.385 . S
C756 C754 1.478 . S
C756 C758 1.381 . S
C756 C762 1.383 . S
C757 C753 1.495 . S
C757 H763 0.959 . S
C757 H764 0.961 . S
C757 H765 0.960 . S
C758 C756 1.381 . S
C758 C759 1.394 . S
C758 H766 0.930 . S
C759 C758 1.394 . S
C759 C760 1.383 . S
C759 H767 0.929 . S
C760 C759 1.383 . S
C760 C761 1.377 . S
C761 H745 0.930 . S
C761 C760 1.377 . S
C761 C762 1.379 . S
C762 H746 0.931 . S
C762 C756 1.383 . S
C762 C761 1.379 . S
H763 C757 0.959 . S
H764 C757 0.961 . S
H765 C757 0.960 . S
H766 C758 0.930 . S
H767 C759 0.929 . S
H768 C776 0.929 . S
H769 C778 0.930 1_455 S
H770 C780 0.935 . S
H771 C783 0.929 . S
H772 C786 0.930 . S
H773 C788 0.960 . S
H774 C788 0.960 . S
H775 C788 0.960 . S
C776 H768 0.929 . S
C776 C777 1.377 . S
C776 C778 1.384 . S
C777 C776 1.377 . S
C777 C783 1.390 . S
C778 H769 0.930 1_655 S
C778 C776 1.384 . S
C778 C779 1.372 1_655 S
C779 C778 1.372 1_455 S
C779 C780 1.400 1_455 S
C779 C784 1.490 . S
C780 H770 0.935 . S
C780 C779 1.400 1_655 S
C780 C783 1.386 . S
H781 C797 0.930 . S
H782 C798 0.931 . S
C783 H771 0.929 . S
C783 C777 1.390 . S
C783 C780 1.386 . S
C784 C779 1.490 . S
C784 C786 1.395 . S
C784 C787 1.403 . S
H785 C791 0.930 . S
C786 H772 0.930 . S
C786 C784 1.395 . S
C786 C789 1.403 . S
C787 C784 1.403 . S
C787 C788 1.524 . S
C787 C791 1.400 . S
C788 H773 0.960 . S
C788 H774 0.960 . S
C788 H775 0.960 . S
C788 C787 1.524 . S
C789 C786 1.403 . S
C789 C790 1.392 . S
C789 C793 1.495 . S
C790 C789 1.392 . S
C790 C791 1.385 . S
C790 C792 1.478 . S
C791 H785 0.930 . S
C791 C787 1.400 . S
C791 C790 1.385 . S
C792 C790 1.478 . S
C792 C794 1.381 . S
C792 C798 1.383 . S
C793 C789 1.495 . S
C793 H799 0.959 . S
C793 H800 0.961 . S
C793 H801 0.960 . S
C794 C792 1.381 . S
C794 C795 1.394 . S
C794 H802 0.930 . S
C795 C794 1.394 . S
C795 C796 1.383 . S
C795 H803 0.929 . S
C796 C795 1.383 . S
C796 C797 1.377 . S
C797 H781 0.930 . S
C797 C796 1.377 . S
C797 C798 1.379 . S
C798 H782 0.931 . S
C798 C792 1.383 . S
C798 C797 1.379 . S
H799 C793 0.959 . S
H800 C793 0.961 . S
H801 C793 0.960 . S
H802 C794 0.930 . S
H803 C795 0.929 . S
H804 C812 0.929 . S
H805 C814 0.930 . S
H806 C816 0.930 . S
H807 C819 0.929 . S
H808 C822 0.930 . S
H809 C824 0.960 . S
H810 C824 0.960 . S
H811 C824 0.960 . S
C812 H804 0.929 . S
C812 C813 1.377 . S
C812 C814 1.384 . S
C813 C812 1.377 . S
C813 C819 1.390 . S
C814 H805 0.930 . S
C814 C812 1.384 . S
C814 C815 1.372 . S
C815 C814 1.372 . S
C815 C816 1.400 . S
C815 C820 1.490 . S
C816 H806 0.930 . S
C816 C815 1.400 . S
C816 C819 1.386 . S
H817 C833 0.930 . S
H818 C834 0.931 1_545 S
C819 H807 0.929 . S
C819 C813 1.390 . S
C819 C816 1.386 . S
C820 C815 1.490 . S
C820 C822 1.395 . S
C820 C823 1.403 . S
H821 C827 0.930 . S
C822 H808 0.930 . S
C822 C820 1.395 . S
C822 C825 1.403 . S
C823 C820 1.403 . S
C823 C824 1.524 . S
C823 C827 1.400 . S
C824 H809 0.960 . S
C824 H810 0.960 . S
C824 H811 0.960 . S
C824 C823 1.524 . S
C825 C822 1.403 . S
C825 C826 1.392 . S
C825 C829 1.495 . S
C826 C825 1.392 . S
C826 C827 1.385 . S
C826 C828 1.478 . S
C827 H821 0.930 . S
C827 C823 1.400 . S
C827 C826 1.385 . S
C828 C826 1.478 . S
C828 C830 1.381 1_545 S
C828 C834 1.383 1_545 S
C829 C825 1.495 . S
C829 H835 0.959 . S
C829 H836 0.961 . S
C829 H837 0.960 . S
C830 C828 1.381 1_565 S
C830 C831 1.394 . S
C830 H838 0.931 . S
C831 C830 1.394 . S
C831 C832 1.383 . S
C831 H839 0.929 . S
C832 C831 1.383 . S
C832 C833 1.377 . S
C833 H817 0.930 . S
C833 C832 1.377 . S
C833 C834 1.379 . S
C834 H818 0.931 1_565 S
C834 C828 1.383 1_565 S
C834 C833 1.379 . S
H835 C829 0.959 . S
H836 C829 0.961 . S
H837 C829 0.960 . S
H838 C830 0.931 . S
H839 C831 0.929 . S
H840 C848 0.929 . S
H841 C850 0.930 . S
H842 C852 0.930 . S
H843 C855 0.929 . S
H844 C858 0.930 . S
H845 C860 0.960 . S
H846 C860 0.960 . S
H847 C860 0.960 . S
C848 H840 0.929 . S
C848 C849 1.377 . S
C848 C850 1.384 . S
C849 C848 1.377 . S
C849 C855 1.390 . S
C850 H841 0.930 . S
C850 C848 1.384 . S
C850 C851 1.372 . S
C851 C850 1.372 . S
C851 C852 1.400 . S
C851 C856 1.490 . S
C852 H842 0.930 . S
C852 C851 1.400 . S
C852 C855 1.386 . S
H853 C869 0.930 . S
H854 C870 0.931 . S
C855 H843 0.929 . S
C855 C849 1.390 . S
C855 C852 1.386 . S
C856 C851 1.490 . S
C856 C858 1.395 . S
C856 C859 1.403 . S
H857 C863 0.930 . S
C858 H844 0.930 . S
C858 C856 1.395 . S
C858 C861 1.403 . S
C859 C856 1.403 . S
C859 C860 1.524 . S
C859 C863 1.400 . S
C860 H845 0.960 . S
C860 H846 0.960 . S
C860 H847 0.960 . S
C860 C859 1.524 . S
C861 C858 1.403 . S
C861 C862 1.392 . S
C861 C865 1.495 . S
C862 C861 1.392 . S
C862 C863 1.385 . S
C862 C864 1.478 . S
C863 H857 0.930 . S
C863 C859 1.400 . S
C863 C862 1.385 . S
C864 C862 1.478 . S
C864 C866 1.381 . S
C864 C870 1.383 . S
C865 C861 1.495 . S
C865 H871 0.959 . S
C865 H872 0.961 . S
C865 H873 0.960 . S
C866 C864 1.381 . S
C866 C867 1.394 . S
C866 H874 0.930 . S
C867 C866 1.394 . S
C867 C868 1.383 . S
C867 H875 0.929 . S
C868 C867 1.383 . S
C868 C869 1.377 . S
C869 H853 0.930 . S
C869 C868 1.377 . S
C869 C870 1.379 . S
C870 H854 0.931 . S
C870 C864 1.383 . S
C870 C869 1.379 . S
H871 C865 0.959 . S
H872 C865 0.961 . S
H873 C865 0.960 . S
H874 C866 0.930 . S
H875 C867 0.929 . S
H876 C884 0.929 . S
H877 C886 0.930 . S
H878 C888 0.930 1_655 S
H879 C891 0.929 . S
H880 C894 0.930 . S
H881 C896 0.960 . S
H882 C896 0.960 . S
H883 C896 0.960 . S
C884 H876 0.929 . S
C884 C885 1.377 . S
C884 C886 1.384 . S
C885 C884 1.377 . S
C885 C891 1.390 . S
C886 H877 0.930 . S
C886 C884 1.384 . S
C886 C887 1.372 1_455 S
C887 C886 1.372 1_655 S
C887 C888 1.400 1_655 S
C887 C892 1.490 . S
C888 H878 0.930 1_455 S
C888 C887 1.400 1_455 S
C888 C891 1.386 . S
H889 C905 0.930 . S
H890 C906 0.931 . S
C891 H879 0.929 . S
C891 C885 1.390 . S
C891 C888 1.386 . S
C892 C887 1.490 . S
C892 C894 1.395 . S
C892 C895 1.403 . S
H893 C899 0.930 . S
C894 H880 0.930 . S
C894 C892 1.395 . S
C894 C897 1.403 . S
C895 C892 1.403 . S
C895 C896 1.524 . S
C895 C899 1.400 . S
C896 H881 0.960 . S
C896 H882 0.960 . S
C896 H883 0.960 . S
C896 C895 1.524 . S
C897 C894 1.403 . S
C897 C898 1.392 . S
C897 C901 1.495 . S
C898 C897 1.392 . S
C898 C899 1.385 . S
C898 C900 1.478 . S
C899 H893 0.930 . S
C899 C895 1.400 . S
C899 C898 1.385 . S
C900 C898 1.478 . S
C900 C902 1.381 . S
C900 C906 1.383 . S
C901 C897 1.495 . S
C901 H907 0.959 . S
C901 H908 0.961 . S
C901 H909 0.960 . S
C902 C900 1.381 . S
C902 C903 1.394 . S
C902 H910 0.930 . S
C903 C902 1.394 . S
C903 C904 1.383 . S
C903 H911 0.929 . S
C904 C903 1.383 . S
C904 C905 1.377 . S
C905 H889 0.930 . S
C905 C904 1.377 . S
C905 C906 1.379 . S
C906 H890 0.931 . S
C906 C900 1.383 . S
C906 C905 1.379 . S
H907 C901 0.959 . S
H908 C901 0.961 . S
H909 C901 0.960 . S
H910 C902 0.930 . S
H911 C903 0.929 . S
H912 C920 0.929 . S
H913 C922 0.930 . S
H914 C924 0.930 . S
H915 C927 0.929 . S
H916 C930 0.930 . S
H917 C932 0.960 . S
H918 C932 0.960 . S
H919 C932 0.960 . S
C920 H912 0.929 . S
C920 C921 1.377 . S
C920 C922 1.384 . S
C921 C920 1.377 . S
C921 C927 1.390 . S
C922 H913 0.930 . S
C922 C920 1.384 . S
C922 C923 1.372 . S
C923 C922 1.372 . S
C923 C924 1.400 . S
C923 C928 1.490 . S
C924 H914 0.930 . S
C924 C923 1.400 . S
C924 C927 1.386 . S
H925 C941 0.930 . S
H926 C942 0.931 1_455 S
C927 H915 0.929 . S
C927 C921 1.390 . S
C927 C924 1.386 . S
C928 C923 1.490 . S
C928 C930 1.395 . S
C928 C931 1.403 . S
H929 C935 0.930 . S
C930 H916 0.930 . S
C930 C928 1.395 . S
C930 C933 1.403 . S
C931 C928 1.403 . S
C931 C932 1.524 . S
C931 C935 1.400 . S
C932 H917 0.960 . S
C932 H918 0.960 . S
C932 H919 0.960 . S
C932 C931 1.524 . S
C933 C930 1.403 . S
C933 C934 1.392 . S
C933 C937 1.495 . S
C934 C933 1.392 . S
C934 C935 1.385 . S
C934 C936 1.478 . S
C935 H929 0.930 . S
C935 C931 1.400 . S
C935 C934 1.385 . S
C936 C934 1.478 . S
C936 C938 1.381 1_455 S
C936 C942 1.383 1_455 S
C937 C933 1.495 . S
C937 H943 0.959 . S
C937 H944 0.961 . S
C937 H945 0.960 . S
C938 C936 1.381 1_655 S
C938 C939 1.394 . S
C938 H946 0.930 1_655 S
C939 C938 1.394 . S
C939 C940 1.383 . S
C939 H947 0.929 . S
C940 C939 1.383 . S
C940 C941 1.377 . S
C941 H925 0.930 . S
C941 C940 1.377 . S
C941 C942 1.379 . S
C942 H926 0.931 1_655 S
C942 C936 1.383 1_655 S
C942 C941 1.379 . S
H943 C937 0.959 . S
H944 C937 0.961 . S
H945 C937 0.960 . S
H946 C938 0.930 1_455 S
H947 C939 0.929 . S
H948 C956 0.929 . S
H949 C958 0.930 . S
H950 C960 0.930 . S
H951 C963 0.929 . S
H952 C966 0.930 . S
H953 C968 0.960 . S
H954 C968 0.960 . S
H955 C968 0.960 . S
C956 H948 0.929 . S
C956 C957 1.377 . S
C956 C958 1.384 . S
C957 C956 1.377 . S
C957 C963 1.390 . S
C958 H949 0.930 . S
C958 C956 1.384 . S
C958 C959 1.372 . S
C959 C958 1.372 . S
C959 C960 1.400 . S
C959 C964 1.490 . S
C960 H950 0.930 . S
C960 C959 1.400 . S
C960 C963 1.386 . S
H961 C977 0.930 . S
H962 C978 0.931 1_545 S
C963 H951 0.929 . S
C963 C957 1.390 . S
C963 C960 1.386 . S
C964 C959 1.490 . S
C964 C966 1.395 . S
C964 C967 1.403 . S
H965 C971 0.930 . S
C966 H952 0.930 . S
C966 C964 1.395 . S
C966 C969 1.403 . S
C967 C964 1.403 . S
C967 C968 1.524 . S
C967 C971 1.400 . S
C968 H953 0.960 . S
C968 H954 0.960 . S
C968 H955 0.960 . S
C968 C967 1.524 . S
C969 C966 1.403 . S
C969 C970 1.392 . S
C969 C973 1.495 . S
C970 C969 1.392 . S
C970 C971 1.385 . S
C970 C972 1.478 . S
C971 H965 0.930 . S
C971 C967 1.400 . S
C971 C970 1.385 . S
C972 C970 1.478 . S
C972 C974 1.381 1_545 S
C972 C978 1.383 1_545 S
C973 C969 1.495 . S
C973 H979 0.959 . S
C973 H980 0.961 . S
C973 H981 0.960 . S
C974 C972 1.381 1_565 S
C974 C975 1.394 . S
C974 H982 0.930 . S
C975 C974 1.394 . S
C975 C976 1.383 . S
C975 H983 0.929 . S
C976 C975 1.383 . S
C976 C977 1.377 . S
C977 H961 0.930 . S
C977 C976 1.377 . S
C977 C978 1.379 . S
C978 H962 0.931 1_565 S
C978 C972 1.383 1_565 S
C978 C977 1.379 . S
H979 C973 0.959 . S
H980 C973 0.961 . S
H981 C973 0.960 . S
H982 C974 0.930 . S
H983 C975 0.929 . S
H984 C992 0.929 . S
H985 C994 0.930 . S
H986 C996 0.930 . S
H987 C999 0.929 . S
H988 C1002 0.930 . S
H989 C1004 0.960 . S
H990 C1004 0.960 . S
H991 C1004 0.960 . S
C992 H984 0.929 . S
C992 C993 1.377 . S
C992 C994 1.384 . S
C993 C992 1.377 . S
C993 C999 1.390 . S
C994 H985 0.930 . S
C994 C992 1.384 . S
C994 C995 1.372 . S
C995 C994 1.372 . S
C995 C996 1.400 . S
C995 C1000 1.490 . S
C996 H986 0.930 . S
C996 C995 1.400 . S
C996 C999 1.386 . S
H997 C1013 0.930 . S
H998 C1014 0.931 . S
C999 H987 0.929 . S
C999 C993 1.390 . S
C999 C996 1.386 . S
C1000 C995 1.490 . S
C1000 C1002 1.395 . S
C1000 C1003 1.403 . S
H1001 C1007 0.930 . S
C1002 H988 0.930 . S
C1002 C1000 1.395 . S
C1002 C1005 1.403 . S
C1003 C1000 1.403 . S
C1003 C1004 1.524 . S
C1003 C1007 1.400 . S
C1004 H989 0.960 . S
C1004 H990 0.960 . S
C1004 H991 0.960 . S
C1004 C1003 1.524 . S
C1005 C1002 1.403 . S
C1005 C1006 1.392 . S
C1005 C1009 1.495 . S
C1006 C1005 1.392 . S
C1006 C1007 1.385 . S
C1006 C1008 1.478 . S
C1007 H1001 0.930 . S
C1007 C1003 1.400 . S
C1007 C1006 1.385 . S
C1008 C1006 1.478 . S
C1008 C1010 1.381 . S
C1008 C1014 1.383 . S
C1009 C1005 1.495 . S
C1009 H1015 0.959 . S
C1009 H1016 0.961 . S
C1009 H1017 0.960 . S
C1010 C1008 1.381 . S
C1010 C1011 1.394 . S
C1010 H1018 0.930 . S
C1011 C1010 1.394 . S
C1011 C1012 1.383 . S
C1011 H1019 0.929 . S
C1012 C1011 1.383 . S
C1012 C1013 1.377 . S
C1013 H997 0.930 . S
C1013 C1012 1.377 . S
C1013 C1014 1.379 . S
C1014 H998 0.931 . S
C1014 C1008 1.383 . S
C1014 C1013 1.379 . S
H1015 C1009 0.959 . S
H1016 C1009 0.961 . S
H1017 C1009 0.960 . S
H1018 C1010 0.930 . S
H1019 C1011 0.929 . S
H1020 C1028 0.929 . S
H1021 C1030 0.930 . S
H1022 C1032 0.930 1_655 S
H1023 C1035 0.929 . S
H1024 C1038 0.930 . S
H1025 C1040 0.960 . S
H1026 C1040 0.960 . S
H1027 C1040 0.960 . S
C1028 H1020 0.929 . S
C1028 C1029 1.377 . S
C1028 C1030 1.384 . S
C1029 C1028 1.377 . S
C1029 C1035 1.390 . S
C1030 H1021 0.930 . S
C1030 C1028 1.384 . S
C1030 C1031 1.372 1_455 S
C1031 C1030 1.372 1_655 S
C1031 C1032 1.400 1_655 S
C1031 C1036 1.490 . S
C1032 H1022 0.930 1_455 S
C1032 C1031 1.400 1_455 S
C1032 C1035 1.386 . S
H1033 C1049 0.930 . S
H1034 C1050 0.931 . S
C1035 H1023 0.929 . S
C1035 C1029 1.390 . S
C1035 C1032 1.386 . S
C1036 C1031 1.490 . S
C1036 C1038 1.395 . S
C1036 C1039 1.403 . S
H1037 C1043 0.930 . S
C1038 H1024 0.930 . S
C1038 C1036 1.395 . S
C1038 C1041 1.403 . S
C1039 C1036 1.403 . S
C1039 C1040 1.524 . S
C1039 C1043 1.400 . S
C1040 H1025 0.960 . S
C1040 H1026 0.960 . S
C1040 H1027 0.960 . S
C1040 C1039 1.524 . S
C1041 C1038 1.403 . S
C1041 C1042 1.392 . S
C1041 C1045 1.495 . S
C1042 C1041 1.392 . S
C1042 C1043 1.385 . S
C1042 C1044 1.478 . S
C1043 H1037 0.930 . S
C1043 C1039 1.400 . S
C1043 C1042 1.385 . S
C1044 C1042 1.478 . S
C1044 C1046 1.381 . S
C1044 C1050 1.383 . S
C1045 C1041 1.495 . S
C1045 H1051 0.959 . S
C1045 H1052 0.961 . S
C1045 H1053 0.960 . S
C1046 C1044 1.381 . S
C1046 C1047 1.394 . S
C1046 H1054 0.930 . S
C1047 C1046 1.394 . S
C1047 C1048 1.383 . S
C1047 H1055 0.929 . S
C1048 C1047 1.383 . S
C1048 C1049 1.377 . S
C1049 H1033 0.930 . S
C1049 C1048 1.377 . S
C1049 C1050 1.379 . S
C1050 H1034 0.931 . S
C1050 C1044 1.383 . S
C1050 C1049 1.379 . S
H1051 C1045 0.959 . S
H1052 C1045 0.961 . S
H1053 C1045 0.960 . S
H1054 C1046 0.930 . S
H1055 C1047 0.929 . S
H1056 C1064 0.929 . S
H1057 C1066 0.930 . S
H1058 C1068 0.930 . S
H1059 C1071 0.929 . S
H1060 C1074 0.930 . S
H1061 C1076 0.960 . S
H1062 C1076 0.960 . S
H1063 C1076 0.960 . S
C1064 H1056 0.929 . S
C1064 C1065 1.377 . S
C1064 C1066 1.384 . S
C1065 C1064 1.377 . S
C1065 C1071 1.390 . S
C1066 H1057 0.930 . S
C1066 C1064 1.384 . S
C1066 C1067 1.372 . S
C1067 C1066 1.372 . S
C1067 C1068 1.400 . S
C1067 C1072 1.490 . S
C1068 H1058 0.930 . S
C1068 C1067 1.400 . S
C1068 C1071 1.386 . S
H1069 C1085 0.930 . S
H1070 C1086 0.931 1_565 S
C1071 H1059 0.929 . S
C1071 C1065 1.390 . S
C1071 C1068 1.386 . S
C1072 C1067 1.490 . S
C1072 C1074 1.395 . S
C1072 C1075 1.403 . S
H1073 C1079 0.930 . S
C1074 H1060 0.930 . S
C1074 C1072 1.395 . S
C1074 C1077 1.403 . S
C1075 C1072 1.403 . S
C1075 C1076 1.524 . S
C1075 C1079 1.400 . S
C1076 H1061 0.960 . S
C1076 H1062 0.960 . S
C1076 H1063 0.960 . S
C1076 C1075 1.524 . S
C1077 C1074 1.403 . S
C1077 C1078 1.392 . S
C1077 C1081 1.495 . S
C1078 C1077 1.392 . S
C1078 C1079 1.385 . S
C1078 C1080 1.478 . S
C1079 H1073 0.930 . S
C1079 C1075 1.400 . S
C1079 C1078 1.385 . S
C1080 C1078 1.478 . S
C1080 C1082 1.381 1_565 S
C1080 C1086 1.383 1_565 S
C1081 C1077 1.495 . S
C1081 H1087 0.959 . S
C1081 H1088 0.961 . S
C1081 H1089 0.960 . S
C1082 C1080 1.381 1_545 S
C1082 C1083 1.394 . S
C1082 H1090 0.930 . S
C1083 C1082 1.394 . S
C1083 C1084 1.383 . S
C1083 H1091 0.929 . S
C1084 C1083 1.383 . S
C1084 C1085 1.377 . S
C1085 H1069 0.930 . S
C1085 C1084 1.377 . S
C1085 C1086 1.379 . S
C1086 H1070 0.931 1_545 S
C1086 C1080 1.383 1_545 S
C1086 C1085 1.379 . S
H1087 C1081 0.959 . S
H1088 C1081 0.961 . S
H1089 C1081 0.960 . S
H1090 C1082 0.930 . S
H1091 C1083 0.929 . S
H1092 C1100 0.929 . S
H1093 C1102 0.930 . S
H1094 C1104 0.930 . S
H1095 C1107 0.929 . S
H1096 C1110 0.930 . S
H1097 C1112 0.960 . S
H1098 C1112 0.960 . S
H1099 C1112 0.960 . S
C1100 H1092 0.929 . S
C1100 C1101 1.377 . S
C1100 C1102 1.384 . S
C1101 C1100 1.377 . S
C1101 C1107 1.390 . S
C1102 H1093 0.930 . S
C1102 C1100 1.384 . S
C1102 C1103 1.372 . S
C1103 C1102 1.372 . S
C1103 C1104 1.400 . S
C1103 C1108 1.490 . S
C1104 H1094 0.930 . S
C1104 C1103 1.400 . S
C1104 C1107 1.386 . S
H1105 C1121 0.930 . S
H1106 C1122 0.931 . S
C1107 H1095 0.929 . S
C1107 C1101 1.390 . S
C1107 C1104 1.386 . S
C1108 C1103 1.490 . S
C1108 C1110 1.395 . S
C1108 C1111 1.403 . S
H1109 C1115 0.930 . S
C1110 H1096 0.930 . S
C1110 C1108 1.395 . S
C1110 C1113 1.403 . S
C1111 C1108 1.403 . S
C1111 C1112 1.524 . S
C1111 C1115 1.400 . S
C1112 H1097 0.960 . S
C1112 H1098 0.960 . S
C1112 H1099 0.960 . S
C1112 C1111 1.524 . S
C1113 C1110 1.403 . S
C1113 C1114 1.392 . S
C1113 C1117 1.495 . S
C1114 C1113 1.392 . S
C1114 C1115 1.385 . S
C1114 C1116 1.478 . S
C1115 H1109 0.930 . S
C1115 C1111 1.400 . S
C1115 C1114 1.385 . S
C1116 C1114 1.478 . S
C1116 C1118 1.381 . S
C1116 C1122 1.383 . S
C1117 C1113 1.495 . S
C1117 H1123 0.959 . S
C1117 H1124 0.961 . S
C1117 H1125 0.960 . S
C1118 C1116 1.381 . S
C1118 C1119 1.394 . S
C1118 H1126 0.930 . S
C1119 C1118 1.394 . S
C1119 C1120 1.383 . S
C1119 H1127 0.929 . S
C1120 C1119 1.383 . S
C1120 C1121 1.377 . S
C1121 H1105 0.930 . S
C1121 C1120 1.377 . S
C1121 C1122 1.379 . S
C1122 H1106 0.931 . S
C1122 C1116 1.383 . S
C1122 C1121 1.379 . S
H1123 C1117 0.959 . S
H1124 C1117 0.961 . S
H1125 C1117 0.960 . S
H1126 C1118 0.930 . S
H1127 C1119 0.929 . S
H1128 C1136 0.929 . S
H1129 C1138 0.930 . S
H1130 C1140 0.930 . S
H1131 C1143 0.929 . S
H1132 C1146 0.930 . S
H1133 C1148 0.960 . S
H1134 C1148 0.960 . S
H1135 C1148 0.960 . S
C1136 H1128 0.929 . S
C1136 C1137 1.377 . S
C1136 C1138 1.384 . S
C1137 C1136 1.377 . S
C1137 C1143 1.390 . S
C1138 H1129 0.930 . S
C1138 C1136 1.384 . S
C1138 C1139 1.372 . S
C1139 C1138 1.372 . S
C1139 C1140 1.400 . S
C1139 C1144 1.490 . S
C1140 H1130 0.930 . S
C1140 C1139 1.400 . S
C1140 C1143 1.386 . S
H1141 C1157 0.930 . S
H1142 C1158 0.931 1_545 S
C1143 H1131 0.929 . S
C1143 C1137 1.390 . S
C1143 C1140 1.386 . S
C1144 C1139 1.490 . S
C1144 C1146 1.395 . S
C1144 C1147 1.403 . S
H1145 C1151 0.930 . S
C1146 H1132 0.930 . S
C1146 C1144 1.395 . S
C1146 C1149 1.403 . S
C1147 C1144 1.403 . S
C1147 C1148 1.524 . S
C1147 C1151 1.400 . S
C1148 H1133 0.960 . S
C1148 H1134 0.960 . S
C1148 H1135 0.960 . S
C1148 C1147 1.524 . S
C1149 C1146 1.403 . S
C1149 C1150 1.392 . S
C1149 C1153 1.495 . S
C1150 C1149 1.392 . S
C1150 C1151 1.385 . S
C1150 C1152 1.478 . S
C1151 H1145 0.930 . S
C1151 C1147 1.400 . S
C1151 C1150 1.385 . S
C1152 C1150 1.478 . S
C1152 C1154 1.381 1_545 S
C1152 C1158 1.383 1_545 S
C1153 C1149 1.495 . S
C1153 H1159 0.959 . S
C1153 H1160 0.961 . S
C1153 H1161 0.960 . S
C1154 C1152 1.381 1_565 S
C1154 C1155 1.394 . S
C1154 H1162 0.930 1_565 S
C1155 C1154 1.394 . S
C1155 C1156 1.383 . S
C1155 H1163 0.929 . S
C1156 C1155 1.383 . S
C1156 C1157 1.377 . S
C1157 H1141 0.930 . S
C1157 C1156 1.377 . S
C1157 C1158 1.379 . S
C1158 H1142 0.931 1_565 S
C1158 C1152 1.383 1_565 S
C1158 C1157 1.379 . S
H1159 C1153 0.959 . S
H1160 C1153 0.961 . S
H1161 C1153 0.960 . S
H1162 C1154 0.930 1_545 S
H1163 C1155 0.929 . S
H1164 C1172 0.929 . S
H1165 C1174 0.930 . S
H1166 C1176 0.930 . S
H1167 C1179 0.929 . S
H1168 C1182 0.930 . S
H1169 C1184 0.960 . S
H1170 C1184 0.960 . S
H1171 C1184 0.960 . S
C1172 H1164 0.929 . S
C1172 C1173 1.377 . S
C1172 C1174 1.384 . S
C1173 C1172 1.377 . S
C1173 C1179 1.390 . S
C1174 H1165 0.930 . S
C1174 C1172 1.384 . S
C1174 C1175 1.372 . S
C1175 C1174 1.372 . S
C1175 C1176 1.400 . S
C1175 C1180 1.490 . S
C1176 H1166 0.930 . S
C1176 C1175 1.400 . S
C1176 C1179 1.386 . S
H1177 C1193 0.930 . S
H1178 C1194 0.931 . S
C1179 H1167 0.929 . S
C1179 C1173 1.390 . S
C1179 C1176 1.386 . S
C1180 C1175 1.490 . S
C1180 C1182 1.395 . S
C1180 C1183 1.403 . S
H1181 C1187 0.930 . S
C1182 H1168 0.930 . S
C1182 C1180 1.395 . S
C1182 C1185 1.403 . S
C1183 C1180 1.403 . S
C1183 C1184 1.524 . S
C1183 C1187 1.400 . S
C1184 H1169 0.960 . S
C1184 H1170 0.960 . S
C1184 H1171 0.960 . S
C1184 C1183 1.524 . S
C1185 C1182 1.403 . S
C1185 C1186 1.392 . S
C1185 C1189 1.495 . S
C1186 C1185 1.392 . S
C1186 C1187 1.385 . S
C1186 C1188 1.478 . S
C1187 H1181 0.930 . S
C1187 C1183 1.400 . S
C1187 C1186 1.385 . S
C1188 C1186 1.478 . S
C1188 C1190 1.381 . S
C1188 C1194 1.383 . S
C1189 C1185 1.495 . S
C1189 H1195 0.959 . S
C1189 H1196 0.961 . S
C1189 H1197 0.960 . S
C1190 C1188 1.381 . S
C1190 C1191 1.394 . S
C1190 H1198 0.930 . S
C1191 C1190 1.394 . S
C1191 C1192 1.383 . S
C1191 H1199 0.929 . S
C1192 C1191 1.383 . S
C1192 C1193 1.377 . S
C1193 H1177 0.930 . S
C1193 C1192 1.377 . S
C1193 C1194 1.379 . S
C1194 H1178 0.931 . S
C1194 C1188 1.383 . S
C1194 C1193 1.379 . S
H1195 C1189 0.959 . S
H1196 C1189 0.961 . S
H1197 C1189 0.960 . S
H1198 C1190 0.930 . S
H1199 C1191 0.929 . S
H1200 C1208 0.929 . S
H1201 C1210 0.930 1_655 S
H1202 C1212 0.930 1_655 S
H1203 C1215 0.929 . S
H1204 C1218 0.930 . S
H1205 C1220 0.960 . S
H1206 C1220 0.960 . S
H1207 C1220 0.960 . S
C1208 H1200 0.929 . S
C1208 C1209 1.377 . S
C1208 C1210 1.384 . S
C1209 C1208 1.377 . S
C1209 C1215 1.390 . S
C1210 H1201 0.930 1_455 S
C1210 C1208 1.384 . S
C1210 C1211 1.372 1_455 S
C1211 C1210 1.372 1_655 S
C1211 C1212 1.400 1_655 S
C1211 C1216 1.490 . S
C1212 H1202 0.930 1_455 S
C1212 C1211 1.400 1_455 S
C1212 C1215 1.386 . S
H1213 C1229 0.930 . S
H1214 C1230 0.931 . S
C1215 H1203 0.929 . S
C1215 C1209 1.390 . S
C1215 C1212 1.386 . S
C1216 C1211 1.490 . S
C1216 C1218 1.395 . S
C1216 C1219 1.403 . S
H1217 C1223 0.930 . S
C1218 H1204 0.930 . S
C1218 C1216 1.395 . S
C1218 C1221 1.403 . S
C1219 C1216 1.403 . S
C1219 C1220 1.524 . S
C1219 C1223 1.400 . S
C1220 H1205 0.960 . S
C1220 H1206 0.960 . S
C1220 H1207 0.960 . S
C1220 C1219 1.524 . S
C1221 C1218 1.403 . S
C1221 C1222 1.392 . S
C1221 C1225 1.495 . S
C1222 C1221 1.392 . S
C1222 C1223 1.385 . S
C1222 C1224 1.478 . S
C1223 H1217 0.930 . S
C1223 C1219 1.400 . S
C1223 C1222 1.385 . S
C1224 C1222 1.478 . S
C1224 C1226 1.381 . S
C1224 C1230 1.383 . S
C1225 C1221 1.495 . S
C1225 H1231 0.959 . S
C1225 H1232 0.961 . S
C1225 H1233 0.960 . S
C1226 C1224 1.381 . S
C1226 C1227 1.394 . S
C1226 H1234 0.930 . S
C1227 C1226 1.394 . S
C1227 C1228 1.383 . S
C1227 H1235 0.929 . S
C1228 C1227 1.383 . S
C1228 C1229 1.377 . S
C1229 H1213 0.930 . S
C1229 C1228 1.377 . S
C1229 C1230 1.379 . S
C1230 H1214 0.931 . S
C1230 C1224 1.383 . S
C1230 C1229 1.379 . S
H1231 C1225 0.959 . S
H1232 C1225 0.961 . S
H1233 C1225 0.960 . S
H1234 C1226 0.930 . S
H1235 C1227 0.929 . S
H1236 C1244 0.929 . S
H1237 C1246 0.930 . S
H1238 C1248 0.879 1_565 S
H1239 C1251 0.929 . S
H1240 C1254 0.930 . S
H1241 C1256 0.960 . S
H1242 C1256 0.960 . S
H1243 C1256 0.960 . S
C1244 H1236 0.929 . S
C1244 C1245 1.377 . S
C1244 C1246 1.384 . S
C1245 C1244 1.377 . S
C1245 C1251 1.390 . S
C1246 H1237 0.930 . S
C1246 C1244 1.384 . S
C1246 C1247 1.372 1_545 S
C1247 C1246 1.372 1_565 S
C1247 C1248 1.410 1_565 S
C1247 C1252 1.490 . S
C1248 H1238 0.879 1_545 S
C1248 C1247 1.410 1_545 S
C1248 C1251 1.428 . S
H1249 C1265 0.930 . S
H1250 C1266 0.931 . S
C1251 H1239 0.929 . S
C1251 C1245 1.390 . S
C1251 C1248 1.428 . S
C1252 C1247 1.490 . S
C1252 C1254 1.395 . S
C1252 C1255 1.403 . S
H1253 C1259 0.930 . S
C1254 H1240 0.930 . S
C1254 C1252 1.395 . S
C1254 C1257 1.403 . S
C1255 C1252 1.403 . S
C1255 C1256 1.524 . S
C1255 C1259 1.400 . S
C1256 H1241 0.960 . S
C1256 H1242 0.960 . S
C1256 H1243 0.960 . S
C1256 C1255 1.524 . S
C1257 C1254 1.403 . S
C1257 C1258 1.392 . S
C1257 C1261 1.495 . S
C1258 C1257 1.392 . S
C1258 C1259 1.385 . S
C1258 C1260 1.478 . S
C1259 H1253 0.930 . S
C1259 C1255 1.400 . S
C1259 C1258 1.385 . S
C1260 C1258 1.478 . S
C1260 C1262 1.381 . S
C1260 C1266 1.383 . S
C1261 C1257 1.495 . S
C1261 H1267 0.959 . S
C1261 H1268 0.961 . S
C1261 H1269 0.960 . S
C1262 C1260 1.381 . S
C1262 C1263 1.394 . S
C1262 H1270 0.930 . S
C1263 C1262 1.394 . S
C1263 C1264 1.383 . S
C1263 H1271 0.929 . S
C1264 C1263 1.383 . S
C1264 C1265 1.377 . S
C1265 H1249 0.930 . S
C1265 C1264 1.377 . S
C1265 C1266 1.379 . S
C1266 H1250 0.931 . S
C1266 C1260 1.383 . S
C1266 C1265 1.379 . S
H1267 C1261 0.959 . S
H1268 C1261 0.961 . S
H1269 C1261 0.960 . S
H1270 C1262 0.930 . S
H1271 C1263 0.929 . S
H1272 C1280 0.929 . S
H1273 C1282 0.930 . S
H1274 C1284 0.930 . S
H1275 C1287 0.929 . S
H1276 C1290 0.930 . S
H1277 C1292 0.960 . S
H1278 C1292 0.960 . S
H1279 C1292 0.960 . S
C1280 H1272 0.929 . S
C1280 C1281 1.377 . S
C1280 C1282 1.384 . S
C1281 C1280 1.377 . S
C1281 C1287 1.390 . S
C1282 H1273 0.930 . S
C1282 C1280 1.384 . S
C1282 C1283 1.372 . S
C1283 C1282 1.372 . S
C1283 C1284 1.400 . S
C1283 C1288 1.490 . S
C1284 H1274 0.930 . S
C1284 C1283 1.400 . S
C1284 C1287 1.386 . S
H1285 C1301 0.930 . S
H1286 C1302 0.931 . S
C1287 H1275 0.929 . S
C1287 C1281 1.390 . S
C1287 C1284 1.386 . S
C1288 C1283 1.490 . S
C1288 C1290 1.395 . S
C1288 C1291 1.403 . S
H1289 C1295 0.930 . S
C1290 H1276 0.930 . S
C1290 C1288 1.395 . S
C1290 C1293 1.403 . S
C1291 C1288 1.403 . S
C1291 C1292 1.524 . S
C1291 C1295 1.400 . S
C1292 H1277 0.960 . S
C1292 H1278 0.960 . S
C1292 H1279 0.960 . S
C1292 C1291 1.524 . S
C1293 C1290 1.403 . S
C1293 C1294 1.392 . S
C1293 C1297 1.495 . S
C1294 C1293 1.392 . S
C1294 C1295 1.385 . S
C1294 C1296 1.478 . S
C1295 H1289 0.930 . S
C1295 C1291 1.400 . S
C1295 C1294 1.385 . S
C1296 C1294 1.478 . S
C1296 C1298 1.381 . S
C1296 C1302 1.383 . S
C1297 C1293 1.495 . S
C1297 H1303 0.959 . S
C1297 H1304 0.961 . S
C1297 H1305 0.960 . S
C1298 C1296 1.381 . S
C1298 C1299 1.394 . S
C1298 H1306 0.930 . S
C1299 C1298 1.394 . S
C1299 C1300 1.383 . S
C1299 H1307 0.929 . S
C1300 C1299 1.383 . S
C1300 C1301 1.377 . S
C1301 H1285 0.930 . S
C1301 C1300 1.377 . S
C1301 C1302 1.379 . S
C1302 H1286 0.931 . S
C1302 C1296 1.383 . S
C1302 C1301 1.379 . S
H1303 C1297 0.959 . S
H1304 C1297 0.961 . S
H1305 C1297 0.960 . S
H1306 C1298 0.930 . S
H1307 C1299 0.929 . S
H1308 C1316 0.929 . S
H1309 C1318 0.930 1_455 S
H1310 C1320 0.930 1_455 S
H1311 C1323 0.929 . S
H1312 C1326 0.930 . S
H1313 C1328 0.960 . S
H1314 C1328 0.960 . S
H1315 C1328 0.960 . S
C1316 H1308 0.929 . S
C1316 C1317 1.377 . S
C1316 C1318 1.384 . S
C1317 C1316 1.377 . S
C1317 C1323 1.390 . S
C1318 H1309 0.930 1_655 S
C1318 C1316 1.384 . S
C1318 C1319 1.372 1_655 S
C1319 C1318 1.372 1_455 S
C1319 C1320 1.400 1_455 S
C1319 C1324 1.490 . S
C1320 H1310 0.930 1_655 S
C1320 C1319 1.400 1_655 S
C1320 C1323 1.386 . S
H1321 C1337 0.930 . S
H1322 C1338 0.931 . S
C1323 H1311 0.929 . S
C1323 C1317 1.390 . S
C1323 C1320 1.386 . S
C1324 C1319 1.490 . S
C1324 C1326 1.395 . S
C1324 C1327 1.403 . S
H1325 C1331 0.930 . S
C1326 H1312 0.930 . S
C1326 C1324 1.395 . S
C1326 C1329 1.403 . S
C1327 C1324 1.403 . S
C1327 C1328 1.524 . S
C1327 C1331 1.400 . S
C1328 H1313 0.960 . S
C1328 H1314 0.960 . S
C1328 H1315 0.960 . S
C1328 C1327 1.524 . S
C1329 C1326 1.403 . S
C1329 C1330 1.392 . S
C1329 C1333 1.495 . S
C1330 C1329 1.392 . S
C1330 C1331 1.385 . S
C1330 C1332 1.478 . S
C1331 H1325 0.930 . S
C1331 C1327 1.400 . S
C1331 C1330 1.385 . S
C1332 C1330 1.478 . S
C1332 C1334 1.381 . S
C1332 C1338 1.383 . S
C1333 C1329 1.495 . S
C1333 H1339 0.959 . S
C1333 H1340 0.961 . S
C1333 H1341 0.960 . S
C1334 C1332 1.381 . S
C1334 C1335 1.394 . S
C1334 H1342 0.930 . S
C1335 C1334 1.394 . S
C1335 C1336 1.383 . S
C1335 H1343 0.929 . S
C1336 C1335 1.383 . S
C1336 C1337 1.377 . S
C1337 H1321 0.930 . S
C1337 C1336 1.377 . S
C1337 C1338 1.379 . S
C1338 H1322 0.931 . S
C1338 C1332 1.383 . S
C1338 C1337 1.379 . S
H1339 C1333 0.959 . S
H1340 C1333 0.961 . S
H1341 C1333 0.960 . S
H1342 C1334 0.930 . S
H1343 C1335 0.929 . S
H1344 C1352 0.929 . S
H1345 C1354 0.930 . S
H1346 C1356 0.930 . S
H1347 C1359 0.929 . S
H1348 C1362 0.930 . S
H1349 C1364 0.960 . S
H1350 C1364 0.960 . S
H1351 C1364 0.960 . S
C1352 H1344 0.929 . S
C1352 C1353 1.377 . S
C1352 C1354 1.384 . S
C1353 C1352 1.377 . S
C1353 C1359 1.390 . S
C1354 H1345 0.930 . S
C1354 C1352 1.384 . S
C1354 C1355 1.372 . S
C1355 C1354 1.372 . S
C1355 C1356 1.400 . S
C1355 C1360 1.490 . S
C1356 H1346 0.930 . S
C1356 C1355 1.400 . S
C1356 C1359 1.386 . S
H1357 C1373 0.930 . S
H1358 C1374 0.931 1_655 S
C1359 H1347 0.929 . S
C1359 C1353 1.390 . S
C1359 C1356 1.386 . S
C1360 C1355 1.490 . S
C1360 C1362 1.395 . S
C1360 C1363 1.403 . S
H1361 C1367 0.930 . S
C1362 H1348 0.930 . S
C1362 C1360 1.395 . S
C1362 C1365 1.403 . S
C1363 C1360 1.403 . S
C1363 C1364 1.524 . S
C1363 C1367 1.400 . S
C1364 H1349 0.960 . S
C1364 H1350 0.960 . S
C1364 H1351 0.960 . S
C1364 C1363 1.524 . S
C1365 C1362 1.403 . S
C1365 C1366 1.392 . S
C1365 C1369 1.495 . S
C1366 C1365 1.392 . S
C1366 C1367 1.385 . S
C1366 C1368 1.478 . S
C1367 H1361 0.930 . S
C1367 C1363 1.400 . S
C1367 C1366 1.385 . S
C1368 C1366 1.478 . S
C1368 C1370 1.381 1_655 S
C1368 C1374 1.383 1_655 S
C1369 C1365 1.495 . S
C1369 H1375 0.959 . S
C1369 H1376 0.961 . S
C1369 H1377 0.960 . S
C1370 C1368 1.381 1_455 S
C1370 C1371 1.394 . S
C1370 H1378 0.930 . S
C1371 C1370 1.394 . S
C1371 C1372 1.383 . S
C1371 H1379 0.929 . S
C1372 C1371 1.383 . S
C1372 C1373 1.377 . S
C1373 H1357 0.930 . S
C1373 C1372 1.377 . S
C1373 C1374 1.379 . S
C1374 H1358 0.931 1_455 S
C1374 C1368 1.383 1_455 S
C1374 C1373 1.379 . S
H1375 C1369 0.959 . S
H1376 C1369 0.961 . S
H1377 C1369 0.960 . S
H1378 C1370 0.930 . S
H1379 C1371 0.929 . S
H1380 C1388 0.929 . S
H1381 C1390 0.930 . S
H1382 C1392 0.930 . S
H1383 C1395 0.929 . S
H1384 C1398 0.930 . S
H1385 C1400 0.960 . S
H1386 C1400 0.960 . S
H1387 C1400 0.960 . S
C1388 H1380 0.929 . S
C1388 C1389 1.377 . S
C1388 C1390 1.384 . S
C1389 C1388 1.377 . S
C1389 C1395 1.390 . S
C1390 H1381 0.930 . S
C1390 C1388 1.384 . S
C1390 C1391 1.372 . S
C1391 C1390 1.372 . S
C1391 C1392 1.400 . S
C1391 C1396 1.490 . S
C1392 H1382 0.930 . S
C1392 C1391 1.400 . S
C1392 C1395 1.386 . S
H1393 C1409 0.930 . S
H1394 C1410 0.931 1_565 S
C1395 H1383 0.929 . S
C1395 C1389 1.390 . S
C1395 C1392 1.386 . S
C1396 C1391 1.490 . S
C1396 C1398 1.395 . S
C1396 C1399 1.403 . S
H1397 C1403 0.930 . S
C1398 H1384 0.930 . S
C1398 C1396 1.395 . S
C1398 C1401 1.403 . S
C1399 C1396 1.403 . S
C1399 C1400 1.524 . S
C1399 C1403 1.400 . S
C1400 H1385 0.960 . S
C1400 H1386 0.960 . S
C1400 H1387 0.960 . S
C1400 C1399 1.524 . S
C1401 C1398 1.403 . S
C1401 C1402 1.392 . S
C1401 C1405 1.495 . S
C1402 C1401 1.392 . S
C1402 C1403 1.385 . S
C1402 C1404 1.478 . S
C1403 H1397 0.930 . S
C1403 C1399 1.400 . S
C1403 C1402 1.385 . S
C1404 C1402 1.478 . S
C1404 C1406 1.381 1_565 S
C1404 C1410 1.383 1_565 S
C1405 C1401 1.495 . S
C1405 H1411 0.959 . S
C1405 H1412 0.961 . S
C1405 H1413 0.960 . S
C1406 C1404 1.381 1_545 S
C1406 C1407 1.394 . S
C1406 H1414 0.930 . S
C1407 C1406 1.394 . S
C1407 C1408 1.383 . S
C1407 H1415 0.929 . S
C1408 C1407 1.383 . S
C1408 C1409 1.377 . S
C1409 H1393 0.930 . S
C1409 C1408 1.377 . S
C1409 C1410 1.379 . S
C1410 H1394 0.931 1_545 S
C1410 C1404 1.383 1_545 S
C1410 C1409 1.379 . S
H1411 C1405 0.959 . S
H1412 C1405 0.961 . S
H1413 C1405 0.960 . S
H1414 C1406 0.930 . S
H1415 C1407 0.929 . S
H1416 C1424 0.929 . S
H1417 C1426 0.930 . S
H1418 C1428 0.930 . S
H1419 C1431 0.929 . S
H1420 C1434 0.930 . S
H1421 C1436 0.960 . S
H1422 C1436 0.960 . S
H1423 C1436 0.960 . S
C1424 H1416 0.929 . S
C1424 C1425 1.377 . S
C1424 C1426 1.384 . S
C1425 C1424 1.377 . S
C1425 C1431 1.390 . S
C1426 H1417 0.930 . S
C1426 C1424 1.384 . S
C1426 C1427 1.372 . S
C1427 C1426 1.372 . S
C1427 C1428 1.400 . S
C1427 C1432 1.490 . S
C1428 H1418 0.930 . S
C1428 C1427 1.400 . S
C1428 C1431 1.386 . S
H1429 C1445 0.930 . S
H1430 C1446 0.931 . S
C1431 H1419 0.929 . S
C1431 C1425 1.390 . S
C1431 C1428 1.386 . S
C1432 C1427 1.490 . S
C1432 C1434 1.395 . S
C1432 C1435 1.403 . S
H1433 C1439 0.930 . S
C1434 H1420 0.930 . S
C1434 C1432 1.395 . S
C1434 C1437 1.403 . S
C1435 C1432 1.403 . S
C1435 C1436 1.524 . S
C1435 C1439 1.400 . S
C1436 H1421 0.960 . S
C1436 H1422 0.960 . S
C1436 H1423 0.960 . S
C1436 C1435 1.524 . S
C1437 C1434 1.403 . S
C1437 C1438 1.392 . S
C1437 C1441 1.495 . S
C1438 C1437 1.392 . S
C1438 C1439 1.385 . S
C1438 C1440 1.478 . S
C1439 H1433 0.930 . S
C1439 C1435 1.400 . S
C1439 C1438 1.385 . S
C1440 C1438 1.478 . S
C1440 C1442 1.381 . S
C1440 C1446 1.383 . S
C1441 C1437 1.495 . S
C1441 H1447 0.959 . S
C1441 H1448 0.961 . S
C1441 H1449 0.960 . S
C1442 C1440 1.381 . S
C1442 C1443 1.394 . S
C1442 H1450 0.930 . S
C1443 C1442 1.394 . S
C1443 C1444 1.383 . S
C1443 H1451 0.929 . S
C1444 C1443 1.383 . S
C1444 C1445 1.377 . S
C1445 H1429 0.930 . S
C1445 C1444 1.377 . S
C1445 C1446 1.379 . S
C1446 H1430 0.931 . S
C1446 C1440 1.383 . S
C1446 C1445 1.379 . S
H1447 C1441 0.959 . S
H1448 C1441 0.961 . S
H1449 C1441 0.960 . S
H1450 C1442 0.930 . S
H1451 C1443 0.929 . S
H1452 C1460 0.929 . S
H1453 C1462 0.930 . S
H1454 C1464 0.882 1_455 S
H1455 C1467 0.929 . S
H1456 C1470 0.930 . S
H1457 C1472 0.960 . S
H1458 C1472 0.960 . S
H1459 C1472 0.960 . S
C1460 H1452 0.929 . S
C1460 C1461 1.377 . S
C1460 C1462 1.384 . S
C1461 C1460 1.377 . S
C1461 C1467 1.390 . S
C1462 H1453 0.930 . S
C1462 C1460 1.384 . S
C1462 C1463 1.372 1_655 S
C1463 C1462 1.372 1_455 S
C1463 C1464 1.409 1_455 S
C1463 C1468 1.490 . S
C1464 H1454 0.882 1_655 S
C1464 C1463 1.409 1_655 S
C1464 C1467 1.426 . S
H1465 C1481 0.930 . S
H1466 C1482 0.931 . S
C1467 H1455 0.929 . S
C1467 C1461 1.390 . S
C1467 C1464 1.426 . S
C1468 C1463 1.490 . S
C1468 C1470 1.395 . S
C1468 C1471 1.403 . S
H1469 C1475 0.930 . S
C1470 H1456 0.930 . S
C1470 C1468 1.395 . S
C1470 C1473 1.403 . S
C1471 C1468 1.403 . S
C1471 C1472 1.524 . S
C1471 C1475 1.400 . S
C1472 H1457 0.960 . S
C1472 H1458 0.960 . S
C1472 H1459 0.960 . S
C1472 C1471 1.524 . S
C1473 C1470 1.403 . S
C1473 C1474 1.392 . S
C1473 C1477 1.495 . S
C1474 C1473 1.392 . S
C1474 C1475 1.385 . S
C1474 C1476 1.478 . S
C1475 H1469 0.930 . S
C1475 C1471 1.400 . S
C1475 C1474 1.385 . S
C1476 C1474 1.478 . S
C1476 C1478 1.381 . S
C1476 C1482 1.383 . S
C1477 C1473 1.495 . S
C1477 H1483 0.959 . S
C1477 H1484 0.961 . S
C1477 H1485 0.960 . S
C1478 C1476 1.381 . S
C1478 C1479 1.394 . S
C1478 H1486 0.930 . S
C1479 C1478 1.394 . S
C1479 C1480 1.383 . S
C1479 H1487 0.929 . S
C1480 C1479 1.383 . S
C1480 C1481 1.377 . S
C1481 H1465 0.930 . S
C1481 C1480 1.377 . S
C1481 C1482 1.379 . S
C1482 H1466 0.931 . S
C1482 C1476 1.383 . S
C1482 C1481 1.379 . S
H1483 C1477 0.959 . S
H1484 C1477 0.961 . S
H1485 C1477 0.960 . S
H1486 C1478 0.930 . S
H1487 C1479 0.929 . S
H1488 C1496 0.929 . S
H1489 C1498 0.930 1_545 S
H1490 C1500 0.930 1_545 S
H1491 C1503 0.929 . S
H1492 C1506 0.930 . S
H1493 C1508 0.960 . S
H1494 C1508 0.960 . S
H1495 C1508 0.960 . S
C1496 H1488 0.929 . S
C1496 C1497 1.377 . S
C1496 C1498 1.384 . S
C1497 C1496 1.377 . S
C1497 C1503 1.390 . S
C1498 H1489 0.930 1_565 S
C1498 C1496 1.384 . S
C1498 C1499 1.372 1_565 S
C1499 C1498 1.372 1_545 S
C1499 C1500 1.400 1_545 S
C1499 C1504 1.490 . S
C1500 H1490 0.930 1_565 S
C1500 C1499 1.400 1_565 S
C1500 C1503 1.386 . S
H1501 C1517 0.930 . S
H1502 C1518 0.931 . S
C1503 H1491 0.929 . S
C1503 C1497 1.390 . S
C1503 C1500 1.386 . S
C1504 C1499 1.490 . S
C1504 C1506 1.395 . S
C1504 C1507 1.403 . S
H1505 C1511 0.930 . S
C1506 H1492 0.930 . S
C1506 C1504 1.395 . S
C1506 C1509 1.403 . S
C1507 C1504 1.403 . S
C1507 C1508 1.524 . S
C1507 C1511 1.400 . S
C1508 H1493 0.960 . S
C1508 H1494 0.960 . S
C1508 H1495 0.960 . S
C1508 C1507 1.524 . S
C1509 C1506 1.403 . S
C1509 C1510 1.392 . S
C1509 C1513 1.495 . S
C1510 C1509 1.392 . S
C1510 C1511 1.385 . S
C1510 C1512 1.478 . S
C1511 H1505 0.930 . S
C1511 C1507 1.400 . S
C1511 C1510 1.385 . S
C1512 C1510 1.478 . S
C1512 C1514 1.381 . S
C1512 C1518 1.383 . S
C1513 C1509 1.495 . S
C1513 H1519 0.959 . S
C1513 H1520 0.961 . S
C1513 H1521 0.960 . S
C1514 C1512 1.381 . S
C1514 C1515 1.394 . S
C1514 H1522 0.930 . S
C1515 C1514 1.394 . S
C1515 C1516 1.383 . S
C1515 H1523 0.929 . S
C1516 C1515 1.383 . S
C1516 C1517 1.377 . S
C1517 H1501 0.930 . S
C1517 C1516 1.377 . S
C1517 C1518 1.379 . S
C1518 H1502 0.931 . S
C1518 C1512 1.383 . S
C1518 C1517 1.379 . S
H1519 C1513 0.959 . S
H1520 C1513 0.961 . S
H1521 C1513 0.960 . S
H1522 C1514 0.930 . S
H1523 C1515 0.929 . S
H1524 C1532 0.929 . S
H1525 C1534 0.930 . S
H1526 C1536 0.930 . S
H1527 C1539 0.929 . S
H1528 C1542 0.930 . S
H1529 C1544 0.960 . S
H1530 C1544 0.960 . S
H1531 C1544 0.960 . S
C1532 H1524 0.929 . S
C1532 C1533 1.377 . S
C1532 C1534 1.384 . S
C1533 C1532 1.377 . S
C1533 C1539 1.390 . S
C1534 H1525 0.930 . S
C1534 C1532 1.384 . S
C1534 C1535 1.372 . S
C1535 C1534 1.372 . S
C1535 C1536 1.400 . S
C1535 C1540 1.490 . S
C1536 H1526 0.930 . S
C1536 C1535 1.400 . S
C1536 C1539 1.386 . S
H1537 C1553 0.930 . S
H1538 C1554 0.931 . S
C1539 H1527 0.929 . S
C1539 C1533 1.390 . S
C1539 C1536 1.386 . S
C1540 C1535 1.490 . S
C1540 C1542 1.395 . S
C1540 C1543 1.403 . S
H1541 C1547 0.930 . S
C1542 H1528 0.930 . S
C1542 C1540 1.395 . S
C1542 C1545 1.403 . S
C1543 C1540 1.403 . S
C1543 C1544 1.524 . S
C1543 C1547 1.400 . S
C1544 H1529 0.960 . S
C1544 H1530 0.960 . S
C1544 H1531 0.960 . S
C1544 C1543 1.524 . S
C1545 C1542 1.403 . S
C1545 C1546 1.392 . S
C1545 C1549 1.495 . S
C1546 C1545 1.392 . S
C1546 C1547 1.385 . S
C1546 C1548 1.478 . S
C1547 H1541 0.930 . S
C1547 C1543 1.400 . S
C1547 C1546 1.385 . S
C1548 C1546 1.478 . S
C1548 C1550 1.381 . S
C1548 C1554 1.383 . S
C1549 C1545 1.495 . S
C1549 H1555 0.959 . S
C1549 H1556 0.961 . S
C1549 H1557 0.960 . S
C1550 C1548 1.381 . S
C1550 C1551 1.394 . S
C1550 H1558 0.930 . S
C1551 C1550 1.394 . S
C1551 C1552 1.383 . S
C1551 H1559 0.929 . S
C1552 C1551 1.383 . S
C1552 C1553 1.377 . S
C1553 H1537 0.930 . S
C1553 C1552 1.377 . S
C1553 C1554 1.379 . S
C1554 H1538 0.931 . S
C1554 C1548 1.383 . S
C1554 C1553 1.379 . S
H1555 C1549 0.959 . S
H1556 C1549 0.961 . S
H1557 C1549 0.960 . S
H1558 C1550 0.930 . S
H1559 C1551 0.929 . S
H1560 C1568 0.929 . S
H1561 C1570 0.930 . S
H1562 C1572 0.930 . S
H1563 C1575 0.929 . S
H1564 C1578 0.930 . S
H1565 C1580 0.960 . S
H1566 C1580 0.960 . S
H1567 C1580 0.960 . S
C1568 H1560 0.929 . S
C1568 C1569 1.377 . S
C1568 C1570 1.384 . S
C1569 C1568 1.377 . S
C1569 C1575 1.390 . S
C1570 H1561 0.930 . S
C1570 C1568 1.384 . S
C1570 C1571 1.372 . S
C1571 C1570 1.372 . S
C1571 C1572 1.400 . S
C1571 C1576 1.490 . S
C1572 H1562 0.930 . S
C1572 C1571 1.400 . S
C1572 C1575 1.386 . S
H1573 C1589 0.930 . S
H1574 C1590 0.931 . S
C1575 H1563 0.929 . S
C1575 C1569 1.390 . S
C1575 C1572 1.386 . S
C1576 C1571 1.490 . S
C1576 C1578 1.395 . S
C1576 C1579 1.403 . S
H1577 C1583 0.930 . S
C1578 H1564 0.930 . S
C1578 C1576 1.395 . S
C1578 C1581 1.403 1_554 S
C1579 C1576 1.403 . S
C1579 C1580 1.524 . S
C1579 C1583 1.400 1_554 S
C1580 H1565 0.960 . S
C1580 H1566 0.960 . S
C1580 H1567 0.960 . S
C1580 C1579 1.524 . S
C1581 C1578 1.403 1_556 S
C1581 C1582 1.392 . S
C1581 C1585 1.495 . S
C1582 C1581 1.392 . S
C1582 C1583 1.385 . S
C1582 C1584 1.478 . S
C1583 H1577 0.930 . S
C1583 C1579 1.400 1_556 S
C1583 C1582 1.385 . S
C1584 C1582 1.478 . S
C1584 C1586 1.381 . S
C1584 C1590 1.383 . S
C1585 C1581 1.495 . S
C1585 H1591 0.959 . S
C1585 H1592 0.961 . S
C1585 H1593 0.960 . S
C1586 C1584 1.381 . S
C1586 C1587 1.394 . S
C1586 H1594 0.930 . S
C1587 C1586 1.394 . S
C1587 C1588 1.383 . S
C1587 H1595 0.929 . S
C1588 C1587 1.383 . S
C1588 C1589 1.377 . S
C1589 H1573 0.930 . S
C1589 C1588 1.377 . S
C1589 C1590 1.379 . S
C1590 H1574 0.931 . S
C1590 C1584 1.383 . S
C1590 C1589 1.379 . S
H1591 C1585 0.959 . S
H1592 C1585 0.961 . S
H1593 C1585 0.960 . S
H1594 C1586 0.930 . S
H1595 C1587 0.929 . S
H1596 C1604 0.929 . S
H1597 C1606 0.930 . S
H1598 C1608 0.930 . S
H1599 C1611 0.929 . S
H1600 C1614 0.930 . S
H1601 C1616 0.960 . S
H1602 C1616 0.960 . S
H1603 C1616 0.960 . S
C1604 H1596 0.929 . S
C1604 C1605 1.377 . S
C1604 C1606 1.384 . S
C1605 C1604 1.377 . S
C1605 C1611 1.390 . S
C1606 H1597 0.930 . S
C1606 C1604 1.384 . S
C1606 C1607 1.372 . S
C1607 C1606 1.372 . S
C1607 C1608 1.400 . S
C1607 C1612 1.490 . S
C1608 H1598 0.930 . S
C1608 C1607 1.400 . S
C1608 C1611 1.386 . S
H1609 C1625 0.930 . S
H1610 C1626 0.931 . S
C1611 H1599 0.929 . S
C1611 C1605 1.390 . S
C1611 C1608 1.386 . S
C1612 C1607 1.490 . S
C1612 C1614 1.395 . S
C1612 C1615 1.403 . S
H1613 C1619 0.930 . S
C1614 H1600 0.930 . S
C1614 C1612 1.395 . S
C1614 C1617 1.403 1_554 S
C1615 C1612 1.403 . S
C1615 C1616 1.524 . S
C1615 C1619 1.400 1_554 S
C1616 H1601 0.960 . S
C1616 H1602 0.960 . S
C1616 H1603 0.960 . S
C1616 C1615 1.524 . S
C1617 C1614 1.403 1_556 S
C1617 C1618 1.392 . S
C1617 C1621 1.495 . S
C1618 C1617 1.392 . S
C1618 C1619 1.385 . S
C1618 C1620 1.478 . S
C1619 H1613 0.930 . S
C1619 C1615 1.400 1_556 S
C1619 C1618 1.385 . S
C1620 C1618 1.478 . S
C1620 C1622 1.381 . S
C1620 C1626 1.383 . S
C1621 C1617 1.495 . S
C1621 H1627 0.959 . S
C1621 H1628 0.961 . S
C1621 H1629 0.960 . S
C1622 C1620 1.381 . S
C1622 C1623 1.394 . S
C1622 H1630 0.930 . S
C1623 C1622 1.394 . S
C1623 C1624 1.383 . S
C1623 H1631 0.929 . S
C1624 C1623 1.383 . S
C1624 C1625 1.377 . S
C1625 H1609 0.930 . S
C1625 C1624 1.377 . S
C1625 C1626 1.379 . S
C1626 H1610 0.931 . S
C1626 C1620 1.383 . S
C1626 C1625 1.379 . S
H1627 C1621 0.959 . S
H1628 C1621 0.961 . S
H1629 C1621 0.960 . S
H1630 C1622 0.930 . S
H1631 C1623 0.929 . S
H1632 C1640 0.929 . S
H1633 C1642 0.930 . S
H1634 C1644 0.930 . S
H1635 C1647 0.929 . S
H1636 C1650 0.930 . S
H1637 C1652 0.960 . S
H1638 C1652 0.960 . S
H1639 C1652 0.960 . S
C1640 H1632 0.929 . S
C1640 C1641 1.377 . S
C1640 C1642 1.384 . S
C1641 C1640 1.377 . S
C1641 C1647 1.390 . S
C1642 H1633 0.930 . S
C1642 C1640 1.384 . S
C1642 C1643 1.372 . S
C1643 C1642 1.372 . S
C1643 C1644 1.400 . S
C1643 C1648 1.490 . S
C1644 H1634 0.930 . S
C1644 C1643 1.400 . S
C1644 C1647 1.386 . S
H1645 C1661 0.930 . S
H1646 C1662 0.931 . S
C1647 H1635 0.929 . S
C1647 C1641 1.390 . S
C1647 C1644 1.386 . S
C1648 C1643 1.490 . S
C1648 C1650 1.395 . S
C1648 C1651 1.403 . S
H1649 C1655 0.930 . S
C1650 H1636 0.930 . S
C1650 C1648 1.395 . S
C1650 C1653 1.403 1_554 S
C1651 C1648 1.403 . S
C1651 C1652 1.524 . S
C1651 C1655 1.400 1_554 S
C1652 H1637 0.960 . S
C1652 H1638 0.960 . S
C1652 H1639 0.960 . S
C1652 C1651 1.524 . S
C1653 C1650 1.403 1_556 S
C1653 C1654 1.392 . S
C1653 C1657 1.495 . S
C1654 C1653 1.392 . S
C1654 C1655 1.385 . S
C1654 C1656 1.478 . S
C1655 H1649 0.930 . S
C1655 C1651 1.400 1_556 S
C1655 C1654 1.385 . S
C1656 C1654 1.478 . S
C1656 C1658 1.381 . S
C1656 C1662 1.383 . S
C1657 C1653 1.495 . S
C1657 H1663 0.959 . S
C1657 H1664 0.961 . S
C1657 H1665 0.960 . S
C1658 C1656 1.381 . S
C1658 C1659 1.394 . S
C1658 H1666 0.930 . S
C1659 C1658 1.394 . S
C1659 C1660 1.383 . S
C1659 H1667 0.929 . S
C1660 C1659 1.383 . S
C1660 C1661 1.377 . S
C1661 H1645 0.930 . S
C1661 C1660 1.377 . S
C1661 C1662 1.379 . S
C1662 H1646 0.931 . S
C1662 C1656 1.383 . S
C1662 C1661 1.379 . S
H1663 C1657 0.959 . S
H1664 C1657 0.961 . S
H1665 C1657 0.960 . S
H1666 C1658 0.930 . S
H1667 C1659 0.929 . S
H1668 C1676 0.929 . S
H1669 C1678 0.930 . S
H1670 C1680 0.930 . S
H1671 C1683 0.929 . S
H1672 C1686 0.930 . S
H1673 C1688 0.960 . S
H1674 C1688 0.960 . S
H1675 C1688 0.960 . S
C1676 H1668 0.929 . S
C1676 C1677 1.377 . S
C1676 C1678 1.384 . S
C1677 C1676 1.377 . S
C1677 C1683 1.390 . S
C1678 H1669 0.930 . S
C1678 C1676 1.384 . S
C1678 C1679 1.372 . S
C1679 C1678 1.372 . S
C1679 C1680 1.400 . S
C1679 C1684 1.490 . S
C1680 H1670 0.930 . S
C1680 C1679 1.400 . S
C1680 C1683 1.386 . S
H1681 C1697 0.930 . S
H1682 C1698 0.931 . S
C1683 H1671 0.929 . S
C1683 C1677 1.390 . S
C1683 C1680 1.386 . S
C1684 C1679 1.490 . S
C1684 C1686 1.395 . S
C1684 C1687 1.403 . S
H1685 C1691 0.930 . S
C1686 H1672 0.930 . S
C1686 C1684 1.395 . S
C1686 C1689 1.403 1_556 S
C1687 C1684 1.403 . S
C1687 C1688 1.524 . S
C1687 C1691 1.400 1_556 S
C1688 H1673 0.960 . S
C1688 H1674 0.960 . S
C1688 H1675 0.960 . S
C1688 C1687 1.524 . S
C1689 C1686 1.403 1_554 S
C1689 C1690 1.392 . S
C1689 C1693 1.495 . S
C1690 C1689 1.392 . S
C1690 C1691 1.385 . S
C1690 C1692 1.478 . S
C1691 H1685 0.930 . S
C1691 C1687 1.400 1_554 S
C1691 C1690 1.385 . S
C1692 C1690 1.478 . S
C1692 C1694 1.381 . S
C1692 C1698 1.383 . S
C1693 C1689 1.495 . S
C1693 H1699 0.959 . S
C1693 H1700 0.961 . S
C1693 H1701 0.960 . S
C1694 C1692 1.381 . S
C1694 C1695 1.394 . S
C1694 H1702 0.930 . S
C1695 C1694 1.394 . S
C1695 C1696 1.383 . S
C1695 H1703 0.929 . S
C1696 C1695 1.383 . S
C1696 C1697 1.377 . S
C1697 H1681 0.930 . S
C1697 C1696 1.377 . S
C1697 C1698 1.379 . S
C1698 H1682 0.931 . S
C1698 C1692 1.383 . S
C1698 C1697 1.379 . S
H1699 C1693 0.959 . S
H1700 C1693 0.961 . S
H1701 C1693 0.960 . S
H1702 C1694 0.930 . S
H1703 C1695 0.929 . S
H1704 C1712 0.929 . S
H1705 C1714 0.930 . S
H1706 C1716 0.930 . S
H1707 C1719 0.929 . S
H1708 C1722 0.930 . S
H1709 C1724 0.960 . S
H1710 C1724 0.960 . S
H1711 C1724 0.960 . S
C1712 H1704 0.929 . S
C1712 C1713 1.377 . S
C1712 C1714 1.384 . S
C1713 C1712 1.377 . S
C1713 C1719 1.390 . S
C1714 H1705 0.930 . S
C1714 C1712 1.384 . S
C1714 C1715 1.372 . S
C1715 C1714 1.372 . S
C1715 C1716 1.400 . S
C1715 C1720 1.490 . S
C1716 H1706 0.930 . S
C1716 C1715 1.400 . S
C1716 C1719 1.386 . S
H1717 C1733 0.930 . S
H1718 C1734 0.931 . S
C1719 H1707 0.929 . S
C1719 C1713 1.390 . S
C1719 C1716 1.386 . S
C1720 C1715 1.490 . S
C1720 C1722 1.395 . S
C1720 C1723 1.403 . S
H1721 C1727 0.930 . S
C1722 H1708 0.930 . S
C1722 C1720 1.395 . S
C1722 C1725 1.403 1_554 S
C1723 C1720 1.403 . S
C1723 C1724 1.524 . S
C1723 C1727 1.400 1_554 S
C1724 H1709 0.960 . S
C1724 H1710 0.960 . S
C1724 H1711 0.960 . S
C1724 C1723 1.524 . S
C1725 C1722 1.403 1_556 S
C1725 C1726 1.392 . S
C1725 C1729 1.495 . S
C1726 C1725 1.392 . S
C1726 C1727 1.385 . S
C1726 C1728 1.478 . S
C1727 H1721 0.930 . S
C1727 C1723 1.400 1_556 S
C1727 C1726 1.385 . S
C1728 C1726 1.478 . S
C1728 C1730 1.381 . S
C1728 C1734 1.383 . S
C1729 C1725 1.495 . S
C1729 H1735 0.959 . S
C1729 H1736 0.961 . S
C1729 H1737 0.960 . S
C1730 C1728 1.381 . S
C1730 C1731 1.394 . S
C1730 H1738 0.930 . S
C1731 C1730 1.394 . S
C1731 C1732 1.383 . S
C1731 H1739 0.929 . S
C1732 C1731 1.383 . S
C1732 C1733 1.377 . S
C1733 H1717 0.930 . S
C1733 C1732 1.377 . S
C1733 C1734 1.379 . S
C1734 H1718 0.931 . S
C1734 C1728 1.383 . S
C1734 C1733 1.379 . S
H1735 C1729 0.959 . S
H1736 C1729 0.961 . S
H1737 C1729 0.960 . S
H1738 C1730 0.930 . S
H1739 C1731 0.929 . S
H1740 C1748 0.929 . S
H1741 C1750 0.930 . S
H1742 C1752 0.930 . S
H1743 C1755 0.929 . S
H1744 C1758 0.930 . S
H1745 C1760 0.960 . S
H1746 C1760 0.960 . S
H1747 C1760 0.960 . S
C1748 H1740 0.929 . S
C1748 C1749 1.377 . S
C1748 C1750 1.384 . S
C1749 C1748 1.377 . S
C1749 C1755 1.390 . S
C1750 H1741 0.930 . S
C1750 C1748 1.384 . S
C1750 C1751 1.372 . S
C1751 C1750 1.372 . S
C1751 C1752 1.400 . S
C1751 C1756 1.490 . S
C1752 H1742 0.930 . S
C1752 C1751 1.400 . S
C1752 C1755 1.386 . S
H1753 C1769 0.930 . S
H1754 C1770 0.931 . S
C1755 H1743 0.929 . S
C1755 C1749 1.390 . S
C1755 C1752 1.386 . S
C1756 C1751 1.490 . S
C1756 C1758 1.395 . S
C1756 C1759 1.403 . S
H1757 C1763 0.930 . S
C1758 H1744 0.930 . S
C1758 C1756 1.395 . S
C1758 C1761 1.403 1_554 S
C1759 C1756 1.403 . S
C1759 C1760 1.524 . S
C1759 C1763 1.400 1_554 S
C1760 H1745 0.960 . S
C1760 H1746 0.960 . S
C1760 H1747 0.960 . S
C1760 C1759 1.524 . S
C1761 C1758 1.403 1_556 S
C1761 C1762 1.392 . S
C1761 C1765 1.495 . S
C1762 C1761 1.392 . S
C1762 C1763 1.385 . S
C1762 C1764 1.478 . S
C1763 H1757 0.930 . S
C1763 C1759 1.400 1_556 S
C1763 C1762 1.385 . S
C1764 C1762 1.478 . S
C1764 C1766 1.381 . S
C1764 C1770 1.383 . S
C1765 C1761 1.495 . S
C1765 H1771 0.959 . S
C1765 H1772 0.961 . S
C1765 H1773 0.960 . S
C1766 C1764 1.381 . S
C1766 C1767 1.394 . S
C1766 H1774 0.930 . S
C1767 C1766 1.394 . S
C1767 C1768 1.383 . S
C1767 H1775 0.929 . S
C1768 C1767 1.383 . S
C1768 C1769 1.377 . S
C1769 H1753 0.930 . S
C1769 C1768 1.377 . S
C1769 C1770 1.379 . S
C1770 H1754 0.931 . S
C1770 C1764 1.383 . S
C1770 C1769 1.379 . S
H1771 C1765 0.959 . S
H1772 C1765 0.961 . S
H1773 C1765 0.960 . S
H1774 C1766 0.930 . S
H1775 C1767 0.929 . S
H1776 C1784 0.929 . S
H1777 C1786 0.930 . S
H1778 C1788 0.930 . S
H1779 C1791 0.929 . S
H1780 C1794 0.930 . S
H1781 C1796 0.960 . S
H1782 C1796 0.960 . S
H1783 C1796 0.960 . S
C1784 H1776 0.929 . S
C1784 C1785 1.377 . S
C1784 C1786 1.384 . S
C1785 C1784 1.377 . S
C1785 C1791 1.390 . S
C1786 H1777 0.930 . S
C1786 C1784 1.384 . S
C1786 C1787 1.372 . S
C1787 C1786 1.372 . S
C1787 C1788 1.400 . S
C1787 C1792 1.490 . S
C1788 H1778 0.930 . S
C1788 C1787 1.400 . S
C1788 C1791 1.386 . S
H1789 C1805 0.930 . S
H1790 C1806 0.931 . S
C1791 H1779 0.929 . S
C1791 C1785 1.390 . S
C1791 C1788 1.386 . S
C1792 C1787 1.490 . S
C1792 C1794 1.395 . S
C1792 C1795 1.403 . S
H1793 C1799 0.930 . S
C1794 H1780 0.930 . S
C1794 C1792 1.395 . S
C1794 C1797 1.403 . S
C1795 C1792 1.403 . S
C1795 C1796 1.524 . S
C1795 C1799 1.400 . S
C1796 H1781 0.960 . S
C1796 H1782 0.960 . S
C1796 H1783 0.960 . S
C1796 C1795 1.524 . S
C1797 C1794 1.403 . S
C1797 C1798 1.392 . S
C1797 C1801 1.495 . S
C1798 C1797 1.392 . S
C1798 C1799 1.385 . S
C1798 C1800 1.478 . S
C1799 H1793 0.930 . S
C1799 C1795 1.400 . S
C1799 C1798 1.385 . S
C1800 C1798 1.478 . S
C1800 C1802 1.381 . S
C1800 C1806 1.383 . S
C1801 C1797 1.495 . S
C1801 H1807 0.959 . S
C1801 H1808 0.961 . S
C1801 H1809 0.960 . S
C1802 C1800 1.381 . S
C1802 C1803 1.394 . S
C1802 H1810 0.930 . S
C1803 C1802 1.394 . S
C1803 C1804 1.383 . S
C1803 H1811 0.929 . S
C1804 C1803 1.383 . S
C1804 C1805 1.377 . S
C1805 H1789 0.930 . S
C1805 C1804 1.377 . S
C1805 C1806 1.379 . S
C1806 H1790 0.931 . S
C1806 C1800 1.383 . S
C1806 C1805 1.379 . S
H1807 C1801 0.959 . S
H1808 C1801 0.961 . S
H1809 C1801 0.960 . S
H1810 C1802 0.930 . S
H1811 C1803 0.929 . S
H1812 C1820 0.929 . S
H1813 C1822 0.930 . S
H1814 C1824 0.930 . S
H1815 C1827 0.929 . S
H1816 C1830 0.930 . S
H1817 C1832 0.960 . S
H1818 C1832 0.960 . S
H1819 C1832 0.960 . S
C1820 H1812 0.929 . S
C1820 C1821 1.377 . S
C1820 C1822 1.384 . S
C1821 C1820 1.377 . S
C1821 C1827 1.390 . S
C1822 H1813 0.930 . S
C1822 C1820 1.384 . S
C1822 C1823 1.372 . S
C1823 C1822 1.372 . S
C1823 C1824 1.400 . S
C1823 C1828 1.490 . S
C1824 H1814 0.930 . S
C1824 C1823 1.400 . S
C1824 C1827 1.386 . S
H1825 C1841 0.930 . S
H1826 C1842 0.931 . S
C1827 H1815 0.929 . S
C1827 C1821 1.390 . S
C1827 C1824 1.386 . S
C1828 C1823 1.490 . S
C1828 C1830 1.395 . S
C1828 C1831 1.403 . S
H1829 C1835 0.930 . S
C1830 H1816 0.930 . S
C1830 C1828 1.395 . S
C1830 C1833 1.403 . S
C1831 C1828 1.403 . S
C1831 C1832 1.524 . S
C1831 C1835 1.400 . S
C1832 H1817 0.960 . S
C1832 H1818 0.960 . S
C1832 H1819 0.960 . S
C1832 C1831 1.524 . S
C1833 C1830 1.403 . S
C1833 C1834 1.392 . S
C1833 C1837 1.495 . S
C1834 C1833 1.392 . S
C1834 C1835 1.385 . S
C1834 C1836 1.478 . S
C1835 H1829 0.930 . S
C1835 C1831 1.400 . S
C1835 C1834 1.385 . S
C1836 C1834 1.478 . S
C1836 C1838 1.381 . S
C1836 C1842 1.383 . S
C1837 C1833 1.495 . S
C1837 H1843 0.959 . S
C1837 H1844 0.961 . S
C1837 H1845 0.960 . S
C1838 C1836 1.381 . S
C1838 C1839 1.394 . S
C1838 H1846 0.930 . S
C1839 C1838 1.394 . S
C1839 C1840 1.383 . S
C1839 H1847 0.929 . S
C1840 C1839 1.383 . S
C1840 C1841 1.377 . S
C1841 H1825 0.930 . S
C1841 C1840 1.377 . S
C1841 C1842 1.379 . S
C1842 H1826 0.931 . S
C1842 C1836 1.383 . S
C1842 C1841 1.379 . S
H1843 C1837 0.959 . S
H1844 C1837 0.961 . S
H1845 C1837 0.960 . S
H1846 C1838 0.930 . S
H1847 C1839 0.929 . S
H1848 C1856 0.929 . S
H1849 C1858 0.930 . S
H1850 C1860 0.930 . S
H1851 C1863 0.929 . S
H1852 C1866 0.930 . S
H1853 C1868 0.960 . S
H1854 C1868 0.960 . S
H1855 C1868 0.960 . S
C1856 H1848 0.929 . S
C1856 C1857 1.377 . S
C1856 C1858 1.384 . S
C1857 C1856 1.377 . S
C1857 C1863 1.390 . S
C1858 H1849 0.930 . S
C1858 C1856 1.384 . S
C1858 C1859 1.372 . S
C1859 C1858 1.372 . S
C1859 C1860 1.400 . S
C1859 C1864 1.490 . S
C1860 H1850 0.930 . S
C1860 C1859 1.400 . S
C1860 C1863 1.386 . S
H1861 C1877 0.930 . S
H1862 C1878 0.931 . S
C1863 H1851 0.929 . S
C1863 C1857 1.390 . S
C1863 C1860 1.386 . S
C1864 C1859 1.490 . S
C1864 C1866 1.395 . S
C1864 C1867 1.403 . S
H1865 C1871 0.930 . S
C1866 H1852 0.930 . S
C1866 C1864 1.395 . S
C1866 C1869 1.403 . S
C1867 C1864 1.403 . S
C1867 C1868 1.524 . S
C1867 C1871 1.400 . S
C1868 H1853 0.960 . S
C1868 H1854 0.960 . S
C1868 H1855 0.960 . S
C1868 C1867 1.524 . S
C1869 C1866 1.403 . S
C1869 C1870 1.392 . S
C1869 C1873 1.495 . S
C1870 C1869 1.392 . S
C1870 C1871 1.385 . S
C1870 C1872 1.478 . S
C1871 H1865 0.930 . S
C1871 C1867 1.400 . S
C1871 C1870 1.385 . S
C1872 C1870 1.478 . S
C1872 C1874 1.381 . S
C1872 C1878 1.383 . S
C1873 C1869 1.495 . S
C1873 H1879 0.959 . S
C1873 H1880 0.961 . S
C1873 H1881 0.960 . S
C1874 C1872 1.381 . S
C1874 C1875 1.394 . S
C1874 H1882 0.930 . S
C1875 C1874 1.394 . S
C1875 C1876 1.383 . S
C1875 H1883 0.929 . S
C1876 C1875 1.383 . S
C1876 C1877 1.377 . S
C1877 H1861 0.930 . S
C1877 C1876 1.377 . S
C1877 C1878 1.379 . S
C1878 H1862 0.931 . S
C1878 C1872 1.383 . S
C1878 C1877 1.379 . S
H1879 C1873 0.959 . S
H1880 C1873 0.961 . S
H1881 C1873 0.960 . S
H1882 C1874 0.930 . S
H1883 C1875 0.929 . S
H1884 C1892 0.929 . S
H1885 C1894 0.930 . S
H1886 C1896 0.930 . S
H1887 C1899 0.929 . S
H1888 C1902 0.930 . S
H1889 C1904 0.960 . S
H1890 C1904 0.960 . S
H1891 C1904 0.960 . S
C1892 H1884 0.929 . S
C1892 C1893 1.377 . S
C1892 C1894 1.384 . S
C1893 C1892 1.377 . S
C1893 C1899 1.390 . S
C1894 H1885 0.930 . S
C1894 C1892 1.384 . S
C1894 C1895 1.372 . S
C1895 C1894 1.372 . S
C1895 C1896 1.400 . S
C1895 C1900 1.490 . S
C1896 H1886 0.930 . S
C1896 C1895 1.400 . S
C1896 C1899 1.386 . S
H1897 C1913 0.930 . S
H1898 C1914 0.931 . S
C1899 H1887 0.929 . S
C1899 C1893 1.390 . S
C1899 C1896 1.386 . S
C1900 C1895 1.490 . S
C1900 C1902 1.395 . S
C1900 C1903 1.403 . S
H1901 C1907 0.930 . S
C1902 H1888 0.930 . S
C1902 C1900 1.395 . S
C1902 C1905 1.403 . S
C1903 C1900 1.403 . S
C1903 C1904 1.524 . S
C1903 C1907 1.400 . S
C1904 H1889 0.960 . S
C1904 H1890 0.960 . S
C1904 H1891 0.960 . S
C1904 C1903 1.524 . S
C1905 C1902 1.403 . S
C1905 C1906 1.392 . S
C1905 C1909 1.495 . S
C1906 C1905 1.392 . S
C1906 C1907 1.385 . S
C1906 C1908 1.478 . S
C1907 H1901 0.930 . S
C1907 C1903 1.400 . S
C1907 C1906 1.385 . S
C1908 C1906 1.478 . S
C1908 C1910 1.381 . S
C1908 C1914 1.383 . S
C1909 C1905 1.495 . S
C1909 H1915 0.959 . S
C1909 H1916 0.961 . S
C1909 H1917 0.960 . S
C1910 C1908 1.381 . S
C1910 C1911 1.394 . S
C1910 H1918 0.930 . S
C1911 C1910 1.394 . S
C1911 C1912 1.383 . S
C1911 H1919 0.929 . S
C1912 C1911 1.383 . S
C1912 C1913 1.377 . S
C1913 H1897 0.930 . S
C1913 C1912 1.377 . S
C1913 C1914 1.379 . S
C1914 H1898 0.931 . S
C1914 C1908 1.383 . S
C1914 C1913 1.379 . S
H1915 C1909 0.959 . S
H1916 C1909 0.961 . S
H1917 C1909 0.960 . S
H1918 C1910 0.930 . S
H1919 C1911 0.929 . S
H1920 C1928 0.929 . S
H1921 C1930 0.930 . S
H1922 C1932 0.930 . S
H1923 C1935 0.929 . S
H1924 C1938 0.930 . S
H1925 C1940 0.960 . S
H1926 C1940 0.960 . S
H1927 C1940 0.960 . S
C1928 H1920 0.929 . S
C1928 C1929 1.377 . S
C1928 C1930 1.384 . S
C1929 C1928 1.377 . S
C1929 C1935 1.390 . S
C1930 H1921 0.930 . S
C1930 C1928 1.384 . S
C1930 C1931 1.372 . S
C1931 C1930 1.372 . S
C1931 C1932 1.400 . S
C1931 C1936 1.490 . S
C1932 H1922 0.930 . S
C1932 C1931 1.400 . S
C1932 C1935 1.386 . S
H1933 C1949 0.930 . S
H1934 C1950 0.931 . S
C1935 H1923 0.929 . S
C1935 C1929 1.390 . S
C1935 C1932 1.386 . S
C1936 C1931 1.490 . S
C1936 C1938 1.395 . S
C1936 C1939 1.403 . S
H1937 C1943 0.930 . S
C1938 H1924 0.930 . S
C1938 C1936 1.395 . S
C1938 C1941 1.403 . S
C1939 C1936 1.403 . S
C1939 C1940 1.524 . S
C1939 C1943 1.400 . S
C1940 H1925 0.960 . S
C1940 H1926 0.960 . S
C1940 H1927 0.960 . S
C1940 C1939 1.524 . S
C1941 C1938 1.403 . S
C1941 C1942 1.392 . S
C1941 C1945 1.495 . S
C1942 C1941 1.392 . S
C1942 C1943 1.385 . S
C1942 C1944 1.478 . S
C1943 H1937 0.930 . S
C1943 C1939 1.400 . S
C1943 C1942 1.385 . S
C1944 C1942 1.478 . S
C1944 C1946 1.381 . S
C1944 C1950 1.383 . S
C1945 C1941 1.495 . S
C1945 H1951 0.959 . S
C1945 H1952 0.961 . S
C1945 H1953 0.960 . S
C1946 C1944 1.381 . S
C1946 C1947 1.394 . S
C1946 H1954 0.930 . S
C1947 C1946 1.394 . S
C1947 C1948 1.383 . S
C1947 H1955 0.929 . S
C1948 C1947 1.383 . S
C1948 C1949 1.377 . S
C1949 H1933 0.930 . S
C1949 C1948 1.377 . S
C1949 C1950 1.379 . S
C1950 H1934 0.931 . S
C1950 C1944 1.383 . S
C1950 C1949 1.379 . S
H1951 C1945 0.959 . S
H1952 C1945 0.961 . S
H1953 C1945 0.960 . S
H1954 C1946 0.930 . S
H1955 C1947 0.929 . S
H1956 C1964 0.929 . S
H1957 C1966 0.930 . S
H1958 C1968 0.930 . S
H1959 C1971 0.929 . S
H1960 C1974 0.930 . S
H1961 C1976 0.960 . S
H1962 C1976 0.960 . S
H1963 C1976 0.960 . S
C1964 H1956 0.929 . S
C1964 C1965 1.377 . S
C1964 C1966 1.384 . S
C1965 C1964 1.377 . S
C1965 C1971 1.390 . S
C1966 H1957 0.930 . S
C1966 C1964 1.384 . S
C1966 C1967 1.372 . S
C1967 C1966 1.372 . S
C1967 C1968 1.400 . S
C1967 C1972 1.490 . S
C1968 H1958 0.930 . S
C1968 C1967 1.400 . S
C1968 C1971 1.386 . S
H1969 C1985 0.930 . S
H1970 C1986 0.931 . S
C1971 H1959 0.929 . S
C1971 C1965 1.390 . S
C1971 C1968 1.386 . S
C1972 C1967 1.490 . S
C1972 C1974 1.395 . S
C1972 C1975 1.403 . S
H1973 C1979 0.930 . S
C1974 H1960 0.930 . S
C1974 C1972 1.395 . S
C1974 C1977 1.403 . S
C1975 C1972 1.403 . S
C1975 C1976 1.524 . S
C1975 C1979 1.400 . S
C1976 H1961 0.960 . S
C1976 H1962 0.960 . S
C1976 H1963 0.960 . S
C1976 C1975 1.524 . S
C1977 C1974 1.403 . S
C1977 C1978 1.392 . S
C1977 C1981 1.495 . S
C1978 C1977 1.392 . S
C1978 C1979 1.385 . S
C1978 C1980 1.478 . S
C1979 H1973 0.930 . S
C1979 C1975 1.400 . S
C1979 C1978 1.385 . S
C1980 C1978 1.478 . S
C1980 C1982 1.381 . S
C1980 C1986 1.383 . S
C1981 C1977 1.495 . S
C1981 H1987 0.959 . S
C1981 H1988 0.961 . S
C1981 H1989 0.960 . S
C1982 C1980 1.381 . S
C1982 C1983 1.394 . S
C1982 H1990 0.930 . S
C1983 C1982 1.394 . S
C1983 C1984 1.383 . S
C1983 H1991 0.929 . S
C1984 C1983 1.383 . S
C1984 C1985 1.377 . S
C1985 H1969 0.930 . S
C1985 C1984 1.377 . S
C1985 C1986 1.379 . S
C1986 H1970 0.931 . S
C1986 C1980 1.383 . S
C1986 C1985 1.379 . S
H1987 C1981 0.959 . S
H1988 C1981 0.961 . S
H1989 C1981 0.960 . S
H1990 C1982 0.930 . S
H1991 C1983 0.929 . S
H1992 C2000 0.929 . S
H1993 C2002 0.930 . S
H1994 C2004 0.930 . S
H1995 C2007 0.929 . S
H1996 C2010 0.930 . S
H1997 C2012 0.960 . S
H1998 C2012 0.960 . S
H1999 C2012 0.960 . S
C2000 H1992 0.929 . S
C2000 C2001 1.377 . S
C2000 C2002 1.384 . S
C2001 C2000 1.377 . S
C2001 C2007 1.390 . S
C2002 H1993 0.930 . S
C2002 C2000 1.384 . S
C2002 C2003 1.372 . S
C2003 C2002 1.372 . S
C2003 C2004 1.400 . S
C2003 C2008 1.490 . S
C2004 H1994 0.930 . S
C2004 C2003 1.400 . S
C2004 C2007 1.386 . S
H2005 C2021 0.930 . S
H2006 C2022 0.931 . S
C2007 H1995 0.929 . S
C2007 C2001 1.390 . S
C2007 C2004 1.386 . S
C2008 C2003 1.490 . S
C2008 C2010 1.395 . S
C2008 C2011 1.403 . S
H2009 C2015 0.930 . S
C2010 H1996 0.930 . S
C2010 C2008 1.395 . S
C2010 C2013 1.403 . S
C2011 C2008 1.403 . S
C2011 C2012 1.524 . S
C2011 C2015 1.400 . S
C2012 H1997 0.960 . S
C2012 H1998 0.960 . S
C2012 H1999 0.960 . S
C2012 C2011 1.524 . S
C2013 C2010 1.403 . S
C2013 C2014 1.392 . S
C2013 C2017 1.495 . S
C2014 C2013 1.392 . S
C2014 C2015 1.385 . S
C2014 C2016 1.478 . S
C2015 H2009 0.930 . S
C2015 C2011 1.400 . S
C2015 C2014 1.385 . S
C2016 C2014 1.478 . S
C2016 C2018 1.381 . S
C2016 C2022 1.383 . S
C2017 C2013 1.495 . S
C2017 H2023 0.959 . S
C2017 H2024 0.961 . S
C2017 H2025 0.960 . S
C2018 C2016 1.381 . S
C2018 C2019 1.394 . S
C2018 H2026 0.930 . S
C2019 C2018 1.394 . S
C2019 C2020 1.383 . S
C2019 H2027 0.929 . S
C2020 C2019 1.383 . S
C2020 C2021 1.377 . S
C2021 H2005 0.930 . S
C2021 C2020 1.377 . S
C2021 C2022 1.379 . S
C2022 H2006 0.931 . S
C2022 C2016 1.383 . S
C2022 C2021 1.379 . S
H2023 C2017 0.959 . S
H2024 C2017 0.961 . S
H2025 C2017 0.960 . S
H2026 C2018 0.930 . S
H2027 C2019 0.929 . S
H2028 C2036 0.929 . S
H2029 C2038 0.930 . S
H2030 C2040 0.930 . S
H2031 C2043 0.929 . S
H2032 C2046 0.930 . S
H2033 C2048 0.960 . S
H2034 C2048 0.960 . S
H2035 C2048 0.960 . S
C2036 H2028 0.929 . S
C2036 C2037 1.377 . S
C2036 C2038 1.384 . S
C2037 C2036 1.377 . S
C2037 C2043 1.390 . S
C2038 H2029 0.930 . S
C2038 C2036 1.384 . S
C2038 C2039 1.372 . S
C2039 C2038 1.372 . S
C2039 C2040 1.400 . S
C2039 C2044 1.490 . S
C2040 H2030 0.930 . S
C2040 C2039 1.400 . S
C2040 C2043 1.386 . S
H2041 C2057 0.930 . S
H2042 C2058 0.931 . S
C2043 H2031 0.929 . S
C2043 C2037 1.390 . S
C2043 C2040 1.386 . S
C2044 C2039 1.490 . S
C2044 C2046 1.395 . S
C2044 C2047 1.403 . S
H2045 C2051 0.930 . S
C2046 H2032 0.930 . S
C2046 C2044 1.395 . S
C2046 C2049 1.403 . S
C2047 C2044 1.403 . S
C2047 C2048 1.524 . S
C2047 C2051 1.400 . S
C2048 H2033 0.960 . S
C2048 H2034 0.960 . S
C2048 H2035 0.960 . S
C2048 C2047 1.524 . S
C2049 C2046 1.403 . S
C2049 C2050 1.392 . S
C2049 C2053 1.495 . S
C2050 C2049 1.392 . S
C2050 C2051 1.385 . S
C2050 C2052 1.478 . S
C2051 H2045 0.930 . S
C2051 C2047 1.400 . S
C2051 C2050 1.385 . S
C2052 C2050 1.478 . S
C2052 C2054 1.381 . S
C2052 C2058 1.383 . S
C2053 C2049 1.495 . S
C2053 H2059 0.959 . S
C2053 H2060 0.961 . S
C2053 H2061 0.960 . S
C2054 C2052 1.381 . S
C2054 C2055 1.394 . S
C2054 H2062 0.930 . S
C2055 C2054 1.394 . S
C2055 C2056 1.383 . S
C2055 H2063 0.929 . S
C2056 C2055 1.383 . S
C2056 C2057 1.377 . S
C2057 H2041 0.930 . S
C2057 C2056 1.377 . S
C2057 C2058 1.379 . S
C2058 H2042 0.931 . S
C2058 C2052 1.383 . S
C2058 C2057 1.379 . S
H2059 C2053 0.959 . S
H2060 C2053 0.961 . S
H2061 C2053 0.960 . S
H2062 C2054 0.930 . S
H2063 C2055 0.929 . S
H2064 C2072 0.929 . S
H2065 C2074 0.930 . S
H2066 C2076 0.930 . S
H2067 C2079 0.929 . S
H2068 C2082 0.930 . S
H2069 C2084 0.960 . S
H2070 C2084 0.960 . S
H2071 C2084 0.960 . S
C2072 H2064 0.929 . S
C2072 C2073 1.377 . S
C2072 C2074 1.384 . S
C2073 C2072 1.377 . S
C2073 C2079 1.390 . S
C2074 H2065 0.930 . S
C2074 C2072 1.384 . S
C2074 C2075 1.372 . S
C2075 C2074 1.372 . S
C2075 C2076 1.400 . S
C2075 C2080 1.490 . S
C2076 H2066 0.930 . S
C2076 C2075 1.400 . S
C2076 C2079 1.386 . S
H2077 C2093 0.930 . S
H2078 C2094 0.931 . S
C2079 H2067 0.929 . S
C2079 C2073 1.390 . S
C2079 C2076 1.386 . S
C2080 C2075 1.490 . S
C2080 C2082 1.395 . S
C2080 C2083 1.403 . S
H2081 C2087 0.930 . S
C2082 H2068 0.930 . S
C2082 C2080 1.395 . S
C2082 C2085 1.403 . S
C2083 C2080 1.403 . S
C2083 C2084 1.524 . S
C2083 C2087 1.400 . S
C2084 H2069 0.960 . S
C2084 H2070 0.960 . S
C2084 H2071 0.960 . S
C2084 C2083 1.524 . S
C2085 C2082 1.403 . S
C2085 C2086 1.392 . S
C2085 C2089 1.495 . S
C2086 C2085 1.392 . S
C2086 C2087 1.385 . S
C2086 C2088 1.478 . S
C2087 H2081 0.930 . S
C2087 C2083 1.400 . S
C2087 C2086 1.385 . S
C2088 C2086 1.478 . S
C2088 C2090 1.381 . S
C2088 C2094 1.383 . S
C2089 C2085 1.495 . S
C2089 H2095 0.959 . S
C2089 H2096 0.961 . S
C2089 H2097 0.960 . S
C2090 C2088 1.381 . S
C2090 C2091 1.394 . S
C2090 H2098 0.930 . S
C2091 C2090 1.394 . S
C2091 C2092 1.383 . S
C2091 H2099 0.929 . S
C2092 C2091 1.383 . S
C2092 C2093 1.377 . S
C2093 H2077 0.930 . S
C2093 C2092 1.377 . S
C2093 C2094 1.379 . S
C2094 H2078 0.931 . S
C2094 C2088 1.383 . S
C2094 C2093 1.379 . S
H2095 C2089 0.959 . S
H2096 C2089 0.961 . S
H2097 C2089 0.960 . S
H2098 C2090 0.930 . S
H2099 C2091 0.929 . S
H2100 C2108 0.929 . S
H2101 C2110 0.930 . S
H2102 C2112 0.930 . S
H2103 C2115 0.929 . S
H2104 C2118 0.930 . S
H2105 C2120 0.960 . S
H2106 C2120 0.960 . S
H2107 C2120 0.960 . S
C2108 H2100 0.929 . S
C2108 C2109 1.377 . S
C2108 C2110 1.384 . S
C2109 C2108 1.377 . S
C2109 C2115 1.390 . S
C2110 H2101 0.930 . S
C2110 C2108 1.384 . S
C2110 C2111 1.372 . S
C2111 C2110 1.372 . S
C2111 C2112 1.400 . S
C2111 C2116 1.490 . S
C2112 H2102 0.930 . S
C2112 C2111 1.400 . S
C2112 C2115 1.386 . S
H2113 C2129 0.930 . S
H2114 C2130 0.931 . S
C2115 H2103 0.929 . S
C2115 C2109 1.390 . S
C2115 C2112 1.386 . S
C2116 C2111 1.490 . S
C2116 C2118 1.395 . S
C2116 C2119 1.403 . S
H2117 C2123 0.930 . S
C2118 H2104 0.930 . S
C2118 C2116 1.395 . S
C2118 C2121 1.403 . S
C2119 C2116 1.403 . S
C2119 C2120 1.524 . S
C2119 C2123 1.400 . S
C2120 H2105 0.960 . S
C2120 H2106 0.960 . S
C2120 H2107 0.960 . S
C2120 C2119 1.524 . S
C2121 C2118 1.403 . S
C2121 C2122 1.392 . S
C2121 C2125 1.495 . S
C2122 C2121 1.392 . S
C2122 C2123 1.385 . S
C2122 C2124 1.478 . S
C2123 H2117 0.930 . S
C2123 C2119 1.400 . S
C2123 C2122 1.385 . S
C2124 C2122 1.478 . S
C2124 C2126 1.381 . S
C2124 C2130 1.383 . S
C2125 C2121 1.495 . S
C2125 H2131 0.959 . S
C2125 H2132 0.961 . S
C2125 H2133 0.960 . S
C2126 C2124 1.381 . S
C2126 C2127 1.394 . S
C2126 H2134 0.930 . S
C2127 C2126 1.394 . S
C2127 C2128 1.383 . S
C2127 H2135 0.929 . S
C2128 C2127 1.383 . S
C2128 C2129 1.377 . S
C2129 H2113 0.930 . S
C2129 C2128 1.377 . S
C2129 C2130 1.379 . S
C2130 H2114 0.931 . S
C2130 C2124 1.383 . S
C2130 C2129 1.379 . S
H2131 C2125 0.959 . S
H2132 C2125 0.961 . S
H2133 C2125 0.960 . S
H2134 C2126 0.930 . S
H2135 C2127 0.929 . S
H2136 C2144 0.929 . S
H2137 C2146 0.930 . S
H2138 C2148 0.930 . S
H2139 C2151 0.929 . S
H2140 C2154 0.930 . S
H2141 C2156 0.960 . S
H2142 C2156 0.960 . S
H2143 C2156 0.960 . S
C2144 H2136 0.929 . S
C2144 C2145 1.377 . S
C2144 C2146 1.384 . S
C2145 C2144 1.377 . S
C2145 C2151 1.390 . S
C2146 H2137 0.930 . S
C2146 C2144 1.384 . S
C2146 C2147 1.372 . S
C2147 C2146 1.372 . S
C2147 C2148 1.400 . S
C2147 C2152 1.490 . S
C2148 H2138 0.930 . S
C2148 C2147 1.400 . S
C2148 C2151 1.386 . S
H2149 C2165 0.930 . S
H2150 C2166 0.931 . S
C2151 H2139 0.929 . S
C2151 C2145 1.390 . S
C2151 C2148 1.386 . S
C2152 C2147 1.490 . S
C2152 C2154 1.395 . S
C2152 C2155 1.403 . S
H2153 C2159 0.930 . S
C2154 H2140 0.930 . S
C2154 C2152 1.395 . S
C2154 C2157 1.403 . S
C2155 C2152 1.403 . S
C2155 C2156 1.524 . S
C2155 C2159 1.400 . S
C2156 H2141 0.960 . S
C2156 H2142 0.960 . S
C2156 H2143 0.960 . S
C2156 C2155 1.524 . S
C2157 C2154 1.403 . S
C2157 C2158 1.392 . S
C2157 C2161 1.495 . S
C2158 C2157 1.392 . S
C2158 C2159 1.385 . S
C2158 C2160 1.478 . S
C2159 H2153 0.930 . S
C2159 C2155 1.400 . S
C2159 C2158 1.385 . S
C2160 C2158 1.478 . S
C2160 C2162 1.381 . S
C2160 C2166 1.383 . S
C2161 C2157 1.495 . S
C2161 H2167 0.959 . S
C2161 H2168 0.961 . S
C2161 H2169 0.960 . S
C2162 C2160 1.381 . S
C2162 C2163 1.394 . S
C2162 H2170 0.930 . S
C2163 C2162 1.394 . S
C2163 C2164 1.383 . S
C2163 H2171 0.929 . S
C2164 C2163 1.383 . S
C2164 C2165 1.377 . S
C2165 H2149 0.930 . S
C2165 C2164 1.377 . S
C2165 C2166 1.379 . S
C2166 H2150 0.931 . S
C2166 C2160 1.383 . S
C2166 C2165 1.379 . S
H2167 C2161 0.959 . S
H2168 C2161 0.961 . S
H2169 C2161 0.960 . S
H2170 C2162 0.930 . S
H2171 C2163 0.929 . S
H2172 C2180 0.929 . S
H2173 C2182 0.930 . S
H2174 C2184 0.930 . S
H2175 C2187 0.929 . S
H2176 C2190 0.930 . S
H2177 C2192 0.960 . S
H2178 C2192 0.960 . S
H2179 C2192 0.960 . S
C2180 H2172 0.929 . S
C2180 C2181 1.377 . S
C2180 C2182 1.384 . S
C2181 C2180 1.377 . S
C2181 C2187 1.390 . S
C2182 H2173 0.930 . S
C2182 C2180 1.384 . S
C2182 C2183 1.372 . S
C2183 C2182 1.372 . S
C2183 C2184 1.400 . S
C2183 C2188 1.490 . S
C2184 H2174 0.930 . S
C2184 C2183 1.400 . S
C2184 C2187 1.386 . S
H2185 C2201 0.930 . S
H2186 C2202 0.931 . S
C2187 H2175 0.929 . S
C2187 C2181 1.390 . S
C2187 C2184 1.386 . S
C2188 C2183 1.490 . S
C2188 C2190 1.395 . S
C2188 C2191 1.403 . S
H2189 C2195 0.930 . S
C2190 H2176 0.930 . S
C2190 C2188 1.395 . S
C2190 C2193 1.403 . S
C2191 C2188 1.403 . S
C2191 C2192 1.524 . S
C2191 C2195 1.400 . S
C2192 H2177 0.960 . S
C2192 H2178 0.960 . S
C2192 H2179 0.960 . S
C2192 C2191 1.524 . S
C2193 C2190 1.403 . S
C2193 C2194 1.392 . S
C2193 C2197 1.495 . S
C2194 C2193 1.392 . S
C2194 C2195 1.385 . S
C2194 C2196 1.478 . S
C2195 H2189 0.930 . S
C2195 C2191 1.400 . S
C2195 C2194 1.385 . S
C2196 C2194 1.478 . S
C2196 C2198 1.381 . S
C2196 C2202 1.383 . S
C2197 C2193 1.495 . S
C2197 H2203 0.959 . S
C2197 H2204 0.961 . S
C2197 H2205 0.960 . S
C2198 C2196 1.381 . S
C2198 C2199 1.394 . S
C2198 H2206 0.930 . S
C2199 C2198 1.394 . S
C2199 C2200 1.383 . S
C2199 H2207 0.929 . S
C2200 C2199 1.383 . S
C2200 C2201 1.377 . S
C2201 H2185 0.930 . S
C2201 C2200 1.377 . S
C2201 C2202 1.379 . S
C2202 H2186 0.931 . S
C2202 C2196 1.383 . S
C2202 C2201 1.379 . S
H2203 C2197 0.959 . S
H2204 C2197 0.961 . S
H2205 C2197 0.960 . S
H2206 C2198 0.930 . S
H2207 C2199 0.929 . S
H2208 C2216 0.929 . S
H2209 C2218 0.930 . S
H2210 C2220 0.930 . S
H2211 C2223 0.929 . S
H2212 C2226 0.930 . S
H2213 C2228 0.960 . S
H2214 C2228 0.960 . S
H2215 C2228 0.960 . S
C2216 H2208 0.929 . S
C2216 C2217 1.377 . S
C2216 C2218 1.384 . S
C2217 C2216 1.377 . S
C2217 C2223 1.390 . S
C2218 H2209 0.930 . S
C2218 C2216 1.384 . S
C2218 C2219 1.372 . S
C2219 C2218 1.372 . S
C2219 C2220 1.400 . S
C2219 C2224 1.490 . S
C2220 H2210 0.930 . S
C2220 C2219 1.400 . S
C2220 C2223 1.386 . S
H2221 C2237 0.930 . S
H2222 C2238 0.931 . S
C2223 H2211 0.929 . S
C2223 C2217 1.390 . S
C2223 C2220 1.386 . S
C2224 C2219 1.490 . S
C2224 C2226 1.395 . S
C2224 C2227 1.403 . S
H2225 C2231 0.930 . S
C2226 H2212 0.930 . S
C2226 C2224 1.395 . S
C2226 C2229 1.403 . S
C2227 C2224 1.403 . S
C2227 C2228 1.524 . S
C2227 C2231 1.400 . S
C2228 H2213 0.960 . S
C2228 H2214 0.960 . S
C2228 H2215 0.960 . S
C2228 C2227 1.524 . S
C2229 C2226 1.403 . S
C2229 C2230 1.392 . S
C2229 C2233 1.495 . S
C2230 C2229 1.392 . S
C2230 C2231 1.385 . S
C2230 C2232 1.478 . S
C2231 H2225 0.930 . S
C2231 C2227 1.400 . S
C2231 C2230 1.385 . S
C2232 C2230 1.478 . S
C2232 C2234 1.381 . S
C2232 C2238 1.383 . S
C2233 C2229 1.495 . S
C2233 H2239 0.959 . S
C2233 H2240 0.961 . S
C2233 H2241 0.960 . S
C2234 C2232 1.381 . S
C2234 C2235 1.394 . S
C2234 H2242 0.930 . S
C2235 C2234 1.394 . S
C2235 C2236 1.383 . S
C2235 H2243 0.929 . S
C2236 C2235 1.383 . S
C2236 C2237 1.377 . S
C2237 H2221 0.930 . S
C2237 C2236 1.377 . S
C2237 C2238 1.379 . S
C2238 H2222 0.931 . S
C2238 C2232 1.383 . S
C2238 C2237 1.379 . S
H2239 C2233 0.959 . S
H2240 C2233 0.961 . S
H2241 C2233 0.960 . S
H2242 C2234 0.930 . S
H2243 C2235 0.929 . S
H2244 C2252 0.929 . S
H2245 C2254 0.930 . S
H2246 C2256 0.930 . S
H2247 C2259 0.929 . S
H2248 C2262 0.930 . S
H2249 C2264 0.960 . S
H2250 C2264 0.960 . S
H2251 C2264 0.960 . S
C2252 H2244 0.929 . S
C2252 C2253 1.377 . S
C2252 C2254 1.384 . S
C2253 C2252 1.377 . S
C2253 C2259 1.390 . S
C2254 H2245 0.930 . S
C2254 C2252 1.384 . S
C2254 C2255 1.372 . S
C2255 C2254 1.372 . S
C2255 C2256 1.400 . S
C2255 C2260 1.490 . S
C2256 H2246 0.930 . S
C2256 C2255 1.400 . S
C2256 C2259 1.386 . S
H2257 C2273 0.930 . S
H2258 C2274 0.931 . S
C2259 H2247 0.929 . S
C2259 C2253 1.390 . S
C2259 C2256 1.386 . S
C2260 C2255 1.490 . S
C2260 C2262 1.395 . S
C2260 C2263 1.403 . S
H2261 C2267 0.930 . S
C2262 H2248 0.930 . S
C2262 C2260 1.395 . S
C2262 C2265 1.403 . S
C2263 C2260 1.403 . S
C2263 C2264 1.524 . S
C2263 C2267 1.400 . S
C2264 H2249 0.960 . S
C2264 H2250 0.960 . S
C2264 H2251 0.960 . S
C2264 C2263 1.524 . S
C2265 C2262 1.403 . S
C2265 C2266 1.392 . S
C2265 C2269 1.495 . S
C2266 C2265 1.392 . S
C2266 C2267 1.385 . S
C2266 C2268 1.478 . S
C2267 H2261 0.930 . S
C2267 C2263 1.400 . S
C2267 C2266 1.385 . S
C2268 C2266 1.478 . S
C2268 C2270 1.381 . S
C2268 C2274 1.383 . S
C2269 C2265 1.495 . S
C2269 H2275 0.959 . S
C2269 H2276 0.961 . S
C2269 H2277 0.960 . S
C2270 C2268 1.381 . S
C2270 C2271 1.394 . S
C2270 H2278 0.930 . S
C2271 C2270 1.394 . S
C2271 C2272 1.383 . S
C2271 H2279 0.929 . S
C2272 C2271 1.383 . S
C2272 C2273 1.377 . S
C2273 H2257 0.930 . S
C2273 C2272 1.377 . S
C2273 C2274 1.379 . S
C2274 H2258 0.931 . S
C2274 C2268 1.383 . S
C2274 C2273 1.379 . S
H2275 C2269 0.959 . S
H2276 C2269 0.961 . S
H2277 C2269 0.960 . S
H2278 C2270 0.930 . S
H2279 C2271 0.929 . S
H2280 C2288 0.929 . S
H2281 C2290 0.930 . S
H2282 C2292 0.930 . S
H2283 C2295 0.929 . S
H2284 C2298 0.930 . S
H2285 C2300 0.960 . S
H2286 C2300 0.960 . S
H2287 C2300 0.960 . S
C2288 H2280 0.929 . S
C2288 C2289 1.377 . S
C2288 C2290 1.384 . S
C2289 C2288 1.377 . S
C2289 C2295 1.390 . S
C2290 H2281 0.930 . S
C2290 C2288 1.384 . S
C2290 C2291 1.372 . S
C2291 C2290 1.372 . S
C2291 C2292 1.400 . S
C2291 C2296 1.490 . S
C2292 H2282 0.930 . S
C2292 C2291 1.400 . S
C2292 C2295 1.386 . S
H2293 C2309 0.930 . S
H2294 C2310 0.931 . S
C2295 H2283 0.929 . S
C2295 C2289 1.390 . S
C2295 C2292 1.386 . S
C2296 C2291 1.490 . S
C2296 C2298 1.395 . S
C2296 C2299 1.403 . S
H2297 C2303 0.930 . S
C2298 H2284 0.930 . S
C2298 C2296 1.395 . S
C2298 C2301 1.403 . S
C2299 C2296 1.403 . S
C2299 C2300 1.524 . S
C2299 C2303 1.400 . S
C2300 H2285 0.960 . S
C2300 H2286 0.960 . S
C2300 H2287 0.960 . S
C2300 C2299 1.524 . S
C2301 C2298 1.403 . S
C2301 C2302 1.392 . S
C2301 C2305 1.495 . S
C2302 C2301 1.392 . S
C2302 C2303 1.385 . S
C2302 C2304 1.478 . S
C2303 H2297 0.930 . S
C2303 C2299 1.400 . S
C2303 C2302 1.385 . S
C2304 C2302 1.478 . S
C2304 C2306 1.381 . S
C2304 C2310 1.383 . S
C2305 C2301 1.495 . S
C2305 H2311 0.959 . S
C2305 H2312 0.961 . S
C2305 H2313 0.960 . S
C2306 C2304 1.381 . S
C2306 C2307 1.394 . S
C2306 H2314 0.930 . S
C2307 C2306 1.394 . S
C2307 C2308 1.383 . S
C2307 H2315 0.929 . S
C2308 C2307 1.383 . S
C2308 C2309 1.377 . S
C2309 H2293 0.930 . S
C2309 C2308 1.377 . S
C2309 C2310 1.379 . S
C2310 H2294 0.931 . S
C2310 C2304 1.383 . S
C2310 C2309 1.379 . S
H2311 C2305 0.959 . S
H2312 C2305 0.961 . S
H2313 C2305 0.960 . S
H2314 C2306 0.930 . S
H2315 C2307 0.929 . S
H2316 C2324 0.929 . S
H2317 C2326 0.930 . S
H2318 C2328 0.930 . S
H2319 C2331 0.929 . S
H2320 C2334 0.930 . S
H2321 C2336 0.960 . S
H2322 C2336 0.960 . S
H2323 C2336 0.960 . S
C2324 H2316 0.929 . S
C2324 C2325 1.377 . S
C2324 C2326 1.384 . S
C2325 C2324 1.377 . S
C2325 C2331 1.390 . S
C2326 H2317 0.930 . S
C2326 C2324 1.384 . S
C2326 C2327 1.372 . S
C2327 C2326 1.372 . S
C2327 C2328 1.400 . S
C2327 C2332 1.490 . S
C2328 H2318 0.930 . S
C2328 C2327 1.400 . S
C2328 C2331 1.386 . S
H2329 C2345 0.930 . S
H2330 C2346 0.931 . S
C2331 H2319 0.929 . S
C2331 C2325 1.390 . S
C2331 C2328 1.386 . S
C2332 C2327 1.490 . S
C2332 C2334 1.395 . S
C2332 C2335 1.403 . S
H2333 C2339 0.930 . S
C2334 H2320 0.930 . S
C2334 C2332 1.395 . S
C2334 C2337 1.403 . S
C2335 C2332 1.403 . S
C2335 C2336 1.524 . S
C2335 C2339 1.400 . S
C2336 H2321 0.960 . S
C2336 H2322 0.960 . S
C2336 H2323 0.960 . S
C2336 C2335 1.524 . S
C2337 C2334 1.403 . S
C2337 C2338 1.392 . S
C2337 C2341 1.495 . S
C2338 C2337 1.392 . S
C2338 C2339 1.385 . S
C2338 C2340 1.478 . S
C2339 H2333 0.930 . S
C2339 C2335 1.400 . S
C2339 C2338 1.385 . S
C2340 C2338 1.478 . S
C2340 C2342 1.381 . S
C2340 C2346 1.383 . S
C2341 C2337 1.495 . S
C2341 H2347 0.959 . S
C2341 H2348 0.961 . S
C2341 H2349 0.960 . S
C2342 C2340 1.381 . S
C2342 C2343 1.394 . S
C2342 H2350 0.930 . S
C2343 C2342 1.394 . S
C2343 C2344 1.383 . S
C2343 H2351 0.929 . S
C2344 C2343 1.383 . S
C2344 C2345 1.377 . S
C2345 H2329 0.930 . S
C2345 C2344 1.377 . S
C2345 C2346 1.379 . S
C2346 H2330 0.931 . S
C2346 C2340 1.383 . S
C2346 C2345 1.379 . S
H2347 C2341 0.959 . S
H2348 C2341 0.961 . S
H2349 C2341 0.960 . S
H2350 C2342 0.930 . S
H2351 C2343 0.929 . S
H2352 C2360 0.929 . S
H2353 C2362 0.930 . S
H2354 C2364 0.930 . S
H2355 C2367 0.929 . S
H2356 C2370 0.930 . S
H2357 C2372 0.960 . S
H2358 C2372 0.960 . S
H2359 C2372 0.960 . S
C2360 H2352 0.929 . S
C2360 C2361 1.377 . S
C2360 C2362 1.384 . S
C2361 C2360 1.377 . S
C2361 C2367 1.390 . S
C2362 H2353 0.930 . S
C2362 C2360 1.384 . S
C2362 C2363 1.372 . S
C2363 C2362 1.372 . S
C2363 C2364 1.400 . S
C2363 C2368 1.490 . S
C2364 H2354 0.930 . S
C2364 C2363 1.400 . S
C2364 C2367 1.386 . S
H2365 C2381 0.930 . S
H2366 C2382 0.931 . S
C2367 H2355 0.929 . S
C2367 C2361 1.390 . S
C2367 C2364 1.386 . S
C2368 C2363 1.490 . S
C2368 C2370 1.395 . S
C2368 C2371 1.403 . S
H2369 C2375 0.930 . S
C2370 H2356 0.930 . S
C2370 C2368 1.395 . S
C2370 C2373 1.403 . S
C2371 C2368 1.403 . S
C2371 C2372 1.524 . S
C2371 C2375 1.400 . S
C2372 H2357 0.960 . S
C2372 H2358 0.960 . S
C2372 H2359 0.960 . S
C2372 C2371 1.524 . S
C2373 C2370 1.403 . S
C2373 C2374 1.392 . S
C2373 C2377 1.495 . S
C2374 C2373 1.392 . S
C2374 C2375 1.385 . S
C2374 C2376 1.478 . S
C2375 H2369 0.930 . S
C2375 C2371 1.400 . S
C2375 C2374 1.385 . S
C2376 C2374 1.478 . S
C2376 C2378 1.381 . S
C2376 C2382 1.383 . S
C2377 C2373 1.495 . S
C2377 H2383 0.959 . S
C2377 H2384 0.961 . S
C2377 H2385 0.960 . S
C2378 C2376 1.381 . S
C2378 C2379 1.394 . S
C2378 H2386 0.930 . S
C2379 C2378 1.394 . S
C2379 C2380 1.383 . S
C2379 H2387 0.929 . S
C2380 C2379 1.383 . S
C2380 C2381 1.377 . S
C2381 H2365 0.930 . S
C2381 C2380 1.377 . S
C2381 C2382 1.379 . S
C2382 H2366 0.931 . S
C2382 C2376 1.383 . S
C2382 C2381 1.379 . S
H2383 C2377 0.959 . S
H2384 C2377 0.961 . S
H2385 C2377 0.960 . S
H2386 C2378 0.930 . S
H2387 C2379 0.929 . S
H2388 C2396 0.929 . S
H2389 C2398 0.930 . S
H2390 C2400 0.930 . S
H2391 C2403 0.929 . S
H2392 C2406 0.930 . S
H2393 C2408 0.960 . S
H2394 C2408 0.960 . S
H2395 C2408 0.960 . S
C2396 H2388 0.929 . S
C2396 C2397 1.377 . S
C2396 C2398 1.384 . S
C2397 C2396 1.377 . S
C2397 C2403 1.390 . S
C2398 H2389 0.930 . S
C2398 C2396 1.384 . S
C2398 C2399 1.372 . S
C2399 C2398 1.372 . S
C2399 C2400 1.400 . S
C2399 C2404 1.490 . S
C2400 H2390 0.930 . S
C2400 C2399 1.400 . S
C2400 C2403 1.386 . S
H2401 C2417 0.930 . S
H2402 C2418 0.931 . S
C2403 H2391 0.929 . S
C2403 C2397 1.390 . S
C2403 C2400 1.386 . S
C2404 C2399 1.490 . S
C2404 C2406 1.395 . S
C2404 C2407 1.403 . S
H2405 C2411 0.930 . S
C2406 H2392 0.930 . S
C2406 C2404 1.395 . S
C2406 C2409 1.403 . S
C2407 C2404 1.403 . S
C2407 C2408 1.524 . S
C2407 C2411 1.400 . S
C2408 H2393 0.960 . S
C2408 H2394 0.960 . S
C2408 H2395 0.960 . S
C2408 C2407 1.524 . S
C2409 C2406 1.403 . S
C2409 C2410 1.392 . S
C2409 C2413 1.495 . S
C2410 C2409 1.392 . S
C2410 C2411 1.385 . S
C2410 C2412 1.478 . S
C2411 H2405 0.930 . S
C2411 C2407 1.400 . S
C2411 C2410 1.385 . S
C2412 C2410 1.478 . S
C2412 C2414 1.381 . S
C2412 C2418 1.383 . S
C2413 C2409 1.495 . S
C2413 H2419 0.959 . S
C2413 H2420 0.961 . S
C2413 H2421 0.960 . S
C2414 C2412 1.381 . S
C2414 C2415 1.394 . S
C2414 H2422 0.930 . S
C2415 C2414 1.394 . S
C2415 C2416 1.383 . S
C2415 H2423 0.929 . S
C2416 C2415 1.383 . S
C2416 C2417 1.377 . S
C2417 H2401 0.930 . S
C2417 C2416 1.377 . S
C2417 C2418 1.379 . S
C2418 H2402 0.931 . S
C2418 C2412 1.383 . S
C2418 C2417 1.379 . S
H2419 C2413 0.959 . S
H2420 C2413 0.961 . S
H2421 C2413 0.960 . S
H2422 C2414 0.930 . S
H2423 C2415 0.929 . S
H2424 C2432 0.929 . S
H2425 C2434 0.930 . S
H2426 C2436 0.930 . S
H2427 C2439 0.929 . S
H2428 C2442 0.930 . S
H2429 C2444 0.960 . S
H2430 C2444 0.960 . S
H2431 C2444 0.960 . S
C2432 H2424 0.929 . S
C2432 C2433 1.377 . S
C2432 C2434 1.384 . S
C2433 C2432 1.377 . S
C2433 C2439 1.390 . S
C2434 H2425 0.930 . S
C2434 C2432 1.384 . S
C2434 C2435 1.372 . S
C2435 C2434 1.372 . S
C2435 C2436 1.400 . S
C2435 C2440 1.490 . S
C2436 H2426 0.930 . S
C2436 C2435 1.400 . S
C2436 C2439 1.386 . S
H2437 C2453 0.930 . S
H2438 C2454 0.931 . S
C2439 H2427 0.929 . S
C2439 C2433 1.390 . S
C2439 C2436 1.386 . S
C2440 C2435 1.490 . S
C2440 C2442 1.395 . S
C2440 C2443 1.403 . S
H2441 C2447 0.930 . S
C2442 H2428 0.930 . S
C2442 C2440 1.395 . S
C2442 C2445 1.403 1_545 S
C2443 C2440 1.403 . S
C2443 C2444 1.524 . S
C2443 C2447 1.400 1_545 S
C2444 H2429 0.960 . S
C2444 H2430 0.960 . S
C2444 H2431 0.960 . S
C2444 C2443 1.524 . S
C2445 C2442 1.403 1_565 S
C2445 C2446 1.392 . S
C2445 C2449 1.495 . S
C2446 C2445 1.392 . S
C2446 C2447 1.385 . S
C2446 C2448 1.478 . S
C2447 H2441 0.930 . S
C2447 C2443 1.400 1_565 S
C2447 C2446 1.385 . S
C2448 C2446 1.478 . S
C2448 C2450 1.381 . S
C2448 C2454 1.383 . S
C2449 C2445 1.495 . S
C2449 H2455 0.959 . S
C2449 H2456 0.961 . S
C2449 H2457 0.960 . S
C2450 C2448 1.381 . S
C2450 C2451 1.394 . S
C2450 H2458 0.930 . S
C2451 C2450 1.394 . S
C2451 C2452 1.383 . S
C2451 H2459 0.929 . S
C2452 C2451 1.383 . S
C2452 C2453 1.377 . S
C2453 H2437 0.930 . S
C2453 C2452 1.377 . S
C2453 C2454 1.379 . S
C2454 H2438 0.931 . S
C2454 C2448 1.383 . S
C2454 C2453 1.379 . S
H2455 C2449 0.959 . S
H2456 C2449 0.961 . S
H2457 C2449 0.960 . S
H2458 C2450 0.930 . S
H2459 C2451 0.929 . S
H2460 C2468 0.929 . S
H2461 C2470 0.930 . S
H2462 C2472 0.930 . S
H2463 C2475 0.929 . S
H2464 C2478 0.930 . S
H2465 C2480 0.960 . S
H2466 C2480 0.960 . S
H2467 C2480 0.960 . S
C2468 H2460 0.929 . S
C2468 C2469 1.377 . S
C2468 C2470 1.384 . S
C2469 C2468 1.377 . S
C2469 C2475 1.390 . S
C2470 H2461 0.930 . S
C2470 C2468 1.384 . S
C2470 C2471 1.372 . S
C2471 C2470 1.372 . S
C2471 C2472 1.400 . S
C2471 C2476 1.490 . S
C2472 H2462 0.930 . S
C2472 C2471 1.400 . S
C2472 C2475 1.386 . S
H2473 C2489 0.930 . S
H2474 C2490 0.931 . S
C2475 H2463 0.929 . S
C2475 C2469 1.390 . S
C2475 C2472 1.386 . S
C2476 C2471 1.490 . S
C2476 C2478 1.395 . S
C2476 C2479 1.403 . S
H2477 C2483 0.930 . S
C2478 H2464 0.930 . S
C2478 C2476 1.395 . S
C2478 C2481 1.403 . S
C2479 C2476 1.403 . S
C2479 C2480 1.524 . S
C2479 C2483 1.400 . S
C2480 H2465 0.960 . S
C2480 H2466 0.960 . S
C2480 H2467 0.960 . S
C2480 C2479 1.524 . S
C2481 C2478 1.403 . S
C2481 C2482 1.392 . S
C2481 C2485 1.495 . S
C2482 C2481 1.392 . S
C2482 C2483 1.385 . S
C2482 C2484 1.478 . S
C2483 H2477 0.930 . S
C2483 C2479 1.400 . S
C2483 C2482 1.385 . S
C2484 C2482 1.478 . S
C2484 C2486 1.381 . S
C2484 C2490 1.383 . S
C2485 C2481 1.495 . S
C2485 H2491 0.959 . S
C2485 H2492 0.961 . S
C2485 H2493 0.960 . S
C2486 C2484 1.381 . S
C2486 C2487 1.394 . S
C2486 H2494 0.930 . S
C2487 C2486 1.394 . S
C2487 C2488 1.383 . S
C2487 H2495 0.929 . S
C2488 C2487 1.383 . S
C2488 C2489 1.377 . S
C2489 H2473 0.930 . S
C2489 C2488 1.377 . S
C2489 C2490 1.379 . S
C2490 H2474 0.931 . S
C2490 C2484 1.383 . S
C2490 C2489 1.379 . S
H2491 C2485 0.959 . S
H2492 C2485 0.961 . S
H2493 C2485 0.960 . S
H2494 C2486 0.930 . S
H2495 C2487 0.929 . S
H2496 C2504 0.929 . S
H2497 C2506 0.930 . S
H2498 C2508 0.930 . S
H2499 C2511 0.929 . S
H2500 C2514 0.930 . S
H2501 C2516 0.960 . S
H2502 C2516 0.960 . S
H2503 C2516 0.960 . S
C2504 H2496 0.929 . S
C2504 C2505 1.377 . S
C2504 C2506 1.384 . S
C2505 C2504 1.377 . S
C2505 C2511 1.390 . S
C2506 H2497 0.930 . S
C2506 C2504 1.384 . S
C2506 C2507 1.372 . S
C2507 C2506 1.372 . S
C2507 C2508 1.400 . S
C2507 C2512 1.490 . S
C2508 H2498 0.930 . S
C2508 C2507 1.400 . S
C2508 C2511 1.386 . S
H2509 C2525 0.930 . S
H2510 C2526 0.931 . S
C2511 H2499 0.929 . S
C2511 C2505 1.390 . S
C2511 C2508 1.386 . S
C2512 C2507 1.490 . S
C2512 C2514 1.395 1_655 S
C2512 C2515 1.403 . S
H2513 C2519 0.930 . S
C2514 H2500 0.930 . S
C2514 C2512 1.395 1_455 S
C2514 C2517 1.403 . S
C2515 C2512 1.403 . S
C2515 C2516 1.524 . S
C2515 C2519 1.400 . S
C2516 H2501 0.960 . S
C2516 H2502 0.960 . S
C2516 H2503 0.960 . S
C2516 C2515 1.524 . S
C2517 C2514 1.403 . S
C2517 C2518 1.392 . S
C2517 C2521 1.495 . S
C2518 C2517 1.392 . S
C2518 C2519 1.385 1_455 S
C2518 C2520 1.478 . S
C2519 H2513 0.930 . S
C2519 C2515 1.400 . S
C2519 C2518 1.385 1_655 S
C2520 C2518 1.478 . S
C2520 C2522 1.381 . S
C2520 C2526 1.383 . S
C2521 C2517 1.495 . S
C2521 H2527 0.959 . S
C2521 H2528 0.961 . S
C2521 H2529 0.960 . S
C2522 C2520 1.381 . S
C2522 C2523 1.394 . S
C2522 H2530 0.930 . S
C2523 C2522 1.394 . S
C2523 C2524 1.383 . S
C2523 H2531 0.929 . S
C2524 C2523 1.383 . S
C2524 C2525 1.377 . S
C2525 H2509 0.930 . S
C2525 C2524 1.377 . S
C2525 C2526 1.379 . S
C2526 H2510 0.931 . S
C2526 C2520 1.383 . S
C2526 C2525 1.379 . S
H2527 C2521 0.959 . S
H2528 C2521 0.961 . S
H2529 C2521 0.960 . S
H2530 C2522 0.930 . S
H2531 C2523 0.929 . S
H2532 C2540 0.929 . S
H2533 C2542 0.930 . S
H2534 C2544 0.930 . S
H2535 C2547 0.929 . S
H2536 C2550 0.930 . S
H2537 C2552 0.960 . S
H2538 C2552 0.960 . S
H2539 C2552 0.960 . S
C2540 H2532 0.929 . S
C2540 C2541 1.377 . S
C2540 C2542 1.384 . S
C2541 C2540 1.377 . S
C2541 C2547 1.390 . S
C2542 H2533 0.930 . S
C2542 C2540 1.384 . S
C2542 C2543 1.372 . S
C2543 C2542 1.372 . S
C2543 C2544 1.400 . S
C2543 C2548 1.490 . S
C2544 H2534 0.930 . S
C2544 C2543 1.400 . S
C2544 C2547 1.386 . S
H2545 C2561 0.930 . S
H2546 C2562 0.931 . S
C2547 H2535 0.929 . S
C2547 C2541 1.390 . S
C2547 C2544 1.386 . S
C2548 C2543 1.490 . S
C2548 C2550 1.395 . S
C2548 C2551 1.403 . S
H2549 C2555 0.930 . S
C2550 H2536 0.930 . S
C2550 C2548 1.395 . S
C2550 C2553 1.403 1_455 S
C2551 C2548 1.403 . S
C2551 C2552 1.524 . S
C2551 C2555 1.400 1_455 S
C2552 H2537 0.960 . S
C2552 H2538 0.960 . S
C2552 H2539 0.960 . S
C2552 C2551 1.524 . S
C2553 C2550 1.403 1_655 S
C2553 C2554 1.392 . S
C2553 C2557 1.495 . S
C2554 C2553 1.392 . S
C2554 C2555 1.385 . S
C2554 C2556 1.478 . S
C2555 H2549 0.930 . S
C2555 C2551 1.400 1_655 S
C2555 C2554 1.385 . S
C2556 C2554 1.478 . S
C2556 C2558 1.381 . S
C2556 C2562 1.383 . S
C2557 C2553 1.495 . S
C2557 H2563 0.959 . S
C2557 H2564 0.961 . S
C2557 H2565 0.960 . S
C2558 C2556 1.381 . S
C2558 C2559 1.394 . S
C2558 H2566 0.930 . S
C2559 C2558 1.394 . S
C2559 C2560 1.383 . S
C2559 H2567 0.929 . S
C2560 C2559 1.383 . S
C2560 C2561 1.377 . S
C2561 H2545 0.930 . S
C2561 C2560 1.377 . S
C2561 C2562 1.379 . S
C2562 H2546 0.931 . S
C2562 C2556 1.383 . S
C2562 C2561 1.379 . S
H2563 C2557 0.959 . S
H2564 C2557 0.961 . S
H2565 C2557 0.960 . S
H2566 C2558 0.930 . S
H2567 C2559 0.929 . S
H2568 C2576 0.929 . S
H2569 C2578 0.930 . S
H2570 C2580 0.930 . S
H2571 C2583 0.929 . S
H2572 C2586 0.930 . S
H2573 C2588 0.960 . S
H2574 C2588 0.960 . S
H2575 C2588 0.960 . S
C2576 H2568 0.929 . S
C2576 C2577 1.377 . S
C2576 C2578 1.384 . S
C2577 C2576 1.377 . S
C2577 C2583 1.390 . S
C2578 H2569 0.930 . S
C2578 C2576 1.384 . S
C2578 C2579 1.372 . S
C2579 C2578 1.372 . S
C2579 C2580 1.400 . S
C2579 C2584 1.490 . S
C2580 H2570 0.930 . S
C2580 C2579 1.400 . S
C2580 C2583 1.386 . S
H2581 C2597 0.930 . S
H2582 C2598 0.931 . S
C2583 H2571 0.929 . S
C2583 C2577 1.390 . S
C2583 C2580 1.386 . S
C2584 C2579 1.490 . S
C2584 C2586 1.395 . S
C2584 C2587 1.403 1_545 S
H2585 C2591 0.930 . S
C2586 H2572 0.930 . S
C2586 C2584 1.395 . S
C2586 C2589 1.403 . S
C2587 C2584 1.403 1_565 S
C2587 C2588 1.524 . S
C2587 C2591 1.400 . S
C2588 H2573 0.960 . S
C2588 H2574 0.960 . S
C2588 H2575 0.960 . S
C2588 C2587 1.524 . S
C2589 C2586 1.403 . S
C2589 C2590 1.392 1_545 S
C2589 C2593 1.495 . S
C2590 C2589 1.392 1_565 S
C2590 C2591 1.385 . S
C2590 C2592 1.478 . S
C2591 H2585 0.930 . S
C2591 C2587 1.400 . S
C2591 C2590 1.385 . S
C2592 C2590 1.478 . S
C2592 C2594 1.381 . S
C2592 C2598 1.383 . S
C2593 C2589 1.495 . S
C2593 H2599 0.959 . S
C2593 H2600 0.961 . S
C2593 H2601 0.960 . S
C2594 C2592 1.381 . S
C2594 C2595 1.394 . S
C2594 H2602 0.930 . S
C2595 C2594 1.394 . S
C2595 C2596 1.383 . S
C2595 H2603 0.929 . S
C2596 C2595 1.383 . S
C2596 C2597 1.377 . S
C2597 H2581 0.930 . S
C2597 C2596 1.377 . S
C2597 C2598 1.379 . S
C2598 H2582 0.931 . S
C2598 C2592 1.383 . S
C2598 C2597 1.379 . S
H2599 C2593 0.959 . S
H2600 C2593 0.961 . S
H2601 C2593 0.960 . S
H2602 C2594 0.930 . S
H2603 C2595 0.929 . S
H2604 C2612 0.929 . S
H2605 C2614 0.930 . S
H2606 C2616 0.930 . S
H2607 C2619 0.929 . S
H2608 C2622 0.930 . S
H2609 C2624 0.960 . S
H2610 C2624 0.960 . S
H2611 C2624 0.960 . S
C2612 H2604 0.929 . S
C2612 C2613 1.377 . S
C2612 C2614 1.384 . S
C2613 C2612 1.377 . S
C2613 C2619 1.390 . S
C2614 H2605 0.930 . S
C2614 C2612 1.384 . S
C2614 C2615 1.372 . S
C2615 C2614 1.372 . S
C2615 C2616 1.400 . S
C2615 C2620 1.490 . S
C2616 H2606 0.930 . S
C2616 C2615 1.400 . S
C2616 C2619 1.386 . S
H2617 C2633 0.930 . S
H2618 C2634 0.931 . S
C2619 H2607 0.929 . S
C2619 C2613 1.390 . S
C2619 C2616 1.386 . S
C2620 C2615 1.490 . S
C2620 C2622 1.395 . S
C2620 C2623 1.403 . S
H2621 C2627 0.930 . S
C2622 H2608 0.930 . S
C2622 C2620 1.395 . S
C2622 C2625 1.403 . S
C2623 C2620 1.403 . S
C2623 C2624 1.524 . S
C2623 C2627 1.400 . S
C2624 H2609 0.960 . S
C2624 H2610 0.960 . S
C2624 H2611 0.960 . S
C2624 C2623 1.524 . S
C2625 C2622 1.403 . S
C2625 C2626 1.392 . S
C2625 C2629 1.495 . S
C2626 C2625 1.392 . S
C2626 C2627 1.385 . S
C2626 C2628 1.478 . S
C2627 H2621 0.930 . S
C2627 C2623 1.400 . S
C2627 C2626 1.385 . S
C2628 C2626 1.478 . S
C2628 C2630 1.381 . S
C2628 C2634 1.383 . S
C2629 C2625 1.495 . S
C2629 H2635 0.959 . S
C2629 H2636 0.961 . S
C2629 H2637 0.960 . S
C2630 C2628 1.381 . S
C2630 C2631 1.394 . S
C2630 H2638 0.930 . S
C2631 C2630 1.394 . S
C2631 C2632 1.383 . S
C2631 H2639 0.929 . S
C2632 C2631 1.383 . S
C2632 C2633 1.377 . S
C2633 H2617 0.930 . S
C2633 C2632 1.377 . S
C2633 C2634 1.379 . S
C2634 H2618 0.931 . S
C2634 C2628 1.383 . S
C2634 C2633 1.379 . S
H2635 C2629 0.959 . S
H2636 C2629 0.961 . S
H2637 C2629 0.960 . S
H2638 C2630 0.930 . S
H2639 C2631 0.929 . S
H2640 C2648 0.929 . S
H2641 C2650 0.930 . S
H2642 C2652 0.930 . S
H2643 C2655 0.929 . S
H2644 C2658 0.930 . S
H2645 C2660 0.960 1_565 S
H2646 C2660 0.960 . S
H2647 C2660 0.960 . S
C2648 H2640 0.929 . S
C2648 C2649 1.377 . S
C2648 C2650 1.384 . S
C2649 C2648 1.377 . S
C2649 C2655 1.390 . S
C2650 H2641 0.930 . S
C2650 C2648 1.384 . S
C2650 C2651 1.372 . S
C2651 C2650 1.372 . S
C2651 C2652 1.400 . S
C2651 C2656 1.490 . S
C2652 H2642 0.930 . S
C2652 C2651 1.400 . S
C2652 C2655 1.386 . S
H2653 C2669 0.930 . S
H2654 C2670 0.931 . S
C2655 H2643 0.929 . S
C2655 C2649 1.390 . S
C2655 C2652 1.386 . S
C2656 C2651 1.490 . S
C2656 C2658 1.395 . S
C2656 C2659 1.403 . S
H2657 C2663 0.930 . S
C2658 H2644 0.930 . S
C2658 C2656 1.395 . S
C2658 C2661 1.403 1_545 S
C2659 C2656 1.403 . S
C2659 C2660 1.524 . S
C2659 C2663 1.400 1_545 S
C2660 H2645 0.960 1_545 S
C2660 H2646 0.960 . S
C2660 H2647 0.960 . S
C2660 C2659 1.524 . S
C2661 C2658 1.403 1_565 S
C2661 C2662 1.392 . S
C2661 C2665 1.495 . S
C2662 C2661 1.392 . S
C2662 C2663 1.385 . S
C2662 C2664 1.478 . S
C2663 H2657 0.930 . S
C2663 C2659 1.400 1_565 S
C2663 C2662 1.385 . S
C2664 C2662 1.478 . S
C2664 C2666 1.381 . S
C2664 C2670 1.383 . S
C2665 C2661 1.495 . S
C2665 H2671 0.959 1_565 S
C2665 H2672 0.961 . S
C2665 H2673 0.960 . S
C2666 C2664 1.381 . S
C2666 C2667 1.394 . S
C2666 H2674 0.930 . S
C2667 C2666 1.394 . S
C2667 C2668 1.383 . S
C2667 H2675 0.929 . S
C2668 C2667 1.383 . S
C2668 C2669 1.377 . S
C2669 H2653 0.930 . S
C2669 C2668 1.377 . S
C2669 C2670 1.379 . S
C2670 H2654 0.931 . S
C2670 C2664 1.383 . S
C2670 C2669 1.379 . S
H2671 C2665 0.959 1_545 S
H2672 C2665 0.961 . S
H2673 C2665 0.960 . S
H2674 C2666 0.930 . S
H2675 C2667 0.929 . S
H2676 C2684 0.929 . S
H2677 C2686 0.930 . S
H2678 C2688 0.930 . S
H2679 C2691 0.929 . S
H2680 C2694 0.930 . S
H2681 C2696 0.960 . S
H2682 C2696 0.960 . S
H2683 C2696 0.960 . S
C2684 H2676 0.929 . S
C2684 C2685 1.377 . S
C2684 C2686 1.384 . S
C2685 C2684 1.377 . S
C2685 C2691 1.390 . S
C2686 H2677 0.930 . S
C2686 C2684 1.384 . S
C2686 C2687 1.372 . S
C2687 C2686 1.372 . S
C2687 C2688 1.400 . S
C2687 C2692 1.490 . S
C2688 H2678 0.930 . S
C2688 C2687 1.400 . S
C2688 C2691 1.386 . S
H2689 C2705 0.930 . S
H2690 C2706 0.931 . S
C2691 H2679 0.929 . S
C2691 C2685 1.390 . S
C2691 C2688 1.386 . S
C2692 C2687 1.490 . S
C2692 C2694 1.395 . S
C2692 C2695 1.403 . S
H2693 C2699 0.930 . S
C2694 H2680 0.930 . S
C2694 C2692 1.395 . S
C2694 C2697 1.403 . S
C2695 C2692 1.403 . S
C2695 C2696 1.524 . S
C2695 C2699 1.400 . S
C2696 H2681 0.960 . S
C2696 H2682 0.960 . S
C2696 H2683 0.960 . S
C2696 C2695 1.524 . S
C2697 C2694 1.403 . S
C2697 C2698 1.392 . S
C2697 C2701 1.495 . S
C2698 C2697 1.392 . S
C2698 C2699 1.385 . S
C2698 C2700 1.478 . S
C2699 H2693 0.930 . S
C2699 C2695 1.400 . S
C2699 C2698 1.385 . S
C2700 C2698 1.478 . S
C2700 C2702 1.381 . S
C2700 C2706 1.383 . S
C2701 C2697 1.495 . S
C2701 H2707 0.959 . S
C2701 H2708 0.961 . S
C2701 H2709 0.960 . S
C2702 C2700 1.381 . S
C2702 C2703 1.394 . S
C2702 H2710 0.930 . S
C2703 C2702 1.394 . S
C2703 C2704 1.383 . S
C2703 H2711 0.929 . S
C2704 C2703 1.383 . S
C2704 C2705 1.377 . S
C2705 H2689 0.930 . S
C2705 C2704 1.377 . S
C2705 C2706 1.379 . S
C2706 H2690 0.931 . S
C2706 C2700 1.383 . S
C2706 C2705 1.379 . S
H2707 C2701 0.959 . S
H2708 C2701 0.961 . S
H2709 C2701 0.960 . S
H2710 C2702 0.930 . S
H2711 C2703 0.929 . S
H2712 C2720 0.929 . S
H2713 C2722 0.930 . S
H2714 C2724 0.930 . S
H2715 C2727 0.929 . S
H2716 C2730 0.930 . S
H2717 C2732 0.960 1_655 S
H2718 C2732 0.960 . S
H2719 C2732 0.960 . S
C2720 H2712 0.929 . S
C2720 C2721 1.377 . S
C2720 C2722 1.384 . S
C2721 C2720 1.377 . S
C2721 C2727 1.390 . S
C2722 H2713 0.930 . S
C2722 C2720 1.384 . S
C2722 C2723 1.372 . S
C2723 C2722 1.372 . S
C2723 C2724 1.400 . S
C2723 C2728 1.490 . S
C2724 H2714 0.930 . S
C2724 C2723 1.400 . S
C2724 C2727 1.386 . S
H2725 C2741 0.930 . S
H2726 C2742 0.931 . S
C2727 H2715 0.929 . S
C2727 C2721 1.390 . S
C2727 C2724 1.386 . S
C2728 C2723 1.490 . S
C2728 C2730 1.395 . S
C2728 C2731 1.403 . S
H2729 C2735 0.930 . S
C2730 H2716 0.930 . S
C2730 C2728 1.395 . S
C2730 C2733 1.403 1_455 S
C2731 C2728 1.403 . S
C2731 C2732 1.524 . S
C2731 C2735 1.400 1_455 S
C2732 H2717 0.960 1_455 S
C2732 H2718 0.960 . S
C2732 H2719 0.960 . S
C2732 C2731 1.524 . S
C2733 C2730 1.403 1_655 S
C2733 C2734 1.392 . S
C2733 C2737 1.495 . S
C2734 C2733 1.392 . S
C2734 C2735 1.385 . S
C2734 C2736 1.478 . S
C2735 H2729 0.930 . S
C2735 C2731 1.400 1_655 S
C2735 C2734 1.385 . S
C2736 C2734 1.478 . S
C2736 C2738 1.381 . S
C2736 C2742 1.383 . S
C2737 C2733 1.495 . S
C2737 H2743 0.959 1_655 S
C2737 H2744 0.961 . S
C2737 H2745 0.960 . S
C2738 C2736 1.381 . S
C2738 C2739 1.394 . S
C2738 H2746 0.930 . S
C2739 C2738 1.394 . S
C2739 C2740 1.383 . S
C2739 H2747 0.929 . S
C2740 C2739 1.383 . S
C2740 C2741 1.377 . S
C2741 H2725 0.930 . S
C2741 C2740 1.377 . S
C2741 C2742 1.379 . S
C2742 H2726 0.931 . S
C2742 C2736 1.383 . S
C2742 C2741 1.379 . S
H2743 C2737 0.959 1_455 S
H2744 C2737 0.961 . S
H2745 C2737 0.960 . S
H2746 C2738 0.930 . S
H2747 C2739 0.929 . S
H2748 C2756 0.929 . S
H2749 C2758 0.930 . S
H2750 C2760 0.930 . S
H2751 C2763 0.929 . S
H2752 C2766 0.930 . S
H2753 C2768 0.960 . S
H2754 C2768 0.960 . S
H2755 C2768 0.960 1_655 S
C2756 H2748 0.929 . S
C2756 C2757 1.377 . S
C2756 C2758 1.384 . S
C2757 C2756 1.377 . S
C2757 C2763 1.390 . S
C2758 H2749 0.930 . S
C2758 C2756 1.384 . S
C2758 C2759 1.372 . S
C2759 C2758 1.372 . S
C2759 C2760 1.400 . S
C2759 C2764 1.490 . S
C2760 H2750 0.930 . S
C2760 C2759 1.400 . S
C2760 C2763 1.386 . S
H2761 C2777 0.930 . S
H2762 C2778 0.931 . S
C2763 H2751 0.929 . S
C2763 C2757 1.390 . S
C2763 C2760 1.386 . S
C2764 C2759 1.490 . S
C2764 C2766 1.395 . S
C2764 C2767 1.382 1_655 S
H2765 C2771 0.930 . S
C2766 H2752 0.930 . S
C2766 C2764 1.395 . S
C2766 C2769 1.438 . S
C2767 C2764 1.382 1_455 S
C2767 C2768 1.517 . S
C2767 C2771 1.430 . S
C2768 H2753 0.960 . S
C2768 H2754 0.960 . S
C2768 H2755 0.960 1_455 S
C2768 C2767 1.517 . S
C2769 C2766 1.438 . S
C2769 C2770 1.369 1_655 S
C2769 C2773 1.486 . S
C2770 C2769 1.369 1_455 S
C2770 C2771 1.385 . S
C2770 C2772 1.478 . S
C2771 H2765 0.930 . S
C2771 C2767 1.430 . S
C2771 C2770 1.385 . S
C2772 C2770 1.478 . S
C2772 C2774 1.381 . S
C2772 C2778 1.383 . S
C2773 C2769 1.486 . S
C2773 H2779 0.959 . S
C2773 H2780 0.961 . S
C2773 H2781 0.960 1_655 S
C2774 C2772 1.381 . S
C2774 C2775 1.394 . S
C2774 H2782 0.930 . S
C2775 C2774 1.394 . S
C2775 C2776 1.383 . S
C2775 H2783 0.929 . S
C2776 C2775 1.383 . S
C2776 C2777 1.377 . S
C2777 H2761 0.930 . S
C2777 C2776 1.377 . S
C2777 C2778 1.379 . S
C2778 H2762 0.931 . S
C2778 C2772 1.383 . S
C2778 C2777 1.379 . S
H2779 C2773 0.959 . S
H2780 C2773 0.961 . S
H2781 C2773 0.960 1_455 S
H2782 C2774 0.930 . S
H2783 C2775 0.929 . S
H2784 C2792 0.929 . S
H2785 C2794 0.930 . S
H2786 C2796 0.930 . S
H2787 C2799 0.929 . S
H2788 C2802 0.930 . S
H2789 C2804 0.960 . S
H2790 C2804 0.960 . S
H2791 C2804 0.960 . S
C2792 H2784 0.929 . S
C2792 C2793 1.377 . S
C2792 C2794 1.384 . S
C2793 C2792 1.377 . S
C2793 C2799 1.390 . S
C2794 H2785 0.930 . S
C2794 C2792 1.384 . S
C2794 C2795 1.372 . S
C2795 C2794 1.372 . S
C2795 C2796 1.400 . S
C2795 C2800 1.490 . S
C2796 H2786 0.930 . S
C2796 C2795 1.400 . S
C2796 C2799 1.386 . S
H2797 C2813 0.930 . S
H2798 C2814 0.931 . S
C2799 H2787 0.929 . S
C2799 C2793 1.390 . S
C2799 C2796 1.386 . S
C2800 C2795 1.490 . S
C2800 C2802 1.395 1_545 S
C2800 C2803 1.403 . S
H2801 C2807 0.930 . S
C2802 H2788 0.930 . S
C2802 C2800 1.395 1_565 S
C2802 C2805 1.403 . S
C2803 C2800 1.403 . S
C2803 C2804 1.524 . S
C2803 C2807 1.400 . S
C2804 H2789 0.960 . S
C2804 H2790 0.960 . S
C2804 H2791 0.960 . S
C2804 C2803 1.524 . S
C2805 C2802 1.403 . S
C2805 C2806 1.392 . S
C2805 C2809 1.495 . S
C2806 C2805 1.392 . S
C2806 C2807 1.385 1_565 S
C2806 C2808 1.478 . S
C2807 H2801 0.930 . S
C2807 C2803 1.400 . S
C2807 C2806 1.385 1_545 S
C2808 C2806 1.478 . S
C2808 C2810 1.381 . S
C2808 C2814 1.383 . S
C2809 C2805 1.495 . S
C2809 H2815 0.959 . S
C2809 H2816 0.961 . S
C2809 H2817 0.960 . S
C2810 C2808 1.381 . S
C2810 C2811 1.394 . S
C2810 H2818 0.930 . S
C2811 C2810 1.394 . S
C2811 C2812 1.383 . S
C2811 H2819 0.929 . S
C2812 C2811 1.383 . S
C2812 C2813 1.377 . S
C2813 H2797 0.930 . S
C2813 C2812 1.377 . S
C2813 C2814 1.379 . S
C2814 H2798 0.931 . S
C2814 C2808 1.383 . S
C2814 C2813 1.379 . S
H2815 C2809 0.959 . S
H2816 C2809 0.961 . S
H2817 C2809 0.960 . S
H2818 C2810 0.930 . S
H2819 C2811 0.929 . S
H2820 C2828 0.929 . S
H2821 C2830 0.930 . S
H2822 C2832 0.930 . S
H2823 C2835 0.929 . S
H2824 C2838 0.930 . S
H2825 C2840 0.960 . S
H2826 C2840 0.960 . S
H2827 C2840 0.960 . S
C2828 H2820 0.929 . S
C2828 C2829 1.377 . S
C2828 C2830 1.384 . S
C2829 C2828 1.377 . S
C2829 C2835 1.390 . S
C2830 H2821 0.930 . S
C2830 C2828 1.384 . S
C2830 C2831 1.372 . S
C2831 C2830 1.372 . S
C2831 C2832 1.400 . S
C2831 C2836 1.490 . S
C2832 H2822 0.930 . S
C2832 C2831 1.400 . S
C2832 C2835 1.386 . S
H2833 C2849 0.930 . S
H2834 C2850 0.931 . S
C2835 H2823 0.929 . S
C2835 C2829 1.390 . S
C2835 C2832 1.386 . S
C2836 C2831 1.490 . S
C2836 C2838 1.395 . S
C2836 C2839 1.403 . S
H2837 C2843 0.930 . S
C2838 H2824 0.930 . S
C2838 C2836 1.395 . S
C2838 C2841 1.403 . S
C2839 C2836 1.403 . S
C2839 C2840 1.524 . S
C2839 C2843 1.400 . S
C2840 H2825 0.960 . S
C2840 H2826 0.960 . S
C2840 H2827 0.960 . S
C2840 C2839 1.524 . S
C2841 C2838 1.403 . S
C2841 C2842 1.392 . S
C2841 C2845 1.495 . S
C2842 C2841 1.392 . S
C2842 C2843 1.385 . S
C2842 C2844 1.478 . S
C2843 H2837 0.930 . S
C2843 C2839 1.400 . S
C2843 C2842 1.385 . S
C2844 C2842 1.478 . S
C2844 C2846 1.381 . S
C2844 C2850 1.383 . S
C2845 C2841 1.495 . S
C2845 H2851 0.959 . S
C2845 H2852 0.961 . S
C2845 H2853 0.960 . S
C2846 C2844 1.381 . S
C2846 C2847 1.394 . S
C2846 H2854 0.930 . S
C2847 C2846 1.394 . S
C2847 C2848 1.383 . S
C2847 H2855 0.929 . S
C2848 C2847 1.383 . S
C2848 C2849 1.377 . S
C2849 H2833 0.930 . S
C2849 C2848 1.377 . S
C2849 C2850 1.379 . S
C2850 H2834 0.931 . S
C2850 C2844 1.383 . S
C2850 C2849 1.379 . S
H2851 C2845 0.959 . S
H2852 C2845 0.961 . S
H2853 C2845 0.960 . S
H2854 C2846 0.930 . S
H2855 C2847 0.929 . S
H2856 C2864 0.929 . S
H2857 C2866 0.930 . S
H2858 C2868 0.930 . S
H2859 C2871 0.929 . S
H2860 C2874 0.930 . S
H2861 C2876 0.960 . S
H2862 C2876 0.960 . S
H2863 C2876 0.960 . S
C2864 H2856 0.929 . S
C2864 C2865 1.377 . S
C2864 C2866 1.384 . S
C2865 C2864 1.377 . S
C2865 C2871 1.390 . S
C2866 H2857 0.930 . S
C2866 C2864 1.384 . S
C2866 C2867 1.372 . S
C2867 C2866 1.372 . S
C2867 C2868 1.400 . S
C2867 C2872 1.490 . S
C2868 H2858 0.930 . S
C2868 C2867 1.400 . S
C2868 C2871 1.386 . S
H2869 C2885 0.930 . S
H2870 C2886 0.931 . S
C2871 H2859 0.929 . S
C2871 C2865 1.390 . S
C2871 C2868 1.386 . S
C2872 C2867 1.490 . S
C2872 C2874 1.395 . S
C2872 C2875 1.403 . S
H2873 C2879 0.930 . S
C2874 H2860 0.930 . S
C2874 C2872 1.395 . S
C2874 C2877 1.403 . S
C2875 C2872 1.403 . S
C2875 C2876 1.524 . S
C2875 C2879 1.400 . S
C2876 H2861 0.960 . S
C2876 H2862 0.960 . S
C2876 H2863 0.960 . S
C2876 C2875 1.524 . S
C2877 C2874 1.403 . S
C2877 C2878 1.392 . S
C2877 C2881 1.495 . S
C2878 C2877 1.392 . S
C2878 C2879 1.385 . S
C2878 C2880 1.478 . S
C2879 H2873 0.930 . S
C2879 C2875 1.400 . S
C2879 C2878 1.385 . S
C2880 C2878 1.478 . S
C2880 C2882 1.381 . S
C2880 C2886 1.383 . S
C2881 C2877 1.495 . S
C2881 H2887 0.959 . S
C2881 H2888 0.961 . S
C2881 H2889 0.960 . S
C2882 C2880 1.381 . S
C2882 C2883 1.394 . S
C2882 H2890 0.930 . S
C2883 C2882 1.394 . S
C2883 C2884 1.383 . S
C2883 H2891 0.929 . S
C2884 C2883 1.383 . S
C2884 C2885 1.377 . S
C2885 H2869 0.930 . S
C2885 C2884 1.377 . S
C2885 C2886 1.379 . S
C2886 H2870 0.931 . S
C2886 C2880 1.383 . S
C2886 C2885 1.379 . S
H2887 C2881 0.959 . S
H2888 C2881 0.961 . S
H2889 C2881 0.960 . S
H2890 C2882 0.930 . S
H2891 C2883 0.929 . S
H2892 C2900 0.929 . S
H2893 C2902 0.930 . S
H2894 C2904 0.930 . S
H2895 C2907 0.929 . S
H2896 C2910 0.930 . S
H2897 C2912 0.960 . S
H2898 C2912 0.960 . S
H2899 C2912 0.960 . S
C2900 H2892 0.929 . S
C2900 C2901 1.377 . S
C2900 C2902 1.384 . S
C2901 C2900 1.377 . S
C2901 C2907 1.390 . S
C2902 H2893 0.930 . S
C2902 C2900 1.384 . S
C2902 C2903 1.372 . S
C2903 C2902 1.372 . S
C2903 C2904 1.400 . S
C2903 C2908 1.490 . S
C2904 H2894 0.930 . S
C2904 C2903 1.400 . S
C2904 C2907 1.386 . S
H2905 C2921 0.930 . S
H2906 C2922 0.931 . S
C2907 H2895 0.929 . S
C2907 C2901 1.390 . S
C2907 C2904 1.386 . S
C2908 C2903 1.490 . S
C2908 C2910 1.395 . S
C2908 C2911 1.403 . S
H2909 C2915 0.930 . S
C2910 H2896 0.930 . S
C2910 C2908 1.395 . S
C2910 C2913 1.403 . S
C2911 C2908 1.403 . S
C2911 C2912 1.524 . S
C2911 C2915 1.400 . S
C2912 H2897 0.960 . S
C2912 H2898 0.960 . S
C2912 H2899 0.960 . S
C2912 C2911 1.524 . S
C2913 C2910 1.403 . S
C2913 C2914 1.392 . S
C2913 C2917 1.495 . S
C2914 C2913 1.392 . S
C2914 C2915 1.385 . S
C2914 C2916 1.478 . S
C2915 H2909 0.930 . S
C2915 C2911 1.400 . S
C2915 C2914 1.385 . S
C2916 C2914 1.478 . S
C2916 C2918 1.381 . S
C2916 C2922 1.383 . S
C2917 C2913 1.495 . S
C2917 H2923 0.959 . S
C2917 H2924 0.961 . S
C2917 H2925 0.960 . S
C2918 C2916 1.381 . S
C2918 C2919 1.394 . S
C2918 H2926 0.930 . S
C2919 C2918 1.394 . S
C2919 C2920 1.383 . S
C2919 H2927 0.929 . S
C2920 C2919 1.383 . S
C2920 C2921 1.377 . S
C2921 H2905 0.930 . S
C2921 C2920 1.377 . S
C2921 C2922 1.379 . S
C2922 H2906 0.931 . S
C2922 C2916 1.383 . S
C2922 C2921 1.379 . S
H2923 C2917 0.959 . S
H2924 C2917 0.961 . S
H2925 C2917 0.960 . S
H2926 C2918 0.930 . S
H2927 C2919 0.929 . S
H2928 C2936 0.929 . S
H2929 C2938 0.930 . S
H2930 C2940 0.930 . S
H2931 C2943 0.929 . S
H2932 C2946 0.930 . S
H2933 C2948 0.960 . S
H2934 C2948 0.960 . S
H2935 C2948 0.960 . S
C2936 H2928 0.929 . S
C2936 C2937 1.377 . S
C2936 C2938 1.384 . S
C2937 C2936 1.377 . S
C2937 C2943 1.390 . S
C2938 H2929 0.930 . S
C2938 C2936 1.384 . S
C2938 C2939 1.372 . S
C2939 C2938 1.372 . S
C2939 C2940 1.400 . S
C2939 C2944 1.490 . S
C2940 H2930 0.930 . S
C2940 C2939 1.400 . S
C2940 C2943 1.386 . S
H2941 C2957 0.930 . S
H2942 C2958 0.931 . S
C2943 H2931 0.929 . S
C2943 C2937 1.390 . S
C2943 C2940 1.386 . S
C2944 C2939 1.490 . S
C2944 C2946 1.395 . S
C2944 C2947 1.403 . S
H2945 C2951 0.930 . S
C2946 H2932 0.930 . S
C2946 C2944 1.395 . S
C2946 C2949 1.403 . S
C2947 C2944 1.403 . S
C2947 C2948 1.524 . S
C2947 C2951 1.400 . S
C2948 H2933 0.960 . S
C2948 H2934 0.960 . S
C2948 H2935 0.960 . S
C2948 C2947 1.524 . S
C2949 C2946 1.403 . S
C2949 C2950 1.392 . S
C2949 C2953 1.495 . S
C2950 C2949 1.392 . S
C2950 C2951 1.385 . S
C2950 C2952 1.478 . S
C2951 H2945 0.930 . S
C2951 C2947 1.400 . S
C2951 C2950 1.385 . S
C2952 C2950 1.478 . S
C2952 C2954 1.381 . S
C2952 C2958 1.383 . S
C2953 C2949 1.495 . S
C2953 H2959 0.959 . S
C2953 H2960 0.961 . S
C2953 H2961 0.960 . S
C2954 C2952 1.381 . S
C2954 C2955 1.394 . S
C2954 H2962 0.930 . S
C2955 C2954 1.394 . S
C2955 C2956 1.383 . S
C2955 H2963 0.929 . S
C2956 C2955 1.383 . S
C2956 C2957 1.377 . S
C2957 H2941 0.930 . S
C2957 C2956 1.377 . S
C2957 C2958 1.379 . S
C2958 H2942 0.931 . S
C2958 C2952 1.383 . S
C2958 C2957 1.379 . S
H2959 C2953 0.959 . S
H2960 C2953 0.961 . S
H2961 C2953 0.960 . S
H2962 C2954 0.930 . S
H2963 C2955 0.929 . S
H2964 C2972 0.929 . S
H2965 C2974 0.930 . S
H2966 C2976 0.930 . S
H2967 C2979 0.929 . S
H2968 C2982 0.930 . S
H2969 C2984 0.960 . S
H2970 C2984 0.960 . S
H2971 C2984 0.960 . S
C2972 H2964 0.929 . S
C2972 C2973 1.377 . S
C2972 C2974 1.384 . S
C2973 C2972 1.377 . S
C2973 C2979 1.390 . S
C2974 H2965 0.930 . S
C2974 C2972 1.384 . S
C2974 C2975 1.372 . S
C2975 C2974 1.372 . S
C2975 C2976 1.400 . S
C2975 C2980 1.490 . S
C2976 H2966 0.930 . S
C2976 C2975 1.400 . S
C2976 C2979 1.386 . S
H2977 C2993 0.930 . S
H2978 C2994 0.931 . S
C2979 H2967 0.929 . S
C2979 C2973 1.390 . S
C2979 C2976 1.386 . S
C2980 C2975 1.490 . S
C2980 C2982 1.395 . S
C2980 C2983 1.403 . S
H2981 C2987 0.930 . S
C2982 H2968 0.930 . S
C2982 C2980 1.395 . S
C2982 C2985 1.403 . S
C2983 C2980 1.403 . S
C2983 C2984 1.524 . S
C2983 C2987 1.400 . S
C2984 H2969 0.960 . S
C2984 H2970 0.960 . S
C2984 H2971 0.960 . S
C2984 C2983 1.524 . S
C2985 C2982 1.403 . S
C2985 C2986 1.392 . S
C2985 C2989 1.495 . S
C2986 C2985 1.392 . S
C2986 C2987 1.385 . S
C2986 C2988 1.478 . S
C2987 H2981 0.930 . S
C2987 C2983 1.400 . S
C2987 C2986 1.385 . S
C2988 C2986 1.478 . S
C2988 C2990 1.381 . S
C2988 C2994 1.383 . S
C2989 C2985 1.495 . S
C2989 H2995 0.959 . S
C2989 H2996 0.961 . S
C2989 H2997 0.960 . S
C2990 C2988 1.381 . S
C2990 C2991 1.394 . S
C2990 H2998 0.930 . S
C2991 C2990 1.394 . S
C2991 C2992 1.383 . S
C2991 H2999 0.929 . S
C2992 C2991 1.383 . S
C2992 C2993 1.377 . S
C2993 H2977 0.930 . S
C2993 C2992 1.377 . S
C2993 C2994 1.379 . S
C2994 H2978 0.931 . S
C2994 C2988 1.383 . S
C2994 C2993 1.379 . S
H2995 C2989 0.959 . S
H2996 C2989 0.961 . S
H2997 C2989 0.960 . S
H2998 C2990 0.930 . S
H2999 C2991 0.929 . S
H3000 C3008 0.929 . S
H3001 C3010 0.930 . S
H3002 C3012 0.930 . S
H3003 C3015 0.929 . S
H3004 C3018 0.930 . S
H3005 C3020 0.960 . S
H3006 C3020 0.960 . S
H3007 C3020 0.960 . S
C3008 H3000 0.929 . S
C3008 C3009 1.377 . S
C3008 C3010 1.384 . S
C3009 C3008 1.377 . S
C3009 C3015 1.390 . S
C3010 H3001 0.930 . S
C3010 C3008 1.384 . S
C3010 C3011 1.372 . S
C3011 C3010 1.372 . S
C3011 C3012 1.400 . S
C3011 C3016 1.490 . S
C3012 H3002 0.930 . S
C3012 C3011 1.400 . S
C3012 C3015 1.386 . S
H3013 C3029 0.930 . S
H3014 C3030 0.931 . S
C3015 H3003 0.929 . S
C3015 C3009 1.390 . S
C3015 C3012 1.386 . S
C3016 C3011 1.490 . S
C3016 C3018 1.395 . S
C3016 C3019 1.403 . S
H3017 C3023 0.930 . S
C3018 H3004 0.930 . S
C3018 C3016 1.395 . S
C3018 C3021 1.403 . S
C3019 C3016 1.403 . S
C3019 C3020 1.524 . S
C3019 C3023 1.400 . S
C3020 H3005 0.960 . S
C3020 H3006 0.960 . S
C3020 H3007 0.960 . S
C3020 C3019 1.524 . S
C3021 C3018 1.403 . S
C3021 C3022 1.392 . S
C3021 C3025 1.495 . S
C3022 C3021 1.392 . S
C3022 C3023 1.385 . S
C3022 C3024 1.478 . S
C3023 H3017 0.930 . S
C3023 C3019 1.400 . S
C3023 C3022 1.385 . S
C3024 C3022 1.478 . S
C3024 C3026 1.381 . S
C3024 C3030 1.383 . S
C3025 C3021 1.495 . S
C3025 H3031 0.959 . S
C3025 H3032 0.961 . S
C3025 H3033 0.960 . S
C3026 C3024 1.381 . S
C3026 C3027 1.394 . S
C3026 H3034 0.930 . S
C3027 C3026 1.394 . S
C3027 C3028 1.383 . S
C3027 H3035 0.929 . S
C3028 C3027 1.383 . S
C3028 C3029 1.377 . S
C3029 H3013 0.930 . S
C3029 C3028 1.377 . S
C3029 C3030 1.379 . S
C3030 H3014 0.931 . S
C3030 C3024 1.383 . S
C3030 C3029 1.379 . S
H3031 C3025 0.959 . S
H3032 C3025 0.961 . S
H3033 C3025 0.960 . S
H3034 C3026 0.930 . S
H3035 C3027 0.929 . S
H3036 C3044 0.929 . S
H3037 C3046 0.930 . S
H3038 C3048 0.930 . S
H3039 C3051 0.929 . S
H3040 C3054 0.930 . S
H3041 C3056 0.960 . S
H3042 C3056 0.960 . S
H3043 C3056 0.960 . S
C3044 H3036 0.929 . S
C3044 C3045 1.377 . S
C3044 C3046 1.384 . S
C3045 C3044 1.377 . S
C3045 C3051 1.390 . S
C3046 H3037 0.930 . S
C3046 C3044 1.384 . S
C3046 C3047 1.372 . S
C3047 C3046 1.372 . S
C3047 C3048 1.400 . S
C3047 C3052 1.490 . S
C3048 H3038 0.930 . S
C3048 C3047 1.400 . S
C3048 C3051 1.386 . S
H3049 C3065 0.930 . S
H3050 C3066 0.931 . S
C3051 H3039 0.929 . S
C3051 C3045 1.390 . S
C3051 C3048 1.386 . S
C3052 C3047 1.490 . S
C3052 C3054 1.395 . S
C3052 C3055 1.403 . S
H3053 C3059 0.930 . S
C3054 H3040 0.930 . S
C3054 C3052 1.395 . S
C3054 C3057 1.403 . S
C3055 C3052 1.403 . S
C3055 C3056 1.524 . S
C3055 C3059 1.400 . S
C3056 H3041 0.960 . S
C3056 H3042 0.960 . S
C3056 H3043 0.960 . S
C3056 C3055 1.524 . S
C3057 C3054 1.403 . S
C3057 C3058 1.392 . S
C3057 C3061 1.495 . S
C3058 C3057 1.392 . S
C3058 C3059 1.385 . S
C3058 C3060 1.478 . S
C3059 H3053 0.930 . S
C3059 C3055 1.400 . S
C3059 C3058 1.385 . S
C3060 C3058 1.478 . S
C3060 C3062 1.381 . S
C3060 C3066 1.383 . S
C3061 C3057 1.495 . S
C3061 H3067 0.959 . S
C3061 H3068 0.961 . S
C3061 H3069 0.960 . S
C3062 C3060 1.381 . S
C3062 C3063 1.394 . S
C3062 H3070 0.930 . S
C3063 C3062 1.394 . S
C3063 C3064 1.383 . S
C3063 H3071 0.929 . S
C3064 C3063 1.383 . S
C3064 C3065 1.377 . S
C3065 H3049 0.930 . S
C3065 C3064 1.377 . S
C3065 C3066 1.379 . S
C3066 H3050 0.931 . S
C3066 C3060 1.383 . S
C3066 C3065 1.379 . S
H3067 C3061 0.959 . S
H3068 C3061 0.961 . S
H3069 C3061 0.960 . S
H3070 C3062 0.930 . S
H3071 C3063 0.929 . S
H3072 C3080 0.929 . S
H3073 C3082 0.930 . S
H3074 C3084 0.930 . S
H3075 C3087 0.929 . S
H3076 C3090 0.930 . S
H3077 C3092 0.960 . S
H3078 C3092 0.960 . S
H3079 C3092 0.960 . S
C3080 H3072 0.929 . S
C3080 C3081 1.377 . S
C3080 C3082 1.384 . S
C3081 C3080 1.377 . S
C3081 C3087 1.390 . S
C3082 H3073 0.930 . S
C3082 C3080 1.384 . S
C3082 C3083 1.372 . S
C3083 C3082 1.372 . S
C3083 C3084 1.400 . S
C3083 C3088 1.490 . S
C3084 H3074 0.930 . S
C3084 C3083 1.400 . S
C3084 C3087 1.386 . S
H3085 C3101 0.930 . S
H3086 C3102 0.931 . S
C3087 H3075 0.929 . S
C3087 C3081 1.390 . S
C3087 C3084 1.386 . S
C3088 C3083 1.490 . S
C3088 C3090 1.395 . S
C3088 C3091 1.403 . S
H3089 C3095 0.930 . S
C3090 H3076 0.930 . S
C3090 C3088 1.395 . S
C3090 C3093 1.403 . S
C3091 C3088 1.403 . S
C3091 C3092 1.524 . S
C3091 C3095 1.400 . S
C3092 H3077 0.960 . S
C3092 H3078 0.960 . S
C3092 H3079 0.960 . S
C3092 C3091 1.524 . S
C3093 C3090 1.403 . S
C3093 C3094 1.392 . S
C3093 C3097 1.495 . S
C3094 C3093 1.392 . S
C3094 C3095 1.385 . S
C3094 C3096 1.478 . S
C3095 H3089 0.930 . S
C3095 C3091 1.400 . S
C3095 C3094 1.385 . S
C3096 C3094 1.478 . S
C3096 C3098 1.381 . S
C3096 C3102 1.383 . S
C3097 C3093 1.495 . S
C3097 H3103 0.959 . S
C3097 H3104 0.961 . S
C3097 H3105 0.960 . S
C3098 C3096 1.381 . S
C3098 C3099 1.394 . S
C3098 H3106 0.930 . S
C3099 C3098 1.394 . S
C3099 C3100 1.383 . S
C3099 H3107 0.929 . S
C3100 C3099 1.383 . S
C3100 C3101 1.377 . S
C3101 H3085 0.930 . S
C3101 C3100 1.377 . S
C3101 C3102 1.379 . S
C3102 H3086 0.931 . S
C3102 C3096 1.383 . S
C3102 C3101 1.379 . S
H3103 C3097 0.959 . S
H3104 C3097 0.961 . S
H3105 C3097 0.960 . S
H3106 C3098 0.930 . S
H3107 C3099 0.929 . S
H3108 C3116 0.929 . S
H3109 C3118 0.930 . S
H3110 C3120 0.930 . S
H3111 C3123 0.929 . S
H3112 C3126 0.930 . S
H3113 C3128 0.960 . S
H3114 C3128 0.960 . S
H3115 C3128 0.960 . S
C3116 H3108 0.929 . S
C3116 C3117 1.377 . S
C3116 C3118 1.384 . S
C3117 C3116 1.377 . S
C3117 C3123 1.390 . S
C3118 H3109 0.930 . S
C3118 C3116 1.384 . S
C3118 C3119 1.372 . S
C3119 C3118 1.372 . S
C3119 C3120 1.400 . S
C3119 C3124 1.490 . S
C3120 H3110 0.930 . S
C3120 C3119 1.400 . S
C3120 C3123 1.386 . S
H3121 C3137 0.930 . S
H3122 C3138 0.931 . S
C3123 H3111 0.929 . S
C3123 C3117 1.390 . S
C3123 C3120 1.386 . S
C3124 C3119 1.490 . S
C3124 C3126 1.395 . S
C3124 C3127 1.403 . S
H3125 C3131 0.930 . S
C3126 H3112 0.930 . S
C3126 C3124 1.395 . S
C3126 C3129 1.403 . S
C3127 C3124 1.403 . S
C3127 C3128 1.524 . S
C3127 C3131 1.400 . S
C3128 H3113 0.960 . S
C3128 H3114 0.960 . S
C3128 H3115 0.960 . S
C3128 C3127 1.524 . S
C3129 C3126 1.403 . S
C3129 C3130 1.392 . S
C3129 C3133 1.495 . S
C3130 C3129 1.392 . S
C3130 C3131 1.385 . S
C3130 C3132 1.478 . S
C3131 H3125 0.930 . S
C3131 C3127 1.400 . S
C3131 C3130 1.385 . S
C3132 C3130 1.478 . S
C3132 C3134 1.381 . S
C3132 C3138 1.383 . S
C3133 C3129 1.495 . S
C3133 H3139 0.959 . S
C3133 H3140 0.961 . S
C3133 H3141 0.960 . S
C3134 C3132 1.381 . S
C3134 C3135 1.394 . S
C3134 H3142 0.930 . S
C3135 C3134 1.394 . S
C3135 C3136 1.383 . S
C3135 H3143 0.929 . S
C3136 C3135 1.383 . S
C3136 C3137 1.377 . S
C3137 H3121 0.930 . S
C3137 C3136 1.377 . S
C3137 C3138 1.379 . S
C3138 H3122 0.931 . S
C3138 C3132 1.383 . S
C3138 C3137 1.379 . S
H3139 C3133 0.959 . S
H3140 C3133 0.961 . S
H3141 C3133 0.960 . S
H3142 C3134 0.930 . S
H3143 C3135 0.929 . S
H3144 C3152 0.929 . S
H3145 C3154 0.930 . S
H3146 C3156 0.930 . S
H3147 C3159 0.929 . S
H3148 C3162 0.930 . S
H3149 C3164 0.960 . S
H3150 C3164 0.960 . S
H3151 C3164 0.960 . S
C3152 H3144 0.929 . S
C3152 C3153 1.377 . S
C3152 C3154 1.384 . S
C3153 C3152 1.377 . S
C3153 C3159 1.390 . S
C3154 H3145 0.930 . S
C3154 C3152 1.384 . S
C3154 C3155 1.372 . S
C3155 C3154 1.372 . S
C3155 C3156 1.400 . S
C3155 C3160 1.490 . S
C3156 H3146 0.930 . S
C3156 C3155 1.400 . S
C3156 C3159 1.386 . S
H3157 C3173 0.930 . S
H3158 C3174 0.931 . S
C3159 H3147 0.929 . S
C3159 C3153 1.390 . S
C3159 C3156 1.386 . S
C3160 C3155 1.490 . S
C3160 C3162 1.395 . S
C3160 C3163 1.403 . S
H3161 C3167 0.930 . S
C3162 H3148 0.930 . S
C3162 C3160 1.395 . S
C3162 C3165 1.403 . S
C3163 C3160 1.403 . S
C3163 C3164 1.524 . S
C3163 C3167 1.400 . S
C3164 H3149 0.960 . S
C3164 H3150 0.960 . S
C3164 H3151 0.960 . S
C3164 C3163 1.524 . S
C3165 C3162 1.403 . S
C3165 C3166 1.392 . S
C3165 C3169 1.495 . S
C3166 C3165 1.392 . S
C3166 C3167 1.385 . S
C3166 C3168 1.478 . S
C3167 H3161 0.930 . S
C3167 C3163 1.400 . S
C3167 C3166 1.385 . S
C3168 C3166 1.478 . S
C3168 C3170 1.381 . S
C3168 C3174 1.383 . S
C3169 C3165 1.495 . S
C3169 H3175 0.959 . S
C3169 H3176 0.961 . S
C3169 H3177 0.960 . S
C3170 C3168 1.381 . S
C3170 C3171 1.394 . S
C3170 H3178 0.930 . S
C3171 C3170 1.394 . S
C3171 C3172 1.383 . S
C3171 H3179 0.929 . S
C3172 C3171 1.383 . S
C3172 C3173 1.377 . S
C3173 H3157 0.930 . S
C3173 C3172 1.377 . S
C3173 C3174 1.379 . S
C3174 H3158 0.931 . S
C3174 C3168 1.383 . S
C3174 C3173 1.379 . S
H3175 C3169 0.959 . S
H3176 C3169 0.961 . S
H3177 C3169 0.960 . S
H3178 C3170 0.930 . S
H3179 C3171 0.929 . S
H3180 C3188 0.929 . S
H3181 C3190 0.930 . S
H3182 C3192 0.930 . S
H3183 C3195 0.929 . S
H3184 C3198 0.930 . S
H3185 C3200 0.960 . S
H3186 C3200 0.960 . S
H3187 C3200 0.960 . S
C3188 H3180 0.929 . S
C3188 C3189 1.377 . S
C3188 C3190 1.384 . S
C3189 C3188 1.377 . S
C3189 C3195 1.390 . S
C3190 H3181 0.930 . S
C3190 C3188 1.384 . S
C3190 C3191 1.372 . S
C3191 C3190 1.372 . S
C3191 C3192 1.400 . S
C3191 C3196 1.490 . S
C3192 H3182 0.930 . S
C3192 C3191 1.400 . S
C3192 C3195 1.386 . S
H3193 C3209 0.930 . S
H3194 C3210 0.931 . S
C3195 H3183 0.929 . S
C3195 C3189 1.390 . S
C3195 C3192 1.386 . S
C3196 C3191 1.490 . S
C3196 C3198 1.395 . S
C3196 C3199 1.403 . S
H3197 C3203 0.930 . S
C3198 H3184 0.930 . S
C3198 C3196 1.395 . S
C3198 C3201 1.403 . S
C3199 C3196 1.403 . S
C3199 C3200 1.524 . S
C3199 C3203 1.400 . S
C3200 H3185 0.960 . S
C3200 H3186 0.960 . S
C3200 H3187 0.960 . S
C3200 C3199 1.524 . S
C3201 C3198 1.403 . S
C3201 C3202 1.392 . S
C3201 C3205 1.495 . S
C3202 C3201 1.392 . S
C3202 C3203 1.385 . S
C3202 C3204 1.478 . S
C3203 H3197 0.930 . S
C3203 C3199 1.400 . S
C3203 C3202 1.385 . S
C3204 C3202 1.478 . S
C3204 C3206 1.381 . S
C3204 C3210 1.383 . S
C3205 C3201 1.495 . S
C3205 H3211 0.959 . S
C3205 H3212 0.961 . S
C3205 H3213 0.960 . S
C3206 C3204 1.381 . S
C3206 C3207 1.394 . S
C3206 H3214 0.930 . S
C3207 C3206 1.394 . S
C3207 C3208 1.383 . S
C3207 H3215 0.929 . S
C3208 C3207 1.383 . S
C3208 C3209 1.377 . S
C3209 H3193 0.930 . S
C3209 C3208 1.377 . S
C3209 C3210 1.379 . S
C3210 H3194 0.931 . S
C3210 C3204 1.383 . S
C3210 C3209 1.379 . S
H3211 C3205 0.959 . S
H3212 C3205 0.961 . S
H3213 C3205 0.960 . S
H3214 C3206 0.930 . S
H3215 C3207 0.929 . S
H3216 C3224 0.929 . S
H3217 C3226 0.930 . S
H3218 C3228 0.930 . S
H3219 C3231 0.929 . S
H3220 C3234 0.930 . S
H3221 C3236 0.960 . S
H3222 C3236 0.960 . S
H3223 C3236 0.960 . S
C3224 H3216 0.929 . S
C3224 C3225 1.377 . S
C3224 C3226 1.384 . S
C3225 C3224 1.377 . S
C3225 C3231 1.390 . S
C3226 H3217 0.930 . S
C3226 C3224 1.384 . S
C3226 C3227 1.372 . S
C3227 C3226 1.372 . S
C3227 C3228 1.400 . S
C3227 C3232 1.490 . S
C3228 H3218 0.930 . S
C3228 C3227 1.400 . S
C3228 C3231 1.386 . S
H3229 C3245 0.930 . S
H3230 C3246 0.931 . S
C3231 H3219 0.929 . S
C3231 C3225 1.390 . S
C3231 C3228 1.386 . S
C3232 C3227 1.490 . S
C3232 C3234 1.395 . S
C3232 C3235 1.403 . S
H3233 C3239 0.930 . S
C3234 H3220 0.930 . S
C3234 C3232 1.395 . S
C3234 C3237 1.403 . S
C3235 C3232 1.403 . S
C3235 C3236 1.524 . S
C3235 C3239 1.400 . S
C3236 H3221 0.960 . S
C3236 H3222 0.960 . S
C3236 H3223 0.960 . S
C3236 C3235 1.524 . S
C3237 C3234 1.403 . S
C3237 C3238 1.392 . S
C3237 C3241 1.495 . S
C3238 C3237 1.392 . S
C3238 C3239 1.385 . S
C3238 C3240 1.478 . S
C3239 H3233 0.930 . S
C3239 C3235 1.400 . S
C3239 C3238 1.385 . S
C3240 C3238 1.478 . S
C3240 C3242 1.381 . S
C3240 C3246 1.383 . S
C3241 C3237 1.495 . S
C3241 H3247 0.959 . S
C3241 H3248 0.961 . S
C3241 H3249 0.960 . S
C3242 C3240 1.381 . S
C3242 C3243 1.394 . S
C3242 H3250 0.930 . S
C3243 C3242 1.394 . S
C3243 C3244 1.383 . S
C3243 H3251 0.929 . S
C3244 C3243 1.383 . S
C3244 C3245 1.377 . S
C3245 H3229 0.930 . S
C3245 C3244 1.377 . S
C3245 C3246 1.379 . S
C3246 H3230 0.931 . S
C3246 C3240 1.383 . S
C3246 C3245 1.379 . S
H3247 C3241 0.959 . S
H3248 C3241 0.961 . S
H3249 C3241 0.960 . S
H3250 C3242 0.930 . S
H3251 C3243 0.929 . S
H3252 C3260 0.929 . S
H3253 C3262 0.930 . S
H3254 C3264 0.930 . S
H3255 C3267 0.929 . S
H3256 C3270 0.930 . S
H3257 C3272 0.960 . S
H3258 C3272 0.960 . S
H3259 C3272 0.960 . S
C3260 H3252 0.929 . S
C3260 C3261 1.377 . S
C3260 C3262 1.384 . S
C3261 C3260 1.377 . S
C3261 C3267 1.390 . S
C3262 H3253 0.930 . S
C3262 C3260 1.384 . S
C3262 C3263 1.372 . S
C3263 C3262 1.372 . S
C3263 C3264 1.400 . S
C3263 C3268 1.490 . S
C3264 H3254 0.930 . S
C3264 C3263 1.400 . S
C3264 C3267 1.386 . S
H3265 C3281 0.930 . S
H3266 C3282 0.931 . S
C3267 H3255 0.929 . S
C3267 C3261 1.390 . S
C3267 C3264 1.386 . S
C3268 C3263 1.490 . S
C3268 C3270 1.395 . S
C3268 C3271 1.403 . S
H3269 C3275 0.930 . S
C3270 H3256 0.930 . S
C3270 C3268 1.395 . S
C3270 C3273 1.403 . S
C3271 C3268 1.403 . S
C3271 C3272 1.524 . S
C3271 C3275 1.400 . S
C3272 H3257 0.960 . S
C3272 H3258 0.960 . S
C3272 H3259 0.960 . S
C3272 C3271 1.524 . S
C3273 C3270 1.403 . S
C3273 C3274 1.392 . S
C3273 C3277 1.495 . S
C3274 C3273 1.392 . S
C3274 C3275 1.385 . S
C3274 C3276 1.478 . S
C3275 H3269 0.930 . S
C3275 C3271 1.400 . S
C3275 C3274 1.385 . S
C3276 C3274 1.478 . S
C3276 C3278 1.381 . S
C3276 C3282 1.383 . S
C3277 C3273 1.495 . S
C3277 H3283 0.959 . S
C3277 H3284 0.961 . S
C3277 H3285 0.960 . S
C3278 C3276 1.381 . S
C3278 C3279 1.394 . S
C3278 H3286 0.930 . S
C3279 C3278 1.394 . S
C3279 C3280 1.383 . S
C3279 H3287 0.929 . S
C3280 C3279 1.383 . S
C3280 C3281 1.377 . S
C3281 H3265 0.930 . S
C3281 C3280 1.377 . S
C3281 C3282 1.379 . S
C3282 H3266 0.931 . S
C3282 C3276 1.383 . S
C3282 C3281 1.379 . S
H3283 C3277 0.959 . S
H3284 C3277 0.961 . S
H3285 C3277 0.960 . S
H3286 C3278 0.930 . S
H3287 C3279 0.929 . S
H3288 C3296 0.929 . S
H3289 C3298 0.930 . S
H3290 C3300 0.930 . S
H3291 C3303 0.929 . S
H3292 C3306 0.930 . S
H3293 C3308 0.960 . S
H3294 C3308 0.960 . S
H3295 C3308 0.960 . S
C3296 H3288 0.929 . S
C3296 C3297 1.377 . S
C3296 C3298 1.384 . S
C3297 C3296 1.377 . S
C3297 C3303 1.390 . S
C3298 H3289 0.930 . S
C3298 C3296 1.384 . S
C3298 C3299 1.372 . S
C3299 C3298 1.372 . S
C3299 C3300 1.400 . S
C3299 C3304 1.490 . S
C3300 H3290 0.930 . S
C3300 C3299 1.400 . S
C3300 C3303 1.386 . S
H3301 C3317 0.930 . S
H3302 C3318 0.931 . S
C3303 H3291 0.929 . S
C3303 C3297 1.390 . S
C3303 C3300 1.386 . S
C3304 C3299 1.490 . S
C3304 C3306 1.395 . S
C3304 C3307 1.403 . S
H3305 C3311 0.930 . S
C3306 H3292 0.930 . S
C3306 C3304 1.395 . S
C3306 C3309 1.403 . S
C3307 C3304 1.403 . S
C3307 C3308 1.524 . S
C3307 C3311 1.400 . S
C3308 H3293 0.960 . S
C3308 H3294 0.960 . S
C3308 H3295 0.960 . S
C3308 C3307 1.524 . S
C3309 C3306 1.403 . S
C3309 C3310 1.392 . S
C3309 C3313 1.495 . S
C3310 C3309 1.392 . S
C3310 C3311 1.385 . S
C3310 C3312 1.478 . S
C3311 H3305 0.930 . S
C3311 C3307 1.400 . S
C3311 C3310 1.385 . S
C3312 C3310 1.478 . S
C3312 C3314 1.381 . S
C3312 C3318 1.383 . S
C3313 C3309 1.495 . S
C3313 H3319 0.959 . S
C3313 H3320 0.961 . S
C3313 H3321 0.960 . S
C3314 C3312 1.381 . S
C3314 C3315 1.394 . S
C3314 H3322 0.930 . S
C3315 C3314 1.394 . S
C3315 C3316 1.383 . S
C3315 H3323 0.929 . S
C3316 C3315 1.383 . S
C3316 C3317 1.377 . S
C3317 H3301 0.930 . S
C3317 C3316 1.377 . S
C3317 C3318 1.379 . S
C3318 H3302 0.931 . S
C3318 C3312 1.383 . S
C3318 C3317 1.379 . S
H3319 C3313 0.959 . S
H3320 C3313 0.961 . S
H3321 C3313 0.960 . S
H3322 C3314 0.930 . S
H3323 C3315 0.929 . S
H3324 C3332 0.929 . S
H3325 C3334 0.930 . S
H3326 C3336 0.930 . S
H3327 C3339 0.929 . S
H3328 C3342 0.930 . S
H3329 C3344 0.960 . S
H3330 C3344 0.960 . S
H3331 C3344 0.960 . S
C3332 H3324 0.929 . S
C3332 C3333 1.377 . S
C3332 C3334 1.384 . S
C3333 C3332 1.377 . S
C3333 C3339 1.390 . S
C3334 H3325 0.930 . S
C3334 C3332 1.384 . S
C3334 C3335 1.372 . S
C3335 C3334 1.372 . S
C3335 C3336 1.400 . S
C3335 C3340 1.490 . S
C3336 H3326 0.930 . S
C3336 C3335 1.400 . S
C3336 C3339 1.386 . S
H3337 C3353 0.930 . S
H3338 C3354 0.931 . S
C3339 H3327 0.929 . S
C3339 C3333 1.390 . S
C3339 C3336 1.386 . S
C3340 C3335 1.490 . S
C3340 C3342 1.395 . S
C3340 C3343 1.403 . S
H3341 C3347 0.930 . S
C3342 H3328 0.930 . S
C3342 C3340 1.395 . S
C3342 C3345 1.403 . S
C3343 C3340 1.403 . S
C3343 C3344 1.524 . S
C3343 C3347 1.400 . S
C3344 H3329 0.960 . S
C3344 H3330 0.960 . S
C3344 H3331 0.960 . S
C3344 C3343 1.524 . S
C3345 C3342 1.403 . S
C3345 C3346 1.392 . S
C3345 C3349 1.495 . S
C3346 C3345 1.392 . S
C3346 C3347 1.385 . S
C3346 C3348 1.478 . S
C3347 H3341 0.930 . S
C3347 C3343 1.400 . S
C3347 C3346 1.385 . S
C3348 C3346 1.478 . S
C3348 C3350 1.381 . S
C3348 C3354 1.383 . S
C3349 C3345 1.495 . S
C3349 H3355 0.959 . S
C3349 H3356 0.961 . S
C3349 H3357 0.960 . S
C3350 C3348 1.381 . S
C3350 C3351 1.394 . S
C3350 H3358 0.930 . S
C3351 C3350 1.394 . S
C3351 C3352 1.383 . S
C3351 H3359 0.929 . S
C3352 C3351 1.383 . S
C3352 C3353 1.377 . S
C3353 H3337 0.930 . S
C3353 C3352 1.377 . S
C3353 C3354 1.379 . S
C3354 H3338 0.931 . S
C3354 C3348 1.383 . S
C3354 C3353 1.379 . S
H3355 C3349 0.959 . S
H3356 C3349 0.961 . S
H3357 C3349 0.960 . S
H3358 C3350 0.930 . S
H3359 C3351 0.929 . S
H3360 C3368 0.929 . S
H3361 C3370 0.930 . S
H3362 C3372 0.930 . S
H3363 C3375 0.929 . S
H3364 C3378 0.930 . S
H3365 C3380 0.960 . S
H3366 C3380 0.960 . S
H3367 C3380 0.960 . S
C3368 H3360 0.929 . S
C3368 C3369 1.377 . S
C3368 C3370 1.384 . S
C3369 C3368 1.377 . S
C3369 C3375 1.390 . S
C3370 H3361 0.930 . S
C3370 C3368 1.384 . S
C3370 C3371 1.372 . S
C3371 C3370 1.372 . S
C3371 C3372 1.400 . S
C3371 C3376 1.490 . S
C3372 H3362 0.930 . S
C3372 C3371 1.400 . S
C3372 C3375 1.386 . S
H3373 C3389 0.930 . S
H3374 C3390 0.931 . S
C3375 H3363 0.929 . S
C3375 C3369 1.390 . S
C3375 C3372 1.386 . S
C3376 C3371 1.490 . S
C3376 C3378 1.395 . S
C3376 C3379 1.403 . S
H3377 C3383 0.930 . S
C3378 H3364 0.930 . S
C3378 C3376 1.395 . S
C3378 C3381 1.403 . S
C3379 C3376 1.403 . S
C3379 C3380 1.524 . S
C3379 C3383 1.400 . S
C3380 H3365 0.960 . S
C3380 H3366 0.960 . S
C3380 H3367 0.960 . S
C3380 C3379 1.524 . S
C3381 C3378 1.403 . S
C3381 C3382 1.392 . S
C3381 C3385 1.495 . S
C3382 C3381 1.392 . S
C3382 C3383 1.385 . S
C3382 C3384 1.478 . S
C3383 H3377 0.930 . S
C3383 C3379 1.400 . S
C3383 C3382 1.385 . S
C3384 C3382 1.478 . S
C3384 C3386 1.381 . S
C3384 C3390 1.383 . S
C3385 C3381 1.495 . S
C3385 H3391 0.959 . S
C3385 H3392 0.961 . S
C3385 H3393 0.960 . S
C3386 C3384 1.381 . S
C3386 C3387 1.394 . S
C3386 H3394 0.930 . S
C3387 C3386 1.394 . S
C3387 C3388 1.383 . S
C3387 H3395 0.929 . S
C3388 C3387 1.383 . S
C3388 C3389 1.377 . S
C3389 H3373 0.930 . S
C3389 C3388 1.377 . S
C3389 C3390 1.379 . S
C3390 H3374 0.931 . S
C3390 C3384 1.383 . S
C3390 C3389 1.379 . S
H3391 C3385 0.959 . S
H3392 C3385 0.961 . S
H3393 C3385 0.960 . S
H3394 C3386 0.930 . S
H3395 C3387 0.929 . S
H3396 C3404 0.929 . S
H3397 C3406 0.930 . S
H3398 C3408 0.930 . S
H3399 C3411 0.929 . S
H3400 C3414 0.930 . S
H3401 C3416 0.960 . S
H3402 C3416 0.960 . S
H3403 C3416 0.960 . S
C3404 H3396 0.929 . S
C3404 C3405 1.377 . S
C3404 C3406 1.384 . S
C3405 C3404 1.377 . S
C3405 C3411 1.390 . S
C3406 H3397 0.930 . S
C3406 C3404 1.384 . S
C3406 C3407 1.372 . S
C3407 C3406 1.372 . S
C3407 C3408 1.400 . S
C3407 C3412 1.490 . S
C3408 H3398 0.930 . S
C3408 C3407 1.400 . S
C3408 C3411 1.386 . S
H3409 C3425 0.930 . S
H3410 C3426 0.931 . S
C3411 H3399 0.929 . S
C3411 C3405 1.390 . S
C3411 C3408 1.386 . S
C3412 C3407 1.490 . S
C3412 C3414 1.395 . S
C3412 C3415 1.403 . S
H3413 C3419 0.930 . S
C3414 H3400 0.930 . S
C3414 C3412 1.395 . S
C3414 C3417 1.403 . S
C3415 C3412 1.403 . S
C3415 C3416 1.524 . S
C3415 C3419 1.400 . S
C3416 H3401 0.960 . S
C3416 H3402 0.960 . S
C3416 H3403 0.960 . S
C3416 C3415 1.524 . S
C3417 C3414 1.403 . S
C3417 C3418 1.392 . S
C3417 C3421 1.495 . S
C3418 C3417 1.392 . S
C3418 C3419 1.385 . S
C3418 C3420 1.478 . S
C3419 H3413 0.930 . S
C3419 C3415 1.400 . S
C3419 C3418 1.385 . S
C3420 C3418 1.478 . S
C3420 C3422 1.381 . S
C3420 C3426 1.383 . S
C3421 C3417 1.495 . S
C3421 H3427 0.959 . S
C3421 H3428 0.961 . S
C3421 H3429 0.960 . S
C3422 C3420 1.381 . S
C3422 C3423 1.394 . S
C3422 H3430 0.930 . S
C3423 C3422 1.394 . S
C3423 C3424 1.383 . S
C3423 H3431 0.929 . S
C3424 C3423 1.383 . S
C3424 C3425 1.377 . S
C3425 H3409 0.930 . S
C3425 C3424 1.377 . S
C3425 C3426 1.379 . S
C3426 H3410 0.931 . S
C3426 C3420 1.383 . S
C3426 C3425 1.379 . S
H3427 C3421 0.959 . S
H3428 C3421 0.961 . S
H3429 C3421 0.960 . S
H3430 C3422 0.930 . S
H3431 C3423 0.929 . S
H3432 C3440 0.929 . S
H3433 C3442 0.930 . S
H3434 C3444 0.930 . S
H3435 C3447 0.929 . S
H3436 C3450 0.930 . S
H3437 C3452 0.960 . S
H3438 C3452 0.960 . S
H3439 C3452 0.960 . S
C3440 H3432 0.929 . S
C3440 C3441 1.377 . S
C3440 C3442 1.384 . S
C3441 C3440 1.377 . S
C3441 C3447 1.390 . S
C3442 H3433 0.930 . S
C3442 C3440 1.384 . S
C3442 C3443 1.372 . S
C3443 C3442 1.372 . S
C3443 C3444 1.400 . S
C3443 C3448 1.490 . S
C3444 H3434 0.930 . S
C3444 C3443 1.400 . S
C3444 C3447 1.386 . S
H3445 C3461 0.930 . S
H3446 C3462 0.931 . S
C3447 H3435 0.929 . S
C3447 C3441 1.390 . S
C3447 C3444 1.386 . S
C3448 C3443 1.490 . S
C3448 C3450 1.395 . S
C3448 C3451 1.403 . S
H3449 C3455 0.930 . S
C3450 H3436 0.930 . S
C3450 C3448 1.395 . S
C3450 C3453 1.403 . S
C3451 C3448 1.403 . S
C3451 C3452 1.524 . S
C3451 C3455 1.400 . S
C3452 H3437 0.960 . S
C3452 H3438 0.960 . S
C3452 H3439 0.960 . S
C3452 C3451 1.524 . S
C3453 C3450 1.403 . S
C3453 C3454 1.392 . S
C3453 C3457 1.495 . S
C3454 C3453 1.392 . S
C3454 C3455 1.385 . S
C3454 C3456 1.478 . S
C3455 H3449 0.930 . S
C3455 C3451 1.400 . S
C3455 C3454 1.385 . S
C3456 C3454 1.478 . S
C3456 C3458 1.381 . S
C3456 C3462 1.383 . S
C3457 C3453 1.495 . S
C3457 H3463 0.959 . S
C3457 H3464 0.961 . S
C3457 H3465 0.960 . S
C3458 C3456 1.381 . S
C3458 C3459 1.394 . S
C3458 H3466 0.930 . S
C3459 C3458 1.394 . S
C3459 C3460 1.383 . S
C3459 H3467 0.929 . S
C3460 C3459 1.383 . S
C3460 C3461 1.377 . S
C3461 H3445 0.930 . S
C3461 C3460 1.377 . S
C3461 C3462 1.379 . S
C3462 H3446 0.931 . S
C3462 C3456 1.383 . S
C3462 C3461 1.379 . S
H3463 C3457 0.959 . S
H3464 C3457 0.961 . S
H3465 C3457 0.960 . S
H3466 C3458 0.930 . S
H3467 C3459 0.929 . S
H3468 C3476 0.929 . S
H3469 C3478 0.930 . S
H3470 C3480 0.930 . S
H3471 C3483 0.929 . S
H3472 C3486 0.930 . S
H3473 C3488 0.960 . S
H3474 C3488 0.960 . S
H3475 C3488 0.960 . S
C3476 H3468 0.929 . S
C3476 C3477 1.377 . S
C3476 C3478 1.384 . S
C3477 C3476 1.377 . S
C3477 C3483 1.390 . S
C3478 H3469 0.930 . S
C3478 C3476 1.384 . S
C3478 C3479 1.372 . S
C3479 C3478 1.372 . S
C3479 C3480 1.400 . S
C3479 C3484 1.490 . S
C3480 H3470 0.930 . S
C3480 C3479 1.400 . S
C3480 C3483 1.386 . S
H3481 C3497 0.930 . S
H3482 C3498 0.931 . S
C3483 H3471 0.929 . S
C3483 C3477 1.390 . S
C3483 C3480 1.386 . S
C3484 C3479 1.490 . S
C3484 C3486 1.395 . S
C3484 C3487 1.403 . S
H3485 C3491 0.930 . S
C3486 H3472 0.930 . S
C3486 C3484 1.395 . S
C3486 C3489 1.403 . S
C3487 C3484 1.403 . S
C3487 C3488 1.524 . S
C3487 C3491 1.400 . S
C3488 H3473 0.960 . S
C3488 H3474 0.960 . S
C3488 H3475 0.960 . S
C3488 C3487 1.524 . S
C3489 C3486 1.403 . S
C3489 C3490 1.392 . S
C3489 C3493 1.495 . S
C3490 C3489 1.392 . S
C3490 C3491 1.385 . S
C3490 C3492 1.478 . S
C3491 H3485 0.930 . S
C3491 C3487 1.400 . S
C3491 C3490 1.385 . S
C3492 C3490 1.478 . S
C3492 C3494 1.381 . S
C3492 C3498 1.383 . S
C3493 C3489 1.495 . S
C3493 H3499 0.959 . S
C3493 H3500 0.961 . S
C3493 H3501 0.960 . S
C3494 C3492 1.381 . S
C3494 C3495 1.394 . S
C3494 H3502 0.930 . S
C3495 C3494 1.394 . S
C3495 C3496 1.383 . S
C3495 H3503 0.929 . S
C3496 C3495 1.383 . S
C3496 C3497 1.377 . S
C3497 H3481 0.930 . S
C3497 C3496 1.377 . S
C3497 C3498 1.379 . S
C3498 H3482 0.931 . S
C3498 C3492 1.383 . S
C3498 C3497 1.379 . S
H3499 C3493 0.959 . S
H3500 C3493 0.961 . S
H3501 C3493 0.960 . S
H3502 C3494 0.930 . S
H3503 C3495 0.929 . S
H3504 C3512 0.929 . S
H3505 C3514 0.930 . S
H3506 C3516 0.930 . S
H3507 C3519 0.929 . S
H3508 C3522 0.930 . S
H3509 C3524 0.960 . S
H3510 C3524 0.960 . S
H3511 C3524 0.960 . S
C3512 H3504 0.929 . S
C3512 C3513 1.377 . S
C3512 C3514 1.384 . S
C3513 C3512 1.377 . S
C3513 C3519 1.390 . S
C3514 H3505 0.930 . S
C3514 C3512 1.384 . S
C3514 C3515 1.372 . S
C3515 C3514 1.372 . S
C3515 C3516 1.400 . S
C3515 C3520 1.490 . S
C3516 H3506 0.930 . S
C3516 C3515 1.400 . S
C3516 C3519 1.386 . S
H3517 C3533 0.930 . S
H3518 C3534 0.931 . S
C3519 H3507 0.929 . S
C3519 C3513 1.390 . S
C3519 C3516 1.386 . S
C3520 C3515 1.490 . S
C3520 C3522 1.395 . S
C3520 C3523 1.403 . S
H3521 C3527 0.930 . S
C3522 H3508 0.930 . S
C3522 C3520 1.395 . S
C3522 C3525 1.403 . S
C3523 C3520 1.403 . S
C3523 C3524 1.524 . S
C3523 C3527 1.400 . S
C3524 H3509 0.960 . S
C3524 H3510 0.960 . S
C3524 H3511 0.960 . S
C3524 C3523 1.524 . S
C3525 C3522 1.403 . S
C3525 C3526 1.392 . S
C3525 C3529 1.495 . S
C3526 C3525 1.392 . S
C3526 C3527 1.385 . S
C3526 C3528 1.478 . S
C3527 H3521 0.930 . S
C3527 C3523 1.400 . S
C3527 C3526 1.385 . S
C3528 C3526 1.478 . S
C3528 C3530 1.381 . S
C3528 C3534 1.383 . S
C3529 C3525 1.495 . S
C3529 H3535 0.959 . S
C3529 H3536 0.961 . S
C3529 H3537 0.960 . S
C3530 C3528 1.381 . S
C3530 C3531 1.394 . S
C3530 H3538 0.930 . S
C3531 C3530 1.394 . S
C3531 C3532 1.383 . S
C3531 H3539 0.929 . S
C3532 C3531 1.383 . S
C3532 C3533 1.377 . S
C3533 H3517 0.930 . S
C3533 C3532 1.377 . S
C3533 C3534 1.379 . S
C3534 H3518 0.931 . S
C3534 C3528 1.383 . S
C3534 C3533 1.379 . S
H3535 C3529 0.959 . S
H3536 C3529 0.961 . S
H3537 C3529 0.960 . S
H3538 C3530 0.930 . S
H3539 C3531 0.929 . S
H3540 C3548 0.929 . S
H3541 C3550 0.930 . S
H3542 C3552 0.930 . S
H3543 C3555 0.929 . S
H3544 C3558 0.930 . S
H3545 C3560 0.960 . S
H3546 C3560 0.960 . S
H3547 C3560 0.960 . S
C3548 H3540 0.929 . S
C3548 C3549 1.377 . S
C3548 C3550 1.384 . S
C3549 C3548 1.377 . S
C3549 C3555 1.390 . S
C3550 H3541 0.930 . S
C3550 C3548 1.384 . S
C3550 C3551 1.372 . S
C3551 C3550 1.372 . S
C3551 C3552 1.400 . S
C3551 C3556 1.490 . S
C3552 H3542 0.930 . S
C3552 C3551 1.400 . S
C3552 C3555 1.386 . S
H3553 C3569 0.930 . S
H3554 C3570 0.931 . S
C3555 H3543 0.929 . S
C3555 C3549 1.390 . S
C3555 C3552 1.386 . S
C3556 C3551 1.490 . S
C3556 C3558 1.395 . S
C3556 C3559 1.403 . S
H3557 C3563 0.930 . S
C3558 H3544 0.930 . S
C3558 C3556 1.395 . S
C3558 C3561 1.403 . S
C3559 C3556 1.403 . S
C3559 C3560 1.524 . S
C3559 C3563 1.400 . S
C3560 H3545 0.960 . S
C3560 H3546 0.960 . S
C3560 H3547 0.960 . S
C3560 C3559 1.524 . S
C3561 C3558 1.403 . S
C3561 C3562 1.392 . S
C3561 C3565 1.495 . S
C3562 C3561 1.392 . S
C3562 C3563 1.385 . S
C3562 C3564 1.478 . S
C3563 H3557 0.930 . S
C3563 C3559 1.400 . S
C3563 C3562 1.385 . S
C3564 C3562 1.478 . S
C3564 C3566 1.381 . S
C3564 C3570 1.383 . S
C3565 C3561 1.495 . S
C3565 H3571 0.959 . S
C3565 H3572 0.961 . S
C3565 H3573 0.960 . S
C3566 C3564 1.381 . S
C3566 C3567 1.394 . S
C3566 H3574 0.930 . S
C3567 C3566 1.394 . S
C3567 C3568 1.383 . S
C3567 H3575 0.929 . S
C3568 C3567 1.383 . S
C3568 C3569 1.377 . S
C3569 H3553 0.930 . S
C3569 C3568 1.377 . S
C3569 C3570 1.379 . S
C3570 H3554 0.931 . S
C3570 C3564 1.383 . S
C3570 C3569 1.379 . S
H3571 C3565 0.959 . S
H3572 C3565 0.961 . S
H3573 C3565 0.960 . S
H3574 C3566 0.930 . S
H3575 C3567 0.929 . S
H3576 C3584 0.929 . S
H3577 C3586 0.930 . S
H3578 C3588 0.930 . S
H3579 C3591 0.929 . S
H3580 C3594 0.930 . S
H3581 C3596 0.960 . S
H3582 C3596 0.960 . S
H3583 C3596 0.960 . S
C3584 H3576 0.929 . S
C3584 C3585 1.377 . S
C3584 C3586 1.384 . S
C3585 C3584 1.377 . S
C3585 C3591 1.390 . S
C3586 H3577 0.930 . S
C3586 C3584 1.384 . S
C3586 C3587 1.372 . S
C3587 C3586 1.372 . S
C3587 C3588 1.400 . S
C3587 C3592 1.490 . S
C3588 H3578 0.930 . S
C3588 C3587 1.400 . S
C3588 C3591 1.386 . S
H3589 C3605 0.930 . S
H3590 C3606 0.931 . S
C3591 H3579 0.929 . S
C3591 C3585 1.390 . S
C3591 C3588 1.386 . S
C3592 C3587 1.490 . S
C3592 C3594 1.395 . S
C3592 C3595 1.403 . S
H3593 C3599 0.930 . S
C3594 H3580 0.930 . S
C3594 C3592 1.395 . S
C3594 C3597 1.403 . S
C3595 C3592 1.403 . S
C3595 C3596 1.524 . S
C3595 C3599 1.400 . S
C3596 H3581 0.960 . S
C3596 H3582 0.960 . S
C3596 H3583 0.960 . S
C3596 C3595 1.524 . S
C3597 C3594 1.403 . S
C3597 C3598 1.392 . S
C3597 C3601 1.495 . S
C3598 C3597 1.392 . S
C3598 C3599 1.385 . S
C3598 C3600 1.478 . S
C3599 H3593 0.930 . S
C3599 C3595 1.400 . S
C3599 C3598 1.385 . S
C3600 C3598 1.478 . S
C3600 C3602 1.381 . S
C3600 C3606 1.383 . S
C3601 C3597 1.495 . S
C3601 H3607 0.959 . S
C3601 H3608 0.961 . S
C3601 H3609 0.960 . S
C3602 C3600 1.381 . S
C3602 C3603 1.394 . S
C3602 H3610 0.930 . S
C3603 C3602 1.394 . S
C3603 C3604 1.383 . S
C3603 H3611 0.929 . S
C3604 C3603 1.383 . S
C3604 C3605 1.377 . S
C3605 H3589 0.930 . S
C3605 C3604 1.377 . S
C3605 C3606 1.379 . S
C3606 H3590 0.931 . S
C3606 C3600 1.383 . S
C3606 C3605 1.379 . S
H3607 C3601 0.959 . S
H3608 C3601 0.961 . S
H3609 C3601 0.960 . S
H3610 C3602 0.930 . S
H3611 C3603 0.929 . S
H3612 C3620 0.929 . S
H3613 C3622 0.930 . S
H3614 C3624 0.930 . S
H3615 C3627 0.929 . S
H3616 C3630 0.930 . S
H3617 C3632 0.960 . S
H3618 C3632 0.960 . S
H3619 C3632 0.960 . S
C3620 H3612 0.929 . S
C3620 C3621 1.377 . S
C3620 C3622 1.384 . S
C3621 C3620 1.377 . S
C3621 C3627 1.390 . S
C3622 H3613 0.930 . S
C3622 C3620 1.384 . S
C3622 C3623 1.372 . S
C3623 C3622 1.372 . S
C3623 C3624 1.400 . S
C3623 C3628 1.490 . S
C3624 H3614 0.930 . S
C3624 C3623 1.400 . S
C3624 C3627 1.386 . S
H3625 C3641 0.930 . S
H3626 C3642 0.931 . S
C3627 H3615 0.929 . S
C3627 C3621 1.390 . S
C3627 C3624 1.386 . S
C3628 C3623 1.490 . S
C3628 C3630 1.395 . S
C3628 C3631 1.403 . S
H3629 C3635 0.930 . S
C3630 H3616 0.930 . S
C3630 C3628 1.395 . S
C3630 C3633 1.403 . S
C3631 C3628 1.403 . S
C3631 C3632 1.524 . S
C3631 C3635 1.400 . S
C3632 H3617 0.960 . S
C3632 H3618 0.960 . S
C3632 H3619 0.960 . S
C3632 C3631 1.524 . S
C3633 C3630 1.403 . S
C3633 C3634 1.392 . S
C3633 C3637 1.495 . S
C3634 C3633 1.392 . S
C3634 C3635 1.385 . S
C3634 C3636 1.478 . S
C3635 H3629 0.930 . S
C3635 C3631 1.400 . S
C3635 C3634 1.385 . S
C3636 C3634 1.478 . S
C3636 C3638 1.381 . S
C3636 C3642 1.383 . S
C3637 C3633 1.495 . S
C3637 H3643 0.959 . S
C3637 H3644 0.961 . S
C3637 H3645 0.960 . S
C3638 C3636 1.381 . S
C3638 C3639 1.394 . S
C3638 H3646 0.930 . S
C3639 C3638 1.394 . S
C3639 C3640 1.383 . S
C3639 H3647 0.929 . S
C3640 C3639 1.383 . S
C3640 C3641 1.377 . S
C3641 H3625 0.930 . S
C3641 C3640 1.377 . S
C3641 C3642 1.379 . S
C3642 H3626 0.931 . S
C3642 C3636 1.383 . S
C3642 C3641 1.379 . S
H3643 C3637 0.959 . S
H3644 C3637 0.961 . S
H3645 C3637 0.960 . S
H3646 C3638 0.930 . S
H3647 C3639 0.929 . S
H3648 C3656 0.929 . S
H3649 C3658 0.930 . S
H3650 C3660 0.930 . S
H3651 C3663 0.929 . S
H3652 C3666 0.930 . S
H3653 C3668 0.960 . S
H3654 C3668 0.960 . S
H3655 C3668 0.960 . S
C3656 H3648 0.929 . S
C3656 C3657 1.377 . S
C3656 C3658 1.384 . S
C3657 C3656 1.377 . S
C3657 C3663 1.390 . S
C3658 H3649 0.930 . S
C3658 C3656 1.384 . S
C3658 C3659 1.372 . S
C3659 C3658 1.372 . S
C3659 C3660 1.400 . S
C3659 C3664 1.490 . S
C3660 H3650 0.930 . S
C3660 C3659 1.400 . S
C3660 C3663 1.386 . S
H3661 C3677 0.930 . S
H3662 C3678 0.931 . S
C3663 H3651 0.929 . S
C3663 C3657 1.390 . S
C3663 C3660 1.386 . S
C3664 C3659 1.490 . S
C3664 C3666 1.395 . S
C3664 C3667 1.403 . S
H3665 C3671 0.930 . S
C3666 H3652 0.930 . S
C3666 C3664 1.395 . S
C3666 C3669 1.403 . S
C3667 C3664 1.403 . S
C3667 C3668 1.524 . S
C3667 C3671 1.400 . S
C3668 H3653 0.960 . S
C3668 H3654 0.960 . S
C3668 H3655 0.960 . S
C3668 C3667 1.524 . S
C3669 C3666 1.403 . S
C3669 C3670 1.392 . S
C3669 C3673 1.495 . S
C3670 C3669 1.392 . S
C3670 C3671 1.385 . S
C3670 C3672 1.478 . S
C3671 H3665 0.930 . S
C3671 C3667 1.400 . S
C3671 C3670 1.385 . S
C3672 C3670 1.478 . S
C3672 C3674 1.381 . S
C3672 C3678 1.383 . S
C3673 C3669 1.495 . S
C3673 H3679 0.959 . S
C3673 H3680 0.961 . S
C3673 H3681 0.960 . S
C3674 C3672 1.381 . S
C3674 C3675 1.394 . S
C3674 H3682 0.930 . S
C3675 C3674 1.394 . S
C3675 C3676 1.383 . S
C3675 H3683 0.929 . S
C3676 C3675 1.383 . S
C3676 C3677 1.377 . S
C3677 H3661 0.930 . S
C3677 C3676 1.377 . S
C3677 C3678 1.379 . S
C3678 H3662 0.931 . S
C3678 C3672 1.383 . S
C3678 C3677 1.379 . S
H3679 C3673 0.959 . S
H3680 C3673 0.961 . S
H3681 C3673 0.960 . S
H3682 C3674 0.930 . S
H3683 C3675 0.929 . S
H3684 C3692 0.929 . S
H3685 C3694 0.930 . S
H3686 C3696 0.930 . S
H3687 C3699 0.929 . S
H3688 C3702 0.930 . S
H3689 C3704 0.960 . S
H3690 C3704 0.960 . S
H3691 C3704 0.960 . S
C3692 H3684 0.929 . S
C3692 C3693 1.377 . S
C3692 C3694 1.384 . S
C3693 C3692 1.377 . S
C3693 C3699 1.390 . S
C3694 H3685 0.930 . S
C3694 C3692 1.384 . S
C3694 C3695 1.372 . S
C3695 C3694 1.372 . S
C3695 C3696 1.400 . S
C3695 C3700 1.490 . S
C3696 H3686 0.930 . S
C3696 C3695 1.400 . S
C3696 C3699 1.386 . S
H3697 C3713 0.930 . S
H3698 C3714 0.931 . S
C3699 H3687 0.929 . S
C3699 C3693 1.390 . S
C3699 C3696 1.386 . S
C3700 C3695 1.490 . S
C3700 C3702 1.395 . S
C3700 C3703 1.403 . S
H3701 C3707 0.930 . S
C3702 H3688 0.930 . S
C3702 C3700 1.395 . S
C3702 C3705 1.403 . S
C3703 C3700 1.403 . S
C3703 C3704 1.524 . S
C3703 C3707 1.400 . S
C3704 H3689 0.960 . S
C3704 H3690 0.960 . S
C3704 H3691 0.960 . S
C3704 C3703 1.524 . S
C3705 C3702 1.403 . S
C3705 C3706 1.392 . S
C3705 C3709 1.495 . S
C3706 C3705 1.392 . S
C3706 C3707 1.385 . S
C3706 C3708 1.478 . S
C3707 H3701 0.930 . S
C3707 C3703 1.400 . S
C3707 C3706 1.385 . S
C3708 C3706 1.478 . S
C3708 C3710 1.381 . S
C3708 C3714 1.383 . S
C3709 C3705 1.495 . S
C3709 H3715 0.959 . S
C3709 H3716 0.961 . S
C3709 H3717 0.960 . S
C3710 C3708 1.381 . S
C3710 C3711 1.394 . S
C3710 H3718 0.930 . S
C3711 C3710 1.394 . S
C3711 C3712 1.383 . S
C3711 H3719 0.929 . S
C3712 C3711 1.383 . S
C3712 C3713 1.377 . S
C3713 H3697 0.930 . S
C3713 C3712 1.377 . S
C3713 C3714 1.379 . S
C3714 H3698 0.931 . S
C3714 C3708 1.383 . S
C3714 C3713 1.379 . S
H3715 C3709 0.959 . S
H3716 C3709 0.961 . S
H3717 C3709 0.960 . S
H3718 C3710 0.930 . S
H3719 C3711 0.929 . S
C705 C8 1.034 . S
C724 C166 0.978 . S
C741 C37 1.036 . S
C760 C21 1.034 . S
C777 C66 1.044 . S
C796 C50 0.944 . S
C813 C79 0.986 . S
C832 C95 1.016 . S
C849 C124 1.047 . S
C868 C108 1.006 . S
C885 C153 1.035 . S
C904 C137 0.978 . S
C921 C224 0.984 . S
C940 C182 1.023 . S
C957 C253 0.998 . S
C976 C211 1.010 . S
C993 C282 1.003 . S
C1012 C240 1.051 . S
C1029 C269 1.034 . S
C1048 C311 0.982 . S
C1065 C340 0.998 . S
C1084 C298 1.011 . S
C1101 C327 1.046 . S
C1120 C195 0.960 . S
C1137 C514 1.003 . S
C1156 C356 1.069 . S
C1173 C369 0.982 . S
C1192 C385 1.013 . S
C1209 C414 1.046 . S
C1228 C398 1.021 . S
C1245 C443 1.042 . S
C1264 C427 1.028 . S
C1281 C472 1.034 . S
C1300 C456 0.945 . S
C1317 C501 1.047 . S
C1336 C485 1.037 . S
C1353 C572 1.004 . S
C1372 C530 1.064 . S
C1389 C601 0.996 . S
C1408 C559 1.031 . S
C1425 C588 1.042 . S
C1444 C630 1.029 . S
C1461 C617 1.041 . S
C1480 C659 1.022 . S
C1497 C646 1.035 . S
C1516 C688 0.937 . S
C1533 C543 0.995 . S
C1552 C675 1.058 . S
C1569 C10 1.347 . S
C1588 C445 1.305 . S
C1605 C39 1.348 . S
C1624 C474 1.358 . S
C1641 C68 1.340 . S
C1660 C503 1.321 . S
C1677 C358 1.344 . S
C1696 C97 1.372 . S
C1713 C126 1.336 . S
C1732 C387 1.367 . S
C1749 C155 1.348 . S
C1768 C416 1.305 . S
C1785 C619 1.348 . S
C1804 C184 1.357 . S
C1821 C648 1.349 . S
C1840 C213 1.307 . S
C1857 C677 1.350 . S
C1876 C242 1.341 . S
C1893 C532 1.351 . S
C1912 C271 1.334 . S
C1929 C300 1.340 . S
C1948 C561 1.319 . S
C1965 C329 1.351 . S
C1984 C590 1.322 . S
C2001 C5 1.320 . S
C2020 C237 1.312 . S
C2037 C34 1.320 . S
C2056 C266 1.343 . S
C2073 C63 1.321 . S
C2092 C295 1.306 . S
C2109 C92 1.318 . S
C2128 C324 1.327 . S
C2145 C121 1.323 . S
C2164 C179 1.299 . S
C2181 C150 1.319 . S
C2200 C208 1.318 . S
C2217 C585 1.321 . S
C2236 C353 1.315 . S
C2253 C382 1.324 . S
C2272 C614 1.329 . S
C2289 C643 1.322 . S
C2308 C411 1.317 . S
C2325 C440 1.327 . S
C2344 C672 1.340 . S
C2361 C469 1.318 . S
C2380 C527 1.299 . S
C2397 C498 1.319 . S
C2416 C556 1.300 . S
C2433 C15 1.123 . S
C2452 C102 1.147 . S
C2469 C131 1.122 . S
C2488 C44 1.095 . S
C2505 C73 1.114 . S
C2524 C160 1.096 . S
C2541 C276 1.122 . S
C2560 C189 1.145 . S
C2577 C305 1.127 . S
C2596 C218 1.122 . S
C2613 C247 1.129 . S
C2632 C334 1.144 . S
C2649 C450 1.115 . S
C2668 C363 1.151 . S
C2685 C479 1.115 . S
C2704 C392 1.150 . S
C2721 C421 1.115 . S
C2740 C508 1.150 . S
C2757 C624 1.126 . S
C2776 C537 1.108 . S
C2793 C566 1.127 . S
C2812 C653 1.092 . S
C2829 C682 1.121 . S
C2848 C595 1.116 . S
C2865 C61 2.330 . S
C2884 C13 2.249 . S
C2901 C42 2.251 . S
C2920 C90 2.337 . S
C2937 C119 2.330 . S
C2956 C71 2.248 . S
C2973 C148 2.333 . S
C2992 C100 2.267 . S
C3009 C129 2.253 . S
C3028 C3 2.337 . S
C3045 C158 2.245 . S
C3064 C32 2.314 . S
C3081 C187 2.244 . S
C3100 C293 2.311 . S
C3117 C322 2.330 . S
C3136 C216 2.240 . S
C3153 C177 2.330 . S
C3172 C245 2.239 . S
C3189 C274 2.244 . S
C3208 C206 2.311 . S
C3225 C303 2.247 . S
C3244 C235 2.319 . S
C3261 C332 2.253 . S
C3280 C264 2.340 . S
C3297 C361 2.246 . S
C3316 C409 2.319 . S
C3333 C390 2.253 . S
C3352 C438 2.328 . S
C3369 C419 2.250 . S
C3388 C467 2.338 . S
C3405 C496 2.331 . S
C3424 C448 2.222 . S
C3441 C477 2.253 . S
C3460 C351 2.328 . S
C3477 C380 2.328 . S
C3496 C506 2.236 . S
C3513 C535 2.253 . S
C3532 C641 2.313 . S
C3549 C670 2.331 . S
C3568 C564 2.222 . S
C3585 C593 2.250 . S
C3604 C525 2.339 . S
C3621 C554 2.331 . S
C3640 C622 2.222 . S
C3657 C583 2.331 . S
C3676 C651 2.222 . S
C3693 C680 2.252 . S
C3712 C612 2.333 . S
