# Generated by pormake.
# Topology sml, (6)-cn, num edge types: 1
# Building blocks:
#     Node 0, Type 0, BuildingBlock: INOVEN_clean_sbu_0, # of connection points: 6
#     Node 1, Type 0, BuildingBlock: INOVEN_clean_sbu_0, # of connection points: 6
#     Node 2, Type 0, BuildingBlock: INOVEN_clean_sbu_0, # of connection points: 6
#     Node 3, Type 0, BuildingBlock: INOVEN_clean_sbu_0, # of connection points: 6
#     Node 4, Type 0, BuildingBlock: INOVEN_clean_sbu_0, # of connection points: 6
#     Node 5, Type 0, BuildingBlock: INOVEN_clean_sbu_0, # of connection points: 6
#     Edge 6, Type (0, 0), BuildingBlock: CIFDUS_clean_linker_0, # of connection points: 2
#     Edge 7, Type (0, 0), BuildingBlock: CIFDUS_clean_linker_0, # of connection points: 2
#     Edge 8, Type (0, 0), BuildingBlock: CIFDUS_clean_linker_0, # of connection points: 2
#     Edge 9, Type (0, 0), BuildingBlock: CIFDUS_clean_linker_0, # of connection points: 2
#     Edge 10, Type (0, 0), BuildingBlock: CIFDUS_clean_linker_0, # of connection points: 2
#     Edge 11, Type (0, 0), BuildingBlock: CIFDUS_clean_linker_0, # of connection points: 2
#     Edge 12, Type (0, 0), BuildingBlock: CIFDUS_clean_linker_0, # of connection points: 2
#     Edge 13, Type (0, 0), BuildingBlock: CIFDUS_clean_linker_0, # of connection points: 2
#     Edge 14, Type (0, 0), BuildingBlock: CIFDUS_clean_linker_0, # of connection points: 2
#     Edge 15, Type (0, 0), BuildingBlock: CIFDUS_clean_linker_0, # of connection points: 2
#     Edge 16, Type (0, 0), BuildingBlock: CIFDUS_clean_linker_0, # of connection points: 2
#     Edge 17, Type (0, 0), BuildingBlock: CIFDUS_clean_linker_0, # of connection points: 2
#     Edge 18, Type (0, 0), BuildingBlock: CIFDUS_clean_linker_0, # of connection points: 2
#     Edge 19, Type (0, 0), BuildingBlock: CIFDUS_clean_linker_0, # of connection points: 2
#     Edge 20, Type (0, 0), BuildingBlock: CIFDUS_clean_linker_0, # of connection points: 2
#     Edge 21, Type (0, 0), BuildingBlock: CIFDUS_clean_linker_0, # of connection points: 2
#     Edge 22, Type (0, 0), BuildingBlock: CIFDUS_clean_linker_0, # of connection points: 2
#     Edge 23, Type (0, 0), BuildingBlock: CIFDUS_clean_linker_0, # of connection points: 2
# Relax obj value: 0.231
# Max RMSD: 0.255
# Mean RMSD: 0.255
data_MOF--net-sml--node1-INOVEN_clean_sbu_0--edge1-CIFDUS_clean_linker_0
_symmetry_space_group_name_H-M    P1
_symmetry_Int_Tables_number       1
_symmetry_cell_setting            triclinic
loop_
_symmetry_equiv_pos_as_xyz
'x, y, z'
_cell_length_a     27.5705
_cell_length_b     27.623237
_cell_length_c     23.058734
_cell_angle_alpha  90.080088
_cell_angle_beta   89.581707
_cell_angle_gamma 119.8758
loop_
_atom_site_label
_atom_site_type_symbol
_atom_site_fract_x
_atom_site_fract_y
_atom_site_fract_z
_atom_type_partial_charge
Gd0 Gd 0.17279 0.44746 0.95619 0.0
Gd1 Gd 0.21669 0.40805 0.05795 0.0
C2 C 0.20636 0.34941 0.93764 0.0
C3 C 0.15675 0.47897 0.85569 0.0
C4 C 0.16774 0.47119 0.79468 0.0
C5 C 0.14213 0.48454 0.75006 0.0
C6 C 0.20114 0.44766 0.78054 0.0
C7 C 0.1817 0.44913 0.67777 0.0
C8 C 0.20819 0.43688 0.72276 0.0
C9 C 0.14905 0.4737 0.69212 0.0
C10 C 0.09337 0.37883 0.03136 0.0
C11 C 0.18733 0.50884 0.07565 0.0
C12 C 0.23246 0.37741 0.15897 0.0
C13 C 0.22208 0.3869 0.21962 0.0
C14 C 0.24863 0.37523 0.26462 0.0
C15 C 0.18864 0.41061 0.23298 0.0
C16 C 0.20946 0.41203 0.33579 0.0
C17 C 0.18238 0.42305 0.29044 0.0
C18 C 0.24234 0.38755 0.32215 0.0
C19 C 0.29582 0.4797 0.98395 0.0
O20 O 0.19805 0.38888 0.91564 0.0
O21 O 0.20948 0.34348 0.99413 0.0
O22 O 0.11925 0.43394 0.88251 0.0
O23 O 0.20042 0.50984 0.88786 0.0
O24 O 0.09122 0.41787 1.00235 0.0
O25 O 0.13479 0.37399 1.01532 0.0
O26 O 0.19362 0.46839 0.09841 0.0
O27 O 0.18392 0.51406 0.01907 0.0
O28 O 0.27047 0.4215 0.13135 0.0
O29 O 0.18849 0.34652 0.12718 0.0
O30 O 0.29994 0.44134 1.0122 0.0
O31 O 0.25325 0.48182 1.0005 0.0
H32 H 0.11585 0.50238 0.76011 0.0
H33 H 0.22118 0.43685 0.81412 0.0
H34 H 0.23429 0.41871 0.71339 0.0
H35 H 0.12749 0.48308 0.65877 0.0
H36 H 0.27505 0.35743 0.25515 0.0
H37 H 0.16783 0.42013 0.19906 0.0
H38 H 0.15622 0.44124 0.29933 0.0
H39 H 0.26442 0.37919 0.35578 0.0
Gd40 Gd 0.73518 0.18221 0.30341 0.0
Gd41 Gd 0.81917 0.23466 0.40358 0.0
C42 C 0.86996 0.22975 0.2826 0.0
C43 C 0.68809 0.16433 0.20285 0.0
C44 C 0.70487 0.172 0.14062 0.0
C45 C 0.68885 0.12479 0.10573 0.0
C46 C 0.7349 0.22524 0.11485 0.0
C47 C 0.73067 0.18337 0.02009 0.0
C48 C 0.74762 0.23083 0.05529 0.0
C49 C 0.70182 0.13035 0.0465 0.0
C50 C 0.73804 0.10827 0.37621 0.0
C51 C 0.68495 0.18901 0.42485 0.0
C52 C 0.86939 0.25843 0.50288 0.0
C53 C 0.85488 0.25345 0.56573 0.0
C54 C 0.86599 0.30126 0.59767 0.0
C55 C 0.8322 0.202 0.59504 0.0
C56 C 0.83157 0.24624 0.68658 0.0
C57 C 0.82022 0.19833 0.6546 0.0
C58 C 0.85455 0.29773 0.6573 0.0
C59 C 0.8117 0.30605 0.3297 0.0
O60 O 0.82044 0.21655 0.26122 0.0
O61 O 0.87891 0.23229 0.33904 0.0
O62 O 0.69387 0.12657 0.23136 0.0
O63 O 0.70132 0.20903 0.23379 0.0
O64 O 0.69364 0.09939 0.34836 0.0
O65 O 0.78054 0.15316 0.35979 0.0
O66 O 0.73458 0.20284 0.44652 0.0
O67 O 0.675 0.1835 0.36847 0.0
O68 O 0.86149 0.294 0.47271 0.0
O69 O 0.85602 0.21246 0.4742 0.0
O70 O 0.85874 0.31519 0.35169 0.0
O71 O 0.77171 0.2616 0.34957 0.0
H72 H 0.66575 0.08325 0.12426 0.0
H73 H 0.74795 0.26261 0.14041 0.0
H74 H 0.76947 0.27235 0.03665 0.0
H75 H 0.6891 0.09282 0.02138 0.0
H76 H 0.88403 0.34165 0.57659 0.0
H77 H 0.82445 0.16464 0.57216 0.0
H78 H 0.80333 0.15816 0.67592 0.0
H79 H 0.86347 0.33538 0.68048 0.0
Gd80 Gd 0.57201 0.75186 0.63553 0.0
Gd81 Gd 0.60363 0.82872 0.74142 0.0
C82 C 0.66202 0.88523 0.62279 0.0
C83 C 0.54561 0.70396 0.53506 0.0
C84 C 0.54783 0.72128 0.47452 0.0
C85 C 0.52903 0.68111 0.43055 0.0
C86 C 0.57049 0.77778 0.45994 0.0
C87 C 0.55686 0.75396 0.35751 0.0
C88 C 0.57484 0.79402 0.40194 0.0
C89 C 0.53352 0.69727 0.37245 0.0
C90 C 0.63964 0.74071 0.71128 0.0
C91 C 0.50444 0.69907 0.75146 0.0
C92 C 0.63402 0.87466 0.84234 0.0
C93 C 0.63003 0.85577 0.90247 0.0
C94 C 0.64577 0.89457 0.94756 0.0
C95 C 0.60848 0.79909 0.91548 0.0
C96 C 0.61691 0.81998 0.01873 0.0
C97 C 0.602 0.78129 0.97315 0.0
C98 C 0.63936 0.87689 1.00524 0.0
C99 C 0.53235 0.83654 0.66777 0.0
O100 O 0.62463 0.83829 0.59786 0.0
O101 O 0.6674 0.89017 0.67966 0.0
O102 O 0.59409 0.72091 0.55951 0.0
O103 O 0.50987 0.70845 0.56908 0.0
O104 O 0.60171 0.70015 0.6811 0.0
O105 O 0.6434 0.7866 0.69693 0.0
O106 O 0.54523 0.74266 0.77815 0.0
O107 O 0.5012 0.69593 0.69434 0.0
O108 O 0.58652 0.86274 0.81831 0.0
O109 O 0.66697 0.86628 0.80772 0.0
O110 O 0.56777 0.87795 0.69914 0.0
O111 O 0.53246 0.79253 0.6814 0.0
H112 H 0.51142 0.63728 0.44111 0.0
H113 H 0.58527 0.80938 0.49327 0.0
H114 H 0.59346 0.83803 0.39183 0.0
H115 H 0.5187 0.66541 0.33922 0.0
H116 H 0.66249 0.93852 0.93818 0.0
H117 H 0.59598 0.76855 0.88114 0.0
H118 H 0.58408 0.73713 0.98203 0.0
H119 H 0.65206 0.90783 0.03929 0.0
Gd120 Gd 0.84518 0.57664 0.96042 0.0
Gd121 Gd 0.78899 0.60255 0.06349 0.0
C122 C 0.79827 0.66495 0.94644 0.0
C123 C 0.8716 0.55525 0.85956 0.0
C124 C 0.8615 0.5637 0.79862 0.0
C125 C 0.8608 0.6121 0.78146 0.0
C126 C 0.85394 0.52375 0.75671 0.0
C127 C 0.8475 0.58161 0.68072 0.0
C128 C 0.84702 0.53257 0.69829 0.0
C129 C 0.85374 0.6209 0.7232 0.0
C130 C 0.91575 0.64412 0.04161 0.0
C131 C 0.82605 0.50707 0.07586 0.0
C132 C 0.76744 0.62762 0.16497 0.0
C133 C 0.77555 0.6164 0.22558 0.0
C134 C 0.77627 0.56756 0.24081 0.0
C135 C 0.78231 0.65483 0.26892 0.0
C136 C 0.78889 0.59506 0.34251 0.0
C137 C 0.78893 0.64432 0.32683 0.0
C138 C 0.78279 0.55693 0.29869 0.0
C139 C 0.71852 0.53293 0.98307 0.0
O140 O 0.81205 0.62992 0.92209 0.0
O141 O 0.79422 0.66817 1.00324 0.0
O142 O 0.90388 0.60047 0.8891 0.0
O143 O 0.82831 0.51844 0.8895 0.0
O144 O 0.92435 0.60979 1.01085 0.0
O145 O 0.87313 0.64552 0.02409 0.0
O146 O 0.81302 0.54217 0.10107 0.0
O147 O 0.83606 0.50814 0.01957 0.0
O148 O 0.73118 0.58465 0.1349 0.0
O149 O 0.81284 0.66063 0.13542 0.0
O150 O 0.70769 0.56581 1.01398 0.0
O151 O 0.76226 0.53414 1.00063 0.0
H152 H 0.86654 0.64358 0.81297 0.0
H153 H 0.85437 0.48612 0.76905 0.0
H154 H 0.84278 0.50167 0.66671 0.0
H155 H 0.85334 0.65864 0.71142 0.0
H156 H 0.7714 0.53741 0.20807 0.0
H157 H 0.78191 0.69278 0.25803 0.0
H158 H 0.79291 0.67428 0.35949 0.0
H159 H 0.78334 0.51897 0.30907 0.0
Gd160 Gd 0.26533 0.81821 0.30701 0.0
Gd161 Gd 0.18482 0.77208 0.4112 0.0
C162 C 0.13271 0.78123 0.29331 0.0
C163 C 0.31211 0.83253 0.20587 0.0
C164 C 0.29625 0.82815 0.14432 0.0
C165 C 0.3362 0.86358 0.10371 0.0
C166 C 0.24208 0.7897 0.12549 0.0
C167 C 0.26831 0.82265 0.02575 0.0
C168 C 0.22826 0.7869 0.0667 0.0
C169 C 0.32247 0.86088 0.04511 0.0
C170 C 0.27331 0.89661 0.38116 0.0
C171 C 0.31601 0.80756 0.4251 0.0
C172 C 0.13468 0.74863 0.51131 0.0
C173 C 0.14852 0.75493 0.57346 0.0
C174 C 0.10647 0.72277 0.61391 0.0
C175 C 0.20313 0.79075 0.59292 0.0
C176 C 0.17331 0.76164 0.69291 0.0
C177 C 0.21536 0.79437 0.65221 0.0
C178 C 0.1187 0.72596 0.67301 0.0
C179 C 0.18385 0.69646 0.33637 0.0
O180 O 0.18048 0.79137 0.26889 0.0
O181 O 0.12557 0.77842 0.35016 0.0
O182 O 0.31187 0.87292 0.23533 0.0
O183 O 0.29173 0.78583 0.23531 0.0
O184 O 0.31495 0.90073 0.35071 0.0
O185 O 0.22778 0.85378 0.36713 0.0
O186 O 0.27056 0.80312 0.45011 0.0
O187 O 0.32103 0.80626 0.36817 0.0
O188 O 0.14564 0.71432 0.48259 0.0
O189 O 0.14733 0.79412 0.4821 0.0
O190 O 0.13879 0.69116 0.36035 0.0
O191 O 0.22616 0.73939 0.35452 0.0
H192 H 0.37823 0.89342 0.11735 0.0
H193 H 0.21046 0.76202 0.15616 0.0
H194 H 0.18603 0.75731 0.0535 0.0
H195 H 0.35463 0.8884 1.01481 0.0
H196 H 0.06411 0.69475 0.59971 0.0
H197 H 0.23635 0.81541 0.56233 0.0
H198 H 0.25794 0.82182 0.66606 0.0
H199 H 0.08527 0.70068 0.70322 0.0
Gd200 Gd 0.43838 0.24145 0.66385 0.0
Gd201 Gd 0.40743 0.15696 0.76441 0.0
C202 C 0.3531 0.10677 0.6438 0.0
C203 C 0.46779 0.28672 0.56219 0.0
C204 C 0.46073 0.26563 0.50166 0.0
C205 C 0.42277 0.26999 0.46472 0.0
C206 C 0.49146 0.24126 0.47997 0.0
C207 C 0.44617 0.22605 0.38574 0.0
C208 C 0.48421 0.22166 0.4228 0.0
C209 C 0.4154 0.25028 0.40768 0.0
C210 C 0.36082 0.23795 0.73716 0.0
C211 C 0.49221 0.29126 0.78471 0.0
C212 C 0.3826 0.10795 0.86475 0.0
C213 C 0.38816 0.12503 0.92672 0.0
C214 C 0.42911 0.12353 0.96151 0.0
C215 C 0.35275 0.14237 0.95203 0.0
C216 C 0.40093 0.15887 0.04455 0.0
C217 C 0.35937 0.15951 1.01002 0.0
C218 C 0.43539 0.14017 0.0197 0.0
C219 C 0.48817 0.16701 0.69035 0.0
O220 O 0.38924 0.15647 0.62251 0.0
O221 O 0.34661 0.09693 0.70022 0.0
O222 O 0.42243 0.27892 0.58912 0.0
O223 O 0.50117 0.27855 0.5959 0.0
O224 O 0.39569 0.28235 0.70836 0.0
O225 O 0.36442 0.1959 0.72145 0.0
O226 O 0.45491 0.24212 0.80647 0.0
O227 O 0.49984 0.30043 0.72821 0.0
O228 O 0.42912 0.12144 0.83669 0.0
O229 O 0.34663 0.11399 0.83307 0.0
O230 O 0.451 0.1194 0.71223 0.0
O231 O 0.48191 0.2058 0.7103 0.0
H232 H 0.39852 0.28859 0.48002 0.0
H233 H 0.52139 0.23752 0.50698 0.0
H234 H 0.50923 0.20396 0.4074 0.0
H235 H 0.38506 0.2536 0.38093 0.0
H236 H 0.45663 0.10976 0.94359 0.0
H237 H 0.31982 0.14278 0.92715 0.0
H238 H 0.3315 0.17278 0.02803 0.0
H239 H 0.46801 0.13944 0.04493 0.0
H240 H 0.28108 0.26487 0.7213 0.0
H241 H 0.35906 0.21718 0.85283 0.0
H242 H 0.31232 0.24139 0.92889 0.0
H243 H 0.25933 0.28887 0.95706 0.0
H244 H 0.18021 0.33416 0.8234 0.0
H245 H 0.21648 0.29774 0.7494 0.0
C246 C 0.28634 0.25823 0.76666 0.0
C247 C 0.32277 0.23876 0.78172 0.0
C248 C 0.25969 0.2727 0.8098 0.0
C249 C 0.33016 0.23095 0.84041 0.0
C250 C 0.30393 0.24547 0.88385 0.0
C251 C 0.24889 0.28947 0.91192 0.0
C252 C 0.21833 0.31569 0.89583 0.0
C253 C 0.26995 0.26814 0.86905 0.0
C254 C 0.20494 0.31573 0.83704 0.0
C255 C 0.22553 0.29471 0.7945 0.0
H256 H 0.09746 0.34558 0.14133 0.0
H257 H 0.98413 0.32675 1.00443 0.0
H258 H 0.90422 0.2732 0.06897 0.0
H259 H 0.86742 0.23986 0.1659 0.0
H260 H 0.98018 0.26394 0.3062 0.0
H261 H 0.05965 0.30661 0.2387 0.0
C262 C 0.0553 0.32818 0.12543 0.0
C263 C 0.04651 0.33908 0.06815 0.0
C264 C 0.0096 0.29902 0.16355 0.0
C265 C 0.99168 0.31828 0.04832 0.0
C266 C 0.94607 0.28792 0.08524 0.0
C267 C 0.90919 0.25358 0.1819 0.0
C268 C 0.91765 0.24874 0.24128 0.0
C269 C 0.95462 0.27922 0.14327 0.0
C270 C 0.97232 0.26709 0.2608 0.0
C271 C 0.01785 0.29167 0.22222 0.0
H272 H 0.75443 0.11458 0.49206 0.0
H273 H 0.71767 0.00602 0.34488 0.0
H274 H 0.69801 0.92777 0.40908 0.0
H275 H 0.6805 0.88824 0.50689 0.0
H276 H 0.71089 0.99491 0.65505 0.0
H277 H 0.74426 0.07581 0.59121 0.0
C278 C 0.74413 0.07422 0.47433 0.0
C279 C 0.73861 0.06593 0.41412 0.0
C280 C 0.73106 0.02904 0.51174 0.0
C281 C 0.723 0.01316 0.39121 0.0
C282 C 0.71141 0.96847 0.42788 0.0
C283 C 0.6953 0.92935 0.52529 0.0
C284 C 0.69262 0.93536 0.58561 0.0
C285 C 0.71366 0.97555 0.48823 0.0
C286 C 0.71271 0.98905 0.60879 0.0
C287 C 0.73169 0.03546 0.57219 0.0
H288 H 0.67638 0.77725 0.82065 0.0
H289 H 0.69357 0.68703 0.67691 0.0
H290 H 0.75093 0.66169 0.73559 0.0
H291 H 0.78627 0.65594 0.82983 0.0
H292 H 0.76462 0.74019 0.97707 0.0
H293 H 0.71913 0.77745 0.91508 0.0
C294 C 0.69405 0.75341 0.80205 0.0
C295 C 0.68139 0.73438 0.74464 0.0
C296 C 0.72543 0.73731 0.83685 0.0
C297 C 0.70309 0.70218 0.72109 0.0
C298 C 0.73567 0.68755 0.75462 0.0
C299 C 0.77291 0.68347 0.84842 0.0
C300 C 0.77898 0.6951 0.90817 0.0
C301 C 0.74572 0.70353 0.81296 0.0
C302 C 0.76055 0.73043 0.93124 0.0
C303 C 0.73434 0.75164 0.89583 0.0
H304 H 0.13523 0.79413 0.17687 0.0
H305 H 0.02116 0.73118 0.32266 0.0
H306 H 0.94171 0.68897 0.25637 0.0
H307 H 0.90614 0.65872 0.15671 0.0
H308 H 0.02209 0.71753 1.01279 0.0
H309 H 0.0995 0.77253 0.0785 0.0
C310 C 0.09301 0.77192 0.19437 0.0
C311 C 0.08431 0.76528 0.25469 0.0
C312 C 0.04787 0.74659 0.15614 0.0
C313 C 0.02917 0.73691 0.27642 0.0
C314 C 0.98369 0.71241 0.2385 0.0
C315 C 0.94807 0.68528 0.13985 0.0
C316 C 0.95866 0.68515 0.08019 0.0
C317 C 0.99266 0.71546 0.17825 0.0
C318 C 0.01329 0.71777 0.05865 0.0
C319 C 0.05747 0.74889 0.09618 0.0
H320 H 0.35833 0.11434 0.52667 0.0
H321 H 0.28297 0.99472 0.66604 0.0
H322 H 0.2448 0.91842 0.59547 0.0
H323 H 0.24145 0.88569 0.49443 0.0
H324 H 0.32339 0.00645 0.35808 0.0
H325 H 0.35032 0.08262 0.42715 0.0
C326 C 0.33303 0.0717 0.54195 0.0
C327 C 0.32387 0.06041 0.60181 0.0
C328 C 0.31246 0.02824 0.50144 0.0
C329 C 0.29078 0.00473 0.62031 0.0
C330 C 0.26907 0.96103 0.57994 0.0
C331 C 0.26351 0.92863 0.47988 0.0
C332 C 0.27948 0.94069 0.42133 0.0
C333 C 0.28062 0.97223 0.52044 0.0
C334 C 0.31011 0.99646 0.40295 0.0
C335 C 0.32575 0.03992 0.44243 0.0
H336 H 0.19408 0.50997 0.57959 0.0
H337 H 0.1799 0.35495 0.63789 0.0
H338 H 0.1876 0.33022 0.53806 0.0
H339 H 0.19682 0.35156 0.43391 0.0
H340 H 0.21074 0.5063 0.37517 0.0
H341 H 0.20312 0.53127 0.47508 0.0
C342 C 0.19222 0.47057 0.57047 0.0
C343 C 0.18665 0.43459 0.61649 0.0
C344 C 0.19618 0.45625 0.51271 0.0
C345 C 0.1851 0.384 0.60366 0.0
C346 C 0.18908 0.36955 0.54643 0.0
C347 C 0.19867 0.39098 0.44294 0.0
C348 C 0.2043 0.42688 0.39686 0.0
C349 C 0.19465 0.40533 0.50061 0.0
C350 C 0.20567 0.47741 0.40952 0.0
C351 C 0.20169 0.49195 0.46677 0.0
H352 H 0.82336 0.26235 0.96069 0.0
H353 H 0.66158 0.11623 0.93428 0.0
H354 H 0.67884 0.12201 0.83017 0.0
H355 H 0.73935 0.16854 0.74575 0.0
H356 H 0.89959 0.31641 0.77108 0.0
H357 H 0.88281 0.31063 0.87576 0.0
C358 C 0.79155 0.23208 0.93223 0.0
C359 C 0.74141 0.18856 0.95597 0.0
C360 C 0.80132 0.23605 0.87181 0.0
C361 C 0.70112 0.14949 0.91791 0.0
C362 C 0.71073 0.15296 0.85805 0.0
C363 C 0.77073 0.19933 0.77421 0.0
C364 C 0.8207 0.24278 0.75042 0.0
C365 C 0.76072 0.19589 0.83447 0.0
C366 C 0.86052 0.28281 0.78801 0.0
C367 C 0.85107 0.27938 0.848 0.0
H368 H 0.59481 0.71686 0.26856 0.0
H369 H 0.53465 0.83062 0.30814 0.0
H370 H 0.54806 0.86109 0.20694 0.0
H371 H 0.5764 0.85503 0.10731 0.0
H372 H 0.63762 0.74206 0.06791 0.0
H373 H 0.62298 0.71066 0.16878 0.0
C374 C 0.58406 0.74788 0.25489 0.0
C375 C 0.56371 0.7714 0.29577 0.0
C376 C 0.59187 0.76518 0.1967 0.0
C377 C 0.55089 0.81227 0.27761 0.0
C378 C 0.55833 0.82954 0.21974 0.0
C379 C 0.58708 0.82394 0.12089 0.0
C380 C 0.6082 0.80104 0.08011 0.0
C381 C 0.57898 0.80642 0.17899 0.0
C382 C 0.62077 0.75997 0.09824 0.0
C383 C 0.61269 0.7422 0.15598 0.0
H384 H 0.77904 0.50814 0.59876 0.0
H385 H 0.90701 0.68016 0.62198 0.0
H386 H 0.90029 0.69936 0.52004 0.0
H387 H 0.85861 0.66746 0.42398 0.0
H388 H 0.73082 0.49551 0.4003 0.0
H389 H 0.73805 0.47593 0.50215 0.0
C390 C 0.80579 0.54972 0.58143 0.0
C391 C 0.84321 0.59267 0.61826 0.0
C392 C 0.80202 0.56048 0.52249 0.0
C393 C 0.87709 0.64648 0.59504 0.0
C394 C 0.87358 0.65746 0.53657 0.0
C395 C 0.83202 0.62579 0.44117 0.0
C396 C 0.7942 0.5831 0.40441 0.0
C397 C 0.83609 0.61486 0.49993 0.0
C398 C 0.76079 0.52907 0.42732 0.0
C399 C 0.76462 0.51788 0.48572 0.0
H400 H 0.23561 0.85384 0.75923 0.0
H401 H 0.13973 0.67406 0.76797 0.0
H402 H 0.15943 0.67689 0.87143 0.0
H403 H 0.20509 0.73033 0.95938 0.0
H404 H 0.29959 0.9103 0.95092 0.0
H405 H 0.2799 0.90737 0.84762 0.0
C406 C 0.21937 0.81529 0.78373 0.0
C407 C 0.18621 0.76385 0.75582 0.0
C408 C 0.23071 0.8172 0.84337 0.0
C409 C 0.16486 0.71428 0.78844 0.0
C410 C 0.17628 0.71583 0.84761 0.0
C411 C 0.22088 0.76896 0.93514 0.0
C412 C 0.25409 0.82043 0.9631 0.0
C413 C 0.2091 0.76706 0.8756 0.0
C414 C 0.27472 0.87 0.93055 0.0
C415 C 0.26324 0.86842 0.87141 0.0
H416 H 0.4308 0.27422 0.28931 0.0
H417 H 0.44499 0.13232 0.34371 0.0
H418 H 0.43381 0.09992 0.24349 0.0
H419 H 0.41836 0.11092 0.14012 0.0
H420 H 0.40138 0.25141 0.08691 0.0
H421 H 0.41391 0.28437 0.18694 0.0
C422 C 0.43081 0.23582 0.27953 0.0
C423 C 0.43887 0.20596 0.32441 0.0
C424 C 0.42354 0.21691 0.22184 0.0
C425 C 0.43977 0.1568 0.31025 0.0
C426 C 0.43298 0.13796 0.25287 0.0
C427 C 0.41775 0.14893 0.15039 0.0
C428 C 0.40878 0.17853 0.10591 0.0
C429 C 0.42484 0.16767 0.20825 0.0
C430 C 0.40747 0.22738 0.12023 0.0
C431 C 0.41494 0.24646 0.17745 0.0
H432 H 0.22466 0.53078 0.18567 0.0
H433 H 0.14109 0.57559 0.05683 0.0
H434 H 0.13007 0.63611 0.12737 0.0
H435 H 0.14305 0.6749 0.22703 0.0
H436 H 0.23255 0.63403 0.35207 0.0
H437 H 0.24134 0.57206 0.28205 0.0
C438 C 0.2038 0.55356 0.17291 0.0
C439 C 0.18319 0.54824 0.11625 0.0
C440 C 0.1981 0.58834 0.21332 0.0
C441 C 0.15733 0.57899 0.10019 0.0
C442 C 0.15075 0.61332 0.14058 0.0
C443 C 0.164 0.65191 0.23869 0.0
C444 C 0.18631 0.65775 0.29452 0.0
C445 C 0.17058 0.61794 0.19747 0.0
C446 C 0.21463 0.62928 0.30933 0.0
C447 C 0.2198 0.59416 0.26935 0.0
H448 H 0.69732 0.23904 0.52825 0.0
H449 H 0.57181 0.11813 0.41464 0.0
H450 H 0.49933 0.09802 0.4883 0.0
H451 H 0.47246 0.11374 0.5869 0.0
H452 H 0.59797 0.24167 0.6948 0.0
H453 H 0.67002 0.25973 0.62196 0.0
C454 C 0.65407 0.20828 0.51954 0.0
C455 C 0.63995 0.17962 0.46644 0.0
C456 C 0.61288 0.19778 0.56146 0.0
C457 C 0.58365 0.1407 0.45527 0.0
C458 C 0.54233 0.12896 0.4975 0.0
C459 C 0.51576 0.14508 0.59434 0.0
C460 C 0.5306 0.17552 0.64641 0.0
C461 C 0.55658 0.15681 0.5511 0.0
C462 C 0.58616 0.21736 0.65522 0.0
C463 C 0.62718 0.22779 0.61358 0.0
H464 H 0.28959 0.50468 0.87266 0.0
H465 H 0.40346 0.54863 1.01515 0.0
H466 H 0.4789 0.62105 0.95571 0.0
H467 H 0.51147 0.67222 0.86327 0.0
H468 H 0.39808 0.62411 0.71884 0.0
H469 H 0.32313 0.5526 0.77861 0.0
C470 C 0.33072 0.53061 0.89052 0.0
C471 C 0.341 0.52255 0.94807 0.0
C472 C 0.37381 0.57097 0.85565 0.0
C473 C 0.39487 0.55477 0.97082 0.0
C474 C 0.43781 0.596 0.93691 0.0
C475 C 0.47037 0.64609 0.8449 0.0
C476 C 0.46024 0.65373 0.78684 0.0
C477 C 0.42768 0.60458 0.87928 0.0
C478 C 0.407 0.61896 0.76337 0.0
C479 C 0.36404 0.57822 0.79756 0.0
H480 H 0.88157 0.35766 0.23839 0.0
H481 H 0.72723 0.32785 0.31837 0.0
H482 H 0.71698 0.38596 0.24502 0.0
H483 H 0.75371 0.44792 0.16072 0.0
H484 H 0.90406 0.47324 0.0752 0.0
H485 H 0.91366 0.41298 0.14715 0.0
C486 C 0.84588 0.36418 0.23954 0.0
C487 C 0.80574 0.33982 0.28411 0.0
C488 C 0.83939 0.39618 0.19607 0.0
C489 C 0.75879 0.34688 0.28463 0.0
C490 C 0.75291 0.37992 0.24275 0.0
C491 C 0.78842 0.43996 0.15776 0.0
C492 C 0.82854 0.4653 0.11347 0.0
C493 C 0.79318 0.40516 0.19868 0.0
C494 C 0.87269 0.45393 0.10906 0.0
C495 C 0.87835 0.41991 0.15037 0.0
H496 H 0.34193 0.85106 0.53348 0.0
H497 H 0.39226 0.77525 0.3998 0.0
H498 H 0.4639 0.77772 0.46341 0.0
H499 H 0.51083 0.79965 0.55807 0.0
H500 H 0.46465 0.87979 0.68979 0.0
H501 H 0.39301 0.87825 0.62593 0.0
C502 C 0.36869 0.83518 0.51833 0.0
C503 C 0.36155 0.8125 0.46231 0.0
C504 C 0.41043 0.83763 0.55478 0.0
C505 C 0.39706 0.79297 0.44275 0.0
C506 C 0.43793 0.79424 0.47913 0.0
C507 C 0.48463 0.81616 0.57266 0.0
C508 C 0.49172 0.83856 0.62851 0.0
C509 C 0.44461 0.81598 0.53536 0.0
C510 C 0.45935 0.86205 0.6468 0.0
C511 C 0.41848 0.86104 0.61043 0.0
H512 H 0.61072 0.45291 0.99518 0.0
H513 H 0.74417 0.53049 0.86964 0.0
H514 H 0.68503 0.46436 0.79537 0.0
H515 H 0.59607 0.38137 0.76757 0.0
H516 H 0.46395 0.30185 0.89509 0.0
H517 H 0.52113 0.37178 0.96678 0.0
C518 C 0.62648 0.45523 0.9514 0.0
C519 C 0.68183 0.49527 0.93785 0.0
C520 C 0.59232 0.41672 0.90931 0.0
C521 C 0.70218 0.49855 0.88124 0.0
C522 C 0.66817 0.46115 0.83871 0.0
C523 C 0.57969 0.3798 0.81087 0.0
C524 C 0.52598 0.33645 0.82601 0.0
C525 C 0.61335 0.4195 0.85245 0.0
C526 C 0.50539 0.33458 0.88245 0.0
C527 C 0.53801 0.37458 0.92353 0.0
loop_
_geom_bond_atom_site_label_1
_geom_bond_atom_site_label_2
_geom_bond_distance
_geom_bond_site_symmetry_2
_ccdc_geom_bond_type
Gd0 C3 2.818 . S
Gd0 O20 2.377 . S
Gd0 O22 2.448 . S
Gd0 O23 2.506 . S
Gd0 O24 2.435 . S
Gd0 O25 2.717 1_556 S
Gd0 O27 2.395 1_556 S
Gd0 O31 2.327 . S
Gd1 C12 2.818 . S
Gd1 O21 2.395 1_554 S
Gd1 O25 2.327 . S
Gd1 O26 2.377 . S
Gd1 O28 2.448 . S
Gd1 O29 2.506 . S
Gd1 O30 2.435 . S
Gd1 O31 2.717 1_554 S
C2 O20 1.240 . S
C2 O21 1.240 . S
C3 Gd0 2.818 . S
C3 C4 1.510 . S
C3 O22 1.249 . S
C3 O23 1.252 . S
C4 C3 1.510 . S
C4 C5 1.404 . S
C4 C6 1.352 . S
C5 C4 1.404 . S
C5 C9 1.389 . S
C5 H32 0.930 . S
C6 C4 1.352 . S
C6 C8 1.374 . S
C6 H33 0.931 . S
C7 C8 1.359 . S
C7 C9 1.364 . S
C8 C6 1.374 . S
C8 C7 1.359 . S
C8 H34 0.931 . S
C9 C5 1.389 . S
C9 C7 1.364 . S
C9 H35 0.931 . S
C10 O24 1.256 1_554 S
C10 O25 1.257 . S
C11 O26 1.240 . S
C11 O27 1.240 . S
C12 Gd1 2.818 . S
C12 C13 1.510 . S
C12 O28 1.249 . S
C12 O29 1.252 . S
C13 C12 1.510 . S
C13 C14 1.404 . S
C13 C15 1.352 . S
C14 C13 1.404 . S
C14 C18 1.389 . S
C14 H36 0.930 . S
C15 C13 1.352 . S
C15 C17 1.374 . S
C15 H37 0.931 . S
C16 C17 1.359 . S
C16 C18 1.364 . S
C17 C15 1.374 . S
C17 C16 1.359 . S
C17 H38 0.931 . S
C18 C14 1.389 . S
C18 C16 1.364 . S
C18 H39 0.931 . S
C19 O30 1.256 1_556 S
C19 O31 1.257 . S
O20 Gd0 2.377 . S
O20 C2 1.240 . S
O21 Gd1 2.395 1_556 S
O21 C2 1.240 . S
O22 Gd0 2.448 . S
O22 C3 1.249 . S
O23 Gd0 2.506 . S
O23 C3 1.252 . S
O24 Gd0 2.435 . S
O24 C10 1.256 1_556 S
O25 Gd0 2.717 1_554 S
O25 Gd1 2.327 . S
O25 C10 1.257 . S
O26 Gd1 2.377 . S
O26 C11 1.240 . S
O27 Gd0 2.395 1_554 S
O27 C11 1.240 . S
O28 Gd1 2.448 . S
O28 C12 1.249 . S
O29 Gd1 2.506 . S
O29 C12 1.252 . S
O30 Gd1 2.435 . S
O30 C19 1.256 1_554 S
O31 Gd0 2.327 . S
O31 Gd1 2.717 1_556 S
O31 C19 1.257 . S
H32 C5 0.930 . S
H33 C6 0.931 . S
H34 C8 0.931 . S
H35 C9 0.931 . S
H36 C14 0.930 . S
H37 C15 0.931 . S
H38 C17 0.931 . S
H39 C18 0.931 . S
Gd40 C43 2.818 . S
Gd40 O60 2.377 . S
Gd40 O62 2.448 . S
Gd40 O63 2.506 . S
Gd40 O64 2.435 . S
Gd40 O65 2.717 . S
Gd40 O67 2.395 . S
Gd40 O71 2.327 . S
Gd41 C52 2.818 . S
Gd41 O61 2.395 . S
Gd41 O65 2.327 . S
Gd41 O66 2.377 . S
Gd41 O68 2.448 . S
Gd41 O69 2.506 . S
Gd41 O70 2.435 . S
Gd41 O71 2.717 . S
C42 O60 1.240 . S
C42 O61 1.240 . S
C43 Gd40 2.818 . S
C43 C44 1.510 . S
C43 O62 1.249 . S
C43 O63 1.252 . S
C44 C43 1.510 . S
C44 C45 1.404 . S
C44 C46 1.352 . S
C45 C44 1.404 . S
C45 C49 1.389 . S
C45 H72 0.930 . S
C46 C44 1.352 . S
C46 C48 1.374 . S
C46 H73 0.931 . S
C47 C48 1.359 1_556 S
C47 C49 1.364 1_556 S
C48 C46 1.374 . S
C48 C47 1.359 1_554 S
C48 H74 0.931 1_554 S
C49 C45 1.389 . S
C49 C47 1.364 1_554 S
C49 H75 0.931 . S
C50 O64 1.256 . S
C50 O65 1.257 . S
C51 O66 1.240 . S
C51 O67 1.240 . S
C52 Gd41 2.818 . S
C52 C53 1.510 . S
C52 O68 1.249 . S
C52 O69 1.252 . S
C53 C52 1.510 . S
C53 C54 1.404 . S
C53 C55 1.352 . S
C54 C53 1.404 . S
C54 C58 1.389 . S
C54 H76 0.930 . S
C55 C53 1.352 . S
C55 C57 1.374 . S
C55 H77 0.931 . S
C56 C57 1.359 . S
C56 C58 1.364 . S
C57 C55 1.374 . S
C57 C56 1.359 . S
C57 H78 0.931 . S
C58 C54 1.389 . S
C58 C56 1.364 . S
C58 H79 0.931 . S
C59 O70 1.256 . S
C59 O71 1.257 . S
O60 Gd40 2.377 . S
O60 C42 1.240 . S
O61 Gd41 2.395 . S
O61 C42 1.240 . S
O62 Gd40 2.448 . S
O62 C43 1.249 . S
O63 Gd40 2.506 . S
O63 C43 1.252 . S
O64 Gd40 2.435 . S
O64 C50 1.256 . S
O65 Gd40 2.717 . S
O65 Gd41 2.327 . S
O65 C50 1.257 . S
O66 Gd41 2.377 . S
O66 C51 1.240 . S
O67 Gd40 2.395 . S
O67 C51 1.240 . S
O68 Gd41 2.448 . S
O68 C52 1.249 . S
O69 Gd41 2.506 . S
O69 C52 1.252 . S
O70 Gd41 2.435 . S
O70 C59 1.256 . S
O71 Gd40 2.327 . S
O71 Gd41 2.717 . S
O71 C59 1.257 . S
H72 C45 0.930 . S
H73 C46 0.931 . S
H74 C48 0.931 1_556 S
H75 C49 0.931 . S
H76 C54 0.930 . S
H77 C55 0.931 . S
H78 C57 0.931 . S
H79 C58 0.931 . S
Gd80 C83 2.818 . S
Gd80 O100 2.377 . S
Gd80 O102 2.448 . S
Gd80 O103 2.506 . S
Gd80 O104 2.435 . S
Gd80 O105 2.717 . S
Gd80 O107 2.395 . S
Gd80 O111 2.327 . S
Gd81 C92 2.818 . S
Gd81 O101 2.395 . S
Gd81 O105 2.327 . S
Gd81 O106 2.377 . S
Gd81 O108 2.448 . S
Gd81 O109 2.506 . S
Gd81 O110 2.435 . S
Gd81 O111 2.717 . S
C82 O100 1.240 . S
C82 O101 1.240 . S
C83 Gd80 2.818 . S
C83 C84 1.510 . S
C83 O102 1.249 . S
C83 O103 1.252 . S
C84 C83 1.510 . S
C84 C85 1.404 . S
C84 C86 1.352 . S
C85 C84 1.404 . S
C85 C89 1.389 . S
C85 H112 0.930 . S
C86 C84 1.352 . S
C86 C88 1.374 . S
C86 H113 0.931 . S
C87 C88 1.359 . S
C87 C89 1.364 . S
C88 C86 1.374 . S
C88 C87 1.359 . S
C88 H114 0.931 . S
C89 C85 1.389 . S
C89 C87 1.364 . S
C89 H115 0.931 . S
C90 O104 1.256 . S
C90 O105 1.257 . S
C91 O106 1.240 . S
C91 O107 1.240 . S
C92 Gd81 2.818 . S
C92 C93 1.510 . S
C92 O108 1.249 . S
C92 O109 1.252 . S
C93 C92 1.510 . S
C93 C94 1.404 . S
C93 C95 1.352 . S
C94 C93 1.404 . S
C94 C98 1.389 . S
C94 H116 0.930 . S
C95 C93 1.352 . S
C95 C97 1.361 1_556 S
C95 H117 0.931 . S
C96 C97 1.363 . S
C96 C98 1.364 1_554 S
C97 C95 1.361 1_554 S
C97 C96 1.363 . S
C97 H118 0.939 . S
C98 C94 1.389 . S
C98 C96 1.364 1_556 S
C98 H119 0.931 1_556 S
C99 O110 1.256 . S
C99 O111 1.257 . S
O100 Gd80 2.377 . S
O100 C82 1.240 . S
O101 Gd81 2.395 . S
O101 C82 1.240 . S
O102 Gd80 2.448 . S
O102 C83 1.249 . S
O103 Gd80 2.506 . S
O103 C83 1.252 . S
O104 Gd80 2.435 . S
O104 C90 1.256 . S
O105 Gd80 2.717 . S
O105 Gd81 2.327 . S
O105 C90 1.257 . S
O106 Gd81 2.377 . S
O106 C91 1.240 . S
O107 Gd80 2.395 . S
O107 C91 1.240 . S
O108 Gd81 2.448 . S
O108 C92 1.249 . S
O109 Gd81 2.506 . S
O109 C92 1.252 . S
O110 Gd81 2.435 . S
O110 C99 1.256 . S
O111 Gd80 2.327 . S
O111 Gd81 2.717 . S
O111 C99 1.257 . S
H112 C85 0.930 . S
H113 C86 0.931 . S
H114 C88 0.931 . S
H115 C89 0.931 . S
H116 C94 0.930 . S
H117 C95 0.931 . S
H118 C97 0.939 . S
H119 C98 0.931 1_554 S
Gd120 C123 2.818 . S
Gd120 O140 2.377 . S
Gd120 O142 2.448 . S
Gd120 O143 2.506 . S
Gd120 O144 2.435 . S
Gd120 O145 2.717 1_556 S
Gd120 O147 2.395 1_556 S
Gd120 O151 2.327 . S
Gd121 C132 2.818 . S
Gd121 O141 2.395 1_554 S
Gd121 O145 2.327 . S
Gd121 O146 2.377 . S
Gd121 O148 2.448 . S
Gd121 O149 2.506 . S
Gd121 O150 2.435 . S
Gd121 O151 2.717 1_554 S
C122 O140 1.240 . S
C122 O141 1.240 . S
C123 Gd120 2.818 . S
C123 C124 1.510 . S
C123 O142 1.249 . S
C123 O143 1.252 . S
C124 C123 1.510 . S
C124 C125 1.404 . S
C124 C126 1.352 . S
C125 C124 1.404 . S
C125 C129 1.389 . S
C125 H152 0.930 . S
C126 C124 1.352 . S
C126 C128 1.374 . S
C126 H153 0.931 . S
C127 C128 1.359 . S
C127 C129 1.364 . S
C128 C126 1.374 . S
C128 C127 1.359 . S
C128 H154 0.931 . S
C129 C125 1.389 . S
C129 C127 1.364 . S
C129 H155 0.931 . S
C130 O144 1.256 1_554 S
C130 O145 1.257 . S
C131 O146 1.240 . S
C131 O147 1.240 . S
C132 Gd121 2.818 . S
C132 C133 1.510 . S
C132 O148 1.249 . S
C132 O149 1.252 . S
C133 C132 1.510 . S
C133 C134 1.404 . S
C133 C135 1.352 . S
C134 C133 1.404 . S
C134 C138 1.389 . S
C134 H156 0.930 . S
C135 C133 1.352 . S
C135 C137 1.374 . S
C135 H157 0.931 . S
C136 C137 1.359 . S
C136 C138 1.364 . S
C137 C135 1.374 . S
C137 C136 1.359 . S
C137 H158 0.931 . S
C138 C134 1.389 . S
C138 C136 1.364 . S
C138 H159 0.931 . S
C139 O150 1.256 1_556 S
C139 O151 1.257 . S
O140 Gd120 2.377 . S
O140 C122 1.240 . S
O141 Gd121 2.395 1_556 S
O141 C122 1.240 . S
O142 Gd120 2.448 . S
O142 C123 1.249 . S
O143 Gd120 2.506 . S
O143 C123 1.252 . S
O144 Gd120 2.435 . S
O144 C130 1.256 1_556 S
O145 Gd120 2.717 1_554 S
O145 Gd121 2.327 . S
O145 C130 1.257 . S
O146 Gd121 2.377 . S
O146 C131 1.240 . S
O147 Gd120 2.395 1_554 S
O147 C131 1.240 . S
O148 Gd121 2.448 . S
O148 C132 1.249 . S
O149 Gd121 2.506 . S
O149 C132 1.252 . S
O150 Gd121 2.435 . S
O150 C139 1.256 1_554 S
O151 Gd120 2.327 . S
O151 Gd121 2.717 1_556 S
O151 C139 1.257 . S
H152 C125 0.930 . S
H153 C126 0.931 . S
H154 C128 0.931 . S
H155 C129 0.931 . S
H156 C134 0.930 . S
H157 C135 0.931 . S
H158 C137 0.931 . S
H159 C138 0.931 . S
Gd160 C163 2.818 . S
Gd160 O180 2.377 . S
Gd160 O182 2.448 . S
Gd160 O183 2.506 . S
Gd160 O184 2.435 . S
Gd160 O185 2.717 . S
Gd160 O187 2.395 . S
Gd160 O191 2.327 . S
Gd161 C172 2.818 . S
Gd161 O181 2.395 . S
Gd161 O185 2.327 . S
Gd161 O186 2.377 . S
Gd161 O188 2.448 . S
Gd161 O189 2.506 . S
Gd161 O190 2.435 . S
Gd161 O191 2.717 . S
C162 O180 1.240 . S
C162 O181 1.240 . S
C163 Gd160 2.818 . S
C163 C164 1.510 . S
C163 O182 1.249 . S
C163 O183 1.252 . S
C164 C163 1.510 . S
C164 C165 1.404 . S
C164 C166 1.352 . S
C165 C164 1.404 . S
C165 C169 1.389 . S
C165 H192 0.930 . S
C166 C164 1.352 . S
C166 C168 1.374 . S
C166 H193 0.931 . S
C167 C168 1.359 1_556 S
C167 C169 1.364 1_556 S
C168 C166 1.374 . S
C168 C167 1.359 1_554 S
C168 H194 0.931 1_554 S
C169 C165 1.389 . S
C169 C167 1.364 1_554 S
C169 H195 0.931 . S
C170 O184 1.256 . S
C170 O185 1.257 . S
C171 O186 1.240 . S
C171 O187 1.240 . S
C172 Gd161 2.818 . S
C172 C173 1.510 . S
C172 O188 1.249 . S
C172 O189 1.252 . S
C173 C172 1.510 . S
C173 C174 1.404 . S
C173 C175 1.352 . S
C174 C173 1.404 . S
C174 C178 1.389 . S
C174 H196 0.930 . S
C175 C173 1.352 . S
C175 C177 1.374 . S
C175 H197 0.931 . S
C176 C177 1.359 . S
C176 C178 1.364 . S
C177 C175 1.374 . S
C177 C176 1.359 . S
C177 H198 0.931 . S
C178 C174 1.389 . S
C178 C176 1.364 . S
C178 H199 0.931 . S
C179 O190 1.256 . S
C179 O191 1.257 . S
O180 Gd160 2.377 . S
O180 C162 1.240 . S
O181 Gd161 2.395 . S
O181 C162 1.240 . S
O182 Gd160 2.448 . S
O182 C163 1.249 . S
O183 Gd160 2.506 . S
O183 C163 1.252 . S
O184 Gd160 2.435 . S
O184 C170 1.256 . S
O185 Gd160 2.717 . S
O185 Gd161 2.327 . S
O185 C170 1.257 . S
O186 Gd161 2.377 . S
O186 C171 1.240 . S
O187 Gd160 2.395 . S
O187 C171 1.240 . S
O188 Gd161 2.448 . S
O188 C172 1.249 . S
O189 Gd161 2.506 . S
O189 C172 1.252 . S
O190 Gd161 2.435 . S
O190 C179 1.256 . S
O191 Gd160 2.327 . S
O191 Gd161 2.717 . S
O191 C179 1.257 . S
H192 C165 0.930 . S
H193 C166 0.931 . S
H194 C168 0.931 1_556 S
H195 C169 0.931 . S
H196 C174 0.930 . S
H197 C175 0.931 . S
H198 C177 0.931 . S
H199 C178 0.931 . S
Gd200 C203 2.818 . S
Gd200 O220 2.377 . S
Gd200 O222 2.448 . S
Gd200 O223 2.506 . S
Gd200 O224 2.435 . S
Gd200 O225 2.717 . S
Gd200 O227 2.395 . S
Gd200 O231 2.327 . S
Gd201 C212 2.818 . S
Gd201 O221 2.395 . S
Gd201 O225 2.327 . S
Gd201 O226 2.377 . S
Gd201 O228 2.448 . S
Gd201 O229 2.506 . S
Gd201 O230 2.435 . S
Gd201 O231 2.717 . S
C202 O220 1.240 . S
C202 O221 1.240 . S
C203 Gd200 2.818 . S
C203 C204 1.510 . S
C203 O222 1.249 . S
C203 O223 1.252 . S
C204 C203 1.510 . S
C204 C205 1.404 . S
C204 C206 1.352 . S
C205 C204 1.404 . S
C205 C209 1.389 . S
C205 H232 0.930 . S
C206 C204 1.352 . S
C206 C208 1.374 . S
C206 H233 0.931 . S
C207 C208 1.359 . S
C207 C209 1.364 . S
C208 C206 1.374 . S
C208 C207 1.359 . S
C208 H234 0.931 . S
C209 C205 1.389 . S
C209 C207 1.364 . S
C209 H235 0.931 . S
C210 O224 1.256 . S
C210 O225 1.257 . S
C211 O226 1.240 . S
C211 O227 1.240 . S
C212 Gd201 2.818 . S
C212 C213 1.510 . S
C212 O228 1.249 . S
C212 O229 1.252 . S
C213 C212 1.510 . S
C213 C214 1.404 . S
C213 C215 1.352 . S
C214 C213 1.404 . S
C214 C218 1.389 . S
C214 H236 0.930 . S
C215 C213 1.352 . S
C215 C217 1.361 1_556 S
C215 H237 0.931 . S
C216 C217 1.364 . S
C216 C218 1.364 1_554 S
C217 C215 1.361 1_554 S
C217 C216 1.364 . S
C217 H238 0.939 . S
C218 C214 1.389 . S
C218 C216 1.364 1_556 S
C218 H239 0.931 1_556 S
C219 O230 1.256 . S
C219 O231 1.257 . S
O220 Gd200 2.377 . S
O220 C202 1.240 . S
O221 Gd201 2.395 . S
O221 C202 1.240 . S
O222 Gd200 2.448 . S
O222 C203 1.249 . S
O223 Gd200 2.506 . S
O223 C203 1.252 . S
O224 Gd200 2.435 . S
O224 C210 1.256 . S
O225 Gd200 2.717 . S
O225 Gd201 2.327 . S
O225 C210 1.257 . S
O226 Gd201 2.377 . S
O226 C211 1.240 . S
O227 Gd200 2.395 . S
O227 C211 1.240 . S
O228 Gd201 2.448 . S
O228 C212 1.249 . S
O229 Gd201 2.506 . S
O229 C212 1.252 . S
O230 Gd201 2.435 . S
O230 C219 1.256 . S
O231 Gd200 2.327 . S
O231 Gd201 2.717 . S
O231 C219 1.257 . S
H232 C205 0.930 . S
H233 C206 0.931 . S
H234 C208 0.931 . S
H235 C209 0.931 . S
H236 C214 0.930 . S
H237 C215 0.931 . S
H238 C217 0.939 . S
H239 C218 0.931 1_554 S
H240 C246 0.930 . S
H241 C249 0.930 . S
H242 C250 0.930 . S
H243 C251 0.930 . S
H244 C254 0.930 . S
H245 C255 0.930 . S
C246 H240 0.930 . S
C246 C247 1.355 . S
C246 C248 1.415 . S
C247 C246 1.355 . S
C247 C249 1.419 . S
C248 C246 1.415 . S
C248 C253 1.425 . S
C248 C255 1.409 . S
C249 H241 0.930 . S
C249 C247 1.419 . S
C249 C250 1.362 . S
C250 H242 0.930 . S
C250 C249 1.362 . S
C250 C253 1.409 . S
C251 H243 0.930 . S
C251 C252 1.355 . S
C251 C253 1.415 . S
C252 C251 1.355 . S
C252 C254 1.419 . S
C253 C248 1.425 . S
C253 C250 1.409 . S
C253 C251 1.415 . S
C254 H244 0.930 . S
C254 C252 1.419 . S
C254 C255 1.362 . S
C255 H245 0.930 . S
C255 C248 1.409 . S
C255 C254 1.362 . S
H256 C262 0.930 . S
H257 C265 0.930 . S
H258 C266 0.930 . S
H259 C267 0.930 . S
H260 C270 0.930 . S
H261 C271 0.930 . S
C262 H256 0.930 . S
C262 C263 1.355 . S
C262 C264 1.415 . S
C263 C262 1.355 . S
C263 C265 1.419 . S
C264 C262 1.415 . S
C264 C269 1.425 1_455 S
C264 C271 1.409 . S
C265 H257 0.930 . S
C265 C263 1.419 . S
C265 C266 1.362 1_455 S
C266 H258 0.930 . S
C266 C265 1.362 1_655 S
C266 C269 1.409 . S
C267 H259 0.930 . S
C267 C268 1.355 . S
C267 C269 1.415 . S
C268 C267 1.355 . S
C268 C270 1.419 . S
C269 C264 1.425 1_655 S
C269 C266 1.409 . S
C269 C267 1.415 . S
C270 H260 0.930 . S
C270 C268 1.419 . S
C270 C271 1.362 1_655 S
C271 H261 0.930 . S
C271 C264 1.409 . S
C271 C270 1.362 1_455 S
H272 C278 0.930 . S
H273 C281 0.930 . S
H274 C282 0.930 . S
H275 C283 0.930 . S
H276 C286 0.930 . S
H277 C287 0.930 . S
C278 H272 0.930 . S
C278 C279 1.355 . S
C278 C280 1.415 . S
C279 C278 1.355 . S
C279 C281 1.419 . S
C280 C278 1.415 . S
C280 C285 1.425 1_545 S
C280 C287 1.409 . S
C281 H273 0.930 . S
C281 C279 1.419 . S
C281 C282 1.362 1_545 S
C282 H274 0.930 . S
C282 C281 1.362 1_565 S
C282 C285 1.409 . S
C283 H275 0.930 . S
C283 C284 1.355 . S
C283 C285 1.415 . S
C284 C283 1.355 . S
C284 C286 1.419 . S
C285 C280 1.425 1_565 S
C285 C282 1.409 . S
C285 C283 1.415 . S
C286 H276 0.930 . S
C286 C284 1.419 . S
C286 C287 1.362 1_565 S
C287 H277 0.930 . S
C287 C280 1.409 . S
C287 C286 1.362 1_545 S
H288 C294 0.930 . S
H289 C297 0.930 . S
H290 C298 0.930 . S
H291 C299 0.930 . S
H292 C302 0.930 . S
H293 C303 0.930 . S
C294 H288 0.930 . S
C294 C295 1.355 . S
C294 C296 1.415 . S
C295 C294 1.355 . S
C295 C297 1.419 . S
C296 C294 1.415 . S
C296 C301 1.425 . S
C296 C303 1.409 . S
C297 H289 0.930 . S
C297 C295 1.419 . S
C297 C298 1.362 . S
C298 H290 0.930 . S
C298 C297 1.362 . S
C298 C301 1.409 . S
C299 H291 0.930 . S
C299 C300 1.355 . S
C299 C301 1.415 . S
C300 C299 1.355 . S
C300 C302 1.419 . S
C301 C296 1.425 . S
C301 C298 1.409 . S
C301 C299 1.415 . S
C302 H292 0.930 . S
C302 C300 1.419 . S
C302 C303 1.362 . S
C303 H293 0.930 . S
C303 C296 1.409 . S
C303 C302 1.362 . S
H304 C310 0.930 . S
H305 C313 0.930 . S
H306 C314 0.930 . S
H307 C315 0.930 . S
H308 C318 0.930 . S
H309 C319 0.930 . S
C310 H304 0.930 . S
C310 C311 1.355 . S
C310 C312 1.415 . S
C311 C310 1.355 . S
C311 C313 1.419 . S
C312 C310 1.415 . S
C312 C317 1.425 1_455 S
C312 C319 1.409 . S
C313 H305 0.930 . S
C313 C311 1.419 . S
C313 C314 1.362 1_455 S
C314 H306 0.930 . S
C314 C313 1.362 1_655 S
C314 C317 1.409 . S
C315 H307 0.930 . S
C315 C316 1.355 . S
C315 C317 1.415 . S
C316 C315 1.355 . S
C316 C318 1.419 . S
C317 C312 1.425 1_655 S
C317 C314 1.409 . S
C317 C315 1.415 . S
C318 H308 0.930 . S
C318 C316 1.419 . S
C318 C319 1.362 1_655 S
C319 H309 0.930 . S
C319 C312 1.409 . S
C319 C318 1.362 1_455 S
H320 C326 0.930 . S
H321 C329 0.930 . S
H322 C330 0.930 . S
H323 C331 0.930 . S
H324 C334 0.930 . S
H325 C335 0.930 . S
C326 H320 0.930 . S
C326 C327 1.355 . S
C326 C328 1.415 . S
C327 C326 1.355 . S
C327 C329 1.419 . S
C328 C326 1.415 . S
C328 C333 1.425 1_545 S
C328 C335 1.409 1_545 S
C329 H321 0.930 . S
C329 C327 1.419 . S
C329 C330 1.362 . S
C330 H322 0.930 . S
C330 C329 1.362 . S
C330 C333 1.409 1_545 S
C331 H323 0.930 . S
C331 C332 1.355 . S
C331 C333 1.415 . S
C332 C331 1.355 . S
C332 C334 1.419 . S
C333 C328 1.425 1_565 S
C333 C330 1.409 1_565 S
C333 C331 1.415 . S
C334 H324 0.930 . S
C334 C332 1.419 . S
C334 C335 1.362 . S
C335 H325 0.930 . S
C335 C328 1.409 1_565 S
C335 C334 1.362 . S
H336 C342 0.930 . S
H337 C345 0.930 . S
H338 C346 0.930 . S
H339 C347 0.930 . S
H340 C350 0.930 . S
H341 C351 0.930 . S
C342 H336 0.930 . S
C342 C343 1.355 . S
C342 C344 1.415 . S
C343 C342 1.355 . S
C343 C345 1.419 . S
C344 C342 1.415 . S
C344 C349 1.425 . S
C344 C351 1.409 . S
C345 H337 0.930 . S
C345 C343 1.419 . S
C345 C346 1.362 . S
C346 H338 0.930 . S
C346 C345 1.362 . S
C346 C349 1.409 . S
C347 H339 0.930 . S
C347 C348 1.355 . S
C347 C349 1.415 . S
C348 C347 1.355 . S
C348 C350 1.419 . S
C349 C344 1.425 . S
C349 C346 1.409 . S
C349 C347 1.415 . S
C350 H340 0.930 . S
C350 C348 1.419 . S
C350 C351 1.362 . S
C351 H341 0.930 . S
C351 C344 1.409 . S
C351 C350 1.362 . S
H352 C358 0.930 . S
H353 C361 0.930 . S
H354 C362 0.930 . S
H355 C363 0.930 . S
H356 C366 0.930 . S
H357 C367 0.930 . S
C358 H352 0.930 . S
C358 C359 1.355 . S
C358 C360 1.415 . S
C359 C358 1.355 . S
C359 C361 1.419 . S
C360 C358 1.415 . S
C360 C365 1.425 . S
C360 C367 1.409 . S
C361 H353 0.930 . S
C361 C359 1.419 . S
C361 C362 1.362 . S
C362 H354 0.930 . S
C362 C361 1.362 . S
C362 C365 1.409 . S
C363 H355 0.930 . S
C363 C364 1.355 . S
C363 C365 1.415 . S
C364 C363 1.355 . S
C364 C366 1.419 . S
C365 C360 1.425 . S
C365 C362 1.409 . S
C365 C363 1.415 . S
C366 H356 0.930 . S
C366 C364 1.419 . S
C366 C367 1.362 . S
C367 H357 0.930 . S
C367 C360 1.409 . S
C367 C366 1.362 . S
H368 C374 0.930 . S
H369 C377 0.930 . S
H370 C378 0.930 . S
H371 C379 0.930 . S
H372 C382 0.930 . S
H373 C383 0.930 . S
C374 H368 0.930 . S
C374 C375 1.355 . S
C374 C376 1.415 . S
C375 C374 1.355 . S
C375 C377 1.419 . S
C376 C374 1.415 . S
C376 C381 1.425 . S
C376 C383 1.409 . S
C377 H369 0.930 . S
C377 C375 1.419 . S
C377 C378 1.362 . S
C378 H370 0.930 . S
C378 C377 1.362 . S
C378 C381 1.409 . S
C379 H371 0.930 . S
C379 C380 1.355 . S
C379 C381 1.415 . S
C380 C379 1.355 . S
C380 C382 1.419 . S
C381 C376 1.425 . S
C381 C378 1.409 . S
C381 C379 1.415 . S
C382 H372 0.930 . S
C382 C380 1.419 . S
C382 C383 1.362 . S
C383 H373 0.930 . S
C383 C376 1.409 . S
C383 C382 1.362 . S
H384 C390 0.930 . S
H385 C393 0.930 . S
H386 C394 0.930 . S
H387 C395 0.930 . S
H388 C398 0.930 . S
H389 C399 0.930 . S
C390 H384 0.930 . S
C390 C391 1.355 . S
C390 C392 1.415 . S
C391 C390 1.355 . S
C391 C393 1.419 . S
C392 C390 1.415 . S
C392 C397 1.425 . S
C392 C399 1.409 . S
C393 H385 0.930 . S
C393 C391 1.419 . S
C393 C394 1.362 . S
C394 H386 0.930 . S
C394 C393 1.362 . S
C394 C397 1.409 . S
C395 H387 0.930 . S
C395 C396 1.355 . S
C395 C397 1.415 . S
C396 C395 1.355 . S
C396 C398 1.419 . S
C397 C392 1.425 . S
C397 C394 1.409 . S
C397 C395 1.415 . S
C398 H388 0.930 . S
C398 C396 1.419 . S
C398 C399 1.362 . S
C399 H389 0.930 . S
C399 C392 1.409 . S
C399 C398 1.362 . S
H400 C406 0.930 . S
H401 C409 0.930 . S
H402 C410 0.930 . S
H403 C411 0.930 . S
H404 C414 0.930 . S
H405 C415 0.930 . S
C406 H400 0.930 . S
C406 C407 1.355 . S
C406 C408 1.415 . S
C407 C406 1.355 . S
C407 C409 1.419 . S
C408 C406 1.415 . S
C408 C413 1.425 . S
C408 C415 1.409 . S
C409 H401 0.930 . S
C409 C407 1.419 . S
C409 C410 1.362 . S
C410 H402 0.930 . S
C410 C409 1.362 . S
C410 C413 1.409 . S
C411 H403 0.930 . S
C411 C412 1.355 . S
C411 C413 1.415 . S
C412 C411 1.355 . S
C412 C414 1.419 . S
C413 C408 1.425 . S
C413 C410 1.409 . S
C413 C411 1.415 . S
C414 H404 0.930 . S
C414 C412 1.419 . S
C414 C415 1.362 . S
C415 H405 0.930 . S
C415 C408 1.409 . S
C415 C414 1.362 . S
H416 C422 0.930 . S
H417 C425 0.930 . S
H418 C426 0.930 . S
H419 C427 0.930 . S
H420 C430 0.930 . S
H421 C431 0.930 . S
C422 H416 0.930 . S
C422 C423 1.355 . S
C422 C424 1.415 . S
C423 C422 1.355 . S
C423 C425 1.419 . S
C424 C422 1.415 . S
C424 C429 1.425 . S
C424 C431 1.409 . S
C425 H417 0.930 . S
C425 C423 1.419 . S
C425 C426 1.362 . S
C426 H418 0.930 . S
C426 C425 1.362 . S
C426 C429 1.409 . S
C427 H419 0.930 . S
C427 C428 1.355 . S
C427 C429 1.415 . S
C428 C427 1.355 . S
C428 C430 1.419 . S
C429 C424 1.425 . S
C429 C426 1.409 . S
C429 C427 1.415 . S
C430 H420 0.930 . S
C430 C428 1.419 . S
C430 C431 1.362 . S
C431 H421 0.930 . S
C431 C424 1.409 . S
C431 C430 1.362 . S
H432 C438 0.930 . S
H433 C441 0.930 . S
H434 C442 0.930 . S
H435 C443 0.930 . S
H436 C446 0.930 . S
H437 C447 0.930 . S
C438 H432 0.930 . S
C438 C439 1.355 . S
C438 C440 1.415 . S
C439 C438 1.355 . S
C439 C441 1.419 . S
C440 C438 1.415 . S
C440 C445 1.425 . S
C440 C447 1.409 . S
C441 H433 0.930 . S
C441 C439 1.419 . S
C441 C442 1.362 . S
C442 H434 0.930 . S
C442 C441 1.362 . S
C442 C445 1.409 . S
C443 H435 0.930 . S
C443 C444 1.355 . S
C443 C445 1.415 . S
C444 C443 1.355 . S
C444 C446 1.419 . S
C445 C440 1.425 . S
C445 C442 1.409 . S
C445 C443 1.415 . S
C446 H436 0.930 . S
C446 C444 1.419 . S
C446 C447 1.362 . S
C447 H437 0.930 . S
C447 C440 1.409 . S
C447 C446 1.362 . S
H448 C454 0.930 . S
H449 C457 0.930 . S
H450 C458 0.930 . S
H451 C459 0.930 . S
H452 C462 0.930 . S
H453 C463 0.930 . S
C454 H448 0.930 . S
C454 C455 1.355 . S
C454 C456 1.415 . S
C455 C454 1.355 . S
C455 C457 1.419 . S
C456 C454 1.415 . S
C456 C461 1.425 . S
C456 C463 1.409 . S
C457 H449 0.930 . S
C457 C455 1.419 . S
C457 C458 1.362 . S
C458 H450 0.930 . S
C458 C457 1.362 . S
C458 C461 1.409 . S
C459 H451 0.930 . S
C459 C460 1.355 . S
C459 C461 1.415 . S
C460 C459 1.355 . S
C460 C462 1.419 . S
C461 C456 1.425 . S
C461 C458 1.409 . S
C461 C459 1.415 . S
C462 H452 0.930 . S
C462 C460 1.419 . S
C462 C463 1.362 . S
C463 H453 0.930 . S
C463 C456 1.409 . S
C463 C462 1.362 . S
H464 C470 0.930 . S
H465 C473 0.930 . S
H466 C474 0.930 . S
H467 C475 0.930 . S
H468 C478 0.930 . S
H469 C479 0.930 . S
C470 H464 0.930 . S
C470 C471 1.355 . S
C470 C472 1.415 . S
C471 C470 1.355 . S
C471 C473 1.419 . S
C472 C470 1.415 . S
C472 C477 1.425 . S
C472 C479 1.409 . S
C473 H465 0.930 . S
C473 C471 1.419 . S
C473 C474 1.362 . S
C474 H466 0.930 . S
C474 C473 1.362 . S
C474 C477 1.409 . S
C475 H467 0.930 . S
C475 C476 1.355 . S
C475 C477 1.415 . S
C476 C475 1.355 . S
C476 C478 1.419 . S
C477 C472 1.425 . S
C477 C474 1.409 . S
C477 C475 1.415 . S
C478 H468 0.930 . S
C478 C476 1.419 . S
C478 C479 1.362 . S
C479 H469 0.930 . S
C479 C472 1.409 . S
C479 C478 1.362 . S
H480 C486 0.930 . S
H481 C489 0.930 . S
H482 C490 0.930 . S
H483 C491 0.930 . S
H484 C494 0.930 . S
H485 C495 0.930 . S
C486 H480 0.930 . S
C486 C487 1.355 . S
C486 C488 1.415 . S
C487 C486 1.355 . S
C487 C489 1.419 . S
C488 C486 1.415 . S
C488 C493 1.425 . S
C488 C495 1.409 . S
C489 H481 0.930 . S
C489 C487 1.419 . S
C489 C490 1.362 . S
C490 H482 0.930 . S
C490 C489 1.362 . S
C490 C493 1.409 . S
C491 H483 0.930 . S
C491 C492 1.355 . S
C491 C493 1.415 . S
C492 C491 1.355 . S
C492 C494 1.419 . S
C493 C488 1.425 . S
C493 C490 1.409 . S
C493 C491 1.415 . S
C494 H484 0.930 . S
C494 C492 1.419 . S
C494 C495 1.362 . S
C495 H485 0.930 . S
C495 C488 1.409 . S
C495 C494 1.362 . S
H496 C502 0.930 . S
H497 C505 0.930 . S
H498 C506 0.930 . S
H499 C507 0.930 . S
H500 C510 0.930 . S
H501 C511 0.930 . S
C502 H496 0.930 . S
C502 C503 1.355 . S
C502 C504 1.415 . S
C503 C502 1.355 . S
C503 C505 1.419 . S
C504 C502 1.415 . S
C504 C509 1.425 . S
C504 C511 1.409 . S
C505 H497 0.930 . S
C505 C503 1.419 . S
C505 C506 1.362 . S
C506 H498 0.930 . S
C506 C505 1.362 . S
C506 C509 1.409 . S
C507 H499 0.930 . S
C507 C508 1.355 . S
C507 C509 1.415 . S
C508 C507 1.355 . S
C508 C510 1.419 . S
C509 C504 1.425 . S
C509 C506 1.409 . S
C509 C507 1.415 . S
C510 H500 0.930 . S
C510 C508 1.419 . S
C510 C511 1.362 . S
C511 H501 0.930 . S
C511 C504 1.409 . S
C511 C510 1.362 . S
H512 C518 0.930 . S
H513 C521 0.930 . S
H514 C522 0.930 . S
H515 C523 0.930 . S
H516 C526 0.930 . S
H517 C527 0.930 . S
C518 H512 0.930 . S
C518 C519 1.355 . S
C518 C520 1.415 . S
C519 C518 1.355 . S
C519 C521 1.419 . S
C520 C518 1.415 . S
C520 C525 1.425 . S
C520 C527 1.409 . S
C521 H513 0.930 . S
C521 C519 1.419 . S
C521 C522 1.362 . S
C522 H514 0.930 . S
C522 C521 1.362 . S
C522 C525 1.409 . S
C523 H515 0.930 . S
C523 C524 1.355 . S
C523 C525 1.415 . S
C524 C523 1.355 . S
C524 C526 1.419 . S
C525 C520 1.425 . S
C525 C522 1.409 . S
C525 C523 1.415 . S
C526 H516 0.930 . S
C526 C524 1.419 . S
C526 C527 1.362 . S
C527 H517 0.930 . S
C527 C520 1.409 . S
C527 C526 1.362 . S
C247 C210 1.397 . S
C252 C2 1.448 . S
C263 C10 1.394 . S
C268 C42 1.455 . S
C279 C50 1.433 . S
C284 C82 1.440 . S
C295 C90 1.422 . S
C300 C122 1.445 . S
C311 C162 1.458 . S
C316 C130 1.384 . S
C327 C202 1.437 . S
C332 C170 1.440 . S
C343 C7 1.691 . S
C348 C16 1.691 . S
C359 C47 1.715 . S
C364 C56 1.715 . S
C375 C87 1.676 . S
C380 C96 1.676 . S
C391 C127 1.748 . S
C396 C136 1.748 . S
C407 C176 1.756 . S
C412 C167 1.756 . S
C423 C207 1.693 . S
C428 C216 1.693 . S
C439 C11 1.701 . S
C444 C179 1.702 . S
C455 C51 1.698 . S
C460 C219 1.701 . S
C471 C19 1.691 . S
C476 C91 1.677 . S
C487 C59 1.703 . S
C492 C131 1.702 . S
C503 C171 1.687 . S
C508 C99 1.695 . S
C519 C139 1.699 . S
C524 C211 1.692 . S
