# Generated by pormake.
# Topology msp, (4)-cn, num edge types: 1
# Building blocks:
#     Node 0, Type 0, BuildingBlock: CEKHIL_clean_sbu_0, # of connection points: 4
#     Node 1, Type 0, BuildingBlock: CEKHIL_clean_sbu_0, # of connection points: 4
#     Node 2, Type 0, BuildingBlock: CEKHIL_clean_sbu_0, # of connection points: 4
#     Node 3, Type 0, BuildingBlock: CEKHIL_clean_sbu_0, # of connection points: 4
#     Node 4, Type 0, BuildingBlock: CEKHIL_clean_sbu_0, # of connection points: 4
#     Node 5, Type 0, BuildingBlock: CEKHIL_clean_sbu_0, # of connection points: 4
#     Node 6, Type 0, BuildingBlock: CEKHIL_clean_sbu_0, # of connection points: 4
#     Node 7, Type 0, BuildingBlock: CEKHIL_clean_sbu_0, # of connection points: 4
#     Edge 8, Type (0, 0), BuildingBlock: FUNLAD_clean_linker_1, # of connection points: 2
#     Edge 9, Type (0, 0), BuildingBlock: FUNLAD_clean_linker_1, # of connection points: 2
#     Edge 10, Type (0, 0), BuildingBlock: FUNLAD_clean_linker_1, # of connection points: 2
#     Edge 11, Type (0, 0), BuildingBlock: FUNLAD_clean_linker_1, # of connection points: 2
#     Edge 12, Type (0, 0), BuildingBlock: FUNLAD_clean_linker_1, # of connection points: 2
#     Edge 13, Type (0, 0), BuildingBlock: FUNLAD_clean_linker_1, # of connection points: 2
#     Edge 14, Type (0, 0), BuildingBlock: FUNLAD_clean_linker_1, # of connection points: 2
#     Edge 15, Type (0, 0), BuildingBlock: FUNLAD_clean_linker_1, # of connection points: 2
#     Edge 16, Type (0, 0), BuildingBlock: FUNLAD_clean_linker_1, # of connection points: 2
#     Edge 17, Type (0, 0), BuildingBlock: FUNLAD_clean_linker_1, # of connection points: 2
#     Edge 18, Type (0, 0), BuildingBlock: FUNLAD_clean_linker_1, # of connection points: 2
#     Edge 19, Type (0, 0), BuildingBlock: FUNLAD_clean_linker_1, # of connection points: 2
#     Edge 20, Type (0, 0), BuildingBlock: FUNLAD_clean_linker_1, # of connection points: 2
#     Edge 21, Type (0, 0), BuildingBlock: FUNLAD_clean_linker_1, # of connection points: 2
#     Edge 22, Type (0, 0), BuildingBlock: FUNLAD_clean_linker_1, # of connection points: 2
#     Edge 23, Type (0, 0), BuildingBlock: FUNLAD_clean_linker_1, # of connection points: 2
# Relax obj value: 0.161
# Max RMSD: 0.205
# Mean RMSD: 0.205
data_MOF--net-msp--node1-CEKHIL_clean_sbu_0--edge1-FUNLAD_clean_linker_1
_symmetry_space_group_name_H-M    P1
_symmetry_Int_Tables_number       1
_symmetry_cell_setting            triclinic
loop_
_symmetry_equiv_pos_as_xyz
'x, y, z'
_cell_length_a     24.243396
_cell_length_b     23.959618
_cell_length_c     40.429289
_cell_angle_alpha  89.738438
_cell_angle_beta   98.932182
_cell_angle_gamma 90.14744
loop_
_atom_site_label
_atom_site_type_symbol
_atom_site_fract_x
_atom_site_fract_y
_atom_site_fract_z
_atom_type_partial_charge
Co0 Co 0.01023 0.3629 0.35032 0.0
O1 O 0.95775 0.38757 0.3124 0.0
O2 O 0.95763 0.30379 0.33592 0.0
C3 C 0.0063 0.43951 0.38188 0.0
O4 O 0.0563 0.32298 0.38996 0.0
Co5 Co 0.12135 0.4288 0.37234 0.0
O6 O 0.12701 0.37909 0.41203 0.0
C7 C 0.1134 0.34749 0.31689 0.0
C8 C 0.93464 0.33883 0.31324 0.0
C9 C 0.09842 0.33438 0.41245 0.0
O10 O 0.06298 0.33468 0.32024 0.0
O11 O 0.14186 0.38592 0.33366 0.0
O12 O 0.96809 0.40116 0.3809 0.0
O13 O 0.04135 0.43333 0.3613 0.0
Co14 Co 0.49502 0.32286 0.63111 0.0
O15 O 0.55505 0.33789 0.66698 0.0
O16 O 0.5252 0.25337 0.651 0.0
C17 C 0.52393 0.38085 0.59311 0.0
O18 O 0.43572 0.29261 0.59409 0.0
Co19 Co 0.41418 0.4202 0.60486 0.0
O20 O 0.39556 0.36807 0.56679 0.0
C21 C 0.39526 0.35697 0.66488 0.0
C22 C 0.5611 0.28429 0.67007 0.0
C23 C 0.40389 0.31565 0.56931 0.0
O24 O 0.43726 0.32518 0.66234 0.0
O25 O 0.38183 0.39935 0.64601 0.0
O26 O 0.54608 0.33189 0.59858 0.0
O27 O 0.49081 0.39584 0.61364 0.0
Co28 Co 0.99493 0.69259 0.64738 0.0
O29 O 0.05743 0.67457 0.68107 0.0
O30 O 0.02889 0.76053 0.66728 0.0
C31 C 0.01761 0.63385 0.60843 0.0
O32 O 0.93428 0.72675 0.6124 0.0
Co33 Co 0.90807 0.59998 0.6209 0.0
O34 O 0.88579 0.65607 0.58505 0.0
C35 C 0.90274 0.65381 0.68577 0.0
C36 C 0.06515 0.72787 0.68482 0.0
C37 C 0.89822 0.70777 0.58826 0.0
O38 O 0.94117 0.68906 0.68106 0.0
O39 O 0.88788 0.61254 0.66644 0.0
O40 O 0.04181 0.68232 0.6125 0.0
O41 O 0.98566 0.62075 0.62987 0.0
Co42 Co 0.50839 0.6994 0.34725 0.0
O43 O 0.44721 0.69191 0.31104 0.0
O44 O 0.48046 0.77253 0.33203 0.0
C45 C 0.47813 0.63615 0.38196 0.0
O46 O 0.56945 0.7217 0.38575 0.0
Co47 Co 0.58565 0.59621 0.36562 0.0
O48 O 0.60903 0.64109 0.40646 0.0
C49 C 0.60417 0.66812 0.30911 0.0
C50 C 0.44318 0.74583 0.31131 0.0
C51 C 0.6019 0.6936 0.40809 0.0
O52 O 0.565 0.70108 0.31518 0.0
O53 O 0.61587 0.62197 0.32463 0.0
O54 O 0.45781 0.68618 0.37956 0.0
O55 O 0.50999 0.62374 0.36017 0.0
Co56 Co 0.53109 0.79444 0.86534 0.0
O57 O 0.49212 0.8342 0.82679 0.0
O58 O 0.48343 0.74388 0.83712 0.0
C59 C 0.51437 0.85712 0.90375 0.0
O60 O 0.55953 0.73816 0.90182 0.0
Co61 Co 0.63271 0.84089 0.91409 0.0
O62 O 0.62006 0.77647 0.94309 0.0
C63 C 0.64767 0.79872 0.84717 0.0
C64 C 0.46761 0.78689 0.81847 0.0
C65 C 0.59007 0.7357 0.93075 0.0
O66 O 0.59717 0.77971 0.84146 0.0
O67 O 0.66724 0.82744 0.87296 0.0
O68 O 0.47626 0.82081 0.8924 0.0
O69 O 0.559 0.85693 0.89018 0.0
Co70 Co 0.97217 0.86268 0.14322 0.0
O71 O 0.03474 0.87918 0.17745 0.0
O72 O 0.00872 0.7942 0.16018 0.0
C73 C 0.99191 0.92643 0.10548 0.0
O74 O 0.91203 0.82999 0.10774 0.0
Co75 Co 0.88173 0.95345 0.12103 0.0
O76 O 0.85527 0.89908 0.08513 0.0
C77 C 0.8765 0.88752 0.18234 0.0
C78 C 0.04416 0.82587 0.179 0.0
C79 C 0.87125 0.84832 0.08626 0.0
O80 O 0.91871 0.85797 0.1771 0.0
O81 O 0.85889 0.9302 0.16471 0.0
O82 O 0.01767 0.87883 0.10847 0.0
O83 O 0.96044 0.93649 0.12774 0.0
Co84 Co 0.48978 0.12584 0.16149 0.0
O85 O 0.55342 0.10871 0.19447 0.0
O86 O 0.53453 0.19248 0.17207 0.0
C87 C 0.49652 0.05333 0.12733 0.0
O88 O 0.42842 0.15751 0.12599 0.0
Co89 Co 0.3901 0.04082 0.15309 0.0
O90 O 0.35786 0.09466 0.11814 0.0
C91 C 0.4014 0.12178 0.20803 0.0
C92 C 0.56766 0.16059 0.1924 0.0
C93 C 0.37991 0.14096 0.11168 0.0
O94 O 0.44389 0.14397 0.19758 0.0
O95 O 0.37677 0.07776 0.19537 0.0
O96 O 0.52763 0.09723 0.12597 0.0
O97 O 0.46875 0.05157 0.15208 0.0
Co98 Co 0.03344 0.16743 0.83556 0.0
O99 O 0.96907 0.15765 0.80184 0.0
O100 O 1.00136 0.23953 0.82136 0.0
C101 C 0.0101 0.10245 0.8715 0.0
O102 O 0.09754 0.19192 0.87159 0.0
Co103 Co 0.11546 0.06721 0.85176 0.0
O104 O 0.13884 0.11238 0.89255 0.0
C105 C 0.12534 0.14002 0.79392 0.0
C106 C 0.96311 0.21135 0.80216 0.0
C107 C 0.1311 0.16494 0.89386 0.0
O108 O 0.08534 0.17119 0.80081 0.0
O109 O 0.14065 0.09486 0.80966 0.0
O110 O 0.98828 0.15192 0.87055 0.0
O111 O 0.03919 0.09188 0.8481 0.0
H112 H 0.05248 0.50845 0.40933 0.0
C113 C 0.01667 0.48087 0.40886 0.0
H114 H 0.95274 0.45278 0.43478 0.0
H115 H 0.09026 0.51438 0.57557 0.0
H116 H 0.09564 0.41316 0.57688 0.0
H117 H 0.05888 0.35801 0.52694 0.0
H118 H 0.01947 0.40324 0.47502 0.0
C119 C 0.98691 0.48202 0.43413 0.0
C120 C 0.00601 0.51592 0.46444 0.0
C121 C 0.02869 0.48851 0.49463 0.0
C122 C 0.04763 0.52021 0.5238 0.0
C123 C 0.07284 0.49204 0.55315 0.0
C124 C 0.07677 0.43407 0.55414 0.0
C125 C 0.0565 0.40298 0.52595 0.0
C126 C 0.03341 0.42959 0.49636 0.0
H127 H 0.98859 0.56493 0.57487 0.0
C128 C 0.01769 0.59981 0.57842 0.0
H129 H 0.07788 0.64674 0.5578 0.0
H130 H 0.96495 0.5816 0.41056 0.0
H131 H 0.96189 0.6828 0.40916 0.0
H132 H 0.99599 0.73764 0.45983 0.0
H133 H 0.03129 0.69185 0.51218 0.0
C134 C 0.0496 0.61124 0.55496 0.0
C135 C 0.04149 0.57907 0.52314 0.0
C136 C 0.02148 0.60668 0.49256 0.0
C137 C 0.00319 0.57504 0.4632 0.0
C138 C 0.98095 0.60357 0.43335 0.0
C139 C 0.97857 0.66165 0.43226 0.0
C140 C 0.99742 0.69253 0.46078 0.0
C141 C 0.01793 0.66563 0.49073 0.0
H142 H 0.44481 0.61673 0.42817 0.0
C143 C 0.47293 0.60183 0.41166 0.0
H144 H 0.5339 0.54163 0.40515 0.0
H145 H 0.54478 0.54582 0.57012 0.0
H146 H 0.58842 0.63648 0.5665 0.0
H147 H 0.59476 0.67927 0.51161 0.0
H148 H 0.55717 0.63208 0.46022 0.0
C149 C 0.50545 0.55756 0.42111 0.0
C150 C 0.50439 0.53049 0.4543 0.0
C151 C 0.52662 0.55874 0.48428 0.0
C152 C 0.52349 0.53382 0.51594 0.0
C153 C 0.54604 0.56289 0.54542 0.0
C154 C 0.57128 0.61491 0.54372 0.0
C155 C 0.5748 0.63904 0.51284 0.0
C156 C 0.55288 0.6115 0.48345 0.0
H157 H 0.55771 0.39483 0.54628 0.0
C158 C 0.52887 0.41114 0.56192 0.0
H159 H 0.46736 0.47189 0.56619 0.0
H160 H 0.4593 0.46473 0.40187 0.0
H161 H 0.41594 0.37388 0.40552 0.0
H162 H 0.40939 0.33109 0.46042 0.0
H163 H 0.44649 0.37861 0.51187 0.0
C164 C 0.49615 0.45453 0.5509 0.0
C165 C 0.4989 0.48043 0.51764 0.0
C166 C 0.47702 0.45196 0.4877 0.0
C167 C 0.4802 0.47687 0.45602 0.0
C168 C 0.45791 0.44768 0.42656 0.0
C169 C 0.43286 0.39555 0.42829 0.0
C170 C 0.42923 0.37144 0.45919 0.0
C171 C 0.45089 0.39914 0.4886 0.0
H172 H 0.45022 0.98604 0.09794 0.0
C173 C 0.48603 0.0138 0.09937 0.0
H174 H 0.55294 0.04254 0.07627 0.0
H175 H 0.46919 0.80847 0.99295 0.0
H176 H 0.48903 0.7597 0.04607 0.0
H177 H 0.5184 0.81139 0.09855 0.0
H178 H 0.52698 0.91201 0.0982 0.0
C179 C 0.51781 0.01392 0.07496 0.0
C180 C 0.50229 0.98148 0.04361 0.0
C181 C 0.49911 0.92229 0.0443 0.0
C182 C 0.48408 0.89229 0.01394 0.0
C183 C 0.48077 0.83332 0.01523 0.0
C184 C 0.49218 0.80476 0.04556 0.0
C185 C 0.50849 0.83387 0.0751 0.0
C186 C 0.51258 0.89184 0.07458 0.0
H187 H 0.54722 0.919 0.94136 0.0
C188 C 0.51177 0.89177 0.93325 0.0
H189 H 0.43501 0.86087 0.94444 0.0
H190 H 0.50268 0.09499 0.03333 0.0
H191 H 0.48032 0.14315 0.9802 0.0
H192 H 0.45332 0.09066 0.92782 0.0
H193 H 0.44919 0.98943 0.92835 0.0
C194 C 0.4698 0.8894 0.95121 0.0
C195 C 0.4745 0.92127 0.98298 0.0
C196 C 0.47612 0.98038 0.98236 0.0
C197 C 0.49077 0.01053 0.01264 0.0
C198 C 0.49241 0.06966 0.01114 0.0
C199 C 0.47935 0.09798 0.98078 0.0
C200 C 0.46415 0.06845 0.95129 0.0
C201 C 0.46239 0.01036 0.95192 0.0
H202 H 0.96878 0.00188 0.07499 0.0
C203 C 0.99193 0.96296 0.07606 0.0
H204 H 0.03785 0.90783 0.05016 0.0
H205 H 0.92356 0.99833 0.90839 0.0
H206 H 0.87843 0.90825 0.9101 0.0
H207 H 0.89363 0.85054 0.96125 0.0
H208 H 0.95277 0.88299 0.01142 0.0
C209 C 0.01679 0.94784 0.05001 0.0
C210 C 0.01057 0.98172 0.01871 0.0
C211 C 0.97634 0.96171 0.98951 0.0
C212 C 0.96872 0.99442 0.95969 0.0
C213 C 0.93234 0.97449 0.93136 0.0
C214 C 0.90577 0.92301 0.93207 0.0
C215 C 0.91413 0.89058 0.96094 0.0
C216 C 0.9485 0.90964 0.9895 0.0
H217 H 0.03147 0.02501 0.90042 0.0
C218 C 0.01058 0.06507 0.90058 0.0
H219 H 0.97076 0.12207 0.92875 0.0
H220 H 0.08315 0.02975 0.06931 0.0
H221 H 0.13073 0.1186 0.06711 0.0
H222 H 0.117 0.17576 0.01559 0.0
H223 H 0.05585 0.14433 0.96594 0.0
C224 C 0.98933 0.08097 0.92784 0.0
C225 C 0.99645 0.04649 0.95893 0.0
C226 C 0.03114 0.06625 0.98806 0.0
C227 C 0.03857 0.03363 0.01791 0.0
C228 C 0.07507 0.0534 0.04622 0.0
C229 C 0.10288 0.10421 0.04525 0.0
C230 C 0.09516 0.13639 0.01625 0.0
C231 C 0.05981 0.11785 0.98792 0.0
H232 H 0.64317 0.15117 0.22965 0.0
C233 C 0.62034 0.18038 0.21194 0.0
H234 H 0.62035 0.26102 0.19052 0.0
H235 H 0.7896 0.34789 0.31701 0.0
H236 H 0.70578 0.39928 0.323 0.0
H237 H 0.61738 0.38164 0.28527 0.0
H238 H 0.61226 0.31225 0.24137 0.0
C239 C 0.64263 0.23072 0.20767 0.0
C240 C 0.69763 0.24636 0.2274 0.0
C241 C 0.70029 0.28806 0.25235 0.0
C242 C 0.75153 0.29878 0.2738 0.0
C243 C 0.75229 0.33898 0.29945 0.0
C244 C 0.70433 0.36857 0.30332 0.0
C245 C 0.65454 0.35859 0.28211 0.0
C246 C 0.65221 0.31867 0.25699 0.0
H247 H 0.86717 0.35709 0.27152 0.0
C248 C 0.88307 0.32582 0.29012 0.0
H249 H 0.8695 0.24651 0.31048 0.0
H250 H 0.70917 0.16999 0.17869 0.0
H251 H 0.7933 0.11941 0.17214 0.0
H252 H 0.88148 0.13619 0.21027 0.0
H253 H 0.88614 0.20403 0.25501 0.0
C254 C 0.85388 0.2787 0.29245 0.0
C255 C 0.80029 0.26845 0.2698 0.0
C256 C 0.79799 0.22791 0.24422 0.0
C257 C 0.74684 0.2174 0.22269 0.0
C258 C 0.74638 0.17827 0.19649 0.0
C259 C 0.79451 0.14928 0.19226 0.0
C260 C 0.84418 0.15879 0.21368 0.0
C261 C 0.84623 0.19776 0.23931 0.0
H262 H 0.61407 0.2149 0.69325 0.0
C263 C 0.61055 0.26003 0.69122 0.0
H264 H 0.6503 0.33773 0.70269 0.0
H265 H 0.83225 0.2543 0.82097 0.0
H266 H 0.77053 0.30478 0.85181 0.0
H267 H 0.67976 0.34004 0.82354 0.0
H268 H 0.64994 0.32443 0.76422 0.0
C269 C 0.65373 0.29257 0.70454 0.0
C270 C 0.70801 0.26956 0.72153 0.0
C271 C 0.72553 0.28 0.75607 0.0
C272 C 0.77842 0.26051 0.77226 0.0
C273 C 0.79345 0.26948 0.80711 0.0
C274 C 0.75819 0.29814 0.82522 0.0
C275 C 0.70706 0.31794 0.80932 0.0
C276 C 0.69057 0.30887 0.77521 0.0
H277 H 0.90997 0.28342 0.78295 0.0
C278 C 0.91241 0.23816 0.78384 0.0
H279 H 0.87064 0.16185 0.77138 0.0
H280 H 0.69062 0.24768 0.65406 0.0
H281 H 0.75236 0.1974 0.62322 0.0
H282 H 0.84301 0.16191 0.65151 0.0
H283 H 0.87265 0.17715 0.71084 0.0
C284 C 0.86798 0.20713 0.77063 0.0
C285 C 0.81434 0.23151 0.75367 0.0
C286 C 0.79696 0.22139 0.71908 0.0
C287 C 0.74412 0.24093 0.70289 0.0
C288 C 0.72927 0.23228 0.66798 0.0
C289 C 0.76458 0.20379 0.64984 0.0
C290 C 0.81563 0.18386 0.66576 0.0
C291 C 0.832 0.19269 0.69989 0.0
H292 H 0.11286 0.78972 0.71879 0.0
C293 C 0.1151 0.74973 0.70653 0.0
H294 H 0.16454 0.68141 0.69711 0.0
H295 H 0.35281 0.86752 0.76887 0.0
H296 H 0.31537 0.93253 0.72509 0.0
H297 H 0.23389 0.90731 0.68336 0.0
H298 H 0.18825 0.81774 0.68587 0.0
C299 C 0.16331 0.72085 0.71019 0.0
C300 C 0.21461 0.73655 0.73387 0.0
C301 C 0.24303 0.78778 0.73062 0.0
C302 C 0.29265 0.80074 0.75323 0.0
C303 C 0.31714 0.85412 0.75125 0.0
C304 C 0.29577 0.89209 0.72638 0.0
C305 C 0.24972 0.87801 0.70299 0.0
C306 C 0.22356 0.82653 0.70493 0.0
H307 H 0.42247 0.78899 0.7663 0.0
C308 C 0.41804 0.78346 0.79243 0.0
H309 H 0.36547 0.7677 0.82803 0.0
H310 H 0.16967 0.6358 0.74847 0.0
H311 H 0.21104 0.56799 0.78936 0.0
H312 H 0.3018 0.5863 0.82445 0.0
H313 H 0.3512 0.67289 0.81922 0.0
C314 C 0.36796 0.77281 0.80154 0.0
C315 C 0.31625 0.76066 0.77732 0.0
C316 C 0.28863 0.70884 0.77986 0.0
C317 C 0.23735 0.69733 0.75869 0.0
C318 C 0.20963 0.64619 0.76302 0.0
C319 C 0.23275 0.60686 0.78657 0.0
C320 C 0.28372 0.61724 0.80639 0.0
C321 C 0.3115 0.66744 0.80321 0.0
H322 H 0.39146 0.81964 0.29388 0.0
C323 C 0.39475 0.77463 0.29171 0.0
H324 H 0.3548 0.70022 0.27328 0.0
H325 H 0.10785 0.78087 0.26497 0.0
H326 H 0.11682 0.71932 0.31318 0.0
H327 H 0.20846 0.68086 0.33763 0.0
H328 H 0.29173 0.70413 0.31419 0.0
C329 C 0.35246 0.74547 0.27414 0.0
C330 C 0.2979 0.77134 0.25989 0.0
C331 C 0.24925 0.75667 0.27354 0.0
C332 C 0.19615 0.77814 0.25911 0.0
C333 C 0.14886 0.76443 0.27419 0.0
C334 C 0.15348 0.72945 0.30208 0.0
C335 C 0.20507 0.70785 0.31586 0.0
C336 C 0.25254 0.72136 0.30201 0.0
H337 H 0.1015 0.75772 0.19888 0.0
C338 C 0.09537 0.80263 0.19893 0.0
H339 H 0.13095 0.88086 0.21361 0.0
H340 H 0.38202 0.80615 0.2266 0.0
H341 H 0.3732 0.86818 0.17857 0.0
H342 H 0.28145 0.90589 0.15374 0.0
H343 H 0.19791 0.88155 0.17662 0.0
C344 C 0.136 0.83581 0.21477 0.0
C345 C 0.19147 0.8135 0.23057 0.0
C346 C 0.24027 0.82891 0.21724 0.0
C347 C 0.29342 0.80758 0.23177 0.0
C348 C 0.3409 0.82206 0.2171 0.0
C349 C 0.3364 0.85742 0.18937 0.0
C350 C 0.28473 0.87863 0.17538 0.0
C351 C 0.23709 0.86447 0.1889 0.0
H352 H 0.39743 0.18944 0.2444 0.0
C353 C 0.375 0.15379 0.23232 0.0
H354 H 0.29698 0.1123 0.22211 0.0
H355 H 0.1963 0.23125 0.33944 0.0
H356 H 0.21426 0.13933 0.36407 0.0
H357 H 0.26694 0.06923 0.33721 0.0
H358 H 0.30194 0.09072 0.28548 0.0
C359 C 0.32065 0.14691 0.23453 0.0
C360 C 0.2893 0.18926 0.25072 0.0
C361 C 0.2688 0.17581 0.2807 0.0
C362 C 0.23823 0.2161 0.29605 0.0
C363 C 0.21913 0.202 0.32642 0.0
C364 C 0.22928 0.14941 0.3409 0.0
C365 C 0.25898 0.10996 0.32579 0.0
C366 C 0.27875 0.12281 0.29609 0.0
H367 H 0.11774 0.28066 0.27981 0.0
C368 C 0.14199 0.31184 0.29527 0.0
H369 H 0.22318 0.3421 0.31365 0.0
H370 H 0.31622 0.22632 0.19067 0.0
H371 H 0.29806 0.31809 0.16617 0.0
H372 H 0.24821 0.38912 0.19414 0.0
H373 H 0.21556 0.36825 0.24666 0.0
C374 C 0.19792 0.31221 0.29776 0.0
C375 C 0.22787 0.26947 0.2811 0.0
C376 C 0.24788 0.28281 0.25098 0.0
C377 C 0.2779 0.24236 0.2354 0.0
C378 C 0.29501 0.25594 0.20436 0.0
C379 C 0.28445 0.30844 0.18982 0.0
C380 C 0.2563 0.34838 0.20553 0.0
C381 C 0.23791 0.33589 0.23569 0.0
H382 H 0.32281 0.37045 0.69073 0.0
C383 C 0.35592 0.34112 0.68786 0.0
H384 H 0.38469 0.25853 0.69629 0.0
H385 H 0.19577 0.28895 0.8001 0.0
H386 H 0.25736 0.35945 0.8282 0.0
H387 H 0.34181 0.38902 0.80577 0.0
H388 H 0.36511 0.34822 0.75502 0.0
C389 C 0.35394 0.28941 0.70074 0.0
C390 C 0.30436 0.27008 0.71557 0.0
C391 C 0.29139 0.29413 0.74543 0.0
C392 C 0.2429 0.27648 0.75858 0.0
C393 C 0.23161 0.30083 0.78871 0.0
C394 C 0.26677 0.34132 0.80525 0.0
C395 C 0.31428 0.35802 0.7926 0.0
C396 C 0.32686 0.33457 0.76322 0.0
H397 H 0.19358 0.13147 0.76428 0.0
C398 C 0.16074 0.15947 0.76951 0.0
H399 H 0.12962 0.24166 0.76454 0.0
H400 H 0.31726 0.21416 0.65816 0.0
H401 H 0.25582 0.14316 0.63027 0.0
H402 H 0.16986 0.11586 0.65169 0.0
H403 H 0.14569 0.15805 0.7019 0.0
C404 C 0.16026 0.21228 0.75804 0.0
C405 C 0.20778 0.2342 0.74214 0.0
C406 C 0.22031 0.21078 0.71201 0.0
C407 C 0.2691 0.22796 0.69906 0.0
C408 C 0.28096 0.20283 0.66928 0.0
C409 C 0.24588 0.16217 0.65284 0.0
C410 C 0.19754 0.14666 0.66496 0.0
C411 C 0.18448 0.17084 0.69401 0.0
H412 H 0.72921 0.80438 0.83042 0.0
C413 C 0.6877 0.78618 0.82432 0.0
H414 H 0.63672 0.73278 0.79081 0.0
H415 H 0.80994 0.78445 0.68752 0.0
H416 H 0.73495 0.84693 0.66487 0.0
H417 H 0.65404 0.86107 0.69411 0.0
H418 H 0.6474 0.81212 0.74609 0.0
C419 C 0.67749 0.75179 0.79806 0.0
C420 C 0.7235 0.73906 0.77883 0.0
C421 C 0.72684 0.76787 0.74856 0.0
C422 C 0.7739 0.76019 0.73198 0.0
C423 C 0.77566 0.78911 0.7015 0.0
C424 C 0.7328 0.82511 0.68815 0.0
C425 C 0.68722 0.83304 0.70459 0.0
C426 C 0.68399 0.80481 0.73443 0.0
H427 H 0.84103 0.62951 0.71759 0.0
C428 C 0.86909 0.66297 0.71263 0.0
H429 H 0.88944 0.74799 0.72045 0.0
H430 H 0.72809 0.67471 0.83528 0.0
H431 H 0.80424 0.61417 0.85913 0.0
H432 H 0.88806 0.60429 0.83197 0.0
H433 H 0.89605 0.65458 0.78068 0.0
C434 C 0.86461 0.71289 0.72687 0.0
C435 C 0.8176 0.72363 0.74578 0.0
C436 C 0.81434 0.69506 0.77624 0.0
C437 C 0.76681 0.70209 0.79246 0.0
C438 C 0.76385 0.67187 0.82234 0.0
C439 C 0.80715 0.63681 0.83623 0.0
C440 C 0.85427 0.63114 0.82089 0.0
C441 C 0.85813 0.65993 0.79131 0.0
H442 H 0.81076 0.89802 0.21373 0.0
C443 C 0.84147 0.86875 0.20713 0.0
H444 H 0.86621 0.78442 0.20807 0.0
H445 H 0.69341 0.80274 0.32283 0.0
H446 H 0.76241 0.86423 0.35343 0.0
H447 H 0.84637 0.89217 0.32999 0.0
H448 H 0.86108 0.85997 0.27526 0.0
C449 C 0.83859 0.81504 0.21657 0.0
C450 C 0.79046 0.79448 0.23239 0.0
C451 C 0.78297 0.81262 0.26475 0.0
C452 C 0.73504 0.79539 0.2786 0.0
C453 C 0.72871 0.81455 0.31092 0.0
C454 C 0.76821 0.84966 0.32891 0.0
C455 C 0.8154 0.86555 0.31566 0.0
C456 C 0.82309 0.84711 0.28408 0.0
H457 H 0.67258 0.65596 0.27971 0.0
C458 C 0.64218 0.68608 0.28573 0.0
H459 H 0.61853 0.77082 0.28358 0.0
H460 H 0.79152 0.75171 0.16966 0.0
H461 H 0.72193 0.69125 0.13872 0.0
H462 H 0.63837 0.66261 0.16239 0.0
H463 H 0.62447 0.6935 0.21753 0.0
C464 C 0.64633 0.7395 0.27597 0.0
C465 C 0.69512 0.75898 0.26042 0.0
C466 C 0.70259 0.74081 0.22805 0.0
C467 C 0.75045 0.75819 0.21416 0.0
C468 C 0.75638 0.73965 0.18165 0.0
C469 C 0.71656 0.70506 0.16348 0.0
C470 C 0.66958 0.68884 0.17684 0.0
C471 C 0.66232 0.70656 0.20865 0.0
H472 H 0.35901 0.30232 0.51925 0.0
C473 C 0.37085 0.28171 0.54336 0.0
H474 H 0.35008 0.21839 0.57552 0.0
H475 H 0.10416 0.27846 0.50853 0.0
H476 H 0.09783 0.27791 0.5684 0.0
H477 H 0.17943 0.25197 0.61003 0.0
H478 H 0.26723 0.22567 0.59229 0.0
C479 C 0.34213 0.23634 0.55053 0.0
C480 C 0.28904 0.2236 0.52785 0.0
C481 C 0.2377 0.23609 0.53881 0.0
C482 C 0.191 0.2522 0.515 0.0
C483 C 0.14076 0.26712 0.52615 0.0
C484 C 0.1367 0.2666 0.56017 0.0
C485 C 0.18266 0.25186 0.58362 0.0
C486 C 0.2328 0.23698 0.57319 0.0
H487 H 0.09989 0.24986 0.43563 0.0
C488 C 0.11892 0.29106 0.4376 0.0
H489 H 0.18411 0.34149 0.46204 0.0
H490 H 0.37403 0.18152 0.49918 0.0
H491 H 0.3776 0.17622 0.43912 0.0
H492 H 0.29762 0.20752 0.39786 0.0
H493 H 0.21306 0.24304 0.41617 0.0
C494 C 0.16475 0.30043 0.46018 0.0
C495 C 0.19629 0.25631 0.48081 0.0
C496 C 0.24368 0.23326 0.46957 0.0
C497 C 0.29001 0.21606 0.49325 0.0
C498 C 0.3381 0.1954 0.48177 0.0
C499 C 0.34047 0.19213 0.44759 0.0
C500 C 0.29534 0.20969 0.42434 0.0
C501 C 0.24734 0.2302 0.43508 0.0
H502 H 0.86905 0.79197 0.56983 0.0
C503 C 0.8668 0.74761 0.56431 0.0
H504 H 0.83193 0.68478 0.531 0.0
H505 H 0.60537 0.80619 0.48688 0.0
H506 H 0.59066 0.79971 0.54519 0.0
H507 H 0.66901 0.77733 0.58994 0.0
H508 H 0.76232 0.76185 0.57692 0.0
C509 C 0.83292 0.72895 0.53707 0.0
C510 C 0.7933 0.76461 0.51458 0.0
C511 C 0.73975 0.77544 0.523 0.0
C512 C 0.69441 0.7876 0.49726 0.0
C513 C 0.64078 0.79633 0.5058 0.0
C514 C 0.63198 0.79288 0.53901 0.0
C515 C 0.67611 0.78026 0.56421 0.0
C516 C 0.72944 0.77136 0.55642 0.0
H517 H 0.64968 0.6942 0.45831 0.0
C518 C 0.63459 0.7212 0.43711 0.0
H519 H 0.64489 0.79965 0.41475 0.0
H520 H 0.89322 0.76101 0.49188 0.0
H521 H 0.90816 0.77411 0.43392 0.0
H522 H 0.82931 0.79316 0.38929 0.0
H523 H 0.73467 0.80123 0.40198 0.0
C524 C 0.65522 0.7732 0.43671 0.0
C525 C 0.70266 0.7878 0.46336 0.0
C526 C 0.75762 0.78609 0.45569 0.0
C527 C 0.80309 0.77417 0.48142 0.0
C528 C 0.85736 0.76959 0.47302 0.0
C529 C 0.86644 0.77695 0.44005 0.0
C530 C 0.82191 0.78799 0.41484 0.0
C531 C 0.76794 0.79234 0.4224 0.0
H532 H 0.85117 0.76411 0.06545 0.0
C533 C 0.83833 0.80762 0.06396 0.0
H534 H 0.77536 0.86487 0.04418 0.0
H535 H 0.69811 0.66408 0.93702 0.0
H536 H 0.77964 0.68978 0.91224 0.0
H537 H 0.84884 0.75665 0.94039 0.0
H538 H 0.83693 0.79801 0.99368 0.0
C539 C 0.79011 0.82204 0.04474 0.0
C540 C 0.75062 0.7794 0.0284 0.0
C541 C 0.75818 0.75572 0.99739 0.0
C542 C 0.71778 0.71793 0.9809 0.0
C543 C 0.72683 0.694 0.95023 0.0
C544 C 0.77359 0.70818 0.93582 0.0
C545 C 0.81256 0.74583 0.95169 0.0
C546 C 0.80523 0.76933 0.98217 0.0
H547 H 0.55947 0.65115 0.93904 0.0
C548 C 0.58998 0.68227 0.94937 0.0
H549 H 0.61936 0.62759 0.98852 0.0
H550 H 0.72591 0.81448 0.08882 0.0
H551 H 0.64591 0.78668 0.11437 0.0
H552 H 0.57652 0.72017 0.08616 0.0
H553 H 0.58501 0.68328 0.03142 0.0
C554 C 0.62506 0.66809 0.97733 0.0
C555 C 0.66932 0.70505 0.99517 0.0
C556 C 0.66327 0.72659 0.027 0.0
C557 C 0.70374 0.76421 0.0435 0.0
C558 C 0.69638 0.78575 0.07512 0.0
C559 C 0.65074 0.77003 0.09014 0.0
C560 C 0.61161 0.73268 0.07422 0.0
C561 C 0.61715 0.71163 0.04284 0.0
H562 H 0.30166 0.17409 0.08537 0.0
C563 C 0.34666 0.1752 0.0858 0.0
H564 H 0.41029 0.18566 0.05639 0.0
H565 H 0.23538 0.08385 0.93872 0.0
H566 H 0.29746 0.00562 0.95356 0.0
H567 H 0.37144 0.01024 0.00262 0.0
H568 H 0.38726 0.09481 0.03533 0.0
C569 C 0.3661 0.19021 0.0578 0.0
C570 C 0.32563 0.19118 0.02612 0.0
C571 C 0.31816 0.14186 0.00669 0.0
C572 C 0.27303 0.13778 0.97989 0.0
C573 C 0.26742 0.08844 0.96035 0.0
C574 C 0.30299 0.04326 0.96843 0.0
C575 C 0.34503 0.04607 0.99585 0.0
C576 C 0.35331 0.09488 0.01453 0.0
H577 H 0.18725 0.23349 0.91481 0.0
C578 C 0.16668 0.19528 0.92083 0.0
H579 H 0.1592 0.13174 0.95555 0.0
H580 H 0.33196 0.29292 0.05619 0.0
H581 H 0.26512 0.36891 0.04441 0.0
H582 H 0.18238 0.35918 0.00078 0.0
H583 H 0.16622 0.27406 0.96833 0.0
C584 C 0.18063 0.17018 0.95073 0.0
C585 C 0.23349 0.18166 0.9737 0.0
C586 C 0.24183 0.23168 0.99243 0.0
C587 C 0.28868 0.23674 0.0183 0.0
C588 C 0.29649 0.28695 0.03667 0.0
C589 C 0.25858 0.33072 0.03012 0.0
C590 C 0.21203 0.32527 0.00549 0.0
C591 C 0.20337 0.2763 0.9869 0.0
loop_
_geom_bond_atom_site_label_1
_geom_bond_atom_site_label_2
_geom_bond_distance
_geom_bond_site_symmetry_2
_ccdc_geom_bond_type
Co0 O1 2.216 1_455 S
Co0 O2 2.091 1_455 S
Co0 O4 2.004 . S
Co0 O10 2.021 . S
Co0 O12 2.137 1_455 S
Co0 O13 2.244 . S
O1 Co0 2.216 1_655 S
O1 C8 1.247 . S
O2 Co0 2.091 1_655 S
O2 C8 1.261 . S
C3 O12 1.247 1_455 S
C3 O13 1.272 . S
O4 Co0 2.004 . S
O4 C9 1.259 . S
Co5 O6 2.061 . S
Co5 O11 2.052 . S
Co5 O13 2.135 . S
O6 Co5 2.061 . S
O6 C9 1.235 . S
C7 O10 1.238 . S
C7 O11 1.241 . S
C8 O1 1.247 . S
C8 O2 1.261 . S
C9 O4 1.259 . S
C9 O6 1.235 . S
O10 Co0 2.021 . S
O10 C7 1.238 . S
O11 Co5 2.052 . S
O11 C7 1.241 . S
O12 Co0 2.137 1_655 S
O12 C3 1.247 1_655 S
O13 Co0 2.244 . S
O13 C3 1.272 . S
O13 Co5 2.135 . S
Co14 O15 2.216 . S
Co14 O16 2.091 . S
Co14 O18 2.004 . S
Co14 O24 2.021 . S
Co14 O26 2.137 . S
Co14 O27 2.244 . S
O15 Co14 2.216 . S
O15 C22 1.247 . S
O16 Co14 2.091 . S
O16 C22 1.261 . S
C17 O26 1.247 . S
C17 O27 1.272 . S
O18 Co14 2.004 . S
O18 C23 1.259 . S
Co19 O20 2.061 . S
Co19 O25 2.052 . S
Co19 O27 2.135 . S
O20 Co19 2.061 . S
O20 C23 1.235 . S
C21 O24 1.238 . S
C21 O25 1.241 . S
C22 O15 1.247 . S
C22 O16 1.261 . S
C23 O18 1.259 . S
C23 O20 1.235 . S
O24 Co14 2.021 . S
O24 C21 1.238 . S
O25 Co19 2.052 . S
O25 C21 1.241 . S
O26 Co14 2.137 . S
O26 C17 1.247 . S
O27 Co14 2.244 . S
O27 C17 1.272 . S
O27 Co19 2.135 . S
Co28 O29 2.216 1_655 S
Co28 O30 2.091 1_655 S
Co28 O32 2.004 . S
Co28 O38 2.021 . S
Co28 O40 2.137 1_655 S
Co28 O41 2.244 . S
O29 Co28 2.216 1_455 S
O29 C36 1.247 . S
O30 Co28 2.091 1_455 S
O30 C36 1.261 . S
C31 O40 1.247 1_655 S
C31 O41 1.272 . S
O32 Co28 2.004 . S
O32 C37 1.259 . S
Co33 O34 2.061 . S
Co33 O39 2.052 . S
Co33 O41 2.135 . S
O34 Co33 2.061 . S
O34 C37 1.235 . S
C35 O38 1.238 . S
C35 O39 1.241 . S
C36 O29 1.247 . S
C36 O30 1.261 . S
C37 O32 1.259 . S
C37 O34 1.235 . S
O38 Co28 2.021 . S
O38 C35 1.238 . S
O39 Co33 2.052 . S
O39 C35 1.241 . S
O40 Co28 2.137 1_455 S
O40 C31 1.247 1_455 S
O41 Co28 2.244 . S
O41 C31 1.272 . S
O41 Co33 2.135 . S
Co42 O43 2.216 . S
Co42 O44 2.091 . S
Co42 O46 2.004 . S
Co42 O52 2.021 . S
Co42 O54 2.137 . S
Co42 O55 2.244 . S
O43 Co42 2.216 . S
O43 C50 1.247 . S
O44 Co42 2.091 . S
O44 C50 1.261 . S
C45 O54 1.247 . S
C45 O55 1.272 . S
O46 Co42 2.004 . S
O46 C51 1.259 . S
Co47 O48 2.061 . S
Co47 O53 2.052 . S
Co47 O55 2.135 . S
O48 Co47 2.061 . S
O48 C51 1.235 . S
C49 O52 1.238 . S
C49 O53 1.241 . S
C50 O43 1.247 . S
C50 O44 1.261 . S
C51 O46 1.259 . S
C51 O48 1.235 . S
O52 Co42 2.021 . S
O52 C49 1.238 . S
O53 Co47 2.052 . S
O53 C49 1.241 . S
O54 Co42 2.137 . S
O54 C45 1.247 . S
O55 Co42 2.244 . S
O55 C45 1.272 . S
O55 Co47 2.135 . S
Co56 O57 2.216 . S
Co56 O58 2.091 . S
Co56 O60 2.004 . S
Co56 O66 2.021 . S
Co56 O68 2.137 . S
Co56 O69 2.244 . S
O57 Co56 2.216 . S
O57 C64 1.247 . S
O58 Co56 2.091 . S
O58 C64 1.261 . S
C59 O68 1.247 . S
C59 O69 1.272 . S
O60 Co56 2.004 . S
O60 C65 1.259 . S
Co61 O62 2.061 . S
Co61 O67 2.052 . S
Co61 O69 2.135 . S
O62 Co61 2.061 . S
O62 C65 1.235 . S
C63 O66 1.238 . S
C63 O67 1.241 . S
C64 O57 1.247 . S
C64 O58 1.261 . S
C65 O60 1.259 . S
C65 O62 1.235 . S
O66 Co56 2.021 . S
O66 C63 1.238 . S
O67 Co61 2.052 . S
O67 C63 1.241 . S
O68 Co56 2.137 . S
O68 C59 1.247 . S
O69 Co56 2.244 . S
O69 C59 1.272 . S
O69 Co61 2.135 . S
Co70 O71 2.216 1_655 S
Co70 O72 2.091 1_655 S
Co70 O74 2.004 . S
Co70 O80 2.021 . S
Co70 O82 2.137 1_655 S
Co70 O83 2.244 . S
O71 Co70 2.216 1_455 S
O71 C78 1.247 . S
O72 Co70 2.091 1_455 S
O72 C78 1.261 . S
C73 O82 1.247 1_655 S
C73 O83 1.272 . S
O74 Co70 2.004 . S
O74 C79 1.259 . S
Co75 O76 2.061 . S
Co75 O81 2.052 . S
Co75 O83 2.135 . S
O76 Co75 2.061 . S
O76 C79 1.235 . S
C77 O80 1.238 . S
C77 O81 1.241 . S
C78 O71 1.247 . S
C78 O72 1.261 . S
C79 O74 1.259 . S
C79 O76 1.235 . S
O80 Co70 2.021 . S
O80 C77 1.238 . S
O81 Co75 2.052 . S
O81 C77 1.241 . S
O82 Co70 2.137 1_455 S
O82 C73 1.247 1_455 S
O83 Co70 2.244 . S
O83 C73 1.272 . S
O83 Co75 2.135 . S
Co84 O85 2.216 . S
Co84 O86 2.091 . S
Co84 O88 2.004 . S
Co84 O94 2.021 . S
Co84 O96 2.137 . S
Co84 O97 2.244 . S
O85 Co84 2.216 . S
O85 C92 1.247 . S
O86 Co84 2.091 . S
O86 C92 1.261 . S
C87 O96 1.247 . S
C87 O97 1.272 . S
O88 Co84 2.004 . S
O88 C93 1.259 . S
Co89 O90 2.061 . S
Co89 O95 2.052 . S
Co89 O97 2.135 . S
O90 Co89 2.061 . S
O90 C93 1.235 . S
C91 O94 1.238 . S
C91 O95 1.241 . S
C92 O85 1.247 . S
C92 O86 1.261 . S
C93 O88 1.259 . S
C93 O90 1.235 . S
O94 Co84 2.021 . S
O94 C91 1.238 . S
O95 Co89 2.052 . S
O95 C91 1.241 . S
O96 Co84 2.137 . S
O96 C87 1.247 . S
O97 Co84 2.244 . S
O97 C87 1.272 . S
O97 Co89 2.135 . S
Co98 O99 2.216 1_455 S
Co98 O100 2.091 1_455 S
Co98 O102 2.004 . S
Co98 O108 2.021 . S
Co98 O110 2.137 1_455 S
Co98 O111 2.244 . S
O99 Co98 2.216 1_655 S
O99 C106 1.247 . S
O100 Co98 2.091 1_655 S
O100 C106 1.261 . S
C101 O110 1.247 1_455 S
C101 O111 1.272 . S
O102 Co98 2.004 . S
O102 C107 1.259 . S
Co103 O104 2.061 . S
Co103 O109 2.052 . S
Co103 O111 2.135 . S
O104 Co103 2.061 . S
O104 C107 1.235 . S
C105 O108 1.238 . S
C105 O109 1.241 . S
C106 O99 1.247 . S
C106 O100 1.261 . S
C107 O102 1.259 . S
C107 O104 1.235 . S
O108 Co98 2.021 . S
O108 C105 1.238 . S
O109 Co103 2.052 . S
O109 C105 1.241 . S
O110 Co98 2.137 1_655 S
O110 C101 1.247 1_655 S
O111 Co98 2.244 . S
O111 C101 1.272 . S
O111 Co103 2.135 . S
H112 C113 0.951 . S
C113 H112 0.951 . S
C113 C119 1.265 1_455 S
H114 C119 0.950 . S
H115 C123 0.949 . S
H116 C124 0.950 . S
H117 C125 0.951 . S
H118 C126 0.951 . S
C119 C113 1.265 1_655 S
C119 H114 0.950 . S
C119 C120 1.478 . S
C120 C119 1.478 . S
C120 C121 1.397 . S
C120 C137 1.394 1_655 S
C121 C120 1.397 . S
C121 C122 1.438 . S
C121 C126 1.429 . S
C122 C121 1.438 . S
C122 C123 1.428 . S
C122 C135 1.394 1_655 S
C123 H115 0.949 . S
C123 C122 1.428 . S
C123 C124 1.345 . S
C124 H116 0.950 . S
C124 C123 1.345 . S
C124 C125 1.424 . S
C125 H117 0.951 . S
C125 C124 1.424 . S
C125 C126 1.347 . S
C126 H118 0.951 . S
C126 C121 1.429 . S
C126 C125 1.347 . S
H127 C128 0.951 . S
C128 H127 0.951 . S
C128 C134 1.265 1_655 S
H129 C134 0.950 . S
H130 C138 0.949 . S
H131 C139 0.950 . S
H132 C140 0.951 . S
H133 C141 0.951 . S
C134 C128 1.265 1_455 S
C134 H129 0.950 . S
C134 C135 1.478 . S
C135 C122 1.394 1_455 S
C135 C134 1.478 . S
C135 C136 1.397 . S
C136 C135 1.397 . S
C136 C137 1.438 . S
C136 C141 1.429 . S
C137 C120 1.394 1_455 S
C137 C136 1.438 . S
C137 C138 1.428 . S
C138 H130 0.949 . S
C138 C137 1.428 . S
C138 C139 1.345 . S
C139 H131 0.950 . S
C139 C138 1.345 . S
C139 C140 1.424 . S
C140 H132 0.951 . S
C140 C139 1.424 . S
C140 C141 1.347 . S
C141 H133 0.951 . S
C141 C136 1.429 . S
C141 C140 1.347 . S
H142 C143 0.951 . S
C143 H142 0.951 . S
C143 C149 1.265 . S
H144 C149 0.950 . S
H145 C153 0.949 . S
H146 C154 0.950 . S
H147 C155 0.951 . S
H148 C156 0.951 . S
C149 C143 1.265 . S
C149 H144 0.950 . S
C149 C150 1.478 . S
C150 C149 1.478 . S
C150 C151 1.397 . S
C150 C167 1.394 . S
C151 C150 1.397 . S
C151 C152 1.438 . S
C151 C156 1.429 . S
C152 C151 1.438 . S
C152 C153 1.428 . S
C152 C165 1.394 . S
C153 H145 0.949 . S
C153 C152 1.428 . S
C153 C154 1.345 . S
C154 H146 0.950 . S
C154 C153 1.345 . S
C154 C155 1.424 . S
C155 H147 0.951 . S
C155 C154 1.424 . S
C155 C156 1.347 . S
C156 H148 0.951 . S
C156 C151 1.429 . S
C156 C155 1.347 . S
H157 C158 0.951 . S
C158 H157 0.951 . S
C158 C164 1.265 . S
H159 C164 0.950 . S
H160 C168 0.949 . S
H161 C169 0.950 . S
H162 C170 0.951 . S
H163 C171 0.951 . S
C164 C158 1.265 . S
C164 H159 0.950 . S
C164 C165 1.478 . S
C165 C152 1.394 . S
C165 C164 1.478 . S
C165 C166 1.397 . S
C166 C165 1.397 . S
C166 C167 1.438 . S
C166 C171 1.429 . S
C167 C150 1.394 . S
C167 C166 1.438 . S
C167 C168 1.428 . S
C168 H160 0.949 . S
C168 C167 1.428 . S
C168 C169 1.345 . S
C169 H161 0.950 . S
C169 C168 1.345 . S
C169 C170 1.424 . S
C170 H162 0.951 . S
C170 C169 1.424 . S
C170 C171 1.347 . S
C171 H163 0.951 . S
C171 C166 1.429 . S
C171 C170 1.347 . S
H172 C173 0.951 . S
C173 H172 0.951 . S
C173 C179 1.265 . S
H174 C179 0.950 . S
H175 C183 0.949 1_556 S
H176 C184 0.950 . S
H177 C185 0.951 . S
H178 C186 0.951 . S
C179 C173 1.265 . S
C179 H174 0.950 . S
C179 C180 1.478 . S
C180 C179 1.478 . S
C180 C181 1.397 1_545 S
C180 C197 1.394 1_554 S
C181 C180 1.397 1_565 S
C181 C182 1.438 . S
C181 C186 1.429 . S
C182 C181 1.438 . S
C182 C183 1.428 . S
C182 C195 1.394 1_554 S
C183 H175 0.949 1_554 S
C183 C182 1.428 . S
C183 C184 1.345 . S
C184 H176 0.950 . S
C184 C183 1.345 . S
C184 C185 1.424 . S
C185 H177 0.951 . S
C185 C184 1.424 . S
C185 C186 1.347 . S
C186 H178 0.951 . S
C186 C181 1.429 . S
C186 C185 1.347 . S
H187 C188 0.951 . S
C188 H187 0.951 . S
C188 C194 1.265 . S
H189 C194 0.950 . S
H190 C198 0.949 1_554 S
H191 C199 0.950 . S
H192 C200 0.951 . S
H193 C201 0.951 . S
C194 C188 1.265 . S
C194 H189 0.950 . S
C194 C195 1.478 . S
C195 C182 1.394 1_556 S
C195 C194 1.478 . S
C195 C196 1.397 1_565 S
C196 C195 1.397 1_545 S
C196 C197 1.438 . S
C196 C201 1.429 . S
C197 C180 1.394 1_556 S
C197 C196 1.438 . S
C197 C198 1.428 . S
C198 H190 0.949 1_556 S
C198 C197 1.428 . S
C198 C199 1.345 . S
C199 H191 0.950 . S
C199 C198 1.345 . S
C199 C200 1.424 . S
C200 H192 0.951 . S
C200 C199 1.424 . S
C200 C201 1.347 . S
C201 H193 0.951 . S
C201 C196 1.429 . S
C201 C200 1.347 . S
H202 C203 0.951 . S
C203 H202 0.951 . S
C203 C209 1.265 1_655 S
H204 C209 0.950 . S
H205 C213 0.949 1_545 S
H206 C214 0.950 . S
H207 C215 0.951 . S
H208 C216 0.951 1_554 S
C209 C203 1.265 1_455 S
C209 H204 0.950 . S
C209 C210 1.478 . S
C210 C209 1.478 . S
C210 C211 1.397 1_554 S
C210 C227 1.394 1_465 S
C211 C210 1.397 1_556 S
C211 C212 1.438 . S
C211 C216 1.429 . S
C212 C211 1.438 . S
C212 C213 1.428 . S
C212 C225 1.394 1_465 S
C213 H205 0.949 1_565 S
C213 C212 1.428 . S
C213 C214 1.345 . S
C214 H206 0.950 . S
C214 C213 1.345 . S
C214 C215 1.424 . S
C215 H207 0.951 . S
C215 C214 1.424 . S
C215 C216 1.347 . S
C216 H208 0.951 1_556 S
C216 C211 1.429 . S
C216 C215 1.347 . S
H217 C218 0.951 . S
C218 H217 0.951 . S
C218 C224 1.265 1_455 S
H219 C224 0.950 . S
H220 C228 0.949 1_565 S
H221 C229 0.950 . S
H222 C230 0.951 . S
H223 C231 0.951 1_556 S
C224 C218 1.265 1_655 S
C224 H219 0.950 . S
C224 C225 1.478 . S
C225 C212 1.394 1_645 S
C225 C224 1.478 . S
C225 C226 1.397 1_556 S
C226 C225 1.397 1_554 S
C226 C227 1.438 . S
C226 C231 1.429 . S
C227 C210 1.394 1_645 S
C227 C226 1.438 . S
C227 C228 1.428 . S
C228 H220 0.949 1_545 S
C228 C227 1.428 . S
C228 C229 1.345 . S
C229 H221 0.950 . S
C229 C228 1.345 . S
C229 C230 1.424 . S
C230 H222 0.951 . S
C230 C229 1.424 . S
C230 C231 1.347 . S
C231 H223 0.951 1_554 S
C231 C226 1.429 . S
C231 C230 1.347 . S
H232 C233 0.951 . S
C233 H232 0.951 . S
C233 C239 1.265 . S
H234 C239 0.950 . S
H235 C243 0.949 . S
H236 C244 0.950 . S
H237 C245 0.951 . S
H238 C246 0.951 . S
C239 C233 1.265 . S
C239 H234 0.950 . S
C239 C240 1.478 . S
C240 C239 1.478 . S
C240 C241 1.397 . S
C240 C257 1.394 . S
C241 C240 1.397 . S
C241 C242 1.438 . S
C241 C246 1.429 . S
C242 C241 1.438 . S
C242 C243 1.428 . S
C242 C255 1.394 . S
C243 H235 0.949 . S
C243 C242 1.428 . S
C243 C244 1.345 . S
C244 H236 0.950 . S
C244 C243 1.345 . S
C244 C245 1.424 . S
C245 H237 0.951 . S
C245 C244 1.424 . S
C245 C246 1.347 . S
C246 H238 0.951 . S
C246 C241 1.429 . S
C246 C245 1.347 . S
H247 C248 0.951 . S
C248 H247 0.951 . S
C248 C254 1.265 . S
H249 C254 0.950 . S
H250 C258 0.949 . S
H251 C259 0.950 . S
H252 C260 0.951 . S
H253 C261 0.951 . S
C254 C248 1.265 . S
C254 H249 0.950 . S
C254 C255 1.478 . S
C255 C242 1.394 . S
C255 C254 1.478 . S
C255 C256 1.397 . S
C256 C255 1.397 . S
C256 C257 1.438 . S
C256 C261 1.429 . S
C257 C240 1.394 . S
C257 C256 1.438 . S
C257 C258 1.428 . S
C258 H250 0.949 . S
C258 C257 1.428 . S
C258 C259 1.345 . S
C259 H251 0.950 . S
C259 C258 1.345 . S
C259 C260 1.424 . S
C260 H252 0.951 . S
C260 C259 1.424 . S
C260 C261 1.347 . S
C261 H253 0.951 . S
C261 C256 1.429 . S
C261 C260 1.347 . S
H262 C263 0.951 . S
C263 H262 0.951 . S
C263 C269 1.265 . S
H264 C269 0.950 . S
H265 C273 0.949 . S
H266 C274 0.950 . S
H267 C275 0.951 . S
H268 C276 0.951 . S
C269 C263 1.265 . S
C269 H264 0.950 . S
C269 C270 1.478 . S
C270 C269 1.478 . S
C270 C271 1.397 . S
C270 C287 1.394 . S
C271 C270 1.397 . S
C271 C272 1.438 . S
C271 C276 1.429 . S
C272 C271 1.438 . S
C272 C273 1.428 . S
C272 C285 1.394 . S
C273 H265 0.949 . S
C273 C272 1.428 . S
C273 C274 1.345 . S
C274 H266 0.950 . S
C274 C273 1.345 . S
C274 C275 1.424 . S
C275 H267 0.951 . S
C275 C274 1.424 . S
C275 C276 1.347 . S
C276 H268 0.951 . S
C276 C271 1.429 . S
C276 C275 1.347 . S
H277 C278 0.951 . S
C278 H277 0.951 . S
C278 C284 1.265 . S
H279 C284 0.950 . S
H280 C288 0.949 . S
H281 C289 0.950 . S
H282 C290 0.951 . S
H283 C291 0.951 . S
C284 C278 1.265 . S
C284 H279 0.950 . S
C284 C285 1.478 . S
C285 C272 1.394 . S
C285 C284 1.478 . S
C285 C286 1.397 . S
C286 C285 1.397 . S
C286 C287 1.438 . S
C286 C291 1.429 . S
C287 C270 1.394 . S
C287 C286 1.438 . S
C287 C288 1.428 . S
C288 H280 0.949 . S
C288 C287 1.428 . S
C288 C289 1.345 . S
C289 H281 0.950 . S
C289 C288 1.345 . S
C289 C290 1.424 . S
C290 H282 0.951 . S
C290 C289 1.424 . S
C290 C291 1.347 . S
C291 H283 0.951 . S
C291 C286 1.429 . S
C291 C290 1.347 . S
H292 C293 0.951 . S
C293 H292 0.951 . S
C293 C299 1.265 . S
H294 C299 0.950 . S
H295 C303 0.949 . S
H296 C304 0.950 . S
H297 C305 0.951 . S
H298 C306 0.951 . S
C299 C293 1.265 . S
C299 H294 0.950 . S
C299 C300 1.478 . S
C300 C299 1.478 . S
C300 C301 1.397 . S
C300 C317 1.394 . S
C301 C300 1.397 . S
C301 C302 1.438 . S
C301 C306 1.429 . S
C302 C301 1.438 . S
C302 C303 1.428 . S
C302 C315 1.394 . S
C303 H295 0.949 . S
C303 C302 1.428 . S
C303 C304 1.345 . S
C304 H296 0.950 . S
C304 C303 1.345 . S
C304 C305 1.424 . S
C305 H297 0.951 . S
C305 C304 1.424 . S
C305 C306 1.347 . S
C306 H298 0.951 . S
C306 C301 1.429 . S
C306 C305 1.347 . S
H307 C308 0.951 . S
C308 H307 0.951 . S
C308 C314 1.265 . S
H309 C314 0.950 . S
H310 C318 0.949 . S
H311 C319 0.950 . S
H312 C320 0.951 . S
H313 C321 0.951 . S
C314 C308 1.265 . S
C314 H309 0.950 . S
C314 C315 1.478 . S
C315 C302 1.394 . S
C315 C314 1.478 . S
C315 C316 1.397 . S
C316 C315 1.397 . S
C316 C317 1.438 . S
C316 C321 1.429 . S
C317 C300 1.394 . S
C317 C316 1.438 . S
C317 C318 1.428 . S
C318 H310 0.949 . S
C318 C317 1.428 . S
C318 C319 1.345 . S
C319 H311 0.950 . S
C319 C318 1.345 . S
C319 C320 1.424 . S
C320 H312 0.951 . S
C320 C319 1.424 . S
C320 C321 1.347 . S
C321 H313 0.951 . S
C321 C316 1.429 . S
C321 C320 1.347 . S
H322 C323 0.951 . S
C323 H322 0.951 . S
C323 C329 1.265 . S
H324 C329 0.950 . S
H325 C333 0.949 . S
H326 C334 0.950 . S
H327 C335 0.951 . S
H328 C336 0.951 . S
C329 C323 1.265 . S
C329 H324 0.950 . S
C329 C330 1.478 . S
C330 C329 1.478 . S
C330 C331 1.397 . S
C330 C347 1.394 . S
C331 C330 1.397 . S
C331 C332 1.438 . S
C331 C336 1.429 . S
C332 C331 1.438 . S
C332 C333 1.428 . S
C332 C345 1.394 . S
C333 H325 0.949 . S
C333 C332 1.428 . S
C333 C334 1.345 . S
C334 H326 0.950 . S
C334 C333 1.345 . S
C334 C335 1.424 . S
C335 H327 0.951 . S
C335 C334 1.424 . S
C335 C336 1.347 . S
C336 H328 0.951 . S
C336 C331 1.429 . S
C336 C335 1.347 . S
H337 C338 0.951 . S
C338 H337 0.951 . S
C338 C344 1.265 . S
H339 C344 0.950 . S
H340 C348 0.949 . S
H341 C349 0.950 . S
H342 C350 0.951 . S
H343 C351 0.951 . S
C344 C338 1.265 . S
C344 H339 0.950 . S
C344 C345 1.478 . S
C345 C332 1.394 . S
C345 C344 1.478 . S
C345 C346 1.397 . S
C346 C345 1.397 . S
C346 C347 1.438 . S
C346 C351 1.429 . S
C347 C330 1.394 . S
C347 C346 1.438 . S
C347 C348 1.428 . S
C348 H340 0.949 . S
C348 C347 1.428 . S
C348 C349 1.345 . S
C349 H341 0.950 . S
C349 C348 1.345 . S
C349 C350 1.424 . S
C350 H342 0.951 . S
C350 C349 1.424 . S
C350 C351 1.347 . S
C351 H343 0.951 . S
C351 C346 1.429 . S
C351 C350 1.347 . S
H352 C353 0.951 . S
C353 H352 0.951 . S
C353 C359 1.265 . S
H354 C359 0.950 . S
H355 C363 0.949 . S
H356 C364 0.950 . S
H357 C365 0.951 . S
H358 C366 0.951 . S
C359 C353 1.265 . S
C359 H354 0.950 . S
C359 C360 1.478 . S
C360 C359 1.478 . S
C360 C361 1.397 . S
C360 C377 1.394 . S
C361 C360 1.397 . S
C361 C362 1.438 . S
C361 C366 1.429 . S
C362 C361 1.438 . S
C362 C363 1.428 . S
C362 C375 1.394 . S
C363 H355 0.949 . S
C363 C362 1.428 . S
C363 C364 1.345 . S
C364 H356 0.950 . S
C364 C363 1.345 . S
C364 C365 1.424 . S
C365 H357 0.951 . S
C365 C364 1.424 . S
C365 C366 1.347 . S
C366 H358 0.951 . S
C366 C361 1.429 . S
C366 C365 1.347 . S
H367 C368 0.951 . S
C368 H367 0.951 . S
C368 C374 1.265 . S
H369 C374 0.950 . S
H370 C378 0.949 . S
H371 C379 0.950 . S
H372 C380 0.951 . S
H373 C381 0.951 . S
C374 C368 1.265 . S
C374 H369 0.950 . S
C374 C375 1.478 . S
C375 C362 1.394 . S
C375 C374 1.478 . S
C375 C376 1.397 . S
C376 C375 1.397 . S
C376 C377 1.438 . S
C376 C381 1.429 . S
C377 C360 1.394 . S
C377 C376 1.438 . S
C377 C378 1.428 . S
C378 H370 0.949 . S
C378 C377 1.428 . S
C378 C379 1.345 . S
C379 H371 0.950 . S
C379 C378 1.345 . S
C379 C380 1.424 . S
C380 H372 0.951 . S
C380 C379 1.424 . S
C380 C381 1.347 . S
C381 H373 0.951 . S
C381 C376 1.429 . S
C381 C380 1.347 . S
H382 C383 0.951 . S
C383 H382 0.951 . S
C383 C389 1.265 . S
H384 C389 0.950 . S
H385 C393 0.949 . S
H386 C394 0.950 . S
H387 C395 0.951 . S
H388 C396 0.951 . S
C389 C383 1.265 . S
C389 H384 0.950 . S
C389 C390 1.478 . S
C390 C389 1.478 . S
C390 C391 1.397 . S
C390 C407 1.394 . S
C391 C390 1.397 . S
C391 C392 1.438 . S
C391 C396 1.429 . S
C392 C391 1.438 . S
C392 C393 1.428 . S
C392 C405 1.394 . S
C393 H385 0.949 . S
C393 C392 1.428 . S
C393 C394 1.345 . S
C394 H386 0.950 . S
C394 C393 1.345 . S
C394 C395 1.424 . S
C395 H387 0.951 . S
C395 C394 1.424 . S
C395 C396 1.347 . S
C396 H388 0.951 . S
C396 C391 1.429 . S
C396 C395 1.347 . S
H397 C398 0.951 . S
C398 H397 0.951 . S
C398 C404 1.265 . S
H399 C404 0.950 . S
H400 C408 0.949 . S
H401 C409 0.950 . S
H402 C410 0.951 . S
H403 C411 0.951 . S
C404 C398 1.265 . S
C404 H399 0.950 . S
C404 C405 1.478 . S
C405 C392 1.394 . S
C405 C404 1.478 . S
C405 C406 1.397 . S
C406 C405 1.397 . S
C406 C407 1.438 . S
C406 C411 1.429 . S
C407 C390 1.394 . S
C407 C406 1.438 . S
C407 C408 1.428 . S
C408 H400 0.949 . S
C408 C407 1.428 . S
C408 C409 1.345 . S
C409 H401 0.950 . S
C409 C408 1.345 . S
C409 C410 1.424 . S
C410 H402 0.951 . S
C410 C409 1.424 . S
C410 C411 1.347 . S
C411 H403 0.951 . S
C411 C406 1.429 . S
C411 C410 1.347 . S
H412 C413 0.951 . S
C413 H412 0.951 . S
C413 C419 1.265 . S
H414 C419 0.950 . S
H415 C423 0.949 . S
H416 C424 0.950 . S
H417 C425 0.951 . S
H418 C426 0.951 . S
C419 C413 1.265 . S
C419 H414 0.950 . S
C419 C420 1.478 . S
C420 C419 1.478 . S
C420 C421 1.397 . S
C420 C437 1.394 . S
C421 C420 1.397 . S
C421 C422 1.438 . S
C421 C426 1.429 . S
C422 C421 1.438 . S
C422 C423 1.428 . S
C422 C435 1.394 . S
C423 H415 0.949 . S
C423 C422 1.428 . S
C423 C424 1.345 . S
C424 H416 0.950 . S
C424 C423 1.345 . S
C424 C425 1.424 . S
C425 H417 0.951 . S
C425 C424 1.424 . S
C425 C426 1.347 . S
C426 H418 0.951 . S
C426 C421 1.429 . S
C426 C425 1.347 . S
H427 C428 0.951 . S
C428 H427 0.951 . S
C428 C434 1.265 . S
H429 C434 0.950 . S
H430 C438 0.949 . S
H431 C439 0.950 . S
H432 C440 0.951 . S
H433 C441 0.951 . S
C434 C428 1.265 . S
C434 H429 0.950 . S
C434 C435 1.478 . S
C435 C422 1.394 . S
C435 C434 1.478 . S
C435 C436 1.397 . S
C436 C435 1.397 . S
C436 C437 1.438 . S
C436 C441 1.429 . S
C437 C420 1.394 . S
C437 C436 1.438 . S
C437 C438 1.428 . S
C438 H430 0.949 . S
C438 C437 1.428 . S
C438 C439 1.345 . S
C439 H431 0.950 . S
C439 C438 1.345 . S
C439 C440 1.424 . S
C440 H432 0.951 . S
C440 C439 1.424 . S
C440 C441 1.347 . S
C441 H433 0.951 . S
C441 C436 1.429 . S
C441 C440 1.347 . S
H442 C443 0.951 . S
C443 H442 0.951 . S
C443 C449 1.265 . S
H444 C449 0.950 . S
H445 C453 0.949 . S
H446 C454 0.950 . S
H447 C455 0.951 . S
H448 C456 0.951 . S
C449 C443 1.265 . S
C449 H444 0.950 . S
C449 C450 1.478 . S
C450 C449 1.478 . S
C450 C451 1.397 . S
C450 C467 1.394 . S
C451 C450 1.397 . S
C451 C452 1.438 . S
C451 C456 1.429 . S
C452 C451 1.438 . S
C452 C453 1.428 . S
C452 C465 1.394 . S
C453 H445 0.949 . S
C453 C452 1.428 . S
C453 C454 1.345 . S
C454 H446 0.950 . S
C454 C453 1.345 . S
C454 C455 1.424 . S
C455 H447 0.951 . S
C455 C454 1.424 . S
C455 C456 1.347 . S
C456 H448 0.951 . S
C456 C451 1.429 . S
C456 C455 1.347 . S
H457 C458 0.951 . S
C458 H457 0.951 . S
C458 C464 1.265 . S
H459 C464 0.950 . S
H460 C468 0.949 . S
H461 C469 0.950 . S
H462 C470 0.951 . S
H463 C471 0.951 . S
C464 C458 1.265 . S
C464 H459 0.950 . S
C464 C465 1.478 . S
C465 C452 1.394 . S
C465 C464 1.478 . S
C465 C466 1.397 . S
C466 C465 1.397 . S
C466 C467 1.438 . S
C466 C471 1.429 . S
C467 C450 1.394 . S
C467 C466 1.438 . S
C467 C468 1.428 . S
C468 H460 0.949 . S
C468 C467 1.428 . S
C468 C469 1.345 . S
C469 H461 0.950 . S
C469 C468 1.345 . S
C469 C470 1.424 . S
C470 H462 0.951 . S
C470 C469 1.424 . S
C470 C471 1.347 . S
C471 H463 0.951 . S
C471 C466 1.429 . S
C471 C470 1.347 . S
H472 C473 0.951 . S
C473 H472 0.951 . S
C473 C479 1.265 . S
H474 C479 0.950 . S
H475 C483 0.949 . S
H476 C484 0.950 . S
H477 C485 0.951 . S
H478 C486 0.951 . S
C479 C473 1.265 . S
C479 H474 0.950 . S
C479 C480 1.478 . S
C480 C479 1.478 . S
C480 C481 1.397 . S
C480 C497 1.394 . S
C481 C480 1.397 . S
C481 C482 1.438 . S
C481 C486 1.429 . S
C482 C481 1.438 . S
C482 C483 1.428 . S
C482 C495 1.394 . S
C483 H475 0.949 . S
C483 C482 1.428 . S
C483 C484 1.345 . S
C484 H476 0.950 . S
C484 C483 1.345 . S
C484 C485 1.424 . S
C485 H477 0.951 . S
C485 C484 1.424 . S
C485 C486 1.347 . S
C486 H478 0.951 . S
C486 C481 1.429 . S
C486 C485 1.347 . S
H487 C488 0.951 . S
C488 H487 0.951 . S
C488 C494 1.265 . S
H489 C494 0.950 . S
H490 C498 0.949 . S
H491 C499 0.950 . S
H492 C500 0.951 . S
H493 C501 0.951 . S
C494 C488 1.265 . S
C494 H489 0.950 . S
C494 C495 1.478 . S
C495 C482 1.394 . S
C495 C494 1.478 . S
C495 C496 1.397 . S
C496 C495 1.397 . S
C496 C497 1.438 . S
C496 C501 1.429 . S
C497 C480 1.394 . S
C497 C496 1.438 . S
C497 C498 1.428 . S
C498 H490 0.949 . S
C498 C497 1.428 . S
C498 C499 1.345 . S
C499 H491 0.950 . S
C499 C498 1.345 . S
C499 C500 1.424 . S
C500 H492 0.951 . S
C500 C499 1.424 . S
C500 C501 1.347 . S
C501 H493 0.951 . S
C501 C496 1.429 . S
C501 C500 1.347 . S
H502 C503 0.951 . S
C503 H502 0.951 . S
C503 C509 1.265 . S
H504 C509 0.950 . S
H505 C513 0.949 . S
H506 C514 0.950 . S
H507 C515 0.951 . S
H508 C516 0.951 . S
C509 C503 1.265 . S
C509 H504 0.950 . S
C509 C510 1.478 . S
C510 C509 1.478 . S
C510 C511 1.397 . S
C510 C527 1.394 . S
C511 C510 1.397 . S
C511 C512 1.438 . S
C511 C516 1.429 . S
C512 C511 1.438 . S
C512 C513 1.428 . S
C512 C525 1.394 . S
C513 H505 0.949 . S
C513 C512 1.428 . S
C513 C514 1.345 . S
C514 H506 0.950 . S
C514 C513 1.345 . S
C514 C515 1.424 . S
C515 H507 0.951 . S
C515 C514 1.424 . S
C515 C516 1.347 . S
C516 H508 0.951 . S
C516 C511 1.429 . S
C516 C515 1.347 . S
H517 C518 0.951 . S
C518 H517 0.951 . S
C518 C524 1.265 . S
H519 C524 0.950 . S
H520 C528 0.949 . S
H521 C529 0.950 . S
H522 C530 0.951 . S
H523 C531 0.951 . S
C524 C518 1.265 . S
C524 H519 0.950 . S
C524 C525 1.478 . S
C525 C512 1.394 . S
C525 C524 1.478 . S
C525 C526 1.397 . S
C526 C525 1.397 . S
C526 C527 1.438 . S
C526 C531 1.429 . S
C527 C510 1.394 . S
C527 C526 1.438 . S
C527 C528 1.428 . S
C528 H520 0.949 . S
C528 C527 1.428 . S
C528 C529 1.345 . S
C529 H521 0.950 . S
C529 C528 1.345 . S
C529 C530 1.424 . S
C530 H522 0.951 . S
C530 C529 1.424 . S
C530 C531 1.347 . S
C531 H523 0.951 . S
C531 C526 1.429 . S
C531 C530 1.347 . S
H532 C533 0.951 . S
C533 H532 0.951 . S
C533 C539 1.265 . S
H534 C539 0.950 . S
H535 C543 0.949 . S
H536 C544 0.950 . S
H537 C545 0.951 . S
H538 C546 0.951 . S
C539 C533 1.265 . S
C539 H534 0.950 . S
C539 C540 1.478 . S
C540 C539 1.478 . S
C540 C541 1.397 1_554 S
C540 C557 1.394 . S
C541 C540 1.397 1_556 S
C541 C542 1.438 . S
C541 C546 1.429 . S
C542 C541 1.438 . S
C542 C543 1.428 . S
C542 C555 1.394 . S
C543 H535 0.949 . S
C543 C542 1.428 . S
C543 C544 1.345 . S
C544 H536 0.950 . S
C544 C543 1.345 . S
C544 C545 1.424 . S
C545 H537 0.951 . S
C545 C544 1.424 . S
C545 C546 1.347 . S
C546 H538 0.951 . S
C546 C541 1.429 . S
C546 C545 1.347 . S
H547 C548 0.951 . S
C548 H547 0.951 . S
C548 C554 1.265 . S
H549 C554 0.950 . S
H550 C558 0.949 . S
H551 C559 0.950 . S
H552 C560 0.951 . S
H553 C561 0.951 . S
C554 C548 1.265 . S
C554 H549 0.950 . S
C554 C555 1.478 . S
C555 C542 1.394 . S
C555 C554 1.478 . S
C555 C556 1.397 1_556 S
C556 C555 1.397 1_554 S
C556 C557 1.438 . S
C556 C561 1.429 . S
C557 C540 1.394 . S
C557 C556 1.438 . S
C557 C558 1.428 . S
C558 H550 0.949 . S
C558 C557 1.428 . S
C558 C559 1.345 . S
C559 H551 0.950 . S
C559 C558 1.345 . S
C559 C560 1.424 . S
C560 H552 0.951 . S
C560 C559 1.424 . S
C560 C561 1.347 . S
C561 H553 0.951 . S
C561 C556 1.429 . S
C561 C560 1.347 . S
H562 C563 0.951 . S
C563 H562 0.951 . S
C563 C569 1.265 . S
H564 C569 0.950 . S
H565 C573 0.949 . S
H566 C574 0.950 . S
H567 C575 0.951 . S
H568 C576 0.951 1_554 S
C569 C563 1.265 . S
C569 H564 0.950 . S
C569 C570 1.478 . S
C570 C569 1.478 . S
C570 C571 1.397 1_554 S
C570 C587 1.394 . S
C571 C570 1.397 1_556 S
C571 C572 1.438 . S
C571 C576 1.429 . S
C572 C571 1.438 . S
C572 C573 1.428 . S
C572 C585 1.394 . S
C573 H565 0.949 . S
C573 C572 1.428 . S
C573 C574 1.345 . S
C574 H566 0.950 . S
C574 C573 1.345 . S
C574 C575 1.424 . S
C575 H567 0.951 . S
C575 C574 1.424 . S
C575 C576 1.347 . S
C576 H568 0.951 1_556 S
C576 C571 1.429 . S
C576 C575 1.347 . S
H577 C578 0.951 . S
C578 H577 0.951 . S
C578 C584 1.265 . S
H579 C584 0.950 . S
H580 C588 0.949 . S
H581 C589 0.950 . S
H582 C590 0.951 . S
H583 C591 0.951 1_556 S
C584 C578 1.265 . S
C584 H579 0.950 . S
C584 C585 1.478 . S
C585 C572 1.394 . S
C585 C584 1.478 . S
C585 C586 1.397 1_556 S
C586 C585 1.397 1_554 S
C586 C587 1.438 . S
C586 C591 1.429 . S
C587 C570 1.394 . S
C587 C586 1.438 . S
C587 C588 1.428 . S
C588 H580 0.949 . S
C588 C587 1.428 . S
C588 C589 1.345 . S
C589 H581 0.950 . S
C589 C588 1.345 . S
C589 C590 1.424 . S
C590 H582 0.951 . S
C590 C589 1.424 . S
C590 C591 1.347 . S
C591 H583 0.951 1_554 S
C591 C586 1.429 . S
C591 C590 1.347 . S
C113 C3 1.537 . S
C128 C31 1.537 . S
C143 C45 1.551 . S
C158 C17 1.551 . S
C173 C87 1.534 . S
C188 C59 1.534 . S
C203 C73 1.530 . S
C218 C101 1.530 . S
C233 C92 1.773 . S
C248 C8 1.773 . S
C263 C22 1.788 . S
C278 C106 1.788 . S
C293 C36 1.783 . S
C308 C64 1.783 . S
C323 C50 1.796 . S
C338 C78 1.796 . S
C353 C91 1.541 . S
C368 C7 1.541 . S
C383 C21 1.458 . S
C398 C105 1.458 . S
C413 C63 1.461 . S
C428 C35 1.461 . S
C443 C77 1.463 . S
C458 C49 1.463 . S
C473 C23 0.633 . S
C488 C9 0.628 . S
C503 C37 0.623 . S
C518 C51 0.638 . S
C533 C79 0.669 . S
C548 C65 0.371 . S
C563 C93 0.492 . S
C578 C107 0.511 . S
