# Generated by pormake.
# Topology wje, (4)-cn, num edge types: 1
# Building blocks:
#     Node 0, Type 0, BuildingBlock: AZAVOO_clean_sbu_0, # of connection points: 4
#     Node 1, Type 0, BuildingBlock: AZAVOO_clean_sbu_0, # of connection points: 4
#     Node 2, Type 0, BuildingBlock: AZAVOO_clean_sbu_0, # of connection points: 4
#     Node 3, Type 0, BuildingBlock: AZAVOO_clean_sbu_0, # of connection points: 4
#     Node 4, Type 0, BuildingBlock: AZAVOO_clean_sbu_0, # of connection points: 4
#     Node 5, Type 0, BuildingBlock: AZAVOO_clean_sbu_0, # of connection points: 4
#     Node 6, Type 0, BuildingBlock: AZAVOO_clean_sbu_0, # of connection points: 4
#     Node 7, Type 0, BuildingBlock: AZAVOO_clean_sbu_0, # of connection points: 4
#     Node 8, Type 0, BuildingBlock: AZAVOO_clean_sbu_0, # of connection points: 4
#     Node 9, Type 0, BuildingBlock: AZAVOO_clean_sbu_0, # of connection points: 4
#     Node 10, Type 0, BuildingBlock: AZAVOO_clean_sbu_0, # of connection points: 4
#     Node 11, Type 0, BuildingBlock: AZAVOO_clean_sbu_0, # of connection points: 4
#     Edge 12, Type (0, 0), BuildingBlock: ZUJKAS_clean_linker_0, # of connection points: 2
#     Edge 13, Type (0, 0), BuildingBlock: ZUJKAS_clean_linker_0, # of connection points: 2
#     Edge 14, Type (0, 0), BuildingBlock: ZUJKAS_clean_linker_0, # of connection points: 2
#     Edge 15, Type (0, 0), BuildingBlock: ZUJKAS_clean_linker_0, # of connection points: 2
#     Edge 16, Type (0, 0), BuildingBlock: ZUJKAS_clean_linker_0, # of connection points: 2
#     Edge 17, Type (0, 0), BuildingBlock: ZUJKAS_clean_linker_0, # of connection points: 2
#     Edge 18, Type (0, 0), BuildingBlock: ZUJKAS_clean_linker_0, # of connection points: 2
#     Edge 19, Type (0, 0), BuildingBlock: ZUJKAS_clean_linker_0, # of connection points: 2
#     Edge 20, Type (0, 0), BuildingBlock: ZUJKAS_clean_linker_0, # of connection points: 2
#     Edge 21, Type (0, 0), BuildingBlock: ZUJKAS_clean_linker_0, # of connection points: 2
#     Edge 22, Type (0, 0), BuildingBlock: ZUJKAS_clean_linker_0, # of connection points: 2
#     Edge 23, Type (0, 0), BuildingBlock: ZUJKAS_clean_linker_0, # of connection points: 2
#     Edge 24, Type (0, 0), BuildingBlock: ZUJKAS_clean_linker_0, # of connection points: 2
#     Edge 25, Type (0, 0), BuildingBlock: ZUJKAS_clean_linker_0, # of connection points: 2
#     Edge 26, Type (0, 0), BuildingBlock: ZUJKAS_clean_linker_0, # of connection points: 2
#     Edge 27, Type (0, 0), BuildingBlock: ZUJKAS_clean_linker_0, # of connection points: 2
#     Edge 28, Type (0, 0), BuildingBlock: ZUJKAS_clean_linker_0, # of connection points: 2
#     Edge 29, Type (0, 0), BuildingBlock: ZUJKAS_clean_linker_0, # of connection points: 2
#     Edge 30, Type (0, 0), BuildingBlock: ZUJKAS_clean_linker_0, # of connection points: 2
#     Edge 31, Type (0, 0), BuildingBlock: ZUJKAS_clean_linker_0, # of connection points: 2
#     Edge 32, Type (0, 0), BuildingBlock: ZUJKAS_clean_linker_0, # of connection points: 2
#     Edge 33, Type (0, 0), BuildingBlock: ZUJKAS_clean_linker_0, # of connection points: 2
#     Edge 34, Type (0, 0), BuildingBlock: ZUJKAS_clean_linker_0, # of connection points: 2
#     Edge 35, Type (0, 0), BuildingBlock: ZUJKAS_clean_linker_0, # of connection points: 2
# Relax obj value: 0.166
# Max RMSD: 0.141
# Mean RMSD: 0.140
data_MOF--net-wje--node1-AZAVOO_clean_sbu_0--edge1-ZUJKAS_clean_linker_0
_symmetry_space_group_name_H-M    P1
_symmetry_Int_Tables_number       1
_symmetry_cell_setting            triclinic
loop_
_symmetry_equiv_pos_as_xyz
'x, y, z'
_cell_length_a     57.029704
_cell_length_b     57.003706
_cell_length_c     38.960947
_cell_angle_alpha  89.934862
_cell_angle_beta   90.012986
_cell_angle_gamma 119.98131
loop_
_atom_site_label
_atom_site_type_symbol
_atom_site_fract_x
_atom_site_fract_y
_atom_site_fract_z
_atom_type_partial_charge
Mg0 Mg 0.31874 0.99153 0.24384 0.0
O1 O 0.32903 0.00106 0.30061 0.0
O2 O 0.37142 0.03511 0.30642 0.0
Mg3 Mg 0.38751 0.04892 0.25184 0.0
C4 C 0.349 0.0171 0.31933 0.0
C5 C 0.26329 0.93972 0.25472 0.0
O6 O 0.27624 0.92976 0.23772 0.0
O7 O 0.31328 0.02807 0.23791 0.0
O8 O 0.35592 0.06221 0.24204 0.0
O9 O 0.33641 0.96448 0.24558 0.0
O10 O 0.35959 0.00796 0.23198 0.0
C11 C 0.33062 0.05333 0.23768 0.0
C12 C 0.3594 0.98567 0.23824 0.0
O13 O 0.27498 0.96506 0.25996 0.0
Mg14 Mg 0.32397 0.32035 0.57666 0.0
O15 O 0.32659 0.33036 0.63387 0.0
O16 O 0.33287 0.37191 0.64104 0.0
Mg17 Mg 0.33269 0.38795 0.58725 0.0
C18 C 0.33016 0.3499 0.65322 0.0
C19 C 0.30666 0.25832 0.57229 0.0
O20 O 0.31294 0.26388 0.53971 0.0
O21 O 0.28116 0.31313 0.57353 0.0
O22 O 0.28799 0.35509 0.58019 0.0
O23 O 0.36877 0.33949 0.57562 0.0
O24 O 0.34659 0.36135 0.56486 0.0
C25 C 0.27233 0.32969 0.57559 0.0
C26 C 0.36933 0.36209 0.56938 0.0
O27 O 0.30874 0.27685 0.59224 0.0
Mg28 Mg -0.00504 0.32148 0.91123 0.0
O29 O 0.98424 0.32051 0.96786 0.0
O30 O 0.94705 0.32378 0.97329 0.0
Mg31 Mg 0.93333 0.32586 0.91863 0.0
C32 C 0.96647 0.32174 0.98641 0.0
C33 C 0.04964 0.32353 0.92419 0.0
O34 O 0.05831 0.34704 0.909 0.0
O35 O 0.96121 0.27802 0.90432 0.0
O36 O 0.9245 0.28246 0.90792 0.0
O37 O 0.01848 0.36649 0.91377 0.0
O38 O 0.97519 0.3429 0.89955 0.0
C39 C 0.93558 0.26795 0.90356 0.0
C40 C -0.00388 0.36601 0.90629 0.0
O41 O 0.02434 0.3077 0.92751 0.0
Mg42 Mg 0.66086 -0.00105 0.24092 0.0
O43 O 0.65305 0.98936 0.29812 0.0
O44 O 0.61358 0.95134 0.30566 0.0
Mg45 Mg 0.59654 0.9359 0.25193 0.0
C46 C 0.63495 0.97156 0.31766 0.0
C47 C 0.71243 0.05512 0.25088 0.0
O48 O 0.69626 0.06262 0.23683 0.0
O49 O 0.67216 0.9663 0.23417 0.0
O50 O 0.63197 0.92862 0.23996 0.0
O51 O 0.63794 0.021 0.24394 0.0
O52 O 0.61936 0.9775 0.23128 0.0
C53 C 0.65747 0.94054 0.23441 0.0
C54 C 0.61639 -0.00199 0.23777 0.0
O55 O 0.70411 0.03005 0.25468 0.0
Mg56 Mg 0.65723 0.66408 0.57015 0.0
O57 O 0.65685 0.65659 0.6278 0.0
O58 O 0.65392 0.61663 0.63724 0.0
Mg59 Mg 0.6532 0.59872 0.58434 0.0
C60 C 0.65536 0.6384 0.64822 0.0
C61 C 0.65373 0.7163 0.57706 0.0
O62 O 0.63065 0.70031 0.56164 0.0
O63 O 0.70096 0.67396 0.56613 0.0
O64 O 0.69662 0.63307 0.5733 0.0
O65 O 0.61222 0.64234 0.57088 0.0
O66 O 0.63639 0.62248 0.56106 0.0
C67 C 0.71113 0.65849 0.56757 0.0
C68 C 0.61306 0.62033 0.56585 0.0
O69 O 0.67006 0.70769 0.58271 0.0
Mg70 Mg 0.9867 0.65631 0.90585 0.0
O71 O -0.00481 0.65597 0.96304 0.0
O72 O 0.03097 0.6506 0.97071 0.0
Mg73 Mg 0.04585 0.64812 0.9169 0.0
C74 C 0.01176 0.65356 0.98265 0.0
C75 C 0.93501 0.6619 0.90737 0.0
O76 O 0.92755 0.64325 0.8835 0.0
O77 O 0.0222 0.69905 0.90038 0.0
O78 O 0.05746 0.69237 0.90591 0.0
O79 O 0.9611 0.61147 0.90747 0.0
O80 O 0.00491 0.63327 0.89557 0.0
C81 C 0.04765 0.70794 0.90076 0.0
C82 C 0.98302 0.61068 0.90132 0.0
O83 O 0.95852 0.67193 0.92025 0.0
Mg84 Mg -0.00495 0.66788 0.4232 0.0
O85 O 0.9853 0.65736 0.36656 0.0
O86 O 0.94938 0.61602 0.36114 0.0
Mg87 Mg 0.93559 0.60036 0.4159 0.0
C88 C 0.96834 0.63779 0.348 0.0
C89 C 0.03696 0.73075 0.42682 0.0
O90 O 0.03523 0.7264 0.46009 0.0
O91 O 0.95984 0.6755 0.42888 0.0
O92 O 0.92448 0.63347 0.42586 0.0
O93 O 0.02054 0.64853 0.42188 0.0
O94 O 0.97702 0.62693 0.43543 0.0
C95 C 0.9344 0.65898 0.42974 0.0
C96 C -0.00126 0.62602 0.42919 0.0
O97 O 0.02298 0.71119 0.40663 0.0
Mg98 Mg 0.32267 -0.00388 0.7598 0.0
O99 O 0.3232 0.9866 0.70301 0.0
O100 O 0.33126 0.95238 0.69686 0.0
Mg101 Mg 0.33366 0.93849 0.75137 0.0
C102 C 0.32693 0.97051 0.68413 0.0
C103 C 0.31892 0.04801 0.75013 0.0
O104 O 0.34119 0.05763 0.76843 0.0
O105 O 0.28063 0.95976 0.76581 0.0
O106 O 0.28887 0.92543 0.76145 0.0
O107 O 0.36735 0.023 0.75786 0.0
O108 O 0.34699 0.97949 0.7714 0.0
C109 C 0.27259 0.93447 0.76597 0.0
C110 C 0.36909 0.00173 0.76505 0.0
O111 O 0.30564 0.02283 0.74377 0.0
Mg112 Mg 0.32531 0.33235 0.09367 0.0
O113 O 0.33591 0.33211 0.03723 0.0
O114 O 0.37735 0.33774 0.03227 0.0
Mg115 Mg 0.39306 0.34083 0.0872 0.0
C116 C 0.35548 0.33445 0.0189 0.0
C117 C 0.2623 0.31122 0.09651 0.0
O118 O 0.26636 0.31409 0.12981 0.0
O119 O 0.31809 0.28972 0.10083 0.0
O120 O 0.36023 0.29662 0.09789 0.0
O121 O 0.34434 0.37713 0.09106 0.0
O122 O 0.36621 0.35569 0.10577 0.0
C123 C 0.33476 0.28097 0.10199 0.0
C124 C 0.36691 0.37814 0.09882 0.0
O125 O 0.28202 0.31658 0.07668 0.0
Mg126 Mg 0.98745 0.32518 0.42948 0.0
O127 O -0.00499 0.3314 0.37164 0.0
O128 O 0.03157 0.37156 0.36151 0.0
Mg129 Mg 0.04833 0.39059 0.41394 0.0
C130 C 0.01162 0.34936 0.35092 0.0
C131 C 0.93243 0.27165 0.42545 0.0
O132 O 0.92504 0.28703 0.44186 0.0
O133 O 0.02167 0.31604 0.43599 0.0
O134 O 0.05794 0.35683 0.42662 0.0
O135 O 0.9637 0.34639 0.42644 0.0
O136 O 0.00766 0.36692 0.43703 0.0
C137 C 0.04724 0.33166 0.43382 0.0
C138 C 0.98635 0.36867 0.43126 0.0
O139 O 0.95725 0.28116 0.41815 0.0
Mg140 Mg 0.65938 0.99216 0.75971 0.0
O141 O 0.65968 0.00022 0.70217 0.0
O142 O 0.65803 0.03808 0.69384 0.0
Mg143 Mg 0.65734 0.05468 0.7471 0.0
C144 C 0.65894 0.01762 0.68226 0.0
C145 C 0.65504 0.93602 0.75269 0.0
O146 O 0.63219 0.92918 0.7686 0.0
O147 O 0.70333 0.02513 0.76429 0.0
O148 O 0.70044 0.06258 0.75799 0.0
O149 O 0.61446 0.96966 0.75861 0.0
O150 O 0.63918 0.01355 0.76917 0.0
C151 C 0.71426 0.05086 0.76332 0.0
C152 C 0.61568 0.99266 0.76398 0.0
O153 O 0.67143 0.96087 0.74669 0.0
Mg154 Mg 0.66595 0.66921 0.08779 0.0
O155 O 0.65545 0.66853 0.03113 0.0
O156 O 0.61482 0.66483 0.02565 0.0
Mg157 Mg 0.59962 0.66399 0.08036 0.0
C158 C 0.63619 0.66668 0.01254 0.0
C159 C 0.72316 0.67441 0.08591 0.0
O160 O 0.71362 0.65915 0.11342 0.0
O161 O 0.67533 0.71269 0.09269 0.0
O162 O 0.634 0.70783 0.08942 0.0
O163 O 0.64514 0.62432 0.08725 0.0
O164 O 0.62495 0.64772 0.10026 0.0
C165 C 0.65963 0.72261 0.09313 0.0
C166 C 0.62312 0.6246 0.09452 0.0
O167 O 0.7088 0.68262 0.07097 0.0
H168 H 0.35916 0.10827 0.24513 0.0
H169 H 0.34702 0.14103 0.22381 0.0
H170 H 0.27013 0.07597 0.18885 0.0
H171 H 0.28208 0.04285 0.21015 0.0
H172 H 0.30105 0.11462 0.13796 0.0
H173 H 0.29276 0.16433 0.25559 0.0
H174 H 0.32282 0.16165 0.25494 0.0
H175 H 0.29014 0.13139 0.25612 0.0
C176 C 0.33944 0.10085 0.23349 0.0
C177 C 0.32165 0.07293 0.2292 0.0
C178 C 0.33246 0.11962 0.22154 0.0
C179 C 0.30758 0.11089 0.20509 0.0
C180 C 0.28934 0.08306 0.20175 0.0
H181 H 0.28599 0.24464 0.13075 0.0
H182 H 0.27254 0.19931 0.15271 0.0
C183 C 0.29621 0.0642 0.21398 0.0
C184 C 0.30227 0.131 0.18819 0.0
H185 H 0.30328 0.19041 0.20316 0.0
C186 C 0.30087 0.13087 0.15222 0.0
C187 C 0.3017 0.15195 0.20684 0.0
C188 C 0.30166 0.15225 0.24554 0.0
C189 C 0.30106 0.15232 0.13432 0.0
C190 C 0.3029 0.17443 0.15293 0.0
C191 C 0.30213 0.17352 0.18893 0.0
C192 C 0.30902 0.20004 0.13584 0.0
C193 C 0.30034 0.15165 0.09562 0.0
C194 C 0.33385 0.21524 0.11886 0.0
C195 C 0.34167 0.24111 0.10656 0.0
C196 C 0.3248 0.2523 0.11101 0.0
C197 C 0.2994 0.23656 0.12679 0.0
C198 C 0.29169 0.21071 0.1394 0.0
H199 H 0.29056 0.13054 0.08584 0.0
H200 H 0.2893 0.16161 0.08537 0.0
H201 H 0.32137 0.16266 0.08562 0.0
H202 H 0.34772 0.20756 0.1164 0.0
H203 H 0.36133 0.25265 0.09447 0.0
H204 H 0.2401 0.34612 0.60598 0.0
H205 H 0.19531 0.33647 0.58688 0.0
H206 H 0.19649 0.28421 0.50756 0.0
H207 H 0.24038 0.2924 0.52822 0.0
H208 H 0.18802 0.35248 0.52985 0.0
H209 H 0.11902 0.24187 0.5314 0.0
H210 H 0.15125 0.25759 0.55319 0.0
H211 H 0.14919 0.25012 0.50795 0.0
C212 C 0.23029 0.33184 0.58525 0.0
C213 C 0.24357 0.31999 0.56853 0.0
C214 C 0.20475 0.32636 0.57427 0.0
C215 C 0.19235 0.30951 0.54579 0.0
C216 C 0.20513 0.29665 0.53014 0.0
H217 H 0.09714 0.34669 0.40821 0.0
H218 H 0.13086 0.33724 0.43333 0.0
C219 C 0.23035 0.30151 0.5418 0.0
C220 C 0.16848 0.30887 0.52947 0.0
H221 H 0.10668 0.26748 0.49315 0.0
C222 C 0.1701 0.33379 0.52236 0.0
C223 C 0.14493 0.28457 0.51974 0.0
C224 C 0.14088 0.25706 0.52883 0.0
C225 C 0.14922 0.3352 0.50543 0.0
C226 C 0.12652 0.31105 0.49363 0.0
C227 C 0.12442 0.28601 0.50145 0.0
C228 C 0.1046 0.31172 0.47401 0.0
C229 C 0.15161 0.36266 0.50101 0.0
C230 C 0.078 0.29858 0.48671 0.0
C231 C 0.05845 0.30328 0.47169 0.0
C232 C 0.06542 0.3215 0.44411 0.0
C233 C 0.09141 0.33287 0.42975 0.0
C234 C 0.1107 0.32763 0.44423 0.0
H235 H 0.16552 0.37739 0.52031 0.0
H236 H 0.16 0.37076 0.47521 0.0
H237 H 0.1316 0.36137 0.5034 0.0
H238 H 0.07279 0.28601 0.50947 0.0
H239 H 0.03853 0.29428 0.48325 0.0
H240 H 0.74609 0.10546 0.75488 0.0
H241 H 0.79176 0.13433 0.7765 0.0
H242 H 0.79424 0.06406 0.8126 0.0
H243 H 0.7482 0.0348 0.79116 0.0
H244 H 0.80571 0.10199 0.86301 0.0
H245 H 0.86752 0.15192 0.74835 0.0
H246 H 0.83678 0.15328 0.74786 0.0
H247 H 0.83523 0.12095 0.74586 0.0
C248 C 0.75648 0.09602 0.76678 0.0
C249 C 0.74338 0.06782 0.77152 0.0
C250 C 0.78274 0.11257 0.77885 0.0
C251 C 0.79652 0.10132 0.79578 0.0
C252 C 0.78401 0.0731 0.79932 0.0
H253 H 0.95047 0.23352 0.87448 0.0
H254 H 0.9203 0.18799 0.8519 0.0
C255 C 0.75771 0.05644 0.78704 0.0
C256 C 0.82227 0.11945 0.81356 0.0
H257 H 0.88204 0.17805 0.80153 0.0
C258 C 0.82278 0.1182 0.84952 0.0
C259 C 0.84473 0.14027 0.796 0.0
C260 C 0.84617 0.14151 0.75734 0.0
C261 C 0.84398 0.13875 0.86848 0.0
C262 C 0.86491 0.16116 0.85097 0.0
C263 C 0.86575 0.16102 0.81497 0.0
C264 C 0.88354 0.18658 0.86903 0.0
C265 C 0.84311 0.13693 0.90712 0.0
C266 C 0.87284 0.20066 0.88643 0.0
C267 C 0.8899 0.22661 0.89911 0.0
C268 C 0.91806 0.23907 0.89456 0.0
C269 C 0.92887 0.22444 0.87851 0.0
C270 C 0.91169 0.19846 0.86555 0.0
H271 H 0.83227 0.11549 0.9158 0.0
H272 H 0.8638 0.14725 0.91827 0.0
H273 H 0.83199 0.14679 0.91726 0.0
H274 H 0.85115 0.19212 0.88876 0.0
H275 H 0.88091 0.23727 0.91141 0.0
H276 H 0.63469 0.75257 0.08631 0.0
H277 H 0.6503 0.79811 0.10773 0.0
H278 H 0.72542 0.80413 0.14022 0.0
H279 H 0.70985 0.75823 0.11895 0.0
H280 H 0.699 0.81457 0.1921 0.0
H281 H 0.70573 0.8745 0.07741 0.0
H282 H 0.67437 0.84298 0.07808 0.0
H283 H 0.70584 0.8429 0.07477 0.0
C284 C 0.65477 0.76371 0.09736 0.0
C285 C 0.67093 0.75167 0.10113 0.0
C286 C 0.66378 0.78989 0.10932 0.0
C287 C 0.68916 0.80463 0.12518 0.0
C288 C 0.70586 0.79315 0.12777 0.0
H289 H 0.70648 0.9569 0.20347 0.0
H290 H 0.72295 0.92779 0.18035 0.0
C291 C 0.69692 0.76695 0.11557 0.0
C292 C 0.69624 0.83029 0.14283 0.0
H293 H 0.69458 0.8887 0.13115 0.0
C294 C 0.69883 0.83118 0.17871 0.0
C295 C 0.69653 0.85218 0.12536 0.0
C296 C 0.69577 0.85324 0.08672 0.0
C297 C 0.69902 0.85213 0.19778 0.0
C298 C 0.69621 0.87238 0.18048 0.0
C299 C 0.69634 0.87292 0.14445 0.0
C300 C 0.68894 0.89052 0.19892 0.0
C301 C 0.70094 0.85168 0.23635 0.0
C302 C 0.66456 0.8792 0.21735 0.0
C303 C 0.65503 0.89565 0.23035 0.0
C304 C 0.66966 0.92381 0.22511 0.0
C305 C 0.69476 0.93529 0.20805 0.0
C306 C 0.7042 0.91872 0.19478 0.0
H307 H 0.71244 0.84162 0.2445 0.0
H308 H 0.71086 0.87246 0.2472 0.0
H309 H 0.68026 0.83996 0.2473 0.0
H310 H 0.65216 0.85744 0.22021 0.0
H311 H 0.63568 0.88616 0.24344 0.0
H312 H 0.9474 0.70974 0.45226 0.0
H313 H 0.9162 0.72394 0.47446 0.0
H314 H 0.84847 0.64539 0.45009 0.0
H315 H 0.8792 0.63111 0.42763 0.0
H316 H 0.84052 0.6901 0.43471 0.0
H317 H 0.87779 0.69281 0.56782 0.0
H318 H 0.90213 0.71312 0.53556 0.0
H319 H 0.88548 0.67688 0.53302 0.0
C320 C 0.92583 0.69564 0.45109 0.0
C321 C 0.91581 0.66914 0.43857 0.0
C322 C 0.90809 0.70377 0.46393 0.0
C323 C 0.88012 0.68555 0.46435 0.0
C324 C 0.87002 0.65971 0.45007 0.0
H325 H 0.74102 0.63357 0.57528 0.0
H326 H 0.78598 0.64821 0.55237 0.0
C327 C 0.88766 0.65156 0.43735 0.0
C328 C 0.86112 0.69214 0.4818 0.0
H329 H 0.83811 0.69498 0.56168 0.0
C330 C 0.84028 0.69188 0.46241 0.0
C331 C 0.86093 0.69429 0.51796 0.0
C332 C 0.88264 0.69418 0.54001 0.0
C333 C 0.81825 0.69193 0.47835 0.0
C334 C 0.81732 0.69258 0.51461 0.0
C335 C 0.83904 0.69464 0.53389 0.0
C336 C 0.79213 0.68642 0.5328 0.0
C337 C 0.79519 0.6892 0.45643 0.0
C338 C 0.78114 0.70356 0.53051 0.0
C339 C 0.75527 0.6952 0.54358 0.0
C340 C 0.74007 0.66955 0.55904 0.0
C341 C 0.752 0.6533 0.5632 0.0
C342 C 0.77777 0.66168 0.55024 0.0
H343 H 0.7977 0.68571 0.42896 0.0
H344 H 0.77565 0.67215 0.4657 0.0
H345 H 0.79403 0.70802 0.45828 0.0
H346 H 0.79212 0.72291 0.51754 0.0
H347 H 0.74674 0.70827 0.54012 0.0
H348 H 0.24602 0.87946 0.75909 0.0
H349 H 0.20104 0.84699 0.78032 0.0
H350 H 0.18945 0.91248 0.81416 0.0
H351 H 0.23462 0.94532 0.79299 0.0
H352 H 0.18112 0.87404 0.86546 0.0
H353 H 0.12385 0.82398 0.74756 0.0
H354 H 0.15643 0.82634 0.74882 0.0
H355 H 0.15432 0.85678 0.74703 0.0
C356 C 0.23378 0.88704 0.77048 0.0
C357 C 0.244 0.915 0.77449 0.0
C358 C 0.20797 0.86843 0.78238 0.0
C359 C 0.19185 0.87737 0.79847 0.0
C360 C 0.20155 0.90523 0.80155 0.0
H361 H 0.03571 0.74431 0.87091 0.0
H362 H 0.06791 0.78957 0.84921 0.0
C363 C 0.22734 0.92393 0.78939 0.0
C364 C 0.16629 0.85743 0.81522 0.0
H365 H 0.10785 0.79815 0.80012 0.0
C366 C 0.16476 0.85776 0.85116 0.0
C367 C 0.14485 0.83646 0.79651 0.0
C368 C 0.14477 0.83597 0.75781 0.0
C369 C 0.1433 0.8365 0.86901 0.0
C370 C 0.1231 0.81434 0.85038 0.0
C371 C 0.12353 0.81506 0.81437 0.0
C372 C 0.10336 0.78888 0.86752 0.0
C373 C 0.14294 0.83742 0.90768 0.0
C374 C 0.11268 0.77372 0.8853 0.0
C375 C 0.09445 0.74788 0.89749 0.0
C376 C 0.06649 0.73666 0.89211 0.0
C377 C 0.05711 0.75239 0.8756 0.0
C378 C 0.07544 0.77822 0.86312 0.0
H379 H 0.15416 0.85861 0.91723 0.0
H380 H 0.12188 0.82752 0.91765 0.0
H381 H 0.15293 0.82652 0.91818 0.0
H382 H 0.13418 0.78138 0.88841 0.0
H383 H 0.10236 0.73636 0.91015 0.0
H384 H 0.40904 0.02462 0.21589 0.0
H385 H 0.45138 0.02369 0.2173 0.0
H386 H 0.41008 0.94442 0.26377 0.0
H387 H 0.36742 0.94514 0.26255 0.0
H388 H 0.46187 0.98577 0.29595 0.0
H389 H 0.46825 0.97332 0.15534 0.0
H390 H 0.46139 -0.00035 0.16795 0.0
H391 H 0.43689 0.96491 0.17673 0.0
C392 C 0.40891 0.00699 0.2265 0.0
C393 C 0.3849 0.98494 0.23913 0.0
C394 C 0.43309 0.00646 0.22711 0.0
C395 C 0.43369 0.9839 0.24036 0.0
C396 C 0.40988 0.96195 0.25333 0.0
H397 H 0.56832 0.95416 0.21921 0.0
H398 H 0.52327 0.94926 0.22196 0.0
C399 C 0.38558 0.96238 0.25253 0.0
C400 C 0.45936 0.98351 0.24081 0.0
H401 H 0.50729 0.98373 0.18826 0.0
C402 C 0.47177 0.98513 0.27248 0.0
C403 C 0.47197 0.98245 0.21011 0.0
C404 C 0.45891 0.97976 0.17555 0.0
C405 C 0.49701 0.9865 0.27417 0.0
C406 C 0.51006 0.98642 0.24338 0.0
C407 C 0.49726 0.984 0.21178 0.0
C408 C 0.53719 0.98909 0.24327 0.0
C409 C 0.50951 0.98798 0.3088 0.0
C410 C 0.55989 0.01321 0.25414 0.0
C411 C 0.58569 0.01612 0.25253 0.0
C412 C 0.58915 -0.00508 0.24003 0.0
C413 C 0.56631 0.97077 0.22924 0.0
C414 C 0.54057 0.96794 0.23072 0.0
H415 H 0.49436 0.98162 0.32981 0.0
H416 H 0.51894 0.97501 0.30945 0.0
H417 H 0.5256 0.00917 0.31378 0.0
H418 H 0.55768 0.02992 0.26337 0.0
H419 H 0.6029 0.03499 0.26095 0.0
H420 H 0.60776 0.57157 0.54859 0.0
H421 H 0.5667 0.52712 0.55041 0.0
H422 H 0.52146 0.56373 0.58832 0.0
H423 H 0.5625 0.6084 0.58668 0.0
H424 H 0.51436 0.51396 0.62452 0.0
H425 H 0.50061 0.50419 0.48274 0.0
H426 H 0.53383 0.5139 0.49879 0.0
H427 H 0.5207 0.53649 0.5037 0.0
C428 C 0.58913 0.57019 0.55748 0.0
C429 C 0.58833 0.59348 0.56748 0.0
C430 C 0.56571 0.54481 0.55836 0.0
C431 C 0.54115 0.54231 0.56926 0.0
C432 C 0.5403 0.56539 0.57977 0.0
H433 H 0.37736 0.41126 0.54892 0.0
H434 H 0.41956 0.4547 0.55009 0.0
C435 C 0.56371 0.59084 0.57871 0.0
C436 C 0.51626 0.51558 0.56934 0.0
H437 H 0.47054 0.46645 0.51623 0.0
C438 C 0.50474 0.50349 0.60092 0.0
C439 C 0.50384 0.50223 0.53841 0.0
C440 C 0.51517 0.51484 0.5039 0.0
C441 C 0.48104 0.47811 0.60236 0.0
C442 C 0.46878 0.46465 0.57142 0.0
C443 C 0.48021 0.47684 0.53986 0.0
C444 C 0.44343 0.4383 0.57121 0.0
C445 C 0.46897 0.46603 0.63682 0.0
C446 C 0.44309 0.41474 0.58244 0.0
C447 C 0.41901 0.38983 0.58172 0.0
C448 C 0.39495 0.38821 0.56986 0.0
C449 C 0.39549 0.41189 0.55848 0.0
C450 C 0.41957 0.43669 0.55903 0.0
H451 H 0.47838 0.48093 0.65797 0.0
H452 H 0.44682 0.45832 0.6368 0.0
H453 H 0.47209 0.44865 0.64206 0.0
H454 H 0.46146 0.41563 0.59156 0.0
H455 H 0.41921 0.37192 0.5906 0.0
H456 H 0.02397 0.60206 0.8818 0.0
H457 H 0.02479 0.55964 0.88398 0.0
H458 H 0.94411 0.51886 0.92622 0.0
H459 H 0.94307 0.56134 0.92424 0.0
H460 H 0.98549 0.50969 0.96088 0.0
H461 H 0.97804 0.49272 0.81976 0.0
H462 H 0.00324 0.52595 0.83385 0.0
H463 H 0.96803 0.51472 0.84043 0.0
C464 C 0.00641 0.58412 0.89167 0.0
C465 C 0.98344 0.58502 0.90285 0.0
C466 C 0.00689 0.5599 0.89273 0.0
C467 C 0.98443 0.5362 0.90499 0.0
C468 C 0.96158 0.53702 0.91658 0.0
H469 H 0.95392 0.37206 0.88492 0.0
H470 H 0.95052 0.4131 0.88638 0.0
C471 C 0.96101 0.56124 0.91534 0.0
C472 C 0.98494 0.51058 0.90566 0.0
H473 H 0.9871 0.46362 0.85362 0.0
C474 C 0.98574 0.4995 0.9375 0.0
C475 C 0.98505 0.49738 0.87505 0.0
C476 C 0.98334 0.50809 0.84027 0.0
C477 C 0.9872 0.47568 0.9395 0.0
C478 C 0.98802 0.46287 0.90885 0.0
C479 C 0.98668 0.47368 0.87704 0.0
C480 C 0.98998 0.438 0.90915 0.0
C481 C 0.98761 0.46424 0.97428 0.0
C482 C 0.01343 0.43856 0.92126 0.0
C483 C 0.01548 0.41514 0.92041 0.0
C484 C -0.00592 0.39082 0.90747 0.0
C485 C 0.97065 0.3904 0.89534 0.0
C486 C 0.96868 0.41382 0.89606 0.0
H487 H 0.98112 0.47317 0.99496 0.0
H488 H 0.9742 0.4419 0.97457 0.0
H489 H 0.00851 0.46874 0.98005 0.0
H490 H 0.03025 0.45719 0.93096 0.0
H491 H 0.03381 0.4161 0.92985 0.0
H492 H 0.95838 0.57702 0.45149 0.0
H493 H 0.95729 0.53362 0.44998 0.0
H494 H 0.03641 0.57222 0.40325 0.0
H495 H 0.03774 0.61589 0.40461 0.0
H496 H -0.00751 0.52032 0.37153 0.0
H497 H 0.0075 0.51556 0.51199 0.0
H498 H 0.9821 0.52379 0.49931 0.0
H499 H 0.01705 0.54697 0.48989 0.0
C500 C 0.97553 0.57631 0.44078 0.0
C501 C -0.00183 0.59987 0.42818 0.0
C502 C 0.9749 0.55153 0.44007 0.0
C503 C -0.00317 0.54989 0.42671 0.0
C504 C 0.01933 0.57322 0.41372 0.0
H505 H 0.02955 0.41795 0.44708 0.0
H506 H 0.03241 0.4621 0.44385 0.0
C507 C 0.02008 0.5981 0.41463 0.0
C508 C -0.00377 0.52372 0.42652 0.0
H509 H -0.00267 0.4766 0.47946 0.0
C510 C -0.00638 0.51073 0.39505 0.0
C511 C -0.0021 0.51153 0.4573 0.0
C512 C 0.00149 0.52517 0.4916 0.0
C513 C -0.00782 0.48544 0.39362 0.0
C514 C -0.00674 0.47297 0.42449 0.0
C515 C -0.00367 0.48621 0.45589 0.0
C516 C -0.00838 0.44629 0.42485 0.0
C517 C 0.98981 0.47236 0.35919 0.0
C518 C 0.96765 0.42284 0.41536 0.0
C519 C 0.96591 0.39752 0.41721 0.0
C520 C 0.98815 0.39535 0.42857 0.0
C521 C 0.01214 0.41895 0.43793 0.0
C522 C 0.01381 0.44419 0.4362 0.0
H523 H -0.00518 0.48695 0.33771 0.0
H524 H 0.00338 0.46364 0.35786 0.0
H525 H 0.96871 0.45559 0.35562 0.0
H526 H 0.95018 0.42408 0.40703 0.0
H527 H 0.94714 0.37969 0.40992 0.0
H528 H 0.61143 0.03742 0.77765 0.0
H529 H 0.57057 0.04116 0.77609 0.0
H530 H 0.52351 0.95732 0.74617 0.0
H531 H 0.56435 0.95345 0.7471 0.0
H532 H 0.51282 0.99365 0.70748 0.0
H533 H 0.50949 0.00706 0.84848 0.0
H534 H 0.54094 0.03009 0.82787 0.0
H535 H 0.52995 -0.00542 0.82926 0.0
C536 C 0.59244 0.01981 0.77052 0.0
C537 C 0.59112 -0.00487 0.76249 0.0
C538 C 0.5691 0.02195 0.76987 0.0
C539 C 0.54405 -0.00057 0.76142 0.0
C540 C 0.5427 0.9749 0.75285 0.0
H541 H 0.37981 0.96271 0.78719 0.0
H542 H 0.42302 0.96346 0.7851 0.0
C543 C 0.56603 0.97272 0.75348 0.0
C544 C 0.51914 0.00132 0.76176 0.0
H545 H 0.47684 0.01058 0.81486 0.0
C546 C 0.50498 -0.00255 0.73089 0.0
C547 C 0.50896 0.00609 0.79246 0.0
C548 C 0.52294 0.00949 0.8265 0.0
C549 C 0.48083 -0.00169 0.72993 0.0
C550 C 0.47077 0.00317 0.76058 0.0
C551 C 0.48488 0.00706 0.79142 0.0
C552 C 0.44485 0.003 0.76141 0.0
C553 C 0.46582 0.99345 0.69645 0.0
C554 C 0.44306 0.02512 0.74892 0.0
C555 C 0.41842 0.02484 0.75019 0.0
C556 C 0.39524 0.00233 0.7638 0.0
C557 C 0.39723 0.98025 0.77631 0.0
C558 C 0.42188 0.98065 0.77525 0.0
H559 H 0.47513 0.98763 0.67551 0.0
H560 H 0.44442 0.9772 0.69967 0.0
H561 H 0.46575 0.01215 0.68868 0.0
H562 H 0.46073 0.04259 0.73833 0.0
H563 H 0.41749 0.04214 0.74037 0.0
H564 H 0.37645 0.42716 0.07435 0.0
H565 H 0.41987 0.46964 0.07238 0.0
H566 H 0.45935 0.42971 0.1185 0.0
H567 H 0.41615 0.38729 0.1208 0.0
H568 H 0.47112 0.48072 0.14924 0.0
H569 H 0.48505 0.48638 0.0075 0.0
H570 H 0.45289 0.4808 0.02284 0.0
H571 H 0.46211 0.45529 0.02945 0.0
C572 C 0.39439 0.42743 0.08401 0.0
C573 C 0.39293 0.40385 0.09753 0.0
C574 C 0.41915 0.45164 0.0827 0.0
C575 C 0.44276 0.45263 0.09494 0.0
C576 C 0.44132 0.42924 0.10876 0.0
H577 H 0.61161 0.5743 0.07315 0.0
H578 H 0.56745 0.53266 0.07328 0.0
C579 C 0.41664 0.40503 0.10993 0.0
C580 C 0.46896 0.47817 0.09411 0.0
H581 H 0.51743 0.52363 0.0399 0.0
C582 C 0.48126 0.49017 0.12538 0.0
C583 C 0.48213 0.49016 0.06288 0.0
C584 C 0.47006 0.47748 0.02868 0.0
C585 C 0.50643 0.5141 0.12626 0.0
C586 C 0.51942 0.52632 0.09503 0.0
C587 C 0.50724 0.51421 0.06375 0.0
C588 C 0.54589 0.55157 0.09442 0.0
C589 C 0.51917 0.52593 0.16053 0.0
C590 C 0.54818 0.57591 0.10593 0.0
C591 C 0.57329 0.59968 0.10584 0.0
C592 C 0.59653 0.59949 0.09419 0.0
C593 C 0.5941 0.57507 0.08239 0.0
C594 C 0.56892 0.55131 0.08235 0.0
H595 H 0.50926 0.51125 0.18184 0.0
H596 H 0.54107 0.53248 0.16031 0.0
H597 H 0.51721 0.54401 0.16577 0.0
H598 H 0.53052 0.57649 0.11501 0.0
H599 H 0.57451 0.61814 0.11519 0.0
H600 H 0.07512 0.77566 0.4612 0.0
H601 H 0.11106 0.81774 0.4359 0.0
H602 H 0.07989 0.78766 0.33472 0.0
H603 H 0.04388 0.74598 0.35959 0.0
H604 H 0.14929 0.81932 0.39276 0.0
H605 H 0.0954 0.8651 0.3283 0.0
H606 H 0.07963 0.83915 0.36077 0.0
H607 H 0.08149 0.83014 0.31698 0.0
C608 C 0.07561 0.77826 0.43362 0.0
C609 C 0.05676 0.75742 0.4124 0.0
C610 C 0.09613 0.8023 0.41923 0.0
C611 C 0.09792 0.80595 0.38348 0.0
C612 C 0.07853 0.78557 0.3624 0.0
H613 H 0.23445 0.8845 0.25204 0.0
H614 H 0.19388 0.85419 0.2848 0.0
C615 C 0.05809 0.7616 0.3767 0.0
C616 C 0.12174 0.82935 0.36774 0.0
H617 H 0.14023 0.87862 0.3068 0.0
C618 C 0.14736 0.8326 0.37443 0.0
C619 C 0.11923 0.8468 0.34405 0.0
C620 C 0.09247 0.84532 0.33737 0.0
C621 C 0.17035 0.85187 0.35672 0.0
C622 C 0.1675 0.86798 0.33129 0.0
C623 C 0.14219 0.86585 0.32591 0.0
C624 C 0.19053 0.88642 0.30933 0.0
C625 C 0.19744 0.85454 0.36495 0.0
C626 C 0.20132 0.91451 0.31131 0.0
C627 C 0.22447 0.93192 0.29253 0.0
C628 C 0.23707 0.92144 0.27136 0.0
C629 C 0.22537 0.89323 0.26827 0.0
C630 C 0.20228 0.87588 0.28707 0.0
H631 H 0.19744 0.84613 0.39068 0.0
H632 H 0.20209 0.84316 0.34562 0.0
H633 H 0.21381 0.87607 0.36409 0.0
H634 H 0.19235 0.92295 0.32821 0.0
H635 H 0.23293 0.95357 0.29538 0.0
H636 H 0.30508 0.21516 0.53908 0.0
H637 H 0.29886 0.17327 0.56512 0.0
H638 H 0.28765 0.19995 0.66419 0.0
H639 H 0.2933 0.24139 0.6385 0.0
H640 H 0.33233 0.17208 0.61333 0.0
H641 H 0.22801 0.12157 0.66463 0.0
H642 H 0.23986 0.14833 0.63305 0.0
H643 H 0.24699 0.15628 0.67791 0.0
C644 C 0.30074 0.21183 0.56628 0.0
C645 C 0.29983 0.23166 0.58674 0.0
C646 C 0.29717 0.1879 0.5811 0.0
C647 C 0.29244 0.18335 0.6165 0.0
C648 C 0.29061 0.20271 0.6367 0.0
H649 H 0.34426 0.10307 0.75583 0.0
H650 H 0.33554 0.13412 0.72222 0.0
C651 C 0.29412 0.22655 0.62197 0.0
C652 C 0.29265 0.16013 0.6332 0.0
H653 H 0.25856 0.10891 0.69083 0.0
C654 C 0.316 0.15799 0.62982 0.0
C655 C 0.27124 0.14161 0.65447 0.0
C656 C 0.245 0.14187 0.65746 0.0
C657 C 0.31908 0.13867 0.64844 0.0
C658 C 0.29848 0.12141 0.6715 0.0
C659 C 0.27452 0.12256 0.67359 0.0
C660 C 0.30189 0.10249 0.69407 0.0
C661 C 0.34451 0.13709 0.64353 0.0
C662 C 0.28504 0.07446 0.6904 0.0
C663 C 0.28986 0.05663 0.70971 0.0
C664 C 0.31157 0.06662 0.73307 0.0
C665 C 0.32753 0.09473 0.73788 0.0
C666 C 0.32267 0.1125 0.71859 0.0
H667 H 0.35463 0.14632 0.61879 0.0
H668 H 0.35893 0.14832 0.66456 0.0
H669 H 0.34002 0.11576 0.64428 0.0
H670 H 0.26877 0.0664 0.67176 0.0
H671 H 0.27712 0.03507 0.70549 0.0
H672 H 0.21666 0.30337 0.13012 0.0
H673 H 0.17479 0.29717 0.10418 0.0
H674 H 0.20673 0.29857 0.00338 0.0
H675 H 0.24819 0.30424 0.02888 0.0
H676 H 0.17251 0.3338 0.06213 0.0
H677 H 0.13028 0.23575 0.99453 0.0
H678 H 0.15598 0.24596 0.02728 0.0
H679 H 0.16518 0.25785 0.98382 0.0
C680 C 0.21453 0.30182 0.10247 0.0
C681 C 0.23581 0.30443 0.08157 0.0
C682 C 0.19061 0.29826 0.0877 0.0
C683 C 0.18751 0.29705 0.05188 0.0
C684 C 0.20838 0.29878 0.03108 0.0
H685 H 0.10485 0.35361 0.92383 0.0
H686 H 0.13653 0.34498 0.95607 0.0
C687 C 0.23222 0.30229 0.04576 0.0
C688 C 0.164 0.29712 0.03589 0.0
H689 H 0.11557 0.26639 0.97412 0.0
C690 C 0.15978 0.31881 0.0433 0.0
C691 C 0.14723 0.27742 0.01157 0.0
C692 C 0.1497 0.25278 0.0041 0.0
C693 C 0.14011 0.32206 0.02585 0.0
C694 C 0.12464 0.3034 0.99986 0.0
C695 C 0.12785 0.28093 0.99364 0.0
C696 C 0.10554 0.30739 0.97839 0.0
C697 C 0.13624 0.3456 0.03515 0.0
C698 C 0.07777 0.2885 0.97917 0.0
C699 C 0.0596 0.29327 0.9606 0.0
C700 C 0.06897 0.31699 0.94084 0.0
C701 C 0.09695 0.33527 0.93899 0.0
C702 C 0.11507 0.33046 0.95754 0.0
H703 H 0.14398 0.35333 0.06131 0.0
H704 H 0.14759 0.36238 0.01668 0.0
H705 H 0.11454 0.33977 0.03392 0.0
H706 H 0.07009 0.27047 0.99493 0.0
H707 H 0.03817 0.27873 0.96247 0.0
H708 H 0.87753 0.24668 0.43304 0.0
H709 H 0.84343 0.2057 0.40427 0.0
H710 H 0.90638 0.1956 0.35759 0.0
H711 H 0.94072 0.2368 0.38594 0.0
H712 H 0.86941 0.19418 0.31089 0.0
H713 H 0.81664 0.12544 0.42002 0.0
H714 H 0.81944 0.15806 0.42486 0.0
H715 H 0.84956 0.15537 0.42427 0.0
C716 C 0.88415 0.23551 0.41714 0.0
C717 C 0.91184 0.24506 0.41169 0.0
C718 C 0.86461 0.21199 0.40086 0.0
C719 C 0.87239 0.19748 0.3791 0.0
C720 C 0.89999 0.20647 0.37443 0.0
H721 H 0.74894 0.0462 0.28569 0.0
H722 H 0.79034 0.07984 0.31443 0.0
C723 C 0.91956 0.22999 0.3907 0.0
C724 C 0.85176 0.17441 0.35891 0.0
H725 H 0.79282 0.11418 0.3663 0.0
C726 C 0.85285 0.17649 0.32297 0.0
C727 C 0.8304 0.15123 0.3747 0.0
C728 C 0.82903 0.14721 0.41308 0.0
C729 C 0.83245 0.15655 0.30243 0.0
C730 C 0.81023 0.13421 0.31834 0.0
C731 C 0.80977 0.1315 0.35419 0.0
C732 C 0.78655 0.11415 0.29849 0.0
C733 C 0.83476 0.15969 0.26392 0.0
C734 C 0.77082 0.12237 0.27987 0.0
C735 C 0.7472 0.10325 0.26338 0.0
C736 C 0.73877 0.07553 0.26545 0.0
C737 C 0.7549 0.06741 0.28353 0.0
C738 C 0.77852 0.08657 0.30003 0.0
H739 H 0.85612 0.17287 0.25574 0.0
H740 H 0.82653 0.13975 0.25104 0.0
H741 H 0.82301 0.16927 0.25508 0.0
H742 H 0.77638 0.14352 0.27894 0.0
H743 H 0.73519 0.11017 0.24981 0.0
H744 H 0.69821 0.75298 0.61324 0.0
H745 H 0.7044 0.79356 0.64274 0.0
H746 H 0.62734 0.77893 0.60424 0.0
H747 H 0.62111 0.7386 0.57425 0.0
H748 H 0.66824 0.83345 0.60129 0.0
H749 H 0.66155 0.78831 0.73011 0.0
H750 H 0.68722 0.78954 0.70217 0.0
H751 H 0.65213 0.76847 0.69124 0.0
C752 C 0.68271 0.75855 0.61073 0.0
C753 C 0.65903 0.74242 0.59166 0.0
C754 C 0.68622 0.78165 0.62777 0.0
C755 C 0.66608 0.78888 0.62617 0.0
C756 C 0.64304 0.77355 0.60592 0.0
H757 H 0.62212 0.88114 0.756 0.0
H758 H 0.62791 0.84672 0.72612 0.0
C759 C 0.63952 0.75051 0.58882 0.0
C760 C 0.66837 0.81181 0.6465 0.0
H761 H 0.66864 0.83273 0.72865 0.0
C762 C 0.66855 0.83346 0.62912 0.0
C763 C 0.66844 0.81148 0.68282 0.0
C764 C 0.6671 0.78814 0.70281 0.0
C765 C 0.66844 0.8547 0.64712 0.0
C766 C 0.66859 0.85441 0.68343 0.0
C767 C 0.66877 0.83294 0.70081 0.0
C768 C 0.6666 0.87522 0.70376 0.0
C769 C 0.66708 0.8767 0.62714 0.0
C770 C 0.68685 0.90253 0.70189 0.0
C771 C 0.68358 0.92229 0.71886 0.0
C772 C 0.66004 0.91499 0.73812 0.0
C773 C 0.64042 0.88745 0.74126 0.0
C774 C 0.64369 0.86775 0.72423 0.0
H775 H 0.66132 0.8709 0.59991 0.0
H776 H 0.65226 0.88153 0.63888 0.0
H777 H 0.68725 0.89535 0.62752 0.0
H778 H 0.70493 0.90861 0.68675 0.0
H779 H 0.69918 0.94332 0.71613 0.0
H780 H 0.74459 0.69924 0.02465 0.0
H781 H 0.78295 0.70126 0.99423 0.0
H782 H 0.79778 0.6623 0.07971 0.0
H783 H 0.75899 0.65963 0.11018 0.0
H784 H 0.83755 0.72347 0.00866 0.0
H785 H 0.78599 0.61135 0.99966 0.0
H786 H 0.76869 0.62897 0.01325 0.0
H787 H 0.79002 0.6239 0.04276 0.0
C788 C 0.75615 0.69133 0.0372 0.0
C789 C 0.74851 0.67891 0.06966 0.0
C790 C 0.77809 0.69255 0.01975 0.0
C791 C 0.7928 0.68142 0.03443 0.0
C792 C 0.78625 0.67044 0.06765 0.0
H793 H 0.94223 0.69442 0.96248 0.0
H794 H 0.90811 0.70123 0.99122 0.0
C795 C 0.76418 0.66906 0.08508 0.0
C796 C 0.81407 0.68012 0.0142 0.0
H797 H 0.83122 0.63574 0.97982 0.0
C798 C 0.83621 0.70432 0.00229 0.0
C799 C 0.81191 0.65505 0.00535 0.0
C800 C 0.78776 0.62831 0.0156 0.0
C801 C 0.85656 0.70413 0.98223 0.0
C802 C 0.85486 0.67909 0.97445 0.0
C803 C 0.83251 0.65491 0.98595 0.0
C804 C 0.87621 0.67731 0.95501 0.0
C805 C 0.87941 0.73067 0.96912 0.0
C806 C 0.86958 0.66147 0.92516 0.0
C807 C 0.88897 0.65726 0.90884 0.0
C808 C 0.91533 0.66877 0.92217 0.0
C809 C 0.92214 0.68536 0.95143 0.0
C810 C 0.9027 0.68943 0.96781 0.0
H811 H 0.87366 0.74663 0.9685 0.0
H812 H 0.89708 0.73765 0.98648 0.0
H813 H 0.88572 0.72841 0.94293 0.0
H814 H 0.84919 0.65185 0.91495 0.0
H815 H 0.88309 0.6444 0.88635 0.0
H816 H 0.30237 0.98902 0.35645 0.0
H817 H 0.29777 0.98203 0.41847 0.0
H818 H 0.38451 0.02958 0.42965 0.0
H819 H 0.38926 0.03742 0.3677 0.0
H820 H 0.31582 0.95692 0.45872 0.0
H821 H 0.36052 0.06335 0.50167 0.0
H822 H 0.3518 0.05349 0.45745 0.0
H823 H 0.38308 0.05814 0.47489 0.0
C824 C 0.32048 -0.00175 0.37212 0.0
C825 C 0.34619 0.01391 0.35711 0.0
C826 C 0.3178 0.99419 0.40759 0.0
C827 C 0.34074 0.00558 0.42883 0.0
C828 C 0.36645 0.02117 0.41394 0.0
H829 H 0.34609 0.94977 0.63526 0.0
H830 H 0.34879 0.95764 0.57332 0.0
C831 C 0.36915 0.02552 0.37846 0.0
C832 C 0.33775 0.00013 0.46633 0.0
H833 H 0.35362 0.0308 0.5448 0.0
C834 C 0.32395 0.97309 0.47755 0.0
C835 C 0.34802 0.02121 0.49091 0.0
C836 C 0.36143 0.05066 0.48066 0.0
C837 C 0.32045 0.96652 0.51262 0.0
C838 C 0.33174 0.98759 0.53719 0.0
C839 C 0.34522 0.01464 0.52597 0.0
C840 C 0.32955 0.98214 0.57468 0.0
C841 C 0.30417 0.9371 0.52291 0.0
C842 C 0.31842 0.99379 0.5962 0.0
C843 C 0.31726 0.9897 0.63165 0.0
C844 C 0.32711 0.97375 0.64637 0.0
C845 C 0.33804 0.96189 0.62474 0.0
C846 C 0.33947 0.96626 0.58927 0.0
H847 H 0.29031 0.92453 0.50202 0.0
H848 H 0.31815 0.92933 0.52839 0.0
H849 H 0.29196 0.93447 0.54629 0.0
H850 H 0.3107 0.00617 0.58554 0.0
H851 H 0.30869 -0.00088 0.64753 0.0
H852 H 0.31393 0.33245 0.98148 0.0
H853 H 0.3101 0.33334 0.91926 0.0
H854 H 0.38671 0.33623 0.90784 0.0
H855 H 0.39108 0.33591 0.97031 0.0
H856 H 0.38311 0.37336 0.86741 0.0
H857 H 0.29131 0.27279 0.8513 0.0
H858 H 0.28651 0.29387 0.88132 0.0
H859 H 0.31048 0.28296 0.89072 0.0
C860 C 0.32994 0.33308 0.96584 0.0
C861 C 0.3528 0.33401 0.98099 0.0
C862 C 0.3276 0.33342 0.93019 0.0
C863 C 0.34787 0.33436 0.90889 0.0
C864 C 0.37074 0.33532 0.92384 0.0
H865 H 0.33082 0.30849 0.68806 0.0
H866 H 0.33604 0.30497 0.74972 0.0
C867 C 0.37318 0.33511 0.95955 0.0
C868 C 0.34565 0.33546 0.87106 0.0
H869 H 0.30437 0.30267 0.8031 0.0
C870 C 0.366 0.35781 0.85329 0.0
C871 C 0.3235 0.31498 0.85262 0.0
C872 C 0.30185 0.28966 0.8699 0.0
C873 C 0.36446 0.36059 0.81768 0.0
C874 C 0.34165 0.34076 0.79951 0.0
C875 C 0.32165 0.31805 0.81715 0.0
C876 C 0.33826 0.34301 0.76213 0.0
C877 C 0.38745 0.38456 0.79984 0.0
C878 C 0.33729 0.36536 0.74866 0.0
C879 C 0.33444 0.36754 0.71334 0.0
C880 C 0.33218 0.34723 0.69083 0.0
C881 C 0.33253 0.32455 0.70457 0.0
C882 C 0.33552 0.32248 0.73984 0.0
H883 H 0.40638 0.3933 0.8152 0.0
H884 H 0.39148 0.37882 0.7742 0.0
H885 H 0.38203 0.40057 0.79625 0.0
H886 H 0.33868 0.38112 0.76548 0.0
H887 H 0.33404 0.38517 0.70372 0.0
H888 H 0.04303 0.38184 0.29828 0.0
H889 H 0.03386 0.37505 0.23674 0.0
H890 H 0.96023 0.30003 0.25703 0.0
H891 H 0.96938 0.30633 0.31858 0.0
H892 H 0.98982 0.29589 0.20373 0.0
H893 H 0.9769 0.38537 0.18639 0.0
H894 H 0.00865 0.39328 0.20554 0.0
H895 H 0.97759 0.37201 0.22816 0.0
C896 C 0.0249 0.36385 0.28972 0.0
C897 C 0.00686 0.34473 0.31347 0.0
C898 C 0.01962 0.3601 0.25451 0.0
C899 C -0.0039 0.33731 0.24238 0.0
C900 C 0.97841 0.31785 0.26589 0.0
H901 H 0.9323 0.32268 0.03531 0.0
H902 H 0.93795 0.32438 0.09768 0.0
C903 C 0.9837 0.32152 0.30109 0.0
C904 C 0.98995 0.33372 0.20515 0.0
H905 H 0.97932 0.36363 0.13554 0.0
C906 C 0.9874 0.31062 0.18882 0.0
C907 C 0.98633 0.35273 0.1859 0.0
C908 C 0.98723 0.37711 0.20241 0.0
C909 C 0.98198 0.30636 0.15352 0.0
C910 C 0.97954 0.32598 0.13399 0.0
C911 C 0.98143 0.34873 0.1505 0.0
C912 C 0.97548 0.32359 0.09629 0.0
C913 C 0.97862 0.28075 0.13757 0.0
C914 C -0.00524 0.32269 0.07484 0.0
C915 C -0.00844 0.32161 0.03923 0.0
C916 C 0.96912 0.32169 0.02429 0.0
C917 C 0.94979 0.32254 0.0459 0.0
C918 C 0.95299 0.32354 0.08156 0.0
H919 H 0.97313 0.26458 0.15707 0.0
H920 H 0.96281 0.27304 0.11733 0.0
H921 H -0.00195 0.28506 0.12564 0.0
H922 H 0.01259 0.32335 0.0856 0.0
H923 H 0.00695 0.32115 0.02344 0.0
H924 H 0.60116 0.93843 0.36835 0.0
H925 H 0.60627 0.94583 0.43038 0.0
H926 H 0.68146 0.0203 0.41448 0.0
H927 H 0.67682 0.01297 0.35255 0.0
H928 H 0.68415 0.98876 0.46709 0.0
H929 H 0.59447 0.00181 0.48157 0.0
H930 H 0.58745 0.97066 0.46138 0.0
H931 H 0.60912 0.00236 0.44032 0.0
C932 C 0.61884 0.95635 0.378 0.0
C933 C 0.63848 0.97519 0.35537 0.0
C934 C 0.62164 0.96062 0.41347 0.0
C935 C 0.644 0.98385 0.42695 0.0
C936 C 0.66397 0.00231 0.40456 0.0
H937 H 0.65856 0.05048 0.63106 0.0
H938 H 0.65624 0.04266 0.56915 0.0
C939 C 0.66124 -0.00193 0.36913 0.0
C940 C 0.64661 0.98908 0.4644 0.0
H941 H 0.61596 8e-05 0.53282 0.0
C942 C 0.66927 0.99126 0.4815 0.0
C943 C 0.62737 0.99275 0.48298 0.0
C944 C 0.60335 0.99204 0.46564 0.0
C945 C 0.67305 -0.00335 0.51684 0.0
C946 C 0.65339 -0.00048 0.5356 0.0
C947 C 0.6309 -0.00232 0.51841 0.0
C948 C 0.65577 0.00457 0.5731 0.0
C949 C 0.69828 -0.00027 0.53362 0.0
C950 C 0.65615 0.98567 0.59584 0.0
C951 C 0.65757 0.9901 0.63124 0.0
C952 C 0.65839 0.01344 0.64463 0.0
C953 C 0.658 0.03233 0.6217 0.0
C954 C 0.65664 0.02789 0.58629 0.0
H955 H 0.71446 0.00425 0.5145 0.0
H956 H 0.70625 0.01614 0.55309 0.0
H957 H 0.69337 0.98052 0.54674 0.0
H958 H 0.65492 0.96726 0.58626 0.0
H959 H 0.65766 0.97502 0.64809 0.0
H960 H 0.67729 0.66716 0.97576 0.0
H961 H 0.68049 0.66406 0.91371 0.0
H962 H 0.60405 0.66136 0.90117 0.0
H963 H 0.60035 0.66398 0.96347 0.0
H964 H 0.60719 0.62217 0.86379 0.0
H965 H 0.69848 0.72231 0.8417 0.0
H966 H 0.70347 0.70241 0.8735 0.0
H967 H 0.6796 0.7137 0.88136 0.0
C968 C 0.66119 0.66611 0.95989 0.0
C969 C 0.63857 0.6659 0.9747 0.0
C970 C 0.66317 0.6645 0.92435 0.0
C971 C 0.64273 0.66292 0.90279 0.0
C972 C 0.62013 0.66272 0.91738 0.0
H973 H 0.65439 0.68041 0.68086 0.0
H974 H 0.65072 0.68606 0.74236 0.0
C975 C 0.61807 0.66425 0.95299 0.0
C976 C 0.64448 0.66036 0.86514 0.0
H977 H 0.68449 0.69087 0.79532 0.0
C978 C 0.624 0.63726 0.84875 0.0
C979 C 0.66626 0.68023 0.84553 0.0
C980 C 0.68807 0.70619 0.86133 0.0
C981 C 0.62501 0.6332 0.81338 0.0
C982 C 0.64738 0.65252 0.79404 0.0
C983 C 0.66755 0.67592 0.81028 0.0
C984 C 0.65002 0.64906 0.75679 0.0
C985 C 0.60192 0.60845 0.79698 0.0
C986 C 0.65135 0.6266 0.74452 0.0
C987 C 0.65335 0.62322 0.7093 0.0
C988 C 0.65433 0.64239 0.68569 0.0
C989 C 0.65364 0.6652 0.69823 0.0
C990 C 0.65154 0.66849 0.73341 0.0
H991 H 0.58333 0.59982 0.81302 0.0
H992 H 0.59714 0.61327 0.77119 0.0
H993 H 0.60773 0.59267 0.79395 0.0
H994 H 0.65084 0.61168 0.7622 0.0
H995 H 0.65403 0.60553 0.70062 0.0
H996 H 0.93547 0.60189 0.29883 0.0
H997 H 0.9425 0.60522 0.23666 0.0
H998 H 0.01597 0.68186 0.24939 0.0
H999 H 0.00889 0.67907 0.31133 0.0
H1000 H 0.98516 0.68295 0.1967 0.0
H1001 H -0.0023 0.59276 0.18614 0.0
H1002 H 0.96636 0.58586 0.20565 0.0
H1003 H -0.00213 0.60792 0.22684 0.0
C1004 C 0.95309 0.6195 0.28842 0.0
C1005 C 0.97169 0.64012 0.31017 0.0
C1006 C 0.95717 0.62127 0.25289 0.0
C1007 C 0.98005 0.64353 0.23847 0.0
C1008 C -0.00173 0.66442 0.26 0.0
H1009 H 0.04437 0.65229 0.0336 0.0
H1010 H 0.03721 0.65104 0.09565 0.0
C1011 C -0.00584 0.66276 0.29545 0.0
C1012 C 0.98507 0.64524 0.20096 0.0
H1013 H -0.00469 0.61289 0.13387 0.0
C1014 C 0.98742 0.66766 0.18295 0.0
C1015 C 0.98847 0.6255 0.18319 0.0
C1016 C 0.98775 0.60178 0.20145 0.0
C1017 C -0.00727 0.67072 0.14755 0.0
C1018 C -0.0048 0.6505 0.12957 0.0
C1019 C -0.0068 0.62826 0.14766 0.0
C1020 C -0.00018 0.65199 0.09198 0.0
C1021 C -0.00382 0.69584 0.12992 0.0
C1022 C 0.98109 0.65274 0.06933 0.0
C1023 C 0.98519 0.65363 0.0339 0.0
C1024 C 0.00798 0.65344 0.02033 0.0
C1025 C 0.02664 0.65251 0.04312 0.0
C1026 C 0.02257 0.65176 0.0786 0.0
H1027 H 0.00148 0.71256 0.14847 0.0
H1028 H 0.01217 0.70301 0.10992 0.0
H1029 H 0.97685 0.69115 0.11737 0.0
H1030 H 0.96307 0.65227 0.07903 0.0
H1031 H 0.97026 0.65409 0.01717 0.0
loop_
_geom_bond_atom_site_label_1
_geom_bond_atom_site_label_2
_geom_bond_distance
_geom_bond_site_symmetry_2
_ccdc_geom_bond_type
Mg0 O1 2.028 . S
Mg0 O7 1.986 1_565 S
Mg0 O9 2.114 . S
Mg0 O10 2.251 1_565 S
Mg0 O13 2.010 . S
O1 Mg0 2.028 . S
O1 C4 1.250 1_565 S
O2 Mg3 2.028 . S
O2 C4 1.248 . S
Mg3 O2 2.028 . S
Mg3 O8 2.032 . S
Mg3 O10 2.079 . S
C4 O1 1.250 1_545 S
C4 O2 1.248 . S
C5 O6 1.264 . S
C5 O13 1.249 . S
O6 C5 1.264 . S
O7 Mg0 1.986 1_545 S
O7 C11 1.246 . S
O8 Mg3 2.032 . S
O8 C11 1.259 . S
O9 Mg0 2.114 . S
O9 C12 1.252 . S
O10 Mg0 2.251 1_545 S
O10 Mg3 2.079 . S
O10 C12 1.273 1_545 S
C11 O7 1.246 . S
C11 O8 1.259 . S
C12 O9 1.252 . S
C12 O10 1.273 1_565 S
O13 Mg0 2.010 . S
O13 C5 1.249 . S
Mg14 O15 2.028 . S
Mg14 O21 1.986 . S
Mg14 O23 2.114 . S
Mg14 O24 2.251 . S
Mg14 O27 2.010 . S
O15 Mg14 2.028 . S
O15 C18 1.250 . S
O16 Mg17 2.028 . S
O16 C18 1.248 . S
Mg17 O16 2.028 . S
Mg17 O22 2.032 . S
Mg17 O24 2.079 . S
C18 O15 1.250 . S
C18 O16 1.248 . S
C19 O20 1.264 . S
C19 O27 1.249 . S
O20 C19 1.264 . S
O21 Mg14 1.986 . S
O21 C25 1.246 . S
O22 Mg17 2.032 . S
O22 C25 1.259 . S
O23 Mg14 2.114 . S
O23 C26 1.252 . S
O24 Mg14 2.251 . S
O24 Mg17 2.079 . S
O24 C26 1.273 . S
C25 O21 1.246 . S
C25 O22 1.259 . S
C26 O23 1.252 . S
C26 O24 1.273 . S
O27 Mg14 2.010 . S
O27 C19 1.249 . S
Mg28 O29 2.028 . S
Mg28 O35 1.986 1_455 S
Mg28 O37 2.114 . S
Mg28 O38 2.251 1_455 S
Mg28 O41 2.010 . S
O29 Mg28 2.028 . S
O29 C32 1.250 1_456 S
O30 Mg31 2.028 1_554 S
O30 C32 1.248 . S
Mg31 O30 2.028 1_556 S
Mg31 O36 2.032 . S
Mg31 O38 2.079 . S
C32 O29 1.250 1_654 S
C32 O30 1.248 . S
C33 O34 1.264 . S
C33 O41 1.249 . S
O34 C33 1.264 . S
O35 Mg28 1.986 1_655 S
O35 C39 1.246 . S
O36 Mg31 2.032 . S
O36 C39 1.259 . S
O37 Mg28 2.114 . S
O37 C40 1.299 . S
O38 Mg28 2.251 1_655 S
O38 Mg31 2.079 . S
O38 C40 1.250 1_655 S
C39 O35 1.246 . S
C39 O36 1.259 . S
C40 O37 1.299 . S
C40 O38 1.250 1_455 S
O41 Mg28 2.010 . S
O41 C33 1.249 . S
Mg42 O43 2.028 . S
Mg42 O49 1.986 1_545 S
Mg42 O51 2.114 . S
Mg42 O52 2.251 1_545 S
Mg42 O55 2.010 . S
O43 Mg42 2.028 . S
O43 C46 1.250 1_545 S
O44 Mg45 2.028 . S
O44 C46 1.248 . S
Mg45 O44 2.028 . S
Mg45 O50 2.032 . S
Mg45 O52 2.079 . S
C46 O43 1.250 1_565 S
C46 O44 1.248 . S
C47 O48 1.264 . S
C47 O55 1.249 . S
O48 C47 1.264 . S
O49 Mg42 1.986 1_565 S
O49 C53 1.246 . S
O50 Mg45 2.032 . S
O50 C53 1.259 . S
O51 Mg42 2.114 . S
O51 C54 1.252 . S
O52 Mg42 2.251 1_565 S
O52 Mg45 2.079 . S
O52 C54 1.273 1_565 S
C53 O49 1.246 . S
C53 O50 1.259 . S
C54 O51 1.252 . S
C54 O52 1.273 1_545 S
O55 Mg42 2.010 . S
O55 C47 1.249 . S
Mg56 O57 2.028 . S
Mg56 O63 1.986 . S
Mg56 O65 2.114 . S
Mg56 O66 2.251 . S
Mg56 O69 2.010 . S
O57 Mg56 2.028 . S
O57 C60 1.250 . S
O58 Mg59 2.028 . S
O58 C60 1.248 . S
Mg59 O58 2.028 . S
Mg59 O64 2.032 . S
Mg59 O66 2.079 . S
C60 O57 1.250 . S
C60 O58 1.248 . S
C61 O62 1.264 . S
C61 O69 1.249 . S
O62 C61 1.264 . S
O63 Mg56 1.986 . S
O63 C67 1.246 . S
O64 Mg59 2.032 . S
O64 C67 1.259 . S
O65 Mg56 2.114 . S
O65 C68 1.252 . S
O66 Mg56 2.251 . S
O66 Mg59 2.079 . S
O66 C68 1.273 . S
C67 O63 1.246 . S
C67 O64 1.259 . S
C68 O65 1.252 . S
C68 O66 1.273 . S
O69 Mg56 2.010 . S
O69 C61 1.249 . S
Mg70 O71 2.028 . S
Mg70 O77 1.986 1_655 S
Mg70 O79 2.114 . S
Mg70 O80 2.251 1_655 S
Mg70 O83 2.010 . S
O71 Mg70 2.028 . S
O71 C74 1.250 1_656 S
O72 Mg73 2.028 1_554 S
O72 C74 1.248 . S
Mg73 O72 2.028 1_556 S
Mg73 O78 2.032 . S
Mg73 O80 2.079 . S
C74 O71 1.250 1_454 S
C74 O72 1.248 . S
C75 O76 1.264 . S
C75 O83 1.249 . S
O76 C75 1.264 . S
O77 Mg70 1.986 1_455 S
O77 C81 1.246 . S
O78 Mg73 2.032 . S
O78 C81 1.259 . S
O79 Mg70 2.114 . S
O79 C82 1.299 . S
O80 Mg70 2.251 1_455 S
O80 Mg73 2.079 . S
O80 C82 1.250 1_455 S
C81 O77 1.246 . S
C81 O78 1.259 . S
C82 O79 1.299 . S
C82 O80 1.250 1_655 S
O83 Mg70 2.010 . S
O83 C75 1.249 . S
Mg84 O85 2.028 . S
Mg84 O91 1.986 1_455 S
Mg84 O93 2.114 . S
Mg84 O94 2.251 1_455 S
Mg84 O97 2.010 . S
O85 Mg84 2.028 . S
O85 C88 1.250 1_455 S
O86 Mg87 2.028 . S
O86 C88 1.248 . S
Mg87 O86 2.028 . S
Mg87 O92 2.032 . S
Mg87 O94 2.079 . S
C88 O85 1.250 1_655 S
C88 O86 1.248 . S
C89 O90 1.264 . S
C89 O97 1.249 . S
O90 C89 1.264 . S
O91 Mg84 1.986 1_655 S
O91 C95 1.246 . S
O92 Mg87 2.032 . S
O92 C95 1.259 . S
O93 Mg84 2.114 . S
O93 C96 1.252 . S
O94 Mg84 2.251 1_655 S
O94 Mg87 2.079 . S
O94 C96 1.273 1_655 S
C95 O91 1.246 . S
C95 O92 1.259 . S
C96 O93 1.252 . S
C96 O94 1.273 1_455 S
O97 Mg84 2.010 . S
O97 C89 1.249 . S
Mg98 O99 2.028 . S
Mg98 O105 1.986 1_545 S
Mg98 O107 2.114 . S
Mg98 O108 2.251 1_545 S
Mg98 O111 2.010 . S
O99 Mg98 2.028 . S
O99 C102 1.250 1_545 S
O100 Mg101 2.028 . S
O100 C102 1.248 . S
Mg101 O100 2.028 . S
Mg101 O106 2.032 . S
Mg101 O108 2.079 . S
C102 O99 1.250 1_565 S
C102 O100 1.248 . S
C103 O104 1.264 . S
C103 O111 1.249 . S
O104 C103 1.264 . S
O105 Mg98 1.986 1_565 S
O105 C109 1.246 . S
O106 Mg101 2.032 . S
O106 C109 1.259 . S
O107 Mg98 2.114 . S
O107 C110 1.299 . S
O108 Mg98 2.251 1_565 S
O108 Mg101 2.079 . S
O108 C110 1.250 1_565 S
C109 O105 1.246 . S
C109 O106 1.259 . S
C110 O107 1.299 . S
C110 O108 1.250 1_545 S
O111 Mg98 2.010 . S
O111 C103 1.249 . S
Mg112 O113 2.028 . S
Mg112 O119 1.986 . S
Mg112 O121 2.114 . S
Mg112 O122 2.251 . S
Mg112 O125 2.010 . S
O113 Mg112 2.028 . S
O113 C116 1.250 1_554 S
O114 Mg115 2.029 . S
O114 C116 1.248 1_554 S
Mg115 O114 2.029 . S
Mg115 O120 2.032 . S
Mg115 O122 2.079 . S
C116 O113 1.250 1_556 S
C116 O114 1.248 1_556 S
C117 O118 1.264 . S
C117 O125 1.249 . S
O118 C117 1.264 . S
O119 Mg112 1.986 . S
O119 C123 1.246 . S
O120 Mg115 2.032 . S
O120 C123 1.259 . S
O121 Mg112 2.114 . S
O121 C124 1.252 . S
O122 Mg112 2.251 . S
O122 Mg115 2.079 . S
O122 C124 1.273 . S
C123 O119 1.246 . S
C123 O120 1.259 . S
C124 O121 1.252 . S
C124 O122 1.273 . S
O125 Mg112 2.010 . S
O125 C117 1.249 . S
Mg126 O127 2.028 . S
Mg126 O133 1.986 1_655 S
Mg126 O135 2.114 . S
Mg126 O136 2.251 1_655 S
Mg126 O139 2.010 . S
O127 Mg126 2.028 . S
O127 C130 1.250 1_655 S
O128 Mg129 2.028 . S
O128 C130 1.248 . S
Mg129 O128 2.028 . S
Mg129 O134 2.032 . S
Mg129 O136 2.079 . S
C130 O127 1.250 1_455 S
C130 O128 1.248 . S
C131 O132 1.264 . S
C131 O139 1.249 . S
O132 C131 1.264 . S
O133 Mg126 1.986 1_455 S
O133 C137 1.246 . S
O134 Mg129 2.032 . S
O134 C137 1.259 . S
O135 Mg126 2.114 . S
O135 C138 1.252 . S
O136 Mg126 2.251 1_455 S
O136 Mg129 2.079 . S
O136 C138 1.273 1_455 S
C137 O133 1.246 . S
C137 O134 1.259 . S
C138 O135 1.252 . S
C138 O136 1.273 1_655 S
O139 Mg126 2.010 . S
O139 C131 1.249 . S
Mg140 O141 2.028 . S
Mg140 O147 1.986 1_565 S
Mg140 O149 2.114 . S
Mg140 O150 2.251 1_565 S
Mg140 O153 2.010 . S
O141 Mg140 2.028 . S
O141 C144 1.250 1_565 S
O142 Mg143 2.028 . S
O142 C144 1.248 . S
Mg143 O142 2.028 . S
Mg143 O148 2.032 . S
Mg143 O150 2.079 . S
C144 O141 1.250 1_545 S
C144 O142 1.248 . S
C145 O146 1.264 . S
C145 O153 1.249 . S
O146 C145 1.264 . S
O147 Mg140 1.986 1_545 S
O147 C151 1.246 . S
O148 Mg143 2.032 . S
O148 C151 1.259 . S
O149 Mg140 2.114 . S
O149 C152 1.299 . S
O150 Mg140 2.251 1_545 S
O150 Mg143 2.079 . S
O150 C152 1.250 1_545 S
C151 O147 1.246 . S
C151 O148 1.259 . S
C152 O149 1.299 . S
C152 O150 1.250 1_565 S
O153 Mg140 2.010 . S
O153 C145 1.249 . S
Mg154 O155 2.028 . S
Mg154 O161 1.986 . S
Mg154 O163 2.114 . S
Mg154 O164 2.251 . S
Mg154 O167 2.010 . S
O155 Mg154 2.028 . S
O155 C158 1.250 1_554 S
O156 Mg157 2.029 . S
O156 C158 1.248 1_554 S
Mg157 O156 2.029 . S
Mg157 O162 2.032 . S
Mg157 O164 2.079 . S
C158 O155 1.250 1_556 S
C158 O156 1.248 1_556 S
C159 O160 1.264 . S
C159 O167 1.249 . S
O160 C159 1.264 . S
O161 Mg154 1.986 . S
O161 C165 1.246 . S
O162 Mg157 2.032 . S
O162 C165 1.259 . S
O163 Mg154 2.114 . S
O163 C166 1.252 . S
O164 Mg154 2.251 . S
O164 Mg157 2.079 . S
O164 C166 1.273 . S
C165 O161 1.246 . S
C165 O162 1.259 . S
C166 O163 1.252 . S
C166 O164 1.273 . S
O167 Mg154 2.010 . S
O167 C159 1.249 . S
H168 C176 0.929 . S
H169 C178 0.930 . S
H170 C180 0.930 . S
H171 C183 0.929 . S
H172 C186 0.930 . S
H173 C188 0.960 . S
H174 C188 0.960 . S
H175 C188 0.960 . S
C176 H168 0.929 . S
C176 C177 1.377 . S
C176 C178 1.384 . S
C177 C176 1.377 . S
C177 C183 1.390 . S
C178 H169 0.930 . S
C178 C176 1.384 . S
C178 C179 1.372 . S
C179 C178 1.372 . S
C179 C180 1.400 . S
C179 C184 1.490 . S
C180 H170 0.930 . S
C180 C179 1.400 . S
C180 C183 1.386 . S
H181 C197 0.930 . S
H182 C198 0.931 . S
C183 H171 0.929 . S
C183 C177 1.390 . S
C183 C180 1.386 . S
C184 C179 1.490 . S
C184 C186 1.395 . S
C184 C187 1.403 . S
H185 C191 0.930 . S
C186 H172 0.930 . S
C186 C184 1.395 . S
C186 C189 1.403 . S
C187 C184 1.403 . S
C187 C188 1.524 . S
C187 C191 1.400 . S
C188 H173 0.960 . S
C188 H174 0.960 . S
C188 H175 0.960 . S
C188 C187 1.524 . S
C189 C186 1.403 . S
C189 C190 1.392 . S
C189 C193 1.495 . S
C190 C189 1.392 . S
C190 C191 1.385 . S
C190 C192 1.478 . S
C191 H185 0.930 . S
C191 C187 1.400 . S
C191 C190 1.385 . S
C192 C190 1.478 . S
C192 C194 1.381 . S
C192 C198 1.383 . S
C193 C189 1.495 . S
C193 H199 0.959 . S
C193 H200 0.961 . S
C193 H201 0.960 . S
C194 C192 1.381 . S
C194 C195 1.394 . S
C194 H202 0.930 . S
C195 C194 1.394 . S
C195 C196 1.383 . S
C195 H203 0.929 . S
C196 C195 1.383 . S
C196 C197 1.377 . S
C197 H181 0.930 . S
C197 C196 1.377 . S
C197 C198 1.379 . S
C198 H182 0.931 . S
C198 C192 1.383 . S
C198 C197 1.379 . S
H199 C193 0.959 . S
H200 C193 0.961 . S
H201 C193 0.960 . S
H202 C194 0.930 . S
H203 C195 0.929 . S
H204 C212 0.929 . S
H205 C214 0.930 . S
H206 C216 0.930 . S
H207 C219 0.929 . S
H208 C222 0.930 . S
H209 C224 0.960 . S
H210 C224 0.960 . S
H211 C224 0.960 . S
C212 H204 0.929 . S
C212 C213 1.377 . S
C212 C214 1.384 . S
C213 C212 1.377 . S
C213 C219 1.390 . S
C214 H205 0.930 . S
C214 C212 1.384 . S
C214 C215 1.372 . S
C215 C214 1.372 . S
C215 C216 1.400 . S
C215 C220 1.490 . S
C216 H206 0.930 . S
C216 C215 1.400 . S
C216 C219 1.386 . S
H217 C233 0.930 . S
H218 C234 0.931 . S
C219 H207 0.929 . S
C219 C213 1.390 . S
C219 C216 1.386 . S
C220 C215 1.490 . S
C220 C222 1.395 . S
C220 C223 1.403 . S
H221 C227 0.930 . S
C222 H208 0.930 . S
C222 C220 1.395 . S
C222 C225 1.403 . S
C223 C220 1.403 . S
C223 C224 1.524 . S
C223 C227 1.400 . S
C224 H209 0.960 . S
C224 H210 0.960 . S
C224 H211 0.960 . S
C224 C223 1.524 . S
C225 C222 1.403 . S
C225 C226 1.392 . S
C225 C229 1.495 . S
C226 C225 1.392 . S
C226 C227 1.385 . S
C226 C228 1.478 . S
C227 H221 0.930 . S
C227 C223 1.400 . S
C227 C226 1.385 . S
C228 C226 1.478 . S
C228 C230 1.381 . S
C228 C234 1.383 . S
C229 C225 1.495 . S
C229 H235 0.959 . S
C229 H236 0.961 . S
C229 H237 0.960 . S
C230 C228 1.381 . S
C230 C231 1.394 . S
C230 H238 0.930 . S
C231 C230 1.394 . S
C231 C232 1.383 . S
C231 H239 0.929 . S
C232 C231 1.383 . S
C232 C233 1.377 . S
C233 H217 0.930 . S
C233 C232 1.377 . S
C233 C234 1.379 . S
C234 H218 0.931 . S
C234 C228 1.383 . S
C234 C233 1.379 . S
H235 C229 0.959 . S
H236 C229 0.961 . S
H237 C229 0.960 . S
H238 C230 0.930 . S
H239 C231 0.929 . S
H240 C248 0.929 . S
H241 C250 0.930 . S
H242 C252 0.930 . S
H243 C255 0.929 . S
H244 C258 0.930 . S
H245 C260 0.960 . S
H246 C260 0.960 . S
H247 C260 0.960 . S
C248 H240 0.929 . S
C248 C249 1.377 . S
C248 C250 1.384 . S
C249 C248 1.377 . S
C249 C255 1.390 . S
C250 H241 0.930 . S
C250 C248 1.384 . S
C250 C251 1.372 . S
C251 C250 1.372 . S
C251 C252 1.400 . S
C251 C256 1.490 . S
C252 H242 0.930 . S
C252 C251 1.400 . S
C252 C255 1.386 . S
H253 C269 0.930 . S
H254 C270 0.931 . S
C255 H243 0.929 . S
C255 C249 1.390 . S
C255 C252 1.386 . S
C256 C251 1.490 . S
C256 C258 1.395 . S
C256 C259 1.403 . S
H257 C263 0.930 . S
C258 H244 0.930 . S
C258 C256 1.395 . S
C258 C261 1.403 . S
C259 C256 1.403 . S
C259 C260 1.524 . S
C259 C263 1.400 . S
C260 H245 0.960 . S
C260 H246 0.960 . S
C260 H247 0.960 . S
C260 C259 1.524 . S
C261 C258 1.403 . S
C261 C262 1.392 . S
C261 C265 1.495 . S
C262 C261 1.392 . S
C262 C263 1.385 . S
C262 C264 1.478 . S
C263 H257 0.930 . S
C263 C259 1.400 . S
C263 C262 1.385 . S
C264 C262 1.478 . S
C264 C266 1.381 . S
C264 C270 1.383 . S
C265 C261 1.495 . S
C265 H271 0.959 . S
C265 H272 0.961 . S
C265 H273 0.960 . S
C266 C264 1.381 . S
C266 C267 1.394 . S
C266 H274 0.930 . S
C267 C266 1.394 . S
C267 C268 1.383 . S
C267 H275 0.929 . S
C268 C267 1.383 . S
C268 C269 1.377 . S
C269 H253 0.930 . S
C269 C268 1.377 . S
C269 C270 1.379 . S
C270 H254 0.931 . S
C270 C264 1.383 . S
C270 C269 1.379 . S
H271 C265 0.959 . S
H272 C265 0.961 . S
H273 C265 0.960 . S
H274 C266 0.930 . S
H275 C267 0.929 . S
H276 C284 0.929 . S
H277 C286 0.930 . S
H278 C288 0.930 . S
H279 C291 0.929 . S
H280 C294 0.930 . S
H281 C296 0.960 . S
H282 C296 0.960 . S
H283 C296 0.960 . S
C284 H276 0.929 . S
C284 C285 1.377 . S
C284 C286 1.384 . S
C285 C284 1.377 . S
C285 C291 1.390 . S
C286 H277 0.930 . S
C286 C284 1.384 . S
C286 C287 1.372 . S
C287 C286 1.372 . S
C287 C288 1.400 . S
C287 C292 1.490 . S
C288 H278 0.930 . S
C288 C287 1.400 . S
C288 C291 1.386 . S
H289 C305 0.930 . S
H290 C306 0.931 . S
C291 H279 0.929 . S
C291 C285 1.390 . S
C291 C288 1.386 . S
C292 C287 1.490 . S
C292 C294 1.395 . S
C292 C295 1.403 . S
H293 C299 0.930 . S
C294 H280 0.930 . S
C294 C292 1.395 . S
C294 C297 1.403 . S
C295 C292 1.403 . S
C295 C296 1.524 . S
C295 C299 1.400 . S
C296 H281 0.960 . S
C296 H282 0.960 . S
C296 H283 0.960 . S
C296 C295 1.524 . S
C297 C294 1.403 . S
C297 C298 1.392 . S
C297 C301 1.495 . S
C298 C297 1.392 . S
C298 C299 1.385 . S
C298 C300 1.478 . S
C299 H293 0.930 . S
C299 C295 1.400 . S
C299 C298 1.385 . S
C300 C298 1.478 . S
C300 C302 1.381 . S
C300 C306 1.383 . S
C301 C297 1.495 . S
C301 H307 0.959 . S
C301 H308 0.961 . S
C301 H309 0.960 . S
C302 C300 1.381 . S
C302 C303 1.394 . S
C302 H310 0.930 . S
C303 C302 1.394 . S
C303 C304 1.383 . S
C303 H311 0.929 . S
C304 C303 1.383 . S
C304 C305 1.377 . S
C305 H289 0.930 . S
C305 C304 1.377 . S
C305 C306 1.379 . S
C306 H290 0.931 . S
C306 C300 1.383 . S
C306 C305 1.379 . S
H307 C301 0.959 . S
H308 C301 0.961 . S
H309 C301 0.960 . S
H310 C302 0.930 . S
H311 C303 0.929 . S
H312 C320 0.929 . S
H313 C322 0.930 . S
H314 C324 0.930 . S
H315 C327 0.929 . S
H316 C330 0.930 . S
H317 C332 0.960 . S
H318 C332 0.960 . S
H319 C332 0.960 . S
C320 H312 0.929 . S
C320 C321 1.377 . S
C320 C322 1.384 . S
C321 C320 1.377 . S
C321 C327 1.390 . S
C322 H313 0.930 . S
C322 C320 1.384 . S
C322 C323 1.372 . S
C323 C322 1.372 . S
C323 C324 1.400 . S
C323 C328 1.490 . S
C324 H314 0.930 . S
C324 C323 1.400 . S
C324 C327 1.386 . S
H325 C341 0.930 . S
H326 C342 0.931 . S
C327 H315 0.929 . S
C327 C321 1.390 . S
C327 C324 1.386 . S
C328 C323 1.490 . S
C328 C330 1.395 . S
C328 C331 1.403 . S
H329 C335 0.930 . S
C330 H316 0.930 . S
C330 C328 1.395 . S
C330 C333 1.403 . S
C331 C328 1.403 . S
C331 C332 1.524 . S
C331 C335 1.400 . S
C332 H317 0.960 . S
C332 H318 0.960 . S
C332 H319 0.960 . S
C332 C331 1.524 . S
C333 C330 1.403 . S
C333 C334 1.392 . S
C333 C337 1.495 . S
C334 C333 1.392 . S
C334 C335 1.385 . S
C334 C336 1.478 . S
C335 H329 0.930 . S
C335 C331 1.400 . S
C335 C334 1.385 . S
C336 C334 1.478 . S
C336 C338 1.381 . S
C336 C342 1.383 . S
C337 C333 1.495 . S
C337 H343 0.959 . S
C337 H344 0.961 . S
C337 H345 0.960 . S
C338 C336 1.381 . S
C338 C339 1.394 . S
C338 H346 0.930 . S
C339 C338 1.394 . S
C339 C340 1.383 . S
C339 H347 0.929 . S
C340 C339 1.383 . S
C340 C341 1.377 . S
C341 H325 0.930 . S
C341 C340 1.377 . S
C341 C342 1.379 . S
C342 H326 0.931 . S
C342 C336 1.383 . S
C342 C341 1.379 . S
H343 C337 0.959 . S
H344 C337 0.961 . S
H345 C337 0.960 . S
H346 C338 0.930 . S
H347 C339 0.929 . S
H348 C356 0.929 . S
H349 C358 0.930 . S
H350 C360 0.930 . S
H351 C363 0.929 . S
H352 C366 0.930 . S
H353 C368 0.960 . S
H354 C368 0.960 . S
H355 C368 0.960 . S
C356 H348 0.929 . S
C356 C357 1.377 . S
C356 C358 1.384 . S
C357 C356 1.377 . S
C357 C363 1.390 . S
C358 H349 0.930 . S
C358 C356 1.384 . S
C358 C359 1.372 . S
C359 C358 1.372 . S
C359 C360 1.400 . S
C359 C364 1.490 . S
C360 H350 0.930 . S
C360 C359 1.400 . S
C360 C363 1.386 . S
H361 C377 0.930 . S
H362 C378 0.931 . S
C363 H351 0.929 . S
C363 C357 1.390 . S
C363 C360 1.386 . S
C364 C359 1.490 . S
C364 C366 1.395 . S
C364 C367 1.403 . S
H365 C371 0.930 . S
C366 H352 0.930 . S
C366 C364 1.395 . S
C366 C369 1.403 . S
C367 C364 1.403 . S
C367 C368 1.524 . S
C367 C371 1.400 . S
C368 H353 0.960 . S
C368 H354 0.960 . S
C368 H355 0.960 . S
C368 C367 1.524 . S
C369 C366 1.403 . S
C369 C370 1.392 . S
C369 C373 1.495 . S
C370 C369 1.392 . S
C370 C371 1.385 . S
C370 C372 1.478 . S
C371 H365 0.930 . S
C371 C367 1.400 . S
C371 C370 1.385 . S
C372 C370 1.478 . S
C372 C374 1.381 . S
C372 C378 1.383 . S
C373 C369 1.495 . S
C373 H379 0.959 . S
C373 H380 0.961 . S
C373 H381 0.960 . S
C374 C372 1.381 . S
C374 C375 1.394 . S
C374 H382 0.930 . S
C375 C374 1.394 . S
C375 C376 1.383 . S
C375 H383 0.929 . S
C376 C375 1.383 . S
C376 C377 1.377 . S
C377 H361 0.930 . S
C377 C376 1.377 . S
C377 C378 1.379 . S
C378 H362 0.931 . S
C378 C372 1.383 . S
C378 C377 1.379 . S
H379 C373 0.959 . S
H380 C373 0.961 . S
H381 C373 0.960 . S
H382 C374 0.930 . S
H383 C375 0.929 . S
H384 C392 0.929 . S
H385 C394 0.930 . S
H386 C396 0.930 . S
H387 C399 0.929 . S
H388 C402 0.934 1_565 S
H389 C404 0.960 . S
H390 C404 0.960 . S
H391 C404 0.960 1_565 S
C392 H384 0.929 . S
C392 C393 1.369 1_545 S
C392 C394 1.384 . S
C393 C392 1.369 1_565 S
C393 C399 1.409 . S
C394 H385 0.930 . S
C394 C392 1.384 . S
C394 C395 1.372 . S
C395 C394 1.372 . S
C395 C396 1.400 1_545 S
C395 C400 1.490 . S
C396 H386 0.930 . S
C396 C395 1.400 1_565 S
C396 C399 1.386 . S
H397 C413 0.930 . S
H398 C414 0.931 . S
C399 H387 0.929 . S
C399 C393 1.409 . S
C399 C396 1.386 . S
C400 C395 1.490 . S
C400 C402 1.397 . S
C400 C403 1.403 . S
H401 C407 0.930 . S
C402 H388 0.934 1_545 S
C402 C400 1.397 . S
C402 C405 1.397 . S
C403 C400 1.403 . S
C403 C404 1.524 . S
C403 C407 1.400 . S
C404 H389 0.960 . S
C404 H390 0.960 . S
C404 H391 0.960 1_545 S
C404 C403 1.524 . S
C405 C402 1.397 . S
C405 C406 1.405 . S
C405 C409 1.496 1_545 S
C406 C405 1.405 . S
C406 C407 1.398 . S
C406 C408 1.464 . S
C407 H401 0.930 . S
C407 C403 1.400 . S
C407 C406 1.398 . S
C408 C406 1.464 . S
C408 C410 1.389 . S
C408 C414 1.365 1_545 S
C409 C405 1.496 1_565 S
C409 H415 0.959 . S
C409 H416 0.961 . S
C409 H417 0.960 1_565 S
C410 C408 1.389 . S
C410 C411 1.394 . S
C410 H418 0.930 . S
C411 C410 1.394 . S
C411 C412 1.420 . S
C411 H419 0.929 . S
C412 C411 1.420 . S
C412 C413 1.361 1_545 S
C413 H397 0.930 . S
C413 C412 1.361 1_565 S
C413 C414 1.379 . S
C414 H398 0.931 . S
C414 C408 1.365 1_565 S
C414 C413 1.379 . S
H415 C409 0.959 . S
H416 C409 0.961 . S
H417 C409 0.960 1_545 S
H418 C410 0.930 . S
H419 C411 0.929 . S
H420 C428 0.929 . S
H421 C430 0.930 . S
H422 C432 0.930 . S
H423 C435 0.929 . S
H424 C438 0.930 . S
H425 C440 0.960 . S
H426 C440 0.960 . S
H427 C440 0.960 . S
C428 H420 0.929 . S
C428 C429 1.377 . S
C428 C430 1.384 . S
C429 C428 1.377 . S
C429 C435 1.390 . S
C430 H421 0.930 . S
C430 C428 1.384 . S
C430 C431 1.372 . S
C431 C430 1.372 . S
C431 C432 1.400 . S
C431 C436 1.490 . S
C432 H422 0.930 . S
C432 C431 1.400 . S
C432 C435 1.386 . S
H433 C449 0.930 . S
H434 C450 0.931 . S
C435 H423 0.929 . S
C435 C429 1.390 . S
C435 C432 1.386 . S
C436 C431 1.490 . S
C436 C438 1.395 . S
C436 C439 1.403 . S
H437 C443 0.930 . S
C438 H424 0.930 . S
C438 C436 1.395 . S
C438 C441 1.403 . S
C439 C436 1.403 . S
C439 C440 1.524 . S
C439 C443 1.400 . S
C440 H425 0.960 . S
C440 H426 0.960 . S
C440 H427 0.960 . S
C440 C439 1.524 . S
C441 C438 1.403 . S
C441 C442 1.392 . S
C441 C445 1.495 . S
C442 C441 1.392 . S
C442 C443 1.385 . S
C442 C444 1.478 . S
C443 H437 0.930 . S
C443 C439 1.400 . S
C443 C442 1.385 . S
C444 C442 1.478 . S
C444 C446 1.381 . S
C444 C450 1.383 . S
C445 C441 1.495 . S
C445 H451 0.959 . S
C445 H452 0.961 . S
C445 H453 0.960 . S
C446 C444 1.381 . S
C446 C447 1.394 . S
C446 H454 0.930 . S
C447 C446 1.394 . S
C447 C448 1.383 . S
C447 H455 0.929 . S
C448 C447 1.383 . S
C448 C449 1.377 . S
C449 H433 0.930 . S
C449 C448 1.377 . S
C449 C450 1.379 . S
C450 H434 0.931 . S
C450 C444 1.383 . S
C450 C449 1.379 . S
H451 C445 0.959 . S
H452 C445 0.961 . S
H453 C445 0.960 . S
H454 C446 0.930 . S
H455 C447 0.929 . S
H456 C464 0.929 . S
H457 C466 0.930 . S
H458 C468 0.930 . S
H459 C471 0.929 . S
H460 C474 0.930 . S
H461 C476 0.960 . S
H462 C476 0.960 . S
H463 C476 0.960 . S
C464 H456 0.929 . S
C464 C465 1.343 1_455 S
C464 C466 1.384 . S
C465 C464 1.343 1_655 S
C465 C471 1.404 . S
C466 H457 0.930 . S
C466 C464 1.384 . S
C466 C467 1.386 . S
C467 C466 1.386 . S
C467 C468 1.365 1_455 S
C467 C472 1.511 . S
C468 H458 0.930 . S
C468 C467 1.365 1_655 S
C468 C471 1.386 . S
H469 C485 0.930 . S
H470 C486 0.931 . S
C471 H459 0.929 . S
C471 C465 1.404 . S
C471 C468 1.386 . S
C472 C467 1.511 . S
C472 C474 1.395 . S
C472 C475 1.403 1_455 S
H473 C479 0.930 . S
C474 H460 0.930 . S
C474 C472 1.395 . S
C474 C477 1.403 . S
C475 C472 1.403 1_655 S
C475 C476 1.524 . S
C475 C479 1.400 . S
C476 H461 0.960 . S
C476 H462 0.960 . S
C476 H463 0.960 . S
C476 C475 1.524 . S
C477 C474 1.403 . S
C477 C478 1.392 . S
C477 C481 1.495 . S
C478 C477 1.392 . S
C478 C479 1.385 1_455 S
C478 C480 1.478 . S
C479 H473 0.930 . S
C479 C475 1.400 . S
C479 C478 1.385 1_655 S
C480 C478 1.478 . S
C480 C482 1.381 . S
C480 C486 1.383 1_455 S
C481 C477 1.495 . S
C481 H487 0.959 . S
C481 H488 0.961 . S
C481 H489 0.960 . S
C482 C480 1.381 . S
C482 C483 1.394 . S
C482 H490 0.930 . S
C483 C482 1.394 . S
C483 C484 1.383 . S
C483 H491 0.929 . S
C484 C483 1.383 . S
C484 C485 1.377 1_455 S
C485 H469 0.930 . S
C485 C484 1.377 1_655 S
C485 C486 1.379 . S
C486 H470 0.931 . S
C486 C480 1.383 1_655 S
C486 C485 1.379 . S
H487 C481 0.959 . S
H488 C481 0.961 . S
H489 C481 0.960 . S
H490 C482 0.930 . S
H491 C483 0.929 . S
H492 C500 0.929 . S
H493 C502 0.930 . S
H494 C504 0.930 . S
H495 C507 0.929 . S
H496 C510 0.930 . S
H497 C512 0.960 . S
H498 C512 0.960 . S
H499 C512 0.960 . S
C500 H492 0.929 . S
C500 C501 1.377 1_655 S
C500 C502 1.384 . S
C501 C500 1.377 1_455 S
C501 C507 1.390 . S
C502 H493 0.930 . S
C502 C500 1.384 . S
C502 C503 1.379 . S
C503 C502 1.379 . S
C503 C504 1.398 1_655 S
C503 C508 1.486 . S
C504 H494 0.930 . S
C504 C503 1.398 1_455 S
C504 C507 1.386 . S
H505 C521 0.930 . S
H506 C522 0.931 . S
C507 H495 0.929 . S
C507 C501 1.390 . S
C507 C504 1.386 . S
C508 C503 1.486 . S
C508 C510 1.395 . S
C508 C511 1.403 1_655 S
H509 C515 0.930 . S
C510 H496 0.930 . S
C510 C508 1.395 . S
C510 C513 1.403 . S
C511 C508 1.403 1_455 S
C511 C512 1.524 . S
C511 C515 1.400 . S
C512 H497 0.960 . S
C512 H498 0.960 . S
C512 H499 0.960 . S
C512 C511 1.524 . S
C513 C510 1.403 . S
C513 C514 1.392 . S
C513 C517 1.495 . S
C514 C513 1.392 . S
C514 C515 1.385 1_655 S
C514 C516 1.478 . S
C515 H509 0.930 . S
C515 C511 1.400 . S
C515 C514 1.385 1_455 S
C516 C514 1.478 . S
C516 C518 1.381 . S
C516 C522 1.383 1_655 S
C517 C513 1.495 . S
C517 H523 0.959 . S
C517 H524 0.961 . S
C517 H525 0.960 . S
C518 C516 1.381 . S
C518 C519 1.394 . S
C518 H526 0.930 . S
C519 C518 1.394 . S
C519 C520 1.383 . S
C519 H527 0.929 . S
C520 C519 1.383 . S
C520 C521 1.377 1_655 S
C521 H505 0.930 . S
C521 C520 1.377 1_455 S
C521 C522 1.379 . S
C522 H506 0.931 . S
C522 C516 1.383 1_455 S
C522 C521 1.379 . S
H523 C517 0.959 . S
H524 C517 0.961 . S
H525 C517 0.960 . S
H526 C518 0.930 . S
H527 C519 0.929 . S
H528 C536 0.929 . S
H529 C538 0.930 . S
H530 C540 0.930 . S
H531 C543 0.929 . S
H532 C546 0.930 . S
H533 C548 0.960 . S
H534 C548 0.960 . S
H535 C548 0.960 . S
C536 H528 0.929 . S
C536 C537 1.367 1_545 S
C536 C538 1.384 . S
C537 C536 1.367 1_565 S
C537 C543 1.391 . S
C538 H529 0.930 . S
C538 C536 1.384 . S
C538 C539 1.375 . S
C539 C538 1.375 . S
C539 C540 1.383 1_545 S
C539 C544 1.498 . S
C540 H530 0.930 . S
C540 C539 1.383 1_565 S
C540 C543 1.386 . S
H541 C557 0.930 . S
H542 C558 0.931 . S
C543 H531 0.929 . S
C543 C537 1.391 . S
C543 C540 1.386 . S
C544 C539 1.498 . S
C544 C546 1.392 1_545 S
C544 C547 1.411 . S
H545 C551 0.930 . S
C546 H532 0.930 . S
C546 C544 1.392 1_565 S
C546 C549 1.403 . S
C547 C544 1.411 . S
C547 C548 1.524 . S
C547 C551 1.400 . S
C548 H533 0.960 . S
C548 H534 0.960 . S
C548 H535 0.960 . S
C548 C547 1.524 . S
C549 C546 1.403 . S
C549 C550 1.392 . S
C549 C553 1.495 . S
C550 C549 1.392 . S
C550 C551 1.385 1_565 S
C550 C552 1.478 . S
C551 H545 0.930 . S
C551 C547 1.400 . S
C551 C550 1.385 1_545 S
C552 C550 1.478 . S
C552 C554 1.381 1_565 S
C552 C558 1.383 . S
C553 C549 1.495 . S
C553 H559 0.959 . S
C553 H560 0.961 . S
C553 H561 0.960 . S
C554 C552 1.381 1_545 S
C554 C555 1.394 . S
C554 H562 0.930 . S
C555 C554 1.394 . S
C555 C556 1.382 1_545 S
C555 H563 0.929 . S
C556 C555 1.382 1_565 S
C556 C557 1.381 . S
C557 H541 0.930 . S
C557 C556 1.381 . S
C557 C558 1.379 . S
C558 H542 0.931 . S
C558 C552 1.383 . S
C558 C557 1.379 . S
H559 C553 0.959 . S
H560 C553 0.961 . S
H561 C553 0.960 . S
H562 C554 0.930 . S
H563 C555 0.929 . S
H564 C572 0.929 . S
H565 C574 0.930 . S
H566 C576 0.930 . S
H567 C579 0.929 . S
H568 C582 0.930 . S
H569 C584 0.960 1_556 S
H570 C584 0.960 . S
H571 C584 0.960 . S
C572 H564 0.929 . S
C572 C573 1.377 . S
C572 C574 1.384 . S
C573 C572 1.377 . S
C573 C579 1.390 . S
C574 H565 0.930 . S
C574 C572 1.384 . S
C574 C575 1.372 . S
C575 C574 1.372 . S
C575 C576 1.400 . S
C575 C580 1.490 . S
C576 H566 0.930 . S
C576 C575 1.400 . S
C576 C579 1.386 . S
H577 C593 0.930 . S
H578 C594 0.931 . S
C579 H567 0.929 . S
C579 C573 1.390 . S
C579 C576 1.386 . S
C580 C575 1.490 . S
C580 C582 1.395 . S
C580 C583 1.403 . S
H581 C587 0.930 . S
C582 H568 0.930 . S
C582 C580 1.395 . S
C582 C585 1.403 . S
C583 C580 1.403 . S
C583 C584 1.524 . S
C583 C587 1.400 . S
C584 H569 0.960 1_554 S
C584 H570 0.960 . S
C584 H571 0.960 . S
C584 C583 1.524 . S
C585 C582 1.403 . S
C585 C586 1.392 . S
C585 C589 1.495 . S
C586 C585 1.392 . S
C586 C587 1.385 . S
C586 C588 1.478 . S
C587 H581 0.930 . S
C587 C583 1.400 . S
C587 C586 1.385 . S
C588 C586 1.478 . S
C588 C590 1.381 . S
C588 C594 1.383 . S
C589 C585 1.495 . S
C589 H595 0.959 . S
C589 H596 0.961 . S
C589 H597 0.960 . S
C590 C588 1.381 . S
C590 C591 1.394 . S
C590 H598 0.930 . S
C591 C590 1.394 . S
C591 C592 1.383 . S
C591 H599 0.929 . S
C592 C591 1.383 . S
C592 C593 1.377 . S
C593 H577 0.930 . S
C593 C592 1.377 . S
C593 C594 1.379 . S
C594 H578 0.931 . S
C594 C588 1.383 . S
C594 C593 1.379 . S
H595 C589 0.959 . S
H596 C589 0.961 . S
H597 C589 0.960 . S
H598 C590 0.930 . S
H599 C591 0.929 . S
H600 C608 0.929 . S
H601 C610 0.930 . S
H602 C612 0.930 . S
H603 C615 0.929 . S
H604 C618 0.930 . S
H605 C620 0.960 . S
H606 C620 0.960 . S
H607 C620 0.960 . S
C608 H600 0.929 . S
C608 C609 1.377 . S
C608 C610 1.384 . S
C609 C608 1.377 . S
C609 C615 1.390 . S
C610 H601 0.930 . S
C610 C608 1.384 . S
C610 C611 1.372 . S
C611 C610 1.372 . S
C611 C612 1.400 . S
C611 C616 1.490 . S
C612 H602 0.930 . S
C612 C611 1.400 . S
C612 C615 1.386 . S
H613 C629 0.930 . S
H614 C630 0.931 . S
C615 H603 0.929 . S
C615 C609 1.390 . S
C615 C612 1.386 . S
C616 C611 1.490 . S
C616 C618 1.395 . S
C616 C619 1.403 . S
H617 C623 0.930 . S
C618 H604 0.930 . S
C618 C616 1.395 . S
C618 C621 1.403 . S
C619 C616 1.403 . S
C619 C620 1.524 . S
C619 C623 1.400 . S
C620 H605 0.960 . S
C620 H606 0.960 . S
C620 H607 0.960 . S
C620 C619 1.524 . S
C621 C618 1.403 . S
C621 C622 1.392 . S
C621 C625 1.495 . S
C622 C621 1.392 . S
C622 C623 1.385 . S
C622 C624 1.478 . S
C623 H617 0.930 . S
C623 C619 1.400 . S
C623 C622 1.385 . S
C624 C622 1.478 . S
C624 C626 1.381 . S
C624 C630 1.383 . S
C625 C621 1.495 . S
C625 H631 0.959 . S
C625 H632 0.961 . S
C625 H633 0.960 . S
C626 C624 1.381 . S
C626 C627 1.394 . S
C626 H634 0.930 . S
C627 C626 1.394 . S
C627 C628 1.383 . S
C627 H635 0.929 . S
C628 C627 1.383 . S
C628 C629 1.377 . S
C629 H613 0.930 . S
C629 C628 1.377 . S
C629 C630 1.379 . S
C630 H614 0.931 . S
C630 C624 1.383 . S
C630 C629 1.379 . S
H631 C625 0.959 . S
H632 C625 0.961 . S
H633 C625 0.960 . S
H634 C626 0.930 . S
H635 C627 0.929 . S
H636 C644 0.929 . S
H637 C646 0.930 . S
H638 C648 0.930 . S
H639 C651 0.929 . S
H640 C654 0.930 . S
H641 C656 0.960 . S
H642 C656 0.960 . S
H643 C656 0.960 . S
C644 H636 0.929 . S
C644 C645 1.377 . S
C644 C646 1.384 . S
C645 C644 1.377 . S
C645 C651 1.390 . S
C646 H637 0.930 . S
C646 C644 1.384 . S
C646 C647 1.372 . S
C647 C646 1.372 . S
C647 C648 1.400 . S
C647 C652 1.490 . S
C648 H638 0.930 . S
C648 C647 1.400 . S
C648 C651 1.386 . S
H649 C665 0.930 . S
H650 C666 0.931 . S
C651 H639 0.929 . S
C651 C645 1.390 . S
C651 C648 1.386 . S
C652 C647 1.490 . S
C652 C654 1.395 . S
C652 C655 1.403 . S
H653 C659 0.930 . S
C654 H640 0.930 . S
C654 C652 1.395 . S
C654 C657 1.403 . S
C655 C652 1.403 . S
C655 C656 1.524 . S
C655 C659 1.400 . S
C656 H641 0.960 . S
C656 H642 0.960 . S
C656 H643 0.960 . S
C656 C655 1.524 . S
C657 C654 1.403 . S
C657 C658 1.392 . S
C657 C661 1.495 . S
C658 C657 1.392 . S
C658 C659 1.385 . S
C658 C660 1.478 . S
C659 H653 0.930 . S
C659 C655 1.400 . S
C659 C658 1.385 . S
C660 C658 1.478 . S
C660 C662 1.381 . S
C660 C666 1.383 . S
C661 C657 1.495 . S
C661 H667 0.959 . S
C661 H668 0.961 . S
C661 H669 0.960 . S
C662 C660 1.381 . S
C662 C663 1.394 . S
C662 H670 0.930 . S
C663 C662 1.394 . S
C663 C664 1.383 . S
C663 H671 0.929 . S
C664 C663 1.383 . S
C664 C665 1.377 . S
C665 H649 0.930 . S
C665 C664 1.377 . S
C665 C666 1.379 . S
C666 H650 0.931 . S
C666 C660 1.383 . S
C666 C665 1.379 . S
H667 C661 0.959 . S
H668 C661 0.961 . S
H669 C661 0.960 . S
H670 C662 0.930 . S
H671 C663 0.929 . S
H672 C680 0.929 . S
H673 C682 0.930 . S
H674 C684 0.930 1_556 S
H675 C687 0.929 . S
H676 C690 0.930 . S
H677 C692 0.960 . S
H678 C692 0.960 . S
H679 C692 0.960 . S
C680 H672 0.929 . S
C680 C681 1.377 . S
C680 C682 1.384 . S
C681 C680 1.377 . S
C681 C687 1.390 . S
C682 H673 0.930 . S
C682 C680 1.384 . S
C682 C683 1.372 . S
C683 C682 1.372 . S
C683 C684 1.400 . S
C683 C688 1.490 . S
C684 H674 0.930 1_554 S
C684 C683 1.400 . S
C684 C687 1.386 . S
H685 C701 0.930 . S
H686 C702 0.931 . S
C687 H675 0.929 . S
C687 C681 1.390 . S
C687 C684 1.386 . S
C688 C683 1.490 . S
C688 C690 1.395 . S
C688 C691 1.403 1_554 S
H689 C695 0.930 . S
C690 H676 0.930 . S
C690 C688 1.395 . S
C690 C693 1.403 . S
C691 C688 1.403 1_556 S
C691 C692 1.524 . S
C691 C695 1.400 . S
C692 H677 0.960 . S
C692 H678 0.960 . S
C692 H679 0.960 . S
C692 C691 1.524 . S
C693 C690 1.403 . S
C693 C694 1.392 1_554 S
C693 C697 1.495 . S
C694 C693 1.392 1_556 S
C694 C695 1.385 . S
C694 C696 1.478 . S
C695 H689 0.930 . S
C695 C691 1.400 . S
C695 C694 1.385 . S
C696 C694 1.478 . S
C696 C698 1.381 . S
C696 C702 1.383 . S
C697 C693 1.495 . S
C697 H703 0.959 . S
C697 H704 0.961 . S
C697 H705 0.960 . S
C698 C696 1.381 . S
C698 C699 1.394 . S
C698 H706 0.930 1_556 S
C699 C698 1.394 . S
C699 C700 1.383 . S
C699 H707 0.929 . S
C700 C699 1.383 . S
C700 C701 1.377 . S
C701 H685 0.930 . S
C701 C700 1.377 . S
C701 C702 1.379 . S
C702 H686 0.931 . S
C702 C696 1.383 . S
C702 C701 1.379 . S
H703 C697 0.959 . S
H704 C697 0.961 . S
H705 C697 0.960 . S
H706 C698 0.930 1_554 S
H707 C699 0.929 . S
H708 C716 0.929 . S
H709 C718 0.930 . S
H710 C720 0.930 . S
H711 C723 0.929 . S
H712 C726 0.930 . S
H713 C728 0.960 . S
H714 C728 0.960 . S
H715 C728 0.960 . S
C716 H708 0.929 . S
C716 C717 1.377 . S
C716 C718 1.384 . S
C717 C716 1.377 . S
C717 C723 1.390 . S
C718 H709 0.930 . S
C718 C716 1.384 . S
C718 C719 1.372 . S
C719 C718 1.372 . S
C719 C720 1.400 . S
C719 C724 1.490 . S
C720 H710 0.930 . S
C720 C719 1.400 . S
C720 C723 1.386 . S
H721 C737 0.930 . S
H722 C738 0.931 . S
C723 H711 0.929 . S
C723 C717 1.390 . S
C723 C720 1.386 . S
C724 C719 1.490 . S
C724 C726 1.395 . S
C724 C727 1.403 . S
H725 C731 0.930 . S
C726 H712 0.930 . S
C726 C724 1.395 . S
C726 C729 1.403 . S
C727 C724 1.403 . S
C727 C728 1.524 . S
C727 C731 1.400 . S
C728 H713 0.960 . S
C728 H714 0.960 . S
C728 H715 0.960 . S
C728 C727 1.524 . S
C729 C726 1.403 . S
C729 C730 1.392 . S
C729 C733 1.495 . S
C730 C729 1.392 . S
C730 C731 1.385 . S
C730 C732 1.478 . S
C731 H725 0.930 . S
C731 C727 1.400 . S
C731 C730 1.385 . S
C732 C730 1.478 . S
C732 C734 1.381 . S
C732 C738 1.383 . S
C733 C729 1.495 . S
C733 H739 0.959 . S
C733 H740 0.961 . S
C733 H741 0.960 . S
C734 C732 1.381 . S
C734 C735 1.394 . S
C734 H742 0.930 . S
C735 C734 1.394 . S
C735 C736 1.383 . S
C735 H743 0.929 . S
C736 C735 1.383 . S
C736 C737 1.377 . S
C737 H721 0.930 . S
C737 C736 1.377 . S
C737 C738 1.379 . S
C738 H722 0.931 . S
C738 C732 1.383 . S
C738 C737 1.379 . S
H739 C733 0.959 . S
H740 C733 0.961 . S
H741 C733 0.960 . S
H742 C734 0.930 . S
H743 C735 0.929 . S
H744 C752 0.929 . S
H745 C754 0.930 . S
H746 C756 0.930 . S
H747 C759 0.929 . S
H748 C762 0.930 . S
H749 C764 0.960 . S
H750 C764 0.960 . S
H751 C764 0.960 . S
C752 H744 0.929 . S
C752 C753 1.377 . S
C752 C754 1.384 . S
C753 C752 1.377 . S
C753 C759 1.390 . S
C754 H745 0.930 . S
C754 C752 1.384 . S
C754 C755 1.372 . S
C755 C754 1.372 . S
C755 C756 1.400 . S
C755 C760 1.490 . S
C756 H746 0.930 . S
C756 C755 1.400 . S
C756 C759 1.386 . S
H757 C773 0.930 . S
H758 C774 0.931 . S
C759 H747 0.929 . S
C759 C753 1.390 . S
C759 C756 1.386 . S
C760 C755 1.490 . S
C760 C762 1.395 . S
C760 C763 1.403 . S
H761 C767 0.930 . S
C762 H748 0.930 . S
C762 C760 1.395 . S
C762 C765 1.403 . S
C763 C760 1.403 . S
C763 C764 1.524 . S
C763 C767 1.400 . S
C764 H749 0.960 . S
C764 H750 0.960 . S
C764 H751 0.960 . S
C764 C763 1.524 . S
C765 C762 1.403 . S
C765 C766 1.392 . S
C765 C769 1.495 . S
C766 C765 1.392 . S
C766 C767 1.385 . S
C766 C768 1.478 . S
C767 H761 0.930 . S
C767 C763 1.400 . S
C767 C766 1.385 . S
C768 C766 1.478 . S
C768 C770 1.381 . S
C768 C774 1.383 . S
C769 C765 1.495 . S
C769 H775 0.959 . S
C769 H776 0.961 . S
C769 H777 0.960 . S
C770 C768 1.381 . S
C770 C771 1.394 . S
C770 H778 0.930 . S
C771 C770 1.394 . S
C771 C772 1.383 . S
C771 H779 0.929 . S
C772 C771 1.383 . S
C772 C773 1.377 . S
C773 H757 0.930 . S
C773 C772 1.377 . S
C773 C774 1.379 . S
C774 H758 0.931 . S
C774 C768 1.383 . S
C774 C773 1.379 . S
H775 C769 0.959 . S
H776 C769 0.961 . S
H777 C769 0.960 . S
H778 C770 0.930 . S
H779 C771 0.929 . S
H780 C788 0.929 . S
H781 C790 0.930 1_556 S
H782 C792 0.930 . S
H783 C795 0.929 . S
H784 C798 0.930 . S
H785 C800 0.960 . S
H786 C800 0.960 . S
H787 C800 0.960 . S
C788 H780 0.929 . S
C788 C789 1.377 . S
C788 C790 1.384 . S
C789 C788 1.377 . S
C789 C795 1.390 . S
C790 H781 0.930 1_554 S
C790 C788 1.384 . S
C790 C791 1.372 . S
C791 C790 1.372 . S
C791 C792 1.400 . S
C791 C796 1.490 . S
C792 H782 0.930 . S
C792 C791 1.400 . S
C792 C795 1.386 . S
H793 C809 0.930 . S
H794 C810 0.931 1_554 S
C795 H783 0.929 . S
C795 C789 1.390 . S
C795 C792 1.386 . S
C796 C791 1.490 . S
C796 C798 1.395 1_554 S
C796 C799 1.403 . S
H797 C803 0.930 . S
C798 H784 0.930 . S
C798 C796 1.395 1_556 S
C798 C801 1.403 . S
C799 C796 1.403 . S
C799 C800 1.524 . S
C799 C803 1.400 . S
C800 H785 0.960 . S
C800 H786 0.960 . S
C800 H787 0.960 . S
C800 C799 1.524 . S
C801 C798 1.403 . S
C801 C802 1.392 . S
C801 C805 1.495 . S
C802 C801 1.392 . S
C802 C803 1.385 1_556 S
C802 C804 1.478 . S
C803 H797 0.930 . S
C803 C799 1.400 . S
C803 C802 1.385 1_554 S
C804 C802 1.478 . S
C804 C806 1.381 . S
C804 C810 1.383 . S
C805 C801 1.495 . S
C805 H811 0.959 . S
C805 H812 0.961 . S
C805 H813 0.960 . S
C806 C804 1.381 . S
C806 C807 1.394 . S
C806 H814 0.930 . S
C807 C806 1.394 . S
C807 C808 1.383 . S
C807 H815 0.929 . S
C808 C807 1.383 . S
C808 C809 1.377 . S
C809 H793 0.930 . S
C809 C808 1.377 . S
C809 C810 1.379 . S
C810 H794 0.931 1_556 S
C810 C804 1.383 . S
C810 C809 1.379 . S
H811 C805 0.959 . S
H812 C805 0.961 . S
H813 C805 0.960 . S
H814 C806 0.930 . S
H815 C807 0.929 . S
H816 C824 0.929 . S
H817 C826 0.930 . S
H818 C828 0.930 . S
H819 C831 0.929 . S
H820 C834 0.930 . S
H821 C836 0.960 . S
H822 C836 0.960 . S
H823 C836 0.960 . S
C824 H816 0.929 . S
C824 C825 1.377 . S
C824 C826 1.384 . S
C825 C824 1.377 . S
C825 C831 1.390 . S
C826 H817 0.930 . S
C826 C824 1.384 . S
C826 C827 1.372 . S
C827 C826 1.372 . S
C827 C828 1.400 . S
C827 C832 1.490 . S
C828 H818 0.930 . S
C828 C827 1.400 . S
C828 C831 1.386 . S
H829 C845 0.930 . S
H830 C846 0.931 . S
C831 H819 0.929 . S
C831 C825 1.390 . S
C831 C828 1.386 . S
C832 C827 1.490 . S
C832 C834 1.395 1_545 S
C832 C835 1.403 . S
H833 C839 0.930 . S
C834 H820 0.930 . S
C834 C832 1.395 1_565 S
C834 C837 1.403 . S
C835 C832 1.403 . S
C835 C836 1.524 . S
C835 C839 1.400 . S
C836 H821 0.960 . S
C836 H822 0.960 . S
C836 H823 0.960 . S
C836 C835 1.524 . S
C837 C834 1.403 . S
C837 C838 1.392 . S
C837 C841 1.495 . S
C838 C837 1.392 . S
C838 C839 1.385 1_565 S
C838 C840 1.478 . S
C839 H833 0.930 . S
C839 C835 1.400 . S
C839 C838 1.385 1_545 S
C840 C838 1.478 . S
C840 C842 1.381 . S
C840 C846 1.383 . S
C841 C837 1.495 . S
C841 H847 0.959 . S
C841 H848 0.961 . S
C841 H849 0.960 . S
C842 C840 1.381 . S
C842 C843 1.394 . S
C842 H850 0.930 . S
C843 C842 1.394 . S
C843 C844 1.383 . S
C843 H851 0.929 . S
C844 C843 1.383 . S
C844 C845 1.377 . S
C845 H829 0.930 . S
C845 C844 1.377 . S
C845 C846 1.379 . S
C846 H830 0.931 . S
C846 C840 1.383 . S
C846 C845 1.379 . S
H847 C841 0.959 . S
H848 C841 0.961 . S
H849 C841 0.960 . S
H850 C842 0.930 . S
H851 C843 0.929 . S
H852 C860 0.929 . S
H853 C862 0.930 . S
H854 C864 0.930 . S
H855 C867 0.929 . S
H856 C870 0.930 . S
H857 C872 0.960 . S
H858 C872 0.960 . S
H859 C872 0.960 . S
C860 H852 0.929 . S
C860 C861 1.377 . S
C860 C862 1.384 . S
C861 C860 1.377 . S
C861 C867 1.390 . S
C862 H853 0.930 . S
C862 C860 1.384 . S
C862 C863 1.372 . S
C863 C862 1.372 . S
C863 C864 1.400 . S
C863 C868 1.490 . S
C864 H854 0.930 . S
C864 C863 1.400 . S
C864 C867 1.386 . S
H865 C881 0.930 . S
H866 C882 0.931 . S
C867 H855 0.929 . S
C867 C861 1.390 . S
C867 C864 1.386 . S
C868 C863 1.490 . S
C868 C870 1.395 . S
C868 C871 1.403 . S
H869 C875 0.930 . S
C870 H856 0.930 . S
C870 C868 1.395 . S
C870 C873 1.403 . S
C871 C868 1.403 . S
C871 C872 1.524 . S
C871 C875 1.400 . S
C872 H857 0.960 . S
C872 H858 0.960 . S
C872 H859 0.960 . S
C872 C871 1.524 . S
C873 C870 1.403 . S
C873 C874 1.392 . S
C873 C877 1.495 . S
C874 C873 1.392 . S
C874 C875 1.385 . S
C874 C876 1.478 . S
C875 H869 0.930 . S
C875 C871 1.400 . S
C875 C874 1.385 . S
C876 C874 1.478 . S
C876 C878 1.381 . S
C876 C882 1.383 . S
C877 C873 1.495 . S
C877 H883 0.959 . S
C877 H884 0.961 . S
C877 H885 0.960 . S
C878 C876 1.381 . S
C878 C879 1.394 . S
C878 H886 0.930 . S
C879 C878 1.394 . S
C879 C880 1.383 . S
C879 H887 0.929 . S
C880 C879 1.383 . S
C880 C881 1.377 . S
C881 H865 0.930 . S
C881 C880 1.377 . S
C881 C882 1.379 . S
C882 H866 0.931 . S
C882 C876 1.383 . S
C882 C881 1.379 . S
H883 C877 0.959 . S
H884 C877 0.961 . S
H885 C877 0.960 . S
H886 C878 0.930 . S
H887 C879 0.929 . S
H888 C896 0.929 . S
H889 C898 0.930 . S
H890 C900 0.930 . S
H891 C903 0.929 . S
H892 C906 0.930 . S
H893 C908 0.960 . S
H894 C908 0.960 . S
H895 C908 0.960 . S
C896 H888 0.929 . S
C896 C897 1.377 . S
C896 C898 1.384 . S
C897 C896 1.377 . S
C897 C903 1.390 1_455 S
C898 H889 0.930 . S
C898 C896 1.384 . S
C898 C899 1.372 . S
C899 C898 1.372 . S
C899 C900 1.400 1_455 S
C899 C904 1.490 . S
C900 H890 0.930 . S
C900 C899 1.400 1_655 S
C900 C903 1.386 . S
H901 C917 0.930 . S
H902 C918 0.931 . S
C903 H891 0.929 . S
C903 C897 1.390 1_655 S
C903 C900 1.386 . S
C904 C899 1.490 . S
C904 C906 1.395 1_455 S
C904 C907 1.403 . S
H905 C911 0.930 . S
C906 H892 0.930 . S
C906 C904 1.395 1_655 S
C906 C909 1.403 . S
C907 C904 1.403 . S
C907 C908 1.524 . S
C907 C911 1.400 . S
C908 H893 0.960 . S
C908 H894 0.960 . S
C908 H895 0.960 . S
C908 C907 1.524 . S
C909 C906 1.403 . S
C909 C910 1.392 . S
C909 C913 1.495 . S
C910 C909 1.392 . S
C910 C911 1.385 1_655 S
C910 C912 1.478 . S
C911 H905 0.930 . S
C911 C907 1.400 . S
C911 C910 1.385 1_455 S
C912 C910 1.478 . S
C912 C914 1.381 1_655 S
C912 C918 1.383 . S
C913 C909 1.495 . S
C913 H919 0.959 . S
C913 H920 0.961 . S
C913 H921 0.960 1_655 S
C914 C912 1.381 1_455 S
C914 C915 1.394 . S
C914 H922 0.930 . S
C915 C914 1.394 . S
C915 C916 1.383 1_455 S
C915 H923 0.929 . S
C916 C915 1.383 1_655 S
C916 C917 1.377 . S
C917 H901 0.930 . S
C917 C916 1.377 . S
C917 C918 1.379 . S
C918 H902 0.931 . S
C918 C912 1.383 . S
C918 C917 1.379 . S
H919 C913 0.959 . S
H920 C913 0.961 . S
H921 C913 0.960 1_455 S
H922 C914 0.930 . S
H923 C915 0.929 . S
H924 C932 0.929 . S
H925 C934 0.930 . S
H926 C936 0.930 . S
H927 C939 0.929 . S
H928 C942 0.930 . S
H929 C944 0.979 . S
H930 C944 0.960 . S
H931 C944 0.960 1_545 S
C932 H924 0.929 . S
C932 C933 1.377 . S
C932 C934 1.384 . S
C933 C932 1.377 . S
C933 C939 1.390 1_565 S
C934 H925 0.930 . S
C934 C932 1.384 . S
C934 C935 1.372 . S
C935 C934 1.372 . S
C935 C936 1.400 1_565 S
C935 C940 1.490 . S
C936 H926 0.930 . S
C936 C935 1.400 1_545 S
C936 C939 1.386 . S
H937 C953 0.930 . S
H938 C954 0.931 . S
C939 H927 0.929 . S
C939 C933 1.390 1_545 S
C939 C936 1.386 . S
C940 C935 1.490 . S
C940 C942 1.395 . S
C940 C943 1.403 . S
H941 C947 0.930 . S
C942 H928 0.930 . S
C942 C940 1.395 . S
C942 C945 1.403 . S
C943 C940 1.403 . S
C943 C944 1.524 . S
C943 C947 1.400 1_565 S
C944 H929 0.979 . S
C944 H930 0.960 . S
C944 H931 0.960 1_565 S
C944 C943 1.524 . S
C945 C942 1.403 . S
C945 C946 1.392 1_565 S
C945 C949 1.483 . S
C946 C945 1.392 1_545 S
C946 C947 1.385 . S
C946 C948 1.478 . S
C947 H941 0.930 . S
C947 C943 1.400 1_545 S
C947 C946 1.385 . S
C948 C946 1.478 . S
C948 C950 1.381 1_545 S
C948 C954 1.383 . S
C949 C945 1.483 . S
C949 H955 0.972 . S
C949 H956 0.942 1_565 S
C949 H957 0.979 . S
C950 C948 1.381 1_565 S
C950 C951 1.394 . S
C950 H958 0.930 . S
C951 C950 1.394 . S
C951 C952 1.383 1_565 S
C951 H959 0.929 . S
C952 C951 1.383 1_545 S
C952 C953 1.377 . S
C953 H937 0.930 . S
C953 C952 1.377 . S
C953 C954 1.379 . S
C954 H938 0.931 . S
C954 C948 1.383 . S
C954 C953 1.379 . S
H955 C949 0.972 . S
H956 C949 0.942 1_545 S
H957 C949 0.979 . S
H958 C950 0.930 . S
H959 C951 0.929 . S
H960 C968 0.929 . S
H961 C970 0.930 . S
H962 C972 0.930 . S
H963 C975 0.929 . S
H964 C978 0.930 . S
H965 C980 0.960 . S
H966 C980 0.960 . S
H967 C980 0.960 . S
C968 H960 0.929 . S
C968 C969 1.377 . S
C968 C970 1.384 . S
C969 C968 1.377 . S
C969 C975 1.390 . S
C970 H961 0.930 . S
C970 C968 1.384 . S
C970 C971 1.372 . S
C971 C970 1.372 . S
C971 C972 1.400 . S
C971 C976 1.490 . S
C972 H962 0.930 . S
C972 C971 1.400 . S
C972 C975 1.386 . S
H973 C989 0.930 . S
H974 C990 0.931 . S
C975 H963 0.929 . S
C975 C969 1.390 . S
C975 C972 1.386 . S
C976 C971 1.490 . S
C976 C978 1.395 . S
C976 C979 1.403 . S
H977 C983 0.930 . S
C978 H964 0.930 . S
C978 C976 1.395 . S
C978 C981 1.403 . S
C979 C976 1.403 . S
C979 C980 1.524 . S
C979 C983 1.400 . S
C980 H965 0.960 . S
C980 H966 0.960 . S
C980 H967 0.960 . S
C980 C979 1.524 . S
C981 C978 1.403 . S
C981 C982 1.392 . S
C981 C985 1.495 . S
C982 C981 1.392 . S
C982 C983 1.385 . S
C982 C984 1.478 . S
C983 H977 0.930 . S
C983 C979 1.400 . S
C983 C982 1.385 . S
C984 C982 1.478 . S
C984 C986 1.381 . S
C984 C990 1.383 . S
C985 C981 1.495 . S
C985 H991 0.959 . S
C985 H992 0.961 . S
C985 H993 0.960 . S
C986 C984 1.381 . S
C986 C987 1.394 . S
C986 H994 0.930 . S
C987 C986 1.394 . S
C987 C988 1.383 . S
C987 H995 0.929 . S
C988 C987 1.383 . S
C988 C989 1.377 . S
C989 H973 0.930 . S
C989 C988 1.377 . S
C989 C990 1.379 . S
C990 H974 0.931 . S
C990 C984 1.383 . S
C990 C989 1.379 . S
H991 C985 0.959 . S
H992 C985 0.961 . S
H993 C985 0.960 . S
H994 C986 0.930 . S
H995 C987 0.929 . S
H996 C1004 0.929 . S
H997 C1006 0.930 . S
H998 C1008 0.930 . S
H999 C1011 0.929 . S
H1000 C1014 0.930 . S
H1001 C1016 0.960 . S
H1002 C1016 0.960 . S
H1003 C1016 0.960 . S
C1004 H996 0.929 . S
C1004 C1005 1.377 . S
C1004 C1006 1.384 . S
C1005 C1004 1.377 . S
C1005 C1011 1.390 1_655 S
C1006 H997 0.930 . S
C1006 C1004 1.384 . S
C1006 C1007 1.372 . S
C1007 C1006 1.372 . S
C1007 C1008 1.400 1_655 S
C1007 C1012 1.490 . S
C1008 H998 0.930 . S
C1008 C1007 1.400 1_455 S
C1008 C1011 1.386 . S
H1009 C1025 0.930 . S
H1010 C1026 0.931 . S
C1011 H999 0.929 . S
C1011 C1005 1.390 1_455 S
C1011 C1008 1.386 . S
C1012 C1007 1.490 . S
C1012 C1014 1.395 . S
C1012 C1015 1.403 1_655 S
H1013 C1019 0.930 . S
C1014 H1000 0.930 . S
C1014 C1012 1.395 . S
C1014 C1017 1.403 . S
C1015 C1012 1.403 1_455 S
C1015 C1016 1.524 . S
C1015 C1019 1.400 . S
C1016 H1001 0.960 . S
C1016 H1002 0.960 . S
C1016 H1003 0.960 . S
C1016 C1015 1.524 . S
C1017 C1014 1.403 . S
C1017 C1018 1.392 . S
C1017 C1021 1.495 . S
C1018 C1017 1.392 . S
C1018 C1019 1.385 1_655 S
C1018 C1020 1.478 1_655 S
C1019 H1013 0.930 . S
C1019 C1015 1.400 . S
C1019 C1018 1.385 1_455 S
C1020 C1018 1.478 1_455 S
C1020 C1022 1.381 1_455 S
C1020 C1026 1.383 . S
C1021 C1017 1.495 . S
C1021 H1027 0.959 . S
C1021 H1028 0.961 . S
C1021 H1029 0.960 . S
C1022 C1020 1.381 1_655 S
C1022 C1023 1.394 . S
C1022 H1030 0.930 . S
C1023 C1022 1.394 . S
C1023 C1024 1.383 1_655 S
C1023 H1031 0.929 . S
C1024 C1023 1.383 1_455 S
C1024 C1025 1.377 . S
C1025 H1009 0.930 . S
C1025 C1024 1.377 . S
C1025 C1026 1.379 . S
C1026 H1010 0.931 . S
C1026 C1020 1.383 . S
C1026 C1025 1.379 . S
H1027 C1021 0.959 . S
H1028 C1021 0.961 . S
H1029 C1021 0.960 . S
H1030 C1022 0.930 . S
H1031 C1023 0.929 . S
C177 C11 1.857 . S
C196 C123 1.830 . S
C213 C25 1.856 . S
C232 C137 1.840 . S
C249 C151 1.788 . S
C268 C39 1.778 . S
C285 C165 1.852 . S
C304 C53 1.839 . S
C321 C95 1.861 . S
C340 C67 1.845 . S
C357 C109 1.788 . S
C376 C81 1.779 . S
C393 C12 1.405 . S
C412 C54 1.387 . S
C429 C68 1.387 . S
C448 C26 1.372 . S
C465 C82 1.346 . S
C484 C40 1.314 . S
C501 C96 1.417 . S
C520 C138 1.416 . S
C537 C152 1.332 . S
C556 C110 1.302 1_565 S
C573 C124 1.386 . S
C592 C166 1.395 . S
C609 C89 0.995 . S
C628 C5 1.019 . S
C645 C19 0.939 . S
C664 C103 0.957 . S
C681 C117 0.942 . S
C700 C33 0.968 . S
C717 C131 0.986 . S
C736 C47 0.965 . S
C753 C61 0.943 . S
C772 C145 0.971 . S
C789 C159 0.944 . S
C808 C75 0.928 . S
C825 C4 0.637 . S
C844 C102 0.639 . S
C861 C116 0.683 . S
C880 C18 0.652 . S
C897 C130 0.631 . S
C916 C32 0.667 . S
C933 C46 0.630 . S
C952 C144 0.670 . S
C969 C158 0.684 . S
C988 C60 0.650 . S
C1005 C88 0.627 . S
C1024 C74 0.671 . S
