# Generated by pormake.
# Topology vba, (4)-cn, num edge types: 1
# Building blocks:
#     Node 0, Type 0, BuildingBlock: MUDLON_clean_sbu_0, # of connection points: 4
#     Node 1, Type 0, BuildingBlock: MUDLON_clean_sbu_0, # of connection points: 4
#     Node 2, Type 0, BuildingBlock: MUDLON_clean_sbu_0, # of connection points: 4
#     Node 3, Type 0, BuildingBlock: MUDLON_clean_sbu_0, # of connection points: 4
#     Node 4, Type 0, BuildingBlock: MUDLON_clean_sbu_0, # of connection points: 4
#     Node 5, Type 0, BuildingBlock: MUDLON_clean_sbu_0, # of connection points: 4
#     Node 6, Type 0, BuildingBlock: MUDLON_clean_sbu_0, # of connection points: 4
#     Node 7, Type 0, BuildingBlock: MUDLON_clean_sbu_0, # of connection points: 4
#     Node 8, Type 0, BuildingBlock: MUDLON_clean_sbu_0, # of connection points: 4
#     Node 9, Type 0, BuildingBlock: MUDLON_clean_sbu_0, # of connection points: 4
#     Node 10, Type 0, BuildingBlock: MUDLON_clean_sbu_0, # of connection points: 4
#     Node 11, Type 0, BuildingBlock: MUDLON_clean_sbu_0, # of connection points: 4
#     Node 12, Type 0, BuildingBlock: MUDLON_clean_sbu_0, # of connection points: 4
#     Node 13, Type 0, BuildingBlock: MUDLON_clean_sbu_0, # of connection points: 4
#     Node 14, Type 0, BuildingBlock: MUDLON_clean_sbu_0, # of connection points: 4
#     Node 15, Type 0, BuildingBlock: MUDLON_clean_sbu_0, # of connection points: 4
#     Node 16, Type 0, BuildingBlock: MUDLON_clean_sbu_0, # of connection points: 4
#     Node 17, Type 0, BuildingBlock: MUDLON_clean_sbu_0, # of connection points: 4
#     Node 18, Type 0, BuildingBlock: MUDLON_clean_sbu_0, # of connection points: 4
#     Node 19, Type 0, BuildingBlock: MUDLON_clean_sbu_0, # of connection points: 4
#     Node 20, Type 0, BuildingBlock: MUDLON_clean_sbu_0, # of connection points: 4
#     Node 21, Type 0, BuildingBlock: MUDLON_clean_sbu_0, # of connection points: 4
#     Node 22, Type 0, BuildingBlock: MUDLON_clean_sbu_0, # of connection points: 4
#     Node 23, Type 0, BuildingBlock: MUDLON_clean_sbu_0, # of connection points: 4
#     Node 24, Type 0, BuildingBlock: MUDLON_clean_sbu_0, # of connection points: 4
#     Node 25, Type 0, BuildingBlock: MUDLON_clean_sbu_0, # of connection points: 4
#     Node 26, Type 0, BuildingBlock: MUDLON_clean_sbu_0, # of connection points: 4
#     Node 27, Type 0, BuildingBlock: MUDLON_clean_sbu_0, # of connection points: 4
#     Node 28, Type 0, BuildingBlock: MUDLON_clean_sbu_0, # of connection points: 4
#     Node 29, Type 0, BuildingBlock: MUDLON_clean_sbu_0, # of connection points: 4
#     Node 30, Type 0, BuildingBlock: MUDLON_clean_sbu_0, # of connection points: 4
#     Node 31, Type 0, BuildingBlock: MUDLON_clean_sbu_0, # of connection points: 4
#     Edge 32, Type (0, 0), BuildingBlock: XIVTED_clean_linker_0, # of connection points: 2
#     Edge 33, Type (0, 0), BuildingBlock: XIVTED_clean_linker_0, # of connection points: 2
#     Edge 34, Type (0, 0), BuildingBlock: XIVTED_clean_linker_0, # of connection points: 2
#     Edge 35, Type (0, 0), BuildingBlock: XIVTED_clean_linker_0, # of connection points: 2
#     Edge 36, Type (0, 0), BuildingBlock: XIVTED_clean_linker_0, # of connection points: 2
#     Edge 37, Type (0, 0), BuildingBlock: XIVTED_clean_linker_0, # of connection points: 2
#     Edge 38, Type (0, 0), BuildingBlock: XIVTED_clean_linker_0, # of connection points: 2
#     Edge 39, Type (0, 0), BuildingBlock: XIVTED_clean_linker_0, # of connection points: 2
#     Edge 40, Type (0, 0), BuildingBlock: XIVTED_clean_linker_0, # of connection points: 2
#     Edge 41, Type (0, 0), BuildingBlock: XIVTED_clean_linker_0, # of connection points: 2
#     Edge 42, Type (0, 0), BuildingBlock: XIVTED_clean_linker_0, # of connection points: 2
#     Edge 43, Type (0, 0), BuildingBlock: XIVTED_clean_linker_0, # of connection points: 2
#     Edge 44, Type (0, 0), BuildingBlock: XIVTED_clean_linker_0, # of connection points: 2
#     Edge 45, Type (0, 0), BuildingBlock: XIVTED_clean_linker_0, # of connection points: 2
#     Edge 46, Type (0, 0), BuildingBlock: XIVTED_clean_linker_0, # of connection points: 2
#     Edge 47, Type (0, 0), BuildingBlock: XIVTED_clean_linker_0, # of connection points: 2
#     Edge 48, Type (0, 0), BuildingBlock: XIVTED_clean_linker_0, # of connection points: 2
#     Edge 49, Type (0, 0), BuildingBlock: XIVTED_clean_linker_0, # of connection points: 2
#     Edge 50, Type (0, 0), BuildingBlock: XIVTED_clean_linker_0, # of connection points: 2
#     Edge 51, Type (0, 0), BuildingBlock: XIVTED_clean_linker_0, # of connection points: 2
#     Edge 52, Type (0, 0), BuildingBlock: XIVTED_clean_linker_0, # of connection points: 2
#     Edge 53, Type (0, 0), BuildingBlock: XIVTED_clean_linker_0, # of connection points: 2
#     Edge 54, Type (0, 0), BuildingBlock: XIVTED_clean_linker_0, # of connection points: 2
#     Edge 55, Type (0, 0), BuildingBlock: XIVTED_clean_linker_0, # of connection points: 2
#     Edge 56, Type (0, 0), BuildingBlock: XIVTED_clean_linker_0, # of connection points: 2
#     Edge 57, Type (0, 0), BuildingBlock: XIVTED_clean_linker_0, # of connection points: 2
#     Edge 58, Type (0, 0), BuildingBlock: XIVTED_clean_linker_0, # of connection points: 2
#     Edge 59, Type (0, 0), BuildingBlock: XIVTED_clean_linker_0, # of connection points: 2
#     Edge 60, Type (0, 0), BuildingBlock: XIVTED_clean_linker_0, # of connection points: 2
#     Edge 61, Type (0, 0), BuildingBlock: XIVTED_clean_linker_0, # of connection points: 2
#     Edge 62, Type (0, 0), BuildingBlock: XIVTED_clean_linker_0, # of connection points: 2
#     Edge 63, Type (0, 0), BuildingBlock: XIVTED_clean_linker_0, # of connection points: 2
#     Edge 64, Type (0, 0), BuildingBlock: XIVTED_clean_linker_0, # of connection points: 2
#     Edge 65, Type (0, 0), BuildingBlock: XIVTED_clean_linker_0, # of connection points: 2
#     Edge 66, Type (0, 0), BuildingBlock: XIVTED_clean_linker_0, # of connection points: 2
#     Edge 67, Type (0, 0), BuildingBlock: XIVTED_clean_linker_0, # of connection points: 2
#     Edge 68, Type (0, 0), BuildingBlock: XIVTED_clean_linker_0, # of connection points: 2
#     Edge 69, Type (0, 0), BuildingBlock: XIVTED_clean_linker_0, # of connection points: 2
#     Edge 70, Type (0, 0), BuildingBlock: XIVTED_clean_linker_0, # of connection points: 2
#     Edge 71, Type (0, 0), BuildingBlock: XIVTED_clean_linker_0, # of connection points: 2
#     Edge 72, Type (0, 0), BuildingBlock: XIVTED_clean_linker_0, # of connection points: 2
#     Edge 73, Type (0, 0), BuildingBlock: XIVTED_clean_linker_0, # of connection points: 2
#     Edge 74, Type (0, 0), BuildingBlock: XIVTED_clean_linker_0, # of connection points: 2
#     Edge 75, Type (0, 0), BuildingBlock: XIVTED_clean_linker_0, # of connection points: 2
#     Edge 76, Type (0, 0), BuildingBlock: XIVTED_clean_linker_0, # of connection points: 2
#     Edge 77, Type (0, 0), BuildingBlock: XIVTED_clean_linker_0, # of connection points: 2
#     Edge 78, Type (0, 0), BuildingBlock: XIVTED_clean_linker_0, # of connection points: 2
#     Edge 79, Type (0, 0), BuildingBlock: XIVTED_clean_linker_0, # of connection points: 2
#     Edge 80, Type (0, 0), BuildingBlock: XIVTED_clean_linker_0, # of connection points: 2
#     Edge 81, Type (0, 0), BuildingBlock: XIVTED_clean_linker_0, # of connection points: 2
#     Edge 82, Type (0, 0), BuildingBlock: XIVTED_clean_linker_0, # of connection points: 2
#     Edge 83, Type (0, 0), BuildingBlock: XIVTED_clean_linker_0, # of connection points: 2
#     Edge 84, Type (0, 0), BuildingBlock: XIVTED_clean_linker_0, # of connection points: 2
#     Edge 85, Type (0, 0), BuildingBlock: XIVTED_clean_linker_0, # of connection points: 2
#     Edge 86, Type (0, 0), BuildingBlock: XIVTED_clean_linker_0, # of connection points: 2
#     Edge 87, Type (0, 0), BuildingBlock: XIVTED_clean_linker_0, # of connection points: 2
#     Edge 88, Type (0, 0), BuildingBlock: XIVTED_clean_linker_0, # of connection points: 2
#     Edge 89, Type (0, 0), BuildingBlock: XIVTED_clean_linker_0, # of connection points: 2
#     Edge 90, Type (0, 0), BuildingBlock: XIVTED_clean_linker_0, # of connection points: 2
#     Edge 91, Type (0, 0), BuildingBlock: XIVTED_clean_linker_0, # of connection points: 2
#     Edge 92, Type (0, 0), BuildingBlock: XIVTED_clean_linker_0, # of connection points: 2
#     Edge 93, Type (0, 0), BuildingBlock: XIVTED_clean_linker_0, # of connection points: 2
#     Edge 94, Type (0, 0), BuildingBlock: XIVTED_clean_linker_0, # of connection points: 2
#     Edge 95, Type (0, 0), BuildingBlock: XIVTED_clean_linker_0, # of connection points: 2
# Relax obj value: 0.001
# Max RMSD: 0.034
# Mean RMSD: 0.033
data_MOF--net-vba--node1-MUDLON_clean_sbu_0--edge1-XIVTED_clean_linker_0
_symmetry_space_group_name_H-M    P1
_symmetry_Int_Tables_number       1
_symmetry_cell_setting            triclinic
loop_
_symmetry_equiv_pos_as_xyz
'x, y, z'
_cell_length_a     8.1465722
_cell_length_b     121.16743
_cell_length_c     61.482544
_cell_angle_alpha  90.0739
_cell_angle_beta   89.906492
_cell_angle_gamma 89.924218
loop_
_atom_site_label
_atom_site_type_symbol
_atom_site_fract_x
_atom_site_fract_y
_atom_site_fract_z
_atom_type_partial_charge
Mg0 Mg 0.26367 0.0725 0.00951 0.0
C1 C 0.31748 0.07329 0.96495 0.0
O2 O 0.45186 0.07575 0.97572 0.0
C3 C 0.23558 0.06923 0.05419 0.0
O4 O 0.3898 0.07074 0.04864 0.0
C5 C 0.32734 0.04985 0.00762 0.0
O6 O 0.16907 0.0518 1.00599 0.0
O7 O 0.42379 0.05807 0.00979 0.0
O8 O 0.18655 0.07149 0.97579 0.0
O9 O 0.32206 0.08998 0.01302 0.0
C10 C 0.18539 0.09514 0.01336 0.0
O11 O 0.04961 0.08933 0.01191 0.0
O12 O 0.12705 0.06944 0.03926 0.0
Mg13 Mg 0.99725 0.20034 0.00747 0.0
C14 C 0.93456 0.2011 0.96219 0.0
O15 O 0.79431 0.20155 0.97273 0.0
C16 C 0.06254 0.20541 0.05176 0.0
O17 O 0.90339 0.20596 0.04858 0.0
C18 C 0.6995 0.21822 0.01185 0.0
O19 O 0.58406 0.21089 0.01549 0.0
O20 O 0.84673 0.21515 0.00883 0.0
O21 O 0.0669 0.2005 0.97321 0.0
O22 O 0.93235 0.18305 0.01229 0.0
C23 C 0.06779 0.17774 0.01173 0.0
O24 O 0.20379 0.18337 0.00876 0.0
O25 O 0.15504 0.20318 0.03557 0.0
Mg26 Mg 0.41102 0.19731 0.25383 0.0
C27 C 0.45785 0.19967 0.29888 0.0
O28 O 0.59295 0.19594 0.28974 0.0
C29 C 0.32726 0.19449 0.2088 0.0
O30 O 0.44164 0.18722 0.21348 0.0
C31 C 0.64765 0.2138 0.23405 0.0
O32 O 0.59812 0.2098 0.21534 0.0
O33 O 0.62134 0.20828 0.25127 0.0
O34 O 0.3333 0.2014 0.28678 0.0
O35 O 0.42823 0.17944 0.25532 0.0
C36 C 0.28426 0.17548 0.25747 0.0
O37 O 0.1601 0.18239 0.25891 0.0
O38 O 0.27092 0.20047 0.22418 0.0
Mg39 Mg 0.96019 0.07211 0.25859 0.0
C40 C 0.91532 0.07083 0.30349 0.0
O41 O 0.77481 0.07272 0.29368 0.0
C42 C 0.98323 0.07021 0.2135 0.0
O43 O 0.83105 0.07226 0.21942 0.0
C44 C 0.90229 0.04973 0.25856 0.0
O45 O 0.05924 0.05199 0.2607 0.0
O46 O 0.80156 0.05776 0.25689 0.0
O47 O 0.04478 0.07018 0.29186 0.0
O48 O 0.9091 0.08969 0.25705 0.0
C49 C 0.05082 0.09415 0.25752 0.0
O50 O 0.17988 0.08765 0.25877 0.0
O51 O 0.09254 0.06958 0.22828 0.0
Mg52 Mg 0.7545 0.9481 1.00019 0.0
C53 C 0.68894 0.94859 0.04515 0.0
O54 O 0.55445 0.94656 0.03407 0.0
C55 C 0.78358 0.94761 0.9544 0.0
O56 O 0.6458 0.94291 0.96052 0.0
C57 C 0.68461 0.97052 1.00003 0.0
O58 O 0.84315 0.96868 1.00174 0.0
O59 O 0.58915 0.96221 0.99852 0.0
O60 O 0.82277 0.94982 0.03453 0.0
O61 O 0.70518 0.93039 0.99858 0.0
C62 C 0.84347 0.92543 0.998 0.0
O63 O 0.97746 0.93147 0.99809 0.0
O64 O 0.88143 0.95102 0.96916 0.0
Mg65 Mg 0.04602 0.82027 1.00245 0.0
C66 C 0.1042 0.81795 0.04688 0.0
O67 O 0.24377 0.81825 0.03614 0.0
C68 C 0.00337 0.82039 0.95762 0.0
O69 O 0.15878 0.82174 0.9627 0.0
C70 C 0.07265 0.79745 0.9957 0.0
O71 O 0.91759 0.80043 0.99611 0.0
O72 O 0.18243 0.80485 0.99822 0.0
O73 O 0.97089 0.81857 0.0361 0.0
O74 O 0.11637 0.83765 1.00118 0.0
C75 C 0.98191 0.84294 1.00373 0.0
O76 O 0.84724 0.8372 0.00699 0.0
O77 O 0.89913 0.81959 0.97303 0.0
Mg78 Mg 0.6597 0.82073 0.75525 0.0
C79 C 0.61199 0.821 0.71046 0.0
O80 O 0.47308 0.8229 0.72073 0.0
C81 C 0.69799 0.81804 0.79998 0.0
O82 O 0.54191 0.81922 0.7951 0.0
C83 C 0.60407 0.79802 0.75406 0.0
O84 O 0.76097 0.80022 0.7516 0.0
O85 O 0.50482 0.8061 0.75641 0.0
O86 O 0.74162 0.81968 0.72176 0.0
O87 O 0.59945 0.8382 0.75846 0.0
C88 C 0.73771 0.84314 0.75846 0.0
O89 O 0.87137 0.83711 0.75665 0.0
O90 O 0.80259 0.81814 0.78453 0.0
Mg91 Mg 0.05297 0.94733 0.75737 0.0
C92 C 0.09221 0.95679 0.71211 0.0
O93 O 0.19651 0.96303 0.72275 0.0
C94 C 0.87519 0.96067 0.79366 0.0
O95 O 0.95025 0.96933 0.78556 0.0
C96 C 0.30688 0.96123 0.78185 0.0
O97 O 0.23647 0.95741 0.79953 0.0
O98 O 0.27706 0.95657 0.76375 0.0
O99 O 0.99988 0.95026 0.72285 0.0
O100 O 0.06249 0.92944 0.76 0.0
C101 C 0.92025 0.92514 0.75846 0.0
O102 O 0.79363 0.93171 0.75554 0.0
O103 O 0.8775 0.95164 0.78304 0.0
Mg104 Mg 0.35173 0.57298 0.51033 0.0
C105 C 0.39876 0.57131 0.46534 0.0
O106 O 0.53256 0.575 0.47478 0.0
C107 C 0.27196 0.5755 0.5554 0.0
O108 O 0.38966 0.58251 0.55073 0.0
C109 C 0.57924 0.55542 0.52906 0.0
O110 O 0.52851 0.55916 0.54794 0.0
O111 O 0.55385 0.56117 0.51209 0.0
O112 O 0.27342 0.56941 0.47723 0.0
O113 O 0.37237 0.59094 0.50974 0.0
C114 C 0.22859 0.59496 0.50754 0.0
O115 O 0.10517 0.58808 0.50527 0.0
O116 O 0.21133 0.56979 0.53994 0.0
Mg117 Mg 0.88508 0.69832 0.50729 0.0
C118 C 0.88016 0.69304 0.46197 0.0
O119 O 0.76582 0.68719 0.47166 0.0
C120 C 0.91964 0.70218 0.55204 0.0
O121 O 0.76632 0.69975 0.54746 0.0
C122 C 0.65634 0.71667 0.49227 0.0
O123 O 0.68672 0.71253 0.47296 0.0
O124 O 0.69636 0.71116 0.50906 0.0
O125 O 0.97318 0.69904 0.47376 0.0
O126 O 0.85507 0.68061 0.51255 0.0
C127 C 0.9987 0.67643 0.51357 0.0
O128 O 0.12522 0.68312 0.51231 0.0
O129 O 0.0228 0.70259 0.53641 0.0
Mg130 Mg 0.22849 0.6952 0.7553 0.0
C131 C 0.28089 0.69754 0.80053 0.0
O132 O 0.4233 0.69761 0.79046 0.0
C133 C 0.18975 0.69758 0.7104 0.0
O134 O 0.34384 0.69548 0.71522 0.0
C135 C 0.28398 0.71797 0.75509 0.0
O136 O 0.12754 0.71579 0.75809 0.0
O137 O 0.38294 0.70987 0.75287 0.0
O138 O 0.1509 0.69654 0.78914 0.0
O139 O 0.29007 0.67773 0.7523 0.0
C140 C 0.15446 0.67246 0.75247 0.0
O141 O 0.01771 0.67818 0.7541 0.0
O142 O 0.08551 0.69791 0.72591 0.0
Mg143 Mg 0.98323 0.56699 0.75769 0.0
C144 C 0.93501 0.56518 0.80323 0.0
O145 O 0.79218 0.56429 0.7935 0.0
C146 C 0.03678 0.56252 0.71282 0.0
O147 O 0.87904 0.56158 0.71685 0.0
C148 C 0.93078 0.54394 0.75876 0.0
O149 O 0.08763 0.54604 0.76153 0.0
O150 O 0.83293 0.55207 0.75631 0.0
O151 O 0.06295 0.56648 0.79151 0.0
O152 O 0.91534 0.58434 0.75412 0.0
C153 C 0.04998 0.58972 0.75463 0.0
O154 O 0.18715 0.58413 0.75701 0.0
O155 O 0.13296 0.56472 0.72859 0.0
Mg156 Mg 0.68253 0.45078 0.50637 0.0
C157 C 0.62498 0.44794 0.55069 0.0
O158 O 0.48696 0.44755 0.53967 0.0
C159 C 0.71496 0.45552 0.46209 0.0
O160 O 0.5593 0.45557 0.46775 0.0
C161 C 0.64738 0.47324 0.51714 0.0
O162 O 0.79442 0.46975 0.52258 0.0
O163 O 0.54731 0.46637 0.50869 0.0
O164 O 0.75867 0.44918 0.54014 0.0
O165 O 0.61115 0.43366 0.50053 0.0
C166 C 0.74701 0.42841 0.4994 0.0
O167 O 0.8838 0.43408 0.50113 0.0
O168 O 0.82212 0.45389 0.47686 0.0
Mg169 Mg 0.98612 0.32353 0.50517 0.0
C170 C 0.04047 0.32401 0.55002 0.0
O171 O 0.17123 0.32746 0.53947 0.0
C172 C 0.96001 0.32139 0.46023 0.0
O173 O 0.10836 0.32456 0.46583 0.0
C174 C 0.06082 0.30117 0.50573 0.0
O175 O 0.90235 0.30289 0.50802 0.0
O176 O 0.15442 0.30955 0.5037 0.0
O177 O 0.91236 0.32171 0.539 0.0
O178 O 0.03244 0.34119 0.50211 0.0
C179 C 0.89339 0.34605 0.50274 0.0
O180 O 0.76121 0.33995 0.50508 0.0
O181 O 0.85326 0.32013 0.47524 0.0
Mg182 Mg 0.70242 0.31815 0.25694 0.0
C183 C 0.63764 0.32219 0.21301 0.0
O184 O 0.50198 0.32283 0.22456 0.0
C185 C 0.74476 0.3127 0.30089 0.0
O186 O 0.58842 0.31223 0.29573 0.0
C187 C 0.66817 0.29597 0.24453 0.0
O188 O 0.81204 0.2997 0.23829 0.0
O189 O 0.56984 0.30257 0.25416 0.0
O190 O 0.77226 0.32043 0.22301 0.0
O191 O 0.62493 0.33496 0.2643 0.0
C192 C 0.75928 0.34033 0.26578 0.0
O193 O 0.89773 0.33486 0.26347 0.0
O194 O 0.84809 0.31481 0.28584 0.0
Mg195 Mg 0.97699 0.44493 0.2584 0.0
C196 C 0.03425 0.44378 0.21372 0.0
O197 O 0.16491 0.44063 0.22461 0.0
C198 C 0.95229 0.44782 0.30307 0.0
O199 O 0.10181 0.44491 0.29735 0.0
C200 C 0.05025 0.4672 0.25629 0.0
O201 O 0.89251 0.46541 0.25352 0.0
O202 O 0.14408 0.45889 0.2592 0.0
O203 O 0.9047 0.44615 0.22446 0.0
O204 O 0.02742 0.42744 0.26251 0.0
C205 C 0.88884 0.42255 0.26234 0.0
O206 O 0.75588 0.42857 0.25982 0.0
O207 O 0.84369 0.44863 0.28821 0.0
Mg208 Mg 0.83421 0.07191 0.51103 0.0
C209 C 0.88185 0.07005 0.46618 0.0
O210 O 0.01907 0.07302 0.47576 0.0
C211 C 0.74935 0.07472 0.55584 0.0
O212 O 0.87179 0.08141 0.55151 0.0
C213 C 0.04611 0.05345 0.52991 0.0
O214 O 0.98612 0.05689 0.54854 0.0
O215 O 0.02738 0.0594 0.51306 0.0
O216 O 0.75437 0.0687 0.47796 0.0
O217 O 0.86862 0.0898 0.51022 0.0
C218 C 0.72845 0.09438 0.50808 0.0
O219 O 0.59878 0.088 0.50634 0.0
O220 O 0.68754 0.0692 0.5402 0.0
Mg221 Mg 0.49393 0.19933 0.50695 0.0
C222 C 0.44993 0.20076 0.46179 0.0
O223 O 0.30806 0.19915 0.47149 0.0
C224 C 0.52239 0.20171 0.55229 0.0
O225 O 0.36744 0.2004 0.54695 0.0
C226 C 0.4278 0.22197 0.50721 0.0
O227 O 0.58632 0.22012 0.50545 0.0
O228 O 0.33213 0.21366 0.50862 0.0
O229 O 0.57871 0.2012 0.47355 0.0
O230 O 0.43991 0.18171 0.5086 0.0
C231 C 0.57902 0.17685 0.50846 0.0
O232 O 0.71178 0.18299 0.50745 0.0
O233 O 0.6293 0.20176 0.53709 0.0
Mg234 Mg 0.80243 0.1924 0.75596 0.0
C235 C 0.8053 0.18842 0.80206 0.0
O236 O 0.90924 0.18144 0.79317 0.0
C237 C 0.76897 0.1958 0.7112 0.0
O238 O 0.91629 0.19201 0.71572 0.0
C239 C 0.05589 0.20972 0.76928 0.0
O240 O 0.03652 0.20556 0.78881 0.0
O241 O 1.00048 0.20445 0.75295 0.0
O242 O 0.71902 0.19446 0.7895 0.0
O243 O 0.82729 0.17458 0.75152 0.0
C244 C 0.68567 0.17011 0.75106 0.0
O245 O 0.55598 0.17652 0.75263 0.0
O246 O 0.66741 0.19705 0.72684 0.0
Mg247 Mg 0.48474 0.0652 0.75851 0.0
C248 C 0.42411 0.06618 0.80289 0.0
O249 O 0.28651 0.06643 0.79176 0.0
C250 C 0.53596 0.06089 0.71359 0.0
O251 O 0.38035 0.05917 0.7181 0.0
C252 C 0.46417 0.04198 0.75808 0.0
O253 O 0.61806 0.04504 0.75604 0.0
O254 O 0.35368 0.04944 0.75927 0.0
O255 O 0.55915 0.06564 0.79239 0.0
O256 O 0.41225 0.08246 0.75433 0.0
C257 C 0.54844 0.08767 0.75498 0.0
O258 O 0.68339 0.08192 0.75803 0.0
O259 O 0.63239 0.06342 0.72913 0.0
Mg260 Mg 0.26523 0.94961 0.50568 0.0
C261 C 0.23686 0.94561 0.55115 0.0
O262 O 0.10554 0.94181 0.54128 0.0
C263 C 0.28103 0.95305 0.46012 0.0
O264 O 0.12687 0.95219 0.46623 0.0
C265 C 0.20551 0.97197 0.51506 0.0
O266 O 0.35887 0.96947 0.51945 0.0
O267 O 0.11184 0.96441 0.50765 0.0
O268 O 0.3529 0.94947 0.53944 0.0
O269 O 0.20183 0.9322 0.50154 0.0
C270 C 0.33759 0.92696 0.50016 0.0
O271 O 0.4744 0.93269 0.50065 0.0
O272 O 0.39168 0.95261 0.4748 0.0
Mg273 Mg 0.52416 0.82158 0.50302 0.0
C274 C 0.57047 0.81931 0.5476 0.0
O275 O 0.71232 0.82013 0.53751 0.0
C276 C 0.49773 0.82172 0.45803 0.0
O277 O 0.64997 0.82351 0.46414 0.0
C278 C 0.56377 0.79881 0.49623 0.0
O279 O 0.40728 0.80143 0.49581 0.0
O280 O 0.66886 0.80645 0.49944 0.0
O281 O 0.43972 0.8196 0.53623 0.0
O282 O 0.59167 0.83901 0.50234 0.0
C283 C 0.45683 0.84431 0.50432 0.0
O284 O 0.32108 0.83859 0.50681 0.0
O285 O 0.38826 0.82065 0.47273 0.0
Mg286 Mg 0.23195 0.82057 0.25396 0.0
C287 C 0.18387 0.8215 0.2094 0.0
O288 O 0.04781 0.82383 0.21999 0.0
C289 C 0.25779 0.81748 0.29865 0.0
O290 O 0.10334 0.81867 0.29295 0.0
C291 C 0.16966 0.79807 0.25182 0.0
O292 O 0.32735 0.8001 0.24966 0.0
O293 O 0.07232 0.80623 0.25431 0.0
O294 O 0.31356 0.81966 0.22042 0.0
O295 O 0.17115 0.83793 0.25736 0.0
C296 C 0.30869 0.84294 0.25778 0.0
O297 O 0.44357 0.83702 0.25637 0.0
O298 O 0.36721 0.81773 0.2838 0.0
Mg299 Mg 0.52127 0.94758 0.25355 0.0
C300 C 0.59295 0.94807 0.20855 0.0
O301 O 0.72818 0.94659 0.21982 0.0
C302 C 0.49222 0.94931 0.29899 0.0
O303 O 0.64457 0.9472 0.29325 0.0
C304 C 0.5734 0.97007 0.25371 0.0
O305 O 0.41776 0.96769 0.2506 0.0
O306 O 0.67485 0.96212 0.25592 0.0
O307 O 0.45752 0.94882 0.21898 0.0
O308 O 0.58286 0.93023 0.25661 0.0
C309 C 0.44542 0.92521 0.256 0.0
O310 O 0.31126 0.93114 0.25372 0.0
O311 O 0.38458 0.95007 0.28395 0.0
Mg312 Mg 0.86631 0.57257 0.01011 0.0
C313 C 0.86112 0.57716 0.96418 0.0
O314 O 0.96405 0.58419 0.97303 0.0
C315 C 0.83033 0.56834 0.0547 0.0
O316 O 0.97909 0.57199 0.05066 0.0
C317 C 0.11883 0.55557 0.99584 0.0
O318 O 0.09066 0.55959 0.9764 0.0
O319 O 0.07039 0.56096 0.01242 0.0
O320 O 0.77984 0.57081 0.97673 0.0
O321 O 0.88273 0.59033 0.01542 0.0
C322 C 0.73773 0.59429 0.0162 0.0
O323 O 0.6135 0.58744 0.01434 0.0
O324 O 0.73067 0.56739 0.03883 0.0
Mg325 Mg 0.36984 0.6972 0.00811 0.0
C326 C 0.36537 0.69181 0.96268 0.0
O327 O 0.25381 0.6857 0.97232 0.0
C328 C 0.40931 0.70156 0.05263 0.0
O329 O 0.25538 0.6991 0.04851 0.0
C330 C 0.13389 0.71513 0.993 0.0
O331 O 0.156 0.71061 0.97383 0.0
O332 O 0.18026 0.70993 0.00988 0.0
O333 O 0.45631 0.69791 0.97453 0.0
O334 O 0.34083 0.67956 0.01417 0.0
C335 C 0.4847 0.6754 0.01475 0.0
O336 O 0.61063 0.68205 0.01222 0.0
O337 O 0.51056 0.70178 0.03678 0.0
Mg338 Mg 0.76845 0.696 0.25439 0.0
C339 C 0.8226 0.69885 0.29961 0.0
O340 O 0.96499 0.69898 0.28955 0.0
C341 C 0.72537 0.69809 0.20951 0.0
O342 O 0.87969 0.69593 0.21409 0.0
C343 C 0.82852 0.71858 0.25319 0.0
O344 O 0.6718 0.71657 0.25641 0.0
O345 O 0.92597 0.71039 0.25122 0.0
O346 O 0.69283 0.69761 0.28827 0.0
O347 O 0.82931 0.67858 0.25159 0.0
C348 C 0.69291 0.67342 0.25211 0.0
O349 O 0.55729 0.67924 0.25405 0.0
O350 O 0.62282 0.69858 0.22519 0.0
Mg351 Mg 0.50068 0.56837 0.25742 0.0
C352 C 0.44603 0.56782 0.30255 0.0
O353 O 0.30569 0.56904 0.2923 0.0
C354 C 0.54271 0.56529 0.21256 0.0
O355 O 0.38657 0.56679 0.21713 0.0
C356 C 0.43677 0.5458 0.25836 0.0
O357 O 0.59394 0.54772 0.26132 0.0
O358 O 0.34104 0.55403 0.25579 0.0
O359 O 0.57724 0.56728 0.29123 0.0
O360 O 0.43908 0.58574 0.25386 0.0
C361 C 0.57536 0.59092 0.25392 0.0
O362 O 0.71126 0.58515 0.2559 0.0
O363 O 0.64549 0.56545 0.2282 0.0
Mg364 Mg 0.23186 0.45056 0.00796 0.0
C365 C 0.16785 0.45277 0.05245 0.0
O366 O 0.03037 0.4532 0.04132 0.0
C367 C 0.26504 0.45019 0.96299 0.0
O368 O 0.11003 0.44965 0.96888 0.0
C369 C 0.21066 0.4734 1.00016 0.0
O370 O 0.36507 0.47027 0.99974 0.0
O371 O 0.10029 0.46615 1.0037 0.0
O372 O 0.30245 0.45182 0.04196 0.0
O373 O 0.1569 0.43329 1.00649 0.0
C374 C 0.2906 0.42793 0.00905 0.0
O375 O 0.42572 0.43358 0.01255 0.0
O376 O 0.37379 0.45067 0.97788 0.0
Mg377 Mg 0.4543 0.32273 1.00613 0.0
C378 C 0.51669 0.32346 0.05049 0.0
O379 O 0.6525 0.32458 0.03913 0.0
C380 C 0.42855 0.32013 0.96131 0.0
O381 O 0.58208 0.32162 0.96717 0.0
C382 C 0.48794 0.29995 0.00859 0.0
O383 O 0.33428 0.30304 0.0111 0.0
O384 O 0.59592 0.30744 1.00565 0.0
O385 O 0.38158 0.32247 0.04018 0.0
O386 O 0.52102 0.34005 1.00257 0.0
C387 C 0.38504 0.34528 1.00167 0.0
O388 O 0.24829 0.33955 1.00246 0.0
O389 O 0.31849 0.32014 0.97612 0.0
Mg390 Mg 0.18721 0.31476 0.75579 0.0
C391 C 0.13124 0.31213 0.71103 0.0
O392 O 0.99182 0.31144 0.72172 0.0
C393 C 0.21504 0.31539 0.80088 0.0
O394 O 0.06097 0.31621 0.79475 0.0
C395 C 0.16353 0.29189 0.76326 0.0
O396 O 0.31811 0.29496 0.76368 0.0
O397 O 0.05378 0.29922 0.75992 0.0
O398 O 0.26314 0.31337 0.72193 0.0
O399 O 0.11805 0.33219 0.75685 0.0
C400 C 0.25415 0.33728 0.75444 0.0
O401 O 0.38742 0.33134 0.75134 0.0
O402 O 0.32502 0.31456 0.78615 0.0
Mg403 Mg 0.51244 0.44191 0.75806 0.0
C404 C 0.56685 0.44215 0.7134 0.0
O405 O 0.70279 0.43984 0.72396 0.0
C406 C 0.48685 0.44422 0.80297 0.0
O407 O 0.63817 0.44176 0.79727 0.0
C408 C 0.58249 0.4644 0.75739 0.0
O409 O 0.42449 0.46257 0.755 0.0
O410 O 0.6774 0.45607 0.7595 0.0
O411 O 0.43547 0.44355 0.7244 0.0
O412 O 0.56028 0.42424 0.76037 0.0
C413 C 0.42057 0.41948 0.76086 0.0
O414 O 0.2883 0.4257 0.76036 0.0
O415 O 0.37863 0.44496 0.78806 0.0
H416 H 0.44958 0.06619 0.08749 0.0
H417 H 0.76498 0.06966 0.18012 0.0
H418 H 0.93126 0.06913 0.07406 0.0
H419 H 0.28441 0.06761 0.19346 0.0
H420 H 0.82243 0.0682 0.14143 0.0
H421 H 0.3894 0.06534 0.12616 0.0
C422 C 0.32253 0.06661 0.09265 0.0
C423 C 0.19505 0.06783 0.07747 0.0
C424 C 0.92403 0.06803 0.15276 0.0
C425 C 0.1256 0.06688 0.12199 0.0
C426 C 0.89161 0.06888 0.17493 0.0
C427 C 0.02049 0.06884 0.19011 0.0
C428 C 0.08677 0.06715 0.14557 0.0
C429 C 0.1815 0.06772 0.18235 0.0
C430 C 0.28851 0.06612 0.11481 0.0
C431 C 0.03319 0.06822 0.08519 0.0
N432 N 0.21015 0.06697 0.16057 0.0
N433 N 0.00311 0.06782 0.10696 0.0
H434 H 0.46643 0.18473 0.17343 0.0
H435 H 0.91561 0.21558 0.08595 0.0
H436 H 0.10601 0.20932 0.19118 0.0
H437 H 0.34358 0.19636 0.06914 0.0
H438 H 0.98539 0.21381 0.12435 0.0
H439 H 0.42009 0.18886 0.1353 0.0
C440 C 0.37655 0.19098 0.16934 0.0
C441 C 0.28935 0.19666 0.18563 0.0
C442 C 0.06544 0.2101 0.1123 0.0
C443 C 0.23645 0.20147 0.14165 0.0
C444 C 0.02599 0.21112 0.09035 0.0
C445 C 0.12353 0.20604 0.07434 0.0
C446 C 0.20243 0.20382 0.11838 0.0
C447 C 0.26531 0.20042 0.08094 0.0
C448 C 0.35122 0.19338 0.14748 0.0
C449 C 0.17541 0.20471 0.1792 0.0
N450 N 0.29931 0.19933 0.10252 0.0
N451 N 0.15167 0.20684 0.15767 0.0
H452 H 0.96037 0.97547 0.82577 0.0
H453 H 0.65483 0.93567 0.92147 0.0
H454 H 0.70868 0.94457 0.81568 0.0
H455 H 0.96816 0.96368 0.93348 0.0
H456 H 0.6636 0.93959 0.88277 0.0
H457 H 0.94585 0.97245 0.86517 0.0
C458 C 0.89941 0.96815 0.83179 0.0
C459 C 0.83675 0.96021 0.81729 0.0
C460 C 0.73153 0.94488 0.89374 0.0
C461 C 0.82155 0.95667 0.86241 0.0
C462 C 0.72711 0.94262 0.91592 0.0
C463 C 0.81111 0.94935 0.93079 0.0
C464 C 0.81965 0.95404 0.88611 0.0
C465 C 0.90283 0.95823 0.92256 0.0
C466 C 0.89276 0.96638 0.85431 0.0
C467 C 0.75952 0.95089 0.82615 0.0
N468 N 0.90379 0.96037 0.90074 0.0
N469 N 0.755 0.94936 0.84804 0.0
H470 H 0.49462 0.81568 0.83474 0.0
H471 H 0.20848 0.82096 0.92273 0.0
H472 H 0.00776 0.81857 0.81798 0.0
H473 H 0.69591 0.81773 0.9396 0.0
H474 H 0.13766 0.8195 0.88449 0.0
H475 H 0.5672 0.81566 0.87306 0.0
C476 C 0.62309 0.81627 0.83911 0.0
C477 C 0.74552 0.81721 0.82309 0.0
C478 C 0.04043 0.81909 0.8965 0.0
C479 C 0.82919 0.81721 0.86716 0.0
C480 C 0.08051 0.81995 0.91841 0.0
C481 C 0.95755 0.81952 0.93445 0.0
C482 C 0.8759 0.81781 0.89043 0.0
C483 C 0.79442 0.81815 0.92779 0.0
C484 C 0.66422 0.81625 0.86106 0.0
C485 C 0.90956 0.81785 0.82978 0.0
N486 N 0.75823 0.81737 0.90624 0.0
N487 N 0.9466 0.8179 0.85136 0.0
H488 H 0.41258 0.5851 0.59072 0.0
H489 H 0.88242 0.55287 0.67866 0.0
H490 H 0.05305 0.56053 0.57304 0.0
H491 H 0.31125 0.57207 0.69472 0.0
H492 H 0.94307 0.55528 0.6401 0.0
H493 H 0.37183 0.58059 0.62879 0.0
C494 C 0.32399 0.57878 0.59482 0.0
C495 C 0.23564 0.5732 0.57856 0.0
C496 C 0.0252 0.55885 0.65201 0.0
C497 C 0.18921 0.56795 0.62247 0.0
C498 C 0.99098 0.55747 0.67405 0.0
C499 C 0.09156 0.56235 0.68992 0.0
C500 C 0.15997 0.56528 0.64572 0.0
C501 C 0.23078 0.56816 0.68303 0.0
C502 C 0.30185 0.57616 0.61664 0.0
C503 C 0.12324 0.56507 0.585 0.0
N504 N 0.25972 0.56959 0.66141 0.0
N505 N 0.10279 0.56271 0.6065 0.0
H506 H 0.22973 0.70269 0.5701 0.0
H507 H 0.8831 0.70101 0.69249 0.0
H508 H 0.71515 0.70449 0.58667 0.0
H509 H 0.39713 0.69869 0.6758 0.0
H510 H 0.81961 0.70365 0.65383 0.0
H511 H 0.29591 0.70279 0.60903 0.0
C512 C 0.13105 0.70323 0.58188 0.0
C513 C 0.96688 0.70347 0.57512 0.0
C514 C 0.94636 0.70261 0.6587 0.0
C515 C 0.04082 0.7035 0.61958 0.0
C516 C 0.98235 0.70109 0.68075 0.0
C517 C 0.14525 0.69953 0.68739 0.0
C518 C 0.0743 0.70258 0.64324 0.0
C519 C 0.26936 0.69976 0.67146 0.0
C520 C 0.16854 0.70324 0.6041 0.0
C521 C 0.8436 0.70416 0.59111 0.0
N522 N 0.2313 0.70121 0.65019 0.0
N523 N 0.88298 0.70408 0.61254 0.0
H524 H 0.17157 0.44766 0.33631 0.0
H525 H 0.50894 0.46039 0.42869 0.0
H526 H 0.65772 0.45318 0.32292 0.0
H527 H 0.0144 0.4521 0.44208 0.0
H528 H 0.56673 0.45954 0.3899 0.0
H529 H 0.12017 0.45086 0.37469 0.0
C530 C 0.04736 0.44956 0.34141 0.0
C531 C 0.91821 0.45007 0.3263 0.0
C532 C 0.66542 0.45797 0.40127 0.0
C533 C 0.85895 0.45377 0.37057 0.0
C534 C 0.63287 0.45847 0.42349 0.0
C535 C 0.75701 0.45622 0.43872 0.0
C536 C 0.82347 0.4552 0.3941 0.0
C537 C 0.91506 0.45387 0.43094 0.0
C538 C 0.01844 0.4514 0.36343 0.0
C539 C 0.76064 0.45265 0.33399 0.0
N540 N 0.94352 0.45335 0.40914 0.0
N541 N 0.73528 0.45437 0.35564 0.0
H542 H 0.04228 0.31751 0.32009 0.0
H543 H 0.67183 0.31433 0.44107 0.0
H544 H 0.54903 0.30682 0.33478 0.0
H545 H 0.17251 0.32335 0.42634 0.0
H546 H 0.62614 0.31088 0.40219 0.0
H547 H 0.09748 0.31872 0.35923 0.0
C548 C 0.9465 0.31529 0.33151 0.0
C549 C 0.79064 0.31215 0.32414 0.0
C550 C 0.74611 0.31358 0.40753 0.0
C551 C 0.85155 0.31366 0.36885 0.0
C552 C 0.77184 0.31558 0.42971 0.0
C553 C 0.9257 0.31919 0.43699 0.0
C554 C 0.87518 0.31522 0.3926 0.0
C555 C 0.05138 0.32062 0.42153 0.0
C556 C 0.97752 0.31603 0.35385 0.0
C557 C 0.67074 0.30939 0.33969 0.0
N558 N 0.02323 0.31867 0.40014 0.0
N559 N 0.70325 0.31028 0.36125 0.0
H560 H 0.52486 0.05991 0.57261 0.0
H561 H 0.8096 0.07063 0.69579 0.0
H562 H 0.88798 0.08399 0.59163 0.0
H563 H 0.37532 0.05216 0.67891 0.0
H564 H 0.86388 0.07346 0.65696 0.0
H565 H 0.48435 0.05532 0.61115 0.0
C566 C 0.59496 0.06428 0.58484 0.0
C567 C 0.70958 0.07236 0.57886 0.0
C568 C 0.75734 0.06872 0.66178 0.0
C569 C 0.66664 0.06702 0.62278 0.0
C570 C 0.72737 0.06702 0.68393 0.0
C571 C 0.5872 0.06124 0.69056 0.0
C572 C 0.64678 0.06454 0.64624 0.0
C573 C 0.48408 0.05678 0.67449 0.0
C574 C 0.5726 0.06162 0.6068 0.0
C575 C 0.79801 0.07771 0.59541 0.0
N576 N 0.51536 0.05857 0.6531 0.0
N577 N 0.77519 0.07491 0.61654 0.0
H578 H 0.82927 0.20151 0.57126 0.0
H579 H 0.46694 0.20051 0.69294 0.0
H580 H 0.31276 0.20376 0.58653 0.0
H581 H 0.98069 0.1968 0.67713 0.0
H582 H 0.40903 0.20339 0.65415 0.0
H583 H 0.88978 0.20148 0.61033 0.0
C584 C 0.72894 0.20208 0.58279 0.0
C585 C 0.56591 0.20254 0.5756 0.0
C586 C 0.53452 0.202 0.65924 0.0
C587 C 0.63347 0.20246 0.62026 0.0
C588 C 0.56736 0.20038 0.68137 0.0
C589 C 0.72838 0.1983 0.68827 0.0
C590 C 0.66382 0.20158 0.644 0.0
C591 C 0.85417 0.19824 0.67257 0.0
C592 C 0.76323 0.20204 0.60509 0.0
C593 C 0.44046 0.20329 0.59129 0.0
N594 N 0.81916 0.1998 0.65124 0.0
N595 N 0.47676 0.20317 0.61282 0.0
H596 H 0.5827 0.95225 0.43945 0.0
H597 H 0.19118 0.95251 0.31924 0.0
H598 H 0.06352 0.95531 0.42682 0.0
H599 H 0.70948 0.94938 0.33249 0.0
H600 H 0.14116 0.95433 0.35856 0.0
H601 H 0.63272 0.95208 0.40007 0.0
C602 C 0.47956 0.95297 0.42845 0.0
C603 C 0.31885 0.95374 0.43651 0.0
C604 C 0.26584 0.95327 0.35278 0.0
C605 C 0.37448 0.95349 0.39142 0.0
C606 C 0.29417 0.95224 0.33034 0.0
C607 C 0.45444 0.95074 0.32249 0.0
C608 C 0.39879 0.95282 0.36742 0.0
C609 C 0.58347 0.95046 0.33769 0.0
C610 C 0.50785 0.95284 0.40595 0.0
C611 C 0.18967 0.95464 0.42142 0.0
N612 N 0.55283 0.95146 0.35931 0.0
N613 N 0.22017 0.95444 0.39969 0.0
H614 H 0.71556 0.82292 0.42459 0.0
H615 H 0.04444 0.81411 0.33195 0.0
H616 H 0.20081 0.81772 0.43796 0.0
H617 H 0.55978 0.81904 0.31866 0.0
H618 H 0.10182 0.81447 0.37072 0.0
H619 H 0.66201 0.8208 0.38597 0.0
C620 C 0.59071 0.82135 0.41942 0.0
C621 C 0.46201 0.82055 0.43459 0.0
C622 C 0.20271 0.81541 0.35939 0.0
C623 C 0.40029 0.81808 0.39013 0.0
C624 C 0.1703 0.81521 0.33719 0.0
C625 C 0.29765 0.81664 0.32201 0.0
C626 C 0.36379 0.8171 0.36659 0.0
C627 C 0.45805 0.81792 0.32979 0.0
C628 C 0.56056 0.82011 0.39729 0.0
C629 C 0.30341 0.81844 0.42685 0.0
N630 N 0.48644 0.8182 0.3516 0.0
N631 N 0.27692 0.81731 0.40511 0.0
H632 H 0.52274 0.5644 0.07198 0.0
H633 H 0.85449 0.56467 0.19494 0.0
H634 H 0.03463 0.56682 0.08942 0.0
H635 H 0.34168 0.56284 0.17765 0.0
H636 H 0.92521 0.56378 0.15617 0.0
H637 H 0.45467 0.5621 0.11062 0.0
C638 C 0.62065 0.56435 0.08387 0.0
C639 C 0.78415 0.56593 0.07749 0.0
C640 C 0.79722 0.56351 0.16091 0.0
C641 C 0.70794 0.56334 0.1216 0.0
C642 C 0.7571 0.564 0.18304 0.0
C643 C 0.59216 0.56394 0.18954 0.0
C644 C 0.67137 0.56296 0.14525 0.0
C645 C 0.47068 0.56303 0.17341 0.0
C646 C 0.58201 0.56306 0.10593 0.0
C647 C 0.90646 0.56577 0.0936 0.0
N648 N 0.51263 0.56264 0.15206 0.0
N649 N 0.86582 0.56458 0.11486 0.0
H650 H 0.92954 0.69911 0.17455 0.0
H651 H 0.20952 0.70465 0.08751 0.0
H652 H 0.41684 0.70132 0.19199 0.0
H653 H 0.72145 0.70184 0.07008 0.0
H654 H 0.28526 0.70503 0.12574 0.0
H655 H 0.85701 0.7015 0.13654 0.0
C656 C 0.80119 0.70011 0.17042 0.0
C657 C 0.67868 0.69992 0.18655 0.0
C658 C 0.3814 0.70441 0.11361 0.0
C659 C 0.59499 0.7027 0.14275 0.0
C660 C 0.33845 0.7042 0.09171 0.0
C661 C 0.45949 0.70311 0.07553 0.0
C662 C 0.54687 0.70349 0.11952 0.0
C663 C 0.62425 0.70267 0.082 0.0
C664 C 0.76013 0.70151 0.14863 0.0
C665 C 0.51507 0.70136 0.18012 0.0
N666 N 0.66306 0.70277 0.10354 0.0
N667 N 0.47789 0.70263 0.15867 0.0
H668 H 0.1865 0.44771 0.82268 0.0
H669 H 0.56933 0.44946 0.9431 0.0
H670 H 0.70443 0.44476 0.83641 0.0
H671 H 0.05007 0.45092 0.92932 0.0
H672 H 0.62369 0.44878 0.90382 0.0
H673 H 0.1347 0.44996 0.86177 0.0
C674 C 0.28905 0.44757 0.83387 0.0
C675 C 0.4496 0.44597 0.82627 0.0
C676 C 0.49791 0.44928 0.90946 0.0
C677 C 0.39203 0.44854 0.87089 0.0
C678 C 0.46714 0.44968 0.93186 0.0
C679 C 0.30519 0.45018 0.93952 0.0
C680 C 0.36568 0.44941 0.89471 0.0
C681 C 0.17713 0.45046 0.92421 0.0
C682 C 0.25973 0.44884 0.85617 0.0
C683 C 0.57826 0.44589 0.84151 0.0
N684 N 0.21009 0.45005 0.90261 0.0
N685 N 0.54666 0.44712 0.86303 0.0
H686 H 0.51739 0.3149 0.82119 0.0
H687 H 0.12646 0.31857 0.9412 0.0
H688 H 0.99661 0.31599 0.8343 0.0
H689 H 0.64743 0.31838 0.92809 0.0
H690 H 0.07561 0.31683 0.90201 0.0
H691 H 0.5685 0.31542 0.86053 0.0
C692 C 0.41413 0.31522 0.83229 0.0
C693 C 0.25282 0.31545 0.82442 0.0
C694 C 0.20105 0.31714 0.90777 0.0
C695 C 0.30962 0.31604 0.86932 0.0
C696 C 0.22982 0.31812 0.93013 0.0
C697 C 0.3911 0.31868 0.93794 0.0
C698 C 0.3346 0.3167 0.89319 0.0
C699 C 0.52075 0.31805 0.92284 0.0
C700 C 0.44306 0.31553 0.85473 0.0
C701 C 0.12332 0.31585 0.83957 0.0
N702 N 0.48969 0.31712 0.90125 0.0
N703 N 0.15454 0.31616 0.86122 0.0
H704 H 0.6453 0.04189 0.00844 0.0
H705 H 0.36556 0.97838 0.99942 0.0
H706 H 0.13992 0.03135 1.00456 0.0
H707 H 0.87067 0.98909 1.00181 0.0
H708 H 0.27899 0.99779 1.00127 0.0
H709 H 0.7309 0.02249 1.00624 0.0
C710 C 0.5526 0.03552 0.00716 0.0
C711 C 0.38549 0.03827 0.00667 0.0
C712 C 0.4088 0.99586 1.00136 0.0
C713 C 0.48173 0.01609 1.00412 0.0
C714 C 0.45796 0.98478 1.00027 0.0
C715 C 0.62533 0.98208 1.00049 0.0
C716 C 0.52803 1.00425 1.00268 0.0
C717 C 0.74005 0.99074 1.00164 0.0
C718 C 0.60122 0.02445 1.00587 0.0
C719 C 0.27038 0.02966 1.00497 0.0
N720 N 0.68935 1.00139 1.00272 0.0
N721 N 0.32056 0.019 1.00376 0.0
H722 H 0.7888 0.28955 1.00395 0.0
H723 H 0.40208 0.22885 0.01699 0.0
H724 H 0.27351 0.28307 0.01443 0.0
H725 H 0.91759 0.23502 1.00588 0.0
H726 H 0.35284 0.24881 0.01627 0.0
H727 H 0.8405 0.26956 1.00482 0.0
C728 C 0.68692 0.28395 1.00643 0.0
C729 C 0.52688 0.28801 0.00911 0.0
C730 C 0.47676 0.24577 0.01399 0.0
C731 C 0.58437 0.26521 0.01011 0.0
C732 C 0.50468 0.23437 0.0144 0.0
C733 C 0.6639 0.23022 0.01148 0.0
C734 C 0.60905 0.25306 0.01066 0.0
C735 C 0.79244 0.2378 0.00819 0.0
C736 C 0.71618 0.27256 0.00693 0.0
C737 C 0.39919 0.28037 0.01229 0.0
N738 N 0.76221 0.24882 0.00788 0.0
N739 N 0.43069 0.26938 0.01268 0.0
H740 H 0.72981 0.22826 0.20176 0.0
H741 H 0.50598 0.28185 0.27222 0.0
H742 H 0.61586 0.22685 0.2703 0.0
H743 H 0.76518 0.28312 0.21107 0.0
H744 H 0.5079 0.26154 0.26999 0.0
H745 H 0.7189 0.24841 0.2036 0.0
C746 C 0.70526 0.23219 0.21727 0.0
C747 C 0.67416 0.22585 0.23588 0.0
C748 C 0.5628 0.2663 0.25698 0.0
C749 C 0.65653 0.24889 0.23799 0.0
C750 C 0.55946 0.27785 0.25811 0.0
C751 C 0.63533 0.2841 0.24179 0.0
C752 C 0.64082 0.26107 0.2393 0.0
C753 C 0.7057 0.27856 0.22402 0.0
C754 C 0.69776 0.24369 0.21828 0.0
C755 C 0.64184 0.2314 0.25555 0.0
N756 N 0.70708 0.26738 0.22326 0.0
N757 N 0.63207 0.2426 0.25603 0.0
H758 H 0.37417 0.98801 0.25071 0.0
H759 H 0.09951 0.03173 0.26185 0.0
H760 H 0.88308 0.97889 0.25887 0.0
H761 H 0.59074 0.04101 0.25416 0.0
H762 H 0.02148 0.01244 0.2609 0.0
H763 H 0.45085 1.00736 0.25207 0.0
C764 C 0.50257 0.99006 0.25278 0.0
C765 C 0.62276 0.98178 0.25465 0.0
C766 C 0.92656 0.01866 0.25943 0.0
C767 C 0.71106 1.00405 0.25622 0.0
C768 C 0.97078 0.02973 0.25997 0.0
C769 C 0.85116 0.03804 0.25807 0.0
C770 C 0.76118 0.0158 0.25697 0.0
C771 C 0.6868 0.03488 0.25567 0.0
C772 C 0.54598 1.00115 0.25357 0.0
C773 C 0.7866 0.98499 0.25736 0.0
N774 N 0.64656 0.02398 0.25518 0.0
N775 N 0.82601 0.99589 0.25804 0.0
H776 H 0.99152 0.72845 0.9626 0.0
H777 H 0.29858 0.78468 0.01757 0.0
H778 H 0.22338 0.72936 0.02564 0.0
H779 H 0.92178 0.78332 0.9685 0.0
H780 H 0.30996 0.76433 0.0174 0.0
H781 H 0.99206 0.74863 0.96196 0.0
C782 C 0.04014 0.7329 0.97646 0.0
C783 C 0.10631 0.7272 0.99425 0.0
C784 C 0.22626 0.76853 1.00652 0.0
C785 C 0.1123 0.7503 0.99333 0.0
C786 C 0.22166 0.7801 1.0064 0.0
C787 C 0.10961 0.78562 0.99297 0.0
C788 C 0.11958 0.76254 0.99291 0.0
C789 C 0.00993 0.77934 0.97909 0.0
C790 C 0.04155 0.74441 0.97602 0.0
C791 C 0.16928 0.73341 0.01169 0.0
N792 N 0.01711 0.76816 0.97943 0.0
N793 N 0.17228 0.74463 0.0107 0.0
H794 H 0.29109 0.7895 0.75824 0.0
H795 H 0.59707 0.72646 0.75057 0.0
H796 H 0.79793 0.77985 0.75002 0.0
H797 H 0.09007 0.73617 0.75837 0.0
H798 H 0.67415 0.74604 0.75019 0.0
H799 H 0.21409 0.76992 0.75825 0.0
C800 C 0.38588 0.78329 0.75644 0.0
C801 C 0.5509 0.78634 0.75413 0.0
C802 C 0.546 0.74385 0.75197 0.0
C803 C 0.46451 0.76396 0.75413 0.0
C804 C 0.50224 0.73268 0.75217 0.0
C805 C 0.33717 0.72965 0.75453 0.0
C806 C 0.42368 0.75202 0.75412 0.0
C807 C 0.21912 0.73808 0.75655 0.0
C808 C 0.34218 0.77212 0.75644 0.0
C809 C 0.66893 0.77792 0.75184 0.0
N810 N 0.26462 0.74884 0.75632 0.0
N811 N 0.62351 0.76716 0.75191 0.0
H812 H 0.24813 0.97768 0.81158 0.0
H813 H 0.62163 0.02541 0.73743 0.0
H814 H 0.48608 0.97141 0.75003 0.0
H815 H 0.23562 0.03153 0.78397 0.0
H816 H 0.60021 1.00567 0.74462 0.0
H817 H 0.27958 0.99754 0.80544 0.0
C818 C 0.31036 0.98045 0.79701 0.0
C819 C 0.36304 0.97286 0.78117 0.0
C820 C 0.519 0.01129 0.75315 0.0
C821 C 0.39792 0.99555 0.77402 0.0
C822 C 0.53053 0.02255 0.74898 0.0
C823 C 0.4293 0.03008 0.76002 0.0
C824 C 0.40753 1.00749 0.76882 0.0
C825 C 0.31421 0.02596 0.77491 0.0
C826 C 0.32612 0.9918 0.7934 0.0
C827 C 0.44259 0.97696 0.7626 0.0
N828 N 0.30751 0.01492 0.77908 0.0
N829 N 0.45689 0.98802 0.7595 0.0
H830 H 0.46813 0.48704 0.49055 0.0
H831 H 0.67769 0.54099 0.56055 0.0
H832 H 0.7519 0.48639 0.54967 0.0
H833 H 0.54497 0.54247 0.49268 0.0
H834 H 0.68025 0.52084 0.55823 0.0
H835 H 0.45845 0.50735 0.49295 0.0
C836 C 0.52492 0.49116 0.50425 0.0
C837 C 0.61066 0.48508 0.51996 0.0
C838 C 0.65206 0.52558 0.54379 0.0
C839 C 0.6025 0.50813 0.52265 0.0
C840 C 0.65178 0.53708 0.54507 0.0
C841 C 0.61198 0.54344 0.52678 0.0
C842 C 0.60957 0.52036 0.52416 0.0
C843 C 0.57799 0.53791 0.50716 0.0
C844 C 0.52147 0.50272 0.50547 0.0
C845 C 0.6848 0.49079 0.5372 0.0
N846 N 0.5758 0.52669 0.50642 0.0
N847 N 0.67914 0.50197 0.53808 0.0
H848 H 0.45056 0.78521 0.46515 0.0
H849 H 0.71582 0.73028 0.52718 0.0
H850 H 0.76392 0.78579 0.52151 0.0
H851 H 0.53455 0.73053 0.46126 0.0
H852 H 0.71146 0.75051 0.52725 0.0
H853 H 0.4682 0.76511 0.46445 0.0
C854 C 0.52638 0.78107 0.4771 0.0
C855 C 0.60765 0.78712 0.49324 0.0
C856 C 0.67185 0.74612 0.51283 0.0
C857 C 0.62333 0.76407 0.4931 0.0
C858 C 0.67194 0.73457 0.51287 0.0
C859 C 0.62495 0.72868 0.49417 0.0
C860 C 0.62264 0.75182 0.49407 0.0
C861 C 0.57162 0.73471 0.47603 0.0
C862 C 0.53539 0.76959 0.4768 0.0
C863 C 0.70203 0.78139 0.50858 0.0
N864 N 0.57203 0.74592 0.47643 0.0
N865 N 0.70569 0.77014 0.50832 0.0
H866 H 0.61664 0.53581 0.75407 0.0
H867 H 0.89955 0.47229 0.76179 0.0
H868 H 0.11989 0.52551 0.76275 0.0
H869 H 0.39738 0.48295 0.75353 0.0
H870 H 0.98483 0.49175 0.76206 0.0
H871 H 0.53404 0.51636 0.75371 0.0
C872 C 0.70955 0.52948 0.75589 0.0
C873 C 0.87515 0.53231 0.75845 0.0
C874 C 0.85597 0.48979 0.76019 0.0
C875 C 0.78224 0.51005 0.75805 0.0
C876 C 0.80754 0.47869 0.76003 0.0
C877 C 0.64133 0.47596 0.75763 0.0
C878 C 0.73716 0.49817 0.75794 0.0
C879 C 0.52709 0.48461 0.75542 0.0
C880 C 0.66262 0.51837 0.75569 0.0
C881 C 0.99057 0.52374 0.76075 0.0
N882 N 0.57705 0.49528 0.75563 0.0
N883 N 0.94202 0.51303 0.76049 0.0
H884 H 0.38039 0.29349 0.50298 0.0
H885 H 0.10925 0.22974 0.50948 0.0
H886 H 0.87789 0.28249 0.50839 0.0
H887 H 0.61291 0.24059 0.50494 0.0
H888 H 0.02142 0.24912 0.50898 0.0
H889 H 0.46946 0.27411 0.50342 0.0
C890 C 0.28909 0.28703 0.50423 0.0
C891 C 0.12173 0.28964 0.50567 0.0
C892 C 0.15123 0.24724 0.50811 0.0
C893 C 0.22187 0.26751 0.5062 0.0
C894 C 0.20111 0.23617 0.50841 0.0
C895 C 0.36839 0.23352 0.50724 0.0
C896 C 0.26959 0.25568 0.50663 0.0
C897 C 0.48238 0.24221 0.50585 0.0
C898 C 0.33968 0.27598 0.5045 0.0
C899 C 0.00846 0.28092 0.50727 0.0
N900 N 0.43097 0.25286 0.50558 0.0
N901 N 0.06052 0.27029 0.5075 0.0
H902 H 0.86818 0.48577 0.25065 0.0
H903 H 0.62183 0.52726 0.263 0.0
H904 H 0.36635 0.47498 0.2619 0.0
H905 H 0.12183 0.53792 0.25276 0.0
H906 H 0.53124 0.50816 0.2623 0.0
H907 H 0.96009 0.50481 0.25102 0.0
C908 C 0.99749 0.48739 0.25318 0.0
C909 C 0.10998 0.47872 0.25627 0.0
C910 C 0.44107 0.51465 0.26022 0.0
C911 C 0.21601 0.50067 0.2567 0.0
C912 C 0.49248 0.5256 0.26062 0.0
C913 C 0.37895 0.53424 0.25795 0.0
C914 C 0.27457 0.51226 0.25714 0.0
C915 C 0.21342 0.53153 0.25489 0.0
C916 C 0.04968 0.49831 0.25339 0.0
C917 C 0.27555 0.48139 0.25946 0.0
N918 N 0.16616 0.52076 0.25457 0.0
N919 N 0.32365 0.49215 0.2596 0.0
H920 H 0.01148 0.985 0.4888 0.0
H921 H 0.14513 0.03912 0.56152 0.0
H922 H 0.28882 0.98521 0.54845 0.0
H923 H 0.03322 0.04071 0.49302 0.0
H924 H 0.16761 0.01904 0.55857 0.0
H925 H 0.97667 1.00517 0.49207 0.0
C926 C 0.0613 0.98925 0.50281 0.0
C927 C 0.15259 0.98349 0.51842 0.0
C928 C 0.13949 0.02379 0.54414 0.0
C929 C 0.11589 1.00638 0.52211 0.0
C930 C 0.12778 0.03526 0.54579 0.0
C931 C 0.08847 0.04162 0.52748 0.0
C932 C 0.1088 0.01859 0.5241 0.0
C933 C 0.06569 0.03615 0.50752 0.0
C934 C 0.04361 1.00075 0.50453 0.0
C935 C 0.2176 0.98938 0.53606 0.0
N936 N 0.07454 0.02494 0.5064 0.0
N937 N 0.19812 1.00048 0.53744 0.0
H938 H 0.21976 0.22292 0.79798 0.0
H939 H 0.92504 0.27939 0.74311 0.0
H940 H 0.96567 0.22378 0.73647 0.0
H941 H 0.32514 0.27743 0.78877 0.0
H942 H 0.90449 0.25908 0.74383 0.0
H943 H 0.23512 0.24309 0.79745 0.0
C944 C 0.16957 0.22734 0.7842 0.0
C945 C 0.09241 0.22164 0.76719 0.0
C946 C 0.99578 0.26314 0.75379 0.0
C947 C 0.10464 0.24474 0.76682 0.0
C948 C 0.00593 0.2747 0.75359 0.0
C949 C 0.12679 0.28004 0.76591 0.0
C950 C 0.10562 0.257 0.76666 0.0
C951 C 0.23053 0.27361 0.77898 0.0
C952 C 0.17734 0.23885 0.78397 0.0
C953 C 0.02798 0.22782 0.74982 0.0
N954 N 0.21756 0.26245 0.77903 0.0
N955 N 0.03388 0.23904 0.75019 0.0
H956 H 0.85445 0.79 0.25576 0.0
H957 H 0.14332 0.72664 0.24849 0.0
H958 H 0.35837 0.7797 0.24729 0.0
H959 H 0.63854 0.73698 0.25577 0.0
H960 H 0.22543 0.74612 0.24772 0.0
H961 H 0.77176 0.77053 0.25556 0.0
C962 C 0.94738 0.78367 0.25384 0.0
C963 C 0.11326 0.78649 0.25156 0.0
C964 C 0.09665 0.74409 0.24945 0.0
C965 C 0.02045 0.76427 0.25133 0.0
C966 C 0.05004 0.73299 0.24988 0.0
C967 C 0.88417 0.73017 0.25224 0.0
C968 C 0.97636 0.7524 0.2514 0.0
C969 C 0.76811 0.73873 0.25398 0.0
C970 C 0.90044 0.77256 0.25372 0.0
C971 C 0.22885 0.77794 0.24911 0.0
N972 N 0.81639 0.74943 0.25355 0.0
N973 N 0.18032 0.76724 0.24909 0.0
H974 H 0.35413 0.4871 0.97144 0.0
H975 H 0.05056 0.54198 0.03037 0.0
H976 H 0.9955 0.48658 0.02304 0.0
H977 H 0.2563 0.5418 0.96562 0.0
H978 H 0.05874 0.52177 0.0305 0.0
H979 H 0.33907 0.50721 0.97074 0.0
C980 C 0.2698 0.49126 0.98237 0.0
C981 C 0.17487 0.48522 0.9972 0.0
C982 C 0.10296 0.52618 0.01635 0.0
C983 C 0.16105 0.50826 0.99701 0.0
C984 C 0.10072 0.53772 0.01636 0.0
C985 C 0.15328 0.54361 0.99794 0.0
C986 C 0.16025 0.5205 0.99793 0.0
C987 C 0.21476 0.53761 0.98016 0.0
C988 C 0.26194 0.50273 0.98204 0.0
C989 C 0.06879 0.49097 0.01116 0.0
N990 N 0.21651 0.5264 0.9806 0.0
N991 N 0.06621 0.50222 0.01094 0.0
H992 H 0.06969 0.06849 0.93582 0.0
H993 H 0.67649 0.06837 0.83253 0.0
H994 H 0.58912 0.07531 0.93956 0.0
H995 H 0.14989 0.06507 0.82798 0.0
H996 H 0.6495 0.06984 0.87221 0.0
H997 H 0.09782 0.06627 0.89629 0.0
C998 C 0.18918 0.06954 0.92836 0.0
C999 C 0.32684 0.07212 0.94102 0.0
C1000 C 0.54002 0.06878 0.86247 0.0
C1001 C 0.36057 0.06953 0.89597 0.0
C1002 C 0.55567 0.06792 0.83985 0.0
C1003 C 0.41549 0.06666 0.82691 0.0
C1004 C 0.38321 0.06834 0.87213 0.0
C1005 C 0.2616 0.06611 0.83726 0.0
C1006 C 0.20546 0.06826 0.90582 0.0
C1007 C 0.47915 0.07335 0.93049 0.0
N1008 N 0.24966 0.06696 0.8592 0.0
N1009 N 0.49185 0.07204 0.90864 0.0
H1010 H 0.16958 0.19303 0.93399 0.0
H1011 H 0.61841 0.20248 0.82744 0.0
H1012 H 0.68859 0.20797 0.93576 0.0
H1013 H 0.02218 0.17942 0.83063 0.0
H1014 H 0.65896 0.20663 0.8662 0.0
H1015 H 0.13892 0.19041 0.89455 0.0
C1016 C 0.05885 0.19589 0.92605 0.0
C1017 C 0.93106 0.20064 0.93816 0.0
C1018 C 0.73819 0.20064 0.85835 0.0
C1019 C 0.89455 0.19764 0.89327 0.0
C1020 C 0.71456 0.19825 0.83628 0.0
C1021 C 0.81624 0.19055 0.82577 0.0
C1022 C 0.86572 0.19541 0.86984 0.0
C1023 C 0.93996 0.18537 0.83801 0.0
C1024 C 0.04067 0.19432 0.90361 0.0
C1025 C 0.7896 0.20416 0.92707 0.0
N1026 N 0.96163 0.18793 0.85931 0.0
N1027 N 0.77496 0.20257 0.9053 0.0
H1028 H 0.1879 0.20255 0.43467 0.0
H1029 H 0.72103 0.20023 0.3259 0.0
H1030 H 0.71775 0.20166 0.43419 0.0
H1031 H 0.19272 0.20305 0.32624 0.0
H1032 H 0.72216 0.20166 0.36534 0.0
H1033 H 0.18824 0.20358 0.39519 0.0
C1034 C 0.30487 0.2026 0.42627 0.0
C1035 C 0.4534 0.20193 0.43782 0.0
C1036 C 0.60587 0.20203 0.35686 0.0
C1037 C 0.45394 0.20311 0.39233 0.0
C1038 C 0.60477 0.2012 0.33427 0.0
C1039 C 0.45608 0.20143 0.32271 0.0
C1040 C 0.45708 0.20303 0.36815 0.0
C1041 C 0.30998 0.20281 0.33449 0.0
C1042 C 0.3046 0.20321 0.40366 0.0
C1043 C 0.60052 0.20212 0.42597 0.0
N1044 N 0.31407 0.20348 0.35661 0.0
N1045 N 0.59701 0.20262 0.40384 0.0
H1046 H 0.61756 0.06756 0.43856 0.0
H1047 H 0.18055 0.06884 0.3311 0.0
H1048 H 0.14683 0.06939 0.43938 0.0
H1049 H 0.65062 0.06973 0.33034 0.0
H1050 H 0.17149 0.06737 0.3709 0.0
H1051 H 0.62708 0.06659 0.39869 0.0
C1052 C 0.73544 0.06767 0.43039 0.0
C1053 C 0.88125 0.06866 0.44229 0.0
C1054 C 0.05729 0.06785 0.36196 0.0
C1055 C 0.89357 0.06758 0.39685 0.0
C1056 C 0.06266 0.06868 0.33927 0.0
C1057 C 0.91647 0.0695 0.32739 0.0
C1058 C 0.90466 0.0678 0.37277 0.0
C1059 C 0.76677 0.06922 0.33881 0.0
C1060 C 0.74106 0.06715 0.40765 0.0
C1061 C 0.03096 0.06876 0.43087 0.0
N1062 N 0.76481 0.06843 0.36081 0.0
N1063 N 0.03316 0.06828 0.40884 0.0
H1064 H 0.41073 0.9488 0.06964 0.0
H1065 H 0.87195 0.94862 0.18415 0.0
H1066 H 0.93819 0.95009 0.07577 0.0
H1067 H 0.34431 0.94932 0.17787 0.0
H1068 H 0.89791 0.9494 0.14479 0.0
H1069 H 0.38527 0.94927 0.109 0.0
C1070 C 0.52189 0.9492 0.07925 0.0
C1071 C 0.6774 0.94935 0.06925 0.0
C1072 C 0.77634 0.94942 0.15194 0.0
C1073 C 0.64798 0.94987 0.11477 0.0
C1074 C 0.76089 0.94895 0.17451 0.0
C1075 C 0.60516 0.94885 0.18447 0.0
C1076 C 0.63517 0.94975 0.13898 0.0
C1077 C 0.46664 0.94936 0.17098 0.0
C1078 C 0.50672 0.94948 0.10183 0.0
C1079 C 0.81602 0.94994 0.08271 0.0
N1080 N 0.48496 0.94974 0.14892 0.0
N1081 N 0.79802 0.95013 0.10479 0.0
H1082 H 0.84811 0.82009 0.07597 0.0
H1083 H 0.43546 0.81676 0.18068 0.0
H1084 H 0.37176 0.81476 0.07248 0.0
H1085 H 0.91684 0.82409 0.1835 0.0
H1086 H 0.41358 0.81511 0.14099 0.0
H1087 H 0.86819 0.82046 0.11576 0.0
C1088 C 0.9668 0.81893 0.08355 0.0
C1089 C 0.10834 0.81746 0.07089 0.0
C1090 C 0.30473 0.81708 0.15036 0.0
C1091 C 0.13284 0.81794 0.11626 0.0
C1092 C 0.31745 0.81803 0.17298 0.0
C1093 C 0.17818 0.8206 0.18543 0.0
C1094 C 0.15162 0.81867 0.14021 0.0
C1095 C 0.02792 0.82213 0.17461 0.0
C1096 C 0.97855 0.81918 0.10624 0.0
C1097 C 0.2593 0.816 0.08157 0.0
N1098 N 0.01874 0.82114 0.15268 0.0
N1099 N 0.26761 0.81631 0.10359 0.0
H1100 H 0.87227 0.8176 0.68246 0.0
H1101 H 0.30608 0.8202 0.57566 0.0
H1102 H 0.34711 0.8225 0.6838 0.0
H1103 H 0.83365 0.81672 0.57419 0.0
H1104 H 0.31636 0.82001 0.61554 0.0
H1105 H 0.85973 0.81637 0.64267 0.0
C1106 C 0.75468 0.81841 0.67442 0.0
C1107 C 0.6109 0.82019 0.68647 0.0
C1108 C 0.42972 0.81925 0.60644 0.0
C1109 C 0.59508 0.81877 0.6411 0.0
C1110 C 0.42361 0.81933 0.5837 0.0
C1111 C 0.56904 0.81855 0.57159 0.0
C1112 C 0.58228 0.81837 0.61705 0.0
C1113 C 0.71827 0.81743 0.58284 0.0
C1114 C 0.74732 0.8177 0.65173 0.0
C1115 C 0.46149 0.82116 0.67521 0.0
N1116 N 0.72103 0.81741 0.60489 0.0
N1117 N 0.45756 0.82044 0.65321 0.0
H1118 H 0.04474 0.934 0.57894 0.0
H1119 H 0.29098 0.96869 0.68485 0.0
H1120 H 0.41677 0.9593 0.57818 0.0
H1121 H 0.92833 0.94275 0.68444 0.0
H1122 H 0.3373 0.96567 0.64601 0.0
H1123 H 0.0063 0.93699 0.61773 0.0
C1124 C 0.11995 0.94013 0.58701 0.0
C1125 C 0.23418 0.94643 0.57523 0.0
C1126 C 0.2471 0.96068 0.65438 0.0
C1127 C 0.18863 0.95002 0.61993 0.0
C1128 C 0.2196 0.96243 0.67658 0.0
C1129 C 0.10537 0.95595 0.68804 0.0
C1130 C 0.15989 0.95238 0.64345 0.0
C1131 C 0.01726 0.94796 0.67636 0.0
C1132 C 0.09724 0.94186 0.60921 0.0
C1133 C 0.32818 0.95422 0.58663 0.0
N1134 N 0.04685 0.94638 0.65478 0.0
N1135 N 0.30247 0.95585 0.60835 0.0
H1136 H 0.13893 0.56707 0.43769 0.0
H1137 H 0.70917 0.56758 0.33078 0.0
H1138 H 0.66475 0.57147 0.43869 0.0
H1139 H 0.17951 0.5666 0.32914 0.0
H1140 H 0.69707 0.56734 0.37066 0.0
H1141 H 0.15215 0.56518 0.39792 0.0
C1142 C 0.25686 0.56757 0.42959 0.0
C1143 C 0.40048 0.56952 0.44151 0.0
C1144 C 0.58358 0.56714 0.36152 0.0
C1145 C 0.41703 0.56737 0.39619 0.0
C1146 C 0.5907 0.56727 0.33877 0.0
C1147 C 0.44541 0.5672 0.3266 0.0
C1148 C 0.43012 0.56691 0.37211 0.0
C1149 C 0.29495 0.56676 0.33783 0.0
C1150 C 0.26456 0.56652 0.40692 0.0
C1151 C 0.55035 0.57009 0.43018 0.0
N1152 N 0.29125 0.56666 0.35989 0.0
N1153 N 0.55458 0.56905 0.40822 0.0
H1154 H 0.06231 0.70689 0.3258 0.0
H1155 H 0.66813 0.68294 0.43425 0.0
H1156 H 0.58173 0.692 0.32808 0.0
H1157 H 0.08098 0.70526 0.43486 0.0
H1158 H 0.6451 0.68534 0.39515 0.0
H1159 H 0.07745 0.70593 0.36535 0.0
C1160 C 0.95907 0.70349 0.33466 0.0
C1161 C 0.8207 0.69945 0.32362 0.0
C1162 C 0.74072 0.68973 0.40379 0.0
C1163 C 0.83859 0.69821 0.36898 0.0
C1164 C 0.75506 0.68831 0.42616 0.0
C1165 C 0.87713 0.69391 0.43794 0.0
C1166 C 0.85015 0.69671 0.39289 0.0
C1167 C 0.98545 0.70076 0.42645 0.0
C1168 C 0.96803 0.70296 0.35726 0.0
C1169 C 0.69045 0.69522 0.33595 0.0
N1170 N 0.96967 0.70195 0.40452 0.0
N1171 N 0.70336 0.6946 0.35799 0.0
H1172 H 0.56806 0.70397 0.9358 0.0
H1173 H 0.03636 0.69113 0.82887 0.0
H1174 H 0.14766 0.6823 0.9349 0.0
H1175 H 0.52406 0.70496 0.82685 0.0
H1176 H 0.05626 0.6902 0.8687 0.0
H1177 H 0.53944 0.70638 0.89632 0.0
C1178 C 0.47067 0.69968 0.92733 0.0
C1179 C 0.36076 0.69289 0.93869 0.0
C1180 C 0.15844 0.69349 0.85949 0.0
C1181 C 0.32518 0.69578 0.89374 0.0
C1182 C 0.14646 0.69409 0.83681 0.0
C1183 C 0.27912 0.69803 0.82456 0.0
C1184 C 0.30336 0.69697 0.86991 0.0
C1185 C 0.41938 0.70175 0.83566 0.0
C1186 C 0.45388 0.70109 0.90484 0.0
C1187 C 0.23594 0.68759 0.92687 0.0
N1188 N 0.42801 0.7011 0.85766 0.0
N1189 N 0.22119 0.68918 0.90512 0.0
H1190 H 0.7082 0.55663 0.83076 0.0
H1191 H 0.05908 0.58753 0.93492 0.0
H1192 H 0.16572 0.57452 0.83034 0.0
H1193 H 0.68126 0.56265 0.93907 0.0
H1194 H 0.08874 0.58365 0.89628 0.0
H1195 H 0.69022 0.55913 0.87004 0.0
C1196 C 0.80602 0.561 0.839 0.0
C1197 C 0.93847 0.56543 0.82726 0.0
C1198 C 0.99936 0.57903 0.9056 0.0
C1199 C 0.91702 0.56846 0.87228 0.0
C1200 C 0.9811 0.58129 0.92769 0.0
C1201 C 0.86697 0.57541 0.94033 0.0
C1202 C 0.90173 0.5709 0.89587 0.0
C1203 C 0.77031 0.56741 0.92997 0.0
C1204 C 0.79543 0.56242 0.86144 0.0
C1205 C 0.06188 0.57096 0.83878 0.0
N1206 N 0.7896 0.56541 0.90831 0.0
N1207 N 0.04717 0.57243 0.86067 0.0
H1208 H 0.35155 0.44694 0.57602 0.0
H1209 H 0.83951 0.44186 0.68788 0.0
H1210 H 0.88062 0.44749 0.58017 0.0
H1211 H 0.31231 0.44513 0.68431 0.0
H1212 H 0.85595 0.44353 0.64857 0.0
H1213 H 0.3353 0.44587 0.61542 0.0
C1214 C 0.46487 0.44683 0.58521 0.0
C1215 C 0.61815 0.44728 0.57471 0.0
C1216 C 0.73658 0.4439 0.65632 0.0
C1217 C 0.59949 0.44605 0.6201 0.0
C1218 C 0.72663 0.44292 0.67883 0.0
C1219 C 0.57379 0.44331 0.68946 0.0
C1220 C 0.59265 0.44523 0.64417 0.0
C1221 C 0.4325 0.44477 0.6768 0.0
C1222 C 0.45505 0.44624 0.60778 0.0
C1223 C 0.76006 0.44714 0.58756 0.0
N1224 N 0.44534 0.44564 0.65478 0.0
N1225 N 0.74726 0.44651 0.60962 0.0
H1226 H 0.30293 0.32816 0.57605 0.0
H1227 H 0.87402 0.30684 0.68496 0.0
H1228 H 0.80783 0.31552 0.57818 0.0
H1229 H 0.37448 0.31843 0.68226 0.0
H1230 H 0.851 0.30938 0.64584 0.0
H1231 H 0.33168 0.3244 0.61466 0.0
C1232 C 0.19949 0.32462 0.58465 0.0
C1233 C 0.05219 0.32217 0.57378 0.0
C1234 C 0.96628 0.31131 0.65371 0.0
C1235 C 0.0855 0.31778 0.61829 0.0
C1236 C 0.97995 0.30985 0.6761 0.0
C1237 C 0.12643 0.31249 0.68697 0.0
C1238 C 0.09981 0.3155 0.64196 0.0
C1239 C 0.25941 0.31628 0.67457 0.0
C1240 C 0.21662 0.32245 0.60676 0.0
C1241 C 0.92325 0.31758 0.58588 0.0
N1242 N 0.2425 0.31775 0.65272 0.0
N1243 N 0.94294 0.31554 0.60751 0.0
H1244 H 0.26649 0.32311 0.08093 0.0
H1245 H 0.88573 0.32063 0.18249 0.0
H1246 H 0.79468 0.3232 0.07481 0.0
H1247 H 0.36144 0.32491 0.18881 0.0
H1248 H 0.85456 0.32087 0.1428 0.0
H1249 H 0.29727 0.32293 0.12067 0.0
C1250 C 0.38849 0.32308 0.08791 0.0
C1251 C 0.52788 0.3232 0.07452 0.0
C1252 C 0.74652 0.32178 0.15292 0.0
C1253 C 0.56443 0.32298 0.11981 0.0
C1254 C 0.76453 0.32166 0.17556 0.0
C1255 C 0.62633 0.32276 0.18901 0.0
C1256 C 0.58915 0.32295 0.14373 0.0
C1257 C 0.47181 0.32404 0.17913 0.0
C1258 C 0.40624 0.323 0.11057 0.0
C1259 C 0.68335 0.32315 0.08445 0.0
N1260 N 0.45744 0.32407 0.15715 0.0
N1261 N 0.6973 0.32304 0.10642 0.0
H1262 H 0.79998 0.4512 0.18474 0.0
H1263 H 0.41147 0.44786 0.0821 0.0
H1264 H 0.30178 0.43983 0.18838 0.0
H1265 H 0.90064 0.4571 0.07757 0.0
H1266 H 0.37856 0.44598 0.12161 0.0
H1267 H 0.83681 0.45418 0.14555 0.0
C1268 C 0.91731 0.4493 0.17732 0.0
C1269 C 0.04757 0.44524 0.18987 0.0
C1270 C 0.27394 0.44847 0.11193 0.0
C1271 C 0.09149 0.44872 0.1452 0.0
C1272 C 0.29314 0.44959 0.08941 0.0
C1273 C 0.15862 0.45257 0.07649 0.0
C1274 C 0.11927 0.45036 0.12154 0.0
C1275 C 0.0077 0.45469 0.08684 0.0
C1276 C 0.93868 0.45103 0.15498 0.0
C1277 C 0.19748 0.44295 0.17939 0.0
N1278 N 0.99203 0.45351 0.10868 0.0
N1279 N 0.21526 0.44474 0.15774 0.0
H1280 H 0.81679 0.16242 0.01449 0.0
H1281 H 0.43496 0.11056 0.01426 0.0
H1282 H 0.34505 0.16525 0.01345 0.0
H1283 H 0.90696 0.10755 0.01555 0.0
H1284 H 0.4046 0.1307 0.01523 0.0
H1285 H 0.84628 0.14225 0.0162 0.0
C1286 C 0.93858 0.15883 0.01471 0.0
C1287 C 0.07832 0.16555 0.01372 0.0
C1288 C 0.29545 0.12562 0.01537 0.0
C1289 C 0.11343 0.14254 0.01563 0.0
C1290 C 0.31299 0.11411 0.01483 0.0
C1291 C 0.17362 0.10734 0.01474 0.0
C1292 C 0.13743 0.13036 0.01581 0.0
C1293 C 0.01826 0.11242 0.0155 0.0
C1294 C 0.9556 0.14732 0.01566 0.0
C1295 C 0.23343 0.16043 0.01407 0.0
N1296 N 0.00446 0.12359 0.01595 0.0
N1297 N 0.24664 0.14927 0.01493 0.0
H1298 H 0.50692 0.15847 0.25453 0.0
H1299 H 0.8201 0.11094 0.2582 0.0
H1300 H 0.98788 0.16513 0.26042 0.0
H1301 H 0.34233 0.10489 0.25542 0.0
H1302 H 0.87585 0.13088 0.25806 0.0
H1303 H 0.44665 0.13869 0.25408 0.0
C1304 C 0.3805 0.15578 0.25576 0.0
C1305 C 0.25254 0.16346 0.25754 0.0
C1306 C 0.9779 0.12515 0.25747 0.0
C1307 C 0.18209 0.14086 0.25695 0.0
C1308 C 0.94596 0.11379 0.25751 0.0
C1309 C 0.07648 0.10623 0.25689 0.0
C1310 C 0.14131 0.12893 0.25674 0.0
C1311 C 0.23744 0.11038 0.25601 0.0
C1312 C 0.34588 0.14449 0.25548 0.0
C1313 C 0.09069 0.1595 0.25905 0.0
N1314 N 0.26506 0.1214 0.25598 0.0
N1315 N 0.06011 0.14849 0.2587 0.0
H1316 H 0.22806 0.85841 0.9976 0.0
H1317 H 0.59931 0.90971 1.0008 0.0
H1318 H 0.70472 0.85533 0.00701 0.0
H1319 H 0.1247 0.91332 0.99491 0.0
H1320 H 0.63544 0.88962 1.00173 0.0
H1321 H 0.19391 0.87856 0.99545 0.0
C1322 C 0.10645 0.86195 0.99923 0.0
C1323 C 0.96944 0.85515 1.00252 0.0
C1324 C 0.7428 0.89482 1.0002 0.0
C1325 C 0.92899 0.87812 1.0 0.0
C1326 C 0.72193 0.90629 0.99963 0.0
C1327 C 0.85888 0.91323 0.99784 0.0
C1328 C 0.90174 0.89025 0.99895 0.0
C1329 C 0.01524 0.90832 0.99639 0.0
C1330 C 0.08678 0.87343 0.99799 0.0
C1331 C 0.81441 0.86019 1.00449 0.0
N1332 N 0.03233 0.89717 0.997 0.0
N1333 N 0.7986 0.87132 1.00319 0.0
H1334 H 0.49582 0.85924 0.75782 0.0
H1335 H 0.15122 0.90874 0.76312 0.0
H1336 H 0.02046 0.85476 0.76262 0.0
H1337 H 0.62933 0.91398 0.75655 0.0
H1338 H 0.10244 0.88884 0.76438 0.0
H1339 H 0.538 0.87934 0.75887 0.0
C1340 C 0.61933 0.86246 0.75919 0.0
C1341 C 0.75458 0.8553 0.76002 0.0
C1342 C 0.99842 0.89434 0.7627 0.0
C1343 C 0.80398 0.87819 0.76119 0.0
C1344 C 0.02647 0.90572 0.76199 0.0
C1345 C 0.89447 0.91305 0.75966 0.0
C1346 C 0.83715 0.89026 0.76109 0.0
C1347 C 0.73511 0.90864 0.75829 0.0
C1348 C 0.64354 0.87392 0.75975 0.0
C1349 C 0.91217 0.85993 0.76179 0.0
N1350 N 0.71097 0.89755 0.75899 0.0
N1351 N 0.9323 0.87103 0.76226 0.0
H1352 H 0.2915 0.66605 0.51947 0.0
H1353 H 0.93233 0.60523 0.50362 0.0
H1354 H 0.77656 0.6593 0.50975 0.0
H1355 H 0.44626 0.6121 0.51398 0.0
H1356 H 0.87284 0.62488 0.5063 0.0
H1357 H 0.34829 0.64635 0.51843 0.0
C1358 C 0.18974 0.66042 0.51721 0.0
C1359 C 0.02867 0.66437 0.5146 0.0
C1360 C 0.99866 0.62212 0.50798 0.0
C1361 C 0.09395 0.64166 0.51329 0.0
C1362 C 0.0332 0.61087 0.50642 0.0
C1363 C 0.19503 0.60698 0.50855 0.0
C1364 C 0.12666 0.6296 0.51171 0.0
C1365 C 0.31992 0.61471 0.51218 0.0
C1366 C 0.22271 0.64914 0.5166 0.0
C1367 C 0.90241 0.65664 0.51184 0.0
N1368 N 0.28305 0.62566 0.51364 0.0
N1369 N 0.93789 0.64565 0.51116 0.0
H1370 H 0.40666 0.65716 0.75151 0.0
H1371 H 0.79664 0.60494 0.75222 0.0
H1372 H 0.87815 0.65986 0.75105 0.0
H1373 H 0.32528 0.60238 0.75327 0.0
H1374 H 0.82304 0.62512 0.75059 0.0
H1375 H 0.37953 0.63699 0.75094 0.0
C1376 C 0.28526 0.65353 0.75122 0.0
C1377 C 0.1448 0.66024 0.7514 0.0
C1378 C 0.93313 0.62011 0.75113 0.0
C1379 C 0.11231 0.63718 0.75079 0.0
C1380 C 0.91787 0.6086 0.75204 0.0
C1381 C 0.0586 0.60193 0.75296 0.0
C1382 C 0.0902 0.62498 0.75112 0.0
C1383 C 0.21291 0.60715 0.75268 0.0
C1384 C 0.26956 0.64202 0.75092 0.0
C1385 C 0.99025 0.65505 0.751 0.0
N1386 N 0.22442 0.61832 0.75183 0.0
N1387 N 0.97826 0.64388 0.75077 0.0
H1388 H 0.49955 0.41277 0.50183 0.0
H1389 H 0.13405 0.36186 0.49755 0.0
H1390 H 0.0228 0.41623 0.49293 0.0
H1391 H 0.6094 0.35795 0.50386 0.0
H1392 H 0.09433 0.38188 0.49508 0.0
H1393 H 0.53434 0.3926 0.50149 0.0
C1394 C 0.62112 0.40931 0.49964 0.0
C1395 C 0.75826 0.41622 0.49754 0.0
C1396 C 0.98787 0.37663 0.49695 0.0
C1397 C 0.79953 0.39322 0.4973 0.0
C1398 C 0.01078 0.36519 0.49839 0.0
C1399 C 0.87523 0.3582 0.50097 0.0
C1400 C 0.82829 0.3811 0.49815 0.0
C1401 C 0.71793 0.363 0.50192 0.0
C1402 C 0.64124 0.39781 0.49951 0.0
C1403 C 0.91327 0.41126 0.49477 0.0
N1404 N 0.69892 0.37412 0.50057 0.0
N1405 N 0.9296 0.40012 0.49483 0.0
H1406 H 0.50832 0.3557 0.26332 0.0
H1407 H 0.13176 0.40697 0.26817 0.0
H1408 H 0.03016 0.35263 0.27397 0.0
H1409 H 0.60652 0.41053 0.26186 0.0
H1410 H 0.09531 0.38695 0.27128 0.0
H1411 H 0.53832 0.37588 0.26415 0.0
C1412 C 0.62849 0.35925 0.26605 0.0
C1413 C 0.76685 0.35246 0.2684 0.0
C1414 C 0.98799 0.39213 0.26929 0.0
C1415 C 0.80272 0.37546 0.26916 0.0
C1416 C 0.00904 0.40356 0.26749 0.0
C1417 C 0.87236 0.41044 0.26467 0.0
C1418 C 0.82919 0.38757 0.26821 0.0
C1419 C 0.71582 0.40556 0.26394 0.0
C1420 C 0.6459 0.37076 0.26644 0.0
C1421 C 0.91997 0.35752 0.27186 0.0
N1422 N 0.69864 0.39445 0.26562 0.0
N1423 N 0.9338 0.36866 0.272 0.0
H1424 H 0.44088 0.10582 0.505 0.0
H1425 H 0.86379 0.16521 0.51106 0.0
H1426 H 0.96343 0.11069 0.51146 0.0
H1427 H 0.33898 0.16067 0.50729 0.0
H1428 H 0.90065 0.14532 0.51116 0.0
H1429 H 0.40097 0.12574 0.50559 0.0
C1430 C 0.54772 0.11108 0.50652 0.0
C1431 C 0.70622 0.10653 0.50817 0.0
C1432 C 0.77726 0.14863 0.51034 0.0
C1433 C 0.66041 0.12948 0.50887 0.0
C1434 C 0.75565 0.16003 0.51027 0.0
C1435 C 0.59759 0.16467 0.50911 0.0
C1436 C 0.64002 0.14169 0.50919 0.0
C1437 C 0.46292 0.15748 0.5082 0.0
C1438 C 0.52439 0.12248 0.50688 0.0
C1439 C 0.83924 0.1138 0.51013 0.0
N1440 N 0.48727 0.14634 0.50821 0.0
N1441 N 0.81327 0.12491 0.51041 0.0
H1442 H 0.82939 0.09952 0.75147 0.0
H1443 H 0.39666 0.15871 0.74967 0.0
H1444 H 0.30283 0.1036 0.75302 0.0
H1445 H 0.92162 0.15379 0.74978 0.0
H1446 H 0.35784 0.13874 0.74923 0.0
H1447 H 0.86157 0.11935 0.74914 0.0
C1448 C 0.71973 0.10458 0.7513 0.0
C1449 C 0.56266 0.09982 0.75258 0.0
C1450 C 0.48147 0.14202 0.74928 0.0
C1451 C 0.59985 0.12279 0.7499 0.0
C1452 C 0.50416 0.15344 0.74952 0.0
C1453 C 0.66309 0.15797 0.74983 0.0
C1454 C 0.61859 0.13502 0.74936 0.0
C1455 C 0.79704 0.1507 0.74957 0.0
C1456 C 0.73871 0.11597 0.74994 0.0
C1457 C 0.42609 0.10689 0.7521 0.0
N1458 N 0.77166 0.13959 0.74941 0.0
N1459 N 0.44788 0.11805 0.75089 0.0
H1460 H 0.08842 0.91157 0.50357 0.0
H1461 H 0.7048 0.85963 0.49838 0.0
H1462 H 0.61262 0.91446 0.49488 0.0
H1463 H 0.18112 0.85688 0.50784 0.0
H1464 H 0.67385 0.87978 0.49635 0.0
H1465 H 0.11872 0.89141 0.50407 0.0
C1466 C 0.20942 0.90798 0.50164 0.0
C1467 C 0.34792 0.91474 0.49926 0.0
C1468 C 0.56584 0.87474 0.49886 0.0
C1469 C 0.38415 0.8917 0.49994 0.0
C1470 C 0.58374 0.86324 0.50006 0.0
C1471 C 0.44573 0.85653 0.50331 0.0
C1472 C 0.40884 0.87954 0.50091 0.0
C1473 C 0.29146 0.86169 0.50533 0.0
C1474 C 0.22699 0.89648 0.50199 0.0
C1475 C 0.50209 0.90961 0.49686 0.0
N1476 N 0.27735 0.87283 0.5041 0.0
N1477 N 0.51597 0.89844 0.49732 0.0
H1478 H 0.69145 0.9096 0.2592 0.0
H1479 H 0.06187 0.85858 0.2579 0.0
H1480 H 0.16431 0.91314 0.25645 0.0
H1481 H 0.58895 0.85501 0.26067 0.0
H1482 H 0.0961 0.87869 0.25865 0.0
H1483 H 0.65662 0.88951 0.26095 0.0
C1484 C 0.56875 0.90617 0.25901 0.0
C1485 C 0.43092 0.91307 0.25759 0.0
C1486 C 0.20413 0.87348 0.25916 0.0
C1487 C 0.38973 0.89015 0.25958 0.0
C1488 C 0.18439 0.86201 0.25876 0.0
C1489 C 0.32248 0.8551 0.25913 0.0
C1490 C 0.36302 0.87804 0.25993 0.0
C1491 C 0.47867 0.86 0.26025 0.0
C1492 C 0.54869 0.89471 0.26001 0.0
C1493 C 0.27448 0.90817 0.25744 0.0
N1494 N 0.49461 0.87114 0.26055 0.0
N1495 N 0.25828 0.89704 0.25837 0.0
H1496 H 0.26034 0.65833 0.01669 0.0
H1497 H 0.95933 0.61145 0.018 0.0
H1498 H 0.78045 0.6651 0.01818 0.0
H1499 H 0.43973 0.60447 0.01858 0.0
H1500 H 0.89578 0.63122 0.01937 0.0
H1501 H 0.32224 0.63852 0.01872 0.0
C1502 C 0.38714 0.65567 0.01757 0.0
C1503 C 0.51513 0.6634 0.01716 0.0
C1504 C 0.79572 0.62535 0.01928 0.0
C1505 C 0.58718 0.64079 0.01939 0.0
C1506 C 0.83217 0.61406 0.01852 0.0
C1507 C 0.70494 0.60629 0.01808 0.0
C1508 C 0.63088 0.62888 0.01957 0.0
C1509 C 0.54212 0.61016 0.0188 0.0
C1510 C 0.42262 0.64437 0.01869 0.0
C1511 C 0.67745 0.65947 0.01832 0.0
N1512 N 0.50989 0.62115 0.01942 0.0
N1513 N 0.70864 0.64848 0.0193 0.0
H1514 H 0.94282 0.65801 0.2504 0.0
H1515 H 0.32502 0.6063 0.25213 0.0
H1516 H 0.41463 0.66104 0.25131 0.0
H1517 H 0.85327 0.6033 0.25192 0.0
H1518 H 0.35468 0.62644 0.25054 0.0
H1519 H 0.91287 0.63786 0.24967 0.0
C1520 C 0.8209 0.65446 0.25038 0.0
C1521 C 0.68134 0.66123 0.251 0.0
C1522 C 0.46399 0.62135 0.25079 0.0
C1523 C 0.6457 0.63823 0.25019 0.0
C1524 C 0.44687 0.60986 0.25168 0.0
C1525 C 0.58657 0.60309 0.25225 0.0
C1526 C 0.62187 0.62608 0.25045 0.0
C1527 C 0.74176 0.60816 0.25161 0.0
C1528 C 0.80362 0.64296 0.24998 0.0
C1529 C 0.52605 0.65617 0.25093 0.0
N1530 N 0.75511 0.61932 0.2508 0.0
N1531 N 0.51253 0.64501 0.25059 0.0
H1532 H 0.56571 0.41537 0.01285 0.0
H1533 H 0.11013 0.35772 0.99605 0.0
H1534 H 0.04437 0.41264 1.00149 0.0
H1535 H 0.633 0.36072 1.00571 0.0
H1536 H 0.0848 0.37771 0.99716 0.0
H1537 H 0.59162 0.39548 0.00978 0.0
C1538 C 0.45595 0.41059 0.00973 0.0
C1539 C 0.30204 0.41574 0.00747 0.0
C1540 C 0.20524 0.37403 0.99896 0.0
C1541 C 0.33204 0.39276 1.00388 0.0
C1542 C 0.22027 0.36258 0.99832 0.0
C1543 C 0.37429 0.35749 1.0009 0.0
C1544 C 0.34511 0.38053 1.00225 0.0
C1545 C 0.51202 0.36427 1.00366 0.0
C1546 C 0.47141 0.39919 0.00794 0.0
C1547 C 0.16519 0.40904 1.00339 0.0
N1548 N 0.494 0.37545 1.00437 0.0
N1549 N 0.18343 0.39788 1.00176 0.0
H1550 H 0.65958 0.40335 0.75807 0.0
H1551 H 0.01318 0.35316 0.76085 0.0
H1552 H 0.13573 0.40785 0.76424 0.0
H1553 H 0.53514 0.3492 0.75117 0.0
H1554 H 0.05437 0.37323 0.76333 0.0
H1555 H 0.61653 0.38333 0.75703 0.0
C1556 C 0.53589 0.40014 0.7593 0.0
C1557 C 0.40137 0.40731 0.76117 0.0
C1558 C 0.15963 0.36793 0.76066 0.0
C1559 C 0.35056 0.38442 0.75992 0.0
C1560 C 0.13591 0.35648 0.75922 0.0
C1561 C 0.27048 0.34946 0.75576 0.0
C1562 C 0.319 0.37234 0.75868 0.0
C1563 C 0.42718 0.35425 0.75382 0.0
C1564 C 0.51104 0.38871 0.75865 0.0
C1565 C 0.24342 0.40267 0.76269 0.0
N1566 N 0.44689 0.36533 0.75531 0.0
N1567 N 0.22246 0.39155 0.76199 0.0
loop_
_geom_bond_atom_site_label_1
_geom_bond_atom_site_label_2
_geom_bond_distance
_geom_bond_site_symmetry_2
_ccdc_geom_bond_type
Mg0 O7 2.141 . S
Mg0 O8 2.103 . S
Mg0 O9 2.047 . S
Mg0 O12 2.086 1_556 S
C1 O2 1.313 . S
C1 O8 1.195 . S
O2 C1 1.313 . S
C3 O4 1.245 . S
C3 O12 1.289 . S
O4 C3 1.245 . S
C5 O6 1.245 . S
C5 O7 1.289 1_554 S
O6 C5 1.245 . S
O7 Mg0 2.141 . S
O7 C5 1.289 1_556 S
O8 Mg0 2.103 . S
O8 C1 1.195 . S
O9 Mg0 2.047 . S
O9 C10 1.196 . S
C10 O9 1.196 . S
C10 O11 1.313 . S
O11 C10 1.313 . S
O12 Mg0 2.086 1_554 S
O12 C3 1.289 . S
Mg13 O20 2.141 1_455 S
Mg13 O21 2.103 . S
Mg13 O22 2.047 . S
Mg13 O25 2.086 1_556 S
C14 O15 1.313 . S
C14 O21 1.195 1_655 S
O15 C14 1.313 . S
C16 O17 1.245 . S
C16 O25 1.289 1_655 S
O17 C16 1.245 . S
C18 O19 1.245 . S
C18 O20 1.290 1_554 S
O19 C18 1.245 . S
O20 Mg13 2.141 1_655 S
O20 C18 1.290 1_556 S
O21 Mg13 2.103 . S
O21 C14 1.195 1_455 S
O22 Mg13 2.047 . S
O22 C23 1.196 . S
C23 O22 1.196 . S
C23 O24 1.313 1_455 S
O24 C23 1.313 1_655 S
O25 Mg13 2.086 1_554 S
O25 C16 1.289 1_455 S
Mg26 O33 2.141 . S
Mg26 O34 2.048 . S
Mg26 O35 2.048 . S
Mg26 O38 2.141 . S
C27 O28 1.313 . S
C27 O34 1.195 . S
O28 C27 1.313 . S
C29 O30 1.245 . S
C29 O38 1.289 . S
O30 C29 1.245 . S
C31 O32 1.245 . S
C31 O33 1.289 . S
O32 C31 1.245 . S
O33 Mg26 2.141 . S
O33 C31 1.289 . S
O34 Mg26 2.048 . S
O34 C27 1.195 . S
O35 Mg26 2.048 . S
O35 C36 1.195 . S
C36 O35 1.195 . S
C36 O37 1.313 . S
O37 C36 1.313 . S
O38 Mg26 2.141 . S
O38 C29 1.289 . S
Mg39 O46 2.141 1_455 S
Mg39 O47 2.048 1_455 S
Mg39 O48 2.048 . S
Mg39 O51 2.141 . S
C40 O41 1.313 . S
C40 O47 1.195 . S
O41 C40 1.313 . S
C42 O43 1.245 . S
C42 O51 1.289 1_655 S
O43 C42 1.245 . S
C44 O45 1.245 . S
C44 O46 1.289 . S
O45 C44 1.245 . S
O46 Mg39 2.141 1_655 S
O46 C44 1.289 . S
O47 Mg39 2.048 1_655 S
O47 C40 1.195 . S
O48 Mg39 2.048 . S
O48 C49 1.191 1_455 S
C49 O48 1.191 1_655 S
C49 O50 1.320 . S
O50 C49 1.320 . S
O51 Mg39 2.141 . S
O51 C42 1.289 1_455 S
Mg52 O59 2.141 . S
Mg52 O60 2.048 1_556 S
Mg52 O61 2.048 . S
Mg52 O64 2.141 . S
C53 O54 1.313 . S
C53 O60 1.195 . S
O54 C53 1.313 . S
C55 O56 1.245 . S
C55 O64 1.289 . S
O56 C55 1.245 . S
C57 O58 1.252 . S
C57 O59 1.284 1_554 S
O58 C57 1.252 . S
O59 Mg52 2.141 . S
O59 C57 1.284 1_556 S
O60 Mg52 2.048 1_554 S
O60 C53 1.195 . S
O61 Mg52 2.048 . S
O61 C62 1.195 1_556 S
C62 O61 1.195 1_554 S
C62 O63 1.313 . S
O63 C62 1.313 . S
O64 Mg52 2.141 . S
O64 C55 1.289 . S
Mg65 O72 2.141 . S
Mg65 O73 2.048 1_556 S
Mg65 O74 2.048 . S
Mg65 O77 2.141 . S
C66 O67 1.313 1_455 S
C66 O73 1.195 . S
O67 C66 1.313 1_655 S
C68 O69 1.245 . S
C68 O77 1.289 1_655 S
O69 C68 1.245 . S
C70 O71 1.252 1_455 S
C70 O72 1.284 1_554 S
O71 C70 1.252 1_655 S
O72 Mg65 2.141 . S
O72 C70 1.284 1_556 S
O73 Mg65 2.048 1_554 S
O73 C66 1.195 . S
O74 Mg65 2.048 . S
O74 C75 1.195 1_456 S
C75 O74 1.195 1_654 S
C75 O76 1.313 . S
O76 C75 1.313 . S
O77 Mg65 2.141 . S
O77 C68 1.289 1_455 S
Mg78 O85 2.141 . S
Mg78 O86 2.048 . S
Mg78 O87 2.048 . S
Mg78 O90 2.141 . S
C79 O80 1.313 . S
C79 O86 1.195 . S
O80 C79 1.313 . S
C81 O82 1.245 . S
C81 O90 1.289 . S
O82 C81 1.245 . S
C83 O84 1.245 . S
C83 O85 1.289 . S
O84 C83 1.245 . S
O85 Mg78 2.141 . S
O85 C83 1.289 . S
O86 Mg78 2.048 . S
O86 C79 1.195 . S
O87 Mg78 2.048 . S
O87 C88 1.195 . S
C88 O87 1.195 . S
C88 O89 1.313 . S
O89 C88 1.313 . S
O90 Mg78 2.141 . S
O90 C81 1.289 . S
Mg91 O98 2.141 . S
Mg91 O99 2.048 . S
Mg91 O100 2.048 . S
Mg91 O103 2.141 . S
C92 O93 1.313 1_455 S
C92 O99 1.195 . S
O93 C92 1.313 1_655 S
C94 O95 1.245 . S
C94 O103 1.289 1_655 S
O95 C94 1.245 . S
C96 O97 1.245 1_455 S
C96 O98 1.289 . S
O97 C96 1.245 1_655 S
O98 Mg91 2.141 . S
O98 C96 1.289 . S
O99 Mg91 2.048 . S
O99 C92 1.195 . S
O100 Mg91 2.048 . S
O100 C101 1.195 1_455 S
C101 O100 1.195 1_655 S
C101 O102 1.313 . S
O102 C101 1.313 . S
O103 Mg91 2.141 . S
O103 C94 1.289 1_455 S
Mg104 O111 2.141 . S
Mg104 O112 2.048 . S
Mg104 O113 2.048 . S
Mg104 O116 2.141 . S
C105 O106 1.313 . S
C105 O112 1.195 . S
O106 C105 1.313 . S
C107 O108 1.245 . S
C107 O116 1.289 . S
O108 C107 1.245 . S
C109 O110 1.245 . S
C109 O111 1.289 . S
O110 C109 1.245 . S
O111 Mg104 2.141 . S
O111 C109 1.289 . S
O112 Mg104 2.048 . S
O112 C105 1.195 . S
O113 Mg104 2.048 . S
O113 C114 1.195 . S
C114 O113 1.195 . S
C114 O115 1.313 . S
O115 C114 1.313 . S
O116 Mg104 2.141 . S
O116 C107 1.289 . S
Mg117 O124 2.141 1_455 S
Mg117 O125 2.047 1_455 S
Mg117 O126 2.048 . S
Mg117 O129 2.141 . S
C118 O119 1.313 . S
C118 O125 1.199 . S
O119 C118 1.313 . S
C120 O121 1.245 . S
C120 O129 1.289 1_655 S
O121 C120 1.245 . S
C122 O123 1.245 . S
C122 O124 1.289 . S
O123 C122 1.245 . S
O124 Mg117 2.141 1_655 S
O124 C122 1.289 . S
O125 Mg117 2.047 1_655 S
O125 C118 1.199 . S
O126 Mg117 2.048 . S
O126 C127 1.195 1_455 S
C127 O126 1.195 1_655 S
C127 O128 1.313 . S
O128 C127 1.313 . S
O129 Mg117 2.141 . S
O129 C120 1.289 1_455 S
Mg130 O137 2.141 . S
Mg130 O138 2.048 . S
Mg130 O139 2.048 . S
Mg130 O142 2.141 . S
C131 O132 1.313 . S
C131 O138 1.195 . S
O132 C131 1.313 . S
C133 O134 1.245 . S
C133 O142 1.289 . S
O134 C133 1.245 . S
C135 O136 1.245 . S
C135 O137 1.289 . S
O136 C135 1.245 . S
O137 Mg130 2.141 . S
O137 C135 1.289 . S
O138 Mg130 2.048 . S
O138 C131 1.195 . S
O139 Mg130 2.048 . S
O139 C140 1.195 . S
C140 O139 1.195 . S
C140 O141 1.313 . S
O141 C140 1.313 . S
O142 Mg130 2.141 . S
O142 C133 1.289 . S
Mg143 O150 2.141 . S
Mg143 O151 2.048 . S
Mg143 O152 2.048 . S
Mg143 O155 2.141 . S
C144 O145 1.313 . S
C144 O151 1.195 1_655 S
O145 C144 1.313 . S
C146 O147 1.245 . S
C146 O155 1.289 1_655 S
O147 C146 1.245 . S
C148 O149 1.245 . S
C148 O150 1.289 1_655 S
O149 C148 1.245 . S
O150 Mg143 2.141 . S
O150 C148 1.289 1_455 S
O151 Mg143 2.048 . S
O151 C144 1.195 1_455 S
O152 Mg143 2.048 . S
O152 C153 1.195 . S
C153 O152 1.195 . S
C153 O154 1.313 1_455 S
O154 C153 1.313 1_655 S
O155 Mg143 2.141 . S
O155 C146 1.289 1_455 S
Mg156 O163 2.141 . S
Mg156 O164 2.048 . S
Mg156 O165 2.048 . S
Mg156 O168 2.141 . S
C157 O158 1.313 . S
C157 O164 1.195 . S
O158 C157 1.313 . S
C159 O160 1.245 . S
C159 O168 1.289 . S
O160 C159 1.245 . S
C161 O162 1.245 . S
C161 O163 1.289 . S
O162 C161 1.245 . S
O163 Mg156 2.141 . S
O163 C161 1.289 . S
O164 Mg156 2.048 . S
O164 C157 1.195 . S
O165 Mg156 2.048 . S
O165 C166 1.195 . S
C166 O165 1.195 . S
C166 O167 1.313 . S
O167 C166 1.313 . S
O168 Mg156 2.141 . S
O168 C159 1.289 . S
Mg169 O176 2.141 . S
Mg169 O177 2.048 . S
Mg169 O178 2.048 . S
Mg169 O181 2.141 . S
C170 O171 1.313 1_455 S
C170 O177 1.195 . S
O171 C170 1.313 1_655 S
C172 O173 1.245 . S
C172 O181 1.289 1_655 S
O173 C172 1.245 . S
C174 O175 1.245 1_455 S
C174 O176 1.289 . S
O175 C174 1.245 1_655 S
O176 Mg169 2.141 . S
O176 C174 1.289 . S
O177 Mg169 2.048 . S
O177 C170 1.195 . S
O178 Mg169 2.048 . S
O178 C179 1.195 1_455 S
C179 O178 1.195 1_655 S
C179 O180 1.313 . S
O180 C179 1.313 . S
O181 Mg169 2.141 . S
O181 C172 1.289 1_455 S
Mg182 O189 2.141 . S
Mg182 O190 2.048 . S
Mg182 O191 2.048 . S
Mg182 O194 2.141 . S
C183 O184 1.313 . S
C183 O190 1.195 . S
O184 C183 1.313 . S
C185 O186 1.245 . S
C185 O194 1.289 . S
O186 C185 1.245 . S
C187 O188 1.245 . S
C187 O189 1.289 . S
O188 C187 1.245 . S
O189 Mg182 2.141 . S
O189 C187 1.289 . S
O190 Mg182 2.048 . S
O190 C183 1.195 . S
O191 Mg182 2.048 . S
O191 C192 1.195 . S
C192 O191 1.195 . S
C192 O193 1.313 . S
O193 C192 1.313 . S
O194 Mg182 2.141 . S
O194 C185 1.289 . S
Mg195 O202 2.141 . S
Mg195 O203 2.048 . S
Mg195 O204 2.048 . S
Mg195 O207 2.141 . S
C196 O197 1.313 1_455 S
C196 O203 1.195 . S
O197 C196 1.313 1_655 S
C198 O199 1.245 . S
C198 O207 1.289 1_655 S
O199 C198 1.245 . S
C200 O201 1.245 1_455 S
C200 O202 1.289 . S
O201 C200 1.245 1_655 S
O202 Mg195 2.141 . S
O202 C200 1.289 . S
O203 Mg195 2.048 . S
O203 C196 1.195 . S
O204 Mg195 2.048 . S
O204 C205 1.195 1_455 S
C205 O204 1.195 1_655 S
C205 O206 1.313 . S
O206 C205 1.313 . S
O207 Mg195 2.141 . S
O207 C198 1.289 1_455 S
Mg208 O215 2.141 . S
Mg208 O216 2.048 . S
Mg208 O217 2.048 . S
Mg208 O220 2.141 . S
C209 O210 1.313 . S
C209 O216 1.195 . S
O210 C209 1.313 . S
C211 O212 1.245 . S
C211 O220 1.289 . S
O212 C211 1.245 . S
C213 O214 1.245 1_655 S
C213 O215 1.289 . S
O214 C213 1.245 1_455 S
O215 Mg208 2.141 . S
O215 C213 1.289 . S
O216 Mg208 2.048 . S
O216 C209 1.195 . S
O217 Mg208 2.048 . S
O217 C218 1.195 . S
C218 O217 1.195 . S
C218 O219 1.313 . S
O219 C218 1.313 . S
O220 Mg208 2.141 . S
O220 C211 1.289 . S
Mg221 O228 2.141 . S
Mg221 O229 2.048 . S
Mg221 O230 2.048 . S
Mg221 O233 2.141 . S
C222 O223 1.313 . S
C222 O229 1.195 . S
O223 C222 1.313 . S
C224 O225 1.245 . S
C224 O233 1.289 . S
O225 C224 1.245 . S
C226 O227 1.245 . S
C226 O228 1.289 . S
O227 C226 1.245 . S
O228 Mg221 2.141 . S
O228 C226 1.289 . S
O229 Mg221 2.048 . S
O229 C222 1.195 . S
O230 Mg221 2.048 . S
O230 C231 1.195 . S
C231 O230 1.195 . S
C231 O232 1.313 . S
O232 C231 1.313 . S
O233 Mg221 2.141 . S
O233 C224 1.289 . S
Mg234 O241 2.141 . S
Mg234 O242 2.048 . S
Mg234 O243 2.048 . S
Mg234 O246 2.141 . S
C235 O236 1.313 . S
C235 O242 1.195 . S
O236 C235 1.313 . S
C237 O238 1.245 . S
C237 O246 1.289 . S
O238 C237 1.245 . S
C239 O240 1.245 1_655 S
C239 O241 1.289 . S
O240 C239 1.245 1_455 S
O241 Mg234 2.141 . S
O241 C239 1.289 . S
O242 Mg234 2.048 . S
O242 C235 1.195 . S
O243 Mg234 2.048 . S
O243 C244 1.195 . S
C244 O243 1.195 . S
C244 O245 1.313 . S
O245 C244 1.313 . S
O246 Mg234 2.141 . S
O246 C237 1.289 . S
Mg247 O254 2.141 . S
Mg247 O255 2.048 . S
Mg247 O256 2.048 . S
Mg247 O259 2.141 . S
C248 O249 1.313 . S
C248 O255 1.195 . S
O249 C248 1.313 . S
C250 O251 1.245 . S
C250 O259 1.289 . S
O251 C250 1.245 . S
C252 O253 1.245 . S
C252 O254 1.289 . S
O253 C252 1.245 . S
O254 Mg247 2.141 . S
O254 C252 1.289 . S
O255 Mg247 2.048 . S
O255 C248 1.195 . S
O256 Mg247 2.048 . S
O256 C257 1.195 . S
C257 O256 1.195 . S
C257 O258 1.313 . S
O258 C257 1.313 . S
O259 Mg247 2.141 . S
O259 C250 1.289 . S
Mg260 O267 2.141 . S
Mg260 O268 2.048 . S
Mg260 O269 2.048 . S
Mg260 O272 2.141 . S
C261 O262 1.313 . S
C261 O268 1.195 . S
O262 C261 1.313 . S
C263 O264 1.245 . S
C263 O272 1.289 . S
O264 C263 1.245 . S
C265 O266 1.245 . S
C265 O267 1.289 . S
O266 C265 1.245 . S
O267 Mg260 2.141 . S
O267 C265 1.289 . S
O268 Mg260 2.048 . S
O268 C261 1.195 . S
O269 Mg260 2.048 . S
O269 C270 1.195 . S
C270 O269 1.195 . S
C270 O271 1.313 . S
O271 C270 1.313 . S
O272 Mg260 2.141 . S
O272 C263 1.289 . S
Mg273 O280 2.141 . S
Mg273 O281 2.048 . S
Mg273 O282 2.048 . S
Mg273 O285 2.141 . S
C274 O275 1.313 . S
C274 O281 1.195 . S
O275 C274 1.313 . S
C276 O277 1.245 . S
C276 O285 1.289 . S
O277 C276 1.245 . S
C278 O279 1.245 . S
C278 O280 1.289 . S
O279 C278 1.245 . S
O280 Mg273 2.141 . S
O280 C278 1.289 . S
O281 Mg273 2.048 . S
O281 C274 1.195 . S
O282 Mg273 2.048 . S
O282 C283 1.195 . S
C283 O282 1.195 . S
C283 O284 1.313 . S
O284 C283 1.313 . S
O285 Mg273 2.141 . S
O285 C276 1.289 . S
Mg286 O293 2.141 . S
Mg286 O294 2.048 . S
Mg286 O295 2.048 . S
Mg286 O298 2.141 . S
C287 O288 1.313 . S
C287 O294 1.195 . S
O288 C287 1.313 . S
C289 O290 1.245 . S
C289 O298 1.289 . S
O290 C289 1.245 . S
C291 O292 1.245 . S
C291 O293 1.289 . S
O292 C291 1.245 . S
O293 Mg286 2.141 . S
O293 C291 1.289 . S
O294 Mg286 2.048 . S
O294 C287 1.195 . S
O295 Mg286 2.048 . S
O295 C296 1.195 . S
C296 O295 1.195 . S
C296 O297 1.313 . S
O297 C296 1.313 . S
O298 Mg286 2.141 . S
O298 C289 1.289 . S
Mg299 O306 2.141 . S
Mg299 O307 2.048 . S
Mg299 O308 2.048 . S
Mg299 O311 2.141 . S
C300 O301 1.313 . S
C300 O307 1.195 . S
O301 C300 1.313 . S
C302 O303 1.245 . S
C302 O311 1.289 . S
O303 C302 1.245 . S
C304 O305 1.245 . S
C304 O306 1.289 . S
O305 C304 1.245 . S
O306 Mg299 2.141 . S
O306 C304 1.289 . S
O307 Mg299 2.048 . S
O307 C300 1.195 . S
O308 Mg299 2.048 . S
O308 C309 1.195 . S
C309 O308 1.195 . S
C309 O310 1.313 . S
O310 C309 1.313 . S
O311 Mg299 2.141 . S
O311 C302 1.289 . S
Mg312 O319 2.142 . S
Mg312 O320 2.048 . S
Mg312 O321 2.048 . S
Mg312 O324 2.141 1_556 S
C313 O314 1.313 . S
C313 O320 1.195 . S
O314 C313 1.313 . S
C315 O316 1.245 . S
C315 O324 1.289 . S
O316 C315 1.245 . S
C317 O318 1.245 1_655 S
C317 O319 1.289 1_554 S
O318 C317 1.245 1_455 S
O319 Mg312 2.142 . S
O319 C317 1.289 1_556 S
O320 Mg312 2.048 . S
O320 C313 1.195 . S
O321 Mg312 2.048 . S
O321 C322 1.196 . S
C322 O321 1.196 . S
C322 O323 1.313 . S
O323 C322 1.313 . S
O324 Mg312 2.141 1_554 S
O324 C315 1.289 . S
Mg325 O332 2.142 . S
Mg325 O333 2.048 . S
Mg325 O334 2.048 . S
Mg325 O337 2.141 1_556 S
C326 O327 1.313 . S
C326 O333 1.195 . S
O327 C326 1.313 . S
C328 O329 1.245 . S
C328 O337 1.289 . S
O329 C328 1.245 . S
C330 O331 1.245 . S
C330 O332 1.289 1_554 S
O331 C330 1.245 . S
O332 Mg325 2.142 . S
O332 C330 1.289 1_556 S
O333 Mg325 2.048 . S
O333 C326 1.195 . S
O334 Mg325 2.048 . S
O334 C335 1.196 . S
C335 O334 1.196 . S
C335 O336 1.313 . S
O336 C335 1.313 . S
O337 Mg325 2.141 1_554 S
O337 C328 1.289 . S
Mg338 O345 2.141 . S
Mg338 O346 2.048 . S
Mg338 O347 2.048 . S
Mg338 O350 2.141 . S
C339 O340 1.312 1_655 S
C339 O346 1.195 . S
O340 C339 1.312 1_455 S
C341 O342 1.245 . S
C341 O350 1.289 . S
O342 C341 1.245 . S
C343 O344 1.245 1_655 S
C343 O345 1.289 . S
O344 C343 1.245 1_455 S
O345 Mg338 2.141 . S
O345 C343 1.289 . S
O346 Mg338 2.048 . S
O346 C339 1.195 . S
O347 Mg338 2.048 . S
O347 C348 1.195 . S
C348 O347 1.195 . S
C348 O349 1.313 . S
O349 C348 1.313 . S
O350 Mg338 2.141 . S
O350 C341 1.289 . S
Mg351 O358 2.141 . S
Mg351 O359 2.048 . S
Mg351 O360 2.048 . S
Mg351 O363 2.141 . S
C352 O353 1.313 . S
C352 O359 1.195 . S
O353 C352 1.313 . S
C354 O355 1.245 . S
C354 O363 1.289 . S
O355 C354 1.245 . S
C356 O357 1.245 . S
C356 O358 1.289 . S
O357 C356 1.245 . S
O358 Mg351 2.141 . S
O358 C356 1.289 . S
O359 Mg351 2.048 . S
O359 C352 1.195 . S
O360 Mg351 2.048 . S
O360 C361 1.195 . S
C361 O360 1.195 . S
C361 O362 1.313 . S
O362 C361 1.313 . S
O363 Mg351 2.141 . S
O363 C354 1.289 . S
Mg364 O371 2.141 . S
Mg364 O372 2.048 1_556 S
Mg364 O373 2.048 . S
Mg364 O376 2.141 . S
C365 O366 1.313 . S
C365 O372 1.195 . S
O366 C365 1.313 . S
C367 O368 1.245 . S
C367 O376 1.289 . S
O368 C367 1.245 . S
C369 O370 1.252 . S
C369 O371 1.284 1_554 S
O370 C369 1.252 . S
O371 Mg364 2.141 . S
O371 C369 1.284 1_556 S
O372 Mg364 2.048 1_554 S
O372 C365 1.195 . S
O373 Mg364 2.048 . S
O373 C374 1.195 1_556 S
C374 O373 1.195 1_554 S
C374 O375 1.313 . S
O375 C374 1.313 . S
O376 Mg364 2.141 . S
O376 C367 1.289 . S
Mg377 O384 2.141 . S
Mg377 O385 2.048 1_556 S
Mg377 O386 2.048 . S
Mg377 O389 2.141 . S
C378 O379 1.313 . S
C378 O385 1.195 . S
O379 C378 1.313 . S
C380 O381 1.245 . S
C380 O389 1.289 . S
O381 C380 1.245 . S
C382 O383 1.252 . S
C382 O384 1.284 1_554 S
O383 C382 1.252 . S
O384 Mg377 2.141 . S
O384 C382 1.284 1_556 S
O385 Mg377 2.048 1_554 S
O385 C378 1.195 . S
O386 Mg377 2.048 . S
O386 C387 1.195 1_556 S
C387 O386 1.195 1_554 S
C387 O388 1.313 . S
O388 C387 1.313 . S
O389 Mg377 2.141 . S
O389 C380 1.289 . S
Mg390 O397 2.141 . S
Mg390 O398 2.048 . S
Mg390 O399 2.048 . S
Mg390 O402 2.141 . S
C391 O392 1.313 . S
C391 O398 1.195 . S
O392 C391 1.313 . S
C393 O394 1.245 . S
C393 O402 1.289 . S
O394 C393 1.245 . S
C395 O396 1.245 . S
C395 O397 1.289 . S
O396 C395 1.245 . S
O397 Mg390 2.141 . S
O397 C395 1.289 . S
O398 Mg390 2.048 . S
O398 C391 1.195 . S
O399 Mg390 2.048 . S
O399 C400 1.195 . S
C400 O399 1.195 . S
C400 O401 1.313 . S
O401 C400 1.313 . S
O402 Mg390 2.141 . S
O402 C393 1.289 . S
Mg403 O410 2.141 . S
Mg403 O411 2.048 . S
Mg403 O412 2.048 . S
Mg403 O415 2.141 . S
C404 O405 1.313 . S
C404 O411 1.195 . S
O405 C404 1.313 . S
C406 O407 1.245 . S
C406 O415 1.289 . S
O407 C406 1.245 . S
C408 O409 1.245 . S
C408 O410 1.289 . S
O409 C408 1.245 . S
O410 Mg403 2.141 . S
O410 C408 1.289 . S
O411 Mg403 2.048 . S
O411 C404 1.195 . S
O412 Mg403 2.048 . S
O412 C413 1.195 . S
C413 O412 1.195 . S
C413 O414 1.313 . S
O414 C413 1.313 . S
O415 Mg403 2.141 . S
O415 C406 1.289 . S
H416 C422 0.930 . S
H417 C426 0.930 . S
H418 C431 0.929 . S
H419 C429 0.929 . S
H420 C424 0.929 1_655 S
H421 C430 0.929 . S
C422 H416 0.930 . S
C422 C423 1.367 . S
C422 C430 1.378 . S
C423 C422 1.367 . S
C423 C431 1.433 . S
C424 H420 0.929 1_455 S
C424 C426 1.378 1_455 S
C424 C428 1.350 . S
C425 C428 1.463 . S
C425 C430 1.350 . S
C425 N433 1.427 . S
C426 H417 0.930 . S
C426 C424 1.378 1_655 S
C426 C427 1.367 1_655 S
C427 C426 1.367 1_455 S
C427 C429 1.433 . S
C428 C424 1.350 . S
C428 C425 1.463 . S
C428 N432 1.427 . S
C429 H419 0.929 . S
C429 C427 1.433 . S
C429 N432 1.384 . S
C430 H421 0.929 . S
C430 C422 1.378 . S
C430 C425 1.350 . S
C431 H418 0.929 . S
C431 C423 1.433 . S
C431 N433 1.384 . S
N432 C428 1.427 . S
N432 C429 1.384 . S
N433 C425 1.427 . S
N433 C431 1.384 . S
H434 C440 0.930 . S
H435 C444 0.930 . S
H436 C449 0.929 . S
H437 C447 0.929 . S
H438 C442 0.929 . S
H439 C448 0.929 . S
C440 H434 0.930 . S
C440 C441 1.367 . S
C440 C448 1.378 . S
C441 C440 1.367 . S
C441 C449 1.433 . S
C442 H438 0.929 . S
C442 C444 1.378 . S
C442 C446 1.350 1_655 S
C443 C446 1.463 . S
C443 C448 1.350 . S
C443 N451 1.427 . S
C444 H435 0.930 . S
C444 C442 1.378 . S
C444 C445 1.367 1_655 S
C445 C444 1.367 1_455 S
C445 C447 1.433 . S
C446 C442 1.350 1_455 S
C446 C443 1.463 . S
C446 N450 1.427 . S
C447 H437 0.929 . S
C447 C445 1.433 . S
C447 N450 1.384 . S
C448 H439 0.929 . S
C448 C440 1.378 . S
C448 C443 1.350 . S
C449 H436 0.929 . S
C449 C441 1.433 . S
C449 N451 1.384 . S
N450 C446 1.427 . S
N450 C447 1.384 . S
N451 C443 1.427 . S
N451 C449 1.384 . S
H452 C458 0.930 . S
H453 C462 0.928 1_455 S
H454 C467 0.929 . S
H455 C465 0.929 . S
H456 C460 0.929 1_455 S
H457 C466 0.929 . S
C458 H452 0.930 . S
C458 C459 1.367 . S
C458 C466 1.378 . S
C459 C458 1.367 . S
C459 C467 1.433 1_655 S
C460 H456 0.929 1_655 S
C460 C462 1.378 . S
C460 C464 1.350 . S
C461 C464 1.463 . S
C461 C466 1.350 . S
C461 N469 1.427 1_655 S
C462 H453 0.928 1_655 S
C462 C460 1.378 . S
C462 C463 1.367 . S
C463 C462 1.367 . S
C463 C465 1.433 . S
C464 C460 1.350 . S
C464 C461 1.463 . S
C464 N468 1.427 . S
C465 H455 0.929 . S
C465 C463 1.433 . S
C465 N468 1.384 . S
C466 H457 0.929 . S
C466 C458 1.378 . S
C466 C461 1.350 . S
C467 H454 0.929 . S
C467 C459 1.433 1_455 S
C467 N469 1.384 . S
N468 C464 1.427 . S
N468 C465 1.384 . S
N469 C461 1.427 1_455 S
N469 C467 1.384 . S
H470 C476 0.930 1_455 S
H471 C480 0.930 . S
H472 C485 0.929 . S
H473 C483 0.929 . S
H474 C478 0.929 . S
H475 C484 0.929 1_455 S
C476 H470 0.930 1_655 S
C476 C477 1.367 . S
C476 C484 1.378 . S
C477 C476 1.367 . S
C477 C485 1.433 . S
C478 H474 0.929 . S
C478 C480 1.378 . S
C478 C482 1.350 . S
C479 C482 1.463 . S
C479 C484 1.350 . S
C479 N487 1.427 . S
C480 H471 0.930 . S
C480 C478 1.378 . S
C480 C481 1.367 . S
C481 C480 1.367 . S
C481 C483 1.433 1_655 S
C482 C478 1.350 . S
C482 C479 1.463 . S
C482 N486 1.427 1_655 S
C483 H473 0.929 . S
C483 C481 1.433 1_455 S
C483 N486 1.384 . S
C484 H475 0.929 1_655 S
C484 C476 1.378 . S
C484 C479 1.350 . S
C485 H472 0.929 . S
C485 C477 1.433 . S
C485 N487 1.384 . S
N486 C482 1.427 1_455 S
N486 C483 1.384 . S
N487 C479 1.427 . S
N487 C485 1.384 . S
H488 C494 0.930 . S
H489 C498 0.930 . S
H490 C503 0.929 . S
H491 C501 0.929 . S
H492 C496 0.929 . S
H493 C502 0.929 . S
C494 H488 0.930 . S
C494 C495 1.367 . S
C494 C502 1.378 . S
C495 C494 1.367 . S
C495 C503 1.433 . S
C496 H492 0.929 . S
C496 C498 1.378 . S
C496 C500 1.350 1_655 S
C497 C500 1.463 . S
C497 C502 1.350 . S
C497 N505 1.427 . S
C498 H489 0.930 . S
C498 C496 1.378 . S
C498 C499 1.367 1_655 S
C499 C498 1.367 1_455 S
C499 C501 1.433 . S
C500 C496 1.350 1_455 S
C500 C497 1.463 . S
C500 N504 1.427 . S
C501 H491 0.929 . S
C501 C499 1.433 . S
C501 N504 1.384 . S
C502 H493 0.929 . S
C502 C494 1.378 . S
C502 C497 1.350 . S
C503 H490 0.929 . S
C503 C495 1.433 . S
C503 N505 1.384 . S
N504 C500 1.427 . S
N504 C501 1.384 . S
N505 C497 1.427 . S
N505 C503 1.384 . S
H506 C512 0.930 . S
H507 C516 0.930 . S
H508 C521 0.928 1_655 S
H509 C519 0.929 . S
H510 C514 0.929 . S
H511 C520 0.929 . S
C512 H506 0.930 . S
C512 C513 1.367 . S
C512 C520 1.378 . S
C513 C512 1.367 . S
C513 C521 1.434 . S
C514 H510 0.929 . S
C514 C516 1.378 . S
C514 C518 1.350 . S
C515 C518 1.463 . S
C515 C520 1.350 . S
C515 N523 1.427 . S
C516 H507 0.930 . S
C516 C514 1.378 . S
C516 C517 1.367 . S
C517 C516 1.367 . S
C517 C519 1.433 . S
C518 C514 1.350 . S
C518 C515 1.463 . S
C518 N522 1.427 . S
C519 H509 0.929 . S
C519 C517 1.433 . S
C519 N522 1.384 . S
C520 H511 0.929 . S
C520 C512 1.378 . S
C520 C515 1.350 . S
C521 H508 0.928 1_455 S
C521 C513 1.434 . S
C521 N523 1.384 . S
N522 C518 1.427 . S
N522 C519 1.384 . S
N523 C515 1.427 . S
N523 C521 1.384 . S
H524 C530 0.930 . S
H525 C534 0.930 1_455 S
H526 C539 0.929 . S
H527 C537 0.929 . S
H528 C532 0.929 1_455 S
H529 C538 0.929 . S
C530 H524 0.930 . S
C530 C531 1.367 . S
C530 C538 1.378 . S
C531 C530 1.367 . S
C531 C539 1.433 1_655 S
C532 H528 0.929 1_655 S
C532 C534 1.378 . S
C532 C536 1.350 . S
C533 C536 1.463 . S
C533 C538 1.350 . S
C533 N541 1.427 1_655 S
C534 H525 0.930 1_655 S
C534 C532 1.378 . S
C534 C535 1.367 . S
C535 C534 1.367 . S
C535 C537 1.433 . S
C536 C532 1.350 . S
C536 C533 1.463 . S
C536 N540 1.427 . S
C537 H527 0.929 . S
C537 C535 1.433 . S
C537 N540 1.384 . S
C538 H529 0.929 . S
C538 C530 1.378 . S
C538 C533 1.350 . S
C539 H526 0.929 . S
C539 C531 1.433 1_455 S
C539 N541 1.384 . S
N540 C536 1.427 . S
N540 C537 1.384 . S
N541 C533 1.427 1_455 S
N541 C539 1.384 . S
H542 C548 0.930 . S
H543 C552 0.930 . S
H544 C557 0.929 1_455 S
H545 C555 0.929 . S
H546 C550 0.929 . S
H547 C556 0.929 . S
C548 H542 0.930 . S
C548 C549 1.367 . S
C548 C556 1.378 . S
C549 C548 1.367 . S
C549 C557 1.433 . S
C550 H546 0.929 . S
C550 C552 1.378 . S
C550 C554 1.350 1_455 S
C551 C554 1.463 . S
C551 C556 1.350 . S
C551 N559 1.427 . S
C552 H543 0.930 . S
C552 C550 1.378 . S
C552 C553 1.367 1_455 S
C553 C552 1.367 1_655 S
C553 C555 1.433 . S
C554 C550 1.350 1_655 S
C554 C551 1.463 . S
C554 N558 1.427 . S
C555 H545 0.929 . S
C555 C553 1.433 . S
C555 N558 1.384 . S
C556 H547 0.929 . S
C556 C548 1.378 . S
C556 C551 1.350 . S
C557 H544 0.929 1_655 S
C557 C549 1.433 . S
C557 N559 1.384 . S
N558 C554 1.427 . S
N558 C555 1.384 . S
N559 C551 1.427 . S
N559 C557 1.384 . S
H560 C566 0.930 . S
H561 C570 0.930 . S
H562 C575 0.929 . S
H563 C573 0.929 . S
H564 C568 0.929 . S
H565 C574 0.929 . S
C566 H560 0.930 . S
C566 C567 1.367 . S
C566 C574 1.378 . S
C567 C566 1.367 . S
C567 C575 1.433 . S
C568 H564 0.929 . S
C568 C570 1.378 . S
C568 C572 1.350 . S
C569 C572 1.463 . S
C569 C574 1.350 . S
C569 N577 1.427 . S
C570 H561 0.930 . S
C570 C568 1.378 . S
C570 C571 1.367 . S
C571 C570 1.367 . S
C571 C573 1.433 . S
C572 C568 1.350 . S
C572 C569 1.463 . S
C572 N576 1.427 . S
C573 H563 0.929 . S
C573 C571 1.433 . S
C573 N576 1.384 . S
C574 H565 0.929 . S
C574 C566 1.378 . S
C574 C569 1.350 . S
C575 H562 0.929 . S
C575 C567 1.433 . S
C575 N577 1.384 . S
N576 C572 1.427 . S
N576 C573 1.384 . S
N577 C569 1.427 . S
N577 C575 1.384 . S
H578 C584 0.930 . S
H579 C588 0.930 . S
H580 C593 0.929 . S
H581 C591 0.929 . S
H582 C586 0.929 . S
H583 C592 0.929 . S
C584 H578 0.930 . S
C584 C585 1.367 . S
C584 C592 1.378 . S
C585 C584 1.367 . S
C585 C593 1.433 . S
C586 H582 0.929 . S
C586 C588 1.378 . S
C586 C590 1.350 . S
C587 C590 1.463 . S
C587 C592 1.350 . S
C587 N595 1.427 . S
C588 H579 0.930 . S
C588 C586 1.378 . S
C588 C589 1.367 . S
C589 C588 1.367 . S
C589 C591 1.433 . S
C590 C586 1.350 . S
C590 C587 1.463 . S
C590 N594 1.427 . S
C591 H581 0.929 . S
C591 C589 1.433 . S
C591 N594 1.384 . S
C592 H583 0.929 . S
C592 C584 1.378 . S
C592 C587 1.350 . S
C593 H580 0.929 . S
C593 C585 1.433 . S
C593 N595 1.384 . S
N594 C590 1.427 . S
N594 C591 1.384 . S
N595 C587 1.427 . S
N595 C593 1.384 . S
H596 C602 0.930 . S
H597 C606 0.930 . S
H598 C611 0.929 . S
H599 C609 0.929 . S
H600 C604 0.929 . S
H601 C610 0.929 . S
C602 H596 0.930 . S
C602 C603 1.367 . S
C602 C610 1.378 . S
C603 C602 1.367 . S
C603 C611 1.433 . S
C604 H600 0.929 . S
C604 C606 1.378 . S
C604 C608 1.350 . S
C605 C608 1.463 . S
C605 C610 1.350 . S
C605 N613 1.427 . S
C606 H597 0.930 . S
C606 C604 1.378 . S
C606 C607 1.367 . S
C607 C606 1.367 . S
C607 C609 1.433 . S
C608 C604 1.350 . S
C608 C605 1.463 . S
C608 N612 1.427 . S
C609 H599 0.929 . S
C609 C607 1.433 . S
C609 N612 1.384 . S
C610 H601 0.929 . S
C610 C602 1.378 . S
C610 C605 1.350 . S
C611 H598 0.929 . S
C611 C603 1.433 . S
C611 N613 1.384 . S
N612 C608 1.427 . S
N612 C609 1.384 . S
N613 C605 1.427 . S
N613 C611 1.384 . S
H614 C620 0.930 . S
H615 C624 0.930 . S
H616 C629 0.929 . S
H617 C627 0.929 . S
H618 C622 0.929 . S
H619 C628 0.929 . S
C620 H614 0.930 . S
C620 C621 1.367 . S
C620 C628 1.378 . S
C621 C620 1.367 . S
C621 C629 1.433 . S
C622 H618 0.929 . S
C622 C624 1.378 . S
C622 C626 1.350 . S
C623 C626 1.463 . S
C623 C628 1.350 . S
C623 N631 1.427 . S
C624 H615 0.930 . S
C624 C622 1.378 . S
C624 C625 1.367 . S
C625 C624 1.367 . S
C625 C627 1.433 . S
C626 C622 1.350 . S
C626 C623 1.463 . S
C626 N630 1.427 . S
C627 H617 0.929 . S
C627 C625 1.433 . S
C627 N630 1.384 . S
C628 H619 0.929 . S
C628 C620 1.378 . S
C628 C623 1.350 . S
C629 H616 0.929 . S
C629 C621 1.433 . S
C629 N631 1.384 . S
N630 C626 1.427 . S
N630 C627 1.384 . S
N631 C623 1.427 . S
N631 C629 1.384 . S
H632 C638 0.930 . S
H633 C642 0.930 . S
H634 C647 0.929 . S
H635 C645 0.929 . S
H636 C640 0.929 . S
H637 C646 0.929 . S
C638 H632 0.930 . S
C638 C639 1.367 . S
C638 C646 1.378 . S
C639 C638 1.367 . S
C639 C647 1.433 . S
C640 H636 0.929 . S
C640 C642 1.378 . S
C640 C644 1.350 . S
C641 C644 1.463 . S
C641 C646 1.350 . S
C641 N649 1.427 . S
C642 H633 0.930 . S
C642 C640 1.378 . S
C642 C643 1.367 . S
C643 C642 1.367 . S
C643 C645 1.433 . S
C644 C640 1.350 . S
C644 C641 1.463 . S
C644 N648 1.427 . S
C645 H635 0.929 . S
C645 C643 1.433 . S
C645 N648 1.384 . S
C646 H637 0.929 . S
C646 C638 1.378 . S
C646 C641 1.350 . S
C647 H634 0.929 . S
C647 C639 1.433 . S
C647 N649 1.384 . S
N648 C644 1.427 . S
N648 C645 1.384 . S
N649 C641 1.427 . S
N649 C647 1.384 . S
H650 C656 0.930 . S
H651 C660 0.930 . S
H652 C665 0.929 . S
H653 C663 0.929 . S
H654 C658 0.929 . S
H655 C664 0.929 . S
C656 H650 0.930 . S
C656 C657 1.367 . S
C656 C664 1.378 . S
C657 C656 1.367 . S
C657 C665 1.433 . S
C658 H654 0.929 . S
C658 C660 1.378 . S
C658 C662 1.350 . S
C659 C662 1.463 . S
C659 C664 1.350 . S
C659 N667 1.427 . S
C660 H651 0.930 . S
C660 C658 1.378 . S
C660 C661 1.367 . S
C661 C660 1.367 . S
C661 C663 1.433 . S
C662 C658 1.350 . S
C662 C659 1.463 . S
C662 N666 1.427 . S
C663 H653 0.929 . S
C663 C661 1.433 . S
C663 N666 1.384 . S
C664 H655 0.929 . S
C664 C656 1.378 . S
C664 C659 1.350 . S
C665 H652 0.929 . S
C665 C657 1.433 . S
C665 N667 1.384 . S
N666 C662 1.427 . S
N666 C663 1.384 . S
N667 C659 1.427 . S
N667 C665 1.384 . S
H668 C674 0.930 . S
H669 C678 0.930 . S
H670 C683 0.929 . S
H671 C681 0.929 . S
H672 C676 0.929 . S
H673 C682 0.929 . S
C674 H668 0.930 . S
C674 C675 1.367 . S
C674 C682 1.378 . S
C675 C674 1.367 . S
C675 C683 1.433 . S
C676 H672 0.929 . S
C676 C678 1.378 . S
C676 C680 1.350 . S
C677 C680 1.463 . S
C677 C682 1.350 . S
C677 N685 1.427 . S
C678 H669 0.930 . S
C678 C676 1.378 . S
C678 C679 1.367 . S
C679 C678 1.367 . S
C679 C681 1.433 . S
C680 C676 1.350 . S
C680 C677 1.463 . S
C680 N684 1.427 . S
C681 H671 0.929 . S
C681 C679 1.433 . S
C681 N684 1.384 . S
C682 H673 0.929 . S
C682 C674 1.378 . S
C682 C677 1.350 . S
C683 H670 0.929 . S
C683 C675 1.433 . S
C683 N685 1.384 . S
N684 C680 1.427 . S
N684 C681 1.384 . S
N685 C677 1.427 . S
N685 C683 1.384 . S
H686 C692 0.930 . S
H687 C696 0.930 . S
H688 C701 0.929 . S
H689 C699 0.929 . S
H690 C694 0.929 . S
H691 C700 0.929 . S
C692 H686 0.930 . S
C692 C693 1.367 . S
C692 C700 1.378 . S
C693 C692 1.367 . S
C693 C701 1.433 . S
C694 H690 0.929 . S
C694 C696 1.378 . S
C694 C698 1.350 . S
C695 C698 1.463 . S
C695 C700 1.350 . S
C695 N703 1.427 . S
C696 H687 0.930 . S
C696 C694 1.378 . S
C696 C697 1.367 . S
C697 C696 1.367 . S
C697 C699 1.433 . S
C698 C694 1.350 . S
C698 C695 1.463 . S
C698 N702 1.427 . S
C699 H689 0.929 . S
C699 C697 1.433 . S
C699 N702 1.384 . S
C700 H691 0.929 . S
C700 C692 1.378 . S
C700 C695 1.350 . S
C701 H688 0.929 . S
C701 C693 1.433 . S
C701 N703 1.384 . S
N702 C698 1.427 . S
N702 C699 1.384 . S
N703 C695 1.427 . S
N703 C701 1.384 . S
H704 C710 0.930 . S
H705 C714 0.930 . S
H706 C719 0.929 . S
H707 C717 0.929 . S
H708 C712 0.929 . S
H709 C718 0.929 . S
C710 H704 0.930 . S
C710 C711 1.367 . S
C710 C718 1.378 . S
C711 C710 1.367 . S
C711 C719 1.433 1_556 S
C712 H708 0.929 . S
C712 C714 1.378 . S
C712 C716 1.389 . S
C713 C716 1.459 1_546 S
C713 C718 1.380 . S
C713 N721 1.397 1_556 S
C714 H705 0.930 . S
C714 C712 1.378 . S
C714 C715 1.367 . S
C715 C714 1.367 . S
C715 C717 1.433 1_554 S
C716 C712 1.389 . S
C716 C713 1.459 1_564 S
C716 N720 1.388 1_554 S
C717 H707 0.929 . S
C717 C715 1.433 1_556 S
C717 N720 1.384 . S
C718 H709 0.929 . S
C718 C710 1.378 . S
C718 C713 1.380 . S
C719 H706 0.929 . S
C719 C711 1.433 1_554 S
C719 N721 1.384 . S
N720 C716 1.388 1_556 S
N720 C717 1.384 . S
N721 C713 1.397 1_554 S
N721 C719 1.384 . S
H722 C728 0.930 . S
H723 C732 0.930 . S
H724 C737 0.929 . S
H725 C735 0.929 1_455 S
H726 C730 0.929 . S
H727 C736 0.929 . S
C728 H722 0.930 . S
C728 C729 1.370 . S
C728 C736 1.378 . S
C729 C728 1.370 . S
C729 C737 1.430 1_554 S
C730 H726 0.929 . S
C730 C732 1.378 . S
C730 C734 1.351 . S
C731 C734 1.462 1_554 S
C731 C736 1.350 . S
C731 N739 1.427 1_554 S
C732 H723 0.930 . S
C732 C730 1.378 . S
C732 C733 1.371 . S
C733 C732 1.371 . S
C733 C735 1.430 1_556 S
C734 C730 1.351 . S
C734 C731 1.462 1_556 S
C734 N738 1.426 1_556 S
C735 H725 0.929 1_655 S
C735 C733 1.430 1_554 S
C735 N738 1.384 . S
C736 H727 0.929 . S
C736 C728 1.378 . S
C736 C731 1.350 . S
C737 H724 0.929 . S
C737 C729 1.430 1_556 S
C737 N739 1.384 . S
N738 C734 1.426 1_554 S
N738 C735 1.384 . S
N739 C731 1.427 1_556 S
N739 C737 1.384 . S
H740 C746 0.930 . S
H741 C750 0.930 . S
H742 C755 0.929 . S
H743 C753 0.929 . S
H744 C748 0.929 . S
H745 C754 0.929 . S
C746 H740 0.930 . S
C746 C747 1.367 . S
C746 C754 1.378 . S
C747 C746 1.367 . S
C747 C755 1.433 . S
C748 H744 0.929 . S
C748 C750 1.378 . S
C748 C752 1.350 . S
C749 C752 1.463 . S
C749 C754 1.350 . S
C749 N757 1.427 . S
C750 H741 0.930 . S
C750 C748 1.378 . S
C750 C751 1.367 . S
C751 C750 1.367 . S
C751 C753 1.433 . S
C752 C748 1.350 . S
C752 C749 1.463 . S
C752 N756 1.427 . S
C753 H743 0.929 . S
C753 C751 1.433 . S
C753 N756 1.384 . S
C754 H745 0.929 . S
C754 C746 1.378 . S
C754 C749 1.350 . S
C755 H742 0.929 . S
C755 C747 1.433 . S
C755 N757 1.384 . S
N756 C752 1.427 . S
N756 C753 1.384 . S
N757 C749 1.427 . S
N757 C755 1.384 . S
H758 C764 0.930 . S
H759 C768 0.930 . S
H760 C773 0.929 . S
H761 C771 0.929 . S
H762 C766 0.929 . S
H763 C772 0.929 . S
C764 H758 0.930 . S
C764 C765 1.367 . S
C764 C772 1.378 . S
C765 C764 1.367 . S
C765 C773 1.433 . S
C766 H762 0.929 . S
C766 C768 1.378 . S
C766 C770 1.350 . S
C767 C770 1.463 1_565 S
C767 C772 1.350 . S
C767 N775 1.427 . S
C768 H759 0.930 . S
C768 C766 1.378 . S
C768 C769 1.367 . S
C769 C768 1.367 . S
C769 C771 1.433 . S
C770 C766 1.350 . S
C770 C767 1.463 1_545 S
C770 N774 1.427 . S
C771 H761 0.929 . S
C771 C769 1.433 . S
C771 N774 1.384 . S
C772 H763 0.929 . S
C772 C764 1.378 . S
C772 C767 1.350 . S
C773 H760 0.929 . S
C773 C765 1.433 . S
C773 N775 1.384 . S
N774 C770 1.427 . S
N774 C771 1.384 . S
N775 C767 1.427 . S
N775 C773 1.384 . S
H776 C782 0.930 . S
H777 C786 0.930 . S
H778 C791 0.929 . S
H779 C789 0.929 . S
H780 C784 0.929 . S
H781 C790 0.929 . S
C782 H776 0.930 . S
C782 C783 1.407 . S
C782 C790 1.378 . S
C783 C782 1.407 . S
C783 C791 1.392 1_556 S
C784 H780 0.929 . S
C784 C786 1.378 . S
C784 C788 1.381 . S
C785 C788 1.460 1_556 S
C785 C790 1.374 . S
C785 N793 1.404 1_556 S
C786 H777 0.930 . S
C786 C784 1.378 . S
C786 C787 1.367 . S
C787 C786 1.367 . S
C787 C789 1.433 1_554 S
C788 C784 1.381 . S
C788 C785 1.460 1_554 S
C788 N792 1.397 1_554 S
C789 H779 0.929 . S
C789 C787 1.433 1_556 S
C789 N792 1.384 . S
C790 H781 0.929 . S
C790 C782 1.378 . S
C790 C785 1.374 . S
C791 H778 0.929 . S
C791 C783 1.392 1_554 S
C791 N793 1.384 . S
N792 C788 1.397 1_556 S
N792 C789 1.384 . S
N793 C785 1.404 1_554 S
N793 C791 1.384 . S
H794 C800 0.930 . S
H795 C804 0.930 . S
H796 C809 0.929 . S
H797 C807 0.929 . S
H798 C802 0.929 . S
H799 C808 0.929 . S
C800 H794 0.930 . S
C800 C801 1.367 . S
C800 C808 1.378 . S
C801 C800 1.367 . S
C801 C809 1.433 . S
C802 H798 0.929 . S
C802 C804 1.378 . S
C802 C806 1.350 . S
C803 C806 1.463 . S
C803 C808 1.350 . S
C803 N811 1.427 . S
C804 H795 0.930 . S
C804 C802 1.378 . S
C804 C805 1.367 . S
C805 C804 1.367 . S
C805 C807 1.433 . S
C806 C802 1.350 . S
C806 C803 1.463 . S
C806 N810 1.427 . S
C807 H797 0.929 . S
C807 C805 1.433 . S
C807 N810 1.384 . S
C808 H799 0.929 . S
C808 C800 1.378 . S
C808 C803 1.350 . S
C809 H796 0.929 . S
C809 C801 1.433 . S
C809 N811 1.384 . S
N810 C806 1.427 . S
N810 C807 1.384 . S
N811 C803 1.427 . S
N811 C809 1.384 . S
H812 C818 0.930 . S
H813 C822 0.930 . S
H814 C827 0.929 . S
H815 C825 0.929 . S
H816 C820 0.929 . S
H817 C826 0.929 . S
C818 H812 0.930 . S
C818 C819 1.367 . S
C818 C826 1.378 . S
C819 C818 1.367 . S
C819 C827 1.433 . S
C820 H816 0.929 . S
C820 C822 1.378 . S
C820 C824 1.350 . S
C821 C824 1.463 1_565 S
C821 C826 1.350 . S
C821 N829 1.427 . S
C822 H813 0.930 . S
C822 C820 1.378 . S
C822 C823 1.367 . S
C823 C822 1.367 . S
C823 C825 1.433 . S
C824 C820 1.350 . S
C824 C821 1.463 1_545 S
C824 N828 1.427 . S
C825 H815 0.929 . S
C825 C823 1.433 . S
C825 N828 1.384 . S
C826 H817 0.929 . S
C826 C818 1.378 . S
C826 C821 1.350 . S
C827 H814 0.929 . S
C827 C819 1.433 . S
C827 N829 1.384 . S
N828 C824 1.427 . S
N828 C825 1.384 . S
N829 C821 1.427 . S
N829 C827 1.384 . S
H830 C836 0.930 . S
H831 C840 0.930 . S
H832 C845 0.929 . S
H833 C843 0.929 . S
H834 C838 0.929 . S
H835 C844 0.929 . S
C836 H830 0.930 . S
C836 C837 1.367 . S
C836 C844 1.378 . S
C837 C836 1.367 . S
C837 C845 1.433 . S
C838 H834 0.929 . S
C838 C840 1.378 . S
C838 C842 1.350 . S
C839 C842 1.463 . S
C839 C844 1.350 . S
C839 N847 1.427 . S
C840 H831 0.930 . S
C840 C838 1.378 . S
C840 C841 1.367 . S
C841 C840 1.367 . S
C841 C843 1.433 . S
C842 C838 1.350 . S
C842 C839 1.463 . S
C842 N846 1.427 . S
C843 H833 0.929 . S
C843 C841 1.433 . S
C843 N846 1.384 . S
C844 H835 0.929 . S
C844 C836 1.378 . S
C844 C839 1.350 . S
C845 H832 0.929 . S
C845 C837 1.433 . S
C845 N847 1.384 . S
N846 C842 1.427 . S
N846 C843 1.384 . S
N847 C839 1.427 . S
N847 C845 1.384 . S
H848 C854 0.930 . S
H849 C858 0.930 1_455 S
H850 C863 0.929 . S
H851 C861 0.929 . S
H852 C856 0.929 1_455 S
H853 C862 0.929 . S
C854 H848 0.930 . S
C854 C855 1.367 . S
C854 C862 1.378 . S
C855 C854 1.367 . S
C855 C863 1.433 . S
C856 H852 0.929 1_655 S
C856 C858 1.378 . S
C856 C860 1.350 . S
C857 C860 1.463 . S
C857 C862 1.350 . S
C857 N865 1.427 . S
C858 H849 0.930 1_655 S
C858 C856 1.378 . S
C858 C859 1.367 . S
C859 C858 1.367 . S
C859 C861 1.433 . S
C860 C856 1.350 . S
C860 C857 1.463 . S
C860 N864 1.427 . S
C861 H851 0.929 . S
C861 C859 1.433 . S
C861 N864 1.384 . S
C862 H853 0.929 . S
C862 C854 1.378 . S
C862 C857 1.350 . S
C863 H850 0.929 . S
C863 C855 1.433 . S
C863 N865 1.384 . S
N864 C860 1.427 . S
N864 C861 1.384 . S
N865 C857 1.427 . S
N865 C863 1.384 . S
H866 C872 0.930 . S
H867 C876 0.930 . S
H868 C881 0.929 1_455 S
H869 C879 0.929 . S
H870 C874 0.929 . S
H871 C880 0.929 . S
C872 H866 0.930 . S
C872 C873 1.367 . S
C872 C880 1.378 . S
C873 C872 1.367 . S
C873 C881 1.433 . S
C874 H870 0.929 . S
C874 C876 1.378 . S
C874 C878 1.350 . S
C875 C878 1.463 . S
C875 C880 1.350 . S
C875 N883 1.427 . S
C876 H867 0.930 . S
C876 C874 1.378 . S
C876 C877 1.367 . S
C877 C876 1.367 . S
C877 C879 1.433 . S
C878 C874 1.350 . S
C878 C875 1.463 . S
C878 N882 1.427 . S
C879 H869 0.929 . S
C879 C877 1.433 . S
C879 N882 1.384 . S
C880 H871 0.929 . S
C880 C872 1.378 . S
C880 C875 1.350 . S
C881 H868 0.929 1_655 S
C881 C873 1.433 . S
C881 N883 1.384 . S
N882 C878 1.427 . S
N882 C879 1.384 . S
N883 C875 1.427 . S
N883 C881 1.384 . S
H884 C890 0.930 . S
H885 C894 0.930 . S
H886 C899 0.929 . S
H887 C897 0.929 . S
H888 C892 0.929 . S
H889 C898 0.929 . S
C890 H884 0.930 . S
C890 C891 1.367 . S
C890 C898 1.378 . S
C891 C890 1.367 . S
C891 C899 1.433 . S
C892 H888 0.929 . S
C892 C894 1.378 . S
C892 C896 1.350 . S
C893 C896 1.463 . S
C893 C898 1.350 . S
C893 N901 1.427 . S
C894 H885 0.930 . S
C894 C892 1.378 . S
C894 C895 1.367 . S
C895 C894 1.367 . S
C895 C897 1.433 . S
C896 C892 1.350 . S
C896 C893 1.463 . S
C896 N900 1.427 . S
C897 H887 0.929 . S
C897 C895 1.433 . S
C897 N900 1.384 . S
C898 H889 0.929 . S
C898 C890 1.378 . S
C898 C893 1.350 . S
C899 H886 0.929 . S
C899 C891 1.433 . S
C899 N901 1.384 . S
N900 C896 1.427 . S
N900 C897 1.384 . S
N901 C893 1.427 . S
N901 C899 1.384 . S
H902 C908 0.930 . S
H903 C912 0.930 . S
H904 C917 0.929 . S
H905 C915 0.929 . S
H906 C910 0.929 . S
H907 C916 0.929 . S
C908 H902 0.930 . S
C908 C909 1.367 . S
C908 C916 1.378 . S
C909 C908 1.367 . S
C909 C917 1.433 . S
C910 H906 0.929 . S
C910 C912 1.378 . S
C910 C914 1.350 . S
C911 C914 1.463 . S
C911 C916 1.350 . S
C911 N919 1.427 . S
C912 H903 0.930 . S
C912 C910 1.378 . S
C912 C913 1.367 . S
C913 C912 1.367 . S
C913 C915 1.433 . S
C914 C910 1.350 . S
C914 C911 1.463 . S
C914 N918 1.427 . S
C915 H905 0.929 . S
C915 C913 1.433 . S
C915 N918 1.384 . S
C916 H907 0.929 . S
C916 C908 1.378 . S
C916 C911 1.350 . S
C917 H904 0.929 . S
C917 C909 1.433 . S
C917 N919 1.384 . S
N918 C914 1.427 . S
N918 C915 1.384 . S
N919 C911 1.427 . S
N919 C917 1.384 . S
H920 C926 0.930 1_655 S
H921 C930 0.930 1_455 S
H922 C935 0.929 . S
H923 C933 0.929 . S
H924 C928 0.929 . S
H925 C934 0.929 . S
C926 H920 0.930 1_455 S
C926 C927 1.367 . S
C926 C934 1.378 1_455 S
C927 C926 1.367 . S
C927 C935 1.433 . S
C928 H924 0.929 . S
C928 C930 1.378 1_455 S
C928 C932 1.350 1_455 S
C929 C932 1.463 1_465 S
C929 C934 1.350 1_455 S
C929 N937 1.427 . S
C930 H921 0.930 1_655 S
C930 C928 1.378 1_655 S
C930 C931 1.367 . S
C931 C930 1.367 . S
C931 C933 1.433 . S
C932 C928 1.350 1_655 S
C932 C929 1.463 1_645 S
C932 N936 1.427 . S
C933 H923 0.929 . S
C933 C931 1.433 . S
C933 N936 1.384 . S
C934 H925 0.929 . S
C934 C926 1.378 1_655 S
C934 C929 1.350 1_655 S
C935 H922 0.929 . S
C935 C927 1.433 . S
C935 N937 1.384 . S
N936 C932 1.427 . S
N936 C933 1.384 . S
N937 C929 1.427 . S
N937 C935 1.384 . S
H938 C944 0.930 1_455 S
H939 C948 0.930 . S
H940 C953 0.929 . S
H941 C951 0.929 . S
H942 C946 0.929 . S
H943 C952 0.929 . S
C944 H938 0.930 1_655 S
C944 C945 1.367 . S
C944 C952 1.378 1_655 S
C945 C944 1.367 . S
C945 C953 1.433 . S
C946 H942 0.929 . S
C946 C948 1.378 . S
C946 C950 1.350 1_655 S
C947 C950 1.463 1_655 S
C947 C952 1.350 1_655 S
C947 N955 1.427 . S
C948 H939 0.930 . S
C948 C946 1.378 . S
C948 C949 1.367 1_655 S
C949 C948 1.367 1_455 S
C949 C951 1.433 . S
C950 C946 1.350 1_455 S
C950 C947 1.463 1_455 S
C950 N954 1.427 . S
C951 H941 0.929 . S
C951 C949 1.433 . S
C951 N954 1.384 . S
C952 H943 0.929 . S
C952 C944 1.378 1_455 S
C952 C947 1.350 1_455 S
C953 H940 0.929 . S
C953 C945 1.433 . S
C953 N955 1.384 . S
N954 C950 1.427 . S
N954 C951 1.384 . S
N955 C947 1.427 . S
N955 C953 1.384 . S
H956 C962 0.930 . S
H957 C966 0.930 . S
H958 C971 0.929 . S
H959 C969 0.929 . S
H960 C964 0.929 1_455 S
H961 C970 0.929 1_655 S
C962 H956 0.930 . S
C962 C963 1.367 . S
C962 C970 1.378 . S
C963 C962 1.367 . S
C963 C971 1.433 . S
C964 H960 0.929 1_655 S
C964 C966 1.378 . S
C964 C968 1.350 . S
C965 C968 1.463 1_455 S
C965 C970 1.350 . S
C965 N973 1.427 . S
C966 H957 0.930 . S
C966 C964 1.378 . S
C966 C967 1.367 . S
C967 C966 1.367 . S
C967 C969 1.433 . S
C968 C964 1.350 . S
C968 C965 1.463 1_655 S
C968 N972 1.427 . S
C969 H959 0.929 . S
C969 C967 1.433 . S
C969 N972 1.384 . S
C970 H961 0.929 1_455 S
C970 C962 1.378 . S
C970 C965 1.350 . S
C971 H958 0.929 . S
C971 C963 1.433 . S
C971 N973 1.384 . S
N972 C968 1.427 . S
N972 C969 1.384 . S
N973 C965 1.427 . S
N973 C971 1.384 . S
H974 C980 0.930 . S
H975 C984 0.930 . S
H976 C989 0.929 1_655 S
H977 C987 0.929 1_455 S
H978 C982 0.929 . S
H979 C988 0.929 . S
C980 H974 0.930 . S
C980 C981 1.367 . S
C980 C988 1.378 . S
C981 C980 1.367 . S
C981 C989 1.433 1_554 S
C982 H978 0.929 . S
C982 C984 1.378 . S
C982 C986 1.381 . S
C983 C986 1.460 1_454 S
C983 C988 1.378 . S
C983 N991 1.399 1_454 S
C984 H975 0.930 . S
C984 C982 1.378 . S
C984 C985 1.367 . S
C985 C984 1.367 . S
C985 C987 1.433 1_556 S
C986 C982 1.381 . S
C986 C983 1.460 1_656 S
C986 N990 1.397 1_656 S
C987 H977 0.929 1_655 S
C987 C985 1.433 1_554 S
C987 N990 1.384 1_655 S
C988 H979 0.929 . S
C988 C980 1.378 . S
C988 C983 1.378 . S
C989 H976 0.929 1_455 S
C989 C981 1.433 1_556 S
C989 N991 1.384 1_455 S
N990 C986 1.397 1_454 S
N990 C987 1.384 1_455 S
N991 C983 1.399 1_656 S
N991 C989 1.384 1_655 S
H992 C998 0.930 . S
H993 C1002 0.930 . S
H994 C1007 0.929 . S
H995 C1005 0.929 . S
H996 C1000 0.929 . S
H997 C1006 0.929 . S
C998 H992 0.930 . S
C998 C999 1.367 . S
C998 C1006 1.378 . S
C999 C998 1.367 . S
C999 C1007 1.433 . S
C1000 H996 0.929 . S
C1000 C1002 1.378 . S
C1000 C1004 1.350 . S
C1001 C1004 1.463 . S
C1001 C1006 1.350 . S
C1001 N1009 1.427 . S
C1002 H993 0.930 . S
C1002 C1000 1.378 . S
C1002 C1003 1.367 . S
C1003 C1002 1.367 . S
C1003 C1005 1.433 . S
C1004 C1000 1.350 . S
C1004 C1001 1.463 . S
C1004 N1008 1.427 . S
C1005 H995 0.929 . S
C1005 C1003 1.433 . S
C1005 N1008 1.384 . S
C1006 H997 0.929 . S
C1006 C998 1.378 . S
C1006 C1001 1.350 . S
C1007 H994 0.929 . S
C1007 C999 1.433 . S
C1007 N1009 1.384 . S
N1008 C1004 1.427 . S
N1008 C1005 1.384 . S
N1009 C1001 1.427 . S
N1009 C1007 1.384 . S
H1010 C1016 0.930 . S
H1011 C1020 0.930 . S
H1012 C1025 0.929 . S
H1013 C1023 0.929 . S
H1014 C1018 0.929 . S
H1015 C1024 0.929 . S
C1016 H1010 0.930 . S
C1016 C1017 1.367 1_455 S
C1016 C1024 1.378 . S
C1017 C1016 1.367 1_655 S
C1017 C1025 1.433 . S
C1018 H1014 0.929 . S
C1018 C1020 1.378 . S
C1018 C1022 1.350 . S
C1019 C1022 1.463 . S
C1019 C1024 1.350 1_655 S
C1019 N1027 1.427 . S
C1020 H1011 0.930 . S
C1020 C1018 1.378 . S
C1020 C1021 1.367 . S
C1021 C1020 1.367 . S
C1021 C1023 1.433 1_655 S
C1022 C1018 1.350 . S
C1022 C1019 1.463 . S
C1022 N1026 1.427 1_655 S
C1023 H1013 0.929 . S
C1023 C1021 1.433 1_455 S
C1023 N1026 1.384 . S
C1024 H1015 0.929 . S
C1024 C1016 1.378 . S
C1024 C1019 1.350 1_455 S
C1025 H1012 0.929 . S
C1025 C1017 1.433 . S
C1025 N1027 1.384 . S
N1026 C1022 1.427 1_455 S
N1026 C1023 1.384 . S
N1027 C1019 1.427 . S
N1027 C1025 1.384 . S
H1028 C1034 0.930 . S
H1029 C1038 0.930 . S
H1030 C1043 0.929 . S
H1031 C1041 0.929 . S
H1032 C1036 0.929 . S
H1033 C1042 0.929 . S
C1034 H1028 0.930 . S
C1034 C1035 1.367 . S
C1034 C1042 1.378 . S
C1035 C1034 1.367 . S
C1035 C1043 1.433 . S
C1036 H1032 0.929 . S
C1036 C1038 1.378 . S
C1036 C1040 1.350 . S
C1037 C1040 1.463 . S
C1037 C1042 1.350 . S
C1037 N1045 1.427 . S
C1038 H1029 0.930 . S
C1038 C1036 1.378 . S
C1038 C1039 1.367 . S
C1039 C1038 1.367 . S
C1039 C1041 1.433 . S
C1040 C1036 1.350 . S
C1040 C1037 1.463 . S
C1040 N1044 1.427 . S
C1041 H1031 0.929 . S
C1041 C1039 1.433 . S
C1041 N1044 1.384 . S
C1042 H1033 0.929 . S
C1042 C1034 1.378 . S
C1042 C1037 1.350 . S
C1043 H1030 0.929 . S
C1043 C1035 1.433 . S
C1043 N1045 1.384 . S
N1044 C1040 1.427 . S
N1044 C1041 1.384 . S
N1045 C1037 1.427 . S
N1045 C1043 1.384 . S
H1046 C1052 0.930 . S
H1047 C1056 0.930 . S
H1048 C1061 0.929 1_455 S
H1049 C1059 0.929 . S
H1050 C1054 0.929 . S
H1051 C1060 0.929 . S
C1052 H1046 0.930 . S
C1052 C1053 1.367 . S
C1052 C1060 1.378 . S
C1053 C1052 1.367 . S
C1053 C1061 1.433 . S
C1054 H1050 0.929 . S
C1054 C1056 1.378 . S
C1054 C1058 1.350 1_455 S
C1055 C1058 1.463 . S
C1055 C1060 1.350 . S
C1055 N1063 1.427 1_655 S
C1056 H1047 0.930 . S
C1056 C1054 1.378 . S
C1056 C1057 1.367 1_455 S
C1057 C1056 1.367 1_655 S
C1057 C1059 1.433 . S
C1058 C1054 1.350 1_655 S
C1058 C1055 1.463 . S
C1058 N1062 1.427 . S
C1059 H1049 0.929 . S
C1059 C1057 1.433 . S
C1059 N1062 1.384 . S
C1060 H1051 0.929 . S
C1060 C1052 1.378 . S
C1060 C1055 1.350 . S
C1061 H1048 0.929 1_655 S
C1061 C1053 1.433 . S
C1061 N1063 1.384 1_655 S
N1062 C1058 1.427 . S
N1062 C1059 1.384 . S
N1063 C1055 1.427 1_455 S
N1063 C1061 1.384 1_455 S
H1064 C1070 0.930 . S
H1065 C1074 0.930 . S
H1066 C1079 0.929 . S
H1067 C1077 0.929 . S
H1068 C1072 0.929 . S
H1069 C1078 0.929 . S
C1070 H1064 0.930 . S
C1070 C1071 1.367 . S
C1070 C1078 1.378 . S
C1071 C1070 1.367 . S
C1071 C1079 1.433 . S
C1072 H1068 0.929 . S
C1072 C1074 1.378 . S
C1072 C1076 1.350 . S
C1073 C1076 1.463 . S
C1073 C1078 1.350 . S
C1073 N1081 1.427 . S
C1074 H1065 0.930 . S
C1074 C1072 1.378 . S
C1074 C1075 1.367 . S
C1075 C1074 1.367 . S
C1075 C1077 1.433 . S
C1076 C1072 1.350 . S
C1076 C1073 1.463 . S
C1076 N1080 1.427 . S
C1077 H1067 0.929 . S
C1077 C1075 1.433 . S
C1077 N1080 1.384 . S
C1078 H1069 0.929 . S
C1078 C1070 1.378 . S
C1078 C1073 1.350 . S
C1079 H1066 0.929 . S
C1079 C1071 1.433 . S
C1079 N1081 1.384 . S
N1080 C1076 1.427 . S
N1080 C1077 1.384 . S
N1081 C1073 1.427 . S
N1081 C1079 1.384 . S
H1082 C1088 0.930 . S
H1083 C1092 0.930 1_655 S
H1084 C1097 0.929 1_655 S
H1085 C1095 0.929 . S
H1086 C1090 0.929 1_655 S
H1087 C1096 0.929 . S
C1088 H1082 0.930 . S
C1088 C1089 1.367 . S
C1088 C1096 1.378 . S
C1089 C1088 1.367 . S
C1089 C1097 1.433 . S
C1090 H1086 0.929 1_455 S
C1090 C1092 1.378 . S
C1090 C1094 1.350 . S
C1091 C1094 1.463 . S
C1091 C1096 1.350 . S
C1091 N1099 1.427 . S
C1092 H1083 0.930 1_455 S
C1092 C1090 1.378 . S
C1092 C1093 1.367 . S
C1093 C1092 1.367 . S
C1093 C1095 1.433 . S
C1094 C1090 1.350 . S
C1094 C1091 1.463 . S
C1094 N1098 1.427 . S
C1095 H1085 0.929 . S
C1095 C1093 1.433 . S
C1095 N1098 1.384 . S
C1096 H1087 0.929 . S
C1096 C1088 1.378 . S
C1096 C1091 1.350 . S
C1097 H1084 0.929 1_455 S
C1097 C1089 1.433 . S
C1097 N1099 1.384 . S
N1098 C1094 1.427 . S
N1098 C1095 1.384 . S
N1099 C1091 1.427 . S
N1099 C1097 1.384 . S
H1100 C1106 0.930 . S
H1101 C1110 0.930 . S
H1102 C1115 0.929 . S
H1103 C1113 0.929 . S
H1104 C1108 0.929 . S
H1105 C1114 0.929 . S
C1106 H1100 0.930 . S
C1106 C1107 1.367 . S
C1106 C1114 1.378 . S
C1107 C1106 1.367 . S
C1107 C1115 1.433 . S
C1108 H1104 0.929 . S
C1108 C1110 1.378 . S
C1108 C1112 1.350 . S
C1109 C1112 1.463 . S
C1109 C1114 1.350 . S
C1109 N1117 1.427 . S
C1110 H1101 0.930 . S
C1110 C1108 1.378 . S
C1110 C1111 1.367 . S
C1111 C1110 1.367 . S
C1111 C1113 1.433 . S
C1112 C1108 1.350 . S
C1112 C1109 1.463 . S
C1112 N1116 1.427 . S
C1113 H1103 0.929 . S
C1113 C1111 1.433 . S
C1113 N1116 1.384 . S
C1114 H1105 0.929 . S
C1114 C1106 1.378 . S
C1114 C1109 1.350 . S
C1115 H1102 0.929 . S
C1115 C1107 1.433 . S
C1115 N1117 1.384 . S
N1116 C1112 1.427 . S
N1116 C1113 1.384 . S
N1117 C1109 1.427 . S
N1117 C1115 1.384 . S
H1118 C1124 0.930 . S
H1119 C1128 0.930 . S
H1120 C1133 0.929 . S
H1121 C1131 0.929 . S
H1122 C1126 0.929 . S
H1123 C1132 0.929 . S
C1124 H1118 0.930 . S
C1124 C1125 1.367 . S
C1124 C1132 1.378 . S
C1125 C1124 1.367 . S
C1125 C1133 1.433 . S
C1126 H1122 0.929 . S
C1126 C1128 1.378 . S
C1126 C1130 1.350 . S
C1127 C1130 1.463 . S
C1127 C1132 1.350 . S
C1127 N1135 1.427 . S
C1128 H1119 0.930 . S
C1128 C1126 1.378 . S
C1128 C1129 1.367 . S
C1129 C1128 1.367 . S
C1129 C1131 1.433 . S
C1130 C1126 1.350 . S
C1130 C1127 1.463 . S
C1130 N1134 1.427 . S
C1131 H1121 0.929 . S
C1131 C1129 1.433 . S
C1131 N1134 1.384 . S
C1132 H1123 0.929 . S
C1132 C1124 1.378 . S
C1132 C1127 1.350 . S
C1133 H1120 0.929 . S
C1133 C1125 1.433 . S
C1133 N1135 1.384 . S
N1134 C1130 1.427 . S
N1134 C1131 1.384 . S
N1135 C1127 1.427 . S
N1135 C1133 1.384 . S
H1136 C1142 0.930 . S
H1137 C1146 0.930 . S
H1138 C1151 0.929 . S
H1139 C1149 0.929 . S
H1140 C1144 0.929 . S
H1141 C1150 0.929 . S
C1142 H1136 0.930 . S
C1142 C1143 1.367 . S
C1142 C1150 1.378 . S
C1143 C1142 1.367 . S
C1143 C1151 1.433 . S
C1144 H1140 0.929 . S
C1144 C1146 1.378 . S
C1144 C1148 1.350 . S
C1145 C1148 1.463 . S
C1145 C1150 1.350 . S
C1145 N1153 1.427 . S
C1146 H1137 0.930 . S
C1146 C1144 1.378 . S
C1146 C1147 1.367 . S
C1147 C1146 1.367 . S
C1147 C1149 1.433 . S
C1148 C1144 1.350 . S
C1148 C1145 1.463 . S
C1148 N1152 1.427 . S
C1149 H1139 0.929 . S
C1149 C1147 1.433 . S
C1149 N1152 1.384 . S
C1150 H1141 0.929 . S
C1150 C1142 1.378 . S
C1150 C1145 1.350 . S
C1151 H1138 0.929 . S
C1151 C1143 1.433 . S
C1151 N1153 1.384 . S
N1152 C1148 1.427 . S
N1152 C1149 1.384 . S
N1153 C1145 1.427 . S
N1153 C1151 1.384 . S
H1154 C1160 0.930 1_455 S
H1155 C1164 0.930 . S
H1156 C1169 0.929 . S
H1157 C1167 0.929 1_455 S
H1158 C1162 0.929 . S
H1159 C1168 0.929 1_455 S
C1160 H1154 0.930 1_655 S
C1160 C1161 1.367 . S
C1160 C1168 1.378 . S
C1161 C1160 1.367 . S
C1161 C1169 1.433 . S
C1162 H1158 0.929 . S
C1162 C1164 1.378 . S
C1162 C1166 1.350 . S
C1163 C1166 1.463 . S
C1163 C1168 1.350 . S
C1163 N1171 1.427 . S
C1164 H1155 0.930 . S
C1164 C1162 1.378 . S
C1164 C1165 1.367 . S
C1165 C1164 1.367 . S
C1165 C1167 1.433 . S
C1166 C1162 1.350 . S
C1166 C1163 1.463 . S
C1166 N1170 1.427 . S
C1167 H1157 0.929 1_655 S
C1167 C1165 1.433 . S
C1167 N1170 1.384 . S
C1168 H1159 0.929 1_655 S
C1168 C1160 1.378 . S
C1168 C1163 1.350 . S
C1169 H1156 0.929 . S
C1169 C1161 1.433 . S
C1169 N1171 1.384 . S
N1170 C1166 1.427 . S
N1170 C1167 1.384 . S
N1171 C1163 1.427 . S
N1171 C1169 1.384 . S
H1172 C1178 0.930 . S
H1173 C1182 0.930 . S
H1174 C1187 0.929 . S
H1175 C1185 0.929 . S
H1176 C1180 0.929 . S
H1177 C1186 0.929 . S
C1178 H1172 0.930 . S
C1178 C1179 1.367 . S
C1178 C1186 1.378 . S
C1179 C1178 1.367 . S
C1179 C1187 1.433 . S
C1180 H1176 0.929 . S
C1180 C1182 1.378 . S
C1180 C1184 1.350 . S
C1181 C1184 1.463 . S
C1181 C1186 1.350 . S
C1181 N1189 1.427 . S
C1182 H1173 0.930 . S
C1182 C1180 1.378 . S
C1182 C1183 1.367 . S
C1183 C1182 1.367 . S
C1183 C1185 1.433 . S
C1184 C1180 1.350 . S
C1184 C1181 1.463 . S
C1184 N1188 1.427 . S
C1185 H1175 0.929 . S
C1185 C1183 1.433 . S
C1185 N1188 1.384 . S
C1186 H1177 0.929 . S
C1186 C1178 1.378 . S
C1186 C1181 1.350 . S
C1187 H1174 0.929 . S
C1187 C1179 1.433 . S
C1187 N1189 1.384 . S
N1188 C1184 1.427 . S
N1188 C1185 1.384 . S
N1189 C1181 1.427 . S
N1189 C1187 1.384 . S
H1190 C1196 0.930 . S
H1191 C1200 0.930 . S
H1192 C1205 0.929 1_455 S
H1193 C1203 0.929 . S
H1194 C1198 0.930 . S
H1195 C1204 0.929 . S
C1196 H1190 0.930 . S
C1196 C1197 1.367 . S
C1196 C1204 1.378 . S
C1197 C1196 1.367 . S
C1197 C1205 1.433 . S
C1198 H1194 0.930 . S
C1198 C1200 1.378 . S
C1198 C1202 1.350 . S
C1199 C1202 1.463 . S
C1199 C1204 1.350 . S
C1199 N1207 1.427 . S
C1200 H1191 0.930 . S
C1200 C1198 1.378 . S
C1200 C1201 1.367 . S
C1201 C1200 1.367 . S
C1201 C1203 1.433 . S
C1202 C1198 1.350 . S
C1202 C1199 1.463 . S
C1202 N1206 1.427 . S
C1203 H1193 0.929 . S
C1203 C1201 1.433 . S
C1203 N1206 1.384 . S
C1204 H1195 0.929 . S
C1204 C1196 1.378 . S
C1204 C1199 1.350 . S
C1205 H1192 0.929 1_655 S
C1205 C1197 1.433 . S
C1205 N1207 1.384 . S
N1206 C1202 1.427 . S
N1206 C1203 1.384 . S
N1207 C1199 1.427 . S
N1207 C1205 1.384 . S
H1208 C1214 0.930 . S
H1209 C1218 0.930 . S
H1210 C1223 0.929 . S
H1211 C1221 0.929 . S
H1212 C1216 0.929 . S
H1213 C1222 0.929 . S
C1214 H1208 0.930 . S
C1214 C1215 1.367 . S
C1214 C1222 1.378 . S
C1215 C1214 1.367 . S
C1215 C1223 1.433 . S
C1216 H1212 0.929 . S
C1216 C1218 1.378 . S
C1216 C1220 1.350 . S
C1217 C1220 1.463 . S
C1217 C1222 1.350 . S
C1217 N1225 1.427 . S
C1218 H1209 0.930 . S
C1218 C1216 1.378 . S
C1218 C1219 1.367 . S
C1219 C1218 1.367 . S
C1219 C1221 1.433 . S
C1220 C1216 1.350 . S
C1220 C1217 1.463 . S
C1220 N1224 1.427 . S
C1221 H1211 0.929 . S
C1221 C1219 1.433 . S
C1221 N1224 1.384 . S
C1222 H1213 0.929 . S
C1222 C1214 1.378 . S
C1222 C1217 1.350 . S
C1223 H1210 0.929 . S
C1223 C1215 1.433 . S
C1223 N1225 1.384 . S
N1224 C1220 1.427 . S
N1224 C1221 1.384 . S
N1225 C1217 1.427 . S
N1225 C1223 1.384 . S
H1226 C1232 0.930 1_655 S
H1227 C1236 0.930 . S
H1228 C1241 0.929 . S
H1229 C1239 0.929 1_655 S
H1230 C1234 0.929 . S
H1231 C1240 0.929 1_655 S
C1232 H1226 0.930 1_455 S
C1232 C1233 1.367 . S
C1232 C1240 1.378 . S
C1233 C1232 1.367 . S
C1233 C1241 1.433 . S
C1234 H1230 0.929 . S
C1234 C1236 1.378 . S
C1234 C1238 1.350 . S
C1235 C1238 1.463 . S
C1235 C1240 1.350 . S
C1235 N1243 1.427 . S
C1236 H1227 0.930 . S
C1236 C1234 1.378 . S
C1236 C1237 1.367 . S
C1237 C1236 1.367 . S
C1237 C1239 1.433 . S
C1238 C1234 1.350 . S
C1238 C1235 1.463 . S
C1238 N1242 1.427 . S
C1239 H1229 0.929 1_455 S
C1239 C1237 1.433 . S
C1239 N1242 1.384 . S
C1240 H1231 0.929 1_455 S
C1240 C1232 1.378 . S
C1240 C1235 1.350 . S
C1241 H1228 0.929 . S
C1241 C1233 1.433 . S
C1241 N1243 1.384 . S
N1242 C1238 1.427 . S
N1242 C1239 1.384 . S
N1243 C1235 1.427 . S
N1243 C1241 1.384 . S
H1244 C1250 0.930 . S
H1245 C1254 0.930 . S
H1246 C1259 0.929 . S
H1247 C1257 0.929 . S
H1248 C1252 0.929 . S
H1249 C1258 0.929 . S
C1250 H1244 0.930 . S
C1250 C1251 1.367 . S
C1250 C1258 1.378 . S
C1251 C1250 1.367 . S
C1251 C1259 1.433 . S
C1252 H1248 0.929 . S
C1252 C1254 1.378 . S
C1252 C1256 1.350 . S
C1253 C1256 1.463 . S
C1253 C1258 1.350 . S
C1253 N1261 1.427 . S
C1254 H1245 0.930 . S
C1254 C1252 1.378 . S
C1254 C1255 1.367 . S
C1255 C1254 1.367 . S
C1255 C1257 1.433 . S
C1256 C1252 1.350 . S
C1256 C1253 1.463 . S
C1256 N1260 1.427 . S
C1257 H1247 0.929 . S
C1257 C1255 1.433 . S
C1257 N1260 1.384 . S
C1258 H1249 0.929 . S
C1258 C1250 1.378 . S
C1258 C1253 1.350 . S
C1259 H1246 0.929 . S
C1259 C1251 1.433 . S
C1259 N1261 1.384 . S
N1260 C1256 1.427 . S
N1260 C1257 1.384 . S
N1261 C1253 1.427 . S
N1261 C1259 1.384 . S
H1262 C1268 0.930 . S
H1263 C1272 0.930 . S
H1264 C1277 0.929 1_655 S
H1265 C1275 0.929 . S
H1266 C1270 0.929 1_655 S
H1267 C1276 0.929 . S
C1268 H1262 0.930 . S
C1268 C1269 1.367 . S
C1268 C1276 1.378 . S
C1269 C1268 1.367 . S
C1269 C1277 1.433 . S
C1270 H1266 0.929 1_455 S
C1270 C1272 1.378 . S
C1270 C1274 1.350 . S
C1271 C1274 1.463 . S
C1271 C1276 1.350 . S
C1271 N1279 1.427 . S
C1272 H1263 0.930 . S
C1272 C1270 1.378 . S
C1272 C1273 1.367 . S
C1273 C1272 1.367 . S
C1273 C1275 1.433 . S
C1274 C1270 1.350 . S
C1274 C1271 1.463 . S
C1274 N1278 1.427 . S
C1275 H1265 0.929 . S
C1275 C1273 1.433 . S
C1275 N1278 1.384 . S
C1276 H1267 0.929 . S
C1276 C1268 1.378 . S
C1276 C1271 1.350 . S
C1277 H1264 0.929 1_455 S
C1277 C1269 1.433 . S
C1277 N1279 1.384 . S
N1278 C1274 1.427 . S
N1278 C1275 1.384 . S
N1279 C1271 1.427 . S
N1279 C1277 1.384 . S
H1280 C1286 0.930 . S
H1281 C1290 0.930 . S
H1282 C1295 0.929 . S
H1283 C1293 0.929 . S
H1284 C1288 0.933 . S
H1285 C1294 0.929 . S
C1286 H1280 0.930 . S
C1286 C1287 1.367 . S
C1286 C1294 1.378 . S
C1287 C1286 1.367 . S
C1287 C1295 1.433 1_456 S
C1288 H1284 0.933 . S
C1288 C1290 1.378 . S
C1288 C1292 1.332 1_554 S
C1289 C1292 1.464 . S
C1289 C1294 1.350 . S
C1289 N1297 1.427 1_556 S
C1290 H1281 0.930 . S
C1290 C1288 1.378 . S
C1290 C1291 1.341 1_554 S
C1291 C1290 1.341 1_556 S
C1291 C1293 1.460 . S
C1292 C1288 1.332 1_556 S
C1292 C1289 1.464 . S
C1292 N1296 1.446 . S
C1293 H1283 0.929 . S
C1293 C1291 1.460 . S
C1293 N1296 1.384 . S
C1294 H1285 0.929 . S
C1294 C1286 1.378 . S
C1294 C1289 1.350 . S
C1295 H1282 0.929 . S
C1295 C1287 1.433 1_654 S
C1295 N1297 1.384 1_655 S
N1296 C1292 1.446 . S
N1296 C1293 1.384 . S
N1297 C1289 1.427 1_554 S
N1297 C1295 1.384 1_455 S
H1298 C1304 0.930 . S
H1299 C1308 0.930 . S
H1300 C1313 0.929 . S
H1301 C1311 0.929 . S
H1302 C1306 0.929 . S
H1303 C1312 0.929 1_655 S
C1304 H1298 0.930 . S
C1304 C1305 1.367 . S
C1304 C1312 1.378 . S
C1305 C1304 1.367 . S
C1305 C1313 1.433 . S
C1306 H1302 0.929 . S
C1306 C1308 1.378 . S
C1306 C1310 1.350 . S
C1307 C1310 1.463 . S
C1307 C1312 1.350 . S
C1307 N1315 1.427 . S
C1308 H1299 0.930 . S
C1308 C1306 1.378 . S
C1308 C1309 1.367 . S
C1309 C1308 1.367 . S
C1309 C1311 1.433 1_455 S
C1310 C1306 1.350 . S
C1310 C1307 1.463 . S
C1310 N1314 1.427 1_455 S
C1311 H1301 0.929 . S
C1311 C1309 1.433 1_655 S
C1311 N1314 1.384 . S
C1312 H1303 0.929 1_455 S
C1312 C1304 1.378 . S
C1312 C1307 1.350 . S
C1313 H1300 0.929 . S
C1313 C1305 1.433 . S
C1313 N1315 1.384 . S
N1314 C1310 1.427 1_655 S
N1314 C1311 1.384 . S
N1315 C1307 1.427 . S
N1315 C1313 1.384 . S
H1316 C1322 0.930 . S
H1317 C1326 0.930 . S
H1318 C1331 0.929 . S
H1319 C1329 0.929 . S
H1320 C1324 0.929 . S
H1321 C1330 0.929 1_455 S
C1322 H1316 0.930 . S
C1322 C1323 1.367 1_455 S
C1322 C1330 1.378 1_455 S
C1323 C1322 1.367 1_655 S
C1323 C1331 1.433 1_554 S
C1324 H1320 0.929 . S
C1324 C1326 1.378 . S
C1324 C1328 1.331 1_556 S
C1325 C1328 1.464 . S
C1325 C1330 1.350 . S
C1325 N1333 1.427 1_554 S
C1326 H1317 0.930 . S
C1326 C1324 1.378 . S
C1326 C1327 1.341 1_556 S
C1327 C1326 1.341 1_554 S
C1327 C1329 1.460 . S
C1328 C1324 1.331 1_554 S
C1328 C1325 1.464 . S
C1328 N1332 1.446 . S
C1329 H1319 0.929 . S
C1329 C1327 1.460 . S
C1329 N1332 1.384 . S
C1330 H1321 0.929 1_655 S
C1330 C1322 1.378 1_655 S
C1330 C1325 1.350 . S
C1331 H1318 0.929 . S
C1331 C1323 1.433 1_556 S
C1331 N1333 1.384 . S
N1332 C1328 1.446 . S
N1332 C1329 1.384 . S
N1333 C1325 1.427 1_556 S
N1333 C1331 1.384 . S
H1334 C1340 0.930 . S
H1335 C1344 0.930 . S
H1336 C1349 0.929 . S
H1337 C1347 0.929 . S
H1338 C1342 0.929 . S
H1339 C1348 0.929 . S
C1340 H1334 0.930 . S
C1340 C1341 1.367 . S
C1340 C1348 1.378 . S
C1341 C1340 1.367 . S
C1341 C1349 1.433 . S
C1342 H1338 0.929 . S
C1342 C1344 1.378 . S
C1342 C1346 1.350 . S
C1343 C1346 1.463 . S
C1343 C1348 1.350 . S
C1343 N1351 1.427 . S
C1344 H1335 0.930 . S
C1344 C1342 1.378 . S
C1344 C1345 1.367 . S
C1345 C1344 1.367 . S
C1345 C1347 1.433 . S
C1346 C1342 1.350 . S
C1346 C1343 1.463 . S
C1346 N1350 1.427 . S
C1347 H1337 0.929 . S
C1347 C1345 1.433 . S
C1347 N1350 1.384 . S
C1348 H1339 0.929 . S
C1348 C1340 1.378 . S
C1348 C1343 1.350 . S
C1349 H1336 0.929 . S
C1349 C1341 1.433 . S
C1349 N1351 1.384 . S
N1350 C1346 1.427 . S
N1350 C1347 1.384 . S
N1351 C1343 1.427 . S
N1351 C1349 1.384 . S
H1352 C1358 0.930 . S
H1353 C1362 0.930 . S
H1354 C1367 0.929 . S
H1355 C1365 0.929 1_655 S
H1356 C1360 0.929 . S
H1357 C1366 0.929 . S
C1358 H1352 0.930 . S
C1358 C1359 1.367 1_655 S
C1358 C1366 1.378 . S
C1359 C1358 1.367 1_455 S
C1359 C1367 1.433 . S
C1360 H1356 0.929 . S
C1360 C1362 1.378 . S
C1360 C1364 1.350 . S
C1361 C1364 1.463 . S
C1361 C1366 1.350 1_455 S
C1361 N1369 1.427 . S
C1362 H1353 0.930 . S
C1362 C1360 1.378 . S
C1362 C1363 1.367 . S
C1363 C1362 1.367 . S
C1363 C1365 1.433 . S
C1364 C1360 1.350 . S
C1364 C1361 1.463 . S
C1364 N1368 1.427 . S
C1365 H1355 0.929 1_455 S
C1365 C1363 1.433 . S
C1365 N1368 1.384 . S
C1366 H1357 0.929 . S
C1366 C1358 1.378 . S
C1366 C1361 1.350 1_655 S
C1367 H1354 0.929 . S
C1367 C1359 1.433 . S
C1367 N1369 1.384 . S
N1368 C1364 1.427 . S
N1368 C1365 1.384 . S
N1369 C1361 1.427 . S
N1369 C1367 1.384 . S
H1370 C1376 0.930 . S
H1371 C1380 0.930 . S
H1372 C1385 0.929 . S
H1373 C1383 0.929 . S
H1374 C1378 0.929 . S
H1375 C1384 0.929 1_655 S
C1376 H1370 0.930 . S
C1376 C1377 1.367 . S
C1376 C1384 1.378 . S
C1377 C1376 1.367 . S
C1377 C1385 1.433 . S
C1378 H1374 0.929 . S
C1378 C1380 1.378 . S
C1378 C1382 1.350 . S
C1379 C1382 1.463 . S
C1379 C1384 1.350 . S
C1379 N1387 1.427 . S
C1380 H1371 0.930 . S
C1380 C1378 1.378 . S
C1380 C1381 1.367 . S
C1381 C1380 1.367 . S
C1381 C1383 1.433 1_455 S
C1382 C1378 1.350 . S
C1382 C1379 1.463 . S
C1382 N1386 1.431 . S
C1383 H1373 0.929 . S
C1383 C1381 1.433 1_655 S
C1383 N1386 1.382 1_655 S
C1384 H1375 0.929 1_455 S
C1384 C1376 1.378 . S
C1384 C1379 1.350 . S
C1385 H1372 0.929 . S
C1385 C1377 1.433 . S
C1385 N1387 1.384 . S
N1386 C1382 1.431 . S
N1386 C1383 1.382 1_455 S
N1387 C1379 1.427 . S
N1387 C1385 1.384 . S
H1388 C1394 0.930 . S
H1389 C1398 0.930 1_455 S
H1390 C1403 0.929 . S
H1391 C1401 0.929 . S
H1392 C1396 0.929 . S
H1393 C1402 0.929 . S
C1394 H1388 0.930 . S
C1394 C1395 1.367 . S
C1394 C1402 1.378 . S
C1395 C1394 1.367 . S
C1395 C1403 1.433 . S
C1396 H1392 0.929 . S
C1396 C1398 1.378 . S
C1396 C1400 1.350 . S
C1397 C1400 1.463 . S
C1397 C1402 1.350 . S
C1397 N1405 1.427 . S
C1398 H1389 0.930 1_655 S
C1398 C1396 1.378 . S
C1398 C1399 1.367 . S
C1399 C1398 1.367 . S
C1399 C1401 1.433 . S
C1400 C1396 1.350 . S
C1400 C1397 1.463 . S
C1400 N1404 1.427 . S
C1401 H1391 0.929 . S
C1401 C1399 1.433 . S
C1401 N1404 1.384 . S
C1402 H1393 0.929 . S
C1402 C1394 1.378 . S
C1402 C1397 1.350 . S
C1403 H1390 0.929 . S
C1403 C1395 1.433 . S
C1403 N1405 1.384 . S
N1404 C1400 1.427 . S
N1404 C1401 1.384 . S
N1405 C1397 1.427 . S
N1405 C1403 1.384 . S
H1406 C1412 0.930 . S
H1407 C1416 0.930 . S
H1408 C1421 0.929 . S
H1409 C1419 0.929 . S
H1410 C1414 0.929 . S
H1411 C1420 0.929 . S
C1412 H1406 0.930 . S
C1412 C1413 1.367 . S
C1412 C1420 1.378 . S
C1413 C1412 1.367 . S
C1413 C1421 1.433 . S
C1414 H1410 0.929 . S
C1414 C1416 1.378 . S
C1414 C1418 1.350 . S
C1415 C1418 1.463 . S
C1415 C1420 1.350 . S
C1415 N1423 1.427 . S
C1416 H1407 0.930 . S
C1416 C1414 1.378 . S
C1416 C1417 1.367 . S
C1417 C1416 1.367 . S
C1417 C1419 1.433 . S
C1418 C1414 1.350 . S
C1418 C1415 1.463 . S
C1418 N1422 1.427 . S
C1419 H1409 0.929 . S
C1419 C1417 1.433 . S
C1419 N1422 1.384 . S
C1420 H1411 0.929 . S
C1420 C1412 1.378 . S
C1420 C1415 1.350 . S
C1421 H1408 0.929 . S
C1421 C1413 1.433 . S
C1421 N1423 1.384 . S
N1422 C1418 1.427 . S
N1422 C1419 1.384 . S
N1423 C1415 1.427 . S
N1423 C1421 1.384 . S
H1424 C1430 0.930 . S
H1425 C1434 0.930 . S
H1426 C1439 0.929 . S
H1427 C1437 0.929 . S
H1428 C1432 0.929 . S
H1429 C1438 0.929 . S
C1430 H1424 0.930 . S
C1430 C1431 1.367 . S
C1430 C1438 1.378 . S
C1431 C1430 1.367 . S
C1431 C1439 1.433 . S
C1432 H1428 0.929 . S
C1432 C1434 1.378 . S
C1432 C1436 1.350 . S
C1433 C1436 1.463 . S
C1433 C1438 1.350 . S
C1433 N1441 1.427 . S
C1434 H1425 0.930 . S
C1434 C1432 1.378 . S
C1434 C1435 1.367 . S
C1435 C1434 1.367 . S
C1435 C1437 1.433 . S
C1436 C1432 1.350 . S
C1436 C1433 1.463 . S
C1436 N1440 1.427 . S
C1437 H1427 0.929 . S
C1437 C1435 1.433 . S
C1437 N1440 1.384 . S
C1438 H1429 0.929 . S
C1438 C1430 1.378 . S
C1438 C1433 1.350 . S
C1439 H1426 0.929 . S
C1439 C1431 1.433 . S
C1439 N1441 1.384 . S
N1440 C1436 1.427 . S
N1440 C1437 1.384 . S
N1441 C1433 1.427 . S
N1441 C1439 1.384 . S
H1442 C1448 0.930 . S
H1443 C1452 0.930 . S
H1444 C1457 0.929 . S
H1445 C1455 0.929 . S
H1446 C1450 0.929 . S
H1447 C1456 0.929 . S
C1448 H1442 0.930 . S
C1448 C1449 1.367 . S
C1448 C1456 1.378 . S
C1449 C1448 1.367 . S
C1449 C1457 1.433 . S
C1450 H1446 0.929 . S
C1450 C1452 1.378 . S
C1450 C1454 1.350 . S
C1451 C1454 1.463 . S
C1451 C1456 1.350 . S
C1451 N1459 1.427 . S
C1452 H1443 0.930 . S
C1452 C1450 1.378 . S
C1452 C1453 1.367 . S
C1453 C1452 1.367 . S
C1453 C1455 1.433 . S
C1454 C1450 1.350 . S
C1454 C1451 1.463 . S
C1454 N1458 1.427 . S
C1455 H1445 0.929 . S
C1455 C1453 1.433 . S
C1455 N1458 1.384 . S
C1456 H1447 0.929 . S
C1456 C1448 1.378 . S
C1456 C1451 1.350 . S
C1457 H1444 0.929 . S
C1457 C1449 1.433 . S
C1457 N1459 1.384 . S
N1458 C1454 1.427 . S
N1458 C1455 1.384 . S
N1459 C1451 1.427 . S
N1459 C1457 1.384 . S
H1460 C1466 0.930 . S
H1461 C1470 0.930 . S
H1462 C1475 0.929 . S
H1463 C1473 0.929 . S
H1464 C1468 0.929 . S
H1465 C1474 0.929 . S
C1466 H1460 0.930 . S
C1466 C1467 1.367 . S
C1466 C1474 1.378 . S
C1467 C1466 1.367 . S
C1467 C1475 1.433 . S
C1468 H1464 0.929 . S
C1468 C1470 1.378 . S
C1468 C1472 1.350 . S
C1469 C1472 1.463 . S
C1469 C1474 1.350 . S
C1469 N1477 1.427 . S
C1470 H1461 0.930 . S
C1470 C1468 1.378 . S
C1470 C1471 1.367 . S
C1471 C1470 1.367 . S
C1471 C1473 1.433 . S
C1472 C1468 1.350 . S
C1472 C1469 1.463 . S
C1472 N1476 1.427 . S
C1473 H1463 0.929 . S
C1473 C1471 1.433 . S
C1473 N1476 1.384 . S
C1474 H1465 0.929 . S
C1474 C1466 1.378 . S
C1474 C1469 1.350 . S
C1475 H1462 0.929 . S
C1475 C1467 1.433 . S
C1475 N1477 1.384 . S
N1476 C1472 1.427 . S
N1476 C1473 1.384 . S
N1477 C1469 1.427 . S
N1477 C1475 1.384 . S
H1478 C1484 0.930 . S
H1479 C1488 0.930 . S
H1480 C1493 0.929 . S
H1481 C1491 0.929 . S
H1482 C1486 0.929 . S
H1483 C1492 0.929 . S
C1484 H1478 0.930 . S
C1484 C1485 1.367 . S
C1484 C1492 1.378 . S
C1485 C1484 1.367 . S
C1485 C1493 1.433 . S
C1486 H1482 0.929 . S
C1486 C1488 1.378 . S
C1486 C1490 1.350 . S
C1487 C1490 1.463 . S
C1487 C1492 1.350 . S
C1487 N1495 1.427 . S
C1488 H1479 0.930 . S
C1488 C1486 1.378 . S
C1488 C1489 1.367 . S
C1489 C1488 1.367 . S
C1489 C1491 1.433 . S
C1490 C1486 1.350 . S
C1490 C1487 1.463 . S
C1490 N1494 1.427 . S
C1491 H1481 0.929 . S
C1491 C1489 1.433 . S
C1491 N1494 1.384 . S
C1492 H1483 0.929 . S
C1492 C1484 1.378 . S
C1492 C1487 1.350 . S
C1493 H1480 0.929 . S
C1493 C1485 1.433 . S
C1493 N1495 1.384 . S
N1494 C1490 1.427 . S
N1494 C1491 1.384 . S
N1495 C1487 1.427 . S
N1495 C1493 1.384 . S
H1496 C1502 0.930 . S
H1497 C1506 0.930 . S
H1498 C1511 0.929 . S
H1499 C1509 0.929 . S
H1500 C1504 0.929 . S
H1501 C1510 0.929 . S
C1502 H1496 0.930 . S
C1502 C1503 1.367 . S
C1502 C1510 1.378 . S
C1503 C1502 1.367 . S
C1503 C1511 1.433 1_556 S
C1504 H1500 0.929 . S
C1504 C1506 1.378 . S
C1504 C1508 1.332 1_554 S
C1505 C1508 1.464 . S
C1505 C1510 1.350 . S
C1505 N1513 1.427 1_556 S
C1506 H1497 0.930 . S
C1506 C1504 1.378 . S
C1506 C1507 1.343 1_554 S
C1507 C1506 1.343 1_556 S
C1507 C1509 1.458 . S
C1508 C1504 1.332 1_556 S
C1508 C1505 1.464 . S
C1508 N1512 1.446 . S
C1509 H1499 0.929 . S
C1509 C1507 1.458 . S
C1509 N1512 1.384 . S
C1510 H1501 0.929 . S
C1510 C1502 1.378 . S
C1510 C1505 1.350 . S
C1511 H1498 0.929 . S
C1511 C1503 1.433 1_554 S
C1511 N1513 1.384 . S
N1512 C1508 1.446 . S
N1512 C1509 1.384 . S
N1513 C1505 1.427 1_554 S
N1513 C1511 1.384 . S
H1514 C1520 0.930 . S
H1515 C1524 0.930 . S
H1516 C1529 0.929 . S
H1517 C1527 0.929 . S
H1518 C1522 0.929 . S
H1519 C1528 0.929 . S
C1520 H1514 0.930 . S
C1520 C1521 1.367 . S
C1520 C1528 1.378 . S
C1521 C1520 1.367 . S
C1521 C1529 1.433 . S
C1522 H1518 0.929 . S
C1522 C1524 1.378 . S
C1522 C1526 1.350 . S
C1523 C1526 1.463 . S
C1523 C1528 1.350 . S
C1523 N1531 1.427 . S
C1524 H1515 0.930 . S
C1524 C1522 1.378 . S
C1524 C1525 1.367 . S
C1525 C1524 1.367 . S
C1525 C1527 1.433 . S
C1526 C1522 1.350 . S
C1526 C1523 1.463 . S
C1526 N1530 1.427 . S
C1527 H1517 0.929 . S
C1527 C1525 1.433 . S
C1527 N1530 1.384 . S
C1528 H1519 0.929 . S
C1528 C1520 1.378 . S
C1528 C1523 1.350 . S
C1529 H1516 0.929 . S
C1529 C1521 1.433 . S
C1529 N1531 1.384 . S
N1530 C1526 1.427 . S
N1530 C1527 1.384 . S
N1531 C1523 1.427 . S
N1531 C1529 1.384 . S
H1532 C1538 0.930 . S
H1533 C1542 0.930 . S
H1534 C1547 0.929 . S
H1535 C1545 0.929 . S
H1536 C1540 0.929 . S
H1537 C1546 0.929 . S
C1538 H1532 0.930 . S
C1538 C1539 1.341 1_556 S
C1538 C1546 1.378 . S
C1539 C1538 1.341 1_554 S
C1539 C1547 1.460 . S
C1540 H1536 0.929 . S
C1540 C1542 1.378 . S
C1540 C1544 1.350 . S
C1541 C1544 1.464 . S
C1541 C1546 1.332 1_554 S
C1541 N1549 1.446 . S
C1542 H1533 0.930 . S
C1542 C1540 1.378 . S
C1542 C1543 1.367 . S
C1543 C1542 1.367 . S
C1543 C1545 1.433 1_554 S
C1544 C1540 1.350 . S
C1544 C1541 1.464 . S
C1544 N1548 1.427 1_554 S
C1545 H1535 0.929 . S
C1545 C1543 1.433 1_556 S
C1545 N1548 1.384 . S
C1546 H1537 0.929 . S
C1546 C1538 1.378 . S
C1546 C1541 1.332 1_556 S
C1547 H1534 0.929 . S
C1547 C1539 1.460 . S
C1547 N1549 1.384 . S
N1548 C1544 1.427 1_556 S
N1548 C1545 1.384 . S
N1549 C1541 1.446 . S
N1549 C1547 1.384 . S
H1550 C1556 0.930 . S
H1551 C1560 0.930 . S
H1552 C1565 0.929 . S
H1553 C1563 0.929 . S
H1554 C1558 0.929 . S
H1555 C1564 0.929 . S
C1556 H1550 0.930 . S
C1556 C1557 1.367 . S
C1556 C1564 1.378 . S
C1557 C1556 1.367 . S
C1557 C1565 1.433 . S
C1558 H1554 0.929 . S
C1558 C1560 1.378 . S
C1558 C1562 1.350 . S
C1559 C1562 1.463 . S
C1559 C1564 1.350 . S
C1559 N1567 1.427 . S
C1560 H1551 0.930 . S
C1560 C1558 1.378 . S
C1560 C1561 1.367 . S
C1561 C1560 1.367 . S
C1561 C1563 1.433 . S
C1562 C1558 1.350 . S
C1562 C1559 1.463 . S
C1562 N1566 1.427 . S
C1563 H1553 0.929 . S
C1563 C1561 1.433 . S
C1563 N1566 1.384 . S
C1564 H1555 0.929 . S
C1564 C1556 1.378 . S
C1564 C1559 1.350 . S
C1565 H1552 0.929 . S
C1565 C1557 1.433 . S
C1565 N1567 1.384 . S
N1566 C1562 1.427 . S
N1566 C1563 1.384 . S
N1567 C1559 1.427 . S
N1567 C1565 1.384 . S
C423 C3 1.488 . S
C427 C42 1.484 1_455 S
C441 C29 1.488 . S
C445 C16 1.484 1_455 S
C459 C94 1.469 . S
C463 C55 1.465 . S
C477 C81 1.469 . S
C481 C68 1.464 . S
C495 C107 1.487 . S
C499 C146 1.487 1_455 S
C513 C120 1.487 1_455 S
C517 C133 1.487 . S
C531 C198 1.469 . S
C535 C159 1.468 . S
C549 C185 1.476 . S
C553 C172 1.475 . S
C567 C211 1.488 . S
C571 C250 1.488 . S
C585 C224 1.488 . S
C589 C237 1.488 . S
C603 C263 1.476 . S
C607 C302 1.475 . S
C621 C276 1.466 . S
C625 C289 1.467 . S
C639 C315 1.492 . S
C643 C354 1.490 . S
C657 C341 1.488 . S
C661 C328 1.485 . S
C675 C406 1.474 . S
C679 C367 1.476 . S
C693 C393 1.475 . S
C697 C380 1.476 . S
C711 C5 1.492 1_556 S
C715 C57 1.496 . S
C729 C382 1.497 . S
C733 C18 1.484 1_556 S
C747 C31 1.484 . S
C751 C187 1.495 . S
C765 C304 1.492 . S
C769 C44 1.487 . S
C783 C330 1.486 1_556 S
C787 C70 1.496 . S
C801 C83 1.493 . S
C805 C135 1.486 . S
C819 C96 1.491 . S
C823 C252 1.485 . S
C837 C161 1.489 . S
C841 C109 1.484 . S
C855 C278 1.487 . S
C859 C122 1.490 . S
C873 C148 1.486 . S
C877 C408 1.495 . S
C891 C174 1.491 . S
C895 C226 1.489 . S
C909 C200 1.493 . S
C913 C356 1.487 . S
C927 C265 1.493 . S
C931 C213 1.486 . S
C945 C239 1.486 . S
C949 C395 1.493 . S
C963 C291 1.493 . S
C967 C343 1.489 . S
C981 C369 1.492 . S
C985 C317 1.491 1_556 S
C999 C1 1.531 . S
C1003 C248 1.533 . S
C1017 C14 1.529 . S
C1021 C235 1.533 . S
C1035 C222 1.532 . S
C1039 C27 1.534 . S
C1053 C209 1.534 . S
C1057 C40 1.535 . S
C1071 C53 1.514 . S
C1075 C300 1.521 . S
C1089 C66 1.519 . S
C1093 C287 1.524 . S
C1107 C79 1.523 . S
C1111 C274 1.523 . S
C1125 C261 1.519 . S
C1129 C92 1.520 . S
C1143 C105 1.536 . S
C1147 C352 1.534 . S
C1161 C339 1.532 . S
C1165 C118 1.534 . S
C1179 C326 1.530 . S
C1183 C131 1.531 . S
C1197 C144 1.528 . S
C1201 C313 1.533 . S
C1215 C157 1.520 . S
C1219 C404 1.520 . S
C1233 C170 1.519 . S
C1237 C391 1.519 . S
C1251 C378 1.518 . S
C1255 C183 1.520 . S
C1269 C196 1.520 . S
C1273 C365 1.521 . S
C1287 C23 1.494 . S
C1291 C10 1.496 . S
C1305 C36 1.497 . S
C1309 C49 1.494 1_455 S
C1323 C75 1.497 . S
C1327 C62 1.501 . S
C1341 C88 1.495 . S
C1345 C101 1.498 . S
C1359 C127 1.492 1_455 S
C1363 C114 1.492 . S
C1377 C140 1.492 . S
C1381 C153 1.493 . S
C1395 C166 1.496 . S
C1399 C179 1.498 . S
C1413 C192 1.496 . S
C1417 C205 1.494 . S
C1431 C218 1.491 . S
C1435 C231 1.491 . S
C1449 C257 1.489 . S
C1453 C244 1.489 . S
C1467 C270 1.495 . S
C1471 C283 1.497 . S
C1485 C309 1.497 . S
C1489 C296 1.495 . S
C1503 C335 1.495 . S
C1507 C322 1.498 . S
C1521 C348 1.495 . S
C1525 C361 1.496 . S
C1539 C374 1.499 . S
C1543 C387 1.494 . S
C1557 C413 1.499 . S
C1561 C400 1.497 . S
