# Generated by pormake.
# Topology flu-e, (6)-cn, num edge types: 1
# Building blocks:
#     Node 0, Type 0, BuildingBlock: IZENUY_clean_sbu_0, # of connection points: 6
#     Node 1, Type 0, BuildingBlock: IZENUY_clean_sbu_0, # of connection points: 6
#     Node 2, Type 0, BuildingBlock: IZENUY_clean_sbu_0, # of connection points: 6
#     Node 3, Type 0, BuildingBlock: IZENUY_clean_sbu_0, # of connection points: 6
#     Node 4, Type 0, BuildingBlock: IZENUY_clean_sbu_0, # of connection points: 6
#     Node 5, Type 0, BuildingBlock: IZENUY_clean_sbu_0, # of connection points: 6
#     Node 6, Type 0, BuildingBlock: IZENUY_clean_sbu_0, # of connection points: 6
#     Node 7, Type 0, BuildingBlock: IZENUY_clean_sbu_0, # of connection points: 6
#     Node 8, Type 0, BuildingBlock: IZENUY_clean_sbu_0, # of connection points: 6
#     Node 9, Type 0, BuildingBlock: IZENUY_clean_sbu_0, # of connection points: 6
#     Node 10, Type 0, BuildingBlock: IZENUY_clean_sbu_0, # of connection points: 6
#     Node 11, Type 0, BuildingBlock: IZENUY_clean_sbu_0, # of connection points: 6
#     Node 12, Type 0, BuildingBlock: IZENUY_clean_sbu_0, # of connection points: 6
#     Node 13, Type 0, BuildingBlock: IZENUY_clean_sbu_0, # of connection points: 6
#     Node 14, Type 0, BuildingBlock: IZENUY_clean_sbu_0, # of connection points: 6
#     Node 15, Type 0, BuildingBlock: IZENUY_clean_sbu_0, # of connection points: 6
#     Node 16, Type 0, BuildingBlock: IZENUY_clean_sbu_0, # of connection points: 6
#     Node 17, Type 0, BuildingBlock: IZENUY_clean_sbu_0, # of connection points: 6
#     Node 18, Type 0, BuildingBlock: IZENUY_clean_sbu_0, # of connection points: 6
#     Node 19, Type 0, BuildingBlock: IZENUY_clean_sbu_0, # of connection points: 6
#     Node 20, Type 0, BuildingBlock: IZENUY_clean_sbu_0, # of connection points: 6
#     Node 21, Type 0, BuildingBlock: IZENUY_clean_sbu_0, # of connection points: 6
#     Node 22, Type 0, BuildingBlock: IZENUY_clean_sbu_0, # of connection points: 6
#     Node 23, Type 0, BuildingBlock: IZENUY_clean_sbu_0, # of connection points: 6
#     Node 24, Type 0, BuildingBlock: IZENUY_clean_sbu_0, # of connection points: 6
#     Node 25, Type 0, BuildingBlock: IZENUY_clean_sbu_0, # of connection points: 6
#     Node 26, Type 0, BuildingBlock: IZENUY_clean_sbu_0, # of connection points: 6
#     Node 27, Type 0, BuildingBlock: IZENUY_clean_sbu_0, # of connection points: 6
#     Node 28, Type 0, BuildingBlock: IZENUY_clean_sbu_0, # of connection points: 6
#     Node 29, Type 0, BuildingBlock: IZENUY_clean_sbu_0, # of connection points: 6
#     Node 30, Type 0, BuildingBlock: IZENUY_clean_sbu_0, # of connection points: 6
#     Node 31, Type 0, BuildingBlock: IZENUY_clean_sbu_0, # of connection points: 6
#     Edge 32, Type (0, 0), BuildingBlock: EZIPEK_clean_linker_0, # of connection points: 2
#     Edge 33, Type (0, 0), BuildingBlock: EZIPEK_clean_linker_0, # of connection points: 2
#     Edge 34, Type (0, 0), BuildingBlock: EZIPEK_clean_linker_0, # of connection points: 2
#     Edge 35, Type (0, 0), BuildingBlock: EZIPEK_clean_linker_0, # of connection points: 2
#     Edge 36, Type (0, 0), BuildingBlock: EZIPEK_clean_linker_0, # of connection points: 2
#     Edge 37, Type (0, 0), BuildingBlock: EZIPEK_clean_linker_0, # of connection points: 2
#     Edge 38, Type (0, 0), BuildingBlock: EZIPEK_clean_linker_0, # of connection points: 2
#     Edge 39, Type (0, 0), BuildingBlock: EZIPEK_clean_linker_0, # of connection points: 2
#     Edge 40, Type (0, 0), BuildingBlock: EZIPEK_clean_linker_0, # of connection points: 2
#     Edge 41, Type (0, 0), BuildingBlock: EZIPEK_clean_linker_0, # of connection points: 2
#     Edge 42, Type (0, 0), BuildingBlock: EZIPEK_clean_linker_0, # of connection points: 2
#     Edge 43, Type (0, 0), BuildingBlock: EZIPEK_clean_linker_0, # of connection points: 2
#     Edge 44, Type (0, 0), BuildingBlock: EZIPEK_clean_linker_0, # of connection points: 2
#     Edge 45, Type (0, 0), BuildingBlock: EZIPEK_clean_linker_0, # of connection points: 2
#     Edge 46, Type (0, 0), BuildingBlock: EZIPEK_clean_linker_0, # of connection points: 2
#     Edge 47, Type (0, 0), BuildingBlock: EZIPEK_clean_linker_0, # of connection points: 2
#     Edge 48, Type (0, 0), BuildingBlock: EZIPEK_clean_linker_0, # of connection points: 2
#     Edge 49, Type (0, 0), BuildingBlock: EZIPEK_clean_linker_0, # of connection points: 2
#     Edge 50, Type (0, 0), BuildingBlock: EZIPEK_clean_linker_0, # of connection points: 2
#     Edge 51, Type (0, 0), BuildingBlock: EZIPEK_clean_linker_0, # of connection points: 2
#     Edge 52, Type (0, 0), BuildingBlock: EZIPEK_clean_linker_0, # of connection points: 2
#     Edge 53, Type (0, 0), BuildingBlock: EZIPEK_clean_linker_0, # of connection points: 2
#     Edge 54, Type (0, 0), BuildingBlock: EZIPEK_clean_linker_0, # of connection points: 2
#     Edge 55, Type (0, 0), BuildingBlock: EZIPEK_clean_linker_0, # of connection points: 2
#     Edge 56, Type (0, 0), BuildingBlock: EZIPEK_clean_linker_0, # of connection points: 2
#     Edge 57, Type (0, 0), BuildingBlock: EZIPEK_clean_linker_0, # of connection points: 2
#     Edge 58, Type (0, 0), BuildingBlock: EZIPEK_clean_linker_0, # of connection points: 2
#     Edge 59, Type (0, 0), BuildingBlock: EZIPEK_clean_linker_0, # of connection points: 2
#     Edge 60, Type (0, 0), BuildingBlock: EZIPEK_clean_linker_0, # of connection points: 2
#     Edge 61, Type (0, 0), BuildingBlock: EZIPEK_clean_linker_0, # of connection points: 2
#     Edge 62, Type (0, 0), BuildingBlock: EZIPEK_clean_linker_0, # of connection points: 2
#     Edge 63, Type (0, 0), BuildingBlock: EZIPEK_clean_linker_0, # of connection points: 2
#     Edge 64, Type (0, 0), BuildingBlock: EZIPEK_clean_linker_0, # of connection points: 2
#     Edge 65, Type (0, 0), BuildingBlock: EZIPEK_clean_linker_0, # of connection points: 2
#     Edge 66, Type (0, 0), BuildingBlock: EZIPEK_clean_linker_0, # of connection points: 2
#     Edge 67, Type (0, 0), BuildingBlock: EZIPEK_clean_linker_0, # of connection points: 2
#     Edge 68, Type (0, 0), BuildingBlock: EZIPEK_clean_linker_0, # of connection points: 2
#     Edge 69, Type (0, 0), BuildingBlock: EZIPEK_clean_linker_0, # of connection points: 2
#     Edge 70, Type (0, 0), BuildingBlock: EZIPEK_clean_linker_0, # of connection points: 2
#     Edge 71, Type (0, 0), BuildingBlock: EZIPEK_clean_linker_0, # of connection points: 2
#     Edge 72, Type (0, 0), BuildingBlock: EZIPEK_clean_linker_0, # of connection points: 2
#     Edge 73, Type (0, 0), BuildingBlock: EZIPEK_clean_linker_0, # of connection points: 2
#     Edge 74, Type (0, 0), BuildingBlock: EZIPEK_clean_linker_0, # of connection points: 2
#     Edge 75, Type (0, 0), BuildingBlock: EZIPEK_clean_linker_0, # of connection points: 2
#     Edge 76, Type (0, 0), BuildingBlock: EZIPEK_clean_linker_0, # of connection points: 2
#     Edge 77, Type (0, 0), BuildingBlock: EZIPEK_clean_linker_0, # of connection points: 2
#     Edge 78, Type (0, 0), BuildingBlock: EZIPEK_clean_linker_0, # of connection points: 2
#     Edge 79, Type (0, 0), BuildingBlock: EZIPEK_clean_linker_0, # of connection points: 2
#     Edge 80, Type (0, 0), BuildingBlock: EZIPEK_clean_linker_0, # of connection points: 2
#     Edge 81, Type (0, 0), BuildingBlock: EZIPEK_clean_linker_0, # of connection points: 2
#     Edge 82, Type (0, 0), BuildingBlock: EZIPEK_clean_linker_0, # of connection points: 2
#     Edge 83, Type (0, 0), BuildingBlock: EZIPEK_clean_linker_0, # of connection points: 2
#     Edge 84, Type (0, 0), BuildingBlock: EZIPEK_clean_linker_0, # of connection points: 2
#     Edge 85, Type (0, 0), BuildingBlock: EZIPEK_clean_linker_0, # of connection points: 2
#     Edge 86, Type (0, 0), BuildingBlock: EZIPEK_clean_linker_0, # of connection points: 2
#     Edge 87, Type (0, 0), BuildingBlock: EZIPEK_clean_linker_0, # of connection points: 2
#     Edge 88, Type (0, 0), BuildingBlock: EZIPEK_clean_linker_0, # of connection points: 2
#     Edge 89, Type (0, 0), BuildingBlock: EZIPEK_clean_linker_0, # of connection points: 2
#     Edge 90, Type (0, 0), BuildingBlock: EZIPEK_clean_linker_0, # of connection points: 2
#     Edge 91, Type (0, 0), BuildingBlock: EZIPEK_clean_linker_0, # of connection points: 2
#     Edge 92, Type (0, 0), BuildingBlock: EZIPEK_clean_linker_0, # of connection points: 2
#     Edge 93, Type (0, 0), BuildingBlock: EZIPEK_clean_linker_0, # of connection points: 2
#     Edge 94, Type (0, 0), BuildingBlock: EZIPEK_clean_linker_0, # of connection points: 2
#     Edge 95, Type (0, 0), BuildingBlock: EZIPEK_clean_linker_0, # of connection points: 2
#     Edge 96, Type (0, 0), BuildingBlock: EZIPEK_clean_linker_0, # of connection points: 2
#     Edge 97, Type (0, 0), BuildingBlock: EZIPEK_clean_linker_0, # of connection points: 2
#     Edge 98, Type (0, 0), BuildingBlock: EZIPEK_clean_linker_0, # of connection points: 2
#     Edge 99, Type (0, 0), BuildingBlock: EZIPEK_clean_linker_0, # of connection points: 2
#     Edge 100, Type (0, 0), BuildingBlock: EZIPEK_clean_linker_0, # of connection points: 2
#     Edge 101, Type (0, 0), BuildingBlock: EZIPEK_clean_linker_0, # of connection points: 2
#     Edge 102, Type (0, 0), BuildingBlock: EZIPEK_clean_linker_0, # of connection points: 2
#     Edge 103, Type (0, 0), BuildingBlock: EZIPEK_clean_linker_0, # of connection points: 2
#     Edge 104, Type (0, 0), BuildingBlock: EZIPEK_clean_linker_0, # of connection points: 2
#     Edge 105, Type (0, 0), BuildingBlock: EZIPEK_clean_linker_0, # of connection points: 2
#     Edge 106, Type (0, 0), BuildingBlock: EZIPEK_clean_linker_0, # of connection points: 2
#     Edge 107, Type (0, 0), BuildingBlock: EZIPEK_clean_linker_0, # of connection points: 2
#     Edge 108, Type (0, 0), BuildingBlock: EZIPEK_clean_linker_0, # of connection points: 2
#     Edge 109, Type (0, 0), BuildingBlock: EZIPEK_clean_linker_0, # of connection points: 2
#     Edge 110, Type (0, 0), BuildingBlock: EZIPEK_clean_linker_0, # of connection points: 2
#     Edge 111, Type (0, 0), BuildingBlock: EZIPEK_clean_linker_0, # of connection points: 2
#     Edge 112, Type (0, 0), BuildingBlock: EZIPEK_clean_linker_0, # of connection points: 2
#     Edge 113, Type (0, 0), BuildingBlock: EZIPEK_clean_linker_0, # of connection points: 2
#     Edge 114, Type (0, 0), BuildingBlock: EZIPEK_clean_linker_0, # of connection points: 2
#     Edge 115, Type (0, 0), BuildingBlock: EZIPEK_clean_linker_0, # of connection points: 2
#     Edge 116, Type (0, 0), BuildingBlock: EZIPEK_clean_linker_0, # of connection points: 2
#     Edge 117, Type (0, 0), BuildingBlock: EZIPEK_clean_linker_0, # of connection points: 2
#     Edge 118, Type (0, 0), BuildingBlock: EZIPEK_clean_linker_0, # of connection points: 2
#     Edge 119, Type (0, 0), BuildingBlock: EZIPEK_clean_linker_0, # of connection points: 2
#     Edge 120, Type (0, 0), BuildingBlock: EZIPEK_clean_linker_0, # of connection points: 2
#     Edge 121, Type (0, 0), BuildingBlock: EZIPEK_clean_linker_0, # of connection points: 2
#     Edge 122, Type (0, 0), BuildingBlock: EZIPEK_clean_linker_0, # of connection points: 2
#     Edge 123, Type (0, 0), BuildingBlock: EZIPEK_clean_linker_0, # of connection points: 2
#     Edge 124, Type (0, 0), BuildingBlock: EZIPEK_clean_linker_0, # of connection points: 2
#     Edge 125, Type (0, 0), BuildingBlock: EZIPEK_clean_linker_0, # of connection points: 2
#     Edge 126, Type (0, 0), BuildingBlock: EZIPEK_clean_linker_0, # of connection points: 2
#     Edge 127, Type (0, 0), BuildingBlock: EZIPEK_clean_linker_0, # of connection points: 2
# Relax obj value: 0.165
# Max RMSD: 0.166
# Mean RMSD: 0.166
data_MOF--net-flu-e--node1-IZENUY_clean_sbu_0--edge1-EZIPEK_clean_linker_0
_symmetry_space_group_name_H-M    P1
_symmetry_Int_Tables_number       1
_symmetry_cell_setting            triclinic
loop_
_symmetry_equiv_pos_as_xyz
'x, y, z'
_cell_length_a     39.787385
_cell_length_b     39.856911
_cell_length_c     39.847768
_cell_angle_alpha  90.007561
_cell_angle_beta   90.00366
_cell_angle_gamma 90.129106
loop_
_atom_site_label
_atom_site_type_symbol
_atom_site_fract_x
_atom_site_fract_y
_atom_site_fract_z
_atom_type_partial_charge
Fe0 Fe 0.13496 0.19755 0.38165 0.0
Fe1 Fe 0.19401 0.14798 0.38278 0.0
O2 O 0.15657 0.16297 0.36368 0.0
Fe3 Fe 0.14065 0.14374 0.32652 0.0
O4 O 0.12403 0.18292 0.30835 0.0
O5 O 0.14041 0.22197 0.34378 0.0
O6 O 0.17287 0.21873 0.39809 0.0
C7 C 0.20334 0.21591 0.38957 0.0
C8 C 0.08193 0.15498 0.36014 0.0
O9 O 0.21446 0.18837 0.37897 0.0
C10 C 0.16427 0.08839 0.36493 0.0
O11 O 0.12825 0.17514 0.4207 0.0
O12 O 0.1803 0.15722 0.42603 0.0
O13 O 0.10085 0.13357 0.34661 0.0
O14 O 0.09302 0.18351 0.36853 0.0
C15 C 0.20824 0.14436 0.31268 0.0
O16 O 0.1767 0.10612 0.38803 0.0
O17 O 0.15474 0.10124 0.33751 0.0
C18 C 0.15182 0.16397 0.43863 0.0
O19 O 0.2146 0.13667 0.3429 0.0
O20 O 0.17902 0.15233 0.30353 0.0
C21 C 0.1314 0.21315 0.3148 0.0
Fe22 Fe 0.87958 0.19223 0.3775 0.0
Fe23 Fe 0.87902 0.13622 0.32343 0.0
O24 O 0.86074 0.15544 0.35975 0.0
Fe25 Fe 0.82367 0.13771 0.37818 0.0
O26 O 0.80482 0.17821 0.38955 0.0
O27 O 0.84135 0.21644 0.37328 0.0
O28 O 0.8924 0.21021 0.33669 0.0
C29 C 0.88467 0.203 0.30661 0.0
C30 C 0.85822 0.15534 0.43553 0.0
O31 O 0.87505 0.17397 0.29867 0.0
C32 C 0.86223 0.0803 0.36015 0.0
O33 O 0.92011 0.17159 0.38341 0.0
O34 O 0.92244 0.14654 0.33429 0.0
O35 O 0.84347 0.13272 0.41901 0.0
O36 O 0.86933 0.18158 0.42138 0.0
C37 C 0.80879 0.13071 0.31124 0.0
O38 O 0.88485 0.09647 0.34499 0.0
O39 O 0.83513 0.09411 0.36921 0.0
C40 C 0.93663 0.15688 0.3607 0.0
O41 O 0.83888 0.12288 0.30485 0.0
O42 O 0.80016 0.14096 0.33971 0.0
C43 C 0.81205 0.20819 0.38196 0.0
Fe44 Fe 0.82737 0.87738 0.38503 0.0
Fe45 Fe 0.88148 0.88031 0.32875 0.0
O46 O 0.86326 0.85977 0.36451 0.0
Fe47 Fe 0.88148 0.82165 0.37938 0.0
O48 O 0.8419 0.80165 0.39173 0.0
O49 O 0.80295 0.83929 0.38154 0.0
O50 O 0.80722 0.89021 0.34555 0.0
C51 C 0.81368 0.88437 0.31491 0.0
C52 C 0.86788 0.85404 0.43928 0.0
O53 O 0.84283 0.87665 0.3051 0.0
C54 C 0.93823 0.86197 0.36361 0.0
O55 O 0.8475 0.91808 0.39122 0.0
O56 O 0.87046 0.92288 0.34146 0.0
O57 O 0.88857 0.83847 0.42113 0.0
O58 O 0.84113 0.86642 0.42749 0.0
C59 C 0.88569 0.812 0.31106 0.0
O60 O 0.92179 0.8855 0.35002 0.0
O61 O 0.92421 0.83423 0.3694 0.0
C62 C 0.86078 0.93575 0.36864 0.0
O63 O 0.89559 0.84188 0.30762 0.0
O64 O 0.87626 0.80116 0.33916 0.0
C65 C 0.81152 0.80961 0.38766 0.0
Fe66 Fe 0.14059 0.88812 0.32558 0.0
Fe67 Fe 0.197 0.88476 0.37911 0.0
O68 O 0.15937 0.86859 0.36114 0.0
Fe69 Fe 0.14107 0.83189 0.3781 0.0
O70 O 0.14686 0.80986 0.33889 0.0
O71 O 0.12552 0.84847 0.30624 0.0
O72 O 0.1782 0.88261 0.301 0.0
C73 C 0.20743 0.89131 0.30906 0.0
C74 C 0.08384 0.87067 0.3594 0.0
O75 O 0.21481 0.8992 0.33893 0.0
C76 C 0.15818 0.8639 0.43615 0.0
O77 O 0.15303 0.93113 0.33835 0.0
O78 O 0.17782 0.92503 0.3875 0.0
O79 O 0.0979 0.84335 0.36733 0.0
O80 O 0.10075 0.89453 0.34711 0.0
C81 C 0.21038 0.81765 0.38178 0.0
O82 O 0.18585 0.8726 0.42268 0.0
O83 O 0.1346 0.85189 0.41859 0.0
C84 C 0.16395 0.94329 0.36578 0.0
O85 O 0.21965 0.84606 0.37174 0.0
O86 O 0.18067 0.81282 0.39177 0.0
C87 C 0.13559 0.81857 0.31067 0.0
Fe88 Fe 0.14064 0.82702 0.63988 0.0
Fe89 Fe 0.1975 0.87935 0.63926 0.0
O90 O 0.1605 0.86272 0.65775 0.0
Fe91 Fe 0.14433 0.88125 0.69475 0.0
O92 O 0.1289 0.84184 0.7134 0.0
O93 O 0.14581 0.80308 0.67812 0.0
O94 O 0.18008 0.80768 0.62532 0.0
C95 C 0.2098 0.81185 0.63585 0.0
C96 C 0.08583 0.86766 0.66176 0.0
O97 O 0.21946 0.84019 0.64609 0.0
C98 C 0.16465 0.93711 0.65485 0.0
O99 O 0.13432 0.84819 0.59993 0.0
O100 O 0.18592 0.86768 0.59581 0.0
O101 O 0.10435 0.88977 0.67483 0.0
O102 O 0.0978 0.83991 0.65183 0.0
C103 C 0.2115 0.88463 0.7089 0.0
O104 O 0.17761 0.91958 0.63189 0.0
O105 O 0.1569 0.92429 0.68298 0.0
C106 C 0.15788 0.86032 0.5825 0.0
O107 O 0.21633 0.89429 0.67903 0.0
O108 O 0.18315 0.8734 0.71731 0.0
C109 C 0.13671 0.81176 0.70707 0.0
Fe110 Fe 0.14163 0.13914 0.69424 0.0
Fe111 Fe 0.19567 0.13862 0.63866 0.0
O112 O 0.16085 0.15813 0.65853 0.0
Fe113 Fe 0.14494 0.19667 0.64313 0.0
O114 O 0.15294 0.21735 0.68281 0.0
O115 O 0.1285 0.17906 0.71385 0.0
O116 O 0.18008 0.14256 0.71798 0.0
C117 C 0.20863 0.13246 0.70887 0.0
C118 C 0.08592 0.15949 0.66011 0.0
O119 O 0.21425 0.12366 0.67868 0.0
C120 C 0.1567 0.1638 0.58387 0.0
O121 O 0.15169 0.09555 0.68237 0.0
O122 O 0.17221 0.1003 0.63165 0.0
O123 O 0.10092 0.18704 0.65418 0.0
O124 O 0.10164 0.13486 0.67243 0.0
C125 C 0.21588 0.20467 0.63588 0.0
O126 O 0.18342 0.15118 0.59579 0.0
O127 O 0.13591 0.17878 0.60236 0.0
C128 C 0.16021 0.0825 0.65472 0.0
O129 O 0.22231 0.17484 0.64348 0.0
O130 O 0.18598 0.21348 0.62934 0.0
C131 C 0.14052 0.20832 0.71041 0.0
Fe132 Fe 0.88358 0.13696 0.69216 0.0
Fe133 Fe 0.88238 0.19354 0.63916 0.0
O134 O 0.86415 0.15657 0.65681 0.0
Fe135 Fe 0.82668 0.13896 0.63918 0.0
O136 O 0.8042 0.14188 0.67835 0.0
O137 O 0.84389 0.12239 0.71131 0.0
O138 O 0.87955 0.17403 0.71782 0.0
C139 C 0.88873 0.20317 0.70985 0.0
C140 C 0.86604 0.0814 0.65577 0.0
O141 O 0.89593 0.21073 0.67982 0.0
C142 C 0.86012 0.15727 0.58146 0.0
O143 O 0.92685 0.14843 0.68065 0.0
O144 O 0.92263 0.17317 0.6316 0.0
O145 O 0.83848 0.09503 0.64755 0.0
O146 O 0.88935 0.09823 0.6691 0.0
C147 C 0.8151 0.20954 0.63663 0.0
O148 O 0.87112 0.18356 0.59554 0.0
O149 O 0.84562 0.1345 0.59798 0.0
C150 C 0.94006 0.15883 0.65374 0.0
O151 O 0.84448 0.21744 0.64508 0.0
O152 O 0.80761 0.17972 0.6284 0.0
C153 C 0.81369 0.13109 0.70637 0.0
Fe154 Fe 0.88195 0.88105 0.69713 0.0
Fe155 Fe 0.82903 0.87945 0.64077 0.0
O156 O 0.8655 0.86184 0.66013 0.0
Fe157 Fe 0.88544 0.82588 0.64249 0.0
O158 O 0.88276 0.80258 0.68106 0.0
O159 O 0.89695 0.8422 0.7166 0.0
O160 O 0.84309 0.87438 0.71982 0.0
C161 C 0.81435 0.88348 0.71039 0.0
C162 C 0.94051 0.86724 0.66331 0.0
O163 O 0.80945 0.89348 0.68056 0.0
C164 C 0.86733 0.85818 0.58426 0.0
O165 O 0.86969 0.92365 0.68493 0.0
O166 O 0.85047 0.91929 0.63407 0.0
O167 O 0.92838 0.83996 0.65226 0.0
O168 O 0.92238 0.88889 0.67759 0.0
C169 C 0.815 0.81178 0.63755 0.0
O170 O 0.8404 0.86816 0.59762 0.0
O171 O 0.89041 0.84536 0.60157 0.0
C172 C 0.86571 0.93621 0.65605 0.0
O173 O 0.80555 0.84096 0.64536 0.0
O174 O 0.84555 0.80541 0.63071 0.0
C175 C 0.89196 0.81173 0.70972 0.0
Fe176 Fe 0.38073 0.14206 0.19557 0.0
Fe177 Fe 0.38065 0.19423 0.13781 0.0
O178 O 0.3619 0.1588 0.15823 0.0
Fe179 Fe 0.32464 0.13989 0.14141 0.0
O180 O 0.30164 0.14549 0.18014 0.0
O181 O 0.34092 0.12984 0.21554 0.0
O182 O 0.37696 0.18124 0.2178 0.0
C183 C 0.38603 0.20976 0.20778 0.0
C184 C 0.36368 0.08369 0.16292 0.0
O185 O 0.39344 0.21503 0.17726 0.0
C186 C 0.35913 0.15361 0.08276 0.0
O187 O 0.42404 0.15179 0.18355 0.0
O188 O 0.4207 0.17303 0.13281 0.0
O189 O 0.33651 0.09672 0.15272 0.0
O190 O 0.38633 0.10108 0.17664 0.0
C191 C 0.31363 0.21034 0.13212 0.0
O192 O 0.37025 0.18067 0.09508 0.0
O193 O 0.34381 0.13241 0.10058 0.0
C194 C 0.43747 0.15968 0.15598 0.0
O195 O 0.3429 0.21881 0.1403 0.0
O196 O 0.30563 0.17983 0.12777 0.0
C197 C 0.3109 0.13796 0.20933 0.0
Fe198 Fe 0.88145 0.37873 0.19263 0.0
Fe199 Fe 0.82633 0.38033 0.13727 0.0
O200 O 0.86257 0.36094 0.15586 0.0
Fe201 Fe 0.88006 0.32333 0.13861 0.0
O202 O 0.87495 0.30049 0.17782 0.0
O203 O 0.89527 0.33884 0.21106 0.0
O204 O 0.8428 0.37442 0.21627 0.0
C205 C 0.81361 0.38354 0.20777 0.0
C206 C 0.93808 0.36176 0.15796 0.0
O207 O 0.80651 0.39057 0.17759 0.0
C208 C 0.86472 0.35928 0.08047 0.0
O209 O 0.87207 0.4221 0.18265 0.0
O210 O 0.8462 0.42143 0.13419 0.0
O211 O 0.9241 0.33481 0.14822 0.0
O212 O 0.92135 0.38476 0.17169 0.0
C213 C 0.80969 0.31213 0.13143 0.0
O214 O 0.83957 0.37287 0.09416 0.0
O215 O 0.88566 0.34205 0.09707 0.0
C216 C 0.86073 0.43721 0.15743 0.0
O217 O 0.80167 0.342 0.13779 0.0
O218 O 0.84003 0.30436 0.12683 0.0
C219 C 0.88588 0.30911 0.20613 0.0
Fe220 Fe 0.69795 0.87775 0.14449 0.0
Fe221 Fe 0.6393 0.87994 0.19605 0.0
O222 O 0.65919 0.86176 0.1604 0.0
Fe223 Fe 0.64003 0.8269 0.13992 0.0
O224 O 0.67935 0.80793 0.12435 0.0
O225 O 0.71855 0.8373 0.14919 0.0
O226 O 0.71582 0.88832 0.1854 0.0
C227 C 0.70644 0.88362 0.21532 0.0
C228 C 0.65924 0.86382 0.08563 0.0
O229 O 0.67633 0.87678 0.22186 0.0
C230 C 0.58282 0.86371 0.16051 0.0
O231 O 0.68119 0.92013 0.13915 0.0
O232 O 0.6494 0.92277 0.18451 0.0
O233 O 0.6348 0.85159 0.10187 0.0
O234 O 0.68711 0.86923 0.10023 0.0
C235 C 0.63532 0.8093 0.20646 0.0
O236 O 0.59981 0.88634 0.17426 0.0
O237 O 0.59654 0.8369 0.15116 0.0
C238 C 0.66378 0.93672 0.15994 0.0
O239 O 0.6264 0.83903 0.21368 0.0
O240 O 0.64446 0.80136 0.17719 0.0
C241 C 0.70887 0.81042 0.13571 0.0
Fe242 Fe 0.14001 0.64123 0.19847 0.0
Fe243 Fe 0.19637 0.64035 0.14495 0.0
O244 O 0.15898 0.65837 0.16194 0.0
Fe245 Fe 0.14125 0.69417 0.14254 0.0
O246 O 0.14603 0.71893 0.18042 0.0
O247 O 0.12659 0.68189 0.21608 0.0
O248 O 0.17849 0.64633 0.22242 0.0
C249 C 0.20731 0.63599 0.21453 0.0
C250 C 0.08312 0.65733 0.16351 0.0
O251 O 0.21356 0.62623 0.18509 0.0
C252 C 0.15948 0.65939 0.08635 0.0
O253 O 0.14989 0.59791 0.18703 0.0
O254 O 0.17599 0.59994 0.1383 0.0
O255 O 0.09739 0.68373 0.15294 0.0
O256 O 0.09976 0.63476 0.178 0.0
C257 C 0.21125 0.70727 0.14036 0.0
O258 O 0.18669 0.6517 0.10101 0.0
O259 O 0.13546 0.67144 0.10318 0.0
C260 C 0.16054 0.58348 0.16075 0.0
O261 O 0.21975 0.67894 0.15137 0.0
O262 O 0.18187 0.7122 0.12909 0.0
C263 C 0.1358 0.71164 0.20948 0.0
Fe264 Fe 0.32777 0.88393 0.88346 0.0
Fe265 Fe 0.38098 0.88003 0.82841 0.0
O266 O 0.36228 0.86297 0.86477 0.0
Fe267 Fe 0.37829 0.82529 0.88196 0.0
O268 O 0.33719 0.80976 0.89625 0.0
O269 O 0.30086 0.84742 0.8784 0.0
O270 O 0.31045 0.89965 0.84314 0.0
C271 C 0.31436 0.88818 0.81363 0.0
C272 C 0.3657 0.8606 0.93958 0.0
O273 O 0.34205 0.87516 0.80542 0.0
C274 C 0.4371 0.8616 0.86296 0.0
O275 O 0.35257 0.92187 0.88994 0.0
O276 O 0.37134 0.92388 0.83884 0.0
O277 O 0.38698 0.84512 0.92206 0.0
O278 O 0.33873 0.87167 0.92676 0.0
C279 C 0.38231 0.8104 0.8152 0.0
O280 O 0.42071 0.88551 0.85025 0.0
O281 O 0.42236 0.83424 0.87023 0.0
C282 C 0.36757 0.93785 0.8671 0.0
O283 O 0.39415 0.83947 0.81026 0.0
O284 O 0.37046 0.80243 0.84336 0.0
C285 C 0.30758 0.81818 0.8884 0.0
Fe286 Fe 0.14486 0.38167 0.82492 0.0
Fe287 Fe 0.1995 0.38534 0.87986 0.0
O288 O 0.16408 0.3648 0.86169 0.0
Fe289 Fe 0.14798 0.32729 0.87986 0.0
O290 O 0.13623 0.30807 0.83959 0.0
O291 O 0.15308 0.3438 0.80092 0.0
O292 O 0.18386 0.39881 0.80669 0.0
C293 C 0.21411 0.3912 0.81255 0.0
C294 C 0.08899 0.35847 0.86287 0.0
O295 O 0.22311 0.38158 0.84122 0.0
C296 C 0.16536 0.36664 0.93702 0.0
O297 O 0.13529 0.4208 0.84633 0.0
O298 O 0.18525 0.428 0.86904 0.0
O299 O 0.10645 0.34555 0.88588 0.0
O300 O 0.10221 0.36749 0.83547 0.0
C301 C 0.21603 0.31615 0.88519 0.0
O302 O 0.1787 0.39021 0.92045 0.0
O303 O 0.15759 0.33915 0.92321 0.0
C304 C 0.15708 0.43957 0.85973 0.0
O305 O 0.22066 0.34652 0.89335 0.0
O306 O 0.18771 0.30599 0.87546 0.0
C307 C 0.14483 0.31451 0.80967 0.0
Fe308 Fe 0.64587 0.1384 0.82391 0.0
Fe309 Fe 0.64368 0.19328 0.87833 0.0
O310 O 0.66233 0.1563 0.86132 0.0
Fe311 Fe 0.69763 0.13791 0.88155 0.0
O312 O 0.71839 0.12414 0.84278 0.0
O313 O 0.68577 0.14245 0.80233 0.0
O314 O 0.63428 0.179 0.80504 0.0
C315 C 0.64322 0.20885 0.81172 0.0
C316 C 0.66344 0.08076 0.86273 0.0
O317 O 0.65245 0.21706 0.84076 0.0
C318 C 0.6555 0.15854 0.93572 0.0
O319 O 0.60431 0.13269 0.84265 0.0
O320 O 0.60083 0.18325 0.8643 0.0
O321 O 0.67653 0.09735 0.88648 0.0
O322 O 0.65521 0.09482 0.83548 0.0
C323 C 0.7129 0.2053 0.88696 0.0
O324 O 0.63377 0.17213 0.91725 0.0
O325 O 0.68353 0.14892 0.92409 0.0
C326 C 0.58722 0.15581 0.85593 0.0
O327 O 0.68287 0.21101 0.89536 0.0
O328 O 0.72166 0.17649 0.87746 0.0
C329 C 0.714 0.13234 0.81245 0.0
Fe330 Fe 0.87885 0.6957 0.88168 0.0
Fe331 Fe 0.88198 0.64177 0.8256 0.0
O332 O 0.86246 0.65881 0.86216 0.0
Fe333 Fe 0.82642 0.63864 0.88007 0.0
O334 O 0.8067 0.67747 0.89603 0.0
O335 O 0.83935 0.71765 0.87719 0.0
O336 O 0.89195 0.71617 0.84271 0.0
C337 C 0.88708 0.70951 0.81217 0.0
C338 C 0.86369 0.65317 0.93646 0.0
O339 O 0.87867 0.68065 0.80255 0.0
C340 C 0.86551 0.5831 0.85875 0.0
O341 O 0.92014 0.67727 0.88761 0.0
O342 O 0.92519 0.65187 0.83865 0.0
O343 O 0.84877 0.63134 0.9191 0.0
O344 O 0.8684 0.68216 0.92437 0.0
C345 C 0.81121 0.63645 0.81267 0.0
O346 O 0.88788 0.60071 0.84492 0.0
O347 O 0.83796 0.59589 0.86766 0.0
C348 C 0.93793 0.66336 0.86543 0.0
O349 O 0.84169 0.62978 0.80585 0.0
O350 O 0.80205 0.64413 0.84203 0.0
C351 C 0.81117 0.70773 0.88745 0.0
Fe352 Fe 0.1952 0.38232 0.13932 0.0
Fe353 Fe 0.1408 0.38051 0.19408 0.0
O354 O 0.15924 0.36254 0.1576 0.0
Fe355 Fe 0.14129 0.3257 0.13957 0.0
O356 O 0.18201 0.30741 0.12762 0.0
O357 O 0.22035 0.3446 0.14303 0.0
O358 O 0.21333 0.39575 0.17996 0.0
C359 C 0.20764 0.38525 0.20953 0.0
C360 C 0.15805 0.36094 0.08208 0.0
O361 O 0.17896 0.37474 0.218 0.0
C362 C 0.08417 0.36464 0.15869 0.0
O363 O 0.17261 0.42191 0.13329 0.0
O364 O 0.15269 0.42339 0.18381 0.0
O365 O 0.13582 0.34544 0.09857 0.0
O366 O 0.18444 0.37179 0.09596 0.0
C367 C 0.13467 0.31115 0.207 0.0
O368 O 0.10137 0.38758 0.17225 0.0
O369 O 0.09761 0.33739 0.14928 0.0
C370 C 0.15688 0.43754 0.15589 0.0
O371 O 0.12563 0.34095 0.21239 0.0
O372 O 0.14502 0.30231 0.17851 0.0
C373 C 0.21225 0.31528 0.13406 0.0
Fe374 Fe 0.19416 0.64143 0.88224 0.0
Fe375 Fe 0.14025 0.64249 0.82701 0.0
O376 O 0.15873 0.66048 0.86335 0.0
Fe377 Fe 0.14203 0.69787 0.88077 0.0
O378 O 0.18117 0.72019 0.87402 0.0
O379 O 0.21365 0.68143 0.89611 0.0
O380 O 0.21861 0.64587 0.84414 0.0
C381 C 0.21054 0.6349 0.81558 0.0
C382 C 0.16038 0.66001 0.93883 0.0
O383 O 0.18033 0.6267 0.80961 0.0
C384 C 0.08395 0.66449 0.8656 0.0
O385 O 0.18182 0.59801 0.87131 0.0
O386 O 0.13192 0.60308 0.84815 0.0
O387 O 0.15355 0.68764 0.92457 0.0
O388 O 0.17173 0.6359 0.92173 0.0
C389 C 0.13729 0.70919 0.81074 0.0
O390 O 0.09696 0.6552 0.83801 0.0
O391 O 0.10168 0.67781 0.88829 0.0
C392 C 0.1543 0.5852 0.8615 0.0
O393 O 0.1474 0.68035 0.80291 0.0
O394 O 0.12782 0.71563 0.84038 0.0
C395 C 0.2093 0.71104 0.88521 0.0
Fe396 Fe 0.38468 0.19318 0.88059 0.0
Fe397 Fe 0.38229 0.14087 0.82386 0.0
O398 O 0.36487 0.15782 0.8615 0.0
Fe399 Fe 0.32762 0.13984 0.87891 0.0
O400 O 0.30876 0.17972 0.89126 0.0
O401 O 0.34633 0.21808 0.87797 0.0
O402 O 0.39786 0.2121 0.84078 0.0
C403 C 0.38688 0.20864 0.81123 0.0
C404 C 0.36263 0.15564 0.93723 0.0
O405 O 0.37558 0.18047 0.80161 0.0
C406 C 0.36739 0.08328 0.85904 0.0
O407 O 0.42485 0.1713 0.885 0.0
O408 O 0.42605 0.15216 0.83345 0.0
O409 O 0.34651 0.13413 0.92031 0.0
O410 O 0.37528 0.18124 0.92363 0.0
C411 C 0.31266 0.13392 0.81154 0.0
O412 O 0.38965 0.10058 0.84418 0.0
O413 O 0.34 0.0964 0.86887 0.0
C414 C 0.44099 0.15919 0.86054 0.0
O415 O 0.34263 0.12572 0.80558 0.0
O416 O 0.30435 0.14476 0.83994 0.0
C417 C 0.31652 0.20994 0.88574 0.0
Fe418 Fe 0.8872 0.37864 0.82371 0.0
Fe419 Fe 0.8841 0.32242 0.87686 0.0
O420 O 0.86747 0.36038 0.85957 0.0
Fe421 Fe 0.83079 0.37935 0.87762 0.0
O422 O 0.81251 0.39322 0.83786 0.0
O423 O 0.84844 0.37625 0.79949 0.0
O424 O 0.89957 0.33876 0.8043 0.0
C425 C 0.88997 0.30898 0.80938 0.0
C426 C 0.86649 0.4365 0.86079 0.0
O427 O 0.87908 0.30007 0.83766 0.0
C428 C 0.86855 0.35678 0.93472 0.0
O429 O 0.92752 0.38276 0.84492 0.0
O430 O 0.92822 0.33238 0.8674 0.0
O431 O 0.85143 0.42012 0.8836 0.0
O432 O 0.87889 0.42174 0.83575 0.0
C433 C 0.81341 0.31191 0.88097 0.0
O434 O 0.8905 0.34143 0.91786 0.0
O435 O 0.84211 0.36821 0.92109 0.0
C436 C 0.94319 0.35908 0.85885 0.0
O437 O 0.8432 0.30451 0.88906 0.0
O438 O 0.80583 0.3413 0.87228 0.0
C439 C 0.81952 0.3865 0.80773 0.0
Fe440 Fe 0.641 0.87653 0.82677 0.0
Fe441 Fe 0.69582 0.87853 0.88161 0.0
O442 O 0.65888 0.86031 0.86424 0.0
Fe443 Fe 0.6395 0.82585 0.88474 0.0
O444 O 0.62328 0.80592 0.8462 0.0
O445 O 0.6446 0.83641 0.8057 0.0
O446 O 0.68167 0.88775 0.80759 0.0
C447 C 0.71161 0.87927 0.81442 0.0
C448 C 0.58364 0.86108 0.86688 0.0
O449 O 0.71992 0.87044 0.84368 0.0
C450 C 0.66092 0.86624 0.93941 0.0
O451 O 0.63589 0.91821 0.84505 0.0
O452 O 0.6861 0.92141 0.86803 0.0
O453 O 0.60092 0.84949 0.89074 0.0
O454 O 0.59729 0.86744 0.83884 0.0
C455 C 0.70593 0.80865 0.88986 0.0
O456 O 0.67423 0.88819 0.92086 0.0
O457 O 0.65217 0.83829 0.92721 0.0
C458 C 0.65899 0.93511 0.85877 0.0
O459 O 0.71281 0.83864 0.89804 0.0
O460 O 0.67696 0.80065 0.8798 0.0
C461 C 0.63309 0.80887 0.81617 0.0
Fe462 Fe 0.8761 0.6423 0.19581 0.0
Fe463 Fe 0.88074 0.69309 0.13681 0.0
O464 O 0.86096 0.65821 0.15681 0.0
Fe465 Fe 0.82493 0.63915 0.1377 0.0
O466 O 0.80504 0.62521 0.17676 0.0
O467 O 0.83539 0.64813 0.216 0.0
O468 O 0.88694 0.683 0.21351 0.0
C469 C 0.88333 0.71291 0.20391 0.0
C470 C 0.85944 0.58339 0.15763 0.0
O471 O 0.87774 0.71983 0.17353 0.0
C472 C 0.86395 0.6566 0.08104 0.0
O473 O 0.91893 0.63621 0.18018 0.0
O474 O 0.92315 0.68075 0.14762 0.0
O475 O 0.84633 0.5992 0.13346 0.0
O476 O 0.86719 0.59814 0.18487 0.0
C477 C 0.81076 0.70644 0.13139 0.0
O478 O 0.88685 0.66977 0.09825 0.0
O479 O 0.83625 0.649 0.09427 0.0
C480 C 0.93645 0.65679 0.16333 0.0
O481 O 0.84095 0.71212 0.12275 0.0
O482 O 0.80158 0.67774 0.1412 0.0
C483 C 0.80781 0.63613 0.20627 0.0
Fe484 Fe 0.37959 0.88165 0.19714 0.0
Fe485 Fe 0.32746 0.88168 0.13995 0.0
O486 O 0.36231 0.86272 0.16057 0.0
Fe487 Fe 0.37934 0.82461 0.14501 0.0
O488 O 0.39029 0.80741 0.18669 0.0
O489 O 0.37134 0.84473 0.22262 0.0
O490 O 0.33935 0.89782 0.21288 0.0
C491 C 0.30968 0.88875 0.20605 0.0
C492 C 0.43725 0.85784 0.16216 0.0
O493 O 0.30198 0.87811 0.17733 0.0
C494 C 0.36373 0.86163 0.08531 0.0
O495 O 0.38894 0.92021 0.17461 0.0
O496 O 0.33949 0.92507 0.15062 0.0
O497 O 0.42081 0.84295 0.13952 0.0
O498 O 0.42289 0.8686 0.1884 0.0
C499 C 0.31187 0.81249 0.13707 0.0
O500 O 0.35055 0.886 0.10073 0.0
O501 O 0.37103 0.83463 0.10058 0.0
C502 C 0.36676 0.93802 0.16078 0.0
O503 O 0.30829 0.84199 0.12596 0.0
O504 O 0.33943 0.80329 0.14946 0.0
C505 C 0.38077 0.81532 0.21605 0.0
Fe506 Fe 0.64028 0.14088 0.19392 0.0
Fe507 Fe 0.69328 0.13651 0.13768 0.0
O508 O 0.6579 0.15687 0.15626 0.0
Fe509 Fe 0.64003 0.19272 0.13661 0.0
O510 O 0.64579 0.21871 0.17328 0.0
O511 O 0.62901 0.18206 0.21116 0.0
O512 O 0.67973 0.1449 0.21601 0.0
C513 C 0.70725 0.13215 0.20726 0.0
C514 C 0.58256 0.15725 0.1598 0.0
O515 O 0.71195 0.12216 0.17752 0.0
C516 C 0.6551 0.15636 0.08086 0.0
O517 O 0.64904 0.09733 0.18355 0.0
O518 O 0.66984 0.09701 0.13275 0.0
O519 O 0.5967 0.18329 0.14851 0.0
O520 O 0.599 0.13506 0.17515 0.0
C521 C 0.71029 0.20338 0.13177 0.0
O522 O 0.68247 0.14757 0.09425 0.0
O523 O 0.63224 0.16938 0.09828 0.0
C524 C 0.65448 0.08206 0.15636 0.0
O525 O 0.71869 0.17438 0.14156 0.0
O526 O 0.68065 0.20939 0.12184 0.0
C527 C 0.63696 0.2117 0.2028 0.0
Fe528 Fe 0.38476 0.63766 0.69723 0.0
Fe529 Fe 0.38138 0.6969 0.64763 0.0
O530 O 0.36453 0.65894 0.66375 0.0
Fe531 Fe 0.32701 0.64209 0.64689 0.0
O532 O 0.30641 0.64583 0.68697 0.0
O533 O 0.34546 0.62069 0.71604 0.0
O534 O 0.37979 0.67353 0.72477 0.0
C535 C 0.38883 0.70309 0.71797 0.0
C536 C 0.36655 0.58391 0.65929 0.0
O537 O 0.39681 0.71173 0.68847 0.0
C538 C 0.35903 0.66191 0.58938 0.0
O539 O 0.42765 0.65082 0.68531 0.0
O540 O 0.42105 0.6772 0.63732 0.0
O541 O 0.33834 0.59791 0.65473 0.0
O542 O 0.39073 0.60059 0.67126 0.0
C543 C 0.31439 0.71207 0.64672 0.0
O544 O 0.36838 0.68856 0.60409 0.0
O545 O 0.34548 0.63808 0.60537 0.0
C546 C 0.4396 0.66249 0.65823 0.0
O547 O 0.34329 0.72006 0.6567 0.0
O548 O 0.30814 0.68269 0.63648 0.0
C549 C 0.31571 0.63188 0.71369 0.0
Fe550 Fe 0.69658 0.38171 0.63699 0.0
Fe551 Fe 0.64606 0.37928 0.69614 0.0
O552 O 0.66154 0.36277 0.6577 0.0
Fe553 Fe 0.64193 0.32627 0.64045 0.0
O554 O 0.68081 0.30258 0.64405 0.0
O555 O 0.71529 0.34145 0.62473 0.0
O556 O 0.72334 0.37921 0.6735 0.0
C557 C 0.7168 0.38635 0.70347 0.0
C558 C 0.66003 0.3621 0.58183 0.0
O559 O 0.68709 0.39261 0.71268 0.0
C560 C 0.58654 0.36126 0.65985 0.0
O561 O 0.68419 0.42493 0.64717 0.0
O562 O 0.63807 0.42011 0.67773 0.0
O563 O 0.65076 0.33607 0.59701 0.0
O564 O 0.67393 0.38596 0.59736 0.0
C565 C 0.64055 0.31203 0.70942 0.0
O566 O 0.6018 0.36899 0.68681 0.0
O567 O 0.60204 0.34776 0.63573 0.0
C568 C 0.65863 0.43773 0.66119 0.0
O569 O 0.65334 0.33971 0.71784 0.0
O570 O 0.6284 0.30842 0.68054 0.0
C571 C 0.70977 0.31153 0.63419 0.0
Fe572 Fe 0.32733 0.38435 0.38189 0.0
Fe573 Fe 0.38012 0.38401 0.32478 0.0
O574 O 0.36209 0.36503 0.3612 0.0
Fe575 Fe 0.37914 0.32666 0.37636 0.0
O576 O 0.3386 0.30873 0.39033 0.0
O577 O 0.30129 0.34753 0.37906 0.0
O578 O 0.30708 0.39767 0.34248 0.0
C579 C 0.3121 0.38952 0.31207 0.0
C580 C 0.36738 0.35948 0.43629 0.0
O581 O 0.34086 0.3804 0.30217 0.0
C582 C 0.43708 0.36498 0.35752 0.0
O583 O 0.34946 0.42403 0.38699 0.0
O584 O 0.37077 0.42717 0.33643 0.0
O585 O 0.38803 0.34465 0.41739 0.0
O586 O 0.34102 0.37295 0.42454 0.0
C587 C 0.38319 0.31476 0.30877 0.0
O588 O 0.42059 0.389 0.34521 0.0
O589 O 0.42291 0.33733 0.36478 0.0
C590 C 0.36212 0.44096 0.36347 0.0
O591 O 0.39324 0.34452 0.30497 0.0
O592 O 0.37155 0.30535 0.33663 0.0
C593 C 0.30835 0.31759 0.3857 0.0
Fe594 Fe 0.69306 0.63888 0.37764 0.0
Fe595 Fe 0.63582 0.63872 0.32611 0.0
O596 O 0.65563 0.65731 0.36157 0.0
Fe597 Fe 0.63865 0.69447 0.38004 0.0
O598 O 0.67729 0.71773 0.3741 0.0
O599 O 0.71293 0.67867 0.3897 0.0
O600 O 0.71445 0.64365 0.33773 0.0
C601 C 0.70457 0.63253 0.30988 0.0
C602 C 0.66103 0.65584 0.4366 0.0
O603 O 0.67462 0.6228 0.30674 0.0
C604 C 0.58002 0.66138 0.36464 0.0
O605 O 0.68047 0.59535 0.36787 0.0
O606 O 0.62898 0.59955 0.34822 0.0
O607 O 0.65026 0.68268 0.42328 0.0
O608 O 0.67489 0.63321 0.41924 0.0
C609 C 0.63268 0.70632 0.3101 0.0
O610 O 0.59345 0.65032 0.33824 0.0
O611 O 0.59764 0.67529 0.38709 0.0
C612 C 0.65249 0.58211 0.36014 0.0
O613 O 0.64112 0.67694 0.30161 0.0
O614 O 0.62495 0.71306 0.34017 0.0
C615 C 0.70628 0.70887 0.38274 0.0
Fe616 Fe 0.37641 0.69794 0.38686 0.0
Fe617 Fe 0.37889 0.64299 0.33312 0.0
O618 O 0.35911 0.66109 0.36864 0.0
Fe619 Fe 0.3219 0.6429 0.385 0.0
O620 O 0.29882 0.68143 0.3796 0.0
O621 O 0.33612 0.71609 0.39963 0.0
O622 O 0.37155 0.72102 0.34764 0.0
C623 C 0.38393 0.71231 0.31984 0.0
C624 C 0.358 0.66329 0.44356 0.0
O625 O 0.39531 0.68296 0.31624 0.0
C626 C 0.35659 0.58591 0.36951 0.0
O627 O 0.42035 0.68656 0.37717 0.0
O628 O 0.41689 0.63528 0.357 0.0
O629 O 0.33192 0.65261 0.42876 0.0
O630 O 0.38144 0.6778 0.42764 0.0
C631 C 0.31279 0.64038 0.31454 0.0
O632 O 0.36602 0.59969 0.34253 0.0
O633 O 0.34191 0.60257 0.39191 0.0
C634 C 0.4339 0.65866 0.36995 0.0
O635 O 0.34211 0.64979 0.30746 0.0
O636 O 0.30511 0.63055 0.34377 0.0
C637 C 0.30599 0.70943 0.39221 0.0
Fe638 Fe 0.63787 0.32514 0.37717 0.0
Fe639 Fe 0.64288 0.37917 0.32268 0.0
O640 O 0.65831 0.3613 0.36049 0.0
Fe641 Fe 0.69414 0.37906 0.38106 0.0
O642 O 0.71172 0.33845 0.39383 0.0
O643 O 0.67632 0.30063 0.37411 0.0
O644 O 0.62508 0.30775 0.33653 0.0
C645 C 0.63676 0.31246 0.30751 0.0
C646 C 0.65703 0.36049 0.43606 0.0
O647 O 0.64952 0.34034 0.29973 0.0
C648 C 0.65723 0.43635 0.35843 0.0
O649 O 0.59817 0.34698 0.38169 0.0
O650 O 0.59846 0.36911 0.33117 0.0
O651 O 0.67193 0.3839 0.42071 0.0
O652 O 0.64608 0.33523 0.42064 0.0
C653 C 0.71356 0.38365 0.3146 0.0
O654 O 0.63545 0.41925 0.34292 0.0
O655 O 0.68327 0.42277 0.37072 0.0
C656 C 0.58294 0.36095 0.35776 0.0
O657 O 0.68411 0.39239 0.30658 0.0
O658 O 0.72031 0.37542 0.34424 0.0
C659 C 0.70529 0.30869 0.3846 0.0
Fe660 Fe 0.3842 0.38159 0.69301 0.0
Fe661 Fe 0.32949 0.38032 0.63847 0.0
O662 O 0.36566 0.36239 0.65724 0.0
Fe663 Fe 0.38355 0.32507 0.64083 0.0
O664 O 0.37685 0.30321 0.68028 0.0
O665 O 0.39957 0.34201 0.71136 0.0
O666 O 0.34624 0.37637 0.71729 0.0
C667 C 0.31724 0.38585 0.70885 0.0
C668 C 0.4407 0.36466 0.65872 0.0
O669 O 0.31099 0.39452 0.67874 0.0
C670 C 0.36855 0.35798 0.58231 0.0
O671 O 0.37214 0.42459 0.68193 0.0
O672 O 0.3513 0.42003 0.63136 0.0
O673 O 0.42725 0.33656 0.65192 0.0
O674 O 0.42356 0.38822 0.67098 0.0
C675 C 0.31343 0.31329 0.63453 0.0
O676 O 0.34138 0.36859 0.59521 0.0
O677 O 0.39086 0.34406 0.60002 0.0
C678 C 0.36405 0.43781 0.65426 0.0
O679 O 0.30491 0.34219 0.64404 0.0
O680 O 0.34354 0.30664 0.62703 0.0
C681 C 0.38879 0.31238 0.70806 0.0
Fe682 Fe 0.6404 0.64006 0.69346 0.0
Fe683 Fe 0.69561 0.63943 0.639 0.0
O684 O 0.65999 0.6588 0.65797 0.0
Fe685 Fe 0.6445 0.69693 0.64119 0.0
O686 O 0.63125 0.71485 0.68183 0.0
O687 O 0.64516 0.67693 0.71912 0.0
O688 O 0.68058 0.62564 0.71208 0.0
C689 C 0.71076 0.63447 0.70608 0.0
C690 C 0.58511 0.6644 0.65469 0.0
O691 O 0.71966 0.64371 0.67715 0.0
C692 C 0.66175 0.6587 0.58282 0.0
O693 O 0.63328 0.60111 0.67112 0.0
O694 O 0.68383 0.59618 0.65008 0.0
O695 O 0.60342 0.67873 0.63319 0.0
O696 O 0.59744 0.65225 0.68139 0.0
C697 C 0.71208 0.70828 0.63603 0.0
O698 O 0.6737 0.63435 0.59926 0.0
O699 O 0.655 0.68631 0.59726 0.0
C700 C 0.65623 0.58325 0.65901 0.0
O701 O 0.71503 0.67884 0.62465 0.0
O702 O 0.68452 0.71779 0.64829 0.0
C703 C 0.63739 0.70662 0.71196 0.0
C704 C 0.16273 0.2791 0.2536 0.0
C705 C 0.13322 0.28624 0.23486 0.0
C706 C 0.10116 0.24832 0.27158 0.0
C707 C 0.13154 0.23836 0.2874 0.0
N708 N 0.19214 0.24022 0.28959 0.0
N709 N 0.07458 0.27568 0.22395 0.0
C710 C 0.16257 0.25265 0.27734 0.0
C711 C 0.10244 0.27021 0.24324 0.0
N712 N 0.19073 0.29848 0.24976 0.0
N713 N 0.07109 0.23815 0.28469 0.0
H714 H 0.07448 0.29223 0.20367 0.0
H715 H 0.05231 0.26217 0.22657 0.0
H716 H 0.06948 0.22338 0.30622 0.0
H717 H 0.04791 0.24683 0.27629 0.0
H718 H 0.21165 0.29707 0.2654 0.0
H719 H 0.19194 0.31775 0.23237 0.0
H720 H 0.21562 0.24691 0.28009 0.0
H721 H 0.19325 0.22105 0.30732 0.0
C722 C 0.7374 0.10192 0.25379 0.0
C723 C 0.73492 0.1301 0.23218 0.0
C724 C 0.78216 0.15717 0.26107 0.0
C725 C 0.7834 0.13004 0.28403 0.0
N726 N 0.75989 0.07861 0.30552 0.0
N727 N 0.75292 0.18562 0.21655 0.0
C728 C 0.7604 0.10286 0.28127 0.0
C729 C 0.75704 0.1578 0.23599 0.0
N730 N 0.71814 0.07415 0.2476 0.0
N731 N 0.80478 0.18285 0.26362 0.0
H732 H 0.73573 0.18628 0.19716 0.0
H733 H 0.76472 0.20856 0.22072 0.0
H734 H 0.8192 0.18662 0.28492 0.0
H735 H 0.80954 0.20024 0.2447 0.0
H736 H 0.72083 0.05148 0.26025 0.0
H737 H 0.70095 0.07296 0.22786 0.0
H738 H 0.7418 0.05978 0.30693 0.0
H739 H 0.77637 0.07866 0.32588 0.0
C740 C 0.91458 0.76763 0.27703 0.0
C741 C 0.88653 0.78873 0.2819 0.0
C742 C 0.85956 0.76481 0.23179 0.0
C743 C 0.88562 0.74037 0.22946 0.0
N744 N 0.9369 0.71683 0.25298 0.0
N745 N 0.83035 0.80491 0.26646 0.0
C746 C 0.91283 0.74127 0.25297 0.0
C747 C 0.85866 0.78683 0.25979 0.0
N748 N 0.94339 0.77342 0.29482 0.0
N749 N 0.83517 0.76705 0.20772 0.0
H750 H 0.82876 0.8212 0.28662 0.0
H751 H 0.80746 0.80136 0.25427 0.0
H752 H 0.83184 0.7499 0.18847 0.0
H753 H 0.81903 0.78748 0.20556 0.0
H754 H 0.96614 0.76155 0.28984 0.0
H755 H 0.94538 0.79263 0.31244 0.0
H756 H 0.95424 0.71384 0.27233 0.0
H757 H 0.93876 0.69808 0.23498 0.0
C758 C 0.24662 0.85976 0.27172 0.0
C759 C 0.2338 0.89104 0.28292 0.0
C760 C 0.27199 0.92107 0.24496 0.0
C761 C 0.28362 0.88977 0.23253 0.0
N762 N 0.28064 0.82924 0.23158 0.0
N763 N 0.22925 0.9509 0.27656 0.0
C764 C 0.27043 0.85908 0.24514 0.0
C765 C 0.24525 0.92161 0.2687 0.0
N766 N 0.23669 0.83076 0.28727 0.0
N767 N 0.28639 0.95024 0.23392 0.0
H768 H 0.20891 0.9519 0.29302 0.0
H769 H 0.23406 0.97373 0.2648 0.0
H770 H 0.30435 0.95102 0.21488 0.0
H771 H 0.28199 0.97355 0.24481 0.0
H772 H 0.24778 0.80748 0.28328 0.0
H773 H 0.21842 0.83011 0.30599 0.0
H774 H 0.26905 0.8063 0.23635 0.0
H775 H 0.29978 0.82741 0.21385 0.0
C776 C 0.1675 0.77194 0.74479 0.0
C777 C 0.13652 0.78632 0.7344 0.0
C778 C 0.10574 0.74958 0.77353 0.0
C779 C 0.13678 0.73596 0.78464 0.0
N780 N 0.19732 0.73587 0.78373 0.0
N781 N 0.07646 0.79155 0.74028 0.0
C782 C 0.16768 0.74747 0.77085 0.0
C783 C 0.10573 0.77606 0.74937 0.0
N784 N 0.19683 0.78193 0.72977 0.0
N785 N 0.07625 0.73589 0.78479 0.0
H786 H 0.07508 0.80913 0.72097 0.0
H787 H 0.05372 0.78834 0.75277 0.0
H788 H 0.07534 0.71629 0.80209 0.0
H789 H 0.05265 0.74209 0.77546 0.0
H790 H 0.21974 0.76976 0.73265 0.0
H791 H 0.19832 0.80193 0.71298 0.0
H792 H 0.22088 0.74537 0.7776 0.0
H793 H 0.19841 0.71769 0.80244 0.0
C794 C 0.2511 0.10141 0.74469 0.0
C795 C 0.23623 0.13212 0.73419 0.0
C796 C 0.27475 0.16331 0.77089 0.0
C797 C 0.28726 0.13275 0.78401 0.0
N798 N 0.28599 0.0724 0.78568 0.0
N799 N 0.23094 0.19227 0.74076 0.0
C800 C 0.27526 0.10164 0.77133 0.0
C801 C 0.24699 0.16298 0.74858 0.0
N802 N 0.24184 0.07206 0.7295 0.0
N803 N 0.29098 0.19267 0.77802 0.0
H804 H 0.21284 0.19424 0.72197 0.0
H805 H 0.23463 0.21454 0.75396 0.0
H806 H 0.31272 0.19332 0.79245 0.0
H807 H 0.28542 0.21551 0.76663 0.0
H808 H 0.25423 0.04938 0.7331 0.0
H809 H 0.2226 0.07061 0.7118 0.0
H810 H 0.27583 0.04894 0.78022 0.0
H811 H 0.3038 0.07175 0.80487 0.0
C812 C 0.91238 0.2534 0.78824 0.0
C813 C 0.8936 0.28329 0.78247 0.0
C814 C 0.86902 0.25797 0.73253 0.0
C815 C 0.89011 0.22973 0.73592 0.0
N816 N 0.93638 0.20282 0.76401 0.0
N817 N 0.86337 0.31713 0.74186 0.0
C818 C 0.91313 0.22798 0.763 0.0
C819 C 0.8751 0.28672 0.75224 0.0
N820 N 0.92968 0.24933 0.81757 0.0
N821 N 0.84152 0.25653 0.71221 0.0
H822 H 0.86831 0.33939 0.7544 0.0
H823 H 0.852 0.32063 0.71854 0.0
H824 H 0.83358 0.23411 0.70152 0.0
H825 H 0.82408 0.27584 0.71038 0.0
H826 H 0.94039 0.22663 0.8248 0.0
H827 H 0.93211 0.26824 0.83547 0.0
H828 H 0.9561 0.20217 0.78118 0.0
H829 H 0.9376 0.18399 0.74587 0.0
C830 C 0.78515 0.90978 0.76004 0.0
C831 C 0.78651 0.88393 0.73555 0.0
C832 C 0.73738 0.85674 0.7614 0.0
C833 C 0.73765 0.88095 0.78751 0.0
N834 N 0.76346 0.92904 0.81375 0.0
N835 N 0.7667 0.83015 0.71581 0.0
C836 C 0.76206 0.90708 0.78742 0.0
C837 C 0.76311 0.85694 0.73679 0.0
N838 N 0.80536 0.93736 0.75653 0.0
N839 N 0.7127 0.83294 0.76028 0.0
H840 H 0.78576 0.8287 0.69833 0.0
H841 H 0.75334 0.80776 0.71797 0.0
H842 H 0.69664 0.82851 0.7802 0.0
H843 H 0.70739 0.81837 0.73924 0.0
H844 H 0.80344 0.95876 0.77135 0.0
H845 H 0.82249 0.93999 0.73687 0.0
H846 H 0.78272 0.94641 0.8172 0.0
H847 H 0.74632 0.92862 0.83352 0.0
C848 C 0.26208 0.11204 0.23998 0.0
C849 C 0.28577 0.13849 0.23694 0.0
C850 C 0.2609 0.16663 0.28581 0.0
C851 C 0.23524 0.14188 0.28696 0.0
N852 N 0.209 0.09271 0.263 0.0
N853 N 0.3048 0.19351 0.25383 0.0
C854 C 0.23513 0.11504 0.2634 0.0
C855 C 0.28459 0.16631 0.25921 0.0
N856 N 0.26597 0.08362 0.22115 0.0
N857 N 0.26254 0.19086 0.30998 0.0
H858 H 0.32164 0.19476 0.23407 0.0
H859 H 0.30248 0.21626 0.26646 0.0
H860 H 0.24383 0.1943 0.3277 0.0
H861 H 0.28325 0.20647 0.31359 0.0
H862 H 0.25186 0.06188 0.22467 0.0
H863 H 0.28533 0.08074 0.20373 0.0
H864 H 0.20543 0.07495 0.24418 0.0
H865 H 0.18946 0.09325 0.2804 0.0
C866 C 0.90615 0.22616 0.25096 0.0
C867 C 0.88606 0.2297 0.28026 0.0
C868 C 0.87391 0.28791 0.26482 0.0
C869 C 0.88977 0.28328 0.23318 0.0
N870 N 0.9223 0.24792 0.19629 0.0
N871 N 0.84211 0.26015 0.30801 0.0
C872 C 0.90617 0.25225 0.22626 0.0
C873 C 0.86774 0.25962 0.28535 0.0
N874 N 0.92597 0.19845 0.24719 0.0
N875 N 0.86449 0.31899 0.27566 0.0
H876 H 0.83298 0.23822 0.31875 0.0
H877 H 0.82674 0.28084 0.31193 0.0
H878 H 0.86874 0.34093 0.26235 0.0
H879 H 0.85568 0.32341 0.2999 0.0
H880 H 0.94414 0.19603 0.22857 0.0
H881 H 0.92594 0.17851 0.26409 0.0
H882 H 0.9306 0.22476 0.18757 0.0
H883 H 0.92677 0.26756 0.17958 0.0
C884 C 0.75791 0.91121 0.24134 0.0
C885 C 0.7318 0.8864 0.24315 0.0
C886 C 0.75985 0.86121 0.29188 0.0
C887 C 0.78574 0.88556 0.29008 0.0
N888 N 0.81187 0.93196 0.26165 0.0
N889 N 0.70372 0.84441 0.27837 0.0
C890 C 0.78538 0.91017 0.26445 0.0
C891 C 0.7313 0.86362 0.27088 0.0
N892 N 0.75518 0.93736 0.21924 0.0
N893 N 0.76389 0.8336 0.31169 0.0
H894 H 0.68217 0.842 0.26407 0.0
H895 H 0.70089 0.83223 0.30135 0.0
H896 H 0.78546 0.82975 0.32561 0.0
H897 H 0.74836 0.81253 0.31072 0.0
H898 H 0.77097 0.95818 0.21907 0.0
H899 H 0.73522 0.9404 0.20273 0.0
H900 H 0.81596 0.94755 0.24112 0.0
H901 H 0.83129 0.93323 0.27917 0.0
C902 C 0.1268 0.75804 0.2937 0.0
C903 C 0.13142 0.79207 0.28399 0.0
C904 C 0.12803 0.7731 0.22545 0.0
C905 C 0.13243 0.73904 0.23544 0.0
N906 N 0.14486 0.70182 0.28234 0.0
N907 N 0.1438 0.8301 0.23783 0.0
C908 C 0.13428 0.73212 0.2705 0.0
C909 C 0.13411 0.79923 0.24906 0.0
N910 N 0.11415 0.75008 0.32455 0.0
N911 N 0.11646 0.78089 0.19416 0.0
H912 H 0.15072 0.84968 0.25357 0.0
H913 H 0.14871 0.83481 0.21254 0.0
H914 H 0.1075 0.76287 0.17744 0.0
H915 H 0.1111 0.80547 0.18697 0.0
H916 H 0.10869 0.72543 0.3315 0.0
H917 H 0.10467 0.76809 0.34099 0.0
H918 H 0.14867 0.69741 0.30787 0.0
H919 H 0.1542 0.68289 0.26712 0.0
C920 C 0.22877 0.89639 0.76896 0.0
C921 C 0.23813 0.88938 0.73523 0.0
C922 C 0.29695 0.89411 0.75288 0.0
C923 C 0.28751 0.89202 0.78728 0.0
N924 N 0.24123 0.88455 0.82672 0.0
N925 N 0.2837 0.87452 0.69739 0.0
C926 C 0.25252 0.8914 0.79511 0.0
C927 C 0.27296 0.88631 0.72769 0.0
N928 N 0.19781 0.90922 0.77624 0.0
N929 N 0.32829 0.90485 0.7439 0.0
H930 H 0.26759 0.86587 0.67878 0.0
H931 H 0.30895 0.86951 0.69251 0.0
H932 H 0.34545 0.91452 0.76119 0.0
H933 H 0.33519 0.90867 0.71893 0.0
H934 H 0.19111 0.91683 0.80038 0.0
H935 H 0.18086 0.91672 0.75777 0.0
H936 H 0.21579 0.88099 0.83201 0.0
H937 H 0.25674 0.87866 0.84675 0.0
C938 C 0.16155 0.2576 0.7885 0.0
C939 C 0.14261 0.28736 0.7841 0.0
C940 C 0.11996 0.26448 0.73149 0.0
C941 C 0.13706 0.23373 0.73763 0.0
N942 N 0.16454 0.19814 0.77844 0.0
N943 N 0.09784 0.31605 0.75512 0.0
C944 C 0.15459 0.22926 0.76826 0.0
C945 C 0.12009 0.29001 0.75659 0.0
N946 N 0.18781 0.25691 0.81049 0.0
N947 N 0.10339 0.2693 0.70186 0.0
H948 H 0.09678 0.33486 0.77326 0.0
H949 H 0.07842 0.31737 0.73765 0.0
H950 H 0.1001 0.25038 0.68409 0.0
H951 H 0.09419 0.29254 0.69426 0.0
H952 H 0.20435 0.23675 0.81241 0.0
H953 H 0.1958 0.2782 0.8232 0.0
H954 H 0.17502 0.19363 0.80198 0.0
H955 H 0.15883 0.17639 0.76527 0.0
C956 C 0.76228 0.10552 0.73359 0.0
C957 C 0.7889 0.12924 0.73425 0.0
C958 C 0.77143 0.14721 0.79024 0.0
C959 C 0.74166 0.12773 0.78754 0.0
N960 N 0.70826 0.08802 0.75604 0.0
N961 N 0.81211 0.17925 0.75908 0.0
C962 C 0.73689 0.10679 0.75893 0.0
C963 C 0.79177 0.1518 0.76152 0.0
N964 N 0.76173 0.08134 0.70927 0.0
N965 N 0.78071 0.16134 0.82002 0.0
H966 H 0.82385 0.18573 0.73674 0.0
H967 H 0.81329 0.19792 0.77732 0.0
H968 H 0.76766 0.1575 0.8422 0.0
H969 H 0.80369 0.1735 0.82344 0.0
H970 H 0.74498 0.06124 0.70925 0.0
H971 H 0.77987 0.07991 0.69042 0.0
H972 H 0.70136 0.07555 0.73413 0.0
H973 H 0.69059 0.08594 0.77525 0.0
C974 C 0.86189 0.75847 0.7824 0.0
C975 C 0.88969 0.73686 0.78719 0.0
C976 C 0.92134 0.76775 0.74412 0.0
C977 C 0.89209 0.78677 0.73711 0.0
N978 N 0.83311 0.79703 0.74603 0.0
N979 N 0.94564 0.71932 0.77223 0.0
C980 C 0.86208 0.78138 0.75543 0.0
C981 C 0.91947 0.74107 0.76795 0.0
N982 N 0.83524 0.7574 0.80388 0.0
N983 N 0.95084 0.77561 0.72835 0.0
H984 H 0.94546 0.70042 0.79034 0.0
H985 H 0.96678 0.71878 0.75687 0.0
H986 H 0.95264 0.79464 0.71044 0.0
H987 H 0.97392 0.76501 0.73448 0.0
H988 H 0.81648 0.77558 0.80473 0.0
H989 H 0.83308 0.73941 0.82246 0.0
H990 H 0.8095 0.79086 0.7555 0.0
H991 H 0.83226 0.81388 0.72622 0.0
C992 C 0.26433 0.23894 0.15843 0.0
C993 C 0.28724 0.23675 0.13135 0.0
C994 C 0.26324 0.28835 0.10713 0.0
C995 C 0.23851 0.2886 0.13289 0.0
N996 N 0.21429 0.2628 0.18192 0.0
N997 N 0.30824 0.25808 0.07886 0.0
C998 C 0.23856 0.26324 0.15787 0.0
C999 C 0.28669 0.2612 0.10538 0.0
N1000 N 0.2689 0.21957 0.18628 0.0
N1001 N 0.26459 0.31431 0.08474 0.0
H1002 H 0.32649 0.23938 0.07763 0.0
H1003 H 0.30701 0.27264 0.05723 0.0
H1004 H 0.24731 0.33394 0.0848 0.0
H1005 H 0.28375 0.31761 0.0673 0.0
H1006 H 0.25565 0.22251 0.20862 0.0
H1007 H 0.28879 0.20305 0.18842 0.0
H1008 H 0.20901 0.24213 0.19705 0.0
H1009 H 0.19906 0.28326 0.18613 0.0
C1010 C 0.25612 0.74405 0.85928 0.0
C1011 C 0.23649 0.73657 0.88798 0.0
C1012 C 0.26453 0.7825 0.91844 0.0
C1013 C 0.2811 0.79197 0.88833 0.0
N1014 N 0.28662 0.78631 0.82843 0.0
N1015 N 0.21996 0.74982 0.94463 0.0
C1016 C 0.27505 0.77411 0.85828 0.0
C1017 C 0.24018 0.75609 0.91762 0.0
N1018 N 0.25801 0.72171 0.83345 0.0
N1019 N 0.27218 0.79869 0.9477 0.0
H1020 H 0.20301 0.72983 0.94529 0.0
H1021 H 0.21873 0.76527 0.96565 0.0
H1022 H 0.28826 0.81939 0.94856 0.0
H1023 H 0.264 0.79071 0.97119 0.0
H1024 H 0.27481 0.72421 0.81352 0.0
H1025 H 0.2452 0.69901 0.83372 0.0
H1026 H 0.27953 0.77623 0.80535 0.0
H1027 H 0.30022 0.8086 0.82664 0.0
C1028 C 0.26407 0.23734 0.91206 0.0
C1029 C 0.28968 0.23649 0.88683 0.0
C1030 C 0.27096 0.29149 0.86677 0.0
C1031 C 0.24342 0.29099 0.88916 0.0
N1032 N 0.21148 0.26156 0.93134 0.0
N1033 N 0.30628 0.25718 0.83238 0.0
C1034 C 0.23929 0.26329 0.91125 0.0
C1035 C 0.29 0.26203 0.86204 0.0
N1036 N 0.26342 0.2141 0.93726 0.0
N1037 N 0.27944 0.32004 0.84993 0.0
H1038 H 0.3195 0.23543 0.82694 0.0
H1039 H 0.30365 0.27335 0.81202 0.0
H1040 H 0.26755 0.34278 0.85409 0.0
H1041 H 0.30092 0.32186 0.83501 0.0
H1042 H 0.24871 0.21663 0.95872 0.0
H1043 H 0.27876 0.19313 0.93819 0.0
H1044 H 0.20442 0.24007 0.94445 0.0
H1045 H 0.19433 0.28116 0.9336 0.0
C1046 C 0.75419 0.24069 0.85503 0.0
C1047 C 0.73765 0.23347 0.88573 0.0
C1048 C 0.76615 0.28197 0.91145 0.0
C1049 C 0.78665 0.28548 0.88246 0.0
N1050 N 0.80321 0.26404 0.82828 0.0
N1051 N 0.73123 0.24475 0.94486 0.0
C1052 C 0.78156 0.26358 0.85476 0.0
C1053 C 0.7444 0.25354 0.91445 0.0
N1054 N 0.74273 0.22701 0.82569 0.0
N1055 N 0.76687 0.30608 0.93578 0.0
H1056 H 0.71605 0.22364 0.94816 0.0
H1057 H 0.73792 0.2565 0.96725 0.0
H1058 H 0.78206 0.32737 0.93408 0.0
H1059 H 0.75029 0.30646 0.95601 0.0
H1060 H 0.75161 0.23424 0.80216 0.0
H1061 H 0.72207 0.21093 0.82449 0.0
H1062 H 0.80257 0.24649 0.80895 0.0
H1063 H 0.82353 0.28026 0.8271 0.0
C1064 C 0.74832 0.77265 0.92062 0.0
C1065 C 0.73277 0.78271 0.89012 0.0
C1066 C 0.76504 0.74031 0.85947 0.0
C1067 C 0.78291 0.73222 0.88921 0.0
N1068 N 0.79427 0.7428 0.94763 0.0
N1069 N 0.73105 0.7807 0.82964 0.0
C1070 C 0.77528 0.74898 0.91973 0.0
C1071 C 0.74238 0.76771 0.85932 0.0
N1072 N 0.73656 0.78485 0.95044 0.0
N1073 N 0.76916 0.72125 0.83135 0.0
H1074 H 0.71454 0.80089 0.82839 0.0
H1075 H 0.74026 0.77354 0.80625 0.0
H1076 H 0.78606 0.70153 0.83031 0.0
H1077 H 0.75446 0.72356 0.80989 0.0
H1078 H 0.74437 0.77606 0.97376 0.0
H1079 H 0.71697 0.80215 0.95193 0.0
H1080 H 0.79256 0.75672 0.96967 0.0
H1081 H 0.81341 0.72495 0.94805 0.0
C1082 C 0.7621 0.73594 0.15792 0.0
C1083 C 0.78541 0.73399 0.13109 0.0
C1084 C 0.75905 0.78415 0.1065 0.0
C1085 C 0.73326 0.78247 0.13111 0.0
N1086 N 0.7044 0.74682 0.17062 0.0
N1087 N 0.80105 0.75283 0.07544 0.0
C1088 C 0.73294 0.7554 0.15393 0.0
C1089 C 0.7827 0.75726 0.10405 0.0
N1090 N 0.76819 0.72056 0.1879 0.0
N1091 N 0.7607 0.81095 0.08525 0.0
H1092 H 0.81697 0.73245 0.07175 0.0
H1093 H 0.79772 0.7674 0.05399 0.0
H1094 H 0.74272 0.82996 0.08519 0.0
H1095 H 0.78093 0.81515 0.06916 0.0
H1096 H 0.75272 0.72406 0.20875 0.0
H1097 H 0.7903 0.70756 0.19305 0.0
H1098 H 0.70293 0.72594 0.18634 0.0
H1099 H 0.68142 0.75754 0.16477 0.0
C1100 C 0.26494 0.73107 0.11627 0.0
C1101 C 0.23688 0.73439 0.13797 0.0
C1102 C 0.25348 0.79218 0.15024 0.0
C1103 C 0.28442 0.78727 0.13327 0.0
N1104 N 0.32065 0.75059 0.10117 0.0
N1105 N 0.21096 0.76496 0.18329 0.0
C1106 C 0.29053 0.7562 0.11663 0.0
C1107 C 0.23282 0.76412 0.15698 0.0
N1108 N 0.26667 0.70455 0.09459 0.0
N1109 N 0.24341 0.82339 0.16003 0.0
H1110 H 0.1986 0.74358 0.19149 0.0
H1111 H 0.20919 0.78515 0.19983 0.0
H1112 H 0.25641 0.84511 0.15393 0.0
H1113 H 0.21978 0.82803 0.17034 0.0
H1114 H 0.28465 0.70265 0.0757 0.0
H1115 H 0.24837 0.68582 0.09356 0.0
H1116 H 0.32802 0.7271 0.09242 0.0
H1117 H 0.33907 0.76901 0.09845 0.0
C1118 C 0.73585 0.25533 0.15712 0.0
C1119 C 0.73564 0.23103 0.13114 0.0
C1120 C 0.78423 0.25903 0.1051 0.0
C1121 C 0.78305 0.28508 0.13001 0.0
N1122 N 0.75215 0.30982 0.17688 0.0
N1123 N 0.75521 0.2131 0.07707 0.0
C1124 C 0.75704 0.28396 0.15485 0.0
C1125 C 0.75861 0.23383 0.10423 0.0
N1126 N 0.71706 0.25021 0.18533 0.0
N1127 N 0.80973 0.2578 0.08215 0.0
H1128 H 0.73726 0.19401 0.07588 0.0
H1129 H 0.76814 0.21654 0.05461 0.0
H1130 H 0.82735 0.27667 0.07855 0.0
H1131 H 0.81453 0.23683 0.06732 0.0
H1132 H 0.71934 0.26443 0.20716 0.0
H1133 H 0.70217 0.22914 0.18857 0.0
H1134 H 0.73008 0.31267 0.19066 0.0
H1135 H 0.76863 0.32951 0.18089 0.0
C1136 C 0.74159 0.6055 0.7537 0.0
C1137 C 0.7365 0.63443 0.73342 0.0
C1138 C 0.7828 0.66294 0.76285 0.0
C1139 C 0.7856 0.63543 0.7853 0.0
N1140 N 0.76493 0.58206 0.80493 0.0
N1141 N 0.74893 0.69299 0.72264 0.0
C1142 C 0.76405 0.60721 0.78163 0.0
C1143 C 0.7564 0.66367 0.73888 0.0
N1144 N 0.72653 0.57585 0.74514 0.0
N1145 N 0.80539 0.68868 0.76445 0.0
H1146 H 0.72923 0.69547 0.70564 0.0
H1147 H 0.75979 0.71603 0.72858 0.0
H1148 H 0.82282 0.69083 0.78363 0.0
H1149 H 0.80791 0.70701 0.74601 0.0
H1150 H 0.7318 0.55311 0.75685 0.0
H1151 H 0.71128 0.57319 0.72404 0.0
H1152 H 0.74742 0.56262 0.80578 0.0
H1153 H 0.78178 0.5819 0.82497 0.0
C1154 C 0.25298 0.35936 0.77511 0.0
C1155 C 0.239 0.39057 0.78466 0.0
C1156 C 0.2741 0.41896 0.74229 0.0
C1157 C 0.29049 0.38795 0.73523 0.0
N1158 N 0.29969 0.32987 0.7508 0.0
N1159 N 0.23793 0.45074 0.78 0.0
C1160 C 0.28119 0.35857 0.75339 0.0
C1161 C 0.24978 0.42059 0.76874 0.0
N1162 N 0.23849 0.33014 0.78589 0.0
N1163 N 0.28227 0.447 0.72427 0.0
H1164 H 0.2201 0.45272 0.79908 0.0
H1165 H 0.24725 0.47387 0.77217 0.0
H1166 H 0.30215 0.44786 0.70726 0.0
H1167 H 0.26853 0.46918 0.72513 0.0
H1168 H 0.24478 0.3066 0.77642 0.0
H1169 H 0.21805 0.32954 0.80219 0.0
H1170 H 0.29605 0.30904 0.76609 0.0
H1171 H 0.32081 0.32761 0.73577 0.0
C1172 C 0.26766 0.66876 0.28142 0.0
C1173 C 0.28714 0.63971 0.28772 0.0
C1174 C 0.25441 0.60792 0.24641 0.0
C1175 C 0.23499 0.6371 0.23961 0.0
N1176 N 0.22841 0.69717 0.24471 0.0
N1177 N 0.30525 0.58475 0.27062 0.0
C1178 C 0.24297 0.66807 0.25561 0.0
C1179 C 0.28232 0.61017 0.26859 0.0
N1180 N 0.27294 0.69712 0.30003 0.0
N1181 N 0.24563 0.57778 0.23257 0.0
H1182 H 0.32631 0.58589 0.28616 0.0
H1183 H 0.30523 0.56397 0.25479 0.0
H1184 H 0.22632 0.57503 0.2152 0.0
H1185 H 0.25598 0.55499 0.24001 0.0
H1186 H 0.25709 0.71784 0.29969 0.0
H1187 H 0.29266 0.69951 0.31709 0.0
H1188 H 0.23556 0.72097 0.25275 0.0
H1189 H 0.21109 0.69796 0.22517 0.0
C1190 C 0.74502 0.41372 0.26853 0.0
C1191 C 0.74087 0.38464 0.28873 0.0
C1192 C 0.78214 0.35467 0.25388 0.0
C1193 C 0.78668 0.38381 0.2339 0.0
N1194 N 0.76663 0.43877 0.21752 0.0
N1195 N 0.76221 0.33026 0.30538 0.0
C1196 C 0.76642 0.41268 0.23979 0.0
C1197 C 0.76134 0.35597 0.2828 0.0
N1198 N 0.73067 0.44325 0.27855 0.0
N1199 N 0.79579 0.3248 0.24378 0.0
H1200 H 0.74832 0.32956 0.3273 0.0
H1201 H 0.77935 0.31069 0.30423 0.0
H1202 H 0.81064 0.32221 0.2224 0.0
H1203 H 0.7895 0.30171 0.25432 0.0
H1204 H 0.73547 0.46633 0.26731 0.0
H1205 H 0.7169 0.4455 0.3007 0.0
H1206 H 0.74942 0.45838 0.21815 0.0
H1207 H 0.78203 0.43983 0.19649 0.0
C1208 C 0.23019 0.6319 0.75451 0.0
C1209 C 0.23739 0.62976 0.78947 0.0
C1210 C 0.29761 0.6278 0.77554 0.0
C1211 C 0.28988 0.62649 0.74066 0.0
N1212 N 0.24702 0.61194 0.70001 0.0
N1213 N 0.2784 0.61134 0.83057 0.0
C1214 C 0.2556 0.6235 0.73112 0.0
C1215 C 0.27123 0.62331 0.79928 0.0
N1216 N 0.20023 0.64381 0.74294 0.0
N1217 N 0.32934 0.63468 0.78662 0.0
H1218 H 0.25983 0.60391 0.84748 0.0
H1219 H 0.30259 0.60425 0.83769 0.0
H1220 H 0.34957 0.63941 0.77086 0.0
H1221 H 0.33467 0.63897 0.81189 0.0
H1222 H 0.19577 0.64796 0.71748 0.0
H1223 H 0.18174 0.65375 0.75833 0.0
H1224 H 0.22212 0.60753 0.69305 0.0
H1225 H 0.26473 0.60247 0.68319 0.0
C1226 C 0.78559 0.35755 0.76349 0.0
C1227 C 0.79223 0.38725 0.78191 0.0
C1228 C 0.75018 0.41722 0.74774 0.0
C1229 C 0.7446 0.38761 0.7287 0.0
N1230 N 0.76351 0.33207 0.71345 0.0
N1231 N 0.77432 0.44321 0.79724 0.0
C1232 C 0.7642 0.35856 0.73509 0.0
C1233 C 0.77267 0.41655 0.77572 0.0
N1234 N 0.79748 0.32752 0.77494 0.0
N1235 N 0.73591 0.44663 0.73737 0.0
H1236 H 0.78978 0.44388 0.81825 0.0
H1237 H 0.75809 0.46362 0.79624 0.0
H1238 H 0.72125 0.44825 0.71574 0.0
H1239 H 0.7414 0.46998 0.74773 0.0
H1240 H 0.78986 0.30436 0.76547 0.0
H1241 H 0.81233 0.32553 0.79631 0.0
H1242 H 0.7801 0.31202 0.71484 0.0
H1243 H 0.74888 0.33137 0.69199 0.0
C1244 C 0.28014 0.35973 0.26648 0.0
C1245 C 0.28358 0.38861 0.28737 0.0
C1246 C 0.23653 0.41538 0.257 0.0
C1247 C 0.23441 0.3871 0.23555 0.0
N1248 N 0.25679 0.33432 0.2167 0.0
N1249 N 0.25887 0.44054 0.30758 0.0
C1250 C 0.25696 0.35992 0.23944 0.0
C1251 C 0.26005 0.41553 0.28413 0.0
N1252 N 0.2968 0.33074 0.27432 0.0
N1253 N 0.217 0.44283 0.2504 0.0
H1254 H 0.27508 0.44245 0.32785 0.0
H1255 H 0.23979 0.45829 0.30887 0.0
H1256 H 0.19919 0.44335 0.2312 0.0
H1257 H 0.22015 0.46607 0.2619 0.0
H1258 H 0.29186 0.30766 0.26308 0.0
H1259 H 0.31293 0.32831 0.29473 0.0
H1260 H 0.27568 0.31644 0.21476 0.0
H1261 H 0.23845 0.33192 0.19841 0.0
C1262 C 0.76226 0.61624 0.2886 0.0
C1263 C 0.72926 0.62831 0.28163 0.0
C1264 C 0.74627 0.63997 0.22321 0.0
C1265 C 0.77991 0.63054 0.23102 0.0
N1266 N 0.817 0.59965 0.26749 0.0
N1267 N 0.68792 0.643 0.23913 0.0
C1268 C 0.78713 0.61599 0.26279 0.0
C1269 C 0.72063 0.63729 0.24803 0.0
N1270 N 0.76965 0.60402 0.3198 0.0
N1271 N 0.7387 0.65325 0.1925 0.0
H1272 H 0.66812 0.64559 0.25571 0.0
H1273 H 0.6795 0.64298 0.2144 0.0
H1274 H 0.75501 0.6536 0.1723 0.0
H1275 H 0.71655 0.66602 0.1872 0.0
H1276 H 0.79403 0.60067 0.32865 0.0
H1277 H 0.75126 0.59724 0.33716 0.0
H1278 H 0.8228 0.58555 0.28865 0.0
H1279 H 0.83508 0.59713 0.24876 0.0
C1280 C 0.2924 0.76561 0.6211 0.0
C1281 C 0.28803 0.73814 0.64345 0.0
C1282 C 0.22924 0.7539 0.65173 0.0
C1283 C 0.23482 0.78419 0.63378 0.0
N1284 N 0.2716 0.81884 0.60026 0.0
N1285 N 0.25458 0.71117 0.68614 0.0
C1286 C 0.26648 0.79007 0.61823 0.0
C1287 C 0.25707 0.73366 0.66041 0.0
N1288 N 0.32058 0.7676 0.60155 0.0
N1289 N 0.19751 0.74376 0.66 0.0
H1290 H 0.27503 0.69742 0.69465 0.0
H1291 H 0.23358 0.70934 0.70168 0.0
H1292 H 0.17601 0.75616 0.65219 0.0
H1293 H 0.19232 0.72049 0.67077 0.0
H1294 H 0.32347 0.7847 0.58201 0.0
H1295 H 0.34024 0.75047 0.60296 0.0
H1296 H 0.29522 0.82705 0.5925 0.0
H1297 H 0.25216 0.83513 0.59381 0.0
C1298 C 0.28046 0.26785 0.41475 0.0
C1299 C 0.27999 0.29279 0.38916 0.0
C1300 C 0.22328 0.27365 0.37358 0.0
C1301 C 0.2272 0.24458 0.3936 0.0
N1302 N 0.26032 0.21358 0.43367 0.0
N1303 N 0.25137 0.315 0.34003 0.0
C1304 C 0.25621 0.24142 0.41413 0.0
C1305 C 0.25145 0.29456 0.36751 0.0
N1306 N 0.3023 0.27069 0.44103 0.0
N1307 N 0.19262 0.28197 0.36073 0.0
H1308 H 0.27123 0.33047 0.33355 0.0
H1309 H 0.2328 0.31398 0.3216 0.0
H1310 H 0.17077 0.26908 0.36673 0.0
H1311 H 0.18809 0.30444 0.34815 0.0
H1312 H 0.30193 0.25474 0.46174 0.0
H1313 H 0.31768 0.29159 0.44432 0.0
H1314 H 0.28276 0.20809 0.44597 0.0
H1315 H 0.24174 0.19527 0.43638 0.0
C1316 C 0.26194 0.79367 0.40939 0.0
C1317 C 0.23534 0.79048 0.38589 0.0
C1318 C 0.24761 0.73097 0.38032 0.0
C1319 C 0.27899 0.7355 0.39671 0.0
N1320 N 0.31303 0.77108 0.43295 0.0
N1321 N 0.20804 0.75719 0.34324 0.0
C1322 C 0.28541 0.76689 0.41303 0.0
C1323 C 0.22969 0.75946 0.36966 0.0
N1324 N 0.26373 0.82138 0.42959 0.0
N1325 N 0.23354 0.69989 0.3768 0.0
H1326 H 0.19737 0.77833 0.3324 0.0
H1327 H 0.20463 0.73518 0.32948 0.0
H1328 H 0.24243 0.67895 0.38966 0.0
H1329 H 0.20986 0.69621 0.36616 0.0
H1330 H 0.28008 0.82352 0.44988 0.0
H1331 H 0.24695 0.84134 0.42793 0.0
H1332 H 0.32226 0.79456 0.43989 0.0
H1333 H 0.32629 0.75121 0.44343 0.0
C1334 C 0.73396 0.75817 0.41133 0.0
C1335 C 0.73336 0.73447 0.38467 0.0
C1336 C 0.78346 0.76037 0.36003 0.0
C1337 C 0.78536 0.78292 0.38757 0.0
N1338 N 0.76546 0.80089 0.44168 0.0
N1339 N 0.75852 0.71147 0.33472 0.0
C1340 C 0.76137 0.7812 0.41387 0.0
C1341 C 0.75864 0.73494 0.35963 0.0
N1342 N 0.70807 0.75897 0.43388 0.0
N1343 N 0.8038 0.76482 0.33283 0.0
H1344 H 0.73782 0.69653 0.32982 0.0
H1345 H 0.7791 0.70628 0.31944 0.0
H1346 H 0.82108 0.78411 0.33149 0.0
H1347 H 0.80125 0.75203 0.3102 0.0
H1348 H 0.705 0.77774 0.45176 0.0
H1349 H 0.68824 0.74183 0.43347 0.0
H1350 H 0.75112 0.79851 0.46339 0.0
H1351 H 0.78503 0.81819 0.44408 0.0
C1352 C 0.75573 0.27997 0.41207 0.0
C1353 C 0.733 0.28313 0.38444 0.0
C1354 C 0.76167 0.23632 0.3562 0.0
C1355 C 0.7852 0.23428 0.38285 0.0
N1356 N 0.80864 0.25805 0.4332 0.0
N1357 N 0.72109 0.26973 0.32633 0.0
C1358 C 0.78343 0.25732 0.40988 0.0
C1359 C 0.7376 0.26255 0.35558 0.0
N1360 N 0.75038 0.29756 0.44102 0.0
N1361 N 0.76265 0.2134 0.33084 0.0
H1362 H 0.70486 0.28995 0.32346 0.0
H1363 H 0.72659 0.25836 0.30345 0.0
H1364 H 0.78222 0.19657 0.3282 0.0
H1365 H 0.74343 0.21015 0.31342 0.0
H1366 H 0.76309 0.29277 0.46335 0.0
H1367 H 0.73164 0.31541 0.44385 0.0
H1368 H 0.81112 0.27681 0.45123 0.0
H1369 H 0.82876 0.24133 0.43296 0.0
C1370 C 0.79018 0.26197 0.61153 0.0
C1371 C 0.78897 0.23626 0.63607 0.0
C1372 C 0.74076 0.26406 0.6626 0.0
C1373 C 0.73818 0.2866 0.63488 0.0
N1374 N 0.76132 0.30569 0.5815 0.0
N1375 N 0.76382 0.21317 0.68589 0.0
C1376 C 0.76325 0.2854 0.60908 0.0
C1377 C 0.7642 0.23724 0.66157 0.0
N1378 N 0.81768 0.26487 0.59112 0.0
N1379 N 0.72318 0.27003 0.69149 0.0
H1380 H 0.78351 0.19655 0.6894 0.0
H1381 H 0.7437 0.20923 0.70207 0.0
H1382 H 0.70768 0.29072 0.69496 0.0
H1383 H 0.72717 0.2571 0.71383 0.0
H1384 H 0.82222 0.28563 0.5759 0.0
H1385 H 0.83764 0.248 0.59139 0.0
H1386 H 0.77524 0.30153 0.55975 0.0
H1387 H 0.74488 0.32563 0.57887 0.0
C1388 C 0.26908 0.27901 0.60477 0.0
C1389 C 0.28838 0.28558 0.63397 0.0
C1390 C 0.26769 0.23362 0.65958 0.0
C1391 C 0.24404 0.22968 0.63303 0.0
N1392 N 0.2262 0.24511 0.57739 0.0
N1393 N 0.30244 0.27187 0.69105 0.0
C1394 C 0.2458 0.25158 0.60477 0.0
C1395 C 0.28658 0.26366 0.66183 0.0
N1396 N 0.27387 0.29839 0.57684 0.0
N1397 N 0.27389 0.20832 0.68187 0.0
H1398 H 0.31689 0.29342 0.69339 0.0
H1399 H 0.29857 0.2592 0.71361 0.0
H1400 H 0.26272 0.18485 0.68106 0.0
H1401 H 0.29367 0.20903 0.69901 0.0
H1402 H 0.26302 0.29357 0.55359 0.0
H1403 H 0.29026 0.31886 0.57645 0.0
H1404 H 0.22255 0.2618 0.55767 0.0
H1405 H 0.21377 0.22227 0.57429 0.0
C1406 C 0.79428 0.75359 0.65146 0.0
C1407 C 0.78927 0.78458 0.63471 0.0
C1408 C 0.73363 0.76478 0.61637 0.0
C1409 C 0.7399 0.73308 0.63165 0.0
N1410 N 0.78194 0.69458 0.65319 0.0
N1411 N 0.75722 0.81646 0.59435 0.0
C1412 C 0.7721 0.72647 0.64549 0.0
C1413 C 0.75974 0.78934 0.61521 0.0
N1414 N 0.81872 0.75055 0.6752 0.0
N1415 N 0.70294 0.77139 0.60248 0.0
H1416 H 0.776 0.83456 0.59205 0.0
H1417 H 0.73802 0.81937 0.57684 0.0
H1418 H 0.68445 0.75315 0.59907 0.0
H1419 H 0.69536 0.79536 0.5954 0.0
H1420 H 0.8214 0.7295 0.69046 0.0
H1421 H 0.83322 0.77074 0.68277 0.0
H1422 H 0.80647 0.68873 0.66028 0.0
H1423 H 0.76728 0.67343 0.64913 0.0
C1424 C 0.622 0.26489 0.79111 0.0
C1425 C 0.6407 0.23512 0.7854 0.0
C1426 C 0.64913 0.25184 0.72707 0.0
C1427 C 0.63687 0.28452 0.73448 0.0
N1428 N 0.61015 0.32199 0.77411 0.0
N1429 N 0.67932 0.20502 0.74998 0.0
C1430 C 0.62306 0.2911 0.7668 0.0
C1431 C 0.65606 0.22978 0.75387 0.0
N1432 N 0.6018 0.26742 0.81875 0.0
N1433 N 0.65438 0.24138 0.69485 0.0
H1434 H 0.68885 0.19182 0.77026 0.0
H1435 H 0.69255 0.20108 0.72781 0.0
H1436 H 0.64976 0.25583 0.67374 0.0
H1437 H 0.66017 0.21657 0.68891 0.0
H1438 H 0.58499 0.28705 0.8225 0.0
H1439 H 0.59922 0.24823 0.83633 0.0
H1440 H 0.60406 0.32952 0.79839 0.0
H1441 H 0.60647 0.34058 0.75611 0.0
C1442 C 0.41542 0.76503 0.78602 0.0
C1443 C 0.38545 0.78415 0.78895 0.0
C1444 C 0.35717 0.74667 0.74934 0.0
C1445 C 0.38768 0.72924 0.74421 0.0
N1446 N 0.44722 0.72417 0.75373 0.0
N1447 N 0.33153 0.79887 0.76569 0.0
C1448 C 0.41731 0.73913 0.76137 0.0
C1449 C 0.35736 0.77661 0.76841 0.0
N1450 N 0.44179 0.77123 0.80711 0.0
N1451 N 0.32778 0.73438 0.73644 0.0
H1452 H 0.33141 0.82163 0.77838 0.0
H1453 H 0.31208 0.7963 0.74835 0.0
H1454 H 0.32657 0.71215 0.72272 0.0
H1455 H 0.30431 0.74439 0.74223 0.0
H1456 H 0.46286 0.75587 0.80878 0.0
H1457 H 0.44177 0.79081 0.82444 0.0
H1458 H 0.47034 0.73268 0.76259 0.0
H1459 H 0.44913 0.70436 0.7367 0.0
C1460 C 0.60398 0.75258 0.27681 0.0
C1461 C 0.63346 0.73389 0.28461 0.0
C1462 C 0.6651 0.76844 0.24421 0.0
C1463 C 0.63462 0.78305 0.23297 0.0
N1464 N 0.57416 0.78365 0.23396 0.0
N1465 N 0.69241 0.72326 0.27404 0.0
C1466 C 0.60379 0.77364 0.24801 0.0
C1467 C 0.66406 0.74144 0.26758 0.0
N1468 N 0.57638 0.75121 0.29713 0.0
N1469 N 0.69519 0.78151 0.23392 0.0
H1470 H 0.69389 0.70544 0.29303 0.0
H1471 H 0.71402 0.72466 0.25935 0.0
H1472 H 0.69706 0.80134 0.21693 0.0
H1473 H 0.71822 0.77465 0.24426 0.0
H1474 H 0.5556 0.76676 0.29392 0.0
H1475 H 0.57553 0.73762 0.31936 0.0
H1476 H 0.55079 0.7749 0.24196 0.0
H1477 H 0.57317 0.79774 0.21193 0.0
C1478 C 0.37262 0.29465 0.2496 0.0
C1479 C 0.38826 0.2898 0.28125 0.0
C1480 C 0.40913 0.23512 0.26125 0.0
C1481 C 0.38801 0.23769 0.23264 0.0
N1482 N 0.34269 0.26684 0.20523 0.0
N1483 N 0.42301 0.25536 0.31703 0.0
C1484 C 0.36809 0.26674 0.22816 0.0
C1485 C 0.40692 0.25989 0.28709 0.0
N1486 N 0.36193 0.3256 0.2396 0.0
N1487 N 0.43218 0.20981 0.26308 0.0
H1488 H 0.42522 0.27423 0.33501 0.0
H1489 H 0.43323 0.23252 0.32449 0.0
H1490 H 0.43495 0.19184 0.24425 0.0
H1491 H 0.45057 0.20833 0.2816 0.0
H1492 H 0.3532 0.33033 0.21539 0.0
H1493 H 0.36483 0.34718 0.25388 0.0
H1494 H 0.32577 0.28657 0.20262 0.0
H1495 H 0.33558 0.24526 0.19258 0.0
C1496 C 0.38483 0.27062 0.79493 0.0
C1497 C 0.39221 0.23658 0.78643 0.0
C1498 C 0.40384 0.25393 0.7282 0.0
C1499 C 0.39317 0.28723 0.73583 0.0
N1500 N 0.38241 0.3289 0.77909 0.0
N1501 N 0.42139 0.1994 0.74878 0.0
C1502 C 0.38665 0.29609 0.76992 0.0
C1503 C 0.40509 0.22916 0.75402 0.0
N1504 N 0.3744 0.27897 0.82656 0.0
N1505 N 0.41409 0.24611 0.69641 0.0
H1506 H 0.42566 0.18198 0.7678 0.0
H1507 H 0.43422 0.19341 0.72685 0.0
H1508 H 0.42073 0.26416 0.67867 0.0
H1509 H 0.41602 0.22162 0.68753 0.0
H1510 H 0.36282 0.30157 0.83256 0.0
H1511 H 0.37492 0.26314 0.84709 0.0
H1512 H 0.38536 0.33748 0.8036 0.0
H1513 H 0.37767 0.34848 0.76275 0.0
C1514 C 0.64865 0.7509 0.79666 0.0
C1515 C 0.62936 0.78037 0.79213 0.0
C1516 C 0.60862 0.75697 0.73897 0.0
C1517 C 0.63394 0.73175 0.73994 0.0
N1518 N 0.68285 0.70979 0.76918 0.0
N1519 N 0.59075 0.81195 0.75781 0.0
C1520 C 0.65526 0.73005 0.76867 0.0
C1521 C 0.60953 0.78374 0.76272 0.0
N1522 N 0.66016 0.74206 0.82766 0.0
N1523 N 0.58217 0.75405 0.71734 0.0
H1524 H 0.5883 0.83067 0.77594 0.0
H1525 H 0.57894 0.81731 0.73509 0.0
H1526 H 0.57826 0.7327 0.7028 0.0
H1527 H 0.56176 0.77038 0.71737 0.0
H1528 H 0.67234 0.71941 0.83237 0.0
H1529 H 0.65313 0.75458 0.84934 0.0
H1530 H 0.70055 0.71037 0.78843 0.0
H1531 H 0.69033 0.69523 0.74903 0.0
C1532 C 0.64629 0.25348 0.28723 0.0
C1533 C 0.63282 0.28593 0.28151 0.0
C1534 C 0.61738 0.26832 0.22425 0.0
C1535 C 0.63629 0.23848 0.22874 0.0
N1536 N 0.67806 0.2095 0.26135 0.0
N1537 N 0.60493 0.32454 0.24383 0.0
C1538 C 0.65322 0.23289 0.25939 0.0
C1539 C 0.61837 0.29356 0.24965 0.0
N1540 N 0.65268 0.24182 0.31881 0.0
N1541 N 0.59734 0.27195 0.19664 0.0
H1542 H 0.60144 0.34235 0.26264 0.0
H1543 H 0.59825 0.33297 0.22002 0.0
H1544 H 0.59567 0.25397 0.17773 0.0
H1545 H 0.58016 0.29141 0.19381 0.0
H1546 H 0.65983 0.21708 0.32339 0.0
H1547 H 0.64765 0.25508 0.34061 0.0
H1548 H 0.69255 0.20571 0.28277 0.0
H1549 H 0.68758 0.19809 0.23999 0.0
C1550 C 0.36434 0.75904 0.23931 0.0
C1551 C 0.38198 0.78965 0.24344 0.0
C1552 C 0.40242 0.76939 0.29827 0.0
C1553 C 0.38721 0.73758 0.29213 0.0
N1554 N 0.36373 0.69984 0.25042 0.0
N1555 N 0.4216 0.82266 0.27545 0.0
C1556 C 0.37143 0.7316 0.26068 0.0
C1557 C 0.40201 0.79459 0.27266 0.0
N1558 N 0.3391 0.75663 0.21626 0.0
N1559 N 0.41782 0.77537 0.32834 0.0
H1560 H 0.42162 0.8419 0.25776 0.0
H1561 H 0.4397 0.82592 0.29404 0.0
H1562 H 0.42231 0.75655 0.34596 0.0
H1563 H 0.42524 0.79914 0.33629 0.0
H1564 H 0.3233 0.73581 0.21438 0.0
H1565 H 0.3309 0.77724 0.20265 0.0
H1566 H 0.35424 0.69453 0.22661 0.0
H1567 H 0.37146 0.67853 0.26314 0.0
C1568 C 0.19413 0.99803 0.35821 0.0
C1569 C 0.1656 0.98039 0.3701 0.0
C1570 C 0.13861 0.03402 0.38463 0.0
C1571 C 0.16512 0.05129 0.36804 0.0
N1572 N 0.21698 0.04974 0.33656 0.0
N1573 N 0.11342 0.98036 0.40019 0.0
C1574 C 0.19257 0.03329 0.35421 0.0
C1575 C 0.13855 0.99811 0.38503 0.0
N1576 N 0.22355 0.98133 0.3527 0.0
N1577 N 0.11378 0.05209 0.39999 0.0
H1578 H 0.11534 0.95459 0.40419 0.0
H1579 H 0.09128 0.99068 0.40935 0.0
H1580 H 0.11312 0.07826 0.39969 0.0
H1581 H 0.09432 0.04166 0.41394 0.0
H1582 H 0.24621 0.99324 0.34717 0.0
H1583 H 0.22632 0.9559 0.35765 0.0
H1584 H 0.23485 0.03752 0.3219 0.0
H1585 H 0.21803 0.07569 0.33457 0.0
C1586 C 0.99256 0.16799 0.33397 0.0
C1587 C 0.97412 0.15584 0.36197 0.0
C1588 C 0.02748 0.14097 0.38934 0.0
C1589 C 0.04503 0.15004 0.35969 0.0
N1590 N 0.04259 0.16203 0.30044 0.0
N1591 N 0.97405 0.12458 0.41376 0.0
C1592 C 0.027 0.16012 0.33089 0.0
C1593 C 0.99159 0.14062 0.38911 0.0
N1594 N 0.97783 0.18905 0.31137 0.0
N1595 N 0.04504 0.13284 0.41762 0.0
H1596 H 0.94797 0.12296 0.41344 0.0
H1597 H 0.98536 0.11039 0.43256 0.0
H1598 H 0.07122 0.13112 0.41795 0.0
H1599 H 0.03377 0.12958 0.441 0.0
H1600 H 0.99112 0.20082 0.29212 0.0
H1601 H 0.9536 0.19821 0.31462 0.0
H1602 H 0.02962 0.16671 0.27819 0.0
H1603 H 0.06762 0.1553 0.29697 0.0
C1604 C 0.84384 0.02398 0.34044 0.0
C1605 C 0.86438 0.04324 0.36209 0.0
C1606 C 0.88251 0.99153 0.39039 0.0
C1607 C 0.85936 0.97299 0.37053 0.0
N1608 N 0.81067 0.97391 0.33454 0.0
N1609 N 0.902 0.04632 0.40928 0.0
C1610 C 0.83788 0.98993 0.34788 0.0
C1611 C 0.88342 0.02728 0.38762 0.0
N1612 N 0.83108 0.03778 0.31184 0.0
N1613 N 0.90396 0.97492 0.41124 0.0
H1614 H 0.90462 0.07219 0.40639 0.0
H1615 H 0.91357 0.03686 0.43069 0.0
H1616 H 0.90238 0.94912 0.41489 0.0
H1617 H 0.92396 0.9863 0.4237 0.0
H1618 H 0.81849 0.02384 0.29358 0.0
H1619 H 0.83666 0.06215 0.30445 0.0
H1620 H 0.79257 0.98597 0.32001 0.0
H1621 H 0.80386 0.94985 0.34183 0.0
C1622 C 0.99173 0.89559 0.37504 0.0
C1623 C 0.9757 0.86449 0.36727 0.0
C1624 C 0.02922 0.84229 0.34812 0.0
C1625 C 0.04635 0.87137 0.35922 0.0
N1626 N 0.04394 0.92382 0.38929 0.0
N1627 N 0.98592 0.80405 0.36381 0.0
C1628 C 0.02761 0.89779 0.37416 0.0
C1629 C 0.99622 0.83644 0.35911 0.0
N1630 N 0.97298 0.92248 0.38486 0.0
N1631 N 0.04409 0.82016 0.32667 0.0
H1632 H 0.96503 0.79722 0.37789 0.0
H1633 H 1.00161 0.78367 0.35899 0.0
H1634 H 0.06733 0.82483 0.31572 0.0
H1635 H 0.03121 0.79972 0.31646 0.0
H1636 H 0.98253 0.94679 0.38641 0.0
H1637 H 0.94766 0.9204 0.39112 0.0
H1638 H 0.03192 0.94208 0.40358 0.0
H1639 H 0.06997 0.92544 0.38995 0.0
C1640 C 0.19245 0.02852 0.6479 0.0
C1641 C 0.16104 0.04528 0.65141 0.0
C1642 C 0.13194 0.99076 0.65026 0.0
C1643 C 0.16344 0.97418 0.65105 0.0
N1644 N 0.22394 0.97714 0.65453 0.0
N1645 N 0.10078 0.0425 0.65766 0.0
C1646 C 0.19375 0.993 0.65056 0.0
C1647 C 0.13074 0.0264 0.65315 0.0
N1648 N 0.22131 0.0463 0.64206 0.0
N1649 N 0.10327 0.97244 0.64538 0.0
H1650 H 0.09857 0.06854 0.65766 0.0
H1651 H 0.07837 0.03017 0.66321 0.0
H1652 H 0.10352 0.94649 0.64208 0.0
H1653 H 0.07973 0.98303 0.64133 0.0
H1654 H 0.24374 0.03519 0.63452 0.0
H1655 H 0.22279 0.07231 0.64232 0.0
H1656 H 0.24636 0.9897 0.65956 0.0
H1657 H 0.22649 0.95121 0.65531 0.0
C1658 C 0.99577 0.13259 0.63797 0.0
C1659 C 0.97741 0.1599 0.65156 0.0
C1660 C 0.02941 0.18362 0.67427 0.0
C1661 C 0.04847 0.15841 0.65789 0.0
N1662 N 0.05002 0.11196 0.61905 0.0
N1663 N 0.97846 0.21614 0.6739 0.0
C1664 C 0.03172 0.1336 0.63832 0.0
C1665 C 0.99477 0.18687 0.66698 0.0
N1666 N 0.97891 0.10564 0.62506 0.0
N1667 N 0.04384 0.20347 0.69824 0.0
H1668 H 0.9538 0.22038 0.66652 0.0
H1669 H 0.99067 0.23757 0.68269 0.0
H1670 H 0.06857 0.20048 0.70612 0.0
H1671 H 0.03017 0.22002 0.71316 0.0
H1672 H 0.9907 0.0834 0.6181 0.0
H1673 H 0.95274 0.10487 0.62321 0.0
H1674 H 0.03924 0.09544 0.60188 0.0
H1675 H 0.07621 0.11253 0.61809 0.0
C1676 C 0.88087 0.0257 0.68147 0.0
C1677 C 0.86956 0.04425 0.6533 0.0
C1678 C 0.8628 0.99136 0.62183 0.0
C1679 C 0.87328 0.97308 0.65087 0.0
N1680 N 0.91097 0.97635 0.69841 0.0
N1681 N 0.85909 0.0454 0.59373 0.0
C1682 C 0.88817 0.99128 0.67766 0.0
C1683 C 0.86303 0.02727 0.62257 0.0
N1684 N 0.8833 0.04019 0.71245 0.0
N1685 N 0.85381 0.97487 0.59318 0.0
H1686 H 0.8605 0.07147 0.59315 0.0
H1687 H 0.85761 0.03478 0.56991 0.0
H1688 H 0.86144 0.9505 0.58785 0.0
H1689 H 0.83997 0.98596 0.57398 0.0
H1690 H 0.8887 0.02635 0.734 0.0
H1691 H 0.87621 0.06483 0.7174 0.0
H1692 H 0.924 0.98953 0.71693 0.0
H1693 H 0.92063 0.95255 0.69361 0.0
C1694 C 0.99483 0.87417 0.63188 0.0
C1695 C 0.97759 0.87185 0.66297 0.0
C1696 C 0.0314 0.87391 0.69319 0.0
C1697 C 0.04876 0.8722 0.66205 0.0
N1698 N 0.04771 0.87109 0.60159 0.0
N1699 N 0.9793 0.8662 0.72333 0.0
C1700 C 0.03062 0.87249 0.63132 0.0
C1701 C 0.9958 0.87134 0.69366 0.0
N1702 N 0.97687 0.87911 0.60305 0.0
N1703 N 0.04878 0.87784 0.72257 0.0
H1704 H 0.9533 0.86562 0.72546 0.0
H1705 H 0.99134 0.8601 0.74571 0.0
H1706 H 0.07482 0.87715 0.72437 0.0
H1707 H 0.0374 0.88416 0.74523 0.0
H1708 H 0.98763 0.88422 0.57981 0.0
H1709 H 0.95073 0.88074 0.60284 0.0
H1710 H 0.03633 0.86685 0.57846 0.0
H1711 H 0.07378 0.8731 0.60012 0.0
C1712 C 0.33596 0.17048 0.02727 0.0
C1713 C 0.35858 0.15024 0.04557 0.0
C1714 C 0.38274 0.13043 0.99225 0.0
C1715 C 0.36248 0.15391 0.97459 0.0
N1716 N 0.32874 0.20436 0.97814 0.0
N1717 N 0.40681 0.11389 0.046 0.0
C1718 C 0.34178 0.17636 0.99287 0.0
C1719 C 0.38286 0.13076 0.02821 0.0
N1720 N 0.30811 0.18342 0.0424 0.0
N1721 N 0.40256 0.10868 0.97474 0.0
H1722 H 0.40759 0.11408 0.07217 0.0
H1723 H 0.42715 0.10176 0.03496 0.0
H1724 H 0.40522 0.10994 0.94873 0.0
H1725 H 0.41513 0.08863 0.98577 0.0
H1726 H 0.28938 0.1961 0.02923 0.0
H1727 H 0.30179 0.17782 0.06707 0.0
H1728 H 0.31643 0.223 0.99176 0.0
H1729 H 0.33316 0.21091 0.9533 0.0
C1730 C 0.84872 0.33472 0.98994 0.0
C1731 C 0.87063 0.35623 0.97207 0.0
C1732 C 0.89149 0.37863 0.02588 0.0
C1733 C 0.86656 0.35964 0.04309 0.0
N1734 N 0.81492 0.32745 0.03928 0.0
N1735 N 0.91219 0.40013 0.9724 0.0
C1736 C 0.84319 0.34013 0.0245 0.0
C1737 C 0.89206 0.37854 0.9899 0.0
N1738 N 0.83442 0.30778 0.97437 0.0
N1739 N 0.91398 0.39725 0.0439 0.0
H1740 H 0.91382 0.39965 0.94629 0.0
H1741 H 0.92598 0.41943 0.9834 0.0
H1742 H 0.91218 0.40006 0.06985 0.0
H1743 H 0.93496 0.40888 0.03347 0.0
H1744 H 0.8208 0.28942 0.98717 0.0
H1745 H 0.83975 0.30158 0.94962 0.0
H1746 H 0.79562 0.31612 0.02563 0.0
H1747 H 0.80896 0.33103 0.0644 0.0
C1748 C 0.68323 0.8876 0.99587 0.0
C1749 C 0.65812 0.87092 0.97662 0.0
C1750 C 0.63512 0.84747 0.02849 0.0
C1751 C 0.65714 0.86773 0.04817 0.0
N1752 N 0.69409 0.91641 0.04791 0.0
N1753 N 0.60243 0.8464 0.9777 0.0
C1754 C 0.6786 0.89085 0.0311 0.0
C1755 C 0.63144 0.85475 0.99394 0.0
N1756 N 0.71251 0.89852 0.98164 0.0
N1757 N 0.61967 0.81965 0.04132 0.0
H1758 H 0.59765 0.85384 0.95312 0.0
H1759 H 0.58169 0.83631 0.99019 0.0
H1760 H 0.62528 0.80945 0.06467 0.0
H1761 H 0.60513 0.80365 0.02649 0.0
H1762 H 0.73228 0.90816 0.99592 0.0
H1763 H 0.71902 0.89434 0.95673 0.0
H1764 H 0.70782 0.93503 0.03561 0.0
H1765 H 0.68967 0.92158 0.0731 0.0
C1766 C 0.17737 0.63414 0.03035 0.0
C1767 C 0.1577 0.65788 0.04851 0.0
C1768 C 0.13395 0.67612 0.99456 0.0
C1769 C 0.15857 0.65762 0.97653 0.0
N1770 N 0.21091 0.6265 0.98068 0.0
N1771 N 0.12499 0.70928 0.04415 0.0
C1772 C 0.18233 0.63859 0.99528 0.0
C1773 C 0.13799 0.68109 0.02968 0.0
N1774 N 0.19083 0.60682 0.04597 0.0
N1775 N 0.10621 0.68845 0.97869 0.0
H1776 H 0.13076 0.71702 0.06842 0.0
H1777 H 0.11251 0.7276 0.03025 0.0
H1778 H 0.10069 0.68313 0.9537 0.0
H1779 H 0.08665 0.70007 0.99166 0.0
H1780 H 0.20307 0.58781 0.0328 0.0
H1781 H 0.18612 0.60092 0.07096 0.0
H1782 H 0.22976 0.61472 0.99449 0.0
H1783 H 0.21818 0.63223 0.95625 0.0
C1784 C 0.38263 0.88794 0.99434 0.0
C1785 C 0.36909 0.86007 0.97672 0.0
C1786 C 0.34954 0.8358 0.02943 0.0
C1787 C 0.36526 0.86207 0.0478 0.0
N1788 N 0.40179 0.91046 0.04774 0.0
N1789 N 0.34982 0.8027 0.97887 0.0
C1790 C 0.38319 0.88755 0.03024 0.0
C1791 C 0.35584 0.83248 0.9947 0.0
N1792 N 0.39504 0.91463 0.97675 0.0
N1793 N 0.3267 0.81515 0.04452 0.0
H1794 H 0.35566 0.7987 0.95376 0.0
H1795 H 0.34292 0.78092 0.99163 0.0
H1796 H 0.31904 0.81838 0.06918 0.0
H1797 H 0.3122 0.79773 0.03138 0.0
H1798 H 0.40167 0.93738 0.9878 0.0
H1799 H 0.39723 0.91442 0.95065 0.0
H1800 H 0.41798 0.92764 0.03648 0.0
H1801 H 0.40312 0.91053 0.07385 0.0
C1802 C 0.13694 0.38519 0.02716 0.0
C1803 C 0.15676 0.36137 0.04477 0.0
C1804 C 0.186 0.34704 0.99278 0.0
C1805 C 0.16414 0.36815 0.97433 0.0
N1806 N 0.11584 0.40445 0.97315 0.0
N1807 N 0.19316 0.31317 0.04227 0.0
C1808 C 0.13873 0.38654 0.9913 0.0
C1809 C 0.1792 0.3404 0.02693 0.0
N1810 N 0.117 0.40682 0.0447 0.0
N1811 N 0.21415 0.33424 0.97806 0.0
H1812 H 0.1872 0.30636 0.06671 0.0
H1813 H 0.20726 0.29521 0.02954 0.0
H1814 H 0.22105 0.34015 0.95364 0.0
H1815 H 0.23261 0.32124 0.99126 0.0
H1816 H 0.10469 0.42709 0.03377 0.0
H1817 H 0.11439 0.40559 0.07073 0.0
H1818 H 0.09467 0.41561 0.98365 0.0
H1819 H 0.11694 0.40632 0.94706 0.0
C1820 C 0.65759 0.12666 0.02494 0.0
C1821 C 0.65241 0.15669 0.04359 0.0
C1822 C 0.64747 0.18834 0.9908 0.0
C1823 C 0.65047 0.15788 0.97254 0.0
N1824 N 0.65003 0.09756 0.9721 0.0
N1825 N 0.63913 0.21615 0.04391 0.0
C1826 C 0.653 0.1269 0.98963 0.0
C1827 C 0.64588 0.1874 0.02643 0.0
N1828 N 0.66786 0.098 0.04061 0.0
N1829 N 0.64858 0.21849 0.97442 0.0
H1830 H 0.64262 0.21887 0.0696 0.0
H1831 H 0.62862 0.23738 0.03289 0.0
H1832 H 0.6489 0.22089 0.94846 0.0
H1833 H 0.6518 0.24143 0.98653 0.0
H1834 H 0.67585 0.07671 0.02776 0.0
H1835 H 0.67125 0.09619 0.06637 0.0
H1836 H 0.64803 0.07411 0.98348 0.0
H1837 H 0.64593 0.09697 0.94628 0.0
C1838 C 0.88934 0.6728 0.9905 0.0
C1839 C 0.87098 0.64758 0.97317 0.0
C1840 C 0.85829 0.62226 0.02809 0.0
C1841 C 0.86827 0.65254 0.04418 0.0
N1842 N 0.88837 0.70975 0.03807 0.0
N1843 N 0.84153 0.59401 0.9773 0.0
C1844 C 0.88265 0.67866 0.02476 0.0
C1845 C 0.85656 0.6209 0.99238 0.0
N1846 N 0.9142 0.69035 0.9747 0.0
N1847 N 0.85242 0.59411 0.04675 0.0
H1848 H 0.84613 0.58665 0.95275 0.0
H1849 H 0.82507 0.57806 0.98998 0.0
H1850 H 0.85535 0.59359 0.07264 0.0
H1851 H 0.84855 0.57042 0.03637 0.0
H1852 H 0.92952 0.70756 0.98721 0.0
H1853 H 0.92262 0.68391 0.95081 0.0
H1854 H 0.89634 0.72996 0.02344 0.0
H1855 H 0.88145 0.71653 0.06234 0.0
C1856 C 0.02925 0.36386 0.12711 0.0
C1857 C 0.04683 0.36729 0.15802 0.0
C1858 C 0.99323 0.36677 0.18868 0.0
C1859 C 0.9755 0.3644 0.15774 0.0
N1860 N 0.97593 0.36464 0.09735 0.0
N1861 N 0.04536 0.37664 0.2181 0.0
C1862 C 0.99337 0.3639 0.12689 0.0
C1863 C 0.02876 0.37042 0.18866 0.0
N1864 N 0.04696 0.36054 0.0979 0.0
N1865 N 0.97644 0.36318 0.21841 0.0
H1866 H 0.0713 0.37576 0.22085 0.0
H1867 H 0.03338 0.38477 0.23986 0.0
H1868 H 0.95051 0.36138 0.22023 0.0
H1869 H 0.98826 0.35925 0.24138 0.0
H1870 H 0.03634 0.35352 0.07509 0.0
H1871 H 0.0729 0.36382 0.09658 0.0
H1872 H 0.9869 0.36813 0.07391 0.0
H1873 H 0.94981 0.36384 0.09634 0.0
C1874 C 0.0287 0.695 0.86916 0.0
C1875 C 0.04662 0.66419 0.86913 0.0
C1876 C 0.99302 0.63317 0.87261 0.0
C1877 C 0.97524 0.66377 0.86899 0.0
N1878 N 0.97604 0.72372 0.86015 0.0
N1879 N 0.04638 0.60374 0.87038 0.0
C1880 C 0.99303 0.69468 0.86668 0.0
C1881 C 0.02888 0.63319 0.87071 0.0
N1882 N 0.04563 0.72482 0.87161 0.0
N1883 N 0.97556 0.60429 0.87909 0.0
H1884 H 0.07248 0.60281 0.87215 0.0
H1885 H 0.03532 0.58028 0.86712 0.0
H1886 H 0.94941 0.60359 0.88102 0.0
H1887 H 0.98679 0.58156 0.88523 0.0
H1888 H 0.03391 0.74762 0.87652 0.0
H1889 H 0.07168 0.72686 0.87116 0.0
H1890 H 0.98767 0.746 0.85294 0.0
H1891 H 0.95001 0.72522 0.85956 0.0
C1892 C 0.39107 0.99165 0.84303 0.0
C1893 C 0.37508 0.97503 0.87033 0.0
C1894 C 0.36475 0.03085 0.89497 0.0
C1895 C 0.37216 0.04625 0.86359 0.0
N1896 N 0.38766 0.03865 0.80528 0.0
N1897 N 0.35108 0.98086 0.92621 0.0
C1898 C 0.38423 0.02599 0.83694 0.0
C1899 C 0.3632 0.99515 0.89753 0.0
N1900 N 0.41417 0.97523 0.82379 0.0
N1901 N 0.36139 0.05023 0.92301 0.0
H1902 H 0.35693 0.95668 0.93388 0.0
H1903 H 0.33602 0.99381 0.94323 0.0
H1904 H 0.36462 0.07605 0.9225 0.0
H1905 H 0.3595 0.04059 0.94723 0.0
H1906 H 0.42792 0.98718 0.80496 0.0
H1907 H 0.42317 0.95149 0.83009 0.0
H1908 H 0.39375 0.02357 0.78477 0.0
H1909 H 0.3807 0.06295 0.79869 0.0
C1910 C 0.03406 0.33189 0.84807 0.0
C1911 C 0.05171 0.35766 0.86509 0.0
C1912 C 0.99788 0.38393 0.88031 0.0
C1913 C 0.98065 0.35994 0.86021 0.0
N1914 N 0.98381 0.31652 0.81805 0.0
N1915 N 0.05121 0.41028 0.89476 0.0
C1916 C 0.99915 0.33537 0.84225 0.0
C1917 C 0.03383 0.3843 0.88057 0.0
N1918 N 0.05047 0.30357 0.83803 0.0
N1919 N 0.97993 0.40571 0.89977 0.0
H1920 H 0.0774 0.41073 0.89618 0.0
H1921 H 0.0399 0.43223 0.90326 0.0
H1922 H 0.95374 0.40654 0.8996 0.0
H1923 H 0.99081 0.42135 0.91768 0.0
H1924 H 0.03821 0.28252 0.82844 0.0
H1925 H 0.07581 0.29956 0.84287 0.0
H1926 H 0.99679 0.30073 0.80176 0.0
H1927 H 0.95875 0.3196 0.81155 0.0
C1928 C 0.67898 0.99041 0.83705 0.0
C1929 C 0.65736 0.97242 0.8588 0.0
C1930 C 0.63795 0.02589 0.88296 0.0
C1931 C 0.66264 0.0433 0.86389 0.0
N1932 N 0.71194 0.04036 0.82868 0.0
N1933 N 0.61834 0.97235 0.90501 0.0
C1934 C 0.68461 0.02503 0.8426 0.0
C1935 C 0.63732 0.98997 0.8825 0.0
N1936 N 0.6934 0.97465 0.81025 0.0
N1937 N 0.61451 0.04364 0.90056 0.0
H1938 H 0.61666 0.94621 0.90466 0.0
H1939 H 0.60602 0.98342 0.92522 0.0
H1940 H 0.61443 0.06979 0.90139 0.0
H1941 H 0.59383 0.03264 0.91224 0.0
H1942 H 0.70667 0.9873 0.79157 0.0
H1943 H 0.68886 0.94957 0.80461 0.0
H1944 H 0.73061 0.02751 0.81564 0.0
H1945 H 0.71809 0.06514 0.83362 0.0
C1946 C 0.9919 0.62677 0.15314 0.0
C1947 C 0.97401 0.65563 0.1643 0.0
C1948 C 0.02754 0.68268 0.179 0.0
C1949 C 0.0456 0.6558 0.1643 0.0
N1950 N 0.04501 0.60382 0.13342 0.0
N1951 N 0.97645 0.71431 0.18144 0.0
C1952 C 0.0278 0.62806 0.15052 0.0
C1953 C 0.99228 0.68454 0.17508 0.0
N1954 N 0.97468 0.59841 0.14433 0.0
N1955 N 0.04369 0.7057 0.19871 0.0
H1956 H 0.9506 0.71758 0.18197 0.0
H1957 H 0.98944 0.73689 0.18421 0.0
H1958 H 0.06923 0.70481 0.20371 0.0
H1959 H 0.03113 0.72332 0.21339 0.0
H1960 H 0.98622 0.57543 0.13982 0.0
H1961 H 0.94854 0.59723 0.14331 0.0
H1962 H 0.03341 0.58482 0.11971 0.0
H1963 H 0.07106 0.60423 0.13053 0.0
C1964 C 0.37107 0.9928 0.19233 0.0
C1965 C 0.36989 0.97533 0.16115 0.0
C1966 C 0.36972 0.02939 0.13118 0.0
C1967 C 0.36723 0.04652 0.16228 0.0
N1968 N 0.36028 0.04438 0.2224 0.0
N1969 N 0.36564 0.97686 0.10076 0.0
C1970 C 0.36684 0.02822 0.19284 0.0
C1971 C 0.3685 0.99364 0.13053 0.0
N1972 N 0.37592 0.97577 0.22173 0.0
N1973 N 0.37436 0.04735 0.10233 0.0
H1974 H 0.36687 0.95084 0.09899 0.0
H1975 H 0.36025 0.9885 0.07801 0.0
H1976 H 0.37534 0.07346 0.10204 0.0
H1977 H 0.38004 0.03657 0.07923 0.0
H1978 H 0.38176 0.98758 0.24431 0.0
H1979 H 0.37655 0.94979 0.22364 0.0
H1980 H 0.3548 0.03199 0.24475 0.0
H1981 H 0.35737 0.07022 0.22423 0.0
C1982 C 0.66173 0.99341 0.18712 0.0
C1983 C 0.66052 0.97398 0.15723 0.0
C1984 C 0.6483 0.02575 0.12549 0.0
C1985 C 0.64957 0.04447 0.15586 0.0
N1986 N 0.63509 0.0394 0.21489 0.0
N1987 N 0.64241 0.9708 0.09943 0.0
C1988 C 0.64957 0.02652 0.18661 0.0
C1989 C 0.65118 0.98989 0.12656 0.0
N1990 N 0.67438 0.98069 0.21633 0.0
N1991 N 0.64163 0.04193 0.09614 0.0
H1992 H 0.64133 0.94469 0.10021 0.0
H1993 H 0.63301 0.98062 0.07714 0.0
H1994 H 0.63207 0.06627 0.09582 0.0
H1995 H 0.64489 0.03112 0.07257 0.0
H1996 H 0.6782 0.99561 0.23753 0.0
H1997 H 0.68409 0.95661 0.2186 0.0
H1998 H 0.63348 0.02591 0.23727 0.0
H1999 H 0.61924 0.06016 0.21442 0.0
C2000 C 0.15006 0.53037 0.83003 0.0
C2001 C 0.15054 0.54794 0.86113 0.0
C2002 C 0.15242 0.49422 0.89152 0.0
C2003 C 0.15184 0.47666 0.86042 0.0
N2004 N 0.1446 0.47784 0.80011 0.0
N2005 N 0.14546 0.54711 0.92125 0.0
C2006 C 0.1487 0.49468 0.82976 0.0
C2007 C 0.14985 0.52996 0.89184 0.0
N2008 N 0.15299 0.54764 0.80052 0.0
N2009 N 0.15555 0.47665 0.92081 0.0
H2010 H 0.14289 0.57313 0.92217 0.0
H2011 H 0.14152 0.53568 0.94439 0.0
H2012 H 0.15443 0.45056 0.9218 0.0
H2013 H 0.16049 0.48766 0.94397 0.0
H2014 H 0.15854 0.53642 0.77759 0.0
H2015 H 0.15185 0.57359 0.79885 0.0
H2016 H 0.137 0.48936 0.77793 0.0
H2017 H 0.14664 0.45198 0.79761 0.0
C2018 C 0.85661 0.52755 0.83071 0.0
C2019 C 0.86867 0.54579 0.85874 0.0
C2020 C 0.87978 0.4926 0.88862 0.0
C2021 C 0.86691 0.47426 0.86067 0.0
N2022 N 0.84903 0.47506 0.80215 0.0
N2023 N 0.89082 0.54694 0.91478 0.0
C2024 C 0.85706 0.49196 0.83097 0.0
C2025 C 0.88012 0.5286 0.8878 0.0
N2026 N 0.84292 0.54432 0.8041 0.0
N2027 N 0.89379 0.47553 0.91489 0.0
H2028 H 0.8934 0.57299 0.914 0.0
H2029 H 0.89603 0.53692 0.93829 0.0
H2030 H 0.89524 0.44946 0.91572 0.0
H2031 H 0.90615 0.4868 0.93493 0.0
H2032 H 0.8278 0.53306 0.78596 0.0
H2033 H 0.84494 0.57008 0.80104 0.0
H2034 H 0.84845 0.48628 0.77856 0.0
H2035 H 0.84422 0.44956 0.80074 0.0
C2036 C 0.14212 0.49236 0.18344 0.0
C2037 C 0.15015 0.4748 0.15356 0.0
C2038 C 0.15309 0.53004 0.12581 0.0
C2039 C 0.15631 0.54605 0.15774 0.0
N2040 N 0.16089 0.53719 0.21836 0.0
N2041 N 0.15796 0.47885 0.09334 0.0
C2042 C 0.15291 0.52579 0.18703 0.0
C2043 C 0.15448 0.49415 0.12375 0.0
N2044 N 0.12258 0.47819 0.20779 0.0
N2045 N 0.14563 0.54855 0.09795 0.0
H2046 H 0.15253 0.45361 0.08938 0.0
H2047 H 0.166 0.49162 0.07196 0.0
H2048 H 0.13976 0.57398 0.09911 0.0
H2049 H 0.14059 0.53791 0.0746 0.0
H2050 H 0.11531 0.49137 0.22922 0.0
H2051 H 0.10922 0.45597 0.2039 0.0
H2052 H 0.16023 0.52148 0.23932 0.0
H2053 H 0.17219 0.56019 0.2232 0.0
C2054 C 0.87661 0.49263 0.13027 0.0
C2055 C 0.86149 0.47466 0.15727 0.0
C2056 C 0.84207 0.52772 0.18144 0.0
C2057 C 0.85991 0.54598 0.15661 0.0
N2058 N 0.89835 0.546 0.10992 0.0
N2059 N 0.83671 0.47688 0.21315 0.0
C2060 C 0.87821 0.52848 0.13152 0.0
C2061 C 0.84664 0.49269 0.18433 0.0
N2062 N 0.89002 0.47551 0.10377 0.0
N2063 N 0.81872 0.54334 0.20105 0.0
H2064 H 0.83676 0.45112 0.21677 0.0
H2065 H 0.83041 0.48994 0.23493 0.0
H2066 H 0.81286 0.56852 0.19857 0.0
H2067 H 0.80218 0.53053 0.21681 0.0
H2068 H 0.89761 0.487 0.08156 0.0
H2069 H 0.89216 0.44946 0.10329 0.0
H2070 H 0.91506 0.53472 0.09331 0.0
H2071 H 0.9004 0.57208 0.11045 0.0
C2072 C 0.38356 0.64321 0.53417 0.0
C2073 C 0.35858 0.66122 0.55211 0.0
C2074 C 0.33309 0.67977 0.49922 0.0
C2075 C 0.35858 0.66259 0.48097 0.0
N2076 N 0.40439 0.62321 0.48029 0.0
N2077 N 0.31227 0.70017 0.55224 0.0
C2078 C 0.38305 0.6432 0.49826 0.0
C2079 C 0.33408 0.68032 0.53475 0.0
N2080 N 0.40842 0.62716 0.55159 0.0
N2081 N 0.30688 0.69459 0.48275 0.0
H2082 H 0.30993 0.69934 0.57811 0.0
H2083 H 0.2979 0.71911 0.54146 0.0
H2084 H 0.30566 0.69721 0.45695 0.0
H2085 H 0.28487 0.70249 0.49443 0.0
H2086 H 0.4295 0.61644 0.54055 0.0
H2087 H 0.40901 0.6261 0.57775 0.0
H2088 H 0.42089 0.60605 0.49091 0.0
H2089 H 0.40399 0.62198 0.45415 0.0
C2090 C 0.88863 0.88 0.49317 0.0
C2091 C 0.87214 0.85332 0.47622 0.0
C2092 C 0.85257 0.8304 0.52963 0.0
C2093 C 0.86953 0.85659 0.54705 0.0
N2094 N 0.90643 0.90456 0.54629 0.0
N2095 N 0.84678 0.79847 0.47842 0.0
C2096 C 0.88857 0.88083 0.52904 0.0
C2097 C 0.85665 0.82714 0.49451 0.0
N2098 N 0.90394 0.90458 0.47479 0.0
N2099 N 0.83165 0.80904 0.5464 0.0
H2100 H 0.85019 0.79477 0.45283 0.0
H2101 H 0.83862 0.77694 0.49083 0.0
H2102 H 0.82876 0.80951 0.57218 0.0
H2103 H 0.81503 0.79266 0.53453 0.0
H2104 H 0.9134 0.92675 0.48484 0.0
H2105 H 0.9065 0.90289 0.4488 0.0
H2106 H 0.92331 0.92115 0.53521 0.0
H2107 H 0.90545 0.90676 0.57235 0.0
C2108 C 0.64118 0.38773 0.52691 0.0
C2109 C 0.65821 0.36188 0.54452 0.0
C2110 C 0.66786 0.33204 0.49148 0.0
C2111 C 0.65555 0.3603 0.47339 0.0
N2112 N 0.62703 0.41355 0.47358 0.0
N2113 N 0.69047 0.3103 0.54277 0.0
C2114 C 0.64154 0.38793 0.49108 0.0
C2115 C 0.67197 0.33424 0.52662 0.0
N2116 N 0.62249 0.41049 0.54444 0.0
N2117 N 0.67497 0.30232 0.47578 0.0
H2118 H 0.69266 0.30844 0.56858 0.0
H2119 H 0.70603 0.29338 0.5303 0.0
H2120 H 0.67654 0.29875 0.45007 0.0
H2121 H 0.67758 0.27974 0.4887 0.0
H2122 H 0.60707 0.42842 0.53343 0.0
H2123 H 0.61989 0.40941 0.5704 0.0
H2124 H 0.6206 0.43653 0.48416 0.0
H2125 H 0.62175 0.41185 0.44802 0.0
C2126 C 0.15027 0.13271 0.52925 0.0
C2127 C 0.15123 0.16365 0.54688 0.0
C2128 C 0.14413 0.19409 0.49366 0.0
C2129 C 0.14811 0.16344 0.47578 0.0
N2130 N 0.15525 0.1034 0.47611 0.0
N2131 N 0.15145 0.22437 0.54573 0.0
C2132 C 0.15128 0.13269 0.4935 0.0
C2133 C 0.14827 0.19447 0.52912 0.0
N2134 N 0.14671 0.1034 0.54673 0.0
N2135 N 0.13656 0.22308 0.47693 0.0
H2136 H 0.15378 0.22644 0.57163 0.0
H2137 H 0.15461 0.24734 0.53368 0.0
H2138 H 0.13559 0.22511 0.45096 0.0
H2139 H 0.12862 0.24489 0.4889 0.0
H2140 H 0.14267 0.08017 0.53549 0.0
H2141 H 0.14434 0.10273 0.57277 0.0
H2142 H 0.16211 0.08081 0.48726 0.0
H2143 H 0.15307 0.10196 0.45008 0.0
C2144 C 0.37143 0.3277 0.52677 0.0
C2145 C 0.37228 0.35831 0.54503 0.0
C2146 C 0.37275 0.38986 0.49192 0.0
C2147 C 0.3725 0.35916 0.47357 0.0
N2148 N 0.3791 0.29865 0.47414 0.0
N2149 N 0.38079 0.41805 0.54551 0.0
C2150 C 0.37446 0.32809 0.49116 0.0
C2151 C 0.37492 0.38929 0.5277 0.0
N2152 N 0.36559 0.29814 0.5432 0.0
N2153 N 0.37096 0.41967 0.47508 0.0
H2154 H 0.38315 0.41829 0.57157 0.0
H2155 H 0.38629 0.44111 0.53455 0.0
H2156 H 0.37273 0.42133 0.44908 0.0
H2157 H 0.36649 0.44263 0.48667 0.0
H2158 H 0.35955 0.27579 0.53103 0.0
H2159 H 0.36409 0.29622 0.56916 0.0
H2160 H 0.38558 0.27625 0.48591 0.0
H2161 H 0.37879 0.29649 0.44816 0.0
C2162 C 0.15639 0.89359 0.49235 0.0
C2163 C 0.15538 0.86318 0.47364 0.0
C2164 C 0.15444 0.83089 0.52642 0.0
C2165 C 0.15464 0.86129 0.54511 0.0
N2166 N 0.14946 0.92137 0.54632 0.0
N2167 N 0.14843 0.80285 0.47288 0.0
C2168 C 0.15392 0.89261 0.52815 0.0
C2169 C 0.15269 0.83189 0.4907 0.0
N2170 N 0.15968 0.92348 0.47586 0.0
N2171 N 0.1577 0.80089 0.54272 0.0
H2172 H 0.14981 0.80145 0.44688 0.0
H2173 H 0.14133 0.78015 0.48373 0.0
H2174 H 0.15722 0.79857 0.56868 0.0
H2175 H 0.16302 0.77833 0.53069 0.0
H2176 H 0.16486 0.94616 0.48775 0.0
H2177 H 0.15869 0.92548 0.44982 0.0
H2178 H 0.14541 0.94485 0.53569 0.0
H2179 H 0.14686 0.92136 0.57236 0.0
C2180 C 0.63925 0.63379 0.49229 0.0
C2181 C 0.66252 0.65376 0.47401 0.0
C2182 C 0.68388 0.67775 0.52661 0.0
C2183 C 0.66155 0.65702 0.54532 0.0
N2184 N 0.61995 0.61296 0.54648 0.0
N2185 N 0.71322 0.68687 0.47447 0.0
C2186 C 0.63994 0.63414 0.52826 0.0
C2187 C 0.68647 0.67359 0.49139 0.0
N2188 N 0.61605 0.61514 0.47518 0.0
N2189 N 0.70287 0.70167 0.54227 0.0
H2190 H 0.71709 0.68281 0.44908 0.0
H2191 H 0.73362 0.69842 0.48611 0.0
H2192 H 0.70461 0.70402 0.56809 0.0
H2193 H 0.71534 0.72081 0.52948 0.0
H2194 H 0.5959 0.60284 0.48642 0.0
H2195 H 0.61621 0.61309 0.44909 0.0
H2196 H 0.60638 0.59318 0.53611 0.0
H2197 H 0.61801 0.61421 0.57255 0.0
C2198 C 0.83578 0.17535 0.52626 0.0
C2199 C 0.85942 0.15559 0.54415 0.0
C2200 C 0.88182 0.13414 0.49071 0.0
C2201 C 0.85779 0.15365 0.47299 0.0
N2202 N 0.80642 0.18557 0.47434 0.0
N2203 N 0.90263 0.11342 0.54439 0.0
C2204 C 0.83336 0.17234 0.4909 0.0
C2205 C 0.88173 0.13404 0.52662 0.0
N2206 N 0.81543 0.19719 0.54305 0.0
N2207 N 0.90495 0.11611 0.47304 0.0
H2208 H 0.90419 0.11392 0.57053 0.0
H2209 H 0.91728 0.0947 0.53367 0.0
H2210 H 0.90393 0.11414 0.44704 0.0
H2211 H 0.92554 0.10408 0.48365 0.0
H2212 H 0.80168 0.21606 0.53135 0.0
H2213 H 0.81367 0.19775 0.56899 0.0
H2214 H 0.78569 0.19616 0.48619 0.0
H2215 H 0.80295 0.18278 0.44874 0.0
C2216 C 0.3341 0.53078 0.35084 0.0
C2217 C 0.35664 0.54876 0.37148 0.0
C2218 C 0.38192 0.49548 0.38951 0.0
C2219 C 0.36194 0.47823 0.36538 0.0
N2220 N 0.32606 0.48234 0.31617 0.0
N2221 N 0.40403 0.54913 0.409 0.0
C2222 C 0.34027 0.49667 0.34389 0.0
C2223 C 0.38108 0.53136 0.39066 0.0
N2224 N 0.30569 0.5458 0.33902 0.0
N2225 N 0.40219 0.47768 0.41064 0.0
H2226 H 0.40345 0.57525 0.41076 0.0
H2227 H 0.42463 0.53833 0.42087 0.0
H2228 H 0.4057 0.45185 0.40834 0.0
H2229 H 0.41445 0.48822 0.43119 0.0
H2230 H 0.2868 0.53277 0.32635 0.0
H2231 H 0.29908 0.57013 0.34563 0.0
H2232 H 0.31318 0.49625 0.29814 0.0
H2233 H 0.3296 0.45753 0.30913 0.0
C2234 C 0.64762 0.52732 0.32898 0.0
C2235 C 0.64956 0.54484 0.36008 0.0
C2236 C 0.65503 0.49123 0.39026 0.0
C2237 C 0.65414 0.47372 0.35911 0.0
N2238 N 0.64721 0.47462 0.29878 0.0
N2239 N 0.65634 0.54446 0.42007 0.0
C2240 C 0.6496 0.49165 0.32853 0.0
C2241 C 0.65347 0.52698 0.39065 0.0
N2242 N 0.6465 0.54488 0.29948 0.0
N2243 N 0.65569 0.47352 0.41962 0.0
H2244 H 0.65234 0.57023 0.42166 0.0
H2245 H 0.66377 0.53399 0.44279 0.0
H2246 H 0.65735 0.44754 0.4204 0.0
H2247 H 0.65253 0.48399 0.4433 0.0
H2248 H 0.65092 0.53448 0.27596 0.0
H2249 H 0.64258 0.57057 0.29807 0.0
H2250 H 0.63784 0.48497 0.27673 0.0
H2251 H 0.65365 0.44952 0.29588 0.0
C2252 C 0.39006 0.52661 0.67574 0.0
C2253 C 0.3693 0.54665 0.65468 0.0
C2254 C 0.34373 0.49498 0.6327 0.0
C2255 C 0.36744 0.47517 0.65068 0.0
N2256 N 0.42181 0.47535 0.67803 0.0
N2257 N 0.33569 0.54765 0.60398 0.0
C2258 C 0.39347 0.492 0.66847 0.0
C2259 C 0.34914 0.53016 0.63016 0.0
N2260 N 0.40471 0.53929 0.70405 0.0
N2261 N 0.31496 0.48135 0.61985 0.0
H2262 H 0.34135 0.57279 0.59953 0.0
H2263 H 0.32278 0.53594 0.58442 0.0
H2264 H 0.30761 0.45658 0.6236 0.0
H2265 H 0.29619 0.49601 0.60902 0.0
H2266 H 0.41805 0.5242 0.72077 0.0
H2267 H 0.3998 0.56307 0.71356 0.0
H2268 H 0.44217 0.4875 0.68925 0.0
H2269 H 0.42673 0.45086 0.67047 0.0
C2270 C 0.65293 0.49324 0.6911 0.0
C2271 C 0.65446 0.4749 0.66051 0.0
C2272 C 0.6554 0.52784 0.62874 0.0
C2273 C 0.65275 0.54607 0.65925 0.0
N2274 N 0.64287 0.54595 0.71927 0.0
N2275 N 0.6506 0.47433 0.6002 0.0
C2276 C 0.64928 0.52872 0.69028 0.0
C2277 C 0.65391 0.49214 0.62931 0.0
N2278 N 0.6574 0.4772 0.72114 0.0
N2279 N 0.65947 0.54468 0.59912 0.0
H2280 H 0.64926 0.44829 0.5998 0.0
H2281 H 0.64628 0.48517 0.57684 0.0
H2282 H 0.65767 0.57066 0.59721 0.0
H2283 H 0.66612 0.53313 0.57666 0.0
H2284 H 0.66153 0.48971 0.74371 0.0
H2285 H 0.66017 0.45139 0.72354 0.0
H2286 H 0.63514 0.53435 0.74139 0.0
H2287 H 0.64296 0.57195 0.72113 0.0
C2288 C 0.49654 0.13763 0.88354 0.0
C2289 C 0.47864 0.15852 0.86082 0.0
C2290 C 0.5315 0.1716 0.83162 0.0
C2291 C 0.54982 0.15377 0.85627 0.0
N2292 N 0.55052 0.12266 0.90806 0.0
N2293 N 0.4808 0.20159 0.81815 0.0
C2294 C 0.53253 0.13752 0.88294 0.0
C2295 C 0.49662 0.17715 0.83618 0.0
N2296 N 0.4792 0.11703 0.90483 0.0
N2297 N 0.54729 0.18271 0.80326 0.0
H2298 H 0.45577 0.20776 0.82175 0.0
H2299 H 0.49337 0.21838 0.8025 0.0
H2300 H 0.57265 0.17849 0.79863 0.0
H2301 H 0.53456 0.19274 0.78275 0.0
H2302 H 0.49059 0.0987 0.91953 0.0
H2303 H 0.45301 0.11654 0.90594 0.0
H2304 H 0.53971 0.11356 0.93005 0.0
H2305 H 0.57672 0.12138 0.90783 0.0
C2306 C 0.52682 0.84036 0.8887 0.0
C2307 C 0.5462 0.86368 0.86968 0.0
C2308 C 0.49422 0.88378 0.84377 0.0
C2309 C 0.4746 0.86401 0.86626 0.0
N2310 N 0.47483 0.83318 0.91875 0.0
N2311 N 0.54529 0.91601 0.83881 0.0
C2312 C 0.49164 0.84537 0.89151 0.0
C2313 C 0.52895 0.8882 0.85041 0.0
N2314 N 0.54085 0.81225 0.90234 0.0
N2315 N 0.48097 0.89648 0.81483 0.0
H2316 H 0.56999 0.92165 0.84549 0.0
H2317 H 0.5328 0.93541 0.82647 0.0
H2318 H 0.45712 0.8904 0.80595 0.0
H2319 H 0.49562 0.90913 0.79717 0.0
H2320 H 0.52643 0.79382 0.91415 0.0
H2321 H 0.56552 0.8048 0.89814 0.0
H2322 H 0.48711 0.82145 0.93867 0.0
H2323 H 0.44982 0.83893 0.92364 0.0
C2324 C 0.49177 0.12998 0.14283 0.0
C2325 C 0.47459 0.15918 0.15378 0.0
C2326 C 0.52736 0.18318 0.17378 0.0
C2327 C 0.54529 0.15597 0.15956 0.0
N2328 N 0.54513 0.10513 0.12667 0.0
N2329 N 0.47735 0.21698 0.17162 0.0
C2330 C 0.52767 0.12965 0.14306 0.0
C2331 C 0.4928 0.18683 0.16675 0.0
N2332 N 0.47379 0.10258 0.13259 0.0
N2333 N 0.54295 0.20474 0.19545 0.0
H2334 H 0.4525 0.22121 0.1649 0.0
H2335 H 0.49028 0.23876 0.17826 0.0
H2336 H 0.56775 0.20163 0.20303 0.0
H2337 H 0.5302 0.2231 0.209 0.0
H2338 H 0.48461 0.07932 0.12774 0.0
H2339 H 0.44761 0.10265 0.13081 0.0
H2340 H 0.5338 0.08722 0.11135 0.0
H2341 H 0.57133 0.10413 0.12642 0.0
C2342 C 0.52745 0.87166 0.13076 0.0
C2343 C 0.54559 0.86565 0.16083 0.0
C2344 C 0.49357 0.84929 0.18891 0.0
C2345 C 0.47466 0.85915 0.16041 0.0
N2346 N 0.47362 0.88549 0.10581 0.0
N2347 N 0.54413 0.85794 0.221 0.0
C2348 C 0.49158 0.87185 0.13161 0.0
C2349 C 0.52809 0.85755 0.19072 0.0
N2350 N 0.54442 0.87723 0.10148 0.0
N2351 N 0.47919 0.83001 0.21336 0.0
H2352 H 0.56928 0.8646 0.22372 0.0
H2353 H 0.53147 0.855 0.24372 0.0
H2354 H 0.45485 0.82053 0.21132 0.0
H2355 H 0.4928 0.8198 0.23323 0.0
H2356 H 0.53269 0.878 0.07812 0.0
H2357 H 0.57056 0.87911 0.10039 0.0
H2358 H 0.48468 0.89807 0.08572 0.0
H2359 H 0.44749 0.88695 0.10596 0.0
C2360 C 0.49608 0.37627 0.62996 0.0
C2361 C 0.47795 0.36723 0.65924 0.0
C2362 C 0.53025 0.35062 0.68659 0.0
C2363 C 0.54908 0.36301 0.65895 0.0
N2364 N 0.54968 0.39391 0.60681 0.0
N2365 N 0.4794 0.35617 0.71881 0.0
C2366 C 0.53193 0.37755 0.63118 0.0
C2367 C 0.49552 0.3577 0.68863 0.0
N2368 N 0.47912 0.38352 0.60106 0.0
N2369 N 0.54489 0.33037 0.71005 0.0
H2370 H 0.45468 0.36391 0.72188 0.0
H2371 H 0.49191 0.35181 0.74138 0.0
H2372 H 0.56955 0.32199 0.70815 0.0
H2373 H 0.53129 0.3184 0.72895 0.0
H2374 H 0.49098 0.38673 0.57798 0.0
H2375 H 0.45293 0.38425 0.59983 0.0
H2376 H 0.53841 0.40758 0.58761 0.0
H2377 H 0.57571 0.39658 0.60768 0.0
C2378 C 0.48801 0.65793 0.3379 0.0
C2379 C 0.47112 0.6566 0.36918 0.0
C2380 C 0.5257 0.6539 0.39784 0.0
C2381 C 0.54244 0.66051 0.36691 0.0
N2382 N 0.53666 0.67788 0.30854 0.0
N2383 N 0.47388 0.65789 0.42961 0.0
C2384 C 0.52284 0.665 0.33722 0.0
C2385 C 0.48998 0.65624 0.3994 0.0
N2386 N 0.47118 0.65248 0.30847 0.0
N2387 N 0.54345 0.64342 0.42522 0.0
H2388 H 0.44778 0.65825 0.43173 0.0
H2389 H 0.48648 0.66136 0.45228 0.0
H2390 H 0.5692 0.63911 0.42466 0.0
H2391 H 0.53209 0.63529 0.44733 0.0
H2392 H 0.48347 0.64945 0.28556 0.0
H2393 H 0.44564 0.64732 0.30696 0.0
H2394 H 0.52227 0.68534 0.288 0.0
H2395 H 0.56163 0.68498 0.30611 0.0
C2396 C 0.52822 0.37835 0.38536 0.0
C2397 C 0.54551 0.36262 0.35835 0.0
C2398 C 0.4921 0.35525 0.32874 0.0
C2399 C 0.47438 0.36671 0.35734 0.0
N2400 N 0.47509 0.38645 0.41446 0.0
N2401 N 0.54198 0.32775 0.30874 0.0
C2402 C 0.49231 0.37742 0.38622 0.0
C2403 C 0.52693 0.34877 0.33123 0.0
N2404 N 0.54594 0.3953 0.40938 0.0
N2405 N 0.47598 0.35133 0.29877 0.0
H2406 H 0.56687 0.32022 0.31086 0.0
H2407 H 0.52869 0.31449 0.29048 0.0
H2408 H 0.45098 0.35791 0.29532 0.0
H2409 H 0.4885 0.34584 0.27646 0.0
H2410 H 0.53467 0.40995 0.42784 0.0
H2411 H 0.57208 0.39716 0.40913 0.0
H2412 H 0.48667 0.39097 0.43747 0.0
H2413 H 0.44889 0.38735 0.41538 0.0
C2414 C 0.49447 0.63248 0.64949 0.0
C2415 C 0.47667 0.66305 0.65325 0.0
C2416 C 0.52971 0.69456 0.64899 0.0
C2417 C 0.54789 0.6639 0.65019 0.0
N2418 N 0.54801 0.60342 0.65016 0.0
N2419 N 0.47754 0.72329 0.66022 0.0
C2420 C 0.53032 0.63276 0.65004 0.0
C2421 C 0.49428 0.69412 0.65353 0.0
N2422 N 0.47701 0.60339 0.64403 0.0
N2423 N 0.546 0.72431 0.64348 0.0
H2424 H 0.45161 0.72471 0.66282 0.0
H2425 H 0.48958 0.74583 0.66585 0.0
H2426 H 0.57196 0.72682 0.64206 0.0
H2427 H 0.53352 0.74653 0.63777 0.0
H2428 H 0.48821 0.58062 0.63796 0.0
H2429 H 0.45086 0.60257 0.64268 0.0
H2430 H 0.53728 0.58002 0.65473 0.0
H2431 H 0.57391 0.60257 0.64648 0.0
loop_
_geom_bond_atom_site_label_1
_geom_bond_atom_site_label_2
_geom_bond_distance
_geom_bond_site_symmetry_2
_ccdc_geom_bond_type
Fe0 O2 1.918 . S
Fe0 O5 1.997 . S
Fe0 O6 2.002 . S
Fe0 O11 1.976 . S
Fe0 O14 1.996 . S
Fe1 O2 1.918 . S
Fe1 O9 1.997 . S
Fe1 O12 1.996 . S
Fe1 O16 1.976 . S
Fe1 O19 2.002 . S
O2 Fe0 1.918 . S
O2 Fe1 1.918 . S
O2 Fe3 1.918 . S
Fe3 O2 1.918 . S
Fe3 O4 2.002 . S
Fe3 O13 1.976 . S
Fe3 O17 1.996 . S
Fe3 O20 1.997 . S
O4 Fe3 2.002 . S
O4 C21 1.295 . S
O5 Fe0 1.997 . S
O5 C21 1.235 . S
O6 Fe0 2.002 . S
O6 C7 1.295 . S
C7 O6 1.295 . S
C7 O9 1.235 . S
C8 O13 1.287 . S
C8 O14 1.255 . S
O9 Fe1 1.997 . S
O9 C7 1.235 . S
C10 O16 1.287 . S
C10 O17 1.255 . S
O11 Fe0 1.976 . S
O11 C18 1.287 . S
O12 Fe1 1.996 . S
O12 C18 1.255 . S
O13 Fe3 1.976 . S
O13 C8 1.287 . S
O14 Fe0 1.996 . S
O14 C8 1.255 . S
C15 O19 1.295 . S
C15 O20 1.235 . S
O16 Fe1 1.976 . S
O16 C10 1.287 . S
O17 Fe3 1.996 . S
O17 C10 1.255 . S
C18 O11 1.287 . S
C18 O12 1.255 . S
O19 Fe1 2.002 . S
O19 C15 1.295 . S
O20 Fe3 1.997 . S
O20 C15 1.235 . S
C21 O4 1.295 . S
C21 O5 1.235 . S
Fe22 O24 1.918 . S
Fe22 O27 1.997 . S
Fe22 O28 2.002 . S
Fe22 O33 1.976 . S
Fe22 O36 1.996 . S
Fe23 O24 1.918 . S
Fe23 O31 1.997 . S
Fe23 O34 1.996 . S
Fe23 O38 1.976 . S
Fe23 O41 2.002 . S
O24 Fe22 1.918 . S
O24 Fe23 1.918 . S
O24 Fe25 1.918 . S
Fe25 O24 1.918 . S
Fe25 O26 2.002 . S
Fe25 O35 1.976 . S
Fe25 O39 1.996 . S
Fe25 O42 1.997 . S
O26 Fe25 2.002 . S
O26 C43 1.295 . S
O27 Fe22 1.997 . S
O27 C43 1.235 . S
O28 Fe22 2.002 . S
O28 C29 1.295 . S
C29 O28 1.295 . S
C29 O31 1.235 . S
C30 O35 1.287 . S
C30 O36 1.255 . S
O31 Fe23 1.997 . S
O31 C29 1.235 . S
C32 O38 1.287 . S
C32 O39 1.255 . S
O33 Fe22 1.976 . S
O33 C40 1.287 . S
O34 Fe23 1.996 . S
O34 C40 1.255 . S
O35 Fe25 1.976 . S
O35 C30 1.287 . S
O36 Fe22 1.996 . S
O36 C30 1.255 . S
C37 O41 1.295 . S
C37 O42 1.235 . S
O38 Fe23 1.976 . S
O38 C32 1.287 . S
O39 Fe25 1.996 . S
O39 C32 1.255 . S
C40 O33 1.287 . S
C40 O34 1.255 . S
O41 Fe23 2.002 . S
O41 C37 1.295 . S
O42 Fe25 1.997 . S
O42 C37 1.235 . S
C43 O26 1.295 . S
C43 O27 1.235 . S
Fe44 O46 1.918 . S
Fe44 O49 1.997 . S
Fe44 O50 2.002 . S
Fe44 O55 1.976 . S
Fe44 O58 1.996 . S
Fe45 O46 1.918 . S
Fe45 O53 1.997 . S
Fe45 O56 1.996 . S
Fe45 O60 1.976 . S
Fe45 O63 2.002 . S
O46 Fe44 1.918 . S
O46 Fe45 1.918 . S
O46 Fe47 1.918 . S
Fe47 O46 1.918 . S
Fe47 O48 2.002 . S
Fe47 O57 1.976 . S
Fe47 O61 1.996 . S
Fe47 O64 1.997 . S
O48 Fe47 2.002 . S
O48 C65 1.295 . S
O49 Fe44 1.997 . S
O49 C65 1.235 . S
O50 Fe44 2.002 . S
O50 C51 1.295 . S
C51 O50 1.295 . S
C51 O53 1.235 . S
C52 O57 1.287 . S
C52 O58 1.255 . S
O53 Fe45 1.997 . S
O53 C51 1.235 . S
C54 O60 1.287 . S
C54 O61 1.255 . S
O55 Fe44 1.976 . S
O55 C62 1.287 . S
O56 Fe45 1.996 . S
O56 C62 1.255 . S
O57 Fe47 1.976 . S
O57 C52 1.287 . S
O58 Fe44 1.996 . S
O58 C52 1.255 . S
C59 O63 1.295 . S
C59 O64 1.235 . S
O60 Fe45 1.976 . S
O60 C54 1.287 . S
O61 Fe47 1.996 . S
O61 C54 1.255 . S
C62 O55 1.287 . S
C62 O56 1.255 . S
O63 Fe45 2.002 . S
O63 C59 1.295 . S
O64 Fe47 1.997 . S
O64 C59 1.235 . S
C65 O48 1.295 . S
C65 O49 1.235 . S
Fe66 O68 1.918 . S
Fe66 O71 1.997 . S
Fe66 O72 2.002 . S
Fe66 O77 1.976 . S
Fe66 O80 1.996 . S
Fe67 O68 1.918 . S
Fe67 O75 1.997 . S
Fe67 O78 1.996 . S
Fe67 O82 1.976 . S
Fe67 O85 2.002 . S
O68 Fe66 1.918 . S
O68 Fe67 1.918 . S
O68 Fe69 1.918 . S
Fe69 O68 1.918 . S
Fe69 O70 2.002 . S
Fe69 O79 1.976 . S
Fe69 O83 1.996 . S
Fe69 O86 1.997 . S
O70 Fe69 2.002 . S
O70 C87 1.295 . S
O71 Fe66 1.997 . S
O71 C87 1.235 . S
O72 Fe66 2.002 . S
O72 C73 1.295 . S
C73 O72 1.295 . S
C73 O75 1.235 . S
C74 O79 1.287 . S
C74 O80 1.255 . S
O75 Fe67 1.997 . S
O75 C73 1.235 . S
C76 O82 1.287 . S
C76 O83 1.255 . S
O77 Fe66 1.976 . S
O77 C84 1.287 . S
O78 Fe67 1.996 . S
O78 C84 1.255 . S
O79 Fe69 1.976 . S
O79 C74 1.287 . S
O80 Fe66 1.996 . S
O80 C74 1.255 . S
C81 O85 1.295 . S
C81 O86 1.235 . S
O82 Fe67 1.976 . S
O82 C76 1.287 . S
O83 Fe69 1.996 . S
O83 C76 1.255 . S
C84 O77 1.287 . S
C84 O78 1.255 . S
O85 Fe67 2.002 . S
O85 C81 1.295 . S
O86 Fe69 1.997 . S
O86 C81 1.235 . S
C87 O70 1.295 . S
C87 O71 1.235 . S
Fe88 O90 1.918 . S
Fe88 O93 1.997 . S
Fe88 O94 2.002 . S
Fe88 O99 1.976 . S
Fe88 O102 1.996 . S
Fe89 O90 1.918 . S
Fe89 O97 1.997 . S
Fe89 O100 1.996 . S
Fe89 O104 1.976 . S
Fe89 O107 2.002 . S
O90 Fe88 1.918 . S
O90 Fe89 1.918 . S
O90 Fe91 1.918 . S
Fe91 O90 1.918 . S
Fe91 O92 2.002 . S
Fe91 O101 1.976 . S
Fe91 O105 1.996 . S
Fe91 O108 1.997 . S
O92 Fe91 2.002 . S
O92 C109 1.295 . S
O93 Fe88 1.997 . S
O93 C109 1.235 . S
O94 Fe88 2.002 . S
O94 C95 1.295 . S
C95 O94 1.295 . S
C95 O97 1.235 . S
C96 O101 1.287 . S
C96 O102 1.255 . S
O97 Fe89 1.997 . S
O97 C95 1.235 . S
C98 O104 1.287 . S
C98 O105 1.255 . S
O99 Fe88 1.976 . S
O99 C106 1.287 . S
O100 Fe89 1.996 . S
O100 C106 1.255 . S
O101 Fe91 1.976 . S
O101 C96 1.287 . S
O102 Fe88 1.996 . S
O102 C96 1.255 . S
C103 O107 1.295 . S
C103 O108 1.235 . S
O104 Fe89 1.976 . S
O104 C98 1.287 . S
O105 Fe91 1.996 . S
O105 C98 1.255 . S
C106 O99 1.287 . S
C106 O100 1.255 . S
O107 Fe89 2.002 . S
O107 C103 1.295 . S
O108 Fe91 1.997 . S
O108 C103 1.235 . S
C109 O92 1.295 . S
C109 O93 1.235 . S
Fe110 O112 1.918 . S
Fe110 O115 1.997 . S
Fe110 O116 2.002 . S
Fe110 O121 1.976 . S
Fe110 O124 1.996 . S
Fe111 O112 1.918 . S
Fe111 O119 1.997 . S
Fe111 O122 1.996 . S
Fe111 O126 1.976 . S
Fe111 O129 2.002 . S
O112 Fe110 1.918 . S
O112 Fe111 1.918 . S
O112 Fe113 1.918 . S
Fe113 O112 1.918 . S
Fe113 O114 2.002 . S
Fe113 O123 1.976 . S
Fe113 O127 1.996 . S
Fe113 O130 1.997 . S
O114 Fe113 2.002 . S
O114 C131 1.295 . S
O115 Fe110 1.997 . S
O115 C131 1.235 . S
O116 Fe110 2.002 . S
O116 C117 1.295 . S
C117 O116 1.295 . S
C117 O119 1.235 . S
C118 O123 1.287 . S
C118 O124 1.255 . S
O119 Fe111 1.997 . S
O119 C117 1.235 . S
C120 O126 1.287 . S
C120 O127 1.255 . S
O121 Fe110 1.976 . S
O121 C128 1.287 . S
O122 Fe111 1.996 . S
O122 C128 1.255 . S
O123 Fe113 1.976 . S
O123 C118 1.287 . S
O124 Fe110 1.996 . S
O124 C118 1.255 . S
C125 O129 1.295 . S
C125 O130 1.235 . S
O126 Fe111 1.976 . S
O126 C120 1.287 . S
O127 Fe113 1.996 . S
O127 C120 1.255 . S
C128 O121 1.287 . S
C128 O122 1.255 . S
O129 Fe111 2.002 . S
O129 C125 1.295 . S
O130 Fe113 1.997 . S
O130 C125 1.235 . S
C131 O114 1.295 . S
C131 O115 1.235 . S
Fe132 O134 1.918 . S
Fe132 O137 1.997 . S
Fe132 O138 2.002 . S
Fe132 O143 1.976 . S
Fe132 O146 1.996 . S
Fe133 O134 1.918 . S
Fe133 O141 1.997 . S
Fe133 O144 1.996 . S
Fe133 O148 1.976 . S
Fe133 O151 2.002 . S
O134 Fe132 1.918 . S
O134 Fe133 1.918 . S
O134 Fe135 1.918 . S
Fe135 O134 1.918 . S
Fe135 O136 2.002 . S
Fe135 O145 1.976 . S
Fe135 O149 1.996 . S
Fe135 O152 1.997 . S
O136 Fe135 2.002 . S
O136 C153 1.295 . S
O137 Fe132 1.997 . S
O137 C153 1.235 . S
O138 Fe132 2.002 . S
O138 C139 1.295 . S
C139 O138 1.295 . S
C139 O141 1.235 . S
C140 O145 1.287 . S
C140 O146 1.255 . S
O141 Fe133 1.997 . S
O141 C139 1.235 . S
C142 O148 1.287 . S
C142 O149 1.255 . S
O143 Fe132 1.976 . S
O143 C150 1.287 . S
O144 Fe133 1.996 . S
O144 C150 1.255 . S
O145 Fe135 1.976 . S
O145 C140 1.287 . S
O146 Fe132 1.996 . S
O146 C140 1.255 . S
C147 O151 1.295 . S
C147 O152 1.235 . S
O148 Fe133 1.976 . S
O148 C142 1.287 . S
O149 Fe135 1.996 . S
O149 C142 1.255 . S
C150 O143 1.287 . S
C150 O144 1.255 . S
O151 Fe133 2.002 . S
O151 C147 1.295 . S
O152 Fe135 1.997 . S
O152 C147 1.235 . S
C153 O136 1.295 . S
C153 O137 1.235 . S
Fe154 O156 1.918 . S
Fe154 O159 1.997 . S
Fe154 O160 2.002 . S
Fe154 O165 1.976 . S
Fe154 O168 1.996 . S
Fe155 O156 1.918 . S
Fe155 O163 1.997 . S
Fe155 O166 1.996 . S
Fe155 O170 1.976 . S
Fe155 O173 2.002 . S
O156 Fe154 1.918 . S
O156 Fe155 1.918 . S
O156 Fe157 1.918 . S
Fe157 O156 1.918 . S
Fe157 O158 2.002 . S
Fe157 O167 1.976 . S
Fe157 O171 1.996 . S
Fe157 O174 1.997 . S
O158 Fe157 2.002 . S
O158 C175 1.295 . S
O159 Fe154 1.997 . S
O159 C175 1.235 . S
O160 Fe154 2.002 . S
O160 C161 1.295 . S
C161 O160 1.295 . S
C161 O163 1.235 . S
C162 O167 1.287 . S
C162 O168 1.255 . S
O163 Fe155 1.997 . S
O163 C161 1.235 . S
C164 O170 1.287 . S
C164 O171 1.255 . S
O165 Fe154 1.976 . S
O165 C172 1.287 . S
O166 Fe155 1.996 . S
O166 C172 1.255 . S
O167 Fe157 1.976 . S
O167 C162 1.287 . S
O168 Fe154 1.996 . S
O168 C162 1.255 . S
C169 O173 1.295 . S
C169 O174 1.235 . S
O170 Fe155 1.976 . S
O170 C164 1.287 . S
O171 Fe157 1.996 . S
O171 C164 1.255 . S
C172 O165 1.287 . S
C172 O166 1.255 . S
O173 Fe155 2.002 . S
O173 C169 1.295 . S
O174 Fe157 1.997 . S
O174 C169 1.235 . S
C175 O158 1.295 . S
C175 O159 1.235 . S
Fe176 O178 1.918 . S
Fe176 O181 1.997 . S
Fe176 O182 2.002 . S
Fe176 O187 1.976 . S
Fe176 O190 1.996 . S
Fe177 O178 1.918 . S
Fe177 O185 1.997 . S
Fe177 O188 1.996 . S
Fe177 O192 1.976 . S
Fe177 O195 2.002 . S
O178 Fe176 1.918 . S
O178 Fe177 1.918 . S
O178 Fe179 1.918 . S
Fe179 O178 1.918 . S
Fe179 O180 2.002 . S
Fe179 O189 1.976 . S
Fe179 O193 1.996 . S
Fe179 O196 1.997 . S
O180 Fe179 2.002 . S
O180 C197 1.295 . S
O181 Fe176 1.997 . S
O181 C197 1.235 . S
O182 Fe176 2.002 . S
O182 C183 1.295 . S
C183 O182 1.295 . S
C183 O185 1.235 . S
C184 O189 1.287 . S
C184 O190 1.255 . S
O185 Fe177 1.997 . S
O185 C183 1.235 . S
C186 O192 1.287 . S
C186 O193 1.255 . S
O187 Fe176 1.976 . S
O187 C194 1.287 . S
O188 Fe177 1.996 . S
O188 C194 1.255 . S
O189 Fe179 1.976 . S
O189 C184 1.287 . S
O190 Fe176 1.996 . S
O190 C184 1.255 . S
C191 O195 1.295 . S
C191 O196 1.235 . S
O192 Fe177 1.976 . S
O192 C186 1.287 . S
O193 Fe179 1.996 . S
O193 C186 1.255 . S
C194 O187 1.287 . S
C194 O188 1.255 . S
O195 Fe177 2.002 . S
O195 C191 1.295 . S
O196 Fe179 1.997 . S
O196 C191 1.235 . S
C197 O180 1.295 . S
C197 O181 1.235 . S
Fe198 O200 1.918 . S
Fe198 O203 1.997 . S
Fe198 O204 2.002 . S
Fe198 O209 1.976 . S
Fe198 O212 1.996 . S
Fe199 O200 1.918 . S
Fe199 O207 1.997 . S
Fe199 O210 1.996 . S
Fe199 O214 1.976 . S
Fe199 O217 2.002 . S
O200 Fe198 1.918 . S
O200 Fe199 1.918 . S
O200 Fe201 1.918 . S
Fe201 O200 1.918 . S
Fe201 O202 2.002 . S
Fe201 O211 1.976 . S
Fe201 O215 1.996 . S
Fe201 O218 1.997 . S
O202 Fe201 2.002 . S
O202 C219 1.295 . S
O203 Fe198 1.997 . S
O203 C219 1.235 . S
O204 Fe198 2.002 . S
O204 C205 1.295 . S
C205 O204 1.295 . S
C205 O207 1.235 . S
C206 O211 1.287 . S
C206 O212 1.255 . S
O207 Fe199 1.997 . S
O207 C205 1.235 . S
C208 O214 1.287 . S
C208 O215 1.255 . S
O209 Fe198 1.976 . S
O209 C216 1.287 . S
O210 Fe199 1.996 . S
O210 C216 1.255 . S
O211 Fe201 1.976 . S
O211 C206 1.287 . S
O212 Fe198 1.996 . S
O212 C206 1.255 . S
C213 O217 1.295 . S
C213 O218 1.235 . S
O214 Fe199 1.976 . S
O214 C208 1.287 . S
O215 Fe201 1.996 . S
O215 C208 1.255 . S
C216 O209 1.287 . S
C216 O210 1.255 . S
O217 Fe199 2.002 . S
O217 C213 1.295 . S
O218 Fe201 1.997 . S
O218 C213 1.235 . S
C219 O202 1.295 . S
C219 O203 1.235 . S
Fe220 O222 1.918 . S
Fe220 O225 1.997 . S
Fe220 O226 2.002 . S
Fe220 O231 1.976 . S
Fe220 O234 1.996 . S
Fe221 O222 1.918 . S
Fe221 O229 1.997 . S
Fe221 O232 1.996 . S
Fe221 O236 1.976 . S
Fe221 O239 2.002 . S
O222 Fe220 1.918 . S
O222 Fe221 1.918 . S
O222 Fe223 1.918 . S
Fe223 O222 1.918 . S
Fe223 O224 2.002 . S
Fe223 O233 1.976 . S
Fe223 O237 1.996 . S
Fe223 O240 1.997 . S
O224 Fe223 2.002 . S
O224 C241 1.295 . S
O225 Fe220 1.997 . S
O225 C241 1.235 . S
O226 Fe220 2.002 . S
O226 C227 1.295 . S
C227 O226 1.295 . S
C227 O229 1.235 . S
C228 O233 1.287 . S
C228 O234 1.255 . S
O229 Fe221 1.997 . S
O229 C227 1.235 . S
C230 O236 1.287 . S
C230 O237 1.255 . S
O231 Fe220 1.976 . S
O231 C238 1.287 . S
O232 Fe221 1.996 . S
O232 C238 1.255 . S
O233 Fe223 1.976 . S
O233 C228 1.287 . S
O234 Fe220 1.996 . S
O234 C228 1.255 . S
C235 O239 1.295 . S
C235 O240 1.235 . S
O236 Fe221 1.976 . S
O236 C230 1.287 . S
O237 Fe223 1.996 . S
O237 C230 1.255 . S
C238 O231 1.287 . S
C238 O232 1.255 . S
O239 Fe221 2.002 . S
O239 C235 1.295 . S
O240 Fe223 1.997 . S
O240 C235 1.235 . S
C241 O224 1.295 . S
C241 O225 1.235 . S
Fe242 O244 1.918 . S
Fe242 O247 1.997 . S
Fe242 O248 2.002 . S
Fe242 O253 1.976 . S
Fe242 O256 1.996 . S
Fe243 O244 1.918 . S
Fe243 O251 1.997 . S
Fe243 O254 1.996 . S
Fe243 O258 1.976 . S
Fe243 O261 2.002 . S
O244 Fe242 1.918 . S
O244 Fe243 1.918 . S
O244 Fe245 1.918 . S
Fe245 O244 1.918 . S
Fe245 O246 2.002 . S
Fe245 O255 1.976 . S
Fe245 O259 1.996 . S
Fe245 O262 1.997 . S
O246 Fe245 2.002 . S
O246 C263 1.295 . S
O247 Fe242 1.997 . S
O247 C263 1.235 . S
O248 Fe242 2.002 . S
O248 C249 1.295 . S
C249 O248 1.295 . S
C249 O251 1.235 . S
C250 O255 1.287 . S
C250 O256 1.255 . S
O251 Fe243 1.997 . S
O251 C249 1.235 . S
C252 O258 1.287 . S
C252 O259 1.255 . S
O253 Fe242 1.976 . S
O253 C260 1.287 . S
O254 Fe243 1.996 . S
O254 C260 1.255 . S
O255 Fe245 1.976 . S
O255 C250 1.287 . S
O256 Fe242 1.996 . S
O256 C250 1.255 . S
C257 O261 1.295 . S
C257 O262 1.235 . S
O258 Fe243 1.976 . S
O258 C252 1.287 . S
O259 Fe245 1.996 . S
O259 C252 1.255 . S
C260 O253 1.287 . S
C260 O254 1.255 . S
O261 Fe243 2.002 . S
O261 C257 1.295 . S
O262 Fe245 1.997 . S
O262 C257 1.235 . S
C263 O246 1.295 . S
C263 O247 1.235 . S
Fe264 O266 1.918 . S
Fe264 O269 1.997 . S
Fe264 O270 2.002 . S
Fe264 O275 1.976 . S
Fe264 O278 1.996 . S
Fe265 O266 1.918 . S
Fe265 O273 1.997 . S
Fe265 O276 1.996 . S
Fe265 O280 1.976 . S
Fe265 O283 2.002 . S
O266 Fe264 1.918 . S
O266 Fe265 1.918 . S
O266 Fe267 1.918 . S
Fe267 O266 1.918 . S
Fe267 O268 2.002 . S
Fe267 O277 1.976 . S
Fe267 O281 1.996 . S
Fe267 O284 1.997 . S
O268 Fe267 2.002 . S
O268 C285 1.295 . S
O269 Fe264 1.997 . S
O269 C285 1.235 . S
O270 Fe264 2.002 . S
O270 C271 1.295 . S
C271 O270 1.295 . S
C271 O273 1.235 . S
C272 O277 1.287 . S
C272 O278 1.255 . S
O273 Fe265 1.997 . S
O273 C271 1.235 . S
C274 O280 1.287 . S
C274 O281 1.255 . S
O275 Fe264 1.976 . S
O275 C282 1.287 . S
O276 Fe265 1.996 . S
O276 C282 1.255 . S
O277 Fe267 1.976 . S
O277 C272 1.287 . S
O278 Fe264 1.996 . S
O278 C272 1.255 . S
C279 O283 1.295 . S
C279 O284 1.235 . S
O280 Fe265 1.976 . S
O280 C274 1.287 . S
O281 Fe267 1.996 . S
O281 C274 1.255 . S
C282 O275 1.287 . S
C282 O276 1.255 . S
O283 Fe265 2.002 . S
O283 C279 1.295 . S
O284 Fe267 1.997 . S
O284 C279 1.235 . S
C285 O268 1.295 . S
C285 O269 1.235 . S
Fe286 O288 1.918 . S
Fe286 O291 1.997 . S
Fe286 O292 2.002 . S
Fe286 O297 1.976 . S
Fe286 O300 1.996 . S
Fe287 O288 1.918 . S
Fe287 O295 1.997 . S
Fe287 O298 1.996 . S
Fe287 O302 1.976 . S
Fe287 O305 2.002 . S
O288 Fe286 1.918 . S
O288 Fe287 1.918 . S
O288 Fe289 1.918 . S
Fe289 O288 1.918 . S
Fe289 O290 2.002 . S
Fe289 O299 1.976 . S
Fe289 O303 1.996 . S
Fe289 O306 1.997 . S
O290 Fe289 2.002 . S
O290 C307 1.295 . S
O291 Fe286 1.997 . S
O291 C307 1.235 . S
O292 Fe286 2.002 . S
O292 C293 1.295 . S
C293 O292 1.295 . S
C293 O295 1.235 . S
C294 O299 1.287 . S
C294 O300 1.255 . S
O295 Fe287 1.997 . S
O295 C293 1.235 . S
C296 O302 1.287 . S
C296 O303 1.255 . S
O297 Fe286 1.976 . S
O297 C304 1.287 . S
O298 Fe287 1.996 . S
O298 C304 1.255 . S
O299 Fe289 1.976 . S
O299 C294 1.287 . S
O300 Fe286 1.996 . S
O300 C294 1.255 . S
C301 O305 1.295 . S
C301 O306 1.235 . S
O302 Fe287 1.976 . S
O302 C296 1.287 . S
O303 Fe289 1.996 . S
O303 C296 1.255 . S
C304 O297 1.287 . S
C304 O298 1.255 . S
O305 Fe287 2.002 . S
O305 C301 1.295 . S
O306 Fe289 1.997 . S
O306 C301 1.235 . S
C307 O290 1.295 . S
C307 O291 1.235 . S
Fe308 O310 1.918 . S
Fe308 O313 1.997 . S
Fe308 O314 2.002 . S
Fe308 O319 1.976 . S
Fe308 O322 1.996 . S
Fe309 O310 1.918 . S
Fe309 O317 1.997 . S
Fe309 O320 1.996 . S
Fe309 O324 1.976 . S
Fe309 O327 2.002 . S
O310 Fe308 1.918 . S
O310 Fe309 1.918 . S
O310 Fe311 1.918 . S
Fe311 O310 1.918 . S
Fe311 O312 2.002 . S
Fe311 O321 1.976 . S
Fe311 O325 1.996 . S
Fe311 O328 1.997 . S
O312 Fe311 2.002 . S
O312 C329 1.295 . S
O313 Fe308 1.997 . S
O313 C329 1.235 . S
O314 Fe308 2.002 . S
O314 C315 1.295 . S
C315 O314 1.295 . S
C315 O317 1.235 . S
C316 O321 1.287 . S
C316 O322 1.255 . S
O317 Fe309 1.997 . S
O317 C315 1.235 . S
C318 O324 1.287 . S
C318 O325 1.255 . S
O319 Fe308 1.976 . S
O319 C326 1.287 . S
O320 Fe309 1.996 . S
O320 C326 1.255 . S
O321 Fe311 1.976 . S
O321 C316 1.287 . S
O322 Fe308 1.996 . S
O322 C316 1.255 . S
C323 O327 1.295 . S
C323 O328 1.235 . S
O324 Fe309 1.976 . S
O324 C318 1.287 . S
O325 Fe311 1.996 . S
O325 C318 1.255 . S
C326 O319 1.287 . S
C326 O320 1.255 . S
O327 Fe309 2.002 . S
O327 C323 1.295 . S
O328 Fe311 1.997 . S
O328 C323 1.235 . S
C329 O312 1.295 . S
C329 O313 1.235 . S
Fe330 O332 1.918 . S
Fe330 O335 1.997 . S
Fe330 O336 2.002 . S
Fe330 O341 1.976 . S
Fe330 O344 1.996 . S
Fe331 O332 1.918 . S
Fe331 O339 1.997 . S
Fe331 O342 1.996 . S
Fe331 O346 1.976 . S
Fe331 O349 2.002 . S
O332 Fe330 1.918 . S
O332 Fe331 1.918 . S
O332 Fe333 1.918 . S
Fe333 O332 1.918 . S
Fe333 O334 2.002 . S
Fe333 O343 1.976 . S
Fe333 O347 1.996 . S
Fe333 O350 1.997 . S
O334 Fe333 2.002 . S
O334 C351 1.295 . S
O335 Fe330 1.997 . S
O335 C351 1.235 . S
O336 Fe330 2.002 . S
O336 C337 1.295 . S
C337 O336 1.295 . S
C337 O339 1.235 . S
C338 O343 1.287 . S
C338 O344 1.255 . S
O339 Fe331 1.997 . S
O339 C337 1.235 . S
C340 O346 1.287 . S
C340 O347 1.255 . S
O341 Fe330 1.976 . S
O341 C348 1.287 . S
O342 Fe331 1.996 . S
O342 C348 1.255 . S
O343 Fe333 1.976 . S
O343 C338 1.287 . S
O344 Fe330 1.996 . S
O344 C338 1.255 . S
C345 O349 1.295 . S
C345 O350 1.235 . S
O346 Fe331 1.976 . S
O346 C340 1.287 . S
O347 Fe333 1.996 . S
O347 C340 1.255 . S
C348 O341 1.287 . S
C348 O342 1.255 . S
O349 Fe331 2.002 . S
O349 C345 1.295 . S
O350 Fe333 1.997 . S
O350 C345 1.235 . S
C351 O334 1.295 . S
C351 O335 1.235 . S
Fe352 O354 1.918 . S
Fe352 O357 1.997 . S
Fe352 O358 2.002 . S
Fe352 O363 1.976 . S
Fe352 O366 1.996 . S
Fe353 O354 1.918 . S
Fe353 O361 1.997 . S
Fe353 O364 1.996 . S
Fe353 O368 1.976 . S
Fe353 O371 2.002 . S
O354 Fe352 1.918 . S
O354 Fe353 1.918 . S
O354 Fe355 1.918 . S
Fe355 O354 1.918 . S
Fe355 O356 2.002 . S
Fe355 O365 1.976 . S
Fe355 O369 1.996 . S
Fe355 O372 1.997 . S
O356 Fe355 2.002 . S
O356 C373 1.295 . S
O357 Fe352 1.997 . S
O357 C373 1.235 . S
O358 Fe352 2.002 . S
O358 C359 1.295 . S
C359 O358 1.295 . S
C359 O361 1.235 . S
C360 O365 1.287 . S
C360 O366 1.255 . S
O361 Fe353 1.997 . S
O361 C359 1.235 . S
C362 O368 1.287 . S
C362 O369 1.255 . S
O363 Fe352 1.976 . S
O363 C370 1.287 . S
O364 Fe353 1.996 . S
O364 C370 1.255 . S
O365 Fe355 1.976 . S
O365 C360 1.287 . S
O366 Fe352 1.996 . S
O366 C360 1.255 . S
C367 O371 1.295 . S
C367 O372 1.235 . S
O368 Fe353 1.976 . S
O368 C362 1.287 . S
O369 Fe355 1.996 . S
O369 C362 1.255 . S
C370 O363 1.287 . S
C370 O364 1.255 . S
O371 Fe353 2.002 . S
O371 C367 1.295 . S
O372 Fe355 1.997 . S
O372 C367 1.235 . S
C373 O356 1.295 . S
C373 O357 1.235 . S
Fe374 O376 1.918 . S
Fe374 O379 1.997 . S
Fe374 O380 2.002 . S
Fe374 O385 1.976 . S
Fe374 O388 1.996 . S
Fe375 O376 1.918 . S
Fe375 O383 1.997 . S
Fe375 O386 1.996 . S
Fe375 O390 1.976 . S
Fe375 O393 2.002 . S
O376 Fe374 1.918 . S
O376 Fe375 1.918 . S
O376 Fe377 1.918 . S
Fe377 O376 1.918 . S
Fe377 O378 2.002 . S
Fe377 O387 1.976 . S
Fe377 O391 1.996 . S
Fe377 O394 1.997 . S
O378 Fe377 2.002 . S
O378 C395 1.295 . S
O379 Fe374 1.997 . S
O379 C395 1.235 . S
O380 Fe374 2.002 . S
O380 C381 1.295 . S
C381 O380 1.295 . S
C381 O383 1.235 . S
C382 O387 1.287 . S
C382 O388 1.255 . S
O383 Fe375 1.997 . S
O383 C381 1.235 . S
C384 O390 1.287 . S
C384 O391 1.255 . S
O385 Fe374 1.976 . S
O385 C392 1.287 . S
O386 Fe375 1.996 . S
O386 C392 1.255 . S
O387 Fe377 1.976 . S
O387 C382 1.287 . S
O388 Fe374 1.996 . S
O388 C382 1.255 . S
C389 O393 1.295 . S
C389 O394 1.235 . S
O390 Fe375 1.976 . S
O390 C384 1.287 . S
O391 Fe377 1.996 . S
O391 C384 1.255 . S
C392 O385 1.287 . S
C392 O386 1.255 . S
O393 Fe375 2.002 . S
O393 C389 1.295 . S
O394 Fe377 1.997 . S
O394 C389 1.235 . S
C395 O378 1.295 . S
C395 O379 1.235 . S
Fe396 O398 1.918 . S
Fe396 O401 1.997 . S
Fe396 O402 2.002 . S
Fe396 O407 1.976 . S
Fe396 O410 1.996 . S
Fe397 O398 1.918 . S
Fe397 O405 1.997 . S
Fe397 O408 1.996 . S
Fe397 O412 1.976 . S
Fe397 O415 2.002 . S
O398 Fe396 1.918 . S
O398 Fe397 1.918 . S
O398 Fe399 1.918 . S
Fe399 O398 1.918 . S
Fe399 O400 2.002 . S
Fe399 O409 1.976 . S
Fe399 O413 1.996 . S
Fe399 O416 1.997 . S
O400 Fe399 2.002 . S
O400 C417 1.295 . S
O401 Fe396 1.997 . S
O401 C417 1.235 . S
O402 Fe396 2.002 . S
O402 C403 1.295 . S
C403 O402 1.295 . S
C403 O405 1.235 . S
C404 O409 1.287 . S
C404 O410 1.255 . S
O405 Fe397 1.997 . S
O405 C403 1.235 . S
C406 O412 1.287 . S
C406 O413 1.255 . S
O407 Fe396 1.976 . S
O407 C414 1.287 . S
O408 Fe397 1.996 . S
O408 C414 1.255 . S
O409 Fe399 1.976 . S
O409 C404 1.287 . S
O410 Fe396 1.996 . S
O410 C404 1.255 . S
C411 O415 1.295 . S
C411 O416 1.235 . S
O412 Fe397 1.976 . S
O412 C406 1.287 . S
O413 Fe399 1.996 . S
O413 C406 1.255 . S
C414 O407 1.287 . S
C414 O408 1.255 . S
O415 Fe397 2.002 . S
O415 C411 1.295 . S
O416 Fe399 1.997 . S
O416 C411 1.235 . S
C417 O400 1.295 . S
C417 O401 1.235 . S
Fe418 O420 1.918 . S
Fe418 O423 1.997 . S
Fe418 O424 2.002 . S
Fe418 O429 1.976 . S
Fe418 O432 1.996 . S
Fe419 O420 1.918 . S
Fe419 O427 1.997 . S
Fe419 O430 1.996 . S
Fe419 O434 1.976 . S
Fe419 O437 2.002 . S
O420 Fe418 1.918 . S
O420 Fe419 1.918 . S
O420 Fe421 1.918 . S
Fe421 O420 1.918 . S
Fe421 O422 2.002 . S
Fe421 O431 1.976 . S
Fe421 O435 1.996 . S
Fe421 O438 1.997 . S
O422 Fe421 2.002 . S
O422 C439 1.295 . S
O423 Fe418 1.997 . S
O423 C439 1.235 . S
O424 Fe418 2.002 . S
O424 C425 1.295 . S
C425 O424 1.295 . S
C425 O427 1.235 . S
C426 O431 1.287 . S
C426 O432 1.255 . S
O427 Fe419 1.997 . S
O427 C425 1.235 . S
C428 O434 1.287 . S
C428 O435 1.255 . S
O429 Fe418 1.976 . S
O429 C436 1.287 . S
O430 Fe419 1.996 . S
O430 C436 1.255 . S
O431 Fe421 1.976 . S
O431 C426 1.287 . S
O432 Fe418 1.996 . S
O432 C426 1.255 . S
C433 O437 1.295 . S
C433 O438 1.235 . S
O434 Fe419 1.976 . S
O434 C428 1.287 . S
O435 Fe421 1.996 . S
O435 C428 1.255 . S
C436 O429 1.287 . S
C436 O430 1.255 . S
O437 Fe419 2.002 . S
O437 C433 1.295 . S
O438 Fe421 1.997 . S
O438 C433 1.235 . S
C439 O422 1.295 . S
C439 O423 1.235 . S
Fe440 O442 1.918 . S
Fe440 O445 1.997 . S
Fe440 O446 2.002 . S
Fe440 O451 1.976 . S
Fe440 O454 1.996 . S
Fe441 O442 1.918 . S
Fe441 O449 1.997 . S
Fe441 O452 1.996 . S
Fe441 O456 1.976 . S
Fe441 O459 2.002 . S
O442 Fe440 1.918 . S
O442 Fe441 1.918 . S
O442 Fe443 1.918 . S
Fe443 O442 1.918 . S
Fe443 O444 2.002 . S
Fe443 O453 1.976 . S
Fe443 O457 1.996 . S
Fe443 O460 1.997 . S
O444 Fe443 2.002 . S
O444 C461 1.295 . S
O445 Fe440 1.997 . S
O445 C461 1.235 . S
O446 Fe440 2.002 . S
O446 C447 1.295 . S
C447 O446 1.295 . S
C447 O449 1.235 . S
C448 O453 1.287 . S
C448 O454 1.255 . S
O449 Fe441 1.997 . S
O449 C447 1.235 . S
C450 O456 1.287 . S
C450 O457 1.255 . S
O451 Fe440 1.976 . S
O451 C458 1.287 . S
O452 Fe441 1.996 . S
O452 C458 1.255 . S
O453 Fe443 1.976 . S
O453 C448 1.287 . S
O454 Fe440 1.996 . S
O454 C448 1.255 . S
C455 O459 1.295 . S
C455 O460 1.235 . S
O456 Fe441 1.976 . S
O456 C450 1.287 . S
O457 Fe443 1.996 . S
O457 C450 1.255 . S
C458 O451 1.287 . S
C458 O452 1.255 . S
O459 Fe441 2.002 . S
O459 C455 1.295 . S
O460 Fe443 1.997 . S
O460 C455 1.235 . S
C461 O444 1.295 . S
C461 O445 1.235 . S
Fe462 O464 1.918 . S
Fe462 O467 1.997 . S
Fe462 O468 2.002 . S
Fe462 O473 1.976 . S
Fe462 O476 1.996 . S
Fe463 O464 1.918 . S
Fe463 O471 1.997 . S
Fe463 O474 1.996 . S
Fe463 O478 1.976 . S
Fe463 O481 2.002 . S
O464 Fe462 1.918 . S
O464 Fe463 1.918 . S
O464 Fe465 1.918 . S
Fe465 O464 1.918 . S
Fe465 O466 2.002 . S
Fe465 O475 1.976 . S
Fe465 O479 1.996 . S
Fe465 O482 1.997 . S
O466 Fe465 2.002 . S
O466 C483 1.295 . S
O467 Fe462 1.997 . S
O467 C483 1.235 . S
O468 Fe462 2.002 . S
O468 C469 1.295 . S
C469 O468 1.295 . S
C469 O471 1.235 . S
C470 O475 1.287 . S
C470 O476 1.255 . S
O471 Fe463 1.997 . S
O471 C469 1.235 . S
C472 O478 1.287 . S
C472 O479 1.255 . S
O473 Fe462 1.976 . S
O473 C480 1.287 . S
O474 Fe463 1.996 . S
O474 C480 1.255 . S
O475 Fe465 1.976 . S
O475 C470 1.287 . S
O476 Fe462 1.996 . S
O476 C470 1.255 . S
C477 O481 1.295 . S
C477 O482 1.235 . S
O478 Fe463 1.976 . S
O478 C472 1.287 . S
O479 Fe465 1.996 . S
O479 C472 1.255 . S
C480 O473 1.287 . S
C480 O474 1.255 . S
O481 Fe463 2.002 . S
O481 C477 1.295 . S
O482 Fe465 1.997 . S
O482 C477 1.235 . S
C483 O466 1.295 . S
C483 O467 1.235 . S
Fe484 O486 1.918 . S
Fe484 O489 1.997 . S
Fe484 O490 2.002 . S
Fe484 O495 1.976 . S
Fe484 O498 1.996 . S
Fe485 O486 1.918 . S
Fe485 O493 1.997 . S
Fe485 O496 1.996 . S
Fe485 O500 1.976 . S
Fe485 O503 2.002 . S
O486 Fe484 1.918 . S
O486 Fe485 1.918 . S
O486 Fe487 1.918 . S
Fe487 O486 1.918 . S
Fe487 O488 2.002 . S
Fe487 O497 1.976 . S
Fe487 O501 1.996 . S
Fe487 O504 1.997 . S
O488 Fe487 2.002 . S
O488 C505 1.295 . S
O489 Fe484 1.997 . S
O489 C505 1.235 . S
O490 Fe484 2.002 . S
O490 C491 1.295 . S
C491 O490 1.295 . S
C491 O493 1.235 . S
C492 O497 1.287 . S
C492 O498 1.255 . S
O493 Fe485 1.997 . S
O493 C491 1.235 . S
C494 O500 1.287 . S
C494 O501 1.255 . S
O495 Fe484 1.976 . S
O495 C502 1.287 . S
O496 Fe485 1.996 . S
O496 C502 1.255 . S
O497 Fe487 1.976 . S
O497 C492 1.287 . S
O498 Fe484 1.996 . S
O498 C492 1.255 . S
C499 O503 1.295 . S
C499 O504 1.235 . S
O500 Fe485 1.976 . S
O500 C494 1.287 . S
O501 Fe487 1.996 . S
O501 C494 1.255 . S
C502 O495 1.287 . S
C502 O496 1.255 . S
O503 Fe485 2.002 . S
O503 C499 1.295 . S
O504 Fe487 1.997 . S
O504 C499 1.235 . S
C505 O488 1.295 . S
C505 O489 1.235 . S
Fe506 O508 1.918 . S
Fe506 O511 1.997 . S
Fe506 O512 2.002 . S
Fe506 O517 1.976 . S
Fe506 O520 1.996 . S
Fe507 O508 1.918 . S
Fe507 O515 1.997 . S
Fe507 O518 1.996 . S
Fe507 O522 1.976 . S
Fe507 O525 2.002 . S
O508 Fe506 1.918 . S
O508 Fe507 1.918 . S
O508 Fe509 1.918 . S
Fe509 O508 1.918 . S
Fe509 O510 2.002 . S
Fe509 O519 1.976 . S
Fe509 O523 1.996 . S
Fe509 O526 1.997 . S
O510 Fe509 2.002 . S
O510 C527 1.295 . S
O511 Fe506 1.997 . S
O511 C527 1.235 . S
O512 Fe506 2.002 . S
O512 C513 1.295 . S
C513 O512 1.295 . S
C513 O515 1.235 . S
C514 O519 1.287 . S
C514 O520 1.255 . S
O515 Fe507 1.997 . S
O515 C513 1.235 . S
C516 O522 1.287 . S
C516 O523 1.255 . S
O517 Fe506 1.976 . S
O517 C524 1.287 . S
O518 Fe507 1.996 . S
O518 C524 1.255 . S
O519 Fe509 1.976 . S
O519 C514 1.287 . S
O520 Fe506 1.996 . S
O520 C514 1.255 . S
C521 O525 1.295 . S
C521 O526 1.235 . S
O522 Fe507 1.976 . S
O522 C516 1.287 . S
O523 Fe509 1.996 . S
O523 C516 1.255 . S
C524 O517 1.287 . S
C524 O518 1.255 . S
O525 Fe507 2.002 . S
O525 C521 1.295 . S
O526 Fe509 1.997 . S
O526 C521 1.235 . S
C527 O510 1.295 . S
C527 O511 1.235 . S
Fe528 O530 1.918 . S
Fe528 O533 1.997 . S
Fe528 O534 2.002 . S
Fe528 O539 1.976 . S
Fe528 O542 1.996 . S
Fe529 O530 1.918 . S
Fe529 O537 1.997 . S
Fe529 O540 1.996 . S
Fe529 O544 1.976 . S
Fe529 O547 2.002 . S
O530 Fe528 1.918 . S
O530 Fe529 1.918 . S
O530 Fe531 1.918 . S
Fe531 O530 1.918 . S
Fe531 O532 2.002 . S
Fe531 O541 1.976 . S
Fe531 O545 1.996 . S
Fe531 O548 1.997 . S
O532 Fe531 2.002 . S
O532 C549 1.295 . S
O533 Fe528 1.997 . S
O533 C549 1.235 . S
O534 Fe528 2.002 . S
O534 C535 1.295 . S
C535 O534 1.295 . S
C535 O537 1.235 . S
C536 O541 1.287 . S
C536 O542 1.255 . S
O537 Fe529 1.997 . S
O537 C535 1.235 . S
C538 O544 1.287 . S
C538 O545 1.255 . S
O539 Fe528 1.976 . S
O539 C546 1.287 . S
O540 Fe529 1.996 . S
O540 C546 1.255 . S
O541 Fe531 1.976 . S
O541 C536 1.287 . S
O542 Fe528 1.996 . S
O542 C536 1.255 . S
C543 O547 1.295 . S
C543 O548 1.235 . S
O544 Fe529 1.976 . S
O544 C538 1.287 . S
O545 Fe531 1.996 . S
O545 C538 1.255 . S
C546 O539 1.287 . S
C546 O540 1.255 . S
O547 Fe529 2.002 . S
O547 C543 1.295 . S
O548 Fe531 1.997 . S
O548 C543 1.235 . S
C549 O532 1.295 . S
C549 O533 1.235 . S
Fe550 O552 1.918 . S
Fe550 O555 1.997 . S
Fe550 O556 2.002 . S
Fe550 O561 1.976 . S
Fe550 O564 1.996 . S
Fe551 O552 1.918 . S
Fe551 O559 1.997 . S
Fe551 O562 1.996 . S
Fe551 O566 1.976 . S
Fe551 O569 2.002 . S
O552 Fe550 1.918 . S
O552 Fe551 1.918 . S
O552 Fe553 1.918 . S
Fe553 O552 1.918 . S
Fe553 O554 2.002 . S
Fe553 O563 1.976 . S
Fe553 O567 1.996 . S
Fe553 O570 1.997 . S
O554 Fe553 2.002 . S
O554 C571 1.295 . S
O555 Fe550 1.997 . S
O555 C571 1.235 . S
O556 Fe550 2.002 . S
O556 C557 1.295 . S
C557 O556 1.295 . S
C557 O559 1.235 . S
C558 O563 1.287 . S
C558 O564 1.255 . S
O559 Fe551 1.997 . S
O559 C557 1.235 . S
C560 O566 1.287 . S
C560 O567 1.255 . S
O561 Fe550 1.976 . S
O561 C568 1.287 . S
O562 Fe551 1.996 . S
O562 C568 1.255 . S
O563 Fe553 1.976 . S
O563 C558 1.287 . S
O564 Fe550 1.996 . S
O564 C558 1.255 . S
C565 O569 1.295 . S
C565 O570 1.235 . S
O566 Fe551 1.976 . S
O566 C560 1.287 . S
O567 Fe553 1.996 . S
O567 C560 1.255 . S
C568 O561 1.287 . S
C568 O562 1.255 . S
O569 Fe551 2.002 . S
O569 C565 1.295 . S
O570 Fe553 1.997 . S
O570 C565 1.235 . S
C571 O554 1.295 . S
C571 O555 1.235 . S
Fe572 O574 1.918 . S
Fe572 O577 1.997 . S
Fe572 O578 2.002 . S
Fe572 O583 1.976 . S
Fe572 O586 1.996 . S
Fe573 O574 1.918 . S
Fe573 O581 1.997 . S
Fe573 O584 1.996 . S
Fe573 O588 1.976 . S
Fe573 O591 2.002 . S
O574 Fe572 1.918 . S
O574 Fe573 1.918 . S
O574 Fe575 1.918 . S
Fe575 O574 1.918 . S
Fe575 O576 2.002 . S
Fe575 O585 1.976 . S
Fe575 O589 1.996 . S
Fe575 O592 1.997 . S
O576 Fe575 2.002 . S
O576 C593 1.295 . S
O577 Fe572 1.997 . S
O577 C593 1.235 . S
O578 Fe572 2.002 . S
O578 C579 1.295 . S
C579 O578 1.295 . S
C579 O581 1.235 . S
C580 O585 1.287 . S
C580 O586 1.255 . S
O581 Fe573 1.997 . S
O581 C579 1.235 . S
C582 O588 1.287 . S
C582 O589 1.255 . S
O583 Fe572 1.976 . S
O583 C590 1.287 . S
O584 Fe573 1.996 . S
O584 C590 1.255 . S
O585 Fe575 1.976 . S
O585 C580 1.287 . S
O586 Fe572 1.996 . S
O586 C580 1.255 . S
C587 O591 1.295 . S
C587 O592 1.235 . S
O588 Fe573 1.976 . S
O588 C582 1.287 . S
O589 Fe575 1.996 . S
O589 C582 1.255 . S
C590 O583 1.287 . S
C590 O584 1.255 . S
O591 Fe573 2.002 . S
O591 C587 1.295 . S
O592 Fe575 1.997 . S
O592 C587 1.235 . S
C593 O576 1.295 . S
C593 O577 1.235 . S
Fe594 O596 1.918 . S
Fe594 O599 1.997 . S
Fe594 O600 2.002 . S
Fe594 O605 1.976 . S
Fe594 O608 1.996 . S
Fe595 O596 1.918 . S
Fe595 O603 1.997 . S
Fe595 O606 1.996 . S
Fe595 O610 1.976 . S
Fe595 O613 2.002 . S
O596 Fe594 1.918 . S
O596 Fe595 1.918 . S
O596 Fe597 1.918 . S
Fe597 O596 1.918 . S
Fe597 O598 2.002 . S
Fe597 O607 1.976 . S
Fe597 O611 1.996 . S
Fe597 O614 1.997 . S
O598 Fe597 2.002 . S
O598 C615 1.295 . S
O599 Fe594 1.997 . S
O599 C615 1.235 . S
O600 Fe594 2.002 . S
O600 C601 1.295 . S
C601 O600 1.295 . S
C601 O603 1.235 . S
C602 O607 1.287 . S
C602 O608 1.255 . S
O603 Fe595 1.997 . S
O603 C601 1.235 . S
C604 O610 1.287 . S
C604 O611 1.255 . S
O605 Fe594 1.976 . S
O605 C612 1.287 . S
O606 Fe595 1.996 . S
O606 C612 1.255 . S
O607 Fe597 1.976 . S
O607 C602 1.287 . S
O608 Fe594 1.996 . S
O608 C602 1.255 . S
C609 O613 1.295 . S
C609 O614 1.235 . S
O610 Fe595 1.976 . S
O610 C604 1.287 . S
O611 Fe597 1.996 . S
O611 C604 1.255 . S
C612 O605 1.287 . S
C612 O606 1.255 . S
O613 Fe595 2.002 . S
O613 C609 1.295 . S
O614 Fe597 1.997 . S
O614 C609 1.235 . S
C615 O598 1.295 . S
C615 O599 1.235 . S
Fe616 O618 1.918 . S
Fe616 O621 1.997 . S
Fe616 O622 2.002 . S
Fe616 O627 1.976 . S
Fe616 O630 1.996 . S
Fe617 O618 1.918 . S
Fe617 O625 1.997 . S
Fe617 O628 1.996 . S
Fe617 O632 1.976 . S
Fe617 O635 2.002 . S
O618 Fe616 1.918 . S
O618 Fe617 1.918 . S
O618 Fe619 1.918 . S
Fe619 O618 1.918 . S
Fe619 O620 2.002 . S
Fe619 O629 1.976 . S
Fe619 O633 1.996 . S
Fe619 O636 1.997 . S
O620 Fe619 2.002 . S
O620 C637 1.295 . S
O621 Fe616 1.997 . S
O621 C637 1.235 . S
O622 Fe616 2.002 . S
O622 C623 1.295 . S
C623 O622 1.295 . S
C623 O625 1.235 . S
C624 O629 1.287 . S
C624 O630 1.255 . S
O625 Fe617 1.997 . S
O625 C623 1.235 . S
C626 O632 1.287 . S
C626 O633 1.255 . S
O627 Fe616 1.976 . S
O627 C634 1.287 . S
O628 Fe617 1.996 . S
O628 C634 1.255 . S
O629 Fe619 1.976 . S
O629 C624 1.287 . S
O630 Fe616 1.996 . S
O630 C624 1.255 . S
C631 O635 1.295 . S
C631 O636 1.235 . S
O632 Fe617 1.976 . S
O632 C626 1.287 . S
O633 Fe619 1.996 . S
O633 C626 1.255 . S
C634 O627 1.287 . S
C634 O628 1.255 . S
O635 Fe617 2.002 . S
O635 C631 1.295 . S
O636 Fe619 1.997 . S
O636 C631 1.235 . S
C637 O620 1.295 . S
C637 O621 1.235 . S
Fe638 O640 1.918 . S
Fe638 O643 1.997 . S
Fe638 O644 2.002 . S
Fe638 O649 1.976 . S
Fe638 O652 1.996 . S
Fe639 O640 1.918 . S
Fe639 O647 1.997 . S
Fe639 O650 1.996 . S
Fe639 O654 1.976 . S
Fe639 O657 2.002 . S
O640 Fe638 1.918 . S
O640 Fe639 1.918 . S
O640 Fe641 1.918 . S
Fe641 O640 1.918 . S
Fe641 O642 2.002 . S
Fe641 O651 1.976 . S
Fe641 O655 1.996 . S
Fe641 O658 1.997 . S
O642 Fe641 2.002 . S
O642 C659 1.295 . S
O643 Fe638 1.997 . S
O643 C659 1.235 . S
O644 Fe638 2.002 . S
O644 C645 1.295 . S
C645 O644 1.295 . S
C645 O647 1.235 . S
C646 O651 1.287 . S
C646 O652 1.255 . S
O647 Fe639 1.997 . S
O647 C645 1.235 . S
C648 O654 1.287 . S
C648 O655 1.255 . S
O649 Fe638 1.976 . S
O649 C656 1.287 . S
O650 Fe639 1.996 . S
O650 C656 1.255 . S
O651 Fe641 1.976 . S
O651 C646 1.287 . S
O652 Fe638 1.996 . S
O652 C646 1.255 . S
C653 O657 1.295 . S
C653 O658 1.235 . S
O654 Fe639 1.976 . S
O654 C648 1.287 . S
O655 Fe641 1.996 . S
O655 C648 1.255 . S
C656 O649 1.287 . S
C656 O650 1.255 . S
O657 Fe639 2.002 . S
O657 C653 1.295 . S
O658 Fe641 1.997 . S
O658 C653 1.235 . S
C659 O642 1.295 . S
C659 O643 1.235 . S
Fe660 O662 1.918 . S
Fe660 O665 1.997 . S
Fe660 O666 2.002 . S
Fe660 O671 1.976 . S
Fe660 O674 1.996 . S
Fe661 O662 1.918 . S
Fe661 O669 1.997 . S
Fe661 O672 1.996 . S
Fe661 O676 1.976 . S
Fe661 O679 2.002 . S
O662 Fe660 1.918 . S
O662 Fe661 1.918 . S
O662 Fe663 1.918 . S
Fe663 O662 1.918 . S
Fe663 O664 2.002 . S
Fe663 O673 1.976 . S
Fe663 O677 1.996 . S
Fe663 O680 1.997 . S
O664 Fe663 2.002 . S
O664 C681 1.295 . S
O665 Fe660 1.997 . S
O665 C681 1.235 . S
O666 Fe660 2.002 . S
O666 C667 1.295 . S
C667 O666 1.295 . S
C667 O669 1.235 . S
C668 O673 1.287 . S
C668 O674 1.255 . S
O669 Fe661 1.997 . S
O669 C667 1.235 . S
C670 O676 1.287 . S
C670 O677 1.255 . S
O671 Fe660 1.976 . S
O671 C678 1.287 . S
O672 Fe661 1.996 . S
O672 C678 1.255 . S
O673 Fe663 1.976 . S
O673 C668 1.287 . S
O674 Fe660 1.996 . S
O674 C668 1.255 . S
C675 O679 1.295 . S
C675 O680 1.235 . S
O676 Fe661 1.976 . S
O676 C670 1.287 . S
O677 Fe663 1.996 . S
O677 C670 1.255 . S
C678 O671 1.287 . S
C678 O672 1.255 . S
O679 Fe661 2.002 . S
O679 C675 1.295 . S
O680 Fe663 1.997 . S
O680 C675 1.235 . S
C681 O664 1.295 . S
C681 O665 1.235 . S
Fe682 O684 1.918 . S
Fe682 O687 1.997 . S
Fe682 O688 2.002 . S
Fe682 O693 1.976 . S
Fe682 O696 1.996 . S
Fe683 O684 1.918 . S
Fe683 O691 1.997 . S
Fe683 O694 1.996 . S
Fe683 O698 1.976 . S
Fe683 O701 2.002 . S
O684 Fe682 1.918 . S
O684 Fe683 1.918 . S
O684 Fe685 1.918 . S
Fe685 O684 1.918 . S
Fe685 O686 2.002 . S
Fe685 O695 1.976 . S
Fe685 O699 1.996 . S
Fe685 O702 1.997 . S
O686 Fe685 2.002 . S
O686 C703 1.295 . S
O687 Fe682 1.997 . S
O687 C703 1.235 . S
O688 Fe682 2.002 . S
O688 C689 1.295 . S
C689 O688 1.295 . S
C689 O691 1.235 . S
C690 O695 1.287 . S
C690 O696 1.255 . S
O691 Fe683 1.997 . S
O691 C689 1.235 . S
C692 O698 1.287 . S
C692 O699 1.255 . S
O693 Fe682 1.976 . S
O693 C700 1.287 . S
O694 Fe683 1.996 . S
O694 C700 1.255 . S
O695 Fe685 1.976 . S
O695 C690 1.287 . S
O696 Fe682 1.996 . S
O696 C690 1.255 . S
C697 O701 1.295 . S
C697 O702 1.235 . S
O698 Fe683 1.976 . S
O698 C692 1.287 . S
O699 Fe685 1.996 . S
O699 C692 1.255 . S
C700 O693 1.287 . S
C700 O694 1.255 . S
O701 Fe683 2.002 . S
O701 C697 1.295 . S
O702 Fe685 1.997 . S
O702 C697 1.235 . S
C703 O686 1.295 . S
C703 O687 1.235 . S
C704 C705 1.363 . S
C704 C710 1.379 . S
C704 N712 1.356 . S
C705 C704 1.363 . S
C705 C711 1.363 . S
C706 C707 1.363 . S
C706 C711 1.379 . S
C706 N713 1.356 . S
C707 C706 1.363 . S
C707 C710 1.363 . S
N708 C710 1.356 . S
N708 H720 0.984 . S
N708 H721 0.985 . S
N709 C711 1.356 . S
N709 H714 0.984 . S
N709 H715 0.985 . S
C710 C704 1.379 . S
C710 C707 1.363 . S
C710 N708 1.356 . S
C711 C705 1.363 . S
C711 C706 1.379 . S
C711 N709 1.356 . S
N712 C704 1.356 . S
N712 H718 0.984 . S
N712 H719 0.984 . S
N713 C706 1.356 . S
N713 H716 0.984 . S
N713 H717 0.985 . S
H714 N709 0.984 . S
H715 N709 0.985 . S
H716 N713 0.984 . S
H717 N713 0.985 . S
H718 N712 0.984 . S
H719 N712 0.984 . S
H720 N708 0.984 . S
H721 N708 0.985 . S
C722 C723 1.363 . S
C722 C728 1.379 . S
C722 N730 1.356 . S
C723 C722 1.363 . S
C723 C729 1.363 . S
C724 C725 1.363 . S
C724 C729 1.379 . S
C724 N731 1.356 . S
C725 C724 1.363 . S
C725 C728 1.363 . S
N726 C728 1.356 . S
N726 H738 0.984 . S
N726 H739 0.985 . S
N727 C729 1.356 . S
N727 H732 0.984 . S
N727 H733 0.985 . S
C728 C722 1.379 . S
C728 C725 1.363 . S
C728 N726 1.356 . S
C729 C723 1.363 . S
C729 C724 1.379 . S
C729 N727 1.356 . S
N730 C722 1.356 . S
N730 H736 0.984 . S
N730 H737 0.984 . S
N731 C724 1.356 . S
N731 H734 0.984 . S
N731 H735 0.985 . S
H732 N727 0.984 . S
H733 N727 0.985 . S
H734 N731 0.984 . S
H735 N731 0.985 . S
H736 N730 0.984 . S
H737 N730 0.984 . S
H738 N726 0.984 . S
H739 N726 0.985 . S
C740 C741 1.363 . S
C740 C746 1.379 . S
C740 N748 1.356 . S
C741 C740 1.363 . S
C741 C747 1.363 . S
C742 C743 1.363 . S
C742 C747 1.379 . S
C742 N749 1.356 . S
C743 C742 1.363 . S
C743 C746 1.363 . S
N744 C746 1.356 . S
N744 H756 0.984 . S
N744 H757 0.985 . S
N745 C747 1.356 . S
N745 H750 0.984 . S
N745 H751 0.985 . S
C746 C740 1.379 . S
C746 C743 1.363 . S
C746 N744 1.356 . S
C747 C741 1.363 . S
C747 C742 1.379 . S
C747 N745 1.356 . S
N748 C740 1.356 . S
N748 H754 0.984 . S
N748 H755 0.984 . S
N749 C742 1.356 . S
N749 H752 0.984 . S
N749 H753 0.985 . S
H750 N745 0.984 . S
H751 N745 0.985 . S
H752 N749 0.984 . S
H753 N749 0.985 . S
H754 N748 0.984 . S
H755 N748 0.984 . S
H756 N744 0.984 . S
H757 N744 0.985 . S
C758 C759 1.363 . S
C758 C764 1.379 . S
C758 N766 1.356 . S
C759 C758 1.363 . S
C759 C765 1.363 . S
C760 C761 1.363 . S
C760 C765 1.379 . S
C760 N767 1.356 . S
C761 C760 1.363 . S
C761 C764 1.363 . S
N762 C764 1.356 . S
N762 H774 0.984 . S
N762 H775 0.985 . S
N763 C765 1.356 . S
N763 H768 0.984 . S
N763 H769 0.985 . S
C764 C758 1.379 . S
C764 C761 1.363 . S
C764 N762 1.356 . S
C765 C759 1.363 . S
C765 C760 1.379 . S
C765 N763 1.356 . S
N766 C758 1.356 . S
N766 H772 0.984 . S
N766 H773 0.984 . S
N767 C760 1.356 . S
N767 H770 0.984 . S
N767 H771 0.985 . S
H768 N763 0.984 . S
H769 N763 0.985 . S
H770 N767 0.984 . S
H771 N767 0.985 . S
H772 N766 0.984 . S
H773 N766 0.984 . S
H774 N762 0.984 . S
H775 N762 0.985 . S
C776 C777 1.363 . S
C776 C782 1.379 . S
C776 N784 1.356 . S
C777 C776 1.363 . S
C777 C783 1.363 . S
C778 C779 1.363 . S
C778 C783 1.379 . S
C778 N785 1.356 . S
C779 C778 1.363 . S
C779 C782 1.363 . S
N780 C782 1.356 . S
N780 H792 0.984 . S
N780 H793 0.985 . S
N781 C783 1.356 . S
N781 H786 0.984 . S
N781 H787 0.985 . S
C782 C776 1.379 . S
C782 C779 1.363 . S
C782 N780 1.356 . S
C783 C777 1.363 . S
C783 C778 1.379 . S
C783 N781 1.356 . S
N784 C776 1.356 . S
N784 H790 0.984 . S
N784 H791 0.984 . S
N785 C778 1.356 . S
N785 H788 0.984 . S
N785 H789 0.985 . S
H786 N781 0.984 . S
H787 N781 0.985 . S
H788 N785 0.984 . S
H789 N785 0.985 . S
H790 N784 0.984 . S
H791 N784 0.984 . S
H792 N780 0.984 . S
H793 N780 0.985 . S
C794 C795 1.363 . S
C794 C800 1.379 . S
C794 N802 1.356 . S
C795 C794 1.363 . S
C795 C801 1.363 . S
C796 C797 1.363 . S
C796 C801 1.379 . S
C796 N803 1.356 . S
C797 C796 1.363 . S
C797 C800 1.363 . S
N798 C800 1.356 . S
N798 H810 0.984 . S
N798 H811 0.985 . S
N799 C801 1.356 . S
N799 H804 0.984 . S
N799 H805 0.985 . S
C800 C794 1.379 . S
C800 C797 1.363 . S
C800 N798 1.356 . S
C801 C795 1.363 . S
C801 C796 1.379 . S
C801 N799 1.356 . S
N802 C794 1.356 . S
N802 H808 0.984 . S
N802 H809 0.984 . S
N803 C796 1.356 . S
N803 H806 0.984 . S
N803 H807 0.985 . S
H804 N799 0.984 . S
H805 N799 0.985 . S
H806 N803 0.984 . S
H807 N803 0.985 . S
H808 N802 0.984 . S
H809 N802 0.984 . S
H810 N798 0.984 . S
H811 N798 0.985 . S
C812 C813 1.363 . S
C812 C818 1.379 . S
C812 N820 1.356 . S
C813 C812 1.363 . S
C813 C819 1.363 . S
C814 C815 1.363 . S
C814 C819 1.379 . S
C814 N821 1.356 . S
C815 C814 1.363 . S
C815 C818 1.363 . S
N816 C818 1.356 . S
N816 H828 0.984 . S
N816 H829 0.985 . S
N817 C819 1.356 . S
N817 H822 0.984 . S
N817 H823 0.985 . S
C818 C812 1.379 . S
C818 C815 1.363 . S
C818 N816 1.356 . S
C819 C813 1.363 . S
C819 C814 1.379 . S
C819 N817 1.356 . S
N820 C812 1.356 . S
N820 H826 0.984 . S
N820 H827 0.984 . S
N821 C814 1.356 . S
N821 H824 0.984 . S
N821 H825 0.985 . S
H822 N817 0.984 . S
H823 N817 0.985 . S
H824 N821 0.984 . S
H825 N821 0.985 . S
H826 N820 0.984 . S
H827 N820 0.984 . S
H828 N816 0.984 . S
H829 N816 0.985 . S
C830 C831 1.363 . S
C830 C836 1.379 . S
C830 N838 1.356 . S
C831 C830 1.363 . S
C831 C837 1.363 . S
C832 C833 1.363 . S
C832 C837 1.379 . S
C832 N839 1.356 . S
C833 C832 1.363 . S
C833 C836 1.363 . S
N834 C836 1.356 . S
N834 H846 0.984 . S
N834 H847 0.985 . S
N835 C837 1.356 . S
N835 H840 0.984 . S
N835 H841 0.985 . S
C836 C830 1.379 . S
C836 C833 1.363 . S
C836 N834 1.356 . S
C837 C831 1.363 . S
C837 C832 1.379 . S
C837 N835 1.356 . S
N838 C830 1.356 . S
N838 H844 0.984 . S
N838 H845 0.984 . S
N839 C832 1.356 . S
N839 H842 0.984 . S
N839 H843 0.985 . S
H840 N835 0.984 . S
H841 N835 0.985 . S
H842 N839 0.984 . S
H843 N839 0.985 . S
H844 N838 0.984 . S
H845 N838 0.984 . S
H846 N834 0.984 . S
H847 N834 0.985 . S
C848 C849 1.363 . S
C848 C854 1.379 . S
C848 N856 1.356 . S
C849 C848 1.363 . S
C849 C855 1.363 . S
C850 C851 1.363 . S
C850 C855 1.379 . S
C850 N857 1.356 . S
C851 C850 1.363 . S
C851 C854 1.363 . S
N852 C854 1.356 . S
N852 H864 0.984 . S
N852 H865 0.985 . S
N853 C855 1.356 . S
N853 H858 0.984 . S
N853 H859 0.985 . S
C854 C848 1.379 . S
C854 C851 1.363 . S
C854 N852 1.356 . S
C855 C849 1.363 . S
C855 C850 1.379 . S
C855 N853 1.356 . S
N856 C848 1.356 . S
N856 H862 0.984 . S
N856 H863 0.984 . S
N857 C850 1.356 . S
N857 H860 0.984 . S
N857 H861 0.985 . S
H858 N853 0.984 . S
H859 N853 0.985 . S
H860 N857 0.984 . S
H861 N857 0.985 . S
H862 N856 0.984 . S
H863 N856 0.984 . S
H864 N852 0.984 . S
H865 N852 0.985 . S
C866 C867 1.363 . S
C866 C872 1.379 . S
C866 N874 1.356 . S
C867 C866 1.363 . S
C867 C873 1.363 . S
C868 C869 1.363 . S
C868 C873 1.379 . S
C868 N875 1.356 . S
C869 C868 1.363 . S
C869 C872 1.363 . S
N870 C872 1.356 . S
N870 H882 0.984 . S
N870 H883 0.985 . S
N871 C873 1.356 . S
N871 H876 0.984 . S
N871 H877 0.985 . S
C872 C866 1.379 . S
C872 C869 1.363 . S
C872 N870 1.356 . S
C873 C867 1.363 . S
C873 C868 1.379 . S
C873 N871 1.356 . S
N874 C866 1.356 . S
N874 H880 0.984 . S
N874 H881 0.984 . S
N875 C868 1.356 . S
N875 H878 0.984 . S
N875 H879 0.985 . S
H876 N871 0.984 . S
H877 N871 0.985 . S
H878 N875 0.984 . S
H879 N875 0.985 . S
H880 N874 0.984 . S
H881 N874 0.984 . S
H882 N870 0.984 . S
H883 N870 0.985 . S
C884 C885 1.363 . S
C884 C890 1.379 . S
C884 N892 1.356 . S
C885 C884 1.363 . S
C885 C891 1.363 . S
C886 C887 1.363 . S
C886 C891 1.379 . S
C886 N893 1.356 . S
C887 C886 1.363 . S
C887 C890 1.363 . S
N888 C890 1.356 . S
N888 H900 0.984 . S
N888 H901 0.985 . S
N889 C891 1.356 . S
N889 H894 0.984 . S
N889 H895 0.985 . S
C890 C884 1.379 . S
C890 C887 1.363 . S
C890 N888 1.356 . S
C891 C885 1.363 . S
C891 C886 1.379 . S
C891 N889 1.356 . S
N892 C884 1.356 . S
N892 H898 0.984 . S
N892 H899 0.984 . S
N893 C886 1.356 . S
N893 H896 0.984 . S
N893 H897 0.985 . S
H894 N889 0.984 . S
H895 N889 0.985 . S
H896 N893 0.984 . S
H897 N893 0.985 . S
H898 N892 0.984 . S
H899 N892 0.984 . S
H900 N888 0.984 . S
H901 N888 0.985 . S
C902 C903 1.363 . S
C902 C908 1.379 . S
C902 N910 1.356 . S
C903 C902 1.363 . S
C903 C909 1.363 . S
C904 C905 1.363 . S
C904 C909 1.379 . S
C904 N911 1.356 . S
C905 C904 1.363 . S
C905 C908 1.363 . S
N906 C908 1.356 . S
N906 H918 0.984 . S
N906 H919 0.985 . S
N907 C909 1.356 . S
N907 H912 0.984 . S
N907 H913 0.985 . S
C908 C902 1.379 . S
C908 C905 1.363 . S
C908 N906 1.356 . S
C909 C903 1.363 . S
C909 C904 1.379 . S
C909 N907 1.356 . S
N910 C902 1.356 . S
N910 H916 0.984 . S
N910 H917 0.984 . S
N911 C904 1.356 . S
N911 H914 0.984 . S
N911 H915 0.985 . S
H912 N907 0.984 . S
H913 N907 0.985 . S
H914 N911 0.984 . S
H915 N911 0.985 . S
H916 N910 0.984 . S
H917 N910 0.984 . S
H918 N906 0.984 . S
H919 N906 0.985 . S
C920 C921 1.363 . S
C920 C926 1.379 . S
C920 N928 1.356 . S
C921 C920 1.363 . S
C921 C927 1.363 . S
C922 C923 1.363 . S
C922 C927 1.379 . S
C922 N929 1.356 . S
C923 C922 1.363 . S
C923 C926 1.363 . S
N924 C926 1.356 . S
N924 H936 0.984 . S
N924 H937 0.985 . S
N925 C927 1.356 . S
N925 H930 0.984 . S
N925 H931 0.985 . S
C926 C920 1.379 . S
C926 C923 1.363 . S
C926 N924 1.356 . S
C927 C921 1.363 . S
C927 C922 1.379 . S
C927 N925 1.356 . S
N928 C920 1.356 . S
N928 H934 0.984 . S
N928 H935 0.984 . S
N929 C922 1.356 . S
N929 H932 0.984 . S
N929 H933 0.985 . S
H930 N925 0.984 . S
H931 N925 0.985 . S
H932 N929 0.984 . S
H933 N929 0.985 . S
H934 N928 0.984 . S
H935 N928 0.984 . S
H936 N924 0.984 . S
H937 N924 0.985 . S
C938 C939 1.363 . S
C938 C944 1.379 . S
C938 N946 1.356 . S
C939 C938 1.363 . S
C939 C945 1.363 . S
C940 C941 1.363 . S
C940 C945 1.379 . S
C940 N947 1.356 . S
C941 C940 1.363 . S
C941 C944 1.363 . S
N942 C944 1.356 . S
N942 H954 0.984 . S
N942 H955 0.985 . S
N943 C945 1.356 . S
N943 H948 0.984 . S
N943 H949 0.985 . S
C944 C938 1.379 . S
C944 C941 1.363 . S
C944 N942 1.356 . S
C945 C939 1.363 . S
C945 C940 1.379 . S
C945 N943 1.356 . S
N946 C938 1.356 . S
N946 H952 0.984 . S
N946 H953 0.984 . S
N947 C940 1.356 . S
N947 H950 0.984 . S
N947 H951 0.985 . S
H948 N943 0.984 . S
H949 N943 0.985 . S
H950 N947 0.984 . S
H951 N947 0.985 . S
H952 N946 0.984 . S
H953 N946 0.984 . S
H954 N942 0.984 . S
H955 N942 0.985 . S
C956 C957 1.363 . S
C956 C962 1.379 . S
C956 N964 1.356 . S
C957 C956 1.363 . S
C957 C963 1.363 . S
C958 C959 1.363 . S
C958 C963 1.379 . S
C958 N965 1.356 . S
C959 C958 1.363 . S
C959 C962 1.363 . S
N960 C962 1.356 . S
N960 H972 0.984 . S
N960 H973 0.985 . S
N961 C963 1.356 . S
N961 H966 0.984 . S
N961 H967 0.985 . S
C962 C956 1.379 . S
C962 C959 1.363 . S
C962 N960 1.356 . S
C963 C957 1.363 . S
C963 C958 1.379 . S
C963 N961 1.356 . S
N964 C956 1.356 . S
N964 H970 0.984 . S
N964 H971 0.984 . S
N965 C958 1.356 . S
N965 H968 0.984 . S
N965 H969 0.985 . S
H966 N961 0.984 . S
H967 N961 0.985 . S
H968 N965 0.984 . S
H969 N965 0.985 . S
H970 N964 0.984 . S
H971 N964 0.984 . S
H972 N960 0.984 . S
H973 N960 0.985 . S
C974 C975 1.363 . S
C974 C980 1.379 . S
C974 N982 1.356 . S
C975 C974 1.363 . S
C975 C981 1.363 . S
C976 C977 1.363 . S
C976 C981 1.379 . S
C976 N983 1.356 . S
C977 C976 1.363 . S
C977 C980 1.363 . S
N978 C980 1.356 . S
N978 H990 0.984 . S
N978 H991 0.985 . S
N979 C981 1.356 . S
N979 H984 0.984 . S
N979 H985 0.985 . S
C980 C974 1.379 . S
C980 C977 1.363 . S
C980 N978 1.356 . S
C981 C975 1.363 . S
C981 C976 1.379 . S
C981 N979 1.356 . S
N982 C974 1.356 . S
N982 H988 0.984 . S
N982 H989 0.984 . S
N983 C976 1.356 . S
N983 H986 0.984 . S
N983 H987 0.985 . S
H984 N979 0.984 . S
H985 N979 0.985 . S
H986 N983 0.984 . S
H987 N983 0.985 . S
H988 N982 0.984 . S
H989 N982 0.984 . S
H990 N978 0.984 . S
H991 N978 0.985 . S
C992 C993 1.363 . S
C992 C998 1.379 . S
C992 N1000 1.356 . S
C993 C992 1.363 . S
C993 C999 1.363 . S
C994 C995 1.363 . S
C994 C999 1.379 . S
C994 N1001 1.356 . S
C995 C994 1.363 . S
C995 C998 1.363 . S
N996 C998 1.356 . S
N996 H1008 0.984 . S
N996 H1009 0.985 . S
N997 C999 1.356 . S
N997 H1002 0.984 . S
N997 H1003 0.985 . S
C998 C992 1.379 . S
C998 C995 1.363 . S
C998 N996 1.356 . S
C999 C993 1.363 . S
C999 C994 1.379 . S
C999 N997 1.356 . S
N1000 C992 1.356 . S
N1000 H1006 0.984 . S
N1000 H1007 0.984 . S
N1001 C994 1.356 . S
N1001 H1004 0.984 . S
N1001 H1005 0.985 . S
H1002 N997 0.984 . S
H1003 N997 0.985 . S
H1004 N1001 0.984 . S
H1005 N1001 0.985 . S
H1006 N1000 0.984 . S
H1007 N1000 0.984 . S
H1008 N996 0.984 . S
H1009 N996 0.985 . S
C1010 C1011 1.363 . S
C1010 C1016 1.379 . S
C1010 N1018 1.356 . S
C1011 C1010 1.363 . S
C1011 C1017 1.363 . S
C1012 C1013 1.363 . S
C1012 C1017 1.379 . S
C1012 N1019 1.356 . S
C1013 C1012 1.363 . S
C1013 C1016 1.363 . S
N1014 C1016 1.356 . S
N1014 H1026 0.984 . S
N1014 H1027 0.985 . S
N1015 C1017 1.356 . S
N1015 H1020 0.984 . S
N1015 H1021 0.985 . S
C1016 C1010 1.379 . S
C1016 C1013 1.363 . S
C1016 N1014 1.356 . S
C1017 C1011 1.363 . S
C1017 C1012 1.379 . S
C1017 N1015 1.356 . S
N1018 C1010 1.356 . S
N1018 H1024 0.984 . S
N1018 H1025 0.984 . S
N1019 C1012 1.356 . S
N1019 H1022 0.984 . S
N1019 H1023 0.985 . S
H1020 N1015 0.984 . S
H1021 N1015 0.985 . S
H1022 N1019 0.984 . S
H1023 N1019 0.985 . S
H1024 N1018 0.984 . S
H1025 N1018 0.984 . S
H1026 N1014 0.984 . S
H1027 N1014 0.985 . S
C1028 C1029 1.363 . S
C1028 C1034 1.379 . S
C1028 N1036 1.356 . S
C1029 C1028 1.363 . S
C1029 C1035 1.363 . S
C1030 C1031 1.363 . S
C1030 C1035 1.379 . S
C1030 N1037 1.356 . S
C1031 C1030 1.363 . S
C1031 C1034 1.363 . S
N1032 C1034 1.356 . S
N1032 H1044 0.984 . S
N1032 H1045 0.985 . S
N1033 C1035 1.356 . S
N1033 H1038 0.984 . S
N1033 H1039 0.985 . S
C1034 C1028 1.379 . S
C1034 C1031 1.363 . S
C1034 N1032 1.356 . S
C1035 C1029 1.363 . S
C1035 C1030 1.379 . S
C1035 N1033 1.356 . S
N1036 C1028 1.356 . S
N1036 H1042 0.984 . S
N1036 H1043 0.984 . S
N1037 C1030 1.356 . S
N1037 H1040 0.984 . S
N1037 H1041 0.985 . S
H1038 N1033 0.984 . S
H1039 N1033 0.985 . S
H1040 N1037 0.984 . S
H1041 N1037 0.985 . S
H1042 N1036 0.984 . S
H1043 N1036 0.984 . S
H1044 N1032 0.984 . S
H1045 N1032 0.985 . S
C1046 C1047 1.363 . S
C1046 C1052 1.379 . S
C1046 N1054 1.356 . S
C1047 C1046 1.363 . S
C1047 C1053 1.363 . S
C1048 C1049 1.363 . S
C1048 C1053 1.379 . S
C1048 N1055 1.356 . S
C1049 C1048 1.363 . S
C1049 C1052 1.363 . S
N1050 C1052 1.356 . S
N1050 H1062 0.984 . S
N1050 H1063 0.985 . S
N1051 C1053 1.356 . S
N1051 H1056 0.984 . S
N1051 H1057 0.985 . S
C1052 C1046 1.379 . S
C1052 C1049 1.363 . S
C1052 N1050 1.356 . S
C1053 C1047 1.363 . S
C1053 C1048 1.379 . S
C1053 N1051 1.356 . S
N1054 C1046 1.356 . S
N1054 H1060 0.984 . S
N1054 H1061 0.984 . S
N1055 C1048 1.356 . S
N1055 H1058 0.984 . S
N1055 H1059 0.985 . S
H1056 N1051 0.984 . S
H1057 N1051 0.985 . S
H1058 N1055 0.984 . S
H1059 N1055 0.985 . S
H1060 N1054 0.984 . S
H1061 N1054 0.984 . S
H1062 N1050 0.984 . S
H1063 N1050 0.985 . S
C1064 C1065 1.363 . S
C1064 C1070 1.379 . S
C1064 N1072 1.356 . S
C1065 C1064 1.363 . S
C1065 C1071 1.363 . S
C1066 C1067 1.363 . S
C1066 C1071 1.379 . S
C1066 N1073 1.356 . S
C1067 C1066 1.363 . S
C1067 C1070 1.363 . S
N1068 C1070 1.356 . S
N1068 H1080 0.984 . S
N1068 H1081 0.985 . S
N1069 C1071 1.356 . S
N1069 H1074 0.984 . S
N1069 H1075 0.985 . S
C1070 C1064 1.379 . S
C1070 C1067 1.363 . S
C1070 N1068 1.356 . S
C1071 C1065 1.363 . S
C1071 C1066 1.379 . S
C1071 N1069 1.356 . S
N1072 C1064 1.356 . S
N1072 H1078 0.984 . S
N1072 H1079 0.984 . S
N1073 C1066 1.356 . S
N1073 H1076 0.984 . S
N1073 H1077 0.985 . S
H1074 N1069 0.984 . S
H1075 N1069 0.985 . S
H1076 N1073 0.984 . S
H1077 N1073 0.985 . S
H1078 N1072 0.984 . S
H1079 N1072 0.984 . S
H1080 N1068 0.984 . S
H1081 N1068 0.985 . S
C1082 C1083 1.363 . S
C1082 C1088 1.379 . S
C1082 N1090 1.356 . S
C1083 C1082 1.363 . S
C1083 C1089 1.363 . S
C1084 C1085 1.363 . S
C1084 C1089 1.379 . S
C1084 N1091 1.356 . S
C1085 C1084 1.363 . S
C1085 C1088 1.363 . S
N1086 C1088 1.356 . S
N1086 H1098 0.984 . S
N1086 H1099 0.985 . S
N1087 C1089 1.356 . S
N1087 H1092 0.984 . S
N1087 H1093 0.985 . S
C1088 C1082 1.379 . S
C1088 C1085 1.363 . S
C1088 N1086 1.356 . S
C1089 C1083 1.363 . S
C1089 C1084 1.379 . S
C1089 N1087 1.356 . S
N1090 C1082 1.356 . S
N1090 H1096 0.984 . S
N1090 H1097 0.984 . S
N1091 C1084 1.356 . S
N1091 H1094 0.984 . S
N1091 H1095 0.985 . S
H1092 N1087 0.984 . S
H1093 N1087 0.985 . S
H1094 N1091 0.984 . S
H1095 N1091 0.985 . S
H1096 N1090 0.984 . S
H1097 N1090 0.984 . S
H1098 N1086 0.984 . S
H1099 N1086 0.985 . S
C1100 C1101 1.363 . S
C1100 C1106 1.379 . S
C1100 N1108 1.356 . S
C1101 C1100 1.363 . S
C1101 C1107 1.363 . S
C1102 C1103 1.363 . S
C1102 C1107 1.379 . S
C1102 N1109 1.356 . S
C1103 C1102 1.363 . S
C1103 C1106 1.363 . S
N1104 C1106 1.356 . S
N1104 H1116 0.984 . S
N1104 H1117 0.985 . S
N1105 C1107 1.356 . S
N1105 H1110 0.984 . S
N1105 H1111 0.985 . S
C1106 C1100 1.379 . S
C1106 C1103 1.363 . S
C1106 N1104 1.356 . S
C1107 C1101 1.363 . S
C1107 C1102 1.379 . S
C1107 N1105 1.356 . S
N1108 C1100 1.356 . S
N1108 H1114 0.984 . S
N1108 H1115 0.984 . S
N1109 C1102 1.356 . S
N1109 H1112 0.984 . S
N1109 H1113 0.985 . S
H1110 N1105 0.984 . S
H1111 N1105 0.985 . S
H1112 N1109 0.984 . S
H1113 N1109 0.985 . S
H1114 N1108 0.984 . S
H1115 N1108 0.984 . S
H1116 N1104 0.984 . S
H1117 N1104 0.985 . S
C1118 C1119 1.363 . S
C1118 C1124 1.379 . S
C1118 N1126 1.356 . S
C1119 C1118 1.363 . S
C1119 C1125 1.363 . S
C1120 C1121 1.363 . S
C1120 C1125 1.379 . S
C1120 N1127 1.356 . S
C1121 C1120 1.363 . S
C1121 C1124 1.363 . S
N1122 C1124 1.356 . S
N1122 H1134 0.984 . S
N1122 H1135 0.985 . S
N1123 C1125 1.356 . S
N1123 H1128 0.984 . S
N1123 H1129 0.985 . S
C1124 C1118 1.379 . S
C1124 C1121 1.363 . S
C1124 N1122 1.356 . S
C1125 C1119 1.363 . S
C1125 C1120 1.379 . S
C1125 N1123 1.356 . S
N1126 C1118 1.356 . S
N1126 H1132 0.984 . S
N1126 H1133 0.984 . S
N1127 C1120 1.356 . S
N1127 H1130 0.984 . S
N1127 H1131 0.985 . S
H1128 N1123 0.984 . S
H1129 N1123 0.985 . S
H1130 N1127 0.984 . S
H1131 N1127 0.985 . S
H1132 N1126 0.984 . S
H1133 N1126 0.984 . S
H1134 N1122 0.984 . S
H1135 N1122 0.985 . S
C1136 C1137 1.363 . S
C1136 C1142 1.379 . S
C1136 N1144 1.356 . S
C1137 C1136 1.363 . S
C1137 C1143 1.363 . S
C1138 C1139 1.363 . S
C1138 C1143 1.379 . S
C1138 N1145 1.356 . S
C1139 C1138 1.363 . S
C1139 C1142 1.363 . S
N1140 C1142 1.356 . S
N1140 H1152 0.984 . S
N1140 H1153 0.985 . S
N1141 C1143 1.356 . S
N1141 H1146 0.984 . S
N1141 H1147 0.985 . S
C1142 C1136 1.379 . S
C1142 C1139 1.363 . S
C1142 N1140 1.356 . S
C1143 C1137 1.363 . S
C1143 C1138 1.379 . S
C1143 N1141 1.356 . S
N1144 C1136 1.356 . S
N1144 H1150 0.984 . S
N1144 H1151 0.984 . S
N1145 C1138 1.356 . S
N1145 H1148 0.984 . S
N1145 H1149 0.985 . S
H1146 N1141 0.984 . S
H1147 N1141 0.985 . S
H1148 N1145 0.984 . S
H1149 N1145 0.985 . S
H1150 N1144 0.984 . S
H1151 N1144 0.984 . S
H1152 N1140 0.984 . S
H1153 N1140 0.985 . S
C1154 C1155 1.363 . S
C1154 C1160 1.379 . S
C1154 N1162 1.356 . S
C1155 C1154 1.363 . S
C1155 C1161 1.363 . S
C1156 C1157 1.363 . S
C1156 C1161 1.379 . S
C1156 N1163 1.356 . S
C1157 C1156 1.363 . S
C1157 C1160 1.363 . S
N1158 C1160 1.356 . S
N1158 H1170 0.984 . S
N1158 H1171 0.985 . S
N1159 C1161 1.356 . S
N1159 H1164 0.984 . S
N1159 H1165 0.985 . S
C1160 C1154 1.379 . S
C1160 C1157 1.363 . S
C1160 N1158 1.356 . S
C1161 C1155 1.363 . S
C1161 C1156 1.379 . S
C1161 N1159 1.356 . S
N1162 C1154 1.356 . S
N1162 H1168 0.984 . S
N1162 H1169 0.984 . S
N1163 C1156 1.356 . S
N1163 H1166 0.984 . S
N1163 H1167 0.985 . S
H1164 N1159 0.984 . S
H1165 N1159 0.985 . S
H1166 N1163 0.984 . S
H1167 N1163 0.985 . S
H1168 N1162 0.984 . S
H1169 N1162 0.984 . S
H1170 N1158 0.984 . S
H1171 N1158 0.985 . S
C1172 C1173 1.363 . S
C1172 C1178 1.379 . S
C1172 N1180 1.356 . S
C1173 C1172 1.363 . S
C1173 C1179 1.363 . S
C1174 C1175 1.363 . S
C1174 C1179 1.379 . S
C1174 N1181 1.356 . S
C1175 C1174 1.363 . S
C1175 C1178 1.363 . S
N1176 C1178 1.356 . S
N1176 H1188 0.984 . S
N1176 H1189 0.985 . S
N1177 C1179 1.356 . S
N1177 H1182 0.984 . S
N1177 H1183 0.985 . S
C1178 C1172 1.379 . S
C1178 C1175 1.363 . S
C1178 N1176 1.356 . S
C1179 C1173 1.363 . S
C1179 C1174 1.379 . S
C1179 N1177 1.356 . S
N1180 C1172 1.356 . S
N1180 H1186 0.984 . S
N1180 H1187 0.984 . S
N1181 C1174 1.356 . S
N1181 H1184 0.984 . S
N1181 H1185 0.985 . S
H1182 N1177 0.984 . S
H1183 N1177 0.985 . S
H1184 N1181 0.984 . S
H1185 N1181 0.985 . S
H1186 N1180 0.984 . S
H1187 N1180 0.984 . S
H1188 N1176 0.984 . S
H1189 N1176 0.985 . S
C1190 C1191 1.363 . S
C1190 C1196 1.379 . S
C1190 N1198 1.356 . S
C1191 C1190 1.363 . S
C1191 C1197 1.363 . S
C1192 C1193 1.363 . S
C1192 C1197 1.379 . S
C1192 N1199 1.356 . S
C1193 C1192 1.363 . S
C1193 C1196 1.363 . S
N1194 C1196 1.356 . S
N1194 H1206 0.984 . S
N1194 H1207 0.985 . S
N1195 C1197 1.356 . S
N1195 H1200 0.984 . S
N1195 H1201 0.985 . S
C1196 C1190 1.379 . S
C1196 C1193 1.363 . S
C1196 N1194 1.356 . S
C1197 C1191 1.363 . S
C1197 C1192 1.379 . S
C1197 N1195 1.356 . S
N1198 C1190 1.356 . S
N1198 H1204 0.984 . S
N1198 H1205 0.984 . S
N1199 C1192 1.356 . S
N1199 H1202 0.984 . S
N1199 H1203 0.985 . S
H1200 N1195 0.984 . S
H1201 N1195 0.985 . S
H1202 N1199 0.984 . S
H1203 N1199 0.985 . S
H1204 N1198 0.984 . S
H1205 N1198 0.984 . S
H1206 N1194 0.984 . S
H1207 N1194 0.985 . S
C1208 C1209 1.363 . S
C1208 C1214 1.379 . S
C1208 N1216 1.356 . S
C1209 C1208 1.363 . S
C1209 C1215 1.363 . S
C1210 C1211 1.363 . S
C1210 C1215 1.379 . S
C1210 N1217 1.356 . S
C1211 C1210 1.363 . S
C1211 C1214 1.363 . S
N1212 C1214 1.356 . S
N1212 H1224 0.984 . S
N1212 H1225 0.985 . S
N1213 C1215 1.356 . S
N1213 H1218 0.984 . S
N1213 H1219 0.985 . S
C1214 C1208 1.379 . S
C1214 C1211 1.363 . S
C1214 N1212 1.356 . S
C1215 C1209 1.363 . S
C1215 C1210 1.379 . S
C1215 N1213 1.356 . S
N1216 C1208 1.356 . S
N1216 H1222 0.984 . S
N1216 H1223 0.984 . S
N1217 C1210 1.356 . S
N1217 H1220 0.984 . S
N1217 H1221 0.985 . S
H1218 N1213 0.984 . S
H1219 N1213 0.985 . S
H1220 N1217 0.984 . S
H1221 N1217 0.985 . S
H1222 N1216 0.984 . S
H1223 N1216 0.984 . S
H1224 N1212 0.984 . S
H1225 N1212 0.985 . S
C1226 C1227 1.363 . S
C1226 C1232 1.379 . S
C1226 N1234 1.356 . S
C1227 C1226 1.363 . S
C1227 C1233 1.363 . S
C1228 C1229 1.363 . S
C1228 C1233 1.379 . S
C1228 N1235 1.356 . S
C1229 C1228 1.363 . S
C1229 C1232 1.363 . S
N1230 C1232 1.356 . S
N1230 H1242 0.984 . S
N1230 H1243 0.985 . S
N1231 C1233 1.356 . S
N1231 H1236 0.984 . S
N1231 H1237 0.985 . S
C1232 C1226 1.379 . S
C1232 C1229 1.363 . S
C1232 N1230 1.356 . S
C1233 C1227 1.363 . S
C1233 C1228 1.379 . S
C1233 N1231 1.356 . S
N1234 C1226 1.356 . S
N1234 H1240 0.984 . S
N1234 H1241 0.984 . S
N1235 C1228 1.356 . S
N1235 H1238 0.984 . S
N1235 H1239 0.985 . S
H1236 N1231 0.984 . S
H1237 N1231 0.985 . S
H1238 N1235 0.984 . S
H1239 N1235 0.985 . S
H1240 N1234 0.984 . S
H1241 N1234 0.984 . S
H1242 N1230 0.984 . S
H1243 N1230 0.985 . S
C1244 C1245 1.363 . S
C1244 C1250 1.379 . S
C1244 N1252 1.356 . S
C1245 C1244 1.363 . S
C1245 C1251 1.363 . S
C1246 C1247 1.363 . S
C1246 C1251 1.379 . S
C1246 N1253 1.356 . S
C1247 C1246 1.363 . S
C1247 C1250 1.363 . S
N1248 C1250 1.356 . S
N1248 H1260 0.984 . S
N1248 H1261 0.985 . S
N1249 C1251 1.356 . S
N1249 H1254 0.984 . S
N1249 H1255 0.985 . S
C1250 C1244 1.379 . S
C1250 C1247 1.363 . S
C1250 N1248 1.356 . S
C1251 C1245 1.363 . S
C1251 C1246 1.379 . S
C1251 N1249 1.356 . S
N1252 C1244 1.356 . S
N1252 H1258 0.984 . S
N1252 H1259 0.984 . S
N1253 C1246 1.356 . S
N1253 H1256 0.984 . S
N1253 H1257 0.985 . S
H1254 N1249 0.984 . S
H1255 N1249 0.985 . S
H1256 N1253 0.984 . S
H1257 N1253 0.985 . S
H1258 N1252 0.984 . S
H1259 N1252 0.984 . S
H1260 N1248 0.984 . S
H1261 N1248 0.985 . S
C1262 C1263 1.363 . S
C1262 C1268 1.379 . S
C1262 N1270 1.356 . S
C1263 C1262 1.363 . S
C1263 C1269 1.363 . S
C1264 C1265 1.363 . S
C1264 C1269 1.379 . S
C1264 N1271 1.356 . S
C1265 C1264 1.363 . S
C1265 C1268 1.363 . S
N1266 C1268 1.356 . S
N1266 H1278 0.984 . S
N1266 H1279 0.985 . S
N1267 C1269 1.356 . S
N1267 H1272 0.984 . S
N1267 H1273 0.985 . S
C1268 C1262 1.379 . S
C1268 C1265 1.363 . S
C1268 N1266 1.356 . S
C1269 C1263 1.363 . S
C1269 C1264 1.379 . S
C1269 N1267 1.356 . S
N1270 C1262 1.356 . S
N1270 H1276 0.984 . S
N1270 H1277 0.984 . S
N1271 C1264 1.356 . S
N1271 H1274 0.984 . S
N1271 H1275 0.985 . S
H1272 N1267 0.984 . S
H1273 N1267 0.985 . S
H1274 N1271 0.984 . S
H1275 N1271 0.985 . S
H1276 N1270 0.984 . S
H1277 N1270 0.984 . S
H1278 N1266 0.984 . S
H1279 N1266 0.985 . S
C1280 C1281 1.363 . S
C1280 C1286 1.379 . S
C1280 N1288 1.356 . S
C1281 C1280 1.363 . S
C1281 C1287 1.363 . S
C1282 C1283 1.363 . S
C1282 C1287 1.379 . S
C1282 N1289 1.356 . S
C1283 C1282 1.363 . S
C1283 C1286 1.363 . S
N1284 C1286 1.356 . S
N1284 H1296 0.984 . S
N1284 H1297 0.985 . S
N1285 C1287 1.356 . S
N1285 H1290 0.984 . S
N1285 H1291 0.985 . S
C1286 C1280 1.379 . S
C1286 C1283 1.363 . S
C1286 N1284 1.356 . S
C1287 C1281 1.363 . S
C1287 C1282 1.379 . S
C1287 N1285 1.356 . S
N1288 C1280 1.356 . S
N1288 H1294 0.984 . S
N1288 H1295 0.984 . S
N1289 C1282 1.356 . S
N1289 H1292 0.984 . S
N1289 H1293 0.985 . S
H1290 N1285 0.984 . S
H1291 N1285 0.985 . S
H1292 N1289 0.984 . S
H1293 N1289 0.985 . S
H1294 N1288 0.984 . S
H1295 N1288 0.984 . S
H1296 N1284 0.984 . S
H1297 N1284 0.985 . S
C1298 C1299 1.363 . S
C1298 C1304 1.379 . S
C1298 N1306 1.356 . S
C1299 C1298 1.363 . S
C1299 C1305 1.363 . S
C1300 C1301 1.363 . S
C1300 C1305 1.379 . S
C1300 N1307 1.356 . S
C1301 C1300 1.363 . S
C1301 C1304 1.363 . S
N1302 C1304 1.356 . S
N1302 H1314 0.984 . S
N1302 H1315 0.985 . S
N1303 C1305 1.356 . S
N1303 H1308 0.984 . S
N1303 H1309 0.985 . S
C1304 C1298 1.379 . S
C1304 C1301 1.363 . S
C1304 N1302 1.356 . S
C1305 C1299 1.363 . S
C1305 C1300 1.379 . S
C1305 N1303 1.356 . S
N1306 C1298 1.356 . S
N1306 H1312 0.984 . S
N1306 H1313 0.984 . S
N1307 C1300 1.356 . S
N1307 H1310 0.984 . S
N1307 H1311 0.985 . S
H1308 N1303 0.984 . S
H1309 N1303 0.985 . S
H1310 N1307 0.984 . S
H1311 N1307 0.985 . S
H1312 N1306 0.984 . S
H1313 N1306 0.984 . S
H1314 N1302 0.984 . S
H1315 N1302 0.985 . S
C1316 C1317 1.363 . S
C1316 C1322 1.379 . S
C1316 N1324 1.356 . S
C1317 C1316 1.363 . S
C1317 C1323 1.363 . S
C1318 C1319 1.363 . S
C1318 C1323 1.379 . S
C1318 N1325 1.356 . S
C1319 C1318 1.363 . S
C1319 C1322 1.363 . S
N1320 C1322 1.356 . S
N1320 H1332 0.984 . S
N1320 H1333 0.985 . S
N1321 C1323 1.356 . S
N1321 H1326 0.984 . S
N1321 H1327 0.985 . S
C1322 C1316 1.379 . S
C1322 C1319 1.363 . S
C1322 N1320 1.356 . S
C1323 C1317 1.363 . S
C1323 C1318 1.379 . S
C1323 N1321 1.356 . S
N1324 C1316 1.356 . S
N1324 H1330 0.984 . S
N1324 H1331 0.984 . S
N1325 C1318 1.356 . S
N1325 H1328 0.984 . S
N1325 H1329 0.985 . S
H1326 N1321 0.984 . S
H1327 N1321 0.985 . S
H1328 N1325 0.984 . S
H1329 N1325 0.985 . S
H1330 N1324 0.984 . S
H1331 N1324 0.984 . S
H1332 N1320 0.984 . S
H1333 N1320 0.985 . S
C1334 C1335 1.363 . S
C1334 C1340 1.379 . S
C1334 N1342 1.356 . S
C1335 C1334 1.363 . S
C1335 C1341 1.363 . S
C1336 C1337 1.363 . S
C1336 C1341 1.379 . S
C1336 N1343 1.356 . S
C1337 C1336 1.363 . S
C1337 C1340 1.363 . S
N1338 C1340 1.356 . S
N1338 H1350 0.984 . S
N1338 H1351 0.985 . S
N1339 C1341 1.356 . S
N1339 H1344 0.984 . S
N1339 H1345 0.985 . S
C1340 C1334 1.379 . S
C1340 C1337 1.363 . S
C1340 N1338 1.356 . S
C1341 C1335 1.363 . S
C1341 C1336 1.379 . S
C1341 N1339 1.356 . S
N1342 C1334 1.356 . S
N1342 H1348 0.984 . S
N1342 H1349 0.984 . S
N1343 C1336 1.356 . S
N1343 H1346 0.984 . S
N1343 H1347 0.985 . S
H1344 N1339 0.984 . S
H1345 N1339 0.985 . S
H1346 N1343 0.984 . S
H1347 N1343 0.985 . S
H1348 N1342 0.984 . S
H1349 N1342 0.984 . S
H1350 N1338 0.984 . S
H1351 N1338 0.985 . S
C1352 C1353 1.363 . S
C1352 C1358 1.379 . S
C1352 N1360 1.356 . S
C1353 C1352 1.363 . S
C1353 C1359 1.363 . S
C1354 C1355 1.363 . S
C1354 C1359 1.379 . S
C1354 N1361 1.356 . S
C1355 C1354 1.363 . S
C1355 C1358 1.363 . S
N1356 C1358 1.356 . S
N1356 H1368 0.984 . S
N1356 H1369 0.985 . S
N1357 C1359 1.356 . S
N1357 H1362 0.984 . S
N1357 H1363 0.985 . S
C1358 C1352 1.379 . S
C1358 C1355 1.363 . S
C1358 N1356 1.356 . S
C1359 C1353 1.363 . S
C1359 C1354 1.379 . S
C1359 N1357 1.356 . S
N1360 C1352 1.356 . S
N1360 H1366 0.984 . S
N1360 H1367 0.984 . S
N1361 C1354 1.356 . S
N1361 H1364 0.984 . S
N1361 H1365 0.985 . S
H1362 N1357 0.984 . S
H1363 N1357 0.985 . S
H1364 N1361 0.984 . S
H1365 N1361 0.985 . S
H1366 N1360 0.984 . S
H1367 N1360 0.984 . S
H1368 N1356 0.984 . S
H1369 N1356 0.985 . S
C1370 C1371 1.363 . S
C1370 C1376 1.379 . S
C1370 N1378 1.356 . S
C1371 C1370 1.363 . S
C1371 C1377 1.363 . S
C1372 C1373 1.363 . S
C1372 C1377 1.379 . S
C1372 N1379 1.356 . S
C1373 C1372 1.363 . S
C1373 C1376 1.363 . S
N1374 C1376 1.356 . S
N1374 H1386 0.984 . S
N1374 H1387 0.985 . S
N1375 C1377 1.356 . S
N1375 H1380 0.984 . S
N1375 H1381 0.985 . S
C1376 C1370 1.379 . S
C1376 C1373 1.363 . S
C1376 N1374 1.356 . S
C1377 C1371 1.363 . S
C1377 C1372 1.379 . S
C1377 N1375 1.356 . S
N1378 C1370 1.356 . S
N1378 H1384 0.984 . S
N1378 H1385 0.984 . S
N1379 C1372 1.356 . S
N1379 H1382 0.984 . S
N1379 H1383 0.985 . S
H1380 N1375 0.984 . S
H1381 N1375 0.985 . S
H1382 N1379 0.984 . S
H1383 N1379 0.985 . S
H1384 N1378 0.984 . S
H1385 N1378 0.984 . S
H1386 N1374 0.984 . S
H1387 N1374 0.985 . S
C1388 C1389 1.363 . S
C1388 C1394 1.379 . S
C1388 N1396 1.356 . S
C1389 C1388 1.363 . S
C1389 C1395 1.363 . S
C1390 C1391 1.363 . S
C1390 C1395 1.379 . S
C1390 N1397 1.356 . S
C1391 C1390 1.363 . S
C1391 C1394 1.363 . S
N1392 C1394 1.356 . S
N1392 H1404 0.984 . S
N1392 H1405 0.985 . S
N1393 C1395 1.356 . S
N1393 H1398 0.984 . S
N1393 H1399 0.985 . S
C1394 C1388 1.379 . S
C1394 C1391 1.363 . S
C1394 N1392 1.356 . S
C1395 C1389 1.363 . S
C1395 C1390 1.379 . S
C1395 N1393 1.356 . S
N1396 C1388 1.356 . S
N1396 H1402 0.984 . S
N1396 H1403 0.984 . S
N1397 C1390 1.356 . S
N1397 H1400 0.984 . S
N1397 H1401 0.985 . S
H1398 N1393 0.984 . S
H1399 N1393 0.985 . S
H1400 N1397 0.984 . S
H1401 N1397 0.985 . S
H1402 N1396 0.984 . S
H1403 N1396 0.984 . S
H1404 N1392 0.984 . S
H1405 N1392 0.985 . S
C1406 C1407 1.363 . S
C1406 C1412 1.379 . S
C1406 N1414 1.356 . S
C1407 C1406 1.363 . S
C1407 C1413 1.363 . S
C1408 C1409 1.363 . S
C1408 C1413 1.379 . S
C1408 N1415 1.356 . S
C1409 C1408 1.363 . S
C1409 C1412 1.363 . S
N1410 C1412 1.356 . S
N1410 H1422 0.984 . S
N1410 H1423 0.985 . S
N1411 C1413 1.356 . S
N1411 H1416 0.984 . S
N1411 H1417 0.985 . S
C1412 C1406 1.379 . S
C1412 C1409 1.363 . S
C1412 N1410 1.356 . S
C1413 C1407 1.363 . S
C1413 C1408 1.379 . S
C1413 N1411 1.356 . S
N1414 C1406 1.356 . S
N1414 H1420 0.984 . S
N1414 H1421 0.984 . S
N1415 C1408 1.356 . S
N1415 H1418 0.984 . S
N1415 H1419 0.985 . S
H1416 N1411 0.984 . S
H1417 N1411 0.985 . S
H1418 N1415 0.984 . S
H1419 N1415 0.985 . S
H1420 N1414 0.984 . S
H1421 N1414 0.984 . S
H1422 N1410 0.984 . S
H1423 N1410 0.985 . S
C1424 C1425 1.363 . S
C1424 C1430 1.379 . S
C1424 N1432 1.356 . S
C1425 C1424 1.363 . S
C1425 C1431 1.363 . S
C1426 C1427 1.363 . S
C1426 C1431 1.379 . S
C1426 N1433 1.356 . S
C1427 C1426 1.363 . S
C1427 C1430 1.363 . S
N1428 C1430 1.356 . S
N1428 H1440 0.984 . S
N1428 H1441 0.985 . S
N1429 C1431 1.356 . S
N1429 H1434 0.984 . S
N1429 H1435 0.985 . S
C1430 C1424 1.379 . S
C1430 C1427 1.363 . S
C1430 N1428 1.356 . S
C1431 C1425 1.363 . S
C1431 C1426 1.379 . S
C1431 N1429 1.356 . S
N1432 C1424 1.356 . S
N1432 H1438 0.984 . S
N1432 H1439 0.984 . S
N1433 C1426 1.356 . S
N1433 H1436 0.984 . S
N1433 H1437 0.985 . S
H1434 N1429 0.984 . S
H1435 N1429 0.985 . S
H1436 N1433 0.984 . S
H1437 N1433 0.985 . S
H1438 N1432 0.984 . S
H1439 N1432 0.984 . S
H1440 N1428 0.984 . S
H1441 N1428 0.985 . S
C1442 C1443 1.363 . S
C1442 C1448 1.379 . S
C1442 N1450 1.356 . S
C1443 C1442 1.363 . S
C1443 C1449 1.363 . S
C1444 C1445 1.363 . S
C1444 C1449 1.379 . S
C1444 N1451 1.356 . S
C1445 C1444 1.363 . S
C1445 C1448 1.363 . S
N1446 C1448 1.356 . S
N1446 H1458 0.984 . S
N1446 H1459 0.985 . S
N1447 C1449 1.356 . S
N1447 H1452 0.984 . S
N1447 H1453 0.985 . S
C1448 C1442 1.379 . S
C1448 C1445 1.363 . S
C1448 N1446 1.356 . S
C1449 C1443 1.363 . S
C1449 C1444 1.379 . S
C1449 N1447 1.356 . S
N1450 C1442 1.356 . S
N1450 H1456 0.984 . S
N1450 H1457 0.984 . S
N1451 C1444 1.356 . S
N1451 H1454 0.984 . S
N1451 H1455 0.985 . S
H1452 N1447 0.984 . S
H1453 N1447 0.985 . S
H1454 N1451 0.984 . S
H1455 N1451 0.985 . S
H1456 N1450 0.984 . S
H1457 N1450 0.984 . S
H1458 N1446 0.984 . S
H1459 N1446 0.985 . S
C1460 C1461 1.363 . S
C1460 C1466 1.379 . S
C1460 N1468 1.356 . S
C1461 C1460 1.363 . S
C1461 C1467 1.363 . S
C1462 C1463 1.363 . S
C1462 C1467 1.379 . S
C1462 N1469 1.356 . S
C1463 C1462 1.363 . S
C1463 C1466 1.363 . S
N1464 C1466 1.356 . S
N1464 H1476 0.984 . S
N1464 H1477 0.985 . S
N1465 C1467 1.356 . S
N1465 H1470 0.984 . S
N1465 H1471 0.985 . S
C1466 C1460 1.379 . S
C1466 C1463 1.363 . S
C1466 N1464 1.356 . S
C1467 C1461 1.363 . S
C1467 C1462 1.379 . S
C1467 N1465 1.356 . S
N1468 C1460 1.356 . S
N1468 H1474 0.984 . S
N1468 H1475 0.984 . S
N1469 C1462 1.356 . S
N1469 H1472 0.984 . S
N1469 H1473 0.985 . S
H1470 N1465 0.984 . S
H1471 N1465 0.985 . S
H1472 N1469 0.984 . S
H1473 N1469 0.985 . S
H1474 N1468 0.984 . S
H1475 N1468 0.984 . S
H1476 N1464 0.984 . S
H1477 N1464 0.985 . S
C1478 C1479 1.363 . S
C1478 C1484 1.379 . S
C1478 N1486 1.356 . S
C1479 C1478 1.363 . S
C1479 C1485 1.363 . S
C1480 C1481 1.363 . S
C1480 C1485 1.379 . S
C1480 N1487 1.356 . S
C1481 C1480 1.363 . S
C1481 C1484 1.363 . S
N1482 C1484 1.356 . S
N1482 H1494 0.984 . S
N1482 H1495 0.985 . S
N1483 C1485 1.356 . S
N1483 H1488 0.984 . S
N1483 H1489 0.985 . S
C1484 C1478 1.379 . S
C1484 C1481 1.363 . S
C1484 N1482 1.356 . S
C1485 C1479 1.363 . S
C1485 C1480 1.379 . S
C1485 N1483 1.356 . S
N1486 C1478 1.356 . S
N1486 H1492 0.984 . S
N1486 H1493 0.984 . S
N1487 C1480 1.356 . S
N1487 H1490 0.984 . S
N1487 H1491 0.985 . S
H1488 N1483 0.984 . S
H1489 N1483 0.985 . S
H1490 N1487 0.984 . S
H1491 N1487 0.985 . S
H1492 N1486 0.984 . S
H1493 N1486 0.984 . S
H1494 N1482 0.984 . S
H1495 N1482 0.985 . S
C1496 C1497 1.363 . S
C1496 C1502 1.379 . S
C1496 N1504 1.356 . S
C1497 C1496 1.363 . S
C1497 C1503 1.363 . S
C1498 C1499 1.363 . S
C1498 C1503 1.379 . S
C1498 N1505 1.356 . S
C1499 C1498 1.363 . S
C1499 C1502 1.363 . S
N1500 C1502 1.356 . S
N1500 H1512 0.984 . S
N1500 H1513 0.985 . S
N1501 C1503 1.356 . S
N1501 H1506 0.984 . S
N1501 H1507 0.985 . S
C1502 C1496 1.379 . S
C1502 C1499 1.363 . S
C1502 N1500 1.356 . S
C1503 C1497 1.363 . S
C1503 C1498 1.379 . S
C1503 N1501 1.356 . S
N1504 C1496 1.356 . S
N1504 H1510 0.984 . S
N1504 H1511 0.984 . S
N1505 C1498 1.356 . S
N1505 H1508 0.984 . S
N1505 H1509 0.985 . S
H1506 N1501 0.984 . S
H1507 N1501 0.985 . S
H1508 N1505 0.984 . S
H1509 N1505 0.985 . S
H1510 N1504 0.984 . S
H1511 N1504 0.984 . S
H1512 N1500 0.984 . S
H1513 N1500 0.985 . S
C1514 C1515 1.363 . S
C1514 C1520 1.379 . S
C1514 N1522 1.356 . S
C1515 C1514 1.363 . S
C1515 C1521 1.363 . S
C1516 C1517 1.363 . S
C1516 C1521 1.379 . S
C1516 N1523 1.356 . S
C1517 C1516 1.363 . S
C1517 C1520 1.363 . S
N1518 C1520 1.356 . S
N1518 H1530 0.984 . S
N1518 H1531 0.985 . S
N1519 C1521 1.356 . S
N1519 H1524 0.984 . S
N1519 H1525 0.985 . S
C1520 C1514 1.379 . S
C1520 C1517 1.363 . S
C1520 N1518 1.356 . S
C1521 C1515 1.363 . S
C1521 C1516 1.379 . S
C1521 N1519 1.356 . S
N1522 C1514 1.356 . S
N1522 H1528 0.984 . S
N1522 H1529 0.984 . S
N1523 C1516 1.356 . S
N1523 H1526 0.984 . S
N1523 H1527 0.985 . S
H1524 N1519 0.984 . S
H1525 N1519 0.985 . S
H1526 N1523 0.984 . S
H1527 N1523 0.985 . S
H1528 N1522 0.984 . S
H1529 N1522 0.984 . S
H1530 N1518 0.984 . S
H1531 N1518 0.985 . S
C1532 C1533 1.363 . S
C1532 C1538 1.379 . S
C1532 N1540 1.356 . S
C1533 C1532 1.363 . S
C1533 C1539 1.363 . S
C1534 C1535 1.363 . S
C1534 C1539 1.379 . S
C1534 N1541 1.356 . S
C1535 C1534 1.363 . S
C1535 C1538 1.363 . S
N1536 C1538 1.356 . S
N1536 H1548 0.984 . S
N1536 H1549 0.985 . S
N1537 C1539 1.356 . S
N1537 H1542 0.984 . S
N1537 H1543 0.985 . S
C1538 C1532 1.379 . S
C1538 C1535 1.363 . S
C1538 N1536 1.356 . S
C1539 C1533 1.363 . S
C1539 C1534 1.379 . S
C1539 N1537 1.356 . S
N1540 C1532 1.356 . S
N1540 H1546 0.984 . S
N1540 H1547 0.984 . S
N1541 C1534 1.356 . S
N1541 H1544 0.984 . S
N1541 H1545 0.985 . S
H1542 N1537 0.984 . S
H1543 N1537 0.985 . S
H1544 N1541 0.984 . S
H1545 N1541 0.985 . S
H1546 N1540 0.984 . S
H1547 N1540 0.984 . S
H1548 N1536 0.984 . S
H1549 N1536 0.985 . S
C1550 C1551 1.363 . S
C1550 C1556 1.379 . S
C1550 N1558 1.356 . S
C1551 C1550 1.363 . S
C1551 C1557 1.363 . S
C1552 C1553 1.363 . S
C1552 C1557 1.379 . S
C1552 N1559 1.356 . S
C1553 C1552 1.363 . S
C1553 C1556 1.363 . S
N1554 C1556 1.356 . S
N1554 H1566 0.984 . S
N1554 H1567 0.985 . S
N1555 C1557 1.356 . S
N1555 H1560 0.984 . S
N1555 H1561 0.985 . S
C1556 C1550 1.379 . S
C1556 C1553 1.363 . S
C1556 N1554 1.356 . S
C1557 C1551 1.363 . S
C1557 C1552 1.379 . S
C1557 N1555 1.356 . S
N1558 C1550 1.356 . S
N1558 H1564 0.984 . S
N1558 H1565 0.984 . S
N1559 C1552 1.356 . S
N1559 H1562 0.984 . S
N1559 H1563 0.985 . S
H1560 N1555 0.984 . S
H1561 N1555 0.985 . S
H1562 N1559 0.984 . S
H1563 N1559 0.985 . S
H1564 N1558 0.984 . S
H1565 N1558 0.984 . S
H1566 N1554 0.984 . S
H1567 N1554 0.985 . S
C1568 C1569 1.363 . S
C1568 C1574 1.379 1_565 S
C1568 N1576 1.356 . S
C1569 C1568 1.363 . S
C1569 C1575 1.363 . S
C1570 C1571 1.363 . S
C1570 C1575 1.379 1_545 S
C1570 N1577 1.356 . S
C1571 C1570 1.363 . S
C1571 C1574 1.363 . S
N1572 C1574 1.356 . S
N1572 H1584 0.984 . S
N1572 H1585 0.985 . S
N1573 C1575 1.356 . S
N1573 H1578 0.984 . S
N1573 H1579 0.985 . S
C1574 C1568 1.379 1_545 S
C1574 C1571 1.363 . S
C1574 N1572 1.356 . S
C1575 C1569 1.363 . S
C1575 C1570 1.379 1_565 S
C1575 N1573 1.356 . S
N1576 C1568 1.356 . S
N1576 H1582 0.984 . S
N1576 H1583 0.984 . S
N1577 C1570 1.356 . S
N1577 H1580 0.984 . S
N1577 H1581 0.985 . S
H1578 N1573 0.984 . S
H1579 N1573 0.985 . S
H1580 N1577 0.984 . S
H1581 N1577 0.985 . S
H1582 N1576 0.984 . S
H1583 N1576 0.984 . S
H1584 N1572 0.984 . S
H1585 N1572 0.985 . S
C1586 C1587 1.363 . S
C1586 C1592 1.379 1_655 S
C1586 N1594 1.356 . S
C1587 C1586 1.363 . S
C1587 C1593 1.363 . S
C1588 C1589 1.363 . S
C1588 C1593 1.379 1_455 S
C1588 N1595 1.356 . S
C1589 C1588 1.363 . S
C1589 C1592 1.363 . S
N1590 C1592 1.356 . S
N1590 H1602 0.984 . S
N1590 H1603 0.985 . S
N1591 C1593 1.356 . S
N1591 H1596 0.984 . S
N1591 H1597 0.985 . S
C1592 C1586 1.379 1_455 S
C1592 C1589 1.363 . S
C1592 N1590 1.356 . S
C1593 C1587 1.363 . S
C1593 C1588 1.379 1_655 S
C1593 N1591 1.356 . S
N1594 C1586 1.356 . S
N1594 H1600 0.984 . S
N1594 H1601 0.984 . S
N1595 C1588 1.356 . S
N1595 H1598 0.984 . S
N1595 H1599 0.985 . S
H1596 N1591 0.984 . S
H1597 N1591 0.985 . S
H1598 N1595 0.984 . S
H1599 N1595 0.985 . S
H1600 N1594 0.984 . S
H1601 N1594 0.984 . S
H1602 N1590 0.984 . S
H1603 N1590 0.985 . S
C1604 C1605 1.363 . S
C1604 C1610 1.379 1_545 S
C1604 N1612 1.356 . S
C1605 C1604 1.363 . S
C1605 C1611 1.363 . S
C1606 C1607 1.363 . S
C1606 C1611 1.379 1_565 S
C1606 N1613 1.356 . S
C1607 C1606 1.363 . S
C1607 C1610 1.363 . S
N1608 C1610 1.356 . S
N1608 H1620 0.984 . S
N1608 H1621 0.985 . S
N1609 C1611 1.356 . S
N1609 H1614 0.984 . S
N1609 H1615 0.985 . S
C1610 C1604 1.379 1_565 S
C1610 C1607 1.363 . S
C1610 N1608 1.356 . S
C1611 C1605 1.363 . S
C1611 C1606 1.379 1_545 S
C1611 N1609 1.356 . S
N1612 C1604 1.356 . S
N1612 H1618 0.984 . S
N1612 H1619 0.984 . S
N1613 C1606 1.356 . S
N1613 H1616 0.984 . S
N1613 H1617 0.985 . S
H1614 N1609 0.984 . S
H1615 N1609 0.985 . S
H1616 N1613 0.984 . S
H1617 N1613 0.985 . S
H1618 N1612 0.984 . S
H1619 N1612 0.984 . S
H1620 N1608 0.984 . S
H1621 N1608 0.985 . S
C1622 C1623 1.363 . S
C1622 C1628 1.379 1_655 S
C1622 N1630 1.356 . S
C1623 C1622 1.363 . S
C1623 C1629 1.363 . S
C1624 C1625 1.363 . S
C1624 C1629 1.379 1_455 S
C1624 N1631 1.356 . S
C1625 C1624 1.363 . S
C1625 C1628 1.363 . S
N1626 C1628 1.356 . S
N1626 H1638 0.984 . S
N1626 H1639 0.985 . S
N1627 C1629 1.356 . S
N1627 H1632 0.984 . S
N1627 H1633 0.985 . S
C1628 C1622 1.379 1_455 S
C1628 C1625 1.363 . S
C1628 N1626 1.356 . S
C1629 C1623 1.363 . S
C1629 C1624 1.379 1_655 S
C1629 N1627 1.356 . S
N1630 C1622 1.356 . S
N1630 H1636 0.984 . S
N1630 H1637 0.984 . S
N1631 C1624 1.356 . S
N1631 H1634 0.984 . S
N1631 H1635 0.985 . S
H1632 N1627 0.984 . S
H1633 N1627 0.985 . S
H1634 N1631 0.984 . S
H1635 N1631 0.985 . S
H1636 N1630 0.984 . S
H1637 N1630 0.984 . S
H1638 N1626 0.984 . S
H1639 N1626 0.985 . S
C1640 C1641 1.363 . S
C1640 C1646 1.379 1_545 S
C1640 N1648 1.356 . S
C1641 C1640 1.363 . S
C1641 C1647 1.363 . S
C1642 C1643 1.363 . S
C1642 C1647 1.379 1_565 S
C1642 N1649 1.356 . S
C1643 C1642 1.363 . S
C1643 C1646 1.363 . S
N1644 C1646 1.356 . S
N1644 H1656 0.984 . S
N1644 H1657 0.985 . S
N1645 C1647 1.356 . S
N1645 H1650 0.984 . S
N1645 H1651 0.985 . S
C1646 C1640 1.379 1_565 S
C1646 C1643 1.363 . S
C1646 N1644 1.356 . S
C1647 C1641 1.363 . S
C1647 C1642 1.379 1_545 S
C1647 N1645 1.356 . S
N1648 C1640 1.356 . S
N1648 H1654 0.984 . S
N1648 H1655 0.984 . S
N1649 C1642 1.356 . S
N1649 H1652 0.984 . S
N1649 H1653 0.985 . S
H1650 N1645 0.984 . S
H1651 N1645 0.985 . S
H1652 N1649 0.984 . S
H1653 N1649 0.985 . S
H1654 N1648 0.984 . S
H1655 N1648 0.984 . S
H1656 N1644 0.984 . S
H1657 N1644 0.985 . S
C1658 C1659 1.363 . S
C1658 C1664 1.379 1_655 S
C1658 N1666 1.356 . S
C1659 C1658 1.363 . S
C1659 C1665 1.363 . S
C1660 C1661 1.363 . S
C1660 C1665 1.379 1_455 S
C1660 N1667 1.356 . S
C1661 C1660 1.363 . S
C1661 C1664 1.363 . S
N1662 C1664 1.356 . S
N1662 H1674 0.984 . S
N1662 H1675 0.985 . S
N1663 C1665 1.356 . S
N1663 H1668 0.984 . S
N1663 H1669 0.985 . S
C1664 C1658 1.379 1_455 S
C1664 C1661 1.363 . S
C1664 N1662 1.356 . S
C1665 C1659 1.363 . S
C1665 C1660 1.379 1_655 S
C1665 N1663 1.356 . S
N1666 C1658 1.356 . S
N1666 H1672 0.984 . S
N1666 H1673 0.984 . S
N1667 C1660 1.356 . S
N1667 H1670 0.984 . S
N1667 H1671 0.985 . S
H1668 N1663 0.984 . S
H1669 N1663 0.985 . S
H1670 N1667 0.984 . S
H1671 N1667 0.985 . S
H1672 N1666 0.984 . S
H1673 N1666 0.984 . S
H1674 N1662 0.984 . S
H1675 N1662 0.985 . S
C1676 C1677 1.363 . S
C1676 C1682 1.379 1_545 S
C1676 N1684 1.356 . S
C1677 C1676 1.363 . S
C1677 C1683 1.363 . S
C1678 C1679 1.363 . S
C1678 C1683 1.379 1_565 S
C1678 N1685 1.356 . S
C1679 C1678 1.363 . S
C1679 C1682 1.363 . S
N1680 C1682 1.356 . S
N1680 H1692 0.984 . S
N1680 H1693 0.985 . S
N1681 C1683 1.356 . S
N1681 H1686 0.984 . S
N1681 H1687 0.985 . S
C1682 C1676 1.379 1_565 S
C1682 C1679 1.363 . S
C1682 N1680 1.356 . S
C1683 C1677 1.363 . S
C1683 C1678 1.379 1_545 S
C1683 N1681 1.356 . S
N1684 C1676 1.356 . S
N1684 H1690 0.984 . S
N1684 H1691 0.984 . S
N1685 C1678 1.356 . S
N1685 H1688 0.984 . S
N1685 H1689 0.985 . S
H1686 N1681 0.984 . S
H1687 N1681 0.985 . S
H1688 N1685 0.984 . S
H1689 N1685 0.985 . S
H1690 N1684 0.984 . S
H1691 N1684 0.984 . S
H1692 N1680 0.984 . S
H1693 N1680 0.985 . S
C1694 C1695 1.363 . S
C1694 C1700 1.379 1_655 S
C1694 N1702 1.356 . S
C1695 C1694 1.363 . S
C1695 C1701 1.363 . S
C1696 C1697 1.363 . S
C1696 C1701 1.379 1_455 S
C1696 N1703 1.356 . S
C1697 C1696 1.363 . S
C1697 C1700 1.363 . S
N1698 C1700 1.356 . S
N1698 H1710 0.984 . S
N1698 H1711 0.985 . S
N1699 C1701 1.356 . S
N1699 H1704 0.984 . S
N1699 H1705 0.985 . S
C1700 C1694 1.379 1_455 S
C1700 C1697 1.363 . S
C1700 N1698 1.356 . S
C1701 C1695 1.363 . S
C1701 C1696 1.379 1_655 S
C1701 N1699 1.356 . S
N1702 C1694 1.356 . S
N1702 H1708 0.984 . S
N1702 H1709 0.984 . S
N1703 C1696 1.356 . S
N1703 H1706 0.984 . S
N1703 H1707 0.985 . S
H1704 N1699 0.984 . S
H1705 N1699 0.985 . S
H1706 N1703 0.984 . S
H1707 N1703 0.985 . S
H1708 N1702 0.984 . S
H1709 N1702 0.984 . S
H1710 N1698 0.984 . S
H1711 N1698 0.985 . S
C1712 C1713 1.363 . S
C1712 C1718 1.379 1_554 S
C1712 N1720 1.356 . S
C1713 C1712 1.363 . S
C1713 C1719 1.363 . S
C1714 C1715 1.363 . S
C1714 C1719 1.379 1_556 S
C1714 N1721 1.356 . S
C1715 C1714 1.363 . S
C1715 C1718 1.363 . S
N1716 C1718 1.356 . S
N1716 H1728 0.984 . S
N1716 H1729 0.985 . S
N1717 C1719 1.356 . S
N1717 H1722 0.984 . S
N1717 H1723 0.985 . S
C1718 C1712 1.379 1_556 S
C1718 C1715 1.363 . S
C1718 N1716 1.356 . S
C1719 C1713 1.363 . S
C1719 C1714 1.379 1_554 S
C1719 N1717 1.356 . S
N1720 C1712 1.356 . S
N1720 H1726 0.984 . S
N1720 H1727 0.984 . S
N1721 C1714 1.356 . S
N1721 H1724 0.984 . S
N1721 H1725 0.985 . S
H1722 N1717 0.984 . S
H1723 N1717 0.985 . S
H1724 N1721 0.984 . S
H1725 N1721 0.985 . S
H1726 N1720 0.984 . S
H1727 N1720 0.984 . S
H1728 N1716 0.984 . S
H1729 N1716 0.985 . S
C1730 C1731 1.363 . S
C1730 C1736 1.379 1_556 S
C1730 N1738 1.356 . S
C1731 C1730 1.363 . S
C1731 C1737 1.363 . S
C1732 C1733 1.363 . S
C1732 C1737 1.379 1_554 S
C1732 N1739 1.356 . S
C1733 C1732 1.363 . S
C1733 C1736 1.363 . S
N1734 C1736 1.356 . S
N1734 H1746 0.984 . S
N1734 H1747 0.985 . S
N1735 C1737 1.356 . S
N1735 H1740 0.984 . S
N1735 H1741 0.985 . S
C1736 C1730 1.379 1_554 S
C1736 C1733 1.363 . S
C1736 N1734 1.356 . S
C1737 C1731 1.363 . S
C1737 C1732 1.379 1_556 S
C1737 N1735 1.356 . S
N1738 C1730 1.356 . S
N1738 H1744 0.984 . S
N1738 H1745 0.984 . S
N1739 C1732 1.356 . S
N1739 H1742 0.984 . S
N1739 H1743 0.985 . S
H1740 N1735 0.984 . S
H1741 N1735 0.985 . S
H1742 N1739 0.984 . S
H1743 N1739 0.985 . S
H1744 N1738 0.984 . S
H1745 N1738 0.984 . S
H1746 N1734 0.984 . S
H1747 N1734 0.985 . S
C1748 C1749 1.363 . S
C1748 C1754 1.379 1_556 S
C1748 N1756 1.356 . S
C1749 C1748 1.363 . S
C1749 C1755 1.363 . S
C1750 C1751 1.363 . S
C1750 C1755 1.379 1_554 S
C1750 N1757 1.356 . S
C1751 C1750 1.363 . S
C1751 C1754 1.363 . S
N1752 C1754 1.356 . S
N1752 H1764 0.984 . S
N1752 H1765 0.985 . S
N1753 C1755 1.356 . S
N1753 H1758 0.984 . S
N1753 H1759 0.985 . S
C1754 C1748 1.379 1_554 S
C1754 C1751 1.363 . S
C1754 N1752 1.356 . S
C1755 C1749 1.363 . S
C1755 C1750 1.379 1_556 S
C1755 N1753 1.356 . S
N1756 C1748 1.356 . S
N1756 H1762 0.984 . S
N1756 H1763 0.984 . S
N1757 C1750 1.356 . S
N1757 H1760 0.984 . S
N1757 H1761 0.985 . S
H1758 N1753 0.984 . S
H1759 N1753 0.985 . S
H1760 N1757 0.984 . S
H1761 N1757 0.985 . S
H1762 N1756 0.984 . S
H1763 N1756 0.984 . S
H1764 N1752 0.984 . S
H1765 N1752 0.985 . S
C1766 C1767 1.363 . S
C1766 C1772 1.379 1_554 S
C1766 N1774 1.356 . S
C1767 C1766 1.363 . S
C1767 C1773 1.363 . S
C1768 C1769 1.363 . S
C1768 C1773 1.379 1_556 S
C1768 N1775 1.356 . S
C1769 C1768 1.363 . S
C1769 C1772 1.363 . S
N1770 C1772 1.356 . S
N1770 H1782 0.984 . S
N1770 H1783 0.985 . S
N1771 C1773 1.356 . S
N1771 H1776 0.984 . S
N1771 H1777 0.985 . S
C1772 C1766 1.379 1_556 S
C1772 C1769 1.363 . S
C1772 N1770 1.356 . S
C1773 C1767 1.363 . S
C1773 C1768 1.379 1_554 S
C1773 N1771 1.356 . S
N1774 C1766 1.356 . S
N1774 H1780 0.984 . S
N1774 H1781 0.984 . S
N1775 C1768 1.356 . S
N1775 H1778 0.984 . S
N1775 H1779 0.985 . S
H1776 N1771 0.984 . S
H1777 N1771 0.985 . S
H1778 N1775 0.984 . S
H1779 N1775 0.985 . S
H1780 N1774 0.984 . S
H1781 N1774 0.984 . S
H1782 N1770 0.984 . S
H1783 N1770 0.985 . S
C1784 C1785 1.363 . S
C1784 C1790 1.379 1_556 S
C1784 N1792 1.356 . S
C1785 C1784 1.363 . S
C1785 C1791 1.363 . S
C1786 C1787 1.363 . S
C1786 C1791 1.379 1_554 S
C1786 N1793 1.356 . S
C1787 C1786 1.363 . S
C1787 C1790 1.363 . S
N1788 C1790 1.356 . S
N1788 H1800 0.984 . S
N1788 H1801 0.985 . S
N1789 C1791 1.356 . S
N1789 H1794 0.984 . S
N1789 H1795 0.985 . S
C1790 C1784 1.379 1_554 S
C1790 C1787 1.363 . S
C1790 N1788 1.356 . S
C1791 C1785 1.363 . S
C1791 C1786 1.379 1_556 S
C1791 N1789 1.356 . S
N1792 C1784 1.356 . S
N1792 H1798 0.984 . S
N1792 H1799 0.984 . S
N1793 C1786 1.356 . S
N1793 H1796 0.984 . S
N1793 H1797 0.985 . S
H1794 N1789 0.984 . S
H1795 N1789 0.985 . S
H1796 N1793 0.984 . S
H1797 N1793 0.985 . S
H1798 N1792 0.984 . S
H1799 N1792 0.984 . S
H1800 N1788 0.984 . S
H1801 N1788 0.985 . S
C1802 C1803 1.363 . S
C1802 C1808 1.379 1_554 S
C1802 N1810 1.356 . S
C1803 C1802 1.363 . S
C1803 C1809 1.363 . S
C1804 C1805 1.363 . S
C1804 C1809 1.379 1_556 S
C1804 N1811 1.356 . S
C1805 C1804 1.363 . S
C1805 C1808 1.363 . S
N1806 C1808 1.356 . S
N1806 H1818 0.984 . S
N1806 H1819 0.985 . S
N1807 C1809 1.356 . S
N1807 H1812 0.984 . S
N1807 H1813 0.985 . S
C1808 C1802 1.379 1_556 S
C1808 C1805 1.363 . S
C1808 N1806 1.356 . S
C1809 C1803 1.363 . S
C1809 C1804 1.379 1_554 S
C1809 N1807 1.356 . S
N1810 C1802 1.356 . S
N1810 H1816 0.984 . S
N1810 H1817 0.984 . S
N1811 C1804 1.356 . S
N1811 H1814 0.984 . S
N1811 H1815 0.985 . S
H1812 N1807 0.984 . S
H1813 N1807 0.985 . S
H1814 N1811 0.984 . S
H1815 N1811 0.985 . S
H1816 N1810 0.984 . S
H1817 N1810 0.984 . S
H1818 N1806 0.984 . S
H1819 N1806 0.985 . S
C1820 C1821 1.363 . S
C1820 C1826 1.379 1_554 S
C1820 N1828 1.356 . S
C1821 C1820 1.363 . S
C1821 C1827 1.363 . S
C1822 C1823 1.363 . S
C1822 C1827 1.379 1_556 S
C1822 N1829 1.356 . S
C1823 C1822 1.363 . S
C1823 C1826 1.363 . S
N1824 C1826 1.356 . S
N1824 H1836 0.984 . S
N1824 H1837 0.985 . S
N1825 C1827 1.356 . S
N1825 H1830 0.984 . S
N1825 H1831 0.985 . S
C1826 C1820 1.379 1_556 S
C1826 C1823 1.363 . S
C1826 N1824 1.356 . S
C1827 C1821 1.363 . S
C1827 C1822 1.379 1_554 S
C1827 N1825 1.356 . S
N1828 C1820 1.356 . S
N1828 H1834 0.984 . S
N1828 H1835 0.984 . S
N1829 C1822 1.356 . S
N1829 H1832 0.984 . S
N1829 H1833 0.985 . S
H1830 N1825 0.984 . S
H1831 N1825 0.985 . S
H1832 N1829 0.984 . S
H1833 N1829 0.985 . S
H1834 N1828 0.984 . S
H1835 N1828 0.984 . S
H1836 N1824 0.984 . S
H1837 N1824 0.985 . S
C1838 C1839 1.363 . S
C1838 C1844 1.379 1_556 S
C1838 N1846 1.356 . S
C1839 C1838 1.363 . S
C1839 C1845 1.363 . S
C1840 C1841 1.363 . S
C1840 C1845 1.379 1_554 S
C1840 N1847 1.356 . S
C1841 C1840 1.363 . S
C1841 C1844 1.363 . S
N1842 C1844 1.356 . S
N1842 H1854 0.984 . S
N1842 H1855 0.985 . S
N1843 C1845 1.356 . S
N1843 H1848 0.984 . S
N1843 H1849 0.985 . S
C1844 C1838 1.379 1_554 S
C1844 C1841 1.363 . S
C1844 N1842 1.356 . S
C1845 C1839 1.363 . S
C1845 C1840 1.379 1_556 S
C1845 N1843 1.356 . S
N1846 C1838 1.356 . S
N1846 H1852 0.984 . S
N1846 H1853 0.984 . S
N1847 C1840 1.356 . S
N1847 H1850 0.984 . S
N1847 H1851 0.985 . S
H1848 N1843 0.984 . S
H1849 N1843 0.985 . S
H1850 N1847 0.984 . S
H1851 N1847 0.985 . S
H1852 N1846 0.984 . S
H1853 N1846 0.984 . S
H1854 N1842 0.984 . S
H1855 N1842 0.985 . S
C1856 C1857 1.363 . S
C1856 C1862 1.379 1_455 S
C1856 N1864 1.356 . S
C1857 C1856 1.363 . S
C1857 C1863 1.363 . S
C1858 C1859 1.363 . S
C1858 C1863 1.379 1_655 S
C1858 N1865 1.356 . S
C1859 C1858 1.363 . S
C1859 C1862 1.363 . S
N1860 C1862 1.356 . S
N1860 H1872 0.984 . S
N1860 H1873 0.985 . S
N1861 C1863 1.356 . S
N1861 H1866 0.984 . S
N1861 H1867 0.985 . S
C1862 C1856 1.379 1_655 S
C1862 C1859 1.363 . S
C1862 N1860 1.356 . S
C1863 C1857 1.363 . S
C1863 C1858 1.379 1_455 S
C1863 N1861 1.356 . S
N1864 C1856 1.356 . S
N1864 H1870 0.984 . S
N1864 H1871 0.984 . S
N1865 C1858 1.356 . S
N1865 H1868 0.984 . S
N1865 H1869 0.985 . S
H1866 N1861 0.984 . S
H1867 N1861 0.985 . S
H1868 N1865 0.984 . S
H1869 N1865 0.985 . S
H1870 N1864 0.984 . S
H1871 N1864 0.984 . S
H1872 N1860 0.984 . S
H1873 N1860 0.985 . S
C1874 C1875 1.363 . S
C1874 C1880 1.379 1_455 S
C1874 N1882 1.356 . S
C1875 C1874 1.363 . S
C1875 C1881 1.363 . S
C1876 C1877 1.363 . S
C1876 C1881 1.379 1_655 S
C1876 N1883 1.356 . S
C1877 C1876 1.363 . S
C1877 C1880 1.363 . S
N1878 C1880 1.356 . S
N1878 H1890 0.984 . S
N1878 H1891 0.985 . S
N1879 C1881 1.356 . S
N1879 H1884 0.984 . S
N1879 H1885 0.985 . S
C1880 C1874 1.379 1_655 S
C1880 C1877 1.363 . S
C1880 N1878 1.356 . S
C1881 C1875 1.363 . S
C1881 C1876 1.379 1_455 S
C1881 N1879 1.356 . S
N1882 C1874 1.356 . S
N1882 H1888 0.984 . S
N1882 H1889 0.984 . S
N1883 C1876 1.356 . S
N1883 H1886 0.984 . S
N1883 H1887 0.985 . S
H1884 N1879 0.984 . S
H1885 N1879 0.985 . S
H1886 N1883 0.984 . S
H1887 N1883 0.985 . S
H1888 N1882 0.984 . S
H1889 N1882 0.984 . S
H1890 N1878 0.984 . S
H1891 N1878 0.985 . S
C1892 C1893 1.363 . S
C1892 C1898 1.379 1_565 S
C1892 N1900 1.356 . S
C1893 C1892 1.363 . S
C1893 C1899 1.363 . S
C1894 C1895 1.363 . S
C1894 C1899 1.379 1_545 S
C1894 N1901 1.356 . S
C1895 C1894 1.363 . S
C1895 C1898 1.363 . S
N1896 C1898 1.356 . S
N1896 H1908 0.984 . S
N1896 H1909 0.985 . S
N1897 C1899 1.356 . S
N1897 H1902 0.984 . S
N1897 H1903 0.985 . S
C1898 C1892 1.379 1_545 S
C1898 C1895 1.363 . S
C1898 N1896 1.356 . S
C1899 C1893 1.363 . S
C1899 C1894 1.379 1_565 S
C1899 N1897 1.356 . S
N1900 C1892 1.356 . S
N1900 H1906 0.984 . S
N1900 H1907 0.984 . S
N1901 C1894 1.356 . S
N1901 H1904 0.984 . S
N1901 H1905 0.985 . S
H1902 N1897 0.984 . S
H1903 N1897 0.985 . S
H1904 N1901 0.984 . S
H1905 N1901 0.985 . S
H1906 N1900 0.984 . S
H1907 N1900 0.984 . S
H1908 N1896 0.984 . S
H1909 N1896 0.985 . S
C1910 C1911 1.363 . S
C1910 C1916 1.379 1_455 S
C1910 N1918 1.356 . S
C1911 C1910 1.363 . S
C1911 C1917 1.363 . S
C1912 C1913 1.363 . S
C1912 C1917 1.379 1_655 S
C1912 N1919 1.356 . S
C1913 C1912 1.363 . S
C1913 C1916 1.363 . S
N1914 C1916 1.356 . S
N1914 H1926 0.984 . S
N1914 H1927 0.985 . S
N1915 C1917 1.356 . S
N1915 H1920 0.984 . S
N1915 H1921 0.985 . S
C1916 C1910 1.379 1_655 S
C1916 C1913 1.363 . S
C1916 N1914 1.356 . S
C1917 C1911 1.363 . S
C1917 C1912 1.379 1_455 S
C1917 N1915 1.356 . S
N1918 C1910 1.356 . S
N1918 H1924 0.984 . S
N1918 H1925 0.984 . S
N1919 C1912 1.356 . S
N1919 H1922 0.984 . S
N1919 H1923 0.985 . S
H1920 N1915 0.984 . S
H1921 N1915 0.985 . S
H1922 N1919 0.984 . S
H1923 N1919 0.985 . S
H1924 N1918 0.984 . S
H1925 N1918 0.984 . S
H1926 N1914 0.984 . S
H1927 N1914 0.985 . S
C1928 C1929 1.363 . S
C1928 C1934 1.379 1_565 S
C1928 N1936 1.356 . S
C1929 C1928 1.363 . S
C1929 C1935 1.363 . S
C1930 C1931 1.363 . S
C1930 C1935 1.379 1_545 S
C1930 N1937 1.356 . S
C1931 C1930 1.363 . S
C1931 C1934 1.363 . S
N1932 C1934 1.356 . S
N1932 H1944 0.984 . S
N1932 H1945 0.985 . S
N1933 C1935 1.356 . S
N1933 H1938 0.984 . S
N1933 H1939 0.985 . S
C1934 C1928 1.379 1_545 S
C1934 C1931 1.363 . S
C1934 N1932 1.356 . S
C1935 C1929 1.363 . S
C1935 C1930 1.379 1_565 S
C1935 N1933 1.356 . S
N1936 C1928 1.356 . S
N1936 H1942 0.984 . S
N1936 H1943 0.984 . S
N1937 C1930 1.356 . S
N1937 H1940 0.984 . S
N1937 H1941 0.985 . S
H1938 N1933 0.984 . S
H1939 N1933 0.985 . S
H1940 N1937 0.984 . S
H1941 N1937 0.985 . S
H1942 N1936 0.984 . S
H1943 N1936 0.984 . S
H1944 N1932 0.984 . S
H1945 N1932 0.985 . S
C1946 C1947 1.363 . S
C1946 C1952 1.379 1_655 S
C1946 N1954 1.356 . S
C1947 C1946 1.363 . S
C1947 C1953 1.363 . S
C1948 C1949 1.363 . S
C1948 C1953 1.379 1_455 S
C1948 N1955 1.356 . S
C1949 C1948 1.363 . S
C1949 C1952 1.363 . S
N1950 C1952 1.356 . S
N1950 H1962 0.984 . S
N1950 H1963 0.985 . S
N1951 C1953 1.356 . S
N1951 H1956 0.984 . S
N1951 H1957 0.985 . S
C1952 C1946 1.379 1_455 S
C1952 C1949 1.363 . S
C1952 N1950 1.356 . S
C1953 C1947 1.363 . S
C1953 C1948 1.379 1_655 S
C1953 N1951 1.356 . S
N1954 C1946 1.356 . S
N1954 H1960 0.984 . S
N1954 H1961 0.984 . S
N1955 C1948 1.356 . S
N1955 H1958 0.984 . S
N1955 H1959 0.985 . S
H1956 N1951 0.984 . S
H1957 N1951 0.985 . S
H1958 N1955 0.984 . S
H1959 N1955 0.985 . S
H1960 N1954 0.984 . S
H1961 N1954 0.984 . S
H1962 N1950 0.984 . S
H1963 N1950 0.985 . S
C1964 C1965 1.363 . S
C1964 C1970 1.379 1_565 S
C1964 N1972 1.356 . S
C1965 C1964 1.363 . S
C1965 C1971 1.363 . S
C1966 C1967 1.363 . S
C1966 C1971 1.379 1_545 S
C1966 N1973 1.356 . S
C1967 C1966 1.363 . S
C1967 C1970 1.363 . S
N1968 C1970 1.356 . S
N1968 H1980 0.984 . S
N1968 H1981 0.985 . S
N1969 C1971 1.356 . S
N1969 H1974 0.984 . S
N1969 H1975 0.985 . S
C1970 C1964 1.379 1_545 S
C1970 C1967 1.363 . S
C1970 N1968 1.356 . S
C1971 C1965 1.363 . S
C1971 C1966 1.379 1_565 S
C1971 N1969 1.356 . S
N1972 C1964 1.356 . S
N1972 H1978 0.984 . S
N1972 H1979 0.984 . S
N1973 C1966 1.356 . S
N1973 H1976 0.984 . S
N1973 H1977 0.985 . S
H1974 N1969 0.984 . S
H1975 N1969 0.985 . S
H1976 N1973 0.984 . S
H1977 N1973 0.985 . S
H1978 N1972 0.984 . S
H1979 N1972 0.984 . S
H1980 N1968 0.984 . S
H1981 N1968 0.985 . S
C1982 C1983 1.363 . S
C1982 C1988 1.379 1_565 S
C1982 N1990 1.356 . S
C1983 C1982 1.363 . S
C1983 C1989 1.363 . S
C1984 C1985 1.363 . S
C1984 C1989 1.379 1_545 S
C1984 N1991 1.356 . S
C1985 C1984 1.363 . S
C1985 C1988 1.363 . S
N1986 C1988 1.356 . S
N1986 H1998 0.984 . S
N1986 H1999 0.985 . S
N1987 C1989 1.356 . S
N1987 H1992 0.984 . S
N1987 H1993 0.985 . S
C1988 C1982 1.379 1_545 S
C1988 C1985 1.363 . S
C1988 N1986 1.356 . S
C1989 C1983 1.363 . S
C1989 C1984 1.379 1_565 S
C1989 N1987 1.356 . S
N1990 C1982 1.356 . S
N1990 H1996 0.984 . S
N1990 H1997 0.984 . S
N1991 C1984 1.356 . S
N1991 H1994 0.984 . S
N1991 H1995 0.985 . S
H1992 N1987 0.984 . S
H1993 N1987 0.985 . S
H1994 N1991 0.984 . S
H1995 N1991 0.985 . S
H1996 N1990 0.984 . S
H1997 N1990 0.984 . S
H1998 N1986 0.984 . S
H1999 N1986 0.985 . S
C2000 C2001 1.363 . S
C2000 C2006 1.379 . S
C2000 N2008 1.356 . S
C2001 C2000 1.363 . S
C2001 C2007 1.363 . S
C2002 C2003 1.363 . S
C2002 C2007 1.379 . S
C2002 N2009 1.356 . S
C2003 C2002 1.363 . S
C2003 C2006 1.363 . S
N2004 C2006 1.356 . S
N2004 H2016 0.984 . S
N2004 H2017 0.985 . S
N2005 C2007 1.356 . S
N2005 H2010 0.984 . S
N2005 H2011 0.985 . S
C2006 C2000 1.379 . S
C2006 C2003 1.363 . S
C2006 N2004 1.356 . S
C2007 C2001 1.363 . S
C2007 C2002 1.379 . S
C2007 N2005 1.356 . S
N2008 C2000 1.356 . S
N2008 H2014 0.984 . S
N2008 H2015 0.984 . S
N2009 C2002 1.356 . S
N2009 H2012 0.984 . S
N2009 H2013 0.985 . S
H2010 N2005 0.984 . S
H2011 N2005 0.985 . S
H2012 N2009 0.984 . S
H2013 N2009 0.985 . S
H2014 N2008 0.984 . S
H2015 N2008 0.984 . S
H2016 N2004 0.984 . S
H2017 N2004 0.985 . S
C2018 C2019 1.363 . S
C2018 C2024 1.379 . S
C2018 N2026 1.356 . S
C2019 C2018 1.363 . S
C2019 C2025 1.363 . S
C2020 C2021 1.363 . S
C2020 C2025 1.379 . S
C2020 N2027 1.356 . S
C2021 C2020 1.363 . S
C2021 C2024 1.363 . S
N2022 C2024 1.356 . S
N2022 H2034 0.984 . S
N2022 H2035 0.985 . S
N2023 C2025 1.356 . S
N2023 H2028 0.984 . S
N2023 H2029 0.985 . S
C2024 C2018 1.379 . S
C2024 C2021 1.363 . S
C2024 N2022 1.356 . S
C2025 C2019 1.363 . S
C2025 C2020 1.379 . S
C2025 N2023 1.356 . S
N2026 C2018 1.356 . S
N2026 H2032 0.984 . S
N2026 H2033 0.984 . S
N2027 C2020 1.356 . S
N2027 H2030 0.984 . S
N2027 H2031 0.985 . S
H2028 N2023 0.984 . S
H2029 N2023 0.985 . S
H2030 N2027 0.984 . S
H2031 N2027 0.985 . S
H2032 N2026 0.984 . S
H2033 N2026 0.984 . S
H2034 N2022 0.984 . S
H2035 N2022 0.985 . S
C2036 C2037 1.363 . S
C2036 C2042 1.379 . S
C2036 N2044 1.356 . S
C2037 C2036 1.363 . S
C2037 C2043 1.363 . S
C2038 C2039 1.363 . S
C2038 C2043 1.379 . S
C2038 N2045 1.356 . S
C2039 C2038 1.363 . S
C2039 C2042 1.363 . S
N2040 C2042 1.356 . S
N2040 H2052 0.984 . S
N2040 H2053 0.985 . S
N2041 C2043 1.356 . S
N2041 H2046 0.984 . S
N2041 H2047 0.985 . S
C2042 C2036 1.379 . S
C2042 C2039 1.363 . S
C2042 N2040 1.356 . S
C2043 C2037 1.363 . S
C2043 C2038 1.379 . S
C2043 N2041 1.356 . S
N2044 C2036 1.356 . S
N2044 H2050 0.984 . S
N2044 H2051 0.984 . S
N2045 C2038 1.356 . S
N2045 H2048 0.984 . S
N2045 H2049 0.985 . S
H2046 N2041 0.984 . S
H2047 N2041 0.985 . S
H2048 N2045 0.984 . S
H2049 N2045 0.985 . S
H2050 N2044 0.984 . S
H2051 N2044 0.984 . S
H2052 N2040 0.984 . S
H2053 N2040 0.985 . S
C2054 C2055 1.363 . S
C2054 C2060 1.379 . S
C2054 N2062 1.356 . S
C2055 C2054 1.363 . S
C2055 C2061 1.363 . S
C2056 C2057 1.363 . S
C2056 C2061 1.379 . S
C2056 N2063 1.356 . S
C2057 C2056 1.363 . S
C2057 C2060 1.363 . S
N2058 C2060 1.356 . S
N2058 H2070 0.984 . S
N2058 H2071 0.985 . S
N2059 C2061 1.356 . S
N2059 H2064 0.984 . S
N2059 H2065 0.985 . S
C2060 C2054 1.379 . S
C2060 C2057 1.363 . S
C2060 N2058 1.356 . S
C2061 C2055 1.363 . S
C2061 C2056 1.379 . S
C2061 N2059 1.356 . S
N2062 C2054 1.356 . S
N2062 H2068 0.984 . S
N2062 H2069 0.984 . S
N2063 C2056 1.356 . S
N2063 H2066 0.984 . S
N2063 H2067 0.985 . S
H2064 N2059 0.984 . S
H2065 N2059 0.985 . S
H2066 N2063 0.984 . S
H2067 N2063 0.985 . S
H2068 N2062 0.984 . S
H2069 N2062 0.984 . S
H2070 N2058 0.984 . S
H2071 N2058 0.985 . S
C2072 C2073 1.363 . S
C2072 C2078 1.379 . S
C2072 N2080 1.356 . S
C2073 C2072 1.363 . S
C2073 C2079 1.363 . S
C2074 C2075 1.363 . S
C2074 C2079 1.379 . S
C2074 N2081 1.356 . S
C2075 C2074 1.363 . S
C2075 C2078 1.363 . S
N2076 C2078 1.356 . S
N2076 H2088 0.984 . S
N2076 H2089 0.985 . S
N2077 C2079 1.356 . S
N2077 H2082 0.984 . S
N2077 H2083 0.985 . S
C2078 C2072 1.379 . S
C2078 C2075 1.363 . S
C2078 N2076 1.356 . S
C2079 C2073 1.363 . S
C2079 C2074 1.379 . S
C2079 N2077 1.356 . S
N2080 C2072 1.356 . S
N2080 H2086 0.984 . S
N2080 H2087 0.984 . S
N2081 C2074 1.356 . S
N2081 H2084 0.984 . S
N2081 H2085 0.985 . S
H2082 N2077 0.984 . S
H2083 N2077 0.985 . S
H2084 N2081 0.984 . S
H2085 N2081 0.985 . S
H2086 N2080 0.984 . S
H2087 N2080 0.984 . S
H2088 N2076 0.984 . S
H2089 N2076 0.985 . S
C2090 C2091 1.363 . S
C2090 C2096 1.379 . S
C2090 N2098 1.356 . S
C2091 C2090 1.363 . S
C2091 C2097 1.363 . S
C2092 C2093 1.363 . S
C2092 C2097 1.379 . S
C2092 N2099 1.356 . S
C2093 C2092 1.363 . S
C2093 C2096 1.363 . S
N2094 C2096 1.356 . S
N2094 H2106 0.984 . S
N2094 H2107 0.985 . S
N2095 C2097 1.356 . S
N2095 H2100 0.984 . S
N2095 H2101 0.985 . S
C2096 C2090 1.379 . S
C2096 C2093 1.363 . S
C2096 N2094 1.356 . S
C2097 C2091 1.363 . S
C2097 C2092 1.379 . S
C2097 N2095 1.356 . S
N2098 C2090 1.356 . S
N2098 H2104 0.984 . S
N2098 H2105 0.984 . S
N2099 C2092 1.356 . S
N2099 H2102 0.984 . S
N2099 H2103 0.985 . S
H2100 N2095 0.984 . S
H2101 N2095 0.985 . S
H2102 N2099 0.984 . S
H2103 N2099 0.985 . S
H2104 N2098 0.984 . S
H2105 N2098 0.984 . S
H2106 N2094 0.984 . S
H2107 N2094 0.985 . S
C2108 C2109 1.363 . S
C2108 C2114 1.379 . S
C2108 N2116 1.356 . S
C2109 C2108 1.363 . S
C2109 C2115 1.363 . S
C2110 C2111 1.363 . S
C2110 C2115 1.379 . S
C2110 N2117 1.356 . S
C2111 C2110 1.363 . S
C2111 C2114 1.363 . S
N2112 C2114 1.356 . S
N2112 H2124 0.984 . S
N2112 H2125 0.985 . S
N2113 C2115 1.356 . S
N2113 H2118 0.984 . S
N2113 H2119 0.985 . S
C2114 C2108 1.379 . S
C2114 C2111 1.363 . S
C2114 N2112 1.356 . S
C2115 C2109 1.363 . S
C2115 C2110 1.379 . S
C2115 N2113 1.356 . S
N2116 C2108 1.356 . S
N2116 H2122 0.984 . S
N2116 H2123 0.984 . S
N2117 C2110 1.356 . S
N2117 H2120 0.984 . S
N2117 H2121 0.985 . S
H2118 N2113 0.984 . S
H2119 N2113 0.985 . S
H2120 N2117 0.984 . S
H2121 N2117 0.985 . S
H2122 N2116 0.984 . S
H2123 N2116 0.984 . S
H2124 N2112 0.984 . S
H2125 N2112 0.985 . S
C2126 C2127 1.363 . S
C2126 C2132 1.379 . S
C2126 N2134 1.356 . S
C2127 C2126 1.363 . S
C2127 C2133 1.363 . S
C2128 C2129 1.363 . S
C2128 C2133 1.379 . S
C2128 N2135 1.356 . S
C2129 C2128 1.363 . S
C2129 C2132 1.363 . S
N2130 C2132 1.356 . S
N2130 H2142 0.984 . S
N2130 H2143 0.985 . S
N2131 C2133 1.356 . S
N2131 H2136 0.984 . S
N2131 H2137 0.985 . S
C2132 C2126 1.379 . S
C2132 C2129 1.363 . S
C2132 N2130 1.356 . S
C2133 C2127 1.363 . S
C2133 C2128 1.379 . S
C2133 N2131 1.356 . S
N2134 C2126 1.356 . S
N2134 H2140 0.984 . S
N2134 H2141 0.984 . S
N2135 C2128 1.356 . S
N2135 H2138 0.984 . S
N2135 H2139 0.985 . S
H2136 N2131 0.984 . S
H2137 N2131 0.985 . S
H2138 N2135 0.984 . S
H2139 N2135 0.985 . S
H2140 N2134 0.984 . S
H2141 N2134 0.984 . S
H2142 N2130 0.984 . S
H2143 N2130 0.985 . S
C2144 C2145 1.363 . S
C2144 C2150 1.379 . S
C2144 N2152 1.356 . S
C2145 C2144 1.363 . S
C2145 C2151 1.363 . S
C2146 C2147 1.363 . S
C2146 C2151 1.379 . S
C2146 N2153 1.356 . S
C2147 C2146 1.363 . S
C2147 C2150 1.363 . S
N2148 C2150 1.356 . S
N2148 H2160 0.984 . S
N2148 H2161 0.985 . S
N2149 C2151 1.356 . S
N2149 H2154 0.984 . S
N2149 H2155 0.985 . S
C2150 C2144 1.379 . S
C2150 C2147 1.363 . S
C2150 N2148 1.356 . S
C2151 C2145 1.363 . S
C2151 C2146 1.379 . S
C2151 N2149 1.356 . S
N2152 C2144 1.356 . S
N2152 H2158 0.984 . S
N2152 H2159 0.984 . S
N2153 C2146 1.356 . S
N2153 H2156 0.984 . S
N2153 H2157 0.985 . S
H2154 N2149 0.984 . S
H2155 N2149 0.985 . S
H2156 N2153 0.984 . S
H2157 N2153 0.985 . S
H2158 N2152 0.984 . S
H2159 N2152 0.984 . S
H2160 N2148 0.984 . S
H2161 N2148 0.985 . S
C2162 C2163 1.363 . S
C2162 C2168 1.379 . S
C2162 N2170 1.356 . S
C2163 C2162 1.363 . S
C2163 C2169 1.363 . S
C2164 C2165 1.363 . S
C2164 C2169 1.379 . S
C2164 N2171 1.356 . S
C2165 C2164 1.363 . S
C2165 C2168 1.363 . S
N2166 C2168 1.356 . S
N2166 H2178 0.984 . S
N2166 H2179 0.985 . S
N2167 C2169 1.356 . S
N2167 H2172 0.984 . S
N2167 H2173 0.985 . S
C2168 C2162 1.379 . S
C2168 C2165 1.363 . S
C2168 N2166 1.356 . S
C2169 C2163 1.363 . S
C2169 C2164 1.379 . S
C2169 N2167 1.356 . S
N2170 C2162 1.356 . S
N2170 H2176 0.984 . S
N2170 H2177 0.984 . S
N2171 C2164 1.356 . S
N2171 H2174 0.984 . S
N2171 H2175 0.985 . S
H2172 N2167 0.984 . S
H2173 N2167 0.985 . S
H2174 N2171 0.984 . S
H2175 N2171 0.985 . S
H2176 N2170 0.984 . S
H2177 N2170 0.984 . S
H2178 N2166 0.984 . S
H2179 N2166 0.985 . S
C2180 C2181 1.363 . S
C2180 C2186 1.379 . S
C2180 N2188 1.356 . S
C2181 C2180 1.363 . S
C2181 C2187 1.363 . S
C2182 C2183 1.363 . S
C2182 C2187 1.379 . S
C2182 N2189 1.356 . S
C2183 C2182 1.363 . S
C2183 C2186 1.363 . S
N2184 C2186 1.356 . S
N2184 H2196 0.984 . S
N2184 H2197 0.985 . S
N2185 C2187 1.356 . S
N2185 H2190 0.984 . S
N2185 H2191 0.985 . S
C2186 C2180 1.379 . S
C2186 C2183 1.363 . S
C2186 N2184 1.356 . S
C2187 C2181 1.363 . S
C2187 C2182 1.379 . S
C2187 N2185 1.356 . S
N2188 C2180 1.356 . S
N2188 H2194 0.984 . S
N2188 H2195 0.984 . S
N2189 C2182 1.356 . S
N2189 H2192 0.984 . S
N2189 H2193 0.985 . S
H2190 N2185 0.984 . S
H2191 N2185 0.985 . S
H2192 N2189 0.984 . S
H2193 N2189 0.985 . S
H2194 N2188 0.984 . S
H2195 N2188 0.984 . S
H2196 N2184 0.984 . S
H2197 N2184 0.985 . S
C2198 C2199 1.363 . S
C2198 C2204 1.379 . S
C2198 N2206 1.356 . S
C2199 C2198 1.363 . S
C2199 C2205 1.363 . S
C2200 C2201 1.363 . S
C2200 C2205 1.379 . S
C2200 N2207 1.356 . S
C2201 C2200 1.363 . S
C2201 C2204 1.363 . S
N2202 C2204 1.356 . S
N2202 H2214 0.984 . S
N2202 H2215 0.985 . S
N2203 C2205 1.356 . S
N2203 H2208 0.984 . S
N2203 H2209 0.985 . S
C2204 C2198 1.379 . S
C2204 C2201 1.363 . S
C2204 N2202 1.356 . S
C2205 C2199 1.363 . S
C2205 C2200 1.379 . S
C2205 N2203 1.356 . S
N2206 C2198 1.356 . S
N2206 H2212 0.984 . S
N2206 H2213 0.984 . S
N2207 C2200 1.356 . S
N2207 H2210 0.984 . S
N2207 H2211 0.985 . S
H2208 N2203 0.984 . S
H2209 N2203 0.985 . S
H2210 N2207 0.984 . S
H2211 N2207 0.985 . S
H2212 N2206 0.984 . S
H2213 N2206 0.984 . S
H2214 N2202 0.984 . S
H2215 N2202 0.985 . S
C2216 C2217 1.363 . S
C2216 C2222 1.379 . S
C2216 N2224 1.356 . S
C2217 C2216 1.363 . S
C2217 C2223 1.363 . S
C2218 C2219 1.363 . S
C2218 C2223 1.379 . S
C2218 N2225 1.356 . S
C2219 C2218 1.363 . S
C2219 C2222 1.363 . S
N2220 C2222 1.356 . S
N2220 H2232 0.984 . S
N2220 H2233 0.985 . S
N2221 C2223 1.356 . S
N2221 H2226 0.984 . S
N2221 H2227 0.985 . S
C2222 C2216 1.379 . S
C2222 C2219 1.363 . S
C2222 N2220 1.356 . S
C2223 C2217 1.363 . S
C2223 C2218 1.379 . S
C2223 N2221 1.356 . S
N2224 C2216 1.356 . S
N2224 H2230 0.984 . S
N2224 H2231 0.984 . S
N2225 C2218 1.356 . S
N2225 H2228 0.984 . S
N2225 H2229 0.985 . S
H2226 N2221 0.984 . S
H2227 N2221 0.985 . S
H2228 N2225 0.984 . S
H2229 N2225 0.985 . S
H2230 N2224 0.984 . S
H2231 N2224 0.984 . S
H2232 N2220 0.984 . S
H2233 N2220 0.985 . S
C2234 C2235 1.363 . S
C2234 C2240 1.379 . S
C2234 N2242 1.356 . S
C2235 C2234 1.363 . S
C2235 C2241 1.363 . S
C2236 C2237 1.363 . S
C2236 C2241 1.379 . S
C2236 N2243 1.356 . S
C2237 C2236 1.363 . S
C2237 C2240 1.363 . S
N2238 C2240 1.356 . S
N2238 H2250 0.984 . S
N2238 H2251 0.985 . S
N2239 C2241 1.356 . S
N2239 H2244 0.984 . S
N2239 H2245 0.985 . S
C2240 C2234 1.379 . S
C2240 C2237 1.363 . S
C2240 N2238 1.356 . S
C2241 C2235 1.363 . S
C2241 C2236 1.379 . S
C2241 N2239 1.356 . S
N2242 C2234 1.356 . S
N2242 H2248 0.984 . S
N2242 H2249 0.984 . S
N2243 C2236 1.356 . S
N2243 H2246 0.984 . S
N2243 H2247 0.985 . S
H2244 N2239 0.984 . S
H2245 N2239 0.985 . S
H2246 N2243 0.984 . S
H2247 N2243 0.985 . S
H2248 N2242 0.984 . S
H2249 N2242 0.984 . S
H2250 N2238 0.984 . S
H2251 N2238 0.985 . S
C2252 C2253 1.363 . S
C2252 C2258 1.379 . S
C2252 N2260 1.356 . S
C2253 C2252 1.363 . S
C2253 C2259 1.363 . S
C2254 C2255 1.363 . S
C2254 C2259 1.379 . S
C2254 N2261 1.356 . S
C2255 C2254 1.363 . S
C2255 C2258 1.363 . S
N2256 C2258 1.356 . S
N2256 H2268 0.984 . S
N2256 H2269 0.985 . S
N2257 C2259 1.356 . S
N2257 H2262 0.984 . S
N2257 H2263 0.985 . S
C2258 C2252 1.379 . S
C2258 C2255 1.363 . S
C2258 N2256 1.356 . S
C2259 C2253 1.363 . S
C2259 C2254 1.379 . S
C2259 N2257 1.356 . S
N2260 C2252 1.356 . S
N2260 H2266 0.984 . S
N2260 H2267 0.984 . S
N2261 C2254 1.356 . S
N2261 H2264 0.984 . S
N2261 H2265 0.985 . S
H2262 N2257 0.984 . S
H2263 N2257 0.985 . S
H2264 N2261 0.984 . S
H2265 N2261 0.985 . S
H2266 N2260 0.984 . S
H2267 N2260 0.984 . S
H2268 N2256 0.984 . S
H2269 N2256 0.985 . S
C2270 C2271 1.363 . S
C2270 C2276 1.379 . S
C2270 N2278 1.356 . S
C2271 C2270 1.363 . S
C2271 C2277 1.363 . S
C2272 C2273 1.363 . S
C2272 C2277 1.379 . S
C2272 N2279 1.356 . S
C2273 C2272 1.363 . S
C2273 C2276 1.363 . S
N2274 C2276 1.356 . S
N2274 H2286 0.984 . S
N2274 H2287 0.985 . S
N2275 C2277 1.356 . S
N2275 H2280 0.984 . S
N2275 H2281 0.985 . S
C2276 C2270 1.379 . S
C2276 C2273 1.363 . S
C2276 N2274 1.356 . S
C2277 C2271 1.363 . S
C2277 C2272 1.379 . S
C2277 N2275 1.356 . S
N2278 C2270 1.356 . S
N2278 H2284 0.984 . S
N2278 H2285 0.984 . S
N2279 C2272 1.356 . S
N2279 H2282 0.984 . S
N2279 H2283 0.985 . S
H2280 N2275 0.984 . S
H2281 N2275 0.985 . S
H2282 N2279 0.984 . S
H2283 N2279 0.985 . S
H2284 N2278 0.984 . S
H2285 N2278 0.984 . S
H2286 N2274 0.984 . S
H2287 N2274 0.985 . S
C2288 C2289 1.363 . S
C2288 C2294 1.379 . S
C2288 N2296 1.356 . S
C2289 C2288 1.363 . S
C2289 C2295 1.363 . S
C2290 C2291 1.363 . S
C2290 C2295 1.379 . S
C2290 N2297 1.356 . S
C2291 C2290 1.363 . S
C2291 C2294 1.363 . S
N2292 C2294 1.356 . S
N2292 H2304 0.984 . S
N2292 H2305 0.985 . S
N2293 C2295 1.356 . S
N2293 H2298 0.984 . S
N2293 H2299 0.985 . S
C2294 C2288 1.379 . S
C2294 C2291 1.363 . S
C2294 N2292 1.356 . S
C2295 C2289 1.363 . S
C2295 C2290 1.379 . S
C2295 N2293 1.356 . S
N2296 C2288 1.356 . S
N2296 H2302 0.984 . S
N2296 H2303 0.984 . S
N2297 C2290 1.356 . S
N2297 H2300 0.984 . S
N2297 H2301 0.985 . S
H2298 N2293 0.984 . S
H2299 N2293 0.985 . S
H2300 N2297 0.984 . S
H2301 N2297 0.985 . S
H2302 N2296 0.984 . S
H2303 N2296 0.984 . S
H2304 N2292 0.984 . S
H2305 N2292 0.985 . S
C2306 C2307 1.363 . S
C2306 C2312 1.379 . S
C2306 N2314 1.356 . S
C2307 C2306 1.363 . S
C2307 C2313 1.363 . S
C2308 C2309 1.363 . S
C2308 C2313 1.379 . S
C2308 N2315 1.356 . S
C2309 C2308 1.363 . S
C2309 C2312 1.363 . S
N2310 C2312 1.356 . S
N2310 H2322 0.984 . S
N2310 H2323 0.985 . S
N2311 C2313 1.356 . S
N2311 H2316 0.984 . S
N2311 H2317 0.985 . S
C2312 C2306 1.379 . S
C2312 C2309 1.363 . S
C2312 N2310 1.356 . S
C2313 C2307 1.363 . S
C2313 C2308 1.379 . S
C2313 N2311 1.356 . S
N2314 C2306 1.356 . S
N2314 H2320 0.984 . S
N2314 H2321 0.984 . S
N2315 C2308 1.356 . S
N2315 H2318 0.984 . S
N2315 H2319 0.985 . S
H2316 N2311 0.984 . S
H2317 N2311 0.985 . S
H2318 N2315 0.984 . S
H2319 N2315 0.985 . S
H2320 N2314 0.984 . S
H2321 N2314 0.984 . S
H2322 N2310 0.984 . S
H2323 N2310 0.985 . S
C2324 C2325 1.363 . S
C2324 C2330 1.379 . S
C2324 N2332 1.356 . S
C2325 C2324 1.363 . S
C2325 C2331 1.363 . S
C2326 C2327 1.363 . S
C2326 C2331 1.379 . S
C2326 N2333 1.356 . S
C2327 C2326 1.363 . S
C2327 C2330 1.363 . S
N2328 C2330 1.356 . S
N2328 H2340 0.984 . S
N2328 H2341 0.985 . S
N2329 C2331 1.356 . S
N2329 H2334 0.984 . S
N2329 H2335 0.985 . S
C2330 C2324 1.379 . S
C2330 C2327 1.363 . S
C2330 N2328 1.356 . S
C2331 C2325 1.363 . S
C2331 C2326 1.379 . S
C2331 N2329 1.356 . S
N2332 C2324 1.356 . S
N2332 H2338 0.984 . S
N2332 H2339 0.984 . S
N2333 C2326 1.356 . S
N2333 H2336 0.984 . S
N2333 H2337 0.985 . S
H2334 N2329 0.984 . S
H2335 N2329 0.985 . S
H2336 N2333 0.984 . S
H2337 N2333 0.985 . S
H2338 N2332 0.984 . S
H2339 N2332 0.984 . S
H2340 N2328 0.984 . S
H2341 N2328 0.985 . S
C2342 C2343 1.363 . S
C2342 C2348 1.379 . S
C2342 N2350 1.356 . S
C2343 C2342 1.363 . S
C2343 C2349 1.363 . S
C2344 C2345 1.363 . S
C2344 C2349 1.379 . S
C2344 N2351 1.356 . S
C2345 C2344 1.363 . S
C2345 C2348 1.363 . S
N2346 C2348 1.356 . S
N2346 H2358 0.984 . S
N2346 H2359 0.985 . S
N2347 C2349 1.356 . S
N2347 H2352 0.984 . S
N2347 H2353 0.985 . S
C2348 C2342 1.379 . S
C2348 C2345 1.363 . S
C2348 N2346 1.356 . S
C2349 C2343 1.363 . S
C2349 C2344 1.379 . S
C2349 N2347 1.356 . S
N2350 C2342 1.356 . S
N2350 H2356 0.984 . S
N2350 H2357 0.984 . S
N2351 C2344 1.356 . S
N2351 H2354 0.984 . S
N2351 H2355 0.985 . S
H2352 N2347 0.984 . S
H2353 N2347 0.985 . S
H2354 N2351 0.984 . S
H2355 N2351 0.985 . S
H2356 N2350 0.984 . S
H2357 N2350 0.984 . S
H2358 N2346 0.984 . S
H2359 N2346 0.985 . S
C2360 C2361 1.363 . S
C2360 C2366 1.379 . S
C2360 N2368 1.356 . S
C2361 C2360 1.363 . S
C2361 C2367 1.363 . S
C2362 C2363 1.363 . S
C2362 C2367 1.379 . S
C2362 N2369 1.356 . S
C2363 C2362 1.363 . S
C2363 C2366 1.363 . S
N2364 C2366 1.356 . S
N2364 H2376 0.984 . S
N2364 H2377 0.985 . S
N2365 C2367 1.356 . S
N2365 H2370 0.984 . S
N2365 H2371 0.985 . S
C2366 C2360 1.379 . S
C2366 C2363 1.363 . S
C2366 N2364 1.356 . S
C2367 C2361 1.363 . S
C2367 C2362 1.379 . S
C2367 N2365 1.356 . S
N2368 C2360 1.356 . S
N2368 H2374 0.984 . S
N2368 H2375 0.984 . S
N2369 C2362 1.356 . S
N2369 H2372 0.984 . S
N2369 H2373 0.985 . S
H2370 N2365 0.984 . S
H2371 N2365 0.985 . S
H2372 N2369 0.984 . S
H2373 N2369 0.985 . S
H2374 N2368 0.984 . S
H2375 N2368 0.984 . S
H2376 N2364 0.984 . S
H2377 N2364 0.985 . S
C2378 C2379 1.363 . S
C2378 C2384 1.379 . S
C2378 N2386 1.356 . S
C2379 C2378 1.363 . S
C2379 C2385 1.363 . S
C2380 C2381 1.363 . S
C2380 C2385 1.379 . S
C2380 N2387 1.356 . S
C2381 C2380 1.363 . S
C2381 C2384 1.363 . S
N2382 C2384 1.356 . S
N2382 H2394 0.984 . S
N2382 H2395 0.985 . S
N2383 C2385 1.356 . S
N2383 H2388 0.984 . S
N2383 H2389 0.985 . S
C2384 C2378 1.379 . S
C2384 C2381 1.363 . S
C2384 N2382 1.356 . S
C2385 C2379 1.363 . S
C2385 C2380 1.379 . S
C2385 N2383 1.356 . S
N2386 C2378 1.356 . S
N2386 H2392 0.984 . S
N2386 H2393 0.984 . S
N2387 C2380 1.356 . S
N2387 H2390 0.984 . S
N2387 H2391 0.985 . S
H2388 N2383 0.984 . S
H2389 N2383 0.985 . S
H2390 N2387 0.984 . S
H2391 N2387 0.985 . S
H2392 N2386 0.984 . S
H2393 N2386 0.984 . S
H2394 N2382 0.984 . S
H2395 N2382 0.985 . S
C2396 C2397 1.363 . S
C2396 C2402 1.379 . S
C2396 N2404 1.356 . S
C2397 C2396 1.363 . S
C2397 C2403 1.363 . S
C2398 C2399 1.363 . S
C2398 C2403 1.379 . S
C2398 N2405 1.356 . S
C2399 C2398 1.363 . S
C2399 C2402 1.363 . S
N2400 C2402 1.356 . S
N2400 H2412 0.984 . S
N2400 H2413 0.985 . S
N2401 C2403 1.356 . S
N2401 H2406 0.984 . S
N2401 H2407 0.985 . S
C2402 C2396 1.379 . S
C2402 C2399 1.363 . S
C2402 N2400 1.356 . S
C2403 C2397 1.363 . S
C2403 C2398 1.379 . S
C2403 N2401 1.356 . S
N2404 C2396 1.356 . S
N2404 H2410 0.984 . S
N2404 H2411 0.984 . S
N2405 C2398 1.356 . S
N2405 H2408 0.984 . S
N2405 H2409 0.985 . S
H2406 N2401 0.984 . S
H2407 N2401 0.985 . S
H2408 N2405 0.984 . S
H2409 N2405 0.985 . S
H2410 N2404 0.984 . S
H2411 N2404 0.984 . S
H2412 N2400 0.984 . S
H2413 N2400 0.985 . S
C2414 C2415 1.363 . S
C2414 C2420 1.379 . S
C2414 N2422 1.356 . S
C2415 C2414 1.363 . S
C2415 C2421 1.363 . S
C2416 C2417 1.363 . S
C2416 C2421 1.379 . S
C2416 N2423 1.356 . S
C2417 C2416 1.363 . S
C2417 C2420 1.363 . S
N2418 C2420 1.356 . S
N2418 H2430 0.984 . S
N2418 H2431 0.985 . S
N2419 C2421 1.356 . S
N2419 H2424 0.984 . S
N2419 H2425 0.985 . S
C2420 C2414 1.379 . S
C2420 C2417 1.363 . S
C2420 N2418 1.356 . S
C2421 C2415 1.363 . S
C2421 C2416 1.379 . S
C2421 N2419 1.356 . S
N2422 C2414 1.356 . S
N2422 H2428 0.984 . S
N2422 H2429 0.984 . S
N2423 C2416 1.356 . S
N2423 H2426 0.984 . S
N2423 H2427 0.985 . S
H2424 N2419 0.984 . S
H2425 N2419 0.985 . S
H2426 N2423 0.984 . S
H2427 N2423 0.985 . S
H2428 N2422 0.984 . S
H2429 N2422 0.984 . S
H2430 N2418 0.984 . S
H2431 N2418 0.985 . S
C705 C367 1.183 . S
C707 C21 1.183 . S
C723 C513 1.183 . S
C725 C37 1.183 . S
C741 C59 1.183 . S
C743 C469 1.183 . S
C759 C73 1.183 . S
C761 C491 1.183 . S
C777 C109 1.183 . S
C779 C389 1.183 . S
C795 C117 1.183 . S
C797 C411 1.183 . S
C813 C425 1.183 . S
C815 C139 1.183 . S
C831 C161 1.183 . S
C833 C447 1.183 . S
C849 C197 1.183 . S
C851 C15 1.183 . S
C867 C29 1.183 . S
C869 C219 1.183 . S
C885 C227 1.183 . S
C887 C51 1.183 . S
C903 C87 1.183 . S
C905 C263 1.183 . S
C921 C103 1.183 . S
C923 C271 1.183 . S
C939 C307 1.183 . S
C941 C131 1.183 . S
C957 C153 1.183 . S
C959 C329 1.183 . S
C975 C337 1.183 . S
C977 C175 1.183 . S
C993 C191 1.183 . S
C995 C373 1.183 . S
C1011 C395 1.183 . S
C1013 C285 1.183 . S
C1029 C417 1.183 . S
C1031 C301 1.183 . S
C1047 C323 1.183 . S
C1049 C433 1.183 . S
C1065 C455 1.183 . S
C1067 C351 1.183 . S
C1083 C477 1.183 . S
C1085 C241 1.183 . S
C1101 C257 1.183 . S
C1103 C499 1.183 . S
C1119 C521 1.183 . S
C1121 C213 1.183 . S
C1137 C689 1.183 . S
C1139 C345 1.183 . S
C1155 C293 1.183 . S
C1157 C667 1.183 . S
C1173 C631 1.183 . S
C1175 C249 1.183 . S
C1191 C653 1.183 . S
C1193 C205 1.183 . S
C1209 C381 1.183 . S
C1211 C549 1.183 . S
C1227 C439 1.183 . S
C1229 C557 1.183 . S
C1245 C579 1.183 . S
C1247 C359 1.183 . S
C1263 C601 1.183 . S
C1265 C483 1.183 . S
C1281 C543 1.183 . S
C1283 C95 1.183 . S
C1299 C593 1.183 . S
C1301 C7 1.183 . S
C1317 C81 1.183 . S
C1319 C637 1.183 . S
C1335 C615 1.183 . S
C1337 C65 1.183 . S
C1353 C659 1.183 . S
C1355 C43 1.183 . S
C1371 C147 1.183 . S
C1373 C571 1.183 . S
C1389 C675 1.183 . S
C1391 C125 1.183 . S
C1407 C169 1.183 . S
C1409 C697 1.183 . S
C1425 C315 1.183 . S
C1427 C565 1.183 . S
C1443 C279 1.183 . S
C1445 C535 1.183 . S
C1461 C609 1.183 . S
C1463 C235 1.183 . S
C1479 C587 1.183 . S
C1481 C183 1.183 . S
C1497 C403 1.183 . S
C1499 C681 1.183 . S
C1515 C461 1.183 . S
C1517 C703 1.183 . S
C1533 C645 1.183 . S
C1535 C527 1.183 . S
C1551 C505 1.183 . S
C1553 C623 1.183 . S
C1569 C84 1.553 . S
C1571 C10 1.553 . S
C1587 C40 1.553 . S
C1589 C8 1.553 . S
C1605 C32 1.553 . S
C1607 C62 1.553 . S
C1623 C54 1.553 . S
C1625 C74 1.553 . S
C1641 C128 1.553 . S
C1643 C98 1.553 . S
C1659 C150 1.553 . S
C1661 C118 1.553 . S
C1677 C140 1.553 . S
C1679 C172 1.553 . S
C1695 C162 1.553 . S
C1697 C96 1.553 . S
C1713 C186 1.553 . S
C1715 C404 1.553 . S
C1731 C428 1.553 . S
C1733 C208 1.553 . S
C1749 C450 1.553 . S
C1751 C228 1.553 . S
C1767 C252 1.553 . S
C1769 C382 1.553 . S
C1785 C272 1.553 . S
C1787 C494 1.553 . S
C1803 C360 1.553 . S
C1805 C296 1.553 . S
C1821 C516 1.553 . S
C1823 C318 1.553 . S
C1839 C338 1.553 . S
C1841 C472 1.553 . S
C1857 C362 1.553 . S
C1859 C206 1.553 . S
C1875 C384 1.553 . S
C1877 C348 1.553 . S
C1893 C282 1.553 . S
C1895 C406 1.553 . S
C1911 C294 1.553 . S
C1913 C436 1.553 . S
C1929 C458 1.553 . S
C1931 C316 1.553 . S
C1947 C480 1.553 . S
C1949 C250 1.553 . S
C1965 C502 1.553 . S
C1967 C184 1.553 . S
C1983 C238 1.553 . S
C1985 C524 1.553 . S
C2001 C392 1.553 . S
C2003 C304 1.553 . S
C2019 C340 1.553 . S
C2021 C426 1.553 . S
C2037 C370 1.553 . S
C2039 C260 1.553 . S
C2055 C216 1.553 . S
C2057 C470 1.553 . S
C2073 C538 1.553 . S
C2075 C624 1.553 . S
C2091 C52 1.553 . S
C2093 C164 1.553 . S
C2109 C558 1.553 . S
C2111 C646 1.553 . S
C2127 C120 1.553 . S
C2129 C18 1.553 . S
C2145 C670 1.553 . S
C2147 C580 1.553 . S
C2163 C76 1.553 . S
C2165 C106 1.553 . S
C2181 C602 1.553 . S
C2183 C692 1.553 . S
C2199 C142 1.553 . S
C2201 C30 1.553 . S
C2217 C626 1.553 . S
C2219 C590 1.553 . S
C2235 C612 1.553 . S
C2237 C648 1.553 . S
C2253 C536 1.553 . S
C2255 C678 1.553 . S
C2271 C568 1.553 . S
C2273 C700 1.553 . S
C2289 C414 1.553 . S
C2291 C326 1.553 . S
C2307 C448 1.553 . S
C2309 C274 1.553 . S
C2325 C194 1.553 . S
C2327 C514 1.553 . S
C2343 C230 1.553 . S
C2345 C492 1.553 . S
C2361 C668 1.553 . S
C2363 C560 1.553 . S
C2379 C634 1.553 . S
C2381 C604 1.553 . S
C2397 C656 1.553 . S
C2399 C582 1.553 . S
C2415 C546 1.553 . S
C2417 C690 1.553 . S
