# Generated by pormake.
# Topology ukg, (4)-cn, num edge types: 1
# Building blocks:
#     Node 0, Type 0, BuildingBlock: KOZSID_clean_sbu_0, # of connection points: 4
#     Node 1, Type 0, BuildingBlock: KOZSID_clean_sbu_0, # of connection points: 4
#     Node 2, Type 0, BuildingBlock: KOZSID_clean_sbu_0, # of connection points: 4
#     Node 3, Type 0, BuildingBlock: KOZSID_clean_sbu_0, # of connection points: 4
#     Node 4, Type 0, BuildingBlock: KOZSID_clean_sbu_0, # of connection points: 4
#     Node 5, Type 0, BuildingBlock: KOZSID_clean_sbu_0, # of connection points: 4
#     Node 6, Type 0, BuildingBlock: KOZSID_clean_sbu_0, # of connection points: 4
#     Node 7, Type 0, BuildingBlock: KOZSID_clean_sbu_0, # of connection points: 4
#     Edge 8, Type (0, 0), BuildingBlock: TEMPAE_clean_linker_10, # of connection points: 2
#     Edge 9, Type (0, 0), BuildingBlock: TEMPAE_clean_linker_10, # of connection points: 2
#     Edge 10, Type (0, 0), BuildingBlock: TEMPAE_clean_linker_10, # of connection points: 2
#     Edge 11, Type (0, 0), BuildingBlock: TEMPAE_clean_linker_10, # of connection points: 2
#     Edge 12, Type (0, 0), BuildingBlock: TEMPAE_clean_linker_10, # of connection points: 2
#     Edge 13, Type (0, 0), BuildingBlock: TEMPAE_clean_linker_10, # of connection points: 2
#     Edge 14, Type (0, 0), BuildingBlock: TEMPAE_clean_linker_10, # of connection points: 2
#     Edge 15, Type (0, 0), BuildingBlock: TEMPAE_clean_linker_10, # of connection points: 2
#     Edge 16, Type (0, 0), BuildingBlock: TEMPAE_clean_linker_10, # of connection points: 2
#     Edge 17, Type (0, 0), BuildingBlock: TEMPAE_clean_linker_10, # of connection points: 2
#     Edge 18, Type (0, 0), BuildingBlock: TEMPAE_clean_linker_10, # of connection points: 2
#     Edge 19, Type (0, 0), BuildingBlock: TEMPAE_clean_linker_10, # of connection points: 2
#     Edge 20, Type (0, 0), BuildingBlock: TEMPAE_clean_linker_10, # of connection points: 2
#     Edge 21, Type (0, 0), BuildingBlock: TEMPAE_clean_linker_10, # of connection points: 2
#     Edge 22, Type (0, 0), BuildingBlock: TEMPAE_clean_linker_10, # of connection points: 2
#     Edge 23, Type (0, 0), BuildingBlock: TEMPAE_clean_linker_10, # of connection points: 2
# Relax obj value: 0.107
# Max RMSD: 0.261
# Mean RMSD: 0.246
data_MOF--net-ukg--node1-KOZSID_clean_sbu_0--edge1-TEMPAE_clean_linker_10
_symmetry_space_group_name_H-M    P1
_symmetry_Int_Tables_number       1
_symmetry_cell_setting            triclinic
loop_
_symmetry_equiv_pos_as_xyz
'x, y, z'
_cell_length_a     36.201342
_cell_length_b     36.214393
_cell_length_c     49.390678
_cell_angle_alpha  90.425619
_cell_angle_beta   89.525531
_cell_angle_gamma 90.058516
loop_
_atom_site_label
_atom_site_type_symbol
_atom_site_fract_x
_atom_site_fract_y
_atom_site_fract_z
_atom_type_partial_charge
C0 C 0.95306 0.63747 0.16591 0.0
C1 C 0.92093 0.65446 0.15724 0.0
C2 C 0.93077 0.68892 0.14854 0.0
C3 C 0.96823 0.69101 0.1522 0.0
N4 N 0.98282 0.65986 0.16232 0.0
Co5 Co 0.0358 0.65224 0.1714 0.0
N6 N 0.05172 0.69701 0.15088 0.0
C7 C 0.0293 0.72408 0.14226 0.0
C8 C 0.04781 0.75195 0.12923 0.0
C9 C 0.08432 0.74214 0.12993 0.0
C10 C 0.08604 0.70875 0.14346 0.0
N11 N 0.08875 0.64486 0.1808 0.0
C12 C 0.11985 0.66105 0.17088 0.0
C13 C 0.1511 0.64816 0.18395 0.0
C14 C 0.1392 0.62338 0.20282 0.0
C15 C 0.10154 0.62247 0.20026 0.0
N16 N 0.02028 0.60737 0.19187 0.0
C17 C 0.04097 0.58903 0.20989 0.0
C18 C 0.02327 0.55938 0.22117 0.0
C19 C 0.98896 0.55913 0.20988 0.0
C20 C 0.98765 0.58883 0.19222 0.0
N21 N 0.0419 0.6219 0.13843 0.0
C22 C 0.04013 0.57566 0.09218 0.0
C23 C 0.0553 0.56341 0.11668 0.0
C24 C 0.05629 0.58702 0.13938 0.0
C25 C 0.02784 0.61235 0.09123 0.0
C26 C 0.0286 0.63465 0.11442 0.0
N27 N 0.02838 0.68302 0.20413 0.0
C28 C 0.98785 0.70209 0.24064 0.0
C29 C 1.00666 0.73582 0.24353 0.0
C30 C 0.03894 0.74058 0.22779 0.0
C31 C 0.04975 0.71354 0.20884 0.0
C32 C 0.99857 0.67672 0.22067 0.0
H33 H 0.07438 0.71846 0.19703 0.0
H34 H 0.98137 0.65283 0.21798 0.0
H35 H 0.06759 0.57657 0.15793 0.0
H36 H 0.01731 0.66198 0.11293 0.0
C37 C 0.99096 0.72014 0.14397 0.0
C38 C 0.95337 0.60158 0.17965 0.0
C39 C 0.12091 0.69105 0.15109 0.0
C40 C 0.07804 0.59791 0.21345 0.0
H41 H 0.89317 0.64335 0.15768 0.0
H42 H 0.9128 0.70974 0.14019 0.0
H43 H 0.03613 0.77616 0.11987 0.0
H44 H 0.10714 0.75806 0.12184 0.0
H45 H 0.17954 0.65627 0.18055 0.0
H46 H 0.15606 0.60738 0.2164 0.0
H47 H 0.03412 0.53999 0.23566 0.0
H48 H 0.96706 0.53994 0.21486 0.0
H49 H 0.06522 0.5354 0.11873 0.0
H50 H 0.01706 0.62391 0.07276 0.0
H51 H 0.96402 0.69545 0.25302 0.0
H52 H 0.05511 0.76564 0.22897 0.0
C53 C 0.41607 0.50924 0.61817 0.0
C54 C 0.4483 0.52968 0.62106 0.0
C55 C 0.44398 0.55094 0.64399 0.0
C56 C 0.40966 0.54212 0.65407 0.0
N57 N 0.39237 0.51631 0.63903 0.0
Co58 Co 0.34294 0.495 0.64699 0.0
N59 N 0.3441 0.51214 0.68519 0.0
C60 C 0.36622 0.53865 0.69526 0.0
C61 C 0.36144 0.54367 0.72267 0.0
C62 C 0.33456 0.51885 0.73017 0.0
C63 C 0.32425 0.50014 0.7068 0.0
N64 N 0.29361 0.47376 0.65474 0.0
C65 C 0.27793 0.46498 0.6788 0.0
C66 C 0.24251 0.45109 0.67517 0.0
C67 C 0.2361 0.45119 0.64783 0.0
C68 C 0.26776 0.4652 0.63633 0.0
N69 N 0.34137 0.47797 0.6088 0.0
C70 C 0.3106 0.46896 0.59511 0.0
C71 C 0.31757 0.45984 0.56854 0.0
C72 C 0.35501 0.46362 0.56528 0.0
C73 C 0.36891 0.47476 0.59019 0.0
N74 N 0.36597 0.44856 0.658 0.0
C75 C 0.38928 0.38459 0.68447 0.0
C76 C 0.36185 0.38273 0.66459 0.0
C77 C 0.35061 0.41513 0.65152 0.0
C78 C 0.40676 0.4185 0.68906 0.0
C79 C 0.39493 0.44993 0.67557 0.0
N80 N 0.31976 0.54199 0.63685 0.0
C81 C 0.31962 0.59801 0.61064 0.0
C82 C 0.29201 0.6134 0.62742 0.0
C83 C 0.27746 0.59124 0.64812 0.0
C84 C 0.29177 0.55603 0.65258 0.0
C85 C 0.33286 0.56227 0.61555 0.0
H86 H 0.28075 0.54059 0.66938 0.0
H87 H 0.35454 0.55154 0.60263 0.0
H88 H 0.32819 0.41349 0.63729 0.0
H89 H 0.40788 0.47578 0.68067 0.0
C90 C 0.39566 0.55235 0.67964 0.0
C91 C 0.40762 0.48543 0.59463 0.0
C92 C 0.29465 0.47233 0.70529 0.0
C93 C 0.2768 0.46449 0.60872 0.0
H94 H 0.47247 0.52942 0.60804 0.0
H95 H 0.46413 0.56943 0.65284 0.0
H96 H 0.37697 0.56176 0.7359 0.0
H97 H 0.32408 0.51484 0.75051 0.0
H98 H 0.22323 0.44208 0.69065 0.0
H99 H 0.21184 0.44092 0.63755 0.0
H100 H 0.29794 0.4507 0.55349 0.0
H101 H 0.37017 0.45937 0.54654 0.0
H102 H 0.34786 0.35694 0.66025 0.0
H103 H 0.42866 0.42102 0.70378 0.0
H104 H 0.33193 0.61381 0.59438 0.0
H105 H 0.25539 0.60113 0.66119 0.0
C106 C 0.54367 0.8583 0.16973 0.0
C107 C 0.57627 0.84072 0.16211 0.0
C108 C 0.56676 0.80632 0.15288 0.0
C109 C 0.52906 0.80465 0.15541 0.0
N110 N 0.51396 0.83603 0.16528 0.0
Co111 Co 0.46042 0.84337 0.17394 0.0
N112 N 0.44563 0.79799 0.15341 0.0
C113 C 0.46859 0.77091 0.14504 0.0
C114 C 0.45082 0.7425 0.132 0.0
C115 C 0.41421 0.75196 0.13242 0.0
C116 C 0.4117 0.7857 0.1458 0.0
N117 N 0.40697 0.85064 0.18276 0.0
C118 C 0.37641 0.834 0.17254 0.0
C119 C 0.34447 0.84721 0.18504 0.0
C120 C 0.35535 0.87277 0.20381 0.0
C121 C 0.39311 0.87376 0.20177 0.0
N122 N 0.47483 0.88873 0.19454 0.0
C123 C 0.45285 0.90843 0.2114 0.0
C124 C 0.46924 0.93976 0.22136 0.0
C125 C 0.50406 0.93963 0.21054 0.0
C126 C 0.50719 0.90768 0.1949 0.0
N127 N 0.45532 0.87294 0.14086 0.0
C128 C 0.4561 0.91758 0.09417 0.0
C129 C 0.44017 0.93012 0.11864 0.0
C130 C 0.43972 0.90734 0.14154 0.0
C131 C 0.47012 0.88146 0.09356 0.0
C132 C 0.46976 0.85994 0.11696 0.0
N133 N 0.46658 0.8133 0.20673 0.0
C134 C 0.50708 0.7921 0.24193 0.0
C135 C 0.48515 0.76069 0.24607 0.0
C136 C 0.45208 0.75785 0.23153 0.0
C137 C 0.44317 0.78454 0.21219 0.0
C138 C 0.49723 0.818 0.22244 0.0
H139 H 0.41815 0.78085 0.20084 0.0
H140 H 0.51574 0.84076 0.2192 0.0
H141 H 0.42757 0.91802 0.15996 0.0
H142 H 0.48198 0.83294 0.11569 0.0
C143 C 0.50681 0.77522 0.14707 0.0
C144 C 0.54267 0.89398 0.18421 0.0
C145 C 0.37641 0.80343 0.15289 0.0
C146 C 0.41572 0.89942 0.21463 0.0
H147 H 0.60418 0.8511 0.16383 0.0
H148 H 0.58518 0.78506 0.14527 0.0
H149 H 0.46307 0.71814 0.12283 0.0
H150 H 0.39183 0.73563 0.12421 0.0
H151 H 0.31624 0.83891 0.18126 0.0
H152 H 0.33774 0.88935 0.21688 0.0
H153 H 0.45708 0.96066 0.23442 0.0
H154 H 0.52515 0.96016 0.21441 0.0
H155 H 0.42903 0.95775 0.12049 0.0
H156 H 0.48169 0.86968 0.07517 0.0
H157 H 0.53287 0.79579 0.25257 0.0
H158 H 0.43362 0.73467 0.23451 0.0
C159 C 0.08132 0.98244 0.61297 0.0
C160 C 0.05015 0.9601 0.61379 0.0
C161 C 0.05334 0.93829 0.63628 0.0
C162 C 0.08622 0.94835 0.6479 0.0
N163 N 0.10369 0.97532 0.63422 0.0
Co164 Co 0.15248 0.99665 0.64359 0.0
N165 N 0.14925 0.97835 0.68127 0.0
C166 C 0.12687 0.95128 0.69014 0.0
C167 C 0.1302 0.94531 0.71746 0.0
C168 C 0.15642 0.97008 0.72616 0.0
C169 C 0.16783 0.9897 0.70356 0.0
N170 N 0.20124 0.0179 0.65282 0.0
C171 C 0.2156 0.02579 0.67739 0.0
C172 C 0.25109 0.04007 0.6748 0.0
C173 C 0.25888 0.04124 0.64759 0.0
C174 C 0.22794 0.02752 0.63513 0.0
N175 N 0.15596 0.0149 0.60588 0.0
C176 C 0.18713 0.02591 0.59322 0.0
C177 C 0.18101 0.0383 0.56748 0.0
C178 C 0.14377 0.03449 0.56358 0.0
C179 C 0.12917 0.01938 0.58716 0.0
N180 N 0.12855 0.0426 0.65536 0.0
C181 C 0.10266 0.10608 0.68218 0.0
C182 C 0.13146 0.10837 0.66308 0.0
C183 C 0.14396 0.07626 0.64982 0.0
C184 C 0.08534 0.07189 0.68588 0.0
C185 C 0.09853 0.04068 0.67225 0.0
N186 N 0.17655 0.95013 0.63262 0.0
C187 C 0.17845 0.89491 0.60496 0.0
C188 C 0.20536 0.87942 0.62172 0.0
C189 C 0.21845 0.90074 0.64338 0.0
C190 C 0.20367 0.93572 0.64853 0.0
C191 C 0.16477 0.93044 0.61055 0.0
H192 H 0.21341 0.95057 0.66606 0.0
H193 H 0.14389 0.94153 0.59745 0.0
H194 H 0.16726 0.07833 0.63615 0.0
H195 H 0.08557 0.0146 0.6766 0.0
C196 C 0.09876 0.93746 0.67347 0.0
C197 C 0.09052 1.00728 0.59042 0.0
C198 C 0.19746 0.01754 0.70335 0.0
C199 C 0.22014 0.02995 0.60752 0.0
H200 H 0.02775 0.95923 0.59943 0.0
H201 H 0.03353 0.91825 0.64364 0.0
H202 H 0.11424 0.9265 0.72984 0.0
H203 H 0.16586 0.97335 0.74677 0.0
H204 H 0.26946 0.04864 0.69085 0.0
H205 H 0.2835 0.0523 0.63805 0.0
H206 H 0.20095 0.05015 0.55358 0.0
H207 H 0.12925 0.042 0.5454 0.0
H208 H 0.14546 0.13433 0.65945 0.0
H209 H 0.06241 0.06899 0.69993 0.0
H210 H 0.16784 0.87956 0.5878 0.0
H211 H 0.23897 0.88985 0.65702 0.0
C212 C 0.01663 0.36198 0.93498 0.0
C213 C 0.03109 0.3472 0.95853 0.0
C214 C 0.03438 0.30992 0.95426 0.0
C215 C 0.02232 0.30396 0.92834 0.0
N216 N 0.012 0.33526 0.91593 0.0
Co217 Co 0.99427 0.33894 0.87818 0.0
N218 N 0.0149 0.28992 0.86856 0.0
C219 C 0.02386 0.2631 0.886 0.0
C220 C 0.03737 0.23204 0.87326 0.0
C221 C 0.03677 0.2399 0.84614 0.0
C222 C 0.02302 0.27554 0.84388 0.0
N223 N 0.97645 0.34234 0.84044 0.0
C224 C 0.98791 0.32367 0.81802 0.0
C225 C 0.96872 0.33524 0.79541 0.0
C226 C 0.94414 0.36171 0.80425 0.0
C227 C 0.94978 0.365 0.83164 0.0
N228 N 0.97357 0.388 0.88792 0.0
C229 C 0.94701 0.4058 0.87428 0.0
C230 C 0.93737 0.43885 0.88618 0.0
C231 C 0.959 0.44179 0.90881 0.0
C232 C 0.98082 0.41031 0.90944 0.0
N233 N 0.04073 0.36222 0.86687 0.0
C234 C 0.10462 0.38665 0.84001 0.0
C235 C 0.07079 0.40461 0.83657 0.0
C236 C 0.03938 0.39217 0.85023 0.0
C237 C 0.10643 0.35804 0.85895 0.0
C238 C 0.0741 0.34627 0.87224 0.0
N239 N 0.94721 0.31556 0.8886 0.0
C240 C 0.89716 0.27473 0.87676 0.0
C241 C 0.87516 0.2887 0.89799 0.0
C242 C 0.89114 0.31502 0.91542 0.0
C243 C 0.92722 0.32777 0.91053 0.0
C244 C 0.93267 0.2886 0.87232 0.0
H245 H 0.93841 0.34851 0.92395 0.0
H246 H 0.94788 0.27824 0.85503 0.0
H247 H 0.01355 0.40556 0.84603 0.0
H248 H 0.07574 0.32304 0.88573 0.0
C249 C 0.02603 0.27087 0.91372 0.0
C250 C 1.00525 0.40078 0.93202 0.0
C251 C 0.01553 0.2939 0.8181 0.0
C252 C 0.9362 0.39334 0.84852 0.0
H253 H 0.0385 0.36165 0.97694 0.0
H254 H 0.04566 0.28984 0.96804 0.0
H255 H 0.04796 0.2073 0.88258 0.0
H256 H 0.0454 0.22149 0.82992 0.0
H257 H 0.9722 0.32577 0.77472 0.0
H258 H 0.92572 0.37787 0.79191 0.0
H259 H 0.91774 0.45892 0.87891 0.0
H260 H 0.95835 0.46423 0.9234 0.0
H261 H 0.0683 0.42744 0.82265 0.0
H262 H 0.13213 0.3436 0.8624 0.0
H263 H 0.88688 0.25354 0.86319 0.0
H264 H 0.87554 0.32678 0.93215 0.0
C265 C 0.58946 0.51088 0.32914 0.0
C266 C 0.56028 0.5093 0.31102 0.0
C267 C 0.56068 0.47478 0.29972 0.0
C268 C 0.58989 0.4572 0.31144 0.0
N269 N 0.60782 0.47821 0.32975 0.0
Co270 Co 0.65221 0.46307 0.35061 0.0
N271 N 0.64489 0.40993 0.34108 0.0
C272 C 0.62302 0.3968 0.32127 0.0
C273 C 0.62377 0.35909 0.31879 0.0
C274 C 0.6479 0.34754 0.33808 0.0
C275 C 0.66058 0.37904 0.35131 0.0
N276 N 0.69656 0.44759 0.37144 0.0
C277 C 0.70807 0.41344 0.37895 0.0
C278 C 0.74127 0.41543 0.39273 0.0
C279 C 0.75118 0.45193 0.39349 0.0
C280 C 0.72355 0.47019 0.38026 0.0
N281 N 0.65973 0.51627 0.35985 0.0
C282 C 0.69085 0.53109 0.37006 0.0
C283 C 0.68865 0.56858 0.37392 0.0
C284 C 0.65419 0.57818 0.36521 0.0
C285 C 0.63728 0.5459 0.35636 0.0
N286 N 0.62137 0.45738 0.3833 0.0
C287 C 0.57572 0.45515 0.42989 0.0
C288 C 0.61031 0.47266 0.43029 0.0
C289 C 0.63261 0.47314 0.40708 0.0
C290 C 0.56496 0.43804 0.40552 0.0
C291 C 0.58805 0.43956 0.38252 0.0
N292 N 0.68354 0.46972 0.31818 0.0
C293 C 0.73891 0.45453 0.29293 0.0
C294 C 0.73673 0.48773 0.27851 0.0
C295 C 0.70587 0.51029 0.28314 0.0
C296 C 0.67968 0.50075 0.30282 0.0
C297 C 0.71196 0.44594 0.31247 0.0
H298 H 0.65733 0.5197 0.30642 0.0
H299 H 0.71509 0.42076 0.32371 0.0
H300 H 0.65876 0.4871 0.40837 0.0
H301 H 0.57872 0.42672 0.36404 0.0
C302 C 0.59882 0.42009 0.30785 0.0
C303 C 0.60163 0.54527 0.34229 0.0
C304 C 0.69013 0.37843 0.37145 0.0
C305 C 0.7198 0.5085 0.37848 0.0
H306 H 0.54129 0.53113 0.30582 0.0
H307 H 0.54168 0.4637 0.28491 0.0
H308 H 0.60805 0.34196 0.305 0.0
H309 H 0.65576 0.31916 0.34163 0.0
H310 H 0.75696 0.39279 0.401 0.0
H311 H 0.77529 0.4638 0.40303 0.0
H312 H 0.70939 0.58671 0.38243 0.0
H313 H 0.64305 0.60589 0.36485 0.0
H314 H 0.61996 0.48695 0.44821 0.0
H315 H 0.53887 0.42355 0.40409 0.0
H316 H 0.76173 0.43567 0.28963 0.0
H317 H 0.70279 0.53627 0.27269 0.0
C318 C 0.46772 0.12759 0.93594 0.0
C319 C 0.45188 0.14153 0.95963 0.0
C320 C 0.44732 0.17869 0.95597 0.0
C321 C 0.46003 0.1854 0.93024 0.0
N322 N 0.47193 0.15467 0.91734 0.0
Co323 Co 0.49122 0.15224 0.87964 0.0
N324 N 0.46972 0.20095 0.87086 0.0
C325 C 0.45918 0.2271 0.88878 0.0
C326 C 0.44526 0.25802 0.8766 0.0
C327 C 0.44725 0.2508 0.84932 0.0
C328 C 0.46221 0.21566 0.84643 0.0
N329 N 0.51056 0.15011 0.84198 0.0
C330 C 0.49961 0.16905 0.81988 0.0
C331 C 0.52003 0.15855 0.79721 0.0
C332 C 0.54484 0.13242 0.80567 0.0
C333 C 0.53811 0.1283 0.8329 0.0
N334 N 0.51283 0.10347 0.88851 0.0
C335 C 0.54024 0.08661 0.87459 0.0
C336 C 0.55061 0.05373 0.88592 0.0
C337 C 0.52861 0.0499 0.90849 0.0
C338 C 0.50585 0.08073 0.90968 0.0
N339 N 0.44579 0.12806 0.86745 0.0
C340 C 0.38322 0.10229 0.84005 0.0
C341 C 0.41768 0.08546 0.83619 0.0
C342 C 0.44842 0.09856 0.85012 0.0
C343 C 0.38017 0.13049 0.85957 0.0
C344 C 0.41183 0.14295 0.87311 0.0
N345 N 0.53724 0.17655 0.89105 0.0
C346 C 0.59179 0.17799 0.91882 0.0
C347 C 0.6077 0.20524 0.90237 0.0
C348 C 0.58686 0.21887 0.88089 0.0
C349 C 0.55196 0.20412 0.87551 0.0
C350 C 0.55639 0.16439 0.91305 0.0
H351 H 0.53749 0.21423 0.85809 0.0
H352 H 0.54503 0.14321 0.9259 0.0
H353 H 0.47474 0.086 0.84568 0.0
H354 H 0.40918 0.16583 0.88709 0.0
C355 C 0.45596 0.21863 0.91627 0.0
C356 C 0.48098 0.08935 0.93261 0.0
C357 C 0.47129 0.19815 0.82032 0.0
C358 C 0.55167 0.09991 0.84923 0.0
H359 H 0.44453 0.1266 0.97778 0.0
H360 H 0.43493 0.1982 0.97004 0.0
H361 H 0.43346 0.28219 0.88635 0.0
H362 H 0.4387 0.26926 0.83343 0.0
H363 H 0.51723 0.16851 0.77674 0.0
H364 H 0.56418 0.11703 0.79315 0.0
H365 H 0.5711 0.03442 0.87837 0.0
H366 H 0.52972 0.02737 0.92274 0.0
H367 H 0.42115 0.06297 0.82181 0.0
H368 H 0.35399 0.1441 0.86334 0.0
H369 H 0.60674 0.16699 0.93586 0.0
H370 H 0.59808 0.23972 0.86752 0.0
C371 C 0.90935 0.99387 0.33089 0.0
C372 C 0.94192 0.99744 0.31602 0.0
C373 C 0.94208 0.03225 0.30559 0.0
C374 C 0.91011 0.04818 0.31501 0.0
N375 N 0.88999 0.02594 0.33118 0.0
Co376 Co 0.84376 0.03972 0.35119 0.0
N377 N 0.8506 0.0932 0.34294 0.0
C378 C 0.8741 0.10729 0.32439 0.0
C379 C 0.8725 0.14498 0.3225 0.0
C380 C 0.84615 0.15558 0.34088 0.0
C381 C 0.83311 0.12355 0.35302 0.0
N382 N 0.79784 0.05401 0.37152 0.0
C383 C 0.78508 0.0878 0.3794 0.0
C384 C 0.75122 0.08491 0.39258 0.0
C385 C 0.74214 0.0482 0.39259 0.0
C386 C 0.77089 0.03075 0.37952 0.0
N387 N 0.83661 0.98614 0.35898 0.0
C388 C 0.80509 0.97072 0.36824 0.0
C389 C 0.8068 0.93301 0.36995 0.0
C390 C 0.84137 0.92384 0.36081 0.0
C391 C 0.85903 0.95665 0.35409 0.0
N392 N 0.87252 0.0451 0.3847 0.0
C393 C 0.91695 0.04275 0.43144 0.0
C394 C 0.88071 0.02892 0.4316 0.0
C395 C 0.85932 0.03002 0.40818 0.0
C396 C 0.92956 0.05965 0.40751 0.0
C397 C 0.90685 0.06094 0.38461 0.0
N398 N 0.81454 0.03299 0.3179 0.0
C399 C 0.75677 0.0418 0.29473 0.0
C400 C 0.76296 1.01024 0.27847 0.0
C401 C 0.79756 0.99303 0.28069 0.0
C402 C 0.82239 1.00428 0.30064 0.0
C403 C 0.78323 0.0532 0.31366 0.0
H404 H 0.84707 0.98823 0.30276 0.0
H405 H 0.77716 0.07721 0.3259 0.0
H406 H 0.83234 0.01765 0.40902 0.0
H407 H 0.91764 0.07373 0.3666 0.0
C408 C 0.90063 0.0851 0.31187 0.0
C409 C 0.89526 0.95813 0.3404 0.0
C410 C 0.80225 0.12329 0.37243 0.0
C411 C 0.77544 0.99263 0.37684 0.0
H412 H 0.96277 0.97658 0.31228 0.0
H413 H 0.96332 0.04466 0.29307 0.0
H414 H 0.88922 0.16275 0.30981 0.0
H415 H 0.83732 0.1837 0.34469 0.0
H416 H 0.73449 0.10712 0.40082 0.0
H417 H 0.71774 0.03569 0.40141 0.0
H418 H 0.78545 0.91436 0.37697 0.0
H419 H 0.85183 0.89601 0.35863 0.0
H420 H 0.8688 0.01674 0.44961 0.0
H421 H 0.95724 0.07079 0.40601 0.0
H422 H 0.73105 0.05686 0.29403 0.0
H423 H 0.80531 0.96997 0.26782 0.0
C424 C 0.03177 0.45922 0.95175 0.0
C425 C 1.01016 0.42744 0.955 0.0
C426 C 0.03724 0.48407 0.97347 0.0
C427 C 0.02098 0.47672 0.99912 0.0
C428 C 0.99869 0.44482 1.00229 0.0
C429 C 0.99307 0.42097 0.98011 0.0
C430 C 0.06036 0.5182 0.96896 0.0
C431 C 0.98105 0.43564 0.02922 0.0
C432 C 0.06147 0.52216 0.06245 0.0
C433 C 0.03585 0.55042 0.06807 0.0
C434 C 0.05706 0.49809 0.04013 0.0
C435 C 0.02666 0.50261 0.02255 0.0
C436 C 1.00099 0.53128 0.02784 0.0
C437 C 1.00559 0.55436 0.05059 0.0
C438 C 0.08478 0.46754 0.0355 0.0
C439 C 0.96837 0.53742 1.00954 0.0
H440 H 0.04453 0.46449 0.93222 0.0
H441 H 0.97567 0.39679 0.98246 0.0
H442 H 0.04395 0.54322 0.97401 0.0
H443 H 0.08454 0.51801 0.98261 0.0
H444 H 0.07043 0.52033 0.94772 0.0
H445 H 0.96542 0.40923 0.02854 0.0
H446 H 1.00259 0.4336 0.04499 0.0
H447 H 0.96188 0.45803 0.03554 0.0
H448 H 0.08523 0.51889 0.07539 0.0
H449 H 0.98492 0.57525 0.05485 0.0
H450 H 0.09796 0.4705 0.01528 0.0
H451 H 0.07053 0.44039 0.03572 0.0
H452 H 0.10673 0.46743 0.05108 0.0
H453 H 0.97793 0.54056 0.98828 0.0
H454 H 0.95218 0.56229 0.01544 0.0
H455 H 0.94978 0.51307 1.01015 0.0
C456 C 0.44858 0.50994 0.55735 0.0
C457 C 0.43492 0.4798 0.57202 0.0
C458 C 0.472 0.50478 0.53475 0.0
C459 C 0.48101 0.46851 0.52594 0.0
C460 C 0.46685 0.43794 0.54051 0.0
C461 C 0.4442 0.44397 0.56345 0.0
C462 C 0.4868 0.53821 0.52013 0.0
C463 C 0.47497 0.39884 0.53153 0.0
C464 C 0.51245 0.45846 0.45215 0.0
C465 C 0.55105 0.4559 0.45455 0.0
C466 C 0.48933 0.46149 0.47517 0.0
C467 C 0.505 0.46272 0.50137 0.0
C468 C 0.54378 0.45956 0.50401 0.0
C469 C 0.56617 0.45574 0.48072 0.0
C470 C 0.44807 0.46411 0.47139 0.0
C471 C 0.56177 0.46108 0.53147 0.0
H472 H 0.44045 0.53764 0.56333 0.0
H473 H 0.43298 0.42063 0.57442 0.0
H474 H 0.51739 0.53691 0.51888 0.0
H475 H 0.47631 0.53853 0.4991 0.0
H476 H 0.47874 0.56447 0.53032 0.0
H477 H 0.46195 0.3781 0.54505 0.0
H478 H 0.4647 0.39435 0.51065 0.0
H479 H 0.50522 0.39405 0.53103 0.0
H480 H 0.50021 0.4591 0.43223 0.0
H481 H 0.59573 0.45284 0.48312 0.0
H482 H 0.4382 0.49168 0.47817 0.0
H483 H 0.43373 0.44325 0.48403 0.0
H484 H 0.43996 0.45989 0.44995 0.0
H485 H 0.55534 0.48784 0.54154 0.0
H486 H 0.59227 0.45799 0.53017 0.0
H487 H 0.55054 0.43895 0.54458 0.0
C488 C 0.43204 0.96872 0.06418 0.0
C489 C 0.45907 0.94199 0.0697 0.0
C490 C 0.43518 0.99218 0.04162 0.0
C491 C 0.46572 0.98858 0.02365 0.0
C492 C 0.49277 0.96137 0.02878 0.0
C493 C 0.48939 0.93886 0.05178 0.0
C494 C 0.40596 0.02117 0.03717 0.0
C495 C 0.5256 0.95622 1.01007 0.0
C496 C 0.45788 0.0299 0.95282 0.0
C497 C 0.47773 0.0629 0.95568 0.0
C498 C 0.45401 1.00526 0.97464 0.0
C499 C 0.47006 0.01405 1.00001 0.0
C500 C 0.49061 0.04719 1.00277 0.0
C501 C 0.49468 0.07084 0.98048 0.0
C502 C 0.43272 0.96985 0.97056 0.0
C503 C 0.50795 0.05793 0.02939 0.0
H504 H 0.40816 0.97128 0.07742 0.0
H505 H 0.51105 0.91913 0.05589 0.0
H506 H 0.41883 0.049 0.03707 0.0
H507 H 0.39295 0.01694 0.01713 0.0
H508 H 0.38402 0.02066 0.05303 0.0
H509 H 0.54296 0.93231 0.01586 0.0
H510 H 0.51616 0.95201 0.98895 0.0
H511 H 0.54302 0.98143 1.01031 0.0
H512 H 0.44524 0.02352 0.93352 0.0
H513 H 0.51071 0.096 0.98253 0.0
H514 H 0.40854 0.96919 0.98449 0.0
H515 H 0.45039 0.94586 0.97553 0.0
H516 H 0.4228 0.96657 0.94945 0.0
H517 H 0.4864 0.05943 0.04547 0.0
H518 H 0.52233 0.08501 0.02836 0.0
H519 H 0.52815 0.03663 0.03551 0.0
C520 C 0.93784 1.00742 0.47262 0.0
C521 C 0.94146 0.03838 0.4557 0.0
C522 C 0.96055 1.0026 0.49531 0.0
C523 C 0.98853 0.02876 0.50109 0.0
C524 C 0.99262 0.05994 0.48413 0.0
C525 C 0.96889 0.06457 0.46192 0.0
C526 C 0.95479 0.96919 0.51298 0.0
C527 C 0.02247 0.08822 0.48926 0.0
C528 C 0.03138 0.03266 0.57164 0.0
C529 C 0.06375 0.01207 0.56777 0.0
C530 C 1.00644 0.03804 0.55025 0.0
C531 C 0.01429 0.02279 0.52428 0.0
C532 C 0.04676 1.00146 0.52049 0.0
C533 C 0.07068 0.99583 0.54237 0.0
C534 C 0.97168 0.06004 0.55543 0.0
C535 C 0.05654 0.98495 0.4932 0.0
H536 H 0.9176 0.98633 0.46794 0.0
H537 H 0.97186 0.08892 0.4495 0.0
H538 H 0.97944 0.95106 0.51179 0.0
H539 H 0.95138 0.97784 0.53446 0.0
H540 H 0.9302 0.9528 0.50694 0.0
H541 H 0.02228 0.1108 0.47416 0.0
H542 H 0.01893 0.10048 0.50977 0.0
H543 H 0.04995 0.07468 0.48864 0.0
H544 H 0.02573 0.04472 0.59139 0.0
H545 H 0.09528 0.97914 0.53953 0.0
H546 H 0.94711 0.04323 0.55009 0.0
H547 H 0.97147 0.08481 0.54236 0.0
H548 H 0.96904 0.0691 0.57689 0.0
H549 H 0.0346 0.96551 0.48668 0.0
H550 H 0.08327 0.96992 0.49343 0.0
H551 H 0.05827 1.00707 0.47781 0.0
C552 C 0.18321 0.69496 0.12825 0.0
C553 C 0.15703 0.71011 0.14617 0.0
C554 C 0.21919 0.70975 0.12632 0.0
C555 C 0.22938 0.7401 0.14302 0.0
C556 C 0.20256 0.75596 0.16068 0.0
C557 C 0.16677 0.74079 0.16202 0.0
C558 C 0.24668 0.69211 0.10711 0.0
C559 C 0.21209 0.78807 0.179 0.0
C560 C 0.33 0.75404 0.16343 0.0
C561 C 0.34061 0.78414 0.14749 0.0
C562 C 0.29431 0.73879 0.16158 0.0
C563 C 0.26849 0.75397 0.1433 0.0
C564 C 0.2796 0.7837 0.12653 0.0
C565 C 0.31545 0.7986 0.12897 0.0
C566 C 0.28376 0.70736 0.18002 0.0
C567 C 0.25321 0.8006 0.10666 0.0
H568 H 0.17578 0.6709 0.11629 0.0
H569 H 0.14667 0.75207 0.17621 0.0
H570 H 0.25964 0.7134 0.09407 0.0
H571 H 0.26909 0.67897 0.11879 0.0
H572 H 0.23372 0.67077 0.09398 0.0
H573 H 0.18769 0.79845 0.19052 0.0
H574 H 0.23349 0.77951 0.19363 0.0
H575 H 0.22383 0.81109 0.16698 0.0
H576 H 0.3493 0.74331 0.17808 0.0
H577 H 0.32354 0.82222 0.11693 0.0
H578 H 0.27268 0.6839 0.16801 0.0
H579 H 0.26157 0.71647 0.19418 0.0
H580 H 0.30751 0.69742 0.19205 0.0
H581 H 0.24098 0.77881 0.0936 0.0
H582 H 0.26689 0.82144 0.09357 0.0
H583 H 0.23015 0.81417 0.11781 0.0
C584 C 0.2766 0.66887 0.59857 0.0
C585 C 0.27929 0.65257 0.62424 0.0
C586 C 0.26492 0.70576 0.59567 0.0
C587 C 0.25523 0.72691 0.61892 0.0
C588 C 0.25774 0.71063 0.64482 0.0
C589 C 0.27001 0.674 0.64716 0.0
C590 C 0.26302 0.72216 0.56772 0.0
C591 C 0.24757 0.732 0.67018 0.0
C592 C 0.25622 0.83219 0.61963 0.0
C593 C 0.2185 0.84067 0.61783 0.0
C594 C 0.26869 0.79541 0.61878 0.0
C595 C 0.24281 0.76619 0.61647 0.0
C596 C 0.20478 0.77464 0.61381 0.0
C597 C 0.19313 0.81174 0.61433 0.0
C598 C 0.30951 0.78779 0.62123 0.0
C599 C 0.17617 0.74443 0.61166 0.0
H600 H 0.28326 0.6527 0.58065 0.0
H601 H 0.27277 0.66232 0.66717 0.0
H602 H 0.23435 0.73102 0.56344 0.0
H603 H 0.28077 0.74711 0.56661 0.0
H604 H 0.27201 0.70235 0.5517 0.0
H605 H 0.24985 0.71501 0.68873 0.0
H606 H 0.26589 0.75639 0.67234 0.0
H607 H 0.21882 0.74237 0.66876 0.0
H608 H 0.27602 0.85443 0.62207 0.0
H609 H 0.16391 0.81803 0.61321 0.0
H610 H 0.31886 0.76896 0.60473 0.0
H611 H 0.31497 0.77376 0.64068 0.0
H612 H 0.3263 0.81347 0.62046 0.0
H613 H 0.18359 0.72488 0.59511 0.0
H614 H 0.14809 0.75549 0.60785 0.0
H615 H 0.17539 0.72848 0.63076 0.0
C616 C 0.67514 0.19237 0.90937 0.0
C617 C 0.64648 0.21805 0.90638 0.0
C618 C 0.71233 0.20374 0.91011 0.0
C619 C 0.72116 0.24179 0.90822 0.0
C620 C 0.6922 0.26795 0.90642 0.0
C621 C 0.65531 0.25576 0.90528 0.0
C622 C 0.74226 0.17485 0.91162 0.0
C623 C 0.70022 0.30879 0.90484 0.0
C624 C 0.81876 0.27338 0.92663 0.0
C625 C 0.8356 0.2768 0.90101 0.0
C626 C 0.78154 0.26233 0.92935 0.0
C627 C 0.76063 0.25397 0.90595 0.0
C628 C 0.77742 0.25733 0.8801 0.0
C629 C 0.81434 0.26902 0.87795 0.0
C630 C 0.76458 0.25959 0.95728 0.0
C631 C 0.75634 0.24853 0.85457 0.0
H632 H 0.66858 0.16317 0.90994 0.0
H633 H 0.63327 0.27577 0.90322 0.0
H634 H 0.75865 0.17479 0.89254 0.0
H635 H 0.76149 0.18141 0.92834 0.0
H636 H 0.73087 0.1467 0.91479 0.0
H637 H 0.67467 0.3257 0.90606 0.0
H638 H 0.71889 0.3173 0.92146 0.0
H639 H 0.7146 0.31496 0.88547 0.0
H640 H 0.83474 0.27892 0.94466 0.0
H641 H 0.82641 0.27244 0.85798 0.0
H642 H 0.75546 0.23083 0.96108 0.0
H643 H 0.7397 0.2774 0.95872 0.0
H644 H 0.78414 0.26796 0.97342 0.0
H645 H 0.74556 0.21986 0.85536 0.0
H646 H 0.77367 0.25143 0.83604 0.0
H647 H 0.73221 0.26721 0.85291 0.0
C648 C 0.69281 0.31683 0.39464 0.0
C649 C 0.70873 0.34236 0.37683 0.0
C650 C 0.7073 0.28087 0.39703 0.0
C651 C 0.73813 0.27002 0.38093 0.0
C652 C 0.75473 0.29617 0.36336 0.0
C653 C 0.73984 0.33196 0.36155 0.0
C654 C 0.68888 0.2541 0.41613 0.0
C655 C 0.78739 0.28592 0.34566 0.0
C656 C 0.7961 0.18454 0.39642 0.0
C657 C 0.78232 0.15883 0.37772 0.0
C658 C 0.78105 0.22037 0.3985 0.0
C659 C 0.75186 0.23089 0.38118 0.0
C660 C 0.73724 0.20448 0.36279 0.0
C661 C 0.75263 0.16882 0.36131 0.0
C662 C 0.79732 0.2474 0.4185 0.0
C663 C 0.70641 0.21438 0.34379 0.0
H664 H 0.66842 0.32475 0.40616 0.0
H665 H 0.75172 0.35154 0.34743 0.0
H666 H 0.67606 0.2313 0.40437 0.0
H667 H 0.70966 0.24157 0.42964 0.0
H668 H 0.66714 0.26754 0.42877 0.0
H669 H 0.79822 0.30986 0.3341 0.0
H670 H 0.80998 0.27463 0.35816 0.0
H671 H 0.77922 0.26399 0.33108 0.0
H672 H 0.81944 0.17694 0.4088 0.0
H673 H 0.74244 0.14909 0.34653 0.0
H674 H 0.77511 0.2602 0.43102 0.0
H675 H 0.81149 0.26998 0.40745 0.0
H676 H 0.81755 0.23411 0.43212 0.0
H677 H 0.68265 0.22601 0.35532 0.0
H678 H 0.6967 0.1902 0.33183 0.0
H679 H 0.71606 0.23597 0.32955 0.0
C680 C 0.75999 0.51964 0.23638 0.0
C681 C 0.76744 0.50029 0.26029 0.0
C682 C 0.78863 0.53515 0.2207 0.0
C683 C 0.82576 0.53121 0.22899 0.0
C684 C 0.83359 0.51054 0.25251 0.0
C685 C 0.80443 0.49542 0.26784 0.0
C686 C 0.77904 0.55681 0.19573 0.0
C687 C 0.87276 0.50559 0.2621 0.0
C688 C 0.90657 0.5502 0.18084 0.0
C689 C 0.91786 0.58531 0.18951 0.0
C690 C 0.87596 0.53259 0.19293 0.0
C691 C 0.85629 0.55058 0.21419 0.0
C692 C 0.86703 0.58661 0.22234 0.0
C693 C 0.89776 0.60344 0.20999 0.0
C694 C 0.86555 0.4942 0.18367 0.0
C695 C 0.8469 0.60691 0.24481 0.0
H696 H 0.73161 0.52313 0.23008 0.0
H697 H 0.81062 0.48102 0.28642 0.0
H698 H 0.78672 0.58622 0.19873 0.0
H699 H 0.79505 0.54639 0.17802 0.0
H700 H 0.74914 0.55531 0.19098 0.0
H701 H 0.87448 0.48663 0.27962 0.0
H702 H 0.89039 0.49456 0.24545 0.0
H703 H 0.88438 0.53276 0.26817 0.0
H704 H 0.92249 0.53608 0.16523 0.0
H705 H 0.9069 0.63039 0.21694 0.0
H706 H 0.83572 0.49297 0.17875 0.0
H707 H 0.87038 0.47435 0.20027 0.0
H708 H 0.88176 0.48515 0.16561 0.0
H709 H 0.8169 0.60808 0.24049 0.0
H710 H 0.85732 0.63554 0.24764 0.0
H711 H 0.8502 0.59183 0.26411 0.0
C712 C 0.39954 0.35733 0.73007 0.0
C713 C 0.39827 0.35249 0.70188 0.0
C714 C 0.41012 0.32849 0.74714 0.0
C715 C 0.41997 0.29378 0.73583 0.0
C716 C 0.41771 0.28832 0.70742 0.0
C717 C 0.40665 0.31772 0.69076 0.0
C718 C 0.41156 0.3355 0.77731 0.0
C719 C 0.42799 0.25178 0.6946 0.0
C720 C 0.4844 0.23994 0.78127 0.0
C721 C 0.45961 0.217 0.79512 0.0
C722 C 0.4722 0.26337 0.76063 0.0
C723 C 0.4342 0.26417 0.75391 0.0
C724 C 0.40939 0.23968 0.76704 0.0
C725 C 0.4224 0.21651 0.78761 0.0
C726 C 0.49962 0.28899 0.74726 0.0
C727 C 0.36872 0.23957 0.7606 0.0
H728 H 0.3924 0.38396 0.73881 0.0
H729 H 0.40569 0.31387 0.66899 0.0
H730 H 0.39461 0.31473 0.78819 0.0
H731 H 0.44039 0.33263 0.78446 0.0
H732 H 0.40144 0.36348 0.78297 0.0
H733 H 0.42256 0.25118 0.67249 0.0
H734 H 0.45776 0.24625 0.69784 0.0
H735 H 0.4123 0.22906 0.70433 0.0
H736 H 0.51302 0.24088 0.78753 0.0
H737 H 0.40321 0.19911 0.79868 0.0
H738 H 0.49406 0.31782 0.75389 0.0
H739 H 0.49665 0.28794 0.72493 0.0
H740 H 0.52859 0.28205 0.75243 0.0
H741 H 0.35584 0.26522 0.76867 0.0
H742 H 0.35419 0.21552 0.76962 0.0
H743 H 0.36446 0.23915 0.73838 0.0
C744 C 0.60495 0.92506 0.17909 0.0
C745 C 0.57754 0.90972 0.19576 0.0
C746 C 0.6369 0.94123 0.19027 0.0
C747 C 0.64083 0.94328 0.21881 0.0
C748 C 0.61315 0.92766 0.23564 0.0
C749 C 0.58245 0.9103 0.22391 0.0
C750 C 0.6665 0.95599 0.17157 0.0
C751 C 0.61554 0.92989 0.26613 0.0
C752 C 0.73272 0.95582 0.25469 0.0
C753 C 0.73313 0.99393 0.2608 0.0
C754 C 0.70414 0.93956 0.2396 0.0
C755 C 0.67387 0.96129 0.23135 0.0
C756 C 0.67397 0.99968 0.23709 0.0
C757 C 0.70383 0.0156 0.25114 0.0
C758 C 0.70585 0.89872 0.23326 0.0
C759 C 0.64177 0.02376 0.22935 0.0
H760 H 0.60132 0.9244 0.15732 0.0
H761 H 0.56155 0.89795 0.23685 0.0
H762 H 0.66939 0.98624 0.17448 0.0
H763 H 0.69353 0.94337 0.17649 0.0
H764 H 0.66034 0.95034 0.14994 0.0
H765 H 0.59067 0.91827 0.2763 0.0
H766 H 0.64013 0.9146 0.27318 0.0
H767 H 0.61882 0.95909 0.27267 0.0
H768 H 0.75413 0.93799 0.26232 0.0
H769 H 0.70367 0.04508 0.25484 0.0
H770 H 0.69898 0.89347 0.21171 0.0
H771 H 0.68521 0.88382 0.2458 0.0
H772 H 0.73355 0.88692 0.23734 0.0
H773 H 0.63685 0.02177 0.20726 0.0
H774 H 0.64621 0.05322 0.23484 0.0
H775 H 0.61632 0.01392 0.23972 0.0
C776 C 1.00343 0.25404 0.77752 0.0
C777 C 0.02814 0.27543 0.79266 0.0
C778 C 0.01615 0.23041 0.75678 0.0
C779 C 0.05458 0.22768 0.75136 0.0
C780 C 0.07944 0.2507 0.76575 0.0
C781 C 0.06589 0.27423 0.78632 0.0
C782 C 0.98865 0.20649 0.74196 0.0
C783 C 0.12058 0.24866 0.76077 0.0
C784 C 0.08733 0.13316 0.72759 0.0
C785 C 0.09201 0.13815 0.69962 0.0
C786 C 0.07596 0.16227 0.74458 0.0
C787 C 0.06887 0.19744 0.73341 0.0
C788 C 0.07431 0.20297 0.70527 0.0
C789 C 0.08602 0.17327 0.6887 0.0
C790 C 0.07102 0.15516 0.7745 0.0
C791 C 0.067 0.24001 0.69262 0.0
H792 H 0.97433 0.25433 0.7829 0.0
H793 H 0.08499 0.2904 0.79838 0.0
H794 H 0.99391 0.2073 0.71981 0.0
H795 H 0.99176 0.1774 0.74846 0.0
H796 H 0.9597 0.21522 0.74601 0.0
H797 H 0.13551 0.27186 0.77068 0.0
H798 H 0.13133 0.22233 0.76891 0.0
H799 H 0.12686 0.24895 0.73876 0.0
H800 H 0.09267 0.10628 0.73625 0.0
H801 H 0.08958 0.17727 0.66711 0.0
H802 H 0.04176 0.15973 0.78049 0.0
H803 H 0.08804 0.17482 0.78641 0.0
H804 H 0.07887 0.12659 0.78011 0.0
H805 H 0.03736 0.24716 0.69506 0.0
H806 H 0.07419 0.24034 0.67071 0.0
H807 H 0.08311 0.26184 0.7031 0.0
C808 C 0.13166 0.40055 0.7945 0.0
C809 C 0.13675 0.39647 0.82245 0.0
C810 C 0.16076 0.41145 0.77741 0.0
C811 C 0.19602 0.41871 0.78847 0.0
C812 C 0.20168 0.41375 0.81659 0.0
C813 C 0.17199 0.40247 0.83325 0.0
C814 C 0.15352 0.41587 0.74752 0.0
C815 C 0.23881 0.42125 0.82914 0.0
C816 C 0.27335 0.42173 0.73584 0.0
C817 C 0.27475 0.45948 0.72997 0.0
C818 C 0.24941 0.40815 0.75602 0.0
C819 C 0.22616 0.43298 0.77051 0.0
C820 C 0.22884 0.47138 0.76544 0.0
C821 C 0.25287 0.48412 0.74506 0.0
C822 C 0.24738 0.36705 0.76063 0.0
C823 C 0.20467 0.49884 0.78037 0.0
H824 H 0.10467 0.3952 0.78594 0.0
H825 H 0.17606 0.39936 0.85483 0.0
H826 H 0.15781 0.44509 0.74165 0.0
H827 H 0.1733 0.39891 0.7355 0.0
H828 H 0.12499 0.40763 0.74196 0.0
H829 H 0.2393 0.4142 0.85098 0.0
H830 H 0.26061 0.40517 0.81843 0.0
H831 H 0.24588 0.4509 0.82693 0.0
H832 H 0.28991 0.40269 0.72381 0.0
H833 H 0.25331 0.51321 0.74004 0.0
H834 H 0.22095 0.35622 0.75255 0.0
H835 H 0.24785 0.36089 0.78259 0.0
H836 H 0.27049 0.35209 0.75048 0.0
H837 H 0.17557 0.49524 0.77397 0.0
H838 H 0.21308 0.52782 0.77637 0.0
H839 H 0.20565 0.49397 0.8025 0.0
C840 C 0.54963 0.59133 0.34143 0.0
C841 C 0.58503 0.58062 0.33283 0.0
C842 C 0.53176 0.62175 0.32969 0.0
C843 C 0.54972 0.64182 0.30882 0.0
C844 C 0.586 0.63165 0.30073 0.0
C845 C 0.60311 0.60111 0.31274 0.0
C846 C 0.49312 0.63154 0.33889 0.0
C847 C 0.60629 0.65218 0.27864 0.0
C848 C 0.49412 0.69309 0.25571 0.0
C849 C 0.49829 0.7301 0.26384 0.0
C850 C 0.50967 0.66411 0.27063 0.0
C851 C 0.53008 0.67214 0.29433 0.0
C852 C 0.53338 0.70929 0.30317 0.0
C853 C 0.51746 0.73774 0.28789 0.0
C854 C 0.50542 0.62493 0.26043 0.0
C855 C 0.55472 0.71909 0.32835 0.0
H856 H 0.53553 0.57512 0.35672 0.0
H857 H 0.63027 0.59242 0.30581 0.0
H858 H 0.49146 0.66131 0.34424 0.0
H859 H 0.47352 0.62652 0.32211 0.0
H860 H 0.48408 0.6151 0.35666 0.0
H861 H 0.63509 0.64221 0.27583 0.0
H862 H 0.59146 0.64873 0.25921 0.0
H863 H 0.607 0.68216 0.28339 0.0
H864 H 0.4799 0.68675 0.23702 0.0
H865 H 0.52045 0.76612 0.29463 0.0
H866 H 0.49441 0.60705 0.27676 0.0
H867 H 0.53284 0.61379 0.25438 0.0
H868 H 0.48671 0.62301 0.24276 0.0
H869 H 0.54431 0.70291 0.34581 0.0
H870 H 0.55283 0.74895 0.33348 0.0
H871 H 0.58425 0.71182 0.32538 0.0
C872 C 0.35733 0.08791 0.79438 0.0
C873 C 0.35165 0.09178 0.8224 0.0
C874 C 0.32867 0.07681 0.77719 0.0
C875 C 0.29326 0.06915 0.78819 0.0
C876 C 0.28704 0.07373 0.8164 0.0
C877 C 0.31628 0.0852 0.83318 0.0
C878 C 0.3365 0.0728 0.74721 0.0
C879 C 0.24973 0.06578 0.82889 0.0
C880 C 0.21717 0.06723 0.7355 0.0
C881 C 0.21605 0.02965 0.72869 0.0
C882 C 0.24052 0.08035 0.75607 0.0
C883 C 0.26345 0.05522 0.77 0.0
C884 C 0.26091 0.01694 0.76405 0.0
C885 C 0.23746 1.00466 0.7433 0.0
C886 C 0.2424 0.12134 0.76162 0.0
C887 C 0.28473 0.98916 0.77836 0.0
H888 H 0.38439 0.0937 0.78584 0.0
H889 H 0.31174 0.08812 0.85481 0.0
H890 H 0.33223 0.04369 0.74078 0.0
H891 H 0.31702 0.09001 0.73554 0.0
H892 H 0.36517 0.08101 0.74176 0.0
H893 H 0.22807 0.08212 0.8187 0.0
H894 H 0.24274 0.03619 0.82592 0.0
H895 H 0.24889 0.0722 0.85092 0.0
H896 H 0.201 0.08656 0.72384 0.0
H897 H 0.23726 0.97571 0.73755 0.0
H898 H 0.26898 0.13237 0.75375 0.0
H899 H 0.24148 0.12701 0.78371 0.0
H900 H 0.21948 0.13649 0.75184 0.0
H901 H 0.31394 0.99274 0.77191 0.0
H902 H 0.27628 0.96029 0.77383 0.0
H903 H 0.28345 0.99369 0.80059 0.0
C904 C 0.01416 0.79434 0.27186 0.0
C905 C 0.99133 0.76625 0.26136 0.0
C906 C 0.99931 0.8247 0.28625 0.0
C907 C 0.96082 0.8265 0.29146 0.0
C908 C 0.93785 0.79746 0.28231 0.0
C909 C 0.95311 0.7684 0.2669 0.0
C910 C 0.02469 0.85563 0.29494 0.0
C911 C 0.89679 0.79759 0.28804 0.0
C912 C 0.92551 0.89555 0.34462 0.0
C913 C 0.91138 0.92361 0.3283 0.0
C914 C 0.94119 0.86346 0.333 0.0
C915 C 0.94404 0.86006 0.30442 0.0
C916 C 0.92999 0.88855 0.28794 0.0
C917 C 0.91303 0.9194 0.30005 0.0
C918 C 0.95427 0.83302 0.35127 0.0
C919 C 0.93319 0.88671 0.25745 0.0
H920 H 0.04371 0.79313 0.26858 0.0
H921 H 0.93446 0.748 0.25858 0.0
H922 H 0.01643 0.88162 0.28487 0.0
H923 H 0.02227 0.8604 0.31708 0.0
H924 H 0.05407 0.84986 0.28982 0.0
H925 H 0.88374 0.77059 0.28318 0.0
H926 H 0.89127 0.80428 0.30966 0.0
H927 H 0.88327 0.81915 0.27576 0.0
H928 H 0.92404 0.89867 0.36645 0.0
H929 H 0.90161 0.9408 0.28738 0.0
H930 H 0.98434 0.82856 0.34838 0.0
H931 H 0.94023 0.80674 0.34589 0.0
H932 H 0.94881 0.83927 0.37299 0.0
H933 H 0.96239 0.88201 0.25133 0.0
H934 H 0.92331 0.91237 0.24768 0.0
H935 H 0.91682 0.86315 0.24956 0.0
loop_
_geom_bond_atom_site_label_1
_geom_bond_atom_site_label_2
_geom_bond_distance
_geom_bond_site_symmetry_2
_ccdc_geom_bond_type
C0 C1 1.443 . S
C0 N4 1.376 . S
C0 C38 1.389 . S
C1 C0 1.443 . S
C1 C2 1.340 . S
C1 H41 0.951 . S
C2 C1 1.340 . S
C2 C3 1.439 . S
C2 H42 0.950 . S
C3 C2 1.439 . S
C3 N4 1.374 . S
C3 C37 1.395 . S
N4 C0 1.376 . S
N4 C3 1.374 . S
N4 Co5 2.008 1_655 S
Co5 N4 2.008 1_455 S
Co5 N6 1.995 . S
Co5 N11 2.008 . S
Co5 N16 1.995 1_455 S
Co5 N21 2.282 . S
Co5 N27 2.282 1_455 S
N6 Co5 1.995 . S
N6 C7 1.376 1_455 S
N6 C10 1.383 . S
C7 N6 1.376 1_655 S
C7 C8 1.446 1_655 S
C7 C37 1.391 . S
C8 C7 1.446 1_455 S
C8 C9 1.339 . S
C8 H43 0.949 . S
C9 C8 1.339 . S
C9 C10 1.439 . S
C9 H44 0.950 . S
C10 N6 1.383 . S
C10 C9 1.439 . S
C10 C39 1.392 . S
N11 Co5 2.008 . S
N11 C12 1.376 . S
N11 C15 1.374 . S
C12 N11 1.376 . S
C12 C13 1.443 . S
C12 C39 1.389 . S
C13 C12 1.443 . S
C13 C14 1.340 . S
C13 H45 0.951 . S
C14 C13 1.340 . S
C14 C15 1.439 . S
C14 H46 0.950 . S
C15 N11 1.374 . S
C15 C14 1.439 . S
C15 C40 1.395 . S
N16 Co5 1.995 1_655 S
N16 C17 1.376 1_655 S
N16 C20 1.383 . S
C17 N16 1.376 1_455 S
C17 C18 1.446 1_455 S
C17 C40 1.391 . S
C18 C17 1.446 1_655 S
C18 C19 1.339 . S
C18 H47 0.949 . S
C19 C18 1.339 . S
C19 C20 1.439 . S
C19 H48 0.950 . S
C20 N16 1.383 . S
C20 C19 1.439 . S
C20 C38 1.392 . S
N21 Co5 2.282 . S
N21 C24 1.332 . S
N21 C26 1.332 . S
C22 C23 1.386 . S
C22 C25 1.388 . S
C23 C22 1.386 . S
C23 C24 1.382 . S
C23 H49 0.950 . S
C24 N21 1.332 . S
C24 C23 1.382 . S
C24 H35 0.952 . S
C25 C22 1.388 . S
C25 C26 1.382 . S
C25 H50 0.950 . S
C26 N21 1.332 . S
C26 C25 1.382 . S
C26 H36 0.948 1_455 S
N27 Co5 2.282 1_655 S
N27 C31 1.332 . S
N27 C32 1.332 . S
C28 C29 1.388 . S
C28 C32 1.382 . S
C28 H51 0.950 . S
C29 C28 1.388 . S
C29 C30 1.386 . S
C30 C29 1.386 . S
C30 C31 1.382 . S
C30 H52 0.950 . S
C31 N27 1.332 . S
C31 C30 1.382 . S
C31 H33 0.952 . S
C32 N27 1.332 . S
C32 C28 1.382 . S
C32 H34 0.948 1_655 S
H33 C31 0.952 . S
H34 C32 0.948 1_455 S
H35 C24 0.952 . S
H36 C26 0.948 1_655 S
C37 C3 1.395 . S
C37 C7 1.391 . S
C38 C0 1.389 . S
C38 C20 1.392 . S
C39 C10 1.392 . S
C39 C12 1.389 . S
C40 C15 1.395 . S
C40 C17 1.391 . S
H41 C1 0.951 . S
H42 C2 0.950 . S
H43 C8 0.949 . S
H44 C9 0.950 . S
H45 C13 0.951 . S
H46 C14 0.950 . S
H47 C18 0.949 . S
H48 C19 0.950 . S
H49 C23 0.950 . S
H50 C25 0.950 . S
H51 C28 0.950 . S
H52 C30 0.950 . S
C53 C54 1.443 . S
C53 N57 1.376 . S
C53 C91 1.389 . S
C54 C53 1.443 . S
C54 C55 1.340 . S
C54 H94 0.951 . S
C55 C54 1.340 . S
C55 C56 1.439 . S
C55 H95 0.950 . S
C56 C55 1.439 . S
C56 N57 1.374 . S
C56 C90 1.395 . S
N57 C53 1.376 . S
N57 C56 1.374 . S
N57 Co58 2.008 . S
Co58 N57 2.008 . S
Co58 N59 1.995 . S
Co58 N64 2.008 . S
Co58 N69 1.995 . S
Co58 N74 2.282 . S
Co58 N80 2.282 . S
N59 Co58 1.995 . S
N59 C60 1.376 . S
N59 C63 1.383 . S
C60 N59 1.376 . S
C60 C61 1.446 . S
C60 C90 1.391 . S
C61 C60 1.446 . S
C61 C62 1.339 . S
C61 H96 0.949 . S
C62 C61 1.339 . S
C62 C63 1.439 . S
C62 H97 0.950 . S
C63 N59 1.383 . S
C63 C62 1.439 . S
C63 C92 1.392 . S
N64 Co58 2.008 . S
N64 C65 1.376 . S
N64 C68 1.374 . S
C65 N64 1.376 . S
C65 C66 1.443 . S
C65 C92 1.389 . S
C66 C65 1.443 . S
C66 C67 1.340 . S
C66 H98 0.951 . S
C67 C66 1.340 . S
C67 C68 1.439 . S
C67 H99 0.950 . S
C68 N64 1.374 . S
C68 C67 1.439 . S
C68 C93 1.395 . S
N69 Co58 1.995 . S
N69 C70 1.376 . S
N69 C73 1.383 . S
C70 N69 1.376 . S
C70 C71 1.446 . S
C70 C93 1.391 . S
C71 C70 1.446 . S
C71 C72 1.339 . S
C71 H100 0.949 . S
C72 C71 1.339 . S
C72 C73 1.439 . S
C72 H101 0.950 . S
C73 N69 1.383 . S
C73 C72 1.439 . S
C73 C91 1.392 . S
N74 Co58 2.282 . S
N74 C77 1.332 . S
N74 C79 1.332 . S
C75 C76 1.386 . S
C75 C78 1.388 . S
C76 C75 1.386 . S
C76 C77 1.382 . S
C76 H102 0.950 . S
C77 N74 1.332 . S
C77 C76 1.382 . S
C77 H88 0.952 . S
C78 C75 1.388 . S
C78 C79 1.382 . S
C78 H103 0.950 . S
C79 N74 1.332 . S
C79 C78 1.382 . S
C79 H89 0.948 . S
N80 Co58 2.282 . S
N80 C84 1.332 . S
N80 C85 1.332 . S
C81 C82 1.388 . S
C81 C85 1.382 . S
C81 H104 0.950 . S
C82 C81 1.388 . S
C82 C83 1.386 . S
C83 C82 1.386 . S
C83 C84 1.382 . S
C83 H105 0.950 . S
C84 N80 1.332 . S
C84 C83 1.382 . S
C84 H86 0.952 . S
C85 N80 1.332 . S
C85 C81 1.382 . S
C85 H87 0.948 . S
H86 C84 0.952 . S
H87 C85 0.948 . S
H88 C77 0.952 . S
H89 C79 0.948 . S
C90 C56 1.395 . S
C90 C60 1.391 . S
C91 C53 1.389 . S
C91 C73 1.392 . S
C92 C63 1.392 . S
C92 C65 1.389 . S
C93 C68 1.395 . S
C93 C70 1.391 . S
H94 C54 0.951 . S
H95 C55 0.950 . S
H96 C61 0.949 . S
H97 C62 0.950 . S
H98 C66 0.951 . S
H99 C67 0.950 . S
H100 C71 0.949 . S
H101 C72 0.950 . S
H102 C76 0.950 . S
H103 C78 0.950 . S
H104 C81 0.950 . S
H105 C83 0.950 . S
C106 C107 1.443 . S
C106 N110 1.376 . S
C106 C144 1.389 . S
C107 C106 1.443 . S
C107 C108 1.340 . S
C107 H147 0.951 . S
C108 C107 1.340 . S
C108 C109 1.439 . S
C108 H148 0.950 . S
C109 C108 1.439 . S
C109 N110 1.374 . S
C109 C143 1.395 . S
N110 C106 1.376 . S
N110 C109 1.374 . S
N110 Co111 2.008 . S
Co111 N110 2.008 . S
Co111 N112 1.995 . S
Co111 N117 2.008 . S
Co111 N122 1.995 . S
Co111 N127 2.282 . S
Co111 N133 2.282 . S
N112 Co111 1.995 . S
N112 C113 1.376 . S
N112 C116 1.383 . S
C113 N112 1.376 . S
C113 C114 1.446 . S
C113 C143 1.391 . S
C114 C113 1.446 . S
C114 C115 1.339 . S
C114 H149 0.949 . S
C115 C114 1.339 . S
C115 C116 1.439 . S
C115 H150 0.950 . S
C116 N112 1.383 . S
C116 C115 1.439 . S
C116 C145 1.392 . S
N117 Co111 2.008 . S
N117 C118 1.376 . S
N117 C121 1.374 . S
C118 N117 1.376 . S
C118 C119 1.443 . S
C118 C145 1.389 . S
C119 C118 1.443 . S
C119 C120 1.340 . S
C119 H151 0.951 . S
C120 C119 1.340 . S
C120 C121 1.439 . S
C120 H152 0.950 . S
C121 N117 1.374 . S
C121 C120 1.439 . S
C121 C146 1.395 . S
N122 Co111 1.995 . S
N122 C123 1.376 . S
N122 C126 1.383 . S
C123 N122 1.376 . S
C123 C124 1.446 . S
C123 C146 1.391 . S
C124 C123 1.446 . S
C124 C125 1.339 . S
C124 H153 0.949 . S
C125 C124 1.339 . S
C125 C126 1.439 . S
C125 H154 0.950 . S
C126 N122 1.383 . S
C126 C125 1.439 . S
C126 C144 1.392 . S
N127 Co111 2.282 . S
N127 C130 1.332 . S
N127 C132 1.332 . S
C128 C129 1.386 . S
C128 C131 1.388 . S
C129 C128 1.386 . S
C129 C130 1.382 . S
C129 H155 0.950 . S
C130 N127 1.332 . S
C130 C129 1.382 . S
C130 H141 0.952 . S
C131 C128 1.388 . S
C131 C132 1.382 . S
C131 H156 0.950 . S
C132 N127 1.332 . S
C132 C131 1.382 . S
C132 H142 0.948 . S
N133 Co111 2.282 . S
N133 C137 1.332 . S
N133 C138 1.332 . S
C134 C135 1.388 . S
C134 C138 1.382 . S
C134 H157 0.950 . S
C135 C134 1.388 . S
C135 C136 1.386 . S
C136 C135 1.386 . S
C136 C137 1.382 . S
C136 H158 0.950 . S
C137 N133 1.332 . S
C137 C136 1.382 . S
C137 H139 0.952 . S
C138 N133 1.332 . S
C138 C134 1.382 . S
C138 H140 0.948 . S
H139 C137 0.952 . S
H140 C138 0.948 . S
H141 C130 0.952 . S
H142 C132 0.948 . S
C143 C109 1.395 . S
C143 C113 1.391 . S
C144 C106 1.389 . S
C144 C126 1.392 . S
C145 C116 1.392 . S
C145 C118 1.389 . S
C146 C121 1.395 . S
C146 C123 1.391 . S
H147 C107 0.951 . S
H148 C108 0.950 . S
H149 C114 0.949 . S
H150 C115 0.950 . S
H151 C119 0.951 . S
H152 C120 0.950 . S
H153 C124 0.949 . S
H154 C125 0.950 . S
H155 C129 0.950 . S
H156 C131 0.950 . S
H157 C134 0.950 . S
H158 C136 0.950 . S
C159 C160 1.443 . S
C159 N163 1.376 . S
C159 C197 1.389 . S
C160 C159 1.443 . S
C160 C161 1.340 . S
C160 H200 0.951 . S
C161 C160 1.340 . S
C161 C162 1.439 . S
C161 H201 0.950 . S
C162 C161 1.439 . S
C162 N163 1.374 . S
C162 C196 1.395 . S
N163 C159 1.376 . S
N163 C162 1.374 . S
N163 Co164 2.008 . S
Co164 N163 2.008 . S
Co164 N165 1.995 . S
Co164 N170 2.008 1_565 S
Co164 N175 1.995 1_565 S
Co164 N180 2.282 1_565 S
Co164 N186 2.282 . S
N165 Co164 1.995 . S
N165 C166 1.376 . S
N165 C169 1.383 . S
C166 N165 1.376 . S
C166 C167 1.446 . S
C166 C196 1.391 . S
C167 C166 1.446 . S
C167 C168 1.339 . S
C167 H202 0.949 . S
C168 C167 1.339 . S
C168 C169 1.439 . S
C168 H203 0.950 . S
C169 N165 1.383 . S
C169 C168 1.439 . S
C169 C198 1.392 1_565 S
N170 Co164 2.008 1_545 S
N170 C171 1.376 . S
N170 C174 1.374 . S
C171 N170 1.376 . S
C171 C172 1.443 . S
C171 C198 1.389 . S
C172 C171 1.443 . S
C172 C173 1.340 . S
C172 H204 0.951 . S
C173 C172 1.340 . S
C173 C174 1.439 . S
C173 H205 0.950 . S
C174 N170 1.374 . S
C174 C173 1.439 . S
C174 C199 1.395 . S
N175 Co164 1.995 1_545 S
N175 C176 1.376 . S
N175 C179 1.383 . S
C176 N175 1.376 . S
C176 C177 1.446 . S
C176 C199 1.391 . S
C177 C176 1.446 . S
C177 C178 1.339 . S
C177 H206 0.949 . S
C178 C177 1.339 . S
C178 C179 1.439 . S
C178 H207 0.950 . S
C179 N175 1.383 . S
C179 C178 1.439 . S
C179 C197 1.392 1_545 S
N180 Co164 2.282 1_545 S
N180 C183 1.332 . S
N180 C185 1.332 . S
C181 C182 1.386 . S
C181 C184 1.388 . S
C182 C181 1.386 . S
C182 C183 1.382 . S
C182 H208 0.950 . S
C183 N180 1.332 . S
C183 C182 1.382 . S
C183 H194 0.952 . S
C184 C181 1.388 . S
C184 C185 1.382 . S
C184 H209 0.950 . S
C185 N180 1.332 . S
C185 C184 1.382 . S
C185 H195 0.948 . S
N186 Co164 2.282 . S
N186 C190 1.332 . S
N186 C191 1.332 . S
C187 C188 1.388 . S
C187 C191 1.382 . S
C187 H210 0.950 . S
C188 C187 1.388 . S
C188 C189 1.386 . S
C189 C188 1.386 . S
C189 C190 1.382 . S
C189 H211 0.950 . S
C190 N186 1.332 . S
C190 C189 1.382 . S
C190 H192 0.952 . S
C191 N186 1.332 . S
C191 C187 1.382 . S
C191 H193 0.948 . S
H192 C190 0.952 . S
H193 C191 0.948 . S
H194 C183 0.952 . S
H195 C185 0.948 . S
C196 C162 1.395 . S
C196 C166 1.391 . S
C197 C159 1.389 . S
C197 C179 1.392 1_565 S
C198 C169 1.392 1_545 S
C198 C171 1.389 . S
C199 C174 1.395 . S
C199 C176 1.391 . S
H200 C160 0.951 . S
H201 C161 0.950 . S
H202 C167 0.949 . S
H203 C168 0.950 . S
H204 C172 0.951 . S
H205 C173 0.950 . S
H206 C177 0.949 . S
H207 C178 0.950 . S
H208 C182 0.950 . S
H209 C184 0.950 . S
H210 C187 0.950 . S
H211 C189 0.950 . S
C212 C213 1.438 1_655 S
C212 N216 1.369 1_655 S
C212 C250 1.401 . S
C213 C212 1.438 1_455 S
C213 C214 1.340 . S
C213 H253 0.951 . S
C214 C213 1.340 . S
C214 C215 1.439 . S
C214 H254 0.950 . S
C215 C214 1.439 . S
C215 N216 1.374 . S
C215 C249 1.395 . S
N216 C212 1.369 1_455 S
N216 C215 1.374 . S
N216 Co217 2.008 1_455 S
Co217 N216 2.008 1_655 S
Co217 N218 1.995 1_655 S
Co217 N223 2.008 . S
Co217 N228 1.995 . S
Co217 N233 2.282 1_655 S
Co217 N239 2.282 . S
N218 Co217 1.995 1_455 S
N218 C219 1.376 . S
N218 C222 1.383 . S
C219 N218 1.376 . S
C219 C220 1.446 . S
C219 C249 1.391 . S
C220 C219 1.446 . S
C220 C221 1.339 . S
C220 H255 0.949 . S
C221 C220 1.339 . S
C221 C222 1.439 . S
C221 H256 0.950 . S
C222 N218 1.383 . S
C222 C221 1.439 . S
C222 C251 1.392 . S
N223 Co217 2.008 . S
N223 C224 1.371 1_655 S
N223 C227 1.374 . S
C224 N223 1.371 1_455 S
C224 C225 1.440 1_455 S
C224 C251 1.397 . S
C225 C224 1.440 1_655 S
C225 C226 1.340 . S
C225 H257 0.951 . S
C226 C225 1.340 . S
C226 C227 1.439 . S
C226 H258 0.950 . S
C227 N223 1.374 . S
C227 C226 1.439 . S
C227 C252 1.395 . S
N228 Co217 1.995 . S
N228 C229 1.376 . S
N228 C232 1.383 . S
C229 N228 1.376 . S
C229 C230 1.446 . S
C229 C252 1.391 . S
C230 C229 1.446 . S
C230 C231 1.339 . S
C230 H259 0.949 . S
C231 C230 1.339 . S
C231 C232 1.439 . S
C231 H260 0.950 . S
C232 N228 1.383 . S
C232 C231 1.439 . S
C232 C250 1.392 . S
N233 Co217 2.282 1_455 S
N233 C236 1.332 . S
N233 C238 1.332 . S
C234 C235 1.386 . S
C234 C237 1.388 . S
C235 C234 1.386 . S
C235 C236 1.382 . S
C235 H261 0.950 . S
C236 N233 1.332 . S
C236 C235 1.382 . S
C236 H247 0.952 . S
C237 C234 1.388 . S
C237 C238 1.382 . S
C237 H262 0.950 . S
C238 N233 1.332 . S
C238 C237 1.382 . S
C238 H248 0.948 . S
N239 Co217 2.282 . S
N239 C243 1.332 . S
N239 C244 1.332 . S
C240 C241 1.388 . S
C240 C244 1.382 . S
C240 H263 0.950 . S
C241 C240 1.388 . S
C241 C242 1.386 . S
C242 C241 1.386 . S
C242 C243 1.382 . S
C242 H264 0.950 . S
C243 N239 1.332 . S
C243 C242 1.382 . S
C243 H245 0.952 . S
C244 N239 1.332 . S
C244 C240 1.382 . S
C244 H246 0.948 . S
H245 C243 0.952 . S
H246 C244 0.948 . S
H247 C236 0.952 . S
H248 C238 0.948 . S
C249 C215 1.395 . S
C249 C219 1.391 . S
C250 C212 1.401 . S
C250 C232 1.392 . S
C251 C222 1.392 . S
C251 C224 1.397 . S
C252 C227 1.395 . S
C252 C229 1.391 . S
H253 C213 0.951 . S
H254 C214 0.950 . S
H255 C220 0.949 . S
H256 C221 0.950 . S
H257 C225 0.951 . S
H258 C226 0.950 . S
H259 C230 0.949 . S
H260 C231 0.950 . S
H261 C235 0.950 . S
H262 C237 0.950 . S
H263 C240 0.950 . S
H264 C242 0.950 . S
C265 C266 1.443 . S
C265 N269 1.376 . S
C265 C303 1.389 . S
C266 C265 1.443 . S
C266 C267 1.340 . S
C266 H306 0.951 . S
C267 C266 1.340 . S
C267 C268 1.439 . S
C267 H307 0.950 . S
C268 C267 1.439 . S
C268 N269 1.374 . S
C268 C302 1.395 . S
N269 C265 1.376 . S
N269 C268 1.374 . S
N269 Co270 2.008 . S
Co270 N269 2.008 . S
Co270 N271 1.995 . S
Co270 N276 2.008 . S
Co270 N281 1.995 . S
Co270 N286 2.282 . S
Co270 N292 2.282 . S
N271 Co270 1.995 . S
N271 C272 1.376 . S
N271 C275 1.383 . S
C272 N271 1.376 . S
C272 C273 1.446 . S
C272 C302 1.391 . S
C273 C272 1.446 . S
C273 C274 1.339 . S
C273 H308 0.949 . S
C274 C273 1.339 . S
C274 C275 1.439 . S
C274 H309 0.950 . S
C275 N271 1.383 . S
C275 C274 1.439 . S
C275 C304 1.392 . S
N276 Co270 2.008 . S
N276 C277 1.376 . S
N276 C280 1.374 . S
C277 N276 1.376 . S
C277 C278 1.443 . S
C277 C304 1.389 . S
C278 C277 1.443 . S
C278 C279 1.340 . S
C278 H310 0.951 . S
C279 C278 1.340 . S
C279 C280 1.439 . S
C279 H311 0.950 . S
C280 N276 1.374 . S
C280 C279 1.439 . S
C280 C305 1.395 . S
N281 Co270 1.995 . S
N281 C282 1.376 . S
N281 C285 1.383 . S
C282 N281 1.376 . S
C282 C283 1.446 . S
C282 C305 1.391 . S
C283 C282 1.446 . S
C283 C284 1.339 . S
C283 H312 0.949 . S
C284 C283 1.339 . S
C284 C285 1.439 . S
C284 H313 0.950 . S
C285 N281 1.383 . S
C285 C284 1.439 . S
C285 C303 1.392 . S
N286 Co270 2.282 . S
N286 C289 1.332 . S
N286 C291 1.332 . S
C287 C288 1.386 . S
C287 C290 1.388 . S
C288 C287 1.386 . S
C288 C289 1.382 . S
C288 H314 0.950 . S
C289 N286 1.332 . S
C289 C288 1.382 . S
C289 H300 0.952 . S
C290 C287 1.388 . S
C290 C291 1.382 . S
C290 H315 0.950 . S
C291 N286 1.332 . S
C291 C290 1.382 . S
C291 H301 0.948 . S
N292 Co270 2.282 . S
N292 C296 1.332 . S
N292 C297 1.332 . S
C293 C294 1.388 . S
C293 C297 1.382 . S
C293 H316 0.950 . S
C294 C293 1.388 . S
C294 C295 1.386 . S
C295 C294 1.386 . S
C295 C296 1.382 . S
C295 H317 0.950 . S
C296 N292 1.332 . S
C296 C295 1.382 . S
C296 H298 0.952 . S
C297 N292 1.332 . S
C297 C293 1.382 . S
C297 H299 0.948 . S
H298 C296 0.952 . S
H299 C297 0.948 . S
H300 C289 0.952 . S
H301 C291 0.948 . S
C302 C268 1.395 . S
C302 C272 1.391 . S
C303 C265 1.389 . S
C303 C285 1.392 . S
C304 C275 1.392 . S
C304 C277 1.389 . S
C305 C280 1.395 . S
C305 C282 1.391 . S
H306 C266 0.951 . S
H307 C267 0.950 . S
H308 C273 0.949 . S
H309 C274 0.950 . S
H310 C278 0.951 . S
H311 C279 0.950 . S
H312 C283 0.949 . S
H313 C284 0.950 . S
H314 C288 0.950 . S
H315 C290 0.950 . S
H316 C293 0.950 . S
H317 C295 0.950 . S
C318 C319 1.443 . S
C318 N322 1.376 . S
C318 C356 1.389 . S
C319 C318 1.443 . S
C319 C320 1.340 . S
C319 H359 0.951 . S
C320 C319 1.340 . S
C320 C321 1.439 . S
C320 H360 0.950 . S
C321 C320 1.439 . S
C321 N322 1.374 . S
C321 C355 1.395 . S
N322 C318 1.376 . S
N322 C321 1.374 . S
N322 Co323 2.008 . S
Co323 N322 2.008 . S
Co323 N324 1.995 . S
Co323 N329 2.008 . S
Co323 N334 1.995 . S
Co323 N339 2.282 . S
Co323 N345 2.282 . S
N324 Co323 1.995 . S
N324 C325 1.376 . S
N324 C328 1.383 . S
C325 N324 1.376 . S
C325 C326 1.446 . S
C325 C355 1.391 . S
C326 C325 1.446 . S
C326 C327 1.339 . S
C326 H361 0.949 . S
C327 C326 1.339 . S
C327 C328 1.439 . S
C327 H362 0.950 . S
C328 N324 1.383 . S
C328 C327 1.439 . S
C328 C357 1.392 . S
N329 Co323 2.008 . S
N329 C330 1.376 . S
N329 C333 1.374 . S
C330 N329 1.376 . S
C330 C331 1.443 . S
C330 C357 1.389 . S
C331 C330 1.443 . S
C331 C332 1.340 . S
C331 H363 0.951 . S
C332 C331 1.340 . S
C332 C333 1.439 . S
C332 H364 0.950 . S
C333 N329 1.374 . S
C333 C332 1.439 . S
C333 C358 1.395 . S
N334 Co323 1.995 . S
N334 C335 1.376 . S
N334 C338 1.383 . S
C335 N334 1.376 . S
C335 C336 1.446 . S
C335 C358 1.391 . S
C336 C335 1.446 . S
C336 C337 1.339 . S
C336 H365 0.949 . S
C337 C336 1.339 . S
C337 C338 1.439 . S
C337 H366 0.950 . S
C338 N334 1.383 . S
C338 C337 1.439 . S
C338 C356 1.392 . S
N339 Co323 2.282 . S
N339 C342 1.332 . S
N339 C344 1.332 . S
C340 C341 1.386 . S
C340 C343 1.388 . S
C341 C340 1.386 . S
C341 C342 1.382 . S
C341 H367 0.950 . S
C342 N339 1.332 . S
C342 C341 1.382 . S
C342 H353 0.952 . S
C343 C340 1.388 . S
C343 C344 1.382 . S
C343 H368 0.950 . S
C344 N339 1.332 . S
C344 C343 1.382 . S
C344 H354 0.948 . S
N345 Co323 2.282 . S
N345 C349 1.332 . S
N345 C350 1.332 . S
C346 C347 1.388 . S
C346 C350 1.382 . S
C346 H369 0.950 . S
C347 C346 1.388 . S
C347 C348 1.386 . S
C348 C347 1.386 . S
C348 C349 1.382 . S
C348 H370 0.950 . S
C349 N345 1.332 . S
C349 C348 1.382 . S
C349 H351 0.952 . S
C350 N345 1.332 . S
C350 C346 1.382 . S
C350 H352 0.948 . S
H351 C349 0.952 . S
H352 C350 0.948 . S
H353 C342 0.952 . S
H354 C344 0.948 . S
C355 C321 1.395 . S
C355 C325 1.391 . S
C356 C318 1.389 . S
C356 C338 1.392 . S
C357 C328 1.392 . S
C357 C330 1.389 . S
C358 C333 1.395 . S
C358 C335 1.391 . S
H359 C319 0.951 . S
H360 C320 0.950 . S
H361 C326 0.949 . S
H362 C327 0.950 . S
H363 C331 0.951 . S
H364 C332 0.950 . S
H365 C336 0.949 . S
H366 C337 0.950 . S
H367 C341 0.950 . S
H368 C343 0.950 . S
H369 C346 0.950 . S
H370 C348 0.950 . S
C371 C372 1.443 . S
C371 N375 1.376 . S
C371 C409 1.389 . S
C372 C371 1.443 . S
C372 C373 1.340 . S
C372 H412 0.951 . S
C373 C372 1.340 . S
C373 C374 1.439 1_565 S
C373 H413 0.950 . S
C374 C373 1.439 1_545 S
C374 N375 1.374 1_545 S
C374 C408 1.395 . S
N375 C371 1.376 . S
N375 C374 1.374 1_565 S
N375 Co376 2.008 1_565 S
Co376 N375 2.008 1_545 S
Co376 N377 1.995 . S
Co376 N382 2.008 . S
Co376 N387 1.995 1_545 S
Co376 N392 2.282 . S
Co376 N398 2.282 1_545 S
N377 Co376 1.995 . S
N377 C378 1.376 . S
N377 C381 1.383 . S
C378 N377 1.376 . S
C378 C379 1.446 . S
C378 C408 1.391 . S
C379 C378 1.446 . S
C379 C380 1.339 . S
C379 H414 0.949 . S
C380 C379 1.339 . S
C380 C381 1.439 . S
C380 H415 0.950 . S
C381 N377 1.383 . S
C381 C380 1.439 . S
C381 C410 1.392 . S
N382 Co376 2.008 . S
N382 C383 1.376 . S
N382 C386 1.374 1_545 S
C383 N382 1.376 . S
C383 C384 1.443 . S
C383 C410 1.389 . S
C384 C383 1.443 . S
C384 C385 1.340 . S
C384 H416 0.951 . S
C385 C384 1.340 . S
C385 C386 1.439 1_545 S
C385 H417 0.950 . S
C386 N382 1.374 1_565 S
C386 C385 1.439 1_565 S
C386 C411 1.395 . S
N387 Co376 1.995 1_565 S
N387 C388 1.376 . S
N387 C391 1.383 . S
C388 N387 1.376 . S
C388 C389 1.446 . S
C388 C411 1.391 . S
C389 C388 1.446 . S
C389 C390 1.339 . S
C389 H418 0.949 . S
C390 C389 1.339 . S
C390 C391 1.439 . S
C390 H419 0.950 . S
C391 N387 1.383 . S
C391 C390 1.439 . S
C391 C409 1.392 . S
N392 Co376 2.282 . S
N392 C395 1.332 1_545 S
N392 C397 1.332 . S
C393 C394 1.386 . S
C393 C396 1.388 . S
C394 C393 1.386 . S
C394 C395 1.382 1_545 S
C394 H420 0.950 1_545 S
C395 N392 1.332 1_565 S
C395 C394 1.382 1_565 S
C395 H406 0.952 . S
C396 C393 1.388 . S
C396 C397 1.382 . S
C396 H421 0.950 . S
C397 N392 1.332 . S
C397 C396 1.382 . S
C397 H407 0.948 . S
N398 Co376 2.282 1_565 S
N398 C402 1.332 1_565 S
N398 C403 1.332 . S
C399 C400 1.388 . S
C399 C403 1.382 . S
C399 H422 0.950 . S
C400 C399 1.388 . S
C400 C401 1.386 . S
C401 C400 1.386 . S
C401 C402 1.382 1_565 S
C401 H423 0.950 1_565 S
C402 N398 1.332 1_545 S
C402 C401 1.382 1_545 S
C402 H404 0.952 . S
C403 N398 1.332 . S
C403 C399 1.382 . S
C403 H405 0.948 . S
H404 C402 0.952 . S
H405 C403 0.948 . S
H406 C395 0.952 . S
H407 C397 0.948 . S
C408 C374 1.395 . S
C408 C378 1.391 . S
C409 C371 1.389 . S
C409 C391 1.392 . S
C410 C381 1.392 . S
C410 C383 1.389 . S
C411 C386 1.395 . S
C411 C388 1.391 . S
H412 C372 0.951 . S
H413 C373 0.950 . S
H414 C379 0.949 . S
H415 C380 0.950 . S
H416 C384 0.951 . S
H417 C385 0.950 . S
H418 C389 0.949 . S
H419 C390 0.950 . S
H420 C394 0.950 1_565 S
H421 C396 0.950 . S
H422 C399 0.950 . S
H423 C401 0.950 1_545 S
C424 C425 1.391 1_455 S
C424 C426 1.394 . S
C424 H440 0.931 . S
C425 C424 1.391 1_655 S
C425 C429 1.376 . S
C426 C424 1.394 . S
C426 C427 1.369 1_455 S
C426 C430 1.531 . S
C427 C426 1.369 1_655 S
C427 C428 1.410 . S
C427 C435 1.498 1_656 S
C428 C427 1.410 . S
C428 C429 1.392 . S
C428 C431 1.511 1_556 S
C429 C425 1.376 . S
C429 C428 1.392 . S
C429 H441 0.929 . S
C430 C426 1.531 . S
C430 H442 0.960 . S
C430 H443 0.962 . S
C430 H444 0.960 . S
C431 C428 1.511 1_554 S
C431 H445 0.961 . S
C431 H446 0.961 . S
C431 H447 0.961 . S
C432 C433 1.370 . S
C432 C434 1.363 . S
C432 H448 0.931 . S
C433 C432 1.370 . S
C433 C437 1.408 . S
C434 C432 1.363 . S
C434 C435 1.377 . S
C434 C438 1.524 . S
C435 C427 1.498 1_454 S
C435 C434 1.377 . S
C435 C436 1.401 1_454 S
C436 C435 1.401 1_656 S
C436 C437 1.404 1_656 S
C436 C439 1.539 . S
C437 C433 1.408 . S
C437 C436 1.404 1_454 S
C437 H449 0.933 . S
C438 C434 1.524 . S
C438 H450 0.956 . S
C438 H451 0.961 . S
C438 H452 0.961 . S
C439 C436 1.539 . S
C439 H453 0.958 . S
C439 H454 0.961 . S
C439 H455 0.960 . S
H440 C424 0.931 . S
H441 C429 0.929 . S
H442 C430 0.960 . S
H443 C430 0.962 . S
H444 C430 0.960 . S
H445 C431 0.961 . S
H446 C431 0.961 . S
H447 C431 0.961 . S
H448 C432 0.931 . S
H449 C437 0.933 . S
H450 C438 0.956 . S
H451 C438 0.961 . S
H452 C438 0.961 . S
H453 C439 0.958 . S
H454 C439 0.961 . S
H455 C439 0.960 . S
C456 C457 1.391 . S
C456 C458 1.394 . S
C456 H472 0.931 . S
C457 C456 1.391 . S
C457 C461 1.376 . S
C458 C456 1.394 . S
C458 C459 1.369 . S
C458 C462 1.531 . S
C459 C458 1.369 . S
C459 C460 1.410 . S
C459 C467 1.503 . S
C460 C459 1.410 . S
C460 C461 1.392 . S
C460 C463 1.511 . S
C461 C457 1.376 . S
C461 C460 1.392 . S
C461 H473 0.929 . S
C462 C458 1.531 . S
C462 H474 0.960 . S
C462 H475 0.962 . S
C462 H476 0.960 . S
C463 C460 1.511 . S
C463 H477 0.961 . S
C463 H478 0.961 . S
C463 H479 0.961 . S
C464 C465 1.370 . S
C464 C466 1.363 . S
C464 H480 0.931 . S
C465 C464 1.370 . S
C465 C469 1.408 . S
C466 C464 1.363 . S
C466 C467 1.370 . S
C466 C470 1.524 . S
C467 C459 1.503 . S
C467 C466 1.370 . S
C467 C468 1.403 . S
C468 C467 1.403 . S
C468 C469 1.404 . S
C468 C471 1.539 . S
C469 C465 1.408 . S
C469 C468 1.404 . S
C469 H481 0.930 . S
C470 C466 1.524 . S
C470 H482 0.956 . S
C470 H483 0.961 . S
C470 H484 0.961 . S
C471 C468 1.539 . S
C471 H485 0.958 . S
C471 H486 0.961 . S
C471 H487 0.960 . S
H472 C456 0.931 . S
H473 C461 0.929 . S
H474 C462 0.960 . S
H475 C462 0.962 . S
H476 C462 0.960 . S
H477 C463 0.961 . S
H478 C463 0.961 . S
H479 C463 0.961 . S
H480 C464 0.931 . S
H481 C469 0.930 . S
H482 C470 0.956 . S
H483 C470 0.961 . S
H484 C470 0.961 . S
H485 C471 0.958 . S
H486 C471 0.961 . S
H487 C471 0.960 . S
C488 C489 1.391 . S
C488 C490 1.394 . S
C488 H504 0.931 . S
C489 C488 1.391 . S
C489 C493 1.376 . S
C490 C488 1.394 . S
C490 C491 1.369 . S
C490 C494 1.531 1_565 S
C491 C490 1.369 . S
C491 C492 1.410 . S
C491 C499 1.503 1_564 S
C492 C491 1.410 . S
C492 C493 1.392 . S
C492 C495 1.511 1_554 S
C493 C489 1.376 . S
C493 C492 1.392 . S
C493 H505 0.929 . S
C494 C490 1.531 1_545 S
C494 H506 0.960 . S
C494 H507 0.962 . S
C494 H508 0.960 . S
C495 C492 1.511 1_556 S
C495 H509 0.961 . S
C495 H510 0.961 . S
C495 H511 0.961 . S
C496 C497 1.370 . S
C496 C498 1.363 . S
C496 H512 0.931 . S
C497 C496 1.370 . S
C497 C501 1.408 . S
C498 C496 1.363 . S
C498 C499 1.370 . S
C498 C502 1.524 1_545 S
C499 C491 1.503 1_546 S
C499 C498 1.370 . S
C499 C500 1.403 . S
C500 C499 1.403 . S
C500 C501 1.404 . S
C500 C503 1.539 1_556 S
C501 C497 1.408 . S
C501 C500 1.404 . S
C501 H513 0.930 . S
C502 C498 1.524 1_565 S
C502 H514 0.956 . S
C502 H515 0.961 . S
C502 H516 0.961 . S
C503 C500 1.539 1_554 S
C503 H517 0.958 . S
C503 H518 0.961 . S
C503 H519 0.960 . S
H504 C488 0.931 . S
H505 C493 0.929 . S
H506 C494 0.960 . S
H507 C494 0.962 . S
H508 C494 0.960 . S
H509 C495 0.961 . S
H510 C495 0.961 . S
H511 C495 0.961 . S
H512 C496 0.931 . S
H513 C501 0.930 . S
H514 C502 0.956 . S
H515 C502 0.961 . S
H516 C502 0.961 . S
H517 C503 0.958 . S
H518 C503 0.961 . S
H519 C503 0.960 . S
C520 C521 1.391 1_565 S
C520 C522 1.394 . S
C520 H536 0.931 . S
C521 C520 1.391 1_545 S
C521 C525 1.376 . S
C522 C520 1.394 . S
C522 C523 1.369 1_565 S
C522 C526 1.531 . S
C523 C522 1.369 1_545 S
C523 C524 1.410 . S
C523 C531 1.509 1_655 S
C524 C523 1.410 . S
C524 C525 1.392 . S
C524 C527 1.511 1_655 S
C525 C521 1.376 . S
C525 C524 1.392 . S
C525 H537 0.929 . S
C526 C522 1.531 . S
C526 H538 0.960 . S
C526 H539 0.962 . S
C526 H540 0.960 . S
C527 C524 1.511 1_455 S
C527 H541 0.961 . S
C527 H542 0.961 . S
C527 H543 0.961 . S
C528 C529 1.370 . S
C528 C530 1.363 1_565 S
C528 H544 0.931 1_565 S
C529 C528 1.370 . S
C529 C533 1.408 . S
C530 C528 1.363 1_545 S
C530 C531 1.375 . S
C530 C534 1.524 1_455 S
C531 C523 1.509 1_455 S
C531 C530 1.375 . S
C531 C532 1.392 1_545 S
C532 C531 1.392 1_565 S
C532 C533 1.404 . S
C532 C535 1.539 . S
C533 C529 1.408 . S
C533 C532 1.404 . S
C533 H545 0.930 . S
C534 C530 1.524 1_655 S
C534 H546 0.956 . S
C534 H547 0.961 . S
C534 H548 0.961 . S
C535 C532 1.539 . S
C535 H549 0.958 . S
C535 H550 0.961 . S
C535 H551 0.960 . S
H536 C520 0.931 . S
H537 C525 0.929 . S
H538 C526 0.960 . S
H539 C526 0.962 . S
H540 C526 0.960 . S
H541 C527 0.961 . S
H542 C527 0.961 . S
H543 C527 0.961 . S
H544 C528 0.931 1_545 S
H545 C533 0.930 . S
H546 C534 0.956 . S
H547 C534 0.961 . S
H548 C534 0.961 . S
H549 C535 0.958 . S
H550 C535 0.961 . S
H551 C535 0.960 . S
C552 C553 1.391 . S
C552 C554 1.394 . S
C552 H568 0.931 . S
C553 C552 1.391 . S
C553 C557 1.376 . S
C554 C552 1.394 . S
C554 C555 1.369 . S
C554 C558 1.531 . S
C555 C554 1.369 . S
C555 C556 1.410 . S
C555 C563 1.503 . S
C556 C555 1.410 . S
C556 C557 1.392 . S
C556 C559 1.511 . S
C557 C553 1.376 . S
C557 C556 1.392 . S
C557 H569 0.929 . S
C558 C554 1.531 . S
C558 H570 0.960 . S
C558 H571 0.962 . S
C558 H572 0.960 . S
C559 C556 1.511 . S
C559 H573 0.961 . S
C559 H574 0.961 . S
C559 H575 0.961 . S
C560 C561 1.370 . S
C560 C562 1.363 . S
C560 H576 0.931 . S
C561 C560 1.370 . S
C561 C565 1.408 . S
C562 C560 1.363 . S
C562 C563 1.370 . S
C562 C566 1.524 . S
C563 C555 1.503 . S
C563 C562 1.370 . S
C563 C564 1.403 . S
C564 C563 1.403 . S
C564 C565 1.404 . S
C564 C567 1.539 . S
C565 C561 1.408 . S
C565 C564 1.404 . S
C565 H577 0.930 . S
C566 C562 1.524 . S
C566 H578 0.956 . S
C566 H579 0.961 . S
C566 H580 0.961 . S
C567 C564 1.539 . S
C567 H581 0.958 . S
C567 H582 0.961 . S
C567 H583 0.960 . S
H568 C552 0.931 . S
H569 C557 0.929 . S
H570 C558 0.960 . S
H571 C558 0.962 . S
H572 C558 0.960 . S
H573 C559 0.961 . S
H574 C559 0.961 . S
H575 C559 0.961 . S
H576 C560 0.931 . S
H577 C565 0.930 . S
H578 C566 0.956 . S
H579 C566 0.961 . S
H580 C566 0.961 . S
H581 C567 0.958 . S
H582 C567 0.961 . S
H583 C567 0.960 . S
C584 C585 1.391 . S
C584 C586 1.394 . S
C584 H600 0.931 . S
C585 C584 1.391 . S
C585 C589 1.376 . S
C586 C584 1.394 . S
C586 C587 1.369 . S
C586 C590 1.531 . S
C587 C586 1.369 . S
C587 C588 1.410 . S
C587 C595 1.503 . S
C588 C587 1.410 . S
C588 C589 1.392 . S
C588 C591 1.511 . S
C589 C585 1.376 . S
C589 C588 1.392 . S
C589 H601 0.929 . S
C590 C586 1.531 . S
C590 H602 0.960 . S
C590 H603 0.962 . S
C590 H604 0.960 . S
C591 C588 1.511 . S
C591 H605 0.961 . S
C591 H606 0.961 . S
C591 H607 0.961 . S
C592 C593 1.370 . S
C592 C594 1.363 . S
C592 H608 0.931 . S
C593 C592 1.370 . S
C593 C597 1.408 . S
C594 C592 1.363 . S
C594 C595 1.370 . S
C594 C598 1.524 . S
C595 C587 1.503 . S
C595 C594 1.370 . S
C595 C596 1.403 . S
C596 C595 1.403 . S
C596 C597 1.404 . S
C596 C599 1.539 . S
C597 C593 1.408 . S
C597 C596 1.404 . S
C597 H609 0.930 . S
C598 C594 1.524 . S
C598 H610 0.956 . S
C598 H611 0.961 . S
C598 H612 0.961 . S
C599 C596 1.539 . S
C599 H613 0.958 . S
C599 H614 0.961 . S
C599 H615 0.960 . S
H600 C584 0.931 . S
H601 C589 0.929 . S
H602 C590 0.960 . S
H603 C590 0.962 . S
H604 C590 0.960 . S
H605 C591 0.961 . S
H606 C591 0.961 . S
H607 C591 0.961 . S
H608 C592 0.931 . S
H609 C597 0.930 . S
H610 C598 0.956 . S
H611 C598 0.961 . S
H612 C598 0.961 . S
H613 C599 0.958 . S
H614 C599 0.961 . S
H615 C599 0.960 . S
C616 C617 1.391 . S
C616 C618 1.394 . S
C616 H632 0.931 . S
C617 C616 1.391 . S
C617 C621 1.376 . S
C618 C616 1.394 . S
C618 C619 1.369 . S
C618 C622 1.531 . S
C619 C618 1.369 . S
C619 C620 1.410 . S
C619 C627 1.503 . S
C620 C619 1.410 . S
C620 C621 1.392 . S
C620 C623 1.511 . S
C621 C617 1.376 . S
C621 C620 1.392 . S
C621 H633 0.929 . S
C622 C618 1.531 . S
C622 H634 0.960 . S
C622 H635 0.962 . S
C622 H636 0.960 . S
C623 C620 1.511 . S
C623 H637 0.961 . S
C623 H638 0.961 . S
C623 H639 0.961 . S
C624 C625 1.370 . S
C624 C626 1.363 . S
C624 H640 0.931 . S
C625 C624 1.370 . S
C625 C629 1.408 . S
C626 C624 1.363 . S
C626 C627 1.370 . S
C626 C630 1.524 . S
C627 C619 1.503 . S
C627 C626 1.370 . S
C627 C628 1.403 . S
C628 C627 1.403 . S
C628 C629 1.404 . S
C628 C631 1.539 . S
C629 C625 1.408 . S
C629 C628 1.404 . S
C629 H641 0.930 . S
C630 C626 1.524 . S
C630 H642 0.956 . S
C630 H643 0.961 . S
C630 H644 0.961 . S
C631 C628 1.539 . S
C631 H645 0.958 . S
C631 H646 0.961 . S
C631 H647 0.960 . S
H632 C616 0.931 . S
H633 C621 0.929 . S
H634 C622 0.960 . S
H635 C622 0.962 . S
H636 C622 0.960 . S
H637 C623 0.961 . S
H638 C623 0.961 . S
H639 C623 0.961 . S
H640 C624 0.931 . S
H641 C629 0.930 . S
H642 C630 0.956 . S
H643 C630 0.961 . S
H644 C630 0.961 . S
H645 C631 0.958 . S
H646 C631 0.961 . S
H647 C631 0.960 . S
C648 C649 1.391 . S
C648 C650 1.394 . S
C648 H664 0.931 . S
C649 C648 1.391 . S
C649 C653 1.376 . S
C650 C648 1.394 . S
C650 C651 1.369 . S
C650 C654 1.531 . S
C651 C650 1.369 . S
C651 C652 1.410 . S
C651 C659 1.503 . S
C652 C651 1.410 . S
C652 C653 1.392 . S
C652 C655 1.511 . S
C653 C649 1.376 . S
C653 C652 1.392 . S
C653 H665 0.929 . S
C654 C650 1.531 . S
C654 H666 0.960 . S
C654 H667 0.962 . S
C654 H668 0.960 . S
C655 C652 1.511 . S
C655 H669 0.961 . S
C655 H670 0.961 . S
C655 H671 0.961 . S
C656 C657 1.370 . S
C656 C658 1.363 . S
C656 H672 0.931 . S
C657 C656 1.370 . S
C657 C661 1.408 . S
C658 C656 1.363 . S
C658 C659 1.370 . S
C658 C662 1.524 . S
C659 C651 1.503 . S
C659 C658 1.370 . S
C659 C660 1.403 . S
C660 C659 1.403 . S
C660 C661 1.404 . S
C660 C663 1.539 . S
C661 C657 1.408 . S
C661 C660 1.404 . S
C661 H673 0.930 . S
C662 C658 1.524 . S
C662 H674 0.956 . S
C662 H675 0.961 . S
C662 H676 0.961 . S
C663 C660 1.539 . S
C663 H677 0.958 . S
C663 H678 0.961 . S
C663 H679 0.960 . S
H664 C648 0.931 . S
H665 C653 0.929 . S
H666 C654 0.960 . S
H667 C654 0.962 . S
H668 C654 0.960 . S
H669 C655 0.961 . S
H670 C655 0.961 . S
H671 C655 0.961 . S
H672 C656 0.931 . S
H673 C661 0.930 . S
H674 C662 0.956 . S
H675 C662 0.961 . S
H676 C662 0.961 . S
H677 C663 0.958 . S
H678 C663 0.961 . S
H679 C663 0.960 . S
C680 C681 1.391 . S
C680 C682 1.394 . S
C680 H696 0.931 . S
C681 C680 1.391 . S
C681 C685 1.376 . S
C682 C680 1.394 . S
C682 C683 1.369 . S
C682 C686 1.531 . S
C683 C682 1.369 . S
C683 C684 1.410 . S
C683 C691 1.503 . S
C684 C683 1.410 . S
C684 C685 1.392 . S
C684 C687 1.511 . S
C685 C681 1.376 . S
C685 C684 1.392 . S
C685 H697 0.929 . S
C686 C682 1.531 . S
C686 H698 0.960 . S
C686 H699 0.962 . S
C686 H700 0.960 . S
C687 C684 1.511 . S
C687 H701 0.961 . S
C687 H702 0.961 . S
C687 H703 0.961 . S
C688 C689 1.370 . S
C688 C690 1.363 . S
C688 H704 0.931 . S
C689 C688 1.370 . S
C689 C693 1.408 . S
C690 C688 1.363 . S
C690 C691 1.370 . S
C690 C694 1.524 . S
C691 C683 1.503 . S
C691 C690 1.370 . S
C691 C692 1.403 . S
C692 C691 1.403 . S
C692 C693 1.404 . S
C692 C695 1.539 . S
C693 C689 1.408 . S
C693 C692 1.404 . S
C693 H705 0.930 . S
C694 C690 1.524 . S
C694 H706 0.956 . S
C694 H707 0.961 . S
C694 H708 0.961 . S
C695 C692 1.539 . S
C695 H709 0.958 . S
C695 H710 0.961 . S
C695 H711 0.960 . S
H696 C680 0.931 . S
H697 C685 0.929 . S
H698 C686 0.960 . S
H699 C686 0.962 . S
H700 C686 0.960 . S
H701 C687 0.961 . S
H702 C687 0.961 . S
H703 C687 0.961 . S
H704 C688 0.931 . S
H705 C693 0.930 . S
H706 C694 0.956 . S
H707 C694 0.961 . S
H708 C694 0.961 . S
H709 C695 0.958 . S
H710 C695 0.961 . S
H711 C695 0.960 . S
C712 C713 1.391 . S
C712 C714 1.394 . S
C712 H728 0.931 . S
C713 C712 1.391 . S
C713 C717 1.376 . S
C714 C712 1.394 . S
C714 C715 1.369 . S
C714 C718 1.531 . S
C715 C714 1.369 . S
C715 C716 1.410 . S
C715 C723 1.503 . S
C716 C715 1.410 . S
C716 C717 1.392 . S
C716 C719 1.511 . S
C717 C713 1.376 . S
C717 C716 1.392 . S
C717 H729 0.929 . S
C718 C714 1.531 . S
C718 H730 0.960 . S
C718 H731 0.962 . S
C718 H732 0.960 . S
C719 C716 1.511 . S
C719 H733 0.961 . S
C719 H734 0.961 . S
C719 H735 0.961 . S
C720 C721 1.370 . S
C720 C722 1.363 . S
C720 H736 0.931 . S
C721 C720 1.370 . S
C721 C725 1.408 . S
C722 C720 1.363 . S
C722 C723 1.370 . S
C722 C726 1.524 . S
C723 C715 1.503 . S
C723 C722 1.370 . S
C723 C724 1.403 . S
C724 C723 1.403 . S
C724 C725 1.404 . S
C724 C727 1.539 . S
C725 C721 1.408 . S
C725 C724 1.404 . S
C725 H737 0.930 . S
C726 C722 1.524 . S
C726 H738 0.956 . S
C726 H739 0.961 . S
C726 H740 0.961 . S
C727 C724 1.539 . S
C727 H741 0.958 . S
C727 H742 0.961 . S
C727 H743 0.960 . S
H728 C712 0.931 . S
H729 C717 0.929 . S
H730 C718 0.960 . S
H731 C718 0.962 . S
H732 C718 0.960 . S
H733 C719 0.961 . S
H734 C719 0.961 . S
H735 C719 0.961 . S
H736 C720 0.931 . S
H737 C725 0.930 . S
H738 C726 0.956 . S
H739 C726 0.961 . S
H740 C726 0.961 . S
H741 C727 0.958 . S
H742 C727 0.961 . S
H743 C727 0.960 . S
C744 C745 1.391 . S
C744 C746 1.394 . S
C744 H760 0.931 . S
C745 C744 1.391 . S
C745 C749 1.376 . S
C746 C744 1.394 . S
C746 C747 1.369 . S
C746 C750 1.531 . S
C747 C746 1.369 . S
C747 C748 1.410 . S
C747 C755 1.503 . S
C748 C747 1.410 . S
C748 C749 1.392 . S
C748 C751 1.511 . S
C749 C745 1.376 . S
C749 C748 1.392 . S
C749 H761 0.929 . S
C750 C746 1.531 . S
C750 H762 0.960 . S
C750 H763 0.962 . S
C750 H764 0.960 . S
C751 C748 1.511 . S
C751 H765 0.961 . S
C751 H766 0.961 . S
C751 H767 0.961 . S
C752 C753 1.370 . S
C752 C754 1.363 . S
C752 H768 0.931 . S
C753 C752 1.370 . S
C753 C757 1.408 . S
C754 C752 1.363 . S
C754 C755 1.370 . S
C754 C758 1.524 . S
C755 C747 1.503 . S
C755 C754 1.370 . S
C755 C756 1.403 . S
C756 C755 1.403 . S
C756 C757 1.404 . S
C756 C759 1.539 . S
C757 C753 1.408 . S
C757 C756 1.404 . S
C757 H769 0.930 . S
C758 C754 1.524 . S
C758 H770 0.956 . S
C758 H771 0.961 . S
C758 H772 0.961 . S
C759 C756 1.539 . S
C759 H773 0.958 . S
C759 H774 0.961 . S
C759 H775 0.960 . S
H760 C744 0.931 . S
H761 C749 0.929 . S
H762 C750 0.960 . S
H763 C750 0.962 . S
H764 C750 0.960 . S
H765 C751 0.961 . S
H766 C751 0.961 . S
H767 C751 0.961 . S
H768 C752 0.931 . S
H769 C757 0.930 . S
H770 C758 0.956 . S
H771 C758 0.961 . S
H772 C758 0.961 . S
H773 C759 0.958 . S
H774 C759 0.961 . S
H775 C759 0.960 . S
C776 C777 1.391 . S
C776 C778 1.394 . S
C776 H792 0.931 . S
C777 C776 1.391 . S
C777 C781 1.376 . S
C778 C776 1.394 . S
C778 C779 1.369 . S
C778 C782 1.531 . S
C779 C778 1.369 . S
C779 C780 1.410 . S
C779 C787 1.503 . S
C780 C779 1.410 . S
C780 C781 1.392 . S
C780 C783 1.511 . S
C781 C777 1.376 . S
C781 C780 1.392 . S
C781 H793 0.929 . S
C782 C778 1.531 . S
C782 H794 0.960 . S
C782 H795 0.962 . S
C782 H796 0.960 . S
C783 C780 1.511 . S
C783 H797 0.961 . S
C783 H798 0.961 . S
C783 H799 0.961 . S
C784 C785 1.370 . S
C784 C786 1.363 . S
C784 H800 0.931 . S
C785 C784 1.370 . S
C785 C789 1.408 . S
C786 C784 1.363 . S
C786 C787 1.370 . S
C786 C790 1.524 . S
C787 C779 1.503 . S
C787 C786 1.370 . S
C787 C788 1.403 . S
C788 C787 1.403 . S
C788 C789 1.404 . S
C788 C791 1.539 . S
C789 C785 1.408 . S
C789 C788 1.404 . S
C789 H801 0.930 . S
C790 C786 1.524 . S
C790 H802 0.956 . S
C790 H803 0.961 . S
C790 H804 0.961 . S
C791 C788 1.539 . S
C791 H805 0.958 . S
C791 H806 0.961 . S
C791 H807 0.960 . S
H792 C776 0.931 . S
H793 C781 0.929 . S
H794 C782 0.960 . S
H795 C782 0.962 . S
H796 C782 0.960 . S
H797 C783 0.961 . S
H798 C783 0.961 . S
H799 C783 0.961 . S
H800 C784 0.931 . S
H801 C789 0.930 . S
H802 C790 0.956 . S
H803 C790 0.961 . S
H804 C790 0.961 . S
H805 C791 0.958 . S
H806 C791 0.961 . S
H807 C791 0.960 . S
C808 C809 1.391 . S
C808 C810 1.394 . S
C808 H824 0.931 . S
C809 C808 1.391 . S
C809 C813 1.376 . S
C810 C808 1.394 . S
C810 C811 1.369 . S
C810 C814 1.531 . S
C811 C810 1.369 . S
C811 C812 1.410 . S
C811 C819 1.503 . S
C812 C811 1.410 . S
C812 C813 1.392 . S
C812 C815 1.511 . S
C813 C809 1.376 . S
C813 C812 1.392 . S
C813 H825 0.929 . S
C814 C810 1.531 . S
C814 H826 0.960 . S
C814 H827 0.962 . S
C814 H828 0.960 . S
C815 C812 1.511 . S
C815 H829 0.961 . S
C815 H830 0.961 . S
C815 H831 0.961 . S
C816 C817 1.370 . S
C816 C818 1.363 . S
C816 H832 0.931 . S
C817 C816 1.370 . S
C817 C821 1.408 . S
C818 C816 1.363 . S
C818 C819 1.370 . S
C818 C822 1.524 . S
C819 C811 1.503 . S
C819 C818 1.370 . S
C819 C820 1.403 . S
C820 C819 1.403 . S
C820 C821 1.404 . S
C820 C823 1.539 . S
C821 C817 1.408 . S
C821 C820 1.404 . S
C821 H833 0.930 . S
C822 C818 1.524 . S
C822 H834 0.956 . S
C822 H835 0.961 . S
C822 H836 0.961 . S
C823 C820 1.539 . S
C823 H837 0.958 . S
C823 H838 0.961 . S
C823 H839 0.960 . S
H824 C808 0.931 . S
H825 C813 0.929 . S
H826 C814 0.960 . S
H827 C814 0.962 . S
H828 C814 0.960 . S
H829 C815 0.961 . S
H830 C815 0.961 . S
H831 C815 0.961 . S
H832 C816 0.931 . S
H833 C821 0.930 . S
H834 C822 0.956 . S
H835 C822 0.961 . S
H836 C822 0.961 . S
H837 C823 0.958 . S
H838 C823 0.961 . S
H839 C823 0.960 . S
C840 C841 1.391 . S
C840 C842 1.394 . S
C840 H856 0.931 . S
C841 C840 1.391 . S
C841 C845 1.376 . S
C842 C840 1.394 . S
C842 C843 1.369 . S
C842 C846 1.531 . S
C843 C842 1.369 . S
C843 C844 1.410 . S
C843 C851 1.503 . S
C844 C843 1.410 . S
C844 C845 1.392 . S
C844 C847 1.511 . S
C845 C841 1.376 . S
C845 C844 1.392 . S
C845 H857 0.929 . S
C846 C842 1.531 . S
C846 H858 0.960 . S
C846 H859 0.962 . S
C846 H860 0.960 . S
C847 C844 1.511 . S
C847 H861 0.961 . S
C847 H862 0.961 . S
C847 H863 0.961 . S
C848 C849 1.370 . S
C848 C850 1.363 . S
C848 H864 0.931 . S
C849 C848 1.370 . S
C849 C853 1.408 . S
C850 C848 1.363 . S
C850 C851 1.370 . S
C850 C854 1.524 . S
C851 C843 1.503 . S
C851 C850 1.370 . S
C851 C852 1.403 . S
C852 C851 1.403 . S
C852 C853 1.404 . S
C852 C855 1.539 . S
C853 C849 1.408 . S
C853 C852 1.404 . S
C853 H865 0.930 . S
C854 C850 1.524 . S
C854 H866 0.956 . S
C854 H867 0.961 . S
C854 H868 0.961 . S
C855 C852 1.539 . S
C855 H869 0.958 . S
C855 H870 0.961 . S
C855 H871 0.960 . S
H856 C840 0.931 . S
H857 C845 0.929 . S
H858 C846 0.960 . S
H859 C846 0.962 . S
H860 C846 0.960 . S
H861 C847 0.961 . S
H862 C847 0.961 . S
H863 C847 0.961 . S
H864 C848 0.931 . S
H865 C853 0.930 . S
H866 C854 0.956 . S
H867 C854 0.961 . S
H868 C854 0.961 . S
H869 C855 0.958 . S
H870 C855 0.961 . S
H871 C855 0.960 . S
C872 C873 1.391 . S
C872 C874 1.394 . S
C872 H888 0.931 . S
C873 C872 1.391 . S
C873 C877 1.376 . S
C874 C872 1.394 . S
C874 C875 1.369 . S
C874 C878 1.531 . S
C875 C874 1.369 . S
C875 C876 1.410 . S
C875 C883 1.503 . S
C876 C875 1.410 . S
C876 C877 1.392 . S
C876 C879 1.511 . S
C877 C873 1.376 . S
C877 C876 1.392 . S
C877 H889 0.929 . S
C878 C874 1.531 . S
C878 H890 0.960 . S
C878 H891 0.962 . S
C878 H892 0.960 . S
C879 C876 1.511 . S
C879 H893 0.961 . S
C879 H894 0.961 . S
C879 H895 0.961 . S
C880 C881 1.370 . S
C880 C882 1.363 . S
C880 H896 0.931 . S
C881 C880 1.370 . S
C881 C885 1.408 . S
C882 C880 1.363 . S
C882 C883 1.370 . S
C882 C886 1.524 . S
C883 C875 1.503 . S
C883 C882 1.370 . S
C883 C884 1.403 . S
C884 C883 1.403 . S
C884 C885 1.404 . S
C884 C887 1.539 . S
C885 C881 1.408 . S
C885 C884 1.404 . S
C885 H897 0.930 1_545 S
C886 C882 1.524 . S
C886 H898 0.956 . S
C886 H899 0.961 . S
C886 H900 0.961 . S
C887 C884 1.539 . S
C887 H901 0.958 1_545 S
C887 H902 0.961 . S
C887 H903 0.960 . S
H888 C872 0.931 . S
H889 C877 0.929 . S
H890 C878 0.960 . S
H891 C878 0.962 . S
H892 C878 0.960 . S
H893 C879 0.961 . S
H894 C879 0.961 . S
H895 C879 0.961 . S
H896 C880 0.931 . S
H897 C885 0.930 1_565 S
H898 C886 0.956 . S
H899 C886 0.961 . S
H900 C886 0.961 . S
H901 C887 0.958 1_565 S
H902 C887 0.961 . S
H903 C887 0.960 . S
C904 C905 1.391 . S
C904 C906 1.394 . S
C904 H920 0.931 . S
C905 C904 1.391 . S
C905 C909 1.376 . S
C906 C904 1.394 . S
C906 C907 1.369 . S
C906 C910 1.531 . S
C907 C906 1.369 . S
C907 C908 1.410 . S
C907 C915 1.503 . S
C908 C907 1.410 . S
C908 C909 1.392 . S
C908 C911 1.511 . S
C909 C905 1.376 . S
C909 C908 1.392 . S
C909 H921 0.929 . S
C910 C906 1.531 . S
C910 H922 0.960 . S
C910 H923 0.962 . S
C910 H924 0.960 . S
C911 C908 1.511 . S
C911 H925 0.961 . S
C911 H926 0.961 . S
C911 H927 0.961 . S
C912 C913 1.370 . S
C912 C914 1.363 . S
C912 H928 0.931 . S
C913 C912 1.370 . S
C913 C917 1.408 . S
C914 C912 1.363 . S
C914 C915 1.370 . S
C914 C918 1.524 . S
C915 C907 1.503 . S
C915 C914 1.370 . S
C915 C916 1.403 . S
C916 C915 1.403 . S
C916 C917 1.404 . S
C916 C919 1.539 . S
C917 C913 1.408 . S
C917 C916 1.404 . S
C917 H929 0.930 . S
C918 C914 1.524 . S
C918 H930 0.956 . S
C918 H931 0.961 . S
C918 H932 0.961 . S
C919 C916 1.539 . S
C919 H933 0.958 . S
C919 H934 0.961 . S
C919 H935 0.960 . S
H920 C904 0.931 . S
H921 C909 0.929 . S
H922 C910 0.960 . S
H923 C910 0.962 . S
H924 C910 0.960 . S
H925 C911 0.961 . S
H926 C911 0.961 . S
H927 C911 0.961 . S
H928 C912 0.931 . S
H929 C917 0.930 . S
H930 C918 0.956 . S
H931 C918 0.961 . S
H932 C918 0.961 . S
H933 C919 0.958 . S
H934 C919 0.961 . S
H935 C919 0.960 . S
C425 C250 2.073 . S
C433 C22 2.059 . S
C457 C91 1.974 . S
C465 C287 1.988 . S
C489 C128 1.849 . S
C497 C356 1.883 . S
C521 C393 1.955 . S
C529 C197 1.982 . S
C553 C39 2.819 . S
C561 C145 2.814 . S
C585 C82 2.450 . S
C593 C188 2.455 . S
C617 C347 2.417 . S
C625 C241 2.427 . S
C649 C304 2.802 . S
C657 C410 2.827 . S
C681 C294 1.605 . S
C689 C38 1.560 . S
C713 C75 1.646 . S
C721 C357 1.702 . S
C745 C144 1.596 . S
C753 C400 1.680 . S
C777 C251 1.526 . S
C785 C181 1.462 . S
C809 C234 1.545 . S
C817 C92 1.592 . S
C841 C303 1.632 . S
C849 C135 1.686 . S
C873 C340 1.586 . S
C881 C198 1.645 . S
C905 C29 1.596 . S
C913 C409 1.543 . S
