# Generated by pormake.
# Topology wke, (5)-cn, num edge types: 1
# Building blocks:
#     Node 0, Type 0, BuildingBlock: XOMCOT_clean_sbu_1, # of connection points: 5
#     Node 1, Type 0, BuildingBlock: XOMCOT_clean_sbu_1, # of connection points: 5
#     Node 2, Type 0, BuildingBlock: XOMCOT_clean_sbu_1, # of connection points: 5
#     Node 3, Type 0, BuildingBlock: XOMCOT_clean_sbu_1, # of connection points: 5
#     Node 4, Type 0, BuildingBlock: XOMCOT_clean_sbu_1, # of connection points: 5
#     Node 5, Type 0, BuildingBlock: XOMCOT_clean_sbu_1, # of connection points: 5
#     Node 6, Type 0, BuildingBlock: XOMCOT_clean_sbu_1, # of connection points: 5
#     Node 7, Type 0, BuildingBlock: XOMCOT_clean_sbu_1, # of connection points: 5
#     Node 8, Type 0, BuildingBlock: XOMCOT_clean_sbu_1, # of connection points: 5
#     Node 9, Type 0, BuildingBlock: XOMCOT_clean_sbu_1, # of connection points: 5
#     Node 10, Type 0, BuildingBlock: XOMCOT_clean_sbu_1, # of connection points: 5
#     Node 11, Type 0, BuildingBlock: XOMCOT_clean_sbu_1, # of connection points: 5
#     Edge 12, Type (0, 0), BuildingBlock: MIFKUJ_clean_linker_0, # of connection points: 2
#     Edge 13, Type (0, 0), BuildingBlock: MIFKUJ_clean_linker_0, # of connection points: 2
#     Edge 14, Type (0, 0), BuildingBlock: MIFKUJ_clean_linker_0, # of connection points: 2
#     Edge 15, Type (0, 0), BuildingBlock: MIFKUJ_clean_linker_0, # of connection points: 2
#     Edge 16, Type (0, 0), BuildingBlock: MIFKUJ_clean_linker_0, # of connection points: 2
#     Edge 17, Type (0, 0), BuildingBlock: MIFKUJ_clean_linker_0, # of connection points: 2
#     Edge 18, Type (0, 0), BuildingBlock: MIFKUJ_clean_linker_0, # of connection points: 2
#     Edge 19, Type (0, 0), BuildingBlock: MIFKUJ_clean_linker_0, # of connection points: 2
#     Edge 20, Type (0, 0), BuildingBlock: MIFKUJ_clean_linker_0, # of connection points: 2
#     Edge 21, Type (0, 0), BuildingBlock: MIFKUJ_clean_linker_0, # of connection points: 2
#     Edge 22, Type (0, 0), BuildingBlock: MIFKUJ_clean_linker_0, # of connection points: 2
#     Edge 23, Type (0, 0), BuildingBlock: MIFKUJ_clean_linker_0, # of connection points: 2
#     Edge 24, Type (0, 0), BuildingBlock: MIFKUJ_clean_linker_0, # of connection points: 2
#     Edge 25, Type (0, 0), BuildingBlock: MIFKUJ_clean_linker_0, # of connection points: 2
#     Edge 26, Type (0, 0), BuildingBlock: MIFKUJ_clean_linker_0, # of connection points: 2
#     Edge 27, Type (0, 0), BuildingBlock: MIFKUJ_clean_linker_0, # of connection points: 2
#     Edge 28, Type (0, 0), BuildingBlock: MIFKUJ_clean_linker_0, # of connection points: 2
#     Edge 29, Type (0, 0), BuildingBlock: MIFKUJ_clean_linker_0, # of connection points: 2
#     Edge 30, Type (0, 0), BuildingBlock: MIFKUJ_clean_linker_0, # of connection points: 2
#     Edge 31, Type (0, 0), BuildingBlock: MIFKUJ_clean_linker_0, # of connection points: 2
#     Edge 32, Type (0, 0), BuildingBlock: MIFKUJ_clean_linker_0, # of connection points: 2
#     Edge 33, Type (0, 0), BuildingBlock: MIFKUJ_clean_linker_0, # of connection points: 2
#     Edge 34, Type (0, 0), BuildingBlock: MIFKUJ_clean_linker_0, # of connection points: 2
#     Edge 35, Type (0, 0), BuildingBlock: MIFKUJ_clean_linker_0, # of connection points: 2
#     Edge 36, Type (0, 0), BuildingBlock: MIFKUJ_clean_linker_0, # of connection points: 2
#     Edge 37, Type (0, 0), BuildingBlock: MIFKUJ_clean_linker_0, # of connection points: 2
#     Edge 38, Type (0, 0), BuildingBlock: MIFKUJ_clean_linker_0, # of connection points: 2
#     Edge 39, Type (0, 0), BuildingBlock: MIFKUJ_clean_linker_0, # of connection points: 2
#     Edge 40, Type (0, 0), BuildingBlock: MIFKUJ_clean_linker_0, # of connection points: 2
#     Edge 41, Type (0, 0), BuildingBlock: MIFKUJ_clean_linker_0, # of connection points: 2
# Relax obj value: 0.161
# Max RMSD: 0.151
# Mean RMSD: 0.151
data_MOF--net-wke--node1-XOMCOT_clean_sbu_1--edge1-MIFKUJ_clean_linker_0
_symmetry_space_group_name_H-M    P1
_symmetry_Int_Tables_number       1
_symmetry_cell_setting            triclinic
loop_
_symmetry_equiv_pos_as_xyz
'x, y, z'
_cell_length_a     91.536445
_cell_length_b     91.572878
_cell_length_c     21.978523
_cell_angle_alpha  89.993958
_cell_angle_beta   89.988814
_cell_angle_gamma 120.01756
loop_
_atom_site_label
_atom_site_type_symbol
_atom_site_fract_x
_atom_site_fract_y
_atom_site_fract_z
_atom_type_partial_charge
C0 C 0.12945 0.45686 0.38343 0.0
C1 C 0.13113 0.45904 0.44543 0.0
N2 N 0.12188 0.44385 0.47224 0.0
N3 N 0.11908 0.44041 0.37106 0.0
C4 C 0.11478 0.43278 0.42593 0.0
H5 H 0.13538 0.46667 0.34953 0.0
Co6 Co 0.11263 0.43083 0.29419 0.0
C7 C 0.0761 0.40587 0.30547 0.0
O8 O 0.07384 0.41029 0.25095 0.0
N9 N 0.10652 0.42092 0.21622 0.0
C10 C 0.09841 0.40114 0.14453 0.0
C11 C 0.10042 0.4043 0.20592 0.0
C12 C 0.10852 0.42763 0.15982 0.0
N13 N 0.10357 0.41585 0.11559 0.0
O14 O 0.12358 0.41779 0.30874 0.0
H15 H 0.09783 0.39504 0.24105 0.0
H16 H 0.11372 0.44086 0.15052 0.0
O17 O 0.09099 0.41294 0.32826 0.0
C18 C 0.13939 0.42721 0.29957 0.0
O19 O 0.14512 0.44311 0.28552 0.0
N20 N 0.1038 0.44525 0.27905 0.0
C21 C 0.09832 0.47258 0.26565 0.0
C22 C 0.08767 0.45876 0.30252 0.0
C23 C 0.09084 0.44538 0.3097 0.0
C24 C 0.11444 0.45878 0.24441 0.0
C25 C 0.11173 0.47231 0.23586 0.0
H26 H 0.08354 0.43581 0.34294 0.0
H27 H 0.12573 0.45951 0.22586 0.0
H28 H 0.10681 0.41931 0.43162 0.0
H29 H 0.13841 0.47096 0.46873 0.0
H30 H 0.09409 0.38905 0.12281 0.0
H31 H 0.07757 0.45872 0.32834 0.0
H32 H 0.12043 0.48273 0.2075 0.0
C33 C 0.67706 0.12925 0.9005 0.0
C34 C 0.67643 0.13085 0.96247 0.0
N35 N 0.68206 0.12136 0.9894 0.0
N36 N 0.68293 0.11869 0.88825 0.0
C37 C 0.68598 0.11418 0.94319 0.0
H38 H 0.67348 0.13541 0.86651 0.0
Co39 Co 0.68638 0.11255 0.81136 0.0
C40 C 0.67395 0.07586 0.82009 0.0
O41 O 0.66754 0.07413 0.76529 0.0
N42 N 0.69054 0.10677 0.73333 0.0
C43 C 0.70243 0.09877 0.66202 0.0
C44 C 0.70083 0.10037 0.72342 0.0
C45 C 0.68644 0.10937 0.67675 0.0
N46 N 0.6934 0.10449 0.63274 0.0
O47 O 0.71018 0.1229 0.82785 0.0
H48 H 0.70704 0.09728 0.75885 0.0
H49 H 0.67874 0.11492 0.66715 0.0
O50 O 0.68199 0.09057 0.8441 0.0
C51 C 0.71709 0.13879 0.81985 0.0
O52 O 0.70739 0.14508 0.80585 0.0
N53 N 0.66329 0.10422 0.79441 0.0
C54 C 0.63072 0.09921 0.77845 0.0
C55 C 0.63349 0.08834 0.81552 0.0
C56 C 0.64992 0.09128 0.82403 0.0
C57 C 0.6608 0.11512 0.75976 0.0
C58 C 0.64468 0.11265 0.74996 0.0
H59 H 0.65185 0.08379 0.85747 0.0
H60 H 0.67156 0.12642 0.74226 0.0
H61 H 0.69129 0.10605 0.94903 0.0
H62 H 0.67197 0.13829 0.98571 0.0
H63 H 0.7101 0.09429 0.64058 0.0
H64 H 0.6232 0.07823 0.84051 0.0
H65 H 0.64326 0.12155 0.72169 0.0
C66 C 0.54906 0.67527 0.3942 0.0
C67 C 0.54638 0.67432 0.45595 0.0
N68 N 0.56115 0.67898 0.48418 0.0
N69 N 0.56543 0.68045 0.38335 0.0
C70 C 0.57251 0.68265 0.43901 0.0
H71 H 0.53968 0.67238 0.35929 0.0
Co72 Co 0.575 0.68389 0.30628 0.0
C73 C 0.5998 0.67219 0.31575 0.0
O74 O 0.59465 0.66506 0.26216 0.0
N75 N 0.58481 0.68802 0.22784 0.0
C76 C 0.60457 0.69946 0.15575 0.0
C77 C 0.60154 0.69793 0.21731 0.0
C78 C 0.57792 0.68428 0.17144 0.0
N79 N 0.58967 0.6909 0.12706 0.0
O80 O 0.58789 0.70779 0.32152 0.0
H81 H 0.61099 0.70393 0.25241 0.0
H82 H 0.5646 0.67712 0.16214 0.0
O83 O 0.59319 0.68038 0.33902 0.0
C84 C 0.5786 0.7143 0.31215 0.0
O85 O 0.56276 0.70425 0.29684 0.0
N86 N 0.56079 0.66058 0.29081 0.0
C87 C 0.5349 0.62724 0.27399 0.0
C88 C 0.54817 0.63103 0.31453 0.0
C89 C 0.56083 0.64782 0.32316 0.0
C90 C 0.5474 0.65712 0.25435 0.0
C91 C 0.53461 0.64057 0.24385 0.0
H92 H 0.57009 0.6505 0.35821 0.0
H93 H 0.5461 0.66735 0.23595 0.0
H94 H 0.58579 0.68719 0.44626 0.0
H95 H 0.53443 0.67034 0.47824 0.0
H96 H 0.61671 0.70676 0.13377 0.0
H97 H 0.54854 0.62116 0.34045 0.0
H98 H 0.52412 0.6383 0.21483 0.0
C99 C 0.86994 0.55188 0.86765 0.0
C100 C 0.86738 0.54947 0.92942 0.0
N101 N 0.88026 0.56263 0.95815 0.0
N102 N 0.88437 0.56644 0.85744 0.0
C103 C 0.89031 0.57278 0.91328 0.0
H104 H 0.86196 0.54344 0.83231 0.0
Co105 Co 0.89335 0.57465 0.78122 0.0
C106 C 0.93017 0.59539 0.80144 0.0
O107 O 0.93224 0.58816 0.75309 0.0
N108 N 0.90207 0.5832 0.70279 0.0
C109 C 0.91441 0.60195 0.62807 0.0
C110 C 0.91184 0.5998 0.68976 0.0
C111 C 0.89832 0.57563 0.64753 0.0
N112 N 0.90582 0.58672 0.60163 0.0
O113 O 0.88466 0.58994 0.78542 0.0
H114 H 0.91632 0.60985 0.72294 0.0
H115 H 0.88973 0.5624 0.64012 0.0
O116 O 0.91522 0.59148 0.81826 0.0
C117 C 0.87134 0.58426 0.75299 0.0
O118 O 0.86638 0.57022 0.72242 0.0
N119 N 0.89987 0.55803 0.77683 0.0
C120 C 0.9038 0.5296 0.77236 0.0
C121 C 0.91326 0.54279 0.81322 0.0
C122 C 0.91073 0.55664 0.81604 0.0
C123 C 0.88983 0.5448 0.73991 0.0
C124 C 0.89184 0.53071 0.73576 0.0
H125 H 0.91703 0.56581 0.85157 0.0
H126 H 0.87956 0.54477 0.7157 0.0
H127 H 0.90177 0.58464 0.92093 0.0
H128 H 0.85705 0.53864 0.95129 0.0
H129 H 0.92129 0.61385 0.60425 0.0
H130 H 0.92198 0.54206 0.84467 0.0
H131 H 0.88386 0.52063 0.70486 0.0
C132 C 0.32902 0.87253 0.40029 0.0
C133 C 0.32868 0.86991 0.462 0.0
N134 N 0.32258 0.87891 0.4896 0.0
N135 N 0.32331 0.88324 0.38886 0.0
C136 C 0.31938 0.88684 0.44396 0.0
H137 H 0.3332 0.867 0.36585 0.0
Co138 Co 0.3209 0.89033 0.31214 0.0
C139 C 0.33427 0.92695 0.32606 0.0
O140 O 0.34219 0.92891 0.27415 0.0
N141 N 0.31763 0.8969 0.23389 0.0
C142 C 0.30666 0.90597 0.16272 0.0
C143 C 0.30891 0.90502 0.22403 0.0
C144 C 0.31983 0.89239 0.17735 0.0
N145 N 0.3135 0.89796 0.13335 0.0
O146 O 0.2969 0.8796 0.3244 0.0
H147 H 0.30386 0.90943 0.25946 0.0
H148 H 0.32536 0.88466 0.168 0.0
O149 O 0.32476 0.91204 0.34719 0.0
C150 C 0.29071 0.86411 0.31006 0.0
O151 O 0.3012 0.85899 0.29319 0.0
N152 N 0.34438 0.89913 0.29932 0.0
C153 C 0.37787 0.90653 0.28638 0.0
C154 C 0.37355 0.91495 0.32981 0.0
C155 C 0.3567 0.91081 0.33647 0.0
C156 C 0.34829 0.89016 0.25963 0.0
C157 C 0.36495 0.89395 0.25114 0.0
H158 H 0.35356 0.91645 0.37362 0.0
H159 H 0.33835 0.87917 0.23757 0.0
H160 H 0.314 0.8949 0.45017 0.0
H161 H 0.33286 0.86215 0.48461 0.0
H162 H 0.29982 0.91143 0.1416 0.0
H163 H 0.38303 0.92435 0.3595 0.0
H164 H 0.36754 0.88642 0.21967 0.0
C165 C 0.45726 0.32777 0.87855 0.0
C166 C 0.45973 0.32826 0.94049 0.0
N167 N 0.44474 0.32275 0.9682 0.0
N168 N 0.44083 0.32219 0.8673 0.0
C169 C 0.43348 0.31901 0.92275 0.0
H170 H 0.46687 0.33149 0.8439 0.0
Co171 Co 0.43121 0.32026 0.79111 0.0
C172 C 0.40654 0.33197 0.8088 0.0
O173 O 0.41112 0.33953 0.75569 0.0
N174 N 0.4212 0.31764 0.7131 0.0
C175 C 0.40131 0.30656 0.64153 0.0
C176 C 0.40446 0.30782 0.70291 0.0
C177 C 0.42795 0.32182 0.65647 0.0
N178 N 0.41612 0.31533 0.61213 0.0
O179 O 0.41809 0.29612 0.80174 0.0
H180 H 0.39511 0.30149 0.73808 0.0
H181 H 0.44129 0.32855 0.64715 0.0
O182 O 0.41339 0.32362 0.82858 0.0
C183 C 0.42456 0.28902 0.77047 0.0
O184 O 0.43818 0.2986 0.73837 0.0
N185 N 0.44565 0.34374 0.77999 0.0
C186 C 0.47196 0.37713 0.76845 0.0
C187 C 0.45871 0.37293 0.80957 0.0
C188 C 0.44582 0.35611 0.81545 0.0
C189 C 0.45892 0.34756 0.74232 0.0
C190 C 0.47193 0.36416 0.7346 0.0
H191 H 0.43658 0.35306 0.85088 0.0
H192 H 0.45996 0.33752 0.72076 0.0
H193 H 0.42018 0.31442 0.9298 0.0
H194 H 0.47163 0.33233 0.96333 0.0
H195 H 0.38904 0.29944 0.62036 0.0
H196 H 0.45851 0.38248 0.83805 0.0
H197 H 0.48235 0.36667 0.70473 0.0
C198 C 0.54665 0.87502 0.10609 0.0
C199 C 0.54454 0.87351 0.04395 0.0
N200 N 0.55989 0.88044 0.01793 0.0
N201 N 0.56328 0.88316 0.11911 0.0
C202 C 0.57103 0.88608 0.06442 0.0
H203 H 0.53668 0.87064 0.13957 0.0
Co204 Co 0.57309 0.88933 0.19612 0.0
C205 C 0.59989 0.92523 0.1826 0.0
O206 O 0.59681 0.92814 0.23834 0.0
N207 N 0.58327 0.89512 0.27443 0.0
C208 C 0.60272 0.90034 0.34543 0.0
C209 C 0.59953 0.8994 0.28406 0.0
C210 C 0.57686 0.89349 0.33136 0.0
N211 N 0.58844 0.89663 0.3751 0.0
O212 O 0.58482 0.87711 0.18174 0.0
H213 H 0.60845 0.90122 0.24846 0.0
H214 H 0.56381 0.88919 0.34154 0.0
O215 O 0.59163 0.91027 0.16083 0.0
C216 C 0.5752 0.86201 0.19991 0.0
O217 O 0.55997 0.85792 0.21866 0.0
N218 N 0.55996 0.89961 0.21148 0.0
C219 C 0.53494 0.90826 0.22863 0.0
C220 C 0.54844 0.91755 0.18871 0.0
C221 C 0.56074 0.9129 0.18014 0.0
C222 C 0.54648 0.89004 0.24809 0.0
C223 C 0.5341 0.89436 0.25859 0.0
H224 H 0.57021 0.9194 0.14569 0.0
H225 H 0.54484 0.8784 0.26685 0.0
H226 H 0.58459 0.89256 0.05866 0.0
H227 H 0.53265 0.8677 0.01972 0.0
H228 H 0.61455 0.90323 0.36662 0.0
H229 H 0.54926 0.92805 0.16317 0.0
H230 H 0.52346 0.88633 0.28744 0.0
C231 C 0.68062 0.54978 0.62824 0.0
C232 C 0.68053 0.54754 0.56626 0.0
N233 N 0.6848 0.56232 0.53873 0.0
N234 N 0.68482 0.56586 0.63979 0.0
C235 C 0.68748 0.57322 0.58453 0.0
H236 H 0.67755 0.54025 0.66272 0.0
Co237 Co 0.68606 0.57515 0.71595 0.0
C238 C 0.67425 0.59986 0.69639 0.0
O239 O 0.66669 0.5959 0.7496 0.0
N240 N 0.68794 0.58482 0.79396 0.0
C241 C 0.69782 0.60423 0.86742 0.0
C242 C 0.69733 0.60152 0.80579 0.0
C243 C 0.68338 0.57764 0.84978 0.0
N244 N 0.68911 0.58916 0.89505 0.0
O245 O 0.71024 0.58883 0.70678 0.0
H246 H 0.70391 0.61114 0.77169 0.0
H247 H 0.67656 0.56425 0.85796 0.0
O248 O 0.68243 0.5927 0.67814 0.0
C249 C 0.71807 0.58355 0.74011 0.0
O250 O 0.70927 0.57044 0.77546 0.0
N251 N 0.6626 0.56028 0.7253 0.0
C252 C 0.62926 0.53366 0.73456 0.0
C253 C 0.63345 0.54724 0.69507 0.0
C254 C 0.65023 0.56027 0.69027 0.0
C255 C 0.65882 0.54674 0.7614 0.0
C256 C 0.64224 0.53353 0.76793 0.0
H257 H 0.65324 0.56977 0.65594 0.0
H258 H 0.66888 0.54573 0.78297 0.0
H259 H 0.69144 0.58639 0.578 0.0
H260 H 0.67718 0.53581 0.54339 0.0
H261 H 0.70479 0.61627 0.8903 0.0
H262 H 0.62392 0.54761 0.66702 0.0
H263 H 0.63975 0.52291 0.7966 0.0
C264 C 0.13069 0.6764 0.09635 0.0
C265 C 0.13213 0.6758 0.0342 0.0
N266 N 0.12327 0.68225 0.00812 0.0
N267 N 0.12078 0.68301 0.10933 0.0
C268 C 0.11661 0.68662 0.05467 0.0
H269 H 0.13642 0.67222 0.12994 0.0
Co270 Co 0.1144 0.68616 0.18647 0.0
C271 C 0.07784 0.67387 0.17495 0.0
O272 O 0.07576 0.66675 0.22862 0.0
N273 N 0.10828 0.69003 0.26451 0.0
C274 C 0.10018 0.70212 0.33461 0.0
C275 C 0.10184 0.70031 0.27347 0.0
C276 C 0.11074 0.68605 0.32155 0.0
N277 N 0.10582 0.69316 0.36496 0.0
O278 O 0.12536 0.7101 0.17188 0.0
H279 H 0.0988 0.70642 0.23753 0.0
H280 H 0.11673 0.67878 0.33183 0.0
O281 O 0.09274 0.68239 0.15265 0.0
C282 C 0.14109 0.71636 0.18228 0.0
O283 O 0.14658 0.70601 0.19678 0.0
N284 N 0.10557 0.66288 0.20182 0.0
C285 C 0.09977 0.62998 0.21628 0.0
C286 C 0.08963 0.6333 0.17729 0.0
C287 C 0.09299 0.64989 0.16955 0.0
C288 C 0.11581 0.65988 0.2383 0.0
C289 C 0.11292 0.64357 0.24738 0.0
H290 H 0.08615 0.65228 0.13471 0.0
H291 H 0.127 0.67036 0.25762 0.0
H292 H 0.1086 0.69209 0.04907 0.0
H293 H 0.13927 0.67112 0.0101 0.0
H294 H 0.09531 0.70958 0.35499 0.0
H295 H 0.07983 0.62334 0.15022 0.0
H296 H 0.12131 0.64173 0.27706 0.0
C297 C 0.45462 0.13265 0.63481 0.0
C298 C 0.45719 0.13444 0.57286 0.0
N299 N 0.44312 0.12253 0.54504 0.0
N300 N 0.43905 0.1196 0.64593 0.0
C301 C 0.4323 0.1138 0.59042 0.0
H302 H 0.46358 0.1402 0.66964 0.0
Co303 Co 0.42998 0.11142 0.72221 0.0
C304 C 0.40784 0.07465 0.70406 0.0
O305 O 0.41377 0.07229 0.75532 0.0
N306 N 0.42045 0.10339 0.8003 0.0
C307 C 0.40069 0.09239 0.87221 0.0
C308 C 0.40366 0.09488 0.81089 0.0
C309 C 0.42738 0.10638 0.85666 0.0
N310 N 0.41564 0.09971 0.90131 0.0
O311 O 0.41544 0.12089 0.71283 0.0
H312 H 0.39409 0.09105 0.77607 0.0
H313 H 0.44067 0.11412 0.86546 0.0
O314 O 0.41299 0.08972 0.68546 0.0
C315 C 0.42066 0.13415 0.7452 0.0
O316 O 0.43407 0.13899 0.77943 0.0
N317 N 0.44582 0.10402 0.73163 0.0
C318 C 0.47385 0.09949 0.74023 0.0
C319 C 0.46066 0.08981 0.69964 0.0
C320 C 0.44698 0.09257 0.69489 0.0
C321 C 0.45893 0.11406 0.76897 0.0
C322 C 0.47281 0.11175 0.7752 0.0
H323 H 0.43789 0.08612 0.65923 0.0
H324 H 0.45911 0.1246 0.79162 0.0
H325 H 0.41982 0.10311 0.58328 0.0
H326 H 0.46852 0.14383 0.55015 0.0
H327 H 0.38838 0.08589 0.8934 0.0
H328 H 0.46131 0.08081 0.66945 0.0
H329 H 0.48285 0.11984 0.80607 0.0
C330 C 0.32363 0.45459 0.124 0.0
C331 C 0.32341 0.45733 0.06251 0.0
N332 N 0.32168 0.4437 0.0325 0.0
N333 N 0.3221 0.43935 0.1329 0.0
C334 C 0.32084 0.43297 0.0765 0.0
H335 H 0.32476 0.46313 0.16008 0.0
Co336 Co 0.32147 0.43012 0.20875 0.0
C337 C 0.33318 0.4055 0.18896 0.0
O338 O 0.3413 0.41049 0.24094 0.0
N339 N 0.32013 0.42068 0.28692 0.0
C340 C 0.30974 0.40159 0.36128 0.0
C341 C 0.31014 0.40412 0.29958 0.0
C342 C 0.32539 0.42796 0.34232 0.0
N343 N 0.31931 0.41663 0.38843 0.0
O344 O 0.29717 0.4169 0.20321 0.0
H345 H 0.30295 0.39452 0.26607 0.0
H346 H 0.33296 0.44134 0.34939 0.0
O347 O 0.32444 0.41207 0.17037 0.0
C348 C 0.29136 0.42488 0.2329 0.0
O349 O 0.30225 0.43922 0.25865 0.0
N350 N 0.34501 0.44476 0.215 0.0
C351 C 0.37847 0.4711 0.22214 0.0
C352 C 0.3739 0.45759 0.1819 0.0
C353 C 0.35703 0.44469 0.17818 0.0
C354 C 0.34912 0.45837 0.25113 0.0
C355 C 0.36578 0.47141 0.25676 0.0
H356 H 0.35366 0.43517 0.14363 0.0
H357 H 0.33926 0.45949 0.27387 0.0
H358 H 0.31945 0.42075 0.06787 0.0
H359 H 0.32425 0.46844 0.04182 0.0
H360 H 0.30218 0.38967 0.38429 0.0
H361 H 0.38321 0.45717 0.15271 0.0
H362 H 0.36857 0.48202 0.28595 0.0
C363 C 0.8728 0.32551 0.60742 0.0
C364 C 0.87112 0.32637 0.54551 0.0
N365 N 0.88116 0.32157 0.51765 0.0
N366 N 0.88397 0.32034 0.61866 0.0
C367 C 0.88868 0.31783 0.56315 0.0
H368 H 0.86638 0.32856 0.64208 0.0
Co369 Co 0.89119 0.31778 0.69511 0.0
C370 C 0.92775 0.32961 0.6788 0.0
O371 O 0.93071 0.33662 0.73294 0.0
N372 N 0.89806 0.31457 0.77287 0.0
C373 C 0.90684 0.30347 0.84433 0.0
C374 C 0.90487 0.30467 0.78295 0.0
C375 C 0.89554 0.31879 0.82944 0.0
N376 N 0.90091 0.31233 0.87382 0.0
O377 O 0.88031 0.29378 0.68259 0.0
H378 H 0.90796 0.29843 0.74768 0.0
H379 H 0.88915 0.32573 0.83854 0.0
O380 O 0.91258 0.32156 0.65868 0.0
C381 C 0.86519 0.28789 0.70141 0.0
O382 O 0.86072 0.2987 0.72056 0.0
N383 N 0.89988 0.34103 0.70884 0.0
C384 C 0.90513 0.3737 0.72308 0.0
C385 C 0.91573 0.37067 0.6854 0.0
C386 C 0.91265 0.35416 0.67776 0.0
C387 C 0.88927 0.34378 0.74417 0.0
C388 C 0.89186 0.35996 0.75307 0.0
H389 H 0.91991 0.35198 0.64407 0.0
H390 H 0.8781 0.33318 0.76305 0.0
H391 H 0.89763 0.31357 0.55621 0.0
H392 H 0.86301 0.33013 0.52288 0.0
H393 H 0.91209 0.29642 0.86528 0.0
H394 H 0.92572 0.38081 0.65946 0.0
H395 H 0.88319 0.36159 0.78191 0.0
H396 H 0.04378 0.38606 0.26622 0.0
H397 H 0.0184 0.37017 0.32748 0.0
H398 H 0.04859 0.38471 0.49069 0.0
H399 H 0.07422 0.4005 0.42929 0.0
H400 H 0.02313 0.3522 0.49749 0.0
H401 H 0.02824 0.40544 0.44618 0.0
H402 H 0.03165 0.4283 0.37786 0.0
H403 H 0.9857 0.39403 0.28567 0.0
H404 H 0.98218 0.37089 0.35277 0.0
H405 H 0.96065 0.3424 0.71161 0.0
H406 H 0.98512 0.3519 0.64523 0.0
H407 H 0.95252 0.33551 0.48818 0.0
H408 H 0.9279 0.32602 0.55447 0.0
H409 H 0.97848 0.36747 0.47474 0.0
H410 H 0.97263 0.31454 0.53142 0.0
H411 H 0.9693 0.29203 0.60141 0.0
H412 H 0.01661 0.3261 0.68609 0.0
H413 H 0.02012 0.3489 0.61715 0.0
C414 C 0.04509 0.38577 0.31512 0.0
C415 C 0.06106 0.39469 0.34284 0.0
C416 C 0.03052 0.3767 0.35014 0.0
C417 C 0.03151 0.37649 0.41384 0.0
C418 C 0.04749 0.38474 0.44162 0.0
C419 C 0.06214 0.39376 0.40645 0.0
C420 C 0.01581 0.36826 0.45123 0.0
C421 C 0.01346 0.35567 0.49305 0.0
C422 C 1.00296 0.37248 0.44448 0.0
C423 C 0.00503 0.38639 0.40411 0.0
C424 C 0.01893 0.40274 0.41101 0.0
C425 C 0.02088 0.41576 0.37254 0.0
C426 C 0.00892 0.41261 0.32735 0.0
C427 C 0.99497 0.39644 0.32062 0.0
C428 C 0.99299 0.38337 0.35887 0.0
C429 C 0.95862 0.34059 0.66299 0.0
C430 C 0.94227 0.33343 0.63846 0.0
C431 C 0.97266 0.34598 0.62505 0.0
C432 C 0.9707 0.34434 0.56162 0.0
C433 C 0.95436 0.33687 0.53696 0.0
C434 C 0.94027 0.33135 0.575 0.0
C435 C 0.98582 0.35145 0.52131 0.0
C436 C 0.98808 0.36389 0.47896 0.0
C437 C 0.9986 0.34714 0.52788 0.0
C438 C 0.99656 0.33347 0.56943 0.0
C439 C 0.98226 0.31728 0.56529 0.0
C440 C 0.98036 0.30446 0.60472 0.0
C441 C 0.99272 0.30765 0.64826 0.0
C442 C 0.00704 0.32366 0.65237 0.0
C443 C 0.009 0.33653 0.61308 0.0
H444 H 0.99123 0.2977 0.67873 0.0
H445 H 0.01045 0.42271 0.29764 0.0
H446 H 0.65751 0.04327 0.78079 0.0
H447 H 0.64727 0.01768 0.84121 0.0
H448 H 0.66956 0.04759 0.00214 0.0
H449 H 0.67997 0.07347 0.94164 0.0
H450 H 0.67361 0.01936 0.99687 0.0
H451 H 0.6288 0.03154 0.98113 0.0
H452 H 0.60958 0.03882 0.92791 0.0
H453 H 0.58923 0.99293 0.82477 0.0
H454 H 0.60856 0.98556 0.8766 0.0
H455 H 0.62306 0.95719 0.21694 0.0
H456 H 0.63783 0.98215 0.15254 0.0
H457 H 0.61508 0.95165 0.99316 0.0
H458 H 0.60022 0.9265 0.05755 0.0
H459 H 0.61174 0.98 0.9962 0.0
H460 H 0.65643 0.96756 0.01934 0.0
H461 H 0.67579 0.9611 0.07579 0.0
H462 H 0.69626 0.00835 0.17027 0.0
H463 H 0.67685 0.015 0.11499 0.0
C464 C 0.66041 0.04449 0.82894 0.0
C465 C 0.66947 0.06048 0.85639 0.0
C466 C 0.65449 0.0298 0.86347 0.0
C467 C 0.65741 0.03069 0.92637 0.0
C468 C 0.66711 0.0466 0.95366 0.0
C469 C 0.67304 0.06138 0.91902 0.0
C470 C 0.64964 0.01498 0.96354 0.0
C471 C 0.66007 0.01085 0.99739 0.0
C472 C 0.63199 0.00373 0.96339 0.0
C473 C 0.62021 0.00803 0.93248 0.0
C474 C 0.6203 0.02305 0.94681 0.0
C475 C 0.60939 0.0272 0.91691 0.0
C476 C 0.59821 0.01636 0.87293 0.0
C477 C 0.5979 1.00133 0.85884 0.0
C478 C 0.60883 0.99715 0.88852 0.0
C479 C 0.62138 0.95571 0.1681 0.0
C480 C 0.61049 0.93982 0.14245 0.0
C481 C 0.62988 0.97002 0.13129 0.0
C482 C 0.62764 0.9688 0.06792 0.0
C483 C 0.61704 0.95289 0.04192 0.0
C484 C 0.60865 0.9385 0.07877 0.0
C485 C 0.6357 0.9843 0.02956 0.0
C486 C 0.62529 0.98844 0.99553 0.0
C487 C 0.65334 0.99564 0.03021 0.0
C488 C 0.66507 0.99171 0.06339 0.0
C489 C 0.66496 0.97651 0.05251 0.0
C490 C 0.67597 0.97283 0.08423 0.0
C491 C 0.68722 0.98429 0.12669 0.0
C492 C 0.68752 0.99948 0.13741 0.0
C493 C 0.67653 0.00322 0.10585 0.0
H494 H 0.69573 0.98141 0.1512 0.0
H495 H 0.58976 0.01959 0.84982 0.0
H496 H 0.67036 0.59704 0.57282 0.0
H497 H 0.6606 0.61187 0.50659 0.0
H498 H 0.66071 0.64154 0.65948 0.0
H499 H 0.66951 0.62599 0.72623 0.0
H500 H 0.63343 0.6317 0.60271 0.0
H501 H 0.69118 0.6575 0.53277 0.0
H502 H 0.71622 0.65709 0.49346 0.0
H503 H 0.68838 0.62996 0.33517 0.0
H504 H 0.66314 0.63011 0.37374 0.0
H505 H 0.61356 0.68431 0.42876 0.0
H506 H 0.63013 0.67566 0.49106 0.0
H507 H 0.62771 0.64225 0.34805 0.0
H508 H 0.61182 0.65127 0.28498 0.0
H509 H 0.65747 0.65566 0.40036 0.0
H510 H 0.59971 0.62809 0.47209 0.0
H511 H 0.57447 0.62869 0.50812 0.0
H512 H 0.60236 0.65876 0.66158 0.0
H513 H 0.62774 0.65845 0.62617 0.0
C514 C 0.66863 0.60697 0.59194 0.0
C515 C 0.67082 0.61046 0.65457 0.0
C516 C 0.66307 0.61551 0.55399 0.0
C517 C 0.6601 0.6281 0.57753 0.0
C518 C 0.66284 0.63191 0.63993 0.0
C519 C 0.66797 0.62308 0.67807 0.0
C520 C 0.65318 0.63659 0.53838 0.0
C521 C 0.63895 0.6372 0.55901 0.0
C522 C 0.65995 0.64342 0.48036 0.0
C523 C 0.67526 0.64374 0.45632 0.0
C524 C 0.6904 0.65142 0.48964 0.0
C525 C 0.70463 0.65124 0.46748 0.0
C526 C 0.70389 0.64348 0.4119 0.0
C527 C 0.68894 0.63597 0.37819 0.0
C528 C 0.67469 0.63615 0.4001 0.0
C529 C 0.61676 0.6753 0.41029 0.0
C530 C 0.6112 0.66838 0.35205 0.0
C531 C 0.62618 0.6703 0.44606 0.0
C532 C 0.62992 0.65801 0.42483 0.0
C533 C 0.625 0.6517 0.36567 0.0
C534 C 0.61581 0.65684 0.32969 0.0
C535 C 0.63791 0.65086 0.46516 0.0
C536 C 0.65218 0.65036 0.44452 0.0
C537 C 0.63116 0.64404 0.52307 0.0
C538 C 0.61563 0.64336 0.54627 0.0
C539 C 0.60042 0.6348 0.51358 0.0
C540 C 0.5861 0.63511 0.53383 0.0
C541 C 0.58682 0.64381 0.58696 0.0
C542 C 0.60179 0.65204 0.62038 0.0
C543 C 0.61614 0.65178 0.60034 0.0
H544 H 0.57577 0.64418 0.60215 0.0
H545 H 0.7149 0.64331 0.39492 0.0
H546 H 0.07594 0.68867 0.06833 0.0
H547 H 0.05092 0.68014 0.0047 0.0
H548 H 0.02107 0.63983 0.13047 0.0
H549 H 0.04558 0.6488 0.19514 0.0
H550 H 0.03288 0.65471 0.94219 0.0
H551 H 0.98039 0.62737 0.13045 0.0
H552 H 0.97619 0.63424 0.23514 0.0
H553 H 0.01462 0.68586 0.20812 0.0
H554 H 0.01887 0.67939 0.10293 0.0
H555 H 0.95812 0.59271 0.81438 0.0
H556 H 0.98291 0.6098 0.87633 0.0
H557 H 0.96127 0.63981 0.936 0.0
H558 H 0.93571 0.6218 0.87638 0.0
H559 H 0.97595 0.63651 0.0257 0.0
H560 H 0.99558 0.65436 0.82596 0.0
H561 H 1.00016 0.65195 0.71671 0.0
H562 H 0.02825 0.62728 0.75971 0.0
H563 H 0.02375 0.62941 0.86931 0.0
C564 C 0.06395 0.67818 0.0828 0.0
C565 C 0.06275 0.66955 0.13717 0.0
C566 C 0.04964 0.67325 0.04628 0.0
C567 C 0.03389 0.65948 0.06304 0.0
C568 C 0.03281 0.65083 0.11717 0.0
C569 C 0.04696 0.65593 0.1541 0.0
C570 C 0.01879 0.65338 0.02262 0.0
C571 C 0.02047 0.65088 0.96053 0.0
C572 C 1.00256 0.64884 0.04554 0.0
C573 C 1.00004 0.65285 0.10884 0.0
C574 C 0.98789 0.64021 0.1467 0.0
C575 C 0.98551 0.64403 0.20617 0.0
C576 C 0.99517 0.66046 0.22832 0.0
C577 C 0.00719 0.67312 0.19098 0.0
C578 C 0.00961 0.66938 0.13143 0.0
C579 C 0.95864 0.603 0.84048 0.0
C580 C 0.94505 0.60606 0.83992 0.0
C581 C 0.97295 0.6129 0.87563 0.0
C582 C 0.97437 0.62656 0.90956 0.0
C583 C 0.96064 0.62948 0.90989 0.0
C584 C 0.94604 0.61922 0.87578 0.0
C585 C 0.98998 0.63726 0.94596 0.0
C586 C 0.98839 0.64059 0.00724 0.0
C587 C 0.00639 0.64323 0.92173 0.0
C588 C 0.00925 0.64198 0.85588 0.0
C589 C 1.00268 0.64835 0.81213 0.0
C590 C 0.00528 0.64706 0.75016 0.0
C591 C 0.0145 0.63947 0.73133 0.0
C592 C 0.02116 0.63319 0.77445 0.0
C593 C 0.01862 0.63447 0.8365 0.0
H594 H 0.01648 0.63846 0.68333 0.0
H595 H 0.99331 0.66339 0.27438 0.0
H596 H 0.4015 0.04253 0.71904 0.0
H597 H 0.38623 0.01855 0.65192 0.0
H598 H 0.37446 0.04877 0.53298 0.0
H599 H 0.39056 0.07328 0.59933 0.0
H600 H 0.35594 1.00048 0.61891 0.0
H601 H 0.36975 0.03371 0.38647 0.0
H602 H 0.39095 0.0603 0.33795 0.0
H603 H 0.42865 0.06394 0.46306 0.0
H604 H 0.40775 0.03728 0.51172 0.0
H605 H 0.31444 0.93366 0.40235 0.0
H606 H 0.32325 0.95949 0.46181 0.0
H607 H 0.37435 0.97938 0.3976 0.0
H608 H 0.3653 0.95437 0.3353 0.0
H609 H 0.36976 0.00363 0.3996 0.0
H610 H 0.35674 0.95938 0.54908 0.0
H611 H 0.33859 0.93286 0.60397 0.0
H612 H 0.3049 0.95078 0.65335 0.0
H613 H 0.3227 0.9773 0.59775 0.0
C614 C 0.39563 0.04415 0.67879 0.0
C615 C 0.39733 0.0599 0.66455 0.0
C616 C 0.38681 0.03033 0.64036 0.0
C617 C 0.37924 0.03176 0.58684 0.0
C618 C 0.38043 0.04735 0.57332 0.0
C619 C 0.38955 0.06135 0.61149 0.0
C620 C 0.37053 0.01688 0.54548 0.0
C621 C 0.35893 1.0012 0.57084 0.0
C622 C 0.37437 0.01771 0.48269 0.0
C623 C 0.38712 0.03361 0.45316 0.0
C624 C 0.38258 0.04017 0.40347 0.0
C625 C 0.39454 0.05524 0.37597 0.0
C626 C 0.41112 0.06382 0.39754 0.0
C627 C 0.41579 0.05731 0.44652 0.0
C628 C 0.40389 0.04222 0.47408 0.0
C629 C 0.32752 0.94363 0.40102 0.0
C630 C 0.33917 0.94205 0.36411 0.0
C631 C 0.3326 0.95838 0.43527 0.0
C632 C 0.3496 0.97149 0.4352 0.0
C633 C 0.36116 0.96969 0.3984 0.0
C634 C 0.35599 0.95529 0.36289 0.0
C635 C 0.3557 0.98699 0.47365 0.0
C636 C 0.36666 0.00287 0.44755 0.0
C637 C 0.35173 0.98629 0.53635 0.0
C638 C 0.34092 0.9702 0.56862 0.0
C639 C 0.34537 0.95758 0.57112 0.0
C640 C 0.33513 0.94255 0.60238 0.0
C641 C 0.32057 0.94012 0.63203 0.0
C642 C 0.31617 0.95267 0.63027 0.0
C643 C 0.3263 0.96768 0.59881 0.0
H644 H 0.31269 0.92857 0.65664 0.0
H645 H 0.42036 0.07547 0.37616 0.0
H646 H 0.38491 0.34253 0.77318 0.0
H647 H 0.36935 0.35183 0.83716 0.0
H648 H 0.38791 0.33933 0.99779 0.0
H649 H 0.40328 0.32957 0.93358 0.0
H650 H 0.35528 0.3317 0.01296 0.0
H651 H 0.40711 0.38101 0.95158 0.0
H652 H 0.42867 0.39957 0.87724 0.0
H653 H 0.39124 0.40531 0.77926 0.0
H654 H 0.36944 0.38646 0.85237 0.0
H655 H 0.34717 0.38651 0.22153 0.0
H656 H 0.35628 0.37118 0.15562 0.0
H657 H 0.33664 0.38427 0.99947 0.0
H658 H 0.3275 0.39978 0.06554 0.0
H659 H 0.36862 0.39073 0.98011 0.0
H660 H 0.31735 0.34365 0.05338 0.0
H661 H 0.29679 0.3255 0.13093 0.0
H662 H 0.33378 0.31546 0.20979 0.0
H663 H 0.35466 0.33374 0.1332 0.0
C664 C 0.38554 0.34155 0.82213 0.0
C665 C 0.39545 0.33542 0.84825 0.0
C666 C 0.37668 0.34695 0.85871 0.0
C667 C 0.37773 0.34666 0.92238 0.0
C668 C 0.38694 0.33976 0.94877 0.0
C669 C 0.39571 0.33416 0.91201 0.0
C670 C 0.36993 0.35435 0.96082 0.0
C671 C 0.35831 0.34465 0.00623 0.0
C672 C 0.37362 0.37117 0.95147 0.0
C673 C 0.38669 0.38246 0.90753 0.0
C674 C 0.4035 0.38622 0.91407 0.0
C675 C 0.41575 0.39675 0.87212 0.0
C676 C 0.41134 0.40365 0.82362 0.0
C677 C 0.39466 0.40001 0.81693 0.0
C678 C 0.38237 0.38944 0.85867 0.0
C679 C 0.34454 0.38596 0.17327 0.0
C680 C 0.33659 0.39443 0.14894 0.0
C681 C 0.34972 0.3771 0.13558 0.0
C682 C 0.34705 0.37642 0.07251 0.0
C683 C 0.33879 0.38455 0.04804 0.0
C684 C 0.33349 0.39336 0.08593 0.0
C685 C 0.35383 0.36807 0.03222 0.0
C686 C 0.36539 0.37771 0.98654 0.0
C687 C 0.35016 0.35125 0.04185 0.0
C688 C 0.33761 0.34018 0.0878 0.0
C689 C 0.32114 0.33767 0.08752 0.0
C690 C 0.30942 0.32734 0.13127 0.0
C691 C 0.31398 0.31936 0.17534 0.0
C692 C 0.33027 0.32166 0.17565 0.0
C693 C 0.34204 0.33198 0.13203 0.0
H694 H 0.30489 0.31137 0.20917 0.0
H695 H 0.42084 0.4118 0.7912 0.0
H696 H 0.07029 0.5994 0.22241 0.0
H697 H 0.06721 0.57124 0.22829 0.0
H698 H 0.12136 0.5936 0.22652 0.0
H699 H 0.12451 0.62157 0.21868 0.0
H700 H 0.10723 0.56749 0.1513 0.0
H701 H 0.09808 0.57859 0.35835 0.0
H702 H 0.08408 0.58553 0.44001 0.0
H703 H 0.03683 0.54145 0.39669 0.0
H704 H 0.05053 0.53437 0.31417 0.0
H705 H 0.12321 0.50568 0.2666 0.0
H706 H 0.12039 0.53061 0.2554 0.0
H707 H 0.06628 0.49921 0.24651 0.0
H708 H 0.069 0.47396 0.25683 0.0
H709 H 0.07673 0.52773 0.32001 0.0
H710 H 0.08704 0.51541 0.11855 0.0
H711 H 0.10174 0.50854 0.03934 0.0
H712 H 0.14739 0.55522 0.0737 0.0
H713 H 0.13304 0.56225 0.15379 0.0
C714 C 0.08153 0.59829 0.22299 0.0
C715 C 0.09765 0.61278 0.22068 0.0
C716 C 0.07975 0.5822 0.22683 0.0
C717 C 0.09406 0.58029 0.22847 0.0
C718 C 0.11013 0.59473 0.22552 0.0
C719 C 0.11191 0.61075 0.2217 0.0
C720 C 0.09252 0.56335 0.23262 0.0
C721 C 0.10065 0.55886 0.18845 0.0
C722 C 0.08352 0.55184 0.28006 0.0
C723 C 0.07528 0.55607 0.32963 0.0
C724 C 0.08468 0.57046 0.36589 0.0
C725 C 0.0768 0.5744 0.4124 0.0
C726 C 0.05957 0.56397 0.4234 0.0
C727 C 0.05018 0.54954 0.38803 0.0
C728 C 0.05799 0.54555 0.34141 0.0
C729 C 0.11068 0.50398 0.26152 0.0
C730 C 0.09634 0.48775 0.26145 0.0
C731 C 0.1091 0.51829 0.25546 0.0
C732 C 0.09314 0.51677 0.2491 0.0
C733 C 0.07872 0.50066 0.25108 0.0
C734 C 0.0803 0.48626 0.25706 0.0
C735 C 0.09179 0.53212 0.23953 0.0
C736 C 0.08311 0.53628 0.28248 0.0
C737 C 0.10034 0.5434 0.19109 0.0
C738 C 0.10899 0.5393 0.14248 0.0
C739 C 0.10025 0.52416 0.1095 0.0
C740 C 0.10851 0.52024 0.06441 0.0
C741 C 0.12549 0.53142 0.05157 0.0
C742 C 0.13424 0.54657 0.08371 0.0
C743 C 0.12604 0.55053 0.12891 0.0
H744 H 0.13187 0.52837 0.01665 0.0
H745 H 0.05349 0.56704 0.45944 0.0
H746 H 0.50683 0.12465 0.74849 0.0
H747 H 0.53198 0.12197 0.75216 0.0
H748 H 0.50112 0.06789 0.73859 0.0
H749 H 0.47568 0.07043 0.73704 0.0
H750 H 0.52587 0.07679 0.82253 0.0
H751 H 0.52279 0.09081 0.61579 0.0
H752 H 0.51985 0.10689 0.53139 0.0
H753 H 0.56494 0.15144 0.58896 0.0
H754 H 0.56802 0.13569 0.67428 0.0
H755 H 0.59998 0.07016 0.76622 0.0
H756 H 0.57212 0.06771 0.75674 0.0
H757 H 0.59516 0.12179 0.7697 0.0
H758 H 0.62284 0.12433 0.77971 0.0
H759 H 0.57276 0.10964 0.67813 0.0
H760 H 0.57424 0.09602 0.88985 0.0
H761 H 0.57711 0.07991 0.97436 0.0
H762 H 0.53497 0.03435 0.90606 0.0
H763 H 0.532 0.05017 0.82064 0.0
C764 C 0.50531 0.11214 0.74712 0.0
C765 C 0.48918 0.09774 0.74272 0.0
C766 C 0.51975 0.11065 0.74849 0.0
C767 C 0.51848 0.09475 0.74481 0.0
C768 C 0.50241 0.0803 0.7412 0.0
C769 C 0.4879 0.08178 0.73988 0.0
C770 C 0.53399 0.09337 0.74487 0.0
C771 C 0.53601 0.08372 0.79026 0.0
C772 C 0.54731 0.10257 0.70323 0.0
C773 C 0.54556 0.11208 0.65173 0.0
C774 C 0.53201 0.10406 0.61073 0.0
C775 C 0.53033 0.11312 0.56267 0.0
C776 C 0.54219 0.13018 0.55488 0.0
C777 C 0.55577 0.13822 0.59507 0.0
C778 C 0.5575 0.12923 0.64325 0.0
C779 C 0.59908 0.08151 0.76744 0.0
C780 C 0.61368 0.09745 0.77315 0.0
C781 C 0.58316 0.08009 0.76196 0.0
C782 C 0.58155 0.09457 0.76258 0.0
C783 C 0.59609 0.11045 0.76856 0.0
C784 C 0.61195 0.11188 0.774 0.0
C785 C 0.56481 0.09341 0.75669 0.0
C786 C 0.56255 0.10256 0.71 0.0
C787 C 0.55129 0.08374 0.79703 0.0
C788 C 0.55302 0.07424 0.8485 0.0
C789 C 0.56567 0.08254 0.89259 0.0
C790 C 0.5673 0.07347 0.9407 0.0
C791 C 0.55626 0.05611 0.94547 0.0
C792 C 0.54353 0.04779 0.90224 0.0
C793 C 0.54186 0.05681 0.854 0.0
H794 H 0.55754 0.0491 0.98275 0.0
H795 H 0.54086 0.13717 0.51765 0.0
H796 H 0.52 0.61097 0.16817 0.0
H797 H 0.49499 0.58307 0.1563 0.0
H798 H 0.49227 0.57629 0.3511 0.0
H799 H 0.51752 0.60404 0.363 0.0
H800 H 0.48444 0.54759 0.29773 0.0
H801 H 0.46729 0.58887 0.27387 0.0
H802 H 0.46799 0.61404 0.23037 0.0
H803 H 0.45645 0.59094 0.05368 0.0
H804 H 0.45591 0.56571 0.096 0.0
H805 H 0.39674 0.48685 0.32382 0.0
H806 H 0.42484 0.51194 0.32901 0.0
H807 H 0.42799 0.51302 0.13312 0.0
H808 H 0.39981 0.48797 0.12762 0.0
H809 H 0.436 0.54392 0.18326 0.0
H810 H 0.45139 0.50143 0.2127 0.0
H811 H 0.44984 0.47637 0.26077 0.0
H812 H 0.46359 0.50193 0.43293 0.0
H813 H 0.46499 0.52708 0.38605 0.0
C814 C 0.51412 0.60347 0.2084 0.0
C815 C 0.52066 0.60972 0.26652 0.0
C816 C 0.4998 0.58754 0.20161 0.0
C817 C 0.49151 0.57768 0.25289 0.0
C818 C 0.4984 0.58365 0.31084 0.0
C819 C 0.51285 0.5995 0.3176 0.0
C820 C 0.47535 0.56146 0.24633 0.0
C821 C 0.47381 0.54683 0.27319 0.0
C822 C 0.4615 0.56036 0.21351 0.0
C823 C 0.46174 0.57548 0.18798 0.0
C824 C 0.46502 0.58921 0.22565 0.0
C825 C 0.46537 0.60348 0.20122 0.0
C826 C 0.46231 0.60411 0.13927 0.0
C827 C 0.45885 0.59045 0.10164 0.0
C828 C 0.45851 0.57616 0.12583 0.0
C829 C 0.40348 0.49238 0.28188 0.0
C830 C 0.39608 0.48544 0.22532 0.0
C831 C 0.41956 0.50664 0.28492 0.0
C832 C 0.42855 0.51429 0.23146 0.0
C833 C 0.42129 0.50728 0.17492 0.0
C834 C 0.40525 0.4929 0.17186 0.0
C835 C 0.44513 0.5301 0.23463 0.0
C836 C 0.4467 0.54467 0.20733 0.0
C837 C 0.45889 0.53117 0.2677 0.0
C838 C 0.45815 0.51609 0.29595 0.0
C839 C 0.45395 0.50166 0.26091 0.0
C840 C 0.45313 0.48745 0.28793 0.0
C841 C 0.45658 0.48754 0.34989 0.0
C842 C 0.46091 0.50187 0.38494 0.0
C843 C 0.46173 0.51612 0.35816 0.0
H844 H 0.45593 0.47652 0.37073 0.0
H845 H 0.46259 0.61517 0.12044 0.0
H846 H 0.93294 0.52799 0.77602 0.0
H847 H 0.93571 0.50273 0.77187 0.0
H848 H 0.8816 0.47156 0.75946 0.0
H849 H 0.87872 0.49661 0.76522 0.0
H850 H 0.89445 0.45861 0.83874 0.0
H851 H 0.90678 0.48076 0.63399 0.0
H852 H 0.92214 0.50253 0.556 0.0
H853 H 0.96854 0.50507 0.60854 0.0
H854 H 0.95347 0.48346 0.68745 0.0
H855 H 0.88013 0.38167 0.72108 0.0
H856 H 0.88269 0.40928 0.73377 0.0
H857 H 0.93676 0.4322 0.74715 0.0
H858 H 0.93428 0.40437 0.7348 0.0
H859 H 0.92729 0.45071 0.67537 0.0
H860 H 0.91429 0.42646 0.87392 0.0
H861 H 0.89867 0.40437 0.95056 0.0
H862 H 0.85349 0.40572 0.90988 0.0
H863 H 0.86877 0.42765 0.8323 0.0
C864 C 0.92164 0.51574 0.77284 0.0
C865 C 0.90562 0.51434 0.77041 0.0
C866 C 0.92324 0.50133 0.77002 0.0
C867 C 0.90887 0.48525 0.7647 0.0
C868 C 0.89288 0.48382 0.76334 0.0
C869 C 0.89126 0.49819 0.76603 0.0
C870 C 0.91032 0.46983 0.76039 0.0
C871 C 0.90153 0.45685 0.80275 0.0
C872 C 0.91999 0.46771 0.71458 0.0
C873 C 0.92904 0.48065 0.66707 0.0
C874 C 0.92028 0.48607 0.62925 0.0
C875 C 0.92893 0.49835 0.58482 0.0
C876 C 0.94631 0.50522 0.57745 0.0
C877 C 0.95508 0.49976 0.61438 0.0
C878 C 0.94649 0.48749 0.65894 0.0
C879 C 0.89258 0.39253 0.72735 0.0
C880 C 0.90699 0.39076 0.72802 0.0
C881 C 0.89402 0.40833 0.7344 0.0
C882 C 0.90989 0.42276 0.7426 0.0
C883 C 0.92439 0.4212 0.74126 0.0
C884 C 0.92295 0.40531 0.7341 0.0
C885 C 0.91109 0.43937 0.75287 0.0
C886 C 0.92039 0.45257 0.71179 0.0
C887 C 0.90188 0.44171 0.7999 0.0
C888 C 0.89266 0.42863 0.84696 0.0
C889 C 0.901 0.42197 0.88101 0.0
C890 C 0.89221 0.40948 0.92467 0.0
C891 C 0.8751 0.40362 0.93501 0.0
C892 C 0.86675 0.41027 0.9018 0.0
C893 C 0.87547 0.42274 0.85803 0.0
H894 H 0.86831 0.39395 0.96882 0.0
H895 H 0.95298 0.51473 0.54302 0.0
H896 H 0.52006 0.90998 0.33394 0.0
H897 H 0.49492 0.91268 0.34486 0.0
H898 H 0.49265 0.91685 0.14996 0.0
H899 H 0.51804 0.91452 0.13898 0.0
H900 H 0.48393 0.93725 0.20389 0.0
H901 H 0.46814 0.87912 0.22471 0.0
H902 H 0.4695 0.85487 0.26688 0.0
H903 H 0.45704 0.86514 0.44416 0.0
H904 H 0.45584 0.88961 0.40318 0.0
H905 H 0.39573 0.90964 0.18254 0.0
H906 H 0.42387 0.91282 0.17425 0.0
H907 H 0.42776 0.91359 0.3699 0.0
H908 H 0.39957 0.91024 0.37852 0.0
H909 H 0.43588 0.8914 0.31657 0.0
H910 H 0.45043 0.94923 0.29112 0.0
H911 H 0.44846 0.97273 0.245 0.0
H912 H 0.46226 0.96188 0.07115 0.0
H913 H 0.46408 0.93815 0.11606 0.0
C914 C 0.51429 0.91165 0.29349 0.0
C915 C 0.52095 0.91193 0.23559 0.0
C916 C 0.4999 0.91314 0.29974 0.0
C917 C 0.49165 0.9146 0.24814 0.0
C918 C 0.49874 0.91568 0.19044 0.0
C919 C 0.51328 0.91439 0.18421 0.0
C920 C 0.47523 0.91416 0.25419 0.0
C921 C 0.47337 0.92713 0.22799 0.0
C922 C 0.46147 0.90107 0.28629 0.0
C923 C 0.46207 0.8863 0.31099 0.0
C924 C 0.46581 0.87628 0.27277 0.0
C925 C 0.46654 0.86249 0.29645 0.0
C926 C 0.4634 0.8585 0.35819 0.0
C927 C 0.45949 0.86826 0.39636 0.0
C928 C 0.45877 0.88209 0.37293 0.0
C929 C 0.40263 0.91058 0.22377 0.0
C930 C 0.39544 0.90973 0.28118 0.0
C931 C 0.41874 0.91251 0.21897 0.0
C932 C 0.42796 0.91355 0.27147 0.0
C933 C 0.42089 0.91287 0.32881 0.0
C934 C 0.40484 0.91108 0.33365 0.0
C935 C 0.44462 0.91452 0.26662 0.0
C936 C 0.44648 0.90158 0.29281 0.0
C937 C 0.45826 0.92751 0.23392 0.0
C938 C 0.45724 0.94181 0.20686 0.0
C939 C 0.45291 0.95177 0.24295 0.0
C940 C 0.45184 0.96515 0.21704 0.0
C941 C 0.45519 0.96877 0.15515 0.0
C942 C 0.45965 0.95905 0.11907 0.0
C943 C 0.46072 0.94564 0.14474 0.0
H944 H 0.45436 0.97914 0.13519 0.0
H945 H 0.46397 0.84781 0.37644 0.0
H946 H 0.48932 0.39885 0.8614 0.0
H947 H 0.5147 0.42661 0.85419 0.0
H948 H 0.51288 0.42272 0.65834 0.0
H949 H 0.48767 0.39478 0.66548 0.0
H950 H 0.54344 0.43295 0.69487 0.0
H951 H 0.50283 0.44982 0.73819 0.0
H952 H 0.47967 0.45013 0.79434 0.0
H953 H 0.51062 0.46784 0.95436 0.0
H954 H 0.53391 0.4674 0.89942 0.0
H955 H 0.60752 0.51743 0.64031 0.0
H956 H 0.57956 0.49217 0.64522 0.0
H957 H 0.5836 0.49131 0.84051 0.0
H958 H 0.61151 0.51673 0.83602 0.0
H959 H 0.55161 0.48418 0.80211 0.0
H960 H 0.5917 0.46611 0.75799 0.0
H961 H 0.61474 0.46591 0.70052 0.0
H962 H 0.58418 0.45063 0.53923 0.0
H963 H 0.56104 0.45098 0.59558 0.0
C964 C 0.49416 0.40404 0.81677 0.0
C965 C 0.48647 0.39464 0.76398 0.0
C966 C 0.50869 0.41994 0.81267 0.0
C967 C 0.51567 0.4269 0.75566 0.0
C968 C 0.50779 0.41764 0.70286 0.0
C969 C 0.49337 0.40168 0.70697 0.0
C970 C 0.53165 0.44341 0.75111 0.0
C971 C 0.54508 0.4442 0.71749 0.0
C972 C 0.53401 0.45807 0.78171 0.0
C973 C 0.52007 0.45843 0.81481 0.0
C974 C 0.50466 0.45366 0.78548 0.0
C975 C 0.49151 0.45388 0.81708 0.0
C976 C 0.49366 0.45896 0.87792 0.0
C977 C 0.50897 0.46389 0.90725 0.0
C978 C 0.52216 0.46367 0.87588 0.0
C979 C 0.60235 0.51204 0.6844 0.0
C980 C 0.61176 0.51907 0.7378 0.0
C981 C 0.58642 0.49753 0.68709 0.0
C982 C 0.57957 0.48976 0.74319 0.0
C983 C 0.58866 0.49707 0.79674 0.0
C984 C 0.60465 0.51152 0.79406 0.0
C985 C 0.56325 0.47362 0.74579 0.0
C986 C 0.54984 0.47291 0.77919 0.0
C987 C 0.56084 0.45904 0.71471 0.0
C988 C 0.57471 0.45875 0.68084 0.0
C989 C 0.58995 0.46285 0.71015 0.0
C990 C 0.60302 0.46268 0.6778 0.0
C991 C 0.60095 0.45831 0.61622 0.0
C992 C 0.58578 0.45404 0.5869 0.0
C993 C 0.57268 0.45421 0.61903 0.0
H994 H 0.61108 0.45818 0.59126 0.0
H995 H 0.48346 0.45912 0.9023 0.0
H996 H 0.09626 0.41657 0.52866 0.0
H997 H 0.09276 0.41091 0.63767 0.0
H998 H 0.13878 0.45768 0.67204 0.0
H999 H 0.14284 0.46303 0.56308 0.0
H1000 H 0.13758 0.43379 0.74145 0.0
H1001 H 0.09901 0.45338 0.69263 0.0
H1002 H 0.07565 0.45331 0.63644 0.0
H1003 H 0.04181 0.40274 0.69667 0.0
H1004 H 0.06502 0.40244 0.75268 0.0
H1005 H 0.12652 0.44363 0.05434 0.0
H1006 H 0.12883 0.44765 0.94404 0.0
H1007 H 0.08552 0.39811 0.91927 0.0
H1008 H 0.08299 0.3941 0.02978 0.0
H1009 H 0.0847 0.42226 0.84521 0.0
H1010 H 0.12335 0.40322 0.89674 0.0
H1011 H 0.1468 0.40359 0.95325 0.0
H1012 H 0.18066 0.45361 0.888 0.0
H1013 H 0.15734 0.45364 0.83179 0.0
C1014 C 0.10578 0.42557 0.55916 0.0
C1015 C 0.11982 0.44032 0.53671 0.0
C1016 C 0.10364 0.4224 0.62169 0.0
C1017 C 0.11536 0.43401 0.66319 0.0
C1018 C 0.12951 0.44858 0.64095 0.0
C1019 C 0.13173 0.4517 0.57848 0.0
C1020 C 0.11295 0.43103 0.72981 0.0
C1021 C 0.1261 0.43148 0.76417 0.0
C1022 C 0.0978 0.42761 0.75939 0.0
C1023 C 0.08379 0.42783 0.72635 0.0
C1024 C 0.08661 0.44221 0.69358 0.0
C1025 C 0.07339 0.44225 0.66182 0.0
C1026 C 0.05727 0.42802 0.66285 0.0
C1027 C 0.05431 0.41375 0.69585 0.0
C1028 C 0.06748 0.41364 0.72767 0.0
C1029 C 0.11736 0.43368 0.0255 0.0
C1030 C 0.10459 0.41852 0.05075 0.0
C1031 C 0.11878 0.43594 0.96248 0.0
C1032 C 0.10745 0.4231 0.92353 0.0
C1033 C 0.09443 0.40814 0.94857 0.0
C1034 C 0.09307 0.40582 0.01161 0.0
C1035 C 0.1094 0.42521 0.85663 0.0
C1036 C 0.09617 0.42456 0.82232 0.0
C1037 C 0.12448 0.42851 0.82709 0.0
C1038 C 0.13856 0.42849 0.86052 0.0
C1039 C 0.13577 0.41435 0.89483 0.0
C1040 C 0.14904 0.41448 0.92674 0.0
C1041 C 0.1652 0.42863 0.92434 0.0
C1042 C 0.16813 0.44266 0.88988 0.0
C1043 C 0.15489 0.44261 0.85794 0.0
H1044 H 0.17546 0.4287 0.94908 0.0
H1045 H 0.04706 0.42806 0.63818 0.0
H1046 H 0.69407 0.08377 0.54659 0.0
H1047 H 0.69218 0.08615 0.43642 0.0
H1048 H 0.68814 0.13073 0.46169 0.0
H1049 H 0.68981 0.12825 0.57191 0.0
H1050 H 0.66612 0.11093 0.38002 0.0
H1051 H 0.72538 0.13289 0.41296 0.0
H1052 H 0.75063 0.13261 0.45051 0.0
H1053 H 0.73781 0.08876 0.34247 0.0
H1054 H 0.7124 0.08869 0.30462 0.0
H1055 H 0.68478 0.14285 0.07958 0.0
H1056 H 0.68637 0.13906 0.18864 0.0
H1057 H 0.68474 0.09185 0.15579 0.0
H1058 H 0.68277 0.09533 0.04635 0.0
H1059 H 0.70925 0.1121 0.24013 0.0
H1060 H 0.65029 0.09107 0.20502 0.0
H1061 H 0.62559 0.09221 0.16643 0.0
H1062 H 0.63846 0.13534 0.27887 0.0
H1063 H 0.6634 0.1346 0.31749 0.0
C1064 C 0.69288 0.09413 0.52858 0.0
C1065 C 0.69211 0.10583 0.56789 0.0
C1066 C 0.69182 0.0955 0.46563 0.0
C1067 C 0.69025 0.10876 0.44066 0.0
C1068 C 0.68933 0.12038 0.47988 0.0
C1069 C 0.69024 0.11893 0.54287 0.0
C1070 C 0.68936 0.11043 0.37374 0.0
C1071 C 0.67568 0.1114 0.34956 0.0
C1072 C 0.70161 0.11066 0.33376 0.0
C1073 C 0.71689 0.11069 0.35643 0.0
C1074 C 0.72787 0.12312 0.39756 0.0
C1075 C 0.74222 0.12303 0.41884 0.0
C1076 C 0.74578 0.11064 0.39909 0.0
C1077 C 0.73502 0.09834 0.35782 0.0
C1078 C 0.72066 0.09836 0.33635 0.0
C1079 C 0.68457 0.13156 0.0953 0.0
C1080 C 0.68352 0.11935 0.05388 0.0
C1081 C 0.68555 0.12945 0.15778 0.0
C1082 C 0.6855 0.11509 0.18029 0.0
C1083 C 0.6848 0.10303 0.13927 0.0
C1084 C 0.68374 0.10508 0.07666 0.0
C1085 C 0.6861 0.11271 0.24675 0.0
C1086 C 0.6997 0.11159 0.27073 0.0
C1087 C 0.67384 0.11246 0.28662 0.0
C1088 C 0.6588 0.11287 0.26372 0.0
C1089 C 0.64793 0.10088 0.22116 0.0
C1090 C 0.63387 0.10144 0.19934 0.0
C1091 C 0.63048 0.11386 0.22007 0.0
C1092 C 0.64112 0.12573 0.26279 0.0
C1093 C 0.6552 0.12524 0.28471 0.0
H1094 H 0.61959 0.11428 0.20313 0.0
H1095 H 0.7569 0.1106 0.41564 0.0
H1096 H 0.5853 0.6757 0.54427 0.0
H1097 H 0.58992 0.67726 0.65451 0.0
H1098 H 0.54816 0.68582 0.68124 0.0
H1099 H 0.54368 0.68467 0.57145 0.0
H1100 H 0.57579 0.7076 0.74709 0.0
H1101 H 0.54336 0.64876 0.71008 0.0
H1102 H 0.53495 0.6208 0.66716 0.0
H1103 H 0.57962 0.62333 0.74054 0.0
H1104 H 0.58853 0.65151 0.78272 0.0
H1105 H 0.56385 0.69083 0.06694 0.0
H1106 H 0.55927 0.68887 0.95655 0.0
H1107 H 0.60449 0.68604 0.93061 0.0
H1108 H 0.60919 0.68816 0.04099 0.0
H1109 H 0.5749 0.66101 0.86537 0.0
H1110 H 0.60799 0.72134 0.89407 0.0
H1111 H 0.61494 0.74849 0.94123 0.0
H1112 H 0.56662 0.74131 0.88829 0.0
H1113 H 0.55942 0.71412 0.84053 0.0
C1114 C 0.57716 0.678 0.57357 0.0
C1115 C 0.56406 0.67997 0.54897 0.0
C1116 C 0.5797 0.6787 0.63656 0.0
C1117 C 0.56923 0.6814 0.67606 0.0
C1118 C 0.55631 0.68361 0.65161 0.0
C1119 C 0.5537 0.68282 0.58881 0.0
C1120 C 0.572 0.68241 0.74281 0.0
C1121 C 0.57541 0.69731 0.77292 0.0
C1122 C 0.57173 0.66908 0.77649 0.0
C1123 C 0.56677 0.65243 0.74877 0.0
C1124 C 0.55156 0.64352 0.7162 0.0
C1125 C 0.54665 0.62757 0.69227 0.0
C1126 C 0.55674 0.62029 0.70112 0.0
C1127 C 0.57179 0.62896 0.73383 0.0
C1128 C 0.5768 0.64495 0.75764 0.0
C1129 C 0.57275 0.68971 0.03765 0.0
C1130 C 0.58687 0.68963 0.06237 0.0
C1131 C 0.57019 0.68869 0.97472 0.0
C1132 C 0.58158 0.68736 0.93557 0.0
C1133 C 0.59558 0.68708 0.96015 0.0
C1134 C 0.59829 0.68838 0.023 0.0
C1135 C 0.57883 0.68618 0.86893 0.0
C1136 C 0.57537 0.67126 0.83907 0.0
C1137 C 0.57889 0.69938 0.83547 0.0
C1138 C 0.58311 0.71565 0.8643 0.0
C1139 C 0.5988 0.72551 0.89289 0.0
C1140 C 0.6028 0.74092 0.91955 0.0
C1141 C 0.59119 0.74659 0.91806 0.0
C1142 C 0.57559 0.73689 0.88951 0.0
C1143 C 0.57157 0.72151 0.86244 0.0
H1144 H 0.5943 0.75851 0.93888 0.0
H1145 H 0.55291 0.60794 0.68256 0.0
H1146 H 0.9294 0.60201 0.51442 0.0
H1147 H 0.92554 0.59735 0.40452 0.0
H1148 H 0.87336 0.55966 0.4335 0.0
H1149 H 0.87741 0.56394 0.54352 0.0
H1150 H 0.88568 0.54934 0.34859 0.0
H1151 H 0.8864 0.60138 0.38624 0.0
H1152 H 0.89794 0.63032 0.42548 0.0
H1153 H 0.94187 0.64715 0.31308 0.0
H1154 H 0.93068 0.61825 0.27373 0.0
H1155 H 0.85672 0.54897 0.04776 0.0
H1156 H 0.86155 0.55253 0.15735 0.0
H1157 H 0.91477 0.58545 0.12614 0.0
H1158 H 0.91014 0.58174 0.01656 0.0
H1159 H 0.90219 0.59815 0.21118 0.0
H1160 H 0.90052 0.54569 0.1719 0.0
H1161 H 0.88827 0.5167 0.13241 0.0
H1162 H 0.84502 0.50066 0.24782 0.0
H1163 H 0.85692 0.52962 0.28739 0.0
C1164 C 0.91714 0.59272 0.49714 0.0
C1165 C 0.90369 0.58338 0.53731 0.0
C1166 C 0.91491 0.5901 0.4344 0.0
C1167 C 0.89905 0.57839 0.41048 0.0
C1168 C 0.8857 0.56878 0.45074 0.0
C1169 C 0.88802 0.5712 0.51359 0.0
C1170 C 0.89633 0.57629 0.34357 0.0
C1171 C 0.88909 0.56 0.31872 0.0
C1172 C 0.90107 0.59022 0.30419 0.0
C1173 C 0.90777 0.60762 0.32747 0.0
C1174 C 0.89857 0.61123 0.37019 0.0
C1175 C 0.90504 0.62763 0.39241 0.0
C1176 C 0.92064 0.64056 0.37189 0.0
C1177 C 0.92979 0.63712 0.32898 0.0
C1178 C 0.92338 0.62074 0.30666 0.0
C1179 C 0.86948 0.55684 0.06402 0.0
C1180 C 0.88303 0.56502 0.02299 0.0
C1181 C 0.87221 0.55889 0.12679 0.0
C1182 C 0.88854 0.56914 0.1499 0.0
C1183 C 0.90206 0.57751 0.10924 0.0
C1184 C 0.89935 0.57542 0.04648 0.0
C1185 C 0.89152 0.57123 0.2165 0.0
C1186 C 0.89879 0.58751 0.2412 0.0
C1187 C 0.88668 0.5573 0.25574 0.0
C1188 C 0.87954 0.53986 0.23216 0.0
C1189 C 0.88834 0.53601 0.1885 0.0
C1190 C 0.88147 0.51958 0.16617 0.0
C1191 C 0.86586 0.50685 0.18748 0.0
C1192 C 0.8571 0.51053 0.23129 0.0
C1193 C 0.86391 0.52695 0.25373 0.0
H1194 H 0.86056 0.49414 0.17014 0.0
H1195 H 0.92564 0.65324 0.38917 0.0
H1196 H 0.32014 0.90363 0.54949 0.0
H1197 H 0.31715 0.90574 0.65891 0.0
H1198 H 0.31737 0.85935 0.68701 0.0
H1199 H 0.31962 0.85662 0.57745 0.0
H1200 H 0.29387 0.86094 0.75734 0.0
H1201 H 0.35276 0.89783 0.71046 0.0
H1202 H 0.37666 0.92106 0.65609 0.0
H1203 H 0.36196 0.95597 0.72201 0.0
H1204 H 0.33775 0.93289 0.77574 0.0
H1205 H 0.31231 0.8712 0.07515 0.0
H1206 H 0.31246 0.86715 0.96509 0.0
H1207 H 0.31395 0.91442 0.93469 0.0
H1208 H 0.31418 0.91868 0.04453 0.0
H1209 H 0.33647 0.91232 0.86519 0.0
H1210 H 0.27804 0.87724 0.90885 0.0
H1211 H 0.2523 0.85478 0.95755 0.0
H1212 H 0.2645 0.81765 0.89611 0.0
H1213 H 0.29043 0.83992 0.84753 0.0
C1214 C 0.31935 0.89373 0.57856 0.0
C1215 C 0.3203 0.88002 0.55421 0.0
C1216 C 0.3178 0.89508 0.64127 0.0
C1217 C 0.31737 0.88292 0.68118 0.0
C1218 C 0.31782 0.86897 0.65711 0.0
C1219 C 0.31928 0.86753 0.59434 0.0
C1220 C 0.31668 0.88491 0.74803 0.0
C1221 C 0.30333 0.87205 0.78116 0.0
C1222 C 0.32871 0.89968 0.77872 0.0
C1223 C 0.34336 0.9136 0.74678 0.0
C1224 C 0.35455 0.91044 0.71302 0.0
C1225 C 0.36815 0.92358 0.68232 0.0
C1226 C 0.37082 0.93998 0.68555 0.0
C1227 C 0.35991 0.94328 0.71966 0.0
C1228 C 0.34622 0.93016 0.75016 0.0
C1229 C 0.31279 0.88077 0.04502 0.0
C1230 C 0.31331 0.89531 0.06859 0.0
C1231 C 0.31268 0.87836 0.9821 0.0
C1232 C 0.3131 0.89043 0.94156 0.0
C1233 C 0.31359 0.90492 0.96504 0.0
C1234 C 0.31362 0.9073 0.02783 0.0
C1235 C 0.31367 0.88831 0.87471 0.0
C1236 C 0.32703 0.90116 0.84154 0.0
C1237 C 0.30151 0.87365 0.84391 0.0
C1238 C 0.28627 0.86028 0.87503 0.0
C1239 C 0.27534 0.86431 0.90628 0.0
C1240 C 0.26066 0.85161 0.93356 0.0
C1241 C 0.25673 0.8348 0.92968 0.0
C1242 C 0.26753 0.83067 0.89889 0.0
C1243 C 0.28222 0.84333 0.87144 0.0
H1244 H 0.24535 0.82497 0.95078 0.0
H1245 H 0.38134 0.95013 0.66167 0.0
H1246 H 0.39553 0.29325 0.52618 0.0
H1247 H 0.40015 0.29484 0.41673 0.0
H1248 H 0.44773 0.3408 0.43965 0.0
H1249 H 0.44288 0.33967 0.54948 0.0
H1250 H 0.43075 0.34321 0.34407 0.0
H1251 H 0.44596 0.30299 0.41452 0.0
H1252 H 0.44168 0.27764 0.46926 0.0
H1253 H 0.39892 0.24654 0.35639 0.0
H1254 H 0.4028 0.27175 0.3015 0.0
H1255 H 0.46597 0.3432 0.05548 0.0
H1256 H 0.46054 0.34182 0.16495 0.0
H1257 H 0.4109 0.29893 0.13716 0.0
H1258 H 0.41629 0.30024 0.02736 0.0
H1259 H 0.42867 0.29482 0.2344 0.0
H1260 H 0.41354 0.33492 0.16374 0.0
H1261 H 0.41772 0.36022 0.10892 0.0
H1262 H 0.46039 0.39146 0.22198 0.0
H1263 H 0.45662 0.3663 0.27692 0.0
C1264 C 0.4069 0.30383 0.5082 0.0
C1265 C 0.41885 0.31633 0.54707 0.0
C1266 C 0.40961 0.30462 0.44542 0.0
C1267 C 0.42441 0.3178 0.41991 0.0
C1268 C 0.43625 0.33045 0.45829 0.0
C1269 C 0.43353 0.3297 0.52121 0.0
C1270 C 0.42751 0.31833 0.35325 0.0
C1271 C 0.43054 0.33272 0.32029 0.0
C1272 C 0.42682 0.30448 0.32181 0.0
C1273 C 0.42458 0.28928 0.35427 0.0
C1274 C 0.43557 0.29076 0.40163 0.0
C1275 C 0.43323 0.27641 0.43266 0.0
C1276 C 0.42001 0.26049 0.41642 0.0
C1277 C 0.40914 0.25888 0.36897 0.0
C1278 C 0.41142 0.27319 0.33785 0.0
C1279 C 0.45395 0.3334 0.0727 0.0
C1280 C 0.44156 0.32181 0.03278 0.0
C1281 C 0.45082 0.3327 0.1352 0.0
C1282 C 0.43528 0.32033 0.15913 0.0
C1283 C 0.42296 0.30859 0.11958 0.0
C1284 C 0.42601 0.30941 0.0569 0.0
C1285 C 0.43196 0.3197 0.2255 0.0
C1286 C 0.42889 0.3053 0.25832 0.0
C1287 C 0.43263 0.33353 0.25679 0.0
C1288 C 0.4349 0.3487 0.22403 0.0
C1289 C 0.42391 0.34717 0.17657 0.0
C1290 C 0.42618 0.36149 0.14553 0.0
C1291 C 0.43934 0.37743 0.16185 0.0
C1292 C 0.45022 0.37909 0.20934 0.0
C1293 C 0.44801 0.36481 0.24047 0.0
H1294 H 0.44108 0.38851 0.13778 0.0
H1295 H 0.41821 0.2494 0.44052 0.0
H1296 H 0.60165 0.88398 0.45523 0.0
H1297 H 0.59725 0.88122 0.56558 0.0
H1298 H 0.56496 0.90284 0.55246 0.0
H1299 H 0.5692 0.90544 0.4416 0.0
H1300 H 0.58985 0.91667 0.64893 0.0
H1301 H 0.54653 0.86341 0.5719 0.0
H1302 H 0.5348 0.83714 0.5123 0.0
H1303 H 0.56553 0.82219 0.61192 0.0
H1304 H 0.57764 0.84853 0.67162 0.0
H1305 H 0.54427 0.8882 0.93047 0.0
H1306 H 0.55043 0.89105 0.82104 0.0
H1307 H 0.58957 0.87873 0.85047 0.0
H1308 H 0.58375 0.87635 0.96056 0.0
H1309 H 0.56217 0.86026 0.74716 0.0
H1310 H 0.60612 0.9134 0.82201 0.0
H1311 H 0.61703 0.93881 0.88609 0.0
H1312 H 0.58533 0.95361 0.79233 0.0
H1313 H 0.57399 0.92805 0.72821 0.0
C1314 C 0.59369 0.88823 0.47596 0.0
C1315 C 0.58579 0.89498 0.43997 0.0
C1316 C 0.59114 0.88658 0.5389 0.0
C1317 C 0.5808 0.89184 0.5672 0.0
C1318 C 0.57302 0.89875 0.5315 0.0
C1319 C 0.57535 0.90013 0.4683 0.0
C1320 C 0.57792 0.88985 0.63396 0.0
C1321 C 0.58365 0.90433 0.67026 0.0
C1322 C 0.5702 0.87378 0.66203 0.0
C1323 C 0.56311 0.85802 0.62582 0.0
C1324 C 0.55092 0.85461 0.58068 0.0
C1325 C 0.54417 0.83969 0.547 0.0
C1326 C 0.54941 0.828 0.55837 0.0
C1327 C 0.56147 0.83124 0.60329 0.0
C1328 C 0.56828 0.84617 0.63705 0.0
C1329 C 0.55415 0.88607 0.91349 0.0
C1330 C 0.56355 0.88205 0.95376 0.0
C1331 C 0.55767 0.88772 0.85117 0.0
C1332 C 0.57041 0.88505 0.82785 0.0
C1333 C 0.57967 0.8808 0.86774 0.0
C1334 C 0.57642 0.87954 0.93041 0.0
C1335 C 0.57412 0.88704 0.76176 0.0
C1336 C 0.56848 0.87258 0.72568 0.0
C1337 C 0.58201 0.90311 0.73391 0.0
C1338 C 0.58906 0.91872 0.77087 0.0
C1339 C 0.60136 0.922 0.81539 0.0
C1340 C 0.60764 0.93643 0.85164 0.0
C1341 C 0.60181 0.94777 0.84348 0.0
C1342 C 0.58979 0.94477 0.79868 0.0
C1343 C 0.58344 0.93032 0.76231 0.0
H1344 H 0.60666 0.95886 0.87189 0.0
H1345 H 0.54409 0.81641 0.53246 0.0
H1346 H 0.68979 0.54504 0.44836 0.0
H1347 H 0.69038 0.55002 0.33917 0.0
H1348 H 0.68293 0.59227 0.37229 0.0
H1349 H 0.68165 0.58697 0.48152 0.0
H1350 H 0.66327 0.57354 0.28188 0.0
H1351 H 0.72161 0.59817 0.33101 0.0
H1352 H 0.74706 0.59952 0.37469 0.0
H1353 H 0.74054 0.55901 0.25842 0.0
H1354 H 0.71489 0.55725 0.21462 0.0
H1355 H 0.68699 0.60869 0.98281 0.0
H1356 H 0.68593 0.60415 0.09302 0.0
H1357 H 0.68731 0.55828 0.06394 0.0
H1358 H 0.68843 0.5628 0.95375 0.0
H1359 H 0.71032 0.57954 0.15208 0.0
H1360 H 0.65145 0.55539 0.10368 0.0
H1361 H 0.62654 0.55518 0.06002 0.0
H1362 H 0.63498 0.59653 0.17541 0.0
H1363 H 0.66012 0.59715 0.21915 0.0
C1364 C 0.68816 0.55533 0.4326 0.0
C1365 C 0.6857 0.5656 0.4741 0.0
C1366 C 0.68867 0.55827 0.37002 0.0
C1367 C 0.6869 0.57165 0.34744 0.0
C1368 C 0.68439 0.58191 0.38861 0.0
C1369 C 0.68383 0.57895 0.45124 0.0
C1370 C 0.68737 0.57471 0.28082 0.0
C1371 C 0.67368 0.57511 0.25368 0.0
C1372 C 0.70081 0.57647 0.24373 0.0
C1373 C 0.71623 0.57747 0.26996 0.0
C1374 C 0.72552 0.58945 0.31511 0.0
C1375 C 0.74 0.59031 0.33983 0.0
C1376 C 0.74539 0.57933 0.31946 0.0
C1377 C 0.73633 0.56749 0.27422 0.0
C1378 C 0.72183 0.56657 0.24939 0.0
C1379 C 0.68705 0.59764 0.99999 0.0
C1380 C 0.68774 0.58608 0.95968 0.0
C1381 C 0.68635 0.59501 0.06285 0.0
C1382 C 0.68646 0.58084 0.0866 0.0
C1383 C 0.68717 0.56928 0.0465 0.0
C1384 C 0.68767 0.5718 0.98359 0.0
C1385 C 0.68619 0.57825 0.15334 0.0
C1386 C 0.69993 0.57799 0.18043 0.0
C1387 C 0.67289 0.57679 0.19042 0.0
C1388 C 0.65778 0.57643 0.16421 0.0
C1389 C 0.64809 0.56454 0.11934 0.0
C1390 C 0.63391 0.56433 0.09466 0.0
C1391 C 0.62921 0.57586 0.11479 0.0
C1392 C 0.63866 0.58762 0.15978 0.0
C1393 C 0.65287 0.5879 0.18456 0.0
H1394 H 0.61822 0.57567 0.09565 0.0
H1395 H 0.75661 0.58002 0.33864 0.0
H1396 H 0.10874 0.71619 0.44905 0.0
H1397 H 0.11075 0.71442 0.5591 0.0
H1398 H 0.1085 0.66647 0.53967 0.0
H1399 H 0.10584 0.66785 0.42931 0.0
H1400 H 0.08879 0.66594 0.63273 0.0
H1401 H 0.14587 0.7026 0.56501 0.0
H1402 H 0.16823 0.72715 0.5103 0.0
H1403 H 0.15936 0.76051 0.62137 0.0
H1404 H 0.13676 0.73614 0.67617 0.0
H1405 H 0.12182 0.66124 0.919 0.0
H1406 H 0.11811 0.6637 0.80996 0.0
H1407 H 0.116 0.70906 0.84243 0.0
H1408 H 0.11973 0.70663 0.95189 0.0
H1409 H 0.1373 0.71163 0.7442 0.0
H1410 H 0.08094 0.6757 0.81313 0.0
H1411 H 0.05819 0.65154 0.86796 0.0
H1412 H 0.06521 0.61728 0.75498 0.0
H1413 H 0.08823 0.64128 0.70006 0.0
C1414 C 0.10847 0.70516 0.46803 0.0
C1415 C 0.10714 0.69216 0.43012 0.0
C1416 C 0.10978 0.70425 0.53105 0.0
C1417 C 0.10998 0.69041 0.55762 0.0
C1418 C 0.10844 0.6773 0.52012 0.0
C1419 C 0.10708 0.67818 0.45698 0.0
C1420 C 0.11194 0.6897 0.62447 0.0
C1421 C 0.09951 0.67582 0.65696 0.0
C1422 C 0.12568 0.70284 0.65638 0.0
C1423 C 0.13952 0.71753 0.62437 0.0
C1424 C 0.14863 0.71517 0.57757 0.0
C1425 C 0.16135 0.72905 0.54656 0.0
C1426 C 0.1652 0.74538 0.56232 0.0
C1427 C 0.15636 0.74786 0.60922 0.0
C1428 C 0.1436 0.73401 0.64031 0.0
C1429 C 0.12067 0.67178 0.90289 0.0
C1430 C 0.12107 0.68374 0.94395 0.0
C1431 C 0.11844 0.67312 0.84068 0.0
C1432 C 0.1167 0.68652 0.81823 0.0
C1433 C 0.1173 0.69861 0.85892 0.0
C1434 C 0.11931 0.69715 0.92136 0.0
C1435 C 0.11426 0.6878 0.75215 0.0
C1436 C 0.12658 0.70177 0.71989 0.0
C1437 C 0.1004 0.67479 0.72047 0.0
C1438 C 0.08645 0.6603 0.75292 0.0
C1439 C 0.07775 0.66302 0.80032 0.0
C1440 C 0.06479 0.64935 0.8314 0.0
C1441 C 0.06032 0.63289 0.81518 0.0
C1442 C 0.06873 0.63005 0.76762 0.0
C1443 C 0.08173 0.64368 0.73646 0.0
H1444 H 0.05027 0.62232 0.83924 0.0
H1445 H 0.17504 0.7561 0.53821 0.0
H1446 H 0.44475 0.10783 0.96192 0.0
H1447 H 0.44948 0.11112 0.07139 0.0
H1448 H 0.39749 0.09733 0.0993 0.0
H1449 H 0.39288 0.09499 0.99015 0.0
H1450 H 0.41632 0.1229 0.16708 0.0
H1451 H 0.41311 0.06979 0.12969 0.0
H1452 H 0.42054 0.05019 0.08034 0.0
H1453 H 0.47157 0.07989 0.14358 0.0
H1454 H 0.46449 0.09979 0.19268 0.0
H1455 H 0.41316 0.1086 0.48548 0.0
H1456 H 0.40851 0.10366 0.37608 0.0
H1457 H 0.46195 0.12455 0.34847 0.0
H1458 H 0.46668 0.12925 0.45806 0.0
H1459 H 0.44248 0.09517 0.28169 0.0
H1460 H 0.44496 0.14828 0.31881 0.0
H1461 H 0.4367 0.1671 0.36939 0.0
H1462 H 0.38574 0.13606 0.30736 0.0
H1463 H 0.39365 0.11691 0.25709 0.0
C1464 C 0.43432 0.10563 0.99104 0.0
C1465 C 0.41841 0.10114 0.96644 0.0
C1466 C 0.43701 0.10731 0.05396 0.0
C1467 C 0.42378 0.10425 0.09388 0.0
C1468 C 0.4079 0.09972 0.06957 0.0
C1469 C 0.40525 0.09822 0.00677 0.0
C1470 C 0.42653 0.10624 0.16082 0.0
C1471 C 0.42183 0.11662 0.19211 0.0
C1472 C 0.43403 0.09834 0.19364 0.0
C1473 C 0.43831 0.08637 0.16434 0.0
C1474 C 0.42595 0.07221 0.13269 0.0
C1475 C 0.43009 0.06103 0.10483 0.0
C1476 C 0.44653 0.06382 0.10868 0.0
C1477 C 0.45885 0.07776 0.14056 0.0
C1478 C 0.45477 0.08898 0.16846 0.0
C1479 C 0.42392 0.11202 0.45629 0.0
C1480 C 0.44032 0.11945 0.48055 0.0
C1481 C 0.42125 0.10929 0.3937 0.0
C1482 C 0.43491 0.11391 0.35413 0.0
C1483 C 0.45124 0.12095 0.37824 0.0
C1484 C 0.45394 0.12378 0.4408 0.0
C1485 C 0.43221 0.11174 0.28744 0.0
C1486 C 0.43695 0.10137 0.25637 0.0
C1487 C 0.42461 0.11952 0.25483 0.0
C1488 C 0.41986 0.13108 0.2847 0.0
C1489 C 0.43196 0.1454 0.31636 0.0
C1490 C 0.42735 0.15614 0.3449 0.0
C1491 C 0.4107 0.15275 0.34173 0.0
C1492 C 0.39863 0.13865 0.30985 0.0
C1493 C 0.40317 0.12786 0.28128 0.0
H1494 H 0.40715 0.16108 0.36386 0.0
H1495 H 0.44971 0.05515 0.08707 0.0
H1496 H 0.3093 0.41391 0.97153 0.0
H1497 H 0.30939 0.40993 0.86194 0.0
H1498 H 0.33236 0.46356 0.83443 0.0
H1499 H 0.33271 0.46779 0.94415 0.0
H1500 H 0.30571 0.44432 0.75288 0.0
H1501 H 0.35708 0.44709 0.82321 0.0
H1502 H 0.37246 0.43869 0.89414 0.0
H1503 H 0.34243 0.38718 0.83657 0.0
H1504 H 0.32686 0.39529 0.76531 0.0
H1505 H 0.32873 0.44654 0.44578 0.0
H1506 H 0.33015 0.45158 0.55481 0.0
H1507 H 0.31442 0.39938 0.58882 0.0
H1508 H 0.31387 0.39439 0.47972 0.0
H1509 H 0.33755 0.41821 0.66814 0.0
H1510 H 0.2865 0.41481 0.59645 0.0
H1511 H 0.26907 0.42203 0.53144 0.0
H1512 H 0.29616 0.47319 0.59524 0.0
H1513 H 0.31393 0.46632 0.66001 0.0
C1514 C 0.31452 0.42492 0.94257 0.0
C1515 C 0.32112 0.44121 0.96732 0.0
C1516 C 0.31447 0.42259 0.8797 0.0
C1517 C 0.321 0.43646 0.84009 0.0
C1518 C 0.32722 0.45268 0.86423 0.0
C1519 C 0.32736 0.45505 0.92715 0.0
C1520 C 0.32176 0.43406 0.77359 0.0
C1521 C 0.31286 0.43885 0.73413 0.0
C1522 C 0.33074 0.42653 0.74945 0.0
C1523 C 0.34077 0.42178 0.78921 0.0
C1524 C 0.3538 0.43398 0.82558 0.0
C1525 C 0.36254 0.42928 0.86583 0.0
C1526 C 0.3584 0.41242 0.86994 0.0
C1527 C 0.34565 0.40024 0.83326 0.0
C1528 C 0.3369 0.40489 0.79276 0.0
C1529 C 0.32583 0.43614 0.47604 0.0
C1530 C 0.32101 0.41996 0.45324 0.0
C1531 C 0.32646 0.43903 0.53873 0.0
C1532 C 0.32203 0.42579 0.58022 0.0
C1533 C 0.31777 0.40979 0.55782 0.0
C1534 C 0.31729 0.40691 0.49515 0.0
C1535 C 0.32149 0.42851 0.64681 0.0
C1536 C 0.33043 0.42376 0.68651 0.0
C1537 C 0.31239 0.43595 0.6712 0.0
C1538 C 0.30166 0.44009 0.63261 0.0
C1539 C 0.28882 0.42763 0.59629 0.0
C1540 C 0.27887 0.43166 0.55953 0.0
C1541 C 0.28154 0.44807 0.55909 0.0
C1542 C 0.29413 0.46048 0.59556 0.0
C1543 C 0.30413 0.45653 0.63233 0.0
H1544 H 0.27382 0.45116 0.53059 0.0
H1545 H 0.36507 0.40881 0.90164 0.0
H1546 H 0.89097 0.30187 0.45825 0.0
H1547 H 0.89538 0.30118 0.34891 0.0
H1548 H 0.88167 0.3394 0.32063 0.0
H1549 H 0.87725 0.34017 0.42984 0.0
H1550 H 0.86651 0.31509 0.23954 0.0
H1551 H 0.92292 0.34856 0.31322 0.0
H1552 H 0.94772 0.35559 0.37723 0.0
H1553 H 0.94956 0.31287 0.30624 0.0
H1554 H 0.9246 0.30542 0.24248 0.0
H1555 H 0.89666 0.33586 0.93494 0.0
H1556 H 0.89387 0.33777 0.04464 0.0
H1557 H 0.90021 0.29466 0.07174 0.0
H1558 H 0.90244 0.29221 0.9622 0.0
H1559 H 0.91963 0.32197 0.15262 0.0
H1560 H 0.86241 0.28858 0.08055 0.0
H1561 H 0.83815 0.28265 0.0152 0.0
H1562 H 0.83874 0.32692 0.08283 0.0
H1563 H 0.86317 0.33327 0.14801 0.0
C1564 C 0.88904 0.31025 0.42892 0.0
C1565 C 0.88374 0.32108 0.45302 0.0
C1566 C 0.89158 0.30984 0.36632 0.0
C1567 C 0.88903 0.32037 0.3265 0.0
C1568 C 0.88368 0.33113 0.35038 0.0
C1569 C 0.88109 0.33151 0.41291 0.0
C1570 C 0.89158 0.31991 0.25984 0.0
C1571 C 0.87823 0.31684 0.2206 0.0
C1572 C 0.90676 0.3219 0.23501 0.0
C1573 C 0.92177 0.32633 0.27346 0.0
C1574 C 0.92851 0.34057 0.31164 0.0
C1575 C 0.94262 0.34465 0.34782 0.0
C1576 C 0.95018 0.33467 0.34588 0.0
C1577 C 0.94367 0.32059 0.30773 0.0
C1578 C 0.92955 0.31643 0.27153 0.0
C1579 C 0.8973 0.32664 0.96385 0.0
C1580 C 0.8997 0.31381 0.939 0.0
C1581 C 0.89581 0.32784 0.02675 0.0
C1582 C 0.8968 0.31633 0.06626 0.0
C1583 C 0.89951 0.30373 0.04202 0.0
C1584 C 0.90083 0.3024 0.97912 0.0
C1585 C 0.89458 0.31717 0.1328 0.0
C1586 C 0.90796 0.32028 0.17185 0.0
C1587 C 0.8795 0.31537 0.15752 0.0
C1588 C 0.86472 0.31149 0.11871 0.0
C1589 C 0.85745 0.29713 0.08114 0.0
C1590 C 0.84366 0.29367 0.04419 0.0
C1591 C 0.83694 0.30442 0.04475 0.0
C1592 C 0.84398 0.31862 0.08239 0.0
C1593 C 0.85778 0.32214 0.11939 0.0
H1594 H 0.82626 0.30172 0.01611 0.0
H1595 H 0.96112 0.33786 0.3738 0.0
H1596 H 0.13559 0.39731 0.25544 0.0
H1597 H 0.15842 0.39085 0.23893 0.0
H1598 H 0.19331 0.43707 0.33034 0.0
H1599 H 0.17087 0.44366 0.34494 0.0
H1600 H 0.20537 0.43592 0.22426 0.0
H1601 H 0.17904 0.39644 0.39107 0.0
H1602 H 0.15563 0.3719 0.44218 0.0
H1603 H 0.1532 0.33983 0.29535 0.0
H1604 H 0.17648 0.36424 0.24301 0.0
H1605 H 0.27697 0.43588 0.31458 0.0
H1606 H 0.24794 0.42973 0.31915 0.0
H1607 H 0.23477 0.39448 0.17111 0.0
H1608 H 0.26432 0.4007 0.16583 0.0
H1609 H 0.20942 0.3858 0.28367 0.0
H1610 H 0.23847 0.42597 0.12296 0.0
H1611 H 0.26295 0.45096 0.07841 0.0
H1612 H 0.26044 0.48214 0.2192 0.0
H1613 H 0.23613 0.45729 0.26519 0.0
C1614 C 0.14805 0.40579 0.27338 0.0
C1615 C 0.1515 0.42099 0.30141 0.0
C1616 C 0.16111 0.40214 0.26374 0.0
C1617 C 0.17769 0.41355 0.28286 0.0
C1618 C 0.18073 0.42815 0.31439 0.0
C1619 C 0.16786 0.43187 0.32311 0.0
C1620 C 0.19235 0.41139 0.26648 0.0
C1621 C 0.20616 0.42491 0.23732 0.0
C1622 C 0.19331 0.39682 0.28132 0.0
C1623 C 0.17934 0.38219 0.31279 0.0
C1624 C 0.17341 0.38418 0.36944 0.0
C1625 C 0.16019 0.37029 0.39868 0.0
C1626 C 0.15289 0.35433 0.37193 0.0
C1627 C 0.15884 0.35221 0.31596 0.0
C1628 C 0.17205 0.36606 0.28651 0.0
C1629 C 0.26796 0.42665 0.2832 0.0
C1630 C 0.27306 0.41896 0.23916 0.0
C1631 C 0.25129 0.42308 0.28623 0.0
C1632 C 0.23922 0.41173 0.24534 0.0
C1633 C 0.24392 0.40324 0.20328 0.0
C1634 C 0.26078 0.40683 0.20018 0.0
C1635 C 0.22242 0.41056 0.24361 0.0
C1636 C 0.20833 0.39655 0.26929 0.0
C1637 C 0.22111 0.4247 0.22588 0.0
C1638 C 0.23553 0.43975 0.19767 0.0
C1639 C 0.24321 0.43814 0.14463 0.0
C1640 C 0.25705 0.45228 0.1191 0.0
C1641 C 0.26326 0.46812 0.146 0.0
C1642 C 0.25562 0.46986 0.1984 0.0
C1643 C 0.24179 0.45576 0.22417 0.0
H1644 H 0.27398 0.47905 0.12619 0.0
H1645 H 0.14266 0.34359 0.39464 0.0
H1646 H 0.83208 0.27367 0.72922 0.0
H1647 H 0.81203 0.24434 0.75102 0.0
H1648 H 0.84962 0.23069 0.70873 0.0
H1649 H 0.87027 0.26059 0.68726 0.0
H1650 H 0.81109 0.20844 0.6605 0.0
H1651 H 0.84588 0.22897 0.83894 0.0
H1652 H 0.8622 0.25056 0.91635 0.0
H1653 H 0.81719 0.25001 0.97506 0.0
H1654 H 0.80064 0.22864 0.89722 0.0
H1655 H 0.74238 0.13239 0.78628 0.0
H1656 H 0.77235 0.15358 0.7706 0.0
H1657 H 0.76296 0.19229 0.83901 0.0
H1658 H 0.73337 0.1714 0.85436 0.0
H1659 H 0.79337 0.19763 0.87699 0.0
H1660 H 0.7612 0.18429 0.68813 0.0
H1661 H 0.74348 0.16474 0.60732 0.0
H1662 H 0.7824 0.15309 0.56649 0.0
H1663 H 0.80027 0.17243 0.64778 0.0
C1664 C 0.8362 0.26453 0.72392 0.0
C1665 C 0.85289 0.26957 0.70699 0.0
C1666 C 0.82464 0.24771 0.73634 0.0
C1667 C 0.82936 0.23538 0.73196 0.0
C1668 C 0.84576 0.24007 0.71235 0.0
C1669 C 0.85751 0.25712 0.70013 0.0
C1670 C 0.81707 0.21798 0.75202 0.0
C1671 C 0.80757 0.20577 0.70806 0.0
C1672 C 0.81224 0.2147 0.81392 0.0
C1673 C 0.82203 0.22722 0.86205 0.0
C1674 C 0.83947 0.23351 0.86813 0.0
C1675 C 0.84876 0.24571 0.9121 0.0
C1676 C 0.84074 0.25165 0.95059 0.0
C1677 C 0.82339 0.24538 0.94526 0.0
C1678 C 0.81404 0.2332 0.90127 0.0
C1679 C 0.74689 0.14535 0.79948 0.0
C1680 C 0.73557 0.15028 0.82136 0.0
C1681 C 0.76396 0.15746 0.79013 0.0
C1682 C 0.7699 0.17459 0.80313 0.0
C1683 C 0.75875 0.1792 0.82872 0.0
C1684 C 0.7418 0.16724 0.8373 0.0
C1685 C 0.78713 0.18816 0.78538 0.0
C1686 C 0.79738 0.19983 0.8298 0.0
C1687 C 0.79253 0.19099 0.72387 0.0
C1688 C 0.78196 0.17961 0.67445 0.0
C1689 C 0.76593 0.17747 0.66215 0.0
C1690 C 0.75587 0.16645 0.61628 0.0
C1691 C 0.76179 0.15763 0.58196 0.0
C1692 C 0.77782 0.15989 0.59325 0.0
C1693 C 0.78791 0.17088 0.63921 0.0
H1694 H 0.75396 0.14909 0.54655 0.0
H1695 H 0.84796 0.26111 0.98456 0.0
H1696 H 0.55643 0.82959 0.23721 0.0
H1697 H 0.56561 0.80949 0.25959 0.0
H1698 H 0.61604 0.84535 0.20118 0.0
H1699 H 0.60692 0.86603 0.17907 0.0
H1700 H 0.60094 0.80849 0.16003 0.0
H1701 H 0.61363 0.84245 0.3371 0.0
H1702 H 0.6084 0.85822 0.41682 0.0
H1703 H 0.5662 0.8122 0.48183 0.0
H1704 H 0.5708 0.79623 0.40137 0.0
H1705 H 0.61023 0.74048 0.28239 0.0
H1706 H 0.61826 0.77033 0.26915 0.0
H1707 H 0.56906 0.75895 0.33252 0.0
H1708 H 0.56108 0.72947 0.34533 0.0
H1709 H 0.59386 0.78959 0.37515 0.0
H1710 H 0.57656 0.75861 0.18168 0.0
H1711 H 0.58017 0.74169 0.10191 0.0
H1712 H 0.63081 0.78184 0.07003 0.0
H1713 H 0.62754 0.79891 0.15018 0.0
C1714 C 0.56948 0.83331 0.22854 0.0
C1715 C 0.58097 0.84954 0.2067 0.0
C1716 C 0.5747 0.82174 0.24146 0.0
C1717 C 0.59152 0.82597 0.23271 0.0
C1718 C 0.60299 0.84187 0.20839 0.0
C1719 C 0.59777 0.85365 0.1958 0.0
C1720 C 0.59673 0.81367 0.25192 0.0
C1721 C 0.59996 0.8047 0.20729 0.0
C1722 C 0.59526 0.8086 0.31356 0.0
C1723 C 0.59253 0.81813 0.36281 0.0
C1724 C 0.60313 0.8357 0.368 0.0
C1725 C 0.60026 0.84469 0.41335 0.0
C1726 C 0.58694 0.83624 0.45428 0.0
C1727 C 0.57647 0.81877 0.45001 0.0
C1728 C 0.57921 0.80973 0.4045 0.0
C1729 C 0.60135 0.74451 0.29494 0.0
C1730 C 0.58501 0.73267 0.31465 0.0
C1731 C 0.60589 0.76152 0.28703 0.0
C1732 C 0.5942 0.76688 0.29939 0.0
C1733 C 0.57831 0.75519 0.32277 0.0
C1734 C 0.57374 0.7383 0.32987 0.0
C1735 C 0.59748 0.78406 0.28308 0.0
C1736 C 0.59562 0.79385 0.32826 0.0
C1737 C 0.60019 0.78985 0.22207 0.0
C1738 C 0.60189 0.77993 0.17225 0.0
C1739 C 0.58847 0.7638 0.15769 0.0
C1740 C 0.59045 0.75419 0.11249 0.0
C1741 C 0.60574 0.76066 0.08122 0.0
C1742 C 0.619 0.77683 0.0945 0.0
C1743 C 0.61709 0.78648 0.13975 0.0
H1744 H 0.60732 0.75313 0.04681 0.0
H1745 H 0.58476 0.84323 0.48936 0.0
H1746 H 0.86479 0.60065 0.84474 0.0
H1747 H 0.84217 0.60778 0.84554 0.0
H1748 H 0.83078 0.59209 0.65826 0.0
H1749 H 0.85309 0.58487 0.6575 0.0
H1750 H 0.82719 0.62019 0.68452 0.0
H1751 H 0.81017 0.56441 0.76576 0.0
H1752 H 0.81265 0.54498 0.83716 0.0
H1753 H 0.80534 0.57041 0.98815 0.0
H1754 H 0.80307 0.59016 0.91757 0.0
H1755 H 0.73934 0.5906 0.64315 0.0
H1756 H 0.76883 0.5973 0.64758 0.0
H1757 H 0.76797 0.60096 0.84334 0.0
H1758 H 0.73828 0.59321 0.83876 0.0
H1759 H 0.77996 0.58258 0.82053 0.0
H1760 H 0.793 0.63618 0.74052 0.0
H1761 H 0.79101 0.65619 0.67066 0.0
H1762 H 0.80629 0.63663 0.52136 0.0
H1763 H 0.80815 0.61635 0.59017 0.0
C1764 C 0.85778 0.59923 0.80335 0.0
C1765 C 0.86061 0.59213 0.75118 0.0
C1766 C 0.84481 0.60321 0.80388 0.0
C1767 C 0.83466 0.60031 0.75205 0.0
C1768 C 0.83841 0.59446 0.6987 0.0
C1769 C 0.85114 0.59027 0.69844 0.0
C1770 C 0.81893 0.60133 0.75471 0.0
C1771 C 0.81682 0.61202 0.71425 0.0
C1772 C 0.80552 0.59088 0.7942 0.0
C1773 C 0.80666 0.57887 0.83649 0.0
C1774 C 0.80921 0.56592 0.81421 0.0
C1775 C 0.81057 0.55485 0.85451 0.0
C1776 C 0.80921 0.55649 0.91716 0.0
C1777 C 0.80643 0.56918 0.93962 0.0
C1778 C 0.80511 0.58031 0.8995 0.0
C1779 C 0.74566 0.59332 0.68681 0.0
C1780 C 0.73663 0.5915 0.74058 0.0
C1781 C 0.76256 0.59719 0.68947 0.0
C1782 C 0.77084 0.59977 0.74591 0.0
C1783 C 0.76197 0.59894 0.79924 0.0
C1784 C 0.74503 0.59465 0.79663 0.0
C1785 C 0.788 0.60155 0.75025 0.0
C1786 C 0.79035 0.59117 0.79166 0.0
C1787 C 0.80164 0.61244 0.71202 0.0
C1788 C 0.80059 0.62465 0.67048 0.0
C1789 C 0.79582 0.63607 0.69272 0.0
C1790 C 0.79474 0.64747 0.65331 0.0
C1791 C 0.79849 0.64766 0.59159 0.0
C1792 C 0.80338 0.63647 0.56918 0.0
C1793 C 0.80447 0.62503 0.60838 0.0
H1794 H 0.79763 0.65649 0.56115 0.0
H1795 H 0.81026 0.54791 0.9483 0.0
H1796 H 0.27576 0.83014 0.30781 0.0
H1797 H 0.2464 0.80973 0.28667 0.0
H1798 H 0.23426 0.84952 0.28441 0.0
H1799 H 0.26409 0.8704 0.30536 0.0
H1800 H 0.20961 0.81063 0.34843 0.0
H1801 H 0.23465 0.84303 0.16196 0.0
H1802 H 0.25986 0.85805 0.09676 0.0
H1803 H 0.26113 0.81221 0.07173 0.0
H1804 H 0.23611 0.79699 0.13772 0.0
H1805 H 0.13545 0.74254 0.21012 0.0
H1806 H 0.15719 0.77218 0.22831 0.0
H1807 H 0.19581 0.76073 0.17616 0.0
H1808 H 0.17438 0.73152 0.15794 0.0
H1809 H 0.20374 0.79097 0.13465 0.0
H1810 H 0.18491 0.76025 0.32499 0.0
H1811 H 0.16386 0.74363 0.40376 0.0
H1812 H 0.1533 0.78392 0.42957 0.0
H1813 H 0.17416 0.8007 0.35034 0.0
C1814 C 0.26687 0.83463 0.30387 0.0
C1815 C 0.27232 0.85195 0.30759 0.0
C1816 C 0.25005 0.82289 0.29212 0.0
C1817 C 0.23819 0.82811 0.2838 0.0
C1818 C 0.24325 0.84526 0.29106 0.0
C1819 C 0.26026 0.85714 0.30292 0.0
C1820 C 0.22128 0.81563 0.26013 0.0
C1821 C 0.20799 0.80668 0.30119 0.0
C1822 C 0.21948 0.81017 0.19901 0.0
C1823 C 0.23356 0.8189 0.15502 0.0
C1824 C 0.24031 0.83616 0.14252 0.0
C1825 C 0.25459 0.84472 0.10562 0.0
C1826 C 0.26218 0.83612 0.08064 0.0
C1827 C 0.25529 0.81887 0.09146 0.0
C1828 C 0.24103 0.81026 0.12846 0.0
C1829 C 0.14855 0.74653 0.2011 0.0
C1830 C 0.15324 0.73473 0.18284 0.0
C1831 C 0.16097 0.76341 0.21194 0.0
C1832 C 0.1782 0.76869 0.20419 0.0
C1833 C 0.18267 0.75706 0.18242 0.0
C1834 C 0.17038 0.7403 0.17221 0.0
C1835 C 0.19188 0.78578 0.22293 0.0
C1836 C 0.20479 0.79541 0.18108 0.0
C1837 C 0.19341 0.79167 0.28361 0.0
C1838 C 0.18089 0.78162 0.33116 0.0
C1839 C 0.17798 0.7655 0.34711 0.0
C1840 C 0.16611 0.75606 0.39187 0.0
C1841 C 0.15719 0.76268 0.42144 0.0
C1842 C 0.16017 0.77878 0.40646 0.0
C1843 C 0.17202 0.78826 0.36164 0.0
H1844 H 0.14801 0.75535 0.45609 0.0
H1845 H 0.27335 0.84281 0.05267 0.0
H1846 H 0.4255 0.27078 0.67555 0.0
H1847 H 0.41771 0.24112 0.67412 0.0
H1848 H 0.40029 0.23566 0.85953 0.0
H1849 H 0.40794 0.26558 0.86087 0.0
H1850 H 0.42401 0.22494 0.83864 0.0
H1851 H 0.37198 0.21536 0.75206 0.0
H1852 H 0.35424 0.22052 0.68088 0.0
H1853 H 0.37623 0.2087 0.52977 0.0
H1854 H 0.39427 0.20367 0.59998 0.0
H1855 H 0.40806 0.14229 0.842 0.0
H1856 H 0.40152 0.16508 0.84822 0.0
H1857 H 0.4107 0.17399 0.65548 0.0
H1858 H 0.41634 0.15046 0.64891 0.0
H1859 H 0.38772 0.18164 0.68742 0.0
H1860 H 0.44217 0.19574 0.76483 0.0
H1861 H 0.46239 0.19246 0.82934 0.0
H1862 H 0.43889 0.19816 0.98969 0.0
H1863 H 0.41837 0.20124 0.92607 0.0
C1864 C 0.41972 0.2632 0.71574 0.0
C1865 C 0.41735 0.2705 0.76842 0.0
C1866 C 0.41519 0.24621 0.71473 0.0
C1867 C 0.40834 0.23611 0.76657 0.0
C1868 C 0.40548 0.2432 0.81888 0.0
C1869 C 0.40976 0.26025 0.81956 0.0
C1870 C 0.40579 0.21872 0.76714 0.0
C1871 C 0.41572 0.2153 0.8067 0.0
C1872 C 0.39552 0.2064 0.7237 0.0
C1873 C 0.38455 0.20923 0.68133 0.0
C1874 C 0.37311 0.21396 0.70363 0.0
C1875 C 0.36298 0.21684 0.66345 0.0
C1876 C 0.36412 0.21496 0.60084 0.0
C1877 C 0.37536 0.21015 0.57829 0.0
C1878 C 0.38552 0.20725 0.61827 0.0
C1879 C 0.40806 0.14873 0.80065 0.0
C1880 C 0.41257 0.14461 0.74494 0.0
C1881 C 0.40452 0.16189 0.80429 0.0
C1882 C 0.40612 0.17167 0.7527 0.0
C1883 C 0.40946 0.16674 0.69605 0.0
C1884 C 0.4126 0.15325 0.69218 0.0
C1885 C 0.40597 0.18786 0.75898 0.0
C1886 C 0.3957 0.19112 0.72033 0.0
C1887 C 0.41624 0.20026 0.80238 0.0
C1888 C 0.42862 0.19852 0.84074 0.0
C1889 C 0.44124 0.19617 0.81387 0.0
C1890 C 0.45276 0.19436 0.85025 0.0
C1891 C 0.45189 0.19505 0.91358 0.0
C1892 C 0.43952 0.19759 0.94064 0.0
C1893 C 0.42795 0.19938 0.90445 0.0
H1894 H 0.46082 0.19364 0.94168 0.0
H1895 H 0.35628 0.21722 0.56981 0.0
loop_
_geom_bond_atom_site_label_1
_geom_bond_atom_site_label_2
_geom_bond_distance
_geom_bond_site_symmetry_2
_ccdc_geom_bond_type
C0 C1 1.351 . S
C0 N3 1.368 . S
C0 H5 0.931 . S
C1 C0 1.351 . S
C1 N2 1.373 . S
C1 H29 0.930 . S
N2 C1 1.373 . S
N2 C4 1.340 . S
N3 C0 1.368 . S
N3 C4 1.321 . S
N3 Co6 2.135 . S
C4 N2 1.340 . S
C4 N3 1.321 . S
C4 H28 0.930 . S
H5 C0 0.931 . S
Co6 N3 2.135 . S
Co6 N9 2.121 . S
Co6 O14 2.055 . S
Co6 O17 2.039 . S
Co6 N20 2.140 . S
C7 O8 1.227 . S
C7 O17 1.265 . S
O8 C7 1.227 . S
N9 Co6 2.121 . S
N9 C11 1.375 . S
N9 C12 1.313 . S
C10 C11 1.338 . S
C10 N13 1.377 . S
C10 H30 0.930 . S
C11 N9 1.375 . S
C11 C10 1.338 . S
C11 H15 0.931 . S
C12 N9 1.313 . S
C12 N13 1.344 . S
C12 H16 0.930 . S
N13 C10 1.377 . S
N13 C12 1.344 . S
O14 Co6 2.055 . S
O14 C18 1.253 . S
H15 C11 0.931 . S
H16 C12 0.930 . S
O17 Co6 2.039 . S
O17 C7 1.265 . S
C18 O14 1.253 . S
C18 O19 1.227 . S
O19 C18 1.227 . S
N20 Co6 2.140 . S
N20 C23 1.346 . S
N20 C24 1.345 . S
C21 C22 1.387 . S
C21 C25 1.391 . S
C22 C21 1.387 . S
C22 C23 1.369 . S
C22 H31 0.929 . S
C23 N20 1.346 . S
C23 C22 1.369 . S
C23 H26 0.928 . S
C24 N20 1.345 . S
C24 C25 1.371 . S
C24 H27 0.931 . S
C25 C21 1.391 . S
C25 C24 1.371 . S
C25 H32 0.930 . S
H26 C23 0.928 . S
H27 C24 0.931 . S
H28 C4 0.930 . S
H29 C1 0.930 . S
H30 C10 0.930 . S
H31 C22 0.929 . S
H32 C25 0.930 . S
C33 C34 1.351 1_556 S
C33 N36 1.368 . S
C33 H38 0.931 . S
C34 C33 1.351 1_554 S
C34 N35 1.373 . S
C34 H62 0.930 . S
N35 C34 1.373 . S
N35 C37 1.340 1_554 S
N36 C33 1.368 . S
N36 C37 1.321 . S
N36 Co39 2.135 . S
C37 N35 1.340 1_556 S
C37 N36 1.321 . S
C37 H61 0.930 . S
H38 C33 0.931 . S
Co39 N36 2.135 . S
Co39 N42 2.121 . S
Co39 O47 2.055 . S
Co39 O50 2.039 . S
Co39 N53 2.140 . S
C40 O41 1.227 . S
C40 O50 1.265 . S
O41 C40 1.227 . S
N42 Co39 2.121 . S
N42 C44 1.375 . S
N42 C45 1.313 . S
C43 C44 1.338 . S
C43 N46 1.377 . S
C43 H63 0.930 . S
C44 N42 1.375 . S
C44 C43 1.338 . S
C44 H48 0.931 . S
C45 N42 1.313 . S
C45 N46 1.344 . S
C45 H49 0.930 . S
N46 C43 1.377 . S
N46 C45 1.344 . S
O47 Co39 2.055 . S
O47 C51 1.253 . S
H48 C44 0.931 . S
H49 C45 0.930 . S
O50 Co39 2.039 . S
O50 C40 1.265 . S
C51 O47 1.253 . S
C51 O52 1.227 . S
O52 C51 1.227 . S
N53 Co39 2.140 . S
N53 C56 1.346 . S
N53 C57 1.345 . S
C54 C55 1.387 . S
C54 C58 1.391 . S
C55 C54 1.387 . S
C55 C56 1.369 . S
C55 H64 0.929 . S
C56 N53 1.346 . S
C56 C55 1.369 . S
C56 H59 0.928 . S
C57 N53 1.345 . S
C57 C58 1.371 . S
C57 H60 0.931 . S
C58 C54 1.391 . S
C58 C57 1.371 . S
C58 H65 0.930 . S
H59 C56 0.928 . S
H60 C57 0.931 . S
H61 C37 0.930 . S
H62 C34 0.930 . S
H63 C43 0.930 . S
H64 C55 0.929 . S
H65 C58 0.930 . S
C66 C67 1.351 . S
C66 N69 1.368 . S
C66 H71 0.931 . S
C67 C66 1.351 . S
C67 N68 1.373 . S
C67 H95 0.930 . S
N68 C67 1.373 . S
N68 C70 1.340 . S
N69 C66 1.368 . S
N69 C70 1.321 . S
N69 Co72 2.135 . S
C70 N68 1.340 . S
C70 N69 1.321 . S
C70 H94 0.930 . S
H71 C66 0.931 . S
Co72 N69 2.135 . S
Co72 N75 2.121 . S
Co72 O80 2.055 . S
Co72 O83 2.039 . S
Co72 N86 2.140 . S
C73 O74 1.227 . S
C73 O83 1.265 . S
O74 C73 1.227 . S
N75 Co72 2.121 . S
N75 C77 1.375 . S
N75 C78 1.313 . S
C76 C77 1.338 . S
C76 N79 1.377 . S
C76 H96 0.930 . S
C77 N75 1.375 . S
C77 C76 1.338 . S
C77 H81 0.931 . S
C78 N75 1.313 . S
C78 N79 1.344 . S
C78 H82 0.930 . S
N79 C76 1.377 . S
N79 C78 1.344 . S
O80 Co72 2.055 . S
O80 C84 1.253 . S
H81 C77 0.931 . S
H82 C78 0.930 . S
O83 Co72 2.039 . S
O83 C73 1.265 . S
C84 O80 1.253 . S
C84 O85 1.227 . S
O85 C84 1.227 . S
N86 Co72 2.140 . S
N86 C89 1.346 . S
N86 C90 1.345 . S
C87 C88 1.387 . S
C87 C91 1.391 . S
C88 C87 1.387 . S
C88 C89 1.369 . S
C88 H97 0.929 . S
C89 N86 1.346 . S
C89 C88 1.369 . S
C89 H92 0.928 . S
C90 N86 1.345 . S
C90 C91 1.371 . S
C90 H93 0.931 . S
C91 C87 1.391 . S
C91 C90 1.371 . S
C91 H98 0.930 . S
H92 C89 0.928 . S
H93 C90 0.931 . S
H94 C70 0.930 . S
H95 C67 0.930 . S
H96 C76 0.930 . S
H97 C88 0.929 . S
H98 C91 0.930 . S
C99 C100 1.351 1_556 S
C99 N102 1.368 . S
C99 H104 0.931 . S
C100 C99 1.351 1_554 S
C100 N101 1.373 . S
C100 H128 0.930 . S
N101 C100 1.373 . S
N101 C103 1.340 1_554 S
N102 C99 1.368 . S
N102 C103 1.321 . S
N102 Co105 2.135 . S
C103 N101 1.340 1_556 S
C103 N102 1.321 . S
C103 H127 0.930 . S
H104 C99 0.931 . S
Co105 N102 2.135 . S
Co105 N108 2.121 . S
Co105 O113 2.055 . S
Co105 O116 2.039 . S
Co105 N119 2.140 . S
C106 O107 1.227 . S
C106 O116 1.265 . S
O107 C106 1.227 . S
N108 Co105 2.121 . S
N108 C110 1.375 . S
N108 C111 1.313 . S
C109 C110 1.338 . S
C109 N112 1.377 . S
C109 H129 0.930 . S
C110 N108 1.375 . S
C110 C109 1.338 . S
C110 H114 0.931 . S
C111 N108 1.313 . S
C111 N112 1.344 . S
C111 H115 0.930 . S
N112 C109 1.377 . S
N112 C111 1.344 . S
O113 Co105 2.055 . S
O113 C117 1.253 . S
H114 C110 0.931 . S
H115 C111 0.930 . S
O116 Co105 2.039 . S
O116 C106 1.265 . S
C117 O113 1.253 . S
C117 O118 1.227 . S
O118 C117 1.227 . S
N119 Co105 2.140 . S
N119 C122 1.346 . S
N119 C123 1.345 . S
C120 C121 1.387 . S
C120 C124 1.391 . S
C121 C120 1.387 . S
C121 C122 1.369 . S
C121 H130 0.929 . S
C122 N119 1.346 . S
C122 C121 1.369 . S
C122 H125 0.928 . S
C123 N119 1.345 . S
C123 C124 1.371 . S
C123 H126 0.931 . S
C124 C120 1.391 . S
C124 C123 1.371 . S
C124 H131 0.930 . S
H125 C122 0.928 . S
H126 C123 0.931 . S
H127 C103 0.930 . S
H128 C100 0.930 . S
H129 C109 0.930 . S
H130 C121 0.929 . S
H131 C124 0.930 . S
C132 C133 1.351 . S
C132 N135 1.368 . S
C132 H137 0.931 . S
C133 C132 1.351 . S
C133 N134 1.373 . S
C133 H161 0.930 . S
N134 C133 1.373 . S
N134 C136 1.340 . S
N135 C132 1.368 . S
N135 C136 1.321 . S
N135 Co138 2.135 . S
C136 N134 1.340 . S
C136 N135 1.321 . S
C136 H160 0.930 . S
H137 C132 0.931 . S
Co138 N135 2.135 . S
Co138 N141 2.121 . S
Co138 O146 2.055 . S
Co138 O149 2.039 . S
Co138 N152 2.140 . S
C139 O140 1.227 . S
C139 O149 1.265 . S
O140 C139 1.227 . S
N141 Co138 2.121 . S
N141 C143 1.375 . S
N141 C144 1.313 . S
C142 C143 1.338 . S
C142 N145 1.377 . S
C142 H162 0.930 . S
C143 N141 1.375 . S
C143 C142 1.338 . S
C143 H147 0.931 . S
C144 N141 1.313 . S
C144 N145 1.344 . S
C144 H148 0.930 . S
N145 C142 1.377 . S
N145 C144 1.344 . S
O146 Co138 2.055 . S
O146 C150 1.253 . S
H147 C143 0.931 . S
H148 C144 0.930 . S
O149 Co138 2.039 . S
O149 C139 1.265 . S
C150 O146 1.253 . S
C150 O151 1.227 . S
O151 C150 1.227 . S
N152 Co138 2.140 . S
N152 C155 1.346 . S
N152 C156 1.345 . S
C153 C154 1.387 . S
C153 C157 1.391 . S
C154 C153 1.387 . S
C154 C155 1.369 . S
C154 H163 0.929 . S
C155 N152 1.346 . S
C155 C154 1.369 . S
C155 H158 0.928 . S
C156 N152 1.345 . S
C156 C157 1.371 . S
C156 H159 0.931 . S
C157 C153 1.391 . S
C157 C156 1.371 . S
C157 H164 0.930 . S
H158 C155 0.928 . S
H159 C156 0.931 . S
H160 C136 0.930 . S
H161 C133 0.930 . S
H162 C142 0.930 . S
H163 C154 0.929 . S
H164 C157 0.930 . S
C165 C166 1.351 1_556 S
C165 N168 1.368 . S
C165 H170 0.931 . S
C166 C165 1.351 1_554 S
C166 N167 1.373 . S
C166 H194 0.930 . S
N167 C166 1.373 . S
N167 C169 1.340 1_554 S
N168 C165 1.368 . S
N168 C169 1.321 . S
N168 Co171 2.135 . S
C169 N167 1.340 1_556 S
C169 N168 1.321 . S
C169 H193 0.930 . S
H170 C165 0.931 . S
Co171 N168 2.135 . S
Co171 N174 2.121 . S
Co171 O179 2.055 . S
Co171 O182 2.039 . S
Co171 N185 2.140 . S
C172 O173 1.227 . S
C172 O182 1.265 . S
O173 C172 1.227 . S
N174 Co171 2.121 . S
N174 C176 1.375 . S
N174 C177 1.313 . S
C175 C176 1.338 . S
C175 N178 1.377 . S
C175 H195 0.930 . S
C176 N174 1.375 . S
C176 C175 1.338 . S
C176 H180 0.931 . S
C177 N174 1.313 . S
C177 N178 1.344 . S
C177 H181 0.930 . S
N178 C175 1.377 . S
N178 C177 1.344 . S
O179 Co171 2.055 . S
O179 C183 1.253 . S
H180 C176 0.931 . S
H181 C177 0.930 . S
O182 Co171 2.039 . S
O182 C172 1.265 . S
C183 O179 1.253 . S
C183 O184 1.227 . S
O184 C183 1.227 . S
N185 Co171 2.140 . S
N185 C188 1.346 . S
N185 C189 1.345 . S
C186 C187 1.387 . S
C186 C190 1.391 . S
C187 C186 1.387 . S
C187 C188 1.369 . S
C187 H196 0.929 . S
C188 N185 1.346 . S
C188 C187 1.369 . S
C188 H191 0.928 . S
C189 N185 1.345 . S
C189 C190 1.371 . S
C189 H192 0.931 . S
C190 C186 1.391 . S
C190 C189 1.371 . S
C190 H197 0.930 . S
H191 C188 0.928 . S
H192 C189 0.931 . S
H193 C169 0.930 . S
H194 C166 0.930 . S
H195 C175 0.930 . S
H196 C187 0.929 . S
H197 C190 0.930 . S
C198 C199 1.351 1_554 S
C198 N201 1.368 . S
C198 H203 0.931 . S
C199 C198 1.351 1_556 S
C199 N200 1.373 . S
C199 H227 0.930 . S
N200 C199 1.373 . S
N200 C202 1.340 1_556 S
N201 C198 1.368 . S
N201 C202 1.321 . S
N201 Co204 2.135 . S
C202 N200 1.340 1_554 S
C202 N201 1.321 . S
C202 H226 0.930 . S
H203 C198 0.931 . S
Co204 N201 2.135 . S
Co204 N207 2.121 . S
Co204 O212 2.055 . S
Co204 O215 2.039 . S
Co204 N218 2.140 . S
C205 O206 1.227 . S
C205 O215 1.265 . S
O206 C205 1.227 . S
N207 Co204 2.121 . S
N207 C209 1.375 . S
N207 C210 1.313 . S
C208 C209 1.338 . S
C208 N211 1.377 . S
C208 H228 0.930 . S
C209 N207 1.375 . S
C209 C208 1.338 . S
C209 H213 0.931 . S
C210 N207 1.313 . S
C210 N211 1.344 . S
C210 H214 0.930 . S
N211 C208 1.377 . S
N211 C210 1.344 . S
O212 Co204 2.055 . S
O212 C216 1.253 . S
H213 C209 0.931 . S
H214 C210 0.930 . S
O215 Co204 2.039 . S
O215 C205 1.265 . S
C216 O212 1.253 . S
C216 O217 1.227 . S
O217 C216 1.227 . S
N218 Co204 2.140 . S
N218 C221 1.346 . S
N218 C222 1.345 . S
C219 C220 1.387 . S
C219 C223 1.391 . S
C220 C219 1.387 . S
C220 C221 1.369 . S
C220 H229 0.929 . S
C221 N218 1.346 . S
C221 C220 1.369 . S
C221 H224 0.928 . S
C222 N218 1.345 . S
C222 C223 1.371 . S
C222 H225 0.931 . S
C223 C219 1.391 . S
C223 C222 1.371 . S
C223 H230 0.930 . S
H224 C221 0.928 . S
H225 C222 0.931 . S
H226 C202 0.930 . S
H227 C199 0.930 . S
H228 C208 0.930 . S
H229 C220 0.929 . S
H230 C223 0.930 . S
C231 C232 1.351 . S
C231 N234 1.368 . S
C231 H236 0.931 . S
C232 C231 1.351 . S
C232 N233 1.373 . S
C232 H260 0.930 . S
N233 C232 1.373 . S
N233 C235 1.340 . S
N234 C231 1.368 . S
N234 C235 1.321 . S
N234 Co237 2.135 . S
C235 N233 1.340 . S
C235 N234 1.321 . S
C235 H259 0.930 . S
H236 C231 0.931 . S
Co237 N234 2.135 . S
Co237 N240 2.121 . S
Co237 O245 2.055 . S
Co237 O248 2.039 . S
Co237 N251 2.140 . S
C238 O239 1.227 . S
C238 O248 1.265 . S
O239 C238 1.227 . S
N240 Co237 2.121 . S
N240 C242 1.375 . S
N240 C243 1.313 . S
C241 C242 1.338 . S
C241 N244 1.377 . S
C241 H261 0.930 . S
C242 N240 1.375 . S
C242 C241 1.338 . S
C242 H246 0.931 . S
C243 N240 1.313 . S
C243 N244 1.344 . S
C243 H247 0.930 . S
N244 C241 1.377 . S
N244 C243 1.344 . S
O245 Co237 2.055 . S
O245 C249 1.253 . S
H246 C242 0.931 . S
H247 C243 0.930 . S
O248 Co237 2.039 . S
O248 C238 1.265 . S
C249 O245 1.253 . S
C249 O250 1.227 . S
O250 C249 1.227 . S
N251 Co237 2.140 . S
N251 C254 1.346 . S
N251 C255 1.345 . S
C252 C253 1.387 . S
C252 C256 1.391 . S
C253 C252 1.387 . S
C253 C254 1.369 . S
C253 H262 0.929 . S
C254 N251 1.346 . S
C254 C253 1.369 . S
C254 H257 0.928 . S
C255 N251 1.345 . S
C255 C256 1.371 . S
C255 H258 0.931 . S
C256 C252 1.391 . S
C256 C255 1.371 . S
C256 H263 0.930 . S
H257 C254 0.928 . S
H258 C255 0.931 . S
H259 C235 0.930 . S
H260 C232 0.930 . S
H261 C241 0.930 . S
H262 C253 0.929 . S
H263 C256 0.930 . S
C264 C265 1.351 1_554 S
C264 N267 1.368 . S
C264 H269 0.931 . S
C265 C264 1.351 1_556 S
C265 N266 1.373 . S
C265 H293 0.930 . S
N266 C265 1.373 . S
N266 C268 1.340 1_556 S
N267 C264 1.368 . S
N267 C268 1.321 . S
N267 Co270 2.135 . S
C268 N266 1.340 1_554 S
C268 N267 1.321 . S
C268 H292 0.930 . S
H269 C264 0.931 . S
Co270 N267 2.135 . S
Co270 N273 2.121 . S
Co270 O278 2.055 . S
Co270 O281 2.039 . S
Co270 N284 2.140 . S
C271 O272 1.227 . S
C271 O281 1.265 . S
O272 C271 1.227 . S
N273 Co270 2.121 . S
N273 C275 1.375 . S
N273 C276 1.313 . S
C274 C275 1.338 . S
C274 N277 1.377 . S
C274 H294 0.930 . S
C275 N273 1.375 . S
C275 C274 1.338 . S
C275 H279 0.931 . S
C276 N273 1.313 . S
C276 N277 1.344 . S
C276 H280 0.930 . S
N277 C274 1.377 . S
N277 C276 1.344 . S
O278 Co270 2.055 . S
O278 C282 1.253 . S
H279 C275 0.931 . S
H280 C276 0.930 . S
O281 Co270 2.039 . S
O281 C271 1.265 . S
C282 O278 1.253 . S
C282 O283 1.227 . S
O283 C282 1.227 . S
N284 Co270 2.140 . S
N284 C287 1.346 . S
N284 C288 1.345 . S
C285 C286 1.387 . S
C285 C289 1.391 . S
C286 C285 1.387 . S
C286 C287 1.369 . S
C286 H295 0.929 . S
C287 N284 1.346 . S
C287 C286 1.369 . S
C287 H290 0.928 . S
C288 N284 1.345 . S
C288 C289 1.371 . S
C288 H291 0.931 . S
C289 C285 1.391 . S
C289 C288 1.371 . S
C289 H296 0.930 . S
H290 C287 0.928 . S
H291 C288 0.931 . S
H292 C268 0.930 . S
H293 C265 0.930 . S
H294 C274 0.930 . S
H295 C286 0.929 . S
H296 C289 0.930 . S
C297 C298 1.351 . S
C297 N300 1.368 . S
C297 H302 0.931 . S
C298 C297 1.351 . S
C298 N299 1.373 . S
C298 H326 0.930 . S
N299 C298 1.373 . S
N299 C301 1.340 . S
N300 C297 1.368 . S
N300 C301 1.321 . S
N300 Co303 2.135 . S
C301 N299 1.340 . S
C301 N300 1.321 . S
C301 H325 0.930 . S
H302 C297 0.931 . S
Co303 N300 2.135 . S
Co303 N306 2.121 . S
Co303 O311 2.055 . S
Co303 O314 2.039 . S
Co303 N317 2.140 . S
C304 O305 1.227 . S
C304 O314 1.265 . S
O305 C304 1.227 . S
N306 Co303 2.121 . S
N306 C308 1.375 . S
N306 C309 1.313 . S
C307 C308 1.338 . S
C307 N310 1.377 . S
C307 H327 0.930 . S
C308 N306 1.375 . S
C308 C307 1.338 . S
C308 H312 0.931 . S
C309 N306 1.313 . S
C309 N310 1.344 . S
C309 H313 0.930 . S
N310 C307 1.377 . S
N310 C309 1.344 . S
O311 Co303 2.055 . S
O311 C315 1.253 . S
H312 C308 0.931 . S
H313 C309 0.930 . S
O314 Co303 2.039 . S
O314 C304 1.265 . S
C315 O311 1.253 . S
C315 O316 1.227 . S
O316 C315 1.227 . S
N317 Co303 2.140 . S
N317 C320 1.346 . S
N317 C321 1.345 . S
C318 C319 1.387 . S
C318 C322 1.391 . S
C319 C318 1.387 . S
C319 C320 1.369 . S
C319 H328 0.929 . S
C320 N317 1.346 . S
C320 C319 1.369 . S
C320 H323 0.928 . S
C321 N317 1.345 . S
C321 C322 1.371 . S
C321 H324 0.931 . S
C322 C318 1.391 . S
C322 C321 1.371 . S
C322 H329 0.930 . S
H323 C320 0.928 . S
H324 C321 0.931 . S
H325 C301 0.930 . S
H326 C298 0.930 . S
H327 C307 0.930 . S
H328 C319 0.929 . S
H329 C322 0.930 . S
C330 C331 1.351 1_554 S
C330 N333 1.368 . S
C330 H335 0.931 . S
C331 C330 1.351 1_556 S
C331 N332 1.373 . S
C331 H359 0.930 . S
N332 C331 1.373 . S
N332 C334 1.340 1_556 S
N333 C330 1.368 . S
N333 C334 1.321 . S
N333 Co336 2.135 . S
C334 N332 1.340 1_554 S
C334 N333 1.321 . S
C334 H358 0.930 . S
H335 C330 0.931 . S
Co336 N333 2.135 . S
Co336 N339 2.121 . S
Co336 O344 2.055 . S
Co336 O347 2.039 . S
Co336 N350 2.140 . S
C337 O338 1.227 . S
C337 O347 1.265 . S
O338 C337 1.227 . S
N339 Co336 2.121 . S
N339 C341 1.375 . S
N339 C342 1.313 . S
C340 C341 1.338 . S
C340 N343 1.377 . S
C340 H360 0.930 . S
C341 N339 1.375 . S
C341 C340 1.338 . S
C341 H345 0.931 . S
C342 N339 1.313 . S
C342 N343 1.344 . S
C342 H346 0.930 . S
N343 C340 1.377 . S
N343 C342 1.344 . S
O344 Co336 2.055 . S
O344 C348 1.253 . S
H345 C341 0.931 . S
H346 C342 0.930 . S
O347 Co336 2.039 . S
O347 C337 1.265 . S
C348 O344 1.253 . S
C348 O349 1.227 . S
O349 C348 1.227 . S
N350 Co336 2.140 . S
N350 C353 1.346 . S
N350 C354 1.345 . S
C351 C352 1.387 . S
C351 C355 1.391 . S
C352 C351 1.387 . S
C352 C353 1.369 . S
C352 H361 0.929 . S
C353 N350 1.346 . S
C353 C352 1.369 . S
C353 H356 0.928 . S
C354 N350 1.345 . S
C354 C355 1.371 . S
C354 H357 0.931 . S
C355 C351 1.391 . S
C355 C354 1.371 . S
C355 H362 0.930 . S
H356 C353 0.928 . S
H357 C354 0.931 . S
H358 C334 0.930 . S
H359 C331 0.930 . S
H360 C340 0.930 . S
H361 C352 0.929 . S
H362 C355 0.930 . S
C363 C364 1.351 . S
C363 N366 1.368 . S
C363 H368 0.931 . S
C364 C363 1.351 . S
C364 N365 1.373 . S
C364 H392 0.930 . S
N365 C364 1.373 . S
N365 C367 1.340 . S
N366 C363 1.368 . S
N366 C367 1.321 . S
N366 Co369 2.135 . S
C367 N365 1.340 . S
C367 N366 1.321 . S
C367 H391 0.930 . S
H368 C363 0.931 . S
Co369 N366 2.135 . S
Co369 N372 2.121 . S
Co369 O377 2.055 . S
Co369 O380 2.039 . S
Co369 N383 2.140 . S
C370 O371 1.227 . S
C370 O380 1.265 . S
O371 C370 1.227 . S
N372 Co369 2.121 . S
N372 C374 1.375 . S
N372 C375 1.313 . S
C373 C374 1.338 . S
C373 N376 1.377 . S
C373 H393 0.930 . S
C374 N372 1.375 . S
C374 C373 1.338 . S
C374 H378 0.931 . S
C375 N372 1.313 . S
C375 N376 1.344 . S
C375 H379 0.930 . S
N376 C373 1.377 . S
N376 C375 1.344 . S
O377 Co369 2.055 . S
O377 C381 1.253 . S
H378 C374 0.931 . S
H379 C375 0.930 . S
O380 Co369 2.039 . S
O380 C370 1.265 . S
C381 O377 1.253 . S
C381 O382 1.227 . S
O382 C381 1.227 . S
N383 Co369 2.140 . S
N383 C386 1.346 . S
N383 C387 1.345 . S
C384 C385 1.387 . S
C384 C388 1.391 . S
C385 C384 1.387 . S
C385 C386 1.369 . S
C385 H394 0.929 . S
C386 N383 1.346 . S
C386 C385 1.369 . S
C386 H389 0.928 . S
C387 N383 1.345 . S
C387 C388 1.371 . S
C387 H390 0.931 . S
C388 C384 1.391 . S
C388 C387 1.371 . S
C388 H395 0.930 . S
H389 C386 0.928 . S
H390 C387 0.931 . S
H391 C367 0.930 . S
H392 C364 0.930 . S
H393 C373 0.930 . S
H394 C385 0.929 . S
H395 C388 0.930 . S
H396 C414 0.951 . S
H397 C416 0.951 . S
H398 C418 0.950 . S
H399 C419 0.950 . S
H400 C421 0.950 . S
H401 C424 0.950 . S
H402 C425 0.950 . S
H403 C427 0.996 . S
H404 C428 0.950 1_655 S
H405 C429 0.951 . S
H406 C431 0.951 . S
H407 C433 0.950 . S
H408 C434 0.950 . S
H409 C436 0.950 . S
H410 C439 0.950 . S
H411 C440 0.950 . S
H412 C442 0.994 . S
H413 C443 0.950 1_455 S
C414 H396 0.951 . S
C414 C415 1.366 . S
C414 C416 1.388 . S
C415 C414 1.366 . S
C415 C419 1.385 . S
C416 H397 0.951 . S
C416 C414 1.388 . S
C416 C417 1.366 . S
C417 C416 1.366 . S
C417 C418 1.414 . S
C417 C420 1.499 . S
C418 H398 0.950 . S
C418 C417 1.414 . S
C418 C419 1.374 . S
C419 H399 0.950 . S
C419 C415 1.385 . S
C419 C418 1.374 . S
C420 C417 1.499 . S
C420 C421 1.373 . S
C420 C422 1.389 . S
C421 H400 0.950 . S
C421 C420 1.373 . S
C421 C437 1.377 1_455 S
C422 C420 1.389 . S
C422 C423 1.524 . S
C422 C436 1.377 1_455 S
C423 C422 1.524 . S
C423 C424 1.397 . S
C423 C428 1.363 . S
C424 H401 0.950 . S
C424 C423 1.397 . S
C424 C425 1.334 . S
C425 H402 0.950 . S
C425 C424 1.334 . S
C425 C426 1.287 . S
C426 C425 1.287 . S
C426 C427 1.524 . S
C426 H445 0.913 . S
C427 H403 0.996 . S
C427 C426 1.524 . S
C427 C428 1.415 . S
C428 H404 0.950 1_455 S
C428 C423 1.363 . S
C428 C427 1.415 . S
C429 H405 0.951 . S
C429 C430 1.366 . S
C429 C431 1.388 . S
C430 C429 1.366 . S
C430 C434 1.385 . S
C431 H406 0.951 . S
C431 C429 1.388 . S
C431 C432 1.366 . S
C432 C431 1.366 . S
C432 C433 1.414 . S
C432 C435 1.499 . S
C433 H407 0.950 . S
C433 C432 1.414 . S
C433 C434 1.374 . S
C434 H408 0.950 . S
C434 C430 1.385 . S
C434 C433 1.374 . S
C435 C432 1.499 . S
C435 C436 1.373 . S
C435 C437 1.389 . S
C436 H409 0.950 . S
C436 C422 1.377 1_655 S
C436 C435 1.373 . S
C437 C421 1.377 1_655 S
C437 C435 1.389 . S
C437 C438 1.524 . S
C438 C437 1.524 . S
C438 C439 1.397 . S
C438 C443 1.363 . S
C439 H410 0.950 . S
C439 C438 1.397 . S
C439 C440 1.334 . S
C440 H411 0.950 . S
C440 C439 1.334 . S
C440 C441 1.287 . S
C441 C440 1.287 . S
C441 C442 1.524 . S
C441 H444 0.999 . S
C442 H412 0.994 . S
C442 C441 1.524 . S
C442 C443 1.415 . S
C443 H413 0.950 1_655 S
C443 C438 1.363 . S
C443 C442 1.415 . S
H444 C441 0.999 . S
H445 C426 0.913 . S
H446 C464 0.951 . S
H447 C466 0.951 . S
H448 C468 0.950 . S
H449 C469 0.950 . S
H450 C471 0.950 . S
H451 C474 0.950 1_554 S
H452 C475 0.950 1_554 S
H453 C477 0.950 . S
H454 C478 0.950 1_565 S
H455 C479 0.951 . S
H456 C481 0.951 . S
H457 C483 0.950 . S
H458 C484 0.950 . S
H459 C486 0.950 . S
H460 C489 0.950 1_556 S
H461 C490 0.950 1_556 S
H462 C492 0.950 . S
H463 C493 0.950 1_545 S
C464 H446 0.951 . S
C464 C465 1.366 . S
C464 C466 1.388 . S
C465 C464 1.366 . S
C465 C469 1.385 . S
C466 H447 0.951 . S
C466 C464 1.388 . S
C466 C467 1.366 . S
C467 C466 1.366 . S
C467 C468 1.414 . S
C467 C470 1.499 . S
C468 H448 0.950 . S
C468 C467 1.414 . S
C468 C469 1.374 . S
C469 H449 0.950 . S
C469 C465 1.385 . S
C469 C468 1.374 . S
C470 C467 1.499 . S
C470 C471 1.373 . S
C470 C472 1.389 . S
C471 H450 0.950 . S
C471 C470 1.373 . S
C471 C487 1.377 1_546 S
C472 C470 1.389 . S
C472 C473 1.524 . S
C472 C486 1.377 1_546 S
C473 C472 1.524 . S
C473 C474 1.397 . S
C473 C478 1.363 . S
C474 H451 0.950 1_556 S
C474 C473 1.397 . S
C474 C475 1.334 . S
C475 H452 0.950 1_556 S
C475 C474 1.334 . S
C475 C476 1.287 . S
C476 C475 1.287 . S
C476 C477 1.524 . S
C476 H495 0.913 . S
C477 H453 0.950 . S
C477 C476 1.524 . S
C477 C478 1.415 . S
C478 H454 0.950 1_545 S
C478 C473 1.363 . S
C478 C477 1.415 . S
C479 H455 0.951 . S
C479 C480 1.366 . S
C479 C481 1.388 . S
C480 C479 1.366 . S
C480 C484 1.385 . S
C481 H456 0.951 . S
C481 C479 1.388 . S
C481 C482 1.366 . S
C482 C481 1.366 . S
C482 C483 1.414 . S
C482 C485 1.499 . S
C483 H457 0.950 . S
C483 C482 1.414 . S
C483 C484 1.374 . S
C484 H458 0.950 . S
C484 C480 1.385 . S
C484 C483 1.374 . S
C485 C482 1.499 . S
C485 C486 1.373 . S
C485 C487 1.389 . S
C486 H459 0.950 . S
C486 C472 1.377 1_564 S
C486 C485 1.373 . S
C487 C471 1.377 1_564 S
C487 C485 1.389 . S
C487 C488 1.524 . S
C488 C487 1.524 . S
C488 C489 1.397 . S
C488 C493 1.363 . S
C489 H460 0.950 1_554 S
C489 C488 1.397 . S
C489 C490 1.334 . S
C490 H461 0.950 1_554 S
C490 C489 1.334 . S
C490 C491 1.287 . S
C491 C490 1.287 . S
C491 C492 1.524 . S
C491 H494 0.999 . S
C492 H462 0.950 . S
C492 C491 1.524 . S
C492 C493 1.415 . S
C493 H463 0.950 1_565 S
C493 C488 1.363 . S
C493 C492 1.415 . S
H494 C491 0.999 . S
H495 C476 0.913 . S
H496 C514 0.951 . S
H497 C516 0.951 . S
H498 C518 0.950 . S
H499 C519 0.950 . S
H500 C521 0.950 . S
H501 C524 0.950 . S
H502 C525 0.950 . S
H503 C527 0.950 . S
H504 C528 0.950 . S
H505 C529 0.951 . S
H506 C531 0.951 . S
H507 C533 0.950 . S
H508 C534 0.950 . S
H509 C536 0.950 . S
H510 C539 0.950 . S
H511 C540 0.950 . S
H512 C542 0.950 . S
H513 C543 0.950 . S
C514 H496 0.951 . S
C514 C515 1.366 . S
C514 C516 1.388 . S
C515 C514 1.366 . S
C515 C519 1.385 . S
C516 H497 0.951 . S
C516 C514 1.388 . S
C516 C517 1.366 . S
C517 C516 1.366 . S
C517 C518 1.414 . S
C517 C520 1.499 . S
C518 H498 0.950 . S
C518 C517 1.414 . S
C518 C519 1.374 . S
C519 H499 0.950 . S
C519 C515 1.385 . S
C519 C518 1.374 . S
C520 C517 1.499 . S
C520 C521 1.373 . S
C520 C522 1.389 . S
C521 H500 0.950 . S
C521 C520 1.373 . S
C521 C537 1.377 . S
C522 C520 1.389 . S
C522 C523 1.524 . S
C522 C536 1.377 . S
C523 C522 1.524 . S
C523 C524 1.397 . S
C523 C528 1.363 . S
C524 H501 0.950 . S
C524 C523 1.397 . S
C524 C525 1.334 . S
C525 H502 0.950 . S
C525 C524 1.334 . S
C525 C526 1.287 . S
C526 C525 1.287 . S
C526 C527 1.524 . S
C526 H545 0.913 . S
C527 H503 0.950 . S
C527 C526 1.524 . S
C527 C528 1.415 . S
C528 H504 0.950 . S
C528 C523 1.363 . S
C528 C527 1.415 . S
C529 H505 0.951 . S
C529 C530 1.366 . S
C529 C531 1.388 . S
C530 C529 1.366 . S
C530 C534 1.385 . S
C531 H506 0.951 . S
C531 C529 1.388 . S
C531 C532 1.366 . S
C532 C531 1.366 . S
C532 C533 1.414 . S
C532 C535 1.499 . S
C533 H507 0.950 . S
C533 C532 1.414 . S
C533 C534 1.374 . S
C534 H508 0.950 . S
C534 C530 1.385 . S
C534 C533 1.374 . S
C535 C532 1.499 . S
C535 C536 1.373 . S
C535 C537 1.389 . S
C536 H509 0.950 . S
C536 C522 1.377 . S
C536 C535 1.373 . S
C537 C521 1.377 . S
C537 C535 1.389 . S
C537 C538 1.524 . S
C538 C537 1.524 . S
C538 C539 1.397 . S
C538 C543 1.363 . S
C539 H510 0.950 . S
C539 C538 1.397 . S
C539 C540 1.334 . S
C540 H511 0.950 . S
C540 C539 1.334 . S
C540 C541 1.287 . S
C541 C540 1.287 . S
C541 C542 1.524 . S
C541 H544 0.999 . S
C542 H512 0.950 . S
C542 C541 1.524 . S
C542 C543 1.415 . S
C543 H513 0.950 . S
C543 C538 1.363 . S
C543 C542 1.415 . S
H544 C541 0.999 . S
H545 C526 0.913 . S
H546 C564 0.951 . S
H547 C566 0.951 . S
H548 C568 0.950 . S
H549 C569 0.950 . S
H550 C571 0.950 . S
H551 C574 0.950 . S
H552 C575 0.950 . S
H553 C577 0.950 . S
H554 C578 0.950 . S
H555 C579 0.951 . S
H556 C581 0.951 . S
H557 C583 0.950 . S
H558 C584 0.950 . S
H559 C586 0.950 . S
H560 C589 0.950 . S
H561 C590 0.950 . S
H562 C592 0.950 . S
H563 C593 0.950 . S
C564 H546 0.951 . S
C564 C565 1.366 . S
C564 C566 1.388 . S
C565 C564 1.366 . S
C565 C569 1.385 . S
C566 H547 0.951 . S
C566 C564 1.388 . S
C566 C567 1.366 . S
C567 C566 1.366 . S
C567 C568 1.414 . S
C567 C570 1.499 . S
C568 H548 0.950 . S
C568 C567 1.414 . S
C568 C569 1.374 . S
C569 H549 0.950 . S
C569 C565 1.385 . S
C569 C568 1.374 . S
C570 C567 1.499 . S
C570 C571 1.373 1_554 S
C570 C572 1.389 . S
C571 H550 0.950 . S
C571 C570 1.373 1_556 S
C571 C587 1.377 1_455 S
C572 C570 1.389 . S
C572 C573 1.524 . S
C572 C586 1.377 1_455 S
C573 C572 1.524 . S
C573 C574 1.397 . S
C573 C578 1.363 . S
C574 H551 0.950 . S
C574 C573 1.397 . S
C574 C575 1.334 . S
C575 H552 0.950 . S
C575 C574 1.334 . S
C575 C576 1.287 . S
C576 C575 1.287 . S
C576 C577 1.524 . S
C576 H595 0.913 . S
C577 H553 0.950 . S
C577 C576 1.524 . S
C577 C578 1.415 . S
C578 H554 0.950 . S
C578 C573 1.363 . S
C578 C577 1.415 . S
C579 H555 0.951 . S
C579 C580 1.366 . S
C579 C581 1.388 . S
C580 C579 1.366 . S
C580 C584 1.385 . S
C581 H556 0.951 . S
C581 C579 1.388 . S
C581 C582 1.366 . S
C582 C581 1.366 . S
C582 C583 1.414 . S
C582 C585 1.499 . S
C583 H557 0.950 . S
C583 C582 1.414 . S
C583 C584 1.374 . S
C584 H558 0.950 . S
C584 C580 1.385 . S
C584 C583 1.374 . S
C585 C582 1.499 . S
C585 C586 1.373 1_556 S
C585 C587 1.389 . S
C586 H559 0.950 . S
C586 C572 1.377 1_655 S
C586 C585 1.373 1_554 S
C587 C571 1.377 1_655 S
C587 C585 1.389 . S
C587 C588 1.524 . S
C588 C587 1.524 . S
C588 C589 1.397 . S
C588 C593 1.363 . S
C589 H560 0.950 . S
C589 C588 1.397 . S
C589 C590 1.334 . S
C590 H561 0.950 . S
C590 C589 1.334 . S
C590 C591 1.287 . S
C591 C590 1.287 . S
C591 C592 1.524 . S
C591 H594 0.999 . S
C592 H562 0.950 . S
C592 C591 1.524 . S
C592 C593 1.415 . S
C593 H563 0.950 . S
C593 C588 1.363 . S
C593 C592 1.415 . S
H594 C591 0.999 . S
H595 C576 0.913 . S
H596 C614 0.951 . S
H597 C616 0.951 . S
H598 C618 0.950 . S
H599 C619 0.950 . S
H600 C621 0.950 . S
H601 C624 0.950 . S
H602 C625 0.950 . S
H603 C627 0.950 . S
H604 C628 0.950 . S
H605 C629 0.951 . S
H606 C631 0.951 . S
H607 C633 0.950 . S
H608 C634 0.950 . S
H609 C636 0.950 . S
H610 C639 0.950 . S
H611 C640 0.950 . S
H612 C642 0.950 . S
H613 C643 0.950 . S
C614 H596 0.951 . S
C614 C615 1.366 . S
C614 C616 1.388 . S
C615 C614 1.366 . S
C615 C619 1.385 . S
C616 H597 0.951 . S
C616 C614 1.388 . S
C616 C617 1.366 . S
C617 C616 1.366 . S
C617 C618 1.414 . S
C617 C620 1.499 . S
C618 H598 0.950 . S
C618 C617 1.414 . S
C618 C619 1.374 . S
C619 H599 0.950 . S
C619 C615 1.385 . S
C619 C618 1.374 . S
C620 C617 1.499 . S
C620 C621 1.373 . S
C620 C622 1.389 . S
C621 H600 0.950 . S
C621 C620 1.373 . S
C621 C637 1.377 1_545 S
C622 C620 1.389 . S
C622 C623 1.524 . S
C622 C636 1.377 1_545 S
C623 C622 1.524 . S
C623 C624 1.397 . S
C623 C628 1.363 . S
C624 H601 0.950 . S
C624 C623 1.397 . S
C624 C625 1.334 . S
C625 H602 0.950 . S
C625 C624 1.334 . S
C625 C626 1.287 . S
C626 C625 1.287 . S
C626 C627 1.524 . S
C626 H645 0.913 . S
C627 H603 0.950 . S
C627 C626 1.524 . S
C627 C628 1.415 . S
C628 H604 0.950 . S
C628 C623 1.363 . S
C628 C627 1.415 . S
C629 H605 0.951 . S
C629 C630 1.366 . S
C629 C631 1.388 . S
C630 C629 1.366 . S
C630 C634 1.385 . S
C631 H606 0.951 . S
C631 C629 1.388 . S
C631 C632 1.366 . S
C632 C631 1.366 . S
C632 C633 1.414 . S
C632 C635 1.499 . S
C633 H607 0.950 . S
C633 C632 1.414 . S
C633 C634 1.374 . S
C634 H608 0.950 . S
C634 C630 1.385 . S
C634 C633 1.374 . S
C635 C632 1.499 . S
C635 C636 1.373 . S
C635 C637 1.389 . S
C636 H609 0.950 . S
C636 C622 1.377 1_565 S
C636 C635 1.373 . S
C637 C621 1.377 1_565 S
C637 C635 1.389 . S
C637 C638 1.524 . S
C638 C637 1.524 . S
C638 C639 1.397 . S
C638 C643 1.363 . S
C639 H610 0.950 . S
C639 C638 1.397 . S
C639 C640 1.334 . S
C640 H611 0.950 . S
C640 C639 1.334 . S
C640 C641 1.287 . S
C641 C640 1.287 . S
C641 C642 1.524 . S
C641 H644 0.999 . S
C642 H612 0.950 . S
C642 C641 1.524 . S
C642 C643 1.415 . S
C643 H613 0.950 . S
C643 C638 1.363 . S
C643 C642 1.415 . S
H644 C641 0.999 . S
H645 C626 0.913 . S
H646 C664 0.951 . S
H647 C666 0.951 . S
H648 C668 0.950 1_554 S
H649 C669 0.950 . S
H650 C671 0.950 . S
H651 C674 0.950 . S
H652 C675 0.950 . S
H653 C677 0.950 . S
H654 C678 0.950 . S
H655 C679 0.951 . S
H656 C681 0.951 . S
H657 C683 0.950 1_556 S
H658 C684 0.950 . S
H659 C686 0.950 . S
H660 C689 0.950 . S
H661 C690 0.950 . S
H662 C692 0.950 . S
H663 C693 0.950 . S
C664 H646 0.951 . S
C664 C665 1.366 . S
C664 C666 1.388 . S
C665 C664 1.366 . S
C665 C669 1.385 . S
C666 H647 0.951 . S
C666 C664 1.388 . S
C666 C667 1.366 . S
C667 C666 1.366 . S
C667 C668 1.414 . S
C667 C670 1.499 . S
C668 H648 0.950 1_556 S
C668 C667 1.414 . S
C668 C669 1.374 . S
C669 H649 0.950 . S
C669 C665 1.385 . S
C669 C668 1.374 . S
C670 C667 1.499 . S
C670 C671 1.373 1_556 S
C670 C672 1.389 . S
C671 H650 0.950 . S
C671 C670 1.373 1_554 S
C671 C687 1.377 . S
C672 C670 1.389 . S
C672 C673 1.524 . S
C672 C686 1.377 . S
C673 C672 1.524 . S
C673 C674 1.397 . S
C673 C678 1.363 . S
C674 H651 0.950 . S
C674 C673 1.397 . S
C674 C675 1.334 . S
C675 H652 0.950 . S
C675 C674 1.334 . S
C675 C676 1.287 . S
C676 C675 1.287 . S
C676 C677 1.524 . S
C676 H695 0.913 . S
C677 H653 0.950 . S
C677 C676 1.524 . S
C677 C678 1.415 . S
C678 H654 0.950 . S
C678 C673 1.363 . S
C678 C677 1.415 . S
C679 H655 0.951 . S
C679 C680 1.366 . S
C679 C681 1.388 . S
C680 C679 1.366 . S
C680 C684 1.385 . S
C681 H656 0.951 . S
C681 C679 1.388 . S
C681 C682 1.366 . S
C682 C681 1.366 . S
C682 C683 1.414 . S
C682 C685 1.499 . S
C683 H657 0.950 1_554 S
C683 C682 1.414 . S
C683 C684 1.374 . S
C684 H658 0.950 . S
C684 C680 1.385 . S
C684 C683 1.374 . S
C685 C682 1.499 . S
C685 C686 1.373 1_554 S
C685 C687 1.389 . S
C686 H659 0.950 . S
C686 C672 1.377 . S
C686 C685 1.373 1_556 S
C687 C671 1.377 . S
C687 C685 1.389 . S
C687 C688 1.524 . S
C688 C687 1.524 . S
C688 C689 1.397 . S
C688 C693 1.363 . S
C689 H660 0.950 . S
C689 C688 1.397 . S
C689 C690 1.334 . S
C690 H661 0.950 . S
C690 C689 1.334 . S
C690 C691 1.287 . S
C691 C690 1.287 . S
C691 C692 1.524 . S
C691 H694 0.999 . S
C692 H662 0.950 . S
C692 C691 1.524 . S
C692 C693 1.415 . S
C693 H663 0.950 . S
C693 C688 1.363 . S
C693 C692 1.415 . S
H694 C691 0.999 . S
H695 C676 0.913 . S
H696 C714 0.951 . S
H697 C716 0.951 . S
H698 C718 0.950 . S
H699 C719 0.950 . S
H700 C721 0.950 . S
H701 C724 0.950 . S
H702 C725 0.950 . S
H703 C727 0.950 . S
H704 C728 0.950 . S
H705 C729 0.951 . S
H706 C731 0.951 . S
H707 C733 0.950 . S
H708 C734 0.950 . S
H709 C736 0.950 . S
H710 C739 0.950 . S
H711 C740 0.950 . S
H712 C742 0.950 . S
H713 C743 0.950 . S
C714 H696 0.951 . S
C714 C715 1.366 . S
C714 C716 1.388 . S
C715 C714 1.366 . S
C715 C719 1.385 . S
C716 H697 0.951 . S
C716 C714 1.388 . S
C716 C717 1.366 . S
C717 C716 1.366 . S
C717 C718 1.414 . S
C717 C720 1.499 . S
C718 H698 0.950 . S
C718 C717 1.414 . S
C718 C719 1.374 . S
C719 H699 0.950 . S
C719 C715 1.385 . S
C719 C718 1.374 . S
C720 C717 1.499 . S
C720 C721 1.373 . S
C720 C722 1.389 . S
C721 H700 0.950 . S
C721 C720 1.373 . S
C721 C737 1.377 . S
C722 C720 1.389 . S
C722 C723 1.524 . S
C722 C736 1.377 . S
C723 C722 1.524 . S
C723 C724 1.397 . S
C723 C728 1.363 . S
C724 H701 0.950 . S
C724 C723 1.397 . S
C724 C725 1.334 . S
C725 H702 0.950 . S
C725 C724 1.334 . S
C725 C726 1.287 . S
C726 C725 1.287 . S
C726 C727 1.524 . S
C726 H745 0.913 . S
C727 H703 0.950 . S
C727 C726 1.524 . S
C727 C728 1.415 . S
C728 H704 0.950 . S
C728 C723 1.363 . S
C728 C727 1.415 . S
C729 H705 0.951 . S
C729 C730 1.366 . S
C729 C731 1.388 . S
C730 C729 1.366 . S
C730 C734 1.385 . S
C731 H706 0.951 . S
C731 C729 1.388 . S
C731 C732 1.366 . S
C732 C731 1.366 . S
C732 C733 1.414 . S
C732 C735 1.499 . S
C733 H707 0.950 . S
C733 C732 1.414 . S
C733 C734 1.374 . S
C734 H708 0.950 . S
C734 C730 1.385 . S
C734 C733 1.374 . S
C735 C732 1.499 . S
C735 C736 1.373 . S
C735 C737 1.389 . S
C736 H709 0.950 . S
C736 C722 1.377 . S
C736 C735 1.373 . S
C737 C721 1.377 . S
C737 C735 1.389 . S
C737 C738 1.524 . S
C738 C737 1.524 . S
C738 C739 1.397 . S
C738 C743 1.363 . S
C739 H710 0.950 . S
C739 C738 1.397 . S
C739 C740 1.334 . S
C740 H711 0.950 . S
C740 C739 1.334 . S
C740 C741 1.287 . S
C741 C740 1.287 . S
C741 C742 1.524 . S
C741 H744 0.999 . S
C742 H712 0.950 . S
C742 C741 1.524 . S
C742 C743 1.415 . S
C743 H713 0.950 . S
C743 C738 1.363 . S
C743 C742 1.415 . S
H744 C741 0.999 . S
H745 C726 0.913 . S
H746 C764 0.951 . S
H747 C766 0.951 . S
H748 C768 0.950 . S
H749 C769 0.950 . S
H750 C771 0.950 . S
H751 C774 0.950 . S
H752 C775 0.950 . S
H753 C777 0.950 . S
H754 C778 0.950 . S
H755 C779 0.951 . S
H756 C781 0.951 . S
H757 C783 0.950 . S
H758 C784 0.950 . S
H759 C786 0.950 . S
H760 C789 0.950 . S
H761 C790 0.950 . S
H762 C792 0.950 . S
H763 C793 0.950 . S
C764 H746 0.951 . S
C764 C765 1.366 . S
C764 C766 1.388 . S
C765 C764 1.366 . S
C765 C769 1.385 . S
C766 H747 0.951 . S
C766 C764 1.388 . S
C766 C767 1.366 . S
C767 C766 1.366 . S
C767 C768 1.414 . S
C767 C770 1.499 . S
C768 H748 0.950 . S
C768 C767 1.414 . S
C768 C769 1.374 . S
C769 H749 0.950 . S
C769 C765 1.385 . S
C769 C768 1.374 . S
C770 C767 1.499 . S
C770 C771 1.373 . S
C770 C772 1.389 . S
C771 H750 0.950 . S
C771 C770 1.373 . S
C771 C787 1.377 . S
C772 C770 1.389 . S
C772 C773 1.524 . S
C772 C786 1.377 . S
C773 C772 1.524 . S
C773 C774 1.397 . S
C773 C778 1.363 . S
C774 H751 0.950 . S
C774 C773 1.397 . S
C774 C775 1.334 . S
C775 H752 0.950 . S
C775 C774 1.334 . S
C775 C776 1.287 . S
C776 C775 1.287 . S
C776 C777 1.524 . S
C776 H795 0.913 . S
C777 H753 0.950 . S
C777 C776 1.524 . S
C777 C778 1.415 . S
C778 H754 0.950 . S
C778 C773 1.363 . S
C778 C777 1.415 . S
C779 H755 0.951 . S
C779 C780 1.366 . S
C779 C781 1.388 . S
C780 C779 1.366 . S
C780 C784 1.385 . S
C781 H756 0.951 . S
C781 C779 1.388 . S
C781 C782 1.366 . S
C782 C781 1.366 . S
C782 C783 1.414 . S
C782 C785 1.499 . S
C783 H757 0.950 . S
C783 C782 1.414 . S
C783 C784 1.374 . S
C784 H758 0.950 . S
C784 C780 1.385 . S
C784 C783 1.374 . S
C785 C782 1.499 . S
C785 C786 1.373 . S
C785 C787 1.389 . S
C786 H759 0.950 . S
C786 C772 1.377 . S
C786 C785 1.373 . S
C787 C771 1.377 . S
C787 C785 1.389 . S
C787 C788 1.524 . S
C788 C787 1.524 . S
C788 C789 1.397 . S
C788 C793 1.363 . S
C789 H760 0.950 . S
C789 C788 1.397 . S
C789 C790 1.334 . S
C790 H761 0.950 . S
C790 C789 1.334 . S
C790 C791 1.287 . S
C791 C790 1.287 . S
C791 C792 1.524 . S
C791 H794 0.999 . S
C792 H762 0.950 . S
C792 C791 1.524 . S
C792 C793 1.415 . S
C793 H763 0.950 . S
C793 C788 1.363 . S
C793 C792 1.415 . S
H794 C791 0.999 . S
H795 C776 0.913 . S
H796 C814 0.951 . S
H797 C816 0.951 . S
H798 C818 0.950 . S
H799 C819 0.950 . S
H800 C821 0.950 . S
H801 C824 0.950 . S
H802 C825 0.950 . S
H803 C827 0.950 . S
H804 C828 0.950 . S
H805 C829 0.951 . S
H806 C831 0.951 . S
H807 C833 0.950 . S
H808 C834 0.950 . S
H809 C836 0.950 . S
H810 C839 0.950 . S
H811 C840 0.950 . S
H812 C842 0.950 . S
H813 C843 0.950 . S
C814 H796 0.951 . S
C814 C815 1.366 . S
C814 C816 1.388 . S
C815 C814 1.366 . S
C815 C819 1.385 . S
C816 H797 0.951 . S
C816 C814 1.388 . S
C816 C817 1.366 . S
C817 C816 1.366 . S
C817 C818 1.414 . S
C817 C820 1.499 . S
C818 H798 0.950 . S
C818 C817 1.414 . S
C818 C819 1.374 . S
C819 H799 0.950 . S
C819 C815 1.385 . S
C819 C818 1.374 . S
C820 C817 1.499 . S
C820 C821 1.373 . S
C820 C822 1.389 . S
C821 H800 0.950 . S
C821 C820 1.373 . S
C821 C837 1.377 . S
C822 C820 1.389 . S
C822 C823 1.524 . S
C822 C836 1.377 . S
C823 C822 1.524 . S
C823 C824 1.397 . S
C823 C828 1.363 . S
C824 H801 0.950 . S
C824 C823 1.397 . S
C824 C825 1.334 . S
C825 H802 0.950 . S
C825 C824 1.334 . S
C825 C826 1.287 . S
C826 C825 1.287 . S
C826 C827 1.524 . S
C826 H845 0.913 . S
C827 H803 0.950 . S
C827 C826 1.524 . S
C827 C828 1.415 . S
C828 H804 0.950 . S
C828 C823 1.363 . S
C828 C827 1.415 . S
C829 H805 0.951 . S
C829 C830 1.366 . S
C829 C831 1.388 . S
C830 C829 1.366 . S
C830 C834 1.385 . S
C831 H806 0.951 . S
C831 C829 1.388 . S
C831 C832 1.366 . S
C832 C831 1.366 . S
C832 C833 1.414 . S
C832 C835 1.499 . S
C833 H807 0.950 . S
C833 C832 1.414 . S
C833 C834 1.374 . S
C834 H808 0.950 . S
C834 C830 1.385 . S
C834 C833 1.374 . S
C835 C832 1.499 . S
C835 C836 1.373 . S
C835 C837 1.389 . S
C836 H809 0.950 . S
C836 C822 1.377 . S
C836 C835 1.373 . S
C837 C821 1.377 . S
C837 C835 1.389 . S
C837 C838 1.524 . S
C838 C837 1.524 . S
C838 C839 1.397 . S
C838 C843 1.363 . S
C839 H810 0.950 . S
C839 C838 1.397 . S
C839 C840 1.334 . S
C840 H811 0.950 . S
C840 C839 1.334 . S
C840 C841 1.287 . S
C841 C840 1.287 . S
C841 C842 1.524 . S
C841 H844 0.999 . S
C842 H812 0.950 . S
C842 C841 1.524 . S
C842 C843 1.415 . S
C843 H813 0.950 . S
C843 C838 1.363 . S
C843 C842 1.415 . S
H844 C841 0.999 . S
H845 C826 0.913 . S
H846 C864 0.951 . S
H847 C866 0.951 . S
H848 C868 0.950 . S
H849 C869 0.950 . S
H850 C871 0.950 . S
H851 C874 0.950 . S
H852 C875 0.950 . S
H853 C877 0.950 . S
H854 C878 0.950 . S
H855 C879 0.951 . S
H856 C881 0.951 . S
H857 C883 0.950 . S
H858 C884 0.950 . S
H859 C886 0.950 . S
H860 C889 0.950 . S
H861 C890 0.950 . S
H862 C892 0.950 . S
H863 C893 0.950 . S
C864 H846 0.951 . S
C864 C865 1.366 . S
C864 C866 1.388 . S
C865 C864 1.366 . S
C865 C869 1.385 . S
C866 H847 0.951 . S
C866 C864 1.388 . S
C866 C867 1.366 . S
C867 C866 1.366 . S
C867 C868 1.414 . S
C867 C870 1.499 . S
C868 H848 0.950 . S
C868 C867 1.414 . S
C868 C869 1.374 . S
C869 H849 0.950 . S
C869 C865 1.385 . S
C869 C868 1.374 . S
C870 C867 1.499 . S
C870 C871 1.373 . S
C870 C872 1.389 . S
C871 H850 0.950 . S
C871 C870 1.373 . S
C871 C887 1.377 . S
C872 C870 1.389 . S
C872 C873 1.524 . S
C872 C886 1.377 . S
C873 C872 1.524 . S
C873 C874 1.397 . S
C873 C878 1.363 . S
C874 H851 0.950 . S
C874 C873 1.397 . S
C874 C875 1.334 . S
C875 H852 0.950 . S
C875 C874 1.334 . S
C875 C876 1.287 . S
C876 C875 1.287 . S
C876 C877 1.524 . S
C876 H895 0.913 . S
C877 H853 0.950 . S
C877 C876 1.524 . S
C877 C878 1.415 . S
C878 H854 0.950 . S
C878 C873 1.363 . S
C878 C877 1.415 . S
C879 H855 0.951 . S
C879 C880 1.366 . S
C879 C881 1.388 . S
C880 C879 1.366 . S
C880 C884 1.385 . S
C881 H856 0.951 . S
C881 C879 1.388 . S
C881 C882 1.366 . S
C882 C881 1.366 . S
C882 C883 1.414 . S
C882 C885 1.499 . S
C883 H857 0.950 . S
C883 C882 1.414 . S
C883 C884 1.374 . S
C884 H858 0.950 . S
C884 C880 1.385 . S
C884 C883 1.374 . S
C885 C882 1.499 . S
C885 C886 1.373 . S
C885 C887 1.389 . S
C886 H859 0.950 . S
C886 C872 1.377 . S
C886 C885 1.373 . S
C887 C871 1.377 . S
C887 C885 1.389 . S
C887 C888 1.524 . S
C888 C887 1.524 . S
C888 C889 1.397 . S
C888 C893 1.363 . S
C889 H860 0.950 . S
C889 C888 1.397 . S
C889 C890 1.334 . S
C890 H861 0.950 . S
C890 C889 1.334 . S
C890 C891 1.287 . S
C891 C890 1.287 . S
C891 C892 1.524 . S
C891 H894 0.999 . S
C892 H862 0.950 . S
C892 C891 1.524 . S
C892 C893 1.415 . S
C893 H863 0.950 . S
C893 C888 1.363 . S
C893 C892 1.415 . S
H894 C891 0.999 . S
H895 C876 0.913 . S
H896 C914 0.951 . S
H897 C916 0.951 . S
H898 C918 0.950 . S
H899 C919 0.950 . S
H900 C921 0.950 . S
H901 C924 0.950 . S
H902 C925 0.950 . S
H903 C927 0.950 . S
H904 C928 0.950 . S
H905 C929 0.951 . S
H906 C931 0.951 . S
H907 C933 0.950 . S
H908 C934 0.950 . S
H909 C936 0.950 . S
H910 C939 0.950 . S
H911 C940 0.950 . S
H912 C942 0.950 . S
H913 C943 0.950 . S
C914 H896 0.951 . S
C914 C915 1.366 . S
C914 C916 1.388 . S
C915 C914 1.366 . S
C915 C919 1.385 . S
C916 H897 0.951 . S
C916 C914 1.388 . S
C916 C917 1.366 . S
C917 C916 1.366 . S
C917 C918 1.414 . S
C917 C920 1.499 . S
C918 H898 0.950 . S
C918 C917 1.414 . S
C918 C919 1.374 . S
C919 H899 0.950 . S
C919 C915 1.385 . S
C919 C918 1.374 . S
C920 C917 1.499 . S
C920 C921 1.373 . S
C920 C922 1.389 . S
C921 H900 0.950 . S
C921 C920 1.373 . S
C921 C937 1.377 . S
C922 C920 1.389 . S
C922 C923 1.524 . S
C922 C936 1.377 . S
C923 C922 1.524 . S
C923 C924 1.397 . S
C923 C928 1.363 . S
C924 H901 0.950 . S
C924 C923 1.397 . S
C924 C925 1.334 . S
C925 H902 0.950 . S
C925 C924 1.334 . S
C925 C926 1.287 . S
C926 C925 1.287 . S
C926 C927 1.524 . S
C926 H945 0.913 . S
C927 H903 0.950 . S
C927 C926 1.524 . S
C927 C928 1.415 . S
C928 H904 0.950 . S
C928 C923 1.363 . S
C928 C927 1.415 . S
C929 H905 0.951 . S
C929 C930 1.366 . S
C929 C931 1.388 . S
C930 C929 1.366 . S
C930 C934 1.385 . S
C931 H906 0.951 . S
C931 C929 1.388 . S
C931 C932 1.366 . S
C932 C931 1.366 . S
C932 C933 1.414 . S
C932 C935 1.499 . S
C933 H907 0.950 . S
C933 C932 1.414 . S
C933 C934 1.374 . S
C934 H908 0.950 . S
C934 C930 1.385 . S
C934 C933 1.374 . S
C935 C932 1.499 . S
C935 C936 1.373 . S
C935 C937 1.389 . S
C936 H909 0.950 . S
C936 C922 1.377 . S
C936 C935 1.373 . S
C937 C921 1.377 . S
C937 C935 1.389 . S
C937 C938 1.524 . S
C938 C937 1.524 . S
C938 C939 1.397 . S
C938 C943 1.363 . S
C939 H910 0.950 . S
C939 C938 1.397 . S
C939 C940 1.334 . S
C940 H911 0.950 . S
C940 C939 1.334 . S
C940 C941 1.287 . S
C941 C940 1.287 . S
C941 C942 1.524 . S
C941 H944 0.999 . S
C942 H912 0.950 . S
C942 C941 1.524 . S
C942 C943 1.415 . S
C943 H913 0.950 . S
C943 C938 1.363 . S
C943 C942 1.415 . S
H944 C941 0.999 . S
H945 C926 0.913 . S
H946 C964 0.951 . S
H947 C966 0.951 . S
H948 C968 0.950 . S
H949 C969 0.950 . S
H950 C971 0.950 . S
H951 C974 0.950 . S
H952 C975 0.950 . S
H953 C977 0.950 . S
H954 C978 0.950 . S
H955 C979 0.951 . S
H956 C981 0.951 . S
H957 C983 0.950 . S
H958 C984 0.950 . S
H959 C986 0.950 . S
H960 C989 0.950 . S
H961 C990 0.950 . S
H962 C992 0.950 . S
H963 C993 0.950 . S
C964 H946 0.951 . S
C964 C965 1.366 . S
C964 C966 1.388 . S
C965 C964 1.366 . S
C965 C969 1.385 . S
C966 H947 0.951 . S
C966 C964 1.388 . S
C966 C967 1.366 . S
C967 C966 1.366 . S
C967 C968 1.414 . S
C967 C970 1.499 . S
C968 H948 0.950 . S
C968 C967 1.414 . S
C968 C969 1.374 . S
C969 H949 0.950 . S
C969 C965 1.385 . S
C969 C968 1.374 . S
C970 C967 1.499 . S
C970 C971 1.373 . S
C970 C972 1.389 . S
C971 H950 0.950 . S
C971 C970 1.373 . S
C971 C987 1.377 . S
C972 C970 1.389 . S
C972 C973 1.524 . S
C972 C986 1.377 . S
C973 C972 1.524 . S
C973 C974 1.397 . S
C973 C978 1.363 . S
C974 H951 0.950 . S
C974 C973 1.397 . S
C974 C975 1.334 . S
C975 H952 0.950 . S
C975 C974 1.334 . S
C975 C976 1.287 . S
C976 C975 1.287 . S
C976 C977 1.524 . S
C976 H995 0.913 . S
C977 H953 0.950 . S
C977 C976 1.524 . S
C977 C978 1.415 . S
C978 H954 0.950 . S
C978 C973 1.363 . S
C978 C977 1.415 . S
C979 H955 0.951 . S
C979 C980 1.366 . S
C979 C981 1.388 . S
C980 C979 1.366 . S
C980 C984 1.385 . S
C981 H956 0.951 . S
C981 C979 1.388 . S
C981 C982 1.366 . S
C982 C981 1.366 . S
C982 C983 1.414 . S
C982 C985 1.499 . S
C983 H957 0.950 . S
C983 C982 1.414 . S
C983 C984 1.374 . S
C984 H958 0.950 . S
C984 C980 1.385 . S
C984 C983 1.374 . S
C985 C982 1.499 . S
C985 C986 1.373 . S
C985 C987 1.389 . S
C986 H959 0.950 . S
C986 C972 1.377 . S
C986 C985 1.373 . S
C987 C971 1.377 . S
C987 C985 1.389 . S
C987 C988 1.524 . S
C988 C987 1.524 . S
C988 C989 1.397 . S
C988 C993 1.363 . S
C989 H960 0.950 . S
C989 C988 1.397 . S
C989 C990 1.334 . S
C990 H961 0.950 . S
C990 C989 1.334 . S
C990 C991 1.287 . S
C991 C990 1.287 . S
C991 C992 1.524 . S
C991 H994 0.999 . S
C992 H962 0.950 . S
C992 C991 1.524 . S
C992 C993 1.415 . S
C993 H963 0.950 . S
C993 C988 1.363 . S
C993 C992 1.415 . S
H994 C991 0.999 . S
H995 C976 0.913 . S
H996 C1014 0.951 . S
H997 C1016 0.951 . S
H998 C1018 0.950 . S
H999 C1019 0.950 . S
H1000 C1021 0.950 . S
H1001 C1024 0.950 . S
H1002 C1025 0.950 . S
H1003 C1027 0.950 . S
H1004 C1028 0.950 . S
H1005 C1029 0.951 . S
H1006 C1031 0.951 . S
H1007 C1033 0.950 . S
H1008 C1034 0.950 . S
H1009 C1036 0.950 . S
H1010 C1039 0.950 . S
H1011 C1040 0.950 . S
H1012 C1042 0.950 . S
H1013 C1043 0.950 . S
C1014 H996 0.951 . S
C1014 C1015 1.366 . S
C1014 C1016 1.388 . S
C1015 C1014 1.366 . S
C1015 C1019 1.385 . S
C1016 H997 0.951 . S
C1016 C1014 1.388 . S
C1016 C1017 1.366 . S
C1017 C1016 1.366 . S
C1017 C1018 1.414 . S
C1017 C1020 1.499 . S
C1018 H998 0.950 . S
C1018 C1017 1.414 . S
C1018 C1019 1.374 . S
C1019 H999 0.950 . S
C1019 C1015 1.385 . S
C1019 C1018 1.374 . S
C1020 C1017 1.499 . S
C1020 C1021 1.373 . S
C1020 C1022 1.389 . S
C1021 H1000 0.950 . S
C1021 C1020 1.373 . S
C1021 C1037 1.377 . S
C1022 C1020 1.389 . S
C1022 C1023 1.524 . S
C1022 C1036 1.377 . S
C1023 C1022 1.524 . S
C1023 C1024 1.397 . S
C1023 C1028 1.363 . S
C1024 H1001 0.950 . S
C1024 C1023 1.397 . S
C1024 C1025 1.334 . S
C1025 H1002 0.950 . S
C1025 C1024 1.334 . S
C1025 C1026 1.287 . S
C1026 C1025 1.287 . S
C1026 C1027 1.524 . S
C1026 H1045 0.913 . S
C1027 H1003 0.950 . S
C1027 C1026 1.524 . S
C1027 C1028 1.415 . S
C1028 H1004 0.950 . S
C1028 C1023 1.363 . S
C1028 C1027 1.415 . S
C1029 H1005 0.951 . S
C1029 C1030 1.366 . S
C1029 C1031 1.388 1_554 S
C1030 C1029 1.366 . S
C1030 C1034 1.385 . S
C1031 H1006 0.951 . S
C1031 C1029 1.388 1_556 S
C1031 C1032 1.366 . S
C1032 C1031 1.366 . S
C1032 C1033 1.414 . S
C1032 C1035 1.499 . S
C1033 H1007 0.950 . S
C1033 C1032 1.414 . S
C1033 C1034 1.374 1_556 S
C1034 H1008 0.950 . S
C1034 C1030 1.385 . S
C1034 C1033 1.374 1_554 S
C1035 C1032 1.499 . S
C1035 C1036 1.373 . S
C1035 C1037 1.389 . S
C1036 H1009 0.950 . S
C1036 C1022 1.377 . S
C1036 C1035 1.373 . S
C1037 C1021 1.377 . S
C1037 C1035 1.389 . S
C1037 C1038 1.524 . S
C1038 C1037 1.524 . S
C1038 C1039 1.397 . S
C1038 C1043 1.363 . S
C1039 H1010 0.950 . S
C1039 C1038 1.397 . S
C1039 C1040 1.334 . S
C1040 H1011 0.950 . S
C1040 C1039 1.334 . S
C1040 C1041 1.287 . S
C1041 C1040 1.287 . S
C1041 C1042 1.524 . S
C1041 H1044 0.999 . S
C1042 H1012 0.950 . S
C1042 C1041 1.524 . S
C1042 C1043 1.415 . S
C1043 H1013 0.950 . S
C1043 C1038 1.363 . S
C1043 C1042 1.415 . S
H1044 C1041 0.999 . S
H1045 C1026 0.913 . S
H1046 C1064 0.951 . S
H1047 C1066 0.951 . S
H1048 C1068 0.950 . S
H1049 C1069 0.950 . S
H1050 C1071 0.950 . S
H1051 C1074 0.950 . S
H1052 C1075 0.950 . S
H1053 C1077 0.950 . S
H1054 C1078 0.950 . S
H1055 C1079 0.951 . S
H1056 C1081 0.951 . S
H1057 C1083 0.950 . S
H1058 C1084 0.950 . S
H1059 C1086 0.950 . S
H1060 C1089 0.950 . S
H1061 C1090 0.950 . S
H1062 C1092 0.950 . S
H1063 C1093 0.950 . S
C1064 H1046 0.951 . S
C1064 C1065 1.366 . S
C1064 C1066 1.388 . S
C1065 C1064 1.366 . S
C1065 C1069 1.385 . S
C1066 H1047 0.951 . S
C1066 C1064 1.388 . S
C1066 C1067 1.366 . S
C1067 C1066 1.366 . S
C1067 C1068 1.414 . S
C1067 C1070 1.499 . S
C1068 H1048 0.950 . S
C1068 C1067 1.414 . S
C1068 C1069 1.374 . S
C1069 H1049 0.950 . S
C1069 C1065 1.385 . S
C1069 C1068 1.374 . S
C1070 C1067 1.499 . S
C1070 C1071 1.373 . S
C1070 C1072 1.389 . S
C1071 H1050 0.950 . S
C1071 C1070 1.373 . S
C1071 C1087 1.377 . S
C1072 C1070 1.389 . S
C1072 C1073 1.524 . S
C1072 C1086 1.377 . S
C1073 C1072 1.524 . S
C1073 C1074 1.397 . S
C1073 C1078 1.363 . S
C1074 H1051 0.950 . S
C1074 C1073 1.397 . S
C1074 C1075 1.334 . S
C1075 H1052 0.950 . S
C1075 C1074 1.334 . S
C1075 C1076 1.287 . S
C1076 C1075 1.287 . S
C1076 C1077 1.524 . S
C1076 H1095 0.913 . S
C1077 H1053 0.950 . S
C1077 C1076 1.524 . S
C1077 C1078 1.415 . S
C1078 H1054 0.950 . S
C1078 C1073 1.363 . S
C1078 C1077 1.415 . S
C1079 H1055 0.951 . S
C1079 C1080 1.366 . S
C1079 C1081 1.388 . S
C1080 C1079 1.366 . S
C1080 C1084 1.385 . S
C1081 H1056 0.951 . S
C1081 C1079 1.388 . S
C1081 C1082 1.366 . S
C1082 C1081 1.366 . S
C1082 C1083 1.414 . S
C1082 C1085 1.499 . S
C1083 H1057 0.950 . S
C1083 C1082 1.414 . S
C1083 C1084 1.374 . S
C1084 H1058 0.950 . S
C1084 C1080 1.385 . S
C1084 C1083 1.374 . S
C1085 C1082 1.499 . S
C1085 C1086 1.373 . S
C1085 C1087 1.389 . S
C1086 H1059 0.950 . S
C1086 C1072 1.377 . S
C1086 C1085 1.373 . S
C1087 C1071 1.377 . S
C1087 C1085 1.389 . S
C1087 C1088 1.524 . S
C1088 C1087 1.524 . S
C1088 C1089 1.397 . S
C1088 C1093 1.363 . S
C1089 H1060 0.950 . S
C1089 C1088 1.397 . S
C1089 C1090 1.334 . S
C1090 H1061 0.950 . S
C1090 C1089 1.334 . S
C1090 C1091 1.287 . S
C1091 C1090 1.287 . S
C1091 C1092 1.524 . S
C1091 H1094 0.999 . S
C1092 H1062 0.950 . S
C1092 C1091 1.524 . S
C1092 C1093 1.415 . S
C1093 H1063 0.950 . S
C1093 C1088 1.363 . S
C1093 C1092 1.415 . S
H1094 C1091 0.999 . S
H1095 C1076 0.913 . S
H1096 C1114 0.951 . S
H1097 C1116 0.951 . S
H1098 C1118 0.950 . S
H1099 C1119 0.950 . S
H1100 C1121 0.950 . S
H1101 C1124 0.950 . S
H1102 C1125 0.950 . S
H1103 C1127 0.950 . S
H1104 C1128 0.950 . S
H1105 C1129 0.951 . S
H1106 C1131 0.951 . S
H1107 C1133 0.950 . S
H1108 C1134 0.950 . S
H1109 C1136 0.950 . S
H1110 C1139 0.950 . S
H1111 C1140 0.950 . S
H1112 C1142 0.950 . S
H1113 C1143 0.950 . S
C1114 H1096 0.951 . S
C1114 C1115 1.366 . S
C1114 C1116 1.388 . S
C1115 C1114 1.366 . S
C1115 C1119 1.385 . S
C1116 H1097 0.951 . S
C1116 C1114 1.388 . S
C1116 C1117 1.366 . S
C1117 C1116 1.366 . S
C1117 C1118 1.414 . S
C1117 C1120 1.499 . S
C1118 H1098 0.950 . S
C1118 C1117 1.414 . S
C1118 C1119 1.374 . S
C1119 H1099 0.950 . S
C1119 C1115 1.385 . S
C1119 C1118 1.374 . S
C1120 C1117 1.499 . S
C1120 C1121 1.373 . S
C1120 C1122 1.389 . S
C1121 H1100 0.950 . S
C1121 C1120 1.373 . S
C1121 C1137 1.377 . S
C1122 C1120 1.389 . S
C1122 C1123 1.524 . S
C1122 C1136 1.377 . S
C1123 C1122 1.524 . S
C1123 C1124 1.397 . S
C1123 C1128 1.363 . S
C1124 H1101 0.950 . S
C1124 C1123 1.397 . S
C1124 C1125 1.334 . S
C1125 H1102 0.950 . S
C1125 C1124 1.334 . S
C1125 C1126 1.287 . S
C1126 C1125 1.287 . S
C1126 C1127 1.524 . S
C1126 H1145 0.913 . S
C1127 H1103 0.950 . S
C1127 C1126 1.524 . S
C1127 C1128 1.415 . S
C1128 H1104 0.950 . S
C1128 C1123 1.363 . S
C1128 C1127 1.415 . S
C1129 H1105 0.951 . S
C1129 C1130 1.366 . S
C1129 C1131 1.388 1_554 S
C1130 C1129 1.366 . S
C1130 C1134 1.385 . S
C1131 H1106 0.951 . S
C1131 C1129 1.388 1_556 S
C1131 C1132 1.366 . S
C1132 C1131 1.366 . S
C1132 C1133 1.414 . S
C1132 C1135 1.499 . S
C1133 H1107 0.950 . S
C1133 C1132 1.414 . S
C1133 C1134 1.374 1_556 S
C1134 H1108 0.950 . S
C1134 C1130 1.385 . S
C1134 C1133 1.374 1_554 S
C1135 C1132 1.499 . S
C1135 C1136 1.373 . S
C1135 C1137 1.389 . S
C1136 H1109 0.950 . S
C1136 C1122 1.377 . S
C1136 C1135 1.373 . S
C1137 C1121 1.377 . S
C1137 C1135 1.389 . S
C1137 C1138 1.524 . S
C1138 C1137 1.524 . S
C1138 C1139 1.397 . S
C1138 C1143 1.363 . S
C1139 H1110 0.950 . S
C1139 C1138 1.397 . S
C1139 C1140 1.334 . S
C1140 H1111 0.950 . S
C1140 C1139 1.334 . S
C1140 C1141 1.287 . S
C1141 C1140 1.287 . S
C1141 C1142 1.524 . S
C1141 H1144 0.999 . S
C1142 H1112 0.950 . S
C1142 C1141 1.524 . S
C1142 C1143 1.415 . S
C1143 H1113 0.950 . S
C1143 C1138 1.363 . S
C1143 C1142 1.415 . S
H1144 C1141 0.999 . S
H1145 C1126 0.913 . S
H1146 C1164 0.951 . S
H1147 C1166 0.951 . S
H1148 C1168 0.950 . S
H1149 C1169 0.950 . S
H1150 C1171 0.950 . S
H1151 C1174 0.950 . S
H1152 C1175 0.950 . S
H1153 C1177 0.950 . S
H1154 C1178 0.950 . S
H1155 C1179 0.951 . S
H1156 C1181 0.951 . S
H1157 C1183 0.950 . S
H1158 C1184 0.950 . S
H1159 C1186 0.950 . S
H1160 C1189 0.950 . S
H1161 C1190 0.950 . S
H1162 C1192 0.950 . S
H1163 C1193 0.950 . S
C1164 H1146 0.951 . S
C1164 C1165 1.366 . S
C1164 C1166 1.388 . S
C1165 C1164 1.366 . S
C1165 C1169 1.385 . S
C1166 H1147 0.951 . S
C1166 C1164 1.388 . S
C1166 C1167 1.366 . S
C1167 C1166 1.366 . S
C1167 C1168 1.414 . S
C1167 C1170 1.499 . S
C1168 H1148 0.950 . S
C1168 C1167 1.414 . S
C1168 C1169 1.374 . S
C1169 H1149 0.950 . S
C1169 C1165 1.385 . S
C1169 C1168 1.374 . S
C1170 C1167 1.499 . S
C1170 C1171 1.373 . S
C1170 C1172 1.389 . S
C1171 H1150 0.950 . S
C1171 C1170 1.373 . S
C1171 C1187 1.377 . S
C1172 C1170 1.389 . S
C1172 C1173 1.524 . S
C1172 C1186 1.377 . S
C1173 C1172 1.524 . S
C1173 C1174 1.397 . S
C1173 C1178 1.363 . S
C1174 H1151 0.950 . S
C1174 C1173 1.397 . S
C1174 C1175 1.334 . S
C1175 H1152 0.950 . S
C1175 C1174 1.334 . S
C1175 C1176 1.287 . S
C1176 C1175 1.287 . S
C1176 C1177 1.524 . S
C1176 H1195 0.913 . S
C1177 H1153 0.950 . S
C1177 C1176 1.524 . S
C1177 C1178 1.415 . S
C1178 H1154 0.950 . S
C1178 C1173 1.363 . S
C1178 C1177 1.415 . S
C1179 H1155 0.951 . S
C1179 C1180 1.366 . S
C1179 C1181 1.388 . S
C1180 C1179 1.366 . S
C1180 C1184 1.385 . S
C1181 H1156 0.951 . S
C1181 C1179 1.388 . S
C1181 C1182 1.366 . S
C1182 C1181 1.366 . S
C1182 C1183 1.414 . S
C1182 C1185 1.499 . S
C1183 H1157 0.950 . S
C1183 C1182 1.414 . S
C1183 C1184 1.374 . S
C1184 H1158 0.950 . S
C1184 C1180 1.385 . S
C1184 C1183 1.374 . S
C1185 C1182 1.499 . S
C1185 C1186 1.373 . S
C1185 C1187 1.389 . S
C1186 H1159 0.950 . S
C1186 C1172 1.377 . S
C1186 C1185 1.373 . S
C1187 C1171 1.377 . S
C1187 C1185 1.389 . S
C1187 C1188 1.524 . S
C1188 C1187 1.524 . S
C1188 C1189 1.397 . S
C1188 C1193 1.363 . S
C1189 H1160 0.950 . S
C1189 C1188 1.397 . S
C1189 C1190 1.334 . S
C1190 H1161 0.950 . S
C1190 C1189 1.334 . S
C1190 C1191 1.287 . S
C1191 C1190 1.287 . S
C1191 C1192 1.524 . S
C1191 H1194 0.999 . S
C1192 H1162 0.950 . S
C1192 C1191 1.524 . S
C1192 C1193 1.415 . S
C1193 H1163 0.950 . S
C1193 C1188 1.363 . S
C1193 C1192 1.415 . S
H1194 C1191 0.999 . S
H1195 C1176 0.913 . S
H1196 C1214 0.951 . S
H1197 C1216 0.951 . S
H1198 C1218 0.950 . S
H1199 C1219 0.950 . S
H1200 C1221 0.950 . S
H1201 C1224 0.950 . S
H1202 C1225 0.950 . S
H1203 C1227 0.950 . S
H1204 C1228 0.950 . S
H1205 C1229 0.951 . S
H1206 C1231 0.951 . S
H1207 C1233 0.950 . S
H1208 C1234 0.950 . S
H1209 C1236 0.950 . S
H1210 C1239 0.950 . S
H1211 C1240 0.950 . S
H1212 C1242 0.950 . S
H1213 C1243 0.950 . S
C1214 H1196 0.951 . S
C1214 C1215 1.366 . S
C1214 C1216 1.388 . S
C1215 C1214 1.366 . S
C1215 C1219 1.385 . S
C1216 H1197 0.951 . S
C1216 C1214 1.388 . S
C1216 C1217 1.366 . S
C1217 C1216 1.366 . S
C1217 C1218 1.414 . S
C1217 C1220 1.499 . S
C1218 H1198 0.950 . S
C1218 C1217 1.414 . S
C1218 C1219 1.374 . S
C1219 H1199 0.950 . S
C1219 C1215 1.385 . S
C1219 C1218 1.374 . S
C1220 C1217 1.499 . S
C1220 C1221 1.373 . S
C1220 C1222 1.389 . S
C1221 H1200 0.950 . S
C1221 C1220 1.373 . S
C1221 C1237 1.377 . S
C1222 C1220 1.389 . S
C1222 C1223 1.524 . S
C1222 C1236 1.377 . S
C1223 C1222 1.524 . S
C1223 C1224 1.397 . S
C1223 C1228 1.363 . S
C1224 H1201 0.950 . S
C1224 C1223 1.397 . S
C1224 C1225 1.334 . S
C1225 H1202 0.950 . S
C1225 C1224 1.334 . S
C1225 C1226 1.287 . S
C1226 C1225 1.287 . S
C1226 C1227 1.524 . S
C1226 H1245 0.913 . S
C1227 H1203 0.950 . S
C1227 C1226 1.524 . S
C1227 C1228 1.415 . S
C1228 H1204 0.950 . S
C1228 C1223 1.363 . S
C1228 C1227 1.415 . S
C1229 H1205 0.951 . S
C1229 C1230 1.366 . S
C1229 C1231 1.388 1_554 S
C1230 C1229 1.366 . S
C1230 C1234 1.385 . S
C1231 H1206 0.951 . S
C1231 C1229 1.388 1_556 S
C1231 C1232 1.366 . S
C1232 C1231 1.366 . S
C1232 C1233 1.414 . S
C1232 C1235 1.499 . S
C1233 H1207 0.950 . S
C1233 C1232 1.414 . S
C1233 C1234 1.374 1_556 S
C1234 H1208 0.950 . S
C1234 C1230 1.385 . S
C1234 C1233 1.374 1_554 S
C1235 C1232 1.499 . S
C1235 C1236 1.373 . S
C1235 C1237 1.389 . S
C1236 H1209 0.950 . S
C1236 C1222 1.377 . S
C1236 C1235 1.373 . S
C1237 C1221 1.377 . S
C1237 C1235 1.389 . S
C1237 C1238 1.524 . S
C1238 C1237 1.524 . S
C1238 C1239 1.397 . S
C1238 C1243 1.363 . S
C1239 H1210 0.950 . S
C1239 C1238 1.397 . S
C1239 C1240 1.334 . S
C1240 H1211 0.950 . S
C1240 C1239 1.334 . S
C1240 C1241 1.287 . S
C1241 C1240 1.287 . S
C1241 C1242 1.524 . S
C1241 H1244 0.999 . S
C1242 H1212 0.950 . S
C1242 C1241 1.524 . S
C1242 C1243 1.415 . S
C1243 H1213 0.950 . S
C1243 C1238 1.363 . S
C1243 C1242 1.415 . S
H1244 C1241 0.999 . S
H1245 C1226 0.913 . S
H1246 C1264 0.951 . S
H1247 C1266 0.951 . S
H1248 C1268 0.950 . S
H1249 C1269 0.950 . S
H1250 C1271 0.950 . S
H1251 C1274 0.950 . S
H1252 C1275 0.950 . S
H1253 C1277 0.950 . S
H1254 C1278 0.950 . S
H1255 C1279 0.951 . S
H1256 C1281 0.951 . S
H1257 C1283 0.950 . S
H1258 C1284 0.950 . S
H1259 C1286 0.950 . S
H1260 C1289 0.950 . S
H1261 C1290 0.950 . S
H1262 C1292 0.950 . S
H1263 C1293 0.950 . S
C1264 H1246 0.951 . S
C1264 C1265 1.366 . S
C1264 C1266 1.388 . S
C1265 C1264 1.366 . S
C1265 C1269 1.385 . S
C1266 H1247 0.951 . S
C1266 C1264 1.388 . S
C1266 C1267 1.366 . S
C1267 C1266 1.366 . S
C1267 C1268 1.414 . S
C1267 C1270 1.499 . S
C1268 H1248 0.950 . S
C1268 C1267 1.414 . S
C1268 C1269 1.374 . S
C1269 H1249 0.950 . S
C1269 C1265 1.385 . S
C1269 C1268 1.374 . S
C1270 C1267 1.499 . S
C1270 C1271 1.373 . S
C1270 C1272 1.389 . S
C1271 H1250 0.950 . S
C1271 C1270 1.373 . S
C1271 C1287 1.377 . S
C1272 C1270 1.389 . S
C1272 C1273 1.524 . S
C1272 C1286 1.377 . S
C1273 C1272 1.524 . S
C1273 C1274 1.397 . S
C1273 C1278 1.363 . S
C1274 H1251 0.950 . S
C1274 C1273 1.397 . S
C1274 C1275 1.334 . S
C1275 H1252 0.950 . S
C1275 C1274 1.334 . S
C1275 C1276 1.287 . S
C1276 C1275 1.287 . S
C1276 C1277 1.524 . S
C1276 H1295 0.913 . S
C1277 H1253 0.950 . S
C1277 C1276 1.524 . S
C1277 C1278 1.415 . S
C1278 H1254 0.950 . S
C1278 C1273 1.363 . S
C1278 C1277 1.415 . S
C1279 H1255 0.951 . S
C1279 C1280 1.366 . S
C1279 C1281 1.388 . S
C1280 C1279 1.366 . S
C1280 C1284 1.385 . S
C1281 H1256 0.951 . S
C1281 C1279 1.388 . S
C1281 C1282 1.366 . S
C1282 C1281 1.366 . S
C1282 C1283 1.414 . S
C1282 C1285 1.499 . S
C1283 H1257 0.950 . S
C1283 C1282 1.414 . S
C1283 C1284 1.374 . S
C1284 H1258 0.950 . S
C1284 C1280 1.385 . S
C1284 C1283 1.374 . S
C1285 C1282 1.499 . S
C1285 C1286 1.373 . S
C1285 C1287 1.389 . S
C1286 H1259 0.950 . S
C1286 C1272 1.377 . S
C1286 C1285 1.373 . S
C1287 C1271 1.377 . S
C1287 C1285 1.389 . S
C1287 C1288 1.524 . S
C1288 C1287 1.524 . S
C1288 C1289 1.397 . S
C1288 C1293 1.363 . S
C1289 H1260 0.950 . S
C1289 C1288 1.397 . S
C1289 C1290 1.334 . S
C1290 H1261 0.950 . S
C1290 C1289 1.334 . S
C1290 C1291 1.287 . S
C1291 C1290 1.287 . S
C1291 C1292 1.524 . S
C1291 H1294 0.999 . S
C1292 H1262 0.950 . S
C1292 C1291 1.524 . S
C1292 C1293 1.415 . S
C1293 H1263 0.950 . S
C1293 C1288 1.363 . S
C1293 C1292 1.415 . S
H1294 C1291 0.999 . S
H1295 C1276 0.913 . S
H1296 C1314 0.951 . S
H1297 C1316 0.951 . S
H1298 C1318 0.950 . S
H1299 C1319 0.950 . S
H1300 C1321 0.950 . S
H1301 C1324 0.950 . S
H1302 C1325 0.950 . S
H1303 C1327 0.950 . S
H1304 C1328 0.950 . S
H1305 C1329 0.951 . S
H1306 C1331 0.951 . S
H1307 C1333 0.950 . S
H1308 C1334 0.950 . S
H1309 C1336 0.950 . S
H1310 C1339 0.950 . S
H1311 C1340 0.950 . S
H1312 C1342 0.950 . S
H1313 C1343 0.950 . S
C1314 H1296 0.951 . S
C1314 C1315 1.366 . S
C1314 C1316 1.388 . S
C1315 C1314 1.366 . S
C1315 C1319 1.385 . S
C1316 H1297 0.951 . S
C1316 C1314 1.388 . S
C1316 C1317 1.366 . S
C1317 C1316 1.366 . S
C1317 C1318 1.414 . S
C1317 C1320 1.499 . S
C1318 H1298 0.950 . S
C1318 C1317 1.414 . S
C1318 C1319 1.374 . S
C1319 H1299 0.950 . S
C1319 C1315 1.385 . S
C1319 C1318 1.374 . S
C1320 C1317 1.499 . S
C1320 C1321 1.373 . S
C1320 C1322 1.389 . S
C1321 H1300 0.950 . S
C1321 C1320 1.373 . S
C1321 C1337 1.377 . S
C1322 C1320 1.389 . S
C1322 C1323 1.524 . S
C1322 C1336 1.377 . S
C1323 C1322 1.524 . S
C1323 C1324 1.397 . S
C1323 C1328 1.363 . S
C1324 H1301 0.950 . S
C1324 C1323 1.397 . S
C1324 C1325 1.334 . S
C1325 H1302 0.950 . S
C1325 C1324 1.334 . S
C1325 C1326 1.287 . S
C1326 C1325 1.287 . S
C1326 C1327 1.524 . S
C1326 H1345 0.913 . S
C1327 H1303 0.950 . S
C1327 C1326 1.524 . S
C1327 C1328 1.415 . S
C1328 H1304 0.950 . S
C1328 C1323 1.363 . S
C1328 C1327 1.415 . S
C1329 H1305 0.951 . S
C1329 C1330 1.366 . S
C1329 C1331 1.388 . S
C1330 C1329 1.366 . S
C1330 C1334 1.385 . S
C1331 H1306 0.951 . S
C1331 C1329 1.388 . S
C1331 C1332 1.366 . S
C1332 C1331 1.366 . S
C1332 C1333 1.414 . S
C1332 C1335 1.499 . S
C1333 H1307 0.950 . S
C1333 C1332 1.414 . S
C1333 C1334 1.374 . S
C1334 H1308 0.950 . S
C1334 C1330 1.385 . S
C1334 C1333 1.374 . S
C1335 C1332 1.499 . S
C1335 C1336 1.373 . S
C1335 C1337 1.389 . S
C1336 H1309 0.950 . S
C1336 C1322 1.377 . S
C1336 C1335 1.373 . S
C1337 C1321 1.377 . S
C1337 C1335 1.389 . S
C1337 C1338 1.524 . S
C1338 C1337 1.524 . S
C1338 C1339 1.397 . S
C1338 C1343 1.363 . S
C1339 H1310 0.950 . S
C1339 C1338 1.397 . S
C1339 C1340 1.334 . S
C1340 H1311 0.950 . S
C1340 C1339 1.334 . S
C1340 C1341 1.287 . S
C1341 C1340 1.287 . S
C1341 C1342 1.524 . S
C1341 H1344 0.999 . S
C1342 H1312 0.950 . S
C1342 C1341 1.524 . S
C1342 C1343 1.415 . S
C1343 H1313 0.950 . S
C1343 C1338 1.363 . S
C1343 C1342 1.415 . S
H1344 C1341 0.999 . S
H1345 C1326 0.913 . S
H1346 C1364 0.951 . S
H1347 C1366 0.951 . S
H1348 C1368 0.950 . S
H1349 C1369 0.950 . S
H1350 C1371 0.950 . S
H1351 C1374 0.950 . S
H1352 C1375 0.950 . S
H1353 C1377 0.950 . S
H1354 C1378 0.950 . S
H1355 C1379 0.951 . S
H1356 C1381 0.951 . S
H1357 C1383 0.950 . S
H1358 C1384 0.950 . S
H1359 C1386 0.950 . S
H1360 C1389 0.950 . S
H1361 C1390 0.950 . S
H1362 C1392 0.950 . S
H1363 C1393 0.950 . S
C1364 H1346 0.951 . S
C1364 C1365 1.366 . S
C1364 C1366 1.388 . S
C1365 C1364 1.366 . S
C1365 C1369 1.385 . S
C1366 H1347 0.951 . S
C1366 C1364 1.388 . S
C1366 C1367 1.366 . S
C1367 C1366 1.366 . S
C1367 C1368 1.414 . S
C1367 C1370 1.499 . S
C1368 H1348 0.950 . S
C1368 C1367 1.414 . S
C1368 C1369 1.374 . S
C1369 H1349 0.950 . S
C1369 C1365 1.385 . S
C1369 C1368 1.374 . S
C1370 C1367 1.499 . S
C1370 C1371 1.373 . S
C1370 C1372 1.389 . S
C1371 H1350 0.950 . S
C1371 C1370 1.373 . S
C1371 C1387 1.377 . S
C1372 C1370 1.389 . S
C1372 C1373 1.524 . S
C1372 C1386 1.377 . S
C1373 C1372 1.524 . S
C1373 C1374 1.397 . S
C1373 C1378 1.363 . S
C1374 H1351 0.950 . S
C1374 C1373 1.397 . S
C1374 C1375 1.334 . S
C1375 H1352 0.950 . S
C1375 C1374 1.334 . S
C1375 C1376 1.287 . S
C1376 C1375 1.287 . S
C1376 C1377 1.524 . S
C1376 H1395 0.913 . S
C1377 H1353 0.950 . S
C1377 C1376 1.524 . S
C1377 C1378 1.415 . S
C1378 H1354 0.950 . S
C1378 C1373 1.363 . S
C1378 C1377 1.415 . S
C1379 H1355 0.951 . S
C1379 C1380 1.366 . S
C1379 C1381 1.388 1_556 S
C1380 C1379 1.366 . S
C1380 C1384 1.385 . S
C1381 H1356 0.951 . S
C1381 C1379 1.388 1_554 S
C1381 C1382 1.366 . S
C1382 C1381 1.366 . S
C1382 C1383 1.414 . S
C1382 C1385 1.499 . S
C1383 H1357 0.950 . S
C1383 C1382 1.414 . S
C1383 C1384 1.374 1_554 S
C1384 H1358 0.950 . S
C1384 C1380 1.385 . S
C1384 C1383 1.374 1_556 S
C1385 C1382 1.499 . S
C1385 C1386 1.373 . S
C1385 C1387 1.389 . S
C1386 H1359 0.950 . S
C1386 C1372 1.377 . S
C1386 C1385 1.373 . S
C1387 C1371 1.377 . S
C1387 C1385 1.389 . S
C1387 C1388 1.524 . S
C1388 C1387 1.524 . S
C1388 C1389 1.397 . S
C1388 C1393 1.363 . S
C1389 H1360 0.950 . S
C1389 C1388 1.397 . S
C1389 C1390 1.334 . S
C1390 H1361 0.950 . S
C1390 C1389 1.334 . S
C1390 C1391 1.287 . S
C1391 C1390 1.287 . S
C1391 C1392 1.524 . S
C1391 H1394 0.999 . S
C1392 H1362 0.950 . S
C1392 C1391 1.524 . S
C1392 C1393 1.415 . S
C1393 H1363 0.950 . S
C1393 C1388 1.363 . S
C1393 C1392 1.415 . S
H1394 C1391 0.999 . S
H1395 C1376 0.913 . S
H1396 C1414 0.951 . S
H1397 C1416 0.951 . S
H1398 C1418 0.950 . S
H1399 C1419 0.950 . S
H1400 C1421 0.950 . S
H1401 C1424 0.950 . S
H1402 C1425 0.950 . S
H1403 C1427 0.950 . S
H1404 C1428 0.950 . S
H1405 C1429 0.951 . S
H1406 C1431 0.951 . S
H1407 C1433 0.950 . S
H1408 C1434 0.950 . S
H1409 C1436 0.950 . S
H1410 C1439 0.950 . S
H1411 C1440 0.950 . S
H1412 C1442 0.950 . S
H1413 C1443 0.950 . S
C1414 H1396 0.951 . S
C1414 C1415 1.366 . S
C1414 C1416 1.388 . S
C1415 C1414 1.366 . S
C1415 C1419 1.385 . S
C1416 H1397 0.951 . S
C1416 C1414 1.388 . S
C1416 C1417 1.366 . S
C1417 C1416 1.366 . S
C1417 C1418 1.414 . S
C1417 C1420 1.499 . S
C1418 H1398 0.950 . S
C1418 C1417 1.414 . S
C1418 C1419 1.374 . S
C1419 H1399 0.950 . S
C1419 C1415 1.385 . S
C1419 C1418 1.374 . S
C1420 C1417 1.499 . S
C1420 C1421 1.373 . S
C1420 C1422 1.389 . S
C1421 H1400 0.950 . S
C1421 C1420 1.373 . S
C1421 C1437 1.377 . S
C1422 C1420 1.389 . S
C1422 C1423 1.524 . S
C1422 C1436 1.377 . S
C1423 C1422 1.524 . S
C1423 C1424 1.397 . S
C1423 C1428 1.363 . S
C1424 H1401 0.950 . S
C1424 C1423 1.397 . S
C1424 C1425 1.334 . S
C1425 H1402 0.950 . S
C1425 C1424 1.334 . S
C1425 C1426 1.287 . S
C1426 C1425 1.287 . S
C1426 C1427 1.524 . S
C1426 H1445 0.913 . S
C1427 H1403 0.950 . S
C1427 C1426 1.524 . S
C1427 C1428 1.415 . S
C1428 H1404 0.950 . S
C1428 C1423 1.363 . S
C1428 C1427 1.415 . S
C1429 H1405 0.951 . S
C1429 C1430 1.366 . S
C1429 C1431 1.388 . S
C1430 C1429 1.366 . S
C1430 C1434 1.385 . S
C1431 H1406 0.951 . S
C1431 C1429 1.388 . S
C1431 C1432 1.366 . S
C1432 C1431 1.366 . S
C1432 C1433 1.414 . S
C1432 C1435 1.499 . S
C1433 H1407 0.950 . S
C1433 C1432 1.414 . S
C1433 C1434 1.374 . S
C1434 H1408 0.950 . S
C1434 C1430 1.385 . S
C1434 C1433 1.374 . S
C1435 C1432 1.499 . S
C1435 C1436 1.373 . S
C1435 C1437 1.389 . S
C1436 H1409 0.950 . S
C1436 C1422 1.377 . S
C1436 C1435 1.373 . S
C1437 C1421 1.377 . S
C1437 C1435 1.389 . S
C1437 C1438 1.524 . S
C1438 C1437 1.524 . S
C1438 C1439 1.397 . S
C1438 C1443 1.363 . S
C1439 H1410 0.950 . S
C1439 C1438 1.397 . S
C1439 C1440 1.334 . S
C1440 H1411 0.950 . S
C1440 C1439 1.334 . S
C1440 C1441 1.287 . S
C1441 C1440 1.287 . S
C1441 C1442 1.524 . S
C1441 H1444 0.999 . S
C1442 H1412 0.950 . S
C1442 C1441 1.524 . S
C1442 C1443 1.415 . S
C1443 H1413 0.950 . S
C1443 C1438 1.363 . S
C1443 C1442 1.415 . S
H1444 C1441 0.999 . S
H1445 C1426 0.913 . S
H1446 C1464 0.951 . S
H1447 C1466 0.951 . S
H1448 C1468 0.950 . S
H1449 C1469 0.950 . S
H1450 C1471 0.950 . S
H1451 C1474 0.950 . S
H1452 C1475 0.950 . S
H1453 C1477 0.950 . S
H1454 C1478 0.950 . S
H1455 C1479 0.951 . S
H1456 C1481 0.951 . S
H1457 C1483 0.950 . S
H1458 C1484 0.950 . S
H1459 C1486 0.950 . S
H1460 C1489 0.950 . S
H1461 C1490 0.950 . S
H1462 C1492 0.950 . S
H1463 C1493 0.950 . S
C1464 H1446 0.951 . S
C1464 C1465 1.366 . S
C1464 C1466 1.388 1_556 S
C1465 C1464 1.366 . S
C1465 C1469 1.385 . S
C1466 H1447 0.951 . S
C1466 C1464 1.388 1_554 S
C1466 C1467 1.366 . S
C1467 C1466 1.366 . S
C1467 C1468 1.414 . S
C1467 C1470 1.499 . S
C1468 H1448 0.950 . S
C1468 C1467 1.414 . S
C1468 C1469 1.374 1_554 S
C1469 H1449 0.950 . S
C1469 C1465 1.385 . S
C1469 C1468 1.374 1_556 S
C1470 C1467 1.499 . S
C1470 C1471 1.373 . S
C1470 C1472 1.389 . S
C1471 H1450 0.950 . S
C1471 C1470 1.373 . S
C1471 C1487 1.377 . S
C1472 C1470 1.389 . S
C1472 C1473 1.524 . S
C1472 C1486 1.377 . S
C1473 C1472 1.524 . S
C1473 C1474 1.397 . S
C1473 C1478 1.363 . S
C1474 H1451 0.950 . S
C1474 C1473 1.397 . S
C1474 C1475 1.334 . S
C1475 H1452 0.950 . S
C1475 C1474 1.334 . S
C1475 C1476 1.287 . S
C1476 C1475 1.287 . S
C1476 C1477 1.524 . S
C1476 H1495 0.913 . S
C1477 H1453 0.950 . S
C1477 C1476 1.524 . S
C1477 C1478 1.415 . S
C1478 H1454 0.950 . S
C1478 C1473 1.363 . S
C1478 C1477 1.415 . S
C1479 H1455 0.951 . S
C1479 C1480 1.366 . S
C1479 C1481 1.388 . S
C1480 C1479 1.366 . S
C1480 C1484 1.385 . S
C1481 H1456 0.951 . S
C1481 C1479 1.388 . S
C1481 C1482 1.366 . S
C1482 C1481 1.366 . S
C1482 C1483 1.414 . S
C1482 C1485 1.499 . S
C1483 H1457 0.950 . S
C1483 C1482 1.414 . S
C1483 C1484 1.374 . S
C1484 H1458 0.950 . S
C1484 C1480 1.385 . S
C1484 C1483 1.374 . S
C1485 C1482 1.499 . S
C1485 C1486 1.373 . S
C1485 C1487 1.389 . S
C1486 H1459 0.950 . S
C1486 C1472 1.377 . S
C1486 C1485 1.373 . S
C1487 C1471 1.377 . S
C1487 C1485 1.389 . S
C1487 C1488 1.524 . S
C1488 C1487 1.524 . S
C1488 C1489 1.397 . S
C1488 C1493 1.363 . S
C1489 H1460 0.950 . S
C1489 C1488 1.397 . S
C1489 C1490 1.334 . S
C1490 H1461 0.950 . S
C1490 C1489 1.334 . S
C1490 C1491 1.287 . S
C1491 C1490 1.287 . S
C1491 C1492 1.524 . S
C1491 H1494 0.999 . S
C1492 H1462 0.950 . S
C1492 C1491 1.524 . S
C1492 C1493 1.415 . S
C1493 H1463 0.950 . S
C1493 C1488 1.363 . S
C1493 C1492 1.415 . S
H1494 C1491 0.999 . S
H1495 C1476 0.913 . S
H1496 C1514 0.951 . S
H1497 C1516 0.951 . S
H1498 C1518 0.950 . S
H1499 C1519 0.950 . S
H1500 C1521 0.950 . S
H1501 C1524 0.950 . S
H1502 C1525 0.950 . S
H1503 C1527 0.950 . S
H1504 C1528 0.950 . S
H1505 C1529 0.951 . S
H1506 C1531 0.951 . S
H1507 C1533 0.950 . S
H1508 C1534 0.950 . S
H1509 C1536 0.950 . S
H1510 C1539 0.950 . S
H1511 C1540 0.950 . S
H1512 C1542 0.950 . S
H1513 C1543 0.950 . S
C1514 H1496 0.951 . S
C1514 C1515 1.366 . S
C1514 C1516 1.388 . S
C1515 C1514 1.366 . S
C1515 C1519 1.385 . S
C1516 H1497 0.951 . S
C1516 C1514 1.388 . S
C1516 C1517 1.366 . S
C1517 C1516 1.366 . S
C1517 C1518 1.414 . S
C1517 C1520 1.499 . S
C1518 H1498 0.950 . S
C1518 C1517 1.414 . S
C1518 C1519 1.374 . S
C1519 H1499 0.950 . S
C1519 C1515 1.385 . S
C1519 C1518 1.374 . S
C1520 C1517 1.499 . S
C1520 C1521 1.373 . S
C1520 C1522 1.389 . S
C1521 H1500 0.950 . S
C1521 C1520 1.373 . S
C1521 C1537 1.377 . S
C1522 C1520 1.389 . S
C1522 C1523 1.524 . S
C1522 C1536 1.377 . S
C1523 C1522 1.524 . S
C1523 C1524 1.397 . S
C1523 C1528 1.363 . S
C1524 H1501 0.950 . S
C1524 C1523 1.397 . S
C1524 C1525 1.334 . S
C1525 H1502 0.950 . S
C1525 C1524 1.334 . S
C1525 C1526 1.287 . S
C1526 C1525 1.287 . S
C1526 C1527 1.524 . S
C1526 H1545 0.913 . S
C1527 H1503 0.950 . S
C1527 C1526 1.524 . S
C1527 C1528 1.415 . S
C1528 H1504 0.950 . S
C1528 C1523 1.363 . S
C1528 C1527 1.415 . S
C1529 H1505 0.951 . S
C1529 C1530 1.366 . S
C1529 C1531 1.388 . S
C1530 C1529 1.366 . S
C1530 C1534 1.385 . S
C1531 H1506 0.951 . S
C1531 C1529 1.388 . S
C1531 C1532 1.366 . S
C1532 C1531 1.366 . S
C1532 C1533 1.414 . S
C1532 C1535 1.499 . S
C1533 H1507 0.950 . S
C1533 C1532 1.414 . S
C1533 C1534 1.374 . S
C1534 H1508 0.950 . S
C1534 C1530 1.385 . S
C1534 C1533 1.374 . S
C1535 C1532 1.499 . S
C1535 C1536 1.373 . S
C1535 C1537 1.389 . S
C1536 H1509 0.950 . S
C1536 C1522 1.377 . S
C1536 C1535 1.373 . S
C1537 C1521 1.377 . S
C1537 C1535 1.389 . S
C1537 C1538 1.524 . S
C1538 C1537 1.524 . S
C1538 C1539 1.397 . S
C1538 C1543 1.363 . S
C1539 H1510 0.950 . S
C1539 C1538 1.397 . S
C1539 C1540 1.334 . S
C1540 H1511 0.950 . S
C1540 C1539 1.334 . S
C1540 C1541 1.287 . S
C1541 C1540 1.287 . S
C1541 C1542 1.524 . S
C1541 H1544 0.999 . S
C1542 H1512 0.950 . S
C1542 C1541 1.524 . S
C1542 C1543 1.415 . S
C1543 H1513 0.950 . S
C1543 C1538 1.363 . S
C1543 C1542 1.415 . S
H1544 C1541 0.999 . S
H1545 C1526 0.913 . S
H1546 C1564 0.951 . S
H1547 C1566 0.951 . S
H1548 C1568 0.950 . S
H1549 C1569 0.950 . S
H1550 C1571 0.950 . S
H1551 C1574 0.950 . S
H1552 C1575 0.950 . S
H1553 C1577 0.950 . S
H1554 C1578 0.950 . S
H1555 C1579 0.951 . S
H1556 C1581 0.951 . S
H1557 C1583 0.950 . S
H1558 C1584 0.950 . S
H1559 C1586 0.950 . S
H1560 C1589 0.950 . S
H1561 C1590 0.950 . S
H1562 C1592 0.950 . S
H1563 C1593 0.950 . S
C1564 H1546 0.951 . S
C1564 C1565 1.366 . S
C1564 C1566 1.388 . S
C1565 C1564 1.366 . S
C1565 C1569 1.385 . S
C1566 H1547 0.951 . S
C1566 C1564 1.388 . S
C1566 C1567 1.366 . S
C1567 C1566 1.366 . S
C1567 C1568 1.414 . S
C1567 C1570 1.499 . S
C1568 H1548 0.950 . S
C1568 C1567 1.414 . S
C1568 C1569 1.374 . S
C1569 H1549 0.950 . S
C1569 C1565 1.385 . S
C1569 C1568 1.374 . S
C1570 C1567 1.499 . S
C1570 C1571 1.373 . S
C1570 C1572 1.389 . S
C1571 H1550 0.950 . S
C1571 C1570 1.373 . S
C1571 C1587 1.377 . S
C1572 C1570 1.389 . S
C1572 C1573 1.524 . S
C1572 C1586 1.377 . S
C1573 C1572 1.524 . S
C1573 C1574 1.397 . S
C1573 C1578 1.363 . S
C1574 H1551 0.950 . S
C1574 C1573 1.397 . S
C1574 C1575 1.334 . S
C1575 H1552 0.950 . S
C1575 C1574 1.334 . S
C1575 C1576 1.287 . S
C1576 C1575 1.287 . S
C1576 C1577 1.524 . S
C1576 H1595 0.913 . S
C1577 H1553 0.950 . S
C1577 C1576 1.524 . S
C1577 C1578 1.415 . S
C1578 H1554 0.950 . S
C1578 C1573 1.363 . S
C1578 C1577 1.415 . S
C1579 H1555 0.951 . S
C1579 C1580 1.366 . S
C1579 C1581 1.388 1_556 S
C1580 C1579 1.366 . S
C1580 C1584 1.385 . S
C1581 H1556 0.951 . S
C1581 C1579 1.388 1_554 S
C1581 C1582 1.366 . S
C1582 C1581 1.366 . S
C1582 C1583 1.414 . S
C1582 C1585 1.499 . S
C1583 H1557 0.950 . S
C1583 C1582 1.414 . S
C1583 C1584 1.374 1_554 S
C1584 H1558 0.950 . S
C1584 C1580 1.385 . S
C1584 C1583 1.374 1_556 S
C1585 C1582 1.499 . S
C1585 C1586 1.373 . S
C1585 C1587 1.389 . S
C1586 H1559 0.950 . S
C1586 C1572 1.377 . S
C1586 C1585 1.373 . S
C1587 C1571 1.377 . S
C1587 C1585 1.389 . S
C1587 C1588 1.524 . S
C1588 C1587 1.524 . S
C1588 C1589 1.397 . S
C1588 C1593 1.363 . S
C1589 H1560 0.950 . S
C1589 C1588 1.397 . S
C1589 C1590 1.334 . S
C1590 H1561 0.950 . S
C1590 C1589 1.334 . S
C1590 C1591 1.287 . S
C1591 C1590 1.287 . S
C1591 C1592 1.524 . S
C1591 H1594 0.999 . S
C1592 H1562 0.950 . S
C1592 C1591 1.524 . S
C1592 C1593 1.415 . S
C1593 H1563 0.950 . S
C1593 C1588 1.363 . S
C1593 C1592 1.415 . S
H1594 C1591 0.999 . S
H1595 C1576 0.913 . S
H1596 C1614 0.951 . S
H1597 C1616 0.951 . S
H1598 C1618 0.950 . S
H1599 C1619 0.950 . S
H1600 C1621 0.950 . S
H1601 C1624 0.950 . S
H1602 C1625 0.950 . S
H1603 C1627 0.950 . S
H1604 C1628 0.950 . S
H1605 C1629 0.951 . S
H1606 C1631 0.951 . S
H1607 C1633 0.950 . S
H1608 C1634 0.950 . S
H1609 C1636 0.950 . S
H1610 C1639 0.950 . S
H1611 C1640 0.950 . S
H1612 C1642 0.950 . S
H1613 C1643 0.950 . S
C1614 H1596 0.951 . S
C1614 C1615 1.366 . S
C1614 C1616 1.388 . S
C1615 C1614 1.366 . S
C1615 C1619 1.385 . S
C1616 H1597 0.951 . S
C1616 C1614 1.388 . S
C1616 C1617 1.366 . S
C1617 C1616 1.366 . S
C1617 C1618 1.414 . S
C1617 C1620 1.499 . S
C1618 H1598 0.950 . S
C1618 C1617 1.414 . S
C1618 C1619 1.374 . S
C1619 H1599 0.950 . S
C1619 C1615 1.385 . S
C1619 C1618 1.374 . S
C1620 C1617 1.499 . S
C1620 C1621 1.373 . S
C1620 C1622 1.389 . S
C1621 H1600 0.950 . S
C1621 C1620 1.373 . S
C1621 C1637 1.377 . S
C1622 C1620 1.389 . S
C1622 C1623 1.524 . S
C1622 C1636 1.377 . S
C1623 C1622 1.524 . S
C1623 C1624 1.397 . S
C1623 C1628 1.363 . S
C1624 H1601 0.950 . S
C1624 C1623 1.397 . S
C1624 C1625 1.334 . S
C1625 H1602 0.950 . S
C1625 C1624 1.334 . S
C1625 C1626 1.287 . S
C1626 C1625 1.287 . S
C1626 C1627 1.524 . S
C1626 H1645 0.913 . S
C1627 H1603 0.950 . S
C1627 C1626 1.524 . S
C1627 C1628 1.415 . S
C1628 H1604 0.950 . S
C1628 C1623 1.363 . S
C1628 C1627 1.415 . S
C1629 H1605 0.951 . S
C1629 C1630 1.366 . S
C1629 C1631 1.388 . S
C1630 C1629 1.366 . S
C1630 C1634 1.385 . S
C1631 H1606 0.951 . S
C1631 C1629 1.388 . S
C1631 C1632 1.366 . S
C1632 C1631 1.366 . S
C1632 C1633 1.414 . S
C1632 C1635 1.499 . S
C1633 H1607 0.950 . S
C1633 C1632 1.414 . S
C1633 C1634 1.374 . S
C1634 H1608 0.950 . S
C1634 C1630 1.385 . S
C1634 C1633 1.374 . S
C1635 C1632 1.499 . S
C1635 C1636 1.373 . S
C1635 C1637 1.389 . S
C1636 H1609 0.950 . S
C1636 C1622 1.377 . S
C1636 C1635 1.373 . S
C1637 C1621 1.377 . S
C1637 C1635 1.389 . S
C1637 C1638 1.524 . S
C1638 C1637 1.524 . S
C1638 C1639 1.397 . S
C1638 C1643 1.363 . S
C1639 H1610 0.950 . S
C1639 C1638 1.397 . S
C1639 C1640 1.334 . S
C1640 H1611 0.950 . S
C1640 C1639 1.334 . S
C1640 C1641 1.287 . S
C1641 C1640 1.287 . S
C1641 C1642 1.524 . S
C1641 H1644 0.999 . S
C1642 H1612 0.950 . S
C1642 C1641 1.524 . S
C1642 C1643 1.415 . S
C1643 H1613 0.950 . S
C1643 C1638 1.363 . S
C1643 C1642 1.415 . S
H1644 C1641 0.999 . S
H1645 C1626 0.913 . S
H1646 C1664 0.951 . S
H1647 C1666 0.951 . S
H1648 C1668 0.950 . S
H1649 C1669 0.950 . S
H1650 C1671 0.950 . S
H1651 C1674 0.950 . S
H1652 C1675 0.950 . S
H1653 C1677 0.950 . S
H1654 C1678 0.950 . S
H1655 C1679 0.951 . S
H1656 C1681 0.951 . S
H1657 C1683 0.950 . S
H1658 C1684 0.950 . S
H1659 C1686 0.950 . S
H1660 C1689 0.950 . S
H1661 C1690 0.950 . S
H1662 C1692 0.950 . S
H1663 C1693 0.950 . S
C1664 H1646 0.951 . S
C1664 C1665 1.366 . S
C1664 C1666 1.388 . S
C1665 C1664 1.366 . S
C1665 C1669 1.385 . S
C1666 H1647 0.951 . S
C1666 C1664 1.388 . S
C1666 C1667 1.366 . S
C1667 C1666 1.366 . S
C1667 C1668 1.414 . S
C1667 C1670 1.499 . S
C1668 H1648 0.950 . S
C1668 C1667 1.414 . S
C1668 C1669 1.374 . S
C1669 H1649 0.950 . S
C1669 C1665 1.385 . S
C1669 C1668 1.374 . S
C1670 C1667 1.499 . S
C1670 C1671 1.373 . S
C1670 C1672 1.389 . S
C1671 H1650 0.950 . S
C1671 C1670 1.373 . S
C1671 C1687 1.377 . S
C1672 C1670 1.389 . S
C1672 C1673 1.524 . S
C1672 C1686 1.377 . S
C1673 C1672 1.524 . S
C1673 C1674 1.397 . S
C1673 C1678 1.363 . S
C1674 H1651 0.950 . S
C1674 C1673 1.397 . S
C1674 C1675 1.334 . S
C1675 H1652 0.950 . S
C1675 C1674 1.334 . S
C1675 C1676 1.287 . S
C1676 C1675 1.287 . S
C1676 C1677 1.524 . S
C1676 H1695 0.913 . S
C1677 H1653 0.950 . S
C1677 C1676 1.524 . S
C1677 C1678 1.415 . S
C1678 H1654 0.950 . S
C1678 C1673 1.363 . S
C1678 C1677 1.415 . S
C1679 H1655 0.951 . S
C1679 C1680 1.366 . S
C1679 C1681 1.388 . S
C1680 C1679 1.366 . S
C1680 C1684 1.385 . S
C1681 H1656 0.951 . S
C1681 C1679 1.388 . S
C1681 C1682 1.366 . S
C1682 C1681 1.366 . S
C1682 C1683 1.414 . S
C1682 C1685 1.499 . S
C1683 H1657 0.950 . S
C1683 C1682 1.414 . S
C1683 C1684 1.374 . S
C1684 H1658 0.950 . S
C1684 C1680 1.385 . S
C1684 C1683 1.374 . S
C1685 C1682 1.499 . S
C1685 C1686 1.373 . S
C1685 C1687 1.389 . S
C1686 H1659 0.950 . S
C1686 C1672 1.377 . S
C1686 C1685 1.373 . S
C1687 C1671 1.377 . S
C1687 C1685 1.389 . S
C1687 C1688 1.524 . S
C1688 C1687 1.524 . S
C1688 C1689 1.397 . S
C1688 C1693 1.363 . S
C1689 H1660 0.950 . S
C1689 C1688 1.397 . S
C1689 C1690 1.334 . S
C1690 H1661 0.950 . S
C1690 C1689 1.334 . S
C1690 C1691 1.287 . S
C1691 C1690 1.287 . S
C1691 C1692 1.524 . S
C1691 H1694 0.999 . S
C1692 H1662 0.950 . S
C1692 C1691 1.524 . S
C1692 C1693 1.415 . S
C1693 H1663 0.950 . S
C1693 C1688 1.363 . S
C1693 C1692 1.415 . S
H1694 C1691 0.999 . S
H1695 C1676 0.913 . S
H1696 C1714 0.951 . S
H1697 C1716 0.951 . S
H1698 C1718 0.950 . S
H1699 C1719 0.950 . S
H1700 C1721 0.950 . S
H1701 C1724 0.950 . S
H1702 C1725 0.950 . S
H1703 C1727 0.950 . S
H1704 C1728 0.950 . S
H1705 C1729 0.951 . S
H1706 C1731 0.951 . S
H1707 C1733 0.950 . S
H1708 C1734 0.950 . S
H1709 C1736 0.950 . S
H1710 C1739 0.950 . S
H1711 C1740 0.950 . S
H1712 C1742 0.950 . S
H1713 C1743 0.950 . S
C1714 H1696 0.951 . S
C1714 C1715 1.366 . S
C1714 C1716 1.388 . S
C1715 C1714 1.366 . S
C1715 C1719 1.385 . S
C1716 H1697 0.951 . S
C1716 C1714 1.388 . S
C1716 C1717 1.366 . S
C1717 C1716 1.366 . S
C1717 C1718 1.414 . S
C1717 C1720 1.499 . S
C1718 H1698 0.950 . S
C1718 C1717 1.414 . S
C1718 C1719 1.374 . S
C1719 H1699 0.950 . S
C1719 C1715 1.385 . S
C1719 C1718 1.374 . S
C1720 C1717 1.499 . S
C1720 C1721 1.373 . S
C1720 C1722 1.389 . S
C1721 H1700 0.950 . S
C1721 C1720 1.373 . S
C1721 C1737 1.377 . S
C1722 C1720 1.389 . S
C1722 C1723 1.524 . S
C1722 C1736 1.377 . S
C1723 C1722 1.524 . S
C1723 C1724 1.397 . S
C1723 C1728 1.363 . S
C1724 H1701 0.950 . S
C1724 C1723 1.397 . S
C1724 C1725 1.334 . S
C1725 H1702 0.950 . S
C1725 C1724 1.334 . S
C1725 C1726 1.287 . S
C1726 C1725 1.287 . S
C1726 C1727 1.524 . S
C1726 H1745 0.913 . S
C1727 H1703 0.950 . S
C1727 C1726 1.524 . S
C1727 C1728 1.415 . S
C1728 H1704 0.950 . S
C1728 C1723 1.363 . S
C1728 C1727 1.415 . S
C1729 H1705 0.951 . S
C1729 C1730 1.366 . S
C1729 C1731 1.388 . S
C1730 C1729 1.366 . S
C1730 C1734 1.385 . S
C1731 H1706 0.951 . S
C1731 C1729 1.388 . S
C1731 C1732 1.366 . S
C1732 C1731 1.366 . S
C1732 C1733 1.414 . S
C1732 C1735 1.499 . S
C1733 H1707 0.950 . S
C1733 C1732 1.414 . S
C1733 C1734 1.374 . S
C1734 H1708 0.950 . S
C1734 C1730 1.385 . S
C1734 C1733 1.374 . S
C1735 C1732 1.499 . S
C1735 C1736 1.373 . S
C1735 C1737 1.389 . S
C1736 H1709 0.950 . S
C1736 C1722 1.377 . S
C1736 C1735 1.373 . S
C1737 C1721 1.377 . S
C1737 C1735 1.389 . S
C1737 C1738 1.524 . S
C1738 C1737 1.524 . S
C1738 C1739 1.397 . S
C1738 C1743 1.363 . S
C1739 H1710 0.950 . S
C1739 C1738 1.397 . S
C1739 C1740 1.334 . S
C1740 H1711 0.950 . S
C1740 C1739 1.334 . S
C1740 C1741 1.287 . S
C1741 C1740 1.287 . S
C1741 C1742 1.524 . S
C1741 H1744 0.999 . S
C1742 H1712 0.950 . S
C1742 C1741 1.524 . S
C1742 C1743 1.415 . S
C1743 H1713 0.950 . S
C1743 C1738 1.363 . S
C1743 C1742 1.415 . S
H1744 C1741 0.999 . S
H1745 C1726 0.913 . S
H1746 C1764 0.951 . S
H1747 C1766 0.951 . S
H1748 C1768 0.950 . S
H1749 C1769 0.950 . S
H1750 C1771 0.950 . S
H1751 C1774 0.950 . S
H1752 C1775 0.950 . S
H1753 C1777 0.950 . S
H1754 C1778 0.950 . S
H1755 C1779 0.951 . S
H1756 C1781 0.951 . S
H1757 C1783 0.950 . S
H1758 C1784 0.950 . S
H1759 C1786 0.950 . S
H1760 C1789 0.950 . S
H1761 C1790 0.950 . S
H1762 C1792 0.950 . S
H1763 C1793 0.950 . S
C1764 H1746 0.951 . S
C1764 C1765 1.366 . S
C1764 C1766 1.388 . S
C1765 C1764 1.366 . S
C1765 C1769 1.385 . S
C1766 H1747 0.951 . S
C1766 C1764 1.388 . S
C1766 C1767 1.366 . S
C1767 C1766 1.366 . S
C1767 C1768 1.414 . S
C1767 C1770 1.499 . S
C1768 H1748 0.950 . S
C1768 C1767 1.414 . S
C1768 C1769 1.374 . S
C1769 H1749 0.950 . S
C1769 C1765 1.385 . S
C1769 C1768 1.374 . S
C1770 C1767 1.499 . S
C1770 C1771 1.373 . S
C1770 C1772 1.389 . S
C1771 H1750 0.950 . S
C1771 C1770 1.373 . S
C1771 C1787 1.377 . S
C1772 C1770 1.389 . S
C1772 C1773 1.524 . S
C1772 C1786 1.377 . S
C1773 C1772 1.524 . S
C1773 C1774 1.397 . S
C1773 C1778 1.363 . S
C1774 H1751 0.950 . S
C1774 C1773 1.397 . S
C1774 C1775 1.334 . S
C1775 H1752 0.950 . S
C1775 C1774 1.334 . S
C1775 C1776 1.287 . S
C1776 C1775 1.287 . S
C1776 C1777 1.524 . S
C1776 H1795 0.913 . S
C1777 H1753 0.950 . S
C1777 C1776 1.524 . S
C1777 C1778 1.415 . S
C1778 H1754 0.950 . S
C1778 C1773 1.363 . S
C1778 C1777 1.415 . S
C1779 H1755 0.951 . S
C1779 C1780 1.366 . S
C1779 C1781 1.388 . S
C1780 C1779 1.366 . S
C1780 C1784 1.385 . S
C1781 H1756 0.951 . S
C1781 C1779 1.388 . S
C1781 C1782 1.366 . S
C1782 C1781 1.366 . S
C1782 C1783 1.414 . S
C1782 C1785 1.499 . S
C1783 H1757 0.950 . S
C1783 C1782 1.414 . S
C1783 C1784 1.374 . S
C1784 H1758 0.950 . S
C1784 C1780 1.385 . S
C1784 C1783 1.374 . S
C1785 C1782 1.499 . S
C1785 C1786 1.373 . S
C1785 C1787 1.389 . S
C1786 H1759 0.950 . S
C1786 C1772 1.377 . S
C1786 C1785 1.373 . S
C1787 C1771 1.377 . S
C1787 C1785 1.389 . S
C1787 C1788 1.524 . S
C1788 C1787 1.524 . S
C1788 C1789 1.397 . S
C1788 C1793 1.363 . S
C1789 H1760 0.950 . S
C1789 C1788 1.397 . S
C1789 C1790 1.334 . S
C1790 H1761 0.950 . S
C1790 C1789 1.334 . S
C1790 C1791 1.287 . S
C1791 C1790 1.287 . S
C1791 C1792 1.524 . S
C1791 H1794 0.999 . S
C1792 H1762 0.950 . S
C1792 C1791 1.524 . S
C1792 C1793 1.415 . S
C1793 H1763 0.950 . S
C1793 C1788 1.363 . S
C1793 C1792 1.415 . S
H1794 C1791 0.999 . S
H1795 C1776 0.913 . S
H1796 C1814 0.951 . S
H1797 C1816 0.951 . S
H1798 C1818 0.950 . S
H1799 C1819 0.950 . S
H1800 C1821 0.950 . S
H1801 C1824 0.950 . S
H1802 C1825 0.950 . S
H1803 C1827 0.950 . S
H1804 C1828 0.950 . S
H1805 C1829 0.951 . S
H1806 C1831 0.951 . S
H1807 C1833 0.950 . S
H1808 C1834 0.950 . S
H1809 C1836 0.950 . S
H1810 C1839 0.950 . S
H1811 C1840 0.950 . S
H1812 C1842 0.950 . S
H1813 C1843 0.950 . S
C1814 H1796 0.951 . S
C1814 C1815 1.366 . S
C1814 C1816 1.388 . S
C1815 C1814 1.366 . S
C1815 C1819 1.385 . S
C1816 H1797 0.951 . S
C1816 C1814 1.388 . S
C1816 C1817 1.366 . S
C1817 C1816 1.366 . S
C1817 C1818 1.414 . S
C1817 C1820 1.499 . S
C1818 H1798 0.950 . S
C1818 C1817 1.414 . S
C1818 C1819 1.374 . S
C1819 H1799 0.950 . S
C1819 C1815 1.385 . S
C1819 C1818 1.374 . S
C1820 C1817 1.499 . S
C1820 C1821 1.373 . S
C1820 C1822 1.389 . S
C1821 H1800 0.950 . S
C1821 C1820 1.373 . S
C1821 C1837 1.377 . S
C1822 C1820 1.389 . S
C1822 C1823 1.524 . S
C1822 C1836 1.377 . S
C1823 C1822 1.524 . S
C1823 C1824 1.397 . S
C1823 C1828 1.363 . S
C1824 H1801 0.950 . S
C1824 C1823 1.397 . S
C1824 C1825 1.334 . S
C1825 H1802 0.950 . S
C1825 C1824 1.334 . S
C1825 C1826 1.287 . S
C1826 C1825 1.287 . S
C1826 C1827 1.524 . S
C1826 H1845 0.913 . S
C1827 H1803 0.950 . S
C1827 C1826 1.524 . S
C1827 C1828 1.415 . S
C1828 H1804 0.950 . S
C1828 C1823 1.363 . S
C1828 C1827 1.415 . S
C1829 H1805 0.951 . S
C1829 C1830 1.366 . S
C1829 C1831 1.388 . S
C1830 C1829 1.366 . S
C1830 C1834 1.385 . S
C1831 H1806 0.951 . S
C1831 C1829 1.388 . S
C1831 C1832 1.366 . S
C1832 C1831 1.366 . S
C1832 C1833 1.414 . S
C1832 C1835 1.499 . S
C1833 H1807 0.950 . S
C1833 C1832 1.414 . S
C1833 C1834 1.374 . S
C1834 H1808 0.950 . S
C1834 C1830 1.385 . S
C1834 C1833 1.374 . S
C1835 C1832 1.499 . S
C1835 C1836 1.373 . S
C1835 C1837 1.389 . S
C1836 H1809 0.950 . S
C1836 C1822 1.377 . S
C1836 C1835 1.373 . S
C1837 C1821 1.377 . S
C1837 C1835 1.389 . S
C1837 C1838 1.524 . S
C1838 C1837 1.524 . S
C1838 C1839 1.397 . S
C1838 C1843 1.363 . S
C1839 H1810 0.950 . S
C1839 C1838 1.397 . S
C1839 C1840 1.334 . S
C1840 H1811 0.950 . S
C1840 C1839 1.334 . S
C1840 C1841 1.287 . S
C1841 C1840 1.287 . S
C1841 C1842 1.524 . S
C1841 H1844 0.999 . S
C1842 H1812 0.950 . S
C1842 C1841 1.524 . S
C1842 C1843 1.415 . S
C1843 H1813 0.950 . S
C1843 C1838 1.363 . S
C1843 C1842 1.415 . S
H1844 C1841 0.999 . S
H1845 C1826 0.913 . S
H1846 C1864 0.951 . S
H1847 C1866 0.951 . S
H1848 C1868 0.950 . S
H1849 C1869 0.950 . S
H1850 C1871 0.950 . S
H1851 C1874 0.950 . S
H1852 C1875 0.950 . S
H1853 C1877 0.950 . S
H1854 C1878 0.950 . S
H1855 C1879 0.951 . S
H1856 C1881 0.951 . S
H1857 C1883 0.950 . S
H1858 C1884 0.950 . S
H1859 C1886 0.950 . S
H1860 C1889 0.950 . S
H1861 C1890 0.950 . S
H1862 C1892 0.950 . S
H1863 C1893 0.950 . S
C1864 H1846 0.951 . S
C1864 C1865 1.366 . S
C1864 C1866 1.388 . S
C1865 C1864 1.366 . S
C1865 C1869 1.385 . S
C1866 H1847 0.951 . S
C1866 C1864 1.388 . S
C1866 C1867 1.366 . S
C1867 C1866 1.366 . S
C1867 C1868 1.414 . S
C1867 C1870 1.499 . S
C1868 H1848 0.950 . S
C1868 C1867 1.414 . S
C1868 C1869 1.374 . S
C1869 H1849 0.950 . S
C1869 C1865 1.385 . S
C1869 C1868 1.374 . S
C1870 C1867 1.499 . S
C1870 C1871 1.373 . S
C1870 C1872 1.389 . S
C1871 H1850 0.950 . S
C1871 C1870 1.373 . S
C1871 C1887 1.377 . S
C1872 C1870 1.389 . S
C1872 C1873 1.524 . S
C1872 C1886 1.377 . S
C1873 C1872 1.524 . S
C1873 C1874 1.397 . S
C1873 C1878 1.363 . S
C1874 H1851 0.950 . S
C1874 C1873 1.397 . S
C1874 C1875 1.334 . S
C1875 H1852 0.950 . S
C1875 C1874 1.334 . S
C1875 C1876 1.287 . S
C1876 C1875 1.287 . S
C1876 C1877 1.524 . S
C1876 H1895 0.913 . S
C1877 H1853 0.950 . S
C1877 C1876 1.524 . S
C1877 C1878 1.415 . S
C1878 H1854 0.950 . S
C1878 C1873 1.363 . S
C1878 C1877 1.415 . S
C1879 H1855 0.951 . S
C1879 C1880 1.366 . S
C1879 C1881 1.388 . S
C1880 C1879 1.366 . S
C1880 C1884 1.385 . S
C1881 H1856 0.951 . S
C1881 C1879 1.388 . S
C1881 C1882 1.366 . S
C1882 C1881 1.366 . S
C1882 C1883 1.414 . S
C1882 C1885 1.499 . S
C1883 H1857 0.950 . S
C1883 C1882 1.414 . S
C1883 C1884 1.374 . S
C1884 H1858 0.950 . S
C1884 C1880 1.385 . S
C1884 C1883 1.374 . S
C1885 C1882 1.499 . S
C1885 C1886 1.373 . S
C1885 C1887 1.389 . S
C1886 H1859 0.950 . S
C1886 C1872 1.377 . S
C1886 C1885 1.373 . S
C1887 C1871 1.377 . S
C1887 C1885 1.389 . S
C1887 C1888 1.524 . S
C1888 C1887 1.524 . S
C1888 C1889 1.397 . S
C1888 C1893 1.363 . S
C1889 H1860 0.950 . S
C1889 C1888 1.397 . S
C1889 C1890 1.334 . S
C1890 H1861 0.950 . S
C1890 C1889 1.334 . S
C1890 C1891 1.287 . S
C1891 C1890 1.287 . S
C1891 C1892 1.524 . S
C1891 H1894 0.999 . S
C1892 H1862 0.950 . S
C1892 C1891 1.524 . S
C1892 C1893 1.415 . S
C1893 H1863 0.950 . S
C1893 C1888 1.363 . S
C1893 C1892 1.415 . S
H1894 C1891 0.999 . S
H1895 C1876 0.913 . S
C415 C7 1.113 . S
C430 C370 1.112 . S
C465 C40 1.113 . S
C480 C205 1.112 . S
C515 C238 1.112 . S
C530 C73 1.113 . S
C565 C271 1.112 . S
C580 C106 1.112 . S
C615 C304 1.113 . S
C630 C139 1.113 . S
C665 C172 1.112 . S
C680 C337 1.111 . S
C715 C285 1.640 . S
C730 C21 1.640 . S
C765 C318 1.640 . S
C780 C54 1.640 . S
C815 C87 1.640 . S
C830 C351 1.640 . S
C865 C120 1.640 . S
C880 C384 1.640 . S
C915 C219 1.640 . S
C930 C153 1.640 . S
C965 C186 1.640 . S
C980 C252 1.640 . S
C1015 N2 1.182 . S
C1030 N13 1.184 . S
C1065 N46 1.184 . S
C1080 N35 1.182 . S
C1115 N68 1.182 . S
C1130 N79 1.184 . S
C1165 N112 1.184 . S
C1180 N101 1.182 . S
C1215 N134 1.182 . S
C1230 N145 1.184 . S
C1265 N178 1.184 . S
C1280 N167 1.182 . S
C1315 N211 1.184 . S
C1330 N200 1.182 . S
C1365 N233 1.183 . S
C1380 N244 1.184 . S
C1415 N277 1.184 . S
C1430 N266 1.182 . S
C1465 N310 1.185 . S
C1480 N299 1.183 . S
C1515 N332 1.182 . S
C1530 N343 1.183 . S
C1565 N365 1.182 . S
C1580 N376 1.184 . S
C1615 C18 1.203 . S
C1630 C348 1.204 . S
C1665 C381 1.205 . S
C1680 C51 1.205 . S
C1715 C216 1.204 . S
C1730 C84 1.204 . S
C1765 C117 1.204 . S
C1780 C249 1.203 . S
C1815 C150 1.205 . S
C1830 C282 1.204 . S
C1865 C183 1.203 . S
C1880 C315 1.204 . S
