# Generated by pormake.
# Topology xft, (5)-cn, num edge types: 1
# Building blocks:
#     Node 0, Type 0, BuildingBlock: BEQFEK_clean_sbu_0, # of connection points: 5
#     Node 1, Type 0, BuildingBlock: BEQFEK_clean_sbu_0, # of connection points: 5
#     Node 2, Type 0, BuildingBlock: BEQFEK_clean_sbu_0, # of connection points: 5
#     Node 3, Type 0, BuildingBlock: BEQFEK_clean_sbu_0, # of connection points: 5
#     Node 4, Type 0, BuildingBlock: BEQFEK_clean_sbu_0, # of connection points: 5
#     Node 5, Type 0, BuildingBlock: BEQFEK_clean_sbu_0, # of connection points: 5
#     Node 6, Type 0, BuildingBlock: BEQFEK_clean_sbu_0, # of connection points: 5
#     Node 7, Type 0, BuildingBlock: BEQFEK_clean_sbu_0, # of connection points: 5
#     Edge 8, Type (0, 0), BuildingBlock: XUDNAN_clean_linker_2, # of connection points: 2
#     Edge 9, Type (0, 0), BuildingBlock: XUDNAN_clean_linker_2, # of connection points: 2
#     Edge 10, Type (0, 0), BuildingBlock: XUDNAN_clean_linker_2, # of connection points: 2
#     Edge 11, Type (0, 0), BuildingBlock: XUDNAN_clean_linker_2, # of connection points: 2
#     Edge 12, Type (0, 0), BuildingBlock: XUDNAN_clean_linker_2, # of connection points: 2
#     Edge 13, Type (0, 0), BuildingBlock: XUDNAN_clean_linker_2, # of connection points: 2
#     Edge 14, Type (0, 0), BuildingBlock: XUDNAN_clean_linker_2, # of connection points: 2
#     Edge 15, Type (0, 0), BuildingBlock: XUDNAN_clean_linker_2, # of connection points: 2
#     Edge 16, Type (0, 0), BuildingBlock: XUDNAN_clean_linker_2, # of connection points: 2
#     Edge 17, Type (0, 0), BuildingBlock: XUDNAN_clean_linker_2, # of connection points: 2
#     Edge 18, Type (0, 0), BuildingBlock: XUDNAN_clean_linker_2, # of connection points: 2
#     Edge 19, Type (0, 0), BuildingBlock: XUDNAN_clean_linker_2, # of connection points: 2
#     Edge 20, Type (0, 0), BuildingBlock: XUDNAN_clean_linker_2, # of connection points: 2
#     Edge 21, Type (0, 0), BuildingBlock: XUDNAN_clean_linker_2, # of connection points: 2
#     Edge 22, Type (0, 0), BuildingBlock: XUDNAN_clean_linker_2, # of connection points: 2
#     Edge 23, Type (0, 0), BuildingBlock: XUDNAN_clean_linker_2, # of connection points: 2
#     Edge 24, Type (0, 0), BuildingBlock: XUDNAN_clean_linker_2, # of connection points: 2
#     Edge 25, Type (0, 0), BuildingBlock: XUDNAN_clean_linker_2, # of connection points: 2
#     Edge 26, Type (0, 0), BuildingBlock: XUDNAN_clean_linker_2, # of connection points: 2
#     Edge 27, Type (0, 0), BuildingBlock: XUDNAN_clean_linker_2, # of connection points: 2
# Relax obj value: 0.418
# Max RMSD: 0.298
# Mean RMSD: 0.298
data_MOF--net-xft--node1-BEQFEK_clean_sbu_0--edge1-XUDNAN_clean_linker_2
_symmetry_space_group_name_H-M    P1
_symmetry_Int_Tables_number       1
_symmetry_cell_setting            triclinic
loop_
_symmetry_equiv_pos_as_xyz
'x, y, z'
_cell_length_a     37.967779
_cell_length_b     37.924735
_cell_length_c     35.994139
_cell_angle_alpha  90.310287
_cell_angle_beta   89.77695
_cell_angle_gamma 90.077763
loop_
_atom_site_label
_atom_site_type_symbol
_atom_site_fract_x
_atom_site_fract_y
_atom_site_fract_z
_atom_type_partial_charge
Co0 Co 0.28904 0.06118 0.70108 0.0
Co1 Co 0.26957 -0.00272 0.75282 0.0
C2 C 0.292 0.9864 0.67403 0.0
O3 O 0.2952 0.01939 0.66906 0.0
O4 O 0.28176 0.97409 0.70506 0.0
C5 C 0.28799 0.10047 0.63446 0.0
O6 O 0.27187 0.07206 0.62219 0.0
C7 C 0.2343 0.93279 0.77781 0.0
C8 C 0.23172 0.94099 0.83853 0.0
C9 C 0.22087 0.91849 0.81032 0.0
N10 N 0.25127 0.96287 0.7863 0.0
N11 N 0.25035 0.9672 0.82274 0.0
C12 C 0.23318 0.91733 0.73952 0.0
H13 H 0.21854 0.93523 0.72083 0.0
H14 H 0.22139 0.8906 0.73899 0.0
H15 H 0.26052 0.915 0.72906 0.0
C16 C 0.21924 0.08583 0.72722 0.0
N17 N 0.24483 0.0613 0.7251 0.0
N18 N 0.23628 0.03425 0.74607 0.0
C19 C 0.20464 0.04058 0.76177 0.0
C20 C 0.19298 0.07351 0.75068 0.0
C21 C 0.22173 0.12149 0.70986 0.0
H22 H 0.24768 0.13345 0.7164 0.0
H23 H 0.22009 0.11856 0.67923 0.0
H24 H 0.20034 0.13919 0.71965 0.0
O25 O 0.32818 0.0598 0.73707 0.0
O26 O 0.31405 0.01539 0.7744 0.0
H27 H 0.19934 0.01637 0.81495 0.0
H28 H 0.15804 0.02375 0.79173 0.0
C29 C 0.18597 0.016 0.78763 0.0
H30 H 0.1867 0.98885 0.7762 0.0
H31 H 0.26119 0.98882 0.83666 0.0
O32 O 0.29586 0.10271 0.6687 0.0
C33 C 0.33494 0.03996 0.76458 0.0
Co34 Co 0.96161 0.78293 0.93883 0.0
Co35 Co 0.01857 0.76193 -0.00321 0.0
C36 C 0.03514 0.78026 0.91621 0.0
O37 O 0.00317 0.78299 0.90643 0.0
O38 O 0.04326 0.7735 0.94967 0.0
C39 C 0.91983 0.79662 0.87441 0.0
O40 O 0.94836 0.78727 0.85613 0.0
C41 C 0.07587 0.71529 0.0159 0.0
C42 C 0.08277 0.72468 0.0761 0.0
C43 C 0.09534 0.70483 0.04642 0.0
N44 N 0.05255 0.7397 0.02721 0.0
N45 N 0.05698 0.74554 0.0631 0.0
C46 C 0.08105 0.70518 0.97592 0.0
H47 H 0.09004 0.72864 0.96034 0.0
H48 H 0.05556 0.69653 0.96392 0.0
H49 H 0.10133 0.68463 0.97178 0.0
C50 C 0.93109 0.71473 0.96242 0.0
N51 N 0.95651 0.73946 0.96331 0.0
N52 N 0.9793 0.73165 0.98934 0.0
C53 C 0.96834 0.70247 0.00712 0.0
C54 C 0.93747 0.69034 0.99039 0.0
C55 C 0.90175 0.71458 0.93478 0.0
H56 H 0.88058 0.73253 0.94462 0.0
H57 H 0.91147 0.72445 0.90766 0.0
H58 H 0.89076 0.68768 0.93099 0.0
O59 O 0.96689 0.8225 0.97507 0.0
O60 O 0.00364 0.80646 0.01975 0.0
H61 H 0.99475 0.71232 0.05869 0.0
H62 H 0.96536 0.67528 0.05993 0.0
C63 C 0.98462 0.68966 0.04241 0.0
H64 H 0.007 0.67194 0.03559 0.0
H65 H 0.04216 0.76343 0.07876 0.0
O66 O 0.91943 0.79479 0.90963 0.0
C67 C 0.98297 0.8289 0.00541 0.0
Co68 Co 0.21246 0.45743 0.19384 0.0
Co69 Co 0.23917 0.52138 0.24115 0.0
C70 C 0.22764 0.52683 0.15903 0.0
O71 O 0.21899 0.49447 0.1564 0.0
O72 O 0.23571 0.54068 0.19022 0.0
C73 C 0.21003 0.4022 0.13772 0.0
O74 O 0.2364 0.41838 0.12131 0.0
C75 C 0.27222 0.58718 0.26722 0.0
C76 C 0.27795 0.57624 0.32712 0.0
C77 C 0.2848 0.60135 0.30022 0.0
N78 N 0.25932 0.55488 0.27423 0.0
N79 N 0.26217 0.54881 0.3102 0.0
C80 C 0.26881 0.60521 0.23057 0.0
H81 H 0.28665 0.59248 0.21003 0.0
H82 H 0.27476 0.63378 0.23258 0.0
H83 H 0.24136 0.60218 0.22068 0.0
C84 C 0.27718 0.42501 0.22412 0.0
N85 N 0.25384 0.45164 0.22193 0.0
N86 N 0.26616 0.4792 0.24015 0.0
C87 C 0.29835 0.47134 0.25332 0.0
C88 C 0.30618 0.43683 0.24366 0.0
C89 C 0.27276 0.38972 0.20601 0.0
H90 H 0.2451 0.38069 0.20894 0.0
H91 H 0.27903 0.39201 0.17601 0.0
H92 H 0.29071 0.36994 0.21834 0.0
O93 O 0.17176 0.47068 0.22473 0.0
O94 O 0.19115 0.51399 0.26076 0.0
H95 H 0.3494 0.48752 0.27422 0.0
H96 H 0.32043 0.52301 0.26082 0.0
C97 C 0.32166 0.49661 0.27382 0.0
H98 H 0.31238 0.49884 0.30297 0.0
H99 H 0.25375 0.52569 0.32308 0.0
O100 O 0.19795 0.41396 0.16828 0.0
C101 C 0.16679 0.4933 0.25036 0.0
Co102 Co 0.53773 0.7071 0.4393 0.0
Co103 Co 0.48418 0.72755 0.50184 0.0
C104 C 0.46476 0.72286 0.42037 0.0
O105 O 0.49615 0.71782 0.40935 0.0
O106 O 0.45737 0.72506 0.45477 0.0
C107 C 0.56812 0.67559 0.37728 0.0
O108 O 0.53528 0.66507 0.37414 0.0
C109 C 0.43966 0.78286 0.53115 0.0
C110 C 0.42468 0.76365 0.58684 0.0
C111 C 0.42113 0.79208 0.56303 0.0
N112 N 0.45406 0.75093 0.53623 0.0
N113 N 0.44484 0.73939 0.56944 0.0
C114 C 0.4432 0.80352 0.4959 0.0
H115 H 0.44933 0.78619 0.47205 0.0
H116 H 0.46526 0.82254 0.4985 0.0
H117 H 0.41864 0.81832 0.49013 0.0
C118 C 0.57568 0.76914 0.47056 0.0
N119 N 0.5487 0.74599 0.46985 0.0
N120 N 0.52668 0.75342 0.49708 0.0
C121 C 0.53954 0.7807 0.51682 0.0
C122 C 0.57039 0.79217 0.50013 0.0
C123 C 0.60517 0.76947 0.44293 0.0
H124 H 0.62333 0.74735 0.449 0.0
H125 H 0.59457 0.76527 0.41456 0.0
H126 H 0.62005 0.79466 0.4441 0.0
O127 O 0.5281 0.66395 0.46964 0.0
O128 O 0.49402 0.67915 0.51755 0.0
H129 H 0.51209 0.771 0.56823 0.0
H130 H 0.54641 0.80372 0.57134 0.0
C131 C 0.52509 0.79305 0.55348 0.0
H132 H 0.50577 0.81445 0.54897 0.0
H133 H 0.45268 0.71521 0.58039 0.0
O134 O 0.57649 0.69536 0.4045 0.0
C135 C 0.51166 0.65618 0.49953 0.0
Co136 Co 0.64671 -0.00245 0.7442 0.0
Co137 Co 0.65895 0.03257 0.82252 0.0
C138 C 0.66648 0.07291 0.75127 0.0
O139 O 0.65981 0.046 0.73128 0.0
O140 O 0.66692 0.07112 0.78653 0.0
C141 C 0.6272 0.97579 0.6699 0.0
O142 O 0.60345 0.00091 0.67172 0.0
C143 C 0.69034 0.07785 0.87939 0.0
C144 C 0.68271 0.04713 0.93069 0.0
C145 C 0.69837 0.07737 0.91685 0.0
N146 N 0.67159 0.04884 0.87108 0.0
N147 N 0.6664 0.03094 0.90206 0.0
C148 C 0.69959 0.10597 0.85204 0.0
H149 H 0.71799 0.09506 0.8309 0.0
H150 H 0.71164 0.12936 0.86557 0.0
H151 H 0.67525 0.11475 0.83794 0.0
C152 C 0.70097 0.94965 0.77187 0.0
N153 N 0.67922 0.97718 0.77702 0.0
N154 N 0.68633 0.99254 0.80896 0.0
C155 C 0.71392 0.97588 0.82461 0.0
C156 C 0.72404 0.94809 0.80153 0.0
C157 C 0.69906 0.92492 0.73936 0.0
H158 H 0.67116 0.91854 0.73327 0.0
H159 H 0.71075 0.93789 0.71465 0.0
H160 H 0.71334 0.89998 0.74477 0.0
O161 O 0.59905 -0.00034 0.76569 0.0
O162 O 0.60751 0.02194 0.82238 0.0
H163 H 0.71758 0.98004 0.88364 0.0
H164 H 0.75966 0.97797 0.86034 0.0
C165 C 0.73252 0.98862 0.85873 0.0
H166 H 0.73386 0.01781 0.85881 0.0
H167 H 0.65308 0.00691 0.90335 0.0
O168 O 0.64699 0.97022 0.69756 0.0
C169 C 0.58725 0.01002 0.79708 0.0
Co170 Co 0.98978 0.14552 -0.00283 0.0
Co171 Co 0.96599 0.15221 0.08013 0.0
C172 C 0.91726 0.16394 0.01395 0.0
O173 O 0.94092 0.16035 0.98909 0.0
O174 O 0.9245 0.1607 0.04822 0.0
C175 C 0.00525 0.1491 0.91727 0.0
O176 O 0.97298 0.16057 0.91238 0.0
C177 C 0.93634 0.19902 0.13435 0.0
C178 C 0.93391 0.16764 0.18578 0.0
C179 C 0.92482 0.20019 0.17107 0.0
N180 N 0.95089 0.1674 0.12782 0.0
N181 N 0.94941 0.1486 0.15855 0.0
C182 C 0.93506 0.22746 0.10564 0.0
H183 H 0.95417 0.22215 0.08297 0.0
H184 H 0.94094 0.25356 0.11828 0.0
H185 H 0.90844 0.22808 0.09307 0.0
C186 C 0.04191 0.19822 0.02249 0.0
N187 N 0.01416 0.17691 0.02869 0.0
N188 N 0.00583 0.178 0.06412 0.0
C189 C 0.02869 0.19924 0.08198 0.0
C190 C 0.05225 0.21301 0.05613 0.0
C191 C 0.05674 0.20553 0.9847 0.0
H192 H 0.03516 0.20654 0.96407 0.0
H193 H 0.07133 0.23088 0.98415 0.0
H194 H 0.07488 0.18385 0.97664 0.0
O195 O 0.98855 0.09738 0.01886 0.0
O196 O 0.97589 0.10132 0.07917 0.0
H197 H 0.05629 0.21038 0.13308 0.0
H198 H 0.01169 0.2264 0.13102 0.0
C199 C 0.02929 0.20421 0.12327 0.0
H200 H 0.01969 0.18005 0.13728 0.0
H201 H 0.95844 0.12278 0.16078 0.0
O202 O 0.0158 0.14164 0.94975 0.0
C203 C 0.98352 0.08308 0.05045 0.0
Co204 Co 0.85333 0.50253 0.22826 0.0
Co205 Co 0.84664 0.49036 0.31352 0.0
C206 C 0.84777 0.43129 0.25502 0.0
O207 O 0.84579 0.45097 0.22662 0.0
O208 O 0.84954 0.44449 0.28744 0.0
C209 C 0.83934 0.51358 0.1495 0.0
O210 O 0.81137 0.49358 0.15376 0.0
C211 C 0.79918 0.45977 0.3658 0.0
C212 C 0.826 0.4643 0.41996 0.0
C213 C 0.79603 0.4509 0.40296 0.0
N214 N 0.82925 0.4778 0.3611 0.0
N215 N 0.84521 0.48067 0.39354 0.0
C216 C 0.77588 0.44846 0.33427 0.0
H217 H 0.76918 0.42006 0.33674 0.0
H218 H 0.78841 0.45354 0.30706 0.0
H219 H 0.75108 0.46379 0.33485 0.0
C220 C 0.79208 0.55023 0.24425 0.0
N221 N 0.81711 0.52696 0.25434 0.0
N222 N 0.8156 0.52275 0.29057 0.0
C223 C 0.79015 0.54362 0.30478 0.0
C224 C 0.77412 0.56142 0.27581 0.0
C225 C 0.78625 0.56274 0.20543 0.0
H226 H 0.81185 0.56945 0.19237 0.0
H227 H 0.77366 0.54138 0.18904 0.0
H228 H 0.76896 0.58631 0.20492 0.0
O229 O 0.89932 0.51107 0.25313 0.0
O230 O 0.89481 0.50898 0.31473 0.0
H231 H 0.80426 0.54092 0.3625 0.0
H232 H 0.76888 0.57088 0.35316 0.0
C233 C 0.7806 0.54526 0.34522 0.0
H234 H 0.76088 0.52455 0.35144 0.0
H235 H 0.86969 0.49269 0.39739 0.0
O236 O 0.85911 0.52023 0.17705 0.0
C237 C 0.91298 0.51386 0.28538 0.0
Co238 Co 0.50715 0.33992 0.46637 0.0
Co239 Co 0.53381 0.33058 0.54768 0.0
C240 C 0.58229 0.33084 0.4807 0.0
O241 O 0.55758 0.33221 0.45707 0.0
O242 O 0.57596 0.33091 0.51534 0.0
C243 C 0.49742 0.35102 0.38801 0.0
O244 O 0.53116 0.35872 0.38755 0.0
C245 C 0.57008 0.28709 0.60092 0.0
C246 C 0.5625 0.31551 0.65411 0.0
C247 C 0.57819 0.28598 0.63838 0.0
N248 N 0.55008 0.31563 0.59482 0.0
N249 N 0.54568 0.33262 0.62666 0.0
C250 C 0.5824 0.26225 0.57096 0.0
H251 H 0.57883 0.27355 0.54306 0.0
H252 H 0.56667 0.23765 0.57173 0.0
H253 H 0.61048 0.25527 0.57523 0.0
C254 C 0.45785 0.28419 0.49008 0.0
N255 N 0.48623 0.30476 0.49599 0.0
N256 N 0.4974 0.30036 0.53016 0.0
C257 C 0.4766 0.27647 0.54717 0.0
C258 C 0.45072 0.26547 0.52232 0.0
C259 C 0.43572 0.28606 0.45579 0.0
H260 H 0.42847 0.31392 0.45059 0.0
H261 H 0.45132 0.27656 0.4316 0.0
H262 H 0.41119 0.27036 0.4582 0.0
O263 O 0.50276 0.38653 0.49066 0.0
O264 O 0.51725 0.38014 0.55012 0.0
H265 H 0.47944 0.28788 0.60544 0.0
H266 H 0.46247 0.24421 0.59497 0.0
C267 C 0.48153 0.26478 0.58652 0.0
H268 H 0.50813 0.25348 0.5896 0.0
H269 H 0.53156 0.35609 0.62956 0.0
O270 O 0.48277 0.34229 0.41838 0.0
C271 C 0.50697 0.39924 0.52321 0.0
H272 H 0.18418 0.08878 0.82328 0.0
H273 H 0.13544 0.1014 0.71567 0.0
H274 H 0.08246 0.1273 0.74616 0.0
H275 H 0.10996 0.06012 0.86971 0.0
H276 H 0.11969 0.08226 0.91292 0.0
H277 H 0.15494 0.06961 0.88215 0.0
H278 H 0.17725 0.13425 0.8805 0.0
H279 H 0.14217 0.14713 0.91157 0.0
H280 H 0.14741 0.16898 0.86755 0.0
H281 H 0.03253 0.14583 0.79013 0.0
H282 H 0.99136 0.15663 0.84257 0.0
H283 H 0.07446 0.13079 0.92026 0.0
C284 C 0.16258 0.09773 0.80616 0.0
C285 C 0.16352 0.09334 0.76734 0.0
C286 C 0.13498 0.10497 0.74555 0.0
C287 C 0.10492 0.11957 0.76263 0.0
C288 C 0.10432 0.12254 0.80134 0.0
C289 C 0.13268 0.11224 0.8227 0.0
C290 C 0.12498 0.11574 0.86371 0.0
C291 C 0.12753 0.0798 0.88325 0.0
C292 C 0.1494 0.14317 0.88189 0.0
C293 C 0.08747 0.12872 0.86234 0.0
C294 C 0.07595 0.13287 0.82625 0.0
C295 C 0.04147 0.14309 0.81848 0.0
C296 C 0.01826 0.14908 0.8484 0.0
C297 C 0.02966 0.14453 0.88551 0.0
C298 C 0.06485 0.13458 0.89228 0.0
H299 H 0.95853 0.62589 0.01562 0.0
H300 H 0.86523 0.68858 0.99525 0.0
H301 H 0.82835 0.64198 0.0227 0.0
H302 H 0.91872 0.53586 0.01056 0.0
H303 H 0.94378 0.52109 0.04995 0.0
H304 H 0.96181 0.55404 0.01933 0.0
H305 H 0.971 0.5962 0.07541 0.0
H306 H 0.95316 0.56346 0.10609 0.0
H307 H 0.93403 0.60692 0.10494 0.0
H308 H 0.80226 0.59235 0.05952 0.0
H309 H 0.79036 0.54898 0.10924 0.0
H310 H 0.90157 0.52417 0.11402 0.0
C311 C 0.93027 0.62956 0.01636 0.0
C312 C 0.91478 0.66067 0.0027 0.0
C313 C 0.8777 0.66451 0.00431 0.0
C314 C 0.8565 0.63818 0.02009 0.0
C315 C 0.8728 0.60844 0.03469 0.0
C316 C 0.90896 0.60426 0.03338 0.0
C317 C 0.9207 0.57355 0.05695 0.0
C318 C 0.93722 0.5444 0.03274 0.0
C319 C 0.9462 0.58578 0.08766 0.0
C320 C 0.88565 0.56192 0.07285 0.0
C321 C 0.85817 0.58146 0.05858 0.0
C322 C 0.8235 0.57659 0.07053 0.0
C323 C 0.81694 0.55187 0.09862 0.0
C324 C 0.84508 0.5333 0.11501 0.0
C325 C 0.87965 0.53788 0.10146 0.0
H326 H 0.3146 0.38536 0.29437 0.0
H327 H 0.37059 0.44738 0.2127 0.0
H328 H 0.4272 0.42229 0.23398 0.0
H329 H 0.37031 0.40046 0.3648 0.0
H330 H 0.36787 0.35751 0.38588 0.0
H331 H 0.3318 0.37322 0.35851 0.0
H332 H 0.33584 0.31775 0.31633 0.0
H333 H 0.37198 0.30168 0.34383 0.0
H334 H 0.37713 0.30665 0.29433 0.0
H335 H 0.47727 0.3992 0.27114 0.0
H336 H 0.51683 0.38122 0.32191 0.0
H337 H 0.42798 0.33452 0.37987 0.0
C338 C 0.33879 0.39238 0.28014 0.0
C339 C 0.33873 0.41765 0.25175 0.0
C340 C 0.37055 0.42754 0.23424 0.0
C341 C 0.40264 0.41335 0.24605 0.0
C342 C 0.40215 0.38923 0.27515 0.0
C343 C 0.37097 0.37858 0.29178 0.0
C344 C 0.37779 0.35638 0.32576 0.0
C345 C 0.36097 0.37291 0.36078 0.0
C346 C 0.36493 0.31835 0.31968 0.0
C347 C 0.41755 0.35808 0.32701 0.0
C348 C 0.43121 0.3763 0.29707 0.0
C349 C 0.467 0.3842 0.29427 0.0
C350 C 0.48926 0.37397 0.32329 0.0
C351 C 0.47545 0.35654 0.35483 0.0
C352 C 0.43936 0.3476 0.35599 0.0
H353 H 0.57801 0.96548 0.61558 0.0
H354 H 0.6819 0.93252 0.65097 0.0
H355 H 0.6836 0.88835 0.60053 0.0
H356 H 0.54604 0.88294 0.60099 0.0
H357 H 0.51947 0.89335 0.56115 0.0
H358 H 0.52963 0.92709 0.59459 0.0
H359 H 0.55619 0.96576 0.54215 0.0
H360 H 0.54625 0.93177 0.50855 0.0
H361 H 0.59065 0.94812 0.51291 0.0
H362 H 0.66994 0.84127 0.55414 0.0
H363 H 0.64032 0.79397 0.51813 0.0
H364 H 0.5463 0.858 0.51178 0.0
C365 C 0.60158 0.94977 0.6119 0.0
C366 C 0.62986 0.95252 0.63701 0.0
C367 C 0.65989 0.93084 0.63201 0.0
C368 C 0.66125 0.90587 0.60322 0.0
C369 C 0.63248 0.90304 0.57952 0.0
C370 C 0.60322 0.92452 0.58348 0.0
C371 C 0.57385 0.91301 0.55786 0.0
C372 C 0.54031 0.90353 0.57998 0.0
C373 C 0.56631 0.94136 0.52863 0.0
C374 C 0.59049 0.88073 0.54032 0.0
C375 C 0.62462 0.87578 0.55247 0.0
C376 C 0.64362 0.84533 0.54358 0.0
C377 C 0.62676 0.81868 0.52303 0.0
C378 C 0.59135 0.8228 0.51212 0.0
C379 C 0.57366 0.85472 0.51944 0.0
H380 H 0.88974 0.1525 0.94504 0.0
H381 H 0.86027 0.17722 0.05883 0.0
H382 H 0.79808 0.16504 0.04392 0.0
H383 H 0.80565 0.1844 0.89967 0.0
H384 H 0.80703 0.14833 0.86688 0.0
H385 H 0.84745 0.16716 0.88415 0.0
H386 H 0.86735 0.1052 0.90557 0.0
H387 H 0.82694 0.08627 0.88906 0.0
H388 H 0.83962 0.08051 0.93685 0.0
H389 H 0.74162 0.13859 0.02012 0.0
H390 H 0.69488 0.1049 0.98731 0.0
H391 H 0.76266 0.09625 0.89061 0.0
C392 C 0.87008 0.15687 0.96643 0.0
C393 C 0.87986 0.16584 0.00304 0.0
C394 C 0.85336 0.17043 0.03051 0.0
C395 C 0.81793 0.1636 0.02231 0.0
C396 C 0.80944 0.15261 0.98646 0.0
C397 C 0.83472 0.14991 0.95878 0.0
C398 C 0.81981 0.13342 0.92391 0.0
C399 C 0.81999 0.15992 0.89175 0.0
C400 C 0.8396 0.09934 0.91327 0.0
C401 C 0.78274 0.12571 0.93688 0.0
C402 C 0.77693 0.13743 0.97278 0.0
C403 C 0.7455 0.13025 0.9916 0.0
C404 C 0.71927 0.11095 0.97297 0.0
C405 C 0.7248 0.09922 0.93609 0.0
C406 C 0.75705 0.10648 0.91814 0.0
H407 H 0.88249 0.25388 0.14378 0.0
H408 H 0.92684 0.21264 0.24572 0.0
H409 H 0.90305 0.26391 0.27997 0.0
H410 H 0.91041 0.3401 0.15982 0.0
H411 H 0.87273 0.36047 0.1385 0.0
H412 H 0.88671 0.31736 0.12358 0.0
H413 H 0.8243 0.2928 0.13743 0.0
H414 H 0.81017 0.3359 0.15266 0.0
H415 H 0.80541 0.29858 0.18308 0.0
H416 H 0.88 0.32195 0.30181 0.0
H417 H 0.86422 0.38436 0.30938 0.0
H418 H 0.84141 0.39093 0.19142 0.0
C419 C 0.888 0.2556 0.17307 0.0
C420 C 0.90771 0.22956 0.1917 0.0
C421 C 0.91201 0.23229 0.23069 0.0
C422 C 0.89853 0.26129 0.25041 0.0
C423 C 0.88078 0.2873 0.23073 0.0
C424 C 0.87566 0.28481 0.19289 0.0
C425 C 0.85954 0.31818 0.17751 0.0
C426 C 0.8838 0.33502 0.14814 0.0
C427 C 0.82266 0.31092 0.16174 0.0
C428 C 0.85755 0.34039 0.21248 0.0
C429 C 0.86893 0.32164 0.24302 0.0
C430 C 0.87081 0.33682 0.27819 0.0
C431 C 0.86178 0.37238 0.28213 0.0
C432 C 0.85172 0.39268 0.2509 0.0
C433 C 0.84887 0.37614 0.2158 0.0
H434 H 0.60357 0.37242 0.42429 0.0
H435 H 0.64264 0.30566 0.51231 0.0
H436 H 0.70328 0.32715 0.50026 0.0
H437 H 0.68151 0.36964 0.36206 0.0
H438 H 0.67699 0.41567 0.35085 0.0
H439 H 0.63851 0.38975 0.36168 0.0
H440 H 0.62171 0.43477 0.41324 0.0
H441 H 0.66039 0.46044 0.40312 0.0
H442 H 0.65283 0.44454 0.44958 0.0
H443 H 0.75887 0.36047 0.48178 0.0
H444 H 0.80435 0.40134 0.45731 0.0
H445 H 0.72526 0.45106 0.38874 0.0
C446 C 0.6251 0.36116 0.43991 0.0
C447 C 0.61878 0.33676 0.46853 0.0
C448 C 0.64728 0.32389 0.48974 0.0
C449 C 0.68168 0.33605 0.48319 0.0
C450 C 0.6868 0.36143 0.4558 0.0
C451 C 0.65921 0.37376 0.4345 0.0
C452 C 0.67054 0.40394 0.41001 0.0
C453 C 0.66666 0.39415 0.3687 0.0
C454 C 0.65016 0.43791 0.41959 0.0
C455 C 0.70875 0.40686 0.42095 0.0
C456 C 0.71793 0.38189 0.44695 0.0
C457 C 0.75201 0.37991 0.46114 0.0
C458 C 0.77754 0.40339 0.44741 0.0
C459 C 0.7686 0.42856 0.42013 0.0
C460 C 0.73348 0.43094 0.40792 0.0
H461 H 0.57539 0.21472 0.62821 0.0
H462 H 0.62569 0.29597 0.69449 0.0
H463 H 0.66054 0.25003 0.7266 0.0
H464 H 0.56761 0.15161 0.69615 0.0
H465 H 0.57658 0.11474 0.66578 0.0
H466 H 0.55777 0.15436 0.64728 0.0
H467 H 0.60915 0.15865 0.59974 0.0
H468 H 0.62826 0.11904 0.61834 0.0
H469 H 0.65397 0.15898 0.61608 0.0
H470 H 0.68614 0.19422 0.75414 0.0
H471 H 0.69785 0.13385 0.7766 0.0
H472 H 0.63373 0.09113 0.68763 0.0
C473 C 0.59477 0.22317 0.64824 0.0
C474 C 0.59886 0.25897 0.65789 0.0
C475 C 0.62258 0.26858 0.68644 0.0
C476 C 0.64264 0.24277 0.70452 0.0
C477 C 0.63867 0.20768 0.69341 0.0
C478 C 0.61528 0.19799 0.66587 0.0
C479 C 0.61407 0.15854 0.66035 0.0
C480 C 0.57682 0.14398 0.66786 0.0
C481 C 0.62715 0.14821 0.62131 0.0
C482 C 0.63977 0.14728 0.68983 0.0
C483 C 0.65391 0.1759 0.70855 0.0
C484 C 0.67569 0.17166 0.73929 0.0
C485 C 0.68212 0.13732 0.75192 0.0
C486 C 0.66684 0.10789 0.73373 0.0
C487 C 0.64653 0.11304 0.70155 0.0
H488 H 0.76157 0.62064 0.31753 0.0
H489 H 0.71321 0.54872 0.2389 0.0
H490 H 0.65556 0.57736 0.24954 0.0
H491 H 0.69619 0.61447 0.38277 0.0
H492 H 0.69787 0.65965 0.39849 0.0
H493 H 0.7364 0.63949 0.37852 0.0
H494 H 0.74041 0.68925 0.32961 0.0
H495 H 0.70192 0.70981 0.34963 0.0
H496 H 0.70283 0.69869 0.30088 0.0
H497 H 0.60247 0.6067 0.27592 0.0
H498 H 0.55745 0.63453 0.3158 0.0
H499 H 0.63973 0.68556 0.38013 0.0
C500 C 0.73886 0.61139 0.30219 0.0
C501 C 0.74149 0.58244 0.27764 0.0
C502 C 0.71156 0.57115 0.25759 0.0
C503 C 0.67879 0.58722 0.2635 0.0
C504 C 0.67662 0.61462 0.28939 0.0
C505 C 0.70591 0.62682 0.30825 0.0
C506 C 0.69582 0.65346 0.33791 0.0
C507 C 0.70724 0.641 0.3767 0.0
C508 C 0.71115 0.68997 0.32896 0.0
C509 C 0.65616 0.65315 0.33394 0.0
C510 C 0.6457 0.63115 0.30526 0.0
C511 C 0.61032 0.62448 0.298 0.0
C512 C 0.58495 0.64031 0.32096 0.0
C513 C 0.59508 0.66225 0.35107 0.0
C514 C 0.63116 0.66924 0.35708 0.0
H515 H 0.40526 0.26549 0.58148 0.0
H516 H 0.42981 0.21012 0.47899 0.0
H517 H 0.38243 0.16706 0.49221 0.0
H518 H 0.39767 0.18905 0.63391 0.0
H519 H 0.3633 0.20542 0.66405 0.0
H520 H 0.39365 0.2357 0.64278 0.0
H521 H 0.34129 0.26997 0.61434 0.0
H522 H 0.31072 0.23955 0.63537 0.0
H523 H 0.30969 0.24684 0.58594 0.0
H524 H 0.33632 0.12737 0.51915 0.0
H525 H 0.3007 0.08986 0.5606 0.0
H526 H 0.31115 0.16756 0.64884 0.0
C527 C 0.40049 0.24439 0.56175 0.0
C528 C 0.42103 0.24103 0.5292 0.0
C529 C 0.41393 0.21333 0.50384 0.0
C530 C 0.3871 0.18884 0.51111 0.0
C531 C 0.36791 0.19233 0.54403 0.0
C532 C 0.37458 0.21919 0.56915 0.0
C533 C 0.35383 0.21432 0.60475 0.0
C534 C 0.37859 0.2109 0.63833 0.0
C535 C 0.32731 0.24447 0.61042 0.0
C536 C 0.33527 0.17991 0.59622 0.0
C537 C 0.34287 0.16825 0.56062 0.0
C538 C 0.32994 0.13636 0.54696 0.0
C539 C 0.30963 0.11529 0.5707 0.0
C540 C 0.30323 0.12584 0.60792 0.0
C541 C 0.31552 0.15895 0.62045 0.0
H542 H 0.85772 0.82016 0.90446 0.0
H543 H 0.91635 0.81382 0.80077 0.0
H544 H 0.87124 0.85033 0.77037 0.0
H545 H 0.76919 0.81827 0.86279 0.0
H546 H 0.75175 0.84898 0.89651 0.0
H547 H 0.78704 0.81972 0.90911 0.0
H548 H 0.82453 0.87351 0.92964 0.0
H549 H 0.78963 0.90299 0.91659 0.0
H550 H 0.83305 0.90844 0.89701 0.0
H551 H 0.82366 0.89249 0.75318 0.0
H552 H 0.77337 0.93341 0.74863 0.0
H553 H 0.74434 0.91061 0.86265 0.0
C554 C 0.86077 0.82586 0.87517 0.0
C555 C 0.89058 0.81416 0.85497 0.0
C556 C 0.89368 0.82239 0.81677 0.0
C557 C 0.86825 0.84318 0.79927 0.0
C558 C 0.83979 0.8552 0.82031 0.0
C559 C 0.83561 0.84646 0.85727 0.0
C560 C 0.80327 0.86383 0.87393 0.0
C561 C 0.77621 0.83604 0.8863 0.0
C562 C 0.81324 0.88866 0.90619 0.0
C563 C 0.79031 0.88428 0.84073 0.0
C564 C 0.81179 0.87894 0.81011 0.0
C565 C 0.80623 0.89633 0.77671 0.0
C566 C 0.77761 0.91941 0.77437 0.0
C567 C 0.75479 0.92458 0.80511 0.0
C568 C 0.76137 0.90695 0.83874 0.0
H569 H 0.05031 0.27215 0.09935 0.0
H570 H 0.1196 0.21045 0.02851 0.0
H571 H 0.16776 0.25325 0.03978 0.0
H572 H 0.08245 0.35776 0.07541 0.0
H573 H 0.07887 0.37479 0.12212 0.0
H574 H 0.04971 0.34024 0.10672 0.0
H575 H 0.06936 0.30116 0.16177 0.0
H576 H 0.09847 0.33565 0.17739 0.0
H577 H 0.11553 0.29212 0.16818 0.0
H578 H 0.20805 0.30386 0.05869 0.0
H579 H 0.238 0.35563 0.08688 0.0
H580 H 0.1428 0.38022 0.14881 0.0
C581 C 0.0757 0.26743 0.0865 0.0
C582 C 0.08127 0.23819 0.06293 0.0
C583 C 0.1147 0.23314 0.04615 0.0
C584 C 0.1422 0.25716 0.05255 0.0
C585 C 0.13582 0.28574 0.07611 0.0
C586 C 0.10345 0.29073 0.09306 0.0
C587 C 0.10355 0.32271 0.11821 0.0
C588 C 0.07708 0.35051 0.10479 0.0
C589 C 0.09632 0.31227 0.15879 0.0
C590 C 0.14108 0.33498 0.11286 0.0
C591 C 0.15925 0.31367 0.08816 0.0
C592 C 0.19415 0.32059 0.07827 0.0
C593 C 0.2109 0.35 0.09428 0.0
C594 C 0.19279 0.37158 0.12022 0.0
C595 C 0.15748 0.36386 0.12945 0.0
H596 H 0.39477 0.71535 0.43485 0.0
H597 H 0.46998 0.72546 0.34451 0.0
H598 H 0.42379 0.70911 0.29982 0.0
H599 H 0.36203 0.64033 0.40829 0.0
H600 H 0.31664 0.64738 0.42117 0.0
H601 H 0.3507 0.6715 0.44442 0.0
H602 H 0.32123 0.73056 0.42665 0.0
H603 H 0.28654 0.70651 0.40356 0.0
H604 H 0.31127 0.73948 0.37868 0.0
H605 H 0.3772 0.676 0.2686 0.0
H606 H 0.3338 0.63033 0.25322 0.0
H607 H 0.28682 0.64169 0.36254 0.0
C608 C 0.40107 0.71576 0.40549 0.0
C609 C 0.43589 0.72166 0.39312 0.0
C610 C 0.44342 0.72108 0.3546 0.0
C611 C 0.41725 0.71205 0.32896 0.0
C612 C 0.38367 0.704 0.34228 0.0
C613 C 0.37534 0.70631 0.37968 0.0
C614 C 0.33974 0.68999 0.38781 0.0
C615 C 0.34249 0.66057 0.4171 0.0
C616 C 0.31312 0.71834 0.39988 0.0
C617 C 0.33085 0.67535 0.34982 0.0
C618 C 0.35592 0.68475 0.32367 0.0
C619 C 0.35647 0.66979 0.28823 0.0
C620 C 0.33143 0.64394 0.27959 0.0
C621 C 0.30605 0.63345 0.30624 0.0
C622 C 0.30528 0.6501 0.34133 0.0
H623 H 0.28471 0.91436 0.67032 0.0
H624 H 0.3326 0.00338 0.61392 0.0
H625 H 0.36737 0.96252 0.57527 0.0
H626 H 0.35876 0.86501 0.67847 0.0
H627 H 0.3389 0.82254 0.66995 0.0
H628 H 0.31277 0.85794 0.68876 0.0
H629 H 0.2684 0.85176 0.63465 0.0
H630 H 0.29399 0.81573 0.61597 0.0
H631 H 0.2841 0.85327 0.58734 0.0
H632 H 0.40564 0.9139 0.55326 0.0
H633 H 0.43832 0.85943 0.54092 0.0
H634 H 0.36314 0.80057 0.60732 0.0
C635 C 0.30172 0.92527 0.64918 0.0
C636 C 0.30608 0.96208 0.64545 0.0
C637 C 0.32866 0.97528 0.61731 0.0
C638 C 0.34866 0.95228 0.59525 0.0
C639 C 0.34519 0.91621 0.60114 0.0
C640 C 0.32164 0.90266 0.6267 0.0
C641 C 0.32477 0.86293 0.62931 0.0
C642 C 0.33438 0.85146 0.66897 0.0
C643 C 0.29079 0.84486 0.61601 0.0
C644 C 0.35487 0.85652 0.60245 0.0
C645 C 0.36616 0.88762 0.58649 0.0
C646 C 0.39599 0.88909 0.56403 0.0
C647 C 0.41421 0.85777 0.55679 0.0
C648 C 0.4021 0.82524 0.57123 0.0
C649 C 0.37234 0.82484 0.59486 0.0
H650 H 0.1049 0.79088 0.93113 0.0
H651 H 0.0286 0.79261 0.84162 0.0
H652 H 0.07291 0.81982 0.80058 0.0
H653 H 0.13668 0.87208 0.91756 0.0
H654 H 0.18216 0.8631 0.92808 0.0
H655 H 0.14808 0.8361 0.94777 0.0
H656 H 0.17696 0.78008 0.91976 0.0
H657 H 0.21162 0.80689 0.90032 0.0
H658 H 0.18636 0.77805 0.87066 0.0
H659 H 0.11922 0.8583 0.77476 0.0
H660 H 0.16601 0.90184 0.76414 0.0
H661 H 0.21433 0.87356 0.86876 0.0
C662 C 0.09789 0.79565 0.90247 0.0
C663 C 0.0633 0.78953 0.88956 0.0
C664 C 0.05496 0.79697 0.85211 0.0
C665 C 0.08001 0.81232 0.82853 0.0
C666 C 0.11334 0.81967 0.84271 0.0
C667 C 0.12254 0.81109 0.87865 0.0
C668 C 0.15841 0.82581 0.88861 0.0
C669 C 0.15616 0.85075 0.92248 0.0
C670 C 0.18491 0.79592 0.89521 0.0
C671 C 0.16703 0.84571 0.85341 0.0
C672 C 0.14094 0.84132 0.82707 0.0
C673 C 0.14067 0.86066 0.79432 0.0
C674 C 0.16768 0.88514 0.78833 0.0
C675 C 0.19496 0.8897 0.81467 0.0
C676 C 0.19455 0.8696 0.84753 0.0
H677 H 0.15352 0.70427 0.09016 0.0
H678 H 0.09435 0.64006 0.01246 0.0
H679 H 0.13629 0.59158 0.02056 0.0
H680 H 0.24442 0.6637 0.07359 0.0
H681 H 0.25379 0.66493 0.12264 0.0
H682 H 0.2266 0.69857 0.10221 0.0
H683 H 0.17682 0.68465 0.14948 0.0
H684 H 0.20398 0.6515 0.17008 0.0
H685 H 0.16077 0.64003 0.15323 0.0
H686 H 0.17632 0.547 0.04483 0.0
H687 H 0.20407 0.50764 0.09001 0.0
H688 H 0.23595 0.59845 0.15561 0.0
C689 C 0.15034 0.68043 0.07381 0.0
C690 C 0.12203 0.67673 0.04887 0.0
C691 C 0.11734 0.64451 0.02952 0.0
C692 C 0.14096 0.61664 0.0342 0.0
C693 C 0.16872 0.62108 0.05897 0.0
C694 C 0.17329 0.65207 0.07885 0.0
C695 C 0.20032 0.64765 0.10927 0.0
C696 C 0.23324 0.67004 0.10144 0.0
C697 C 0.1845 0.65644 0.14775 0.0
C698 C 0.20825 0.60871 0.10508 0.0
C699 C 0.19091 0.59426 0.07492 0.0
C700 C 0.19058 0.55807 0.06811 0.0
C701 C 0.20644 0.53586 0.09404 0.0
C702 C 0.22175 0.54996 0.12674 0.0
C703 C 0.22454 0.58689 0.13096 0.0
H704 H 0.54114 0.03057 0.74475 0.0
H705 H 0.54746 -0.00097 0.86009 0.0
H706 H 0.48279 0.00751 0.86671 0.0
H707 H 0.47705 0.09965 0.75998 0.0
H708 H 0.45544 0.09182 0.7162 0.0
H709 H 0.50175 0.08265 0.72095 0.0
H710 H 0.49152 0.01819 0.69901 0.0
H711 H 0.44535 0.02731 0.69369 0.0
H712 H 0.45933 0.99137 0.72266 0.0
H713 H 0.41622 0.0146 0.85782 0.0
H714 H 0.35501 0.02269 0.83551 0.0
H715 H 0.39531 0.05622 0.72851 0.0
C716 C 0.52886 0.02512 0.77134 0.0
C717 C 0.54889 0.01344 0.80174 0.0
C718 C 0.53225 0.0076 0.83641 0.0
C719 C 0.49569 0.01248 0.84039 0.0
C720 C 0.47666 0.0242 0.80972 0.0
C721 C 0.49289 0.03087 0.77603 0.0
C722 C 0.46709 0.04384 0.74741 0.0
C723 C 0.47586 0.08174 0.73545 0.0
C724 C 0.46574 0.01867 0.71373 0.0
C725 C 0.43342 0.04254 0.76982 0.0
C726 C 0.43927 0.03098 0.80565 0.0
C727 C 0.41145 0.02446 0.83013 0.0
C728 C 0.37684 0.02918 0.81732 0.0
C729 C 0.37057 0.04092 0.78066 0.0
C730 C 0.39933 0.04843 0.7571 0.0
H731 H 0.97108 0.03668 0.9944 0.0
H732 H -0.00354 0.04208 0.11171 0.0
H733 H -0.00336 0.97671 0.11437 0.0
H734 H 0.91172 0.96282 0.0012 0.0
H735 H 0.92506 0.94448 0.95704 0.0
H736 H 0.92727 0.99139 0.96476 0.0
H737 H 0.99355 0.9912 0.94701 0.0
H738 H 0.99148 0.94438 0.93897 0.0
H739 H 0.02322 0.96222 0.97111 0.0
H740 H -0.00247 0.91031 0.10231 0.0
H741 H -0.00367 0.84922 0.07747 0.0
H742 H 0.96596 0.88927 0.96956 0.0
C743 C 0.97687 0.02417 0.02066 0.0
C744 C 0.98417 0.0443 0.05277 0.0
C745 C 0.99094 0.027 0.08676 0.0
C746 C 0.99106 0.98998 0.08851 0.0
C747 C 0.9837 0.97091 0.05619 0.0
C748 C 0.9764 0.98754 0.02303 0.0
C749 C 0.96892 0.9614 0.99227 0.0
C750 C 0.93099 0.96526 0.978 0.0
C751 C -0.00409 0.96502 0.96049 0.0
C752 C 0.97369 0.92731 0.01307 0.0
C753 C 0.98238 0.93317 0.04985 0.0
C754 C 0.99022 0.90542 0.07371 0.0
C755 C 0.98948 0.87088 0.05941 0.0
C756 C 0.98053 0.86455 0.02179 0.0
C757 C 0.97208 0.89319 -0.00134 0.0
H758 H 0.10666 0.4852 0.21158 0.0
H759 H 0.14616 0.5153 0.32008 0.0
H760 H 0.08491 0.52694 0.3414 0.0
H761 H 0.04038 0.55265 0.20767 0.0
H762 H 0.00963 0.52503 0.1829 0.0
H763 H 0.05629 0.51827 0.17719 0.0
H764 H 0.04927 0.45282 0.19664 0.0
H765 H 0.0026 0.4593 0.20194 0.0
H766 H 0.02803 0.44255 0.24015 0.0
H767 H 0.01798 0.53187 0.35083 0.0
H768 H 0.95275 0.53189 0.34673 0.0
H769 H 0.96039 0.50372 0.22992 0.0
C770 C 0.10242 0.49382 0.24 0.0
C771 C 0.13083 0.49872 0.26451 0.0
C772 C 0.12447 0.51106 0.3011 0.0
C773 C 0.0899 0.51782 0.31333 0.0
C774 C 0.06238 0.5129 0.28822 0.0
C775 C 0.06848 0.50153 0.2522 0.0
C776 C 0.03493 0.49919 0.23007 0.0
C777 C 0.03535 0.52535 0.19754 0.0
C778 C 0.02833 0.46121 0.21642 0.0
C779 C 0.0087 0.51008 0.25949 0.0
C780 C 0.02477 0.51784 0.29293 0.0
C781 C 0.00519 0.52635 0.32462 0.0
C782 C 0.96823 0.52633 0.32205 0.0
C783 C 0.95151 0.51824 0.28792 0.0
C784 C 0.97224 0.51072 0.25627 0.0
H785 H 0.51324 0.44896 0.46971 0.0
H786 H 0.49534 0.4365 0.58806 0.0
H787 H 0.49439 0.50159 0.59553 0.0
H788 H 0.57276 0.52049 0.4778 0.0
H789 H 0.55763 0.54209 0.43634 0.0
H790 H 0.55433 0.4949 0.44025 0.0
H791 H 0.48724 0.49803 0.4275 0.0
H792 H 0.49037 0.5452 0.42316 0.0
H793 H 0.45989 0.52619 0.45596 0.0
H794 H 0.49484 0.56863 0.58902 0.0
H795 H 0.49913 0.63115 0.56981 0.0
H796 H 0.52121 0.59762 0.45666 0.0
C797 C 0.50851 0.45981 0.49718 0.0
C798 C 0.5038 0.43775 0.52827 0.0
C799 C 0.4987 0.45303 0.56386 0.0
C800 C 0.49815 0.48989 0.56832 0.0
C801 C 0.50332 0.51085 0.537 0.0
C802 C 0.50861 0.49624 0.50219 0.0
C803 C 0.51524 0.52413 0.47317 0.0
C804 C 0.55218 0.52016 0.45589 0.0
C805 C 0.48647 0.52334 0.44319 0.0
C806 C 0.5127 0.55691 0.49698 0.0
C807 C 0.50549 0.54888 0.53366 0.0
C808 C 0.50076 0.57517 0.56044 0.0
C809 C 0.50325 0.61054 0.5493 0.0
C810 C 0.51093 0.61914 0.51187 0.0
C811 C 0.51595 0.59187 0.48561 0.0
loop_
_geom_bond_atom_site_label_1
_geom_bond_atom_site_label_2
_geom_bond_distance
_geom_bond_site_symmetry_2
_ccdc_geom_bond_type
Co0 O3 1.970 1_545 S
Co0 N17 1.989 . S
Co0 O25 1.967 . S
Co0 O32 1.920 . S
Co1 O4 1.966 . S
Co1 N10 2.022 . S
Co1 N18 1.993 1_565 S
Co1 O26 1.941 . S
C2 O3 1.258 . S
C2 O4 1.263 . S
O3 Co0 1.970 1_565 S
O3 C2 1.258 . S
O4 Co1 1.966 . S
O4 C2 1.263 . S
C5 O6 1.235 . S
C5 O32 1.289 . S
O6 C5 1.235 . S
C7 C9 1.400 . S
C7 N10 1.351 . S
C7 C12 1.501 . S
C8 C9 1.387 . S
C8 N11 1.341 . S
C9 C7 1.400 . S
C9 C8 1.387 . S
N10 Co1 2.022 . S
N10 C7 1.351 . S
N10 N11 1.365 . S
N11 C8 1.341 . S
N11 N10 1.365 . S
N11 H31 0.862 . S
C12 C7 1.501 . S
C12 H13 0.961 . S
C12 H14 0.961 . S
C12 H15 0.960 . S
H13 C12 0.961 . S
H14 C12 0.961 . S
H15 C12 0.960 . S
C16 N17 1.342 . S
C16 C20 1.401 . S
C16 C21 1.499 . S
N17 Co0 1.989 . S
N17 C16 1.342 . S
N17 N18 1.388 . S
N18 Co1 1.993 1_545 S
N18 N17 1.388 . S
N18 C19 1.346 . S
C19 N18 1.346 . S
C19 C20 1.396 . S
C19 C29 1.510 . S
C20 C16 1.401 . S
C20 C19 1.396 . S
C21 C16 1.499 . S
C21 H22 0.959 . S
C21 H23 0.960 . S
C21 H24 0.961 . S
H22 C21 0.959 . S
H23 C21 0.960 . S
H24 C21 0.961 . S
O25 Co0 1.967 . S
O25 C33 1.243 1_545 S
O26 Co1 1.941 . S
O26 C33 1.283 . S
H27 C29 0.959 . S
H28 C29 0.961 . S
C29 C19 1.510 . S
C29 H27 0.959 . S
C29 H28 0.961 . S
C29 H30 0.960 1_545 S
H30 C29 0.960 1_565 S
H31 N11 0.862 . S
O32 Co0 1.920 . S
O32 C5 1.289 . S
C33 O25 1.243 1_565 S
C33 O26 1.283 . S
Co34 O37 1.970 1_655 S
Co34 N51 1.989 1_556 S
Co34 O59 1.956 1_556 S
Co34 O66 1.920 . S
Co35 O38 1.966 1_554 S
Co35 N44 2.022 . S
Co35 N52 1.993 1_455 S
Co35 O60 1.941 . S
C36 O37 1.258 . S
C36 O38 1.263 . S
O37 Co34 1.970 1_455 S
O37 C36 1.258 . S
O38 Co35 1.966 1_556 S
O38 C36 1.263 . S
C39 O40 1.235 . S
C39 O66 1.289 . S
O40 C39 1.235 . S
C41 C43 1.400 . S
C41 N44 1.351 . S
C41 C46 1.501 . S
C42 C43 1.387 . S
C42 N45 1.341 . S
C43 C41 1.400 . S
C43 C42 1.387 . S
N44 Co35 2.022 . S
N44 C41 1.351 . S
N44 N45 1.365 . S
N45 C42 1.341 . S
N45 N44 1.365 . S
N45 H65 0.862 . S
C46 C41 1.501 . S
C46 H47 0.961 . S
C46 H48 0.961 . S
C46 H49 0.960 . S
H47 C46 0.961 . S
H48 C46 0.961 . S
H49 C46 0.960 . S
C50 N51 1.342 . S
C50 C54 1.401 . S
C50 C55 1.499 1_554 S
N51 Co34 1.989 1_554 S
N51 C50 1.342 . S
N51 N52 1.388 . S
N52 Co35 1.993 1_655 S
N52 N51 1.388 . S
N52 C53 1.346 . S
C53 N52 1.346 . S
C53 C54 1.396 . S
C53 C63 1.510 1_655 S
C54 C50 1.401 . S
C54 C53 1.396 . S
C55 C50 1.499 1_556 S
C55 H56 0.959 . S
C55 H57 0.960 . S
C55 H58 0.961 1_556 S
H56 C55 0.959 . S
H57 C55 0.960 . S
H58 C55 0.961 1_554 S
O59 Co34 1.956 1_554 S
O59 C67 1.274 1_655 S
O60 Co35 1.941 . S
O60 C67 1.266 . S
H61 C63 0.959 1_655 S
H62 C63 0.961 . S
C63 C53 1.510 1_455 S
C63 H61 0.959 1_455 S
C63 H62 0.961 . S
C63 H64 0.960 . S
H64 C63 0.960 . S
H65 N45 0.862 . S
O66 Co34 1.920 . S
O66 C39 1.289 . S
C67 O59 1.274 1_455 S
C67 O60 1.266 . S
Co68 O71 1.970 . S
Co68 N85 1.989 . S
Co68 O93 1.967 . S
Co68 O100 1.920 . S
Co69 O72 1.966 . S
Co69 N78 2.022 . S
Co69 N86 1.993 . S
Co69 O94 1.941 . S
C70 O71 1.258 . S
C70 O72 1.263 . S
O71 Co68 1.970 . S
O71 C70 1.258 . S
O72 Co69 1.966 . S
O72 C70 1.263 . S
C73 O74 1.235 . S
C73 O100 1.289 . S
O74 C73 1.235 . S
C75 C77 1.400 . S
C75 N78 1.351 . S
C75 C80 1.501 . S
C76 C77 1.387 . S
C76 N79 1.341 . S
C77 C75 1.400 . S
C77 C76 1.387 . S
N78 Co69 2.022 . S
N78 C75 1.351 . S
N78 N79 1.365 . S
N79 C76 1.341 . S
N79 N78 1.365 . S
N79 H99 0.862 . S
C80 C75 1.501 . S
C80 H81 0.961 . S
C80 H82 0.961 . S
C80 H83 0.960 . S
H81 C80 0.961 . S
H82 C80 0.961 . S
H83 C80 0.960 . S
C84 N85 1.342 . S
C84 C88 1.401 . S
C84 C89 1.499 . S
N85 Co68 1.989 . S
N85 C84 1.342 . S
N85 N86 1.388 . S
N86 Co69 1.993 . S
N86 N85 1.388 . S
N86 C87 1.346 . S
C87 N86 1.346 . S
C87 C88 1.396 . S
C87 C97 1.510 . S
C88 C84 1.401 . S
C88 C87 1.396 . S
C89 C84 1.499 . S
C89 H90 0.959 . S
C89 H91 0.960 . S
C89 H92 0.961 . S
H90 C89 0.959 . S
H91 C89 0.960 . S
H92 C89 0.961 . S
O93 Co68 1.967 . S
O93 C101 1.258 . S
O94 Co69 1.941 . S
O94 C101 1.266 . S
H95 C97 0.959 . S
H96 C97 0.961 . S
C97 C87 1.510 . S
C97 H95 0.959 . S
C97 H96 0.961 . S
C97 H98 0.960 . S
H98 C97 0.960 . S
H99 N79 0.862 . S
O100 Co68 1.920 . S
O100 C73 1.289 . S
C101 O93 1.258 . S
C101 O94 1.266 . S
Co102 O105 1.970 . S
Co102 N119 1.989 . S
Co102 O127 1.967 . S
Co102 O134 1.920 . S
Co103 O106 1.966 . S
Co103 N112 2.022 . S
Co103 N120 1.993 . S
Co103 O128 1.941 . S
C104 O105 1.258 . S
C104 O106 1.263 . S
O105 Co102 1.970 . S
O105 C104 1.258 . S
O106 Co103 1.966 . S
O106 C104 1.263 . S
C107 O108 1.235 . S
C107 O134 1.289 . S
O108 C107 1.235 . S
C109 C111 1.400 . S
C109 N112 1.351 . S
C109 C114 1.501 . S
C110 C111 1.387 . S
C110 N113 1.341 . S
C111 C109 1.400 . S
C111 C110 1.387 . S
N112 Co103 2.022 . S
N112 C109 1.351 . S
N112 N113 1.365 . S
N113 C110 1.341 . S
N113 N112 1.365 . S
N113 H133 0.862 . S
C114 C109 1.501 . S
C114 H115 0.961 . S
C114 H116 0.961 . S
C114 H117 0.960 . S
H115 C114 0.961 . S
H116 C114 0.961 . S
H117 C114 0.960 . S
C118 N119 1.342 . S
C118 C122 1.401 . S
C118 C123 1.499 . S
N119 Co102 1.989 . S
N119 C118 1.342 . S
N119 N120 1.388 . S
N120 Co103 1.993 . S
N120 N119 1.388 . S
N120 C121 1.346 . S
C121 N120 1.346 . S
C121 C122 1.396 . S
C121 C131 1.510 . S
C122 C118 1.401 . S
C122 C121 1.396 . S
C123 C118 1.499 . S
C123 H124 0.959 . S
C123 H125 0.960 . S
C123 H126 0.961 . S
H124 C123 0.959 . S
H125 C123 0.960 . S
H126 C123 0.961 . S
O127 Co102 1.967 . S
O127 C135 1.258 . S
O128 Co103 1.941 . S
O128 C135 1.266 . S
H129 C131 0.959 . S
H130 C131 0.961 . S
C131 C121 1.510 . S
C131 H129 0.959 . S
C131 H130 0.961 . S
C131 H132 0.960 . S
H132 C131 0.960 . S
H133 N113 0.862 . S
O134 Co102 1.920 . S
O134 C107 1.289 . S
C135 O127 1.258 . S
C135 O128 1.266 . S
Co136 O139 1.970 1_565 S
Co136 N153 1.989 . S
Co136 O161 1.967 . S
Co136 O168 1.920 . S
Co137 O140 1.966 . S
Co137 N146 2.022 . S
Co137 N154 1.993 1_545 S
Co137 O162 1.941 . S
C138 O139 1.258 . S
C138 O140 1.263 . S
O139 Co136 1.970 1_545 S
O139 C138 1.258 . S
O140 Co137 1.966 . S
O140 C138 1.263 . S
C141 O142 1.235 . S
C141 O168 1.289 . S
O142 C141 1.235 . S
C143 C145 1.400 . S
C143 N146 1.351 . S
C143 C148 1.501 . S
C144 C145 1.387 . S
C144 N147 1.341 . S
C145 C143 1.400 . S
C145 C144 1.387 . S
N146 Co137 2.022 . S
N146 C143 1.351 . S
N146 N147 1.365 . S
N147 C144 1.341 . S
N147 N146 1.365 . S
N147 H167 0.862 . S
C148 C143 1.501 . S
C148 H149 0.961 . S
C148 H150 0.961 . S
C148 H151 0.960 . S
H149 C148 0.961 . S
H150 C148 0.961 . S
H151 C148 0.960 . S
C152 N153 1.342 . S
C152 C156 1.401 . S
C152 C157 1.499 . S
N153 Co136 1.989 . S
N153 C152 1.342 . S
N153 N154 1.388 . S
N154 Co137 1.993 1_565 S
N154 N153 1.388 . S
N154 C155 1.346 . S
C155 N154 1.346 . S
C155 C156 1.396 . S
C155 C165 1.510 1_565 S
C156 C152 1.401 . S
C156 C155 1.396 . S
C157 C152 1.499 . S
C157 H158 0.959 . S
C157 H159 0.960 . S
C157 H160 0.961 . S
H158 C157 0.959 . S
H159 C157 0.960 . S
H160 C157 0.961 . S
O161 Co136 1.967 . S
O161 C169 1.258 1_565 S
O162 Co137 1.941 . S
O162 C169 1.266 . S
H163 C165 0.959 1_565 S
H164 C165 0.961 . S
C165 C155 1.510 1_545 S
C165 H163 0.959 1_545 S
C165 H164 0.961 . S
C165 H166 0.960 . S
H166 C165 0.960 . S
H167 N147 0.862 . S
O168 Co136 1.920 . S
O168 C141 1.289 . S
C169 O161 1.258 1_545 S
C169 O162 1.266 . S
Co170 O173 1.970 1_455 S
Co170 N187 1.989 1_556 S
Co170 O195 1.959 1_556 S
Co170 O202 1.920 . S
Co171 O174 1.966 1_554 S
Co171 N180 2.022 . S
Co171 N188 1.993 1_655 S
Co171 O196 1.941 . S
C172 O173 1.258 . S
C172 O174 1.263 . S
O173 Co170 1.970 1_655 S
O173 C172 1.258 . S
O174 Co171 1.966 1_556 S
O174 C172 1.263 . S
C175 O176 1.235 . S
C175 O202 1.289 . S
O176 C175 1.235 . S
C177 C179 1.400 . S
C177 N180 1.351 . S
C177 C182 1.501 . S
C178 C179 1.387 . S
C178 N181 1.341 . S
C179 C177 1.400 . S
C179 C178 1.387 . S
N180 Co171 2.022 . S
N180 C177 1.351 . S
N180 N181 1.365 . S
N181 C178 1.341 . S
N181 N180 1.365 . S
N181 H201 0.862 . S
C182 C177 1.501 . S
C182 H183 0.961 . S
C182 H184 0.961 . S
C182 H185 0.960 . S
H183 C182 0.961 . S
H184 C182 0.961 . S
H185 C182 0.960 . S
C186 N187 1.342 . S
C186 C190 1.401 . S
C186 C191 1.499 1_554 S
N187 Co170 1.989 1_554 S
N187 C186 1.342 . S
N187 N188 1.388 . S
N188 Co171 1.993 1_455 S
N188 N187 1.388 . S
N188 C189 1.346 . S
C189 N188 1.346 . S
C189 C190 1.396 . S
C189 C199 1.510 . S
C190 C186 1.401 . S
C190 C189 1.396 . S
C191 C186 1.499 1_556 S
C191 H192 0.959 . S
C191 H193 0.960 . S
C191 H194 0.961 1_556 S
H192 C191 0.959 . S
H193 C191 0.960 . S
H194 C191 0.961 1_554 S
O195 Co170 1.959 1_554 S
O195 C203 1.252 1_455 S
O196 Co171 1.941 . S
O196 C203 1.285 . S
H197 C199 0.959 . S
H198 C199 0.961 . S
C199 C189 1.510 . S
C199 H197 0.959 . S
C199 H198 0.961 . S
C199 H200 0.960 1_455 S
H200 C199 0.960 1_655 S
H201 N181 0.862 . S
O202 Co170 1.920 . S
O202 C175 1.289 . S
C203 O195 1.252 1_655 S
C203 O196 1.285 . S
Co204 O207 1.970 . S
Co204 N221 1.989 . S
Co204 O229 1.967 . S
Co204 O236 1.920 . S
Co205 O208 1.966 . S
Co205 N214 2.022 . S
Co205 N222 1.993 . S
Co205 O230 1.941 . S
C206 O207 1.258 . S
C206 O208 1.263 . S
O207 Co204 1.970 . S
O207 C206 1.258 . S
O208 Co205 1.966 . S
O208 C206 1.263 . S
C209 O210 1.235 . S
C209 O236 1.289 . S
O210 C209 1.235 . S
C211 C213 1.400 . S
C211 N214 1.351 . S
C211 C216 1.501 . S
C212 C213 1.387 . S
C212 N215 1.341 . S
C213 C211 1.400 . S
C213 C212 1.387 . S
N214 Co205 2.022 . S
N214 C211 1.351 . S
N214 N215 1.365 . S
N215 C212 1.341 . S
N215 N214 1.365 . S
N215 H235 0.862 . S
C216 C211 1.501 . S
C216 H217 0.961 . S
C216 H218 0.961 . S
C216 H219 0.960 . S
H217 C216 0.961 . S
H218 C216 0.961 . S
H219 C216 0.960 . S
C220 N221 1.342 . S
C220 C224 1.401 . S
C220 C225 1.499 . S
N221 Co204 1.989 . S
N221 C220 1.342 . S
N221 N222 1.388 . S
N222 Co205 1.993 . S
N222 N221 1.388 . S
N222 C223 1.346 . S
C223 N222 1.346 . S
C223 C224 1.396 . S
C223 C233 1.510 . S
C224 C220 1.401 . S
C224 C223 1.396 . S
C225 C220 1.499 . S
C225 H226 0.959 . S
C225 H227 0.960 . S
C225 H228 0.961 . S
H226 C225 0.959 . S
H227 C225 0.960 . S
H228 C225 0.961 . S
O229 Co204 1.967 . S
O229 C237 1.258 . S
O230 Co205 1.941 . S
O230 C237 1.266 . S
H231 C233 0.959 . S
H232 C233 0.961 . S
C233 C223 1.510 . S
C233 H231 0.959 . S
C233 H232 0.961 . S
C233 H234 0.960 . S
H234 C233 0.960 . S
H235 N215 0.862 . S
O236 Co204 1.920 . S
O236 C209 1.289 . S
C237 O229 1.258 . S
C237 O230 1.266 . S
Co238 O241 1.970 . S
Co238 N255 1.989 . S
Co238 O263 1.967 . S
Co238 O270 1.920 . S
Co239 O242 1.966 . S
Co239 N248 2.022 . S
Co239 N256 1.993 . S
Co239 O264 1.941 . S
C240 O241 1.258 . S
C240 O242 1.263 . S
O241 Co238 1.970 . S
O241 C240 1.258 . S
O242 Co239 1.966 . S
O242 C240 1.263 . S
C243 O244 1.235 . S
C243 O270 1.289 . S
O244 C243 1.235 . S
C245 C247 1.400 . S
C245 N248 1.351 . S
C245 C250 1.501 . S
C246 C247 1.387 . S
C246 N249 1.341 . S
C247 C245 1.400 . S
C247 C246 1.387 . S
N248 Co239 2.022 . S
N248 C245 1.351 . S
N248 N249 1.365 . S
N249 C246 1.341 . S
N249 N248 1.365 . S
N249 H269 0.862 . S
C250 C245 1.501 . S
C250 H251 0.961 . S
C250 H252 0.961 . S
C250 H253 0.960 . S
H251 C250 0.961 . S
H252 C250 0.961 . S
H253 C250 0.960 . S
C254 N255 1.342 . S
C254 C258 1.401 . S
C254 C259 1.499 . S
N255 Co238 1.989 . S
N255 C254 1.342 . S
N255 N256 1.388 . S
N256 Co239 1.993 . S
N256 N255 1.388 . S
N256 C257 1.346 . S
C257 N256 1.346 . S
C257 C258 1.396 . S
C257 C267 1.510 . S
C258 C254 1.401 . S
C258 C257 1.396 . S
C259 C254 1.499 . S
C259 H260 0.959 . S
C259 H261 0.960 . S
C259 H262 0.961 . S
H260 C259 0.959 . S
H261 C259 0.960 . S
H262 C259 0.961 . S
O263 Co238 1.967 . S
O263 C271 1.258 . S
O264 Co239 1.941 . S
O264 C271 1.266 . S
H265 C267 0.959 . S
H266 C267 0.961 . S
C267 C257 1.510 . S
C267 H265 0.959 . S
C267 H266 0.961 . S
C267 H268 0.960 . S
H268 C267 0.960 . S
H269 N249 0.862 . S
O270 Co238 1.920 . S
O270 C243 1.289 . S
C271 O263 1.258 . S
C271 O264 1.266 . S
H272 C284 0.930 . S
H273 C286 0.930 . S
H274 C287 0.930 . S
H275 C291 0.959 . S
H276 C291 0.959 . S
H277 C291 0.961 . S
H278 C292 0.960 . S
H279 C292 0.961 . S
H280 C292 0.959 . S
H281 C295 0.929 . S
H282 C296 0.931 . S
H283 C298 0.930 . S
C284 H272 0.930 . S
C284 C285 1.399 . S
C284 C289 1.399 . S
C285 C284 1.399 . S
C285 C286 1.376 . S
C286 H273 0.930 . S
C286 C285 1.376 . S
C286 C287 1.388 . S
C287 H274 0.930 . S
C287 C286 1.388 . S
C287 C288 1.390 . S
C288 C287 1.390 . S
C288 C289 1.394 . S
C288 C294 1.465 . S
C289 C284 1.399 . S
C289 C288 1.394 . S
C289 C290 1.516 . S
C290 C289 1.516 . S
C290 C291 1.502 . S
C290 C292 1.561 . S
C290 C293 1.526 . S
C291 H275 0.959 . S
C291 H276 0.959 . S
C291 H277 0.961 . S
C291 C290 1.502 . S
C292 H278 0.960 . S
C292 H279 0.961 . S
C292 H280 0.959 . S
C292 C290 1.561 . S
C293 C290 1.526 . S
C293 C294 1.396 . S
C293 C298 1.390 . S
C294 C288 1.465 . S
C294 C293 1.396 . S
C294 C295 1.399 . S
C295 H281 0.929 . S
C295 C294 1.399 . S
C295 C296 1.385 . S
C296 H282 0.931 . S
C296 C295 1.385 . S
C296 C297 1.389 . S
C297 C296 1.389 . S
C297 C298 1.387 . S
C298 H283 0.930 . S
C298 C293 1.390 . S
C298 C297 1.387 . S
H299 C311 0.930 . S
H300 C313 0.930 . S
H301 C314 0.930 . S
H302 C318 0.959 . S
H303 C318 0.959 . S
H304 C318 0.961 . S
H305 C319 0.960 . S
H306 C319 0.961 . S
H307 C319 0.959 . S
H308 C322 0.929 . S
H309 C323 0.931 . S
H310 C325 0.930 . S
C311 H299 0.930 . S
C311 C312 1.399 . S
C311 C316 1.399 . S
C312 C311 1.399 . S
C312 C313 1.376 . S
C313 H300 0.930 . S
C313 C312 1.376 . S
C313 C314 1.388 . S
C314 H301 0.930 . S
C314 C313 1.388 . S
C314 C315 1.390 . S
C315 C314 1.390 . S
C315 C316 1.394 . S
C315 C321 1.465 . S
C316 C311 1.399 . S
C316 C315 1.394 . S
C316 C317 1.516 . S
C317 C316 1.516 . S
C317 C318 1.502 . S
C317 C319 1.561 . S
C317 C320 1.526 . S
C318 H302 0.959 . S
C318 H303 0.959 . S
C318 H304 0.961 . S
C318 C317 1.502 . S
C319 H305 0.960 . S
C319 H306 0.961 . S
C319 H307 0.959 . S
C319 C317 1.561 . S
C320 C317 1.526 . S
C320 C321 1.396 . S
C320 C325 1.390 . S
C321 C315 1.465 . S
C321 C320 1.396 . S
C321 C322 1.399 . S
C322 H308 0.929 . S
C322 C321 1.399 . S
C322 C323 1.385 . S
C323 H309 0.931 . S
C323 C322 1.385 . S
C323 C324 1.389 . S
C324 C323 1.389 . S
C324 C325 1.387 . S
C325 H310 0.930 . S
C325 C320 1.390 . S
C325 C324 1.387 . S
H326 C338 0.930 . S
H327 C340 0.930 . S
H328 C341 0.930 . S
H329 C345 0.959 . S
H330 C345 0.959 . S
H331 C345 0.961 . S
H332 C346 0.960 . S
H333 C346 0.961 . S
H334 C346 0.959 . S
H335 C349 0.929 . S
H336 C350 0.931 . S
H337 C352 0.930 . S
C338 H326 0.930 . S
C338 C339 1.399 . S
C338 C343 1.399 . S
C339 C338 1.399 . S
C339 C340 1.376 . S
C340 H327 0.930 . S
C340 C339 1.376 . S
C340 C341 1.388 . S
C341 H328 0.930 . S
C341 C340 1.388 . S
C341 C342 1.390 . S
C342 C341 1.390 . S
C342 C343 1.394 . S
C342 C348 1.465 . S
C343 C338 1.399 . S
C343 C342 1.394 . S
C343 C344 1.516 . S
C344 C343 1.516 . S
C344 C345 1.502 . S
C344 C346 1.561 . S
C344 C347 1.526 . S
C345 H329 0.959 . S
C345 H330 0.959 . S
C345 H331 0.961 . S
C345 C344 1.502 . S
C346 H332 0.960 . S
C346 H333 0.961 . S
C346 H334 0.959 . S
C346 C344 1.561 . S
C347 C344 1.526 . S
C347 C348 1.396 . S
C347 C352 1.390 . S
C348 C342 1.465 . S
C348 C347 1.396 . S
C348 C349 1.399 . S
C349 H335 0.929 . S
C349 C348 1.399 . S
C349 C350 1.385 . S
C350 H336 0.931 . S
C350 C349 1.385 . S
C350 C351 1.389 . S
C351 C350 1.389 . S
C351 C352 1.387 . S
C352 H337 0.930 . S
C352 C347 1.390 . S
C352 C351 1.387 . S
H353 C365 0.930 . S
H354 C367 0.930 . S
H355 C368 0.930 . S
H356 C372 0.959 . S
H357 C372 0.959 . S
H358 C372 0.961 . S
H359 C373 0.960 . S
H360 C373 0.961 . S
H361 C373 0.959 . S
H362 C376 0.929 . S
H363 C377 0.931 . S
H364 C379 0.930 . S
C365 H353 0.930 . S
C365 C366 1.399 . S
C365 C370 1.399 . S
C366 C365 1.399 . S
C366 C367 1.376 . S
C367 H354 0.930 . S
C367 C366 1.376 . S
C367 C368 1.388 . S
C368 H355 0.930 . S
C368 C367 1.388 . S
C368 C369 1.390 . S
C369 C368 1.390 . S
C369 C370 1.394 . S
C369 C375 1.465 . S
C370 C365 1.399 . S
C370 C369 1.394 . S
C370 C371 1.516 . S
C371 C370 1.516 . S
C371 C372 1.502 . S
C371 C373 1.561 . S
C371 C374 1.526 . S
C372 H356 0.959 . S
C372 H357 0.959 . S
C372 H358 0.961 . S
C372 C371 1.502 . S
C373 H359 0.960 . S
C373 H360 0.961 . S
C373 H361 0.959 . S
C373 C371 1.561 . S
C374 C371 1.526 . S
C374 C375 1.396 . S
C374 C379 1.390 . S
C375 C369 1.465 . S
C375 C374 1.396 . S
C375 C376 1.399 . S
C376 H362 0.929 . S
C376 C375 1.399 . S
C376 C377 1.385 . S
C377 H363 0.931 . S
C377 C376 1.385 . S
C377 C378 1.389 . S
C378 C377 1.389 . S
C378 C379 1.387 . S
C379 H364 0.930 . S
C379 C374 1.390 . S
C379 C378 1.387 . S
H380 C392 0.930 . S
H381 C394 0.930 . S
H382 C395 0.930 . S
H383 C399 0.959 . S
H384 C399 0.959 . S
H385 C399 0.961 . S
H386 C400 0.960 . S
H387 C400 0.961 . S
H388 C400 0.959 . S
H389 C403 0.929 . S
H390 C404 0.931 . S
H391 C406 0.930 . S
C392 H380 0.930 . S
C392 C393 1.399 . S
C392 C397 1.399 . S
C393 C392 1.399 . S
C393 C394 1.376 . S
C394 H381 0.930 . S
C394 C393 1.376 . S
C394 C395 1.388 . S
C395 H382 0.930 . S
C395 C394 1.388 . S
C395 C396 1.390 . S
C396 C395 1.390 . S
C396 C397 1.394 . S
C396 C402 1.465 . S
C397 C392 1.399 . S
C397 C396 1.394 . S
C397 C398 1.516 . S
C398 C397 1.516 . S
C398 C399 1.502 . S
C398 C400 1.561 . S
C398 C401 1.526 . S
C399 H383 0.959 . S
C399 H384 0.959 . S
C399 H385 0.961 . S
C399 C398 1.502 . S
C400 H386 0.960 . S
C400 H387 0.961 . S
C400 H388 0.959 . S
C400 C398 1.561 . S
C401 C398 1.526 . S
C401 C402 1.396 . S
C401 C406 1.390 . S
C402 C396 1.465 . S
C402 C401 1.396 . S
C402 C403 1.399 . S
C403 H389 0.929 . S
C403 C402 1.399 . S
C403 C404 1.385 . S
C404 H390 0.931 . S
C404 C403 1.385 . S
C404 C405 1.389 . S
C405 C404 1.389 . S
C405 C406 1.387 . S
C406 H391 0.930 . S
C406 C401 1.390 . S
C406 C405 1.387 . S
H407 C419 0.930 . S
H408 C421 0.930 . S
H409 C422 0.930 . S
H410 C426 0.959 . S
H411 C426 0.959 . S
H412 C426 0.961 . S
H413 C427 0.960 . S
H414 C427 0.961 . S
H415 C427 0.959 . S
H416 C430 0.929 . S
H417 C431 0.931 . S
H418 C433 0.930 . S
C419 H407 0.930 . S
C419 C420 1.399 . S
C419 C424 1.399 . S
C420 C419 1.399 . S
C420 C421 1.376 . S
C421 H408 0.930 . S
C421 C420 1.376 . S
C421 C422 1.388 . S
C422 H409 0.930 . S
C422 C421 1.388 . S
C422 C423 1.390 . S
C423 C422 1.390 . S
C423 C424 1.394 . S
C423 C429 1.465 . S
C424 C419 1.399 . S
C424 C423 1.394 . S
C424 C425 1.516 . S
C425 C424 1.516 . S
C425 C426 1.502 . S
C425 C427 1.561 . S
C425 C428 1.526 . S
C426 H410 0.959 . S
C426 H411 0.959 . S
C426 H412 0.961 . S
C426 C425 1.502 . S
C427 H413 0.960 . S
C427 H414 0.961 . S
C427 H415 0.959 . S
C427 C425 1.561 . S
C428 C425 1.526 . S
C428 C429 1.396 . S
C428 C433 1.390 . S
C429 C423 1.465 . S
C429 C428 1.396 . S
C429 C430 1.399 . S
C430 H416 0.929 . S
C430 C429 1.399 . S
C430 C431 1.385 . S
C431 H417 0.931 . S
C431 C430 1.385 . S
C431 C432 1.389 . S
C432 C431 1.389 . S
C432 C433 1.387 . S
C433 H418 0.930 . S
C433 C428 1.390 . S
C433 C432 1.387 . S
H434 C446 0.930 . S
H435 C448 0.930 . S
H436 C449 0.930 . S
H437 C453 0.959 . S
H438 C453 0.959 . S
H439 C453 0.961 . S
H440 C454 0.960 . S
H441 C454 0.961 . S
H442 C454 0.959 . S
H443 C457 0.929 . S
H444 C458 0.931 . S
H445 C460 0.930 . S
C446 H434 0.930 . S
C446 C447 1.399 . S
C446 C451 1.399 . S
C447 C446 1.399 . S
C447 C448 1.376 . S
C448 H435 0.930 . S
C448 C447 1.376 . S
C448 C449 1.388 . S
C449 H436 0.930 . S
C449 C448 1.388 . S
C449 C450 1.390 . S
C450 C449 1.390 . S
C450 C451 1.394 . S
C450 C456 1.465 . S
C451 C446 1.399 . S
C451 C450 1.394 . S
C451 C452 1.516 . S
C452 C451 1.516 . S
C452 C453 1.502 . S
C452 C454 1.561 . S
C452 C455 1.526 . S
C453 H437 0.959 . S
C453 H438 0.959 . S
C453 H439 0.961 . S
C453 C452 1.502 . S
C454 H440 0.960 . S
C454 H441 0.961 . S
C454 H442 0.959 . S
C454 C452 1.561 . S
C455 C452 1.526 . S
C455 C456 1.396 . S
C455 C460 1.390 . S
C456 C450 1.465 . S
C456 C455 1.396 . S
C456 C457 1.399 . S
C457 H443 0.929 . S
C457 C456 1.399 . S
C457 C458 1.385 . S
C458 H444 0.931 . S
C458 C457 1.385 . S
C458 C459 1.389 . S
C459 C458 1.389 . S
C459 C460 1.387 . S
C460 H445 0.930 . S
C460 C455 1.390 . S
C460 C459 1.387 . S
H461 C473 0.930 . S
H462 C475 0.930 . S
H463 C476 0.930 . S
H464 C480 0.959 . S
H465 C480 0.959 . S
H466 C480 0.961 . S
H467 C481 0.960 . S
H468 C481 0.961 . S
H469 C481 0.959 . S
H470 C484 0.929 . S
H471 C485 0.931 . S
H472 C487 0.930 . S
C473 H461 0.930 . S
C473 C474 1.399 . S
C473 C478 1.399 . S
C474 C473 1.399 . S
C474 C475 1.376 . S
C475 H462 0.930 . S
C475 C474 1.376 . S
C475 C476 1.388 . S
C476 H463 0.930 . S
C476 C475 1.388 . S
C476 C477 1.390 . S
C477 C476 1.390 . S
C477 C478 1.394 . S
C477 C483 1.465 . S
C478 C473 1.399 . S
C478 C477 1.394 . S
C478 C479 1.516 . S
C479 C478 1.516 . S
C479 C480 1.502 . S
C479 C481 1.561 . S
C479 C482 1.526 . S
C480 H464 0.959 . S
C480 H465 0.959 . S
C480 H466 0.961 . S
C480 C479 1.502 . S
C481 H467 0.960 . S
C481 H468 0.961 . S
C481 H469 0.959 . S
C481 C479 1.561 . S
C482 C479 1.526 . S
C482 C483 1.396 . S
C482 C487 1.390 . S
C483 C477 1.465 . S
C483 C482 1.396 . S
C483 C484 1.399 . S
C484 H470 0.929 . S
C484 C483 1.399 . S
C484 C485 1.385 . S
C485 H471 0.931 . S
C485 C484 1.385 . S
C485 C486 1.389 . S
C486 C485 1.389 . S
C486 C487 1.387 . S
C487 H472 0.930 . S
C487 C482 1.390 . S
C487 C486 1.387 . S
H488 C500 0.930 . S
H489 C502 0.930 . S
H490 C503 0.930 . S
H491 C507 0.959 . S
H492 C507 0.959 . S
H493 C507 0.961 . S
H494 C508 0.960 . S
H495 C508 0.961 . S
H496 C508 0.959 . S
H497 C511 0.929 . S
H498 C512 0.931 . S
H499 C514 0.930 . S
C500 H488 0.930 . S
C500 C501 1.399 . S
C500 C505 1.399 . S
C501 C500 1.399 . S
C501 C502 1.376 . S
C502 H489 0.930 . S
C502 C501 1.376 . S
C502 C503 1.388 . S
C503 H490 0.930 . S
C503 C502 1.388 . S
C503 C504 1.390 . S
C504 C503 1.390 . S
C504 C505 1.394 . S
C504 C510 1.465 . S
C505 C500 1.399 . S
C505 C504 1.394 . S
C505 C506 1.516 . S
C506 C505 1.516 . S
C506 C507 1.502 . S
C506 C508 1.561 . S
C506 C509 1.526 . S
C507 H491 0.959 . S
C507 H492 0.959 . S
C507 H493 0.961 . S
C507 C506 1.502 . S
C508 H494 0.960 . S
C508 H495 0.961 . S
C508 H496 0.959 . S
C508 C506 1.561 . S
C509 C506 1.526 . S
C509 C510 1.396 . S
C509 C514 1.390 . S
C510 C504 1.465 . S
C510 C509 1.396 . S
C510 C511 1.399 . S
C511 H497 0.929 . S
C511 C510 1.399 . S
C511 C512 1.385 . S
C512 H498 0.931 . S
C512 C511 1.385 . S
C512 C513 1.389 . S
C513 C512 1.389 . S
C513 C514 1.387 . S
C514 H499 0.930 . S
C514 C509 1.390 . S
C514 C513 1.387 . S
H515 C527 0.930 . S
H516 C529 0.930 . S
H517 C530 0.930 . S
H518 C534 0.959 . S
H519 C534 0.959 . S
H520 C534 0.961 . S
H521 C535 0.960 . S
H522 C535 0.961 . S
H523 C535 0.959 . S
H524 C538 0.929 . S
H525 C539 0.931 . S
H526 C541 0.930 . S
C527 H515 0.930 . S
C527 C528 1.399 . S
C527 C532 1.399 . S
C528 C527 1.399 . S
C528 C529 1.376 . S
C529 H516 0.930 . S
C529 C528 1.376 . S
C529 C530 1.388 . S
C530 H517 0.930 . S
C530 C529 1.388 . S
C530 C531 1.390 . S
C531 C530 1.390 . S
C531 C532 1.394 . S
C531 C537 1.465 . S
C532 C527 1.399 . S
C532 C531 1.394 . S
C532 C533 1.516 . S
C533 C532 1.516 . S
C533 C534 1.502 . S
C533 C535 1.561 . S
C533 C536 1.526 . S
C534 H518 0.959 . S
C534 H519 0.959 . S
C534 H520 0.961 . S
C534 C533 1.502 . S
C535 H521 0.960 . S
C535 H522 0.961 . S
C535 H523 0.959 . S
C535 C533 1.561 . S
C536 C533 1.526 . S
C536 C537 1.396 . S
C536 C541 1.390 . S
C537 C531 1.465 . S
C537 C536 1.396 . S
C537 C538 1.399 . S
C538 H524 0.929 . S
C538 C537 1.399 . S
C538 C539 1.385 . S
C539 H525 0.931 . S
C539 C538 1.385 . S
C539 C540 1.389 . S
C540 C539 1.389 . S
C540 C541 1.387 . S
C541 H526 0.930 . S
C541 C536 1.390 . S
C541 C540 1.387 . S
H542 C554 0.930 . S
H543 C556 0.930 . S
H544 C557 0.930 . S
H545 C561 0.959 . S
H546 C561 0.959 . S
H547 C561 0.961 . S
H548 C562 0.960 . S
H549 C562 0.961 . S
H550 C562 0.959 . S
H551 C565 0.929 . S
H552 C566 0.931 . S
H553 C568 0.930 . S
C554 H542 0.930 . S
C554 C555 1.399 . S
C554 C559 1.399 . S
C555 C554 1.399 . S
C555 C556 1.376 . S
C556 H543 0.930 . S
C556 C555 1.376 . S
C556 C557 1.388 . S
C557 H544 0.930 . S
C557 C556 1.388 . S
C557 C558 1.390 . S
C558 C557 1.390 . S
C558 C559 1.394 . S
C558 C564 1.465 . S
C559 C554 1.399 . S
C559 C558 1.394 . S
C559 C560 1.516 . S
C560 C559 1.516 . S
C560 C561 1.502 . S
C560 C562 1.561 . S
C560 C563 1.526 . S
C561 H545 0.959 . S
C561 H546 0.959 . S
C561 H547 0.961 . S
C561 C560 1.502 . S
C562 H548 0.960 . S
C562 H549 0.961 . S
C562 H550 0.959 . S
C562 C560 1.561 . S
C563 C560 1.526 . S
C563 C564 1.396 . S
C563 C568 1.390 . S
C564 C558 1.465 . S
C564 C563 1.396 . S
C564 C565 1.399 . S
C565 H551 0.929 . S
C565 C564 1.399 . S
C565 C566 1.385 . S
C566 H552 0.931 . S
C566 C565 1.385 . S
C566 C567 1.389 . S
C567 C566 1.389 . S
C567 C568 1.387 . S
C568 H553 0.930 . S
C568 C563 1.390 . S
C568 C567 1.387 . S
H569 C581 0.930 . S
H570 C583 0.930 . S
H571 C584 0.930 . S
H572 C588 0.959 . S
H573 C588 0.959 . S
H574 C588 0.961 . S
H575 C589 0.960 . S
H576 C589 0.961 . S
H577 C589 0.959 . S
H578 C592 0.929 . S
H579 C593 0.931 . S
H580 C595 0.930 . S
C581 H569 0.930 . S
C581 C582 1.399 . S
C581 C586 1.399 . S
C582 C581 1.399 . S
C582 C583 1.376 . S
C583 H570 0.930 . S
C583 C582 1.376 . S
C583 C584 1.388 . S
C584 H571 0.930 . S
C584 C583 1.388 . S
C584 C585 1.390 . S
C585 C584 1.390 . S
C585 C586 1.394 . S
C585 C591 1.465 . S
C586 C581 1.399 . S
C586 C585 1.394 . S
C586 C587 1.516 . S
C587 C586 1.516 . S
C587 C588 1.502 . S
C587 C589 1.561 . S
C587 C590 1.526 . S
C588 H572 0.959 . S
C588 H573 0.959 . S
C588 H574 0.961 . S
C588 C587 1.502 . S
C589 H575 0.960 . S
C589 H576 0.961 . S
C589 H577 0.959 . S
C589 C587 1.561 . S
C590 C587 1.526 . S
C590 C591 1.396 . S
C590 C595 1.390 . S
C591 C585 1.465 . S
C591 C590 1.396 . S
C591 C592 1.399 . S
C592 H578 0.929 . S
C592 C591 1.399 . S
C592 C593 1.385 . S
C593 H579 0.931 . S
C593 C592 1.385 . S
C593 C594 1.389 . S
C594 C593 1.389 . S
C594 C595 1.387 . S
C595 H580 0.930 . S
C595 C590 1.390 . S
C595 C594 1.387 . S
H596 C608 0.930 . S
H597 C610 0.930 . S
H598 C611 0.930 . S
H599 C615 0.959 . S
H600 C615 0.959 . S
H601 C615 0.961 . S
H602 C616 0.960 . S
H603 C616 0.961 . S
H604 C616 0.959 . S
H605 C619 0.929 . S
H606 C620 0.931 . S
H607 C622 0.930 . S
C608 H596 0.930 . S
C608 C609 1.399 . S
C608 C613 1.399 . S
C609 C608 1.399 . S
C609 C610 1.376 . S
C610 H597 0.930 . S
C610 C609 1.376 . S
C610 C611 1.388 . S
C611 H598 0.930 . S
C611 C610 1.388 . S
C611 C612 1.390 . S
C612 C611 1.390 . S
C612 C613 1.394 . S
C612 C618 1.465 . S
C613 C608 1.399 . S
C613 C612 1.394 . S
C613 C614 1.516 . S
C614 C613 1.516 . S
C614 C615 1.502 . S
C614 C616 1.561 . S
C614 C617 1.526 . S
C615 H599 0.959 . S
C615 H600 0.959 . S
C615 H601 0.961 . S
C615 C614 1.502 . S
C616 H602 0.960 . S
C616 H603 0.961 . S
C616 H604 0.959 . S
C616 C614 1.561 . S
C617 C614 1.526 . S
C617 C618 1.396 . S
C617 C622 1.390 . S
C618 C612 1.465 . S
C618 C617 1.396 . S
C618 C619 1.399 . S
C619 H605 0.929 . S
C619 C618 1.399 . S
C619 C620 1.385 . S
C620 H606 0.931 . S
C620 C619 1.385 . S
C620 C621 1.389 . S
C621 C620 1.389 . S
C621 C622 1.387 . S
C622 H607 0.930 . S
C622 C617 1.390 . S
C622 C621 1.387 . S
H623 C635 0.930 . S
H624 C637 0.930 . S
H625 C638 0.930 . S
H626 C642 0.959 . S
H627 C642 0.959 . S
H628 C642 0.961 . S
H629 C643 0.960 . S
H630 C643 0.961 . S
H631 C643 0.959 . S
H632 C646 0.929 . S
H633 C647 0.931 . S
H634 C649 0.930 . S
C635 H623 0.930 . S
C635 C636 1.399 . S
C635 C640 1.399 . S
C636 C635 1.399 . S
C636 C637 1.376 . S
C637 H624 0.930 . S
C637 C636 1.376 . S
C637 C638 1.388 . S
C638 H625 0.930 . S
C638 C637 1.388 . S
C638 C639 1.390 . S
C639 C638 1.390 . S
C639 C640 1.394 . S
C639 C645 1.465 . S
C640 C635 1.399 . S
C640 C639 1.394 . S
C640 C641 1.516 . S
C641 C640 1.516 . S
C641 C642 1.502 . S
C641 C643 1.561 . S
C641 C644 1.526 . S
C642 H626 0.959 . S
C642 H627 0.959 . S
C642 H628 0.961 . S
C642 C641 1.502 . S
C643 H629 0.960 . S
C643 H630 0.961 . S
C643 H631 0.959 . S
C643 C641 1.561 . S
C644 C641 1.526 . S
C644 C645 1.396 . S
C644 C649 1.390 . S
C645 C639 1.465 . S
C645 C644 1.396 . S
C645 C646 1.399 . S
C646 H632 0.929 . S
C646 C645 1.399 . S
C646 C647 1.385 . S
C647 H633 0.931 . S
C647 C646 1.385 . S
C647 C648 1.389 . S
C648 C647 1.389 . S
C648 C649 1.387 . S
C649 H634 0.930 . S
C649 C644 1.390 . S
C649 C648 1.387 . S
H650 C662 0.930 . S
H651 C664 0.930 . S
H652 C665 0.930 . S
H653 C669 0.959 . S
H654 C669 0.959 . S
H655 C669 0.961 . S
H656 C670 0.960 . S
H657 C670 0.961 . S
H658 C670 0.959 . S
H659 C673 0.929 . S
H660 C674 0.931 . S
H661 C676 0.930 . S
C662 H650 0.930 . S
C662 C663 1.399 . S
C662 C667 1.399 . S
C663 C662 1.399 . S
C663 C664 1.376 . S
C664 H651 0.930 . S
C664 C663 1.376 . S
C664 C665 1.388 . S
C665 H652 0.930 . S
C665 C664 1.388 . S
C665 C666 1.390 . S
C666 C665 1.390 . S
C666 C667 1.394 . S
C666 C672 1.465 . S
C667 C662 1.399 . S
C667 C666 1.394 . S
C667 C668 1.516 . S
C668 C667 1.516 . S
C668 C669 1.502 . S
C668 C670 1.561 . S
C668 C671 1.526 . S
C669 H653 0.959 . S
C669 H654 0.959 . S
C669 H655 0.961 . S
C669 C668 1.502 . S
C670 H656 0.960 . S
C670 H657 0.961 . S
C670 H658 0.959 . S
C670 C668 1.561 . S
C671 C668 1.526 . S
C671 C672 1.396 . S
C671 C676 1.390 . S
C672 C666 1.465 . S
C672 C671 1.396 . S
C672 C673 1.399 . S
C673 H659 0.929 . S
C673 C672 1.399 . S
C673 C674 1.385 . S
C674 H660 0.931 . S
C674 C673 1.385 . S
C674 C675 1.389 . S
C675 C674 1.389 . S
C675 C676 1.387 . S
C676 H661 0.930 . S
C676 C671 1.390 . S
C676 C675 1.387 . S
H677 C689 0.930 . S
H678 C691 0.930 . S
H679 C692 0.930 . S
H680 C696 0.959 . S
H681 C696 0.959 . S
H682 C696 0.961 . S
H683 C697 0.960 . S
H684 C697 0.961 . S
H685 C697 0.959 . S
H686 C700 0.929 . S
H687 C701 0.931 . S
H688 C703 0.930 . S
C689 H677 0.930 . S
C689 C690 1.399 . S
C689 C694 1.399 . S
C690 C689 1.399 . S
C690 C691 1.376 . S
C691 H678 0.930 . S
C691 C690 1.376 . S
C691 C692 1.388 . S
C692 H679 0.930 . S
C692 C691 1.388 . S
C692 C693 1.390 . S
C693 C692 1.390 . S
C693 C694 1.394 . S
C693 C699 1.465 . S
C694 C689 1.399 . S
C694 C693 1.394 . S
C694 C695 1.516 . S
C695 C694 1.516 . S
C695 C696 1.502 . S
C695 C697 1.561 . S
C695 C698 1.526 . S
C696 H680 0.959 . S
C696 H681 0.959 . S
C696 H682 0.961 . S
C696 C695 1.502 . S
C697 H683 0.960 . S
C697 H684 0.961 . S
C697 H685 0.959 . S
C697 C695 1.561 . S
C698 C695 1.526 . S
C698 C699 1.396 . S
C698 C703 1.390 . S
C699 C693 1.465 . S
C699 C698 1.396 . S
C699 C700 1.399 . S
C700 H686 0.929 . S
C700 C699 1.399 . S
C700 C701 1.385 . S
C701 H687 0.931 . S
C701 C700 1.385 . S
C701 C702 1.389 . S
C702 C701 1.389 . S
C702 C703 1.387 . S
C703 H688 0.930 . S
C703 C698 1.390 . S
C703 C702 1.387 . S
H704 C716 0.930 . S
H705 C718 0.930 . S
H706 C719 0.930 . S
H707 C723 0.959 . S
H708 C723 0.959 . S
H709 C723 0.961 . S
H710 C724 0.960 . S
H711 C724 0.961 . S
H712 C724 0.959 . S
H713 C727 0.929 . S
H714 C728 0.931 . S
H715 C730 0.930 . S
C716 H704 0.930 . S
C716 C717 1.399 . S
C716 C721 1.399 . S
C717 C716 1.399 . S
C717 C718 1.376 1_545 S
C718 H705 0.930 . S
C718 C717 1.376 1_565 S
C718 C719 1.388 . S
C719 H706 0.930 . S
C719 C718 1.388 . S
C719 C720 1.390 . S
C720 C719 1.390 . S
C720 C721 1.394 1_565 S
C720 C726 1.465 . S
C721 C716 1.399 . S
C721 C720 1.394 1_545 S
C721 C722 1.516 . S
C722 C721 1.516 . S
C722 C723 1.502 . S
C722 C724 1.561 1_545 S
C722 C725 1.526 . S
C723 H707 0.959 . S
C723 H708 0.959 . S
C723 H709 0.961 . S
C723 C722 1.502 . S
C724 H710 0.960 . S
C724 H711 0.961 . S
C724 H712 0.959 . S
C724 C722 1.561 1_565 S
C725 C722 1.526 . S
C725 C726 1.396 1_545 S
C725 C730 1.390 . S
C726 C720 1.465 . S
C726 C725 1.396 1_565 S
C726 C727 1.399 . S
C727 H713 0.929 . S
C727 C726 1.399 . S
C727 C728 1.385 . S
C728 H714 0.931 . S
C728 C727 1.385 . S
C728 C729 1.398 . S
C729 C728 1.398 . S
C729 C730 1.381 1_565 S
C730 H715 0.930 . S
C730 C725 1.390 . S
C730 C729 1.381 1_545 S
H731 C743 0.930 1_556 S
H732 C745 0.930 . S
H733 C746 0.930 . S
H734 C750 0.973 1_565 S
H735 C750 0.959 1_565 S
H736 C750 0.961 . S
H737 C751 0.960 . S
H738 C751 0.961 1_565 S
H739 C751 0.959 . S
H740 C754 0.929 . S
H741 C755 0.931 . S
H742 C757 0.930 1_656 S
C743 H731 0.930 1_554 S
C743 C744 1.399 1_655 S
C743 C748 1.399 . S
C744 C743 1.399 1_455 S
C744 C745 1.376 . S
C745 H732 0.930 . S
C745 C744 1.376 . S
C745 C746 1.388 . S
C746 H733 0.930 . S
C746 C745 1.388 . S
C746 C747 1.390 . S
C747 C746 1.390 . S
C747 C748 1.395 1_455 S
C747 C753 1.465 1_545 S
C748 C743 1.399 . S
C748 C747 1.395 1_655 S
C748 C749 1.516 1_554 S
C749 C748 1.516 1_556 S
C749 C750 1.502 . S
C749 C751 1.561 1_655 S
C749 C752 1.526 1_646 S
C750 H734 0.973 1_545 S
C750 H735 0.959 1_545 S
C750 H736 0.961 . S
C750 C749 1.502 . S
C751 H737 0.960 . S
C751 H738 0.961 1_545 S
C751 H739 0.959 . S
C751 C749 1.561 1_455 S
C752 C749 1.526 1_464 S
C752 C753 1.396 . S
C752 C757 1.390 . S
C753 C747 1.465 1_565 S
C753 C752 1.396 . S
C753 C754 1.399 . S
C754 H740 0.929 . S
C754 C753 1.399 . S
C754 C755 1.385 . S
C755 H741 0.931 . S
C755 C754 1.385 . S
C755 C756 1.389 . S
C756 C755 1.389 . S
C756 C757 1.387 . S
C757 H742 0.930 1_454 S
C757 C752 1.390 . S
C757 C756 1.387 . S
H758 C770 0.930 . S
H759 C772 0.930 . S
H760 C773 0.930 . S
H761 C777 0.959 1_655 S
H762 C777 0.959 1_655 S
H763 C777 0.961 . S
H764 C778 0.960 . S
H765 C778 0.961 1_655 S
H766 C778 0.959 . S
H767 C781 0.929 . S
H768 C782 0.931 . S
H769 C784 0.930 . S
C770 H758 0.930 . S
C770 C771 1.399 . S
C770 C775 1.399 . S
C771 C770 1.399 . S
C771 C772 1.376 . S
C772 H759 0.930 . S
C772 C771 1.376 . S
C772 C773 1.388 . S
C773 H760 0.930 . S
C773 C772 1.388 . S
C773 C774 1.390 . S
C774 C773 1.390 . S
C774 C775 1.394 . S
C774 C780 1.465 1_455 S
C775 C770 1.399 . S
C775 C774 1.394 . S
C775 C776 1.516 . S
C776 C775 1.516 . S
C776 C777 1.502 . S
C776 C778 1.561 . S
C776 C779 1.526 1_455 S
C777 H761 0.959 1_455 S
C777 H762 0.959 1_455 S
C777 H763 0.961 . S
C777 C776 1.502 . S
C778 H764 0.960 . S
C778 H765 0.961 1_455 S
C778 H766 0.959 . S
C778 C776 1.561 . S
C779 C776 1.526 1_655 S
C779 C780 1.396 . S
C779 C784 1.390 . S
C780 C774 1.465 1_655 S
C780 C779 1.396 . S
C780 C781 1.399 . S
C781 H767 0.929 . S
C781 C780 1.399 . S
C781 C782 1.385 . S
C782 H768 0.931 . S
C782 C781 1.385 . S
C782 C783 1.389 . S
C783 C782 1.389 . S
C783 C784 1.387 . S
C784 H769 0.930 . S
C784 C779 1.390 . S
C784 C783 1.387 . S
H785 C797 0.930 . S
H786 C799 0.930 . S
H787 C800 0.930 . S
H788 C804 0.959 . S
H789 C804 0.959 . S
H790 C804 0.961 . S
H791 C805 0.960 . S
H792 C805 0.961 . S
H793 C805 0.959 . S
H794 C808 0.929 . S
H795 C809 0.931 . S
H796 C811 0.930 . S
C797 H785 0.930 . S
C797 C798 1.399 . S
C797 C802 1.399 . S
C798 C797 1.399 . S
C798 C799 1.376 . S
C799 H786 0.930 . S
C799 C798 1.376 . S
C799 C800 1.388 . S
C800 H787 0.930 . S
C800 C799 1.388 . S
C800 C801 1.390 . S
C801 C800 1.390 . S
C801 C802 1.394 . S
C801 C807 1.465 . S
C802 C797 1.399 . S
C802 C801 1.394 . S
C802 C803 1.516 . S
C803 C802 1.516 . S
C803 C804 1.502 . S
C803 C805 1.561 . S
C803 C806 1.526 . S
C804 H788 0.959 . S
C804 H789 0.959 . S
C804 H790 0.961 . S
C804 C803 1.502 . S
C805 H791 0.960 . S
C805 H792 0.961 . S
C805 H793 0.959 . S
C805 C803 1.561 . S
C806 C803 1.526 . S
C806 C807 1.396 . S
C806 C811 1.390 . S
C807 C801 1.465 . S
C807 C806 1.396 . S
C807 C808 1.399 . S
C808 H794 0.929 . S
C808 C807 1.399 . S
C808 C809 1.385 . S
C809 H795 0.931 . S
C809 C808 1.385 . S
C809 C810 1.389 . S
C810 C809 1.389 . S
C810 C811 1.387 . S
C811 H796 0.930 . S
C811 C806 1.390 . S
C811 C810 1.387 . S
C285 C20 0.914 . S
C297 C175 0.929 . S
C312 C54 0.941 . S
C324 C209 0.926 . S
C339 C88 0.921 . S
C351 C243 0.928 . S
C366 C141 0.931 . S
C378 C122 0.921 . S
C393 C172 1.026 . S
C405 C145 1.040 . S
C420 C179 0.950 . S
C432 C206 0.977 . S
C447 C240 0.977 . S
C459 C213 0.957 . S
C474 C247 0.997 . S
C486 C138 0.995 . S
C501 C224 0.899 . S
C513 C107 0.933 . S
C528 C258 0.950 . S
C540 C5 0.922 . S
C555 C39 0.923 . S
C567 C156 0.939 . S
C582 C190 0.953 . S
C594 C73 0.923 . S
C609 C104 1.019 . S
C621 C77 0.970 . S
C636 C2 0.995 . S
C648 C111 0.938 . S
C663 C36 1.000 . S
C675 C9 0.943 . S
C690 C43 0.980 . S
C702 C70 1.024 . S
C717 C169 1.192 . S
C729 C33 1.197 . S
C744 C203 1.185 1_455 S
C756 C67 1.195 . S
C771 C101 1.180 . S
C783 C237 1.189 . S
C798 C271 1.191 . S
C810 C135 1.197 . S
