# Generated by pormake.
# Topology sxb, (6)-cn, num edge types: 1
# Building blocks:
#     Node 0, Type 0, BuildingBlock: HISSIN_clean_sbu_0, # of connection points: 6
#     Node 1, Type 0, BuildingBlock: HISSIN_clean_sbu_0, # of connection points: 6
#     Node 2, Type 0, BuildingBlock: HISSIN_clean_sbu_0, # of connection points: 6
#     Node 3, Type 0, BuildingBlock: HISSIN_clean_sbu_0, # of connection points: 6
#     Edge 4, Type (0, 0), BuildingBlock: XUDNAN_clean_linker_2, # of connection points: 2
#     Edge 5, Type (0, 0), BuildingBlock: XUDNAN_clean_linker_2, # of connection points: 2
#     Edge 6, Type (0, 0), BuildingBlock: XUDNAN_clean_linker_2, # of connection points: 2
#     Edge 7, Type (0, 0), BuildingBlock: XUDNAN_clean_linker_2, # of connection points: 2
#     Edge 8, Type (0, 0), BuildingBlock: XUDNAN_clean_linker_2, # of connection points: 2
#     Edge 9, Type (0, 0), BuildingBlock: XUDNAN_clean_linker_2, # of connection points: 2
#     Edge 10, Type (0, 0), BuildingBlock: XUDNAN_clean_linker_2, # of connection points: 2
#     Edge 11, Type (0, 0), BuildingBlock: XUDNAN_clean_linker_2, # of connection points: 2
#     Edge 12, Type (0, 0), BuildingBlock: XUDNAN_clean_linker_2, # of connection points: 2
#     Edge 13, Type (0, 0), BuildingBlock: XUDNAN_clean_linker_2, # of connection points: 2
#     Edge 14, Type (0, 0), BuildingBlock: XUDNAN_clean_linker_2, # of connection points: 2
#     Edge 15, Type (0, 0), BuildingBlock: XUDNAN_clean_linker_2, # of connection points: 2
# Relax obj value: 0.415
# Max RMSD: 0.120
# Mean RMSD: 0.091
data_MOF--net-sxb--node1-HISSIN_clean_sbu_0--edge1-XUDNAN_clean_linker_2
_symmetry_space_group_name_H-M    P1
_symmetry_Int_Tables_number       1
_symmetry_cell_setting            triclinic
loop_
_symmetry_equiv_pos_as_xyz
'x, y, z'
_cell_length_a     15.90203
_cell_length_b     34.743642
_cell_length_c     30.423542
_cell_angle_alpha  100.01746
_cell_angle_beta   94.232383
_cell_angle_gamma 63.51163
loop_
_atom_site_label
_atom_site_type_symbol
_atom_site_fract_x
_atom_site_fract_y
_atom_site_fract_z
_atom_type_partial_charge
Eu0 Eu 1.04906 1.05093 0.98262 0.0
Eu1 Eu 0.22949 1.06433 0.01954 0.0
C2 C 0.1017 1.05416 0.08885 0.0
C3 C 0.86448 1.06309 0.89985 0.0
C4 C 0.90369 1.08546 0.88067 0.0
C5 C 0.73193 1.08812 0.85012 0.0
C6 C 0.85485 0.11095 0.84812 0.0
C7 C 0.78081 1.06273 0.88285 0.0
C8 C 0.76553 0.11476 0.83459 0.0
C9 C 0.90672 1.04456 0.94036 0.0
O10 O 0.28512 0.99058 0.004 0.0
O11 O 0.14654 0.98439 0.00096 0.0
C12 C 0.23902 0.96681 0.00313 0.0
O13 O 0.14151 1.03618 0.92352 0.0
O14 O 0.37042 1.05554 0.00581 0.0
O15 O 0.29839 0.09616 0.06659 0.0
O16 O 0.19382 1.08561 0.9515 0.0
C17 C 0.17341 1.06331 0.9169 0.0
O18 O 1.01064 0.12326 0.982 0.0
O19 O 0.10287 0.12781 0.04085 0.0
O20 O 0.18752 1.04662 0.07919 0.0
O21 O 0.99228 1.01373 0.93537 0.0
O22 O 0.89748 1.0732 0.97603 0.0
O23 O 1.03495 1.0617 0.05829 0.0
C24 C 0.36356 0.12499 0.02241 0.0
C25 C 0.44576 0.1297 0.01959 0.0
C26 C 0.27872 0.18591 0.98202 0.0
C27 C 0.445 0.1616 -0.00326 0.0
C28 C 0.28 0.15391 0.0043 0.0
C29 C 0.36195 0.18903 0.97638 0.0
C30 C 0.36434 1.08703 0.0379 0.0
C31 C 1.0347 0.14733 0.01393 0.0
H32 H 0.96856 1.086 0.89339 0.0
H33 H 0.66263 1.09074 0.84102 0.0
H34 H 0.88204 0.13132 0.83721 0.0
H35 H 0.74994 1.04545 0.89708 0.0
H36 H 0.51126 0.10728 0.03268 0.0
H37 H 0.2139 0.20631 0.96671 0.0
H38 H 0.51097 0.1625 0.99218 0.0
H39 H 0.21661 0.14996 0.0049 0.0
Eu40 Eu 0.13982 1.04075 0.50311 0.0
Eu41 Eu 1.03574 0.14536 0.51372 0.0
C42 C 0.1017 0.09793 0.59888 0.0
C43 C 0.19165 0.93032 0.52334 0.0
C44 C 0.13593 0.94923 0.56211 0.0
C45 C 0.16046 0.86755 0.51754 0.0
C46 C 1.08995 0.92817 0.57754 0.0
C47 C 0.20669 0.88866 0.50214 0.0
C48 C 1.09836 0.88809 0.55415 0.0
C49 C 0.22065 0.95685 0.50149 0.0
O50 O 0.19157 0.13024 0.50252 0.0
O51 O 0.26088 1.05877 0.51253 0.0
C52 C 0.26822 0.09393 0.50716 0.0
O53 O 0.14357 1.05591 0.43399 0.0
O54 O 0.93767 0.20666 0.55152 0.0
O55 O 1.00428 0.20693 0.49188 0.0
O56 O 1.01197 0.12089 0.44247 0.0
C57 C 1.0734 1.087 0.41672 0.0
O58 O 0.98593 1.05473 0.49621 0.0
O59 O 0.91229 0.12837 0.52029 0.0
O60 O 0.10467 0.12812 0.57957 0.0
O61 O 0.16406 0.97562 0.47025 0.0
O62 O 0.24607 0.98343 0.52823 0.0
O63 O 1.08945 1.06584 0.57463 0.0
C64 C 0.98794 0.26106 0.55289 0.0
C65 C 0.97654 0.29744 0.53474 0.0
C66 C 1.09196 0.27465 0.60918 0.0
C67 C 1.02525 0.32141 0.55273 0.0
C68 C 1.04302 0.25084 0.5913 0.0
C69 C 1.08708 0.3088 0.58871 0.0
C70 C 0.95564 0.2301 0.52786 0.0
C71 C 0.90858 1.09067 0.50807 0.0
H72 H 0.12287 0.98157 0.57883 0.0
H73 H 0.16876 0.83638 0.49925 0.0
H74 H 1.04193 0.94494 0.60552 0.0
H75 H 0.24933 0.8737 0.47215 0.0
H76 H 0.9353 0.30546 0.50484 0.0
H77 H 0.13976 0.26387 0.63657 0.0
H78 H 1.0197 0.34789 0.53658 0.0
H79 H 1.05363 0.2226 0.60569 0.0
Eu80 Eu 0.54956 0.55006 0.98236 0.0
Eu81 Eu 0.72879 0.56532 0.01884 0.0
C82 C 0.60771 0.54923 0.08794 0.0
C83 C 0.36472 0.56338 0.89947 0.0
C84 C 0.40377 0.58607 0.88075 0.0
C85 C 0.23171 0.58914 0.85012 0.0
C86 C 0.3547 0.61201 0.84856 0.0
C87 C 0.28083 0.56328 0.88246 0.0
C88 C 0.26534 0.61593 0.83495 0.0
C89 C 0.40783 0.54384 0.93936 0.0
O90 O 0.78602 0.49129 0.00566 0.0
O91 O 0.64915 0.48321 -0.00126 0.0
C92 C 0.7412 0.46671 0.00293 0.0
O93 O 0.6446 0.53395 0.92413 0.0
O94 O 0.86869 0.55717 0.00409 0.0
O95 O 0.79731 0.59803 0.06488 0.0
O96 O 0.69104 0.58568 0.95051 0.0
C97 C 0.67406 0.5616 0.91652 0.0
O98 O 0.50888 0.62302 0.98311 0.0
O99 O 0.60205 0.62803 0.04129 0.0
O100 O 0.68757 0.54936 0.07959 0.0
O101 O 0.49378 0.51349 0.9337 0.0
O102 O 0.39813 0.57169 0.97582 0.0
O103 O 0.54249 0.55225 0.05729 0.0
C104 C 0.8608 0.62685 0.01995 0.0
C105 C 0.94228 0.63224 0.01759 0.0
C106 C 0.77514 0.68742 0.97923 0.0
C107 C 0.94082 0.6643 -0.00517 0.0
C108 C 0.77709 0.65526 0.00147 0.0
C109 C 0.85777 0.69125 0.97409 0.0
C110 C 0.8626 0.5889 0.03586 0.0
C111 C 0.53294 0.64732 0.01479 0.0
H112 H 0.4689 0.58635 0.89346 0.0
H113 H 0.16236 0.59187 0.84095 0.0
H114 H 0.38192 0.63247 0.83787 0.0
H115 H 0.25011 0.54573 0.89633 0.0
H116 H 1.00782 0.61026 0.03107 0.0
H117 H 0.71034 0.70746 0.96364 0.0
H118 H 1.00639 0.66572 0.99067 0.0
H119 H 0.71414 0.65087 0.00191 0.0
Eu120 Eu 0.66371 0.51232 0.50443 0.0
Eu121 Eu 0.5609 0.61664 0.50525 0.0
C122 C 0.62176 0.57693 0.59454 0.0
C123 C 0.72141 0.40668 0.54182 0.0
C124 C 0.67327 0.42763 0.58248 0.0
C125 C 0.68409 0.34661 0.54346 0.0
C126 C 0.62686 0.40916 0.60229 0.0
C127 C 0.72995 0.36526 0.52347 0.0
C128 C 0.6276 0.36963 0.58156 0.0
C129 C 0.74794 0.43081 0.51503 0.0
O130 O 0.712 0.60133 0.49253 0.0
O131 O 0.78798 0.53074 0.50578 0.0
C132 C 0.79053 0.56667 0.49822 0.0
O133 O 0.65926 0.5164 0.43116 0.0
O134 O 0.48868 0.68099 0.5455 0.0
O135 O 0.50237 0.67504 0.47413 0.0
O136 O 0.56003 0.58933 0.43247 0.0
C137 C 0.60817 0.54984 0.41087 0.0
O138 O 0.50679 0.52594 0.49863 0.0
O139 O 0.4398 0.60063 0.51361 0.0
O140 O 0.63181 0.60321 0.57172 0.0
O141 O 0.69218 0.44451 0.48164 0.0
O142 O 0.76989 0.46066 0.53734 0.0
O143 O 0.60485 0.54511 0.57329 0.0
C144 C 0.52507 0.73154 0.51971 0.0
C145 C 0.60916 0.72059 0.49776 0.0
C146 C 0.53606 0.79483 0.56297 0.0
C147 C 0.6565 0.74621 0.50844 0.0
C148 C 0.48807 0.76909 0.55203 0.0
C149 C 0.62107 0.7833 0.54141 0.0
C150 C 0.48243 0.70121 0.51222 0.0
C151 C 0.43127 0.56398 0.50576 0.0
H152 H 0.66538 0.45977 0.59721 0.0
H153 H 0.68677 0.31576 0.52717 0.0
H154 H 0.5835 0.42779 0.63145 0.0
H155 H 0.76625 0.3488 0.492 0.0
H156 H 0.64019 0.69141 0.47322 0.0
H157 H 0.50747 0.82333 0.58849 0.0
H158 H 0.72292 0.73598 0.49196 0.0
H159 H 0.42371 0.77776 0.5696 0.0
H160 H 0.36905 0.70857 0.97706 0.0
H161 H 0.60789 0.6983 0.06205 0.0
H162 H 0.56153 0.77575 0.06493 0.0
H163 H 0.35983 0.78933 0.91578 0.0
H164 H 0.23409 0.82118 0.91778 0.0
H165 H 0.28477 0.76375 0.92045 0.0
H166 H 0.19935 0.77941 -0.00336 0.0
H167 H 0.14484 0.83621 0.99096 0.0
H168 H 0.20967 0.81876 0.04068 0.0
H169 H 0.49817 0.85327 0.05603 0.0
H170 H 0.40718 0.92946 0.04444 0.0
H171 H 0.19524 0.89673 0.97307 0.0
C172 C 0.41128 0.72269 -0.00364 0.0
C173 C 0.49425 0.69616 0.01827 0.0
C174 C 0.54558 0.71677 0.04397 0.0
C175 C 0.51972 0.76121 0.046 0.0
C176 C 0.43953 0.78608 0.02362 0.0
C177 C 0.38406 0.76815 0.00036 0.0
C178 C 0.29771 0.80391 0.98212 0.0
C179 C 0.29388 0.79393 0.93099 0.0
C180 C 0.2075 0.80993 0.00383 0.0
C181 C 0.31595 0.84389 -0.00271 0.0
C182 C 0.39871 0.83241 0.02102 0.0
C183 C 0.43264 0.86277 0.03789 0.0
C184 C 0.38041 0.90613 0.03095 0.0
C185 C 0.29363 0.9196 0.00795 0.0
C186 C 0.26098 0.88776 0.991 0.0
H187 H 0.69924 0.39645 0.97161 0.0
H188 H 0.9087 0.42958 0.04514 0.0
H189 H 0.99953 0.35334 0.05671 0.0
H190 H 0.71172 0.31845 0.03864 0.0
H191 H 0.7014 0.27963 0.99393 0.0
H192 H 0.6482 0.33655 0.98883 0.0
H193 H 0.73872 0.32151 0.91629 0.0
H194 H 0.78939 0.264 0.91848 0.0
H195 H 0.86456 0.28973 0.91471 0.0
H196 H 1.0622 0.2758 0.06571 0.0
H197 H 0.10813 0.19833 0.06268 0.0
H198 H 0.87251 0.20847 0.97537 0.0
C199 C 0.76447 0.38756 0.98997 0.0
C200 C 0.79645 0.4195 0.00755 0.0
C201 C 0.88249 0.40616 0.03114 0.0
C202 C 0.93459 0.36278 0.03809 0.0
C203 C 0.90124 0.33233 0.02063 0.0
C204 C 0.81921 0.34372 -0.00368 0.0
C205 C 0.80131 0.3037 0.98069 0.0
C206 C 0.7102 0.30997 0.00172 0.0
C207 C 0.79832 0.29418 0.92949 0.0
C208 C 0.88716 0.26802 -0.00076 0.0
C209 C 0.9419 0.28601 0.02317 0.0
C210 C 1.02108 0.2612 0.04619 0.0
C211 C 1.04675 0.21676 0.04404 0.0
C212 C 0.9963 0.19613 0.0176 0.0
C213 C 0.91421 0.2226 -0.00485 0.0
H214 H 0.19176 0.31813 0.52896 0.0
H215 H 0.14947 0.33257 0.67124 0.0
H216 H 0.28779 0.34807 0.68616 0.0
H217 H 0.43703 0.2633 0.53024 0.0
H218 H 0.45352 0.28881 0.48709 0.0
H219 H 0.34796 0.28202 0.48842 0.0
H220 H 0.24689 0.36513 0.49041 0.0
H221 H 0.35221 0.37207 0.48874 0.0
H222 H 0.26816 0.40258 0.53323 0.0
H223 H 0.4356 0.35956 0.68424 0.0
H224 H 0.57335 0.36952 0.66569 0.0
H225 H 0.51439 0.34557 0.52474 0.0
C226 C 0.20955 0.32588 0.56335 0.0
C227 C 0.15918 0.32489 0.599 0.0
C228 C 0.18704 0.33353 0.64349 0.0
C229 C 0.26544 0.34221 0.65222 0.0
C230 C 0.31499 0.34179 0.61604 0.0
C231 C 0.28739 0.33416 0.57254 0.0
C232 C 0.35336 0.33398 0.5393 0.0
C233 C 0.40071 0.28937 0.50948 0.0
C234 C 0.30212 0.37062 0.51125 0.0
C235 C 0.42284 0.34266 0.57078 0.0
C236 C 0.40005 0.34713 0.61493 0.0
C237 C 0.45412 0.35603 0.64976 0.0
C238 C 0.53221 0.36146 0.63897 0.0
C239 C 0.55536 0.35754 0.5938 0.0
C240 C 0.5003 0.3475 0.55955 0.0
H241 H 0.99625 0.86087 0.49278 0.0
H242 H 1.04398 0.8815 0.63533 0.0
H243 H 0.91603 0.86255 0.64884 0.0
H244 H 0.74716 0.90617 0.49831 0.0
H245 H 0.73874 0.86727 0.45273 0.0
H246 H 0.83459 0.88179 0.45459 0.0
H247 H 0.95518 0.80049 0.44986 0.0
H248 H 0.85976 0.78567 0.44695 0.0
H249 H 0.948 0.76907 0.48952 0.0
H250 H 0.7833 0.84009 0.64564 0.0
H251 H 0.66613 0.81114 0.62578 0.0
H252 H 0.70501 0.80886 0.4856 0.0
C253 C 0.98133 0.86051 0.52683 0.0
C254 C 1.03068 0.87196 0.56301 0.0
C255 C 1.00703 0.87251 0.60718 0.0
C256 C 0.9344 0.86202 0.61512 0.0
C257 C 0.88602 0.8516 0.57853 0.0
C258 C 0.90909 0.85058 0.53529 0.0
C259 C 0.84734 0.83826 0.50157 0.0
C260 C 0.78848 0.87561 0.47527 0.0
C261 C 0.90607 0.79585 0.47015 0.0
C262 C 0.78663 0.83171 0.53247 0.0
C263 C 0.80915 0.83982 0.57677 0.0
C264 C 0.76462 0.83396 0.61109 0.0
C265 C 0.69773 0.8179 0.59957 0.0
C266 C 0.6769 0.80786 0.5542 0.0
C267 C 0.7199 0.8162 0.52054 0.0
H268 H 0.45517 0.23904 0.98164 0.0
H269 H 0.28395 0.19206 0.89346 0.0
H270 H 0.34382 0.20555 0.82932 0.0
H271 H 0.4834 0.30943 0.88976 0.0
H272 H 0.60129 0.2947 0.91013 0.0
H273 H 0.50676 0.30977 0.94867 0.0
H274 H 0.5983 0.23804 0.97954 0.0
H275 H 0.69271 0.22222 0.94209 0.0
H276 H 0.63729 0.18687 0.94198 0.0
H277 H 0.47386 0.18026 0.78138 0.0
H278 H 0.63565 0.12506 0.76648 0.0
H279 H 0.73363 0.19569 0.87096 0.0
C280 C 0.42701 0.23424 0.94879 0.0
C281 C 0.36703 0.21381 0.94237 0.0
C282 C 0.32998 0.20784 0.89944 0.0
C283 C 0.36385 0.2156 0.86249 0.0
C284 C 0.43443 0.22954 0.86883 0.0
C285 C 0.46219 0.24122 0.91146 0.0
C286 C 0.55367 0.24453 0.90968 0.0
C287 C 0.53509 0.29246 0.91484 0.0
C288 C 0.6245 0.22144 0.9453 0.0
C289 C 0.58455 0.22193 0.86224 0.0
C290 C 0.51158 0.21671 0.83797 0.0
C291 C 0.53018 0.18533 0.79948 0.0
C292 C 0.62302 0.15398 0.7906 0.0
C293 C 0.69548 0.15542 0.81941 0.0
C294 C 0.67769 0.19388 0.84957 0.0
H295 H 0.33984 0.15801 0.51384 0.0
H296 H 0.42858 1.01838 0.49636 0.0
H297 H 0.59243 1.00508 0.4957 0.0
H298 H 0.52636 0.15066 0.44225 0.0
H299 H 0.54603 0.19353 0.47683 0.0
H300 H 0.43184 0.19409 0.47582 0.0
H301 H 0.43698 0.19826 0.56156 0.0
H302 H 0.55168 0.19715 0.56314 0.0
H303 H 0.53414 0.15715 0.58669 0.0
H304 H 0.74864 1.00401 0.49708 0.0
H305 H 0.88977 1.01561 0.49949 0.0
H306 H 0.71638 0.1556 0.51637 0.0
C307 C 0.39367 0.12466 0.50964 0.0
C308 C 0.36832 1.08938 0.50535 0.0
C309 C 0.44303 1.04642 0.50013 0.0
C310 C 0.53778 1.03825 0.4996 0.0
C311 C 0.56025 1.07313 0.5043 0.0
C312 C 0.49103 0.1156 0.50915 0.0
C313 C 0.53795 0.14646 0.51362 0.0
C314 C 0.50876 0.17279 0.47484 0.0
C315 C 0.51369 0.17657 0.55894 0.0
C316 C 0.64333 0.11458 0.51066 0.0
C317 C 0.65319 1.07249 0.50518 0.0
C318 C 0.74161 1.0369 0.50126 0.0
C319 C 0.82224 1.044 0.50262 0.0
C320 C 0.81672 1.08654 0.50799 0.0
C321 C 0.72468 0.12252 0.51232 0.0
H322 H 0.94907 0.7421 0.98021 0.0
H323 H 0.78145 0.69394 0.89079 0.0
H324 H 0.84329 0.7071 0.82708 0.0
H325 H 0.98231 0.81111 0.88837 0.0
H326 H 1.09949 0.79637 0.9097 0.0
H327 H 1.0034 0.81202 0.94748 0.0
H328 H 1.09263 0.74073 0.97931 0.0
H329 H 0.18864 0.7242 0.94262 0.0
H330 H 0.13218 0.68925 0.94224 0.0
H331 H 0.97484 0.68152 0.78011 0.0
H332 H 0.13686 0.62615 0.76634 0.0
H333 H 0.23232 0.69682 0.87196 0.0
C334 C 0.92212 0.73696 0.94714 0.0
C335 C 0.86271 0.71624 0.94028 0.0
C336 C 0.82708 0.70992 0.8971 0.0
C337 C 0.86215 0.71746 0.86039 0.0
C338 C 0.93266 0.73144 0.86723 0.0
C339 C 0.95891 0.74351 0.91006 0.0
C340 C 1.05087 0.74652 0.90903 0.0
C341 C 1.03287 0.79434 0.91391 0.0
C342 C 0.11999 0.72372 0.94532 0.0
C343 C 1.08347 0.72339 0.86191 0.0
C344 C 1.01113 0.71817 0.83704 0.0
C345 C 1.03073 0.68658 0.79869 0.0
C346 C 0.1237 0.65512 0.79047 0.0
C347 C 0.19539 0.65661 0.8198 0.0
C348 C 0.17696 0.69507 0.85007 0.0
H349 H 0.35855 0.50229 0.51126 0.0
H350 H 0.27218 0.63631 0.49382 0.0
H351 H 0.10816 0.64893 0.48967 0.0
H352 H 0.18036 0.48499 0.43715 0.0
H353 H 0.15766 0.45368 0.47201 0.0
H354 H 0.27138 0.45354 0.47296 0.0
H355 H 0.25609 0.47855 0.55856 0.0
H356 H 0.14187 0.47918 0.55764 0.0
H357 H 0.15536 0.52742 0.581 0.0
H358 H 0.95179 0.64944 0.48664 0.0
H359 H 0.81079 0.63823 0.4869 0.0
H360 H 0.98239 0.50454 0.50792 0.0
C361 C 0.30519 0.53422 0.50639 0.0
C362 C 0.33102 0.56825 0.50299 0.0
C363 C 0.25703 0.60945 0.49694 0.0
C364 C 0.16236 0.61712 0.49434 0.0
C365 C 0.13939 0.58354 0.49801 0.0
C366 C 0.20801 0.54286 0.50412 0.0
C367 C 0.16076 0.51333 0.50796 0.0
C368 C 0.19458 0.47402 0.47029 0.0
C369 C 0.1797 0.49872 0.55402 0.0
C370 C 1.05585 0.54375 0.50259 0.0
C371 C 1.04649 0.58403 0.49685 0.0
C372 C 0.95851 0.61796 0.49112 0.0
C373 C 0.87785 0.61107 0.49128 0.0
C374 C 0.88277 0.57041 0.4973 0.0
C375 C 0.97445 0.53612 0.50307 0.0
H376 H 0.20792 1.04557 0.35002 0.0
H377 H 0.90767 0.12072 0.37239 0.0
H378 H 0.88177 0.11594 0.29102 0.0
H379 H 0.21633 0.09721 0.25938 0.0
H380 H 0.30561 1.04863 0.22864 0.0
H381 H 0.30022 1.05498 0.28852 0.0
H382 H 0.28956 0.98193 0.28191 0.0
H383 H 0.2945 0.97547 0.22195 0.0
H384 H 0.19817 0.97428 0.24845 0.0
H385 H 0.88789 0.10347 0.20707 0.0
H386 H 0.92678 1.09043 0.1271 0.0
H387 H 0.22369 1.02702 0.15861 0.0
C388 C 0.13674 1.06058 0.33769 0.0
C389 C 1.05969 1.08326 0.36759 0.0
C390 C 0.96775 0.10322 0.35018 0.0
C391 C 0.95225 0.10049 0.30396 0.0
C392 C 1.02951 1.07811 0.27536 0.0
C393 C 0.12009 1.05892 0.29149 0.0
C394 C 0.19107 1.0394 0.2535 0.0
C395 C 0.25719 1.06138 0.25777 0.0
C396 C 0.24659 0.98982 0.25134 0.0
C397 C 0.12626 1.05073 0.21363 0.0
C398 C 1.03328 1.07249 0.22697 0.0
C399 C 0.96051 1.08646 0.19624 0.0
C400 C 0.98332 1.07872 0.15078 0.0
C401 C 1.07825 1.05772 0.13634 0.0
C402 C 0.15037 1.04318 0.1684 0.0
H403 H 0.12369 1.02619 0.83799 0.0
H404 H 0.22307 0.12264 0.89218 0.0
H405 H 0.21442 0.14209 0.81713 0.0
H406 H 0.24847 0.99045 0.73265 0.0
H407 H 0.15428 0.98368 0.70098 0.0
H408 H 0.16921 0.97694 0.75887 0.0
H409 H 0.99726 1.03554 0.77577 0.0
H410 H 0.98262 1.04146 0.71766 0.0
H411 H 0.95937 1.0884 0.75977 0.0
H412 H 0.18949 0.15298 0.73655 0.0
H413 H 0.15898 0.15174 0.65578 0.0
H414 H 1.07898 1.04707 0.6531 0.0
C415 C 0.14451 1.05113 0.83406 0.0
C416 C 0.17447 1.07276 0.87114 0.0
C417 C 0.2003 0.10544 0.86442 0.0
C418 C 0.1953 0.11684 0.82188 0.0
C419 C 0.16445 0.09525 0.78622 0.0
C420 C 0.14002 1.0629 0.79178 0.0
C421 C 0.10902 1.0448 0.7479 0.0
C422 C 0.17416 0.99608 0.7343 0.0
C423 C 1.00596 1.05305 0.75046 0.0
C424 C 0.12025 1.0719 0.71673 0.0
C425 C 0.15157 0.10103 0.73963 0.0
C426 C 0.16542 0.13014 0.71827 0.0
C427 C 0.14761 0.12924 0.67231 0.0
C428 C 0.11684 0.09922 0.64787 0.0
C429 C 0.10289 1.07027 0.67065 0.0
H430 H 0.63829 0.5948 0.35359 0.0
H431 H 0.56623 0.48907 0.35768 0.0
H432 H 0.54898 0.47972 0.27527 0.0
H433 H 0.48854 0.64051 0.2635 0.0
H434 H 0.57383 0.65131 0.23877 0.0
H435 H 0.57551 0.65103 0.29798 0.0
H436 H 0.7493 0.59291 0.29256 0.0
H437 H 0.74839 0.5933 0.23342 0.0
H438 H 0.78134 0.54287 0.25395 0.0
H439 H 0.53216 0.48493 0.19201 0.0
H440 H 0.54154 0.49631 0.11447 0.0
H441 H 0.64138 0.59302 0.16496 0.0
C442 C 0.6187 0.56978 0.33699 0.0
C443 C 0.60262 0.54286 0.36169 0.0
C444 C 0.57875 0.50993 0.33908 0.0
C445 C 0.5683 0.50461 0.29242 0.0
C446 C 0.5841 0.53188 0.26888 0.0
C447 C 0.61085 0.56317 0.29038 0.0
C448 C 0.63011 0.58622 0.25728 0.0
C449 C 0.56297 0.63517 0.26484 0.0
C450 C 0.73342 0.57834 0.25943 0.0
C451 C 0.60909 0.56341 0.21381 0.0
C452 C 0.58091 0.53273 0.22114 0.0
C453 C 0.55498 0.50859 0.18591 0.0
C454 C 0.55988 0.51541 0.14208 0.0
C455 C 0.59244 0.54535 0.13396 0.0
C456 C 0.61678 0.56971 0.17035 0.0
H457 H 0.58777 0.53331 0.65304 0.0
H458 H 0.68377 0.63138 0.64753 0.0
H459 H 0.70963 0.6376 0.72903 0.0
H460 H 0.46445 0.58321 0.75843 0.0
H461 H 0.49577 0.53205 0.77707 0.0
H462 H 0.48434 0.53523 0.7183 0.0
H463 H 0.65338 0.47392 0.70423 0.0
H464 H 0.66574 0.4701 0.76284 0.0
H465 H 0.74951 0.4796 0.73511 0.0
H466 H 0.72736 0.63228 0.81153 0.0
H467 H 0.73043 0.61745 0.8884 0.0
H468 H 0.62255 0.52302 0.83965 0.0
C469 C 0.61413 0.55616 0.66892 0.0
C470 C 0.63398 0.58178 0.64375 0.0
C471 C 0.66786 0.61145 0.66601 0.0
C472 C 0.68298 0.61515 0.71232 0.0
C473 C 0.66338 0.58918 0.73606 0.0
C474 C 0.62907 0.56046 0.71514 0.0
C475 C 0.61288 0.53652 0.74831 0.0
C476 C 0.50815 0.54741 0.75067 0.0
C477 C 0.67405 0.48711 0.73693 0.0
C478 C 0.64479 0.55576 0.79105 0.0
C479 C 0.67339 0.58618 0.78336 0.0
C480 C 0.7051 0.60851 0.8179 0.0
C481 C 0.70683 0.59978 0.86147 0.0
C482 C 0.67726 0.5689 0.87014 0.0
C483 C 0.64637 0.54656 0.83422 0.0
loop_
_geom_bond_atom_site_label_1
_geom_bond_atom_site_label_2
_geom_bond_distance
_geom_bond_site_symmetry_2
_ccdc_geom_bond_type
Eu0 C9 2.828 . S
Eu0 O11 2.392 1_655 S
Eu0 O13 2.418 . S
Eu0 O18 2.373 1_565 S
Eu0 O21 2.488 . S
Eu0 O22 2.471 1_556 S
Eu0 O23 2.349 1_556 S
Eu1 O10 2.373 1_545 S
Eu1 O14 2.488 . S
Eu1 O15 2.471 1_554 S
Eu1 O16 2.349 1_554 S
Eu1 O19 2.392 1_455 S
Eu1 O20 2.418 . S
Eu1 C30 2.828 . S
C2 O20 1.244 . S
C2 O23 1.265 1_445 S
C3 C4 1.379 1_556 S
C3 C7 1.373 . S
C3 C9 1.505 1_545 S
C4 C3 1.379 1_554 S
C4 C6 1.369 . S
C4 H32 0.930 . S
C5 C7 1.383 . S
C5 C8 1.382 1_556 S
C5 H33 0.930 . S
C6 C4 1.369 . S
C6 C8 1.392 . S
C6 H34 0.930 . S
C7 C3 1.373 . S
C7 C5 1.383 . S
C7 H35 0.931 1_545 S
C8 C5 1.382 1_554 S
C8 C6 1.392 . S
C9 Eu0 2.828 . S
C9 C3 1.505 1_565 S
C9 O21 1.249 . S
C9 O22 1.244 1_556 S
O10 Eu1 2.373 1_565 S
O10 C12 1.258 . S
O11 Eu0 2.392 1_455 S
O11 C12 1.241 1_556 S
C12 O10 1.258 . S
C12 O11 1.241 1_554 S
O13 Eu0 2.418 . S
O13 C17 1.244 . S
O14 Eu1 2.488 . S
O14 C30 1.249 . S
O15 Eu1 2.471 1_556 S
O15 C30 1.244 1_556 S
O16 Eu1 2.349 1_556 S
O16 C17 1.265 1_445 S
C17 O13 1.244 . S
C17 O16 1.265 1_665 S
O18 Eu0 2.373 1_545 S
O18 C31 1.258 1_556 S
O19 Eu1 2.392 1_655 S
O19 C31 1.241 . S
O20 Eu1 2.418 . S
O20 C2 1.244 . S
O21 Eu0 2.488 . S
O21 C9 1.249 . S
O22 Eu0 2.471 1_554 S
O22 C9 1.244 1_554 S
O23 Eu0 2.349 1_554 S
O23 C2 1.265 1_665 S
C24 C25 1.379 1_554 S
C24 C28 1.382 . S
C24 C30 1.505 1_565 S
C25 C24 1.379 1_556 S
C25 C27 1.369 . S
C25 H36 0.930 . S
C26 C28 1.385 . S
C26 C29 1.382 1_554 S
C26 H37 0.930 . S
C27 C25 1.369 . S
C27 C29 1.392 . S
C27 H38 0.930 . S
C28 C24 1.382 . S
C28 C26 1.385 . S
C28 H39 0.921 1_565 S
C29 C26 1.382 1_556 S
C29 C27 1.392 . S
C30 Eu1 2.828 . S
C30 O14 1.249 . S
C30 O15 1.244 1_554 S
C30 C24 1.505 1_545 S
C31 O18 1.258 1_554 S
C31 O19 1.241 . S
H32 C4 0.930 . S
H33 C5 0.930 . S
H34 C6 0.930 . S
H35 C7 0.931 1_565 S
H36 C25 0.930 . S
H37 C26 0.930 . S
H38 C27 0.930 . S
H39 C28 0.921 1_545 S
Eu40 C49 2.828 1_455 S
Eu40 O51 2.392 . S
Eu40 O53 2.418 1_455 S
Eu40 O58 2.373 1_455 S
Eu40 O61 2.488 1_455 S
Eu40 O62 2.471 1_455 S
Eu40 O63 2.349 . S
Eu41 O50 2.373 1_655 S
Eu41 O54 2.488 1_655 S
Eu41 O55 2.471 1_655 S
Eu41 O56 2.349 . S
Eu41 O59 2.392 . S
Eu41 O60 2.418 1_655 S
Eu41 C70 2.828 1_655 S
C42 O60 1.241 . S
C42 O63 1.265 1_545 S
C43 C44 1.379 . S
C43 C47 1.373 . S
C43 C49 1.505 . S
C44 C43 1.379 . S
C44 C46 1.369 . S
C44 H72 0.930 . S
C45 C47 1.383 . S
C45 C48 1.382 . S
C45 H73 0.930 . S
C46 C44 1.369 . S
C46 C48 1.392 . S
C46 H74 0.930 . S
C47 C43 1.373 . S
C47 C45 1.383 . S
C47 H75 0.931 . S
C48 C45 1.382 . S
C48 C46 1.392 . S
C49 Eu40 2.828 1_655 S
C49 C43 1.505 . S
C49 O61 1.249 . S
C49 O62 1.244 . S
O50 Eu41 2.373 1_455 S
O50 C52 1.258 1_545 S
O51 Eu40 2.392 . S
O51 C52 1.242 . S
C52 O50 1.258 1_565 S
C52 O51 1.242 . S
O53 Eu40 2.418 1_655 S
O53 C57 1.242 . S
O54 Eu41 2.488 1_455 S
O54 C70 1.249 . S
O55 Eu41 2.471 1_455 S
O55 C70 1.244 . S
O56 Eu41 2.349 . S
O56 C57 1.265 1_545 S
C57 O53 1.242 . S
C57 O56 1.265 1_565 S
O58 Eu40 2.373 1_655 S
O58 C71 1.258 1_565 S
O59 Eu41 2.392 . S
O59 C71 1.242 . S
O60 Eu41 2.418 1_455 S
O60 C42 1.241 . S
O61 Eu40 2.488 1_655 S
O61 C49 1.249 . S
O62 Eu40 2.471 1_655 S
O62 C49 1.244 . S
O63 Eu40 2.349 . S
O63 C42 1.265 1_565 S
C64 C65 1.379 . S
C64 C68 1.373 . S
C64 C70 1.505 . S
C65 C64 1.379 . S
C65 C67 1.369 . S
C65 H76 0.930 . S
C66 C68 1.383 . S
C66 C69 1.382 . S
C66 H77 0.930 . S
C67 C65 1.369 . S
C67 C69 1.392 . S
C67 H78 0.930 . S
C68 C64 1.373 . S
C68 C66 1.383 . S
C68 H79 0.931 . S
C69 C66 1.382 . S
C69 C67 1.392 . S
C70 Eu41 2.828 1_455 S
C70 O54 1.249 . S
C70 O55 1.244 . S
C70 C64 1.505 . S
C71 O58 1.258 1_545 S
C71 O59 1.242 . S
H72 C44 0.930 . S
H73 C45 0.930 . S
H74 C46 0.930 . S
H75 C47 0.931 . S
H76 C65 0.930 . S
H77 C66 0.930 . S
H78 C67 0.930 . S
H79 C68 0.931 . S
Eu80 C89 2.828 . S
Eu80 O91 2.392 . S
Eu80 O93 2.418 . S
Eu80 O98 2.373 . S
Eu80 O101 2.488 . S
Eu80 O102 2.471 1_556 S
Eu80 O103 2.349 1_556 S
Eu81 O90 2.373 . S
Eu81 O94 2.488 . S
Eu81 O95 2.471 1_554 S
Eu81 O96 2.349 1_554 S
Eu81 O99 2.392 . S
Eu81 O100 2.418 . S
Eu81 C110 2.828 . S
C82 O100 1.244 . S
C82 O103 1.265 . S
C83 C84 1.379 1_556 S
C83 C87 1.373 . S
C83 C89 1.505 . S
C84 C83 1.379 1_554 S
C84 C86 1.369 . S
C84 H112 0.930 . S
C85 C87 1.383 . S
C85 C88 1.382 1_556 S
C85 H113 0.930 . S
C86 C84 1.369 . S
C86 C88 1.392 . S
C86 H114 0.930 . S
C87 C83 1.373 . S
C87 C85 1.383 . S
C87 H115 0.931 . S
C88 C85 1.382 1_554 S
C88 C86 1.392 . S
C89 Eu80 2.828 . S
C89 C83 1.505 . S
C89 O101 1.249 . S
C89 O102 1.244 1_556 S
O90 Eu81 2.373 . S
O90 C92 1.258 . S
O91 Eu80 2.392 . S
O91 C92 1.241 1_556 S
C92 O90 1.258 . S
C92 O91 1.241 1_554 S
O93 Eu80 2.418 . S
O93 C97 1.244 . S
O94 Eu81 2.488 . S
O94 C110 1.249 . S
O95 Eu81 2.471 1_556 S
O95 C110 1.244 1_556 S
O96 Eu81 2.349 1_556 S
O96 C97 1.265 . S
C97 O93 1.244 . S
C97 O96 1.265 . S
O98 Eu80 2.373 . S
O98 C111 1.258 1_556 S
O99 Eu81 2.392 . S
O99 C111 1.241 . S
O100 Eu81 2.418 . S
O100 C82 1.244 . S
O101 Eu80 2.488 . S
O101 C89 1.249 . S
O102 Eu80 2.471 1_554 S
O102 C89 1.244 1_554 S
O103 Eu80 2.349 1_554 S
O103 C82 1.265 . S
C104 C105 1.379 1_554 S
C104 C108 1.373 . S
C104 C110 1.505 . S
C105 C104 1.379 1_556 S
C105 C107 1.369 . S
C105 H116 0.930 . S
C106 C108 1.383 . S
C106 C109 1.382 1_554 S
C106 H117 0.930 . S
C107 C105 1.369 . S
C107 C109 1.392 . S
C107 H118 0.930 . S
C108 C104 1.373 . S
C108 C106 1.383 . S
C108 H119 0.931 . S
C109 C106 1.382 1_556 S
C109 C107 1.392 . S
C110 Eu81 2.828 . S
C110 O94 1.249 . S
C110 O95 1.244 1_554 S
C110 C104 1.505 . S
C111 O98 1.258 1_554 S
C111 O99 1.241 . S
H112 C84 0.930 . S
H113 C85 0.930 . S
H114 C86 0.930 . S
H115 C87 0.931 . S
H116 C105 0.930 . S
H117 C106 0.930 . S
H118 C107 0.930 . S
H119 C108 0.931 . S
Eu120 C129 2.828 . S
Eu120 O131 2.392 . S
Eu120 O133 2.418 . S
Eu120 O138 2.373 . S
Eu120 O141 2.488 . S
Eu120 O142 2.471 . S
Eu120 O143 2.349 . S
Eu121 O130 2.373 . S
Eu121 O134 2.488 . S
Eu121 O135 2.471 . S
Eu121 O136 2.349 . S
Eu121 O139 2.392 . S
Eu121 O140 2.418 . S
Eu121 C150 2.828 . S
C122 O140 1.244 . S
C122 O143 1.265 . S
C123 C124 1.379 . S
C123 C127 1.373 . S
C123 C129 1.505 . S
C124 C123 1.379 . S
C124 C126 1.369 . S
C124 H152 0.930 . S
C125 C127 1.383 . S
C125 C128 1.382 . S
C125 H153 0.930 . S
C126 C124 1.369 . S
C126 C128 1.392 . S
C126 H154 0.930 . S
C127 C123 1.373 . S
C127 C125 1.383 . S
C127 H155 0.931 . S
C128 C125 1.382 . S
C128 C126 1.392 . S
C129 Eu120 2.828 . S
C129 C123 1.505 . S
C129 O141 1.249 . S
C129 O142 1.244 . S
O130 Eu121 2.373 . S
O130 C132 1.258 . S
O131 Eu120 2.392 . S
O131 C132 1.242 . S
C132 O130 1.258 . S
C132 O131 1.242 . S
O133 Eu120 2.418 . S
O133 C137 1.244 . S
O134 Eu121 2.488 . S
O134 C150 1.249 . S
O135 Eu121 2.471 . S
O135 C150 1.244 . S
O136 Eu121 2.349 . S
O136 C137 1.265 . S
C137 O133 1.244 . S
C137 O136 1.265 . S
O138 Eu120 2.373 . S
O138 C151 1.258 . S
O139 Eu121 2.392 . S
O139 C151 1.242 . S
O140 Eu121 2.418 . S
O140 C122 1.244 . S
O141 Eu120 2.488 . S
O141 C129 1.249 . S
O142 Eu120 2.471 . S
O142 C129 1.244 . S
O143 Eu120 2.349 . S
O143 C122 1.265 . S
C144 C145 1.379 . S
C144 C148 1.373 . S
C144 C150 1.505 . S
C145 C144 1.379 . S
C145 C147 1.369 . S
C145 H156 0.930 . S
C146 C148 1.383 . S
C146 C149 1.382 . S
C146 H157 0.930 . S
C147 C145 1.369 . S
C147 C149 1.392 . S
C147 H158 0.930 . S
C148 C144 1.373 . S
C148 C146 1.383 . S
C148 H159 0.931 . S
C149 C146 1.382 . S
C149 C147 1.392 . S
C150 Eu121 2.828 . S
C150 O134 1.249 . S
C150 O135 1.244 . S
C150 C144 1.505 . S
C151 O138 1.258 . S
C151 O139 1.242 . S
H152 C124 0.930 . S
H153 C125 0.930 . S
H154 C126 0.930 . S
H155 C127 0.931 . S
H156 C145 0.930 . S
H157 C146 0.930 . S
H158 C147 0.930 . S
H159 C148 0.931 . S
H160 C172 0.930 . S
H161 C174 0.930 . S
H162 C175 0.930 . S
H163 C179 0.959 . S
H164 C179 0.959 . S
H165 C179 0.961 . S
H166 C180 0.960 . S
H167 C180 0.961 . S
H168 C180 0.959 . S
H169 C183 0.929 . S
H170 C184 0.931 . S
H171 C186 0.930 . S
C172 H160 0.930 . S
C172 C173 1.399 1_554 S
C172 C177 1.399 . S
C173 C172 1.399 1_556 S
C173 C174 1.376 . S
C174 H161 0.930 . S
C174 C173 1.376 . S
C174 C175 1.388 . S
C175 H162 0.930 . S
C175 C174 1.388 . S
C175 C176 1.390 . S
C176 C175 1.390 . S
C176 C177 1.394 1_556 S
C176 C182 1.465 . S
C177 C172 1.399 . S
C177 C176 1.394 1_554 S
C177 C178 1.516 . S
C178 C177 1.516 . S
C178 C179 1.502 . S
C178 C180 1.561 . S
C178 C181 1.526 . S
C179 H163 0.959 . S
C179 H164 0.959 . S
C179 H165 0.961 . S
C179 C178 1.502 . S
C180 H166 0.960 . S
C180 H167 0.961 . S
C180 H168 0.959 . S
C180 C178 1.561 . S
C181 C178 1.526 . S
C181 C182 1.396 1_554 S
C181 C186 1.390 . S
C182 C176 1.465 . S
C182 C181 1.396 1_556 S
C182 C183 1.399 . S
C183 H169 0.929 . S
C183 C182 1.399 . S
C183 C184 1.385 . S
C184 H170 0.931 . S
C184 C183 1.385 . S
C184 C185 1.389 . S
C185 C184 1.389 . S
C185 C186 1.387 1_556 S
C186 H171 0.930 . S
C186 C181 1.390 . S
C186 C185 1.387 1_554 S
H187 C199 0.930 . S
H188 C201 0.930 . S
H189 C202 0.930 . S
H190 C206 0.959 . S
H191 C206 0.959 . S
H192 C206 0.961 . S
H193 C207 0.960 . S
H194 C207 0.961 . S
H195 C207 0.959 . S
H196 C210 0.929 . S
H197 C211 0.931 . S
H198 C213 0.930 . S
C199 H187 0.930 . S
C199 C200 1.399 1_556 S
C199 C204 1.399 . S
C200 C199 1.399 1_554 S
C200 C201 1.376 . S
C201 H188 0.930 . S
C201 C200 1.376 . S
C201 C202 1.388 . S
C202 H189 0.930 . S
C202 C201 1.388 . S
C202 C203 1.390 . S
C203 C202 1.390 . S
C203 C204 1.394 1_554 S
C203 C209 1.465 . S
C204 C199 1.399 . S
C204 C203 1.394 1_556 S
C204 C205 1.516 . S
C205 C204 1.516 . S
C205 C206 1.502 . S
C205 C207 1.561 . S
C205 C208 1.526 . S
C206 H190 0.959 . S
C206 H191 0.959 . S
C206 H192 0.961 . S
C206 C205 1.502 . S
C207 H193 0.960 . S
C207 H194 0.961 . S
C207 H195 0.959 . S
C207 C205 1.561 . S
C208 C205 1.526 . S
C208 C209 1.396 1_556 S
C208 C213 1.390 . S
C209 C203 1.465 . S
C209 C208 1.396 1_554 S
C209 C210 1.399 . S
C210 H196 0.929 . S
C210 C209 1.399 . S
C210 C211 1.385 . S
C211 H197 0.931 . S
C211 C210 1.385 . S
C211 C212 1.389 . S
C212 C211 1.389 . S
C212 C213 1.387 1_554 S
C213 H198 0.930 . S
C213 C208 1.390 . S
C213 C212 1.387 1_556 S
H214 C226 0.930 . S
H215 C228 0.930 . S
H216 C229 0.930 . S
H217 C233 0.959 . S
H218 C233 0.959 . S
H219 C233 0.961 . S
H220 C234 0.960 . S
H221 C234 0.961 . S
H222 C234 0.959 . S
H223 C237 0.929 . S
H224 C238 0.931 . S
H225 C240 0.930 . S
C226 H214 0.930 . S
C226 C227 1.399 . S
C226 C231 1.399 . S
C227 C226 1.399 . S
C227 C228 1.376 . S
C228 H215 0.930 . S
C228 C227 1.376 . S
C228 C229 1.388 . S
C229 H216 0.930 . S
C229 C228 1.388 . S
C229 C230 1.390 . S
C230 C229 1.390 . S
C230 C231 1.394 . S
C230 C236 1.465 . S
C231 C226 1.399 . S
C231 C230 1.394 . S
C231 C232 1.516 . S
C232 C231 1.516 . S
C232 C233 1.502 . S
C232 C234 1.561 . S
C232 C235 1.526 . S
C233 H217 0.959 . S
C233 H218 0.959 . S
C233 H219 0.961 . S
C233 C232 1.502 . S
C234 H220 0.960 . S
C234 H221 0.961 . S
C234 H222 0.959 . S
C234 C232 1.561 . S
C235 C232 1.526 . S
C235 C236 1.396 . S
C235 C240 1.390 . S
C236 C230 1.465 . S
C236 C235 1.396 . S
C236 C237 1.399 . S
C237 H223 0.929 . S
C237 C236 1.399 . S
C237 C238 1.385 . S
C238 H224 0.931 . S
C238 C237 1.385 . S
C238 C239 1.389 . S
C239 C238 1.389 . S
C239 C240 1.387 . S
C240 H225 0.930 . S
C240 C235 1.390 . S
C240 C239 1.387 . S
H241 C253 0.930 . S
H242 C255 0.930 . S
H243 C256 0.930 . S
H244 C260 0.959 . S
H245 C260 0.959 . S
H246 C260 0.961 . S
H247 C261 0.960 . S
H248 C261 0.961 . S
H249 C261 0.959 . S
H250 C264 0.929 . S
H251 C265 0.931 . S
H252 C267 0.930 . S
C253 H241 0.930 . S
C253 C254 1.399 . S
C253 C258 1.399 . S
C254 C253 1.399 . S
C254 C255 1.376 . S
C255 H242 0.930 . S
C255 C254 1.376 . S
C255 C256 1.388 . S
C256 H243 0.930 . S
C256 C255 1.388 . S
C256 C257 1.390 . S
C257 C256 1.390 . S
C257 C258 1.394 . S
C257 C263 1.465 . S
C258 C253 1.399 . S
C258 C257 1.394 . S
C258 C259 1.516 . S
C259 C258 1.516 . S
C259 C260 1.502 . S
C259 C261 1.561 . S
C259 C262 1.526 . S
C260 H244 0.959 . S
C260 H245 0.959 . S
C260 H246 0.961 . S
C260 C259 1.502 . S
C261 H247 0.960 . S
C261 H248 0.961 . S
C261 H249 0.959 . S
C261 C259 1.561 . S
C262 C259 1.526 . S
C262 C263 1.396 . S
C262 C267 1.390 . S
C263 C257 1.465 . S
C263 C262 1.396 . S
C263 C264 1.399 . S
C264 H250 0.929 . S
C264 C263 1.399 . S
C264 C265 1.385 . S
C265 H251 0.931 . S
C265 C264 1.385 . S
C265 C266 1.389 . S
C266 C265 1.389 . S
C266 C267 1.387 . S
C267 H252 0.930 . S
C267 C262 1.390 . S
C267 C266 1.387 . S
H268 C280 0.930 . S
H269 C282 0.930 . S
H270 C283 0.930 . S
H271 C287 0.959 . S
H272 C287 0.959 . S
H273 C287 0.961 . S
H274 C288 0.960 . S
H275 C288 0.961 . S
H276 C288 0.959 . S
H277 C291 0.929 . S
H278 C292 0.931 . S
H279 C294 0.930 . S
C280 H268 0.930 . S
C280 C281 1.399 1_554 S
C280 C285 1.399 . S
C281 C280 1.399 1_556 S
C281 C282 1.376 . S
C282 H269 0.930 . S
C282 C281 1.376 . S
C282 C283 1.388 . S
C283 H270 0.930 . S
C283 C282 1.388 . S
C283 C284 1.390 . S
C284 C283 1.390 . S
C284 C285 1.394 1_556 S
C284 C290 1.465 1_565 S
C285 C280 1.399 . S
C285 C284 1.394 1_554 S
C285 C286 1.516 1_565 S
C286 C285 1.516 1_545 S
C286 C287 1.502 . S
C286 C288 1.561 1_545 S
C286 C289 1.526 . S
C287 H271 0.959 . S
C287 H272 0.959 . S
C287 H273 0.961 . S
C287 C286 1.502 . S
C288 H274 0.960 . S
C288 H275 0.961 . S
C288 H276 0.959 . S
C288 C286 1.561 1_565 S
C289 C286 1.526 . S
C289 C290 1.396 1_554 S
C289 C294 1.390 . S
C290 C284 1.465 1_545 S
C290 C289 1.396 1_556 S
C290 C291 1.399 . S
C291 H277 0.929 . S
C291 C290 1.399 . S
C291 C292 1.385 . S
C292 H278 0.931 . S
C292 C291 1.385 . S
C292 C293 1.389 1_556 S
C293 C292 1.389 1_554 S
C293 C294 1.387 . S
C294 H279 0.930 . S
C294 C289 1.390 . S
C294 C293 1.387 . S
H295 C307 0.930 . S
H296 C309 0.930 . S
H297 C310 0.930 . S
H298 C314 0.959 . S
H299 C314 0.959 . S
H300 C314 0.961 . S
H301 C315 0.960 . S
H302 C315 0.961 . S
H303 C315 0.959 . S
H304 C318 0.929 . S
H305 C319 0.931 . S
H306 C321 0.930 . S
C307 H295 0.930 . S
C307 C308 1.399 1_545 S
C307 C312 1.399 . S
C308 C307 1.399 1_565 S
C308 C309 1.376 . S
C309 H296 0.930 . S
C309 C308 1.376 . S
C309 C310 1.388 . S
C310 H297 0.930 . S
C310 C309 1.388 . S
C310 C311 1.390 . S
C311 C310 1.390 . S
C311 C312 1.394 1_565 S
C311 C317 1.465 . S
C312 C307 1.399 . S
C312 C311 1.394 1_545 S
C312 C313 1.516 . S
C313 C312 1.516 . S
C313 C314 1.502 . S
C313 C315 1.561 . S
C313 C316 1.526 . S
C314 H298 0.959 . S
C314 H299 0.959 . S
C314 H300 0.961 . S
C314 C313 1.502 . S
C315 H301 0.960 . S
C315 H302 0.961 . S
C315 H303 0.959 . S
C315 C313 1.561 . S
C316 C313 1.526 . S
C316 C317 1.396 1_545 S
C316 C321 1.390 . S
C317 C311 1.465 . S
C317 C316 1.396 1_565 S
C317 C318 1.399 . S
C318 H304 0.929 . S
C318 C317 1.399 . S
C318 C319 1.385 . S
C319 H305 0.931 . S
C319 C318 1.385 . S
C319 C320 1.389 . S
C320 C319 1.389 . S
C320 C321 1.387 1_565 S
C321 H306 0.930 . S
C321 C316 1.390 . S
C321 C320 1.387 1_545 S
H322 C334 0.930 . S
H323 C336 0.930 . S
H324 C337 0.930 . S
H325 C341 0.959 . S
H326 C341 0.959 . S
H327 C341 0.961 . S
H328 C342 0.960 . S
H329 C342 0.961 . S
H330 C342 0.959 . S
H331 C345 0.929 . S
H332 C346 0.931 . S
H333 C348 0.930 . S
C334 H322 0.930 . S
C334 C335 1.399 1_554 S
C334 C339 1.399 . S
C335 C334 1.399 1_556 S
C335 C336 1.376 . S
C336 H323 0.930 . S
C336 C335 1.376 . S
C336 C337 1.388 . S
C337 H324 0.930 . S
C337 C336 1.388 . S
C337 C338 1.390 . S
C338 C337 1.390 . S
C338 C339 1.394 1_556 S
C338 C344 1.465 1_655 S
C339 C334 1.399 . S
C339 C338 1.394 1_554 S
C339 C340 1.516 1_655 S
C340 C339 1.516 1_455 S
C340 C341 1.502 1_455 S
C340 C342 1.561 . S
C340 C343 1.526 . S
C341 H325 0.959 . S
C341 H326 0.959 . S
C341 H327 0.961 . S
C341 C340 1.502 1_655 S
C342 H328 0.960 . S
C342 H329 0.961 . S
C342 H330 0.959 . S
C342 C340 1.561 . S
C343 C340 1.526 . S
C343 C344 1.396 1_554 S
C343 C348 1.390 . S
C344 C338 1.465 1_455 S
C344 C343 1.396 1_556 S
C344 C345 1.399 . S
C345 H331 0.929 . S
C345 C344 1.399 . S
C345 C346 1.385 . S
C346 H332 0.931 . S
C346 C345 1.385 . S
C346 C347 1.389 1_556 S
C347 C346 1.389 1_554 S
C347 C348 1.387 . S
C348 H333 0.930 . S
C348 C343 1.390 . S
C348 C347 1.387 . S
H349 C361 0.930 . S
H350 C363 0.930 . S
H351 C364 0.930 . S
H352 C368 0.959 . S
H353 C368 0.959 . S
H354 C368 0.961 1_455 S
H355 C369 0.960 . S
H356 C369 0.958 1_655 S
H357 C369 0.959 . S
H358 C372 0.929 . S
H359 C373 0.931 . S
H360 C375 0.930 . S
C361 H349 0.930 . S
C361 C362 1.399 . S
C361 C366 1.399 . S
C362 C361 1.399 . S
C362 C363 1.376 . S
C363 H350 0.930 . S
C363 C362 1.376 . S
C363 C364 1.388 . S
C364 H351 0.930 . S
C364 C363 1.388 . S
C364 C365 1.390 . S
C365 C364 1.390 . S
C365 C366 1.394 . S
C365 C371 1.465 1_455 S
C366 C361 1.399 . S
C366 C365 1.394 . S
C366 C367 1.516 . S
C367 C366 1.516 . S
C367 C368 1.502 1_455 S
C367 C369 1.561 . S
C367 C370 1.526 1_455 S
C368 H352 0.959 . S
C368 H353 0.959 . S
C368 H354 0.961 1_655 S
C368 C367 1.502 1_655 S
C369 H355 0.960 . S
C369 H356 0.958 1_455 S
C369 H357 0.959 . S
C369 C367 1.561 . S
C370 C367 1.526 1_655 S
C370 C371 1.396 . S
C370 C375 1.390 . S
C371 C365 1.465 1_655 S
C371 C370 1.396 . S
C371 C372 1.399 . S
C372 H358 0.929 . S
C372 C371 1.399 . S
C372 C373 1.385 . S
C373 H359 0.931 . S
C373 C372 1.385 . S
C373 C374 1.389 . S
C374 C373 1.389 . S
C374 C375 1.387 . S
C375 H360 0.930 . S
C375 C370 1.390 . S
C375 C374 1.387 . S
H376 C388 0.930 . S
H377 C390 0.930 . S
H378 C391 0.930 . S
H379 C395 0.959 . S
H380 C395 0.959 . S
H381 C395 0.961 . S
H382 C396 0.960 . S
H383 C396 0.961 . S
H384 C396 0.959 . S
H385 C399 0.929 . S
H386 C400 0.931 . S
H387 C402 0.930 . S
C388 H376 0.930 . S
C388 C389 1.399 1_465 S
C388 C393 1.399 . S
C389 C388 1.399 1_645 S
C389 C390 1.376 . S
C390 H377 0.930 . S
C390 C389 1.376 . S
C390 C391 1.388 . S
C391 H378 0.930 . S
C391 C390 1.388 . S
C391 C392 1.390 . S
C392 C391 1.390 . S
C392 C393 1.394 1_645 S
C392 C398 1.465 . S
C393 C388 1.399 . S
C393 C392 1.394 1_465 S
C393 C394 1.516 . S
C394 C393 1.516 . S
C394 C395 1.502 . S
C394 C396 1.561 . S
C394 C397 1.526 . S
C395 H379 0.959 . S
C395 H380 0.959 . S
C395 H381 0.961 . S
C395 C394 1.502 . S
C396 H382 0.960 . S
C396 H383 0.961 . S
C396 H384 0.959 . S
C396 C394 1.561 . S
C397 C394 1.526 . S
C397 C398 1.396 1_465 S
C397 C402 1.390 . S
C398 C392 1.465 . S
C398 C397 1.396 1_645 S
C398 C399 1.399 . S
C399 H385 0.929 . S
C399 C398 1.399 . S
C399 C400 1.385 . S
C400 H386 0.931 . S
C400 C399 1.385 . S
C400 C401 1.389 . S
C401 C400 1.389 . S
C401 C402 1.387 1_645 S
C402 H387 0.930 . S
C402 C397 1.390 . S
C402 C401 1.387 1_465 S
H403 C415 0.930 . S
H404 C417 0.930 . S
H405 C418 0.930 . S
H406 C422 0.959 . S
H407 C422 0.959 . S
H408 C422 0.961 . S
H409 C423 0.960 1_455 S
H410 C423 0.961 1_455 S
H411 C423 0.959 . S
H412 C426 0.929 . S
H413 C427 0.931 . S
H414 C429 0.930 . S
C415 H403 0.930 . S
C415 C416 1.395 1_465 S
C415 C420 1.399 . S
C416 C415 1.395 1_645 S
C416 C417 1.381 . S
C417 H404 0.930 . S
C417 C416 1.381 . S
C417 C418 1.388 . S
C418 H405 0.930 . S
C418 C417 1.388 . S
C418 C419 1.390 . S
C419 C418 1.390 . S
C419 C420 1.394 1_645 S
C419 C425 1.465 . S
C420 C415 1.399 . S
C420 C419 1.394 1_465 S
C420 C421 1.516 . S
C421 C420 1.516 . S
C421 C422 1.502 . S
C421 C423 1.561 1_455 S
C421 C424 1.526 . S
C422 H406 0.959 . S
C422 H407 0.959 . S
C422 H408 0.961 . S
C422 C421 1.502 . S
C423 H409 0.960 1_655 S
C423 H410 0.961 1_655 S
C423 H411 0.959 . S
C423 C421 1.561 1_655 S
C424 C421 1.526 . S
C424 C425 1.396 1_465 S
C424 C429 1.390 . S
C425 C419 1.465 . S
C425 C424 1.396 1_645 S
C425 C426 1.399 . S
C426 H412 0.929 . S
C426 C425 1.399 . S
C426 C427 1.385 . S
C427 H413 0.931 . S
C427 C426 1.385 . S
C427 C428 1.389 1_655 S
C428 C427 1.389 1_455 S
C428 C429 1.387 1_545 S
C429 H414 0.930 . S
C429 C424 1.390 . S
C429 C428 1.387 1_565 S
H430 C442 0.930 . S
H431 C444 0.930 . S
H432 C445 0.930 . S
H433 C449 0.959 . S
H434 C449 0.959 . S
H435 C449 0.961 . S
H436 C450 0.960 . S
H437 C450 0.961 . S
H438 C450 0.959 . S
H439 C453 0.929 . S
H440 C454 0.931 . S
H441 C456 0.930 . S
C442 H430 0.930 . S
C442 C443 1.399 . S
C442 C447 1.399 . S
C443 C442 1.399 . S
C443 C444 1.376 . S
C444 H431 0.930 . S
C444 C443 1.376 . S
C444 C445 1.388 . S
C445 H432 0.930 . S
C445 C444 1.388 . S
C445 C446 1.390 . S
C446 C445 1.390 . S
C446 C447 1.394 . S
C446 C452 1.465 . S
C447 C442 1.399 . S
C447 C446 1.394 . S
C447 C448 1.516 . S
C448 C447 1.516 . S
C448 C449 1.502 . S
C448 C450 1.561 . S
C448 C451 1.526 . S
C449 H433 0.959 . S
C449 H434 0.959 . S
C449 H435 0.961 . S
C449 C448 1.502 . S
C450 H436 0.960 . S
C450 H437 0.961 . S
C450 H438 0.959 . S
C450 C448 1.561 . S
C451 C448 1.526 . S
C451 C452 1.396 . S
C451 C456 1.390 . S
C452 C446 1.465 . S
C452 C451 1.396 . S
C452 C453 1.399 . S
C453 H439 0.929 . S
C453 C452 1.399 . S
C453 C454 1.385 . S
C454 H440 0.931 . S
C454 C453 1.385 . S
C454 C455 1.389 . S
C455 C454 1.389 . S
C455 C456 1.387 . S
C456 H441 0.930 . S
C456 C451 1.390 . S
C456 C455 1.387 . S
H457 C469 0.930 . S
H458 C471 0.930 . S
H459 C472 0.930 . S
H460 C476 0.959 . S
H461 C476 0.959 . S
H462 C476 0.961 . S
H463 C477 0.960 . S
H464 C477 0.961 . S
H465 C477 0.959 . S
H466 C480 0.929 . S
H467 C481 0.931 . S
H468 C483 0.930 . S
C469 H457 0.930 . S
C469 C470 1.399 . S
C469 C474 1.399 . S
C470 C469 1.399 . S
C470 C471 1.376 . S
C471 H458 0.930 . S
C471 C470 1.376 . S
C471 C472 1.388 . S
C472 H459 0.930 . S
C472 C471 1.388 . S
C472 C473 1.390 . S
C473 C472 1.390 . S
C473 C474 1.394 . S
C473 C479 1.465 . S
C474 C469 1.399 . S
C474 C473 1.394 . S
C474 C475 1.516 . S
C475 C474 1.516 . S
C475 C476 1.502 . S
C475 C477 1.561 . S
C475 C478 1.526 . S
C476 H460 0.959 . S
C476 H461 0.959 . S
C476 H462 0.961 . S
C476 C475 1.502 . S
C477 H463 0.960 . S
C477 H464 0.961 . S
C477 H465 0.959 . S
C477 C475 1.561 . S
C478 C475 1.526 . S
C478 C479 1.396 . S
C478 C483 1.390 . S
C479 C473 1.465 . S
C479 C478 1.396 . S
C479 C480 1.399 . S
C480 H466 0.929 . S
C480 C479 1.399 . S
C480 C481 1.385 . S
C481 H467 0.931 . S
C481 C480 1.385 . S
C481 C482 1.389 . S
C482 C481 1.389 . S
C482 C483 1.387 . S
C483 H468 0.930 . S
C483 C478 1.390 . S
C483 C482 1.387 . S
C173 C111 3.561 1_556 S
C185 C12 3.570 1_556 S
C200 C92 3.572 . S
C212 C31 3.564 . S
C227 C69 0.190 . S
C239 C128 0.298 . S
C254 C48 0.308 . S
C266 C149 0.148 . S
C281 C29 1.126 . S
C293 C8 1.026 . S
C308 C52 4.806 . S
C320 C71 4.806 1_565 S
C335 C109 1.118 . S
C347 C88 1.035 . S
C362 C151 4.803 . S
C374 C132 4.807 . S
C389 C57 1.470 1_545 S
C401 C2 1.473 1_655 S
C416 C17 1.452 1_545 S
C428 C42 1.430 . S
C443 C137 1.432 . S
C455 C82 1.460 . S
C470 C122 1.443 . S
C482 C97 1.489 . S
