# Generated by pormake.
# Topology uli, (4)-cn, num edge types: 1
# Building blocks:
#     Node 0, Type 0, BuildingBlock: GALJAG_clean_sbu_0, # of connection points: 4
#     Node 1, Type 0, BuildingBlock: GALJAG_clean_sbu_0, # of connection points: 4
#     Node 2, Type 0, BuildingBlock: GALJAG_clean_sbu_0, # of connection points: 4
#     Node 3, Type 0, BuildingBlock: GALJAG_clean_sbu_0, # of connection points: 4
#     Node 4, Type 0, BuildingBlock: GALJAG_clean_sbu_0, # of connection points: 4
#     Node 5, Type 0, BuildingBlock: GALJAG_clean_sbu_0, # of connection points: 4
#     Node 6, Type 0, BuildingBlock: GALJAG_clean_sbu_0, # of connection points: 4
#     Node 7, Type 0, BuildingBlock: GALJAG_clean_sbu_0, # of connection points: 4
#     Node 8, Type 0, BuildingBlock: GALJAG_clean_sbu_0, # of connection points: 4
#     Node 9, Type 0, BuildingBlock: GALJAG_clean_sbu_0, # of connection points: 4
#     Node 10, Type 0, BuildingBlock: GALJAG_clean_sbu_0, # of connection points: 4
#     Node 11, Type 0, BuildingBlock: GALJAG_clean_sbu_0, # of connection points: 4
#     Node 12, Type 0, BuildingBlock: GALJAG_clean_sbu_0, # of connection points: 4
#     Node 13, Type 0, BuildingBlock: GALJAG_clean_sbu_0, # of connection points: 4
#     Node 14, Type 0, BuildingBlock: GALJAG_clean_sbu_0, # of connection points: 4
#     Node 15, Type 0, BuildingBlock: GALJAG_clean_sbu_0, # of connection points: 4
#     Node 16, Type 0, BuildingBlock: GALJAG_clean_sbu_0, # of connection points: 4
#     Node 17, Type 0, BuildingBlock: GALJAG_clean_sbu_0, # of connection points: 4
#     Node 18, Type 0, BuildingBlock: GALJAG_clean_sbu_0, # of connection points: 4
#     Node 19, Type 0, BuildingBlock: GALJAG_clean_sbu_0, # of connection points: 4
#     Node 20, Type 0, BuildingBlock: GALJAG_clean_sbu_0, # of connection points: 4
#     Node 21, Type 0, BuildingBlock: GALJAG_clean_sbu_0, # of connection points: 4
#     Node 22, Type 0, BuildingBlock: GALJAG_clean_sbu_0, # of connection points: 4
#     Node 23, Type 0, BuildingBlock: GALJAG_clean_sbu_0, # of connection points: 4
#     Node 24, Type 0, BuildingBlock: GALJAG_clean_sbu_0, # of connection points: 4
#     Node 25, Type 0, BuildingBlock: GALJAG_clean_sbu_0, # of connection points: 4
#     Node 26, Type 0, BuildingBlock: GALJAG_clean_sbu_0, # of connection points: 4
#     Node 27, Type 0, BuildingBlock: GALJAG_clean_sbu_0, # of connection points: 4
#     Node 28, Type 0, BuildingBlock: GALJAG_clean_sbu_0, # of connection points: 4
#     Node 29, Type 0, BuildingBlock: GALJAG_clean_sbu_0, # of connection points: 4
#     Node 30, Type 0, BuildingBlock: GALJAG_clean_sbu_0, # of connection points: 4
#     Node 31, Type 0, BuildingBlock: GALJAG_clean_sbu_0, # of connection points: 4
#     Node 32, Type 0, BuildingBlock: GALJAG_clean_sbu_0, # of connection points: 4
#     Node 33, Type 0, BuildingBlock: GALJAG_clean_sbu_0, # of connection points: 4
#     Node 34, Type 0, BuildingBlock: GALJAG_clean_sbu_0, # of connection points: 4
#     Node 35, Type 0, BuildingBlock: GALJAG_clean_sbu_0, # of connection points: 4
#     Node 36, Type 0, BuildingBlock: GALJAG_clean_sbu_0, # of connection points: 4
#     Node 37, Type 0, BuildingBlock: GALJAG_clean_sbu_0, # of connection points: 4
#     Node 38, Type 0, BuildingBlock: GALJAG_clean_sbu_0, # of connection points: 4
#     Node 39, Type 0, BuildingBlock: GALJAG_clean_sbu_0, # of connection points: 4
#     Node 40, Type 0, BuildingBlock: GALJAG_clean_sbu_0, # of connection points: 4
#     Node 41, Type 0, BuildingBlock: GALJAG_clean_sbu_0, # of connection points: 4
#     Node 42, Type 0, BuildingBlock: GALJAG_clean_sbu_0, # of connection points: 4
#     Node 43, Type 0, BuildingBlock: GALJAG_clean_sbu_0, # of connection points: 4
#     Node 44, Type 0, BuildingBlock: GALJAG_clean_sbu_0, # of connection points: 4
#     Node 45, Type 0, BuildingBlock: GALJAG_clean_sbu_0, # of connection points: 4
#     Node 46, Type 0, BuildingBlock: GALJAG_clean_sbu_0, # of connection points: 4
#     Node 47, Type 0, BuildingBlock: GALJAG_clean_sbu_0, # of connection points: 4
#     Edge 48, Type (0, 0), BuildingBlock: CIFDUS_clean_linker_0, # of connection points: 2
#     Edge 49, Type (0, 0), BuildingBlock: CIFDUS_clean_linker_0, # of connection points: 2
#     Edge 50, Type (0, 0), BuildingBlock: CIFDUS_clean_linker_0, # of connection points: 2
#     Edge 51, Type (0, 0), BuildingBlock: CIFDUS_clean_linker_0, # of connection points: 2
#     Edge 52, Type (0, 0), BuildingBlock: CIFDUS_clean_linker_0, # of connection points: 2
#     Edge 53, Type (0, 0), BuildingBlock: CIFDUS_clean_linker_0, # of connection points: 2
#     Edge 54, Type (0, 0), BuildingBlock: CIFDUS_clean_linker_0, # of connection points: 2
#     Edge 55, Type (0, 0), BuildingBlock: CIFDUS_clean_linker_0, # of connection points: 2
#     Edge 56, Type (0, 0), BuildingBlock: CIFDUS_clean_linker_0, # of connection points: 2
#     Edge 57, Type (0, 0), BuildingBlock: CIFDUS_clean_linker_0, # of connection points: 2
#     Edge 58, Type (0, 0), BuildingBlock: CIFDUS_clean_linker_0, # of connection points: 2
#     Edge 59, Type (0, 0), BuildingBlock: CIFDUS_clean_linker_0, # of connection points: 2
#     Edge 60, Type (0, 0), BuildingBlock: CIFDUS_clean_linker_0, # of connection points: 2
#     Edge 61, Type (0, 0), BuildingBlock: CIFDUS_clean_linker_0, # of connection points: 2
#     Edge 62, Type (0, 0), BuildingBlock: CIFDUS_clean_linker_0, # of connection points: 2
#     Edge 63, Type (0, 0), BuildingBlock: CIFDUS_clean_linker_0, # of connection points: 2
#     Edge 64, Type (0, 0), BuildingBlock: CIFDUS_clean_linker_0, # of connection points: 2
#     Edge 65, Type (0, 0), BuildingBlock: CIFDUS_clean_linker_0, # of connection points: 2
#     Edge 66, Type (0, 0), BuildingBlock: CIFDUS_clean_linker_0, # of connection points: 2
#     Edge 67, Type (0, 0), BuildingBlock: CIFDUS_clean_linker_0, # of connection points: 2
#     Edge 68, Type (0, 0), BuildingBlock: CIFDUS_clean_linker_0, # of connection points: 2
#     Edge 69, Type (0, 0), BuildingBlock: CIFDUS_clean_linker_0, # of connection points: 2
#     Edge 70, Type (0, 0), BuildingBlock: CIFDUS_clean_linker_0, # of connection points: 2
#     Edge 71, Type (0, 0), BuildingBlock: CIFDUS_clean_linker_0, # of connection points: 2
#     Edge 72, Type (0, 0), BuildingBlock: CIFDUS_clean_linker_0, # of connection points: 2
#     Edge 73, Type (0, 0), BuildingBlock: CIFDUS_clean_linker_0, # of connection points: 2
#     Edge 74, Type (0, 0), BuildingBlock: CIFDUS_clean_linker_0, # of connection points: 2
#     Edge 75, Type (0, 0), BuildingBlock: CIFDUS_clean_linker_0, # of connection points: 2
#     Edge 76, Type (0, 0), BuildingBlock: CIFDUS_clean_linker_0, # of connection points: 2
#     Edge 77, Type (0, 0), BuildingBlock: CIFDUS_clean_linker_0, # of connection points: 2
#     Edge 78, Type (0, 0), BuildingBlock: CIFDUS_clean_linker_0, # of connection points: 2
#     Edge 79, Type (0, 0), BuildingBlock: CIFDUS_clean_linker_0, # of connection points: 2
#     Edge 80, Type (0, 0), BuildingBlock: CIFDUS_clean_linker_0, # of connection points: 2
#     Edge 81, Type (0, 0), BuildingBlock: CIFDUS_clean_linker_0, # of connection points: 2
#     Edge 82, Type (0, 0), BuildingBlock: CIFDUS_clean_linker_0, # of connection points: 2
#     Edge 83, Type (0, 0), BuildingBlock: CIFDUS_clean_linker_0, # of connection points: 2
#     Edge 84, Type (0, 0), BuildingBlock: CIFDUS_clean_linker_0, # of connection points: 2
#     Edge 85, Type (0, 0), BuildingBlock: CIFDUS_clean_linker_0, # of connection points: 2
#     Edge 86, Type (0, 0), BuildingBlock: CIFDUS_clean_linker_0, # of connection points: 2
#     Edge 87, Type (0, 0), BuildingBlock: CIFDUS_clean_linker_0, # of connection points: 2
#     Edge 88, Type (0, 0), BuildingBlock: CIFDUS_clean_linker_0, # of connection points: 2
#     Edge 89, Type (0, 0), BuildingBlock: CIFDUS_clean_linker_0, # of connection points: 2
#     Edge 90, Type (0, 0), BuildingBlock: CIFDUS_clean_linker_0, # of connection points: 2
#     Edge 91, Type (0, 0), BuildingBlock: CIFDUS_clean_linker_0, # of connection points: 2
#     Edge 92, Type (0, 0), BuildingBlock: CIFDUS_clean_linker_0, # of connection points: 2
#     Edge 93, Type (0, 0), BuildingBlock: CIFDUS_clean_linker_0, # of connection points: 2
#     Edge 94, Type (0, 0), BuildingBlock: CIFDUS_clean_linker_0, # of connection points: 2
#     Edge 95, Type (0, 0), BuildingBlock: CIFDUS_clean_linker_0, # of connection points: 2
#     Edge 96, Type (0, 0), BuildingBlock: CIFDUS_clean_linker_0, # of connection points: 2
#     Edge 97, Type (0, 0), BuildingBlock: CIFDUS_clean_linker_0, # of connection points: 2
#     Edge 98, Type (0, 0), BuildingBlock: CIFDUS_clean_linker_0, # of connection points: 2
#     Edge 99, Type (0, 0), BuildingBlock: CIFDUS_clean_linker_0, # of connection points: 2
#     Edge 100, Type (0, 0), BuildingBlock: CIFDUS_clean_linker_0, # of connection points: 2
#     Edge 101, Type (0, 0), BuildingBlock: CIFDUS_clean_linker_0, # of connection points: 2
#     Edge 102, Type (0, 0), BuildingBlock: CIFDUS_clean_linker_0, # of connection points: 2
#     Edge 103, Type (0, 0), BuildingBlock: CIFDUS_clean_linker_0, # of connection points: 2
#     Edge 104, Type (0, 0), BuildingBlock: CIFDUS_clean_linker_0, # of connection points: 2
#     Edge 105, Type (0, 0), BuildingBlock: CIFDUS_clean_linker_0, # of connection points: 2
#     Edge 106, Type (0, 0), BuildingBlock: CIFDUS_clean_linker_0, # of connection points: 2
#     Edge 107, Type (0, 0), BuildingBlock: CIFDUS_clean_linker_0, # of connection points: 2
#     Edge 108, Type (0, 0), BuildingBlock: CIFDUS_clean_linker_0, # of connection points: 2
#     Edge 109, Type (0, 0), BuildingBlock: CIFDUS_clean_linker_0, # of connection points: 2
#     Edge 110, Type (0, 0), BuildingBlock: CIFDUS_clean_linker_0, # of connection points: 2
#     Edge 111, Type (0, 0), BuildingBlock: CIFDUS_clean_linker_0, # of connection points: 2
#     Edge 112, Type (0, 0), BuildingBlock: CIFDUS_clean_linker_0, # of connection points: 2
#     Edge 113, Type (0, 0), BuildingBlock: CIFDUS_clean_linker_0, # of connection points: 2
#     Edge 114, Type (0, 0), BuildingBlock: CIFDUS_clean_linker_0, # of connection points: 2
#     Edge 115, Type (0, 0), BuildingBlock: CIFDUS_clean_linker_0, # of connection points: 2
#     Edge 116, Type (0, 0), BuildingBlock: CIFDUS_clean_linker_0, # of connection points: 2
#     Edge 117, Type (0, 0), BuildingBlock: CIFDUS_clean_linker_0, # of connection points: 2
#     Edge 118, Type (0, 0), BuildingBlock: CIFDUS_clean_linker_0, # of connection points: 2
#     Edge 119, Type (0, 0), BuildingBlock: CIFDUS_clean_linker_0, # of connection points: 2
#     Edge 120, Type (0, 0), BuildingBlock: CIFDUS_clean_linker_0, # of connection points: 2
#     Edge 121, Type (0, 0), BuildingBlock: CIFDUS_clean_linker_0, # of connection points: 2
#     Edge 122, Type (0, 0), BuildingBlock: CIFDUS_clean_linker_0, # of connection points: 2
#     Edge 123, Type (0, 0), BuildingBlock: CIFDUS_clean_linker_0, # of connection points: 2
#     Edge 124, Type (0, 0), BuildingBlock: CIFDUS_clean_linker_0, # of connection points: 2
#     Edge 125, Type (0, 0), BuildingBlock: CIFDUS_clean_linker_0, # of connection points: 2
#     Edge 126, Type (0, 0), BuildingBlock: CIFDUS_clean_linker_0, # of connection points: 2
#     Edge 127, Type (0, 0), BuildingBlock: CIFDUS_clean_linker_0, # of connection points: 2
#     Edge 128, Type (0, 0), BuildingBlock: CIFDUS_clean_linker_0, # of connection points: 2
#     Edge 129, Type (0, 0), BuildingBlock: CIFDUS_clean_linker_0, # of connection points: 2
#     Edge 130, Type (0, 0), BuildingBlock: CIFDUS_clean_linker_0, # of connection points: 2
#     Edge 131, Type (0, 0), BuildingBlock: CIFDUS_clean_linker_0, # of connection points: 2
#     Edge 132, Type (0, 0), BuildingBlock: CIFDUS_clean_linker_0, # of connection points: 2
#     Edge 133, Type (0, 0), BuildingBlock: CIFDUS_clean_linker_0, # of connection points: 2
#     Edge 134, Type (0, 0), BuildingBlock: CIFDUS_clean_linker_0, # of connection points: 2
#     Edge 135, Type (0, 0), BuildingBlock: CIFDUS_clean_linker_0, # of connection points: 2
#     Edge 136, Type (0, 0), BuildingBlock: CIFDUS_clean_linker_0, # of connection points: 2
#     Edge 137, Type (0, 0), BuildingBlock: CIFDUS_clean_linker_0, # of connection points: 2
#     Edge 138, Type (0, 0), BuildingBlock: CIFDUS_clean_linker_0, # of connection points: 2
#     Edge 139, Type (0, 0), BuildingBlock: CIFDUS_clean_linker_0, # of connection points: 2
#     Edge 140, Type (0, 0), BuildingBlock: CIFDUS_clean_linker_0, # of connection points: 2
#     Edge 141, Type (0, 0), BuildingBlock: CIFDUS_clean_linker_0, # of connection points: 2
#     Edge 142, Type (0, 0), BuildingBlock: CIFDUS_clean_linker_0, # of connection points: 2
#     Edge 143, Type (0, 0), BuildingBlock: CIFDUS_clean_linker_0, # of connection points: 2
# Relax obj value: 0.561
# Max RMSD: 0.175
# Mean RMSD: 0.175
data_MOF--net-uli--node1-GALJAG_clean_sbu_0--edge1-CIFDUS_clean_linker_0
_symmetry_space_group_name_H-M    P1
_symmetry_Int_Tables_number       1
_symmetry_cell_setting            triclinic
loop_
_symmetry_equiv_pos_as_xyz
'x, y, z'
_cell_length_a     58.284088
_cell_length_b     58.302468
_cell_length_c     58.377099
_cell_angle_alpha  90.020237
_cell_angle_beta   89.987335
_cell_angle_gamma 90.029902
loop_
_atom_site_label
_atom_site_type_symbol
_atom_site_fract_x
_atom_site_fract_y
_atom_site_fract_z
_atom_type_partial_charge
In0 In 0.07609 0.21055 0.25663 0.0
O1 O 0.08837 0.23521 0.28444 0.0
O2 O 0.06767 0.24861 0.25752 0.0
C3 C 0.10593 0.17519 0.26061 0.0
C4 C 0.03529 0.19521 0.2723 0.0
C5 C 0.08822 0.22333 0.21397 0.0
O6 O 0.10822 0.19364 0.2717 0.0
O7 O 0.08813 0.17426 0.24843 0.0
O8 O 0.06913 0.21379 0.218 0.0
O9 O 0.1008 0.22623 0.23129 0.0
C10 C 0.07926 0.25267 0.27534 0.0
O11 O 0.03963 0.19735 0.25122 0.0
O12 O 0.05144 0.20098 0.28548 0.0
In13 In 0.70517 0.09841 0.20047 0.0
O14 O 0.67508 0.10913 0.2226 0.0
O15 O 0.67109 0.11055 0.18627 0.0
C16 C 0.73133 0.10995 0.23692 0.0
C17 C 0.70258 0.05285 0.19379 0.0
C18 C 0.72629 0.1232 0.16764 0.0
O19 O 0.71839 0.12398 0.22678 0.0
O20 O 0.73017 0.08971 0.22946 0.0
O21 O 0.73693 0.11031 0.1813 0.0
O22 O 0.70477 0.12245 0.16951 0.0
C23 C 0.66237 0.11413 0.20578 0.0
O24 O 0.71686 0.06526 0.18336 0.0
O25 O 0.68894 0.06356 0.20659 0.0
In26 In 0.92976 0.76107 0.20035 0.0
O27 O 0.96562 0.7731 0.1892 0.0
O28 O 0.9554 0.77722 0.224 0.0
C29 C 0.90564 0.75106 0.16248 0.0
C30 C 0.93475 0.71811 0.21599 0.0
C31 C 0.90018 0.79317 0.21505 0.0
O32 O 0.92298 0.76417 0.16159 0.0
O33 O 0.90106 0.74323 0.18205 0.0
O34 O 0.90196 0.77382 0.22463 0.0
O35 O 0.91351 0.79632 0.19831 0.0
C36 C 0.97064 0.78035 0.20903 0.0
O37 O 0.92625 0.73403 0.22801 0.0
O38 O 0.94213 0.72427 0.19659 0.0
In39 In 0.29242 0.86373 0.15504 0.0
O40 O 0.2801 0.89271 0.13165 0.0
O41 O 0.30708 0.89977 0.15506 0.0
C42 C 0.28345 0.82297 0.1356 0.0
C43 C 0.33542 0.85188 0.16542 0.0
C44 C 0.25702 0.86727 0.18457 0.0
O45 O 0.28418 0.84109 0.12359 0.0
O46 O 0.28652 0.82583 0.15676 0.0
O47 O 0.27739 0.86434 0.19137 0.0
O48 O 0.25473 0.86832 0.16315 0.0
C49 C 0.29312 0.90757 0.14056 0.0
O50 O 0.3215 0.8595 0.18025 0.0
O51 O 0.32812 0.85192 0.14498 0.0
In52 In 0.08888 0.79029 0.74913 0.0
O53 O 0.05369 0.80554 0.75638 0.0
O54 O 0.06664 0.8075 0.72228 0.0
C55 C 0.10275 0.77285 0.78936 0.0
C56 C 0.08559 0.75002 0.72693 0.0
C57 C 0.12068 0.82382 0.74832 0.0
O58 O 0.08419 0.78403 0.78769 0.0
O59 O 0.11381 0.77059 0.77094 0.0
O60 O 0.12211 0.80636 0.73552 0.0
O61 O 0.10296 0.82455 0.76065 0.0
C62 C 0.05067 0.81238 0.73605 0.0
O63 O 0.09729 0.76659 0.71915 0.0
O64 O 0.07477 0.75426 0.74519 0.0
In65 In 0.30646 0.13875 0.82664 0.0
O66 O 0.34152 0.1457 0.81129 0.0
O67 O 0.33652 0.15338 0.84665 0.0
C68 C 0.28091 0.13386 0.78839 0.0
C69 C 0.30628 0.09544 0.84264 0.0
C70 C 0.28717 0.17771 0.84217 0.0
O71 O 0.30166 0.14005 0.78772 0.0
O72 O 0.27342 0.12957 0.80817 0.0
O73 O 0.28679 0.15946 0.85395 0.0
O74 O 0.29689 0.17596 0.82299 0.0
C75 C 0.34964 0.15439 0.82942 0.0
O76 O 0.29236 0.11045 0.84974 0.0
O77 O 0.32105 0.10268 0.8286 0.0
In78 In 0.9319 0.22331 0.73658 0.0
O79 O 0.92655 0.25462 0.71393 0.0
O80 O 0.94443 0.25905 0.74541 0.0
C81 C 0.90442 0.19125 0.71802 0.0
C82 C 0.97379 0.20622 0.72795 0.0
C83 C 0.90703 0.22892 0.77502 0.0
O84 O 0.9053 0.21152 0.7104 0.0
O85 O 0.91791 0.1871 0.73437 0.0
O86 O 0.92647 0.21921 0.77542 0.0
O87 O 0.90047 0.23533 0.7555 0.0
C88 C 0.93555 0.26843 0.72804 0.0
O89 O 0.96575 0.2075 0.74804 0.0
O90 O 0.96097 0.21421 0.71246 0.0
In91 In 0.69099 0.88879 0.72599 0.0
O92 O 0.69857 0.92187 0.74438 0.0
O93 O 0.67853 0.92358 0.71372 0.0
C94 C 0.70921 0.85733 0.75428 0.0
C95 C 0.6473 0.87434 0.72811 0.0
C96 C 0.72485 0.88827 0.69461 0.0
O97 O 0.70593 0.87785 0.76049 0.0
O98 O 0.70322 0.85288 0.73401 0.0
O99 O 0.70617 0.87764 0.69124 0.0
O100 O 0.7258 0.89923 0.71315 0.0
C101 C 0.68863 0.93428 0.72966 0.0
O102 O 0.65856 0.87399 0.70953 0.0
O103 O 0.65774 0.88317 0.74488 0.0
In104 In 0.23721 0.06868 0.1989 0.0
O105 O 0.27001 0.07675 0.21852 0.0
O106 O 0.24393 0.05805 0.23592 0.0
C107 C 0.2396 0.09956 0.16451 0.0
C108 C 0.24536 0.02765 0.17894 0.0
C109 C 0.19891 0.08611 0.21809 0.0
O110 O 0.25396 0.09901 0.18067 0.0
O111 O 0.22452 0.08409 0.16532 0.0
O112 O 0.19856 0.06749 0.20692 0.0
O113 O 0.21835 0.09547 0.21954 0.0
C114 C 0.26332 0.06768 0.23702 0.0
O115 O 0.22619 0.0326 0.18776 0.0
O116 O 0.26033 0.04316 0.1806 0.0
In117 In 0.86923 0.19603 0.31778 0.0
O118 O 0.89815 0.1699 0.31696 0.0
O119 O 0.9043 0.20201 0.3334 0.0
C120 C 0.83136 0.17597 0.30108 0.0
C121 C 0.84933 0.2071 0.3577 0.0
C122 C 0.87987 0.21888 0.27918 0.0
O123 O 0.84797 0.16409 0.3086 0.0
O124 O 0.83434 0.19738 0.30182 0.0
O125 O 0.87142 0.22911 0.29639 0.0
O126 O 0.88299 0.19766 0.28181 0.0
C127 C 0.91248 0.18318 0.32644 0.0
O128 O 0.85732 0.22221 0.34425 0.0
O129 O 0.85309 0.1866 0.35174 0.0
In130 In 0.74744 0.88497 0.24218 0.0
O131 O 0.71961 0.87929 0.26894 0.0
O132 O 0.75183 0.89241 0.28007 0.0
C133 C 0.73129 0.86187 0.20566 0.0
C134 C 0.74132 0.92835 0.229 0.0
C135 C 0.7873 0.86207 0.24565 0.0
O136 O 0.72644 0.85596 0.2259 0.0
O137 O 0.74362 0.87951 0.20406 0.0
O138 O 0.78644 0.88263 0.23884 0.0
O139 O 0.76822 0.85341 0.25097 0.0
C140 C 0.73201 0.88562 0.28555 0.0
O141 O 0.76109 0.9199 0.23184 0.0
O142 O 0.72481 0.91515 0.23377 0.0
In143 In 0.12502 0.80813 0.28596 0.0
O144 O 0.10158 0.81818 0.2568 0.0
O145 O 0.08775 0.81923 0.29051 0.0
C146 C 0.16002 0.83522 0.27242 0.0
C147 C 0.12694 0.80607 0.33195 0.0
C148 C 0.13243 0.76752 0.26479 0.0
O149 O 0.13964 0.83864 0.26589 0.0
O150 O 0.16237 0.8189 0.28631 0.0
O151 O 0.14831 0.78082 0.27083 0.0
O152 O 0.11267 0.77396 0.27064 0.0
C153 C 0.08414 0.82113 0.26924 0.0
O154 O 0.12331 0.78863 0.31963 0.0
O155 O 0.128 0.82478 0.32109 0.0
In156 In 0.25267 0.92568 0.81716 0.0
O157 O 0.27705 0.95317 0.8305 0.0
O158 O 0.24166 0.96164 0.82799 0.0
C159 C 0.21423 0.9081 0.79855 0.0
C160 C 0.27582 0.9249 0.77732 0.0
C161 C 0.25557 0.89619 0.85278 0.0
O162 O 0.21401 0.92699 0.80926 0.0
O163 O 0.23349 0.89836 0.79768 0.0
O164 O 0.26968 0.89604 0.83636 0.0
O165 O 0.24085 0.91198 0.8518 0.0
C166 C 0.26166 0.96814 0.83321 0.0
O167 O 0.28352 0.91552 0.79529 0.0
O168 O 0.25734 0.93588 0.78 0.0
In169 In 0.14196 0.18203 0.68784 0.0
O170 O 0.10991 0.16226 0.69833 0.0
O171 O 0.10733 0.18524 0.67024 0.0
C172 C 0.17493 0.15779 0.70902 0.0
C173 C 0.16 0.18393 0.64563 0.0
C174 C 0.13978 0.21855 0.71627 0.0
O175 O 0.15532 0.14927 0.70519 0.0
O176 O 0.17762 0.17809 0.70215 0.0
O177 O 0.1501 0.21931 0.6973 0.0
O178 O 0.13045 0.1996 0.72066 0.0
C179 C 0.09707 0.17202 0.68392 0.0
O180 O 0.15035 0.2009 0.65503 0.0
O181 O 0.15919 0.16546 0.65695 0.0
In182 In 0.74714 0.10553 0.71589 0.0
O183 O 0.75787 0.06795 0.71687 0.0
O184 O 0.72221 0.07583 0.7173 0.0
C185 C 0.78635 0.12746 0.70562 0.0
C186 C 0.72303 0.11895 0.67921 0.0
C187 C 0.74221 0.11979 0.75965 0.0
O188 O 0.78556 0.10584 0.70745 0.0
O189 O 0.76758 0.13764 0.70904 0.0
O190 O 0.73014 0.12756 0.74348 0.0
O191 O 0.75638 0.10459 0.75379 0.0
C192 C 0.7375 0.0606 0.71793 0.0
O193 O 0.71517 0.12009 0.69936 0.0
O194 O 0.74277 0.11018 0.67747 0.0
In195 In 0.8918 0.8404 0.6828 0.0
O196 O 0.88954 0.80291 0.67297 0.0
O197 O 0.88321 0.828 0.64705 0.0
C198 C 0.88855 0.82683 0.72683 0.0
C199 C 0.93585 0.85456 0.68056 0.0
C200 C 0.85324 0.86437 0.67439 0.0
O201 O 0.89487 0.81352 0.711 0.0
O202 O 0.88371 0.84689 0.7204 0.0
O203 O 0.87274 0.87388 0.67307 0.0
O204 O 0.85358 0.84364 0.68026 0.0
C205 C 0.88339 0.80702 0.6526 0.0
O206 O 0.92165 0.86255 0.6947 0.0
O207 O 0.92717 0.84137 0.66584 0.0
In208 In 0.19156 0.24478 0.06989 0.0
O209 O 0.17553 0.23849 0.0347 0.0
O210 O 0.17932 0.27296 0.04596 0.0
C211 C 0.20332 0.20253 0.08426 0.0
C212 C 0.23487 0.26042 0.06681 0.0
C213 C 0.16111 0.25312 0.10377 0.0
O214 O 0.19028 0.20537 0.06714 0.0
O215 O 0.21007 0.22075 0.0937 0.0
O216 O 0.1799 0.26375 0.10207 0.0
O217 O 0.15723 0.23913 0.08777 0.0
C218 C 0.17268 0.25953 0.03039 0.0
O219 O 0.21939 0.27105 0.07768 0.0
O220 O 0.2281 0.24266 0.05641 0.0
In221 In 0.217 0.73436 0.92194 0.0
O222 O 0.20285 0.74228 0.95758 0.0
O223 O 0.20052 0.708 0.94532 0.0
C224 C 0.23573 0.77458 0.90873 0.0
C225 C 0.25607 0.70988 0.92344 0.0
C226 C 0.18396 0.73221 0.88961 0.0
O227 O 0.22347 0.77308 0.92657 0.0
O228 O 0.23834 0.75603 0.89796 0.0
O229 O 0.20147 0.71949 0.88927 0.0
O230 O 0.18282 0.74549 0.90661 0.0
C231 C 0.19638 0.72193 0.9613 0.0
O232 O 0.23852 0.70325 0.91257 0.0
O233 O 0.25348 0.72834 0.93449 0.0
In234 In 0.17033 0.31147 0.86586 0.0
O235 O 0.19087 0.34298 0.85546 0.0
O236 O 0.15471 0.34344 0.85005 0.0
C237 C 0.20269 0.27911 0.87268 0.0
C238 C 0.15614 0.31572 0.90939 0.0
C239 C 0.15118 0.29175 0.82901 0.0
O240 O 0.20758 0.29869 0.86474 0.0
O241 O 0.18183 0.27625 0.87746 0.0
O242 O 0.13987 0.29467 0.84731 0.0
O243 O 0.17166 0.29867 0.82963 0.0
C244 C 0.17376 0.35338 0.84709 0.0
O245 O 0.14502 0.30441 0.89464 0.0
O246 O 0.17327 0.32649 0.90164 0.0
In247 In 0.78901 0.20614 0.90844 0.0
O248 O 0.76456 0.2368 0.90715 0.0
O249 O 0.75228 0.20514 0.92086 0.0
C250 C 0.82629 0.21599 0.88335 0.0
C251 C 0.80643 0.20752 0.95083 0.0
C252 C 0.77406 0.17443 0.87881 0.0
O253 O 0.80926 0.22949 0.88434 0.0
O254 O 0.82453 0.1981 0.89539 0.0
O255 O 0.78443 0.16863 0.89703 0.0
O256 O 0.77151 0.19572 0.87601 0.0
C257 C 0.74777 0.22555 0.91521 0.0
O258 O 0.80657 0.22455 0.93749 0.0
O259 O 0.79712 0.18955 0.94289 0.0
In260 In 0.81028 0.75191 0.86234 0.0
O261 O 0.78438 0.72273 0.86032 0.0
O262 O 0.81994 0.71428 0.86027 0.0
C263 C 0.78141 0.78086 0.84098 0.0
C264 C 0.80911 0.75611 0.90805 0.0
C265 C 0.84725 0.76308 0.83704 0.0
O266 O 0.78287 0.75992 0.83556 0.0
O267 O 0.79427 0.78697 0.85723 0.0
O268 O 0.84114 0.77483 0.85416 0.0
O269 O 0.83547 0.74531 0.83361 0.0
C270 C 0.79948 0.70721 0.85957 0.0
O271 O 0.82671 0.74865 0.89787 0.0
O272 O 0.79284 0.76189 0.89515 0.0
In273 In 0.74979 0.73805 0.07726 0.0
O274 O 0.73104 0.70381 0.08091 0.0
O275 O 0.7125 0.73258 0.06842 0.0
C276 C 0.7924 0.73056 0.09301 0.0
C277 C 0.76003 0.74736 0.03374 0.0
C278 C 0.73587 0.7658 0.11127 0.0
O279 O 0.77737 0.71487 0.09276 0.0
O280 O 0.78583 0.74966 0.08529 0.0
O281 O 0.73994 0.77319 0.09132 0.0
O282 O 0.739 0.74458 0.11395 0.0
C283 C 0.71186 0.71196 0.07485 0.0
O284 O 0.74927 0.7614 0.04624 0.0
O285 O 0.76477 0.72836 0.04295 0.0
In286 In 0.19241 0.67427 0.12202 0.0
O287 O 0.21596 0.64466 0.13147 0.0
O288 O 0.18035 0.64206 0.13977 0.0
C289 C 0.21975 0.70882 0.10828 0.0
C290 C 0.17358 0.66745 0.08085 0.0
C291 C 0.17931 0.69389 0.1614 0.0
O292 O 0.22793 0.69031 0.1162 0.0
O293 O 0.19817 0.70944 0.10703 0.0
O294 O 0.16463 0.68735 0.14674 0.0
O295 O 0.19995 0.69077 0.15576 0.0
C296 C 0.2002 0.63349 0.14147 0.0
O297 O 0.16376 0.67925 0.09619 0.0
O298 O 0.19167 0.65735 0.08721 0.0
In299 In 0.83018 0.26258 0.11686 0.0
O300 O 0.85488 0.25712 0.08641 0.0
O301 O 0.81883 0.25155 0.0822 0.0
C302 C 0.85148 0.26588 0.15743 0.0
C303 C 0.8175 0.3066 0.11421 0.0
C304 C 0.8078 0.22407 0.12792 0.0
O305 O 0.86184 0.25808 0.13993 0.0
O306 O 0.83102 0.27203 0.15406 0.0
O307 O 0.79729 0.24267 0.12393 0.0
O308 O 0.82941 0.22519 0.12668 0.0
C309 C 0.83855 0.25086 0.07345 0.0
O310 O 0.80314 0.29047 0.1165 0.0
O311 O 0.83812 0.30029 0.1118 0.0
In312 In 0.56676 0.72253 0.74045 0.0
O313 O 0.57351 0.75875 0.75292 0.0
O314 O 0.5599 0.75434 0.7192 0.0
C315 C 0.58793 0.69351 0.76909 0.0
C316 C 0.52315 0.71434 0.75201 0.0
C317 C 0.59713 0.71565 0.70687 0.0
O318 O 0.58904 0.71506 0.77165 0.0
O319 O 0.57535 0.68686 0.75278 0.0
O320 O 0.57636 0.7094 0.70443 0.0
O321 O 0.6019 0.72467 0.72591 0.0
C322 C 0.56767 0.768 0.73416 0.0
O323 O 0.53167 0.70601 0.73382 0.0
O324 O 0.53639 0.72714 0.76339 0.0
In325 In 0.18312 0.62314 0.66855 0.0
O326 O 0.19086 0.59367 0.64409 0.0
O327 O 0.16808 0.58746 0.67196 0.0
C328 C 0.19859 0.66232 0.65019 0.0
C329 C 0.14126 0.64114 0.67385 0.0
C330 C 0.21769 0.61683 0.6984 0.0
O331 O 0.19627 0.64443 0.63801 0.0
O332 O 0.19373 0.65993 0.67109 0.0
O333 O 0.19762 0.62182 0.70502 0.0
O334 O 0.21998 0.61489 0.67703 0.0
C335 C 0.1793 0.57921 0.6554 0.0
O336 O 0.15287 0.63365 0.69061 0.0
O337 O 0.14986 0.63725 0.65432 0.0
In338 In 0.42226 0.29342 0.75735 0.0
O339 O 0.41095 0.27163 0.78762 0.0
O340 O 0.43409 0.25677 0.76354 0.0
C341 C 0.39028 0.32692 0.75883 0.0
C342 C 0.46226 0.31157 0.77209 0.0
C343 C 0.40902 0.27438 0.71729 0.0
O344 O 0.39006 0.3099 0.77216 0.0
O345 O 0.40713 0.3275 0.74529 0.0
O346 O 0.42597 0.28798 0.71822 0.0
O347 O 0.39925 0.27077 0.73619 0.0
C348 C 0.4221 0.25409 0.78139 0.0
O349 O 0.45935 0.30539 0.75152 0.0
O350 O 0.44502 0.30889 0.78482 0.0
In351 In 0.80397 0.3735 0.73572 0.0
O352 O 0.78128 0.40412 0.72878 0.0
O353 O 0.81328 0.41012 0.74547 0.0
C354 C 0.78048 0.35088 0.70308 0.0
C355 C 0.84867 0.36595 0.72667 0.0
C356 C 0.78243 0.35755 0.77369 0.0
O357 O 0.77898 0.37237 0.7055 0.0
O358 O 0.79435 0.34116 0.71649 0.0
O359 O 0.78938 0.3447 0.75784 0.0
O360 O 0.78843 0.37813 0.77153 0.0
C361 C 0.79437 0.41828 0.73864 0.0
O362 O 0.84031 0.36402 0.74654 0.0
O363 O 0.83475 0.37299 0.71171 0.0
In364 In 0.57434 0.2591 0.23591 0.0
O365 O 0.54536 0.27628 0.2161 0.0
O366 O 0.53627 0.25424 0.24354 0.0
C367 C 0.59341 0.25436 0.27781 0.0
C368 C 0.58027 0.21794 0.21605 0.0
C369 C 0.60168 0.29333 0.22139 0.0
O370 O 0.57636 0.26734 0.27447 0.0
O371 O 0.60039 0.24395 0.26026 0.0
O372 O 0.60175 0.27361 0.21247 0.0
O373 O 0.58734 0.29601 0.2374 0.0
C374 C 0.52954 0.26695 0.22743 0.0
O375 O 0.5845 0.23649 0.20569 0.0
O376 O 0.57214 0.22032 0.23593 0.0
In377 In 0.8185 0.60734 0.27348 0.0
O378 O 0.84542 0.61874 0.24785 0.0
O379 O 0.85584 0.61268 0.28247 0.0
C380 C 0.77726 0.61156 0.25306 0.0
C381 C 0.81953 0.56163 0.27432 0.0
C382 C 0.81272 0.64048 0.30461 0.0
O383 O 0.79546 0.61858 0.24349 0.0
O384 O 0.78015 0.60249 0.2724 0.0
O385 O 0.81373 0.61956 0.31043 0.0
O386 O 0.81465 0.64431 0.28343 0.0
C387 C 0.86136 0.61939 0.26261 0.0
O388 O 0.81324 0.57326 0.29149 0.0
O389 O 0.82672 0.57312 0.25747 0.0
In390 In 0.41228 0.7369 0.27205 0.0
O391 O 0.44988 0.73897 0.28263 0.0
O392 O 0.44087 0.71703 0.25487 0.0
C393 C 0.3895 0.75698 0.30671 0.0
C394 C 0.40919 0.77078 0.24098 0.0
C395 C 0.38879 0.69719 0.27383 0.0
O396 O 0.40832 0.74666 0.31 0.0
O397 O 0.38261 0.75711 0.28626 0.0
O398 O 0.38645 0.71129 0.25753 0.0
O399 O 0.40327 0.70297 0.28882 0.0
C400 C 0.45651 0.72495 0.2675 0.0
O401 O 0.40198 0.7507 0.23689 0.0
O402 O 0.41878 0.77328 0.2602 0.0
In403 In 0.19945 0.36605 0.31663 0.0
O404 O 0.20171 0.39721 0.34092 0.0
O405 O 0.20193 0.40279 0.30491 0.0
C406 C 0.21719 0.33055 0.34019 0.0
C407 C 0.15472 0.35437 0.31633 0.0
C408 C 0.22747 0.35963 0.28063 0.0
O409 O 0.22217 0.35108 0.34522 0.0
O410 O 0.20327 0.32833 0.32386 0.0
O411 O 0.20594 0.35751 0.27905 0.0
O412 O 0.23469 0.36519 0.30024 0.0
C413 C 0.20342 0.41136 0.32462 0.0
O414 O 0.16558 0.35948 0.29831 0.0
O415 O 0.16589 0.35733 0.33463 0.0
In416 In 0.71948 0.57581 0.77983 0.0
O417 O 0.71013 0.53766 0.77766 0.0
O418 O 0.74468 0.54684 0.78443 0.0
C419 C 0.67947 0.59766 0.78611 0.0
C420 C 0.74112 0.59573 0.81508 0.0
C421 C 0.72912 0.58628 0.73583 0.0
O422 O 0.68083 0.57604 0.7877 0.0
O423 O 0.69797 0.60775 0.78122 0.0
O424 O 0.74193 0.59182 0.75229 0.0
O425 O 0.71122 0.57558 0.74152 0.0
C426 C 0.73058 0.53105 0.78026 0.0
O427 O 0.74932 0.59495 0.79508 0.0
O428 O 0.72229 0.58526 0.81775 0.0
In429 In 0.35452 0.67396 0.79716 0.0
O430 O 0.35154 0.68743 0.83334 0.0
O431 O 0.34943 0.65127 0.82858 0.0
C432 C 0.34687 0.71231 0.7726 0.0
C433 C 0.3998 0.67003 0.78993 0.0
C434 C 0.31778 0.65077 0.78187 0.0
O435 O 0.3421 0.71102 0.79365 0.0
O436 O 0.35555 0.69442 0.76415 0.0
O437 O 0.33799 0.64404 0.77753 0.0
O438 O 0.31648 0.66874 0.7938 0.0
C439 C 0.34799 0.66802 0.84228 0.0
O440 O 0.3857 0.65623 0.78088 0.0
O441 O 0.39105 0.68417 0.80373 0.0
In442 In 0.2464 0.41876 0.70183 0.0
O443 O 0.21644 0.40909 0.72508 0.0
O444 O 0.24297 0.43001 0.73899 0.0
C445 C 0.2439 0.38652 0.66862 0.0
C446 C 0.23337 0.45882 0.68263 0.0
C447 C 0.28769 0.40553 0.71781 0.0
O448 O 0.23138 0.38595 0.68626 0.0
O449 O 0.25676 0.40383 0.66732 0.0
O450 O 0.28544 0.42342 0.70573 0.0
O451 O 0.26933 0.39482 0.72173 0.0
C452 C 0.22452 0.41918 0.74249 0.0
O453 O 0.25385 0.45483 0.68847 0.0
O454 O 0.21948 0.44274 0.68672 0.0
In455 In 0.62035 0.30044 0.8306 0.0
O456 O 0.62872 0.27276 0.85678 0.0
O457 O 0.63516 0.30778 0.86549 0.0
C458 C 0.60645 0.2802 0.7918 0.0
C459 C 0.57973 0.32089 0.83617 0.0
C460 C 0.66241 0.3118 0.81615 0.0
O461 O 0.6107 0.26848 0.80965 0.0
O462 O 0.60938 0.30153 0.79386 0.0
O463 O 0.64893 0.32682 0.82432 0.0
O464 O 0.65417 0.29186 0.81466 0.0
C465 C 0.63759 0.28688 0.87078 0.0
O466 O 0.59663 0.33108 0.82708 0.0
O467 O 0.58423 0.30147 0.84471 0.0
In468 In 0.74028 0.4055 0.22981 0.0
O469 O 0.73395 0.44361 0.23633 0.0
O470 O 0.76835 0.43118 0.23627 0.0
C471 C 0.69866 0.38737 0.22238 0.0
C472 C 0.7592 0.39728 0.18879 0.0
C473 C 0.74758 0.38413 0.26999 0.0
O474 O 0.70098 0.40825 0.22794 0.0
O475 O 0.71711 0.37626 0.22042 0.0
O476 O 0.75704 0.37759 0.25165 0.0
O477 O 0.73495 0.40152 0.26799 0.0
C478 C 0.75504 0.44794 0.23919 0.0
O479 O 0.76899 0.39218 0.20742 0.0
O480 O 0.74013 0.40739 0.19083 0.0
In481 In 0.62312 0.69146 0.20905 0.0
O482 O 0.59061 0.67144 0.21882 0.0
O483 O 0.58954 0.70809 0.21647 0.0
C484 C 0.6613 0.66591 0.2093 0.0
C485 C 0.62053 0.69689 0.16368 0.0
C486 C 0.6371 0.71722 0.24428 0.0
O487 O 0.64251 0.65813 0.21717 0.0
O488 O 0.66036 0.68602 0.20141 0.0
O489 O 0.63779 0.72461 0.22387 0.0
O490 O 0.62945 0.69708 0.24662 0.0
C491 C 0.57909 0.68975 0.22121 0.0
O492 O 0.623 0.71367 0.17724 0.0
O493 O 0.61801 0.67758 0.17322 0.0
In494 In 0.25037 0.58404 0.30091 0.0
O495 O 0.23179 0.55369 0.3171 0.0
O496 O 0.26477 0.54782 0.30261 0.0
C497 C 0.28693 0.60808 0.28594 0.0
C498 C 0.22614 0.5825 0.26173 0.0
C499 C 0.2421 0.6107 0.33779 0.0
O500 O 0.28924 0.59112 0.29926 0.0
O501 O 0.26655 0.61254 0.2804 0.0
O502 O 0.22981 0.61137 0.31997 0.0
O503 O 0.25783 0.59585 0.33736 0.0
C504 C 0.24735 0.53941 0.3124 0.0
O505 O 0.21764 0.59021 0.28015 0.0
O506 O 0.24632 0.57489 0.26349 0.0
In507 In 0.35847 0.28909 0.18077 0.0
O508 O 0.34616 0.27162 0.14811 0.0
O509 O 0.34871 0.30798 0.14808 0.0
C510 C 0.35227 0.25545 0.21176 0.0
C511 C 0.40442 0.29032 0.17909 0.0
C512 C 0.32972 0.31805 0.2022 0.0
O513 O 0.34436 0.25408 0.19164 0.0
O514 O 0.36327 0.27358 0.216 0.0
O515 O 0.35121 0.32111 0.20237 0.0
O516 O 0.32305 0.30086 0.19093 0.0
C517 C 0.34266 0.29013 0.13744 0.0
O518 O 0.39271 0.30844 0.18111 0.0
O519 O 0.39292 0.27224 0.17625 0.0
In520 In 0.74847 0.69946 0.60706 0.0
O521 O 0.72833 0.71196 0.57668 0.0
O522 O 0.75575 0.68888 0.57004 0.0
C523 C 0.75915 0.66058 0.62932 0.0
C524 C 0.78293 0.73008 0.60822 0.0
C525 C 0.71142 0.70944 0.6327 0.0
O526 O 0.74515 0.66077 0.61281 0.0
O527 O 0.76835 0.67964 0.63366 0.0
O528 O 0.73058 0.71916 0.63558 0.0
O529 O 0.71096 0.69482 0.61679 0.0
C530 C 0.74005 0.70142 0.56198 0.0
O531 O 0.76209 0.73596 0.60916 0.0
O532 O 0.78638 0.70876 0.60677 0.0
In533 In 0.70487 0.287 0.4143 0.0
O534 O 0.72773 0.25512 0.41223 0.0
O535 O 0.74216 0.28598 0.42533 0.0
C536 C 0.66784 0.27636 0.38887 0.0
C537 C 0.68726 0.29039 0.45669 0.0
C538 C 0.71999 0.31907 0.38506 0.0
O539 O 0.68409 0.26231 0.39194 0.0
O540 O 0.67011 0.29526 0.39913 0.0
O541 O 0.71055 0.32447 0.40384 0.0
O542 O 0.72159 0.29784 0.38136 0.0
C543 C 0.74549 0.26548 0.41924 0.0
O544 O 0.6978 0.30677 0.4472 0.0
O545 O 0.68631 0.27214 0.4451 0.0
In546 In 0.72134 0.76477 0.39518 0.0
O547 O 0.70114 0.75922 0.42823 0.0
O548 O 0.73774 0.75915 0.42947 0.0
C549 C 0.69026 0.75721 0.36206 0.0
C550 C 0.72835 0.81011 0.39099 0.0
C551 C 0.74912 0.73039 0.38224 0.0
O552 O 0.68626 0.75223 0.38277 0.0
O553 O 0.70958 0.76619 0.35838 0.0
O554 O 0.75422 0.7512 0.37885 0.0
O555 O 0.73017 0.72711 0.39212 0.0
C556 C 0.71909 0.75629 0.44002 0.0
O557 O 0.74456 0.79574 0.39054 0.0
O558 O 0.70887 0.80165 0.39519 0.0
In559 In 0.25991 0.76552 0.42855 0.0
O560 O 0.26556 0.75543 0.46591 0.0
O561 O 0.26823 0.79072 0.45692 0.0
C562 C 0.24592 0.72643 0.40814 0.0
C563 C 0.22147 0.78982 0.42133 0.0
C564 C 0.30081 0.76966 0.40728 0.0
O565 O 0.25265 0.72665 0.42875 0.0
O566 O 0.24635 0.74563 0.39825 0.0
O567 O 0.28386 0.7822 0.40242 0.0
O568 O 0.29723 0.75546 0.42314 0.0
C569 C 0.26966 0.77571 0.47238 0.0
O570 O 0.2411 0.79693 0.4154 0.0
O571 O 0.22142 0.77091 0.43192 0.0
In572 In 0.30285 0.17364 0.36345 0.0
O573 O 0.27834 0.14384 0.35721 0.0
O574 O 0.31387 0.13803 0.35154 0.0
C575 C 0.27375 0.20947 0.3628 0.0
C576 C 0.31403 0.17441 0.40816 0.0
C577 C 0.32617 0.18867 0.32665 0.0
O578 O 0.26723 0.18924 0.35846 0.0
O579 O 0.29476 0.21146 0.3675 0.0
O580 O 0.33518 0.18829 0.34639 0.0
O581 O 0.30591 0.18119 0.32572 0.0
C582 C 0.29368 0.13033 0.35005 0.0
O583 O 0.29375 0.17259 0.40094 0.0
O584 O 0.32929 0.17402 0.39278 0.0
In585 In 0.30742 0.24628 0.57426 0.0
O586 O 0.29277 0.21296 0.58904 0.0
O587 O 0.27022 0.23553 0.57137 0.0
C588 C 0.34555 0.24797 0.60068 0.0
C589 C 0.31476 0.23584 0.52974 0.0
C590 C 0.28935 0.28621 0.5893 0.0
O591 O 0.3297 0.23353 0.60372 0.0
O592 O 0.34284 0.26068 0.58342 0.0
O593 O 0.30276 0.28536 0.5723 0.0
O594 O 0.28513 0.26708 0.59841 0.0
C595 C 0.27252 0.2171 0.58243 0.0
O596 O 0.3038 0.2533 0.53623 0.0
O597 O 0.32322 0.22407 0.54577 0.0
In598 In 0.64365 0.26075 0.62459 0.0
O599 O 0.62475 0.25781 0.58992 0.0
O600 O 0.65044 0.28313 0.59378 0.0
C601 C 0.61498 0.2623 0.66086 0.0
C602 C 0.65537 0.2164 0.62131 0.0
C603 C 0.67648 0.28848 0.64131 0.0
O604 O 0.61144 0.27448 0.64326 0.0
O605 O 0.63218 0.24939 0.65953 0.0
O606 O 0.6804 0.26789 0.63574 0.0
O607 O 0.65598 0.29495 0.63857 0.0
C608 C 0.63653 0.27338 0.58058 0.0
O609 O 0.67002 0.23238 0.6206 0.0
O610 O 0.63475 0.22293 0.62257 0.0
In611 In 0.28485 0.8183 0.64196 0.0
O612 O 0.26553 0.84982 0.65445 0.0
O613 O 0.302 0.84988 0.65708 0.0
C614 C 0.25182 0.78593 0.63925 0.0
C615 C 0.29266 0.8237 0.59704 0.0
C616 C 0.31062 0.79682 0.67341 0.0
O617 O 0.24883 0.80443 0.65016 0.0
O618 O 0.27101 0.78424 0.62954 0.0
O619 O 0.31842 0.80174 0.65378 0.0
O620 O 0.29021 0.80301 0.677 0.0
C621 C 0.28336 0.86009 0.66132 0.0
O622 O 0.3057 0.81206 0.60979 0.0
O623 O 0.27676 0.83421 0.60732 0.0
H624 H 0.93365 0.16403 0.29036 0.0
H625 H 0.94673 0.19805 0.35458 0.0
H626 H 0.98727 0.20245 0.34432 0.0
H627 H 0.01751 0.20126 0.31484 0.0
H628 H 0.0027 0.17151 0.24881 0.0
H629 H 0.9643 0.16087 0.26186 0.0
C630 C 0.94556 0.17171 0.30241 0.0
C631 C 0.9374 0.18042 0.32332 0.0
C632 C 0.96839 0.17545 0.29576 0.0
C633 C 0.95279 0.19098 0.33852 0.0
C634 C 0.97586 0.19371 0.33253 0.0
C635 C 0.00595 0.19218 0.30345 0.0
C636 C 0.01282 0.18728 0.28087 0.0
C637 C 0.98364 0.18678 0.31084 0.0
C638 C -0.00232 0.17564 0.2662 0.0
C639 C 0.97577 0.1695 0.27367 0.0
H640 H 0.70079 0.95014 0.22372 0.0
H641 H 0.77362 0.95806 0.21286 0.0
H642 H 0.76735 0.99639 0.19714 0.0
H643 H 0.7415 0.02858 0.18932 0.0
H644 H 0.66915 0.02177 0.20318 0.0
H645 H 0.67475 0.98168 0.21426 0.0
C646 C 0.71528 0.96025 0.21786 0.0
C647 C 0.73763 0.95147 0.21964 0.0
C648 C 0.71157 0.98228 0.20912 0.0
C649 C 0.75626 0.96462 0.21189 0.0
C650 C 0.75269 0.98645 0.20279 0.0
C651 C 0.7269 0.01809 0.19417 0.0
C652 C 0.70494 0.02787 0.19531 0.0
C653 C 0.73045 0.99554 0.2016 0.0
C654 C 0.68618 0.0144 0.20208 0.0
C655 C 0.68941 0.99162 0.2086 0.0
H656 H 0.07223 0.81251 0.22526 0.0
H657 H 0.04379 0.82887 0.29157 0.0
H658 H 0.00537 0.81962 0.27761 0.0
H659 H 0.981 0.80202 0.24843 0.0
H660 H 0.0095 0.78348 0.18276 0.0
H661 H 0.04696 0.79846 0.19463 0.0
C662 C 0.05755 0.81461 0.2365 0.0
C663 C 0.06082 0.82121 0.25947 0.0
C664 C 0.03568 0.80842 0.22861 0.0
C665 C 0.04168 0.82377 0.27384 0.0
C666 C 0.01976 0.81831 0.26592 0.0
C667 C 0.99536 0.80142 0.23662 0.0
C668 C 0.99266 0.79132 0.2149 0.0
C669 C 0.01675 0.80977 0.24365 0.0
C670 C 0.01127 0.791 0.19965 0.0
C671 C 0.03264 0.79955 0.20643 0.0
H672 H 0.25128 0.92689 0.14038 0.0
H673 H 0.32341 0.94303 0.14172 0.0
H674 H 0.3146 0.98287 0.15172 0.0
H675 H 0.28668 0.01144 0.16508 0.0
H676 H 0.2148 0.99394 0.1678 0.0
H677 H 0.22312 0.95623 0.15141 0.0
C678 C 0.26499 0.93937 0.14206 0.0
C679 C 0.28794 0.93226 0.13997 0.0
C680 C 0.25982 0.9618 0.14919 0.0
C681 C 0.30563 0.94831 0.14294 0.0
C682 C 0.30059 0.97097 0.14892 0.0
C683 C 0.27281 -0.00055 0.16187 0.0
C684 C 0.25018 0.00537 0.16783 0.0
C685 C 0.2778 0.97765 0.15295 0.0
C686 C 0.23239 0.98968 0.16357 0.0
C687 C 0.23713 0.96817 0.15413 0.0
H688 H 0.95552 0.86059 0.72177 0.0
H689 H 0.97118 0.84526 0.6512 0.0
H690 H 0.00978 0.83286 0.66224 0.0
H691 H 0.03658 0.82102 0.69261 0.0
H692 H 0.01861 0.83234 0.76343 0.0
H693 H 0.98322 0.85143 0.75171 0.0
C694 C 0.96762 0.85524 0.70869 0.0
C695 C 0.9606 0.8539 0.68569 0.0
C696 C 0.9891 0.84678 0.71534 0.0
C697 C 0.97631 0.84655 0.66899 0.0
C698 C -0.00176 0.83921 0.67535 0.0
C699 C 0.02501 0.82789 0.70544 0.0
C700 C 0.03001 0.82506 0.72884 0.0
C701 C 0.00442 0.83831 0.69858 0.0
C702 C 0.01494 0.83405 0.74532 0.0
C703 C 0.99478 0.84506 0.73863 0.0
H704 H 0.26661 0.07398 0.85347 0.0
H705 H 0.33816 0.06152 0.83943 0.0
H706 H 0.33094 0.02021 0.83794 0.0
H707 H 0.3035 0.98831 0.83582 0.0
H708 H 0.23139 0.00128 0.8463 0.0
H709 H 0.23955 0.04168 0.85406 0.0
C710 C 0.28071 0.06215 0.85069 0.0
C711 C 0.30289 0.0707 0.84663 0.0
C712 C 0.27622 0.03856 0.84881 0.0
C713 C 0.32095 0.05527 0.84264 0.0
C714 C 0.3168 0.03169 0.84164 0.0
C715 C 0.28962 -8e-05 0.84013 0.0
C716 C 0.26687 0.99189 0.84033 0.0
C717 C 0.29437 0.02323 0.84393 0.0
C718 C 0.24904 0.00712 0.84588 0.0
C719 C 0.25369 0.03021 0.85032 0.0
H720 H 0.07311 0.16417 0.72267 0.0
H721 H 0.06521 0.18371 0.65187 0.0
H722 H 0.02535 0.19471 0.6591 0.0
H723 H 0.99446 0.20291 0.68649 0.0
H724 H 0.00349 0.18602 0.75789 0.0
H725 H 0.04134 0.17004 0.74956 0.0
C726 C 0.06245 0.17021 0.70868 0.0
C727 C 0.07197 0.17303 0.68674 0.0
C728 C 0.03998 0.17752 0.71323 0.0
C729 C 0.05815 0.18129 0.66886 0.0
C730 C 0.03547 0.18778 0.67305 0.0
C731 C 0.00467 0.19561 0.7002 0.0
C732 C 0.99633 0.19587 0.72281 0.0
C733 C 0.02649 0.18672 0.69533 0.0
C734 C 0.00965 0.18623 0.74038 0.0
C735 C 0.03124 0.17701 0.73562 0.0
H736 H 0.6968 0.03992 0.70966 0.0
H737 H 0.76551 0.02699 0.73393 0.0
H738 H 0.75541 0.9871 0.74195 0.0
H739 H 0.7273 0.95593 0.74148 0.0
H740 H 0.65976 0.9675 0.71376 0.0
H741 H 0.66892 0.0082 0.70799 0.0
C742 C 0.70954 0.02831 0.71665 0.0
C743 C 0.73184 0.03626 0.72124 0.0
C744 C 0.70371 0.00536 0.72084 0.0
C745 C 0.74829 0.02113 0.73013 0.0
C746 C 0.74248 -0.00159 0.73485 0.0
C747 C 0.71447 0.9675 0.73456 0.0
C748 C 0.69276 0.95906 0.72847 0.0
C749 C 0.72025 0.99039 0.73032 0.0
C750 C 0.67648 0.97387 0.71882 0.0
C751 C 0.68177 -0.00299 0.7154 0.0
H752 H 0.17458 0.3029 0.01389 0.0
H753 H 0.15056 0.23487 -0.00259 0.0
H754 H 0.13891 0.24796 0.95936 0.0
H755 H 0.14003 0.27738 0.92942 0.0
H756 H 0.16808 0.34413 0.94451 0.0
H757 H 0.17309 0.33319 0.98469 0.0
C758 C 0.16649 0.29103 0.00208 0.0
C759 C 0.16358 0.26792 0.00833 0.0
C760 C 0.1605 0.29852 0.98003 0.0
C761 C 0.15315 0.2527 0.99287 0.0
C762 C 0.14646 0.26018 0.97115 0.0
C763 C 0.14656 0.28976 0.94168 0.0
C764 C 0.15354 0.31158 0.93415 0.0
C765 C 0.1506 0.28289 0.96435 0.0
C766 C 0.16246 0.3273 0.95003 0.0
C767 C 0.16553 0.32096 0.97291 0.0
H768 H 0.19104 0.67846 0.97666 0.0
H769 H 0.17833 0.74908 0.99475 0.0
H770 H 0.1645 0.73716 0.03246 0.0
H771 H 0.16138 0.70739 0.0618 0.0
H772 H 0.17912 0.63754 0.04541 0.0
H773 H 0.18481 0.64817 0.00521 0.0
C774 C 0.1849 0.6912 0.98874 0.0
C775 C 0.18589 0.71462 0.98309 0.0
C776 C 0.17771 0.68427 0.01061 0.0
C777 C 0.17795 0.73097 -0.00114 0.0
C778 C 0.16998 0.72415 0.02037 0.0
C779 C 0.16561 0.69435 0.04923 0.0
C780 C 0.16958 0.67168 0.05636 0.0
C781 C 0.17043 0.70093 0.02664 0.0
C782 C 0.17571 0.65503 0.04013 0.0
C783 C 0.17926 0.66118 0.01727 0.0
H784 H 0.83638 0.23893 0.96744 0.0
H785 H 0.79603 0.18003 0.98702 0.0
H786 H 0.80562 0.18663 0.02725 0.0
H787 H 0.82092 0.21221 0.05685 0.0
H788 H 0.86147 0.27097 0.03784 0.0
H789 H 0.85683 0.26117 -0.00286 0.0
C790 C 0.82999 0.22736 0.98052 0.0
C791 C 0.81517 0.20928 0.97444 0.0
C792 C 0.8356 0.23127 0.00357 0.0
C793 C 0.80731 0.19414 0.99138 0.0
C794 C 0.81274 0.19795 0.01435 0.0
C795 C 0.82924 0.22248 0.04373 0.0
C796 C 0.84138 0.24229 0.05003 0.0
C797 C 0.82622 0.21687 0.02064 0.0
C798 C 0.85221 0.25555 0.03319 0.0
C799 C 0.84931 0.25007 0.01001 0.0
H800 H 0.77769 0.77918 0.93263 0.0
H801 H 0.83338 0.7309 0.93906 0.0
H802 H 0.8231 0.72413 0.97916 0.0
H803 H 0.79614 0.72953 0.01111 0.0
H804 H 0.74109 0.77855 0.00481 0.0
H805 H 0.75313 0.78737 0.96563 0.0
C806 C 0.78778 0.76744 0.94294 0.0
C807 C 0.80609 0.75538 0.933 0.0
C808 C 0.78164 0.76351 0.96575 0.0
C809 C 0.81924 0.74041 0.94647 0.0
C810 C 0.81323 0.73638 0.96927 0.0
C811 C 0.78681 0.74213 0.0011 0.0
C812 C 0.76754 0.7531 0.01048 0.0
C813 C 0.79408 0.74737 0.97885 0.0
C814 C 0.75586 0.76978 -0.00228 0.0
C815 C 0.76275 0.77484 0.97541 0.0
H816 H 0.4949 0.6792 0.73873 0.0
H817 H 0.49995 0.73662 0.78522 0.0
H818 H 0.46335 0.72642 0.80237 0.0
H819 H 0.42991 0.70183 0.80411 0.0
H820 H 0.42302 0.64486 0.75747 0.0
H821 H 0.46066 0.65383 0.74084 0.0
C822 C 0.48782 0.68953 0.75247 0.0
C823 C 0.50005 0.70868 0.76063 0.0
C824 C 0.4667 0.68343 0.76249 0.0
C825 C 0.49086 0.72181 0.77861 0.0
C826 C 0.46998 0.71595 0.78852 0.0
C827 C 0.43671 0.69114 0.7905 0.0
C828 C 0.42376 0.67266 0.7821 0.0
C829 C 0.45784 0.69678 0.78068 0.0
C830 C 0.43278 0.65909 0.76435 0.0
C831 C 0.45418 0.66435 0.75471 0.0
H832 H 0.18998 0.47527 0.67882 0.0
H833 H 0.26054 0.49173 0.66367 0.0
H834 H 0.24896 0.52935 0.6493 0.0
H835 H 0.21947 0.55902 0.64524 0.0
H836 H 0.14967 0.54427 0.66465 0.0
H837 H 0.16002 0.50431 0.67251 0.0
C838 C 0.20277 0.487 0.6721 0.0
C839 C 0.22609 0.48084 0.67245 0.0
C840 C 0.19604 0.50885 0.66449 0.0
C841 C 0.2425 0.4962 0.66378 0.0
C842 C 0.23588 0.51767 0.6555 0.0
C843 C 0.20639 0.54683 0.65045 0.0
C844 C 0.18379 0.55439 0.65409 0.0
C845 C 0.21278 0.52437 0.65626 0.0
C846 C 0.16711 0.53867 0.66149 0.0
C847 C 0.17309 0.51594 0.66622 0.0
H848 H 0.47499 0.31402 0.81658 0.0
H849 H 0.4996 0.32644 0.748 0.0
H850 H 0.53773 0.33551 0.76307 0.0
H851 H 0.56497 0.33493 0.79508 0.0
H852 H 0.54148 0.31723 0.86279 0.0
H853 H 0.50179 0.3159 0.84897 0.0
C854 C 0.4886 0.3191 0.80497 0.0
C855 C 0.48456 0.31948 0.7812 0.0
C856 C 0.51062 0.32347 0.8137 0.0
C857 C 0.50237 0.3259 0.76634 0.0
C858 C 0.52414 0.33111 0.77496 0.0
C859 C 0.55102 0.33165 0.80696 0.0
C860 C 0.55595 0.32663 0.83 0.0
C861 C 0.52859 0.32936 0.79854 0.0
C862 C 0.53793 0.32154 0.84509 0.0
C863 C 0.51533 0.3205 0.83711 0.0
H864 H 0.7505 0.43302 0.74017 0.0
H865 H 0.8201 0.45416 0.754 0.0
H866 H 0.80613 0.49035 0.76999 0.0
H867 H 0.77424 0.51569 0.78003 0.0
H868 H 0.70456 0.4945 0.7666 0.0
H869 H 0.71848 0.45809 0.75104 0.0
C870 C 0.76263 0.4457 0.74638 0.0
C871 C 0.78631 0.44115 0.74563 0.0
C872 C 0.75445 0.46612 0.75607 0.0
C873 C 0.80181 0.45746 0.75418 0.0
C874 C 0.79383 0.47802 0.76348 0.0
C875 C 0.76205 0.50299 0.77399 0.0
C876 C 0.7384 0.50772 0.77451 0.0
C877 C 0.77019 0.48242 0.76467 0.0
C878 C 0.72284 0.49116 0.76652 0.0
C879 C 0.7308 0.47047 0.75743 0.0
H880 H 0.42528 0.25706 0.20244 0.0
H881 H 0.43788 0.32197 0.16949 0.0
H882 H 0.47827 0.32049 0.18159 0.0
H883 H 0.50969 0.30055 0.20202 0.0
H884 H 0.49518 0.23751 0.23797 0.0
H885 H 0.45557 0.23853 0.22449 0.0
C886 C 0.43697 0.27074 0.19766 0.0
C887 C 0.42896 0.28934 0.18469 0.0
C888 C 0.45962 0.2702 0.2055 0.0
C889 C 0.44393 0.30736 0.17921 0.0
C890 C 0.46689 0.30654 0.18622 0.0
C891 C 0.49776 0.28714 0.20696 0.0
C892 C 0.50526 0.26894 0.22088 0.0
C893 C 0.47488 0.28807 0.19948 0.0
C894 C 0.48971 0.25175 0.22737 0.0
C895 C 0.46714 0.25224 0.21956 0.0
H896 H 0.7989 0.46272 0.23854 0.0
H897 H 0.73049 0.4827 0.25853 0.0
H898 H 0.74545 0.51847 0.27462 0.0
H899 H 0.77776 0.54456 0.28159 0.0
H900 H 0.84537 0.52648 0.25792 0.0
H901 H 0.83116 0.48893 0.24524 0.0
C902 C 0.78728 0.47494 0.24639 0.0
C903 C 0.76365 0.47022 0.24731 0.0
C904 C 0.79595 0.49549 0.2553 0.0
C905 C 0.74872 0.48615 0.25743 0.0
C906 C 0.75728 0.50646 0.26679 0.0
C907 C 0.78944 0.53206 0.27425 0.0
C908 C 0.81263 0.53773 0.27121 0.0
C909 C 0.78085 0.51128 0.2658 0.0
C910 C 0.82756 0.52203 0.26083 0.0
C911 C 0.81938 0.50079 0.25337 0.0
H912 H 0.56244 0.72167 0.24937 0.0
H913 H 0.54367 0.65965 0.21383 0.0
H914 H 0.50363 0.66448 0.22623 0.0
H915 H 0.4738 0.68827 0.24474 0.0
H916 H 0.49361 0.74935 0.28158 0.0
H917 H 0.5337 0.74288 0.27128 0.0
C918 C 0.54957 0.70913 0.24449 0.0
C919 C 0.55568 0.69056 0.23045 0.0
C920 C 0.52693 0.71192 0.25186 0.0
C921 C 0.53916 0.67411 0.22458 0.0
C922 C 0.51635 0.67694 0.23158 0.0
C923 C 0.48697 0.70001 0.25067 0.0
C924 C 0.48083 0.71942 0.26363 0.0
C925 C 0.50999 0.69606 0.24484 0.0
C926 C 0.49798 0.73434 0.27154 0.0
C927 C 0.52085 0.7307 0.26559 0.0
H928 H 0.2166 0.51756 0.34001 0.0
H929 H 0.27079 0.50544 0.29107 0.0
H930 H 0.26214 0.46452 0.29119 0.0
H931 H 0.23732 0.43275 0.30278 0.0
H932 H 0.18474 0.44344 0.3535 0.0
H933 H 0.19456 0.48448 0.35525 0.0
C934 C 0.22667 0.50587 0.32963 0.0
C935 C 0.24415 0.51449 0.31537 0.0
C936 C 0.22174 0.48226 0.32995 0.0
C937 C 0.25727 0.49921 0.30218 0.0
C938 C 0.25225 0.47583 0.30213 0.0
C939 C 0.22814 0.44411 0.31432 0.0
C940 C 0.21014 0.43544 0.32771 0.0
C941 C 0.23422 0.46729 0.31554 0.0
C942 C 0.19859 0.44997 0.34297 0.0
C943 C 0.20418 0.47335 0.3439 0.0
H944 H 0.70484 0.72336 0.54151 0.0
H945 H 0.7701 0.69119 0.52775 0.0
H946 H 0.76926 0.70583 0.48853 0.0
H947 H 0.75132 0.72995 0.45933 0.0
H948 H 0.6855 0.76112 0.4723 0.0
H949 H 0.68529 0.74488 0.51108 0.0
C950 C 0.71871 0.71929 0.5298 0.0
C951 C 0.73759 0.7064 0.53745 0.0
C952 C 0.7182 0.72792 0.50745 0.0
C953 C 0.75537 0.70104 0.52216 0.0
C954 C 0.755 0.70958 0.49985 0.0
C955 C 0.737 0.73329 0.47073 0.0
C956 C 0.71868 0.74706 0.46336 0.0
C957 C 0.73678 0.72349 0.49256 0.0
C958 C 0.69989 0.75077 0.47788 0.0
C959 C 0.69974 0.74144 0.49992 0.0
H960 H 0.65601 0.26182 0.47597 0.0
H961 H 0.69456 0.3238 0.48843 0.0
H962 H 0.67902 0.32593 0.52724 0.0
H963 H 0.65771 0.30807 0.55861 0.0
H964 H 0.61957 0.24577 0.54667 0.0
H965 H 0.63107 0.24628 0.50634 0.0
C966 C 0.6609 0.27584 0.48717 0.0
C967 C 0.67672 0.2924 0.47956 0.0
C968 C 0.65181 0.277 0.50941 0.0
C969 C 0.68259 0.31073 0.49402 0.0
C970 C 0.67368 0.31198 0.51617 0.0
C971 C 0.65149 0.29487 0.54706 0.0
C972 C 0.63802 0.27678 0.5556 0.0
C973 C 0.65868 0.29495 0.52417 0.0
C974 C 0.62992 0.2599 0.54046 0.0
C975 C 0.63672 0.26004 0.51748 0.0
H976 H 0.26847 0.81755 0.49249 0.0
H977 H 0.28635 0.74684 0.50494 0.0
H978 H 0.29847 0.75654 0.54385 0.0
H979 H 0.30192 0.78459 0.57485 0.0
H980 H 0.28 0.85434 0.56406 0.0
H981 H 0.27202 0.84578 0.52369 0.0
C982 C 0.27509 0.80431 0.50374 0.0
C983 C 0.27649 0.78152 0.49597 0.0
C984 C 0.28154 0.80993 0.52621 0.0
C985 C 0.28495 0.76446 0.51067 0.0
C986 C 0.292 0.77002 0.53283 0.0
C987 C 0.29596 0.79805 0.56347 0.0
C988 C 0.29196 0.82017 0.57213 0.0
C989 C 0.29021 0.79265 0.54081 0.0
C990 C 0.2835 0.8373 0.55754 0.0
C991 C 0.27875 0.83234 0.53459 0.0
H992 H 0.33989 0.20136 0.5099 0.0
H993 H 0.28895 0.25315 0.49541 0.0
H994 H 0.28422 0.23815 0.45684 0.0
H995 H 0.29289 0.20944 0.42787 0.0
H996 H 0.34563 0.15917 0.43983 0.0
H997 H 0.35137 0.17433 0.47886 0.0
C998 C 0.32799 0.20948 0.49817 0.0
C999 C 0.31468 0.22825 0.50558 0.0
C1000 C 0.32548 0.20088 0.47574 0.0
C1001 C 0.29942 0.23872 0.49017 0.0
C1002 C 0.29658 0.23008 0.46813 0.0
C1003 C 0.3056 0.20175 0.4391 0.0
C1004 C 0.31847 0.18296 0.43143 0.0
C1005 C 0.3092 0.21098 0.46091 0.0
C1006 C 0.33537 0.17351 0.44567 0.0
C1007 C 0.33863 0.1822 0.46787 0.0
H1008 H 0.19746 0.11972 0.24987 0.0
H1009 H 0.15402 0.07774 0.20719 0.0
H1010 H 0.12052 0.10036 0.21871 0.0
H1011 H 0.10458 0.13464 0.23764 0.0
H1012 H 0.14841 0.17658 0.28006 0.0
H1013 H 0.18075 0.15117 0.27218 0.0
C1014 C 0.18061 0.11534 0.2433 0.0
C1015 C 0.17821 0.09731 0.22747 0.0
C1016 C 0.16155 0.12846 0.2499 0.0
C1017 C 0.15627 0.0916 0.21934 0.0
C1018 C 0.13716 0.10459 0.22586 0.0
C1019 C 0.12111 0.13798 0.24548 0.0
C1020 C 0.12416 0.15761 0.25922 0.0
C1021 C 0.13972 0.12344 0.24064 0.0
C1022 C 0.14563 0.16164 0.26937 0.0
C1023 C 0.16417 0.14718 0.26477 0.0
H1024 H 0.82093 0.13077 0.2935 0.0
H1025 H 0.7936 0.19937 0.28784 0.0
H1026 H 0.75899 0.18455 0.26998 0.0
H1027 H 0.73781 0.15279 0.25309 0.0
H1028 H 0.76487 0.08408 0.25714 0.0
H1029 H 0.79794 0.09815 0.27888 0.0
C1030 C 0.80729 0.14238 0.28851 0.0
C1031 C 0.80997 0.16613 0.29175 0.0
C1032 C 0.78734 0.13375 0.27799 0.0
C1033 C 0.79211 0.18102 0.28533 0.0
C1034 C 0.77225 0.17258 0.27514 0.0
C1035 C 0.75074 0.14081 0.25905 0.0
C1036 C 0.74898 0.11749 0.25342 0.0
C1037 C 0.76987 0.14907 0.27099 0.0
C1038 C 0.76585 0.10216 0.26128 0.0
C1039 C 0.78484 0.11022 0.27357 0.0
H1040 H 0.86457 0.78708 0.24423 0.0
H1041 H 0.89656 0.83733 0.20036 0.0
H1042 H 0.86541 0.86427 0.20801 0.0
H1043 H 0.82742 0.8722 0.22442 0.0
H1044 H 0.79443 0.82098 0.26639 0.0
H1045 H 0.8277 0.79587 0.26245 0.0
C1046 C 0.86486 0.80404 0.2366 0.0
C1047 C 0.88272 0.81019 0.22168 0.0
C1048 C 0.84665 0.81922 0.24065 0.0
C1049 C 0.88289 0.83218 0.21183 0.0
C1050 C 0.86508 0.84758 0.21617 0.0
C1051 C 0.8277 0.85569 0.23298 0.0
C1052 C 0.80853 0.84838 0.24558 0.0
C1053 C 0.84663 0.8411 0.23015 0.0
C1054 C 0.80899 0.82691 0.25649 0.0
C1055 C 0.82798 0.81253 0.25422 0.0
H1056 H 0.25607 0.85702 0.22997 0.0
H1057 H 0.21307 0.87828 0.17371 0.0
H1058 H 0.17898 0.87383 0.19755 0.0
H1059 H 0.16114 0.85909 0.23263 0.0
H1060 H 0.20395 0.83544 0.28804 0.0
H1061 H 0.23831 0.84608 0.26655 0.0
C1062 C 0.23927 0.86104 0.22309 0.0
C1063 C 0.23704 0.86766 0.20007 0.0
C1064 C 0.21967 0.85794 0.23674 0.0
C1065 C 0.21518 0.87289 0.19134 0.0
C1066 C 0.19567 0.87036 0.20495 0.0
C1067 C 0.17798 0.85683 0.24022 0.0
C1068 C 0.18006 0.84637 0.26177 0.0
C1069 C 0.19765 0.86221 0.22744 0.0
C1070 C 0.20196 0.84337 0.27138 0.0
C1071 C 0.22161 0.84933 0.25906 0.0
H1072 H 0.11961 0.86336 0.77265 0.0
H1073 H 0.16412 0.82136 0.73103 0.0
H1074 H 0.19693 0.84521 0.7417 0.0
H1075 H 0.21345 0.87527 0.76605 0.0
H1076 H 0.16917 0.91725 0.80785 0.0
H1077 H 0.13562 0.89616 0.7938 0.0
C1078 C 0.13644 0.85965 0.76562 0.0
C1079 C 0.13952 0.84049 0.75128 0.0
C1080 C 0.15523 0.87325 0.77207 0.0
C1081 C 0.16134 0.83599 0.74214 0.0
C1082 C 0.18011 0.84953 0.74835 0.0
C1083 C 0.19642 0.87993 0.77193 0.0
C1084 C 0.19373 0.89751 0.78822 0.0
C1085 C 0.17734 0.86774 0.76383 0.0
C1086 C 0.17161 0.90368 0.7954 0.0
C1087 C 0.15248 0.8916 0.78742 0.0
H1088 H 0.23834 0.11548 0.78445 0.0
H1089 H 0.28887 0.15511 0.74765 0.0
H1090 H 0.26065 0.1639 0.71801 0.0
H1091 H 0.22044 0.16474 0.70561 0.0
H1092 H 0.16981 0.12493 0.74193 0.0
H1093 H 0.19933 0.11148 0.76863 0.0
C1094 C 0.24327 0.12566 0.76969 0.0
C1095 C 0.26552 0.13495 0.76837 0.0
C1096 C 0.22691 0.13077 0.75281 0.0
C1097 C 0.27182 0.14785 0.74907 0.0
C1098 C 0.25565 0.15301 0.7322 0.0
C1099 C 0.21599 0.15278 0.71914 0.0
C1100 C 0.19303 0.14606 0.72212 0.0
C1101 C 0.23297 0.14525 0.73436 0.0
C1102 C 0.18742 0.13033 0.73941 0.0
C1103 C 0.20425 0.12278 0.75473 0.0
H1104 H 0.86455 0.20054 0.69632 0.0
H1105 H 0.90408 0.14511 0.72512 0.0
H1106 H 0.87143 0.11912 0.72073 0.0
H1107 H 0.83013 0.11369 0.71362 0.0
H1108 H 0.78998 0.17036 0.68823 0.0
H1109 H 0.8243 0.19425 0.68615 0.0
C1110 C 0.86617 0.18263 0.70111 0.0
C1111 C 0.88658 0.17473 0.7111 0.0
C1112 C 0.84707 0.16809 0.69943 0.0
C1113 C 0.88844 0.15156 0.71745 0.0
C1114 C 0.86976 0.13674 0.71505 0.0
C1115 C 0.82905 0.13112 0.70722 0.0
C1116 C 0.80763 0.14036 0.70126 0.0
C1117 C 0.84874 0.14502 0.70682 0.0
C1118 C 0.80632 0.16299 0.69312 0.0
C1119 C 0.82592 0.17666 0.69193 0.0
H1120 H 0.81473 0.84631 0.65684 0.0
H1121 H 0.84238 0.90857 0.68557 0.0
H1122 H 0.80346 0.92382 0.69033 0.0
H1123 H 0.76207 0.91583 0.69329 0.0
H1124 H 0.73468 0.85293 0.66556 0.0
H1125 H 0.77303 0.84171 0.65277 0.0
C1126 C 0.8122 0.86349 0.66355 0.0
C1127 C 0.83119 0.87623 0.67125 0.0
C1128 C 0.78987 0.87186 0.66657 0.0
C1129 C 0.82793 0.89852 0.6796 0.0
C1130 C 0.80569 0.90711 0.68249 0.0
C1131 C 0.76443 0.89998 0.68383 0.0
C1132 C 0.74573 0.88498 0.68073 0.0
C1133 C 0.78657 0.89343 0.67708 0.0
C1134 C 0.74884 0.86468 0.66821 0.0
C1135 C 0.7708 0.85817 0.66111 0.0
H1136 H 0.20984 0.10463 0.12896 0.0
H1137 H 0.26728 0.13709 0.16258 0.0
H1138 H 0.26224 0.17119 0.13891 0.0
H1139 H 0.23913 0.19318 0.11175 0.0
H1140 H 0.18151 0.16135 0.078 0.0
H1141 H 0.18915 0.12541 0.09846 0.0
C1142 C 0.22147 0.11903 0.13083 0.0
C1143 C 0.23875 0.11846 0.14768 0.0
C1144 C 0.21832 0.13871 0.1173 0.0
C1145 C 0.25378 0.13716 0.14983 0.0
C1146 C 0.25086 0.1567 0.13636 0.0
C1147 C 0.22838 0.17828 0.10868 0.0
C1148 C 0.2096 0.17992 0.09368 0.0
C1149 C 0.2328 0.15789 0.12054 0.0
C1150 C 0.19603 0.16046 0.08954 0.0
C1151 C 0.20034 0.13999 0.10131 0.0
H1152 H 0.88486 0.23786 0.17401 0.0
H1153 H 0.83822 0.2918 0.19357 0.0
H1154 H 0.84611 0.28455 0.23397 0.0
H1155 H 0.86101 0.25853 0.26353 0.0
H1156 H 0.90553 0.20286 0.24385 0.0
H1157 H 0.9041 0.21528 0.20397 0.0
C1158 C 0.877 0.24845 0.18713 0.0
C1159 C 0.86083 0.26514 0.1809 0.0
C1160 C 0.88098 0.24362 0.21039 0.0
C1161 C 0.8506 0.27868 0.19802 0.0
C1162 C 0.85502 0.27449 0.22113 0.0
C1163 C 0.87088 0.24954 0.25059 0.0
C1164 C 0.88308 0.22967 0.25653 0.0
C1165 C 0.86938 0.25633 0.22753 0.0
C1166 C 0.89577 0.21809 0.2396 0.0
C1167 C 0.89492 0.22513 0.21677 0.0
H1168 H 0.72063 0.81664 0.20484 0.0
H1169 H 0.73125 0.87539 0.16123 0.0
H1170 H 0.73089 0.85074 0.12742 0.0
H1171 H 0.73278 0.81216 0.11091 0.0
H1172 H 0.72458 0.75314 0.15474 0.0
H1173 H 0.71863 0.77816 0.18776 0.0
C1174 C 0.72228 0.82405 0.18788 0.0
C1175 C 0.72612 0.84769 0.18546 0.0
C1176 C 0.72289 0.80969 0.1686 0.0
C1177 C 0.72842 0.85716 0.16345 0.0
C1178 C 0.72833 0.84308 0.14414 0.0
C1179 C 0.72937 0.8048 0.12763 0.0
C1180 C 0.72945 0.78091 0.13047 0.0
C1181 C 0.72644 0.81926 0.1466 0.0
C1182 C 0.72487 0.77155 0.15219 0.0
C1183 C 0.72146 0.78582 0.17108 0.0
H1184 H 0.17323 0.74941 0.25317 0.0
H1185 H 0.10076 0.7439 0.23942 0.0
H1186 H 0.10865 0.71903 0.20654 0.0
H1187 H 0.13667 0.70261 0.17912 0.0
H1188 H 0.20909 0.70945 0.19331 0.0
H1189 H 0.20068 0.73005 0.22846 0.0
C1190 C 0.15913 0.7424 0.24325 0.0
C1191 C 0.13651 0.7486 0.24854 0.0
C1192 C 0.16381 0.72866 0.22416 0.0
C1193 C 0.11837 0.73931 0.23566 0.0
C1194 C 0.12288 0.72528 0.21673 0.0
C1195 C 0.15054 0.70847 0.19004 0.0
C1196 C 0.17344 0.70482 0.18342 0.0
C1197 C 0.14561 0.72047 0.21037 0.0
C1198 C 0.19128 0.71226 0.19784 0.0
C1199 C 0.18653 0.72402 0.21802 0.0
H1200 H 0.2777 0.85539 0.85145 0.0
H1201 H 0.22869 0.89413 0.89103 0.0
H1202 H 0.22003 0.86016 0.91404 0.0
H1203 H 0.22291 0.81826 0.91959 0.0
H1204 H 0.27014 0.77945 0.87794 0.0
H1205 H 0.28306 0.81453 0.85923 0.0
C1206 C 0.2655 0.85654 0.86544 0.0
C1207 C 0.25377 0.87719 0.86945 0.0
C1208 C 0.26004 0.83678 0.87805 0.0
C1209 C 0.23791 0.87837 0.88756 0.0
C1210 C 0.23285 0.85892 0.90064 0.0
C1211 C 0.2363 0.8176 0.90671 0.0
C1212 C 0.2454 0.79631 0.9 0.0
C1213 C 0.24326 0.83783 0.89554 0.0
C1214 C 0.2627 0.79563 0.88323 0.0
C1215 C 0.27011 0.81568 0.87251 0.0
H1216 H 0.11518 0.22213 0.75553 0.0
H1217 H 0.1665 0.25683 0.715 0.0
H1218 H 0.17265 0.28441 0.7459 0.0
H1219 H 0.16678 0.29561 0.78588 0.0
H1220 H 0.1157 0.26112 0.82675 0.0
H1221 H 0.1058 0.2366 0.79408 0.0
C1222 C 0.12746 0.23594 0.75336 0.0
C1223 C 0.14065 0.23728 0.73321 0.0
C1224 C 0.13103 0.25161 0.77125 0.0
C1225 C 0.15626 0.2554 0.73043 0.0
C1226 C 0.15985 0.2711 0.74811 0.0
C1227 C 0.15325 0.28293 0.78751 0.0
C1228 C 0.1422 0.27984 0.80868 0.0
C1229 C 0.14785 0.2689 0.76882 0.0
C1230 C 0.12445 0.26369 0.81058 0.0
C1231 C 0.11891 0.24961 0.79197 0.0
H1232 H 0.76626 0.10536 0.79686 0.0
H1233 H 0.71712 0.15611 0.77471 0.0
H1234 H 0.72073 0.17597 0.81133 0.0
H1235 H 0.7412 0.18146 0.84743 0.0
H1236 H 0.79081 0.13145 0.86983 0.0
H1237 H 0.78338 0.10842 0.83542 0.0
C1238 C 0.75608 0.12057 0.80021 0.0
C1239 C 0.74169 0.12947 0.783 0.0
C1240 C 0.75842 0.13204 0.82124 0.0
C1241 C 0.72843 0.14903 0.78762 0.0
C1242 C 0.73053 0.16043 0.80852 0.0
C1243 C 0.75013 0.16532 0.84494 0.0
C1244 C 0.76674 0.15824 0.86087 0.0
C1245 C 0.74599 0.15248 0.82511 0.0
C1246 C 0.77796 0.13719 0.85772 0.0
C1247 C 0.77383 0.12415 0.838 0.0
H1248 H 0.85727 0.80732 0.82772 0.0
H1249 H 0.87137 0.73801 0.80616 0.0
H1250 H 0.88856 0.7522 0.7707 0.0
H1251 H 0.89369 0.78376 0.74345 0.0
H1252 H 0.87653 0.85283 0.76373 0.0
H1253 H 0.86648 0.83937 0.80206 0.0
C1254 C 0.86481 0.7954 0.81558 0.0
C1255 C 0.86307 0.7717 0.81941 0.0
C1256 C 0.8736 0.80364 0.79477 0.0
C1257 C 0.87255 0.75636 0.80346 0.0
C1258 C 0.88218 0.76445 0.78313 0.0
C1259 C 0.88809 0.7959 0.75638 0.0
C1260 C 0.8855 0.81917 0.75071 0.0
C1261 C 0.88184 0.78797 0.77818 0.0
C1262 C 0.87839 0.83476 0.76763 0.0
C1263 C 0.87266 0.82709 0.78955 0.0
H1264 H 0.12144 0.25373 0.20352 0.0
H1265 H 0.07265 0.20745 0.1727 0.0
H1266 H 0.08951 0.21464 0.1349 0.0
H1267 H 0.12076 0.23099 0.11154 0.0
H1268 H 0.16939 0.27725 0.14282 0.0
H1269 H 0.14969 0.27347 0.17951 0.0
C1270 C 0.11434 0.24541 0.18847 0.0
C1271 C 0.09609 0.22983 0.19085 0.0
C1272 C 0.12412 0.2496 0.16694 0.0
C1273 C 0.08678 0.21944 0.17125 0.0
C1274 C 0.09646 0.22349 0.14969 0.0
C1275 C 0.12678 0.24057 0.1263 0.0
C1276 C 0.14666 0.25419 0.12454 0.0
C1277 C 0.11552 0.23809 0.14744 0.0
C1278 C 0.15419 0.2666 0.14375 0.0
C1279 C 0.14301 0.26434 0.16477 0.0
H1280 H 0.14474 0.7573 0.88719 0.0
H1281 H 0.18693 0.7103 0.84857 0.0
H1282 H 0.16376 0.7172 0.81446 0.0
H1283 H 0.13441 0.73972 0.7947 0.0
H1284 H 0.09207 0.78685 0.83282 0.0
H1285 H 0.11223 0.77656 0.8682 0.0
C1286 C 0.14862 0.7483 0.87139 0.0
C1287 C 0.16768 0.73353 0.8703 0.0
C1288 C 0.13534 0.75251 0.85177 0.0
C1289 C 0.17241 0.72183 0.84981 0.0
C1290 C 0.15924 0.72584 0.83027 0.0
C1291 C 0.12941 0.74752 0.81082 0.0
C1292 C 0.11205 0.76423 0.8112 0.0
C1293 C 0.14112 0.74163 0.83092 0.0
C1294 C 0.10545 0.77397 0.83217 0.0
C1295 C 0.11704 0.76818 0.85234 0.0
H1296 H 0.24358 0.27576 0.85084 0.0
H1297 H 0.19823 0.2392 0.89638 0.0
H1298 H 0.22208 0.20489 0.89315 0.0
H1299 H 0.25339 0.18401 0.87385 0.0
H1300 H 0.29692 0.22016 0.82622 0.0
H1301 H 0.27646 0.2558 0.83391 0.0
C1302 C 0.23921 0.26042 0.86041 0.0
C1303 C 0.21918 0.25994 0.87372 0.0
C1304 C 0.25257 0.24055 0.85789 0.0
C1305 C 0.21356 0.23991 0.88591 0.0
C1306 C 0.22714 0.22027 0.88402 0.0
C1307 C 0.25859 0.1998 0.86549 0.0
C1308 C 0.27646 0.19946 0.84938 0.0
C1309 C 0.24631 0.22017 0.86952 0.0
C1310 C 0.28301 0.21997 0.83854 0.0
C1311 C 0.27134 0.24037 0.84292 0.0
H1312 H 0.82871 0.24517 0.84725 0.0
H1313 H 0.86726 0.19368 0.8837 0.0
H1314 H 0.89714 0.19473 0.85437 0.0
H1315 H 0.91038 0.20746 0.81635 0.0
H1316 H 0.87044 0.25728 0.77904 0.0
H1317 H 0.84323 0.25982 0.81065 0.0
C1318 C 0.84386 0.2345 0.84896 0.0
C1319 C 0.84575 0.21932 0.86751 0.0
C1320 C 0.86065 0.23471 0.83171 0.0
C1321 C 0.86538 0.20546 0.86947 0.0
C1322 C 0.88245 0.20599 0.85268 0.0
C1323 C 0.8959 0.21908 0.81534 0.0
C1324 C 0.89231 0.23199 0.79536 0.0
C1325 C 0.87997 0.22009 0.8334 0.0
C1326 C 0.87344 0.24697 0.79419 0.0
C1327 C 0.85786 0.24846 0.81225 0.0
H1328 H 0.7288 0.86378 0.79601 0.0
H1329 H 0.7139 0.81179 0.7455 0.0
H1330 H 0.73376 0.78314 0.76859 0.0
H1331 H 0.75704 0.77325 0.80215 0.0
H1332 H 0.7731 0.82544 0.85206 0.0
H1333 H 0.75101 0.85355 0.83029 0.0
C1334 C 0.72976 0.84614 0.79017 0.0
C1335 C 0.72 0.83992 0.76908 0.0
C1336 C 0.74147 0.8298 0.80339 0.0
C1337 C 0.72139 0.81702 0.76167 0.0
C1338 C 0.73274 0.80062 0.77484 0.0
C1339 C 0.75553 0.79073 0.80834 0.0
C1340 C 0.76672 0.79729 0.8286 0.0
C1341 C 0.7431 0.80687 0.79558 0.0
C1342 C 0.76468 0.82 0.83643 0.0
C1343 C 0.75208 0.83609 0.824 0.0
H1344 H 0.82912 0.75854 0.08802 0.0
H1345 H 0.80682 0.6964 0.12145 0.0
H1346 H 0.84226 0.69558 0.14385 0.0
H1347 H 0.8767 0.71546 0.15754 0.0
H1348 H 0.89893 0.77784 0.12463 0.0
H1349 H 0.86656 0.77541 0.09795 0.0
C1350 C 0.83221 0.74463 0.09996 0.0
C1351 C 0.81527 0.72777 0.10343 0.0
C1352 C 0.8525 0.74439 0.11286 0.0
C1353 C 0.81957 0.70963 0.11862 0.0
C1354 C 0.83977 0.70921 0.13148 0.0
C1355 C 0.8747 0.72827 0.1442 0.0
C1356 C 0.88989 0.74699 0.14318 0.0
C1357 C 0.85594 0.72693 0.12929 0.0
C1358 C 0.8874 0.76331 0.1257 0.0
C1359 C 0.8688 0.76201 0.11061 0.0
H1360 H 0.26146 0.71887 0.12605 0.0
H1361 H 0.20827 0.74585 0.08243 0.0
H1362 H 0.22609 0.78379 0.08357 0.0
H1363 H 0.25292 0.81056 0.10255 0.0
H1364 H 0.30359 0.78376 0.14912 0.0
H1365 H 0.29104 0.74465 0.14104 0.0
C1366 C 0.25419 0.73291 0.11626 0.0
C1367 C 0.23353 0.72969 0.10438 0.0
C1368 C 0.26396 0.75488 0.11781 0.0
C1369 C 0.22413 0.74803 0.09188 0.0
C1370 C 0.23424 0.76976 0.0926 0.0
C1371 C 0.26156 0.79606 0.11033 0.0
C1372 C 0.27898 0.79988 0.12647 0.0
C1373 C 0.25358 0.77362 0.10635 0.0
C1374 C 0.28998 0.78109 0.13675 0.0
C1375 C 0.28278 0.75875 0.1322 0.0
H1376 H 0.77206 0.12862 0.16282 0.0
H1377 H 0.70715 0.15798 0.14283 0.0
H1378 H 0.72687 0.19178 0.12773 0.0
H1379 H 0.76228 0.21461 0.12393 0.0
H1380 H 0.82696 0.18504 0.14446 0.0
H1381 H 0.80758 0.14976 0.15578 0.0
C1382 C 0.76226 0.14221 0.15476 0.0
C1383 C 0.73821 0.14092 0.1541 0.0
C1384 C 0.77363 0.16174 0.14661 0.0
C1385 C 0.72571 0.1586 0.14353 0.0
C1386 C 0.73695 0.17801 0.13508 0.0
C1387 C 0.77209 0.20039 0.1308 0.0
C1388 C 0.79593 0.20251 0.13368 0.0
C1389 C 0.76084 0.18007 0.1372 0.0
C1390 C 0.80854 0.18387 0.14225 0.0
C1391 C 0.79749 0.16367 0.1487 0.0
H1392 H 0.67476 0.6408 0.80152 0.0
H1393 H 0.63618 0.58352 0.77514 0.0
H1394 H 0.60227 0.60804 0.77089 0.0
H1395 H 0.58607 0.64703 0.76895 0.0
H1396 H 0.62509 0.70418 0.79526 0.0
H1397 H 0.65625 0.67833 0.80587 0.0
C1398 C 0.65875 0.63362 0.79528 0.0
C1399 C 0.65792 0.6106 0.78824 0.0
C1400 C 0.63953 0.64781 0.7928 0.0
C1401 C 0.63712 0.60126 0.78056 0.0
C1402 C 0.61783 0.6153 0.77802 0.0
C1403 C 0.60116 0.65372 0.77753 0.0
C1404 C 0.6035 0.67751 0.78094 0.0
C1405 C 0.61916 0.6388 0.78323 0.0
C1406 C 0.62296 0.68596 0.79234 0.0
C1407 C 0.64086 0.67121 0.79824 0.0
H1408 H 0.21993 0.63087 0.74266 0.0
H1409 H 0.26044 0.60109 0.68844 0.0
H1410 H 0.29521 0.60581 0.71126 0.0
H1411 H 0.31467 0.62333 0.74434 0.0
H1412 H 0.27421 0.65529 0.79734 0.0
H1413 H 0.23896 0.6445 0.77756 0.0
C1414 C 0.23631 0.62499 0.73607 0.0
C1415 C 0.23769 0.61593 0.71385 0.0
C1416 C 0.25632 0.62834 0.74901 0.0
C1417 C 0.259 0.60836 0.70546 0.0
C1418 C 0.27891 0.61109 0.71847 0.0
C1419 C 0.29811 0.62742 0.75178 0.0
C1420 C 0.29699 0.64025 0.77208 0.0
C1421 C 0.27789 0.6218 0.73994 0.0
C1422 C 0.27546 0.64559 0.78155 0.0
C1423 C 0.25529 0.63949 0.77024 0.0
H1424 H 0.38649 0.36427 0.73104 0.0
H1425 H 0.35028 0.32565 0.78276 0.0
H1426 H 0.31576 0.34824 0.77591 0.0
H1427 H 0.2948 0.37599 0.75251 0.0
H1428 H 0.33043 0.41492 0.70076 0.0
H1429 H 0.36638 0.39538 0.7105 0.0
C1430 C 0.37115 0.36107 0.74106 0.0
C1431 C 0.37086 0.34313 0.75719 0.0
C1432 C 0.35125 0.37404 0.73689 0.0
C1433 C 0.35092 0.33927 0.77016 0.0
C1434 C 0.33114 0.35212 0.76619 0.0
C1435 C 0.31051 0.3804 0.74355 0.0
C1436 C 0.30999 0.39661 0.72576 0.0
C1437 C 0.33094 0.36907 0.74917 0.0
C1438 C 0.33046 0.40244 0.7145 0.0
C1439 C 0.35095 0.39119 0.71999 0.0
H1440 H 0.6878 0.35053 0.82382 0.0
H1441 H 0.69087 0.28302 0.79353 0.0
H1442 H 0.73016 0.28984 0.78134 0.0
H1443 H 0.76229 0.31598 0.7761 0.0
H1444 H 0.7595 0.38408 0.80484 0.0
H1445 H 0.72191 0.37574 0.82153 0.0
C1446 C 0.69713 0.33736 0.81457 0.0
C1447 C 0.68632 0.31648 0.80926 0.0
C1448 C 0.71988 0.34136 0.80759 0.0
C1449 C 0.6987 0.29937 0.79763 0.0
C1450 C 0.72123 0.30318 0.79071 0.0
C1451 C 0.75374 0.32882 0.7865 0.0
C1452 C 0.76356 0.35064 0.78908 0.0
C1453 C 0.73185 0.32422 0.79526 0.0
C1454 C 0.75228 0.3671 0.80263 0.0
C1455 C 0.73066 0.36244 0.81193 0.0
H1456 H 0.68975 0.34985 0.19732 0.0
H1457 H 0.65792 0.39861 0.24282 0.0
H1458 H 0.62347 0.37449 0.24486 0.0
H1459 H 0.60471 0.33717 0.23736 0.0
H1460 H 0.63724 0.2888 0.19173 0.0
H1461 H 0.66908 0.31525 0.1859 0.0
C1462 C 0.67509 0.35537 0.20737 0.0
C1463 C 0.67636 0.37574 0.22013 0.0
C1464 C 0.65561 0.34138 0.20859 0.0
C1465 C 0.65724 0.38295 0.23285 0.0
C1466 C 0.63766 0.36908 0.23415 0.0
C1467 C 0.6186 0.33262 0.22586 0.0
C1468 C 0.6188 0.31094 0.21525 0.0
C1469 C 0.63698 0.3479 0.22267 0.0
C1470 C 0.63677 0.30531 0.20023 0.0
C1471 C 0.65502 0.3204 0.19692 0.0
H1472 H 0.76496 0.63821 0.21682 0.0
H1473 H 0.73728 0.59365 0.26894 0.0
H1474 H 0.69834 0.60427 0.25799 0.0
H1475 H 0.6723 0.62976 0.23672 0.0
H1476 H 0.7002 0.67549 0.18575 0.0
H1477 H 0.73865 0.66069 0.19284 0.0
C1478 C 0.75038 0.63053 0.22547 0.0
C1479 C 0.75399 0.61541 0.24381 0.0
C1480 C 0.72799 0.63706 0.2194 0.0
C1481 C 0.73495 0.60555 0.25489 0.0
C1482 C 0.71265 0.61162 0.24867 0.0
C1483 C 0.68674 0.63609 0.22686 0.0
C1484 C 0.68347 0.65381 0.21094 0.0
C1485 C 0.70896 0.62789 0.23141 0.0
C1486 C 0.70234 0.66196 0.1983 0.0
C1487 C 0.72436 0.65356 0.20236 0.0
H1488 H 0.32914 0.6128 0.30541 0.0
H1489 H 0.28717 0.63666 0.24943 0.0
H1490 H 0.31628 0.6649 0.23916 0.0
H1491 H 0.35183 0.6853 0.2483 0.0
H1492 H 0.39298 0.66316 0.30557 0.0
H1493 H 0.36625 0.63172 0.31299 0.0
C1494 C 0.32661 0.62393 0.29075 0.0
C1495 C 0.30604 0.62277 0.27828 0.0
C1496 C 0.34319 0.64059 0.28528 0.0
C1497 C 0.30284 0.63738 0.2594 0.0
C1498 C 0.31945 0.65355 0.25352 0.0
C1499 C 0.35512 0.67338 0.26219 0.0
C1500 C 0.37425 0.67661 0.27643 0.0
C1501 C 0.33941 0.6557 0.26668 0.0
C1502 C 0.37828 0.66108 0.29441 0.0
C1503 C 0.36298 0.64313 0.2987 0.0
H1504 H 0.28359 0.3187 0.19854 0.0
H1505 H 0.33974 0.34769 0.23704 0.0
H1506 H 0.31256 0.36498 0.26395 0.0
H1507 H 0.27313 0.3682 0.27865 0.0
H1508 H 0.21712 0.33896 0.24007 0.0
H1509 H 0.244 0.32553 0.21089 0.0
C1510 C 0.28986 0.32909 0.21264 0.0
C1511 C 0.31359 0.33172 0.21602 0.0
C1512 C 0.27419 0.33873 0.22809 0.0
C1513 C 0.32152 0.34541 0.23415 0.0
C1514 C 0.306 0.35517 0.24959 0.0
C1515 C 0.2668 0.35912 0.26371 0.0
C1516 C 0.24325 0.35428 0.26163 0.0
C1517 C 0.28235 0.35137 0.24708 0.0
C1518 C 0.2352 0.34277 0.24208 0.0
C1519 C 0.25056 0.33504 0.22544 0.0
H1520 H 0.7679 0.60594 0.71986 0.0
H1521 H 0.70094 0.58258 0.69866 0.0
H1522 H 0.70658 0.59996 0.66097 0.0
H1523 H 0.72796 0.627 0.63667 0.0
H1524 H 0.79375 0.65226 0.65921 0.0
H1525 H 0.79152 0.62837 0.69347 0.0
C1526 C 0.75469 0.60435 0.70686 0.0
C1527 C 0.73387 0.59344 0.71211 0.0
C1528 C 0.75789 0.61471 0.68546 0.0
C1529 C 0.71703 0.59116 0.69505 0.0
C1530 C 0.72023 0.60111 0.67352 0.0
C1531 C 0.74213 0.62664 0.64871 0.0
C1532 C 0.76089 0.64145 0.64563 0.0
C1533 C 0.74024 0.61365 0.66885 0.0
C1534 C 0.77909 0.64104 0.66137 0.0
C1535 C 0.77773 0.62755 0.68103 0.0
H1536 H 0.36306 0.7222 0.7303 0.0
H1537 H 0.31746 0.74707 0.78298 0.0
H1538 H 0.30367 0.77712 0.75724 0.0
H1539 H 0.30181 0.79361 0.71864 0.0
H1540 H 0.34763 0.76915 0.666 0.0
H1541 H 0.36442 0.74177 0.69299 0.0
C1542 C 0.35031 0.73439 0.73621 0.0
C1543 C 0.34103 0.7323 0.75834 0.0
C1544 C 0.34248 0.75157 0.72133 0.0
C1545 C 0.32477 0.74834 0.76596 0.0
C1546 C 0.31683 0.76544 0.75124 0.0
C1547 C 0.31569 0.78248 0.71319 0.0
C1548 C 0.32331 0.78311 0.69036 0.0
C1549 C 0.32513 0.76681 0.72872 0.0
C1550 C 0.34149 0.7689 0.68352 0.0
C1551 C 0.35098 0.75317 0.69889 0.0
H1552 H 0.27016 0.38414 0.6303 0.0
H1553 H 0.22276 0.34486 0.6714 0.0
H1554 H 0.23143 0.31052 0.64903 0.0
H1555 H 0.25543 0.29092 0.62057 0.0
H1556 H 0.30313 0.32995 0.57964 0.0
H1557 H 0.29129 0.36521 0.59909 0.0
C1558 C 0.26144 0.36815 0.6341 0.0
C1559 C 0.246 0.36698 0.65261 0.0
C1560 C 0.26675 0.34841 0.62138 0.0
C1561 C 0.23475 0.34619 0.65727 0.0
C1562 C 0.2398 0.32652 0.64457 0.0
C1563 C 0.26306 0.30719 0.61574 0.0
C1564 C 0.28033 0.30783 0.59892 0.0
C1565 C 0.25625 0.3273 0.62704 0.0
C1566 C 0.28987 0.32903 0.59262 0.0
C1567 C 0.28315 0.34917 0.60377 0.0
H1568 H 0.6148 0.23308 0.69663 0.0
H1569 H 0.58948 0.29908 0.67491 0.0
H1570 H 0.58056 0.30895 0.71469 0.0
H1571 H 0.58728 0.30163 0.75561 0.0
H1572 H 0.61451 0.23637 0.77729 0.0
H1573 H 0.61505 0.22315 0.73749 0.0
C1574 C 0.60675 0.24938 0.70056 0.0
C1575 C 0.60319 0.26553 0.68299 0.0
C1576 C 0.60238 0.25516 0.72346 0.0
C1577 C 0.59245 0.28643 0.68817 0.0
C1578 C 0.58758 0.29215 0.71093 0.0
C1579 C 0.59285 0.28432 0.75164 0.0
C1580 C 0.60133 0.27012 0.7692 0.0
C1581 C 0.59361 0.27711 0.72874 0.0
C1582 C 0.60807 0.24762 0.764 0.0
C1583 C 0.60852 0.24015 0.74125 0.0
H1584 H 0.73019 0.39644 0.31118 0.0
H1585 H 0.76777 0.34256 0.27707 0.0
H1586 H 0.76449 0.31841 0.31111 0.0
H1587 H 0.74721 0.31115 0.34863 0.0
H1588 H 0.70893 0.36457 0.38261 0.0
H1589 H 0.71647 0.3906 0.35055 0.0
C1590 C 0.73795 0.37954 0.31133 0.0
C1591 C 0.74893 0.37113 0.29158 0.0
C1592 C 0.73572 0.36567 0.33081 0.0
C1593 C 0.75913 0.34933 0.29204 0.0
C1594 C 0.75717 0.3355 0.31145 0.0
C1595 C 0.74074 0.32859 0.34913 0.0
C1596 C 0.72725 0.33589 0.36771 0.0
C1597 C 0.74491 0.34325 0.33062 0.0
C1598 C 0.71927 0.35858 0.36839 0.0
C1599 C 0.72349 0.3734 0.35005 0.0
H1600 H 0.62764 0.70961 0.28887 0.0
H1601 H 0.66603 0.75406 0.24389 0.0
H1602 H 0.6844 0.77214 0.27702 0.0
H1603 H 0.69231 0.77235 0.31835 0.0
H1604 H 0.65379 0.72792 0.36326 0.0
H1605 H 0.63235 0.71294 0.3305 0.0
C1606 C 0.63985 0.72343 0.28635 0.0
C1607 C 0.64578 0.73031 0.26404 0.0
C1608 C 0.65031 0.73364 0.3054 0.0
C1609 C 0.6613 0.74845 0.26095 0.0
C1610 C 0.67185 0.75871 0.27985 0.0
C1611 C 0.679 0.75961 0.32099 0.0
C1612 C 0.6748 0.75099 0.34309 0.0
C1613 C 0.66691 0.751 0.30209 0.0
C1614 C 0.65734 0.73474 0.34637 0.0
C1615 C 0.64519 0.7261 0.32765 0.0
H1616 H 0.25899 0.68236 0.41668 0.0
H1617 H 0.21787 0.7238 0.37135 0.0
H1618 H 0.2103 0.69052 0.34717 0.0
H1619 H 0.21889 0.65086 0.33653 0.0
H1620 H 0.26258 0.60991 0.37985 0.0
H1621 H 0.26537 0.64151 0.40731 0.0
C1622 C 0.24804 0.68392 0.40174 0.0
C1623 C 0.23909 0.70546 0.39571 0.0
C1624 C 0.24436 0.66481 0.38746 0.0
C1625 C 0.22509 0.70739 0.37622 0.0
C1626 C 0.22076 0.68838 0.36237 0.0
C1627 C 0.22863 0.64868 0.35221 0.0
C1628 C 0.24055 0.62813 0.35613 0.0
C1629 C 0.23082 0.66717 0.36747 0.0
C1630 C 0.25328 0.62562 0.37643 0.0
C1631 C 0.25496 0.64371 0.39209 0.0
H1632 H 0.31285 0.18463 0.28255 0.0
H1633 H 0.36389 0.21652 0.32559 0.0
H1634 H 0.37788 0.2388 0.29291 0.0
H1635 H 0.37275 0.25205 0.25324 0.0
H1636 H 0.32152 0.22021 0.21037 0.0
H1637 H 0.31051 0.19486 0.24188 0.0
C1638 C 0.32725 0.19624 0.2847 0.0
C1639 C 0.33717 0.19918 0.30646 0.0
C1640 C 0.33499 0.20909 0.26595 0.0
C1641 C 0.35597 0.21402 0.30899 0.0
C1642 C 0.36387 0.22685 0.29036 0.0
C1643 C 0.35935 0.23938 0.25073 0.0
C1644 C 0.34772 0.23817 0.22965 0.0
C1645 C 0.35306 0.22498 0.26893 0.0
C1646 C 0.33062 0.22151 0.22649 0.0
C1647 C 0.32428 0.20708 0.24451 0.0
H1648 H 0.66847 0.69132 0.62911 0.0
H1649 H 0.70945 0.73827 0.66916 0.0
H1650 H 0.67715 0.74487 0.69483 0.0
H1651 H 0.63821 0.73625 0.70679 0.0
H1652 H 0.5964 0.6895 0.66753 0.0
H1653 H 0.62815 0.68399 0.64036 0.0
C1654 C 0.67025 0.70307 0.6434 0.0
C1655 C 0.69135 0.71421 0.64733 0.0
C1656 C 0.65157 0.70677 0.65816 0.0
C1657 C 0.69343 0.72946 0.66581 0.0
C1658 C 0.67498 0.73323 0.68051 0.0
C1659 C 0.63595 0.72485 0.69227 0.0
C1660 C 0.6151 0.71309 0.68925 0.0
C1661 C 0.65413 0.72179 0.67698 0.0
C1662 C 0.61234 0.69868 0.6702 0.0
C1663 C 0.63049 0.6955 0.65475 0.0
H1664 H 0.66385 0.24161 0.35816 0.0
H1665 H 0.62975 0.3026 0.38247 0.0
H1666 H 0.60178 0.29974 0.35147 0.0
H1667 H 0.58967 0.28237 0.31497 0.0
H1668 H 0.62513 0.22252 0.28979 0.0
H1669 H 0.64966 0.22233 0.32362 0.0
C1670 C 0.65004 0.25402 0.35691 0.0
C1671 C 0.64898 0.27237 0.37245 0.0
C1672 C 0.63435 0.2526 0.33872 0.0
C1673 C 0.63102 0.28837 0.37061 0.0
C1674 C 0.61505 0.28679 0.35285 0.0
C1675 C 0.6025 0.26908 0.31712 0.0
C1676 C 0.60573 0.25263 0.29984 0.0
C1677 C 0.61694 0.26937 0.33641 0.0
C1678 C 0.62245 0.23551 0.30279 0.0
C1679 C 0.63652 0.23539 0.32212 0.0
H1680 H 0.78884 0.63782 0.34434 0.0
H1681 H 0.82453 0.68512 0.30013 0.0
H1682 H 0.8103 0.71749 0.32254 0.0
H1683 H 0.78377 0.73243 0.35145 0.0
H1684 H 0.74543 0.6853 0.39365 0.0
H1685 H 0.76471 0.65283 0.37552 0.0
C1686 C 0.79389 0.6552 0.34001 0.0
C1687 C 0.80756 0.6592 0.32065 0.0
C1688 C 0.78491 0.67377 0.35243 0.0
C1689 C 0.81386 0.68174 0.31495 0.0
C1690 C 0.80569 0.70024 0.32769 0.0
C1691 C 0.77996 0.71506 0.35694 0.0
C1692 C 0.76311 0.7112 0.37365 0.0
C1693 C 0.79057 0.69649 0.34597 0.0
C1694 C 0.75824 0.68864 0.38061 0.0
C1695 C 0.76923 0.67008 0.37026 0.0
H1696 H 0.30918 0.79275 0.36794 0.0
H1697 H 0.34005 0.74572 0.4159 0.0
H1698 H 0.37259 0.7402 0.39007 0.0
H1699 H 0.3895 0.74476 0.35163 0.0
H1700 H 0.35686 0.78972 0.30289 0.0
H1701 H 0.32803 0.80031 0.33128 0.0
C1702 C 0.32324 0.78164 0.37293 0.0
C1703 C 0.32212 0.76947 0.39364 0.0
C1704 C 0.34152 0.77804 0.35773 0.0
C1705 C 0.34046 0.75514 0.39992 0.0
C1706 C 0.35904 0.75193 0.38513 0.0
C1707 C 0.37638 0.75727 0.34748 0.0
C1708 C 0.37513 0.76632 0.32524 0.0
C1709 C 0.35937 0.76269 0.36366 0.0
C1710 C 0.35799 0.78239 0.31991 0.0
C1711 C 0.34148 0.78841 0.3361 0.0
H1712 H 0.2831 0.25319 0.37565 0.0
H1713 H 0.23029 0.21081 0.34567 0.0
H1714 H 0.20694 0.2448 0.33827 0.0
H1715 H 0.20332 0.28659 0.33691 0.0
H1716 H 0.25611 0.32926 0.36638 0.0
H1717 H 0.27761 0.29501 0.37779 0.0
C1718 C 0.26636 0.25139 0.36772 0.0
C1719 C 0.25852 0.22959 0.36093 0.0
C1720 C 0.25311 0.27101 0.3634 0.0
C1721 C 0.23673 0.22743 0.35093 0.0
C1722 C 0.2234 0.24685 0.34665 0.0
C1723 C 0.21939 0.2884 0.34611 0.0
C1724 C 0.22829 0.31036 0.35059 0.0
C1725 C 0.23169 0.26873 0.35231 0.0
C1726 C 0.24896 0.3125 0.36274 0.0
C1727 C 0.26129 0.29294 0.36912 0.0
H1728 H 0.41404 0.28951 0.67313 0.0
H1729 H 0.38375 0.23576 0.71395 0.0
H1730 H 0.36389 0.22079 0.68043 0.0
H1731 H 0.35146 0.22559 0.64083 0.0
H1732 H 0.37954 0.28042 0.59993 0.0
H1733 H 0.40415 0.29206 0.63187 0.0
C1734 C 0.40344 0.27427 0.6745 0.0
C1735 C 0.40018 0.26388 0.696 0.0
C1736 C 0.39151 0.26603 0.65516 0.0
C1737 C 0.38632 0.24421 0.69762 0.0
C1738 C 0.37494 0.23562 0.67846 0.0
C1739 C 0.36329 0.23981 0.63873 0.0
C1740 C 0.36354 0.25221 0.6181 0.0
C1741 C 0.37685 0.24679 0.65732 0.0
C1742 C 0.37898 0.2706 0.61567 0.0
C1743 C 0.39296 0.27735 0.63398 0.0
H1744 H 0.72031 0.2774 0.65223 0.0
H1745 H 0.67272 0.33405 0.65096 0.0
H1746 H 0.70178 0.3592 0.66768 0.0
H1747 H 0.73985 0.36442 0.68502 0.0
H1748 H 0.78658 0.30717 0.68821 0.0
H1749 H 0.75889 0.28302 0.66805 0.0
C1750 C 0.71636 0.29528 0.65548 0.0
C1751 C 0.6944 0.30383 0.6505 0.0
C1752 C 0.73303 0.30955 0.66538 0.0
C1753 C 0.6895 0.32704 0.65478 0.0
C1754 C 0.7061 0.34144 0.6643 0.0
C1755 C 0.7441 0.34678 0.6809 0.0
C1756 C 0.76519 0.33756 0.68801 0.0
C1757 C 0.72783 0.33281 0.66995 0.0
C1758 C 0.77042 0.31461 0.68288 0.0
C1759 C 0.75457 0.30078 0.67145 0.0
H1760 H 0.18882 0.7038 0.66757 0.0
H1761 H 0.2265 0.67058 0.61335 0.0
H1762 H 0.24455 0.70726 0.60327 0.0
H1763 H 0.25287 0.7475 0.61318 0.0
H1764 H 0.21508 0.78037 0.66764 0.0
H1765 H 0.19341 0.74505 0.67415 0.0
C1766 C 0.2008 0.70467 0.65336 0.0
C1767 C 0.20672 0.68457 0.64144 0.0
C1768 C 0.21107 0.72566 0.64782 0.0
C1769 C 0.22183 0.68588 0.62279 0.0
C1770 C 0.23219 0.70679 0.61714 0.0
C1771 C 0.23961 0.74704 0.62621 0.0
C1772 C 0.23577 0.76637 0.64016 0.0
C1773 C 0.22745 0.72661 0.63001 0.0
C1774 C 0.21838 0.76568 0.65677 0.0
C1775 C 0.20611 0.74546 0.66058 0.0
H1776 H 0.125 0.34907 0.28086 0.0
H1777 H 0.13865 0.32613 0.34976 0.0
H1778 H 0.11345 0.29321 0.34415 0.0
H1779 H 0.09372 0.26729 0.31716 0.0
H1780 H 0.07917 0.29074 0.24864 0.0
H1781 H 0.09822 0.32715 0.25667 0.0
C1782 C 0.12182 0.33728 0.29488 0.0
C1783 C 0.13399 0.33979 0.31551 0.0
C1784 C 0.10747 0.31821 0.29147 0.0
C1785 C 0.12956 0.32455 0.33365 0.0
C1786 C 0.11533 0.30554 0.33038 0.0
C1787 C 0.09421 0.28064 0.30423 0.0
C1788 C 0.08546 0.27623 0.28225 0.0
C1789 C 0.10516 0.3016 0.30898 0.0
C1790 C 0.08589 0.29372 0.26569 0.0
C1791 C 0.09691 0.31451 0.27022 0.0
H1792 H 0.64121 0.14093 0.17454 0.0
H1793 H 0.63565 0.11617 0.24394 0.0
H1794 H 0.60514 0.14384 0.25166 0.0
H1795 H 0.58562 0.17928 0.24083 0.0
H1796 H 0.59477 0.20701 0.17293 0.0
H1797 H 0.61789 0.17369 0.16222 0.0
C1798 C 0.63285 0.14119 0.19115 0.0
C1799 C 0.64074 0.12678 0.20875 0.0
C1800 C 0.61616 0.15787 0.19576 0.0
C1801 C 0.62993 0.12729 0.23022 0.0
C1802 C 0.61257 0.14315 0.23465 0.0
C1803 C 0.59213 0.17773 0.22349 0.0
C1804 C 0.58878 0.19565 0.20775 0.0
C1805 C 0.60634 0.15919 0.21788 0.0
C1806 C 0.59731 0.19346 0.18537 0.0
C1807 C 0.61063 0.1745 0.1793 0.0
H1808 H 0.88271 0.62629 0.22183 0.0
H1809 H 0.88766 0.64138 0.29399 0.0
H1810 H 0.91535 0.67173 0.28615 0.0
H1811 H 0.93121 0.69901 0.25813 0.0
H1812 H 0.92724 0.68335 0.18606 0.0
H1813 H 0.90668 0.64788 0.1945 0.0
C1814 C 0.89046 0.63574 0.23585 0.0
C1815 C 0.88283 0.63202 0.25835 0.0
C1816 C 0.90635 0.65324 0.23122 0.0
C1817 C 0.89318 0.64407 0.27647 0.0
C1818 C 0.90889 0.66157 0.272 0.0
C1819 C 0.92658 0.68736 0.24438 0.0
C1820 C 0.93029 0.69389 0.22155 0.0
C1821 C 0.9146 0.66709 0.24935 0.0
C1822 C 0.9245 0.67866 0.20381 0.0
C1823 C 0.9125 0.65849 0.2086 0.0
H1824 H 0.39721 0.77086 0.1959 0.0
H1825 H 0.40653 0.81522 0.25433 0.0
H1826 H 0.3873 0.8464 0.23426 0.0
H1827 H 0.36192 0.85857 0.20289 0.0
H1828 H 0.35364 0.81493 0.14385 0.0
H1829 H 0.37881 0.78622 0.16105 0.0
C1830 C 0.39553 0.78755 0.20396 0.0
C1831 C 0.40284 0.79062 0.22667 0.0
C1832 C 0.38451 0.80549 0.19227 0.0
C1833 C 0.4009 0.81238 0.23687 0.0
C1834 C 0.38979 0.83022 0.22546 0.0
C1835 C 0.36628 0.8431 0.19352 0.0
C1836 C 0.35579 0.83868 0.17234 0.0
C1837 C 0.38065 0.82663 0.20356 0.0
C1838 C 0.36161 0.8187 0.16019 0.0
C1839 C 0.37579 0.80216 0.17013 0.0
H1840 H 0.09598 0.73687 0.68343 0.0
H1841 H 0.0809 0.71042 0.75074 0.0
H1842 H 0.09344 0.67226 0.73898 0.0
H1843 H 0.11497 0.64837 0.71162 0.0
H1844 H 0.12863 0.67436 0.64381 0.0
H1845 H 0.10981 0.71042 0.65345 0.0
C1846 C 0.09491 0.72259 0.69529 0.0
C1847 C 0.08793 0.72647 0.71798 0.0
C1848 C 0.10201 0.70062 0.68837 0.0
C1849 C 0.0863 0.70784 0.73317 0.0
C1850 C 0.09359 0.68603 0.72651 0.0
C1851 C 0.1131 0.66164 0.69874 0.0
C1852 C 0.12347 0.65884 0.6772 0.0
C1853 C 0.10237 0.68245 0.70444 0.0
C1854 C 0.1208 0.67608 0.66056 0.0
C1855 C 0.11026 0.69685 0.66613 0.0
H1856 H 0.40551 0.24433 0.82372 0.0
H1857 H 0.42811 0.21271 0.76086 0.0
H1858 H 0.41091 0.17638 0.77253 0.0
H1859 H 0.38294 0.15634 0.79696 0.0
H1860 H 0.3606 0.18787 0.85998 0.0
H1861 H 0.38472 0.22117 0.85226 0.0
C1862 C 0.40722 0.22929 0.81292 0.0
C1863 C 0.41761 0.23126 0.7913 0.0
C1864 C 0.39716 0.20847 0.81968 0.0
C1865 C 0.42006 0.21163 0.77755 0.0
C1866 C 0.41008 0.19087 0.78414 0.0
C1867 C 0.38398 0.17017 0.80936 0.0
C1868 C 0.36966 0.16989 0.82873 0.0
C1869 C 0.39762 0.18945 0.80464 0.0
C1870 C 0.37135 0.18774 0.84484 0.0
C1871 C 0.38498 0.20693 0.84033 0.0
H1872 H 0.88444 0.35651 0.7549 0.0
H1873 H 0.86226 0.35122 0.68463 0.0
H1874 H 0.892 0.32281 0.67702 0.0
H1875 H 0.91767 0.29334 0.69294 0.0
H1876 H 0.93988 0.29875 0.76323 0.0
H1877 H 0.9174 0.33363 0.768 0.0
C1878 C 0.88667 0.3497 0.73774 0.0
C1879 C 0.87086 0.35544 0.72053 0.0
C1880 C 0.90364 0.33314 0.73355 0.0
C1881 C 0.8741 0.34686 0.69825 0.0
C1882 C 0.891 0.33046 0.69392 0.0
C1883 C 0.91827 0.30264 0.70902 0.0
C1884 C 0.92984 0.29312 0.72787 0.0
C1885 C 0.90492 0.3225 0.71181 0.0
C1886 C 0.93084 0.30554 0.74851 0.0
C1887 C 0.91778 0.32541 0.75135 0.0
H1888 H 0.6224 0.85108 0.69604 0.0
H1889 H 0.62421 0.86789 0.76803 0.0
H1890 H 0.59598 0.83818 0.77602 0.0
H1891 H 0.5768 0.8028 0.76359 0.0
H1892 H 0.57459 0.78593 0.6917 0.0
H1893 H 0.59648 0.82046 0.68262 0.0
C1894 C 0.61611 0.84867 0.71336 0.0
C1895 C 0.62582 0.86127 0.73146 0.0
C1896 C 0.6 0.83131 0.71793 0.0
C1897 C 0.61727 0.85819 0.75379 0.0
C1898 C 0.60119 0.8411 0.75843 0.0
C1899 C 0.58053 0.80707 0.74589 0.0
C1900 C 0.57449 0.79169 0.72841 0.0
C1901 C 0.59334 0.82682 0.74081 0.0
C1902 C 0.57915 0.7975 0.7055 0.0
C1903 C 0.59185 0.81715 0.70029 0.0
H1904 H 0.31956 0.11207 0.31629 0.0
H1905 H 0.25419 0.10519 0.35019 0.0
H1906 H 0.24039 0.08053 0.3192 0.0
H1907 H 0.2445 0.06744 0.2794 0.0
H1908 H 0.30823 0.0788 0.24364 0.0
H1909 H 0.32524 0.09488 0.2784 0.0
C1910 C 0.30257 0.10452 0.31727 0.0
C1911 C 0.28787 0.11046 0.33544 0.0
C1912 C 0.29434 0.09149 0.29877 0.0
C1913 C 0.26579 0.10084 0.33635 0.0
C1914 C 0.25785 0.0869 0.31854 0.0
C1915 C 0.26232 0.0728 0.27944 0.0
C1916 C 0.27509 0.07207 0.25899 0.0
C1917 C 0.27159 0.08306 0.29916 0.0
C1918 C 0.29807 0.07931 0.25917 0.0
C1919 C 0.30775 0.08859 0.27901 0.0
H1920 H 0.84324 0.24802 0.3794 0.0
H1921 H 0.81716 0.17885 0.37603 0.0
H1922 H 0.78333 0.19014 0.39787 0.0
H1923 H 0.75832 0.22108 0.41221 0.0
H1924 H 0.7851 0.2899 0.41697 0.0
H1925 H 0.82152 0.27728 0.4008 0.0
C1926 C 0.83044 0.23532 0.384 0.0
C1927 C 0.83252 0.21276 0.3758 0.0
C1928 C 0.81098 0.24191 0.39662 0.0
C1929 C 0.81595 0.19638 0.38208 0.0
C1930 C 0.79647 0.20284 0.39444 0.0
C1931 C 0.77236 0.23314 0.41028 0.0
C1932 C 0.76887 0.25643 0.41541 0.0
C1933 C 0.79335 0.22577 0.40095 0.0
C1934 C 0.78728 0.27187 0.41307 0.0
C1935 C 0.80811 0.26471 0.40364 0.0
H1936 H 0.76066 0.88238 0.32174 0.0
H1937 H 0.68933 0.8772 0.30275 0.0
H1938 H 0.68075 0.85821 0.33906 0.0
H1939 H 0.6952 0.83523 0.37093 0.0
H1940 H 0.76752 0.83535 0.38649 0.0
H1941 H 0.77402 0.86477 0.35738 0.0
C1942 C 0.74311 0.87777 0.32589 0.0
C1943 C 0.7257 0.88076 0.3095 0.0
C1944 C 0.73859 0.86569 0.34615 0.0
C1945 C 0.70304 0.87477 0.31504 0.0
C1946 C 0.69816 0.86383 0.33574 0.0
C1947 C 0.71224 0.84235 0.36857 0.0
C1948 C 0.73093 0.83295 0.38052 0.0
C1949 C 0.71604 0.85799 0.35073 0.0
C1950 C 0.75292 0.84225 0.37731 0.0
C1951 C 0.75666 0.85889 0.36051 0.0
H1952 H 0.18046 0.76901 0.41539 0.0
H1953 H 0.21554 0.83342 0.40567 0.0
H1954 H 0.1847 0.8467 0.38063 0.0
H1955 H 0.15285 0.83655 0.35527 0.0
H1956 H 0.12091 0.77007 0.36115 0.0
H1957 H 0.14492 0.76123 0.39431 0.0
C1958 C 0.18095 0.78624 0.4084 0.0
C1959 C 0.20032 0.80014 0.41209 0.0
C1960 C 0.16381 0.79323 0.39305 0.0
C1961 C 0.20085 0.82237 0.40287 0.0
C1962 C 0.18329 0.82991 0.38847 0.0
C1963 C 0.15057 0.82046 0.36432 0.0
C1964 C 0.13538 0.80385 0.35566 0.0
C1965 C 0.16538 0.81499 0.38245 0.0
C1966 C 0.13264 0.78304 0.36745 0.0
C1967 C 0.1465 0.77792 0.38629 0.0
H1968 H 0.315 0.87256 0.69279 0.0
H1969 H 0.24839 0.8907 0.66625 0.0
H1970 H 0.24235 0.91678 0.69851 0.0
H1971 H 0.25307 0.92878 0.73723 0.0
H1972 H 0.3175 0.90664 0.76605 0.0
H1973 H 0.32761 0.88814 0.72979 0.0
C1974 C 0.29947 0.88276 0.69373 0.0
C1975 C 0.28211 0.8797 0.67726 0.0
C1976 C 0.29564 0.89677 0.71292 0.0
C1977 C 0.26194 0.89276 0.67879 0.0
C1978 C 0.25845 0.90756 0.69728 0.0
C1979 C 0.26963 0.92049 0.73537 0.0
C1980 C 0.28449 0.91895 0.7543 0.0
C1981 C 0.27475 0.9089 0.71493 0.0
C1982 C 0.30577 0.90797 0.75172 0.0
C1983 C 0.31147 0.89728 0.73104 0.0
H1984 H 0.2278 0.22753 0.57621 0.0
H1985 H 0.27235 0.17643 0.6058 0.0
H1986 H 0.23941 0.15826 0.62441 0.0
H1987 H 0.19938 0.16107 0.63739 0.0
H1988 H 0.15615 0.215 0.61117 0.0
H1989 H 0.18693 0.2276 0.58564 0.0
C1990 C 0.23025 0.21212 0.58633 0.0
C1991 C 0.25249 0.20349 0.58989 0.0
C1992 C 0.21142 0.20236 0.59765 0.0
C1993 C 0.2554 0.18349 0.60298 0.0
C1994 C 0.23658 0.17315 0.61366 0.0
C1995 C 0.19648 0.17507 0.62549 0.0
C1996 C 0.17561 0.18714 0.62607 0.0
C1997 C 0.21468 0.18299 0.61185 0.0
C1998 C 0.17212 0.20549 0.61093 0.0
C1999 C 0.18976 0.21279 0.5965 0.0
H2000 H 0.67771 0.12679 0.67328 0.0
H2001 H 0.74404 0.13921 0.64302 0.0
H2002 H 0.72764 0.16889 0.61847 0.0
H2003 H 0.69618 0.19624 0.61177 0.0
H2004 H 0.62968 0.18326 0.64154 0.0
H2005 H 0.64422 0.1485 0.65965 0.0
C2006 C 0.68837 0.13553 0.66077 0.0
C2007 C 0.71204 0.13125 0.66018 0.0
C2008 C 0.67885 0.15263 0.64684 0.0
C2009 C 0.72574 0.14234 0.64378 0.0
C2010 C 0.71642 0.15945 0.62989 0.0
C2011 C 0.68473 0.18538 0.62163 0.0
C2012 C 0.66211 0.19249 0.62578 0.0
C2013 C 0.69325 0.16551 0.63216 0.0
C2014 C 0.64726 0.17819 0.63826 0.0
C2015 C 0.6556 0.1584 0.64879 0.0
H2016 H 0.82646 0.7218 0.62203 0.0
H2017 H 0.78135 0.77577 0.59918 0.0
H2018 H 0.81121 0.80426 0.6066 0.0
H2019 H 0.84788 0.81418 0.6243 0.0
H2020 H 0.89094 0.76088 0.65198 0.0
H2021 H 0.86452 0.73161 0.63739 0.0
C2022 C 0.82337 0.73976 0.61831 0.0
C2023 C 0.80178 0.74677 0.61022 0.0
C2024 C 0.84029 0.7561 0.62345 0.0
C2025 C 0.79782 0.77006 0.60562 0.0
C2026 C 0.81488 0.78632 0.60981 0.0
C2027 C 0.85185 0.79612 0.62645 0.0
C2028 C 0.87135 0.78957 0.63897 0.0
C2029 C 0.83591 0.7796 0.61934 0.0
C2030 C 0.87606 0.7662 0.64221 0.0
C2031 C 0.86087 0.74953 0.63408 0.0
H2032 H 0.25445 0.30074 0.07948 0.0
H2033 H 0.27016 0.23024 0.06358 0.0
H2034 H 0.30797 0.23438 0.081 0.0
H2035 H 0.33289 0.25577 0.10757 0.0
H2036 H 0.31757 0.32653 0.12275 0.0
H2037 H 0.28367 0.32477 0.09833 0.0
C2038 C 0.26646 0.28654 0.0792 0.0
C2039 C 0.25942 0.26513 0.0707 0.0
C2040 C 0.28816 0.289 0.08937 0.0
C2041 C 0.27518 0.2469 0.07013 0.0
C2042 C 0.29675 0.24918 0.08027 0.0
C2043 C 0.32253 0.27099 0.1049 0.0
C2044 C 0.3274 0.29106 0.1173 0.0
C2045 C 0.30292 0.26981 0.09098 0.0
C2046 C 0.31409 0.3108 0.11349 0.0
C2047 C 0.29455 0.30976 0.09969 0.0
H2048 H 0.35026 0.69789 0.87771 0.0
H2049 H 0.31875 0.6345 0.8563 0.0
H2050 H 0.28826 0.63974 0.88444 0.0
H2051 H 0.26594 0.66731 0.9074 0.0
H2052 H 0.29741 0.73084 0.92857 0.0
H2053 H 0.33271 0.72038 0.90875 0.0
C2054 C 0.33723 0.68477 0.87991 0.0
C2055 C 0.33636 0.66619 0.86462 0.0
C2056 C 0.31946 0.68818 0.89575 0.0
C2057 C 0.31967 0.64908 0.86778 0.0
C2058 C 0.30204 0.65221 0.88369 0.0
C2059 C 0.28083 0.67845 0.90834 0.0
C2060 C 0.27892 0.70005 0.91884 0.0
C2061 C 0.30098 0.67247 0.89661 0.0
C2062 C 0.29839 0.7142 0.92036 0.0
C2063 C 0.31855 0.70832 0.90886 0.0
H2064 H 0.21064 0.38143 0.84147 0.0
H2065 H 0.14345 0.36658 0.81426 0.0
H2066 H 0.15223 0.38858 0.77983 0.0
H2067 H 0.18147 0.40606 0.75478 0.0
H2068 H 0.24822 0.42196 0.78241 0.0
H2069 H 0.23707 0.40588 0.81937 0.0
C2070 C 0.19769 0.38361 0.8283 0.0
C2071 C 0.1766 0.37208 0.83024 0.0
C2072 C 0.20291 0.39619 0.80843 0.0
C2073 C 0.15987 0.37523 0.81317 0.0
C2074 C 0.16495 0.38764 0.79334 0.0
C2075 C 0.19333 0.40652 0.76909 0.0
C2076 C 0.21572 0.4148 0.7658 0.0
C2077 C 0.18679 0.39727 0.79035 0.0
C2078 C 0.23088 0.41559 0.78451 0.0
C2079 C 0.22457 0.40626 0.80563 0.0
H2080 H 0.64613 0.2438 0.88675 0.0
H2081 H 0.66924 0.31394 0.89179 0.0
H2082 H 0.70529 0.30126 0.90863 0.0
H2083 H 0.73282 0.26983 0.91534 0.0
H2084 H 0.7092 0.19981 0.91185 0.0
H2085 H 0.67088 0.21282 0.90127 0.0
C2086 C 0.65875 0.25633 0.89224 0.0
C2087 C 0.65516 0.2797 0.8876 0.0
C2088 C 0.67961 0.24892 0.9018 0.0
C2089 C 0.67158 0.29579 0.89502 0.0
C2090 C 0.69236 0.28855 0.90446 0.0
C2091 C 0.71911 0.2575 0.91279 0.0
C2092 C 0.72389 0.23394 0.91397 0.0
C2093 C 0.697 0.26511 0.90687 0.0
C2094 C 0.70595 0.21809 0.91095 0.0
C2095 C 0.68403 0.22549 0.90477 0.0
H2096 H 0.78515 0.60888 0.8198 0.0
H2097 H 0.71734 0.61968 0.84723 0.0
H2098 H 0.73027 0.65491 0.866 0.0
H2099 H 0.75918 0.68574 0.86873 0.0
H2100 H 0.82711 0.67439 0.84165 0.0
H2101 H 0.81591 0.63616 0.82875 0.0
C2102 C 0.77344 0.6186 0.83051 0.0
C2103 C 0.75034 0.61197 0.83198 0.0
C2104 C 0.7809 0.63894 0.8409 0.0
C2105 C 0.73526 0.62448 0.84597 0.0
C2106 C 0.74257 0.64477 0.85644 0.0
C2107 C 0.77159 0.67469 0.86037 0.0
C2108 C 0.79375 0.68294 0.85567 0.0
C2109 C 0.76506 0.65268 0.85309 0.0
C2110 C 0.80988 0.66841 0.84525 0.0
C2111 C 0.80348 0.6466 0.83782 0.0
H2112 H 0.67078 0.73272 0.07881 0.0
H2113 H 0.70424 0.66728 0.08711 0.0
H2114 H 0.67284 0.65416 0.1116 0.0
H2115 H 0.64248 0.66528 0.13839 0.0
H2116 H 0.61407 0.73346 0.13541 0.0
H2117 H 0.63639 0.7415 0.10086 0.0
C2118 C 0.6708 0.71528 0.08528 0.0
C2119 C 0.69 0.70113 0.0816 0.0
C2120 C 0.6537 0.70859 0.10075 0.0
C2121 C 0.68975 0.67855 0.08996 0.0
C2122 C 0.6719 0.67115 0.10414 0.0
C2123 C 0.64048 0.68155 0.12959 0.0
C2124 C 0.62688 0.69887 0.1394 0.0
C2125 C 0.6547 0.6866 0.11089 0.0
C2126 C 0.62456 0.71997 0.12811 0.0
C2127 C 0.63747 0.72459 0.1085 0.0
H2128 H 0.24608 0.57814 0.22014 0.0
H2129 H 0.18179 0.59478 0.2528 0.0
H2130 H 0.16623 0.60766 0.21608 0.0
H2131 H 0.17329 0.62019 0.17668 0.0
H2132 H 0.23921 0.60784 0.14541 0.0
H2133 H 0.25162 0.58672 0.17942 0.0
C2134 C 0.22847 0.58407 0.21913 0.0
C2135 C 0.21514 0.58574 0.23917 0.0
C2136 C 0.22003 0.59236 0.19821 0.0
C2137 C 0.19241 0.5935 0.23762 0.0
C2138 C 0.18355 0.60093 0.21665 0.0
C2139 C 0.19013 0.61227 0.17701 0.0
C2140 C 0.20539 0.61565 0.15863 0.0
C2141 C 0.19754 0.60131 0.19707 0.0
C2142 C 0.2272 0.60549 0.15938 0.0
C2143 C 0.23435 0.59358 0.17889 0.0
H2144 H 0.80301 0.39181 0.1747 0.0
H2145 H 0.73282 0.38015 0.15465 0.0
H2146 H 0.74537 0.35305 0.12526 0.0
H2147 H 0.77564 0.3268 0.11176 0.0
H2148 H 0.84593 0.3393 0.13119 0.0
H2149 H 0.83415 0.37243 0.15378 0.0
C2150 C 0.7906 0.38393 0.1633 0.0
C2151 C 0.7671 0.38753 0.16697 0.0
C2152 C 0.79794 0.36834 0.14654 0.0
C2153 C 0.75104 0.37753 0.15207 0.0
C2154 C 0.75819 0.36188 0.13542 0.0
C2155 C 0.78842 0.33731 0.12026 0.0
C2156 C 0.81149 0.33037 0.1203 0.0
C2157 C 0.7815 0.35624 0.13341 0.0
C2158 C 0.82801 0.34424 0.13106 0.0
C2159 C 0.82127 0.36307 0.14419 0.0
loop_
_geom_bond_atom_site_label_1
_geom_bond_atom_site_label_2
_geom_bond_distance
_geom_bond_site_symmetry_2
_ccdc_geom_bond_type
In0 O1 2.294 . S
In0 O2 2.326 . S
In0 O6 2.266 . S
In0 O7 2.326 . S
In0 O8 2.266 . S
In0 O9 2.326 . S
In0 O11 2.294 . S
In0 O12 2.326 . S
O1 In0 2.294 . S
O1 C10 1.240 . S
O2 In0 2.326 . S
O2 C10 1.252 . S
C3 O6 1.252 . S
C3 O7 1.260 . S
C4 O11 1.240 . S
C4 O12 1.252 . S
C5 O8 1.252 . S
C5 O9 1.260 . S
O6 In0 2.266 . S
O6 C3 1.252 . S
O7 In0 2.326 . S
O7 C3 1.260 . S
O8 In0 2.266 . S
O8 C5 1.252 . S
O9 In0 2.326 . S
O9 C5 1.260 . S
C10 O1 1.240 . S
C10 O2 1.252 . S
O11 In0 2.294 . S
O11 C4 1.240 . S
O12 In0 2.326 . S
O12 C4 1.252 . S
In13 O14 2.294 . S
In13 O15 2.326 . S
In13 O19 2.266 . S
In13 O20 2.326 . S
In13 O21 2.266 . S
In13 O22 2.326 . S
In13 O24 2.294 . S
In13 O25 2.326 . S
O14 In13 2.294 . S
O14 C23 1.240 . S
O15 In13 2.326 . S
O15 C23 1.252 . S
C16 O19 1.252 . S
C16 O20 1.260 . S
C17 O24 1.240 . S
C17 O25 1.252 . S
C18 O21 1.252 . S
C18 O22 1.260 . S
O19 In13 2.266 . S
O19 C16 1.252 . S
O20 In13 2.326 . S
O20 C16 1.260 . S
O21 In13 2.266 . S
O21 C18 1.252 . S
O22 In13 2.326 . S
O22 C18 1.260 . S
C23 O14 1.240 . S
C23 O15 1.252 . S
O24 In13 2.294 . S
O24 C17 1.240 . S
O25 In13 2.326 . S
O25 C17 1.252 . S
In26 O27 2.294 . S
In26 O28 2.326 . S
In26 O32 2.266 . S
In26 O33 2.326 . S
In26 O34 2.266 . S
In26 O35 2.326 . S
In26 O37 2.294 . S
In26 O38 2.326 . S
O27 In26 2.294 . S
O27 C36 1.240 . S
O28 In26 2.326 . S
O28 C36 1.252 . S
C29 O32 1.252 . S
C29 O33 1.260 . S
C30 O37 1.240 . S
C30 O38 1.252 . S
C31 O34 1.252 . S
C31 O35 1.260 . S
O32 In26 2.266 . S
O32 C29 1.252 . S
O33 In26 2.326 . S
O33 C29 1.260 . S
O34 In26 2.266 . S
O34 C31 1.252 . S
O35 In26 2.326 . S
O35 C31 1.260 . S
C36 O27 1.240 . S
C36 O28 1.252 . S
O37 In26 2.294 . S
O37 C30 1.240 . S
O38 In26 2.326 . S
O38 C30 1.252 . S
In39 O40 2.294 . S
In39 O41 2.326 . S
In39 O45 2.266 . S
In39 O46 2.326 . S
In39 O47 2.266 . S
In39 O48 2.326 . S
In39 O50 2.294 . S
In39 O51 2.326 . S
O40 In39 2.294 . S
O40 C49 1.240 . S
O41 In39 2.326 . S
O41 C49 1.252 . S
C42 O45 1.252 . S
C42 O46 1.260 . S
C43 O50 1.240 . S
C43 O51 1.252 . S
C44 O47 1.252 . S
C44 O48 1.260 . S
O45 In39 2.266 . S
O45 C42 1.252 . S
O46 In39 2.326 . S
O46 C42 1.260 . S
O47 In39 2.266 . S
O47 C44 1.252 . S
O48 In39 2.326 . S
O48 C44 1.260 . S
C49 O40 1.240 . S
C49 O41 1.252 . S
O50 In39 2.294 . S
O50 C43 1.240 . S
O51 In39 2.326 . S
O51 C43 1.252 . S
In52 O53 2.294 . S
In52 O54 2.326 . S
In52 O58 2.266 . S
In52 O59 2.326 . S
In52 O60 2.266 . S
In52 O61 2.326 . S
In52 O63 2.294 . S
In52 O64 2.326 . S
O53 In52 2.294 . S
O53 C62 1.240 . S
O54 In52 2.326 . S
O54 C62 1.252 . S
C55 O58 1.252 . S
C55 O59 1.260 . S
C56 O63 1.240 . S
C56 O64 1.252 . S
C57 O60 1.252 . S
C57 O61 1.260 . S
O58 In52 2.266 . S
O58 C55 1.252 . S
O59 In52 2.326 . S
O59 C55 1.260 . S
O60 In52 2.266 . S
O60 C57 1.252 . S
O61 In52 2.326 . S
O61 C57 1.260 . S
C62 O53 1.240 . S
C62 O54 1.252 . S
O63 In52 2.294 . S
O63 C56 1.240 . S
O64 In52 2.326 . S
O64 C56 1.252 . S
In65 O66 2.294 . S
In65 O67 2.326 . S
In65 O71 2.266 . S
In65 O72 2.326 . S
In65 O73 2.266 . S
In65 O74 2.326 . S
In65 O76 2.294 . S
In65 O77 2.326 . S
O66 In65 2.294 . S
O66 C75 1.240 . S
O67 In65 2.326 . S
O67 C75 1.252 . S
C68 O71 1.252 . S
C68 O72 1.260 . S
C69 O76 1.240 . S
C69 O77 1.252 . S
C70 O73 1.252 . S
C70 O74 1.260 . S
O71 In65 2.266 . S
O71 C68 1.252 . S
O72 In65 2.326 . S
O72 C68 1.260 . S
O73 In65 2.266 . S
O73 C70 1.252 . S
O74 In65 2.326 . S
O74 C70 1.260 . S
C75 O66 1.240 . S
C75 O67 1.252 . S
O76 In65 2.294 . S
O76 C69 1.240 . S
O77 In65 2.326 . S
O77 C69 1.252 . S
In78 O79 2.294 . S
In78 O80 2.326 . S
In78 O84 2.266 . S
In78 O85 2.326 . S
In78 O86 2.266 . S
In78 O87 2.326 . S
In78 O89 2.294 . S
In78 O90 2.326 . S
O79 In78 2.294 . S
O79 C88 1.240 . S
O80 In78 2.326 . S
O80 C88 1.252 . S
C81 O84 1.252 . S
C81 O85 1.260 . S
C82 O89 1.240 . S
C82 O90 1.252 . S
C83 O86 1.252 . S
C83 O87 1.260 . S
O84 In78 2.266 . S
O84 C81 1.252 . S
O85 In78 2.326 . S
O85 C81 1.260 . S
O86 In78 2.266 . S
O86 C83 1.252 . S
O87 In78 2.326 . S
O87 C83 1.260 . S
C88 O79 1.240 . S
C88 O80 1.252 . S
O89 In78 2.294 . S
O89 C82 1.240 . S
O90 In78 2.326 . S
O90 C82 1.252 . S
In91 O92 2.294 . S
In91 O93 2.326 . S
In91 O97 2.266 . S
In91 O98 2.326 . S
In91 O99 2.266 . S
In91 O100 2.326 . S
In91 O102 2.294 . S
In91 O103 2.326 . S
O92 In91 2.294 . S
O92 C101 1.240 . S
O93 In91 2.326 . S
O93 C101 1.252 . S
C94 O97 1.252 . S
C94 O98 1.260 . S
C95 O102 1.240 . S
C95 O103 1.252 . S
C96 O99 1.252 . S
C96 O100 1.260 . S
O97 In91 2.266 . S
O97 C94 1.252 . S
O98 In91 2.326 . S
O98 C94 1.260 . S
O99 In91 2.266 . S
O99 C96 1.252 . S
O100 In91 2.326 . S
O100 C96 1.260 . S
C101 O92 1.240 . S
C101 O93 1.252 . S
O102 In91 2.294 . S
O102 C95 1.240 . S
O103 In91 2.326 . S
O103 C95 1.252 . S
In104 O105 2.294 . S
In104 O106 2.326 . S
In104 O110 2.266 . S
In104 O111 2.326 . S
In104 O112 2.266 . S
In104 O113 2.326 . S
In104 O115 2.294 . S
In104 O116 2.326 . S
O105 In104 2.294 . S
O105 C114 1.240 . S
O106 In104 2.326 . S
O106 C114 1.252 . S
C107 O110 1.252 . S
C107 O111 1.260 . S
C108 O115 1.240 . S
C108 O116 1.252 . S
C109 O112 1.252 . S
C109 O113 1.260 . S
O110 In104 2.266 . S
O110 C107 1.252 . S
O111 In104 2.326 . S
O111 C107 1.260 . S
O112 In104 2.266 . S
O112 C109 1.252 . S
O113 In104 2.326 . S
O113 C109 1.260 . S
C114 O105 1.240 . S
C114 O106 1.252 . S
O115 In104 2.294 . S
O115 C108 1.240 . S
O116 In104 2.326 . S
O116 C108 1.252 . S
In117 O118 2.294 . S
In117 O119 2.326 . S
In117 O123 2.266 . S
In117 O124 2.326 . S
In117 O125 2.266 . S
In117 O126 2.326 . S
In117 O128 2.294 . S
In117 O129 2.326 . S
O118 In117 2.294 . S
O118 C127 1.240 . S
O119 In117 2.326 . S
O119 C127 1.252 . S
C120 O123 1.252 . S
C120 O124 1.260 . S
C121 O128 1.240 . S
C121 O129 1.252 . S
C122 O125 1.252 . S
C122 O126 1.260 . S
O123 In117 2.266 . S
O123 C120 1.252 . S
O124 In117 2.326 . S
O124 C120 1.260 . S
O125 In117 2.266 . S
O125 C122 1.252 . S
O126 In117 2.326 . S
O126 C122 1.260 . S
C127 O118 1.240 . S
C127 O119 1.252 . S
O128 In117 2.294 . S
O128 C121 1.240 . S
O129 In117 2.326 . S
O129 C121 1.252 . S
In130 O131 2.294 . S
In130 O132 2.326 . S
In130 O136 2.266 . S
In130 O137 2.326 . S
In130 O138 2.266 . S
In130 O139 2.326 . S
In130 O141 2.294 . S
In130 O142 2.326 . S
O131 In130 2.294 . S
O131 C140 1.240 . S
O132 In130 2.326 . S
O132 C140 1.252 . S
C133 O136 1.252 . S
C133 O137 1.260 . S
C134 O141 1.240 . S
C134 O142 1.252 . S
C135 O138 1.252 . S
C135 O139 1.260 . S
O136 In130 2.266 . S
O136 C133 1.252 . S
O137 In130 2.326 . S
O137 C133 1.260 . S
O138 In130 2.266 . S
O138 C135 1.252 . S
O139 In130 2.326 . S
O139 C135 1.260 . S
C140 O131 1.240 . S
C140 O132 1.252 . S
O141 In130 2.294 . S
O141 C134 1.240 . S
O142 In130 2.326 . S
O142 C134 1.252 . S
In143 O144 2.294 . S
In143 O145 2.326 . S
In143 O149 2.266 . S
In143 O150 2.326 . S
In143 O151 2.266 . S
In143 O152 2.326 . S
In143 O154 2.294 . S
In143 O155 2.326 . S
O144 In143 2.294 . S
O144 C153 1.240 . S
O145 In143 2.326 . S
O145 C153 1.252 . S
C146 O149 1.252 . S
C146 O150 1.260 . S
C147 O154 1.240 . S
C147 O155 1.252 . S
C148 O151 1.252 . S
C148 O152 1.260 . S
O149 In143 2.266 . S
O149 C146 1.252 . S
O150 In143 2.326 . S
O150 C146 1.260 . S
O151 In143 2.266 . S
O151 C148 1.252 . S
O152 In143 2.326 . S
O152 C148 1.260 . S
C153 O144 1.240 . S
C153 O145 1.252 . S
O154 In143 2.294 . S
O154 C147 1.240 . S
O155 In143 2.326 . S
O155 C147 1.252 . S
In156 O157 2.294 . S
In156 O158 2.326 . S
In156 O162 2.266 . S
In156 O163 2.326 . S
In156 O164 2.266 . S
In156 O165 2.326 . S
In156 O167 2.294 . S
In156 O168 2.326 . S
O157 In156 2.294 . S
O157 C166 1.240 . S
O158 In156 2.326 . S
O158 C166 1.252 . S
C159 O162 1.252 . S
C159 O163 1.260 . S
C160 O167 1.240 . S
C160 O168 1.252 . S
C161 O164 1.252 . S
C161 O165 1.260 . S
O162 In156 2.266 . S
O162 C159 1.252 . S
O163 In156 2.326 . S
O163 C159 1.260 . S
O164 In156 2.266 . S
O164 C161 1.252 . S
O165 In156 2.326 . S
O165 C161 1.260 . S
C166 O157 1.240 . S
C166 O158 1.252 . S
O167 In156 2.294 . S
O167 C160 1.240 . S
O168 In156 2.326 . S
O168 C160 1.252 . S
In169 O170 2.294 . S
In169 O171 2.326 . S
In169 O175 2.266 . S
In169 O176 2.326 . S
In169 O177 2.266 . S
In169 O178 2.326 . S
In169 O180 2.294 . S
In169 O181 2.326 . S
O170 In169 2.294 . S
O170 C179 1.240 . S
O171 In169 2.326 . S
O171 C179 1.252 . S
C172 O175 1.252 . S
C172 O176 1.260 . S
C173 O180 1.240 . S
C173 O181 1.252 . S
C174 O177 1.252 . S
C174 O178 1.260 . S
O175 In169 2.266 . S
O175 C172 1.252 . S
O176 In169 2.326 . S
O176 C172 1.260 . S
O177 In169 2.266 . S
O177 C174 1.252 . S
O178 In169 2.326 . S
O178 C174 1.260 . S
C179 O170 1.240 . S
C179 O171 1.252 . S
O180 In169 2.294 . S
O180 C173 1.240 . S
O181 In169 2.326 . S
O181 C173 1.252 . S
In182 O183 2.294 . S
In182 O184 2.326 . S
In182 O188 2.266 . S
In182 O189 2.326 . S
In182 O190 2.266 . S
In182 O191 2.326 . S
In182 O193 2.294 . S
In182 O194 2.326 . S
O183 In182 2.294 . S
O183 C192 1.240 . S
O184 In182 2.326 . S
O184 C192 1.252 . S
C185 O188 1.252 . S
C185 O189 1.260 . S
C186 O193 1.240 . S
C186 O194 1.252 . S
C187 O190 1.252 . S
C187 O191 1.260 . S
O188 In182 2.266 . S
O188 C185 1.252 . S
O189 In182 2.326 . S
O189 C185 1.260 . S
O190 In182 2.266 . S
O190 C187 1.252 . S
O191 In182 2.326 . S
O191 C187 1.260 . S
C192 O183 1.240 . S
C192 O184 1.252 . S
O193 In182 2.294 . S
O193 C186 1.240 . S
O194 In182 2.326 . S
O194 C186 1.252 . S
In195 O196 2.294 . S
In195 O197 2.326 . S
In195 O201 2.266 . S
In195 O202 2.326 . S
In195 O203 2.266 . S
In195 O204 2.326 . S
In195 O206 2.294 . S
In195 O207 2.326 . S
O196 In195 2.294 . S
O196 C205 1.240 . S
O197 In195 2.326 . S
O197 C205 1.252 . S
C198 O201 1.252 . S
C198 O202 1.260 . S
C199 O206 1.240 . S
C199 O207 1.252 . S
C200 O203 1.252 . S
C200 O204 1.260 . S
O201 In195 2.266 . S
O201 C198 1.252 . S
O202 In195 2.326 . S
O202 C198 1.260 . S
O203 In195 2.266 . S
O203 C200 1.252 . S
O204 In195 2.326 . S
O204 C200 1.260 . S
C205 O196 1.240 . S
C205 O197 1.252 . S
O206 In195 2.294 . S
O206 C199 1.240 . S
O207 In195 2.326 . S
O207 C199 1.252 . S
In208 O209 2.294 . S
In208 O210 2.326 . S
In208 O214 2.266 . S
In208 O215 2.326 . S
In208 O216 2.266 . S
In208 O217 2.326 . S
In208 O219 2.294 . S
In208 O220 2.326 . S
O209 In208 2.294 . S
O209 C218 1.240 . S
O210 In208 2.326 . S
O210 C218 1.252 . S
C211 O214 1.252 . S
C211 O215 1.260 . S
C212 O219 1.240 . S
C212 O220 1.252 . S
C213 O216 1.252 . S
C213 O217 1.260 . S
O214 In208 2.266 . S
O214 C211 1.252 . S
O215 In208 2.326 . S
O215 C211 1.260 . S
O216 In208 2.266 . S
O216 C213 1.252 . S
O217 In208 2.326 . S
O217 C213 1.260 . S
C218 O209 1.240 . S
C218 O210 1.252 . S
O219 In208 2.294 . S
O219 C212 1.240 . S
O220 In208 2.326 . S
O220 C212 1.252 . S
In221 O222 2.294 . S
In221 O223 2.326 . S
In221 O227 2.266 . S
In221 O228 2.326 . S
In221 O229 2.266 . S
In221 O230 2.326 . S
In221 O232 2.294 . S
In221 O233 2.326 . S
O222 In221 2.294 . S
O222 C231 1.240 . S
O223 In221 2.326 . S
O223 C231 1.252 . S
C224 O227 1.252 . S
C224 O228 1.260 . S
C225 O232 1.240 . S
C225 O233 1.252 . S
C226 O229 1.252 . S
C226 O230 1.260 . S
O227 In221 2.266 . S
O227 C224 1.252 . S
O228 In221 2.326 . S
O228 C224 1.260 . S
O229 In221 2.266 . S
O229 C226 1.252 . S
O230 In221 2.326 . S
O230 C226 1.260 . S
C231 O222 1.240 . S
C231 O223 1.252 . S
O232 In221 2.294 . S
O232 C225 1.240 . S
O233 In221 2.326 . S
O233 C225 1.252 . S
In234 O235 2.294 . S
In234 O236 2.326 . S
In234 O240 2.266 . S
In234 O241 2.326 . S
In234 O242 2.266 . S
In234 O243 2.326 . S
In234 O245 2.294 . S
In234 O246 2.326 . S
O235 In234 2.294 . S
O235 C244 1.240 . S
O236 In234 2.326 . S
O236 C244 1.252 . S
C237 O240 1.252 . S
C237 O241 1.260 . S
C238 O245 1.240 . S
C238 O246 1.252 . S
C239 O242 1.252 . S
C239 O243 1.260 . S
O240 In234 2.266 . S
O240 C237 1.252 . S
O241 In234 2.326 . S
O241 C237 1.260 . S
O242 In234 2.266 . S
O242 C239 1.252 . S
O243 In234 2.326 . S
O243 C239 1.260 . S
C244 O235 1.240 . S
C244 O236 1.252 . S
O245 In234 2.294 . S
O245 C238 1.240 . S
O246 In234 2.326 . S
O246 C238 1.252 . S
In247 O248 2.294 . S
In247 O249 2.326 . S
In247 O253 2.266 . S
In247 O254 2.326 . S
In247 O255 2.266 . S
In247 O256 2.326 . S
In247 O258 2.294 . S
In247 O259 2.326 . S
O248 In247 2.294 . S
O248 C257 1.240 . S
O249 In247 2.326 . S
O249 C257 1.252 . S
C250 O253 1.252 . S
C250 O254 1.260 . S
C251 O258 1.240 . S
C251 O259 1.252 . S
C252 O255 1.252 . S
C252 O256 1.260 . S
O253 In247 2.266 . S
O253 C250 1.252 . S
O254 In247 2.326 . S
O254 C250 1.260 . S
O255 In247 2.266 . S
O255 C252 1.252 . S
O256 In247 2.326 . S
O256 C252 1.260 . S
C257 O248 1.240 . S
C257 O249 1.252 . S
O258 In247 2.294 . S
O258 C251 1.240 . S
O259 In247 2.326 . S
O259 C251 1.252 . S
In260 O261 2.294 . S
In260 O262 2.326 . S
In260 O266 2.266 . S
In260 O267 2.326 . S
In260 O268 2.266 . S
In260 O269 2.326 . S
In260 O271 2.294 . S
In260 O272 2.326 . S
O261 In260 2.294 . S
O261 C270 1.240 . S
O262 In260 2.326 . S
O262 C270 1.252 . S
C263 O266 1.252 . S
C263 O267 1.260 . S
C264 O271 1.240 . S
C264 O272 1.252 . S
C265 O268 1.252 . S
C265 O269 1.260 . S
O266 In260 2.266 . S
O266 C263 1.252 . S
O267 In260 2.326 . S
O267 C263 1.260 . S
O268 In260 2.266 . S
O268 C265 1.252 . S
O269 In260 2.326 . S
O269 C265 1.260 . S
C270 O261 1.240 . S
C270 O262 1.252 . S
O271 In260 2.294 . S
O271 C264 1.240 . S
O272 In260 2.326 . S
O272 C264 1.252 . S
In273 O274 2.294 . S
In273 O275 2.326 . S
In273 O279 2.266 . S
In273 O280 2.326 . S
In273 O281 2.266 . S
In273 O282 2.326 . S
In273 O284 2.294 . S
In273 O285 2.326 . S
O274 In273 2.294 . S
O274 C283 1.240 . S
O275 In273 2.326 . S
O275 C283 1.252 . S
C276 O279 1.252 . S
C276 O280 1.260 . S
C277 O284 1.240 . S
C277 O285 1.252 . S
C278 O281 1.252 . S
C278 O282 1.260 . S
O279 In273 2.266 . S
O279 C276 1.252 . S
O280 In273 2.326 . S
O280 C276 1.260 . S
O281 In273 2.266 . S
O281 C278 1.252 . S
O282 In273 2.326 . S
O282 C278 1.260 . S
C283 O274 1.240 . S
C283 O275 1.252 . S
O284 In273 2.294 . S
O284 C277 1.240 . S
O285 In273 2.326 . S
O285 C277 1.252 . S
In286 O287 2.294 . S
In286 O288 2.326 . S
In286 O292 2.266 . S
In286 O293 2.326 . S
In286 O294 2.266 . S
In286 O295 2.326 . S
In286 O297 2.294 . S
In286 O298 2.326 . S
O287 In286 2.294 . S
O287 C296 1.240 . S
O288 In286 2.326 . S
O288 C296 1.252 . S
C289 O292 1.252 . S
C289 O293 1.260 . S
C290 O297 1.240 . S
C290 O298 1.252 . S
C291 O294 1.252 . S
C291 O295 1.260 . S
O292 In286 2.266 . S
O292 C289 1.252 . S
O293 In286 2.326 . S
O293 C289 1.260 . S
O294 In286 2.266 . S
O294 C291 1.252 . S
O295 In286 2.326 . S
O295 C291 1.260 . S
C296 O287 1.240 . S
C296 O288 1.252 . S
O297 In286 2.294 . S
O297 C290 1.240 . S
O298 In286 2.326 . S
O298 C290 1.252 . S
In299 O300 2.294 . S
In299 O301 2.326 . S
In299 O305 2.266 . S
In299 O306 2.326 . S
In299 O307 2.266 . S
In299 O308 2.326 . S
In299 O310 2.294 . S
In299 O311 2.326 . S
O300 In299 2.294 . S
O300 C309 1.240 . S
O301 In299 2.326 . S
O301 C309 1.252 . S
C302 O305 1.252 . S
C302 O306 1.260 . S
C303 O310 1.240 . S
C303 O311 1.252 . S
C304 O307 1.252 . S
C304 O308 1.260 . S
O305 In299 2.266 . S
O305 C302 1.252 . S
O306 In299 2.326 . S
O306 C302 1.260 . S
O307 In299 2.266 . S
O307 C304 1.252 . S
O308 In299 2.326 . S
O308 C304 1.260 . S
C309 O300 1.240 . S
C309 O301 1.252 . S
O310 In299 2.294 . S
O310 C303 1.240 . S
O311 In299 2.326 . S
O311 C303 1.252 . S
In312 O313 2.294 . S
In312 O314 2.326 . S
In312 O318 2.266 . S
In312 O319 2.326 . S
In312 O320 2.266 . S
In312 O321 2.326 . S
In312 O323 2.294 . S
In312 O324 2.326 . S
O313 In312 2.294 . S
O313 C322 1.240 . S
O314 In312 2.326 . S
O314 C322 1.252 . S
C315 O318 1.252 . S
C315 O319 1.260 . S
C316 O323 1.240 . S
C316 O324 1.252 . S
C317 O320 1.252 . S
C317 O321 1.260 . S
O318 In312 2.266 . S
O318 C315 1.252 . S
O319 In312 2.326 . S
O319 C315 1.260 . S
O320 In312 2.266 . S
O320 C317 1.252 . S
O321 In312 2.326 . S
O321 C317 1.260 . S
C322 O313 1.240 . S
C322 O314 1.252 . S
O323 In312 2.294 . S
O323 C316 1.240 . S
O324 In312 2.326 . S
O324 C316 1.252 . S
In325 O326 2.294 . S
In325 O327 2.326 . S
In325 O331 2.266 . S
In325 O332 2.326 . S
In325 O333 2.266 . S
In325 O334 2.326 . S
In325 O336 2.294 . S
In325 O337 2.326 . S
O326 In325 2.294 . S
O326 C335 1.240 . S
O327 In325 2.326 . S
O327 C335 1.252 . S
C328 O331 1.252 . S
C328 O332 1.260 . S
C329 O336 1.240 . S
C329 O337 1.252 . S
C330 O333 1.252 . S
C330 O334 1.260 . S
O331 In325 2.266 . S
O331 C328 1.252 . S
O332 In325 2.326 . S
O332 C328 1.260 . S
O333 In325 2.266 . S
O333 C330 1.252 . S
O334 In325 2.326 . S
O334 C330 1.260 . S
C335 O326 1.240 . S
C335 O327 1.252 . S
O336 In325 2.294 . S
O336 C329 1.240 . S
O337 In325 2.326 . S
O337 C329 1.252 . S
In338 O339 2.294 . S
In338 O340 2.326 . S
In338 O344 2.266 . S
In338 O345 2.326 . S
In338 O346 2.266 . S
In338 O347 2.326 . S
In338 O349 2.294 . S
In338 O350 2.326 . S
O339 In338 2.294 . S
O339 C348 1.240 . S
O340 In338 2.326 . S
O340 C348 1.252 . S
C341 O344 1.252 . S
C341 O345 1.260 . S
C342 O349 1.240 . S
C342 O350 1.252 . S
C343 O346 1.252 . S
C343 O347 1.260 . S
O344 In338 2.266 . S
O344 C341 1.252 . S
O345 In338 2.326 . S
O345 C341 1.260 . S
O346 In338 2.266 . S
O346 C343 1.252 . S
O347 In338 2.326 . S
O347 C343 1.260 . S
C348 O339 1.240 . S
C348 O340 1.252 . S
O349 In338 2.294 . S
O349 C342 1.240 . S
O350 In338 2.326 . S
O350 C342 1.252 . S
In351 O352 2.294 . S
In351 O353 2.326 . S
In351 O357 2.266 . S
In351 O358 2.326 . S
In351 O359 2.266 . S
In351 O360 2.326 . S
In351 O362 2.294 . S
In351 O363 2.326 . S
O352 In351 2.294 . S
O352 C361 1.240 . S
O353 In351 2.326 . S
O353 C361 1.252 . S
C354 O357 1.252 . S
C354 O358 1.260 . S
C355 O362 1.240 . S
C355 O363 1.252 . S
C356 O359 1.252 . S
C356 O360 1.260 . S
O357 In351 2.266 . S
O357 C354 1.252 . S
O358 In351 2.326 . S
O358 C354 1.260 . S
O359 In351 2.266 . S
O359 C356 1.252 . S
O360 In351 2.326 . S
O360 C356 1.260 . S
C361 O352 1.240 . S
C361 O353 1.252 . S
O362 In351 2.294 . S
O362 C355 1.240 . S
O363 In351 2.326 . S
O363 C355 1.252 . S
In364 O365 2.294 . S
In364 O366 2.326 . S
In364 O370 2.266 . S
In364 O371 2.326 . S
In364 O372 2.266 . S
In364 O373 2.326 . S
In364 O375 2.294 . S
In364 O376 2.326 . S
O365 In364 2.294 . S
O365 C374 1.240 . S
O366 In364 2.326 . S
O366 C374 1.252 . S
C367 O370 1.252 . S
C367 O371 1.260 . S
C368 O375 1.240 . S
C368 O376 1.252 . S
C369 O372 1.252 . S
C369 O373 1.260 . S
O370 In364 2.266 . S
O370 C367 1.252 . S
O371 In364 2.326 . S
O371 C367 1.260 . S
O372 In364 2.266 . S
O372 C369 1.252 . S
O373 In364 2.326 . S
O373 C369 1.260 . S
C374 O365 1.240 . S
C374 O366 1.252 . S
O375 In364 2.294 . S
O375 C368 1.240 . S
O376 In364 2.326 . S
O376 C368 1.252 . S
In377 O378 2.294 . S
In377 O379 2.326 . S
In377 O383 2.266 . S
In377 O384 2.326 . S
In377 O385 2.266 . S
In377 O386 2.326 . S
In377 O388 2.294 . S
In377 O389 2.326 . S
O378 In377 2.294 . S
O378 C387 1.240 . S
O379 In377 2.326 . S
O379 C387 1.252 . S
C380 O383 1.252 . S
C380 O384 1.260 . S
C381 O388 1.240 . S
C381 O389 1.252 . S
C382 O385 1.252 . S
C382 O386 1.260 . S
O383 In377 2.266 . S
O383 C380 1.252 . S
O384 In377 2.326 . S
O384 C380 1.260 . S
O385 In377 2.266 . S
O385 C382 1.252 . S
O386 In377 2.326 . S
O386 C382 1.260 . S
C387 O378 1.240 . S
C387 O379 1.252 . S
O388 In377 2.294 . S
O388 C381 1.240 . S
O389 In377 2.326 . S
O389 C381 1.252 . S
In390 O391 2.294 . S
In390 O392 2.326 . S
In390 O396 2.266 . S
In390 O397 2.326 . S
In390 O398 2.266 . S
In390 O399 2.326 . S
In390 O401 2.294 . S
In390 O402 2.326 . S
O391 In390 2.294 . S
O391 C400 1.240 . S
O392 In390 2.326 . S
O392 C400 1.252 . S
C393 O396 1.252 . S
C393 O397 1.260 . S
C394 O401 1.240 . S
C394 O402 1.252 . S
C395 O398 1.252 . S
C395 O399 1.260 . S
O396 In390 2.266 . S
O396 C393 1.252 . S
O397 In390 2.326 . S
O397 C393 1.260 . S
O398 In390 2.266 . S
O398 C395 1.252 . S
O399 In390 2.326 . S
O399 C395 1.260 . S
C400 O391 1.240 . S
C400 O392 1.252 . S
O401 In390 2.294 . S
O401 C394 1.240 . S
O402 In390 2.326 . S
O402 C394 1.252 . S
In403 O404 2.294 . S
In403 O405 2.326 . S
In403 O409 2.266 . S
In403 O410 2.326 . S
In403 O411 2.266 . S
In403 O412 2.326 . S
In403 O414 2.294 . S
In403 O415 2.326 . S
O404 In403 2.294 . S
O404 C413 1.240 . S
O405 In403 2.326 . S
O405 C413 1.252 . S
C406 O409 1.252 . S
C406 O410 1.260 . S
C407 O414 1.240 . S
C407 O415 1.252 . S
C408 O411 1.252 . S
C408 O412 1.260 . S
O409 In403 2.266 . S
O409 C406 1.252 . S
O410 In403 2.326 . S
O410 C406 1.260 . S
O411 In403 2.266 . S
O411 C408 1.252 . S
O412 In403 2.326 . S
O412 C408 1.260 . S
C413 O404 1.240 . S
C413 O405 1.252 . S
O414 In403 2.294 . S
O414 C407 1.240 . S
O415 In403 2.326 . S
O415 C407 1.252 . S
In416 O417 2.294 . S
In416 O418 2.326 . S
In416 O422 2.266 . S
In416 O423 2.326 . S
In416 O424 2.266 . S
In416 O425 2.326 . S
In416 O427 2.294 . S
In416 O428 2.326 . S
O417 In416 2.294 . S
O417 C426 1.240 . S
O418 In416 2.326 . S
O418 C426 1.252 . S
C419 O422 1.252 . S
C419 O423 1.260 . S
C420 O427 1.240 . S
C420 O428 1.252 . S
C421 O424 1.252 . S
C421 O425 1.260 . S
O422 In416 2.266 . S
O422 C419 1.252 . S
O423 In416 2.326 . S
O423 C419 1.260 . S
O424 In416 2.266 . S
O424 C421 1.252 . S
O425 In416 2.326 . S
O425 C421 1.260 . S
C426 O417 1.240 . S
C426 O418 1.252 . S
O427 In416 2.294 . S
O427 C420 1.240 . S
O428 In416 2.326 . S
O428 C420 1.252 . S
In429 O430 2.294 . S
In429 O431 2.326 . S
In429 O435 2.266 . S
In429 O436 2.326 . S
In429 O437 2.266 . S
In429 O438 2.326 . S
In429 O440 2.294 . S
In429 O441 2.326 . S
O430 In429 2.294 . S
O430 C439 1.240 . S
O431 In429 2.326 . S
O431 C439 1.252 . S
C432 O435 1.252 . S
C432 O436 1.260 . S
C433 O440 1.240 . S
C433 O441 1.252 . S
C434 O437 1.252 . S
C434 O438 1.260 . S
O435 In429 2.266 . S
O435 C432 1.252 . S
O436 In429 2.326 . S
O436 C432 1.260 . S
O437 In429 2.266 . S
O437 C434 1.252 . S
O438 In429 2.326 . S
O438 C434 1.260 . S
C439 O430 1.240 . S
C439 O431 1.252 . S
O440 In429 2.294 . S
O440 C433 1.240 . S
O441 In429 2.326 . S
O441 C433 1.252 . S
In442 O443 2.294 . S
In442 O444 2.326 . S
In442 O448 2.266 . S
In442 O449 2.326 . S
In442 O450 2.266 . S
In442 O451 2.326 . S
In442 O453 2.294 . S
In442 O454 2.326 . S
O443 In442 2.294 . S
O443 C452 1.240 . S
O444 In442 2.326 . S
O444 C452 1.252 . S
C445 O448 1.252 . S
C445 O449 1.260 . S
C446 O453 1.240 . S
C446 O454 1.252 . S
C447 O450 1.252 . S
C447 O451 1.260 . S
O448 In442 2.266 . S
O448 C445 1.252 . S
O449 In442 2.326 . S
O449 C445 1.260 . S
O450 In442 2.266 . S
O450 C447 1.252 . S
O451 In442 2.326 . S
O451 C447 1.260 . S
C452 O443 1.240 . S
C452 O444 1.252 . S
O453 In442 2.294 . S
O453 C446 1.240 . S
O454 In442 2.326 . S
O454 C446 1.252 . S
In455 O456 2.294 . S
In455 O457 2.326 . S
In455 O461 2.266 . S
In455 O462 2.326 . S
In455 O463 2.266 . S
In455 O464 2.326 . S
In455 O466 2.294 . S
In455 O467 2.326 . S
O456 In455 2.294 . S
O456 C465 1.240 . S
O457 In455 2.326 . S
O457 C465 1.252 . S
C458 O461 1.252 . S
C458 O462 1.260 . S
C459 O466 1.240 . S
C459 O467 1.252 . S
C460 O463 1.252 . S
C460 O464 1.260 . S
O461 In455 2.266 . S
O461 C458 1.252 . S
O462 In455 2.326 . S
O462 C458 1.260 . S
O463 In455 2.266 . S
O463 C460 1.252 . S
O464 In455 2.326 . S
O464 C460 1.260 . S
C465 O456 1.240 . S
C465 O457 1.252 . S
O466 In455 2.294 . S
O466 C459 1.240 . S
O467 In455 2.326 . S
O467 C459 1.252 . S
In468 O469 2.294 . S
In468 O470 2.326 . S
In468 O474 2.266 . S
In468 O475 2.326 . S
In468 O476 2.266 . S
In468 O477 2.326 . S
In468 O479 2.294 . S
In468 O480 2.326 . S
O469 In468 2.294 . S
O469 C478 1.240 . S
O470 In468 2.326 . S
O470 C478 1.252 . S
C471 O474 1.252 . S
C471 O475 1.260 . S
C472 O479 1.240 . S
C472 O480 1.252 . S
C473 O476 1.252 . S
C473 O477 1.260 . S
O474 In468 2.266 . S
O474 C471 1.252 . S
O475 In468 2.326 . S
O475 C471 1.260 . S
O476 In468 2.266 . S
O476 C473 1.252 . S
O477 In468 2.326 . S
O477 C473 1.260 . S
C478 O469 1.240 . S
C478 O470 1.252 . S
O479 In468 2.294 . S
O479 C472 1.240 . S
O480 In468 2.326 . S
O480 C472 1.252 . S
In481 O482 2.294 . S
In481 O483 2.326 . S
In481 O487 2.266 . S
In481 O488 2.326 . S
In481 O489 2.266 . S
In481 O490 2.326 . S
In481 O492 2.294 . S
In481 O493 2.326 . S
O482 In481 2.294 . S
O482 C491 1.240 . S
O483 In481 2.326 . S
O483 C491 1.252 . S
C484 O487 1.252 . S
C484 O488 1.260 . S
C485 O492 1.240 . S
C485 O493 1.252 . S
C486 O489 1.252 . S
C486 O490 1.260 . S
O487 In481 2.266 . S
O487 C484 1.252 . S
O488 In481 2.326 . S
O488 C484 1.260 . S
O489 In481 2.266 . S
O489 C486 1.252 . S
O490 In481 2.326 . S
O490 C486 1.260 . S
C491 O482 1.240 . S
C491 O483 1.252 . S
O492 In481 2.294 . S
O492 C485 1.240 . S
O493 In481 2.326 . S
O493 C485 1.252 . S
In494 O495 2.294 . S
In494 O496 2.326 . S
In494 O500 2.266 . S
In494 O501 2.326 . S
In494 O502 2.266 . S
In494 O503 2.326 . S
In494 O505 2.294 . S
In494 O506 2.326 . S
O495 In494 2.294 . S
O495 C504 1.240 . S
O496 In494 2.326 . S
O496 C504 1.252 . S
C497 O500 1.252 . S
C497 O501 1.260 . S
C498 O505 1.240 . S
C498 O506 1.252 . S
C499 O502 1.252 . S
C499 O503 1.260 . S
O500 In494 2.266 . S
O500 C497 1.252 . S
O501 In494 2.326 . S
O501 C497 1.260 . S
O502 In494 2.266 . S
O502 C499 1.252 . S
O503 In494 2.326 . S
O503 C499 1.260 . S
C504 O495 1.240 . S
C504 O496 1.252 . S
O505 In494 2.294 . S
O505 C498 1.240 . S
O506 In494 2.326 . S
O506 C498 1.252 . S
In507 O508 2.294 . S
In507 O509 2.326 . S
In507 O513 2.266 . S
In507 O514 2.326 . S
In507 O515 2.266 . S
In507 O516 2.326 . S
In507 O518 2.294 . S
In507 O519 2.326 . S
O508 In507 2.294 . S
O508 C517 1.240 . S
O509 In507 2.326 . S
O509 C517 1.252 . S
C510 O513 1.252 . S
C510 O514 1.260 . S
C511 O518 1.240 . S
C511 O519 1.252 . S
C512 O515 1.252 . S
C512 O516 1.260 . S
O513 In507 2.266 . S
O513 C510 1.252 . S
O514 In507 2.326 . S
O514 C510 1.260 . S
O515 In507 2.266 . S
O515 C512 1.252 . S
O516 In507 2.326 . S
O516 C512 1.260 . S
C517 O508 1.240 . S
C517 O509 1.252 . S
O518 In507 2.294 . S
O518 C511 1.240 . S
O519 In507 2.326 . S
O519 C511 1.252 . S
In520 O521 2.294 . S
In520 O522 2.326 . S
In520 O526 2.266 . S
In520 O527 2.326 . S
In520 O528 2.266 . S
In520 O529 2.326 . S
In520 O531 2.294 . S
In520 O532 2.326 . S
O521 In520 2.294 . S
O521 C530 1.240 . S
O522 In520 2.326 . S
O522 C530 1.252 . S
C523 O526 1.252 . S
C523 O527 1.260 . S
C524 O531 1.240 . S
C524 O532 1.252 . S
C525 O528 1.252 . S
C525 O529 1.260 . S
O526 In520 2.266 . S
O526 C523 1.252 . S
O527 In520 2.326 . S
O527 C523 1.260 . S
O528 In520 2.266 . S
O528 C525 1.252 . S
O529 In520 2.326 . S
O529 C525 1.260 . S
C530 O521 1.240 . S
C530 O522 1.252 . S
O531 In520 2.294 . S
O531 C524 1.240 . S
O532 In520 2.326 . S
O532 C524 1.252 . S
In533 O534 2.294 . S
In533 O535 2.326 . S
In533 O539 2.266 . S
In533 O540 2.326 . S
In533 O541 2.266 . S
In533 O542 2.326 . S
In533 O544 2.294 . S
In533 O545 2.326 . S
O534 In533 2.294 . S
O534 C543 1.240 . S
O535 In533 2.326 . S
O535 C543 1.252 . S
C536 O539 1.252 . S
C536 O540 1.260 . S
C537 O544 1.240 . S
C537 O545 1.252 . S
C538 O541 1.252 . S
C538 O542 1.260 . S
O539 In533 2.266 . S
O539 C536 1.252 . S
O540 In533 2.326 . S
O540 C536 1.260 . S
O541 In533 2.266 . S
O541 C538 1.252 . S
O542 In533 2.326 . S
O542 C538 1.260 . S
C543 O534 1.240 . S
C543 O535 1.252 . S
O544 In533 2.294 . S
O544 C537 1.240 . S
O545 In533 2.326 . S
O545 C537 1.252 . S
In546 O547 2.294 . S
In546 O548 2.326 . S
In546 O552 2.266 . S
In546 O553 2.326 . S
In546 O554 2.266 . S
In546 O555 2.326 . S
In546 O557 2.294 . S
In546 O558 2.326 . S
O547 In546 2.294 . S
O547 C556 1.240 . S
O548 In546 2.326 . S
O548 C556 1.252 . S
C549 O552 1.252 . S
C549 O553 1.260 . S
C550 O557 1.240 . S
C550 O558 1.252 . S
C551 O554 1.252 . S
C551 O555 1.260 . S
O552 In546 2.266 . S
O552 C549 1.252 . S
O553 In546 2.326 . S
O553 C549 1.260 . S
O554 In546 2.266 . S
O554 C551 1.252 . S
O555 In546 2.326 . S
O555 C551 1.260 . S
C556 O547 1.240 . S
C556 O548 1.252 . S
O557 In546 2.294 . S
O557 C550 1.240 . S
O558 In546 2.326 . S
O558 C550 1.252 . S
In559 O560 2.294 . S
In559 O561 2.326 . S
In559 O565 2.266 . S
In559 O566 2.326 . S
In559 O567 2.266 . S
In559 O568 2.326 . S
In559 O570 2.294 . S
In559 O571 2.326 . S
O560 In559 2.294 . S
O560 C569 1.240 . S
O561 In559 2.326 . S
O561 C569 1.252 . S
C562 O565 1.252 . S
C562 O566 1.260 . S
C563 O570 1.240 . S
C563 O571 1.252 . S
C564 O567 1.252 . S
C564 O568 1.260 . S
O565 In559 2.266 . S
O565 C562 1.252 . S
O566 In559 2.326 . S
O566 C562 1.260 . S
O567 In559 2.266 . S
O567 C564 1.252 . S
O568 In559 2.326 . S
O568 C564 1.260 . S
C569 O560 1.240 . S
C569 O561 1.252 . S
O570 In559 2.294 . S
O570 C563 1.240 . S
O571 In559 2.326 . S
O571 C563 1.252 . S
In572 O573 2.294 . S
In572 O574 2.326 . S
In572 O578 2.266 . S
In572 O579 2.326 . S
In572 O580 2.266 . S
In572 O581 2.326 . S
In572 O583 2.294 . S
In572 O584 2.326 . S
O573 In572 2.294 . S
O573 C582 1.240 . S
O574 In572 2.326 . S
O574 C582 1.252 . S
C575 O578 1.252 . S
C575 O579 1.260 . S
C576 O583 1.240 . S
C576 O584 1.252 . S
C577 O580 1.252 . S
C577 O581 1.260 . S
O578 In572 2.266 . S
O578 C575 1.252 . S
O579 In572 2.326 . S
O579 C575 1.260 . S
O580 In572 2.266 . S
O580 C577 1.252 . S
O581 In572 2.326 . S
O581 C577 1.260 . S
C582 O573 1.240 . S
C582 O574 1.252 . S
O583 In572 2.294 . S
O583 C576 1.240 . S
O584 In572 2.326 . S
O584 C576 1.252 . S
In585 O586 2.294 . S
In585 O587 2.326 . S
In585 O591 2.266 . S
In585 O592 2.326 . S
In585 O593 2.266 . S
In585 O594 2.326 . S
In585 O596 2.294 . S
In585 O597 2.326 . S
O586 In585 2.294 . S
O586 C595 1.240 . S
O587 In585 2.326 . S
O587 C595 1.252 . S
C588 O591 1.252 . S
C588 O592 1.260 . S
C589 O596 1.240 . S
C589 O597 1.252 . S
C590 O593 1.252 . S
C590 O594 1.260 . S
O591 In585 2.266 . S
O591 C588 1.252 . S
O592 In585 2.326 . S
O592 C588 1.260 . S
O593 In585 2.266 . S
O593 C590 1.252 . S
O594 In585 2.326 . S
O594 C590 1.260 . S
C595 O586 1.240 . S
C595 O587 1.252 . S
O596 In585 2.294 . S
O596 C589 1.240 . S
O597 In585 2.326 . S
O597 C589 1.252 . S
In598 O599 2.294 . S
In598 O600 2.326 . S
In598 O604 2.266 . S
In598 O605 2.326 . S
In598 O606 2.266 . S
In598 O607 2.326 . S
In598 O609 2.294 . S
In598 O610 2.326 . S
O599 In598 2.294 . S
O599 C608 1.240 . S
O600 In598 2.326 . S
O600 C608 1.252 . S
C601 O604 1.252 . S
C601 O605 1.260 . S
C602 O609 1.240 . S
C602 O610 1.252 . S
C603 O606 1.252 . S
C603 O607 1.260 . S
O604 In598 2.266 . S
O604 C601 1.252 . S
O605 In598 2.326 . S
O605 C601 1.260 . S
O606 In598 2.266 . S
O606 C603 1.252 . S
O607 In598 2.326 . S
O607 C603 1.260 . S
C608 O599 1.240 . S
C608 O600 1.252 . S
O609 In598 2.294 . S
O609 C602 1.240 . S
O610 In598 2.326 . S
O610 C602 1.252 . S
In611 O612 2.294 . S
In611 O613 2.326 . S
In611 O617 2.266 . S
In611 O618 2.326 . S
In611 O619 2.266 . S
In611 O620 2.326 . S
In611 O622 2.294 . S
In611 O623 2.326 . S
O612 In611 2.294 . S
O612 C621 1.240 . S
O613 In611 2.326 . S
O613 C621 1.252 . S
C614 O617 1.252 . S
C614 O618 1.260 . S
C615 O622 1.240 . S
C615 O623 1.252 . S
C616 O619 1.252 . S
C616 O620 1.260 . S
O617 In611 2.266 . S
O617 C614 1.252 . S
O618 In611 2.326 . S
O618 C614 1.260 . S
O619 In611 2.266 . S
O619 C616 1.252 . S
O620 In611 2.326 . S
O620 C616 1.260 . S
C621 O612 1.240 . S
C621 O613 1.252 . S
O622 In611 2.294 . S
O622 C615 1.240 . S
O623 In611 2.326 . S
O623 C615 1.252 . S
H624 C630 0.930 . S
H625 C633 0.930 . S
H626 C634 0.930 . S
H627 C635 0.930 . S
H628 C638 0.930 . S
H629 C639 0.930 . S
C630 H624 0.930 . S
C630 C631 1.355 . S
C630 C632 1.415 . S
C631 C630 1.355 . S
C631 C633 1.419 . S
C632 C630 1.415 . S
C632 C637 1.425 1_655 S
C632 C639 1.409 1_655 S
C633 H625 0.930 . S
C633 C631 1.419 . S
C633 C634 1.362 . S
C634 H626 0.930 . S
C634 C633 1.362 . S
C634 C637 1.409 1_655 S
C635 H627 0.930 . S
C635 C636 1.355 . S
C635 C637 1.415 . S
C636 C635 1.355 . S
C636 C638 1.419 . S
C637 C632 1.425 1_455 S
C637 C634 1.409 1_455 S
C637 C635 1.415 . S
C638 H628 0.930 . S
C638 C636 1.419 . S
C638 C639 1.362 . S
C639 H629 0.930 . S
C639 C632 1.409 1_455 S
C639 C638 1.362 . S
H640 C646 0.930 . S
H641 C649 0.930 . S
H642 C650 0.930 1_545 S
H643 C651 0.930 . S
H644 C654 0.930 . S
H645 C655 0.930 1_565 S
C646 H640 0.930 . S
C646 C647 1.355 . S
C646 C648 1.415 . S
C647 C646 1.355 . S
C647 C649 1.419 . S
C648 C646 1.415 . S
C648 C653 1.425 1_565 S
C648 C655 1.409 1_565 S
C649 H641 0.930 . S
C649 C647 1.419 . S
C649 C650 1.362 . S
C650 H642 0.930 1_565 S
C650 C649 1.362 . S
C650 C653 1.409 1_565 S
C651 H643 0.930 . S
C651 C652 1.355 . S
C651 C653 1.415 . S
C652 C651 1.355 . S
C652 C654 1.419 . S
C653 C648 1.425 1_545 S
C653 C650 1.409 1_545 S
C653 C651 1.415 . S
C654 H644 0.930 . S
C654 C652 1.419 . S
C654 C655 1.362 . S
C655 H645 0.930 1_545 S
C655 C648 1.409 1_545 S
C655 C654 1.362 . S
H656 C662 0.930 . S
H657 C665 0.930 . S
H658 C666 0.930 . S
H659 C667 0.930 . S
H660 C670 0.930 . S
H661 C671 0.930 . S
C662 H656 0.930 . S
C662 C663 1.355 . S
C662 C664 1.415 . S
C663 C662 1.355 . S
C663 C665 1.419 . S
C664 C662 1.415 . S
C664 C669 1.425 1_455 S
C664 C671 1.409 . S
C665 H657 0.930 . S
C665 C663 1.419 . S
C665 C666 1.362 1_455 S
C666 H658 0.930 . S
C666 C665 1.362 1_655 S
C666 C669 1.409 . S
C667 H659 0.930 . S
C667 C668 1.355 . S
C667 C669 1.415 . S
C668 C667 1.355 . S
C668 C670 1.419 . S
C669 C664 1.425 1_655 S
C669 C666 1.409 . S
C669 C667 1.415 . S
C670 H660 0.930 . S
C670 C668 1.419 . S
C670 C671 1.362 1_655 S
C671 H661 0.930 . S
C671 C664 1.409 . S
C671 C670 1.362 1_455 S
H672 C678 0.930 . S
H673 C681 0.930 . S
H674 C682 0.928 1_545 S
H675 C683 0.930 . S
H676 C686 0.930 . S
H677 C687 0.928 1_565 S
C678 H672 0.930 . S
C678 C679 1.355 . S
C678 C680 1.415 . S
C679 C678 1.355 . S
C679 C681 1.419 . S
C680 C678 1.415 . S
C680 C685 1.425 1_565 S
C680 C687 1.408 1_565 S
C681 H673 0.930 . S
C681 C679 1.419 . S
C681 C682 1.365 . S
C682 H674 0.928 1_565 S
C682 C681 1.365 . S
C682 C685 1.408 1_565 S
C683 H675 0.930 . S
C683 C684 1.355 . S
C683 C685 1.415 . S
C684 C683 1.355 . S
C684 C686 1.419 . S
C685 C680 1.425 1_545 S
C685 C682 1.408 1_545 S
C685 C683 1.415 . S
C686 H676 0.930 . S
C686 C684 1.419 . S
C686 C687 1.365 . S
C687 H677 0.928 1_545 S
C687 C680 1.408 1_545 S
C687 C686 1.365 . S
H688 C694 0.930 . S
H689 C697 0.930 . S
H690 C698 0.930 1_455 S
H691 C699 0.930 . S
H692 C702 0.930 . S
H693 C703 0.930 1_655 S
C694 H688 0.930 . S
C694 C695 1.355 . S
C694 C696 1.415 . S
C695 C694 1.355 . S
C695 C697 1.419 . S
C696 C694 1.415 . S
C696 C701 1.425 1_655 S
C696 C703 1.409 1_655 S
C697 H689 0.930 . S
C697 C695 1.419 . S
C697 C698 1.362 . S
C698 H690 0.930 1_655 S
C698 C697 1.362 . S
C698 C701 1.409 1_655 S
C699 H691 0.930 . S
C699 C700 1.355 . S
C699 C701 1.415 . S
C700 C699 1.355 . S
C700 C702 1.419 . S
C701 C696 1.425 1_455 S
C701 C698 1.409 1_455 S
C701 C699 1.415 . S
C702 H692 0.930 . S
C702 C700 1.419 . S
C702 C703 1.362 . S
C703 H693 0.930 1_455 S
C703 C696 1.409 1_455 S
C703 C702 1.362 . S
H704 C710 0.930 . S
H705 C713 0.930 . S
H706 C714 0.930 . S
H707 C715 0.930 . S
H708 C718 0.930 . S
H709 C719 0.930 . S
C710 H704 0.930 . S
C710 C711 1.355 . S
C710 C712 1.415 . S
C711 C710 1.355 . S
C711 C713 1.419 . S
C712 C710 1.415 . S
C712 C717 1.425 1_545 S
C712 C719 1.409 . S
C713 H705 0.930 . S
C713 C711 1.419 . S
C713 C714 1.362 1_545 S
C714 H706 0.930 . S
C714 C713 1.362 1_565 S
C714 C717 1.409 . S
C715 H707 0.930 . S
C715 C716 1.355 . S
C715 C717 1.415 . S
C716 C715 1.355 . S
C716 C718 1.419 . S
C717 C712 1.425 1_565 S
C717 C714 1.409 . S
C717 C715 1.415 . S
C718 H708 0.930 . S
C718 C716 1.419 . S
C718 C719 1.362 1_565 S
C719 H709 0.930 . S
C719 C712 1.409 . S
C719 C718 1.362 1_545 S
H720 C726 0.930 . S
H721 C729 0.930 . S
H722 C730 0.920 1_655 S
H723 C731 0.930 . S
H724 C734 0.930 . S
H725 C735 0.920 1_455 S
C726 H720 0.930 . S
C726 C727 1.355 . S
C726 C728 1.415 . S
C727 C726 1.355 . S
C727 C729 1.419 . S
C728 C726 1.415 . S
C728 C733 1.425 1_455 S
C728 C735 1.404 1_455 S
C729 H721 0.930 . S
C729 C727 1.419 . S
C729 C730 1.378 . S
C730 H722 0.920 1_455 S
C730 C729 1.378 . S
C730 C733 1.404 1_455 S
C731 H723 0.930 . S
C731 C732 1.355 . S
C731 C733 1.415 . S
C732 C731 1.355 . S
C732 C734 1.419 . S
C733 C728 1.425 1_655 S
C733 C730 1.404 1_655 S
C733 C731 1.415 . S
C734 H724 0.930 . S
C734 C732 1.419 . S
C734 C735 1.378 . S
C735 H725 0.920 1_655 S
C735 C728 1.404 1_655 S
C735 C734 1.378 . S
H736 C742 0.930 . S
H737 C745 0.930 . S
H738 C746 0.930 . S
H739 C747 0.930 . S
H740 C750 0.930 . S
H741 C751 0.930 . S
C742 H736 0.930 . S
C742 C743 1.355 . S
C742 C744 1.415 . S
C743 C742 1.355 . S
C743 C745 1.419 . S
C744 C742 1.415 . S
C744 C749 1.425 1_545 S
C744 C751 1.409 . S
C745 H737 0.930 . S
C745 C743 1.419 . S
C745 C746 1.362 1_545 S
C746 H738 0.930 . S
C746 C745 1.362 1_565 S
C746 C749 1.409 . S
C747 H739 0.930 . S
C747 C748 1.355 . S
C747 C749 1.415 . S
C748 C747 1.355 . S
C748 C750 1.419 . S
C749 C744 1.425 1_565 S
C749 C746 1.409 . S
C749 C747 1.415 . S
C750 H740 0.930 . S
C750 C748 1.419 . S
C750 C751 1.362 1_565 S
C751 H741 0.930 . S
C751 C744 1.409 . S
C751 C750 1.362 1_545 S
H752 C758 0.930 . S
H753 C761 0.930 . S
H754 C762 0.930 . S
H755 C763 0.930 . S
H756 C766 0.930 . S
H757 C767 0.930 . S
C758 H752 0.930 . S
C758 C759 1.355 . S
C758 C760 1.415 1_554 S
C759 C758 1.355 . S
C759 C761 1.419 . S
C760 C758 1.415 1_556 S
C760 C765 1.425 1_556 S
C760 C767 1.409 . S
C761 H753 0.930 . S
C761 C759 1.419 . S
C761 C762 1.362 . S
C762 H754 0.930 . S
C762 C761 1.362 . S
C762 C765 1.409 . S
C763 H755 0.930 . S
C763 C764 1.355 . S
C763 C765 1.415 1_556 S
C764 C763 1.355 . S
C764 C766 1.419 . S
C765 C760 1.425 1_554 S
C765 C762 1.409 . S
C765 C763 1.415 1_554 S
C766 H756 0.930 . S
C766 C764 1.419 . S
C766 C767 1.362 . S
C767 H757 0.930 . S
C767 C760 1.409 . S
C767 C766 1.362 . S
H768 C774 0.930 . S
H769 C777 0.930 . S
H770 C778 0.930 . S
H771 C779 0.930 . S
H772 C782 0.930 . S
H773 C783 0.930 . S
C774 H768 0.930 . S
C774 C775 1.355 . S
C774 C776 1.415 1_556 S
C775 C774 1.355 . S
C775 C777 1.419 . S
C776 C774 1.415 1_554 S
C776 C781 1.425 1_554 S
C776 C783 1.409 . S
C777 H769 0.930 . S
C777 C775 1.419 . S
C777 C778 1.362 . S
C778 H770 0.930 . S
C778 C777 1.362 . S
C778 C781 1.409 . S
C779 H771 0.930 . S
C779 C780 1.355 . S
C779 C781 1.415 1_554 S
C780 C779 1.355 . S
C780 C782 1.419 . S
C781 C776 1.425 1_556 S
C781 C778 1.409 . S
C781 C779 1.415 1_556 S
C782 H772 0.930 . S
C782 C780 1.419 . S
C782 C783 1.362 . S
C783 H773 0.930 . S
C783 C776 1.409 . S
C783 C782 1.362 . S
H784 C790 0.930 . S
H785 C793 0.930 . S
H786 C794 0.930 . S
H787 C795 0.930 . S
H788 C798 0.930 . S
H789 C799 0.930 . S
C790 H784 0.930 . S
C790 C791 1.355 . S
C790 C792 1.415 . S
C791 C790 1.355 . S
C791 C793 1.419 . S
C792 C790 1.415 . S
C792 C797 1.425 1_556 S
C792 C799 1.409 . S
C793 H785 0.930 . S
C793 C791 1.419 . S
C793 C794 1.362 1_556 S
C794 H786 0.930 . S
C794 C793 1.362 1_554 S
C794 C797 1.409 . S
C795 H787 0.930 . S
C795 C796 1.355 . S
C795 C797 1.415 . S
C796 C795 1.355 . S
C796 C798 1.419 . S
C797 C792 1.425 1_554 S
C797 C794 1.409 . S
C797 C795 1.415 . S
C798 H788 0.930 . S
C798 C796 1.419 . S
C798 C799 1.362 1_554 S
C799 H789 0.930 . S
C799 C792 1.409 . S
C799 C798 1.362 1_556 S
H800 C806 0.930 . S
H801 C809 0.929 1_554 S
H802 C810 0.930 . S
H803 C811 0.930 . S
H804 C814 0.929 1_556 S
H805 C815 0.930 . S
C806 H800 0.930 . S
C806 C807 1.355 . S
C806 C808 1.415 . S
C807 C806 1.355 . S
C807 C809 1.419 . S
C808 C806 1.415 . S
C808 C813 1.425 1_556 S
C808 C815 1.409 . S
C809 H801 0.929 1_556 S
C809 C807 1.419 . S
C809 C810 1.362 1_556 S
C810 H802 0.930 . S
C810 C809 1.362 1_554 S
C810 C813 1.409 . S
C811 H803 0.930 . S
C811 C812 1.355 . S
C811 C813 1.415 . S
C812 C811 1.355 . S
C812 C814 1.419 . S
C813 C808 1.425 1_554 S
C813 C810 1.409 . S
C813 C811 1.415 . S
C814 H804 0.929 1_554 S
C814 C812 1.419 . S
C814 C815 1.362 1_554 S
C815 H805 0.930 . S
C815 C808 1.409 . S
C815 C814 1.362 1_556 S
H816 C822 0.930 . S
H817 C825 0.930 . S
H818 C826 0.930 . S
H819 C827 0.930 . S
H820 C830 0.930 . S
H821 C831 0.930 . S
C822 H816 0.930 . S
C822 C823 1.355 . S
C822 C824 1.415 . S
C823 C822 1.355 . S
C823 C825 1.419 . S
C824 C822 1.415 . S
C824 C829 1.425 . S
C824 C831 1.409 . S
C825 H817 0.930 . S
C825 C823 1.419 . S
C825 C826 1.362 . S
C826 H818 0.930 . S
C826 C825 1.362 . S
C826 C829 1.409 . S
C827 H819 0.930 . S
C827 C828 1.355 . S
C827 C829 1.415 . S
C828 C827 1.355 . S
C828 C830 1.419 . S
C829 C824 1.425 . S
C829 C826 1.409 . S
C829 C827 1.415 . S
C830 H820 0.930 . S
C830 C828 1.419 . S
C830 C831 1.362 . S
C831 H821 0.930 . S
C831 C824 1.409 . S
C831 C830 1.362 . S
H832 C838 0.930 . S
H833 C841 0.930 . S
H834 C842 0.930 . S
H835 C843 0.930 . S
H836 C846 0.930 . S
H837 C847 0.930 . S
C838 H832 0.930 . S
C838 C839 1.355 . S
C838 C840 1.415 . S
C839 C838 1.355 . S
C839 C841 1.419 . S
C840 C838 1.415 . S
C840 C845 1.425 . S
C840 C847 1.409 . S
C841 H833 0.930 . S
C841 C839 1.419 . S
C841 C842 1.362 . S
C842 H834 0.930 . S
C842 C841 1.362 . S
C842 C845 1.409 . S
C843 H835 0.930 . S
C843 C844 1.355 . S
C843 C845 1.415 . S
C844 C843 1.355 . S
C844 C846 1.419 . S
C845 C840 1.425 . S
C845 C842 1.409 . S
C845 C843 1.415 . S
C846 H836 0.930 . S
C846 C844 1.419 . S
C846 C847 1.362 . S
C847 H837 0.930 . S
C847 C840 1.409 . S
C847 C846 1.362 . S
H848 C854 0.930 . S
H849 C857 0.930 . S
H850 C858 0.930 . S
H851 C859 0.930 . S
H852 C862 0.930 . S
H853 C863 0.930 . S
C854 H848 0.930 . S
C854 C855 1.355 . S
C854 C856 1.415 . S
C855 C854 1.355 . S
C855 C857 1.419 . S
C856 C854 1.415 . S
C856 C861 1.425 . S
C856 C863 1.409 . S
C857 H849 0.930 . S
C857 C855 1.419 . S
C857 C858 1.362 . S
C858 H850 0.930 . S
C858 C857 1.362 . S
C858 C861 1.409 . S
C859 H851 0.930 . S
C859 C860 1.355 . S
C859 C861 1.415 . S
C860 C859 1.355 . S
C860 C862 1.419 . S
C861 C856 1.425 . S
C861 C858 1.409 . S
C861 C859 1.415 . S
C862 H852 0.930 . S
C862 C860 1.419 . S
C862 C863 1.362 . S
C863 H853 0.930 . S
C863 C856 1.409 . S
C863 C862 1.362 . S
H864 C870 0.930 . S
H865 C873 0.930 . S
H866 C874 0.930 . S
H867 C875 0.930 . S
H868 C878 0.930 . S
H869 C879 0.930 . S
C870 H864 0.930 . S
C870 C871 1.355 . S
C870 C872 1.415 . S
C871 C870 1.355 . S
C871 C873 1.419 . S
C872 C870 1.415 . S
C872 C877 1.425 . S
C872 C879 1.409 . S
C873 H865 0.930 . S
C873 C871 1.419 . S
C873 C874 1.362 . S
C874 H866 0.930 . S
C874 C873 1.362 . S
C874 C877 1.409 . S
C875 H867 0.930 . S
C875 C876 1.355 . S
C875 C877 1.415 . S
C876 C875 1.355 . S
C876 C878 1.419 . S
C877 C872 1.425 . S
C877 C874 1.409 . S
C877 C875 1.415 . S
C878 H868 0.930 . S
C878 C876 1.419 . S
C878 C879 1.362 . S
C879 H869 0.930 . S
C879 C872 1.409 . S
C879 C878 1.362 . S
H880 C886 0.930 . S
H881 C889 0.930 . S
H882 C890 0.930 . S
H883 C891 0.930 . S
H884 C894 0.930 . S
H885 C895 0.930 . S
C886 H880 0.930 . S
C886 C887 1.355 . S
C886 C888 1.415 . S
C887 C886 1.355 . S
C887 C889 1.419 . S
C888 C886 1.415 . S
C888 C893 1.425 . S
C888 C895 1.409 . S
C889 H881 0.930 . S
C889 C887 1.419 . S
C889 C890 1.362 . S
C890 H882 0.930 . S
C890 C889 1.362 . S
C890 C893 1.409 . S
C891 H883 0.930 . S
C891 C892 1.355 . S
C891 C893 1.415 . S
C892 C891 1.355 . S
C892 C894 1.419 . S
C893 C888 1.425 . S
C893 C890 1.409 . S
C893 C891 1.415 . S
C894 H884 0.930 . S
C894 C892 1.419 . S
C894 C895 1.362 . S
C895 H885 0.930 . S
C895 C888 1.409 . S
C895 C894 1.362 . S
H896 C902 0.930 . S
H897 C905 0.930 . S
H898 C906 0.930 . S
H899 C907 0.930 . S
H900 C910 0.930 . S
H901 C911 0.930 . S
C902 H896 0.930 . S
C902 C903 1.355 . S
C902 C904 1.415 . S
C903 C902 1.355 . S
C903 C905 1.419 . S
C904 C902 1.415 . S
C904 C909 1.425 . S
C904 C911 1.409 . S
C905 H897 0.930 . S
C905 C903 1.419 . S
C905 C906 1.362 . S
C906 H898 0.930 . S
C906 C905 1.362 . S
C906 C909 1.409 . S
C907 H899 0.930 . S
C907 C908 1.355 . S
C907 C909 1.415 . S
C908 C907 1.355 . S
C908 C910 1.419 . S
C909 C904 1.425 . S
C909 C906 1.409 . S
C909 C907 1.415 . S
C910 H900 0.930 . S
C910 C908 1.419 . S
C910 C911 1.362 . S
C911 H901 0.930 . S
C911 C904 1.409 . S
C911 C910 1.362 . S
H912 C918 0.930 . S
H913 C921 0.930 . S
H914 C922 0.930 . S
H915 C923 0.930 . S
H916 C926 0.930 . S
H917 C927 0.930 . S
C918 H912 0.930 . S
C918 C919 1.355 . S
C918 C920 1.415 . S
C919 C918 1.355 . S
C919 C921 1.419 . S
C920 C918 1.415 . S
C920 C925 1.425 . S
C920 C927 1.409 . S
C921 H913 0.930 . S
C921 C919 1.419 . S
C921 C922 1.362 . S
C922 H914 0.930 . S
C922 C921 1.362 . S
C922 C925 1.409 . S
C923 H915 0.930 . S
C923 C924 1.355 . S
C923 C925 1.415 . S
C924 C923 1.355 . S
C924 C926 1.419 . S
C925 C920 1.425 . S
C925 C922 1.409 . S
C925 C923 1.415 . S
C926 H916 0.930 . S
C926 C924 1.419 . S
C926 C927 1.362 . S
C927 H917 0.930 . S
C927 C920 1.409 . S
C927 C926 1.362 . S
H928 C934 0.930 . S
H929 C937 0.930 . S
H930 C938 0.930 . S
H931 C939 0.930 . S
H932 C942 0.930 . S
H933 C943 0.930 . S
C934 H928 0.930 . S
C934 C935 1.355 . S
C934 C936 1.415 . S
C935 C934 1.355 . S
C935 C937 1.419 . S
C936 C934 1.415 . S
C936 C941 1.425 . S
C936 C943 1.409 . S
C937 H929 0.930 . S
C937 C935 1.419 . S
C937 C938 1.362 . S
C938 H930 0.930 . S
C938 C937 1.362 . S
C938 C941 1.409 . S
C939 H931 0.930 . S
C939 C940 1.355 . S
C939 C941 1.415 . S
C940 C939 1.355 . S
C940 C942 1.419 . S
C941 C936 1.425 . S
C941 C938 1.409 . S
C941 C939 1.415 . S
C942 H932 0.930 . S
C942 C940 1.419 . S
C942 C943 1.362 . S
C943 H933 0.930 . S
C943 C936 1.409 . S
C943 C942 1.362 . S
H944 C950 0.930 . S
H945 C953 0.930 . S
H946 C954 0.930 . S
H947 C955 0.930 . S
H948 C958 0.930 . S
H949 C959 0.930 . S
C950 H944 0.930 . S
C950 C951 1.355 . S
C950 C952 1.415 . S
C951 C950 1.355 . S
C951 C953 1.419 . S
C952 C950 1.415 . S
C952 C957 1.425 . S
C952 C959 1.409 . S
C953 H945 0.930 . S
C953 C951 1.419 . S
C953 C954 1.362 . S
C954 H946 0.930 . S
C954 C953 1.362 . S
C954 C957 1.409 . S
C955 H947 0.930 . S
C955 C956 1.355 . S
C955 C957 1.415 . S
C956 C955 1.355 . S
C956 C958 1.419 . S
C957 C952 1.425 . S
C957 C954 1.409 . S
C957 C955 1.415 . S
C958 H948 0.930 . S
C958 C956 1.419 . S
C958 C959 1.362 . S
C959 H949 0.930 . S
C959 C952 1.409 . S
C959 C958 1.362 . S
H960 C966 0.930 . S
H961 C969 0.930 . S
H962 C970 0.930 . S
H963 C971 0.930 . S
H964 C974 0.930 . S
H965 C975 0.930 . S
C966 H960 0.930 . S
C966 C967 1.355 . S
C966 C968 1.415 . S
C967 C966 1.355 . S
C967 C969 1.419 . S
C968 C966 1.415 . S
C968 C973 1.425 . S
C968 C975 1.409 . S
C969 H961 0.930 . S
C969 C967 1.419 . S
C969 C970 1.362 . S
C970 H962 0.930 . S
C970 C969 1.362 . S
C970 C973 1.409 . S
C971 H963 0.930 . S
C971 C972 1.355 . S
C971 C973 1.415 . S
C972 C971 1.355 . S
C972 C974 1.419 . S
C973 C968 1.425 . S
C973 C970 1.409 . S
C973 C971 1.415 . S
C974 H964 0.930 . S
C974 C972 1.419 . S
C974 C975 1.362 . S
C975 H965 0.930 . S
C975 C968 1.409 . S
C975 C974 1.362 . S
H976 C982 0.930 . S
H977 C985 0.930 . S
H978 C986 0.930 . S
H979 C987 0.930 . S
H980 C990 0.930 . S
H981 C991 0.930 . S
C982 H976 0.930 . S
C982 C983 1.355 . S
C982 C984 1.415 . S
C983 C982 1.355 . S
C983 C985 1.419 . S
C984 C982 1.415 . S
C984 C989 1.425 . S
C984 C991 1.409 . S
C985 H977 0.930 . S
C985 C983 1.419 . S
C985 C986 1.362 . S
C986 H978 0.930 . S
C986 C985 1.362 . S
C986 C989 1.409 . S
C987 H979 0.930 . S
C987 C988 1.355 . S
C987 C989 1.415 . S
C988 C987 1.355 . S
C988 C990 1.419 . S
C989 C984 1.425 . S
C989 C986 1.409 . S
C989 C987 1.415 . S
C990 H980 0.930 . S
C990 C988 1.419 . S
C990 C991 1.362 . S
C991 H981 0.930 . S
C991 C984 1.409 . S
C991 C990 1.362 . S
H992 C998 0.930 . S
H993 C1001 0.930 . S
H994 C1002 0.930 . S
H995 C1003 0.930 . S
H996 C1006 0.930 . S
H997 C1007 0.930 . S
C998 H992 0.930 . S
C998 C999 1.355 . S
C998 C1000 1.415 . S
C999 C998 1.355 . S
C999 C1001 1.419 . S
C1000 C998 1.415 . S
C1000 C1005 1.425 . S
C1000 C1007 1.409 . S
C1001 H993 0.930 . S
C1001 C999 1.419 . S
C1001 C1002 1.362 . S
C1002 H994 0.930 . S
C1002 C1001 1.362 . S
C1002 C1005 1.409 . S
C1003 H995 0.930 . S
C1003 C1004 1.355 . S
C1003 C1005 1.415 . S
C1004 C1003 1.355 . S
C1004 C1006 1.419 . S
C1005 C1000 1.425 . S
C1005 C1002 1.409 . S
C1005 C1003 1.415 . S
C1006 H996 0.930 . S
C1006 C1004 1.419 . S
C1006 C1007 1.362 . S
C1007 H997 0.930 . S
C1007 C1000 1.409 . S
C1007 C1006 1.362 . S
H1008 C1014 0.930 . S
H1009 C1017 0.930 . S
H1010 C1018 0.930 . S
H1011 C1019 0.930 . S
H1012 C1022 0.930 . S
H1013 C1023 0.930 . S
C1014 H1008 0.930 . S
C1014 C1015 1.355 . S
C1014 C1016 1.415 . S
C1015 C1014 1.355 . S
C1015 C1017 1.419 . S
C1016 C1014 1.415 . S
C1016 C1021 1.425 . S
C1016 C1023 1.409 . S
C1017 H1009 0.930 . S
C1017 C1015 1.419 . S
C1017 C1018 1.362 . S
C1018 H1010 0.930 . S
C1018 C1017 1.362 . S
C1018 C1021 1.409 . S
C1019 H1011 0.930 . S
C1019 C1020 1.355 . S
C1019 C1021 1.415 . S
C1020 C1019 1.355 . S
C1020 C1022 1.419 . S
C1021 C1016 1.425 . S
C1021 C1018 1.409 . S
C1021 C1019 1.415 . S
C1022 H1012 0.930 . S
C1022 C1020 1.419 . S
C1022 C1023 1.362 . S
C1023 H1013 0.930 . S
C1023 C1016 1.409 . S
C1023 C1022 1.362 . S
H1024 C1030 0.930 . S
H1025 C1033 0.930 . S
H1026 C1034 0.930 . S
H1027 C1035 0.930 . S
H1028 C1038 0.930 . S
H1029 C1039 0.930 . S
C1030 H1024 0.930 . S
C1030 C1031 1.355 . S
C1030 C1032 1.415 . S
C1031 C1030 1.355 . S
C1031 C1033 1.419 . S
C1032 C1030 1.415 . S
C1032 C1037 1.425 . S
C1032 C1039 1.409 . S
C1033 H1025 0.930 . S
C1033 C1031 1.419 . S
C1033 C1034 1.362 . S
C1034 H1026 0.930 . S
C1034 C1033 1.362 . S
C1034 C1037 1.409 . S
C1035 H1027 0.930 . S
C1035 C1036 1.355 . S
C1035 C1037 1.415 . S
C1036 C1035 1.355 . S
C1036 C1038 1.419 . S
C1037 C1032 1.425 . S
C1037 C1034 1.409 . S
C1037 C1035 1.415 . S
C1038 H1028 0.930 . S
C1038 C1036 1.419 . S
C1038 C1039 1.362 . S
C1039 H1029 0.930 . S
C1039 C1032 1.409 . S
C1039 C1038 1.362 . S
H1040 C1046 0.930 . S
H1041 C1049 0.930 . S
H1042 C1050 0.930 . S
H1043 C1051 0.930 . S
H1044 C1054 0.930 . S
H1045 C1055 0.930 . S
C1046 H1040 0.930 . S
C1046 C1047 1.355 . S
C1046 C1048 1.415 . S
C1047 C1046 1.355 . S
C1047 C1049 1.419 . S
C1048 C1046 1.415 . S
C1048 C1053 1.425 . S
C1048 C1055 1.409 . S
C1049 H1041 0.930 . S
C1049 C1047 1.419 . S
C1049 C1050 1.362 . S
C1050 H1042 0.930 . S
C1050 C1049 1.362 . S
C1050 C1053 1.409 . S
C1051 H1043 0.930 . S
C1051 C1052 1.355 . S
C1051 C1053 1.415 . S
C1052 C1051 1.355 . S
C1052 C1054 1.419 . S
C1053 C1048 1.425 . S
C1053 C1050 1.409 . S
C1053 C1051 1.415 . S
C1054 H1044 0.930 . S
C1054 C1052 1.419 . S
C1054 C1055 1.362 . S
C1055 H1045 0.930 . S
C1055 C1048 1.409 . S
C1055 C1054 1.362 . S
H1056 C1062 0.930 . S
H1057 C1065 0.930 . S
H1058 C1066 0.930 . S
H1059 C1067 0.930 . S
H1060 C1070 0.930 . S
H1061 C1071 0.930 . S
C1062 H1056 0.930 . S
C1062 C1063 1.355 . S
C1062 C1064 1.415 . S
C1063 C1062 1.355 . S
C1063 C1065 1.419 . S
C1064 C1062 1.415 . S
C1064 C1069 1.425 . S
C1064 C1071 1.409 . S
C1065 H1057 0.930 . S
C1065 C1063 1.419 . S
C1065 C1066 1.362 . S
C1066 H1058 0.930 . S
C1066 C1065 1.362 . S
C1066 C1069 1.409 . S
C1067 H1059 0.930 . S
C1067 C1068 1.355 . S
C1067 C1069 1.415 . S
C1068 C1067 1.355 . S
C1068 C1070 1.419 . S
C1069 C1064 1.425 . S
C1069 C1066 1.409 . S
C1069 C1067 1.415 . S
C1070 H1060 0.930 . S
C1070 C1068 1.419 . S
C1070 C1071 1.362 . S
C1071 H1061 0.930 . S
C1071 C1064 1.409 . S
C1071 C1070 1.362 . S
H1072 C1078 0.930 . S
H1073 C1081 0.930 . S
H1074 C1082 0.930 . S
H1075 C1083 0.930 . S
H1076 C1086 0.930 . S
H1077 C1087 0.930 . S
C1078 H1072 0.930 . S
C1078 C1079 1.355 . S
C1078 C1080 1.415 . S
C1079 C1078 1.355 . S
C1079 C1081 1.419 . S
C1080 C1078 1.415 . S
C1080 C1085 1.425 . S
C1080 C1087 1.409 . S
C1081 H1073 0.930 . S
C1081 C1079 1.419 . S
C1081 C1082 1.362 . S
C1082 H1074 0.930 . S
C1082 C1081 1.362 . S
C1082 C1085 1.409 . S
C1083 H1075 0.930 . S
C1083 C1084 1.355 . S
C1083 C1085 1.415 . S
C1084 C1083 1.355 . S
C1084 C1086 1.419 . S
C1085 C1080 1.425 . S
C1085 C1082 1.409 . S
C1085 C1083 1.415 . S
C1086 H1076 0.930 . S
C1086 C1084 1.419 . S
C1086 C1087 1.362 . S
C1087 H1077 0.930 . S
C1087 C1080 1.409 . S
C1087 C1086 1.362 . S
H1088 C1094 0.930 . S
H1089 C1097 0.930 . S
H1090 C1098 0.930 . S
H1091 C1099 0.930 . S
H1092 C1102 0.930 . S
H1093 C1103 0.930 . S
C1094 H1088 0.930 . S
C1094 C1095 1.355 . S
C1094 C1096 1.415 . S
C1095 C1094 1.355 . S
C1095 C1097 1.419 . S
C1096 C1094 1.415 . S
C1096 C1101 1.425 . S
C1096 C1103 1.409 . S
C1097 H1089 0.930 . S
C1097 C1095 1.419 . S
C1097 C1098 1.362 . S
C1098 H1090 0.930 . S
C1098 C1097 1.362 . S
C1098 C1101 1.409 . S
C1099 H1091 0.930 . S
C1099 C1100 1.355 . S
C1099 C1101 1.415 . S
C1100 C1099 1.355 . S
C1100 C1102 1.419 . S
C1101 C1096 1.425 . S
C1101 C1098 1.409 . S
C1101 C1099 1.415 . S
C1102 H1092 0.930 . S
C1102 C1100 1.419 . S
C1102 C1103 1.362 . S
C1103 H1093 0.930 . S
C1103 C1096 1.409 . S
C1103 C1102 1.362 . S
H1104 C1110 0.930 . S
H1105 C1113 0.930 . S
H1106 C1114 0.930 . S
H1107 C1115 0.930 . S
H1108 C1118 0.930 . S
H1109 C1119 0.930 . S
C1110 H1104 0.930 . S
C1110 C1111 1.355 . S
C1110 C1112 1.415 . S
C1111 C1110 1.355 . S
C1111 C1113 1.419 . S
C1112 C1110 1.415 . S
C1112 C1117 1.425 . S
C1112 C1119 1.409 . S
C1113 H1105 0.930 . S
C1113 C1111 1.419 . S
C1113 C1114 1.362 . S
C1114 H1106 0.930 . S
C1114 C1113 1.362 . S
C1114 C1117 1.409 . S
C1115 H1107 0.930 . S
C1115 C1116 1.355 . S
C1115 C1117 1.415 . S
C1116 C1115 1.355 . S
C1116 C1118 1.419 . S
C1117 C1112 1.425 . S
C1117 C1114 1.409 . S
C1117 C1115 1.415 . S
C1118 H1108 0.930 . S
C1118 C1116 1.419 . S
C1118 C1119 1.362 . S
C1119 H1109 0.930 . S
C1119 C1112 1.409 . S
C1119 C1118 1.362 . S
H1120 C1126 0.930 . S
H1121 C1129 0.930 . S
H1122 C1130 0.930 . S
H1123 C1131 0.930 . S
H1124 C1134 0.930 . S
H1125 C1135 0.930 . S
C1126 H1120 0.930 . S
C1126 C1127 1.355 . S
C1126 C1128 1.415 . S
C1127 C1126 1.355 . S
C1127 C1129 1.419 . S
C1128 C1126 1.415 . S
C1128 C1133 1.425 . S
C1128 C1135 1.409 . S
C1129 H1121 0.930 . S
C1129 C1127 1.419 . S
C1129 C1130 1.362 . S
C1130 H1122 0.930 . S
C1130 C1129 1.362 . S
C1130 C1133 1.409 . S
C1131 H1123 0.930 . S
C1131 C1132 1.355 . S
C1131 C1133 1.415 . S
C1132 C1131 1.355 . S
C1132 C1134 1.419 . S
C1133 C1128 1.425 . S
C1133 C1130 1.409 . S
C1133 C1131 1.415 . S
C1134 H1124 0.930 . S
C1134 C1132 1.419 . S
C1134 C1135 1.362 . S
C1135 H1125 0.930 . S
C1135 C1128 1.409 . S
C1135 C1134 1.362 . S
H1136 C1142 0.930 . S
H1137 C1145 0.930 . S
H1138 C1146 0.930 . S
H1139 C1147 0.930 . S
H1140 C1150 0.930 . S
H1141 C1151 0.930 . S
C1142 H1136 0.930 . S
C1142 C1143 1.355 . S
C1142 C1144 1.415 . S
C1143 C1142 1.355 . S
C1143 C1145 1.419 . S
C1144 C1142 1.415 . S
C1144 C1149 1.425 . S
C1144 C1151 1.409 . S
C1145 H1137 0.930 . S
C1145 C1143 1.419 . S
C1145 C1146 1.362 . S
C1146 H1138 0.930 . S
C1146 C1145 1.362 . S
C1146 C1149 1.409 . S
C1147 H1139 0.930 . S
C1147 C1148 1.355 . S
C1147 C1149 1.415 . S
C1148 C1147 1.355 . S
C1148 C1150 1.419 . S
C1149 C1144 1.425 . S
C1149 C1146 1.409 . S
C1149 C1147 1.415 . S
C1150 H1140 0.930 . S
C1150 C1148 1.419 . S
C1150 C1151 1.362 . S
C1151 H1141 0.930 . S
C1151 C1144 1.409 . S
C1151 C1150 1.362 . S
H1152 C1158 0.930 . S
H1153 C1161 0.930 . S
H1154 C1162 0.930 . S
H1155 C1163 0.930 . S
H1156 C1166 0.930 . S
H1157 C1167 0.930 . S
C1158 H1152 0.930 . S
C1158 C1159 1.355 . S
C1158 C1160 1.415 . S
C1159 C1158 1.355 . S
C1159 C1161 1.419 . S
C1160 C1158 1.415 . S
C1160 C1165 1.425 . S
C1160 C1167 1.409 . S
C1161 H1153 0.930 . S
C1161 C1159 1.419 . S
C1161 C1162 1.362 . S
C1162 H1154 0.930 . S
C1162 C1161 1.362 . S
C1162 C1165 1.409 . S
C1163 H1155 0.930 . S
C1163 C1164 1.355 . S
C1163 C1165 1.415 . S
C1164 C1163 1.355 . S
C1164 C1166 1.419 . S
C1165 C1160 1.425 . S
C1165 C1162 1.409 . S
C1165 C1163 1.415 . S
C1166 H1156 0.930 . S
C1166 C1164 1.419 . S
C1166 C1167 1.362 . S
C1167 H1157 0.930 . S
C1167 C1160 1.409 . S
C1167 C1166 1.362 . S
H1168 C1174 0.930 . S
H1169 C1177 0.930 . S
H1170 C1178 0.930 . S
H1171 C1179 0.930 . S
H1172 C1182 0.930 . S
H1173 C1183 0.930 . S
C1174 H1168 0.930 . S
C1174 C1175 1.355 . S
C1174 C1176 1.415 . S
C1175 C1174 1.355 . S
C1175 C1177 1.419 . S
C1176 C1174 1.415 . S
C1176 C1181 1.425 . S
C1176 C1183 1.409 . S
C1177 H1169 0.930 . S
C1177 C1175 1.419 . S
C1177 C1178 1.362 . S
C1178 H1170 0.930 . S
C1178 C1177 1.362 . S
C1178 C1181 1.409 . S
C1179 H1171 0.930 . S
C1179 C1180 1.355 . S
C1179 C1181 1.415 . S
C1180 C1179 1.355 . S
C1180 C1182 1.419 . S
C1181 C1176 1.425 . S
C1181 C1178 1.409 . S
C1181 C1179 1.415 . S
C1182 H1172 0.930 . S
C1182 C1180 1.419 . S
C1182 C1183 1.362 . S
C1183 H1173 0.930 . S
C1183 C1176 1.409 . S
C1183 C1182 1.362 . S
H1184 C1190 0.930 . S
H1185 C1193 0.930 . S
H1186 C1194 0.930 . S
H1187 C1195 0.930 . S
H1188 C1198 0.930 . S
H1189 C1199 0.930 . S
C1190 H1184 0.930 . S
C1190 C1191 1.355 . S
C1190 C1192 1.415 . S
C1191 C1190 1.355 . S
C1191 C1193 1.419 . S
C1192 C1190 1.415 . S
C1192 C1197 1.425 . S
C1192 C1199 1.409 . S
C1193 H1185 0.930 . S
C1193 C1191 1.419 . S
C1193 C1194 1.362 . S
C1194 H1186 0.930 . S
C1194 C1193 1.362 . S
C1194 C1197 1.409 . S
C1195 H1187 0.930 . S
C1195 C1196 1.355 . S
C1195 C1197 1.415 . S
C1196 C1195 1.355 . S
C1196 C1198 1.419 . S
C1197 C1192 1.425 . S
C1197 C1194 1.409 . S
C1197 C1195 1.415 . S
C1198 H1188 0.930 . S
C1198 C1196 1.419 . S
C1198 C1199 1.362 . S
C1199 H1189 0.930 . S
C1199 C1192 1.409 . S
C1199 C1198 1.362 . S
H1200 C1206 0.930 . S
H1201 C1209 0.930 . S
H1202 C1210 0.930 . S
H1203 C1211 0.930 . S
H1204 C1214 0.930 . S
H1205 C1215 0.930 . S
C1206 H1200 0.930 . S
C1206 C1207 1.355 . S
C1206 C1208 1.415 . S
C1207 C1206 1.355 . S
C1207 C1209 1.419 . S
C1208 C1206 1.415 . S
C1208 C1213 1.425 . S
C1208 C1215 1.409 . S
C1209 H1201 0.930 . S
C1209 C1207 1.419 . S
C1209 C1210 1.362 . S
C1210 H1202 0.930 . S
C1210 C1209 1.362 . S
C1210 C1213 1.409 . S
C1211 H1203 0.930 . S
C1211 C1212 1.355 . S
C1211 C1213 1.415 . S
C1212 C1211 1.355 . S
C1212 C1214 1.419 . S
C1213 C1208 1.425 . S
C1213 C1210 1.409 . S
C1213 C1211 1.415 . S
C1214 H1204 0.930 . S
C1214 C1212 1.419 . S
C1214 C1215 1.362 . S
C1215 H1205 0.930 . S
C1215 C1208 1.409 . S
C1215 C1214 1.362 . S
H1216 C1222 0.930 . S
H1217 C1225 0.930 . S
H1218 C1226 0.930 . S
H1219 C1227 0.930 . S
H1220 C1230 0.930 . S
H1221 C1231 0.930 . S
C1222 H1216 0.930 . S
C1222 C1223 1.355 . S
C1222 C1224 1.415 . S
C1223 C1222 1.355 . S
C1223 C1225 1.419 . S
C1224 C1222 1.415 . S
C1224 C1229 1.425 . S
C1224 C1231 1.409 . S
C1225 H1217 0.930 . S
C1225 C1223 1.419 . S
C1225 C1226 1.362 . S
C1226 H1218 0.930 . S
C1226 C1225 1.362 . S
C1226 C1229 1.409 . S
C1227 H1219 0.930 . S
C1227 C1228 1.355 . S
C1227 C1229 1.415 . S
C1228 C1227 1.355 . S
C1228 C1230 1.419 . S
C1229 C1224 1.425 . S
C1229 C1226 1.409 . S
C1229 C1227 1.415 . S
C1230 H1220 0.930 . S
C1230 C1228 1.419 . S
C1230 C1231 1.362 . S
C1231 H1221 0.930 . S
C1231 C1224 1.409 . S
C1231 C1230 1.362 . S
H1232 C1238 0.930 . S
H1233 C1241 0.930 . S
H1234 C1242 0.930 . S
H1235 C1243 0.930 . S
H1236 C1246 0.930 . S
H1237 C1247 0.930 . S
C1238 H1232 0.930 . S
C1238 C1239 1.355 . S
C1238 C1240 1.415 . S
C1239 C1238 1.355 . S
C1239 C1241 1.419 . S
C1240 C1238 1.415 . S
C1240 C1245 1.425 . S
C1240 C1247 1.409 . S
C1241 H1233 0.930 . S
C1241 C1239 1.419 . S
C1241 C1242 1.362 . S
C1242 H1234 0.930 . S
C1242 C1241 1.362 . S
C1242 C1245 1.409 . S
C1243 H1235 0.930 . S
C1243 C1244 1.355 . S
C1243 C1245 1.415 . S
C1244 C1243 1.355 . S
C1244 C1246 1.419 . S
C1245 C1240 1.425 . S
C1245 C1242 1.409 . S
C1245 C1243 1.415 . S
C1246 H1236 0.930 . S
C1246 C1244 1.419 . S
C1246 C1247 1.362 . S
C1247 H1237 0.930 . S
C1247 C1240 1.409 . S
C1247 C1246 1.362 . S
H1248 C1254 0.930 . S
H1249 C1257 0.930 . S
H1250 C1258 0.930 . S
H1251 C1259 0.930 . S
H1252 C1262 0.930 . S
H1253 C1263 0.930 . S
C1254 H1248 0.930 . S
C1254 C1255 1.355 . S
C1254 C1256 1.415 . S
C1255 C1254 1.355 . S
C1255 C1257 1.419 . S
C1256 C1254 1.415 . S
C1256 C1261 1.425 . S
C1256 C1263 1.409 . S
C1257 H1249 0.930 . S
C1257 C1255 1.419 . S
C1257 C1258 1.362 . S
C1258 H1250 0.930 . S
C1258 C1257 1.362 . S
C1258 C1261 1.409 . S
C1259 H1251 0.930 . S
C1259 C1260 1.355 . S
C1259 C1261 1.415 . S
C1260 C1259 1.355 . S
C1260 C1262 1.419 . S
C1261 C1256 1.425 . S
C1261 C1258 1.409 . S
C1261 C1259 1.415 . S
C1262 H1252 0.930 . S
C1262 C1260 1.419 . S
C1262 C1263 1.362 . S
C1263 H1253 0.930 . S
C1263 C1256 1.409 . S
C1263 C1262 1.362 . S
H1264 C1270 0.930 . S
H1265 C1273 0.930 . S
H1266 C1274 0.930 . S
H1267 C1275 0.930 . S
H1268 C1278 0.930 . S
H1269 C1279 0.930 . S
C1270 H1264 0.930 . S
C1270 C1271 1.355 . S
C1270 C1272 1.415 . S
C1271 C1270 1.355 . S
C1271 C1273 1.419 . S
C1272 C1270 1.415 . S
C1272 C1277 1.425 . S
C1272 C1279 1.409 . S
C1273 H1265 0.930 . S
C1273 C1271 1.419 . S
C1273 C1274 1.362 . S
C1274 H1266 0.930 . S
C1274 C1273 1.362 . S
C1274 C1277 1.409 . S
C1275 H1267 0.930 . S
C1275 C1276 1.355 . S
C1275 C1277 1.415 . S
C1276 C1275 1.355 . S
C1276 C1278 1.419 . S
C1277 C1272 1.425 . S
C1277 C1274 1.409 . S
C1277 C1275 1.415 . S
C1278 H1268 0.930 . S
C1278 C1276 1.419 . S
C1278 C1279 1.362 . S
C1279 H1269 0.930 . S
C1279 C1272 1.409 . S
C1279 C1278 1.362 . S
H1280 C1286 0.930 . S
H1281 C1289 0.930 . S
H1282 C1290 0.930 . S
H1283 C1291 0.930 . S
H1284 C1294 0.930 . S
H1285 C1295 0.930 . S
C1286 H1280 0.930 . S
C1286 C1287 1.355 . S
C1286 C1288 1.415 . S
C1287 C1286 1.355 . S
C1287 C1289 1.419 . S
C1288 C1286 1.415 . S
C1288 C1293 1.425 . S
C1288 C1295 1.409 . S
C1289 H1281 0.930 . S
C1289 C1287 1.419 . S
C1289 C1290 1.362 . S
C1290 H1282 0.930 . S
C1290 C1289 1.362 . S
C1290 C1293 1.409 . S
C1291 H1283 0.930 . S
C1291 C1292 1.355 . S
C1291 C1293 1.415 . S
C1292 C1291 1.355 . S
C1292 C1294 1.419 . S
C1293 C1288 1.425 . S
C1293 C1290 1.409 . S
C1293 C1291 1.415 . S
C1294 H1284 0.930 . S
C1294 C1292 1.419 . S
C1294 C1295 1.362 . S
C1295 H1285 0.930 . S
C1295 C1288 1.409 . S
C1295 C1294 1.362 . S
H1296 C1302 0.930 . S
H1297 C1305 0.930 . S
H1298 C1306 0.930 . S
H1299 C1307 0.930 . S
H1300 C1310 0.930 . S
H1301 C1311 0.930 . S
C1302 H1296 0.930 . S
C1302 C1303 1.355 . S
C1302 C1304 1.415 . S
C1303 C1302 1.355 . S
C1303 C1305 1.419 . S
C1304 C1302 1.415 . S
C1304 C1309 1.425 . S
C1304 C1311 1.409 . S
C1305 H1297 0.930 . S
C1305 C1303 1.419 . S
C1305 C1306 1.362 . S
C1306 H1298 0.930 . S
C1306 C1305 1.362 . S
C1306 C1309 1.409 . S
C1307 H1299 0.930 . S
C1307 C1308 1.355 . S
C1307 C1309 1.415 . S
C1308 C1307 1.355 . S
C1308 C1310 1.419 . S
C1309 C1304 1.425 . S
C1309 C1306 1.409 . S
C1309 C1307 1.415 . S
C1310 H1300 0.930 . S
C1310 C1308 1.419 . S
C1310 C1311 1.362 . S
C1311 H1301 0.930 . S
C1311 C1304 1.409 . S
C1311 C1310 1.362 . S
H1312 C1318 0.930 . S
H1313 C1321 0.930 . S
H1314 C1322 0.930 . S
H1315 C1323 0.930 . S
H1316 C1326 0.930 . S
H1317 C1327 0.930 . S
C1318 H1312 0.930 . S
C1318 C1319 1.355 . S
C1318 C1320 1.415 . S
C1319 C1318 1.355 . S
C1319 C1321 1.419 . S
C1320 C1318 1.415 . S
C1320 C1325 1.425 . S
C1320 C1327 1.409 . S
C1321 H1313 0.930 . S
C1321 C1319 1.419 . S
C1321 C1322 1.362 . S
C1322 H1314 0.930 . S
C1322 C1321 1.362 . S
C1322 C1325 1.409 . S
C1323 H1315 0.930 . S
C1323 C1324 1.355 . S
C1323 C1325 1.415 . S
C1324 C1323 1.355 . S
C1324 C1326 1.419 . S
C1325 C1320 1.425 . S
C1325 C1322 1.409 . S
C1325 C1323 1.415 . S
C1326 H1316 0.930 . S
C1326 C1324 1.419 . S
C1326 C1327 1.362 . S
C1327 H1317 0.930 . S
C1327 C1320 1.409 . S
C1327 C1326 1.362 . S
H1328 C1334 0.930 . S
H1329 C1337 0.930 . S
H1330 C1338 0.930 . S
H1331 C1339 0.930 . S
H1332 C1342 0.930 . S
H1333 C1343 0.930 . S
C1334 H1328 0.930 . S
C1334 C1335 1.355 . S
C1334 C1336 1.415 . S
C1335 C1334 1.355 . S
C1335 C1337 1.419 . S
C1336 C1334 1.415 . S
C1336 C1341 1.425 . S
C1336 C1343 1.409 . S
C1337 H1329 0.930 . S
C1337 C1335 1.419 . S
C1337 C1338 1.362 . S
C1338 H1330 0.930 . S
C1338 C1337 1.362 . S
C1338 C1341 1.409 . S
C1339 H1331 0.930 . S
C1339 C1340 1.355 . S
C1339 C1341 1.415 . S
C1340 C1339 1.355 . S
C1340 C1342 1.419 . S
C1341 C1336 1.425 . S
C1341 C1338 1.409 . S
C1341 C1339 1.415 . S
C1342 H1332 0.930 . S
C1342 C1340 1.419 . S
C1342 C1343 1.362 . S
C1343 H1333 0.930 . S
C1343 C1336 1.409 . S
C1343 C1342 1.362 . S
H1344 C1350 0.930 . S
H1345 C1353 0.930 . S
H1346 C1354 0.930 . S
H1347 C1355 0.930 . S
H1348 C1358 0.930 . S
H1349 C1359 0.930 . S
C1350 H1344 0.930 . S
C1350 C1351 1.355 . S
C1350 C1352 1.415 . S
C1351 C1350 1.355 . S
C1351 C1353 1.419 . S
C1352 C1350 1.415 . S
C1352 C1357 1.425 . S
C1352 C1359 1.409 . S
C1353 H1345 0.930 . S
C1353 C1351 1.419 . S
C1353 C1354 1.362 . S
C1354 H1346 0.930 . S
C1354 C1353 1.362 . S
C1354 C1357 1.409 . S
C1355 H1347 0.930 . S
C1355 C1356 1.355 . S
C1355 C1357 1.415 . S
C1356 C1355 1.355 . S
C1356 C1358 1.419 . S
C1357 C1352 1.425 . S
C1357 C1354 1.409 . S
C1357 C1355 1.415 . S
C1358 H1348 0.930 . S
C1358 C1356 1.419 . S
C1358 C1359 1.362 . S
C1359 H1349 0.930 . S
C1359 C1352 1.409 . S
C1359 C1358 1.362 . S
H1360 C1366 0.930 . S
H1361 C1369 0.930 . S
H1362 C1370 0.930 . S
H1363 C1371 0.930 . S
H1364 C1374 0.930 . S
H1365 C1375 0.930 . S
C1366 H1360 0.930 . S
C1366 C1367 1.355 . S
C1366 C1368 1.415 . S
C1367 C1366 1.355 . S
C1367 C1369 1.419 . S
C1368 C1366 1.415 . S
C1368 C1373 1.425 . S
C1368 C1375 1.409 . S
C1369 H1361 0.930 . S
C1369 C1367 1.419 . S
C1369 C1370 1.362 . S
C1370 H1362 0.930 . S
C1370 C1369 1.362 . S
C1370 C1373 1.409 . S
C1371 H1363 0.930 . S
C1371 C1372 1.355 . S
C1371 C1373 1.415 . S
C1372 C1371 1.355 . S
C1372 C1374 1.419 . S
C1373 C1368 1.425 . S
C1373 C1370 1.409 . S
C1373 C1371 1.415 . S
C1374 H1364 0.930 . S
C1374 C1372 1.419 . S
C1374 C1375 1.362 . S
C1375 H1365 0.930 . S
C1375 C1368 1.409 . S
C1375 C1374 1.362 . S
H1376 C1382 0.930 . S
H1377 C1385 0.930 . S
H1378 C1386 0.930 . S
H1379 C1387 0.930 . S
H1380 C1390 0.930 . S
H1381 C1391 0.930 . S
C1382 H1376 0.930 . S
C1382 C1383 1.355 . S
C1382 C1384 1.415 . S
C1383 C1382 1.355 . S
C1383 C1385 1.419 . S
C1384 C1382 1.415 . S
C1384 C1389 1.425 . S
C1384 C1391 1.409 . S
C1385 H1377 0.930 . S
C1385 C1383 1.419 . S
C1385 C1386 1.362 . S
C1386 H1378 0.930 . S
C1386 C1385 1.362 . S
C1386 C1389 1.409 . S
C1387 H1379 0.930 . S
C1387 C1388 1.355 . S
C1387 C1389 1.415 . S
C1388 C1387 1.355 . S
C1388 C1390 1.419 . S
C1389 C1384 1.425 . S
C1389 C1386 1.409 . S
C1389 C1387 1.415 . S
C1390 H1380 0.930 . S
C1390 C1388 1.419 . S
C1390 C1391 1.362 . S
C1391 H1381 0.930 . S
C1391 C1384 1.409 . S
C1391 C1390 1.362 . S
H1392 C1398 0.930 . S
H1393 C1401 0.930 . S
H1394 C1402 0.930 . S
H1395 C1403 0.930 . S
H1396 C1406 0.930 . S
H1397 C1407 0.930 . S
C1398 H1392 0.930 . S
C1398 C1399 1.355 . S
C1398 C1400 1.415 . S
C1399 C1398 1.355 . S
C1399 C1401 1.419 . S
C1400 C1398 1.415 . S
C1400 C1405 1.425 . S
C1400 C1407 1.409 . S
C1401 H1393 0.930 . S
C1401 C1399 1.419 . S
C1401 C1402 1.362 . S
C1402 H1394 0.930 . S
C1402 C1401 1.362 . S
C1402 C1405 1.409 . S
C1403 H1395 0.930 . S
C1403 C1404 1.355 . S
C1403 C1405 1.415 . S
C1404 C1403 1.355 . S
C1404 C1406 1.419 . S
C1405 C1400 1.425 . S
C1405 C1402 1.409 . S
C1405 C1403 1.415 . S
C1406 H1396 0.930 . S
C1406 C1404 1.419 . S
C1406 C1407 1.362 . S
C1407 H1397 0.930 . S
C1407 C1400 1.409 . S
C1407 C1406 1.362 . S
H1408 C1414 0.930 . S
H1409 C1417 0.930 . S
H1410 C1418 0.930 . S
H1411 C1419 0.930 . S
H1412 C1422 0.930 . S
H1413 C1423 0.930 . S
C1414 H1408 0.930 . S
C1414 C1415 1.355 . S
C1414 C1416 1.415 . S
C1415 C1414 1.355 . S
C1415 C1417 1.419 . S
C1416 C1414 1.415 . S
C1416 C1421 1.425 . S
C1416 C1423 1.409 . S
C1417 H1409 0.930 . S
C1417 C1415 1.419 . S
C1417 C1418 1.362 . S
C1418 H1410 0.930 . S
C1418 C1417 1.362 . S
C1418 C1421 1.409 . S
C1419 H1411 0.930 . S
C1419 C1420 1.355 . S
C1419 C1421 1.415 . S
C1420 C1419 1.355 . S
C1420 C1422 1.419 . S
C1421 C1416 1.425 . S
C1421 C1418 1.409 . S
C1421 C1419 1.415 . S
C1422 H1412 0.930 . S
C1422 C1420 1.419 . S
C1422 C1423 1.362 . S
C1423 H1413 0.930 . S
C1423 C1416 1.409 . S
C1423 C1422 1.362 . S
H1424 C1430 0.930 . S
H1425 C1433 0.930 . S
H1426 C1434 0.930 . S
H1427 C1435 0.930 . S
H1428 C1438 0.930 . S
H1429 C1439 0.930 . S
C1430 H1424 0.930 . S
C1430 C1431 1.355 . S
C1430 C1432 1.415 . S
C1431 C1430 1.355 . S
C1431 C1433 1.419 . S
C1432 C1430 1.415 . S
C1432 C1437 1.425 . S
C1432 C1439 1.409 . S
C1433 H1425 0.930 . S
C1433 C1431 1.419 . S
C1433 C1434 1.362 . S
C1434 H1426 0.930 . S
C1434 C1433 1.362 . S
C1434 C1437 1.409 . S
C1435 H1427 0.930 . S
C1435 C1436 1.355 . S
C1435 C1437 1.415 . S
C1436 C1435 1.355 . S
C1436 C1438 1.419 . S
C1437 C1432 1.425 . S
C1437 C1434 1.409 . S
C1437 C1435 1.415 . S
C1438 H1428 0.930 . S
C1438 C1436 1.419 . S
C1438 C1439 1.362 . S
C1439 H1429 0.930 . S
C1439 C1432 1.409 . S
C1439 C1438 1.362 . S
H1440 C1446 0.930 . S
H1441 C1449 0.930 . S
H1442 C1450 0.930 . S
H1443 C1451 0.930 . S
H1444 C1454 0.930 . S
H1445 C1455 0.930 . S
C1446 H1440 0.930 . S
C1446 C1447 1.355 . S
C1446 C1448 1.415 . S
C1447 C1446 1.355 . S
C1447 C1449 1.419 . S
C1448 C1446 1.415 . S
C1448 C1453 1.425 . S
C1448 C1455 1.409 . S
C1449 H1441 0.930 . S
C1449 C1447 1.419 . S
C1449 C1450 1.362 . S
C1450 H1442 0.930 . S
C1450 C1449 1.362 . S
C1450 C1453 1.409 . S
C1451 H1443 0.930 . S
C1451 C1452 1.355 . S
C1451 C1453 1.415 . S
C1452 C1451 1.355 . S
C1452 C1454 1.419 . S
C1453 C1448 1.425 . S
C1453 C1450 1.409 . S
C1453 C1451 1.415 . S
C1454 H1444 0.930 . S
C1454 C1452 1.419 . S
C1454 C1455 1.362 . S
C1455 H1445 0.930 . S
C1455 C1448 1.409 . S
C1455 C1454 1.362 . S
H1456 C1462 0.930 . S
H1457 C1465 0.930 . S
H1458 C1466 0.930 . S
H1459 C1467 0.930 . S
H1460 C1470 0.930 . S
H1461 C1471 0.930 . S
C1462 H1456 0.930 . S
C1462 C1463 1.355 . S
C1462 C1464 1.415 . S
C1463 C1462 1.355 . S
C1463 C1465 1.419 . S
C1464 C1462 1.415 . S
C1464 C1469 1.425 . S
C1464 C1471 1.409 . S
C1465 H1457 0.930 . S
C1465 C1463 1.419 . S
C1465 C1466 1.362 . S
C1466 H1458 0.930 . S
C1466 C1465 1.362 . S
C1466 C1469 1.409 . S
C1467 H1459 0.930 . S
C1467 C1468 1.355 . S
C1467 C1469 1.415 . S
C1468 C1467 1.355 . S
C1468 C1470 1.419 . S
C1469 C1464 1.425 . S
C1469 C1466 1.409 . S
C1469 C1467 1.415 . S
C1470 H1460 0.930 . S
C1470 C1468 1.419 . S
C1470 C1471 1.362 . S
C1471 H1461 0.930 . S
C1471 C1464 1.409 . S
C1471 C1470 1.362 . S
H1472 C1478 0.930 . S
H1473 C1481 0.930 . S
H1474 C1482 0.930 . S
H1475 C1483 0.930 . S
H1476 C1486 0.930 . S
H1477 C1487 0.930 . S
C1478 H1472 0.930 . S
C1478 C1479 1.355 . S
C1478 C1480 1.415 . S
C1479 C1478 1.355 . S
C1479 C1481 1.419 . S
C1480 C1478 1.415 . S
C1480 C1485 1.425 . S
C1480 C1487 1.409 . S
C1481 H1473 0.930 . S
C1481 C1479 1.419 . S
C1481 C1482 1.362 . S
C1482 H1474 0.930 . S
C1482 C1481 1.362 . S
C1482 C1485 1.409 . S
C1483 H1475 0.930 . S
C1483 C1484 1.355 . S
C1483 C1485 1.415 . S
C1484 C1483 1.355 . S
C1484 C1486 1.419 . S
C1485 C1480 1.425 . S
C1485 C1482 1.409 . S
C1485 C1483 1.415 . S
C1486 H1476 0.930 . S
C1486 C1484 1.419 . S
C1486 C1487 1.362 . S
C1487 H1477 0.930 . S
C1487 C1480 1.409 . S
C1487 C1486 1.362 . S
H1488 C1494 0.930 . S
H1489 C1497 0.930 . S
H1490 C1498 0.930 . S
H1491 C1499 0.930 . S
H1492 C1502 0.930 . S
H1493 C1503 0.930 . S
C1494 H1488 0.930 . S
C1494 C1495 1.355 . S
C1494 C1496 1.415 . S
C1495 C1494 1.355 . S
C1495 C1497 1.419 . S
C1496 C1494 1.415 . S
C1496 C1501 1.425 . S
C1496 C1503 1.409 . S
C1497 H1489 0.930 . S
C1497 C1495 1.419 . S
C1497 C1498 1.362 . S
C1498 H1490 0.930 . S
C1498 C1497 1.362 . S
C1498 C1501 1.409 . S
C1499 H1491 0.930 . S
C1499 C1500 1.355 . S
C1499 C1501 1.415 . S
C1500 C1499 1.355 . S
C1500 C1502 1.419 . S
C1501 C1496 1.425 . S
C1501 C1498 1.409 . S
C1501 C1499 1.415 . S
C1502 H1492 0.930 . S
C1502 C1500 1.419 . S
C1502 C1503 1.362 . S
C1503 H1493 0.930 . S
C1503 C1496 1.409 . S
C1503 C1502 1.362 . S
H1504 C1510 0.930 . S
H1505 C1513 0.930 . S
H1506 C1514 0.930 . S
H1507 C1515 0.930 . S
H1508 C1518 0.930 . S
H1509 C1519 0.930 . S
C1510 H1504 0.930 . S
C1510 C1511 1.355 . S
C1510 C1512 1.415 . S
C1511 C1510 1.355 . S
C1511 C1513 1.419 . S
C1512 C1510 1.415 . S
C1512 C1517 1.425 . S
C1512 C1519 1.409 . S
C1513 H1505 0.930 . S
C1513 C1511 1.419 . S
C1513 C1514 1.362 . S
C1514 H1506 0.930 . S
C1514 C1513 1.362 . S
C1514 C1517 1.409 . S
C1515 H1507 0.930 . S
C1515 C1516 1.355 . S
C1515 C1517 1.415 . S
C1516 C1515 1.355 . S
C1516 C1518 1.419 . S
C1517 C1512 1.425 . S
C1517 C1514 1.409 . S
C1517 C1515 1.415 . S
C1518 H1508 0.930 . S
C1518 C1516 1.419 . S
C1518 C1519 1.362 . S
C1519 H1509 0.930 . S
C1519 C1512 1.409 . S
C1519 C1518 1.362 . S
H1520 C1526 0.930 . S
H1521 C1529 0.930 . S
H1522 C1530 0.930 . S
H1523 C1531 0.930 . S
H1524 C1534 0.930 . S
H1525 C1535 0.930 . S
C1526 H1520 0.930 . S
C1526 C1527 1.355 . S
C1526 C1528 1.415 . S
C1527 C1526 1.355 . S
C1527 C1529 1.419 . S
C1528 C1526 1.415 . S
C1528 C1533 1.425 . S
C1528 C1535 1.409 . S
C1529 H1521 0.930 . S
C1529 C1527 1.419 . S
C1529 C1530 1.362 . S
C1530 H1522 0.930 . S
C1530 C1529 1.362 . S
C1530 C1533 1.409 . S
C1531 H1523 0.930 . S
C1531 C1532 1.355 . S
C1531 C1533 1.415 . S
C1532 C1531 1.355 . S
C1532 C1534 1.419 . S
C1533 C1528 1.425 . S
C1533 C1530 1.409 . S
C1533 C1531 1.415 . S
C1534 H1524 0.930 . S
C1534 C1532 1.419 . S
C1534 C1535 1.362 . S
C1535 H1525 0.930 . S
C1535 C1528 1.409 . S
C1535 C1534 1.362 . S
H1536 C1542 0.930 . S
H1537 C1545 0.930 . S
H1538 C1546 0.930 . S
H1539 C1547 0.930 . S
H1540 C1550 0.930 . S
H1541 C1551 0.930 . S
C1542 H1536 0.930 . S
C1542 C1543 1.355 . S
C1542 C1544 1.415 . S
C1543 C1542 1.355 . S
C1543 C1545 1.419 . S
C1544 C1542 1.415 . S
C1544 C1549 1.425 . S
C1544 C1551 1.409 . S
C1545 H1537 0.930 . S
C1545 C1543 1.419 . S
C1545 C1546 1.362 . S
C1546 H1538 0.930 . S
C1546 C1545 1.362 . S
C1546 C1549 1.409 . S
C1547 H1539 0.930 . S
C1547 C1548 1.355 . S
C1547 C1549 1.415 . S
C1548 C1547 1.355 . S
C1548 C1550 1.419 . S
C1549 C1544 1.425 . S
C1549 C1546 1.409 . S
C1549 C1547 1.415 . S
C1550 H1540 0.930 . S
C1550 C1548 1.419 . S
C1550 C1551 1.362 . S
C1551 H1541 0.930 . S
C1551 C1544 1.409 . S
C1551 C1550 1.362 . S
H1552 C1558 0.930 . S
H1553 C1561 0.930 . S
H1554 C1562 0.930 . S
H1555 C1563 0.930 . S
H1556 C1566 0.930 . S
H1557 C1567 0.930 . S
C1558 H1552 0.930 . S
C1558 C1559 1.355 . S
C1558 C1560 1.415 . S
C1559 C1558 1.355 . S
C1559 C1561 1.419 . S
C1560 C1558 1.415 . S
C1560 C1565 1.425 . S
C1560 C1567 1.409 . S
C1561 H1553 0.930 . S
C1561 C1559 1.419 . S
C1561 C1562 1.362 . S
C1562 H1554 0.930 . S
C1562 C1561 1.362 . S
C1562 C1565 1.409 . S
C1563 H1555 0.930 . S
C1563 C1564 1.355 . S
C1563 C1565 1.415 . S
C1564 C1563 1.355 . S
C1564 C1566 1.419 . S
C1565 C1560 1.425 . S
C1565 C1562 1.409 . S
C1565 C1563 1.415 . S
C1566 H1556 0.930 . S
C1566 C1564 1.419 . S
C1566 C1567 1.362 . S
C1567 H1557 0.930 . S
C1567 C1560 1.409 . S
C1567 C1566 1.362 . S
H1568 C1574 0.930 . S
H1569 C1577 0.930 . S
H1570 C1578 0.930 . S
H1571 C1579 0.930 . S
H1572 C1582 0.930 . S
H1573 C1583 0.930 . S
C1574 H1568 0.930 . S
C1574 C1575 1.355 . S
C1574 C1576 1.415 . S
C1575 C1574 1.355 . S
C1575 C1577 1.419 . S
C1576 C1574 1.415 . S
C1576 C1581 1.425 . S
C1576 C1583 1.409 . S
C1577 H1569 0.930 . S
C1577 C1575 1.419 . S
C1577 C1578 1.362 . S
C1578 H1570 0.930 . S
C1578 C1577 1.362 . S
C1578 C1581 1.409 . S
C1579 H1571 0.930 . S
C1579 C1580 1.355 . S
C1579 C1581 1.415 . S
C1580 C1579 1.355 . S
C1580 C1582 1.419 . S
C1581 C1576 1.425 . S
C1581 C1578 1.409 . S
C1581 C1579 1.415 . S
C1582 H1572 0.930 . S
C1582 C1580 1.419 . S
C1582 C1583 1.362 . S
C1583 H1573 0.930 . S
C1583 C1576 1.409 . S
C1583 C1582 1.362 . S
H1584 C1590 0.930 . S
H1585 C1593 0.930 . S
H1586 C1594 0.930 . S
H1587 C1595 0.930 . S
H1588 C1598 0.930 . S
H1589 C1599 0.930 . S
C1590 H1584 0.930 . S
C1590 C1591 1.355 . S
C1590 C1592 1.415 . S
C1591 C1590 1.355 . S
C1591 C1593 1.419 . S
C1592 C1590 1.415 . S
C1592 C1597 1.425 . S
C1592 C1599 1.409 . S
C1593 H1585 0.930 . S
C1593 C1591 1.419 . S
C1593 C1594 1.362 . S
C1594 H1586 0.930 . S
C1594 C1593 1.362 . S
C1594 C1597 1.409 . S
C1595 H1587 0.930 . S
C1595 C1596 1.355 . S
C1595 C1597 1.415 . S
C1596 C1595 1.355 . S
C1596 C1598 1.419 . S
C1597 C1592 1.425 . S
C1597 C1594 1.409 . S
C1597 C1595 1.415 . S
C1598 H1588 0.930 . S
C1598 C1596 1.419 . S
C1598 C1599 1.362 . S
C1599 H1589 0.930 . S
C1599 C1592 1.409 . S
C1599 C1598 1.362 . S
H1600 C1606 0.930 . S
H1601 C1609 0.930 . S
H1602 C1610 0.930 . S
H1603 C1611 0.930 . S
H1604 C1614 0.930 . S
H1605 C1615 0.930 . S
C1606 H1600 0.930 . S
C1606 C1607 1.355 . S
C1606 C1608 1.415 . S
C1607 C1606 1.355 . S
C1607 C1609 1.419 . S
C1608 C1606 1.415 . S
C1608 C1613 1.425 . S
C1608 C1615 1.409 . S
C1609 H1601 0.930 . S
C1609 C1607 1.419 . S
C1609 C1610 1.362 . S
C1610 H1602 0.930 . S
C1610 C1609 1.362 . S
C1610 C1613 1.409 . S
C1611 H1603 0.930 . S
C1611 C1612 1.355 . S
C1611 C1613 1.415 . S
C1612 C1611 1.355 . S
C1612 C1614 1.419 . S
C1613 C1608 1.425 . S
C1613 C1610 1.409 . S
C1613 C1611 1.415 . S
C1614 H1604 0.930 . S
C1614 C1612 1.419 . S
C1614 C1615 1.362 . S
C1615 H1605 0.930 . S
C1615 C1608 1.409 . S
C1615 C1614 1.362 . S
H1616 C1622 0.930 . S
H1617 C1625 0.930 . S
H1618 C1626 0.930 . S
H1619 C1627 0.930 . S
H1620 C1630 0.930 . S
H1621 C1631 0.930 . S
C1622 H1616 0.930 . S
C1622 C1623 1.355 . S
C1622 C1624 1.415 . S
C1623 C1622 1.355 . S
C1623 C1625 1.419 . S
C1624 C1622 1.415 . S
C1624 C1629 1.425 . S
C1624 C1631 1.409 . S
C1625 H1617 0.930 . S
C1625 C1623 1.419 . S
C1625 C1626 1.362 . S
C1626 H1618 0.930 . S
C1626 C1625 1.362 . S
C1626 C1629 1.409 . S
C1627 H1619 0.930 . S
C1627 C1628 1.355 . S
C1627 C1629 1.415 . S
C1628 C1627 1.355 . S
C1628 C1630 1.419 . S
C1629 C1624 1.425 . S
C1629 C1626 1.409 . S
C1629 C1627 1.415 . S
C1630 H1620 0.930 . S
C1630 C1628 1.419 . S
C1630 C1631 1.362 . S
C1631 H1621 0.930 . S
C1631 C1624 1.409 . S
C1631 C1630 1.362 . S
H1632 C1638 0.930 . S
H1633 C1641 0.930 . S
H1634 C1642 0.930 . S
H1635 C1643 0.930 . S
H1636 C1646 0.930 . S
H1637 C1647 0.930 . S
C1638 H1632 0.930 . S
C1638 C1639 1.355 . S
C1638 C1640 1.415 . S
C1639 C1638 1.355 . S
C1639 C1641 1.419 . S
C1640 C1638 1.415 . S
C1640 C1645 1.425 . S
C1640 C1647 1.409 . S
C1641 H1633 0.930 . S
C1641 C1639 1.419 . S
C1641 C1642 1.362 . S
C1642 H1634 0.930 . S
C1642 C1641 1.362 . S
C1642 C1645 1.409 . S
C1643 H1635 0.930 . S
C1643 C1644 1.355 . S
C1643 C1645 1.415 . S
C1644 C1643 1.355 . S
C1644 C1646 1.419 . S
C1645 C1640 1.425 . S
C1645 C1642 1.409 . S
C1645 C1643 1.415 . S
C1646 H1636 0.930 . S
C1646 C1644 1.419 . S
C1646 C1647 1.362 . S
C1647 H1637 0.930 . S
C1647 C1640 1.409 . S
C1647 C1646 1.362 . S
H1648 C1654 0.930 . S
H1649 C1657 0.930 . S
H1650 C1658 0.930 . S
H1651 C1659 0.930 . S
H1652 C1662 0.930 . S
H1653 C1663 0.930 . S
C1654 H1648 0.930 . S
C1654 C1655 1.355 . S
C1654 C1656 1.415 . S
C1655 C1654 1.355 . S
C1655 C1657 1.419 . S
C1656 C1654 1.415 . S
C1656 C1661 1.425 . S
C1656 C1663 1.409 . S
C1657 H1649 0.930 . S
C1657 C1655 1.419 . S
C1657 C1658 1.362 . S
C1658 H1650 0.930 . S
C1658 C1657 1.362 . S
C1658 C1661 1.409 . S
C1659 H1651 0.930 . S
C1659 C1660 1.355 . S
C1659 C1661 1.415 . S
C1660 C1659 1.355 . S
C1660 C1662 1.419 . S
C1661 C1656 1.425 . S
C1661 C1658 1.409 . S
C1661 C1659 1.415 . S
C1662 H1652 0.930 . S
C1662 C1660 1.419 . S
C1662 C1663 1.362 . S
C1663 H1653 0.930 . S
C1663 C1656 1.409 . S
C1663 C1662 1.362 . S
H1664 C1670 0.930 . S
H1665 C1673 0.930 . S
H1666 C1674 0.930 . S
H1667 C1675 0.930 . S
H1668 C1678 0.930 . S
H1669 C1679 0.930 . S
C1670 H1664 0.930 . S
C1670 C1671 1.355 . S
C1670 C1672 1.415 . S
C1671 C1670 1.355 . S
C1671 C1673 1.419 . S
C1672 C1670 1.415 . S
C1672 C1677 1.425 . S
C1672 C1679 1.409 . S
C1673 H1665 0.930 . S
C1673 C1671 1.419 . S
C1673 C1674 1.362 . S
C1674 H1666 0.930 . S
C1674 C1673 1.362 . S
C1674 C1677 1.409 . S
C1675 H1667 0.930 . S
C1675 C1676 1.355 . S
C1675 C1677 1.415 . S
C1676 C1675 1.355 . S
C1676 C1678 1.419 . S
C1677 C1672 1.425 . S
C1677 C1674 1.409 . S
C1677 C1675 1.415 . S
C1678 H1668 0.930 . S
C1678 C1676 1.419 . S
C1678 C1679 1.362 . S
C1679 H1669 0.930 . S
C1679 C1672 1.409 . S
C1679 C1678 1.362 . S
H1680 C1686 0.930 . S
H1681 C1689 0.930 . S
H1682 C1690 0.930 . S
H1683 C1691 0.930 . S
H1684 C1694 0.930 . S
H1685 C1695 0.930 . S
C1686 H1680 0.930 . S
C1686 C1687 1.355 . S
C1686 C1688 1.415 . S
C1687 C1686 1.355 . S
C1687 C1689 1.419 . S
C1688 C1686 1.415 . S
C1688 C1693 1.425 . S
C1688 C1695 1.409 . S
C1689 H1681 0.930 . S
C1689 C1687 1.419 . S
C1689 C1690 1.362 . S
C1690 H1682 0.930 . S
C1690 C1689 1.362 . S
C1690 C1693 1.409 . S
C1691 H1683 0.930 . S
C1691 C1692 1.355 . S
C1691 C1693 1.415 . S
C1692 C1691 1.355 . S
C1692 C1694 1.419 . S
C1693 C1688 1.425 . S
C1693 C1690 1.409 . S
C1693 C1691 1.415 . S
C1694 H1684 0.930 . S
C1694 C1692 1.419 . S
C1694 C1695 1.362 . S
C1695 H1685 0.930 . S
C1695 C1688 1.409 . S
C1695 C1694 1.362 . S
H1696 C1702 0.930 . S
H1697 C1705 0.930 . S
H1698 C1706 0.930 . S
H1699 C1707 0.930 . S
H1700 C1710 0.930 . S
H1701 C1711 0.930 . S
C1702 H1696 0.930 . S
C1702 C1703 1.355 . S
C1702 C1704 1.415 . S
C1703 C1702 1.355 . S
C1703 C1705 1.419 . S
C1704 C1702 1.415 . S
C1704 C1709 1.425 . S
C1704 C1711 1.409 . S
C1705 H1697 0.930 . S
C1705 C1703 1.419 . S
C1705 C1706 1.362 . S
C1706 H1698 0.930 . S
C1706 C1705 1.362 . S
C1706 C1709 1.409 . S
C1707 H1699 0.930 . S
C1707 C1708 1.355 . S
C1707 C1709 1.415 . S
C1708 C1707 1.355 . S
C1708 C1710 1.419 . S
C1709 C1704 1.425 . S
C1709 C1706 1.409 . S
C1709 C1707 1.415 . S
C1710 H1700 0.930 . S
C1710 C1708 1.419 . S
C1710 C1711 1.362 . S
C1711 H1701 0.930 . S
C1711 C1704 1.409 . S
C1711 C1710 1.362 . S
H1712 C1718 0.930 . S
H1713 C1721 0.930 . S
H1714 C1722 0.930 . S
H1715 C1723 0.930 . S
H1716 C1726 0.930 . S
H1717 C1727 0.930 . S
C1718 H1712 0.930 . S
C1718 C1719 1.355 . S
C1718 C1720 1.415 . S
C1719 C1718 1.355 . S
C1719 C1721 1.419 . S
C1720 C1718 1.415 . S
C1720 C1725 1.425 . S
C1720 C1727 1.409 . S
C1721 H1713 0.930 . S
C1721 C1719 1.419 . S
C1721 C1722 1.362 . S
C1722 H1714 0.930 . S
C1722 C1721 1.362 . S
C1722 C1725 1.409 . S
C1723 H1715 0.930 . S
C1723 C1724 1.355 . S
C1723 C1725 1.415 . S
C1724 C1723 1.355 . S
C1724 C1726 1.419 . S
C1725 C1720 1.425 . S
C1725 C1722 1.409 . S
C1725 C1723 1.415 . S
C1726 H1716 0.930 . S
C1726 C1724 1.419 . S
C1726 C1727 1.362 . S
C1727 H1717 0.930 . S
C1727 C1720 1.409 . S
C1727 C1726 1.362 . S
H1728 C1734 0.930 . S
H1729 C1737 0.930 . S
H1730 C1738 0.930 . S
H1731 C1739 0.930 . S
H1732 C1742 0.930 . S
H1733 C1743 0.930 . S
C1734 H1728 0.930 . S
C1734 C1735 1.355 . S
C1734 C1736 1.415 . S
C1735 C1734 1.355 . S
C1735 C1737 1.419 . S
C1736 C1734 1.415 . S
C1736 C1741 1.425 . S
C1736 C1743 1.409 . S
C1737 H1729 0.930 . S
C1737 C1735 1.419 . S
C1737 C1738 1.362 . S
C1738 H1730 0.930 . S
C1738 C1737 1.362 . S
C1738 C1741 1.409 . S
C1739 H1731 0.930 . S
C1739 C1740 1.355 . S
C1739 C1741 1.415 . S
C1740 C1739 1.355 . S
C1740 C1742 1.419 . S
C1741 C1736 1.425 . S
C1741 C1738 1.409 . S
C1741 C1739 1.415 . S
C1742 H1732 0.930 . S
C1742 C1740 1.419 . S
C1742 C1743 1.362 . S
C1743 H1733 0.930 . S
C1743 C1736 1.409 . S
C1743 C1742 1.362 . S
H1744 C1750 0.930 . S
H1745 C1753 0.930 . S
H1746 C1754 0.930 . S
H1747 C1755 0.930 . S
H1748 C1758 0.930 . S
H1749 C1759 0.930 . S
C1750 H1744 0.930 . S
C1750 C1751 1.355 . S
C1750 C1752 1.415 . S
C1751 C1750 1.355 . S
C1751 C1753 1.419 . S
C1752 C1750 1.415 . S
C1752 C1757 1.425 . S
C1752 C1759 1.409 . S
C1753 H1745 0.930 . S
C1753 C1751 1.419 . S
C1753 C1754 1.362 . S
C1754 H1746 0.930 . S
C1754 C1753 1.362 . S
C1754 C1757 1.409 . S
C1755 H1747 0.930 . S
C1755 C1756 1.355 . S
C1755 C1757 1.415 . S
C1756 C1755 1.355 . S
C1756 C1758 1.419 . S
C1757 C1752 1.425 . S
C1757 C1754 1.409 . S
C1757 C1755 1.415 . S
C1758 H1748 0.930 . S
C1758 C1756 1.419 . S
C1758 C1759 1.362 . S
C1759 H1749 0.930 . S
C1759 C1752 1.409 . S
C1759 C1758 1.362 . S
H1760 C1766 0.930 . S
H1761 C1769 0.930 . S
H1762 C1770 0.930 . S
H1763 C1771 0.930 . S
H1764 C1774 0.930 . S
H1765 C1775 0.930 . S
C1766 H1760 0.930 . S
C1766 C1767 1.355 . S
C1766 C1768 1.415 . S
C1767 C1766 1.355 . S
C1767 C1769 1.419 . S
C1768 C1766 1.415 . S
C1768 C1773 1.425 . S
C1768 C1775 1.409 . S
C1769 H1761 0.930 . S
C1769 C1767 1.419 . S
C1769 C1770 1.362 . S
C1770 H1762 0.930 . S
C1770 C1769 1.362 . S
C1770 C1773 1.409 . S
C1771 H1763 0.930 . S
C1771 C1772 1.355 . S
C1771 C1773 1.415 . S
C1772 C1771 1.355 . S
C1772 C1774 1.419 . S
C1773 C1768 1.425 . S
C1773 C1770 1.409 . S
C1773 C1771 1.415 . S
C1774 H1764 0.930 . S
C1774 C1772 1.419 . S
C1774 C1775 1.362 . S
C1775 H1765 0.930 . S
C1775 C1768 1.409 . S
C1775 C1774 1.362 . S
H1776 C1782 0.930 . S
H1777 C1785 0.930 . S
H1778 C1786 0.930 . S
H1779 C1787 0.930 . S
H1780 C1790 0.930 . S
H1781 C1791 0.930 . S
C1782 H1776 0.930 . S
C1782 C1783 1.355 . S
C1782 C1784 1.415 . S
C1783 C1782 1.355 . S
C1783 C1785 1.419 . S
C1784 C1782 1.415 . S
C1784 C1789 1.425 . S
C1784 C1791 1.409 . S
C1785 H1777 0.930 . S
C1785 C1783 1.419 . S
C1785 C1786 1.362 . S
C1786 H1778 0.930 . S
C1786 C1785 1.362 . S
C1786 C1789 1.409 . S
C1787 H1779 0.930 . S
C1787 C1788 1.355 . S
C1787 C1789 1.415 . S
C1788 C1787 1.355 . S
C1788 C1790 1.419 . S
C1789 C1784 1.425 . S
C1789 C1786 1.409 . S
C1789 C1787 1.415 . S
C1790 H1780 0.930 . S
C1790 C1788 1.419 . S
C1790 C1791 1.362 . S
C1791 H1781 0.930 . S
C1791 C1784 1.409 . S
C1791 C1790 1.362 . S
H1792 C1798 0.930 . S
H1793 C1801 0.930 . S
H1794 C1802 0.930 . S
H1795 C1803 0.930 . S
H1796 C1806 0.930 . S
H1797 C1807 0.930 . S
C1798 H1792 0.930 . S
C1798 C1799 1.355 . S
C1798 C1800 1.415 . S
C1799 C1798 1.355 . S
C1799 C1801 1.419 . S
C1800 C1798 1.415 . S
C1800 C1805 1.425 . S
C1800 C1807 1.409 . S
C1801 H1793 0.930 . S
C1801 C1799 1.419 . S
C1801 C1802 1.362 . S
C1802 H1794 0.930 . S
C1802 C1801 1.362 . S
C1802 C1805 1.409 . S
C1803 H1795 0.930 . S
C1803 C1804 1.355 . S
C1803 C1805 1.415 . S
C1804 C1803 1.355 . S
C1804 C1806 1.419 . S
C1805 C1800 1.425 . S
C1805 C1802 1.409 . S
C1805 C1803 1.415 . S
C1806 H1796 0.930 . S
C1806 C1804 1.419 . S
C1806 C1807 1.362 . S
C1807 H1797 0.930 . S
C1807 C1800 1.409 . S
C1807 C1806 1.362 . S
H1808 C1814 0.930 . S
H1809 C1817 0.930 . S
H1810 C1818 0.930 . S
H1811 C1819 0.930 . S
H1812 C1822 0.930 . S
H1813 C1823 0.930 . S
C1814 H1808 0.930 . S
C1814 C1815 1.355 . S
C1814 C1816 1.415 . S
C1815 C1814 1.355 . S
C1815 C1817 1.419 . S
C1816 C1814 1.415 . S
C1816 C1821 1.425 . S
C1816 C1823 1.409 . S
C1817 H1809 0.930 . S
C1817 C1815 1.419 . S
C1817 C1818 1.362 . S
C1818 H1810 0.930 . S
C1818 C1817 1.362 . S
C1818 C1821 1.409 . S
C1819 H1811 0.930 . S
C1819 C1820 1.355 . S
C1819 C1821 1.415 . S
C1820 C1819 1.355 . S
C1820 C1822 1.419 . S
C1821 C1816 1.425 . S
C1821 C1818 1.409 . S
C1821 C1819 1.415 . S
C1822 H1812 0.930 . S
C1822 C1820 1.419 . S
C1822 C1823 1.362 . S
C1823 H1813 0.930 . S
C1823 C1816 1.409 . S
C1823 C1822 1.362 . S
H1824 C1830 0.930 . S
H1825 C1833 0.930 . S
H1826 C1834 0.930 . S
H1827 C1835 0.930 . S
H1828 C1838 0.930 . S
H1829 C1839 0.930 . S
C1830 H1824 0.930 . S
C1830 C1831 1.355 . S
C1830 C1832 1.415 . S
C1831 C1830 1.355 . S
C1831 C1833 1.419 . S
C1832 C1830 1.415 . S
C1832 C1837 1.425 . S
C1832 C1839 1.409 . S
C1833 H1825 0.930 . S
C1833 C1831 1.419 . S
C1833 C1834 1.362 . S
C1834 H1826 0.930 . S
C1834 C1833 1.362 . S
C1834 C1837 1.409 . S
C1835 H1827 0.930 . S
C1835 C1836 1.355 . S
C1835 C1837 1.415 . S
C1836 C1835 1.355 . S
C1836 C1838 1.419 . S
C1837 C1832 1.425 . S
C1837 C1834 1.409 . S
C1837 C1835 1.415 . S
C1838 H1828 0.930 . S
C1838 C1836 1.419 . S
C1838 C1839 1.362 . S
C1839 H1829 0.930 . S
C1839 C1832 1.409 . S
C1839 C1838 1.362 . S
H1840 C1846 0.930 . S
H1841 C1849 0.930 . S
H1842 C1850 0.930 . S
H1843 C1851 0.930 . S
H1844 C1854 0.930 . S
H1845 C1855 0.930 . S
C1846 H1840 0.930 . S
C1846 C1847 1.355 . S
C1846 C1848 1.415 . S
C1847 C1846 1.355 . S
C1847 C1849 1.419 . S
C1848 C1846 1.415 . S
C1848 C1853 1.425 . S
C1848 C1855 1.409 . S
C1849 H1841 0.930 . S
C1849 C1847 1.419 . S
C1849 C1850 1.362 . S
C1850 H1842 0.930 . S
C1850 C1849 1.362 . S
C1850 C1853 1.409 . S
C1851 H1843 0.930 . S
C1851 C1852 1.355 . S
C1851 C1853 1.415 . S
C1852 C1851 1.355 . S
C1852 C1854 1.419 . S
C1853 C1848 1.425 . S
C1853 C1850 1.409 . S
C1853 C1851 1.415 . S
C1854 H1844 0.930 . S
C1854 C1852 1.419 . S
C1854 C1855 1.362 . S
C1855 H1845 0.930 . S
C1855 C1848 1.409 . S
C1855 C1854 1.362 . S
H1856 C1862 0.930 . S
H1857 C1865 0.930 . S
H1858 C1866 0.930 . S
H1859 C1867 0.930 . S
H1860 C1870 0.930 . S
H1861 C1871 0.930 . S
C1862 H1856 0.930 . S
C1862 C1863 1.355 . S
C1862 C1864 1.415 . S
C1863 C1862 1.355 . S
C1863 C1865 1.419 . S
C1864 C1862 1.415 . S
C1864 C1869 1.425 . S
C1864 C1871 1.409 . S
C1865 H1857 0.930 . S
C1865 C1863 1.419 . S
C1865 C1866 1.362 . S
C1866 H1858 0.930 . S
C1866 C1865 1.362 . S
C1866 C1869 1.409 . S
C1867 H1859 0.930 . S
C1867 C1868 1.355 . S
C1867 C1869 1.415 . S
C1868 C1867 1.355 . S
C1868 C1870 1.419 . S
C1869 C1864 1.425 . S
C1869 C1866 1.409 . S
C1869 C1867 1.415 . S
C1870 H1860 0.930 . S
C1870 C1868 1.419 . S
C1870 C1871 1.362 . S
C1871 H1861 0.930 . S
C1871 C1864 1.409 . S
C1871 C1870 1.362 . S
H1872 C1878 0.930 . S
H1873 C1881 0.930 . S
H1874 C1882 0.930 . S
H1875 C1883 0.930 . S
H1876 C1886 0.930 . S
H1877 C1887 0.930 . S
C1878 H1872 0.930 . S
C1878 C1879 1.355 . S
C1878 C1880 1.415 . S
C1879 C1878 1.355 . S
C1879 C1881 1.419 . S
C1880 C1878 1.415 . S
C1880 C1885 1.425 . S
C1880 C1887 1.409 . S
C1881 H1873 0.930 . S
C1881 C1879 1.419 . S
C1881 C1882 1.362 . S
C1882 H1874 0.930 . S
C1882 C1881 1.362 . S
C1882 C1885 1.409 . S
C1883 H1875 0.930 . S
C1883 C1884 1.355 . S
C1883 C1885 1.415 . S
C1884 C1883 1.355 . S
C1884 C1886 1.419 . S
C1885 C1880 1.425 . S
C1885 C1882 1.409 . S
C1885 C1883 1.415 . S
C1886 H1876 0.930 . S
C1886 C1884 1.419 . S
C1886 C1887 1.362 . S
C1887 H1877 0.930 . S
C1887 C1880 1.409 . S
C1887 C1886 1.362 . S
H1888 C1894 0.930 . S
H1889 C1897 0.930 . S
H1890 C1898 0.930 . S
H1891 C1899 0.930 . S
H1892 C1902 0.930 . S
H1893 C1903 0.930 . S
C1894 H1888 0.930 . S
C1894 C1895 1.355 . S
C1894 C1896 1.415 . S
C1895 C1894 1.355 . S
C1895 C1897 1.419 . S
C1896 C1894 1.415 . S
C1896 C1901 1.425 . S
C1896 C1903 1.409 . S
C1897 H1889 0.930 . S
C1897 C1895 1.419 . S
C1897 C1898 1.362 . S
C1898 H1890 0.930 . S
C1898 C1897 1.362 . S
C1898 C1901 1.409 . S
C1899 H1891 0.930 . S
C1899 C1900 1.355 . S
C1899 C1901 1.415 . S
C1900 C1899 1.355 . S
C1900 C1902 1.419 . S
C1901 C1896 1.425 . S
C1901 C1898 1.409 . S
C1901 C1899 1.415 . S
C1902 H1892 0.930 . S
C1902 C1900 1.419 . S
C1902 C1903 1.362 . S
C1903 H1893 0.930 . S
C1903 C1896 1.409 . S
C1903 C1902 1.362 . S
H1904 C1910 0.930 . S
H1905 C1913 0.930 . S
H1906 C1914 0.930 . S
H1907 C1915 0.930 . S
H1908 C1918 0.930 . S
H1909 C1919 0.930 . S
C1910 H1904 0.930 . S
C1910 C1911 1.355 . S
C1910 C1912 1.415 . S
C1911 C1910 1.355 . S
C1911 C1913 1.419 . S
C1912 C1910 1.415 . S
C1912 C1917 1.425 . S
C1912 C1919 1.409 . S
C1913 H1905 0.930 . S
C1913 C1911 1.419 . S
C1913 C1914 1.362 . S
C1914 H1906 0.930 . S
C1914 C1913 1.362 . S
C1914 C1917 1.409 . S
C1915 H1907 0.930 . S
C1915 C1916 1.355 . S
C1915 C1917 1.415 . S
C1916 C1915 1.355 . S
C1916 C1918 1.419 . S
C1917 C1912 1.425 . S
C1917 C1914 1.409 . S
C1917 C1915 1.415 . S
C1918 H1908 0.930 . S
C1918 C1916 1.419 . S
C1918 C1919 1.362 . S
C1919 H1909 0.930 . S
C1919 C1912 1.409 . S
C1919 C1918 1.362 . S
H1920 C1926 0.930 . S
H1921 C1929 0.930 . S
H1922 C1930 0.930 . S
H1923 C1931 0.930 . S
H1924 C1934 0.930 . S
H1925 C1935 0.930 . S
C1926 H1920 0.930 . S
C1926 C1927 1.355 . S
C1926 C1928 1.415 . S
C1927 C1926 1.355 . S
C1927 C1929 1.419 . S
C1928 C1926 1.415 . S
C1928 C1933 1.425 . S
C1928 C1935 1.409 . S
C1929 H1921 0.930 . S
C1929 C1927 1.419 . S
C1929 C1930 1.362 . S
C1930 H1922 0.930 . S
C1930 C1929 1.362 . S
C1930 C1933 1.409 . S
C1931 H1923 0.930 . S
C1931 C1932 1.355 . S
C1931 C1933 1.415 . S
C1932 C1931 1.355 . S
C1932 C1934 1.419 . S
C1933 C1928 1.425 . S
C1933 C1930 1.409 . S
C1933 C1931 1.415 . S
C1934 H1924 0.930 . S
C1934 C1932 1.419 . S
C1934 C1935 1.362 . S
C1935 H1925 0.930 . S
C1935 C1928 1.409 . S
C1935 C1934 1.362 . S
H1936 C1942 0.930 . S
H1937 C1945 0.930 . S
H1938 C1946 0.930 . S
H1939 C1947 0.930 . S
H1940 C1950 0.930 . S
H1941 C1951 0.930 . S
C1942 H1936 0.930 . S
C1942 C1943 1.355 . S
C1942 C1944 1.415 . S
C1943 C1942 1.355 . S
C1943 C1945 1.419 . S
C1944 C1942 1.415 . S
C1944 C1949 1.425 . S
C1944 C1951 1.409 . S
C1945 H1937 0.930 . S
C1945 C1943 1.419 . S
C1945 C1946 1.362 . S
C1946 H1938 0.930 . S
C1946 C1945 1.362 . S
C1946 C1949 1.409 . S
C1947 H1939 0.930 . S
C1947 C1948 1.355 . S
C1947 C1949 1.415 . S
C1948 C1947 1.355 . S
C1948 C1950 1.419 . S
C1949 C1944 1.425 . S
C1949 C1946 1.409 . S
C1949 C1947 1.415 . S
C1950 H1940 0.930 . S
C1950 C1948 1.419 . S
C1950 C1951 1.362 . S
C1951 H1941 0.930 . S
C1951 C1944 1.409 . S
C1951 C1950 1.362 . S
H1952 C1958 0.930 . S
H1953 C1961 0.930 . S
H1954 C1962 0.930 . S
H1955 C1963 0.930 . S
H1956 C1966 0.930 . S
H1957 C1967 0.930 . S
C1958 H1952 0.930 . S
C1958 C1959 1.355 . S
C1958 C1960 1.415 . S
C1959 C1958 1.355 . S
C1959 C1961 1.419 . S
C1960 C1958 1.415 . S
C1960 C1965 1.425 . S
C1960 C1967 1.409 . S
C1961 H1953 0.930 . S
C1961 C1959 1.419 . S
C1961 C1962 1.362 . S
C1962 H1954 0.930 . S
C1962 C1961 1.362 . S
C1962 C1965 1.409 . S
C1963 H1955 0.930 . S
C1963 C1964 1.355 . S
C1963 C1965 1.415 . S
C1964 C1963 1.355 . S
C1964 C1966 1.419 . S
C1965 C1960 1.425 . S
C1965 C1962 1.409 . S
C1965 C1963 1.415 . S
C1966 H1956 0.930 . S
C1966 C1964 1.419 . S
C1966 C1967 1.362 . S
C1967 H1957 0.930 . S
C1967 C1960 1.409 . S
C1967 C1966 1.362 . S
H1968 C1974 0.930 . S
H1969 C1977 0.930 . S
H1970 C1978 0.930 . S
H1971 C1979 0.930 . S
H1972 C1982 0.930 . S
H1973 C1983 0.930 . S
C1974 H1968 0.930 . S
C1974 C1975 1.355 . S
C1974 C1976 1.415 . S
C1975 C1974 1.355 . S
C1975 C1977 1.419 . S
C1976 C1974 1.415 . S
C1976 C1981 1.425 . S
C1976 C1983 1.409 . S
C1977 H1969 0.930 . S
C1977 C1975 1.419 . S
C1977 C1978 1.362 . S
C1978 H1970 0.930 . S
C1978 C1977 1.362 . S
C1978 C1981 1.409 . S
C1979 H1971 0.930 . S
C1979 C1980 1.355 . S
C1979 C1981 1.415 . S
C1980 C1979 1.355 . S
C1980 C1982 1.419 . S
C1981 C1976 1.425 . S
C1981 C1978 1.409 . S
C1981 C1979 1.415 . S
C1982 H1972 0.930 . S
C1982 C1980 1.419 . S
C1982 C1983 1.362 . S
C1983 H1973 0.930 . S
C1983 C1976 1.409 . S
C1983 C1982 1.362 . S
H1984 C1990 0.930 . S
H1985 C1993 0.930 . S
H1986 C1994 0.930 . S
H1987 C1995 0.930 . S
H1988 C1998 0.930 . S
H1989 C1999 0.930 . S
C1990 H1984 0.930 . S
C1990 C1991 1.355 . S
C1990 C1992 1.415 . S
C1991 C1990 1.355 . S
C1991 C1993 1.419 . S
C1992 C1990 1.415 . S
C1992 C1997 1.425 . S
C1992 C1999 1.409 . S
C1993 H1985 0.930 . S
C1993 C1991 1.419 . S
C1993 C1994 1.362 . S
C1994 H1986 0.930 . S
C1994 C1993 1.362 . S
C1994 C1997 1.409 . S
C1995 H1987 0.930 . S
C1995 C1996 1.355 . S
C1995 C1997 1.415 . S
C1996 C1995 1.355 . S
C1996 C1998 1.419 . S
C1997 C1992 1.425 . S
C1997 C1994 1.409 . S
C1997 C1995 1.415 . S
C1998 H1988 0.930 . S
C1998 C1996 1.419 . S
C1998 C1999 1.362 . S
C1999 H1989 0.930 . S
C1999 C1992 1.409 . S
C1999 C1998 1.362 . S
H2000 C2006 0.930 . S
H2001 C2009 0.930 . S
H2002 C2010 0.930 . S
H2003 C2011 0.930 . S
H2004 C2014 0.930 . S
H2005 C2015 0.930 . S
C2006 H2000 0.930 . S
C2006 C2007 1.355 . S
C2006 C2008 1.415 . S
C2007 C2006 1.355 . S
C2007 C2009 1.419 . S
C2008 C2006 1.415 . S
C2008 C2013 1.425 . S
C2008 C2015 1.409 . S
C2009 H2001 0.930 . S
C2009 C2007 1.419 . S
C2009 C2010 1.362 . S
C2010 H2002 0.930 . S
C2010 C2009 1.362 . S
C2010 C2013 1.409 . S
C2011 H2003 0.930 . S
C2011 C2012 1.355 . S
C2011 C2013 1.415 . S
C2012 C2011 1.355 . S
C2012 C2014 1.419 . S
C2013 C2008 1.425 . S
C2013 C2010 1.409 . S
C2013 C2011 1.415 . S
C2014 H2004 0.930 . S
C2014 C2012 1.419 . S
C2014 C2015 1.362 . S
C2015 H2005 0.930 . S
C2015 C2008 1.409 . S
C2015 C2014 1.362 . S
H2016 C2022 0.930 . S
H2017 C2025 0.930 . S
H2018 C2026 0.930 . S
H2019 C2027 0.930 . S
H2020 C2030 0.930 . S
H2021 C2031 0.930 . S
C2022 H2016 0.930 . S
C2022 C2023 1.355 . S
C2022 C2024 1.415 . S
C2023 C2022 1.355 . S
C2023 C2025 1.419 . S
C2024 C2022 1.415 . S
C2024 C2029 1.425 . S
C2024 C2031 1.409 . S
C2025 H2017 0.930 . S
C2025 C2023 1.419 . S
C2025 C2026 1.362 . S
C2026 H2018 0.930 . S
C2026 C2025 1.362 . S
C2026 C2029 1.409 . S
C2027 H2019 0.930 . S
C2027 C2028 1.355 . S
C2027 C2029 1.415 . S
C2028 C2027 1.355 . S
C2028 C2030 1.419 . S
C2029 C2024 1.425 . S
C2029 C2026 1.409 . S
C2029 C2027 1.415 . S
C2030 H2020 0.930 . S
C2030 C2028 1.419 . S
C2030 C2031 1.362 . S
C2031 H2021 0.930 . S
C2031 C2024 1.409 . S
C2031 C2030 1.362 . S
H2032 C2038 0.930 . S
H2033 C2041 0.930 . S
H2034 C2042 0.930 . S
H2035 C2043 0.930 . S
H2036 C2046 0.930 . S
H2037 C2047 0.930 . S
C2038 H2032 0.930 . S
C2038 C2039 1.355 . S
C2038 C2040 1.415 . S
C2039 C2038 1.355 . S
C2039 C2041 1.419 . S
C2040 C2038 1.415 . S
C2040 C2045 1.425 . S
C2040 C2047 1.409 . S
C2041 H2033 0.930 . S
C2041 C2039 1.419 . S
C2041 C2042 1.362 . S
C2042 H2034 0.930 . S
C2042 C2041 1.362 . S
C2042 C2045 1.409 . S
C2043 H2035 0.930 . S
C2043 C2044 1.355 . S
C2043 C2045 1.415 . S
C2044 C2043 1.355 . S
C2044 C2046 1.419 . S
C2045 C2040 1.425 . S
C2045 C2042 1.409 . S
C2045 C2043 1.415 . S
C2046 H2036 0.930 . S
C2046 C2044 1.419 . S
C2046 C2047 1.362 . S
C2047 H2037 0.930 . S
C2047 C2040 1.409 . S
C2047 C2046 1.362 . S
H2048 C2054 0.930 . S
H2049 C2057 0.930 . S
H2050 C2058 0.930 . S
H2051 C2059 0.930 . S
H2052 C2062 0.930 . S
H2053 C2063 0.930 . S
C2054 H2048 0.930 . S
C2054 C2055 1.355 . S
C2054 C2056 1.415 . S
C2055 C2054 1.355 . S
C2055 C2057 1.419 . S
C2056 C2054 1.415 . S
C2056 C2061 1.425 . S
C2056 C2063 1.409 . S
C2057 H2049 0.930 . S
C2057 C2055 1.419 . S
C2057 C2058 1.362 . S
C2058 H2050 0.930 . S
C2058 C2057 1.362 . S
C2058 C2061 1.409 . S
C2059 H2051 0.930 . S
C2059 C2060 1.355 . S
C2059 C2061 1.415 . S
C2060 C2059 1.355 . S
C2060 C2062 1.419 . S
C2061 C2056 1.425 . S
C2061 C2058 1.409 . S
C2061 C2059 1.415 . S
C2062 H2052 0.930 . S
C2062 C2060 1.419 . S
C2062 C2063 1.362 . S
C2063 H2053 0.930 . S
C2063 C2056 1.409 . S
C2063 C2062 1.362 . S
H2064 C2070 0.930 . S
H2065 C2073 0.930 . S
H2066 C2074 0.930 . S
H2067 C2075 0.930 . S
H2068 C2078 0.930 . S
H2069 C2079 0.930 . S
C2070 H2064 0.930 . S
C2070 C2071 1.355 . S
C2070 C2072 1.415 . S
C2071 C2070 1.355 . S
C2071 C2073 1.419 . S
C2072 C2070 1.415 . S
C2072 C2077 1.425 . S
C2072 C2079 1.409 . S
C2073 H2065 0.930 . S
C2073 C2071 1.419 . S
C2073 C2074 1.362 . S
C2074 H2066 0.930 . S
C2074 C2073 1.362 . S
C2074 C2077 1.409 . S
C2075 H2067 0.930 . S
C2075 C2076 1.355 . S
C2075 C2077 1.415 . S
C2076 C2075 1.355 . S
C2076 C2078 1.419 . S
C2077 C2072 1.425 . S
C2077 C2074 1.409 . S
C2077 C2075 1.415 . S
C2078 H2068 0.930 . S
C2078 C2076 1.419 . S
C2078 C2079 1.362 . S
C2079 H2069 0.930 . S
C2079 C2072 1.409 . S
C2079 C2078 1.362 . S
H2080 C2086 0.930 . S
H2081 C2089 0.930 . S
H2082 C2090 0.930 . S
H2083 C2091 0.930 . S
H2084 C2094 0.930 . S
H2085 C2095 0.930 . S
C2086 H2080 0.930 . S
C2086 C2087 1.355 . S
C2086 C2088 1.415 . S
C2087 C2086 1.355 . S
C2087 C2089 1.419 . S
C2088 C2086 1.415 . S
C2088 C2093 1.425 . S
C2088 C2095 1.409 . S
C2089 H2081 0.930 . S
C2089 C2087 1.419 . S
C2089 C2090 1.362 . S
C2090 H2082 0.930 . S
C2090 C2089 1.362 . S
C2090 C2093 1.409 . S
C2091 H2083 0.930 . S
C2091 C2092 1.355 . S
C2091 C2093 1.415 . S
C2092 C2091 1.355 . S
C2092 C2094 1.419 . S
C2093 C2088 1.425 . S
C2093 C2090 1.409 . S
C2093 C2091 1.415 . S
C2094 H2084 0.930 . S
C2094 C2092 1.419 . S
C2094 C2095 1.362 . S
C2095 H2085 0.930 . S
C2095 C2088 1.409 . S
C2095 C2094 1.362 . S
H2096 C2102 0.930 . S
H2097 C2105 0.930 . S
H2098 C2106 0.930 . S
H2099 C2107 0.930 . S
H2100 C2110 0.930 . S
H2101 C2111 0.930 . S
C2102 H2096 0.930 . S
C2102 C2103 1.355 . S
C2102 C2104 1.415 . S
C2103 C2102 1.355 . S
C2103 C2105 1.419 . S
C2104 C2102 1.415 . S
C2104 C2109 1.425 . S
C2104 C2111 1.409 . S
C2105 H2097 0.930 . S
C2105 C2103 1.419 . S
C2105 C2106 1.362 . S
C2106 H2098 0.930 . S
C2106 C2105 1.362 . S
C2106 C2109 1.409 . S
C2107 H2099 0.930 . S
C2107 C2108 1.355 . S
C2107 C2109 1.415 . S
C2108 C2107 1.355 . S
C2108 C2110 1.419 . S
C2109 C2104 1.425 . S
C2109 C2106 1.409 . S
C2109 C2107 1.415 . S
C2110 H2100 0.930 . S
C2110 C2108 1.419 . S
C2110 C2111 1.362 . S
C2111 H2101 0.930 . S
C2111 C2104 1.409 . S
C2111 C2110 1.362 . S
H2112 C2118 0.930 . S
H2113 C2121 0.930 . S
H2114 C2122 0.930 . S
H2115 C2123 0.930 . S
H2116 C2126 0.930 . S
H2117 C2127 0.930 . S
C2118 H2112 0.930 . S
C2118 C2119 1.355 . S
C2118 C2120 1.415 . S
C2119 C2118 1.355 . S
C2119 C2121 1.419 . S
C2120 C2118 1.415 . S
C2120 C2125 1.425 . S
C2120 C2127 1.409 . S
C2121 H2113 0.930 . S
C2121 C2119 1.419 . S
C2121 C2122 1.362 . S
C2122 H2114 0.930 . S
C2122 C2121 1.362 . S
C2122 C2125 1.409 . S
C2123 H2115 0.930 . S
C2123 C2124 1.355 . S
C2123 C2125 1.415 . S
C2124 C2123 1.355 . S
C2124 C2126 1.419 . S
C2125 C2120 1.425 . S
C2125 C2122 1.409 . S
C2125 C2123 1.415 . S
C2126 H2116 0.930 . S
C2126 C2124 1.419 . S
C2126 C2127 1.362 . S
C2127 H2117 0.930 . S
C2127 C2120 1.409 . S
C2127 C2126 1.362 . S
H2128 C2134 0.930 . S
H2129 C2137 0.930 . S
H2130 C2138 0.930 . S
H2131 C2139 0.930 . S
H2132 C2142 0.930 . S
H2133 C2143 0.930 . S
C2134 H2128 0.930 . S
C2134 C2135 1.355 . S
C2134 C2136 1.415 . S
C2135 C2134 1.355 . S
C2135 C2137 1.419 . S
C2136 C2134 1.415 . S
C2136 C2141 1.425 . S
C2136 C2143 1.409 . S
C2137 H2129 0.930 . S
C2137 C2135 1.419 . S
C2137 C2138 1.362 . S
C2138 H2130 0.930 . S
C2138 C2137 1.362 . S
C2138 C2141 1.409 . S
C2139 H2131 0.930 . S
C2139 C2140 1.355 . S
C2139 C2141 1.415 . S
C2140 C2139 1.355 . S
C2140 C2142 1.419 . S
C2141 C2136 1.425 . S
C2141 C2138 1.409 . S
C2141 C2139 1.415 . S
C2142 H2132 0.930 . S
C2142 C2140 1.419 . S
C2142 C2143 1.362 . S
C2143 H2133 0.930 . S
C2143 C2136 1.409 . S
C2143 C2142 1.362 . S
H2144 C2150 0.930 . S
H2145 C2153 0.930 . S
H2146 C2154 0.930 . S
H2147 C2155 0.930 . S
H2148 C2158 0.930 . S
H2149 C2159 0.930 . S
C2150 H2144 0.930 . S
C2150 C2151 1.355 . S
C2150 C2152 1.415 . S
C2151 C2150 1.355 . S
C2151 C2153 1.419 . S
C2152 C2150 1.415 . S
C2152 C2157 1.425 . S
C2152 C2159 1.409 . S
C2153 H2145 0.930 . S
C2153 C2151 1.419 . S
C2153 C2154 1.362 . S
C2154 H2146 0.930 . S
C2154 C2153 1.362 . S
C2154 C2157 1.409 . S
C2155 H2147 0.930 . S
C2155 C2156 1.355 . S
C2155 C2157 1.415 . S
C2156 C2155 1.355 . S
C2156 C2158 1.419 . S
C2157 C2152 1.425 . S
C2157 C2154 1.409 . S
C2157 C2155 1.415 . S
C2158 H2148 0.930 . S
C2158 C2156 1.419 . S
C2158 C2159 1.362 . S
C2159 H2149 0.930 . S
C2159 C2152 1.409 . S
C2159 C2158 1.362 . S
C631 C127 1.722 . S
C636 C4 1.706 . S
C647 C134 1.693 . S
C652 C17 1.709 . S
C663 C153 1.746 . S
C668 C36 1.738 . S
C679 C49 1.736 . S
C684 C108 1.723 . S
C695 C199 1.734 . S
C700 C62 1.721 . S
C711 C69 1.723 . S
C716 C166 1.736 . S
C727 C179 1.735 . S
C732 C82 1.722 . S
C743 C192 1.716 . S
C748 C101 1.731 . S
C759 C218 1.667 . S
C764 C238 1.678 . S
C775 C231 1.660 . S
C780 C290 1.667 . S
C791 C251 1.747 . S
C796 C309 1.746 . S
C807 C264 1.746 . S
C812 C277 1.747 . S
C823 C316 1.745 . S
C828 C433 1.738 . S
C839 C446 1.715 . S
C844 C335 1.729 . S
C855 C342 1.725 . S
C860 C459 1.737 . S
C871 C361 1.668 . S
C876 C426 1.661 . S
C887 C511 1.662 . S
C892 C374 1.671 . S
C903 C478 1.729 . S
C908 C381 1.740 . S
C919 C491 1.661 . S
C924 C400 1.668 . S
C935 C504 1.735 . S
C940 C413 1.722 . S
C951 C530 1.747 . S
C956 C556 1.743 . S
C967 C537 1.742 . S
C972 C608 1.747 . S
C983 C569 1.661 . S
C988 C615 1.668 . S
C999 C589 1.665 . S
C1004 C576 1.660 . S
C1015 C109 1.334 . S
C1020 C3 1.362 . S
C1031 C120 1.251 . S
C1036 C16 1.367 . S
C1047 C31 1.372 . S
C1052 C135 1.285 . S
C1063 C44 1.365 . S
C1068 C146 1.328 . S
C1079 C57 1.346 . S
C1084 C159 1.255 . S
C1095 C68 1.346 . S
C1100 C172 1.253 . S
C1111 C81 1.369 . S
C1116 C185 1.262 . S
C1127 C200 1.287 . S
C1132 C96 1.342 . S
C1143 C107 1.344 . S
C1148 C211 1.262 . S
C1159 C302 1.326 . S
C1164 C122 1.366 . S
C1175 C133 1.372 . S
C1180 C278 1.289 . S
C1191 C148 1.369 . S
C1196 C291 1.258 . S
C1207 C161 1.362 . S
C1212 C224 1.241 . S
C1223 C174 1.347 . S
C1228 C239 1.250 . S
C1239 C187 1.346 . S
C1244 C252 1.254 . S
C1255 C265 1.238 . S
C1260 C198 1.357 . S
C1271 C5 1.336 . S
C1276 C213 1.358 . S
C1287 C226 1.359 . S
C1292 C55 1.238 . S
C1303 C237 1.366 . S
C1308 C70 1.325 . S
C1319 C250 1.361 . S
C1324 C83 1.239 . S
C1335 C94 1.304 . S
C1340 C263 1.371 . S
C1351 C276 1.349 . S
C1356 C29 1.245 . S
C1367 C289 1.365 . S
C1372 C42 1.329 . S
C1383 C18 1.287 . S
C1388 C304 1.372 . S
C1399 C419 1.330 . S
C1404 C315 1.364 . S
C1415 C330 1.364 . S
C1420 C434 1.331 . S
C1431 C341 1.348 . S
C1436 C447 1.327 . S
C1447 C460 1.242 . S
C1452 C356 1.363 . S
C1463 C471 1.252 . S
C1468 C369 1.346 . S
C1479 C380 1.370 . S
C1484 C484 1.262 . S
C1495 C497 1.276 . S
C1500 C395 1.371 . S
C1511 C512 1.262 . S
C1516 C408 1.344 . S
C1527 C421 1.372 . S
C1532 C523 1.290 . S
C1543 C432 1.355 . S
C1548 C616 1.336 . S
C1559 C445 1.342 . S
C1564 C590 1.290 . S
C1575 C601 1.247 . S
C1580 C458 1.348 . S
C1591 C473 1.348 . S
C1596 C538 1.247 . S
C1607 C486 1.343 . S
C1612 C549 1.305 . S
C1623 C562 1.304 . S
C1628 C499 1.371 . S
C1639 C577 1.287 . S
C1644 C510 1.342 . S
C1655 C525 1.342 . S
C1660 C317 1.281 . S
C1671 C536 1.367 . S
C1676 C367 1.324 . S
C1687 C382 1.268 . S
C1692 C551 1.370 . S
C1703 C564 1.371 . S
C1708 C393 1.305 . S
C1719 C575 1.343 . S
C1724 C406 1.306 . S
C1735 C343 1.251 . S
C1740 C588 1.367 . S
C1751 C603 1.363 . S
C1756 C354 1.242 . S
C1767 C328 1.258 . S
C1772 C614 1.345 . S
C1783 C407 1.545 . S
C1788 C10 1.561 . S
C1799 C23 1.510 . S
C1804 C368 1.572 . S
C1815 C387 1.517 . S
C1820 C30 1.579 . S
C1831 C394 1.560 . S
C1836 C43 1.546 . S
C1847 C56 1.524 . S
C1852 C329 1.576 . S
C1863 C348 1.580 . S
C1868 C75 1.511 . S
C1879 C355 1.580 . S
C1884 C88 1.516 . S
C1895 C95 1.537 . S
C1900 C322 1.568 . S
C1911 C582 1.510 . S
C1916 C114 1.573 . S
C1927 C121 1.580 . S
C1932 C543 1.514 . S
C1943 C140 1.518 . S
C1948 C550 1.559 . S
C1959 C563 1.567 . S
C1964 C147 1.513 . S
C1975 C621 1.513 . S
C1980 C160 1.566 . S
C1991 C595 1.566 . S
C1996 C173 1.513 . S
C2007 C186 1.579 . S
C2012 C602 1.510 . S
C2023 C524 1.557 . S
C2028 C205 1.519 . S
C2039 C212 1.536 . S
C2044 C517 1.568 . S
C2055 C439 1.562 . S
C2060 C225 1.543 . S
C2071 C244 1.549 . S
C2076 C452 1.557 . S
C2087 C465 1.580 . S
C2092 C257 1.511 . S
C2103 C420 1.530 . S
C2108 C270 1.572 . S
C2119 C283 1.565 . S
C2124 C485 1.514 . S
C2135 C498 1.509 . S
C2140 C296 1.577 . S
C2151 C472 1.554 . S
C2156 C303 1.552 . S
