# Generated by pormake.
# Topology mon, (4)-cn, num edge types: 1
# Building blocks:
#     Node 0, Type 0, BuildingBlock: KUFVIS_clean_sbu_0, # of connection points: 4
#     Node 1, Type 0, BuildingBlock: KUFVIS_clean_sbu_0, # of connection points: 4
#     Node 2, Type 0, BuildingBlock: KUFVIS_clean_sbu_0, # of connection points: 4
#     Node 3, Type 0, BuildingBlock: KUFVIS_clean_sbu_0, # of connection points: 4
#     Node 4, Type 0, BuildingBlock: KUFVIS_clean_sbu_0, # of connection points: 4
#     Node 5, Type 0, BuildingBlock: KUFVIS_clean_sbu_0, # of connection points: 4
#     Node 6, Type 0, BuildingBlock: KUFVIS_clean_sbu_0, # of connection points: 4
#     Node 7, Type 0, BuildingBlock: KUFVIS_clean_sbu_0, # of connection points: 4
#     Node 8, Type 0, BuildingBlock: KUFVIS_clean_sbu_0, # of connection points: 4
#     Node 9, Type 0, BuildingBlock: KUFVIS_clean_sbu_0, # of connection points: 4
#     Node 10, Type 0, BuildingBlock: KUFVIS_clean_sbu_0, # of connection points: 4
#     Node 11, Type 0, BuildingBlock: KUFVIS_clean_sbu_0, # of connection points: 4
#     Node 12, Type 0, BuildingBlock: KUFVIS_clean_sbu_0, # of connection points: 4
#     Node 13, Type 0, BuildingBlock: KUFVIS_clean_sbu_0, # of connection points: 4
#     Node 14, Type 0, BuildingBlock: KUFVIS_clean_sbu_0, # of connection points: 4
#     Node 15, Type 0, BuildingBlock: KUFVIS_clean_sbu_0, # of connection points: 4
#     Edge 16, Type (0, 0), BuildingBlock: CIFDUS_clean_linker_0, # of connection points: 2
#     Edge 17, Type (0, 0), BuildingBlock: CIFDUS_clean_linker_0, # of connection points: 2
#     Edge 18, Type (0, 0), BuildingBlock: CIFDUS_clean_linker_0, # of connection points: 2
#     Edge 19, Type (0, 0), BuildingBlock: CIFDUS_clean_linker_0, # of connection points: 2
#     Edge 20, Type (0, 0), BuildingBlock: CIFDUS_clean_linker_0, # of connection points: 2
#     Edge 21, Type (0, 0), BuildingBlock: CIFDUS_clean_linker_0, # of connection points: 2
#     Edge 22, Type (0, 0), BuildingBlock: CIFDUS_clean_linker_0, # of connection points: 2
#     Edge 23, Type (0, 0), BuildingBlock: CIFDUS_clean_linker_0, # of connection points: 2
#     Edge 24, Type (0, 0), BuildingBlock: CIFDUS_clean_linker_0, # of connection points: 2
#     Edge 25, Type (0, 0), BuildingBlock: CIFDUS_clean_linker_0, # of connection points: 2
#     Edge 26, Type (0, 0), BuildingBlock: CIFDUS_clean_linker_0, # of connection points: 2
#     Edge 27, Type (0, 0), BuildingBlock: CIFDUS_clean_linker_0, # of connection points: 2
#     Edge 28, Type (0, 0), BuildingBlock: CIFDUS_clean_linker_0, # of connection points: 2
#     Edge 29, Type (0, 0), BuildingBlock: CIFDUS_clean_linker_0, # of connection points: 2
#     Edge 30, Type (0, 0), BuildingBlock: CIFDUS_clean_linker_0, # of connection points: 2
#     Edge 31, Type (0, 0), BuildingBlock: CIFDUS_clean_linker_0, # of connection points: 2
#     Edge 32, Type (0, 0), BuildingBlock: CIFDUS_clean_linker_0, # of connection points: 2
#     Edge 33, Type (0, 0), BuildingBlock: CIFDUS_clean_linker_0, # of connection points: 2
#     Edge 34, Type (0, 0), BuildingBlock: CIFDUS_clean_linker_0, # of connection points: 2
#     Edge 35, Type (0, 0), BuildingBlock: CIFDUS_clean_linker_0, # of connection points: 2
#     Edge 36, Type (0, 0), BuildingBlock: CIFDUS_clean_linker_0, # of connection points: 2
#     Edge 37, Type (0, 0), BuildingBlock: CIFDUS_clean_linker_0, # of connection points: 2
#     Edge 38, Type (0, 0), BuildingBlock: CIFDUS_clean_linker_0, # of connection points: 2
#     Edge 39, Type (0, 0), BuildingBlock: CIFDUS_clean_linker_0, # of connection points: 2
#     Edge 40, Type (0, 0), BuildingBlock: CIFDUS_clean_linker_0, # of connection points: 2
#     Edge 41, Type (0, 0), BuildingBlock: CIFDUS_clean_linker_0, # of connection points: 2
#     Edge 42, Type (0, 0), BuildingBlock: CIFDUS_clean_linker_0, # of connection points: 2
#     Edge 43, Type (0, 0), BuildingBlock: CIFDUS_clean_linker_0, # of connection points: 2
#     Edge 44, Type (0, 0), BuildingBlock: CIFDUS_clean_linker_0, # of connection points: 2
#     Edge 45, Type (0, 0), BuildingBlock: CIFDUS_clean_linker_0, # of connection points: 2
#     Edge 46, Type (0, 0), BuildingBlock: CIFDUS_clean_linker_0, # of connection points: 2
#     Edge 47, Type (0, 0), BuildingBlock: CIFDUS_clean_linker_0, # of connection points: 2
# Relax obj value: 0.170
# Max RMSD: 0.161
# Mean RMSD: 0.161
data_MOF--net-mon--node1-KUFVIS_clean_sbu_0--edge1-CIFDUS_clean_linker_0
_symmetry_space_group_name_H-M    P1
_symmetry_Int_Tables_number       1
_symmetry_cell_setting            triclinic
loop_
_symmetry_equiv_pos_as_xyz
'x, y, z'
_cell_length_a     29.21391
_cell_length_b     29.318307
_cell_length_c     73.617875
_cell_angle_alpha  89.992606
_cell_angle_beta   89.917469
_cell_angle_gamma 90.152337
loop_
_atom_site_label
_atom_site_type_symbol
_atom_site_fract_x
_atom_site_fract_y
_atom_site_fract_z
_atom_type_partial_charge
Mn0 Mn 0.03647 0.02269 0.59466 0.0
Mn1 Mn 0.93933 0.06134 0.57499 0.0
C2 C 0.96755 0.01891 0.61026 0.0
C3 C 0.09187 0.96891 0.60252 0.0
C4 C 0.01378 0.12371 0.58889 0.0
O5 O 0.05175 0.01908 0.56778 0.0
O6 O 0.98552 0.04595 0.55591 0.0
C7 C 0.90708 0.98058 0.55443 0.0
N8 N 0.89966 0.01317 0.56728 0.0
C9 C 0.82147 0.98887 0.5712 0.0
C10 C 0.82826 0.95518 0.55795 0.0
C11 C 0.8713 0.95091 0.5496 0.0
C12 C 0.85824 0.01777 0.57532 0.0
H13 H 0.93994 0.9774 0.54784 0.0
C14 C 0.02615 0.02969 0.55438 0.0
O15 O 0.10082 0.01208 0.60171 0.0
O16 O 0.05058 0.95621 0.59818 0.0
N17 N 0.8923 0.07571 0.59217 0.0
C18 C 0.89299 0.10677 0.60593 0.0
C19 C 0.85381 0.11253 0.61677 0.0
C20 C 0.81433 0.08653 0.61327 0.0
C21 C 0.81452 0.05468 0.59906 0.0
C22 C 0.85461 0.05033 0.58876 0.0
H23 H 0.92333 0.12669 0.6087 0.0
O24 O 1.00613 0.02292 0.61893 0.0
O25 O 0.97011 0.02043 0.5926 0.0
O26 O 0.04017 0.09214 0.59415 0.0
O27 O 0.97484 0.11592 0.58187 0.0
C28 C 0.77685 0.02641 0.59497 0.0
C29 C 0.78019 0.99379 0.58094 0.0
H30 H 0.8009 0.93192 0.55431 0.0
H31 H 0.87685 0.92485 0.53942 0.0
H32 H 0.85403 0.13696 0.62779 0.0
H33 H 0.78421 0.09101 0.62167 0.0
H34 H 0.74536 0.02904 0.60267 0.0
H35 H 0.75123 0.97178 0.5781 0.0
Mn36 Mn 0.27542 0.7492 0.84371 0.0
Mn37 Mn 0.22917 0.65857 0.82192 0.0
C38 C 0.28168 0.67657 0.85586 0.0
C39 C 0.33427 0.79885 0.85267 0.0
C40 C 0.17197 0.73062 0.84043 0.0
O41 O 0.27449 0.77085 0.81741 0.0
O42 O 0.24215 0.70852 0.80424 0.0
C43 C 0.3044 0.62971 0.79748 0.0
N44 N 0.27468 0.62016 0.81126 0.0
C45 C 0.30222 0.543 0.81337 0.0
C46 C 0.33314 0.55208 0.79923 0.0
C47 C 0.33417 0.59559 0.79124 0.0
C48 C 0.2727 0.57806 0.81878 0.0
H49 H 0.30549 0.6631 0.79132 0.0
C50 C 0.26032 0.74853 0.80353 0.0
O51 O 0.29154 0.81031 0.85352 0.0
O52 O 0.34328 0.75937 0.84549 0.0
N53 N 0.2175 0.60862 0.83803 0.0
C54 C 0.18923 0.607 0.85276 0.0
C55 C 0.1864 0.56676 0.86304 0.0
C56 C 0.21274 0.52869 0.85813 0.0
C57 C 0.2418 0.53127 0.84298 0.0
C58 C 0.24296 0.57218 0.83317 0.0
H59 H 0.16942 0.6364 0.85675 0.0
O60 O 0.27953 0.71204 0.86644 0.0
O61 O 0.27493 0.68443 0.83872 0.0
O62 O 0.20553 0.75502 0.84561 0.0
O63 O 0.17723 0.69338 0.83187 0.0
C64 C 0.27062 0.49528 0.83756 0.0
C65 C 0.30066 0.50108 0.82272 0.0
H66 H 0.35665 0.52608 0.79455 0.0
H67 H 0.35803 0.60288 0.78036 0.0
H68 H 0.16421 0.56518 0.87481 0.0
H69 H 0.2108 0.49786 0.86621 0.0
H70 H 0.2705 0.46326 0.84491 0.0
H71 H 0.32318 0.47342 0.81887 0.0
Mn72 Mn 0.54902 0.99178 0.09439 0.0
Mn73 Mn 0.64228 0.94356 0.07568 0.0
C74 C 0.61798 0.99274 0.10967 0.0
C75 C 0.50088 0.05204 0.10215 0.0
C76 C 0.56538 0.8883 0.09179 0.0
O77 O 0.53247 0.99238 0.06763 0.0
O78 O 0.5944 0.95475 0.0568 0.0
C79 C 0.67309 0.01949 0.05203 0.0
N80 N 0.68165 0.9894 0.06571 0.0
C81 C 0.75885 0.01718 0.06887 0.0
C82 C 0.75089 0.04829 0.05476 0.0
C83 C 0.70781 0.04947 0.04633 0.0
C84 C 0.72315 0.98769 0.07381 0.0
H85 H 0.64004 0.02063 0.04551 0.0
C86 C 0.55534 0.97417 0.05474 0.0
O87 O 0.48676 0.01006 0.10215 0.0
O88 O 0.54223 0.05949 0.09635 0.0
N89 N 0.69075 0.93242 0.09256 0.0
C90 C 0.69134 0.90358 0.10707 0.0
C91 C 0.73112 0.90027 0.11767 0.0
C92 C 0.76982 0.92657 0.11324 0.0
C93 C 0.76828 0.95621 0.09831 0.0
C94 C 0.72781 0.95784 0.08816 0.0
H95 H 0.66156 0.88352 0.11059 0.0
O96 O 0.5794 0.99196 0.11846 0.0
O97 O 0.61508 0.98914 0.09208 0.0
O98 O 0.54011 0.92246 0.09526 0.0
O99 O 0.60567 0.89232 0.08537 0.0
C100 C 0.80498 0.9849 0.09333 0.0
C101 C 0.80031 0.01528 0.0786 0.0
H102 H 0.77741 0.07185 0.05047 0.0
H103 H 0.70134 0.07355 0.0355 0.0
H104 H 0.73194 0.87757 0.12926 0.0
H105 H 0.80041 0.92399 0.12145 0.0
H106 H 0.83673 0.98434 0.1009 0.0
H107 H 0.82849 0.03773 0.07511 0.0
Mn108 Mn 0.31666 0.27539 0.34328 0.0
Mn109 Mn 0.34881 0.37541 0.32435 0.0
C110 C 0.30458 0.34322 0.35869 0.0
C111 C 0.26585 0.21652 0.35069 0.0
C112 C 0.41637 0.30867 0.33999 0.0
O113 O 0.31823 0.2594 0.31642 0.0
O114 O 0.3432 0.32714 0.30533 0.0
C115 C 0.26779 0.39549 0.30156 0.0
N116 N 0.29744 0.40797 0.31494 0.0
C117 C 0.26225 0.48182 0.31762 0.0
C118 C 0.23146 0.46981 0.30382 0.0
C119 C 0.23416 0.4264 0.29581 0.0
C120 C 0.29526 0.44975 0.3227 0.0
H121 H 0.26986 0.36227 0.2953 0.0
C122 C 0.33077 0.28537 0.30338 0.0
O123 O 0.30977 0.21062 0.35058 0.0
O124 O 0.25095 0.25623 0.34558 0.0
N125 N 0.35432 0.42453 0.34129 0.0
C126 C 0.38346 0.42882 0.35562 0.0
C127 C 0.38312 0.46911 0.36593 0.0
C128 C 0.35302 0.50454 0.36133 0.0
C129 C 0.32305 0.49915 0.34662 0.0
C130 C 0.32504 0.4583 0.33682 0.0
H131 H 0.40666 0.40163 0.35918 0.0
O132 O 0.3114 0.30532 0.36743 0.0
O133 O 0.30845 0.34101 0.34107 0.0
O134 O 0.38675 0.27848 0.34401 0.0
O135 O 0.40565 0.34709 0.33324 0.0
C136 C 0.29077 0.53235 0.34149 0.0
C137 C 0.26052 0.52378 0.32695 0.0
H138 H 0.20521 0.49339 0.29945 0.0
H139 H 0.21037 0.41681 0.28521 0.0
H140 H 0.40609 0.47291 0.37735 0.0
H141 H 0.35311 0.53563 0.36924 0.0
H142 H 0.28845 0.56433 0.3488 0.0
H143 H 0.2353 0.54923 0.32335 0.0
Mn144 Mn 0.03619 0.99441 0.40922 0.0
Mn145 Mn 0.94282 0.94907 0.42954 0.0
C146 C 0.96675 0.99279 0.39419 0.0
C147 C 0.08453 0.05418 0.40039 0.0
C148 C 0.01964 0.8917 0.41453 0.0
O149 O 0.05275 0.99928 0.43591 0.0
O150 O 0.99003 0.96537 0.4481 0.0
C151 C 0.90963 0.02777 0.45105 0.0
N152 N 0.90215 0.99526 0.43817 0.0
C153 C 0.82352 0.0182 0.43488 0.0
C154 C 0.83037 0.05176 0.44818 0.0
C155 C 0.87364 0.05662 0.45626 0.0
C156 C 0.86047 0.99 0.43042 0.0
H157 H 0.94276 0.03162 0.45735 0.0
C158 C 0.02921 0.98517 0.44944 0.0
O159 O 0.09859 0.0123 0.40102 0.0
O160 O 0.04297 0.0618 0.40586 0.0
N161 N 0.89486 0.93353 0.41293 0.0
C162 C 0.89545 0.90298 0.39899 0.0
C163 C 0.85588 0.89662 0.38848 0.0
C164 C 0.81613 0.92161 0.39243 0.0
C165 C 0.8164 0.95296 0.40681 0.0
C166 C 0.85683 0.9578 0.41684 0.0
H167 H 0.92606 0.884 0.39581 0.0
O168 O 1.00511 0.99133 0.38525 0.0
O169 O 0.9701 0.99171 0.41183 0.0
O170 O 0.04505 0.92492 0.40976 0.0
O171 O 0.98016 0.89713 0.42147 0.0
C172 C 0.77852 0.98041 0.41129 0.0
C173 C 0.78197 0.01278 0.4254 0.0
H174 H 0.80286 0.07446 0.45207 0.0
H175 H 0.87925 0.08261 0.46646 0.0
H176 H 0.85604 0.87262 0.37731 0.0
H177 H 0.78575 0.91681 0.38422 0.0
H178 H 0.74679 0.97739 0.40379 0.0
H179 H 0.75286 0.03423 0.42851 0.0
Mn180 Mn 0.30861 0.73334 0.65981 0.0
Mn181 Mn 0.34326 0.63789 0.68121 0.0
C182 C 0.30309 0.66363 0.64525 0.0
C183 C 0.25172 0.78465 0.65088 0.0
C184 C 0.40939 0.70842 0.66609 0.0
O185 O 0.3051 0.75204 0.68625 0.0
O186 O 0.32857 0.68641 0.69949 0.0
C187 C 0.26003 0.61101 0.70167 0.0
N188 N 0.29291 0.6011 0.68915 0.0
C189 C 0.26276 0.5253 0.68502 0.0
C190 C 0.22874 0.53469 0.69793 0.0
C191 C 0.22734 0.57776 0.70626 0.0
C192 C 0.29494 0.55951 0.68122 0.0
H193 H 0.25877 0.64399 0.70815 0.0
C194 C 0.31393 0.72772 0.70017 0.0
O195 O 0.29469 0.7962 0.65096 0.0
O196 O 0.24177 0.74422 0.6568 0.0
N197 N 0.3563 0.589 0.66476 0.0
C198 C 0.38802 0.58725 0.65119 0.0
C199 C 0.39159 0.54771 0.64053 0.0
C200 C 0.36249 0.51043 0.64389 0.0
C201 C 0.32986 0.51316 0.65783 0.0
C202 C 0.32799 0.5534 0.66806 0.0
H203 H 0.41003 0.61604 0.64839 0.0
O204 O 0.30895 0.70114 0.63614 0.0
O205 O 0.30451 0.6677 0.66288 0.0
O206 O 0.37921 0.73607 0.66024 0.0
O207 O 0.39915 0.67096 0.67386 0.0
C208 C 0.29836 0.47797 0.66167 0.0
C209 C 0.26499 0.48395 0.67531 0.0
H210 H 0.20307 0.50935 0.70133 0.0
H211 H 0.20103 0.58535 0.71617 0.0
H212 H 0.41654 0.54606 0.62967 0.0
H213 H 0.36509 0.48013 0.63554 0.0
H214 H 0.29908 0.4464 0.65404 0.0
H215 H 0.24047 0.45695 0.67792 0.0
Mn216 Mn 0.549 0.0293 0.91434 0.0
Mn217 Mn 0.64534 0.06294 0.93615 0.0
C218 C 0.62058 0.01234 0.90253 0.0
C219 C 0.49071 0.9785 0.90603 0.0
C220 C 0.58327 0.1285 0.91645 0.0
O221 O 0.52679 0.03615 0.94047 0.0
O222 O 0.59306 0.06005 0.95353 0.0
C223 C 0.66032 0.98588 0.96147 0.0
N224 N 0.67553 0.01294 0.94766 0.0
C225 C 0.74817 0.97437 0.94701 0.0
C226 C 0.73326 0.94615 0.96123 0.0
C227 C 0.68916 0.95196 0.96849 0.0
C228 C 0.71825 0.00818 0.94079 0.0
H229 H 0.62646 0.99011 0.96707 0.0
C230 C 0.55045 0.04913 0.95417 0.0
O231 O 0.48601 0.02226 0.90467 0.0
O232 O 0.52858 0.96383 0.91317 0.0
N233 N 0.69766 0.06537 0.92049 0.0
C234 C 0.7046 0.09167 0.90547 0.0
C235 C 0.74579 0.08769 0.89575 0.0
C236 C 0.77935 0.05675 0.90156 0.0
C237 C 0.77135 0.02993 0.91702 0.0
C238 C 0.72975 0.03556 0.92623 0.0
H239 H 0.67865 0.11509 0.90083 0.0
O240 O 0.58573 0.018 0.89179 0.0
O241 O 0.61331 0.02071 0.91961 0.0
O242 O 0.55393 0.0988 0.91165 0.0
O243 O 0.61937 0.1184 0.92517 0.0
C244 C 0.80238 0.99681 0.92331 0.0
C245 C 0.79089 0.96919 0.93834 0.0
H246 H 0.75515 0.91951 0.96651 0.0
H247 H 0.67735 0.93021 0.97942 0.0
H248 H 0.75153 0.10819 0.88373 0.0
H249 H 0.81085 0.0534 0.8939 0.0
H250 H 0.83481 0.9917 0.91646 0.0
H251 H 0.81468 0.94327 0.94283 0.0
Mn252 Mn 0.27003 0.26587 0.16232 0.0
Mn253 Mn 0.227 0.36287 0.18007 0.0
C254 C 0.27339 0.33333 0.14601 0.0
C255 C 0.32515 0.21133 0.15526 0.0
C256 C 0.16746 0.28761 0.16567 0.0
O257 O 0.27144 0.2522 0.18939 0.0
O258 O 0.23706 0.31652 0.19953 0.0
C259 C 0.30568 0.39206 0.20266 0.0
N260 N 0.27505 0.40087 0.18918 0.0
C261 C 0.30382 0.47737 0.18564 0.0
C262 C 0.33552 0.46916 0.19954 0.0
C263 C 0.33653 0.42628 0.20804 0.0
C264 C 0.27366 0.44209 0.18096 0.0
H265 H 0.30653 0.35925 0.2093 0.0
C266 C 0.25494 0.27706 0.20205 0.0
O267 O 0.28198 0.20169 0.156 0.0
O268 O 0.33719 0.2528 0.15943 0.0
N269 N 0.21689 0.41038 0.16273 0.0
C270 C 0.18738 0.41115 0.14842 0.0
C271 C 0.1843 0.45063 0.13769 0.0
C272 C 0.21137 0.4889 0.14184 0.0
C273 C 0.24163 0.48721 0.15659 0.0
C274 C 0.24316 0.44698 0.16682 0.0
H275 H 0.16655 0.38176 0.1452 0.0
O276 O 0.27077 0.29427 0.13771 0.0
O277 O 0.27075 0.33199 0.16366 0.0
O278 O 0.20053 0.26102 0.16229 0.0
O279 O 0.17325 0.32814 0.1714 0.0
C280 C 0.27094 0.52353 0.16133 0.0
C281 C 0.3019 0.51868 0.17588 0.0
H282 H 0.35964 0.49533 0.20362 0.0
H283 H 0.36105 0.41962 0.21872 0.0
H284 H 0.16109 0.45159 0.12625 0.0
H285 H 0.20882 0.51932 0.13357 0.0
H286 H 0.27042 0.55515 0.15373 0.0
H287 H 0.32482 0.54656 0.17919 0.0
Mn288 Mn 0.79868 0.24579 0.15935 0.0
Mn289 Mn 0.84017 0.15059 0.17914 0.0
C290 C 0.79675 0.17695 0.14399 0.0
C291 C 0.74407 0.29963 0.15116 0.0
C292 C 0.90073 0.22576 0.1649 0.0
O293 O 0.7941 0.2613 0.18615 0.0
O294 O 0.82546 0.19728 0.198 0.0
C295 C 0.75963 0.11949 0.20034 0.0
N296 N 0.79203 0.11144 0.18741 0.0
C297 C 0.76599 0.03407 0.18361 0.0
C298 C 0.73251 0.0415 0.19694 0.0
C299 C 0.72924 0.08444 0.2053 0.0
C300 C 0.79567 0.07012 0.17937 0.0
H301 H 0.75706 0.15233 0.20688 0.0
C302 C 0.80709 0.23686 0.19955 0.0
O303 O 0.78718 0.30934 0.15214 0.0
O304 O 0.73176 0.25834 0.15552 0.0
N305 N 0.854 0.10303 0.16222 0.0
C306 C 0.88518 0.10294 0.14844 0.0
C307 C 0.89043 0.06356 0.13779 0.0
C308 C 0.86374 0.02469 0.14146 0.0
C309 C 0.83176 0.02568 0.15567 0.0
C310 C 0.82805 0.06588 0.16583 0.0
H311 H 0.90563 0.13282 0.14554 0.0
O312 O 0.80025 0.21526 0.13517 0.0
O313 O 0.79807 0.17991 0.16163 0.0
O314 O 0.86801 0.25128 0.16011 0.0
O315 O 0.89444 0.18623 0.17157 0.0
C316 C 0.80282 0.98867 0.15994 0.0
C317 C 0.77009 0.99279 0.17394 0.0
H318 H 0.7087 0.01469 0.20067 0.0
H319 H 0.70335 0.0905 0.21554 0.0
H320 H 0.91497 0.06315 0.12676 0.0
H321 H 0.86783 0.9944 0.1332 0.0
H322 H 0.80509 0.95704 0.15242 0.0
H323 H 0.74754 0.96434 0.1769 0.0
Mn324 Mn 0.76696 0.78163 0.66032 0.0
Mn325 Mn 0.73207 0.87671 0.68193 0.0
C326 C 0.77244 0.85154 0.64591 0.0
C327 C 0.82385 0.73047 0.65121 0.0
C328 C 0.66608 0.8065 0.6666 0.0
O329 O 0.77043 0.76254 0.68671 0.0
O330 O 0.74637 0.8278 0.70009 0.0
C331 C 0.81518 0.90287 0.70252 0.0
N332 N 0.7824 0.9132 0.69004 0.0
C333 C 0.81276 0.98902 0.68622 0.0
C334 C 0.84667 0.97922 0.69909 0.0
C335 C 0.84791 0.93593 0.70725 0.0
C336 C 0.78054 0.95498 0.68227 0.0
H337 H 0.81634 0.86972 0.70886 0.0
C338 C 0.76123 0.78656 0.70069 0.0
O339 O 0.78089 0.71892 0.65131 0.0
O340 O 0.8338 0.77081 0.65722 0.0
N341 N 0.71934 0.92601 0.66565 0.0
C342 C 0.68776 0.92815 0.65208 0.0
C343 C 0.68438 0.96797 0.64157 0.0
C344 C 0.7135 1.00511 0.64509 0.0
C345 C 0.74597 1.00198 0.65904 0.0
C346 C 0.74766 0.96148 0.66911 0.0
H347 H 0.66573 0.89947 0.64915 0.0
O348 O 0.76662 0.81414 0.63672 0.0
O349 O 0.77101 0.84724 0.66353 0.0
O350 O 0.69635 0.77886 0.66078 0.0
O351 O 0.67621 0.84391 0.67441 0.0
C352 C 0.7775 0.03701 0.66303 0.0
C353 C 0.81072 0.03062 0.67667 0.0
H354 H 0.87237 1.00441 0.70259 0.0
H355 H 0.87413 0.92802 0.71712 0.0
H356 H 0.65954 0.96995 0.6307 0.0
H357 H 0.71103 0.03563 0.63686 0.0
H358 H 0.77694 0.06875 0.65551 0.0
H359 H 0.83528 0.0575 0.67939 0.0
Mn360 Mn 0.77187 0.23163 0.34446 0.0
Mn361 Mn 0.73386 0.13614 0.3238 0.0
C362 C 0.77581 0.1623 0.35927 0.0
C363 C 0.82949 0.28275 0.35291 0.0
C364 C 0.67038 0.20774 0.33928 0.0
O365 O 0.77481 0.24939 0.31791 0.0
O366 O 0.74726 0.18443 0.30529 0.0
C367 C 0.81549 0.10914 0.30246 0.0
N368 N 0.78328 0.0992 0.31527 0.0
C369 C 0.81291 0.02323 0.31899 0.0
C370 C 0.8462 0.0326 0.30576 0.0
C371 C 0.84754 0.07577 0.29749 0.0
C372 C 0.78136 0.05756 0.32317 0.0
H373 H 0.81674 0.14223 0.29606 0.0
C374 C 0.76342 0.22517 0.30424 0.0
O375 O 0.78668 0.29455 0.35285 0.0
O376 O 0.83897 0.24203 0.34719 0.0
N377 N 0.72158 0.08727 0.34037 0.0
C378 C 0.69075 0.08557 0.35427 0.0
C379 C 0.6875 0.04595 0.36492 0.0
C380 C 0.71594 0.00854 0.36119 0.0
C381 C 0.74758 0.01119 0.34689 0.0
C382 C 0.74916 0.05149 0.33669 0.0
H383 H 0.66924 0.11445 0.35733 0.0
O384 O 0.77163 0.20012 0.3683 0.0
O385 O 0.77413 0.16595 0.34164 0.0
O386 O 0.7015 0.23539 0.34438 0.0
O387 O 0.67915 0.16956 0.33184 0.0
C388 C 0.77843 0.97587 0.34267 0.0
C389 C 0.81089 0.98179 0.32866 0.0
H390 H 0.87139 0.00718 0.30206 0.0
H391 H 0.87332 0.08336 0.28735 0.0
H392 H 0.66329 0.04434 0.37605 0.0
H393 H 0.71359 0.97818 0.36953 0.0
H394 H 0.77796 0.94428 0.3503 0.0
H395 H 0.83496 0.95469 0.32576 0.0
Mn396 Mn 0.80015 0.76517 0.84428 0.0
Mn397 Mn 0.84636 0.85595 0.8225 0.0
C398 C 0.79408 0.83767 0.85658 0.0
C399 C 0.74121 0.71549 0.85319 0.0
C400 C 0.90358 0.78357 0.84076 0.0
O401 O 0.80087 0.74383 0.81794 0.0
O402 O 0.83301 0.80629 0.80475 0.0
C403 C 0.77096 0.88539 0.79835 0.0
N404 N 0.80085 0.89465 0.81206 0.0
C405 C 0.77355 0.97185 0.81442 0.0
C406 C 0.74246 0.96307 0.80035 0.0
C407 C 0.74122 0.91968 0.79227 0.0
C408 C 0.80303 0.93663 0.81967 0.0
H409 H 0.7697 0.85209 0.79211 0.0
C410 C 0.81483 0.76629 0.80405 0.0
O411 O 0.78393 0.70395 0.85398 0.0
O412 O 0.73228 0.75511 0.84613 0.0
N413 N 0.85837 0.90563 0.83869 0.0
C414 C 0.88682 0.90696 0.85333 0.0
C415 C 0.8899 0.94706 0.86369 0.0
C416 C 0.8636 0.98526 0.85894 0.0
C417 C 0.83434 0.98298 0.84389 0.0
C418 C 0.83295 0.94221 0.83398 0.0
H419 H 0.90661 0.87746 0.85719 0.0
O420 O 0.79622 0.80206 0.86708 0.0
O421 O 0.80073 0.83 0.8394 0.0
O422 O 0.87004 0.75922 0.84603 0.0
O423 O 0.8983 0.82084 0.83223 0.0
C424 C 0.80557 0.01912 0.83863 0.0
C425 C 0.77534 0.01363 0.82386 0.0
H426 H 0.71897 0.9892 0.7958 0.0
H427 H 0.71722 0.91262 0.78144 0.0
H428 H 0.91225 0.94841 0.8754 0.0
H429 H 0.86571 0.01597 0.86709 0.0
H430 H 0.80588 0.05104 0.84604 0.0
H431 H 0.75286 0.04141 0.82014 0.0
Mn432 Mn 0.51638 0.52002 0.09348 0.0
Mn433 Mn 0.42241 0.56769 0.07539 0.0
C434 C 0.44809 0.51861 0.10925 0.0
C435 C 0.56511 0.45991 0.10055 0.0
C436 C 0.499 0.62342 0.09134 0.0
O437 O 0.53229 0.52 0.06669 0.0
O438 O 0.47016 0.55774 0.05628 0.0
C439 C 0.39278 0.4915 0.05169 0.0
N440 N 0.38377 0.52129 0.06543 0.0
C441 C 0.30728 0.4918 0.06884 0.0
C442 C 0.31569 0.46097 0.05467 0.0
C443 C 0.35865 0.4608 0.04608 0.0
C444 C 0.34241 0.52199 0.0737 0.0
H445 H 0.42575 0.49109 0.04506 0.0
C446 C 0.50926 0.53855 0.05397 0.0
O447 O 0.579 0.50198 0.10071 0.0
O448 O 0.52351 0.45239 0.09511 0.0
N449 N 0.37392 0.57774 0.09242 0.0
C450 C 0.37287 0.60653 0.10694 0.0
C451 C 0.33311 0.60902 0.11764 0.0
C452 C 0.29489 0.58201 0.11328 0.0
C453 C 0.29689 0.55245 0.09833 0.0
C454 C 0.33732 0.55162 0.0881 0.0
H455 H 0.40228 0.62717 0.11039 0.0
O456 O 0.487 0.51931 0.11775 0.0
O457 O 0.45029 0.52225 0.09163 0.0
O458 O 0.52469 0.58937 0.09448 0.0
O459 O 0.4585 0.61924 0.08517 0.0
C460 C 0.26069 0.52313 0.0934 0.0
C461 C 0.26587 0.49285 0.07866 0.0
H462 H 0.28962 0.4369 0.05043 0.0
H463 H 0.36549 0.43695 0.03519 0.0
H464 H 0.33194 0.63166 0.12924 0.0
H465 H 0.26432 0.58399 0.12157 0.0
H466 H 0.22891 0.52316 0.10098 0.0
H467 H 0.23809 0.46991 0.07521 0.0
Mn468 Mn 0.0389 0.49349 0.59399 0.0
Mn469 Mn 0.13602 0.45461 0.57429 0.0
C470 C 0.10774 0.49699 0.60955 0.0
C471 C 0.98353 0.5472 0.602 0.0
C472 C 0.0617 0.39235 0.58834 0.0
O473 O 0.02375 0.4975 0.56713 0.0
O474 O 0.08954 0.46932 0.55529 0.0
C475 C 0.16735 0.53537 0.55345 0.0
N476 N 0.17525 0.50291 0.5663 0.0
C477 C 0.25337 0.5277 0.56983 0.0
C478 C 0.24609 0.56126 0.55658 0.0
C479 C 0.20284 0.56521 0.54842 0.0
C480 C 0.21686 0.49865 0.57418 0.0
H481 H 0.13432 0.53833 0.54702 0.0
C482 C 0.04917 0.48617 0.55374 0.0
O483 O 0.97454 0.50406 0.60109 0.0
O484 O 0.02483 0.55994 0.59766 0.0
N485 N 0.18343 0.44081 0.59132 0.0
C486 C 0.18321 0.40991 0.60515 0.0
C487 C 0.22267 0.40444 0.6158 0.0
C488 C 0.26195 0.43056 0.61205 0.0
C489 C 0.26128 0.46224 0.59778 0.0
C490 C 0.22094 0.46628 0.58767 0.0
H491 H 0.15302 0.38987 0.60809 0.0
O492 O 0.06913 0.4929 0.61824 0.0
O493 O 0.10527 0.49565 0.59189 0.0
O494 O 0.03508 0.42403 0.59334 0.0
O495 O 0.1009 0.4 0.58149 0.0
C496 C 0.29873 0.49062 0.59345 0.0
C497 C 0.2949 0.52307 0.57938 0.0
H498 H 0.27323 0.58465 0.55278 0.0
H499 H 0.1969 0.59116 0.53824 0.0
H500 H 0.22282 0.38015 0.62687 0.0
H501 H 0.29231 0.42629 0.62029 0.0
H502 H 0.33041 0.48822 0.60101 0.0
H503 H 0.32368 0.5452 0.57637 0.0
Mn504 Mn 0.52534 0.48335 0.91349 0.0
Mn505 Mn 0.42821 0.44963 0.93486 0.0
C506 C 0.45415 0.50041 0.9014 0.0
C507 C 0.5838 0.53436 0.9055 0.0
C508 C 0.49144 0.38409 0.91562 0.0
O509 O 0.54653 0.47646 0.93974 0.0
O510 O 0.47958 0.45333 0.95257 0.0
C511 C 0.41105 0.52677 0.95993 0.0
N512 N 0.39696 0.49956 0.94601 0.0
C513 C 0.32415 0.53769 0.94463 0.0
C514 C 0.33795 0.56612 0.95894 0.0
C515 C 0.38157 0.56059 0.96663 0.0
C516 C 0.35467 0.50399 0.93875 0.0
H517 H 0.44451 0.52273 0.96588 0.0
C518 C 0.52222 0.46407 0.95338 0.0
O519 O 0.58867 0.49063 0.90411 0.0
O520 O 0.54563 0.54887 0.91248 0.0
N521 N 0.37683 0.44659 0.91879 0.0
C522 C 0.37099 0.42003 0.90378 0.0
C523 C 0.33042 0.42366 0.89368 0.0
C524 C 0.29636 0.45454 0.8991 0.0
C525 C 0.30325 0.48165 0.91455 0.0
C526 C 0.34426 0.47636 0.92415 0.0
H527 H 0.39734 0.39668 0.89943 0.0
O528 O 0.48933 0.49481 0.89079 0.0
O529 O 0.46088 0.4918 0.91848 0.0
O530 O 0.52068 0.41384 0.91074 0.0
O531 O 0.45517 0.39416 0.92427 0.0
C532 C 0.27165 0.5147 0.92047 0.0
C533 C 0.282 0.54255 0.93555 0.0
H534 H 0.31557 0.59268 0.96397 0.0
H535 H 0.39252 0.58249 0.97764 0.0
H536 H 0.32555 0.40294 0.88167 0.0
H537 H 0.26534 0.4576 0.89115 0.0
H538 H 0.23965 0.51956 0.91332 0.0
H539 H 0.25778 0.56839 0.93977 0.0
Mn540 Mn 0.04488 0.52236 0.40858 0.0
Mn541 Mn 0.14153 0.56062 0.4287 0.0
C542 C 0.11425 0.51719 0.39344 0.0
C543 C 0.98921 0.46882 0.4006 0.0
C544 C 0.06903 0.6235 0.41391 0.0
O545 O 0.02829 0.5196 0.43534 0.0
O546 O 0.09406 0.54689 0.44752 0.0
C547 C 0.17046 0.47966 0.44982 0.0
N548 N 0.17951 0.51189 0.43697 0.0
C549 C 0.25697 0.48537 0.43359 0.0
C550 C 0.24852 0.45203 0.44684 0.0
C551 C 0.20502 0.44906 0.45493 0.0
C552 C 0.22134 0.51518 0.42915 0.0
H553 H 0.1372 0.47741 0.45617 0.0
C554 C 0.05324 0.53078 0.44886 0.0
O555 O 0.98072 0.51208 0.40113 0.0
O556 O 0.0301 0.45595 0.4053 0.0
N557 N 0.18975 0.57352 0.41185 0.0
C558 C 0.19073 0.60459 0.3981 0.0
C559 C 0.23077 0.6097 0.38772 0.0
C560 C 0.26935 0.58299 0.39164 0.0
C561 C 0.26737 0.55093 0.40576 0.0
C562 C 0.22654 0.54738 0.41565 0.0
H563 H 0.16112 0.62517 0.39505 0.0
O564 O 0.07608 0.52168 0.38454 0.0
O565 O 0.11105 0.51936 0.41108 0.0
O566 O 0.04234 0.59189 0.40877 0.0
O567 O 0.10762 0.61563 0.42119 0.0
C568 C 0.30401 0.52188 0.41024 0.0
C569 C 0.29888 0.48925 0.42419 0.0
H570 H 0.27495 0.4281 0.45071 0.0
H571 H 0.19818 0.42327 0.46511 0.0
H572 H 0.23194 0.63425 0.37675 0.0
H573 H 0.30018 0.58726 0.38365 0.0
H574 H 0.33611 0.52395 0.40292 0.0
H575 H 0.32703 0.4666 0.4273 0.0
H576 H 0.96202 0.20086 0.58991 0.0
H577 H 0.10197 0.15413 0.59096 0.0
H578 H 0.12921 0.23292 0.59121 0.0
H579 H 0.11345 0.31524 0.58993 0.0
H580 H 0.97347 0.36196 0.59017 0.0
H581 H 0.94623 0.28319 0.5907 0.0
C582 C 0.99848 0.20792 0.59025 0.0
C583 C 0.02987 0.1716 0.59028 0.0
C584 C 0.01397 0.25336 0.59059 0.0
C585 C 0.077 0.18139 0.59097 0.0
C586 C 0.09266 0.22647 0.59104 0.0
C587 C 0.07699 0.30817 0.59015 0.0
C588 C 0.04559 0.34449 0.58987 0.0
C589 C 0.06148 0.26274 0.59066 0.0
C590 C 0.99844 0.33471 0.59041 0.0
C591 C 0.98278 0.28963 0.59065 0.0
H592 H 0.98223 0.83358 0.84336 0.0
H593 H 0.9317 0.69519 0.84409 0.0
H594 H 0.01016 0.66647 0.84487 0.0
H595 H 0.09334 0.68055 0.84315 0.0
H596 H 0.14386 0.81895 0.84392 0.0
H597 H 0.06541 0.84765 0.84491 0.0
C598 C 0.98838 0.79713 0.84386 0.0
C599 C 0.95103 0.7666 0.84349 0.0
C600 C 0.03367 0.7808 0.8445 0.0
C601 C 0.95968 0.71949 0.84439 0.0
C602 C 1.00461 0.703 0.84474 0.0
C603 C 0.08719 0.717 0.84371 0.0
C604 C 0.12453 0.74753 0.84329 0.0
C605 C 0.0419 0.73331 0.84447 0.0
C606 C 0.11588 0.79464 0.84426 0.0
C607 C 0.07096 0.81111 0.84473 0.0
H608 H 0.45257 0.70404 0.09395 0.0
H609 H 0.58902 0.64782 0.09418 0.0
H610 H 0.62155 0.72445 0.09521 0.0
H611 H 0.6116 0.80767 0.09411 0.0
H612 H 0.47525 0.86403 0.09469 0.0
H613 H 0.44263 0.78734 0.09543 0.0
C614 C 0.48942 0.70851 0.09435 0.0
C615 C 0.5182 0.67005 0.09382 0.0
C616 C 0.50806 0.75282 0.09503 0.0
C617 C 0.56591 0.67664 0.09458 0.0
C618 C 0.58464 0.72055 0.09509 0.0
C619 C 0.57474 0.80322 0.09453 0.0
C620 C 0.54602 0.84171 0.09418 0.0
C621 C 0.55609 0.75892 0.09502 0.0
C622 C 0.4983 0.83516 0.09496 0.0
C623 C 0.47953 0.79123 0.0953 0.0
H624 H 0.63256 0.29294 0.34184 0.0
H625 H 0.59787 0.14973 0.34195 0.0
H626 H 0.51679 0.16833 0.34368 0.0
H627 H 0.45525 0.22482 0.34325 0.0
H628 H 0.48879 0.36817 0.34133 0.0
H629 H 0.57037 0.34997 0.34232 0.0
C630 C 0.60726 0.26585 0.34246 0.0
C631 C 0.62144 0.22 0.34173 0.0
C632 C 0.56029 0.27677 0.34302 0.0
C633 C 0.58806 0.18532 0.34237 0.0
C634 C 0.54157 0.19589 0.34337 0.0
C635 C 0.48033 0.25217 0.34328 0.0
C636 C 0.46574 0.2978 0.34221 0.0
C637 C 0.52722 0.24146 0.34343 0.0
C638 C 0.49893 0.3327 0.34207 0.0
C639 C 0.54567 0.32233 0.34263 0.0
H640 H 0.96934 0.81412 0.41151 0.0
H641 H 0.10874 0.86285 0.41323 0.0
H642 H 0.13666 0.7842 0.41279 0.0
H643 H 0.12113 0.70126 0.41345 0.0
H644 H 0.98135 0.65361 0.41053 0.0
H645 H 0.9541 0.73207 0.40983 0.0
C646 C 1.00587 0.8076 0.41169 0.0
C647 C 0.03687 0.84436 0.41257 0.0
C648 C 0.02166 0.7624 0.41129 0.0
C649 C 0.0841 0.83523 0.41254 0.0
C650 C 0.1001 0.79023 0.41237 0.0
C651 C 0.08473 0.70807 0.41258 0.0
C652 C 0.05337 0.67146 0.41219 0.0
C653 C 0.06915 0.75349 0.41199 0.0
C654 C 1.00633 0.68098 0.41083 0.0
C655 C 0.99063 0.72591 0.41049 0.0
H656 H 0.44955 0.7928 0.66369 0.0
H657 H 0.481 0.64914 0.66448 0.0
H658 H 0.56268 0.66633 0.66332 0.0
H659 H 0.62595 0.7222 0.66374 0.0
H660 H 0.59448 0.86584 0.66514 0.0
H661 H 0.51284 0.84869 0.6637 0.0
C662 C 0.47427 0.76528 0.66341 0.0
C663 C 0.45892 0.71975 0.66414 0.0
C664 C 0.52154 0.7754 0.66323 0.0
C665 C 0.49164 0.68453 0.66399 0.0
C666 C 0.53851 0.69431 0.66333 0.0
C667 C 0.60124 0.74973 0.66354 0.0
C668 C 0.61658 0.79524 0.66453 0.0
C669 C 0.55398 0.73962 0.66319 0.0
C670 C 0.58386 0.83046 0.66446 0.0
C671 C 0.53701 0.8207 0.66363 0.0
H672 H 0.5747 0.3434 0.91192 0.0
H673 H 0.42984 0.3144 0.91249 0.0
H674 H 0.44551 0.2327 0.91082 0.0
H675 H 0.50031 0.1692 0.91193 0.0
H676 H 0.64511 0.19816 0.91366 0.0
H677 H 0.62957 0.27983 0.91155 0.0
C678 C 0.54656 0.31923 0.91136 0.0
C679 C 0.50115 0.33508 0.91233 0.0
C680 C 0.55583 0.27213 0.91096 0.0
C681 C 0.46511 0.30319 0.91184 0.0
C682 C 0.47404 0.25641 0.9109 0.0
C683 C 0.5285 0.19333 0.91153 0.0
C684 C 0.57382 0.17749 0.91297 0.0
C685 C 0.51927 0.24042 0.91086 0.0
C686 C 0.6099 0.20936 0.91266 0.0
C687 C 0.60104 0.25613 0.91147 0.0
H688 H 0.08736 0.33516 0.16336 0.0
H689 H 0.14153 0.19829 0.16414 0.0
H690 H 0.06422 0.16701 0.1636 0.0
H691 H 0.98089 0.1782 0.16422 0.0
H692 H 0.92666 0.31494 0.1624 0.0
H693 H 1.00403 0.34626 0.16195 0.0
C694 C 0.08225 0.2985 0.16333 0.0
C695 C 0.1203 0.26925 0.16391 0.0
C696 C 0.03757 0.28055 0.16288 0.0
C697 C 0.11297 0.22175 0.16366 0.0
C698 C 0.0687 0.20372 0.16342 0.0
C699 C 0.98601 0.21484 0.16367 0.0
C700 C 0.94796 0.24408 0.16347 0.0
C701 C 0.0307 0.23276 0.16325 0.0
C702 C 0.95527 0.29152 0.16253 0.0
C703 C 0.99956 0.30956 0.16233 0.0
H704 H 0.03365 0.93152 0.47932 0.0
H705 H 0.05494 0.0692 0.46064 0.0
H706 H 0.06019 0.09606 0.49205 0.0
H707 H 0.04772 0.08132 0.52485 0.0
H708 H 0.03207 0.94284 0.54341 0.0
H709 H 0.03611 0.91503 0.51213 0.0
C710 C 0.04077 0.96714 0.4822 0.0
C711 C 0.04376 0.99843 0.46783 0.0
C712 C 0.04428 0.98217 0.50025 0.0
C713 C 0.05296 0.04452 0.47157 0.0
C714 C 0.05551 0.05994 0.48951 0.0
C715 C 0.04662 0.04504 0.52198 0.0
C716 C 0.03966 0.01402 0.53622 0.0
C717 C 0.04968 0.02928 0.50397 0.0
C718 C 0.03793 0.9671 0.53253 0.0
C719 C 0.03987 0.95126 0.51468 0.0
H720 H 0.20815 0.74899 0.77324 0.0
H721 H 0.34343 0.77996 0.79297 0.0
H722 H 0.3731 0.78 0.76188 0.0
H723 H 0.3623 0.75825 0.72953 0.0
H724 H 0.22601 0.73137 0.70994 0.0
H725 H 0.19479 0.74283 0.7404 0.0
C726 C 0.24373 0.75748 0.77062 0.0
C727 C 0.27358 0.76439 0.78528 0.0
C728 C 0.26052 0.75717 0.75275 0.0
C729 C 0.3197 0.77512 0.78183 0.0
C730 C 0.33683 0.77444 0.76407 0.0
C731 C 0.32573 0.75612 0.73196 0.0
C732 C 0.29635 0.74366 0.71774 0.0
C733 C 0.30791 0.76352 0.7495 0.0
C734 C 0.24903 0.74099 0.72083 0.0
C735 C 0.23122 0.74738 0.73822 0.0
H736 H 0.53085 0.05232 0.03814 0.0
H737 H 0.54604 0.90789 0.02935 0.0
H738 H 0.53415 0.91842 0.99671 0.0
H739 H 0.53285 0.96996 0.9705 0.0
H740 H 0.53097 0.11516 0.97894 0.0
H741 H 0.52293 0.10364 0.0118 0.0
C742 C 0.53007 0.02315 0.02907 0.0
C743 C 0.53883 0.97938 0.03599 0.0
C744 C 0.52581 0.02987 0.01025 0.0
C745 C 0.53908 0.9418 0.02421 0.0
C746 C 0.53248 0.94787 0.00558 0.0
C747 C 0.52875 0.9989 0.97955 0.0
C748 C 0.5314 0.04326 0.97247 0.0
C749 C 0.52756 0.9919 0.99839 0.0
C750 C 0.52798 0.08076 0.9842 0.0
C751 C 0.52399 0.07411 0.00296 0.0
H752 H 0.3349 0.26223 0.219 0.0
H753 H 0.1891 0.26454 0.22756 0.0
H754 H 0.20041 0.25842 0.26045 0.0
H755 H 0.25201 0.26431 0.28673 0.0
H756 H 0.39748 0.27392 0.27811 0.0
H757 H 0.38669 0.26283 0.24537 0.0
C758 C 0.30575 0.25984 0.22811 0.0
C759 C 0.26127 0.26299 0.22103 0.0
C760 C 0.31269 0.25902 0.24699 0.0
C761 C 0.22357 0.2615 0.23283 0.0
C762 C 0.23008 0.25835 0.25159 0.0
C763 C 0.28128 0.26248 0.27767 0.0
C764 C 0.32547 0.26907 0.28465 0.0
C765 C 0.27448 0.25872 0.25884 0.0
C766 C 0.36327 0.26826 0.2729 0.0
C767 C 0.35702 0.26225 0.25422 0.0
H768 H 0.86086 0.24553 0.22927 0.0
H769 H 0.72141 0.25557 0.21084 0.0
H770 H 0.69417 0.25681 0.24229 0.0
H771 H 0.71001 0.24351 0.27491 0.0
H772 H 0.84982 0.23948 0.29333 0.0
H773 H 0.87724 0.24801 0.2621 0.0
C774 C 0.8247 0.24952 0.23223 0.0
C775 C 0.79309 0.25043 0.21793 0.0
C776 C 0.80942 0.25071 0.25032 0.0
C777 C 0.74627 0.25537 0.22175 0.0
C778 C 0.73068 0.25557 0.23971 0.0
C779 C 0.74637 0.24586 0.27203 0.0
C780 C 0.77799 0.24079 0.28619 0.0
C781 C 0.76185 0.25158 0.25408 0.0
C782 C 0.82505 0.24372 0.28251 0.0
C783 C 0.84071 0.24824 0.26469 0.0
H784 H 0.71226 0.75806 0.73025 0.0
H785 H 0.84912 0.78045 0.71026 0.0
H786 H 0.88019 0.769 0.74071 0.0
H787 H 0.86685 0.76418 0.77364 0.0
H788 H 0.73092 0.73712 0.79372 0.0
H789 H 0.70106 0.73733 0.76269 0.0
C790 C 0.74889 0.75918 0.73259 0.0
C791 C 0.77851 0.77036 0.71825 0.0
C792 C 0.76661 0.75174 0.75013 0.0
C793 C 0.82592 0.77176 0.72123 0.0
C794 C 0.84364 0.76541 0.73862 0.0
C795 C 0.83104 0.75658 0.77111 0.0
C796 C 0.8011 0.75068 0.78584 0.0
C797 C 0.81418 0.75687 0.75326 0.0
C798 C 0.75469 0.74114 0.78251 0.0
C799 C 0.73749 0.74194 0.76479 0.0
H800 H 0.53416 0.544 0.96973 0.0
H801 H 0.54515 0.39925 0.97821 0.0
H802 H 0.551 0.41123 0.01112 0.0
H803 H 0.53873 0.46195 0.0374 0.0
H804 H 0.51429 0.60506 0.02845 0.0
H805 H 0.52804 0.59527 0.99588 0.0
C806 C 0.53971 0.51538 0.97881 0.0
C807 C 0.54031 0.47097 0.97173 0.0
C808 C 0.5395 0.52241 0.99765 0.0
C809 C 0.54567 0.43375 0.98349 0.0
C810 C 0.54837 0.44063 1.00226 0.0
C811 C 0.53778 0.49108 0.02832 0.0
C812 C 0.52586 0.53419 0.03517 0.0
C813 C 0.54325 0.48464 0.00953 0.0
C814 C 0.52353 0.57164 0.02336 0.0
C815 C 0.53128 0.566 0.00478 0.0
H816 H 0.03404 0.43363 0.52396 0.0
H817 H 0.03726 0.57266 0.54279 0.0
H818 H 0.03474 0.60038 0.51146 0.0
H819 H 0.04245 0.5843 0.47864 0.0
H820 H 0.0329 0.44557 0.45977 0.0
H821 H 0.02626 0.41825 0.49107 0.0
C822 C 0.0327 0.46992 0.52113 0.0
C823 C 0.03577 0.50118 0.53548 0.0
C824 C 0.03054 0.48556 0.50309 0.0
C825 C 0.03435 0.54814 0.53183 0.0
C826 C 0.03335 0.56397 0.51394 0.0
C827 C 0.03752 0.54829 0.48145 0.0
C828 C 0.03819 0.51688 0.46709 0.0
C829 C 0.03296 0.53296 0.49945 0.0
C830 C 0.03198 0.47026 0.47072 0.0
C831 C 0.0286 0.45463 0.48859 0.0
H832 H 0.26361 0.86631 0.634 0.0
H833 H 0.1595 0.7693 0.64968 0.0
H834 H 0.10096 0.8159 0.63504 0.0
H835 H 0.07906 0.88501 0.61792 0.0
H836 H 0.18363 0.98214 0.60286 0.0
H837 H 0.24208 0.93448 0.61681 0.0
C838 C 0.22808 0.85548 0.63432 0.0
C839 C 0.216 0.81451 0.64302 0.0
C840 C 0.19461 0.88227 0.62577 0.0
C841 C 0.16979 0.80084 0.64317 0.0
C842 C 0.13625 0.82736 0.63471 0.0
C843 C 0.11472 0.89533 0.6175 0.0
C844 C 0.12699 0.93694 0.60931 0.0
C845 C 0.14825 0.86812 0.62591 0.0
C846 C 0.17327 0.95024 0.60908 0.0
C847 C 0.20676 0.92311 0.61712 0.0
H848 H 0.32306 0.88161 0.86845 0.0
H849 H 0.42572 0.78017 0.85685 0.0
H850 H 0.48268 0.82498 0.87356 0.0
H851 H 0.5033 0.89358 0.89156 0.0
H852 H 0.4002 0.99532 0.90204 0.0
H853 H 0.34333 0.94942 0.88602 0.0
C854 C 0.35796 0.86933 0.86945 0.0
C855 C 0.37007 0.82762 0.86131 0.0
C856 C 0.39036 0.89509 0.87915 0.0
C857 C 0.41548 0.8123 0.86284 0.0
C858 C 0.44802 0.83778 0.87251 0.0
C859 C 0.46819 0.90525 0.89055 0.0
C860 C 0.45583 0.94758 0.89814 0.0
C861 C 0.43579 0.87915 0.88083 0.0
C862 C 0.41049 0.96277 0.8964 0.0
C863 C 0.37799 0.93666 0.88716 0.0
H864 H 0.42339 0.04118 0.12163 0.0
H865 H 0.51682 0.14447 0.10224 0.0
H866 H 0.47297 0.20324 0.11831 0.0
H867 H 0.40664 0.22513 0.13761 0.0
H868 H 0.31475 0.12 0.15671 0.0
H869 H 0.36006 0.06204 0.14137 0.0
C870 C 0.43407 0.07658 0.12076 0.0
C871 C 0.47298 0.08848 0.11056 0.0
C872 C 0.40932 0.10981 0.13025 0.0
C873 C 0.48667 0.13446 0.10985 0.0
C874 C 0.46178 0.16802 0.11914 0.0
C875 C 0.39718 0.18943 0.13866 0.0
C876 C 0.35749 0.17683 0.14831 0.0
C877 C 0.42304 0.15608 0.12945 0.0
C878 C 0.34515 0.13055 0.14935 0.0
C879 C 0.37087 0.09737 0.1405 0.0
H880 H 0.16916 0.0453 0.38563 0.0
H881 H 0.0638 0.1447 0.39623 0.0
H882 H 0.10912 0.20327 0.38071 0.0
H883 H 0.17927 0.22633 0.36417 0.0
H884 H 0.28451 0.12636 0.35423 0.0
H885 H 0.23834 0.06789 0.36915 0.0
C886 C 0.15615 0.07983 0.38467 0.0
C887 C 0.11323 0.09059 0.39219 0.0
C888 C 0.18218 0.11318 0.37561 0.0
C889 C 0.09686 0.1355 0.39068 0.0
C890 C 0.12266 0.16898 0.38171 0.0
C891 C 0.19174 0.19159 0.36507 0.0
C892 C 0.23515 0.18065 0.358 0.0
C893 C 0.16533 0.15818 0.37404 0.0
C894 C 0.25119 0.13566 0.35951 0.0
C895 C 0.22489 0.10221 0.36812 0.0
H896 H 0.90256 0.04742 0.40928 0.0
H897 H 0.94565 0.99078 0.35817 0.0
H898 H 0.89048 0.03926 0.34246 0.0
H899 H 0.83623 0.10359 0.34392 0.0
H900 H 0.77684 0.14159 0.39522 0.0
H901 H 0.83246 0.09372 0.41084 0.0
C902 C 0.89691 0.04182 0.39497 0.0
C903 C 0.92649 0.01321 0.38515 0.0
C904 C 0.86249 0.06659 0.3862 0.0
C905 C 0.92247 0.01147 0.36615 0.0
C906 C 0.89084 0.03911 0.35716 0.0
C907 C 0.83178 0.09783 0.35828 0.0
C908 C 0.80031 0.12427 0.36817 0.0
C909 C 0.86095 0.06708 0.36708 0.0
C910 C 0.79976 0.1207 0.38719 0.0
C911 C 0.8315 0.09322 0.39615 0.0
H912 H 0.68178 0.04788 0.09391 0.0
H913 H 0.63746 0.99537 0.14566 0.0
H914 H 0.68795 0.04928 0.16098 0.0
H915 H 0.73826 0.1163 0.15911 0.0
H916 H 0.79878 0.15422 0.10798 0.0
H917 H 0.74882 0.09955 0.09243 0.0
C918 C 0.68629 0.04473 0.1084 0.0
C919 C 0.65734 0.01571 0.11848 0.0
C920 C 0.7181 0.07323 0.11713 0.0
C921 C 0.66005 0.01646 0.13752 0.0
C922 C 0.689 0.04727 0.14631 0.0
C923 C 0.7439 0.10986 0.14485 0.0
C924 C 0.7743 0.13764 0.13496 0.0
C925 C 0.71772 0.07617 0.13623 0.0
C926 C 0.77661 0.13246 0.11601 0.0
C927 C 0.74807 0.10118 0.10712 0.0
H928 H 0.77742 0.86692 0.89112 0.0
H929 H 0.73785 0.88933 0.83573 0.0
H930 H 0.69136 0.95413 0.84442 0.0
H931 H 0.65466 0.99968 0.86845 0.0
H932 H 0.66453 0.9496 0.92312 0.0
H933 H 0.72827 0.90062 0.91478 0.0
C934 C 0.75948 0.8868 0.88096 0.0
C935 C 0.76616 0.87727 0.86245 0.0
C936 C 0.72666 0.91918 0.88636 0.0
C937 C 0.739 0.90037 0.84967 0.0
C938 C 0.7106 0.93627 0.85478 0.0
C939 C 0.67154 0.97873 0.87856 0.0
C940 C 0.65872 0.98233 0.89686 0.0
C941 C 0.70379 0.94583 0.87316 0.0
C942 C 0.67782 0.95179 0.90946 0.0
C943 C 0.71333 0.92257 0.90454 0.0
H944 H 0.83445 0.90978 0.66124 0.0
H945 H 0.77653 0.87022 0.60989 0.0
H946 H 0.83489 0.91485 0.59429 0.0
H947 H 0.90491 0.96146 0.59571 0.0
H948 H 0.94666 0.02091 0.64645 0.0
H949 H 0.89046 0.97342 0.66239 0.0
C950 C 0.83079 0.91484 0.64683 0.0
C951 C 0.79886 0.88863 0.63698 0.0
C952 C 0.86138 0.94438 0.63791 0.0
C953 C 0.79963 0.89096 0.61792 0.0
C954 C 0.83293 0.91671 0.60894 0.0
C955 C 0.89895 0.96765 0.60996 0.0
C956 C 0.9281 0.99716 0.61959 0.0
C957 C 0.86393 0.94354 0.6188 0.0
C958 C 0.92372 0.99964 0.63858 0.0
C959 C 0.89146 0.97259 0.6477 0.0
H960 H 0.66149 0.28621 0.13434 0.0
H961 H 0.75594 0.39078 0.15182 0.0
H962 H 0.70998 0.44891 0.13701 0.0
H963 H 0.64482 0.4702 0.11846 0.0
H964 H 0.54866 0.3676 0.10075 0.0
H965 H 0.59375 0.30849 0.116 0.0
C966 C 0.67145 0.32181 0.13511 0.0
C967 C 0.71199 0.3342 0.14418 0.0
C968 C 0.64511 0.3553 0.12625 0.0
C969 C 0.72491 0.38037 0.1449 0.0
C970 C 0.69879 0.41366 0.13636 0.0
C971 C 0.63381 0.43487 0.11777 0.0
C972 C 0.59372 0.42327 0.10833 0.0
C973 C 0.65928 0.40146 0.12679 0.0
C974 C 0.57968 0.37737 0.10781 0.0
C975 C 0.60528 0.34362 0.11662 0.0
H976 H 0.81803 0.36557 0.36869 0.0
H977 H 0.92155 0.26675 0.35486 0.0
H978 H 0.98 0.31399 0.36944 0.0
H979 H 1.00185 0.38405 0.38605 0.0
H980 H 0.8977 0.48278 0.39924 0.0
H981 H 0.83945 0.43466 0.38527 0.0
C982 C 0.85341 0.35446 0.36875 0.0
C983 C 0.86538 0.31281 0.36061 0.0
C984 C 0.88675 0.38159 0.37725 0.0
C985 C 0.91139 0.29881 0.36094 0.0
C986 C 0.94485 0.3257 0.36936 0.0
C987 C 0.9663 0.39464 0.38605 0.0
C988 C 0.95409 0.4368 0.39374 0.0
C989 C 0.93291 0.36712 0.37763 0.0
C990 C 0.908 0.45045 0.39342 0.0
C991 C 0.87464 0.42304 0.38537 0.0
H992 H 0.99641 0.63079 0.61765 0.0
H993 H 0.89176 0.53402 0.60244 0.0
H994 H 0.83337 0.58137 0.61665 0.0
H995 H 0.81192 0.64916 0.63411 0.0
H996 H 0.91608 0.74583 0.64993 0.0
H997 H 0.97457 0.69954 0.63504 0.0
C998 C 0.96074 0.62049 0.61725 0.0
C999 C 0.94843 0.57907 0.60894 0.0
C1000 C 0.92724 0.64752 0.62581 0.0
C1001 C 0.90215 0.56578 0.60875 0.0
C1002 C 0.8687 0.59274 0.61694 0.0
C1003 C 0.84745 0.65997 0.6344 0.0
C1004 C 0.85956 0.70076 0.64321 0.0
C1005 C 0.88088 0.63337 0.62571 0.0
C1006 C 0.90577 0.71443 0.64333 0.0
C1007 C 0.93928 0.68808 0.63473 0.0
H1008 H 0.75217 0.63231 0.86865 0.0
H1009 H 0.64976 0.73417 0.85739 0.0
H1010 H 0.5925 0.68888 0.87381 0.0
H1011 H 0.57154 0.61972 0.89141 0.0
H1012 H 0.67438 0.51758 0.90155 0.0
H1013 H 0.73156 0.56395 0.88586 0.0
C1014 C 0.71727 0.64458 0.86967 0.0
C1015 C 0.7053 0.68654 0.86171 0.0
C1016 C 0.68469 0.61853 0.87918 0.0
C1017 C 0.65988 0.70185 0.86325 0.0
C1018 C 0.62717 0.67609 0.87275 0.0
C1019 C 0.60664 0.60806 0.89041 0.0
C1020 C 0.61884 0.56548 0.8978 0.0
C1021 C 0.63923 0.63445 0.88088 0.0
C1022 C 0.66421 0.55031 0.89606 0.0
C1023 C 0.69688 0.5767 0.88701 0.0
H1024 H 0.42064 0.51395 0.86728 0.0
H1025 H 0.41063 0.56327 0.92206 0.0
H1026 H 0.34729 0.61275 0.91384 0.0
H1027 H 0.29829 0.64684 0.89031 0.0
H1028 H 0.33792 0.62518 0.83484 0.0
H1029 H 0.38427 0.56012 0.84335 0.0
C1030 C 0.40381 0.53485 0.87743 0.0
C1031 C 0.41642 0.53087 0.89573 0.0
C1032 C 0.37176 0.56801 0.87212 0.0
C1033 C 0.39746 0.56138 0.90839 0.0
C1034 C 0.36217 0.59088 0.90355 0.0
C1035 C 0.31622 0.62709 0.88009 0.0
C1036 C 0.3096 0.6369 0.86161 0.0
C1037 C 0.34893 0.59455 0.88539 0.0
C1038 C 0.33675 0.61395 0.84876 0.0
C1039 C 0.36505 0.57789 0.85376 0.0
H1040 H 0.17068 0.55423 0.595 0.0
H1041 H 0.12832 0.49489 0.64575 0.0
H1042 H 0.18456 0.54217 0.66168 0.0
H1043 H 0.2408 0.60557 0.66055 0.0
H1044 H 0.29922 0.64511 0.60921 0.0
H1045 H 0.24087 0.60062 0.5936 0.0
C1046 C 0.1765 0.54802 0.60926 0.0
C1047 C 0.14717 0.51862 0.61889 0.0
C1048 C 0.21153 0.572 0.61811 0.0
C1049 C 0.1514 0.51609 0.63787 0.0
C1050 C 0.18368 0.54301 0.64699 0.0
C1051 C 0.24455 0.60055 0.64613 0.0
C1052 C 0.27663 0.62668 0.6363 0.0
C1053 C 0.21393 0.57113 0.63721 0.0
C1054 C 0.276 0.6244 0.61723 0.0
C1055 C 0.2427 0.59875 0.60825 0.0
H1056 H 0.17548 0.45901 0.40865 0.0
H1057 H 0.13456 0.51559 0.3573 0.0
H1058 H 0.18772 0.46449 0.34178 0.0
H1059 H 0.24251 0.40045 0.34332 0.0
H1060 H 0.29961 0.36162 0.39486 0.0
H1061 H 0.2436 0.40961 0.4103 0.0
C1062 C 0.18126 0.46383 0.3943 0.0
C1063 C 0.153 0.49359 0.3844 0.0
C1064 C 0.21481 0.4375 0.3856 0.0
C1065 C 0.15687 0.49423 0.36538 0.0
C1066 C 0.18743 0.46511 0.35648 0.0
C1067 C 0.24606 0.40581 0.35775 0.0
C1068 C 0.2775 0.37953 0.36771 0.0
C1069 C 0.21668 0.4367 0.36648 0.0
C1070 C 0.27692 0.38251 0.38676 0.0
C1071 C 0.24498 0.41014 0.39562 0.0
H1072 H 0.38414 0.46246 0.09421 0.0
H1073 H 0.42949 0.51767 0.14532 0.0
H1074 H 0.38025 0.46378 0.16137 0.0
H1075 H 0.33086 0.39595 0.16037 0.0
H1076 H 0.27031 0.35391 0.10981 0.0
H1077 H 0.31837 0.40914 0.09355 0.0
C1078 C 0.38021 0.46597 0.10872 0.0
C1079 C 0.4091 0.49577 0.11842 0.0
C1080 C 0.34935 0.43715 0.11786 0.0
C1081 C 0.40697 0.49586 0.13748 0.0
C1082 C 0.37879 0.46503 0.14668 0.0
C1083 C 0.3251 0.40132 0.14604 0.0
C1084 C 0.29515 0.37237 0.13652 0.0
C1085 C 0.35039 0.43508 0.13699 0.0
C1086 C 0.29225 0.37653 0.11754 0.0
C1087 C 0.31969 0.40811 0.10825 0.0
loop_
_geom_bond_atom_site_label_1
_geom_bond_atom_site_label_2
_geom_bond_distance
_geom_bond_site_symmetry_2
_ccdc_geom_bond_type
Mn0 O5 2.095 . S
Mn0 O15 2.162 . S
Mn0 O16 2.297 1_545 S
Mn0 O24 2.385 1_455 S
Mn0 O25 2.209 1_455 S
Mn0 O26 2.094 . S
Mn1 O6 2.121 . S
Mn1 N8 2.257 . S
Mn1 N17 2.282 . S
Mn1 O25 2.215 . S
Mn1 O27 2.117 . S
C2 O24 1.236 . S
C2 O25 1.284 . S
C3 O15 1.281 1_565 S
C3 O16 1.236 . S
C4 O26 1.258 . S
C4 O27 1.244 1_455 S
O5 Mn0 2.095 . S
O5 C14 1.250 . S
O6 Mn1 2.121 . S
O6 C14 1.258 1_655 S
C7 N8 1.326 1_565 S
C7 C11 1.460 . S
C7 H13 0.929 . S
N8 Mn1 2.257 . S
N8 C7 1.326 1_545 S
N8 C12 1.362 . S
C9 C10 1.258 . S
C9 C12 1.431 1_565 S
C9 C29 1.449 . S
C10 C9 1.258 . S
C10 C11 1.477 . S
C10 H30 0.931 . S
C11 C7 1.460 . S
C11 C10 1.477 . S
C11 H31 0.930 . S
C12 N8 1.362 . S
C12 C9 1.431 1_545 S
C12 C22 1.476 . S
H13 C7 0.929 . S
C14 O5 1.250 . S
C14 O6 1.258 1_455 S
O15 Mn0 2.162 . S
O15 C3 1.281 1_545 S
O16 Mn0 2.297 1_565 S
O16 C3 1.236 . S
N17 Mn1 2.282 . S
N17 C18 1.328 . S
N17 C22 1.318 . S
C18 N17 1.328 . S
C18 C19 1.457 . S
C18 H23 0.929 . S
C19 C18 1.457 . S
C19 C20 1.291 . S
C19 H32 0.931 . S
C20 C19 1.291 . S
C20 C21 1.373 . S
C20 H33 0.929 . S
C21 C20 1.373 . S
C21 C22 1.396 . S
C21 C28 1.403 . S
C22 C12 1.476 . S
C22 N17 1.318 . S
C22 C21 1.396 . S
H23 C18 0.929 . S
O24 Mn0 2.385 1_655 S
O24 C2 1.236 . S
O25 Mn0 2.209 1_655 S
O25 Mn1 2.215 . S
O25 C2 1.284 . S
O26 Mn0 2.094 . S
O26 C4 1.258 . S
O27 Mn1 2.117 . S
O27 C4 1.244 1_655 S
C28 C21 1.403 . S
C28 C29 1.399 1_545 S
C28 H34 0.929 . S
C29 C9 1.449 . S
C29 C28 1.399 1_565 S
C29 H35 0.930 . S
H30 C10 0.931 . S
H31 C11 0.930 . S
H32 C19 0.931 . S
H33 C20 0.929 . S
H34 C28 0.929 . S
H35 C29 0.930 . S
Mn36 O41 2.095 . S
Mn36 O51 2.162 . S
Mn36 O52 2.297 . S
Mn36 O60 2.385 . S
Mn36 O61 2.209 . S
Mn36 O62 2.094 . S
Mn37 O42 2.121 . S
Mn37 N44 2.257 . S
Mn37 N53 2.282 . S
Mn37 O61 2.215 . S
Mn37 O63 2.117 . S
C38 O60 1.234 . S
C38 O61 1.283 . S
C39 O51 1.281 . S
C39 O52 1.236 . S
C40 O62 1.240 . S
C40 O63 1.264 . S
O41 Mn36 2.095 . S
O41 C50 1.250 . S
O42 Mn37 2.121 . S
O42 C50 1.258 . S
C43 N44 1.326 . S
C43 C47 1.460 . S
C43 H49 0.929 . S
N44 Mn37 2.257 . S
N44 C43 1.326 . S
N44 C48 1.362 . S
C45 C46 1.258 . S
C45 C48 1.431 . S
C45 C65 1.449 . S
C46 C45 1.258 . S
C46 C47 1.477 . S
C46 H66 0.931 . S
C47 C43 1.460 . S
C47 C46 1.477 . S
C47 H67 0.930 . S
C48 N44 1.362 . S
C48 C45 1.431 . S
C48 C58 1.476 . S
H49 C43 0.929 . S
C50 O41 1.250 . S
C50 O42 1.258 . S
O51 Mn36 2.162 . S
O51 C39 1.281 . S
O52 Mn36 2.297 . S
O52 C39 1.236 . S
N53 Mn37 2.282 . S
N53 C54 1.328 . S
N53 C58 1.318 . S
C54 N53 1.328 . S
C54 C55 1.457 . S
C54 H59 0.929 . S
C55 C54 1.457 . S
C55 C56 1.291 . S
C55 H68 0.931 . S
C56 C55 1.291 . S
C56 C57 1.373 . S
C56 H69 0.929 . S
C57 C56 1.373 . S
C57 C58 1.396 . S
C57 C64 1.403 . S
C58 C48 1.476 . S
C58 N53 1.318 . S
C58 C57 1.396 . S
H59 C54 0.929 . S
O60 Mn36 2.385 . S
O60 C38 1.234 . S
O61 Mn36 2.209 . S
O61 Mn37 2.215 . S
O61 C38 1.283 . S
O62 Mn36 2.094 . S
O62 C40 1.240 . S
O63 Mn37 2.117 . S
O63 C40 1.264 . S
C64 C57 1.403 . S
C64 C65 1.399 . S
C64 H70 0.929 . S
C65 C45 1.449 . S
C65 C64 1.399 . S
C65 H71 0.930 . S
H66 C46 0.931 . S
H67 C47 0.930 . S
H68 C55 0.931 . S
H69 C56 0.929 . S
H70 C64 0.929 . S
H71 C65 0.930 . S
Mn72 O77 2.095 . S
Mn72 O87 2.162 . S
Mn72 O88 2.297 1_565 S
Mn72 O96 2.385 . S
Mn72 O97 2.209 . S
Mn72 O98 2.094 . S
Mn73 O78 2.121 . S
Mn73 N80 2.257 . S
Mn73 N89 2.282 . S
Mn73 O97 2.215 . S
Mn73 O99 2.117 . S
C74 O96 1.236 . S
C74 O97 1.284 . S
C75 O87 1.281 1_545 S
C75 O88 1.236 . S
C76 O98 1.240 . S
C76 O99 1.264 . S
O77 Mn72 2.095 . S
O77 C86 1.250 . S
O78 Mn73 2.121 . S
O78 C86 1.258 . S
C79 N80 1.326 1_545 S
C79 C83 1.460 . S
C79 H85 0.929 . S
N80 Mn73 2.257 . S
N80 C79 1.326 1_565 S
N80 C84 1.362 . S
C81 C82 1.258 . S
C81 C84 1.431 1_545 S
C81 C101 1.449 . S
C82 C81 1.258 . S
C82 C83 1.477 . S
C82 H102 0.931 . S
C83 C79 1.460 . S
C83 C82 1.477 . S
C83 H103 0.930 . S
C84 N80 1.362 . S
C84 C81 1.431 1_565 S
C84 C94 1.476 . S
H85 C79 0.929 . S
C86 O77 1.250 . S
C86 O78 1.258 . S
O87 Mn72 2.162 . S
O87 C75 1.281 1_565 S
O88 Mn72 2.297 1_545 S
O88 C75 1.236 . S
N89 Mn73 2.282 . S
N89 C90 1.328 . S
N89 C94 1.318 . S
C90 N89 1.328 . S
C90 C91 1.457 . S
C90 H95 0.929 . S
C91 C90 1.457 . S
C91 C92 1.291 . S
C91 H104 0.931 . S
C92 C91 1.291 . S
C92 C93 1.373 . S
C92 H105 0.929 . S
C93 C92 1.373 . S
C93 C94 1.396 . S
C93 C100 1.403 . S
C94 C84 1.476 . S
C94 N89 1.318 . S
C94 C93 1.396 . S
H95 C90 0.929 . S
O96 Mn72 2.385 . S
O96 C74 1.236 . S
O97 Mn72 2.209 . S
O97 Mn73 2.215 . S
O97 C74 1.284 . S
O98 Mn72 2.094 . S
O98 C76 1.240 . S
O99 Mn73 2.117 . S
O99 C76 1.264 . S
C100 C93 1.403 . S
C100 C101 1.399 1_565 S
C100 H106 0.929 . S
C101 C81 1.449 . S
C101 C100 1.399 1_545 S
C101 H107 0.930 . S
H102 C82 0.931 . S
H103 C83 0.930 . S
H104 C91 0.931 . S
H105 C92 0.929 . S
H106 C100 0.929 . S
H107 C101 0.930 . S
Mn108 O113 2.095 . S
Mn108 O123 2.162 . S
Mn108 O124 2.297 . S
Mn108 O132 2.385 . S
Mn108 O133 2.209 . S
Mn108 O134 2.094 . S
Mn109 O114 2.121 . S
Mn109 N116 2.257 . S
Mn109 N125 2.282 . S
Mn109 O133 2.215 . S
Mn109 O135 2.117 . S
C110 O132 1.234 . S
C110 O133 1.283 . S
C111 O123 1.281 . S
C111 O124 1.236 . S
C112 O134 1.240 . S
C112 O135 1.264 . S
O113 Mn108 2.095 . S
O113 C122 1.250 . S
O114 Mn109 2.121 . S
O114 C122 1.258 . S
C115 N116 1.326 . S
C115 C119 1.460 . S
C115 H121 0.929 . S
N116 Mn109 2.257 . S
N116 C115 1.326 . S
N116 C120 1.362 . S
C117 C118 1.258 . S
C117 C120 1.431 . S
C117 C137 1.449 . S
C118 C117 1.258 . S
C118 C119 1.477 . S
C118 H138 0.931 . S
C119 C115 1.460 . S
C119 C118 1.477 . S
C119 H139 0.930 . S
C120 N116 1.362 . S
C120 C117 1.431 . S
C120 C130 1.476 . S
H121 C115 0.929 . S
C122 O113 1.250 . S
C122 O114 1.258 . S
O123 Mn108 2.162 . S
O123 C111 1.281 . S
O124 Mn108 2.297 . S
O124 C111 1.236 . S
N125 Mn109 2.282 . S
N125 C126 1.328 . S
N125 C130 1.318 . S
C126 N125 1.328 . S
C126 C127 1.457 . S
C126 H131 0.929 . S
C127 C126 1.457 . S
C127 C128 1.291 . S
C127 H140 0.931 . S
C128 C127 1.291 . S
C128 C129 1.373 . S
C128 H141 0.929 . S
C129 C128 1.373 . S
C129 C130 1.396 . S
C129 C136 1.403 . S
C130 C120 1.476 . S
C130 N125 1.318 . S
C130 C129 1.396 . S
H131 C126 0.929 . S
O132 Mn108 2.385 . S
O132 C110 1.234 . S
O133 Mn108 2.209 . S
O133 Mn109 2.215 . S
O133 C110 1.283 . S
O134 Mn108 2.094 . S
O134 C112 1.240 . S
O135 Mn109 2.117 . S
O135 C112 1.264 . S
C136 C129 1.403 . S
C136 C137 1.399 . S
C136 H142 0.929 . S
C137 C117 1.449 . S
C137 C136 1.399 . S
C137 H143 0.930 . S
H138 C118 0.931 . S
H139 C119 0.930 . S
H140 C127 0.931 . S
H141 C128 0.929 . S
H142 C136 0.929 . S
H143 C137 0.930 . S
Mn144 O149 2.095 . S
Mn144 O159 2.162 . S
Mn144 O160 2.297 1_565 S
Mn144 O168 2.385 1_455 S
Mn144 O169 2.209 1_455 S
Mn144 O170 2.094 . S
Mn145 O150 2.121 . S
Mn145 N152 2.257 . S
Mn145 N161 2.282 . S
Mn145 O169 2.215 . S
Mn145 O171 2.117 . S
C146 O168 1.236 . S
C146 O169 1.284 . S
C147 O159 1.281 1_545 S
C147 O160 1.236 . S
C148 O170 1.258 . S
C148 O171 1.244 1_455 S
O149 Mn144 2.095 . S
O149 C158 1.250 . S
O150 Mn145 2.121 . S
O150 C158 1.258 1_655 S
C151 N152 1.326 1_545 S
C151 C155 1.460 . S
C151 H157 0.929 . S
N152 Mn145 2.257 . S
N152 C151 1.326 1_565 S
N152 C156 1.362 . S
C153 C154 1.258 . S
C153 C156 1.431 1_545 S
C153 C173 1.449 . S
C154 C153 1.258 . S
C154 C155 1.477 . S
C154 H174 0.931 . S
C155 C151 1.460 . S
C155 C154 1.477 . S
C155 H175 0.930 . S
C156 N152 1.362 . S
C156 C153 1.431 1_565 S
C156 C166 1.476 . S
H157 C151 0.929 . S
C158 O149 1.250 . S
C158 O150 1.258 1_455 S
O159 Mn144 2.162 . S
O159 C147 1.281 1_565 S
O160 Mn144 2.297 1_545 S
O160 C147 1.236 . S
N161 Mn145 2.282 . S
N161 C162 1.328 . S
N161 C166 1.318 . S
C162 N161 1.328 . S
C162 C163 1.457 . S
C162 H167 0.929 . S
C163 C162 1.457 . S
C163 C164 1.291 . S
C163 H176 0.931 . S
C164 C163 1.291 . S
C164 C165 1.373 . S
C164 H177 0.929 . S
C165 C164 1.373 . S
C165 C166 1.396 . S
C165 C172 1.403 . S
C166 C156 1.476 . S
C166 N161 1.318 . S
C166 C165 1.396 . S
H167 C162 0.929 . S
O168 Mn144 2.385 1_655 S
O168 C146 1.236 . S
O169 Mn144 2.209 1_655 S
O169 Mn145 2.215 . S
O169 C146 1.284 . S
O170 Mn144 2.094 . S
O170 C148 1.258 . S
O171 Mn145 2.117 . S
O171 C148 1.244 1_655 S
C172 C165 1.403 . S
C172 C173 1.399 1_565 S
C172 H178 0.929 . S
C173 C153 1.449 . S
C173 C172 1.399 1_545 S
C173 H179 0.930 . S
H174 C154 0.931 . S
H175 C155 0.930 . S
H176 C163 0.931 . S
H177 C164 0.929 . S
H178 C172 0.929 . S
H179 C173 0.930 . S
Mn180 O185 2.095 . S
Mn180 O195 2.162 . S
Mn180 O196 2.297 . S
Mn180 O204 2.385 . S
Mn180 O205 2.209 . S
Mn180 O206 2.094 . S
Mn181 O186 2.121 . S
Mn181 N188 2.257 . S
Mn181 N197 2.282 . S
Mn181 O205 2.215 . S
Mn181 O207 2.117 . S
C182 O204 1.234 . S
C182 O205 1.283 . S
C183 O195 1.281 . S
C183 O196 1.236 . S
C184 O206 1.240 . S
C184 O207 1.264 . S
O185 Mn180 2.095 . S
O185 C194 1.250 . S
O186 Mn181 2.121 . S
O186 C194 1.258 . S
C187 N188 1.326 . S
C187 C191 1.460 . S
C187 H193 0.929 . S
N188 Mn181 2.257 . S
N188 C187 1.326 . S
N188 C192 1.362 . S
C189 C190 1.258 . S
C189 C192 1.431 . S
C189 C209 1.449 . S
C190 C189 1.258 . S
C190 C191 1.477 . S
C190 H210 0.931 . S
C191 C187 1.460 . S
C191 C190 1.477 . S
C191 H211 0.930 . S
C192 N188 1.362 . S
C192 C189 1.431 . S
C192 C202 1.476 . S
H193 C187 0.929 . S
C194 O185 1.250 . S
C194 O186 1.258 . S
O195 Mn180 2.162 . S
O195 C183 1.281 . S
O196 Mn180 2.297 . S
O196 C183 1.236 . S
N197 Mn181 2.282 . S
N197 C198 1.328 . S
N197 C202 1.318 . S
C198 N197 1.328 . S
C198 C199 1.457 . S
C198 H203 0.929 . S
C199 C198 1.457 . S
C199 C200 1.291 . S
C199 H212 0.931 . S
C200 C199 1.291 . S
C200 C201 1.373 . S
C200 H213 0.929 . S
C201 C200 1.373 . S
C201 C202 1.396 . S
C201 C208 1.403 . S
C202 C192 1.476 . S
C202 N197 1.318 . S
C202 C201 1.396 . S
H203 C198 0.929 . S
O204 Mn180 2.385 . S
O204 C182 1.234 . S
O205 Mn180 2.209 . S
O205 Mn181 2.215 . S
O205 C182 1.283 . S
O206 Mn180 2.094 . S
O206 C184 1.240 . S
O207 Mn181 2.117 . S
O207 C184 1.264 . S
C208 C201 1.403 . S
C208 C209 1.399 . S
C208 H214 0.929 . S
C209 C189 1.449 . S
C209 C208 1.399 . S
C209 H215 0.930 . S
H210 C190 0.931 . S
H211 C191 0.930 . S
H212 C199 0.931 . S
H213 C200 0.929 . S
H214 C208 0.929 . S
H215 C209 0.930 . S
Mn216 O221 2.095 . S
Mn216 O231 2.162 . S
Mn216 O232 2.297 1_545 S
Mn216 O240 2.385 . S
Mn216 O241 2.209 . S
Mn216 O242 2.094 . S
Mn217 O222 2.121 . S
Mn217 N224 2.257 . S
Mn217 N233 2.282 . S
Mn217 O241 2.215 . S
Mn217 O243 2.117 . S
C218 O240 1.236 . S
C218 O241 1.284 . S
C219 O231 1.281 1_565 S
C219 O232 1.236 . S
C220 O242 1.240 . S
C220 O243 1.264 . S
O221 Mn216 2.095 . S
O221 C230 1.250 . S
O222 Mn217 2.121 . S
O222 C230 1.258 . S
C223 N224 1.326 1_565 S
C223 C227 1.460 . S
C223 H229 0.929 . S
N224 Mn217 2.257 . S
N224 C223 1.326 1_545 S
N224 C228 1.362 . S
C225 C226 1.258 . S
C225 C228 1.431 1_565 S
C225 C245 1.449 . S
C226 C225 1.258 . S
C226 C227 1.477 . S
C226 H246 0.931 . S
C227 C223 1.460 . S
C227 C226 1.477 . S
C227 H247 0.930 . S
C228 N224 1.362 . S
C228 C225 1.431 1_545 S
C228 C238 1.476 . S
H229 C223 0.929 . S
C230 O221 1.250 . S
C230 O222 1.258 . S
O231 Mn216 2.162 . S
O231 C219 1.281 1_545 S
O232 Mn216 2.297 1_565 S
O232 C219 1.236 . S
N233 Mn217 2.282 . S
N233 C234 1.328 . S
N233 C238 1.318 . S
C234 N233 1.328 . S
C234 C235 1.457 . S
C234 H239 0.929 . S
C235 C234 1.457 . S
C235 C236 1.291 . S
C235 H248 0.931 . S
C236 C235 1.291 . S
C236 C237 1.373 . S
C236 H249 0.929 . S
C237 C236 1.373 . S
C237 C238 1.396 . S
C237 C244 1.403 . S
C238 C228 1.476 . S
C238 N233 1.318 . S
C238 C237 1.396 . S
H239 C234 0.929 . S
O240 Mn216 2.385 . S
O240 C218 1.236 . S
O241 Mn216 2.209 . S
O241 Mn217 2.215 . S
O241 C218 1.284 . S
O242 Mn216 2.094 . S
O242 C220 1.240 . S
O243 Mn217 2.117 . S
O243 C220 1.264 . S
C244 C237 1.403 . S
C244 C245 1.399 1_545 S
C244 H250 0.929 . S
C245 C225 1.449 . S
C245 C244 1.399 1_565 S
C245 H251 0.930 . S
H246 C226 0.931 . S
H247 C227 0.930 . S
H248 C235 0.931 . S
H249 C236 0.929 . S
H250 C244 0.929 . S
H251 C245 0.930 . S
Mn252 O257 2.095 . S
Mn252 O267 2.162 . S
Mn252 O268 2.297 . S
Mn252 O276 2.385 . S
Mn252 O277 2.209 . S
Mn252 O278 2.094 . S
Mn253 O258 2.121 . S
Mn253 N260 2.257 . S
Mn253 N269 2.282 . S
Mn253 O277 2.215 . S
Mn253 O279 2.117 . S
C254 O276 1.234 . S
C254 O277 1.283 . S
C255 O267 1.281 . S
C255 O268 1.236 . S
C256 O278 1.240 . S
C256 O279 1.264 . S
O257 Mn252 2.095 . S
O257 C266 1.250 . S
O258 Mn253 2.121 . S
O258 C266 1.258 . S
C259 N260 1.326 . S
C259 C263 1.460 . S
C259 H265 0.929 . S
N260 Mn253 2.257 . S
N260 C259 1.326 . S
N260 C264 1.362 . S
C261 C262 1.258 . S
C261 C264 1.431 . S
C261 C281 1.449 . S
C262 C261 1.258 . S
C262 C263 1.477 . S
C262 H282 0.931 . S
C263 C259 1.460 . S
C263 C262 1.477 . S
C263 H283 0.930 . S
C264 N260 1.362 . S
C264 C261 1.431 . S
C264 C274 1.476 . S
H265 C259 0.929 . S
C266 O257 1.250 . S
C266 O258 1.258 . S
O267 Mn252 2.162 . S
O267 C255 1.281 . S
O268 Mn252 2.297 . S
O268 C255 1.236 . S
N269 Mn253 2.282 . S
N269 C270 1.328 . S
N269 C274 1.318 . S
C270 N269 1.328 . S
C270 C271 1.457 . S
C270 H275 0.929 . S
C271 C270 1.457 . S
C271 C272 1.291 . S
C271 H284 0.931 . S
C272 C271 1.291 . S
C272 C273 1.373 . S
C272 H285 0.929 . S
C273 C272 1.373 . S
C273 C274 1.396 . S
C273 C280 1.403 . S
C274 C264 1.476 . S
C274 N269 1.318 . S
C274 C273 1.396 . S
H275 C270 0.929 . S
O276 Mn252 2.385 . S
O276 C254 1.234 . S
O277 Mn252 2.209 . S
O277 Mn253 2.215 . S
O277 C254 1.283 . S
O278 Mn252 2.094 . S
O278 C256 1.240 . S
O279 Mn253 2.117 . S
O279 C256 1.264 . S
C280 C273 1.403 . S
C280 C281 1.399 . S
C280 H286 0.929 . S
C281 C261 1.449 . S
C281 C280 1.399 . S
C281 H287 0.930 . S
H282 C262 0.931 . S
H283 C263 0.930 . S
H284 C271 0.931 . S
H285 C272 0.929 . S
H286 C280 0.929 . S
H287 C281 0.930 . S
Mn288 O293 2.095 . S
Mn288 O303 2.162 . S
Mn288 O304 2.297 . S
Mn288 O312 2.385 . S
Mn288 O313 2.209 . S
Mn288 O314 2.094 . S
Mn289 O294 2.121 . S
Mn289 N296 2.257 . S
Mn289 N305 2.282 . S
Mn289 O313 2.215 . S
Mn289 O315 2.117 . S
C290 O312 1.234 . S
C290 O313 1.283 . S
C291 O303 1.281 . S
C291 O304 1.236 . S
C292 O314 1.240 . S
C292 O315 1.264 . S
O293 Mn288 2.095 . S
O293 C302 1.250 . S
O294 Mn289 2.121 . S
O294 C302 1.258 . S
C295 N296 1.326 . S
C295 C299 1.460 . S
C295 H301 0.929 . S
N296 Mn289 2.257 . S
N296 C295 1.326 . S
N296 C300 1.362 . S
C297 C298 1.258 . S
C297 C300 1.431 . S
C297 C317 1.449 1_545 S
C298 C297 1.258 . S
C298 C299 1.477 . S
C298 H318 0.931 1_545 S
C299 C295 1.460 . S
C299 C298 1.477 . S
C299 H319 0.930 . S
C300 N296 1.362 . S
C300 C297 1.431 . S
C300 C310 1.476 . S
H301 C295 0.929 . S
C302 O293 1.250 . S
C302 O294 1.258 . S
O303 Mn288 2.162 . S
O303 C291 1.281 . S
O304 Mn288 2.297 . S
O304 C291 1.236 . S
N305 Mn289 2.282 . S
N305 C306 1.328 . S
N305 C310 1.318 . S
C306 N305 1.328 . S
C306 C307 1.457 . S
C306 H311 0.929 . S
C307 C306 1.457 . S
C307 C308 1.291 . S
C307 H320 0.931 . S
C308 C307 1.291 . S
C308 C309 1.373 . S
C308 H321 0.921 1_545 S
C309 C308 1.373 . S
C309 C310 1.396 . S
C309 C316 1.403 1_545 S
C310 C300 1.476 . S
C310 N305 1.318 . S
C310 C309 1.396 . S
H311 C306 0.929 . S
O312 Mn288 2.385 . S
O312 C290 1.234 . S
O313 Mn288 2.209 . S
O313 Mn289 2.215 . S
O313 C290 1.283 . S
O314 Mn288 2.094 . S
O314 C292 1.240 . S
O315 Mn289 2.117 . S
O315 C292 1.264 . S
C316 C309 1.403 1_565 S
C316 C317 1.399 . S
C316 H322 0.929 . S
C317 C297 1.449 1_565 S
C317 C316 1.399 . S
C317 H323 0.930 . S
H318 C298 0.931 1_565 S
H319 C299 0.930 . S
H320 C307 0.931 . S
H321 C308 0.921 1_565 S
H322 C316 0.929 . S
H323 C317 0.930 . S
Mn324 O329 2.095 . S
Mn324 O339 2.162 . S
Mn324 O340 2.297 . S
Mn324 O348 2.385 . S
Mn324 O349 2.209 . S
Mn324 O350 2.094 . S
Mn325 O330 2.121 . S
Mn325 N332 2.257 . S
Mn325 N341 2.282 . S
Mn325 O349 2.215 . S
Mn325 O351 2.117 . S
C326 O348 1.234 . S
C326 O349 1.283 . S
C327 O339 1.281 . S
C327 O340 1.236 . S
C328 O350 1.240 . S
C328 O351 1.264 . S
O329 Mn324 2.095 . S
O329 C338 1.250 . S
O330 Mn325 2.121 . S
O330 C338 1.258 . S
C331 N332 1.326 . S
C331 C335 1.460 . S
C331 H337 0.929 . S
N332 Mn325 2.257 . S
N332 C331 1.326 . S
N332 C336 1.362 . S
C333 C334 1.258 . S
C333 C336 1.431 . S
C333 C353 1.449 1_565 S
C334 C333 1.258 . S
C334 C335 1.477 . S
C334 H354 0.931 1_565 S
C335 C331 1.460 . S
C335 C334 1.477 . S
C335 H355 0.930 . S
C336 N332 1.362 . S
C336 C333 1.431 . S
C336 C346 1.476 . S
H337 C331 0.929 . S
C338 O329 1.250 . S
C338 O330 1.258 . S
O339 Mn324 2.162 . S
O339 C327 1.281 . S
O340 Mn324 2.297 . S
O340 C327 1.236 . S
N341 Mn325 2.282 . S
N341 C342 1.328 . S
N341 C346 1.318 . S
C342 N341 1.328 . S
C342 C343 1.457 . S
C342 H347 0.929 . S
C343 C342 1.457 . S
C343 C344 1.291 . S
C343 H356 0.931 . S
C344 C343 1.291 . S
C344 C345 1.373 . S
C344 H357 0.921 1_565 S
C345 C344 1.373 . S
C345 C346 1.396 . S
C345 C352 1.403 1_565 S
C346 C336 1.476 . S
C346 N341 1.318 . S
C346 C345 1.396 . S
H347 C342 0.929 . S
O348 Mn324 2.385 . S
O348 C326 1.234 . S
O349 Mn324 2.209 . S
O349 Mn325 2.215 . S
O349 C326 1.283 . S
O350 Mn324 2.094 . S
O350 C328 1.240 . S
O351 Mn325 2.117 . S
O351 C328 1.264 . S
C352 C345 1.403 1_545 S
C352 C353 1.399 . S
C352 H358 0.929 . S
C353 C333 1.449 1_545 S
C353 C352 1.399 . S
C353 H359 0.930 . S
H354 C334 0.931 1_545 S
H355 C335 0.930 . S
H356 C343 0.931 . S
H357 C344 0.921 1_545 S
H358 C352 0.929 . S
H359 C353 0.930 . S
Mn360 O365 2.095 . S
Mn360 O375 2.162 . S
Mn360 O376 2.297 . S
Mn360 O384 2.385 . S
Mn360 O385 2.209 . S
Mn360 O386 2.094 . S
Mn361 O366 2.121 . S
Mn361 N368 2.257 . S
Mn361 N377 2.282 . S
Mn361 O385 2.215 . S
Mn361 O387 2.117 . S
C362 O384 1.234 . S
C362 O385 1.283 . S
C363 O375 1.281 . S
C363 O376 1.236 . S
C364 O386 1.240 . S
C364 O387 1.264 . S
O365 Mn360 2.095 . S
O365 C374 1.250 . S
O366 Mn361 2.121 . S
O366 C374 1.258 . S
C367 N368 1.326 . S
C367 C371 1.460 . S
C367 H373 0.929 . S
N368 Mn361 2.257 . S
N368 C367 1.326 . S
N368 C372 1.362 . S
C369 C370 1.258 . S
C369 C372 1.431 . S
C369 C389 1.449 1_545 S
C370 C369 1.258 . S
C370 C371 1.477 . S
C370 H390 0.931 1_545 S
C371 C367 1.460 . S
C371 C370 1.477 . S
C371 H391 0.930 . S
C372 N368 1.362 . S
C372 C369 1.431 . S
C372 C382 1.476 . S
H373 C367 0.929 . S
C374 O365 1.250 . S
C374 O366 1.258 . S
O375 Mn360 2.162 . S
O375 C363 1.281 . S
O376 Mn360 2.297 . S
O376 C363 1.236 . S
N377 Mn361 2.282 . S
N377 C378 1.328 . S
N377 C382 1.318 . S
C378 N377 1.328 . S
C378 C379 1.457 . S
C378 H383 0.929 . S
C379 C378 1.457 . S
C379 C380 1.291 . S
C379 H392 0.931 . S
C380 C379 1.291 . S
C380 C381 1.373 . S
C380 H393 0.921 1_545 S
C381 C380 1.373 . S
C381 C382 1.396 . S
C381 C388 1.403 1_545 S
C382 C372 1.476 . S
C382 N377 1.318 . S
C382 C381 1.396 . S
H383 C378 0.929 . S
O384 Mn360 2.385 . S
O384 C362 1.234 . S
O385 Mn360 2.209 . S
O385 Mn361 2.215 . S
O385 C362 1.283 . S
O386 Mn360 2.094 . S
O386 C364 1.240 . S
O387 Mn361 2.117 . S
O387 C364 1.264 . S
C388 C381 1.403 1_565 S
C388 C389 1.399 . S
C388 H394 0.929 . S
C389 C369 1.449 1_565 S
C389 C388 1.399 . S
C389 H395 0.930 . S
H390 C370 0.931 1_565 S
H391 C371 0.930 . S
H392 C379 0.931 . S
H393 C380 0.921 1_565 S
H394 C388 0.929 . S
H395 C389 0.930 . S
Mn396 O401 2.095 . S
Mn396 O411 2.162 . S
Mn396 O412 2.297 . S
Mn396 O420 2.385 . S
Mn396 O421 2.209 . S
Mn396 O422 2.094 . S
Mn397 O402 2.121 . S
Mn397 N404 2.257 . S
Mn397 N413 2.282 . S
Mn397 O421 2.215 . S
Mn397 O423 2.117 . S
C398 O420 1.234 . S
C398 O421 1.283 . S
C399 O411 1.281 . S
C399 O412 1.236 . S
C400 O422 1.240 . S
C400 O423 1.264 . S
O401 Mn396 2.095 . S
O401 C410 1.250 . S
O402 Mn397 2.121 . S
O402 C410 1.258 . S
C403 N404 1.326 . S
C403 C407 1.460 . S
C403 H409 0.929 . S
N404 Mn397 2.257 . S
N404 C403 1.326 . S
N404 C408 1.362 . S
C405 C406 1.258 . S
C405 C408 1.431 . S
C405 C425 1.449 1_565 S
C406 C405 1.258 . S
C406 C407 1.477 . S
C406 H426 0.931 1_565 S
C407 C403 1.460 . S
C407 C406 1.477 . S
C407 H427 0.930 . S
C408 N404 1.362 . S
C408 C405 1.431 . S
C408 C418 1.476 . S
H409 C403 0.929 . S
C410 O401 1.250 . S
C410 O402 1.258 . S
O411 Mn396 2.162 . S
O411 C399 1.281 . S
O412 Mn396 2.297 . S
O412 C399 1.236 . S
N413 Mn397 2.282 . S
N413 C414 1.328 . S
N413 C418 1.318 . S
C414 N413 1.328 . S
C414 C415 1.457 . S
C414 H419 0.929 . S
C415 C414 1.457 . S
C415 C416 1.291 . S
C415 H428 0.931 . S
C416 C415 1.291 . S
C416 C417 1.373 . S
C416 H429 0.921 1_565 S
C417 C416 1.373 . S
C417 C418 1.396 . S
C417 C424 1.403 1_565 S
C418 C408 1.476 . S
C418 N413 1.318 . S
C418 C417 1.396 . S
H419 C414 0.929 . S
O420 Mn396 2.385 . S
O420 C398 1.234 . S
O421 Mn396 2.209 . S
O421 Mn397 2.215 . S
O421 C398 1.283 . S
O422 Mn396 2.094 . S
O422 C400 1.240 . S
O423 Mn397 2.117 . S
O423 C400 1.264 . S
C424 C417 1.403 1_545 S
C424 C425 1.399 . S
C424 H430 0.929 . S
C425 C405 1.449 1_545 S
C425 C424 1.399 . S
C425 H431 0.930 . S
H426 C406 0.931 1_545 S
H427 C407 0.930 . S
H428 C415 0.931 . S
H429 C416 0.921 1_545 S
H430 C424 0.929 . S
H431 C425 0.930 . S
Mn432 O437 2.095 . S
Mn432 O447 2.162 . S
Mn432 O448 2.297 . S
Mn432 O456 2.385 . S
Mn432 O457 2.209 . S
Mn432 O458 2.094 . S
Mn433 O438 2.121 . S
Mn433 N440 2.257 . S
Mn433 N449 2.282 . S
Mn433 O457 2.215 . S
Mn433 O459 2.117 . S
C434 O456 1.234 . S
C434 O457 1.283 . S
C435 O447 1.281 . S
C435 O448 1.236 . S
C436 O458 1.240 . S
C436 O459 1.264 . S
O437 Mn432 2.095 . S
O437 C446 1.250 . S
O438 Mn433 2.121 . S
O438 C446 1.258 . S
C439 N440 1.326 . S
C439 C443 1.460 . S
C439 H445 0.929 . S
N440 Mn433 2.257 . S
N440 C439 1.326 . S
N440 C444 1.362 . S
C441 C442 1.258 . S
C441 C444 1.431 . S
C441 C461 1.449 . S
C442 C441 1.258 . S
C442 C443 1.477 . S
C442 H462 0.931 . S
C443 C439 1.460 . S
C443 C442 1.477 . S
C443 H463 0.930 . S
C444 N440 1.362 . S
C444 C441 1.431 . S
C444 C454 1.476 . S
H445 C439 0.929 . S
C446 O437 1.250 . S
C446 O438 1.258 . S
O447 Mn432 2.162 . S
O447 C435 1.281 . S
O448 Mn432 2.297 . S
O448 C435 1.236 . S
N449 Mn433 2.282 . S
N449 C450 1.328 . S
N449 C454 1.318 . S
C450 N449 1.328 . S
C450 C451 1.457 . S
C450 H455 0.929 . S
C451 C450 1.457 . S
C451 C452 1.291 . S
C451 H464 0.931 . S
C452 C451 1.291 . S
C452 C453 1.373 . S
C452 H465 0.929 . S
C453 C452 1.373 . S
C453 C454 1.396 . S
C453 C460 1.403 . S
C454 C444 1.476 . S
C454 N449 1.318 . S
C454 C453 1.396 . S
H455 C450 0.929 . S
O456 Mn432 2.385 . S
O456 C434 1.234 . S
O457 Mn432 2.209 . S
O457 Mn433 2.215 . S
O457 C434 1.283 . S
O458 Mn432 2.094 . S
O458 C436 1.240 . S
O459 Mn433 2.117 . S
O459 C436 1.264 . S
C460 C453 1.403 . S
C460 C461 1.399 . S
C460 H466 0.929 . S
C461 C441 1.449 . S
C461 C460 1.399 . S
C461 H467 0.930 . S
H462 C442 0.931 . S
H463 C443 0.930 . S
H464 C451 0.931 . S
H465 C452 0.929 . S
H466 C460 0.929 . S
H467 C461 0.930 . S
Mn468 O473 2.095 . S
Mn468 O483 2.162 1_455 S
Mn468 O484 2.297 . S
Mn468 O492 2.385 . S
Mn468 O493 2.209 . S
Mn468 O494 2.094 . S
Mn469 O474 2.121 . S
Mn469 N476 2.257 . S
Mn469 N485 2.282 . S
Mn469 O493 2.215 . S
Mn469 O495 2.117 . S
C470 O492 1.234 . S
C470 O493 1.283 . S
C471 O483 1.281 . S
C471 O484 1.236 1_655 S
C472 O494 1.240 . S
C472 O495 1.264 . S
O473 Mn468 2.095 . S
O473 C482 1.250 . S
O474 Mn469 2.121 . S
O474 C482 1.258 . S
C475 N476 1.326 . S
C475 C479 1.460 . S
C475 H481 0.929 . S
N476 Mn469 2.257 . S
N476 C475 1.326 . S
N476 C480 1.362 . S
C477 C478 1.258 . S
C477 C480 1.431 . S
C477 C497 1.449 . S
C478 C477 1.258 . S
C478 C479 1.477 . S
C478 H498 0.931 . S
C479 C475 1.460 . S
C479 C478 1.477 . S
C479 H499 0.930 . S
C480 N476 1.362 . S
C480 C477 1.431 . S
C480 C490 1.476 . S
H481 C475 0.929 . S
C482 O473 1.250 . S
C482 O474 1.258 . S
O483 Mn468 2.162 1_655 S
O483 C471 1.281 . S
O484 Mn468 2.297 . S
O484 C471 1.236 1_455 S
N485 Mn469 2.282 . S
N485 C486 1.328 . S
N485 C490 1.318 . S
C486 N485 1.328 . S
C486 C487 1.457 . S
C486 H491 0.929 . S
C487 C486 1.457 . S
C487 C488 1.291 . S
C487 H500 0.931 . S
C488 C487 1.291 . S
C488 C489 1.373 . S
C488 H501 0.929 . S
C489 C488 1.373 . S
C489 C490 1.396 . S
C489 C496 1.403 . S
C490 C480 1.476 . S
C490 N485 1.318 . S
C490 C489 1.396 . S
H491 C486 0.929 . S
O492 Mn468 2.385 . S
O492 C470 1.234 . S
O493 Mn468 2.209 . S
O493 Mn469 2.215 . S
O493 C470 1.283 . S
O494 Mn468 2.094 . S
O494 C472 1.240 . S
O495 Mn469 2.117 . S
O495 C472 1.264 . S
C496 C489 1.403 . S
C496 C497 1.399 . S
C496 H502 0.929 . S
C497 C477 1.449 . S
C497 C496 1.399 . S
C497 H503 0.930 . S
H498 C478 0.931 . S
H499 C479 0.930 . S
H500 C487 0.931 . S
H501 C488 0.929 . S
H502 C496 0.929 . S
H503 C497 0.930 . S
Mn504 O509 2.095 . S
Mn504 O519 2.162 . S
Mn504 O520 2.297 . S
Mn504 O528 2.385 . S
Mn504 O529 2.209 . S
Mn504 O530 2.094 . S
Mn505 O510 2.121 . S
Mn505 N512 2.257 . S
Mn505 N521 2.282 . S
Mn505 O529 2.215 . S
Mn505 O531 2.117 . S
C506 O528 1.234 . S
C506 O529 1.283 . S
C507 O519 1.281 . S
C507 O520 1.236 . S
C508 O530 1.240 . S
C508 O531 1.264 . S
O509 Mn504 2.095 . S
O509 C518 1.250 . S
O510 Mn505 2.121 . S
O510 C518 1.258 . S
C511 N512 1.326 . S
C511 C515 1.460 . S
C511 H517 0.929 . S
N512 Mn505 2.257 . S
N512 C511 1.326 . S
N512 C516 1.362 . S
C513 C514 1.258 . S
C513 C516 1.431 . S
C513 C533 1.449 . S
C514 C513 1.258 . S
C514 C515 1.477 . S
C514 H534 0.931 . S
C515 C511 1.460 . S
C515 C514 1.477 . S
C515 H535 0.930 . S
C516 N512 1.362 . S
C516 C513 1.431 . S
C516 C526 1.476 . S
H517 C511 0.929 . S
C518 O509 1.250 . S
C518 O510 1.258 . S
O519 Mn504 2.162 . S
O519 C507 1.281 . S
O520 Mn504 2.297 . S
O520 C507 1.236 . S
N521 Mn505 2.282 . S
N521 C522 1.328 . S
N521 C526 1.318 . S
C522 N521 1.328 . S
C522 C523 1.457 . S
C522 H527 0.929 . S
C523 C522 1.457 . S
C523 C524 1.291 . S
C523 H536 0.931 . S
C524 C523 1.291 . S
C524 C525 1.373 . S
C524 H537 0.929 . S
C525 C524 1.373 . S
C525 C526 1.396 . S
C525 C532 1.403 . S
C526 C516 1.476 . S
C526 N521 1.318 . S
C526 C525 1.396 . S
H527 C522 0.929 . S
O528 Mn504 2.385 . S
O528 C506 1.234 . S
O529 Mn504 2.209 . S
O529 Mn505 2.215 . S
O529 C506 1.283 . S
O530 Mn504 2.094 . S
O530 C508 1.240 . S
O531 Mn505 2.117 . S
O531 C508 1.264 . S
C532 C525 1.403 . S
C532 C533 1.399 . S
C532 H538 0.929 . S
C533 C513 1.449 . S
C533 C532 1.399 . S
C533 H539 0.930 . S
H534 C514 0.931 . S
H535 C515 0.930 . S
H536 C523 0.931 . S
H537 C524 0.929 . S
H538 C532 0.929 . S
H539 C533 0.930 . S
Mn540 O545 2.095 . S
Mn540 O555 2.162 1_455 S
Mn540 O556 2.297 . S
Mn540 O564 2.385 . S
Mn540 O565 2.209 . S
Mn540 O566 2.094 . S
Mn541 O546 2.121 . S
Mn541 N548 2.257 . S
Mn541 N557 2.282 . S
Mn541 O565 2.215 . S
Mn541 O567 2.117 . S
C542 O564 1.234 . S
C542 O565 1.283 . S
C543 O555 1.281 . S
C543 O556 1.236 1_655 S
C544 O566 1.240 . S
C544 O567 1.264 . S
O545 Mn540 2.095 . S
O545 C554 1.250 . S
O546 Mn541 2.121 . S
O546 C554 1.258 . S
C547 N548 1.326 . S
C547 C551 1.460 . S
C547 H553 0.929 . S
N548 Mn541 2.257 . S
N548 C547 1.326 . S
N548 C552 1.362 . S
C549 C550 1.258 . S
C549 C552 1.431 . S
C549 C569 1.449 . S
C550 C549 1.258 . S
C550 C551 1.477 . S
C550 H570 0.931 . S
C551 C547 1.460 . S
C551 C550 1.477 . S
C551 H571 0.930 . S
C552 N548 1.362 . S
C552 C549 1.431 . S
C552 C562 1.476 . S
H553 C547 0.929 . S
C554 O545 1.250 . S
C554 O546 1.258 . S
O555 Mn540 2.162 1_655 S
O555 C543 1.281 . S
O556 Mn540 2.297 . S
O556 C543 1.236 1_455 S
N557 Mn541 2.282 . S
N557 C558 1.328 . S
N557 C562 1.318 . S
C558 N557 1.328 . S
C558 C559 1.457 . S
C558 H563 0.929 . S
C559 C558 1.457 . S
C559 C560 1.291 . S
C559 H572 0.931 . S
C560 C559 1.291 . S
C560 C561 1.373 . S
C560 H573 0.929 . S
C561 C560 1.373 . S
C561 C562 1.396 . S
C561 C568 1.403 . S
C562 C552 1.476 . S
C562 N557 1.318 . S
C562 C561 1.396 . S
H563 C558 0.929 . S
O564 Mn540 2.385 . S
O564 C542 1.234 . S
O565 Mn540 2.209 . S
O565 Mn541 2.215 . S
O565 C542 1.283 . S
O566 Mn540 2.094 . S
O566 C544 1.240 . S
O567 Mn541 2.117 . S
O567 C544 1.264 . S
C568 C561 1.403 . S
C568 C569 1.399 . S
C568 H574 0.929 . S
C569 C549 1.449 . S
C569 C568 1.399 . S
C569 H575 0.930 . S
H570 C550 0.931 . S
H571 C551 0.930 . S
H572 C559 0.931 . S
H573 C560 0.929 . S
H574 C568 0.929 . S
H575 C569 0.930 . S
H576 C582 0.930 . S
H577 C585 0.930 . S
H578 C586 0.930 . S
H579 C587 0.930 . S
H580 C590 0.930 . S
H581 C591 0.930 1_655 S
C582 H576 0.930 . S
C582 C583 1.355 1_655 S
C582 C584 1.415 1_655 S
C583 C582 1.355 1_455 S
C583 C585 1.419 . S
C584 C582 1.415 1_455 S
C584 C589 1.425 . S
C584 C591 1.409 . S
C585 H577 0.930 . S
C585 C583 1.419 . S
C585 C586 1.362 . S
C586 H578 0.930 . S
C586 C585 1.362 . S
C586 C589 1.409 . S
C587 H579 0.930 . S
C587 C588 1.355 . S
C587 C589 1.415 . S
C588 C587 1.355 . S
C588 C590 1.419 . S
C589 C584 1.425 . S
C589 C586 1.409 . S
C589 C587 1.415 . S
C590 H580 0.930 . S
C590 C588 1.419 . S
C590 C591 1.362 . S
C591 H581 0.930 1_455 S
C591 C584 1.409 . S
C591 C590 1.362 . S
H592 C598 0.930 . S
H593 C601 0.930 . S
H594 C602 0.930 . S
H595 C603 0.930 . S
H596 C606 0.930 . S
H597 C607 0.930 . S
C598 H592 0.930 . S
C598 C599 1.355 . S
C598 C600 1.415 1_655 S
C599 C598 1.355 . S
C599 C601 1.419 . S
C600 C598 1.415 1_455 S
C600 C605 1.425 . S
C600 C607 1.409 . S
C601 H593 0.930 . S
C601 C599 1.419 . S
C601 C602 1.362 . S
C602 H594 0.930 . S
C602 C601 1.362 . S
C602 C605 1.409 1_655 S
C603 H595 0.930 . S
C603 C604 1.355 . S
C603 C605 1.415 . S
C604 C603 1.355 . S
C604 C606 1.419 . S
C605 C600 1.425 . S
C605 C602 1.409 1_455 S
C605 C603 1.415 . S
C606 H596 0.930 . S
C606 C604 1.419 . S
C606 C607 1.362 . S
C607 H597 0.930 . S
C607 C600 1.409 . S
C607 C606 1.362 . S
H608 C614 0.930 . S
H609 C617 0.930 . S
H610 C618 0.930 . S
H611 C619 0.930 . S
H612 C622 0.930 . S
H613 C623 0.930 . S
C614 H608 0.930 . S
C614 C615 1.355 . S
C614 C616 1.415 . S
C615 C614 1.355 . S
C615 C617 1.419 . S
C616 C614 1.415 . S
C616 C621 1.425 . S
C616 C623 1.409 . S
C617 H609 0.930 . S
C617 C615 1.419 . S
C617 C618 1.362 . S
C618 H610 0.930 . S
C618 C617 1.362 . S
C618 C621 1.409 . S
C619 H611 0.930 . S
C619 C620 1.355 . S
C619 C621 1.415 . S
C620 C619 1.355 . S
C620 C622 1.419 . S
C621 C616 1.425 . S
C621 C618 1.409 . S
C621 C619 1.415 . S
C622 H612 0.930 . S
C622 C620 1.419 . S
C622 C623 1.362 . S
C623 H613 0.930 . S
C623 C616 1.409 . S
C623 C622 1.362 . S
H624 C630 0.930 . S
H625 C633 0.930 . S
H626 C634 0.930 . S
H627 C635 0.930 . S
H628 C638 0.930 . S
H629 C639 0.930 . S
C630 H624 0.930 . S
C630 C631 1.355 . S
C630 C632 1.415 . S
C631 C630 1.355 . S
C631 C633 1.419 . S
C632 C630 1.415 . S
C632 C637 1.425 . S
C632 C639 1.409 . S
C633 H625 0.930 . S
C633 C631 1.419 . S
C633 C634 1.362 . S
C634 H626 0.930 . S
C634 C633 1.362 . S
C634 C637 1.409 . S
C635 H627 0.930 . S
C635 C636 1.355 . S
C635 C637 1.415 . S
C636 C635 1.355 . S
C636 C638 1.419 . S
C637 C632 1.425 . S
C637 C634 1.409 . S
C637 C635 1.415 . S
C638 H628 0.930 . S
C638 C636 1.419 . S
C638 C639 1.362 . S
C639 H629 0.930 . S
C639 C632 1.409 . S
C639 C638 1.362 . S
H640 C646 0.930 . S
H641 C649 0.930 . S
H642 C650 0.930 . S
H643 C651 0.930 . S
H644 C654 0.930 1_655 S
H645 C655 0.930 . S
C646 H640 0.930 . S
C646 C647 1.355 1_655 S
C646 C648 1.415 1_655 S
C647 C646 1.355 1_455 S
C647 C649 1.419 . S
C648 C646 1.415 1_455 S
C648 C653 1.425 . S
C648 C655 1.409 1_455 S
C649 H641 0.930 . S
C649 C647 1.419 . S
C649 C650 1.362 . S
C650 H642 0.930 . S
C650 C649 1.362 . S
C650 C653 1.409 . S
C651 H643 0.930 . S
C651 C652 1.355 . S
C651 C653 1.415 . S
C652 C651 1.355 . S
C652 C654 1.419 . S
C653 C648 1.425 . S
C653 C650 1.409 . S
C653 C651 1.415 . S
C654 H644 0.930 1_455 S
C654 C652 1.419 . S
C654 C655 1.362 1_455 S
C655 H645 0.930 . S
C655 C648 1.409 1_655 S
C655 C654 1.362 1_655 S
H656 C662 0.930 . S
H657 C665 0.930 . S
H658 C666 0.930 . S
H659 C667 0.930 . S
H660 C670 0.930 . S
H661 C671 0.930 . S
C662 H656 0.930 . S
C662 C663 1.355 . S
C662 C664 1.415 . S
C663 C662 1.355 . S
C663 C665 1.419 . S
C664 C662 1.415 . S
C664 C669 1.425 . S
C664 C671 1.409 . S
C665 H657 0.930 . S
C665 C663 1.419 . S
C665 C666 1.362 . S
C666 H658 0.930 . S
C666 C665 1.362 . S
C666 C669 1.409 . S
C667 H659 0.930 . S
C667 C668 1.355 . S
C667 C669 1.415 . S
C668 C667 1.355 . S
C668 C670 1.419 . S
C669 C664 1.425 . S
C669 C666 1.409 . S
C669 C667 1.415 . S
C670 H660 0.930 . S
C670 C668 1.419 . S
C670 C671 1.362 . S
C671 H661 0.930 . S
C671 C664 1.409 . S
C671 C670 1.362 . S
H672 C678 0.930 . S
H673 C681 0.930 . S
H674 C682 0.930 . S
H675 C683 0.930 . S
H676 C686 0.930 . S
H677 C687 0.930 . S
C678 H672 0.930 . S
C678 C679 1.355 . S
C678 C680 1.415 . S
C679 C678 1.355 . S
C679 C681 1.419 . S
C680 C678 1.415 . S
C680 C685 1.425 . S
C680 C687 1.409 . S
C681 H673 0.930 . S
C681 C679 1.419 . S
C681 C682 1.362 . S
C682 H674 0.930 . S
C682 C681 1.362 . S
C682 C685 1.409 . S
C683 H675 0.930 . S
C683 C684 1.355 . S
C683 C685 1.415 . S
C684 C683 1.355 . S
C684 C686 1.419 . S
C685 C680 1.425 . S
C685 C682 1.409 . S
C685 C683 1.415 . S
C686 H676 0.930 . S
C686 C684 1.419 . S
C686 C687 1.362 . S
C687 H677 0.930 . S
C687 C680 1.409 . S
C687 C686 1.362 . S
H688 C694 0.930 . S
H689 C697 0.930 . S
H690 C698 0.930 . S
H691 C699 0.930 . S
H692 C702 0.930 . S
H693 C703 0.933 . S
C694 H688 0.930 . S
C694 C695 1.355 . S
C694 C696 1.415 . S
C695 C694 1.355 . S
C695 C697 1.419 . S
C696 C694 1.415 . S
C696 C701 1.425 . S
C696 C703 1.409 1_455 S
C697 H689 0.930 . S
C697 C695 1.419 . S
C697 C698 1.362 . S
C698 H690 0.930 . S
C698 C697 1.362 . S
C698 C701 1.409 . S
C699 H691 0.930 . S
C699 C700 1.355 . S
C699 C701 1.415 1_655 S
C700 C699 1.355 . S
C700 C702 1.419 . S
C701 C696 1.425 . S
C701 C698 1.409 . S
C701 C699 1.415 1_455 S
C702 H692 0.930 . S
C702 C700 1.419 . S
C702 C703 1.362 . S
C703 H693 0.933 . S
C703 C696 1.409 1_655 S
C703 C702 1.362 . S
H704 C710 0.930 . S
H705 C713 0.930 . S
H706 C714 0.930 . S
H707 C715 0.930 . S
H708 C718 0.930 . S
H709 C719 0.930 . S
C710 H704 0.930 . S
C710 C711 1.355 1_655 S
C710 C712 1.415 1_655 S
C711 C710 1.355 1_455 S
C711 C713 1.419 1_565 S
C712 C710 1.415 1_455 S
C712 C717 1.425 1_565 S
C712 C719 1.409 1_455 S
C713 H705 0.930 . S
C713 C711 1.419 1_545 S
C713 C714 1.362 . S
C714 H706 0.930 . S
C714 C713 1.362 . S
C714 C717 1.409 . S
C715 H707 0.930 . S
C715 C716 1.355 . S
C715 C717 1.415 . S
C716 C715 1.355 . S
C716 C718 1.419 1_445 S
C717 C712 1.425 1_545 S
C717 C714 1.409 . S
C717 C715 1.415 . S
C718 H708 0.930 . S
C718 C716 1.419 1_665 S
C718 C719 1.362 . S
C719 H709 0.930 . S
C719 C712 1.409 1_655 S
C719 C718 1.362 . S
H720 C726 0.930 . S
H721 C729 0.930 . S
H722 C730 0.930 . S
H723 C731 0.930 . S
H724 C734 0.930 . S
H725 C735 0.930 . S
C726 H720 0.930 . S
C726 C727 1.355 . S
C726 C728 1.415 . S
C727 C726 1.355 . S
C727 C729 1.419 . S
C728 C726 1.415 . S
C728 C733 1.425 . S
C728 C735 1.409 . S
C729 H721 0.930 . S
C729 C727 1.419 . S
C729 C730 1.362 . S
C730 H722 0.930 . S
C730 C729 1.362 . S
C730 C733 1.409 . S
C731 H723 0.930 . S
C731 C732 1.355 . S
C731 C733 1.415 . S
C732 C731 1.355 . S
C732 C734 1.419 . S
C733 C728 1.425 . S
C733 C730 1.409 . S
C733 C731 1.415 . S
C734 H724 0.930 . S
C734 C732 1.419 . S
C734 C735 1.362 . S
C735 H725 0.930 . S
C735 C728 1.409 . S
C735 C734 1.362 . S
H736 C742 0.930 . S
H737 C745 0.930 . S
H738 C746 0.915 1_556 S
H739 C747 0.930 . S
H740 C750 0.930 . S
H741 C751 0.915 1_554 S
C742 H736 0.930 . S
C742 C743 1.355 1_545 S
C742 C744 1.415 . S
C743 C742 1.355 1_565 S
C743 C745 1.419 . S
C744 C742 1.415 . S
C744 C749 1.425 1_544 S
C744 C751 1.409 1_554 S
C745 H737 0.930 . S
C745 C743 1.419 . S
C745 C746 1.362 . S
C746 H738 0.915 1_554 S
C746 C745 1.362 . S
C746 C749 1.409 1_554 S
C747 H739 0.930 . S
C747 C748 1.355 1_565 S
C747 C749 1.415 . S
C748 C747 1.355 1_545 S
C748 C750 1.419 . S
C749 C744 1.425 1_566 S
C749 C746 1.409 1_556 S
C749 C747 1.415 . S
C750 H740 0.930 . S
C750 C748 1.419 . S
C750 C751 1.362 . S
C751 H741 0.915 1_556 S
C751 C744 1.409 1_556 S
C751 C750 1.362 . S
H752 C758 0.930 . S
H753 C761 0.930 . S
H754 C762 0.930 . S
H755 C763 0.930 . S
H756 C766 0.930 . S
H757 C767 0.930 . S
C758 H752 0.930 . S
C758 C759 1.355 . S
C758 C760 1.415 . S
C759 C758 1.355 . S
C759 C761 1.419 . S
C760 C758 1.415 . S
C760 C765 1.425 . S
C760 C767 1.409 . S
C761 H753 0.930 . S
C761 C759 1.419 . S
C761 C762 1.362 . S
C762 H754 0.930 . S
C762 C761 1.362 . S
C762 C765 1.409 . S
C763 H755 0.930 . S
C763 C764 1.355 . S
C763 C765 1.415 . S
C764 C763 1.355 . S
C764 C766 1.419 . S
C765 C760 1.425 . S
C765 C762 1.409 . S
C765 C763 1.415 . S
C766 H756 0.930 . S
C766 C764 1.419 . S
C766 C767 1.362 . S
C767 H757 0.930 . S
C767 C760 1.409 . S
C767 C766 1.362 . S
H768 C774 0.930 . S
H769 C777 0.930 . S
H770 C778 0.930 . S
H771 C779 0.930 . S
H772 C782 0.930 . S
H773 C783 0.930 . S
C774 H768 0.930 . S
C774 C775 1.355 . S
C774 C776 1.415 . S
C775 C774 1.355 . S
C775 C777 1.419 . S
C776 C774 1.415 . S
C776 C781 1.425 . S
C776 C783 1.409 . S
C777 H769 0.930 . S
C777 C775 1.419 . S
C777 C778 1.362 . S
C778 H770 0.930 . S
C778 C777 1.362 . S
C778 C781 1.409 . S
C779 H771 0.930 . S
C779 C780 1.355 . S
C779 C781 1.415 . S
C780 C779 1.355 . S
C780 C782 1.419 . S
C781 C776 1.425 . S
C781 C778 1.409 . S
C781 C779 1.415 . S
C782 H772 0.930 . S
C782 C780 1.419 . S
C782 C783 1.362 . S
C783 H773 0.930 . S
C783 C776 1.409 . S
C783 C782 1.362 . S
H784 C790 0.930 . S
H785 C793 0.930 . S
H786 C794 0.930 . S
H787 C795 0.930 . S
H788 C798 0.930 . S
H789 C799 0.930 . S
C790 H784 0.930 . S
C790 C791 1.355 . S
C790 C792 1.415 . S
C791 C790 1.355 . S
C791 C793 1.419 . S
C792 C790 1.415 . S
C792 C797 1.425 . S
C792 C799 1.409 . S
C793 H785 0.930 . S
C793 C791 1.419 . S
C793 C794 1.362 . S
C794 H786 0.930 . S
C794 C793 1.362 . S
C794 C797 1.409 . S
C795 H787 0.930 . S
C795 C796 1.355 . S
C795 C797 1.415 . S
C796 C795 1.355 . S
C796 C798 1.419 . S
C797 C792 1.425 . S
C797 C794 1.409 . S
C797 C795 1.415 . S
C798 H788 0.930 . S
C798 C796 1.419 . S
C798 C799 1.362 . S
C799 H789 0.930 . S
C799 C792 1.409 . S
C799 C798 1.362 . S
H800 C806 0.930 . S
H801 C809 0.930 . S
H802 C810 0.930 . S
H803 C811 0.930 . S
H804 C814 0.930 . S
H805 C815 0.930 . S
C806 H800 0.930 . S
C806 C807 1.355 . S
C806 C808 1.415 . S
C807 C806 1.355 . S
C807 C809 1.419 . S
C808 C806 1.415 . S
C808 C813 1.425 1_556 S
C808 C815 1.409 1_556 S
C809 H801 0.930 . S
C809 C807 1.419 . S
C809 C810 1.362 . S
C810 H802 0.930 . S
C810 C809 1.362 . S
C810 C813 1.409 1_556 S
C811 H803 0.930 . S
C811 C812 1.355 . S
C811 C813 1.415 . S
C812 C811 1.355 . S
C812 C814 1.419 . S
C813 C808 1.425 1_554 S
C813 C810 1.409 1_554 S
C813 C811 1.415 . S
C814 H804 0.930 . S
C814 C812 1.419 . S
C814 C815 1.362 . S
C815 H805 0.930 . S
C815 C808 1.409 1_554 S
C815 C814 1.362 . S
H816 C822 0.930 . S
H817 C825 0.930 . S
H818 C826 0.930 . S
H819 C827 0.930 . S
H820 C830 0.930 . S
H821 C831 0.930 . S
C822 H816 0.930 . S
C822 C823 1.355 . S
C822 C824 1.415 . S
C823 C822 1.355 . S
C823 C825 1.419 . S
C824 C822 1.415 . S
C824 C829 1.425 . S
C824 C831 1.409 . S
C825 H817 0.930 . S
C825 C823 1.419 . S
C825 C826 1.362 . S
C826 H818 0.930 . S
C826 C825 1.362 . S
C826 C829 1.409 . S
C827 H819 0.930 . S
C827 C828 1.355 . S
C827 C829 1.415 . S
C828 C827 1.355 . S
C828 C830 1.419 . S
C829 C824 1.425 . S
C829 C826 1.409 . S
C829 C827 1.415 . S
C830 H820 0.930 . S
C830 C828 1.419 . S
C830 C831 1.362 . S
C831 H821 0.930 . S
C831 C824 1.409 . S
C831 C830 1.362 . S
H832 C838 0.930 . S
H833 C841 0.930 . S
H834 C842 0.930 . S
H835 C843 0.930 . S
H836 C846 0.930 . S
H837 C847 0.930 . S
C838 H832 0.930 . S
C838 C839 1.355 . S
C838 C840 1.415 . S
C839 C838 1.355 . S
C839 C841 1.419 . S
C840 C838 1.415 . S
C840 C845 1.425 . S
C840 C847 1.409 . S
C841 H833 0.930 . S
C841 C839 1.419 . S
C841 C842 1.362 . S
C842 H834 0.930 . S
C842 C841 1.362 . S
C842 C845 1.409 . S
C843 H835 0.930 . S
C843 C844 1.355 . S
C843 C845 1.415 . S
C844 C843 1.355 . S
C844 C846 1.419 . S
C845 C840 1.425 . S
C845 C842 1.409 . S
C845 C843 1.415 . S
C846 H836 0.930 . S
C846 C844 1.419 . S
C846 C847 1.362 . S
C847 H837 0.930 . S
C847 C840 1.409 . S
C847 C846 1.362 . S
H848 C854 0.930 . S
H849 C857 0.930 . S
H850 C858 0.930 . S
H851 C859 0.930 . S
H852 C862 0.930 . S
H853 C863 0.930 . S
C854 H848 0.930 . S
C854 C855 1.355 . S
C854 C856 1.415 . S
C855 C854 1.355 . S
C855 C857 1.419 . S
C856 C854 1.415 . S
C856 C861 1.425 . S
C856 C863 1.409 . S
C857 H849 0.930 . S
C857 C855 1.419 . S
C857 C858 1.362 . S
C858 H850 0.930 . S
C858 C857 1.362 . S
C858 C861 1.409 . S
C859 H851 0.930 . S
C859 C860 1.355 . S
C859 C861 1.415 . S
C860 C859 1.355 . S
C860 C862 1.419 . S
C861 C856 1.425 . S
C861 C858 1.409 . S
C861 C859 1.415 . S
C862 H852 0.930 . S
C862 C860 1.419 . S
C862 C863 1.362 . S
C863 H853 0.930 . S
C863 C856 1.409 . S
C863 C862 1.362 . S
H864 C870 0.930 . S
H865 C873 0.930 . S
H866 C874 0.930 . S
H867 C875 0.930 . S
H868 C878 0.930 . S
H869 C879 0.930 . S
C870 H864 0.930 . S
C870 C871 1.355 . S
C870 C872 1.415 . S
C871 C870 1.355 . S
C871 C873 1.419 . S
C872 C870 1.415 . S
C872 C877 1.425 . S
C872 C879 1.409 . S
C873 H865 0.930 . S
C873 C871 1.419 . S
C873 C874 1.362 . S
C874 H866 0.930 . S
C874 C873 1.362 . S
C874 C877 1.409 . S
C875 H867 0.930 . S
C875 C876 1.355 . S
C875 C877 1.415 . S
C876 C875 1.355 . S
C876 C878 1.419 . S
C877 C872 1.425 . S
C877 C874 1.409 . S
C877 C875 1.415 . S
C878 H868 0.930 . S
C878 C876 1.419 . S
C878 C879 1.362 . S
C879 H869 0.930 . S
C879 C872 1.409 . S
C879 C878 1.362 . S
H880 C886 0.930 . S
H881 C889 0.930 . S
H882 C890 0.930 . S
H883 C891 0.930 . S
H884 C894 0.930 . S
H885 C895 0.930 . S
C886 H880 0.930 . S
C886 C887 1.355 . S
C886 C888 1.415 . S
C887 C886 1.355 . S
C887 C889 1.419 . S
C888 C886 1.415 . S
C888 C893 1.425 . S
C888 C895 1.409 . S
C889 H881 0.930 . S
C889 C887 1.419 . S
C889 C890 1.362 . S
C890 H882 0.930 . S
C890 C889 1.362 . S
C890 C893 1.409 . S
C891 H883 0.930 . S
C891 C892 1.355 . S
C891 C893 1.415 . S
C892 C891 1.355 . S
C892 C894 1.419 . S
C893 C888 1.425 . S
C893 C890 1.409 . S
C893 C891 1.415 . S
C894 H884 0.930 . S
C894 C892 1.419 . S
C894 C895 1.362 . S
C895 H885 0.930 . S
C895 C888 1.409 . S
C895 C894 1.362 . S
H896 C902 0.930 . S
H897 C905 0.930 1_565 S
H898 C906 0.930 . S
H899 C907 0.930 . S
H900 C910 0.930 . S
H901 C911 0.930 . S
C902 H896 0.930 . S
C902 C903 1.355 . S
C902 C904 1.415 . S
C903 C902 1.355 . S
C903 C905 1.419 . S
C904 C902 1.415 . S
C904 C909 1.425 . S
C904 C911 1.409 . S
C905 H897 0.930 1_545 S
C905 C903 1.419 . S
C905 C906 1.362 . S
C906 H898 0.930 . S
C906 C905 1.362 . S
C906 C909 1.409 . S
C907 H899 0.930 . S
C907 C908 1.355 . S
C907 C909 1.415 . S
C908 C907 1.355 . S
C908 C910 1.419 . S
C909 C904 1.425 . S
C909 C906 1.409 . S
C909 C907 1.415 . S
C910 H900 0.930 . S
C910 C908 1.419 . S
C910 C911 1.362 . S
C911 H901 0.930 . S
C911 C904 1.409 . S
C911 C910 1.362 . S
H912 C918 0.930 1_565 S
H913 C921 0.930 . S
H914 C922 0.930 . S
H915 C923 0.930 . S
H916 C926 0.930 . S
H917 C927 0.930 . S
C918 H912 0.930 1_545 S
C918 C919 1.355 . S
C918 C920 1.415 . S
C919 C918 1.355 . S
C919 C921 1.419 . S
C920 C918 1.415 . S
C920 C925 1.425 . S
C920 C927 1.409 . S
C921 H913 0.930 . S
C921 C919 1.419 . S
C921 C922 1.362 . S
C922 H914 0.930 . S
C922 C921 1.362 . S
C922 C925 1.409 . S
C923 H915 0.930 . S
C923 C924 1.355 . S
C923 C925 1.415 . S
C924 C923 1.355 . S
C924 C926 1.419 . S
C925 C920 1.425 . S
C925 C922 1.409 . S
C925 C923 1.415 . S
C926 H916 0.930 . S
C926 C924 1.419 . S
C926 C927 1.362 . S
C927 H917 0.930 . S
C927 C920 1.409 . S
C927 C926 1.362 . S
H928 C934 0.930 . S
H929 C937 0.930 . S
H930 C938 0.930 . S
H931 C939 0.930 . S
H932 C942 0.930 1_545 S
H933 C943 0.930 . S
C934 H928 0.930 . S
C934 C935 1.355 . S
C934 C936 1.415 . S
C935 C934 1.355 . S
C935 C937 1.419 . S
C936 C934 1.415 . S
C936 C941 1.425 . S
C936 C943 1.409 . S
C937 H929 0.930 . S
C937 C935 1.419 . S
C937 C938 1.362 . S
C938 H930 0.930 . S
C938 C937 1.362 . S
C938 C941 1.409 . S
C939 H931 0.930 . S
C939 C940 1.355 . S
C939 C941 1.415 . S
C940 C939 1.355 . S
C940 C942 1.419 . S
C941 C936 1.425 . S
C941 C938 1.409 . S
C941 C939 1.415 . S
C942 H932 0.930 1_565 S
C942 C940 1.419 . S
C942 C943 1.362 . S
C943 H933 0.930 . S
C943 C936 1.409 . S
C943 C942 1.362 . S
H944 C950 0.930 . S
H945 C953 0.930 . S
H946 C954 0.930 . S
H947 C955 0.930 . S
H948 C958 0.930 . S
H949 C959 0.930 . S
C950 H944 0.930 . S
C950 C951 1.355 . S
C950 C952 1.415 . S
C951 C950 1.355 . S
C951 C953 1.419 . S
C952 C950 1.415 . S
C952 C957 1.425 . S
C952 C959 1.409 . S
C953 H945 0.930 . S
C953 C951 1.419 . S
C953 C954 1.362 . S
C954 H946 0.930 . S
C954 C953 1.362 . S
C954 C957 1.409 . S
C955 H947 0.930 . S
C955 C956 1.355 . S
C955 C957 1.415 . S
C956 C955 1.355 . S
C956 C958 1.419 . S
C957 C952 1.425 . S
C957 C954 1.409 . S
C957 C955 1.415 . S
C958 H948 0.930 . S
C958 C956 1.419 . S
C958 C959 1.362 . S
C959 H949 0.930 . S
C959 C952 1.409 . S
C959 C958 1.362 . S
H960 C966 0.930 . S
H961 C969 0.930 . S
H962 C970 0.930 . S
H963 C971 0.930 . S
H964 C974 0.930 . S
H965 C975 0.930 . S
C966 H960 0.930 . S
C966 C967 1.355 . S
C966 C968 1.415 . S
C967 C966 1.355 . S
C967 C969 1.419 . S
C968 C966 1.415 . S
C968 C973 1.425 . S
C968 C975 1.409 . S
C969 H961 0.930 . S
C969 C967 1.419 . S
C969 C970 1.362 . S
C970 H962 0.930 . S
C970 C969 1.362 . S
C970 C973 1.409 . S
C971 H963 0.930 . S
C971 C972 1.355 . S
C971 C973 1.415 . S
C972 C971 1.355 . S
C972 C974 1.419 . S
C973 C968 1.425 . S
C973 C970 1.409 . S
C973 C971 1.415 . S
C974 H964 0.930 . S
C974 C972 1.419 . S
C974 C975 1.362 . S
C975 H965 0.930 . S
C975 C968 1.409 . S
C975 C974 1.362 . S
H976 C982 0.930 . S
H977 C985 0.930 . S
H978 C986 0.930 . S
H979 C987 0.930 . S
H980 C990 0.930 . S
H981 C991 0.930 . S
C982 H976 0.930 . S
C982 C983 1.355 . S
C982 C984 1.415 . S
C983 C982 1.355 . S
C983 C985 1.419 . S
C984 C982 1.415 . S
C984 C989 1.425 . S
C984 C991 1.409 . S
C985 H977 0.930 . S
C985 C983 1.419 . S
C985 C986 1.362 . S
C986 H978 0.930 . S
C986 C985 1.362 . S
C986 C989 1.409 . S
C987 H979 0.930 . S
C987 C988 1.355 . S
C987 C989 1.415 . S
C988 C987 1.355 . S
C988 C990 1.419 . S
C989 C984 1.425 . S
C989 C986 1.409 . S
C989 C987 1.415 . S
C990 H980 0.930 . S
C990 C988 1.419 . S
C990 C991 1.362 . S
C991 H981 0.930 . S
C991 C984 1.409 . S
C991 C990 1.362 . S
H992 C998 0.930 . S
H993 C1001 0.930 . S
H994 C1002 0.930 . S
H995 C1003 0.930 . S
H996 C1006 0.930 . S
H997 C1007 0.930 . S
C998 H992 0.930 . S
C998 C999 1.355 . S
C998 C1000 1.415 . S
C999 C998 1.355 . S
C999 C1001 1.419 . S
C1000 C998 1.415 . S
C1000 C1005 1.425 . S
C1000 C1007 1.409 . S
C1001 H993 0.930 . S
C1001 C999 1.419 . S
C1001 C1002 1.362 . S
C1002 H994 0.930 . S
C1002 C1001 1.362 . S
C1002 C1005 1.409 . S
C1003 H995 0.930 . S
C1003 C1004 1.355 . S
C1003 C1005 1.415 . S
C1004 C1003 1.355 . S
C1004 C1006 1.419 . S
C1005 C1000 1.425 . S
C1005 C1002 1.409 . S
C1005 C1003 1.415 . S
C1006 H996 0.930 . S
C1006 C1004 1.419 . S
C1006 C1007 1.362 . S
C1007 H997 0.930 . S
C1007 C1000 1.409 . S
C1007 C1006 1.362 . S
H1008 C1014 0.930 . S
H1009 C1017 0.930 . S
H1010 C1018 0.930 . S
H1011 C1019 0.930 . S
H1012 C1022 0.930 . S
H1013 C1023 0.930 . S
C1014 H1008 0.930 . S
C1014 C1015 1.355 . S
C1014 C1016 1.415 . S
C1015 C1014 1.355 . S
C1015 C1017 1.419 . S
C1016 C1014 1.415 . S
C1016 C1021 1.425 . S
C1016 C1023 1.409 . S
C1017 H1009 0.930 . S
C1017 C1015 1.419 . S
C1017 C1018 1.362 . S
C1018 H1010 0.930 . S
C1018 C1017 1.362 . S
C1018 C1021 1.409 . S
C1019 H1011 0.930 . S
C1019 C1020 1.355 . S
C1019 C1021 1.415 . S
C1020 C1019 1.355 . S
C1020 C1022 1.419 . S
C1021 C1016 1.425 . S
C1021 C1018 1.409 . S
C1021 C1019 1.415 . S
C1022 H1012 0.930 . S
C1022 C1020 1.419 . S
C1022 C1023 1.362 . S
C1023 H1013 0.930 . S
C1023 C1016 1.409 . S
C1023 C1022 1.362 . S
H1024 C1030 0.930 . S
H1025 C1033 0.930 . S
H1026 C1034 0.930 . S
H1027 C1035 0.930 . S
H1028 C1038 0.930 . S
H1029 C1039 0.930 . S
C1030 H1024 0.930 . S
C1030 C1031 1.355 . S
C1030 C1032 1.415 . S
C1031 C1030 1.355 . S
C1031 C1033 1.419 . S
C1032 C1030 1.415 . S
C1032 C1037 1.425 . S
C1032 C1039 1.409 . S
C1033 H1025 0.930 . S
C1033 C1031 1.419 . S
C1033 C1034 1.362 . S
C1034 H1026 0.930 . S
C1034 C1033 1.362 . S
C1034 C1037 1.409 . S
C1035 H1027 0.930 . S
C1035 C1036 1.355 . S
C1035 C1037 1.415 . S
C1036 C1035 1.355 . S
C1036 C1038 1.419 . S
C1037 C1032 1.425 . S
C1037 C1034 1.409 . S
C1037 C1035 1.415 . S
C1038 H1028 0.930 . S
C1038 C1036 1.419 . S
C1038 C1039 1.362 . S
C1039 H1029 0.930 . S
C1039 C1032 1.409 . S
C1039 C1038 1.362 . S
H1040 C1046 0.930 . S
H1041 C1049 0.930 . S
H1042 C1050 0.930 . S
H1043 C1051 0.930 . S
H1044 C1054 0.930 . S
H1045 C1055 0.930 . S
C1046 H1040 0.930 . S
C1046 C1047 1.355 . S
C1046 C1048 1.415 . S
C1047 C1046 1.355 . S
C1047 C1049 1.419 . S
C1048 C1046 1.415 . S
C1048 C1053 1.425 . S
C1048 C1055 1.409 . S
C1049 H1041 0.930 . S
C1049 C1047 1.419 . S
C1049 C1050 1.362 . S
C1050 H1042 0.930 . S
C1050 C1049 1.362 . S
C1050 C1053 1.409 . S
C1051 H1043 0.930 . S
C1051 C1052 1.355 . S
C1051 C1053 1.415 . S
C1052 C1051 1.355 . S
C1052 C1054 1.419 . S
C1053 C1048 1.425 . S
C1053 C1050 1.409 . S
C1053 C1051 1.415 . S
C1054 H1044 0.930 . S
C1054 C1052 1.419 . S
C1054 C1055 1.362 . S
C1055 H1045 0.930 . S
C1055 C1048 1.409 . S
C1055 C1054 1.362 . S
H1056 C1062 0.930 . S
H1057 C1065 0.930 . S
H1058 C1066 0.930 . S
H1059 C1067 0.930 . S
H1060 C1070 0.930 . S
H1061 C1071 0.930 . S
C1062 H1056 0.930 . S
C1062 C1063 1.355 . S
C1062 C1064 1.415 . S
C1063 C1062 1.355 . S
C1063 C1065 1.419 . S
C1064 C1062 1.415 . S
C1064 C1069 1.425 . S
C1064 C1071 1.409 . S
C1065 H1057 0.930 . S
C1065 C1063 1.419 . S
C1065 C1066 1.362 . S
C1066 H1058 0.930 . S
C1066 C1065 1.362 . S
C1066 C1069 1.409 . S
C1067 H1059 0.930 . S
C1067 C1068 1.355 . S
C1067 C1069 1.415 . S
C1068 C1067 1.355 . S
C1068 C1070 1.419 . S
C1069 C1064 1.425 . S
C1069 C1066 1.409 . S
C1069 C1067 1.415 . S
C1070 H1060 0.930 . S
C1070 C1068 1.419 . S
C1070 C1071 1.362 . S
C1071 H1061 0.930 . S
C1071 C1064 1.409 . S
C1071 C1070 1.362 . S
H1072 C1078 0.930 . S
H1073 C1081 0.930 . S
H1074 C1082 0.930 . S
H1075 C1083 0.930 . S
H1076 C1086 0.930 . S
H1077 C1087 0.930 . S
C1078 H1072 0.930 . S
C1078 C1079 1.355 . S
C1078 C1080 1.415 . S
C1079 C1078 1.355 . S
C1079 C1081 1.419 . S
C1080 C1078 1.415 . S
C1080 C1085 1.425 . S
C1080 C1087 1.409 . S
C1081 H1073 0.930 . S
C1081 C1079 1.419 . S
C1081 C1082 1.362 . S
C1082 H1074 0.930 . S
C1082 C1081 1.362 . S
C1082 C1085 1.409 . S
C1083 H1075 0.930 . S
C1083 C1084 1.355 . S
C1083 C1085 1.415 . S
C1084 C1083 1.355 . S
C1084 C1086 1.419 . S
C1085 C1080 1.425 . S
C1085 C1082 1.409 . S
C1085 C1083 1.415 . S
C1086 H1076 0.930 . S
C1086 C1084 1.419 . S
C1086 C1087 1.362 . S
C1087 H1077 0.930 . S
C1087 C1080 1.409 . S
C1087 C1086 1.362 . S
C583 C4 1.320 . S
C588 C472 1.338 . S
C599 C400 1.316 . S
C604 C40 1.319 . S
C615 C436 1.315 . S
C620 C76 1.320 . S
C631 C364 1.346 . S
C636 C112 1.323 . S
C647 C148 1.319 . S
C652 C544 1.333 . S
C663 C184 1.348 . S
C668 C328 1.334 . S
C679 C508 1.347 . S
C684 C220 1.328 . S
C695 C256 1.314 . S
C700 C292 1.334 . S
C711 C158 1.576 . S
C716 C14 1.531 . S
C727 C50 1.560 . S
C732 C194 1.557 . S
C743 C86 1.537 . S
C748 C230 1.527 . S
C759 C266 1.513 . S
C764 C122 1.561 . S
C775 C302 1.563 . S
C780 C374 1.554 . S
C791 C338 1.550 . S
C796 C410 1.566 . S
C807 C518 1.570 . S
C812 C446 1.513 . S
C823 C482 1.545 . S
C828 C554 1.569 . S
C839 C183 1.271 . S
C844 C3 1.273 . S
C855 C39 1.257 . S
C860 C219 1.260 . S
C871 C75 1.256 . S
C876 C255 1.258 . S
C887 C147 1.257 . S
C892 C111 1.260 . S
C903 C146 1.435 1_545 S
C908 C362 1.400 . S
C919 C74 1.394 1_545 S
C924 C290 1.439 . S
C935 C398 1.398 . S
C940 C218 1.433 1_565 S
C951 C326 1.435 . S
C956 C2 1.401 1_565 S
C967 C291 1.264 . S
C972 C435 1.261 . S
C983 C363 1.255 . S
C988 C543 1.257 . S
C999 C471 1.261 . S
C1004 C327 1.258 . S
C1015 C399 1.255 . S
C1020 C507 1.257 . S
C1031 C506 1.415 . S
C1036 C38 1.417 . S
C1047 C470 1.424 . S
C1052 C182 1.418 . S
C1063 C542 1.418 . S
C1068 C110 1.424 . S
C1079 C434 1.427 . S
C1084 C254 1.415 . S
