# Generated by pormake.
# Topology nfb, (4)-cn, num edge types: 1
# Building blocks:
#     Node 0, Type 0, BuildingBlock: ICAMEG_clean_sbu_1, # of connection points: 4
#     Node 1, Type 0, BuildingBlock: ICAMEG_clean_sbu_1, # of connection points: 4
#     Node 2, Type 0, BuildingBlock: ICAMEG_clean_sbu_1, # of connection points: 4
#     Node 3, Type 0, BuildingBlock: ICAMEG_clean_sbu_1, # of connection points: 4
#     Node 4, Type 0, BuildingBlock: ICAMEG_clean_sbu_1, # of connection points: 4
#     Node 5, Type 0, BuildingBlock: ICAMEG_clean_sbu_1, # of connection points: 4
#     Node 6, Type 0, BuildingBlock: ICAMEG_clean_sbu_1, # of connection points: 4
#     Node 7, Type 0, BuildingBlock: ICAMEG_clean_sbu_1, # of connection points: 4
#     Node 8, Type 0, BuildingBlock: ICAMEG_clean_sbu_1, # of connection points: 4
#     Node 9, Type 0, BuildingBlock: ICAMEG_clean_sbu_1, # of connection points: 4
#     Node 10, Type 0, BuildingBlock: ICAMEG_clean_sbu_1, # of connection points: 4
#     Node 11, Type 0, BuildingBlock: ICAMEG_clean_sbu_1, # of connection points: 4
#     Node 12, Type 0, BuildingBlock: ICAMEG_clean_sbu_1, # of connection points: 4
#     Node 13, Type 0, BuildingBlock: ICAMEG_clean_sbu_1, # of connection points: 4
#     Node 14, Type 0, BuildingBlock: ICAMEG_clean_sbu_1, # of connection points: 4
#     Node 15, Type 0, BuildingBlock: ICAMEG_clean_sbu_1, # of connection points: 4
#     Node 16, Type 0, BuildingBlock: ICAMEG_clean_sbu_1, # of connection points: 4
#     Node 17, Type 0, BuildingBlock: ICAMEG_clean_sbu_1, # of connection points: 4
#     Node 18, Type 0, BuildingBlock: ICAMEG_clean_sbu_1, # of connection points: 4
#     Node 19, Type 0, BuildingBlock: ICAMEG_clean_sbu_1, # of connection points: 4
#     Node 20, Type 0, BuildingBlock: ICAMEG_clean_sbu_1, # of connection points: 4
#     Node 21, Type 0, BuildingBlock: ICAMEG_clean_sbu_1, # of connection points: 4
#     Node 22, Type 0, BuildingBlock: ICAMEG_clean_sbu_1, # of connection points: 4
#     Node 23, Type 0, BuildingBlock: ICAMEG_clean_sbu_1, # of connection points: 4
#     Node 24, Type 0, BuildingBlock: ICAMEG_clean_sbu_1, # of connection points: 4
#     Node 25, Type 0, BuildingBlock: ICAMEG_clean_sbu_1, # of connection points: 4
#     Node 26, Type 0, BuildingBlock: ICAMEG_clean_sbu_1, # of connection points: 4
#     Node 27, Type 0, BuildingBlock: ICAMEG_clean_sbu_1, # of connection points: 4
#     Node 28, Type 0, BuildingBlock: ICAMEG_clean_sbu_1, # of connection points: 4
#     Node 29, Type 0, BuildingBlock: ICAMEG_clean_sbu_1, # of connection points: 4
#     Node 30, Type 0, BuildingBlock: ICAMEG_clean_sbu_1, # of connection points: 4
#     Node 31, Type 0, BuildingBlock: ICAMEG_clean_sbu_1, # of connection points: 4
#     Node 32, Type 0, BuildingBlock: ICAMEG_clean_sbu_1, # of connection points: 4
#     Node 33, Type 0, BuildingBlock: ICAMEG_clean_sbu_1, # of connection points: 4
#     Node 34, Type 0, BuildingBlock: ICAMEG_clean_sbu_1, # of connection points: 4
#     Node 35, Type 0, BuildingBlock: ICAMEG_clean_sbu_1, # of connection points: 4
#     Node 36, Type 0, BuildingBlock: ICAMEG_clean_sbu_1, # of connection points: 4
#     Node 37, Type 0, BuildingBlock: ICAMEG_clean_sbu_1, # of connection points: 4
#     Node 38, Type 0, BuildingBlock: ICAMEG_clean_sbu_1, # of connection points: 4
#     Node 39, Type 0, BuildingBlock: ICAMEG_clean_sbu_1, # of connection points: 4
#     Node 40, Type 0, BuildingBlock: ICAMEG_clean_sbu_1, # of connection points: 4
#     Node 41, Type 0, BuildingBlock: ICAMEG_clean_sbu_1, # of connection points: 4
#     Node 42, Type 0, BuildingBlock: ICAMEG_clean_sbu_1, # of connection points: 4
#     Node 43, Type 0, BuildingBlock: ICAMEG_clean_sbu_1, # of connection points: 4
#     Node 44, Type 0, BuildingBlock: ICAMEG_clean_sbu_1, # of connection points: 4
#     Node 45, Type 0, BuildingBlock: ICAMEG_clean_sbu_1, # of connection points: 4
#     Node 46, Type 0, BuildingBlock: ICAMEG_clean_sbu_1, # of connection points: 4
#     Node 47, Type 0, BuildingBlock: ICAMEG_clean_sbu_1, # of connection points: 4
#     Edge 48, Type (0, 0), BuildingBlock: KIFKEQ_clean_linker_1, # of connection points: 2
#     Edge 49, Type (0, 0), BuildingBlock: KIFKEQ_clean_linker_1, # of connection points: 2
#     Edge 50, Type (0, 0), BuildingBlock: KIFKEQ_clean_linker_1, # of connection points: 2
#     Edge 51, Type (0, 0), BuildingBlock: KIFKEQ_clean_linker_1, # of connection points: 2
#     Edge 52, Type (0, 0), BuildingBlock: KIFKEQ_clean_linker_1, # of connection points: 2
#     Edge 53, Type (0, 0), BuildingBlock: KIFKEQ_clean_linker_1, # of connection points: 2
#     Edge 54, Type (0, 0), BuildingBlock: KIFKEQ_clean_linker_1, # of connection points: 2
#     Edge 55, Type (0, 0), BuildingBlock: KIFKEQ_clean_linker_1, # of connection points: 2
#     Edge 56, Type (0, 0), BuildingBlock: KIFKEQ_clean_linker_1, # of connection points: 2
#     Edge 57, Type (0, 0), BuildingBlock: KIFKEQ_clean_linker_1, # of connection points: 2
#     Edge 58, Type (0, 0), BuildingBlock: KIFKEQ_clean_linker_1, # of connection points: 2
#     Edge 59, Type (0, 0), BuildingBlock: KIFKEQ_clean_linker_1, # of connection points: 2
#     Edge 60, Type (0, 0), BuildingBlock: KIFKEQ_clean_linker_1, # of connection points: 2
#     Edge 61, Type (0, 0), BuildingBlock: KIFKEQ_clean_linker_1, # of connection points: 2
#     Edge 62, Type (0, 0), BuildingBlock: KIFKEQ_clean_linker_1, # of connection points: 2
#     Edge 63, Type (0, 0), BuildingBlock: KIFKEQ_clean_linker_1, # of connection points: 2
#     Edge 64, Type (0, 0), BuildingBlock: KIFKEQ_clean_linker_1, # of connection points: 2
#     Edge 65, Type (0, 0), BuildingBlock: KIFKEQ_clean_linker_1, # of connection points: 2
#     Edge 66, Type (0, 0), BuildingBlock: KIFKEQ_clean_linker_1, # of connection points: 2
#     Edge 67, Type (0, 0), BuildingBlock: KIFKEQ_clean_linker_1, # of connection points: 2
#     Edge 68, Type (0, 0), BuildingBlock: KIFKEQ_clean_linker_1, # of connection points: 2
#     Edge 69, Type (0, 0), BuildingBlock: KIFKEQ_clean_linker_1, # of connection points: 2
#     Edge 70, Type (0, 0), BuildingBlock: KIFKEQ_clean_linker_1, # of connection points: 2
#     Edge 71, Type (0, 0), BuildingBlock: KIFKEQ_clean_linker_1, # of connection points: 2
#     Edge 72, Type (0, 0), BuildingBlock: KIFKEQ_clean_linker_1, # of connection points: 2
#     Edge 73, Type (0, 0), BuildingBlock: KIFKEQ_clean_linker_1, # of connection points: 2
#     Edge 74, Type (0, 0), BuildingBlock: KIFKEQ_clean_linker_1, # of connection points: 2
#     Edge 75, Type (0, 0), BuildingBlock: KIFKEQ_clean_linker_1, # of connection points: 2
#     Edge 76, Type (0, 0), BuildingBlock: KIFKEQ_clean_linker_1, # of connection points: 2
#     Edge 77, Type (0, 0), BuildingBlock: KIFKEQ_clean_linker_1, # of connection points: 2
#     Edge 78, Type (0, 0), BuildingBlock: KIFKEQ_clean_linker_1, # of connection points: 2
#     Edge 79, Type (0, 0), BuildingBlock: KIFKEQ_clean_linker_1, # of connection points: 2
#     Edge 80, Type (0, 0), BuildingBlock: KIFKEQ_clean_linker_1, # of connection points: 2
#     Edge 81, Type (0, 0), BuildingBlock: KIFKEQ_clean_linker_1, # of connection points: 2
#     Edge 82, Type (0, 0), BuildingBlock: KIFKEQ_clean_linker_1, # of connection points: 2
#     Edge 83, Type (0, 0), BuildingBlock: KIFKEQ_clean_linker_1, # of connection points: 2
#     Edge 84, Type (0, 0), BuildingBlock: KIFKEQ_clean_linker_1, # of connection points: 2
#     Edge 85, Type (0, 0), BuildingBlock: KIFKEQ_clean_linker_1, # of connection points: 2
#     Edge 86, Type (0, 0), BuildingBlock: KIFKEQ_clean_linker_1, # of connection points: 2
#     Edge 87, Type (0, 0), BuildingBlock: KIFKEQ_clean_linker_1, # of connection points: 2
#     Edge 88, Type (0, 0), BuildingBlock: KIFKEQ_clean_linker_1, # of connection points: 2
#     Edge 89, Type (0, 0), BuildingBlock: KIFKEQ_clean_linker_1, # of connection points: 2
#     Edge 90, Type (0, 0), BuildingBlock: KIFKEQ_clean_linker_1, # of connection points: 2
#     Edge 91, Type (0, 0), BuildingBlock: KIFKEQ_clean_linker_1, # of connection points: 2
#     Edge 92, Type (0, 0), BuildingBlock: KIFKEQ_clean_linker_1, # of connection points: 2
#     Edge 93, Type (0, 0), BuildingBlock: KIFKEQ_clean_linker_1, # of connection points: 2
#     Edge 94, Type (0, 0), BuildingBlock: KIFKEQ_clean_linker_1, # of connection points: 2
#     Edge 95, Type (0, 0), BuildingBlock: KIFKEQ_clean_linker_1, # of connection points: 2
#     Edge 96, Type (0, 0), BuildingBlock: KIFKEQ_clean_linker_1, # of connection points: 2
#     Edge 97, Type (0, 0), BuildingBlock: KIFKEQ_clean_linker_1, # of connection points: 2
#     Edge 98, Type (0, 0), BuildingBlock: KIFKEQ_clean_linker_1, # of connection points: 2
#     Edge 99, Type (0, 0), BuildingBlock: KIFKEQ_clean_linker_1, # of connection points: 2
#     Edge 100, Type (0, 0), BuildingBlock: KIFKEQ_clean_linker_1, # of connection points: 2
#     Edge 101, Type (0, 0), BuildingBlock: KIFKEQ_clean_linker_1, # of connection points: 2
#     Edge 102, Type (0, 0), BuildingBlock: KIFKEQ_clean_linker_1, # of connection points: 2
#     Edge 103, Type (0, 0), BuildingBlock: KIFKEQ_clean_linker_1, # of connection points: 2
#     Edge 104, Type (0, 0), BuildingBlock: KIFKEQ_clean_linker_1, # of connection points: 2
#     Edge 105, Type (0, 0), BuildingBlock: KIFKEQ_clean_linker_1, # of connection points: 2
#     Edge 106, Type (0, 0), BuildingBlock: KIFKEQ_clean_linker_1, # of connection points: 2
#     Edge 107, Type (0, 0), BuildingBlock: KIFKEQ_clean_linker_1, # of connection points: 2
#     Edge 108, Type (0, 0), BuildingBlock: KIFKEQ_clean_linker_1, # of connection points: 2
#     Edge 109, Type (0, 0), BuildingBlock: KIFKEQ_clean_linker_1, # of connection points: 2
#     Edge 110, Type (0, 0), BuildingBlock: KIFKEQ_clean_linker_1, # of connection points: 2
#     Edge 111, Type (0, 0), BuildingBlock: KIFKEQ_clean_linker_1, # of connection points: 2
#     Edge 112, Type (0, 0), BuildingBlock: KIFKEQ_clean_linker_1, # of connection points: 2
#     Edge 113, Type (0, 0), BuildingBlock: KIFKEQ_clean_linker_1, # of connection points: 2
#     Edge 114, Type (0, 0), BuildingBlock: KIFKEQ_clean_linker_1, # of connection points: 2
#     Edge 115, Type (0, 0), BuildingBlock: KIFKEQ_clean_linker_1, # of connection points: 2
#     Edge 116, Type (0, 0), BuildingBlock: KIFKEQ_clean_linker_1, # of connection points: 2
#     Edge 117, Type (0, 0), BuildingBlock: KIFKEQ_clean_linker_1, # of connection points: 2
#     Edge 118, Type (0, 0), BuildingBlock: KIFKEQ_clean_linker_1, # of connection points: 2
#     Edge 119, Type (0, 0), BuildingBlock: KIFKEQ_clean_linker_1, # of connection points: 2
#     Edge 120, Type (0, 0), BuildingBlock: KIFKEQ_clean_linker_1, # of connection points: 2
#     Edge 121, Type (0, 0), BuildingBlock: KIFKEQ_clean_linker_1, # of connection points: 2
#     Edge 122, Type (0, 0), BuildingBlock: KIFKEQ_clean_linker_1, # of connection points: 2
#     Edge 123, Type (0, 0), BuildingBlock: KIFKEQ_clean_linker_1, # of connection points: 2
#     Edge 124, Type (0, 0), BuildingBlock: KIFKEQ_clean_linker_1, # of connection points: 2
#     Edge 125, Type (0, 0), BuildingBlock: KIFKEQ_clean_linker_1, # of connection points: 2
#     Edge 126, Type (0, 0), BuildingBlock: KIFKEQ_clean_linker_1, # of connection points: 2
#     Edge 127, Type (0, 0), BuildingBlock: KIFKEQ_clean_linker_1, # of connection points: 2
#     Edge 128, Type (0, 0), BuildingBlock: KIFKEQ_clean_linker_1, # of connection points: 2
#     Edge 129, Type (0, 0), BuildingBlock: KIFKEQ_clean_linker_1, # of connection points: 2
#     Edge 130, Type (0, 0), BuildingBlock: KIFKEQ_clean_linker_1, # of connection points: 2
#     Edge 131, Type (0, 0), BuildingBlock: KIFKEQ_clean_linker_1, # of connection points: 2
#     Edge 132, Type (0, 0), BuildingBlock: KIFKEQ_clean_linker_1, # of connection points: 2
#     Edge 133, Type (0, 0), BuildingBlock: KIFKEQ_clean_linker_1, # of connection points: 2
#     Edge 134, Type (0, 0), BuildingBlock: KIFKEQ_clean_linker_1, # of connection points: 2
#     Edge 135, Type (0, 0), BuildingBlock: KIFKEQ_clean_linker_1, # of connection points: 2
#     Edge 136, Type (0, 0), BuildingBlock: KIFKEQ_clean_linker_1, # of connection points: 2
#     Edge 137, Type (0, 0), BuildingBlock: KIFKEQ_clean_linker_1, # of connection points: 2
#     Edge 138, Type (0, 0), BuildingBlock: KIFKEQ_clean_linker_1, # of connection points: 2
#     Edge 139, Type (0, 0), BuildingBlock: KIFKEQ_clean_linker_1, # of connection points: 2
#     Edge 140, Type (0, 0), BuildingBlock: KIFKEQ_clean_linker_1, # of connection points: 2
#     Edge 141, Type (0, 0), BuildingBlock: KIFKEQ_clean_linker_1, # of connection points: 2
#     Edge 142, Type (0, 0), BuildingBlock: KIFKEQ_clean_linker_1, # of connection points: 2
#     Edge 143, Type (0, 0), BuildingBlock: KIFKEQ_clean_linker_1, # of connection points: 2
# Relax obj value: 0.318
# Max RMSD: 0.136
# Mean RMSD: 0.107
data_MOF--net-nfb--node1-ICAMEG_clean_sbu_1--edge1-KIFKEQ_clean_linker_1
_symmetry_space_group_name_H-M    P1
_symmetry_Int_Tables_number       1
_symmetry_cell_setting            triclinic
loop_
_symmetry_equiv_pos_as_xyz
'x, y, z'
_cell_length_a     63.301039
_cell_length_b     63.441203
_cell_length_c     63.362662
_cell_angle_alpha  90.45278
_cell_angle_beta   91.528366
_cell_angle_gamma 92.952533
loop_
_atom_site_label
_atom_site_type_symbol
_atom_site_fract_x
_atom_site_fract_y
_atom_site_fract_z
_atom_type_partial_charge
Co0 Co 0.12351 0.11024 0.40563 0.0
Co1 Co 0.11118 0.14891 0.44078 0.0
O2 O 0.12842 0.13821 0.41852 0.0
C3 C 0.16878 0.11373 0.41946 0.0
O4 O 0.16176 0.1205 0.43745 0.0
C5 C 0.11218 0.18261 0.40909 0.0
O6 O 0.10703 0.16789 0.39492 0.0
O7 O 0.08521 0.14285 0.42327 0.0
O8 O 0.0913 0.11238 0.40666 0.0
H9 H 0.04965 0.14716 0.48939 0.0
H10 H 0.15157 0.14226 0.38487 0.0
O11 O 0.15554 0.10789 0.40463 0.0
H12 H 0.09411 0.12416 0.33277 0.0
H13 H 0.1388 0.05222 0.35447 0.0
H14 H 0.09406 0.0733 0.41276 0.0
H15 H 0.09495 0.10682 0.36747 0.0
H16 H 0.14414 0.08751 0.37107 0.0
O17 O 0.11434 0.17778 0.42846 0.0
H18 H 0.07148 0.13388 0.46101 0.0
H19 H 0.11363 0.18797 0.46741 0.0
H20 H 0.08802 0.03797 0.39649 0.0
H21 H 0.15146 0.15984 0.35029 0.0
H22 H 0.11038 0.0273 0.36705 0.0
H23 H 0.12253 0.15086 0.32399 0.0
O24 O 0.12353 0.09656 0.43378 0.0
H25 H 0.1854 0.1785 0.45545 0.0
H26 H 0.12406 0.13911 0.48511 0.0
H27 H 0.15631 0.14609 0.50726 0.0
H28 H 0.18725 0.16599 0.49247 0.0
H29 H 0.15297 0.17083 0.4337 0.0
H30 H 0.09211 0.20196 0.4957 0.0
H31 H 0.05995 0.18144 0.50696 0.0
O32 O 0.10753 0.12033 0.45344 0.0
C33 C 0.07876 0.12647 0.41268 0.0
C34 C 0.06367 0.15621 0.48467 0.0
C35 C 0.08749 0.18699 0.4882 0.0
N36 N 0.09395 0.16001 0.46273 0.0
C37 C 0.07614 0.14874 0.46866 0.0
C38 C 0.09958 0.17901 0.47214 0.0
C39 C 0.06945 0.17546 0.49451 0.0
C40 C 0.13906 0.1381 0.37343 0.0
N41 N 0.12335 0.12345 0.37814 0.0
C42 C 0.13902 0.14818 0.35391 0.0
C43 C 0.12277 0.14316 0.33917 0.0
C44 C 0.10681 0.12819 0.3441 0.0
C45 C 0.10734 0.11846 0.36379 0.0
C46 C 0.12889 0.05673 0.36723 0.0
C47 C 0.10381 0.06879 0.3999 0.0
C48 C 0.13187 0.07666 0.37671 0.0
N49 N 0.11929 0.0825 0.39272 0.0
C50 C 0.10036 0.04874 0.39079 0.0
C51 C 0.11296 0.04274 0.37431 0.0
C52 C 0.11412 0.10193 0.45035 0.0
C53 C 0.172 0.16986 0.46209 0.0
C54 C 0.13752 0.14761 0.47848 0.0
C55 C 0.15571 0.1516 0.49114 0.0
C56 C 0.17305 0.16279 0.48284 0.0
N57 N 0.13661 0.15459 0.45813 0.0
C58 C 0.15356 0.16556 0.44988 0.0
Co59 Co 0.36762 0.63144 0.92572 0.0
Co60 Co 0.38106 0.6202 0.87493 0.0
O61 O 0.38266 0.61567 0.90512 0.0
C62 C 0.41208 0.63615 0.94154 0.0
O63 O 0.41745 0.64418 0.92329 0.0
C64 C 0.36856 0.5742 0.87892 0.0
O65 O 0.3531 0.58019 0.8906 0.0
O66 O 0.34946 0.61873 0.87495 0.0
O67 O 0.34218 0.63249 0.90662 0.0
H68 H 0.35518 0.65318 0.80788 0.0
H69 H 0.38665 0.59129 0.93771 0.0
O70 O 0.39289 0.63063 0.9451 0.0
H71 H 0.31048 0.58033 0.95098 0.0
H72 H 0.34673 0.64905 0.99968 0.0
H73 H 0.34023 0.66802 0.92454 0.0
H74 H 0.32484 0.61438 0.93755 0.0
H75 H 0.36446 0.62881 0.97251 0.0
O76 O 0.38118 0.58817 0.87077 0.0
H77 H 0.35742 0.64798 0.84642 0.0
H78 H 0.40127 0.60029 0.83843 0.0
H79 H 0.32204 0.68851 0.95114 0.0
H80 H 0.37298 0.55705 0.95127 0.0
H81 H 0.32521 0.67908 0.98896 0.0
H82 H 0.33463 0.55139 0.95796 0.0
O83 O 0.37849 0.65869 0.91396 0.0
H84 H 0.45363 0.59672 0.89431 0.0
H85 H 0.41339 0.65 0.85658 0.0
H86 H 0.4524 0.65297 0.85716 0.0
H87 H 0.47279 0.62617 0.87608 0.0
H88 H 0.41461 0.59446 0.89349 0.0
H89 H 0.39938 0.60483 0.79978 0.0
H90 H 0.37627 0.6315 0.78429 0.0
O91 O 0.3812 0.65224 0.87916 0.0
C92 C 0.33669 0.62608 0.88806 0.0
C93 C 0.36536 0.64155 0.81445 0.0
C94 C 0.39014 0.61439 0.8099 0.0
N95 N 0.37958 0.62397 0.84463 0.0
C96 C 0.36673 0.63859 0.83625 0.0
C97 C 0.39111 0.61185 0.83177 0.0
C98 C 0.37718 0.62936 0.80122 0.0
C99 C 0.36997 0.58901 0.94075 0.0
N100 N 0.35659 0.60486 0.93697 0.0
C101 C 0.36231 0.56956 0.94836 0.0
C102 C 0.34079 0.56639 0.95208 0.0
C103 C 0.32723 0.58262 0.94816 0.0
C104 C 0.33545 0.60185 0.94052 0.0
C105 C 0.34516 0.65328 0.98321 0.0
C106 C 0.34154 0.66368 0.94096 0.0
C107 C 0.35519 0.6419 0.96776 0.0
N108 N 0.35321 0.64711 0.94693 0.0
C109 C 0.33128 0.6754 0.95596 0.0
C110 C 0.3331 0.67012 0.97721 0.0
C111 C 0.38114 0.66498 0.89508 0.0
C112 C 0.44493 0.60846 0.88595 0.0
C113 C 0.42215 0.63831 0.8649 0.0
C114 C 0.44424 0.64005 0.86513 0.0
C115 C 0.45567 0.625 0.87575 0.0
N116 N 0.41173 0.622 0.87489 0.0
C117 C 0.42283 0.60721 0.88536 0.0
Co118 Co 0.87921 0.91538 0.40036 0.0
Co119 Co 0.89697 0.87644 0.43267 0.0
O120 O 0.87669 0.88664 0.41177 0.0
C121 C 0.83487 0.90923 0.4145 0.0
O122 O 0.84322 0.90145 0.43174 0.0
C123 C 0.88608 0.83937 0.40326 0.0
O124 O 0.87591 0.85118 0.38996 0.0
O125 O 0.92026 0.88364 0.41352 0.0
O126 O 0.91173 0.91511 0.40084 0.0
H127 H 0.96532 0.88095 0.47502 0.0
H128 H 0.85055 0.88408 0.37732 0.0
O129 O 0.84698 0.91623 0.39997 0.0
H130 H 0.90471 0.90632 0.32642 0.0
H131 H 0.85748 0.97446 0.35323 0.0
H132 H 0.9071 0.95347 0.40963 0.0
H133 H 0.90566 0.92142 0.36242 0.0
H134 H 0.8552 0.93831 0.36743 0.0
O135 O 0.89467 0.8472 0.42017 0.0
H136 H 0.93815 0.89375 0.45038 0.0
H137 H 0.90014 0.83737 0.45841 0.0
H138 H 0.91007 0.98969 0.39577 0.0
H139 H 0.84881 0.8688 0.34137 0.0
H140 H 0.88521 1.00036 0.36733 0.0
H141 H 0.87609 0.87984 0.31566 0.0
O142 O 0.8801 0.92769 0.42925 0.0
H143 H 0.82535 0.8448 0.4512 0.0
H144 H 0.8896 0.88443 0.47825 0.0
H145 H 0.86043 0.87618 0.50229 0.0
H146 H 0.82803 0.85614 0.48883 0.0
H147 H 0.85473 0.85371 0.42762 0.0
H148 H 0.927 0.82391 0.48303 0.0
H149 H 0.95992 0.84571 0.49138 0.0
O150 O 0.90049 0.90504 0.44625 0.0
C151 C 0.92528 0.90106 0.40464 0.0
C152 C 0.95105 0.8713 0.47149 0.0
C153 C 0.92956 0.83927 0.47595 0.0
N154 N 0.91752 0.86638 0.45301 0.0
C155 C 0.93555 0.8785 0.45761 0.0
C156 C 0.9144 0.84698 0.462 0.0
C157 C 0.94802 0.85151 0.48063 0.0
C158 C 0.86238 0.88908 0.36618 0.0
N159 N 0.87825 0.90353 0.37202 0.0
C160 C 0.86136 0.88032 0.34587 0.0
C161 C 0.87669 0.8865 0.33146 0.0
C162 C 0.89277 0.90132 0.3375 0.0
C163 C 0.8933 0.90973 0.35796 0.0
C164 C 0.86846 0.96997 0.36558 0.0
C165 C 0.89628 0.95796 0.39717 0.0
C166 C 0.86722 0.94955 0.3737 0.0
N167 N 0.88113 0.94375 0.38919 0.0
C168 C 0.898 0.97852 0.38943 0.0
C169 C 0.88401 0.9845 0.3735 0.0
C170 C 0.89158 0.92254 0.44491 0.0
C171 C 0.83944 0.85343 0.45729 0.0
C172 C 0.87554 0.87578 0.47221 0.0
C173 C 0.85908 0.8711 0.48594 0.0
C174 C 0.84092 0.85984 0.47838 0.0
N175 N 0.874 0.86939 0.45153 0.0
C176 C 0.85622 0.85837 0.44402 0.0
Co177 Co 0.66421 0.37407 0.93278 0.0
Co178 Co 0.65146 0.38902 0.88194 0.0
O179 O 0.6482 0.39021 0.91242 0.0
C180 C 0.61924 0.36404 0.94266 0.0
O181 O 0.61417 0.36346 0.92246 0.0
C182 C 0.66142 0.43506 0.87344 0.0
O183 O 0.67782 0.42921 0.863 0.0
O184 O 0.6829 0.39314 0.88539 0.0
O185 O 0.69063 0.37899 0.91691 0.0
H186 H 0.68362 0.36584 0.81455 0.0
H187 H 0.63864 0.40873 0.94786 0.0
O188 O 0.63816 0.36836 0.9492 0.0
H189 H 0.71191 0.42809 0.97174 0.0
H190 H 0.68403 0.3509 1.00606 0.0
H191 H 0.69662 0.34196 0.93015 0.0
H192 H 0.70361 0.3951 0.95167 0.0
H193 H 0.66481 0.37143 0.97969 0.0
O194 O 0.64907 0.42099 0.88176 0.0
H195 H 0.67924 0.36705 0.85313 0.0
H196 H 0.63027 0.40986 0.84563 0.0
H197 H 0.7163 0.32111 0.95604 0.0
H198 H 0.6462 0.44178 0.96808 0.0
H199 H 0.71002 0.32549 0.99435 0.0
H200 H 0.68307 0.45164 0.98016 0.0
O201 O 0.65771 0.34765 0.91656 0.0
H202 H 0.57627 0.4057 0.89581 0.0
H203 H 0.62223 0.35885 0.8576 0.0
H204 H 0.58347 0.35322 0.85388 0.0
H205 H 0.56021 0.37679 0.87302 0.0
H206 H 0.6151 0.41057 0.89933 0.0
H207 H 0.63414 0.4092 0.80697 0.0
H208 H 0.66095 0.38703 0.7912 0.0
O209 O 0.65359 0.35693 0.88251 0.0
C210 C 0.69602 0.38717 0.89946 0.0
C211 C 0.67186 0.37553 0.82122 0.0
C212 C 0.64409 0.39988 0.81697 0.0
N213 N 0.65448 0.38844 0.85156 0.0
C214 C 0.66929 0.37625 0.84304 0.0
C215 C 0.64198 0.4002 0.83885 0.0
C216 C 0.65914 0.38744 0.80814 0.0
C217 C 0.6547 0.41287 0.95316 0.0
N218 N 0.67064 0.39995 0.94869 0.0
C219 C 0.6589 0.43162 0.96456 0.0
C220 C 0.67959 0.43716 0.97131 0.0
C221 C 0.69578 0.42396 0.96658 0.0
C222 C 0.691 0.40533 0.95515 0.0
C223 C 0.68693 0.34882 0.98946 0.0
C224 C 0.69394 0.34406 0.94679 0.0
C225 C 0.67607 0.36041 0.97443 0.0
N226 N 0.67973 0.35803 0.9534 0.0
C227 C 0.70507 0.33216 0.96138 0.0
C228 C 0.70152 0.3346 0.98286 0.0
C229 C 0.6551 0.34295 0.89703 0.0
C230 C 0.58624 0.39536 0.88734 0.0
C231 C 0.61223 0.36908 0.8661 0.0
C232 C 0.59028 0.36587 0.86386 0.0
C233 C 0.57724 0.37912 0.87458 0.0
N234 N 0.62094 0.38506 0.87862 0.0
C235 C 0.60825 0.39812 0.88918 0.0
Co236 Co 0.15279 0.87441 0.6446 0.0
Co237 Co 0.16376 0.85883 0.59385 0.0
O238 O 0.14906 0.87591 0.61396 0.0
C239 C 0.10688 0.86504 0.63612 0.0
O240 O 0.11317 0.85142 0.62223 0.0
C241 C 0.17032 0.90309 0.57922 0.0
O242 O 0.1714 0.90977 0.59888 0.0
O243 O 0.19143 0.86686 0.6077 0.0
O244 O 0.18486 0.87313 0.64191 0.0
H245 H 0.21528 0.80569 0.5718 0.0
H246 H 0.12832 0.9088 0.62624 0.0
O247 O 0.12079 0.87576 0.64736 0.0
H248 H 0.18833 0.94454 0.66563 0.0
H249 H 0.13712 0.89436 0.71938 0.0
H250 H 0.17905 0.84995 0.67393 0.0
H251 H 0.18395 0.90568 0.66483 0.0
H252 H 0.13326 0.89598 0.68057 0.0
O253 O 0.16727 0.88356 0.57473 0.0
H254 H 0.197 0.82761 0.59716 0.0
H255 H 0.16171 0.85424 0.54701 0.0
H256 H 0.18357 0.84794 0.71267 0.0
H257 H 0.13194 0.9477 0.62686 0.0
H258 H 0.1625 0.87026 0.73566 0.0
H259 H 0.16217 0.96582 0.64659 0.0
O260 O 0.14947 0.84293 0.644 0.0
H261 H 0.09211 0.87315 0.56276 0.0
H262 H 0.14176 0.81803 0.58008 0.0
H263 H 0.10677 0.80785 0.56402 0.0
H264 H 0.08168 0.83552 0.55522 0.0
H265 H 0.12717 0.88263 0.57903 0.0
H266 H 0.17923 0.83232 0.52121 0.0
H267 H 0.20639 0.80793 0.53347 0.0
O268 O 0.16094 0.83362 0.61218 0.0
C269 C 0.19766 0.87085 0.6267 0.0
C270 C 0.20352 0.81628 0.56622 0.0
C271 C 0.1834 0.83131 0.5378 0.0
N272 N 0.17823 0.84209 0.57359 0.0
C273 C 0.19312 0.82872 0.58051 0.0
C274 C 0.17348 0.84366 0.55251 0.0
C275 C 0.19855 0.81757 0.54472 0.0
C276 C 0.14139 0.91658 0.63505 0.0
N277 N 0.15589 0.90499 0.64551 0.0
C278 C 0.14341 0.9386 0.63526 0.0
C279 C 0.1604 0.94876 0.6463 0.0
C280 C 0.1751 0.93683 0.65696 0.0
C281 C 0.17259 0.91483 0.65638 0.0
C282 C 0.14642 0.88458 0.70953 0.0
C283 C 0.16994 0.8598 0.68385 0.0
C284 C 0.14426 0.8854 0.68756 0.0
N285 N 0.15604 0.87318 0.67505 0.0
C286 C 0.17252 0.85855 0.70576 0.0
C287 C 0.16067 0.87106 0.71865 0.0
C288 C 0.15453 0.82917 0.63054 0.0
C289 C 0.10294 0.86096 0.56644 0.0
C290 C 0.13093 0.83017 0.57634 0.0
C291 C 0.11115 0.8243 0.5672 0.0
C292 C 0.09708 0.83984 0.56225 0.0
N293 N 0.13657 0.85093 0.58037 0.0
C294 C 0.12286 0.86624 0.57556 0.0
Co295 Co 0.64741 0.60857 0.08966 0.0
Co296 Co 0.6092 0.6271 0.12081 0.0
O297 O 0.6376 0.62931 0.10949 0.0
C298 C 0.68244 0.61326 0.12155 0.0
O299 O 0.66837 0.60993 0.13618 0.0
C300 C 0.61414 0.67132 0.10515 0.0
O301 O 0.6203 0.66282 0.08754 0.0
O302 O 0.59655 0.62572 0.09179 0.0
O303 O 0.6184 0.60383 0.07649 0.0
H304 H 0.53426 0.59765 0.12562 0.0
H305 H 0.66976 0.65085 0.09254 0.0
O306 O 0.6767 0.61297 0.10214 0.0
H307 H 0.64478 0.64302 0.01834 0.0
H308 H 0.69919 0.57961 0.03937 0.0
H309 H 0.63086 0.5666 0.0738 0.0
H310 H 0.63774 0.61449 0.04377 0.0
H311 H 0.68609 0.60585 0.0641 0.0
O312 O 0.60866 0.65928 0.12043 0.0
H313 H 0.57055 0.5996 0.11221 0.0
H314 H 0.58706 0.65164 0.15298 0.0
H315 H 0.64331 0.54 0.04911 0.0
H316 H 0.67733 0.67973 0.06755 0.0
H317 H 0.67771 0.54644 0.03169 0.0
H318 H 0.66476 0.67592 0.03017 0.0
O319 O 0.64098 0.58565 0.11001 0.0
H320 H 0.65901 0.6563 0.1781 0.0
H321 H 0.60296 0.60184 0.15983 0.0
H322 H 0.6193 0.60271 0.19563 0.0
H323 H 0.64752 0.63012 0.20497 0.0
H324 H 0.64236 0.65471 0.14243 0.0
H325 H 0.5509 0.65039 0.16671 0.0
H326 H 0.52423 0.62323 0.15303 0.0
O327 O 0.60928 0.59474 0.12122 0.0
C328 C 0.60108 0.61327 0.0769 0.0
C329 C 0.54576 0.60952 0.13176 0.0
C330 C 0.55509 0.63914 0.1548 0.0
N331 N 0.58093 0.6256 0.13193 0.0
C332 C 0.56635 0.61065 0.12427 0.0
C333 C 0.57552 0.63979 0.14694 0.0
C334 C 0.54013 0.62389 0.14712 0.0
C335 C 0.66441 0.64901 0.07626 0.0
N336 N 0.65337 0.63098 0.06964 0.0
C337 C 0.66866 0.66544 0.0622 0.0
C338 C 0.66157 0.66332 0.04123 0.0
C339 C 0.65034 0.64488 0.03459 0.0
C340 C 0.64634 0.62879 0.0491 0.0
C341 C 0.68418 0.57663 0.04687 0.0
C342 C 0.64581 0.56956 0.06624 0.0
C343 C 0.6767 0.59141 0.06091 0.0
N344 N 0.65766 0.58783 0.07029 0.0
C345 C 0.6528 0.55442 0.0523 0.0
C346 C 0.67211 0.55803 0.04255 0.0
C347 C 0.62334 0.58107 0.11856 0.0
C348 C 0.64669 0.64432 0.17425 0.0
C349 C 0.61527 0.61377 0.16376 0.0
C350 C 0.62443 0.61422 0.18407 0.0
C351 C 0.64025 0.62961 0.1893 0.0
N352 N 0.62165 0.62827 0.1491 0.0
C353 C 0.63715 0.6434 0.15411 0.0
Co354 Co 0.88703 0.13164 0.65029 0.0
Co355 Co 0.87758 0.14416 0.59843 0.0
O356 O 0.8923 0.12918 0.62038 0.0
C357 C 0.93315 0.14334 0.64735 0.0
O358 O 0.9274 0.15818 0.63441 0.0
C359 C 0.87195 0.0996 0.58343 0.0
O360 O 0.86242 0.0944 0.60093 0.0
O361 O 0.84963 0.13435 0.60938 0.0
O362 O 0.85513 0.13181 0.64454 0.0
H363 H 0.82323 0.19164 0.56888 0.0
H364 H 0.91288 0.09746 0.63436 0.0
O365 O 0.91895 0.1313 0.65587 0.0
H366 H 0.85285 0.06129 0.66959 0.0
H367 H 0.90034 0.11496 0.72682 0.0
H368 H 0.85874 0.15616 0.6765 0.0
H369 H 0.8563 0.10017 0.66861 0.0
H370 H 0.9058 0.11212 0.6885 0.0
O371 O 0.87828 0.11862 0.58002 0.0
H372 H 0.84183 0.17256 0.59691 0.0
H373 H 0.88163 0.14647 0.55166 0.0
H374 H 0.85262 0.15936 0.71467 0.0
H375 H 0.91015 0.05855 0.63513 0.0
H376 H 0.87351 0.13866 0.74011 0.0
H377 H 0.87994 0.04021 0.65281 0.0
O378 O 0.88888 0.16317 0.64911 0.0
H379 H 0.9526 0.13607 0.57683 0.0
H380 H 0.8963 0.18609 0.58559 0.0
H381 H 0.93117 0.19909 0.57324 0.0
H382 H 0.95961 0.17399 0.56876 0.0
H383 H 0.91754 0.12375 0.58928 0.0
H384 H 0.86328 0.1651 0.52308 0.0
H385 H 0.83405 0.18818 0.53177 0.0
O386 O 0.8769 0.16996 0.61633 0.0
C387 C 0.8428 0.13202 0.62807 0.0
C388 C 0.83603 0.18176 0.56496 0.0
C389 C 0.85849 0.16685 0.53925 0.0
N390 N 0.86294 0.1586 0.57596 0.0
C391 C 0.84666 0.17097 0.58077 0.0
C392 C 0.86878 0.15629 0.55549 0.0
C393 C 0.84207 0.17974 0.54409 0.0
C394 C 0.89978 0.0896 0.64224 0.0
N395 N 0.88483 0.10107 0.65155 0.0
C396 C 0.89828 0.06756 0.64256 0.0
C397 C 0.88131 0.05728 0.65245 0.0
C398 C 0.8661 0.0691 0.66186 0.0
C399 C 0.86811 0.09111 0.66122 0.0
C400 C 0.89111 0.12404 0.7159 0.0
C401 C 0.86779 0.14701 0.68748 0.0
C402 C 0.89418 0.12253 0.6942 0.0
N403 N 0.88249 0.13385 0.68032 0.0
C404 C 0.8643 0.14893 0.70907 0.0
C405 C 0.87605 0.13733 0.72334 0.0
C406 C 0.88263 0.17584 0.63497 0.0
C407 C 0.94031 0.14714 0.57865 0.0
C408 C 0.90859 0.17507 0.5837 0.0
C409 C 0.9283 0.18252 0.57667 0.0
C410 C 0.94424 0.16843 0.57415 0.0
N411 N 0.90483 0.15415 0.58801 0.0
C412 C 0.9204 0.14025 0.58561 0.0
Co413 Co 0.37546 0.41366 0.07876 0.0
Co414 Co 0.40907 0.39673 0.11721 0.0
O415 O 0.38237 0.39367 0.10085 0.0
C416 C 0.33592 0.40873 0.1029 0.0
O417 O 0.34731 0.41 0.12053 0.0
C418 C 0.40485 0.35169 0.10298 0.0
O419 O 0.39959 0.35908 0.08441 0.0
O420 O 0.42509 0.39652 0.0907 0.0
O421 O 0.40593 0.4184 0.07146 0.0
H422 H 0.48253 0.42709 0.13392 0.0
H423 H 0.35286 0.37147 0.07765 0.0
O424 O 0.34481 0.40966 0.08514 0.0
H425 H 0.38825 0.37777 1.00939 0.0
H426 H 0.33047 0.44171 0.01979 0.0
H427 H 0.39404 0.45529 0.06549 0.0
H428 H 0.39169 0.40675 0.03556 0.0
H429 H 0.34086 0.41558 0.04609 0.0
O430 O 0.40981 0.36457 0.11821 0.0
H431 H 0.44818 0.4242 0.11447 0.0
H432 H 0.42717 0.37397 0.1539 0.0
H433 H 0.38464 0.48155 0.03881 0.0
H434 H 0.34872 0.34217 0.05176 0.0
H435 H 0.35263 0.47484 0.0157 0.0
H436 H 0.36655 0.34521 0.01737 0.0
O437 O 0.37855 0.43686 0.09966 0.0
H438 H 0.35307 0.36954 0.16624 0.0
H439 H 0.41039 0.42383 0.15597 0.0
H440 H 0.38996 0.4243 0.18857 0.0
H441 H 0.3611 0.39698 0.19388 0.0
H442 H 0.37375 0.3698 0.13377 0.0
H443 H 0.46136 0.37618 0.17367 0.0
H444 H 0.48931 0.4029 0.1637 0.0
O445 O 0.40875 0.42924 0.11658 0.0
C446 C 0.42258 0.40829 0.07476 0.0
C447 C 0.47045 0.41542 0.13845 0.0
C448 C 0.45858 0.38683 0.16074 0.0
N449 N 0.43566 0.39906 0.13316 0.0
C450 C 0.45095 0.41377 0.12755 0.0
C451 C 0.43927 0.38563 0.14948 0.0
C452 C 0.47425 0.40183 0.15515 0.0
C453 C 0.36051 0.37296 0.06265 0.0
N454 N 0.37256 0.39077 0.05819 0.0
C455 C 0.35819 0.3563 0.04808 0.0
C456 C 0.36823 0.35799 0.02881 0.0
C457 C 0.38043 0.37623 0.02433 0.0
C458 C 0.38242 0.39255 0.03928 0.0
C459 C 0.34458 0.44474 0.02957 0.0
C460 C 0.38024 0.45213 0.05533 0.0
C461 C 0.35046 0.43005 0.04463 0.0
N462 N 0.36809 0.43385 0.05728 0.0
C463 C 0.37495 0.4671 0.0403 0.0
C464 C 0.35698 0.46334 0.02735 0.0
C465 C 0.39473 0.44237 0.11116 0.0
C466 C 0.36565 0.38149 0.16413 0.0
C467 C 0.39778 0.41196 0.15812 0.0
C468 C 0.38632 0.41226 0.17664 0.0
C469 C 0.37014 0.39692 0.17962 0.0
N470 N 0.39329 0.39677 0.14302 0.0
C471 C 0.37747 0.38167 0.14583 0.0
Co472 Co 0.42714 0.12795 0.14406 0.0
Co473 Co 0.39107 0.14577 0.10797 0.0
O474 O 0.40522 0.14721 0.13588 0.0
C475 C 0.39887 0.12849 0.18066 0.0
O476 O 0.38264 0.1292 0.16742 0.0
C477 C 0.40582 0.19091 0.11384 0.0
O478 O 0.42368 0.18359 0.12081 0.0
O479 O 0.4187 0.14799 0.09401 0.0
O480 O 0.43757 0.12682 0.1145 0.0
H481 H 0.37938 0.11961 0.03332 0.0
H482 H 0.42452 0.16745 0.16898 0.0
O483 O 0.41762 0.12812 0.17394 0.0
H484 H 0.49477 0.1723 0.13706 0.0
H485 H 0.48523 0.10171 0.19127 0.0
H486 H 0.44329 0.0891 0.12525 0.0
H487 H 0.47125 0.14049 0.13182 0.0
H488 H 0.45725 0.12554 0.18089 0.0
O489 O 0.39062 0.17797 0.10773 0.0
H490 H 0.39661 0.12114 0.06874 0.0
H491 H 0.3559 0.1685 0.0878 0.0
H492 H 0.47118 0.06493 0.13501 0.0
H493 H 0.44794 0.19928 0.17533 0.0
H494 H 0.49241 0.07121 0.1682 0.0
H495 H 0.48317 0.20203 0.15898 0.0
O496 O 0.40731 0.10343 0.13784 0.0
H497 H 0.33753 0.16804 0.15967 0.0
H498 H 0.35234 0.11709 0.10345 0.0
H499 H 0.31805 0.1142 0.12109 0.0
H500 H 0.31045 0.13984 0.14938 0.0
H501 H 0.37172 0.17017 0.1418 0.0
H502 H 0.33832 0.1676 0.05255 0.0
H503 H 0.35002 0.14297 0.02505 0.0
O504 O 0.39158 0.11338 0.10751 0.0
C505 C 0.43464 0.13708 0.09757 0.0
C506 C 0.37409 0.13035 0.04519 0.0
C507 C 0.35107 0.15731 0.05597 0.0
N508 N 0.37713 0.14476 0.08035 0.0
C509 C 0.38374 0.13124 0.06529 0.0
C510 C 0.3611 0.15778 0.07589 0.0
C511 C 0.35763 0.14348 0.04055 0.0
C512 C 0.44007 0.16829 0.16229 0.0
N513 N 0.44646 0.15214 0.15001 0.0
C514 C 0.45319 0.18642 0.1658 0.0
C515 C 0.47296 0.18796 0.15661 0.0
C516 C 0.47947 0.17131 0.14431 0.0
C517 C 0.466 0.15337 0.14128 0.0
C518 C 0.47609 0.09882 0.17676 0.0
C519 C 0.45247 0.09195 0.13972 0.0
C520 C 0.4602 0.11223 0.17082 0.0
N521 N 0.44874 0.1088 0.15241 0.0
C522 C 0.46822 0.07819 0.14518 0.0
C523 C 0.48012 0.08171 0.16381 0.0
C524 C 0.39648 0.0992 0.12097 0.0
C525 C 0.34063 0.15681 0.14733 0.0
C526 C 0.3492 0.12821 0.11585 0.0
C527 C 0.32973 0.12655 0.12573 0.0
C528 C 0.32546 0.14096 0.14158 0.0
N529 N 0.364 0.1438 0.1216 0.0
C530 C 0.35992 0.158 0.13709 0.0
Co531 Co 0.40274 0.87418 0.64009 0.0
Co532 Co 0.39208 0.92515 0.65297 0.0
O533 O 0.40764 0.90452 0.63786 0.0
C534 C 0.44835 0.88266 0.6507 0.0
O535 O 0.44161 0.89633 0.66429 0.0
C536 C 0.38824 0.93908 0.60834 0.0
O537 O 0.3788 0.92084 0.60299 0.0
O538 O 0.36472 0.91164 0.64272 0.0
O539 O 0.37072 0.87701 0.64064 0.0
H540 H 0.33495 0.9503 0.69919 0.0
H541 H 0.42893 0.89206 0.60577 0.0
O542 O 0.43476 0.87136 0.63961 0.0
H543 H 0.3698 0.85129 0.56991 0.0
H544 H 0.4172 0.79882 0.62291 0.0
H545 H 0.37445 0.84572 0.66484 0.0
H546 H 0.37266 0.85287 0.6088 0.0
H547 H 0.42224 0.83754 0.62016 0.0
O548 O 0.3936 0.94335 0.62748 0.0
H549 H 0.35526 0.92369 0.68113 0.0
H550 H 0.39525 0.97209 0.65527 0.0
H551 H 0.36875 0.80711 0.66795 0.0
H552 H 0.42677 0.89078 0.56684 0.0
H553 H 0.39023 0.78339 0.64688 0.0
H554 H 0.39701 0.87031 0.54866 0.0
O555 O 0.40422 0.87596 0.67148 0.0
H556 H 0.46686 0.9545 0.64598 0.0
H557 H 0.40895 0.94001 0.6952 0.0
H558 H 0.44289 0.95639 0.70867 0.0
H559 H 0.47211 0.96382 0.68396 0.0
H560 H 0.43275 0.93794 0.63322 0.0
H561 H 0.37521 0.99929 0.67287 0.0
H562 H 0.34489 0.98841 0.69508 0.0
O563 O 0.39065 0.90722 0.67875 0.0
C564 C 0.35817 0.89234 0.64072 0.0
C565 C 0.34819 0.95523 0.68962 0.0
C566 C 0.37078 0.98272 0.67482 0.0
N567 N 0.37654 0.94633 0.66732 0.0
C568 C 0.35981 0.94023 0.67943 0.0
C569 C 0.38203 0.96727 0.66487 0.0
C570 C 0.35376 0.97661 0.68729 0.0
C571 C 0.41604 0.88297 0.59797 0.0
N572 N 0.40102 0.87244 0.60953 0.0
C573 C 0.41485 0.88237 0.57592 0.0
C574 C 0.39813 0.87091 0.56574 0.0
C575 C 0.38285 0.86024 0.57765 0.0
C576 C 0.38454 0.86122 0.59966 0.0
C577 C 0.40772 0.80899 0.63214 0.0
C578 C 0.38375 0.83548 0.65552 0.0
C579 C 0.41054 0.83091 0.63068 0.0
N580 N 0.39853 0.84383 0.64221 0.0
C581 C 0.3805 0.81364 0.6574 0.0
C582 C 0.39258 0.80034 0.64559 0.0
C583 C 0.39707 0.8893 0.68429 0.0
C584 C 0.45421 0.95145 0.65688 0.0
C585 C 0.42161 0.94313 0.68436 0.0
C586 C 0.44078 0.95245 0.69207 0.0
C587 C 0.45716 0.95663 0.6782 0.0
N588 N 0.41879 0.9382 0.6634 0.0
C589 C 0.43482 0.94217 0.64972 0.0
Co590 Co 0.58539 0.89567 0.1397 0.0
Co591 Co 0.622 0.87698 0.10695 0.0
O592 O 0.60681 0.87565 0.13342 0.0
C593 C 0.6109 0.89424 0.17961 0.0
O594 O 0.62813 0.89494 0.1685 0.0
C595 C 0.6066 0.83188 0.11019 0.0
O596 O 0.58807 0.83938 0.11368 0.0
O597 O 0.59478 0.87494 0.09052 0.0
O598 O 0.57704 0.89804 0.10914 0.0
H599 H 0.63669 0.90256 0.03369 0.0
H600 H 0.58484 0.85509 0.16253 0.0
O601 O 0.59276 0.89412 0.17046 0.0
H602 H 0.51617 0.85526 0.12393 0.0
H603 H 0.5269 0.92453 0.18195 0.0
H604 H 0.57258 0.93589 0.1208 0.0
H605 H 0.5415 0.88597 0.12255 0.0
H606 H 0.55312 0.89868 0.17295 0.0
O607 O 0.6224 0.84476 0.1068 0.0
H608 H 0.61818 0.90143 0.06748 0.0
H609 H 0.65765 0.85382 0.08984 0.0
H610 H 0.54661 0.96213 0.12926 0.0
H611 H 0.55967 0.82424 0.16488 0.0
H612 H 0.52375 0.95666 0.16018 0.0
H613 H 0.52522 0.82404 0.14521 0.0
O614 O 0.60667 0.91934 0.13668 0.0
H615 H 0.67312 0.85532 0.16377 0.0
H616 H 0.66112 0.9052 0.10589 0.0
H617 H 0.69465 0.90816 0.12671 0.0
H618 H 0.70083 0.88306 0.15586 0.0
H619 H 0.63972 0.85308 0.1427 0.0
H620 H 0.6765 0.8543 0.05624 0.0
H621 H 0.66607 0.87886 0.02791 0.0
O622 O 0.62172 0.90945 0.10671 0.0
C623 C 0.57953 0.887 0.09261 0.0
C624 C 0.64143 0.89184 0.04594 0.0
C625 C 0.66375 0.86473 0.05858 0.0
N626 N 0.63695 0.8777 0.08065 0.0
C627 C 0.63104 0.89118 0.06512 0.0
C628 C 0.653 0.8645 0.07756 0.0
C629 C 0.6579 0.87852 0.0427 0.0
C630 C 0.56967 0.85531 0.15432 0.0
N631 N 0.56468 0.87228 0.14239 0.0
C632 C 0.55554 0.83774 0.15559 0.0
C633 C 0.53622 0.83764 0.14453 0.0
C634 C 0.53114 0.85512 0.13258 0.0
C635 C 0.5456 0.87244 0.13178 0.0
C636 C 0.53687 0.92714 0.1685 0.0
C637 C 0.56257 0.9333 0.13419 0.0
C638 C 0.55176 0.91257 0.16334 0.0
N639 N 0.56437 0.91576 0.14635 0.0
C640 C 0.5479 0.94822 0.13891 0.0
C641 C 0.53503 0.94512 0.15623 0.0
C642 C 0.61735 0.92363 0.12036 0.0
C643 C 0.67063 0.86631 0.15108 0.0
C644 C 0.66366 0.89429 0.11862 0.0
C645 C 0.6827 0.896 0.13031 0.0
C646 C 0.68616 0.8819 0.14665 0.0
N647 N 0.64852 0.87894 0.12306 0.0
C648 C 0.6518 0.86506 0.13903 0.0
Co649 Co 0.63779 0.13376 0.63504 0.0
Co650 Co 0.64752 0.08218 0.64675 0.0
O651 O 0.63241 0.10347 0.63147 0.0
C652 C 0.59197 0.12568 0.64285 0.0
O653 O 0.59804 0.11042 0.65508 0.0
C654 C 0.65238 0.06953 0.60179 0.0
O655 O 0.66215 0.08777 0.59787 0.0
O656 O 0.67521 0.0957 0.63917 0.0
O657 O 0.66977 0.1304 0.63663 0.0
H658 H 0.70312 0.05512 0.69626 0.0
H659 H 0.61093 0.11696 0.59907 0.0
O660 O 0.60586 0.13735 0.63349 0.0
H661 H 0.67008 0.15768 0.56696 0.0
H662 H 0.62466 0.20983 0.62015 0.0
H663 H 0.66677 0.16112 0.66212 0.0
H664 H 0.66774 0.15533 0.60568 0.0
H665 H 0.61887 0.17126 0.61565 0.0
O666 O 0.64651 0.06484 0.62032 0.0
H667 H 0.68337 0.08244 0.67801 0.0
H668 H 0.6444 0.03513 0.6462 0.0
H669 H 0.67322 0.19957 0.66701 0.0
H670 H 0.61256 0.11901 0.56027 0.0
H671 H 0.65207 0.2242 0.64593 0.0
H672 H 0.64231 0.13947 0.54398 0.0
O673 O 0.63648 0.13133 0.66626 0.0
H674 H 0.57315 0.05272 0.6327 0.0
H675 H 0.6297 0.06601 0.68694 0.0
H676 H 0.59566 0.04878 0.69699 0.0
H677 H 0.56715 0.04192 0.66974 0.0
H678 H 0.60733 0.07012 0.62338 0.0
H679 H 0.66399 1.00728 0.66387 0.0
H680 H 0.69347 0.01722 0.68918 0.0
O681 O 0.64842 0.09928 0.67345 0.0
C682 C 0.68206 0.11485 0.63735 0.0
C683 C 0.69022 0.05059 0.68534 0.0
C684 C 0.66825 0.02374 0.66714 0.0
N685 N 0.66261 0.0604 0.66121 0.0
C686 C 0.67891 0.06599 0.67503 0.0
C687 C 0.65727 0.03958 0.65714 0.0
C688 C 0.68482 0.02933 0.68134 0.0
C689 C 0.62384 0.12603 0.59209 0.0
N690 N 0.63915 0.13612 0.60461 0.0
C691 C 0.62471 0.12707 0.57012 0.0
C692 C 0.64143 0.13853 0.56098 0.0
C693 C 0.65702 0.14874 0.57387 0.0
C694 C 0.65564 0.14732 0.59578 0.0
C695 C 0.634 0.19926 0.6294 0.0
C696 C 0.65761 0.17176 0.6528 0.0
C697 C 0.63076 0.17742 0.62695 0.0
N698 N 0.6426 0.164 0.6385 0.0
C699 C 0.66128 0.1935 0.65568 0.0
C700 C 0.64939 0.20731 0.64386 0.0
C701 C 0.64262 0.11739 0.67913 0.0
C702 C 0.58549 0.05553 0.6447 0.0
C703 C 0.61732 0.06321 0.67501 0.0
C704 C 0.5981 0.05338 0.68079 0.0
C705 C 0.58212 0.04952 0.66549 0.0
N706 N 0.62057 0.06892 0.65455 0.0
C707 C 0.60492 0.06529 0.63949 0.0
Co708 Co 0.44048 0.85708 0.87307 0.0
Co709 Co 0.38982 0.87027 0.8851 0.0
O710 O 0.42057 0.87335 0.88868 0.0
C711 C 0.45354 0.85297 0.91841 0.0
O712 O 0.43372 0.85284 0.92394 0.0
C713 C 0.40047 0.91553 0.87601 0.0
O714 O 0.41475 0.90818 0.86366 0.0
O715 O 0.39157 0.87154 0.85378 0.0
O716 O 0.42313 0.8589 0.84654 0.0
H717 H 0.32114 0.83951 0.85391 0.0
H718 H 0.4563 0.89474 0.89792 0.0
O719 O 0.45854 0.85461 0.89914 0.0
H720 H 0.47521 0.91001 0.82442 0.0
H721 H 0.51334 0.83692 0.85352 0.0
H722 H 0.4367 0.82237 0.84125 0.0
H723 H 0.45695 0.87611 0.83341 0.0
H724 H 0.48756 0.85724 0.87253 0.0
O725 O 0.38845 0.90246 0.88609 0.0
H726 H 0.35999 0.84323 0.85862 0.0
H727 H 0.35418 0.89188 0.90419 0.0
H728 H 0.46196 0.80176 0.82176 0.0
H729 H 0.47473 0.92874 0.88964 0.0
H730 H 0.50061 0.809 0.82785 0.0
H731 H 0.48416 0.93662 0.85264 0.0
O732 O 0.42495 0.83022 0.87998 0.0
H733 H 0.40628 0.89546 0.9594 0.0
H734 H 0.3673 0.8415 0.91503 0.0
H735 H 0.36509 0.83966 0.95379 0.0
H736 H 0.38462 0.86683 0.97625 0.0
H737 H 0.40825 0.89654 0.92059 0.0
H738 H 0.31528 0.88883 0.89985 0.0
H739 H 0.29852 0.86243 0.87462 0.0
O740 O 0.39096 0.83805 0.88399 0.0
C741 C 0.40517 0.86543 0.8409 0.0
C742 C 0.32825 0.85102 0.865 0.0
C743 C 0.32496 0.87873 0.89077 0.0
N744 N 0.35929 0.86763 0.88178 0.0
C745 C 0.35022 0.85315 0.86778 0.0
C746 C 0.34698 0.88041 0.89312 0.0
C747 C 0.31557 0.8639 0.87661 0.0
C748 C 0.46059 0.89793 0.88182 0.0
N749 N 0.45564 0.8834 0.86619 0.0
C750 C 0.47093 0.91726 0.87721 0.0
C751 C 0.4762 0.92168 0.85644 0.0
C752 C 0.47116 0.90676 0.8406 0.0
C753 C 0.46079 0.88761 0.84578 0.0
C754 C 0.49656 0.83363 0.8507 0.0
C755 C 0.45349 0.82569 0.84388 0.0
C756 C 0.48187 0.84505 0.86145 0.0
N757 N 0.46063 0.84108 0.85789 0.0
C758 C 0.46772 0.81393 0.83285 0.0
C759 C 0.48939 0.81798 0.83629 0.0
C760 C 0.40553 0.8247 0.88257 0.0
C761 C 0.39764 0.88357 0.94979 0.0
C762 C 0.37596 0.85328 0.9247 0.0
C763 C 0.37458 0.85221 0.94664 0.0
C764 C 0.38552 0.86748 0.95923 0.0
N765 N 0.38786 0.86913 0.91557 0.0
C766 C 0.39862 0.88416 0.9278 0.0
Co767 Co 0.6286 0.89689 0.41132 0.0
Co768 Co 0.61073 0.93293 0.37627 0.0
O769 O 0.63046 0.9116 0.38439 0.0
C770 C 0.67352 0.91278 0.40871 0.0
O771 O 0.66577 0.93082 0.4034 0.0
C772 C 0.61305 0.906 0.3381 0.0
O773 O 0.61185 0.88942 0.35036 0.0
O774 O 0.58668 0.91208 0.37943 0.0
O775 O 0.59613 0.89667 0.40989 0.0
H776 H 0.54536 0.97399 0.383 0.0
H777 H 0.65402 0.87911 0.37749 0.0
O778 O 0.66088 0.8971 0.41313 0.0
H779 H 0.59902 0.82378 0.39251 0.0
H780 H 0.65069 0.84371 0.465 0.0
H781 H 0.60278 0.9008 0.44938 0.0
H782 H 0.60084 0.8575 0.41228 0.0
H783 H 0.6519 0.86205 0.43081 0.0
O784 O 0.61283 0.9245 0.34597 0.0
H785 H 0.57021 0.94681 0.39285 0.0
H786 H 0.60889 0.96413 0.34138 0.0
H787 H 0.60091 0.88279 0.4837 0.0
H788 H 0.65293 0.84553 0.3575 0.0
H789 H 0.62501 0.85403 0.49169 0.0
H790 H 0.62523 0.81761 0.36493 0.0
O791 O 0.62967 0.92421 0.42693 0.0
H792 H 0.68298 0.95709 0.35241 0.0
H793 H 0.62098 0.97689 0.39218 0.0
H794 H 0.65227 1.00158 0.39101 0.0
H795 H 0.68374 0.99151 0.37134 0.0
H796 H 0.65157 0.93262 0.35445 0.0
H797 H 0.58443 0.99148 0.33097 0.0
H798 H 0.55246 0.99663 0.35191 0.0
O799 O 0.60782 0.94214 0.40628 0.0
C800 C 0.58218 0.90117 0.39567 0.0
C801 C 0.55926 0.97193 0.37377 0.0
C802 C 0.58117 0.98172 0.34455 0.0
N803 N 0.59106 0.95396 0.36779 0.0
C804 C 0.5734 0.95657 0.37928 0.0
C805 C 0.59494 0.96618 0.3505 0.0
C806 C 0.56324 0.9846 0.35631 0.0
C807 C 0.64206 0.86695 0.38096 0.0
N808 N 0.62756 0.87022 0.39607 0.0
C809 C 0.64146 0.848 0.36953 0.0
C810 C 0.62589 0.83236 0.37367 0.0
C811 C 0.61117 0.83582 0.38913 0.0
C812 C 0.61224 0.85497 0.40023 0.0
C813 C 0.64009 0.85619 0.46169 0.0
C814 C 0.61321 0.8882 0.45269 0.0
C815 C 0.64073 0.86665 0.44238 0.0
N816 N 0.62731 0.88235 0.43807 0.0
C817 C 0.61213 0.8781 0.47218 0.0
C818 C 0.62567 0.86198 0.47666 0.0
C819 C 0.61791 0.93958 0.42367 0.0
C820 C 0.66941 0.96157 0.36113 0.0
C821 C 0.63456 0.97242 0.38352 0.0
C822 C 0.65221 0.98651 0.38286 0.0
C823 C 0.66981 0.98091 0.37174 0.0
N824 N 0.63449 0.95324 0.3735 0.0
C825 C 0.65151 0.94785 0.36219 0.0
Co826 Co 0.59558 0.15169 0.86491 0.0
Co827 Co 0.64588 0.13875 0.88077 0.0
O828 O 0.61512 0.13557 0.88192 0.0
C829 C 0.58254 0.15778 0.90914 0.0
O830 O 0.6025 0.15919 0.91531 0.0
C831 C 0.63761 0.09274 0.87078 0.0
O832 O 0.62496 0.09865 0.85543 0.0
O833 O 0.64474 0.13654 0.84933 0.0
O834 O 0.61343 0.1493 0.83964 0.0
H835 H 0.71516 0.16857 0.85423 0.0
H836 H 0.57927 0.11448 0.88868 0.0
O837 O 0.57724 0.15467 0.88979 0.0
H838 H 0.56065 0.09848 0.81399 0.0
H839 H 0.52316 0.1721 0.8405 0.0
H840 H 0.60003 0.18587 0.83335 0.0
H841 H 0.5796 0.13213 0.82416 0.0
H842 H 0.54854 0.1518 0.86117 0.0
O843 O 0.6473 0.10673 0.8827 0.0
H844 H 0.67624 0.16486 0.85598 0.0
H845 H 0.68113 0.11805 0.90315 0.0
H846 H 0.5752 0.20642 0.81223 0.0
H847 H 0.56014 0.08072 0.87922 0.0
H848 H 0.53646 0.19958 0.81575 0.0
H849 H 0.55071 0.07255 0.84164 0.0
O850 O 0.61101 0.17868 0.87283 0.0
H851 H 0.62737 0.11626 0.95415 0.0
H852 H 0.66776 0.16851 0.9119 0.0
H853 H 0.66888 0.17176 0.95074 0.0
H854 H 0.64862 0.14548 0.97213 0.0
H855 H 0.6265 0.11376 0.91527 0.0
H856 H 0.72009 0.12111 0.9018 0.0
H857 H 0.73734 0.14659 0.87726 0.0
O858 O 0.64486 0.17082 0.87898 0.0
C859 C 0.63143 0.14246 0.83541 0.0
C860 C 0.70783 0.15746 0.86504 0.0
C861 C 0.71059 0.1308 0.89171 0.0
N862 N 0.67646 0.14138 0.87976 0.0
C863 C 0.68581 0.15534 0.86614 0.0
C864 C 0.68853 0.1291 0.89237 0.0
C865 C 0.72026 0.14511 0.87795 0.0
C866 C 0.57511 0.11109 0.87231 0.0
N867 N 0.58043 0.12532 0.85701 0.0
C868 C 0.56435 0.09191 0.86704 0.0
C869 C 0.55909 0.08732 0.84594 0.0
C870 C 0.56466 0.10187 0.83043 0.0
C871 C 0.57543 0.12088 0.83627 0.0
C872 C 0.54 0.17519 0.83879 0.0
C873 C 0.5832 0.1827 0.83483 0.0
C874 C 0.55446 0.16378 0.85048 0.0
N875 N 0.57576 0.16753 0.84832 0.0
C876 C 0.56921 0.19443 0.8229 0.0
C877 C 0.54748 0.19061 0.8249 0.0
C878 C 0.6304 0.18418 0.8766 0.0
C879 C 0.63632 0.12778 0.945 0.0
C880 C 0.65881 0.15709 0.92109 0.0
C881 C 0.65956 0.15896 0.94308 0.0
C882 C 0.64821 0.14419 0.95508 0.0
N883 N 0.64712 0.14093 0.91133 0.0
C884 C 0.63597 0.12638 0.92299 0.0
Co885 Co 0.37468 0.12868 0.41471 0.0
Co886 Co 0.39238 0.09553 0.37691 0.0
O887 O 0.37283 0.11644 0.38615 0.0
C888 C 0.32954 0.11404 0.4082 0.0
O889 O 0.33698 0.09665 0.40076 0.0
C890 C 0.38294 0.12214 0.33859 0.0
O891 O 0.37056 0.13399 0.34928 0.0
O892 O 0.41651 0.11564 0.38378 0.0
O893 O 0.40713 0.12808 0.41531 0.0
H894 H 0.45694 0.05294 0.38437 0.0
H895 H 0.34952 0.15071 0.38239 0.0
O896 O 0.34243 0.12904 0.41482 0.0
H897 H 0.40654 0.20228 0.40557 0.0
H898 H 0.3534 0.17736 0.47261 0.0
H899 H 0.39979 0.12043 0.45367 0.0
H900 H 0.40378 0.1668 0.42119 0.0
H901 H 0.35214 0.1623 0.43654 0.0
O902 O 0.39194 0.10675 0.34725 0.0
H903 H 0.43207 0.07943 0.39514 0.0
H904 H 0.39509 0.06777 0.33894 0.0
H905 H 0.4017 0.13512 0.48989 0.0
H906 H 0.35155 0.18611 0.36649 0.0
H907 H 0.37837 0.16379 0.49955 0.0
H908 H 0.38027 0.21215 0.37804 0.0
O909 O 0.37258 0.10018 0.42711 0.0
H910 H 0.31988 0.07366 0.34693 0.0
H911 H 0.3823 0.05036 0.38673 0.0
H912 H 0.35144 0.02565 0.38098 0.0
H913 H 0.3198 0.0373 0.36107 0.0
H914 H 0.35077 0.09805 0.3536 0.0
H915 H 0.41962 0.04119 0.32753 0.0
H916 H 0.45071 0.03351 0.3504 0.0
O917 O 0.39428 0.08346 0.40605 0.0
C918 C 0.42111 0.12467 0.40145 0.0
C919 C 0.44341 0.05609 0.3743 0.0
C920 C 0.42248 0.04952 0.34238 0.0
N921 N 0.41206 0.07505 0.36776 0.0
C922 C 0.42926 0.07107 0.38033 0.0
C923 C 0.40868 0.06464 0.3489 0.0
C924 C 0.43992 0.04522 0.35523 0.0
C925 C 0.36201 0.16199 0.38755 0.0
N926 N 0.37658 0.15665 0.40259 0.0
C927 C 0.3631 0.182 0.37846 0.0
C928 C 0.37923 0.19659 0.38493 0.0
C929 C 0.394 0.19105 0.40036 0.0
C930 C 0.39241 0.17089 0.40907 0.0
C931 C 0.36368 0.1649 0.46858 0.0
C932 C 0.38971 0.13301 0.45773 0.0
C933 C 0.36301 0.1563 0.4482 0.0
N934 N 0.37601 0.14064 0.44298 0.0
C935 C 0.3908 0.14122 0.47827 0.0
C936 C 0.3777 0.15729 0.48369 0.0
C937 C 0.38387 0.08483 0.4229 0.0
C938 C 0.33359 0.06839 0.35555 0.0
C939 C 0.36869 0.0556 0.37797 0.0
C940 C 0.35125 0.04146 0.37471 0.0
C941 C 0.33355 0.04798 0.36351 0.0
N942 N 0.36854 0.07573 0.37038 0.0
C943 C 0.3513 0.08211 0.35919 0.0
Co944 Co 0.1381 0.43065 0.09045 0.0
Co945 Co 0.10401 0.39348 0.11087 0.0
O946 O 0.13083 0.41019 0.11226 0.0
C947 C 0.1769 0.40705 0.09696 0.0
O948 O 0.16496 0.38952 0.09678 0.0
C949 C 0.10743 0.41075 0.15491 0.0
O950 O 0.11167 0.4291 0.14615 0.0
O951 O 0.08837 0.41975 0.10969 0.0
O952 O 0.10768 0.4373 0.08578 0.0
H953 H 0.03034 0.37402 0.08338 0.0
H954 H 0.16002 0.43492 0.13241 0.0
O955 O 0.16864 0.42477 0.09457 0.0
H956 H 0.12586 0.50227 0.12135 0.0
H957 H 0.18386 0.48775 0.05723 0.0
H958 H 0.11974 0.44074 0.04833 0.0
H959 H 0.1226 0.47414 0.09425 0.0
H960 H 0.17324 0.4632 0.0854 0.0
O961 O 0.10346 0.39445 0.14309 0.0
H962 H 0.06477 0.39415 0.08432 0.0
H963 H 0.08567 0.35811 0.13632 0.0
H964 H 0.12941 0.46558 0.02003 0.0
H965 H 0.16395 0.4628 0.15984 0.0
H966 H 0.16171 0.48934 0.02438 0.0
H967 H 0.14676 0.49675 0.1544 0.0
O968 O 0.13487 0.40802 0.06877 0.0
H969 H 0.15915 0.34656 0.13987 0.0
H970 H 0.10231 0.35331 0.08597 0.0
H971 H 0.12226 0.32092 0.08698 0.0
H972 H 0.15087 0.31738 0.11412 0.0
H973 H 0.13898 0.37878 0.13811 0.0
H974 H 0.05141 0.33769 0.13607 0.0
H975 H 0.02349 0.34557 0.10942 0.0
O976 O 0.10409 0.39232 0.07839 0.0
C977 C 0.09099 0.43464 0.09653 0.0
C978 C 0.04241 0.37038 0.09502 0.0
C979 C 0.05422 0.35001 0.12461 0.0
N980 N 0.07725 0.37717 0.11023 0.0
C981 C 0.06195 0.38168 0.09558 0.0
C982 C 0.07357 0.36164 0.1247 0.0
C983 C 0.03857 0.35444 0.10965 0.0
C984 C 0.15265 0.44972 0.12987 0.0
N985 N 0.14109 0.45287 0.11176 0.0
C986 C 0.15486 0.46542 0.14548 0.0
C987 C 0.14517 0.48444 0.14244 0.0
C988 C 0.13343 0.48755 0.12391 0.0
C989 C 0.13156 0.47151 0.10866 0.0
C990 C 0.16965 0.47766 0.05522 0.0
C991 C 0.13368 0.45117 0.05045 0.0
C992 C 0.16364 0.46359 0.07106 0.0
N993 N 0.14584 0.45059 0.06856 0.0
C994 C 0.13912 0.46516 0.03433 0.0
C995 C 0.15725 0.47848 0.03677 0.0
C996 C 0.11816 0.39659 0.06453 0.0
C997 C 0.14668 0.34789 0.12801 0.0
C998 C 0.11483 0.35194 0.09774 0.0
C999 C 0.12601 0.33353 0.09829 0.0
C1000 C 0.14205 0.33154 0.11353 0.0
N1001 N 0.11946 0.36789 0.112 0.0
C1002 C 0.13514 0.36605 0.127 0.0
Co1003 Co 0.1455 0.58256 0.86213 0.0
Co1004 Co 0.13522 0.63385 0.87425 0.0
O1005 O 0.13134 0.60359 0.87812 0.0
C1006 C 0.10024 0.56771 0.85675 0.0
O1007 O 0.09577 0.58553 0.84766 0.0
C1008 C 0.14618 0.62669 0.91942 0.0
O1009 O 0.15907 0.61309 0.91192 0.0
O1010 O 0.16668 0.63245 0.87529 0.0
O1011 O 0.17223 0.60051 0.86154 0.0
H1012 H 0.166 0.70026 0.84199 0.0
H1013 H 0.12445 0.57066 0.90196 0.0
O1014 O 0.11909 0.56414 0.86266 0.0
H1015 H 0.19918 0.55419 0.91312 0.0
H1016 H 0.16267 0.50805 0.84385 0.0
H1017 H 0.17413 0.58318 0.82581 0.0
H1018 H 0.18687 0.56873 0.87925 0.0
H1019 H 0.14554 0.53557 0.86401 0.0
O1020 O 0.13536 0.6375 0.90642 0.0
H1021 H 0.16093 0.66173 0.84647 0.0
H1022 H 0.11765 0.67093 0.89534 0.0
H1023 H 0.19173 0.55624 0.8054 0.0
H1024 H 0.13606 0.55596 0.93599 0.0
H1025 H 0.18617 0.51845 0.81444 0.0
H1026 H 0.17368 0.54768 0.94177 0.0
O1027 O 0.13627 0.59524 0.83506 0.0
H1028 H 0.06139 0.61746 0.8988 0.0
H1029 H 0.10458 0.65422 0.84542 0.0
H1030 H 0.06571 0.65555 0.84322 0.0
H1031 H 0.04384 0.63712 0.87009 0.0
H1032 H 0.1003 0.6164 0.90029 0.0
H1033 H 0.12236 0.70957 0.89154 0.0
H1034 H 0.14663 0.72445 0.86464 0.0
O1035 O 0.13501 0.63005 0.84209 0.0
C1036 C 0.17878 0.61876 0.86812 0.0
C1037 C 0.15534 0.69397 0.85372 0.0
C1038 C 0.13087 0.69919 0.88155 0.0
N1039 N 0.13889 0.66414 0.87102 0.0
C1040 C 0.15236 0.67218 0.85627 0.0
C1041 C 0.1283 0.67732 0.88367 0.0
C1042 C 0.14448 0.70753 0.86645 0.0
C1043 C 0.14079 0.56686 0.90424 0.0
N1044 N 0.15492 0.57042 0.88856 0.0
C1045 C 0.1473 0.55864 0.92359 0.0
C1046 C 0.16842 0.55403 0.92684 0.0
C1047 C 0.18274 0.5577 0.91078 0.0
C1048 C 0.17568 0.56597 0.89164 0.0
C1049 C 0.1653 0.52451 0.83981 0.0
C1050 C 0.17168 0.56675 0.82991 0.0
C1051 C 0.1556 0.54016 0.85113 0.0
N1052 N 0.15898 0.56099 0.8462 0.0
C1053 C 0.18164 0.55156 0.81825 0.0
C1054 C 0.17845 0.53032 0.8233 0.0
C1055 C 0.13456 0.61428 0.8291 0.0
C1056 C 0.07075 0.62561 0.88704 0.0
C1057 C 0.09517 0.64611 0.85712 0.0
C1058 C 0.07317 0.64696 0.85583 0.0
C1059 C 0.06091 0.63662 0.87091 0.0
N1060 N 0.1047 0.63534 0.87303 0.0
C1061 C 0.09279 0.62512 0.88785 0.0
Co1062 Co 0.93324 0.65115 0.38433 0.0
Co1063 Co 0.88116 0.63819 0.39399 0.0
O1064 O 0.91127 0.63582 0.39952 0.0
C1065 C 0.94715 0.60708 0.37972 0.0
O1066 O 0.92938 0.60138 0.36959 0.0
C1067 C 0.88648 0.64907 0.43996 0.0
O1068 O 0.89973 0.66438 0.43409 0.0
O1069 O 0.88407 0.66967 0.39522 0.0
O1070 O 0.9164 0.67679 0.38257 0.0
H1071 H 0.81651 0.66646 0.3589 0.0
H1072 H 0.94311 0.63091 0.42522 0.0
O1073 O 0.95079 0.62599 0.38621 0.0
H1074 H 0.964 0.70631 0.43562 0.0
H1075 H 1.00891 0.67306 0.36904 0.0
H1076 H 0.93411 0.67943 0.34734 0.0
H1077 H 0.94942 0.69318 0.40124 0.0
H1078 H 0.98043 0.65429 0.3884 0.0
O1079 O 0.87701 0.63706 0.4259 0.0
H1080 H 0.85485 0.66332 0.36523 0.0
H1081 H 0.84275 0.61788 0.41283 0.0
H1082 H 0.96205 0.69865 0.32773 0.0
H1083 H 0.95779 0.64334 0.45982 0.0
H1084 H 0.99967 0.69567 0.33864 0.0
H1085 H 0.9683 0.68131 0.46521 0.0
O1086 O 0.92046 0.64097 0.35682 0.0
H1087 H 0.89355 0.5646 0.41858 0.0
H1088 H 0.85979 0.60728 0.36374 0.0
H1089 H 0.8566 0.56843 0.36106 0.0
H1090 H 0.87351 0.54682 0.38864 0.0
H1091 H 0.89649 0.60349 0.42056 0.0
H1092 H 0.80426 0.62062 0.40715 0.0
H1093 H 0.79093 0.645 0.37995 0.0
O1094 O 0.88535 0.63916 0.36209 0.0
C1095 C 0.89846 0.68253 0.38847 0.0
C1096 C 0.82212 0.65573 0.37074 0.0
C1097 C 0.81524 0.63003 0.39785 0.0
N1098 N 0.85098 0.6403 0.38925 0.0
C1099 C 0.8438 0.65384 0.37435 0.0
C1100 C 0.83704 0.62857 0.40103 0.0
C1101 C 0.80778 0.6437 0.38258 0.0
C1102 C 0.9478 0.64743 0.42738 0.0
N1103 N 0.94545 0.66129 0.41119 0.0
C1104 C 0.95603 0.65439 0.44704 0.0
C1105 C 0.9619 0.67569 0.45006 0.0
C1106 C 0.95948 0.68973 0.43347 0.0
C1107 C 0.95115 0.68221 0.41405 0.0
C1108 C 0.99253 0.67458 0.36421 0.0
C1109 C 0.95047 0.67809 0.35224 0.0
C1110 C 0.97634 0.66395 0.37507 0.0
N1111 N 0.95561 0.66594 0.36913 0.0
C1112 C 0.96622 0.68896 0.34103 0.0
C1113 C 0.98736 0.68722 0.34714 0.0
C1114 C 0.9013 0.63888 0.34991 0.0
C1115 C 0.88605 0.57384 0.4065 0.0
C1116 C 0.86724 0.59798 0.37578 0.0
C1117 C 0.86534 0.57599 0.37419 0.0
C1118 C 0.87483 0.56388 0.38968 0.0
N1119 N 0.8782 0.60764 0.39236 0.0
C1120 C 0.8876 0.59587 0.40757 0.0
Co1121 Co 0.88848 0.44917 0.89639 0.0
Co1122 Co 0.89736 0.39761 0.90819 0.0
O1123 O 0.90179 0.42774 0.91295 0.0
C1124 C 0.93434 0.46168 0.89504 0.0
O1125 O 0.93812 0.44349 0.88628 0.0
C1126 C 0.88669 0.40476 0.95301 0.0
O1127 O 0.87382 0.41849 0.94526 0.0
O1128 O 0.86606 0.39983 0.90756 0.0
O1129 O 0.86118 0.4319 0.89385 0.0
H1130 H 0.86494 0.33188 0.87324 0.0
H1131 H 0.9091 0.46005 0.938 0.0
O1132 O 0.91557 0.46657 0.89902 0.0
H1133 H 0.83544 0.48081 0.94351 0.0
H1134 H 0.87497 0.52435 0.87739 0.0
H1135 H 0.86014 0.44945 0.85831 0.0
H1136 H 0.84759 0.4649 0.91063 0.0
H1137 H 0.89044 0.49622 0.89861 0.0
O1138 O 0.89731 0.39392 0.94027 0.0
H1139 H 0.87086 0.37032 0.87869 0.0
H1140 H 0.91426 0.36007 0.92937 0.0
H1141 H 0.84415 0.47704 0.83687 0.0
H1142 H 0.89765 0.47599 0.97114 0.0
H1143 H 0.85154 0.5148 0.8464 0.0
H1144 H 0.86058 0.4865 0.97404 0.0
O1145 O 0.89766 0.43626 0.8698 0.0
H1146 H 0.97156 0.41241 0.93666 0.0
H1147 H 0.92742 0.37669 0.88044 0.0
H1148 H 0.96622 0.37459 0.88009 0.0
H1149 H 0.98855 0.3925 0.90837 0.0
H1150 H 0.93272 0.41423 0.93631 0.0
H1151 H 0.9087 0.32151 0.92461 0.0
H1152 H 0.88395 0.3072 0.89631 0.0
O1153 O 0.89748 0.40138 0.87611 0.0
C1154 C 0.85424 0.41373 0.89986 0.0
C1155 C 0.87582 0.33792 0.88558 0.0
C1156 C 0.90035 0.3321 0.91443 0.0
N1157 N 0.89302 0.36738 0.90421 0.0
C1158 C 0.87928 0.35966 0.88869 0.0
C1159 C 0.9034 0.35393 0.91709 0.0
C1160 C 0.88647 0.32408 0.89854 0.0
C1161 C 0.893 0.46475 0.93907 0.0
N1162 N 0.8791 0.46172 0.92232 0.0
C1163 C 0.88658 0.47368 0.95791 0.0
C1164 C 0.86576 0.47953 0.95955 0.0
C1165 C 0.85165 0.47632 0.94243 0.0
C1166 C 0.85861 0.46728 0.92386 0.0
C1167 C 0.87157 0.50794 0.87318 0.0
C1168 C 0.86327 0.46583 0.86269 0.0
C1169 C 0.88031 0.49195 0.88508 0.0
N1170 N 0.876 0.47119 0.87984 0.0
C1171 C 0.85424 0.48139 0.85043 0.0
C1172 C 0.85842 0.50258 0.85576 0.0
C1173 C 0.89855 0.41719 0.86349 0.0
C1174 C 0.96199 0.40447 0.92429 0.0
C1175 C 0.93704 0.38456 0.89277 0.0
C1176 C 0.959 0.38328 0.89251 0.0
C1177 C 0.97152 0.39333 0.9084 0.0
N1178 N 0.92782 0.39546 0.90846 0.0
C1179 C 0.93999 0.40538 0.92406 0.0
Co1180 Co 0.076 0.37046 0.37171 0.0
Co1181 Co 0.11568 0.40792 0.36072 0.0
O1182 O 0.10065 0.38044 0.35639 0.0
C1183 C 0.10609 0.33683 0.3792 0.0
O1184 O 0.12066 0.35147 0.38469 0.0
C1185 C 0.10095 0.40633 0.31576 0.0
O1186 O 0.08253 0.40045 0.3234 0.0
O1187 O 0.08888 0.4232 0.36093 0.0
O1188 O 0.06393 0.39863 0.36997 0.0
H1189 H 0.13131 0.4791 0.39459 0.0
H1190 H 0.0884 0.34698 0.33377 0.0
O1191 O 0.08759 0.34185 0.37357 0.0
H1192 H 0.01605 0.36862 0.31777 0.0
H1193 H 0.02022 0.31612 0.39342 0.0
H1194 H 0.0503 0.3886 0.4052 0.0
H1195 H 0.03346 0.3773 0.35229 0.0
H1196 H 0.04952 0.33014 0.37194 0.0
O1197 O 0.11657 0.41093 0.3286 0.0
H1198 H 0.11218 0.44446 0.38971 0.0
H1199 H 0.15185 0.42959 0.33928 0.0
H1200 H 0.02003 0.37569 0.42602 0.0
H1201 H 0.07144 0.33769 0.29921 0.0
H1202 H 1.00494 0.33907 0.42038 0.0
H1203 H 0.03504 0.34864 0.291 0.0
O1204 O 0.09029 0.3786 0.39905 0.0
H1205 H 0.16637 0.35643 0.33333 0.0
H1206 H 0.15414 0.40897 0.38886 0.0
H1207 H 0.18723 0.39005 0.3898 0.0
H1208 H 0.19352 0.36358 0.36186 0.0
H1209 H 0.13344 0.37559 0.33309 0.0
H1210 H 0.17132 0.46417 0.34347 0.0
H1211 H 0.16109 0.48916 0.37133 0.0
O1212 O 0.11453 0.40491 0.39281 0.0
C1213 C 0.07 0.41745 0.36549 0.0
C1214 C 0.13595 0.46833 0.38243 0.0
C1215 C 0.15838 0.45996 0.35371 0.0
N1216 N 0.13101 0.43499 0.36434 0.0
C1217 C 0.12523 0.44867 0.37964 0.0
C1218 C 0.14729 0.44044 0.35138 0.0
C1219 C 0.15265 0.47397 0.36936 0.0
C1220 C 0.07244 0.35154 0.33042 0.0
N1221 N 0.0619 0.36257 0.34506 0.0
C1222 C 0.06296 0.34633 0.31079 0.0
C1223 C 0.04255 0.3525 0.30618 0.0
C1224 C 0.03189 0.36373 0.3212 0.0
C1225 C 0.04184 0.36862 0.3407 0.0
C1226 C 0.02656 0.33214 0.39594 0.0
C1227 C 0.04348 0.37285 0.40225 0.0
C1228 C 0.04325 0.34012 0.3839 0.0
N1229 N 0.0516 0.3602 0.38724 0.0
C1230 C 0.02645 0.36556 0.41424 0.0
C1231 C 0.01802 0.34501 0.4111 0.0
C1232 C 0.10429 0.39258 0.40544 0.0
C1233 C 0.16384 0.36797 0.34555 0.0
C1234 C 0.15675 0.39745 0.37668 0.0
C1235 C 0.17553 0.38681 0.37727 0.0
C1236 C 0.17905 0.37197 0.36158 0.0
N1237 N 0.14193 0.39347 0.36087 0.0
C1238 C 0.14526 0.37893 0.34545 0.0
Co1239 Co 0.87376 0.59093 0.1557 0.0
Co1240 Co 0.88294 0.64347 0.1449 0.0
O1241 O 0.88766 0.61376 0.14031 0.0
C1242 C 0.91898 0.58026 0.16188 0.0
O1243 O 0.92335 0.59795 0.17235 0.0
C1244 C 0.8735 0.63545 0.09925 0.0
O1245 O 0.86071 0.62015 0.10596 0.0
O1246 O 0.85162 0.63807 0.14293 0.0
O1247 O 0.8467 0.6057 0.15652 0.0
H1248 H 0.84953 0.70544 0.17777 0.0
H1249 H 0.89498 0.58175 0.11569 0.0
O1250 O 0.90034 0.57546 0.15479 0.0
H1251 H 0.82059 0.55645 0.10403 0.0
H1252 H 0.85724 0.51437 0.17219 0.0
H1253 H 0.84554 0.58807 0.19226 0.0
H1254 H 0.83261 0.57232 0.1382 0.0
H1255 H 0.87403 0.54395 0.1526 0.0
O1256 O 0.8836 0.64749 0.11287 0.0
H1257 H 0.85573 0.66768 0.17253 0.0
H1258 H 0.9002 0.68298 0.12532 0.0
H1259 H 0.8283 0.55898 0.21213 0.0
H1260 H 0.88365 0.56579 0.08135 0.0
H1261 H 0.834 0.5219 0.20204 0.0
H1262 H 0.8462 0.55307 0.07533 0.0
O1263 O 0.88303 0.60448 0.18301 0.0
H1264 H 0.95774 0.63676 0.12206 0.0
H1265 H 0.91229 0.66733 0.1751 0.0
H1266 H 0.95103 0.67356 0.17842 0.0
H1267 H 0.97403 0.65826 0.15174 0.0
H1268 H 0.91894 0.6308 0.11944 0.0
H1269 H 0.89438 0.7209 0.1299 0.0
H1270 H 0.86894 0.73233 0.15635 0.0
O1271 O 0.88241 0.63941 0.17697 0.0
C1272 C 0.83969 0.62293 0.14971 0.0
C1273 C 0.86071 0.70066 0.16625 0.0
C1274 C 0.88585 0.70934 0.13936 0.0
N1275 N 0.87843 0.6732 0.14877 0.0
C1276 C 0.86432 0.67932 0.16326 0.0
C1277 C 0.88905 0.68786 0.1368 0.0
C1278 C 0.87159 0.71574 0.15421 0.0
C1279 C 0.8787 0.57604 0.11328 0.0
N1280 N 0.86451 0.57788 0.12898 0.0
C1281 C 0.87236 0.5671 0.09376 0.0
C1282 C 0.85134 0.56 0.09038 0.0
C1283 C 0.83695 0.56192 0.10647 0.0
C1284 C 0.84385 0.57097 0.12577 0.0
C1285 C 0.85456 0.5305 0.17667 0.0
C1286 C 0.84805 0.57194 0.18773 0.0
C1287 C 0.86405 0.54732 0.16567 0.0
N1288 N 0.86058 0.56772 0.17115 0.0
C1289 C 0.83829 0.55554 0.19907 0.0
C1290 C 0.84155 0.53471 0.19343 0.0
C1291 C 0.88398 0.62363 0.18949 0.0
C1292 C 0.94788 0.64357 0.13375 0.0
C1293 C 0.9222 0.66058 0.16346 0.0
C1294 C 0.94412 0.6642 0.1654 0.0
C1295 C 0.95701 0.65561 0.15042 0.0
N1296 N 0.91336 0.64883 0.14702 0.0
C1297 C 0.9259 0.64031 0.1323 0.0
Co1298 Co 0.93094 0.37052 0.643 0.0
Co1299 Co 0.89558 0.40627 0.65848 0.0
O1300 O 0.90871 0.37924 0.66129 0.0
C1301 C 0.90068 0.3334 0.64324 0.0
O1302 O 0.88545 0.34615 0.63905 0.0
C1303 C 0.90948 0.40402 0.70361 0.0
O1304 O 0.9278 0.39916 0.69627 0.0
O1305 O 0.92366 0.42192 0.65964 0.0
O1306 O 0.94278 0.40012 0.64066 0.0
H1307 H 0.88612 0.47852 0.62886 0.0
H1308 H 0.92527 0.34823 0.68365 0.0
O1309 O 0.91978 0.34061 0.64495 0.0
H1310 H 0.99697 0.38237 0.68843 0.0
H1311 H 0.98689 0.32227 0.62023 0.0
H1312 H 0.95024 0.38713 0.60381 0.0
H1313 H 0.97512 0.38486 0.6559 0.0
H1314 H 0.95885 0.33414 0.6431 0.0
O1315 O 0.89439 0.40809 0.69061 0.0
H1316 H 0.90251 0.44418 0.63194 0.0
H1317 H 0.86058 0.42605 0.68056 0.0
H1318 H 0.9785 0.37601 0.58072 0.0
H1319 H 0.94715 0.34427 0.71601 0.0
H1320 H 0.99696 0.34328 0.58889 0.0
H1321 H 0.98323 0.36159 0.71862 0.0
O1322 O 0.91253 0.37482 0.61762 0.0
H1323 H 0.84042 0.35254 0.68243 0.0
H1324 H 0.85745 0.40742 0.62997 0.0
H1325 H 0.82282 0.38773 0.62768 0.0
H1326 H 0.81411 0.36009 0.65407 0.0
H1327 H 0.87494 0.37248 0.68401 0.0
H1328 H 0.84384 0.46027 0.67814 0.0
H1329 H 0.85657 0.48674 0.65208 0.0
O1330 O 0.89687 0.4047 0.62623 0.0
C1331 C 0.93994 0.41791 0.6493 0.0
C1332 C 0.88039 0.46709 0.64022 0.0
C1333 C 0.85668 0.45686 0.66791 0.0
N1334 N 0.88238 0.43309 0.65629 0.0
C1335 C 0.88956 0.44759 0.64199 0.0
C1336 C 0.86624 0.43753 0.66924 0.0
C1337 C 0.86382 0.4717 0.65327 0.0
C1338 C 0.94116 0.35533 0.68443 0.0
N1339 N 0.94889 0.36672 0.66786 0.0
C1340 C 0.95341 0.35318 0.70288 0.0
C1341 C 0.97364 0.36292 0.70434 0.0
C1342 C 0.98141 0.37451 0.68737 0.0
C1343 C 0.96884 0.37605 0.66907 0.0
C1344 C 0.97899 0.33657 0.61656 0.0
C1345 C 0.95831 0.37297 0.60753 0.0
C1346 C 0.96303 0.34332 0.62939 0.0
N1347 N 0.95296 0.36136 0.62484 0.0
C1348 C 0.97427 0.36673 0.59438 0.0
C1349 C 0.98465 0.34839 0.59897 0.0
C1350 C 0.90219 0.3909 0.61261 0.0
C1351 C 0.84401 0.36459 0.67088 0.0
C1352 C 0.8538 0.39537 0.64147 0.0
C1353 C 0.83415 0.38431 0.64012 0.0
C1354 C 0.82926 0.36881 0.65495 0.0
N1355 N 0.86816 0.39116 0.65717 0.0
C1356 C 0.86349 0.37599 0.67176 0.0
Co1357 Co 0.0827 0.64063 0.63632 0.0
Co1358 Co 0.13348 0.62905 0.62452 0.0
O1359 O 0.1031 0.62618 0.61999 0.0
C1360 C 0.06778 0.59549 0.63878 0.0
O1361 O 0.08585 0.59085 0.64779 0.0
C1362 C 0.12603 0.6402 0.57947 0.0
O1363 O 0.11303 0.65367 0.58702 0.0
O1364 O 0.13289 0.66042 0.62471 0.0
O1365 O 0.10139 0.66702 0.63835 0.0
H1366 H 0.20147 0.65801 0.65877 0.0
H1367 H 0.07001 0.62037 0.59514 0.0
O1368 O 0.0639 0.61445 0.63422 0.0
H1369 H 0.05299 0.69498 0.58794 0.0
H1370 H 1.0085 0.65772 0.65436 0.0
H1371 H 0.08421 0.66917 0.67387 0.0
H1372 H 0.06892 0.68222 0.6211 0.0
H1373 H 0.03571 0.64097 0.63377 0.0
O1374 O 0.13654 0.62902 0.5924 0.0
H1375 H 0.16269 0.65402 0.65357 0.0
H1376 H 0.16966 0.61033 0.60344 0.0
H1377 H 0.05756 0.68639 0.69481 0.0
H1378 H 0.05397 0.63243 0.56177 0.0
H1379 H 0.01938 0.68069 0.68509 0.0
H1380 H 0.04532 0.66998 0.55802 0.0
O1381 O 0.0957 0.63099 0.66322 0.0
H1382 H 0.11439 0.55581 0.59706 0.0
H1383 H 0.15345 0.59785 0.6526 0.0
H1384 H 0.15366 0.55899 0.65342 0.0
H1385 H 0.13406 0.5377 0.62547 0.0
H1386 H 0.11448 0.59469 0.59694 0.0
H1387 H 0.20853 0.61396 0.60796 0.0
H1388 H 0.22466 0.63788 0.63586 0.0
O1389 O 0.13035 0.62903 0.6566 0.0
C1390 C 0.1198 0.67295 0.63227 0.0
C1391 C 0.19463 0.64748 0.64661 0.0
C1392 C 0.1986 0.62278 0.61807 0.0
N1393 N 0.16396 0.63183 0.62834 0.0
C1394 C 0.17269 0.64512 0.64364 0.0
C1395 C 0.17659 0.62083 0.61555 0.0
C1396 C 0.20763 0.6362 0.63373 0.0
C1397 C 0.06612 0.63668 0.59371 0.0
N1398 N 0.0702 0.65051 0.61014 0.0
C1399 C 0.05713 0.64345 0.57474 0.0
C1400 C 0.05232 0.66453 0.57263 0.0
C1401 C 0.05664 0.67856 0.5894 0.0
C1402 C 0.0657 0.67125 0.60813 0.0
C1403 C 0.02509 0.66037 0.65873 0.0
C1404 C 0.06766 0.66676 0.66944 0.0
C1405 C 0.04056 0.65089 0.64715 0.0
N1406 N 0.06155 0.65423 0.65251 0.0
C1407 C 0.05262 0.67648 0.6814 0.0
C1408 C 0.0312 0.67326 0.67596 0.0
C1409 C 0.11487 0.629 0.66939 0.0
C1410 C 0.12305 0.56491 0.60929 0.0
C1411 C 0.14485 0.58869 0.64041 0.0
C1412 C 0.14505 0.56669 0.64094 0.0
C1413 C 0.13406 0.55476 0.62525 0.0
N1414 N 0.13408 0.59852 0.62466 0.0
C1415 C 0.12322 0.58693 0.60925 0.0
Co1416 Co 0.90318 0.87958 0.64886 0.0
Co1417 Co 0.9143 0.86946 0.59708 0.0
O1418 O 0.89858 0.88342 0.61862 0.0
C1419 C 0.85738 0.86798 0.64141 0.0
O1420 O 0.86372 0.85485 0.62707 0.0
C1421 C 0.91712 0.91473 0.5851 0.0
O1422 O 0.91964 0.92046 0.60497 0.0
O1423 O 0.94141 0.87958 0.61073 0.0
O1424 O 0.93533 0.87958 0.64557 0.0
H1425 H 0.97148 0.82518 0.56983 0.0
H1426 H 0.877 0.91432 0.63407 0.0
O1427 O 0.87117 0.87935 0.65221 0.0
H1428 H 0.9367 0.94899 0.67482 0.0
H1429 H 0.88813 0.89266 0.72528 0.0
H1430 H 0.93084 0.85379 0.67559 0.0
H1431 H 0.93373 0.91023 0.6708 0.0
H1432 H 0.88353 0.8973 0.68682 0.0
O1433 O 0.9145 0.89542 0.57965 0.0
H1434 H 0.9512 0.84237 0.59726 0.0
H1435 H 0.91132 0.86803 0.55012 0.0
H1436 H 0.9361 0.8488 0.71392 0.0
H1437 H 0.8792 0.95309 0.63792 0.0
H1438 H 0.91464 0.86833 0.73905 0.0
H1439 H 0.90926 0.97068 0.65836 0.0
O1440 O 0.90122 0.84831 0.64562 0.0
H1441 H 0.84039 0.87765 0.56855 0.0
H1442 H 0.89645 0.82768 0.58105 0.0
H1443 H 0.86228 0.81483 0.56485 0.0
H1444 H 0.83399 0.83991 0.55844 0.0
H1445 H 0.87472 0.88979 0.5849 0.0
H1446 H 0.93108 0.85116 0.52227 0.0
H1447 H 0.96143 0.8295 0.53198 0.0
O1448 O 0.91484 0.84302 0.61376 0.0
C1449 C 0.94792 0.88079 0.62994 0.0
C1450 C 0.95826 0.83451 0.56537 0.0
C1451 C 0.93564 0.84912 0.53865 0.0
N1452 N 0.92996 0.85599 0.57531 0.0
C1453 C 0.94669 0.84422 0.58083 0.0
C1454 C 0.92449 0.85864 0.55452 0.0
C1455 C 0.95264 0.83696 0.54414 0.0
C1456 C 0.89001 0.92184 0.64317 0.0
N1457 N 0.90518 0.91003 0.65225 0.0
C1458 C 0.89123 0.94381 0.64521 0.0
C1459 C 0.90812 0.95367 0.65665 0.0
C1460 C 0.92353 0.94151 0.66587 0.0
C1461 C 0.92181 0.91957 0.66348 0.0
C1462 C 0.8976 0.8841 0.71449 0.0
C1463 C 0.92156 0.86244 0.68644 0.0
C1464 C 0.89504 0.88663 0.69271 0.0
N1465 N 0.90704 0.87595 0.67902 0.0
C1466 C 0.92455 0.8595 0.70812 0.0
C1467 C 0.91249 0.87045 0.72221 0.0
C1468 C 0.9082 0.8364 0.63142 0.0
C1469 C 0.85262 0.86659 0.5712 0.0
C1470 C 0.88419 0.83868 0.57839 0.0
C1471 C 0.86489 0.83132 0.56916 0.0
C1472 C 0.84903 0.8454 0.56556 0.0
N1473 N 0.88761 0.8595 0.58382 0.0
C1474 C 0.87212 0.87339 0.58037 0.0
Co1475 Co 0.64474 0.36412 0.09486 0.0
Co1476 Co 0.60473 0.37668 0.12718 0.0
O1477 O 0.63304 0.38158 0.11647 0.0
C1478 C 0.67724 0.36543 0.12899 0.0
O1479 O 0.66223 0.35902 0.14172 0.0
C1480 C 0.60576 0.42194 0.11424 0.0
O1481 O 0.61002 0.41503 0.09532 0.0
O1482 O 0.59217 0.37664 0.09805 0.0
O1483 O 0.61659 0.35996 0.07999 0.0
H1484 H 0.53141 0.34253 0.12937 0.0
H1485 H 0.66456 0.40665 0.10445 0.0
O1486 O 0.67305 0.36807 0.10945 0.0
H1487 H 0.64359 0.40789 0.02895 0.0
H1488 H 0.70108 0.34415 0.04494 0.0
H1489 H 0.63075 0.32431 0.07249 0.0
H1490 H 0.63714 0.37571 0.04987 0.0
H1491 H 0.68517 0.36635 0.07177 0.0
O1492 O 0.60271 0.40871 0.1292 0.0
H1493 H 0.56775 0.34758 0.11645 0.0
H1494 H 0.58089 0.39744 0.16071 0.0
H1495 H 0.64591 0.30188 0.04539 0.0
H1496 H 0.67144 0.43915 0.08407 0.0
H1497 H 0.68133 0.31176 0.03144 0.0
H1498 H 0.66089 0.43991 0.04605 0.0
O1499 O 0.63845 0.33842 0.11154 0.0
H1500 H 0.65272 0.40404 0.1868 0.0
H1501 H 0.59968 0.34822 0.16408 0.0
H1502 H 0.61585 0.34717 0.19989 0.0
H1503 H 0.64256 0.37524 0.21146 0.0
H1504 H 0.63628 0.40439 0.15108 0.0
H1505 H 0.54463 0.39309 0.174 0.0
H1506 H 0.51963 0.36545 0.1583 0.0
O1507 O 0.6068 0.34451 0.12517 0.0
C1508 C 0.59823 0.36705 0.08174 0.0
C1509 C 0.54218 0.35459 0.13638 0.0
C1510 C 0.54959 0.38299 0.16141 0.0
N1511 N 0.57644 0.37267 0.13794 0.0
C1512 C 0.56279 0.35747 0.12918 0.0
C1513 C 0.57008 0.38541 0.1538 0.0
C1514 C 0.53557 0.36747 0.1526 0.0
C1515 C 0.66009 0.40681 0.08787 0.0
N1516 N 0.65058 0.38927 0.07835 0.0
C1517 C 0.66396 0.42528 0.07643 0.0
C1518 C 0.658 0.42571 0.0551 0.0
C1519 C 0.64829 0.40775 0.0455 0.0
C1520 C 0.64465 0.38958 0.05744 0.0
C1521 C 0.68562 0.3397 0.05087 0.0
C1522 C 0.6461 0.3288 0.06638 0.0
C1523 C 0.67656 0.35218 0.0661 0.0
N1524 N 0.657 0.3467 0.07358 0.0
C1525 C 0.65464 0.31599 0.0511 0.0
C1526 C 0.67453 0.32153 0.0433 0.0
C1527 C 0.62152 0.33213 0.12049 0.0
C1528 C 0.64105 0.39176 0.18197 0.0
C1529 C 0.61132 0.36047 0.16899 0.0
C1530 C 0.62039 0.35981 0.1893 0.0
C1531 C 0.63537 0.37558 0.19578 0.0
N1532 N 0.61695 0.37641 0.15555 0.0
C1533 C 0.63161 0.39192 0.1618 0.0
Co1534 Co 0.13777 0.13388 0.65717 0.0
Co1535 Co 0.11951 0.13082 0.60581 0.0
O1536 O 0.13868 0.12287 0.62848 0.0
C1537 C 0.18226 0.14276 0.64449 0.0
O1538 O 0.17392 0.15154 0.62776 0.0
C1539 C 0.10502 0.08827 0.58976 0.0
O1540 O 0.0859 0.09216 0.59575 0.0
O1541 O 0.09483 0.12256 0.62325 0.0
O1542 O 0.10543 0.13324 0.65595 0.0
H1543 H 0.05549 0.16376 0.57431 0.0
H1544 H 0.16219 0.09625 0.64851 0.0
O1545 O 0.17004 0.13491 0.65855 0.0
H1546 H 0.10918 0.07304 0.70023 0.0
H1547 H 0.16248 0.13997 0.7332 0.0
H1548 H 0.11323 0.16583 0.67883 0.0
H1549 H 0.11095 0.10973 0.68751 0.0
H1550 H 0.16226 0.12584 0.69679 0.0
O1551 O 0.12042 0.1014 0.59428 0.0
H1552 H 0.08044 0.15465 0.60299 0.0
H1553 H 0.11718 0.12224 0.55932 0.0
H1554 H 0.11279 0.18029 0.71506 0.0
H1555 H 0.1611 0.05946 0.66095 0.0
H1556 H 0.13755 0.16734 0.74254 0.0
H1557 H 0.13443 0.04765 0.68698 0.0
O1558 O 0.13854 0.16327 0.64678 0.0
H1559 H 0.19055 0.12121 0.57441 0.0
H1560 H 0.13178 0.1688 0.58048 0.0
H1561 H 0.1626 0.17967 0.55942 0.0
H1562 H 0.19223 0.15576 0.5562 0.0
H1563 H 0.15953 0.11103 0.59547 0.0
H1564 H 0.09259 0.1309 0.53019 0.0
H1565 H 0.06147 0.15181 0.53762 0.0
O1566 O 0.11879 0.16049 0.61684 0.0
C1567 C 0.09093 0.12708 0.64235 0.0
C1568 C 0.069 0.15465 0.57088 0.0
C1569 C 0.08981 0.1362 0.54612 0.0
N1570 N 0.10028 0.13798 0.58285 0.0
C1571 C 0.08319 0.14947 0.58706 0.0
C1572 C 0.10367 0.13133 0.56269 0.0
C1573 C 0.07237 0.14795 0.55029 0.0
C1574 C 0.15063 0.09126 0.65994 0.0
N1575 N 0.13673 0.10513 0.66737 0.0
C1576 C 0.15005 0.07039 0.66688 0.0
C1577 C 0.13507 0.06377 0.68147 0.0
C1578 C 0.12088 0.078 0.6889 0.0
C1579 C 0.12193 0.09874 0.6816 0.0
C1580 C 0.15158 0.1457 0.72138 0.0
C1581 C 0.12393 0.16001 0.69074 0.0
C1582 C 0.15141 0.13779 0.70074 0.0
N1583 N 0.1376 0.14486 0.68578 0.0
C1584 C 0.12367 0.16831 0.71121 0.0
C1585 C 0.13758 0.16105 0.72661 0.0
C1586 C 0.12828 0.17141 0.63159 0.0
C1587 C 0.1777 0.13173 0.57562 0.0
C1588 C 0.14466 0.15835 0.57928 0.0
C1589 C 0.16204 0.16456 0.56726 0.0
C1590 C 0.17865 0.15113 0.56544 0.0
N1591 N 0.14377 0.13923 0.58911 0.0
C1592 C 0.16004 0.12601 0.58745 0.0
Co1593 Co 0.37409 0.65857 0.08758 0.0
Co1594 Co 0.41173 0.64716 0.12519 0.0
O1595 O 0.3842 0.642 0.11105 0.0
C1596 C 0.332 0.66907 0.10203 0.0
O1597 O 0.33745 0.68881 0.09783 0.0
C1598 C 0.41054 0.60238 0.11113 0.0
O1599 O 0.40582 0.61011 0.09254 0.0
O1600 O 0.42634 0.64742 0.09777 0.0
O1601 O 0.40305 0.66263 0.07615 0.0
H1602 H 0.484 0.68254 0.13681 0.0
H1603 H 0.35318 0.61643 0.09525 0.0
O1604 O 0.34494 0.65468 0.09898 0.0
H1605 H 0.38081 0.61233 0.02335 0.0
H1606 H 0.32288 0.67516 0.02853 0.0
H1607 H 0.38863 0.69853 0.06729 0.0
H1608 H 0.38559 0.64523 0.04424 0.0
H1609 H 0.33656 0.6542 0.05798 0.0
O1610 O 0.41428 0.61514 0.12674 0.0
H1611 H 0.44869 0.67703 0.11956 0.0
H1612 H 0.43368 0.62645 0.16095 0.0
H1613 H 0.37566 0.71986 0.03773 0.0
H1614 H 0.34783 0.58326 0.07478 0.0
H1615 H 0.34257 0.70818 0.0181 0.0
H1616 H 0.36176 0.58104 0.0386 0.0
O1617 O 0.37921 0.68465 0.10464 0.0
H1618 H 0.36065 0.61849 0.17852 0.0
H1619 H 0.41396 0.67533 0.16309 0.0
H1620 H 0.39579 0.67564 0.19706 0.0
H1621 H 0.36897 0.64703 0.20497 0.0
H1622 H 0.37908 0.6189 0.14469 0.0
H1623 H 0.46889 0.63126 0.17853 0.0
H1624 H 0.49432 0.65948 0.16645 0.0
O1625 O 0.40909 0.67925 0.1235 0.0
C1626 C 0.42139 0.65615 0.08044 0.0
C1627 C 0.47304 0.67022 0.14225 0.0
C1628 C 0.46457 0.64142 0.16564 0.0
N1629 N 0.43912 0.65155 0.13937 0.0
C1630 C 0.45301 0.66709 0.1326 0.0
C1631 C 0.44468 0.63875 0.15562 0.0
C1632 C 0.47883 0.65727 0.15887 0.0
C1633 C 0.35905 0.61568 0.07941 0.0
N1634 N 0.36957 0.63281 0.07093 0.0
C1635 C 0.35607 0.59682 0.06794 0.0
C1636 C 0.36393 0.59556 0.04765 0.0
C1637 C 0.37464 0.6131 0.0391 0.0
C1638 C 0.37736 0.63168 0.05104 0.0
C1639 C 0.33737 0.68038 0.03687 0.0
C1640 C 0.37427 0.69331 0.05877 0.0
C1641 C 0.34519 0.66858 0.05358 0.0
N1642 N 0.36343 0.67509 0.06429 0.0
C1643 C 0.36698 0.70546 0.04206 0.0
C1644 C 0.34841 0.69891 0.03106 0.0
C1645 C 0.39489 0.69139 0.11631 0.0
C1646 C 0.37235 0.63101 0.17528 0.0
C1647 C 0.40224 0.66288 0.1664 0.0
C1648 C 0.39205 0.66311 0.18567 0.0
C1649 C 0.37701 0.64704 0.1901 0.0
N1650 N 0.39765 0.64705 0.15199 0.0
C1651 C 0.38287 0.63129 0.15618 0.0
Co1652 Co 0.87346 0.10825 0.3996 0.0
Co1653 Co 0.86127 0.14499 0.43689 0.0
O1654 O 0.87869 0.13526 0.4143 0.0
C1655 C 0.91822 0.10893 0.41485 0.0
O1656 O 0.91046 0.1133 0.43329 0.0
C1657 C 0.86278 0.18007 0.40688 0.0
O1658 O 0.85894 0.16597 0.39181 0.0
O1659 O 0.83557 0.14023 0.41898 0.0
O1660 O 0.84131 0.11096 0.40017 0.0
H1661 H 0.79833 0.14184 0.48363 0.0
H1662 H 0.90271 0.14089 0.38135 0.0
O1663 O 0.90547 0.10548 0.399 0.0
H1664 H 0.846 0.12736 0.32734 0.0
H1665 H 0.88884 0.05328 0.3452 0.0
H1666 H 0.84318 0.07139 0.40383 0.0
H1667 H 0.84567 0.10786 0.36086 0.0
H1668 H 0.89442 0.08738 0.36409 0.0
O1669 O 0.86455 0.1744 0.42604 0.0
H1670 H 0.82137 0.12903 0.45603 0.0
H1671 H 0.86342 0.18288 0.46515 0.0
H1672 H 0.8369 0.0372 0.38527 0.0
H1673 H 0.90376 0.1606 0.34798 0.0
H1674 H 0.85974 0.02804 0.35564 0.0
H1675 H 0.87522 0.15393 0.32072 0.0
O1676 O 0.87254 0.09281 0.42684 0.0
H1677 H 0.93627 0.17139 0.45276 0.0
H1678 H 0.87329 0.13355 0.481 0.0
H1679 H 0.90563 0.13849 0.50342 0.0
H1680 H 0.93743 0.15753 0.4893 0.0
H1681 H 0.90358 0.16601 0.43084 0.0
H1682 H 0.84062 0.19649 0.49255 0.0
H1683 H 0.80782 0.17587 0.50199 0.0
O1684 O 0.85735 0.11582 0.44811 0.0
C1685 C 0.82905 0.12494 0.40699 0.0
C1686 C 0.81261 0.15093 0.47971 0.0
C1687 C 0.83633 0.18161 0.4847 0.0
N1688 N 0.84381 0.1551 0.45913 0.0
C1689 C 0.82577 0.1437 0.46417 0.0
C1690 C 0.84916 0.17385 0.46915 0.0
C1691 C 0.81794 0.17003 0.48999 0.0
C1692 C 0.89036 0.13773 0.36947 0.0
N1693 N 0.8742 0.12317 0.37301 0.0
C1694 C 0.89099 0.14901 0.35065 0.0
C1695 C 0.87495 0.14529 0.33537 0.0
C1696 C 0.85854 0.1304 0.33909 0.0
C1697 C 0.8584 0.11944 0.35812 0.0
C1698 C 0.87872 0.05714 0.35803 0.0
C1699 C 0.85313 0.06753 0.3909 0.0
C1700 C 0.88184 0.07639 0.3688 0.0
N1701 N 0.86901 0.08142 0.3849 0.0
C1702 C 0.84955 0.04813 0.3805 0.0
C1703 C 0.86241 0.04297 0.36391 0.0
C1704 C 0.86354 0.09749 0.44388 0.0
C1705 C 0.92249 0.16313 0.4591 0.0
C1706 C 0.88707 0.14183 0.47474 0.0
C1707 C 0.90533 0.14461 0.48752 0.0
C1708 C 0.92315 0.15532 0.4796 0.0
N1709 N 0.88654 0.14957 0.45466 0.0
C1710 C 0.90393 0.16012 0.4468 0.0
Co1711 Co 0.37043 0.38539 0.92082 0.0
Co1712 Co 0.37923 0.36973 0.87021 0.0
O1713 O 0.38386 0.36769 0.90058 0.0
C1714 C 0.41567 0.39098 0.93533 0.0
O1715 O 0.42084 0.39933 0.91717 0.0
C1716 C 0.37045 0.32429 0.88011 0.0
O1717 O 0.35779 0.33121 0.89439 0.0
O1718 O 0.34804 0.36709 0.8733 0.0
O1719 O 0.34375 0.3855 0.90311 0.0
H1720 H 0.34519 0.39585 0.80352 0.0
H1721 H 0.38915 0.34584 0.93514 0.0
O1722 O 0.39657 0.38523 0.93904 0.0
H1723 H 0.31407 0.3386 0.95399 0.0
H1724 H 0.35455 0.41017 0.99419 0.0
H1725 H 0.34421 0.42266 0.91796 0.0
H1726 H 0.32818 0.37073 0.93651 0.0
H1727 H 0.36983 0.38681 0.96795 0.0
O1728 O 0.38019 0.33761 0.8682 0.0
H1729 H 0.3515 0.394 0.84204 0.0
H1730 H 0.39691 0.34793 0.83337 0.0
H1731 H 0.32848 0.44624 0.94364 0.0
H1732 H 0.37576 0.31354 0.95282 0.0
H1733 H 0.33365 0.44013 0.98197 0.0
H1734 H 0.33794 0.30975 0.96232 0.0
O1735 O 0.38143 0.4112 0.90634 0.0
H1736 H 0.45427 0.35052 0.88444 0.0
H1737 H 0.40827 0.39907 0.84681 0.0
H1738 H 0.44699 0.40344 0.84353 0.0
H1739 H 0.47027 0.37902 0.8624 0.0
H1740 H 0.41548 0.34683 0.8874 0.0
H1741 H 0.39099 0.34915 0.79475 0.0
H1742 H 0.36503 0.37331 0.7796 0.0
O1743 O 0.37815 0.40194 0.872 0.0
C1744 C 0.33645 0.37637 0.88623 0.0
C1745 C 0.35661 0.38532 0.80992 0.0
C1746 C 0.38229 0.35908 0.805 0.0
N1747 N 0.37469 0.37102 0.83989 0.0
C1748 C 0.36029 0.38426 0.83171 0.0
C1749 C 0.38555 0.35843 0.82687 0.0
C1750 C 0.36773 0.37265 0.79651 0.0
C1751 C 0.37273 0.3444 0.93941 0.0
N1752 N 0.35949 0.3602 0.93486 0.0
C1753 C 0.36521 0.32603 0.94934 0.0
C1754 C 0.34399 0.3239 0.95463 0.0
C1755 C 0.33058 0.34007 0.94994 0.0
C1756 C 0.33864 0.3582 0.93997 0.0
C1757 C 0.35214 0.41297 0.97749 0.0
C1758 C 0.34636 0.41975 0.93465 0.0
C1759 C 0.36078 0.39982 0.96255 0.0
N1760 N 0.35775 0.40327 0.94143 0.0
C1761 C 0.33749 0.4332 0.94911 0.0
C1762 C 0.34042 0.42976 0.97065 0.0
C1763 C 0.38094 0.4159 0.8868 0.0
C1764 C 0.4443 0.36122 0.87609 0.0
C1765 C 0.4183 0.38842 0.8551 0.0
C1766 C 0.44021 0.39094 0.85316 0.0
C1767 C 0.45326 0.37723 0.86374 0.0
N1768 N 0.40963 0.37263 0.86718 0.0
C1769 C 0.42232 0.35915 0.87764 0.0
Co1770 Co 0.12962 0.92278 0.39473 0.0
Co1771 Co 0.14023 0.8807 0.42666 0.0
O1772 O 0.12366 0.89417 0.40489 0.0
C1773 C 0.08547 0.9214 0.40929 0.0
O1774 O 0.09382 0.91451 0.42694 0.0
C1775 C 0.1399 0.85034 0.39113 0.0
O1776 O 0.14585 0.86605 0.3789 0.0
O1777 O 0.16662 0.8879 0.41176 0.0
O1778 O 0.16154 0.9186 0.39526 0.0
H1779 H 0.20259 0.87498 0.4765 0.0
H1780 H 0.09873 0.89378 0.3714 0.0
O1781 O 0.09773 0.92675 0.39423 0.0
H1782 H 0.15415 0.91261 0.32062 0.0
H1783 H 0.11491 0.98536 0.34931 0.0
H1784 H 0.16168 0.95738 0.40471 0.0
H1785 H 0.15614 0.92746 0.35676 0.0
H1786 H 0.10844 0.94921 0.3627 0.0
O1787 O 0.13685 0.85355 0.41064 0.0
H1788 H 0.17959 0.89283 0.45105 0.0
H1789 H 0.13703 0.83883 0.44784 0.0
H1790 H 0.16887 0.99351 0.39164 0.0
H1791 H 0.09604 0.87871 0.33538 0.0
H1792 H 0.14547 1.00766 0.36367 0.0
H1793 H 0.12391 0.88807 0.30972 0.0
O1794 O 0.13217 0.93458 0.42407 0.0
H1795 H 0.06453 0.85374 0.43182 0.0
H1796 H 0.12686 0.88503 0.4712 0.0
H1797 H 0.09367 0.87739 0.48985 0.0
H1798 H 0.0622 0.86162 0.47012 0.0
H1799 H 0.09801 0.86178 0.41376 0.0
H1800 H 0.15971 0.82031 0.47316 0.0
H1801 H 0.19302 0.83828 0.48722 0.0
O1802 O 0.14391 0.90748 0.44303 0.0
C1803 C 0.17347 0.90387 0.40143 0.0
C1804 C 0.18818 0.86697 0.47037 0.0
C1805 C 0.16412 0.83627 0.46847 0.0
N1806 N 0.15695 0.86691 0.44803 0.0
C1807 C 0.17503 0.87702 0.45604 0.0
C1808 C 0.15135 0.84683 0.45415 0.0
C1809 C 0.18274 0.84639 0.47646 0.0
C1810 C 0.11082 0.8981 0.36027 0.0
N1811 N 0.1275 0.91159 0.36614 0.0
C1812 C 0.10925 0.88944 0.33992 0.0
C1813 C 0.12491 0.89467 0.32554 0.0
C1814 C 0.14189 0.90843 0.33165 0.0
C1815 C 0.14295 0.91676 0.35214 0.0
C1816 C 0.12528 0.97933 0.36145 0.0
C1817 C 0.15148 0.96341 0.39247 0.0
C1818 C 0.12165 0.95891 0.36912 0.0
N1819 N 0.13478 0.95117 0.38432 0.0
C1820 C 0.15558 0.98389 0.38518 0.0
C1821 C 0.14241 0.99184 0.36952 0.0
C1822 C 0.13949 0.92671 0.44101 0.0
C1823 C 0.07816 0.86052 0.44061 0.0
C1824 C 0.11324 0.87817 0.46251 0.0
C1825 C 0.09449 0.87385 0.47316 0.0
C1826 C 0.07685 0.86499 0.46209 0.0
N1827 N 0.11439 0.87375 0.44143 0.0
C1828 C 0.09717 0.86503 0.43048 0.0
Co1829 Co 0.65043 0.62452 0.92958 0.0
Co1830 Co 0.64692 0.63855 0.87764 0.0
O1831 O 0.63916 0.64143 0.90694 0.0
C1832 C 0.60411 0.61821 0.9374 0.0
O1833 O 0.60092 0.60783 0.9195 0.0
C1834 C 0.65519 0.68412 0.88798 0.0
O1835 O 0.66618 0.67743 0.90422 0.0
O1836 O 0.67752 0.64131 0.88564 0.0
O1837 O 0.67869 0.62386 0.91634 0.0
H1838 H 0.68723 0.61013 0.81736 0.0
H1839 H 0.63013 0.66438 0.93984 0.0
O1840 O 0.62255 0.62516 0.94336 0.0
H1841 H 0.70267 0.67299 0.97012 0.0
H1842 H 0.65887 0.60328 1.00568 0.0
H1843 H 0.67677 0.58721 0.93219 0.0
H1844 H 0.69065 0.64016 0.95134 0.0
H1845 H 0.64607 0.62507 0.97637 0.0
O1846 O 0.64643 0.67059 0.87492 0.0
H1847 H 0.6771 0.61327 0.85454 0.0
H1848 H 0.63344 0.65939 0.83793 0.0
H1849 H 0.69003 0.56514 0.96102 0.0
H1850 H 0.64143 0.69738 0.95868 0.0
H1851 H 0.68112 0.57315 0.99804 0.0
H1852 H 0.67795 0.70186 0.97394 0.0
O1853 O 0.6414 0.59816 0.91404 0.0
H1854 H 0.57115 0.65839 0.87937 0.0
H1855 H 0.62042 0.60856 0.85039 0.0
H1856 H 0.58236 0.60421 0.84102 0.0
H1857 H 0.55745 0.62928 0.85551 0.0
H1858 H 0.60932 0.66206 0.88844 0.0
H1859 H 0.64322 0.6569 0.80057 0.0
H1860 H 0.67023 0.63205 0.79008 0.0
O1861 O 0.64759 0.60643 0.88023 0.0
C1862 C 0.68758 0.63247 0.90053 0.0
C1863 C 0.67538 0.62096 0.82172 0.0
C1864 C 0.65071 0.64723 0.8123 0.0
N1865 N 0.65457 0.63636 0.84833 0.0
C1866 C 0.66954 0.62275 0.84273 0.0
C1867 C 0.64527 0.64861 0.83347 0.0
C1868 C 0.66586 0.63328 0.80643 0.0
C1869 C 0.64598 0.66612 0.94662 0.0
N1870 N 0.65967 0.6503 0.94458 0.0
C1871 C 0.65232 0.68488 0.95719 0.0
C1872 C 0.67283 0.6874 0.96571 0.0
C1873 C 0.68671 0.67122 0.96355 0.0
C1874 C 0.67983 0.65268 0.95285 0.0
C1875 C 0.66292 0.59969 0.98959 0.0
C1876 C 0.67294 0.59089 0.94828 0.0
C1877 C 0.6557 0.61194 0.97293 0.0
N1878 N 0.66085 0.60755 0.95259 0.0
C1879 C 0.68044 0.5783 0.96453 0.0
C1880 C 0.6754 0.58278 0.98531 0.0
C1881 C 0.64384 0.59284 0.89482 0.0
C1882 C 0.58186 0.64741 0.8729 0.0
C1883 C 0.60967 0.6195 0.85679 0.0
C1884 C 0.58814 0.61698 0.8514 0.0
C1885 C 0.57418 0.63106 0.85953 0.0
N1886 N 0.61708 0.63563 0.86984 0.0
C1887 C 0.60349 0.64946 0.87793 0.0
Co1888 Co 0.59739 0.9028 0.87495 0.0
Co1889 Co 0.64841 0.8886 0.88422 0.0
O1890 O 0.61802 0.88528 0.88882 0.0
C1891 C 0.58599 0.9027 0.92034 0.0
O1892 O 0.60606 0.90297 0.92608 0.0
C1893 C 0.63776 0.84297 0.87533 0.0
O1894 O 0.62219 0.84952 0.8634 0.0
O1895 O 0.64359 0.88661 0.85324 0.0
O1896 O 0.61376 0.9038 0.84829 0.0
H1897 H 0.71383 0.91876 0.85002 0.0
H1898 H 0.58249 0.86281 0.89489 0.0
O1899 O 0.58024 0.90244 0.90093 0.0
H1900 H 0.56067 0.85524 0.81981 0.0
H1901 H 0.52377 0.92454 0.8569 0.0
H1902 H 0.60001 0.94082 0.84798 0.0
H1903 H 0.57947 0.88793 0.833 0.0
H1904 H 0.55024 0.9024 0.8736 0.0
O1905 O 0.65017 0.85658 0.88512 0.0
H1906 H 0.67553 0.91499 0.85632 0.0
H1907 H 0.68597 0.86783 0.90208 0.0
H1908 H 0.57403 0.96333 0.83088 0.0
H1909 H 0.56349 0.82995 0.88241 0.0
H1910 H 0.53559 0.95522 0.83529 0.0
H1911 H 0.55257 0.82596 0.84459 0.0
O1912 O 0.61305 0.92874 0.88553 0.0
H1913 H 0.63948 0.86472 0.95902 0.0
H1914 H 0.67328 0.91837 0.91321 0.0
H1915 H 0.67912 0.92103 0.95181 0.0
H1916 H 0.66221 0.89404 0.97499 0.0
H1917 H 0.63381 0.86284 0.92037 0.0
H1918 H 0.72437 0.87097 0.89618 0.0
H1919 H 0.73853 0.89664 0.87004 0.0
O1920 O 0.64713 0.9208 0.88293 0.0
C1921 C 0.63005 0.89523 0.84138 0.0
C1922 C 0.70786 0.90758 0.86151 0.0
C1923 C 0.71378 0.88073 0.8874 0.0
N1924 N 0.67857 0.89136 0.87969 0.0
C1925 C 0.6862 0.90542 0.86519 0.0
C1926 C 0.69202 0.879 0.89065 0.0
C1927 C 0.72171 0.89514 0.87273 0.0
C1928 C 0.57758 0.86129 0.87846 0.0
N1929 N 0.58204 0.87731 0.86472 0.0
C1930 C 0.56691 0.84261 0.87146 0.0
C1931 C 0.56082 0.84037 0.85024 0.0
C1932 C 0.56538 0.85678 0.83632 0.0
C1933 C 0.57609 0.87523 0.84387 0.0
C1934 C 0.54046 0.92822 0.85482 0.0
C1935 C 0.58331 0.93713 0.84986 0.0
C1936 C 0.55553 0.91575 0.86426 0.0
N1937 N 0.57665 0.92021 0.8616 0.0
C1938 C 0.56867 0.94996 0.8402 0.0
C1939 C 0.54711 0.94542 0.84269 0.0
C1940 C 0.63271 0.93411 0.88536 0.0
C1941 C 0.64698 0.87655 0.94909 0.0
C1942 C 0.66573 0.90665 0.9232 0.0
C1943 C 0.66917 0.90819 0.94504 0.0
C1944 C 0.6597 0.89303 0.95803 0.0
N1945 N 0.65322 0.89045 0.91455 0.0
C1946 C 0.64391 0.8755 0.92718 0.0
Co1947 Co 0.62515 0.12377 0.41186 0.0
Co1948 Co 0.6322 0.08572 0.37416 0.0
O1949 O 0.61813 0.10992 0.38487 0.0
C1950 C 0.5789 0.11252 0.41459 0.0
O1951 O 0.58381 0.09292 0.41138 0.0
C1952 C 0.64497 0.10069 0.33244 0.0
O1953 O 0.66399 0.09489 0.33778 0.0
O1954 O 0.6601 0.10083 0.3787 0.0
O1955 O 0.65676 0.12053 0.40796 0.0
H1956 H 0.68904 0.0333 0.37244 0.0
H1957 H 0.5982 0.14464 0.38007 0.0
O1958 O 0.5936 0.12718 0.41572 0.0
H1959 H 0.65991 0.19407 0.39327 0.0
H1960 H 0.61599 0.17845 0.4684 0.0
H1961 H 0.65503 0.11661 0.44763 0.0
H1962 H 0.65679 0.16022 0.4121 0.0
H1963 H 0.60847 0.16076 0.43398 0.0
O1964 O 0.62983 0.09804 0.34521 0.0
H1965 H 0.67005 0.06279 0.38719 0.0
H1966 H 0.62442 0.05713 0.33683 0.0
H1967 H 0.66319 0.13392 0.48211 0.0
H1968 H 0.6006 0.1784 0.36102 0.0
H1969 H 0.64357 0.16505 0.49269 0.0
H1970 H 0.63165 0.20337 0.36757 0.0
O1971 O 0.62337 0.09629 0.42699 0.0
H1972 H 0.55578 0.07843 0.35017 0.0
H1973 H 0.61431 0.04308 0.38571 0.0
H1974 H 0.57933 0.02437 0.38166 0.0
H1975 H 0.54977 0.04201 0.36369 0.0
H1976 H 0.59103 0.09665 0.35472 0.0
H1977 H 0.64276 0.02739 0.32168 0.0
H1978 H 0.67551 0.01555 0.3393 0.0
O1979 O 0.63501 0.07366 0.40291 0.0
C1980 C 0.66805 0.11229 0.39379 0.0
C1981 C 0.67482 0.03837 0.36457 0.0
C1982 C 0.64885 0.03505 0.33608 0.0
N1983 N 0.64614 0.06165 0.36291 0.0
C1984 C 0.66398 0.05502 0.37287 0.0
C1985 C 0.63849 0.05183 0.34477 0.0
C1986 C 0.66721 0.0284 0.346 0.0
C1987 C 0.61169 0.15548 0.38311 0.0
N1988 N 0.62727 0.15053 0.39727 0.0
C1989 C 0.61299 0.17455 0.37223 0.0
C1990 C 0.63043 0.18855 0.37589 0.0
C1991 C 0.6463 0.18333 0.3903 0.0
C1992 C 0.64446 0.16412 0.40088 0.0
C1993 C 0.62466 0.16491 0.46395 0.0
C1994 C 0.64654 0.13024 0.45207 0.0
C1995 C 0.62044 0.15481 0.44452 0.0
N1996 N 0.63141 0.13777 0.43877 0.0
C1997 C 0.65118 0.13994 0.47164 0.0
C1998 C 0.64015 0.1574 0.47757 0.0
C1999 C 0.63011 0.07846 0.42167 0.0
C2000 C 0.56856 0.07054 0.35794 0.0
C2001 C 0.60152 0.05092 0.37794 0.0
C2002 C 0.58175 0.04021 0.37564 0.0
C2003 C 0.56519 0.05012 0.36556 0.0
N2004 N 0.60475 0.0709 0.37031 0.0
C2005 C 0.58857 0.08075 0.36048 0.0
Co2006 Co 0.43934 0.1105 0.87641 0.0
Co2007 Co 0.387 0.12034 0.88413 0.0
O2008 O 0.4173 0.12605 0.88965 0.0
C2009 C 0.45085 0.11103 0.92254 0.0
O2010 O 0.43086 0.11015 0.92753 0.0
C2011 C 0.39473 0.16597 0.87426 0.0
O2012 O 0.4107 0.15979 0.86341 0.0
O2013 O 0.39086 0.1211 0.85315 0.0
O2014 O 0.4232 0.10897 0.84889 0.0
H2015 H 0.32284 0.0837 0.84931 0.0
H2016 H 0.45114 0.15083 0.89875 0.0
O2017 O 0.45634 0.11145 0.90337 0.0
H2018 H 0.47373 0.16146 0.82555 0.0
H2019 H 0.5148 0.09488 0.862 0.0
H2020 H 0.43978 0.07317 0.8479 0.0
H2021 H 0.45648 0.12759 0.83616 0.0
H2022 H 0.48651 0.11443 0.87793 0.0
O2023 O 0.38305 0.15215 0.8838 0.0
H2024 H 0.36109 0.09059 0.85655 0.0
H2025 H 0.34833 0.13935 0.89996 0.0
H2026 H 0.46761 0.05321 0.83152 0.0
H2027 H 0.46853 0.18487 0.88885 0.0
H2028 H 0.50545 0.06407 0.83852 0.0
H2029 H 0.47996 0.19035 0.85201 0.0
O2030 O 0.42555 0.08335 0.88494 0.0
H2031 H 0.39581 0.14867 0.9583 0.0
H2032 H 0.36483 0.09056 0.9134 0.0
H2033 H 0.35991 0.08958 0.95187 0.0
H2034 H 0.37539 0.11883 0.97459 0.0
H2035 H 0.40061 0.14886 0.91979 0.0
H2036 H 0.30995 0.13314 0.89307 0.0
H2037 H 0.29699 0.10508 0.86764 0.0
O2038 O 0.3906 0.08832 0.88415 0.0
C2039 C 0.40548 0.11477 0.84164 0.0
C2040 C 0.32829 0.09592 0.86048 0.0
C2041 C 0.32105 0.12369 0.88502 0.0
N2042 N 0.35689 0.11521 0.87879 0.0
C2043 C 0.34992 0.09984 0.86469 0.0
C2044 C 0.3428 0.12717 0.88882 0.0
C2045 C 0.3138 0.10794 0.87075 0.0
C2046 C 0.4562 0.15303 0.88273 0.0
N2047 N 0.4529 0.13719 0.86809 0.0
C2048 C 0.46596 0.17238 0.87719 0.0
C2049 C 0.47234 0.17545 0.85651 0.0
C2050 C 0.46883 0.15926 0.84165 0.0
C2051 C 0.45899 0.14013 0.84774 0.0
C2052 C 0.49839 0.09002 0.85877 0.0
C2053 C 0.45621 0.07805 0.85091 0.0
C2054 C 0.48228 0.10101 0.86777 0.0
N2055 N 0.4615 0.09508 0.86366 0.0
C2056 C 0.4719 0.06666 0.84165 0.0
C2057 C 0.49312 0.07274 0.8456 0.0
C2058 C 0.40636 0.07629 0.88564 0.0
C2059 C 0.38894 0.13586 0.94856 0.0
C2060 C 0.37177 0.10326 0.9232 0.0
C2061 C 0.36885 0.10266 0.94496 0.0
C2062 C 0.37752 0.11909 0.9577 0.0
N2063 N 0.38298 0.11976 0.91436 0.0
C2064 C 0.39151 0.13594 0.92674 0.0
Co2065 Co 0.37767 0.89675 0.40111 0.0
Co2066 Co 0.36949 0.93617 0.36499 0.0
O2067 O 0.3831 0.91098 0.37449 0.0
C2068 C 0.4241 0.9073 0.40299 0.0
O2069 O 0.41907 0.92677 0.39935 0.0
C2070 C 0.36135 0.90511 0.33064 0.0
O2071 O 0.35642 0.8912 0.34515 0.0
O2072 O 0.34112 0.92345 0.37125 0.0
O2073 O 0.34596 0.90086 0.39794 0.0
H2074 H 0.31823 0.9939 0.369 0.0
H2075 H 0.40223 0.87571 0.36851 0.0
O2076 O 0.40941 0.89272 0.4044 0.0
H2077 H 0.33972 0.8279 0.37978 0.0
H2078 H 0.38925 0.84054 0.45515 0.0
H2079 H 0.35056 0.9039 0.43768 0.0
H2080 H 0.34504 0.86116 0.40011 0.0
H2081 H 0.39492 0.8589 0.42141 0.0
O2082 O 0.36684 0.92408 0.33579 0.0
H2083 H 0.33664 0.96295 0.3819 0.0
H2084 H 0.37306 0.96269 0.32658 0.0
H2085 H 0.34426 0.88594 0.47151 0.0
H2086 H 0.39765 0.84252 0.34799 0.0
H2087 H 0.3637 0.85403 0.48042 0.0
H2088 H 0.36617 0.81839 0.35352 0.0
O2089 O 0.38127 0.92382 0.41725 0.0
H2090 H 0.44254 0.93704 0.33568 0.0
H2091 H 0.39174 0.97782 0.37467 0.0
H2092 H 0.42724 0.99379 0.36799 0.0
H2093 H 0.45293 0.97336 0.34836 0.0
H2094 H 0.40687 0.92164 0.34278 0.0
H2095 H 0.35507 0.99362 0.31309 0.0
H2096 H 0.32732 1.00929 0.33423 0.0
O2097 O 0.37193 0.94857 0.39393 0.0
C2098 C 0.33394 0.91101 0.38535 0.0
C2099 C 0.33029 0.98718 0.35961 0.0
C2100 C 0.35096 0.98702 0.32823 0.0
N2101 N 0.35597 0.9611 0.35505 0.0
C2102 C 0.34081 0.96972 0.36688 0.0
C2103 C 0.36108 0.96951 0.33594 0.0
C2104 C 0.3354 0.99583 0.34013 0.0
C2105 C 0.38862 0.86518 0.37118 0.0
N2106 N 0.37397 0.87031 0.38556 0.0
C2107 C 0.38606 0.84645 0.35944 0.0
C2108 C 0.36837 0.83294 0.36252 0.0
C2109 C 0.35351 0.83828 0.37724 0.0
C2110 C 0.35658 0.85715 0.38867 0.0
C2111 C 0.38066 0.85441 0.45143 0.0
C2112 C 0.35896 0.88994 0.44139 0.0
C2113 C 0.38384 0.86489 0.43238 0.0
N2114 N 0.37295 0.88234 0.42754 0.0
C2115 C 0.35538 0.87988 0.4606 0.0
C2116 C 0.36631 0.86198 0.4656 0.0
C2117 C 0.37723 0.94267 0.41242 0.0
C2118 C 0.43147 0.94612 0.3442 0.0
C2119 C 0.40283 0.96882 0.36612 0.0
C2120 C 0.4229 0.97796 0.36237 0.0
C2121 C 0.4373 0.96649 0.35134 0.0
N2122 N 0.3972 0.94885 0.35901 0.0
C2123 C 0.41123 0.93751 0.3482 0.0
Co2124 Co 0.58334 0.13898 0.14508 0.0
Co2125 Co 0.62122 0.12781 0.10982 0.0
O2126 O 0.60661 0.12257 0.13603 0.0
C2127 C 0.61249 0.14005 0.18203 0.0
O2128 O 0.62739 0.14692 0.16939 0.0
C2129 C 0.60941 0.08152 0.10757 0.0
O2130 O 0.58978 0.08684 0.1095 0.0
O2131 O 0.59391 0.12529 0.09356 0.0
O2132 O 0.57256 0.14191 0.11535 0.0
H2133 H 0.63291 0.16103 0.03909 0.0
H2134 H 0.58994 0.09712 0.16411 0.0
O2135 O 0.59369 0.13619 0.17489 0.0
H2136 H 0.51756 0.09197 0.13303 0.0
H2137 H 0.52639 0.15744 0.19488 0.0
H2138 H 0.56355 0.17777 0.1301 0.0
H2139 H 0.53951 0.12507 0.13091 0.0
H2140 H 0.55427 0.13568 0.18122 0.0
O2141 O 0.62432 0.09597 0.10706 0.0
H2142 H 0.61488 0.15525 0.07277 0.0
H2143 H 0.65855 0.10949 0.0904 0.0
H2144 H 0.53575 0.19999 0.14322 0.0
H2145 H 0.56842 0.06373 0.16679 0.0
H2146 H 0.51727 0.19003 0.17606 0.0
H2147 H 0.53196 0.06101 0.15115 0.0
O2148 O 0.60091 0.1655 0.14236 0.0
H2149 H 0.67452 0.10596 0.16451 0.0
H2150 H 0.65811 0.15903 0.11087 0.0
H2151 H 0.69151 0.16311 0.1318 0.0
H2152 H 0.6999 0.13643 0.15883 0.0
H2153 H 0.64123 0.10259 0.14337 0.0
H2154 H 0.67697 0.11464 0.05684 0.0
H2155 H 0.66419 0.14062 0.03095 0.0
O2156 O 0.61831 0.15981 0.11252 0.0
C2157 C 0.57677 0.13404 0.09745 0.0
C2158 C 0.63867 0.14971 0.05027 0.0
C2159 C 0.66339 0.12365 0.06022 0.0
N2160 N 0.63578 0.13219 0.08358 0.0
C2161 C 0.62857 0.14643 0.06939 0.0
C2162 C 0.65287 0.12078 0.07917 0.0
C2163 C 0.65621 0.13824 0.04571 0.0
C2164 C 0.57403 0.09609 0.15742 0.0
N2165 N 0.56598 0.11304 0.14744 0.0
C2166 C 0.56194 0.07713 0.15892 0.0
C2167 C 0.54149 0.0756 0.15012 0.0
C2168 C 0.5334 0.09296 0.13995 0.0
C2169 C 0.54594 0.11165 0.13875 0.0
C2170 C 0.53444 0.162 0.18063 0.0
C2171 C 0.55534 0.17318 0.14422 0.0
C2172 C 0.55023 0.14974 0.17281 0.0
N2173 N 0.56048 0.15543 0.15485 0.0
C2174 C 0.53969 0.18587 0.15162 0.0
C2175 C 0.52928 0.18026 0.17002 0.0
C2176 C 0.61183 0.17214 0.12695 0.0
C2177 C 0.67108 0.11765 0.15274 0.0
C2178 C 0.66163 0.14738 0.12264 0.0
C2179 C 0.68058 0.14975 0.13441 0.0
C2180 C 0.68529 0.13477 0.14956 0.0
N2181 N 0.64779 0.13053 0.12582 0.0
C2182 C 0.65229 0.11577 0.14064 0.0
Co2183 Co 0.38744 0.13819 0.64164 0.0
Co2184 Co 0.39596 0.08537 0.64615 0.0
O2185 O 0.38075 0.10865 0.63478 0.0
C2186 C 0.34252 0.13021 0.65285 0.0
O2187 O 0.3496 0.11433 0.66362 0.0
C2188 C 0.39815 0.07586 0.59985 0.0
O2189 O 0.41011 0.09303 0.59679 0.0
O2190 O 0.4233 0.09896 0.63766 0.0
O2191 O 0.41928 0.13394 0.64049 0.0
H2192 H 0.45413 0.05134 0.68692 0.0
H2193 H 0.35768 0.1265 0.60599 0.0
O2194 O 0.35569 0.14235 0.643 0.0
H2195 H 0.41592 0.16915 0.57459 0.0
H2196 H 0.37554 0.21581 0.63698 0.0
H2197 H 0.41903 0.16177 0.66938 0.0
H2198 H 0.41608 0.16225 0.61286 0.0
H2199 H 0.36832 0.17804 0.62847 0.0
O2200 O 0.39201 0.07088 0.6182 0.0
H2201 H 0.43406 0.08113 0.6739 0.0
H2202 H 0.39077 0.03863 0.6407 0.0
H2203 H 0.42695 0.19936 0.67821 0.0
H2204 H 0.3568 0.13314 0.56767 0.0
H2205 H 0.4051 0.22667 0.66195 0.0
H2206 H 0.3861 0.15457 0.55173 0.0
O2207 O 0.38819 0.13224 0.67245 0.0
H2208 H 0.31947 0.06099 0.63616 0.0
H2209 H 0.38089 0.06543 0.68584 0.0
H2210 H 0.34695 0.0491 0.69732 0.0
H2211 H 0.31595 0.0468 0.67239 0.0
H2212 H 0.35367 0.07727 0.62536 0.0
H2213 H 0.41077 1.00847 0.65284 0.0
H2214 H 0.44252 0.01467 0.67633 0.0
O2215 O 0.39979 0.09937 0.6744 0.0
C2216 C 0.43085 0.11802 0.63808 0.0
C2217 C 0.44022 0.04841 0.67681 0.0
C2218 C 0.41587 0.02434 0.6577 0.0
N2219 N 0.41117 0.06164 0.65669 0.0
C2220 C 0.42873 0.06521 0.66948 0.0
C2221 C 0.40469 0.04151 0.65078 0.0
C2222 C 0.43372 0.02784 0.67085 0.0
C2223 C 0.3704 0.13598 0.59919 0.0
N2224 N 0.38685 0.14408 0.61165 0.0
C2225 C 0.36985 0.13962 0.57748 0.0
C2226 C 0.38631 0.15163 0.56854 0.0
C2227 C 0.40305 0.15981 0.58136 0.0
C2228 C 0.40308 0.15581 0.603 0.0
C2229 C 0.3852 0.20406 0.64414 0.0
C2230 C 0.40957 0.17359 0.66214 0.0
C2231 C 0.38115 0.18267 0.63941 0.0
N2232 N 0.39336 0.16778 0.6483 0.0
C2233 C 0.41407 0.19484 0.66725 0.0
C2234 C 0.40179 0.21014 0.65814 0.0
C2235 C 0.39496 0.11672 0.68283 0.0
C2236 C 0.33289 0.06184 0.64714 0.0
C2237 C 0.36746 0.06451 0.67491 0.0
C2238 C 0.3483 0.05522 0.68149 0.0
C2239 C 0.33091 0.05391 0.66748 0.0
N2240 N 0.3693 0.07221 0.65491 0.0
C2241 C 0.35232 0.07096 0.64109 0.0
Co2242 Co 0.43092 0.88906 0.15024 0.0
Co2243 Co 0.39297 0.89521 0.11086 0.0
O2244 O 0.40593 0.90178 0.13854 0.0
C2245 C 0.398 0.88035 0.18126 0.0
O2246 O 0.38514 0.87524 0.16524 0.0
C2247 C 0.40403 0.9415 0.10927 0.0
O2248 O 0.4234 0.93658 0.11425 0.0
O2249 O 0.42086 0.89749 0.09685 0.0
O2250 O 0.44495 0.89139 0.12263 0.0
H2251 H 0.38494 0.85842 0.04038 0.0
H2252 H 0.41386 0.9259 0.17182 0.0
O2253 O 0.41717 0.88636 0.17819 0.0
H2254 H 0.4862 0.94898 0.15222 0.0
H2255 H 0.4873 0.8782 0.20611 0.0
H2256 H 0.45886 0.85622 0.13567 0.0
H2257 H 0.47231 0.91267 0.14445 0.0
H2258 H 0.45593 0.89453 0.19067 0.0
O2259 O 0.38946 0.92681 0.1068 0.0
H2260 H 0.40138 0.86614 0.07553 0.0
H2261 H 0.35633 0.91191 0.08711 0.0
H2262 H 0.48965 0.83893 0.15081 0.0
H2263 H 0.42732 0.96225 0.18032 0.0
H2264 H 0.50444 0.85022 0.18607 0.0
H2265 H 0.46374 0.97402 0.17042 0.0
O2266 O 0.41935 0.86029 0.14242 0.0
H2267 H 0.33667 0.91826 0.15921 0.0
H2268 H 0.35684 0.86318 0.10934 0.0
H2269 H 0.32262 0.85919 0.12701 0.0
H2270 H 0.31235 0.88688 0.15214 0.0
H2271 H 0.3708 0.92153 0.14133 0.0
H2272 H 0.33948 0.9048 0.05201 0.0
H2273 H 0.35377 0.87783 0.02842 0.0
O2274 O 0.39649 0.86371 0.11499 0.0
C2275 C 0.43973 0.89488 0.10347 0.0
C2276 C 0.37853 0.87016 0.05054 0.0
C2277 C 0.35304 0.89622 0.05706 0.0
N2278 N 0.37971 0.88934 0.08338 0.0
C2279 C 0.38773 0.87455 0.07048 0.0
C2280 C 0.36266 0.90021 0.07688 0.0
C2281 C 0.36106 0.88107 0.04383 0.0
C2282 C 0.42982 0.93082 0.16774 0.0
N2283 N 0.44232 0.91715 0.15777 0.0
C2284 C 0.43732 0.95145 0.17249 0.0
C2285 C 0.45774 0.95805 0.16692 0.0
C2286 C 0.47039 0.94401 0.15674 0.0
C2287 C 0.46239 0.92349 0.1523 0.0
C2288 C 0.48116 0.87328 0.19064 0.0
C2289 C 0.46508 0.86112 0.15109 0.0
C2290 C 0.46343 0.88249 0.18181 0.0
N2291 N 0.45574 0.87649 0.1622 0.0
C2292 C 0.48259 0.85133 0.15956 0.0
C2293 C 0.49077 0.85759 0.1794 0.0
C2294 C 0.40683 0.85238 0.12801 0.0
C2295 C 0.34094 0.90613 0.14823 0.0
C2296 C 0.35249 0.87528 0.12027 0.0
C2297 C 0.33308 0.87295 0.1302 0.0
C2298 C 0.32732 0.8885 0.14429 0.0
N2299 N 0.36575 0.89262 0.12422 0.0
C2300 C 0.3602 0.90795 0.13798 0.0
Co2301 Co 0.65239 0.87294 0.64278 0.0
Co2302 Co 0.64175 0.92503 0.64633 0.0
O2303 O 0.65826 0.90242 0.63608 0.0
C2304 C 0.69797 0.88102 0.65471 0.0
O2305 O 0.6916 0.89625 0.66675 0.0
C2306 C 0.64181 0.93382 0.60005 0.0
O2307 O 0.63132 0.91583 0.59583 0.0
O2308 O 0.61539 0.91048 0.63499 0.0
O2309 O 0.62036 0.87633 0.64161 0.0
H2310 H 0.5802 0.95625 0.68154 0.0
H2311 H 0.68001 0.8846 0.60716 0.0
O2312 O 0.68427 0.86945 0.64403 0.0
H2313 H 0.62111 0.83995 0.57573 0.0
H2314 H 0.66558 0.79554 0.63824 0.0
H2315 H 0.62282 0.84932 0.67065 0.0
H2316 H 0.6228 0.8476 0.61399 0.0
H2317 H 0.67157 0.83322 0.62964 0.0
O2318 O 0.6463 0.93966 0.61898 0.0
H2319 H 0.60213 0.9275 0.67003 0.0
H2320 H 0.64532 0.97194 0.64233 0.0
H2321 H 0.61615 0.81182 0.67956 0.0
H2322 H 0.67903 0.87722 0.56885 0.0
H2323 H 0.63762 0.78463 0.6633 0.0
H2324 H 0.64939 0.85478 0.55289 0.0
O2325 O 0.65291 0.87973 0.6735 0.0
H2326 H 0.71756 0.95254 0.64392 0.0
H2327 H 0.65425 0.9457 0.68754 0.0
H2328 H 0.68686 0.9638 0.70225 0.0
H2329 H 0.71879 0.96737 0.68035 0.0
H2330 H 0.68465 0.9345 0.62986 0.0
H2331 H 0.62355 1.00113 0.65316 0.0
H2332 H 0.59089 0.9934 0.67306 0.0
O2333 O 0.63738 0.91081 0.67408 0.0
C2334 C 0.60828 0.89144 0.63702 0.0
C2335 C 0.5945 0.95985 0.67299 0.0
C2336 C 0.61885 0.98503 0.65706 0.0
N2337 N 0.62512 0.94803 0.65572 0.0
C2338 C 0.60704 0.94363 0.66652 0.0
C2339 C 0.63105 0.96842 0.65091 0.0
C2340 C 0.60048 0.98068 0.66821 0.0
C2341 C 0.66716 0.87468 0.60035 0.0
N2342 N 0.65156 0.86643 0.6128 0.0
C2343 C 0.66665 0.87062 0.57864 0.0
C2344 C 0.65 0.85804 0.5697 0.0
C2345 C 0.63412 0.84972 0.5825 0.0
C2346 C 0.63514 0.85414 0.60414 0.0
C2347 C 0.65609 0.80723 0.64539 0.0
C2348 C 0.63212 0.83756 0.66341 0.0
C2349 C 0.65944 0.82857 0.64062 0.0
N2350 N 0.64743 0.84339 0.6495 0.0
C2351 C 0.62833 0.81636 0.66856 0.0
C2352 C 0.6404 0.80112 0.65945 0.0
C2353 C 0.64421 0.89454 0.6832 0.0
C2354 C 0.70373 0.95115 0.65358 0.0
C2355 C 0.66811 0.94712 0.67794 0.0
C2356 C 0.68651 0.95743 0.68634 0.0
C2357 C 0.70442 0.95944 0.67404 0.0
N2358 N 0.66751 0.93917 0.6578 0.0
C2359 C 0.68503 0.94101 0.64568 0.0
Co2360 Co 0.88244 0.59759 0.90679 0.0
Co2361 Co 0.88847 0.65016 0.89511 0.0
O2362 O 0.89435 0.62084 0.89067 0.0
C2363 C 0.9288 0.59222 0.91 0.0
O2364 O 0.93172 0.61095 0.91886 0.0
C2365 C 0.87692 0.6415 0.84992 0.0
O2366 O 0.86457 0.62609 0.85711 0.0
O2367 O 0.85755 0.6432 0.89424 0.0
O2368 O 0.85432 0.61062 0.90803 0.0
H2369 H 0.85306 0.71097 0.92792 0.0
H2370 H 0.90288 0.58985 0.86598 0.0
O2371 O 0.91029 0.58442 0.90531 0.0
H2372 H 0.83063 0.55743 0.8578 0.0
H2373 H 0.87325 0.52076 0.92559 0.0
H2374 H 0.85489 0.59316 0.94388 0.0
H2375 H 0.84235 0.57539 0.89107 0.0
H2376 H 0.88683 0.55109 0.90489 0.0
O2377 O 0.88783 0.65348 0.86301 0.0
H2378 H 0.86084 0.67354 0.9231 0.0
H2379 H 0.90329 0.68993 0.87441 0.0
H2380 H 0.84083 0.56328 0.9649 0.0
H2381 H 0.89187 0.57193 0.83251 0.0
H2382 H 0.84998 0.52677 0.95576 0.0
H2383 H 0.85549 0.55556 0.82826 0.0
O2384 O 0.89134 0.61203 0.93365 0.0
H2385 H 0.96285 0.64671 0.86999 0.0
H2386 H 0.91761 0.67558 0.92421 0.0
H2387 H 0.95618 0.68358 0.92631 0.0
H2388 H 0.97906 0.66912 0.89904 0.0
H2389 H 0.92424 0.63898 0.86859 0.0
H2390 H 0.89586 0.72754 0.87855 0.0
H2391 H 0.87065 0.73825 0.90553 0.0
O2392 O 0.88883 0.64667 0.92728 0.0
C2393 C 0.84651 0.62757 0.90134 0.0
C2394 C 0.86414 0.7065 0.91616 0.0
C2395 C 0.88814 0.7158 0.88843 0.0
N2396 N 0.88265 0.67963 0.89864 0.0
C2397 C 0.86866 0.68535 0.91342 0.0
C2398 C 0.89226 0.6945 0.88613 0.0
C2399 C 0.87399 0.7218 0.90358 0.0
C2400 C 0.8871 0.5826 0.86433 0.0
N2401 N 0.87336 0.58349 0.88055 0.0
C2402 C 0.88092 0.57256 0.8453 0.0
C2403 C 0.86049 0.56342 0.84291 0.0
C2404 C 0.84653 0.56448 0.85947 0.0
C2405 C 0.85325 0.57469 0.87826 0.0
C2406 C 0.86907 0.53658 0.92965 0.0
C2407 C 0.85878 0.5773 0.93969 0.0
C2408 C 0.87672 0.55382 0.91801 0.0
N2409 N 0.87141 0.57384 0.92299 0.0
C2410 C 0.85085 0.56045 0.9517 0.0
C2411 C 0.85602 0.53996 0.94659 0.0
C2412 C 0.89102 0.63115 0.94 0.0
C2413 C 0.95304 0.65316 0.88193 0.0
C2414 C 0.92748 0.66921 0.91231 0.0
C2415 C 0.9493 0.67382 0.91356 0.0
C2416 C 0.96212 0.66571 0.89825 0.0
N2417 N 0.91869 0.65694 0.89622 0.0
C2418 C 0.93116 0.6489 0.88117 0.0
Co2419 Co 0.86651 0.42827 0.17264 0.0
Co2420 Co 0.90452 0.39497 0.15816 0.0
O2421 O 0.87696 0.40678 0.15429 0.0
C2422 C 0.82437 0.40907 0.1822 0.0
O2423 O 0.82889 0.41295 0.20225 0.0
C2424 C 0.90331 0.40998 0.1138 0.0
O2425 O 0.89902 0.42817 0.12225 0.0
O2426 O 0.91876 0.42371 0.15938 0.0
O2427 O 0.89539 0.44201 0.17716 0.0
H2428 H 0.97689 0.38858 0.19128 0.0
H2429 H 0.84647 0.42111 0.13009 0.0
O2430 O 0.83763 0.41439 0.16817 0.0
H2431 H 0.87289 0.49564 0.13123 0.0
H2432 H 0.81441 0.48123 0.19459 0.0
H2433 H 0.88043 0.44722 0.21391 0.0
H2434 H 0.87746 0.47333 0.16252 0.0
H2435 H 0.82876 0.45471 0.17095 0.0
O2436 O 0.90684 0.39442 0.12598 0.0
H2437 H 0.9416 0.4031 0.18723 0.0
H2438 H 0.92665 0.36177 0.13532 0.0
H2439 H 0.86665 0.47363 0.238 0.0
H2440 H 0.84147 0.44292 0.09846 0.0
H2441 H 0.83334 0.49072 0.22846 0.0
H2442 H 0.85478 0.48045 0.09889 0.0
O2443 O 0.87143 0.41021 0.19741 0.0
H2444 H 0.85381 0.33798 0.12861 0.0
H2445 H 0.90727 0.35657 0.18463 0.0
H2446 H 0.88948 0.32104 0.18395 0.0
H2447 H 0.86259 0.31153 0.15575 0.0
H2448 H 0.87188 0.37337 0.12997 0.0
H2449 H 0.96186 0.34693 0.13866 0.0
H2450 H 0.98722 0.36031 0.16686 0.0
O2451 O 0.90212 0.39556 0.19041 0.0
C2452 C 0.91372 0.43993 0.16973 0.0
C2453 C 0.96595 0.38257 0.17898 0.0
C2454 C 0.95753 0.35922 0.14942 0.0
N2455 N 0.93205 0.38316 0.16118 0.0
C2456 C 0.94593 0.39068 0.17666 0.0
C2457 C 0.93765 0.36771 0.14758 0.0
C2458 C 0.97175 0.36672 0.16525 0.0
C2459 C 0.8521 0.43749 0.13048 0.0
N2460 N 0.86213 0.44594 0.14818 0.0
C2461 C 0.84931 0.44973 0.11249 0.0
C2462 C 0.85683 0.47078 0.11272 0.0
C2463 C 0.86701 0.47931 0.13085 0.0
C2464 C 0.86959 0.46657 0.14851 0.0
C2465 C 0.82892 0.47385 0.19894 0.0
C2466 C 0.86599 0.45468 0.20958 0.0
C2467 C 0.83713 0.45887 0.18561 0.0
N2468 N 0.85544 0.44947 0.19103 0.0
C2469 C 0.85825 0.4696 0.2233 0.0
C2470 C 0.83955 0.47918 0.21794 0.0
C2471 C 0.88768 0.4005 0.20327 0.0
C2472 C 0.86555 0.34191 0.14094 0.0
C2473 C 0.89553 0.35257 0.17235 0.0
C2474 C 0.88554 0.33241 0.17203 0.0
C2475 C 0.87046 0.32709 0.15619 0.0
N2476 N 0.8907 0.36698 0.15728 0.0
C2477 C 0.87587 0.36191 0.14176 0.0
Co2478 Co 0.08237 0.36441 0.62206 0.0
Co2479 Co 0.12078 0.40323 0.61086 0.0
O2480 O 0.10671 0.37529 0.60669 0.0
C2481 C 0.09763 0.32513 0.6397 0.0
O2482 O 0.09167 0.33223 0.65803 0.0
C2483 C 0.10554 0.40213 0.56614 0.0
O2484 O 0.08728 0.39623 0.57411 0.0
O2485 O 0.09342 0.41748 0.61134 0.0
O2486 O 0.06948 0.39227 0.62124 0.0
H2487 H 0.13394 0.47474 0.64477 0.0
H2488 H 0.0949 0.34169 0.58369 0.0
O2489 O 0.09521 0.33616 0.62314 0.0
H2490 H 0.02299 0.3645 0.56751 0.0
H2491 H 0.02303 0.3113 0.63801 0.0
H2492 H 0.05864 0.37973 0.65824 0.0
H2493 H 0.03981 0.37158 0.60256 0.0
H2494 H 0.05409 0.32517 0.61879 0.0
O2495 O 0.12141 0.40639 0.57873 0.0
H2496 H 0.1161 0.43945 0.63997 0.0
H2497 H 0.15607 0.42626 0.58927 0.0
H2498 H 0.02801 0.36624 0.67817 0.0
H2499 H 0.07838 0.33373 0.54865 0.0
H2500 H 0.00964 0.33201 0.66784 0.0
H2501 H 0.04223 0.3453 0.54033 0.0
O2502 O 0.09704 0.37246 0.64935 0.0
H2503 H 0.17342 0.35418 0.58269 0.0
H2504 H 0.15947 0.40563 0.63872 0.0
H2505 H 0.19347 0.38828 0.63913 0.0
H2506 H 0.20064 0.3624 0.61093 0.0
H2507 H 0.13956 0.37177 0.58299 0.0
H2508 H 0.17426 0.46147 0.5934 0.0
H2509 H 0.16323 0.48595 0.62137 0.0
O2510 O 0.11992 0.40001 0.64284 0.0
C2511 C 0.07488 0.41123 0.6166 0.0
C2512 C 0.13893 0.46419 0.63257 0.0
C2513 C 0.16153 0.45676 0.60372 0.0
N2514 N 0.13516 0.43079 0.61446 0.0
C2515 C 0.12893 0.44417 0.62982 0.0
C2516 C 0.15116 0.43687 0.60142 0.0
C2517 C 0.15535 0.47048 0.61942 0.0
C2518 C 0.07899 0.3464 0.58034 0.0
N2519 N 0.06831 0.35698 0.59522 0.0
C2520 C 0.06978 0.34197 0.56042 0.0
C2521 C 0.04951 0.3485 0.55575 0.0
C2522 C 0.03869 0.35925 0.57101 0.0
C2523 C 0.04835 0.3633 0.5908 0.0
C2524 C 0.03073 0.32635 0.64255 0.0
C2525 C 0.05086 0.36473 0.65374 0.0
C2526 C 0.0483 0.33429 0.6317 0.0
N2527 N 0.05806 0.35332 0.6373 0.0
C2528 C 0.03344 0.35721 0.66503 0.0
C2529 C 0.02324 0.33795 0.65929 0.0
C2530 C 0.11061 0.38697 0.65544 0.0
C2531 C 0.1705 0.36548 0.59503 0.0
C2532 C 0.16245 0.39432 0.62645 0.0
C2533 C 0.18174 0.38459 0.62673 0.0
C2534 C 0.18576 0.37007 0.61089 0.0
N2535 N 0.1476 0.38979 0.61079 0.0
C2536 C 0.15139 0.37553 0.59525 0.0
Co2537 Co 0.14625 0.5877 0.11243 0.0
Co2538 Co 0.13439 0.6386 0.12442 0.0
O2539 O 0.13136 0.60825 0.12825 0.0
C2540 C 0.10117 0.57285 0.10655 0.0
O2541 O 0.09671 0.59115 0.09848 0.0
C2542 C 0.14529 0.6309 0.16949 0.0
O2543 O 0.15804 0.61714 0.16207 0.0
O2544 O 0.16574 0.63816 0.1254 0.0
O2545 O 0.17279 0.60614 0.11287 0.0
H2546 H 0.16348 0.70606 0.09283 0.0
H2547 H 0.1244 0.57475 0.15151 0.0
O2548 O 0.12005 0.56893 0.11205 0.0
H2549 H 0.19905 0.55858 0.16387 0.0
H2550 H 0.16466 0.51386 0.09292 0.0
H2551 H 0.17546 0.58949 0.07665 0.0
H2552 H 0.18743 0.57412 0.13022 0.0
H2553 H 0.14705 0.54071 0.11356 0.0
O2554 O 0.13465 0.64196 0.15653 0.0
H2555 H 0.15944 0.66743 0.09692 0.0
H2556 H 0.1157 0.6749 0.14574 0.0
H2557 H 0.19354 0.56322 0.05579 0.0
H2558 H 0.13528 0.55896 0.18526 0.0
H2559 H 0.18826 0.52518 0.0639 0.0
H2560 H 0.17287 0.55082 0.19164 0.0
O2561 O 0.13731 0.60053 0.0854 0.0
H2562 H 0.061 0.62018 0.14913 0.0
H2563 H 0.1031 0.65804 0.09562 0.0
H2564 H 0.06414 0.65831 0.09351 0.0
H2565 H 0.04283 0.63932 0.12043 0.0
H2566 H 0.09998 0.62019 0.15054 0.0
H2567 H 0.11938 0.71365 0.14231 0.0
H2568 H 0.14335 0.72944 0.11564 0.0
O2569 O 0.13441 0.63514 0.09223 0.0
C2570 C 0.17858 0.62477 0.11911 0.0
C2571 C 0.15292 0.69937 0.10445 0.0
C2572 C 0.12819 0.70362 0.13225 0.0
N2573 N 0.1372 0.66896 0.1214 0.0
C2574 C 0.15052 0.67751 0.10678 0.0
C2575 C 0.1262 0.6817 0.13415 0.0
C2576 C 0.14164 0.71248 0.11727 0.0
C2577 C 0.14073 0.57103 0.15405 0.0
N2578 N 0.15522 0.57522 0.13884 0.0
C2579 C 0.14682 0.56218 0.17324 0.0
C2580 C 0.16792 0.55765 0.17683 0.0
C2581 C 0.18262 0.56203 0.16126 0.0
C2582 C 0.17596 0.57088 0.14226 0.0
C2583 C 0.16717 0.53043 0.08929 0.0
C2584 C 0.17319 0.57295 0.08038 0.0
C2585 C 0.15721 0.5457 0.10089 0.0
N2586 N 0.16042 0.56666 0.09645 0.0
C2587 C 0.1834 0.55814 0.06846 0.0
C2588 C 0.18038 0.53676 0.07301 0.0
C2589 C 0.13476 0.6194 0.07931 0.0
C2590 C 0.07011 0.62857 0.13734 0.0
C2591 C 0.09393 0.6497 0.10735 0.0
C2592 C 0.07188 0.64994 0.10611 0.0
C2593 C 0.05993 0.63929 0.12122 0.0
N2594 N 0.10379 0.63922 0.12326 0.0
C2595 C 0.09219 0.6287 0.13811 0.0
Co2596 Co 0.92941 0.64018 0.62997 0.0
Co2597 Co 0.8777 0.63749 0.64453 0.0
O2598 O 0.90683 0.62973 0.6478 0.0
C2599 C 0.93378 0.5936 0.62807 0.0
O2600 O 0.91475 0.5907 0.61947 0.0
C2601 C 0.88884 0.64818 0.68948 0.0
O2602 O 0.90486 0.65943 0.68194 0.0
O2603 O 0.88668 0.66787 0.64511 0.0
O2604 O 0.91737 0.66874 0.62795 0.0
H2605 H 0.81775 0.67743 0.61398 0.0
H2606 H 0.9395 0.62071 0.67128 0.0
O2607 O 0.94183 0.61203 0.6322 0.0
H2608 H 0.97457 0.69193 0.67449 0.0
H2609 H 1.00522 0.6464 0.60761 0.0
H2610 H 0.93225 0.66607 0.59122 0.0
H2611 H 0.95378 0.67994 0.64278 0.0
H2612 H 0.9759 0.63454 0.63027 0.0
O2613 O 0.87591 0.63798 0.67669 0.0
H2614 H 0.85476 0.66717 0.61747 0.0
H2615 H 0.83819 0.62474 0.66654 0.0
H2616 H 0.96115 0.67845 0.56826 0.0
H2617 H 0.96025 0.63202 0.70324 0.0
H2618 H 0.99795 0.66862 0.57644 0.0
H2619 H 0.978 0.66786 0.70497 0.0
O2620 O 0.91285 0.63087 0.60416 0.0
H2621 H 0.87788 0.56263 0.66976 0.0
H2622 H 0.849 0.61037 0.61646 0.0
H2623 H 0.83856 0.57236 0.6148 0.0
H2624 H 0.85302 0.54823 0.64161 0.0
H2625 H 0.888 0.60071 0.67073 0.0
H2626 H 0.80102 0.63465 0.66372 0.0
H2627 H 0.7906 0.66111 0.63723 0.0
O2628 O 0.8794 0.63741 0.6123 0.0
C2629 C 0.90198 0.67778 0.63623 0.0
C2630 C 0.82208 0.66582 0.62553 0.0
C2631 C 0.81269 0.64183 0.65347 0.0
N2632 N 0.84854 0.64523 0.64204 0.0
C2633 C 0.84299 0.6599 0.62752 0.0
C2634 C 0.83375 0.63631 0.65502 0.0
C2635 C 0.80686 0.65667 0.63859 0.0
C2636 C 0.94727 0.63628 0.67186 0.0
N2637 N 0.94555 0.64957 0.6551 0.0
C2638 C 0.95894 0.64263 0.69003 0.0
C2639 C 0.96886 0.66275 0.69101 0.0
C2640 C 0.96692 0.67627 0.67392 0.0
C2641 C 0.95508 0.6694 0.65602 0.0
C2642 C 0.98927 0.65084 0.60394 0.0
C2643 C 0.94824 0.66185 0.59495 0.0
C2644 C 0.97258 0.64413 0.61667 0.0
N2645 N 0.9524 0.64977 0.61217 0.0
C2646 C 0.96453 0.66885 0.58186 0.0
C2647 C 0.98517 0.66331 0.58644 0.0
C2648 C 0.89352 0.6332 0.59887 0.0
C2649 C 0.87142 0.573 0.65803 0.0
C2650 C 0.85538 0.59995 0.62815 0.0
C2651 C 0.84939 0.57846 0.62716 0.0
C2652 C 0.85749 0.56492 0.64221 0.0
N2653 N 0.869 0.60775 0.64375 0.0
C2654 C 0.87704 0.59458 0.65855 0.0
Co2655 Co 0.14638 0.42257 0.84573 0.0
Co2656 Co 0.10898 0.38525 0.86006 0.0
O2657 O 0.13626 0.40044 0.86453 0.0
C2658 C 0.18245 0.39495 0.84944 0.0
O2659 O 0.16923 0.37909 0.844 0.0
C2660 C 0.10763 0.39897 0.90537 0.0
O2661 O 0.11029 0.41837 0.8985 0.0
O2662 O 0.09445 0.41229 0.85982 0.0
O2663 O 0.11702 0.43209 0.84054 0.0
H2664 H 0.03671 0.37111 0.82665 0.0
H2665 H 0.16521 0.4198 0.88896 0.0
O2666 O 0.17593 0.41358 0.85072 0.0
H2667 H 0.1378 0.49107 0.88447 0.0
H2668 H 0.19823 0.47988 0.82218 0.0
H2669 H 0.13172 0.43894 0.80441 0.0
H2670 H 0.13431 0.46665 0.85398 0.0
H2671 H 0.1841 0.45274 0.84644 0.0
O2672 O 0.10652 0.38353 0.89213 0.0
H2673 H 0.07169 0.38978 0.8314 0.0
H2674 H 0.08754 0.34865 0.88127 0.0
H2675 H 0.14511 0.46614 0.77986 0.0
H2676 H 0.1691 0.44376 0.91986 0.0
H2677 H 0.17866 0.48675 0.78863 0.0
H2678 H 0.15533 0.47968 0.91771 0.0
O2679 O 0.1427 0.40303 0.82122 0.0
H2680 H 0.16067 0.33397 0.88772 0.0
H2681 H 0.10722 0.34723 0.832 0.0
H2682 H 0.12597 0.3141 0.83127 0.0
H2683 H 0.15288 0.30729 0.8593 0.0
H2684 H 0.1417 0.36697 0.88774 0.0
H2685 H 0.05266 0.32962 0.87718 0.0
H2686 H 0.027 0.3408 0.84966 0.0
O2687 O 0.1112 0.38685 0.82784 0.0
C2688 C 0.09902 0.42854 0.84883 0.0
C2689 C 0.04778 0.36604 0.83865 0.0
C2690 C 0.05672 0.34278 0.86703 0.0
N2691 N 0.08169 0.37018 0.85647 0.0
C2692 C 0.06763 0.37651 0.84136 0.0
C2693 C 0.07643 0.35363 0.8693 0.0
C2694 C 0.04233 0.34905 0.85158 0.0
C2695 C 0.15929 0.43545 0.88789 0.0
N2696 N 0.14965 0.44184 0.86967 0.0
C2697 C 0.16148 0.44893 0.90544 0.0
C2698 C 0.15372 0.46907 0.90424 0.0
C2699 C 0.14388 0.47547 0.8856 0.0
C2700 C 0.14192 0.46155 0.8684 0.0
C2701 C 0.18359 0.47101 0.81818 0.0
C2702 C 0.14622 0.44799 0.80845 0.0
C2703 C 0.17554 0.45559 0.83183 0.0
N2704 N 0.15705 0.44435 0.82689 0.0
C2705 C 0.15376 0.46332 0.79445 0.0
C2706 C 0.1726 0.47486 0.79937 0.0
C2707 C 0.12599 0.3924 0.81517 0.0
C2708 C 0.14893 0.33672 0.87546 0.0
C2709 C 0.11896 0.3444 0.84422 0.0
C2710 C 0.12949 0.3256 0.84375 0.0
C2711 C 0.14457 0.32178 0.85949 0.0
N2712 N 0.12329 0.35896 0.85995 0.0
C2713 C 0.13806 0.35534 0.87544 0.0
Co2714 Co 0.09581 0.65855 0.35992 0.0
Co2715 Co 0.13318 0.62339 0.37439 0.0
O2716 O 0.11956 0.65003 0.3773 0.0
C2717 C 0.11259 0.69991 0.34496 0.0
O2718 O 0.10702 0.69371 0.32569 0.0
C2719 C 0.11882 0.6244 0.41872 0.0
O2720 O 0.1003 0.62804 0.4101 0.0
O2721 O 0.10531 0.607 0.37359 0.0
O2722 O 0.08279 0.6294 0.35908 0.0
H2723 H 0.14428 0.55196 0.34306 0.0
H2724 H 0.107 0.68176 0.39989 0.0
O2725 O 0.10911 0.68779 0.36057 0.0
H2726 H 0.03358 0.65359 0.40783 0.0
H2727 H 0.03922 0.70773 0.33848 0.0
H2728 H 0.07206 0.64089 0.32227 0.0
H2729 H 0.05245 0.64734 0.37502 0.0
H2730 H 0.0689 0.69582 0.36055 0.0
O2731 O 0.13436 0.62134 0.40666 0.0
H2732 H 0.12726 0.58595 0.34619 0.0
H2733 H 0.1684 0.60392 0.39798 0.0
H2734 H 0.04223 0.65206 0.29992 0.0
H2735 H 0.08866 0.68845 0.43296 0.0
H2736 H 0.02565 0.68575 0.30793 0.0
H2737 H 0.05171 0.67426 0.43711 0.0
O2738 O 0.11111 0.65226 0.33401 0.0
H2739 H 0.18712 0.678 0.40281 0.0
H2740 H 0.1716 0.62312 0.34825 0.0
H2741 H 0.20595 0.64335 0.34857 0.0
H2742 H 0.21392 0.67097 0.37605 0.0
H2743 H 0.15291 0.65752 0.40179 0.0
H2744 H 0.18577 0.57006 0.39554 0.0
H2745 H 0.17374 0.54384 0.36788 0.0
O2746 O 0.13211 0.62569 0.3421 0.0
C2747 C 0.08735 0.61119 0.36553 0.0
C2748 C 0.1497 0.56328 0.35514 0.0
C2749 C 0.17297 0.57343 0.38462 0.0
N2750 N 0.14695 0.59692 0.37214 0.0
C2751 C 0.14018 0.58257 0.35694 0.0
C2752 C 0.16305 0.59254 0.38595 0.0
C2753 C 0.16622 0.55873 0.36908 0.0
C2754 C 0.09084 0.67573 0.40149 0.0
N2755 N 0.08078 0.66429 0.38548 0.0
C2756 C 0.08057 0.67948 0.42029 0.0
C2757 C 0.05985 0.67148 0.42262 0.0
C2758 C 0.04968 0.65987 0.40621 0.0
C2759 C 0.06046 0.65636 0.38767 0.0
C2760 C 0.04629 0.69301 0.33482 0.0
C2761 C 0.06485 0.65551 0.32592 0.0
C2762 C 0.06311 0.68621 0.34725 0.0
N2763 N 0.07222 0.66769 0.34268 0.0
C2764 C 0.04799 0.66177 0.31319 0.0
C2765 C 0.0387 0.68068 0.31769 0.0
C2766 C 0.12369 0.63819 0.32873 0.0
C2767 C 0.18386 0.66597 0.39079 0.0
C2768 C 0.17492 0.63518 0.36019 0.0
C2769 C 0.19442 0.64654 0.36033 0.0
C2770 C 0.19888 0.66203 0.37576 0.0
N2771 N 0.16031 0.63908 0.37504 0.0
C2772 C 0.16454 0.65428 0.39017 0.0
Co2773 Co 0.93118 0.36755 0.39765 0.0
Co2774 Co 0.89286 0.40284 0.40811 0.0
O2775 O 0.90673 0.37641 0.4127 0.0
C2776 C 0.89838 0.33375 0.38929 0.0
O2777 O 0.88501 0.34857 0.38591 0.0
C2778 C 0.90611 0.40461 0.45381 0.0
O2779 O 0.92534 0.40191 0.44741 0.0
O2780 O 0.92048 0.41967 0.40868 0.0
O2781 O 0.94479 0.3963 0.40067 0.0
H2782 H 0.8812 0.47288 0.37443 0.0
H2783 H 0.91609 0.34342 0.43467 0.0
O2784 O 0.91764 0.33854 0.39433 0.0
H2785 H 0.98982 0.36706 0.45282 0.0
H2786 H 0.98391 0.3155 0.37571 0.0
H2787 H 0.95925 0.38727 0.36577 0.0
H2788 H 0.9737 0.37569 0.41828 0.0
H2789 H 0.95495 0.32818 0.39686 0.0
O2790 O 0.89091 0.40589 0.44016 0.0
H2791 H 0.89885 0.43947 0.37968 0.0
H2792 H 0.85678 0.42244 0.42853 0.0
H2793 H 0.98919 0.37573 0.34534 0.0
H2794 H 0.93163 0.33431 0.46934 0.0
H2795 H 1.00151 0.33942 0.34999 0.0
H2796 H 0.96875 0.34621 0.4786 0.0
O2797 O 0.91838 0.37527 0.37008 0.0
H2798 H 0.83917 0.34833 0.43354 0.0
H2799 H 0.85514 0.40131 0.37891 0.0
H2800 H 0.82128 0.38025 0.37682 0.0
H2801 H 0.81311 0.35354 0.40428 0.0
H2802 H 0.87291 0.3696 0.43493 0.0
H2803 H 0.83877 0.45576 0.42394 0.0
H2804 H 0.85093 0.4812 0.39666 0.0
O2805 O 0.89472 0.39972 0.37612 0.0
C2806 C 0.93936 0.41488 0.40496 0.0
C2807 C 0.87572 0.46189 0.38632 0.0
C2808 C 0.85192 0.4523 0.41413 0.0
N2809 N 0.87874 0.42898 0.40429 0.0
C2810 C 0.88561 0.44293 0.38932 0.0
C2811 C 0.86221 0.43349 0.4167 0.0
C2812 C 0.85875 0.46656 0.39882 0.0
C2813 C 0.9323 0.34849 0.43854 0.0
N2814 N 0.94401 0.35997 0.42445 0.0
C2815 C 0.94099 0.34335 0.45821 0.0
C2816 C 0.96181 0.35005 0.4634 0.0
C2817 C 0.97365 0.36176 0.44894 0.0
C2818 C 0.96443 0.36661 0.42943 0.0
C2819 C 0.97876 0.33137 0.3736 0.0
C2820 C 0.96489 0.37168 0.36833 0.0
C2821 C 0.96229 0.3386 0.38546 0.0
N2822 N 0.95543 0.35847 0.3826 0.0
C2823 C 0.98173 0.36515 0.35655 0.0
C2824 C 0.98861 0.3448 0.35914 0.0
C2825 C 0.90503 0.38827 0.36356 0.0
C2826 C 0.84252 0.35997 0.42152 0.0
C2827 C 0.85171 0.3897 0.39091 0.0
C2828 C 0.83249 0.37785 0.38966 0.0
C2829 C 0.82792 0.36288 0.40508 0.0
N2830 N 0.86594 0.38677 0.40709 0.0
C2831 C 0.86155 0.37214 0.42228 0.0
H2832 H 0.13998 0.31881 0.39849 0.0
H2833 H 0.08167 0.30361 0.36329 0.0
H2834 H 0.14467 0.28112 0.40371 0.0
H2835 H 0.08622 0.26627 0.36872 0.0
H2836 H 0.12428 0.21648 0.43422 0.0
H2837 H 0.12595 0.2536 0.42472 0.0
H2838 H 0.10809 0.23663 0.36029 0.0
H2839 H 0.10614 0.19937 0.36983 0.0
C2840 C 0.12832 0.30746 0.39167 0.0
C2841 C 0.11036 0.31419 0.38067 0.0
C2842 C 0.13094 0.28591 0.39475 0.0
C2843 C 0.11577 0.27074 0.38669 0.0
C2844 C 0.09831 0.27752 0.37493 0.0
C2845 C 0.09562 0.29897 0.37199 0.0
C2846 C 0.12087 0.22061 0.41798 0.0
C2847 C 0.1148 0.20498 0.40283 0.0
C2848 C 0.12202 0.2419 0.4125 0.0
C2849 C 0.11709 0.24805 0.39178 0.0
C2850 C 0.11175 0.23237 0.37645 0.0
C2851 C 0.11067 0.21104 0.38191 0.0
H2852 H 0.31193 0.59738 0.86501 0.0
H2853 H 0.31078 0.65723 0.8976 0.0
H2854 H 0.27377 0.59749 0.85873 0.0
H2855 H 0.27299 0.65828 0.89017 0.0
H2856 H 0.20669 0.60667 0.83918 0.0
H2857 H 0.24511 0.61081 0.84131 0.0
H2858 H 0.24121 0.64377 0.90106 0.0
H2859 H 0.20275 0.64077 0.89799 0.0
C2860 C 0.30352 0.61079 0.87037 0.0
C2861 C 0.31418 0.62719 0.88193 0.0
C2862 C 0.28163 0.61098 0.86669 0.0
C2863 C 0.27004 0.62785 0.87406 0.0
C2864 C 0.2811 0.64472 0.88475 0.0
C2865 C 0.30283 0.64424 0.88887 0.0
C2866 C 0.21414 0.61511 0.85257 0.0
C2867 C 0.20183 0.62342 0.86843 0.0
C2868 C 0.23619 0.6173 0.85394 0.0
C2869 C 0.2465 0.62739 0.8715 0.0
C2870 C 0.23401 0.6362 0.88709 0.0
C2871 C 0.21191 0.63445 0.88543 0.0
H2872 H 0.91444 0.8132 0.42019 0.0
H2873 H 0.85967 0.81367 0.37801 0.0
H2874 H 0.91591 0.77523 0.41495 0.0
H2875 H 0.86102 0.77528 0.37309 0.0
H2876 H 0.86221 0.70275 0.39764 0.0
H2877 H 0.85802 0.74099 0.3995 0.0
H2878 H 0.92263 0.75223 0.38085 0.0
H2879 H 0.92685 0.71451 0.37852 0.0
C2880 C 0.90269 0.80519 0.40981 0.0
C2881 C 0.88699 0.81643 0.39943 0.0
C2882 C 0.90357 0.78347 0.4068 0.0
C2883 C 0.88858 0.77242 0.39363 0.0
C2884 C 0.87269 0.78351 0.38339 0.0
C2885 C 0.87204 0.80542 0.38609 0.0
C2886 C 0.87545 0.71338 0.39375 0.0
C2887 C 0.89496 0.70548 0.38826 0.0
C2888 C 0.87299 0.73521 0.39472 0.0
C2889 C 0.89008 0.74943 0.39048 0.0
C2890 C 0.9093 0.74156 0.3844 0.0
C2891 C 0.91167 0.71989 0.38312 0.0
H2892 H 0.83029 0.38739 0.92448 0.0
H2893 H 0.82617 0.42918 0.87127 0.0
H2894 H 0.79214 0.38075 0.92272 0.0
H2895 H 0.78813 0.42155 0.86847 0.0
H2896 H 0.72566 0.35888 0.90734 0.0
H2897 H 0.76383 0.36411 0.90517 0.0
H2898 H 0.75615 0.42781 0.88328 0.0
H2899 H 0.71779 0.42176 0.88413 0.0
C2900 C 0.82122 0.39486 0.91216 0.0
C2901 C 0.83119 0.40883 0.89807 0.0
C2902 C 0.79929 0.39095 0.91099 0.0
C2903 C 0.78682 0.40051 0.89536 0.0
C2904 C 0.79699 0.41419 0.88099 0.0
C2905 C 0.81887 0.41847 0.88249 0.0
C2906 C 0.73221 0.37387 0.90177 0.0
C2907 C 0.71888 0.38993 0.8959 0.0
C2908 C 0.75413 0.377 0.90074 0.0
C2909 C 0.76333 0.39655 0.89442 0.0
C2910 C 0.74981 0.41244 0.88798 0.0
C2911 C 0.72779 0.40906 0.8885 0.0
H2912 H 0.10738 0.70126 0.66141 0.0
H2913 H 0.14647 0.69578 0.60707 0.0
H2914 H 0.11762 0.73868 0.66435 0.0
H2915 H 0.15565 0.73343 0.60895 0.0
H2916 H 0.18145 0.79841 0.62286 0.0
H2917 H 0.1746 0.76049 0.6259 0.0
H2918 H 0.11263 0.77123 0.64996 0.0
H2919 H 0.12042 0.80921 0.64831 0.0
C2920 C 0.11803 0.70815 0.64996 0.0
C2921 C 0.12614 0.69563 0.63402 0.0
C2922 C 0.12383 0.72968 0.65155 0.0
C2923 C 0.1375 0.73933 0.6369 0.0
C2924 C 0.14554 0.72665 0.6209 0.0
C2925 C 0.14014 0.70503 0.61965 0.0
C2926 C 0.16658 0.79255 0.62924 0.0
C2927 C 0.15148 0.80661 0.63543 0.0
C2928 C 0.16247 0.7708 0.63072 0.0
C2929 C 0.14285 0.76255 0.63778 0.0
C2930 C 0.12804 0.77681 0.64469 0.0
C2931 C 0.13243 0.79862 0.64374 0.0
H2932 H 0.71455 0.62478 0.09547 0.0
H2933 H 0.70174 0.6108 0.16069 0.0
H2934 H 0.75212 0.62966 0.10433 0.0
H2935 H 0.7395 0.6159 0.16958 0.0
H2936 H 0.81692 0.65265 0.12916 0.0
H2937 H 0.77851 0.65273 0.12413 0.0
H2938 H 0.77142 0.59662 0.16198 0.0
H2939 H 0.80957 0.5966 0.16722 0.0
C2940 C 0.71972 0.62288 0.11175 0.0
C2941 C 0.70514 0.61721 0.12735 0.0
C2942 C 0.74127 0.62588 0.11685 0.0
C2943 C 0.7488 0.62319 0.13766 0.0
C2944 C 0.73419 0.61792 0.15337 0.0
C2945 C 0.71256 0.61505 0.14829 0.0
C2946 C 0.80716 0.64051 0.13666 0.0
C2947 C 0.81639 0.62454 0.14846 0.0
C2948 C 0.78516 0.64049 0.13367 0.0
C2949 C 0.77193 0.62461 0.14255 0.0
C2950 C 0.78112 0.60919 0.15508 0.0
C2951 C 0.80306 0.60912 0.15795 0.0
H2952 H 0.8637 0.20586 0.61174 0.0
H2953 H 0.9014 0.1978 0.66876 0.0
H2954 H 0.86615 0.24373 0.61702 0.0
H2955 H 0.9036 0.23613 0.67419 0.0
H2956 H 0.92841 0.30368 0.6544 0.0
H2957 H 0.9218 0.26566 0.65577 0.0
H2958 H 0.85591 0.27293 0.63937 0.0
H2959 H 0.86258 0.31117 0.63765 0.0
C2960 C 0.87233 0.21213 0.62559 0.0
C2961 C 0.88256 0.19874 0.63972 0.0
C2962 C 0.87354 0.23392 0.62871 0.0
C2963 C 0.88508 0.24296 0.646 0.0
C2964 C 0.89473 0.2296 0.6606 0.0
C2965 C 0.8934 0.20766 0.65754 0.0
C2966 C 0.91245 0.29724 0.65121 0.0
C2967 C 0.89606 0.31045 0.64561 0.0
C2968 C 0.90864 0.27542 0.65223 0.0
C2969 C 0.88836 0.26627 0.64763 0.0
C2970 C 0.87178 0.27952 0.64277 0.0
C2971 C 0.87558 0.30141 0.64182 0.0
H2972 H 0.30865 0.41642 0.07042 0.0
H2973 H 0.31032 0.39764 0.13587 0.0
H2974 H 0.27024 0.41509 0.07045 0.0
H2975 H 0.2714 0.3961 0.13569 0.0
H2976 H 0.20042 0.3745 0.11104 0.0
H2977 H 0.23918 0.3741 0.11411 0.0
H2978 H 0.24433 0.43805 0.09139 0.0
H2979 H 0.20598 0.43866 0.08851 0.0
C2980 C 0.30083 0.41186 0.08481 0.0
C2981 C 0.31255 0.40722 0.1032 0.0
C2982 C 0.27882 0.41118 0.0848 0.0
C2983 C 0.26795 0.40558 0.10308 0.0
C2984 C 0.27951 0.4004 0.12139 0.0
C2985 C 0.3017 0.4014 0.12151 0.0
C2986 C 0.20987 0.38847 0.10678 0.0
C2987 C 0.20016 0.40656 0.09941 0.0
C2988 C 0.23197 0.38827 0.10869 0.0
C2989 C 0.24462 0.40602 0.10291 0.0
C2990 C 0.23489 0.42413 0.09582 0.0
C2991 C 0.21292 0.42445 0.09422 0.0
H2992 H 0.42091 0.10676 0.20961 0.0
H2993 H 0.36975 0.14878 0.20325 0.0
H2994 H 0.41641 0.10559 0.24746 0.0
H2995 H 0.36625 0.14929 0.24152 0.0
H2996 H 0.4186 0.11957 0.3163 0.0
H2997 H 0.42241 0.12275 0.27841 0.0
H2998 H 0.35539 0.13263 0.27132 0.0
H2999 H 0.3523 0.1313 0.30956 0.0
C3000 C 0.40884 0.11599 0.21647 0.0
C3001 C 0.39567 0.12784 0.2036 0.0
C3002 C 0.40638 0.11557 0.23827 0.0
C3003 C 0.39115 0.12761 0.24793 0.0
C3004 C 0.37794 0.13951 0.23486 0.0
C3005 C 0.37999 0.13937 0.2129 0.0
C3006 C 0.4048 0.1227 0.30656 0.0
C3007 C 0.3852 0.12524 0.31575 0.0
C3008 C 0.40685 0.12425 0.28474 0.0
C3009 C 0.38914 0.12758 0.27143 0.0
C3010 C 0.36952 0.13038 0.28084 0.0
C3011 C 0.36766 0.12952 0.30279 0.0
H3012 H 0.36809 0.90067 0.71257 0.0
H3013 H 0.42473 0.86626 0.70687 0.0
H3014 H 0.36739 0.89292 0.75008 0.0
H3015 H 0.4251 0.85971 0.74464 0.0
H3016 H 0.41491 0.83772 0.8103 0.0
H3017 H 0.41067 0.84164 0.7723 0.0
H3018 H 0.38301 0.90184 0.78218 0.0
H3019 H 0.38591 0.89691 0.82021 0.0
C3020 C 0.3805 0.89156 0.71945 0.0
C3021 C 0.39646 0.88404 0.70688 0.0
C3022 C 0.38022 0.88723 0.74102 0.0
C3023 C 0.39624 0.87574 0.75065 0.0
C3024 C 0.41218 0.86818 0.73789 0.0
C3025 C 0.41212 0.87205 0.71621 0.0
C3026 C 0.40763 0.8516 0.80424 0.0
C3027 C 0.4007 0.86701 0.81808 0.0
C3028 C 0.40539 0.85402 0.78244 0.0
C3029 C 0.39677 0.87223 0.77393 0.0
C3030 C 0.38941 0.88742 0.78796 0.0
C3031 C 0.39113 0.88469 0.8098 0.0
H3032 H 0.64455 0.88522 0.20577 0.0
H3033 H 0.57996 0.90427 0.20621 0.0
H3034 H 0.6461 0.88692 0.24458 0.0
H3035 H 0.58172 0.90622 0.24457 0.0
H3036 H 0.60481 0.93532 0.30838 0.0
H3037 H 0.60544 0.93142 0.27015 0.0
H3038 H 0.62458 0.86747 0.27688 0.0
H3039 H 0.62368 0.87118 0.31548 0.0
C3040 C 0.63074 0.88974 0.21411 0.0
C3041 C 0.61217 0.89467 0.20294 0.0
C3042 C 0.6316 0.89059 0.23624 0.0
C3043 C 0.61405 0.89678 0.24743 0.0
C3044 C 0.5955 0.90153 0.23626 0.0
C3045 C 0.59451 0.90034 0.2143 0.0
C3046 C 0.60924 0.92042 0.30179 0.0
C3047 C 0.61408 0.9035 0.31495 0.0
C3048 C 0.60955 0.91821 0.27991 0.0
C3049 C 0.61502 0.89915 0.27067 0.0
C3050 C 0.62041 0.88235 0.28371 0.0
C3051 C 0.61975 0.88443 0.30572 0.0
H3052 H 0.62351 0.17012 0.80417 0.0
H3053 H 0.6499 0.1099 0.81612 0.0
H3054 H 0.6285 0.16555 0.76653 0.0
H3055 H 0.65343 0.10431 0.77832 0.0
H3056 H 0.61537 0.1414 0.69994 0.0
H3057 H 0.61416 0.14792 0.73771 0.0
H3058 H 0.66984 0.11189 0.74734 0.0
H3059 H 0.66988 0.10416 0.70966 0.0
C3060 C 0.63037 0.15586 0.79863 0.0
C3061 C 0.63635 0.14037 0.81294 0.0
C3062 C 0.63301 0.15307 0.77701 0.0
C3063 C 0.64107 0.13437 0.7691 0.0
C3064 C 0.64749 0.11907 0.78364 0.0
C3065 C 0.6454 0.12218 0.80535 0.0
C3066 C 0.62735 0.13495 0.7102 0.0
C3067 C 0.64266 0.12224 0.70193 0.0
C3068 C 0.62681 0.13881 0.7319 0.0
C3069 C 0.64197 0.13055 0.74584 0.0
C3070 C 0.6576 0.11819 0.73734 0.0
C3071 C 0.65776 0.11386 0.71568 0.0
H3072 H 0.93824 0.80999 0.62028 0.0
H3073 H 0.87779 0.81144 0.64998 0.0
H3074 H 0.93709 0.77177 0.62287 0.0
H3075 H 0.87574 0.77293 0.65135 0.0
H3076 H 0.88553 0.70381 0.66522 0.0
H3077 H 0.88791 0.74225 0.66605 0.0
H3078 H 0.92067 0.74236 0.60695 0.0
H3079 H 0.91943 0.70403 0.60699 0.0
C3080 C 0.92467 0.80201 0.62734 0.0
C3081 C 0.9081 0.81353 0.63492 0.0
C3082 C 0.92385 0.78008 0.62862 0.0
C3083 C 0.90613 0.76908 0.63696 0.0
C3084 C 0.88976 0.78077 0.64504 0.0
C3085 C 0.89086 0.80283 0.64423 0.0
C3086 C 0.8932 0.71214 0.65242 0.0
C3087 C 0.90235 0.701 0.63606 0.0
C3088 C 0.89449 0.73419 0.65283 0.0
C3089 C 0.9046 0.74557 0.63664 0.0
C3090 C 0.91329 0.73426 0.62002 0.0
C3091 C 0.91241 0.71225 0.61989 0.0
H3092 H 0.8128 0.3912 0.14419 0.0
H3093 H 0.78827 0.40679 0.20503 0.0
H3094 H 0.7776 0.37865 0.13203 0.0
H3095 H 0.75277 0.39498 0.1926 0.0
H3096 H 0.6936 0.35728 0.16838 0.0
H3097 H 0.72958 0.36562 0.18187 0.0
H3098 H 0.74549 0.39378 0.12206 0.0
H3099 H 0.70998 0.38478 0.10842 0.0
C3100 C 0.79985 0.39196 0.15496 0.0
C3101 C 0.80325 0.40012 0.17551 0.0
C3102 C 0.77963 0.38488 0.14796 0.0
C3103 C 0.76226 0.38606 0.16123 0.0
C3104 C 0.7658 0.39365 0.18202 0.0
C3105 C 0.78612 0.40051 0.18912 0.0
C3106 C 0.70485 0.36515 0.15811 0.0
C3107 C 0.69898 0.37028 0.13732 0.0
C3108 C 0.72544 0.37003 0.16587 0.0
C3109 C 0.74049 0.38029 0.15303 0.0
C3110 C 0.73449 0.38546 0.13226 0.0
C3111 C 0.71404 0.38043 0.12447 0.0
H3112 H 0.10644 0.19498 0.60321 0.0
H3113 H 0.14608 0.20043 0.65988 0.0
H3114 H 0.10139 0.23271 0.60468 0.0
H3115 H 0.14139 0.23825 0.66098 0.0
H3116 H 0.10326 0.29717 0.67157 0.0
H3117 H 0.11274 0.26065 0.6687 0.0
H3118 H 0.1188 0.26756 0.6013 0.0
H3119 H 0.1088 0.30411 0.60409 0.0
C3120 C 0.1143 0.20423 0.61584 0.0
C3121 C 0.12654 0.1946 0.63152 0.0
C3122 C 0.11151 0.22592 0.61659 0.0
C3123 C 0.12092 0.23848 0.633 0.0
C3124 C 0.13367 0.22896 0.64831 0.0
C3125 C 0.13643 0.20727 0.6476 0.0
C3126 C 0.10676 0.29099 0.65614 0.0
C3127 C 0.10514 0.30352 0.63805 0.0
C3128 C 0.11234 0.27006 0.65452 0.0
C3129 C 0.11649 0.26117 0.63476 0.0
C3130 C 0.11543 0.27387 0.61671 0.0
C3131 C 0.10982 0.29484 0.61834 0.0
H3132 H 0.19837 0.6614 0.13445 0.0
H3133 H 0.21052 0.6026 0.10311 0.0
H3134 H 0.23582 0.67212 0.13312 0.0
H3135 H 0.24769 0.61362 0.1012 0.0
H3136 H 0.31628 0.63066 0.11523 0.0
H3137 H 0.27954 0.62005 0.12183 0.0
H3138 H 0.26125 0.6832 0.10758 0.0
H3139 H 0.29805 0.69397 0.10166 0.0
C3140 C 0.20899 0.65077 0.12726 0.0
C3141 C 0.20139 0.63115 0.11885 0.0
C3142 C 0.23045 0.65696 0.12641 0.0
C3143 C 0.24478 0.64375 0.11704 0.0
C3144 C 0.23719 0.62405 0.10885 0.0
C3145 C 0.21579 0.61779 0.10981 0.0
C3146 C 0.30444 0.64233 0.11373 0.0
C3147 C 0.31005 0.66313 0.1078 0.0
C3148 C 0.28336 0.63622 0.11738 0.0
C3149 C 0.2674 0.65071 0.11504 0.0
C3150 C 0.27314 0.67168 0.10976 0.0
C3151 C 0.29425 0.67784 0.10626 0.0
H3152 H 0.87568 0.19765 0.36988 0.0
H3153 H 0.85569 0.21328 0.43253 0.0
H3154 H 0.88232 0.23534 0.36269 0.0
H3155 H 0.86186 0.25079 0.42512 0.0
H3156 H 0.85858 0.3169 0.3958 0.0
H3157 H 0.84756 0.27933 0.39761 0.0
H3158 H 0.91065 0.26279 0.38219 0.0
H3159 H 0.92183 0.30019 0.38083 0.0
C3160 C 0.87242 0.20914 0.38195 0.0
C3161 C 0.86532 0.20263 0.40179 0.0
C3162 C 0.87623 0.23061 0.37785 0.0
C3163 C 0.87248 0.24582 0.39335 0.0
C3164 C 0.86465 0.23932 0.41288 0.0
C3165 C 0.86129 0.2179 0.41714 0.0
C3166 C 0.86998 0.30521 0.39252 0.0
C3167 C 0.89107 0.31136 0.38832 0.0
C3168 C 0.8637 0.28381 0.3936 0.0
C3169 C 0.87829 0.26832 0.38998 0.0
C3170 C 0.89911 0.27449 0.38485 0.0
C3171 C 0.9055 0.29584 0.38423 0.0
H3172 H 0.20298 0.35805 0.8463 0.0
H3173 H 0.2128 0.42379 0.86424 0.0
H3174 H 0.24008 0.35241 0.85535 0.0
H3175 H 0.24968 0.41814 0.87308 0.0
H3176 H 0.31391 0.35951 0.85187 0.0
H3177 H 0.27648 0.36313 0.84296 0.0
H3178 H 0.2697 0.39913 0.90028 0.0
H3179 H 0.30692 0.39573 0.90917 0.0
C3180 C 0.21303 0.37128 0.85211 0.0
C3181 C 0.20492 0.39136 0.85457 0.0
C3182 C 0.23428 0.36806 0.8572 0.0
C3183 C 0.24775 0.38481 0.86501 0.0
C3184 C 0.23962 0.40486 0.86737 0.0
C3185 C 0.21849 0.40811 0.86218 0.0
C3186 C 0.30442 0.36809 0.86264 0.0
C3187 C 0.31351 0.37741 0.88119 0.0
C3188 C 0.28295 0.37008 0.85757 0.0
C3189 C 0.2702 0.38154 0.87085 0.0
C3190 C 0.2792 0.39047 0.88957 0.0
C3191 C 0.30055 0.38841 0.8947 0.0
H3192 H 0.14834 0.83584 0.35138 0.0
H3193 H 0.12493 0.81563 0.41184 0.0
H3194 H 0.14464 0.79929 0.33846 0.0
H3195 H 0.12087 0.77963 0.3989 0.0
H3196 H 0.13422 0.71483 0.37994 0.0
H3197 H 0.14311 0.75147 0.38944 0.0
H3198 H 0.11709 0.77132 0.3295 0.0
H3199 H 0.10872 0.7344 0.31969 0.0
C3200 C 0.14235 0.82366 0.36185 0.0
C3201 C 0.13709 0.8286 0.38267 0.0
C3202 C 0.14019 0.80277 0.35445 0.0
C3203 C 0.13277 0.78655 0.36777 0.0
C3204 C 0.12717 0.79166 0.38841 0.0
C3205 C 0.12935 0.81238 0.39578 0.0
C3206 C 0.13065 0.72699 0.36866 0.0
C3207 C 0.12051 0.72182 0.3492 0.0
C3208 C 0.13565 0.74798 0.37414 0.0
C3209 C 0.13039 0.7643 0.3604 0.0
C3210 C 0.12137 0.75908 0.3404 0.0
C3211 C 0.11653 0.73796 0.33481 0.0
H3212 H 0.8219 0.64788 0.87302 0.0
H3213 H 0.81904 0.61012 0.92933 0.0
H3214 H 0.78349 0.64872 0.87182 0.0
H3215 H 0.7808 0.61213 0.92917 0.0
H3216 H 0.71544 0.66264 0.88557 0.0
H3217 H 0.75397 0.66223 0.88626 0.0
H3218 H 0.74998 0.59952 0.91285 0.0
H3219 H 0.71175 0.6008 0.91348 0.0
C3220 C 0.813 0.64005 0.88534 0.0
C3221 C 0.82336 0.62888 0.90123 0.0
C3222 C 0.79096 0.64062 0.88476 0.0
C3223 C 0.77883 0.63045 0.90036 0.0
C3224 C 0.78941 0.61968 0.91653 0.0
C3225 C 0.81139 0.61866 0.91678 0.0
C3226 C 0.72293 0.64883 0.89152 0.0
C3227 C 0.71073 0.63183 0.89959 0.0
C3228 C 0.74501 0.64848 0.89183 0.0
C3229 C 0.75529 0.63088 0.89974 0.0
C3230 C 0.74283 0.61363 0.90722 0.0
C3231 C 0.72086 0.61424 0.90741 0.0
H3232 H 0.61781 0.92439 0.81297 0.0
H3233 H 0.64887 0.86558 0.818 0.0
H3234 H 0.62196 0.92391 0.77498 0.0
H3235 H 0.65183 0.8642 0.77976 0.0
H3236 H 0.67098 0.87726 0.71196 0.0
H3237 H 0.66846 0.8777 0.75032 0.0
H3238 H 0.60895 0.90811 0.74431 0.0
H3239 H 0.61238 0.90887 0.70626 0.0
C3240 C 0.62536 0.91124 0.80586 0.0
C3241 C 0.63303 0.89504 0.81839 0.0
C3242 C 0.62758 0.91082 0.78401 0.0
C3243 C 0.63703 0.89388 0.77407 0.0
C3244 C 0.64477 0.87769 0.78675 0.0
C3245 C 0.643 0.87839 0.80869 0.0
C3246 C 0.65737 0.88395 0.71896 0.0
C3247 C 0.64195 0.89315 0.70623 0.0
C3248 C 0.65583 0.88414 0.74095 0.0
C3249 C 0.63857 0.89311 0.75062 0.0
C3250 C 0.62281 0.90163 0.73764 0.0
C3251 C 0.62463 0.9019 0.71576 0.0
H3252 H 0.64974 0.14931 0.2039 0.0
H3253 H 0.58645 0.12173 0.21093 0.0
H3254 H 0.65784 0.14208 0.24093 0.0
H3255 H 0.59474 0.11392 0.24756 0.0
H3256 H 0.60907 0.11812 0.31735 0.0
H3257 H 0.60164 0.12983 0.28151 0.0
H3258 H 0.66375 0.11244 0.2632 0.0
H3259 H 0.67143 0.10142 0.29915 0.0
C3260 C 0.63758 0.1417 0.21333 0.0
C3261 C 0.61747 0.13611 0.2045 0.0
C3262 C 0.64224 0.13746 0.23451 0.0
C3263 C 0.62693 0.12744 0.24722 0.0
C3264 C 0.60678 0.122 0.23836 0.0
C3265 C 0.60208 0.12635 0.21727 0.0
C3266 C 0.62118 0.11694 0.30569 0.0
C3267 C 0.64079 0.10875 0.31104 0.0
C3268 C 0.61689 0.12355 0.28513 0.0
C3269 C 0.63205 0.12194 0.26944 0.0
C3270 C 0.65183 0.11416 0.27495 0.0
C3271 C 0.65617 0.10771 0.29554 0.0
H3272 H 0.36743 0.13395 0.70954 0.0
H3273 H 0.42635 0.10281 0.70804 0.0
H3274 H 0.36865 0.13307 0.74806 0.0
H3275 H 0.42863 0.10329 0.74636 0.0
H3276 H 0.41846 0.08609 0.81351 0.0
H3277 H 0.41505 0.08695 0.77527 0.0
H3278 H 0.38356 0.14578 0.77949 0.0
H3279 H 0.38566 0.14383 0.81791 0.0
C3280 C 0.38087 0.12734 0.71755 0.0
C3281 C 0.39674 0.11835 0.70596 0.0
C3282 C 0.38166 0.12688 0.73963 0.0
C3283 C 0.39863 0.11787 0.75053 0.0
C3284 C 0.41493 0.10971 0.7387 0.0
C3285 C 0.41381 0.10965 0.7167 0.0
C3286 C 0.41063 0.09906 0.80619 0.0
C3287 C 0.40229 0.11487 0.81856 0.0
C3288 C 0.40887 0.09975 0.78422 0.0
C3289 C 0.39933 0.11664 0.77406 0.0
C3290 C 0.39076 0.13235 0.7866 0.0
C3291 C 0.39201 0.13133 0.80864 0.0
H3292 H 0.35774 0.88622 0.19351 0.0
H3293 H 0.42053 0.87468 0.21767 0.0
H3294 H 0.34557 0.88959 0.22978 0.0
H3295 H 0.40816 0.87742 0.25379 0.0
H3296 H 0.37063 0.86654 0.31518 0.0
H3297 H 0.37717 0.85743 0.27828 0.0
H3298 H 0.36099 0.91987 0.25927 0.0
H3299 H 0.35508 0.92923 0.29609 0.0
C3300 C 0.36879 0.884 0.20656 0.0
C3301 C 0.39008 0.88031 0.20288 0.0
C3302 C 0.36184 0.88594 0.22721 0.0
C3303 C 0.37595 0.88363 0.2444 0.0
C3304 C 0.39698 0.87904 0.24072 0.0
C3305 C 0.40406 0.87762 0.22011 0.0
C3306 C 0.36812 0.87816 0.30305 0.0
C3307 C 0.36245 0.8986 0.30839 0.0
C3308 C 0.37191 0.87297 0.28204 0.0
C3309 C 0.36949 0.88797 0.26611 0.0
C3310 C 0.36275 0.90802 0.27133 0.0
C3311 C 0.35949 0.91338 0.29234 0.0
H3312 H 0.1414 0.08042 0.56945 0.0
H3313 H 0.07458 0.06266 0.56934 0.0
H3314 H 0.14262 0.07072 0.53263 0.0
H3315 H 0.07606 0.05181 0.5325 0.0
H3316 H 0.07984 0.09749 0.4744 0.0
H3317 H 0.07739 0.07989 0.50788 0.0
H3318 H 0.13839 0.05389 0.49871 0.0
H3319 H 0.14087 0.07223 0.46483 0.0
C3320 C 0.12714 0.07346 0.56186 0.0
C3321 C 0.10762 0.07348 0.57194 0.0
C3322 C 0.1279 0.06765 0.54063 0.0
C3323 C 0.10917 0.06148 0.5293 0.0
C3324 C 0.09059 0.05736 0.54062 0.0
C3325 C 0.08975 0.06352 0.56179 0.0
C3326 C 0.09247 0.08755 0.47926 0.0
C3327 C 0.11078 0.08664 0.46741 0.0
C3328 C 0.09096 0.07711 0.49839 0.0
C3329 C 0.10785 0.06562 0.50625 0.0
C3330 C 0.12523 0.06284 0.49323 0.0
C3331 C 0.12666 0.07326 0.47385 0.0
H3332 H 0.41334 0.60733 0.97254 0.0
H3333 H 0.4447 0.6649 0.95099 0.0
H3334 H 0.43013 0.6125 1.0071 0.0
H3335 H 0.46169 0.67027 0.98596 0.0
H3336 H 0.44738 0.62511 0.06963 0.0
H3337 H 0.45922 0.61889 0.0338 0.0
H3338 H 0.43911 0.68038 0.01558 0.0
H3339 H 0.42742 0.68646 0.05112 0.0
C3340 C 0.42455 0.62068 0.97502 0.0
C3341 C 0.42739 0.63598 0.95937 0.0
C3342 C 0.43441 0.62355 0.9948 0.0
C3343 C 0.44703 0.64199 0.99939 0.0
C3344 C 0.45192 0.656 0.98289 0.0
C3345 C 0.44222 0.65294 0.9629 0.0
C3346 C 0.44659 0.63771 0.05822 0.0
C3347 C 0.43604 0.65604 0.06285 0.0
C3348 C 0.45331 0.63413 0.03771 0.0
C3349 C 0.44959 0.6489 0.02175 0.0
C3350 C 0.4422 0.66863 0.02743 0.0
C3351 C 0.43532 0.67209 0.0478 0.0
H3352 H 0.86256 0.92783 0.47448 0.0
H3353 H 0.92618 0.94658 0.45748 0.0
H3354 H 0.87064 0.93843 0.51088 0.0
H3355 H 0.93424 0.95837 0.49376 0.0
H3356 H 0.94582 0.91852 0.55502 0.0
H3357 H 0.93989 0.93309 0.52035 0.0
H3358 H 0.88214 0.95921 0.54137 0.0
H3359 H 0.88828 0.94405 0.57637 0.0
C3360 C 0.8779 0.93545 0.47838 0.0
C3361 C 0.89381 0.93639 0.46345 0.0
C3362 C 0.88259 0.94162 0.49926 0.0
C3363 C 0.90329 0.94883 0.5054 0.0
C3364 C 0.91829 0.95245 0.48964 0.0
C3365 C 0.91368 0.94589 0.46886 0.0
C3366 C 0.93246 0.92831 0.55249 0.0
C3367 C 0.9175 0.93024 0.56816 0.0
C3368 C 0.929 0.93678 0.53259 0.0
C3369 C 0.91031 0.9471 0.52789 0.0
C3370 C 0.89655 0.95111 0.54441 0.0
C3371 C 0.90013 0.94266 0.56448 0.0
H3372 H 0.58382 0.38509 0.95086 0.0
H3373 H 0.62037 0.33302 0.97089 0.0
H3374 H 0.56494 0.38359 0.98425 0.0
H3375 H 0.6019 0.33132 1.00381 0.0
H3376 H 0.57995 0.33165 0.06394 0.0
H3377 H 0.57189 0.32733 0.02622 0.0
H3378 H 0.5811 0.39478 0.01841 0.0
H3379 H 0.58807 0.39895 0.05619 0.0
C3380 C 0.58705 0.37273 0.96201 0.0
C3381 C 0.60345 0.35918 0.95857 0.0
C3382 C 0.57638 0.37192 0.98112 0.0
C3383 C 0.58197 0.35745 0.9968 0.0
C3384 C 0.59686 0.34248 0.9921 0.0
C3385 C 0.60761 0.34348 0.97326 0.0
C3386 C 0.57888 0.34559 0.05427 0.0
C3387 C 0.58466 0.36559 0.06272 0.0
C3388 C 0.57445 0.34315 0.03268 0.0
C3389 C 0.57653 0.36062 0.01922 0.0
C3390 C 0.57932 0.38096 0.02826 0.0
C3391 C 0.58335 0.38342 0.04995 0.0
H3392 H 0.1476 0.93827 0.57468 0.0
H3393 H 0.19272 0.90055 0.54395 0.0
H3394 H 0.14108 0.95677 0.54134 0.0
H3395 H 0.18676 0.91911 0.51112 0.0
H3396 H 0.17589 0.94756 0.45328 0.0
H3397 H 0.18685 0.95308 0.49026 0.0
H3398 H 0.12275 0.93801 0.50888 0.0
H3399 H 0.11195 0.93263 0.47193 0.0
C3400 C 0.15678 0.93464 0.56104 0.0
C3401 C 0.1706 0.91804 0.56168 0.0
C3402 C 0.15303 0.94515 0.54203 0.0
C3403 C 0.16346 0.93945 0.52367 0.0
C3404 C 0.17874 0.92416 0.52503 0.0
C3405 C 0.18208 0.9134 0.54378 0.0
C3406 C 0.16395 0.94685 0.46523 0.0
C3407 C 0.14311 0.93982 0.45994 0.0
C3408 C 0.17022 0.94983 0.48638 0.0
C3409 C 0.15573 0.94561 0.50244 0.0
C3410 C 0.13424 0.94154 0.49687 0.0
C3411 C 0.128 0.93851 0.4757 0.0
H3412 H 0.57569 0.58667 0.94857 0.0
H3413 H 0.59616 0.65132 0.96223 0.0
H3414 H 0.56023 0.58389 0.98349 0.0
H3415 H 0.58128 0.64866 0.99688 0.0
H3416 H 0.57251 0.64092 0.06182 0.0
H3417 H 0.5581 0.6416 0.02567 0.0
H3418 H 0.58427 0.58124 0.01328 0.0
H3419 H 0.59803 0.58042 0.04916 0.0
C3420 C 0.57588 0.60059 0.9586 0.0
C3421 C 0.5875 0.61904 0.95308 0.0
C3422 C 0.56718 0.59899 0.97865 0.0
C3423 C 0.57015 0.61581 0.99328 0.0
C3424 C 0.57872 0.63531 0.98621 0.0
C3425 C 0.58742 0.63685 0.96631 0.0
C3426 C 0.57437 0.62743 0.05158 0.0
C3427 C 0.58698 0.61095 0.05802 0.0
C3428 C 0.56615 0.62782 0.03086 0.0
C3429 C 0.57049 0.61176 0.01637 0.0
C3430 C 0.58056 0.59393 0.02386 0.0
C3431 C 0.58876 0.59357 0.04445 0.0
H3432 H 0.83089 0.09069 0.46991 0.0
H3433 H 0.89331 0.07047 0.45702 0.0
H3434 H 0.83356 0.07684 0.5053 0.0
H3435 H 0.89607 0.05622 0.49272 0.0
H3436 H 0.90404 0.09689 0.55665 0.0
H3437 H 0.90146 0.08181 0.52145 0.0
H3438 H 0.83979 0.05334 0.53485 0.0
H3439 H 0.84249 0.06881 0.57044 0.0
C3440 C 0.8448 0.08233 0.4744 0.0
C3441 C 0.86211 0.08209 0.46106 0.0
C3442 C 0.8463 0.07417 0.49468 0.0
C3443 C 0.86529 0.06591 0.50206 0.0
C3444 C 0.88138 0.06283 0.48757 0.0
C3445 C 0.87979 0.0709 0.46712 0.0
C3446 C 0.89032 0.08665 0.55237 0.0
C3447 C 0.87323 0.08441 0.56594 0.0
C3448 C 0.8889 0.07777 0.5322 0.0
C3449 C 0.87017 0.06673 0.52512 0.0
C3450 C 0.85428 0.06204 0.53978 0.0
C3451 C 0.85582 0.07083 0.56015 0.0
H3452 H 0.4176 0.361 0.96505 0.0
H3453 H 0.44764 0.42016 0.94605 0.0
H3454 H 0.4335 0.36538 0.99999 0.0
H3455 H 0.46404 0.42464 0.98139 0.0
H3456 H 0.43091 0.43938 0.04656 0.0
H3457 H 0.44291 0.4339 0.01112 0.0
H3458 H 0.46018 0.37099 0.02772 0.0
H3459 H 0.44755 0.37642 0.06333 0.0
C3460 C 0.42842 0.37454 0.96816 0.0
C3461 C 0.43104 0.39048 0.95311 0.0
C3462 C 0.43777 0.377 0.9882 0.0
C3463 C 0.44977 0.39561 0.99368 0.0
C3464 C 0.45463 0.41028 0.97771 0.0
C3465 C 0.44533 0.4077 0.95747 0.0
C3466 C 0.43812 0.42471 0.04292 0.0
C3467 C 0.43764 0.40807 0.05742 0.0
C3468 C 0.44522 0.42158 0.02257 0.0
C3469 C 0.45189 0.40172 0.01636 0.0
C3470 C 0.45466 0.3863 0.03193 0.0
C3471 C 0.44752 0.38945 0.05237 0.0
H3472 H 0.55124 0.09993 0.089 0.0
H3473 H 0.56214 0.16537 0.07306 0.0
H3474 H 0.51476 0.10105 0.07721 0.0
H3475 H 0.52582 0.16639 0.05927 0.0
H3476 H 0.46083 0.17084 0.09113 0.0
H3477 H 0.49659 0.1697 0.07887 0.0
H3478 H 0.48395 0.1047 0.05882 0.0
H3479 H 0.44855 0.10569 0.07309 0.0
C3480 C 0.54606 0.1142 0.08161 0.0
C3481 C 0.55924 0.13258 0.08198 0.0
C3482 C 0.52501 0.11494 0.07475 0.0
C3483 C 0.51689 0.13409 0.06785 0.0
C3484 C 0.5312 0.1516 0.06525 0.0
C3485 C 0.55212 0.15099 0.07277 0.0
C3486 C 0.46553 0.15662 0.08332 0.0
C3487 C 0.45224 0.13832 0.08312 0.0
C3488 C 0.48611 0.15589 0.07614 0.0
C3489 C 0.49362 0.13685 0.0683 0.0
C3490 C 0.47909 0.1194 0.06546 0.0
C3491 C 0.45871 0.11998 0.07332 0.0
H3492 H 0.36195 0.95075 0.5759 0.0
H3493 H 0.42296 0.96512 0.60599 0.0
H3494 H 0.3644 0.98481 0.55779 0.0
H3495 H 0.42555 0.99866 0.58825 0.0
H3496 H 0.42724 0.06085 0.57333 0.0
H3497 H 0.42572 0.02447 0.56015 0.0
H3498 H 0.36025 0.01727 0.57772 0.0
H3499 H 0.36184 0.05338 0.59045 0.0
C3500 C 0.37624 0.9608 0.57791 0.0
C3501 C 0.39204 0.9557 0.59266 0.0
C3502 C 0.37766 0.98026 0.56758 0.0
C3503 C 0.39499 0.99467 0.57182 0.0
C3504 C 0.412 0.98807 0.58443 0.0
C3505 C 0.41043 0.96889 0.59488 0.0
C3506 C 0.41222 0.05184 0.57311 0.0
C3507 C 0.39481 0.05955 0.58337 0.0
C3508 C 0.41135 0.03096 0.56569 0.0
C3509 C 0.39313 0.01771 0.56867 0.0
C3510 C 0.37464 0.02685 0.57533 0.0
C3511 C 0.37554 0.0476 0.58277 0.0
H3512 H 0.47033 0.92561 0.10371 0.0
H3513 H 0.44867 0.86813 0.07148 0.0
H3514 H 0.50454 0.92395 0.08778 0.0
H3515 H 0.48322 0.86633 0.05497 0.0
H3516 H 0.553 0.85374 0.0822 0.0
H3517 H 0.51587 0.85729 0.07294 0.0
H3518 H 0.52882 0.92333 0.05954 0.0
H3519 H 0.5658 0.91983 0.07009 0.0
C3520 C 0.47272 0.9131 0.0924 0.0
C3521 C 0.4571 0.897 0.08876 0.0
C3522 C 0.49231 0.91215 0.08308 0.0
C3523 C 0.49675 0.89489 0.0701 0.0
C3524 C 0.48033 0.87975 0.06497 0.0
C3525 C 0.46056 0.88082 0.07426 0.0
C3526 C 0.54811 0.86867 0.07603 0.0
C3527 C 0.56202 0.88658 0.07705 0.0
C3528 C 0.52675 0.87078 0.07074 0.0
C3529 C 0.51924 0.8908 0.06618 0.0
C3530 C 0.53403 0.90783 0.06357 0.0
C3531 C 0.55525 0.90582 0.06934 0.0
H3532 H 0.68103 0.05633 0.57361 0.0
H3533 H 0.61696 0.04527 0.59385 0.0
H3534 H 0.67949 0.02134 0.55678 0.0
H3535 H 0.61528 0.01072 0.57745 0.0
H3536 H 0.61506 0.94674 0.56875 0.0
H3537 H 0.61783 0.9818 0.5529 0.0
H3538 H 0.6812 0.99123 0.57966 0.0
H3539 H 0.67836 0.95649 0.59501 0.0
C3540 C 0.66631 0.04682 0.57355 0.0
C3541 C 0.64929 0.05308 0.58541 0.0
C3542 C 0.66541 0.02679 0.56398 0.0
C3543 C 0.64749 0.01293 0.56626 0.0
C3544 C 0.62939 0.02077 0.57533 0.0
C3545 C 0.63038 0.04058 0.58498 0.0
C3546 C 0.62995 0.95591 0.57014 0.0
C3547 C 0.64631 0.94933 0.58349 0.0
C3548 C 0.63154 0.97603 0.56117 0.0
C3549 C 0.64942 0.98966 0.56566 0.0
C3550 C 0.66709 0.98137 0.57593 0.0
C3551 C 0.66546 0.96143 0.58493 0.0
H3552 H 0.48837 0.83045 0.92088 0.0
H3553 H 0.45823 0.88227 0.94994 0.0
H3554 H 0.52234 0.84328 0.93587 0.0
H3555 H 0.49252 0.89554 0.96487 0.0
H3556 H 0.55109 0.92465 0.92444 0.0
H3557 H 0.51792 0.91083 0.93844 0.0
H3558 H 0.54934 0.85704 0.96317 0.0
H3559 H 0.58285 0.87132 0.94926 0.0
C3560 C 0.48892 0.84397 0.93149 0.0
C3561 C 0.47088 0.8555 0.93418 0.0
C3562 C 0.50838 0.85133 0.94019 0.0
C3563 C 0.51018 0.87065 0.95128 0.0
C3564 C 0.49159 0.88067 0.9563 0.0
C3565 C 0.47197 0.87305 0.94784 0.0
C3566 C 0.55111 0.91051 0.93392 0.0
C3567 C 0.56932 0.89893 0.93569 0.0
C3568 C 0.53211 0.90257 0.94207 0.0
C3569 C 0.53094 0.88264 0.95165 0.0
C3570 C 0.5498 0.87239 0.95577 0.0
C3571 C 0.56897 0.88058 0.9479 0.0
H3572 H 0.64943 0.95334 0.45166 0.0
H3573 H 0.58592 0.96538 0.43025 0.0
H3574 H 0.65344 0.98905 0.46645 0.0
H3575 H 0.59 1.0009 0.44427 0.0
H3576 H 0.60087 0.06627 0.45078 0.0
H3577 H 0.59776 0.03117 0.46662 0.0
H3578 H 0.65868 0.01734 0.44203 0.0
H3579 H 0.66172 0.05211 0.42682 0.0
C3580 C 0.63601 0.96327 0.45095 0.0
C3581 C 0.61764 0.95696 0.4392 0.0
C3582 C 0.63832 0.98376 0.45933 0.0
C3583 C 0.62235 0.99812 0.45588 0.0
C3584 C 0.60275 0.99046 0.44717 0.0
C3585 C 0.60045 0.97007 0.43886 0.0
C3586 C 0.61397 0.05601 0.44976 0.0
C3587 C 0.63128 0.06151 0.43722 0.0
C3588 C 0.61219 0.0359 0.45872 0.0
C3589 C 0.62769 0.02119 0.45514 0.0
C3590 C 0.64638 0.02809 0.44521 0.0
C3591 C 0.64808 0.04802 0.43623 0.0
H3592 H 0.48421 0.08796 0.93207 0.0
H3593 H 0.45605 0.14662 0.94633 0.0
H3594 H 0.51886 0.10339 0.94243 0.0
H3595 H 0.49093 0.16239 0.95656 0.0
H3596 H 0.54624 0.178 0.90683 0.0
H3597 H 0.51395 0.16833 0.92498 0.0
H3598 H 0.54771 0.12438 0.9633 0.0
H3599 H 0.58041 0.1346 0.94515 0.0
C3600 C 0.48531 0.10375 0.93879 0.0
C3601 C 0.46765 0.11618 0.93833 0.0
C3602 C 0.5052 0.11267 0.94475 0.0
C3603 C 0.50767 0.13428 0.94984 0.0
C3604 C 0.48947 0.14574 0.95253 0.0
C3605 C 0.46948 0.13669 0.94682 0.0
C3606 C 0.54695 0.16703 0.91983 0.0
C3607 C 0.56561 0.15688 0.92453 0.0
C3608 C 0.52849 0.16157 0.9304 0.0
C3609 C 0.52824 0.14545 0.94551 0.0
C3610 C 0.54748 0.13686 0.95174 0.0
C3611 C 0.56615 0.1427 0.9414 0.0
H3612 H 0.35074 0.95667 0.44196 0.0
H3613 H 0.41263 0.96725 0.4162 0.0
H3614 H 0.35359 0.99188 0.45826 0.0
H3615 H 0.41532 1.00237 0.43117 0.0
H3616 H 0.4166 0.06693 0.44307 0.0
H3617 H 0.41667 0.0303 0.45454 0.0
H3618 H 0.34923 0.02355 0.44103 0.0
H3619 H 0.3492 0.06045 0.43144 0.0
C3620 C 0.36529 0.96627 0.44059 0.0
C3621 C 0.3815 0.95952 0.42796 0.0
C3622 C 0.36687 0.9865 0.44966 0.0
C3623 C 0.38444 1.00033 0.44565 0.0
C3624 C 0.40159 0.99238 0.43491 0.0
C3625 C 0.40009 0.97217 0.42616 0.0
C3626 C 0.40171 0.05776 0.4437 0.0
C3627 C 0.38292 0.0662 0.43631 0.0
C3628 C 0.40171 0.03674 0.45002 0.0
C3629 C 0.38312 0.02361 0.44795 0.0
C3630 C 0.36391 0.03297 0.44294 0.0
C3631 C 0.36382 0.05418 0.43732 0.0
H3632 H 0.06467 0.44707 0.12731 0.0
H3633 H 0.08376 0.46089 0.06377 0.0
H3634 H 0.05193 0.48256 0.13065 0.0
H3635 H 0.07168 0.49625 0.06722 0.0
H3636 H 0.06938 0.56165 0.07786 0.0
H3637 H 0.05127 0.52658 0.07506 0.0
H3638 H 0.07951 0.51013 0.13523 0.0
H3639 H 0.09715 0.54473 0.13788 0.0
C3640 C 0.06525 0.45732 0.11372 0.0
C3641 C 0.07594 0.4516 0.09558 0.0
C3642 C 0.058 0.47768 0.11565 0.0
C3643 C 0.06155 0.4925 0.09953 0.0
C3644 C 0.06884 0.48541 0.08008 0.0
C3645 C 0.07602 0.46512 0.07815 0.0
C3646 C 0.07082 0.55077 0.09085 0.0
C3647 C 0.08498 0.55553 0.10782 0.0
C3648 C 0.06052 0.53072 0.08926 0.0
C3649 C 0.06427 0.51537 0.10469 0.0
C3650 C 0.0761 0.52143 0.12305 0.0
C3651 C 0.08647 0.54126 0.1245 0.0
H3652 H 0.07096 0.55411 0.8265 0.0
H3653 H 0.09478 0.54106 0.88919 0.0
H3654 H 0.05571 0.5179 0.82356 0.0
H3655 H 0.07995 0.50524 0.88638 0.0
H3656 H 0.07043 0.4402 0.87781 0.0
H3657 H 0.0556 0.47497 0.87999 0.0
H3658 H 0.08004 0.49003 0.81854 0.0
H3659 H 0.09436 0.4555 0.81634 0.0
C3660 C 0.07199 0.54382 0.84002 0.0
C3661 C 0.08442 0.55003 0.85786 0.0
C3662 C 0.06335 0.52308 0.83833 0.0
C3663 C 0.06711 0.50848 0.85448 0.0
C3664 C 0.07671 0.51591 0.87358 0.0
C3665 C 0.08542 0.53647 0.87517 0.0
C3666 C 0.07171 0.45063 0.8644 0.0
C3667 C 0.08406 0.44552 0.84719 0.0
C3668 C 0.06327 0.47055 0.86565 0.0
C3669 C 0.06712 0.48551 0.84971 0.0
C3670 C 0.07674 0.47903 0.83116 0.0
C3671 C 0.08522 0.45926 0.82997 0.0
H3672 H 0.05814 0.60309 0.33438 0.0
H3673 H 0.07614 0.58446 0.39737 0.0
H3674 H 0.02256 0.58844 0.33921 0.0
H3675 H 0.04026 0.56934 0.40232 0.0
H3676 H 0.97697 0.60587 0.41085 0.0
H3677 H 0.01207 0.59311 0.40747 0.0
H3678 H 0.99324 0.56407 0.34746 0.0
H3679 H 0.95781 0.5773 0.35088 0.0
C3680 C 0.05467 0.59489 0.34892 0.0
C3681 C 0.06964 0.59527 0.36566 0.0
C3682 C 0.03425 0.5863 0.35169 0.0
C3683 C 0.02836 0.57817 0.37138 0.0
C3684 C 0.04424 0.57583 0.38709 0.0
C3685 C 0.06481 0.58436 0.38424 0.0
C3686 C 0.98007 0.59602 0.39734 0.0
C3687 C 0.96493 0.59301 0.38087 0.0
C3688 C 1.00021 0.58848 0.39545 0.0
C3689 C 1.00567 0.57795 0.37693 0.0
C3690 C 0.98959 0.57245 0.36176 0.0
C3691 C 0.96929 0.57993 0.36374 0.0
H3692 H 0.96022 0.58132 0.93759 0.0
H3693 H 0.93686 0.57297 0.87342 0.0
H3694 H 0.97969 0.54911 0.93441 0.0
H3695 H 0.95569 0.54108 0.87012 0.0
H3696 H 0.94264 0.48174 0.93201 0.0
H3697 H 0.95853 0.51698 0.9357 0.0
H3698 H 0.98017 0.51378 0.87162 0.0
H3699 H 0.96364 0.47813 0.86802 0.0
C3700 C 0.96014 0.57317 0.9225 0.0
C3701 C 0.94664 0.57906 0.90594 0.0
C3702 C 0.97122 0.55471 0.92065 0.0
C3703 C 0.96859 0.54197 0.90232 0.0
C3704 C 0.95803 0.55017 0.88461 0.0
C3705 C 0.94695 0.56843 0.88651 0.0
C3706 C 0.95169 0.4882 0.91908 0.0
C3707 C 0.95141 0.47769 0.89955 0.0
C3708 C 0.96107 0.50845 0.9212 0.0
C3709 C 0.96989 0.51866 0.90361 0.0
C3710 C 0.97294 0.50656 0.88527 0.0
C3711 C 0.96356 0.48613 0.88318 0.0
H3712 H 0.03531 0.42026 0.34044 0.0
H3713 H 0.06792 0.44803 0.39523 0.0
H3714 H 1.0024 0.43426 0.35167 0.0
H3715 H 0.03476 0.46205 0.40684 0.0
H3716 H 0.97394 0.41949 0.43052 0.0
H3717 H 1.00783 0.43474 0.41961 0.0
H3718 H 0.97746 0.46097 0.36463 0.0
H3719 H 0.94331 0.44572 0.37591 0.0
C3720 C 0.0356 0.43048 0.35424 0.0
C3721 C 0.05396 0.43313 0.367 0.0
C3722 C 0.01675 0.43858 0.36072 0.0
C3723 C 0.01592 0.44903 0.38033 0.0
C3724 C 0.03495 0.454 0.3917 0.0
C3725 C 0.05392 0.4461 0.38502 0.0
C3726 C 0.97435 0.42967 0.41686 0.0
C3727 C 0.95621 0.43148 0.404 0.0
C3728 C 0.99378 0.43847 0.41056 0.0
C3729 C 0.99536 0.44878 0.39104 0.0
C3730 C 0.97668 0.45302 0.37968 0.0
C3731 C 0.95714 0.44442 0.38618 0.0
H3732 H 0.94367 0.45347 0.1418 0.0
H3733 H 0.9171 0.4684 0.20181 0.0
H3734 H 0.95968 0.48935 0.14014 0.0
H3735 H 0.93262 0.50395 0.20013 0.0
H3736 H 0.94606 0.56835 0.19337 0.0
H3737 H 0.95898 0.5328 0.19677 0.0
H3738 H 0.93754 0.51861 0.13263 0.0
H3739 H 0.92505 0.55387 0.12934 0.0
C3740 C 0.94198 0.46414 0.15501 0.0
C3741 C 0.9287 0.45844 0.17165 0.0
C3742 C 0.9511 0.48468 0.15406 0.0
C3743 C 0.94707 0.49969 0.16976 0.0
C3744 C 0.93617 0.49292 0.18774 0.0
C3745 C 0.927 0.47254 0.18861 0.0
C3746 C 0.94522 0.55795 0.1797 0.0
C3747 C 0.93416 0.56352 0.16127 0.0
C3748 C 0.95249 0.53756 0.18166 0.0
C3749 C 0.94872 0.52265 0.16521 0.0
C3750 C 0.9407 0.52955 0.14568 0.0
C3751 C 0.93337 0.54978 0.14379 0.0
H3752 H 0.94792 0.44276 0.61583 0.0
H3753 H 0.97173 0.42652 0.67758 0.0
H3754 H 0.98355 0.45466 0.60585 0.0
H3755 H 1.00739 0.43754 0.66761 0.0
H3756 H 0.07082 0.44256 0.64539 0.0
H3757 H 0.0374 0.45823 0.65384 0.0
H3758 H 1.00768 0.4274 0.59875 0.0
H3759 H 0.04086 0.41221 0.59051 0.0
C3760 C 0.96064 0.44294 0.62765 0.0
C3761 C 0.9573 0.4338 0.64742 0.0
C3762 C 0.98107 0.44951 0.62189 0.0
C3763 C 0.99841 0.44646 0.63569 0.0
C3764 C 0.99447 0.44019 0.65656 0.0
C3765 C 0.97399 0.43388 0.66236 0.0
C3766 C 0.05732 0.44014 0.63461 0.0
C3767 C 0.05818 0.42628 0.61734 0.0
C3768 C 0.03819 0.44895 0.63949 0.0
C3769 C 0.01977 0.44392 0.62713 0.0
C3770 C 0.02149 0.43191 0.60852 0.0
C3771 C 0.0405 0.42306 0.60378 0.0
H3772 H 0.04397 0.59055 0.60319 0.0
H3773 H 0.05315 0.56433 0.66511 0.0
H3774 H 1.00911 0.5734 0.60027 0.0
H3775 H 0.01779 0.54669 0.66231 0.0
H3776 H 0.94539 0.56462 0.59916 0.0
H3777 H 0.97952 0.54821 0.60081 0.0
H3778 H 0.98791 0.56825 0.66602 0.0
H3779 H 0.95402 0.58407 0.66426 0.0
C3780 C 0.03877 0.58029 0.61583 0.0
C3781 C 0.05085 0.57919 0.63459 0.0
C3782 C 0.01879 0.57016 0.6141 0.0
C3783 C 0.0103 0.55909 0.63134 0.0
C3784 C 0.02372 0.55544 0.64892 0.0
C3785 C 0.04396 0.56549 0.65054 0.0
C3786 C 0.95402 0.56429 0.61414 0.0
C3787 C 0.94754 0.57598 0.63144 0.0
C3788 C 0.97362 0.55501 0.6151 0.0
C3789 C 0.98689 0.55771 0.63326 0.0
C3790 C 0.97838 0.56601 0.65165 0.0
C3791 C 0.95891 0.57526 0.65067 0.0
H3792 H 0.94191 0.09784 0.3805 0.0
H3793 H 0.94817 0.12189 0.44445 0.0
H3794 H 0.98072 0.10096 0.3776 0.0
H3795 H 0.98632 0.12505 0.44146 0.0
H3796 H 0.04869 0.15428 0.4217 0.0
H3797 H 0.01057 0.14876 0.42043 0.0
H3798 H 0.01619 0.0864 0.3943 0.0
H3799 H 0.05505 0.09182 0.39567 0.0
C3800 C 0.95148 0.10367 0.39394 0.0
C3801 C 0.94176 0.10966 0.41269 0.0
C3802 C 0.97372 0.10537 0.3923 0.0
C3803 C 0.98668 0.11343 0.40924 0.0
C3804 C 0.97689 0.11904 0.42799 0.0
C3805 C 0.95489 0.11712 0.42972 0.0
C3806 C 0.04203 0.13936 0.41548 0.0
C3807 C 0.05525 0.12342 0.40899 0.0
C3808 C 0.02001 0.13619 0.41484 0.0
C3809 C 0.01022 0.11703 0.40756 0.0
C3810 C 0.02321 0.10136 0.40001 0.0
C3811 C 0.0455 0.10448 0.40081 0.0
H3812 H 0.40434 0.44764 0.90717 0.0
H3813 H 0.35936 0.43642 0.85547 0.0
H3814 H 0.4027 0.48578 0.90225 0.0
H3815 H 0.35718 0.47475 0.85102 0.0
H3816 H 0.3383 0.54196 0.879 0.0
H3817 H 0.34296 0.50392 0.87765 0.0
H3818 H 0.41033 0.51569 0.87279 0.0
H3819 H 0.40561 0.55396 0.8734 0.0
C3820 C 0.39433 0.45331 0.89453 0.0
C3821 C 0.38209 0.4389 0.88162 0.0
C3822 C 0.39342 0.4752 0.8917 0.0
C3823 C 0.37979 0.48337 0.87627 0.0
C3824 C 0.36784 0.46899 0.86306 0.0
C3825 C 0.3692 0.44702 0.8655 0.0
C3826 C 0.35411 0.53649 0.87731 0.0
C3827 C 0.37157 0.55109 0.87624 0.0
C3828 C 0.35675 0.51465 0.87646 0.0
C3829 C 0.37701 0.5067 0.87508 0.0
C3830 C 0.39451 0.52127 0.87384 0.0
C3831 C 0.39179 0.5432 0.87409 0.0
H3832 H 0.05665 0.905 0.43659 0.0
H3833 H 0.06035 0.93644 0.37648 0.0
H3834 H 0.01843 0.90167 0.4327 0.0
H3835 H 0.02139 0.93323 0.37275 0.0
H3836 H 0.94707 0.93857 0.39357 0.0
H3837 H 0.98579 0.94524 0.39267 0.0
H3838 H 0.9944 0.87979 0.40661 0.0
H3839 H 0.95645 0.87303 0.40727 0.0
C3840 C 0.04936 0.9114 0.42255 0.0
C3841 C 0.06181 0.92093 0.4068 0.0
C3842 C 0.02731 0.9094 0.42031 0.0
C3843 C 0.01676 0.91704 0.40236 0.0
C3844 C 0.02901 0.92723 0.38681 0.0
C3845 C 0.05133 0.929 0.38892 0.0
C3846 C 0.95723 0.92554 0.39602 0.0
C3847 C 0.94841 0.90529 0.4007 0.0
C3848 C 0.97943 0.92937 0.39552 0.0
C3849 C 0.99323 0.9131 0.39989 0.0
C3850 C 0.98432 0.89277 0.40351 0.0
C3851 C 0.96239 0.88891 0.40382 0.0
H3852 H 0.6293 0.4537 0.89411 0.0
H3853 H 0.68422 0.46883 0.85709 0.0
H3854 H 0.62322 0.49127 0.89762 0.0
H3855 H 0.67841 0.50633 0.86093 0.0
H3856 H 0.65381 0.57279 0.85762 0.0
H3857 H 0.65661 0.5349 0.85138 0.0
H3858 H 0.63744 0.5224 0.91515 0.0
H3859 H 0.63424 0.55988 0.92122 0.0
C3860 C 0.64011 0.465 0.88671 0.0
C3861 C 0.6573 0.45807 0.87536 0.0
C3862 C 0.63668 0.48666 0.88881 0.0
C3863 C 0.65032 0.5021 0.87961 0.0
C3864 C 0.66734 0.49508 0.86802 0.0
C3865 C 0.67078 0.47345 0.86595 0.0
C3866 C 0.64992 0.56194 0.87022 0.0
C3867 C 0.64378 0.56962 0.88993 0.0
C3868 C 0.65171 0.54014 0.86671 0.0
C3869 C 0.64733 0.52534 0.88276 0.0
C3870 C 0.64069 0.53307 0.90225 0.0
C3871 C 0.63896 0.55476 0.90577 0.0
H3872 H 0.97804 0.88899 0.60073 0.0
H3873 H 0.97167 0.87526 0.66702 0.0
H3874 H 0.01596 0.88632 0.6042 0.0
H3875 H 0.01034 0.87268 0.67044 0.0
H3876 H 0.08571 0.88808 0.66568 0.0
H3877 H 0.04745 0.89358 0.66644 0.0
H3878 H 0.03765 0.855 0.61033 0.0
H3879 H 0.07525 0.84945 0.60957 0.0
C3880 C 0.98468 0.88559 0.61618 0.0
C3881 C 0.9715 0.8821 0.63355 0.0
C3882 C 1.00658 0.88398 0.61812 0.0
C3883 C 0.01627 0.87893 0.6375 0.0
C3884 C 1.00339 0.87657 0.65525 0.0
C3885 C 0.98122 0.87807 0.65329 0.0
C3886 C 0.07533 0.88073 0.65358 0.0
C3887 C 0.0837 0.86837 0.63753 0.0
C3888 C 0.0534 0.8838 0.65408 0.0
C3889 C 0.03944 0.87488 0.63834 0.0
C3890 C 0.04789 0.86236 0.62255 0.0
C3891 C 0.06957 0.8591 0.62219 0.0
H3892 H 0.61682 0.44494 0.15037 0.0
H3893 H 0.59434 0.45179 0.08605 0.0
H3894 H 0.61955 0.48364 0.15449 0.0
H3895 H 0.59633 0.49019 0.09042 0.0
H3896 H 0.58533 0.55848 0.11336 0.0
H3897 H 0.57909 0.51994 0.11442 0.0
H3898 H 0.64404 0.51343 0.13439 0.0
H3899 H 0.65048 0.55179 0.13264 0.0
C3900 C 0.61207 0.45465 0.13727 0.0
C3901 C 0.60534 0.44523 0.11789 0.0
C3902 C 0.61372 0.47681 0.1396 0.0
C3903 C 0.60806 0.49002 0.1228 0.0
C3904 C 0.60062 0.48052 0.10372 0.0
C3905 C 0.59955 0.45848 0.10121 0.0
C3906 C 0.59815 0.54887 0.11844 0.0
C3907 C 0.61839 0.55828 0.12303 0.0
C3908 C 0.59461 0.52678 0.11889 0.0
C3909 C 0.61107 0.51359 0.12451 0.0
C3910 C 0.63099 0.5231 0.13017 0.0
C3911 C 0.63467 0.5451 0.12915 0.0
H3912 H 0.95274 0.10694 0.6582 0.0
H3913 H 0.96596 0.17259 0.64384 0.0
H3914 H 0.99095 0.10159 0.6602 0.0
H3915 H 1.00391 0.16737 0.64636 0.0
H3916 H 0.07161 0.15391 0.66919 0.0
H3917 H 0.03345 0.15725 0.67338 0.0
H3918 H 0.02045 0.10357 0.63201 0.0
H3919 H 0.05841 0.10053 0.62747 0.0
C3920 C 0.96376 0.1203 0.65586 0.0
C3921 C 0.95623 0.1402 0.65086 0.0
C3922 C 0.98565 0.11722 0.6569 0.0
C3923 C 1.00055 0.13407 0.65351 0.0
C3924 C 0.99296 0.15409 0.64928 0.0
C3925 C 0.97115 0.15705 0.64774 0.0
C3926 C 0.06062 0.14255 0.66136 0.0
C3927 C 0.06814 0.12693 0.64801 0.0
C3928 C 0.03874 0.14457 0.66361 0.0
C3929 C 0.02383 0.1307 0.65299 0.0
C3930 C 0.03142 0.11443 0.64054 0.0
C3931 C 0.05322 0.11273 0.6379 0.0
H3932 H 0.42352 0.57838 0.14533 0.0
H3933 H 0.39631 0.57275 0.08217 0.0
H3934 H 0.42108 0.53954 0.14832 0.0
H3935 H 0.39373 0.53466 0.08531 0.0
H3936 H 0.36565 0.47228 0.10641 0.0
H3937 H 0.3709 0.51031 0.10859 0.0
H3938 H 0.43573 0.50425 0.12924 0.0
H3939 H 0.4306 0.46546 0.12682 0.0
C3940 C 0.41711 0.56896 0.13211 0.0
C3941 C 0.41005 0.57886 0.11354 0.0
C3942 C 0.41581 0.54672 0.13379 0.0
C3943 C 0.40707 0.53396 0.1171 0.0
C3944 C 0.40034 0.54394 0.09856 0.0
C3945 C 0.40189 0.56591 0.09676 0.0
C3946 C 0.38107 0.47881 0.11165 0.0
C3947 C 0.39777 0.46553 0.11618 0.0
C3948 C 0.38405 0.50077 0.11286 0.0
C3949 C 0.4038 0.51042 0.11879 0.0
C3950 C 0.4203 0.49732 0.12461 0.0
C3951 C 0.41735 0.47508 0.12323 0.0
H3952 H 0.40075 0.07788 0.08359 0.0
H3953 H 0.38282 0.06869 0.14817 0.0
H3954 H 0.4001 0.03938 0.07832 0.0
H3955 H 0.38147 0.03037 0.14272 0.0
H3956 H 0.36735 0.96101 0.11845 0.0
H3957 H 0.36195 0.99917 0.11924 0.0
H3958 H 0.42503 0.0116 0.09677 0.0
H3959 H 0.43067 0.97376 0.09666 0.0
C3960 C 0.39597 0.06767 0.09642 0.0
C3961 C 0.39166 0.07636 0.11624 0.0
C3962 C 0.39578 0.04563 0.09347 0.0
C3963 C 0.39072 0.03178 0.11011 0.0
C3964 C 0.38524 0.04054 0.12954 0.0
C3965 C 0.386 0.06251 0.13265 0.0
C3966 C 0.37993 0.97189 0.11341 0.0
C3967 C 0.39944 0.9643 0.10748 0.0
C3968 C 0.37687 0.99374 0.11394 0.0
C3969 C 0.39303 1.00845 0.10796 0.0
C3970 C 0.41219 1.00074 0.10125 0.0
C3971 C 0.41544 0.97903 0.10128 0.0
H3972 H 0.47944 0.91022 0.66616 0.0
H3973 H 0.47044 0.85321 0.62858 0.0
H3974 H 0.51731 0.91027 0.6612 0.0
H3975 H 0.50897 0.85322 0.62376 0.0
H3976 H 0.5839 0.85445 0.64391 0.0
H3977 H 0.54509 0.8505 0.64598 0.0
H3978 H 0.54053 0.91605 0.62991 0.0
H3979 H 0.57866 0.92005 0.62767 0.0
C3980 C 0.4855 0.89757 0.65688 0.0
C3981 C 0.47169 0.88173 0.64773 0.0
C3982 C 0.50734 0.89768 0.65396 0.0
C3983 C 0.51628 0.88184 0.64196 0.0
C3984 C 0.50263 0.86563 0.63314 0.0
C3985 C 0.48055 0.86569 0.63583 0.0
C3986 C 0.57458 0.86792 0.64049 0.0
C3987 C 0.58466 0.88762 0.63579 0.0
C3988 C 0.55232 0.86564 0.64166 0.0
C3989 C 0.53967 0.88304 0.6384 0.0
C3990 C 0.54973 0.90239 0.63287 0.0
C3991 C 0.57175 0.90463 0.6315 0.0
H3992 H 0.58314 0.04889 0.09295 0.0
H3993 H 0.64543 0.06205 0.12074 0.0
H3994 H 0.58872 0.01105 0.09385 0.0
H3995 H 0.65074 0.02391 0.12225 0.0
H3996 H 0.63008 0.95457 0.14874 0.0
H3997 H 0.6311 0.99284 0.14362 0.0
H3998 H 0.61389 0.98307 0.07783 0.0
H3999 H 0.61354 0.94465 0.08284 0.0
C4000 C 0.59812 0.04372 0.09912 0.0
C4001 C 0.61385 0.05859 0.10673 0.0
C4002 C 0.60134 0.02199 0.09954 0.0
C4003 C 0.62019 0.01439 0.10807 0.0
C4004 C 0.63605 0.02923 0.11555 0.0
C4005 C 0.63304 0.05108 0.11461 0.0
C4006 C 0.62713 0.96058 0.13304 0.0
C4007 C 0.62198 0.94651 0.11615 0.0
C4008 C 0.62769 0.98253 0.13011 0.0
C4009 C 0.62252 0.99107 0.11034 0.0
C4010 C 0.61795 0.97702 0.09327 0.0
C4011 C 0.61795 0.95501 0.09608 0.0
H4012 H 0.56685 0.15912 0.65019 0.0
H4013 H 0.56497 0.09543 0.62603 0.0
H4014 H 0.52801 0.15875 0.64793 0.0
H4015 H 0.5267 0.09529 0.62226 0.0
H4016 H 0.45988 0.08799 0.64232 0.0
H4017 H 0.49779 0.09163 0.64224 0.0
H4018 H 0.49472 0.1584 0.63028 0.0
H4019 H 0.45594 0.15483 0.63172 0.0
C4020 C 0.55811 0.14525 0.64388 0.0
C4021 C 0.5689 0.12726 0.63838 0.0
C4022 C 0.53579 0.14498 0.64252 0.0
C4023 C 0.52376 0.1268 0.63534 0.0
C4024 C 0.53497 0.10936 0.62867 0.0
C4025 C 0.55707 0.10947 0.63053 0.0
C4026 C 0.46706 0.10355 0.63959 0.0
C4027 C 0.45451 0.12109 0.63691 0.0
C4028 C 0.48914 0.10562 0.6393 0.0
C4029 C 0.49982 0.12526 0.6358 0.0
C4030 C 0.48732 0.14297 0.63312 0.0
C4031 C 0.46498 0.14093 0.63379 0.0
H4032 H 0.36925 0.05079 0.88 0.0
H4033 H 0.43609 0.04782 0.89459 0.0
H4034 H 0.36604 0.01188 0.87866 0.0
H4035 H 0.43282 0.0097 0.89329 0.0
H4036 H 0.42764 0.94608 0.86076 0.0
H4037 H 0.42688 0.9841 0.86429 0.0
H4038 H 0.3699 0.97722 0.90001 0.0
H4039 H 0.37059 0.93854 0.89639 0.0
C4040 C 0.38316 0.04197 0.88319 0.0
C4041 C 0.40297 0.0527 0.88715 0.0
C4042 C 0.38132 0.01964 0.88244 0.0
C4043 C 0.39926 1.00754 0.88549 0.0
C4044 C 0.41874 0.01835 0.89036 0.0
C4045 C 0.42056 0.04041 0.8912 0.0
C4046 C 0.41484 0.95248 0.86936 0.0
C4047 C 0.39922 0.93901 0.87835 0.0
C4048 C 0.41447 0.97445 0.87149 0.0
C4049 C 0.39844 0.98391 0.88261 0.0
C4050 C 0.38246 0.97055 0.89128 0.0
C4051 C 0.38293 0.94835 0.88931 0.0
H4052 H 0.56062 0.90287 0.43259 0.0
H4053 H 0.55171 0.88936 0.36604 0.0
H4054 H 0.52203 0.90166 0.43645 0.0
H4055 H 0.51327 0.88746 0.37004 0.0
H4056 H 0.44369 0.87134 0.39119 0.0
H4057 H 0.482 0.86614 0.39101 0.0
H4058 H 0.49432 0.92783 0.41908 0.0
H4059 H 0.45637 0.93331 0.4186 0.0
C4060 C 0.55046 0.89895 0.41894 0.0
C4061 C 0.55926 0.89608 0.39903 0.0
C4062 C 0.52837 0.89842 0.42111 0.0
C4063 C 0.51457 0.89445 0.40354 0.0
C4064 C 0.52342 0.89037 0.3839 0.0
C4065 C 0.54545 0.89146 0.38162 0.0
C4066 C 0.45459 0.88364 0.39757 0.0
C4067 C 0.44696 0.90274 0.40491 0.0
C4068 C 0.47651 0.88071 0.39739 0.0
C4069 C 0.49121 0.89654 0.40514 0.0
C4070 C 0.48346 0.91525 0.41321 0.0
C4071 C 0.46169 0.91841 0.41284 0.0
H4072 H 0.6334 0.06104 0.84136 0.0
H4073 H 0.64772 0.07217 0.90759 0.0
H4074 H 0.63599 0.02307 0.84651 0.0
H4075 H 0.64963 0.03391 0.91285 0.0
H4076 H 0.61578 0.96354 0.91048 0.0
H4077 H 0.62004 1.00204 0.90818 0.0
H4078 H 0.66496 0.99579 0.85883 0.0
H4079 H 0.66122 0.95711 0.86164 0.0
C4080 C 0.63718 0.0554 0.85703 0.0
C4081 C 0.64034 0.06971 0.87406 0.0
C4082 C 0.63879 0.03361 0.85994 0.0
C4083 C 0.64308 0.02543 0.88007 0.0
C4084 C 0.64634 0.03971 0.89714 0.0
C4085 C 0.64529 0.06162 0.89411 0.0
C4086 C 0.62701 0.97038 0.89953 0.0
C4087 C 0.63831 0.95724 0.88638 0.0
C4088 C 0.62943 0.99245 0.89821 0.0
C4089 C 0.64278 1.00202 0.88328 0.0
C4090 C 0.65453 0.98891 0.87049 0.0
C4091 C 0.65254 0.96677 0.87222 0.0
H4092 H 0.45181 0.13945 0.37525 0.0
H4093 H 0.44256 0.11732 0.43867 0.0
H4094 H 0.49019 0.13926 0.38093 0.0
H4095 H 0.48111 0.11655 0.44419 0.0
H4096 H 0.54601 0.08611 0.42645 0.0
H4097 H 0.50827 0.09261 0.42605 0.0
H4098 H 0.52199 0.15594 0.40425 0.0
H4099 H 0.56001 0.14963 0.4052 0.0
C4100 C 0.45801 0.13502 0.3906 0.0
C4101 C 0.4441 0.12863 0.40658 0.0
C4102 C 0.48002 0.1349 0.39384 0.0
C4103 C 0.48876 0.12782 0.41298 0.0
C4104 C 0.47489 0.12206 0.42925 0.0
C4105 C 0.45281 0.12271 0.42617 0.0
C4106 C 0.54105 0.10154 0.42185 0.0
C4107 C 0.55611 0.11735 0.41588 0.0
C4108 C 0.51939 0.10529 0.42173 0.0
C4109 C 0.51206 0.12481 0.41517 0.0
C4110 C 0.52711 0.14074 0.4094 0.0
C4111 C 0.54889 0.13715 0.41002 0.0
H4112 H 0.0941 0.42585 0.93541 0.0
H4113 H 0.11897 0.36423 0.92817 0.0
H4114 H 0.09432 0.42153 0.97374 0.0
H4115 H 0.1198 0.36021 0.96679 0.0
H4116 H 0.14646 0.38387 0.03595 0.0
H4117 H 0.14183 0.38153 0.99749 0.0
H4118 H 0.07653 0.39664 1.00274 0.0
H4119 H 0.08101 0.39831 0.0414 0.0
C4120 C 0.0995 0.4113 0.94199 0.0
C4121 C 0.1065 0.39537 0.92864 0.0
C4122 C 0.09952 0.40879 0.96399 0.0
C4123 C 0.10702 0.39051 0.97338 0.0
C4124 C 0.11389 0.37448 0.96006 0.0
C4125 C 0.11335 0.37675 0.93794 0.0
C4126 C 0.13094 0.38606 0.02894 0.0
C4127 C 0.11404 0.39102 0.0418 0.0
C4128 C 0.1283 0.38475 1.00688 0.0
C4129 C 0.10884 0.38896 0.99698 0.0
C4130 C 0.09174 0.39332 0.00986 0.0
C4131 C 0.09423 0.39406 0.03202 0.0
H4132 H 0.12239 0.6537 0.94297 0.0
H4133 H 0.1645 0.60256 0.9494 0.0
H4134 H 0.11805 0.65388 0.98154 0.0
H4135 H 0.16022 0.60281 0.98725 0.0
H4136 H 0.12956 0.58905 0.0486 0.0
H4137 H 0.13117 0.59272 0.0107 0.0
H4138 H 0.13837 0.66041 0.0177 0.0
H4139 H 0.1367 0.65679 0.05634 0.0
C4140 C 0.13079 0.6426 0.95252 0.0
C4141 C 0.14373 0.62807 0.94288 0.0
C4142 C 0.12837 0.64276 0.97465 0.0
C4143 C 0.1386 0.6282 0.9876 0.0
C4144 C 0.15179 0.61403 0.97788 0.0
C4145 C 0.15433 0.61399 0.95602 0.0
C4146 C 0.13136 0.60484 0.04228 0.0
C4147 C 0.13325 0.62262 0.05584 0.0
C4148 C 0.13237 0.60691 0.02037 0.0
C4149 C 0.13529 0.62682 0.011 0.0
C4150 C 0.13613 0.6448 0.02433 0.0
C4151 C 0.13519 0.64272 0.04651 0.0
H4152 H 0.87697 0.6118 0.46072 0.0
H4153 H 0.88992 0.67847 0.47167 0.0
H4154 H 0.87592 0.60625 0.4991 0.0
H4155 H 0.88817 0.67301 0.50977 0.0
H4156 H 0.86495 0.65657 0.57692 0.0
H4157 H 0.86057 0.65957 0.53842 0.0
H4158 H 0.90568 0.61178 0.52986 0.0
H4159 H 0.91057 0.60925 0.5682 0.0
C4160 C 0.87919 0.62531 0.47126 0.0
C4161 C 0.88351 0.64559 0.46306 0.0
C4162 C 0.87869 0.62212 0.49325 0.0
C4163 C 0.88188 0.63921 0.50755 0.0
C4164 C 0.88545 0.65954 0.49926 0.0
C4165 C 0.88653 0.66264 0.47738 0.0
C4166 C 0.87362 0.64641 0.56684 0.0
C4167 C 0.88807 0.63262 0.57573 0.0
C4168 C 0.87123 0.64824 0.54476 0.0
C4169 C 0.88278 0.63591 0.531 0.0
C4170 C 0.89643 0.62139 0.53993 0.0
C4171 C 0.89924 0.61997 0.56194 0.0
H4172 H 0.86493 0.425 0.98293 0.0
H4173 H 0.91442 0.38118 0.97678 0.0
H4174 H 0.86963 0.42471 0.02096 0.0
H4175 H 0.91946 0.3812 0.01544 0.0
H4176 H 0.90741 0.37424 0.08877 0.0
H4177 H 0.90394 0.37144 0.05006 0.0
H4178 H 0.8947 0.43829 0.04686 0.0
H4179 H 0.89773 0.44098 0.08497 0.0
C4180 C 0.87687 0.41523 0.98966 0.0
C4181 C 0.88934 0.40318 0.97655 0.0
C4182 C 0.8797 0.4152 0.01165 0.0
C4183 C 0.89518 0.40319 0.02152 0.0
C4184 C 0.90734 0.39061 1.00851 0.0
C4185 C 0.90449 0.39065 0.98631 0.0
C4186 C 0.90475 0.38833 0.07975 0.0
C4187 C 0.90273 0.40781 0.09018 0.0
C4188 C 0.90282 0.38675 0.0575 0.0
C4189 C 0.89871 0.40458 0.04514 0.0
C4190 C 0.89733 0.42407 0.05567 0.0
C4191 C 0.89924 0.42564 0.0777 0.0
H4192 H 0.14043 0.41287 0.54174 0.0
H4193 H 0.07436 0.3923 0.53678 0.0
H4194 H 0.14234 0.41148 0.50294 0.0
H4195 H 0.07625 0.39113 0.49871 0.0
H4196 H 0.09011 0.36504 0.43535 0.0
H4197 H 0.09237 0.36844 0.47335 0.0
H4198 H 0.12869 0.4275 0.46807 0.0
H4199 H 0.12656 0.42405 0.42927 0.0
C4200 C 0.12632 0.4082 0.53247 0.0
C4201 C 0.10728 0.40259 0.54257 0.0
C4202 C 0.12739 0.40749 0.51021 0.0
C4203 C 0.10952 0.40094 0.49757 0.0
C4204 C 0.09048 0.39585 0.50779 0.0
C4205 C 0.08938 0.39665 0.52979 0.0
C4206 C 0.09871 0.37881 0.44205 0.0
C4207 C 0.10793 0.39441 0.42894 0.0
C4208 C 0.09992 0.38079 0.46405 0.0
C4209 C 0.11037 0.39844 0.47396 0.0
C4210 C 0.12048 0.41369 0.46102 0.0
C4211 C 0.11923 0.41173 0.43876 0.0
H4212 H 0.89897 0.60223 0.97051 0.0
H4213 H 0.88437 0.66762 0.96332 0.0
H4214 H 0.89575 0.60536 1.00836 0.0
H4215 H 0.88122 0.6707 1.00191 0.0
H4216 H 0.89592 0.66669 0.07712 0.0
H4217 H 0.90167 0.66795 0.03878 0.0
H4218 H 0.86435 0.60949 0.03061 0.0
H4219 H 0.85857 0.60824 0.06825 0.0
C4220 C 0.89526 0.61743 0.97694 0.0
C4221 C 0.89173 0.63463 0.96353 0.0
C4222 C 0.89332 0.61917 0.99881 0.0
C4223 C 0.88789 0.63817 1.00829 0.0
C4224 C 0.88542 0.6558 0.99517 0.0
C4225 C 0.88722 0.65403 0.97302 0.0
C4226 C 0.88888 0.65419 0.06709 0.0
C4227 C 0.87682 0.63734 0.07596 0.0
C4228 C 0.8921 0.65496 0.0451 0.0
C4229 C 0.88364 0.63872 0.03154 0.0
C4230 C 0.87139 0.62213 0.04049 0.0
C4231 C 0.86798 0.62149 0.06221 0.0
H4232 H 0.93325 0.4199 0.48504 0.0
H4233 H 0.87097 0.39003 0.47521 0.0
H4234 H 0.92906 0.41825 0.52329 0.0
H4235 H 0.86713 0.38764 0.51372 0.0
H4236 H 0.89267 0.36122 0.58178 0.0
H4237 H 0.89069 0.36629 0.54346 0.0
H4238 H 0.90224 0.43333 0.5527 0.0
H4239 H 0.90345 0.42837 0.59115 0.0
C4240 C 0.91857 0.41313 0.49105 0.0
C4241 C 0.90241 0.40519 0.47701 0.0
C4242 C 0.91616 0.41224 0.51299 0.0
C4243 C 0.89777 0.40284 0.52158 0.0
C4244 C 0.88148 0.39502 0.50759 0.0
C4245 C 0.88364 0.39647 0.48555 0.0
C4246 C 0.8943 0.37711 0.57567 0.0
C4247 C 0.89806 0.3944 0.58959 0.0
C4248 C 0.89314 0.38 0.55371 0.0
C4249 C 0.89632 0.4002 0.545 0.0
C4250 C 0.89969 0.41757 0.55891 0.0
C4251 C 0.90024 0.41474 0.58094 0.0
H4252 H 0.14894 0.61233 0.55612 0.0
H4253 H 0.10556 0.66231 0.54915 0.0
H4254 H 0.14848 0.60763 0.51751 0.0
H4255 H 0.1054 0.65791 0.51115 0.0
H4256 H 0.08816 0.63032 0.44725 0.0
H4257 H 0.09128 0.6332 0.48534 0.0
H4258 H 0.15816 0.62346 0.48282 0.0
H4259 H 0.15493 0.62018 0.44411 0.0
C4260 C 0.13946 0.62242 0.54643 0.0
C4261 C 0.12721 0.63763 0.55595 0.0
C4262 C 0.13925 0.61978 0.52425 0.0
C4263 C 0.12668 0.63219 0.51102 0.0
C4264 C 0.11492 0.64768 0.52065 0.0
C4265 C 0.11514 0.65032 0.54262 0.0
C4266 C 0.10361 0.62867 0.45465 0.0
C4267 C 0.12131 0.62508 0.44236 0.0
C4268 C 0.10543 0.6305 0.47668 0.0
C4269 C 0.12504 0.62888 0.4874 0.0
C4270 C 0.14276 0.62474 0.47522 0.0
C4271 C 0.14093 0.62293 0.45298 0.0
H4272 H 0.30643 0.13418 0.43765 0.0
H4273 H 0.2997 0.09726 0.38031 0.0
H4274 H 0.26811 0.13377 0.44021 0.0
H4275 H 0.26148 0.09826 0.38154 0.0
H4276 H 0.19212 0.08641 0.39673 0.0
H4277 H 0.23049 0.08667 0.39412 0.0
H4278 H 0.2362 0.14434 0.43135 0.0
H4279 H 0.19821 0.14269 0.4353 0.0
C4280 C 0.29668 0.12637 0.42531 0.0
C4281 C 0.30614 0.11573 0.40883 0.0
C4282 C 0.27451 0.1262 0.42662 0.0
C4283 C 0.26103 0.11593 0.4111 0.0
C4284 C 0.2708 0.10587 0.39425 0.0
C4285 C 0.29291 0.1055 0.39334 0.0
C4286 C 0.2017 0.09907 0.40434 0.0
C4287 C 0.19209 0.11441 0.41635 0.0
C4288 C 0.22387 0.09942 0.40274 0.0
C4289 C 0.23712 0.11553 0.41257 0.0
C4290 C 0.22714 0.13121 0.42402 0.0
C4291 C 0.20511 0.13045 0.42614 0.0
H4292 H 0.39458 0.68707 0.85985 0.0
H4293 H 0.37294 0.69642 0.92316 0.0
H4294 H 0.39875 0.72548 0.85568 0.0
H4295 H 0.37686 0.73445 0.91885 0.0
H4296 H 0.36945 0.8033 0.89722 0.0
H4297 H 0.36227 0.7649 0.89899 0.0
H4298 H 0.42229 0.75495 0.87082 0.0
H4299 H 0.42955 0.79282 0.86926 0.0
C4300 C 0.39063 0.69721 0.87284 0.0
C4301 C 0.38355 0.68842 0.89188 0.0
C4302 C 0.39305 0.71928 0.87047 0.0
C4303 C 0.38808 0.73319 0.88692 0.0
C4304 C 0.3806 0.72436 0.90575 0.0
C4305 C 0.37852 0.7024 0.90824 0.0
C4306 C 0.38106 0.79292 0.89134 0.0
C4307 C 0.40014 0.80138 0.88322 0.0
C4308 C 0.37699 0.77088 0.8924 0.0
C4309 C 0.39168 0.75671 0.88498 0.0
C4310 C 0.41047 0.76524 0.87645 0.0
C4311 C 0.41469 0.78712 0.87572 0.0
H4312 H 0.70156 0.93165 0.38213 0.0
H4313 H 0.69843 0.88982 0.43527 0.0
H4314 H 0.7397 0.92973 0.38192 0.0
H4315 H 0.73688 0.88921 0.43659 0.0
H4316 H 0.80616 0.87956 0.42852 0.0
H4317 H 0.76786 0.87901 0.42587 0.0
H4318 H 0.77193 0.93929 0.3942 0.0
H4319 H 0.81036 0.93852 0.39531 0.0
C4320 C 0.70915 0.92218 0.39399 0.0
C4321 C 0.69691 0.91086 0.4087 0.0
C4322 C 0.73126 0.92123 0.39408 0.0
C4323 C 0.74209 0.90947 0.40937 0.0
C4324 C 0.72962 0.89814 0.42415 0.0
C4325 C 0.70738 0.89856 0.42359 0.0
C4326 C 0.79879 0.89259 0.42081 0.0
C4327 C 0.81134 0.90906 0.41209 0.0
C4328 C 0.77661 0.89246 0.41948 0.0
C4329 C 0.76609 0.9092 0.40998 0.0
C4330 C 0.7789 0.92574 0.40126 0.0
C4331 C 0.80114 0.92548 0.402 0.0
H4332 H 0.6677 0.20502 0.89096 0.0
H4333 H 0.60568 0.21646 0.86476 0.0
H4334 H 0.67553 0.24323 0.89369 0.0
H4335 H 0.61348 0.25426 0.8675 0.0
H4336 H 0.6392 0.32261 0.86052 0.0
H4337 H 0.63505 0.28441 0.85385 0.0
H4338 H 0.6639 0.27284 0.91486 0.0
H4339 H 0.66802 0.31053 0.92149 0.0
C4340 C 0.65577 0.21558 0.88571 0.0
C4341 C 0.63599 0.20744 0.87781 0.0
C4342 C 0.66023 0.23754 0.88731 0.0
C4343 C 0.64514 0.25198 0.88079 0.0
C4344 C 0.62561 0.24378 0.87243 0.0
C4345 C 0.62108 0.22194 0.87106 0.0
C4346 C 0.64483 0.31192 0.8724 0.0
C4347 C 0.65381 0.31985 0.8916 0.0
C4348 C 0.64236 0.28998 0.86864 0.0
C4349 C 0.64911 0.2754 0.88384 0.0
C4350 C 0.65871 0.28343 0.90267 0.0
C4351 C 0.66092 0.30521 0.90652 0.0
H4352 H 0.33547 0.85492 0.63052 0.0
H4353 H 0.32718 0.91977 0.64841 0.0
H4354 H 0.29689 0.84848 0.62896 0.0
H4355 H 0.28901 0.91324 0.64706 0.0
H4356 H 0.22064 0.88949 0.66048 0.0
H4357 H 0.25932 0.89346 0.66505 0.0
H4358 H 0.26646 0.85966 0.60654 0.0
H4359 H 0.22827 0.85587 0.60185 0.0
C4360 C 0.32553 0.86779 0.63414 0.0
C4361 C 0.33465 0.8879 0.63946 0.0
C4362 C 0.30337 0.86411 0.63325 0.0
C4363 C 0.28974 0.88033 0.638 0.0
C4364 C 0.29891 0.90029 0.64359 0.0
C4365 C 0.32093 0.90406 0.64416 0.0
C4366 C 0.23046 0.88279 0.64868 0.0
C4367 C 0.22114 0.87248 0.63074 0.0
C4368 C 0.25266 0.88514 0.65124 0.0
C4369 C 0.26611 0.87687 0.63615 0.0
C4370 C 0.25673 0.86604 0.6186 0.0
C4371 C 0.23468 0.86402 0.61587 0.0
H4372 H 0.62991 0.70086 0.07762 0.0
H4373 H 0.59784 0.69548 0.13675 0.0
H4374 H 0.62897 0.73916 0.07964 0.0
H4375 H 0.59704 0.73401 0.13887 0.0
H4376 H 0.57737 0.80132 0.12223 0.0
H4377 H 0.57991 0.76316 0.12191 0.0
H4378 H 0.64325 0.77062 0.0985 0.0
H4379 H 0.64063 0.80905 0.09867 0.0
C4380 C 0.62268 0.70782 0.09113 0.0
C4381 C 0.61384 0.6949 0.10698 0.0
C4382 C 0.6223 0.72991 0.09237 0.0
C4383 C 0.61293 0.7399 0.10942 0.0
C4384 C 0.6042 0.72698 0.12536 0.0
C4385 C 0.60474 0.70483 0.12421 0.0
C4386 C 0.59191 0.79491 0.11702 0.0
C4387 C 0.60877 0.80844 0.11038 0.0
C4388 C 0.59341 0.7729 0.117 0.0
C4389 C 0.61178 0.76358 0.11019 0.0
C4390 C 0.62874 0.77711 0.10365 0.0
C4391 C 0.6273 0.79921 0.10384 0.0
H4392 H 0.81205 0.14178 0.59899 0.0
H4393 H 0.8198 0.11853 0.66247 0.0
H4394 H 0.77377 0.13929 0.60227 0.0
H4395 H 0.78119 0.1157 0.66554 0.0
H4396 H 0.71254 0.08814 0.64962 0.0
H4397 H 0.75079 0.09341 0.64863 0.0
H4398 H 0.74408 0.15538 0.62257 0.0
H4399 H 0.70537 0.15029 0.62391 0.0
C4400 C 0.80566 0.13611 0.6137 0.0
C4401 C 0.81924 0.13026 0.63044 0.0
C4402 C 0.78359 0.13485 0.6156 0.0
C4403 C 0.77429 0.12735 0.63416 0.0
C4404 C 0.78779 0.12147 0.65095 0.0
C4405 C 0.80996 0.12311 0.6492 0.0
C4406 C 0.71906 0.103 0.64374 0.0
C4407 C 0.70563 0.11877 0.63678 0.0
C4408 C 0.74113 0.10605 0.64332 0.0
C4409 C 0.75063 0.12482 0.63557 0.0
C4410 C 0.73731 0.14066 0.62857 0.0
C4411 C 0.7151 0.13778 0.62938 0.0
H4412 H 0.3854 0.21437 0.08405 0.0
H4413 H 0.42208 0.22027 0.14219 0.0
H4414 H 0.38534 0.25261 0.08158 0.0
H4415 H 0.42051 0.25836 0.14113 0.0
H4416 H 0.43127 0.32809 0.12733 0.0
H4417 H 0.43128 0.28983 0.12984 0.0
H4418 H 0.37511 0.28443 0.08916 0.0
H4419 H 0.37666 0.32245 0.0853 0.0
C4420 C 0.39304 0.22392 0.09659 0.0
C4421 C 0.40378 0.21424 0.11326 0.0
C4422 C 0.39294 0.24607 0.09534 0.0
C4423 C 0.40299 0.25934 0.11112 0.0
C4424 C 0.41309 0.24931 0.12818 0.0
C4425 C 0.41378 0.22723 0.12901 0.0
C4426 C 0.41898 0.31861 0.11896 0.0
C4427 C 0.40406 0.32835 0.10604 0.0
C4428 C 0.41878 0.29645 0.12048 0.0
C4429 C 0.40318 0.28328 0.10969 0.0
C4430 C 0.38787 0.29339 0.09731 0.0
C4431 C 0.38855 0.31544 0.09524 0.0
H4432 H 0.12126 0.44099 0.18392 0.0
H4433 H 0.09412 0.37722 0.17966 0.0
H4434 H 0.12092 0.43938 0.22235 0.0
H4435 H 0.09386 0.37558 0.21826 0.0
H4436 H 0.07263 0.39043 0.28574 0.0
H4437 H 0.0752 0.39078 0.24755 0.0
H4438 H 0.13688 0.42288 0.25366 0.0
H4439 H 0.13427 0.42257 0.29227 0.0
C4440 C 0.11524 0.42656 0.19115 0.0
C4441 C 0.10758 0.40927 0.17853 0.0
C4442 C 0.11522 0.42559 0.2133 0.0
C4443 C 0.10734 0.40737 0.2236 0.0
C4444 C 0.09984 0.38999 0.21097 0.0
C4445 C 0.10007 0.39088 0.18878 0.0
C4446 C 0.08681 0.39759 0.27906 0.0
C4447 C 0.10321 0.40659 0.29227 0.0
C4448 C 0.08835 0.39762 0.25702 0.0
C4449 C 0.10626 0.4068 0.24731 0.0
C4450 C 0.12274 0.4158 0.26049 0.0
C4451 C 0.12131 0.41556 0.28267 0.0
H4452 H 0.08842 0.63872 0.70117 0.0
H4453 H 0.15062 0.6162 0.69106 0.0
H4454 H 0.09439 0.63681 0.73915 0.0
H4455 H 0.1564 0.6139 0.72946 0.0
H4456 H 0.14418 0.58726 0.79728 0.0
H4457 H 0.14098 0.59193 0.7593 0.0
H4458 H 0.1172 0.65364 0.7691 0.0
H4459 H 0.12079 0.64917 0.80751 0.0
C4460 C 0.10343 0.63333 0.70697 0.0
C4461 C 0.119 0.62753 0.69278 0.0
C4462 C 0.10688 0.63239 0.7289 0.0
C4463 C 0.12588 0.62527 0.7375 0.0
C4464 C 0.14151 0.6194 0.72341 0.0
C4465 C 0.13822 0.62073 0.70136 0.0
C4466 C 0.13836 0.60194 0.7915 0.0
C4467 C 0.13268 0.61781 0.80571 0.0
C4468 C 0.13667 0.60465 0.76958 0.0
C4469 C 0.12887 0.62316 0.76101 0.0
C4470 C 0.12319 0.63911 0.77513 0.0
C4471 C 0.12528 0.63658 0.79718 0.0
H4472 H 0.87354 0.65792 0.21395 0.0
H4473 H 0.9006 0.59697 0.21838 0.0
H4474 H 0.87666 0.66177 0.25265 0.0
H4475 H 0.90389 0.60094 0.25656 0.0
H4476 H 0.92946 0.62634 0.32094 0.0
H4477 H 0.92516 0.62382 0.2827 0.0
H4478 H 0.86138 0.64407 0.28667 0.0
H4479 H 0.86557 0.6464 0.32536 0.0
C4480 C 0.8803 0.64544 0.22308 0.0
C4481 C 0.88684 0.62715 0.21289 0.0
C4482 C 0.88192 0.64756 0.24529 0.0
C4483 C 0.89053 0.63166 0.25782 0.0
C4484 C 0.89731 0.61359 0.24752 0.0
C4485 C 0.89536 0.6113 0.22552 0.0
C4486 C 0.91443 0.6302 0.3138 0.0
C4487 C 0.89784 0.63649 0.32645 0.0
C4488 C 0.91196 0.62871 0.29176 0.0
C4489 C 0.89293 0.63377 0.28146 0.0
C4490 C 0.87632 0.64021 0.29401 0.0
C4491 C 0.87866 0.64135 0.31623 0.0
H4492 H 0.89273 0.44598 0.83227 0.0
H4493 H 0.90718 0.38078 0.84122 0.0
H4494 H 0.89409 0.44136 0.79434 0.0
H4495 H 0.9088 0.37626 0.80271 0.0
H4496 H 0.93489 0.3876 0.73431 0.0
H4497 H 0.93144 0.38914 0.77257 0.0
H4498 H 0.87431 0.42282 0.76452 0.0
H4499 H 0.87767 0.42116 0.72609 0.0
C4500 C 0.89623 0.43058 0.82623 0.0
C4501 C 0.89988 0.41375 0.84009 0.0
C4502 C 0.89684 0.42792 0.8043 0.0
C4503 C 0.90141 0.40842 0.79532 0.0
C4504 C 0.90528 0.39155 0.80906 0.0
C4505 C 0.90432 0.39412 0.83116 0.0
C4506 C 0.9215 0.39529 0.74064 0.0
C4507 C 0.90663 0.40442 0.727 0.0
C4508 C 0.91946 0.396 0.76265 0.0
C4509 C 0.90264 0.40614 0.77175 0.0
C4510 C 0.88759 0.41503 0.75811 0.0
C4511 C 0.88946 0.41404 0.73604 0.0
H4512 H 0.71901 0.85982 0.62418 0.0
H4513 H 0.7297 0.89586 0.68182 0.0
H4514 H 0.75711 0.85712 0.62103 0.0
H4515 H 0.76758 0.89226 0.67946 0.0
H4516 H 0.83657 0.8998 0.66065 0.0
H4517 H 0.79846 0.90286 0.66351 0.0
H4518 H 0.78755 0.84217 0.63248 0.0
H4519 H 0.82542 0.83982 0.62869 0.0
C4520 C 0.72948 0.8669 0.63637 0.0
C4521 C 0.72118 0.87806 0.65324 0.0
C4522 C 0.75146 0.86527 0.63466 0.0
C4523 C 0.76586 0.87447 0.64997 0.0
C4524 C 0.75736 0.88532 0.66702 0.0
C4525 C 0.73546 0.88723 0.66852 0.0
C4526 C 0.82599 0.88711 0.6545 0.0
C4527 C 0.83416 0.86959 0.64442 0.0
C4528 C 0.80401 0.88877 0.65622 0.0
C4529 C 0.78949 0.87278 0.64821 0.0
C4530 C 0.79786 0.85511 0.63846 0.0
C4531 C 0.81976 0.85364 0.63644 0.0
H4532 H 0.62243 0.19964 0.15908 0.0
H4533 H 0.60861 0.19749 0.09207 0.0
H4534 H 0.62421 0.23828 0.15835 0.0
H4535 H 0.60968 0.23637 0.09148 0.0
H4536 H 0.58734 0.30518 0.11019 0.0
H4537 H 0.58594 0.26629 0.11082 0.0
H4538 H 0.64876 0.268 0.13902 0.0
H4539 H 0.65043 0.30664 0.13769 0.0
C4540 C 0.62001 0.20746 0.14413 0.0
C4541 C 0.61567 0.19547 0.12557 0.0
C4542 C 0.62093 0.22959 0.14374 0.0
C4543 C 0.6169 0.24042 0.12491 0.0
C4544 C 0.6127 0.22848 0.10627 0.0
C4545 C 0.61236 0.20625 0.10654 0.0
C4546 C 0.60066 0.29722 0.11687 0.0
C4547 C 0.61887 0.30899 0.12418 0.0
C4548 C 0.59999 0.27497 0.11697 0.0
C4549 C 0.61731 0.26405 0.12486 0.0
C4550 C 0.63517 0.2759 0.13286 0.0
C4551 C 0.63607 0.29803 0.13222 0.0
H4552 H 0.2117 0.15467 0.61542 0.0
H4553 H 0.20641 0.1284 0.67781 0.0
H4554 H 0.24992 0.15242 0.6177 0.0
H4555 H 0.24488 0.12667 0.68038 0.0
H4556 H 0.32064 0.16229 0.63438 0.0
H4557 H 0.28233 0.16624 0.63322 0.0
H4558 H 0.27328 0.10805 0.66754 0.0
H4559 H 0.31124 0.10448 0.66917 0.0
C4560 C 0.21868 0.14857 0.62976 0.0
C4561 C 0.20581 0.1417 0.64643 0.0
C4562 C 0.24076 0.14741 0.63112 0.0
C4563 C 0.25079 0.13938 0.64923 0.0
C4564 C 0.23788 0.13266 0.66601 0.0
C4565 C 0.21574 0.13376 0.66461 0.0
C4566 C 0.31045 0.15041 0.64174 0.0
C4567 C 0.31919 0.13313 0.65193 0.0
C4568 C 0.2884 0.15258 0.64099 0.0
C4569 C 0.27444 0.1375 0.65035 0.0
C4570 C 0.28331 0.12026 0.6605 0.0
C4571 C 0.30525 0.11813 0.6613 0.0
H4572 H 0.42499 0.82378 0.15418 0.0
H4573 H 0.38431 0.82701 0.09859 0.0
H4574 H 0.42241 0.78553 0.15224 0.0
H4575 H 0.38217 0.78846 0.09633 0.0
H4576 H 0.3645 0.71989 0.10981 0.0
H4577 H 0.36745 0.75794 0.1127 0.0
H4578 H 0.43268 0.75499 0.13375 0.0
H4579 H 0.42952 0.71635 0.13126 0.0
C4580 C 0.41549 0.81639 0.14144 0.0
C4581 C 0.40476 0.82874 0.12657 0.0
C4582 C 0.41418 0.79427 0.14025 0.0
C4583 C 0.40211 0.78362 0.12414 0.0
C4584 C 0.39139 0.79595 0.1092 0.0
C4585 C 0.39267 0.81816 0.11041 0.0
C4586 C 0.37952 0.72718 0.11519 0.0
C4587 C 0.39679 0.71477 0.12025 0.0
C4588 C 0.38126 0.74923 0.11665 0.0
C4589 C 0.40038 0.75985 0.12317 0.0
C4590 C 0.4176 0.74749 0.12877 0.0
C4591 C 0.41582 0.72526 0.12737 0.0
H4592 H 0.69359 0.13458 0.4233 0.0
H4593 H 0.69653 0.09558 0.36734 0.0
H4594 H 0.73228 0.13716 0.42563 0.0
H4595 H 0.73483 0.09858 0.3694 0.0
H4596 H 0.80407 0.09059 0.39192 0.0
H4597 H 0.76532 0.08757 0.38886 0.0
H4598 H 0.76259 0.15262 0.40876 0.0
H4599 H 0.80083 0.15551 0.41211 0.0
C4600 C 0.70239 0.12673 0.4114 0.0
C4601 C 0.69171 0.11499 0.39509 0.0
C4602 C 0.72465 0.12824 0.41267 0.0
C4603 C 0.73687 0.11806 0.39768 0.0
C4604 C 0.72613 0.10639 0.38141 0.0
C4605 C 0.70398 0.10489 0.38013 0.0
C4606 C 0.79519 0.10429 0.39538 0.0
C4607 C 0.80572 0.12323 0.40235 0.0
C4608 C 0.77292 0.10259 0.39367 0.0
C4609 C 0.76064 0.1198 0.39884 0.0
C4610 C 0.77131 0.13886 0.40514 0.0
C4611 C 0.7934 0.14054 0.40687 0.0
H4612 H 0.3914 0.30234 0.84987 0.0
H4613 H 0.35708 0.29339 0.90732 0.0
H4614 H 0.39641 0.26442 0.84804 0.0
H4615 H 0.36271 0.25582 0.90601 0.0
H4616 H 0.36008 0.18547 0.88957 0.0
H4617 H 0.35374 0.22316 0.89011 0.0
H4618 H 0.41454 0.23658 0.86238 0.0
H4619 H 0.42041 0.19906 0.86116 0.0
C4620 C 0.385 0.29233 0.86217 0.0
C4621 C 0.37375 0.30108 0.87867 0.0
C4622 C 0.38799 0.27048 0.86123 0.0
C4623 C 0.38 0.25668 0.87689 0.0
C4624 C 0.3688 0.26558 0.89339 0.0
C4625 C 0.36567 0.28733 0.89422 0.0
C4626 C 0.37207 0.19648 0.88358 0.0
C4627 C 0.39072 0.18906 0.87526 0.0
C4628 C 0.36851 0.21823 0.88397 0.0
C4629 C 0.38357 0.23329 0.87624 0.0
C4630 C 0.40228 0.22573 0.86809 0.0
C4631 C 0.40574 0.20405 0.86754 0.0
H4632 H 0.19874 0.93748 0.3868 0.0
H4633 H 0.20139 0.87287 0.40733 0.0
H4634 H 0.23727 0.93925 0.38325 0.0
H4635 H 0.23935 0.8745 0.40339 0.0
H4636 H 0.31006 0.88963 0.41518 0.0
H4637 H 0.27164 0.88861 0.41876 0.0
H4638 H 0.26584 0.92724 0.3633 0.0
H4639 H 0.30397 0.92868 0.36002 0.0
C4640 C 0.20742 0.9236 0.39033 0.0
C4641 C 0.19675 0.90509 0.39742 0.0
C4642 C 0.22959 0.92457 0.38828 0.0
C4643 C 0.24169 0.90705 0.39323 0.0
C4644 C 0.23086 0.88849 0.39989 0.0
C4645 C 0.20887 0.88754 0.40196 0.0
C4646 C 0.30059 0.89783 0.4037 0.0
C4647 C 0.31034 0.90917 0.3873 0.0
C4648 C 0.27846 0.89722 0.4057 0.0
C4649 C 0.26539 0.90789 0.39133 0.0
C4650 C 0.2752 0.91911 0.3749 0.0
C4651 C 0.29723 0.91975 0.37293 0.0
H4652 H 0.66763 0.71572 0.9159 0.0
H4653 H 0.63714 0.7054 0.85469 0.0
H4654 H 0.66356 0.75343 0.91284 0.0
H4655 H 0.63362 0.74345 0.85124 0.0
H4656 H 0.61129 0.81039 0.86041 0.0
H4657 H 0.6155 0.77261 0.86313 0.0
H4658 H 0.67535 0.78478 0.89651 0.0
H4659 H 0.67072 0.82271 0.89434 0.0
C4660 C 0.6602 0.72149 0.90163 0.0
C4661 C 0.65276 0.70735 0.88552 0.0
C4662 C 0.65798 0.7433 0.89981 0.0
C4663 C 0.64833 0.75184 0.88174 0.0
C4664 C 0.6409 0.73765 0.86556 0.0
C4665 C 0.64302 0.71574 0.86745 0.0
C4666 C 0.62539 0.80506 0.86835 0.0
C4667 C 0.64066 0.81976 0.87717 0.0
C4668 C 0.62789 0.78325 0.86978 0.0
C4669 C 0.64582 0.77531 0.88 0.0
C4670 C 0.66114 0.79007 0.88879 0.0
C4671 C 0.65856 0.81194 0.88746 0.0
H4672 H 0.84786 0.62787 0.81968 0.0
H4673 H 0.9091 0.66048 0.82709 0.0
H4674 H 0.84999 0.63011 0.78159 0.0
H4675 H 0.912 0.6617 0.78875 0.0
H4676 H 0.90566 0.67625 0.71899 0.0
H4677 H 0.90231 0.67572 0.75705 0.0
H4678 H 0.86387 0.61747 0.75144 0.0
H4679 H 0.8663 0.61887 0.71309 0.0
C4680 C 0.86191 0.63547 0.81313 0.0
C4681 C 0.87828 0.64407 0.82655 0.0
C4682 C 0.86326 0.63656 0.79111 0.0
C4683 C 0.88127 0.64592 0.7816 0.0
C4684 C 0.89765 0.65466 0.79514 0.0
C4685 C 0.89608 0.65391 0.81726 0.0
C4686 C 0.89638 0.66336 0.72586 0.0
C4687 C 0.88619 0.64763 0.71286 0.0
C4688 C 0.8946 0.66293 0.74789 0.0
C4689 C 0.88288 0.64651 0.75782 0.0
C4690 C 0.87272 0.63069 0.74469 0.0
C4691 C 0.87419 0.63136 0.72256 0.0
H4692 H 0.9226 0.36452 0.33298 0.0
H4693 H 0.88062 0.41548 0.34044 0.0
H4694 H 0.9185 0.36662 0.29496 0.0
H4695 H 0.87693 0.41796 0.302 0.0
H4696 H 0.92312 0.38895 0.22621 0.0
H4697 H 0.92735 0.3865 0.26462 0.0
H4698 H 0.86187 0.40075 0.27141 0.0
H4699 H 0.85784 0.40365 0.23344 0.0
C4700 C 0.91249 0.3763 0.32657 0.0
C4701 C 0.90189 0.38982 0.34006 0.0
C4702 C 0.9103 0.3776 0.30456 0.0
C4703 C 0.89744 0.39249 0.2951 0.0
C4704 C 0.88677 0.40605 0.30855 0.0
C4705 C 0.88894 0.40472 0.3307 0.0
C4706 C 0.90958 0.39133 0.23589 0.0
C4707 C 0.89016 0.39652 0.2265 0.0
C4708 C 0.91197 0.38994 0.25801 0.0
C4709 C 0.89499 0.39362 0.2714 0.0
C4710 C 0.87549 0.39828 0.26188 0.0
C4711 C 0.87313 0.39972 0.2399 0.0
H4712 H 0.15579 0.38164 0.78731 0.0
H4713 H 0.09013 0.39615 0.79044 0.0
H4714 H 0.15277 0.38045 0.74865 0.0
H4715 H 0.08734 0.39574 0.7516 0.0
H4716 H 0.10579 0.42045 0.68224 0.0
H4717 H 0.10856 0.42052 0.72114 0.0
H4718 H 0.12821 0.35647 0.7196 0.0
H4719 H 0.12469 0.35617 0.68093 0.0
C4720 C 0.14062 0.3843 0.77973 0.0
C4721 C 0.12311 0.38867 0.79198 0.0
C4722 C 0.13894 0.38373 0.75759 0.0
C4723 C 0.11988 0.38819 0.74706 0.0
C4724 C 0.10227 0.39237 0.75927 0.0
C4725 C 0.10379 0.39234 0.78149 0.0
C4726 C 0.11099 0.40653 0.69025 0.0
C4727 C 0.11528 0.38839 0.67856 0.0
C4728 C 0.11234 0.40647 0.71248 0.0
C4729 C 0.1185 0.38845 0.72344 0.0
C4730 C 0.12343 0.37058 0.71165 0.0
C4731 C 0.12151 0.37044 0.68952 0.0
H4732 H 0.10009 0.65341 0.2962 0.0
H4733 H 0.1562 0.61907 0.30835 0.0
H4734 H 0.10553 0.65152 0.25879 0.0
H4735 H 0.16251 0.61816 0.27036 0.0
H4736 H 0.15742 0.60293 0.19948 0.0
H4737 H 0.15282 0.60426 0.23738 0.0
H4738 H 0.12405 0.66431 0.23081 0.0
H4739 H 0.12764 0.66224 0.19262 0.0
C4740 C 0.11381 0.64557 0.29094 0.0
C4741 C 0.12771 0.6364 0.30557 0.0
C4742 C 0.11709 0.6447 0.26922 0.0
C4743 C 0.13466 0.63495 0.26111 0.0
C4744 C 0.14862 0.62565 0.27574 0.0
C4745 C 0.1451 0.62622 0.29764 0.0
C4746 C 0.15007 0.61645 0.20609 0.0
C4747 C 0.14281 0.63245 0.19285 0.0
C4748 C 0.14758 0.6173 0.22802 0.0
C4749 C 0.13799 0.63436 0.23758 0.0
C4750 C 0.13107 0.65059 0.22427 0.0
C4751 C 0.13326 0.64954 0.20225 0.0
loop_
_geom_bond_atom_site_label_1
_geom_bond_atom_site_label_2
_geom_bond_distance
_geom_bond_site_symmetry_2
_ccdc_geom_bond_type
Co0 O2 2.143 . S
Co0 O8 2.074 . S
Co0 O11 2.093 . S
Co0 O24 2.097 . S
Co0 N41 2.151 . S
Co0 N49 2.214 . S
Co1 O2 2.160 . S
Co1 O7 2.058 . S
Co1 O17 2.057 . S
Co1 O32 2.037 . S
Co1 N36 2.145 . S
Co1 N57 2.257 . S
O2 Co0 2.143 . S
O2 Co1 2.160 . S
C3 O4 1.278 . S
C3 O11 1.224 . S
O4 C3 1.278 . S
C5 O6 1.245 . S
C5 O17 1.232 . S
O6 C5 1.245 . S
O7 Co1 2.058 . S
O7 C33 1.269 . S
O8 Co0 2.074 . S
O8 C33 1.257 . S
H9 C34 0.930 . S
H10 C40 0.930 . S
O11 Co0 2.093 . S
O11 C3 1.224 . S
H12 C44 0.929 . S
H13 C46 0.930 . S
H14 C47 0.930 . S
H15 C45 0.929 . S
H16 C48 0.928 . S
O17 Co1 2.057 . S
O17 C5 1.232 . S
H18 C37 0.929 . S
H19 C38 0.929 . S
H20 C50 0.931 . S
H21 C42 0.929 . S
H22 C51 0.930 . S
H23 C43 0.931 . S
O24 Co0 2.097 . S
O24 C52 1.214 . S
H25 C53 0.929 . S
H26 C54 0.929 . S
H27 C55 0.930 . S
H28 C56 0.929 . S
H29 C58 0.930 . S
H30 C35 0.930 . S
H31 C39 0.930 . S
O32 Co1 2.037 . S
O32 C52 1.234 . S
C33 O7 1.269 . S
C33 O8 1.257 . S
C34 H9 0.930 . S
C34 C37 1.388 . S
C34 C39 1.418 . S
C35 H30 0.930 . S
C35 C38 1.404 . S
C35 C39 1.353 . S
N36 Co1 2.145 . S
N36 C37 1.397 . S
N36 C38 1.334 . S
C37 H18 0.929 . S
C37 C34 1.388 . S
C37 N36 1.397 . S
C38 H19 0.929 . S
C38 C35 1.404 . S
C38 N36 1.334 . S
C39 H31 0.930 . S
C39 C34 1.418 . S
C39 C35 1.353 . S
C40 H10 0.930 . S
C40 N41 1.330 . S
C40 C42 1.446 . S
N41 Co0 2.151 . S
N41 C40 1.330 . S
N41 C45 1.418 . S
C42 H21 0.929 . S
C42 C40 1.446 . S
C42 C43 1.332 . S
C43 H23 0.931 . S
C43 C42 1.332 . S
C43 C44 1.267 . S
C44 H12 0.929 . S
C44 C43 1.267 . S
C44 C45 1.251 . S
C45 H15 0.929 . S
C45 N41 1.418 . S
C45 C44 1.251 . S
C46 H13 0.930 . S
C46 C48 1.406 . S
C46 C51 1.261 . S
C47 H14 0.930 . S
C47 N49 1.325 . S
C47 C50 1.357 . S
C48 H16 0.928 . S
C48 C46 1.406 . S
C48 N49 1.261 . S
N49 Co0 2.214 . S
N49 C47 1.325 . S
N49 C48 1.261 . S
C50 H20 0.931 . S
C50 C47 1.357 . S
C50 C51 1.312 . S
C51 H22 0.930 . S
C51 C46 1.261 . S
C51 C50 1.312 . S
C52 O24 1.214 . S
C52 O32 1.234 . S
C53 H25 0.929 . S
C53 C56 1.391 . S
C53 C58 1.391 . S
C54 H26 0.929 . S
C54 C55 1.390 . S
C54 N57 1.391 . S
C55 H27 0.930 . S
C55 C54 1.390 . S
C55 C56 1.392 . S
C56 H28 0.929 . S
C56 C53 1.391 . S
C56 C55 1.392 . S
N57 Co1 2.257 . S
N57 C54 1.391 . S
N57 C58 1.388 . S
C58 H29 0.930 . S
C58 C53 1.391 . S
C58 N57 1.388 . S
Co59 O61 2.143 . S
Co59 O67 2.074 . S
Co59 O70 2.093 . S
Co59 O83 2.097 . S
Co59 N100 2.151 . S
Co59 N108 2.214 . S
Co60 O61 2.160 . S
Co60 O66 2.058 . S
Co60 O76 2.057 . S
Co60 O91 2.037 . S
Co60 N95 2.145 . S
Co60 N116 2.257 . S
O61 Co59 2.143 . S
O61 Co60 2.160 . S
C62 O63 1.278 . S
C62 O70 1.224 . S
O63 C62 1.278 . S
C64 O65 1.245 . S
C64 O76 1.232 . S
O65 C64 1.245 . S
O66 Co60 2.058 . S
O66 C92 1.269 . S
O67 Co59 2.074 . S
O67 C92 1.257 . S
H68 C93 0.930 . S
H69 C99 0.930 . S
O70 Co59 2.093 . S
O70 C62 1.224 . S
H71 C103 0.929 . S
H72 C105 0.930 . S
H73 C106 0.930 . S
H74 C104 0.929 . S
H75 C107 0.928 . S
O76 Co60 2.057 . S
O76 C64 1.232 . S
H77 C96 0.929 . S
H78 C97 0.929 . S
H79 C109 0.931 . S
H80 C101 0.929 . S
H81 C110 0.930 . S
H82 C102 0.931 . S
O83 Co59 2.097 . S
O83 C111 1.214 . S
H84 C112 0.929 . S
H85 C113 0.929 . S
H86 C114 0.930 . S
H87 C115 0.929 . S
H88 C117 0.930 . S
H89 C94 0.930 . S
H90 C98 0.930 . S
O91 Co60 2.037 . S
O91 C111 1.234 . S
C92 O66 1.269 . S
C92 O67 1.257 . S
C93 H68 0.930 . S
C93 C96 1.388 . S
C93 C98 1.418 . S
C94 H89 0.930 . S
C94 C97 1.404 . S
C94 C98 1.353 . S
N95 Co60 2.145 . S
N95 C96 1.397 . S
N95 C97 1.334 . S
C96 H77 0.929 . S
C96 C93 1.388 . S
C96 N95 1.397 . S
C97 H78 0.929 . S
C97 C94 1.404 . S
C97 N95 1.334 . S
C98 H90 0.930 . S
C98 C93 1.418 . S
C98 C94 1.353 . S
C99 H69 0.930 . S
C99 N100 1.330 . S
C99 C101 1.446 . S
N100 Co59 2.151 . S
N100 C99 1.330 . S
N100 C104 1.418 . S
C101 H80 0.929 . S
C101 C99 1.446 . S
C101 C102 1.332 . S
C102 H82 0.931 . S
C102 C101 1.332 . S
C102 C103 1.267 . S
C103 H71 0.929 . S
C103 C102 1.267 . S
C103 C104 1.251 . S
C104 H74 0.929 . S
C104 N100 1.418 . S
C104 C103 1.251 . S
C105 H72 0.930 . S
C105 C107 1.406 . S
C105 C110 1.261 . S
C106 H73 0.930 . S
C106 N108 1.325 . S
C106 C109 1.357 . S
C107 H75 0.928 . S
C107 C105 1.406 . S
C107 N108 1.261 . S
N108 Co59 2.214 . S
N108 C106 1.325 . S
N108 C107 1.261 . S
C109 H79 0.931 . S
C109 C106 1.357 . S
C109 C110 1.312 . S
C110 H81 0.930 . S
C110 C105 1.261 . S
C110 C109 1.312 . S
C111 O83 1.214 . S
C111 O91 1.234 . S
C112 H84 0.929 . S
C112 C115 1.391 . S
C112 C117 1.391 . S
C113 H85 0.929 . S
C113 C114 1.390 . S
C113 N116 1.391 . S
C114 H86 0.930 . S
C114 C113 1.390 . S
C114 C115 1.392 . S
C115 H87 0.929 . S
C115 C112 1.391 . S
C115 C114 1.392 . S
N116 Co60 2.257 . S
N116 C113 1.391 . S
N116 C117 1.388 . S
C117 H88 0.930 . S
C117 C112 1.391 . S
C117 N116 1.388 . S
Co118 O120 2.143 . S
Co118 O126 2.074 . S
Co118 O129 2.093 . S
Co118 O142 2.097 . S
Co118 N159 2.151 . S
Co118 N167 2.214 . S
Co119 O120 2.160 . S
Co119 O125 2.058 . S
Co119 O135 2.057 . S
Co119 O150 2.037 . S
Co119 N154 2.145 . S
Co119 N175 2.257 . S
O120 Co118 2.143 . S
O120 Co119 2.160 . S
C121 O122 1.278 . S
C121 O129 1.224 . S
O122 C121 1.278 . S
C123 O124 1.245 . S
C123 O135 1.232 . S
O124 C123 1.245 . S
O125 Co119 2.058 . S
O125 C151 1.269 . S
O126 Co118 2.074 . S
O126 C151 1.257 . S
H127 C152 0.930 . S
H128 C158 0.930 . S
O129 Co118 2.093 . S
O129 C121 1.224 . S
H130 C162 0.929 . S
H131 C164 0.930 . S
H132 C165 0.930 . S
H133 C163 0.929 . S
H134 C166 0.928 . S
O135 Co119 2.057 . S
O135 C123 1.232 . S
H136 C155 0.929 . S
H137 C156 0.929 . S
H138 C168 0.931 . S
H139 C160 0.929 . S
H140 C169 0.930 . S
H141 C161 0.931 . S
O142 Co118 2.097 . S
O142 C170 1.214 . S
H143 C171 0.929 . S
H144 C172 0.929 . S
H145 C173 0.930 . S
H146 C174 0.929 . S
H147 C176 0.930 . S
H148 C153 0.930 . S
H149 C157 0.930 . S
O150 Co119 2.037 . S
O150 C170 1.234 . S
C151 O125 1.269 . S
C151 O126 1.257 . S
C152 H127 0.930 . S
C152 C155 1.388 . S
C152 C157 1.418 . S
C153 H148 0.930 . S
C153 C156 1.404 . S
C153 C157 1.353 . S
N154 Co119 2.145 . S
N154 C155 1.397 . S
N154 C156 1.334 . S
C155 H136 0.929 . S
C155 C152 1.388 . S
C155 N154 1.397 . S
C156 H137 0.929 . S
C156 C153 1.404 . S
C156 N154 1.334 . S
C157 H149 0.930 . S
C157 C152 1.418 . S
C157 C153 1.353 . S
C158 H128 0.930 . S
C158 N159 1.330 . S
C158 C160 1.446 . S
N159 Co118 2.151 . S
N159 C158 1.330 . S
N159 C163 1.418 . S
C160 H139 0.929 . S
C160 C158 1.446 . S
C160 C161 1.332 . S
C161 H141 0.931 . S
C161 C160 1.332 . S
C161 C162 1.267 . S
C162 H130 0.929 . S
C162 C161 1.267 . S
C162 C163 1.251 . S
C163 H133 0.929 . S
C163 N159 1.418 . S
C163 C162 1.251 . S
C164 H131 0.930 . S
C164 C166 1.406 . S
C164 C169 1.261 . S
C165 H132 0.930 . S
C165 N167 1.325 . S
C165 C168 1.357 . S
C166 H134 0.928 . S
C166 C164 1.406 . S
C166 N167 1.261 . S
N167 Co118 2.214 . S
N167 C165 1.325 . S
N167 C166 1.261 . S
C168 H138 0.931 . S
C168 C165 1.357 . S
C168 C169 1.312 . S
C169 H140 0.930 . S
C169 C164 1.261 . S
C169 C168 1.312 . S
C170 O142 1.214 . S
C170 O150 1.234 . S
C171 H143 0.929 . S
C171 C174 1.391 . S
C171 C176 1.391 . S
C172 H144 0.929 . S
C172 C173 1.390 . S
C172 N175 1.391 . S
C173 H145 0.930 . S
C173 C172 1.390 . S
C173 C174 1.392 . S
C174 H146 0.929 . S
C174 C171 1.391 . S
C174 C173 1.392 . S
N175 Co119 2.257 . S
N175 C172 1.391 . S
N175 C176 1.388 . S
C176 H147 0.930 . S
C176 C171 1.391 . S
C176 N175 1.388 . S
Co177 O179 2.143 . S
Co177 O185 2.074 . S
Co177 O188 2.093 . S
Co177 O201 2.097 . S
Co177 N218 2.151 . S
Co177 N226 2.214 . S
Co178 O179 2.160 . S
Co178 O184 2.058 . S
Co178 O194 2.057 . S
Co178 O209 2.037 . S
Co178 N213 2.145 . S
Co178 N234 2.257 . S
O179 Co177 2.143 . S
O179 Co178 2.160 . S
C180 O181 1.278 . S
C180 O188 1.224 . S
O181 C180 1.278 . S
C182 O183 1.245 . S
C182 O194 1.232 . S
O183 C182 1.245 . S
O184 Co178 2.058 . S
O184 C210 1.269 . S
O185 Co177 2.074 . S
O185 C210 1.257 . S
H186 C211 0.930 . S
H187 C217 0.930 . S
O188 Co177 2.093 . S
O188 C180 1.224 . S
H189 C221 0.929 . S
H190 C223 0.930 . S
H191 C224 0.930 . S
H192 C222 0.929 . S
H193 C225 0.928 . S
O194 Co178 2.057 . S
O194 C182 1.232 . S
H195 C214 0.929 . S
H196 C215 0.929 . S
H197 C227 0.931 . S
H198 C219 0.929 . S
H199 C228 0.930 . S
H200 C220 0.931 . S
O201 Co177 2.097 . S
O201 C229 1.214 . S
H202 C230 0.929 . S
H203 C231 0.929 . S
H204 C232 0.930 . S
H205 C233 0.929 . S
H206 C235 0.930 . S
H207 C212 0.930 . S
H208 C216 0.930 . S
O209 Co178 2.037 . S
O209 C229 1.234 . S
C210 O184 1.269 . S
C210 O185 1.257 . S
C211 H186 0.930 . S
C211 C214 1.388 . S
C211 C216 1.418 . S
C212 H207 0.930 . S
C212 C215 1.404 . S
C212 C216 1.353 . S
N213 Co178 2.145 . S
N213 C214 1.397 . S
N213 C215 1.334 . S
C214 H195 0.929 . S
C214 C211 1.388 . S
C214 N213 1.397 . S
C215 H196 0.929 . S
C215 C212 1.404 . S
C215 N213 1.334 . S
C216 H208 0.930 . S
C216 C211 1.418 . S
C216 C212 1.353 . S
C217 H187 0.930 . S
C217 N218 1.330 . S
C217 C219 1.446 . S
N218 Co177 2.151 . S
N218 C217 1.330 . S
N218 C222 1.418 . S
C219 H198 0.929 . S
C219 C217 1.446 . S
C219 C220 1.332 . S
C220 H200 0.931 . S
C220 C219 1.332 . S
C220 C221 1.267 . S
C221 H189 0.929 . S
C221 C220 1.267 . S
C221 C222 1.251 . S
C222 H192 0.929 . S
C222 N218 1.418 . S
C222 C221 1.251 . S
C223 H190 0.930 . S
C223 C225 1.406 . S
C223 C228 1.261 . S
C224 H191 0.930 . S
C224 N226 1.325 . S
C224 C227 1.357 . S
C225 H193 0.928 . S
C225 C223 1.406 . S
C225 N226 1.261 . S
N226 Co177 2.214 . S
N226 C224 1.325 . S
N226 C225 1.261 . S
C227 H197 0.931 . S
C227 C224 1.357 . S
C227 C228 1.312 . S
C228 H199 0.930 . S
C228 C223 1.261 . S
C228 C227 1.312 . S
C229 O201 1.214 . S
C229 O209 1.234 . S
C230 H202 0.929 . S
C230 C233 1.391 . S
C230 C235 1.391 . S
C231 H203 0.929 . S
C231 C232 1.390 . S
C231 N234 1.391 . S
C232 H204 0.930 . S
C232 C231 1.390 . S
C232 C233 1.392 . S
C233 H205 0.929 . S
C233 C230 1.391 . S
C233 C232 1.392 . S
N234 Co178 2.257 . S
N234 C231 1.391 . S
N234 C235 1.388 . S
C235 H206 0.930 . S
C235 C230 1.391 . S
C235 N234 1.388 . S
Co236 O238 2.143 . S
Co236 O244 2.074 . S
Co236 O247 2.093 . S
Co236 O260 2.097 . S
Co236 N277 2.151 . S
Co236 N285 2.214 . S
Co237 O238 2.160 . S
Co237 O243 2.058 . S
Co237 O253 2.057 . S
Co237 O268 2.037 . S
Co237 N272 2.145 . S
Co237 N293 2.257 . S
O238 Co236 2.143 . S
O238 Co237 2.160 . S
C239 O240 1.278 . S
C239 O247 1.224 . S
O240 C239 1.278 . S
C241 O242 1.245 . S
C241 O253 1.232 . S
O242 C241 1.245 . S
O243 Co237 2.058 . S
O243 C269 1.269 . S
O244 Co236 2.074 . S
O244 C269 1.257 . S
H245 C270 0.930 . S
H246 C276 0.930 . S
O247 Co236 2.093 . S
O247 C239 1.224 . S
H248 C280 0.929 . S
H249 C282 0.930 . S
H250 C283 0.930 . S
H251 C281 0.929 . S
H252 C284 0.928 . S
O253 Co237 2.057 . S
O253 C241 1.232 . S
H254 C273 0.929 . S
H255 C274 0.929 . S
H256 C286 0.931 . S
H257 C278 0.929 . S
H258 C287 0.930 . S
H259 C279 0.931 . S
O260 Co236 2.097 . S
O260 C288 1.214 . S
H261 C289 0.929 . S
H262 C290 0.929 . S
H263 C291 0.930 . S
H264 C292 0.929 . S
H265 C294 0.930 . S
H266 C271 0.930 . S
H267 C275 0.930 . S
O268 Co237 2.037 . S
O268 C288 1.234 . S
C269 O243 1.269 . S
C269 O244 1.257 . S
C270 H245 0.930 . S
C270 C273 1.388 . S
C270 C275 1.418 . S
C271 H266 0.930 . S
C271 C274 1.404 . S
C271 C275 1.353 . S
N272 Co237 2.145 . S
N272 C273 1.397 . S
N272 C274 1.334 . S
C273 H254 0.929 . S
C273 C270 1.388 . S
C273 N272 1.397 . S
C274 H255 0.929 . S
C274 C271 1.404 . S
C274 N272 1.334 . S
C275 H267 0.930 . S
C275 C270 1.418 . S
C275 C271 1.353 . S
C276 H246 0.930 . S
C276 N277 1.330 . S
C276 C278 1.446 . S
N277 Co236 2.151 . S
N277 C276 1.330 . S
N277 C281 1.418 . S
C278 H257 0.929 . S
C278 C276 1.446 . S
C278 C279 1.332 . S
C279 H259 0.931 . S
C279 C278 1.332 . S
C279 C280 1.267 . S
C280 H248 0.929 . S
C280 C279 1.267 . S
C280 C281 1.251 . S
C281 H251 0.929 . S
C281 N277 1.418 . S
C281 C280 1.251 . S
C282 H249 0.930 . S
C282 C284 1.406 . S
C282 C287 1.261 . S
C283 H250 0.930 . S
C283 N285 1.325 . S
C283 C286 1.357 . S
C284 H252 0.928 . S
C284 C282 1.406 . S
C284 N285 1.261 . S
N285 Co236 2.214 . S
N285 C283 1.325 . S
N285 C284 1.261 . S
C286 H256 0.931 . S
C286 C283 1.357 . S
C286 C287 1.312 . S
C287 H258 0.930 . S
C287 C282 1.261 . S
C287 C286 1.312 . S
C288 O260 1.214 . S
C288 O268 1.234 . S
C289 H261 0.929 . S
C289 C292 1.391 . S
C289 C294 1.391 . S
C290 H262 0.929 . S
C290 C291 1.390 . S
C290 N293 1.391 . S
C291 H263 0.930 . S
C291 C290 1.390 . S
C291 C292 1.392 . S
C292 H264 0.929 . S
C292 C289 1.391 . S
C292 C291 1.392 . S
N293 Co237 2.257 . S
N293 C290 1.391 . S
N293 C294 1.388 . S
C294 H265 0.930 . S
C294 C289 1.391 . S
C294 N293 1.388 . S
Co295 O297 2.143 . S
Co295 O303 2.074 . S
Co295 O306 2.093 . S
Co295 O319 2.097 . S
Co295 N336 2.151 . S
Co295 N344 2.214 . S
Co296 O297 2.160 . S
Co296 O302 2.058 . S
Co296 O312 2.057 . S
Co296 O327 2.037 . S
Co296 N331 2.145 . S
Co296 N352 2.257 . S
O297 Co295 2.143 . S
O297 Co296 2.160 . S
C298 O299 1.278 . S
C298 O306 1.224 . S
O299 C298 1.278 . S
C300 O301 1.245 . S
C300 O312 1.232 . S
O301 C300 1.245 . S
O302 Co296 2.058 . S
O302 C328 1.269 . S
O303 Co295 2.074 . S
O303 C328 1.257 . S
H304 C329 0.930 . S
H305 C335 0.930 . S
O306 Co295 2.093 . S
O306 C298 1.224 . S
H307 C339 0.929 . S
H308 C341 0.930 . S
H309 C342 0.930 . S
H310 C340 0.929 . S
H311 C343 0.928 . S
O312 Co296 2.057 . S
O312 C300 1.232 . S
H313 C332 0.929 . S
H314 C333 0.929 . S
H315 C345 0.931 . S
H316 C337 0.929 . S
H317 C346 0.930 . S
H318 C338 0.931 . S
O319 Co295 2.097 . S
O319 C347 1.214 . S
H320 C348 0.929 . S
H321 C349 0.929 . S
H322 C350 0.930 . S
H323 C351 0.929 . S
H324 C353 0.930 . S
H325 C330 0.930 . S
H326 C334 0.930 . S
O327 Co296 2.037 . S
O327 C347 1.234 . S
C328 O302 1.269 . S
C328 O303 1.257 . S
C329 H304 0.930 . S
C329 C332 1.388 . S
C329 C334 1.418 . S
C330 H325 0.930 . S
C330 C333 1.404 . S
C330 C334 1.353 . S
N331 Co296 2.145 . S
N331 C332 1.397 . S
N331 C333 1.334 . S
C332 H313 0.929 . S
C332 C329 1.388 . S
C332 N331 1.397 . S
C333 H314 0.929 . S
C333 C330 1.404 . S
C333 N331 1.334 . S
C334 H326 0.930 . S
C334 C329 1.418 . S
C334 C330 1.353 . S
C335 H305 0.930 . S
C335 N336 1.330 . S
C335 C337 1.446 . S
N336 Co295 2.151 . S
N336 C335 1.330 . S
N336 C340 1.418 . S
C337 H316 0.929 . S
C337 C335 1.446 . S
C337 C338 1.332 . S
C338 H318 0.931 . S
C338 C337 1.332 . S
C338 C339 1.267 . S
C339 H307 0.929 . S
C339 C338 1.267 . S
C339 C340 1.251 . S
C340 H310 0.929 . S
C340 N336 1.418 . S
C340 C339 1.251 . S
C341 H308 0.930 . S
C341 C343 1.406 . S
C341 C346 1.261 . S
C342 H309 0.930 . S
C342 N344 1.325 . S
C342 C345 1.357 . S
C343 H311 0.928 . S
C343 C341 1.406 . S
C343 N344 1.261 . S
N344 Co295 2.214 . S
N344 C342 1.325 . S
N344 C343 1.261 . S
C345 H315 0.931 . S
C345 C342 1.357 . S
C345 C346 1.312 . S
C346 H317 0.930 . S
C346 C341 1.261 . S
C346 C345 1.312 . S
C347 O319 1.214 . S
C347 O327 1.234 . S
C348 H320 0.929 . S
C348 C351 1.391 . S
C348 C353 1.391 . S
C349 H321 0.929 . S
C349 C350 1.390 . S
C349 N352 1.391 . S
C350 H322 0.930 . S
C350 C349 1.390 . S
C350 C351 1.392 . S
C351 H323 0.929 . S
C351 C348 1.391 . S
C351 C350 1.392 . S
N352 Co296 2.257 . S
N352 C349 1.391 . S
N352 C353 1.388 . S
C353 H324 0.930 . S
C353 C348 1.391 . S
C353 N352 1.388 . S
Co354 O356 2.143 . S
Co354 O362 2.074 . S
Co354 O365 2.093 . S
Co354 O378 2.097 . S
Co354 N395 2.151 . S
Co354 N403 2.214 . S
Co355 O356 2.160 . S
Co355 O361 2.058 . S
Co355 O371 2.057 . S
Co355 O386 2.037 . S
Co355 N390 2.145 . S
Co355 N411 2.257 . S
O356 Co354 2.143 . S
O356 Co355 2.160 . S
C357 O358 1.278 . S
C357 O365 1.224 . S
O358 C357 1.278 . S
C359 O360 1.245 . S
C359 O371 1.232 . S
O360 C359 1.245 . S
O361 Co355 2.058 . S
O361 C387 1.269 . S
O362 Co354 2.074 . S
O362 C387 1.257 . S
H363 C388 0.930 . S
H364 C394 0.930 . S
O365 Co354 2.093 . S
O365 C357 1.224 . S
H366 C398 0.929 . S
H367 C400 0.930 . S
H368 C401 0.930 . S
H369 C399 0.929 . S
H370 C402 0.928 . S
O371 Co355 2.057 . S
O371 C359 1.232 . S
H372 C391 0.929 . S
H373 C392 0.929 . S
H374 C404 0.931 . S
H375 C396 0.929 . S
H376 C405 0.930 . S
H377 C397 0.931 . S
O378 Co354 2.097 . S
O378 C406 1.214 . S
H379 C407 0.929 . S
H380 C408 0.929 . S
H381 C409 0.930 . S
H382 C410 0.929 . S
H383 C412 0.930 . S
H384 C389 0.930 . S
H385 C393 0.930 . S
O386 Co355 2.037 . S
O386 C406 1.234 . S
C387 O361 1.269 . S
C387 O362 1.257 . S
C388 H363 0.930 . S
C388 C391 1.388 . S
C388 C393 1.418 . S
C389 H384 0.930 . S
C389 C392 1.404 . S
C389 C393 1.353 . S
N390 Co355 2.145 . S
N390 C391 1.397 . S
N390 C392 1.334 . S
C391 H372 0.929 . S
C391 C388 1.388 . S
C391 N390 1.397 . S
C392 H373 0.929 . S
C392 C389 1.404 . S
C392 N390 1.334 . S
C393 H385 0.930 . S
C393 C388 1.418 . S
C393 C389 1.353 . S
C394 H364 0.930 . S
C394 N395 1.330 . S
C394 C396 1.446 . S
N395 Co354 2.151 . S
N395 C394 1.330 . S
N395 C399 1.418 . S
C396 H375 0.929 . S
C396 C394 1.446 . S
C396 C397 1.332 . S
C397 H377 0.931 . S
C397 C396 1.332 . S
C397 C398 1.267 . S
C398 H366 0.929 . S
C398 C397 1.267 . S
C398 C399 1.251 . S
C399 H369 0.929 . S
C399 N395 1.418 . S
C399 C398 1.251 . S
C400 H367 0.930 . S
C400 C402 1.406 . S
C400 C405 1.261 . S
C401 H368 0.930 . S
C401 N403 1.325 . S
C401 C404 1.357 . S
C402 H370 0.928 . S
C402 C400 1.406 . S
C402 N403 1.261 . S
N403 Co354 2.214 . S
N403 C401 1.325 . S
N403 C402 1.261 . S
C404 H374 0.931 . S
C404 C401 1.357 . S
C404 C405 1.312 . S
C405 H376 0.930 . S
C405 C400 1.261 . S
C405 C404 1.312 . S
C406 O378 1.214 . S
C406 O386 1.234 . S
C407 H379 0.929 . S
C407 C410 1.391 . S
C407 C412 1.391 . S
C408 H380 0.929 . S
C408 C409 1.390 . S
C408 N411 1.391 . S
C409 H381 0.930 . S
C409 C408 1.390 . S
C409 C410 1.392 . S
C410 H382 0.929 . S
C410 C407 1.391 . S
C410 C409 1.392 . S
N411 Co355 2.257 . S
N411 C408 1.391 . S
N411 C412 1.388 . S
C412 H383 0.930 . S
C412 C407 1.391 . S
C412 N411 1.388 . S
Co413 O415 2.143 . S
Co413 O421 2.074 . S
Co413 O424 2.093 . S
Co413 O437 2.097 . S
Co413 N454 2.151 . S
Co413 N462 2.214 . S
Co414 O415 2.160 . S
Co414 O420 2.058 . S
Co414 O430 2.057 . S
Co414 O445 2.037 . S
Co414 N449 2.145 . S
Co414 N470 2.257 . S
O415 Co413 2.143 . S
O415 Co414 2.160 . S
C416 O417 1.278 . S
C416 O424 1.224 . S
O417 C416 1.278 . S
C418 O419 1.245 . S
C418 O430 1.232 . S
O419 C418 1.245 . S
O420 Co414 2.058 . S
O420 C446 1.269 . S
O421 Co413 2.074 . S
O421 C446 1.257 . S
H422 C447 0.930 . S
H423 C453 0.930 . S
O424 Co413 2.093 . S
O424 C416 1.224 . S
H425 C457 0.929 . S
H426 C459 0.930 . S
H427 C460 0.930 . S
H428 C458 0.929 . S
H429 C461 0.928 . S
O430 Co414 2.057 . S
O430 C418 1.232 . S
H431 C450 0.929 . S
H432 C451 0.929 . S
H433 C463 0.931 . S
H434 C455 0.929 . S
H435 C464 0.930 . S
H436 C456 0.931 . S
O437 Co413 2.097 . S
O437 C465 1.214 . S
H438 C466 0.929 . S
H439 C467 0.929 . S
H440 C468 0.930 . S
H441 C469 0.929 . S
H442 C471 0.930 . S
H443 C448 0.930 . S
H444 C452 0.930 . S
O445 Co414 2.037 . S
O445 C465 1.234 . S
C446 O420 1.269 . S
C446 O421 1.257 . S
C447 H422 0.930 . S
C447 C450 1.388 . S
C447 C452 1.418 . S
C448 H443 0.930 . S
C448 C451 1.404 . S
C448 C452 1.353 . S
N449 Co414 2.145 . S
N449 C450 1.397 . S
N449 C451 1.334 . S
C450 H431 0.929 . S
C450 C447 1.388 . S
C450 N449 1.397 . S
C451 H432 0.929 . S
C451 C448 1.404 . S
C451 N449 1.334 . S
C452 H444 0.930 . S
C452 C447 1.418 . S
C452 C448 1.353 . S
C453 H423 0.930 . S
C453 N454 1.330 . S
C453 C455 1.446 . S
N454 Co413 2.151 . S
N454 C453 1.330 . S
N454 C458 1.418 . S
C455 H434 0.929 . S
C455 C453 1.446 . S
C455 C456 1.332 . S
C456 H436 0.931 . S
C456 C455 1.332 . S
C456 C457 1.267 . S
C457 H425 0.929 . S
C457 C456 1.267 . S
C457 C458 1.251 . S
C458 H428 0.929 . S
C458 N454 1.418 . S
C458 C457 1.251 . S
C459 H426 0.930 . S
C459 C461 1.406 . S
C459 C464 1.261 . S
C460 H427 0.930 . S
C460 N462 1.325 . S
C460 C463 1.357 . S
C461 H429 0.928 . S
C461 C459 1.406 . S
C461 N462 1.261 . S
N462 Co413 2.214 . S
N462 C460 1.325 . S
N462 C461 1.261 . S
C463 H433 0.931 . S
C463 C460 1.357 . S
C463 C464 1.312 . S
C464 H435 0.930 . S
C464 C459 1.261 . S
C464 C463 1.312 . S
C465 O437 1.214 . S
C465 O445 1.234 . S
C466 H438 0.929 . S
C466 C469 1.391 . S
C466 C471 1.391 . S
C467 H439 0.929 . S
C467 C468 1.390 . S
C467 N470 1.391 . S
C468 H440 0.930 . S
C468 C467 1.390 . S
C468 C469 1.392 . S
C469 H441 0.929 . S
C469 C466 1.391 . S
C469 C468 1.392 . S
N470 Co414 2.257 . S
N470 C467 1.391 . S
N470 C471 1.388 . S
C471 H442 0.930 . S
C471 C466 1.391 . S
C471 N470 1.388 . S
Co472 O474 2.143 . S
Co472 O480 2.074 . S
Co472 O483 2.093 . S
Co472 O496 2.097 . S
Co472 N513 2.151 . S
Co472 N521 2.214 . S
Co473 O474 2.160 . S
Co473 O479 2.058 . S
Co473 O489 2.057 . S
Co473 O504 2.037 . S
Co473 N508 2.145 . S
Co473 N529 2.257 . S
O474 Co472 2.143 . S
O474 Co473 2.160 . S
C475 O476 1.278 . S
C475 O483 1.224 . S
O476 C475 1.278 . S
C477 O478 1.245 . S
C477 O489 1.232 . S
O478 C477 1.245 . S
O479 Co473 2.058 . S
O479 C505 1.269 . S
O480 Co472 2.074 . S
O480 C505 1.257 . S
H481 C506 0.930 . S
H482 C512 0.930 . S
O483 Co472 2.093 . S
O483 C475 1.224 . S
H484 C516 0.929 . S
H485 C518 0.930 . S
H486 C519 0.930 . S
H487 C517 0.929 . S
H488 C520 0.928 . S
O489 Co473 2.057 . S
O489 C477 1.232 . S
H490 C509 0.929 . S
H491 C510 0.929 . S
H492 C522 0.931 . S
H493 C514 0.929 . S
H494 C523 0.930 . S
H495 C515 0.931 . S
O496 Co472 2.097 . S
O496 C524 1.214 . S
H497 C525 0.929 . S
H498 C526 0.929 . S
H499 C527 0.930 . S
H500 C528 0.929 . S
H501 C530 0.930 . S
H502 C507 0.930 . S
H503 C511 0.930 . S
O504 Co473 2.037 . S
O504 C524 1.234 . S
C505 O479 1.269 . S
C505 O480 1.257 . S
C506 H481 0.930 . S
C506 C509 1.388 . S
C506 C511 1.418 . S
C507 H502 0.930 . S
C507 C510 1.404 . S
C507 C511 1.353 . S
N508 Co473 2.145 . S
N508 C509 1.397 . S
N508 C510 1.334 . S
C509 H490 0.929 . S
C509 C506 1.388 . S
C509 N508 1.397 . S
C510 H491 0.929 . S
C510 C507 1.404 . S
C510 N508 1.334 . S
C511 H503 0.930 . S
C511 C506 1.418 . S
C511 C507 1.353 . S
C512 H482 0.930 . S
C512 N513 1.330 . S
C512 C514 1.446 . S
N513 Co472 2.151 . S
N513 C512 1.330 . S
N513 C517 1.418 . S
C514 H493 0.929 . S
C514 C512 1.446 . S
C514 C515 1.332 . S
C515 H495 0.931 . S
C515 C514 1.332 . S
C515 C516 1.267 . S
C516 H484 0.929 . S
C516 C515 1.267 . S
C516 C517 1.251 . S
C517 H487 0.929 . S
C517 N513 1.418 . S
C517 C516 1.251 . S
C518 H485 0.930 . S
C518 C520 1.406 . S
C518 C523 1.261 . S
C519 H486 0.930 . S
C519 N521 1.325 . S
C519 C522 1.357 . S
C520 H488 0.928 . S
C520 C518 1.406 . S
C520 N521 1.261 . S
N521 Co472 2.214 . S
N521 C519 1.325 . S
N521 C520 1.261 . S
C522 H492 0.931 . S
C522 C519 1.357 . S
C522 C523 1.312 . S
C523 H494 0.930 . S
C523 C518 1.261 . S
C523 C522 1.312 . S
C524 O496 1.214 . S
C524 O504 1.234 . S
C525 H497 0.929 . S
C525 C528 1.391 . S
C525 C530 1.391 . S
C526 H498 0.929 . S
C526 C527 1.390 . S
C526 N529 1.391 . S
C527 H499 0.930 . S
C527 C526 1.390 . S
C527 C528 1.392 . S
C528 H500 0.929 . S
C528 C525 1.391 . S
C528 C527 1.392 . S
N529 Co473 2.257 . S
N529 C526 1.391 . S
N529 C530 1.388 . S
C530 H501 0.930 . S
C530 C525 1.391 . S
C530 N529 1.388 . S
Co531 O533 2.143 . S
Co531 O539 2.074 . S
Co531 O542 2.093 . S
Co531 O555 2.097 . S
Co531 N572 2.151 . S
Co531 N580 2.214 . S
Co532 O533 2.160 . S
Co532 O538 2.058 . S
Co532 O548 2.057 . S
Co532 O563 2.037 . S
Co532 N567 2.145 . S
Co532 N588 2.257 . S
O533 Co531 2.143 . S
O533 Co532 2.160 . S
C534 O535 1.278 . S
C534 O542 1.224 . S
O535 C534 1.278 . S
C536 O537 1.245 . S
C536 O548 1.232 . S
O537 C536 1.245 . S
O538 Co532 2.058 . S
O538 C564 1.269 . S
O539 Co531 2.074 . S
O539 C564 1.257 . S
H540 C565 0.930 . S
H541 C571 0.930 . S
O542 Co531 2.093 . S
O542 C534 1.224 . S
H543 C575 0.929 . S
H544 C577 0.930 . S
H545 C578 0.930 . S
H546 C576 0.929 . S
H547 C579 0.928 . S
O548 Co532 2.057 . S
O548 C536 1.232 . S
H549 C568 0.929 . S
H550 C569 0.929 . S
H551 C581 0.931 . S
H552 C573 0.929 . S
H553 C582 0.930 . S
H554 C574 0.931 . S
O555 Co531 2.097 . S
O555 C583 1.214 . S
H556 C584 0.929 . S
H557 C585 0.929 . S
H558 C586 0.930 . S
H559 C587 0.929 . S
H560 C589 0.930 . S
H561 C566 0.930 . S
H562 C570 0.930 . S
O563 Co532 2.037 . S
O563 C583 1.234 . S
C564 O538 1.269 . S
C564 O539 1.257 . S
C565 H540 0.930 . S
C565 C568 1.388 . S
C565 C570 1.418 . S
C566 H561 0.930 . S
C566 C569 1.404 . S
C566 C570 1.353 . S
N567 Co532 2.145 . S
N567 C568 1.397 . S
N567 C569 1.334 . S
C568 H549 0.929 . S
C568 C565 1.388 . S
C568 N567 1.397 . S
C569 H550 0.929 . S
C569 C566 1.404 . S
C569 N567 1.334 . S
C570 H562 0.930 . S
C570 C565 1.418 . S
C570 C566 1.353 . S
C571 H541 0.930 . S
C571 N572 1.330 . S
C571 C573 1.446 . S
N572 Co531 2.151 . S
N572 C571 1.330 . S
N572 C576 1.418 . S
C573 H552 0.929 . S
C573 C571 1.446 . S
C573 C574 1.332 . S
C574 H554 0.931 . S
C574 C573 1.332 . S
C574 C575 1.267 . S
C575 H543 0.929 . S
C575 C574 1.267 . S
C575 C576 1.251 . S
C576 H546 0.929 . S
C576 N572 1.418 . S
C576 C575 1.251 . S
C577 H544 0.930 . S
C577 C579 1.406 . S
C577 C582 1.261 . S
C578 H545 0.930 . S
C578 N580 1.325 . S
C578 C581 1.357 . S
C579 H547 0.928 . S
C579 C577 1.406 . S
C579 N580 1.261 . S
N580 Co531 2.214 . S
N580 C578 1.325 . S
N580 C579 1.261 . S
C581 H551 0.931 . S
C581 C578 1.357 . S
C581 C582 1.312 . S
C582 H553 0.930 . S
C582 C577 1.261 . S
C582 C581 1.312 . S
C583 O555 1.214 . S
C583 O563 1.234 . S
C584 H556 0.929 . S
C584 C587 1.391 . S
C584 C589 1.391 . S
C585 H557 0.929 . S
C585 C586 1.390 . S
C585 N588 1.391 . S
C586 H558 0.930 . S
C586 C585 1.390 . S
C586 C587 1.392 . S
C587 H559 0.929 . S
C587 C584 1.391 . S
C587 C586 1.392 . S
N588 Co532 2.257 . S
N588 C585 1.391 . S
N588 C589 1.388 . S
C589 H560 0.930 . S
C589 C584 1.391 . S
C589 N588 1.388 . S
Co590 O592 2.143 . S
Co590 O598 2.074 . S
Co590 O601 2.093 . S
Co590 O614 2.097 . S
Co590 N631 2.151 . S
Co590 N639 2.214 . S
Co591 O592 2.160 . S
Co591 O597 2.058 . S
Co591 O607 2.057 . S
Co591 O622 2.037 . S
Co591 N626 2.145 . S
Co591 N647 2.257 . S
O592 Co590 2.143 . S
O592 Co591 2.160 . S
C593 O594 1.278 . S
C593 O601 1.224 . S
O594 C593 1.278 . S
C595 O596 1.245 . S
C595 O607 1.232 . S
O596 C595 1.245 . S
O597 Co591 2.058 . S
O597 C623 1.269 . S
O598 Co590 2.074 . S
O598 C623 1.257 . S
H599 C624 0.930 . S
H600 C630 0.930 . S
O601 Co590 2.093 . S
O601 C593 1.224 . S
H602 C634 0.929 . S
H603 C636 0.930 . S
H604 C637 0.930 . S
H605 C635 0.929 . S
H606 C638 0.928 . S
O607 Co591 2.057 . S
O607 C595 1.232 . S
H608 C627 0.929 . S
H609 C628 0.929 . S
H610 C640 0.931 . S
H611 C632 0.929 . S
H612 C641 0.930 . S
H613 C633 0.931 . S
O614 Co590 2.097 . S
O614 C642 1.214 . S
H615 C643 0.929 . S
H616 C644 0.929 . S
H617 C645 0.930 . S
H618 C646 0.929 . S
H619 C648 0.930 . S
H620 C625 0.930 . S
H621 C629 0.930 . S
O622 Co591 2.037 . S
O622 C642 1.234 . S
C623 O597 1.269 . S
C623 O598 1.257 . S
C624 H599 0.930 . S
C624 C627 1.388 . S
C624 C629 1.418 . S
C625 H620 0.930 . S
C625 C628 1.404 . S
C625 C629 1.353 . S
N626 Co591 2.145 . S
N626 C627 1.397 . S
N626 C628 1.334 . S
C627 H608 0.929 . S
C627 C624 1.388 . S
C627 N626 1.397 . S
C628 H609 0.929 . S
C628 C625 1.404 . S
C628 N626 1.334 . S
C629 H621 0.930 . S
C629 C624 1.418 . S
C629 C625 1.353 . S
C630 H600 0.930 . S
C630 N631 1.330 . S
C630 C632 1.446 . S
N631 Co590 2.151 . S
N631 C630 1.330 . S
N631 C635 1.418 . S
C632 H611 0.929 . S
C632 C630 1.446 . S
C632 C633 1.332 . S
C633 H613 0.931 . S
C633 C632 1.332 . S
C633 C634 1.267 . S
C634 H602 0.929 . S
C634 C633 1.267 . S
C634 C635 1.251 . S
C635 H605 0.929 . S
C635 N631 1.418 . S
C635 C634 1.251 . S
C636 H603 0.930 . S
C636 C638 1.406 . S
C636 C641 1.261 . S
C637 H604 0.930 . S
C637 N639 1.325 . S
C637 C640 1.357 . S
C638 H606 0.928 . S
C638 C636 1.406 . S
C638 N639 1.261 . S
N639 Co590 2.214 . S
N639 C637 1.325 . S
N639 C638 1.261 . S
C640 H610 0.931 . S
C640 C637 1.357 . S
C640 C641 1.312 . S
C641 H612 0.930 . S
C641 C636 1.261 . S
C641 C640 1.312 . S
C642 O614 1.214 . S
C642 O622 1.234 . S
C643 H615 0.929 . S
C643 C646 1.391 . S
C643 C648 1.391 . S
C644 H616 0.929 . S
C644 C645 1.390 . S
C644 N647 1.391 . S
C645 H617 0.930 . S
C645 C644 1.390 . S
C645 C646 1.392 . S
C646 H618 0.929 . S
C646 C643 1.391 . S
C646 C645 1.392 . S
N647 Co591 2.257 . S
N647 C644 1.391 . S
N647 C648 1.388 . S
C648 H619 0.930 . S
C648 C643 1.391 . S
C648 N647 1.388 . S
Co649 O651 2.143 . S
Co649 O657 2.074 . S
Co649 O660 2.093 . S
Co649 O673 2.097 . S
Co649 N690 2.151 . S
Co649 N698 2.214 . S
Co650 O651 2.160 . S
Co650 O656 2.058 . S
Co650 O666 2.057 . S
Co650 O681 2.037 . S
Co650 N685 2.145 . S
Co650 N706 2.257 . S
O651 Co649 2.143 . S
O651 Co650 2.160 . S
C652 O653 1.278 . S
C652 O660 1.224 . S
O653 C652 1.278 . S
C654 O655 1.245 . S
C654 O666 1.232 . S
O655 C654 1.245 . S
O656 Co650 2.058 . S
O656 C682 1.269 . S
O657 Co649 2.074 . S
O657 C682 1.257 . S
H658 C683 0.930 . S
H659 C689 0.930 . S
O660 Co649 2.093 . S
O660 C652 1.224 . S
H661 C693 0.929 . S
H662 C695 0.930 . S
H663 C696 0.930 . S
H664 C694 0.929 . S
H665 C697 0.928 . S
O666 Co650 2.057 . S
O666 C654 1.232 . S
H667 C686 0.929 . S
H668 C687 0.929 . S
H669 C699 0.931 . S
H670 C691 0.929 . S
H671 C700 0.930 . S
H672 C692 0.931 . S
O673 Co649 2.097 . S
O673 C701 1.214 . S
H674 C702 0.929 . S
H675 C703 0.929 . S
H676 C704 0.930 . S
H677 C705 0.929 . S
H678 C707 0.930 . S
H679 C684 0.930 . S
H680 C688 0.930 . S
O681 Co650 2.037 . S
O681 C701 1.234 . S
C682 O656 1.269 . S
C682 O657 1.257 . S
C683 H658 0.930 . S
C683 C686 1.388 . S
C683 C688 1.418 . S
C684 H679 0.930 . S
C684 C687 1.404 . S
C684 C688 1.353 . S
N685 Co650 2.145 . S
N685 C686 1.397 . S
N685 C687 1.334 . S
C686 H667 0.929 . S
C686 C683 1.388 . S
C686 N685 1.397 . S
C687 H668 0.929 . S
C687 C684 1.404 . S
C687 N685 1.334 . S
C688 H680 0.930 . S
C688 C683 1.418 . S
C688 C684 1.353 . S
C689 H659 0.930 . S
C689 N690 1.330 . S
C689 C691 1.446 . S
N690 Co649 2.151 . S
N690 C689 1.330 . S
N690 C694 1.418 . S
C691 H670 0.929 . S
C691 C689 1.446 . S
C691 C692 1.332 . S
C692 H672 0.931 . S
C692 C691 1.332 . S
C692 C693 1.267 . S
C693 H661 0.929 . S
C693 C692 1.267 . S
C693 C694 1.251 . S
C694 H664 0.929 . S
C694 N690 1.418 . S
C694 C693 1.251 . S
C695 H662 0.930 . S
C695 C697 1.406 . S
C695 C700 1.261 . S
C696 H663 0.930 . S
C696 N698 1.325 . S
C696 C699 1.357 . S
C697 H665 0.928 . S
C697 C695 1.406 . S
C697 N698 1.261 . S
N698 Co649 2.214 . S
N698 C696 1.325 . S
N698 C697 1.261 . S
C699 H669 0.931 . S
C699 C696 1.357 . S
C699 C700 1.312 . S
C700 H671 0.930 . S
C700 C695 1.261 . S
C700 C699 1.312 . S
C701 O673 1.214 . S
C701 O681 1.234 . S
C702 H674 0.929 . S
C702 C705 1.391 . S
C702 C707 1.391 . S
C703 H675 0.929 . S
C703 C704 1.390 . S
C703 N706 1.391 . S
C704 H676 0.930 . S
C704 C703 1.390 . S
C704 C705 1.392 . S
C705 H677 0.929 . S
C705 C702 1.391 . S
C705 C704 1.392 . S
N706 Co650 2.257 . S
N706 C703 1.391 . S
N706 C707 1.388 . S
C707 H678 0.930 . S
C707 C702 1.391 . S
C707 N706 1.388 . S
Co708 O710 2.143 . S
Co708 O716 2.074 . S
Co708 O719 2.093 . S
Co708 O732 2.097 . S
Co708 N749 2.151 . S
Co708 N757 2.214 . S
Co709 O710 2.160 . S
Co709 O715 2.058 . S
Co709 O725 2.057 . S
Co709 O740 2.037 . S
Co709 N744 2.145 . S
Co709 N765 2.257 . S
O710 Co708 2.143 . S
O710 Co709 2.160 . S
C711 O712 1.278 . S
C711 O719 1.224 . S
O712 C711 1.278 . S
C713 O714 1.245 . S
C713 O725 1.232 . S
O714 C713 1.245 . S
O715 Co709 2.058 . S
O715 C741 1.269 . S
O716 Co708 2.074 . S
O716 C741 1.257 . S
H717 C742 0.930 . S
H718 C748 0.930 . S
O719 Co708 2.093 . S
O719 C711 1.224 . S
H720 C752 0.929 . S
H721 C754 0.930 . S
H722 C755 0.930 . S
H723 C753 0.929 . S
H724 C756 0.928 . S
O725 Co709 2.057 . S
O725 C713 1.232 . S
H726 C745 0.929 . S
H727 C746 0.929 . S
H728 C758 0.931 . S
H729 C750 0.929 . S
H730 C759 0.930 . S
H731 C751 0.931 . S
O732 Co708 2.097 . S
O732 C760 1.214 . S
H733 C761 0.929 . S
H734 C762 0.929 . S
H735 C763 0.930 . S
H736 C764 0.929 . S
H737 C766 0.930 . S
H738 C743 0.930 . S
H739 C747 0.930 . S
O740 Co709 2.037 . S
O740 C760 1.234 . S
C741 O715 1.269 . S
C741 O716 1.257 . S
C742 H717 0.930 . S
C742 C745 1.388 . S
C742 C747 1.418 . S
C743 H738 0.930 . S
C743 C746 1.404 . S
C743 C747 1.353 . S
N744 Co709 2.145 . S
N744 C745 1.397 . S
N744 C746 1.334 . S
C745 H726 0.929 . S
C745 C742 1.388 . S
C745 N744 1.397 . S
C746 H727 0.929 . S
C746 C743 1.404 . S
C746 N744 1.334 . S
C747 H739 0.930 . S
C747 C742 1.418 . S
C747 C743 1.353 . S
C748 H718 0.930 . S
C748 N749 1.330 . S
C748 C750 1.446 . S
N749 Co708 2.151 . S
N749 C748 1.330 . S
N749 C753 1.418 . S
C750 H729 0.929 . S
C750 C748 1.446 . S
C750 C751 1.332 . S
C751 H731 0.931 . S
C751 C750 1.332 . S
C751 C752 1.267 . S
C752 H720 0.929 . S
C752 C751 1.267 . S
C752 C753 1.251 . S
C753 H723 0.929 . S
C753 N749 1.418 . S
C753 C752 1.251 . S
C754 H721 0.930 . S
C754 C756 1.406 . S
C754 C759 1.261 . S
C755 H722 0.930 . S
C755 N757 1.325 . S
C755 C758 1.357 . S
C756 H724 0.928 . S
C756 C754 1.406 . S
C756 N757 1.261 . S
N757 Co708 2.214 . S
N757 C755 1.325 . S
N757 C756 1.261 . S
C758 H728 0.931 . S
C758 C755 1.357 . S
C758 C759 1.312 . S
C759 H730 0.930 . S
C759 C754 1.261 . S
C759 C758 1.312 . S
C760 O732 1.214 . S
C760 O740 1.234 . S
C761 H733 0.929 . S
C761 C764 1.391 . S
C761 C766 1.391 . S
C762 H734 0.929 . S
C762 C763 1.390 . S
C762 N765 1.391 . S
C763 H735 0.930 . S
C763 C762 1.390 . S
C763 C764 1.392 . S
C764 H736 0.929 . S
C764 C761 1.391 . S
C764 C763 1.392 . S
N765 Co709 2.257 . S
N765 C762 1.391 . S
N765 C766 1.388 . S
C766 H737 0.930 . S
C766 C761 1.391 . S
C766 N765 1.388 . S
Co767 O769 2.143 . S
Co767 O775 2.074 . S
Co767 O778 2.093 . S
Co767 O791 2.097 . S
Co767 N808 2.151 . S
Co767 N816 2.214 . S
Co768 O769 2.160 . S
Co768 O774 2.058 . S
Co768 O784 2.057 . S
Co768 O799 2.037 . S
Co768 N803 2.145 . S
Co768 N824 2.257 . S
O769 Co767 2.143 . S
O769 Co768 2.160 . S
C770 O771 1.278 . S
C770 O778 1.224 . S
O771 C770 1.278 . S
C772 O773 1.245 . S
C772 O784 1.232 . S
O773 C772 1.245 . S
O774 Co768 2.058 . S
O774 C800 1.269 . S
O775 Co767 2.074 . S
O775 C800 1.257 . S
H776 C801 0.930 . S
H777 C807 0.930 . S
O778 Co767 2.093 . S
O778 C770 1.224 . S
H779 C811 0.929 . S
H780 C813 0.930 . S
H781 C814 0.930 . S
H782 C812 0.929 . S
H783 C815 0.928 . S
O784 Co768 2.057 . S
O784 C772 1.232 . S
H785 C804 0.929 . S
H786 C805 0.929 . S
H787 C817 0.931 . S
H788 C809 0.929 . S
H789 C818 0.930 . S
H790 C810 0.931 . S
O791 Co767 2.097 . S
O791 C819 1.214 . S
H792 C820 0.929 . S
H793 C821 0.929 . S
H794 C822 0.930 . S
H795 C823 0.929 . S
H796 C825 0.930 . S
H797 C802 0.930 . S
H798 C806 0.930 . S
O799 Co768 2.037 . S
O799 C819 1.234 . S
C800 O774 1.269 . S
C800 O775 1.257 . S
C801 H776 0.930 . S
C801 C804 1.388 . S
C801 C806 1.418 . S
C802 H797 0.930 . S
C802 C805 1.404 . S
C802 C806 1.353 . S
N803 Co768 2.145 . S
N803 C804 1.397 . S
N803 C805 1.334 . S
C804 H785 0.929 . S
C804 C801 1.388 . S
C804 N803 1.397 . S
C805 H786 0.929 . S
C805 C802 1.404 . S
C805 N803 1.334 . S
C806 H798 0.930 . S
C806 C801 1.418 . S
C806 C802 1.353 . S
C807 H777 0.930 . S
C807 N808 1.330 . S
C807 C809 1.446 . S
N808 Co767 2.151 . S
N808 C807 1.330 . S
N808 C812 1.418 . S
C809 H788 0.929 . S
C809 C807 1.446 . S
C809 C810 1.332 . S
C810 H790 0.931 . S
C810 C809 1.332 . S
C810 C811 1.267 . S
C811 H779 0.929 . S
C811 C810 1.267 . S
C811 C812 1.251 . S
C812 H782 0.929 . S
C812 N808 1.418 . S
C812 C811 1.251 . S
C813 H780 0.930 . S
C813 C815 1.406 . S
C813 C818 1.261 . S
C814 H781 0.930 . S
C814 N816 1.325 . S
C814 C817 1.357 . S
C815 H783 0.928 . S
C815 C813 1.406 . S
C815 N816 1.261 . S
N816 Co767 2.214 . S
N816 C814 1.325 . S
N816 C815 1.261 . S
C817 H787 0.931 . S
C817 C814 1.357 . S
C817 C818 1.312 . S
C818 H789 0.930 . S
C818 C813 1.261 . S
C818 C817 1.312 . S
C819 O791 1.214 . S
C819 O799 1.234 . S
C820 H792 0.929 . S
C820 C823 1.391 . S
C820 C825 1.391 . S
C821 H793 0.929 . S
C821 C822 1.390 . S
C821 N824 1.391 . S
C822 H794 0.930 . S
C822 C821 1.390 . S
C822 C823 1.392 . S
C823 H795 0.929 . S
C823 C820 1.391 . S
C823 C822 1.392 . S
N824 Co768 2.257 . S
N824 C821 1.391 . S
N824 C825 1.388 . S
C825 H796 0.930 . S
C825 C820 1.391 . S
C825 N824 1.388 . S
Co826 O828 2.143 . S
Co826 O834 2.074 . S
Co826 O837 2.093 . S
Co826 O850 2.097 . S
Co826 N867 2.151 . S
Co826 N875 2.214 . S
Co827 O828 2.160 . S
Co827 O833 2.058 . S
Co827 O843 2.057 . S
Co827 O858 2.037 . S
Co827 N862 2.145 . S
Co827 N883 2.257 . S
O828 Co826 2.143 . S
O828 Co827 2.160 . S
C829 O830 1.278 . S
C829 O837 1.224 . S
O830 C829 1.278 . S
C831 O832 1.245 . S
C831 O843 1.232 . S
O832 C831 1.245 . S
O833 Co827 2.058 . S
O833 C859 1.269 . S
O834 Co826 2.074 . S
O834 C859 1.257 . S
H835 C860 0.930 . S
H836 C866 0.930 . S
O837 Co826 2.093 . S
O837 C829 1.224 . S
H838 C870 0.929 . S
H839 C872 0.930 . S
H840 C873 0.930 . S
H841 C871 0.929 . S
H842 C874 0.928 . S
O843 Co827 2.057 . S
O843 C831 1.232 . S
H844 C863 0.929 . S
H845 C864 0.929 . S
H846 C876 0.931 . S
H847 C868 0.929 . S
H848 C877 0.930 . S
H849 C869 0.931 . S
O850 Co826 2.097 . S
O850 C878 1.214 . S
H851 C879 0.929 . S
H852 C880 0.929 . S
H853 C881 0.930 . S
H854 C882 0.929 . S
H855 C884 0.930 . S
H856 C861 0.930 . S
H857 C865 0.930 . S
O858 Co827 2.037 . S
O858 C878 1.234 . S
C859 O833 1.269 . S
C859 O834 1.257 . S
C860 H835 0.930 . S
C860 C863 1.388 . S
C860 C865 1.418 . S
C861 H856 0.930 . S
C861 C864 1.404 . S
C861 C865 1.353 . S
N862 Co827 2.145 . S
N862 C863 1.397 . S
N862 C864 1.334 . S
C863 H844 0.929 . S
C863 C860 1.388 . S
C863 N862 1.397 . S
C864 H845 0.929 . S
C864 C861 1.404 . S
C864 N862 1.334 . S
C865 H857 0.930 . S
C865 C860 1.418 . S
C865 C861 1.353 . S
C866 H836 0.930 . S
C866 N867 1.330 . S
C866 C868 1.446 . S
N867 Co826 2.151 . S
N867 C866 1.330 . S
N867 C871 1.418 . S
C868 H847 0.929 . S
C868 C866 1.446 . S
C868 C869 1.332 . S
C869 H849 0.931 . S
C869 C868 1.332 . S
C869 C870 1.267 . S
C870 H838 0.929 . S
C870 C869 1.267 . S
C870 C871 1.251 . S
C871 H841 0.929 . S
C871 N867 1.418 . S
C871 C870 1.251 . S
C872 H839 0.930 . S
C872 C874 1.406 . S
C872 C877 1.261 . S
C873 H840 0.930 . S
C873 N875 1.325 . S
C873 C876 1.357 . S
C874 H842 0.928 . S
C874 C872 1.406 . S
C874 N875 1.261 . S
N875 Co826 2.214 . S
N875 C873 1.325 . S
N875 C874 1.261 . S
C876 H846 0.931 . S
C876 C873 1.357 . S
C876 C877 1.312 . S
C877 H848 0.930 . S
C877 C872 1.261 . S
C877 C876 1.312 . S
C878 O850 1.214 . S
C878 O858 1.234 . S
C879 H851 0.929 . S
C879 C882 1.391 . S
C879 C884 1.391 . S
C880 H852 0.929 . S
C880 C881 1.390 . S
C880 N883 1.391 . S
C881 H853 0.930 . S
C881 C880 1.390 . S
C881 C882 1.392 . S
C882 H854 0.929 . S
C882 C879 1.391 . S
C882 C881 1.392 . S
N883 Co827 2.257 . S
N883 C880 1.391 . S
N883 C884 1.388 . S
C884 H855 0.930 . S
C884 C879 1.391 . S
C884 N883 1.388 . S
Co885 O887 2.143 . S
Co885 O893 2.074 . S
Co885 O896 2.093 . S
Co885 O909 2.097 . S
Co885 N926 2.151 . S
Co885 N934 2.214 . S
Co886 O887 2.160 . S
Co886 O892 2.058 . S
Co886 O902 2.057 . S
Co886 O917 2.037 . S
Co886 N921 2.145 . S
Co886 N942 2.257 . S
O887 Co885 2.143 . S
O887 Co886 2.160 . S
C888 O889 1.278 . S
C888 O896 1.224 . S
O889 C888 1.278 . S
C890 O891 1.245 . S
C890 O902 1.232 . S
O891 C890 1.245 . S
O892 Co886 2.058 . S
O892 C918 1.269 . S
O893 Co885 2.074 . S
O893 C918 1.257 . S
H894 C919 0.930 . S
H895 C925 0.930 . S
O896 Co885 2.093 . S
O896 C888 1.224 . S
H897 C929 0.929 . S
H898 C931 0.930 . S
H899 C932 0.930 . S
H900 C930 0.929 . S
H901 C933 0.928 . S
O902 Co886 2.057 . S
O902 C890 1.232 . S
H903 C922 0.929 . S
H904 C923 0.929 . S
H905 C935 0.931 . S
H906 C927 0.929 . S
H907 C936 0.930 . S
H908 C928 0.931 . S
O909 Co885 2.097 . S
O909 C937 1.214 . S
H910 C938 0.929 . S
H911 C939 0.929 . S
H912 C940 0.930 . S
H913 C941 0.929 . S
H914 C943 0.930 . S
H915 C920 0.930 . S
H916 C924 0.930 . S
O917 Co886 2.037 . S
O917 C937 1.234 . S
C918 O892 1.269 . S
C918 O893 1.257 . S
C919 H894 0.930 . S
C919 C922 1.388 . S
C919 C924 1.418 . S
C920 H915 0.930 . S
C920 C923 1.404 . S
C920 C924 1.353 . S
N921 Co886 2.145 . S
N921 C922 1.397 . S
N921 C923 1.334 . S
C922 H903 0.929 . S
C922 C919 1.388 . S
C922 N921 1.397 . S
C923 H904 0.929 . S
C923 C920 1.404 . S
C923 N921 1.334 . S
C924 H916 0.930 . S
C924 C919 1.418 . S
C924 C920 1.353 . S
C925 H895 0.930 . S
C925 N926 1.330 . S
C925 C927 1.446 . S
N926 Co885 2.151 . S
N926 C925 1.330 . S
N926 C930 1.418 . S
C927 H906 0.929 . S
C927 C925 1.446 . S
C927 C928 1.332 . S
C928 H908 0.931 . S
C928 C927 1.332 . S
C928 C929 1.267 . S
C929 H897 0.929 . S
C929 C928 1.267 . S
C929 C930 1.251 . S
C930 H900 0.929 . S
C930 N926 1.418 . S
C930 C929 1.251 . S
C931 H898 0.930 . S
C931 C933 1.406 . S
C931 C936 1.261 . S
C932 H899 0.930 . S
C932 N934 1.325 . S
C932 C935 1.357 . S
C933 H901 0.928 . S
C933 C931 1.406 . S
C933 N934 1.261 . S
N934 Co885 2.214 . S
N934 C932 1.325 . S
N934 C933 1.261 . S
C935 H905 0.931 . S
C935 C932 1.357 . S
C935 C936 1.312 . S
C936 H907 0.930 . S
C936 C931 1.261 . S
C936 C935 1.312 . S
C937 O909 1.214 . S
C937 O917 1.234 . S
C938 H910 0.929 . S
C938 C941 1.391 . S
C938 C943 1.391 . S
C939 H911 0.929 . S
C939 C940 1.390 . S
C939 N942 1.391 . S
C940 H912 0.930 . S
C940 C939 1.390 . S
C940 C941 1.392 . S
C941 H913 0.929 . S
C941 C938 1.391 . S
C941 C940 1.392 . S
N942 Co886 2.257 . S
N942 C939 1.391 . S
N942 C943 1.388 . S
C943 H914 0.930 . S
C943 C938 1.391 . S
C943 N942 1.388 . S
Co944 O946 2.143 . S
Co944 O952 2.074 . S
Co944 O955 2.093 . S
Co944 O968 2.097 . S
Co944 N985 2.151 . S
Co944 N993 2.214 . S
Co945 O946 2.160 . S
Co945 O951 2.058 . S
Co945 O961 2.057 . S
Co945 O976 2.037 . S
Co945 N980 2.145 . S
Co945 N1001 2.257 . S
O946 Co944 2.143 . S
O946 Co945 2.160 . S
C947 O948 1.278 . S
C947 O955 1.224 . S
O948 C947 1.278 . S
C949 O950 1.245 . S
C949 O961 1.232 . S
O950 C949 1.245 . S
O951 Co945 2.058 . S
O951 C977 1.269 . S
O952 Co944 2.074 . S
O952 C977 1.257 . S
H953 C978 0.930 . S
H954 C984 0.930 . S
O955 Co944 2.093 . S
O955 C947 1.224 . S
H956 C988 0.929 . S
H957 C990 0.930 . S
H958 C991 0.930 . S
H959 C989 0.929 . S
H960 C992 0.928 . S
O961 Co945 2.057 . S
O961 C949 1.232 . S
H962 C981 0.929 . S
H963 C982 0.929 . S
H964 C994 0.931 . S
H965 C986 0.929 . S
H966 C995 0.930 . S
H967 C987 0.931 . S
O968 Co944 2.097 . S
O968 C996 1.214 . S
H969 C997 0.929 . S
H970 C998 0.929 . S
H971 C999 0.930 . S
H972 C1000 0.929 . S
H973 C1002 0.930 . S
H974 C979 0.930 . S
H975 C983 0.930 1_655 S
O976 Co945 2.037 . S
O976 C996 1.234 . S
C977 O951 1.269 . S
C977 O952 1.257 . S
C978 H953 0.930 . S
C978 C981 1.388 . S
C978 C983 1.418 . S
C979 H974 0.930 . S
C979 C982 1.404 . S
C979 C983 1.353 . S
N980 Co945 2.145 . S
N980 C981 1.397 . S
N980 C982 1.334 . S
C981 H962 0.929 . S
C981 C978 1.388 . S
C981 N980 1.397 . S
C982 H963 0.929 . S
C982 C979 1.404 . S
C982 N980 1.334 . S
C983 H975 0.930 1_455 S
C983 C978 1.418 . S
C983 C979 1.353 . S
C984 H954 0.930 . S
C984 N985 1.330 . S
C984 C986 1.446 . S
N985 Co944 2.151 . S
N985 C984 1.330 . S
N985 C989 1.418 . S
C986 H965 0.929 . S
C986 C984 1.446 . S
C986 C987 1.332 . S
C987 H967 0.931 . S
C987 C986 1.332 . S
C987 C988 1.267 . S
C988 H956 0.929 . S
C988 C987 1.267 . S
C988 C989 1.251 . S
C989 H959 0.929 . S
C989 N985 1.418 . S
C989 C988 1.251 . S
C990 H957 0.930 . S
C990 C992 1.406 . S
C990 C995 1.261 . S
C991 H958 0.930 . S
C991 N993 1.325 . S
C991 C994 1.357 . S
C992 H960 0.928 . S
C992 C990 1.406 . S
C992 N993 1.261 . S
N993 Co944 2.214 . S
N993 C991 1.325 . S
N993 C992 1.261 . S
C994 H964 0.931 . S
C994 C991 1.357 . S
C994 C995 1.312 . S
C995 H966 0.930 . S
C995 C990 1.261 . S
C995 C994 1.312 . S
C996 O968 1.214 . S
C996 O976 1.234 . S
C997 H969 0.929 . S
C997 C1000 1.391 . S
C997 C1002 1.391 . S
C998 H970 0.929 . S
C998 C999 1.390 . S
C998 N1001 1.391 . S
C999 H971 0.930 . S
C999 C998 1.390 . S
C999 C1000 1.392 . S
C1000 H972 0.929 . S
C1000 C997 1.391 . S
C1000 C999 1.392 . S
N1001 Co945 2.257 . S
N1001 C998 1.391 . S
N1001 C1002 1.388 . S
C1002 H973 0.930 . S
C1002 C997 1.391 . S
C1002 N1001 1.388 . S
Co1003 O1005 2.143 . S
Co1003 O1011 2.074 . S
Co1003 O1014 2.093 . S
Co1003 O1027 2.097 . S
Co1003 N1044 2.151 . S
Co1003 N1052 2.214 . S
Co1004 O1005 2.160 . S
Co1004 O1010 2.058 . S
Co1004 O1020 2.057 . S
Co1004 O1035 2.037 . S
Co1004 N1039 2.145 . S
Co1004 N1060 2.257 . S
O1005 Co1003 2.143 . S
O1005 Co1004 2.160 . S
C1006 O1007 1.278 . S
C1006 O1014 1.224 . S
O1007 C1006 1.278 . S
C1008 O1009 1.245 . S
C1008 O1020 1.232 . S
O1009 C1008 1.245 . S
O1010 Co1004 2.058 . S
O1010 C1036 1.269 . S
O1011 Co1003 2.074 . S
O1011 C1036 1.257 . S
H1012 C1037 0.930 . S
H1013 C1043 0.930 . S
O1014 Co1003 2.093 . S
O1014 C1006 1.224 . S
H1015 C1047 0.929 . S
H1016 C1049 0.930 . S
H1017 C1050 0.930 . S
H1018 C1048 0.929 . S
H1019 C1051 0.928 . S
O1020 Co1004 2.057 . S
O1020 C1008 1.232 . S
H1021 C1040 0.929 . S
H1022 C1041 0.929 . S
H1023 C1053 0.931 . S
H1024 C1045 0.929 . S
H1025 C1054 0.930 . S
H1026 C1046 0.931 . S
O1027 Co1003 2.097 . S
O1027 C1055 1.214 . S
H1028 C1056 0.929 . S
H1029 C1057 0.929 . S
H1030 C1058 0.930 . S
H1031 C1059 0.929 . S
H1032 C1061 0.930 . S
H1033 C1038 0.930 . S
H1034 C1042 0.930 . S
O1035 Co1004 2.037 . S
O1035 C1055 1.234 . S
C1036 O1010 1.269 . S
C1036 O1011 1.257 . S
C1037 H1012 0.930 . S
C1037 C1040 1.388 . S
C1037 C1042 1.418 . S
C1038 H1033 0.930 . S
C1038 C1041 1.404 . S
C1038 C1042 1.353 . S
N1039 Co1004 2.145 . S
N1039 C1040 1.397 . S
N1039 C1041 1.334 . S
C1040 H1021 0.929 . S
C1040 C1037 1.388 . S
C1040 N1039 1.397 . S
C1041 H1022 0.929 . S
C1041 C1038 1.404 . S
C1041 N1039 1.334 . S
C1042 H1034 0.930 . S
C1042 C1037 1.418 . S
C1042 C1038 1.353 . S
C1043 H1013 0.930 . S
C1043 N1044 1.330 . S
C1043 C1045 1.446 . S
N1044 Co1003 2.151 . S
N1044 C1043 1.330 . S
N1044 C1048 1.418 . S
C1045 H1024 0.929 . S
C1045 C1043 1.446 . S
C1045 C1046 1.332 . S
C1046 H1026 0.931 . S
C1046 C1045 1.332 . S
C1046 C1047 1.267 . S
C1047 H1015 0.929 . S
C1047 C1046 1.267 . S
C1047 C1048 1.251 . S
C1048 H1018 0.929 . S
C1048 N1044 1.418 . S
C1048 C1047 1.251 . S
C1049 H1016 0.930 . S
C1049 C1051 1.406 . S
C1049 C1054 1.261 . S
C1050 H1017 0.930 . S
C1050 N1052 1.325 . S
C1050 C1053 1.357 . S
C1051 H1019 0.928 . S
C1051 C1049 1.406 . S
C1051 N1052 1.261 . S
N1052 Co1003 2.214 . S
N1052 C1050 1.325 . S
N1052 C1051 1.261 . S
C1053 H1023 0.931 . S
C1053 C1050 1.357 . S
C1053 C1054 1.312 . S
C1054 H1025 0.930 . S
C1054 C1049 1.261 . S
C1054 C1053 1.312 . S
C1055 O1027 1.214 . S
C1055 O1035 1.234 . S
C1056 H1028 0.929 . S
C1056 C1059 1.391 . S
C1056 C1061 1.391 . S
C1057 H1029 0.929 . S
C1057 C1058 1.390 . S
C1057 N1060 1.391 . S
C1058 H1030 0.930 . S
C1058 C1057 1.390 . S
C1058 C1059 1.392 . S
C1059 H1031 0.929 . S
C1059 C1056 1.391 . S
C1059 C1058 1.392 . S
N1060 Co1004 2.257 . S
N1060 C1057 1.391 . S
N1060 C1061 1.388 . S
C1061 H1032 0.930 . S
C1061 C1056 1.391 . S
C1061 N1060 1.388 . S
Co1062 O1064 2.143 . S
Co1062 O1070 2.074 . S
Co1062 O1073 2.093 . S
Co1062 O1086 2.097 . S
Co1062 N1103 2.151 . S
Co1062 N1111 2.214 . S
Co1063 O1064 2.160 . S
Co1063 O1069 2.058 . S
Co1063 O1079 2.057 . S
Co1063 O1094 2.037 . S
Co1063 N1098 2.145 . S
Co1063 N1119 2.257 . S
O1064 Co1062 2.143 . S
O1064 Co1063 2.160 . S
C1065 O1066 1.278 . S
C1065 O1073 1.224 . S
O1066 C1065 1.278 . S
C1067 O1068 1.245 . S
C1067 O1079 1.232 . S
O1068 C1067 1.245 . S
O1069 Co1063 2.058 . S
O1069 C1095 1.269 . S
O1070 Co1062 2.074 . S
O1070 C1095 1.257 . S
H1071 C1096 0.930 . S
H1072 C1102 0.930 . S
O1073 Co1062 2.093 . S
O1073 C1065 1.224 . S
H1074 C1106 0.929 . S
H1075 C1108 0.930 . S
H1076 C1109 0.930 . S
H1077 C1107 0.929 . S
H1078 C1110 0.928 . S
O1079 Co1063 2.057 . S
O1079 C1067 1.232 . S
H1080 C1099 0.929 . S
H1081 C1100 0.929 . S
H1082 C1112 0.931 . S
H1083 C1104 0.929 . S
H1084 C1113 0.930 . S
H1085 C1105 0.931 . S
O1086 Co1062 2.097 . S
O1086 C1114 1.214 . S
H1087 C1115 0.929 . S
H1088 C1116 0.929 . S
H1089 C1117 0.930 . S
H1090 C1118 0.929 . S
H1091 C1120 0.930 . S
H1092 C1097 0.930 . S
H1093 C1101 0.930 . S
O1094 Co1063 2.037 . S
O1094 C1114 1.234 . S
C1095 O1069 1.269 . S
C1095 O1070 1.257 . S
C1096 H1071 0.930 . S
C1096 C1099 1.388 . S
C1096 C1101 1.418 . S
C1097 H1092 0.930 . S
C1097 C1100 1.404 . S
C1097 C1101 1.353 . S
N1098 Co1063 2.145 . S
N1098 C1099 1.397 . S
N1098 C1100 1.334 . S
C1099 H1080 0.929 . S
C1099 C1096 1.388 . S
C1099 N1098 1.397 . S
C1100 H1081 0.929 . S
C1100 C1097 1.404 . S
C1100 N1098 1.334 . S
C1101 H1093 0.930 . S
C1101 C1096 1.418 . S
C1101 C1097 1.353 . S
C1102 H1072 0.930 . S
C1102 N1103 1.330 . S
C1102 C1104 1.446 . S
N1103 Co1062 2.151 . S
N1103 C1102 1.330 . S
N1103 C1107 1.418 . S
C1104 H1083 0.929 . S
C1104 C1102 1.446 . S
C1104 C1105 1.332 . S
C1105 H1085 0.931 . S
C1105 C1104 1.332 . S
C1105 C1106 1.267 . S
C1106 H1074 0.929 . S
C1106 C1105 1.267 . S
C1106 C1107 1.251 . S
C1107 H1077 0.929 . S
C1107 N1103 1.418 . S
C1107 C1106 1.251 . S
C1108 H1075 0.930 . S
C1108 C1110 1.406 . S
C1108 C1113 1.261 . S
C1109 H1076 0.930 . S
C1109 N1111 1.325 . S
C1109 C1112 1.357 . S
C1110 H1078 0.928 . S
C1110 C1108 1.406 . S
C1110 N1111 1.261 . S
N1111 Co1062 2.214 . S
N1111 C1109 1.325 . S
N1111 C1110 1.261 . S
C1112 H1082 0.931 . S
C1112 C1109 1.357 . S
C1112 C1113 1.312 . S
C1113 H1084 0.930 . S
C1113 C1108 1.261 . S
C1113 C1112 1.312 . S
C1114 O1086 1.214 . S
C1114 O1094 1.234 . S
C1115 H1087 0.929 . S
C1115 C1118 1.391 . S
C1115 C1120 1.391 . S
C1116 H1088 0.929 . S
C1116 C1117 1.390 . S
C1116 N1119 1.391 . S
C1117 H1089 0.930 . S
C1117 C1116 1.390 . S
C1117 C1118 1.392 . S
C1118 H1090 0.929 . S
C1118 C1115 1.391 . S
C1118 C1117 1.392 . S
N1119 Co1063 2.257 . S
N1119 C1116 1.391 . S
N1119 C1120 1.388 . S
C1120 H1091 0.930 . S
C1120 C1115 1.391 . S
C1120 N1119 1.388 . S
Co1121 O1123 2.143 . S
Co1121 O1129 2.074 . S
Co1121 O1132 2.093 . S
Co1121 O1145 2.097 . S
Co1121 N1162 2.151 . S
Co1121 N1170 2.214 . S
Co1122 O1123 2.160 . S
Co1122 O1128 2.058 . S
Co1122 O1138 2.057 . S
Co1122 O1153 2.037 . S
Co1122 N1157 2.145 . S
Co1122 N1178 2.257 . S
O1123 Co1121 2.143 . S
O1123 Co1122 2.160 . S
C1124 O1125 1.278 . S
C1124 O1132 1.224 . S
O1125 C1124 1.278 . S
C1126 O1127 1.245 . S
C1126 O1138 1.232 . S
O1127 C1126 1.245 . S
O1128 Co1122 2.058 . S
O1128 C1154 1.269 . S
O1129 Co1121 2.074 . S
O1129 C1154 1.257 . S
H1130 C1155 0.930 . S
H1131 C1161 0.930 . S
O1132 Co1121 2.093 . S
O1132 C1124 1.224 . S
H1133 C1165 0.929 . S
H1134 C1167 0.930 . S
H1135 C1168 0.930 . S
H1136 C1166 0.929 . S
H1137 C1169 0.928 . S
O1138 Co1122 2.057 . S
O1138 C1126 1.232 . S
H1139 C1158 0.929 . S
H1140 C1159 0.929 . S
H1141 C1171 0.931 . S
H1142 C1163 0.929 . S
H1143 C1172 0.930 . S
H1144 C1164 0.931 . S
O1145 Co1121 2.097 . S
O1145 C1173 1.214 . S
H1146 C1174 0.929 . S
H1147 C1175 0.929 . S
H1148 C1176 0.930 . S
H1149 C1177 0.929 . S
H1150 C1179 0.930 . S
H1151 C1156 0.930 . S
H1152 C1160 0.930 . S
O1153 Co1122 2.037 . S
O1153 C1173 1.234 . S
C1154 O1128 1.269 . S
C1154 O1129 1.257 . S
C1155 H1130 0.930 . S
C1155 C1158 1.388 . S
C1155 C1160 1.418 . S
C1156 H1151 0.930 . S
C1156 C1159 1.404 . S
C1156 C1160 1.353 . S
N1157 Co1122 2.145 . S
N1157 C1158 1.397 . S
N1157 C1159 1.334 . S
C1158 H1139 0.929 . S
C1158 C1155 1.388 . S
C1158 N1157 1.397 . S
C1159 H1140 0.929 . S
C1159 C1156 1.404 . S
C1159 N1157 1.334 . S
C1160 H1152 0.930 . S
C1160 C1155 1.418 . S
C1160 C1156 1.353 . S
C1161 H1131 0.930 . S
C1161 N1162 1.330 . S
C1161 C1163 1.446 . S
N1162 Co1121 2.151 . S
N1162 C1161 1.330 . S
N1162 C1166 1.418 . S
C1163 H1142 0.929 . S
C1163 C1161 1.446 . S
C1163 C1164 1.332 . S
C1164 H1144 0.931 . S
C1164 C1163 1.332 . S
C1164 C1165 1.267 . S
C1165 H1133 0.929 . S
C1165 C1164 1.267 . S
C1165 C1166 1.251 . S
C1166 H1136 0.929 . S
C1166 N1162 1.418 . S
C1166 C1165 1.251 . S
C1167 H1134 0.930 . S
C1167 C1169 1.406 . S
C1167 C1172 1.261 . S
C1168 H1135 0.930 . S
C1168 N1170 1.325 . S
C1168 C1171 1.357 . S
C1169 H1137 0.928 . S
C1169 C1167 1.406 . S
C1169 N1170 1.261 . S
N1170 Co1121 2.214 . S
N1170 C1168 1.325 . S
N1170 C1169 1.261 . S
C1171 H1141 0.931 . S
C1171 C1168 1.357 . S
C1171 C1172 1.312 . S
C1172 H1143 0.930 . S
C1172 C1167 1.261 . S
C1172 C1171 1.312 . S
C1173 O1145 1.214 . S
C1173 O1153 1.234 . S
C1174 H1146 0.929 . S
C1174 C1177 1.391 . S
C1174 C1179 1.391 . S
C1175 H1147 0.929 . S
C1175 C1176 1.390 . S
C1175 N1178 1.391 . S
C1176 H1148 0.930 . S
C1176 C1175 1.390 . S
C1176 C1177 1.392 . S
C1177 H1149 0.929 . S
C1177 C1174 1.391 . S
C1177 C1176 1.392 . S
N1178 Co1122 2.257 . S
N1178 C1175 1.391 . S
N1178 C1179 1.388 . S
C1179 H1150 0.930 . S
C1179 C1174 1.391 . S
C1179 N1178 1.388 . S
Co1180 O1182 2.143 . S
Co1180 O1188 2.074 . S
Co1180 O1191 2.093 . S
Co1180 O1204 2.097 . S
Co1180 N1221 2.151 . S
Co1180 N1229 2.214 . S
Co1181 O1182 2.160 . S
Co1181 O1187 2.058 . S
Co1181 O1197 2.057 . S
Co1181 O1212 2.037 . S
Co1181 N1216 2.145 . S
Co1181 N1237 2.257 . S
O1182 Co1180 2.143 . S
O1182 Co1181 2.160 . S
C1183 O1184 1.278 . S
C1183 O1191 1.224 . S
O1184 C1183 1.278 . S
C1185 O1186 1.245 . S
C1185 O1197 1.232 . S
O1186 C1185 1.245 . S
O1187 Co1181 2.058 . S
O1187 C1213 1.269 . S
O1188 Co1180 2.074 . S
O1188 C1213 1.257 . S
H1189 C1214 0.930 . S
H1190 C1220 0.930 . S
O1191 Co1180 2.093 . S
O1191 C1183 1.224 . S
H1192 C1224 0.929 . S
H1193 C1226 0.930 . S
H1194 C1227 0.930 . S
H1195 C1225 0.929 . S
H1196 C1228 0.928 . S
O1197 Co1181 2.057 . S
O1197 C1185 1.232 . S
H1198 C1217 0.929 . S
H1199 C1218 0.929 . S
H1200 C1230 0.931 . S
H1201 C1222 0.929 . S
H1202 C1231 0.930 . S
H1203 C1223 0.931 . S
O1204 Co1180 2.097 . S
O1204 C1232 1.214 . S
H1205 C1233 0.929 . S
H1206 C1234 0.929 . S
H1207 C1235 0.930 . S
H1208 C1236 0.929 . S
H1209 C1238 0.930 . S
H1210 C1215 0.930 . S
H1211 C1219 0.930 . S
O1212 Co1181 2.037 . S
O1212 C1232 1.234 . S
C1213 O1187 1.269 . S
C1213 O1188 1.257 . S
C1214 H1189 0.930 . S
C1214 C1217 1.388 . S
C1214 C1219 1.418 . S
C1215 H1210 0.930 . S
C1215 C1218 1.404 . S
C1215 C1219 1.353 . S
N1216 Co1181 2.145 . S
N1216 C1217 1.397 . S
N1216 C1218 1.334 . S
C1217 H1198 0.929 . S
C1217 C1214 1.388 . S
C1217 N1216 1.397 . S
C1218 H1199 0.929 . S
C1218 C1215 1.404 . S
C1218 N1216 1.334 . S
C1219 H1211 0.930 . S
C1219 C1214 1.418 . S
C1219 C1215 1.353 . S
C1220 H1190 0.930 . S
C1220 N1221 1.330 . S
C1220 C1222 1.446 . S
N1221 Co1180 2.151 . S
N1221 C1220 1.330 . S
N1221 C1225 1.418 . S
C1222 H1201 0.929 . S
C1222 C1220 1.446 . S
C1222 C1223 1.332 . S
C1223 H1203 0.931 . S
C1223 C1222 1.332 . S
C1223 C1224 1.267 . S
C1224 H1192 0.929 . S
C1224 C1223 1.267 . S
C1224 C1225 1.251 . S
C1225 H1195 0.929 . S
C1225 N1221 1.418 . S
C1225 C1224 1.251 . S
C1226 H1193 0.930 . S
C1226 C1228 1.406 . S
C1226 C1231 1.261 . S
C1227 H1194 0.930 . S
C1227 N1229 1.325 . S
C1227 C1230 1.357 . S
C1228 H1196 0.928 . S
C1228 C1226 1.406 . S
C1228 N1229 1.261 . S
N1229 Co1180 2.214 . S
N1229 C1227 1.325 . S
N1229 C1228 1.261 . S
C1230 H1200 0.931 . S
C1230 C1227 1.357 . S
C1230 C1231 1.312 . S
C1231 H1202 0.930 . S
C1231 C1226 1.261 . S
C1231 C1230 1.312 . S
C1232 O1204 1.214 . S
C1232 O1212 1.234 . S
C1233 H1205 0.929 . S
C1233 C1236 1.391 . S
C1233 C1238 1.391 . S
C1234 H1206 0.929 . S
C1234 C1235 1.390 . S
C1234 N1237 1.391 . S
C1235 H1207 0.930 . S
C1235 C1234 1.390 . S
C1235 C1236 1.392 . S
C1236 H1208 0.929 . S
C1236 C1233 1.391 . S
C1236 C1235 1.392 . S
N1237 Co1181 2.257 . S
N1237 C1234 1.391 . S
N1237 C1238 1.388 . S
C1238 H1209 0.930 . S
C1238 C1233 1.391 . S
C1238 N1237 1.388 . S
Co1239 O1241 2.143 . S
Co1239 O1247 2.074 . S
Co1239 O1250 2.093 . S
Co1239 O1263 2.097 . S
Co1239 N1280 2.151 . S
Co1239 N1288 2.214 . S
Co1240 O1241 2.160 . S
Co1240 O1246 2.058 . S
Co1240 O1256 2.057 . S
Co1240 O1271 2.037 . S
Co1240 N1275 2.145 . S
Co1240 N1296 2.257 . S
O1241 Co1239 2.143 . S
O1241 Co1240 2.160 . S
C1242 O1243 1.278 . S
C1242 O1250 1.224 . S
O1243 C1242 1.278 . S
C1244 O1245 1.245 . S
C1244 O1256 1.232 . S
O1245 C1244 1.245 . S
O1246 Co1240 2.058 . S
O1246 C1272 1.269 . S
O1247 Co1239 2.074 . S
O1247 C1272 1.257 . S
H1248 C1273 0.930 . S
H1249 C1279 0.930 . S
O1250 Co1239 2.093 . S
O1250 C1242 1.224 . S
H1251 C1283 0.929 . S
H1252 C1285 0.930 . S
H1253 C1286 0.930 . S
H1254 C1284 0.929 . S
H1255 C1287 0.928 . S
O1256 Co1240 2.057 . S
O1256 C1244 1.232 . S
H1257 C1276 0.929 . S
H1258 C1277 0.929 . S
H1259 C1289 0.931 . S
H1260 C1281 0.929 . S
H1261 C1290 0.930 . S
H1262 C1282 0.931 . S
O1263 Co1239 2.097 . S
O1263 C1291 1.214 . S
H1264 C1292 0.929 . S
H1265 C1293 0.929 . S
H1266 C1294 0.930 . S
H1267 C1295 0.929 . S
H1268 C1297 0.930 . S
H1269 C1274 0.930 . S
H1270 C1278 0.930 . S
O1271 Co1240 2.037 . S
O1271 C1291 1.234 . S
C1272 O1246 1.269 . S
C1272 O1247 1.257 . S
C1273 H1248 0.930 . S
C1273 C1276 1.388 . S
C1273 C1278 1.418 . S
C1274 H1269 0.930 . S
C1274 C1277 1.404 . S
C1274 C1278 1.353 . S
N1275 Co1240 2.145 . S
N1275 C1276 1.397 . S
N1275 C1277 1.334 . S
C1276 H1257 0.929 . S
C1276 C1273 1.388 . S
C1276 N1275 1.397 . S
C1277 H1258 0.929 . S
C1277 C1274 1.404 . S
C1277 N1275 1.334 . S
C1278 H1270 0.930 . S
C1278 C1273 1.418 . S
C1278 C1274 1.353 . S
C1279 H1249 0.930 . S
C1279 N1280 1.330 . S
C1279 C1281 1.446 . S
N1280 Co1239 2.151 . S
N1280 C1279 1.330 . S
N1280 C1284 1.418 . S
C1281 H1260 0.929 . S
C1281 C1279 1.446 . S
C1281 C1282 1.332 . S
C1282 H1262 0.931 . S
C1282 C1281 1.332 . S
C1282 C1283 1.267 . S
C1283 H1251 0.929 . S
C1283 C1282 1.267 . S
C1283 C1284 1.251 . S
C1284 H1254 0.929 . S
C1284 N1280 1.418 . S
C1284 C1283 1.251 . S
C1285 H1252 0.930 . S
C1285 C1287 1.406 . S
C1285 C1290 1.261 . S
C1286 H1253 0.930 . S
C1286 N1288 1.325 . S
C1286 C1289 1.357 . S
C1287 H1255 0.928 . S
C1287 C1285 1.406 . S
C1287 N1288 1.261 . S
N1288 Co1239 2.214 . S
N1288 C1286 1.325 . S
N1288 C1287 1.261 . S
C1289 H1259 0.931 . S
C1289 C1286 1.357 . S
C1289 C1290 1.312 . S
C1290 H1261 0.930 . S
C1290 C1285 1.261 . S
C1290 C1289 1.312 . S
C1291 O1263 1.214 . S
C1291 O1271 1.234 . S
C1292 H1264 0.929 . S
C1292 C1295 1.391 . S
C1292 C1297 1.391 . S
C1293 H1265 0.929 . S
C1293 C1294 1.390 . S
C1293 N1296 1.391 . S
C1294 H1266 0.930 . S
C1294 C1293 1.390 . S
C1294 C1295 1.392 . S
C1295 H1267 0.929 . S
C1295 C1292 1.391 . S
C1295 C1294 1.392 . S
N1296 Co1240 2.257 . S
N1296 C1293 1.391 . S
N1296 C1297 1.388 . S
C1297 H1268 0.930 . S
C1297 C1292 1.391 . S
C1297 N1296 1.388 . S
Co1298 O1300 2.143 . S
Co1298 O1306 2.074 . S
Co1298 O1309 2.093 . S
Co1298 O1322 2.097 . S
Co1298 N1339 2.151 . S
Co1298 N1347 2.214 . S
Co1299 O1300 2.160 . S
Co1299 O1305 2.058 . S
Co1299 O1315 2.057 . S
Co1299 O1330 2.037 . S
Co1299 N1334 2.145 . S
Co1299 N1355 2.257 . S
O1300 Co1298 2.143 . S
O1300 Co1299 2.160 . S
C1301 O1302 1.278 . S
C1301 O1309 1.224 . S
O1302 C1301 1.278 . S
C1303 O1304 1.245 . S
C1303 O1315 1.232 . S
O1304 C1303 1.245 . S
O1305 Co1299 2.058 . S
O1305 C1331 1.269 . S
O1306 Co1298 2.074 . S
O1306 C1331 1.257 . S
H1307 C1332 0.930 . S
H1308 C1338 0.930 . S
O1309 Co1298 2.093 . S
O1309 C1301 1.224 . S
H1310 C1342 0.929 . S
H1311 C1344 0.930 . S
H1312 C1345 0.930 . S
H1313 C1343 0.929 . S
H1314 C1346 0.928 . S
O1315 Co1299 2.057 . S
O1315 C1303 1.232 . S
H1316 C1335 0.929 . S
H1317 C1336 0.929 . S
H1318 C1348 0.931 . S
H1319 C1340 0.929 . S
H1320 C1349 0.930 . S
H1321 C1341 0.931 . S
O1322 Co1298 2.097 . S
O1322 C1350 1.214 . S
H1323 C1351 0.929 . S
H1324 C1352 0.929 . S
H1325 C1353 0.930 . S
H1326 C1354 0.929 . S
H1327 C1356 0.930 . S
H1328 C1333 0.930 . S
H1329 C1337 0.930 . S
O1330 Co1299 2.037 . S
O1330 C1350 1.234 . S
C1331 O1305 1.269 . S
C1331 O1306 1.257 . S
C1332 H1307 0.930 . S
C1332 C1335 1.388 . S
C1332 C1337 1.418 . S
C1333 H1328 0.930 . S
C1333 C1336 1.404 . S
C1333 C1337 1.353 . S
N1334 Co1299 2.145 . S
N1334 C1335 1.397 . S
N1334 C1336 1.334 . S
C1335 H1316 0.929 . S
C1335 C1332 1.388 . S
C1335 N1334 1.397 . S
C1336 H1317 0.929 . S
C1336 C1333 1.404 . S
C1336 N1334 1.334 . S
C1337 H1329 0.930 . S
C1337 C1332 1.418 . S
C1337 C1333 1.353 . S
C1338 H1308 0.930 . S
C1338 N1339 1.330 . S
C1338 C1340 1.446 . S
N1339 Co1298 2.151 . S
N1339 C1338 1.330 . S
N1339 C1343 1.418 . S
C1340 H1319 0.929 . S
C1340 C1338 1.446 . S
C1340 C1341 1.332 . S
C1341 H1321 0.931 . S
C1341 C1340 1.332 . S
C1341 C1342 1.267 . S
C1342 H1310 0.929 . S
C1342 C1341 1.267 . S
C1342 C1343 1.251 . S
C1343 H1313 0.929 . S
C1343 N1339 1.418 . S
C1343 C1342 1.251 . S
C1344 H1311 0.930 . S
C1344 C1346 1.406 . S
C1344 C1349 1.261 . S
C1345 H1312 0.930 . S
C1345 N1347 1.325 . S
C1345 C1348 1.357 . S
C1346 H1314 0.928 . S
C1346 C1344 1.406 . S
C1346 N1347 1.261 . S
N1347 Co1298 2.214 . S
N1347 C1345 1.325 . S
N1347 C1346 1.261 . S
C1348 H1318 0.931 . S
C1348 C1345 1.357 . S
C1348 C1349 1.312 . S
C1349 H1320 0.930 . S
C1349 C1344 1.261 . S
C1349 C1348 1.312 . S
C1350 O1322 1.214 . S
C1350 O1330 1.234 . S
C1351 H1323 0.929 . S
C1351 C1354 1.391 . S
C1351 C1356 1.391 . S
C1352 H1324 0.929 . S
C1352 C1353 1.390 . S
C1352 N1355 1.391 . S
C1353 H1325 0.930 . S
C1353 C1352 1.390 . S
C1353 C1354 1.392 . S
C1354 H1326 0.929 . S
C1354 C1351 1.391 . S
C1354 C1353 1.392 . S
N1355 Co1299 2.257 . S
N1355 C1352 1.391 . S
N1355 C1356 1.388 . S
C1356 H1327 0.930 . S
C1356 C1351 1.391 . S
C1356 N1355 1.388 . S
Co1357 O1359 2.143 . S
Co1357 O1365 2.074 . S
Co1357 O1368 2.093 . S
Co1357 O1381 2.097 . S
Co1357 N1398 2.151 . S
Co1357 N1406 2.214 . S
Co1358 O1359 2.160 . S
Co1358 O1364 2.058 . S
Co1358 O1374 2.057 . S
Co1358 O1389 2.037 . S
Co1358 N1393 2.145 . S
Co1358 N1414 2.257 . S
O1359 Co1357 2.143 . S
O1359 Co1358 2.160 . S
C1360 O1361 1.278 . S
C1360 O1368 1.224 . S
O1361 C1360 1.278 . S
C1362 O1363 1.245 . S
C1362 O1374 1.232 . S
O1363 C1362 1.245 . S
O1364 Co1358 2.058 . S
O1364 C1390 1.269 . S
O1365 Co1357 2.074 . S
O1365 C1390 1.257 . S
H1366 C1391 0.930 . S
H1367 C1397 0.930 . S
O1368 Co1357 2.093 . S
O1368 C1360 1.224 . S
H1369 C1401 0.929 . S
H1370 C1403 0.930 . S
H1371 C1404 0.930 . S
H1372 C1402 0.929 . S
H1373 C1405 0.928 . S
O1374 Co1358 2.057 . S
O1374 C1362 1.232 . S
H1375 C1394 0.929 . S
H1376 C1395 0.929 . S
H1377 C1407 0.931 . S
H1378 C1399 0.929 . S
H1379 C1408 0.930 . S
H1380 C1400 0.931 . S
O1381 Co1357 2.097 . S
O1381 C1409 1.214 . S
H1382 C1410 0.929 . S
H1383 C1411 0.929 . S
H1384 C1412 0.930 . S
H1385 C1413 0.929 . S
H1386 C1415 0.930 . S
H1387 C1392 0.930 . S
H1388 C1396 0.930 . S
O1389 Co1358 2.037 . S
O1389 C1409 1.234 . S
C1390 O1364 1.269 . S
C1390 O1365 1.257 . S
C1391 H1366 0.930 . S
C1391 C1394 1.388 . S
C1391 C1396 1.418 . S
C1392 H1387 0.930 . S
C1392 C1395 1.404 . S
C1392 C1396 1.353 . S
N1393 Co1358 2.145 . S
N1393 C1394 1.397 . S
N1393 C1395 1.334 . S
C1394 H1375 0.929 . S
C1394 C1391 1.388 . S
C1394 N1393 1.397 . S
C1395 H1376 0.929 . S
C1395 C1392 1.404 . S
C1395 N1393 1.334 . S
C1396 H1388 0.930 . S
C1396 C1391 1.418 . S
C1396 C1392 1.353 . S
C1397 H1367 0.930 . S
C1397 N1398 1.330 . S
C1397 C1399 1.446 . S
N1398 Co1357 2.151 . S
N1398 C1397 1.330 . S
N1398 C1402 1.418 . S
C1399 H1378 0.929 . S
C1399 C1397 1.446 . S
C1399 C1400 1.332 . S
C1400 H1380 0.931 . S
C1400 C1399 1.332 . S
C1400 C1401 1.267 . S
C1401 H1369 0.929 . S
C1401 C1400 1.267 . S
C1401 C1402 1.251 . S
C1402 H1372 0.929 . S
C1402 N1398 1.418 . S
C1402 C1401 1.251 . S
C1403 H1370 0.930 . S
C1403 C1405 1.406 . S
C1403 C1408 1.261 . S
C1404 H1371 0.930 . S
C1404 N1406 1.325 . S
C1404 C1407 1.357 . S
C1405 H1373 0.928 . S
C1405 C1403 1.406 . S
C1405 N1406 1.261 . S
N1406 Co1357 2.214 . S
N1406 C1404 1.325 . S
N1406 C1405 1.261 . S
C1407 H1377 0.931 . S
C1407 C1404 1.357 . S
C1407 C1408 1.312 . S
C1408 H1379 0.930 . S
C1408 C1403 1.261 . S
C1408 C1407 1.312 . S
C1409 O1381 1.214 . S
C1409 O1389 1.234 . S
C1410 H1382 0.929 . S
C1410 C1413 1.391 . S
C1410 C1415 1.391 . S
C1411 H1383 0.929 . S
C1411 C1412 1.390 . S
C1411 N1414 1.391 . S
C1412 H1384 0.930 . S
C1412 C1411 1.390 . S
C1412 C1413 1.392 . S
C1413 H1385 0.929 . S
C1413 C1410 1.391 . S
C1413 C1412 1.392 . S
N1414 Co1358 2.257 . S
N1414 C1411 1.391 . S
N1414 C1415 1.388 . S
C1415 H1386 0.930 . S
C1415 C1410 1.391 . S
C1415 N1414 1.388 . S
Co1416 O1418 2.143 . S
Co1416 O1424 2.074 . S
Co1416 O1427 2.093 . S
Co1416 O1440 2.097 . S
Co1416 N1457 2.151 . S
Co1416 N1465 2.214 . S
Co1417 O1418 2.160 . S
Co1417 O1423 2.058 . S
Co1417 O1433 2.057 . S
Co1417 O1448 2.037 . S
Co1417 N1452 2.145 . S
Co1417 N1473 2.257 . S
O1418 Co1416 2.143 . S
O1418 Co1417 2.160 . S
C1419 O1420 1.278 . S
C1419 O1427 1.224 . S
O1420 C1419 1.278 . S
C1421 O1422 1.245 . S
C1421 O1433 1.232 . S
O1422 C1421 1.245 . S
O1423 Co1417 2.058 . S
O1423 C1449 1.269 . S
O1424 Co1416 2.074 . S
O1424 C1449 1.257 . S
H1425 C1450 0.930 . S
H1426 C1456 0.930 . S
O1427 Co1416 2.093 . S
O1427 C1419 1.224 . S
H1428 C1460 0.929 . S
H1429 C1462 0.930 . S
H1430 C1463 0.930 . S
H1431 C1461 0.929 . S
H1432 C1464 0.928 . S
O1433 Co1417 2.057 . S
O1433 C1421 1.232 . S
H1434 C1453 0.929 . S
H1435 C1454 0.929 . S
H1436 C1466 0.931 . S
H1437 C1458 0.929 . S
H1438 C1467 0.930 . S
H1439 C1459 0.931 . S
O1440 Co1416 2.097 . S
O1440 C1468 1.214 . S
H1441 C1469 0.929 . S
H1442 C1470 0.929 . S
H1443 C1471 0.930 . S
H1444 C1472 0.929 . S
H1445 C1474 0.930 . S
H1446 C1451 0.930 . S
H1447 C1455 0.930 . S
O1448 Co1417 2.037 . S
O1448 C1468 1.234 . S
C1449 O1423 1.269 . S
C1449 O1424 1.257 . S
C1450 H1425 0.930 . S
C1450 C1453 1.388 . S
C1450 C1455 1.418 . S
C1451 H1446 0.930 . S
C1451 C1454 1.404 . S
C1451 C1455 1.353 . S
N1452 Co1417 2.145 . S
N1452 C1453 1.397 . S
N1452 C1454 1.334 . S
C1453 H1434 0.929 . S
C1453 C1450 1.388 . S
C1453 N1452 1.397 . S
C1454 H1435 0.929 . S
C1454 C1451 1.404 . S
C1454 N1452 1.334 . S
C1455 H1447 0.930 . S
C1455 C1450 1.418 . S
C1455 C1451 1.353 . S
C1456 H1426 0.930 . S
C1456 N1457 1.330 . S
C1456 C1458 1.446 . S
N1457 Co1416 2.151 . S
N1457 C1456 1.330 . S
N1457 C1461 1.418 . S
C1458 H1437 0.929 . S
C1458 C1456 1.446 . S
C1458 C1459 1.332 . S
C1459 H1439 0.931 . S
C1459 C1458 1.332 . S
C1459 C1460 1.267 . S
C1460 H1428 0.929 . S
C1460 C1459 1.267 . S
C1460 C1461 1.251 . S
C1461 H1431 0.929 . S
C1461 N1457 1.418 . S
C1461 C1460 1.251 . S
C1462 H1429 0.930 . S
C1462 C1464 1.406 . S
C1462 C1467 1.261 . S
C1463 H1430 0.930 . S
C1463 N1465 1.325 . S
C1463 C1466 1.357 . S
C1464 H1432 0.928 . S
C1464 C1462 1.406 . S
C1464 N1465 1.261 . S
N1465 Co1416 2.214 . S
N1465 C1463 1.325 . S
N1465 C1464 1.261 . S
C1466 H1436 0.931 . S
C1466 C1463 1.357 . S
C1466 C1467 1.312 . S
C1467 H1438 0.930 . S
C1467 C1462 1.261 . S
C1467 C1466 1.312 . S
C1468 O1440 1.214 . S
C1468 O1448 1.234 . S
C1469 H1441 0.929 . S
C1469 C1472 1.391 . S
C1469 C1474 1.391 . S
C1470 H1442 0.929 . S
C1470 C1471 1.390 . S
C1470 N1473 1.391 . S
C1471 H1443 0.930 . S
C1471 C1470 1.390 . S
C1471 C1472 1.392 . S
C1472 H1444 0.929 . S
C1472 C1469 1.391 . S
C1472 C1471 1.392 . S
N1473 Co1417 2.257 . S
N1473 C1470 1.391 . S
N1473 C1474 1.388 . S
C1474 H1445 0.930 . S
C1474 C1469 1.391 . S
C1474 N1473 1.388 . S
Co1475 O1477 2.143 . S
Co1475 O1483 2.074 . S
Co1475 O1486 2.093 . S
Co1475 O1499 2.097 . S
Co1475 N1516 2.151 . S
Co1475 N1524 2.214 . S
Co1476 O1477 2.160 . S
Co1476 O1482 2.058 . S
Co1476 O1492 2.057 . S
Co1476 O1507 2.037 . S
Co1476 N1511 2.145 . S
Co1476 N1532 2.257 . S
O1477 Co1475 2.143 . S
O1477 Co1476 2.160 . S
C1478 O1479 1.278 . S
C1478 O1486 1.224 . S
O1479 C1478 1.278 . S
C1480 O1481 1.245 . S
C1480 O1492 1.232 . S
O1481 C1480 1.245 . S
O1482 Co1476 2.058 . S
O1482 C1508 1.269 . S
O1483 Co1475 2.074 . S
O1483 C1508 1.257 . S
H1484 C1509 0.930 . S
H1485 C1515 0.930 . S
O1486 Co1475 2.093 . S
O1486 C1478 1.224 . S
H1487 C1519 0.929 . S
H1488 C1521 0.930 . S
H1489 C1522 0.930 . S
H1490 C1520 0.929 . S
H1491 C1523 0.928 . S
O1492 Co1476 2.057 . S
O1492 C1480 1.232 . S
H1493 C1512 0.929 . S
H1494 C1513 0.929 . S
H1495 C1525 0.931 . S
H1496 C1517 0.929 . S
H1497 C1526 0.930 . S
H1498 C1518 0.931 . S
O1499 Co1475 2.097 . S
O1499 C1527 1.214 . S
H1500 C1528 0.929 . S
H1501 C1529 0.929 . S
H1502 C1530 0.930 . S
H1503 C1531 0.929 . S
H1504 C1533 0.930 . S
H1505 C1510 0.930 . S
H1506 C1514 0.930 . S
O1507 Co1476 2.037 . S
O1507 C1527 1.234 . S
C1508 O1482 1.269 . S
C1508 O1483 1.257 . S
C1509 H1484 0.930 . S
C1509 C1512 1.388 . S
C1509 C1514 1.418 . S
C1510 H1505 0.930 . S
C1510 C1513 1.404 . S
C1510 C1514 1.353 . S
N1511 Co1476 2.145 . S
N1511 C1512 1.397 . S
N1511 C1513 1.334 . S
C1512 H1493 0.929 . S
C1512 C1509 1.388 . S
C1512 N1511 1.397 . S
C1513 H1494 0.929 . S
C1513 C1510 1.404 . S
C1513 N1511 1.334 . S
C1514 H1506 0.930 . S
C1514 C1509 1.418 . S
C1514 C1510 1.353 . S
C1515 H1485 0.930 . S
C1515 N1516 1.330 . S
C1515 C1517 1.446 . S
N1516 Co1475 2.151 . S
N1516 C1515 1.330 . S
N1516 C1520 1.418 . S
C1517 H1496 0.929 . S
C1517 C1515 1.446 . S
C1517 C1518 1.332 . S
C1518 H1498 0.931 . S
C1518 C1517 1.332 . S
C1518 C1519 1.267 . S
C1519 H1487 0.929 . S
C1519 C1518 1.267 . S
C1519 C1520 1.251 . S
C1520 H1490 0.929 . S
C1520 N1516 1.418 . S
C1520 C1519 1.251 . S
C1521 H1488 0.930 . S
C1521 C1523 1.406 . S
C1521 C1526 1.261 . S
C1522 H1489 0.930 . S
C1522 N1524 1.325 . S
C1522 C1525 1.357 . S
C1523 H1491 0.928 . S
C1523 C1521 1.406 . S
C1523 N1524 1.261 . S
N1524 Co1475 2.214 . S
N1524 C1522 1.325 . S
N1524 C1523 1.261 . S
C1525 H1495 0.931 . S
C1525 C1522 1.357 . S
C1525 C1526 1.312 . S
C1526 H1497 0.930 . S
C1526 C1521 1.261 . S
C1526 C1525 1.312 . S
C1527 O1499 1.214 . S
C1527 O1507 1.234 . S
C1528 H1500 0.929 . S
C1528 C1531 1.391 . S
C1528 C1533 1.391 . S
C1529 H1501 0.929 . S
C1529 C1530 1.390 . S
C1529 N1532 1.391 . S
C1530 H1502 0.930 . S
C1530 C1529 1.390 . S
C1530 C1531 1.392 . S
C1531 H1503 0.929 . S
C1531 C1528 1.391 . S
C1531 C1530 1.392 . S
N1532 Co1476 2.257 . S
N1532 C1529 1.391 . S
N1532 C1533 1.388 . S
C1533 H1504 0.930 . S
C1533 C1528 1.391 . S
C1533 N1532 1.388 . S
Co1534 O1536 2.143 . S
Co1534 O1542 2.074 . S
Co1534 O1545 2.093 . S
Co1534 O1558 2.097 . S
Co1534 N1575 2.151 . S
Co1534 N1583 2.214 . S
Co1535 O1536 2.160 . S
Co1535 O1541 2.058 . S
Co1535 O1551 2.057 . S
Co1535 O1566 2.037 . S
Co1535 N1570 2.145 . S
Co1535 N1591 2.257 . S
O1536 Co1534 2.143 . S
O1536 Co1535 2.160 . S
C1537 O1538 1.278 . S
C1537 O1545 1.224 . S
O1538 C1537 1.278 . S
C1539 O1540 1.245 . S
C1539 O1551 1.232 . S
O1540 C1539 1.245 . S
O1541 Co1535 2.058 . S
O1541 C1567 1.269 . S
O1542 Co1534 2.074 . S
O1542 C1567 1.257 . S
H1543 C1568 0.930 . S
H1544 C1574 0.930 . S
O1545 Co1534 2.093 . S
O1545 C1537 1.224 . S
H1546 C1578 0.929 . S
H1547 C1580 0.930 . S
H1548 C1581 0.930 . S
H1549 C1579 0.929 . S
H1550 C1582 0.928 . S
O1551 Co1535 2.057 . S
O1551 C1539 1.232 . S
H1552 C1571 0.929 . S
H1553 C1572 0.929 . S
H1554 C1584 0.931 . S
H1555 C1576 0.929 . S
H1556 C1585 0.930 . S
H1557 C1577 0.931 . S
O1558 Co1534 2.097 . S
O1558 C1586 1.214 . S
H1559 C1587 0.929 . S
H1560 C1588 0.929 . S
H1561 C1589 0.930 . S
H1562 C1590 0.929 . S
H1563 C1592 0.930 . S
H1564 C1569 0.930 . S
H1565 C1573 0.930 . S
O1566 Co1535 2.037 . S
O1566 C1586 1.234 . S
C1567 O1541 1.269 . S
C1567 O1542 1.257 . S
C1568 H1543 0.930 . S
C1568 C1571 1.388 . S
C1568 C1573 1.418 . S
C1569 H1564 0.930 . S
C1569 C1572 1.404 . S
C1569 C1573 1.353 . S
N1570 Co1535 2.145 . S
N1570 C1571 1.397 . S
N1570 C1572 1.334 . S
C1571 H1552 0.929 . S
C1571 C1568 1.388 . S
C1571 N1570 1.397 . S
C1572 H1553 0.929 . S
C1572 C1569 1.404 . S
C1572 N1570 1.334 . S
C1573 H1565 0.930 . S
C1573 C1568 1.418 . S
C1573 C1569 1.353 . S
C1574 H1544 0.930 . S
C1574 N1575 1.330 . S
C1574 C1576 1.446 . S
N1575 Co1534 2.151 . S
N1575 C1574 1.330 . S
N1575 C1579 1.418 . S
C1576 H1555 0.929 . S
C1576 C1574 1.446 . S
C1576 C1577 1.332 . S
C1577 H1557 0.931 . S
C1577 C1576 1.332 . S
C1577 C1578 1.267 . S
C1578 H1546 0.929 . S
C1578 C1577 1.267 . S
C1578 C1579 1.251 . S
C1579 H1549 0.929 . S
C1579 N1575 1.418 . S
C1579 C1578 1.251 . S
C1580 H1547 0.930 . S
C1580 C1582 1.406 . S
C1580 C1585 1.261 . S
C1581 H1548 0.930 . S
C1581 N1583 1.325 . S
C1581 C1584 1.357 . S
C1582 H1550 0.928 . S
C1582 C1580 1.406 . S
C1582 N1583 1.261 . S
N1583 Co1534 2.214 . S
N1583 C1581 1.325 . S
N1583 C1582 1.261 . S
C1584 H1554 0.931 . S
C1584 C1581 1.357 . S
C1584 C1585 1.312 . S
C1585 H1556 0.930 . S
C1585 C1580 1.261 . S
C1585 C1584 1.312 . S
C1586 O1558 1.214 . S
C1586 O1566 1.234 . S
C1587 H1559 0.929 . S
C1587 C1590 1.391 . S
C1587 C1592 1.391 . S
C1588 H1560 0.929 . S
C1588 C1589 1.390 . S
C1588 N1591 1.391 . S
C1589 H1561 0.930 . S
C1589 C1588 1.390 . S
C1589 C1590 1.392 . S
C1590 H1562 0.929 . S
C1590 C1587 1.391 . S
C1590 C1589 1.392 . S
N1591 Co1535 2.257 . S
N1591 C1588 1.391 . S
N1591 C1592 1.388 . S
C1592 H1563 0.930 . S
C1592 C1587 1.391 . S
C1592 N1591 1.388 . S
Co1593 O1595 2.143 . S
Co1593 O1601 2.074 . S
Co1593 O1604 2.093 . S
Co1593 O1617 2.097 . S
Co1593 N1634 2.151 . S
Co1593 N1642 2.214 . S
Co1594 O1595 2.160 . S
Co1594 O1600 2.058 . S
Co1594 O1610 2.057 . S
Co1594 O1625 2.037 . S
Co1594 N1629 2.145 . S
Co1594 N1650 2.257 . S
O1595 Co1593 2.143 . S
O1595 Co1594 2.160 . S
C1596 O1597 1.278 . S
C1596 O1604 1.224 . S
O1597 C1596 1.278 . S
C1598 O1599 1.245 . S
C1598 O1610 1.232 . S
O1599 C1598 1.245 . S
O1600 Co1594 2.058 . S
O1600 C1626 1.269 . S
O1601 Co1593 2.074 . S
O1601 C1626 1.257 . S
H1602 C1627 0.930 . S
H1603 C1633 0.930 . S
O1604 Co1593 2.093 . S
O1604 C1596 1.224 . S
H1605 C1637 0.929 . S
H1606 C1639 0.930 . S
H1607 C1640 0.930 . S
H1608 C1638 0.929 . S
H1609 C1641 0.928 . S
O1610 Co1594 2.057 . S
O1610 C1598 1.232 . S
H1611 C1630 0.929 . S
H1612 C1631 0.929 . S
H1613 C1643 0.931 . S
H1614 C1635 0.929 . S
H1615 C1644 0.930 . S
H1616 C1636 0.931 . S
O1617 Co1593 2.097 . S
O1617 C1645 1.214 . S
H1618 C1646 0.929 . S
H1619 C1647 0.929 . S
H1620 C1648 0.930 . S
H1621 C1649 0.929 . S
H1622 C1651 0.930 . S
H1623 C1628 0.930 . S
H1624 C1632 0.930 . S
O1625 Co1594 2.037 . S
O1625 C1645 1.234 . S
C1626 O1600 1.269 . S
C1626 O1601 1.257 . S
C1627 H1602 0.930 . S
C1627 C1630 1.388 . S
C1627 C1632 1.418 . S
C1628 H1623 0.930 . S
C1628 C1631 1.404 . S
C1628 C1632 1.353 . S
N1629 Co1594 2.145 . S
N1629 C1630 1.397 . S
N1629 C1631 1.334 . S
C1630 H1611 0.929 . S
C1630 C1627 1.388 . S
C1630 N1629 1.397 . S
C1631 H1612 0.929 . S
C1631 C1628 1.404 . S
C1631 N1629 1.334 . S
C1632 H1624 0.930 . S
C1632 C1627 1.418 . S
C1632 C1628 1.353 . S
C1633 H1603 0.930 . S
C1633 N1634 1.330 . S
C1633 C1635 1.446 . S
N1634 Co1593 2.151 . S
N1634 C1633 1.330 . S
N1634 C1638 1.418 . S
C1635 H1614 0.929 . S
C1635 C1633 1.446 . S
C1635 C1636 1.332 . S
C1636 H1616 0.931 . S
C1636 C1635 1.332 . S
C1636 C1637 1.267 . S
C1637 H1605 0.929 . S
C1637 C1636 1.267 . S
C1637 C1638 1.251 . S
C1638 H1608 0.929 . S
C1638 N1634 1.418 . S
C1638 C1637 1.251 . S
C1639 H1606 0.930 . S
C1639 C1641 1.406 . S
C1639 C1644 1.261 . S
C1640 H1607 0.930 . S
C1640 N1642 1.325 . S
C1640 C1643 1.357 . S
C1641 H1609 0.928 . S
C1641 C1639 1.406 . S
C1641 N1642 1.261 . S
N1642 Co1593 2.214 . S
N1642 C1640 1.325 . S
N1642 C1641 1.261 . S
C1643 H1613 0.931 . S
C1643 C1640 1.357 . S
C1643 C1644 1.312 . S
C1644 H1615 0.930 . S
C1644 C1639 1.261 . S
C1644 C1643 1.312 . S
C1645 O1617 1.214 . S
C1645 O1625 1.234 . S
C1646 H1618 0.929 . S
C1646 C1649 1.391 . S
C1646 C1651 1.391 . S
C1647 H1619 0.929 . S
C1647 C1648 1.390 . S
C1647 N1650 1.391 . S
C1648 H1620 0.930 . S
C1648 C1647 1.390 . S
C1648 C1649 1.392 . S
C1649 H1621 0.929 . S
C1649 C1646 1.391 . S
C1649 C1648 1.392 . S
N1650 Co1594 2.257 . S
N1650 C1647 1.391 . S
N1650 C1651 1.388 . S
C1651 H1622 0.930 . S
C1651 C1646 1.391 . S
C1651 N1650 1.388 . S
Co1652 O1654 2.143 . S
Co1652 O1660 2.074 . S
Co1652 O1663 2.093 . S
Co1652 O1676 2.097 . S
Co1652 N1693 2.151 . S
Co1652 N1701 2.214 . S
Co1653 O1654 2.160 . S
Co1653 O1659 2.058 . S
Co1653 O1669 2.057 . S
Co1653 O1684 2.037 . S
Co1653 N1688 2.145 . S
Co1653 N1709 2.257 . S
O1654 Co1652 2.143 . S
O1654 Co1653 2.160 . S
C1655 O1656 1.278 . S
C1655 O1663 1.224 . S
O1656 C1655 1.278 . S
C1657 O1658 1.245 . S
C1657 O1669 1.232 . S
O1658 C1657 1.245 . S
O1659 Co1653 2.058 . S
O1659 C1685 1.269 . S
O1660 Co1652 2.074 . S
O1660 C1685 1.257 . S
H1661 C1686 0.930 . S
H1662 C1692 0.930 . S
O1663 Co1652 2.093 . S
O1663 C1655 1.224 . S
H1664 C1696 0.929 . S
H1665 C1698 0.930 . S
H1666 C1699 0.930 . S
H1667 C1697 0.929 . S
H1668 C1700 0.928 . S
O1669 Co1653 2.057 . S
O1669 C1657 1.232 . S
H1670 C1689 0.929 . S
H1671 C1690 0.929 . S
H1672 C1702 0.931 . S
H1673 C1694 0.929 . S
H1674 C1703 0.923 1_565 S
H1675 C1695 0.931 . S
O1676 Co1652 2.097 . S
O1676 C1704 1.214 . S
H1677 C1705 0.929 . S
H1678 C1706 0.929 . S
H1679 C1707 0.930 . S
H1680 C1708 0.929 . S
H1681 C1710 0.930 . S
H1682 C1687 0.930 . S
H1683 C1691 0.930 . S
O1684 Co1653 2.037 . S
O1684 C1704 1.234 . S
C1685 O1659 1.269 . S
C1685 O1660 1.257 . S
C1686 H1661 0.930 . S
C1686 C1689 1.388 . S
C1686 C1691 1.418 . S
C1687 H1682 0.930 . S
C1687 C1690 1.404 . S
C1687 C1691 1.353 . S
N1688 Co1653 2.145 . S
N1688 C1689 1.397 . S
N1688 C1690 1.334 . S
C1689 H1670 0.929 . S
C1689 C1686 1.388 . S
C1689 N1688 1.397 . S
C1690 H1671 0.929 . S
C1690 C1687 1.404 . S
C1690 N1688 1.334 . S
C1691 H1683 0.930 . S
C1691 C1686 1.418 . S
C1691 C1687 1.353 . S
C1692 H1662 0.930 . S
C1692 N1693 1.330 . S
C1692 C1694 1.446 . S
N1693 Co1652 2.151 . S
N1693 C1692 1.330 . S
N1693 C1697 1.418 . S
C1694 H1673 0.929 . S
C1694 C1692 1.446 . S
C1694 C1695 1.332 . S
C1695 H1675 0.931 . S
C1695 C1694 1.332 . S
C1695 C1696 1.267 . S
C1696 H1664 0.929 . S
C1696 C1695 1.267 . S
C1696 C1697 1.251 . S
C1697 H1667 0.929 . S
C1697 N1693 1.418 . S
C1697 C1696 1.251 . S
C1698 H1665 0.930 . S
C1698 C1700 1.406 . S
C1698 C1703 1.261 . S
C1699 H1666 0.930 . S
C1699 N1701 1.325 . S
C1699 C1702 1.357 . S
C1700 H1668 0.928 . S
C1700 C1698 1.406 . S
C1700 N1701 1.261 . S
N1701 Co1652 2.214 . S
N1701 C1699 1.325 . S
N1701 C1700 1.261 . S
C1702 H1672 0.931 . S
C1702 C1699 1.357 . S
C1702 C1703 1.312 . S
C1703 H1674 0.923 1_545 S
C1703 C1698 1.261 . S
C1703 C1702 1.312 . S
C1704 O1676 1.214 . S
C1704 O1684 1.234 . S
C1705 H1677 0.929 . S
C1705 C1708 1.391 . S
C1705 C1710 1.391 . S
C1706 H1678 0.929 . S
C1706 C1707 1.390 . S
C1706 N1709 1.391 . S
C1707 H1679 0.930 . S
C1707 C1706 1.390 . S
C1707 C1708 1.392 . S
C1708 H1680 0.929 . S
C1708 C1705 1.391 . S
C1708 C1707 1.392 . S
N1709 Co1653 2.257 . S
N1709 C1706 1.391 . S
N1709 C1710 1.388 . S
C1710 H1681 0.930 . S
C1710 C1705 1.391 . S
C1710 N1709 1.388 . S
Co1711 O1713 2.143 . S
Co1711 O1719 2.074 . S
Co1711 O1722 2.093 . S
Co1711 O1735 2.097 . S
Co1711 N1752 2.151 . S
Co1711 N1760 2.214 . S
Co1712 O1713 2.160 . S
Co1712 O1718 2.058 . S
Co1712 O1728 2.057 . S
Co1712 O1743 2.037 . S
Co1712 N1747 2.145 . S
Co1712 N1768 2.257 . S
O1713 Co1711 2.143 . S
O1713 Co1712 2.160 . S
C1714 O1715 1.278 . S
C1714 O1722 1.224 . S
O1715 C1714 1.278 . S
C1716 O1717 1.245 . S
C1716 O1728 1.232 . S
O1717 C1716 1.245 . S
O1718 Co1712 2.058 . S
O1718 C1744 1.269 . S
O1719 Co1711 2.074 . S
O1719 C1744 1.257 . S
H1720 C1745 0.930 . S
H1721 C1751 0.930 . S
O1722 Co1711 2.093 . S
O1722 C1714 1.224 . S
H1723 C1755 0.929 . S
H1724 C1757 0.930 . S
H1725 C1758 0.930 . S
H1726 C1756 0.929 . S
H1727 C1759 0.928 . S
O1728 Co1712 2.057 . S
O1728 C1716 1.232 . S
H1729 C1748 0.929 . S
H1730 C1749 0.929 . S
H1731 C1761 0.931 . S
H1732 C1753 0.929 . S
H1733 C1762 0.930 . S
H1734 C1754 0.931 . S
O1735 Co1711 2.097 . S
O1735 C1763 1.214 . S
H1736 C1764 0.929 . S
H1737 C1765 0.929 . S
H1738 C1766 0.930 . S
H1739 C1767 0.929 . S
H1740 C1769 0.930 . S
H1741 C1746 0.930 . S
H1742 C1750 0.930 . S
O1743 Co1712 2.037 . S
O1743 C1763 1.234 . S
C1744 O1718 1.269 . S
C1744 O1719 1.257 . S
C1745 H1720 0.930 . S
C1745 C1748 1.388 . S
C1745 C1750 1.418 . S
C1746 H1741 0.930 . S
C1746 C1749 1.404 . S
C1746 C1750 1.353 . S
N1747 Co1712 2.145 . S
N1747 C1748 1.397 . S
N1747 C1749 1.334 . S
C1748 H1729 0.929 . S
C1748 C1745 1.388 . S
C1748 N1747 1.397 . S
C1749 H1730 0.929 . S
C1749 C1746 1.404 . S
C1749 N1747 1.334 . S
C1750 H1742 0.930 . S
C1750 C1745 1.418 . S
C1750 C1746 1.353 . S
C1751 H1721 0.930 . S
C1751 N1752 1.330 . S
C1751 C1753 1.446 . S
N1752 Co1711 2.151 . S
N1752 C1751 1.330 . S
N1752 C1756 1.418 . S
C1753 H1732 0.929 . S
C1753 C1751 1.446 . S
C1753 C1754 1.332 . S
C1754 H1734 0.931 . S
C1754 C1753 1.332 . S
C1754 C1755 1.267 . S
C1755 H1723 0.929 . S
C1755 C1754 1.267 . S
C1755 C1756 1.251 . S
C1756 H1726 0.929 . S
C1756 N1752 1.418 . S
C1756 C1755 1.251 . S
C1757 H1724 0.930 . S
C1757 C1759 1.406 . S
C1757 C1762 1.261 . S
C1758 H1725 0.930 . S
C1758 N1760 1.325 . S
C1758 C1761 1.357 . S
C1759 H1727 0.928 . S
C1759 C1757 1.406 . S
C1759 N1760 1.261 . S
N1760 Co1711 2.214 . S
N1760 C1758 1.325 . S
N1760 C1759 1.261 . S
C1761 H1731 0.931 . S
C1761 C1758 1.357 . S
C1761 C1762 1.312 . S
C1762 H1733 0.930 . S
C1762 C1757 1.261 . S
C1762 C1761 1.312 . S
C1763 O1735 1.214 . S
C1763 O1743 1.234 . S
C1764 H1736 0.929 . S
C1764 C1767 1.391 . S
C1764 C1769 1.391 . S
C1765 H1737 0.929 . S
C1765 C1766 1.390 . S
C1765 N1768 1.391 . S
C1766 H1738 0.930 . S
C1766 C1765 1.390 . S
C1766 C1767 1.392 . S
C1767 H1739 0.929 . S
C1767 C1764 1.391 . S
C1767 C1766 1.392 . S
N1768 Co1712 2.257 . S
N1768 C1765 1.391 . S
N1768 C1769 1.388 . S
C1769 H1740 0.930 . S
C1769 C1764 1.391 . S
C1769 N1768 1.388 . S
Co1770 O1772 2.143 . S
Co1770 O1778 2.074 . S
Co1770 O1781 2.093 . S
Co1770 O1794 2.097 . S
Co1770 N1811 2.151 . S
Co1770 N1819 2.214 . S
Co1771 O1772 2.160 . S
Co1771 O1777 2.058 . S
Co1771 O1787 2.057 . S
Co1771 O1802 2.037 . S
Co1771 N1806 2.145 . S
Co1771 N1827 2.257 . S
O1772 Co1770 2.143 . S
O1772 Co1771 2.160 . S
C1773 O1774 1.278 . S
C1773 O1781 1.224 . S
O1774 C1773 1.278 . S
C1775 O1776 1.245 . S
C1775 O1787 1.232 . S
O1776 C1775 1.245 . S
O1777 Co1771 2.058 . S
O1777 C1803 1.269 . S
O1778 Co1770 2.074 . S
O1778 C1803 1.257 . S
H1779 C1804 0.930 . S
H1780 C1810 0.930 . S
O1781 Co1770 2.093 . S
O1781 C1773 1.224 . S
H1782 C1814 0.929 . S
H1783 C1816 0.930 . S
H1784 C1817 0.930 . S
H1785 C1815 0.929 . S
H1786 C1818 0.928 . S
O1787 Co1771 2.057 . S
O1787 C1775 1.232 . S
H1788 C1807 0.929 . S
H1789 C1808 0.929 . S
H1790 C1820 0.931 . S
H1791 C1812 0.929 . S
H1792 C1821 0.930 1_545 S
H1793 C1813 0.931 . S
O1794 Co1770 2.097 . S
O1794 C1822 1.214 . S
H1795 C1823 0.929 . S
H1796 C1824 0.929 . S
H1797 C1825 0.930 . S
H1798 C1826 0.929 . S
H1799 C1828 0.930 . S
H1800 C1805 0.930 . S
H1801 C1809 0.930 . S
O1802 Co1771 2.037 . S
O1802 C1822 1.234 . S
C1803 O1777 1.269 . S
C1803 O1778 1.257 . S
C1804 H1779 0.930 . S
C1804 C1807 1.388 . S
C1804 C1809 1.418 . S
C1805 H1800 0.930 . S
C1805 C1808 1.404 . S
C1805 C1809 1.353 . S
N1806 Co1771 2.145 . S
N1806 C1807 1.397 . S
N1806 C1808 1.334 . S
C1807 H1788 0.929 . S
C1807 C1804 1.388 . S
C1807 N1806 1.397 . S
C1808 H1789 0.929 . S
C1808 C1805 1.404 . S
C1808 N1806 1.334 . S
C1809 H1801 0.930 . S
C1809 C1804 1.418 . S
C1809 C1805 1.353 . S
C1810 H1780 0.930 . S
C1810 N1811 1.330 . S
C1810 C1812 1.446 . S
N1811 Co1770 2.151 . S
N1811 C1810 1.330 . S
N1811 C1815 1.418 . S
C1812 H1791 0.929 . S
C1812 C1810 1.446 . S
C1812 C1813 1.332 . S
C1813 H1793 0.931 . S
C1813 C1812 1.332 . S
C1813 C1814 1.267 . S
C1814 H1782 0.929 . S
C1814 C1813 1.267 . S
C1814 C1815 1.251 . S
C1815 H1785 0.929 . S
C1815 N1811 1.418 . S
C1815 C1814 1.251 . S
C1816 H1783 0.930 . S
C1816 C1818 1.406 . S
C1816 C1821 1.261 . S
C1817 H1784 0.930 . S
C1817 N1819 1.325 . S
C1817 C1820 1.357 . S
C1818 H1786 0.928 . S
C1818 C1816 1.406 . S
C1818 N1819 1.261 . S
N1819 Co1770 2.214 . S
N1819 C1817 1.325 . S
N1819 C1818 1.261 . S
C1820 H1790 0.931 . S
C1820 C1817 1.357 . S
C1820 C1821 1.312 . S
C1821 H1792 0.930 1_565 S
C1821 C1816 1.261 . S
C1821 C1820 1.312 . S
C1822 O1794 1.214 . S
C1822 O1802 1.234 . S
C1823 H1795 0.929 . S
C1823 C1826 1.391 . S
C1823 C1828 1.391 . S
C1824 H1796 0.929 . S
C1824 C1825 1.390 . S
C1824 N1827 1.391 . S
C1825 H1797 0.930 . S
C1825 C1824 1.390 . S
C1825 C1826 1.392 . S
C1826 H1798 0.929 . S
C1826 C1823 1.391 . S
C1826 C1825 1.392 . S
N1827 Co1771 2.257 . S
N1827 C1824 1.391 . S
N1827 C1828 1.388 . S
C1828 H1799 0.930 . S
C1828 C1823 1.391 . S
C1828 N1827 1.388 . S
Co1829 O1831 2.143 . S
Co1829 O1837 2.074 . S
Co1829 O1840 2.093 . S
Co1829 O1853 2.097 . S
Co1829 N1870 2.151 . S
Co1829 N1878 2.214 . S
Co1830 O1831 2.160 . S
Co1830 O1836 2.058 . S
Co1830 O1846 2.057 . S
Co1830 O1861 2.037 . S
Co1830 N1865 2.145 . S
Co1830 N1886 2.257 . S
O1831 Co1829 2.143 . S
O1831 Co1830 2.160 . S
C1832 O1833 1.278 . S
C1832 O1840 1.224 . S
O1833 C1832 1.278 . S
C1834 O1835 1.245 . S
C1834 O1846 1.232 . S
O1835 C1834 1.245 . S
O1836 Co1830 2.058 . S
O1836 C1862 1.269 . S
O1837 Co1829 2.074 . S
O1837 C1862 1.257 . S
H1838 C1863 0.930 . S
H1839 C1869 0.930 . S
O1840 Co1829 2.093 . S
O1840 C1832 1.224 . S
H1841 C1873 0.929 . S
H1842 C1875 0.930 . S
H1843 C1876 0.930 . S
H1844 C1874 0.929 . S
H1845 C1877 0.928 . S
O1846 Co1830 2.057 . S
O1846 C1834 1.232 . S
H1847 C1866 0.929 . S
H1848 C1867 0.929 . S
H1849 C1879 0.931 . S
H1850 C1871 0.929 . S
H1851 C1880 0.930 . S
H1852 C1872 0.931 . S
O1853 Co1829 2.097 . S
O1853 C1881 1.214 . S
H1854 C1882 0.929 . S
H1855 C1883 0.929 . S
H1856 C1884 0.930 . S
H1857 C1885 0.929 . S
H1858 C1887 0.930 . S
H1859 C1864 0.930 . S
H1860 C1868 0.930 . S
O1861 Co1830 2.037 . S
O1861 C1881 1.234 . S
C1862 O1836 1.269 . S
C1862 O1837 1.257 . S
C1863 H1838 0.930 . S
C1863 C1866 1.388 . S
C1863 C1868 1.418 . S
C1864 H1859 0.930 . S
C1864 C1867 1.404 . S
C1864 C1868 1.353 . S
N1865 Co1830 2.145 . S
N1865 C1866 1.397 . S
N1865 C1867 1.334 . S
C1866 H1847 0.929 . S
C1866 C1863 1.388 . S
C1866 N1865 1.397 . S
C1867 H1848 0.929 . S
C1867 C1864 1.404 . S
C1867 N1865 1.334 . S
C1868 H1860 0.930 . S
C1868 C1863 1.418 . S
C1868 C1864 1.353 . S
C1869 H1839 0.930 . S
C1869 N1870 1.330 . S
C1869 C1871 1.446 . S
N1870 Co1829 2.151 . S
N1870 C1869 1.330 . S
N1870 C1874 1.418 . S
C1871 H1850 0.929 . S
C1871 C1869 1.446 . S
C1871 C1872 1.332 . S
C1872 H1852 0.931 . S
C1872 C1871 1.332 . S
C1872 C1873 1.267 . S
C1873 H1841 0.929 . S
C1873 C1872 1.267 . S
C1873 C1874 1.251 . S
C1874 H1844 0.929 . S
C1874 N1870 1.418 . S
C1874 C1873 1.251 . S
C1875 H1842 0.930 . S
C1875 C1877 1.406 . S
C1875 C1880 1.261 . S
C1876 H1843 0.930 . S
C1876 N1878 1.325 . S
C1876 C1879 1.357 . S
C1877 H1845 0.928 . S
C1877 C1875 1.406 . S
C1877 N1878 1.261 . S
N1878 Co1829 2.214 . S
N1878 C1876 1.325 . S
N1878 C1877 1.261 . S
C1879 H1849 0.931 . S
C1879 C1876 1.357 . S
C1879 C1880 1.312 . S
C1880 H1851 0.930 . S
C1880 C1875 1.261 . S
C1880 C1879 1.312 . S
C1881 O1853 1.214 . S
C1881 O1861 1.234 . S
C1882 H1854 0.929 . S
C1882 C1885 1.391 . S
C1882 C1887 1.391 . S
C1883 H1855 0.929 . S
C1883 C1884 1.390 . S
C1883 N1886 1.391 . S
C1884 H1856 0.930 . S
C1884 C1883 1.390 . S
C1884 C1885 1.392 . S
C1885 H1857 0.929 . S
C1885 C1882 1.391 . S
C1885 C1884 1.392 . S
N1886 Co1830 2.257 . S
N1886 C1883 1.391 . S
N1886 C1887 1.388 . S
C1887 H1858 0.930 . S
C1887 C1882 1.391 . S
C1887 N1886 1.388 . S
Co1888 O1890 2.143 . S
Co1888 O1896 2.074 . S
Co1888 O1899 2.093 . S
Co1888 O1912 2.097 . S
Co1888 N1929 2.151 . S
Co1888 N1937 2.214 . S
Co1889 O1890 2.160 . S
Co1889 O1895 2.058 . S
Co1889 O1905 2.057 . S
Co1889 O1920 2.037 . S
Co1889 N1924 2.145 . S
Co1889 N1945 2.257 . S
O1890 Co1888 2.143 . S
O1890 Co1889 2.160 . S
C1891 O1892 1.278 . S
C1891 O1899 1.224 . S
O1892 C1891 1.278 . S
C1893 O1894 1.245 . S
C1893 O1905 1.232 . S
O1894 C1893 1.245 . S
O1895 Co1889 2.058 . S
O1895 C1921 1.269 . S
O1896 Co1888 2.074 . S
O1896 C1921 1.257 . S
H1897 C1922 0.930 . S
H1898 C1928 0.930 . S
O1899 Co1888 2.093 . S
O1899 C1891 1.224 . S
H1900 C1932 0.929 . S
H1901 C1934 0.930 . S
H1902 C1935 0.930 . S
H1903 C1933 0.929 . S
H1904 C1936 0.928 . S
O1905 Co1889 2.057 . S
O1905 C1893 1.232 . S
H1906 C1925 0.929 . S
H1907 C1926 0.929 . S
H1908 C1938 0.931 . S
H1909 C1930 0.929 . S
H1910 C1939 0.930 . S
H1911 C1931 0.931 . S
O1912 Co1888 2.097 . S
O1912 C1940 1.214 . S
H1913 C1941 0.929 . S
H1914 C1942 0.929 . S
H1915 C1943 0.930 . S
H1916 C1944 0.929 . S
H1917 C1946 0.930 . S
H1918 C1923 0.930 . S
H1919 C1927 0.930 . S
O1920 Co1889 2.037 . S
O1920 C1940 1.234 . S
C1921 O1895 1.269 . S
C1921 O1896 1.257 . S
C1922 H1897 0.930 . S
C1922 C1925 1.388 . S
C1922 C1927 1.418 . S
C1923 H1918 0.930 . S
C1923 C1926 1.404 . S
C1923 C1927 1.353 . S
N1924 Co1889 2.145 . S
N1924 C1925 1.397 . S
N1924 C1926 1.334 . S
C1925 H1906 0.929 . S
C1925 C1922 1.388 . S
C1925 N1924 1.397 . S
C1926 H1907 0.929 . S
C1926 C1923 1.404 . S
C1926 N1924 1.334 . S
C1927 H1919 0.930 . S
C1927 C1922 1.418 . S
C1927 C1923 1.353 . S
C1928 H1898 0.930 . S
C1928 N1929 1.330 . S
C1928 C1930 1.446 . S
N1929 Co1888 2.151 . S
N1929 C1928 1.330 . S
N1929 C1933 1.418 . S
C1930 H1909 0.929 . S
C1930 C1928 1.446 . S
C1930 C1931 1.332 . S
C1931 H1911 0.931 . S
C1931 C1930 1.332 . S
C1931 C1932 1.267 . S
C1932 H1900 0.929 . S
C1932 C1931 1.267 . S
C1932 C1933 1.251 . S
C1933 H1903 0.929 . S
C1933 N1929 1.418 . S
C1933 C1932 1.251 . S
C1934 H1901 0.930 . S
C1934 C1936 1.406 . S
C1934 C1939 1.261 . S
C1935 H1902 0.930 . S
C1935 N1937 1.325 . S
C1935 C1938 1.357 . S
C1936 H1904 0.928 . S
C1936 C1934 1.406 . S
C1936 N1937 1.261 . S
N1937 Co1888 2.214 . S
N1937 C1935 1.325 . S
N1937 C1936 1.261 . S
C1938 H1908 0.931 . S
C1938 C1935 1.357 . S
C1938 C1939 1.312 . S
C1939 H1910 0.930 . S
C1939 C1934 1.261 . S
C1939 C1938 1.312 . S
C1940 O1912 1.214 . S
C1940 O1920 1.234 . S
C1941 H1913 0.929 . S
C1941 C1944 1.391 . S
C1941 C1946 1.391 . S
C1942 H1914 0.929 . S
C1942 C1943 1.390 . S
C1942 N1945 1.391 . S
C1943 H1915 0.930 . S
C1943 C1942 1.390 . S
C1943 C1944 1.392 . S
C1944 H1916 0.929 . S
C1944 C1941 1.391 . S
C1944 C1943 1.392 . S
N1945 Co1889 2.257 . S
N1945 C1942 1.391 . S
N1945 C1946 1.388 . S
C1946 H1917 0.930 . S
C1946 C1941 1.391 . S
C1946 N1945 1.388 . S
Co1947 O1949 2.143 . S
Co1947 O1955 2.074 . S
Co1947 O1958 2.093 . S
Co1947 O1971 2.097 . S
Co1947 N1988 2.151 . S
Co1947 N1996 2.214 . S
Co1948 O1949 2.160 . S
Co1948 O1954 2.058 . S
Co1948 O1964 2.057 . S
Co1948 O1979 2.037 . S
Co1948 N1983 2.145 . S
Co1948 N2004 2.257 . S
O1949 Co1947 2.143 . S
O1949 Co1948 2.160 . S
C1950 O1951 1.278 . S
C1950 O1958 1.224 . S
O1951 C1950 1.278 . S
C1952 O1953 1.245 . S
C1952 O1964 1.232 . S
O1953 C1952 1.245 . S
O1954 Co1948 2.058 . S
O1954 C1980 1.269 . S
O1955 Co1947 2.074 . S
O1955 C1980 1.257 . S
H1956 C1981 0.930 . S
H1957 C1987 0.930 . S
O1958 Co1947 2.093 . S
O1958 C1950 1.224 . S
H1959 C1991 0.929 . S
H1960 C1993 0.930 . S
H1961 C1994 0.930 . S
H1962 C1992 0.929 . S
H1963 C1995 0.928 . S
O1964 Co1948 2.057 . S
O1964 C1952 1.232 . S
H1965 C1984 0.929 . S
H1966 C1985 0.929 . S
H1967 C1997 0.931 . S
H1968 C1989 0.929 . S
H1969 C1998 0.930 . S
H1970 C1990 0.931 . S
O1971 Co1947 2.097 . S
O1971 C1999 1.214 . S
H1972 C2000 0.929 . S
H1973 C2001 0.929 . S
H1974 C2002 0.930 . S
H1975 C2003 0.929 . S
H1976 C2005 0.930 . S
H1977 C1982 0.930 . S
H1978 C1986 0.930 . S
O1979 Co1948 2.037 . S
O1979 C1999 1.234 . S
C1980 O1954 1.269 . S
C1980 O1955 1.257 . S
C1981 H1956 0.930 . S
C1981 C1984 1.388 . S
C1981 C1986 1.418 . S
C1982 H1977 0.930 . S
C1982 C1985 1.404 . S
C1982 C1986 1.353 . S
N1983 Co1948 2.145 . S
N1983 C1984 1.397 . S
N1983 C1985 1.334 . S
C1984 H1965 0.929 . S
C1984 C1981 1.388 . S
C1984 N1983 1.397 . S
C1985 H1966 0.929 . S
C1985 C1982 1.404 . S
C1985 N1983 1.334 . S
C1986 H1978 0.930 . S
C1986 C1981 1.418 . S
C1986 C1982 1.353 . S
C1987 H1957 0.930 . S
C1987 N1988 1.330 . S
C1987 C1989 1.446 . S
N1988 Co1947 2.151 . S
N1988 C1987 1.330 . S
N1988 C1992 1.418 . S
C1989 H1968 0.929 . S
C1989 C1987 1.446 . S
C1989 C1990 1.332 . S
C1990 H1970 0.931 . S
C1990 C1989 1.332 . S
C1990 C1991 1.267 . S
C1991 H1959 0.929 . S
C1991 C1990 1.267 . S
C1991 C1992 1.251 . S
C1992 H1962 0.929 . S
C1992 N1988 1.418 . S
C1992 C1991 1.251 . S
C1993 H1960 0.930 . S
C1993 C1995 1.406 . S
C1993 C1998 1.261 . S
C1994 H1961 0.930 . S
C1994 N1996 1.325 . S
C1994 C1997 1.357 . S
C1995 H1963 0.928 . S
C1995 C1993 1.406 . S
C1995 N1996 1.261 . S
N1996 Co1947 2.214 . S
N1996 C1994 1.325 . S
N1996 C1995 1.261 . S
C1997 H1967 0.931 . S
C1997 C1994 1.357 . S
C1997 C1998 1.312 . S
C1998 H1969 0.930 . S
C1998 C1993 1.261 . S
C1998 C1997 1.312 . S
C1999 O1971 1.214 . S
C1999 O1979 1.234 . S
C2000 H1972 0.929 . S
C2000 C2003 1.391 . S
C2000 C2005 1.391 . S
C2001 H1973 0.929 . S
C2001 C2002 1.390 . S
C2001 N2004 1.391 . S
C2002 H1974 0.930 . S
C2002 C2001 1.390 . S
C2002 C2003 1.392 . S
C2003 H1975 0.929 . S
C2003 C2000 1.391 . S
C2003 C2002 1.392 . S
N2004 Co1948 2.257 . S
N2004 C2001 1.391 . S
N2004 C2005 1.388 . S
C2005 H1976 0.930 . S
C2005 C2000 1.391 . S
C2005 N2004 1.388 . S
Co2006 O2008 2.143 . S
Co2006 O2014 2.074 . S
Co2006 O2017 2.093 . S
Co2006 O2030 2.097 . S
Co2006 N2047 2.151 . S
Co2006 N2055 2.214 . S
Co2007 O2008 2.160 . S
Co2007 O2013 2.058 . S
Co2007 O2023 2.057 . S
Co2007 O2038 2.037 . S
Co2007 N2042 2.145 . S
Co2007 N2063 2.257 . S
O2008 Co2006 2.143 . S
O2008 Co2007 2.160 . S
C2009 O2010 1.278 . S
C2009 O2017 1.224 . S
O2010 C2009 1.278 . S
C2011 O2012 1.245 . S
C2011 O2023 1.232 . S
O2012 C2011 1.245 . S
O2013 Co2007 2.058 . S
O2013 C2039 1.269 . S
O2014 Co2006 2.074 . S
O2014 C2039 1.257 . S
H2015 C2040 0.930 . S
H2016 C2046 0.930 . S
O2017 Co2006 2.093 . S
O2017 C2009 1.224 . S
H2018 C2050 0.929 . S
H2019 C2052 0.930 . S
H2020 C2053 0.930 . S
H2021 C2051 0.929 . S
H2022 C2054 0.928 . S
O2023 Co2007 2.057 . S
O2023 C2011 1.232 . S
H2024 C2043 0.929 . S
H2025 C2044 0.929 . S
H2026 C2056 0.931 . S
H2027 C2048 0.929 . S
H2028 C2057 0.930 . S
H2029 C2049 0.931 . S
O2030 Co2006 2.097 . S
O2030 C2058 1.214 . S
H2031 C2059 0.929 . S
H2032 C2060 0.929 . S
H2033 C2061 0.930 . S
H2034 C2062 0.929 . S
H2035 C2064 0.930 . S
H2036 C2041 0.930 . S
H2037 C2045 0.930 . S
O2038 Co2007 2.037 . S
O2038 C2058 1.234 . S
C2039 O2013 1.269 . S
C2039 O2014 1.257 . S
C2040 H2015 0.930 . S
C2040 C2043 1.388 . S
C2040 C2045 1.418 . S
C2041 H2036 0.930 . S
C2041 C2044 1.404 . S
C2041 C2045 1.353 . S
N2042 Co2007 2.145 . S
N2042 C2043 1.397 . S
N2042 C2044 1.334 . S
C2043 H2024 0.929 . S
C2043 C2040 1.388 . S
C2043 N2042 1.397 . S
C2044 H2025 0.929 . S
C2044 C2041 1.404 . S
C2044 N2042 1.334 . S
C2045 H2037 0.930 . S
C2045 C2040 1.418 . S
C2045 C2041 1.353 . S
C2046 H2016 0.930 . S
C2046 N2047 1.330 . S
C2046 C2048 1.446 . S
N2047 Co2006 2.151 . S
N2047 C2046 1.330 . S
N2047 C2051 1.418 . S
C2048 H2027 0.929 . S
C2048 C2046 1.446 . S
C2048 C2049 1.332 . S
C2049 H2029 0.931 . S
C2049 C2048 1.332 . S
C2049 C2050 1.267 . S
C2050 H2018 0.929 . S
C2050 C2049 1.267 . S
C2050 C2051 1.251 . S
C2051 H2021 0.929 . S
C2051 N2047 1.418 . S
C2051 C2050 1.251 . S
C2052 H2019 0.930 . S
C2052 C2054 1.406 . S
C2052 C2057 1.261 . S
C2053 H2020 0.930 . S
C2053 N2055 1.325 . S
C2053 C2056 1.357 . S
C2054 H2022 0.928 . S
C2054 C2052 1.406 . S
C2054 N2055 1.261 . S
N2055 Co2006 2.214 . S
N2055 C2053 1.325 . S
N2055 C2054 1.261 . S
C2056 H2026 0.931 . S
C2056 C2053 1.357 . S
C2056 C2057 1.312 . S
C2057 H2028 0.930 . S
C2057 C2052 1.261 . S
C2057 C2056 1.312 . S
C2058 O2030 1.214 . S
C2058 O2038 1.234 . S
C2059 H2031 0.929 . S
C2059 C2062 1.391 . S
C2059 C2064 1.391 . S
C2060 H2032 0.929 . S
C2060 C2061 1.390 . S
C2060 N2063 1.391 . S
C2061 H2033 0.930 . S
C2061 C2060 1.390 . S
C2061 C2062 1.392 . S
C2062 H2034 0.929 . S
C2062 C2059 1.391 . S
C2062 C2061 1.392 . S
N2063 Co2007 2.257 . S
N2063 C2060 1.391 . S
N2063 C2064 1.388 . S
C2064 H2035 0.930 . S
C2064 C2059 1.391 . S
C2064 N2063 1.388 . S
Co2065 O2067 2.143 . S
Co2065 O2073 2.074 . S
Co2065 O2076 2.093 . S
Co2065 O2089 2.097 . S
Co2065 N2106 2.151 . S
Co2065 N2114 2.214 . S
Co2066 O2067 2.160 . S
Co2066 O2072 2.058 . S
Co2066 O2082 2.057 . S
Co2066 O2097 2.037 . S
Co2066 N2101 2.145 . S
Co2066 N2122 2.257 . S
O2067 Co2065 2.143 . S
O2067 Co2066 2.160 . S
C2068 O2069 1.278 . S
C2068 O2076 1.224 . S
O2069 C2068 1.278 . S
C2070 O2071 1.245 . S
C2070 O2082 1.232 . S
O2071 C2070 1.245 . S
O2072 Co2066 2.058 . S
O2072 C2098 1.269 . S
O2073 Co2065 2.074 . S
O2073 C2098 1.257 . S
H2074 C2099 0.930 . S
H2075 C2105 0.930 . S
O2076 Co2065 2.093 . S
O2076 C2068 1.224 . S
H2077 C2109 0.929 . S
H2078 C2111 0.930 . S
H2079 C2112 0.930 . S
H2080 C2110 0.929 . S
H2081 C2113 0.928 . S
O2082 Co2066 2.057 . S
O2082 C2070 1.232 . S
H2083 C2102 0.929 . S
H2084 C2103 0.929 . S
H2085 C2115 0.931 . S
H2086 C2107 0.929 . S
H2087 C2116 0.930 . S
H2088 C2108 0.931 . S
O2089 Co2065 2.097 . S
O2089 C2117 1.214 . S
H2090 C2118 0.929 . S
H2091 C2119 0.929 . S
H2092 C2120 0.930 . S
H2093 C2121 0.929 . S
H2094 C2123 0.930 . S
H2095 C2100 0.930 . S
H2096 C2104 0.930 . S
O2097 Co2066 2.037 . S
O2097 C2117 1.234 . S
C2098 O2072 1.269 . S
C2098 O2073 1.257 . S
C2099 H2074 0.930 . S
C2099 C2102 1.388 . S
C2099 C2104 1.418 . S
C2100 H2095 0.930 . S
C2100 C2103 1.404 . S
C2100 C2104 1.353 . S
N2101 Co2066 2.145 . S
N2101 C2102 1.397 . S
N2101 C2103 1.334 . S
C2102 H2083 0.929 . S
C2102 C2099 1.388 . S
C2102 N2101 1.397 . S
C2103 H2084 0.929 . S
C2103 C2100 1.404 . S
C2103 N2101 1.334 . S
C2104 H2096 0.930 . S
C2104 C2099 1.418 . S
C2104 C2100 1.353 . S
C2105 H2075 0.930 . S
C2105 N2106 1.330 . S
C2105 C2107 1.446 . S
N2106 Co2065 2.151 . S
N2106 C2105 1.330 . S
N2106 C2110 1.418 . S
C2107 H2086 0.929 . S
C2107 C2105 1.446 . S
C2107 C2108 1.332 . S
C2108 H2088 0.931 . S
C2108 C2107 1.332 . S
C2108 C2109 1.267 . S
C2109 H2077 0.929 . S
C2109 C2108 1.267 . S
C2109 C2110 1.251 . S
C2110 H2080 0.929 . S
C2110 N2106 1.418 . S
C2110 C2109 1.251 . S
C2111 H2078 0.930 . S
C2111 C2113 1.406 . S
C2111 C2116 1.261 . S
C2112 H2079 0.930 . S
C2112 N2114 1.325 . S
C2112 C2115 1.357 . S
C2113 H2081 0.928 . S
C2113 C2111 1.406 . S
C2113 N2114 1.261 . S
N2114 Co2065 2.214 . S
N2114 C2112 1.325 . S
N2114 C2113 1.261 . S
C2115 H2085 0.931 . S
C2115 C2112 1.357 . S
C2115 C2116 1.312 . S
C2116 H2087 0.930 . S
C2116 C2111 1.261 . S
C2116 C2115 1.312 . S
C2117 O2089 1.214 . S
C2117 O2097 1.234 . S
C2118 H2090 0.929 . S
C2118 C2121 1.391 . S
C2118 C2123 1.391 . S
C2119 H2091 0.929 . S
C2119 C2120 1.390 . S
C2119 N2122 1.391 . S
C2120 H2092 0.930 . S
C2120 C2119 1.390 . S
C2120 C2121 1.392 . S
C2121 H2093 0.929 . S
C2121 C2118 1.391 . S
C2121 C2120 1.392 . S
N2122 Co2066 2.257 . S
N2122 C2119 1.391 . S
N2122 C2123 1.388 . S
C2123 H2094 0.930 . S
C2123 C2118 1.391 . S
C2123 N2122 1.388 . S
Co2124 O2126 2.143 . S
Co2124 O2132 2.074 . S
Co2124 O2135 2.093 . S
Co2124 O2148 2.097 . S
Co2124 N2165 2.151 . S
Co2124 N2173 2.214 . S
Co2125 O2126 2.160 . S
Co2125 O2131 2.058 . S
Co2125 O2141 2.057 . S
Co2125 O2156 2.037 . S
Co2125 N2160 2.145 . S
Co2125 N2181 2.257 . S
O2126 Co2124 2.143 . S
O2126 Co2125 2.160 . S
C2127 O2128 1.278 . S
C2127 O2135 1.224 . S
O2128 C2127 1.278 . S
C2129 O2130 1.245 . S
C2129 O2141 1.232 . S
O2130 C2129 1.245 . S
O2131 Co2125 2.058 . S
O2131 C2157 1.269 . S
O2132 Co2124 2.074 . S
O2132 C2157 1.257 . S
H2133 C2158 0.930 . S
H2134 C2164 0.930 . S
O2135 Co2124 2.093 . S
O2135 C2127 1.224 . S
H2136 C2168 0.929 . S
H2137 C2170 0.930 . S
H2138 C2171 0.930 . S
H2139 C2169 0.929 . S
H2140 C2172 0.928 . S
O2141 Co2125 2.057 . S
O2141 C2129 1.232 . S
H2142 C2161 0.929 . S
H2143 C2162 0.929 . S
H2144 C2174 0.931 . S
H2145 C2166 0.929 . S
H2146 C2175 0.930 . S
H2147 C2167 0.931 . S
O2148 Co2124 2.097 . S
O2148 C2176 1.214 . S
H2149 C2177 0.929 . S
H2150 C2178 0.929 . S
H2151 C2179 0.930 . S
H2152 C2180 0.929 . S
H2153 C2182 0.930 . S
H2154 C2159 0.930 . S
H2155 C2163 0.930 . S
O2156 Co2125 2.037 . S
O2156 C2176 1.234 . S
C2157 O2131 1.269 . S
C2157 O2132 1.257 . S
C2158 H2133 0.930 . S
C2158 C2161 1.388 . S
C2158 C2163 1.418 . S
C2159 H2154 0.930 . S
C2159 C2162 1.404 . S
C2159 C2163 1.353 . S
N2160 Co2125 2.145 . S
N2160 C2161 1.397 . S
N2160 C2162 1.334 . S
C2161 H2142 0.929 . S
C2161 C2158 1.388 . S
C2161 N2160 1.397 . S
C2162 H2143 0.929 . S
C2162 C2159 1.404 . S
C2162 N2160 1.334 . S
C2163 H2155 0.930 . S
C2163 C2158 1.418 . S
C2163 C2159 1.353 . S
C2164 H2134 0.930 . S
C2164 N2165 1.330 . S
C2164 C2166 1.446 . S
N2165 Co2124 2.151 . S
N2165 C2164 1.330 . S
N2165 C2169 1.418 . S
C2166 H2145 0.929 . S
C2166 C2164 1.446 . S
C2166 C2167 1.332 . S
C2167 H2147 0.931 . S
C2167 C2166 1.332 . S
C2167 C2168 1.267 . S
C2168 H2136 0.929 . S
C2168 C2167 1.267 . S
C2168 C2169 1.251 . S
C2169 H2139 0.929 . S
C2169 N2165 1.418 . S
C2169 C2168 1.251 . S
C2170 H2137 0.930 . S
C2170 C2172 1.406 . S
C2170 C2175 1.261 . S
C2171 H2138 0.930 . S
C2171 N2173 1.325 . S
C2171 C2174 1.357 . S
C2172 H2140 0.928 . S
C2172 C2170 1.406 . S
C2172 N2173 1.261 . S
N2173 Co2124 2.214 . S
N2173 C2171 1.325 . S
N2173 C2172 1.261 . S
C2174 H2144 0.931 . S
C2174 C2171 1.357 . S
C2174 C2175 1.312 . S
C2175 H2146 0.930 . S
C2175 C2170 1.261 . S
C2175 C2174 1.312 . S
C2176 O2148 1.214 . S
C2176 O2156 1.234 . S
C2177 H2149 0.929 . S
C2177 C2180 1.391 . S
C2177 C2182 1.391 . S
C2178 H2150 0.929 . S
C2178 C2179 1.390 . S
C2178 N2181 1.391 . S
C2179 H2151 0.930 . S
C2179 C2178 1.390 . S
C2179 C2180 1.392 . S
C2180 H2152 0.929 . S
C2180 C2177 1.391 . S
C2180 C2179 1.392 . S
N2181 Co2125 2.257 . S
N2181 C2178 1.391 . S
N2181 C2182 1.388 . S
C2182 H2153 0.930 . S
C2182 C2177 1.391 . S
C2182 N2181 1.388 . S
Co2183 O2185 2.143 . S
Co2183 O2191 2.074 . S
Co2183 O2194 2.093 . S
Co2183 O2207 2.097 . S
Co2183 N2224 2.151 . S
Co2183 N2232 2.214 . S
Co2184 O2185 2.160 . S
Co2184 O2190 2.058 . S
Co2184 O2200 2.057 . S
Co2184 O2215 2.037 . S
Co2184 N2219 2.145 . S
Co2184 N2240 2.257 . S
O2185 Co2183 2.143 . S
O2185 Co2184 2.160 . S
C2186 O2187 1.278 . S
C2186 O2194 1.224 . S
O2187 C2186 1.278 . S
C2188 O2189 1.245 . S
C2188 O2200 1.232 . S
O2189 C2188 1.245 . S
O2190 Co2184 2.058 . S
O2190 C2216 1.269 . S
O2191 Co2183 2.074 . S
O2191 C2216 1.257 . S
H2192 C2217 0.930 . S
H2193 C2223 0.930 . S
O2194 Co2183 2.093 . S
O2194 C2186 1.224 . S
H2195 C2227 0.929 . S
H2196 C2229 0.930 . S
H2197 C2230 0.930 . S
H2198 C2228 0.929 . S
H2199 C2231 0.928 . S
O2200 Co2184 2.057 . S
O2200 C2188 1.232 . S
H2201 C2220 0.929 . S
H2202 C2221 0.929 . S
H2203 C2233 0.931 . S
H2204 C2225 0.929 . S
H2205 C2234 0.930 . S
H2206 C2226 0.931 . S
O2207 Co2183 2.097 . S
O2207 C2235 1.214 . S
H2208 C2236 0.929 . S
H2209 C2237 0.929 . S
H2210 C2238 0.930 . S
H2211 C2239 0.929 . S
H2212 C2241 0.930 . S
H2213 C2218 0.930 . S
H2214 C2222 0.930 . S
O2215 Co2184 2.037 . S
O2215 C2235 1.234 . S
C2216 O2190 1.269 . S
C2216 O2191 1.257 . S
C2217 H2192 0.930 . S
C2217 C2220 1.388 . S
C2217 C2222 1.418 . S
C2218 H2213 0.930 . S
C2218 C2221 1.404 . S
C2218 C2222 1.353 . S
N2219 Co2184 2.145 . S
N2219 C2220 1.397 . S
N2219 C2221 1.334 . S
C2220 H2201 0.929 . S
C2220 C2217 1.388 . S
C2220 N2219 1.397 . S
C2221 H2202 0.929 . S
C2221 C2218 1.404 . S
C2221 N2219 1.334 . S
C2222 H2214 0.930 . S
C2222 C2217 1.418 . S
C2222 C2218 1.353 . S
C2223 H2193 0.930 . S
C2223 N2224 1.330 . S
C2223 C2225 1.446 . S
N2224 Co2183 2.151 . S
N2224 C2223 1.330 . S
N2224 C2228 1.418 . S
C2225 H2204 0.929 . S
C2225 C2223 1.446 . S
C2225 C2226 1.332 . S
C2226 H2206 0.931 . S
C2226 C2225 1.332 . S
C2226 C2227 1.267 . S
C2227 H2195 0.929 . S
C2227 C2226 1.267 . S
C2227 C2228 1.251 . S
C2228 H2198 0.929 . S
C2228 N2224 1.418 . S
C2228 C2227 1.251 . S
C2229 H2196 0.930 . S
C2229 C2231 1.406 . S
C2229 C2234 1.261 . S
C2230 H2197 0.930 . S
C2230 N2232 1.325 . S
C2230 C2233 1.357 . S
C2231 H2199 0.928 . S
C2231 C2229 1.406 . S
C2231 N2232 1.261 . S
N2232 Co2183 2.214 . S
N2232 C2230 1.325 . S
N2232 C2231 1.261 . S
C2233 H2203 0.931 . S
C2233 C2230 1.357 . S
C2233 C2234 1.312 . S
C2234 H2205 0.930 . S
C2234 C2229 1.261 . S
C2234 C2233 1.312 . S
C2235 O2207 1.214 . S
C2235 O2215 1.234 . S
C2236 H2208 0.929 . S
C2236 C2239 1.391 . S
C2236 C2241 1.391 . S
C2237 H2209 0.929 . S
C2237 C2238 1.390 . S
C2237 N2240 1.391 . S
C2238 H2210 0.930 . S
C2238 C2237 1.390 . S
C2238 C2239 1.392 . S
C2239 H2211 0.929 . S
C2239 C2236 1.391 . S
C2239 C2238 1.392 . S
N2240 Co2184 2.257 . S
N2240 C2237 1.391 . S
N2240 C2241 1.388 . S
C2241 H2212 0.930 . S
C2241 C2236 1.391 . S
C2241 N2240 1.388 . S
Co2242 O2244 2.143 . S
Co2242 O2250 2.074 . S
Co2242 O2253 2.093 . S
Co2242 O2266 2.097 . S
Co2242 N2283 2.151 . S
Co2242 N2291 2.214 . S
Co2243 O2244 2.160 . S
Co2243 O2249 2.058 . S
Co2243 O2259 2.057 . S
Co2243 O2274 2.037 . S
Co2243 N2278 2.145 . S
Co2243 N2299 2.257 . S
O2244 Co2242 2.143 . S
O2244 Co2243 2.160 . S
C2245 O2246 1.278 . S
C2245 O2253 1.224 . S
O2246 C2245 1.278 . S
C2247 O2248 1.245 . S
C2247 O2259 1.232 . S
O2248 C2247 1.245 . S
O2249 Co2243 2.058 . S
O2249 C2275 1.269 . S
O2250 Co2242 2.074 . S
O2250 C2275 1.257 . S
H2251 C2276 0.930 . S
H2252 C2282 0.930 . S
O2253 Co2242 2.093 . S
O2253 C2245 1.224 . S
H2254 C2286 0.929 . S
H2255 C2288 0.930 . S
H2256 C2289 0.930 . S
H2257 C2287 0.929 . S
H2258 C2290 0.928 . S
O2259 Co2243 2.057 . S
O2259 C2247 1.232 . S
H2260 C2279 0.929 . S
H2261 C2280 0.929 . S
H2262 C2292 0.931 . S
H2263 C2284 0.929 . S
H2264 C2293 0.930 . S
H2265 C2285 0.931 . S
O2266 Co2242 2.097 . S
O2266 C2294 1.214 . S
H2267 C2295 0.929 . S
H2268 C2296 0.929 . S
H2269 C2297 0.930 . S
H2270 C2298 0.929 . S
H2271 C2300 0.930 . S
H2272 C2277 0.930 . S
H2273 C2281 0.978 . S
O2274 Co2243 2.037 . S
O2274 C2294 1.234 . S
C2275 O2249 1.269 . S
C2275 O2250 1.257 . S
C2276 H2251 0.930 . S
C2276 C2279 1.388 . S
C2276 C2281 1.418 . S
C2277 H2272 0.930 . S
C2277 C2280 1.404 . S
C2277 C2281 1.353 . S
N2278 Co2243 2.145 . S
N2278 C2279 1.397 . S
N2278 C2280 1.334 . S
C2279 H2260 0.929 . S
C2279 C2276 1.388 . S
C2279 N2278 1.397 . S
C2280 H2261 0.929 . S
C2280 C2277 1.404 . S
C2280 N2278 1.334 . S
C2281 H2273 0.978 . S
C2281 C2276 1.418 . S
C2281 C2277 1.353 . S
C2282 H2252 0.930 . S
C2282 N2283 1.330 . S
C2282 C2284 1.446 . S
N2283 Co2242 2.151 . S
N2283 C2282 1.330 . S
N2283 C2287 1.418 . S
C2284 H2263 0.929 . S
C2284 C2282 1.446 . S
C2284 C2285 1.332 . S
C2285 H2265 0.931 . S
C2285 C2284 1.332 . S
C2285 C2286 1.267 . S
C2286 H2254 0.929 . S
C2286 C2285 1.267 . S
C2286 C2287 1.251 . S
C2287 H2257 0.929 . S
C2287 N2283 1.418 . S
C2287 C2286 1.251 . S
C2288 H2255 0.930 . S
C2288 C2290 1.406 . S
C2288 C2293 1.261 . S
C2289 H2256 0.930 . S
C2289 N2291 1.325 . S
C2289 C2292 1.357 . S
C2290 H2258 0.928 . S
C2290 C2288 1.406 . S
C2290 N2291 1.261 . S
N2291 Co2242 2.214 . S
N2291 C2289 1.325 . S
N2291 C2290 1.261 . S
C2292 H2262 0.931 . S
C2292 C2289 1.357 . S
C2292 C2293 1.312 . S
C2293 H2264 0.930 . S
C2293 C2288 1.261 . S
C2293 C2292 1.312 . S
C2294 O2266 1.214 . S
C2294 O2274 1.234 . S
C2295 H2267 0.929 . S
C2295 C2298 1.391 . S
C2295 C2300 1.391 . S
C2296 H2268 0.929 . S
C2296 C2297 1.390 . S
C2296 N2299 1.391 . S
C2297 H2269 0.930 . S
C2297 C2296 1.390 . S
C2297 C2298 1.392 . S
C2298 H2270 0.929 . S
C2298 C2295 1.391 . S
C2298 C2297 1.392 . S
N2299 Co2243 2.257 . S
N2299 C2296 1.391 . S
N2299 C2300 1.388 . S
C2300 H2271 0.930 . S
C2300 C2295 1.391 . S
C2300 N2299 1.388 . S
Co2301 O2303 2.143 . S
Co2301 O2309 2.074 . S
Co2301 O2312 2.093 . S
Co2301 O2325 2.097 . S
Co2301 N2342 2.151 . S
Co2301 N2350 2.214 . S
Co2302 O2303 2.160 . S
Co2302 O2308 2.058 . S
Co2302 O2318 2.057 . S
Co2302 O2333 2.037 . S
Co2302 N2337 2.145 . S
Co2302 N2358 2.257 . S
O2303 Co2301 2.143 . S
O2303 Co2302 2.160 . S
C2304 O2305 1.278 . S
C2304 O2312 1.224 . S
O2305 C2304 1.278 . S
C2306 O2307 1.245 . S
C2306 O2318 1.232 . S
O2307 C2306 1.245 . S
O2308 Co2302 2.058 . S
O2308 C2334 1.269 . S
O2309 Co2301 2.074 . S
O2309 C2334 1.257 . S
H2310 C2335 0.930 . S
H2311 C2341 0.930 . S
O2312 Co2301 2.093 . S
O2312 C2304 1.224 . S
H2313 C2345 0.929 . S
H2314 C2347 0.930 . S
H2315 C2348 0.930 . S
H2316 C2346 0.929 . S
H2317 C2349 0.928 . S
O2318 Co2302 2.057 . S
O2318 C2306 1.232 . S
H2319 C2338 0.929 . S
H2320 C2339 0.929 . S
H2321 C2351 0.931 . S
H2322 C2343 0.929 . S
H2323 C2352 0.930 . S
H2324 C2344 0.931 . S
O2325 Co2301 2.097 . S
O2325 C2353 1.214 . S
H2326 C2354 0.929 . S
H2327 C2355 0.929 . S
H2328 C2356 0.930 . S
H2329 C2357 0.929 . S
H2330 C2359 0.930 . S
H2331 C2336 0.930 . S
H2332 C2340 0.930 . S
O2333 Co2302 2.037 . S
O2333 C2353 1.234 . S
C2334 O2308 1.269 . S
C2334 O2309 1.257 . S
C2335 H2310 0.930 . S
C2335 C2338 1.388 . S
C2335 C2340 1.418 . S
C2336 H2331 0.930 . S
C2336 C2339 1.404 . S
C2336 C2340 1.353 . S
N2337 Co2302 2.145 . S
N2337 C2338 1.397 . S
N2337 C2339 1.334 . S
C2338 H2319 0.929 . S
C2338 C2335 1.388 . S
C2338 N2337 1.397 . S
C2339 H2320 0.929 . S
C2339 C2336 1.404 . S
C2339 N2337 1.334 . S
C2340 H2332 0.930 . S
C2340 C2335 1.418 . S
C2340 C2336 1.353 . S
C2341 H2311 0.930 . S
C2341 N2342 1.330 . S
C2341 C2343 1.446 . S
N2342 Co2301 2.151 . S
N2342 C2341 1.330 . S
N2342 C2346 1.418 . S
C2343 H2322 0.929 . S
C2343 C2341 1.446 . S
C2343 C2344 1.332 . S
C2344 H2324 0.931 . S
C2344 C2343 1.332 . S
C2344 C2345 1.267 . S
C2345 H2313 0.929 . S
C2345 C2344 1.267 . S
C2345 C2346 1.251 . S
C2346 H2316 0.929 . S
C2346 N2342 1.418 . S
C2346 C2345 1.251 . S
C2347 H2314 0.930 . S
C2347 C2349 1.406 . S
C2347 C2352 1.261 . S
C2348 H2315 0.930 . S
C2348 N2350 1.325 . S
C2348 C2351 1.357 . S
C2349 H2317 0.928 . S
C2349 C2347 1.406 . S
C2349 N2350 1.261 . S
N2350 Co2301 2.214 . S
N2350 C2348 1.325 . S
N2350 C2349 1.261 . S
C2351 H2321 0.931 . S
C2351 C2348 1.357 . S
C2351 C2352 1.312 . S
C2352 H2323 0.930 . S
C2352 C2347 1.261 . S
C2352 C2351 1.312 . S
C2353 O2325 1.214 . S
C2353 O2333 1.234 . S
C2354 H2326 0.929 . S
C2354 C2357 1.391 . S
C2354 C2359 1.391 . S
C2355 H2327 0.929 . S
C2355 C2356 1.390 . S
C2355 N2358 1.391 . S
C2356 H2328 0.930 . S
C2356 C2355 1.390 . S
C2356 C2357 1.392 . S
C2357 H2329 0.929 . S
C2357 C2354 1.391 . S
C2357 C2356 1.392 . S
N2358 Co2302 2.257 . S
N2358 C2355 1.391 . S
N2358 C2359 1.388 . S
C2359 H2330 0.930 . S
C2359 C2354 1.391 . S
C2359 N2358 1.388 . S
Co2360 O2362 2.143 . S
Co2360 O2368 2.074 . S
Co2360 O2371 2.093 . S
Co2360 O2384 2.097 . S
Co2360 N2401 2.151 . S
Co2360 N2409 2.214 . S
Co2361 O2362 2.160 . S
Co2361 O2367 2.058 . S
Co2361 O2377 2.057 . S
Co2361 O2392 2.037 . S
Co2361 N2396 2.145 . S
Co2361 N2417 2.257 . S
O2362 Co2360 2.143 . S
O2362 Co2361 2.160 . S
C2363 O2364 1.278 . S
C2363 O2371 1.224 . S
O2364 C2363 1.278 . S
C2365 O2366 1.245 . S
C2365 O2377 1.232 . S
O2366 C2365 1.245 . S
O2367 Co2361 2.058 . S
O2367 C2393 1.269 . S
O2368 Co2360 2.074 . S
O2368 C2393 1.257 . S
H2369 C2394 0.930 . S
H2370 C2400 0.930 . S
O2371 Co2360 2.093 . S
O2371 C2363 1.224 . S
H2372 C2404 0.929 . S
H2373 C2406 0.930 . S
H2374 C2407 0.930 . S
H2375 C2405 0.929 . S
H2376 C2408 0.928 . S
O2377 Co2361 2.057 . S
O2377 C2365 1.232 . S
H2378 C2397 0.929 . S
H2379 C2398 0.929 . S
H2380 C2410 0.931 . S
H2381 C2402 0.929 . S
H2382 C2411 0.930 . S
H2383 C2403 0.931 . S
O2384 Co2360 2.097 . S
O2384 C2412 1.214 . S
H2385 C2413 0.929 . S
H2386 C2414 0.929 . S
H2387 C2415 0.930 . S
H2388 C2416 0.929 . S
H2389 C2418 0.930 . S
H2390 C2395 0.930 . S
H2391 C2399 0.930 . S
O2392 Co2361 2.037 . S
O2392 C2412 1.234 . S
C2393 O2367 1.269 . S
C2393 O2368 1.257 . S
C2394 H2369 0.930 . S
C2394 C2397 1.388 . S
C2394 C2399 1.418 . S
C2395 H2390 0.930 . S
C2395 C2398 1.404 . S
C2395 C2399 1.353 . S
N2396 Co2361 2.145 . S
N2396 C2397 1.397 . S
N2396 C2398 1.334 . S
C2397 H2378 0.929 . S
C2397 C2394 1.388 . S
C2397 N2396 1.397 . S
C2398 H2379 0.929 . S
C2398 C2395 1.404 . S
C2398 N2396 1.334 . S
C2399 H2391 0.930 . S
C2399 C2394 1.418 . S
C2399 C2395 1.353 . S
C2400 H2370 0.930 . S
C2400 N2401 1.330 . S
C2400 C2402 1.446 . S
N2401 Co2360 2.151 . S
N2401 C2400 1.330 . S
N2401 C2405 1.418 . S
C2402 H2381 0.929 . S
C2402 C2400 1.446 . S
C2402 C2403 1.332 . S
C2403 H2383 0.931 . S
C2403 C2402 1.332 . S
C2403 C2404 1.267 . S
C2404 H2372 0.929 . S
C2404 C2403 1.267 . S
C2404 C2405 1.251 . S
C2405 H2375 0.929 . S
C2405 N2401 1.418 . S
C2405 C2404 1.251 . S
C2406 H2373 0.930 . S
C2406 C2408 1.406 . S
C2406 C2411 1.261 . S
C2407 H2374 0.930 . S
C2407 N2409 1.325 . S
C2407 C2410 1.357 . S
C2408 H2376 0.928 . S
C2408 C2406 1.406 . S
C2408 N2409 1.261 . S
N2409 Co2360 2.214 . S
N2409 C2407 1.325 . S
N2409 C2408 1.261 . S
C2410 H2380 0.931 . S
C2410 C2407 1.357 . S
C2410 C2411 1.312 . S
C2411 H2382 0.930 . S
C2411 C2406 1.261 . S
C2411 C2410 1.312 . S
C2412 O2384 1.214 . S
C2412 O2392 1.234 . S
C2413 H2385 0.929 . S
C2413 C2416 1.391 . S
C2413 C2418 1.391 . S
C2414 H2386 0.929 . S
C2414 C2415 1.390 . S
C2414 N2417 1.391 . S
C2415 H2387 0.930 . S
C2415 C2414 1.390 . S
C2415 C2416 1.392 . S
C2416 H2388 0.929 . S
C2416 C2413 1.391 . S
C2416 C2415 1.392 . S
N2417 Co2361 2.257 . S
N2417 C2414 1.391 . S
N2417 C2418 1.388 . S
C2418 H2389 0.930 . S
C2418 C2413 1.391 . S
C2418 N2417 1.388 . S
Co2419 O2421 2.143 . S
Co2419 O2427 2.074 . S
Co2419 O2430 2.093 . S
Co2419 O2443 2.097 . S
Co2419 N2460 2.151 . S
Co2419 N2468 2.214 . S
Co2420 O2421 2.160 . S
Co2420 O2426 2.058 . S
Co2420 O2436 2.057 . S
Co2420 O2451 2.037 . S
Co2420 N2455 2.145 . S
Co2420 N2476 2.257 . S
O2421 Co2419 2.143 . S
O2421 Co2420 2.160 . S
C2422 O2423 1.278 . S
C2422 O2430 1.224 . S
O2423 C2422 1.278 . S
C2424 O2425 1.245 . S
C2424 O2436 1.232 . S
O2425 C2424 1.245 . S
O2426 Co2420 2.058 . S
O2426 C2452 1.269 . S
O2427 Co2419 2.074 . S
O2427 C2452 1.257 . S
H2428 C2453 0.930 . S
H2429 C2459 0.930 . S
O2430 Co2419 2.093 . S
O2430 C2422 1.224 . S
H2431 C2463 0.929 . S
H2432 C2465 0.930 . S
H2433 C2466 0.930 . S
H2434 C2464 0.929 . S
H2435 C2467 0.928 . S
O2436 Co2420 2.057 . S
O2436 C2424 1.232 . S
H2437 C2456 0.929 . S
H2438 C2457 0.929 . S
H2439 C2469 0.931 . S
H2440 C2461 0.929 . S
H2441 C2470 0.930 . S
H2442 C2462 0.931 . S
O2443 Co2419 2.097 . S
O2443 C2471 1.214 . S
H2444 C2472 0.929 . S
H2445 C2473 0.929 . S
H2446 C2474 0.930 . S
H2447 C2475 0.929 . S
H2448 C2477 0.930 . S
H2449 C2454 0.930 . S
H2450 C2458 0.930 . S
O2451 Co2420 2.037 . S
O2451 C2471 1.234 . S
C2452 O2426 1.269 . S
C2452 O2427 1.257 . S
C2453 H2428 0.930 . S
C2453 C2456 1.388 . S
C2453 C2458 1.418 . S
C2454 H2449 0.930 . S
C2454 C2457 1.404 . S
C2454 C2458 1.353 . S
N2455 Co2420 2.145 . S
N2455 C2456 1.397 . S
N2455 C2457 1.334 . S
C2456 H2437 0.929 . S
C2456 C2453 1.388 . S
C2456 N2455 1.397 . S
C2457 H2438 0.929 . S
C2457 C2454 1.404 . S
C2457 N2455 1.334 . S
C2458 H2450 0.930 . S
C2458 C2453 1.418 . S
C2458 C2454 1.353 . S
C2459 H2429 0.930 . S
C2459 N2460 1.330 . S
C2459 C2461 1.446 . S
N2460 Co2419 2.151 . S
N2460 C2459 1.330 . S
N2460 C2464 1.418 . S
C2461 H2440 0.929 . S
C2461 C2459 1.446 . S
C2461 C2462 1.332 . S
C2462 H2442 0.931 . S
C2462 C2461 1.332 . S
C2462 C2463 1.267 . S
C2463 H2431 0.929 . S
C2463 C2462 1.267 . S
C2463 C2464 1.251 . S
C2464 H2434 0.929 . S
C2464 N2460 1.418 . S
C2464 C2463 1.251 . S
C2465 H2432 0.930 . S
C2465 C2467 1.406 . S
C2465 C2470 1.261 . S
C2466 H2433 0.930 . S
C2466 N2468 1.325 . S
C2466 C2469 1.357 . S
C2467 H2435 0.928 . S
C2467 C2465 1.406 . S
C2467 N2468 1.261 . S
N2468 Co2419 2.214 . S
N2468 C2466 1.325 . S
N2468 C2467 1.261 . S
C2469 H2439 0.931 . S
C2469 C2466 1.357 . S
C2469 C2470 1.312 . S
C2470 H2441 0.930 . S
C2470 C2465 1.261 . S
C2470 C2469 1.312 . S
C2471 O2443 1.214 . S
C2471 O2451 1.234 . S
C2472 H2444 0.929 . S
C2472 C2475 1.391 . S
C2472 C2477 1.391 . S
C2473 H2445 0.929 . S
C2473 C2474 1.390 . S
C2473 N2476 1.391 . S
C2474 H2446 0.930 . S
C2474 C2473 1.390 . S
C2474 C2475 1.392 . S
C2475 H2447 0.929 . S
C2475 C2472 1.391 . S
C2475 C2474 1.392 . S
N2476 Co2420 2.257 . S
N2476 C2473 1.391 . S
N2476 C2477 1.388 . S
C2477 H2448 0.930 . S
C2477 C2472 1.391 . S
C2477 N2476 1.388 . S
Co2478 O2480 2.143 . S
Co2478 O2486 2.074 . S
Co2478 O2489 2.093 . S
Co2478 O2502 2.097 . S
Co2478 N2519 2.151 . S
Co2478 N2527 2.214 . S
Co2479 O2480 2.160 . S
Co2479 O2485 2.058 . S
Co2479 O2495 2.057 . S
Co2479 O2510 2.037 . S
Co2479 N2514 2.145 . S
Co2479 N2535 2.257 . S
O2480 Co2478 2.143 . S
O2480 Co2479 2.160 . S
C2481 O2482 1.278 . S
C2481 O2489 1.224 . S
O2482 C2481 1.278 . S
C2483 O2484 1.245 . S
C2483 O2495 1.232 . S
O2484 C2483 1.245 . S
O2485 Co2479 2.058 . S
O2485 C2511 1.269 . S
O2486 Co2478 2.074 . S
O2486 C2511 1.257 . S
H2487 C2512 0.930 . S
H2488 C2518 0.930 . S
O2489 Co2478 2.093 . S
O2489 C2481 1.224 . S
H2490 C2522 0.929 . S
H2491 C2524 0.930 . S
H2492 C2525 0.930 . S
H2493 C2523 0.929 . S
H2494 C2526 0.928 . S
O2495 Co2479 2.057 . S
O2495 C2483 1.232 . S
H2496 C2515 0.929 . S
H2497 C2516 0.929 . S
H2498 C2528 0.931 . S
H2499 C2520 0.929 . S
H2500 C2529 0.930 . S
H2501 C2521 0.931 . S
O2502 Co2478 2.097 . S
O2502 C2530 1.214 . S
H2503 C2531 0.929 . S
H2504 C2532 0.929 . S
H2505 C2533 0.930 . S
H2506 C2534 0.929 . S
H2507 C2536 0.930 . S
H2508 C2513 0.930 . S
H2509 C2517 0.930 . S
O2510 Co2479 2.037 . S
O2510 C2530 1.234 . S
C2511 O2485 1.269 . S
C2511 O2486 1.257 . S
C2512 H2487 0.930 . S
C2512 C2515 1.388 . S
C2512 C2517 1.418 . S
C2513 H2508 0.930 . S
C2513 C2516 1.404 . S
C2513 C2517 1.353 . S
N2514 Co2479 2.145 . S
N2514 C2515 1.397 . S
N2514 C2516 1.334 . S
C2515 H2496 0.929 . S
C2515 C2512 1.388 . S
C2515 N2514 1.397 . S
C2516 H2497 0.929 . S
C2516 C2513 1.404 . S
C2516 N2514 1.334 . S
C2517 H2509 0.930 . S
C2517 C2512 1.418 . S
C2517 C2513 1.353 . S
C2518 H2488 0.930 . S
C2518 N2519 1.330 . S
C2518 C2520 1.446 . S
N2519 Co2478 2.151 . S
N2519 C2518 1.330 . S
N2519 C2523 1.418 . S
C2520 H2499 0.929 . S
C2520 C2518 1.446 . S
C2520 C2521 1.332 . S
C2521 H2501 0.931 . S
C2521 C2520 1.332 . S
C2521 C2522 1.267 . S
C2522 H2490 0.929 . S
C2522 C2521 1.267 . S
C2522 C2523 1.251 . S
C2523 H2493 0.929 . S
C2523 N2519 1.418 . S
C2523 C2522 1.251 . S
C2524 H2491 0.930 . S
C2524 C2526 1.406 . S
C2524 C2529 1.261 . S
C2525 H2492 0.930 . S
C2525 N2527 1.325 . S
C2525 C2528 1.357 . S
C2526 H2494 0.928 . S
C2526 C2524 1.406 . S
C2526 N2527 1.261 . S
N2527 Co2478 2.214 . S
N2527 C2525 1.325 . S
N2527 C2526 1.261 . S
C2528 H2498 0.931 . S
C2528 C2525 1.357 . S
C2528 C2529 1.312 . S
C2529 H2500 0.930 . S
C2529 C2524 1.261 . S
C2529 C2528 1.312 . S
C2530 O2502 1.214 . S
C2530 O2510 1.234 . S
C2531 H2503 0.929 . S
C2531 C2534 1.391 . S
C2531 C2536 1.391 . S
C2532 H2504 0.929 . S
C2532 C2533 1.390 . S
C2532 N2535 1.391 . S
C2533 H2505 0.930 . S
C2533 C2532 1.390 . S
C2533 C2534 1.392 . S
C2534 H2506 0.929 . S
C2534 C2531 1.391 . S
C2534 C2533 1.392 . S
N2535 Co2479 2.257 . S
N2535 C2532 1.391 . S
N2535 C2536 1.388 . S
C2536 H2507 0.930 . S
C2536 C2531 1.391 . S
C2536 N2535 1.388 . S
Co2537 O2539 2.143 . S
Co2537 O2545 2.074 . S
Co2537 O2548 2.093 . S
Co2537 O2561 2.097 . S
Co2537 N2578 2.151 . S
Co2537 N2586 2.214 . S
Co2538 O2539 2.160 . S
Co2538 O2544 2.058 . S
Co2538 O2554 2.057 . S
Co2538 O2569 2.037 . S
Co2538 N2573 2.145 . S
Co2538 N2594 2.257 . S
O2539 Co2537 2.143 . S
O2539 Co2538 2.160 . S
C2540 O2541 1.278 . S
C2540 O2548 1.224 . S
O2541 C2540 1.278 . S
C2542 O2543 1.245 . S
C2542 O2554 1.232 . S
O2543 C2542 1.245 . S
O2544 Co2538 2.058 . S
O2544 C2570 1.269 . S
O2545 Co2537 2.074 . S
O2545 C2570 1.257 . S
H2546 C2571 0.930 . S
H2547 C2577 0.930 . S
O2548 Co2537 2.093 . S
O2548 C2540 1.224 . S
H2549 C2581 0.929 . S
H2550 C2583 0.930 . S
H2551 C2584 0.930 . S
H2552 C2582 0.929 . S
H2553 C2585 0.928 . S
O2554 Co2538 2.057 . S
O2554 C2542 1.232 . S
H2555 C2574 0.929 . S
H2556 C2575 0.929 . S
H2557 C2587 0.931 . S
H2558 C2579 0.929 . S
H2559 C2588 0.930 . S
H2560 C2580 0.931 . S
O2561 Co2537 2.097 . S
O2561 C2589 1.214 . S
H2562 C2590 0.929 . S
H2563 C2591 0.929 . S
H2564 C2592 0.930 . S
H2565 C2593 0.929 . S
H2566 C2595 0.930 . S
H2567 C2572 0.930 . S
H2568 C2576 0.930 . S
O2569 Co2538 2.037 . S
O2569 C2589 1.234 . S
C2570 O2544 1.269 . S
C2570 O2545 1.257 . S
C2571 H2546 0.930 . S
C2571 C2574 1.388 . S
C2571 C2576 1.418 . S
C2572 H2567 0.930 . S
C2572 C2575 1.404 . S
C2572 C2576 1.353 . S
N2573 Co2538 2.145 . S
N2573 C2574 1.397 . S
N2573 C2575 1.334 . S
C2574 H2555 0.929 . S
C2574 C2571 1.388 . S
C2574 N2573 1.397 . S
C2575 H2556 0.929 . S
C2575 C2572 1.404 . S
C2575 N2573 1.334 . S
C2576 H2568 0.930 . S
C2576 C2571 1.418 . S
C2576 C2572 1.353 . S
C2577 H2547 0.930 . S
C2577 N2578 1.330 . S
C2577 C2579 1.446 . S
N2578 Co2537 2.151 . S
N2578 C2577 1.330 . S
N2578 C2582 1.418 . S
C2579 H2558 0.929 . S
C2579 C2577 1.446 . S
C2579 C2580 1.332 . S
C2580 H2560 0.931 . S
C2580 C2579 1.332 . S
C2580 C2581 1.267 . S
C2581 H2549 0.929 . S
C2581 C2580 1.267 . S
C2581 C2582 1.251 . S
C2582 H2552 0.929 . S
C2582 N2578 1.418 . S
C2582 C2581 1.251 . S
C2583 H2550 0.930 . S
C2583 C2585 1.406 . S
C2583 C2588 1.261 . S
C2584 H2551 0.930 . S
C2584 N2586 1.325 . S
C2584 C2587 1.357 . S
C2585 H2553 0.928 . S
C2585 C2583 1.406 . S
C2585 N2586 1.261 . S
N2586 Co2537 2.214 . S
N2586 C2584 1.325 . S
N2586 C2585 1.261 . S
C2587 H2557 0.931 . S
C2587 C2584 1.357 . S
C2587 C2588 1.312 . S
C2588 H2559 0.930 . S
C2588 C2583 1.261 . S
C2588 C2587 1.312 . S
C2589 O2561 1.214 . S
C2589 O2569 1.234 . S
C2590 H2562 0.929 . S
C2590 C2593 1.391 . S
C2590 C2595 1.391 . S
C2591 H2563 0.929 . S
C2591 C2592 1.390 . S
C2591 N2594 1.391 . S
C2592 H2564 0.930 . S
C2592 C2591 1.390 . S
C2592 C2593 1.392 . S
C2593 H2565 0.929 . S
C2593 C2590 1.391 . S
C2593 C2592 1.392 . S
N2594 Co2538 2.257 . S
N2594 C2591 1.391 . S
N2594 C2595 1.388 . S
C2595 H2566 0.930 . S
C2595 C2590 1.391 . S
C2595 N2594 1.388 . S
Co2596 O2598 2.143 . S
Co2596 O2604 2.074 . S
Co2596 O2607 2.093 . S
Co2596 O2620 2.097 . S
Co2596 N2637 2.151 . S
Co2596 N2645 2.214 . S
Co2597 O2598 2.160 . S
Co2597 O2603 2.058 . S
Co2597 O2613 2.057 . S
Co2597 O2628 2.037 . S
Co2597 N2632 2.145 . S
Co2597 N2653 2.257 . S
O2598 Co2596 2.143 . S
O2598 Co2597 2.160 . S
C2599 O2600 1.278 . S
C2599 O2607 1.224 . S
O2600 C2599 1.278 . S
C2601 O2602 1.245 . S
C2601 O2613 1.232 . S
O2602 C2601 1.245 . S
O2603 Co2597 2.058 . S
O2603 C2629 1.269 . S
O2604 Co2596 2.074 . S
O2604 C2629 1.257 . S
H2605 C2630 0.930 . S
H2606 C2636 0.930 . S
O2607 Co2596 2.093 . S
O2607 C2599 1.224 . S
H2608 C2640 0.929 . S
H2609 C2642 0.930 . S
H2610 C2643 0.930 . S
H2611 C2641 0.929 . S
H2612 C2644 0.928 . S
O2613 Co2597 2.057 . S
O2613 C2601 1.232 . S
H2614 C2633 0.929 . S
H2615 C2634 0.929 . S
H2616 C2646 0.931 . S
H2617 C2638 0.929 . S
H2618 C2647 0.930 . S
H2619 C2639 0.931 . S
O2620 Co2596 2.097 . S
O2620 C2648 1.214 . S
H2621 C2649 0.929 . S
H2622 C2650 0.929 . S
H2623 C2651 0.930 . S
H2624 C2652 0.929 . S
H2625 C2654 0.930 . S
H2626 C2631 0.930 . S
H2627 C2635 0.930 . S
O2628 Co2597 2.037 . S
O2628 C2648 1.234 . S
C2629 O2603 1.269 . S
C2629 O2604 1.257 . S
C2630 H2605 0.930 . S
C2630 C2633 1.388 . S
C2630 C2635 1.418 . S
C2631 H2626 0.930 . S
C2631 C2634 1.404 . S
C2631 C2635 1.353 . S
N2632 Co2597 2.145 . S
N2632 C2633 1.397 . S
N2632 C2634 1.334 . S
C2633 H2614 0.929 . S
C2633 C2630 1.388 . S
C2633 N2632 1.397 . S
C2634 H2615 0.929 . S
C2634 C2631 1.404 . S
C2634 N2632 1.334 . S
C2635 H2627 0.930 . S
C2635 C2630 1.418 . S
C2635 C2631 1.353 . S
C2636 H2606 0.930 . S
C2636 N2637 1.330 . S
C2636 C2638 1.446 . S
N2637 Co2596 2.151 . S
N2637 C2636 1.330 . S
N2637 C2641 1.418 . S
C2638 H2617 0.929 . S
C2638 C2636 1.446 . S
C2638 C2639 1.332 . S
C2639 H2619 0.931 . S
C2639 C2638 1.332 . S
C2639 C2640 1.267 . S
C2640 H2608 0.929 . S
C2640 C2639 1.267 . S
C2640 C2641 1.251 . S
C2641 H2611 0.929 . S
C2641 N2637 1.418 . S
C2641 C2640 1.251 . S
C2642 H2609 0.930 . S
C2642 C2644 1.406 . S
C2642 C2647 1.261 . S
C2643 H2610 0.930 . S
C2643 N2645 1.325 . S
C2643 C2646 1.357 . S
C2644 H2612 0.928 . S
C2644 C2642 1.406 . S
C2644 N2645 1.261 . S
N2645 Co2596 2.214 . S
N2645 C2643 1.325 . S
N2645 C2644 1.261 . S
C2646 H2616 0.931 . S
C2646 C2643 1.357 . S
C2646 C2647 1.312 . S
C2647 H2618 0.930 . S
C2647 C2642 1.261 . S
C2647 C2646 1.312 . S
C2648 O2620 1.214 . S
C2648 O2628 1.234 . S
C2649 H2621 0.929 . S
C2649 C2652 1.391 . S
C2649 C2654 1.391 . S
C2650 H2622 0.929 . S
C2650 C2651 1.390 . S
C2650 N2653 1.391 . S
C2651 H2623 0.930 . S
C2651 C2650 1.390 . S
C2651 C2652 1.392 . S
C2652 H2624 0.929 . S
C2652 C2649 1.391 . S
C2652 C2651 1.392 . S
N2653 Co2597 2.257 . S
N2653 C2650 1.391 . S
N2653 C2654 1.388 . S
C2654 H2625 0.930 . S
C2654 C2649 1.391 . S
C2654 N2653 1.388 . S
Co2655 O2657 2.143 . S
Co2655 O2663 2.074 . S
Co2655 O2666 2.093 . S
Co2655 O2679 2.097 . S
Co2655 N2696 2.151 . S
Co2655 N2704 2.214 . S
Co2656 O2657 2.160 . S
Co2656 O2662 2.058 . S
Co2656 O2672 2.057 . S
Co2656 O2687 2.037 . S
Co2656 N2691 2.145 . S
Co2656 N2712 2.257 . S
O2657 Co2655 2.143 . S
O2657 Co2656 2.160 . S
C2658 O2659 1.278 . S
C2658 O2666 1.224 . S
O2659 C2658 1.278 . S
C2660 O2661 1.245 . S
C2660 O2672 1.232 . S
O2661 C2660 1.245 . S
O2662 Co2656 2.058 . S
O2662 C2688 1.269 . S
O2663 Co2655 2.074 . S
O2663 C2688 1.257 . S
H2664 C2689 0.930 . S
H2665 C2695 0.930 . S
O2666 Co2655 2.093 . S
O2666 C2658 1.224 . S
H2667 C2699 0.929 . S
H2668 C2701 0.930 . S
H2669 C2702 0.930 . S
H2670 C2700 0.929 . S
H2671 C2703 0.928 . S
O2672 Co2656 2.057 . S
O2672 C2660 1.232 . S
H2673 C2692 0.929 . S
H2674 C2693 0.929 . S
H2675 C2705 0.931 . S
H2676 C2697 0.929 . S
H2677 C2706 0.930 . S
H2678 C2698 0.931 . S
O2679 Co2655 2.097 . S
O2679 C2707 1.214 . S
H2680 C2708 0.929 . S
H2681 C2709 0.929 . S
H2682 C2710 0.930 . S
H2683 C2711 0.929 . S
H2684 C2713 0.930 . S
H2685 C2690 0.930 . S
H2686 C2694 0.930 . S
O2687 Co2656 2.037 . S
O2687 C2707 1.234 . S
C2688 O2662 1.269 . S
C2688 O2663 1.257 . S
C2689 H2664 0.930 . S
C2689 C2692 1.388 . S
C2689 C2694 1.418 . S
C2690 H2685 0.930 . S
C2690 C2693 1.404 . S
C2690 C2694 1.353 . S
N2691 Co2656 2.145 . S
N2691 C2692 1.397 . S
N2691 C2693 1.334 . S
C2692 H2673 0.929 . S
C2692 C2689 1.388 . S
C2692 N2691 1.397 . S
C2693 H2674 0.929 . S
C2693 C2690 1.404 . S
C2693 N2691 1.334 . S
C2694 H2686 0.930 . S
C2694 C2689 1.418 . S
C2694 C2690 1.353 . S
C2695 H2665 0.930 . S
C2695 N2696 1.330 . S
C2695 C2697 1.446 . S
N2696 Co2655 2.151 . S
N2696 C2695 1.330 . S
N2696 C2700 1.418 . S
C2697 H2676 0.929 . S
C2697 C2695 1.446 . S
C2697 C2698 1.332 . S
C2698 H2678 0.931 . S
C2698 C2697 1.332 . S
C2698 C2699 1.267 . S
C2699 H2667 0.929 . S
C2699 C2698 1.267 . S
C2699 C2700 1.251 . S
C2700 H2670 0.929 . S
C2700 N2696 1.418 . S
C2700 C2699 1.251 . S
C2701 H2668 0.930 . S
C2701 C2703 1.406 . S
C2701 C2706 1.261 . S
C2702 H2669 0.930 . S
C2702 N2704 1.325 . S
C2702 C2705 1.357 . S
C2703 H2671 0.928 . S
C2703 C2701 1.406 . S
C2703 N2704 1.261 . S
N2704 Co2655 2.214 . S
N2704 C2702 1.325 . S
N2704 C2703 1.261 . S
C2705 H2675 0.931 . S
C2705 C2702 1.357 . S
C2705 C2706 1.312 . S
C2706 H2677 0.930 . S
C2706 C2701 1.261 . S
C2706 C2705 1.312 . S
C2707 O2679 1.214 . S
C2707 O2687 1.234 . S
C2708 H2680 0.929 . S
C2708 C2711 1.391 . S
C2708 C2713 1.391 . S
C2709 H2681 0.929 . S
C2709 C2710 1.390 . S
C2709 N2712 1.391 . S
C2710 H2682 0.930 . S
C2710 C2709 1.390 . S
C2710 C2711 1.392 . S
C2711 H2683 0.929 . S
C2711 C2708 1.391 . S
C2711 C2710 1.392 . S
N2712 Co2656 2.257 . S
N2712 C2709 1.391 . S
N2712 C2713 1.388 . S
C2713 H2684 0.930 . S
C2713 C2708 1.391 . S
C2713 N2712 1.388 . S
Co2714 O2716 2.143 . S
Co2714 O2722 2.074 . S
Co2714 O2725 2.093 . S
Co2714 O2738 2.097 . S
Co2714 N2755 2.151 . S
Co2714 N2763 2.214 . S
Co2715 O2716 2.160 . S
Co2715 O2721 2.058 . S
Co2715 O2731 2.057 . S
Co2715 O2746 2.037 . S
Co2715 N2750 2.145 . S
Co2715 N2771 2.257 . S
O2716 Co2714 2.143 . S
O2716 Co2715 2.160 . S
C2717 O2718 1.278 . S
C2717 O2725 1.224 . S
O2718 C2717 1.278 . S
C2719 O2720 1.245 . S
C2719 O2731 1.232 . S
O2720 C2719 1.245 . S
O2721 Co2715 2.058 . S
O2721 C2747 1.269 . S
O2722 Co2714 2.074 . S
O2722 C2747 1.257 . S
H2723 C2748 0.930 . S
H2724 C2754 0.930 . S
O2725 Co2714 2.093 . S
O2725 C2717 1.224 . S
H2726 C2758 0.929 . S
H2727 C2760 0.930 . S
H2728 C2761 0.930 . S
H2729 C2759 0.929 . S
H2730 C2762 0.928 . S
O2731 Co2715 2.057 . S
O2731 C2719 1.232 . S
H2732 C2751 0.929 . S
H2733 C2752 0.929 . S
H2734 C2764 0.931 . S
H2735 C2756 0.929 . S
H2736 C2765 0.930 . S
H2737 C2757 0.931 . S
O2738 Co2714 2.097 . S
O2738 C2766 1.214 . S
H2739 C2767 0.929 . S
H2740 C2768 0.929 . S
H2741 C2769 0.930 . S
H2742 C2770 0.929 . S
H2743 C2772 0.930 . S
H2744 C2749 0.930 . S
H2745 C2753 0.930 . S
O2746 Co2715 2.037 . S
O2746 C2766 1.234 . S
C2747 O2721 1.269 . S
C2747 O2722 1.257 . S
C2748 H2723 0.930 . S
C2748 C2751 1.388 . S
C2748 C2753 1.418 . S
C2749 H2744 0.930 . S
C2749 C2752 1.404 . S
C2749 C2753 1.353 . S
N2750 Co2715 2.145 . S
N2750 C2751 1.397 . S
N2750 C2752 1.334 . S
C2751 H2732 0.929 . S
C2751 C2748 1.388 . S
C2751 N2750 1.397 . S
C2752 H2733 0.929 . S
C2752 C2749 1.404 . S
C2752 N2750 1.334 . S
C2753 H2745 0.930 . S
C2753 C2748 1.418 . S
C2753 C2749 1.353 . S
C2754 H2724 0.930 . S
C2754 N2755 1.330 . S
C2754 C2756 1.446 . S
N2755 Co2714 2.151 . S
N2755 C2754 1.330 . S
N2755 C2759 1.418 . S
C2756 H2735 0.929 . S
C2756 C2754 1.446 . S
C2756 C2757 1.332 . S
C2757 H2737 0.931 . S
C2757 C2756 1.332 . S
C2757 C2758 1.267 . S
C2758 H2726 0.929 . S
C2758 C2757 1.267 . S
C2758 C2759 1.251 . S
C2759 H2729 0.929 . S
C2759 N2755 1.418 . S
C2759 C2758 1.251 . S
C2760 H2727 0.930 . S
C2760 C2762 1.406 . S
C2760 C2765 1.261 . S
C2761 H2728 0.930 . S
C2761 N2763 1.325 . S
C2761 C2764 1.357 . S
C2762 H2730 0.928 . S
C2762 C2760 1.406 . S
C2762 N2763 1.261 . S
N2763 Co2714 2.214 . S
N2763 C2761 1.325 . S
N2763 C2762 1.261 . S
C2764 H2734 0.931 . S
C2764 C2761 1.357 . S
C2764 C2765 1.312 . S
C2765 H2736 0.930 . S
C2765 C2760 1.261 . S
C2765 C2764 1.312 . S
C2766 O2738 1.214 . S
C2766 O2746 1.234 . S
C2767 H2739 0.929 . S
C2767 C2770 1.391 . S
C2767 C2772 1.391 . S
C2768 H2740 0.929 . S
C2768 C2769 1.390 . S
C2768 N2771 1.391 . S
C2769 H2741 0.930 . S
C2769 C2768 1.390 . S
C2769 C2770 1.392 . S
C2770 H2742 0.929 . S
C2770 C2767 1.391 . S
C2770 C2769 1.392 . S
N2771 Co2715 2.257 . S
N2771 C2768 1.391 . S
N2771 C2772 1.388 . S
C2772 H2743 0.930 . S
C2772 C2767 1.391 . S
C2772 N2771 1.388 . S
Co2773 O2775 2.143 . S
Co2773 O2781 2.074 . S
Co2773 O2784 2.093 . S
Co2773 O2797 2.097 . S
Co2773 N2814 2.151 . S
Co2773 N2822 2.214 . S
Co2774 O2775 2.160 . S
Co2774 O2780 2.058 . S
Co2774 O2790 2.057 . S
Co2774 O2805 2.037 . S
Co2774 N2809 2.145 . S
Co2774 N2830 2.257 . S
O2775 Co2773 2.143 . S
O2775 Co2774 2.160 . S
C2776 O2777 1.278 . S
C2776 O2784 1.224 . S
O2777 C2776 1.278 . S
C2778 O2779 1.245 . S
C2778 O2790 1.232 . S
O2779 C2778 1.245 . S
O2780 Co2774 2.058 . S
O2780 C2806 1.269 . S
O2781 Co2773 2.074 . S
O2781 C2806 1.257 . S
H2782 C2807 0.930 . S
H2783 C2813 0.930 . S
O2784 Co2773 2.093 . S
O2784 C2776 1.224 . S
H2785 C2817 0.929 . S
H2786 C2819 0.930 . S
H2787 C2820 0.930 . S
H2788 C2818 0.929 . S
H2789 C2821 0.928 . S
O2790 Co2774 2.057 . S
O2790 C2778 1.232 . S
H2791 C2810 0.929 . S
H2792 C2811 0.929 . S
H2793 C2823 0.931 . S
H2794 C2815 0.929 . S
H2795 C2824 0.930 . S
H2796 C2816 0.931 . S
O2797 Co2773 2.097 . S
O2797 C2825 1.214 . S
H2798 C2826 0.929 . S
H2799 C2827 0.929 . S
H2800 C2828 0.930 . S
H2801 C2829 0.929 . S
H2802 C2831 0.930 . S
H2803 C2808 0.930 . S
H2804 C2812 0.930 . S
O2805 Co2774 2.037 . S
O2805 C2825 1.234 . S
C2806 O2780 1.269 . S
C2806 O2781 1.257 . S
C2807 H2782 0.930 . S
C2807 C2810 1.388 . S
C2807 C2812 1.418 . S
C2808 H2803 0.930 . S
C2808 C2811 1.404 . S
C2808 C2812 1.353 . S
N2809 Co2774 2.145 . S
N2809 C2810 1.397 . S
N2809 C2811 1.334 . S
C2810 H2791 0.929 . S
C2810 C2807 1.388 . S
C2810 N2809 1.397 . S
C2811 H2792 0.929 . S
C2811 C2808 1.404 . S
C2811 N2809 1.334 . S
C2812 H2804 0.930 . S
C2812 C2807 1.418 . S
C2812 C2808 1.353 . S
C2813 H2783 0.930 . S
C2813 N2814 1.330 . S
C2813 C2815 1.446 . S
N2814 Co2773 2.151 . S
N2814 C2813 1.330 . S
N2814 C2818 1.418 . S
C2815 H2794 0.929 . S
C2815 C2813 1.446 . S
C2815 C2816 1.332 . S
C2816 H2796 0.931 . S
C2816 C2815 1.332 . S
C2816 C2817 1.267 . S
C2817 H2785 0.929 . S
C2817 C2816 1.267 . S
C2817 C2818 1.251 . S
C2818 H2788 0.929 . S
C2818 N2814 1.418 . S
C2818 C2817 1.251 . S
C2819 H2786 0.930 . S
C2819 C2821 1.406 . S
C2819 C2824 1.261 . S
C2820 H2787 0.930 . S
C2820 N2822 1.325 . S
C2820 C2823 1.357 . S
C2821 H2789 0.928 . S
C2821 C2819 1.406 . S
C2821 N2822 1.261 . S
N2822 Co2773 2.214 . S
N2822 C2820 1.325 . S
N2822 C2821 1.261 . S
C2823 H2793 0.931 . S
C2823 C2820 1.357 . S
C2823 C2824 1.312 . S
C2824 H2795 0.930 . S
C2824 C2819 1.261 . S
C2824 C2823 1.312 . S
C2825 O2797 1.214 . S
C2825 O2805 1.234 . S
C2826 H2798 0.929 . S
C2826 C2829 1.391 . S
C2826 C2831 1.391 . S
C2827 H2799 0.929 . S
C2827 C2828 1.390 . S
C2827 N2830 1.391 . S
C2828 H2800 0.930 . S
C2828 C2827 1.390 . S
C2828 C2829 1.392 . S
C2829 H2801 0.929 . S
C2829 C2826 1.391 . S
C2829 C2828 1.392 . S
N2830 Co2774 2.257 . S
N2830 C2827 1.391 . S
N2830 C2831 1.388 . S
C2831 H2802 0.930 . S
C2831 C2826 1.391 . S
C2831 N2830 1.388 . S
H2832 C2840 0.950 . S
H2833 C2845 0.950 . S
H2834 C2842 0.950 . S
H2835 C2844 0.950 . S
H2836 C2846 0.950 . S
H2837 C2848 0.950 . S
H2838 C2850 0.950 . S
H2839 C2851 0.950 . S
C2840 H2832 0.950 . S
C2840 C2841 1.386 . S
C2840 C2842 1.391 . S
C2841 C2840 1.386 . S
C2841 C2845 1.393 . S
C2842 H2834 0.950 . S
C2842 C2840 1.391 . S
C2842 C2843 1.400 . S
C2843 C2842 1.400 . S
C2843 C2844 1.398 . S
C2843 C2849 1.491 . S
C2844 H2835 0.950 . S
C2844 C2843 1.398 . S
C2844 C2845 1.391 . S
C2845 H2833 0.950 . S
C2845 C2841 1.393 . S
C2845 C2844 1.391 . S
C2846 H2836 0.950 . S
C2846 C2847 1.386 . S
C2846 C2848 1.391 . S
C2847 C2846 1.386 . S
C2847 C2851 1.393 . S
C2848 H2837 0.950 . S
C2848 C2846 1.391 . S
C2848 C2849 1.400 . S
C2849 C2843 1.491 . S
C2849 C2848 1.400 . S
C2849 C2850 1.398 . S
C2850 H2838 0.950 . S
C2850 C2849 1.398 . S
C2850 C2851 1.391 . S
C2851 H2839 0.950 . S
C2851 C2847 1.393 . S
C2851 C2850 1.391 . S
H2852 C2860 0.950 . S
H2853 C2865 0.950 . S
H2854 C2862 0.950 . S
H2855 C2864 0.950 . S
H2856 C2866 0.950 . S
H2857 C2868 0.950 . S
H2858 C2870 0.950 . S
H2859 C2871 0.950 . S
C2860 H2852 0.950 . S
C2860 C2861 1.386 . S
C2860 C2862 1.391 . S
C2861 C2860 1.386 . S
C2861 C2865 1.393 . S
C2862 H2854 0.950 . S
C2862 C2860 1.391 . S
C2862 C2863 1.400 . S
C2863 C2862 1.400 . S
C2863 C2864 1.398 . S
C2863 C2869 1.491 . S
C2864 H2855 0.950 . S
C2864 C2863 1.398 . S
C2864 C2865 1.391 . S
C2865 H2853 0.950 . S
C2865 C2861 1.393 . S
C2865 C2864 1.391 . S
C2866 H2856 0.950 . S
C2866 C2867 1.386 . S
C2866 C2868 1.391 . S
C2867 C2866 1.386 . S
C2867 C2871 1.393 . S
C2868 H2857 0.950 . S
C2868 C2866 1.391 . S
C2868 C2869 1.400 . S
C2869 C2863 1.491 . S
C2869 C2868 1.400 . S
C2869 C2870 1.398 . S
C2870 H2858 0.950 . S
C2870 C2869 1.398 . S
C2870 C2871 1.391 . S
C2871 H2859 0.950 . S
C2871 C2867 1.393 . S
C2871 C2870 1.391 . S
H2872 C2880 0.950 . S
H2873 C2885 0.950 . S
H2874 C2882 0.950 . S
H2875 C2884 0.950 . S
H2876 C2886 0.950 . S
H2877 C2888 0.950 . S
H2878 C2890 0.950 . S
H2879 C2891 0.950 . S
C2880 H2872 0.950 . S
C2880 C2881 1.386 . S
C2880 C2882 1.391 . S
C2881 C2880 1.386 . S
C2881 C2885 1.393 . S
C2882 H2874 0.950 . S
C2882 C2880 1.391 . S
C2882 C2883 1.400 . S
C2883 C2882 1.400 . S
C2883 C2884 1.398 . S
C2883 C2889 1.491 . S
C2884 H2875 0.950 . S
C2884 C2883 1.398 . S
C2884 C2885 1.391 . S
C2885 H2873 0.950 . S
C2885 C2881 1.393 . S
C2885 C2884 1.391 . S
C2886 H2876 0.950 . S
C2886 C2887 1.386 . S
C2886 C2888 1.391 . S
C2887 C2886 1.386 . S
C2887 C2891 1.393 . S
C2888 H2877 0.950 . S
C2888 C2886 1.391 . S
C2888 C2889 1.400 . S
C2889 C2883 1.491 . S
C2889 C2888 1.400 . S
C2889 C2890 1.398 . S
C2890 H2878 0.950 . S
C2890 C2889 1.398 . S
C2890 C2891 1.391 . S
C2891 H2879 0.950 . S
C2891 C2887 1.393 . S
C2891 C2890 1.391 . S
H2892 C2900 0.950 . S
H2893 C2905 0.950 . S
H2894 C2902 0.950 . S
H2895 C2904 0.950 . S
H2896 C2906 0.950 . S
H2897 C2908 0.950 . S
H2898 C2910 0.950 . S
H2899 C2911 0.950 . S
C2900 H2892 0.950 . S
C2900 C2901 1.386 . S
C2900 C2902 1.391 . S
C2901 C2900 1.386 . S
C2901 C2905 1.393 . S
C2902 H2894 0.950 . S
C2902 C2900 1.391 . S
C2902 C2903 1.400 . S
C2903 C2902 1.400 . S
C2903 C2904 1.398 . S
C2903 C2909 1.491 . S
C2904 H2895 0.950 . S
C2904 C2903 1.398 . S
C2904 C2905 1.391 . S
C2905 H2893 0.950 . S
C2905 C2901 1.393 . S
C2905 C2904 1.391 . S
C2906 H2896 0.950 . S
C2906 C2907 1.386 . S
C2906 C2908 1.391 . S
C2907 C2906 1.386 . S
C2907 C2911 1.393 . S
C2908 H2897 0.950 . S
C2908 C2906 1.391 . S
C2908 C2909 1.400 . S
C2909 C2903 1.491 . S
C2909 C2908 1.400 . S
C2909 C2910 1.398 . S
C2910 H2898 0.950 . S
C2910 C2909 1.398 . S
C2910 C2911 1.391 . S
C2911 H2899 0.950 . S
C2911 C2907 1.393 . S
C2911 C2910 1.391 . S
H2912 C2920 0.950 . S
H2913 C2925 0.950 . S
H2914 C2922 0.950 . S
H2915 C2924 0.950 . S
H2916 C2926 0.950 . S
H2917 C2928 0.950 . S
H2918 C2930 0.950 . S
H2919 C2931 0.950 . S
C2920 H2912 0.950 . S
C2920 C2921 1.386 . S
C2920 C2922 1.391 . S
C2921 C2920 1.386 . S
C2921 C2925 1.393 . S
C2922 H2914 0.950 . S
C2922 C2920 1.391 . S
C2922 C2923 1.400 . S
C2923 C2922 1.400 . S
C2923 C2924 1.398 . S
C2923 C2929 1.491 . S
C2924 H2915 0.950 . S
C2924 C2923 1.398 . S
C2924 C2925 1.391 . S
C2925 H2913 0.950 . S
C2925 C2921 1.393 . S
C2925 C2924 1.391 . S
C2926 H2916 0.950 . S
C2926 C2927 1.386 . S
C2926 C2928 1.391 . S
C2927 C2926 1.386 . S
C2927 C2931 1.393 . S
C2928 H2917 0.950 . S
C2928 C2926 1.391 . S
C2928 C2929 1.400 . S
C2929 C2923 1.491 . S
C2929 C2928 1.400 . S
C2929 C2930 1.398 . S
C2930 H2918 0.950 . S
C2930 C2929 1.398 . S
C2930 C2931 1.391 . S
C2931 H2919 0.950 . S
C2931 C2927 1.393 . S
C2931 C2930 1.391 . S
H2932 C2940 0.950 . S
H2933 C2945 0.950 . S
H2934 C2942 0.950 . S
H2935 C2944 0.950 . S
H2936 C2946 0.950 . S
H2937 C2948 0.950 . S
H2938 C2950 0.950 . S
H2939 C2951 0.950 . S
C2940 H2932 0.950 . S
C2940 C2941 1.386 . S
C2940 C2942 1.391 . S
C2941 C2940 1.386 . S
C2941 C2945 1.393 . S
C2942 H2934 0.950 . S
C2942 C2940 1.391 . S
C2942 C2943 1.400 . S
C2943 C2942 1.400 . S
C2943 C2944 1.398 . S
C2943 C2949 1.491 . S
C2944 H2935 0.950 . S
C2944 C2943 1.398 . S
C2944 C2945 1.391 . S
C2945 H2933 0.950 . S
C2945 C2941 1.393 . S
C2945 C2944 1.391 . S
C2946 H2936 0.950 . S
C2946 C2947 1.386 . S
C2946 C2948 1.391 . S
C2947 C2946 1.386 . S
C2947 C2951 1.393 . S
C2948 H2937 0.950 . S
C2948 C2946 1.391 . S
C2948 C2949 1.400 . S
C2949 C2943 1.491 . S
C2949 C2948 1.400 . S
C2949 C2950 1.398 . S
C2950 H2938 0.950 . S
C2950 C2949 1.398 . S
C2950 C2951 1.391 . S
C2951 H2939 0.950 . S
C2951 C2947 1.393 . S
C2951 C2950 1.391 . S
H2952 C2960 0.950 . S
H2953 C2965 0.950 . S
H2954 C2962 0.950 . S
H2955 C2964 0.950 . S
H2956 C2966 0.950 . S
H2957 C2968 0.950 . S
H2958 C2970 0.950 . S
H2959 C2971 0.950 . S
C2960 H2952 0.950 . S
C2960 C2961 1.386 . S
C2960 C2962 1.391 . S
C2961 C2960 1.386 . S
C2961 C2965 1.393 . S
C2962 H2954 0.950 . S
C2962 C2960 1.391 . S
C2962 C2963 1.400 . S
C2963 C2962 1.400 . S
C2963 C2964 1.398 . S
C2963 C2969 1.491 . S
C2964 H2955 0.950 . S
C2964 C2963 1.398 . S
C2964 C2965 1.391 . S
C2965 H2953 0.950 . S
C2965 C2961 1.393 . S
C2965 C2964 1.391 . S
C2966 H2956 0.950 . S
C2966 C2967 1.386 . S
C2966 C2968 1.391 . S
C2967 C2966 1.386 . S
C2967 C2971 1.393 . S
C2968 H2957 0.950 . S
C2968 C2966 1.391 . S
C2968 C2969 1.400 . S
C2969 C2963 1.491 . S
C2969 C2968 1.400 . S
C2969 C2970 1.398 . S
C2970 H2958 0.950 . S
C2970 C2969 1.398 . S
C2970 C2971 1.391 . S
C2971 H2959 0.950 . S
C2971 C2967 1.393 . S
C2971 C2970 1.391 . S
H2972 C2980 0.950 . S
H2973 C2985 0.950 . S
H2974 C2982 0.950 . S
H2975 C2984 0.950 . S
H2976 C2986 0.950 . S
H2977 C2988 0.950 . S
H2978 C2990 0.950 . S
H2979 C2991 0.950 . S
C2980 H2972 0.950 . S
C2980 C2981 1.386 . S
C2980 C2982 1.391 . S
C2981 C2980 1.386 . S
C2981 C2985 1.393 . S
C2982 H2974 0.950 . S
C2982 C2980 1.391 . S
C2982 C2983 1.400 . S
C2983 C2982 1.400 . S
C2983 C2984 1.398 . S
C2983 C2989 1.491 . S
C2984 H2975 0.950 . S
C2984 C2983 1.398 . S
C2984 C2985 1.391 . S
C2985 H2973 0.950 . S
C2985 C2981 1.393 . S
C2985 C2984 1.391 . S
C2986 H2976 0.950 . S
C2986 C2987 1.386 . S
C2986 C2988 1.391 . S
C2987 C2986 1.386 . S
C2987 C2991 1.393 . S
C2988 H2977 0.950 . S
C2988 C2986 1.391 . S
C2988 C2989 1.400 . S
C2989 C2983 1.491 . S
C2989 C2988 1.400 . S
C2989 C2990 1.398 . S
C2990 H2978 0.950 . S
C2990 C2989 1.398 . S
C2990 C2991 1.391 . S
C2991 H2979 0.950 . S
C2991 C2987 1.393 . S
C2991 C2990 1.391 . S
H2992 C3000 0.950 . S
H2993 C3005 0.950 . S
H2994 C3002 0.950 . S
H2995 C3004 0.950 . S
H2996 C3006 0.950 . S
H2997 C3008 0.950 . S
H2998 C3010 0.950 . S
H2999 C3011 0.950 . S
C3000 H2992 0.950 . S
C3000 C3001 1.386 . S
C3000 C3002 1.391 . S
C3001 C3000 1.386 . S
C3001 C3005 1.393 . S
C3002 H2994 0.950 . S
C3002 C3000 1.391 . S
C3002 C3003 1.400 . S
C3003 C3002 1.400 . S
C3003 C3004 1.398 . S
C3003 C3009 1.491 . S
C3004 H2995 0.950 . S
C3004 C3003 1.398 . S
C3004 C3005 1.391 . S
C3005 H2993 0.950 . S
C3005 C3001 1.393 . S
C3005 C3004 1.391 . S
C3006 H2996 0.950 . S
C3006 C3007 1.386 . S
C3006 C3008 1.391 . S
C3007 C3006 1.386 . S
C3007 C3011 1.393 . S
C3008 H2997 0.950 . S
C3008 C3006 1.391 . S
C3008 C3009 1.400 . S
C3009 C3003 1.491 . S
C3009 C3008 1.400 . S
C3009 C3010 1.398 . S
C3010 H2998 0.950 . S
C3010 C3009 1.398 . S
C3010 C3011 1.391 . S
C3011 H2999 0.950 . S
C3011 C3007 1.393 . S
C3011 C3010 1.391 . S
H3012 C3020 0.950 . S
H3013 C3025 0.950 . S
H3014 C3022 0.950 . S
H3015 C3024 0.950 . S
H3016 C3026 0.950 . S
H3017 C3028 0.950 . S
H3018 C3030 0.950 . S
H3019 C3031 0.950 . S
C3020 H3012 0.950 . S
C3020 C3021 1.386 . S
C3020 C3022 1.391 . S
C3021 C3020 1.386 . S
C3021 C3025 1.393 . S
C3022 H3014 0.950 . S
C3022 C3020 1.391 . S
C3022 C3023 1.400 . S
C3023 C3022 1.400 . S
C3023 C3024 1.398 . S
C3023 C3029 1.491 . S
C3024 H3015 0.950 . S
C3024 C3023 1.398 . S
C3024 C3025 1.391 . S
C3025 H3013 0.950 . S
C3025 C3021 1.393 . S
C3025 C3024 1.391 . S
C3026 H3016 0.950 . S
C3026 C3027 1.386 . S
C3026 C3028 1.391 . S
C3027 C3026 1.386 . S
C3027 C3031 1.393 . S
C3028 H3017 0.950 . S
C3028 C3026 1.391 . S
C3028 C3029 1.400 . S
C3029 C3023 1.491 . S
C3029 C3028 1.400 . S
C3029 C3030 1.398 . S
C3030 H3018 0.950 . S
C3030 C3029 1.398 . S
C3030 C3031 1.391 . S
C3031 H3019 0.950 . S
C3031 C3027 1.393 . S
C3031 C3030 1.391 . S
H3032 C3040 0.950 . S
H3033 C3045 0.950 . S
H3034 C3042 0.950 . S
H3035 C3044 0.950 . S
H3036 C3046 0.950 . S
H3037 C3048 0.950 . S
H3038 C3050 0.950 . S
H3039 C3051 0.950 . S
C3040 H3032 0.950 . S
C3040 C3041 1.386 . S
C3040 C3042 1.391 . S
C3041 C3040 1.386 . S
C3041 C3045 1.393 . S
C3042 H3034 0.950 . S
C3042 C3040 1.391 . S
C3042 C3043 1.400 . S
C3043 C3042 1.400 . S
C3043 C3044 1.398 . S
C3043 C3049 1.491 . S
C3044 H3035 0.950 . S
C3044 C3043 1.398 . S
C3044 C3045 1.391 . S
C3045 H3033 0.950 . S
C3045 C3041 1.393 . S
C3045 C3044 1.391 . S
C3046 H3036 0.950 . S
C3046 C3047 1.386 . S
C3046 C3048 1.391 . S
C3047 C3046 1.386 . S
C3047 C3051 1.393 . S
C3048 H3037 0.950 . S
C3048 C3046 1.391 . S
C3048 C3049 1.400 . S
C3049 C3043 1.491 . S
C3049 C3048 1.400 . S
C3049 C3050 1.398 . S
C3050 H3038 0.950 . S
C3050 C3049 1.398 . S
C3050 C3051 1.391 . S
C3051 H3039 0.950 . S
C3051 C3047 1.393 . S
C3051 C3050 1.391 . S
H3052 C3060 0.950 . S
H3053 C3065 0.950 . S
H3054 C3062 0.950 . S
H3055 C3064 0.950 . S
H3056 C3066 0.950 . S
H3057 C3068 0.950 . S
H3058 C3070 0.950 . S
H3059 C3071 0.950 . S
C3060 H3052 0.950 . S
C3060 C3061 1.386 . S
C3060 C3062 1.391 . S
C3061 C3060 1.386 . S
C3061 C3065 1.393 . S
C3062 H3054 0.950 . S
C3062 C3060 1.391 . S
C3062 C3063 1.400 . S
C3063 C3062 1.400 . S
C3063 C3064 1.398 . S
C3063 C3069 1.491 . S
C3064 H3055 0.950 . S
C3064 C3063 1.398 . S
C3064 C3065 1.391 . S
C3065 H3053 0.950 . S
C3065 C3061 1.393 . S
C3065 C3064 1.391 . S
C3066 H3056 0.950 . S
C3066 C3067 1.386 . S
C3066 C3068 1.391 . S
C3067 C3066 1.386 . S
C3067 C3071 1.393 . S
C3068 H3057 0.950 . S
C3068 C3066 1.391 . S
C3068 C3069 1.400 . S
C3069 C3063 1.491 . S
C3069 C3068 1.400 . S
C3069 C3070 1.398 . S
C3070 H3058 0.950 . S
C3070 C3069 1.398 . S
C3070 C3071 1.391 . S
C3071 H3059 0.950 . S
C3071 C3067 1.393 . S
C3071 C3070 1.391 . S
H3072 C3080 0.950 . S
H3073 C3085 0.950 . S
H3074 C3082 0.950 . S
H3075 C3084 0.950 . S
H3076 C3086 0.950 . S
H3077 C3088 0.950 . S
H3078 C3090 0.950 . S
H3079 C3091 0.950 . S
C3080 H3072 0.950 . S
C3080 C3081 1.386 . S
C3080 C3082 1.391 . S
C3081 C3080 1.386 . S
C3081 C3085 1.393 . S
C3082 H3074 0.950 . S
C3082 C3080 1.391 . S
C3082 C3083 1.400 . S
C3083 C3082 1.400 . S
C3083 C3084 1.398 . S
C3083 C3089 1.491 . S
C3084 H3075 0.950 . S
C3084 C3083 1.398 . S
C3084 C3085 1.391 . S
C3085 H3073 0.950 . S
C3085 C3081 1.393 . S
C3085 C3084 1.391 . S
C3086 H3076 0.950 . S
C3086 C3087 1.386 . S
C3086 C3088 1.391 . S
C3087 C3086 1.386 . S
C3087 C3091 1.393 . S
C3088 H3077 0.950 . S
C3088 C3086 1.391 . S
C3088 C3089 1.400 . S
C3089 C3083 1.491 . S
C3089 C3088 1.400 . S
C3089 C3090 1.398 . S
C3090 H3078 0.950 . S
C3090 C3089 1.398 . S
C3090 C3091 1.391 . S
C3091 H3079 0.950 . S
C3091 C3087 1.393 . S
C3091 C3090 1.391 . S
H3092 C3100 0.950 . S
H3093 C3105 0.950 . S
H3094 C3102 0.950 . S
H3095 C3104 0.950 . S
H3096 C3106 0.950 . S
H3097 C3108 0.950 . S
H3098 C3110 0.950 . S
H3099 C3111 0.950 . S
C3100 H3092 0.950 . S
C3100 C3101 1.386 . S
C3100 C3102 1.391 . S
C3101 C3100 1.386 . S
C3101 C3105 1.393 . S
C3102 H3094 0.950 . S
C3102 C3100 1.391 . S
C3102 C3103 1.400 . S
C3103 C3102 1.400 . S
C3103 C3104 1.398 . S
C3103 C3109 1.491 . S
C3104 H3095 0.950 . S
C3104 C3103 1.398 . S
C3104 C3105 1.391 . S
C3105 H3093 0.950 . S
C3105 C3101 1.393 . S
C3105 C3104 1.391 . S
C3106 H3096 0.950 . S
C3106 C3107 1.386 . S
C3106 C3108 1.391 . S
C3107 C3106 1.386 . S
C3107 C3111 1.393 . S
C3108 H3097 0.950 . S
C3108 C3106 1.391 . S
C3108 C3109 1.400 . S
C3109 C3103 1.491 . S
C3109 C3108 1.400 . S
C3109 C3110 1.398 . S
C3110 H3098 0.950 . S
C3110 C3109 1.398 . S
C3110 C3111 1.391 . S
C3111 H3099 0.950 . S
C3111 C3107 1.393 . S
C3111 C3110 1.391 . S
H3112 C3120 0.950 . S
H3113 C3125 0.950 . S
H3114 C3122 0.950 . S
H3115 C3124 0.950 . S
H3116 C3126 0.950 . S
H3117 C3128 0.950 . S
H3118 C3130 0.950 . S
H3119 C3131 0.950 . S
C3120 H3112 0.950 . S
C3120 C3121 1.386 . S
C3120 C3122 1.391 . S
C3121 C3120 1.386 . S
C3121 C3125 1.393 . S
C3122 H3114 0.950 . S
C3122 C3120 1.391 . S
C3122 C3123 1.400 . S
C3123 C3122 1.400 . S
C3123 C3124 1.398 . S
C3123 C3129 1.491 . S
C3124 H3115 0.950 . S
C3124 C3123 1.398 . S
C3124 C3125 1.391 . S
C3125 H3113 0.950 . S
C3125 C3121 1.393 . S
C3125 C3124 1.391 . S
C3126 H3116 0.950 . S
C3126 C3127 1.386 . S
C3126 C3128 1.391 . S
C3127 C3126 1.386 . S
C3127 C3131 1.393 . S
C3128 H3117 0.950 . S
C3128 C3126 1.391 . S
C3128 C3129 1.400 . S
C3129 C3123 1.491 . S
C3129 C3128 1.400 . S
C3129 C3130 1.398 . S
C3130 H3118 0.950 . S
C3130 C3129 1.398 . S
C3130 C3131 1.391 . S
C3131 H3119 0.950 . S
C3131 C3127 1.393 . S
C3131 C3130 1.391 . S
H3132 C3140 0.950 . S
H3133 C3145 0.950 . S
H3134 C3142 0.950 . S
H3135 C3144 0.950 . S
H3136 C3146 0.950 . S
H3137 C3148 0.950 . S
H3138 C3150 0.950 . S
H3139 C3151 0.950 . S
C3140 H3132 0.950 . S
C3140 C3141 1.386 . S
C3140 C3142 1.391 . S
C3141 C3140 1.386 . S
C3141 C3145 1.393 . S
C3142 H3134 0.950 . S
C3142 C3140 1.391 . S
C3142 C3143 1.400 . S
C3143 C3142 1.400 . S
C3143 C3144 1.398 . S
C3143 C3149 1.491 . S
C3144 H3135 0.950 . S
C3144 C3143 1.398 . S
C3144 C3145 1.391 . S
C3145 H3133 0.950 . S
C3145 C3141 1.393 . S
C3145 C3144 1.391 . S
C3146 H3136 0.950 . S
C3146 C3147 1.386 . S
C3146 C3148 1.391 . S
C3147 C3146 1.386 . S
C3147 C3151 1.393 . S
C3148 H3137 0.950 . S
C3148 C3146 1.391 . S
C3148 C3149 1.400 . S
C3149 C3143 1.491 . S
C3149 C3148 1.400 . S
C3149 C3150 1.398 . S
C3150 H3138 0.950 . S
C3150 C3149 1.398 . S
C3150 C3151 1.391 . S
C3151 H3139 0.950 . S
C3151 C3147 1.393 . S
C3151 C3150 1.391 . S
H3152 C3160 0.950 . S
H3153 C3165 0.950 . S
H3154 C3162 0.950 . S
H3155 C3164 0.950 . S
H3156 C3166 0.950 . S
H3157 C3168 0.950 . S
H3158 C3170 0.950 . S
H3159 C3171 0.950 . S
C3160 H3152 0.950 . S
C3160 C3161 1.386 . S
C3160 C3162 1.391 . S
C3161 C3160 1.386 . S
C3161 C3165 1.393 . S
C3162 H3154 0.950 . S
C3162 C3160 1.391 . S
C3162 C3163 1.400 . S
C3163 C3162 1.400 . S
C3163 C3164 1.398 . S
C3163 C3169 1.491 . S
C3164 H3155 0.950 . S
C3164 C3163 1.398 . S
C3164 C3165 1.391 . S
C3165 H3153 0.950 . S
C3165 C3161 1.393 . S
C3165 C3164 1.391 . S
C3166 H3156 0.950 . S
C3166 C3167 1.386 . S
C3166 C3168 1.391 . S
C3167 C3166 1.386 . S
C3167 C3171 1.393 . S
C3168 H3157 0.950 . S
C3168 C3166 1.391 . S
C3168 C3169 1.400 . S
C3169 C3163 1.491 . S
C3169 C3168 1.400 . S
C3169 C3170 1.398 . S
C3170 H3158 0.950 . S
C3170 C3169 1.398 . S
C3170 C3171 1.391 . S
C3171 H3159 0.950 . S
C3171 C3167 1.393 . S
C3171 C3170 1.391 . S
H3172 C3180 0.950 . S
H3173 C3185 0.950 . S
H3174 C3182 0.950 . S
H3175 C3184 0.950 . S
H3176 C3186 0.950 . S
H3177 C3188 0.950 . S
H3178 C3190 0.950 . S
H3179 C3191 0.950 . S
C3180 H3172 0.950 . S
C3180 C3181 1.386 . S
C3180 C3182 1.391 . S
C3181 C3180 1.386 . S
C3181 C3185 1.393 . S
C3182 H3174 0.950 . S
C3182 C3180 1.391 . S
C3182 C3183 1.400 . S
C3183 C3182 1.400 . S
C3183 C3184 1.398 . S
C3183 C3189 1.491 . S
C3184 H3175 0.950 . S
C3184 C3183 1.398 . S
C3184 C3185 1.391 . S
C3185 H3173 0.950 . S
C3185 C3181 1.393 . S
C3185 C3184 1.391 . S
C3186 H3176 0.950 . S
C3186 C3187 1.386 . S
C3186 C3188 1.391 . S
C3187 C3186 1.386 . S
C3187 C3191 1.393 . S
C3188 H3177 0.950 . S
C3188 C3186 1.391 . S
C3188 C3189 1.400 . S
C3189 C3183 1.491 . S
C3189 C3188 1.400 . S
C3189 C3190 1.398 . S
C3190 H3178 0.950 . S
C3190 C3189 1.398 . S
C3190 C3191 1.391 . S
C3191 H3179 0.950 . S
C3191 C3187 1.393 . S
C3191 C3190 1.391 . S
H3192 C3200 0.950 . S
H3193 C3205 0.950 . S
H3194 C3202 0.950 . S
H3195 C3204 0.950 . S
H3196 C3206 0.950 . S
H3197 C3208 0.950 . S
H3198 C3210 0.950 . S
H3199 C3211 0.950 . S
C3200 H3192 0.950 . S
C3200 C3201 1.386 . S
C3200 C3202 1.391 . S
C3201 C3200 1.386 . S
C3201 C3205 1.393 . S
C3202 H3194 0.950 . S
C3202 C3200 1.391 . S
C3202 C3203 1.400 . S
C3203 C3202 1.400 . S
C3203 C3204 1.398 . S
C3203 C3209 1.491 . S
C3204 H3195 0.950 . S
C3204 C3203 1.398 . S
C3204 C3205 1.391 . S
C3205 H3193 0.950 . S
C3205 C3201 1.393 . S
C3205 C3204 1.391 . S
C3206 H3196 0.950 . S
C3206 C3207 1.386 . S
C3206 C3208 1.391 . S
C3207 C3206 1.386 . S
C3207 C3211 1.393 . S
C3208 H3197 0.950 . S
C3208 C3206 1.391 . S
C3208 C3209 1.400 . S
C3209 C3203 1.491 . S
C3209 C3208 1.400 . S
C3209 C3210 1.398 . S
C3210 H3198 0.950 . S
C3210 C3209 1.398 . S
C3210 C3211 1.391 . S
C3211 H3199 0.950 . S
C3211 C3207 1.393 . S
C3211 C3210 1.391 . S
H3212 C3220 0.950 . S
H3213 C3225 0.950 . S
H3214 C3222 0.950 . S
H3215 C3224 0.950 . S
H3216 C3226 0.950 . S
H3217 C3228 0.950 . S
H3218 C3230 0.950 . S
H3219 C3231 0.950 . S
C3220 H3212 0.950 . S
C3220 C3221 1.386 . S
C3220 C3222 1.391 . S
C3221 C3220 1.386 . S
C3221 C3225 1.393 . S
C3222 H3214 0.950 . S
C3222 C3220 1.391 . S
C3222 C3223 1.400 . S
C3223 C3222 1.400 . S
C3223 C3224 1.398 . S
C3223 C3229 1.491 . S
C3224 H3215 0.950 . S
C3224 C3223 1.398 . S
C3224 C3225 1.391 . S
C3225 H3213 0.950 . S
C3225 C3221 1.393 . S
C3225 C3224 1.391 . S
C3226 H3216 0.950 . S
C3226 C3227 1.386 . S
C3226 C3228 1.391 . S
C3227 C3226 1.386 . S
C3227 C3231 1.393 . S
C3228 H3217 0.950 . S
C3228 C3226 1.391 . S
C3228 C3229 1.400 . S
C3229 C3223 1.491 . S
C3229 C3228 1.400 . S
C3229 C3230 1.398 . S
C3230 H3218 0.950 . S
C3230 C3229 1.398 . S
C3230 C3231 1.391 . S
C3231 H3219 0.950 . S
C3231 C3227 1.393 . S
C3231 C3230 1.391 . S
H3232 C3240 0.950 . S
H3233 C3245 0.950 . S
H3234 C3242 0.950 . S
H3235 C3244 0.950 . S
H3236 C3246 0.950 . S
H3237 C3248 0.950 . S
H3238 C3250 0.950 . S
H3239 C3251 0.950 . S
C3240 H3232 0.950 . S
C3240 C3241 1.386 . S
C3240 C3242 1.391 . S
C3241 C3240 1.386 . S
C3241 C3245 1.393 . S
C3242 H3234 0.950 . S
C3242 C3240 1.391 . S
C3242 C3243 1.400 . S
C3243 C3242 1.400 . S
C3243 C3244 1.398 . S
C3243 C3249 1.491 . S
C3244 H3235 0.950 . S
C3244 C3243 1.398 . S
C3244 C3245 1.391 . S
C3245 H3233 0.950 . S
C3245 C3241 1.393 . S
C3245 C3244 1.391 . S
C3246 H3236 0.950 . S
C3246 C3247 1.386 . S
C3246 C3248 1.391 . S
C3247 C3246 1.386 . S
C3247 C3251 1.393 . S
C3248 H3237 0.950 . S
C3248 C3246 1.391 . S
C3248 C3249 1.400 . S
C3249 C3243 1.491 . S
C3249 C3248 1.400 . S
C3249 C3250 1.398 . S
C3250 H3238 0.950 . S
C3250 C3249 1.398 . S
C3250 C3251 1.391 . S
C3251 H3239 0.950 . S
C3251 C3247 1.393 . S
C3251 C3250 1.391 . S
H3252 C3260 0.950 . S
H3253 C3265 0.950 . S
H3254 C3262 0.950 . S
H3255 C3264 0.950 . S
H3256 C3266 0.950 . S
H3257 C3268 0.950 . S
H3258 C3270 0.950 . S
H3259 C3271 0.950 . S
C3260 H3252 0.950 . S
C3260 C3261 1.386 . S
C3260 C3262 1.391 . S
C3261 C3260 1.386 . S
C3261 C3265 1.393 . S
C3262 H3254 0.950 . S
C3262 C3260 1.391 . S
C3262 C3263 1.400 . S
C3263 C3262 1.400 . S
C3263 C3264 1.398 . S
C3263 C3269 1.491 . S
C3264 H3255 0.950 . S
C3264 C3263 1.398 . S
C3264 C3265 1.391 . S
C3265 H3253 0.950 . S
C3265 C3261 1.393 . S
C3265 C3264 1.391 . S
C3266 H3256 0.950 . S
C3266 C3267 1.386 . S
C3266 C3268 1.391 . S
C3267 C3266 1.386 . S
C3267 C3271 1.393 . S
C3268 H3257 0.950 . S
C3268 C3266 1.391 . S
C3268 C3269 1.400 . S
C3269 C3263 1.491 . S
C3269 C3268 1.400 . S
C3269 C3270 1.398 . S
C3270 H3258 0.950 . S
C3270 C3269 1.398 . S
C3270 C3271 1.391 . S
C3271 H3259 0.950 . S
C3271 C3267 1.393 . S
C3271 C3270 1.391 . S
H3272 C3280 0.950 . S
H3273 C3285 0.950 . S
H3274 C3282 0.950 . S
H3275 C3284 0.950 . S
H3276 C3286 0.950 . S
H3277 C3288 0.950 . S
H3278 C3290 0.950 . S
H3279 C3291 0.950 . S
C3280 H3272 0.950 . S
C3280 C3281 1.386 . S
C3280 C3282 1.391 . S
C3281 C3280 1.386 . S
C3281 C3285 1.393 . S
C3282 H3274 0.950 . S
C3282 C3280 1.391 . S
C3282 C3283 1.400 . S
C3283 C3282 1.400 . S
C3283 C3284 1.398 . S
C3283 C3289 1.491 . S
C3284 H3275 0.950 . S
C3284 C3283 1.398 . S
C3284 C3285 1.391 . S
C3285 H3273 0.950 . S
C3285 C3281 1.393 . S
C3285 C3284 1.391 . S
C3286 H3276 0.950 . S
C3286 C3287 1.386 . S
C3286 C3288 1.391 . S
C3287 C3286 1.386 . S
C3287 C3291 1.393 . S
C3288 H3277 0.950 . S
C3288 C3286 1.391 . S
C3288 C3289 1.400 . S
C3289 C3283 1.491 . S
C3289 C3288 1.400 . S
C3289 C3290 1.398 . S
C3290 H3278 0.950 . S
C3290 C3289 1.398 . S
C3290 C3291 1.391 . S
C3291 H3279 0.950 . S
C3291 C3287 1.393 . S
C3291 C3290 1.391 . S
H3292 C3300 0.950 . S
H3293 C3305 0.950 . S
H3294 C3302 0.950 . S
H3295 C3304 0.950 . S
H3296 C3306 0.950 . S
H3297 C3308 0.950 . S
H3298 C3310 0.950 . S
H3299 C3311 0.950 . S
C3300 H3292 0.950 . S
C3300 C3301 1.386 . S
C3300 C3302 1.391 . S
C3301 C3300 1.386 . S
C3301 C3305 1.393 . S
C3302 H3294 0.950 . S
C3302 C3300 1.391 . S
C3302 C3303 1.400 . S
C3303 C3302 1.400 . S
C3303 C3304 1.398 . S
C3303 C3309 1.491 . S
C3304 H3295 0.950 . S
C3304 C3303 1.398 . S
C3304 C3305 1.391 . S
C3305 H3293 0.950 . S
C3305 C3301 1.393 . S
C3305 C3304 1.391 . S
C3306 H3296 0.950 . S
C3306 C3307 1.386 . S
C3306 C3308 1.391 . S
C3307 C3306 1.386 . S
C3307 C3311 1.393 . S
C3308 H3297 0.950 . S
C3308 C3306 1.391 . S
C3308 C3309 1.400 . S
C3309 C3303 1.491 . S
C3309 C3308 1.400 . S
C3309 C3310 1.398 . S
C3310 H3298 0.950 . S
C3310 C3309 1.398 . S
C3310 C3311 1.391 . S
C3311 H3299 0.950 . S
C3311 C3307 1.393 . S
C3311 C3310 1.391 . S
H3312 C3320 0.950 . S
H3313 C3325 0.950 . S
H3314 C3322 0.950 . S
H3315 C3324 0.950 . S
H3316 C3326 0.950 . S
H3317 C3328 0.950 . S
H3318 C3330 0.950 . S
H3319 C3331 0.950 . S
C3320 H3312 0.950 . S
C3320 C3321 1.386 . S
C3320 C3322 1.391 . S
C3321 C3320 1.386 . S
C3321 C3325 1.393 . S
C3322 H3314 0.950 . S
C3322 C3320 1.391 . S
C3322 C3323 1.400 . S
C3323 C3322 1.400 . S
C3323 C3324 1.398 . S
C3323 C3329 1.491 . S
C3324 H3315 0.950 . S
C3324 C3323 1.398 . S
C3324 C3325 1.391 . S
C3325 H3313 0.950 . S
C3325 C3321 1.393 . S
C3325 C3324 1.391 . S
C3326 H3316 0.950 . S
C3326 C3327 1.386 . S
C3326 C3328 1.391 . S
C3327 C3326 1.386 . S
C3327 C3331 1.393 . S
C3328 H3317 0.950 . S
C3328 C3326 1.391 . S
C3328 C3329 1.400 . S
C3329 C3323 1.491 . S
C3329 C3328 1.400 . S
C3329 C3330 1.398 . S
C3330 H3318 0.950 . S
C3330 C3329 1.398 . S
C3330 C3331 1.391 . S
C3331 H3319 0.950 . S
C3331 C3327 1.393 . S
C3331 C3330 1.391 . S
H3332 C3340 0.950 . S
H3333 C3345 0.950 . S
H3334 C3342 0.950 . S
H3335 C3344 0.950 . S
H3336 C3346 0.950 . S
H3337 C3348 0.950 . S
H3338 C3350 0.950 . S
H3339 C3351 0.950 . S
C3340 H3332 0.950 . S
C3340 C3341 1.386 . S
C3340 C3342 1.391 . S
C3341 C3340 1.386 . S
C3341 C3345 1.393 . S
C3342 H3334 0.950 . S
C3342 C3340 1.391 . S
C3342 C3343 1.400 . S
C3343 C3342 1.400 . S
C3343 C3344 1.398 . S
C3343 C3349 1.491 1_556 S
C3344 H3335 0.950 . S
C3344 C3343 1.398 . S
C3344 C3345 1.391 . S
C3345 H3333 0.950 . S
C3345 C3341 1.393 . S
C3345 C3344 1.391 . S
C3346 H3336 0.950 . S
C3346 C3347 1.386 . S
C3346 C3348 1.391 . S
C3347 C3346 1.386 . S
C3347 C3351 1.393 . S
C3348 H3337 0.950 . S
C3348 C3346 1.391 . S
C3348 C3349 1.400 . S
C3349 C3343 1.491 1_554 S
C3349 C3348 1.400 . S
C3349 C3350 1.398 . S
C3350 H3338 0.950 . S
C3350 C3349 1.398 . S
C3350 C3351 1.391 . S
C3351 H3339 0.950 . S
C3351 C3347 1.393 . S
C3351 C3350 1.391 . S
H3352 C3360 0.950 . S
H3353 C3365 0.950 . S
H3354 C3362 0.950 . S
H3355 C3364 0.950 . S
H3356 C3366 0.950 . S
H3357 C3368 0.950 . S
H3358 C3370 0.950 . S
H3359 C3371 0.950 . S
C3360 H3352 0.950 . S
C3360 C3361 1.386 . S
C3360 C3362 1.391 . S
C3361 C3360 1.386 . S
C3361 C3365 1.393 . S
C3362 H3354 0.950 . S
C3362 C3360 1.391 . S
C3362 C3363 1.400 . S
C3363 C3362 1.400 . S
C3363 C3364 1.398 . S
C3363 C3369 1.491 . S
C3364 H3355 0.950 . S
C3364 C3363 1.398 . S
C3364 C3365 1.391 . S
C3365 H3353 0.950 . S
C3365 C3361 1.393 . S
C3365 C3364 1.391 . S
C3366 H3356 0.950 . S
C3366 C3367 1.386 . S
C3366 C3368 1.391 . S
C3367 C3366 1.386 . S
C3367 C3371 1.393 . S
C3368 H3357 0.950 . S
C3368 C3366 1.391 . S
C3368 C3369 1.400 . S
C3369 C3363 1.491 . S
C3369 C3368 1.400 . S
C3369 C3370 1.398 . S
C3370 H3358 0.950 . S
C3370 C3369 1.398 . S
C3370 C3371 1.391 . S
C3371 H3359 0.950 . S
C3371 C3367 1.393 . S
C3371 C3370 1.391 . S
H3372 C3380 0.950 . S
H3373 C3385 0.950 . S
H3374 C3382 0.950 . S
H3375 C3384 0.950 . S
H3376 C3386 0.950 . S
H3377 C3388 0.950 . S
H3378 C3390 0.950 . S
H3379 C3391 0.950 . S
C3380 H3372 0.950 . S
C3380 C3381 1.386 . S
C3380 C3382 1.391 . S
C3381 C3380 1.386 . S
C3381 C3385 1.393 . S
C3382 H3374 0.950 . S
C3382 C3380 1.391 . S
C3382 C3383 1.400 . S
C3383 C3382 1.400 . S
C3383 C3384 1.398 . S
C3383 C3389 1.491 1_556 S
C3384 H3375 0.950 . S
C3384 C3383 1.398 . S
C3384 C3385 1.391 . S
C3385 H3373 0.950 . S
C3385 C3381 1.393 . S
C3385 C3384 1.391 . S
C3386 H3376 0.950 . S
C3386 C3387 1.386 . S
C3386 C3388 1.391 . S
C3387 C3386 1.386 . S
C3387 C3391 1.393 . S
C3388 H3377 0.950 . S
C3388 C3386 1.391 . S
C3388 C3389 1.400 . S
C3389 C3383 1.491 1_554 S
C3389 C3388 1.400 . S
C3389 C3390 1.398 . S
C3390 H3378 0.950 . S
C3390 C3389 1.398 . S
C3390 C3391 1.391 . S
C3391 H3379 0.950 . S
C3391 C3387 1.393 . S
C3391 C3390 1.391 . S
H3392 C3400 0.950 . S
H3393 C3405 0.950 . S
H3394 C3402 0.950 . S
H3395 C3404 0.950 . S
H3396 C3406 0.950 . S
H3397 C3408 0.950 . S
H3398 C3410 0.950 . S
H3399 C3411 0.950 . S
C3400 H3392 0.950 . S
C3400 C3401 1.386 . S
C3400 C3402 1.391 . S
C3401 C3400 1.386 . S
C3401 C3405 1.393 . S
C3402 H3394 0.950 . S
C3402 C3400 1.391 . S
C3402 C3403 1.400 . S
C3403 C3402 1.400 . S
C3403 C3404 1.398 . S
C3403 C3409 1.491 . S
C3404 H3395 0.950 . S
C3404 C3403 1.398 . S
C3404 C3405 1.391 . S
C3405 H3393 0.950 . S
C3405 C3401 1.393 . S
C3405 C3404 1.391 . S
C3406 H3396 0.950 . S
C3406 C3407 1.386 . S
C3406 C3408 1.391 . S
C3407 C3406 1.386 . S
C3407 C3411 1.393 . S
C3408 H3397 0.950 . S
C3408 C3406 1.391 . S
C3408 C3409 1.400 . S
C3409 C3403 1.491 . S
C3409 C3408 1.400 . S
C3409 C3410 1.398 . S
C3410 H3398 0.950 . S
C3410 C3409 1.398 . S
C3410 C3411 1.391 . S
C3411 H3399 0.950 . S
C3411 C3407 1.393 . S
C3411 C3410 1.391 . S
H3412 C3420 0.950 . S
H3413 C3425 0.950 . S
H3414 C3422 0.950 . S
H3415 C3424 0.974 . S
H3416 C3426 0.950 . S
H3417 C3428 0.950 . S
H3418 C3430 0.950 . S
H3419 C3431 0.950 . S
C3420 H3412 0.950 . S
C3420 C3421 1.386 . S
C3420 C3422 1.391 . S
C3421 C3420 1.386 . S
C3421 C3425 1.393 . S
C3422 H3414 0.950 . S
C3422 C3420 1.391 . S
C3422 C3423 1.400 1_556 S
C3423 C3422 1.400 1_554 S
C3423 C3424 1.398 1_554 S
C3423 C3429 1.491 . S
C3424 H3415 0.974 . S
C3424 C3423 1.398 1_556 S
C3424 C3425 1.391 . S
C3425 H3413 0.950 . S
C3425 C3421 1.393 . S
C3425 C3424 1.391 . S
C3426 H3416 0.950 . S
C3426 C3427 1.386 . S
C3426 C3428 1.391 . S
C3427 C3426 1.386 . S
C3427 C3431 1.393 . S
C3428 H3417 0.950 . S
C3428 C3426 1.391 . S
C3428 C3429 1.400 . S
C3429 C3423 1.491 . S
C3429 C3428 1.400 . S
C3429 C3430 1.398 . S
C3430 H3418 0.950 . S
C3430 C3429 1.398 . S
C3430 C3431 1.391 . S
C3431 H3419 0.950 . S
C3431 C3427 1.393 . S
C3431 C3430 1.391 . S
H3432 C3440 0.950 . S
H3433 C3445 0.950 . S
H3434 C3442 0.950 . S
H3435 C3444 0.950 . S
H3436 C3446 0.950 . S
H3437 C3448 0.950 . S
H3438 C3450 0.950 . S
H3439 C3451 0.950 . S
C3440 H3432 0.950 . S
C3440 C3441 1.386 . S
C3440 C3442 1.391 . S
C3441 C3440 1.386 . S
C3441 C3445 1.393 . S
C3442 H3434 0.950 . S
C3442 C3440 1.391 . S
C3442 C3443 1.400 . S
C3443 C3442 1.400 . S
C3443 C3444 1.398 . S
C3443 C3449 1.491 . S
C3444 H3435 0.950 . S
C3444 C3443 1.398 . S
C3444 C3445 1.391 . S
C3445 H3433 0.950 . S
C3445 C3441 1.393 . S
C3445 C3444 1.391 . S
C3446 H3436 0.950 . S
C3446 C3447 1.386 . S
C3446 C3448 1.391 . S
C3447 C3446 1.386 . S
C3447 C3451 1.393 . S
C3448 H3437 0.950 . S
C3448 C3446 1.391 . S
C3448 C3449 1.400 . S
C3449 C3443 1.491 . S
C3449 C3448 1.400 . S
C3449 C3450 1.398 . S
C3450 H3438 0.950 . S
C3450 C3449 1.398 . S
C3450 C3451 1.391 . S
C3451 H3439 0.950 . S
C3451 C3447 1.393 . S
C3451 C3450 1.391 . S
H3452 C3460 0.950 . S
H3453 C3465 0.950 . S
H3454 C3462 0.950 . S
H3455 C3464 0.950 . S
H3456 C3466 0.950 . S
H3457 C3468 0.950 . S
H3458 C3470 0.950 . S
H3459 C3471 0.950 . S
C3460 H3452 0.950 . S
C3460 C3461 1.386 . S
C3460 C3462 1.391 . S
C3461 C3460 1.386 . S
C3461 C3465 1.393 . S
C3462 H3454 0.950 . S
C3462 C3460 1.391 . S
C3462 C3463 1.400 . S
C3463 C3462 1.400 . S
C3463 C3464 1.398 . S
C3463 C3469 1.491 1_556 S
C3464 H3455 0.950 . S
C3464 C3463 1.398 . S
C3464 C3465 1.391 . S
C3465 H3453 0.950 . S
C3465 C3461 1.393 . S
C3465 C3464 1.391 . S
C3466 H3456 0.950 . S
C3466 C3467 1.386 . S
C3466 C3468 1.391 . S
C3467 C3466 1.386 . S
C3467 C3471 1.393 . S
C3468 H3457 0.950 . S
C3468 C3466 1.391 . S
C3468 C3469 1.400 . S
C3469 C3463 1.491 1_554 S
C3469 C3468 1.400 . S
C3469 C3470 1.398 . S
C3470 H3458 0.950 . S
C3470 C3469 1.398 . S
C3470 C3471 1.391 . S
C3471 H3459 0.950 . S
C3471 C3467 1.393 . S
C3471 C3470 1.391 . S
H3472 C3480 0.950 . S
H3473 C3485 0.950 . S
H3474 C3482 0.950 . S
H3475 C3484 0.950 . S
H3476 C3486 0.950 . S
H3477 C3488 0.950 . S
H3478 C3490 0.950 . S
H3479 C3491 0.950 . S
C3480 H3472 0.950 . S
C3480 C3481 1.386 . S
C3480 C3482 1.391 . S
C3481 C3480 1.386 . S
C3481 C3485 1.393 . S
C3482 H3474 0.950 . S
C3482 C3480 1.391 . S
C3482 C3483 1.400 . S
C3483 C3482 1.400 . S
C3483 C3484 1.398 . S
C3483 C3489 1.491 . S
C3484 H3475 0.950 . S
C3484 C3483 1.398 . S
C3484 C3485 1.391 . S
C3485 H3473 0.950 . S
C3485 C3481 1.393 . S
C3485 C3484 1.391 . S
C3486 H3476 0.950 . S
C3486 C3487 1.386 . S
C3486 C3488 1.391 . S
C3487 C3486 1.386 . S
C3487 C3491 1.393 . S
C3488 H3477 0.950 . S
C3488 C3486 1.391 . S
C3488 C3489 1.400 . S
C3489 C3483 1.491 . S
C3489 C3488 1.400 . S
C3489 C3490 1.398 . S
C3490 H3478 0.950 . S
C3490 C3489 1.398 . S
C3490 C3491 1.391 . S
C3491 H3479 0.950 . S
C3491 C3487 1.393 . S
C3491 C3490 1.391 . S
H3492 C3500 0.950 . S
H3493 C3505 0.950 . S
H3494 C3502 0.950 . S
H3495 C3504 0.950 . S
H3496 C3506 0.950 . S
H3497 C3508 0.950 . S
H3498 C3510 0.950 . S
H3499 C3511 0.950 . S
C3500 H3492 0.950 . S
C3500 C3501 1.386 . S
C3500 C3502 1.391 . S
C3501 C3500 1.386 . S
C3501 C3505 1.393 . S
C3502 H3494 0.950 . S
C3502 C3500 1.391 . S
C3502 C3503 1.400 . S
C3503 C3502 1.400 . S
C3503 C3504 1.398 . S
C3503 C3509 1.473 1_565 S
C3504 H3495 0.950 . S
C3504 C3503 1.398 . S
C3504 C3505 1.391 . S
C3505 H3493 0.950 . S
C3505 C3501 1.393 . S
C3505 C3504 1.391 . S
C3506 H3496 0.950 . S
C3506 C3507 1.386 . S
C3506 C3508 1.391 . S
C3507 C3506 1.386 . S
C3507 C3511 1.393 . S
C3508 H3497 0.950 . S
C3508 C3506 1.391 . S
C3508 C3509 1.410 . S
C3509 C3503 1.473 1_545 S
C3509 C3508 1.410 . S
C3509 C3510 1.407 . S
C3510 H3498 0.950 . S
C3510 C3509 1.407 . S
C3510 C3511 1.391 . S
C3511 H3499 0.950 . S
C3511 C3507 1.393 . S
C3511 C3510 1.391 . S
H3512 C3520 0.950 . S
H3513 C3525 0.950 . S
H3514 C3522 0.950 . S
H3515 C3524 0.950 . S
H3516 C3526 0.950 . S
H3517 C3528 0.950 . S
H3518 C3530 0.950 . S
H3519 C3531 0.950 . S
C3520 H3512 0.950 . S
C3520 C3521 1.386 . S
C3520 C3522 1.391 . S
C3521 C3520 1.386 . S
C3521 C3525 1.393 . S
C3522 H3514 0.950 . S
C3522 C3520 1.391 . S
C3522 C3523 1.400 . S
C3523 C3522 1.400 . S
C3523 C3524 1.398 . S
C3523 C3529 1.491 . S
C3524 H3515 0.950 . S
C3524 C3523 1.398 . S
C3524 C3525 1.391 . S
C3525 H3513 0.950 . S
C3525 C3521 1.393 . S
C3525 C3524 1.391 . S
C3526 H3516 0.950 . S
C3526 C3527 1.386 . S
C3526 C3528 1.391 . S
C3527 C3526 1.386 . S
C3527 C3531 1.393 . S
C3528 H3517 0.950 . S
C3528 C3526 1.391 . S
C3528 C3529 1.400 . S
C3529 C3523 1.491 . S
C3529 C3528 1.400 . S
C3529 C3530 1.398 . S
C3530 H3518 0.950 . S
C3530 C3529 1.398 . S
C3530 C3531 1.391 . S
C3531 H3519 0.950 . S
C3531 C3527 1.393 . S
C3531 C3530 1.391 . S
H3532 C3540 0.950 . S
H3533 C3545 0.950 . S
H3534 C3542 0.950 . S
H3535 C3544 0.950 . S
H3536 C3546 0.950 . S
H3537 C3548 0.950 . S
H3538 C3550 0.950 . S
H3539 C3551 0.950 . S
C3540 H3532 0.950 . S
C3540 C3541 1.386 . S
C3540 C3542 1.391 . S
C3541 C3540 1.386 . S
C3541 C3545 1.393 . S
C3542 H3534 0.950 . S
C3542 C3540 1.391 . S
C3542 C3543 1.400 . S
C3543 C3542 1.400 . S
C3543 C3544 1.398 . S
C3543 C3549 1.491 1_545 S
C3544 H3535 0.950 . S
C3544 C3543 1.398 . S
C3544 C3545 1.391 . S
C3545 H3533 0.950 . S
C3545 C3541 1.393 . S
C3545 C3544 1.391 . S
C3546 H3536 0.950 . S
C3546 C3547 1.386 . S
C3546 C3548 1.391 . S
C3547 C3546 1.386 . S
C3547 C3551 1.393 . S
C3548 H3537 0.950 . S
C3548 C3546 1.391 . S
C3548 C3549 1.400 . S
C3549 C3543 1.491 1_565 S
C3549 C3548 1.400 . S
C3549 C3550 1.398 . S
C3550 H3538 0.950 . S
C3550 C3549 1.398 . S
C3550 C3551 1.391 . S
C3551 H3539 0.950 . S
C3551 C3547 1.393 . S
C3551 C3550 1.391 . S
H3552 C3560 0.950 . S
H3553 C3565 0.950 . S
H3554 C3562 0.950 . S
H3555 C3564 0.950 . S
H3556 C3566 0.950 . S
H3557 C3568 0.950 . S
H3558 C3570 0.950 . S
H3559 C3571 0.950 . S
C3560 H3552 0.950 . S
C3560 C3561 1.386 . S
C3560 C3562 1.391 . S
C3561 C3560 1.386 . S
C3561 C3565 1.393 . S
C3562 H3554 0.950 . S
C3562 C3560 1.391 . S
C3562 C3563 1.400 . S
C3563 C3562 1.400 . S
C3563 C3564 1.398 . S
C3563 C3569 1.491 . S
C3564 H3555 0.950 . S
C3564 C3563 1.398 . S
C3564 C3565 1.391 . S
C3565 H3553 0.950 . S
C3565 C3561 1.393 . S
C3565 C3564 1.391 . S
C3566 H3556 0.950 . S
C3566 C3567 1.386 . S
C3566 C3568 1.391 . S
C3567 C3566 1.386 . S
C3567 C3571 1.393 . S
C3568 H3557 0.950 . S
C3568 C3566 1.391 . S
C3568 C3569 1.400 . S
C3569 C3563 1.491 . S
C3569 C3568 1.400 . S
C3569 C3570 1.398 . S
C3570 H3558 0.950 . S
C3570 C3569 1.398 . S
C3570 C3571 1.391 . S
C3571 H3559 0.950 . S
C3571 C3567 1.393 . S
C3571 C3570 1.391 . S
H3572 C3580 0.950 . S
H3573 C3585 0.950 . S
H3574 C3582 0.950 . S
H3575 C3584 0.950 . S
H3576 C3586 0.950 . S
H3577 C3588 0.950 . S
H3578 C3590 0.950 . S
H3579 C3591 0.950 . S
C3580 H3572 0.950 . S
C3580 C3581 1.386 . S
C3580 C3582 1.391 . S
C3581 C3580 1.386 . S
C3581 C3585 1.393 . S
C3582 H3574 0.950 . S
C3582 C3580 1.391 . S
C3582 C3583 1.400 . S
C3583 C3582 1.400 . S
C3583 C3584 1.398 . S
C3583 C3589 1.491 1_565 S
C3584 H3575 0.950 . S
C3584 C3583 1.398 . S
C3584 C3585 1.391 . S
C3585 H3573 0.950 . S
C3585 C3581 1.393 . S
C3585 C3584 1.391 . S
C3586 H3576 0.950 . S
C3586 C3587 1.386 . S
C3586 C3588 1.391 . S
C3587 C3586 1.386 . S
C3587 C3591 1.393 . S
C3588 H3577 0.950 . S
C3588 C3586 1.391 . S
C3588 C3589 1.400 . S
C3589 C3583 1.491 1_545 S
C3589 C3588 1.400 . S
C3589 C3590 1.398 . S
C3590 H3578 0.950 . S
C3590 C3589 1.398 . S
C3590 C3591 1.391 . S
C3591 H3579 0.950 . S
C3591 C3587 1.393 . S
C3591 C3590 1.391 . S
H3592 C3600 0.950 . S
H3593 C3605 0.950 . S
H3594 C3602 0.950 . S
H3595 C3604 0.950 . S
H3596 C3606 0.950 . S
H3597 C3608 0.950 . S
H3598 C3610 0.950 . S
H3599 C3611 0.950 . S
C3600 H3592 0.950 . S
C3600 C3601 1.386 . S
C3600 C3602 1.391 . S
C3601 C3600 1.386 . S
C3601 C3605 1.393 . S
C3602 H3594 0.950 . S
C3602 C3600 1.391 . S
C3602 C3603 1.400 . S
C3603 C3602 1.400 . S
C3603 C3604 1.398 . S
C3603 C3609 1.491 . S
C3604 H3595 0.950 . S
C3604 C3603 1.398 . S
C3604 C3605 1.391 . S
C3605 H3593 0.950 . S
C3605 C3601 1.393 . S
C3605 C3604 1.391 . S
C3606 H3596 0.950 . S
C3606 C3607 1.386 . S
C3606 C3608 1.391 . S
C3607 C3606 1.386 . S
C3607 C3611 1.393 . S
C3608 H3597 0.950 . S
C3608 C3606 1.391 . S
C3608 C3609 1.400 . S
C3609 C3603 1.491 . S
C3609 C3608 1.400 . S
C3609 C3610 1.398 . S
C3610 H3598 0.950 . S
C3610 C3609 1.398 . S
C3610 C3611 1.391 . S
C3611 H3599 0.950 . S
C3611 C3607 1.393 . S
C3611 C3610 1.391 . S
H3612 C3620 0.950 . S
H3613 C3625 0.950 . S
H3614 C3622 0.950 . S
H3615 C3624 0.950 . S
H3616 C3626 0.950 . S
H3617 C3628 0.950 . S
H3618 C3630 0.950 . S
H3619 C3631 0.950 . S
C3620 H3612 0.950 . S
C3620 C3621 1.386 . S
C3620 C3622 1.391 . S
C3621 C3620 1.386 . S
C3621 C3625 1.393 . S
C3622 H3614 0.950 . S
C3622 C3620 1.391 . S
C3622 C3623 1.400 . S
C3623 C3622 1.400 . S
C3623 C3624 1.398 . S
C3623 C3629 1.491 1_565 S
C3624 H3615 0.950 . S
C3624 C3623 1.398 . S
C3624 C3625 1.391 . S
C3625 H3613 0.950 . S
C3625 C3621 1.393 . S
C3625 C3624 1.391 . S
C3626 H3616 0.950 . S
C3626 C3627 1.386 . S
C3626 C3628 1.391 . S
C3627 C3626 1.386 . S
C3627 C3631 1.393 . S
C3628 H3617 0.950 . S
C3628 C3626 1.391 . S
C3628 C3629 1.400 . S
C3629 C3623 1.491 1_545 S
C3629 C3628 1.400 . S
C3629 C3630 1.398 . S
C3630 H3618 0.950 . S
C3630 C3629 1.398 . S
C3630 C3631 1.391 . S
C3631 H3619 0.950 . S
C3631 C3627 1.393 . S
C3631 C3630 1.391 . S
H3632 C3640 0.950 . S
H3633 C3645 0.950 . S
H3634 C3642 0.950 . S
H3635 C3644 0.950 . S
H3636 C3646 0.950 . S
H3637 C3648 0.950 . S
H3638 C3650 0.950 . S
H3639 C3651 0.950 . S
C3640 H3632 0.950 . S
C3640 C3641 1.386 . S
C3640 C3642 1.391 . S
C3641 C3640 1.386 . S
C3641 C3645 1.393 . S
C3642 H3634 0.950 . S
C3642 C3640 1.391 . S
C3642 C3643 1.400 . S
C3643 C3642 1.400 . S
C3643 C3644 1.398 . S
C3643 C3649 1.491 . S
C3644 H3635 0.950 . S
C3644 C3643 1.398 . S
C3644 C3645 1.391 . S
C3645 H3633 0.950 . S
C3645 C3641 1.393 . S
C3645 C3644 1.391 . S
C3646 H3636 0.950 . S
C3646 C3647 1.386 . S
C3646 C3648 1.391 . S
C3647 C3646 1.386 . S
C3647 C3651 1.393 . S
C3648 H3637 0.950 . S
C3648 C3646 1.391 . S
C3648 C3649 1.400 . S
C3649 C3643 1.491 . S
C3649 C3648 1.400 . S
C3649 C3650 1.398 . S
C3650 H3638 0.950 . S
C3650 C3649 1.398 . S
C3650 C3651 1.391 . S
C3651 H3639 0.950 . S
C3651 C3647 1.393 . S
C3651 C3650 1.391 . S
H3652 C3660 0.950 . S
H3653 C3665 0.950 . S
H3654 C3662 0.950 . S
H3655 C3664 0.950 . S
H3656 C3666 0.950 . S
H3657 C3668 0.950 . S
H3658 C3670 0.950 . S
H3659 C3671 0.950 . S
C3660 H3652 0.950 . S
C3660 C3661 1.386 . S
C3660 C3662 1.391 . S
C3661 C3660 1.386 . S
C3661 C3665 1.393 . S
C3662 H3654 0.950 . S
C3662 C3660 1.391 . S
C3662 C3663 1.400 . S
C3663 C3662 1.400 . S
C3663 C3664 1.398 . S
C3663 C3669 1.491 . S
C3664 H3655 0.950 . S
C3664 C3663 1.398 . S
C3664 C3665 1.391 . S
C3665 H3653 0.950 . S
C3665 C3661 1.393 . S
C3665 C3664 1.391 . S
C3666 H3656 0.950 . S
C3666 C3667 1.386 . S
C3666 C3668 1.391 . S
C3667 C3666 1.386 . S
C3667 C3671 1.393 . S
C3668 H3657 0.950 . S
C3668 C3666 1.391 . S
C3668 C3669 1.400 . S
C3669 C3663 1.491 . S
C3669 C3668 1.400 . S
C3669 C3670 1.398 . S
C3670 H3658 0.950 . S
C3670 C3669 1.398 . S
C3670 C3671 1.391 . S
C3671 H3659 0.950 . S
C3671 C3667 1.393 . S
C3671 C3670 1.391 . S
H3672 C3680 0.950 . S
H3673 C3685 0.950 . S
H3674 C3682 0.950 . S
H3675 C3684 0.950 . S
H3676 C3686 0.950 . S
H3677 C3688 0.950 1_455 S
H3678 C3690 0.950 1_455 S
H3679 C3691 0.950 . S
C3680 H3672 0.950 . S
C3680 C3681 1.386 . S
C3680 C3682 1.391 . S
C3681 C3680 1.386 . S
C3681 C3685 1.393 . S
C3682 H3674 0.950 . S
C3682 C3680 1.391 . S
C3682 C3683 1.400 . S
C3683 C3682 1.400 . S
C3683 C3684 1.398 . S
C3683 C3689 1.491 . S
C3684 H3675 0.950 . S
C3684 C3683 1.398 . S
C3684 C3685 1.391 . S
C3685 H3673 0.950 . S
C3685 C3681 1.393 . S
C3685 C3684 1.391 . S
C3686 H3676 0.950 . S
C3686 C3687 1.386 . S
C3686 C3688 1.391 . S
C3687 C3686 1.386 . S
C3687 C3691 1.393 . S
C3688 H3677 0.950 1_655 S
C3688 C3686 1.391 . S
C3688 C3689 1.400 1_655 S
C3689 C3683 1.491 . S
C3689 C3688 1.400 1_455 S
C3689 C3690 1.398 1_455 S
C3690 H3678 0.950 1_655 S
C3690 C3689 1.398 1_655 S
C3690 C3691 1.391 . S
C3691 H3679 0.950 . S
C3691 C3687 1.393 . S
C3691 C3690 1.391 . S
H3692 C3700 0.950 . S
H3693 C3705 0.950 . S
H3694 C3702 0.950 . S
H3695 C3704 0.950 . S
H3696 C3706 0.950 . S
H3697 C3708 0.950 . S
H3698 C3710 0.950 . S
H3699 C3711 0.950 . S
C3700 H3692 0.950 . S
C3700 C3701 1.386 . S
C3700 C3702 1.391 . S
C3701 C3700 1.386 . S
C3701 C3705 1.393 . S
C3702 H3694 0.950 . S
C3702 C3700 1.391 . S
C3702 C3703 1.400 . S
C3703 C3702 1.400 . S
C3703 C3704 1.398 . S
C3703 C3709 1.491 . S
C3704 H3695 0.950 . S
C3704 C3703 1.398 . S
C3704 C3705 1.391 . S
C3705 H3693 0.950 . S
C3705 C3701 1.393 . S
C3705 C3704 1.391 . S
C3706 H3696 0.950 . S
C3706 C3707 1.386 . S
C3706 C3708 1.391 . S
C3707 C3706 1.386 . S
C3707 C3711 1.393 . S
C3708 H3697 0.950 . S
C3708 C3706 1.391 . S
C3708 C3709 1.400 . S
C3709 C3703 1.491 . S
C3709 C3708 1.400 . S
C3709 C3710 1.398 . S
C3710 H3698 0.950 . S
C3710 C3709 1.398 . S
C3710 C3711 1.391 . S
C3711 H3699 0.950 . S
C3711 C3707 1.393 . S
C3711 C3710 1.391 . S
H3712 C3720 0.950 . S
H3713 C3725 0.950 . S
H3714 C3722 0.950 1_655 S
H3715 C3724 0.950 . S
H3716 C3726 0.950 . S
H3717 C3728 0.950 . S
H3718 C3730 0.950 . S
H3719 C3731 0.950 . S
C3720 H3712 0.950 . S
C3720 C3721 1.386 . S
C3720 C3722 1.391 . S
C3721 C3720 1.386 . S
C3721 C3725 1.393 . S
C3722 H3714 0.950 1_455 S
C3722 C3720 1.391 . S
C3722 C3723 1.400 1_455 S
C3723 C3722 1.400 1_655 S
C3723 C3724 1.398 1_655 S
C3723 C3729 1.491 . S
C3724 H3715 0.950 . S
C3724 C3723 1.398 1_455 S
C3724 C3725 1.391 . S
C3725 H3713 0.950 . S
C3725 C3721 1.393 . S
C3725 C3724 1.391 . S
C3726 H3716 0.950 . S
C3726 C3727 1.386 . S
C3726 C3728 1.391 . S
C3727 C3726 1.386 . S
C3727 C3731 1.393 . S
C3728 H3717 0.950 . S
C3728 C3726 1.391 . S
C3728 C3729 1.400 . S
C3729 C3723 1.491 . S
C3729 C3728 1.400 . S
C3729 C3730 1.398 . S
C3730 H3718 0.950 . S
C3730 C3729 1.398 . S
C3730 C3731 1.391 . S
C3731 H3719 0.950 . S
C3731 C3727 1.393 . S
C3731 C3730 1.391 . S
H3732 C3740 0.950 . S
H3733 C3745 0.950 . S
H3734 C3742 0.950 . S
H3735 C3744 0.950 . S
H3736 C3746 0.950 . S
H3737 C3748 0.950 . S
H3738 C3750 0.950 . S
H3739 C3751 0.950 . S
C3740 H3732 0.950 . S
C3740 C3741 1.386 . S
C3740 C3742 1.391 . S
C3741 C3740 1.386 . S
C3741 C3745 1.393 . S
C3742 H3734 0.950 . S
C3742 C3740 1.391 . S
C3742 C3743 1.400 . S
C3743 C3742 1.400 . S
C3743 C3744 1.398 . S
C3743 C3749 1.491 . S
C3744 H3735 0.950 . S
C3744 C3743 1.398 . S
C3744 C3745 1.391 . S
C3745 H3733 0.950 . S
C3745 C3741 1.393 . S
C3745 C3744 1.391 . S
C3746 H3736 0.950 . S
C3746 C3747 1.386 . S
C3746 C3748 1.391 . S
C3747 C3746 1.386 . S
C3747 C3751 1.393 . S
C3748 H3737 0.950 . S
C3748 C3746 1.391 . S
C3748 C3749 1.400 . S
C3749 C3743 1.491 . S
C3749 C3748 1.400 . S
C3749 C3750 1.398 . S
C3750 H3738 0.950 . S
C3750 C3749 1.398 . S
C3750 C3751 1.391 . S
C3751 H3739 0.950 . S
C3751 C3747 1.393 . S
C3751 C3750 1.391 . S
H3752 C3760 0.950 . S
H3753 C3765 0.950 . S
H3754 C3762 0.950 . S
H3755 C3764 0.950 . S
H3756 C3766 0.950 . S
H3757 C3768 0.950 . S
H3758 C3770 0.950 1_655 S
H3759 C3771 0.950 . S
C3760 H3752 0.950 . S
C3760 C3761 1.386 . S
C3760 C3762 1.391 . S
C3761 C3760 1.386 . S
C3761 C3765 1.393 . S
C3762 H3754 0.950 . S
C3762 C3760 1.391 . S
C3762 C3763 1.400 . S
C3763 C3762 1.400 . S
C3763 C3764 1.398 . S
C3763 C3769 1.491 . S
C3764 H3755 0.950 . S
C3764 C3763 1.398 . S
C3764 C3765 1.391 . S
C3765 H3753 0.950 . S
C3765 C3761 1.393 . S
C3765 C3764 1.391 . S
C3766 H3756 0.950 . S
C3766 C3767 1.386 . S
C3766 C3768 1.391 . S
C3767 C3766 1.386 . S
C3767 C3771 1.393 . S
C3768 H3757 0.950 . S
C3768 C3766 1.391 . S
C3768 C3769 1.400 1_455 S
C3769 C3763 1.491 . S
C3769 C3768 1.400 1_655 S
C3769 C3770 1.398 1_655 S
C3770 H3758 0.950 1_455 S
C3770 C3769 1.398 1_455 S
C3770 C3771 1.391 . S
C3771 H3759 0.950 . S
C3771 C3767 1.393 . S
C3771 C3770 1.391 . S
H3772 C3780 0.950 . S
H3773 C3785 0.950 . S
H3774 C3782 0.950 . S
H3775 C3784 0.950 . S
H3776 C3786 0.950 . S
H3777 C3788 0.950 1_455 S
H3778 C3790 0.962 . S
H3779 C3791 0.950 . S
C3780 H3772 0.950 . S
C3780 C3781 1.386 . S
C3780 C3782 1.391 . S
C3781 C3780 1.386 . S
C3781 C3785 1.393 . S
C3782 H3774 0.950 . S
C3782 C3780 1.391 . S
C3782 C3783 1.400 . S
C3783 C3782 1.400 . S
C3783 C3784 1.398 . S
C3783 C3789 1.491 . S
C3784 H3775 0.950 . S
C3784 C3783 1.398 . S
C3784 C3785 1.391 . S
C3785 H3773 0.950 . S
C3785 C3781 1.393 . S
C3785 C3784 1.391 . S
C3786 H3776 0.950 . S
C3786 C3787 1.386 . S
C3786 C3788 1.391 . S
C3787 C3786 1.386 . S
C3787 C3791 1.393 . S
C3788 H3777 0.950 1_655 S
C3788 C3786 1.391 . S
C3788 C3789 1.400 1_655 S
C3789 C3783 1.491 . S
C3789 C3788 1.400 1_455 S
C3789 C3790 1.411 . S
C3790 H3778 0.962 . S
C3790 C3789 1.411 . S
C3790 C3791 1.367 1_455 S
C3791 H3779 0.950 . S
C3791 C3787 1.393 . S
C3791 C3790 1.367 1_655 S
H3792 C3800 0.950 . S
H3793 C3805 0.950 . S
H3794 C3802 0.950 . S
H3795 C3804 0.950 . S
H3796 C3806 0.950 . S
H3797 C3808 0.950 . S
H3798 C3810 0.950 . S
H3799 C3811 0.950 . S
C3800 H3792 0.950 . S
C3800 C3801 1.386 . S
C3800 C3802 1.391 . S
C3801 C3800 1.386 . S
C3801 C3805 1.393 . S
C3802 H3794 0.950 . S
C3802 C3800 1.391 . S
C3802 C3803 1.400 . S
C3803 C3802 1.400 . S
C3803 C3804 1.398 . S
C3803 C3809 1.516 . S
C3804 H3795 0.950 . S
C3804 C3803 1.398 . S
C3804 C3805 1.391 . S
C3805 H3793 0.950 . S
C3805 C3801 1.393 . S
C3805 C3804 1.391 . S
C3806 H3796 0.950 . S
C3806 C3807 1.386 . S
C3806 C3808 1.391 . S
C3807 C3806 1.386 . S
C3807 C3811 1.393 . S
C3808 H3797 0.950 . S
C3808 C3806 1.391 . S
C3808 C3809 1.388 1_455 S
C3809 C3803 1.516 . S
C3809 C3808 1.388 1_655 S
C3809 C3810 1.384 1_655 S
C3810 H3798 0.950 . S
C3810 C3809 1.384 1_455 S
C3810 C3811 1.391 . S
C3811 H3799 0.950 . S
C3811 C3807 1.393 . S
C3811 C3810 1.391 . S
H3812 C3820 0.950 . S
H3813 C3825 0.950 . S
H3814 C3822 0.950 . S
H3815 C3824 0.950 . S
H3816 C3826 0.950 . S
H3817 C3828 0.950 . S
H3818 C3830 0.950 . S
H3819 C3831 0.950 . S
C3820 H3812 0.950 . S
C3820 C3821 1.386 . S
C3820 C3822 1.391 . S
C3821 C3820 1.386 . S
C3821 C3825 1.393 . S
C3822 H3814 0.950 . S
C3822 C3820 1.391 . S
C3822 C3823 1.400 . S
C3823 C3822 1.400 . S
C3823 C3824 1.398 . S
C3823 C3829 1.491 . S
C3824 H3815 0.950 . S
C3824 C3823 1.398 . S
C3824 C3825 1.391 . S
C3825 H3813 0.950 . S
C3825 C3821 1.393 . S
C3825 C3824 1.391 . S
C3826 H3816 0.950 . S
C3826 C3827 1.386 . S
C3826 C3828 1.391 . S
C3827 C3826 1.386 . S
C3827 C3831 1.393 . S
C3828 H3817 0.950 . S
C3828 C3826 1.391 . S
C3828 C3829 1.400 . S
C3829 C3823 1.491 . S
C3829 C3828 1.400 . S
C3829 C3830 1.398 . S
C3830 H3818 0.950 . S
C3830 C3829 1.398 . S
C3830 C3831 1.391 . S
C3831 H3819 0.950 . S
C3831 C3827 1.393 . S
C3831 C3830 1.391 . S
H3832 C3840 0.950 . S
H3833 C3845 0.950 . S
H3834 C3842 0.950 . S
H3835 C3844 0.950 . S
H3836 C3846 0.950 . S
H3837 C3848 0.950 . S
H3838 C3850 0.950 . S
H3839 C3851 0.950 . S
C3840 H3832 0.950 . S
C3840 C3841 1.386 . S
C3840 C3842 1.391 . S
C3841 C3840 1.386 . S
C3841 C3845 1.393 . S
C3842 H3834 0.950 . S
C3842 C3840 1.391 . S
C3842 C3843 1.400 . S
C3843 C3842 1.400 . S
C3843 C3844 1.398 . S
C3843 C3849 1.491 1_455 S
C3844 H3835 0.950 . S
C3844 C3843 1.398 . S
C3844 C3845 1.391 . S
C3845 H3833 0.950 . S
C3845 C3841 1.393 . S
C3845 C3844 1.391 . S
C3846 H3836 0.950 . S
C3846 C3847 1.386 . S
C3846 C3848 1.391 . S
C3847 C3846 1.386 . S
C3847 C3851 1.393 . S
C3848 H3837 0.950 . S
C3848 C3846 1.391 . S
C3848 C3849 1.400 . S
C3849 C3843 1.491 1_655 S
C3849 C3848 1.400 . S
C3849 C3850 1.398 . S
C3850 H3838 0.950 . S
C3850 C3849 1.398 . S
C3850 C3851 1.391 . S
C3851 H3839 0.950 . S
C3851 C3847 1.393 . S
C3851 C3850 1.391 . S
H3852 C3860 0.950 . S
H3853 C3865 0.950 . S
H3854 C3862 0.950 . S
H3855 C3864 0.950 . S
H3856 C3866 0.950 . S
H3857 C3868 0.950 . S
H3858 C3870 0.950 . S
H3859 C3871 0.950 . S
C3860 H3852 0.950 . S
C3860 C3861 1.386 . S
C3860 C3862 1.391 . S
C3861 C3860 1.386 . S
C3861 C3865 1.393 . S
C3862 H3854 0.950 . S
C3862 C3860 1.391 . S
C3862 C3863 1.400 . S
C3863 C3862 1.400 . S
C3863 C3864 1.398 . S
C3863 C3869 1.491 . S
C3864 H3855 0.950 . S
C3864 C3863 1.398 . S
C3864 C3865 1.391 . S
C3865 H3853 0.950 . S
C3865 C3861 1.393 . S
C3865 C3864 1.391 . S
C3866 H3856 0.950 . S
C3866 C3867 1.386 . S
C3866 C3868 1.391 . S
C3867 C3866 1.386 . S
C3867 C3871 1.393 . S
C3868 H3857 0.950 . S
C3868 C3866 1.391 . S
C3868 C3869 1.400 . S
C3869 C3863 1.491 . S
C3869 C3868 1.400 . S
C3869 C3870 1.398 . S
C3870 H3858 0.950 . S
C3870 C3869 1.398 . S
C3870 C3871 1.391 . S
C3871 H3859 0.950 . S
C3871 C3867 1.393 . S
C3871 C3870 1.391 . S
H3872 C3880 0.950 . S
H3873 C3885 0.950 . S
H3874 C3882 0.950 1_455 S
H3875 C3884 0.950 . S
H3876 C3886 0.950 . S
H3877 C3888 0.950 . S
H3878 C3890 0.950 . S
H3879 C3891 0.950 . S
C3880 H3872 0.950 . S
C3880 C3881 1.386 . S
C3880 C3882 1.391 . S
C3881 C3880 1.386 . S
C3881 C3885 1.393 . S
C3882 H3874 0.950 1_655 S
C3882 C3880 1.391 . S
C3882 C3883 1.400 1_655 S
C3883 C3882 1.400 1_455 S
C3883 C3884 1.398 1_455 S
C3883 C3889 1.491 . S
C3884 H3875 0.950 . S
C3884 C3883 1.398 1_655 S
C3884 C3885 1.391 . S
C3885 H3873 0.950 . S
C3885 C3881 1.393 . S
C3885 C3884 1.391 . S
C3886 H3876 0.950 . S
C3886 C3887 1.386 . S
C3886 C3888 1.391 . S
C3887 C3886 1.386 . S
C3887 C3891 1.393 . S
C3888 H3877 0.950 . S
C3888 C3886 1.391 . S
C3888 C3889 1.400 . S
C3889 C3883 1.491 . S
C3889 C3888 1.400 . S
C3889 C3890 1.398 . S
C3890 H3878 0.950 . S
C3890 C3889 1.398 . S
C3890 C3891 1.391 . S
C3891 H3879 0.950 . S
C3891 C3887 1.393 . S
C3891 C3890 1.391 . S
H3892 C3900 0.950 . S
H3893 C3905 0.950 . S
H3894 C3902 0.950 . S
H3895 C3904 0.950 . S
H3896 C3906 0.950 . S
H3897 C3908 0.950 . S
H3898 C3910 0.950 . S
H3899 C3911 0.950 . S
C3900 H3892 0.950 . S
C3900 C3901 1.386 . S
C3900 C3902 1.391 . S
C3901 C3900 1.386 . S
C3901 C3905 1.393 . S
C3902 H3894 0.950 . S
C3902 C3900 1.391 . S
C3902 C3903 1.400 . S
C3903 C3902 1.400 . S
C3903 C3904 1.398 . S
C3903 C3909 1.491 . S
C3904 H3895 0.950 . S
C3904 C3903 1.398 . S
C3904 C3905 1.391 . S
C3905 H3893 0.950 . S
C3905 C3901 1.393 . S
C3905 C3904 1.391 . S
C3906 H3896 0.950 . S
C3906 C3907 1.386 . S
C3906 C3908 1.391 . S
C3907 C3906 1.386 . S
C3907 C3911 1.393 . S
C3908 H3897 0.950 . S
C3908 C3906 1.391 . S
C3908 C3909 1.400 . S
C3909 C3903 1.491 . S
C3909 C3908 1.400 . S
C3909 C3910 1.398 . S
C3910 H3898 0.950 . S
C3910 C3909 1.398 . S
C3910 C3911 1.391 . S
C3911 H3899 0.950 . S
C3911 C3907 1.393 . S
C3911 C3910 1.391 . S
H3912 C3920 0.950 . S
H3913 C3925 0.950 . S
H3914 C3922 0.950 . S
H3915 C3924 0.950 . S
H3916 C3926 0.950 . S
H3917 C3928 0.950 . S
H3918 C3930 0.950 . S
H3919 C3931 0.950 . S
C3920 H3912 0.950 . S
C3920 C3921 1.386 . S
C3920 C3922 1.391 . S
C3921 C3920 1.386 . S
C3921 C3925 1.393 . S
C3922 H3914 0.950 . S
C3922 C3920 1.391 . S
C3922 C3923 1.400 . S
C3923 C3922 1.400 . S
C3923 C3924 1.398 . S
C3923 C3929 1.491 1_655 S
C3924 H3915 0.950 . S
C3924 C3923 1.398 . S
C3924 C3925 1.391 . S
C3925 H3913 0.950 . S
C3925 C3921 1.393 . S
C3925 C3924 1.391 . S
C3926 H3916 0.950 . S
C3926 C3927 1.386 . S
C3926 C3928 1.391 . S
C3927 C3926 1.386 . S
C3927 C3931 1.393 . S
C3928 H3917 0.950 . S
C3928 C3926 1.391 . S
C3928 C3929 1.400 . S
C3929 C3923 1.491 1_455 S
C3929 C3928 1.400 . S
C3929 C3930 1.398 . S
C3930 H3918 0.950 . S
C3930 C3929 1.398 . S
C3930 C3931 1.391 . S
C3931 H3919 0.950 . S
C3931 C3927 1.393 . S
C3931 C3930 1.391 . S
H3932 C3940 0.950 . S
H3933 C3945 0.950 . S
H3934 C3942 0.950 . S
H3935 C3944 0.950 . S
H3936 C3946 0.950 . S
H3937 C3948 0.950 . S
H3938 C3950 0.950 . S
H3939 C3951 0.950 . S
C3940 H3932 0.950 . S
C3940 C3941 1.386 . S
C3940 C3942 1.391 . S
C3941 C3940 1.386 . S
C3941 C3945 1.393 . S
C3942 H3934 0.950 . S
C3942 C3940 1.391 . S
C3942 C3943 1.400 . S
C3943 C3942 1.400 . S
C3943 C3944 1.398 . S
C3943 C3949 1.491 . S
C3944 H3935 0.950 . S
C3944 C3943 1.398 . S
C3944 C3945 1.391 . S
C3945 H3933 0.950 . S
C3945 C3941 1.393 . S
C3945 C3944 1.391 . S
C3946 H3936 0.950 . S
C3946 C3947 1.386 . S
C3946 C3948 1.391 . S
C3947 C3946 1.386 . S
C3947 C3951 1.393 . S
C3948 H3937 0.950 . S
C3948 C3946 1.391 . S
C3948 C3949 1.400 . S
C3949 C3943 1.491 . S
C3949 C3948 1.400 . S
C3949 C3950 1.398 . S
C3950 H3938 0.950 . S
C3950 C3949 1.398 . S
C3950 C3951 1.391 . S
C3951 H3939 0.950 . S
C3951 C3947 1.393 . S
C3951 C3950 1.391 . S
H3952 C3960 0.950 . S
H3953 C3965 0.950 . S
H3954 C3962 0.950 . S
H3955 C3964 0.950 . S
H3956 C3966 0.950 . S
H3957 C3968 0.950 . S
H3958 C3970 0.950 . S
H3959 C3971 0.950 . S
C3960 H3952 0.950 . S
C3960 C3961 1.386 . S
C3960 C3962 1.391 . S
C3961 C3960 1.386 . S
C3961 C3965 1.393 . S
C3962 H3954 0.950 . S
C3962 C3960 1.391 . S
C3962 C3963 1.400 . S
C3963 C3962 1.400 . S
C3963 C3964 1.398 . S
C3963 C3969 1.491 1_545 S
C3964 H3955 0.950 . S
C3964 C3963 1.398 . S
C3964 C3965 1.391 . S
C3965 H3953 0.950 . S
C3965 C3961 1.393 . S
C3965 C3964 1.391 . S
C3966 H3956 0.950 . S
C3966 C3967 1.386 . S
C3966 C3968 1.391 . S
C3967 C3966 1.386 . S
C3967 C3971 1.393 . S
C3968 H3957 0.950 . S
C3968 C3966 1.391 . S
C3968 C3969 1.400 . S
C3969 C3963 1.491 1_565 S
C3969 C3968 1.400 . S
C3969 C3970 1.398 . S
C3970 H3958 0.950 . S
C3970 C3969 1.398 . S
C3970 C3971 1.391 . S
C3971 H3959 0.950 . S
C3971 C3967 1.393 . S
C3971 C3970 1.391 . S
H3972 C3980 0.950 . S
H3973 C3985 0.950 . S
H3974 C3982 0.950 . S
H3975 C3984 0.950 . S
H3976 C3986 0.950 . S
H3977 C3988 0.950 . S
H3978 C3990 0.950 . S
H3979 C3991 0.950 . S
C3980 H3972 0.950 . S
C3980 C3981 1.386 . S
C3980 C3982 1.391 . S
C3981 C3980 1.386 . S
C3981 C3985 1.393 . S
C3982 H3974 0.950 . S
C3982 C3980 1.391 . S
C3982 C3983 1.400 . S
C3983 C3982 1.400 . S
C3983 C3984 1.398 . S
C3983 C3989 1.491 . S
C3984 H3975 0.950 . S
C3984 C3983 1.398 . S
C3984 C3985 1.391 . S
C3985 H3973 0.950 . S
C3985 C3981 1.393 . S
C3985 C3984 1.391 . S
C3986 H3976 0.950 . S
C3986 C3987 1.386 . S
C3986 C3988 1.391 . S
C3987 C3986 1.386 . S
C3987 C3991 1.393 . S
C3988 H3977 0.950 . S
C3988 C3986 1.391 . S
C3988 C3989 1.400 . S
C3989 C3983 1.491 . S
C3989 C3988 1.400 . S
C3989 C3990 1.398 . S
C3990 H3978 0.950 . S
C3990 C3989 1.398 . S
C3990 C3991 1.391 . S
C3991 H3979 0.950 . S
C3991 C3987 1.393 . S
C3991 C3990 1.391 . S
H3992 C4000 0.950 . S
H3993 C4005 0.950 . S
H3994 C4002 0.950 . S
H3995 C4004 0.950 . S
H3996 C4006 0.950 . S
H3997 C4008 0.950 . S
H3998 C4010 0.950 . S
H3999 C4011 0.950 . S
C4000 H3992 0.950 . S
C4000 C4001 1.386 . S
C4000 C4002 1.391 . S
C4001 C4000 1.386 . S
C4001 C4005 1.393 . S
C4002 H3994 0.950 . S
C4002 C4000 1.391 . S
C4002 C4003 1.401 . S
C4003 C4002 1.401 . S
C4003 C4004 1.399 . S
C4003 C4009 1.490 1_545 S
C4004 H3995 0.950 . S
C4004 C4003 1.399 . S
C4004 C4005 1.391 . S
C4005 H3993 0.950 . S
C4005 C4001 1.393 . S
C4005 C4004 1.391 . S
C4006 H3996 0.950 . S
C4006 C4007 1.386 . S
C4006 C4008 1.391 . S
C4007 C4006 1.386 . S
C4007 C4011 1.393 . S
C4008 H3997 0.950 . S
C4008 C4006 1.391 . S
C4008 C4009 1.400 . S
C4009 C4003 1.490 1_565 S
C4009 C4008 1.400 . S
C4009 C4010 1.398 . S
C4010 H3998 0.950 . S
C4010 C4009 1.398 . S
C4010 C4011 1.391 . S
C4011 H3999 0.950 . S
C4011 C4007 1.393 . S
C4011 C4010 1.391 . S
H4012 C4020 0.950 . S
H4013 C4025 0.950 . S
H4014 C4022 0.950 . S
H4015 C4024 0.950 . S
H4016 C4026 0.950 . S
H4017 C4028 0.950 . S
H4018 C4030 0.950 . S
H4019 C4031 0.950 . S
C4020 H4012 0.950 . S
C4020 C4021 1.386 . S
C4020 C4022 1.391 . S
C4021 C4020 1.386 . S
C4021 C4025 1.393 . S
C4022 H4014 0.950 . S
C4022 C4020 1.391 . S
C4022 C4023 1.400 . S
C4023 C4022 1.400 . S
C4023 C4024 1.398 . S
C4023 C4029 1.491 . S
C4024 H4015 0.950 . S
C4024 C4023 1.398 . S
C4024 C4025 1.391 . S
C4025 H4013 0.950 . S
C4025 C4021 1.393 . S
C4025 C4024 1.391 . S
C4026 H4016 0.950 . S
C4026 C4027 1.386 . S
C4026 C4028 1.391 . S
C4027 C4026 1.386 . S
C4027 C4031 1.393 . S
C4028 H4017 0.950 . S
C4028 C4026 1.391 . S
C4028 C4029 1.400 . S
C4029 C4023 1.491 . S
C4029 C4028 1.400 . S
C4029 C4030 1.398 . S
C4030 H4018 0.950 . S
C4030 C4029 1.398 . S
C4030 C4031 1.391 . S
C4031 H4019 0.950 . S
C4031 C4027 1.393 . S
C4031 C4030 1.391 . S
H4032 C4040 0.950 . S
H4033 C4045 0.950 . S
H4034 C4042 0.950 . S
H4035 C4044 0.950 . S
H4036 C4046 0.950 . S
H4037 C4048 0.950 . S
H4038 C4050 0.950 . S
H4039 C4051 0.950 . S
C4040 H4032 0.950 . S
C4040 C4041 1.386 . S
C4040 C4042 1.391 . S
C4041 C4040 1.386 . S
C4041 C4045 1.393 . S
C4042 H4034 0.950 . S
C4042 C4040 1.391 . S
C4042 C4043 1.400 . S
C4043 C4042 1.400 . S
C4043 C4044 1.398 . S
C4043 C4049 1.491 1_545 S
C4044 H4035 0.950 . S
C4044 C4043 1.398 . S
C4044 C4045 1.391 . S
C4045 H4033 0.950 . S
C4045 C4041 1.393 . S
C4045 C4044 1.391 . S
C4046 H4036 0.950 . S
C4046 C4047 1.386 . S
C4046 C4048 1.391 . S
C4047 C4046 1.386 . S
C4047 C4051 1.393 . S
C4048 H4037 0.950 . S
C4048 C4046 1.391 . S
C4048 C4049 1.400 . S
C4049 C4043 1.491 1_565 S
C4049 C4048 1.400 . S
C4049 C4050 1.398 . S
C4050 H4038 0.950 . S
C4050 C4049 1.398 . S
C4050 C4051 1.391 . S
C4051 H4039 0.950 . S
C4051 C4047 1.393 . S
C4051 C4050 1.391 . S
H4052 C4060 0.950 . S
H4053 C4065 0.950 . S
H4054 C4062 0.950 . S
H4055 C4064 0.950 . S
H4056 C4066 0.950 . S
H4057 C4068 0.950 . S
H4058 C4070 0.950 . S
H4059 C4071 0.950 . S
C4060 H4052 0.950 . S
C4060 C4061 1.386 . S
C4060 C4062 1.391 . S
C4061 C4060 1.386 . S
C4061 C4065 1.393 . S
C4062 H4054 0.950 . S
C4062 C4060 1.391 . S
C4062 C4063 1.400 . S
C4063 C4062 1.400 . S
C4063 C4064 1.398 . S
C4063 C4069 1.491 . S
C4064 H4055 0.950 . S
C4064 C4063 1.398 . S
C4064 C4065 1.391 . S
C4065 H4053 0.950 . S
C4065 C4061 1.393 . S
C4065 C4064 1.391 . S
C4066 H4056 0.950 . S
C4066 C4067 1.386 . S
C4066 C4068 1.391 . S
C4067 C4066 1.386 . S
C4067 C4071 1.393 . S
C4068 H4057 0.950 . S
C4068 C4066 1.391 . S
C4068 C4069 1.400 . S
C4069 C4063 1.491 . S
C4069 C4068 1.400 . S
C4069 C4070 1.398 . S
C4070 H4058 0.950 . S
C4070 C4069 1.398 . S
C4070 C4071 1.391 . S
C4071 H4059 0.950 . S
C4071 C4067 1.393 . S
C4071 C4070 1.391 . S
H4072 C4080 0.950 . S
H4073 C4085 0.950 . S
H4074 C4082 0.950 . S
H4075 C4084 0.950 . S
H4076 C4086 0.950 . S
H4077 C4088 0.950 . S
H4078 C4090 0.950 . S
H4079 C4091 0.950 . S
C4080 H4072 0.950 . S
C4080 C4081 1.386 . S
C4080 C4082 1.391 . S
C4081 C4080 1.386 . S
C4081 C4085 1.393 . S
C4082 H4074 0.950 . S
C4082 C4080 1.391 . S
C4082 C4083 1.400 . S
C4083 C4082 1.400 . S
C4083 C4084 1.398 . S
C4083 C4089 1.491 1_545 S
C4084 H4075 0.950 . S
C4084 C4083 1.398 . S
C4084 C4085 1.391 . S
C4085 H4073 0.950 . S
C4085 C4081 1.393 . S
C4085 C4084 1.391 . S
C4086 H4076 0.950 . S
C4086 C4087 1.386 . S
C4086 C4088 1.391 . S
C4087 C4086 1.386 . S
C4087 C4091 1.393 . S
C4088 H4077 0.950 . S
C4088 C4086 1.391 . S
C4088 C4089 1.400 . S
C4089 C4083 1.491 1_565 S
C4089 C4088 1.400 . S
C4089 C4090 1.398 . S
C4090 H4078 0.950 . S
C4090 C4089 1.398 . S
C4090 C4091 1.391 . S
C4091 H4079 0.950 . S
C4091 C4087 1.393 . S
C4091 C4090 1.391 . S
H4092 C4100 0.950 . S
H4093 C4105 0.950 . S
H4094 C4102 0.950 . S
H4095 C4104 0.950 . S
H4096 C4106 0.950 . S
H4097 C4108 0.950 . S
H4098 C4110 0.950 . S
H4099 C4111 0.950 . S
C4100 H4092 0.950 . S
C4100 C4101 1.386 . S
C4100 C4102 1.391 . S
C4101 C4100 1.386 . S
C4101 C4105 1.393 . S
C4102 H4094 0.950 . S
C4102 C4100 1.391 . S
C4102 C4103 1.400 . S
C4103 C4102 1.400 . S
C4103 C4104 1.398 . S
C4103 C4109 1.491 . S
C4104 H4095 0.950 . S
C4104 C4103 1.398 . S
C4104 C4105 1.391 . S
C4105 H4093 0.950 . S
C4105 C4101 1.393 . S
C4105 C4104 1.391 . S
C4106 H4096 0.950 . S
C4106 C4107 1.386 . S
C4106 C4108 1.391 . S
C4107 C4106 1.386 . S
C4107 C4111 1.393 . S
C4108 H4097 0.950 . S
C4108 C4106 1.391 . S
C4108 C4109 1.400 . S
C4109 C4103 1.491 . S
C4109 C4108 1.400 . S
C4109 C4110 1.398 . S
C4110 H4098 0.950 . S
C4110 C4109 1.398 . S
C4110 C4111 1.391 . S
C4111 H4099 0.950 . S
C4111 C4107 1.393 . S
C4111 C4110 1.391 . S
H4112 C4120 0.950 . S
H4113 C4125 0.950 . S
H4114 C4122 0.950 . S
H4115 C4124 0.950 . S
H4116 C4126 0.950 . S
H4117 C4128 0.950 . S
H4118 C4130 0.950 . S
H4119 C4131 0.950 . S
C4120 H4112 0.950 . S
C4120 C4121 1.386 . S
C4120 C4122 1.391 . S
C4121 C4120 1.386 . S
C4121 C4125 1.393 . S
C4122 H4114 0.950 . S
C4122 C4120 1.391 . S
C4122 C4123 1.400 . S
C4123 C4122 1.400 . S
C4123 C4124 1.398 . S
C4123 C4129 1.491 1_556 S
C4124 H4115 0.950 . S
C4124 C4123 1.398 . S
C4124 C4125 1.391 . S
C4125 H4113 0.950 . S
C4125 C4121 1.393 . S
C4125 C4124 1.391 . S
C4126 H4116 0.950 . S
C4126 C4127 1.386 . S
C4126 C4128 1.391 . S
C4127 C4126 1.386 . S
C4127 C4131 1.393 . S
C4128 H4117 0.950 . S
C4128 C4126 1.391 . S
C4128 C4129 1.400 . S
C4129 C4123 1.491 1_554 S
C4129 C4128 1.400 . S
C4129 C4130 1.398 . S
C4130 H4118 0.950 . S
C4130 C4129 1.398 . S
C4130 C4131 1.391 . S
C4131 H4119 0.950 . S
C4131 C4127 1.393 . S
C4131 C4130 1.391 . S
H4132 C4140 0.950 . S
H4133 C4145 0.950 . S
H4134 C4142 0.950 . S
H4135 C4144 0.950 . S
H4136 C4146 0.950 . S
H4137 C4148 0.950 . S
H4138 C4150 0.950 . S
H4139 C4151 0.950 . S
C4140 H4132 0.950 . S
C4140 C4141 1.386 . S
C4140 C4142 1.391 . S
C4141 C4140 1.386 . S
C4141 C4145 1.393 . S
C4142 H4134 0.950 . S
C4142 C4140 1.391 . S
C4142 C4143 1.400 . S
C4143 C4142 1.400 . S
C4143 C4144 1.398 . S
C4143 C4149 1.491 1_556 S
C4144 H4135 0.950 . S
C4144 C4143 1.398 . S
C4144 C4145 1.391 . S
C4145 H4133 0.950 . S
C4145 C4141 1.393 . S
C4145 C4144 1.391 . S
C4146 H4136 0.950 . S
C4146 C4147 1.386 . S
C4146 C4148 1.391 . S
C4147 C4146 1.386 . S
C4147 C4151 1.393 . S
C4148 H4137 0.950 . S
C4148 C4146 1.391 . S
C4148 C4149 1.400 . S
C4149 C4143 1.491 1_554 S
C4149 C4148 1.400 . S
C4149 C4150 1.398 . S
C4150 H4138 0.950 . S
C4150 C4149 1.398 . S
C4150 C4151 1.391 . S
C4151 H4139 0.950 . S
C4151 C4147 1.393 . S
C4151 C4150 1.391 . S
H4152 C4160 0.950 . S
H4153 C4165 0.950 . S
H4154 C4162 0.950 . S
H4155 C4164 0.950 . S
H4156 C4166 0.950 . S
H4157 C4168 0.950 . S
H4158 C4170 0.950 . S
H4159 C4171 0.950 . S
C4160 H4152 0.950 . S
C4160 C4161 1.386 . S
C4160 C4162 1.391 . S
C4161 C4160 1.386 . S
C4161 C4165 1.393 . S
C4162 H4154 0.950 . S
C4162 C4160 1.391 . S
C4162 C4163 1.400 . S
C4163 C4162 1.400 . S
C4163 C4164 1.398 . S
C4163 C4169 1.491 . S
C4164 H4155 0.950 . S
C4164 C4163 1.398 . S
C4164 C4165 1.391 . S
C4165 H4153 0.950 . S
C4165 C4161 1.393 . S
C4165 C4164 1.391 . S
C4166 H4156 0.950 . S
C4166 C4167 1.386 . S
C4166 C4168 1.391 . S
C4167 C4166 1.386 . S
C4167 C4171 1.393 . S
C4168 H4157 0.950 . S
C4168 C4166 1.391 . S
C4168 C4169 1.400 . S
C4169 C4163 1.491 . S
C4169 C4168 1.400 . S
C4169 C4170 1.398 . S
C4170 H4158 0.950 . S
C4170 C4169 1.398 . S
C4170 C4171 1.391 . S
C4171 H4159 0.950 . S
C4171 C4167 1.393 . S
C4171 C4170 1.391 . S
H4172 C4180 0.950 . S
H4173 C4185 0.950 . S
H4174 C4182 0.950 1_554 S
H4175 C4184 0.950 1_554 S
H4176 C4186 0.950 . S
H4177 C4188 0.950 . S
H4178 C4190 0.950 . S
H4179 C4191 0.950 . S
C4180 H4172 0.950 . S
C4180 C4181 1.386 . S
C4180 C4182 1.391 . S
C4181 C4180 1.386 . S
C4181 C4185 1.393 . S
C4182 H4174 0.950 1_556 S
C4182 C4180 1.391 . S
C4182 C4183 1.400 1_556 S
C4183 C4182 1.400 1_554 S
C4183 C4184 1.398 1_554 S
C4183 C4189 1.491 . S
C4184 H4175 0.950 1_556 S
C4184 C4183 1.398 1_556 S
C4184 C4185 1.391 . S
C4185 H4173 0.950 . S
C4185 C4181 1.393 . S
C4185 C4184 1.391 . S
C4186 H4176 0.950 . S
C4186 C4187 1.386 . S
C4186 C4188 1.391 . S
C4187 C4186 1.386 . S
C4187 C4191 1.393 . S
C4188 H4177 0.950 . S
C4188 C4186 1.391 . S
C4188 C4189 1.400 . S
C4189 C4183 1.491 . S
C4189 C4188 1.400 . S
C4189 C4190 1.398 . S
C4190 H4178 0.950 . S
C4190 C4189 1.398 . S
C4190 C4191 1.391 . S
C4191 H4179 0.950 . S
C4191 C4187 1.393 . S
C4191 C4190 1.391 . S
H4192 C4200 0.950 . S
H4193 C4205 0.950 . S
H4194 C4202 0.950 . S
H4195 C4204 0.950 . S
H4196 C4206 0.950 . S
H4197 C4208 0.950 . S
H4198 C4210 0.950 . S
H4199 C4211 0.950 . S
C4200 H4192 0.950 . S
C4200 C4201 1.386 . S
C4200 C4202 1.391 . S
C4201 C4200 1.386 . S
C4201 C4205 1.393 . S
C4202 H4194 0.950 . S
C4202 C4200 1.391 . S
C4202 C4203 1.400 . S
C4203 C4202 1.400 . S
C4203 C4204 1.398 . S
C4203 C4209 1.491 . S
C4204 H4195 0.950 . S
C4204 C4203 1.398 . S
C4204 C4205 1.391 . S
C4205 H4193 0.950 . S
C4205 C4201 1.393 . S
C4205 C4204 1.391 . S
C4206 H4196 0.950 . S
C4206 C4207 1.386 . S
C4206 C4208 1.391 . S
C4207 C4206 1.386 . S
C4207 C4211 1.393 . S
C4208 H4197 0.950 . S
C4208 C4206 1.391 . S
C4208 C4209 1.400 . S
C4209 C4203 1.491 . S
C4209 C4208 1.400 . S
C4209 C4210 1.398 . S
C4210 H4198 0.950 . S
C4210 C4209 1.398 . S
C4210 C4211 1.391 . S
C4211 H4199 0.950 . S
C4211 C4207 1.393 . S
C4211 C4210 1.391 . S
H4212 C4220 0.950 . S
H4213 C4225 0.950 . S
H4214 C4222 0.950 . S
H4215 C4224 0.950 . S
H4216 C4226 0.950 . S
H4217 C4228 0.950 . S
H4218 C4230 0.950 . S
H4219 C4231 0.950 . S
C4220 H4212 0.950 . S
C4220 C4221 1.386 . S
C4220 C4222 1.391 . S
C4221 C4220 1.386 . S
C4221 C4225 1.393 . S
C4222 H4214 0.950 . S
C4222 C4220 1.391 . S
C4222 C4223 1.400 . S
C4223 C4222 1.400 . S
C4223 C4224 1.398 . S
C4223 C4229 1.491 1_556 S
C4224 H4215 0.950 . S
C4224 C4223 1.398 . S
C4224 C4225 1.391 . S
C4225 H4213 0.950 . S
C4225 C4221 1.393 . S
C4225 C4224 1.391 . S
C4226 H4216 0.950 . S
C4226 C4227 1.386 . S
C4226 C4228 1.391 . S
C4227 C4226 1.386 . S
C4227 C4231 1.393 . S
C4228 H4217 0.950 . S
C4228 C4226 1.391 . S
C4228 C4229 1.400 . S
C4229 C4223 1.491 1_554 S
C4229 C4228 1.400 . S
C4229 C4230 1.398 . S
C4230 H4218 0.950 . S
C4230 C4229 1.398 . S
C4230 C4231 1.391 . S
C4231 H4219 0.950 . S
C4231 C4227 1.393 . S
C4231 C4230 1.391 . S
H4232 C4240 0.950 . S
H4233 C4245 0.950 . S
H4234 C4242 0.950 . S
H4235 C4244 0.950 . S
H4236 C4246 0.950 . S
H4237 C4248 0.950 . S
H4238 C4250 0.950 . S
H4239 C4251 0.950 . S
C4240 H4232 0.950 . S
C4240 C4241 1.386 . S
C4240 C4242 1.391 . S
C4241 C4240 1.386 . S
C4241 C4245 1.393 . S
C4242 H4234 0.950 . S
C4242 C4240 1.391 . S
C4242 C4243 1.400 . S
C4243 C4242 1.400 . S
C4243 C4244 1.398 . S
C4243 C4249 1.491 . S
C4244 H4235 0.950 . S
C4244 C4243 1.398 . S
C4244 C4245 1.391 . S
C4245 H4233 0.950 . S
C4245 C4241 1.393 . S
C4245 C4244 1.391 . S
C4246 H4236 0.950 . S
C4246 C4247 1.386 . S
C4246 C4248 1.391 . S
C4247 C4246 1.386 . S
C4247 C4251 1.393 . S
C4248 H4237 0.950 . S
C4248 C4246 1.391 . S
C4248 C4249 1.400 . S
C4249 C4243 1.491 . S
C4249 C4248 1.400 . S
C4249 C4250 1.398 . S
C4250 H4238 0.950 . S
C4250 C4249 1.398 . S
C4250 C4251 1.391 . S
C4251 H4239 0.950 . S
C4251 C4247 1.393 . S
C4251 C4250 1.391 . S
H4252 C4260 0.950 . S
H4253 C4265 0.950 . S
H4254 C4262 0.950 . S
H4255 C4264 0.950 . S
H4256 C4266 0.950 . S
H4257 C4268 0.950 . S
H4258 C4270 0.950 . S
H4259 C4271 0.950 . S
C4260 H4252 0.950 . S
C4260 C4261 1.386 . S
C4260 C4262 1.391 . S
C4261 C4260 1.386 . S
C4261 C4265 1.393 . S
C4262 H4254 0.950 . S
C4262 C4260 1.391 . S
C4262 C4263 1.400 . S
C4263 C4262 1.400 . S
C4263 C4264 1.398 . S
C4263 C4269 1.491 . S
C4264 H4255 0.950 . S
C4264 C4263 1.398 . S
C4264 C4265 1.391 . S
C4265 H4253 0.950 . S
C4265 C4261 1.393 . S
C4265 C4264 1.391 . S
C4266 H4256 0.950 . S
C4266 C4267 1.386 . S
C4266 C4268 1.391 . S
C4267 C4266 1.386 . S
C4267 C4271 1.393 . S
C4268 H4257 0.950 . S
C4268 C4266 1.391 . S
C4268 C4269 1.400 . S
C4269 C4263 1.491 . S
C4269 C4268 1.400 . S
C4269 C4270 1.398 . S
C4270 H4258 0.950 . S
C4270 C4269 1.398 . S
C4270 C4271 1.391 . S
C4271 H4259 0.950 . S
C4271 C4267 1.393 . S
C4271 C4270 1.391 . S
H4272 C4280 0.950 . S
H4273 C4285 0.950 . S
H4274 C4282 0.950 . S
H4275 C4284 0.950 . S
H4276 C4286 0.950 . S
H4277 C4288 0.950 . S
H4278 C4290 0.950 . S
H4279 C4291 0.950 . S
C4280 H4272 0.950 . S
C4280 C4281 1.386 . S
C4280 C4282 1.391 . S
C4281 C4280 1.386 . S
C4281 C4285 1.393 . S
C4282 H4274 0.950 . S
C4282 C4280 1.391 . S
C4282 C4283 1.400 . S
C4283 C4282 1.400 . S
C4283 C4284 1.398 . S
C4283 C4289 1.491 . S
C4284 H4275 0.950 . S
C4284 C4283 1.398 . S
C4284 C4285 1.391 . S
C4285 H4273 0.950 . S
C4285 C4281 1.393 . S
C4285 C4284 1.391 . S
C4286 H4276 0.950 . S
C4286 C4287 1.386 . S
C4286 C4288 1.391 . S
C4287 C4286 1.386 . S
C4287 C4291 1.393 . S
C4288 H4277 0.950 . S
C4288 C4286 1.391 . S
C4288 C4289 1.400 . S
C4289 C4283 1.491 . S
C4289 C4288 1.400 . S
C4289 C4290 1.398 . S
C4290 H4278 0.950 . S
C4290 C4289 1.398 . S
C4290 C4291 1.391 . S
C4291 H4279 0.950 . S
C4291 C4287 1.393 . S
C4291 C4290 1.391 . S
H4292 C4300 0.950 . S
H4293 C4305 0.950 . S
H4294 C4302 0.950 . S
H4295 C4304 0.950 . S
H4296 C4306 0.950 . S
H4297 C4308 0.950 . S
H4298 C4310 0.950 . S
H4299 C4311 0.950 . S
C4300 H4292 0.950 . S
C4300 C4301 1.386 . S
C4300 C4302 1.391 . S
C4301 C4300 1.386 . S
C4301 C4305 1.393 . S
C4302 H4294 0.950 . S
C4302 C4300 1.391 . S
C4302 C4303 1.400 . S
C4303 C4302 1.400 . S
C4303 C4304 1.398 . S
C4303 C4309 1.491 . S
C4304 H4295 0.950 . S
C4304 C4303 1.398 . S
C4304 C4305 1.391 . S
C4305 H4293 0.950 . S
C4305 C4301 1.393 . S
C4305 C4304 1.391 . S
C4306 H4296 0.950 . S
C4306 C4307 1.386 . S
C4306 C4308 1.391 . S
C4307 C4306 1.386 . S
C4307 C4311 1.393 . S
C4308 H4297 0.950 . S
C4308 C4306 1.391 . S
C4308 C4309 1.400 . S
C4309 C4303 1.491 . S
C4309 C4308 1.400 . S
C4309 C4310 1.398 . S
C4310 H4298 0.950 . S
C4310 C4309 1.398 . S
C4310 C4311 1.391 . S
C4311 H4299 0.950 . S
C4311 C4307 1.393 . S
C4311 C4310 1.391 . S
H4312 C4320 0.950 . S
H4313 C4325 0.950 . S
H4314 C4322 0.950 . S
H4315 C4324 0.950 . S
H4316 C4326 0.950 . S
H4317 C4328 0.950 . S
H4318 C4330 0.950 . S
H4319 C4331 0.950 . S
C4320 H4312 0.950 . S
C4320 C4321 1.386 . S
C4320 C4322 1.391 . S
C4321 C4320 1.386 . S
C4321 C4325 1.393 . S
C4322 H4314 0.950 . S
C4322 C4320 1.391 . S
C4322 C4323 1.400 . S
C4323 C4322 1.400 . S
C4323 C4324 1.398 . S
C4323 C4329 1.491 . S
C4324 H4315 0.950 . S
C4324 C4323 1.398 . S
C4324 C4325 1.391 . S
C4325 H4313 0.950 . S
C4325 C4321 1.393 . S
C4325 C4324 1.391 . S
C4326 H4316 0.950 . S
C4326 C4327 1.386 . S
C4326 C4328 1.391 . S
C4327 C4326 1.386 . S
C4327 C4331 1.393 . S
C4328 H4317 0.950 . S
C4328 C4326 1.391 . S
C4328 C4329 1.400 . S
C4329 C4323 1.491 . S
C4329 C4328 1.400 . S
C4329 C4330 1.398 . S
C4330 H4318 0.950 . S
C4330 C4329 1.398 . S
C4330 C4331 1.391 . S
C4331 H4319 0.950 . S
C4331 C4327 1.393 . S
C4331 C4330 1.391 . S
H4332 C4340 0.950 . S
H4333 C4345 0.950 . S
H4334 C4342 0.950 . S
H4335 C4344 0.950 . S
H4336 C4346 0.950 . S
H4337 C4348 0.950 . S
H4338 C4350 0.950 . S
H4339 C4351 0.950 . S
C4340 H4332 0.950 . S
C4340 C4341 1.386 . S
C4340 C4342 1.391 . S
C4341 C4340 1.386 . S
C4341 C4345 1.393 . S
C4342 H4334 0.950 . S
C4342 C4340 1.391 . S
C4342 C4343 1.400 . S
C4343 C4342 1.400 . S
C4343 C4344 1.398 . S
C4343 C4349 1.491 . S
C4344 H4335 0.950 . S
C4344 C4343 1.398 . S
C4344 C4345 1.391 . S
C4345 H4333 0.950 . S
C4345 C4341 1.393 . S
C4345 C4344 1.391 . S
C4346 H4336 0.950 . S
C4346 C4347 1.386 . S
C4346 C4348 1.391 . S
C4347 C4346 1.386 . S
C4347 C4351 1.393 . S
C4348 H4337 0.950 . S
C4348 C4346 1.391 . S
C4348 C4349 1.400 . S
C4349 C4343 1.491 . S
C4349 C4348 1.400 . S
C4349 C4350 1.398 . S
C4350 H4338 0.950 . S
C4350 C4349 1.398 . S
C4350 C4351 1.391 . S
C4351 H4339 0.950 . S
C4351 C4347 1.393 . S
C4351 C4350 1.391 . S
H4352 C4360 0.950 . S
H4353 C4365 0.950 . S
H4354 C4362 0.950 . S
H4355 C4364 0.950 . S
H4356 C4366 0.950 . S
H4357 C4368 0.950 . S
H4358 C4370 0.950 . S
H4359 C4371 0.950 . S
C4360 H4352 0.950 . S
C4360 C4361 1.386 . S
C4360 C4362 1.391 . S
C4361 C4360 1.386 . S
C4361 C4365 1.393 . S
C4362 H4354 0.950 . S
C4362 C4360 1.391 . S
C4362 C4363 1.400 . S
C4363 C4362 1.400 . S
C4363 C4364 1.398 . S
C4363 C4369 1.491 . S
C4364 H4355 0.950 . S
C4364 C4363 1.398 . S
C4364 C4365 1.391 . S
C4365 H4353 0.950 . S
C4365 C4361 1.393 . S
C4365 C4364 1.391 . S
C4366 H4356 0.950 . S
C4366 C4367 1.386 . S
C4366 C4368 1.391 . S
C4367 C4366 1.386 . S
C4367 C4371 1.393 . S
C4368 H4357 0.950 . S
C4368 C4366 1.391 . S
C4368 C4369 1.400 . S
C4369 C4363 1.491 . S
C4369 C4368 1.400 . S
C4369 C4370 1.398 . S
C4370 H4358 0.950 . S
C4370 C4369 1.398 . S
C4370 C4371 1.391 . S
C4371 H4359 0.950 . S
C4371 C4367 1.393 . S
C4371 C4370 1.391 . S
H4372 C4380 0.950 . S
H4373 C4385 0.950 . S
H4374 C4382 0.950 . S
H4375 C4384 0.950 . S
H4376 C4386 0.950 . S
H4377 C4388 0.950 . S
H4378 C4390 0.950 . S
H4379 C4391 0.950 . S
C4380 H4372 0.950 . S
C4380 C4381 1.386 . S
C4380 C4382 1.391 . S
C4381 C4380 1.386 . S
C4381 C4385 1.393 . S
C4382 H4374 0.950 . S
C4382 C4380 1.391 . S
C4382 C4383 1.400 . S
C4383 C4382 1.400 . S
C4383 C4384 1.398 . S
C4383 C4389 1.491 . S
C4384 H4375 0.950 . S
C4384 C4383 1.398 . S
C4384 C4385 1.391 . S
C4385 H4373 0.950 . S
C4385 C4381 1.393 . S
C4385 C4384 1.391 . S
C4386 H4376 0.950 . S
C4386 C4387 1.386 . S
C4386 C4388 1.391 . S
C4387 C4386 1.386 . S
C4387 C4391 1.393 . S
C4388 H4377 0.950 . S
C4388 C4386 1.391 . S
C4388 C4389 1.400 . S
C4389 C4383 1.491 . S
C4389 C4388 1.400 . S
C4389 C4390 1.398 . S
C4390 H4378 0.950 . S
C4390 C4389 1.398 . S
C4390 C4391 1.391 . S
C4391 H4379 0.950 . S
C4391 C4387 1.393 . S
C4391 C4390 1.391 . S
H4392 C4400 0.950 . S
H4393 C4405 0.950 . S
H4394 C4402 0.950 . S
H4395 C4404 0.950 . S
H4396 C4406 0.950 . S
H4397 C4408 0.950 . S
H4398 C4410 0.950 . S
H4399 C4411 0.950 . S
C4400 H4392 0.950 . S
C4400 C4401 1.386 . S
C4400 C4402 1.391 . S
C4401 C4400 1.386 . S
C4401 C4405 1.393 . S
C4402 H4394 0.950 . S
C4402 C4400 1.391 . S
C4402 C4403 1.400 . S
C4403 C4402 1.400 . S
C4403 C4404 1.398 . S
C4403 C4409 1.491 . S
C4404 H4395 0.950 . S
C4404 C4403 1.398 . S
C4404 C4405 1.391 . S
C4405 H4393 0.950 . S
C4405 C4401 1.393 . S
C4405 C4404 1.391 . S
C4406 H4396 0.950 . S
C4406 C4407 1.386 . S
C4406 C4408 1.391 . S
C4407 C4406 1.386 . S
C4407 C4411 1.393 . S
C4408 H4397 0.950 . S
C4408 C4406 1.391 . S
C4408 C4409 1.400 . S
C4409 C4403 1.491 . S
C4409 C4408 1.400 . S
C4409 C4410 1.398 . S
C4410 H4398 0.950 . S
C4410 C4409 1.398 . S
C4410 C4411 1.391 . S
C4411 H4399 0.950 . S
C4411 C4407 1.393 . S
C4411 C4410 1.391 . S
H4412 C4420 0.950 . S
H4413 C4425 0.950 . S
H4414 C4422 0.950 . S
H4415 C4424 0.950 . S
H4416 C4426 0.950 . S
H4417 C4428 0.950 . S
H4418 C4430 0.950 . S
H4419 C4431 0.950 . S
C4420 H4412 0.950 . S
C4420 C4421 1.386 . S
C4420 C4422 1.391 . S
C4421 C4420 1.386 . S
C4421 C4425 1.393 . S
C4422 H4414 0.950 . S
C4422 C4420 1.391 . S
C4422 C4423 1.400 . S
C4423 C4422 1.400 . S
C4423 C4424 1.398 . S
C4423 C4429 1.491 . S
C4424 H4415 0.950 . S
C4424 C4423 1.398 . S
C4424 C4425 1.391 . S
C4425 H4413 0.950 . S
C4425 C4421 1.393 . S
C4425 C4424 1.391 . S
C4426 H4416 0.950 . S
C4426 C4427 1.386 . S
C4426 C4428 1.391 . S
C4427 C4426 1.386 . S
C4427 C4431 1.393 . S
C4428 H4417 0.950 . S
C4428 C4426 1.391 . S
C4428 C4429 1.400 . S
C4429 C4423 1.491 . S
C4429 C4428 1.400 . S
C4429 C4430 1.398 . S
C4430 H4418 0.950 . S
C4430 C4429 1.398 . S
C4430 C4431 1.391 . S
C4431 H4419 0.950 . S
C4431 C4427 1.393 . S
C4431 C4430 1.391 . S
H4432 C4440 0.950 . S
H4433 C4445 0.950 . S
H4434 C4442 0.950 . S
H4435 C4444 0.950 . S
H4436 C4446 0.950 . S
H4437 C4448 0.950 . S
H4438 C4450 0.950 . S
H4439 C4451 0.950 . S
C4440 H4432 0.950 . S
C4440 C4441 1.386 . S
C4440 C4442 1.391 . S
C4441 C4440 1.386 . S
C4441 C4445 1.393 . S
C4442 H4434 0.950 . S
C4442 C4440 1.391 . S
C4442 C4443 1.400 . S
C4443 C4442 1.400 . S
C4443 C4444 1.398 . S
C4443 C4449 1.491 . S
C4444 H4435 0.950 . S
C4444 C4443 1.398 . S
C4444 C4445 1.391 . S
C4445 H4433 0.950 . S
C4445 C4441 1.393 . S
C4445 C4444 1.391 . S
C4446 H4436 0.950 . S
C4446 C4447 1.386 . S
C4446 C4448 1.391 . S
C4447 C4446 1.386 . S
C4447 C4451 1.393 . S
C4448 H4437 0.950 . S
C4448 C4446 1.391 . S
C4448 C4449 1.400 . S
C4449 C4443 1.491 . S
C4449 C4448 1.400 . S
C4449 C4450 1.398 . S
C4450 H4438 0.950 . S
C4450 C4449 1.398 . S
C4450 C4451 1.391 . S
C4451 H4439 0.950 . S
C4451 C4447 1.393 . S
C4451 C4450 1.391 . S
H4452 C4460 0.950 . S
H4453 C4465 0.950 . S
H4454 C4462 0.950 . S
H4455 C4464 0.950 . S
H4456 C4466 0.950 . S
H4457 C4468 0.950 . S
H4458 C4470 0.950 . S
H4459 C4471 0.950 . S
C4460 H4452 0.950 . S
C4460 C4461 1.386 . S
C4460 C4462 1.391 . S
C4461 C4460 1.386 . S
C4461 C4465 1.393 . S
C4462 H4454 0.950 . S
C4462 C4460 1.391 . S
C4462 C4463 1.400 . S
C4463 C4462 1.400 . S
C4463 C4464 1.398 . S
C4463 C4469 1.491 . S
C4464 H4455 0.950 . S
C4464 C4463 1.398 . S
C4464 C4465 1.391 . S
C4465 H4453 0.950 . S
C4465 C4461 1.393 . S
C4465 C4464 1.391 . S
C4466 H4456 0.950 . S
C4466 C4467 1.386 . S
C4466 C4468 1.391 . S
C4467 C4466 1.386 . S
C4467 C4471 1.393 . S
C4468 H4457 0.950 . S
C4468 C4466 1.391 . S
C4468 C4469 1.400 . S
C4469 C4463 1.491 . S
C4469 C4468 1.400 . S
C4469 C4470 1.398 . S
C4470 H4458 0.950 . S
C4470 C4469 1.398 . S
C4470 C4471 1.391 . S
C4471 H4459 0.950 . S
C4471 C4467 1.393 . S
C4471 C4470 1.391 . S
H4472 C4480 0.950 . S
H4473 C4485 0.950 . S
H4474 C4482 0.950 . S
H4475 C4484 0.950 . S
H4476 C4486 0.950 . S
H4477 C4488 0.950 . S
H4478 C4490 0.950 . S
H4479 C4491 0.950 . S
C4480 H4472 0.950 . S
C4480 C4481 1.386 . S
C4480 C4482 1.391 . S
C4481 C4480 1.386 . S
C4481 C4485 1.393 . S
C4482 H4474 0.950 . S
C4482 C4480 1.391 . S
C4482 C4483 1.400 . S
C4483 C4482 1.400 . S
C4483 C4484 1.398 . S
C4483 C4489 1.491 . S
C4484 H4475 0.950 . S
C4484 C4483 1.398 . S
C4484 C4485 1.391 . S
C4485 H4473 0.950 . S
C4485 C4481 1.393 . S
C4485 C4484 1.391 . S
C4486 H4476 0.950 . S
C4486 C4487 1.386 . S
C4486 C4488 1.391 . S
C4487 C4486 1.386 . S
C4487 C4491 1.393 . S
C4488 H4477 0.950 . S
C4488 C4486 1.391 . S
C4488 C4489 1.400 . S
C4489 C4483 1.491 . S
C4489 C4488 1.400 . S
C4489 C4490 1.398 . S
C4490 H4478 0.950 . S
C4490 C4489 1.398 . S
C4490 C4491 1.391 . S
C4491 H4479 0.950 . S
C4491 C4487 1.393 . S
C4491 C4490 1.391 . S
H4492 C4500 0.950 . S
H4493 C4505 0.950 . S
H4494 C4502 0.950 . S
H4495 C4504 0.950 . S
H4496 C4506 0.950 . S
H4497 C4508 0.950 . S
H4498 C4510 0.950 . S
H4499 C4511 0.950 . S
C4500 H4492 0.950 . S
C4500 C4501 1.386 . S
C4500 C4502 1.391 . S
C4501 C4500 1.386 . S
C4501 C4505 1.393 . S
C4502 H4494 0.950 . S
C4502 C4500 1.391 . S
C4502 C4503 1.400 . S
C4503 C4502 1.400 . S
C4503 C4504 1.398 . S
C4503 C4509 1.491 . S
C4504 H4495 0.950 . S
C4504 C4503 1.398 . S
C4504 C4505 1.391 . S
C4505 H4493 0.950 . S
C4505 C4501 1.393 . S
C4505 C4504 1.391 . S
C4506 H4496 0.950 . S
C4506 C4507 1.386 . S
C4506 C4508 1.391 . S
C4507 C4506 1.386 . S
C4507 C4511 1.393 . S
C4508 H4497 0.950 . S
C4508 C4506 1.391 . S
C4508 C4509 1.400 . S
C4509 C4503 1.491 . S
C4509 C4508 1.400 . S
C4509 C4510 1.398 . S
C4510 H4498 0.950 . S
C4510 C4509 1.398 . S
C4510 C4511 1.391 . S
C4511 H4499 0.950 . S
C4511 C4507 1.393 . S
C4511 C4510 1.391 . S
H4512 C4520 0.950 . S
H4513 C4525 0.950 . S
H4514 C4522 0.950 . S
H4515 C4524 0.950 . S
H4516 C4526 0.950 . S
H4517 C4528 0.950 . S
H4518 C4530 0.950 . S
H4519 C4531 0.950 . S
C4520 H4512 0.950 . S
C4520 C4521 1.386 . S
C4520 C4522 1.391 . S
C4521 C4520 1.386 . S
C4521 C4525 1.393 . S
C4522 H4514 0.950 . S
C4522 C4520 1.391 . S
C4522 C4523 1.400 . S
C4523 C4522 1.400 . S
C4523 C4524 1.398 . S
C4523 C4529 1.491 . S
C4524 H4515 0.950 . S
C4524 C4523 1.398 . S
C4524 C4525 1.391 . S
C4525 H4513 0.950 . S
C4525 C4521 1.393 . S
C4525 C4524 1.391 . S
C4526 H4516 0.950 . S
C4526 C4527 1.386 . S
C4526 C4528 1.391 . S
C4527 C4526 1.386 . S
C4527 C4531 1.393 . S
C4528 H4517 0.950 . S
C4528 C4526 1.391 . S
C4528 C4529 1.400 . S
C4529 C4523 1.491 . S
C4529 C4528 1.400 . S
C4529 C4530 1.398 . S
C4530 H4518 0.950 . S
C4530 C4529 1.398 . S
C4530 C4531 1.391 . S
C4531 H4519 0.950 . S
C4531 C4527 1.393 . S
C4531 C4530 1.391 . S
H4532 C4540 0.950 . S
H4533 C4545 0.950 . S
H4534 C4542 0.950 . S
H4535 C4544 0.950 . S
H4536 C4546 0.950 . S
H4537 C4548 0.950 . S
H4538 C4550 0.950 . S
H4539 C4551 0.950 . S
C4540 H4532 0.950 . S
C4540 C4541 1.386 . S
C4540 C4542 1.391 . S
C4541 C4540 1.386 . S
C4541 C4545 1.393 . S
C4542 H4534 0.950 . S
C4542 C4540 1.391 . S
C4542 C4543 1.400 . S
C4543 C4542 1.400 . S
C4543 C4544 1.398 . S
C4543 C4549 1.491 . S
C4544 H4535 0.950 . S
C4544 C4543 1.398 . S
C4544 C4545 1.391 . S
C4545 H4533 0.950 . S
C4545 C4541 1.393 . S
C4545 C4544 1.391 . S
C4546 H4536 0.950 . S
C4546 C4547 1.386 . S
C4546 C4548 1.391 . S
C4547 C4546 1.386 . S
C4547 C4551 1.393 . S
C4548 H4537 0.950 . S
C4548 C4546 1.391 . S
C4548 C4549 1.400 . S
C4549 C4543 1.491 . S
C4549 C4548 1.400 . S
C4549 C4550 1.398 . S
C4550 H4538 0.950 . S
C4550 C4549 1.398 . S
C4550 C4551 1.391 . S
C4551 H4539 0.950 . S
C4551 C4547 1.393 . S
C4551 C4550 1.391 . S
H4552 C4560 0.950 . S
H4553 C4565 0.950 . S
H4554 C4562 0.950 . S
H4555 C4564 0.950 . S
H4556 C4566 0.950 . S
H4557 C4568 0.950 . S
H4558 C4570 0.950 . S
H4559 C4571 0.950 . S
C4560 H4552 0.950 . S
C4560 C4561 1.386 . S
C4560 C4562 1.391 . S
C4561 C4560 1.386 . S
C4561 C4565 1.393 . S
C4562 H4554 0.950 . S
C4562 C4560 1.391 . S
C4562 C4563 1.400 . S
C4563 C4562 1.400 . S
C4563 C4564 1.398 . S
C4563 C4569 1.491 . S
C4564 H4555 0.950 . S
C4564 C4563 1.398 . S
C4564 C4565 1.391 . S
C4565 H4553 0.950 . S
C4565 C4561 1.393 . S
C4565 C4564 1.391 . S
C4566 H4556 0.950 . S
C4566 C4567 1.386 . S
C4566 C4568 1.391 . S
C4567 C4566 1.386 . S
C4567 C4571 1.393 . S
C4568 H4557 0.950 . S
C4568 C4566 1.391 . S
C4568 C4569 1.400 . S
C4569 C4563 1.491 . S
C4569 C4568 1.400 . S
C4569 C4570 1.398 . S
C4570 H4558 0.950 . S
C4570 C4569 1.398 . S
C4570 C4571 1.391 . S
C4571 H4559 0.950 . S
C4571 C4567 1.393 . S
C4571 C4570 1.391 . S
H4572 C4580 0.950 . S
H4573 C4585 0.950 . S
H4574 C4582 0.950 . S
H4575 C4584 0.950 . S
H4576 C4586 0.950 . S
H4577 C4588 0.950 . S
H4578 C4590 0.950 . S
H4579 C4591 0.950 . S
C4580 H4572 0.950 . S
C4580 C4581 1.386 . S
C4580 C4582 1.391 . S
C4581 C4580 1.386 . S
C4581 C4585 1.393 . S
C4582 H4574 0.950 . S
C4582 C4580 1.391 . S
C4582 C4583 1.400 . S
C4583 C4582 1.400 . S
C4583 C4584 1.398 . S
C4583 C4589 1.491 . S
C4584 H4575 0.950 . S
C4584 C4583 1.398 . S
C4584 C4585 1.391 . S
C4585 H4573 0.950 . S
C4585 C4581 1.393 . S
C4585 C4584 1.391 . S
C4586 H4576 0.950 . S
C4586 C4587 1.386 . S
C4586 C4588 1.391 . S
C4587 C4586 1.386 . S
C4587 C4591 1.393 . S
C4588 H4577 0.950 . S
C4588 C4586 1.391 . S
C4588 C4589 1.400 . S
C4589 C4583 1.491 . S
C4589 C4588 1.400 . S
C4589 C4590 1.398 . S
C4590 H4578 0.950 . S
C4590 C4589 1.398 . S
C4590 C4591 1.391 . S
C4591 H4579 0.950 . S
C4591 C4587 1.393 . S
C4591 C4590 1.391 . S
H4592 C4600 0.950 . S
H4593 C4605 0.950 . S
H4594 C4602 0.950 . S
H4595 C4604 0.950 . S
H4596 C4606 0.950 . S
H4597 C4608 0.950 . S
H4598 C4610 0.950 . S
H4599 C4611 0.950 . S
C4600 H4592 0.950 . S
C4600 C4601 1.386 . S
C4600 C4602 1.391 . S
C4601 C4600 1.386 . S
C4601 C4605 1.393 . S
C4602 H4594 0.950 . S
C4602 C4600 1.391 . S
C4602 C4603 1.400 . S
C4603 C4602 1.400 . S
C4603 C4604 1.398 . S
C4603 C4609 1.491 . S
C4604 H4595 0.950 . S
C4604 C4603 1.398 . S
C4604 C4605 1.391 . S
C4605 H4593 0.950 . S
C4605 C4601 1.393 . S
C4605 C4604 1.391 . S
C4606 H4596 0.950 . S
C4606 C4607 1.386 . S
C4606 C4608 1.391 . S
C4607 C4606 1.386 . S
C4607 C4611 1.393 . S
C4608 H4597 0.950 . S
C4608 C4606 1.391 . S
C4608 C4609 1.400 . S
C4609 C4603 1.491 . S
C4609 C4608 1.400 . S
C4609 C4610 1.398 . S
C4610 H4598 0.950 . S
C4610 C4609 1.398 . S
C4610 C4611 1.391 . S
C4611 H4599 0.950 . S
C4611 C4607 1.393 . S
C4611 C4610 1.391 . S
H4612 C4620 0.950 . S
H4613 C4625 0.950 . S
H4614 C4622 0.950 . S
H4615 C4624 0.950 . S
H4616 C4626 0.950 . S
H4617 C4628 0.950 . S
H4618 C4630 0.950 . S
H4619 C4631 0.950 . S
C4620 H4612 0.950 . S
C4620 C4621 1.386 . S
C4620 C4622 1.391 . S
C4621 C4620 1.386 . S
C4621 C4625 1.393 . S
C4622 H4614 0.950 . S
C4622 C4620 1.391 . S
C4622 C4623 1.400 . S
C4623 C4622 1.400 . S
C4623 C4624 1.398 . S
C4623 C4629 1.491 . S
C4624 H4615 0.950 . S
C4624 C4623 1.398 . S
C4624 C4625 1.391 . S
C4625 H4613 0.950 . S
C4625 C4621 1.393 . S
C4625 C4624 1.391 . S
C4626 H4616 0.950 . S
C4626 C4627 1.386 . S
C4626 C4628 1.391 . S
C4627 C4626 1.386 . S
C4627 C4631 1.393 . S
C4628 H4617 0.950 . S
C4628 C4626 1.391 . S
C4628 C4629 1.400 . S
C4629 C4623 1.491 . S
C4629 C4628 1.400 . S
C4629 C4630 1.398 . S
C4630 H4618 0.950 . S
C4630 C4629 1.398 . S
C4630 C4631 1.391 . S
C4631 H4619 0.950 . S
C4631 C4627 1.393 . S
C4631 C4630 1.391 . S
H4632 C4640 0.950 . S
H4633 C4645 0.950 . S
H4634 C4642 0.950 . S
H4635 C4644 0.950 . S
H4636 C4646 0.950 . S
H4637 C4648 0.950 . S
H4638 C4650 0.950 . S
H4639 C4651 0.950 . S
C4640 H4632 0.950 . S
C4640 C4641 1.386 . S
C4640 C4642 1.391 . S
C4641 C4640 1.386 . S
C4641 C4645 1.393 . S
C4642 H4634 0.950 . S
C4642 C4640 1.391 . S
C4642 C4643 1.400 . S
C4643 C4642 1.400 . S
C4643 C4644 1.398 . S
C4643 C4649 1.491 . S
C4644 H4635 0.950 . S
C4644 C4643 1.398 . S
C4644 C4645 1.391 . S
C4645 H4633 0.950 . S
C4645 C4641 1.393 . S
C4645 C4644 1.391 . S
C4646 H4636 0.950 . S
C4646 C4647 1.386 . S
C4646 C4648 1.391 . S
C4647 C4646 1.386 . S
C4647 C4651 1.393 . S
C4648 H4637 0.950 . S
C4648 C4646 1.391 . S
C4648 C4649 1.400 . S
C4649 C4643 1.491 . S
C4649 C4648 1.400 . S
C4649 C4650 1.398 . S
C4650 H4638 0.950 . S
C4650 C4649 1.398 . S
C4650 C4651 1.391 . S
C4651 H4639 0.950 . S
C4651 C4647 1.393 . S
C4651 C4650 1.391 . S
H4652 C4660 0.950 . S
H4653 C4665 0.950 . S
H4654 C4662 0.950 . S
H4655 C4664 0.950 . S
H4656 C4666 0.950 . S
H4657 C4668 0.950 . S
H4658 C4670 0.950 . S
H4659 C4671 0.950 . S
C4660 H4652 0.950 . S
C4660 C4661 1.386 . S
C4660 C4662 1.391 . S
C4661 C4660 1.386 . S
C4661 C4665 1.393 . S
C4662 H4654 0.950 . S
C4662 C4660 1.391 . S
C4662 C4663 1.400 . S
C4663 C4662 1.400 . S
C4663 C4664 1.398 . S
C4663 C4669 1.491 . S
C4664 H4655 0.950 . S
C4664 C4663 1.398 . S
C4664 C4665 1.391 . S
C4665 H4653 0.950 . S
C4665 C4661 1.393 . S
C4665 C4664 1.391 . S
C4666 H4656 0.950 . S
C4666 C4667 1.386 . S
C4666 C4668 1.391 . S
C4667 C4666 1.386 . S
C4667 C4671 1.393 . S
C4668 H4657 0.950 . S
C4668 C4666 1.391 . S
C4668 C4669 1.400 . S
C4669 C4663 1.491 . S
C4669 C4668 1.400 . S
C4669 C4670 1.398 . S
C4670 H4658 0.950 . S
C4670 C4669 1.398 . S
C4670 C4671 1.391 . S
C4671 H4659 0.950 . S
C4671 C4667 1.393 . S
C4671 C4670 1.391 . S
H4672 C4680 0.950 . S
H4673 C4685 0.950 . S
H4674 C4682 0.950 . S
H4675 C4684 0.950 . S
H4676 C4686 0.950 . S
H4677 C4688 0.950 . S
H4678 C4690 0.950 . S
H4679 C4691 0.950 . S
C4680 H4672 0.950 . S
C4680 C4681 1.386 . S
C4680 C4682 1.391 . S
C4681 C4680 1.386 . S
C4681 C4685 1.393 . S
C4682 H4674 0.950 . S
C4682 C4680 1.391 . S
C4682 C4683 1.400 . S
C4683 C4682 1.400 . S
C4683 C4684 1.398 . S
C4683 C4689 1.491 . S
C4684 H4675 0.950 . S
C4684 C4683 1.398 . S
C4684 C4685 1.391 . S
C4685 H4673 0.950 . S
C4685 C4681 1.393 . S
C4685 C4684 1.391 . S
C4686 H4676 0.950 . S
C4686 C4687 1.386 . S
C4686 C4688 1.391 . S
C4687 C4686 1.386 . S
C4687 C4691 1.393 . S
C4688 H4677 0.950 . S
C4688 C4686 1.391 . S
C4688 C4689 1.400 . S
C4689 C4683 1.491 . S
C4689 C4688 1.400 . S
C4689 C4690 1.398 . S
C4690 H4678 0.950 . S
C4690 C4689 1.398 . S
C4690 C4691 1.391 . S
C4691 H4679 0.950 . S
C4691 C4687 1.393 . S
C4691 C4690 1.391 . S
H4692 C4700 0.950 . S
H4693 C4705 0.950 . S
H4694 C4702 0.950 . S
H4695 C4704 0.950 . S
H4696 C4706 0.950 . S
H4697 C4708 0.950 . S
H4698 C4710 0.950 . S
H4699 C4711 0.950 . S
C4700 H4692 0.950 . S
C4700 C4701 1.386 . S
C4700 C4702 1.391 . S
C4701 C4700 1.386 . S
C4701 C4705 1.393 . S
C4702 H4694 0.950 . S
C4702 C4700 1.391 . S
C4702 C4703 1.400 . S
C4703 C4702 1.400 . S
C4703 C4704 1.398 . S
C4703 C4709 1.491 . S
C4704 H4695 0.950 . S
C4704 C4703 1.398 . S
C4704 C4705 1.391 . S
C4705 H4693 0.950 . S
C4705 C4701 1.393 . S
C4705 C4704 1.391 . S
C4706 H4696 0.950 . S
C4706 C4707 1.386 . S
C4706 C4708 1.391 . S
C4707 C4706 1.386 . S
C4707 C4711 1.393 . S
C4708 H4697 0.950 . S
C4708 C4706 1.391 . S
C4708 C4709 1.400 . S
C4709 C4703 1.491 . S
C4709 C4708 1.400 . S
C4709 C4710 1.398 . S
C4710 H4698 0.950 . S
C4710 C4709 1.398 . S
C4710 C4711 1.391 . S
C4711 H4699 0.950 . S
C4711 C4707 1.393 . S
C4711 C4710 1.391 . S
H4712 C4720 0.950 . S
H4713 C4725 0.950 . S
H4714 C4722 0.950 . S
H4715 C4724 0.950 . S
H4716 C4726 0.950 . S
H4717 C4728 0.950 . S
H4718 C4730 0.950 . S
H4719 C4731 0.950 . S
C4720 H4712 0.950 . S
C4720 C4721 1.386 . S
C4720 C4722 1.391 . S
C4721 C4720 1.386 . S
C4721 C4725 1.393 . S
C4722 H4714 0.950 . S
C4722 C4720 1.391 . S
C4722 C4723 1.400 . S
C4723 C4722 1.400 . S
C4723 C4724 1.398 . S
C4723 C4729 1.491 . S
C4724 H4715 0.950 . S
C4724 C4723 1.398 . S
C4724 C4725 1.391 . S
C4725 H4713 0.950 . S
C4725 C4721 1.393 . S
C4725 C4724 1.391 . S
C4726 H4716 0.950 . S
C4726 C4727 1.386 . S
C4726 C4728 1.391 . S
C4727 C4726 1.386 . S
C4727 C4731 1.393 . S
C4728 H4717 0.950 . S
C4728 C4726 1.391 . S
C4728 C4729 1.400 . S
C4729 C4723 1.491 . S
C4729 C4728 1.400 . S
C4729 C4730 1.398 . S
C4730 H4718 0.950 . S
C4730 C4729 1.398 . S
C4730 C4731 1.391 . S
C4731 H4719 0.950 . S
C4731 C4727 1.393 . S
C4731 C4730 1.391 . S
H4732 C4740 0.950 . S
H4733 C4745 0.950 . S
H4734 C4742 0.950 . S
H4735 C4744 0.950 . S
H4736 C4746 0.950 . S
H4737 C4748 0.950 . S
H4738 C4750 0.950 . S
H4739 C4751 0.950 . S
C4740 H4732 0.950 . S
C4740 C4741 1.386 . S
C4740 C4742 1.391 . S
C4741 C4740 1.386 . S
C4741 C4745 1.393 . S
C4742 H4734 0.950 . S
C4742 C4740 1.391 . S
C4742 C4743 1.400 . S
C4743 C4742 1.400 . S
C4743 C4744 1.398 . S
C4743 C4749 1.491 . S
C4744 H4735 0.950 . S
C4744 C4743 1.398 . S
C4744 C4745 1.391 . S
C4745 H4733 0.950 . S
C4745 C4741 1.393 . S
C4745 C4744 1.391 . S
C4746 H4736 0.950 . S
C4746 C4747 1.386 . S
C4746 C4748 1.391 . S
C4747 C4746 1.386 . S
C4747 C4751 1.393 . S
C4748 H4737 0.950 . S
C4748 C4746 1.391 . S
C4748 C4749 1.400 . S
C4749 C4743 1.491 . S
C4749 C4748 1.400 . S
C4749 C4750 1.398 . S
C4750 H4738 0.950 . S
C4750 C4749 1.398 . S
C4750 C4751 1.391 . S
C4751 H4739 0.950 . S
C4751 C4747 1.393 . S
C4751 C4750 1.391 . S
C2841 C1183 1.703 . S
C2847 C5 1.687 . S
C2861 C92 1.753 . S
C2867 C1036 1.765 . S
C2881 C123 1.772 . S
C2887 C1095 1.787 . S
C2901 C1154 1.870 . S
C2907 C210 1.873 . S
C2921 C1390 1.861 . S
C2927 C288 1.855 . S
C2941 C298 1.792 . S
C2947 C1272 1.816 . S
C2961 C406 1.698 . S
C2967 C1301 1.704 . S
C2981 C416 1.687 . S
C2987 C947 1.693 . S
C3001 C475 1.692 . S
C3007 C890 1.711 . S
C3021 C583 1.733 . S
C3027 C741 1.732 . S
C3041 C593 1.628 . S
C3047 C772 1.617 . S
C3061 C859 1.778 . S
C3067 C701 1.774 . S
C3081 C1468 1.922 . S
C3087 C2629 1.938 . S
C3101 C2422 1.549 . S
C3107 C1478 1.550 . S
C3121 C1586 1.889 . S
C3127 C2481 1.898 . S
C3141 C2570 1.778 . S
C3147 C1596 1.767 . S
C3161 C1657 1.607 . S
C3167 C2776 1.584 . S
C3181 C2658 1.845 . S
C3187 C1744 1.848 . S
C3201 C1775 1.450 . S
C3207 C2717 1.432 . S
C3221 C2393 1.943 . S
C3227 C1862 1.957 . S
C3241 C1921 1.818 . S
C3247 C2353 1.790 . S
C3261 C2127 1.699 . S
C3267 C1952 1.717 . S
C3281 C2235 1.718 . S
C3287 C2039 1.746 . S
C3301 C2245 1.745 . S
C3307 C2070 1.757 . S
C3321 C1539 1.203 . S
C3327 C52 1.189 . S
C3341 C62 1.132 . S
C3347 C1626 1.141 . S
C3361 C170 1.188 . S
C3367 C1421 1.224 . S
C3381 C180 1.320 . S
C3387 C1508 1.292 . S
C3401 C241 1.374 . S
C3407 C1822 1.319 . S
C3421 C1832 1.203 . S
C3427 C328 1.214 . S
C3441 C1704 1.183 . S
C3447 C359 1.196 . S
C3461 C1714 1.208 . S
C3467 C446 1.202 . S
C3481 C2157 1.291 . S
C3487 C505 1.318 . S
C3501 C536 1.102 . S
C3507 C2188 1.123 . S
C3521 C2275 1.282 . S
C3527 C623 1.309 . S
C3541 C654 1.090 . S
C3547 C2306 1.104 . S
C3561 C711 1.137 . S
C3567 C1891 1.154 . S
C3581 C819 1.251 . S
C3587 C1999 1.255 . S
C3601 C2009 1.142 . S
C3607 C829 1.166 . S
C3621 C2117 1.264 . S
C3627 C937 1.250 . S
C3641 C977 1.260 . S
C3647 C2540 1.262 . S
C3661 C1006 1.190 . S
C3667 C2688 1.210 . S
C3681 C2747 1.324 . S
C3687 C1065 1.302 . S
C3701 C2363 1.027 . S
C3707 C1124 1.021 . S
C3721 C1213 1.268 . S
C3727 C2806 1.272 . S
C3741 C2452 1.344 . S
C3747 C1242 1.362 . S
C3761 C1331 1.326 . S
C3767 C2511 1.303 . S
C3781 C1360 1.037 . S
C3787 C2599 1.051 . S
C3801 C1655 1.827 . S
C3807 C33 1.830 . S
C3821 C1763 1.890 . S
C3827 C64 1.851 . S
C3841 C1773 1.911 . S
C3847 C151 1.942 . S
C3861 C182 1.857 . S
C3867 C1881 1.902 . S
C3881 C1449 1.915 . S
C3887 C239 1.869 . S
C3901 C1480 1.908 . S
C3907 C347 1.941 . S
C3921 C357 1.802 . S
C3927 C1567 1.855 . S
C3941 C1598 1.876 . S
C3947 C465 1.873 . S
C3961 C524 1.833 . S
C3967 C2247 1.833 . S
C3981 C534 1.912 . S
C3987 C2334 1.939 . S
C4001 C2129 1.841 . S
C4007 C642 1.846 . S
C4021 C652 1.943 . S
C4027 C2216 1.961 . S
C4041 C2058 1.975 . S
C4047 C713 1.939 . S
C4061 C800 1.809 . S
C4067 C2068 1.815 . S
C4081 C831 1.943 . S
C4087 C1940 1.963 . S
C4101 C918 1.831 . S
C4107 C1950 1.819 . S
C4121 C2660 1.868 . S
C4127 C996 1.854 . S
C4141 C1008 1.987 . S
C4147 C2589 2.016 . S
C4161 C1067 1.906 . S
C4167 C2648 1.932 . S
C4181 C1126 1.762 . S
C4187 C2424 1.787 . S
C4201 C2483 1.826 . S
C4207 C1232 1.834 . S
C4221 C2412 1.944 . S
C4227 C1244 1.923 . S
C4241 C2778 1.998 . S
C4247 C1350 2.013 . S
C4261 C1362 1.782 . S
C4267 C2719 1.813 . S
C4281 C888 1.467 . S
C4287 C3 1.446 . S
C4301 C111 1.366 . S
C4307 C760 1.364 . S
C4321 C770 1.435 . S
C4327 C121 1.423 . S
C4341 C878 1.341 . S
C4347 C229 1.356 . S
C4361 C564 1.314 . S
C4367 C269 1.323 . S
C4381 C300 1.447 . S
C4387 C595 1.459 . S
C4401 C387 1.389 . S
C4407 C682 1.385 . S
C4421 C477 1.443 . S
C4427 C418 1.433 . S
C4441 C949 1.394 . S
C4447 C1185 1.403 . S
C4461 C1409 1.468 . S
C4467 C1055 1.484 . S
C4481 C1291 1.237 . S
C4487 C1114 1.243 . S
C4501 C1173 1.500 . S
C4507 C1303 1.497 . S
C4521 C2304 1.415 . S
C4527 C1419 1.413 . S
C4541 C2176 1.460 . S
C4547 C1527 1.452 . S
C4561 C1537 1.455 . S
C4567 C2186 1.441 . S
C4581 C2294 1.447 . S
C4587 C1645 1.448 . S
C4601 C1980 1.401 . S
C4607 C1685 1.404 . S
C4621 C1716 1.469 . S
C4627 C2011 1.472 . S
C4641 C1803 1.445 . S
C4647 C2098 1.453 . S
C4661 C1834 1.435 . S
C4667 C1893 1.440 . S
C4681 C2365 1.462 . S
C4687 C2601 1.465 . S
C4701 C2825 1.521 . S
C4707 C2471 1.529 . S
C4721 C2707 1.435 . S
C4727 C2530 1.437 . S
C4741 C2766 1.567 . S
C4747 C2542 1.535 . S
