# Generated by pormake.
# Topology yfr, (5)-cn, num edge types: 1
# Building blocks:
#     Node 0, Type 0, BuildingBlock: BEQFEK_clean_sbu_0, # of connection points: 5
#     Node 1, Type 0, BuildingBlock: BEQFEK_clean_sbu_0, # of connection points: 5
#     Node 2, Type 0, BuildingBlock: BEQFEK_clean_sbu_0, # of connection points: 5
#     Node 3, Type 0, BuildingBlock: BEQFEK_clean_sbu_0, # of connection points: 5
#     Node 4, Type 0, BuildingBlock: BEQFEK_clean_sbu_0, # of connection points: 5
#     Node 5, Type 0, BuildingBlock: BEQFEK_clean_sbu_0, # of connection points: 5
#     Node 6, Type 0, BuildingBlock: BEQFEK_clean_sbu_0, # of connection points: 5
#     Node 7, Type 0, BuildingBlock: BEQFEK_clean_sbu_0, # of connection points: 5
#     Node 8, Type 0, BuildingBlock: BEQFEK_clean_sbu_0, # of connection points: 5
#     Node 9, Type 0, BuildingBlock: BEQFEK_clean_sbu_0, # of connection points: 5
#     Node 10, Type 0, BuildingBlock: BEQFEK_clean_sbu_0, # of connection points: 5
#     Node 11, Type 0, BuildingBlock: BEQFEK_clean_sbu_0, # of connection points: 5
#     Node 12, Type 0, BuildingBlock: BEQFEK_clean_sbu_0, # of connection points: 5
#     Node 13, Type 0, BuildingBlock: BEQFEK_clean_sbu_0, # of connection points: 5
#     Node 14, Type 0, BuildingBlock: BEQFEK_clean_sbu_0, # of connection points: 5
#     Node 15, Type 0, BuildingBlock: BEQFEK_clean_sbu_0, # of connection points: 5
#     Node 16, Type 0, BuildingBlock: BEQFEK_clean_sbu_0, # of connection points: 5
#     Node 17, Type 0, BuildingBlock: BEQFEK_clean_sbu_0, # of connection points: 5
#     Node 18, Type 0, BuildingBlock: BEQFEK_clean_sbu_0, # of connection points: 5
#     Node 19, Type 0, BuildingBlock: BEQFEK_clean_sbu_0, # of connection points: 5
#     Node 20, Type 0, BuildingBlock: BEQFEK_clean_sbu_0, # of connection points: 5
#     Node 21, Type 0, BuildingBlock: BEQFEK_clean_sbu_0, # of connection points: 5
#     Node 22, Type 0, BuildingBlock: BEQFEK_clean_sbu_0, # of connection points: 5
#     Node 23, Type 0, BuildingBlock: BEQFEK_clean_sbu_0, # of connection points: 5
#     Node 24, Type 0, BuildingBlock: BEQFEK_clean_sbu_0, # of connection points: 5
#     Node 25, Type 0, BuildingBlock: BEQFEK_clean_sbu_0, # of connection points: 5
#     Node 26, Type 0, BuildingBlock: BEQFEK_clean_sbu_0, # of connection points: 5
#     Node 27, Type 0, BuildingBlock: BEQFEK_clean_sbu_0, # of connection points: 5
#     Node 28, Type 0, BuildingBlock: BEQFEK_clean_sbu_0, # of connection points: 5
#     Node 29, Type 0, BuildingBlock: BEQFEK_clean_sbu_0, # of connection points: 5
#     Node 30, Type 0, BuildingBlock: BEQFEK_clean_sbu_0, # of connection points: 5
#     Node 31, Type 0, BuildingBlock: BEQFEK_clean_sbu_0, # of connection points: 5
#     Edge 32, Type (0, 0), BuildingBlock: XIVTED_clean_linker_0, # of connection points: 2
#     Edge 33, Type (0, 0), BuildingBlock: XIVTED_clean_linker_0, # of connection points: 2
#     Edge 34, Type (0, 0), BuildingBlock: XIVTED_clean_linker_0, # of connection points: 2
#     Edge 35, Type (0, 0), BuildingBlock: XIVTED_clean_linker_0, # of connection points: 2
#     Edge 36, Type (0, 0), BuildingBlock: XIVTED_clean_linker_0, # of connection points: 2
#     Edge 37, Type (0, 0), BuildingBlock: XIVTED_clean_linker_0, # of connection points: 2
#     Edge 38, Type (0, 0), BuildingBlock: XIVTED_clean_linker_0, # of connection points: 2
#     Edge 39, Type (0, 0), BuildingBlock: XIVTED_clean_linker_0, # of connection points: 2
#     Edge 40, Type (0, 0), BuildingBlock: XIVTED_clean_linker_0, # of connection points: 2
#     Edge 41, Type (0, 0), BuildingBlock: XIVTED_clean_linker_0, # of connection points: 2
#     Edge 42, Type (0, 0), BuildingBlock: XIVTED_clean_linker_0, # of connection points: 2
#     Edge 43, Type (0, 0), BuildingBlock: XIVTED_clean_linker_0, # of connection points: 2
#     Edge 44, Type (0, 0), BuildingBlock: XIVTED_clean_linker_0, # of connection points: 2
#     Edge 45, Type (0, 0), BuildingBlock: XIVTED_clean_linker_0, # of connection points: 2
#     Edge 46, Type (0, 0), BuildingBlock: XIVTED_clean_linker_0, # of connection points: 2
#     Edge 47, Type (0, 0), BuildingBlock: XIVTED_clean_linker_0, # of connection points: 2
#     Edge 48, Type (0, 0), BuildingBlock: XIVTED_clean_linker_0, # of connection points: 2
#     Edge 49, Type (0, 0), BuildingBlock: XIVTED_clean_linker_0, # of connection points: 2
#     Edge 50, Type (0, 0), BuildingBlock: XIVTED_clean_linker_0, # of connection points: 2
#     Edge 51, Type (0, 0), BuildingBlock: XIVTED_clean_linker_0, # of connection points: 2
#     Edge 52, Type (0, 0), BuildingBlock: XIVTED_clean_linker_0, # of connection points: 2
#     Edge 53, Type (0, 0), BuildingBlock: XIVTED_clean_linker_0, # of connection points: 2
#     Edge 54, Type (0, 0), BuildingBlock: XIVTED_clean_linker_0, # of connection points: 2
#     Edge 55, Type (0, 0), BuildingBlock: XIVTED_clean_linker_0, # of connection points: 2
#     Edge 56, Type (0, 0), BuildingBlock: XIVTED_clean_linker_0, # of connection points: 2
#     Edge 57, Type (0, 0), BuildingBlock: XIVTED_clean_linker_0, # of connection points: 2
#     Edge 58, Type (0, 0), BuildingBlock: XIVTED_clean_linker_0, # of connection points: 2
#     Edge 59, Type (0, 0), BuildingBlock: XIVTED_clean_linker_0, # of connection points: 2
#     Edge 60, Type (0, 0), BuildingBlock: XIVTED_clean_linker_0, # of connection points: 2
#     Edge 61, Type (0, 0), BuildingBlock: XIVTED_clean_linker_0, # of connection points: 2
#     Edge 62, Type (0, 0), BuildingBlock: XIVTED_clean_linker_0, # of connection points: 2
#     Edge 63, Type (0, 0), BuildingBlock: XIVTED_clean_linker_0, # of connection points: 2
#     Edge 64, Type (0, 0), BuildingBlock: XIVTED_clean_linker_0, # of connection points: 2
#     Edge 65, Type (0, 0), BuildingBlock: XIVTED_clean_linker_0, # of connection points: 2
#     Edge 66, Type (0, 0), BuildingBlock: XIVTED_clean_linker_0, # of connection points: 2
#     Edge 67, Type (0, 0), BuildingBlock: XIVTED_clean_linker_0, # of connection points: 2
#     Edge 68, Type (0, 0), BuildingBlock: XIVTED_clean_linker_0, # of connection points: 2
#     Edge 69, Type (0, 0), BuildingBlock: XIVTED_clean_linker_0, # of connection points: 2
#     Edge 70, Type (0, 0), BuildingBlock: XIVTED_clean_linker_0, # of connection points: 2
#     Edge 71, Type (0, 0), BuildingBlock: XIVTED_clean_linker_0, # of connection points: 2
#     Edge 72, Type (0, 0), BuildingBlock: XIVTED_clean_linker_0, # of connection points: 2
#     Edge 73, Type (0, 0), BuildingBlock: XIVTED_clean_linker_0, # of connection points: 2
#     Edge 74, Type (0, 0), BuildingBlock: XIVTED_clean_linker_0, # of connection points: 2
#     Edge 75, Type (0, 0), BuildingBlock: XIVTED_clean_linker_0, # of connection points: 2
#     Edge 76, Type (0, 0), BuildingBlock: XIVTED_clean_linker_0, # of connection points: 2
#     Edge 77, Type (0, 0), BuildingBlock: XIVTED_clean_linker_0, # of connection points: 2
#     Edge 78, Type (0, 0), BuildingBlock: XIVTED_clean_linker_0, # of connection points: 2
#     Edge 79, Type (0, 0), BuildingBlock: XIVTED_clean_linker_0, # of connection points: 2
#     Edge 80, Type (0, 0), BuildingBlock: XIVTED_clean_linker_0, # of connection points: 2
#     Edge 81, Type (0, 0), BuildingBlock: XIVTED_clean_linker_0, # of connection points: 2
#     Edge 82, Type (0, 0), BuildingBlock: XIVTED_clean_linker_0, # of connection points: 2
#     Edge 83, Type (0, 0), BuildingBlock: XIVTED_clean_linker_0, # of connection points: 2
#     Edge 84, Type (0, 0), BuildingBlock: XIVTED_clean_linker_0, # of connection points: 2
#     Edge 85, Type (0, 0), BuildingBlock: XIVTED_clean_linker_0, # of connection points: 2
#     Edge 86, Type (0, 0), BuildingBlock: XIVTED_clean_linker_0, # of connection points: 2
#     Edge 87, Type (0, 0), BuildingBlock: XIVTED_clean_linker_0, # of connection points: 2
#     Edge 88, Type (0, 0), BuildingBlock: XIVTED_clean_linker_0, # of connection points: 2
#     Edge 89, Type (0, 0), BuildingBlock: XIVTED_clean_linker_0, # of connection points: 2
#     Edge 90, Type (0, 0), BuildingBlock: XIVTED_clean_linker_0, # of connection points: 2
#     Edge 91, Type (0, 0), BuildingBlock: XIVTED_clean_linker_0, # of connection points: 2
#     Edge 92, Type (0, 0), BuildingBlock: XIVTED_clean_linker_0, # of connection points: 2
#     Edge 93, Type (0, 0), BuildingBlock: XIVTED_clean_linker_0, # of connection points: 2
#     Edge 94, Type (0, 0), BuildingBlock: XIVTED_clean_linker_0, # of connection points: 2
#     Edge 95, Type (0, 0), BuildingBlock: XIVTED_clean_linker_0, # of connection points: 2
#     Edge 96, Type (0, 0), BuildingBlock: XIVTED_clean_linker_0, # of connection points: 2
#     Edge 97, Type (0, 0), BuildingBlock: XIVTED_clean_linker_0, # of connection points: 2
#     Edge 98, Type (0, 0), BuildingBlock: XIVTED_clean_linker_0, # of connection points: 2
#     Edge 99, Type (0, 0), BuildingBlock: XIVTED_clean_linker_0, # of connection points: 2
#     Edge 100, Type (0, 0), BuildingBlock: XIVTED_clean_linker_0, # of connection points: 2
#     Edge 101, Type (0, 0), BuildingBlock: XIVTED_clean_linker_0, # of connection points: 2
#     Edge 102, Type (0, 0), BuildingBlock: XIVTED_clean_linker_0, # of connection points: 2
#     Edge 103, Type (0, 0), BuildingBlock: XIVTED_clean_linker_0, # of connection points: 2
#     Edge 104, Type (0, 0), BuildingBlock: XIVTED_clean_linker_0, # of connection points: 2
#     Edge 105, Type (0, 0), BuildingBlock: XIVTED_clean_linker_0, # of connection points: 2
#     Edge 106, Type (0, 0), BuildingBlock: XIVTED_clean_linker_0, # of connection points: 2
#     Edge 107, Type (0, 0), BuildingBlock: XIVTED_clean_linker_0, # of connection points: 2
#     Edge 108, Type (0, 0), BuildingBlock: XIVTED_clean_linker_0, # of connection points: 2
#     Edge 109, Type (0, 0), BuildingBlock: XIVTED_clean_linker_0, # of connection points: 2
#     Edge 110, Type (0, 0), BuildingBlock: XIVTED_clean_linker_0, # of connection points: 2
#     Edge 111, Type (0, 0), BuildingBlock: XIVTED_clean_linker_0, # of connection points: 2
# Relax obj value: 0.453
# Max RMSD: 0.215
# Mean RMSD: 0.204
data_MOF--net-yfr--node1-BEQFEK_clean_sbu_0--edge1-XIVTED_clean_linker_0
_symmetry_space_group_name_H-M    P1
_symmetry_Int_Tables_number       1
_symmetry_cell_setting            triclinic
loop_
_symmetry_equiv_pos_as_xyz
'x, y, z'
_cell_length_a     61.542637
_cell_length_b     61.563714
_cell_length_c     56.070542
_cell_angle_alpha  90.025763
_cell_angle_beta   89.930875
_cell_angle_gamma 90.020805
loop_
_atom_site_label
_atom_site_type_symbol
_atom_site_fract_x
_atom_site_fract_y
_atom_site_fract_z
_atom_type_partial_charge
Co0 Co 0.04216 0.13435 0.3158 0.0
Co1 Co 0.08042 0.1471 0.28343 0.0
C2 C 0.03871 0.17448 0.28647 0.0
O3 O 0.02913 0.16045 0.29947 0.0
O4 O 0.05804 0.171 0.2792 0.0
C5 C 0.99997 0.11944 0.32888 0.0
O6 O 0.99473 0.12501 0.30702 0.0
C7 C 0.09397 0.15355 0.23511 0.0
C8 C 0.1297 0.15056 0.23576 0.0
C9 C 0.11216 0.15332 0.22052 0.0
N10 N 0.10038 0.15114 0.25781 0.0
N11 N 0.1218 0.14961 0.25822 0.0
C12 C 0.07063 0.15289 0.22757 0.0
H13 H 0.06052 0.14492 0.24142 0.0
H14 H 0.06876 0.14402 0.21046 0.0
H15 H 0.06467 0.16975 0.22512 0.0
C16 C 0.04874 0.09052 0.29272 0.0
N17 N 0.05322 0.11198 0.29527 0.0
N18 N 0.06975 0.11711 0.28158 0.0
C19 C 0.07627 0.09891 0.26976 0.0
C20 C 0.0631 0.08124 0.27628 0.0
C21 C 0.0323 0.07862 0.30744 0.0
H22 H 0.03345 0.0839 0.3263 0.0
H23 H 0.01579 0.08254 0.30081 0.0
H24 H 0.03471 0.06079 0.30663 0.0
O25 O 0.06501 0.14623 0.33782 0.0
O26 O 0.09368 0.15448 0.31543 0.0
H27 H 0.10935 0.10549 0.2604 0.0
H28 H 0.09799 0.082 0.24543 0.0
C29 C 0.09453 0.09858 0.25211 0.0
H30 H 0.09014 0.10882 0.23662 0.0
H31 H 0.13091 0.14703 0.27364 0.0
O32 O 0.01937 0.12199 0.336 0.0
C33 C 0.0842 0.15396 0.33577 0.0
Co34 Co 0.1308 0.80032 0.57539 0.0
Co35 Co 0.11675 0.83429 0.538 0.0
C36 C 0.0907 0.79345 0.54466 0.0
O37 O 0.10355 0.78736 0.56119 0.0
O38 O 0.0946 0.81073 0.53297 0.0
C39 C 0.14718 0.75878 0.58742 0.0
O40 O 0.14203 0.75407 0.56528 0.0
C41 C 0.1048 0.85113 0.49128 0.0
C42 C 0.12323 0.88182 0.48948 0.0
C43 C 0.11138 0.86736 0.4757 0.0
N44 N 0.11325 0.85519 0.51292 0.0
N45 N 0.12365 0.87396 0.51193 0.0
C46 C 0.09055 0.83206 0.48577 0.0
H47 H 0.07763 0.83085 0.49949 0.0
H48 H 0.10037 0.81694 0.48616 0.0
H49 H 0.08252 0.83372 0.46817 0.0
C50 C 0.1741 0.80549 0.55126 0.0
N51 N 0.15261 0.80996 0.5534 0.0
N52 N 0.14686 0.82373 0.5367 0.0
C53 C 0.16456 0.82771 0.52273 0.0
C54 C 0.18263 0.81637 0.53151 0.0
C55 C 0.18676 0.79262 0.56913 0.0
H56 H 0.18002 0.79511 0.58725 0.0
H57 H 0.18573 0.77513 0.56455 0.0
H58 H 0.20413 0.79749 0.56919 0.0
O59 O 0.12032 0.82395 0.59644 0.0
O60 O 0.10778 0.84775 0.57005 0.0
H61 H 0.16519 0.85841 0.50508 0.0
H62 H 0.17774 0.83675 0.4884 0.0
C63 C 0.16402 0.84095 0.50039 0.0
H64 H 0.14859 0.83805 0.49078 0.0
H65 H 0.13249 0.88054 0.52606 0.0
O66 O 0.14354 0.77773 0.59544 0.0
C67 C 0.11014 0.84144 0.59168 0.0
Co68 Co 0.47025 0.88222 0.81957 0.0
Co69 Co 0.43536 0.86942 0.78283 0.0
C70 C 0.47568 0.84145 0.79035 0.0
O71 O 0.48289 0.85484 0.80577 0.0
O72 O 0.45805 0.8455 0.77929 0.0
C73 C 0.51178 0.89259 0.83805 0.0
O74 O 0.51822 0.8868 0.81661 0.0
C75 C 0.42276 0.86809 0.73346 0.0
C76 C 0.38755 0.86123 0.73438 0.0
C77 C 0.40472 0.86542 0.719 0.0
N78 N 0.41652 0.86602 0.75628 0.0
N79 N 0.39546 0.86186 0.7568 0.0
C80 C 0.44588 0.87145 0.72588 0.0
H81 H 0.45722 0.86688 0.74035 0.0
H82 H 0.44863 0.88884 0.72176 0.0
H83 H 0.4495 0.86183 0.70961 0.0
C84 C 0.46647 0.92576 0.79537 0.0
N85 N 0.46177 0.90431 0.79733 0.0
N86 N 0.44599 0.89941 0.78253 0.0
C87 C 0.43979 0.91787 0.77107 0.0
C88 C 0.45268 0.93536 0.77856 0.0
C89 C 0.4839 0.93678 0.80947 0.0
H90 H 0.47857 0.93829 0.82831 0.0
H91 H 0.49883 0.92677 0.80908 0.0
H92 H 0.4878 0.95309 0.80226 0.0
O93 O 0.44519 0.87224 0.83922 0.0
O94 O 0.41981 0.86195 0.81346 0.0
H95 H 0.41287 0.93607 0.75664 0.0
H96 H 0.42454 0.91635 0.73684 0.0
C97 C 0.42001 0.91955 0.75565 0.0
H98 H 0.40761 0.90754 0.76128 0.0
H99 H 0.38649 0.85954 0.77241 0.0
O100 O 0.49158 0.89328 0.84256 0.0
C101 C 0.42666 0.86388 0.83488 0.0
Co102 Co 0.37871 0.22396 0.07107 0.0
Co103 Co 0.39337 0.18813 0.0355 0.0
C104 C 0.42015 0.22914 0.04246 0.0
O105 O 0.40649 0.23646 0.05758 0.0
O106 O 0.41647 0.21128 0.03172 0.0
C107 C 0.36334 0.26597 0.08421 0.0
O108 O 0.36837 0.27103 0.06212 0.0
C109 C 0.40568 0.1721 0.98828 0.0
C110 C 0.3891 0.14039 0.98643 0.0
C111 C 0.39997 0.15558 0.97257 0.0
N112 N 0.39762 0.16745 0.01002 0.0
N113 N 0.38832 0.14811 0.00896 0.0
C114 C 0.41933 0.19167 0.98307 0.0
H115 H 0.4323 0.19293 0.99668 0.0
H116 H 0.40912 0.2065 0.98395 0.0
H117 H 0.42741 0.19057 0.96543 0.0
C118 C 0.33565 0.2173 0.04698 0.0
N119 N 0.35731 0.21364 0.04897 0.0
N120 N 0.36322 0.19881 0.03341 0.0
C121 C 0.34537 0.19314 0.02044 0.0
C122 C 0.32707 0.2045 0.02867 0.0
C123 C 0.32299 0.23105 0.06408 0.0
H124 H 0.32956 0.22916 0.08235 0.0
H125 H 0.32452 0.24834 0.05879 0.0
H126 H 0.30554 0.22655 0.06426 0.0
O127 O 0.38849 0.20053 0.09246 0.0
O128 O 0.40052 0.17468 0.06809 0.0
H129 H 0.34593 0.1609 1.00646 0.0
H130 H 0.33137 0.18004 0.98814 0.0
C131 C 0.34579 0.17784 0.99975 0.0
H132 H 0.36057 0.1807 0.98893 0.0
H133 H 0.38005 0.1409 0.02315 0.0
O134 O 0.36608 0.24661 0.09139 0.0
C135 C 0.39776 0.18227 0.0892 0.0
Co136 Co 0.0583 0.86454 0.18894 0.0
Co137 Co 0.08726 0.85495 0.23226 0.0
C138 C 0.04863 0.82604 0.22146 0.0
O139 O 0.04416 0.83787 0.20339 0.0
O140 O 0.06425 0.83126 0.23533 0.0
C141 C 0.02194 0.87426 0.15757 0.0
O142 O 0.00918 0.87344 0.17635 0.0
C143 C 0.0982 0.85148 0.28266 0.0
C144 C 0.13242 0.86242 0.28314 0.0
C145 C 0.1153 0.8564 0.29777 0.0
N146 N 0.10484 0.85462 0.26011 0.0
N147 N 0.12542 0.86077 0.26046 0.0
C148 C 0.07511 0.84695 0.28948 0.0
H149 H 0.0639 0.85357 0.27581 0.0
H150 H 0.07115 0.8541 0.30712 0.0
H151 H 0.07268 0.82911 0.29046 0.0
C152 C 0.05798 0.9099 0.20968 0.0
N153 N 0.06329 0.88852 0.21009 0.0
N154 N 0.07579 0.88466 0.22859 0.0
C155 C 0.07858 0.90361 0.24072 0.0
C156 C 0.06749 0.9205 0.22915 0.0
C157 C 0.04539 0.92024 0.1899 0.0
H158 H 0.05016 0.91296 0.17258 0.0
H159 H 0.02782 0.91706 0.1927 0.0
H160 H 0.04813 0.93804 0.18923 0.0
O161 O 0.08545 0.85423 0.17459 0.0
O162 O 0.10651 0.84498 0.20478 0.0
H163 H 0.1084 0.90251 0.26019 0.0
H164 H 0.08883 0.92156 0.2721 0.0
C165 C 0.0909 0.90544 0.26362 0.0
H166 H 0.08496 0.893 0.27627 0.0
H167 H 0.13433 0.86492 0.24529 0.0
O168 O 0.04228 0.87256 0.1602 0.0
C169 C 0.10294 0.846 0.18239 0.0
Co170 Co 0.39593 0.79355 0.44025 0.0
Co171 Co 0.40814 0.82897 0.47689 0.0
C172 C 0.43327 0.78572 0.47233 0.0
O173 O 0.42018 0.77796 0.45685 0.0
O174 O 0.42993 0.80445 0.48142 0.0
C175 C 0.39165 0.75875 0.40685 0.0
O176 O 0.40206 0.74696 0.42265 0.0
C177 C 0.40858 0.84169 0.52672 0.0
C178 C 0.41382 0.87716 0.52517 0.0
C179 C 0.40999 0.86015 0.54083 0.0
N180 N 0.41096 0.84758 0.50381 0.0
N181 N 0.41423 0.86878 0.50296 0.0
C182 C 0.40578 0.81865 0.53481 0.0
H183 H 0.38829 0.81509 0.53741 0.0
H184 H 0.41428 0.81595 0.552 0.0
H185 H 0.41204 0.80717 0.52127 0.0
C186 C 0.35146 0.79951 0.46146 0.0
N187 N 0.37297 0.804 0.46017 0.0
N188 N 0.3776 0.82004 0.47476 0.0
C189 C 0.35885 0.82663 0.48543 0.0
C190 C 0.34148 0.81367 0.47762 0.0
C191 C 0.34059 0.78286 0.44613 0.0
H192 H 0.34363 0.78678 0.4271 0.0
H193 H 0.3479 0.7667 0.44965 0.0
H194 H 0.32281 0.78218 0.44926 0.0
O195 O 0.41127 0.81706 0.42329 0.0
O196 O 0.41951 0.84418 0.44738 0.0
H197 H 0.36902 0.85801 0.49789 0.0
H198 H 0.341 0.85167 0.5044 0.0
C199 C 0.3576 0.84489 0.50303 0.0
H200 H 0.36216 0.83882 0.52091 0.0
H201 H 0.41639 0.87757 0.48723 0.0
O202 O 0.38486 0.77743 0.41266 0.0
C203 C 0.42011 0.83542 0.42675 0.0
Co204 Co 0.45609 0.14945 0.68645 0.0
Co205 Co 0.42465 0.16031 0.72767 0.0
C206 C 0.46512 0.18776 0.71834 0.0
O207 O 0.47069 0.17535 0.70113 0.0
O208 O 0.44828 0.18341 0.73082 0.0
C209 C 0.49263 0.14319 0.65572 0.0
O210 O 0.50436 0.14933 0.67409 0.0
C211 C 0.41488 0.16272 0.77833 0.0
C212 C 0.37934 0.15781 0.77966 0.0
C213 C 0.39757 0.1602 0.7939 0.0
N214 N 0.4073 0.16179 0.7559 0.0
N215 N 0.38599 0.15915 0.75677 0.0
C216 C 0.43851 0.16357 0.78451 0.0
H217 H 0.4484 0.15666 0.76979 0.0
H218 H 0.44178 0.15459 0.80128 0.0
H219 H 0.44335 0.18077 0.78709 0.0
C220 C 0.45538 0.10502 0.70872 0.0
N221 N 0.44957 0.12622 0.70786 0.0
N222 N 0.43561 0.13035 0.725 0.0
C223 C 0.43195 0.1116 0.73722 0.0
C224 C 0.44442 0.09472 0.72743 0.0
C225 C 0.47161 0.09502 0.69215 0.0
H226 H 0.48456 0.10693 0.68789 0.0
H227 H 0.47904 0.08028 0.70008 0.0
H228 H 0.46336 0.0905 0.67528 0.0
O229 O 0.43 0.16121 0.67093 0.0
O230 O 0.40662 0.17038 0.69912 0.0
H231 H 0.41112 0.09217 0.75993 0.0
H232 H 0.42224 0.11635 0.77343 0.0
C233 C 0.41551 0.1094 0.75675 0.0
H234 H 0.4006 0.11845 0.75199 0.0
H235 H 0.37613 0.15731 0.74179 0.0
O236 O 0.47247 0.13997 0.6584 0.0
C237 C 0.41205 0.16966 0.67712 0.0
Co238 Co 0.1121 0.20594 0.9402 0.0
Co239 Co 0.10216 0.17022 0.97679 0.0
C240 C 0.074 0.21147 0.97209 0.0
O241 O 0.08692 0.2202 0.95708 0.0
O242 O 0.07828 0.19276 0.9807 0.0
C243 C 0.12461 0.24581 0.91714 0.0
O244 O 0.12047 0.25522 0.93768 0.0
C245 C 0.09882 0.16015 0.02666 0.0
C246 C 0.1024 0.12451 0.02853 0.0
C247 C 0.10021 0.14297 0.04257 0.0
N248 N 0.10008 0.15228 1.00438 0.0
N249 N 0.10198 0.13092 1.00552 0.0
C250 C 0.09922 0.18393 0.03231 0.0
H251 H 0.10627 0.19324 0.01722 0.0
H252 H 0.10882 0.18714 0.04867 0.0
H253 H 0.08234 0.18968 0.03525 0.0
C254 C 0.15692 0.20346 0.96177 0.0
N255 N 0.13576 0.19744 0.9603 0.0
N256 N 0.13194 0.18182 0.97566 0.0
C257 C 0.15076 0.1774 0.98746 0.0
C258 C 0.16742 0.19109 0.97919 0.0
C259 C 0.16726 0.21979 0.94558 0.0
H260 H 0.16222 0.21665 0.92692 0.0
H261 H 0.16164 0.23628 0.95063 0.0
H262 H 0.18525 0.21921 0.94654 0.0
O263 O 0.09942 0.18111 0.92194 0.0
O264 O 0.09309 0.1539 0.94684 0.0
H265 H 0.14516 0.14542 1.00116 0.0
H266 H 0.16957 0.15816 0.01252 0.0
C267 C 0.15253 0.16096 1.00702 0.0
H268 H 0.14345 0.16687 0.0228 0.0
H269 H 0.10382 0.12085 0.99068 0.0
O270 O 0.12255 0.22541 0.91521 0.0
C271 C 0.0923 0.16199 0.92585 0.0
Co272 Co 0.99725 0.84798 0.77347 0.0
Co273 Co 0.96045 0.86612 0.7421 0.0
C274 C 0.0076 0.86955 0.72671 0.0
O275 O 0.01356 0.86093 0.74625 0.0
O276 O 0.98752 0.8732 0.72283 0.0
C277 C 0.03307 0.85461 0.80638 0.0
O278 O 0.03518 0.87427 0.79763 0.0
C279 C 0.93458 0.89974 0.72152 0.0
C280 C 0.90295 0.88393 0.71478 0.0
C281 C 0.91355 0.90379 0.71403 0.0
N282 N 0.93641 0.87859 0.72635 0.0
N283 N 0.91767 0.86898 0.72166 0.0
C284 C 0.95142 0.91616 0.72839 0.0
H285 H 0.96523 0.90831 0.73771 0.0
H286 H 0.94415 0.9287 0.74019 0.0
H287 H 0.9575 0.92442 0.71211 0.0
C288 C 0.96957 0.86524 0.81153 0.0
N289 N 0.97565 0.86541 0.78837 0.0
N290 N 0.95978 0.87334 0.77538 0.0
C291 C 0.94293 0.87827 0.79002 0.0
C292 C 0.94859 0.87339 0.81352 0.0
C293 C 0.98148 0.85281 0.83044 0.0
H294 H 0.98589 0.83649 0.82358 0.0
H295 H 0.99658 0.86166 0.83506 0.0
H296 H 0.97176 0.8507 0.84692 0.0
O297 O 0.98349 0.8203 0.76145 0.0
O298 O 0.95652 0.83501 0.74048 0.0
H299 H 0.91378 0.87016 0.77139 0.0
H300 H 0.90969 0.88811 0.79654 0.0
C301 C 0.92066 0.88405 0.78146 0.0
H302 H 0.92166 0.89822 0.76934 0.0
H303 H 0.91451 0.85257 0.72474 0.0
O304 O 0.01909 0.84153 0.79776 0.0
C305 C 0.96644 0.81852 0.74861 0.0
Co306 Co 0.92447 0.19819 0.49154 0.0
Co307 Co 0.8771 0.1876 0.47898 0.0
C308 C 0.89722 0.22976 0.46275 0.0
O309 O 0.91473 0.22455 0.47348 0.0
O310 O 0.88062 0.21731 0.46369 0.0
C311 C 0.95665 0.21666 0.52185 0.0
O312 O 0.94104 0.22972 0.52894 0.0
C313 C 0.83011 0.18676 0.4836 0.0
C314 C 0.82321 0.15275 0.47333 0.0
C315 C 0.81381 0.17116 0.48306 0.0
N316 N 0.84842 0.17757 0.47556 0.0
N317 N 0.8441 0.15748 0.46879 0.0
C318 C 0.82863 0.20999 0.49141 0.0
H319 H 0.83856 0.2203 0.47937 0.0
H320 H 0.83538 0.21181 0.50961 0.0
H321 H 0.81155 0.21576 0.49123 0.0
C322 C 0.91091 0.18171 0.53903 0.0
N323 N 0.90612 0.18881 0.51685 0.0
N324 N 0.88554 0.18488 0.51231 0.0
C325 C 0.87648 0.17568 0.53206 0.0
C326 C 0.89226 0.17387 0.54981 0.0
C327 C 0.93345 0.17762 0.54804 0.0
H328 H 0.94455 0.17399 0.53304 0.0
H329 H 0.93913 0.19203 0.55812 0.0
H330 H 0.93386 0.16354 0.56039 0.0
O331 O 0.92822 0.17388 0.46943 0.0
O332 O 0.89409 0.16682 0.4596 0.0
H333 H 0.85107 0.15527 0.51884 0.0
H334 H 0.8505 0.15911 0.5508 0.0
C335 C 0.85379 0.16708 0.53345 0.0
H336 H 0.84219 0.18062 0.53137 0.0
H337 H 0.85571 0.14652 0.46256 0.0
O338 O 0.9532 0.20366 0.50473 0.0
C339 C 0.91428 0.16287 0.4579 0.0
Co340 Co 0.51573 0.17881 0.27039 0.0
Co341 Co 0.53834 0.13983 0.24679 0.0
C342 C 0.49467 0.15522 0.22937 0.0
O343 O 0.49434 0.1699 0.24527 0.0
O344 O 0.51056 0.14213 0.22833 0.0
C345 C 0.48159 0.18722 0.29978 0.0
O346 O 0.47893 0.16649 0.29507 0.0
C347 C 0.5423 0.09631 0.22855 0.0
C348 C 0.57777 0.09195 0.22462 0.0
C349 C 0.558 0.08148 0.22176 0.0
N350 N 0.55231 0.1146 0.23543 0.0
N351 N 0.57349 0.1121 0.2327 0.0
C352 C 0.51809 0.09412 0.22652 0.0
H353 H 0.51238 0.10483 0.21196 0.0
H354 H 0.51027 0.09947 0.24338 0.0
H355 H 0.51275 0.07752 0.2218 0.0
C356 C 0.53324 0.15874 0.31343 0.0
N357 N 0.52711 0.15675 0.29043 0.0
N358 N 0.53686 0.13988 0.28089 0.0
C359 C 0.54973 0.13067 0.29769 0.0
C360 C 0.54772 0.14223 0.319 0.0
C361 C 0.52944 0.17886 0.32798 0.0
H362 H 0.53156 0.19348 0.31666 0.0
H363 H 0.51258 0.17867 0.33494 0.0
H364 H 0.54068 0.18007 0.34336 0.0
O365 O 0.54076 0.19395 0.25424 0.0
O366 O 0.55615 0.16467 0.23803 0.0
H367 H 0.58001 0.12112 0.28243 0.0
H368 H 0.57283 0.10649 0.3092 0.0
C369 C 0.56638 0.11365 0.29247 0.0
H370 H 0.55913 0.10068 0.28129 0.0
H371 H 0.585 0.12403 0.23664 0.0
O372 O 0.49783 0.19723 0.29094 0.0
C373 C 0.55583 0.18505 0.24186 0.0
Co374 Co 0.59414 0.79179 0.99605 0.0
Co375 Co 0.63833 0.80949 0.97973 0.0
C376 C 0.62009 0.7655 0.96291 0.0
O377 O 0.60325 0.76692 0.97612 0.0
O378 O 0.63453 0.78047 0.96283 0.0
C379 C 0.55538 0.77442 0.02314 0.0
O380 O 0.56235 0.75429 0.02438 0.0
C381 C 0.68452 0.81343 0.98628 0.0
C382 C 0.69103 0.84523 0.96939 0.0
C383 C 0.70029 0.8294 0.9837 0.0
N384 N 0.66661 0.82008 0.97493 0.0
N385 N 0.67071 0.83879 0.9643 0.0
C386 C 0.68593 0.79221 0.99924 0.0
H387 H 0.67541 0.78 0.99037 0.0
H388 H 0.6799 0.79417 0.01775 0.0
H389 H 0.70295 0.78627 0.99973 0.0
C390 C 0.61226 0.80068 0.04384 0.0
N391 N 0.61459 0.79898 0.01999 0.0
N392 N 0.63221 0.80941 0.01338 0.0
C393 C 0.64072 0.81944 0.03282 0.0
C394 C 0.62856 0.81374 0.05278 0.0
C395 C 0.59366 0.79173 0.0579 0.0
H396 H 0.59037 0.77485 0.05214 0.0
H397 H 0.59722 0.79167 0.0773 0.0
H398 H 0.57911 0.80196 0.05489 0.0
O399 O 0.58794 0.81719 0.97501 0.0
O400 O 0.61974 0.83052 0.96412 0.0
H401 H 0.65843 0.84432 0.01409 0.0
H402 H 0.65442 0.84944 0.04558 0.0
C403 C 0.65776 0.83674 0.032 0.0
H404 H 0.67376 0.8295 0.03624 0.0
H405 H 0.6592 0.84788 0.95501 0.0
O406 O 0.56627 0.78861 0.01201 0.0
C407 C 0.5992 0.83122 0.96382 0.0
Co408 Co 0.95647 0.15313 0.76785 0.0
Co409 Co 0.94048 0.1079 0.78293 0.0
C410 C 0.98423 0.1243 0.79919 0.0
O411 O 0.98089 0.14156 0.78725 0.0
O412 O 0.97029 0.1089 0.79894 0.0
C413 C 0.98166 0.17742 0.73585 0.0
O414 O 0.99186 0.15888 0.7328 0.0
C415 C 0.93335 0.06136 0.77938 0.0
C416 C 0.89924 0.05889 0.79152 0.0
C417 C 0.9158 0.0472 0.78079 0.0
N418 N 0.92702 0.0807 0.78788 0.0
N419 N 0.90685 0.07898 0.79576 0.0
C420 C 0.95584 0.05694 0.77034 0.0
H421 H 0.96785 0.06513 0.78204 0.0
H422 H 0.95787 0.06386 0.75225 0.0
H423 H 0.95925 0.03925 0.76986 0.0
C424 C 0.93934 0.13949 0.72119 0.0
N425 N 0.9454 0.1347 0.74369 0.0
N426 N 0.939 0.11492 0.74903 0.0
C427 C 0.92902 0.10641 0.7294 0.0
C428 C 0.92968 0.12158 0.71095 0.0
C429 C 0.93756 0.162 0.71134 0.0
H430 H 0.93542 0.17384 0.72598 0.0
H431 H 0.95224 0.16564 0.70062 0.0
H432 H 0.92334 0.16356 0.69929 0.0
O433 O 0.93246 0.16138 0.78908 0.0
O434 O 0.9218 0.12858 0.80062 0.0
H435 H 0.90658 0.08388 0.74496 0.0
H436 H 0.90645 0.08416 0.71275 0.0
C437 C 0.91685 0.08542 0.72882 0.0
H438 H 0.92859 0.07187 0.72836 0.0
H439 H 0.89776 0.0919 0.80248 0.0
O440 O 0.96716 0.179 0.75188 0.0
C441 C 0.92001 0.14915 0.80127 0.0
Co442 Co 0.59217 0.2434 0.49967 0.0
Co443 Co 0.62098 0.21365 0.53008 0.0
C444 C 0.61433 0.26091 0.54321 0.0
O445 O 0.60249 0.26377 0.52488 0.0
O446 O 0.62309 0.24249 0.54709 0.0
C447 C 0.58246 0.27864 0.46616 0.0
O448 O 0.59927 0.28961 0.47409 0.0
C449 C 0.66141 0.1965 0.5469 0.0
C450 C 0.65246 0.16397 0.56039 0.0
C451 C 0.66998 0.17764 0.55643 0.0
N452 N 0.63989 0.19419 0.54542 0.0
N453 N 0.63445 0.17496 0.55406 0.0
C454 C 0.67357 0.21494 0.5357 0.0
H455 H 0.66226 0.22624 0.52657 0.0
H456 H 0.68558 0.20858 0.52266 0.0
H457 H 0.68261 0.22392 0.54969 0.0
C458 C 0.61346 0.22021 0.46069 0.0
N459 N 0.61395 0.2269 0.48363 0.0
N460 N 0.62522 0.21293 0.49627 0.0
C461 C 0.63126 0.1963 0.48186 0.0
C462 C 0.62406 0.2004 0.45869 0.0
C463 C 0.5987 0.22969 0.44224 0.0
H464 H 0.58158 0.22766 0.44804 0.0
H465 H 0.60235 0.2472 0.4402 0.0
H466 H 0.60071 0.22185 0.42457 0.0
O467 O 0.57015 0.22271 0.51398 0.0
O468 O 0.59249 0.20205 0.53521 0.0
H469 H 0.6275 0.16809 0.50367 0.0
H470 H 0.6422 0.16329 0.47615 0.0
C471 C 0.63945 0.17498 0.49092 0.0
H472 H 0.65494 0.17756 0.50059 0.0
H473 H 0.61864 0.16886 0.55434 0.0
O474 O 0.57718 0.26062 0.47556 0.0
C475 C 0.5736 0.20655 0.52773 0.0
Co476 Co 0.57985 0.8263 0.28997 0.0
Co477 Co 0.57978 0.87621 0.28741 0.0
C478 C 0.54273 0.85068 0.31084 0.0
O479 O 0.55133 0.83237 0.30569 0.0
O480 O 0.55189 0.8685 0.30477 0.0
C481 C 0.60611 0.79075 0.28065 0.0
O482 O 0.61996 0.80666 0.27705 0.0
C483 C 0.56614 0.91581 0.2645 0.0
C484 C 0.59431 0.93714 0.27184 0.0
C485 C 0.57524 0.93568 0.25887 0.0
N486 N 0.57961 0.90572 0.27962 0.0
N487 N 0.59619 0.91866 0.28436 0.0
C488 C 0.54661 0.90537 0.25349 0.0
H489 H 0.54721 0.88747 0.25572 0.0
H490 H 0.54548 0.9096 0.23429 0.0
H491 H 0.53179 0.91151 0.26254 0.0
C492 C 0.58469 0.83048 0.23746 0.0
N493 N 0.58168 0.83906 0.25936 0.0
N494 N 0.5845 0.86017 0.25837 0.0
C495 C 0.59065 0.86553 0.23592 0.0
C496 C 0.5909 0.84687 0.22187 0.0
C497 C 0.58055 0.80724 0.23115 0.0
H498 H 0.56981 0.79945 0.24454 0.0
H499 H 0.57295 0.80614 0.21324 0.0
H500 H 0.59616 0.79841 0.23033 0.0
O501 O 0.6037 0.83681 0.31043 0.0
O502 O 0.60417 0.8727 0.30958 0.0
H503 H 0.61084 0.88608 0.21391 0.0
H504 H 0.58505 0.89742 0.22219 0.0
C505 C 0.59884 0.88744 0.22863 0.0
H506 H 0.60664 0.8957 0.24393 0.0
H507 H 0.60941 0.91435 0.29493 0.0
O508 O 0.58668 0.79522 0.28687 0.0
C509 C 0.61195 0.85482 0.3167 0.0
Co510 Co 0.92419 0.77117 1.00392 0.0
Co511 Co 0.89261 0.7996 0.03259 0.0
C512 C 0.90189 0.75335 0.04764 0.0
O513 O 0.91446 0.75095 0.02978 0.0
O514 O 0.89168 0.77118 0.05066 0.0
C515 C 0.9353 0.73671 0.96988 0.0
O516 O 0.91725 0.72642 0.97522 0.0
C517 C 0.85161 0.81609 0.0494 0.0
C518 C 0.8598 0.84953 0.06061 0.0
C519 C 0.84265 0.83516 0.05802 0.0
N520 N 0.873 0.81898 0.0471 0.0
N521 N 0.87799 0.83878 0.05442 0.0
C522 C 0.8398 0.79669 0.03983 0.0
H523 H 0.85124 0.78535 0.03091 0.0
H524 H 0.82714 0.80193 0.02697 0.0
H525 H 0.83155 0.78813 0.05471 0.0
C526 C 0.90194 0.79172 0.96356 0.0
N527 N 0.90193 0.78599 0.98681 0.0
N528 N 0.8887 0.79883 0.99865 0.0
C529 C 0.88032 0.81358 0.98322 0.0
C530 C 0.88826 0.80939 0.96034 0.0
C531 C 0.91852 0.78395 0.9459 0.0
H532 H 0.93502 0.78591 0.95352 0.0
H533 H 0.91559 0.76655 0.94204 0.0
H534 H 0.91789 0.79293 0.9288 0.0
O535 O 0.94475 0.79328 0.01787 0.0
O536 O 0.9205 0.81286 0.03773 0.0
H537 H 0.86375 0.84374 0.97531 0.0
H538 H 0.8534 0.82878 1.00059 0.0
C539 C 0.86832 0.83354 0.99083 0.0
H540 H 0.87865 0.84315 1.00314 0.0
H541 H 0.8936 0.84538 0.05389 0.0
O542 O 0.94054 0.75404 0.98079 0.0
C543 C 0.93987 0.80949 0.03101 0.0
Co544 Co 0.54111 0.64792 0.82282 0.0
Co545 Co 0.57247 0.65789 0.78089 0.0
C546 C 0.53355 0.6872 0.79174 0.0
O547 O 0.52757 0.67487 0.80884 0.0
O548 O 0.55001 0.68217 0.77897 0.0
C549 C 0.50636 0.64605 0.85661 0.0
O550 O 0.49433 0.65451 0.83966 0.0
C551 C 0.58379 0.66053 0.72994 0.0
C552 C 0.61889 0.65306 0.73061 0.0
C553 C 0.6016 0.65652 0.71524 0.0
N554 N 0.59019 0.65872 0.7528 0.0
N555 N 0.61126 0.65462 0.75306 0.0
C556 C 0.56104 0.66595 0.7226 0.0
H557 H 0.55334 0.67681 0.73582 0.0
H558 H 0.55128 0.65082 0.72167 0.0
H559 H 0.5608 0.67411 0.70497 0.0
C560 C 0.54124 0.60319 0.80114 0.0
N561 N 0.54669 0.62451 0.80121 0.0
N562 N 0.56043 0.62837 0.78374 0.0
C563 C 0.5641 0.60939 0.77196 0.0
C564 C 0.5521 0.59259 0.78254 0.0
C565 C 0.52733 0.59293 0.81993 0.0
H566 H 0.53248 0.59874 0.83777 0.0
H567 H 0.51023 0.59807 0.81724 0.0
H568 H 0.5283 0.57495 0.81942 0.0
O569 O 0.56811 0.65783 0.83755 0.0
O570 O 0.59149 0.66628 0.80909 0.0
H571 H 0.59526 0.6124 0.75534 0.0
H572 H 0.57876 0.59071 0.74323 0.0
C573 C 0.57851 0.60742 0.75055 0.0
H574 H 0.57251 0.61838 0.73639 0.0
H575 H 0.62027 0.65205 0.76856 0.0
O576 O 0.52528 0.63932 0.85169 0.0
C577 C 0.58647 0.66514 0.83115 0.0
Co578 Co 0.61367 0.29402 0.07893 0.0
Co579 Co 0.60246 0.3253 0.03786 0.0
C580 C 0.57498 0.28516 0.04709 0.0
O581 O 0.58737 0.27955 0.06429 0.0
O582 O 0.57953 0.30182 0.0345 0.0
C583 C 0.62402 0.2565 0.10809 0.0
O584 O 0.6209 0.24458 0.08896 0.0
C585 C 0.59744 0.33647 0.98781 0.0
C586 C 0.60255 0.37198 0.98753 0.0
C587 C 0.59881 0.35431 0.97274 0.0
N588 N 0.60026 0.3433 0.01034 0.0
N589 N 0.60307 0.36457 0.01013 0.0
C590 C 0.59617 0.31298 0.98097 0.0
H591 H 0.60357 0.30269 0.99502 0.0
H592 H 0.6046 0.31002 0.96377 0.0
H593 H 0.57886 0.30827 0.97905 0.0
C594 C 0.65844 0.29593 0.05682 0.0
N595 N 0.63702 0.30107 0.05754 0.0
N596 N 0.63255 0.3146 0.04011 0.0
C597 C 0.65114 0.31831 0.02756 0.0
C598 C 0.66845 0.3066 0.03766 0.0
C599 C 0.66936 0.28217 0.07524 0.0
H600 H 0.66279 0.28606 0.09315 0.0
H601 H 0.66585 0.26482 0.07148 0.0
H602 H 0.6872 0.28471 0.07532 0.0
O603 O 0.60172 0.31977 0.09501 0.0
O604 O 0.59208 0.34273 0.06667 0.0
H605 H 0.64714 0.34888 0.00999 0.0
H606 H 0.66836 0.33209 0.99722 0.0
C607 C 0.65204 0.33202 1.00555 0.0
H608 H 0.64042 0.32556 0.99228 0.0
H609 H 0.60602 0.37392 0.02532 0.0
O610 O 0.62332 0.277 0.10643 0.0
C611 C 0.59278 0.33743 0.08868 0.0
Co612 Co 0.96792 0.36324 0.3242 0.0
Co613 Co 0.93264 0.35333 0.28688 0.0
C614 C 0.97481 0.32596 0.29214 0.0
O615 O 0.9834 0.33895 0.30718 0.0
O616 O 0.956 0.33 0.28356 0.0
C617 C 1.00376 0.36883 0.35673 0.0
O618 O 0.01645 0.36162 0.33962 0.0
C619 C 0.92206 0.35288 0.23611 0.0
C620 C 0.88643 0.34873 0.23594 0.0
C621 C 0.90422 0.35145 0.221 0.0
N622 N 0.91507 0.35141 0.2588 0.0
N623 N 0.89375 0.34889 0.25859 0.0
C624 C 0.94553 0.35455 0.22923 0.0
H625 H 0.95618 0.34963 0.24417 0.0
H626 H 0.94951 0.37161 0.22469 0.0
H627 H 0.94892 0.34431 0.21336 0.0
C628 C 0.9648 0.4084 0.30383 0.0
N629 N 0.95915 0.38714 0.30464 0.0
N630 N 0.94337 0.38348 0.28941 0.0
C631 C 0.93826 0.40263 0.27862 0.0
C632 C 0.95183 0.4193 0.28718 0.0
C633 C 0.98153 0.41824 0.3199 0.0
H634 H 0.97827 0.41327 0.33857 0.0
H635 H 0.99779 0.41189 0.31493 0.0
H636 H 0.9816 0.43622 0.31888 0.0
O637 O 0.94303 0.34924 0.34056 0.0
O638 O 0.91572 0.34293 0.316 0.0
H639 H 0.90687 0.3945 0.26456 0.0
H640 H 0.9157 0.42179 0.25758 0.0
C641 C 0.92106 0.40478 0.25991 0.0
H642 H 0.92765 0.39914 0.2426 0.0
H643 H 0.8842 0.34737 0.27389 0.0
O644 O 0.98398 0.37274 0.35236 0.0
C645 C 0.92407 0.34184 0.33682 0.0
Co646 Co 0.89769 0.73371 0.57766 0.0
Co647 Co 0.90853 0.69694 0.54146 0.0
C648 C 0.93634 0.73797 0.54549 0.0
O649 O 0.92331 0.74626 0.56061 0.0
O650 O 0.93225 0.71948 0.53625 0.0
C651 C 0.90118 0.76971 0.60728 0.0
O652 O 0.91086 0.7785 0.58877 0.0
C653 C 0.90934 0.68326 0.49168 0.0
C654 C 0.91278 0.64763 0.49394 0.0
C655 C 0.91049 0.66459 0.47785 0.0
N656 N 0.91047 0.67758 0.51482 0.0
N657 N 0.91261 0.65625 0.51606 0.0
C658 C 0.90811 0.70629 0.48312 0.0
H659 H 0.91309 0.71777 0.49728 0.0
H660 H 0.89116 0.71028 0.47814 0.0
H661 H 0.91853 0.70853 0.46713 0.0
C662 C 0.85286 0.72886 0.55698 0.0
N663 N 0.8743 0.72401 0.55793 0.0
N664 N 0.87848 0.70786 0.54327 0.0
C665 C 0.85952 0.7017 0.53279 0.0
C666 C 0.84246 0.71492 0.54093 0.0
C667 C 0.84232 0.74557 0.57254 0.0
H668 H 0.84913 0.74465 0.59081 0.0
H669 H 0.846 0.76195 0.56534 0.0
H670 H 0.82445 0.74335 0.57336 0.0
O671 O 0.91038 0.70958 0.59588 0.0
O672 O 0.91839 0.68207 0.57203 0.0
H673 H 0.86743 0.66941 0.52131 0.0
H674 H 0.84089 0.67849 0.51182 0.0
C675 C 0.85786 0.68356 0.51506 0.0
H676 H 0.86464 0.68902 0.4978 0.0
H677 H 0.91383 0.64757 0.53198 0.0
O678 O 0.88907 0.75329 0.60397 0.0
C679 C 0.91842 0.69079 0.59275 0.0
Co680 Co 0.53619 0.37974 0.69222 0.0
Co681 Co 0.56927 0.3662 0.73055 0.0
C682 C 0.52864 0.33952 0.72225 0.0
O683 O 0.52265 0.35268 0.70598 0.0
O684 O 0.54583 0.34327 0.73424 0.0
C685 C 0.49555 0.39388 0.67321 0.0
O686 O 0.48819 0.39039 0.69488 0.0
C687 C 0.58207 0.3588 0.77947 0.0
C688 C 0.6178 0.36204 0.7787 0.0
C689 C 0.60036 0.35848 0.79391 0.0
N690 N 0.5884 0.36229 0.75688 0.0
N691 N 0.60979 0.36402 0.75643 0.0
C692 C 0.55875 0.35842 0.78711 0.0
H693 H 0.54847 0.36701 0.7739 0.0
H694 H 0.55672 0.36614 0.80487 0.0
H695 H 0.55317 0.34131 0.78825 0.0
C696 C 0.54002 0.42319 0.71653 0.0
N697 N 0.54453 0.40171 0.71461 0.0
N698 N 0.55889 0.3963 0.73087 0.0
C699 C 0.56386 0.41434 0.7438 0.0
C700 C 0.552 0.43218 0.73524 0.0
C701 C 0.52597 0.4353 0.6993 0.0
H702 H 0.52901 0.4294 0.68091 0.0
H703 H 0.50866 0.43228 0.70373 0.0
H704 H 0.5291 0.45304 0.69995 0.0
O705 O 0.56112 0.3694 0.67303 0.0
O706 O 0.58496 0.35792 0.69984 0.0
H707 H 0.59549 0.40852 0.75822 0.0
H708 H 0.58107 0.43066 0.7725 0.0
C709 C 0.57938 0.41436 0.76433 0.0
H710 H 0.57339 0.40306 0.77821 0.0
H711 H 0.61885 0.36715 0.74106 0.0
O712 O 0.51561 0.39125 0.6689 0.0
C713 C 0.57905 0.36019 0.67811 0.0
Co714 Co 0.88171 0.27606 0.94897 0.0
Co715 Co 0.89436 0.31579 0.97916 0.0
C716 C 0.92176 0.2736 0.97753 0.0
O717 O 0.90745 0.26312 0.96583 0.0
O718 O 0.91834 0.29335 0.9833 0.0
C719 C 0.8683 0.23371 0.93327 0.0
O720 O 0.87376 0.22731 0.9548 0.0
C721 C 0.89716 0.33011 0.02801 0.0
C722 C 0.90447 0.36515 0.02583 0.0
C723 C 0.90052 0.34845 0.04189 0.0
N724 N 0.89862 0.33572 1.0049 0.0
N725 N 0.90307 0.35669 1.00364 0.0
C726 C 0.89374 0.30726 0.03645 0.0
H727 H 0.87653 0.30492 0.04165 0.0
H728 H 0.90403 0.3039 0.05226 0.0
H729 H 0.89743 0.29546 0.02211 0.0
C730 C 0.83794 0.28326 0.972 0.0
N731 N 0.85933 0.28782 0.969 0.0
N732 N 0.86423 0.30539 0.98111 0.0
C733 C 0.84585 0.31281 0.99193 0.0
C734 C 0.82836 0.29888 0.9868 0.0
C735 C 0.8265 0.26526 0.95917 0.0
H736 H 0.8306 0.26591 0.93993 0.0
H737 H 0.83223 0.24945 0.96625 0.0
H738 H 0.80861 0.26632 0.96119 0.0
O739 O 0.89417 0.2984 0.92672 0.0
O740 O 0.90161 0.32856 0.94683 0.0
H741 H 0.85638 0.34531 0.99976 0.0
H742 H 0.82855 0.33984 1.00804 0.0
C743 C 0.84509 0.33291 1.00698 0.0
H744 H 0.85017 0.32885 0.02538 0.0
H745 H 0.90509 0.36523 0.98772 0.0
O746 O 0.8697 0.25369 0.92793 0.0
C747 C 0.90152 0.31779 0.92728 0.0
Co748 Co 0.97818 0.63266 0.19909 0.0
Co749 Co 0.94424 0.64731 0.2361 0.0
C750 C 0.98527 0.67364 0.22835 0.0
O751 O 0.99152 0.66003 0.21262 0.0
O752 O 0.96785 0.67014 0.24008 0.0
C753 C 0.01958 0.61713 0.18499 0.0
O754 O 0.02464 0.62128 0.20729 0.0
C755 C 0.93093 0.65388 0.28502 0.0
C756 C 0.89507 0.6536 0.28363 0.0
C757 C 0.9125 0.65483 0.29924 0.0
N758 N 0.92473 0.65174 0.26218 0.0
N759 N 0.90327 0.65177 0.26138 0.0
C760 C 0.95422 0.6558 0.29252 0.0
H761 H 0.96055 0.67176 0.28654 0.0
H762 H 0.96403 0.64304 0.28358 0.0
H763 H 0.95632 0.65483 0.31209 0.0
C764 C 0.97186 0.58922 0.2229 0.0
N765 N 0.96842 0.61094 0.22122 0.0
N766 N 0.95385 0.61681 0.23708 0.0
C767 C 0.94775 0.59884 0.24961 0.0
C768 C 0.95901 0.5805 0.24114 0.0
C769 C 0.98549 0.57663 0.20562 0.0
H770 H 0.98344 0.58327 0.18739 0.0
H771 H 1.00283 0.57819 0.21073 0.0
H772 H 0.98103 0.55918 0.20546 0.0
O773 O 0.95418 0.64315 0.17854 0.0
O774 O 0.92981 0.65557 0.20444 0.0
H775 H 0.91617 0.60626 0.26339 0.0
H776 H 0.92892 0.58304 0.27748 0.0
C777 C 0.93176 0.59934 0.26973 0.0
H778 H 0.93809 0.60996 0.28406 0.0
H779 H 0.89423 0.65008 0.24575 0.0
O780 O 1.00024 0.62024 0.17796 0.0
C781 C 0.93636 0.65294 0.18292 0.0
Co782 Co 0.63055 0.73353 0.44992 0.0
Co783 Co 0.61781 0.69467 0.48169 0.0
C784 C 0.58868 0.73381 0.47883 0.0
O785 O 0.60191 0.74265 0.46426 0.0
O786 O 0.59327 0.71564 0.48845 0.0
C787 C 0.64372 0.77754 0.4443 0.0
O788 O 0.63581 0.7799 0.46591 0.0
C789 C 0.60792 0.67309 0.52628 0.0
C790 C 0.62053 0.63987 0.52089 0.0
C791 C 0.61129 0.6535 0.53774 0.0
N792 N 0.61471 0.67119 0.50361 0.0
N793 N 0.62191 0.65117 0.50033 0.0
C794 C 0.60149 0.69421 0.53752 0.0
H795 H 0.61125 0.70766 0.52983 0.0
H796 H 0.60374 0.69391 0.55714 0.0
H797 H 0.58411 0.69738 0.53361 0.0
C798 C 0.67351 0.72777 0.47429 0.0
N799 N 0.65223 0.72278 0.47132 0.0
N800 N 0.64706 0.70662 0.48548 0.0
C801 C 0.66494 0.70122 0.49847 0.0
C802 C 0.68252 0.71447 0.49186 0.0
C803 C 0.68563 0.74333 0.45864 0.0
H804 H 0.67946 0.74233 0.44011 0.0
H805 H 0.68314 0.76011 0.46533 0.0
H806 H 0.70329 0.73978 0.45844 0.0
O807 O 0.62253 0.71168 0.42541 0.0
O808 O 0.61147 0.68406 0.44789 0.0
H809 H 0.66423 0.66785 0.50886 0.0
H810 H 0.67984 0.68504 0.52863 0.0
C811 C 0.66507 0.68409 0.51738 0.0
H812 H 0.65066 0.68606 0.52901 0.0
H813 H 0.62883 0.6456 0.48447 0.0
O814 O 0.6426 0.75919 0.434 0.0
C815 C 0.61392 0.69291 0.42738 0.0
Co816 Co 0.44778 0.34563 0.24109 0.0
Co817 Co 0.43656 0.39227 0.22691 0.0
C818 C 0.47854 0.36897 0.21022 0.0
O819 O 0.4742 0.3518 0.22207 0.0
O820 O 0.46574 0.3854 0.21073 0.0
C821 C 0.42737 0.3124 0.26424 0.0
O822 O 0.4126 0.32773 0.26574 0.0
C823 C 0.43787 0.43849 0.23683 0.0
C824 C 0.40955 0.44997 0.21612 0.0
C825 C 0.42495 0.4566 0.23261 0.0
N826 N 0.42995 0.42195 0.22397 0.0
N827 N 0.41328 0.42895 0.21132 0.0
C828 C 0.45767 0.43661 0.25217 0.0
H829 H 0.46817 0.42319 0.24567 0.0
H830 H 0.45283 0.43275 0.27073 0.0
H831 H 0.46694 0.45208 0.25216 0.0
C832 C 0.44206 0.36272 0.28968 0.0
N833 N 0.44402 0.36592 0.26602 0.0
N834 N 0.43478 0.38435 0.26021 0.0
C835 C 0.42474 0.39239 0.27987 0.0
C836 C 0.42931 0.37901 0.29934 0.0
C837 C 0.45108 0.34369 0.30296 0.0
H838 H 0.46262 0.33436 0.29173 0.0
H839 H 0.4596 0.34952 0.31919 0.0
H840 H 0.43763 0.33313 0.30908 0.0
O841 O 0.42238 0.34458 0.21946 0.0
O842 O 0.41361 0.37788 0.20886 0.0
H843 H 0.39482 0.40697 0.29165 0.0
H844 H 0.41651 0.42564 0.28593 0.0
C845 C 0.40861 0.41055 0.2795 0.0
H846 H 0.40242 0.41324 0.26117 0.0
H847 H 0.40381 0.41916 0.20026 0.0
O848 O 0.44571 0.3164 0.25457 0.0
C849 C 0.41025 0.35764 0.20814 0.0
Co850 Co 0.41784 0.75102 0.01493 0.0
Co851 Co 0.39276 0.7181 0.98406 0.0
C852 C 0.39491 0.7654 0.97038 0.0
O853 O 0.40619 0.76944 0.98886 0.0
O854 O 0.38787 0.74625 0.96647 0.0
C855 C 0.42195 0.78808 0.04792 0.0
O856 O 0.40414 0.7968 0.03932 0.0
C857 C 0.35566 0.69536 0.9654 0.0
C858 C 0.3694 0.66373 0.95443 0.0
C859 C 0.3501 0.67515 0.95644 0.0
N860 N 0.37716 0.69594 0.96841 0.0
N861 N 0.38546 0.67723 0.96124 0.0
C862 C 0.34062 0.71246 0.97481 0.0
H863 H 0.34985 0.72553 0.98395 0.0
H864 H 0.32884 0.70511 0.98746 0.0
H865 H 0.33127 0.71958 0.95982 0.0
C866 C 0.39776 0.72634 0.05347 0.0
N867 N 0.39737 0.73256 0.0304 0.0
N868 N 0.38748 0.7176 0.0177 0.0
C869 C 0.38211 0.7009 0.03231 0.0
C870 C 0.38839 0.70591 0.05559 0.0
C871 C 0.41144 0.73722 0.07204 0.0
H872 H 0.40568 0.75412 0.07439 0.0
H873 H 0.41059 0.72898 0.08957 0.0
H874 H 0.42864 0.73748 0.06609 0.0
O875 O 0.44253 0.73259 1.0021 0.0
O876 O 0.4226 0.70986 0.98044 0.0
H877 H 0.3883 0.67229 0.0118 0.0
H878 H 0.37253 0.66755 0.03858 0.0
C879 C 0.37541 0.67894 0.02357 0.0
H880 H 0.3603 0.68043 0.01297 0.0
H881 H 0.40189 0.6732 0.96237 0.0
O882 O 0.42965 0.77068 0.03906 0.0
C883 C 0.44081 0.71609 0.98844 0.0
Co884 Co 0.06678 0.69315 0.74543 0.0
Co885 Co 0.07244 0.64498 0.73431 0.0
C886 C 0.0331 0.66908 0.71674 0.0
O887 O 0.03938 0.68642 0.72713 0.0
O888 O 0.04431 0.65178 0.71826 0.0
C889 C 0.05168 0.72709 0.77491 0.0
O890 O 0.03732 0.71254 0.78171 0.0
C891 C 0.0626 0.59992 0.73848 0.0
C892 C 0.09201 0.58415 0.72373 0.0
C893 C 0.07196 0.58005 0.73397 0.0
N894 N 0.07654 0.61524 0.73138 0.0
N895 N 0.09401 0.60586 0.72232 0.0
C896 C 0.04049 0.60451 0.74845 0.0
H897 H 0.03931 0.62165 0.75447 0.0
H898 H 0.03663 0.59347 0.76347 0.0
H899 H 0.02822 0.6017 0.73429 0.0
C900 C 0.07945 0.67818 0.79405 0.0
N901 N 0.07309 0.67424 0.77143 0.0
N902 N 0.07436 0.65326 0.7673 0.0
C903 C 0.08071 0.64312 0.78764 0.0
C904 C 0.0837 0.65867 0.80537 0.0
C905 C 0.08605 0.69999 0.80349 0.0
H906 H 0.09146 0.71073 0.78881 0.0
H907 H 0.07219 0.70733 0.81321 0.0
H908 H 0.09968 0.69847 0.81632 0.0
O909 O 0.09206 0.6932 0.72406 0.0
O910 O 0.09637 0.6582 0.71603 0.0
H911 H 0.09609 0.61399 0.77535 0.0
H912 H 0.09197 0.61502 0.80732 0.0
C913 C 0.08491 0.61928 0.78975 0.0
H914 H 0.06939 0.61038 0.7877 0.0
H915 H 0.1074 0.61425 0.7156 0.0
O916 O 0.06462 0.72257 0.75802 0.0
C917 C 0.10232 0.67785 0.71389 0.0
Co918 Co 0.0914 0.26999 0.51829 0.0
Co919 Co 0.119 0.3008 0.48751 0.0
C920 C 0.11362 0.25402 0.47326 0.0
O921 O 0.10185 0.25105 0.49166 0.0
O922 O 0.12244 0.27246 0.46956 0.0
C923 C 0.08945 0.2351 0.55289 0.0
O924 O 0.10916 0.22957 0.54629 0.0
C925 C 0.1564 0.3225 0.46742 0.0
C926 C 0.14325 0.35476 0.45792 0.0
C927 C 0.16221 0.3427 0.4586 0.0
N928 N 0.13504 0.32258 0.47168 0.0
N929 N 0.12708 0.34168 0.46537 0.0
C930 C 0.17126 0.30468 0.47538 0.0
H931 H 0.16207 0.29187 0.485 0.0
H932 H 0.1841 0.31135 0.48719 0.0
H933 H 0.17935 0.29742 0.45958 0.0
C934 C 0.11196 0.2944 0.55677 0.0
N935 N 0.11247 0.28765 0.53386 0.0
N936 N 0.1244 0.3011 0.52121 0.0
C937 C 0.13163 0.31711 0.53583 0.0
C938 C 0.12414 0.31329 0.55898 0.0
C939 C 0.09576 0.28622 0.57466 0.0
H940 H 0.07957 0.28468 0.56618 0.0
H941 H 0.10101 0.27003 0.58106 0.0
H942 H 0.09409 0.29704 0.59033 0.0
O943 O 0.06761 0.28929 0.50578 0.0
O944 O 0.08935 0.31033 0.4842 0.0
H945 H 0.13023 0.34665 0.5159 0.0
H946 H 0.1471 0.34813 0.54225 0.0
C947 C 0.14197 0.33764 0.52717 0.0
H948 H 0.15636 0.33367 0.51612 0.0
H949 H 0.11087 0.34622 0.46747 0.0
O950 O 0.07951 0.25048 0.54242 0.0
C951 C 0.07063 0.30551 0.49203 0.0
Co952 Co 0.50007 0.68692 0.24448 0.0
Co953 Co 0.47106 0.65432 0.27149 0.0
C954 C 0.51569 0.66287 0.28902 0.0
O955 O 0.51759 0.67664 0.27227 0.0
O956 O 0.49853 0.65144 0.29068 0.0
C957 C 0.53726 0.68522 0.21831 0.0
O958 O 0.53345 0.66464 0.2229 0.0
C959 C 0.45292 0.61377 0.28753 0.0
C960 C 0.4191 0.62254 0.29663 0.0
C961 C 0.43333 0.60515 0.29514 0.0
N962 N 0.45042 0.63517 0.28468 0.0
N963 N 0.43035 0.6405 0.29072 0.0
C964 C 0.47273 0.60164 0.27957 0.0
H965 H 0.4841 0.61258 0.26997 0.0
H966 H 0.46807 0.58792 0.26777 0.0
H967 H 0.48109 0.5948 0.2954 0.0
C968 C 0.47976 0.66627 0.20347 0.0
N969 N 0.48534 0.6652 0.22667 0.0
N970 N 0.47292 0.65099 0.23762 0.0
C971 C 0.45871 0.64271 0.22156 0.0
C972 C 0.46263 0.65205 0.19926 0.0
C973 C 0.48725 0.68414 0.18727 0.0
H974 H 0.48829 0.69961 0.19736 0.0
H975 H 0.50373 0.68017 0.18053 0.0
H976 H 0.47628 0.68645 0.17182 0.0
O977 O 0.47811 0.70835 0.25679 0.0
O978 O 0.45909 0.68317 0.27626 0.0
H979 H 0.42833 0.6387 0.23953 0.0
H980 H 0.4306 0.62344 0.21205 0.0
C981 C 0.43949 0.62908 0.22811 0.0
H982 H 0.44495 0.61474 0.2384 0.0
H983 H 0.42403 0.6562 0.28961 0.0
O984 O 0.52294 0.69922 0.22407 0.0
C985 C 0.46203 0.70275 0.26987 0.0
Co986 Co 0.10486 0.71125 0.03321 0.0
Co987 Co 0.15059 0.69291 0.04232 0.0
C988 C 0.13794 0.73692 0.06094 0.0
O989 O 0.11951 0.73482 0.05095 0.0
O990 O 0.1523 0.72202 0.05928 0.0
C991 C 0.0742 0.73586 1.00593 0.0
O992 O 0.09112 0.74615 0.99715 0.0
C993 C 0.19666 0.68518 0.03468 0.0
C994 C 0.19847 0.6498 0.04131 0.0
C995 C 0.21024 0.66725 0.03263 0.0
N996 N 0.17749 0.67834 0.04315 0.0
N997 N 0.17884 0.65733 0.04775 0.0
C998 C 0.20152 0.70844 0.02889 0.0
H999 H 0.19461 0.71906 0.04297 0.0
H1000 H 0.19361 0.71303 0.01189 0.0
H1001 H 0.21928 0.7113 0.02754 0.0
C1002 C 0.11364 0.69574 0.98428 0.0
N1003 N 0.12031 0.70048 1.00657 0.0
N1004 N 0.14036 0.69358 0.00948 0.0
C1005 C 0.14726 0.68493 0.98843 0.0
C1006 C 0.13062 0.68658 0.9717 0.0
C1007 C 0.09039 0.69522 0.9764 0.0
H1008 H 0.07941 0.69295 0.99184 0.0
H1009 H 0.08657 0.71048 0.96685 0.0
H1010 H 0.08751 0.68164 0.96376 0.0
O1011 O 0.09838 0.68678 0.05424 0.0
O1012 O 0.13134 0.67383 0.06136 0.0
H1013 H 0.17067 0.66083 0.99806 0.0
H1014 H 0.16996 0.66684 0.96654 0.0
C1015 C 0.16861 0.67389 0.98467 0.0
H1016 H 0.18182 0.68584 0.98691 0.0
H1017 H 0.16591 0.64783 0.05373 0.0
O1018 O 0.07691 0.72219 0.02258 0.0
C1019 C 0.11086 0.67305 0.0641 0.0
Co1020 Co 0.03084 0.32658 0.75249 0.0
Co1021 Co 0.04646 0.36765 0.77721 0.0
C1022 C 1.0032 0.34723 0.79023 0.0
O1023 O 1.00548 0.33269 0.77427 0.0
O1024 O 0.01768 0.36176 0.79279 0.0
C1025 C 0.0065 0.30722 0.71589 0.0
O1026 O 0.99531 0.32537 0.71668 0.0
C1027 C 0.04384 0.41309 0.78326 0.0
C1028 C 0.07391 0.42168 0.80259 0.0
C1029 C 0.05568 0.43045 0.79176 0.0
N1030 N 0.05473 0.39493 0.78829 0.0
N1031 N 0.07247 0.39995 0.80032 0.0
C1032 C 0.02279 0.41351 0.76985 0.0
H1033 H 0.01226 0.39992 0.77568 0.0
H1034 H 0.02603 0.41125 0.75054 0.0
H1035 H 0.0141 0.42911 0.77259 0.0
C1036 C 0.04844 0.34906 0.70989 0.0
N1037 N 0.04099 0.34959 0.73261 0.0
N1038 N 0.04814 0.3673 0.74304 0.0
C1039 C 0.06058 0.37849 0.72724 0.0
C1040 C 0.06067 0.36751 0.70551 0.0
C1041 C 0.04843 0.32927 0.69427 0.0
H1042 H 0.05204 0.31466 0.70505 0.0
H1043 H 0.03237 0.32769 0.68558 0.0
H1044 H 0.0607 0.33019 0.67982 0.0
O1045 O 0.05589 0.31593 0.77195 0.0
O1046 O 0.06718 0.34649 0.78909 0.0
H1047 H 0.08417 0.39285 0.75046 0.0
H1048 H 0.08693 0.4007 0.71944 0.0
C1049 C 0.0752 0.39693 0.73391 0.0
H1050 H 0.06526 0.41156 0.73747 0.0
H1051 H 0.08398 0.38866 0.80608 0.0
O1052 O 0.02155 0.30379 0.7309 0.0
C1053 C 0.06905 0.32618 0.78551 0.0
Co1054 Co 0.40859 0.29948 0.51269 0.0
Co1055 Co 0.36582 0.31961 0.52987 0.0
C1056 C 0.38125 0.2745 0.54639 0.0
O1057 O 0.39796 0.27525 0.53295 0.0
O1058 O 0.36749 0.29011 0.54647 0.0
C1059 C 0.44336 0.27754 0.48482 0.0
O1060 O 0.432 0.25958 0.48253 0.0
C1061 C 0.32036 0.32736 0.52219 0.0
C1062 C 0.31541 0.35857 0.54098 0.0
C1063 C 0.30563 0.3442 0.52529 0.0
N1064 N 0.33827 0.33211 0.53465 0.0
N1065 N 0.3351 0.35049 0.54632 0.0
C1066 C 0.31801 0.30712 0.5076 0.0
H1067 H 0.32778 0.29383 0.51557 0.0
H1068 H 0.32429 0.30997 0.48933 0.0
H1069 H 0.3007 0.30213 0.50647 0.0
C1070 C 0.39219 0.31299 0.4653 0.0
N1071 N 0.38893 0.30904 0.48875 0.0
N1072 N 0.37227 0.32052 0.49618 0.0
C1073 C 0.3655 0.33337 0.47797 0.0
C1074 C 0.37758 0.32856 0.45763 0.0
C1075 C 0.41089 0.3046 0.45098 0.0
H1076 H 0.42604 0.31258 0.45706 0.0
H1077 H 0.41213 0.28681 0.45334 0.0
H1078 H 0.40885 0.30803 0.43169 0.0
O1079 O 0.41676 0.32437 0.53371 0.0
O1080 O 0.38585 0.33881 0.54615 0.0
H1081 H 0.3515 0.35884 0.49929 0.0
H1082 H 0.35504 0.3656 0.46812 0.0
C1083 C 0.35069 0.35247 0.48082 0.0
H1084 H 0.33381 0.3474 0.47692 0.0
H1085 H 0.34689 0.35826 0.5566 0.0
O1086 O 0.43604 0.29316 0.49712 0.0
C1087 C 0.40642 0.33858 0.54571 0.0
H1088 H 0.07681 0.16888 0.07278 0.0
H1089 H 0.137 0.12792 0.19121 0.0
H1090 H 0.12631 0.11933 0.07225 0.0
H1091 H 0.08832 0.17825 0.18991 0.0
H1092 H 0.13446 0.12509 0.14763 0.0
H1093 H 0.08116 0.17249 0.11581 0.0
C1094 C 0.08874 0.15887 0.08173 0.0
C1095 C 0.10155 0.14412 0.06888 0.0
C1096 C 0.12436 0.13677 0.15689 0.0
C1097 C 0.10641 0.14787 0.11831 0.0
C1098 C 0.12592 0.13849 0.18171 0.0
C1099 C 0.11253 0.15303 0.19415 0.0
C1100 C 0.10941 0.14983 0.14451 0.0
C1101 C 0.09849 0.16639 0.18105 0.0
C1102 C 0.09115 0.16085 0.10634 0.0
C1103 C 0.11618 0.13098 0.08151 0.0
N1104 N 0.09721 0.16438 0.15699 0.0
N1105 N 0.11831 0.13324 0.10555 0.0
H1106 H 0.10827 0.90136 0.44431 0.0
H1107 H 0.10053 0.82626 0.32935 0.0
H1108 H 0.11663 0.83182 0.44701 0.0
H1109 H 0.12869 0.89029 0.3253 0.0
H1110 H 0.09912 0.82962 0.37292 0.0
H1111 H 0.10933 0.89936 0.4004 0.0
C1112 C 0.10996 0.88569 0.4357 0.0
C1113 C 0.11131 0.86663 0.44931 0.0
C1114 C 0.10561 0.84292 0.36246 0.0
C1115 C 0.11259 0.86425 0.39958 0.0
C1116 C 0.10635 0.84103 0.33771 0.0
C1117 C 0.11476 0.85801 0.32394 0.0
C1118 C 0.11298 0.86208 0.37339 0.0
C1119 C 0.12224 0.8768 0.33548 0.0
C1120 C 0.11064 0.88458 0.41077 0.0
C1121 C 0.11415 0.84679 0.43733 0.0
N1122 N 0.12102 0.87844 0.35963 0.0
N1123 N 0.11443 0.84609 0.41318 0.0
H1124 H 0.42521 0.89424 0.6893 0.0
H1125 H 0.38131 0.83851 0.56993 0.0
H1126 H 0.38108 0.83982 0.68896 0.0
H1127 H 0.432 0.8869 0.57105 0.0
H1128 H 0.37865 0.84083 0.61324 0.0
H1129 H 0.42541 0.89399 0.64583 0.0
C1130 C 0.4158 0.88202 0.68007 0.0
C1131 C 0.40372 0.86651 0.69272 0.0
C1132 C 0.39043 0.85087 0.60405 0.0
C1133 C 0.40332 0.86656 0.64291 0.0
C1134 C 0.39217 0.84935 0.57931 0.0
C1135 C 0.40747 0.86196 0.56696 0.0
C1136 C 0.40395 0.8653 0.61652 0.0
C1137 C 0.4202 0.87667 0.57996 0.0
C1138 C 0.41573 0.88204 0.65522 0.0
C1139 C 0.39084 0.85186 0.67983 0.0
N1140 N 0.41826 0.87783 0.60407 0.0
N1141 N 0.39111 0.85212 0.65558 0.0
H1142 H 0.3802 0.12852 0.82209 0.0
H1143 H 0.39551 0.19075 0.94283 0.0
H1144 H 0.41654 0.18831 0.82507 0.0
H1145 H 0.4031 0.12108 0.94172 0.0
H1146 H 0.39658 0.19116 0.89948 0.0
H1147 H 0.38172 0.12628 0.86594 0.0
C1148 C 0.38843 0.14117 0.83203 0.0
C1149 C 0.39831 0.15861 0.82014 0.0
C1150 C 0.39835 0.17583 0.90875 0.0
C1151 C 0.39975 0.15634 0.86983 0.0
C1152 C 0.39815 0.17557 0.93357 0.0
C1153 C 0.40055 0.15595 0.94608 0.0
C1154 C 0.39998 0.15626 0.89619 0.0
C1155 C 0.40182 0.13662 0.9328 0.0
C1156 C 0.38942 0.13979 0.85691 0.0
C1157 C 0.40887 0.17456 0.83367 0.0
N1158 N 0.40145 0.13722 0.9085 0.0
N1159 N 0.40909 0.17319 0.85786 0.0
H1160 H 0.87239 0.80246 0.91559 0.0
H1161 H 0.95192 0.89084 0.85819 0.0
H1162 H 0.90851 0.84884 0.95712 0.0
H1163 H 0.913 0.84675 0.81665 0.0
H1164 H 0.93242 0.8793 0.89425 0.0
H1165 H 0.88278 0.82194 0.87914 0.0
C1166 C 0.88192 0.81721 0.91704 0.0
C1167 C 0.88938 0.82423 0.93938 0.0
C1168 C 0.92781 0.87242 0.87722 0.0
C1169 C 0.90208 0.84623 0.89767 0.0
C1170 C 0.93886 0.87913 0.85662 0.0
C1171 C 0.93396 0.86986 0.8344 0.0
C1172 C 0.91185 0.8561 0.87569 0.0
C1173 C 0.91712 0.85449 0.83339 0.0
C1174 C 0.88806 0.82821 0.89622 0.0
C1175 C 0.90216 0.8431 0.94026 0.0
N1176 N 0.90687 0.84792 0.85373 0.0
N1177 N 0.90833 0.85327 0.91972 0.0
H1178 H 0.88724 0.11669 0.69499 0.0
H1179 H 0.90575 0.19311 0.59044 0.0
H1180 H 0.9527 0.12809 0.67075 0.0
H1181 H 0.87827 0.13308 0.56485 0.0
H1182 H 0.91236 0.17596 0.62917 0.0
H1183 H 0.8738 0.12715 0.65498 0.0
C1184 C 0.8988 0.12047 0.68101 0.0
C1185 C 0.92117 0.12116 0.68605 0.0
C1186 C 0.90439 0.16674 0.61523 0.0
C1187 C 0.90592 0.13396 0.64101 0.0
C1188 C 0.90052 0.17649 0.5932 0.0
C1189 C 0.89132 0.16458 0.57441 0.0
C1190 C 0.89877 0.14493 0.6188 0.0
C1191 C 0.88505 0.14297 0.57896 0.0
C1192 C 0.89111 0.12664 0.65834 0.0
C1193 C 0.93538 0.12707 0.66753 0.0
N1194 N 0.88904 0.13371 0.60073 0.0
N1195 N 0.92752 0.13367 0.64609 0.0
H1196 H 0.53741 0.13471 0.36551 0.0
H1197 H 0.64111 0.19781 0.41369 0.0
H1198 H 0.59107 0.15227 0.32016 0.0
H1199 H 0.59382 0.1681 0.45991 0.0
H1200 H 0.62541 0.17812 0.37969 0.0
H1201 H 0.55953 0.14346 0.40059 0.0
C1202 C 0.55412 0.1398 0.36303 0.0
C1203 C 0.56254 0.14249 0.33997 0.0
C1204 C 0.61877 0.17544 0.39734 0.0
C1205 C 0.58781 0.15337 0.38 0.0
C1206 C 0.62789 0.18653 0.41677 0.0
C1207 C 0.61894 0.18431 0.43965 0.0
C1208 C 0.60025 0.16236 0.40074 0.0
C1209 C 0.6014 0.16997 0.4426 0.0
C1210 C 0.56672 0.14496 0.38303 0.0
C1211 C 0.58411 0.14966 0.33767 0.0
N1212 N 0.59245 0.15981 0.42337 0.0
N1213 N 0.59588 0.15515 0.35738 0.0
H1214 H 0.65003 0.7986 0.09178 0.0
H1215 H 0.57945 0.87091 0.18265 0.0
H1216 H 0.60576 0.84854 0.06907 0.0
H1217 H 0.62028 0.81761 0.20427 0.0
H1218 H 0.59191 0.86592 0.14136 0.0
H1219 H 0.64295 0.80859 0.13348 0.0
C1220 C 0.63935 0.81215 0.09565 0.0
C1221 C 0.62877 0.82308 0.07711 0.0
C1222 C 0.59818 0.85533 0.15514 0.0
C1223 C 0.6199 0.83413 0.12465 0.0
C1224 C 0.59108 0.8582 0.17869 0.0
C1225 C 0.59858 0.84444 0.19683 0.0
C1226 C 0.613 0.83864 0.1497 0.0
C1227 C 0.61364 0.82823 0.19075 0.0
C1228 C 0.63508 0.81769 0.11941 0.0
C1229 C 0.61453 0.84005 0.08296 0.0
N1230 N 0.6203 0.82575 0.16775 0.0
N1231 N 0.61038 0.84497 0.1062 0.0
H1232 H 0.64393 0.64318 0.56829 0.0
H1233 H 0.56993 0.64123 0.68455 0.0
H1234 H 0.57516 0.65602 0.56554 0.0
H1235 H 0.6361 0.66448 0.68596 0.0
H1236 H 0.57208 0.63845 0.64126 0.0
H1237 H 0.6418 0.64205 0.6121 0.0
C1238 C 0.62833 0.64528 0.57698 0.0
C1239 C 0.60965 0.6496 0.56355 0.0
C1240 C 0.58604 0.64432 0.65109 0.0
C1241 C 0.60711 0.64836 0.61316 0.0
C1242 C 0.58473 0.64633 0.67583 0.0
C1243 C 0.60251 0.65421 0.68892 0.0
C1244 C 0.6055 0.64951 0.63941 0.0
C1245 C 0.62184 0.65878 0.67655 0.0
C1246 C 0.62716 0.64484 0.60184 0.0
C1247 C 0.58985 0.65257 0.57544 0.0
N1248 N 0.62283 0.6564 0.65246 0.0
N1249 N 0.58906 0.65186 0.59965 0.0
H1250 H 0.57352 0.33034 0.94217 0.0
H1251 H 0.62711 0.3806 0.82412 0.0
H1252 H 0.62336 0.37961 0.9433 0.0
H1253 H 0.57618 0.33247 0.82348 0.0
H1254 H 0.62704 0.37954 0.86778 0.0
H1255 H 0.57484 0.33036 0.89865 0.0
C1256 C 0.58494 0.34098 0.93326 0.0
C1257 C 0.59869 0.35466 0.94636 0.0
C1258 C 0.61584 0.36925 0.85809 0.0
C1259 C 0.59999 0.35512 0.8965 0.0
C1260 C 0.61595 0.36978 0.83319 0.0
C1261 C 0.60128 0.35697 0.82021 0.0
C1262 C 0.60108 0.35565 0.87006 0.0
C1263 C 0.58726 0.34313 0.8328 0.0
C1264 C 0.58557 0.34111 0.90839 0.0
C1265 C 0.61254 0.36873 0.93385 0.0
N1266 N 0.58745 0.3429 0.85702 0.0
N1267 N 0.61292 0.36853 0.90961 0.0
H1268 H 0.92895 0.37636 0.19028 0.0
H1269 H 0.87181 0.32943 0.07292 0.0
H1270 H 0.87705 0.32926 0.19139 0.0
H1271 H 0.92721 0.37226 0.07084 0.0
H1272 H 0.87243 0.33071 0.11633 0.0
H1273 H 0.9277 0.37644 0.14679 0.0
C1274 C 0.91757 0.3657 0.18143 0.0
C1275 C 0.90355 0.35223 0.19456 0.0
C1276 C 0.88455 0.33977 0.10645 0.0
C1277 C 0.90149 0.35287 0.14462 0.0
C1278 C 0.88435 0.33884 0.0816 0.0
C1279 C 0.89995 0.35017 0.06825 0.0
C1280 C 0.90037 0.35228 0.11814 0.0
C1281 C 0.91505 0.36308 0.0805 0.0
C1282 C 0.91667 0.36599 0.15653 0.0
C1283 C 0.88832 0.33972 0.182 0.0
N1284 N 0.915 0.36367 0.10478 0.0
N1285 N 0.88777 0.34025 0.15777 0.0
H1286 H 0.93353 0.62839 0.33069 0.0
H1287 H 0.88456 0.68701 0.44639 0.0
H1288 H 0.88765 0.68114 0.32739 0.0
H1289 H 0.93321 0.6367 0.44941 0.0
H1290 H 0.88427 0.68412 0.40302 0.0
H1291 H 0.93232 0.63001 0.37426 0.0
C1292 C 0.9234 0.64051 0.33922 0.0
C1293 C 0.91122 0.65515 0.32554 0.0
C1294 C 0.89511 0.67377 0.41313 0.0
C1295 C 0.90925 0.65674 0.37535 0.0
C1296 C 0.8955 0.67562 0.43794 0.0
C1297 C 0.90949 0.66259 0.45153 0.0
C1298 C 0.90868 0.65863 0.40177 0.0
C1299 C 0.92236 0.64724 0.43959 0.0
C1300 C 0.92256 0.64131 0.36407 0.0
C1301 C 0.89755 0.66982 0.33738 0.0
N1302 N 0.92176 0.64578 0.41539 0.0
N1303 N 0.89705 0.67038 0.36164 0.0
H1304 H 0.40152 0.3652 0.45012 0.0
H1305 H 0.39244 0.35606 0.30756 0.0
H1306 H 0.36036 0.3193 0.41397 0.0
H1307 H 0.43995 0.39578 0.34315 0.0
H1308 H 0.37632 0.34693 0.34632 0.0
H1309 H 0.41146 0.38113 0.41141 0.0
C1310 C 0.3941 0.35892 0.43402 0.0
C1311 C 0.37981 0.3412 0.43518 0.0
C1312 C 0.39003 0.35795 0.34573 0.0
C1313 C 0.39153 0.35887 0.39077 0.0
C1314 C 0.39909 0.3633 0.32359 0.0
C1315 C 0.41729 0.37695 0.32222 0.0
C1316 C 0.3993 0.36622 0.36677 0.0
C1317 C 0.4257 0.38546 0.34349 0.0
C1318 C 0.39994 0.36785 0.41192 0.0
C1319 C 0.37113 0.33321 0.4138 0.0
N1320 N 0.41672 0.37989 0.3649 0.0
N1321 N 0.37719 0.34201 0.3925 0.0
H1322 H 0.41848 0.67347 0.05528 0.0
H1323 H 0.42 0.6648 0.19802 0.0
H1324 H 0.37183 0.705 0.10088 0.0
H1325 H 0.47218 0.64304 0.15271 0.0
H1326 H 0.3982 0.67279 0.16246 0.0
H1327 H 0.43399 0.65523 0.09025 0.0
C1328 C 0.41104 0.67594 0.0726 0.0
C1329 C 0.39373 0.69056 0.07522 0.0
C1330 C 0.41426 0.66589 0.16026 0.0
C1331 C 0.41177 0.67029 0.11546 0.0
C1332 C 0.42662 0.66114 0.18057 0.0
C1333 C 0.44785 0.65307 0.17827 0.0
C1334 C 0.42318 0.6626 0.13743 0.0
C1335 C 0.45583 0.64911 0.15522 0.0
C1336 C 0.42005 0.66575 0.0926 0.0
C1337 C 0.38502 0.69363 0.09812 0.0
N1338 N 0.44358 0.65404 0.13572 0.0
N1339 N 0.39425 0.68378 0.11738 0.0
H1340 H 0.13857 0.64644 0.9506 0.0
H1341 H 0.06284 0.67492 0.84361 0.0
H1342 H 0.11851 0.71198 0.93505 0.0
H1343 H 0.12045 0.63909 0.82451 0.0
H1344 H 0.07726 0.67976 0.88385 0.0
H1345 H 0.12831 0.63582 0.9095 0.0
C1346 C 0.13267 0.65869 0.93837 0.0
C1347 C 0.1295 0.68018 0.94613 0.0
C1348 C 0.08656 0.67047 0.87098 0.0
C1349 C 0.11689 0.66797 0.90003 0.0
C1350 C 0.0783 0.66756 0.84811 0.0
C1351 C 0.09045 0.65658 0.83073 0.0
C1352 C 0.10705 0.6621 0.87678 0.0
C1353 C 0.11046 0.64742 0.83751 0.0
C1354 C 0.12664 0.65258 0.9151 0.0
C1355 C 0.12118 0.69526 0.92979 0.0
N1356 N 0.11828 0.65049 0.86009 0.0
N1357 N 0.1148 0.68881 0.90776 0.0
H1358 H 0.04957 0.38242 0.66168 0.0
H1359 H 0.10428 0.35313 0.5589 0.0
H1360 H 0.10333 0.35583 0.70092 0.0
H1361 H 0.13741 0.30825 0.60512 0.0
H1362 H 0.0926 0.37391 0.5939 0.0
H1363 H 0.06881 0.37515 0.62446 0.0
C1364 C 0.06594 0.376 0.66243 0.0
C1365 C 0.07509 0.37022 0.6844 0.0
C1366 C 0.1025 0.35961 0.59652 0.0
C1367 C 0.09726 0.36108 0.64164 0.0
C1368 C 0.10956 0.34799 0.57644 0.0
C1369 C 0.12186 0.32896 0.57913 0.0
C1370 C 0.10753 0.35197 0.61956 0.0
C1371 C 0.128 0.32288 0.6023 0.0
C1372 C 0.07699 0.3717 0.64109 0.0
C1373 C 0.09597 0.36104 0.68435 0.0
N1374 N 0.12058 0.33416 0.62159 0.0
N1375 N 0.10615 0.35637 0.66332 0.0
H1376 H 0.0319 0.94791 0.231 0.0
H1377 H 0.0987 0.05365 0.27526 0.0
H1378 H 0.10116 0.94809 0.24181 0.0
H1379 H 0.03014 0.0546 0.26015 0.0
H1380 H 0.09993 0.01524 0.26332 0.0
H1381 H 0.03086 0.98665 0.24166 0.0
C1382 C 0.04693 0.95606 0.23555 0.0
C1383 C 0.06663 0.94443 0.2356 0.0
C1384 C 0.0846 0.02381 0.26249 0.0
C1385 C 0.06556 0.98925 0.24812 0.0
C1386 C 0.08392 0.0459 0.26915 0.0
C1387 C 0.06433 0.05769 0.26848 0.0
C1388 C 0.0655 0.01308 0.25513 0.0
C1389 C 0.04563 0.04633 0.261 0.0
C1390 C 0.04632 0.97826 0.24175 0.0
C1391 C 0.08551 0.95609 0.24187 0.0
N1392 N 0.04668 0.02486 0.25467 0.0
N1393 N 0.0845 0.97765 0.24786 0.0
H1394 H 0.20992 0.78109 0.5265 0.0
H1395 H 0.31284 0.84837 0.47608 0.0
H1396 H 0.20862 0.85032 0.51549 0.0
H1397 H 0.31573 0.78073 0.49524 0.0
H1398 H 0.27456 0.84928 0.48868 0.0
H1399 H 0.24794 0.78046 0.51346 0.0
C1400 C 0.21759 0.79622 0.52141 0.0
C1401 C 0.2058 0.81581 0.52231 0.0
C1402 C 0.28353 0.83423 0.49023 0.0
C1403 C 0.24984 0.81516 0.50685 0.0
C1404 C 0.30552 0.83373 0.48318 0.0
C1405 C 0.31782 0.81452 0.48491 0.0
C1406 C 0.27342 0.81529 0.49897 0.0
C1407 C 0.30704 0.79594 0.49357 0.0
C1408 C 0.2394 0.79582 0.51383 0.0
C1409 C 0.21679 0.83476 0.51495 0.0
N1410 N 0.28564 0.79679 0.50025 0.0
N1411 N 0.23804 0.83397 0.50762 0.0
H1412 H 0.44301 0.05805 0.69896 0.0
H1413 H 0.45253 0.97202 0.80721 0.0
H1414 H 0.44797 0.07704 0.77268 0.0
H1415 H 0.4487 0.95298 0.73342 0.0
H1416 H 0.45065 0.01027 0.79503 0.0
H1417 H 0.44491 0.01978 0.7111 0.0
C1418 C 0.44461 0.05423 0.71772 0.0
C1419 C 0.44535 0.07104 0.73474 0.0
C1420 C 0.45025 0.99778 0.78144 0.0
C1421 C 0.44734 0.02674 0.74898 0.0
C1422 C 0.45148 0.97583 0.7884 0.0
C1423 C 0.45106 0.95902 0.77137 0.0
C1424 C 0.44851 1.00329 0.75713 0.0
C1425 C 0.44906 0.96523 0.74728 0.0
C1426 C 0.44558 0.03227 0.72468 0.0
C1427 C 0.44709 0.0648 0.75885 0.0
N1428 N 0.44793 0.98669 0.74093 0.0
N1429 N 0.44804 0.04333 0.76519 0.0
H1430 H 0.29714 0.2372 0.02089 0.0
H1431 H 0.198 0.15818 0.98317 0.0
H1432 H 0.30291 0.16752 0.01854 0.0
H1433 H 0.19108 0.22728 0.99218 0.0
H1434 H 0.23634 0.16116 0.9951 0.0
H1435 H 0.25879 0.23393 0.00941 0.0
C1436 C 0.29039 0.22117 0.01801 0.0
C1437 C 0.30355 0.20263 0.02078 0.0
C1438 C 0.22646 0.1757 0.99458 0.0
C1439 C 0.25914 0.1987 1.00724 0.0
C1440 C 0.20442 0.17397 0.98792 0.0
C1441 C 0.19099 0.19246 0.9869 0.0
C1442 C 0.23548 0.19613 1.00017 0.0
C1443 C 0.20065 0.21255 0.99266 0.0
C1444 C 0.26839 0.21931 0.01135 0.0
C1445 C 0.29368 0.18234 0.0164 0.0
N1446 N 0.22211 0.21383 0.99898 0.0
N1447 N 0.27225 0.18094 0.00991 0.0
H1448 H 0.9323 0.03486 0.73736 0.0
H1449 H 0.88171 0.91708 0.74402 0.0
H1450 H 0.88985 0.01347 0.79398 0.0
H1451 H 0.92389 0.93925 0.6877 0.0
H1452 H 0.87721 0.9546 0.75735 0.0
H1453 H 0.92415 1.00203 0.71534 0.0
C1454 C 0.9216 0.02308 0.74545 0.0
C1455 C 0.91238 0.02657 0.768 0.0
C1456 C 0.88692 0.95138 0.74162 0.0
C1457 C 0.9023 0.98908 0.74234 0.0
C1458 C 0.88917 0.93002 0.73378 0.0
C1459 C 0.90342 0.92528 0.71501 0.0
C1460 C 0.89917 0.96783 0.73061 0.0
C1461 C 0.91294 0.94243 0.70243 0.0
C1462 C 0.91659 1.00445 0.73259 0.0
C1463 C 0.89769 0.01114 0.77688 0.0
N1464 N 0.91108 0.96298 0.71083 0.0
N1465 N 0.89328 0.9929 0.76414 0.0
H1466 H 0.77744 0.14889 0.47093 0.0
H1467 H 0.70554 0.19796 0.57443 0.0
H1468 H 0.80333 0.19137 0.5252 0.0
H1469 H 0.68555 0.1433 0.5317 0.0
H1470 H 0.74254 0.1939 0.55916 0.0
H1471 H 0.74394 0.14564 0.49407 0.0
C1472 C 0.77594 0.15778 0.48754 0.0
C1473 C 0.79286 0.17106 0.49569 0.0
C1474 C 0.73021 0.18244 0.55356 0.0
C1475 C 0.75495 0.16704 0.52249 0.0
C1476 C 0.7092 0.18468 0.5624 0.0
C1477 C 0.69269 0.17107 0.55403 0.0
C1478 C 0.73441 0.16673 0.53598 0.0
C1479 C 0.69799 0.15408 0.53851 0.0
C1480 C 0.75696 0.15572 0.50086 0.0
C1481 C 0.79036 0.18181 0.51759 0.0
N1482 N 0.71839 0.15266 0.52952 0.0
N1483 N 0.77166 0.17968 0.53016 0.0
H1484 H 0.58002 0.05632 0.18975 0.0
H1485 H 0.53398 0.95084 0.25269 0.0
H1486 H 0.53095 0.05353 0.2447 0.0
H1487 H 0.59958 0.95748 0.22655 0.0
H1488 H 0.52413 0.98417 0.23164 0.0
H1489 H 0.57894 0.01644 0.18714 0.0
C1490 C 0.56851 0.04739 0.2006 0.0
C1491 C 0.55516 0.0582 0.21701 0.0
C1492 C 0.54049 0.97789 0.22987 0.0
C1493 C 0.55369 0.01315 0.21397 0.0
C1494 C 0.54608 0.95889 0.24181 0.0
C1495 C 0.56771 0.95192 0.24175 0.0
C1496 C 0.55673 0.98985 0.21814 0.0
C1497 C 0.58286 0.96287 0.22749 0.0
C1498 C 0.56779 0.02478 0.19898 0.0
C1499 C 0.54077 0.046 0.23099 0.0
N1500 N 0.57719 0.98164 0.21657 0.0
N1501 N 0.5405 0.02411 0.22923 0.0
H1502 H 0.80782 0.81514 0.07808 0.0
H1503 H 0.73598 0.85205 0.96991 0.0
H1504 H 0.82601 0.86763 0.0313 0.0
H1505 H 0.71003 0.81551 0.02918 0.0
H1506 H 0.76861 0.85933 0.99331 0.0
H1507 H 0.77063 0.81726 0.06298 0.0
C1508 C 0.8037 0.82758 0.0652 0.0
C1509 C 0.81977 0.84106 0.05563 0.0
C1510 C 0.75571 0.84972 1.00116 0.0
C1511 C 0.77789 0.84315 0.03776 0.0
C1512 C 0.73723 0.84536 0.98773 0.0
C1513 C 0.72057 0.83244 0.9972 0.0
C1514 C 0.75754 0.84104 0.02421 0.0
C1515 C 0.72278 0.82459 0.02057 0.0
C1516 C 0.78259 0.82873 0.05647 0.0
C1517 C 0.8139 0.85696 0.03902 0.0
N1518 N 0.74104 0.82885 0.03319 0.0
N1519 N 0.79345 0.85724 0.03013 0.0
H1520 H 0.58745 0.459 0.74287 0.0
H1521 H 0.5168 0.56566 0.77554 0.0
H1522 H 0.51752 0.45932 0.74529 0.0
H1523 H 0.58674 0.5647 0.77543 0.0
H1524 H 0.51667 0.5269 0.76484 0.0
H1525 H 0.58756 0.49738 0.75499 0.0
C1526 C 0.57209 0.46704 0.74622 0.0
C1527 C 0.55245 0.45565 0.74326 0.0
C1528 C 0.53208 0.53512 0.76711 0.0
C1529 C 0.55241 0.50015 0.75682 0.0
C1530 C 0.53215 0.55731 0.77331 0.0
C1531 C 0.5518 0.56869 0.77622 0.0
C1532 C 0.55183 0.52393 0.76378 0.0
C1533 C 0.57117 0.55684 0.77299 0.0
C1534 C 0.57216 0.48909 0.75299 0.0
C1535 C 0.53308 0.4673 0.7473 0.0
N1536 N 0.57069 0.53529 0.76695 0.0
N1537 N 0.53355 0.48873 0.75382 0.0
H1538 H 0.80329 0.26701 1.00766 0.0
H1539 H 0.69599 0.34061 0.02572 0.0
H1540 H 0.79914 0.33327 0.98358 0.0
H1541 H 0.69562 0.27098 0.03294 0.0
H1542 H 0.73425 0.33894 0.01324 0.0
H1543 H 0.76492 0.26869 0.01983 0.0
C1544 C 0.79439 0.28199 1.00504 0.0
C1545 C 0.80484 0.30012 0.99488 0.0
C1546 C 0.72583 0.32398 0.01748 0.0
C1547 C 0.76043 0.30226 0.00906 0.0
C1548 C 0.70382 0.32491 0.02448 0.0
C1549 C 0.69218 0.30588 0.03017 0.0
C1550 C 0.73672 0.30388 0.0164 0.0
C1551 C 0.70373 0.28613 0.02887 0.0
C1552 C 0.77239 0.28295 0.01204 0.0
C1553 C 0.79221 0.31905 0.99198 0.0
N1554 N 0.72517 0.28566 0.02223 0.0
N1555 N 0.77088 0.31963 0.99906 0.0
H1556 H 0.92218 0.5552 0.24885 0.0
H1557 H 0.98744 0.44354 0.2736 0.0
H1558 H 0.99202 0.55117 0.24998 0.0
H1559 H 0.91861 0.44997 0.28534 0.0
H1560 H 0.98918 0.48226 0.26305 0.0
H1561 H 0.92021 0.51668 0.26032 0.0
C1562 C 0.93715 0.54637 0.25181 0.0
C1563 C 0.95733 0.55683 0.24871 0.0
C1564 C 0.97364 0.47524 0.26781 0.0
C1565 C 0.95516 0.51199 0.26129 0.0
C1566 C 0.97263 0.45303 0.27389 0.0
C1567 C 0.95279 0.44312 0.28013 0.0
C1568 C 0.95463 0.48802 0.2678 0.0
C1569 C 0.9342 0.45653 0.28009 0.0
C1570 C 0.936 0.5242 0.25819 0.0
C1571 C 0.97607 0.54401 0.25209 0.0
N1572 N 0.93556 0.47807 0.27401 0.0
N1573 N 0.97453 0.52248 0.25809 0.0
H1574 H 0.70852 0.74941 0.50317 0.0
H1575 H 0.81399 0.67997 0.54102 0.0
H1576 H 0.71009 0.67951 0.50034 0.0
H1577 H 0.81601 0.74867 0.52681 0.0
H1578 H 0.77547 0.67949 0.52948 0.0
H1579 H 0.74684 0.74953 0.51512 0.0
C1580 C 0.71687 0.73404 0.50506 0.0
C1581 C 0.7058 0.71443 0.50063 0.0
C1582 C 0.78432 0.69467 0.52876 0.0
C1583 C 0.75014 0.71442 0.51481 0.0
C1584 C 0.80646 0.69493 0.53515 0.0
C1585 C 0.81861 0.71431 0.53438 0.0
C1586 C 0.77387 0.71402 0.52186 0.0
C1587 C 0.80748 0.73331 0.5276 0.0
C1588 C 0.73884 0.73412 0.51197 0.0
C1589 C 0.71766 0.69505 0.50383 0.0
N1590 N 0.78591 0.73268 0.52164 0.0
N1591 N 0.73902 0.69554 0.51069 0.0
H1592 H 0.45356 0.57028 0.3153 0.0
H1593 H 0.40973 0.49441 0.21456 0.0
H1594 H 0.39971 0.58823 0.27033 0.0
H1595 H 0.4381 0.46727 0.27836 0.0
H1596 H 0.40729 0.52945 0.23452 0.0
H1597 H 0.44893 0.53233 0.30297 0.0
C1598 C 0.44044 0.56606 0.3033 0.0
C1599 C 0.42717 0.58222 0.29349 0.0
C1600 C 0.41407 0.51579 0.24412 0.0
C1601 C 0.4221 0.53941 0.27904 0.0
C1602 C 0.41565 0.49583 0.23268 0.0
C1603 C 0.42482 0.47798 0.24447 0.0
C1604 C 0.42188 0.51799 0.26747 0.0
C1605 C 0.43194 0.48071 0.26808 0.0
C1606 C 0.43781 0.54452 0.29628 0.0
C1607 C 0.41027 0.57614 0.27821 0.0
N1608 N 0.43055 0.50046 0.27875 0.0
N1609 N 0.4085 0.55521 0.271 0.0
H1610 H 0.3134 0.68934 0.9347 0.0
H1611 H 0.24406 0.6398 0.04059 0.0
H1612 H 0.33762 0.64067 0.98304 0.0
H1613 H 0.22076 0.68807 0.99107 0.0
H1614 H 0.27621 0.63469 0.01545 0.0
H1615 H 0.27662 0.68259 0.94931 0.0
C1616 C 0.31076 0.67667 0.9478 0.0
C1617 C 0.32833 0.66575 0.95803 0.0
C1618 C 0.26402 0.6464 0.01011 0.0
C1619 C 0.2868 0.65854 0.97548 0.0
C1620 C 0.24584 0.64947 0.02456 0.0
C1621 C 0.23022 0.66505 0.01844 0.0
C1622 C 0.26644 0.65893 0.98934 0.0
C1623 C 0.23287 0.67668 0.99716 0.0
C1624 C 0.28986 0.67295 0.95633 0.0
C1625 C 0.32433 0.64944 0.97485 0.0
N1626 N 0.25074 0.67351 0.98349 0.0
N1627 N 0.30395 0.64669 0.98356 0.0
H1628 H 0.06124 0.46637 0.81947 0.0
H1629 H 0.06518 0.54412 0.70735 0.0
H1630 H 0.04581 0.4459 0.74784 0.0
H1631 H 0.06321 0.5684 0.77944 0.0
H1632 H 0.05654 0.50781 0.72225 0.0
H1633 H 0.06069 0.50427 0.80586 0.0
C1634 C 0.05733 0.46994 0.80104 0.0
C1635 C 0.05315 0.45319 0.78484 0.0
C1636 C 0.05759 0.52114 0.7348 0.0
C1637 C 0.05284 0.4959 0.76915 0.0
C1638 C 0.06254 0.54173 0.72628 0.0
C1639 C 0.06451 0.55897 0.74226 0.0
C1640 C 0.05521 0.5179 0.75949 0.0
C1641 C 0.06129 0.55536 0.76664 0.0
C1642 C 0.05695 0.49144 0.79331 0.0
C1643 C 0.04846 0.45838 0.76108 0.0
N1644 N 0.05698 0.53507 0.77463 0.0
N1645 N 0.04858 0.4793 0.75391 0.0
H1646 H 0.27011 0.36637 0.54066 0.0
H1647 H 0.19762 0.32796 0.43462 0.0
H1648 H 0.29632 0.33419 0.47858 0.0
H1649 H 0.17666 0.37636 0.48519 0.0
H1650 H 0.23522 0.33416 0.44677 0.0
H1651 H 0.23681 0.37372 0.51841 0.0
C1652 C 0.26882 0.36076 0.5224 0.0
C1653 C 0.28558 0.34871 0.51187 0.0
C1654 C 0.2225 0.34393 0.45474 0.0
C1655 C 0.24784 0.35734 0.4862 0.0
C1656 C 0.20112 0.34045 0.44768 0.0
C1657 C 0.18427 0.35148 0.45921 0.0
C1658 C 0.22676 0.35811 0.47382 0.0
C1659 C 0.18937 0.36752 0.476 0.0
C1660 C 0.24992 0.36513 0.50963 0.0
C1661 C 0.28338 0.34236 0.48796 0.0
N1662 N 0.21021 0.36997 0.48331 0.0
N1663 N 0.26471 0.34647 0.47604 0.0
H1664 H 0.01774 0.31358 0.29809 0.0
H1665 H 0.99545 0.18645 0.28971 0.0
H1666 H 0.95558 0.28851 0.27575 0.0
H1667 H 0.05904 0.21313 0.27601 0.0
H1668 H 0.98028 0.2234 0.28831 0.0
H1669 H 0.03319 0.27691 0.29381 0.0
C1670 C 0.00737 0.30048 0.29204 0.0
C1671 C 0.98529 0.30437 0.28712 0.0
C1672 C 0.99752 0.22112 0.28537 0.0
C1673 C 1.00282 0.262 0.28288 0.0
C1674 C 1.00621 0.19999 0.28613 0.0
C1675 C 0.0286 0.19646 0.28279 0.0
C1676 C 0.01133 0.2391 0.28192 0.0
C1677 C 0.04167 0.21487 0.27844 0.0
C1678 C 0.01621 0.2795 0.28963 0.0
C1679 C 0.9727 0.28651 0.27954 0.0
N1680 N 0.03294 0.23528 0.27847 0.0
N1681 N 0.98152 0.26619 0.27798 0.0
H1682 H 0.06465 0.79031 0.50453 0.0
H1683 H 0.9577 0.76476 0.57641 0.0
H1684 H 0.06669 0.773 0.57899 0.0
H1685 H 0.96592 0.73314 0.50832 0.0
H1686 H 0.99558 0.77667 0.57475 0.0
H1687 H 0.02688 0.77684 0.50267 0.0
C1688 C 0.0573 0.78345 0.52039 0.0
C1689 C 0.06904 0.78263 0.54192 0.0
C1690 C 0.98902 0.76733 0.56006 0.0
C1691 C 0.02558 0.76806 0.54006 0.0
C1692 C 0.96727 0.76069 0.56082 0.0
C1693 C 0.95839 0.74795 0.5424 0.0
C1694 C 1.00209 0.76177 0.54046 0.0
C1695 C 0.97197 0.74296 0.52289 0.0
C1696 C 0.03576 0.77581 0.51929 0.0
C1697 C 0.0585 0.77372 0.56193 0.0
N1698 N 0.99308 0.75 0.52233 0.0
N1699 N 0.03736 0.76718 0.56062 0.0
H1700 H 0.50074 0.82037 0.82335 0.0
H1701 H 0.53101 0.71361 0.75169 0.0
H1702 H 0.47359 0.81158 0.75314 0.0
H1703 H 0.5135 0.71167 0.82613 0.0
H1704 H 0.51716 0.75124 0.74963 0.0
H1705 H 0.51371 0.78277 0.82247 0.0
C1706 C 0.49783 0.81072 0.80751 0.0
C1707 C 0.48604 0.81939 0.78824 0.0
C1708 C 0.51623 0.74244 0.76631 0.0
C1709 C 0.50115 0.77598 0.78715 0.0
C1710 C 0.5241 0.72095 0.76752 0.0
C1711 C 0.52327 0.70921 0.78907 0.0
C1712 C 0.5082 0.75262 0.78699 0.0
C1713 C 0.51428 0.71982 0.80904 0.0
C1714 C 0.50509 0.78913 0.80716 0.0
C1715 C 0.4826 0.80572 0.7684 0.0
N1716 N 0.50747 0.74088 0.80761 0.0
N1717 N 0.49024 0.7848 0.76828 0.0
H1718 H 0.44853 0.22988 1.00397 0.0
H1719 H 0.55163 0.263 0.08091 0.0
H1720 H 0.44285 0.25076 0.07709 0.0
H1721 H 0.54772 0.28398 1.00768 0.0
H1722 H 0.51387 0.25053 0.07861 0.0
H1723 H 0.4865 0.24284 1.00363 0.0
C1724 C 0.45514 0.23735 0.01987 0.0
C1725 C 0.44225 0.23937 0.04053 0.0
C1726 C 0.52134 0.25767 0.06297 0.0
C1727 C 0.48604 0.25347 0.04049 0.0
C1728 C 0.54304 0.2646 0.06416 0.0
C1729 C 0.55311 0.27453 0.04442 0.0
C1730 C 0.50952 0.26009 0.04172 0.0
C1731 C 0.54076 0.27639 0.02334 0.0
C1732 C 0.47683 0.24472 0.01965 0.0
C1733 C 0.45191 0.2491 0.06063 0.0
N1734 N 0.51973 0.26913 0.02249 0.0
N1735 N 0.47318 0.25543 0.06022 0.0
H1736 H 0.98528 0.70342 0.26569 0.0
H1737 H 0.02819 0.8019 0.18704 0.0
H1738 H 0.00979 0.69428 0.19433 0.0
H1739 H 0.0445 0.79993 0.26178 0.0
H1740 H 0.01395 0.76484 0.19004 0.0
H1741 H 1.00039 0.74061 0.26552 0.0
C1742 C 0.99401 0.70907 0.2501 0.0
C1743 C 0.99639 0.6954 0.23008 0.0
C1744 C 0.02048 0.77257 0.20585 0.0
C1745 C 0.013 0.7384 0.22947 0.0
C1746 C 0.02847 0.79388 0.20423 0.0
C1747 C 0.03758 0.80432 0.2242 0.0
C1748 C 0.02098 0.76147 0.22774 0.0
C1749 C 0.03764 0.79268 0.24589 0.0
C1750 C 1.00259 0.73034 0.25002 0.0
C1751 C 0.00771 0.70392 0.21032 0.0
N1752 N 0.02936 0.77202 0.24712 0.0
N1753 N 0.01523 0.7248 0.2104 0.0
H1754 H 0.55978 0.73074 0.51675 0.0
H1755 H 0.45581 0.75972 0.44142 0.0
H1756 H 0.56558 0.75633 0.44546 0.0
H1757 H 0.4606 0.78819 0.51151 0.0
H1758 H 0.49367 0.74766 0.44468 0.0
H1759 H 0.52131 0.74238 0.51737 0.0
C1760 C 0.55309 0.73898 0.50137 0.0
C1761 C 0.56613 0.74279 0.48114 0.0
C1762 C 0.48629 0.75626 0.45948 0.0
C1763 C 0.52194 0.75518 0.48138 0.0
C1764 C 0.46458 0.76297 0.45778 0.0
C1765 C 0.45481 0.77495 0.47627 0.0
C1766 C 0.49835 0.76096 0.48009 0.0
C1767 C 0.46736 0.77896 0.49684 0.0
C1768 C 0.53115 0.74555 0.50173 0.0
C1769 C 0.55638 0.75331 0.4616 0.0
N1770 N 0.48841 0.77189 0.49827 0.0
N1771 N 0.53491 0.75877 0.46206 0.0
H1772 H 0.48881 0.20995 0.68499 0.0
H1773 H 0.52737 0.31129 0.76086 0.0
H1774 H 0.46642 0.21534 0.75767 0.0
H1775 H 0.50523 0.31781 0.68828 0.0
H1776 H 0.51218 0.27412 0.76174 0.0
H1777 H 0.50312 0.24696 0.68743 0.0
C1778 C 0.48722 0.21871 0.70166 0.0
C1779 C 0.47635 0.20928 0.72118 0.0
C1780 C 0.51052 0.28384 0.74575 0.0
C1781 C 0.49301 0.25201 0.72405 0.0
C1782 C 0.51914 0.30506 0.74522 0.0
C1783 C 0.51745 0.31793 0.72453 0.0
C1784 C 0.50082 0.27508 0.72517 0.0
C1785 C 0.50676 0.30876 0.70474 0.0
C1786 C 0.49525 0.23997 0.70292 0.0
C1787 C 0.47466 0.22182 0.74217 0.0
N1788 N 0.49922 0.28792 0.70544 0.0
N1789 N 0.48301 0.24245 0.74311 0.0
H1790 H 0.06107 0.25411 0.96543 0.0
H1791 H 0.93418 0.23037 0.97636 0.0
H1792 H 0.03688 0.19205 0.98927 0.0
H1793 H 0.96035 0.29473 0.98621 0.0
H1794 H 0.97131 0.21567 0.97787 0.0
H1795 H 0.02425 0.26918 0.96968 0.0
C1796 C 0.04813 0.24369 0.9718 0.0
C1797 C 0.0523 0.22174 0.97711 0.0
C1798 C 0.96889 0.23299 0.97995 0.0
C1799 C 0.00976 0.23885 0.98139 0.0
C1800 C 0.94764 0.24141 0.97913 0.0
C1801 C 0.94391 0.26388 0.98133 0.0
C1802 C 0.98676 0.24711 0.98236 0.0
C1803 C 0.96224 0.27731 0.98466 0.0
C1804 C 0.02706 0.25232 0.9742 0.0
C1805 C 0.03465 0.20908 0.98514 0.0
N1806 N 0.98274 0.2688 0.98474 0.0
N1807 N 0.01423 0.21769 0.98671 0.0
H1808 H 0.07657 0.85179 0.79881 0.0
H1809 H 0.03272 0.73857 0.81736 0.0
H1810 H 0.02674 0.83485 0.84926 0.0
H1811 H 0.08321 0.75759 0.76807 0.0
H1812 H 0.04128 0.77024 0.84184 0.0
H1813 H 0.09287 0.81617 0.80428 0.0
C1814 C 0.06981 0.84106 0.81222 0.0
C1815 C 0.04943 0.84533 0.82222 0.0
C1816 C 0.05074 0.76729 0.82586 0.0
C1817 C 0.06694 0.80454 0.82743 0.0
C1818 C 0.04556 0.74943 0.81165 0.0
C1819 C 0.05658 0.74601 0.79009 0.0
C1820 C 0.06675 0.78205 0.81817 0.0
C1821 C 0.07369 0.76006 0.78409 0.0
C1822 C 0.07888 0.82046 0.81504 0.0
C1823 C 0.04183 0.83136 0.84008 0.0
N1824 N 0.07797 0.77765 0.79781 0.0
N1825 N 0.04992 0.81093 0.84127 0.0
H1826 H 0.98485 0.18264 0.51957 0.0
H1827 H 0.06665 0.24768 0.59191 0.0
H1828 H 0.97104 0.24082 0.55987 0.0
H1829 H 0.08177 0.1918 0.54888 0.0
H1830 H 0.03008 0.23377 0.59791 0.0
H1831 H 0.01652 0.17625 0.54424 0.0
C1832 C 0.98854 0.19418 0.53357 0.0
C1833 C 0.9758 0.21285 0.53702 0.0
C1834 C 0.0416 0.22398 0.58801 0.0
C1835 C 0.01222 0.20552 0.56542 0.0
C1836 C 0.06262 0.2318 0.58486 0.0
C1837 C 0.07658 0.22138 0.56875 0.0
C1838 C 0.03479 0.20615 0.57432 0.0
C1839 C 0.07098 0.20069 0.56063 0.0
C1840 C 0.00646 0.19028 0.54795 0.0
C1841 C 0.98087 0.22665 0.55607 0.0
N1842 N 0.05003 0.1941 0.56258 0.0
N1843 N 0.99902 0.22298 0.56923 0.0
H1844 H 0.41255 0.3044 0.3093 0.0
H1845 H 0.48355 0.22207 0.32956 0.0
H1846 H 0.43288 0.27298 0.24426 0.0
H1847 H 0.43875 0.18138 0.29091 0.0
H1848 H 0.45596 0.25054 0.33106 0.0
H1849 H 0.41451 0.26914 0.33002 0.0
C1850 C 0.41683 0.28998 0.2993 0.0
C1851 C 0.42347 0.2914 0.27541 0.0
C1852 C 0.45171 0.23493 0.32342 0.0
C1853 C 0.42421 0.25158 0.29825 0.0
C1854 C 0.46754 0.21882 0.32236 0.0
C1855 C 0.4635 0.19985 0.30938 0.0
C1856 C 0.43254 0.2323 0.31019 0.0
C1857 C 0.44253 0.19613 0.30058 0.0
C1858 C 0.41762 0.26999 0.31102 0.0
C1859 C 0.42828 0.27243 0.26291 0.0
N1860 N 0.42808 0.21273 0.30007 0.0
N1861 N 0.42873 0.25322 0.27457 0.0
H1862 H 0.541 0.81608 0.02731 0.0
H1863 H 0.4372 0.77407 0.09065 0.0
H1864 H 0.52944 0.75133 0.05424 0.0
H1865 H 0.44012 0.82796 0.04197 0.0
H1866 H 0.47605 0.7775 0.09767 0.0
H1867 H 0.51031 0.82924 0.05036 0.0
C1868 C 0.53208 0.80456 0.03816 0.0
C1869 C 0.5373 0.78231 0.03812 0.0
C1870 C 0.46804 0.78931 0.08637 0.0
C1871 C 0.50231 0.79761 0.06489 0.0
C1872 C 0.44578 0.78755 0.08257 0.0
C1873 C 0.436 0.79984 0.06446 0.0
C1874 C 0.48006 0.80355 0.072 0.0
C1875 C 0.44746 0.81754 0.05526 0.0
C1876 C 0.51476 0.81225 0.0516 0.0
C1877 C 0.52555 0.76845 0.05313 0.0
N1878 N 0.46932 0.81831 0.05824 0.0
N1879 N 0.50829 0.77626 0.0656 0.0
H1880 H 0.95151 0.20838 0.72638 0.0
H1881 H 0.03579 0.27978 0.69559 0.0
H1882 H 0.01378 0.1844 0.70259 0.0
H1883 H 0.96826 0.29811 0.69298 0.0
H1884 H 0.02682 0.24517 0.67765 0.0
H1885 H 0.95368 0.23727 0.69768 0.0
C1886 C 0.96575 0.20919 0.71506 0.0
C1887 C 0.98298 0.19449 0.71762 0.0
C1888 C 0.01392 0.25692 0.68017 0.0
C1889 C 0.98615 0.22863 0.68534 0.0
C1890 C 0.01906 0.27668 0.69067 0.0
C1891 C 1.0024 0.29091 0.69746 0.0
C1892 C 0.99196 0.25102 0.67837 0.0
C1893 C 0.98135 0.28682 0.68939 0.0
C1894 C 0.96686 0.22562 0.69828 0.0
C1895 C 1.00057 0.19598 0.70185 0.0
N1896 N 0.9765 0.26676 0.68091 0.0
N1897 N 1.00209 0.21328 0.68689 0.0
H1898 H 0.46455 0.24997 0.45382 0.0
H1899 H 0.56517 0.31934 0.46691 0.0
H1900 H 0.46506 0.3158 0.48052 0.0
H1901 H 0.56383 0.25914 0.42787 0.0
H1902 H 0.52727 0.32535 0.45642 0.0
H1903 H 0.49795 0.25783 0.43171 0.0
C1904 C 0.4716 0.26606 0.45493 0.0
C1905 C 0.46258 0.2819 0.46987 0.0
C1906 C 0.53541 0.31115 0.44931 0.0
C1907 C 0.50046 0.29118 0.44449 0.0
C1908 C 0.55721 0.30794 0.45507 0.0
C1909 C 0.56701 0.28814 0.44936 0.0
C1910 C 0.52368 0.29408 0.43859 0.0
C1911 C 0.55627 0.27411 0.43362 0.0
C1912 C 0.49048 0.27069 0.44205 0.0
C1913 C 0.47191 0.30275 0.46999 0.0
N1914 N 0.53476 0.27683 0.42957 0.0
N1915 N 0.49051 0.30665 0.45788 0.0
H1916 H 0.63096 0.7803 0.24202 0.0
H1917 H 0.55258 0.72034 0.19389 0.0
H1918 H 0.59192 0.75197 0.29786 0.0
H1919 H 0.57277 0.66743 0.23906 0.0
H1920 H 0.58546 0.74012 0.20495 0.0
H1921 H 0.62692 0.74679 0.21872 0.0
C1922 C 0.62242 0.76666 0.24986 0.0
C1923 C 0.61094 0.76901 0.27137 0.0
C1924 C 0.58332 0.72367 0.21143 0.0
C1925 C 0.60713 0.73087 0.24547 0.0
C1926 C 0.56448 0.71249 0.20521 0.0
C1927 C 0.55982 0.69259 0.21609 0.0
C1928 C 0.59671 0.71527 0.22949 0.0
C1929 C 0.57569 0.68298 0.23061 0.0
C1930 C 0.62023 0.74762 0.23658 0.0
C1931 C 0.60039 0.75091 0.28096 0.0
N1932 N 0.59298 0.69491 0.2379 0.0
N1933 N 0.59843 0.73261 0.26771 0.0
H1934 H 0.06489 0.75277 0.96156 0.0
H1935 H 0.95783 0.75586 0.93406 0.0
H1936 H 0.03803 0.71335 0.01812 0.0
H1937 H 0.9518 0.69583 0.97273 0.0
H1938 H 0.99676 0.75077 0.93188 0.0
H1939 H 0.0329 0.74443 0.93716 0.0
C1940 C 0.05213 0.74272 0.96899 0.0
C1941 C 0.05392 0.73414 0.99212 0.0
C1942 C 0.98704 0.73798 0.9397 0.0
C1943 C 0.01775 0.7241 0.96423 0.0
C1944 C 0.96464 0.74084 0.94079 0.0
C1945 C 0.95201 0.72686 0.95485 0.0
C1946 C 0.99639 0.72107 0.95295 0.0
C1947 C 0.96127 0.70742 0.96258 0.0
C1948 C 0.03405 0.7377 0.95493 0.0
C1949 C 0.03728 0.72063 1.00057 0.0
N1950 N 0.98322 0.70551 0.96249 0.0
N1951 N 0.01998 0.71608 0.98665 0.0
H1952 H 0.09644 0.21288 0.47532 0.0
H1953 H 0.1168 0.18492 0.33695 0.0
H1954 H 0.13193 0.25534 0.42804 0.0
H1955 H 0.07301 0.14965 0.38292 0.0
H1956 H 0.12745 0.2076 0.37112 0.0
H1957 H 0.09284 0.18662 0.44297 0.0
C1958 C 0.10378 0.21663 0.45824 0.0
C1959 C 0.11443 0.23658 0.45456 0.0
C1960 C 0.11572 0.19471 0.37377 0.0
C1961 C 0.11012 0.20628 0.41696 0.0
C1962 C 0.10975 0.18159 0.35428 0.0
C1963 C 0.0939 0.16527 0.35691 0.0
C1964 C 0.10594 0.19143 0.39619 0.0
C1965 C 0.08521 0.16201 0.37987 0.0
C1966 C 0.10161 0.20157 0.43966 0.0
C1967 C 0.12356 0.24027 0.43185 0.0
N1968 N 0.09124 0.17497 0.39844 0.0
N1969 N 0.12106 0.2254 0.41393 0.0
H1970 H 0.11892 0.83981 0.63953 0.0
H1971 H 1.00116 0.88131 0.67951 0.0
H1972 H 0.07293 0.86658 0.58962 0.0
H1973 H 0.05167 0.86252 0.72865 0.0
H1974 H 0.02753 0.87895 0.64668 0.0
H1975 H 0.09532 0.85093 0.67236 0.0
C1976 C 0.10403 0.84841 0.63545 0.0
C1977 C 0.09803 0.85225 0.61163 0.0
C1978 C 0.0329 0.87565 0.6647 0.0
C1979 C 0.07036 0.86466 0.64951 0.0
C1980 C 0.01783 0.87709 0.68354 0.0
C1981 C 0.02402 0.87203 0.70707 0.0
C1982 C 0.05438 0.86897 0.66927 0.0
C1983 C 0.04595 0.86652 0.71093 0.0
C1984 C 0.09045 0.8547 0.65428 0.0
C1985 C 0.0784 0.86341 0.60762 0.0
N1986 N 0.06014 0.86493 0.69233 0.0
N1987 N 0.06516 0.86893 0.62629 0.0
H1988 H 0.39643 0.8308 0.83321 0.0
H1989 H 0.40615 0.8084 0.97369 0.0
H1990 H 0.43096 0.87188 0.88266 0.0
H1991 H 0.37952 0.76175 0.92423 0.0
H1992 H 0.40884 0.83476 0.94138 0.0
H1993 H 0.38377 0.80862 0.8669 0.0
C1994 C 0.40091 0.83551 0.85116 0.0
C1995 C 0.41491 0.85322 0.85502 0.0
C1996 C 0.40216 0.81886 0.93758 0.0
C1997 C 0.40066 0.8277 0.89369 0.0
C1998 C 0.40053 0.80375 0.95611 0.0
C1999 C 0.39279 0.78263 0.95176 0.0
C2000 C 0.39609 0.81295 0.91431 0.0
C2001 C 0.38567 0.77776 0.9285 0.0
C2002 C 0.39382 0.8227 0.87038 0.0
C2003 C 0.42032 0.85833 0.87873 0.0
N2004 N 0.38773 0.79269 0.91063 0.0
N2005 N 0.41336 0.84559 0.89703 0.0
H2006 H 0.45565 0.17698 0.22853 0.0
H2007 H 0.43117 0.15206 0.09073 0.0
H2008 H 0.49484 0.1333 0.18641 0.0
H2009 H 0.38938 0.19003 0.13636 0.0
H2010 H 0.45299 0.14219 0.12582 0.0
H2011 H 0.42991 0.17958 0.19549 0.0
C2012 C 0.45876 0.16771 0.21245 0.0
C2013 C 0.47756 0.15489 0.2104 0.0
C2014 C 0.43884 0.15241 0.12818 0.0
C2015 C 0.44804 0.15804 0.17204 0.0
C2016 C 0.42623 0.15791 0.10813 0.0
C2017 C 0.40838 0.17202 0.11042 0.0
C2018 C 0.43363 0.16113 0.15072 0.0
C2019 C 0.40303 0.17924 0.13354 0.0
C2020 C 0.44401 0.16922 0.1935 0.0
C2021 C 0.48058 0.1433 0.18897 0.0
N2022 N 0.41566 0.17394 0.15258 0.0
N2023 N 0.46615 0.14531 0.17061 0.0
H2024 H 0.16018 0.73911 0.10356 0.0
H2025 H 0.10709 0.85455 0.13497 0.0
H2026 H 0.12161 0.77772 0.05548 0.0
H2027 H 0.12968 0.81038 0.18919 0.0
H2028 H 0.12158 0.83041 0.1044 0.0
H2029 H 0.15775 0.76843 0.1334 0.0
C2030 C 0.15176 0.75398 0.09901 0.0
C2031 C 0.14104 0.75594 0.07698 0.0
C2032 C 0.12374 0.8261 0.12297 0.0
C2033 C 0.13812 0.78945 0.11103 0.0
C2034 C 0.11558 0.83999 0.14051 0.0
C2035 C 0.11696 0.83445 0.16477 0.0
C2036 C 0.13331 0.80628 0.12954 0.0
C2037 C 0.12826 0.81535 0.17075 0.0
C2038 C 0.15021 0.77062 0.11613 0.0
C2039 C 0.13006 0.77545 0.07223 0.0
N2040 N 0.13568 0.80176 0.15325 0.0
N2041 N 0.1288 0.7913 0.08908 0.0
H2042 H 0.45252 0.86685 0.42891 0.0
H2043 H 0.51126 0.81934 0.31452 0.0
H2044 H 0.42139 0.82232 0.38028 0.0
H2045 H 0.52815 0.88294 0.34093 0.0
H2046 H 0.47939 0.81926 0.34066 0.0
H2047 H 0.48104 0.87315 0.39878 0.0
C2048 C 0.45133 0.85881 0.41177 0.0
C2049 C 0.43451 0.84386 0.40733 0.0
C2050 C 0.48995 0.83334 0.34062 0.0
C2051 C 0.46746 0.85049 0.37313 0.0
C2052 C 0.50821 0.83336 0.32572 0.0
C2053 C 0.52243 0.85119 0.32542 0.0
C2054 C 0.48602 0.85105 0.35589 0.0
C2055 C 0.51756 0.8689 0.34042 0.0
C2056 C 0.46772 0.86229 0.39465 0.0
C2057 C 0.43407 0.83379 0.38477 0.0
N2058 N 0.49996 0.86828 0.35527 0.0
N2059 N 0.45041 0.83698 0.36881 0.0
H2060 H 0.35455 0.2717 0.58602 0.0
H2061 H 0.38273 0.20361 0.68203 0.0
H2062 H 0.40458 0.23651 0.5484 0.0
H2063 H 0.41453 0.16415 0.62888 0.0
H2064 H 0.37044 0.22813 0.65038 0.0
H2065 H 0.35626 0.24484 0.61816 0.0
C2066 C 0.36573 0.2582 0.58434 0.0
C2067 C 0.37956 0.25659 0.56439 0.0
C2068 C 0.37958 0.21382 0.64546 0.0
C2069 C 0.38205 0.22581 0.60169 0.0
C2070 C 0.38655 0.19969 0.66366 0.0
C2071 C 0.39977 0.18172 0.65827 0.0
C2072 C 0.38588 0.20997 0.62161 0.0
C2073 C 0.40449 0.1778 0.63406 0.0
C2074 C 0.36691 0.24293 0.60296 0.0
C2075 C 0.39368 0.23865 0.56339 0.0
N2076 N 0.39786 0.19188 0.61684 0.0
N2077 N 0.3946 0.22414 0.58171 0.0
H2078 H 0.99015 0.10057 0.84075 0.0
H2079 H 0.0953 0.17025 0.87808 0.0
H2080 H 0.0216 0.14823 0.79619 0.0
H2081 H 0.0615 0.12894 0.92792 0.0
H2082 H 0.07157 0.15742 0.84634 0.0
H2083 H 0.01876 0.10592 0.87092 0.0
C2084 C 1.00329 0.11177 0.83702 0.0
C2085 C 1.00333 0.12398 0.81578 0.0
C2086 C 0.06939 0.1509 0.86412 0.0
C2087 C 0.03611 0.13035 0.85045 0.0
C2088 C 0.08309 0.15819 0.88235 0.0
C2089 C 0.08048 0.1508 0.90592 0.0
C2090 C 0.05261 0.13611 0.86922 0.0
C2091 C 0.06426 0.13507 0.91009 0.0
C2092 C 0.01954 0.11496 0.85438 0.0
C2093 C 0.02071 0.13848 0.81223 0.0
N2094 N 0.05081 0.12846 0.89203 0.0
N2095 N 0.03619 0.1413 0.82931 0.0
H2096 H 0.92666 0.79997 0.75185 0.0
H2097 H 0.9419 0.78412 0.61737 0.0
H2098 H 0.98991 0.79181 0.72026 0.0
H2099 H 0.88346 0.76039 0.65114 0.0
H2100 H 0.95958 0.78539 0.65606 0.0
H2101 H 0.91046 0.78095 0.71802 0.0
C2102 C 0.93727 0.79297 0.73846 0.0
C2103 C 0.95958 0.79766 0.73857 0.0
C2104 C 0.94293 0.77975 0.65506 0.0
C2105 C 0.94116 0.77709 0.69938 0.0
C2106 C 0.93265 0.77944 0.63299 0.0
C2107 C 0.91099 0.77256 0.63109 0.0
C2108 C 0.93138 0.77364 0.67558 0.0
C2109 C 0.90008 0.76612 0.65193 0.0
C2110 C 0.92798 0.78244 0.71894 0.0
C2111 C 0.97261 0.78857 0.72072 0.0
N2112 N 0.91029 0.76714 0.67343 0.0
N2113 N 0.96312 0.77941 0.7013 0.0
H2114 H 0.89404 0.14847 0.41746 0.0
H2115 H 1.00562 0.09999 0.372 0.0
H2116 H 0.95194 0.13986 0.45974 0.0
H2117 H 0.95604 0.12618 0.32587 0.0
H2118 H 0.97977 0.10023 0.40497 0.0
H2119 H 0.91072 0.12693 0.38554 0.0
C2120 C 0.91003 0.14158 0.42025 0.0
C2121 C 0.92195 0.1464 0.44089 0.0
C2122 C 0.97439 0.10545 0.3875 0.0
C2123 C 0.94088 0.12177 0.4048 0.0
C2124 C 0.98913 0.10535 0.36869 0.0
C2125 C 0.98313 0.11385 0.34647 0.0
C2126 C 0.95367 0.1144 0.38408 0.0
C2127 C 0.96143 0.11998 0.34293 0.0
C2128 C 0.91951 0.12932 0.40206 0.0
C2129 C 0.94247 0.13697 0.44378 0.0
N2130 N 0.94757 0.12069 0.36178 0.0
N2131 N 0.95142 0.12534 0.42577 0.0
H2132 H 0.62703 0.2135 0.12038 0.0
H2133 H 0.55625 0.22921 0.23342 0.0
H2134 H 0.61711 0.27734 0.15045 0.0
H2135 H 0.59332 0.17059 0.2217 0.0
H2136 H 0.57993 0.24809 0.20495 0.0
H2137 H 0.61657 0.19757 0.15865 0.0
C2138 C 0.62309 0.22416 0.13514 0.0
C2139 C 0.62258 0.24672 0.13208 0.0
C2140 C 0.58312 0.23121 0.20907 0.0
C2141 C 0.61016 0.2287 0.17564 0.0
C2142 C 0.56963 0.22046 0.22533 0.0
C2143 C 0.57244 0.19818 0.22945 0.0
C2144 C 0.59922 0.21945 0.19678 0.0
C2145 C 0.59016 0.18766 0.21857 0.0
C2146 C 0.61714 0.21509 0.15699 0.0
C2147 C 0.61748 0.25981 0.1519 0.0
N2148 N 0.60256 0.19825 0.20234 0.0
N2149 N 0.61095 0.2506 0.17268 0.0
H2150 H 0.61797 0.86014 0.93291 0.0
H2151 H 0.55609 0.8892 0.83591 0.0
H2152 H 0.55565 0.83984 0.96058 0.0
H2153 H 0.50299 0.89705 0.88559 0.0
H2154 H 0.58014 0.88106 0.86917 0.0
H2155 H 0.59939 0.88344 0.90425 0.0
C2156 C 0.60038 0.86068 0.93309 0.0
C2157 C 0.5883 0.84757 0.94876 0.0
C2158 C 0.56343 0.88532 0.87295 0.0
C2159 C 0.56703 0.87391 0.91576 0.0
C2160 C 0.54963 0.88984 0.85388 0.0
C2161 C 0.52742 0.89333 0.85794 0.0
C2162 C 0.55484 0.88416 0.89615 0.0
C2163 C 0.51995 0.8941 0.88159 0.0
C2164 C 0.58981 0.87389 0.91659 0.0
C2165 C 0.56559 0.84929 0.94849 0.0
N2166 N 0.53353 0.88898 0.89977 0.0
N2167 N 0.55568 0.86206 0.93205 0.0
H2168 H 0.9031 0.19009 0.79966 0.0
H2169 H 0.87421 0.18953 0.93468 0.0
H2170 H 0.90123 0.13074 0.84058 0.0
H2171 H 0.85607 0.24179 0.8874 0.0
H2172 H 0.87904 0.16587 0.90008 0.0
H2173 H 0.8815 0.20789 0.83044 0.0
C2174 C 0.8979 0.18075 0.81501 0.0
C2175 C 0.9043 0.15907 0.81783 0.0
C2176 C 0.87348 0.18237 0.89732 0.0
C2177 C 0.87981 0.17935 0.85327 0.0
C2178 C 0.8707 0.19588 0.91709 0.0
C2179 C 0.86541 0.21783 0.91384 0.0
C2180 C 0.87121 0.19104 0.87428 0.0
C2181 C 0.86077 0.22511 0.89068 0.0
C2182 C 0.88545 0.19086 0.83253 0.0
C2183 C 0.89683 0.14759 0.83786 0.0
N2184 N 0.86427 0.21189 0.87173 0.0
N2185 N 0.88536 0.15801 0.85512 0.0
H2186 H 0.53126 0.2179 0.53797 0.0
H2187 H 0.46979 0.15378 0.61572 0.0
H2188 H 0.57615 0.16408 0.53902 0.0
H2189 H 0.53468 0.13987 0.64055 0.0
H2190 H 0.4849 0.16564 0.57743 0.0
H2191 H 0.50692 0.19723 0.56437 0.0
C2192 C 0.53558 0.20148 0.54301 0.0
C2193 C 0.55587 0.19283 0.53683 0.0
C2194 C 0.49571 0.15967 0.59118 0.0
C2195 C 0.52858 0.16943 0.56692 0.0
C2196 C 0.48717 0.1527 0.61292 0.0
C2197 C 0.50112 0.14604 0.63138 0.0
C2198 C 0.51824 0.15951 0.58786 0.0
C2199 C 0.52345 0.14508 0.62686 0.0
C2200 C 0.52175 0.1897 0.55806 0.0
C2201 C 0.56083 0.17152 0.54391 0.0
N2202 N 0.53135 0.15181 0.6055 0.0
N2203 N 0.54759 0.16079 0.55916 0.0
H2204 H 0.61479 0.87898 0.35732 0.0
H2205 H 0.67383 0.77775 0.40886 0.0
H2206 H 0.64751 0.82902 0.31719 0.0
H2207 H 0.63145 0.82006 0.44882 0.0
H2208 H 0.67887 0.80638 0.37934 0.0
H2209 H 0.63499 0.86792 0.39297 0.0
C2210 C 0.62696 0.86633 0.35582 0.0
C2211 C 0.62916 0.85439 0.33469 0.0
C2212 C 0.6689 0.80966 0.39486 0.0
C2213 C 0.65189 0.84156 0.37504 0.0
C2214 C 0.66596 0.79329 0.41164 0.0
C2215 C 0.65152 0.79636 0.43067 0.0
C2216 C 0.65669 0.82886 0.39676 0.0
C2217 C 0.64227 0.81693 0.43397 0.0
C2218 C 0.63839 0.85995 0.37615 0.0
C2219 C 0.64506 0.83821 0.33345 0.0
N2220 N 0.64445 0.83225 0.4167 0.0
N2221 N 0.65553 0.83195 0.35353 0.0
H2222 H 0.04297 0.85942 0.1179 0.0
H2223 H 0.93416 0.85173 0.04249 0.0
H2224 H 0.98051 0.8826 0.14219 0.0
H2225 H 0.98292 0.80137 0.04133 0.0
H2226 H 0.95732 0.87337 0.0685 0.0
H2227 H 0.02637 0.84833 0.08025 0.0
C2228 C 0.02586 0.86269 0.11513 0.0
C2229 C 0.01295 0.87168 0.13337 0.0
C2230 C 0.96315 0.85782 0.0621 0.0
C2231 C 0.99419 0.85929 0.09026 0.0
C2232 C 0.95001 0.84544 0.04727 0.0
C2233 C 0.95644 0.82447 0.04036 0.0
C2234 C 0.98291 0.84924 0.06993 0.0
C2235 C 0.97731 0.81735 0.04653 0.0
C2236 C 0.01648 0.85627 0.09366 0.0
C2237 C 0.99095 0.87551 0.12873 0.0
N2238 N 0.98973 0.8296 0.06145 0.0
N2239 N 0.98219 0.86915 0.10763 0.0
H2240 H 0.61533 0.69948 0.82753 0.0
H2241 H 0.60018 0.72581 0.96518 0.0
H2242 H 0.58717 0.65503 0.87833 0.0
H2243 H 0.64238 0.76404 0.92029 0.0
H2244 H 0.5978 0.69851 0.93375 0.0
H2245 H 0.62859 0.72183 0.86091 0.0
C2246 C 0.61253 0.69404 0.84564 0.0
C2247 C 0.59994 0.67542 0.85009 0.0
C2248 C 0.60786 0.71269 0.9308 0.0
C2249 C 0.61455 0.70116 0.88832 0.0
C2250 C 0.60921 0.72833 0.94882 0.0
C2251 C 0.62143 0.74733 0.94541 0.0
C2252 C 0.61843 0.71615 0.90886 0.0
C2253 C 0.63281 0.74962 0.92376 0.0
C2254 C 0.61992 0.70691 0.86471 0.0
C2255 C 0.5966 0.66935 0.87399 0.0
N2256 N 0.63075 0.73442 0.90616 0.0
N2257 N 0.60352 0.68229 0.89208 0.0
H2258 H 0.51524 0.34414 0.21407 0.0
H2259 H 0.55894 0.36676 0.08275 0.0
H2260 H 0.48608 0.39314 0.16947 0.0
H2261 H 0.59608 0.33397 0.1371 0.0
H2262 H 0.53274 0.37813 0.11355 0.0
H2263 H 0.54516 0.341 0.18567 0.0
C2264 C 0.51521 0.35443 0.19839 0.0
C2265 C 0.49802 0.36893 0.19425 0.0
C2266 C 0.54686 0.36879 0.11874 0.0
C2267 C 0.53234 0.36512 0.16112 0.0
C2268 C 0.56195 0.36244 0.10117 0.0
C2269 C 0.57978 0.34922 0.10718 0.0
C2270 C 0.54949 0.36171 0.14245 0.0
C2271 C 0.58257 0.34396 0.13143 0.0
C2272 C 0.53238 0.35265 0.18213 0.0
C2273 C 0.49901 0.38182 0.17352 0.0
N2274 N 0.56751 0.34991 0.14796 0.0
N2275 N 0.51568 0.37941 0.15758 0.0
H2276 H 0.92576 0.26388 0.46328 0.0
H2277 H 0.92854 0.34913 0.38442 0.0
H2278 H 0.86974 0.24009 0.42524 0.0
H2279 H 0.89697 0.3057 0.3351 0.0
H2280 H 0.91916 0.32481 0.41706 0.0
H2281 H 0.9292 0.29318 0.43449 0.0
C2282 C 0.91385 0.26505 0.44912 0.0
C2283 C 0.89732 0.24943 0.44696 0.0
C2284 C 0.9143 0.3204 0.39917 0.0
C2285 C 0.90105 0.28358 0.41345 0.0
C2286 C 0.91935 0.33455 0.38046 0.0
C2287 C 0.91369 0.32949 0.35682 0.0
C2288 C 0.90377 0.30059 0.39441 0.0
C2289 C 0.90163 0.31036 0.353 0.0
C2290 C 0.91573 0.28201 0.43263 0.0
C2291 C 0.8826 0.25184 0.42788 0.0
N2292 N 0.8973 0.29649 0.37153 0.0
N2293 N 0.88498 0.26836 0.41174 0.0
H2294 H 1.00047 0.69961 0.71481 0.0
H2295 H 0.94978 0.65831 0.5923 0.0
H2296 H 0.02127 0.63962 0.68217 0.0
H2297 H 0.91728 0.70324 0.63945 0.0
H2298 H 0.97604 0.65051 0.62427 0.0
H2299 H 0.97028 0.70135 0.6865 0.0
C2300 C 0.99862 0.6867 0.70183 0.0
C2301 C 0.01352 0.66945 0.70098 0.0
C2302 C 0.96291 0.6618 0.62768 0.0
C2303 C 0.97899 0.6715 0.66808 0.0
C2304 C 0.94778 0.66612 0.60947 0.0
C2305 C 0.93127 0.68158 0.61299 0.0
C2306 C 0.96168 0.6732 0.64943 0.0
C2307 C 0.92977 0.69134 0.63568 0.0
C2308 C 0.98132 0.68767 0.68565 0.0
C2309 C 0.01019 0.65321 0.68363 0.0
N2310 N 0.94489 0.68726 0.65276 0.0
N2311 N 0.99348 0.65476 0.66773 0.0
H2312 H 0.60855 0.32635 0.6805 0.0
H2313 H 0.5997 0.30295 0.54005 0.0
H2314 H 0.57601 0.36814 0.63021 0.0
H2315 H 0.63037 0.25865 0.58919 0.0
H2316 H 0.59579 0.3293 0.57228 0.0
H2317 H 0.62155 0.30399 0.64707 0.0
C2318 C 0.60456 0.33116 0.66245 0.0
C2319 C 0.59102 0.34917 0.65829 0.0
C2320 C 0.6036 0.31393 0.57603 0.0
C2321 C 0.60562 0.32339 0.61985 0.0
C2322 C 0.60592 0.29883 0.55753 0.0
C2323 C 0.61526 0.27836 0.56179 0.0
C2324 C 0.61051 0.30865 0.59922 0.0
C2325 C 0.62303 0.27415 0.58496 0.0
C2326 C 0.61185 0.31825 0.64335 0.0
C2327 C 0.58625 0.35438 0.63443 0.0
N2328 N 0.62027 0.28901 0.60281 0.0
N2329 N 0.59334 0.34151 0.61627 0.0
H2330 H 0.92834 0.35377 0.92227 0.0
H2331 H 0.96938 0.3178 0.79185 0.0
H2332 H 0.90105 0.30054 0.88216 0.0
H2333 H 0.99544 0.37307 0.82955 0.0
H2334 H 0.94239 0.31318 0.82354 0.0
H2335 H 0.95089 0.36315 0.88754 0.0
C2336 C 0.92675 0.34428 0.90609 0.0
C2337 C 0.9127 0.32625 0.90536 0.0
C2338 C 0.95388 0.32646 0.82482 0.0
C2339 C 0.93885 0.33675 0.86546 0.0
C2340 C 0.96931 0.32915 0.80661 0.0
C2341 C 0.98489 0.34583 0.80788 0.0
C2342 C 0.95392 0.34044 0.84472 0.0
C2343 C 0.98385 0.35995 0.82766 0.0
C2344 C 0.93977 0.34957 0.88627 0.0
C2345 C 0.91162 0.31452 0.8838 0.0
N2346 N 0.96884 0.35683 0.84529 0.0
N2347 N 0.92456 0.31984 0.86494 0.0
H2348 H 0.88352 0.7551 0.09268 0.0
H2349 H 0.94097 0.64468 0.1352 0.0
H2350 H 0.91996 0.71251 0.04644 0.0
H2351 H 0.90738 0.68743 0.18376 0.0
H2352 H 0.92899 0.66711 0.1019 0.0
H2353 H 0.88785 0.72875 0.1252 0.0
C2354 C 0.89212 0.74009 0.08918 0.0
C2355 C 0.90145 0.73619 0.06663 0.0
C2356 C 0.92396 0.67152 0.11977 0.0
C2357 C 0.90663 0.70589 0.10409 0.0
C2358 C 0.93073 0.65859 0.13889 0.0
C2359 C 0.92529 0.6641 0.16251 0.0
C2360 C 0.9117 0.69039 0.12403 0.0
C2361 C 0.91194 0.68241 0.16594 0.0
C2362 C 0.89468 0.72507 0.10786 0.0
C2363 C 0.91252 0.7164 0.06341 0.0
N2364 N 0.90584 0.69501 0.147 0.0
N2365 N 0.91489 0.70218 0.08186 0.0
H2366 H 0.62088 0.70347 0.38047 0.0
H2367 H 0.51481 0.64165 0.33254 0.0
H2368 H 0.58245 0.6609 0.42472 0.0
H2369 H 0.55547 0.68305 0.28931 0.0
H2370 H 0.54103 0.6452 0.36532 0.0
H2371 H 0.59918 0.69278 0.34603 0.0
C2372 C 0.60811 0.69157 0.38293 0.0
C2373 C 0.60355 0.68317 0.40572 0.0
C2374 C 0.54432 0.6533 0.34856 0.0
C2375 C 0.57809 0.67106 0.36602 0.0
C2376 C 0.52936 0.65121 0.32976 0.0
C2377 C 0.53274 0.66217 0.30804 0.0
C2378 C 0.56285 0.66647 0.34574 0.0
C2379 C 0.55196 0.6744 0.30568 0.0
C2380 C 0.5956 0.68552 0.36318 0.0
C2381 C 0.58669 0.66778 0.40758 0.0
N2382 N 0.56609 0.67632 0.32425 0.0
N2383 N 0.57444 0.66245 0.38811 0.0
H2384 H 0.39334 0.37574 0.16763 0.0
H2385 H 0.34732 0.26074 0.12917 0.0
H2386 H 0.38899 0.31916 0.21279 0.0
H2387 H 0.36863 0.31001 0.07963 0.0
H2388 H 0.3489 0.28738 0.16131 0.0
H2389 H 0.37147 0.35688 0.1375 0.0
C2390 C 0.38729 0.35958 0.17145 0.0
C2391 C 0.39338 0.34871 0.19238 0.0
C2392 C 0.35278 0.29249 0.14331 0.0
C2393 C 0.36844 0.32727 0.15829 0.0
C2394 C 0.35189 0.2773 0.12496 0.0
C2395 C 0.35859 0.28303 0.10189 0.0
C2396 C 0.36064 0.31344 0.13857 0.0
C2397 C 0.3638 0.30481 0.0973 0.0
C2398 C 0.37488 0.34885 0.15427 0.0
C2399 C 0.38506 0.32788 0.19659 0.0
N2400 N 0.36525 0.31917 0.11564 0.0
N2401 N 0.37324 0.31772 0.17953 0.0
H2402 H 0.53393 0.66332 0.88924 0.0
H2403 H 0.44446 0.67273 0.98993 0.0
H2404 H 0.46765 0.64209 0.8801 0.0
H2405 H 0.4784 0.73033 0.96705 0.0
H2406 H 0.46552 0.65127 0.96147 0.0
H2407 H 0.52427 0.67821 0.92854 0.0
C2408 C 0.51751 0.66122 0.89584 0.0
C2409 C 0.50148 0.65141 0.88158 0.0
C2410 C 0.46896 0.66844 0.96341 0.0
C2411 C 0.49072 0.66787 0.9263 0.0
C2412 C 0.45717 0.68066 0.97974 0.0
C2413 C 0.45961 0.70332 0.98054 0.0
C2414 C 0.48348 0.67895 0.9481 0.0
C2415 C 0.47613 0.71289 0.96693 0.0
C2416 C 0.51208 0.6698 0.9181 0.0
C2417 C 0.4804 0.64948 0.89064 0.0
N2418 N 0.48723 0.70065 0.95074 0.0
N2419 N 0.47561 0.65762 0.91255 0.0
H2420 H 0.11612 0.65549 0.67453 0.0
H2421 H 0.16905 0.76387 0.62914 0.0
H2422 H 0.12943 0.7126 0.71667 0.0
H2423 H 0.14077 0.71492 0.58368 0.0
H2424 H 0.17027 0.73762 0.66165 0.0
H2425 H 0.13975 0.66978 0.64302 0.0
C2426 C 0.12452 0.67073 0.67742 0.0
C2427 C 0.12031 0.68332 0.69775 0.0
C2428 C 0.16431 0.73243 0.64439 0.0
C2429 C 0.14725 0.69955 0.66213 0.0
C2430 C 0.16356 0.74741 0.62587 0.0
C2431 C 0.15395 0.74171 0.60411 0.0
C2432 C 0.1549 0.71187 0.64119 0.0
C2433 C 0.14775 0.72007 0.60047 0.0
C2434 C 0.13799 0.67885 0.65947 0.0
C2435 C 0.13175 0.70277 0.70086 0.0
N2436 N 0.14771 0.70602 0.61913 0.0
N2437 N 0.14443 0.71048 0.68302 0.0
H2438 H 0.03096 0.29251 0.4747 0.0
H2439 H 0.04388 0.37436 0.37669 0.0
H2440 H 0.0707 0.34898 0.48769 0.0
H2441 H 0.97801 0.35552 0.3933 0.0
H2442 H 0.05473 0.36359 0.41712 0.0
H2443 H 0.00983 0.3137 0.44563 0.0
C2444 C 0.03455 0.3096 0.47227 0.0
C2445 C 0.05273 0.31899 0.48316 0.0
C2446 C 0.03781 0.36231 0.41199 0.0
C2447 C 0.02952 0.34274 0.4497 0.0
C2448 C 0.0317 0.36836 0.389 0.0
C2449 C 0.0101 0.36588 0.38179 0.0
C2450 C 0.02236 0.35301 0.4274 0.0
C2451 C 0.99485 0.35784 0.39831 0.0
C2452 C 0.02268 0.3216 0.45557 0.0
C2453 C 0.05696 0.34112 0.47923 0.0
N2454 N 1.00137 0.35115 0.42022 0.0
N2455 N 0.04592 0.35208 0.4622 0.0
H2456 H 0.41881 0.69724 0.27354 0.0
H2457 H 0.40086 0.78779 0.37177 0.0
H2458 H 0.46981 0.74309 0.28934 0.0
H2459 H 0.39086 0.71938 0.38434 0.0
H2460 H 0.41387 0.77941 0.33142 0.0
H2461 H 0.39563 0.71492 0.3031 0.0
C2462 C 0.42479 0.71164 0.28255 0.0
C2463 C 0.44636 0.71853 0.27944 0.0
C2464 C 0.40825 0.76639 0.34286 0.0
C2465 C 0.41995 0.73867 0.31299 0.0
C2466 C 0.40073 0.77107 0.36577 0.0
C2467 C 0.39483 0.75416 0.38134 0.0
C2468 C 0.40913 0.74476 0.33536 0.0
C2469 C 0.39528 0.73281 0.37285 0.0
C2470 C 0.41159 0.72156 0.29943 0.0
C2471 C 0.45329 0.73729 0.29134 0.0
N2472 N 0.40235 0.72869 0.35034 0.0
N2473 N 0.4402 0.74653 0.30812 0.0
H2474 H 0.01447 0.60382 0.13899 0.0
H2475 H 0.12912 0.65299 0.10277 0.0
H2476 H 0.06357 0.62252 0.18995 0.0
H2477 H 0.07086 0.65489 0.06008 0.0
H2478 H 0.11038 0.62918 0.13131 0.0
H2479 H 0.04085 0.60853 0.10693 0.0
C2480 C 0.03096 0.60842 0.14349 0.0
C2481 C 0.03668 0.61357 0.16702 0.0
C2482 C 0.10193 0.63447 0.11541 0.0
C2483 C 0.06674 0.61917 0.1305 0.0
C2484 C 0.11256 0.64803 0.09919 0.0
C2485 C 0.10126 0.65627 0.07945 0.0
C2486 C 0.08009 0.62896 0.1115 0.0
C2487 C 0.07993 0.64928 0.07543 0.0
C2488 C 0.04598 0.61111 0.12519 0.0
C2489 C 0.05838 0.61889 0.17194 0.0
N2490 N 0.06996 0.63618 0.09145 0.0
N2491 N 0.07256 0.6221 0.1537 0.0
H2492 H 0.07765 0.28242 0.78529 0.0
H2493 H 0.13484 0.23113 0.87255 0.0
H2494 H 0.09829 0.3429 0.81717 0.0
H2495 H 0.12038 0.28984 0.91163 0.0
H2496 H 0.12973 0.25085 0.83526 0.0
H2497 H 0.10023 0.26286 0.81371 0.0
C2498 C 0.08734 0.2916 0.79787 0.0
C2499 C 0.08567 0.31427 0.79921 0.0
C2500 C 0.1278 0.25943 0.85199 0.0
C2501 C 0.11181 0.29207 0.83162 0.0
C2502 C 0.13088 0.24827 0.87329 0.0
C2503 C 0.12721 0.25872 0.89521 0.0
C2504 C 0.12086 0.2811 0.85271 0.0
C2505 C 0.12282 0.28104 0.89513 0.0
C2506 C 0.10045 0.28043 0.81399 0.0
C2507 C 0.09873 0.32536 0.81578 0.0
N2508 N 0.11935 0.29143 0.87413 0.0
N2509 N 0.11084 0.31412 0.83171 0.0
H2510 H 0.44959 0.349 0.54361 0.0
H2511 H 0.45098 0.39288 0.67387 0.0
H2512 H 0.3905 0.36351 0.58205 0.0
H2513 H 0.50579 0.39926 0.62622 0.0
H2514 H 0.42751 0.38665 0.63944 0.0
H2515 H 0.46985 0.371 0.57215 0.0
C2516 C 0.44086 0.35702 0.5579 0.0
C2517 C 0.41843 0.35409 0.56075 0.0
C2518 C 0.44459 0.38991 0.6365 0.0
C2519 C 0.44147 0.37912 0.59356 0.0
C2520 C 0.45799 0.39349 0.65616 0.0
C2521 C 0.48046 0.39592 0.65294 0.0
C2522 C 0.45385 0.38849 0.61363 0.0
C2523 C 0.48863 0.39687 0.62957 0.0
C2524 C 0.45239 0.3697 0.57411 0.0
C2525 C 0.40785 0.36513 0.57937 0.0
N2526 N 0.47541 0.39264 0.61083 0.0
N2527 N 0.41954 0.37682 0.59537 0.0
loop_
_geom_bond_atom_site_label_1
_geom_bond_atom_site_label_2
_geom_bond_distance
_geom_bond_site_symmetry_2
_ccdc_geom_bond_type
Co0 O3 1.970 . S
Co0 N17 1.989 . S
Co0 O25 1.967 . S
Co0 O32 1.920 . S
Co1 O4 1.966 . S
Co1 N10 2.022 . S
Co1 N18 1.993 . S
Co1 O26 1.941 . S
C2 O3 1.258 . S
C2 O4 1.263 . S
O3 Co0 1.970 . S
O3 C2 1.258 . S
O4 Co1 1.966 . S
O4 C2 1.263 . S
C5 O6 1.258 . S
C5 O32 1.249 1_655 S
O6 C5 1.258 . S
C7 C9 1.400 . S
C7 N10 1.351 . S
C7 C12 1.501 . S
C8 C9 1.387 . S
C8 N11 1.341 . S
C9 C7 1.400 . S
C9 C8 1.387 . S
N10 Co1 2.022 . S
N10 C7 1.351 . S
N10 N11 1.365 . S
N11 C8 1.341 . S
N11 N10 1.365 . S
N11 H31 0.862 . S
C12 C7 1.501 . S
C12 H13 0.961 . S
C12 H14 0.961 . S
C12 H15 0.960 . S
H13 C12 0.961 . S
H14 C12 0.961 . S
H15 C12 0.960 . S
C16 N17 1.342 . S
C16 C20 1.401 . S
C16 C21 1.499 . S
N17 Co0 1.989 . S
N17 C16 1.342 . S
N17 N18 1.388 . S
N18 Co1 1.993 . S
N18 N17 1.388 . S
N18 C19 1.346 . S
C19 N18 1.346 . S
C19 C20 1.396 . S
C19 C29 1.510 . S
C20 C16 1.401 . S
C20 C19 1.396 . S
C21 C16 1.499 . S
C21 H22 0.959 . S
C21 H23 0.960 . S
C21 H24 0.961 . S
H22 C21 0.959 . S
H23 C21 0.960 . S
H24 C21 0.961 . S
O25 Co0 1.967 . S
O25 C33 1.258 . S
O26 Co1 1.941 . S
O26 C33 1.266 . S
H27 C29 0.959 . S
H28 C29 0.961 . S
C29 C19 1.510 . S
C29 H27 0.959 . S
C29 H28 0.961 . S
C29 H30 0.960 . S
H30 C29 0.960 . S
H31 N11 0.862 . S
O32 Co0 1.920 . S
O32 C5 1.249 1_455 S
C33 O25 1.258 . S
C33 O26 1.266 . S
Co34 O37 1.970 . S
Co34 N51 1.989 . S
Co34 O59 1.967 . S
Co34 O66 1.920 . S
Co35 O38 1.966 . S
Co35 N44 2.022 . S
Co35 N52 1.993 . S
Co35 O60 1.941 . S
C36 O37 1.258 . S
C36 O38 1.263 . S
O37 Co34 1.970 . S
O37 C36 1.258 . S
O38 Co35 1.966 . S
O38 C36 1.263 . S
C39 O40 1.235 . S
C39 O66 1.289 . S
O40 C39 1.235 . S
C41 C43 1.400 . S
C41 N44 1.351 . S
C41 C46 1.501 . S
C42 C43 1.387 . S
C42 N45 1.341 . S
C43 C41 1.400 . S
C43 C42 1.387 . S
N44 Co35 2.022 . S
N44 C41 1.351 . S
N44 N45 1.365 . S
N45 C42 1.341 . S
N45 N44 1.365 . S
N45 H65 0.862 . S
C46 C41 1.501 . S
C46 H47 0.961 . S
C46 H48 0.961 . S
C46 H49 0.960 . S
H47 C46 0.961 . S
H48 C46 0.961 . S
H49 C46 0.960 . S
C50 N51 1.342 . S
C50 C54 1.401 . S
C50 C55 1.499 . S
N51 Co34 1.989 . S
N51 C50 1.342 . S
N51 N52 1.388 . S
N52 Co35 1.993 . S
N52 N51 1.388 . S
N52 C53 1.346 . S
C53 N52 1.346 . S
C53 C54 1.396 . S
C53 C63 1.510 . S
C54 C50 1.401 . S
C54 C53 1.396 . S
C55 C50 1.499 . S
C55 H56 0.959 . S
C55 H57 0.960 . S
C55 H58 0.961 . S
H56 C55 0.959 . S
H57 C55 0.960 . S
H58 C55 0.961 . S
O59 Co34 1.967 . S
O59 C67 1.258 . S
O60 Co35 1.941 . S
O60 C67 1.266 . S
H61 C63 0.959 . S
H62 C63 0.961 . S
C63 C53 1.510 . S
C63 H61 0.959 . S
C63 H62 0.961 . S
C63 H64 0.960 . S
H64 C63 0.960 . S
H65 N45 0.862 . S
O66 Co34 1.920 . S
O66 C39 1.289 . S
C67 O59 1.258 . S
C67 O60 1.266 . S
Co68 O71 1.970 . S
Co68 N85 1.989 . S
Co68 O93 1.967 . S
Co68 O100 1.920 . S
Co69 O72 1.966 . S
Co69 N78 2.022 . S
Co69 N86 1.993 . S
Co69 O94 1.941 . S
C70 O71 1.258 . S
C70 O72 1.263 . S
O71 Co68 1.970 . S
O71 C70 1.258 . S
O72 Co69 1.966 . S
O72 C70 1.263 . S
C73 O74 1.235 . S
C73 O100 1.289 . S
O74 C73 1.235 . S
C75 C77 1.400 . S
C75 N78 1.351 . S
C75 C80 1.501 . S
C76 C77 1.387 . S
C76 N79 1.341 . S
C77 C75 1.400 . S
C77 C76 1.387 . S
N78 Co69 2.022 . S
N78 C75 1.351 . S
N78 N79 1.365 . S
N79 C76 1.341 . S
N79 N78 1.365 . S
N79 H99 0.862 . S
C80 C75 1.501 . S
C80 H81 0.961 . S
C80 H82 0.961 . S
C80 H83 0.960 . S
H81 C80 0.961 . S
H82 C80 0.961 . S
H83 C80 0.960 . S
C84 N85 1.342 . S
C84 C88 1.401 . S
C84 C89 1.499 . S
N85 Co68 1.989 . S
N85 C84 1.342 . S
N85 N86 1.388 . S
N86 Co69 1.993 . S
N86 N85 1.388 . S
N86 C87 1.346 . S
C87 N86 1.346 . S
C87 C88 1.396 . S
C87 C97 1.510 . S
C88 C84 1.401 . S
C88 C87 1.396 . S
C89 C84 1.499 . S
C89 H90 0.959 . S
C89 H91 0.960 . S
C89 H92 0.961 . S
H90 C89 0.959 . S
H91 C89 0.960 . S
H92 C89 0.961 . S
O93 Co68 1.967 . S
O93 C101 1.258 . S
O94 Co69 1.941 . S
O94 C101 1.266 . S
H95 C97 0.959 . S
H96 C97 0.961 . S
C97 C87 1.510 . S
C97 H95 0.959 . S
C97 H96 0.961 . S
C97 H98 0.960 . S
H98 C97 0.960 . S
H99 N79 0.862 . S
O100 Co68 1.920 . S
O100 C73 1.289 . S
C101 O93 1.258 . S
C101 O94 1.266 . S
Co102 O105 1.970 . S
Co102 N119 1.989 . S
Co102 O127 1.967 . S
Co102 O134 1.920 . S
Co103 O106 1.966 . S
Co103 N112 2.022 1_554 S
Co103 N120 1.993 . S
Co103 O128 1.941 . S
C104 O105 1.258 . S
C104 O106 1.263 . S
O105 Co102 1.970 . S
O105 C104 1.258 . S
O106 Co103 1.966 . S
O106 C104 1.263 . S
C107 O108 1.235 . S
C107 O134 1.289 . S
O108 C107 1.235 . S
C109 C111 1.400 . S
C109 N112 1.351 . S
C109 C114 1.501 . S
C110 C111 1.387 . S
C110 N113 1.341 . S
C111 C109 1.400 . S
C111 C110 1.387 . S
N112 Co103 2.022 1_556 S
N112 C109 1.351 . S
N112 N113 1.365 . S
N113 C110 1.341 . S
N113 N112 1.365 . S
N113 H133 0.862 1_556 S
C114 C109 1.501 . S
C114 H115 0.961 . S
C114 H116 0.961 . S
C114 H117 0.960 . S
H115 C114 0.961 . S
H116 C114 0.961 . S
H117 C114 0.960 . S
C118 N119 1.342 . S
C118 C122 1.401 . S
C118 C123 1.499 . S
N119 Co102 1.989 . S
N119 C118 1.342 . S
N119 N120 1.388 . S
N120 Co103 1.993 . S
N120 N119 1.388 . S
N120 C121 1.346 . S
C121 N120 1.346 . S
C121 C122 1.396 . S
C121 C131 1.510 1_554 S
C122 C118 1.401 . S
C122 C121 1.396 . S
C123 C118 1.499 . S
C123 H124 0.959 . S
C123 H125 0.960 . S
C123 H126 0.961 . S
H124 C123 0.959 . S
H125 C123 0.960 . S
H126 C123 0.961 . S
O127 Co102 1.967 . S
O127 C135 1.258 . S
O128 Co103 1.941 . S
O128 C135 1.266 . S
H129 C131 0.959 . S
H130 C131 0.961 . S
C131 C121 1.510 1_556 S
C131 H129 0.959 . S
C131 H130 0.961 . S
C131 H132 0.960 . S
H132 C131 0.960 . S
H133 N113 0.862 1_554 S
O134 Co102 1.920 . S
O134 C107 1.289 . S
C135 O127 1.258 . S
C135 O128 1.266 . S
Co136 O139 1.970 . S
Co136 N153 1.989 . S
Co136 O161 1.967 . S
Co136 O168 1.920 . S
Co137 O140 1.966 . S
Co137 N146 2.022 . S
Co137 N154 1.993 . S
Co137 O162 1.941 . S
C138 O139 1.258 . S
C138 O140 1.263 . S
O139 Co136 1.970 . S
O139 C138 1.258 . S
O140 Co137 1.966 . S
O140 C138 1.263 . S
C141 O142 1.258 . S
C141 O168 1.249 1_655 S
O142 C141 1.258 . S
C143 C145 1.400 . S
C143 N146 1.351 . S
C143 C148 1.501 . S
C144 C145 1.387 . S
C144 N147 1.341 . S
C145 C143 1.400 . S
C145 C144 1.387 . S
N146 Co137 2.022 . S
N146 C143 1.351 . S
N146 N147 1.365 . S
N147 C144 1.341 . S
N147 N146 1.365 . S
N147 H167 0.862 . S
C148 C143 1.501 . S
C148 H149 0.961 . S
C148 H150 0.961 . S
C148 H151 0.960 . S
H149 C148 0.961 . S
H150 C148 0.961 . S
H151 C148 0.960 . S
C152 N153 1.342 . S
C152 C156 1.401 . S
C152 C157 1.499 . S
N153 Co136 1.989 . S
N153 C152 1.342 . S
N153 N154 1.388 . S
N154 Co137 1.993 . S
N154 N153 1.388 . S
N154 C155 1.346 . S
C155 N154 1.346 . S
C155 C156 1.396 . S
C155 C165 1.510 . S
C156 C152 1.401 . S
C156 C155 1.396 . S
C157 C152 1.499 . S
C157 H158 0.959 . S
C157 H159 0.960 . S
C157 H160 0.961 . S
H158 C157 0.959 . S
H159 C157 0.960 . S
H160 C157 0.961 . S
O161 Co136 1.967 . S
O161 C169 1.258 . S
O162 Co137 1.941 . S
O162 C169 1.266 . S
H163 C165 0.959 . S
H164 C165 0.961 . S
C165 C155 1.510 . S
C165 H163 0.959 . S
C165 H164 0.961 . S
C165 H166 0.960 . S
H166 C165 0.960 . S
H167 N147 0.862 . S
O168 Co136 1.920 . S
O168 C141 1.249 1_455 S
C169 O161 1.258 . S
C169 O162 1.266 . S
Co170 O173 1.970 . S
Co170 N187 1.989 . S
Co170 O195 1.967 . S
Co170 O202 1.920 . S
Co171 O174 1.966 . S
Co171 N180 2.022 . S
Co171 N188 1.993 . S
Co171 O196 1.941 . S
C172 O173 1.258 . S
C172 O174 1.263 . S
O173 Co170 1.970 . S
O173 C172 1.258 . S
O174 Co171 1.966 . S
O174 C172 1.263 . S
C175 O176 1.235 . S
C175 O202 1.289 . S
O176 C175 1.235 . S
C177 C179 1.400 . S
C177 N180 1.351 . S
C177 C182 1.501 . S
C178 C179 1.387 . S
C178 N181 1.341 . S
C179 C177 1.400 . S
C179 C178 1.387 . S
N180 Co171 2.022 . S
N180 C177 1.351 . S
N180 N181 1.365 . S
N181 C178 1.341 . S
N181 N180 1.365 . S
N181 H201 0.862 . S
C182 C177 1.501 . S
C182 H183 0.961 . S
C182 H184 0.961 . S
C182 H185 0.960 . S
H183 C182 0.961 . S
H184 C182 0.961 . S
H185 C182 0.960 . S
C186 N187 1.342 . S
C186 C190 1.401 . S
C186 C191 1.499 . S
N187 Co170 1.989 . S
N187 C186 1.342 . S
N187 N188 1.388 . S
N188 Co171 1.993 . S
N188 N187 1.388 . S
N188 C189 1.346 . S
C189 N188 1.346 . S
C189 C190 1.396 . S
C189 C199 1.510 . S
C190 C186 1.401 . S
C190 C189 1.396 . S
C191 C186 1.499 . S
C191 H192 0.959 . S
C191 H193 0.960 . S
C191 H194 0.961 . S
H192 C191 0.959 . S
H193 C191 0.960 . S
H194 C191 0.961 . S
O195 Co170 1.967 . S
O195 C203 1.258 . S
O196 Co171 1.941 . S
O196 C203 1.266 . S
H197 C199 0.959 . S
H198 C199 0.961 . S
C199 C189 1.510 . S
C199 H197 0.959 . S
C199 H198 0.961 . S
C199 H200 0.960 . S
H200 C199 0.960 . S
H201 N181 0.862 . S
O202 Co170 1.920 . S
O202 C175 1.289 . S
C203 O195 1.258 . S
C203 O196 1.266 . S
Co204 O207 1.970 . S
Co204 N221 1.989 . S
Co204 O229 1.967 . S
Co204 O236 1.920 . S
Co205 O208 1.966 . S
Co205 N214 2.022 . S
Co205 N222 1.993 . S
Co205 O230 1.941 . S
C206 O207 1.258 . S
C206 O208 1.263 . S
O207 Co204 1.970 . S
O207 C206 1.258 . S
O208 Co205 1.966 . S
O208 C206 1.263 . S
C209 O210 1.235 . S
C209 O236 1.289 . S
O210 C209 1.235 . S
C211 C213 1.400 . S
C211 N214 1.351 . S
C211 C216 1.501 . S
C212 C213 1.387 . S
C212 N215 1.341 . S
C213 C211 1.400 . S
C213 C212 1.387 . S
N214 Co205 2.022 . S
N214 C211 1.351 . S
N214 N215 1.365 . S
N215 C212 1.341 . S
N215 N214 1.365 . S
N215 H235 0.862 . S
C216 C211 1.501 . S
C216 H217 0.961 . S
C216 H218 0.961 . S
C216 H219 0.960 . S
H217 C216 0.961 . S
H218 C216 0.961 . S
H219 C216 0.960 . S
C220 N221 1.342 . S
C220 C224 1.401 . S
C220 C225 1.499 . S
N221 Co204 1.989 . S
N221 C220 1.342 . S
N221 N222 1.388 . S
N222 Co205 1.993 . S
N222 N221 1.388 . S
N222 C223 1.346 . S
C223 N222 1.346 . S
C223 C224 1.396 . S
C223 C233 1.510 . S
C224 C220 1.401 . S
C224 C223 1.396 . S
C225 C220 1.499 . S
C225 H226 0.959 . S
C225 H227 0.960 . S
C225 H228 0.961 . S
H226 C225 0.959 . S
H227 C225 0.960 . S
H228 C225 0.961 . S
O229 Co204 1.967 . S
O229 C237 1.258 . S
O230 Co205 1.941 . S
O230 C237 1.266 . S
H231 C233 0.959 . S
H232 C233 0.961 . S
C233 C223 1.510 . S
C233 H231 0.959 . S
C233 H232 0.961 . S
C233 H234 0.960 . S
H234 C233 0.960 . S
H235 N215 0.862 . S
O236 Co204 1.920 . S
O236 C209 1.289 . S
C237 O229 1.258 . S
C237 O230 1.266 . S
Co238 O241 1.970 . S
Co238 N255 1.989 . S
Co238 O263 1.967 . S
Co238 O270 1.920 . S
Co239 O242 1.966 . S
Co239 N248 2.022 1_556 S
Co239 N256 1.993 . S
Co239 O264 1.941 . S
C240 O241 1.258 . S
C240 O242 1.263 . S
O241 Co238 1.970 . S
O241 C240 1.258 . S
O242 Co239 1.966 . S
O242 C240 1.263 . S
C243 O244 1.235 . S
C243 O270 1.289 . S
O244 C243 1.235 . S
C245 C247 1.400 . S
C245 N248 1.351 . S
C245 C250 1.501 . S
C246 C247 1.387 . S
C246 N249 1.341 . S
C247 C245 1.400 . S
C247 C246 1.387 . S
N248 Co239 2.022 1_554 S
N248 C245 1.351 . S
N248 N249 1.365 . S
N249 C246 1.341 . S
N249 N248 1.365 . S
N249 H269 0.862 1_554 S
C250 C245 1.501 . S
C250 H251 0.961 . S
C250 H252 0.961 . S
C250 H253 0.960 . S
H251 C250 0.961 . S
H252 C250 0.961 . S
H253 C250 0.960 . S
C254 N255 1.342 . S
C254 C258 1.401 . S
C254 C259 1.499 . S
N255 Co238 1.989 . S
N255 C254 1.342 . S
N255 N256 1.388 . S
N256 Co239 1.993 . S
N256 N255 1.388 . S
N256 C257 1.346 . S
C257 N256 1.346 . S
C257 C258 1.396 . S
C257 C267 1.510 1_556 S
C258 C254 1.401 . S
C258 C257 1.396 . S
C259 C254 1.499 . S
C259 H260 0.959 . S
C259 H261 0.960 . S
C259 H262 0.961 . S
H260 C259 0.959 . S
H261 C259 0.960 . S
H262 C259 0.961 . S
O263 Co238 1.967 . S
O263 C271 1.258 . S
O264 Co239 1.941 . S
O264 C271 1.266 . S
H265 C267 0.959 . S
H266 C267 0.961 . S
C267 C257 1.510 1_554 S
C267 H265 0.959 . S
C267 H266 0.961 . S
C267 H268 0.960 . S
H268 C267 0.960 . S
H269 N249 0.862 1_556 S
O270 Co238 1.920 . S
O270 C243 1.289 . S
C271 O263 1.258 . S
C271 O264 1.266 . S
Co272 O275 1.970 . S
Co272 N289 1.989 . S
Co272 O297 1.967 . S
Co272 O304 1.920 . S
Co273 O276 1.966 . S
Co273 N282 2.022 . S
Co273 N290 1.993 . S
Co273 O298 1.941 . S
C274 O275 1.258 . S
C274 O276 1.263 . S
O275 Co272 1.970 . S
O275 C274 1.258 . S
O276 Co273 1.966 . S
O276 C274 1.263 . S
C277 O278 1.235 . S
C277 O304 1.289 . S
O278 C277 1.235 . S
C279 C281 1.400 . S
C279 N282 1.351 . S
C279 C284 1.501 . S
C280 C281 1.387 . S
C280 N283 1.341 . S
C281 C279 1.400 . S
C281 C280 1.387 . S
N282 Co273 2.022 . S
N282 C279 1.351 . S
N282 N283 1.365 . S
N283 C280 1.341 . S
N283 N282 1.365 . S
N283 H303 0.862 . S
C284 C279 1.501 . S
C284 H285 0.961 . S
C284 H286 0.961 . S
C284 H287 0.960 . S
H285 C284 0.961 . S
H286 C284 0.961 . S
H287 C284 0.960 . S
C288 N289 1.342 . S
C288 C292 1.401 . S
C288 C293 1.499 . S
N289 Co272 1.989 . S
N289 C288 1.342 . S
N289 N290 1.388 . S
N290 Co273 1.993 . S
N290 N289 1.388 . S
N290 C291 1.346 . S
C291 N290 1.346 . S
C291 C292 1.396 . S
C291 C301 1.510 . S
C292 C288 1.401 . S
C292 C291 1.396 . S
C293 C288 1.499 . S
C293 H294 0.959 . S
C293 H295 0.960 . S
C293 H296 0.961 . S
H294 C293 0.959 . S
H295 C293 0.960 . S
H296 C293 0.961 . S
O297 Co272 1.967 . S
O297 C305 1.258 . S
O298 Co273 1.941 . S
O298 C305 1.266 . S
H299 C301 0.959 . S
H300 C301 0.961 . S
C301 C291 1.510 . S
C301 H299 0.959 . S
C301 H300 0.961 . S
C301 H302 0.960 . S
H302 C301 0.960 . S
H303 N283 0.862 . S
O304 Co272 1.920 . S
O304 C277 1.289 . S
C305 O297 1.258 . S
C305 O298 1.266 . S
Co306 O309 1.970 . S
Co306 N323 1.989 . S
Co306 O331 1.967 . S
Co306 O338 1.920 . S
Co307 O310 1.966 . S
Co307 N316 2.022 . S
Co307 N324 1.993 . S
Co307 O332 1.941 . S
C308 O309 1.258 . S
C308 O310 1.263 . S
O309 Co306 1.970 . S
O309 C308 1.258 . S
O310 Co307 1.966 . S
O310 C308 1.263 . S
C311 O312 1.235 . S
C311 O338 1.289 . S
O312 C311 1.235 . S
C313 C315 1.400 . S
C313 N316 1.351 . S
C313 C318 1.501 . S
C314 C315 1.387 . S
C314 N317 1.341 . S
C315 C313 1.400 . S
C315 C314 1.387 . S
N316 Co307 2.022 . S
N316 C313 1.351 . S
N316 N317 1.365 . S
N317 C314 1.341 . S
N317 N316 1.365 . S
N317 H337 0.862 . S
C318 C313 1.501 . S
C318 H319 0.961 . S
C318 H320 0.961 . S
C318 H321 0.960 . S
H319 C318 0.961 . S
H320 C318 0.961 . S
H321 C318 0.960 . S
C322 N323 1.342 . S
C322 C326 1.401 . S
C322 C327 1.499 . S
N323 Co306 1.989 . S
N323 C322 1.342 . S
N323 N324 1.388 . S
N324 Co307 1.993 . S
N324 N323 1.388 . S
N324 C325 1.346 . S
C325 N324 1.346 . S
C325 C326 1.396 . S
C325 C335 1.510 . S
C326 C322 1.401 . S
C326 C325 1.396 . S
C327 C322 1.499 . S
C327 H328 0.959 . S
C327 H329 0.960 . S
C327 H330 0.961 . S
H328 C327 0.959 . S
H329 C327 0.960 . S
H330 C327 0.961 . S
O331 Co306 1.967 . S
O331 C339 1.258 . S
O332 Co307 1.941 . S
O332 C339 1.266 . S
H333 C335 0.959 . S
H334 C335 0.961 . S
C335 C325 1.510 . S
C335 H333 0.959 . S
C335 H334 0.961 . S
C335 H336 0.960 . S
H336 C335 0.960 . S
H337 N317 0.862 . S
O338 Co306 1.920 . S
O338 C311 1.289 . S
C339 O331 1.258 . S
C339 O332 1.266 . S
Co340 O343 1.970 . S
Co340 N357 1.989 . S
Co340 O365 1.967 . S
Co340 O372 1.920 . S
Co341 O344 1.966 . S
Co341 N350 2.022 . S
Co341 N358 1.993 . S
Co341 O366 1.941 . S
C342 O343 1.258 . S
C342 O344 1.263 . S
O343 Co340 1.970 . S
O343 C342 1.258 . S
O344 Co341 1.966 . S
O344 C342 1.263 . S
C345 O346 1.235 . S
C345 O372 1.289 . S
O346 C345 1.235 . S
C347 C349 1.400 . S
C347 N350 1.351 . S
C347 C352 1.501 . S
C348 C349 1.387 . S
C348 N351 1.341 . S
C349 C347 1.400 . S
C349 C348 1.387 . S
N350 Co341 2.022 . S
N350 C347 1.351 . S
N350 N351 1.365 . S
N351 C348 1.341 . S
N351 N350 1.365 . S
N351 H371 0.862 . S
C352 C347 1.501 . S
C352 H353 0.961 . S
C352 H354 0.961 . S
C352 H355 0.960 . S
H353 C352 0.961 . S
H354 C352 0.961 . S
H355 C352 0.960 . S
C356 N357 1.342 . S
C356 C360 1.401 . S
C356 C361 1.499 . S
N357 Co340 1.989 . S
N357 C356 1.342 . S
N357 N358 1.388 . S
N358 Co341 1.993 . S
N358 N357 1.388 . S
N358 C359 1.346 . S
C359 N358 1.346 . S
C359 C360 1.396 . S
C359 C369 1.510 . S
C360 C356 1.401 . S
C360 C359 1.396 . S
C361 C356 1.499 . S
C361 H362 0.959 . S
C361 H363 0.960 . S
C361 H364 0.961 . S
H362 C361 0.959 . S
H363 C361 0.960 . S
H364 C361 0.961 . S
O365 Co340 1.967 . S
O365 C373 1.258 . S
O366 Co341 1.941 . S
O366 C373 1.266 . S
H367 C369 0.959 . S
H368 C369 0.961 . S
C369 C359 1.510 . S
C369 H367 0.959 . S
C369 H368 0.961 . S
C369 H370 0.960 . S
H370 C369 0.960 . S
H371 N351 0.862 . S
O372 Co340 1.920 . S
O372 C345 1.289 . S
C373 O365 1.258 . S
C373 O366 1.266 . S
Co374 O377 1.970 . S
Co374 N391 1.989 1_556 S
Co374 O399 1.967 . S
Co374 O406 1.920 . S
Co375 O378 1.966 . S
Co375 N384 2.022 . S
Co375 N392 1.993 1_556 S
Co375 O400 1.941 . S
C376 O377 1.258 . S
C376 O378 1.263 . S
O377 Co374 1.970 . S
O377 C376 1.258 . S
O378 Co375 1.966 . S
O378 C376 1.263 . S
C379 O380 1.235 1_556 S
C379 O406 1.289 . S
O380 C379 1.235 1_554 S
C381 C383 1.400 . S
C381 N384 1.351 . S
C381 C386 1.501 . S
C382 C383 1.387 . S
C382 N385 1.341 . S
C383 C381 1.400 . S
C383 C382 1.387 . S
N384 Co375 2.022 . S
N384 C381 1.351 . S
N384 N385 1.365 . S
N385 C382 1.341 . S
N385 N384 1.365 . S
N385 H405 0.862 . S
C386 C381 1.501 . S
C386 H387 0.961 . S
C386 H388 0.961 . S
C386 H389 0.960 . S
H387 C386 0.961 . S
H388 C386 0.961 . S
H389 C386 0.960 . S
C390 N391 1.342 . S
C390 C394 1.401 . S
C390 C395 1.499 . S
N391 Co374 1.989 1_554 S
N391 C390 1.342 . S
N391 N392 1.388 . S
N392 Co375 1.993 1_554 S
N392 N391 1.388 . S
N392 C393 1.346 . S
C393 N392 1.346 . S
C393 C394 1.396 . S
C393 C403 1.510 . S
C394 C390 1.401 . S
C394 C393 1.396 . S
C395 C390 1.499 . S
C395 H396 0.959 . S
C395 H397 0.960 . S
C395 H398 0.961 . S
H396 C395 0.959 . S
H397 C395 0.960 . S
H398 C395 0.961 . S
O399 Co374 1.967 . S
O399 C407 1.258 . S
O400 Co375 1.941 . S
O400 C407 1.266 . S
H401 C403 0.959 . S
H402 C403 0.961 . S
C403 C393 1.510 . S
C403 H401 0.959 . S
C403 H402 0.961 . S
C403 H404 0.960 . S
H404 C403 0.960 . S
H405 N385 0.862 . S
O406 Co374 1.920 . S
O406 C379 1.289 . S
C407 O399 1.258 . S
C407 O400 1.266 . S
Co408 O411 1.970 . S
Co408 N425 1.989 . S
Co408 O433 1.967 . S
Co408 O440 1.920 . S
Co409 O412 1.966 . S
Co409 N418 2.022 . S
Co409 N426 1.993 . S
Co409 O434 1.941 . S
C410 O411 1.258 . S
C410 O412 1.263 . S
O411 Co408 1.970 . S
O411 C410 1.258 . S
O412 Co409 1.966 . S
O412 C410 1.263 . S
C413 O414 1.235 . S
C413 O440 1.289 . S
O414 C413 1.235 . S
C415 C417 1.400 . S
C415 N418 1.351 . S
C415 C420 1.501 . S
C416 C417 1.387 . S
C416 N419 1.341 . S
C417 C415 1.400 . S
C417 C416 1.387 . S
N418 Co409 2.022 . S
N418 C415 1.351 . S
N418 N419 1.365 . S
N419 C416 1.341 . S
N419 N418 1.365 . S
N419 H439 0.862 . S
C420 C415 1.501 . S
C420 H421 0.961 . S
C420 H422 0.961 . S
C420 H423 0.960 . S
H421 C420 0.961 . S
H422 C420 0.961 . S
H423 C420 0.960 . S
C424 N425 1.342 . S
C424 C428 1.401 . S
C424 C429 1.499 . S
N425 Co408 1.989 . S
N425 C424 1.342 . S
N425 N426 1.388 . S
N426 Co409 1.993 . S
N426 N425 1.388 . S
N426 C427 1.346 . S
C427 N426 1.346 . S
C427 C428 1.396 . S
C427 C437 1.510 . S
C428 C424 1.401 . S
C428 C427 1.396 . S
C429 C424 1.499 . S
C429 H430 0.959 . S
C429 H431 0.960 . S
C429 H432 0.961 . S
H430 C429 0.959 . S
H431 C429 0.960 . S
H432 C429 0.961 . S
O433 Co408 1.967 . S
O433 C441 1.258 . S
O434 Co409 1.941 . S
O434 C441 1.266 . S
H435 C437 0.959 . S
H436 C437 0.961 . S
C437 C427 1.510 . S
C437 H435 0.959 . S
C437 H436 0.961 . S
C437 H438 0.960 . S
H438 C437 0.960 . S
H439 N419 0.862 . S
O440 Co408 1.920 . S
O440 C413 1.289 . S
C441 O433 1.258 . S
C441 O434 1.266 . S
Co442 O445 1.970 . S
Co442 N459 1.989 . S
Co442 O467 1.967 . S
Co442 O474 1.920 . S
Co443 O446 1.966 . S
Co443 N452 2.022 . S
Co443 N460 1.993 . S
Co443 O468 1.941 . S
C444 O445 1.258 . S
C444 O446 1.263 . S
O445 Co442 1.970 . S
O445 C444 1.258 . S
O446 Co443 1.966 . S
O446 C444 1.263 . S
C447 O448 1.235 . S
C447 O474 1.289 . S
O448 C447 1.235 . S
C449 C451 1.400 . S
C449 N452 1.351 . S
C449 C454 1.501 . S
C450 C451 1.387 . S
C450 N453 1.341 . S
C451 C449 1.400 . S
C451 C450 1.387 . S
N452 Co443 2.022 . S
N452 C449 1.351 . S
N452 N453 1.365 . S
N453 C450 1.341 . S
N453 N452 1.365 . S
N453 H473 0.862 . S
C454 C449 1.501 . S
C454 H455 0.961 . S
C454 H456 0.961 . S
C454 H457 0.960 . S
H455 C454 0.961 . S
H456 C454 0.961 . S
H457 C454 0.960 . S
C458 N459 1.342 . S
C458 C462 1.401 . S
C458 C463 1.499 . S
N459 Co442 1.989 . S
N459 C458 1.342 . S
N459 N460 1.388 . S
N460 Co443 1.993 . S
N460 N459 1.388 . S
N460 C461 1.346 . S
C461 N460 1.346 . S
C461 C462 1.396 . S
C461 C471 1.510 . S
C462 C458 1.401 . S
C462 C461 1.396 . S
C463 C458 1.499 . S
C463 H464 0.959 . S
C463 H465 0.960 . S
C463 H466 0.961 . S
H464 C463 0.959 . S
H465 C463 0.960 . S
H466 C463 0.961 . S
O467 Co442 1.967 . S
O467 C475 1.258 . S
O468 Co443 1.941 . S
O468 C475 1.266 . S
H469 C471 0.959 . S
H470 C471 0.961 . S
C471 C461 1.510 . S
C471 H469 0.959 . S
C471 H470 0.961 . S
C471 H472 0.960 . S
H472 C471 0.960 . S
H473 N453 0.862 . S
O474 Co442 1.920 . S
O474 C447 1.289 . S
C475 O467 1.258 . S
C475 O468 1.266 . S
Co476 O479 1.970 . S
Co476 N493 1.989 . S
Co476 O501 1.967 . S
Co476 O508 1.920 . S
Co477 O480 1.966 . S
Co477 N486 2.022 . S
Co477 N494 1.993 . S
Co477 O502 1.941 . S
C478 O479 1.258 . S
C478 O480 1.263 . S
O479 Co476 1.970 . S
O479 C478 1.258 . S
O480 Co477 1.966 . S
O480 C478 1.263 . S
C481 O482 1.235 . S
C481 O508 1.289 . S
O482 C481 1.235 . S
C483 C485 1.400 . S
C483 N486 1.351 . S
C483 C488 1.501 . S
C484 C485 1.387 . S
C484 N487 1.341 . S
C485 C483 1.400 . S
C485 C484 1.387 . S
N486 Co477 2.022 . S
N486 C483 1.351 . S
N486 N487 1.365 . S
N487 C484 1.341 . S
N487 N486 1.365 . S
N487 H507 0.862 . S
C488 C483 1.501 . S
C488 H489 0.961 . S
C488 H490 0.961 . S
C488 H491 0.960 . S
H489 C488 0.961 . S
H490 C488 0.961 . S
H491 C488 0.960 . S
C492 N493 1.342 . S
C492 C496 1.401 . S
C492 C497 1.499 . S
N493 Co476 1.989 . S
N493 C492 1.342 . S
N493 N494 1.388 . S
N494 Co477 1.993 . S
N494 N493 1.388 . S
N494 C495 1.346 . S
C495 N494 1.346 . S
C495 C496 1.396 . S
C495 C505 1.510 . S
C496 C492 1.401 . S
C496 C495 1.396 . S
C497 C492 1.499 . S
C497 H498 0.959 . S
C497 H499 0.960 . S
C497 H500 0.961 . S
H498 C497 0.959 . S
H499 C497 0.960 . S
H500 C497 0.961 . S
O501 Co476 1.967 . S
O501 C509 1.258 . S
O502 Co477 1.941 . S
O502 C509 1.266 . S
H503 C505 0.959 . S
H504 C505 0.961 . S
C505 C495 1.510 . S
C505 H503 0.959 . S
C505 H504 0.961 . S
C505 H506 0.960 . S
H506 C505 0.960 . S
H507 N487 0.862 . S
O508 Co476 1.920 . S
O508 C481 1.289 . S
C509 O501 1.258 . S
C509 O502 1.266 . S
Co510 O513 1.970 . S
Co510 N527 1.989 1_554 S
Co510 O535 1.967 . S
Co510 O542 1.920 . S
Co511 O514 1.966 . S
Co511 N520 2.022 . S
Co511 N528 1.993 1_554 S
Co511 O536 1.941 . S
C512 O513 1.258 . S
C512 O514 1.263 . S
O513 Co510 1.970 . S
O513 C512 1.258 . S
O514 Co511 1.966 . S
O514 C512 1.263 . S
C515 O516 1.235 1_554 S
C515 O542 1.289 . S
O516 C515 1.235 1_556 S
C517 C519 1.400 . S
C517 N520 1.351 . S
C517 C522 1.501 . S
C518 C519 1.387 . S
C518 N521 1.341 . S
C519 C517 1.400 . S
C519 C518 1.387 . S
N520 Co511 2.022 . S
N520 C517 1.351 . S
N520 N521 1.365 . S
N521 C518 1.341 . S
N521 N520 1.365 . S
N521 H541 0.862 . S
C522 C517 1.501 . S
C522 H523 0.961 . S
C522 H524 0.961 . S
C522 H525 0.960 . S
H523 C522 0.961 . S
H524 C522 0.961 . S
H525 C522 0.960 . S
C526 N527 1.342 . S
C526 C530 1.401 . S
C526 C531 1.499 . S
N527 Co510 1.989 1_556 S
N527 C526 1.342 . S
N527 N528 1.388 . S
N528 Co511 1.993 1_556 S
N528 N527 1.388 . S
N528 C529 1.346 . S
C529 N528 1.346 . S
C529 C530 1.396 . S
C529 C539 1.510 . S
C530 C526 1.401 . S
C530 C529 1.396 . S
C531 C526 1.499 . S
C531 H532 0.959 . S
C531 H533 0.960 . S
C531 H534 0.961 . S
H532 C531 0.959 . S
H533 C531 0.960 . S
H534 C531 0.961 . S
O535 Co510 1.967 . S
O535 C543 1.258 . S
O536 Co511 1.941 . S
O536 C543 1.266 . S
H537 C539 0.959 . S
H538 C539 0.961 . S
C539 C529 1.510 . S
C539 H537 0.959 . S
C539 H538 0.961 . S
C539 H540 0.960 . S
H540 C539 0.960 . S
H541 N521 0.862 . S
O542 Co510 1.920 . S
O542 C515 1.289 . S
C543 O535 1.258 . S
C543 O536 1.266 . S
Co544 O547 1.970 . S
Co544 N561 1.989 . S
Co544 O569 1.967 . S
Co544 O576 1.920 . S
Co545 O548 1.966 . S
Co545 N554 2.022 . S
Co545 N562 1.993 . S
Co545 O570 1.941 . S
C546 O547 1.258 . S
C546 O548 1.263 . S
O547 Co544 1.970 . S
O547 C546 1.258 . S
O548 Co545 1.966 . S
O548 C546 1.263 . S
C549 O550 1.235 . S
C549 O576 1.289 . S
O550 C549 1.235 . S
C551 C553 1.400 . S
C551 N554 1.351 . S
C551 C556 1.501 . S
C552 C553 1.387 . S
C552 N555 1.341 . S
C553 C551 1.400 . S
C553 C552 1.387 . S
N554 Co545 2.022 . S
N554 C551 1.351 . S
N554 N555 1.365 . S
N555 C552 1.341 . S
N555 N554 1.365 . S
N555 H575 0.862 . S
C556 C551 1.501 . S
C556 H557 0.961 . S
C556 H558 0.961 . S
C556 H559 0.960 . S
H557 C556 0.961 . S
H558 C556 0.961 . S
H559 C556 0.960 . S
C560 N561 1.342 . S
C560 C564 1.401 . S
C560 C565 1.499 . S
N561 Co544 1.989 . S
N561 C560 1.342 . S
N561 N562 1.388 . S
N562 Co545 1.993 . S
N562 N561 1.388 . S
N562 C563 1.346 . S
C563 N562 1.346 . S
C563 C564 1.396 . S
C563 C573 1.510 . S
C564 C560 1.401 . S
C564 C563 1.396 . S
C565 C560 1.499 . S
C565 H566 0.959 . S
C565 H567 0.960 . S
C565 H568 0.961 . S
H566 C565 0.959 . S
H567 C565 0.960 . S
H568 C565 0.961 . S
O569 Co544 1.967 . S
O569 C577 1.258 . S
O570 Co545 1.941 . S
O570 C577 1.266 . S
H571 C573 0.959 . S
H572 C573 0.961 . S
C573 C563 1.510 . S
C573 H571 0.959 . S
C573 H572 0.961 . S
C573 H574 0.960 . S
H574 C573 0.960 . S
H575 N555 0.862 . S
O576 Co544 1.920 . S
O576 C549 1.289 . S
C577 O569 1.258 . S
C577 O570 1.266 . S
Co578 O581 1.970 . S
Co578 N595 1.989 . S
Co578 O603 1.967 . S
Co578 O610 1.920 . S
Co579 O582 1.966 . S
Co579 N588 2.022 1_554 S
Co579 N596 1.993 . S
Co579 O604 1.941 . S
C580 O581 1.258 . S
C580 O582 1.263 . S
O581 Co578 1.970 . S
O581 C580 1.258 . S
O582 Co579 1.966 . S
O582 C580 1.263 . S
C583 O584 1.235 . S
C583 O610 1.289 . S
O584 C583 1.235 . S
C585 C587 1.400 . S
C585 N588 1.351 . S
C585 C590 1.501 . S
C586 C587 1.387 . S
C586 N589 1.341 . S
C587 C585 1.400 . S
C587 C586 1.387 . S
N588 Co579 2.022 1_556 S
N588 C585 1.351 . S
N588 N589 1.365 . S
N589 C586 1.341 . S
N589 N588 1.365 . S
N589 H609 0.862 1_556 S
C590 C585 1.501 . S
C590 H591 0.961 . S
C590 H592 0.961 . S
C590 H593 0.960 . S
H591 C590 0.961 . S
H592 C590 0.961 . S
H593 C590 0.960 . S
C594 N595 1.342 . S
C594 C598 1.401 . S
C594 C599 1.499 . S
N595 Co578 1.989 . S
N595 C594 1.342 . S
N595 N596 1.388 . S
N596 Co579 1.993 . S
N596 N595 1.388 . S
N596 C597 1.346 . S
C597 N596 1.346 . S
C597 C598 1.396 . S
C597 C607 1.510 1_554 S
C598 C594 1.401 . S
C598 C597 1.396 . S
C599 C594 1.499 . S
C599 H600 0.959 . S
C599 H601 0.960 . S
C599 H602 0.961 . S
H600 C599 0.959 . S
H601 C599 0.960 . S
H602 C599 0.961 . S
O603 Co578 1.967 . S
O603 C611 1.258 . S
O604 Co579 1.941 . S
O604 C611 1.266 . S
H605 C607 0.959 . S
H606 C607 0.961 . S
C607 C597 1.510 1_556 S
C607 H605 0.959 . S
C607 H606 0.961 . S
C607 H608 0.960 . S
H608 C607 0.960 . S
H609 N589 0.862 1_554 S
O610 Co578 1.920 . S
O610 C583 1.289 . S
C611 O603 1.258 . S
C611 O604 1.266 . S
Co612 O615 1.970 . S
Co612 N629 1.989 . S
Co612 O637 1.967 . S
Co612 O644 1.920 . S
Co613 O616 1.966 . S
Co613 N622 2.022 . S
Co613 N630 1.993 . S
Co613 O638 1.941 . S
C614 O615 1.258 . S
C614 O616 1.263 . S
O615 Co612 1.970 . S
O615 C614 1.258 . S
O616 Co613 1.966 . S
O616 C614 1.263 . S
C617 O618 1.258 . S
C617 O644 1.249 1_455 S
O618 C617 1.258 . S
C619 C621 1.400 . S
C619 N622 1.351 . S
C619 C624 1.501 . S
C620 C621 1.387 . S
C620 N623 1.341 . S
C621 C619 1.400 . S
C621 C620 1.387 . S
N622 Co613 2.022 . S
N622 C619 1.351 . S
N622 N623 1.365 . S
N623 C620 1.341 . S
N623 N622 1.365 . S
N623 H643 0.862 . S
C624 C619 1.501 . S
C624 H625 0.961 . S
C624 H626 0.961 . S
C624 H627 0.960 . S
H625 C624 0.961 . S
H626 C624 0.961 . S
H627 C624 0.960 . S
C628 N629 1.342 . S
C628 C632 1.401 . S
C628 C633 1.499 . S
N629 Co612 1.989 . S
N629 C628 1.342 . S
N629 N630 1.388 . S
N630 Co613 1.993 . S
N630 N629 1.388 . S
N630 C631 1.346 . S
C631 N630 1.346 . S
C631 C632 1.396 . S
C631 C641 1.510 . S
C632 C628 1.401 . S
C632 C631 1.396 . S
C633 C628 1.499 . S
C633 H634 0.959 . S
C633 H635 0.960 . S
C633 H636 0.961 . S
H634 C633 0.959 . S
H635 C633 0.960 . S
H636 C633 0.961 . S
O637 Co612 1.967 . S
O637 C645 1.258 . S
O638 Co613 1.941 . S
O638 C645 1.266 . S
H639 C641 0.959 . S
H640 C641 0.961 . S
C641 C631 1.510 . S
C641 H639 0.959 . S
C641 H640 0.961 . S
C641 H642 0.960 . S
H642 C641 0.960 . S
H643 N623 0.862 . S
O644 Co612 1.920 . S
O644 C617 1.249 1_655 S
C645 O637 1.258 . S
C645 O638 1.266 . S
Co646 O649 1.970 . S
Co646 N663 1.989 . S
Co646 O671 1.967 . S
Co646 O678 1.920 . S
Co647 O650 1.966 . S
Co647 N656 2.022 . S
Co647 N664 1.993 . S
Co647 O672 1.941 . S
C648 O649 1.258 . S
C648 O650 1.263 . S
O649 Co646 1.970 . S
O649 C648 1.258 . S
O650 Co647 1.966 . S
O650 C648 1.263 . S
C651 O652 1.235 . S
C651 O678 1.289 . S
O652 C651 1.235 . S
C653 C655 1.400 . S
C653 N656 1.351 . S
C653 C658 1.501 . S
C654 C655 1.387 . S
C654 N657 1.341 . S
C655 C653 1.400 . S
C655 C654 1.387 . S
N656 Co647 2.022 . S
N656 C653 1.351 . S
N656 N657 1.365 . S
N657 C654 1.341 . S
N657 N656 1.365 . S
N657 H677 0.862 . S
C658 C653 1.501 . S
C658 H659 0.961 . S
C658 H660 0.961 . S
C658 H661 0.960 . S
H659 C658 0.961 . S
H660 C658 0.961 . S
H661 C658 0.960 . S
C662 N663 1.342 . S
C662 C666 1.401 . S
C662 C667 1.499 . S
N663 Co646 1.989 . S
N663 C662 1.342 . S
N663 N664 1.388 . S
N664 Co647 1.993 . S
N664 N663 1.388 . S
N664 C665 1.346 . S
C665 N664 1.346 . S
C665 C666 1.396 . S
C665 C675 1.510 . S
C666 C662 1.401 . S
C666 C665 1.396 . S
C667 C662 1.499 . S
C667 H668 0.959 . S
C667 H669 0.960 . S
C667 H670 0.961 . S
H668 C667 0.959 . S
H669 C667 0.960 . S
H670 C667 0.961 . S
O671 Co646 1.967 . S
O671 C679 1.258 . S
O672 Co647 1.941 . S
O672 C679 1.266 . S
H673 C675 0.959 . S
H674 C675 0.961 . S
C675 C665 1.510 . S
C675 H673 0.959 . S
C675 H674 0.961 . S
C675 H676 0.960 . S
H676 C675 0.960 . S
H677 N657 0.862 . S
O678 Co646 1.920 . S
O678 C651 1.289 . S
C679 O671 1.258 . S
C679 O672 1.266 . S
Co680 O683 1.970 . S
Co680 N697 1.989 . S
Co680 O705 1.967 . S
Co680 O712 1.920 . S
Co681 O684 1.966 . S
Co681 N690 2.022 . S
Co681 N698 1.993 . S
Co681 O706 1.941 . S
C682 O683 1.258 . S
C682 O684 1.263 . S
O683 Co680 1.970 . S
O683 C682 1.258 . S
O684 Co681 1.966 . S
O684 C682 1.263 . S
C685 O686 1.235 . S
C685 O712 1.289 . S
O686 C685 1.235 . S
C687 C689 1.400 . S
C687 N690 1.351 . S
C687 C692 1.501 . S
C688 C689 1.387 . S
C688 N691 1.341 . S
C689 C687 1.400 . S
C689 C688 1.387 . S
N690 Co681 2.022 . S
N690 C687 1.351 . S
N690 N691 1.365 . S
N691 C688 1.341 . S
N691 N690 1.365 . S
N691 H711 0.862 . S
C692 C687 1.501 . S
C692 H693 0.961 . S
C692 H694 0.961 . S
C692 H695 0.960 . S
H693 C692 0.961 . S
H694 C692 0.961 . S
H695 C692 0.960 . S
C696 N697 1.342 . S
C696 C700 1.401 . S
C696 C701 1.499 . S
N697 Co680 1.989 . S
N697 C696 1.342 . S
N697 N698 1.388 . S
N698 Co681 1.993 . S
N698 N697 1.388 . S
N698 C699 1.346 . S
C699 N698 1.346 . S
C699 C700 1.396 . S
C699 C709 1.510 . S
C700 C696 1.401 . S
C700 C699 1.396 . S
C701 C696 1.499 . S
C701 H702 0.959 . S
C701 H703 0.960 . S
C701 H704 0.961 . S
H702 C701 0.959 . S
H703 C701 0.960 . S
H704 C701 0.961 . S
O705 Co680 1.967 . S
O705 C713 1.258 . S
O706 Co681 1.941 . S
O706 C713 1.266 . S
H707 C709 0.959 . S
H708 C709 0.961 . S
C709 C699 1.510 . S
C709 H707 0.959 . S
C709 H708 0.961 . S
C709 H710 0.960 . S
H710 C709 0.960 . S
H711 N691 0.862 . S
O712 Co680 1.920 . S
O712 C685 1.289 . S
C713 O705 1.258 . S
C713 O706 1.266 . S
Co714 O717 1.970 . S
Co714 N731 1.989 . S
Co714 O739 1.967 . S
Co714 O746 1.920 . S
Co715 O718 1.966 . S
Co715 N724 2.022 1_556 S
Co715 N732 1.993 . S
Co715 O740 1.941 . S
C716 O717 1.258 . S
C716 O718 1.263 . S
O717 Co714 1.970 . S
O717 C716 1.258 . S
O718 Co715 1.966 . S
O718 C716 1.263 . S
C719 O720 1.235 . S
C719 O746 1.289 . S
O720 C719 1.235 . S
C721 C723 1.400 . S
C721 N724 1.351 . S
C721 C726 1.501 . S
C722 C723 1.387 . S
C722 N725 1.341 . S
C723 C721 1.400 . S
C723 C722 1.387 . S
N724 Co715 2.022 1_554 S
N724 C721 1.351 . S
N724 N725 1.365 . S
N725 C722 1.341 . S
N725 N724 1.365 . S
N725 H745 0.862 1_554 S
C726 C721 1.501 . S
C726 H727 0.961 . S
C726 H728 0.961 . S
C726 H729 0.960 . S
H727 C726 0.961 . S
H728 C726 0.961 . S
H729 C726 0.960 . S
C730 N731 1.342 . S
C730 C734 1.401 . S
C730 C735 1.499 . S
N731 Co714 1.989 . S
N731 C730 1.342 . S
N731 N732 1.388 . S
N732 Co715 1.993 . S
N732 N731 1.388 . S
N732 C733 1.346 . S
C733 N732 1.346 . S
C733 C734 1.396 . S
C733 C743 1.510 1_556 S
C734 C730 1.401 . S
C734 C733 1.396 . S
C735 C730 1.499 . S
C735 H736 0.959 . S
C735 H737 0.960 . S
C735 H738 0.961 . S
H736 C735 0.959 . S
H737 C735 0.960 . S
H738 C735 0.961 . S
O739 Co714 1.967 . S
O739 C747 1.258 . S
O740 Co715 1.941 . S
O740 C747 1.266 . S
H741 C743 0.959 . S
H742 C743 0.961 . S
C743 C733 1.510 1_554 S
C743 H741 0.959 . S
C743 H742 0.961 . S
C743 H744 0.960 . S
H744 C743 0.960 . S
H745 N725 0.862 1_556 S
O746 Co714 1.920 . S
O746 C719 1.289 . S
C747 O739 1.258 . S
C747 O740 1.266 . S
Co748 O751 1.970 . S
Co748 N765 1.989 . S
Co748 O773 1.967 . S
Co748 O780 1.920 . S
Co749 O752 1.966 . S
Co749 N758 2.022 . S
Co749 N766 1.993 . S
Co749 O774 1.941 . S
C750 O751 1.258 . S
C750 O752 1.263 . S
O751 Co748 1.970 . S
O751 C750 1.258 . S
O752 Co749 1.966 . S
O752 C750 1.263 . S
C753 O754 1.258 . S
C753 O780 1.249 1_455 S
O754 C753 1.258 . S
C755 C757 1.400 . S
C755 N758 1.351 . S
C755 C760 1.501 . S
C756 C757 1.387 . S
C756 N759 1.341 . S
C757 C755 1.400 . S
C757 C756 1.387 . S
N758 Co749 2.022 . S
N758 C755 1.351 . S
N758 N759 1.365 . S
N759 C756 1.341 . S
N759 N758 1.365 . S
N759 H779 0.862 . S
C760 C755 1.501 . S
C760 H761 0.961 . S
C760 H762 0.961 . S
C760 H763 0.960 . S
H761 C760 0.961 . S
H762 C760 0.961 . S
H763 C760 0.960 . S
C764 N765 1.342 . S
C764 C768 1.401 . S
C764 C769 1.499 . S
N765 Co748 1.989 . S
N765 C764 1.342 . S
N765 N766 1.388 . S
N766 Co749 1.993 . S
N766 N765 1.388 . S
N766 C767 1.346 . S
C767 N766 1.346 . S
C767 C768 1.396 . S
C767 C777 1.510 . S
C768 C764 1.401 . S
C768 C767 1.396 . S
C769 C764 1.499 . S
C769 H770 0.959 . S
C769 H771 0.960 . S
C769 H772 0.961 . S
H770 C769 0.959 . S
H771 C769 0.960 . S
H772 C769 0.961 . S
O773 Co748 1.967 . S
O773 C781 1.258 . S
O774 Co749 1.941 . S
O774 C781 1.266 . S
H775 C777 0.959 . S
H776 C777 0.961 . S
C777 C767 1.510 . S
C777 H775 0.959 . S
C777 H776 0.961 . S
C777 H778 0.960 . S
H778 C777 0.960 . S
H779 N759 0.862 . S
O780 Co748 1.920 . S
O780 C753 1.249 1_655 S
C781 O773 1.258 . S
C781 O774 1.266 . S
Co782 O785 1.970 . S
Co782 N799 1.989 . S
Co782 O807 1.967 . S
Co782 O814 1.920 . S
Co783 O786 1.966 . S
Co783 N792 2.022 . S
Co783 N800 1.993 . S
Co783 O808 1.941 . S
C784 O785 1.258 . S
C784 O786 1.263 . S
O785 Co782 1.970 . S
O785 C784 1.258 . S
O786 Co783 1.966 . S
O786 C784 1.263 . S
C787 O788 1.235 . S
C787 O814 1.289 . S
O788 C787 1.235 . S
C789 C791 1.400 . S
C789 N792 1.351 . S
C789 C794 1.501 . S
C790 C791 1.387 . S
C790 N793 1.341 . S
C791 C789 1.400 . S
C791 C790 1.387 . S
N792 Co783 2.022 . S
N792 C789 1.351 . S
N792 N793 1.365 . S
N793 C790 1.341 . S
N793 N792 1.365 . S
N793 H813 0.862 . S
C794 C789 1.501 . S
C794 H795 0.961 . S
C794 H796 0.961 . S
C794 H797 0.960 . S
H795 C794 0.961 . S
H796 C794 0.961 . S
H797 C794 0.960 . S
C798 N799 1.342 . S
C798 C802 1.401 . S
C798 C803 1.499 . S
N799 Co782 1.989 . S
N799 C798 1.342 . S
N799 N800 1.388 . S
N800 Co783 1.993 . S
N800 N799 1.388 . S
N800 C801 1.346 . S
C801 N800 1.346 . S
C801 C802 1.396 . S
C801 C811 1.510 . S
C802 C798 1.401 . S
C802 C801 1.396 . S
C803 C798 1.499 . S
C803 H804 0.959 . S
C803 H805 0.960 . S
C803 H806 0.961 . S
H804 C803 0.959 . S
H805 C803 0.960 . S
H806 C803 0.961 . S
O807 Co782 1.967 . S
O807 C815 1.258 . S
O808 Co783 1.941 . S
O808 C815 1.266 . S
H809 C811 0.959 . S
H810 C811 0.961 . S
C811 C801 1.510 . S
C811 H809 0.959 . S
C811 H810 0.961 . S
C811 H812 0.960 . S
H812 C811 0.960 . S
H813 N793 0.862 . S
O814 Co782 1.920 . S
O814 C787 1.289 . S
C815 O807 1.258 . S
C815 O808 1.266 . S
Co816 O819 1.970 . S
Co816 N833 1.989 . S
Co816 O841 1.967 . S
Co816 O848 1.920 . S
Co817 O820 1.966 . S
Co817 N826 2.022 . S
Co817 N834 1.993 . S
Co817 O842 1.941 . S
C818 O819 1.258 . S
C818 O820 1.263 . S
O819 Co816 1.970 . S
O819 C818 1.258 . S
O820 Co817 1.966 . S
O820 C818 1.263 . S
C821 O822 1.235 . S
C821 O848 1.289 . S
O822 C821 1.235 . S
C823 C825 1.400 . S
C823 N826 1.351 . S
C823 C828 1.501 . S
C824 C825 1.387 . S
C824 N827 1.341 . S
C825 C823 1.400 . S
C825 C824 1.387 . S
N826 Co817 2.022 . S
N826 C823 1.351 . S
N826 N827 1.365 . S
N827 C824 1.341 . S
N827 N826 1.365 . S
N827 H847 0.862 . S
C828 C823 1.501 . S
C828 H829 0.961 . S
C828 H830 0.961 . S
C828 H831 0.960 . S
H829 C828 0.961 . S
H830 C828 0.961 . S
H831 C828 0.960 . S
C832 N833 1.342 . S
C832 C836 1.401 . S
C832 C837 1.499 . S
N833 Co816 1.989 . S
N833 C832 1.342 . S
N833 N834 1.388 . S
N834 Co817 1.993 . S
N834 N833 1.388 . S
N834 C835 1.346 . S
C835 N834 1.346 . S
C835 C836 1.396 . S
C835 C845 1.510 . S
C836 C832 1.401 . S
C836 C835 1.396 . S
C837 C832 1.499 . S
C837 H838 0.959 . S
C837 H839 0.960 . S
C837 H840 0.961 . S
H838 C837 0.959 . S
H839 C837 0.960 . S
H840 C837 0.961 . S
O841 Co816 1.967 . S
O841 C849 1.258 . S
O842 Co817 1.941 . S
O842 C849 1.266 . S
H843 C845 0.959 . S
H844 C845 0.961 . S
C845 C835 1.510 . S
C845 H843 0.959 . S
C845 H844 0.961 . S
C845 H846 0.960 . S
H846 C845 0.960 . S
H847 N827 0.862 . S
O848 Co816 1.920 . S
O848 C821 1.289 . S
C849 O841 1.258 . S
C849 O842 1.266 . S
Co850 O853 1.970 . S
Co850 N867 1.989 1_556 S
Co850 O875 1.967 . S
Co850 O882 1.920 . S
Co851 O854 1.966 . S
Co851 N860 2.022 . S
Co851 N868 1.993 1_556 S
Co851 O876 1.941 . S
C852 O853 1.258 . S
C852 O854 1.263 . S
O853 Co850 1.970 . S
O853 C852 1.258 . S
O854 Co851 1.966 . S
O854 C852 1.263 . S
C855 O856 1.235 1_556 S
C855 O882 1.289 . S
O856 C855 1.235 1_554 S
C857 C859 1.400 . S
C857 N860 1.351 . S
C857 C862 1.501 . S
C858 C859 1.387 . S
C858 N861 1.341 . S
C859 C857 1.400 . S
C859 C858 1.387 . S
N860 Co851 2.022 . S
N860 C857 1.351 . S
N860 N861 1.365 . S
N861 C858 1.341 . S
N861 N860 1.365 . S
N861 H881 0.862 . S
C862 C857 1.501 . S
C862 H863 0.961 . S
C862 H864 0.961 . S
C862 H865 0.960 . S
H863 C862 0.961 . S
H864 C862 0.961 . S
H865 C862 0.960 . S
C866 N867 1.342 . S
C866 C870 1.401 . S
C866 C871 1.499 . S
N867 Co850 1.989 1_554 S
N867 C866 1.342 . S
N867 N868 1.388 . S
N868 Co851 1.993 1_554 S
N868 N867 1.388 . S
N868 C869 1.346 . S
C869 N868 1.346 . S
C869 C870 1.396 . S
C869 C879 1.510 . S
C870 C866 1.401 . S
C870 C869 1.396 . S
C871 C866 1.499 . S
C871 H872 0.959 . S
C871 H873 0.960 . S
C871 H874 0.961 . S
H872 C871 0.959 . S
H873 C871 0.960 . S
H874 C871 0.961 . S
O875 Co850 1.967 . S
O875 C883 1.258 . S
O876 Co851 1.941 . S
O876 C883 1.266 . S
H877 C879 0.959 . S
H878 C879 0.961 . S
C879 C869 1.510 . S
C879 H877 0.959 . S
C879 H878 0.961 . S
C879 H880 0.960 . S
H880 C879 0.960 . S
H881 N861 0.862 . S
O882 Co850 1.920 . S
O882 C855 1.289 . S
C883 O875 1.258 . S
C883 O876 1.266 . S
Co884 O887 1.970 . S
Co884 N901 1.989 . S
Co884 O909 1.967 . S
Co884 O916 1.920 . S
Co885 O888 1.966 . S
Co885 N894 2.022 . S
Co885 N902 1.993 . S
Co885 O910 1.941 . S
C886 O887 1.258 . S
C886 O888 1.263 . S
O887 Co884 1.970 . S
O887 C886 1.258 . S
O888 Co885 1.966 . S
O888 C886 1.263 . S
C889 O890 1.235 . S
C889 O916 1.289 . S
O890 C889 1.235 . S
C891 C893 1.400 . S
C891 N894 1.351 . S
C891 C896 1.501 . S
C892 C893 1.387 . S
C892 N895 1.341 . S
C893 C891 1.400 . S
C893 C892 1.387 . S
N894 Co885 2.022 . S
N894 C891 1.351 . S
N894 N895 1.365 . S
N895 C892 1.341 . S
N895 N894 1.365 . S
N895 H915 0.862 . S
C896 C891 1.501 . S
C896 H897 0.961 . S
C896 H898 0.961 . S
C896 H899 0.960 . S
H897 C896 0.961 . S
H898 C896 0.961 . S
H899 C896 0.960 . S
C900 N901 1.342 . S
C900 C904 1.401 . S
C900 C905 1.499 . S
N901 Co884 1.989 . S
N901 C900 1.342 . S
N901 N902 1.388 . S
N902 Co885 1.993 . S
N902 N901 1.388 . S
N902 C903 1.346 . S
C903 N902 1.346 . S
C903 C904 1.396 . S
C903 C913 1.510 . S
C904 C900 1.401 . S
C904 C903 1.396 . S
C905 C900 1.499 . S
C905 H906 0.959 . S
C905 H907 0.960 . S
C905 H908 0.961 . S
H906 C905 0.959 . S
H907 C905 0.960 . S
H908 C905 0.961 . S
O909 Co884 1.967 . S
O909 C917 1.258 . S
O910 Co885 1.941 . S
O910 C917 1.266 . S
H911 C913 0.959 . S
H912 C913 0.961 . S
C913 C903 1.510 . S
C913 H911 0.959 . S
C913 H912 0.961 . S
C913 H914 0.960 . S
H914 C913 0.960 . S
H915 N895 0.862 . S
O916 Co884 1.920 . S
O916 C889 1.289 . S
C917 O909 1.258 . S
C917 O910 1.266 . S
Co918 O921 1.970 . S
Co918 N935 1.989 . S
Co918 O943 1.967 . S
Co918 O950 1.920 . S
Co919 O922 1.966 . S
Co919 N928 2.022 . S
Co919 N936 1.993 . S
Co919 O944 1.941 . S
C920 O921 1.258 . S
C920 O922 1.263 . S
O921 Co918 1.970 . S
O921 C920 1.258 . S
O922 Co919 1.966 . S
O922 C920 1.263 . S
C923 O924 1.235 . S
C923 O950 1.289 . S
O924 C923 1.235 . S
C925 C927 1.400 . S
C925 N928 1.351 . S
C925 C930 1.501 . S
C926 C927 1.387 . S
C926 N929 1.341 . S
C927 C925 1.400 . S
C927 C926 1.387 . S
N928 Co919 2.022 . S
N928 C925 1.351 . S
N928 N929 1.365 . S
N929 C926 1.341 . S
N929 N928 1.365 . S
N929 H949 0.862 . S
C930 C925 1.501 . S
C930 H931 0.961 . S
C930 H932 0.961 . S
C930 H933 0.960 . S
H931 C930 0.961 . S
H932 C930 0.961 . S
H933 C930 0.960 . S
C934 N935 1.342 . S
C934 C938 1.401 . S
C934 C939 1.499 . S
N935 Co918 1.989 . S
N935 C934 1.342 . S
N935 N936 1.388 . S
N936 Co919 1.993 . S
N936 N935 1.388 . S
N936 C937 1.346 . S
C937 N936 1.346 . S
C937 C938 1.396 . S
C937 C947 1.510 . S
C938 C934 1.401 . S
C938 C937 1.396 . S
C939 C934 1.499 . S
C939 H940 0.959 . S
C939 H941 0.960 . S
C939 H942 0.961 . S
H940 C939 0.959 . S
H941 C939 0.960 . S
H942 C939 0.961 . S
O943 Co918 1.967 . S
O943 C951 1.258 . S
O944 Co919 1.941 . S
O944 C951 1.266 . S
H945 C947 0.959 . S
H946 C947 0.961 . S
C947 C937 1.510 . S
C947 H945 0.959 . S
C947 H946 0.961 . S
C947 H948 0.960 . S
H948 C947 0.960 . S
H949 N929 0.862 . S
O950 Co918 1.920 . S
O950 C923 1.289 . S
C951 O943 1.258 . S
C951 O944 1.266 . S
Co952 O955 1.970 . S
Co952 N969 1.989 . S
Co952 O977 1.967 . S
Co952 O984 1.920 . S
Co953 O956 1.966 . S
Co953 N962 2.022 . S
Co953 N970 1.993 . S
Co953 O978 1.941 . S
C954 O955 1.258 . S
C954 O956 1.263 . S
O955 Co952 1.970 . S
O955 C954 1.258 . S
O956 Co953 1.966 . S
O956 C954 1.263 . S
C957 O958 1.235 . S
C957 O984 1.289 . S
O958 C957 1.235 . S
C959 C961 1.400 . S
C959 N962 1.351 . S
C959 C964 1.501 . S
C960 C961 1.387 . S
C960 N963 1.341 . S
C961 C959 1.400 . S
C961 C960 1.387 . S
N962 Co953 2.022 . S
N962 C959 1.351 . S
N962 N963 1.365 . S
N963 C960 1.341 . S
N963 N962 1.365 . S
N963 H983 0.862 . S
C964 C959 1.501 . S
C964 H965 0.961 . S
C964 H966 0.961 . S
C964 H967 0.960 . S
H965 C964 0.961 . S
H966 C964 0.961 . S
H967 C964 0.960 . S
C968 N969 1.342 . S
C968 C972 1.401 . S
C968 C973 1.499 . S
N969 Co952 1.989 . S
N969 C968 1.342 . S
N969 N970 1.388 . S
N970 Co953 1.993 . S
N970 N969 1.388 . S
N970 C971 1.346 . S
C971 N970 1.346 . S
C971 C972 1.396 . S
C971 C981 1.510 . S
C972 C968 1.401 . S
C972 C971 1.396 . S
C973 C968 1.499 . S
C973 H974 0.959 . S
C973 H975 0.960 . S
C973 H976 0.961 . S
H974 C973 0.959 . S
H975 C973 0.960 . S
H976 C973 0.961 . S
O977 Co952 1.967 . S
O977 C985 1.258 . S
O978 Co953 1.941 . S
O978 C985 1.266 . S
H979 C981 0.959 . S
H980 C981 0.961 . S
C981 C971 1.510 . S
C981 H979 0.959 . S
C981 H980 0.961 . S
C981 H982 0.960 . S
H982 C981 0.960 . S
H983 N963 0.862 . S
O984 Co952 1.920 . S
O984 C957 1.289 . S
C985 O977 1.258 . S
C985 O978 1.266 . S
Co986 O989 1.970 . S
Co986 N1003 1.989 1_554 S
Co986 O1011 1.967 . S
Co986 O1018 1.920 . S
Co987 O990 1.966 . S
Co987 N996 2.022 . S
Co987 N1004 1.993 1_554 S
Co987 O1012 1.941 . S
C988 O989 1.258 . S
C988 O990 1.263 . S
O989 Co986 1.970 . S
O989 C988 1.258 . S
O990 Co987 1.966 . S
O990 C988 1.263 . S
C991 O992 1.235 1_554 S
C991 O1018 1.289 . S
O992 C991 1.235 1_556 S
C993 C995 1.400 . S
C993 N996 1.351 . S
C993 C998 1.501 . S
C994 C995 1.387 . S
C994 N997 1.341 . S
C995 C993 1.400 . S
C995 C994 1.387 . S
N996 Co987 2.022 . S
N996 C993 1.351 . S
N996 N997 1.365 . S
N997 C994 1.341 . S
N997 N996 1.365 . S
N997 H1017 0.862 . S
C998 C993 1.501 . S
C998 H999 0.961 . S
C998 H1000 0.961 . S
C998 H1001 0.960 . S
H999 C998 0.961 . S
H1000 C998 0.961 . S
H1001 C998 0.960 . S
C1002 N1003 1.342 . S
C1002 C1006 1.401 . S
C1002 C1007 1.499 . S
N1003 Co986 1.989 1_556 S
N1003 C1002 1.342 . S
N1003 N1004 1.388 . S
N1004 Co987 1.993 1_556 S
N1004 N1003 1.388 . S
N1004 C1005 1.346 . S
C1005 N1004 1.346 . S
C1005 C1006 1.396 . S
C1005 C1015 1.510 . S
C1006 C1002 1.401 . S
C1006 C1005 1.396 . S
C1007 C1002 1.499 . S
C1007 H1008 0.959 . S
C1007 H1009 0.960 . S
C1007 H1010 0.961 . S
H1008 C1007 0.959 . S
H1009 C1007 0.960 . S
H1010 C1007 0.961 . S
O1011 Co986 1.967 . S
O1011 C1019 1.258 . S
O1012 Co987 1.941 . S
O1012 C1019 1.266 . S
H1013 C1015 0.959 . S
H1014 C1015 0.961 . S
C1015 C1005 1.510 . S
C1015 H1013 0.959 . S
C1015 H1014 0.961 . S
C1015 H1016 0.960 . S
H1016 C1015 0.960 . S
H1017 N997 0.862 . S
O1018 Co986 1.920 . S
O1018 C991 1.289 . S
C1019 O1011 1.258 . S
C1019 O1012 1.266 . S
Co1020 O1023 1.970 . S
Co1020 N1037 1.989 . S
Co1020 O1045 1.967 . S
Co1020 O1052 1.920 . S
Co1021 O1024 1.966 . S
Co1021 N1030 2.022 . S
Co1021 N1038 1.993 . S
Co1021 O1046 1.941 . S
C1022 O1023 1.258 . S
C1022 O1024 1.263 . S
O1023 Co1020 1.970 . S
O1023 C1022 1.258 . S
O1024 Co1021 1.966 . S
O1024 C1022 1.263 . S
C1025 O1026 1.235 . S
C1025 O1052 1.289 . S
O1026 C1025 1.235 . S
C1027 C1029 1.400 . S
C1027 N1030 1.351 . S
C1027 C1032 1.501 . S
C1028 C1029 1.387 . S
C1028 N1031 1.341 . S
C1029 C1027 1.400 . S
C1029 C1028 1.387 . S
N1030 Co1021 2.022 . S
N1030 C1027 1.351 . S
N1030 N1031 1.365 . S
N1031 C1028 1.341 . S
N1031 N1030 1.365 . S
N1031 H1051 0.862 . S
C1032 C1027 1.501 . S
C1032 H1033 0.961 . S
C1032 H1034 0.961 . S
C1032 H1035 0.960 . S
H1033 C1032 0.961 . S
H1034 C1032 0.961 . S
H1035 C1032 0.960 . S
C1036 N1037 1.342 . S
C1036 C1040 1.401 . S
C1036 C1041 1.499 . S
N1037 Co1020 1.989 . S
N1037 C1036 1.342 . S
N1037 N1038 1.388 . S
N1038 Co1021 1.993 . S
N1038 N1037 1.388 . S
N1038 C1039 1.346 . S
C1039 N1038 1.346 . S
C1039 C1040 1.396 . S
C1039 C1049 1.510 . S
C1040 C1036 1.401 . S
C1040 C1039 1.396 . S
C1041 C1036 1.499 . S
C1041 H1042 0.959 . S
C1041 H1043 0.960 . S
C1041 H1044 0.961 . S
H1042 C1041 0.959 . S
H1043 C1041 0.960 . S
H1044 C1041 0.961 . S
O1045 Co1020 1.967 . S
O1045 C1053 1.258 . S
O1046 Co1021 1.941 . S
O1046 C1053 1.266 . S
H1047 C1049 0.959 . S
H1048 C1049 0.961 . S
C1049 C1039 1.510 . S
C1049 H1047 0.959 . S
C1049 H1048 0.961 . S
C1049 H1050 0.960 . S
H1050 C1049 0.960 . S
H1051 N1031 0.862 . S
O1052 Co1020 1.920 . S
O1052 C1025 1.289 . S
C1053 O1045 1.258 . S
C1053 O1046 1.266 . S
Co1054 O1057 1.970 . S
Co1054 N1071 1.989 . S
Co1054 O1079 1.967 . S
Co1054 O1086 1.920 . S
Co1055 O1058 1.966 . S
Co1055 N1064 2.022 . S
Co1055 N1072 1.993 . S
Co1055 O1080 1.941 . S
C1056 O1057 1.258 . S
C1056 O1058 1.263 . S
O1057 Co1054 1.970 . S
O1057 C1056 1.258 . S
O1058 Co1055 1.966 . S
O1058 C1056 1.263 . S
C1059 O1060 1.235 . S
C1059 O1086 1.289 . S
O1060 C1059 1.235 . S
C1061 C1063 1.400 . S
C1061 N1064 1.351 . S
C1061 C1066 1.501 . S
C1062 C1063 1.387 . S
C1062 N1065 1.341 . S
C1063 C1061 1.400 . S
C1063 C1062 1.387 . S
N1064 Co1055 2.022 . S
N1064 C1061 1.351 . S
N1064 N1065 1.365 . S
N1065 C1062 1.341 . S
N1065 N1064 1.365 . S
N1065 H1085 0.862 . S
C1066 C1061 1.501 . S
C1066 H1067 0.961 . S
C1066 H1068 0.961 . S
C1066 H1069 0.960 . S
H1067 C1066 0.961 . S
H1068 C1066 0.961 . S
H1069 C1066 0.960 . S
C1070 N1071 1.342 . S
C1070 C1074 1.401 . S
C1070 C1075 1.499 . S
N1071 Co1054 1.989 . S
N1071 C1070 1.342 . S
N1071 N1072 1.388 . S
N1072 Co1055 1.993 . S
N1072 N1071 1.388 . S
N1072 C1073 1.346 . S
C1073 N1072 1.346 . S
C1073 C1074 1.396 . S
C1073 C1083 1.510 . S
C1074 C1070 1.401 . S
C1074 C1073 1.396 . S
C1075 C1070 1.499 . S
C1075 H1076 0.959 . S
C1075 H1077 0.960 . S
C1075 H1078 0.961 . S
H1076 C1075 0.959 . S
H1077 C1075 0.960 . S
H1078 C1075 0.961 . S
O1079 Co1054 1.967 . S
O1079 C1087 1.258 . S
O1080 Co1055 1.941 . S
O1080 C1087 1.266 . S
H1081 C1083 0.959 . S
H1082 C1083 0.961 . S
C1083 C1073 1.510 . S
C1083 H1081 0.959 . S
C1083 H1082 0.961 . S
C1083 H1084 0.960 . S
H1084 C1083 0.960 . S
H1085 N1065 0.862 . S
O1086 Co1054 1.920 . S
O1086 C1059 1.289 . S
C1087 O1079 1.258 . S
C1087 O1080 1.266 . S
H1088 C1094 0.930 . S
H1089 C1098 0.930 . S
H1090 C1103 0.929 . S
H1091 C1101 0.929 . S
H1092 C1096 0.929 . S
H1093 C1102 0.929 . S
C1094 H1088 0.930 . S
C1094 C1095 1.367 . S
C1094 C1102 1.378 . S
C1095 C1094 1.367 . S
C1095 C1103 1.433 . S
C1096 H1092 0.929 . S
C1096 C1098 1.378 . S
C1096 C1100 1.350 . S
C1097 C1100 1.463 . S
C1097 C1102 1.350 . S
C1097 N1105 1.427 . S
C1098 H1089 0.930 . S
C1098 C1096 1.378 . S
C1098 C1099 1.367 . S
C1099 C1098 1.367 . S
C1099 C1101 1.433 . S
C1100 C1096 1.350 . S
C1100 C1097 1.463 . S
C1100 N1104 1.427 . S
C1101 H1091 0.929 . S
C1101 C1099 1.433 . S
C1101 N1104 1.384 . S
C1102 H1093 0.929 . S
C1102 C1094 1.378 . S
C1102 C1097 1.350 . S
C1103 H1090 0.929 . S
C1103 C1095 1.433 . S
C1103 N1105 1.384 . S
N1104 C1100 1.427 . S
N1104 C1101 1.384 . S
N1105 C1097 1.427 . S
N1105 C1103 1.384 . S
H1106 C1112 0.930 . S
H1107 C1116 0.930 . S
H1108 C1121 0.929 . S
H1109 C1119 0.929 . S
H1110 C1114 0.929 . S
H1111 C1120 0.929 . S
C1112 H1106 0.930 . S
C1112 C1113 1.367 . S
C1112 C1120 1.378 . S
C1113 C1112 1.367 . S
C1113 C1121 1.433 . S
C1114 H1110 0.929 . S
C1114 C1116 1.378 . S
C1114 C1118 1.350 . S
C1115 C1118 1.463 . S
C1115 C1120 1.350 . S
C1115 N1123 1.427 . S
C1116 H1107 0.930 . S
C1116 C1114 1.378 . S
C1116 C1117 1.367 . S
C1117 C1116 1.367 . S
C1117 C1119 1.433 . S
C1118 C1114 1.350 . S
C1118 C1115 1.463 . S
C1118 N1122 1.427 . S
C1119 H1109 0.929 . S
C1119 C1117 1.433 . S
C1119 N1122 1.384 . S
C1120 H1111 0.929 . S
C1120 C1112 1.378 . S
C1120 C1115 1.350 . S
C1121 H1108 0.929 . S
C1121 C1113 1.433 . S
C1121 N1123 1.384 . S
N1122 C1118 1.427 . S
N1122 C1119 1.384 . S
N1123 C1115 1.427 . S
N1123 C1121 1.384 . S
H1124 C1130 0.930 . S
H1125 C1134 0.930 . S
H1126 C1139 0.929 . S
H1127 C1137 0.929 . S
H1128 C1132 0.929 . S
H1129 C1138 0.929 . S
C1130 H1124 0.930 . S
C1130 C1131 1.367 . S
C1130 C1138 1.378 . S
C1131 C1130 1.367 . S
C1131 C1139 1.433 . S
C1132 H1128 0.929 . S
C1132 C1134 1.378 . S
C1132 C1136 1.350 . S
C1133 C1136 1.463 . S
C1133 C1138 1.350 . S
C1133 N1141 1.427 . S
C1134 H1125 0.930 . S
C1134 C1132 1.378 . S
C1134 C1135 1.367 . S
C1135 C1134 1.367 . S
C1135 C1137 1.433 . S
C1136 C1132 1.350 . S
C1136 C1133 1.463 . S
C1136 N1140 1.427 . S
C1137 H1127 0.929 . S
C1137 C1135 1.433 . S
C1137 N1140 1.384 . S
C1138 H1129 0.929 . S
C1138 C1130 1.378 . S
C1138 C1133 1.350 . S
C1139 H1126 0.929 . S
C1139 C1131 1.433 . S
C1139 N1141 1.384 . S
N1140 C1136 1.427 . S
N1140 C1137 1.384 . S
N1141 C1133 1.427 . S
N1141 C1139 1.384 . S
H1142 C1148 0.930 . S
H1143 C1152 0.930 . S
H1144 C1157 0.929 . S
H1145 C1155 0.929 . S
H1146 C1150 0.929 . S
H1147 C1156 0.929 . S
C1148 H1142 0.930 . S
C1148 C1149 1.367 . S
C1148 C1156 1.378 . S
C1149 C1148 1.367 . S
C1149 C1157 1.433 . S
C1150 H1146 0.929 . S
C1150 C1152 1.378 . S
C1150 C1154 1.350 . S
C1151 C1154 1.463 . S
C1151 C1156 1.350 . S
C1151 N1159 1.427 . S
C1152 H1143 0.930 . S
C1152 C1150 1.378 . S
C1152 C1153 1.367 . S
C1153 C1152 1.367 . S
C1153 C1155 1.433 . S
C1154 C1150 1.350 . S
C1154 C1151 1.463 . S
C1154 N1158 1.427 . S
C1155 H1145 0.929 . S
C1155 C1153 1.433 . S
C1155 N1158 1.384 . S
C1156 H1147 0.929 . S
C1156 C1148 1.378 . S
C1156 C1151 1.350 . S
C1157 H1144 0.929 . S
C1157 C1149 1.433 . S
C1157 N1159 1.384 . S
N1158 C1154 1.427 . S
N1158 C1155 1.384 . S
N1159 C1151 1.427 . S
N1159 C1157 1.384 . S
H1160 C1166 0.930 . S
H1161 C1170 0.930 . S
H1162 C1175 0.929 . S
H1163 C1173 0.929 . S
H1164 C1168 0.929 . S
H1165 C1174 0.929 . S
C1166 H1160 0.930 . S
C1166 C1167 1.367 . S
C1166 C1174 1.378 . S
C1167 C1166 1.367 . S
C1167 C1175 1.433 . S
C1168 H1164 0.929 . S
C1168 C1170 1.378 . S
C1168 C1172 1.350 . S
C1169 C1172 1.463 . S
C1169 C1174 1.350 . S
C1169 N1177 1.427 . S
C1170 H1161 0.930 . S
C1170 C1168 1.378 . S
C1170 C1171 1.367 . S
C1171 C1170 1.367 . S
C1171 C1173 1.433 . S
C1172 C1168 1.350 . S
C1172 C1169 1.463 . S
C1172 N1176 1.427 . S
C1173 H1163 0.929 . S
C1173 C1171 1.433 . S
C1173 N1176 1.384 . S
C1174 H1165 0.929 . S
C1174 C1166 1.378 . S
C1174 C1169 1.350 . S
C1175 H1162 0.929 . S
C1175 C1167 1.433 . S
C1175 N1177 1.384 . S
N1176 C1172 1.427 . S
N1176 C1173 1.384 . S
N1177 C1169 1.427 . S
N1177 C1175 1.384 . S
H1178 C1184 0.930 . S
H1179 C1188 0.930 . S
H1180 C1193 0.929 . S
H1181 C1191 0.929 . S
H1182 C1186 0.929 . S
H1183 C1192 0.929 . S
C1184 H1178 0.930 . S
C1184 C1185 1.367 . S
C1184 C1192 1.378 . S
C1185 C1184 1.367 . S
C1185 C1193 1.433 . S
C1186 H1182 0.929 . S
C1186 C1188 1.378 . S
C1186 C1190 1.350 . S
C1187 C1190 1.463 . S
C1187 C1192 1.350 . S
C1187 N1195 1.427 . S
C1188 H1179 0.930 . S
C1188 C1186 1.378 . S
C1188 C1189 1.367 . S
C1189 C1188 1.367 . S
C1189 C1191 1.433 . S
C1190 C1186 1.350 . S
C1190 C1187 1.463 . S
C1190 N1194 1.427 . S
C1191 H1181 0.929 . S
C1191 C1189 1.433 . S
C1191 N1194 1.384 . S
C1192 H1183 0.929 . S
C1192 C1184 1.378 . S
C1192 C1187 1.350 . S
C1193 H1180 0.929 . S
C1193 C1185 1.433 . S
C1193 N1195 1.384 . S
N1194 C1190 1.427 . S
N1194 C1191 1.384 . S
N1195 C1187 1.427 . S
N1195 C1193 1.384 . S
H1196 C1202 0.930 . S
H1197 C1206 0.930 . S
H1198 C1211 0.929 . S
H1199 C1209 0.929 . S
H1200 C1204 0.929 . S
H1201 C1210 0.929 . S
C1202 H1196 0.930 . S
C1202 C1203 1.367 . S
C1202 C1210 1.378 . S
C1203 C1202 1.367 . S
C1203 C1211 1.433 . S
C1204 H1200 0.929 . S
C1204 C1206 1.378 . S
C1204 C1208 1.350 . S
C1205 C1208 1.463 . S
C1205 C1210 1.350 . S
C1205 N1213 1.427 . S
C1206 H1197 0.930 . S
C1206 C1204 1.378 . S
C1206 C1207 1.367 . S
C1207 C1206 1.367 . S
C1207 C1209 1.433 . S
C1208 C1204 1.350 . S
C1208 C1205 1.463 . S
C1208 N1212 1.427 . S
C1209 H1199 0.929 . S
C1209 C1207 1.433 . S
C1209 N1212 1.384 . S
C1210 H1201 0.929 . S
C1210 C1202 1.378 . S
C1210 C1205 1.350 . S
C1211 H1198 0.929 . S
C1211 C1203 1.433 . S
C1211 N1213 1.384 . S
N1212 C1208 1.427 . S
N1212 C1209 1.384 . S
N1213 C1205 1.427 . S
N1213 C1211 1.384 . S
H1214 C1220 0.930 . S
H1215 C1224 0.930 . S
H1216 C1229 0.929 . S
H1217 C1227 0.929 . S
H1218 C1222 0.929 . S
H1219 C1228 0.929 . S
C1220 H1214 0.930 . S
C1220 C1221 1.367 . S
C1220 C1228 1.378 . S
C1221 C1220 1.367 . S
C1221 C1229 1.433 . S
C1222 H1218 0.929 . S
C1222 C1224 1.378 . S
C1222 C1226 1.350 . S
C1223 C1226 1.463 . S
C1223 C1228 1.350 . S
C1223 N1231 1.427 . S
C1224 H1215 0.930 . S
C1224 C1222 1.378 . S
C1224 C1225 1.367 . S
C1225 C1224 1.367 . S
C1225 C1227 1.433 . S
C1226 C1222 1.350 . S
C1226 C1223 1.463 . S
C1226 N1230 1.427 . S
C1227 H1217 0.929 . S
C1227 C1225 1.433 . S
C1227 N1230 1.384 . S
C1228 H1219 0.929 . S
C1228 C1220 1.378 . S
C1228 C1223 1.350 . S
C1229 H1216 0.929 . S
C1229 C1221 1.433 . S
C1229 N1231 1.384 . S
N1230 C1226 1.427 . S
N1230 C1227 1.384 . S
N1231 C1223 1.427 . S
N1231 C1229 1.384 . S
H1232 C1238 0.930 . S
H1233 C1242 0.930 . S
H1234 C1247 0.929 . S
H1235 C1245 0.929 . S
H1236 C1240 0.929 . S
H1237 C1246 0.929 . S
C1238 H1232 0.930 . S
C1238 C1239 1.367 . S
C1238 C1246 1.378 . S
C1239 C1238 1.367 . S
C1239 C1247 1.433 . S
C1240 H1236 0.929 . S
C1240 C1242 1.378 . S
C1240 C1244 1.350 . S
C1241 C1244 1.463 . S
C1241 C1246 1.350 . S
C1241 N1249 1.427 . S
C1242 H1233 0.930 . S
C1242 C1240 1.378 . S
C1242 C1243 1.367 . S
C1243 C1242 1.367 . S
C1243 C1245 1.433 . S
C1244 C1240 1.350 . S
C1244 C1241 1.463 . S
C1244 N1248 1.427 . S
C1245 H1235 0.929 . S
C1245 C1243 1.433 . S
C1245 N1248 1.384 . S
C1246 H1237 0.929 . S
C1246 C1238 1.378 . S
C1246 C1241 1.350 . S
C1247 H1234 0.929 . S
C1247 C1239 1.433 . S
C1247 N1249 1.384 . S
N1248 C1244 1.427 . S
N1248 C1245 1.384 . S
N1249 C1241 1.427 . S
N1249 C1247 1.384 . S
H1250 C1256 0.930 . S
H1251 C1260 0.930 . S
H1252 C1265 0.929 . S
H1253 C1263 0.929 . S
H1254 C1258 0.929 . S
H1255 C1264 0.929 . S
C1256 H1250 0.930 . S
C1256 C1257 1.367 . S
C1256 C1264 1.378 . S
C1257 C1256 1.367 . S
C1257 C1265 1.433 . S
C1258 H1254 0.929 . S
C1258 C1260 1.378 . S
C1258 C1262 1.350 . S
C1259 C1262 1.463 . S
C1259 C1264 1.350 . S
C1259 N1267 1.427 . S
C1260 H1251 0.930 . S
C1260 C1258 1.378 . S
C1260 C1261 1.367 . S
C1261 C1260 1.367 . S
C1261 C1263 1.433 . S
C1262 C1258 1.350 . S
C1262 C1259 1.463 . S
C1262 N1266 1.427 . S
C1263 H1253 0.929 . S
C1263 C1261 1.433 . S
C1263 N1266 1.384 . S
C1264 H1255 0.929 . S
C1264 C1256 1.378 . S
C1264 C1259 1.350 . S
C1265 H1252 0.929 . S
C1265 C1257 1.433 . S
C1265 N1267 1.384 . S
N1266 C1262 1.427 . S
N1266 C1263 1.384 . S
N1267 C1259 1.427 . S
N1267 C1265 1.384 . S
H1268 C1274 0.930 . S
H1269 C1278 0.930 . S
H1270 C1283 0.929 . S
H1271 C1281 0.929 . S
H1272 C1276 0.929 . S
H1273 C1282 0.929 . S
C1274 H1268 0.930 . S
C1274 C1275 1.367 . S
C1274 C1282 1.378 . S
C1275 C1274 1.367 . S
C1275 C1283 1.433 . S
C1276 H1272 0.929 . S
C1276 C1278 1.378 . S
C1276 C1280 1.350 . S
C1277 C1280 1.463 . S
C1277 C1282 1.350 . S
C1277 N1285 1.427 . S
C1278 H1269 0.930 . S
C1278 C1276 1.378 . S
C1278 C1279 1.367 . S
C1279 C1278 1.367 . S
C1279 C1281 1.433 . S
C1280 C1276 1.350 . S
C1280 C1277 1.463 . S
C1280 N1284 1.427 . S
C1281 H1271 0.929 . S
C1281 C1279 1.433 . S
C1281 N1284 1.384 . S
C1282 H1273 0.929 . S
C1282 C1274 1.378 . S
C1282 C1277 1.350 . S
C1283 H1270 0.929 . S
C1283 C1275 1.433 . S
C1283 N1285 1.384 . S
N1284 C1280 1.427 . S
N1284 C1281 1.384 . S
N1285 C1277 1.427 . S
N1285 C1283 1.384 . S
H1286 C1292 0.930 . S
H1287 C1296 0.930 . S
H1288 C1301 0.929 . S
H1289 C1299 0.929 . S
H1290 C1294 0.929 . S
H1291 C1300 0.929 . S
C1292 H1286 0.930 . S
C1292 C1293 1.367 . S
C1292 C1300 1.378 . S
C1293 C1292 1.367 . S
C1293 C1301 1.433 . S
C1294 H1290 0.929 . S
C1294 C1296 1.378 . S
C1294 C1298 1.350 . S
C1295 C1298 1.463 . S
C1295 C1300 1.350 . S
C1295 N1303 1.427 . S
C1296 H1287 0.930 . S
C1296 C1294 1.378 . S
C1296 C1297 1.367 . S
C1297 C1296 1.367 . S
C1297 C1299 1.433 . S
C1298 C1294 1.350 . S
C1298 C1295 1.463 . S
C1298 N1302 1.427 . S
C1299 H1289 0.929 . S
C1299 C1297 1.433 . S
C1299 N1302 1.384 . S
C1300 H1291 0.929 . S
C1300 C1292 1.378 . S
C1300 C1295 1.350 . S
C1301 H1288 0.929 . S
C1301 C1293 1.433 . S
C1301 N1303 1.384 . S
N1302 C1298 1.427 . S
N1302 C1299 1.384 . S
N1303 C1295 1.427 . S
N1303 C1301 1.384 . S
H1304 C1310 0.930 . S
H1305 C1314 0.930 . S
H1306 C1319 0.929 . S
H1307 C1317 0.929 . S
H1308 C1312 0.929 . S
H1309 C1318 0.929 . S
C1310 H1304 0.930 . S
C1310 C1311 1.367 . S
C1310 C1318 1.378 . S
C1311 C1310 1.367 . S
C1311 C1319 1.433 . S
C1312 H1308 0.929 . S
C1312 C1314 1.378 . S
C1312 C1316 1.350 . S
C1313 C1316 1.463 . S
C1313 C1318 1.350 . S
C1313 N1321 1.427 . S
C1314 H1305 0.930 . S
C1314 C1312 1.378 . S
C1314 C1315 1.367 . S
C1315 C1314 1.367 . S
C1315 C1317 1.433 . S
C1316 C1312 1.350 . S
C1316 C1313 1.463 . S
C1316 N1320 1.427 . S
C1317 H1307 0.929 . S
C1317 C1315 1.433 . S
C1317 N1320 1.384 . S
C1318 H1309 0.929 . S
C1318 C1310 1.378 . S
C1318 C1313 1.350 . S
C1319 H1306 0.929 . S
C1319 C1311 1.433 . S
C1319 N1321 1.384 . S
N1320 C1316 1.427 . S
N1320 C1317 1.384 . S
N1321 C1313 1.427 . S
N1321 C1319 1.384 . S
H1322 C1328 0.930 . S
H1323 C1332 0.930 . S
H1324 C1337 0.929 . S
H1325 C1335 0.929 . S
H1326 C1330 0.929 . S
H1327 C1336 0.929 . S
C1328 H1322 0.930 . S
C1328 C1329 1.367 . S
C1328 C1336 1.378 . S
C1329 C1328 1.367 . S
C1329 C1337 1.433 . S
C1330 H1326 0.929 . S
C1330 C1332 1.378 . S
C1330 C1334 1.350 . S
C1331 C1334 1.463 . S
C1331 C1336 1.350 . S
C1331 N1339 1.427 . S
C1332 H1323 0.930 . S
C1332 C1330 1.378 . S
C1332 C1333 1.367 . S
C1333 C1332 1.367 . S
C1333 C1335 1.433 . S
C1334 C1330 1.350 . S
C1334 C1331 1.463 . S
C1334 N1338 1.427 . S
C1335 H1325 0.929 . S
C1335 C1333 1.433 . S
C1335 N1338 1.384 . S
C1336 H1327 0.929 . S
C1336 C1328 1.378 . S
C1336 C1331 1.350 . S
C1337 H1324 0.929 . S
C1337 C1329 1.433 . S
C1337 N1339 1.384 . S
N1338 C1334 1.427 . S
N1338 C1335 1.384 . S
N1339 C1331 1.427 . S
N1339 C1337 1.384 . S
H1340 C1346 0.930 . S
H1341 C1350 0.930 . S
H1342 C1355 0.929 . S
H1343 C1353 0.929 . S
H1344 C1348 0.929 . S
H1345 C1354 0.929 . S
C1346 H1340 0.930 . S
C1346 C1347 1.367 . S
C1346 C1354 1.378 . S
C1347 C1346 1.367 . S
C1347 C1355 1.433 . S
C1348 H1344 0.929 . S
C1348 C1350 1.378 . S
C1348 C1352 1.350 . S
C1349 C1352 1.463 . S
C1349 C1354 1.350 . S
C1349 N1357 1.427 . S
C1350 H1341 0.930 . S
C1350 C1348 1.378 . S
C1350 C1351 1.367 . S
C1351 C1350 1.367 . S
C1351 C1353 1.433 . S
C1352 C1348 1.350 . S
C1352 C1349 1.463 . S
C1352 N1356 1.427 . S
C1353 H1343 0.929 . S
C1353 C1351 1.433 . S
C1353 N1356 1.384 . S
C1354 H1345 0.929 . S
C1354 C1346 1.378 . S
C1354 C1349 1.350 . S
C1355 H1342 0.929 . S
C1355 C1347 1.433 . S
C1355 N1357 1.384 . S
N1356 C1352 1.427 . S
N1356 C1353 1.384 . S
N1357 C1349 1.427 . S
N1357 C1355 1.384 . S
H1358 C1364 0.930 . S
H1359 C1368 0.930 . S
H1360 C1373 0.929 . S
H1361 C1371 0.929 . S
H1362 C1366 0.929 . S
H1363 C1372 0.929 . S
C1364 H1358 0.930 . S
C1364 C1365 1.367 . S
C1364 C1372 1.378 . S
C1365 C1364 1.367 . S
C1365 C1373 1.433 . S
C1366 H1362 0.929 . S
C1366 C1368 1.378 . S
C1366 C1370 1.350 . S
C1367 C1370 1.463 . S
C1367 C1372 1.350 . S
C1367 N1375 1.427 . S
C1368 H1359 0.930 . S
C1368 C1366 1.378 . S
C1368 C1369 1.367 . S
C1369 C1368 1.367 . S
C1369 C1371 1.433 . S
C1370 C1366 1.350 . S
C1370 C1367 1.463 . S
C1370 N1374 1.427 . S
C1371 H1361 0.929 . S
C1371 C1369 1.433 . S
C1371 N1374 1.384 . S
C1372 H1363 0.929 . S
C1372 C1364 1.378 . S
C1372 C1367 1.350 . S
C1373 H1360 0.929 . S
C1373 C1365 1.433 . S
C1373 N1375 1.384 . S
N1374 C1370 1.427 . S
N1374 C1371 1.384 . S
N1375 C1367 1.427 . S
N1375 C1373 1.384 . S
H1376 C1382 0.930 . S
H1377 C1386 0.930 . S
H1378 C1391 0.929 . S
H1379 C1389 0.929 . S
H1380 C1384 0.929 . S
H1381 C1390 0.929 . S
C1382 H1376 0.930 . S
C1382 C1383 1.367 . S
C1382 C1390 1.378 . S
C1383 C1382 1.367 . S
C1383 C1391 1.433 . S
C1384 H1380 0.929 . S
C1384 C1386 1.378 . S
C1384 C1388 1.350 . S
C1385 C1388 1.463 1_565 S
C1385 C1390 1.350 . S
C1385 N1393 1.427 . S
C1386 H1377 0.930 . S
C1386 C1384 1.378 . S
C1386 C1387 1.367 . S
C1387 C1386 1.367 . S
C1387 C1389 1.433 . S
C1388 C1384 1.350 . S
C1388 C1385 1.463 1_545 S
C1388 N1392 1.427 . S
C1389 H1379 0.929 . S
C1389 C1387 1.433 . S
C1389 N1392 1.384 . S
C1390 H1381 0.929 . S
C1390 C1382 1.378 . S
C1390 C1385 1.350 . S
C1391 H1378 0.929 . S
C1391 C1383 1.433 . S
C1391 N1393 1.384 . S
N1392 C1388 1.427 . S
N1392 C1389 1.384 . S
N1393 C1385 1.427 . S
N1393 C1391 1.384 . S
H1394 C1400 0.930 . S
H1395 C1404 0.930 . S
H1396 C1409 0.929 . S
H1397 C1407 0.929 . S
H1398 C1402 0.929 . S
H1399 C1408 0.929 . S
C1400 H1394 0.930 . S
C1400 C1401 1.367 . S
C1400 C1408 1.378 . S
C1401 C1400 1.367 . S
C1401 C1409 1.433 . S
C1402 H1398 0.929 . S
C1402 C1404 1.378 . S
C1402 C1406 1.350 . S
C1403 C1406 1.463 . S
C1403 C1408 1.350 . S
C1403 N1411 1.427 . S
C1404 H1395 0.930 . S
C1404 C1402 1.378 . S
C1404 C1405 1.367 . S
C1405 C1404 1.367 . S
C1405 C1407 1.433 . S
C1406 C1402 1.350 . S
C1406 C1403 1.463 . S
C1406 N1410 1.427 . S
C1407 H1397 0.929 . S
C1407 C1405 1.433 . S
C1407 N1410 1.384 . S
C1408 H1399 0.929 . S
C1408 C1400 1.378 . S
C1408 C1403 1.350 . S
C1409 H1396 0.929 . S
C1409 C1401 1.433 . S
C1409 N1411 1.384 . S
N1410 C1406 1.427 . S
N1410 C1407 1.384 . S
N1411 C1403 1.427 . S
N1411 C1409 1.384 . S
H1412 C1418 0.930 . S
H1413 C1422 0.930 . S
H1414 C1427 0.929 . S
H1415 C1425 0.929 . S
H1416 C1420 0.929 . S
H1417 C1426 0.929 . S
C1418 H1412 0.930 . S
C1418 C1419 1.367 . S
C1418 C1426 1.378 . S
C1419 C1418 1.367 . S
C1419 C1427 1.433 . S
C1420 H1416 0.929 . S
C1420 C1422 1.378 . S
C1420 C1424 1.350 . S
C1421 C1424 1.463 1_545 S
C1421 C1426 1.350 . S
C1421 N1429 1.427 . S
C1422 H1413 0.930 . S
C1422 C1420 1.378 . S
C1422 C1423 1.367 . S
C1423 C1422 1.367 . S
C1423 C1425 1.433 . S
C1424 C1420 1.350 . S
C1424 C1421 1.463 1_565 S
C1424 N1428 1.427 . S
C1425 H1415 0.929 . S
C1425 C1423 1.433 . S
C1425 N1428 1.384 . S
C1426 H1417 0.929 . S
C1426 C1418 1.378 . S
C1426 C1421 1.350 . S
C1427 H1414 0.929 . S
C1427 C1419 1.433 . S
C1427 N1429 1.384 . S
N1428 C1424 1.427 . S
N1428 C1425 1.384 . S
N1429 C1421 1.427 . S
N1429 C1427 1.384 . S
H1430 C1436 0.930 . S
H1431 C1440 0.930 . S
H1432 C1445 0.929 . S
H1433 C1443 0.929 . S
H1434 C1438 0.929 1_554 S
H1435 C1444 0.929 1_556 S
C1436 H1430 0.930 . S
C1436 C1437 1.367 . S
C1436 C1444 1.378 . S
C1437 C1436 1.367 . S
C1437 C1445 1.433 . S
C1438 H1434 0.929 1_556 S
C1438 C1440 1.378 . S
C1438 C1442 1.350 . S
C1439 C1442 1.463 1_554 S
C1439 C1444 1.350 . S
C1439 N1447 1.427 . S
C1440 H1431 0.930 . S
C1440 C1438 1.378 . S
C1440 C1441 1.367 . S
C1441 C1440 1.367 . S
C1441 C1443 1.433 . S
C1442 C1438 1.350 . S
C1442 C1439 1.463 1_556 S
C1442 N1446 1.427 . S
C1443 H1433 0.929 . S
C1443 C1441 1.433 . S
C1443 N1446 1.384 . S
C1444 H1435 0.929 1_554 S
C1444 C1436 1.378 . S
C1444 C1439 1.350 . S
C1445 H1432 0.929 . S
C1445 C1437 1.433 . S
C1445 N1447 1.384 . S
N1446 C1442 1.427 . S
N1446 C1443 1.384 . S
N1447 C1439 1.427 . S
N1447 C1445 1.384 . S
H1448 C1454 0.930 . S
H1449 C1458 0.930 . S
H1450 C1463 0.929 . S
H1451 C1461 0.929 . S
H1452 C1456 0.929 . S
H1453 C1462 0.929 . S
C1454 H1448 0.930 . S
C1454 C1455 1.367 . S
C1454 C1462 1.378 . S
C1455 C1454 1.367 . S
C1455 C1463 1.433 . S
C1456 H1452 0.929 . S
C1456 C1458 1.378 . S
C1456 C1460 1.350 . S
C1457 C1460 1.463 1_545 S
C1457 C1462 1.350 . S
C1457 N1465 1.427 . S
C1458 H1449 0.930 . S
C1458 C1456 1.378 . S
C1458 C1459 1.367 . S
C1459 C1458 1.367 . S
C1459 C1461 1.433 . S
C1460 C1456 1.350 . S
C1460 C1457 1.463 1_565 S
C1460 N1464 1.427 . S
C1461 H1451 0.929 . S
C1461 C1459 1.433 . S
C1461 N1464 1.384 . S
C1462 H1453 0.929 . S
C1462 C1454 1.378 . S
C1462 C1457 1.350 . S
C1463 H1450 0.929 . S
C1463 C1455 1.433 . S
C1463 N1465 1.384 . S
N1464 C1460 1.427 . S
N1464 C1461 1.384 . S
N1465 C1457 1.427 . S
N1465 C1463 1.384 . S
H1466 C1472 0.930 . S
H1467 C1476 0.930 . S
H1468 C1481 0.929 . S
H1469 C1479 0.929 . S
H1470 C1474 0.929 . S
H1471 C1480 0.929 . S
C1472 H1466 0.930 . S
C1472 C1473 1.367 . S
C1472 C1480 1.378 . S
C1473 C1472 1.367 . S
C1473 C1481 1.433 . S
C1474 H1470 0.929 . S
C1474 C1476 1.378 . S
C1474 C1478 1.350 . S
C1475 C1478 1.463 . S
C1475 C1480 1.350 . S
C1475 N1483 1.427 . S
C1476 H1467 0.930 . S
C1476 C1474 1.378 . S
C1476 C1477 1.367 . S
C1477 C1476 1.367 . S
C1477 C1479 1.433 . S
C1478 C1474 1.350 . S
C1478 C1475 1.463 . S
C1478 N1482 1.427 . S
C1479 H1469 0.929 . S
C1479 C1477 1.433 . S
C1479 N1482 1.384 . S
C1480 H1471 0.929 . S
C1480 C1472 1.378 . S
C1480 C1475 1.350 . S
C1481 H1468 0.929 . S
C1481 C1473 1.433 . S
C1481 N1483 1.384 . S
N1482 C1478 1.427 . S
N1482 C1479 1.384 . S
N1483 C1475 1.427 . S
N1483 C1481 1.384 . S
H1484 C1490 0.930 . S
H1485 C1494 0.930 . S
H1486 C1499 0.929 . S
H1487 C1497 0.929 . S
H1488 C1492 0.929 . S
H1489 C1498 0.929 . S
C1490 H1484 0.930 . S
C1490 C1491 1.367 . S
C1490 C1498 1.378 . S
C1491 C1490 1.367 . S
C1491 C1499 1.433 . S
C1492 H1488 0.929 . S
C1492 C1494 1.378 . S
C1492 C1496 1.350 . S
C1493 C1496 1.463 1_545 S
C1493 C1498 1.350 . S
C1493 N1501 1.427 . S
C1494 H1485 0.930 . S
C1494 C1492 1.378 . S
C1494 C1495 1.367 . S
C1495 C1494 1.367 . S
C1495 C1497 1.433 . S
C1496 C1492 1.350 . S
C1496 C1493 1.463 1_565 S
C1496 N1500 1.427 . S
C1497 H1487 0.929 . S
C1497 C1495 1.433 . S
C1497 N1500 1.384 . S
C1498 H1489 0.929 . S
C1498 C1490 1.378 . S
C1498 C1493 1.350 . S
C1499 H1486 0.929 . S
C1499 C1491 1.433 . S
C1499 N1501 1.384 . S
N1500 C1496 1.427 . S
N1500 C1497 1.384 . S
N1501 C1493 1.427 . S
N1501 C1499 1.384 . S
H1502 C1508 0.930 . S
H1503 C1512 0.930 . S
H1504 C1517 0.929 . S
H1505 C1515 0.929 . S
H1506 C1510 0.929 . S
H1507 C1516 0.929 . S
C1508 H1502 0.930 . S
C1508 C1509 1.367 . S
C1508 C1516 1.378 . S
C1509 C1508 1.367 . S
C1509 C1517 1.433 . S
C1510 H1506 0.929 . S
C1510 C1512 1.378 . S
C1510 C1514 1.350 . S
C1511 C1514 1.463 1_554 S
C1511 C1516 1.350 . S
C1511 N1519 1.427 . S
C1512 H1503 0.930 . S
C1512 C1510 1.378 . S
C1512 C1513 1.367 . S
C1513 C1512 1.367 . S
C1513 C1515 1.433 . S
C1514 C1510 1.350 . S
C1514 C1511 1.463 1_556 S
C1514 N1518 1.427 . S
C1515 H1505 0.929 . S
C1515 C1513 1.433 . S
C1515 N1518 1.384 . S
C1516 H1507 0.929 . S
C1516 C1508 1.378 . S
C1516 C1511 1.350 . S
C1517 H1504 0.929 . S
C1517 C1509 1.433 . S
C1517 N1519 1.384 . S
N1518 C1514 1.427 . S
N1518 C1515 1.384 . S
N1519 C1511 1.427 . S
N1519 C1517 1.384 . S
H1520 C1526 0.930 . S
H1521 C1530 0.930 . S
H1522 C1535 0.929 . S
H1523 C1533 0.929 . S
H1524 C1528 0.929 . S
H1525 C1534 0.929 . S
C1526 H1520 0.930 . S
C1526 C1527 1.367 . S
C1526 C1534 1.378 . S
C1527 C1526 1.367 . S
C1527 C1535 1.433 . S
C1528 H1524 0.929 . S
C1528 C1530 1.378 . S
C1528 C1532 1.350 . S
C1529 C1532 1.463 . S
C1529 C1534 1.350 . S
C1529 N1537 1.427 . S
C1530 H1521 0.930 . S
C1530 C1528 1.378 . S
C1530 C1531 1.367 . S
C1531 C1530 1.367 . S
C1531 C1533 1.433 . S
C1532 C1528 1.350 . S
C1532 C1529 1.463 . S
C1532 N1536 1.427 . S
C1533 H1523 0.929 . S
C1533 C1531 1.433 . S
C1533 N1536 1.384 . S
C1534 H1525 0.929 . S
C1534 C1526 1.378 . S
C1534 C1529 1.350 . S
C1535 H1522 0.929 . S
C1535 C1527 1.433 . S
C1535 N1537 1.384 . S
N1536 C1532 1.427 . S
N1536 C1533 1.384 . S
N1537 C1529 1.427 . S
N1537 C1535 1.384 . S
H1538 C1544 0.917 1_554 S
H1539 C1548 0.917 1_556 S
H1540 C1553 0.929 . S
H1541 C1551 0.929 . S
H1542 C1546 0.929 . S
H1543 C1552 0.929 . S
C1544 H1538 0.917 1_556 S
C1544 C1545 1.391 . S
C1544 C1552 1.368 1_556 S
C1545 C1544 1.391 . S
C1545 C1553 1.433 . S
C1546 H1542 0.929 . S
C1546 C1548 1.368 1_556 S
C1546 C1550 1.350 1_556 S
C1547 C1550 1.463 1_556 S
C1547 C1552 1.350 1_556 S
C1547 N1555 1.427 . S
C1548 H1539 0.917 1_554 S
C1548 C1546 1.368 1_554 S
C1548 C1549 1.391 . S
C1549 C1548 1.391 . S
C1549 C1551 1.433 . S
C1550 C1546 1.350 1_554 S
C1550 C1547 1.463 1_554 S
C1550 N1554 1.427 . S
C1551 H1541 0.929 . S
C1551 C1549 1.433 . S
C1551 N1554 1.384 . S
C1552 H1543 0.929 . S
C1552 C1544 1.368 1_554 S
C1552 C1547 1.350 1_554 S
C1553 H1540 0.929 . S
C1553 C1545 1.433 . S
C1553 N1555 1.384 . S
N1554 C1550 1.427 . S
N1554 C1551 1.384 . S
N1555 C1547 1.427 . S
N1555 C1553 1.384 . S
H1556 C1562 0.930 . S
H1557 C1566 0.930 . S
H1558 C1571 0.929 . S
H1559 C1569 0.929 . S
H1560 C1564 0.929 . S
H1561 C1570 0.929 . S
C1562 H1556 0.930 . S
C1562 C1563 1.367 . S
C1562 C1570 1.378 . S
C1563 C1562 1.367 . S
C1563 C1571 1.433 . S
C1564 H1560 0.929 . S
C1564 C1566 1.378 . S
C1564 C1568 1.350 . S
C1565 C1568 1.463 . S
C1565 C1570 1.350 . S
C1565 N1573 1.427 . S
C1566 H1557 0.930 . S
C1566 C1564 1.378 . S
C1566 C1567 1.367 . S
C1567 C1566 1.367 . S
C1567 C1569 1.433 . S
C1568 C1564 1.350 . S
C1568 C1565 1.463 . S
C1568 N1572 1.427 . S
C1569 H1559 0.929 . S
C1569 C1567 1.433 . S
C1569 N1572 1.384 . S
C1570 H1561 0.929 . S
C1570 C1562 1.378 . S
C1570 C1565 1.350 . S
C1571 H1558 0.929 . S
C1571 C1563 1.433 . S
C1571 N1573 1.384 . S
N1572 C1568 1.427 . S
N1572 C1569 1.384 . S
N1573 C1565 1.427 . S
N1573 C1571 1.384 . S
H1574 C1580 0.930 . S
H1575 C1584 0.930 . S
H1576 C1589 0.929 . S
H1577 C1587 0.929 . S
H1578 C1582 0.929 . S
H1579 C1588 0.929 . S
C1580 H1574 0.930 . S
C1580 C1581 1.367 . S
C1580 C1588 1.378 . S
C1581 C1580 1.367 . S
C1581 C1589 1.433 . S
C1582 H1578 0.929 . S
C1582 C1584 1.378 . S
C1582 C1586 1.350 . S
C1583 C1586 1.463 . S
C1583 C1588 1.350 . S
C1583 N1591 1.427 . S
C1584 H1575 0.930 . S
C1584 C1582 1.378 . S
C1584 C1585 1.367 . S
C1585 C1584 1.367 . S
C1585 C1587 1.433 . S
C1586 C1582 1.350 . S
C1586 C1583 1.463 . S
C1586 N1590 1.427 . S
C1587 H1577 0.929 . S
C1587 C1585 1.433 . S
C1587 N1590 1.384 . S
C1588 H1579 0.929 . S
C1588 C1580 1.378 . S
C1588 C1583 1.350 . S
C1589 H1576 0.929 . S
C1589 C1581 1.433 . S
C1589 N1591 1.384 . S
N1590 C1586 1.427 . S
N1590 C1587 1.384 . S
N1591 C1583 1.427 . S
N1591 C1589 1.384 . S
H1592 C1598 0.930 . S
H1593 C1602 0.930 . S
H1594 C1607 0.929 . S
H1595 C1605 0.929 . S
H1596 C1600 0.929 . S
H1597 C1606 0.929 . S
C1598 H1592 0.930 . S
C1598 C1599 1.367 . S
C1598 C1606 1.378 . S
C1599 C1598 1.367 . S
C1599 C1607 1.433 . S
C1600 H1596 0.929 . S
C1600 C1602 1.378 . S
C1600 C1604 1.350 . S
C1601 C1604 1.463 . S
C1601 C1606 1.350 . S
C1601 N1609 1.427 . S
C1602 H1593 0.930 . S
C1602 C1600 1.378 . S
C1602 C1603 1.367 . S
C1603 C1602 1.367 . S
C1603 C1605 1.433 . S
C1604 C1600 1.350 . S
C1604 C1601 1.463 . S
C1604 N1608 1.427 . S
C1605 H1595 0.929 . S
C1605 C1603 1.433 . S
C1605 N1608 1.384 . S
C1606 H1597 0.929 . S
C1606 C1598 1.378 . S
C1606 C1601 1.350 . S
C1607 H1594 0.929 . S
C1607 C1599 1.433 . S
C1607 N1609 1.384 . S
N1608 C1604 1.427 . S
N1608 C1605 1.384 . S
N1609 C1601 1.427 . S
N1609 C1607 1.384 . S
H1610 C1616 0.930 . S
H1611 C1620 0.930 . S
H1612 C1625 0.929 . S
H1613 C1623 0.929 . S
H1614 C1618 0.929 . S
H1615 C1624 0.929 . S
C1616 H1610 0.930 . S
C1616 C1617 1.367 . S
C1616 C1624 1.378 . S
C1617 C1616 1.367 . S
C1617 C1625 1.433 . S
C1618 H1614 0.929 . S
C1618 C1620 1.378 . S
C1618 C1622 1.350 . S
C1619 C1622 1.463 1_556 S
C1619 C1624 1.350 . S
C1619 N1627 1.427 1_556 S
C1620 H1611 0.930 . S
C1620 C1618 1.378 . S
C1620 C1621 1.367 . S
C1621 C1620 1.367 . S
C1621 C1623 1.433 . S
C1622 C1618 1.350 . S
C1622 C1619 1.463 1_554 S
C1622 N1626 1.427 1_554 S
C1623 H1613 0.929 . S
C1623 C1621 1.433 . S
C1623 N1626 1.384 1_554 S
C1624 H1615 0.929 . S
C1624 C1616 1.378 . S
C1624 C1619 1.350 . S
C1625 H1612 0.929 . S
C1625 C1617 1.433 . S
C1625 N1627 1.384 1_556 S
N1626 C1622 1.427 1_556 S
N1626 C1623 1.384 1_556 S
N1627 C1619 1.427 1_554 S
N1627 C1625 1.384 1_554 S
H1628 C1634 0.930 . S
H1629 C1638 0.930 . S
H1630 C1643 0.929 . S
H1631 C1641 0.929 . S
H1632 C1636 0.929 . S
H1633 C1642 0.929 . S
C1634 H1628 0.930 . S
C1634 C1635 1.367 . S
C1634 C1642 1.378 . S
C1635 C1634 1.367 . S
C1635 C1643 1.433 . S
C1636 H1632 0.929 . S
C1636 C1638 1.378 . S
C1636 C1640 1.350 . S
C1637 C1640 1.463 . S
C1637 C1642 1.350 . S
C1637 N1645 1.427 . S
C1638 H1629 0.930 . S
C1638 C1636 1.378 . S
C1638 C1639 1.367 . S
C1639 C1638 1.367 . S
C1639 C1641 1.433 . S
C1640 C1636 1.350 . S
C1640 C1637 1.463 . S
C1640 N1644 1.427 . S
C1641 H1631 0.929 . S
C1641 C1639 1.433 . S
C1641 N1644 1.384 . S
C1642 H1633 0.929 . S
C1642 C1634 1.378 . S
C1642 C1637 1.350 . S
C1643 H1630 0.929 . S
C1643 C1635 1.433 . S
C1643 N1645 1.384 . S
N1644 C1640 1.427 . S
N1644 C1641 1.384 . S
N1645 C1637 1.427 . S
N1645 C1643 1.384 . S
H1646 C1652 0.930 . S
H1647 C1656 0.930 . S
H1648 C1661 0.929 . S
H1649 C1659 0.929 . S
H1650 C1654 0.929 . S
H1651 C1660 0.929 . S
C1652 H1646 0.930 . S
C1652 C1653 1.367 . S
C1652 C1660 1.378 . S
C1653 C1652 1.367 . S
C1653 C1661 1.433 . S
C1654 H1650 0.929 . S
C1654 C1656 1.378 . S
C1654 C1658 1.350 . S
C1655 C1658 1.463 . S
C1655 C1660 1.350 . S
C1655 N1663 1.427 . S
C1656 H1647 0.930 . S
C1656 C1654 1.378 . S
C1656 C1657 1.367 . S
C1657 C1656 1.367 . S
C1657 C1659 1.433 . S
C1658 C1654 1.350 . S
C1658 C1655 1.463 . S
C1658 N1662 1.427 . S
C1659 H1649 0.929 . S
C1659 C1657 1.433 . S
C1659 N1662 1.384 . S
C1660 H1651 0.929 . S
C1660 C1652 1.378 . S
C1660 C1655 1.350 . S
C1661 H1648 0.929 . S
C1661 C1653 1.433 . S
C1661 N1663 1.384 . S
N1662 C1658 1.427 . S
N1662 C1659 1.384 . S
N1663 C1655 1.427 . S
N1663 C1661 1.384 . S
H1664 C1670 0.930 . S
H1665 C1674 0.930 . S
H1666 C1679 0.929 . S
H1667 C1677 0.929 . S
H1668 C1672 0.929 . S
H1669 C1678 0.929 . S
C1670 H1664 0.930 . S
C1670 C1671 1.367 1_455 S
C1670 C1678 1.378 . S
C1671 C1670 1.367 1_655 S
C1671 C1679 1.433 . S
C1672 H1668 0.929 . S
C1672 C1674 1.378 . S
C1672 C1676 1.350 1_655 S
C1673 C1676 1.463 1_655 S
C1673 C1678 1.350 1_655 S
C1673 N1681 1.427 . S
C1674 H1665 0.930 . S
C1674 C1672 1.378 . S
C1674 C1675 1.367 1_655 S
C1675 C1674 1.367 1_455 S
C1675 C1677 1.433 . S
C1676 C1672 1.350 1_455 S
C1676 C1673 1.463 1_455 S
C1676 N1680 1.427 . S
C1677 H1667 0.929 . S
C1677 C1675 1.433 . S
C1677 N1680 1.384 . S
C1678 H1669 0.929 . S
C1678 C1670 1.378 . S
C1678 C1673 1.350 1_455 S
C1679 H1666 0.929 . S
C1679 C1671 1.433 . S
C1679 N1681 1.384 . S
N1680 C1676 1.427 . S
N1680 C1677 1.384 . S
N1681 C1673 1.427 . S
N1681 C1679 1.384 . S
H1682 C1688 0.930 . S
H1683 C1692 0.930 . S
H1684 C1697 0.929 . S
H1685 C1695 0.929 . S
H1686 C1690 0.929 . S
H1687 C1696 0.929 . S
C1688 H1682 0.930 . S
C1688 C1689 1.367 . S
C1688 C1696 1.378 . S
C1689 C1688 1.367 . S
C1689 C1697 1.433 . S
C1690 H1686 0.929 . S
C1690 C1692 1.378 . S
C1690 C1694 1.350 . S
C1691 C1694 1.463 1_455 S
C1691 C1696 1.350 . S
C1691 N1699 1.427 . S
C1692 H1683 0.930 . S
C1692 C1690 1.378 . S
C1692 C1693 1.367 . S
C1693 C1692 1.367 . S
C1693 C1695 1.433 . S
C1694 C1690 1.350 . S
C1694 C1691 1.463 1_655 S
C1694 N1698 1.427 . S
C1695 H1685 0.929 . S
C1695 C1693 1.433 . S
C1695 N1698 1.384 . S
C1696 H1687 0.929 . S
C1696 C1688 1.378 . S
C1696 C1691 1.350 . S
C1697 H1684 0.929 . S
C1697 C1689 1.433 . S
C1697 N1699 1.384 . S
N1698 C1694 1.427 . S
N1698 C1695 1.384 . S
N1699 C1691 1.427 . S
N1699 C1697 1.384 . S
H1700 C1706 0.930 . S
H1701 C1710 0.930 . S
H1702 C1715 0.929 . S
H1703 C1713 0.929 . S
H1704 C1708 0.929 . S
H1705 C1714 0.929 . S
C1706 H1700 0.930 . S
C1706 C1707 1.367 . S
C1706 C1714 1.378 . S
C1707 C1706 1.367 . S
C1707 C1715 1.433 . S
C1708 H1704 0.929 . S
C1708 C1710 1.378 . S
C1708 C1712 1.350 . S
C1709 C1712 1.463 . S
C1709 C1714 1.350 . S
C1709 N1717 1.427 . S
C1710 H1701 0.930 . S
C1710 C1708 1.378 . S
C1710 C1711 1.367 . S
C1711 C1710 1.367 . S
C1711 C1713 1.433 . S
C1712 C1708 1.350 . S
C1712 C1709 1.463 . S
C1712 N1716 1.427 . S
C1713 H1703 0.929 . S
C1713 C1711 1.433 . S
C1713 N1716 1.384 . S
C1714 H1705 0.929 . S
C1714 C1706 1.378 . S
C1714 C1709 1.350 . S
C1715 H1702 0.929 . S
C1715 C1707 1.433 . S
C1715 N1717 1.384 . S
N1716 C1712 1.427 . S
N1716 C1713 1.384 . S
N1717 C1709 1.427 . S
N1717 C1715 1.384 . S
H1718 C1724 0.930 . S
H1719 C1728 0.930 . S
H1720 C1733 0.929 . S
H1721 C1731 0.929 . S
H1722 C1726 0.929 . S
H1723 C1732 0.929 . S
C1724 H1718 0.930 . S
C1724 C1725 1.367 . S
C1724 C1732 1.378 . S
C1725 C1724 1.367 . S
C1725 C1733 1.433 . S
C1726 H1722 0.929 . S
C1726 C1728 1.378 . S
C1726 C1730 1.350 . S
C1727 C1730 1.463 . S
C1727 C1732 1.350 . S
C1727 N1735 1.427 . S
C1728 H1719 0.930 . S
C1728 C1726 1.378 . S
C1728 C1729 1.367 . S
C1729 C1728 1.367 . S
C1729 C1731 1.433 . S
C1730 C1726 1.350 . S
C1730 C1727 1.463 . S
C1730 N1734 1.427 . S
C1731 H1721 0.929 . S
C1731 C1729 1.433 . S
C1731 N1734 1.384 . S
C1732 H1723 0.929 . S
C1732 C1724 1.378 . S
C1732 C1727 1.350 . S
C1733 H1720 0.929 . S
C1733 C1725 1.433 . S
C1733 N1735 1.384 . S
N1734 C1730 1.427 . S
N1734 C1731 1.384 . S
N1735 C1727 1.427 . S
N1735 C1733 1.384 . S
H1736 C1742 0.930 . S
H1737 C1746 0.930 . S
H1738 C1751 0.929 . S
H1739 C1749 0.929 . S
H1740 C1744 0.929 . S
H1741 C1750 0.929 . S
C1742 H1736 0.930 . S
C1742 C1743 1.367 . S
C1742 C1750 1.378 1_655 S
C1743 C1742 1.367 . S
C1743 C1751 1.433 . S
C1744 H1740 0.929 . S
C1744 C1746 1.378 1_655 S
C1744 C1748 1.350 1_655 S
C1745 C1748 1.463 1_655 S
C1745 C1750 1.350 1_655 S
C1745 N1753 1.427 . S
C1746 H1737 0.930 . S
C1746 C1744 1.378 1_455 S
C1746 C1747 1.367 . S
C1747 C1746 1.367 . S
C1747 C1749 1.433 . S
C1748 C1744 1.350 1_455 S
C1748 C1745 1.463 1_455 S
C1748 N1752 1.427 . S
C1749 H1739 0.929 . S
C1749 C1747 1.433 . S
C1749 N1752 1.384 . S
C1750 H1741 0.929 . S
C1750 C1742 1.378 1_455 S
C1750 C1745 1.350 1_455 S
C1751 H1738 0.929 . S
C1751 C1743 1.433 . S
C1751 N1753 1.384 . S
N1752 C1748 1.427 . S
N1752 C1749 1.384 . S
N1753 C1745 1.427 . S
N1753 C1751 1.384 . S
H1754 C1760 0.930 . S
H1755 C1764 0.930 . S
H1756 C1769 0.929 . S
H1757 C1767 0.929 . S
H1758 C1762 0.929 . S
H1759 C1768 0.929 . S
C1760 H1754 0.930 . S
C1760 C1761 1.367 . S
C1760 C1768 1.378 . S
C1761 C1760 1.367 . S
C1761 C1769 1.433 . S
C1762 H1758 0.929 . S
C1762 C1764 1.378 . S
C1762 C1766 1.350 . S
C1763 C1766 1.463 . S
C1763 C1768 1.350 . S
C1763 N1771 1.427 . S
C1764 H1755 0.930 . S
C1764 C1762 1.378 . S
C1764 C1765 1.367 . S
C1765 C1764 1.367 . S
C1765 C1767 1.433 . S
C1766 C1762 1.350 . S
C1766 C1763 1.463 . S
C1766 N1770 1.427 . S
C1767 H1757 0.929 . S
C1767 C1765 1.433 . S
C1767 N1770 1.384 . S
C1768 H1759 0.929 . S
C1768 C1760 1.378 . S
C1768 C1763 1.350 . S
C1769 H1756 0.929 . S
C1769 C1761 1.433 . S
C1769 N1771 1.384 . S
N1770 C1766 1.427 . S
N1770 C1767 1.384 . S
N1771 C1763 1.427 . S
N1771 C1769 1.384 . S
H1772 C1778 0.930 . S
H1773 C1782 0.930 . S
H1774 C1787 0.929 . S
H1775 C1785 0.929 . S
H1776 C1780 0.929 . S
H1777 C1786 0.929 . S
C1778 H1772 0.930 . S
C1778 C1779 1.367 . S
C1778 C1786 1.378 . S
C1779 C1778 1.367 . S
C1779 C1787 1.433 . S
C1780 H1776 0.929 . S
C1780 C1782 1.378 . S
C1780 C1784 1.350 . S
C1781 C1784 1.463 . S
C1781 C1786 1.350 . S
C1781 N1789 1.427 . S
C1782 H1773 0.930 . S
C1782 C1780 1.378 . S
C1782 C1783 1.367 . S
C1783 C1782 1.367 . S
C1783 C1785 1.433 . S
C1784 C1780 1.350 . S
C1784 C1781 1.463 . S
C1784 N1788 1.427 . S
C1785 H1775 0.929 . S
C1785 C1783 1.433 . S
C1785 N1788 1.384 . S
C1786 H1777 0.929 . S
C1786 C1778 1.378 . S
C1786 C1781 1.350 . S
C1787 H1774 0.929 . S
C1787 C1779 1.433 . S
C1787 N1789 1.384 . S
N1788 C1784 1.427 . S
N1788 C1785 1.384 . S
N1789 C1781 1.427 . S
N1789 C1787 1.384 . S
H1790 C1796 0.930 . S
H1791 C1800 0.930 . S
H1792 C1805 0.929 . S
H1793 C1803 0.929 . S
H1794 C1798 0.929 . S
H1795 C1804 0.929 . S
C1796 H1790 0.930 . S
C1796 C1797 1.367 . S
C1796 C1804 1.378 . S
C1797 C1796 1.367 . S
C1797 C1805 1.433 . S
C1798 H1794 0.929 . S
C1798 C1800 1.378 . S
C1798 C1802 1.350 . S
C1799 C1802 1.463 1_455 S
C1799 C1804 1.350 . S
C1799 N1807 1.427 . S
C1800 H1791 0.930 . S
C1800 C1798 1.378 . S
C1800 C1801 1.367 . S
C1801 C1800 1.367 . S
C1801 C1803 1.433 . S
C1802 C1798 1.350 . S
C1802 C1799 1.463 1_655 S
C1802 N1806 1.427 . S
C1803 H1793 0.929 . S
C1803 C1801 1.433 . S
C1803 N1806 1.384 . S
C1804 H1795 0.929 . S
C1804 C1796 1.378 . S
C1804 C1799 1.350 . S
C1805 H1792 0.929 . S
C1805 C1797 1.433 . S
C1805 N1807 1.384 . S
N1806 C1802 1.427 . S
N1806 C1803 1.384 . S
N1807 C1799 1.427 . S
N1807 C1805 1.384 . S
H1808 C1814 0.930 . S
H1809 C1818 0.930 . S
H1810 C1823 0.929 . S
H1811 C1821 0.929 . S
H1812 C1816 0.957 . S
H1813 C1822 0.957 . S
C1814 H1808 0.930 . S
C1814 C1815 1.367 . S
C1814 C1822 1.378 . S
C1815 C1814 1.367 . S
C1815 C1823 1.433 . S
C1816 H1812 0.957 . S
C1816 C1818 1.378 . S
C1816 C1820 1.350 . S
C1817 C1820 1.463 1_655 S
C1817 C1822 1.350 . S
C1817 N1825 1.427 . S
C1818 H1809 0.930 . S
C1818 C1816 1.378 . S
C1818 C1819 1.367 . S
C1819 C1818 1.367 . S
C1819 C1821 1.433 . S
C1820 C1816 1.350 . S
C1820 C1817 1.463 1_455 S
C1820 N1824 1.427 . S
C1821 H1811 0.929 . S
C1821 C1819 1.433 . S
C1821 N1824 1.384 . S
C1822 H1813 0.957 . S
C1822 C1814 1.378 . S
C1822 C1817 1.350 . S
C1823 H1810 0.929 . S
C1823 C1815 1.433 . S
C1823 N1825 1.384 . S
N1824 C1820 1.427 . S
N1824 C1821 1.384 . S
N1825 C1817 1.427 . S
N1825 C1823 1.384 . S
H1826 C1832 0.930 . S
H1827 C1836 0.930 . S
H1828 C1841 0.929 . S
H1829 C1839 0.929 . S
H1830 C1834 0.929 . S
H1831 C1840 0.929 . S
C1832 H1826 0.930 . S
C1832 C1833 1.367 . S
C1832 C1840 1.378 . S
C1833 C1832 1.367 . S
C1833 C1841 1.433 . S
C1834 H1830 0.929 . S
C1834 C1836 1.378 . S
C1834 C1838 1.350 . S
C1835 C1838 1.463 1_655 S
C1835 C1840 1.350 . S
C1835 N1843 1.427 . S
C1836 H1827 0.930 . S
C1836 C1834 1.378 . S
C1836 C1837 1.367 . S
C1837 C1836 1.367 . S
C1837 C1839 1.433 . S
C1838 C1834 1.350 . S
C1838 C1835 1.463 1_455 S
C1838 N1842 1.427 . S
C1839 H1829 0.929 . S
C1839 C1837 1.433 . S
C1839 N1842 1.384 . S
C1840 H1831 0.929 . S
C1840 C1832 1.378 . S
C1840 C1835 1.350 . S
C1841 H1828 0.929 . S
C1841 C1833 1.433 . S
C1841 N1843 1.384 . S
N1842 C1838 1.427 . S
N1842 C1839 1.384 . S
N1843 C1835 1.427 . S
N1843 C1841 1.384 . S
H1844 C1850 0.930 . S
H1845 C1854 0.930 . S
H1846 C1859 0.929 . S
H1847 C1857 0.929 . S
H1848 C1852 0.929 . S
H1849 C1858 0.929 . S
C1850 H1844 0.930 . S
C1850 C1851 1.367 . S
C1850 C1858 1.378 . S
C1851 C1850 1.367 . S
C1851 C1859 1.433 . S
C1852 H1848 0.929 . S
C1852 C1854 1.378 . S
C1852 C1856 1.350 . S
C1853 C1856 1.463 . S
C1853 C1858 1.350 . S
C1853 N1861 1.427 . S
C1854 H1845 0.930 . S
C1854 C1852 1.378 . S
C1854 C1855 1.367 . S
C1855 C1854 1.367 . S
C1855 C1857 1.433 . S
C1856 C1852 1.350 . S
C1856 C1853 1.463 . S
C1856 N1860 1.427 . S
C1857 H1847 0.929 . S
C1857 C1855 1.433 . S
C1857 N1860 1.384 . S
C1858 H1849 0.929 . S
C1858 C1850 1.378 . S
C1858 C1853 1.350 . S
C1859 H1846 0.929 . S
C1859 C1851 1.433 . S
C1859 N1861 1.384 . S
N1860 C1856 1.427 . S
N1860 C1857 1.384 . S
N1861 C1853 1.427 . S
N1861 C1859 1.384 . S
H1862 C1868 0.930 . S
H1863 C1872 0.930 . S
H1864 C1877 0.929 . S
H1865 C1875 0.929 . S
H1866 C1870 0.929 . S
H1867 C1876 0.929 . S
C1868 H1862 0.930 . S
C1868 C1869 1.367 1_554 S
C1868 C1876 1.378 . S
C1869 C1868 1.367 1_556 S
C1869 C1877 1.433 . S
C1870 H1866 0.929 . S
C1870 C1872 1.378 . S
C1870 C1874 1.350 . S
C1871 C1874 1.463 . S
C1871 C1876 1.350 1_556 S
C1871 N1879 1.427 . S
C1872 H1863 0.930 . S
C1872 C1870 1.378 . S
C1872 C1873 1.367 . S
C1873 C1872 1.367 . S
C1873 C1875 1.433 1_556 S
C1874 C1870 1.350 . S
C1874 C1871 1.463 . S
C1874 N1878 1.427 1_556 S
C1875 H1865 0.929 . S
C1875 C1873 1.433 1_554 S
C1875 N1878 1.384 . S
C1876 H1867 0.929 . S
C1876 C1868 1.378 . S
C1876 C1871 1.350 1_554 S
C1877 H1864 0.929 . S
C1877 C1869 1.433 . S
C1877 N1879 1.384 . S
N1878 C1874 1.427 1_554 S
N1878 C1875 1.384 . S
N1879 C1871 1.427 . S
N1879 C1877 1.384 . S
H1880 C1886 0.930 . S
H1881 C1890 0.930 . S
H1882 C1895 0.929 . S
H1883 C1893 0.929 . S
H1884 C1888 0.929 . S
H1885 C1894 0.929 . S
C1886 H1880 0.930 . S
C1886 C1887 1.367 . S
C1886 C1894 1.378 . S
C1887 C1886 1.367 . S
C1887 C1895 1.433 . S
C1888 H1884 0.929 . S
C1888 C1890 1.378 . S
C1888 C1892 1.350 . S
C1889 C1892 1.463 1_655 S
C1889 C1894 1.350 . S
C1889 N1897 1.427 . S
C1890 H1881 0.930 . S
C1890 C1888 1.378 . S
C1890 C1891 1.367 . S
C1891 C1890 1.367 . S
C1891 C1893 1.433 . S
C1892 C1888 1.350 . S
C1892 C1889 1.463 1_455 S
C1892 N1896 1.427 . S
C1893 H1883 0.929 . S
C1893 C1891 1.433 . S
C1893 N1896 1.384 . S
C1894 H1885 0.929 . S
C1894 C1886 1.378 . S
C1894 C1889 1.350 . S
C1895 H1882 0.929 . S
C1895 C1887 1.433 . S
C1895 N1897 1.384 . S
N1896 C1892 1.427 . S
N1896 C1893 1.384 . S
N1897 C1889 1.427 . S
N1897 C1895 1.384 . S
H1898 C1904 0.930 . S
H1899 C1908 0.930 . S
H1900 C1913 0.929 . S
H1901 C1911 0.929 . S
H1902 C1906 0.929 . S
H1903 C1912 0.929 . S
C1904 H1898 0.930 . S
C1904 C1905 1.367 . S
C1904 C1912 1.378 . S
C1905 C1904 1.367 . S
C1905 C1913 1.433 . S
C1906 H1902 0.929 . S
C1906 C1908 1.378 . S
C1906 C1910 1.350 . S
C1907 C1910 1.463 . S
C1907 C1912 1.350 . S
C1907 N1915 1.427 . S
C1908 H1899 0.930 . S
C1908 C1906 1.378 . S
C1908 C1909 1.367 . S
C1909 C1908 1.367 . S
C1909 C1911 1.433 . S
C1910 C1906 1.350 . S
C1910 C1907 1.463 . S
C1910 N1914 1.427 . S
C1911 H1901 0.929 . S
C1911 C1909 1.433 . S
C1911 N1914 1.384 . S
C1912 H1903 0.929 . S
C1912 C1904 1.378 . S
C1912 C1907 1.350 . S
C1913 H1900 0.929 . S
C1913 C1905 1.433 . S
C1913 N1915 1.384 . S
N1914 C1910 1.427 . S
N1914 C1911 1.384 . S
N1915 C1907 1.427 . S
N1915 C1913 1.384 . S
H1916 C1922 0.930 . S
H1917 C1926 0.930 . S
H1918 C1931 0.929 . S
H1919 C1929 0.929 . S
H1920 C1924 0.929 . S
H1921 C1930 0.929 . S
C1922 H1916 0.930 . S
C1922 C1923 1.367 . S
C1922 C1930 1.378 . S
C1923 C1922 1.367 . S
C1923 C1931 1.433 . S
C1924 H1920 0.929 . S
C1924 C1926 1.378 . S
C1924 C1928 1.350 . S
C1925 C1928 1.463 . S
C1925 C1930 1.350 . S
C1925 N1933 1.427 . S
C1926 H1917 0.930 . S
C1926 C1924 1.378 . S
C1926 C1927 1.367 . S
C1927 C1926 1.367 . S
C1927 C1929 1.433 . S
C1928 C1924 1.350 . S
C1928 C1925 1.463 . S
C1928 N1932 1.427 . S
C1929 H1919 0.929 . S
C1929 C1927 1.433 . S
C1929 N1932 1.384 . S
C1930 H1921 0.929 . S
C1930 C1922 1.378 . S
C1930 C1925 1.350 . S
C1931 H1918 0.929 . S
C1931 C1923 1.433 . S
C1931 N1933 1.384 . S
N1932 C1928 1.427 . S
N1932 C1929 1.384 . S
N1933 C1925 1.427 . S
N1933 C1931 1.384 . S
H1934 C1940 0.930 . S
H1935 C1944 0.930 . S
H1936 C1949 0.929 . S
H1937 C1947 0.929 . S
H1938 C1942 0.929 . S
H1939 C1948 0.929 . S
C1940 H1934 0.930 . S
C1940 C1941 1.367 1_556 S
C1940 C1948 1.378 . S
C1941 C1940 1.367 1_554 S
C1941 C1949 1.433 . S
C1942 H1938 0.929 . S
C1942 C1944 1.378 . S
C1942 C1946 1.350 . S
C1943 C1946 1.463 1_455 S
C1943 C1948 1.350 1_554 S
C1943 N1951 1.427 . S
C1944 H1935 0.930 . S
C1944 C1942 1.378 . S
C1944 C1945 1.367 . S
C1945 C1944 1.367 . S
C1945 C1947 1.433 1_554 S
C1946 C1942 1.350 . S
C1946 C1943 1.463 1_655 S
C1946 N1950 1.427 1_554 S
C1947 H1937 0.929 . S
C1947 C1945 1.433 1_556 S
C1947 N1950 1.384 . S
C1948 H1939 0.929 . S
C1948 C1940 1.378 . S
C1948 C1943 1.350 1_556 S
C1949 H1936 0.929 . S
C1949 C1941 1.433 . S
C1949 N1951 1.384 . S
N1950 C1946 1.427 1_556 S
N1950 C1947 1.384 . S
N1951 C1943 1.427 . S
N1951 C1949 1.384 . S
H1952 C1958 0.930 . S
H1953 C1962 0.930 . S
H1954 C1967 0.929 . S
H1955 C1965 0.929 . S
H1956 C1960 0.929 . S
H1957 C1966 0.929 . S
C1958 H1952 0.930 . S
C1958 C1959 1.367 . S
C1958 C1966 1.378 . S
C1959 C1958 1.367 . S
C1959 C1967 1.433 . S
C1960 H1956 0.929 . S
C1960 C1962 1.378 . S
C1960 C1964 1.350 . S
C1961 C1964 1.463 . S
C1961 C1966 1.350 . S
C1961 N1969 1.427 . S
C1962 H1953 0.930 . S
C1962 C1960 1.378 . S
C1962 C1963 1.367 . S
C1963 C1962 1.367 . S
C1963 C1965 1.433 . S
C1964 C1960 1.350 . S
C1964 C1961 1.463 . S
C1964 N1968 1.427 . S
C1965 H1955 0.929 . S
C1965 C1963 1.433 . S
C1965 N1968 1.384 . S
C1966 H1957 0.929 . S
C1966 C1958 1.378 . S
C1966 C1961 1.350 . S
C1967 H1954 0.929 . S
C1967 C1959 1.433 . S
C1967 N1969 1.384 . S
N1968 C1964 1.427 . S
N1968 C1965 1.384 . S
N1969 C1961 1.427 . S
N1969 C1967 1.384 . S
H1970 C1976 0.930 . S
H1971 C1980 0.930 . S
H1972 C1985 0.929 . S
H1973 C1983 0.927 1_655 S
H1974 C1978 0.929 . S
H1975 C1984 0.929 . S
C1976 H1970 0.930 . S
C1976 C1977 1.367 . S
C1976 C1984 1.378 . S
C1977 C1976 1.367 . S
C1977 C1985 1.433 . S
C1978 H1974 0.929 . S
C1978 C1980 1.378 1_455 S
C1978 C1982 1.350 . S
C1979 C1982 1.463 . S
C1979 C1984 1.350 . S
C1979 N1987 1.427 . S
C1980 H1971 0.930 . S
C1980 C1978 1.378 1_655 S
C1980 C1981 1.367 . S
C1981 C1980 1.367 . S
C1981 C1983 1.433 1_655 S
C1982 C1978 1.350 . S
C1982 C1979 1.463 . S
C1982 N1986 1.427 . S
C1983 H1973 0.927 1_455 S
C1983 C1981 1.433 1_455 S
C1983 N1986 1.384 . S
C1984 H1975 0.929 . S
C1984 C1976 1.378 . S
C1984 C1979 1.350 . S
C1985 H1972 0.929 . S
C1985 C1977 1.433 . S
C1985 N1987 1.384 . S
N1986 C1982 1.427 . S
N1986 C1983 1.384 . S
N1987 C1979 1.427 . S
N1987 C1985 1.384 . S
H1988 C1994 0.930 . S
H1989 C1998 0.930 . S
H1990 C2003 0.929 . S
H1991 C2001 0.929 . S
H1992 C1996 0.929 . S
H1993 C2002 0.929 . S
C1994 H1988 0.930 . S
C1994 C1995 1.367 . S
C1994 C2002 1.378 . S
C1995 C1994 1.367 . S
C1995 C2003 1.433 . S
C1996 H1992 0.929 . S
C1996 C1998 1.378 . S
C1996 C2000 1.350 . S
C1997 C2000 1.463 . S
C1997 C2002 1.350 . S
C1997 N2005 1.427 . S
C1998 H1989 0.930 . S
C1998 C1996 1.378 . S
C1998 C1999 1.367 . S
C1999 C1998 1.367 . S
C1999 C2001 1.433 . S
C2000 C1996 1.350 . S
C2000 C1997 1.463 . S
C2000 N2004 1.427 . S
C2001 H1991 0.929 . S
C2001 C1999 1.433 . S
C2001 N2004 1.384 . S
C2002 H1993 0.929 . S
C2002 C1994 1.378 . S
C2002 C1997 1.350 . S
C2003 H1990 0.929 . S
C2003 C1995 1.433 . S
C2003 N2005 1.384 . S
N2004 C2000 1.427 . S
N2004 C2001 1.384 . S
N2005 C1997 1.427 . S
N2005 C2003 1.384 . S
H2006 C2012 0.930 . S
H2007 C2016 0.930 . S
H2008 C2021 0.929 . S
H2009 C2019 0.929 . S
H2010 C2014 0.929 . S
H2011 C2020 0.929 . S
C2012 H2006 0.930 . S
C2012 C2013 1.367 . S
C2012 C2020 1.378 . S
C2013 C2012 1.367 . S
C2013 C2021 1.433 . S
C2014 H2010 0.929 . S
C2014 C2016 1.378 . S
C2014 C2018 1.350 . S
C2015 C2018 1.463 . S
C2015 C2020 1.350 . S
C2015 N2023 1.427 . S
C2016 H2007 0.930 . S
C2016 C2014 1.378 . S
C2016 C2017 1.367 . S
C2017 C2016 1.367 . S
C2017 C2019 1.433 . S
C2018 C2014 1.350 . S
C2018 C2015 1.463 . S
C2018 N2022 1.427 . S
C2019 H2009 0.929 . S
C2019 C2017 1.433 . S
C2019 N2022 1.384 . S
C2020 H2011 0.929 . S
C2020 C2012 1.378 . S
C2020 C2015 1.350 . S
C2021 H2008 0.929 . S
C2021 C2013 1.433 . S
C2021 N2023 1.384 . S
N2022 C2018 1.427 . S
N2022 C2019 1.384 . S
N2023 C2015 1.427 . S
N2023 C2021 1.384 . S
H2024 C2030 0.930 . S
H2025 C2034 0.930 . S
H2026 C2039 0.929 . S
H2027 C2037 0.929 . S
H2028 C2032 0.929 . S
H2029 C2038 0.929 . S
C2030 H2024 0.930 . S
C2030 C2031 1.367 . S
C2030 C2038 1.378 . S
C2031 C2030 1.367 . S
C2031 C2039 1.433 . S
C2032 H2028 0.929 . S
C2032 C2034 1.378 . S
C2032 C2036 1.350 . S
C2033 C2036 1.463 . S
C2033 C2038 1.350 . S
C2033 N2041 1.427 . S
C2034 H2025 0.930 . S
C2034 C2032 1.378 . S
C2034 C2035 1.367 . S
C2035 C2034 1.367 . S
C2035 C2037 1.433 . S
C2036 C2032 1.350 . S
C2036 C2033 1.463 . S
C2036 N2040 1.427 . S
C2037 H2027 0.929 . S
C2037 C2035 1.433 . S
C2037 N2040 1.384 . S
C2038 H2029 0.929 . S
C2038 C2030 1.378 . S
C2038 C2033 1.350 . S
C2039 H2026 0.929 . S
C2039 C2031 1.433 . S
C2039 N2041 1.384 . S
N2040 C2036 1.427 . S
N2040 C2037 1.384 . S
N2041 C2033 1.427 . S
N2041 C2039 1.384 . S
H2042 C2048 0.930 . S
H2043 C2052 0.930 . S
H2044 C2057 0.929 . S
H2045 C2055 0.929 . S
H2046 C2050 0.929 . S
H2047 C2056 0.929 . S
C2048 H2042 0.930 . S
C2048 C2049 1.367 . S
C2048 C2056 1.378 . S
C2049 C2048 1.367 . S
C2049 C2057 1.433 . S
C2050 H2046 0.929 . S
C2050 C2052 1.378 . S
C2050 C2054 1.350 . S
C2051 C2054 1.463 . S
C2051 C2056 1.350 . S
C2051 N2059 1.427 . S
C2052 H2043 0.930 . S
C2052 C2050 1.378 . S
C2052 C2053 1.367 . S
C2053 C2052 1.367 . S
C2053 C2055 1.433 . S
C2054 C2050 1.350 . S
C2054 C2051 1.463 . S
C2054 N2058 1.427 . S
C2055 H2045 0.929 . S
C2055 C2053 1.433 . S
C2055 N2058 1.384 . S
C2056 H2047 0.929 . S
C2056 C2048 1.378 . S
C2056 C2051 1.350 . S
C2057 H2044 0.929 . S
C2057 C2049 1.433 . S
C2057 N2059 1.384 . S
N2058 C2054 1.427 . S
N2058 C2055 1.384 . S
N2059 C2051 1.427 . S
N2059 C2057 1.384 . S
H2060 C2066 0.930 . S
H2061 C2070 0.930 . S
H2062 C2075 0.929 . S
H2063 C2073 0.929 . S
H2064 C2068 0.929 . S
H2065 C2074 0.929 . S
C2066 H2060 0.930 . S
C2066 C2067 1.367 . S
C2066 C2074 1.378 . S
C2067 C2066 1.367 . S
C2067 C2075 1.433 . S
C2068 H2064 0.929 . S
C2068 C2070 1.378 . S
C2068 C2072 1.350 . S
C2069 C2072 1.463 . S
C2069 C2074 1.350 . S
C2069 N2077 1.427 . S
C2070 H2061 0.930 . S
C2070 C2068 1.378 . S
C2070 C2071 1.367 . S
C2071 C2070 1.367 . S
C2071 C2073 1.433 . S
C2072 C2068 1.350 . S
C2072 C2069 1.463 . S
C2072 N2076 1.427 . S
C2073 H2063 0.929 . S
C2073 C2071 1.433 . S
C2073 N2076 1.384 . S
C2074 H2065 0.929 . S
C2074 C2066 1.378 . S
C2074 C2069 1.350 . S
C2075 H2062 0.929 . S
C2075 C2067 1.433 . S
C2075 N2077 1.384 . S
N2076 C2072 1.427 . S
N2076 C2073 1.384 . S
N2077 C2069 1.427 . S
N2077 C2075 1.384 . S
H2078 C2084 0.930 . S
H2079 C2088 0.930 . S
H2080 C2093 0.929 1_655 S
H2081 C2091 0.929 . S
H2082 C2086 0.929 . S
H2083 C2092 0.929 . S
C2084 H2078 0.930 . S
C2084 C2085 1.367 . S
C2084 C2092 1.378 1_655 S
C2085 C2084 1.367 . S
C2085 C2093 1.433 1_655 S
C2086 H2082 0.929 . S
C2086 C2088 1.378 . S
C2086 C2090 1.350 . S
C2087 C2090 1.463 . S
C2087 C2092 1.350 . S
C2087 N2095 1.427 . S
C2088 H2079 0.930 . S
C2088 C2086 1.378 . S
C2088 C2089 1.367 . S
C2089 C2088 1.367 . S
C2089 C2091 1.433 . S
C2090 C2086 1.350 . S
C2090 C2087 1.463 . S
C2090 N2094 1.427 . S
C2091 H2081 0.929 . S
C2091 C2089 1.433 . S
C2091 N2094 1.384 . S
C2092 H2083 0.929 . S
C2092 C2084 1.378 1_455 S
C2092 C2087 1.350 . S
C2093 H2080 0.929 1_455 S
C2093 C2085 1.433 1_455 S
C2093 N2095 1.384 . S
N2094 C2090 1.427 . S
N2094 C2091 1.384 . S
N2095 C2087 1.427 . S
N2095 C2093 1.384 . S
H2096 C2102 0.930 . S
H2097 C2106 0.930 . S
H2098 C2111 0.929 . S
H2099 C2109 0.929 . S
H2100 C2104 0.929 . S
H2101 C2110 0.929 . S
C2102 H2096 0.930 . S
C2102 C2103 1.367 . S
C2102 C2110 1.378 . S
C2103 C2102 1.367 . S
C2103 C2111 1.433 . S
C2104 H2100 0.929 . S
C2104 C2106 1.378 . S
C2104 C2108 1.350 . S
C2105 C2108 1.463 . S
C2105 C2110 1.350 . S
C2105 N2113 1.427 . S
C2106 H2097 0.930 . S
C2106 C2104 1.378 . S
C2106 C2107 1.367 . S
C2107 C2106 1.367 . S
C2107 C2109 1.433 . S
C2108 C2104 1.350 . S
C2108 C2105 1.463 . S
C2108 N2112 1.427 . S
C2109 H2099 0.929 . S
C2109 C2107 1.433 . S
C2109 N2112 1.384 . S
C2110 H2101 0.929 . S
C2110 C2102 1.378 . S
C2110 C2105 1.350 . S
C2111 H2098 0.929 . S
C2111 C2103 1.433 . S
C2111 N2113 1.384 . S
N2112 C2108 1.427 . S
N2112 C2109 1.384 . S
N2113 C2105 1.427 . S
N2113 C2111 1.384 . S
H2114 C2120 0.930 . S
H2115 C2124 0.930 . S
H2116 C2129 0.929 . S
H2117 C2127 0.929 . S
H2118 C2122 0.929 . S
H2119 C2128 0.929 . S
C2120 H2114 0.930 . S
C2120 C2121 1.367 . S
C2120 C2128 1.378 . S
C2121 C2120 1.367 . S
C2121 C2129 1.433 . S
C2122 H2118 0.929 . S
C2122 C2124 1.378 . S
C2122 C2126 1.350 . S
C2123 C2126 1.463 . S
C2123 C2128 1.350 . S
C2123 N2131 1.427 . S
C2124 H2115 0.930 . S
C2124 C2122 1.378 . S
C2124 C2125 1.367 . S
C2125 C2124 1.367 . S
C2125 C2127 1.433 . S
C2126 C2122 1.350 . S
C2126 C2123 1.463 . S
C2126 N2130 1.427 . S
C2127 H2117 0.929 . S
C2127 C2125 1.433 . S
C2127 N2130 1.384 . S
C2128 H2119 0.929 . S
C2128 C2120 1.378 . S
C2128 C2123 1.350 . S
C2129 H2116 0.929 . S
C2129 C2121 1.433 . S
C2129 N2131 1.384 . S
N2130 C2126 1.427 . S
N2130 C2127 1.384 . S
N2131 C2123 1.427 . S
N2131 C2129 1.384 . S
H2132 C2138 0.930 . S
H2133 C2142 0.930 . S
H2134 C2147 0.929 . S
H2135 C2145 0.929 . S
H2136 C2140 0.929 . S
H2137 C2146 0.929 . S
C2138 H2132 0.930 . S
C2138 C2139 1.367 . S
C2138 C2146 1.378 . S
C2139 C2138 1.367 . S
C2139 C2147 1.433 . S
C2140 H2136 0.929 . S
C2140 C2142 1.378 . S
C2140 C2144 1.350 . S
C2141 C2144 1.463 . S
C2141 C2146 1.350 . S
C2141 N2149 1.427 . S
C2142 H2133 0.930 . S
C2142 C2140 1.378 . S
C2142 C2143 1.367 . S
C2143 C2142 1.367 . S
C2143 C2145 1.433 . S
C2144 C2140 1.350 . S
C2144 C2141 1.463 . S
C2144 N2148 1.427 . S
C2145 H2135 0.929 . S
C2145 C2143 1.433 . S
C2145 N2148 1.384 . S
C2146 H2137 0.929 . S
C2146 C2138 1.378 . S
C2146 C2141 1.350 . S
C2147 H2134 0.929 . S
C2147 C2139 1.433 . S
C2147 N2149 1.384 . S
N2148 C2144 1.427 . S
N2148 C2145 1.384 . S
N2149 C2141 1.427 . S
N2149 C2147 1.384 . S
H2150 C2156 0.930 . S
H2151 C2160 0.930 . S
H2152 C2165 0.929 . S
H2153 C2163 0.929 . S
H2154 C2158 0.929 . S
H2155 C2164 0.929 . S
C2156 H2150 0.930 . S
C2156 C2157 1.367 . S
C2156 C2164 1.378 . S
C2157 C2156 1.367 . S
C2157 C2165 1.433 . S
C2158 H2154 0.929 . S
C2158 C2160 1.378 . S
C2158 C2162 1.350 . S
C2159 C2162 1.463 . S
C2159 C2164 1.350 . S
C2159 N2167 1.427 . S
C2160 H2151 0.930 . S
C2160 C2158 1.378 . S
C2160 C2161 1.367 . S
C2161 C2160 1.367 . S
C2161 C2163 1.433 . S
C2162 C2158 1.350 . S
C2162 C2159 1.463 . S
C2162 N2166 1.427 . S
C2163 H2153 0.929 . S
C2163 C2161 1.433 . S
C2163 N2166 1.384 . S
C2164 H2155 0.929 . S
C2164 C2156 1.378 . S
C2164 C2159 1.350 . S
C2165 H2152 0.929 . S
C2165 C2157 1.433 . S
C2165 N2167 1.384 . S
N2166 C2162 1.427 . S
N2166 C2163 1.384 . S
N2167 C2159 1.427 . S
N2167 C2165 1.384 . S
H2168 C2174 0.930 . S
H2169 C2178 0.930 . S
H2170 C2183 0.929 . S
H2171 C2181 0.929 . S
H2172 C2176 0.929 . S
H2173 C2182 0.929 . S
C2174 H2168 0.930 . S
C2174 C2175 1.367 . S
C2174 C2182 1.378 . S
C2175 C2174 1.367 . S
C2175 C2183 1.433 . S
C2176 H2172 0.929 . S
C2176 C2178 1.378 . S
C2176 C2180 1.350 . S
C2177 C2180 1.463 . S
C2177 C2182 1.350 . S
C2177 N2185 1.427 . S
C2178 H2169 0.930 . S
C2178 C2176 1.378 . S
C2178 C2179 1.367 . S
C2179 C2178 1.367 . S
C2179 C2181 1.433 . S
C2180 C2176 1.350 . S
C2180 C2177 1.463 . S
C2180 N2184 1.427 . S
C2181 H2171 0.929 . S
C2181 C2179 1.433 . S
C2181 N2184 1.384 . S
C2182 H2173 0.929 . S
C2182 C2174 1.378 . S
C2182 C2177 1.350 . S
C2183 H2170 0.929 . S
C2183 C2175 1.433 . S
C2183 N2185 1.384 . S
N2184 C2180 1.427 . S
N2184 C2181 1.384 . S
N2185 C2177 1.427 . S
N2185 C2183 1.384 . S
H2186 C2192 0.930 . S
H2187 C2196 0.930 . S
H2188 C2201 0.929 . S
H2189 C2199 0.929 . S
H2190 C2194 0.929 . S
H2191 C2200 0.929 . S
C2192 H2186 0.930 . S
C2192 C2193 1.367 . S
C2192 C2200 1.378 . S
C2193 C2192 1.367 . S
C2193 C2201 1.433 . S
C2194 H2190 0.929 . S
C2194 C2196 1.378 . S
C2194 C2198 1.350 . S
C2195 C2198 1.463 . S
C2195 C2200 1.350 . S
C2195 N2203 1.427 . S
C2196 H2187 0.930 . S
C2196 C2194 1.378 . S
C2196 C2197 1.367 . S
C2197 C2196 1.367 . S
C2197 C2199 1.433 . S
C2198 C2194 1.350 . S
C2198 C2195 1.463 . S
C2198 N2202 1.427 . S
C2199 H2189 0.929 . S
C2199 C2197 1.433 . S
C2199 N2202 1.384 . S
C2200 H2191 0.929 . S
C2200 C2192 1.378 . S
C2200 C2195 1.350 . S
C2201 H2188 0.929 . S
C2201 C2193 1.433 . S
C2201 N2203 1.384 . S
N2202 C2198 1.427 . S
N2202 C2199 1.384 . S
N2203 C2195 1.427 . S
N2203 C2201 1.384 . S
H2204 C2210 0.930 . S
H2205 C2214 0.930 . S
H2206 C2219 0.929 . S
H2207 C2217 0.929 . S
H2208 C2212 0.929 . S
H2209 C2218 0.929 . S
C2210 H2204 0.930 . S
C2210 C2211 1.367 . S
C2210 C2218 1.378 . S
C2211 C2210 1.367 . S
C2211 C2219 1.433 . S
C2212 H2208 0.929 . S
C2212 C2214 1.378 . S
C2212 C2216 1.350 . S
C2213 C2216 1.463 . S
C2213 C2218 1.350 . S
C2213 N2221 1.427 . S
C2214 H2205 0.930 . S
C2214 C2212 1.378 . S
C2214 C2215 1.367 . S
C2215 C2214 1.367 . S
C2215 C2217 1.433 . S
C2216 C2212 1.350 . S
C2216 C2213 1.463 . S
C2216 N2220 1.427 . S
C2217 H2207 0.929 . S
C2217 C2215 1.433 . S
C2217 N2220 1.384 . S
C2218 H2209 0.929 . S
C2218 C2210 1.378 . S
C2218 C2213 1.350 . S
C2219 H2206 0.929 . S
C2219 C2211 1.433 . S
C2219 N2221 1.384 . S
N2220 C2216 1.427 . S
N2220 C2217 1.384 . S
N2221 C2213 1.427 . S
N2221 C2219 1.384 . S
H2222 C2228 0.955 . S
H2223 C2232 0.930 . S
H2224 C2237 0.929 . S
H2225 C2235 0.929 . S
H2226 C2230 0.929 . S
H2227 C2236 0.929 . S
C2228 H2222 0.955 . S
C2228 C2229 1.367 . S
C2228 C2236 1.378 . S
C2229 C2228 1.367 . S
C2229 C2237 1.433 . S
C2230 H2226 0.929 . S
C2230 C2232 1.378 . S
C2230 C2234 1.350 . S
C2231 C2234 1.463 . S
C2231 C2236 1.350 . S
C2231 N2239 1.427 . S
C2232 H2223 0.930 . S
C2232 C2230 1.378 . S
C2232 C2233 1.367 . S
C2233 C2232 1.367 . S
C2233 C2235 1.433 . S
C2234 C2230 1.350 . S
C2234 C2231 1.463 . S
C2234 N2238 1.427 . S
C2235 H2225 0.929 . S
C2235 C2233 1.433 . S
C2235 N2238 1.384 . S
C2236 H2227 0.929 . S
C2236 C2228 1.378 . S
C2236 C2231 1.350 . S
C2237 H2224 0.929 . S
C2237 C2229 1.433 . S
C2237 N2239 1.384 . S
N2238 C2234 1.427 . S
N2238 C2235 1.384 . S
N2239 C2231 1.427 . S
N2239 C2237 1.384 . S
H2240 C2246 0.930 . S
H2241 C2250 0.930 . S
H2242 C2255 0.929 . S
H2243 C2253 0.929 . S
H2244 C2248 0.929 . S
H2245 C2254 0.929 . S
C2246 H2240 0.930 . S
C2246 C2247 1.367 . S
C2246 C2254 1.378 . S
C2247 C2246 1.367 . S
C2247 C2255 1.433 . S
C2248 H2244 0.929 . S
C2248 C2250 1.378 . S
C2248 C2252 1.350 . S
C2249 C2252 1.463 . S
C2249 C2254 1.350 . S
C2249 N2257 1.427 . S
C2250 H2241 0.930 . S
C2250 C2248 1.378 . S
C2250 C2251 1.367 . S
C2251 C2250 1.367 . S
C2251 C2253 1.433 . S
C2252 C2248 1.350 . S
C2252 C2249 1.463 . S
C2252 N2256 1.427 . S
C2253 H2243 0.929 . S
C2253 C2251 1.433 . S
C2253 N2256 1.384 . S
C2254 H2245 0.929 . S
C2254 C2246 1.378 . S
C2254 C2249 1.350 . S
C2255 H2242 0.929 . S
C2255 C2247 1.433 . S
C2255 N2257 1.384 . S
N2256 C2252 1.427 . S
N2256 C2253 1.384 . S
N2257 C2249 1.427 . S
N2257 C2255 1.384 . S
H2258 C2264 0.930 . S
H2259 C2268 0.930 . S
H2260 C2273 0.929 . S
H2261 C2271 0.929 . S
H2262 C2266 0.929 . S
H2263 C2272 0.929 . S
C2264 H2258 0.930 . S
C2264 C2265 1.367 . S
C2264 C2272 1.378 . S
C2265 C2264 1.367 . S
C2265 C2273 1.433 . S
C2266 H2262 0.929 . S
C2266 C2268 1.378 . S
C2266 C2270 1.350 . S
C2267 C2270 1.463 . S
C2267 C2272 1.350 . S
C2267 N2275 1.427 . S
C2268 H2259 0.930 . S
C2268 C2266 1.378 . S
C2268 C2269 1.367 . S
C2269 C2268 1.367 . S
C2269 C2271 1.433 . S
C2270 C2266 1.350 . S
C2270 C2267 1.463 . S
C2270 N2274 1.427 . S
C2271 H2261 0.929 . S
C2271 C2269 1.433 . S
C2271 N2274 1.384 . S
C2272 H2263 0.929 . S
C2272 C2264 1.378 . S
C2272 C2267 1.350 . S
C2273 H2260 0.929 . S
C2273 C2265 1.433 . S
C2273 N2275 1.384 . S
N2274 C2270 1.427 . S
N2274 C2271 1.384 . S
N2275 C2267 1.427 . S
N2275 C2273 1.384 . S
H2276 C2282 0.930 . S
H2277 C2286 0.930 . S
H2278 C2291 0.929 . S
H2279 C2289 0.929 . S
H2280 C2284 0.929 . S
H2281 C2290 0.929 . S
C2282 H2276 0.930 . S
C2282 C2283 1.367 . S
C2282 C2290 1.378 . S
C2283 C2282 1.367 . S
C2283 C2291 1.433 . S
C2284 H2280 0.929 . S
C2284 C2286 1.378 . S
C2284 C2288 1.350 . S
C2285 C2288 1.463 . S
C2285 C2290 1.350 . S
C2285 N2293 1.427 . S
C2286 H2277 0.930 . S
C2286 C2284 1.378 . S
C2286 C2287 1.367 . S
C2287 C2286 1.367 . S
C2287 C2289 1.433 . S
C2288 C2284 1.350 . S
C2288 C2285 1.463 . S
C2288 N2292 1.427 . S
C2289 H2279 0.929 . S
C2289 C2287 1.433 . S
C2289 N2292 1.384 . S
C2290 H2281 0.929 . S
C2290 C2282 1.378 . S
C2290 C2285 1.350 . S
C2291 H2278 0.929 . S
C2291 C2283 1.433 . S
C2291 N2293 1.384 . S
N2292 C2288 1.427 . S
N2292 C2289 1.384 . S
N2293 C2285 1.427 . S
N2293 C2291 1.384 . S
H2294 C2300 0.930 . S
H2295 C2304 0.930 . S
H2296 C2309 0.929 . S
H2297 C2307 0.929 . S
H2298 C2302 0.929 . S
H2299 C2308 0.929 . S
C2300 H2294 0.930 . S
C2300 C2301 1.367 . S
C2300 C2308 1.378 1_455 S
C2301 C2300 1.367 . S
C2301 C2309 1.433 1_455 S
C2302 H2298 0.929 . S
C2302 C2304 1.378 . S
C2302 C2306 1.350 . S
C2303 C2306 1.463 . S
C2303 C2308 1.350 . S
C2303 N2311 1.427 . S
C2304 H2295 0.930 . S
C2304 C2302 1.378 . S
C2304 C2305 1.367 . S
C2305 C2304 1.367 . S
C2305 C2307 1.433 . S
C2306 C2302 1.350 . S
C2306 C2303 1.463 . S
C2306 N2310 1.427 . S
C2307 H2297 0.929 . S
C2307 C2305 1.433 . S
C2307 N2310 1.384 . S
C2308 H2299 0.929 . S
C2308 C2300 1.378 1_655 S
C2308 C2303 1.350 . S
C2309 H2296 0.929 . S
C2309 C2301 1.433 1_655 S
C2309 N2311 1.384 . S
N2310 C2306 1.427 . S
N2310 C2307 1.384 . S
N2311 C2303 1.427 . S
N2311 C2309 1.384 . S
H2312 C2318 0.930 . S
H2313 C2322 0.930 . S
H2314 C2327 0.929 . S
H2315 C2325 0.929 . S
H2316 C2320 0.929 . S
H2317 C2326 0.929 . S
C2318 H2312 0.930 . S
C2318 C2319 1.367 . S
C2318 C2326 1.378 . S
C2319 C2318 1.367 . S
C2319 C2327 1.433 . S
C2320 H2316 0.929 . S
C2320 C2322 1.378 . S
C2320 C2324 1.350 . S
C2321 C2324 1.463 . S
C2321 C2326 1.350 . S
C2321 N2329 1.427 . S
C2322 H2313 0.930 . S
C2322 C2320 1.378 . S
C2322 C2323 1.367 . S
C2323 C2322 1.367 . S
C2323 C2325 1.433 . S
C2324 C2320 1.350 . S
C2324 C2321 1.463 . S
C2324 N2328 1.427 . S
C2325 H2315 0.929 . S
C2325 C2323 1.433 . S
C2325 N2328 1.384 . S
C2326 H2317 0.929 . S
C2326 C2318 1.378 . S
C2326 C2321 1.350 . S
C2327 H2314 0.929 . S
C2327 C2319 1.433 . S
C2327 N2329 1.384 . S
N2328 C2324 1.427 . S
N2328 C2325 1.384 . S
N2329 C2321 1.427 . S
N2329 C2327 1.384 . S
H2330 C2336 0.930 . S
H2331 C2340 0.930 . S
H2332 C2345 0.929 . S
H2333 C2343 0.929 . S
H2334 C2338 0.929 . S
H2335 C2344 0.929 . S
C2336 H2330 0.930 . S
C2336 C2337 1.367 . S
C2336 C2344 1.378 . S
C2337 C2336 1.367 . S
C2337 C2345 1.433 . S
C2338 H2334 0.929 . S
C2338 C2340 1.378 . S
C2338 C2342 1.350 . S
C2339 C2342 1.463 . S
C2339 C2344 1.350 . S
C2339 N2347 1.427 . S
C2340 H2331 0.930 . S
C2340 C2338 1.378 . S
C2340 C2341 1.367 1_655 S
C2341 C2340 1.367 1_455 S
C2341 C2343 1.433 . S
C2342 C2338 1.350 . S
C2342 C2339 1.463 . S
C2342 N2346 1.427 . S
C2343 H2333 0.929 . S
C2343 C2341 1.433 . S
C2343 N2346 1.384 1_455 S
C2344 H2335 0.929 . S
C2344 C2336 1.378 . S
C2344 C2339 1.350 . S
C2345 H2332 0.929 . S
C2345 C2337 1.433 . S
C2345 N2347 1.384 . S
N2346 C2342 1.427 . S
N2346 C2343 1.384 1_655 S
N2347 C2339 1.427 . S
N2347 C2345 1.384 . S
H2348 C2354 0.930 . S
H2349 C2358 0.930 . S
H2350 C2363 0.929 . S
H2351 C2361 0.929 . S
H2352 C2356 0.929 . S
H2353 C2362 0.929 . S
C2354 H2348 0.930 . S
C2354 C2355 1.367 . S
C2354 C2362 1.378 . S
C2355 C2354 1.367 . S
C2355 C2363 1.433 . S
C2356 H2352 0.929 . S
C2356 C2358 1.378 . S
C2356 C2360 1.350 . S
C2357 C2360 1.463 . S
C2357 C2362 1.350 . S
C2357 N2365 1.427 . S
C2358 H2349 0.930 . S
C2358 C2356 1.378 . S
C2358 C2359 1.367 . S
C2359 C2358 1.367 . S
C2359 C2361 1.433 . S
C2360 C2356 1.350 . S
C2360 C2357 1.463 . S
C2360 N2364 1.427 . S
C2361 H2351 0.929 . S
C2361 C2359 1.433 . S
C2361 N2364 1.384 . S
C2362 H2353 0.929 . S
C2362 C2354 1.378 . S
C2362 C2357 1.350 . S
C2363 H2350 0.929 . S
C2363 C2355 1.433 . S
C2363 N2365 1.384 . S
N2364 C2360 1.427 . S
N2364 C2361 1.384 . S
N2365 C2357 1.427 . S
N2365 C2363 1.384 . S
H2366 C2372 0.930 . S
H2367 C2376 0.930 . S
H2368 C2381 0.929 . S
H2369 C2379 0.929 . S
H2370 C2374 0.929 . S
H2371 C2380 0.929 . S
C2372 H2366 0.930 . S
C2372 C2373 1.367 . S
C2372 C2380 1.378 . S
C2373 C2372 1.367 . S
C2373 C2381 1.433 . S
C2374 H2370 0.929 . S
C2374 C2376 1.378 . S
C2374 C2378 1.350 . S
C2375 C2378 1.463 . S
C2375 C2380 1.350 . S
C2375 N2383 1.427 . S
C2376 H2367 0.930 . S
C2376 C2374 1.378 . S
C2376 C2377 1.367 . S
C2377 C2376 1.367 . S
C2377 C2379 1.433 . S
C2378 C2374 1.350 . S
C2378 C2375 1.463 . S
C2378 N2382 1.427 . S
C2379 H2369 0.929 . S
C2379 C2377 1.433 . S
C2379 N2382 1.384 . S
C2380 H2371 0.929 . S
C2380 C2372 1.378 . S
C2380 C2375 1.350 . S
C2381 H2368 0.929 . S
C2381 C2373 1.433 . S
C2381 N2383 1.384 . S
N2382 C2378 1.427 . S
N2382 C2379 1.384 . S
N2383 C2375 1.427 . S
N2383 C2381 1.384 . S
H2384 C2390 0.930 . S
H2385 C2394 0.930 . S
H2386 C2399 0.929 . S
H2387 C2397 0.929 . S
H2388 C2392 0.929 . S
H2389 C2398 0.929 . S
C2390 H2384 0.930 . S
C2390 C2391 1.367 . S
C2390 C2398 1.378 . S
C2391 C2390 1.367 . S
C2391 C2399 1.433 . S
C2392 H2388 0.929 . S
C2392 C2394 1.378 . S
C2392 C2396 1.350 . S
C2393 C2396 1.463 . S
C2393 C2398 1.350 . S
C2393 N2401 1.427 . S
C2394 H2385 0.930 . S
C2394 C2392 1.378 . S
C2394 C2395 1.367 . S
C2395 C2394 1.367 . S
C2395 C2397 1.433 . S
C2396 C2392 1.350 . S
C2396 C2393 1.463 . S
C2396 N2400 1.427 . S
C2397 H2387 0.929 . S
C2397 C2395 1.433 . S
C2397 N2400 1.384 . S
C2398 H2389 0.929 . S
C2398 C2390 1.378 . S
C2398 C2393 1.350 . S
C2399 H2386 0.929 . S
C2399 C2391 1.433 . S
C2399 N2401 1.384 . S
N2400 C2396 1.427 . S
N2400 C2397 1.384 . S
N2401 C2393 1.427 . S
N2401 C2399 1.384 . S
H2402 C2408 0.930 . S
H2403 C2412 0.930 . S
H2404 C2417 0.929 . S
H2405 C2415 0.929 . S
H2406 C2410 0.929 . S
H2407 C2416 0.929 . S
C2408 H2402 0.930 . S
C2408 C2409 1.367 . S
C2408 C2416 1.378 . S
C2409 C2408 1.367 . S
C2409 C2417 1.433 . S
C2410 H2406 0.929 . S
C2410 C2412 1.378 . S
C2410 C2414 1.350 . S
C2411 C2414 1.463 . S
C2411 C2416 1.350 . S
C2411 N2419 1.427 . S
C2412 H2403 0.930 . S
C2412 C2410 1.378 . S
C2412 C2413 1.367 . S
C2413 C2412 1.367 . S
C2413 C2415 1.433 . S
C2414 C2410 1.350 . S
C2414 C2411 1.463 . S
C2414 N2418 1.427 . S
C2415 H2405 0.929 . S
C2415 C2413 1.433 . S
C2415 N2418 1.384 . S
C2416 H2407 0.929 . S
C2416 C2408 1.378 . S
C2416 C2411 1.350 . S
C2417 H2404 0.929 . S
C2417 C2409 1.433 . S
C2417 N2419 1.384 . S
N2418 C2414 1.427 . S
N2418 C2415 1.384 . S
N2419 C2411 1.427 . S
N2419 C2417 1.384 . S
H2420 C2426 0.930 . S
H2421 C2430 0.930 . S
H2422 C2435 0.929 . S
H2423 C2433 0.929 . S
H2424 C2428 0.929 . S
H2425 C2434 0.929 . S
C2426 H2420 0.930 . S
C2426 C2427 1.367 . S
C2426 C2434 1.378 . S
C2427 C2426 1.367 . S
C2427 C2435 1.433 . S
C2428 H2424 0.929 . S
C2428 C2430 1.378 . S
C2428 C2432 1.350 . S
C2429 C2432 1.463 . S
C2429 C2434 1.350 . S
C2429 N2437 1.427 . S
C2430 H2421 0.930 . S
C2430 C2428 1.378 . S
C2430 C2431 1.367 . S
C2431 C2430 1.367 . S
C2431 C2433 1.433 . S
C2432 C2428 1.350 . S
C2432 C2429 1.463 . S
C2432 N2436 1.427 . S
C2433 H2423 0.929 . S
C2433 C2431 1.433 . S
C2433 N2436 1.384 . S
C2434 H2425 0.929 . S
C2434 C2426 1.378 . S
C2434 C2429 1.350 . S
C2435 H2422 0.929 . S
C2435 C2427 1.433 . S
C2435 N2437 1.384 . S
N2436 C2432 1.427 . S
N2436 C2433 1.384 . S
N2437 C2429 1.427 . S
N2437 C2435 1.384 . S
H2438 C2444 0.930 . S
H2439 C2448 0.930 . S
H2440 C2453 0.929 . S
H2441 C2451 0.929 . S
H2442 C2446 0.929 . S
H2443 C2452 0.929 . S
C2444 H2438 0.930 . S
C2444 C2445 1.367 . S
C2444 C2452 1.378 . S
C2445 C2444 1.367 . S
C2445 C2453 1.433 . S
C2446 H2442 0.929 . S
C2446 C2448 1.378 . S
C2446 C2450 1.350 . S
C2447 C2450 1.463 . S
C2447 C2452 1.350 . S
C2447 N2455 1.427 . S
C2448 H2439 0.930 . S
C2448 C2446 1.378 . S
C2448 C2449 1.367 . S
C2449 C2448 1.367 . S
C2449 C2451 1.433 1_455 S
C2450 C2446 1.350 . S
C2450 C2447 1.463 . S
C2450 N2454 1.427 . S
C2451 H2441 0.929 . S
C2451 C2449 1.433 1_655 S
C2451 N2454 1.384 1_655 S
C2452 H2443 0.929 . S
C2452 C2444 1.378 . S
C2452 C2447 1.350 . S
C2453 H2440 0.929 . S
C2453 C2445 1.433 . S
C2453 N2455 1.384 . S
N2454 C2450 1.427 . S
N2454 C2451 1.384 1_455 S
N2455 C2447 1.427 . S
N2455 C2453 1.384 . S
H2456 C2462 0.930 . S
H2457 C2466 0.930 . S
H2458 C2471 0.929 . S
H2459 C2469 0.929 . S
H2460 C2464 0.929 . S
H2461 C2470 0.929 . S
C2462 H2456 0.930 . S
C2462 C2463 1.367 . S
C2462 C2470 1.378 . S
C2463 C2462 1.367 . S
C2463 C2471 1.433 . S
C2464 H2460 0.929 . S
C2464 C2466 1.378 . S
C2464 C2468 1.350 . S
C2465 C2468 1.463 . S
C2465 C2470 1.350 . S
C2465 N2473 1.427 . S
C2466 H2457 0.930 . S
C2466 C2464 1.378 . S
C2466 C2467 1.367 . S
C2467 C2466 1.367 . S
C2467 C2469 1.433 . S
C2468 C2464 1.350 . S
C2468 C2465 1.463 . S
C2468 N2472 1.427 . S
C2469 H2459 0.929 . S
C2469 C2467 1.433 . S
C2469 N2472 1.384 . S
C2470 H2461 0.929 . S
C2470 C2462 1.378 . S
C2470 C2465 1.350 . S
C2471 H2458 0.929 . S
C2471 C2463 1.433 . S
C2471 N2473 1.384 . S
N2472 C2468 1.427 . S
N2472 C2469 1.384 . S
N2473 C2465 1.427 . S
N2473 C2471 1.384 . S
H2474 C2480 0.930 1_655 S
H2475 C2484 0.930 . S
H2476 C2489 0.929 . S
H2477 C2487 0.929 . S
H2478 C2482 0.929 . S
H2479 C2488 0.929 . S
C2480 H2474 0.930 1_455 S
C2480 C2481 1.367 . S
C2480 C2488 1.378 . S
C2481 C2480 1.367 . S
C2481 C2489 1.433 . S
C2482 H2478 0.929 . S
C2482 C2484 1.378 . S
C2482 C2486 1.350 . S
C2483 C2486 1.463 . S
C2483 C2488 1.350 . S
C2483 N2491 1.427 . S
C2484 H2475 0.930 . S
C2484 C2482 1.378 . S
C2484 C2485 1.367 . S
C2485 C2484 1.367 . S
C2485 C2487 1.433 . S
C2486 C2482 1.350 . S
C2486 C2483 1.463 . S
C2486 N2490 1.427 . S
C2487 H2477 0.929 . S
C2487 C2485 1.433 . S
C2487 N2490 1.384 . S
C2488 H2479 0.929 . S
C2488 C2480 1.378 . S
C2488 C2483 1.350 . S
C2489 H2476 0.929 . S
C2489 C2481 1.433 . S
C2489 N2491 1.384 . S
N2490 C2486 1.427 . S
N2490 C2487 1.384 . S
N2491 C2483 1.427 . S
N2491 C2489 1.384 . S
H2492 C2498 0.930 . S
H2493 C2502 0.930 . S
H2494 C2507 0.929 . S
H2495 C2505 0.929 . S
H2496 C2500 0.929 . S
H2497 C2506 0.929 . S
C2498 H2492 0.930 . S
C2498 C2499 1.367 . S
C2498 C2506 1.378 . S
C2499 C2498 1.367 . S
C2499 C2507 1.433 . S
C2500 H2496 0.929 . S
C2500 C2502 1.378 . S
C2500 C2504 1.350 . S
C2501 C2504 1.463 . S
C2501 C2506 1.350 . S
C2501 N2509 1.427 . S
C2502 H2493 0.930 . S
C2502 C2500 1.378 . S
C2502 C2503 1.367 . S
C2503 C2502 1.367 . S
C2503 C2505 1.433 . S
C2504 C2500 1.350 . S
C2504 C2501 1.463 . S
C2504 N2508 1.427 . S
C2505 H2495 0.929 . S
C2505 C2503 1.433 . S
C2505 N2508 1.384 . S
C2506 H2497 0.929 . S
C2506 C2498 1.378 . S
C2506 C2501 1.350 . S
C2507 H2494 0.929 . S
C2507 C2499 1.433 . S
C2507 N2509 1.384 . S
N2508 C2504 1.427 . S
N2508 C2505 1.384 . S
N2509 C2501 1.427 . S
N2509 C2507 1.384 . S
H2510 C2516 0.930 . S
H2511 C2520 0.930 . S
H2512 C2525 0.929 . S
H2513 C2523 0.929 . S
H2514 C2518 0.929 . S
H2515 C2524 0.929 . S
C2516 H2510 0.930 . S
C2516 C2517 1.367 . S
C2516 C2524 1.378 . S
C2517 C2516 1.367 . S
C2517 C2525 1.433 . S
C2518 H2514 0.929 . S
C2518 C2520 1.378 . S
C2518 C2522 1.350 . S
C2519 C2522 1.463 . S
C2519 C2524 1.350 . S
C2519 N2527 1.427 . S
C2520 H2511 0.930 . S
C2520 C2518 1.378 . S
C2520 C2521 1.367 . S
C2521 C2520 1.367 . S
C2521 C2523 1.433 . S
C2522 C2518 1.350 . S
C2522 C2519 1.463 . S
C2522 N2526 1.427 . S
C2523 H2513 0.929 . S
C2523 C2521 1.433 . S
C2523 N2526 1.384 . S
C2524 H2515 0.929 . S
C2524 C2516 1.378 . S
C2524 C2519 1.350 . S
C2525 H2512 0.929 . S
C2525 C2517 1.433 . S
C2525 N2527 1.384 . S
N2526 C2522 1.427 . S
N2526 C2523 1.384 . S
N2527 C2519 1.427 . S
N2527 C2525 1.384 . S
C1095 C247 1.234 . S
C1099 C9 1.229 . S
C1113 C43 1.228 . S
C1117 C145 1.233 . S
C1131 C77 1.234 . S
C1135 C179 1.233 . S
C1149 C213 1.231 . S
C1153 C111 1.235 . S
C1167 C530 1.568 . S
C1171 C292 1.571 . S
C1185 C428 1.572 . S
C1189 C326 1.566 . S
C1203 C360 1.571 . S
C1207 C462 1.567 . S
C1221 C394 1.568 . S
C1225 C496 1.571 . S
C1239 C791 1.230 . S
C1243 C553 1.235 . S
C1257 C587 1.234 . S
C1261 C689 1.228 . S
C1275 C621 1.235 . S
C1279 C723 1.232 . S
C1293 C757 1.232 . S
C1297 C655 1.234 . S
C1311 C1074 1.570 . S
C1315 C836 1.567 . S
C1329 C870 1.567 . S
C1333 C972 1.570 . S
C1347 C1006 1.572 . S
C1351 C904 1.566 . S
C1365 C1040 1.565 . S
C1369 C938 1.572 . S
C1383 C156 2.255 . S
C1387 C20 2.257 . S
C1401 C54 2.257 . S
C1405 C190 2.259 . S
C1419 C224 2.258 . S
C1423 C88 2.259 . S
C1437 C122 2.255 . S
C1441 C258 2.257 . S
C1455 C417 0.654 . S
C1459 C281 0.645 . S
C1473 C315 0.652 . S
C1477 C451 0.668 . S
C1491 C349 0.656 . S
C1495 C485 0.666 . S
C1509 C519 0.668 . S
C1513 C383 0.647 . S
C1527 C700 2.257 . S
C1531 C564 2.255 . S
C1545 C734 2.255 . S
C1549 C598 2.256 . S
C1563 C768 2.256 . S
C1567 C632 2.255 . S
C1581 C802 2.256 . S
C1585 C666 2.258 . S
C1599 C961 0.663 . S
C1603 C825 0.661 . S
C1617 C859 0.668 . S
C1621 C995 0.650 . S
C1635 C1029 0.659 . S
C1639 C893 0.664 . S
C1653 C1063 0.647 . S
C1657 C927 0.668 . S
C1671 C614 1.356 . S
C1675 C2 1.359 . S
C1689 C36 1.359 . S
C1693 C648 1.353 . S
C1707 C70 1.351 . S
C1711 C546 1.358 . S
C1725 C104 1.356 . S
C1729 C580 1.350 . S
C1743 C750 1.359 . S
C1747 C138 1.352 . S
C1761 C784 1.359 . S
C1765 C172 1.353 . S
C1779 C206 1.350 . S
C1783 C682 1.355 . S
C1797 C240 1.356 . S
C1801 C716 1.358 . S
C1815 C277 0.600 . S
C1819 C889 0.597 . S
C1833 C311 0.617 . S
C1837 C923 0.614 . S
C1851 C821 0.618 . S
C1855 C345 0.615 . S
C1869 C379 0.625 . S
C1873 C855 0.624 . S
C1887 C413 0.621 . S
C1891 C1025 0.619 . S
C1905 C1059 0.594 . S
C1909 C447 0.597 . S
C1923 C481 0.620 . S
C1927 C957 0.618 . S
C1941 C991 0.611 . S
C1945 C515 0.608 . S
C1959 C920 1.859 . S
C1963 C33 1.820 . S
C1977 C67 1.812 . S
C1981 C274 1.867 . S
C1995 C101 1.823 . S
C1999 C852 1.859 . S
C2013 C342 1.861 . S
C2017 C135 1.818 . S
C2031 C988 1.860 . S
C2035 C169 1.822 . S
C2049 C203 1.823 . S
C2053 C478 1.859 . S
C2067 C1056 1.863 . S
C2071 C237 1.814 . S
C2085 C410 1.867 . S
C2089 C271 1.811 . S
C2103 C305 0.629 . S
C2107 C651 0.656 . S
C2121 C339 0.623 . S
C2125 C5 0.666 . S
C2139 C583 0.628 . S
C2143 C373 0.630 . S
C2157 C407 0.621 . S
C2161 C73 0.644 . S
C2175 C441 0.626 . S
C2179 C719 0.632 . S
C2193 C475 0.655 . S
C2197 C209 0.633 . S
C2211 C509 0.649 . S
C2215 C787 0.648 . S
C2229 C141 0.669 . S
C2233 C543 0.627 . S
C2247 C577 1.811 . S
C2251 C376 1.866 . S
C2265 C818 1.859 . S
C2269 C611 1.823 . S
C2283 C308 1.860 . S
C2287 C645 1.823 . S
C2301 C886 1.859 . S
C2305 C679 1.823 . S
C2319 C713 1.813 . S
C2323 C444 1.865 . S
C2337 C747 1.818 . S
C2341 C1022 1.861 . S
C2355 C512 1.866 . S
C2359 C781 1.813 . S
C2373 C815 1.813 . S
C2377 C954 1.866 . S
C2391 C849 0.631 . S
C2395 C107 0.656 . S
C2409 C549 0.656 . S
C2413 C883 0.633 . S
C2427 C917 0.629 . S
C2431 C39 0.656 . S
C2445 C951 0.623 . S
C2449 C617 0.654 . S
C2463 C985 0.652 . S
C2467 C175 0.642 . S
C2481 C753 0.670 . S
C2485 C1019 0.632 . S
C2499 C1053 0.655 . S
C2503 C243 0.633 . S
C2517 C1087 0.654 . S
C2521 C685 0.630 . S
