# Generated by pormake.
# Topology unb, (4)-cn, num edge types: 1
# Building blocks:
#     Node 0, Type 0, BuildingBlock: CEKHIL_clean_sbu_0, # of connection points: 4
#     Node 1, Type 0, BuildingBlock: CEKHIL_clean_sbu_0, # of connection points: 4
#     Node 2, Type 0, BuildingBlock: CEKHIL_clean_sbu_0, # of connection points: 4
#     Node 3, Type 0, BuildingBlock: CEKHIL_clean_sbu_0, # of connection points: 4
#     Node 4, Type 0, BuildingBlock: CEKHIL_clean_sbu_0, # of connection points: 4
#     Node 5, Type 0, BuildingBlock: CEKHIL_clean_sbu_0, # of connection points: 4
#     Node 6, Type 0, BuildingBlock: CEKHIL_clean_sbu_0, # of connection points: 4
#     Node 7, Type 0, BuildingBlock: CEKHIL_clean_sbu_0, # of connection points: 4
#     Node 8, Type 0, BuildingBlock: CEKHIL_clean_sbu_0, # of connection points: 4
#     Node 9, Type 0, BuildingBlock: CEKHIL_clean_sbu_0, # of connection points: 4
#     Node 10, Type 0, BuildingBlock: CEKHIL_clean_sbu_0, # of connection points: 4
#     Node 11, Type 0, BuildingBlock: CEKHIL_clean_sbu_0, # of connection points: 4
#     Node 12, Type 0, BuildingBlock: CEKHIL_clean_sbu_0, # of connection points: 4
#     Node 13, Type 0, BuildingBlock: CEKHIL_clean_sbu_0, # of connection points: 4
#     Node 14, Type 0, BuildingBlock: CEKHIL_clean_sbu_0, # of connection points: 4
#     Node 15, Type 0, BuildingBlock: CEKHIL_clean_sbu_0, # of connection points: 4
#     Node 16, Type 0, BuildingBlock: CEKHIL_clean_sbu_0, # of connection points: 4
#     Node 17, Type 0, BuildingBlock: CEKHIL_clean_sbu_0, # of connection points: 4
#     Edge 18, Type (0, 0), BuildingBlock: OJICUG_clean_linker_0, # of connection points: 2
#     Edge 19, Type (0, 0), BuildingBlock: OJICUG_clean_linker_0, # of connection points: 2
#     Edge 20, Type (0, 0), BuildingBlock: OJICUG_clean_linker_0, # of connection points: 2
#     Edge 21, Type (0, 0), BuildingBlock: OJICUG_clean_linker_0, # of connection points: 2
#     Edge 22, Type (0, 0), BuildingBlock: OJICUG_clean_linker_0, # of connection points: 2
#     Edge 23, Type (0, 0), BuildingBlock: OJICUG_clean_linker_0, # of connection points: 2
#     Edge 24, Type (0, 0), BuildingBlock: OJICUG_clean_linker_0, # of connection points: 2
#     Edge 25, Type (0, 0), BuildingBlock: OJICUG_clean_linker_0, # of connection points: 2
#     Edge 26, Type (0, 0), BuildingBlock: OJICUG_clean_linker_0, # of connection points: 2
#     Edge 27, Type (0, 0), BuildingBlock: OJICUG_clean_linker_0, # of connection points: 2
#     Edge 28, Type (0, 0), BuildingBlock: OJICUG_clean_linker_0, # of connection points: 2
#     Edge 29, Type (0, 0), BuildingBlock: OJICUG_clean_linker_0, # of connection points: 2
#     Edge 30, Type (0, 0), BuildingBlock: OJICUG_clean_linker_0, # of connection points: 2
#     Edge 31, Type (0, 0), BuildingBlock: OJICUG_clean_linker_0, # of connection points: 2
#     Edge 32, Type (0, 0), BuildingBlock: OJICUG_clean_linker_0, # of connection points: 2
#     Edge 33, Type (0, 0), BuildingBlock: OJICUG_clean_linker_0, # of connection points: 2
#     Edge 34, Type (0, 0), BuildingBlock: OJICUG_clean_linker_0, # of connection points: 2
#     Edge 35, Type (0, 0), BuildingBlock: OJICUG_clean_linker_0, # of connection points: 2
#     Edge 36, Type (0, 0), BuildingBlock: OJICUG_clean_linker_0, # of connection points: 2
#     Edge 37, Type (0, 0), BuildingBlock: OJICUG_clean_linker_0, # of connection points: 2
#     Edge 38, Type (0, 0), BuildingBlock: OJICUG_clean_linker_0, # of connection points: 2
#     Edge 39, Type (0, 0), BuildingBlock: OJICUG_clean_linker_0, # of connection points: 2
#     Edge 40, Type (0, 0), BuildingBlock: OJICUG_clean_linker_0, # of connection points: 2
#     Edge 41, Type (0, 0), BuildingBlock: OJICUG_clean_linker_0, # of connection points: 2
#     Edge 42, Type (0, 0), BuildingBlock: OJICUG_clean_linker_0, # of connection points: 2
#     Edge 43, Type (0, 0), BuildingBlock: OJICUG_clean_linker_0, # of connection points: 2
#     Edge 44, Type (0, 0), BuildingBlock: OJICUG_clean_linker_0, # of connection points: 2
#     Edge 45, Type (0, 0), BuildingBlock: OJICUG_clean_linker_0, # of connection points: 2
#     Edge 46, Type (0, 0), BuildingBlock: OJICUG_clean_linker_0, # of connection points: 2
#     Edge 47, Type (0, 0), BuildingBlock: OJICUG_clean_linker_0, # of connection points: 2
#     Edge 48, Type (0, 0), BuildingBlock: OJICUG_clean_linker_0, # of connection points: 2
#     Edge 49, Type (0, 0), BuildingBlock: OJICUG_clean_linker_0, # of connection points: 2
#     Edge 50, Type (0, 0), BuildingBlock: OJICUG_clean_linker_0, # of connection points: 2
#     Edge 51, Type (0, 0), BuildingBlock: OJICUG_clean_linker_0, # of connection points: 2
#     Edge 52, Type (0, 0), BuildingBlock: OJICUG_clean_linker_0, # of connection points: 2
#     Edge 53, Type (0, 0), BuildingBlock: OJICUG_clean_linker_0, # of connection points: 2
# Relax obj value: 0.111
# Max RMSD: 0.093
# Mean RMSD: 0.093
data_MOF--net-unb--node1-CEKHIL_clean_sbu_0--edge1-OJICUG_clean_linker_0
_symmetry_space_group_name_H-M    P1
_symmetry_Int_Tables_number       1
_symmetry_cell_setting            triclinic
loop_
_symmetry_equiv_pos_as_xyz
'x, y, z'
_cell_length_a     42.507173
_cell_length_b     42.538213
_cell_length_c     19.132432
_cell_angle_alpha  90.017456
_cell_angle_beta   90.00038
_cell_angle_gamma 119.98918
loop_
_atom_site_label
_atom_site_type_symbol
_atom_site_fract_x
_atom_site_fract_y
_atom_site_fract_z
_atom_type_partial_charge
Co0 Co 0.20676 0.31863 0.08021 0.0
O1 O 0.16 0.31604 0.08387 0.0
O2 O 0.16913 0.27202 0.04642 0.0
C3 C 0.2273 0.34499 0.18652 0.0
O4 O 0.24956 0.3102 0.06461 0.0
Co5 Co 0.27916 0.39242 0.08252 0.0
O6 O 0.30224 0.36306 0.05884 0.0
C7 C 0.22988 0.37144 0.96243 0.0
C8 C 0.14684 0.28429 0.05462 0.0
C9 C 0.28395 0.32864 0.05219 0.0
O10 O 0.2133 0.33855 -0.01596 0.0
O11 O 0.25392 0.39788 -0.00138 0.0
O12 O 0.20616 0.30991 0.18161 0.0
O13 O 0.23317 0.36245 0.12878 0.0
Co14 Co 0.8096 0.91357 0.08007 0.0
O15 O 0.81221 0.86945 0.0837 0.0
O16 O 0.85625 0.92257 0.04629 0.0
C17 C 0.78323 0.90774 0.18637 0.0
O18 O 0.818 0.96476 0.06451 0.0
Co19 Co 0.73572 0.91207 0.08235 0.0
O20 O 0.76507 0.96449 0.0588 0.0
C21 C 0.75675 0.88385 0.96224 0.0
C22 C 0.84397 0.88804 0.05444 0.0
C23 C 0.79951 0.98066 0.05215 0.0
O24 O 0.78966 0.90018 -0.01611 0.0
O25 O 0.73028 0.88141 -0.00159 0.0
O26 O 0.81834 0.9217 0.18149 0.0
O27 O 0.76576 0.89614 0.12861 0.0
Co28 Co 0.21461 0.92155 0.08038 0.0
O29 O 0.25873 0.96831 0.08403 0.0
O30 O 0.20554 0.95912 0.04657 0.0
C31 C 0.22046 0.90105 0.18667 0.0
O32 O 0.16341 0.87874 0.06476 0.0
Co33 Co 0.21621 0.84927 0.08266 0.0
O34 O 0.16376 0.82615 0.05898 0.0
C35 C 0.24438 0.89848 0.96256 0.0
C36 C 0.24009 0.98142 0.05475 0.0
C37 C 0.14754 0.84437 0.05233 0.0
O38 O 0.22803 0.91502 -0.01579 0.0
O39 O 0.24686 0.8745 -0.00127 0.0
O40 O 0.20647 0.92216 0.18178 0.0
O41 O 0.23209 0.89521 0.12893 0.0
Co42 Co 0.34423 0.18046 0.88738 0.0
O43 O 0.34151 0.13367 0.88364 0.0
O44 O 0.29756 0.14292 0.92118 0.0
C45 C 0.37058 0.20098 0.78109 0.0
O46 O 0.33594 0.22332 0.90308 0.0
Co47 Co 0.4182 0.25268 0.88513 0.0
O48 O 0.38894 0.27586 0.90884 0.0
C49 C 0.39709 0.20345 0.00522 0.0
C50 C 0.30976 0.1206 0.91295 0.0
C51 C 0.3545 0.25768 0.91551 0.0
O52 O 0.36418 0.18693 0.98354 0.0
O53 O 0.42358 0.22742 0.96906 0.0
O54 O 0.33547 0.1799 0.78598 0.0
O55 O 0.38806 0.20677 0.83881 0.0
Co56 Co 0.94749 0.18918 0.8877 0.0
O57 O 0.99427 0.23328 0.88403 0.0
O58 O 0.98511 0.18014 0.92145 0.0
C59 C 0.92694 0.19501 0.78143 0.0
O60 O 0.90467 0.13801 0.90331 0.0
Co61 Co 0.87514 0.19073 0.88549 0.0
O62 O 0.85203 0.13832 0.90912 0.0
C63 C 0.92443 0.21894 0.00557 0.0
C64 C 1.00741 0.21466 0.91326 0.0
C65 C 0.87028 0.12213 0.91574 0.0
O66 O 0.94099 0.2026 -0.0161 0.0
O67 O 0.90041 0.22139 0.96942 0.0
O68 O 0.94807 0.18103 0.78629 0.0
O69 O 0.9211 0.20663 0.83918 0.0
Co70 Co 0.93899 0.7838 0.88732 0.0
O71 O 0.89488 0.7865 0.8836 0.0
O72 O 0.94807 0.83044 0.92112 0.0
C73 C 0.93317 0.75745 0.78101 0.0
O74 O 0.99018 0.79213 0.90299 0.0
Co75 Co 0.93741 0.70994 0.88502 0.0
O76 O 0.98985 0.73921 0.90882 0.0
C77 C 0.90919 0.73099 0.00511 0.0
C78 C 0.91353 0.81824 0.91289 0.0
C79 C 1.00605 0.77363 0.91547 0.0
O80 O 0.92553 0.76387 0.98348 0.0
O81 O 0.90673 0.70453 0.96892 0.0
O82 O 0.94717 0.79254 0.78592 0.0
O83 O 0.92152 0.73999 0.83873 0.0
Co84 Co 0.87275 0.65191 0.41329 0.0
O85 O 0.82592 0.64917 0.41704 0.0
O86 O 0.8352 0.60525 0.37951 0.0
C87 C 0.89332 0.67827 0.51959 0.0
O88 O 0.91563 0.64363 0.3976 0.0
Co89 Co 0.94503 0.72582 0.41557 0.0
O90 O 0.96822 0.69658 0.39179 0.0
C91 C 0.89578 0.7047 0.29541 0.0
C92 C 0.81284 0.61743 0.38777 0.0
C93 C 0.95001 0.66216 0.38514 0.0
O94 O 0.87921 0.67182 0.31711 0.0
O95 O 0.91977 0.73117 0.33158 0.0
O96 O 0.87222 0.64318 0.51469 0.0
O97 O 0.89909 0.69573 0.46187 0.0
Co98 Co 0.47616 0.24634 0.41345 0.0
O99 O 0.47892 0.2023 0.4172 0.0
O100 O 0.52285 0.25546 0.37969 0.0
C101 C 0.44979 0.24054 0.51973 0.0
O102 O 0.48442 0.29746 0.39774 0.0
Co103 Co 0.40216 0.24461 0.41565 0.0
O104 O 0.4314 0.29702 0.39193 0.0
C105 C 0.42333 0.21651 0.29555 0.0
C106 C 0.51067 0.22095 0.38794 0.0
C107 C 0.46585 0.31326 0.38528 0.0
O108 O 0.45623 0.23286 0.31727 0.0
O109 O 0.39683 0.214 0.33169 0.0
O110 O 0.4849 0.25456 0.51485 0.0
O111 O 0.43231 0.22885 0.462 0.0
Co112 Co 0.88185 0.25549 0.41379 0.0
O113 O 0.92591 0.3023 0.41749 0.0
O114 O 0.87268 0.29298 0.37998 0.0
C115 C 0.8877 0.23498 0.52009 0.0
O116 O 0.83071 0.2126 0.39813 0.0
Co117 Co 0.88365 0.18329 0.4161 0.0
O118 O 0.83119 0.16007 0.3924 0.0
C119 C 0.91167 0.23245 0.29591 0.0
C120 C 0.90721 0.31534 0.38819 0.0
C121 C 0.81491 0.17824 0.38571 0.0
O122 O 0.89532 0.249 0.31762 0.0
O123 O 0.91422 0.20851 0.33208 0.0
O124 O 0.87366 0.25605 0.5152 0.0
O125 O 0.8994 0.2292 0.46237 0.0
Co126 Co 1.01087 0.51437 0.22064 0.0
O127 O 1.00833 0.46767 0.21708 0.0
O128 O 0.96424 0.47675 0.25446 0.0
C129 C 1.03722 0.53488 0.11435 0.0
O130 O 1.00241 0.55713 0.23614 0.0
Co131 Co 0.08473 0.58674 0.21826 0.0
O132 O 1.05532 0.60978 0.24178 0.0
C133 C 1.06371 0.53763 0.33852 0.0
C134 C 0.97656 0.45451 0.24635 0.0
C135 C 1.02088 0.59151 0.24846 0.0
O136 O 1.03081 0.52099 0.31682 0.0
O137 O 0.09017 0.56162 0.30234 0.0
O138 O 1.00212 0.51371 0.11921 0.0
O139 O 1.0547 0.54076 0.17209 0.0
Co140 Co 0.61348 0.52185 0.22076 0.0
O141 O 0.66019 0.56603 0.21717 0.0
O142 O 0.65118 0.51293 0.25452 0.0
C143 C 0.59292 0.52767 0.11448 0.0
O144 O 0.57073 0.47063 0.23627 0.0
Co145 Co 0.54102 0.5232 0.21847 0.0
O146 O 0.51802 0.47079 0.24203 0.0
C147 C 0.59025 0.55143 0.33865 0.0
C148 C 0.67341 0.54747 0.24639 0.0
C149 C 0.53634 0.45468 0.24866 0.0
O150 O 0.60689 0.53518 0.31696 0.0
O151 O 0.5662 0.55384 0.30248 0.0
O152 O 0.61412 0.51377 0.11934 0.0
O153 O 0.58702 0.53923 0.17225 0.0
Co154 Co 0.60621 0.11717 0.22092 0.0
O155 O 0.56201 0.11971 0.21728 0.0
O156 O 0.61515 0.16377 0.25471 0.0
C157 C 0.60041 0.09082 0.11463 0.0
O158 O 0.65745 0.12565 0.2365 0.0
Co159 Co 0.60484 1.0434 0.2186 0.0
O160 O 0.65728 0.0728 0.24227 0.0
C161 C 0.57662 0.06439 0.33879 0.0
C162 C 0.58059 0.15147 0.24653 0.0
C163 C 0.67341 0.10722 0.24892 0.0
O164 O 0.59285 0.09726 0.31711 0.0
O165 O 0.57421 1.03795 0.30261 0.0
O166 O 0.61432 0.12589 0.11951 0.0
O167 O 0.58882 0.07336 0.17237 0.0
Co168 Co 0.54021 0.98526 0.74696 0.0
O169 O 0.49346 0.98269 0.7506 0.0
O170 O 0.50256 0.93866 0.71316 0.0
C171 C 0.56077 1.01161 0.85326 0.0
O172 O 0.58299 0.97681 0.73137 0.0
Co173 Co 0.61262 0.05906 0.74931 0.0
O174 O 0.63568 1.02968 0.72562 0.0
C175 C 0.56341 1.03805 0.6291 0.0
C176 C 0.48029 0.95094 0.72134 0.0
C177 C 0.61738 0.99526 0.71896 0.0
O178 O 0.54677 1.00518 0.65078 0.0
O179 O 0.58744 0.06449 0.66529 0.0
O180 O 0.5396 0.97654 0.84837 0.0
O181 O 0.56664 1.02907 0.79552 0.0
Co182 Co 0.14286 0.58044 0.74679 0.0
O183 O 0.14542 0.53628 0.75037 0.0
O184 O 0.1895 0.5894 0.71303 0.0
C185 C 0.11648 0.57461 0.85306 0.0
O186 O 0.15132 0.63164 0.73128 0.0
Co187 Co 1.06901 0.57901 0.7491 0.0
O188 O 0.09841 0.63143 0.72555 0.0
C189 C 0.09005 0.55087 0.62887 0.0
C190 C 0.17719 0.55486 0.72115 0.0
C191 C 0.13285 0.64757 0.71891 0.0
O192 O 0.12294 0.56711 0.65059 0.0
O193 O 1.06358 0.54843 0.66504 0.0
O194 O 0.15159 0.58853 0.84822 0.0
O195 O 0.09902 0.56304 0.7953 0.0
Co196 Co 0.54784 0.58818 0.74692 0.0
O197 O 0.592 0.6349 0.75052 0.0
O198 O 0.53882 0.62578 0.71311 0.0
C199 C 0.55367 0.56765 0.8532 0.0
O200 O 0.49663 0.54539 0.73137 0.0
Co201 Co 0.54937 0.51584 0.74927 0.0
O202 O 0.49691 0.49277 0.72571 0.0
C203 C 0.57744 0.56494 0.62899 0.0
C204 C 0.57338 0.64804 0.72125 0.0
C205 C 0.48072 0.51102 0.71903 0.0
O206 O 0.56119 0.58159 0.65072 0.0
O207 O 0.57992 0.54096 0.66516 0.0
O208 O 0.53973 0.58881 0.84833 0.0
O209 O 0.56529 0.5618 0.79546 0.0
Co210 Co 0.67763 0.84711 0.55397 0.0
O211 O 0.67491 0.80032 0.55026 0.0
O212 O 0.63096 0.80958 0.58776 0.0
C213 C 0.704 0.86765 0.44769 0.0
O214 O 0.66935 0.88997 0.56965 0.0
Co215 Co 0.75163 0.91934 0.5517 0.0
O216 O 0.72236 0.94252 0.57541 0.0
C217 C 0.73047 0.87018 0.6719 0.0
C218 C 0.64316 0.78725 0.57954 0.0
C219 C 0.68791 0.92433 0.58209 0.0
O220 O 0.69757 0.8536 0.65016 0.0
O221 O 0.75697 0.89414 0.63575 0.0
O222 O 0.66889 0.84656 0.45257 0.0
O223 O 0.72147 0.87343 0.50542 0.0
Co224 Co 0.28097 0.85597 0.55428 0.0
O225 O 0.32776 0.90004 0.5506 0.0
O226 O 0.31856 0.84689 0.58805 0.0
C227 C 0.2604 0.86177 0.448 0.0
O228 O 0.23811 0.80482 0.5699 0.0
Co229 Co 0.20865 0.85761 0.55201 0.0
O230 O 0.1855 0.8052 0.57568 0.0
C231 C 0.25787 0.88568 0.67222 0.0
C232 C 0.34088 0.88141 0.57985 0.0
C233 C 0.20373 0.78899 0.58233 0.0
O234 O 0.27447 0.86939 0.65048 0.0
O235 O 0.23387 0.88818 0.63606 0.0
O236 O 0.28152 0.84779 0.45287 0.0
O237 O 0.2546 0.87344 0.50574 0.0
Co238 Co 0.27217 0.45054 0.5542 0.0
O239 O 0.22806 0.45324 0.55048 0.0
O240 O 0.28126 0.49718 0.58798 0.0
C241 C 0.26638 0.42418 0.44791 0.0
O242 O 0.32335 0.45885 0.56987 0.0
Co243 Co 0.27055 0.37663 0.55189 0.0
O244 O 0.323 0.40591 0.57562 0.0
C245 C 0.24248 0.39776 0.67212 0.0
C246 C 0.24672 0.48499 0.57975 0.0
C247 C 0.33921 0.44033 0.5823 0.0
O248 O 0.25874 0.43063 0.65039 0.0
O249 O 0.23999 0.37129 0.63595 0.0
O250 O 0.28036 0.45926 0.4528 0.0
O251 O 0.2547 0.40672 0.50563 0.0
C252 C 0.27016 0.42266 0.31679 0.0
C253 C 0.26022 0.40429 0.38089 0.0
H254 H 0.26793 0.41827 0.2053 0.0
C255 C 0.24178 0.36599 0.38063 0.0
H256 H 0.28439 0.45204 0.31513 0.0
C257 C 0.2321 0.34652 0.31771 0.0
C258 C 0.2408 0.36489 0.25359 0.0
H259 H 0.23378 0.3509 0.4292 0.0
H260 H 0.21694 0.31713 0.31936 0.0
C261 C 0.26065 0.40318 0.25387 0.0
C262 C 0.76222 0.90123 0.38046 0.0
C263 C 0.7239 0.88137 0.38069 0.0
H264 H 0.81111 0.92525 0.31924 0.0
C265 C 0.70551 0.87292 0.31657 0.0
H266 H 0.77732 0.90832 0.42904 0.0
C267 C 0.725 0.88288 0.25367 0.0
C268 C 0.76332 0.90134 0.25343 0.0
H269 H 0.67611 0.85776 0.31489 0.0
H270 H 0.7099 0.87507 0.20508 0.0
C271 C 0.78171 0.91102 0.31756 0.0
C272 C 0.22683 0.88643 0.38076 0.0
C273 C 0.24671 0.86799 0.38099 0.0
H274 H 0.20285 0.91132 0.31953 0.0
C275 C 0.25521 0.85811 0.31686 0.0
H276 H 0.21969 0.89439 0.42934 0.0
C277 C 0.2453 0.86767 0.25396 0.0
C278 C 0.22683 0.88752 0.25372 0.0
H279 H 0.27038 0.84388 0.31518 0.0
H280 H 0.25315 0.86043 0.20538 0.0
C281 C 0.21709 0.89617 0.31785 0.0
C282 C 0.44828 0.2441 0.65088 0.0
C283 C 0.42988 0.23427 0.58676 0.0
H284 H 0.4439 0.24165 0.76237 0.0
C285 C 0.39156 0.21581 0.58701 0.0
H286 H 0.47768 0.25833 0.65255 0.0
C287 C 0.37208 0.206 0.64992 0.0
C288 C 0.39048 0.21458 0.71405 0.0
H289 H 0.37645 0.20789 0.53843 0.0
H290 H 0.34267 0.19083 0.64826 0.0
C291 C 0.4288 0.23445 0.71379 0.0
C292 C 0.91234 0.20142 0.58734 0.0
C293 C 0.8939 0.22129 0.5871 0.0
H294 H 0.93723 0.17743 0.64857 0.0
C295 C 0.884 0.22978 0.65123 0.0
H296 H 0.92032 0.1943 0.53876 0.0
C297 C 0.89355 0.21985 0.71413 0.0
C298 C 0.9134 0.20138 0.71438 0.0
H299 H 0.86977 0.24494 0.6529 0.0
H300 H 0.8863 0.22769 0.76272 0.0
C301 C 0.92207 0.19166 0.65024 0.0
C302 C 0.93658 0.75593 0.64982 0.0
C303 C 0.92683 0.73756 0.71394 0.0
H304 H 0.93399 0.75155 0.53833 0.0
C305 C 0.90838 0.69926 0.71366 0.0
H306 H 0.9508 0.78531 0.64818 0.0
C307 C 0.89848 0.67979 0.65073 0.0
C308 C 0.90699 0.69817 0.58662 0.0
H309 H 0.90052 0.68417 0.76222 0.0
H310 H 0.88332 0.65041 0.65238 0.0
C311 C 0.92686 0.73646 0.5869 0.0
C312 C 1.03874 0.53995 0.98319 0.0
C313 C 1.05713 0.54851 0.04733 0.0
H314 H 1.04315 0.54193 0.87171 0.0
C315 C 0.09545 0.56839 0.04711 0.0
H316 H 1.00934 0.52478 0.9815 0.0
C317 C 0.11495 0.57807 -0.01578 0.0
C318 C 0.09656 0.56829 0.92009 0.0
H319 H 0.11054 0.57556 0.0957 0.0
H320 H 0.14435 0.59232 -0.01409 0.0
C321 C 1.05824 0.54982 0.9203 0.0
C322 C 0.58805 0.52433 0.98331 0.0
C323 C 0.57939 0.53405 0.04744 0.0
H324 H 0.58628 0.52696 0.87183 0.0
C325 C 0.55954 0.55252 0.04722 0.0
H326 H 0.6032 0.51009 0.98162 0.0
C327 C 0.54998 0.56245 -0.01567 0.0
C328 C 0.55988 0.55396 0.9202 0.0
H329 H 0.55229 0.56036 0.09581 0.0
H330 H 0.53576 0.57762 -0.01398 0.0
C331 C 0.57831 0.53408 0.92041 0.0
C332 C 0.57567 1.03262 0.04733 0.0
C333 C 0.59412 0.07092 0.04759 0.0
H334 H 0.55067 0.98376 -0.01392 0.0
C335 C 0.60392 0.08929 0.98347 0.0
H336 H 0.56777 1.01754 0.0959 0.0
C337 C 0.59426 0.06981 0.92056 0.0
C338 C 0.5744 1.03151 0.9203 0.0
H339 H 0.61815 0.11867 0.98181 0.0
H340 H 0.60144 0.08489 0.87198 0.0
C341 C 0.56583 1.01314 -0.01558 0.0
C342 C 0.20796 0.34902 0.8423 0.0
C343 C 0.2248 0.37822 0.88931 0.0
H344 H 0.20023 0.33239 0.73549 0.0
C345 C 0.24083 0.41388 0.86402 0.0
H346 H 0.1947 0.32116 0.86036 0.0
C347 C 0.24368 0.42027 0.79244 0.0
C348 C 0.23088 0.39105 0.74539 0.0
H349 H 0.25323 0.4369 0.89924 0.0
H350 H 0.25838 0.44812 0.77437 0.0
C351 C 0.21116 0.35541 0.77072 0.0
C352 C 0.77284 0.88123 0.77056 0.0
C353 C 0.73717 0.86528 0.74517 0.0
H354 H 0.80709 0.899 0.86025 0.0
C355 C 0.70792 0.84884 0.79217 0.0
H356 H 0.79588 0.89333 0.73536 0.0
C357 C 0.7143 0.85236 0.86376 0.0
C358 C 0.74999 0.872 0.88911 0.0
H359 H 0.68006 0.83567 0.77405 0.0
H360 H 0.69127 0.84173 0.89894 0.0
C361 C 0.77922 0.88439 0.84215 0.0
C362 C 0.27586 0.88751 0.86406 0.0
C363 C 0.2562 0.90353 0.88941 0.0
H364 H 0.29252 0.86993 0.77435 0.0
C365 C 0.24373 0.92028 0.84244 0.0
H366 H 0.28655 0.87517 0.89924 0.0
C367 C 0.24684 0.91702 0.77085 0.0
C368 C 0.26281 0.89732 0.74547 0.0
H369 H 0.2291 0.93352 0.86054 0.0
H370 H 0.23468 0.92789 0.73565 0.0
C371 C 0.27933 0.88461 0.79247 0.0
C372 C 0.38095 0.18509 0.19696 0.0
C373 C 0.41662 0.20478 0.22235 0.0
H374 H 0.34671 0.16852 0.10724 0.0
C375 C 0.44587 0.2174 0.17537 0.0
H376 H 0.35791 0.17428 0.23214 0.0
C377 C 0.4395 0.21442 0.10378 0.0
C378 C 0.40382 0.19842 0.0784 0.0
H379 H 0.47374 0.23206 0.1935 0.0
H380 H 0.46254 0.22669 0.0686 0.0
C381 C 0.37458 0.18174 0.12536 0.0
C382 C 0.94627 0.2183 0.12569 0.0
C383 C 0.9295 0.23076 0.07872 0.0
H384 H 0.9539 0.20926 0.23248 0.0
C385 C 0.9135 0.25042 0.10408 0.0
H386 H 0.95951 0.20367 0.10758 0.0
C387 C 0.9106 0.2539 0.17567 0.0
C388 C 0.92332 0.23739 0.22267 0.0
H389 H 0.90115 0.2611 0.06889 0.0
H390 H 0.89592 0.26709 0.19378 0.0
C391 C 0.94302 0.22142 0.19729 0.0
C392 C 0.90986 0.75344 0.12528 0.0
C393 C 0.89738 0.72423 0.07826 0.0
H394 H 0.91894 0.77008 0.23208 0.0
C395 C 0.87772 0.68857 0.10357 0.0
H396 H 0.92448 0.78129 0.1072 0.0
C397 C 0.87427 0.68219 0.17516 0.0
C398 C 0.89081 0.71141 0.22219 0.0
H399 H 0.86702 0.66556 0.06836 0.0
H400 H 0.86109 0.65434 0.19323 0.0
C401 C 0.90677 0.74706 0.19686 0.0
C402 C 0.10615 0.54871 0.43708 0.0
C403 C 1.07047 0.5327 0.41174 0.0
H404 H 0.14041 0.5664 0.52676 0.0
C405 C 1.04123 0.51608 0.45874 0.0
H406 H 0.12918 0.56094 0.40187 0.0
C407 C 1.04762 0.51948 0.53032 0.0
C408 C 0.0833 0.53915 0.55567 0.0
H409 H 1.01336 0.50286 0.44064 0.0
H410 H 1.02459 0.50871 0.56553 0.0
C411 C 0.11254 0.55174 0.50867 0.0
C412 C 0.57634 0.58634 0.50873 0.0
C413 C 0.58906 0.56983 0.55574 0.0
H414 H 0.56691 0.59356 0.40195 0.0
C415 C 0.60875 0.55385 0.53038 0.0
H416 H 0.56167 0.59954 0.52684 0.0
C417 C 0.61202 0.55074 0.4588 0.0
C418 C 0.59527 0.56321 0.41181 0.0
H419 H 0.61962 0.5417 0.56559 0.0
H420 H 0.62526 0.53611 0.44071 0.0
C421 C 0.57925 0.58287 0.43714 0.0
C422 C 0.54184 1.01559 0.50886 0.0
C423 C 0.55845 1.0448 0.5559 0.0
H424 H 0.53445 0.99897 0.40205 0.0
C425 C 0.57445 0.08046 0.5306 0.0
H426 H 0.52862 0.98774 0.52692 0.0
C427 C 0.57748 0.08685 0.45902 0.0
C428 C 0.56489 0.05764 0.41198 0.0
H429 H 0.58669 0.10347 0.56584 0.0
H430 H 0.59213 0.1147 0.44096 0.0
C431 C 0.54522 1.02198 0.43728 0.0
C432 C 0.3392 0.32959 0.00195 0.0
C433 C 0.30225 0.30981 0.02068 0.0
H434 H 0.38427 0.32922 0.95309 0.0
C435 C 0.28228 0.27286 0.00202 0.0
H436 H 0.3555 0.35816 0.01456 0.0
C437 C 0.29881 0.25624 0.96575 0.0
C438 C 0.33578 0.27608 0.94704 0.0
H439 H 0.25368 0.25677 0.01462 0.0
H440 H 0.28262 0.22766 0.95318 0.0
C441 C 0.35568 0.31302 0.96574 0.0
C442 C 0.81498 0.06794 0.96596 0.0
C443 C 0.85193 0.08503 0.94721 0.0
H444 H 0.76987 1.02259 0.01475 0.0
C445 C 0.87184 0.06795 0.9658 0.0
H446 H 0.79873 0.08028 0.95341 0.0
C447 C 0.85527 1.03481 0.002 0.0
C448 C 0.8183 1.01777 0.02071 0.0
H449 H 0.90044 0.08039 0.95318 0.0
H450 H 0.87141 1.02235 0.0145 0.0
C451 C 0.79845 1.03489 0.0021 0.0
C452 C 1.06026 0.77255 0.96587 0.0
C453 C 1.04317 0.79239 0.94706 0.0
H454 H 0.10563 0.77283 0.01482 0.0
C455 C 1.06023 0.82935 0.9657 0.0
H456 H 1.04793 0.74398 0.95327 0.0
C457 C 0.09337 0.84592 0.00201 0.0
C458 C 0.11042 0.82602 0.02078 0.0
H459 H 1.04779 0.84549 0.95304 0.0
H460 H 0.10582 0.87451 0.01456 0.0
C461 C 0.09331 0.78908 0.00212 0.0
C462 C 0.91574 0.87355 0.96539 0.0
C463 C 0.89556 0.83679 0.94589 0.0
H464 H 0.9153 0.91864 0.01497 0.0
C465 C 0.85868 0.81685 0.96469 0.0
H466 H 0.94429 0.88954 0.95233 0.0
C467 C 0.84243 0.83317 0.00255 0.0
C468 C 0.86246 0.87002 0.02138 0.0
H469 H 0.84251 0.78834 0.95151 0.0
H470 H 0.81389 0.81706 0.01572 0.0
C471 C 0.89924 0.89011 0.00189 0.0
C472 C 0.29494 1.03471 0.00277 0.0
C473 C 0.25808 1.01788 0.02165 0.0
H474 H 0.33975 0.07958 0.95162 0.0
C475 C 0.23794 1.03452 0.00215 0.0
H476 H 0.31109 1.02233 0.01594 0.0
C477 C 0.25446 0.06753 0.96558 0.0
C478 C 0.29123 0.08412 0.94603 0.0
H479 H 0.20939 1.02203 0.01526 0.0
H480 H 0.23843 0.08005 0.95252 0.0
C481 C 0.31122 0.06724 0.96484 0.0
C482 C 1.06084 0.2695 0.96503 0.0
C483 C 1.04394 0.23264 0.94624 0.0
H484 H 0.10583 0.31429 0.016 0.0
C485 C 1.06058 0.2125 0.96571 0.0
H486 H 1.04846 0.28564 0.95188 0.0
C487 C 0.09366 0.22903 0.00216 0.0
C488 C 0.11032 0.26579 0.02163 0.0
H489 H 1.04805 0.18396 0.95266 0.0
H490 H 0.10618 0.213 0.01522 0.0
C491 C 0.09343 0.28578 0.00285 0.0
C492 C 1.00532 0.6633 0.33471 0.0
C493 C 0.96839 0.64342 0.35357 0.0
H494 H 1.05044 0.66307 0.28577 0.0
C495 C 0.94852 0.60645 0.33501 0.0
H496 H 1.02155 0.69188 0.34724 0.0
C497 C 0.96511 0.5899 0.29874 0.0
C498 C 1.00206 0.60983 0.27993 0.0
H499 H 0.91994 0.59028 0.34771 0.0
H500 H 0.949 0.5613 0.28627 0.0
C501 C 1.02187 0.64679 0.2985 0.0
C502 C 0.53805 0.40061 0.29886 0.0
C503 C 0.51806 0.41757 0.28013 0.0
H504 H 0.53774 0.35511 0.34774 0.0
C505 C 0.48109 0.4004 0.29877 0.0
H506 H 0.56666 0.41311 0.28633 0.0
C507 C 0.46462 0.36736 0.33497 0.0
C508 C 0.48455 0.35036 0.35374 0.0
H509 H 0.46477 0.41265 0.2861 0.0
H510 H 0.43602 0.35498 0.34755 0.0
C511 C 0.52154 0.36748 0.33511 0.0
C512 C 0.72751 0.16301 0.29915 0.0
C513 C 0.71053 0.12606 0.28046 0.0
H514 H 0.77303 0.20822 0.34803 0.0
C515 C 0.72772 0.1063 0.2992 0.0
H516 H 0.715 0.17909 0.28654 0.0
C517 C 0.76077 0.12289 0.33544 0.0
C518 C 0.77779 0.15982 0.35416 0.0
H519 H 0.71546 0.07774 0.28657 0.0
H520 H 0.77316 0.1067 0.34809 0.0
C521 C 0.76065 0.17964 0.33545 0.0
C522 C 0.58262 0.2067 0.299 0.0
C523 C 0.56254 0.16993 0.27954 0.0
H524 H 0.58202 0.25173 0.3485 0.0
C525 C 0.52567 0.1499 0.29836 0.0
H526 H 0.61117 0.22276 0.28592 0.0
C527 C 0.50932 0.16615 0.33619 0.0
C528 C 0.52926 0.20301 0.35496 0.0
H529 H 0.50956 0.12138 0.28521 0.0
H530 H 0.4808 0.14997 0.34936 0.0
C531 C 0.56603 0.22318 0.33546 0.0
C532 C 0.9049 0.36835 0.33557 0.0
C533 C 0.92512 0.35181 0.35512 0.0
H534 H 0.90525 0.4138 0.28588 0.0
C535 C 0.962 0.36875 0.33629 0.0
H536 H 0.87634 0.35579 0.34864 0.0
C537 C 0.97821 0.40127 0.29836 0.0
C538 C 0.95813 0.41805 0.27948 0.0
H539 H 0.97822 0.35645 0.34951 0.0
H540 H 1.00674 0.4137 0.28518 0.0
C541 C 0.92135 0.40136 0.29899 0.0
C542 C 0.72666 0.54548 0.29886 0.0
C543 C 0.70993 0.56553 0.27941 0.0
H544 H 0.77234 0.54612 0.34834 0.0
C545 C 0.72673 0.60238 0.29824 0.0
H546 H 0.71421 0.51695 0.28578 0.0
C547 C 0.75932 0.61873 0.33606 0.0
C548 C 0.7763 0.59883 0.35481 0.0
H549 H 0.71427 0.61846 0.2851 0.0
H550 H 0.77164 0.64724 0.34924 0.0
C551 C 0.75974 0.56208 0.33532 0.0
C552 C 0.68911 0.97965 0.6324 0.0
C553 C 0.6692 0.94273 0.61366 0.0
H554 H 0.68893 1.02478 0.68131 0.0
C555 C 0.63223 0.92288 0.63237 0.0
H556 H 0.71769 0.99586 0.61976 0.0
C557 C 0.61571 0.93949 0.66869 0.0
C558 C 0.63568 0.97644 0.6874 0.0
H559 H 0.61603 0.89431 0.61977 0.0
H560 H 0.58711 0.9234 0.68129 0.0
C561 C 0.67263 0.99622 0.66867 0.0
C562 C 0.1484 0.73485 0.6326 0.0
C563 C 0.18535 0.75189 0.61384 0.0
H564 H 0.10327 0.68954 0.68145 0.0
C565 C 0.20523 0.7348 0.63248 0.0
H566 H 0.13217 0.74721 0.62001 0.0
C567 C 0.18863 0.70167 0.66873 0.0
C568 C 0.15167 0.68467 0.68744 0.0
H569 H 0.23383 0.7472 0.61986 0.0
H570 H 0.20476 0.68919 0.68126 0.0
C571 C 0.13185 0.70182 0.66879 0.0
C572 C 0.42656 0.5126 0.66875 0.0
C573 C 0.44359 0.49268 0.68753 0.0
H574 H 0.38099 0.5122 0.61979 0.0
C575 C 0.42646 0.45574 0.66891 0.0
H576 H 0.43903 0.5412 0.68126 0.0
C577 C 0.3934 0.43922 0.63268 0.0
C578 C 0.37633 0.45908 0.61386 0.0
H579 H 0.43876 0.43947 0.68163 0.0
H580 H 0.38105 0.41064 0.62013 0.0
C581 C 0.39342 0.49604 0.63246 0.0
C582 C 0.24895 0.54031 0.63221 0.0
C583 C 0.22876 0.50355 0.61271 0.0
H584 H 0.24853 0.58542 0.68176 0.0
C585 C 0.19187 0.48364 0.63146 0.0
H586 H 0.27751 0.55629 0.61918 0.0
C587 C 0.17562 0.49997 0.66928 0.0
C588 C 0.19567 0.53682 0.68812 0.0
H589 H 0.17569 0.45513 0.61828 0.0
H590 H 0.14708 0.48388 0.68242 0.0
C591 C 0.23245 0.55689 0.66867 0.0
C592 C 0.62826 0.70133 0.6693 0.0
C593 C 0.5914 0.68451 0.68816 0.0
H594 H 0.6731 0.74619 0.6182 0.0
C595 C 0.57128 0.70117 0.66866 0.0
H596 H 0.64439 0.68893 0.68247 0.0
C597 C 0.58784 0.7342 0.63212 0.0
C598 C 0.62461 0.75077 0.61259 0.0
H599 H 0.54274 0.68871 0.68176 0.0
H600 H 0.57182 0.74674 0.61906 0.0
C601 C 0.64457 0.73386 0.6314 0.0
C602 C 0.39432 0.93622 0.63166 0.0
C603 C 0.37741 0.89936 0.61286 0.0
H604 H 0.43932 0.98099 0.68267 0.0
C605 C 0.39402 0.87921 0.63235 0.0
H606 H 0.38197 0.95238 0.61849 0.0
C607 C 0.42709 0.8957 0.66883 0.0
C608 C 0.44377 0.93247 0.68831 0.0
H609 H 0.38147 0.85067 0.61929 0.0
H610 H 0.43959 0.87966 0.6819 0.0
C611 C 0.42691 0.95248 0.66951 0.0
loop_
_geom_bond_atom_site_label_1
_geom_bond_atom_site_label_2
_geom_bond_distance
_geom_bond_site_symmetry_2
_ccdc_geom_bond_type
Co0 O1 2.216 . S
Co0 O2 2.091 . S
Co0 O4 2.004 . S
Co0 O10 2.021 1_554 S
Co0 O12 2.137 . S
Co0 O13 2.244 . S
O1 Co0 2.216 . S
O1 C8 1.247 . S
O2 Co0 2.091 . S
O2 C8 1.261 . S
C3 O12 1.247 . S
C3 O13 1.272 . S
O4 Co0 2.004 . S
O4 C9 1.259 . S
Co5 O6 2.061 . S
Co5 O11 2.052 1_554 S
Co5 O13 2.135 . S
O6 Co5 2.061 . S
O6 C9 1.235 . S
C7 O10 1.238 . S
C7 O11 1.241 . S
C8 O1 1.247 . S
C8 O2 1.261 . S
C9 O4 1.259 . S
C9 O6 1.235 . S
O10 Co0 2.021 1_556 S
O10 C7 1.238 . S
O11 Co5 2.052 1_556 S
O11 C7 1.241 . S
O12 Co0 2.137 . S
O12 C3 1.247 . S
O13 Co0 2.244 . S
O13 C3 1.272 . S
O13 Co5 2.135 . S
Co14 O15 2.216 . S
Co14 O16 2.091 . S
Co14 O18 2.004 . S
Co14 O24 2.021 1_554 S
Co14 O26 2.137 . S
Co14 O27 2.244 . S
O15 Co14 2.216 . S
O15 C22 1.247 . S
O16 Co14 2.091 . S
O16 C22 1.261 . S
C17 O26 1.247 . S
C17 O27 1.272 . S
O18 Co14 2.004 . S
O18 C23 1.259 . S
Co19 O20 2.061 . S
Co19 O25 2.052 1_554 S
Co19 O27 2.135 . S
O20 Co19 2.061 . S
O20 C23 1.235 . S
C21 O24 1.238 . S
C21 O25 1.241 . S
C22 O15 1.247 . S
C22 O16 1.261 . S
C23 O18 1.259 . S
C23 O20 1.235 . S
O24 Co14 2.021 1_556 S
O24 C21 1.238 . S
O25 Co19 2.052 1_556 S
O25 C21 1.241 . S
O26 Co14 2.137 . S
O26 C17 1.247 . S
O27 Co14 2.244 . S
O27 C17 1.272 . S
O27 Co19 2.135 . S
Co28 O29 2.216 . S
Co28 O30 2.091 . S
Co28 O32 2.004 . S
Co28 O38 2.021 1_554 S
Co28 O40 2.137 . S
Co28 O41 2.244 . S
O29 Co28 2.216 . S
O29 C36 1.247 . S
O30 Co28 2.091 . S
O30 C36 1.261 . S
C31 O40 1.247 . S
C31 O41 1.272 . S
O32 Co28 2.004 . S
O32 C37 1.259 . S
Co33 O34 2.061 . S
Co33 O39 2.052 1_554 S
Co33 O41 2.135 . S
O34 Co33 2.061 . S
O34 C37 1.235 . S
C35 O38 1.238 . S
C35 O39 1.241 . S
C36 O29 1.247 . S
C36 O30 1.261 . S
C37 O32 1.259 . S
C37 O34 1.235 . S
O38 Co28 2.021 1_556 S
O38 C35 1.238 . S
O39 Co33 2.052 1_556 S
O39 C35 1.241 . S
O40 Co28 2.137 . S
O40 C31 1.247 . S
O41 Co28 2.244 . S
O41 C31 1.272 . S
O41 Co33 2.135 . S
Co42 O43 2.216 . S
Co42 O44 2.091 . S
Co42 O46 2.004 . S
Co42 O52 2.021 1_556 S
Co42 O54 2.137 . S
Co42 O55 2.244 . S
O43 Co42 2.216 . S
O43 C50 1.247 . S
O44 Co42 2.091 . S
O44 C50 1.261 . S
C45 O54 1.247 . S
C45 O55 1.272 . S
O46 Co42 2.004 . S
O46 C51 1.259 . S
Co47 O48 2.061 . S
Co47 O53 2.052 1_556 S
Co47 O55 2.135 . S
O48 Co47 2.061 . S
O48 C51 1.235 . S
C49 O52 1.238 . S
C49 O53 1.241 . S
C50 O43 1.247 . S
C50 O44 1.261 . S
C51 O46 1.259 . S
C51 O48 1.235 . S
O52 Co42 2.021 1_554 S
O52 C49 1.238 . S
O53 Co47 2.052 1_554 S
O53 C49 1.241 . S
O54 Co42 2.137 . S
O54 C45 1.247 . S
O55 Co42 2.244 . S
O55 C45 1.272 . S
O55 Co47 2.135 . S
Co56 O57 2.216 . S
Co56 O58 2.091 . S
Co56 O60 2.004 . S
Co56 O66 2.021 1_556 S
Co56 O68 2.137 . S
Co56 O69 2.244 . S
O57 Co56 2.216 . S
O57 C64 1.247 . S
O58 Co56 2.091 . S
O58 C64 1.261 . S
C59 O68 1.247 . S
C59 O69 1.272 . S
O60 Co56 2.004 . S
O60 C65 1.259 . S
Co61 O62 2.061 . S
Co61 O67 2.052 1_556 S
Co61 O69 2.135 . S
O62 Co61 2.061 . S
O62 C65 1.235 . S
C63 O66 1.238 . S
C63 O67 1.241 . S
C64 O57 1.247 . S
C64 O58 1.261 . S
C65 O60 1.259 . S
C65 O62 1.235 . S
O66 Co56 2.021 1_554 S
O66 C63 1.238 . S
O67 Co61 2.052 1_554 S
O67 C63 1.241 . S
O68 Co56 2.137 . S
O68 C59 1.247 . S
O69 Co56 2.244 . S
O69 C59 1.272 . S
O69 Co61 2.135 . S
Co70 O71 2.216 . S
Co70 O72 2.091 . S
Co70 O74 2.004 . S
Co70 O80 2.021 1_556 S
Co70 O82 2.137 . S
Co70 O83 2.244 . S
O71 Co70 2.216 . S
O71 C78 1.247 . S
O72 Co70 2.091 . S
O72 C78 1.261 . S
C73 O82 1.247 . S
C73 O83 1.272 . S
O74 Co70 2.004 . S
O74 C79 1.259 . S
Co75 O76 2.061 . S
Co75 O81 2.052 1_556 S
Co75 O83 2.135 . S
O76 Co75 2.061 . S
O76 C79 1.235 . S
C77 O80 1.238 . S
C77 O81 1.241 . S
C78 O71 1.247 . S
C78 O72 1.261 . S
C79 O74 1.259 . S
C79 O76 1.235 . S
O80 Co70 2.021 1_554 S
O80 C77 1.238 . S
O81 Co75 2.052 1_554 S
O81 C77 1.241 . S
O82 Co70 2.137 . S
O82 C73 1.247 . S
O83 Co70 2.244 . S
O83 C73 1.272 . S
O83 Co75 2.135 . S
Co84 O85 2.216 . S
Co84 O86 2.091 . S
Co84 O88 2.004 . S
Co84 O94 2.021 . S
Co84 O96 2.137 . S
Co84 O97 2.244 . S
O85 Co84 2.216 . S
O85 C92 1.247 . S
O86 Co84 2.091 . S
O86 C92 1.261 . S
C87 O96 1.247 . S
C87 O97 1.272 . S
O88 Co84 2.004 . S
O88 C93 1.259 . S
Co89 O90 2.061 . S
Co89 O95 2.052 . S
Co89 O97 2.135 . S
O90 Co89 2.061 . S
O90 C93 1.235 . S
C91 O94 1.238 . S
C91 O95 1.241 . S
C92 O85 1.247 . S
C92 O86 1.261 . S
C93 O88 1.259 . S
C93 O90 1.235 . S
O94 Co84 2.021 . S
O94 C91 1.238 . S
O95 Co89 2.052 . S
O95 C91 1.241 . S
O96 Co84 2.137 . S
O96 C87 1.247 . S
O97 Co84 2.244 . S
O97 C87 1.272 . S
O97 Co89 2.135 . S
Co98 O99 2.216 . S
Co98 O100 2.091 . S
Co98 O102 2.004 . S
Co98 O108 2.021 . S
Co98 O110 2.137 . S
Co98 O111 2.244 . S
O99 Co98 2.216 . S
O99 C106 1.247 . S
O100 Co98 2.091 . S
O100 C106 1.261 . S
C101 O110 1.247 . S
C101 O111 1.272 . S
O102 Co98 2.004 . S
O102 C107 1.259 . S
Co103 O104 2.061 . S
Co103 O109 2.052 . S
Co103 O111 2.135 . S
O104 Co103 2.061 . S
O104 C107 1.235 . S
C105 O108 1.238 . S
C105 O109 1.241 . S
C106 O99 1.247 . S
C106 O100 1.261 . S
C107 O102 1.259 . S
C107 O104 1.235 . S
O108 Co98 2.021 . S
O108 C105 1.238 . S
O109 Co103 2.052 . S
O109 C105 1.241 . S
O110 Co98 2.137 . S
O110 C101 1.247 . S
O111 Co98 2.244 . S
O111 C101 1.272 . S
O111 Co103 2.135 . S
Co112 O113 2.216 . S
Co112 O114 2.091 . S
Co112 O116 2.004 . S
Co112 O122 2.021 . S
Co112 O124 2.137 . S
Co112 O125 2.244 . S
O113 Co112 2.216 . S
O113 C120 1.247 . S
O114 Co112 2.091 . S
O114 C120 1.261 . S
C115 O124 1.247 . S
C115 O125 1.272 . S
O116 Co112 2.004 . S
O116 C121 1.259 . S
Co117 O118 2.061 . S
Co117 O123 2.052 . S
Co117 O125 2.135 . S
O118 Co117 2.061 . S
O118 C121 1.235 . S
C119 O122 1.238 . S
C119 O123 1.241 . S
C120 O113 1.247 . S
C120 O114 1.261 . S
C121 O116 1.259 . S
C121 O118 1.235 . S
O122 Co112 2.021 . S
O122 C119 1.238 . S
O123 Co117 2.052 . S
O123 C119 1.241 . S
O124 Co112 2.137 . S
O124 C115 1.247 . S
O125 Co112 2.244 . S
O125 C115 1.272 . S
O125 Co117 2.135 . S
Co126 O127 2.216 . S
Co126 O128 2.091 . S
Co126 O130 2.004 . S
Co126 O136 2.021 . S
Co126 O138 2.137 . S
Co126 O139 2.244 . S
O127 Co126 2.216 . S
O127 C134 1.247 . S
O128 Co126 2.091 . S
O128 C134 1.261 . S
C129 O138 1.247 . S
C129 O139 1.272 . S
O130 Co126 2.004 . S
O130 C135 1.259 . S
Co131 O132 2.061 1_455 S
Co131 O137 2.052 . S
Co131 O139 2.135 1_455 S
O132 Co131 2.061 1_655 S
O132 C135 1.235 . S
C133 O136 1.238 . S
C133 O137 1.241 1_655 S
C134 O127 1.247 . S
C134 O128 1.261 . S
C135 O130 1.259 . S
C135 O132 1.235 . S
O136 Co126 2.021 . S
O136 C133 1.238 . S
O137 Co131 2.052 . S
O137 C133 1.241 1_455 S
O138 Co126 2.137 . S
O138 C129 1.247 . S
O139 Co126 2.244 . S
O139 C129 1.272 . S
O139 Co131 2.135 1_655 S
Co140 O141 2.216 . S
Co140 O142 2.091 . S
Co140 O144 2.004 . S
Co140 O150 2.021 . S
Co140 O152 2.137 . S
Co140 O153 2.244 . S
O141 Co140 2.216 . S
O141 C148 1.247 . S
O142 Co140 2.091 . S
O142 C148 1.261 . S
C143 O152 1.247 . S
C143 O153 1.272 . S
O144 Co140 2.004 . S
O144 C149 1.259 . S
Co145 O146 2.061 . S
Co145 O151 2.052 . S
Co145 O153 2.135 . S
O146 Co145 2.061 . S
O146 C149 1.235 . S
C147 O150 1.238 . S
C147 O151 1.241 . S
C148 O141 1.247 . S
C148 O142 1.261 . S
C149 O144 1.259 . S
C149 O146 1.235 . S
O150 Co140 2.021 . S
O150 C147 1.238 . S
O151 Co145 2.052 . S
O151 C147 1.241 . S
O152 Co140 2.137 . S
O152 C143 1.247 . S
O153 Co140 2.244 . S
O153 C143 1.272 . S
O153 Co145 2.135 . S
Co154 O155 2.216 . S
Co154 O156 2.091 . S
Co154 O158 2.004 . S
Co154 O164 2.021 . S
Co154 O166 2.137 . S
Co154 O167 2.244 . S
O155 Co154 2.216 . S
O155 C162 1.247 . S
O156 Co154 2.091 . S
O156 C162 1.261 . S
C157 O166 1.247 . S
C157 O167 1.272 . S
O158 Co154 2.004 . S
O158 C163 1.259 . S
Co159 O160 2.061 1_565 S
Co159 O165 2.052 . S
Co159 O167 2.135 1_565 S
O160 Co159 2.061 1_545 S
O160 C163 1.235 . S
C161 O164 1.238 . S
C161 O165 1.241 1_545 S
C162 O155 1.247 . S
C162 O156 1.261 . S
C163 O158 1.259 . S
C163 O160 1.235 . S
O164 Co154 2.021 . S
O164 C161 1.238 . S
O165 Co159 2.052 . S
O165 C161 1.241 1_565 S
O166 Co154 2.137 . S
O166 C157 1.247 . S
O167 Co154 2.244 . S
O167 C157 1.272 . S
O167 Co159 2.135 1_545 S
Co168 O169 2.216 . S
Co168 O170 2.091 . S
Co168 O172 2.004 . S
Co168 O178 2.021 . S
Co168 O180 2.137 . S
Co168 O181 2.244 . S
O169 Co168 2.216 . S
O169 C176 1.247 . S
O170 Co168 2.091 . S
O170 C176 1.261 . S
C171 O180 1.247 . S
C171 O181 1.272 . S
O172 Co168 2.004 . S
O172 C177 1.259 . S
Co173 O174 2.061 1_545 S
Co173 O179 2.052 . S
Co173 O181 2.135 1_545 S
O174 Co173 2.061 1_565 S
O174 C177 1.235 . S
C175 O178 1.238 . S
C175 O179 1.241 1_565 S
C176 O169 1.247 . S
C176 O170 1.261 . S
C177 O172 1.259 . S
C177 O174 1.235 . S
O178 Co168 2.021 . S
O178 C175 1.238 . S
O179 Co173 2.052 . S
O179 C175 1.241 1_545 S
O180 Co168 2.137 . S
O180 C171 1.247 . S
O181 Co168 2.244 . S
O181 C171 1.272 . S
O181 Co173 2.135 1_565 S
Co182 O183 2.216 . S
Co182 O184 2.091 . S
Co182 O186 2.004 . S
Co182 O192 2.021 . S
Co182 O194 2.137 . S
Co182 O195 2.244 . S
O183 Co182 2.216 . S
O183 C190 1.247 . S
O184 Co182 2.091 . S
O184 C190 1.261 . S
C185 O194 1.247 . S
C185 O195 1.272 . S
O186 Co182 2.004 . S
O186 C191 1.259 . S
Co187 O188 2.061 1_655 S
Co187 O193 2.052 . S
Co187 O195 2.135 1_655 S
O188 Co187 2.061 1_455 S
O188 C191 1.235 . S
C189 O192 1.238 . S
C189 O193 1.241 1_455 S
C190 O183 1.247 . S
C190 O184 1.261 . S
C191 O186 1.259 . S
C191 O188 1.235 . S
O192 Co182 2.021 . S
O192 C189 1.238 . S
O193 Co187 2.052 . S
O193 C189 1.241 1_655 S
O194 Co182 2.137 . S
O194 C185 1.247 . S
O195 Co182 2.244 . S
O195 C185 1.272 . S
O195 Co187 2.135 1_455 S
Co196 O197 2.216 . S
Co196 O198 2.091 . S
Co196 O200 2.004 . S
Co196 O206 2.021 . S
Co196 O208 2.137 . S
Co196 O209 2.244 . S
O197 Co196 2.216 . S
O197 C204 1.247 . S
O198 Co196 2.091 . S
O198 C204 1.261 . S
C199 O208 1.247 . S
C199 O209 1.272 . S
O200 Co196 2.004 . S
O200 C205 1.259 . S
Co201 O202 2.061 . S
Co201 O207 2.052 . S
Co201 O209 2.135 . S
O202 Co201 2.061 . S
O202 C205 1.235 . S
C203 O206 1.238 . S
C203 O207 1.241 . S
C204 O197 1.247 . S
C204 O198 1.261 . S
C205 O200 1.259 . S
C205 O202 1.235 . S
O206 Co196 2.021 . S
O206 C203 1.238 . S
O207 Co201 2.052 . S
O207 C203 1.241 . S
O208 Co196 2.137 . S
O208 C199 1.247 . S
O209 Co196 2.244 . S
O209 C199 1.272 . S
O209 Co201 2.135 . S
Co210 O211 2.216 . S
Co210 O212 2.091 . S
Co210 O214 2.004 . S
Co210 O220 2.021 . S
Co210 O222 2.137 . S
Co210 O223 2.244 . S
O211 Co210 2.216 . S
O211 C218 1.247 . S
O212 Co210 2.091 . S
O212 C218 1.261 . S
C213 O222 1.247 . S
C213 O223 1.272 . S
O214 Co210 2.004 . S
O214 C219 1.259 . S
Co215 O216 2.061 . S
Co215 O221 2.052 . S
Co215 O223 2.135 . S
O216 Co215 2.061 . S
O216 C219 1.235 . S
C217 O220 1.238 . S
C217 O221 1.241 . S
C218 O211 1.247 . S
C218 O212 1.261 . S
C219 O214 1.259 . S
C219 O216 1.235 . S
O220 Co210 2.021 . S
O220 C217 1.238 . S
O221 Co215 2.052 . S
O221 C217 1.241 . S
O222 Co210 2.137 . S
O222 C213 1.247 . S
O223 Co210 2.244 . S
O223 C213 1.272 . S
O223 Co215 2.135 . S
Co224 O225 2.216 . S
Co224 O226 2.091 . S
Co224 O228 2.004 . S
Co224 O234 2.021 . S
Co224 O236 2.137 . S
Co224 O237 2.244 . S
O225 Co224 2.216 . S
O225 C232 1.247 . S
O226 Co224 2.091 . S
O226 C232 1.261 . S
C227 O236 1.247 . S
C227 O237 1.272 . S
O228 Co224 2.004 . S
O228 C233 1.259 . S
Co229 O230 2.061 . S
Co229 O235 2.052 . S
Co229 O237 2.135 . S
O230 Co229 2.061 . S
O230 C233 1.235 . S
C231 O234 1.238 . S
C231 O235 1.241 . S
C232 O225 1.247 . S
C232 O226 1.261 . S
C233 O228 1.259 . S
C233 O230 1.235 . S
O234 Co224 2.021 . S
O234 C231 1.238 . S
O235 Co229 2.052 . S
O235 C231 1.241 . S
O236 Co224 2.137 . S
O236 C227 1.247 . S
O237 Co224 2.244 . S
O237 C227 1.272 . S
O237 Co229 2.135 . S
Co238 O239 2.216 . S
Co238 O240 2.091 . S
Co238 O242 2.004 . S
Co238 O248 2.021 . S
Co238 O250 2.137 . S
Co238 O251 2.244 . S
O239 Co238 2.216 . S
O239 C246 1.247 . S
O240 Co238 2.091 . S
O240 C246 1.261 . S
C241 O250 1.247 . S
C241 O251 1.272 . S
O242 Co238 2.004 . S
O242 C247 1.259 . S
Co243 O244 2.061 . S
Co243 O249 2.052 . S
Co243 O251 2.135 . S
O244 Co243 2.061 . S
O244 C247 1.235 . S
C245 O248 1.238 . S
C245 O249 1.241 . S
C246 O239 1.247 . S
C246 O240 1.261 . S
C247 O242 1.259 . S
C247 O244 1.235 . S
O248 Co238 2.021 . S
O248 C245 1.238 . S
O249 Co243 2.052 . S
O249 C245 1.241 . S
O250 Co238 2.137 . S
O250 C241 1.247 . S
O251 Co238 2.244 . S
O251 C241 1.272 . S
O251 Co243 2.135 . S
C252 C253 1.387 . S
C252 H256 0.950 . S
C252 C261 1.390 . S
C253 C252 1.387 . S
C253 C255 1.387 . S
H254 C261 0.950 . S
C255 C253 1.387 . S
C255 C257 1.390 . S
C255 H259 0.950 . S
H256 C252 0.950 . S
C257 C255 1.390 . S
C257 C258 1.387 . S
C257 H260 0.950 . S
C258 C257 1.387 . S
C258 C261 1.387 . S
H259 C255 0.950 . S
H260 C257 0.950 . S
C261 C252 1.390 . S
C261 H254 0.950 . S
C261 C258 1.387 . S
C262 C263 1.387 . S
C262 H266 0.950 . S
C262 C271 1.390 . S
C263 C262 1.387 . S
C263 C265 1.387 . S
H264 C271 0.950 . S
C265 C263 1.387 . S
C265 C267 1.390 . S
C265 H269 0.950 . S
H266 C262 0.950 . S
C267 C265 1.390 . S
C267 C268 1.387 . S
C267 H270 0.950 . S
C268 C267 1.387 . S
C268 C271 1.387 . S
H269 C265 0.950 . S
H270 C267 0.950 . S
C271 C262 1.390 . S
C271 H264 0.950 . S
C271 C268 1.387 . S
C272 C273 1.387 . S
C272 H276 0.950 . S
C272 C281 1.390 . S
C273 C272 1.387 . S
C273 C275 1.387 . S
H274 C281 0.950 . S
C275 C273 1.387 . S
C275 C277 1.390 . S
C275 H279 0.950 . S
H276 C272 0.950 . S
C277 C275 1.390 . S
C277 C278 1.387 . S
C277 H280 0.950 . S
C278 C277 1.387 . S
C278 C281 1.387 . S
H279 C275 0.950 . S
H280 C277 0.950 . S
C281 C272 1.390 . S
C281 H274 0.950 . S
C281 C278 1.387 . S
C282 C283 1.387 . S
C282 H286 0.950 . S
C282 C291 1.390 . S
C283 C282 1.387 . S
C283 C285 1.387 . S
H284 C291 0.950 . S
C285 C283 1.387 . S
C285 C287 1.390 . S
C285 H289 0.950 . S
H286 C282 0.950 . S
C287 C285 1.390 . S
C287 C288 1.387 . S
C287 H290 0.950 . S
C288 C287 1.387 . S
C288 C291 1.387 . S
H289 C285 0.950 . S
H290 C287 0.950 . S
C291 C282 1.390 . S
C291 H284 0.950 . S
C291 C288 1.387 . S
C292 C293 1.387 . S
C292 H296 0.950 . S
C292 C301 1.390 . S
C293 C292 1.387 . S
C293 C295 1.387 . S
H294 C301 0.950 . S
C295 C293 1.387 . S
C295 C297 1.390 . S
C295 H299 0.950 . S
H296 C292 0.950 . S
C297 C295 1.390 . S
C297 C298 1.387 . S
C297 H300 0.950 . S
C298 C297 1.387 . S
C298 C301 1.387 . S
H299 C295 0.950 . S
H300 C297 0.950 . S
C301 C292 1.390 . S
C301 H294 0.950 . S
C301 C298 1.387 . S
C302 C303 1.387 . S
C302 H306 0.950 . S
C302 C311 1.390 . S
C303 C302 1.387 . S
C303 C305 1.387 . S
H304 C311 0.950 . S
C305 C303 1.387 . S
C305 C307 1.390 . S
C305 H309 0.950 . S
H306 C302 0.950 . S
C307 C305 1.390 . S
C307 C308 1.387 . S
C307 H310 0.950 . S
C308 C307 1.387 . S
C308 C311 1.387 . S
H309 C305 0.950 . S
H310 C307 0.950 . S
C311 C302 1.390 . S
C311 H304 0.950 . S
C311 C308 1.387 . S
C312 C313 1.387 . S
C312 H316 0.950 . S
C312 C321 1.390 1_554 S
C313 C312 1.387 . S
C313 C315 1.387 1_655 S
H314 C321 0.950 . S
C315 C313 1.387 1_455 S
C315 C317 1.390 1_554 S
C315 H319 0.950 . S
H316 C312 0.950 . S
C317 C315 1.390 1_556 S
C317 C318 1.387 . S
C317 H320 0.950 . S
C318 C317 1.387 . S
C318 C321 1.387 1_455 S
H319 C315 0.950 . S
H320 C317 0.950 . S
C321 C312 1.390 1_556 S
C321 H314 0.950 . S
C321 C318 1.387 1_655 S
C322 C323 1.387 . S
C322 H326 0.950 . S
C322 C331 1.390 1_554 S
C323 C322 1.387 . S
C323 C325 1.387 . S
H324 C331 0.950 . S
C325 C323 1.387 . S
C325 C327 1.390 1_554 S
C325 H329 0.950 . S
H326 C322 0.950 . S
C327 C325 1.390 1_556 S
C327 C328 1.387 . S
C327 H330 0.950 . S
C328 C327 1.387 . S
C328 C331 1.387 . S
H329 C325 0.950 . S
H330 C327 0.950 . S
C331 C322 1.390 1_556 S
C331 H324 0.950 . S
C331 C328 1.387 . S
C332 C333 1.387 . S
C332 H336 0.950 . S
C332 C341 1.390 1_544 S
C333 C332 1.387 . S
C333 C335 1.387 . S
H334 C341 0.950 . S
C335 C333 1.387 . S
C335 C337 1.390 1_544 S
C335 H339 0.950 . S
H336 C332 0.950 . S
C337 C335 1.390 1_566 S
C337 C338 1.387 . S
C337 H340 0.950 . S
C338 C337 1.387 . S
C338 C341 1.387 . S
H339 C335 0.950 . S
H340 C337 0.950 . S
C341 C332 1.390 1_566 S
C341 H334 0.950 . S
C341 C338 1.387 . S
C342 C343 1.387 . S
C342 H346 0.950 . S
C342 C351 1.390 . S
C343 C342 1.387 . S
C343 C345 1.387 . S
H344 C351 0.950 . S
C345 C343 1.387 . S
C345 C347 1.390 . S
C345 H349 0.950 . S
H346 C342 0.950 . S
C347 C345 1.390 . S
C347 C348 1.387 . S
C347 H350 0.950 . S
C348 C347 1.387 . S
C348 C351 1.387 . S
H349 C345 0.950 . S
H350 C347 0.950 . S
C351 C342 1.390 . S
C351 H344 0.950 . S
C351 C348 1.387 . S
C352 C353 1.387 . S
C352 H356 0.950 . S
C352 C361 1.390 . S
C353 C352 1.387 . S
C353 C355 1.387 . S
H354 C361 0.950 . S
C355 C353 1.387 . S
C355 C357 1.390 . S
C355 H359 0.950 . S
H356 C352 0.950 . S
C357 C355 1.390 . S
C357 C358 1.387 . S
C357 H360 0.950 . S
C358 C357 1.387 . S
C358 C361 1.387 . S
H359 C355 0.950 . S
H360 C357 0.950 . S
C361 C352 1.390 . S
C361 H354 0.950 . S
C361 C358 1.387 . S
C362 C363 1.387 . S
C362 H366 0.950 . S
C362 C371 1.390 . S
C363 C362 1.387 . S
C363 C365 1.387 . S
H364 C371 0.950 . S
C365 C363 1.387 . S
C365 C367 1.390 . S
C365 H369 0.950 . S
H366 C362 0.950 . S
C367 C365 1.390 . S
C367 C368 1.387 . S
C367 H370 0.950 . S
C368 C367 1.387 . S
C368 C371 1.387 . S
H369 C365 0.950 . S
H370 C367 0.950 . S
C371 C362 1.390 . S
C371 H364 0.950 . S
C371 C368 1.387 . S
C372 C373 1.387 . S
C372 H376 0.950 . S
C372 C381 1.390 . S
C373 C372 1.387 . S
C373 C375 1.387 . S
H374 C381 0.950 . S
C375 C373 1.387 . S
C375 C377 1.390 . S
C375 H379 0.950 . S
H376 C372 0.950 . S
C377 C375 1.390 . S
C377 C378 1.387 . S
C377 H380 0.950 . S
C378 C377 1.387 . S
C378 C381 1.387 . S
H379 C375 0.950 . S
H380 C377 0.950 . S
C381 C372 1.390 . S
C381 H374 0.950 . S
C381 C378 1.387 . S
C382 C383 1.387 . S
C382 H386 0.950 . S
C382 C391 1.390 . S
C383 C382 1.387 . S
C383 C385 1.387 . S
H384 C391 0.950 . S
C385 C383 1.387 . S
C385 C387 1.390 . S
C385 H389 0.950 . S
H386 C382 0.950 . S
C387 C385 1.390 . S
C387 C388 1.387 . S
C387 H390 0.950 . S
C388 C387 1.387 . S
C388 C391 1.387 . S
H389 C385 0.950 . S
H390 C387 0.950 . S
C391 C382 1.390 . S
C391 H384 0.950 . S
C391 C388 1.387 . S
C392 C393 1.387 . S
C392 H396 0.950 . S
C392 C401 1.390 . S
C393 C392 1.387 . S
C393 C395 1.387 . S
H394 C401 0.950 . S
C395 C393 1.387 . S
C395 C397 1.390 . S
C395 H399 0.950 . S
H396 C392 0.950 . S
C397 C395 1.390 . S
C397 C398 1.387 . S
C397 H400 0.950 . S
C398 C397 1.387 . S
C398 C401 1.387 . S
H399 C395 0.950 . S
H400 C397 0.950 . S
C401 C392 1.390 . S
C401 H394 0.950 . S
C401 C398 1.387 . S
C402 C403 1.387 1_455 S
C402 H406 0.950 . S
C402 C411 1.390 . S
C403 C402 1.387 1_655 S
C403 C405 1.387 . S
H404 C411 0.950 . S
C405 C403 1.387 . S
C405 C407 1.390 . S
C405 H409 0.950 . S
H406 C402 0.950 . S
C407 C405 1.390 . S
C407 C408 1.387 1_655 S
C407 H410 0.950 . S
C408 C407 1.387 1_455 S
C408 C411 1.387 . S
H409 C405 0.950 . S
H410 C407 0.950 . S
C411 C402 1.390 . S
C411 H404 0.950 . S
C411 C408 1.387 . S
C412 C413 1.387 . S
C412 H416 0.950 . S
C412 C421 1.390 . S
C413 C412 1.387 . S
C413 C415 1.387 . S
H414 C421 0.950 . S
C415 C413 1.387 . S
C415 C417 1.390 . S
C415 H419 0.950 . S
H416 C412 0.950 . S
C417 C415 1.390 . S
C417 C418 1.387 . S
C417 H420 0.950 . S
C418 C417 1.387 . S
C418 C421 1.387 . S
H419 C415 0.950 . S
H420 C417 0.950 . S
C421 C412 1.390 . S
C421 H414 0.950 . S
C421 C418 1.387 . S
C422 C423 1.387 . S
C422 H426 0.950 . S
C422 C431 1.390 1_565 S
C423 C422 1.387 . S
C423 C425 1.387 . S
H424 C431 0.950 . S
C425 C423 1.387 . S
C425 C427 1.390 1_565 S
C425 H429 0.950 . S
H426 C422 0.950 . S
C427 C425 1.390 1_545 S
C427 C428 1.387 . S
C427 H430 0.950 . S
C428 C427 1.387 . S
C428 C431 1.387 . S
H429 C425 0.950 . S
H430 C427 0.950 . S
C431 C422 1.390 1_545 S
C431 H424 0.950 . S
C431 C428 1.387 . S
C432 C433 1.387 1_556 S
C432 H436 0.950 . S
C432 C441 1.390 . S
C433 C432 1.387 1_554 S
C433 C435 1.387 . S
H434 C441 0.950 . S
C435 C433 1.387 . S
C435 C437 1.390 . S
C435 H439 0.950 . S
H436 C432 0.950 . S
C437 C435 1.390 . S
C437 C438 1.387 1_554 S
C437 H440 0.950 . S
C438 C437 1.387 1_556 S
C438 C441 1.387 . S
H439 C435 0.950 . S
H440 C437 0.950 . S
C441 C432 1.390 . S
C441 H434 0.950 . S
C441 C438 1.387 . S
C442 C443 1.387 . S
C442 H446 0.950 . S
C442 C451 1.390 1_546 S
C443 C442 1.387 . S
C443 C445 1.387 . S
H444 C451 0.950 . S
C445 C443 1.387 . S
C445 C447 1.390 1_546 S
C445 H449 0.950 . S
H446 C442 0.950 . S
C447 C445 1.390 1_564 S
C447 C448 1.387 . S
C447 H450 0.950 . S
C448 C447 1.387 . S
C448 C451 1.387 . S
H449 C445 0.950 . S
H450 C447 0.950 . S
C451 C442 1.390 1_564 S
C451 H444 0.950 . S
C451 C448 1.387 . S
C452 C453 1.387 1_554 S
C452 H456 0.950 . S
C452 C461 1.390 1_655 S
C453 C452 1.387 1_556 S
C453 C455 1.387 . S
H454 C461 0.950 . S
C455 C453 1.387 . S
C455 C457 1.390 1_655 S
C455 H459 0.950 . S
H456 C452 0.950 . S
C457 C455 1.390 1_455 S
C457 C458 1.387 1_556 S
C457 H460 0.950 . S
C458 C457 1.387 1_554 S
C458 C461 1.387 . S
H459 C455 0.950 . S
H460 C457 0.950 . S
C461 C452 1.390 1_455 S
C461 H454 0.950 . S
C461 C458 1.387 . S
C462 C463 1.387 1_554 S
C462 H466 0.950 . S
C462 C471 1.390 . S
C463 C462 1.387 1_556 S
C463 C465 1.387 . S
H464 C471 0.950 . S
C465 C463 1.387 . S
C465 C467 1.390 . S
C465 H469 0.950 . S
H466 C462 0.950 . S
C467 C465 1.390 . S
C467 C468 1.387 1_556 S
C467 H470 0.950 . S
C468 C467 1.387 1_554 S
C468 C471 1.387 . S
H469 C465 0.950 . S
H470 C467 0.950 . S
C471 C462 1.390 . S
C471 H464 0.950 . S
C471 C468 1.387 . S
C472 C473 1.387 . S
C472 H476 0.950 . S
C472 C481 1.390 1_564 S
C473 C472 1.387 . S
C473 C475 1.387 . S
H474 C481 0.950 . S
C475 C473 1.387 . S
C475 C477 1.390 1_564 S
C475 H479 0.950 . S
H476 C472 0.950 . S
C477 C475 1.390 1_546 S
C477 C478 1.387 . S
C477 H480 0.950 . S
C478 C477 1.387 . S
C478 C481 1.387 . S
H479 C475 0.950 . S
H480 C477 0.950 . S
C481 C472 1.390 1_546 S
C481 H474 0.950 . S
C481 C478 1.387 . S
C482 C483 1.387 . S
C482 H486 0.950 . S
C482 C491 1.390 1_655 S
C483 C482 1.387 . S
C483 C485 1.387 1_556 S
H484 C491 0.950 . S
C485 C483 1.387 1_554 S
C485 C487 1.390 1_655 S
C485 H489 0.950 . S
H486 C482 0.950 . S
C487 C485 1.390 1_455 S
C487 C488 1.387 . S
C487 H490 0.950 . S
C488 C487 1.387 . S
C488 C491 1.387 1_554 S
H489 C485 0.950 . S
H490 C487 0.950 . S
C491 C482 1.390 1_455 S
C491 H484 0.950 . S
C491 C488 1.387 1_556 S
C492 C493 1.387 . S
C492 H496 0.950 . S
C492 C501 1.390 . S
C493 C492 1.387 . S
C493 C495 1.387 . S
H494 C501 0.950 . S
C495 C493 1.387 . S
C495 C497 1.390 . S
C495 H499 0.950 . S
H496 C492 0.950 . S
C497 C495 1.390 . S
C497 C498 1.387 . S
C497 H500 0.950 . S
C498 C497 1.387 . S
C498 C501 1.387 . S
H499 C495 0.950 . S
H500 C497 0.950 . S
C501 C492 1.390 . S
C501 H494 0.950 . S
C501 C498 1.387 . S
C502 C503 1.387 . S
C502 H506 0.950 . S
C502 C511 1.390 . S
C503 C502 1.387 . S
C503 C505 1.387 . S
H504 C511 0.950 . S
C505 C503 1.387 . S
C505 C507 1.390 . S
C505 H509 0.950 . S
H506 C502 0.950 . S
C507 C505 1.390 . S
C507 C508 1.387 . S
C507 H510 0.950 . S
C508 C507 1.387 . S
C508 C511 1.387 . S
H509 C505 0.950 . S
H510 C507 0.950 . S
C511 C502 1.390 . S
C511 H504 0.950 . S
C511 C508 1.387 . S
C512 C513 1.387 . S
C512 H516 0.950 . S
C512 C521 1.390 . S
C513 C512 1.387 . S
C513 C515 1.387 . S
H514 C521 0.950 . S
C515 C513 1.387 . S
C515 C517 1.390 . S
C515 H519 0.950 . S
H516 C512 0.950 . S
C517 C515 1.390 . S
C517 C518 1.387 . S
C517 H520 0.950 . S
C518 C517 1.387 . S
C518 C521 1.387 . S
H519 C515 0.950 . S
H520 C517 0.950 . S
C521 C512 1.390 . S
C521 H514 0.950 . S
C521 C518 1.387 . S
C522 C523 1.387 . S
C522 H526 0.950 . S
C522 C531 1.390 . S
C523 C522 1.387 . S
C523 C525 1.387 . S
H524 C531 0.950 . S
C525 C523 1.387 . S
C525 C527 1.390 . S
C525 H529 0.950 . S
H526 C522 0.950 . S
C527 C525 1.390 . S
C527 C528 1.387 . S
C527 H530 0.950 . S
C528 C527 1.387 . S
C528 C531 1.387 . S
H529 C525 0.950 . S
H530 C527 0.950 . S
C531 C522 1.390 . S
C531 H524 0.950 . S
C531 C528 1.387 . S
C532 C533 1.387 . S
C532 H536 0.950 . S
C532 C541 1.390 . S
C533 C532 1.387 . S
C533 C535 1.387 . S
H534 C541 0.950 . S
C535 C533 1.387 . S
C535 C537 1.390 . S
C535 H539 0.950 . S
H536 C532 0.950 . S
C537 C535 1.390 . S
C537 C538 1.387 . S
C537 H540 0.950 . S
C538 C537 1.387 . S
C538 C541 1.387 . S
H539 C535 0.950 . S
H540 C537 0.950 . S
C541 C532 1.390 . S
C541 H534 0.950 . S
C541 C538 1.387 . S
C542 C543 1.387 . S
C542 H546 0.950 . S
C542 C551 1.390 . S
C543 C542 1.387 . S
C543 C545 1.387 . S
H544 C551 0.950 . S
C545 C543 1.387 . S
C545 C547 1.390 . S
C545 H549 0.950 . S
H546 C542 0.950 . S
C547 C545 1.390 . S
C547 C548 1.387 . S
C547 H550 0.950 . S
C548 C547 1.387 . S
C548 C551 1.387 . S
H549 C545 0.950 . S
H550 C547 0.950 . S
C551 C542 1.390 . S
C551 H544 0.950 . S
C551 C548 1.387 . S
C552 C553 1.387 . S
C552 H556 0.950 . S
C552 C561 1.390 . S
C553 C552 1.387 . S
C553 C555 1.387 . S
H554 C561 0.950 . S
C555 C553 1.387 . S
C555 C557 1.390 . S
C555 H559 0.950 . S
H556 C552 0.950 . S
C557 C555 1.390 . S
C557 C558 1.387 . S
C557 H560 0.950 . S
C558 C557 1.387 . S
C558 C561 1.387 . S
H559 C555 0.950 . S
H560 C557 0.950 . S
C561 C552 1.390 . S
C561 H554 0.950 . S
C561 C558 1.387 . S
C562 C563 1.387 . S
C562 H566 0.950 . S
C562 C571 1.390 . S
C563 C562 1.387 . S
C563 C565 1.387 . S
H564 C571 0.950 . S
C565 C563 1.387 . S
C565 C567 1.390 . S
C565 H569 0.950 . S
H566 C562 0.950 . S
C567 C565 1.390 . S
C567 C568 1.387 . S
C567 H570 0.950 . S
C568 C567 1.387 . S
C568 C571 1.387 . S
H569 C565 0.950 . S
H570 C567 0.950 . S
C571 C562 1.390 . S
C571 H564 0.950 . S
C571 C568 1.387 . S
C572 C573 1.387 . S
C572 H576 0.950 . S
C572 C581 1.390 . S
C573 C572 1.387 . S
C573 C575 1.387 . S
H574 C581 0.950 . S
C575 C573 1.387 . S
C575 C577 1.390 . S
C575 H579 0.950 . S
H576 C572 0.950 . S
C577 C575 1.390 . S
C577 C578 1.387 . S
C577 H580 0.950 . S
C578 C577 1.387 . S
C578 C581 1.387 . S
H579 C575 0.950 . S
H580 C577 0.950 . S
C581 C572 1.390 . S
C581 H574 0.950 . S
C581 C578 1.387 . S
C582 C583 1.387 . S
C582 H586 0.950 . S
C582 C591 1.390 . S
C583 C582 1.387 . S
C583 C585 1.387 . S
H584 C591 0.950 . S
C585 C583 1.387 . S
C585 C587 1.390 . S
C585 H589 0.950 . S
H586 C582 0.950 . S
C587 C585 1.390 . S
C587 C588 1.387 . S
C587 H590 0.950 . S
C588 C587 1.387 . S
C588 C591 1.387 . S
H589 C585 0.950 . S
H590 C587 0.950 . S
C591 C582 1.390 . S
C591 H584 0.950 . S
C591 C588 1.387 . S
C592 C593 1.387 . S
C592 H596 0.950 . S
C592 C601 1.390 . S
C593 C592 1.387 . S
C593 C595 1.387 . S
H594 C601 0.950 . S
C595 C593 1.387 . S
C595 C597 1.390 . S
C595 H599 0.950 . S
H596 C592 0.950 . S
C597 C595 1.390 . S
C597 C598 1.387 . S
C597 H600 0.950 . S
C598 C597 1.387 . S
C598 C601 1.387 . S
H599 C595 0.950 . S
H600 C597 0.950 . S
C601 C592 1.390 . S
C601 H594 0.950 . S
C601 C598 1.387 . S
C602 C603 1.387 . S
C602 H606 0.950 . S
C602 C611 1.390 . S
C603 C602 1.387 . S
C603 C605 1.387 . S
H604 C611 0.950 . S
C605 C603 1.387 . S
C605 C607 1.390 . S
C605 H609 0.950 . S
H606 C602 0.950 . S
C607 C605 1.390 . S
C607 C608 1.387 . S
C607 H610 0.950 . S
C608 C607 1.387 . S
C608 C611 1.387 . S
H609 C605 0.950 . S
H610 C607 0.950 . S
C611 C602 1.390 . S
C611 H604 0.950 . S
C611 C608 1.387 . S
C253 C241 1.759 . S
C258 C3 1.759 . S
C263 C213 1.759 . S
C268 C17 1.759 . S
C273 C227 1.759 . S
C278 C31 1.759 . S
C283 C101 1.759 . S
C288 C45 1.759 . S
C293 C115 1.759 . S
C298 C59 1.759 . S
C303 C73 1.759 . S
C308 C87 1.759 . S
C313 C129 1.759 . S
C318 C185 1.759 . S
C323 C143 1.759 . S
C328 C199 1.759 . S
C333 C157 1.759 . S
C338 C171 1.759 . S
C343 C7 0.718 . S
C348 C245 0.718 . S
C353 C217 0.719 . S
C358 C21 0.718 . S
C363 C35 0.719 . S
C368 C231 0.718 . S
C373 C105 0.719 . S
C378 C49 0.717 . S
C383 C63 0.718 . S
C388 C119 0.719 . S
C393 C77 0.718 . S
C398 C91 0.718 . S
C403 C133 0.719 . S
C408 C189 0.718 . S
C413 C203 0.717 . S
C418 C147 0.719 . S
C423 C175 0.718 . S
C428 C161 0.718 . S
C433 C9 1.703 . S
C438 C51 1.703 . S
C443 C65 1.702 . S
C448 C23 1.702 . S
C453 C79 1.703 . S
C458 C37 1.702 . S
C463 C78 1.682 . S
C468 C22 1.681 . S
C473 C36 1.682 . S
C478 C50 1.682 . S
C483 C64 1.682 . S
C488 C8 1.682 . S
C493 C93 1.703 . S
C498 C135 1.703 . S
C503 C149 1.704 . S
C508 C107 1.704 . S
C513 C163 1.704 . S
C518 C121 1.704 . S
C523 C162 1.681 . S
C528 C106 1.682 . S
C533 C120 1.681 . S
C538 C134 1.681 . S
C543 C148 1.682 . S
C548 C92 1.681 . S
C553 C219 1.702 . S
C558 C177 1.703 . S
C563 C233 1.703 . S
C568 C191 1.703 . S
C573 C205 1.704 . S
C578 C247 1.703 . S
C583 C246 1.681 . S
C588 C190 1.682 . S
C593 C204 1.682 . S
C598 C218 1.682 . S
C603 C232 1.681 . S
C608 C176 1.682 . S
