# Generated by pormake.
# Topology sra, (4)-cn, num edge types: 1
# Building blocks:
#     Node 0, Type 0, BuildingBlock: KUFVIS_clean_sbu_0, # of connection points: 4
#     Node 1, Type 0, BuildingBlock: KUFVIS_clean_sbu_0, # of connection points: 4
#     Node 2, Type 0, BuildingBlock: KUFVIS_clean_sbu_0, # of connection points: 4
#     Node 3, Type 0, BuildingBlock: KUFVIS_clean_sbu_0, # of connection points: 4
#     Node 4, Type 0, BuildingBlock: KUFVIS_clean_sbu_0, # of connection points: 4
#     Node 5, Type 0, BuildingBlock: KUFVIS_clean_sbu_0, # of connection points: 4
#     Node 6, Type 0, BuildingBlock: KUFVIS_clean_sbu_0, # of connection points: 4
#     Node 7, Type 0, BuildingBlock: KUFVIS_clean_sbu_0, # of connection points: 4
#     Edge 8, Type (0, 0), BuildingBlock: AJUNOK_clean_linker_0, # of connection points: 2
#     Edge 9, Type (0, 0), BuildingBlock: AJUNOK_clean_linker_0, # of connection points: 2
#     Edge 10, Type (0, 0), BuildingBlock: AJUNOK_clean_linker_0, # of connection points: 2
#     Edge 11, Type (0, 0), BuildingBlock: AJUNOK_clean_linker_0, # of connection points: 2
#     Edge 12, Type (0, 0), BuildingBlock: AJUNOK_clean_linker_0, # of connection points: 2
#     Edge 13, Type (0, 0), BuildingBlock: AJUNOK_clean_linker_0, # of connection points: 2
#     Edge 14, Type (0, 0), BuildingBlock: AJUNOK_clean_linker_0, # of connection points: 2
#     Edge 15, Type (0, 0), BuildingBlock: AJUNOK_clean_linker_0, # of connection points: 2
#     Edge 16, Type (0, 0), BuildingBlock: AJUNOK_clean_linker_0, # of connection points: 2
#     Edge 17, Type (0, 0), BuildingBlock: AJUNOK_clean_linker_0, # of connection points: 2
#     Edge 18, Type (0, 0), BuildingBlock: AJUNOK_clean_linker_0, # of connection points: 2
#     Edge 19, Type (0, 0), BuildingBlock: AJUNOK_clean_linker_0, # of connection points: 2
#     Edge 20, Type (0, 0), BuildingBlock: AJUNOK_clean_linker_0, # of connection points: 2
#     Edge 21, Type (0, 0), BuildingBlock: AJUNOK_clean_linker_0, # of connection points: 2
#     Edge 22, Type (0, 0), BuildingBlock: AJUNOK_clean_linker_0, # of connection points: 2
#     Edge 23, Type (0, 0), BuildingBlock: AJUNOK_clean_linker_0, # of connection points: 2
# Relax obj value: 0.056
# Max RMSD: 0.084
# Mean RMSD: 0.084
data_MOF--net-sra--node1-KUFVIS_clean_sbu_0--edge1-AJUNOK_clean_linker_0
_symmetry_space_group_name_H-M    P1
_symmetry_Int_Tables_number       1
_symmetry_cell_setting            triclinic
loop_
_symmetry_equiv_pos_as_xyz
'x, y, z'
_cell_length_a     19.64493
_cell_length_b     37.889089
_cell_length_c     24.043354
_cell_angle_alpha  90.057248
_cell_angle_beta   89.969791
_cell_angle_gamma 90.040463
loop_
_atom_site_label
_atom_site_type_symbol
_atom_site_fract_x
_atom_site_fract_y
_atom_site_fract_z
_atom_type_partial_charge
Mn0 Mn 0.979 0.13559 0.18002 0.0
Mn1 Mn 0.98474 0.05652 0.24473 0.0
C2 C 0.87727 0.10847 0.20793 0.0
C3 C 0.98595 0.19747 0.18008 0.0
C4 C -0.00175 0.06445 0.11952 0.0
O5 O 0.07866 0.13257 0.20362 0.0
O6 O 0.07328 0.08056 0.24701 0.0
C7 C 0.0085 0.08449 0.35819 0.0
N8 N 0.97316 0.06318 0.32284 0.0
C9 C 0.91284 0.03619 0.39865 0.0
C10 C 0.94862 0.05778 0.43599 0.0
C11 C -0.00384 0.08229 0.41561 0.0
C12 C 0.92566 0.04048 0.3418 0.0
H13 H 0.04612 0.10281 0.34269 0.0
C14 C 0.10572 0.10811 0.23226 0.0
O15 O -0.00086 0.17883 0.13616 0.0
O16 O 0.96829 0.18013 0.22443 0.0
N17 N 0.9043 0.02847 0.24831 0.0
C18 C 0.87705 1.00849 0.20681 0.0
C19 C 0.83532 0.97976 0.22034 0.0
C20 C 0.82127 0.97215 0.27636 0.0
C21 C 0.84685 0.99408 0.31825 0.0
C22 C 0.89054 1.02139 0.30238 0.0
H23 H 0.89003 1.01321 0.16383 0.0
O24 O 0.87875 0.13255 0.16957 0.0
O25 O 0.93602 0.10126 0.23054 0.0
O26 O 0.99316 0.09802 0.11926 0.0
O27 O -0.00349 0.04639 0.16434 0.0
C28 C 0.83391 0.98864 0.37529 0.0
C29 C 0.86585 1.01019 0.41546 0.0
H30 H 0.94035 0.0557 0.48034 0.0
H31 H 0.02399 0.09903 0.44415 0.0
H32 H 0.81574 0.96288 0.18772 0.0
H33 H 0.79168 0.949 0.2869 0.0
H34 H 0.7998 0.96784 0.3887 0.0
H35 H 0.85525 1.00592 0.45915 0.0
Mn36 Mn 0.02167 0.4131 0.18241 0.0
Mn37 Mn 0.01663 0.49096 0.25095 0.0
C38 C 0.12376 0.43954 0.21113 0.0
C39 C 0.01398 0.35124 0.18106 0.0
C40 C 0.00171 0.48511 0.12534 0.0
O41 O 0.92202 0.41613 0.20622 0.0
O42 O 0.92847 0.46669 0.25379 0.0
C43 C -0.00413 0.46154 0.36377 0.0
N44 N 0.03013 0.48339 0.32858 0.0
C45 C 0.09158 0.50984 0.40427 0.0
C46 C 0.05699 0.48766 0.44147 0.0
C47 C 0.00943 0.46315 0.42105 0.0
C48 C 0.07762 0.50611 0.34751 0.0
H49 H 0.9582 0.44324 0.34826 0.0
C50 C 0.89564 0.43972 0.23713 0.0
O51 O 0.00108 0.37024 0.1375 0.0
O52 O 0.03189 0.36821 0.22571 0.0
N53 N 0.09686 0.51917 0.25409 0.0
C54 C 0.12285 0.53973 0.21278 0.0
C55 C 0.16428 0.56854 0.22652 0.0
C56 C 0.17939 0.57564 0.28253 0.0
C57 C 0.15512 0.55314 0.32416 0.0
C58 C 0.11162 0.52577 0.30815 0.0
H59 H 0.10907 0.53539 0.16986 0.0
O60 O 0.12201 0.41597 0.17195 0.0
O61 O 0.06511 0.44656 0.2341 0.0
O62 O 0.00791 0.45158 0.12286 0.0
O63 O 0.00284 0.50201 0.17129 0.0
C64 C 0.16915 0.55804 0.38116 0.0
C65 C 0.13845 0.53589 0.42116 0.0
H66 H 0.06619 0.48928 0.48573 0.0
H67 H 0.98249 0.44598 0.4495 0.0
H68 H 0.18286 0.58585 0.19411 0.0
H69 H 0.20888 0.5988 0.29324 0.0
H70 H 0.20313 0.57887 0.39469 0.0
H71 H 0.14988 0.53973 0.46482 0.0
Mn72 Mn 0.98375 0.91293 0.8516 0.0
Mn73 Mn -0.00087 0.99005 0.78252 0.0
C74 C 0.88691 0.94017 0.81536 0.0
C75 C 0.98786 0.85109 0.85431 0.0
C76 C 0.00063 0.98551 0.90857 0.0
O77 O 0.08517 0.9143 0.83389 0.0
O78 O 0.08762 0.96615 0.78895 0.0
C79 C 0.03639 0.95972 0.67296 0.0
N80 N -0.00398 0.98114 0.70435 0.0
C81 C 0.94019 1.00382 0.62295 0.0
C82 C 0.98109 0.98203 0.58965 0.0
C83 C 0.02904 0.95967 0.61484 0.0
C84 C 0.94851 1.00195 0.6807 0.0
H85 H 0.07409 0.94294 0.6921 0.0
C86 C 0.11643 0.93845 0.80749 0.0
O87 O -0.00243 0.8702 0.8984 0.0
O88 O 0.97491 0.86796 0.80852 0.0
N89 N 0.91896 1.01739 0.77139 0.0
C90 C 0.88715 0.03847 0.8092 0.0
C91 C 0.84403 0.06538 0.79054 0.0
C92 C 0.83313 0.06993 0.73325 0.0
C93 C 0.86374 0.04695 0.69526 0.0
C94 C 0.90864 1.02165 0.71614 0.0
H95 H 0.89735 0.03601 0.85312 0.0
O96 O 0.8828 0.91746 0.85562 0.0
O97 O 0.94809 0.94608 0.7964 0.0
O98 O -0.00532 0.95194 0.91102 0.0
O99 O 0.00245 1.00223 0.86252 0.0
C100 C 0.85452 0.04954 0.63729 0.0
C101 C 0.89169 0.02741 0.6012 0.0
H102 H 0.97617 0.98231 0.54477 0.0
H103 H 0.06082 0.94276 0.58949 0.0
H104 H 0.82113 0.08326 0.82022 0.0
H105 H 0.80286 0.09184 0.71858 0.0
H106 H 0.81928 0.06859 0.62005 0.0
H107 H 0.88347 0.02924 0.55684 0.0
Mn108 Mn 0.01642 0.63541 0.85438 0.0
Mn109 Mn 0.00259 0.55681 0.78901 0.0
C110 C 0.11386 0.60771 0.81978 0.0
C111 C 0.01195 0.69725 0.85549 0.0
C112 C -0.00012 0.56392 0.91462 0.0
O113 O 0.91516 0.63354 0.83598 0.0
O114 O 0.9139 0.5806 0.79429 0.0
C115 C 0.96532 0.58518 0.67824 0.0
N116 N 0.00578 0.56439 0.7105 0.0
C117 C 0.06212 0.54055 0.63003 0.0
C118 C 0.02115 0.56168 0.59587 0.0
C119 C 0.97289 0.58432 0.62015 0.0
C120 C 0.05363 0.54336 0.6877 0.0
H121 H 0.92739 0.60218 0.69666 0.0
C122 C 0.8844 0.60864 0.81091 0.0
O123 O 0.00172 0.6786 0.8999 0.0
O124 O 0.02554 0.67992 0.81015 0.0
N125 N 0.08307 0.52951 0.77899 0.0
C126 C 0.1147 0.509 0.81759 0.0
C127 C 0.15769 0.48173 0.79996 0.0
C128 C 0.16861 0.4762 0.74287 0.0
C129 C 0.13837 0.49865 0.70402 0.0
C130 C 0.09353 0.52434 0.72392 0.0
H131 H 0.10432 0.51214 0.8614 0.0
O132 O 0.1174 0.63108 0.85921 0.0
O133 O 0.05291 0.60131 0.80081 0.0
O134 O 0.005 0.5975 0.915 0.0
O135 O -0.0008 0.54594 0.86963 0.0
C136 C 0.1478 0.49512 0.64618 0.0
C137 C 0.11079 0.51667 0.60924 0.0
H138 H 0.02622 0.56068 0.55102 0.0
H139 H 0.94105 0.60073 0.59412 0.0
H140 H 0.18048 0.46429 0.83029 0.0
H141 H 0.19864 0.45396 0.72903 0.0
H142 H 0.18306 0.47578 0.6297 0.0
H143 H 0.11917 0.51413 0.56496 0.0
Mn144 Mn 0.47718 0.63502 0.68442 0.0
Mn145 Mn 0.48306 0.55585 0.74885 0.0
C146 C 0.37551 0.60779 0.71221 0.0
C147 C 0.48471 0.69693 0.68657 0.0
C148 C 0.49635 0.56388 0.62356 0.0
O149 O 0.57686 0.63191 0.70773 0.0
O150 O 0.5716 0.57986 0.75104 0.0
C151 C 0.50698 0.58388 0.86225 0.0
N152 N 0.47155 0.56256 0.82696 0.0
C153 C 0.41172 0.53543 0.90289 0.0
C154 C 0.44761 0.55701 0.94018 0.0
C155 C 0.49491 0.58162 0.9197 0.0
C156 C 0.42416 0.53985 0.846 0.0
H157 H 0.54448 0.60224 0.84668 0.0
C158 C 0.60396 0.6074 0.7362 0.0
O159 O 0.49719 0.679 0.64172 0.0
O160 O 0.46672 0.67891 0.73009 0.0
N161 N 0.40269 0.52777 0.75254 0.0
C162 C 0.37573 0.50761 0.71111 0.0
C163 C 0.33461 0.47867 0.72475 0.0
C164 C 0.32082 0.47103 0.7808 0.0
C165 C 0.34598 0.49314 0.82261 0.0
C166 C 0.38908 0.52067 0.80664 0.0
H167 H 0.38858 0.51235 0.66811 0.0
O168 O 0.37686 0.63206 0.67415 0.0
O169 O 0.43432 0.6005 0.7346 0.0
O170 O 0.49123 0.59751 0.62321 0.0
O171 O 0.4947 0.54585 0.66842 0.0
C172 C 0.33336 0.48761 0.87969 0.0
C173 C 0.36516 0.50926 0.9198 0.0
H174 H 0.43968 0.55479 0.98456 0.0
H175 H 0.52285 0.59834 0.9482 0.0
H176 H 0.31528 0.46167 0.69218 0.0
H177 H 0.29165 0.44774 0.7914 0.0
H178 H 0.29972 0.46663 0.89317 0.0
H179 H 0.3549 0.50491 0.96354 0.0
Mn180 Mn 0.52332 0.91248 0.68129 0.0
Mn181 Mn 0.51763 0.99203 0.74478 0.0
C182 C 0.62518 0.93989 0.70809 0.0
C183 C 0.51583 0.85059 0.68472 0.0
C184 C 0.50309 0.98311 0.61966 0.0
O185 O 0.42384 0.91578 0.70508 0.0
O186 O 0.4293 0.96781 0.74855 0.0
C187 C 0.4957 0.96511 0.85902 0.0
N188 N 0.53047 0.9861 0.82287 0.0
C189 C 0.5915 1.01402 0.89748 0.0
C190 C 0.55626 0.9928 0.93564 0.0
C191 C 0.50869 0.96796 0.91627 0.0
C192 C 0.57804 1.00908 0.84086 0.0
H193 H 0.45801 0.94657 0.8443 0.0
C194 C 0.39696 0.94017 0.73404 0.0
O195 O 0.50302 0.8681 0.63957 0.0
O196 O 0.53413 0.86903 0.72774 0.0
N197 N 0.59792 1.02026 0.74692 0.0
C198 C 0.62441 0.03989 0.70472 0.0
C199 C 0.66611 0.06883 0.7172 0.0
C200 C 0.68093 0.07701 0.7729 0.0
C201 C 0.65609 0.05545 0.81552 0.0
C202 C 0.61245 0.02787 0.80068 0.0
H203 H 0.61089 0.03471 0.66198 0.0
O204 O 0.62352 0.91535 0.6704 0.0
O205 O 0.56651 0.94736 0.7307 0.0
O206 O 0.50886 0.94951 0.61952 0.0
O207 O 0.50458 1.00133 0.66438 0.0
C208 C 0.66971 0.0615 0.87232 0.0
C209 C 0.63845 0.0403 0.91328 0.0
H210 H 0.56493 0.99543 0.97986 0.0
H211 H 0.48128 0.95151 0.94546 0.0
H212 H 0.68517 0.0854 0.68402 0.0
H213 H 0.7107 0.10026 0.78257 0.0
H214 H 0.70378 0.08252 0.88495 0.0
H215 H 0.6495 0.04503 0.95679 0.0
Mn216 Mn 0.48262 0.4123 0.35425 0.0
Mn217 Mn 0.49737 0.49007 0.2868 0.0
C218 C 0.38543 0.4397 0.3189 0.0
C219 C 0.48762 0.35037 0.35314 0.0
C220 C 0.4997 0.48433 0.41293 0.0
O221 O 0.58396 0.41413 0.33651 0.0
O222 O 0.58583 0.466 0.29165 0.0
C223 C 0.53309 0.46111 0.17599 0.0
N224 N 0.49311 0.4821 0.20841 0.0
C225 C 0.43651 0.506 0.12822 0.0
C226 C 0.47699 0.48465 0.09387 0.0
C227 C 0.52511 0.46189 0.11794 0.0
C228 C 0.44542 0.5033 0.18584 0.0
H229 H 0.57097 0.44405 0.19426 0.0
C230 C 0.61484 0.43826 0.30982 0.0
O231 O 0.49681 0.36824 0.39867 0.0
O232 O 0.47416 0.3685 0.30877 0.0
N233 N 0.4171 0.51758 0.27725 0.0
C234 C 0.38593 0.53823 0.316 0.0
C235 C 0.34282 0.56547 0.29859 0.0
C236 C 0.33119 0.57079 0.24157 0.0
C237 C 0.36116 0.54826 0.20257 0.0
C238 C 0.4061 0.52258 0.22225 0.0
H239 H 0.39666 0.53518 0.35975 0.0
O240 O 0.38163 0.41649 0.35845 0.0
O241 O 0.44653 0.44604 0.30017 0.0
O242 O 0.49329 0.45072 0.41503 0.0
O243 O 0.50181 0.50124 0.36706 0.0
C244 C 0.35131 0.55166 0.14478 0.0
C245 C 0.38794 0.52998 0.10765 0.0
H246 H 0.47161 0.48558 0.04905 0.0
H247 H 0.55657 0.44532 0.09177 0.0
H248 H 0.32042 0.583 0.32905 0.0
H249 H 0.30078 0.59291 0.22791 0.0
H250 H 0.31603 0.57101 0.12846 0.0
H251 H 0.37933 0.53249 0.0634 0.0
Mn252 Mn 0.5184 0.13457 0.35134 0.0
Mn253 Mn 0.50338 0.05706 0.28298 0.0
C254 C 0.6156 0.10705 0.31594 0.0
C255 C 0.51415 0.19652 0.35142 0.0
C256 C 0.50023 0.06238 0.40911 0.0
O257 O 0.41714 0.1331 0.33306 0.0
O258 O 0.41502 0.08129 0.28784 0.0
C259 C 0.46865 0.08657 0.17244 0.0
N260 N 0.50823 0.06535 0.20472 0.0
C261 C 0.56554 0.04187 0.12444 0.0
C262 C 0.5255 0.06346 0.09024 0.0
C263 C 0.4772 0.08613 0.11442 0.0
C264 C 0.55606 0.04424 0.18205 0.0
H265 H 0.43068 0.10358 0.19079 0.0
C266 C 0.38617 0.10909 0.3061 0.0
O267 O 0.50429 0.17837 0.3965 0.0
O268 O 0.52774 0.17865 0.30673 0.0
N269 N 0.5835 0.02943 0.27336 0.0
C270 C 0.61423 1.00853 0.31193 0.0
C271 C 0.6572 0.98125 0.29427 0.0
C272 C 0.66909 0.97615 0.23721 0.0
C273 C 0.63978 0.99901 0.19845 0.0
C274 C 0.59493 0.02469 0.21833 0.0
H275 H 0.60325 1.01141 0.35568 0.0
O276 O 0.61935 0.13004 0.35589 0.0
O277 O 0.55453 0.10096 0.29695 0.0
O278 O 0.50683 0.09596 0.4115 0.0
O279 O 0.49834 0.04555 0.3631 0.0
C280 C 0.65024 0.99595 0.14067 0.0
C281 C 0.61424 1.01797 0.10374 0.0
H282 H 0.53133 0.0628 0.04544 0.0
H283 H 0.44607 0.10288 0.08837 0.0
H284 H 0.67932 0.96353 0.32453 0.0
H285 H 0.69929 0.95398 0.22333 0.0
H286 H 0.68555 0.97663 0.12421 0.0
H287 H 0.62344 1.01578 0.05951 0.0
C288 C 0.00391 0.29272 0.2299 0.0
C289 C 0.00724 0.31207 0.17996 0.0
C290 C -0.00393 0.25579 0.22969 0.0
C291 C 0.99218 0.23666 0.17953 0.0
H292 H 0.00675 0.30621 0.26957 0.0
H293 H 0.9938 0.24213 0.2692 0.0
S294 S -0.00136 0.27468 0.03724 0.0
N295 N 0.00589 0.30912 0.07889 0.0
N296 N 0.992 0.24007 0.07849 0.0
C297 C -0.00431 0.2557 0.12932 0.0
C298 C 0.00295 0.29326 0.12953 0.0
C299 C -0.00308 0.79247 0.80589 0.0
C300 C 0.99331 0.8119 0.85578 0.0
C301 C 0.00372 0.75554 0.80615 0.0
C302 C 0.00651 0.73645 0.85632 0.0
H303 H -0.00493 0.80588 0.76615 0.0
H304 H 0.00621 0.74187 0.76662 0.0
S305 S -0.00126 0.77466 0.99857 0.0
N306 N 0.99299 0.80909 0.95687 0.0
N307 N 0.00517 0.73995 0.95739 0.0
C308 C 0.00271 0.75555 0.90653 0.0
C309 C -0.0037 0.79315 0.90626 0.0
C310 C 0.49563 0.7551 0.63757 0.0
C311 C 0.49204 0.73608 0.68778 0.0
C312 C 0.50317 0.79197 0.63712 0.0
C313 C 0.5085 0.81145 0.68685 0.0
H314 H 0.49212 0.74145 0.59807 0.0
H315 H 0.50528 0.80526 0.59729 0.0
S316 S 0.50292 0.77438 0.82973 0.0
N317 N 0.49461 0.73965 0.78876 0.0
N318 N 0.50966 0.80875 0.78793 0.0
C319 C 0.50543 0.79277 0.73743 0.0
C320 C 0.49691 0.7552 0.73789 0.0
C321 C 0.49672 0.2917 0.40137 0.0
C322 C 0.49409 0.3112 0.35158 0.0
C323 C 0.50321 0.25474 0.40094 0.0
C324 C 0.50816 0.23574 0.35071 0.0
H325 H 0.49333 0.30503 0.44114 0.0
H326 H 0.50462 0.24101 0.44041 0.0
S327 S 0.50491 0.27422 0.20866 0.0
N328 N 0.49746 0.30856 0.25049 0.0
N329 N 0.51013 0.23944 0.24969 0.0
C330 C 0.50603 0.25494 0.3006 0.0
C331 C 0.49883 0.29252 0.30103 0.0
C332 C 0.27271 0.08211 0.29875 0.0
C333 C 0.31319 0.11237 0.2937 0.0
C334 C 0.20628 0.08142 0.27874 0.0
C335 C 0.1771 0.11095 0.25222 0.0
H336 H 0.29321 0.0583 0.31727 0.0
H337 H 0.17817 0.05701 0.28354 0.0
S338 S 0.26228 0.19736 0.23003 0.0
N339 N 0.32029 0.17304 0.26172 0.0
N340 N 0.19412 0.17205 0.22375 0.0
C341 C 0.21671 0.14189 0.24798 0.0
C342 C 0.28494 0.14257 0.26897 0.0
C343 C 0.7278 0.46571 0.30205 0.0
C344 C 0.68791 0.43519 0.29763 0.0
C345 C 0.79434 0.46648 0.28232 0.0
C346 C 0.82422 0.43676 0.25678 0.0
H347 H 0.70677 0.48964 0.31985 0.0
H348 H 0.82198 0.49109 0.28645 0.0
S349 S 0.74098 0.34965 0.23671 0.0
N350 N 0.68221 0.37406 0.26738 0.0
N351 N 0.80869 0.37523 0.22999 0.0
C352 C 0.78525 0.40559 0.25316 0.0
C353 C 0.71688 0.40482 0.27386 0.0
C354 C 0.22955 0.96587 0.80027 0.0
C355 C 0.18963 0.93536 0.79571 0.0
C356 C 0.29602 0.96673 0.78032 0.0
C357 C 0.32577 0.93712 0.75436 0.0
H358 H 0.20852 0.98975 0.81824 0.0
H359 H 0.32367 0.99133 0.78457 0.0
S360 S 0.24264 0.84996 0.73427 0.0
N361 N 0.18397 0.87429 0.76524 0.0
N362 N 0.31023 0.8756 0.72744 0.0
C363 C 0.28687 0.90591 0.75086 0.0
C364 C 0.21861 0.90505 0.77178 0.0
C365 C 0.70692 0.57942 0.77637 0.0
C366 C 0.67547 0.61009 0.75559 0.0
C367 C 0.77308 0.58004 0.79686 0.0
C368 C 0.81132 0.61131 0.7977 0.0
H369 H 0.68065 0.55426 0.77637 0.0
H370 H 0.79505 0.55544 0.81122 0.0
S371 S 0.75311 0.6994 0.75054 0.0
N372 N 0.68724 0.67322 0.73908 0.0
N373 N 0.81324 0.67415 0.77744 0.0
C374 C 0.78065 0.64253 0.77851 0.0
C375 C 0.71253 0.64193 0.75723 0.0
C376 C 0.69919 0.95461 0.79016 0.0
C377 C 0.69231 0.94986 0.73243 0.0
C378 C 0.76345 0.95543 0.81584 0.0
C379 C 0.82355 0.94972 0.78523 0.0
H380 H 0.6548 0.95433 0.81651 0.0
H381 H 0.76568 0.95765 0.86074 0.0
S382 S 0.83304 0.93103 0.63398 0.0
N383 N 0.75173 0.9391 0.64543 0.0
N384 N 0.87097 0.93538 0.69484 0.0
C385 C 0.81754 0.94466 0.72755 0.0
C386 C 0.75239 0.94583 0.70098 0.0
C387 C 0.30188 0.59374 0.79481 0.0
C388 C 0.30861 0.59783 0.73694 0.0
C389 C 0.23765 0.59304 0.82062 0.0
C390 C 0.17743 0.59807 0.78994 0.0
H391 H 0.34635 0.59442 0.82106 0.0
H392 H 0.23548 0.59139 0.86558 0.0
S393 S 0.16747 0.61452 0.6381 0.0
N394 N 0.24896 0.60711 0.64972 0.0
N395 N 0.12966 0.6108 0.69914 0.0
C396 C 0.1833 0.60233 0.73208 0.0
C397 C 0.24846 0.60115 0.70547 0.0
C398 C 0.73942 0.09264 0.31614 0.0
C399 C 0.67909 0.09781 0.28567 0.0
C400 C 0.80359 0.0939 0.29032 0.0
C401 C 0.81026 0.09851 0.23256 0.0
H402 H 0.73734 0.0905 0.36105 0.0
H403 H 0.84803 0.09458 0.31657 0.0
S404 S 0.66889 0.11637 0.13445 0.0
N405 N 0.63119 0.1118 0.19538 0.0
N406 N 0.7504 0.10883 0.14571 0.0
C407 C 0.75002 0.10213 0.20125 0.0
C408 C 0.68489 0.10289 0.22797 0.0
C409 C 0.19754 0.453 0.29382 0.0
C410 C 0.19085 0.44909 0.23594 0.0
C411 C 0.26169 0.45404 0.31959 0.0
C412 C 0.32198 0.44919 0.2889 0.0
H413 H 0.15315 0.45191 0.32011 0.0
H414 H 0.26376 0.4557 0.36456 0.0
S415 S 0.33211 0.43202 0.13721 0.0
N416 N 0.25063 0.43957 0.14875 0.0
N417 N 0.36984 0.43597 0.19822 0.0
C418 C 0.31618 0.44465 0.23109 0.0
C419 C 0.25105 0.44573 0.20446 0.0
C420 C -0.0007 1.00789 0.06389 0.0
C421 C 0.00302 0.04509 0.06518 0.0
C422 C -0.00052 0.989 1.01351 0.0
C423 C 0.00365 1.00629 0.96172 0.0
H424 H -0.00495 0.99302 0.10218 0.0
H425 H -0.00449 0.96052 1.01539 0.0
S426 S 0.01802 0.10342 0.94147 0.0
N427 N 0.01348 0.09844 1.00952 0.0
N428 N 0.01425 0.0632 0.91532 0.0
C429 C 0.00898 0.04349 0.96236 0.0
C430 C 0.00857 0.06275 1.01375 0.0
C431 C 0.00182 0.50738 0.97009 0.0
C432 C -0.00342 0.54451 0.96892 0.0
C433 C 0.00195 0.48849 0.02042 0.0
C434 C -0.0034 0.50573 0.07223 0.0
H435 H 0.00704 0.49258 0.93177 0.0
H436 H 0.00742 0.46007 0.01849 0.0
S437 S 0.97733 0.60262 0.09266 0.0
N438 N 0.98293 0.59771 0.02464 0.0
N439 N 0.98273 0.56247 0.11873 0.0
C440 C 0.98955 0.54285 0.07167 0.0
C441 C 0.98968 0.5621 0.02035 0.0
C442 C 0.49746 0.48805 0.51797 0.0
C443 C 0.50265 0.50516 0.46612 0.0
C444 C 0.49695 0.50712 0.56824 0.0
C445 C 0.50129 0.54433 0.56934 0.0
H446 H 0.4929 0.45959 0.51998 0.0
H447 H 0.49196 0.49237 0.60659 0.0
S448 S 0.51919 0.60221 0.44543 0.0
N449 N 0.51507 0.56195 0.41953 0.0
N450 N 0.51352 0.59744 0.51345 0.0
C451 C 0.50786 0.56179 0.51787 0.0
C452 C 0.50868 0.54237 0.46661 0.0
C453 C 0.50158 0.03973 0.56432 0.0
C454 C 0.49792 1.00251 0.56539 0.0
C455 C 0.50124 0.05873 0.51408 0.0
C456 C 0.49688 0.04154 0.4622 0.0
H457 H 0.50597 0.05457 0.60267 0.0
H458 H 0.50531 0.08721 0.51614 0.0
S459 S 0.48209 0.94441 0.44139 0.0
N460 N 0.48707 0.94927 0.50946 0.0
N461 N 0.48577 0.98466 0.41551 0.0
C462 C 0.49139 1.00431 0.46263 0.0
C463 C 0.49207 0.98495 0.51389 0.0
loop_
_geom_bond_atom_site_label_1
_geom_bond_atom_site_label_2
_geom_bond_distance
_geom_bond_site_symmetry_2
_ccdc_geom_bond_type
Mn0 O5 2.095 . S
Mn0 O15 2.162 . S
Mn0 O16 2.297 . S
Mn0 O24 2.385 1_455 S
Mn0 O25 2.209 1_455 S
Mn0 O26 2.094 . S
Mn1 O6 2.109 1_655 S
Mn1 N8 2.260 . S
Mn1 N17 2.295 . S
Mn1 O25 2.221 . S
Mn1 O27 2.117 . S
C2 O24 1.234 . S
C2 O25 1.283 . S
C3 O15 1.281 . S
C3 O16 1.236 . S
C4 O26 1.240 . S
C4 O27 1.264 1_455 S
O5 Mn0 2.095 . S
O5 C14 1.250 . S
O6 Mn1 2.109 1_455 S
O6 C14 1.258 . S
C7 N8 1.326 1_455 S
C7 C11 1.460 1_455 S
C7 H13 0.929 . S
N8 Mn1 2.260 . S
N8 C7 1.326 1_655 S
N8 C12 1.362 . S
C9 C10 1.261 . S
C9 C12 1.436 . S
C9 C29 1.440 1_545 S
C10 C9 1.261 . S
C10 C11 1.477 . S
C10 H30 0.931 1_545 S
C11 C7 1.460 1_655 S
C11 C10 1.477 . S
C11 H31 0.930 1_655 S
C12 N8 1.362 . S
C12 C9 1.436 . S
C12 C22 1.476 . S
H13 C7 0.929 . S
C14 O5 1.250 . S
C14 O6 1.258 . S
O15 Mn0 2.162 . S
O15 C3 1.281 . S
O16 Mn0 2.297 . S
O16 C3 1.236 . S
N17 Mn1 2.295 . S
N17 C18 1.328 . S
N17 C22 1.318 . S
C18 N17 1.328 . S
C18 C19 1.457 1_545 S
C18 H23 0.929 . S
C19 C18 1.457 1_565 S
C19 C20 1.291 . S
C19 H32 0.931 . S
C20 C19 1.291 . S
C20 C21 1.373 . S
C20 H33 0.929 . S
C21 C20 1.373 . S
C21 C22 1.396 1_565 S
C21 C28 1.403 . S
C22 C12 1.476 . S
C22 N17 1.318 . S
C22 C21 1.396 1_545 S
H23 C18 0.929 . S
O24 Mn0 2.385 1_655 S
O24 C2 1.234 . S
O25 Mn0 2.209 1_655 S
O25 Mn1 2.221 . S
O25 C2 1.283 . S
O26 Mn0 2.094 . S
O26 C4 1.240 . S
O27 Mn1 2.117 . S
O27 C4 1.264 1_655 S
C28 C21 1.403 . S
C28 C29 1.399 . S
C28 H34 0.929 . S
C29 C9 1.440 1_565 S
C29 C28 1.399 . S
C29 H35 0.930 . S
H30 C10 0.931 1_565 S
H31 C11 0.930 1_455 S
H32 C19 0.931 . S
H33 C20 0.929 . S
H34 C28 0.929 . S
H35 C29 0.930 . S
Mn36 O41 2.095 1_455 S
Mn36 O51 2.162 . S
Mn36 O52 2.297 . S
Mn36 O60 2.385 . S
Mn36 O61 2.209 . S
Mn36 O62 2.094 . S
Mn37 O42 2.121 1_455 S
Mn37 N44 2.257 . S
Mn37 N53 2.282 . S
Mn37 O61 2.215 . S
Mn37 O63 2.117 . S
C38 O60 1.234 . S
C38 O61 1.283 . S
C39 O51 1.281 . S
C39 O52 1.236 . S
C40 O62 1.240 . S
C40 O63 1.264 . S
O41 Mn36 2.095 1_655 S
O41 C50 1.250 . S
O42 Mn37 2.121 1_655 S
O42 C50 1.258 . S
C43 N44 1.326 . S
C43 C47 1.460 . S
C43 H49 0.929 1_455 S
N44 Mn37 2.257 . S
N44 C43 1.326 . S
N44 C48 1.362 . S
C45 C46 1.258 . S
C45 C48 1.431 . S
C45 C65 1.449 . S
C46 C45 1.258 . S
C46 C47 1.477 . S
C46 H66 0.931 . S
C47 C43 1.460 . S
C47 C46 1.477 . S
C47 H67 0.930 1_455 S
C48 N44 1.362 . S
C48 C45 1.431 . S
C48 C58 1.476 . S
H49 C43 0.929 1_655 S
C50 O41 1.250 . S
C50 O42 1.258 . S
O51 Mn36 2.162 . S
O51 C39 1.281 . S
O52 Mn36 2.297 . S
O52 C39 1.236 . S
N53 Mn37 2.282 . S
N53 C54 1.328 . S
N53 C58 1.318 . S
C54 N53 1.328 . S
C54 C55 1.457 . S
C54 H59 0.929 . S
C55 C54 1.457 . S
C55 C56 1.291 . S
C55 H68 0.931 . S
C56 C55 1.291 . S
C56 C57 1.373 . S
C56 H69 0.929 . S
C57 C56 1.373 . S
C57 C58 1.396 . S
C57 C64 1.403 . S
C58 C48 1.476 . S
C58 N53 1.318 . S
C58 C57 1.396 . S
H59 C54 0.929 . S
O60 Mn36 2.385 . S
O60 C38 1.234 . S
O61 Mn36 2.209 . S
O61 Mn37 2.215 . S
O61 C38 1.283 . S
O62 Mn36 2.094 . S
O62 C40 1.240 . S
O63 Mn37 2.117 . S
O63 C40 1.264 . S
C64 C57 1.403 . S
C64 C65 1.399 . S
C64 H70 0.929 . S
C65 C45 1.449 . S
C65 C64 1.399 . S
C65 H71 0.930 . S
H66 C46 0.931 . S
H67 C47 0.930 1_655 S
H68 C55 0.931 . S
H69 C56 0.929 . S
H70 C64 0.929 . S
H71 C65 0.930 . S
Mn72 O77 2.095 . S
Mn72 O87 2.162 . S
Mn72 O88 2.297 . S
Mn72 O96 2.385 1_455 S
Mn72 O97 2.209 1_455 S
Mn72 O98 2.094 . S
Mn73 O78 2.109 1_655 S
Mn73 N80 2.260 . S
Mn73 N89 2.295 . S
Mn73 O97 2.221 . S
Mn73 O99 2.117 . S
C74 O96 1.234 . S
C74 O97 1.283 . S
C75 O87 1.281 . S
C75 O88 1.236 . S
C76 O98 1.240 . S
C76 O99 1.264 1_455 S
O77 Mn72 2.095 . S
O77 C86 1.250 . S
O78 Mn73 2.109 1_455 S
O78 C86 1.258 . S
C79 N80 1.326 1_455 S
C79 C83 1.460 1_455 S
C79 H85 0.929 . S
N80 Mn73 2.260 . S
N80 C79 1.326 1_655 S
N80 C84 1.362 . S
C81 C82 1.261 . S
C81 C84 1.436 . S
C81 C101 1.440 1_565 S
C82 C81 1.261 . S
C82 C83 1.477 . S
C82 H102 0.931 1_565 S
C83 C79 1.460 1_655 S
C83 C82 1.477 . S
C83 H103 0.930 1_655 S
C84 N80 1.362 . S
C84 C81 1.436 . S
C84 C94 1.476 . S
H85 C79 0.929 . S
C86 O77 1.250 . S
C86 O78 1.258 . S
O87 Mn72 2.162 . S
O87 C75 1.281 . S
O88 Mn72 2.297 . S
O88 C75 1.236 . S
N89 Mn73 2.295 . S
N89 C90 1.328 . S
N89 C94 1.318 . S
C90 N89 1.328 . S
C90 C91 1.457 1_565 S
C90 H95 0.929 . S
C91 C90 1.457 1_545 S
C91 C92 1.291 . S
C91 H104 0.931 . S
C92 C91 1.291 . S
C92 C93 1.373 . S
C92 H105 0.929 . S
C93 C92 1.373 . S
C93 C94 1.396 1_545 S
C93 C100 1.403 . S
C94 C84 1.476 . S
C94 N89 1.318 . S
C94 C93 1.396 1_565 S
H95 C90 0.929 . S
O96 Mn72 2.385 1_655 S
O96 C74 1.234 . S
O97 Mn72 2.209 1_655 S
O97 Mn73 2.221 . S
O97 C74 1.283 . S
O98 Mn72 2.094 . S
O98 C76 1.240 . S
O99 Mn73 2.117 . S
O99 C76 1.264 1_655 S
C100 C93 1.403 . S
C100 C101 1.399 . S
C100 H106 0.929 . S
C101 C81 1.440 1_545 S
C101 C100 1.399 . S
C101 H107 0.930 . S
H102 C82 0.931 1_545 S
H103 C83 0.930 1_455 S
H104 C91 0.931 . S
H105 C92 0.929 . S
H106 C100 0.929 . S
H107 C101 0.930 . S
Mn108 O113 2.095 1_455 S
Mn108 O123 2.162 . S
Mn108 O124 2.297 . S
Mn108 O132 2.385 . S
Mn108 O133 2.209 . S
Mn108 O134 2.094 . S
Mn109 O114 2.121 1_455 S
Mn109 N116 2.257 . S
Mn109 N125 2.282 . S
Mn109 O133 2.215 . S
Mn109 O135 2.117 . S
C110 O132 1.234 . S
C110 O133 1.283 . S
C111 O123 1.281 . S
C111 O124 1.236 . S
C112 O134 1.240 . S
C112 O135 1.264 . S
O113 Mn108 2.095 1_655 S
O113 C122 1.250 . S
O114 Mn109 2.121 1_655 S
O114 C122 1.258 . S
C115 N116 1.326 . S
C115 C119 1.460 . S
C115 H121 0.929 1_455 S
N116 Mn109 2.257 . S
N116 C115 1.326 . S
N116 C120 1.362 . S
C117 C118 1.258 . S
C117 C120 1.431 . S
C117 C137 1.449 . S
C118 C117 1.258 . S
C118 C119 1.477 . S
C118 H138 0.931 . S
C119 C115 1.460 . S
C119 C118 1.477 . S
C119 H139 0.930 1_455 S
C120 N116 1.362 . S
C120 C117 1.431 . S
C120 C130 1.476 . S
H121 C115 0.929 1_655 S
C122 O113 1.250 . S
C122 O114 1.258 . S
O123 Mn108 2.162 . S
O123 C111 1.281 . S
O124 Mn108 2.297 . S
O124 C111 1.236 . S
N125 Mn109 2.282 . S
N125 C126 1.328 . S
N125 C130 1.318 . S
C126 N125 1.328 . S
C126 C127 1.457 . S
C126 H131 0.929 . S
C127 C126 1.457 . S
C127 C128 1.291 . S
C127 H140 0.931 . S
C128 C127 1.291 . S
C128 C129 1.373 . S
C128 H141 0.929 . S
C129 C128 1.373 . S
C129 C130 1.396 . S
C129 C136 1.403 . S
C130 C120 1.476 . S
C130 N125 1.318 . S
C130 C129 1.396 . S
H131 C126 0.929 . S
O132 Mn108 2.385 . S
O132 C110 1.234 . S
O133 Mn108 2.209 . S
O133 Mn109 2.215 . S
O133 C110 1.283 . S
O134 Mn108 2.094 . S
O134 C112 1.240 . S
O135 Mn109 2.117 . S
O135 C112 1.264 . S
C136 C129 1.403 . S
C136 C137 1.399 . S
C136 H142 0.929 . S
C137 C117 1.449 . S
C137 C136 1.399 . S
C137 H143 0.930 . S
H138 C118 0.931 . S
H139 C119 0.930 1_655 S
H140 C127 0.931 . S
H141 C128 0.929 . S
H142 C136 0.929 . S
H143 C137 0.930 . S
Mn144 O149 2.095 . S
Mn144 O159 2.162 . S
Mn144 O160 2.297 . S
Mn144 O168 2.385 . S
Mn144 O169 2.209 . S
Mn144 O170 2.094 . S
Mn145 O150 2.121 . S
Mn145 N152 2.257 . S
Mn145 N161 2.282 . S
Mn145 O169 2.215 . S
Mn145 O171 2.117 . S
C146 O168 1.234 . S
C146 O169 1.283 . S
C147 O159 1.281 . S
C147 O160 1.236 . S
C148 O170 1.240 . S
C148 O171 1.264 . S
O149 Mn144 2.095 . S
O149 C158 1.250 . S
O150 Mn145 2.121 . S
O150 C158 1.258 . S
C151 N152 1.326 . S
C151 C155 1.460 . S
C151 H157 0.929 . S
N152 Mn145 2.257 . S
N152 C151 1.326 . S
N152 C156 1.362 . S
C153 C154 1.258 . S
C153 C156 1.431 . S
C153 C173 1.449 . S
C154 C153 1.258 . S
C154 C155 1.477 . S
C154 H174 0.931 . S
C155 C151 1.460 . S
C155 C154 1.477 . S
C155 H175 0.930 . S
C156 N152 1.362 . S
C156 C153 1.431 . S
C156 C166 1.476 . S
H157 C151 0.929 . S
C158 O149 1.250 . S
C158 O150 1.258 . S
O159 Mn144 2.162 . S
O159 C147 1.281 . S
O160 Mn144 2.297 . S
O160 C147 1.236 . S
N161 Mn145 2.282 . S
N161 C162 1.328 . S
N161 C166 1.318 . S
C162 N161 1.328 . S
C162 C163 1.457 . S
C162 H167 0.929 . S
C163 C162 1.457 . S
C163 C164 1.291 . S
C163 H176 0.931 . S
C164 C163 1.291 . S
C164 C165 1.373 . S
C164 H177 0.929 . S
C165 C164 1.373 . S
C165 C166 1.396 . S
C165 C172 1.403 . S
C166 C156 1.476 . S
C166 N161 1.318 . S
C166 C165 1.396 . S
H167 C162 0.929 . S
O168 Mn144 2.385 . S
O168 C146 1.234 . S
O169 Mn144 2.209 . S
O169 Mn145 2.215 . S
O169 C146 1.283 . S
O170 Mn144 2.094 . S
O170 C148 1.240 . S
O171 Mn145 2.117 . S
O171 C148 1.264 . S
C172 C165 1.403 . S
C172 C173 1.399 . S
C172 H178 0.929 . S
C173 C153 1.449 . S
C173 C172 1.399 . S
C173 H179 0.930 . S
H174 C154 0.931 . S
H175 C155 0.930 . S
H176 C163 0.931 . S
H177 C164 0.929 . S
H178 C172 0.929 . S
H179 C173 0.930 . S
Mn180 O185 2.095 . S
Mn180 O195 2.162 . S
Mn180 O196 2.297 . S
Mn180 O204 2.385 . S
Mn180 O205 2.209 . S
Mn180 O206 2.094 . S
Mn181 O186 2.121 . S
Mn181 N188 2.257 . S
Mn181 N197 2.282 . S
Mn181 O205 2.215 . S
Mn181 O207 2.117 . S
C182 O204 1.234 . S
C182 O205 1.283 . S
C183 O195 1.281 . S
C183 O196 1.236 . S
C184 O206 1.240 . S
C184 O207 1.264 . S
O185 Mn180 2.095 . S
O185 C194 1.250 . S
O186 Mn181 2.121 . S
O186 C194 1.258 . S
C187 N188 1.326 . S
C187 C191 1.460 . S
C187 H193 0.929 . S
N188 Mn181 2.257 . S
N188 C187 1.326 . S
N188 C192 1.362 . S
C189 C190 1.261 . S
C189 C192 1.436 . S
C189 C209 1.440 1_565 S
C190 C189 1.261 . S
C190 C191 1.477 . S
C190 H210 0.931 1_565 S
C191 C187 1.460 . S
C191 C190 1.477 . S
C191 H211 0.930 . S
C192 N188 1.362 . S
C192 C189 1.436 . S
C192 C202 1.476 . S
H193 C187 0.929 . S
C194 O185 1.250 . S
C194 O186 1.258 . S
O195 Mn180 2.162 . S
O195 C183 1.281 . S
O196 Mn180 2.297 . S
O196 C183 1.236 . S
N197 Mn181 2.282 . S
N197 C198 1.328 . S
N197 C202 1.318 . S
C198 N197 1.328 . S
C198 C199 1.457 1_565 S
C198 H203 0.929 . S
C199 C198 1.457 1_545 S
C199 C200 1.291 . S
C199 H212 0.931 . S
C200 C199 1.291 . S
C200 C201 1.373 . S
C200 H213 0.929 . S
C201 C200 1.373 . S
C201 C202 1.396 1_545 S
C201 C208 1.403 . S
C202 C192 1.476 . S
C202 N197 1.318 . S
C202 C201 1.396 1_565 S
H203 C198 0.929 . S
O204 Mn180 2.385 . S
O204 C182 1.234 . S
O205 Mn180 2.209 . S
O205 Mn181 2.215 . S
O205 C182 1.283 . S
O206 Mn180 2.094 . S
O206 C184 1.240 . S
O207 Mn181 2.117 . S
O207 C184 1.264 . S
C208 C201 1.403 . S
C208 C209 1.399 . S
C208 H214 0.929 . S
C209 C189 1.440 1_545 S
C209 C208 1.399 . S
C209 H215 0.930 . S
H210 C190 0.931 1_545 S
H211 C191 0.930 . S
H212 C199 0.931 . S
H213 C200 0.929 . S
H214 C208 0.929 . S
H215 C209 0.930 . S
Mn216 O221 2.095 . S
Mn216 O231 2.162 . S
Mn216 O232 2.297 . S
Mn216 O240 2.385 . S
Mn216 O241 2.209 . S
Mn216 O242 2.094 . S
Mn217 O222 2.121 . S
Mn217 N224 2.257 . S
Mn217 N233 2.282 . S
Mn217 O241 2.215 . S
Mn217 O243 2.117 . S
C218 O240 1.234 . S
C218 O241 1.283 . S
C219 O231 1.281 . S
C219 O232 1.236 . S
C220 O242 1.240 . S
C220 O243 1.264 . S
O221 Mn216 2.095 . S
O221 C230 1.250 . S
O222 Mn217 2.121 . S
O222 C230 1.258 . S
C223 N224 1.326 . S
C223 C227 1.460 . S
C223 H229 0.929 . S
N224 Mn217 2.257 . S
N224 C223 1.326 . S
N224 C228 1.362 . S
C225 C226 1.258 . S
C225 C228 1.431 . S
C225 C245 1.449 . S
C226 C225 1.258 . S
C226 C227 1.477 . S
C226 H246 0.931 . S
C227 C223 1.460 . S
C227 C226 1.477 . S
C227 H247 0.930 . S
C228 N224 1.362 . S
C228 C225 1.431 . S
C228 C238 1.476 . S
H229 C223 0.929 . S
C230 O221 1.250 . S
C230 O222 1.258 . S
O231 Mn216 2.162 . S
O231 C219 1.281 . S
O232 Mn216 2.297 . S
O232 C219 1.236 . S
N233 Mn217 2.282 . S
N233 C234 1.328 . S
N233 C238 1.318 . S
C234 N233 1.328 . S
C234 C235 1.457 . S
C234 H239 0.929 . S
C235 C234 1.457 . S
C235 C236 1.291 . S
C235 H248 0.931 . S
C236 C235 1.291 . S
C236 C237 1.373 . S
C236 H249 0.929 . S
C237 C236 1.373 . S
C237 C238 1.396 . S
C237 C244 1.403 . S
C238 C228 1.476 . S
C238 N233 1.318 . S
C238 C237 1.396 . S
H239 C234 0.929 . S
O240 Mn216 2.385 . S
O240 C218 1.234 . S
O241 Mn216 2.209 . S
O241 Mn217 2.215 . S
O241 C218 1.283 . S
O242 Mn216 2.094 . S
O242 C220 1.240 . S
O243 Mn217 2.117 . S
O243 C220 1.264 . S
C244 C237 1.403 . S
C244 C245 1.399 . S
C244 H250 0.929 . S
C245 C225 1.449 . S
C245 C244 1.399 . S
C245 H251 0.930 . S
H246 C226 0.931 . S
H247 C227 0.930 . S
H248 C235 0.931 . S
H249 C236 0.929 . S
H250 C244 0.929 . S
H251 C245 0.930 . S
Mn252 O257 2.095 . S
Mn252 O267 2.162 . S
Mn252 O268 2.297 . S
Mn252 O276 2.385 . S
Mn252 O277 2.209 . S
Mn252 O278 2.094 . S
Mn253 O258 2.121 . S
Mn253 N260 2.257 . S
Mn253 N269 2.282 . S
Mn253 O277 2.215 . S
Mn253 O279 2.117 . S
C254 O276 1.234 . S
C254 O277 1.283 . S
C255 O267 1.281 . S
C255 O268 1.236 . S
C256 O278 1.240 . S
C256 O279 1.264 . S
O257 Mn252 2.095 . S
O257 C266 1.250 . S
O258 Mn253 2.121 . S
O258 C266 1.258 . S
C259 N260 1.326 . S
C259 C263 1.460 . S
C259 H265 0.929 . S
N260 Mn253 2.257 . S
N260 C259 1.326 . S
N260 C264 1.362 . S
C261 C262 1.261 . S
C261 C264 1.436 . S
C261 C281 1.440 1_545 S
C262 C261 1.261 . S
C262 C263 1.477 . S
C262 H282 0.931 1_545 S
C263 C259 1.460 . S
C263 C262 1.477 . S
C263 H283 0.930 . S
C264 N260 1.362 . S
C264 C261 1.436 . S
C264 C274 1.476 . S
H265 C259 0.929 . S
C266 O257 1.250 . S
C266 O258 1.258 . S
O267 Mn252 2.162 . S
O267 C255 1.281 . S
O268 Mn252 2.297 . S
O268 C255 1.236 . S
N269 Mn253 2.282 . S
N269 C270 1.328 . S
N269 C274 1.318 . S
C270 N269 1.328 . S
C270 C271 1.457 1_545 S
C270 H275 0.929 . S
C271 C270 1.457 1_565 S
C271 C272 1.291 . S
C271 H284 0.931 . S
C272 C271 1.291 . S
C272 C273 1.373 . S
C272 H285 0.929 . S
C273 C272 1.373 . S
C273 C274 1.396 1_565 S
C273 C280 1.403 . S
C274 C264 1.476 . S
C274 N269 1.318 . S
C274 C273 1.396 1_545 S
H275 C270 0.929 . S
O276 Mn252 2.385 . S
O276 C254 1.234 . S
O277 Mn252 2.209 . S
O277 Mn253 2.215 . S
O277 C254 1.283 . S
O278 Mn252 2.094 . S
O278 C256 1.240 . S
O279 Mn253 2.117 . S
O279 C256 1.264 . S
C280 C273 1.403 . S
C280 C281 1.399 . S
C280 H286 0.929 . S
C281 C261 1.440 1_565 S
C281 C280 1.399 . S
C281 H287 0.930 . S
H282 C262 0.931 1_565 S
H283 C263 0.930 . S
H284 C271 0.931 . S
H285 C272 0.929 . S
H286 C280 0.929 . S
H287 C281 0.930 . S
C288 C289 1.369 1_655 S
C288 C290 1.419 . S
C288 H292 0.930 . S
C289 C288 1.369 1_455 S
C289 C298 1.429 . S
C290 C288 1.419 . S
C290 C291 1.363 1_655 S
C290 H293 0.929 . S
C291 C290 1.363 1_455 S
C291 C297 1.428 . S
H292 C288 0.930 . S
H293 C290 0.929 . S
S294 N295 1.613 . S
S294 N296 1.610 . S
N295 S294 1.613 . S
N295 C298 1.350 . S
N296 S294 1.610 . S
N296 C297 1.351 . S
C297 C291 1.428 . S
C297 N296 1.351 . S
C297 C298 1.434 . S
C298 C289 1.429 . S
C298 N295 1.350 . S
C298 C297 1.434 . S
C299 C300 1.369 . S
C299 C301 1.419 . S
C299 H303 0.930 . S
C300 C299 1.369 . S
C300 C309 1.429 1_455 S
C301 C299 1.419 . S
C301 C302 1.363 . S
C301 H304 0.929 . S
C302 C301 1.363 . S
C302 C308 1.428 1_455 S
H303 C299 0.930 . S
H304 C301 0.929 . S
S305 N306 1.613 . S
S305 N307 1.610 . S
N306 S305 1.613 . S
N306 C309 1.350 . S
N307 S305 1.610 . S
N307 C308 1.351 . S
C308 C302 1.428 1_655 S
C308 N307 1.351 . S
C308 C309 1.434 . S
C309 C300 1.429 1_655 S
C309 N306 1.350 . S
C309 C308 1.434 . S
C310 C311 1.369 . S
C310 C312 1.419 . S
C310 H314 0.930 . S
C311 C310 1.369 . S
C311 C320 1.429 . S
C312 C310 1.419 . S
C312 C313 1.363 . S
C312 H315 0.929 . S
C313 C312 1.363 . S
C313 C319 1.428 . S
H314 C310 0.930 . S
H315 C312 0.929 . S
S316 N317 1.613 . S
S316 N318 1.610 . S
N317 S316 1.613 . S
N317 C320 1.350 . S
N318 S316 1.610 . S
N318 C319 1.351 . S
C319 C313 1.428 . S
C319 N318 1.351 . S
C319 C320 1.434 . S
C320 C311 1.429 . S
C320 N317 1.350 . S
C320 C319 1.434 . S
C321 C322 1.369 . S
C321 C323 1.419 . S
C321 H325 0.930 . S
C322 C321 1.369 . S
C322 C331 1.429 . S
C323 C321 1.419 . S
C323 C324 1.363 . S
C323 H326 0.929 . S
C324 C323 1.363 . S
C324 C330 1.428 . S
H325 C321 0.930 . S
H326 C323 0.929 . S
S327 N328 1.613 . S
S327 N329 1.610 . S
N328 S327 1.613 . S
N328 C331 1.350 . S
N329 S327 1.610 . S
N329 C330 1.351 . S
C330 C324 1.428 . S
C330 N329 1.351 . S
C330 C331 1.434 . S
C331 C322 1.429 . S
C331 N328 1.350 . S
C331 C330 1.434 . S
C332 C333 1.369 . S
C332 C334 1.419 . S
C332 H336 0.930 . S
C333 C332 1.369 . S
C333 C342 1.429 . S
C334 C332 1.419 . S
C334 C335 1.363 . S
C334 H337 0.929 . S
C335 C334 1.363 . S
C335 C341 1.428 . S
H336 C332 0.930 . S
H337 C334 0.929 . S
S338 N339 1.613 . S
S338 N340 1.610 . S
N339 S338 1.613 . S
N339 C342 1.350 . S
N340 S338 1.610 . S
N340 C341 1.351 . S
C341 C335 1.428 . S
C341 N340 1.351 . S
C341 C342 1.434 . S
C342 C333 1.429 . S
C342 N339 1.350 . S
C342 C341 1.434 . S
C343 C344 1.369 . S
C343 C345 1.419 . S
C343 H347 0.930 . S
C344 C343 1.369 . S
C344 C353 1.429 . S
C345 C343 1.419 . S
C345 C346 1.363 . S
C345 H348 0.929 . S
C346 C345 1.363 . S
C346 C352 1.428 . S
H347 C343 0.930 . S
H348 C345 0.929 . S
S349 N350 1.613 . S
S349 N351 1.610 . S
N350 S349 1.613 . S
N350 C353 1.350 . S
N351 S349 1.610 . S
N351 C352 1.351 . S
C352 C346 1.428 . S
C352 N351 1.351 . S
C352 C353 1.434 . S
C353 C344 1.429 . S
C353 N350 1.350 . S
C353 C352 1.434 . S
C354 C355 1.369 . S
C354 C356 1.419 . S
C354 H358 0.930 . S
C355 C354 1.369 . S
C355 C364 1.429 . S
C356 C354 1.419 . S
C356 C357 1.363 . S
C356 H359 0.929 . S
C357 C356 1.363 . S
C357 C363 1.428 . S
H358 C354 0.930 . S
H359 C356 0.929 . S
S360 N361 1.613 . S
S360 N362 1.610 . S
N361 S360 1.613 . S
N361 C364 1.350 . S
N362 S360 1.610 . S
N362 C363 1.351 . S
C363 C357 1.428 . S
C363 N362 1.351 . S
C363 C364 1.434 . S
C364 C355 1.429 . S
C364 N361 1.350 . S
C364 C363 1.434 . S
C365 C366 1.369 . S
C365 C367 1.419 . S
C365 H369 0.930 . S
C366 C365 1.369 . S
C366 C375 1.429 . S
C367 C365 1.419 . S
C367 C368 1.363 . S
C367 H370 0.929 . S
C368 C367 1.363 . S
C368 C374 1.428 . S
H369 C365 0.930 . S
H370 C367 0.929 . S
S371 N372 1.613 . S
S371 N373 1.610 . S
N372 S371 1.613 . S
N372 C375 1.350 . S
N373 S371 1.610 . S
N373 C374 1.351 . S
C374 C368 1.428 . S
C374 N373 1.351 . S
C374 C375 1.434 . S
C375 C366 1.429 . S
C375 N372 1.350 . S
C375 C374 1.434 . S
C376 C377 1.369 . S
C376 C378 1.419 . S
C376 H380 0.930 . S
C377 C376 1.369 . S
C377 C386 1.429 . S
C378 C376 1.419 . S
C378 C379 1.363 . S
C378 H381 0.929 . S
C379 C378 1.363 . S
C379 C385 1.428 . S
H380 C376 0.930 . S
H381 C378 0.929 . S
S382 N383 1.613 . S
S382 N384 1.610 . S
N383 S382 1.613 . S
N383 C386 1.350 . S
N384 S382 1.610 . S
N384 C385 1.351 . S
C385 C379 1.428 . S
C385 N384 1.351 . S
C385 C386 1.434 . S
C386 C377 1.429 . S
C386 N383 1.350 . S
C386 C385 1.434 . S
C387 C388 1.369 . S
C387 C389 1.419 . S
C387 H391 0.930 . S
C388 C387 1.369 . S
C388 C397 1.429 . S
C389 C387 1.419 . S
C389 C390 1.363 . S
C389 H392 0.929 . S
C390 C389 1.363 . S
C390 C396 1.428 . S
H391 C387 0.930 . S
H392 C389 0.929 . S
S393 N394 1.613 . S
S393 N395 1.610 . S
N394 S393 1.613 . S
N394 C397 1.350 . S
N395 S393 1.610 . S
N395 C396 1.351 . S
C396 C390 1.428 . S
C396 N395 1.351 . S
C396 C397 1.434 . S
C397 C388 1.429 . S
C397 N394 1.350 . S
C397 C396 1.434 . S
C398 C399 1.369 . S
C398 C400 1.419 . S
C398 H402 0.930 . S
C399 C398 1.369 . S
C399 C408 1.429 . S
C400 C398 1.419 . S
C400 C401 1.363 . S
C400 H403 0.929 . S
C401 C400 1.363 . S
C401 C407 1.428 . S
H402 C398 0.930 . S
H403 C400 0.929 . S
S404 N405 1.613 . S
S404 N406 1.610 . S
N405 S404 1.613 . S
N405 C408 1.350 . S
N406 S404 1.610 . S
N406 C407 1.351 . S
C407 C401 1.428 . S
C407 N406 1.351 . S
C407 C408 1.434 . S
C408 C399 1.429 . S
C408 N405 1.350 . S
C408 C407 1.434 . S
C409 C410 1.369 . S
C409 C411 1.419 . S
C409 H413 0.930 . S
C410 C409 1.369 . S
C410 C419 1.429 . S
C411 C409 1.419 . S
C411 C412 1.363 . S
C411 H414 0.929 . S
C412 C411 1.363 . S
C412 C418 1.428 . S
H413 C409 0.930 . S
H414 C411 0.929 . S
S415 N416 1.613 . S
S415 N417 1.610 . S
N416 S415 1.613 . S
N416 C419 1.350 . S
N417 S415 1.610 . S
N417 C418 1.351 . S
C418 C412 1.428 . S
C418 N417 1.351 . S
C418 C419 1.434 . S
C419 C410 1.429 . S
C419 N416 1.350 . S
C419 C418 1.434 . S
C420 C421 1.369 1_565 S
C420 C422 1.419 . S
C420 H424 0.930 . S
C421 C420 1.369 1_545 S
C421 C430 1.429 1_454 S
C422 C420 1.419 . S
C422 C423 1.363 1_554 S
C422 H425 0.929 . S
C423 C422 1.363 1_556 S
C423 C429 1.428 1_465 S
H424 C420 0.930 . S
H425 C422 0.929 . S
S426 N427 1.613 . S
S426 N428 1.610 . S
N427 S426 1.613 . S
N427 C430 1.350 . S
N428 S426 1.610 . S
N428 C429 1.351 . S
C429 C423 1.428 1_645 S
C429 N428 1.351 . S
C429 C430 1.434 . S
C430 C421 1.429 1_656 S
C430 N427 1.350 . S
C430 C429 1.434 . S
C431 C432 1.369 . S
C431 C433 1.419 . S
C431 H435 0.930 . S
C432 C431 1.369 . S
C432 C441 1.429 1_456 S
C433 C431 1.419 . S
C433 C434 1.363 1_556 S
C433 H436 0.929 . S
C434 C433 1.363 1_554 S
C434 C440 1.428 1_455 S
H435 C431 0.930 . S
H436 C433 0.929 . S
S437 N438 1.613 . S
S437 N439 1.610 . S
N438 S437 1.613 . S
N438 C441 1.350 . S
N439 S437 1.610 . S
N439 C440 1.351 . S
C440 C434 1.428 1_655 S
C440 N439 1.351 . S
C440 C441 1.434 . S
C441 C432 1.429 1_654 S
C441 N438 1.350 . S
C441 C440 1.434 . S
C442 C443 1.369 . S
C442 C444 1.419 . S
C442 H446 0.930 . S
C443 C442 1.369 . S
C443 C452 1.429 . S
C444 C442 1.419 . S
C444 C445 1.363 . S
C444 H447 0.929 . S
C445 C444 1.363 . S
C445 C451 1.428 . S
H446 C442 0.930 . S
H447 C444 0.929 . S
S448 N449 1.613 . S
S448 N450 1.610 . S
N449 S448 1.613 . S
N449 C452 1.350 . S
N450 S448 1.610 . S
N450 C451 1.351 . S
C451 C445 1.428 . S
C451 N450 1.351 . S
C451 C452 1.434 . S
C452 C443 1.429 . S
C452 N449 1.350 . S
C452 C451 1.434 . S
C453 C454 1.369 1_545 S
C453 C455 1.419 . S
C453 H457 0.930 . S
C454 C453 1.369 1_565 S
C454 C463 1.429 . S
C455 C453 1.419 . S
C455 C456 1.363 . S
C455 H458 0.929 . S
C456 C455 1.363 . S
C456 C462 1.428 1_545 S
H457 C453 0.930 . S
H458 C455 0.929 . S
S459 N460 1.613 . S
S459 N461 1.610 . S
N460 S459 1.613 . S
N460 C463 1.350 . S
N461 S459 1.610 . S
N461 C462 1.351 . S
C462 C456 1.428 1_565 S
C462 N461 1.351 . S
C462 C463 1.434 . S
C463 C454 1.429 . S
C463 N460 1.350 . S
C463 C462 1.434 . S
C289 C39 1.461 . S
C291 C3 1.460 . S
C300 C75 1.461 . S
C302 C111 1.460 . S
C311 C147 1.460 . S
C313 C183 1.459 . S
C322 C219 1.458 . S
C324 C255 1.460 . S
C333 C266 1.372 . S
C335 C14 1.372 . S
C344 C230 1.373 . S
C346 C50 1.372 . S
C355 C86 1.373 . S
C357 C194 1.372 . S
C366 C158 1.372 . S
C368 C122 1.372 . S
C377 C182 1.470 . S
C379 C74 1.475 . S
C388 C146 1.470 . S
C390 C110 1.474 . S
C399 C254 1.476 . S
C401 C2 1.472 . S
C410 C38 1.470 . S
C412 C218 1.475 . S
C421 C4 1.371 . S
C423 C76 1.369 . S
C432 C112 1.372 . S
C434 C40 1.369 . S
C443 C220 1.368 . S
C445 C148 1.372 . S
C454 C184 1.372 . S
C456 C256 1.369 . S
