# Generated by pormake.
# Topology unb, (4)-cn, num edge types: 1
# Building blocks:
#     Node 0, Type 0, BuildingBlock: GALJAG_clean_sbu_0, # of connection points: 4
#     Node 1, Type 0, BuildingBlock: GALJAG_clean_sbu_0, # of connection points: 4
#     Node 2, Type 0, BuildingBlock: GALJAG_clean_sbu_0, # of connection points: 4
#     Node 3, Type 0, BuildingBlock: GALJAG_clean_sbu_0, # of connection points: 4
#     Node 4, Type 0, BuildingBlock: GALJAG_clean_sbu_0, # of connection points: 4
#     Node 5, Type 0, BuildingBlock: GALJAG_clean_sbu_0, # of connection points: 4
#     Node 6, Type 0, BuildingBlock: GALJAG_clean_sbu_0, # of connection points: 4
#     Node 7, Type 0, BuildingBlock: GALJAG_clean_sbu_0, # of connection points: 4
#     Node 8, Type 0, BuildingBlock: GALJAG_clean_sbu_0, # of connection points: 4
#     Node 9, Type 0, BuildingBlock: GALJAG_clean_sbu_0, # of connection points: 4
#     Node 10, Type 0, BuildingBlock: GALJAG_clean_sbu_0, # of connection points: 4
#     Node 11, Type 0, BuildingBlock: GALJAG_clean_sbu_0, # of connection points: 4
#     Node 12, Type 0, BuildingBlock: GALJAG_clean_sbu_0, # of connection points: 4
#     Node 13, Type 0, BuildingBlock: GALJAG_clean_sbu_0, # of connection points: 4
#     Node 14, Type 0, BuildingBlock: GALJAG_clean_sbu_0, # of connection points: 4
#     Node 15, Type 0, BuildingBlock: GALJAG_clean_sbu_0, # of connection points: 4
#     Node 16, Type 0, BuildingBlock: GALJAG_clean_sbu_0, # of connection points: 4
#     Node 17, Type 0, BuildingBlock: GALJAG_clean_sbu_0, # of connection points: 4
#     Edge 18, Type (0, 0), BuildingBlock: MIFKUJ_clean_linker_0, # of connection points: 2
#     Edge 19, Type (0, 0), BuildingBlock: MIFKUJ_clean_linker_0, # of connection points: 2
#     Edge 20, Type (0, 0), BuildingBlock: MIFKUJ_clean_linker_0, # of connection points: 2
#     Edge 21, Type (0, 0), BuildingBlock: MIFKUJ_clean_linker_0, # of connection points: 2
#     Edge 22, Type (0, 0), BuildingBlock: MIFKUJ_clean_linker_0, # of connection points: 2
#     Edge 23, Type (0, 0), BuildingBlock: MIFKUJ_clean_linker_0, # of connection points: 2
#     Edge 24, Type (0, 0), BuildingBlock: MIFKUJ_clean_linker_0, # of connection points: 2
#     Edge 25, Type (0, 0), BuildingBlock: MIFKUJ_clean_linker_0, # of connection points: 2
#     Edge 26, Type (0, 0), BuildingBlock: MIFKUJ_clean_linker_0, # of connection points: 2
#     Edge 27, Type (0, 0), BuildingBlock: MIFKUJ_clean_linker_0, # of connection points: 2
#     Edge 28, Type (0, 0), BuildingBlock: MIFKUJ_clean_linker_0, # of connection points: 2
#     Edge 29, Type (0, 0), BuildingBlock: MIFKUJ_clean_linker_0, # of connection points: 2
#     Edge 30, Type (0, 0), BuildingBlock: MIFKUJ_clean_linker_0, # of connection points: 2
#     Edge 31, Type (0, 0), BuildingBlock: MIFKUJ_clean_linker_0, # of connection points: 2
#     Edge 32, Type (0, 0), BuildingBlock: MIFKUJ_clean_linker_0, # of connection points: 2
#     Edge 33, Type (0, 0), BuildingBlock: MIFKUJ_clean_linker_0, # of connection points: 2
#     Edge 34, Type (0, 0), BuildingBlock: MIFKUJ_clean_linker_0, # of connection points: 2
#     Edge 35, Type (0, 0), BuildingBlock: MIFKUJ_clean_linker_0, # of connection points: 2
#     Edge 36, Type (0, 0), BuildingBlock: MIFKUJ_clean_linker_0, # of connection points: 2
#     Edge 37, Type (0, 0), BuildingBlock: MIFKUJ_clean_linker_0, # of connection points: 2
#     Edge 38, Type (0, 0), BuildingBlock: MIFKUJ_clean_linker_0, # of connection points: 2
#     Edge 39, Type (0, 0), BuildingBlock: MIFKUJ_clean_linker_0, # of connection points: 2
#     Edge 40, Type (0, 0), BuildingBlock: MIFKUJ_clean_linker_0, # of connection points: 2
#     Edge 41, Type (0, 0), BuildingBlock: MIFKUJ_clean_linker_0, # of connection points: 2
#     Edge 42, Type (0, 0), BuildingBlock: MIFKUJ_clean_linker_0, # of connection points: 2
#     Edge 43, Type (0, 0), BuildingBlock: MIFKUJ_clean_linker_0, # of connection points: 2
#     Edge 44, Type (0, 0), BuildingBlock: MIFKUJ_clean_linker_0, # of connection points: 2
#     Edge 45, Type (0, 0), BuildingBlock: MIFKUJ_clean_linker_0, # of connection points: 2
#     Edge 46, Type (0, 0), BuildingBlock: MIFKUJ_clean_linker_0, # of connection points: 2
#     Edge 47, Type (0, 0), BuildingBlock: MIFKUJ_clean_linker_0, # of connection points: 2
#     Edge 48, Type (0, 0), BuildingBlock: MIFKUJ_clean_linker_0, # of connection points: 2
#     Edge 49, Type (0, 0), BuildingBlock: MIFKUJ_clean_linker_0, # of connection points: 2
#     Edge 50, Type (0, 0), BuildingBlock: MIFKUJ_clean_linker_0, # of connection points: 2
#     Edge 51, Type (0, 0), BuildingBlock: MIFKUJ_clean_linker_0, # of connection points: 2
#     Edge 52, Type (0, 0), BuildingBlock: MIFKUJ_clean_linker_0, # of connection points: 2
#     Edge 53, Type (0, 0), BuildingBlock: MIFKUJ_clean_linker_0, # of connection points: 2
# Relax obj value: 0.185
# Max RMSD: 0.140
# Mean RMSD: 0.139
data_MOF--net-unb--node1-GALJAG_clean_sbu_0--edge1-MIFKUJ_clean_linker_0
_symmetry_space_group_name_H-M    P1
_symmetry_Int_Tables_number       1
_symmetry_cell_setting            triclinic
loop_
_symmetry_equiv_pos_as_xyz
'x, y, z'
_cell_length_a     80.099081
_cell_length_b     80.051434
_cell_length_c     34.988249
_cell_angle_alpha  90.027022
_cell_angle_beta   90.023328
_cell_angle_gamma 119.9842
loop_
_atom_site_label
_atom_site_type_symbol
_atom_site_fract_x
_atom_site_fract_y
_atom_site_fract_z
_atom_type_partial_charge
In0 In 0.12779 0.26762 0.08273 0.0
O1 O 0.1358 0.29231 0.1243 0.0
O2 O 0.13296 0.26639 0.14678 0.0
C3 C 0.13773 0.28965 0.01926 0.0
C4 C 0.14564 0.2478 0.06356 0.0
C5 C 0.08908 0.24808 0.08435 0.0
O6 O 0.14852 0.29439 0.04826 0.0
O7 O 0.12199 0.27412 0.02268 0.0
O8 O 0.09897 0.23988 0.08799 0.0
O9 O 0.09877 0.26622 0.08173 0.0
C10 C 0.13662 0.2834 0.15326 0.0
O11 O 0.12764 0.2407 0.06147 0.0
O12 O 0.15465 0.26471 0.07683 0.0
In13 In 0.72875 0.86098 0.08877 0.0
O14 O 0.73828 0.89256 0.10077 0.0
O15 O 0.7516 0.88615 0.05489 0.0
C16 C 0.75079 0.8443 0.08749 0.0
C17 C 0.7099 0.85298 0.15616 0.0
C18 C 0.70627 0.849 0.02578 0.0
O19 O 0.7579 0.86228 0.09105 0.0
O20 O 0.73264 0.8348 0.08668 0.0
O21 O 0.71239 0.83904 0.04186 0.0
O22 O 0.71073 0.86465 0.04243 0.0
C23 C 0.7502 0.89889 0.07352 0.0
O24 O 0.70132 0.84896 0.12441 0.0
O25 O 0.728 0.861 0.15397 0.0
In26 In 0.13181 0.86805 0.07689 0.0
O27 O 0.10098 0.86158 0.08778 0.0
O28 O 0.10484 0.83988 0.06133 0.0
C29 C 0.14915 0.90683 0.07258 0.0
C30 C 0.14016 0.85775 0.14462 0.0
C31 C 0.14433 0.86231 0.0094 0.0
O32 O 0.13141 0.89588 0.06638 0.0
O33 O 0.15813 0.89826 0.082 0.0
O34 O 0.15041 0.85974 0.04093 0.0
O35 O 0.13222 0.86792 0.01213 0.0
C36 C 0.09319 0.84501 0.07289 0.0
O37 O 0.14265 0.85171 0.11306 0.0
O38 O 0.13347 0.86902 0.14207 0.0
In39 In 0.26756 0.13916 0.91765 0.0
O40 O 0.2937 0.15356 0.87838 0.0
O41 O 0.26671 0.13417 0.85317 0.0
C42 C 0.29303 0.15058 0.97553 0.0
C43 C 0.24775 0.15824 0.91557 0.0
C44 C 0.24536 0.10252 0.94214 0.0
O45 O 0.29175 0.13842 0.95097 0.0
O46 O 0.28201 0.15735 0.96991 0.0
O47 O 0.24747 0.11694 0.96065 0.0
O48 O 0.25406 0.10646 0.91048 0.0
C49 C 0.28451 0.14548 0.84833 0.0
O50 O 0.23973 0.14026 0.91053 0.0
O51 O 0.26575 0.16657 0.92009 0.0
In52 In 0.86044 0.12987 0.92172 0.0
O53 O 0.85217 0.14738 0.88288 0.0
O54 O 0.85874 0.12746 0.85659 0.0
C55 C 0.84901 0.13731 0.98881 0.0
C56 C 0.84071 0.09117 0.92767 0.0
C57 C 0.89904 0.15077 0.92873 0.0
O58 O 0.84164 0.13801 0.95738 0.0
O59 O 0.86202 0.1329 0.9862 0.0
O60 O 0.89027 0.13291 0.92174 0.0
O61 O 0.8884 0.1582 0.93046 0.0
C62 C 0.85374 0.13998 0.85227 0.0
O63 O 0.85886 0.10082 0.92644 0.0
O64 O 0.83244 0.10099 0.92433 0.0
In65 In 0.86187 0.7322 0.91171 0.0
O66 O 0.88567 0.75288 0.95153 0.0
O67 O 0.89359 0.74048 0.90641 0.0
C68 C 0.84651 0.75538 0.91246 0.0
C69 C 0.85602 0.71687 0.84083 0.0
C70 C 0.84551 0.70639 0.96889 0.0
O71 O 0.86447 0.76186 0.91385 0.0
O72 O 0.83646 0.73733 0.90851 0.0
O73 O 0.83913 0.71707 0.95766 0.0
O74 O 0.85991 0.70829 0.95056 0.0
C75 C 0.89891 0.75143 0.93525 0.0
O76 O 0.84989 0.70677 0.87064 0.0
O77 O 0.86517 0.73483 0.84663 0.0
In78 In 0.80052 0.60324 0.40864 0.0
O79 O 0.81724 0.63067 0.44415 0.0
O80 O 0.7994 0.60457 0.47371 0.0
C81 C 0.80692 0.62015 0.33933 0.0
C82 C 0.82215 0.58623 0.40567 0.0
C83 C 0.76181 0.5818 0.40284 0.0
O84 O 0.80232 0.62653 0.36801 0.0
O85 O 0.80858 0.60558 0.34581 0.0
O86 O 0.77238 0.57437 0.40649 0.0
O87 O 0.77071 0.59996 0.40359 0.0
C88 C 0.81094 0.62246 0.47586 0.0
O89 O 0.80413 0.57686 0.41086 0.0
O90 O 0.82934 0.6043 0.40333 0.0
In91 In 0.39608 0.19089 0.41425 0.0
O92 O 0.36994 0.1744 0.45289 0.0
O93 O 0.39592 0.19582 0.47851 0.0
C94 C 0.37687 0.17908 0.34731 0.0
C95 C 0.41527 0.22903 0.39883 0.0
C96 C 0.41551 0.17163 0.41851 0.0
O97 O 0.37073 0.18467 0.37486 0.0
O98 O 0.3924 0.17924 0.35378 0.0
O99 O 0.42371 0.18975 0.42201 0.0
O100 O 0.39742 0.16325 0.41471 0.0
C101 C 0.37847 0.18317 0.48301 0.0
O102 O 0.42324 0.21887 0.39816 0.0
O103 O 0.39778 0.2201 0.40849 0.0
In104 In 0.798 0.19888 0.42104 0.0
O105 O 0.80777 0.18199 0.45815 0.0
O106 O 0.80198 0.20213 0.48584 0.0
C107 C 0.80494 0.18754 0.35332 0.0
C108 C 0.75921 0.18001 0.41774 0.0
C109 C 0.81921 0.23751 0.41327 0.0
O110 O 0.81393 0.18806 0.38337 0.0
O111 O 0.79269 0.1929 0.3575 0.0
O112 O 0.80227 0.22914 0.42629 0.0
O113 O 0.8257 0.22645 0.40546 0.0
C114 C 0.80723 0.18975 0.4891 0.0
O115 O 0.76935 0.19811 0.41563 0.0
O116 O 0.76861 0.17145 0.42341 0.0
In117 In 0.93194 0.46559 0.24673 0.0
O118 O 0.95745 0.47705 0.20607 0.0
O119 O 0.92975 0.46648 0.18158 0.0
C120 C 0.95595 0.47306 0.3068 0.0
C121 C 0.91405 0.48611 0.25777 0.0
C122 C 0.90786 0.4277 0.25789 0.0
O123 O 0.95136 0.48498 0.29449 0.0
O124 O 0.94887 0.45754 0.28826 0.0
O125 O 0.90538 0.44053 0.27337 0.0
O126 O 0.92216 0.43398 0.23564 0.0
C127 C 0.94762 0.4739 0.1761 0.0
O128 O 0.90494 0.46803 0.25354 0.0
O129 O 0.93212 0.49387 0.25494 0.0
In130 In 0.53219 0.46106 0.24778 0.0
O131 O 0.52754 0.43055 0.24514 0.0
O132 O 0.50373 0.43384 0.26079 0.0
C133 C 0.571 0.47951 0.25097 0.0
C134 C 0.52379 0.47041 0.17904 0.0
C135 C 0.52451 0.47201 0.31526 0.0
O136 O 0.5607 0.4614 0.25277 0.0
O137 O 0.56174 0.48827 0.24604 0.0
O138 O 0.51595 0.47176 0.28478 0.0
O139 O 0.53686 0.46676 0.3116 0.0
C140 C 0.51016 0.42249 0.25557 0.0
O141 O 0.52389 0.47879 0.20959 0.0
O142 O 0.528 0.45729 0.18303 0.0
In143 In 0.53619 0.06565 0.24186 0.0
O144 O 0.52766 0.04026 0.20172 0.0
O145 O 0.53044 0.06591 0.17791 0.0
C146 C 0.52753 0.0461 0.30835 0.0
C147 C 0.57489 0.08417 0.24087 0.0
C148 C 0.51718 0.08467 0.2576 0.0
O149 O 0.51715 0.03936 0.27892 0.0
O150 O 0.54227 0.06243 0.30397 0.0
O151 O 0.53528 0.09312 0.25459 0.0
O152 O 0.50866 0.0668 0.25102 0.0
C153 C 0.5266 0.04878 0.17234 0.0
O154 O 0.56551 0.09287 0.23654 0.0
O155 O 0.56469 0.06608 0.24375 0.0
In156 In 0.46297 0.93475 0.74021 0.0
O157 O 0.46969 0.96032 0.77897 0.0
O158 O 0.46914 0.936 0.80424 0.0
C159 C 0.47204 0.95643 0.6765 0.0
C160 C 0.48369 0.9169 0.73055 0.0
C161 C 0.42438 0.91246 0.73388 0.0
O162 O 0.48291 0.96164 0.70549 0.0
O163 O 0.45664 0.94053 0.67999 0.0
O164 O 0.43584 0.90647 0.72593 0.0
O165 O 0.43235 0.92951 0.74646 0.0
C166 C 0.47166 0.95272 0.80886 0.0
O167 O 0.46848 0.90964 0.75027 0.0
O168 O 0.48862 0.93324 0.71671 0.0
In169 In 0.05944 0.53 0.74237 0.0
O170 O 0.0867 0.5595 0.74492 0.0
O171 O 0.0599 0.55852 0.73727 0.0
C172 C 0.08357 0.51638 0.72888 0.0
C173 C 0.04119 0.52075 0.81046 0.0
C174 C 0.03696 0.51527 0.67994 0.0
O175 O 0.08496 0.53094 0.71201 0.0
O176 O 0.07032 0.50898 0.75354 0.0
O177 O 0.03999 0.50493 0.70285 0.0
O178 O 0.04474 0.53278 0.68922 0.0
C179 C 0.07799 0.56878 0.73957 0.0
O180 O 0.03234 0.51675 0.77903 0.0
O181 O 0.0593 0.52938 0.80764 0.0
In182 In 0.46698 0.52821 0.74706 0.0
O183 O 0.43797 0.52697 0.7458 0.0
O184 O 0.43796 0.50047 0.74251 0.0
C185 C 0.48715 0.5668 0.73825 0.0
C186 C 0.47514 0.51883 0.81612 0.0
C187 C 0.47658 0.51882 0.67992 0.0
O188 O 0.46957 0.55786 0.74738 0.0
O189 O 0.49476 0.55636 0.73511 0.0
O190 O 0.48506 0.51942 0.71076 0.0
O191 O 0.46336 0.52291 0.68311 0.0
C192 C 0.42821 0.5089 0.74205 0.0
O193 O 0.47464 0.51012 0.7858 0.0
O194 O 0.47146 0.53229 0.81176 0.0
In195 In 0.60018 0.79822 0.59152 0.0
O196 O 0.62588 0.81409 0.5517 0.0
O197 O 0.59822 0.79765 0.52637 0.0
C198 C 0.62568 0.80945 0.64983 0.0
C199 C 0.57853 0.81421 0.60955 0.0
C200 C 0.57887 0.75944 0.59335 0.0
O201 O 0.61777 0.79276 0.63573 0.0
O202 O 0.6212 0.82075 0.63379 0.0
O203 O 0.57157 0.77012 0.59734 0.0
O204 O 0.59674 0.76833 0.58682 0.0
C205 C 0.6161 0.80842 0.52138 0.0
O206 O 0.57847 0.80091 0.62896 0.0
O207 O 0.58929 0.81927 0.58047 0.0
In208 In 0.19447 0.79865 0.57794 0.0
O209 O 0.18395 0.81433 0.53901 0.0
O210 O 0.19201 0.79552 0.51283 0.0
C211 C 0.18536 0.80808 0.64559 0.0
C212 C 0.17424 0.76008 0.58735 0.0
C213 C 0.23325 0.81952 0.58157 0.0
O214 O 0.17864 0.81009 0.61436 0.0
O215 O 0.19648 0.80126 0.64254 0.0
O216 O 0.2243 0.80175 0.57387 0.0
O217 O 0.22267 0.82691 0.58568 0.0
C218 C 0.18577 0.80706 0.50846 0.0
O219 O 0.19231 0.76933 0.5837 0.0
O220 O 0.16625 0.7702 0.58475 0.0
In221 In 0.19914 0.39852 0.58415 0.0
O222 O 0.19058 0.372 0.54706 0.0
O223 O 0.19323 0.39689 0.51994 0.0
C224 C 0.19134 0.37981 0.65144 0.0
C225 C 0.23793 0.4188 0.58689 0.0
C226 C 0.17855 0.4165 0.59341 0.0
O227 O 0.181 0.37241 0.62214 0.0
O228 O 0.20556 0.39648 0.64661 0.0
O229 O 0.19487 0.42458 0.57754 0.0
O230 O 0.17243 0.39928 0.60331 0.0
C231 C 0.18941 0.37966 0.5165 0.0
O232 O 0.22766 0.4266 0.58995 0.0
O233 O 0.22863 0.40086 0.58083 0.0
H234 H 0.18102 0.34273 0.50263 0.0
H235 H 0.17153 0.32533 0.4418 0.0
H236 H 0.17588 0.37556 0.38665 0.0
H237 H 0.18518 0.39298 0.4475 0.0
H238 H 0.14313 0.34293 0.36657 0.0
H239 H 0.21077 0.36395 0.37491 0.0
H240 H 0.24013 0.36737 0.4052 0.0
H241 H 0.2149 0.30579 0.40753 0.0
H242 H 0.18527 0.30198 0.37771 0.0
H243 H 0.14471 0.31959 0.1728 0.0
H244 H 0.1529 0.33454 0.23596 0.0
H245 H 0.14769 0.28243 0.28352 0.0
H246 H 0.13967 0.26739 0.22007 0.0
H247 H 0.1798 0.31433 0.30913 0.0
H248 H 0.11264 0.29325 0.29853 0.0
H249 H 0.08328 0.28975 0.26815 0.0
H250 H 0.10739 0.3512 0.27028 0.0
H251 H 0.13703 0.3551 0.30018 0.0
C252 C 0.17998 0.35007 0.47752 0.0
C253 C 0.18388 0.36922 0.47974 0.0
C254 C 0.17462 0.34014 0.44279 0.0
C255 C 0.17318 0.34922 0.40967 0.0
C256 C 0.17693 0.3683 0.4119 0.0
C257 C 0.1823 0.37825 0.44661 0.0
C258 C 0.16758 0.3388 0.37271 0.0
C259 C 0.15128 0.33687 0.35376 0.0
C260 C 0.1779 0.33042 0.35664 0.0
C261 C 0.19573 0.33268 0.37445 0.0
C262 C 0.21142 0.35113 0.38217 0.0
C263 C 0.22812 0.35314 0.3992 0.0
C264 C 0.22936 0.33681 0.40838 0.0
C265 C 0.21391 0.31843 0.40045 0.0
C266 C 0.19716 0.31633 0.38347 0.0
C267 C 0.14527 0.31128 0.1967 0.0
C268 C 0.14149 0.2923 0.19157 0.0
C269 C 0.14988 0.31983 0.2328 0.0
C270 C 0.15066 0.30951 0.26449 0.0
C271 C 0.1471 0.2906 0.25942 0.0
C272 C 0.14248 0.28203 0.22323 0.0
C273 C 0.15546 0.31864 0.30278 0.0
C274 C 0.1716 0.3203 0.32201 0.0
C275 C 0.14497 0.32676 0.31916 0.0
C276 C 0.12713 0.32447 0.3013 0.0
C277 C 0.11175 0.30603 0.29225 0.0
C278 C 0.09504 0.30397 0.27516 0.0
C279 C 0.09348 0.32025 0.26721 0.0
C280 C 0.10862 0.33861 0.27642 0.0
C281 C 0.12537 0.34075 0.29348 0.0
H282 H 0.08054 0.31862 0.25399 0.0
H283 H 0.2423 0.33839 0.42155 0.0
H284 H 0.59801 0.79804 0.45208 0.0
H285 H 0.61298 0.80621 0.38877 0.0
H286 H 0.6691 0.83863 0.44109 0.0
H287 H 0.65422 0.83077 0.50439 0.0
H288 H 0.66557 0.85781 0.38146 0.0
H289 H 0.6533 0.79353 0.40633 0.0
H290 H 0.63338 0.75912 0.42295 0.0
H291 H 0.59756 0.75 0.32486 0.0
H292 H 0.61713 0.78444 0.30794 0.0
H293 H 0.72547 0.8629 0.22758 0.0
H294 H 0.70829 0.85587 0.28851 0.0
H295 H 0.65392 0.82647 0.22878 0.0
H296 H 0.67102 0.83341 0.16769 0.0
H297 H 0.65522 0.80592 0.29044 0.0
H298 H 0.66866 0.87012 0.264 0.0
H299 H 0.68896 0.90448 0.24737 0.0
H300 H 0.72293 0.91373 0.34845 0.0
H301 H 0.703 0.87935 0.36541 0.0
C302 C 0.61353 0.80696 0.45005 0.0
C303 C 0.62497 0.81371 0.48313 0.0
C304 C 0.62206 0.81156 0.4139 0.0
C305 C 0.64217 0.82284 0.41027 0.0
C306 C 0.65356 0.82989 0.44327 0.0
C307 C 0.64505 0.82534 0.47939 0.0
C308 C 0.65142 0.82713 0.37213 0.0
C309 C 0.66347 0.84647 0.36171 0.0
C310 C 0.6483 0.81232 0.34605 0.0
C311 C 0.63655 0.7916 0.35611 0.0
C312 C 0.64108 0.78422 0.38848 0.0
C313 C 0.62987 0.7647 0.39792 0.0
C314 C 0.61418 0.75239 0.37504 0.0
C315 C 0.6097 0.75956 0.3426 0.0
C316 C 0.62085 0.77907 0.33305 0.0
C317 C 0.70986 0.85496 0.22743 0.0
C318 C 0.69957 0.84873 0.19293 0.0
C319 C 0.70007 0.85102 0.26221 0.0
C320 C 0.67985 0.84081 0.26306 0.0
C321 C 0.66954 0.8344 0.22867 0.0
C322 C 0.67932 0.83841 0.19385 0.0
C323 C 0.66948 0.83659 0.29995 0.0
C324 C 0.65722 0.81726 0.31012 0.0
C325 C 0.67245 0.85141 0.32583 0.0
C326 C 0.68444 0.87211 0.31578 0.0
C327 C 0.68056 0.87945 0.28252 0.0
C328 C 0.69198 0.89893 0.27306 0.0
C329 C 0.70726 0.91127 0.29679 0.0
C330 C 0.71111 0.90415 0.33008 0.0
C331 C 0.69974 0.88467 0.33965 0.0
H332 H 0.71608 0.92635 0.28942 0.0
H333 H 0.60552 0.73729 0.3824 0.0
H334 H 0.18783 0.79269 0.43887 0.0
H335 H 0.17982 0.80057 0.37638 0.0
H336 H 0.16511 0.84001 0.43027 0.0
H337 H 0.17281 0.83197 0.4928 0.0
H338 H 0.1386 0.81804 0.378 0.0
H339 H 0.20784 0.85639 0.38316 0.0
H340 H 0.24084 0.86201 0.39121 0.0
H341 H 0.23236 0.82436 0.29663 0.0
H342 H 0.19919 0.81831 0.28834 0.0
H343 H 0.13759 0.87027 0.21575 0.0
H344 H 0.14514 0.86084 0.27696 0.0
H345 H 0.16024 0.82279 0.21837 0.0
H346 H 0.15306 0.83246 0.15697 0.0
H347 H 0.18617 0.84294 0.27222 0.0
H348 H 0.11733 0.80509 0.26582 0.0
H349 H 0.08425 0.79925 0.25757 0.0
H350 H 0.09178 0.83547 0.35418 0.0
H351 H 0.12501 0.84175 0.36269 0.0
C352 C 0.18289 0.80304 0.43736 0.0
C353 C 0.18099 0.81176 0.47067 0.0
C354 C 0.17839 0.80758 0.40165 0.0
C355 C 0.17206 0.82103 0.39864 0.0
C356 C 0.16998 0.8296 0.43194 0.0
C357 C 0.17444 0.82504 0.46762 0.0
C358 C 0.1675 0.82615 0.36085 0.0
C359 C 0.14907 0.8237 0.355 0.0
C360 C 0.181 0.83305 0.33055 0.0
C361 C 0.20097 0.83674 0.33539 0.0
C362 C 0.21296 0.84919 0.36427 0.0
C363 C 0.2317 0.85248 0.36884 0.0
C364 C 0.23868 0.84351 0.34452 0.0
C365 C 0.22693 0.83128 0.31549 0.0
C366 C 0.20817 0.82793 0.31082 0.0
C367 C 0.1425 0.85988 0.21593 0.0
C368 C 0.14468 0.85205 0.18162 0.0
C369 C 0.14673 0.85444 0.25092 0.0
C370 C 0.15301 0.84091 0.25227 0.0
C371 C 0.15538 0.83322 0.21799 0.0
C372 C 0.15122 0.83872 0.18296 0.0
C373 C 0.15731 0.83496 0.28944 0.0
C374 C 0.17567 0.83722 0.29516 0.0
C375 C 0.14373 0.82784 0.31961 0.0
C376 C 0.12372 0.82403 0.31467 0.0
C377 C 0.11198 0.81193 0.28513 0.0
C378 C 0.0932 0.80852 0.28043 0.0
C379 C 0.08594 0.81702 0.30527 0.0
C380 C 0.09743 0.82891 0.33493 0.0
C381 C 0.11623 0.83238 0.33973 0.0
H382 H 0.07139 0.81436 0.30159 0.0
H383 H 0.25319 0.84607 0.3481 0.0
H384 H 0.34104 0.15674 0.49903 0.0
H385 H 0.32487 0.15002 0.56104 0.0
H386 H 0.37759 0.19356 0.61343 0.0
H387 H 0.39393 0.20019 0.55154 0.0
H388 H 0.36034 0.16095 0.6558 0.0
H389 H 0.34135 0.20256 0.59423 0.0
H390 H 0.32775 0.21296 0.54236 0.0
H391 H 0.27338 0.16065 0.55382 0.0
H392 H 0.28674 0.14981 0.60544 0.0
H393 H 0.32207 0.17069 0.83108 0.0
H394 H 0.33767 0.17658 0.76865 0.0
H395 H 0.2839 0.13401 0.718 0.0
H396 H 0.2681 0.12833 0.78036 0.0
H397 H 0.30133 0.16551 0.67435 0.0
H398 H 0.31998 0.12394 0.73619 0.0
H399 H 0.33344 0.11331 0.78793 0.0
H400 H 0.38821 0.16509 0.77573 0.0
H401 H 0.375 0.17616 0.72425 0.0
C402 C 0.34919 0.16488 0.52377 0.0
C403 C 0.36873 0.17903 0.52047 0.0
C404 C 0.33991 0.16108 0.55913 0.0
C405 C 0.34998 0.17144 0.59174 0.0
C406 C 0.36956 0.18542 0.58859 0.0
C407 C 0.37885 0.18922 0.55323 0.0
C408 C 0.34013 0.16764 0.62922 0.0
C409 C 0.34758 0.16219 0.66001 0.0
C410 C 0.32319 0.16877 0.63438 0.0
C411 C 0.31511 0.1753 0.60344 0.0
C412 C 0.32654 0.19321 0.58549 0.0
C413 C 0.31887 0.1992 0.55617 0.0
C414 C 0.29973 0.18745 0.54473 0.0
C415 C 0.28821 0.16972 0.56267 0.0
C416 C 0.29582 0.16366 0.59198 0.0
C417 C 0.31357 0.16258 0.80665 0.0
C418 C 0.29389 0.149 0.81058 0.0
C419 C 0.32252 0.16589 0.77102 0.0
C420 C 0.31201 0.15554 0.73876 0.0
C421 C 0.29229 0.14212 0.74255 0.0
C422 C 0.2833 0.13886 0.77817 0.0
C423 C 0.32157 0.15888 0.70101 0.0
C424 C 0.31406 0.16424 0.67014 0.0
C425 C 0.33843 0.15761 0.69575 0.0
C426 C 0.34644 0.15096 0.7266 0.0
C427 C 0.33485 0.13313 0.74474 0.0
C428 C 0.34244 0.12701 0.77398 0.0
C429 C 0.36165 0.13854 0.78517 0.0
C430 C 0.37333 0.15619 0.76706 0.0
C431 C 0.3658 0.16238 0.73782 0.0
H432 H 0.36751 0.13378 0.80782 0.0
H433 H 0.29382 0.19212 0.52203 0.0
H434 H 0.80793 0.20509 0.55916 0.0
H435 H 0.81664 0.19675 0.62039 0.0
H436 H 0.82708 0.15495 0.56371 0.0
H437 H 0.81819 0.16307 0.50248 0.0
H438 H 0.80636 0.14048 0.6284 0.0
H439 H 0.86437 0.19765 0.59151 0.0
H440 H 0.88413 0.23141 0.57042 0.0
H441 H 0.86898 0.25081 0.67216 0.0
H442 H 0.8489 0.21713 0.69361 0.0
H443 H 0.85487 0.12513 0.78268 0.0
H444 H 0.84762 0.13381 0.72027 0.0
H445 H 0.83629 0.17561 0.77427 0.0
H446 H 0.84369 0.16713 0.83667 0.0
H447 H 0.85804 0.19 0.71025 0.0
H448 H 0.79953 0.13273 0.74638 0.0
H449 H 0.77978 0.09895 0.76735 0.0
H450 H 0.796 0.07974 0.66676 0.0
H451 H 0.81608 0.11345 0.64544 0.0
C452 C 0.81209 0.19413 0.55978 0.0
C453 C 0.81243 0.18476 0.52609 0.0
C454 C 0.81713 0.18944 0.59471 0.0
C455 C 0.8227 0.17538 0.59648 0.0
C456 C 0.82285 0.16586 0.56292 0.0
C457 C 0.81782 0.17055 0.52799 0.0
C458 C 0.82815 0.17043 0.63343 0.0
C459 C 0.81785 0.15125 0.64606 0.0
C460 C 0.84287 0.18458 0.65674 0.0
C461 C 0.85498 0.20485 0.64398 0.0
C462 C 0.86512 0.20911 0.60924 0.0
C463 C 0.8764 0.22823 0.59725 0.0
C464 C 0.87777 0.24324 0.61989 0.0
C465 C 0.86789 0.23917 0.65463 0.0
C466 C 0.85657 0.22006 0.66673 0.0
C467 C 0.85087 0.13619 0.78121 0.0
C468 C 0.84977 0.14541 0.8145 0.0
C469 C 0.84668 0.14109 0.7456 0.0
C470 C 0.84124 0.15521 0.74275 0.0
C471 C 0.84045 0.16466 0.77589 0.0
C472 C 0.84462 0.15976 0.81149 0.0
C473 C 0.83621 0.16007 0.70525 0.0
C474 C 0.84659 0.17923 0.69252 0.0
C475 C 0.82157 0.14591 0.68183 0.0
C476 C 0.80946 0.12562 0.69453 0.0
C477 C 0.79901 0.12131 0.72889 0.0
C478 C 0.78774 0.10218 0.74081 0.0
C479 C 0.78668 0.08721 0.71845 0.0
C480 C 0.79686 0.09135 0.68407 0.0
C481 C 0.80818 0.11046 0.67205 0.0
H482 H 0.77794 0.0724 0.72773 0.0
H483 H 0.88651 0.25804 0.61056 0.0
H484 H 0.83758 0.6787 0.82276 0.0
H485 H 0.83181 0.66422 0.75923 0.0
H486 H 0.8611 0.72086 0.70833 0.0
H487 H 0.86679 0.73551 0.77204 0.0
H488 H 0.82762 0.69697 0.67149 0.0
H489 H 0.88325 0.6947 0.71257 0.0
H490 H 0.90312 0.68769 0.75627 0.0
H491 H 0.86145 0.62725 0.75128 0.0
H492 H 0.84118 0.63393 0.70796 0.0
H493 H 0.83255 0.66135 0.48695 0.0
H494 H 0.84162 0.67867 0.54799 0.0
H495 H 0.81123 0.62462 0.60847 0.0
H496 H 0.8021 0.60721 0.54759 0.0
H497 H 0.8474 0.64904 0.63857 0.0
H498 H 0.79111 0.65183 0.60008 0.0
H499 H 0.77139 0.65904 0.55634 0.0
H500 H 0.81493 0.71893 0.55612 0.0
H501 H 0.83504 0.71203 0.59948 0.0
C502 C 0.84284 0.68809 0.79806 0.0
C503 C 0.85268 0.70824 0.80233 0.0
C504 C 0.8396 0.67979 0.76179 0.0
C505 C 0.84624 0.69147 0.7291 0.0
C506 C 0.85592 0.71161 0.73322 0.0
C507 C 0.85919 0.71994 0.76958 0.0
C508 C 0.84271 0.68254 0.69068 0.0
C509 C 0.83224 0.68675 0.66403 0.0
C510 C 0.84845 0.66894 0.68126 0.0
C511 C 0.86061 0.66485 0.70727 0.0
C512 C 0.87824 0.67993 0.72103 0.0
C513 C 0.88959 0.67601 0.74569 0.0
C514 C 0.88353 0.65704 0.75661 0.0
C515 C 0.86612 0.64194 0.74282 0.0
C516 C 0.8547 0.64578 0.71818 0.0
C517 C 0.82781 0.65317 0.51327 0.0
C518 C 0.81657 0.63294 0.51257 0.0
C519 C 0.83296 0.66308 0.54806 0.0
C520 C 0.82698 0.65291 0.58267 0.0
C521 C 0.81598 0.63271 0.58203 0.0
C522 C 0.81072 0.6228 0.54727 0.0
C523 C 0.83213 0.66331 0.61963 0.0
C524 C 0.84292 0.65937 0.64598 0.0
C525 C 0.82675 0.67719 0.6287 0.0
C526 C 0.81467 0.68137 0.60267 0.0
C527 C 0.79656 0.66651 0.59043 0.0
C528 C 0.78529 0.67054 0.56576 0.0
C529 C 0.79193 0.68942 0.55336 0.0
C530 C 0.80982 0.70431 0.56569 0.0
C531 C 0.82115 0.70035 0.59033 0.0
H532 H 0.78318 0.69252 0.53428 0.0
H533 H 0.89234 0.65403 0.7757 0.0
H534 H 0.98569 0.49016 0.1587 0.0
H535 H 0.00052 0.49816 0.09546 0.0
H536 H 0.94453 0.47651 0.04371 0.0
H537 H 0.92951 0.46824 0.1071 0.0
H538 H 0.96618 0.46409 0.00635 0.0
H539 H 0.97442 0.52428 0.051 0.0
H540 H 0.98401 0.5511 0.09649 0.0
H541 H 0.0428 0.56395 0.09078 0.0
H542 H 0.03352 0.53703 0.04564 0.0
H543 H 0.00252 0.50383 0.82294 0.0
H544 H 0.98581 0.49586 0.88442 0.0
H545 H 0.04027 0.51826 0.94304 0.0
H546 H 0.05711 0.5266 0.88161 0.0
H547 H 0.01815 0.53052 0.97591 0.0
H548 H 0.00974 0.46967 0.93311 0.0
H549 H 0.00018 0.4427 0.88799 0.0
H550 H 0.94172 0.43104 0.89041 0.0
H551 H 0.95099 0.45811 0.93518 0.0
C552 C 0.97653 0.48711 0.13387 0.0
C553 C 0.95646 0.47864 0.13779 0.0
C554 C 0.98503 0.49176 0.09779 0.0
C555 C 0.97364 0.48815 0.06498 0.0
C556 C 0.95356 0.47946 0.06873 0.0
C557 C 0.94503 0.47479 0.1049 0.0
C558 C 0.98277 0.4933 0.02679 0.0
C559 C 0.97733 0.47867 -0.00057 0.0
C560 C 0.99759 0.51225 0.01818 0.0
C561 C 0.00324 0.52852 0.04518 0.0
C562 C 0.98937 0.53273 0.05966 0.0
C563 C 0.99475 0.54797 0.08535 0.0
C564 C 0.01399 0.55919 0.09659 0.0
C565 C 0.0279 0.55523 0.08208 0.0
C566 C 0.02259 0.54 0.05641 0.0
C567 C 0.01093 0.50703 0.84894 0.0
C568 C 0.03111 0.51579 0.84754 0.0
C569 C 0.00135 0.5024 0.88402 0.0
C570 C 0.01178 0.50627 0.91826 0.0
C571 C 0.03195 0.51514 0.91692 0.0
C572 C 0.04155 0.51984 0.88185 0.0
C573 C 0.0017 0.50127 0.95556 0.0
C574 C 0.00695 0.51595 0.98276 0.0
C575 C 0.98671 0.48236 0.96401 0.0
C576 C 0.9811 0.46604 0.93719 0.0
C577 C 0.99488 0.46145 0.92379 0.0
C578 C 0.98951 0.44613 0.89832 0.0
C579 C 0.97037 0.4352 0.88626 0.0
C580 C 0.95655 0.43954 0.89973 0.0
C581 C 0.96185 0.45486 0.92517 0.0
H582 H 0.96624 0.42334 0.86654 0.0
H583 H 0.01813 0.57098 0.11648 0.0
H584 H 0.52143 0.45359 0.10981 0.0
H585 H 0.51314 0.46196 0.04815 0.0
H586 H 0.50723 0.50718 0.10227 0.0
H587 H 0.51519 0.49868 0.16407 0.0
H588 H 0.47797 0.48678 0.05419 0.0
H589 H 0.54695 0.51758 0.04909 0.0
H590 H 0.57854 0.51937 0.05316 0.0
H591 H 0.56229 0.4781 0.96216 0.0
H592 H 0.53049 0.47586 0.95789 0.0
H593 H 0.47767 0.53593 0.88511 0.0
H594 H 0.48585 0.52763 0.94697 0.0
H595 H 0.49123 0.48194 0.89361 0.0
H596 H 0.48333 0.49033 0.83163 0.0
H597 H 0.5208 0.50272 0.94138 0.0
H598 H 0.45174 0.47198 0.94664 0.0
H599 H 0.42023 0.47037 0.94263 0.0
H600 H 0.43677 0.51179 0.03342 0.0
H601 H 0.4685 0.51385 0.03762 0.0
C602 C 0.51839 0.46533 0.10853 0.0
C603 C 0.519 0.47552 0.1417 0.0
C604 C 0.51373 0.47015 0.07328 0.0
C605 C 0.50977 0.48533 0.07056 0.0
C606 C 0.51025 0.49542 0.10372 0.0
C607 C 0.51486 0.49059 0.13897 0.0
C608 C 0.50494 0.49059 0.03321 0.0
C609 C 0.48745 0.49052 0.02965 0.0
C610 C 0.51713 0.49506 0.001 0.0
C611 C 0.53627 0.49642 0.00343 0.0
C612 C 0.55005 0.50877 0.03015 0.0
C613 C 0.56801 0.50989 0.03246 0.0
C614 C 0.5724 0.49882 0.008 0.0
C615 C 0.55886 0.48664 0.98112 0.0
C616 C 0.54087 0.48546 0.97872 0.0
C617 C 0.48056 0.52409 0.8866 0.0
C618 C 0.47982 0.51374 0.85359 0.0
C619 C 0.48516 0.51932 0.92196 0.0
C620 C 0.48896 0.50404 0.92493 0.0
C621 C 0.48834 0.49377 0.89194 0.0
C622 C 0.48376 0.49855 0.8566 0.0
C623 C 0.49382 0.49888 0.96234 0.0
C624 C 0.51132 0.49898 0.96592 0.0
C625 C 0.48166 0.49447 0.99457 0.0
C626 C 0.46257 0.49321 0.99218 0.0
C627 C 0.44872 0.48086 0.96554 0.0
C628 C 0.43081 0.47985 0.96327 0.0
C629 C 0.42652 0.49101 0.98768 0.0
C630 C 0.44012 0.50317 0.01449 0.0
C631 C 0.45806 0.50426 0.01685 0.0
H632 H 0.41265 0.4902 0.98589 0.0
H633 H 0.58631 0.4997 0.00983 0.0
H634 H 0.52105 0.06332 0.10597 0.0
H635 H 0.51162 0.04731 0.04363 0.0
H636 H 0.51031 0.99697 0.09126 0.0
H637 H 0.51983 0.0129 0.15354 0.0
H638 H 0.52882 0.00715 0.02256 0.0
H639 H 0.46905 0.99685 0.07552 0.0
H640 H 0.44715 0.00656 0.10462 0.0
H641 H 0.45305 0.04112 0.00621 0.0
H642 H 0.47522 0.03183 0.97674 0.0
H643 H 0.47774 0.93953 0.87632 0.0
H644 H 0.48714 0.95647 0.93762 0.0
H645 H 0.48694 0.00546 0.88675 0.0
H646 H 0.47734 0.9885 0.8254 0.0
H647 H 0.4696 0.99678 0.95624 0.0
H648 H 0.52894 0.00675 0.90274 0.0
H649 H 0.55089 0.99716 0.87353 0.0
H650 H 0.54603 0.96348 0.97276 0.0
H651 H 0.52381 0.97265 0.00236 0.0
C652 C 0.51877 0.04885 0.10311 0.0
C653 C 0.52113 0.03933 0.13459 0.0
C654 C 0.51332 0.03971 0.06756 0.0
C655 C 0.51011 0.0209 0.06296 0.0
C656 C 0.51271 0.01148 0.09424 0.0
C657 C 0.51809 0.02058 0.1298 0.0
C658 C 0.50411 0.01102 0.0255 0.0
C659 C 0.51576 0.00466 0.00825 0.0
C660 C 0.48731 0.00824 0.00649 0.0
C661 C 0.47396 0.01381 0.02411 0.0
C662 C 0.46581 0.00666 0.06022 0.0
C663 C 0.45332 0.01205 0.07676 0.0
C664 C 0.44875 0.02449 0.05732 0.0
C665 C 0.45663 0.03151 0.02126 0.0
C666 C 0.46914 0.02618 0.00461 0.0
C667 C 0.47966 0.95389 0.87822 0.0
C668 C 0.47688 0.96274 0.84608 0.0
C669 C 0.4851 0.96358 0.9132 0.0
C670 C 0.48796 0.98231 0.91658 0.0
C671 C 0.48485 0.99103 0.8847 0.0
C672 C 0.47941 0.98135 0.84969 0.0
C673 C 0.49426 0.9928 0.95339 0.0
C674 C 0.48269 -0.0007 0.9705 0.0
C675 C 0.51115 0.99575 0.97227 0.0
C676 C 0.52456 0.99024 0.9546 0.0
C677 C 0.53242 0.99717 0.9182 0.0
C678 C 0.54494 0.99183 0.9016 0.0
C679 C 0.54982 0.97967 0.92123 0.0
C680 C 0.54222 0.97287 0.95756 0.0
C681 C 0.52968 0.97815 0.97428 0.0
H682 H 0.55951 0.97556 0.90833 0.0
H683 H 0.43908 0.02865 0.07017 0.0
H684 H 0.11632 0.28185 0.95457 0.0
H685 H 0.12645 0.2982 0.89301 0.0
H686 H 0.18208 0.33833 0.94045 0.0
H687 H 0.17195 0.32208 0.00254 0.0
H688 H 0.16745 0.35594 0.89356 0.0
H689 H 0.17784 0.30189 0.88844 0.0
H690 H 0.16863 0.26769 0.89533 0.0
H691 H 0.12432 0.25182 0.81081 0.0
H692 H 0.13307 0.28591 0.80383 0.0
H693 H 0.21353 0.39142 0.71557 0.0
H694 H 0.20529 0.37656 0.77883 0.0
H695 H 0.15037 0.33213 0.73571 0.0
H696 H 0.15876 0.34668 0.67203 0.0
H697 H 0.16591 0.31714 0.78149 0.0
H698 H 0.15462 0.3707 0.7876 0.0
H699 H 0.16315 0.40474 0.78108 0.0
H700 H 0.20843 0.4214 0.86368 0.0
H701 H 0.20034 0.38748 0.8703 0.0
C702 C 0.13066 0.29425 0.95203 0.0
C703 C 0.14342 0.30062 0.98323 0.0
C704 C 0.13643 0.30353 0.91682 0.0
C705 C 0.1551 0.31925 0.91211 0.0
C706 C 0.16764 0.32615 0.94357 0.0
C707 C 0.16185 0.31686 0.97892 0.0
C708 C 0.16162 0.32804 0.87395 0.0
C709 C 0.16741 0.34757 0.86912 0.0
C710 C 0.16115 0.31694 0.84206 0.0
C711 C 0.15601 0.29644 0.84585 0.0
C712 C 0.16604 0.2911 0.87151 0.0
C713 C 0.16092 0.27173 0.87541 0.0
C714 C 0.14587 0.25759 0.85358 0.0
C715 C 0.13596 0.26279 0.82772 0.0
C716 C 0.14101 0.28213 0.82375 0.0
C717 C 0.19974 0.37842 0.71954 0.0
C718 C 0.18672 0.37023 0.689 0.0
C719 C 0.19502 0.37001 0.75572 0.0
C720 C 0.17708 0.35345 0.76211 0.0
C721 C 0.16426 0.34496 0.7314 0.0
C722 C 0.16905 0.35328 0.69509 0.0
C723 C 0.1716 0.34505 0.80089 0.0
C724 C 0.16603 0.32557 0.80589 0.0
C725 C 0.1722 0.35619 0.83289 0.0
C726 C 0.17699 0.37658 0.82916 0.0
C727 C 0.16649 0.38164 0.80417 0.0
C728 C 0.17123 0.40091 0.80049 0.0
C729 C 0.18635 0.41523 0.82188 0.0
C730 C 0.19673 0.4103 0.84709 0.0
C731 C 0.19207 0.39106 0.85084 0.0
H732 H 0.19 0.43014 0.81899 0.0
H733 H 0.14192 0.2426 0.85665 0.0
H734 H 0.63656 0.7871 0.6892 0.0
H735 H 0.65218 0.79384 0.75181 0.0
H736 H 0.65652 0.84978 0.75264 0.0
H737 H 0.64113 0.84324 0.68973 0.0
H738 H 0.68874 0.85083 0.78254 0.0
H739 H 0.61958 0.81247 0.79705 0.0
H740 H 0.58752 0.7843 0.78453 0.0
H741 H 0.60657 0.74662 0.82888 0.0
H742 H 0.63885 0.77457 0.84117 0.0
H743 H 0.69684 0.87081 0.98061 0.0
H744 H 0.68441 0.8637 0.91518 0.0
H745 H 0.68207 0.80873 0.92038 0.0
H746 H 0.69451 0.81572 0.98583 0.0
H747 H 0.64984 0.8063 0.8868 0.0
H748 H 0.71817 0.8448 0.87781 0.0
H749 H 0.75042 0.87274 0.88954 0.0
H750 H 0.73381 0.90986 0.83325 0.0
H751 H 0.70121 0.88229 0.82249 0.0
C752 C 0.64113 0.80096 0.70245 0.0
C753 C 0.63749 0.81459 0.68481 0.0
C754 C 0.64997 0.80475 0.73824 0.0
C755 C 0.65516 0.82216 0.75708 0.0
C756 C 0.65254 0.83623 0.73859 0.0
C757 C 0.64373 0.83246 0.70271 0.0
C758 C 0.66218 0.82522 0.797 0.0
C759 C 0.68019 0.84125 0.80547 0.0
C760 C 0.65115 0.81237 0.8266 0.0
C761 C 0.63168 0.79559 0.81967 0.0
C762 C 0.61697 0.79817 0.8039 0.0
C763 C 0.59875 0.78224 0.79687 0.0
C764 C 0.59503 0.76368 0.80581 0.0
C765 C 0.60949 0.76101 0.82192 0.0
C766 C 0.62774 0.77688 0.82895 0.0
C767 C 0.69343 0.8571 0.96799 0.0
C768 C 0.69664 0.84381 0.98824 0.0
C769 C 0.68646 0.85312 0.93058 0.0
C770 C 0.68258 0.83581 0.91288 0.0
C771 C 0.68504 0.82219 0.93357 0.0
C772 C 0.69212 0.8262 0.97091 0.0
C773 C 0.67633 0.83209 0.87251 0.0
C774 C 0.65846 0.81589 0.86393 0.0
C775 C 0.68753 0.84478 0.84284 0.0
C776 C 0.70711 0.86147 0.84979 0.0
C777 C 0.72127 0.85896 0.86846 0.0
C778 C 0.73964 0.87475 0.87494 0.0
C779 C 0.74414 0.8931 0.86238 0.0
C780 C 0.73028 0.89567 0.84321 0.0
C781 C 0.71183 0.87998 0.83702 0.0
H782 H 0.75838 0.9053 0.86734 0.0
H783 H 0.58092 0.75137 0.80033 0.0
H784 H 0.1329 0.86701 0.93899 0.0
H785 H 0.14068 0.85839 0.87726 0.0
H786 H 0.17626 0.83946 0.93354 0.0
H787 H 0.16869 0.84829 0.99562 0.0
H788 H 0.19314 0.86007 0.8685 0.0
H789 H 0.13181 0.80689 0.9051 0.0
H790 H 0.09803 0.79129 0.92675 0.0
H791 H 0.08273 0.81152 0.82641 0.0
H792 H 0.1165 0.8275 0.80443 0.0
H793 H 0.19852 0.80506 0.71549 0.0
H794 H 0.19201 0.81489 0.7772 0.0
H795 H 0.156 0.83356 0.7218 0.0
H796 H 0.1623 0.82353 0.65982 0.0
H797 H 0.1395 0.81312 0.78656 0.0
H798 H 0.2009 0.8662 0.74982 0.0
H799 H 0.23469 0.88173 0.72826 0.0
H800 H 0.24989 0.86156 0.82882 0.0
H801 H 0.21611 0.84566 0.85073 0.0
C802 C 0.14248 0.86113 0.93824 0.0
C803 C 0.1501 0.8582 0.97211 0.0
C804 C 0.14685 0.85615 0.90297 0.0
C805 C 0.1588 0.84802 0.90093 0.0
C806 C 0.16695 0.84565 0.93457 0.0
C807 C 0.16259 0.85066 0.96996 0.0
C808 C 0.1624 0.84161 0.86369 0.0
C809 C 0.18145 0.84961 0.85078 0.0
C810 C 0.14708 0.82827 0.84031 0.0
C811 C 0.12672 0.81854 0.8533 0.0
C812 C 0.12127 0.80813 0.88779 0.0
C813 C 0.10212 0.79921 0.9001 0.0
C814 C 0.08825 0.80046 0.87802 0.0
C815 C 0.09349 0.81059 0.84351 0.0
C816 C 0.11263 0.81957 0.8311 0.0
C817 C 0.18919 0.81123 0.71643 0.0
C818 C 0.18097 0.81361 0.68285 0.0
C819 C 0.18555 0.81691 0.75169 0.0
C820 C 0.17373 0.82519 0.75397 0.0
C821 C 0.16521 0.82726 0.72058 0.0
C822 C 0.16885 0.82156 0.68524 0.0
C823 C 0.17024 0.83162 0.79129 0.0
C824 C 0.1512 0.82359 0.80425 0.0
C825 C 0.18558 0.84492 0.8147 0.0
C826 C 0.20593 0.85458 0.80173 0.0
C827 C 0.21141 0.86495 0.7672 0.0
C828 C 0.23057 0.87384 0.75493 0.0
C829 C 0.24442 0.87259 0.77711 0.0
C830 C 0.23914 0.86249 0.81165 0.0
C831 C 0.22 0.85356 0.82402 0.0
H832 H 0.25924 0.87948 0.76756 0.0
H833 H 0.07343 0.79354 0.8876 0.0
H834 H 0.38446 0.16154 0.28872 0.0
H835 H 0.37066 0.15504 0.22447 0.0
H836 H 0.33472 0.17886 0.25609 0.0
H837 H 0.34806 0.18483 0.32087 0.0
H838 H 0.31511 0.14793 0.21315 0.0
H839 H 0.37754 0.20533 0.20579 0.0
H840 H 0.41278 0.22466 0.21433 0.0
H841 H 0.42033 0.1859 0.14101 0.0
H842 H 0.3851 0.16619 0.13244 0.0
H843 H 0.29431 0.17295 0.03508 0.0
H844 H 0.30983 0.17653 0.09694 0.0
H845 H 0.33346 0.14158 0.05767 0.0
H846 H 0.31774 0.13771 0.99542 0.0
H847 H 0.35951 0.17587 0.10267 0.0
H848 H 0.29652 0.11965 0.10738 0.0
H849 H 0.26133 0.10164 0.09765 0.0
H850 H 0.25493 0.13949 0.17567 0.0
H851 H 0.29015 0.15796 0.18533 0.0
C852 C 0.37349 0.16524 0.28205 0.0
C853 C 0.3674 0.17381 0.30963 0.0
C854 C 0.36569 0.1616 0.24529 0.0
C855 C 0.35195 0.16683 0.23526 0.0
C856 C 0.34537 0.17478 0.26319 0.0
C857 C 0.353 0.1782 0.30014 0.0
C858 C 0.34479 0.16448 0.19545 0.0
C859 C 0.32483 0.15419 0.18908 0.0
C860 C 0.35749 0.17227 0.16389 0.0
C861 C 0.37868 0.18418 0.1688 0.0
C862 C 0.38671 0.20086 0.1917 0.0
C863 C 0.40668 0.21189 0.19652 0.0
C864 C 0.41878 0.20648 0.1783 0.0
C865 C 0.41094 0.19006 0.15514 0.0
C866 C 0.39097 0.17896 0.15028 0.0
C867 C 0.30304 0.16625 0.03933 0.0
C868 C 0.30472 0.15493 0.01055 0.0
C869 C 0.31184 0.16828 0.0747 0.0
C870 C 0.32254 0.15912 0.08184 0.0
C871 C 0.32518 0.14869 0.05255 0.0
C872 C 0.31621 0.1465 0.01713 0.0
C873 C 0.32992 0.15959 0.12071 0.0
C874 C 0.34987 0.1695 0.12682 0.0
C875 C 0.31723 0.15156 0.15207 0.0
C876 C 0.296 0.1403 0.14682 0.0
C877 C 0.28763 0.12423 0.12224 0.0
C878 C 0.26767 0.11393 0.11676 0.0
C879 C 0.2559 0.11944 0.13598 0.0
C880 C 0.26407 0.13525 0.16078 0.0
C881 C 0.28403 0.14563 0.16629 0.0
H882 H 0.24045 0.11145 0.1317 0.0
H883 H 0.43424 0.21504 0.18207 0.0
H884 H 0.8644 0.13826 0.05857 0.0
H885 H 0.8551 0.14545 0.1201 0.0
H886 H 0.81086 0.15251 0.06475 0.0
H887 H 0.8204 0.14568 0.00271 0.0
H888 H 0.83097 0.18105 0.11461 0.0
H889 H 0.7995 0.11206 0.11686 0.0
H890 H 0.79729 0.08031 0.11108 0.0
H891 H 0.83801 0.0949 0.20257 0.0
H892 H 0.8407 0.12686 0.20855 0.0
H893 H 0.78594 0.18379 0.28655 0.0
H894 H 0.79185 0.17377 0.22445 0.0
H895 H 0.83765 0.16719 0.2736 0.0
H896 H 0.83158 0.1769 0.33611 0.0
H897 H 0.81511 0.13747 0.22625 0.0
H898 H 0.84786 0.20679 0.22172 0.0
H899 H 0.85041 0.23868 0.22772 0.0
H900 H 0.80748 0.22341 0.14039 0.0
H901 H 0.80449 0.19131 0.13426 0.0
C902 C 0.85265 0.14129 0.05948 0.0
C903 C 0.84308 0.14139 0.0259 0.0
C904 C 0.84729 0.14529 0.09469 0.0
C905 C 0.83211 0.14923 0.09705 0.0
C906 C 0.82257 0.14943 0.06352 0.0
C907 C 0.828 0.1455 0.02818 0.0
C908 C 0.82661 0.15368 0.13447 0.0
C909 C 0.82717 0.17137 0.13885 0.0
C910 C 0.82212 0.14123 0.16628 0.0
C911 C 0.8204 0.12193 0.16296 0.0
C912 C 0.80808 0.10855 0.13559 0.0
C913 C 0.80673 0.09051 0.1323 0.0
C914 C 0.81752 0.0856 0.15642 0.0
C915 C 0.82967 0.09872 0.18391 0.0
C916 C 0.83109 0.1168 0.18729 0.0
C917 C 0.79725 0.18018 0.28415 0.0
C918 C 0.8084 0.18124 0.31606 0.0
C919 C 0.80063 0.1745 0.24865 0.0
C920 C 0.81534 0.16998 0.24437 0.0
C921 C 0.82625 0.17065 0.27635 0.0
C922 C 0.82282 0.17627 0.31195 0.0
C923 C 0.81956 0.16485 0.20636 0.0
C924 C 0.81878 0.14706 0.2019 0.0
C925 C 0.82388 0.17721 0.17446 0.0
C926 C 0.82582 0.19658 0.1778 0.0
C927 C 0.83887 0.21018 0.20399 0.0
C928 C 0.84041 0.2283 0.20739 0.0
C929 C 0.82908 0.23305 0.18453 0.0
C930 C 0.81623 0.21971 0.15812 0.0
C931 C 0.81462 0.20155 0.15465 0.0
H932 H 0.83028 0.24708 0.18722 0.0
H933 H 0.81644 0.07162 0.15386 0.0
H934 H 0.81693 0.70299 0.01597 0.0
H935 H 0.80726 0.68614 0.07725 0.0
H936 H 0.84743 0.66572 0.06095 0.0
H937 H 0.85718 0.68252 -0.00053 0.0
H938 H 0.8116 0.63786 0.09241 0.0
H939 H 0.86112 0.7046 0.11254 0.0
H940 H 0.87463 0.73968 0.10535 0.0
H941 H 0.82574 0.7359 0.1638 0.0
H942 H 0.8118 0.70073 0.17087 0.0
H943 H 0.8252 0.61491 0.27914 0.0
H944 H 0.82899 0.62801 0.21476 0.0
H945 H 0.7975 0.65652 0.2476 0.0
H946 H 0.79447 0.64411 0.31276 0.0
H947 H 0.82636 0.67975 0.20665 0.0
H948 H 0.77679 0.61415 0.18939 0.0
H949 H 0.76097 0.57869 0.19344 0.0
H950 H 0.80702 0.57965 0.12902 0.0
H951 H 0.82312 0.61511 0.12447 0.0
C952 C 0.82349 0.69466 0.02514 0.0
C953 C 0.83792 0.69417 0.00315 0.0
C954 C 0.81798 0.6851 0.06016 0.0
C955 C 0.82683 0.67494 0.07372 0.0
C956 C 0.84048 0.67355 0.0509 0.0
C957 C 0.84606 0.68317 0.01589 0.0
C958 C 0.82284 0.66688 0.11279 0.0
C959 C 0.81496 0.64697 0.11749 0.0
C960 C 0.82671 0.6788 0.14527 0.0
C961 C 0.83534 0.70002 0.14193 0.0
C962 C 0.85321 0.71124 0.12369 0.0
C963 C 0.86094 0.73113 0.11964 0.0
C964 C 0.85103 0.74001 0.13403 0.0
C965 C 0.83339 0.72901 0.15264 0.0
C966 C 0.82558 0.70909 0.15671 0.0
C967 C 0.81912 0.62401 0.27262 0.0
C968 C 0.80953 0.62851 0.30083 0.0
C969 C 0.82113 0.63134 0.23571 0.0
C970 C 0.81314 0.6429 0.22601 0.0
C971 C 0.80371 0.64757 0.25435 0.0
C972 C 0.802 0.64051 0.29153 0.0
C973 C 0.81519 0.65057 0.18662 0.0
C974 C 0.82279 0.67049 0.18175 0.0
C975 C 0.81079 0.6386 0.15396 0.0
C976 C 0.80123 0.61729 0.15688 0.0
C977 C 0.78361 0.6068 0.17632 0.0
C978 C 0.77458 0.58671 0.17866 0.0
C979 C 0.78304 0.57694 0.16172 0.0
C980 C 0.8005 0.58723 0.14219 0.0
C981 C 0.80955 0.60732 0.13961 0.0
H982 H 0.77602 0.56138 0.1636 0.0
H983 H 0.85702 0.7554 0.13083 0.0
H984 H 0.96364 0.44763 0.34391 0.0
H985 H 0.97936 0.45216 0.40616 0.0
H986 H 0.98888 0.51015 0.4117 0.0
H987 H 0.97344 0.50581 0.34946 0.0
H988 H 0.01985 0.50831 0.4377 0.0
H989 H 0.95025 0.4731 0.45592 0.0
H990 H 0.9174 0.44588 0.44494 0.0
H991 H 0.93474 0.40625 0.48572 0.0
H992 H 0.96776 0.43325 0.49662 0.0
H993 H 0.02793 0.53486 0.62836 0.0
H994 H 0.01509 0.52455 0.56405 0.0
H995 H 0.01098 0.46939 0.58348 0.0
H996 H 0.02363 0.47955 0.6484 0.0
H997 H 0.97973 0.46619 0.54374 0.0
H998 H 0.04821 0.50218 0.53462 0.0
H999 H 0.08065 0.52966 0.54751 0.0
H1000 H 0.06581 0.56774 0.48962 0.0
H1001 H 0.03316 0.54053 0.47688 0.0
C1002 C 0.96937 0.46144 0.35817 0.0
C1003 C 0.96725 0.47636 0.34202 0.0
C1004 C 0.97825 0.46397 0.39374 0.0
C1005 C 0.98505 0.48141 0.41367 0.0
C1006 C 0.98371 0.49658 0.39676 0.0
C1007 C 0.97484 0.49407 0.36128 0.0
C1008 C 0.9926 0.48369 0.45305 0.0
C1009 C 0.01108 0.49915 0.46091 0.0
C1010 C 0.98134 0.47135 0.48308 0.0
C1011 C 0.96149 0.45515 0.47676 0.0
C1012 C 0.94707 0.45857 0.46235 0.0
C1013 C 0.92842 0.44319 0.45622 0.0
C1014 C 0.92398 0.42435 0.46469 0.0
C1015 C 0.93819 0.42085 0.47927 0.0
C1016 C 0.95687 0.43618 0.48545 0.0
C1017 C 0.02406 0.52044 0.61916 0.0
C1018 C 0.02691 0.50805 0.6432 0.0
C1019 C 0.01682 0.51461 0.58237 0.0
C1020 C 0.0125 0.49638 0.56883 0.0
C1021 C 0.01438 0.48357 0.5934 0.0
C1022 C 0.02158 0.48939 0.63039 0.0
C1023 C 0.00673 0.49117 0.5285 0.0
C1024 C 0.98865 0.47515 0.52046 0.0
C1025 C 0.01838 0.50296 0.49825 0.0
C1026 C 0.03818 0.51931 0.505 0.0
C1027 C 0.05183 0.51643 0.52479 0.0
C1028 C 0.07026 0.53196 0.53207 0.0
C1029 C 0.07528 0.55045 0.51946 0.0
C1030 C 0.0619 0.55342 0.49938 0.0
C1031 C 0.04343 0.53794 0.49207 0.0
H1032 H 0.08954 0.56246 0.5252 0.0
H1033 H 0.90954 0.41246 0.45985 0.0
H1034 H 0.50526 0.51068 0.66493 0.0
H1035 H 0.51384 0.50295 0.60283 0.0
H1036 H 0.46828 0.50841 0.54923 0.0
H1037 H 0.45952 0.51594 0.61112 0.0
H1038 H 0.46867 0.47661 0.52482 0.0
H1039 H 0.51445 0.54394 0.54106 0.0
H1040 H 0.53973 0.57256 0.57453 0.0
H1041 H 0.57687 0.54823 0.57277 0.0
H1042 H 0.55168 0.51932 0.53975 0.0
H1043 H 0.49694 0.48151 0.33136 0.0
H1044 H 0.48927 0.48977 0.39381 0.0
H1045 H 0.53455 0.48319 0.44559 0.0
H1046 H 0.5424 0.47509 0.38325 0.0
H1047 H 0.53454 0.51537 0.47124 0.0
H1048 H 0.48873 0.4481 0.45461 0.0
H1049 H 0.46342 0.41956 0.42099 0.0
H1050 H 0.42629 0.44389 0.42344 0.0
H1051 H 0.4515 0.47273 0.4566 0.0
C1052 C 0.49708 0.51021 0.63989 0.0
C1053 C 0.48176 0.51395 0.64279 0.0
C1054 C 0.50203 0.50587 0.60446 0.0
C1055 C 0.49179 0.50529 0.57142 0.0
C1056 C 0.47635 0.5088 0.57439 0.0
C1057 C 0.47141 0.51315 0.60973 0.0
C1058 C 0.49709 0.50096 0.53368 0.0
C1059 C 0.483 0.48522 0.51288 0.0
C1060 C 0.51591 0.51198 0.51857 0.0
C1061 C 0.5311 0.52938 0.53829 0.0
C1062 C 0.52794 0.54462 0.54809 0.0
C1063 C 0.54227 0.56091 0.56693 0.0
C1064 C 0.55987 0.56219 0.57587 0.0
C1065 C 0.56321 0.5472 0.56588 0.0
C1066 C 0.54892 0.53087 0.54708 0.0
C1067 C 0.50528 0.48189 0.35605 0.0
C1068 C 0.52019 0.47757 0.35254 0.0
C1069 C 0.50086 0.48654 0.39168 0.0
C1070 C 0.51121 0.48687 0.42433 0.0
C1071 C 0.52637 0.48297 0.42072 0.0
C1072 C 0.53078 0.47829 0.38514 0.0
C1073 C 0.5061 0.49107 0.46236 0.0
C1074 C 0.52021 0.50676 0.48322 0.0
C1075 C 0.4873 0.48002 0.47753 0.0
C1076 C 0.47208 0.46266 0.45775 0.0
C1077 C 0.47523 0.44744 0.4477 0.0
C1078 C 0.46089 0.43119 0.42878 0.0
C1079 C 0.44328 0.42994 0.41999 0.0
C1080 C 0.43995 0.4449 0.43021 0.0
C1081 C 0.45425 0.46119 0.4491 0.0
H1082 H 0.43219 0.41735 0.40534 0.0
H1083 H 0.57095 0.57481 0.59045 0.0
H1084 H 0.50635 0.98833 0.65827 0.0
H1085 H 0.51599 0.0043 0.59599 0.0
H1086 H 0.4595 0.96491 0.55096 0.0
H1087 H 0.44992 0.9487 0.61281 0.0
H1088 H 0.48698 0.96741 0.50457 0.0
H1089 H 0.47351 0.01216 0.57022 0.0
H1090 H 0.47637 0.03424 0.62226 0.0
H1091 H 0.537 0.06931 0.60023 0.0
H1092 H 0.53455 0.0473 0.54836 0.0
H1093 H 0.4936 0.01445 0.32884 0.0
H1094 H 0.48455 -0.00038 0.39213 0.0
H1095 H 0.54104 0.0406 0.43501 0.0
H1096 H 0.54996 0.0558 0.37208 0.0
H1097 H 0.51418 0.03752 0.48287 0.0
H1098 H 0.52774 0.993 0.41712 0.0
H1099 H 0.52502 0.97096 0.36513 0.0
H1100 H 0.46449 0.93542 0.38757 0.0
H1101 H 0.46679 0.95739 0.43939 0.0
C1102 C 0.49594 0.98324 0.63518 0.0
C1103 C 0.47741 0.96727 0.64029 0.0
C1104 C 0.50144 0.9924 0.59968 0.0
C1105 C 0.48842 0.98584 0.56892 0.0
C1106 C 0.46978 0.97016 0.5743 0.0
C1107 C 0.46431 0.96097 0.60966 0.0
C1108 C 0.49444 0.99468 0.53059 0.0
C1109 C 0.49269 0.98271 0.49971 0.0
C1110 C 0.50239 0.0147 0.52453 0.0
C1111 C 0.50388 0.02797 0.55566 0.0
C1112 C 0.48748 0.0245 0.57667 0.0
C1113 C 0.48902 0.03701 0.6061 0.0
C1114 C 0.50687 0.05314 0.61461 0.0
C1115 C 0.52319 0.0568 0.59364 0.0
C1116 C 0.52173 0.04432 0.5642 0.0
C1117 C 0.50412 0.02016 0.3517 0.0
C1118 C 0.52246 0.03623 0.34561 0.0
C1119 C 0.49897 0.01167 0.38781 0.0
C1120 C 0.51219 0.0189 0.41821 0.0
C1121 C 0.53061 0.03481 0.41198 0.0
C1122 C 0.5357 0.04342 0.37601 0.0
C1123 C 0.50663 0.01023 0.45679 0.0
C1124 C 0.50849 0.02223 0.48773 0.0
C1125 C 0.49881 0.99022 0.46295 0.0
C1126 C 0.49741 0.97694 0.43191 0.0
C1127 C 0.51382 0.98056 0.41079 0.0
C1128 C 0.51236 0.96807 0.38138 0.0
C1129 C 0.49459 0.95183 0.37299 0.0
C1130 C 0.47824 0.94802 0.39407 0.0
C1131 C 0.47962 0.96047 0.42349 0.0
H1132 H 0.49348 0.94217 0.35021 0.0
H1133 H 0.50803 0.06281 0.6374 0.0
H1134 H 0.12925 0.21312 0.02703 0.0
H1135 H 0.14566 0.19778 0.99685 0.0
H1136 H 0.20047 0.2444 0.03523 0.0
H1137 H 0.18414 0.26006 0.06484 0.0
H1138 H 0.20181 0.23604 0.96119 0.0
H1139 H 0.17899 0.19991 0.07869 0.0
H1140 H 0.15441 0.18007 0.12656 0.0
H1141 H 0.12332 0.13662 0.04171 0.0
H1142 H 0.1476 0.15632 0.99321 0.0
H1143 H 0.26155 0.19514 0.93963 0.0
H1144 H 0.24291 0.21024 0.95851 0.0
H1145 H 0.19055 0.1595 0.92254 0.0
H1146 H 0.20916 0.14399 0.90482 0.0
H1147 H 0.18613 0.16918 0.9909 0.0
H1148 H 0.20982 0.2039 0.87416 0.0
H1149 H 0.23409 0.22355 0.82569 0.0
H1150 H 0.26303 0.26937 0.90713 0.0
H1151 H 0.23909 0.2499 0.95628 0.0
C1152 C 0.14478 0.22001 0.02939 0.0
C1153 C 0.15543 0.23775 0.04842 0.0
C1154 C 0.15413 0.21121 0.01215 0.0
C1155 C 0.17427 0.21988 0.01403 0.0
C1156 C 0.18492 0.23749 0.03341 0.0
C1157 C 0.17557 0.24635 0.0505 0.0
C1158 C 0.1843 0.21079 0.99516 0.0
C1159 C 0.19856 0.2215 0.96794 0.0
C1160 C 0.17954 0.19158 0.00303 0.0
C1161 C 0.16501 0.17968 0.03225 0.0
C1162 C 0.16684 0.18619 0.07019 0.0
C1163 C 0.15298 0.17496 0.09744 0.0
C1164 C 0.13729 0.15712 0.08716 0.0
C1165 C 0.13547 0.15045 0.04963 0.0
C1166 C 0.14928 0.16163 0.02225 0.0
C1167 C 0.2461 0.18733 0.93503 0.0
C1168 C 0.23679 0.16837 0.92085 0.0
C1169 C 0.23545 0.19603 0.94568 0.0
C1170 C 0.21532 0.18608 0.94167 0.0
C1171 C 0.20607 0.16744 0.92592 0.0
C1172 C 0.21671 0.15863 0.91566 0.0
C1173 C 0.20388 0.1945 0.95712 0.0
C1174 C 0.18931 0.18366 0.98376 0.0
C1175 C 0.20831 0.21357 0.94855 0.0
C1176 C 0.22272 0.22536 0.919 0.0
C1177 C 0.22143 0.21811 0.88183 0.0
C1178 C 0.23512 0.22923 0.85421 0.0
C1179 C 0.25011 0.24768 0.86334 0.0
C1180 C 0.25142 0.25507 0.9001 0.0
C1181 C 0.23777 0.24401 0.92783 0.0
H1182 H 0.2607 0.25627 0.84193 0.0
H1183 H 0.12657 0.14845 0.1083 0.0
H1184 H 0.80172 0.06716 0.93127 0.0
H1185 H 0.78464 0.03411 0.9561 0.0
H1186 H 0.83886 0.03569 0.97117 0.0
H1187 H 0.856 0.0686 0.94628 0.0
H1188 H 0.78318 -0.00047 0.9356 0.0
H1189 H 0.8372 0.01711 0.0613 0.0
H1190 H 0.8591 0.04519 0.10074 0.0
H1191 H 0.82463 0.07141 0.07833 0.0
H1192 H 0.80226 0.0433 0.03969 0.0
H1193 H 0.77397 0.91469 0.01245 0.0
H1194 H 0.78802 0.94767 0.98873 0.0
H1195 H 0.76324 0.96216 0.08358 0.0
H1196 H 0.74909 0.92907 0.10768 0.0
H1197 H 0.80036 0.99089 0.06769 0.0
H1198 H 0.74122 0.9535 0.00196 0.0
H1199 H 0.71672 0.92578 0.96516 0.0
H1200 H 0.7565 0.94011 0.87206 0.0
H1201 H 0.78137 0.96771 0.9086 0.0
C1202 C 0.80995 0.06032 0.93926 0.0
C1203 C 0.83018 0.07046 0.9371 0.0
C1204 C 0.80018 0.04148 0.95338 0.0
C1205 C 0.81055 0.03265 0.96592 0.0
C1206 C 0.83066 0.0424 0.96202 0.0
C1207 C 0.84041 0.06115 0.94766 0.0
C1208 C 0.80055 0.01368 0.98506 0.0
C1209 C 0.78692 0.99761 0.96444 0.0
C1210 C 0.80502 0.01138 0.02316 0.0
C1211 C 0.81817 0.02816 0.04722 0.0
C1212 C 0.83422 0.0288 0.065 0.0
C1213 C 0.84671 0.04473 0.08726 0.0
C1214 C 0.84328 0.06009 0.09202 0.0
C1215 C 0.82729 0.05952 0.07465 0.0
C1216 C 0.81471 0.04359 0.05255 0.0
C1217 C 0.77169 0.92494 0.02854 0.0
C1218 C 0.76035 0.9193 0.0618 0.0
C1219 C 0.77965 0.94374 0.01486 0.0
C1220 C 0.77641 0.95722 0.03413 0.0
C1221 C 0.76582 0.95191 0.06827 0.0
C1222 C 0.75776 0.93303 0.08195 0.0
C1223 C 0.78357 0.97663 0.01767 0.0
C1224 C 0.79661 0.9928 0.03885 0.0
C1225 C 0.77816 0.97909 0.98047 0.0
C1226 C 0.76321 0.9626 0.95816 0.0
C1227 C 0.7448 0.95065 0.97376 0.0
C1228 C 0.73083 0.93496 0.95294 0.0
C1229 C 0.73505 0.93115 0.91633 0.0
C1230 C 0.75324 0.94305 0.90044 0.0
C1231 C 0.76728 0.95873 0.92119 0.0
H1232 H 0.72418 0.91903 0.90028 0.0
H1233 H 0.85298 0.07242 0.10919 0.0
H1234 H 0.91378 0.77782 0.99274 0.0
H1235 H 0.94638 0.79305 0.01922 0.0
H1236 H 0.96152 0.76213 0.93831 0.0
H1237 H 0.92886 0.74682 0.91155 0.0
H1238 H 0.97286 0.76062 0.01353 0.0
H1239 H 0.97721 0.80821 0.92344 0.0
H1240 H 0.9673 0.82999 0.89447 0.0
H1241 H 0.97673 0.85978 0.00138 0.0
H1242 H 0.98645 0.83799 0.03114 0.0
H1243 H 0.07447 0.81258 0.02949 0.0
H1244 H 0.04065 0.79578 0.01059 0.0
H1245 H 0.03073 0.83426 0.08105 0.0
H1246 H 0.06485 0.8516 0.09903 0.0
H1247 H 0.01587 0.83164 0.01394 0.0
H1248 H 0.01262 0.78554 0.10435 0.0
H1249 H 0.02201 0.76374 0.13508 0.0
H1250 H 0.00985 0.73107 0.03123 0.0
H1251 H 0.00063 0.75282 -0.00032 0.0
C1252 C 0.92408 0.77434 0.98043 0.0
C1253 C 0.91883 0.76119 0.95 0.0
C1254 C 0.94268 0.78306 0.99558 0.0
C1255 C 0.95634 0.77876 0.98058 0.0
C1256 C 0.95114 0.76561 0.95024 0.0
C1257 C 0.93255 0.75697 0.93488 0.0
C1258 C 0.97602 0.78793 0.9968 0.0
C1259 C 0.9824 0.77613 0.01327 0.0
C1260 C 0.98813 0.80818 0.99751 0.0
C1261 C 0.98237 0.82135 0.9796 0.0
C1262 C 0.97702 0.8193 0.94085 0.0
C1263 C 0.97147 0.83167 0.92427 0.0
C1264 C 0.97134 0.84623 0.9461 0.0
C1265 C 0.97681 0.84848 0.98452 0.0
C1266 C 0.98236 0.83614 0.00125 0.0
C1267 C 0.06503 0.81728 0.04146 0.0
C1268 C 0.07228 0.83341 0.06572 0.0
C1269 C 0.04565 0.8076 0.03075 0.0
C1270 C 0.03307 0.81362 0.04468 0.0
C1271 C 0.04017 0.82936 0.06993 0.0
C1272 C 0.05963 0.83921 0.08031 0.0
C1273 C 0.01288 0.80436 0.03071 0.0
C1274 C 0.00636 0.81613 0.01456 0.0
C1275 C 0.00059 0.78408 0.03065 0.0
C1276 C 0.00608 0.77092 0.04955 0.0
C1277 C 0.01208 0.77379 0.08797 0.0
C1278 C 0.01735 0.76143 0.10555 0.0
C1279 C 0.01656 0.74606 0.0851 0.0
C1280 C 0.01046 0.74299 0.04703 0.0
C1281 C 0.00519 0.75532 0.0293 0.0
H1282 H 0.02065 0.7365 0.09877 0.0
H1283 H 0.96703 0.85579 0.93321 0.0
H1284 H 0.86503 0.79331 0.9333 0.0
H1285 H 0.85038 0.81086 0.96173 0.0
H1286 H 0.79382 0.76178 0.94265 0.0
H1287 H 0.80833 0.74422 0.91392 0.0
H1288 H 0.79424 0.7957 0.93125 0.0
H1289 H 0.81499 0.76689 0.02703 0.0
H1290 H 0.83833 0.76032 0.06003 0.0
H1291 H 0.87386 0.82059 0.08549 0.0
H1292 H 0.85082 0.82754 0.05222 0.0
H1293 H 0.738 0.80673 0.06995 0.0
H1294 H 0.75659 0.79353 0.04062 0.0
H1295 H 0.80863 0.84851 0.05303 0.0
H1296 H 0.79007 0.86196 0.08226 0.0
H1297 H 0.81226 0.81409 0.06701 0.0
H1298 H 0.78901 0.84182 0.97328 0.0
H1299 H 0.76385 0.84656 0.94313 0.0
H1300 H 0.73135 0.78626 0.91572 0.0
H1301 H 0.75619 0.7811 0.9463 0.0
C1302 C 0.84946 0.78645 0.93428 0.0
C1303 C 0.83781 0.76734 0.92175 0.0
C1304 C 0.84113 0.79644 0.95073 0.0
C1305 C 0.82105 0.78745 0.95495 0.0
C1306 C 0.80935 0.76893 0.93981 0.0
C1307 C 0.81767 0.75892 0.92342 0.0
C1308 C 0.81227 0.79662 0.97785 0.0
C1309 C 0.79813 0.79964 0.96094 0.0
C1310 C 0.81749 0.80191 0.01654 0.0
C1311 C 0.8313 0.79777 0.03676 0.0
C1312 C 0.82786 0.77876 0.03941 0.0
C1313 C 0.84101 0.77496 0.05821 0.0
C1314 C 0.8576 0.79004 0.07472 0.0
C1315 C 0.86103 0.80894 0.07261 0.0
C1316 C 0.84792 0.81281 0.05382 0.0
C1317 C 0.75347 0.81591 0.06733 0.0
C1318 C 0.76257 0.83544 0.078 0.0
C1319 C 0.76404 0.80835 0.05047 0.0
C1320 C 0.78387 0.82017 0.04419 0.0
C1321 C 0.7933 0.83923 0.05758 0.0
C1322 C 0.78269 0.84687 0.07424 0.0
C1323 C 0.79425 0.81307 0.02039 0.0
C1324 C 0.80861 0.81038 0.03717 0.0
C1325 C 0.7891 0.8079 0.98169 0.0
C1326 C 0.77439 0.81105 0.96237 0.0
C1327 C 0.77644 0.82955 0.96104 0.0
C1328 C 0.76224 0.83232 0.94386 0.0
C1329 C 0.74599 0.81671 0.9276 0.0
C1330 C 0.74395 0.79833 0.92836 0.0
C1331 C 0.75809 0.79548 0.94557 0.0
H1332 H 0.73499 0.81888 0.91438 0.0
H1333 H 0.86778 0.78709 0.08923 0.0
H1334 H 0.18616 0.9339 0.09072 0.0
H1335 H 0.20275 0.96836 0.07555 0.0
H1336 H 0.15083 0.96125 0.02291 0.0
H1337 H 0.13407 0.92707 0.03926 0.0
H1338 H 0.2115 0.98544 0.01073 0.0
H1339 H 0.1485 0.00172 0.026 0.0
H1340 H 0.12004 0.99204 0.06691 0.0
H1341 H 0.14646 0.97681 0.15681 0.0
H1342 H 0.17518 0.98664 0.11666 0.0
H1343 H 0.23387 0.06857 0.90449 0.0
H1344 H 0.21744 0.03604 0.93162 0.0
H1345 H 0.21709 0.05964 0.0424 0.0
H1346 H 0.2328 0.09203 0.01511 0.0
H1347 H 0.18464 0.02862 0.03276 0.0
H1348 H 0.25022 0.04514 0.01876 0.0
H1349 H 0.28115 0.05641 0.98545 0.0
H1350 H 0.254 0.00873 0.90744 0.0
H1351 H 0.22282 0.99731 0.93997 0.0
C1352 C 0.17824 0.93979 0.07644 0.0
C1353 C 0.15882 0.92785 0.06627 0.0
C1354 C 0.18774 0.95945 0.06766 0.0
C1355 C 0.17802 0.96747 0.04835 0.0
C1356 C 0.15855 0.95554 0.03855 0.0
C1357 C 0.14899 0.93596 0.04776 0.0
C1358 C 0.18846 0.98803 0.03648 0.0
C1359 C 0.20566 0.99489 0.01574 0.0
C1360 C 0.18109 0.00055 0.04364 0.0
C1361 C 0.16393 0.99476 0.06814 0.0
C1362 C 0.14827 0.99638 0.05455 0.0
C1363 C 0.13209 0.99085 0.0776 0.0
C1364 C 0.13142 0.98376 0.11439 0.0
C1365 C 0.14697 0.98224 0.12825 0.0
C1366 C 0.16319 0.98776 0.10534 0.0
C1367 C 0.23015 0.06676 0.93455 0.0
C1368 C 0.23463 0.08279 0.95771 0.0
C1369 C 0.22088 0.0482 0.95009 0.0
C1370 C 0.21633 0.04541 0.98923 0.0
C1371 C 0.22045 0.06141 0.01217 0.0
C1372 C 0.22946 0.07992 0.99653 0.0
C1373 C 0.20743 0.02584 0.00635 0.0
C1374 C 0.19052 0.01918 0.02799 0.0
C1375 C 0.21541 0.01372 0.00116 0.0
C1376 C 0.23415 0.02047 0.98161 0.0
C1377 C 0.25081 0.03713 0.99434 0.0
C1378 C 0.2684 0.04354 0.97563 0.0
C1379 C 0.26953 0.03332 0.9443 0.0
C1380 C 0.25309 0.01664 0.93169 0.0
C1381 C 0.23547 0.01018 0.95028 0.0
H1382 H 0.28315 0.0383 0.92985 0.0
H1383 H 0.11887 0.97948 0.13218 0.0
H1384 H 0.92035 0.18869 0.9485 0.0
H1385 H 0.95286 0.20515 0.9754 0.0
H1386 H 0.95654 0.15357 0.96071 0.0
H1387 H 0.92391 0.13692 0.93413 0.0
H1388 H 0.9663 0.16789 0.03246 0.0
H1389 H 0.98283 0.19258 0.90486 0.0
H1390 H 0.98071 0.20834 0.846 0.0
H1391 H 0.99587 0.26003 0.90912 0.0
H1392 H 0.99783 0.24448 0.96849 0.0
H1393 H 0.06653 0.20946 0.07214 0.0
H1394 H 0.03351 0.19267 0.04806 0.0
H1395 H 0.03132 0.24535 0.05618 0.0
H1396 H 0.0646 0.26236 0.07922 0.0
H1397 H 0.02058 0.23029 0.98793 0.0
H1398 H 0.00428 0.20576 0.11567 0.0
H1399 H 0.00636 0.18999 0.17457 0.0
H1400 H 0.9907 0.13812 0.11172 0.0
H1401 H 0.98877 0.15366 0.05231 0.0
C1402 C 0.92822 0.18096 0.95035 0.0
C1403 C 0.91961 0.16152 0.93928 0.0
C1404 C 0.94679 0.19039 0.9657 0.0
C1405 C 0.9571 0.18057 0.97 0.0
C1406 C 0.94879 0.16137 0.95771 0.0
C1407 C 0.93021 0.15193 0.94233 0.0
C1408 C 0.97607 0.19002 0.98937 0.0
C1409 C 0.97829 0.1814 0.02246 0.0
C1410 C 0.99146 0.2079 0.97687 0.0
C1411 C 0.9903 0.21729 0.94119 0.0
C1412 C 0.98555 0.20725 0.90626 0.0
C1413 C 0.98441 0.21616 0.87279 0.0
C1414 C 0.9881 0.23516 0.87384 0.0
C1415 C 0.99299 0.2453 0.90836 0.0
C1416 C 0.99414 0.23645 0.94192 0.0
C1417 C 0.05886 0.21736 0.06965 0.0
C1418 C 0.06814 0.23723 0.07738 0.0
C1419 C 0.03996 0.20773 0.05593 0.0
C1420 C 0.02991 0.21775 0.05036 0.0
C1421 C 0.03883 0.23736 0.0601 0.0
C1422 C 0.05779 0.24704 0.07345 0.0
C1423 C 0.01084 0.20823 0.03123 0.0
C1424 C 0.0086 0.21681 -0.00191 0.0
C1425 C 0.99543 0.19033 0.04374 0.0
C1426 C 0.99655 0.18094 0.07946 0.0
C1427 C 0.00143 0.19104 0.11434 0.0
C1428 C 0.00255 0.18213 0.14784 0.0
C1429 C -0.00129 0.16308 0.14687 0.0
C1430 C 0.99369 0.15288 0.11242 0.0
C1431 C 0.99255 0.16172 0.07884 0.0
H1432 H -0.00041 0.15622 0.17283 0.0
H1433 H 0.98722 0.24203 0.84789 0.0
H1434 H 0.80937 0.54765 0.40561 0.0
H1435 H 0.82676 0.53166 0.38346 0.0
H1436 H 0.87768 0.58703 0.36532 0.0
H1437 H 0.86026 0.60315 0.38701 0.0
H1438 H 0.86933 0.56468 0.30347 0.0
H1439 H 0.87618 0.55752 0.43676 0.0
H1440 H 0.86575 0.54897 0.50366 0.0
H1441 H 0.82935 0.48975 0.47124 0.0
H1442 H 0.83935 0.498 0.404 0.0
H1443 H 0.93043 0.52511 0.26498 0.0
H1444 H 0.91559 0.54292 0.29134 0.0
H1445 H 0.86172 0.48969 0.30429 0.0
H1446 H 0.87645 0.47177 0.27788 0.0
H1447 H 0.87317 0.51203 0.37018 0.0
H1448 H 0.86581 0.52003 0.2361 0.0
H1449 H 0.87683 0.529 0.16959 0.0
H1450 H 0.91518 0.5874 0.20468 0.0
H1451 H 0.90458 0.57871 0.27153 0.0
C1452 C 0.82437 0.55642 0.39757 0.0
C1453 C 0.83345 0.57665 0.39794 0.0
C1454 C 0.83431 0.54726 0.385 0.0
C1455 C 0.85353 0.55816 0.37284 0.0
C1456 C 0.86284 0.57836 0.37453 0.0
C1457 C 0.8529 0.58754 0.3871 0.0
C1458 C 0.86339 0.54845 0.35577 0.0
C1459 C 0.87049 0.55341 0.31833 0.0
C1460 C 0.86448 0.53345 0.37484 0.0
C1461 C 0.85839 0.52842 0.41525 0.0
C1462 C 0.86582 0.5427 0.44382 0.0
C1463 C 0.86002 0.53791 0.48182 0.0
C1464 C 0.84686 0.51884 0.49168 0.0
C1465 C 0.83952 0.50452 0.46355 0.0
C1466 C 0.84527 0.50925 0.4255 0.0
C1467 C 0.91535 0.51724 0.27294 0.0
C1468 C 0.90458 0.49706 0.26936 0.0
C1469 C 0.90691 0.52742 0.28797 0.0
C1470 C 0.88758 0.51759 0.29974 0.0
C1471 C 0.87668 0.4975 0.29543 0.0
C1472 C 0.88507 0.48732 0.28014 0.0
C1473 C 0.87893 0.52819 0.31789 0.0
C1474 C 0.87208 0.52339 0.35548 0.0
C1475 C 0.87816 0.54341 0.29906 0.0
C1476 C 0.88456 0.54866 0.25888 0.0
C1477 C 0.87673 0.53474 0.22969 0.0
C1478 C 0.88287 0.53979 0.19192 0.0
C1479 C 0.89674 0.55875 0.18293 0.0
C1480 C 0.90446 0.57272 0.21169 0.0
C1481 C 0.89838 0.56774 0.24952 0.0
H1482 H 0.90147 0.56263 0.15366 0.0
H1483 H 0.84239 0.51515 0.52112 0.0
H1484 H 0.52153 0.39565 0.24991 0.0
H1485 H 0.50407 0.36222 0.27197 0.0
H1486 H 0.45585 0.3691 0.30417 0.0
H1487 H 0.47335 0.40264 0.28259 0.0
H1488 H 0.46591 0.35354 0.36104 0.0
H1489 H 0.45285 0.34165 0.22752 0.0
H1490 H 0.46051 0.34406 0.1588 0.0
H1491 H 0.49516 0.31774 0.17806 0.0
H1492 H 0.48793 0.31543 0.24702 0.0
H1493 H 0.40125 0.25387 0.39909 0.0
H1494 H 0.41684 0.28672 0.37361 0.0
H1495 H 0.46707 0.28277 0.34431 0.0
H1496 H 0.45155 0.24989 0.36961 0.0
H1497 H 0.45497 0.29657 0.28517 0.0
H1498 H 0.46855 0.30936 0.41915 0.0
H1499 H 0.46064 0.30693 0.48775 0.0
H1500 H 0.42454 0.3315 0.46711 0.0
H1501 H 0.43202 0.33384 0.39825 0.0
C1502 C 0.5071 0.38995 0.26117 0.0
C1503 C 0.4988 0.40174 0.26457 0.0
C1504 C 0.49712 0.37084 0.27367 0.0
C1505 C 0.47862 0.36315 0.28956 0.0
C1506 C 0.47011 0.37476 0.29204 0.0
C1507 C 0.48009 0.39388 0.27954 0.0
C1508 C 0.46866 0.34339 0.30564 0.0
C1509 C 0.46322 0.34103 0.34427 0.0
C1510 C 0.4656 0.32716 0.28398 0.0
C1511 C 0.46999 0.32854 0.24251 0.0
C1512 C 0.46224 0.33653 0.21716 0.0
C1513 C 0.46648 0.33785 0.17815 0.0
C1514 C 0.47836 0.3311 0.16408 0.0
C1515 C 0.48598 0.32299 0.189 0.0
C1516 C 0.4818 0.32165 0.22805 0.0
C1517 C 0.41569 0.26008 0.38758 0.0
C1518 C 0.42521 0.24936 0.3864 0.0
C1519 C 0.42458 0.27884 0.37307 0.0
C1520 C 0.44312 0.28717 0.3572 0.0
C1521 C 0.45273 0.27656 0.35639 0.0
C1522 C 0.4439 0.25785 0.37104 0.0
C1523 C 0.45231 0.30678 0.34054 0.0
C1524 C 0.45761 0.30909 0.30184 0.0
C1525 C 0.4552 0.32296 0.36208 0.0
C1526 C 0.45068 0.32158 0.40348 0.0
C1527 C 0.45879 0.31409 0.42918 0.0
C1528 C 0.45441 0.31276 0.46813 0.0
C1529 C 0.44205 0.319 0.48177 0.0
C1530 C 0.43408 0.32664 0.4565 0.0
C1531 C 0.4384 0.32798 0.41751 0.0
H1532 H 0.43868 0.31797 0.51193 0.0
H1533 H 0.48162 0.33213 0.13387 0.0
H1534 H 0.5973 0.0684 0.25731 0.0
H1535 H 0.62955 0.08496 0.28537 0.0
H1536 H 0.63159 0.13954 0.27271 0.0
H1537 H 0.59932 0.12309 0.24439 0.0
H1538 H 0.66737 0.14174 0.25995 0.0
H1539 H 0.6164 0.11702 0.35345 0.0
H1540 H 0.58647 0.09153 0.38283 0.0
H1541 H 0.61411 0.05854 0.40705 0.0
H1542 H 0.64411 0.08369 0.37712 0.0
H1543 H 0.73699 0.19557 0.39795 0.0
H1544 H 0.70515 0.17882 0.36812 0.0
H1545 H 0.70323 0.12441 0.38313 0.0
H1546 H 0.73509 0.14106 0.41323 0.0
H1547 H 0.66748 0.12187 0.39441 0.0
H1548 H 0.71833 0.14629 0.30129 0.0
H1549 H 0.74821 0.17136 0.27103 0.0
H1550 H 0.7209 0.20456 0.24579 0.0
H1551 H 0.69093 0.1798 0.27645 0.0
C1552 C 0.60481 0.08398 0.25955 0.0
C1553 C 0.59572 0.09445 0.24915 0.0
C1554 C 0.62319 0.09339 0.27571 0.0
C1555 C 0.63271 0.11338 0.28178 0.0
C1556 C 0.62438 0.12407 0.26842 0.0
C1557 C 0.60596 0.11466 0.25227 0.0
C1558 C 0.65034 0.1228 0.30547 0.0
C1559 C 0.66737 0.13756 0.28944 0.0
C1560 C 0.65031 0.11707 0.34379 0.0
C1561 C 0.63244 0.10216 0.36271 0.0
C1562 C 0.61606 0.10428 0.36482 0.0
C1563 C 0.59908 0.08989 0.38158 0.0
C1564 C 0.59837 0.0734 0.39672 0.0
C1565 C 0.61467 0.07131 0.39526 0.0
C1566 C 0.63167 0.08563 0.37841 0.0
C1567 C 0.7296 0.17999 0.39574 0.0
C1568 C 0.73859 0.16963 0.40751 0.0
C1569 C 0.71146 0.17047 0.37855 0.0
C1570 C 0.70208 0.15046 0.37278 0.0
C1571 C 0.71034 0.13989 0.38717 0.0
C1572 C 0.72852 0.14942 0.40434 0.0
C1573 C 0.68451 0.14085 0.3489 0.0
C1574 C 0.66749 0.12605 0.36491 0.0
C1575 C 0.68455 0.14651 0.31054 0.0
C1576 C 0.70244 0.16128 0.2915 0.0
C1577 C 0.71874 0.159 0.28952 0.0
C1578 C 0.73569 0.17314 0.27228 0.0
C1579 C 0.73647 0.18957 0.25659 0.0
C1580 C 0.72028 0.19184 0.258 0.0
C1581 C 0.7033 0.17775 0.27528 0.0
H1582 H 0.74961 0.20051 0.24327 0.0
H1583 H 0.58521 0.06227 0.40963 0.0
H1584 H 0.47845 0.06925 0.26658 0.0
H1585 H 0.46175 0.08435 0.29662 0.0
H1586 H 0.51597 0.13706 0.31144 0.0
H1587 H 0.53283 0.12197 0.28163 0.0
H1588 H 0.49471 0.12641 0.37682 0.0
H1589 H 0.48476 0.13474 0.24506 0.0
H1590 H 0.4752 0.12482 0.1782 0.0
H1591 H 0.41715 0.08586 0.21407 0.0
H1592 H 0.42643 0.09535 0.28125 0.0
H1593 H 0.45457 0.18697 0.41879 0.0
H1594 H 0.47233 0.1714 0.39607 0.0
H1595 H 0.41882 0.11797 0.38115 0.0
H1596 H 0.40096 0.13344 0.40362 0.0
H1597 H 0.44022 0.12934 0.31629 0.0
H1598 H 0.4504 0.12164 0.44856 0.0
H1599 H 0.46025 0.13209 0.51509 0.0
H1600 H 0.51818 0.17063 0.47796 0.0
H1601 H 0.50861 0.16061 0.4111 0.0
C1602 C 0.48679 0.08414 0.27577 0.0
C1603 C 0.50693 0.09446 0.2717 0.0
C1604 C 0.47723 0.09274 0.29291 0.0
C1605 C 0.48763 0.11183 0.30613 0.0
C1606 C 0.50771 0.12229 0.30147 0.0
C1607 C 0.51729 0.11371 0.28423 0.0
C1608 C 0.47755 0.12062 0.32585 0.0
C1609 C 0.48297 0.12732 0.36344 0.0
C1610 C 0.46198 0.12138 0.30862 0.0
C1611 C 0.45634 0.11562 0.26824 0.0
C1612 C 0.46999 0.12393 0.23874 0.0
C1613 C 0.46462 0.11841 0.20077 0.0
C1614 C 0.44559 0.10468 0.1919 0.0
C1615 C 0.43189 0.09647 0.22099 0.0
C1616 C 0.43719 0.10193 0.25901 0.0
C1617 C 0.44663 0.17178 0.41159 0.0
C1618 C 0.42638 0.16145 0.41269 0.0
C1619 C 0.4568 0.1629 0.39865 0.0
C1620 C 0.44687 0.14356 0.38678 0.0
C1621 C 0.42673 0.13293 0.39002 0.0
C1622 C 0.41656 0.14177 0.40303 0.0
C1623 C 0.45725 0.13499 0.36742 0.0
C1624 C 0.45193 0.12839 0.32976 0.0
C1625 C 0.47294 0.13442 0.38457 0.0
C1626 C 0.47873 0.14051 0.42475 0.0
C1627 C 0.4652 0.13248 0.45452 0.0
C1628 C 0.47074 0.13829 0.49231 0.0
C1629 C 0.48982 0.15205 0.50074 0.0
C1630 C 0.5034 0.15999 0.47139 0.0
C1631 C 0.49793 0.15423 0.43354 0.0
H1632 H 0.49409 0.15653 0.53001 0.0
H1633 H 0.44145 0.10043 0.16249 0.0
H1634 H 0.80739 0.26369 0.42473 0.0
H1635 H 0.82259 0.29673 0.40047 0.0
H1636 H 0.8695 0.29094 0.35497 0.0
H1637 H 0.8545 0.25796 0.37957 0.0
H1638 H 0.88212 0.32682 0.38511 0.0
H1639 H 0.83312 0.28362 0.29781 0.0
H1640 H 0.80041 0.2583 0.27927 0.0
H1641 H 0.77767 0.29433 0.31487 0.0
H1642 H 0.81023 0.31977 0.33414 0.0
H1643 H 0.91619 0.39922 0.24347 0.0
H1644 H 0.90035 0.36678 0.271 0.0
H1645 H 0.85845 0.37769 0.3255 0.0
H1646 H 0.87435 0.41028 0.29847 0.0
H1647 H 0.84311 0.33977 0.29207 0.0
H1648 H 0.8934 0.38401 0.37572 0.0
H1649 H 0.92663 0.40939 0.39051 0.0
H1650 H 0.9475 0.3711 0.36041 0.0
H1651 H 0.91447 0.34569 0.34396 0.0
C1652 C 0.82111 0.26957 0.41014 0.0
C1653 C 0.82969 0.25822 0.40373 0.0
C1654 C 0.82973 0.28841 0.39618 0.0
C1655 C 0.84698 0.29612 0.37536 0.0
C1656 C 0.85614 0.28521 0.37085 0.0
C1657 C 0.84755 0.26638 0.38487 0.0
C1658 C 0.8548 0.31504 0.35614 0.0
C1659 C 0.87367 0.3296 0.36453 0.0
C1660 C 0.84364 0.31871 0.32965 0.0
C1661 C 0.82407 0.30351 0.31778 0.0
C1662 C 0.82112 0.28608 0.30194 0.0
C1663 C 0.80261 0.27172 0.29127 0.0
C1664 C 0.78696 0.27469 0.29599 0.0
C1665 C 0.7898 0.29205 0.31129 0.0
C1666 C 0.80828 0.30645 0.32207 0.0
C1667 C 0.90339 0.39458 0.26071 0.0
C1668 C 0.89654 0.40727 0.26907 0.0
C1669 C 0.89443 0.37611 0.27651 0.0
C1670 C 0.87842 0.37003 0.30058 0.0
C1671 C 0.87083 0.38221 0.30705 0.0
C1672 C 0.87993 0.40079 0.29165 0.0
C1673 C 0.87041 0.35146 0.32099 0.0
C1674 C 0.85151 0.33699 0.31279 0.0
C1675 C 0.8816 0.34786 0.34747 0.0
C1676 C 0.90145 0.36299 0.35818 0.0
C1677 C 0.90508 0.38104 0.37187 0.0
C1678 C 0.92389 0.39544 0.38062 0.0
C1679 C 0.93916 0.39185 0.37652 0.0
C1680 C 0.93565 0.37386 0.36358 0.0
C1681 C 0.91689 0.35947 0.35443 0.0
H1682 H 0.9537 0.40301 0.38338 0.0
H1683 H 0.77265 0.26355 0.28771 0.0
H1684 H 0.59322 0.46365 0.26903 0.0
H1685 H 0.62627 0.4805 0.29338 0.0
H1686 H 0.62868 0.5351 0.27759 0.0
H1687 H 0.59567 0.51837 0.2529 0.0
H1688 H 0.66293 0.53696 0.25907 0.0
H1689 H 0.61752 0.51437 0.3628 0.0
H1690 H 0.58976 0.49 0.39965 0.0
H1691 H 0.61893 0.45794 0.4177 0.0
H1692 H 0.64676 0.48197 0.38039 0.0
H1693 H 0.73748 0.59524 0.38576 0.0
H1694 H 0.70475 0.57676 0.36039 0.0
H1695 H 0.70672 0.52417 0.37263 0.0
H1696 H 0.73957 0.54258 0.39807 0.0
H1697 H 0.67064 0.52051 0.39234 0.0
H1698 H 0.71693 0.5445 0.29074 0.0
H1699 H 0.74498 0.56991 0.25647 0.0
H1700 H 0.71408 0.59997 0.23482 0.0
H1701 H 0.686 0.575 0.27013 0.0
C1702 C 0.60092 0.47927 0.27005 0.0
C1703 C 0.59183 0.48971 0.25941 0.0
C1704 C 0.61975 0.48885 0.28412 0.0
C1705 C 0.62975 0.509 0.28791 0.0
C1706 C 0.62115 0.51953 0.27503 0.0
C1707 C 0.6023 0.50995 0.26097 0.0
C1708 C 0.64859 0.51899 0.30773 0.0
C1709 C 0.66459 0.53349 0.28829 0.0
C1710 C 0.65076 0.51423 0.3457 0.0
C1711 C 0.63413 0.49985 0.36846 0.0
C1712 C 0.61796 0.50204 0.37438 0.0
C1713 C 0.60222 0.4883 0.39537 0.0
C1714 C 0.60256 0.4724 0.41092 0.0
C1715 C 0.61867 0.47024 0.40558 0.0
C1716 C 0.63443 0.48392 0.38452 0.0
C1717 C 0.73083 0.5797 0.38373 0.0
C1718 C 0.74112 0.57035 0.39355 0.0
C1719 C 0.71217 0.56919 0.36914 0.0
C1720 C 0.7035 0.54917 0.36414 0.0
C1721 C 0.71324 0.53963 0.37619 0.0
C1722 C 0.73198 0.55016 0.39063 0.0
C1723 C 0.68491 0.5385 0.34373 0.0
C1724 C 0.66898 0.52389 0.36305 0.0
C1725 C 0.68278 0.54321 0.30571 0.0
C1726 C 0.69942 0.55796 0.28343 0.0
C1727 C 0.71615 0.5566 0.27893 0.0
C1728 C 0.73206 0.57093 0.2593 0.0
C1729 C 0.73132 0.58656 0.24343 0.0
C1730 C 0.71464 0.58786 0.24715 0.0
C1731 C 0.69872 0.57363 0.26703 0.0
H1732 H 0.74366 0.59764 0.22824 0.0
H1733 H 0.59037 0.46178 0.42718 0.0
H1734 H 0.55313 0.8043 0.66856 0.0
H1735 H 0.53665 0.8213 0.69058 0.0
H1736 H 0.56307 0.86275 0.59963 0.0
H1737 H 0.57965 0.84582 0.57744 0.0
H1738 H 0.56644 0.87969 0.6703 0.0
H1739 H 0.51658 0.82943 0.5937 0.0
H1740 H 0.4949 0.7958 0.57365 0.0
H1741 H 0.46979 0.78202 0.68575 0.0
H1742 H 0.49152 0.81552 0.70663 0.0
H1743 H 0.51254 0.92715 0.67897 0.0
H1744 H 0.52852 0.9092 0.66103 0.0
H1745 H 0.49501 0.86568 0.74496 0.0
H1746 H 0.4784 0.88335 0.76212 0.0
H1747 H 0.49537 0.84919 0.68088 0.0
H1748 H 0.54401 0.89894 0.75799 0.0
H1749 H 0.5658 0.93223 0.77982 0.0
H1750 H 0.59351 0.94661 0.67014 0.0
H1751 H 0.57171 0.91347 0.64746 0.0
C1752 C 0.5553 0.81695 0.65306 0.0
C1753 C 0.56765 0.82375 0.62127 0.0
C1754 C 0.54586 0.82661 0.66563 0.0
C1755 C 0.5486 0.84322 0.64661 0.0
C1756 C 0.56079 0.84995 0.61467 0.0
C1757 C 0.57017 0.84023 0.60195 0.0
C1758 C 0.53918 0.8539 0.66073 0.0
C1759 C 0.55089 0.87313 0.67219 0.0
C1760 C 0.51894 0.84507 0.6644 0.0
C1761 C 0.50582 0.82494 0.65183 0.0
C1762 C 0.50655 0.81919 0.61417 0.0
C1763 C 0.49423 0.80016 0.60263 0.0
C1764 C 0.48101 0.78677 0.62844 0.0
C1765 C 0.48005 0.7924 0.66581 0.0
C1766 C 0.49236 0.81141 0.6775 0.0
C1767 C 0.50869 0.91385 0.69389 0.0
C1768 C 0.49427 0.90666 0.72204 0.0
C1769 C 0.51791 0.90364 0.68371 0.0
C1770 C 0.51319 0.88623 0.70203 0.0
C1771 C 0.49891 0.87911 0.7305 0.0
C1772 C 0.4895 0.88923 0.74038 0.0
C1773 C 0.52261 0.87512 0.69023 0.0
C1774 C 0.51092 0.85578 0.67923 0.0
C1775 C 0.5429 0.88381 0.68733 0.0
C1776 C 0.55611 0.90375 0.70093 0.0
C1777 C 0.55466 0.90923 0.73843 0.0
C1778 C 0.56703 0.92807 0.75098 0.0
C1779 C 0.581 0.94154 0.72636 0.0
C1780 C 0.58267 0.93617 0.68917 0.0
C1781 C 0.57033 0.91735 0.67647 0.0
H1782 H 0.59056 0.95612 0.73612 0.0
H1783 H 0.47148 0.77204 0.61945 0.0
H1784 H 0.13562 0.73757 0.60035 0.0
H1785 H 0.11886 0.70482 0.62637 0.0
H1786 H 0.17218 0.70376 0.62619 0.0
H1787 H 0.18897 0.73635 0.5996 0.0
H1788 H 0.1423 0.66952 0.60381 0.0
H1789 H 0.15623 0.71434 0.7071 0.0
H1790 H 0.15584 0.74133 0.74027 0.0
H1791 H 0.09396 0.70977 0.74131 0.0
H1792 H 0.09398 0.68269 0.7076 0.0
H1793 H 0.11674 0.59284 0.73205 0.0
H1794 H 0.13303 0.62592 0.70773 0.0
H1795 H 0.07861 0.62468 0.7029 0.0
H1796 H 0.06221 0.59162 0.72732 0.0
H1797 H 0.1087 0.65996 0.72798 0.0
H1798 H 0.09469 0.61539 0.62432 0.0
H1799 H 0.09489 0.58834 0.59094 0.0
H1800 H 0.15678 0.6194 0.59077 0.0
H1801 H 0.15695 0.64655 0.6246 0.0
C1802 C 0.14371 0.73024 0.60531 0.0
C1803 C 0.16362 0.73954 0.5982 0.0
C1804 C 0.13414 0.71159 0.62038 0.0
C1805 C 0.14437 0.70203 0.62887 0.0
C1806 C 0.16405 0.71093 0.62 0.0
C1807 C 0.17361 0.72955 0.60484 0.0
C1808 C 0.13477 0.6831 0.64846 0.0
C1809 C 0.13515 0.66749 0.63115 0.0
C1810 C 0.12515 0.68039 0.68384 0.0
C1811 C 0.12511 0.69657 0.7045 0.0
C1812 C 0.14254 0.71321 0.71417 0.0
C1813 C 0.14239 0.72852 0.73309 0.0
C1814 C 0.12489 0.72729 0.74281 0.0
C1815 C 0.1075 0.71071 0.73372 0.0
C1816 C 0.10758 0.69538 0.71473 0.0
C1817 C 0.1083 0.59975 0.72652 0.0
C1818 C 0.08819 0.58963 0.73126 0.0
C1819 C 0.11761 0.61859 0.71247 0.0
C1820 C 0.10695 0.62757 0.70295 0.0
C1821 C 0.08705 0.61794 0.70994 0.0
C1822 C 0.07772 0.59907 0.72385 0.0
C1823 C 0.11633 0.64646 0.68337 0.0
C1824 C 0.11588 0.66203 0.70064 0.0
C1825 C 0.12588 0.64915 0.64796 0.0
C1826 C 0.12583 0.63292 0.62731 0.0
C1827 C 0.10834 0.61639 0.6174 0.0
C1828 C 0.10839 0.60106 0.59836 0.0
C1829 C 0.12584 0.60213 0.58883 0.0
C1830 C 0.14328 0.61858 0.59821 0.0
C1831 C 0.14331 0.63395 0.61728 0.0
H1832 H 0.12584 0.59024 0.57409 0.0
H1833 H 0.1248 0.73916 0.75745 0.0
H1834 H 0.4049 0.52448 0.73535 0.0
H1835 H 0.3722 0.50892 0.70941 0.0
H1836 H 0.37224 0.4552 0.69998 0.0
H1837 H 0.40506 0.47074 0.72553 0.0
H1838 H 0.36157 0.46461 0.63385 0.0
H1839 H 0.34452 0.46078 0.76629 0.0
H1840 H 0.34575 0.4732 0.83135 0.0
H1841 H 0.32715 0.51146 0.7883 0.0
H1842 H 0.32606 0.49946 0.72286 0.0
H1843 H 0.26202 0.404 0.59102 0.0
H1844 H 0.29489 0.42002 0.61602 0.0
H1845 H 0.29363 0.47303 0.62803 0.0
H1846 H 0.26058 0.45698 0.60368 0.0
H1847 H 0.30506 0.46427 0.69261 0.0
H1848 H 0.3219 0.46819 0.56042 0.0
H1849 H 0.32077 0.45607 0.49513 0.0
H1850 H 0.33992 0.41808 0.53718 0.0
H1851 H 0.34091 0.42978 0.60284 0.0
C1852 C 0.3978 0.50926 0.72844 0.0
C1853 C 0.40753 0.49882 0.73238 0.0
C1854 C 0.37912 0.50039 0.71365 0.0
C1855 C 0.36981 0.4809 0.7028 0.0
C1856 C 0.37922 0.47027 0.70809 0.0
C1857 C 0.3979 0.47913 0.72289 0.0
C1858 C 0.35078 0.47199 0.68366 0.0
C1859 C 0.34911 0.46425 0.64691 0.0
C1860 C 0.33475 0.47211 0.70027 0.0
C1861 C 0.33539 0.47935 0.73961 0.0
C1862 C 0.34085 0.47196 0.77064 0.0
C1863 C 0.34149 0.4789 0.8076 0.0
C1864 C 0.33658 0.49315 0.81394 0.0
C1865 C 0.33097 0.50045 0.78334 0.0
C1866 C 0.33032 0.49357 0.74631 0.0
C1867 C 0.26888 0.41917 0.59825 0.0
C1868 C 0.25873 0.42924 0.59552 0.0
C1869 C 0.28768 0.42832 0.61249 0.0
C1870 C 0.29671 0.44773 0.62385 0.0
C1871 C 0.28689 0.45803 0.61955 0.0
C1872 C 0.26806 0.44887 0.60544 0.0
C1873 C 0.31582 0.45685 0.64277 0.0
C1874 C 0.31751 0.46463 0.6795 0.0
C1875 C 0.33188 0.45681 0.6261 0.0
C1876 C 0.3313 0.44974 0.58662 0.0
C1877 C 0.32571 0.45714 0.5558 0.0
C1878 C 0.32513 0.45036 0.51871 0.0
C1879 C 0.33022 0.43628 0.51202 0.0
C1880 C 0.33596 0.42897 0.54241 0.0
C1881 C 0.33655 0.43568 0.57957 0.0
H1882 H 0.32977 0.43106 0.48328 0.0
H1883 H 0.33708 0.4985 0.84258 0.0
H1884 H 0.14671 0.40371 0.63802 0.0
H1885 H 0.13115 0.42164 0.65892 0.0
H1886 H 0.17103 0.47042 0.59107 0.0
H1887 H 0.18715 0.45267 0.57103 0.0
H1888 H 0.1679 0.48211 0.65903 0.0
H1889 H 0.1228 0.44129 0.56492 0.0
H1890 H 0.10111 0.41076 0.53188 0.0
H1891 H 0.06689 0.38896 0.63352 0.0
H1892 H 0.08853 0.41927 0.66736 0.0
H1893 H 0.11342 0.53049 0.67833 0.0
H1894 H 0.13047 0.51435 0.65468 0.0
H1895 H 0.09701 0.46634 0.72999 0.0
H1896 H 0.07986 0.48239 0.75374 0.0
H1897 H 0.0971 0.45524 0.65534 0.0
H1898 H 0.14348 0.49671 0.74912 0.0
H1899 H 0.16517 0.52785 0.78018 0.0
H1900 H 0.19687 0.54922 0.67559 0.0
H1901 H 0.17519 0.51828 0.64374 0.0
C1902 C 0.15203 0.41817 0.62716 0.0
C1903 C 0.1681 0.42679 0.60279 0.0
C1904 C 0.14307 0.42839 0.63903 0.0
C1905 C 0.14975 0.4473 0.62619 0.0
C1906 C 0.16562 0.45583 0.6013 0.0
C1907 C 0.17475 0.44567 0.58973 0.0
C1908 C 0.14069 0.45838 0.64024 0.0
C1909 C 0.15244 0.47637 0.6576 0.0
C1910 C 0.12048 0.45075 0.63906 0.0
C1911 C 0.10739 0.43251 0.61877 0.0
C1912 C 0.11073 0.42993 0.58032 0.0
C1913 C 0.09843 0.41268 0.56143 0.0
C1914 C 0.08265 0.39791 0.58062 0.0
C1915 C 0.07912 0.4004 0.61871 0.0
C1916 C 0.09139 0.41763 0.63774 0.0
C1917 C 0.10989 0.51662 0.69024 0.0
C1918 C 0.09531 0.50767 0.71785 0.0
C1919 C 0.11965 0.50744 0.67674 0.0
C1920 C 0.115 0.48918 0.69066 0.0
C1921 C 0.10077 0.48043 0.71888 0.0
C1922 C 0.09106 0.48964 0.73254 0.0
C1923 C 0.12429 0.47879 0.6744 0.0
C1924 C 0.11255 0.46096 0.65656 0.0
C1925 C 0.1445 0.48666 0.67479 0.0
C1926 C 0.15759 0.50524 0.69395 0.0
C1927 C 0.15497 0.5081 0.73265 0.0
C1928 C 0.16729 0.52571 0.75042 0.0
C1929 C 0.18236 0.54052 0.72984 0.0
C1930 C 0.18518 0.53774 0.69148 0.0
C1931 C 0.17289 0.52017 0.67357 0.0
H1932 H 0.19188 0.55414 0.74365 0.0
H1933 H 0.07315 0.38456 0.56594 0.0
H1934 H 0.52372 0.58808 0.71063 0.0
H1935 H 0.53908 0.62097 0.68574 0.0
H1936 H 0.48901 0.62487 0.71687 0.0
H1937 H 0.47342 0.59182 0.74124 0.0
H1938 H 0.49964 0.63647 0.64488 0.0
H1939 H 0.53127 0.64963 0.76655 0.0
H1940 H 0.54984 0.64584 0.81868 0.0
H1941 H 0.59746 0.66171 0.74248 0.0
H1942 H 0.57907 0.66534 0.68973 0.0
H1943 H 0.54167 0.738 0.61769 0.0
H1944 H 0.5256 0.70467 0.64032 0.0
H1945 H 0.57553 0.70044 0.60959 0.0
H1946 H 0.59181 0.73388 0.58753 0.0
H1947 H 0.5648 0.68898 0.68136 0.0
H1948 H 0.53308 0.67599 0.55966 0.0
H1949 H 0.51446 0.67995 0.50786 0.0
H1950 H 0.46696 0.66396 0.58445 0.0
H1951 H 0.4854 0.66015 0.63687 0.0
C1952 C 0.51611 0.59605 0.71272 0.0
C1953 C 0.49738 0.58741 0.72787 0.0
C1954 C 0.52491 0.61485 0.69853 0.0
C1955 C 0.51521 0.62539 0.6996 0.0
C1956 C 0.49672 0.61696 0.7157 0.0
C1957 C 0.48788 0.59814 0.72979 0.0
C1958 C 0.52398 0.64483 0.68219 0.0
C1959 C 0.51378 0.64806 0.65324 0.0
C1960 C 0.54262 0.65975 0.69241 0.0
C1961 C 0.55371 0.65757 0.7241 0.0
C1962 C 0.54564 0.65215 0.76082 0.0
C1963 C 0.55615 0.65007 0.7905 0.0
C1964 C 0.5748 0.65348 0.78387 0.0
C1965 C 0.583 0.65904 0.74757 0.0
C1966 C 0.57255 0.66114 0.71778 0.0
C1967 C 0.54907 0.72984 0.61505 0.0
C1968 C 0.56801 0.73854 0.60097 0.0
C1969 C 0.53986 0.71079 0.62795 0.0
C1970 C 0.54937 0.70007 0.62659 0.0
C1971 C 0.56797 0.70849 0.61101 0.0
C1972 C 0.57721 0.72755 0.59825 0.0
C1973 C 0.5405 0.68061 0.64394 0.0
C1974 C 0.55068 0.67739 0.67295 0.0
C1975 C 0.52183 0.66572 0.6338 0.0
C1976 C 0.5107 0.66797 0.60229 0.0
C1977 C 0.51872 0.67347 0.56554 0.0
C1978 C 0.50819 0.67566 0.53605 0.0
C1979 C 0.48956 0.67225 0.54288 0.0
C1980 C 0.4814 0.66661 0.57921 0.0
C1981 C 0.49188 0.66442 0.60881 0.0
H1982 H 0.48142 0.67395 0.52001 0.0
H1983 H 0.58291 0.65186 0.80689 0.0
H1984 H 0.25435 0.85622 0.60864 0.0
H1985 H 0.2873 0.8719 0.633 0.0
H1986 H 0.29205 0.82254 0.59953 0.0
H1987 H 0.25886 0.80656 0.57587 0.0
H1988 H 0.30329 0.83216 0.67115 0.0
H1989 H 0.31705 0.86617 0.55256 0.0
H1990 H 0.3134 0.88543 0.50172 0.0
H1991 H 0.32752 0.93144 0.58139 0.0
H1992 H 0.33101 0.91234 0.63286 0.0
H1993 H 0.40462 0.8763 0.70353 0.0
H1994 H 0.37182 0.86011 0.6781 0.0
H1995 H 0.36478 0.90758 0.71557 0.0
H1996 H 0.3977 0.92397 0.74076 0.0
H1997 H 0.35497 0.89873 0.64118 0.0
H1998 H 0.34093 0.86417 0.75986 0.0
H1999 H 0.34483 0.84474 0.80999 0.0
H2000 H 0.33158 0.79953 0.72882 0.0
H2001 H 0.32786 0.81881 0.67805 0.0
C2002 C 0.26253 0.84885 0.60579 0.0
C2003 C 0.25404 0.83016 0.59041 0.0
C2004 C 0.28139 0.85786 0.61967 0.0
C2005 C 0.29218 0.84843 0.61796 0.0
C2006 C 0.28396 0.83005 0.60122 0.0
C2007 C 0.26505 0.82099 0.58753 0.0
C2008 C 0.31149 0.85719 0.63599 0.0
C2009 C 0.31471 0.8466 0.66413 0.0
C2010 C 0.3262 0.87622 0.62756 0.0
C2011 C 0.32412 0.88775 0.59666 0.0
C2012 C 0.31923 0.88033 0.55932 0.0
C2013 C 0.31721 0.89123 0.53037 0.0
C2014 C 0.32018 0.90963 0.53834 0.0
C2015 C 0.32521 0.91718 0.57527 0.0
C2016 C 0.32723 0.90633 0.60433 0.0
C2017 C 0.39596 0.88313 0.70699 0.0
C2018 C 0.40371 0.90141 0.72405 0.0
C2019 C 0.37721 0.87385 0.69248 0.0
C2020 C 0.36587 0.88265 0.69499 0.0
C2021 C 0.37333 0.90059 0.71328 0.0
C2022 C 0.39208 0.90987 0.72783 0.0
C2023 C 0.34671 0.87372 0.67637 0.0
C2024 C 0.34355 0.88428 0.64812 0.0
C2025 C 0.33209 0.85464 0.68456 0.0
C2026 C 0.3343 0.84302 0.71507 0.0
C2027 C 0.33901 0.85015 0.75262 0.0
C2028 C 0.34115 0.83915 0.78117 0.0
C2029 C 0.3385 0.82094 0.77258 0.0
C2030 C 0.33366 0.81366 0.73543 0.0
C2031 C 0.33151 0.82461 0.70676 0.0
H2032 H 0.34017 0.81244 0.79472 0.0
H2033 H 0.31862 0.91804 0.51589 0.0
loop_
_geom_bond_atom_site_label_1
_geom_bond_atom_site_label_2
_geom_bond_distance
_geom_bond_site_symmetry_2
_ccdc_geom_bond_type
In0 O1 2.294 . S
In0 O2 2.326 . S
In0 O6 2.266 . S
In0 O7 2.326 1_554 S
In0 O8 2.266 . S
In0 O9 2.326 . S
In0 O11 2.294 . S
In0 O12 2.326 . S
O1 In0 2.294 . S
O1 C10 1.240 . S
O2 In0 2.326 . S
O2 C10 1.252 . S
C3 O6 1.252 1_556 S
C3 O7 1.260 . S
C4 O11 1.240 . S
C4 O12 1.252 . S
C5 O8 1.252 . S
C5 O9 1.260 . S
O6 In0 2.266 . S
O6 C3 1.252 1_554 S
O7 In0 2.326 1_556 S
O7 C3 1.260 . S
O8 In0 2.266 . S
O8 C5 1.252 . S
O9 In0 2.326 . S
O9 C5 1.260 . S
C10 O1 1.240 . S
C10 O2 1.252 . S
O11 In0 2.294 . S
O11 C4 1.240 . S
O12 In0 2.326 . S
O12 C4 1.252 . S
In13 O14 2.294 . S
In13 O15 2.326 . S
In13 O19 2.266 . S
In13 O20 2.326 . S
In13 O21 2.266 . S
In13 O22 2.326 1_554 S
In13 O24 2.294 . S
In13 O25 2.326 . S
O14 In13 2.294 . S
O14 C23 1.240 . S
O15 In13 2.326 . S
O15 C23 1.252 . S
C16 O19 1.252 . S
C16 O20 1.260 . S
C17 O24 1.240 . S
C17 O25 1.252 . S
C18 O21 1.252 1_556 S
C18 O22 1.260 . S
O19 In13 2.266 . S
O19 C16 1.252 . S
O20 In13 2.326 . S
O20 C16 1.260 . S
O21 In13 2.266 . S
O21 C18 1.252 1_554 S
O22 In13 2.326 1_556 S
O22 C18 1.260 . S
C23 O14 1.240 . S
C23 O15 1.252 . S
O24 In13 2.294 . S
O24 C17 1.240 . S
O25 In13 2.326 . S
O25 C17 1.252 . S
In26 O27 2.294 . S
In26 O28 2.326 . S
In26 O32 2.266 . S
In26 O33 2.326 . S
In26 O34 2.266 . S
In26 O35 2.326 1_554 S
In26 O37 2.294 . S
In26 O38 2.326 . S
O27 In26 2.294 . S
O27 C36 1.240 . S
O28 In26 2.326 . S
O28 C36 1.252 . S
C29 O32 1.252 . S
C29 O33 1.260 . S
C30 O37 1.240 . S
C30 O38 1.252 . S
C31 O34 1.252 1_556 S
C31 O35 1.260 . S
O32 In26 2.266 . S
O32 C29 1.252 . S
O33 In26 2.326 . S
O33 C29 1.260 . S
O34 In26 2.266 . S
O34 C31 1.252 1_554 S
O35 In26 2.326 1_556 S
O35 C31 1.260 . S
C36 O27 1.240 . S
C36 O28 1.252 . S
O37 In26 2.294 . S
O37 C30 1.240 . S
O38 In26 2.326 . S
O38 C30 1.252 . S
In39 O40 2.294 . S
In39 O41 2.326 . S
In39 O45 2.266 . S
In39 O46 2.326 1_556 S
In39 O47 2.266 . S
In39 O48 2.326 . S
In39 O50 2.294 . S
In39 O51 2.326 . S
O40 In39 2.294 . S
O40 C49 1.240 . S
O41 In39 2.326 . S
O41 C49 1.252 . S
C42 O45 1.252 1_554 S
C42 O46 1.260 . S
C43 O50 1.240 . S
C43 O51 1.252 . S
C44 O47 1.252 . S
C44 O48 1.260 . S
O45 In39 2.266 . S
O45 C42 1.252 1_556 S
O46 In39 2.326 1_554 S
O46 C42 1.260 . S
O47 In39 2.266 . S
O47 C44 1.252 . S
O48 In39 2.326 . S
O48 C44 1.260 . S
C49 O40 1.240 . S
C49 O41 1.252 . S
O50 In39 2.294 . S
O50 C43 1.240 . S
O51 In39 2.326 . S
O51 C43 1.252 . S
In52 O53 2.294 . S
In52 O54 2.326 . S
In52 O58 2.266 . S
In52 O59 2.326 1_556 S
In52 O60 2.266 . S
In52 O61 2.326 . S
In52 O63 2.294 . S
In52 O64 2.326 . S
O53 In52 2.294 . S
O53 C62 1.240 . S
O54 In52 2.326 . S
O54 C62 1.252 . S
C55 O58 1.252 1_554 S
C55 O59 1.260 . S
C56 O63 1.240 . S
C56 O64 1.252 . S
C57 O60 1.252 . S
C57 O61 1.260 . S
O58 In52 2.266 . S
O58 C55 1.252 1_556 S
O59 In52 2.326 1_554 S
O59 C55 1.260 . S
O60 In52 2.266 . S
O60 C57 1.252 . S
O61 In52 2.326 . S
O61 C57 1.260 . S
C62 O53 1.240 . S
C62 O54 1.252 . S
O63 In52 2.294 . S
O63 C56 1.240 . S
O64 In52 2.326 . S
O64 C56 1.252 . S
In65 O66 2.294 . S
In65 O67 2.326 . S
In65 O71 2.266 . S
In65 O72 2.326 . S
In65 O73 2.266 . S
In65 O74 2.326 1_556 S
In65 O76 2.294 . S
In65 O77 2.326 . S
O66 In65 2.294 . S
O66 C75 1.240 . S
O67 In65 2.326 . S
O67 C75 1.252 . S
C68 O71 1.252 . S
C68 O72 1.260 . S
C69 O76 1.240 . S
C69 O77 1.252 . S
C70 O73 1.252 1_554 S
C70 O74 1.260 . S
O71 In65 2.266 . S
O71 C68 1.252 . S
O72 In65 2.326 . S
O72 C68 1.260 . S
O73 In65 2.266 . S
O73 C70 1.252 1_556 S
O74 In65 2.326 1_554 S
O74 C70 1.260 . S
C75 O66 1.240 . S
C75 O67 1.252 . S
O76 In65 2.294 . S
O76 C69 1.240 . S
O77 In65 2.326 . S
O77 C69 1.252 . S
In78 O79 2.294 . S
In78 O80 2.326 . S
In78 O84 2.266 . S
In78 O85 2.326 . S
In78 O86 2.266 . S
In78 O87 2.326 . S
In78 O89 2.294 . S
In78 O90 2.326 . S
O79 In78 2.294 . S
O79 C88 1.240 . S
O80 In78 2.326 . S
O80 C88 1.252 . S
C81 O84 1.252 . S
C81 O85 1.260 . S
C82 O89 1.240 . S
C82 O90 1.252 . S
C83 O86 1.252 . S
C83 O87 1.260 . S
O84 In78 2.266 . S
O84 C81 1.252 . S
O85 In78 2.326 . S
O85 C81 1.260 . S
O86 In78 2.266 . S
O86 C83 1.252 . S
O87 In78 2.326 . S
O87 C83 1.260 . S
C88 O79 1.240 . S
C88 O80 1.252 . S
O89 In78 2.294 . S
O89 C82 1.240 . S
O90 In78 2.326 . S
O90 C82 1.252 . S
In91 O92 2.294 . S
In91 O93 2.326 . S
In91 O97 2.266 . S
In91 O98 2.326 . S
In91 O99 2.266 . S
In91 O100 2.326 . S
In91 O102 2.294 . S
In91 O103 2.326 . S
O92 In91 2.294 . S
O92 C101 1.240 . S
O93 In91 2.326 . S
O93 C101 1.252 . S
C94 O97 1.252 . S
C94 O98 1.260 . S
C95 O102 1.240 . S
C95 O103 1.252 . S
C96 O99 1.252 . S
C96 O100 1.260 . S
O97 In91 2.266 . S
O97 C94 1.252 . S
O98 In91 2.326 . S
O98 C94 1.260 . S
O99 In91 2.266 . S
O99 C96 1.252 . S
O100 In91 2.326 . S
O100 C96 1.260 . S
C101 O92 1.240 . S
C101 O93 1.252 . S
O102 In91 2.294 . S
O102 C95 1.240 . S
O103 In91 2.326 . S
O103 C95 1.252 . S
In104 O105 2.294 . S
In104 O106 2.326 . S
In104 O110 2.266 . S
In104 O111 2.326 . S
In104 O112 2.266 . S
In104 O113 2.326 . S
In104 O115 2.294 . S
In104 O116 2.326 . S
O105 In104 2.294 . S
O105 C114 1.240 . S
O106 In104 2.326 . S
O106 C114 1.252 . S
C107 O110 1.252 . S
C107 O111 1.260 . S
C108 O115 1.240 . S
C108 O116 1.252 . S
C109 O112 1.252 . S
C109 O113 1.260 . S
O110 In104 2.266 . S
O110 C107 1.252 . S
O111 In104 2.326 . S
O111 C107 1.260 . S
O112 In104 2.266 . S
O112 C109 1.252 . S
O113 In104 2.326 . S
O113 C109 1.260 . S
C114 O105 1.240 . S
C114 O106 1.252 . S
O115 In104 2.294 . S
O115 C108 1.240 . S
O116 In104 2.326 . S
O116 C108 1.252 . S
In117 O118 2.294 . S
In117 O119 2.326 . S
In117 O123 2.266 . S
In117 O124 2.326 . S
In117 O125 2.266 . S
In117 O126 2.326 . S
In117 O128 2.294 . S
In117 O129 2.326 . S
O118 In117 2.294 . S
O118 C127 1.240 . S
O119 In117 2.326 . S
O119 C127 1.252 . S
C120 O123 1.252 . S
C120 O124 1.260 . S
C121 O128 1.240 . S
C121 O129 1.252 . S
C122 O125 1.252 . S
C122 O126 1.260 . S
O123 In117 2.266 . S
O123 C120 1.252 . S
O124 In117 2.326 . S
O124 C120 1.260 . S
O125 In117 2.266 . S
O125 C122 1.252 . S
O126 In117 2.326 . S
O126 C122 1.260 . S
C127 O118 1.240 . S
C127 O119 1.252 . S
O128 In117 2.294 . S
O128 C121 1.240 . S
O129 In117 2.326 . S
O129 C121 1.252 . S
In130 O131 2.294 . S
In130 O132 2.326 . S
In130 O136 2.266 . S
In130 O137 2.326 . S
In130 O138 2.266 . S
In130 O139 2.326 . S
In130 O141 2.294 . S
In130 O142 2.326 . S
O131 In130 2.294 . S
O131 C140 1.240 . S
O132 In130 2.326 . S
O132 C140 1.252 . S
C133 O136 1.252 . S
C133 O137 1.260 . S
C134 O141 1.240 . S
C134 O142 1.252 . S
C135 O138 1.252 . S
C135 O139 1.260 . S
O136 In130 2.266 . S
O136 C133 1.252 . S
O137 In130 2.326 . S
O137 C133 1.260 . S
O138 In130 2.266 . S
O138 C135 1.252 . S
O139 In130 2.326 . S
O139 C135 1.260 . S
C140 O131 1.240 . S
C140 O132 1.252 . S
O141 In130 2.294 . S
O141 C134 1.240 . S
O142 In130 2.326 . S
O142 C134 1.252 . S
In143 O144 2.294 . S
In143 O145 2.326 . S
In143 O149 2.266 . S
In143 O150 2.326 . S
In143 O151 2.266 . S
In143 O152 2.326 . S
In143 O154 2.294 . S
In143 O155 2.326 . S
O144 In143 2.294 . S
O144 C153 1.240 . S
O145 In143 2.326 . S
O145 C153 1.252 . S
C146 O149 1.252 . S
C146 O150 1.260 . S
C147 O154 1.240 . S
C147 O155 1.252 . S
C148 O151 1.252 . S
C148 O152 1.260 . S
O149 In143 2.266 . S
O149 C146 1.252 . S
O150 In143 2.326 . S
O150 C146 1.260 . S
O151 In143 2.266 . S
O151 C148 1.252 . S
O152 In143 2.326 . S
O152 C148 1.260 . S
C153 O144 1.240 . S
C153 O145 1.252 . S
O154 In143 2.294 . S
O154 C147 1.240 . S
O155 In143 2.326 . S
O155 C147 1.252 . S
In156 O157 2.294 . S
In156 O158 2.326 . S
In156 O162 2.266 . S
In156 O163 2.326 . S
In156 O164 2.266 . S
In156 O165 2.326 . S
In156 O167 2.294 . S
In156 O168 2.326 . S
O157 In156 2.294 . S
O157 C166 1.240 . S
O158 In156 2.326 . S
O158 C166 1.252 . S
C159 O162 1.252 . S
C159 O163 1.260 . S
C160 O167 1.240 . S
C160 O168 1.252 . S
C161 O164 1.252 . S
C161 O165 1.260 . S
O162 In156 2.266 . S
O162 C159 1.252 . S
O163 In156 2.326 . S
O163 C159 1.260 . S
O164 In156 2.266 . S
O164 C161 1.252 . S
O165 In156 2.326 . S
O165 C161 1.260 . S
C166 O157 1.240 . S
C166 O158 1.252 . S
O167 In156 2.294 . S
O167 C160 1.240 . S
O168 In156 2.326 . S
O168 C160 1.252 . S
In169 O170 2.294 . S
In169 O171 2.326 . S
In169 O175 2.266 . S
In169 O176 2.326 . S
In169 O177 2.266 . S
In169 O178 2.326 . S
In169 O180 2.294 . S
In169 O181 2.326 . S
O170 In169 2.294 . S
O170 C179 1.240 . S
O171 In169 2.326 . S
O171 C179 1.252 . S
C172 O175 1.252 . S
C172 O176 1.260 . S
C173 O180 1.240 . S
C173 O181 1.252 . S
C174 O177 1.252 . S
C174 O178 1.260 . S
O175 In169 2.266 . S
O175 C172 1.252 . S
O176 In169 2.326 . S
O176 C172 1.260 . S
O177 In169 2.266 . S
O177 C174 1.252 . S
O178 In169 2.326 . S
O178 C174 1.260 . S
C179 O170 1.240 . S
C179 O171 1.252 . S
O180 In169 2.294 . S
O180 C173 1.240 . S
O181 In169 2.326 . S
O181 C173 1.252 . S
In182 O183 2.294 . S
In182 O184 2.326 . S
In182 O188 2.266 . S
In182 O189 2.326 . S
In182 O190 2.266 . S
In182 O191 2.326 . S
In182 O193 2.294 . S
In182 O194 2.326 . S
O183 In182 2.294 . S
O183 C192 1.240 . S
O184 In182 2.326 . S
O184 C192 1.252 . S
C185 O188 1.252 . S
C185 O189 1.260 . S
C186 O193 1.240 . S
C186 O194 1.252 . S
C187 O190 1.252 . S
C187 O191 1.260 . S
O188 In182 2.266 . S
O188 C185 1.252 . S
O189 In182 2.326 . S
O189 C185 1.260 . S
O190 In182 2.266 . S
O190 C187 1.252 . S
O191 In182 2.326 . S
O191 C187 1.260 . S
C192 O183 1.240 . S
C192 O184 1.252 . S
O193 In182 2.294 . S
O193 C186 1.240 . S
O194 In182 2.326 . S
O194 C186 1.252 . S
In195 O196 2.294 . S
In195 O197 2.326 . S
In195 O201 2.266 . S
In195 O202 2.326 . S
In195 O203 2.266 . S
In195 O204 2.326 . S
In195 O206 2.294 . S
In195 O207 2.326 . S
O196 In195 2.294 . S
O196 C205 1.240 . S
O197 In195 2.326 . S
O197 C205 1.252 . S
C198 O201 1.252 . S
C198 O202 1.260 . S
C199 O206 1.240 . S
C199 O207 1.252 . S
C200 O203 1.252 . S
C200 O204 1.260 . S
O201 In195 2.266 . S
O201 C198 1.252 . S
O202 In195 2.326 . S
O202 C198 1.260 . S
O203 In195 2.266 . S
O203 C200 1.252 . S
O204 In195 2.326 . S
O204 C200 1.260 . S
C205 O196 1.240 . S
C205 O197 1.252 . S
O206 In195 2.294 . S
O206 C199 1.240 . S
O207 In195 2.326 . S
O207 C199 1.252 . S
In208 O209 2.294 . S
In208 O210 2.326 . S
In208 O214 2.266 . S
In208 O215 2.326 . S
In208 O216 2.266 . S
In208 O217 2.326 . S
In208 O219 2.294 . S
In208 O220 2.326 . S
O209 In208 2.294 . S
O209 C218 1.240 . S
O210 In208 2.326 . S
O210 C218 1.252 . S
C211 O214 1.252 . S
C211 O215 1.260 . S
C212 O219 1.240 . S
C212 O220 1.252 . S
C213 O216 1.252 . S
C213 O217 1.260 . S
O214 In208 2.266 . S
O214 C211 1.252 . S
O215 In208 2.326 . S
O215 C211 1.260 . S
O216 In208 2.266 . S
O216 C213 1.252 . S
O217 In208 2.326 . S
O217 C213 1.260 . S
C218 O209 1.240 . S
C218 O210 1.252 . S
O219 In208 2.294 . S
O219 C212 1.240 . S
O220 In208 2.326 . S
O220 C212 1.252 . S
In221 O222 2.294 . S
In221 O223 2.326 . S
In221 O227 2.266 . S
In221 O228 2.326 . S
In221 O229 2.266 . S
In221 O230 2.326 . S
In221 O232 2.294 . S
In221 O233 2.326 . S
O222 In221 2.294 . S
O222 C231 1.240 . S
O223 In221 2.326 . S
O223 C231 1.252 . S
C224 O227 1.252 . S
C224 O228 1.260 . S
C225 O232 1.240 . S
C225 O233 1.252 . S
C226 O229 1.252 . S
C226 O230 1.260 . S
O227 In221 2.266 . S
O227 C224 1.252 . S
O228 In221 2.326 . S
O228 C224 1.260 . S
O229 In221 2.266 . S
O229 C226 1.252 . S
O230 In221 2.326 . S
O230 C226 1.260 . S
C231 O222 1.240 . S
C231 O223 1.252 . S
O232 In221 2.294 . S
O232 C225 1.240 . S
O233 In221 2.326 . S
O233 C225 1.252 . S
H234 C252 0.951 . S
H235 C254 0.951 . S
H236 C256 0.950 . S
H237 C257 0.950 . S
H238 C259 0.950 . S
H239 C262 0.950 . S
H240 C263 0.950 . S
H241 C265 0.950 . S
H242 C266 0.950 . S
H243 C267 0.951 . S
H244 C269 0.951 . S
H245 C271 0.950 . S
H246 C272 0.950 . S
H247 C274 0.950 . S
H248 C277 0.950 . S
H249 C278 0.950 . S
H250 C280 0.950 . S
H251 C281 0.950 . S
C252 H234 0.951 . S
C252 C253 1.366 . S
C252 C254 1.388 . S
C253 C252 1.366 . S
C253 C257 1.385 . S
C254 H235 0.951 . S
C254 C252 1.388 . S
C254 C255 1.366 . S
C255 C254 1.366 . S
C255 C256 1.414 . S
C255 C258 1.499 . S
C256 H236 0.950 . S
C256 C255 1.414 . S
C256 C257 1.374 . S
C257 H237 0.950 . S
C257 C253 1.385 . S
C257 C256 1.374 . S
C258 C255 1.499 . S
C258 C259 1.373 . S
C258 C260 1.389 . S
C259 H238 0.950 . S
C259 C258 1.373 . S
C259 C275 1.377 . S
C260 C258 1.389 . S
C260 C261 1.524 . S
C260 C274 1.377 . S
C261 C260 1.524 . S
C261 C262 1.397 . S
C261 C266 1.363 . S
C262 H239 0.950 . S
C262 C261 1.397 . S
C262 C263 1.334 . S
C263 H240 0.950 . S
C263 C262 1.334 . S
C263 C264 1.287 . S
C264 C263 1.287 . S
C264 C265 1.524 . S
C264 H283 0.913 . S
C265 H241 0.950 . S
C265 C264 1.524 . S
C265 C266 1.415 . S
C266 H242 0.950 . S
C266 C261 1.363 . S
C266 C265 1.415 . S
C267 H243 0.951 . S
C267 C268 1.366 . S
C267 C269 1.388 . S
C268 C267 1.366 . S
C268 C272 1.385 . S
C269 H244 0.951 . S
C269 C267 1.388 . S
C269 C270 1.366 . S
C270 C269 1.366 . S
C270 C271 1.414 . S
C270 C273 1.499 . S
C271 H245 0.950 . S
C271 C270 1.414 . S
C271 C272 1.374 . S
C272 H246 0.950 . S
C272 C268 1.385 . S
C272 C271 1.374 . S
C273 C270 1.499 . S
C273 C274 1.373 . S
C273 C275 1.389 . S
C274 H247 0.950 . S
C274 C260 1.377 . S
C274 C273 1.373 . S
C275 C259 1.377 . S
C275 C273 1.389 . S
C275 C276 1.524 . S
C276 C275 1.524 . S
C276 C277 1.397 . S
C276 C281 1.363 . S
C277 H248 0.950 . S
C277 C276 1.397 . S
C277 C278 1.334 . S
C278 H249 0.950 . S
C278 C277 1.334 . S
C278 C279 1.287 . S
C279 C278 1.287 . S
C279 C280 1.524 . S
C279 H282 0.999 . S
C280 H250 0.950 . S
C280 C279 1.524 . S
C280 C281 1.415 . S
C281 H251 0.950 . S
C281 C276 1.363 . S
C281 C280 1.415 . S
H282 C279 0.999 . S
H283 C264 0.913 . S
H284 C302 0.951 . S
H285 C304 0.951 . S
H286 C306 0.950 . S
H287 C307 0.950 . S
H288 C309 0.950 . S
H289 C312 0.950 . S
H290 C313 0.950 . S
H291 C315 0.950 . S
H292 C316 0.950 . S
H293 C317 0.951 . S
H294 C319 0.951 . S
H295 C321 0.950 . S
H296 C322 0.950 . S
H297 C324 0.950 . S
H298 C327 0.950 . S
H299 C328 0.950 . S
H300 C330 0.950 . S
H301 C331 0.950 . S
C302 H284 0.951 . S
C302 C303 1.366 . S
C302 C304 1.388 . S
C303 C302 1.366 . S
C303 C307 1.385 . S
C304 H285 0.951 . S
C304 C302 1.388 . S
C304 C305 1.366 . S
C305 C304 1.366 . S
C305 C306 1.414 . S
C305 C308 1.499 . S
C306 H286 0.950 . S
C306 C305 1.414 . S
C306 C307 1.374 . S
C307 H287 0.950 . S
C307 C303 1.385 . S
C307 C306 1.374 . S
C308 C305 1.499 . S
C308 C309 1.373 . S
C308 C310 1.389 . S
C309 H288 0.950 . S
C309 C308 1.373 . S
C309 C325 1.377 . S
C310 C308 1.389 . S
C310 C311 1.524 . S
C310 C324 1.377 . S
C311 C310 1.524 . S
C311 C312 1.397 . S
C311 C316 1.363 . S
C312 H289 0.950 . S
C312 C311 1.397 . S
C312 C313 1.334 . S
C313 H290 0.950 . S
C313 C312 1.334 . S
C313 C314 1.287 . S
C314 C313 1.287 . S
C314 C315 1.524 . S
C314 H333 0.913 . S
C315 H291 0.950 . S
C315 C314 1.524 . S
C315 C316 1.415 . S
C316 H292 0.950 . S
C316 C311 1.363 . S
C316 C315 1.415 . S
C317 H293 0.951 . S
C317 C318 1.366 . S
C317 C319 1.388 . S
C318 C317 1.366 . S
C318 C322 1.385 . S
C319 H294 0.951 . S
C319 C317 1.388 . S
C319 C320 1.366 . S
C320 C319 1.366 . S
C320 C321 1.414 . S
C320 C323 1.499 . S
C321 H295 0.950 . S
C321 C320 1.414 . S
C321 C322 1.374 . S
C322 H296 0.950 . S
C322 C318 1.385 . S
C322 C321 1.374 . S
C323 C320 1.499 . S
C323 C324 1.373 . S
C323 C325 1.389 . S
C324 H297 0.950 . S
C324 C310 1.377 . S
C324 C323 1.373 . S
C325 C309 1.377 . S
C325 C323 1.389 . S
C325 C326 1.524 . S
C326 C325 1.524 . S
C326 C327 1.397 . S
C326 C331 1.363 . S
C327 H298 0.950 . S
C327 C326 1.397 . S
C327 C328 1.334 . S
C328 H299 0.950 . S
C328 C327 1.334 . S
C328 C329 1.287 . S
C329 C328 1.287 . S
C329 C330 1.524 . S
C329 H332 0.999 . S
C330 H300 0.950 . S
C330 C329 1.524 . S
C330 C331 1.415 . S
C331 H301 0.950 . S
C331 C326 1.363 . S
C331 C330 1.415 . S
H332 C329 0.999 . S
H333 C314 0.913 . S
H334 C352 0.951 . S
H335 C354 0.951 . S
H336 C356 0.950 . S
H337 C357 0.950 . S
H338 C359 0.950 . S
H339 C362 0.950 . S
H340 C363 0.950 . S
H341 C365 0.950 . S
H342 C366 0.950 . S
H343 C367 0.951 . S
H344 C369 0.951 . S
H345 C371 0.950 . S
H346 C372 0.950 . S
H347 C374 0.950 . S
H348 C377 0.950 . S
H349 C378 0.950 . S
H350 C380 0.950 . S
H351 C381 0.950 . S
C352 H334 0.951 . S
C352 C353 1.366 . S
C352 C354 1.388 . S
C353 C352 1.366 . S
C353 C357 1.385 . S
C354 H335 0.951 . S
C354 C352 1.388 . S
C354 C355 1.366 . S
C355 C354 1.366 . S
C355 C356 1.414 . S
C355 C358 1.499 . S
C356 H336 0.950 . S
C356 C355 1.414 . S
C356 C357 1.374 . S
C357 H337 0.950 . S
C357 C353 1.385 . S
C357 C356 1.374 . S
C358 C355 1.499 . S
C358 C359 1.373 . S
C358 C360 1.389 . S
C359 H338 0.950 . S
C359 C358 1.373 . S
C359 C375 1.377 . S
C360 C358 1.389 . S
C360 C361 1.524 . S
C360 C374 1.377 . S
C361 C360 1.524 . S
C361 C362 1.397 . S
C361 C366 1.363 . S
C362 H339 0.950 . S
C362 C361 1.397 . S
C362 C363 1.334 . S
C363 H340 0.950 . S
C363 C362 1.334 . S
C363 C364 1.287 . S
C364 C363 1.287 . S
C364 C365 1.524 . S
C364 H383 0.913 . S
C365 H341 0.950 . S
C365 C364 1.524 . S
C365 C366 1.415 . S
C366 H342 0.950 . S
C366 C361 1.363 . S
C366 C365 1.415 . S
C367 H343 0.951 . S
C367 C368 1.366 . S
C367 C369 1.388 . S
C368 C367 1.366 . S
C368 C372 1.385 . S
C369 H344 0.951 . S
C369 C367 1.388 . S
C369 C370 1.366 . S
C370 C369 1.366 . S
C370 C371 1.414 . S
C370 C373 1.499 . S
C371 H345 0.950 . S
C371 C370 1.414 . S
C371 C372 1.374 . S
C372 H346 0.950 . S
C372 C368 1.385 . S
C372 C371 1.374 . S
C373 C370 1.499 . S
C373 C374 1.373 . S
C373 C375 1.389 . S
C374 H347 0.950 . S
C374 C360 1.377 . S
C374 C373 1.373 . S
C375 C359 1.377 . S
C375 C373 1.389 . S
C375 C376 1.524 . S
C376 C375 1.524 . S
C376 C377 1.397 . S
C376 C381 1.363 . S
C377 H348 0.950 . S
C377 C376 1.397 . S
C377 C378 1.334 . S
C378 H349 0.950 . S
C378 C377 1.334 . S
C378 C379 1.287 . S
C379 C378 1.287 . S
C379 C380 1.524 . S
C379 H382 0.999 . S
C380 H350 0.950 . S
C380 C379 1.524 . S
C380 C381 1.415 . S
C381 H351 0.950 . S
C381 C376 1.363 . S
C381 C380 1.415 . S
H382 C379 0.999 . S
H383 C364 0.913 . S
H384 C402 0.951 . S
H385 C404 0.951 . S
H386 C406 0.950 . S
H387 C407 0.950 . S
H388 C409 0.950 . S
H389 C412 0.950 . S
H390 C413 0.950 . S
H391 C415 0.950 . S
H392 C416 0.950 . S
H393 C417 0.951 . S
H394 C419 0.951 . S
H395 C421 0.950 . S
H396 C422 0.950 . S
H397 C424 0.950 . S
H398 C427 0.950 . S
H399 C428 0.950 . S
H400 C430 0.950 . S
H401 C431 0.950 . S
C402 H384 0.951 . S
C402 C403 1.366 . S
C402 C404 1.388 . S
C403 C402 1.366 . S
C403 C407 1.385 . S
C404 H385 0.951 . S
C404 C402 1.388 . S
C404 C405 1.366 . S
C405 C404 1.366 . S
C405 C406 1.414 . S
C405 C408 1.499 . S
C406 H386 0.950 . S
C406 C405 1.414 . S
C406 C407 1.374 . S
C407 H387 0.950 . S
C407 C403 1.385 . S
C407 C406 1.374 . S
C408 C405 1.499 . S
C408 C409 1.373 . S
C408 C410 1.389 . S
C409 H388 0.950 . S
C409 C408 1.373 . S
C409 C425 1.377 . S
C410 C408 1.389 . S
C410 C411 1.524 . S
C410 C424 1.377 . S
C411 C410 1.524 . S
C411 C412 1.397 . S
C411 C416 1.363 . S
C412 H389 0.950 . S
C412 C411 1.397 . S
C412 C413 1.334 . S
C413 H390 0.950 . S
C413 C412 1.334 . S
C413 C414 1.287 . S
C414 C413 1.287 . S
C414 C415 1.524 . S
C414 H433 0.913 . S
C415 H391 0.950 . S
C415 C414 1.524 . S
C415 C416 1.415 . S
C416 H392 0.950 . S
C416 C411 1.363 . S
C416 C415 1.415 . S
C417 H393 0.951 . S
C417 C418 1.366 . S
C417 C419 1.388 . S
C418 C417 1.366 . S
C418 C422 1.385 . S
C419 H394 0.951 . S
C419 C417 1.388 . S
C419 C420 1.366 . S
C420 C419 1.366 . S
C420 C421 1.414 . S
C420 C423 1.499 . S
C421 H395 0.950 . S
C421 C420 1.414 . S
C421 C422 1.374 . S
C422 H396 0.950 . S
C422 C418 1.385 . S
C422 C421 1.374 . S
C423 C420 1.499 . S
C423 C424 1.373 . S
C423 C425 1.389 . S
C424 H397 0.950 . S
C424 C410 1.377 . S
C424 C423 1.373 . S
C425 C409 1.377 . S
C425 C423 1.389 . S
C425 C426 1.524 . S
C426 C425 1.524 . S
C426 C427 1.397 . S
C426 C431 1.363 . S
C427 H398 0.950 . S
C427 C426 1.397 . S
C427 C428 1.334 . S
C428 H399 0.950 . S
C428 C427 1.334 . S
C428 C429 1.287 . S
C429 C428 1.287 . S
C429 C430 1.524 . S
C429 H432 0.999 . S
C430 H400 0.950 . S
C430 C429 1.524 . S
C430 C431 1.415 . S
C431 H401 0.950 . S
C431 C426 1.363 . S
C431 C430 1.415 . S
H432 C429 0.999 . S
H433 C414 0.913 . S
H434 C452 0.951 . S
H435 C454 0.951 . S
H436 C456 0.950 . S
H437 C457 0.950 . S
H438 C459 0.950 . S
H439 C462 0.950 . S
H440 C463 0.950 . S
H441 C465 0.950 . S
H442 C466 0.950 . S
H443 C467 0.951 . S
H444 C469 0.951 . S
H445 C471 0.950 . S
H446 C472 0.950 . S
H447 C474 0.950 . S
H448 C477 0.950 . S
H449 C478 0.950 . S
H450 C480 0.950 . S
H451 C481 0.950 . S
C452 H434 0.951 . S
C452 C453 1.366 . S
C452 C454 1.388 . S
C453 C452 1.366 . S
C453 C457 1.385 . S
C454 H435 0.951 . S
C454 C452 1.388 . S
C454 C455 1.366 . S
C455 C454 1.366 . S
C455 C456 1.414 . S
C455 C458 1.499 . S
C456 H436 0.950 . S
C456 C455 1.414 . S
C456 C457 1.374 . S
C457 H437 0.950 . S
C457 C453 1.385 . S
C457 C456 1.374 . S
C458 C455 1.499 . S
C458 C459 1.373 . S
C458 C460 1.389 . S
C459 H438 0.950 . S
C459 C458 1.373 . S
C459 C475 1.377 . S
C460 C458 1.389 . S
C460 C461 1.524 . S
C460 C474 1.377 . S
C461 C460 1.524 . S
C461 C462 1.397 . S
C461 C466 1.363 . S
C462 H439 0.950 . S
C462 C461 1.397 . S
C462 C463 1.334 . S
C463 H440 0.950 . S
C463 C462 1.334 . S
C463 C464 1.287 . S
C464 C463 1.287 . S
C464 C465 1.524 . S
C464 H483 0.913 . S
C465 H441 0.950 . S
C465 C464 1.524 . S
C465 C466 1.415 . S
C466 H442 0.950 . S
C466 C461 1.363 . S
C466 C465 1.415 . S
C467 H443 0.951 . S
C467 C468 1.366 . S
C467 C469 1.388 . S
C468 C467 1.366 . S
C468 C472 1.385 . S
C469 H444 0.951 . S
C469 C467 1.388 . S
C469 C470 1.366 . S
C470 C469 1.366 . S
C470 C471 1.414 . S
C470 C473 1.499 . S
C471 H445 0.950 . S
C471 C470 1.414 . S
C471 C472 1.374 . S
C472 H446 0.950 . S
C472 C468 1.385 . S
C472 C471 1.374 . S
C473 C470 1.499 . S
C473 C474 1.373 . S
C473 C475 1.389 . S
C474 H447 0.950 . S
C474 C460 1.377 . S
C474 C473 1.373 . S
C475 C459 1.377 . S
C475 C473 1.389 . S
C475 C476 1.524 . S
C476 C475 1.524 . S
C476 C477 1.397 . S
C476 C481 1.363 . S
C477 H448 0.950 . S
C477 C476 1.397 . S
C477 C478 1.334 . S
C478 H449 0.950 . S
C478 C477 1.334 . S
C478 C479 1.287 . S
C479 C478 1.287 . S
C479 C480 1.524 . S
C479 H482 0.999 . S
C480 H450 0.950 . S
C480 C479 1.524 . S
C480 C481 1.415 . S
C481 H451 0.950 . S
C481 C476 1.363 . S
C481 C480 1.415 . S
H482 C479 0.999 . S
H483 C464 0.913 . S
H484 C502 0.951 . S
H485 C504 0.951 . S
H486 C506 0.950 . S
H487 C507 0.950 . S
H488 C509 0.950 . S
H489 C512 0.950 . S
H490 C513 0.950 . S
H491 C515 0.950 . S
H492 C516 0.950 . S
H493 C517 0.951 . S
H494 C519 0.951 . S
H495 C521 0.950 . S
H496 C522 0.950 . S
H497 C524 0.950 . S
H498 C527 0.950 . S
H499 C528 0.950 . S
H500 C530 0.950 . S
H501 C531 0.950 . S
C502 H484 0.951 . S
C502 C503 1.366 . S
C502 C504 1.388 . S
C503 C502 1.366 . S
C503 C507 1.385 . S
C504 H485 0.951 . S
C504 C502 1.388 . S
C504 C505 1.366 . S
C505 C504 1.366 . S
C505 C506 1.414 . S
C505 C508 1.499 . S
C506 H486 0.950 . S
C506 C505 1.414 . S
C506 C507 1.374 . S
C507 H487 0.950 . S
C507 C503 1.385 . S
C507 C506 1.374 . S
C508 C505 1.499 . S
C508 C509 1.373 . S
C508 C510 1.389 . S
C509 H488 0.950 . S
C509 C508 1.373 . S
C509 C525 1.377 . S
C510 C508 1.389 . S
C510 C511 1.524 . S
C510 C524 1.377 . S
C511 C510 1.524 . S
C511 C512 1.397 . S
C511 C516 1.363 . S
C512 H489 0.950 . S
C512 C511 1.397 . S
C512 C513 1.334 . S
C513 H490 0.950 . S
C513 C512 1.334 . S
C513 C514 1.287 . S
C514 C513 1.287 . S
C514 C515 1.524 . S
C514 H533 0.913 . S
C515 H491 0.950 . S
C515 C514 1.524 . S
C515 C516 1.415 . S
C516 H492 0.950 . S
C516 C511 1.363 . S
C516 C515 1.415 . S
C517 H493 0.951 . S
C517 C518 1.366 . S
C517 C519 1.388 . S
C518 C517 1.366 . S
C518 C522 1.385 . S
C519 H494 0.951 . S
C519 C517 1.388 . S
C519 C520 1.366 . S
C520 C519 1.366 . S
C520 C521 1.414 . S
C520 C523 1.499 . S
C521 H495 0.950 . S
C521 C520 1.414 . S
C521 C522 1.374 . S
C522 H496 0.950 . S
C522 C518 1.385 . S
C522 C521 1.374 . S
C523 C520 1.499 . S
C523 C524 1.373 . S
C523 C525 1.389 . S
C524 H497 0.950 . S
C524 C510 1.377 . S
C524 C523 1.373 . S
C525 C509 1.377 . S
C525 C523 1.389 . S
C525 C526 1.524 . S
C526 C525 1.524 . S
C526 C527 1.397 . S
C526 C531 1.363 . S
C527 H498 0.950 . S
C527 C526 1.397 . S
C527 C528 1.334 . S
C528 H499 0.950 . S
C528 C527 1.334 . S
C528 C529 1.287 . S
C529 C528 1.287 . S
C529 C530 1.524 . S
C529 H532 0.999 . S
C530 H500 0.950 . S
C530 C529 1.524 . S
C530 C531 1.415 . S
C531 H501 0.950 . S
C531 C526 1.363 . S
C531 C530 1.415 . S
H532 C529 0.999 . S
H533 C514 0.913 . S
H534 C552 0.951 1_455 S
H535 C554 0.951 1_455 S
H536 C556 0.950 . S
H537 C557 0.950 . S
H538 C559 0.950 . S
H539 C562 0.910 1_655 S
H540 C563 0.950 1_655 S
H541 C565 0.950 . S
H542 C566 0.950 . S
H543 C567 0.951 1_655 S
H544 C569 0.955 1_655 S
H545 C571 0.950 . S
H546 C572 0.950 . S
H547 C574 0.950 . S
H548 C577 0.950 1_455 S
H549 C578 0.950 1_455 S
H550 C580 0.950 . S
H551 C581 0.950 . S
C552 H534 0.951 1_655 S
C552 C553 1.366 . S
C552 C554 1.388 . S
C553 C552 1.366 . S
C553 C557 1.385 . S
C554 H535 0.951 1_655 S
C554 C552 1.388 . S
C554 C555 1.366 . S
C555 C554 1.366 . S
C555 C556 1.414 . S
C555 C558 1.499 . S
C556 H536 0.950 . S
C556 C555 1.414 . S
C556 C557 1.374 . S
C557 H537 0.950 . S
C557 C553 1.385 . S
C557 C556 1.374 . S
C558 C555 1.499 . S
C558 C559 1.373 . S
C558 C560 1.389 1_655 S
C559 H538 0.950 . S
C559 C558 1.373 . S
C559 C575 1.377 1_554 S
C560 C558 1.389 1_455 S
C560 C561 1.524 . S
C560 C574 1.377 1_554 S
C561 C560 1.524 . S
C561 C562 1.445 . S
C561 C566 1.363 . S
C562 H539 0.910 1_455 S
C562 C561 1.445 . S
C562 C563 1.327 . S
C563 H540 0.950 1_455 S
C563 C562 1.327 . S
C563 C564 1.287 . S
C564 C563 1.287 . S
C564 C565 1.524 . S
C564 H583 0.913 . S
C565 H541 0.950 . S
C565 C564 1.524 . S
C565 C566 1.415 . S
C566 H542 0.950 . S
C566 C561 1.363 . S
C566 C565 1.415 . S
C567 H543 0.951 1_455 S
C567 C568 1.366 . S
C567 C569 1.386 . S
C568 C567 1.366 . S
C568 C572 1.385 . S
C569 H544 0.955 1_455 S
C569 C567 1.386 . S
C569 C570 1.362 . S
C570 C569 1.362 . S
C570 C571 1.414 . S
C570 C573 1.499 . S
C571 H545 0.950 . S
C571 C570 1.414 . S
C571 C572 1.374 . S
C572 H546 0.950 . S
C572 C568 1.385 . S
C572 C571 1.374 . S
C573 C570 1.499 . S
C573 C574 1.373 . S
C573 C575 1.389 1_455 S
C574 H547 0.950 . S
C574 C560 1.377 1_556 S
C574 C573 1.373 . S
C575 C559 1.377 1_556 S
C575 C573 1.389 1_655 S
C575 C576 1.524 . S
C576 C575 1.524 . S
C576 C577 1.397 . S
C576 C581 1.363 . S
C577 H548 0.950 1_655 S
C577 C576 1.397 . S
C577 C578 1.334 . S
C578 H549 0.950 1_655 S
C578 C577 1.334 . S
C578 C579 1.287 . S
C579 C578 1.287 . S
C579 C580 1.524 . S
C579 H582 0.999 . S
C580 H550 0.950 . S
C580 C579 1.524 . S
C580 C581 1.415 . S
C581 H551 0.950 . S
C581 C576 1.363 . S
C581 C580 1.415 . S
H582 C579 0.999 . S
H583 C564 0.913 . S
H584 C602 0.951 . S
H585 C604 0.951 . S
H586 C606 0.950 . S
H587 C607 0.950 . S
H588 C609 0.950 . S
H589 C612 0.950 . S
H590 C613 0.950 . S
H591 C615 0.950 . S
H592 C616 0.950 . S
H593 C617 0.951 . S
H594 C619 0.951 . S
H595 C621 0.950 . S
H596 C622 0.950 . S
H597 C624 0.950 . S
H598 C627 0.950 . S
H599 C628 0.950 . S
H600 C630 0.950 . S
H601 C631 0.950 . S
C602 H584 0.951 . S
C602 C603 1.366 . S
C602 C604 1.388 . S
C603 C602 1.366 . S
C603 C607 1.385 . S
C604 H585 0.951 . S
C604 C602 1.388 . S
C604 C605 1.366 . S
C605 C604 1.366 . S
C605 C606 1.414 . S
C605 C608 1.499 . S
C606 H586 0.950 . S
C606 C605 1.414 . S
C606 C607 1.374 . S
C607 H587 0.950 . S
C607 C603 1.385 . S
C607 C606 1.374 . S
C608 C605 1.499 . S
C608 C609 1.373 . S
C608 C610 1.389 . S
C609 H588 0.950 . S
C609 C608 1.373 . S
C609 C625 1.377 1_554 S
C610 C608 1.389 . S
C610 C611 1.524 . S
C610 C624 1.377 1_554 S
C611 C610 1.524 . S
C611 C612 1.397 . S
C611 C616 1.363 1_554 S
C612 H589 0.950 . S
C612 C611 1.397 . S
C612 C613 1.334 . S
C613 H590 0.950 . S
C613 C612 1.334 . S
C613 C614 1.287 . S
C614 C613 1.287 . S
C614 C615 1.524 1_554 S
C614 H633 0.913 . S
C615 H591 0.950 . S
C615 C614 1.524 1_556 S
C615 C616 1.415 . S
C616 H592 0.950 . S
C616 C611 1.363 1_556 S
C616 C615 1.415 . S
C617 H593 0.951 . S
C617 C618 1.366 . S
C617 C619 1.388 . S
C618 C617 1.366 . S
C618 C622 1.385 . S
C619 H594 0.951 . S
C619 C617 1.388 . S
C619 C620 1.366 . S
C620 C619 1.366 . S
C620 C621 1.414 . S
C620 C623 1.499 . S
C621 H595 0.950 . S
C621 C620 1.414 . S
C621 C622 1.374 . S
C622 H596 0.950 . S
C622 C618 1.385 . S
C622 C621 1.374 . S
C623 C620 1.499 . S
C623 C624 1.373 . S
C623 C625 1.389 . S
C624 H597 0.950 . S
C624 C610 1.377 1_556 S
C624 C623 1.373 . S
C625 C609 1.377 1_556 S
C625 C623 1.389 . S
C625 C626 1.524 . S
C626 C625 1.524 . S
C626 C627 1.397 . S
C626 C631 1.363 1_556 S
C627 H598 0.950 . S
C627 C626 1.397 . S
C627 C628 1.334 . S
C628 H599 0.950 . S
C628 C627 1.334 . S
C628 C629 1.287 . S
C629 C628 1.287 . S
C629 C630 1.524 1_556 S
C629 H632 0.999 . S
C630 H600 0.950 . S
C630 C629 1.524 1_554 S
C630 C631 1.415 . S
C631 H601 0.950 . S
C631 C626 1.363 1_554 S
C631 C630 1.415 . S
H632 C629 0.999 . S
H633 C614 0.913 . S
H634 C652 0.951 . S
H635 C654 0.951 . S
H636 C656 0.950 1_565 S
H637 C657 0.950 . S
H638 C659 0.950 . S
H639 C662 0.950 . S
H640 C663 0.950 . S
H641 C665 0.968 . S
H642 C666 0.940 1_545 S
H643 C667 0.951 . S
H644 C669 0.951 . S
H645 C671 0.931 1_545 S
H646 C672 0.950 . S
H647 C674 0.950 . S
H648 C677 0.950 . S
H649 C678 0.950 . S
H650 C680 0.950 1_565 S
H651 C681 0.950 . S
C652 H634 0.951 . S
C652 C653 1.366 . S
C652 C654 1.388 . S
C653 C652 1.366 . S
C653 C657 1.385 . S
C654 H635 0.951 . S
C654 C652 1.388 . S
C654 C655 1.366 . S
C655 C654 1.366 . S
C655 C656 1.414 . S
C655 C658 1.499 . S
C656 H636 0.950 1_545 S
C656 C655 1.414 . S
C656 C657 1.374 . S
C657 H637 0.950 . S
C657 C653 1.385 . S
C657 C656 1.374 . S
C658 C655 1.499 . S
C658 C659 1.373 . S
C658 C660 1.389 1_545 S
C659 H638 0.950 . S
C659 C658 1.373 . S
C659 C675 1.394 1_554 S
C660 C658 1.389 1_565 S
C660 C661 1.524 . S
C660 C674 1.377 1_554 S
C661 C660 1.524 . S
C661 C662 1.397 . S
C661 C666 1.379 . S
C662 H639 0.950 . S
C662 C661 1.397 . S
C662 C663 1.334 . S
C663 H640 0.950 . S
C663 C662 1.334 . S
C663 C664 1.287 . S
C664 C663 1.287 . S
C664 C665 1.524 . S
C664 H683 0.913 . S
C665 H641 0.968 . S
C665 C664 1.524 . S
C665 C666 1.409 . S
C666 H642 0.940 1_565 S
C666 C661 1.379 . S
C666 C665 1.409 . S
C667 H643 0.951 . S
C667 C668 1.366 . S
C667 C669 1.388 . S
C668 C667 1.366 . S
C668 C672 1.385 . S
C669 H644 0.951 . S
C669 C667 1.388 . S
C669 C670 1.366 . S
C670 C669 1.366 . S
C670 C671 1.414 . S
C670 C673 1.499 . S
C671 H645 0.931 1_565 S
C671 C670 1.414 . S
C671 C672 1.374 . S
C672 H646 0.950 . S
C672 C668 1.385 . S
C672 C671 1.374 . S
C673 C670 1.499 . S
C673 C674 1.373 . S
C673 C675 1.399 1_565 S
C674 H647 0.950 . S
C674 C660 1.377 1_556 S
C674 C673 1.373 . S
C675 C659 1.394 1_556 S
C675 C673 1.399 1_545 S
C675 C676 1.507 . S
C676 C675 1.507 . S
C676 C677 1.397 . S
C676 C681 1.363 1_545 S
C677 H648 0.950 . S
C677 C676 1.397 . S
C677 C678 1.334 . S
C678 H649 0.950 . S
C678 C677 1.334 . S
C678 C679 1.287 . S
C679 C678 1.287 . S
C679 C680 1.524 . S
C679 H682 0.999 . S
C680 H650 0.950 1_545 S
C680 C679 1.524 . S
C680 C681 1.415 1_545 S
C681 H651 0.950 . S
C681 C676 1.363 1_565 S
C681 C680 1.415 1_565 S
H682 C679 0.999 . S
H683 C664 0.913 . S
H684 C702 0.951 . S
H685 C704 0.951 . S
H686 C706 0.950 . S
H687 C707 0.950 . S
H688 C709 0.950 . S
H689 C712 0.950 . S
H690 C713 0.950 . S
H691 C715 0.950 . S
H692 C716 0.950 . S
H693 C717 0.951 . S
H694 C719 0.951 . S
H695 C721 0.950 . S
H696 C722 0.950 . S
H697 C724 0.950 . S
H698 C727 0.950 . S
H699 C728 0.950 . S
H700 C730 0.950 . S
H701 C731 0.950 . S
C702 H684 0.951 . S
C702 C703 1.366 . S
C702 C704 1.388 . S
C703 C702 1.366 . S
C703 C707 1.385 . S
C704 H685 0.951 . S
C704 C702 1.388 . S
C704 C705 1.366 . S
C705 C704 1.366 . S
C705 C706 1.414 . S
C705 C708 1.499 . S
C706 H686 0.950 . S
C706 C705 1.414 . S
C706 C707 1.374 . S
C707 H687 0.950 . S
C707 C703 1.385 . S
C707 C706 1.374 . S
C708 C705 1.499 . S
C708 C709 1.373 . S
C708 C710 1.389 . S
C709 H688 0.950 . S
C709 C708 1.373 . S
C709 C725 1.377 . S
C710 C708 1.389 . S
C710 C711 1.524 . S
C710 C724 1.377 . S
C711 C710 1.524 . S
C711 C712 1.397 . S
C711 C716 1.363 . S
C712 H689 0.950 . S
C712 C711 1.397 . S
C712 C713 1.334 . S
C713 H690 0.950 . S
C713 C712 1.334 . S
C713 C714 1.287 . S
C714 C713 1.287 . S
C714 C715 1.524 . S
C714 H733 0.913 . S
C715 H691 0.950 . S
C715 C714 1.524 . S
C715 C716 1.415 . S
C716 H692 0.950 . S
C716 C711 1.363 . S
C716 C715 1.415 . S
C717 H693 0.951 . S
C717 C718 1.366 . S
C717 C719 1.388 . S
C718 C717 1.366 . S
C718 C722 1.385 . S
C719 H694 0.951 . S
C719 C717 1.388 . S
C719 C720 1.366 . S
C720 C719 1.366 . S
C720 C721 1.414 . S
C720 C723 1.499 . S
C721 H695 0.950 . S
C721 C720 1.414 . S
C721 C722 1.374 . S
C722 H696 0.950 . S
C722 C718 1.385 . S
C722 C721 1.374 . S
C723 C720 1.499 . S
C723 C724 1.373 . S
C723 C725 1.389 . S
C724 H697 0.950 . S
C724 C710 1.377 . S
C724 C723 1.373 . S
C725 C709 1.377 . S
C725 C723 1.389 . S
C725 C726 1.524 . S
C726 C725 1.524 . S
C726 C727 1.397 . S
C726 C731 1.363 . S
C727 H698 0.950 . S
C727 C726 1.397 . S
C727 C728 1.334 . S
C728 H699 0.950 . S
C728 C727 1.334 . S
C728 C729 1.287 . S
C729 C728 1.287 . S
C729 C730 1.524 . S
C729 H732 0.999 . S
C730 H700 0.950 . S
C730 C729 1.524 . S
C730 C731 1.415 . S
C731 H701 0.950 . S
C731 C726 1.363 . S
C731 C730 1.415 . S
H732 C729 0.999 . S
H733 C714 0.913 . S
H734 C752 0.951 . S
H735 C754 0.951 . S
H736 C756 0.950 . S
H737 C757 0.950 . S
H738 C759 0.950 . S
H739 C762 0.950 . S
H740 C763 0.950 . S
H741 C765 0.950 . S
H742 C766 0.950 . S
H743 C767 0.951 . S
H744 C769 0.951 . S
H745 C771 0.950 . S
H746 C772 0.950 . S
H747 C774 0.950 . S
H748 C777 0.950 . S
H749 C778 0.950 . S
H750 C780 0.950 . S
H751 C781 0.950 . S
C752 H734 0.951 . S
C752 C753 1.366 . S
C752 C754 1.388 . S
C753 C752 1.366 . S
C753 C757 1.385 . S
C754 H735 0.951 . S
C754 C752 1.388 . S
C754 C755 1.366 . S
C755 C754 1.366 . S
C755 C756 1.414 . S
C755 C758 1.499 . S
C756 H736 0.950 . S
C756 C755 1.414 . S
C756 C757 1.374 . S
C757 H737 0.950 . S
C757 C753 1.385 . S
C757 C756 1.374 . S
C758 C755 1.499 . S
C758 C759 1.373 . S
C758 C760 1.389 . S
C759 H738 0.950 . S
C759 C758 1.373 . S
C759 C775 1.377 . S
C760 C758 1.389 . S
C760 C761 1.524 . S
C760 C774 1.377 . S
C761 C760 1.524 . S
C761 C762 1.397 . S
C761 C766 1.363 . S
C762 H739 0.950 . S
C762 C761 1.397 . S
C762 C763 1.334 . S
C763 H740 0.950 . S
C763 C762 1.334 . S
C763 C764 1.287 . S
C764 C763 1.287 . S
C764 C765 1.524 . S
C764 H783 0.913 . S
C765 H741 0.950 . S
C765 C764 1.524 . S
C765 C766 1.415 . S
C766 H742 0.950 . S
C766 C761 1.363 . S
C766 C765 1.415 . S
C767 H743 0.951 . S
C767 C768 1.366 . S
C767 C769 1.388 . S
C768 C767 1.366 . S
C768 C772 1.385 . S
C769 H744 0.951 . S
C769 C767 1.388 . S
C769 C770 1.366 . S
C770 C769 1.366 . S
C770 C771 1.414 . S
C770 C773 1.499 . S
C771 H745 0.950 . S
C771 C770 1.414 . S
C771 C772 1.374 . S
C772 H746 0.950 . S
C772 C768 1.385 . S
C772 C771 1.374 . S
C773 C770 1.499 . S
C773 C774 1.373 . S
C773 C775 1.389 . S
C774 H747 0.950 . S
C774 C760 1.377 . S
C774 C773 1.373 . S
C775 C759 1.377 . S
C775 C773 1.389 . S
C775 C776 1.524 . S
C776 C775 1.524 . S
C776 C777 1.397 . S
C776 C781 1.363 . S
C777 H748 0.950 . S
C777 C776 1.397 . S
C777 C778 1.334 . S
C778 H749 0.950 . S
C778 C777 1.334 . S
C778 C779 1.287 . S
C779 C778 1.287 . S
C779 C780 1.524 . S
C779 H782 0.999 . S
C780 H750 0.950 . S
C780 C779 1.524 . S
C780 C781 1.415 . S
C781 H751 0.950 . S
C781 C776 1.363 . S
C781 C780 1.415 . S
H782 C779 0.999 . S
H783 C764 0.913 . S
H784 C802 0.951 . S
H785 C804 0.951 . S
H786 C806 0.950 . S
H787 C807 0.945 1_554 S
H788 C809 0.950 . S
H789 C812 0.950 . S
H790 C813 0.950 . S
H791 C815 0.950 . S
H792 C816 0.950 . S
H793 C817 0.951 . S
H794 C819 0.951 . S
H795 C821 0.950 . S
H796 C822 0.950 . S
H797 C824 0.950 . S
H798 C827 0.950 . S
H799 C828 0.950 . S
H800 C830 0.950 . S
H801 C831 0.950 . S
C802 H784 0.951 . S
C802 C803 1.366 . S
C802 C804 1.388 . S
C803 C802 1.366 . S
C803 C807 1.385 . S
C804 H785 0.951 . S
C804 C802 1.388 . S
C804 C805 1.366 . S
C805 C804 1.366 . S
C805 C806 1.414 . S
C805 C808 1.499 . S
C806 H786 0.950 . S
C806 C805 1.414 . S
C806 C807 1.374 . S
C807 H787 0.945 1_556 S
C807 C803 1.385 . S
C807 C806 1.374 . S
C808 C805 1.499 . S
C808 C809 1.373 . S
C808 C810 1.389 . S
C809 H788 0.950 . S
C809 C808 1.373 . S
C809 C825 1.377 . S
C810 C808 1.389 . S
C810 C811 1.524 . S
C810 C824 1.377 . S
C811 C810 1.524 . S
C811 C812 1.397 . S
C811 C816 1.363 . S
C812 H789 0.950 . S
C812 C811 1.397 . S
C812 C813 1.334 . S
C813 H790 0.950 . S
C813 C812 1.334 . S
C813 C814 1.287 . S
C814 C813 1.287 . S
C814 C815 1.524 . S
C814 H833 0.913 . S
C815 H791 0.950 . S
C815 C814 1.524 . S
C815 C816 1.415 . S
C816 H792 0.950 . S
C816 C811 1.363 . S
C816 C815 1.415 . S
C817 H793 0.951 . S
C817 C818 1.366 . S
C817 C819 1.388 . S
C818 C817 1.366 . S
C818 C822 1.385 . S
C819 H794 0.951 . S
C819 C817 1.388 . S
C819 C820 1.366 . S
C820 C819 1.366 . S
C820 C821 1.414 . S
C820 C823 1.499 . S
C821 H795 0.950 . S
C821 C820 1.414 . S
C821 C822 1.374 . S
C822 H796 0.950 . S
C822 C818 1.385 . S
C822 C821 1.374 . S
C823 C820 1.499 . S
C823 C824 1.373 . S
C823 C825 1.389 . S
C824 H797 0.950 . S
C824 C810 1.377 . S
C824 C823 1.373 . S
C825 C809 1.377 . S
C825 C823 1.389 . S
C825 C826 1.524 . S
C826 C825 1.524 . S
C826 C827 1.397 . S
C826 C831 1.363 . S
C827 H798 0.950 . S
C827 C826 1.397 . S
C827 C828 1.334 . S
C828 H799 0.950 . S
C828 C827 1.334 . S
C828 C829 1.287 . S
C829 C828 1.287 . S
C829 C830 1.524 . S
C829 H832 0.999 . S
C830 H800 0.950 . S
C830 C829 1.524 . S
C830 C831 1.415 . S
C831 H801 0.950 . S
C831 C826 1.363 . S
C831 C830 1.415 . S
H832 C829 0.999 . S
H833 C814 0.913 . S
H834 C852 0.951 . S
H835 C854 0.951 . S
H836 C856 0.950 . S
H837 C857 0.950 . S
H838 C859 0.950 . S
H839 C862 0.950 . S
H840 C863 0.950 . S
H841 C865 0.950 . S
H842 C866 0.950 . S
H843 C867 0.951 . S
H844 C869 0.951 . S
H845 C871 0.950 . S
H846 C872 0.950 . S
H847 C874 0.950 . S
H848 C877 0.950 . S
H849 C878 0.950 . S
H850 C880 0.950 . S
H851 C881 0.950 . S
C852 H834 0.951 . S
C852 C853 1.366 . S
C852 C854 1.388 . S
C853 C852 1.366 . S
C853 C857 1.385 . S
C854 H835 0.951 . S
C854 C852 1.388 . S
C854 C855 1.366 . S
C855 C854 1.366 . S
C855 C856 1.414 . S
C855 C858 1.499 . S
C856 H836 0.950 . S
C856 C855 1.414 . S
C856 C857 1.374 . S
C857 H837 0.950 . S
C857 C853 1.385 . S
C857 C856 1.374 . S
C858 C855 1.499 . S
C858 C859 1.373 . S
C858 C860 1.389 . S
C859 H838 0.950 . S
C859 C858 1.373 . S
C859 C875 1.377 . S
C860 C858 1.389 . S
C860 C861 1.524 . S
C860 C874 1.377 . S
C861 C860 1.524 . S
C861 C862 1.397 . S
C861 C866 1.363 . S
C862 H839 0.950 . S
C862 C861 1.397 . S
C862 C863 1.334 . S
C863 H840 0.950 . S
C863 C862 1.334 . S
C863 C864 1.287 . S
C864 C863 1.287 . S
C864 C865 1.524 . S
C864 H883 0.913 . S
C865 H841 0.950 . S
C865 C864 1.524 . S
C865 C866 1.415 . S
C866 H842 0.950 . S
C866 C861 1.363 . S
C866 C865 1.415 . S
C867 H843 0.951 . S
C867 C868 1.366 . S
C867 C869 1.388 . S
C868 C867 1.366 . S
C868 C872 1.385 . S
C869 H844 0.951 . S
C869 C867 1.388 . S
C869 C870 1.366 . S
C870 C869 1.366 . S
C870 C871 1.414 . S
C870 C873 1.499 . S
C871 H845 0.950 . S
C871 C870 1.414 . S
C871 C872 1.374 . S
C872 H846 0.950 . S
C872 C868 1.385 . S
C872 C871 1.374 . S
C873 C870 1.499 . S
C873 C874 1.373 . S
C873 C875 1.389 . S
C874 H847 0.950 . S
C874 C860 1.377 . S
C874 C873 1.373 . S
C875 C859 1.377 . S
C875 C873 1.389 . S
C875 C876 1.524 . S
C876 C875 1.524 . S
C876 C877 1.397 . S
C876 C881 1.363 . S
C877 H848 0.950 . S
C877 C876 1.397 . S
C877 C878 1.334 . S
C878 H849 0.950 . S
C878 C877 1.334 . S
C878 C879 1.287 . S
C879 C878 1.287 . S
C879 C880 1.524 . S
C879 H882 0.999 . S
C880 H850 0.950 . S
C880 C879 1.524 . S
C880 C881 1.415 . S
C881 H851 0.950 . S
C881 C876 1.363 . S
C881 C880 1.415 . S
H882 C879 0.999 . S
H883 C864 0.913 . S
H884 C902 0.951 . S
H885 C904 0.951 . S
H886 C906 0.950 . S
H887 C907 0.961 . S
H888 C909 0.950 . S
H889 C912 0.950 . S
H890 C913 0.950 . S
H891 C915 0.950 . S
H892 C916 0.950 . S
H893 C917 0.951 . S
H894 C919 0.951 . S
H895 C921 0.950 . S
H896 C922 0.950 . S
H897 C924 0.950 . S
H898 C927 0.950 . S
H899 C928 0.950 . S
H900 C930 0.950 . S
H901 C931 0.950 . S
C902 H884 0.951 . S
C902 C903 1.366 . S
C902 C904 1.388 . S
C903 C902 1.366 . S
C903 C907 1.385 . S
C904 H885 0.951 . S
C904 C902 1.388 . S
C904 C905 1.366 . S
C905 C904 1.366 . S
C905 C906 1.414 . S
C905 C908 1.499 . S
C906 H886 0.950 . S
C906 C905 1.414 . S
C906 C907 1.374 . S
C907 H887 0.961 . S
C907 C903 1.385 . S
C907 C906 1.374 . S
C908 C905 1.499 . S
C908 C909 1.373 . S
C908 C910 1.389 . S
C909 H888 0.950 . S
C909 C908 1.373 . S
C909 C925 1.377 . S
C910 C908 1.389 . S
C910 C911 1.524 . S
C910 C924 1.377 . S
C911 C910 1.524 . S
C911 C912 1.397 . S
C911 C916 1.363 . S
C912 H889 0.950 . S
C912 C911 1.397 . S
C912 C913 1.334 . S
C913 H890 0.950 . S
C913 C912 1.334 . S
C913 C914 1.287 . S
C914 C913 1.287 . S
C914 C915 1.524 . S
C914 H933 0.913 . S
C915 H891 0.950 . S
C915 C914 1.524 . S
C915 C916 1.415 . S
C916 H892 0.950 . S
C916 C911 1.363 . S
C916 C915 1.415 . S
C917 H893 0.951 . S
C917 C918 1.366 . S
C917 C919 1.388 . S
C918 C917 1.366 . S
C918 C922 1.385 . S
C919 H894 0.951 . S
C919 C917 1.388 . S
C919 C920 1.366 . S
C920 C919 1.366 . S
C920 C921 1.414 . S
C920 C923 1.499 . S
C921 H895 0.950 . S
C921 C920 1.414 . S
C921 C922 1.374 . S
C922 H896 0.950 . S
C922 C918 1.385 . S
C922 C921 1.374 . S
C923 C920 1.499 . S
C923 C924 1.373 . S
C923 C925 1.389 . S
C924 H897 0.950 . S
C924 C910 1.377 . S
C924 C923 1.373 . S
C925 C909 1.377 . S
C925 C923 1.389 . S
C925 C926 1.524 . S
C926 C925 1.524 . S
C926 C927 1.397 . S
C926 C931 1.363 . S
C927 H898 0.950 . S
C927 C926 1.397 . S
C927 C928 1.334 . S
C928 H899 0.950 . S
C928 C927 1.334 . S
C928 C929 1.287 . S
C929 C928 1.287 . S
C929 C930 1.524 . S
C929 H932 0.999 . S
C930 H900 0.950 . S
C930 C929 1.524 . S
C930 C931 1.415 . S
C931 H901 0.950 . S
C931 C926 1.363 . S
C931 C930 1.415 . S
H932 C929 0.999 . S
H933 C914 0.913 . S
H934 C952 0.951 . S
H935 C954 0.951 . S
H936 C956 0.950 . S
H937 C957 0.950 . S
H938 C959 0.950 . S
H939 C962 0.950 . S
H940 C963 0.950 . S
H941 C965 0.950 . S
H942 C966 0.950 . S
H943 C967 0.951 . S
H944 C969 0.951 . S
H945 C971 0.950 . S
H946 C972 0.950 . S
H947 C974 0.950 . S
H948 C977 0.950 . S
H949 C978 0.950 . S
H950 C980 0.950 . S
H951 C981 0.950 . S
C952 H934 0.951 . S
C952 C953 1.366 . S
C952 C954 1.388 . S
C953 C952 1.366 . S
C953 C957 1.385 . S
C954 H935 0.951 . S
C954 C952 1.388 . S
C954 C955 1.366 . S
C955 C954 1.366 . S
C955 C956 1.414 . S
C955 C958 1.499 . S
C956 H936 0.950 . S
C956 C955 1.414 . S
C956 C957 1.374 . S
C957 H937 0.950 . S
C957 C953 1.385 . S
C957 C956 1.374 . S
C958 C955 1.499 . S
C958 C959 1.373 . S
C958 C960 1.389 . S
C959 H938 0.950 . S
C959 C958 1.373 . S
C959 C975 1.377 . S
C960 C958 1.389 . S
C960 C961 1.524 . S
C960 C974 1.377 . S
C961 C960 1.524 . S
C961 C962 1.397 . S
C961 C966 1.363 . S
C962 H939 0.950 . S
C962 C961 1.397 . S
C962 C963 1.334 . S
C963 H940 0.950 . S
C963 C962 1.334 . S
C963 C964 1.287 . S
C964 C963 1.287 . S
C964 C965 1.524 . S
C964 H983 0.913 . S
C965 H941 0.950 . S
C965 C964 1.524 . S
C965 C966 1.415 . S
C966 H942 0.950 . S
C966 C961 1.363 . S
C966 C965 1.415 . S
C967 H943 0.951 . S
C967 C968 1.366 . S
C967 C969 1.388 . S
C968 C967 1.366 . S
C968 C972 1.385 . S
C969 H944 0.951 . S
C969 C967 1.388 . S
C969 C970 1.366 . S
C970 C969 1.366 . S
C970 C971 1.414 . S
C970 C973 1.499 . S
C971 H945 0.950 . S
C971 C970 1.414 . S
C971 C972 1.374 . S
C972 H946 0.950 . S
C972 C968 1.385 . S
C972 C971 1.374 . S
C973 C970 1.499 . S
C973 C974 1.373 . S
C973 C975 1.389 . S
C974 H947 0.950 . S
C974 C960 1.377 . S
C974 C973 1.373 . S
C975 C959 1.377 . S
C975 C973 1.389 . S
C975 C976 1.524 . S
C976 C975 1.524 . S
C976 C977 1.397 . S
C976 C981 1.363 . S
C977 H948 0.950 . S
C977 C976 1.397 . S
C977 C978 1.334 . S
C978 H949 0.950 . S
C978 C977 1.334 . S
C978 C979 1.287 . S
C979 C978 1.287 . S
C979 C980 1.524 . S
C979 H982 0.999 . S
C980 H950 0.950 . S
C980 C979 1.524 . S
C980 C981 1.415 . S
C981 H951 0.950 . S
C981 C976 1.363 . S
C981 C980 1.415 . S
H982 C979 0.999 . S
H983 C964 0.913 . S
H984 C1002 0.951 . S
H985 C1004 0.951 . S
H986 C1006 0.950 1_455 S
H987 C1007 0.950 . S
H988 C1009 0.950 . S
H989 C1012 0.950 . S
H990 C1013 0.950 . S
H991 C1015 0.950 . S
H992 C1016 0.950 . S
H993 C1017 0.951 . S
H994 C1019 0.951 . S
H995 C1021 0.950 1_655 S
H996 C1022 0.950 . S
H997 C1024 0.950 . S
H998 C1027 0.950 . S
H999 C1028 0.950 . S
H1000 C1030 0.950 . S
H1001 C1031 0.950 . S
C1002 H984 0.951 . S
C1002 C1003 1.366 . S
C1002 C1004 1.388 . S
C1003 C1002 1.366 . S
C1003 C1007 1.385 . S
C1004 H985 0.951 . S
C1004 C1002 1.388 . S
C1004 C1005 1.366 . S
C1005 C1004 1.366 . S
C1005 C1006 1.414 . S
C1005 C1008 1.499 . S
C1006 H986 0.950 1_655 S
C1006 C1005 1.414 . S
C1006 C1007 1.374 . S
C1007 H987 0.950 . S
C1007 C1003 1.385 . S
C1007 C1006 1.374 . S
C1008 C1005 1.499 . S
C1008 C1009 1.373 1_655 S
C1008 C1010 1.389 . S
C1009 H988 0.950 . S
C1009 C1008 1.373 1_455 S
C1009 C1025 1.377 . S
C1010 C1008 1.389 . S
C1010 C1011 1.524 . S
C1010 C1024 1.377 . S
C1011 C1010 1.524 . S
C1011 C1012 1.397 . S
C1011 C1016 1.363 . S
C1012 H989 0.950 . S
C1012 C1011 1.397 . S
C1012 C1013 1.334 . S
C1013 H990 0.950 . S
C1013 C1012 1.334 . S
C1013 C1014 1.287 . S
C1014 C1013 1.287 . S
C1014 C1015 1.524 . S
C1014 H1033 0.913 . S
C1015 H991 0.950 . S
C1015 C1014 1.524 . S
C1015 C1016 1.415 . S
C1016 H992 0.950 . S
C1016 C1011 1.363 . S
C1016 C1015 1.415 . S
C1017 H993 0.951 . S
C1017 C1018 1.366 . S
C1017 C1019 1.388 . S
C1018 C1017 1.366 . S
C1018 C1022 1.385 . S
C1019 H994 0.951 . S
C1019 C1017 1.388 . S
C1019 C1020 1.366 . S
C1020 C1019 1.366 . S
C1020 C1021 1.414 . S
C1020 C1023 1.499 . S
C1021 H995 0.950 1_455 S
C1021 C1020 1.414 . S
C1021 C1022 1.374 . S
C1022 H996 0.950 . S
C1022 C1018 1.385 . S
C1022 C1021 1.374 . S
C1023 C1020 1.499 . S
C1023 C1024 1.373 1_455 S
C1023 C1025 1.389 . S
C1024 H997 0.950 . S
C1024 C1010 1.377 . S
C1024 C1023 1.373 1_655 S
C1025 C1009 1.377 . S
C1025 C1023 1.389 . S
C1025 C1026 1.524 . S
C1026 C1025 1.524 . S
C1026 C1027 1.397 . S
C1026 C1031 1.363 . S
C1027 H998 0.950 . S
C1027 C1026 1.397 . S
C1027 C1028 1.334 . S
C1028 H999 0.950 . S
C1028 C1027 1.334 . S
C1028 C1029 1.287 . S
C1029 C1028 1.287 . S
C1029 C1030 1.524 . S
C1029 H1032 0.999 . S
C1030 H1000 0.950 . S
C1030 C1029 1.524 . S
C1030 C1031 1.415 . S
C1031 H1001 0.950 . S
C1031 C1026 1.363 . S
C1031 C1030 1.415 . S
H1032 C1029 0.999 . S
H1033 C1014 0.913 . S
H1034 C1052 0.951 . S
H1035 C1054 0.951 . S
H1036 C1056 0.950 . S
H1037 C1057 0.950 . S
H1038 C1059 0.950 . S
H1039 C1062 0.950 . S
H1040 C1063 0.950 . S
H1041 C1065 0.950 . S
H1042 C1066 0.950 . S
H1043 C1067 0.951 . S
H1044 C1069 0.951 . S
H1045 C1071 0.950 . S
H1046 C1072 0.950 . S
H1047 C1074 0.950 . S
H1048 C1077 0.950 . S
H1049 C1078 0.950 . S
H1050 C1080 0.950 . S
H1051 C1081 0.950 . S
C1052 H1034 0.951 . S
C1052 C1053 1.366 . S
C1052 C1054 1.388 . S
C1053 C1052 1.366 . S
C1053 C1057 1.385 . S
C1054 H1035 0.951 . S
C1054 C1052 1.388 . S
C1054 C1055 1.366 . S
C1055 C1054 1.366 . S
C1055 C1056 1.414 . S
C1055 C1058 1.499 . S
C1056 H1036 0.950 . S
C1056 C1055 1.414 . S
C1056 C1057 1.374 . S
C1057 H1037 0.950 . S
C1057 C1053 1.385 . S
C1057 C1056 1.374 . S
C1058 C1055 1.499 . S
C1058 C1059 1.373 . S
C1058 C1060 1.389 . S
C1059 H1038 0.950 . S
C1059 C1058 1.373 . S
C1059 C1075 1.377 . S
C1060 C1058 1.389 . S
C1060 C1061 1.524 . S
C1060 C1074 1.377 . S
C1061 C1060 1.524 . S
C1061 C1062 1.397 . S
C1061 C1066 1.363 . S
C1062 H1039 0.950 . S
C1062 C1061 1.397 . S
C1062 C1063 1.334 . S
C1063 H1040 0.950 . S
C1063 C1062 1.334 . S
C1063 C1064 1.287 . S
C1064 C1063 1.287 . S
C1064 C1065 1.524 . S
C1064 H1083 0.913 . S
C1065 H1041 0.950 . S
C1065 C1064 1.524 . S
C1065 C1066 1.415 . S
C1066 H1042 0.950 . S
C1066 C1061 1.363 . S
C1066 C1065 1.415 . S
C1067 H1043 0.951 . S
C1067 C1068 1.366 . S
C1067 C1069 1.388 . S
C1068 C1067 1.366 . S
C1068 C1072 1.385 . S
C1069 H1044 0.951 . S
C1069 C1067 1.388 . S
C1069 C1070 1.366 . S
C1070 C1069 1.366 . S
C1070 C1071 1.414 . S
C1070 C1073 1.499 . S
C1071 H1045 0.950 . S
C1071 C1070 1.414 . S
C1071 C1072 1.374 . S
C1072 H1046 0.950 . S
C1072 C1068 1.385 . S
C1072 C1071 1.374 . S
C1073 C1070 1.499 . S
C1073 C1074 1.373 . S
C1073 C1075 1.389 . S
C1074 H1047 0.950 . S
C1074 C1060 1.377 . S
C1074 C1073 1.373 . S
C1075 C1059 1.377 . S
C1075 C1073 1.389 . S
C1075 C1076 1.524 . S
C1076 C1075 1.524 . S
C1076 C1077 1.397 . S
C1076 C1081 1.363 . S
C1077 H1048 0.950 . S
C1077 C1076 1.397 . S
C1077 C1078 1.334 . S
C1078 H1049 0.950 . S
C1078 C1077 1.334 . S
C1078 C1079 1.287 . S
C1079 C1078 1.287 . S
C1079 C1080 1.524 . S
C1079 H1082 0.999 . S
C1080 H1050 0.950 . S
C1080 C1079 1.524 . S
C1080 C1081 1.415 . S
C1081 H1051 0.950 . S
C1081 C1076 1.363 . S
C1081 C1080 1.415 . S
H1082 C1079 0.999 . S
H1083 C1064 0.913 . S
H1084 C1102 0.951 . S
H1085 C1104 0.951 . S
H1086 C1106 0.950 . S
H1087 C1107 0.950 . S
H1088 C1109 0.950 . S
H1089 C1112 0.950 . S
H1090 C1113 0.950 . S
H1091 C1115 0.950 . S
H1092 C1116 0.950 . S
H1093 C1117 0.951 . S
H1094 C1119 0.950 . S
H1095 C1121 0.950 . S
H1096 C1122 0.950 . S
H1097 C1124 0.950 . S
H1098 C1127 0.950 . S
H1099 C1128 0.950 . S
H1100 C1130 0.950 . S
H1101 C1131 0.950 . S
C1102 H1084 0.951 . S
C1102 C1103 1.366 . S
C1102 C1104 1.388 . S
C1103 C1102 1.366 . S
C1103 C1107 1.385 . S
C1104 H1085 0.951 . S
C1104 C1102 1.388 . S
C1104 C1105 1.366 . S
C1105 C1104 1.366 . S
C1105 C1106 1.414 . S
C1105 C1108 1.499 . S
C1106 H1086 0.950 . S
C1106 C1105 1.414 . S
C1106 C1107 1.374 . S
C1107 H1087 0.950 . S
C1107 C1103 1.385 . S
C1107 C1106 1.374 . S
C1108 C1105 1.499 . S
C1108 C1109 1.373 . S
C1108 C1110 1.389 1_565 S
C1109 H1088 0.950 . S
C1109 C1108 1.373 . S
C1109 C1125 1.377 . S
C1110 C1108 1.389 1_545 S
C1110 C1111 1.524 . S
C1110 C1124 1.377 . S
C1111 C1110 1.524 . S
C1111 C1112 1.397 . S
C1111 C1116 1.363 . S
C1112 H1089 0.950 . S
C1112 C1111 1.397 . S
C1112 C1113 1.334 . S
C1113 H1090 0.950 . S
C1113 C1112 1.334 . S
C1113 C1114 1.287 . S
C1114 C1113 1.287 . S
C1114 C1115 1.524 . S
C1114 H1133 0.913 . S
C1115 H1091 0.950 . S
C1115 C1114 1.524 . S
C1115 C1116 1.415 . S
C1116 H1092 0.950 . S
C1116 C1111 1.363 . S
C1116 C1115 1.415 . S
C1117 H1093 0.951 . S
C1117 C1118 1.366 . S
C1117 C1119 1.388 . S
C1118 C1117 1.366 . S
C1118 C1122 1.385 . S
C1119 H1094 0.950 . S
C1119 C1117 1.388 . S
C1119 C1120 1.366 . S
C1120 C1119 1.366 . S
C1120 C1121 1.414 . S
C1120 C1123 1.499 . S
C1121 H1095 0.950 . S
C1121 C1120 1.414 . S
C1121 C1122 1.374 . S
C1122 H1096 0.950 . S
C1122 C1118 1.385 . S
C1122 C1121 1.374 . S
C1123 C1120 1.499 . S
C1123 C1124 1.373 . S
C1123 C1125 1.389 1_545 S
C1124 H1097 0.950 . S
C1124 C1110 1.377 . S
C1124 C1123 1.373 . S
C1125 C1109 1.377 . S
C1125 C1123 1.389 1_565 S
C1125 C1126 1.524 . S
C1126 C1125 1.524 . S
C1126 C1127 1.397 . S
C1126 C1131 1.363 . S
C1127 H1098 0.950 . S
C1127 C1126 1.397 . S
C1127 C1128 1.334 . S
C1128 H1099 0.950 . S
C1128 C1127 1.334 . S
C1128 C1129 1.287 . S
C1129 C1128 1.287 . S
C1129 C1130 1.524 . S
C1129 H1132 0.999 . S
C1130 H1100 0.950 . S
C1130 C1129 1.524 . S
C1130 C1131 1.415 . S
C1131 H1101 0.950 . S
C1131 C1126 1.363 . S
C1131 C1130 1.415 . S
H1132 C1129 0.999 . S
H1133 C1114 0.913 . S
H1134 C1152 0.956 . S
H1135 C1154 0.951 1_556 S
H1136 C1156 0.950 . S
H1137 C1157 0.950 . S
H1138 C1159 0.950 . S
H1139 C1162 0.950 . S
H1140 C1163 0.950 . S
H1141 C1165 0.950 . S
H1142 C1166 0.950 . S
H1143 C1167 0.955 . S
H1144 C1169 0.951 1_554 S
H1145 C1171 0.950 . S
H1146 C1172 0.950 . S
H1147 C1174 0.950 . S
H1148 C1177 0.950 . S
H1149 C1178 0.950 . S
H1150 C1180 0.950 . S
H1151 C1181 0.950 . S
C1152 H1134 0.956 . S
C1152 C1153 1.366 . S
C1152 C1154 1.388 . S
C1153 C1152 1.366 . S
C1153 C1157 1.385 . S
C1154 H1135 0.951 1_554 S
C1154 C1152 1.388 . S
C1154 C1155 1.366 . S
C1155 C1154 1.366 . S
C1155 C1156 1.414 . S
C1155 C1158 1.499 . S
C1156 H1136 0.950 . S
C1156 C1155 1.414 . S
C1156 C1157 1.374 . S
C1157 H1137 0.950 . S
C1157 C1153 1.385 . S
C1157 C1156 1.374 . S
C1158 C1155 1.499 . S
C1158 C1159 1.373 . S
C1158 C1160 1.389 . S
C1159 H1138 0.950 . S
C1159 C1158 1.373 . S
C1159 C1175 1.377 1_554 S
C1160 C1158 1.389 . S
C1160 C1161 1.524 . S
C1160 C1174 1.377 1_554 S
C1161 C1160 1.524 . S
C1161 C1162 1.397 . S
C1161 C1166 1.363 1_554 S
C1162 H1139 0.950 . S
C1162 C1161 1.397 . S
C1162 C1163 1.334 . S
C1163 H1140 0.950 . S
C1163 C1162 1.334 . S
C1163 C1164 1.287 . S
C1164 C1163 1.287 . S
C1164 C1165 1.524 1_554 S
C1164 H1183 0.913 . S
C1165 H1141 0.950 . S
C1165 C1164 1.524 1_556 S
C1165 C1166 1.415 . S
C1166 H1142 0.950 . S
C1166 C1161 1.363 1_556 S
C1166 C1165 1.415 . S
C1167 H1143 0.955 . S
C1167 C1168 1.366 . S
C1167 C1169 1.388 . S
C1168 C1167 1.366 . S
C1168 C1172 1.385 . S
C1169 H1144 0.951 1_556 S
C1169 C1167 1.388 . S
C1169 C1170 1.366 . S
C1170 C1169 1.366 . S
C1170 C1171 1.414 . S
C1170 C1173 1.499 . S
C1171 H1145 0.950 . S
C1171 C1170 1.414 . S
C1171 C1172 1.374 . S
C1172 H1146 0.950 . S
C1172 C1168 1.385 . S
C1172 C1171 1.374 . S
C1173 C1170 1.499 . S
C1173 C1174 1.373 . S
C1173 C1175 1.389 . S
C1174 H1147 0.950 . S
C1174 C1160 1.377 1_556 S
C1174 C1173 1.373 . S
C1175 C1159 1.377 1_556 S
C1175 C1173 1.389 . S
C1175 C1176 1.524 . S
C1176 C1175 1.524 . S
C1176 C1177 1.397 . S
C1176 C1181 1.363 1_556 S
C1177 H1148 0.950 . S
C1177 C1176 1.397 . S
C1177 C1178 1.334 . S
C1178 H1149 0.950 . S
C1178 C1177 1.334 . S
C1178 C1179 1.287 . S
C1179 C1178 1.287 . S
C1179 C1180 1.524 1_556 S
C1179 H1182 0.999 . S
C1180 H1150 0.950 . S
C1180 C1179 1.524 1_554 S
C1180 C1181 1.415 . S
C1181 H1151 0.950 . S
C1181 C1176 1.363 1_554 S
C1181 C1180 1.415 . S
H1182 C1179 0.999 . S
H1183 C1164 0.913 . S
H1184 C1202 0.951 1_554 S
H1185 C1204 0.951 . S
H1186 C1206 0.950 . S
H1187 C1207 0.950 . S
H1188 C1209 0.950 . S
H1189 C1212 0.950 1_556 S
H1190 C1213 0.950 . S
H1191 C1215 0.950 . S
H1192 C1216 0.950 . S
H1193 C1217 0.951 1_556 S
H1194 C1219 0.951 . S
H1195 C1221 0.950 . S
H1196 C1222 0.950 . S
H1197 C1224 0.950 . S
H1198 C1227 0.950 1_554 S
H1199 C1228 0.950 . S
H1200 C1230 0.950 . S
H1201 C1231 0.950 . S
C1202 H1184 0.951 1_556 S
C1202 C1203 1.366 . S
C1202 C1204 1.388 1_556 S
C1203 C1202 1.366 . S
C1203 C1207 1.385 . S
C1204 H1185 0.951 . S
C1204 C1202 1.388 1_554 S
C1204 C1205 1.366 1_554 S
C1205 C1204 1.366 1_556 S
C1205 C1206 1.414 . S
C1205 C1208 1.499 . S
C1206 H1186 0.950 . S
C1206 C1205 1.414 . S
C1206 C1207 1.374 . S
C1207 H1187 0.950 . S
C1207 C1203 1.385 . S
C1207 C1206 1.374 . S
C1208 C1205 1.499 . S
C1208 C1209 1.373 . S
C1208 C1210 1.389 1_556 S
C1209 H1188 0.950 . S
C1209 C1208 1.373 . S
C1209 C1225 1.377 1_545 S
C1210 C1208 1.389 1_554 S
C1210 C1211 1.524 . S
C1210 C1224 1.377 1_545 S
C1211 C1210 1.524 . S
C1211 C1212 1.397 . S
C1211 C1216 1.363 . S
C1212 H1189 0.950 1_554 S
C1212 C1211 1.397 . S
C1212 C1213 1.334 . S
C1213 H1190 0.950 . S
C1213 C1212 1.334 . S
C1213 C1214 1.287 . S
C1214 C1213 1.287 . S
C1214 C1215 1.524 . S
C1214 H1233 0.913 . S
C1215 H1191 0.950 . S
C1215 C1214 1.524 . S
C1215 C1216 1.415 . S
C1216 H1192 0.950 . S
C1216 C1211 1.363 . S
C1216 C1215 1.415 . S
C1217 H1193 0.951 1_554 S
C1217 C1218 1.366 . S
C1217 C1219 1.388 1_554 S
C1218 C1217 1.366 . S
C1218 C1222 1.385 . S
C1219 H1194 0.951 . S
C1219 C1217 1.388 1_556 S
C1219 C1220 1.366 1_556 S
C1220 C1219 1.366 1_554 S
C1220 C1221 1.414 . S
C1220 C1223 1.499 . S
C1221 H1195 0.950 . S
C1221 C1220 1.414 . S
C1221 C1222 1.374 . S
C1222 H1196 0.950 . S
C1222 C1218 1.385 . S
C1222 C1221 1.374 . S
C1223 C1220 1.499 . S
C1223 C1224 1.373 . S
C1223 C1225 1.389 1_554 S
C1224 H1197 0.950 . S
C1224 C1210 1.377 1_565 S
C1224 C1223 1.373 . S
C1225 C1209 1.377 1_565 S
C1225 C1223 1.389 1_556 S
C1225 C1226 1.524 . S
C1226 C1225 1.524 . S
C1226 C1227 1.397 . S
C1226 C1231 1.363 . S
C1227 H1198 0.950 1_556 S
C1227 C1226 1.397 . S
C1227 C1228 1.334 . S
C1228 H1199 0.950 . S
C1228 C1227 1.334 . S
C1228 C1229 1.287 . S
C1229 C1228 1.287 . S
C1229 C1230 1.524 . S
C1229 H1232 0.999 . S
C1230 H1200 0.950 . S
C1230 C1229 1.524 . S
C1230 C1231 1.415 . S
C1231 H1201 0.950 . S
C1231 C1226 1.363 . S
C1231 C1230 1.415 . S
H1232 C1229 0.999 . S
H1233 C1214 0.913 . S
H1234 C1252 0.951 . S
H1235 C1254 0.951 1_554 S
H1236 C1256 0.950 . S
H1237 C1257 0.950 . S
H1238 C1259 0.950 . S
H1239 C1262 0.950 . S
H1240 C1263 0.950 . S
H1241 C1265 0.950 1_554 S
H1242 C1266 0.950 . S
H1243 C1267 0.951 . S
H1244 C1269 0.951 1_556 S
H1245 C1271 0.950 . S
H1246 C1272 0.950 . S
H1247 C1274 0.950 . S
H1248 C1277 0.950 . S
H1249 C1278 0.950 . S
H1250 C1280 0.950 1_556 S
H1251 C1281 0.950 . S
C1252 H1234 0.951 . S
C1252 C1253 1.366 . S
C1252 C1254 1.388 . S
C1253 C1252 1.366 . S
C1253 C1257 1.385 . S
C1254 H1235 0.951 1_556 S
C1254 C1252 1.388 . S
C1254 C1255 1.366 . S
C1255 C1254 1.366 . S
C1255 C1256 1.414 . S
C1255 C1258 1.499 . S
C1256 H1236 0.950 . S
C1256 C1255 1.414 . S
C1256 C1257 1.374 . S
C1257 H1237 0.950 . S
C1257 C1253 1.385 . S
C1257 C1256 1.374 . S
C1258 C1255 1.499 . S
C1258 C1259 1.373 . S
C1258 C1260 1.389 . S
C1259 H1238 0.950 . S
C1259 C1258 1.373 . S
C1259 C1275 1.377 1_656 S
C1260 C1258 1.389 . S
C1260 C1261 1.524 . S
C1260 C1274 1.377 1_656 S
C1261 C1260 1.524 . S
C1261 C1262 1.397 . S
C1261 C1266 1.363 1_556 S
C1262 H1239 0.950 . S
C1262 C1261 1.397 . S
C1262 C1263 1.334 . S
C1263 H1240 0.950 . S
C1263 C1262 1.334 . S
C1263 C1264 1.287 . S
C1264 C1263 1.287 . S
C1264 C1265 1.524 . S
C1264 H1283 0.913 . S
C1265 H1241 0.950 1_556 S
C1265 C1264 1.524 . S
C1265 C1266 1.415 1_556 S
C1266 H1242 0.950 . S
C1266 C1261 1.363 1_554 S
C1266 C1265 1.415 1_554 S
C1267 H1243 0.951 . S
C1267 C1268 1.366 . S
C1267 C1269 1.388 . S
C1268 C1267 1.366 . S
C1268 C1272 1.385 . S
C1269 H1244 0.951 1_554 S
C1269 C1267 1.388 . S
C1269 C1270 1.366 . S
C1270 C1269 1.366 . S
C1270 C1271 1.414 . S
C1270 C1273 1.499 . S
C1271 H1245 0.950 . S
C1271 C1270 1.414 . S
C1271 C1272 1.374 . S
C1272 H1246 0.950 . S
C1272 C1268 1.385 . S
C1272 C1271 1.374 . S
C1273 C1270 1.499 . S
C1273 C1274 1.373 . S
C1273 C1275 1.389 . S
C1274 H1247 0.950 . S
C1274 C1260 1.377 1_454 S
C1274 C1273 1.373 . S
C1275 C1259 1.377 1_454 S
C1275 C1273 1.389 . S
C1275 C1276 1.524 . S
C1276 C1275 1.524 . S
C1276 C1277 1.397 . S
C1276 C1281 1.363 1_554 S
C1277 H1248 0.950 . S
C1277 C1276 1.397 . S
C1277 C1278 1.334 . S
C1278 H1249 0.950 . S
C1278 C1277 1.334 . S
C1278 C1279 1.287 . S
C1279 C1278 1.287 . S
C1279 C1280 1.524 . S
C1279 H1282 0.999 . S
C1280 H1250 0.950 1_554 S
C1280 C1279 1.524 . S
C1280 C1281 1.415 1_554 S
C1281 H1251 0.950 . S
C1281 C1276 1.363 1_556 S
C1281 C1280 1.415 1_556 S
H1282 C1279 0.999 . S
H1283 C1264 0.913 . S
H1284 C1302 0.951 . S
H1285 C1304 0.951 . S
H1286 C1306 0.950 . S
H1287 C1307 0.950 . S
H1288 C1309 0.950 . S
H1289 C1312 0.950 . S
H1290 C1313 0.950 . S
H1291 C1315 0.950 . S
H1292 C1316 0.950 . S
H1293 C1317 0.951 . S
H1294 C1319 0.951 . S
H1295 C1321 0.950 . S
H1296 C1322 0.950 . S
H1297 C1324 0.950 . S
H1298 C1327 0.950 . S
H1299 C1328 0.950 . S
H1300 C1330 0.950 . S
H1301 C1331 0.950 . S
C1302 H1284 0.951 . S
C1302 C1303 1.366 . S
C1302 C1304 1.388 . S
C1303 C1302 1.366 . S
C1303 C1307 1.385 . S
C1304 H1285 0.951 . S
C1304 C1302 1.388 . S
C1304 C1305 1.366 . S
C1305 C1304 1.366 . S
C1305 C1306 1.414 . S
C1305 C1308 1.499 . S
C1306 H1286 0.950 . S
C1306 C1305 1.414 . S
C1306 C1307 1.374 . S
C1307 H1287 0.950 . S
C1307 C1303 1.385 . S
C1307 C1306 1.374 . S
C1308 C1305 1.499 . S
C1308 C1309 1.373 . S
C1308 C1310 1.389 1_556 S
C1309 H1288 0.950 . S
C1309 C1308 1.373 . S
C1309 C1325 1.377 . S
C1310 C1308 1.389 1_554 S
C1310 C1311 1.524 . S
C1310 C1324 1.377 . S
C1311 C1310 1.524 . S
C1311 C1312 1.397 . S
C1311 C1316 1.363 . S
C1312 H1289 0.950 . S
C1312 C1311 1.397 . S
C1312 C1313 1.334 . S
C1313 H1290 0.950 . S
C1313 C1312 1.334 . S
C1313 C1314 1.287 . S
C1314 C1313 1.287 . S
C1314 C1315 1.524 . S
C1314 H1333 0.913 . S
C1315 H1291 0.950 . S
C1315 C1314 1.524 . S
C1315 C1316 1.415 . S
C1316 H1292 0.950 . S
C1316 C1311 1.363 . S
C1316 C1315 1.415 . S
C1317 H1293 0.951 . S
C1317 C1318 1.366 . S
C1317 C1319 1.388 . S
C1318 C1317 1.366 . S
C1318 C1322 1.385 . S
C1319 H1294 0.951 . S
C1319 C1317 1.388 . S
C1319 C1320 1.366 . S
C1320 C1319 1.366 . S
C1320 C1321 1.414 . S
C1320 C1323 1.499 . S
C1321 H1295 0.950 . S
C1321 C1320 1.414 . S
C1321 C1322 1.374 . S
C1322 H1296 0.950 . S
C1322 C1318 1.385 . S
C1322 C1321 1.374 . S
C1323 C1320 1.499 . S
C1323 C1324 1.373 . S
C1323 C1325 1.389 1_554 S
C1324 H1297 0.950 . S
C1324 C1310 1.377 . S
C1324 C1323 1.373 . S
C1325 C1309 1.377 . S
C1325 C1323 1.389 1_556 S
C1325 C1326 1.524 . S
C1326 C1325 1.524 . S
C1326 C1327 1.397 . S
C1326 C1331 1.363 . S
C1327 H1298 0.950 . S
C1327 C1326 1.397 . S
C1327 C1328 1.334 . S
C1328 H1299 0.950 . S
C1328 C1327 1.334 . S
C1328 C1329 1.287 . S
C1329 C1328 1.287 . S
C1329 C1330 1.524 . S
C1329 H1332 0.999 . S
C1330 H1300 0.950 . S
C1330 C1329 1.524 . S
C1330 C1331 1.415 . S
C1331 H1301 0.950 . S
C1331 C1326 1.363 . S
C1331 C1330 1.415 . S
H1332 C1329 0.999 . S
H1333 C1314 0.913 . S
H1334 C1352 0.951 . S
H1335 C1354 0.951 . S
H1336 C1356 0.950 . S
H1337 C1357 0.950 . S
H1338 C1359 0.950 . S
H1339 C1362 0.950 . S
H1340 C1363 0.950 . S
H1341 C1365 0.950 . S
H1342 C1366 0.950 1_545 S
H1343 C1367 0.951 . S
H1344 C1369 0.951 . S
H1345 C1371 0.950 . S
H1346 C1372 0.950 . S
H1347 C1374 0.950 . S
H1348 C1377 0.950 . S
H1349 C1378 0.950 . S
H1350 C1380 0.950 . S
H1351 C1381 0.950 1_565 S
C1352 H1334 0.951 . S
C1352 C1353 1.366 . S
C1352 C1354 1.388 . S
C1353 C1352 1.366 . S
C1353 C1357 1.385 1_554 S
C1354 H1335 0.951 . S
C1354 C1352 1.388 . S
C1354 C1355 1.366 . S
C1355 C1354 1.366 . S
C1355 C1356 1.414 1_554 S
C1355 C1358 1.499 . S
C1356 H1336 0.950 . S
C1356 C1355 1.414 1_556 S
C1356 C1357 1.374 . S
C1357 H1337 0.950 . S
C1357 C1353 1.385 1_556 S
C1357 C1356 1.374 . S
C1358 C1355 1.499 . S
C1358 C1359 1.373 1_554 S
C1358 C1360 1.389 . S
C1359 H1338 0.950 . S
C1359 C1358 1.373 1_556 S
C1359 C1375 1.377 1_565 S
C1360 C1358 1.389 . S
C1360 C1361 1.524 . S
C1360 C1374 1.377 1_565 S
C1361 C1360 1.524 . S
C1361 C1362 1.397 . S
C1361 C1366 1.363 . S
C1362 H1339 0.950 . S
C1362 C1361 1.397 . S
C1362 C1363 1.334 . S
C1363 H1340 0.950 . S
C1363 C1362 1.334 . S
C1363 C1364 1.287 . S
C1364 C1363 1.287 . S
C1364 C1365 1.524 . S
C1364 H1383 0.913 . S
C1365 H1341 0.950 . S
C1365 C1364 1.524 . S
C1365 C1366 1.415 . S
C1366 H1342 0.950 1_565 S
C1366 C1361 1.363 . S
C1366 C1365 1.415 . S
C1367 H1343 0.951 . S
C1367 C1368 1.366 . S
C1367 C1369 1.388 . S
C1368 C1367 1.366 . S
C1368 C1372 1.385 1_556 S
C1369 H1344 0.951 . S
C1369 C1367 1.388 . S
C1369 C1370 1.366 . S
C1370 C1369 1.366 . S
C1370 C1371 1.414 1_556 S
C1370 C1373 1.499 . S
C1371 H1345 0.950 . S
C1371 C1370 1.414 1_554 S
C1371 C1372 1.374 . S
C1372 H1346 0.950 . S
C1372 C1368 1.385 1_554 S
C1372 C1371 1.374 . S
C1373 C1370 1.499 . S
C1373 C1374 1.373 1_556 S
C1373 C1375 1.389 . S
C1374 H1347 0.950 . S
C1374 C1360 1.377 1_545 S
C1374 C1373 1.373 1_554 S
C1375 C1359 1.377 1_545 S
C1375 C1373 1.389 . S
C1375 C1376 1.524 . S
C1376 C1375 1.524 . S
C1376 C1377 1.397 . S
C1376 C1381 1.363 . S
C1377 H1348 0.950 . S
C1377 C1376 1.397 . S
C1377 C1378 1.334 . S
C1378 H1349 0.950 . S
C1378 C1377 1.334 . S
C1378 C1379 1.287 . S
C1379 C1378 1.287 . S
C1379 C1380 1.524 . S
C1379 H1382 0.999 . S
C1380 H1350 0.950 . S
C1380 C1379 1.524 . S
C1380 C1381 1.415 . S
C1381 H1351 0.950 1_545 S
C1381 C1376 1.363 . S
C1381 C1380 1.415 . S
H1382 C1379 0.999 . S
H1383 C1364 0.913 . S
H1384 C1402 0.951 1_554 S
H1385 C1404 0.951 . S
H1386 C1406 0.950 . S
H1387 C1407 0.950 . S
H1388 C1409 0.950 . S
H1389 C1412 0.950 . S
H1390 C1413 0.950 . S
H1391 C1415 0.950 1_554 S
H1392 C1416 0.950 . S
H1393 C1417 0.951 1_556 S
H1394 C1419 0.951 . S
H1395 C1421 0.950 . S
H1396 C1422 0.950 . S
H1397 C1424 0.950 . S
H1398 C1427 0.950 . S
H1399 C1428 0.950 . S
H1400 C1430 0.950 1_556 S
H1401 C1431 0.950 . S
C1402 H1384 0.951 1_556 S
C1402 C1403 1.366 . S
C1402 C1404 1.388 1_556 S
C1403 C1402 1.366 . S
C1403 C1407 1.385 . S
C1404 H1385 0.951 . S
C1404 C1402 1.388 1_554 S
C1404 C1405 1.366 1_554 S
C1405 C1404 1.366 1_556 S
C1405 C1406 1.414 . S
C1405 C1408 1.499 . S
C1406 H1386 0.950 . S
C1406 C1405 1.414 . S
C1406 C1407 1.374 . S
C1407 H1387 0.950 . S
C1407 C1403 1.385 . S
C1407 C1406 1.374 . S
C1408 C1405 1.499 . S
C1408 C1409 1.373 . S
C1408 C1410 1.389 . S
C1409 H1388 0.950 . S
C1409 C1408 1.373 . S
C1409 C1425 1.377 1_656 S
C1410 C1408 1.389 . S
C1410 C1411 1.524 . S
C1410 C1424 1.377 1_656 S
C1411 C1410 1.524 . S
C1411 C1412 1.397 . S
C1411 C1416 1.363 1_556 S
C1412 H1389 0.950 . S
C1412 C1411 1.397 . S
C1412 C1413 1.334 . S
C1413 H1390 0.950 . S
C1413 C1412 1.334 . S
C1413 C1414 1.287 . S
C1414 C1413 1.287 . S
C1414 C1415 1.524 . S
C1414 H1433 0.913 . S
C1415 H1391 0.950 1_556 S
C1415 C1414 1.524 . S
C1415 C1416 1.415 1_556 S
C1416 H1392 0.950 . S
C1416 C1411 1.363 1_554 S
C1416 C1415 1.415 1_554 S
C1417 H1393 0.951 1_554 S
C1417 C1418 1.366 . S
C1417 C1419 1.388 1_554 S
C1418 C1417 1.366 . S
C1418 C1422 1.385 . S
C1419 H1394 0.951 . S
C1419 C1417 1.388 1_556 S
C1419 C1420 1.366 1_556 S
C1420 C1419 1.366 1_554 S
C1420 C1421 1.414 . S
C1420 C1423 1.499 . S
C1421 H1395 0.950 . S
C1421 C1420 1.414 . S
C1421 C1422 1.374 . S
C1422 H1396 0.950 . S
C1422 C1418 1.385 . S
C1422 C1421 1.374 . S
C1423 C1420 1.499 . S
C1423 C1424 1.373 . S
C1423 C1425 1.389 . S
C1424 H1397 0.950 . S
C1424 C1410 1.377 1_454 S
C1424 C1423 1.373 . S
C1425 C1409 1.377 1_454 S
C1425 C1423 1.389 . S
C1425 C1426 1.524 . S
C1426 C1425 1.524 . S
C1426 C1427 1.397 . S
C1426 C1431 1.363 1_554 S
C1427 H1398 0.950 . S
C1427 C1426 1.397 . S
C1427 C1428 1.334 . S
C1428 H1399 0.950 . S
C1428 C1427 1.334 . S
C1428 C1429 1.287 . S
C1429 C1428 1.287 . S
C1429 C1430 1.524 . S
C1429 H1432 0.999 . S
C1430 H1400 0.950 1_554 S
C1430 C1429 1.524 . S
C1430 C1431 1.415 1_554 S
C1431 H1401 0.950 . S
C1431 C1426 1.363 1_556 S
C1431 C1430 1.415 1_556 S
H1432 C1429 0.999 . S
H1433 C1414 0.913 . S
H1434 C1452 0.951 . S
H1435 C1454 0.951 . S
H1436 C1456 0.950 . S
H1437 C1457 0.950 . S
H1438 C1459 0.950 . S
H1439 C1462 0.950 . S
H1440 C1463 0.950 . S
H1441 C1465 0.950 . S
H1442 C1466 0.950 . S
H1443 C1467 0.951 . S
H1444 C1469 0.951 . S
H1445 C1471 0.950 . S
H1446 C1472 0.950 . S
H1447 C1474 0.950 . S
H1448 C1477 0.950 . S
H1449 C1478 0.950 . S
H1450 C1480 0.950 . S
H1451 C1481 0.950 . S
C1452 H1434 0.951 . S
C1452 C1453 1.366 . S
C1452 C1454 1.388 . S
C1453 C1452 1.366 . S
C1453 C1457 1.385 . S
C1454 H1435 0.951 . S
C1454 C1452 1.388 . S
C1454 C1455 1.366 . S
C1455 C1454 1.366 . S
C1455 C1456 1.414 . S
C1455 C1458 1.499 . S
C1456 H1436 0.950 . S
C1456 C1455 1.414 . S
C1456 C1457 1.374 . S
C1457 H1437 0.950 . S
C1457 C1453 1.385 . S
C1457 C1456 1.374 . S
C1458 C1455 1.499 . S
C1458 C1459 1.373 . S
C1458 C1460 1.389 . S
C1459 H1438 0.950 . S
C1459 C1458 1.373 . S
C1459 C1475 1.377 . S
C1460 C1458 1.389 . S
C1460 C1461 1.524 . S
C1460 C1474 1.377 . S
C1461 C1460 1.524 . S
C1461 C1462 1.397 . S
C1461 C1466 1.363 . S
C1462 H1439 0.950 . S
C1462 C1461 1.397 . S
C1462 C1463 1.334 . S
C1463 H1440 0.950 . S
C1463 C1462 1.334 . S
C1463 C1464 1.287 . S
C1464 C1463 1.287 . S
C1464 C1465 1.524 . S
C1464 H1483 0.913 . S
C1465 H1441 0.950 . S
C1465 C1464 1.524 . S
C1465 C1466 1.415 . S
C1466 H1442 0.950 . S
C1466 C1461 1.363 . S
C1466 C1465 1.415 . S
C1467 H1443 0.951 . S
C1467 C1468 1.366 . S
C1467 C1469 1.388 . S
C1468 C1467 1.366 . S
C1468 C1472 1.385 . S
C1469 H1444 0.951 . S
C1469 C1467 1.388 . S
C1469 C1470 1.366 . S
C1470 C1469 1.366 . S
C1470 C1471 1.414 . S
C1470 C1473 1.499 . S
C1471 H1445 0.950 . S
C1471 C1470 1.414 . S
C1471 C1472 1.374 . S
C1472 H1446 0.950 . S
C1472 C1468 1.385 . S
C1472 C1471 1.374 . S
C1473 C1470 1.499 . S
C1473 C1474 1.373 . S
C1473 C1475 1.389 . S
C1474 H1447 0.950 . S
C1474 C1460 1.377 . S
C1474 C1473 1.373 . S
C1475 C1459 1.377 . S
C1475 C1473 1.389 . S
C1475 C1476 1.524 . S
C1476 C1475 1.524 . S
C1476 C1477 1.397 . S
C1476 C1481 1.363 . S
C1477 H1448 0.950 . S
C1477 C1476 1.397 . S
C1477 C1478 1.334 . S
C1478 H1449 0.950 . S
C1478 C1477 1.334 . S
C1478 C1479 1.287 . S
C1479 C1478 1.287 . S
C1479 C1480 1.524 . S
C1479 H1482 0.999 . S
C1480 H1450 0.950 . S
C1480 C1479 1.524 . S
C1480 C1481 1.415 . S
C1481 H1451 0.950 . S
C1481 C1476 1.363 . S
C1481 C1480 1.415 . S
H1482 C1479 0.999 . S
H1483 C1464 0.913 . S
H1484 C1502 0.951 . S
H1485 C1504 0.951 . S
H1486 C1506 0.950 . S
H1487 C1507 0.950 . S
H1488 C1509 0.950 . S
H1489 C1512 0.950 . S
H1490 C1513 0.950 . S
H1491 C1515 0.950 . S
H1492 C1516 0.950 . S
H1493 C1517 0.951 . S
H1494 C1519 0.951 . S
H1495 C1521 0.950 . S
H1496 C1522 0.950 . S
H1497 C1524 0.950 . S
H1498 C1527 0.950 . S
H1499 C1528 0.950 . S
H1500 C1530 0.950 . S
H1501 C1531 0.950 . S
C1502 H1484 0.951 . S
C1502 C1503 1.366 . S
C1502 C1504 1.388 . S
C1503 C1502 1.366 . S
C1503 C1507 1.385 . S
C1504 H1485 0.951 . S
C1504 C1502 1.388 . S
C1504 C1505 1.366 . S
C1505 C1504 1.366 . S
C1505 C1506 1.414 . S
C1505 C1508 1.499 . S
C1506 H1486 0.950 . S
C1506 C1505 1.414 . S
C1506 C1507 1.374 . S
C1507 H1487 0.950 . S
C1507 C1503 1.385 . S
C1507 C1506 1.374 . S
C1508 C1505 1.499 . S
C1508 C1509 1.373 . S
C1508 C1510 1.389 . S
C1509 H1488 0.950 . S
C1509 C1508 1.373 . S
C1509 C1525 1.377 . S
C1510 C1508 1.389 . S
C1510 C1511 1.524 . S
C1510 C1524 1.377 . S
C1511 C1510 1.524 . S
C1511 C1512 1.397 . S
C1511 C1516 1.363 . S
C1512 H1489 0.950 . S
C1512 C1511 1.397 . S
C1512 C1513 1.334 . S
C1513 H1490 0.950 . S
C1513 C1512 1.334 . S
C1513 C1514 1.287 . S
C1514 C1513 1.287 . S
C1514 C1515 1.524 . S
C1514 H1533 0.913 . S
C1515 H1491 0.950 . S
C1515 C1514 1.524 . S
C1515 C1516 1.415 . S
C1516 H1492 0.950 . S
C1516 C1511 1.363 . S
C1516 C1515 1.415 . S
C1517 H1493 0.951 . S
C1517 C1518 1.366 . S
C1517 C1519 1.388 . S
C1518 C1517 1.366 . S
C1518 C1522 1.385 . S
C1519 H1494 0.951 . S
C1519 C1517 1.388 . S
C1519 C1520 1.366 . S
C1520 C1519 1.366 . S
C1520 C1521 1.414 . S
C1520 C1523 1.499 . S
C1521 H1495 0.950 . S
C1521 C1520 1.414 . S
C1521 C1522 1.374 . S
C1522 H1496 0.950 . S
C1522 C1518 1.385 . S
C1522 C1521 1.374 . S
C1523 C1520 1.499 . S
C1523 C1524 1.373 . S
C1523 C1525 1.389 . S
C1524 H1497 0.950 . S
C1524 C1510 1.377 . S
C1524 C1523 1.373 . S
C1525 C1509 1.377 . S
C1525 C1523 1.389 . S
C1525 C1526 1.524 . S
C1526 C1525 1.524 . S
C1526 C1527 1.397 . S
C1526 C1531 1.363 . S
C1527 H1498 0.950 . S
C1527 C1526 1.397 . S
C1527 C1528 1.334 . S
C1528 H1499 0.950 . S
C1528 C1527 1.334 . S
C1528 C1529 1.287 . S
C1529 C1528 1.287 . S
C1529 C1530 1.524 . S
C1529 H1532 0.999 . S
C1530 H1500 0.950 . S
C1530 C1529 1.524 . S
C1530 C1531 1.415 . S
C1531 H1501 0.950 . S
C1531 C1526 1.363 . S
C1531 C1530 1.415 . S
H1532 C1529 0.999 . S
H1533 C1514 0.913 . S
H1534 C1552 0.951 . S
H1535 C1554 0.951 . S
H1536 C1556 0.950 . S
H1537 C1557 0.950 . S
H1538 C1559 0.950 . S
H1539 C1562 0.950 . S
H1540 C1563 0.950 . S
H1541 C1565 0.950 . S
H1542 C1566 0.950 . S
H1543 C1567 0.951 . S
H1544 C1569 0.951 . S
H1545 C1571 0.950 . S
H1546 C1572 0.950 . S
H1547 C1574 0.950 . S
H1548 C1577 0.950 . S
H1549 C1578 0.950 . S
H1550 C1580 0.950 . S
H1551 C1581 0.950 . S
C1552 H1534 0.951 . S
C1552 C1553 1.366 . S
C1552 C1554 1.388 . S
C1553 C1552 1.366 . S
C1553 C1557 1.385 . S
C1554 H1535 0.951 . S
C1554 C1552 1.388 . S
C1554 C1555 1.366 . S
C1555 C1554 1.366 . S
C1555 C1556 1.414 . S
C1555 C1558 1.499 . S
C1556 H1536 0.950 . S
C1556 C1555 1.414 . S
C1556 C1557 1.374 . S
C1557 H1537 0.950 . S
C1557 C1553 1.385 . S
C1557 C1556 1.374 . S
C1558 C1555 1.499 . S
C1558 C1559 1.373 . S
C1558 C1560 1.389 . S
C1559 H1538 0.950 . S
C1559 C1558 1.373 . S
C1559 C1575 1.377 . S
C1560 C1558 1.389 . S
C1560 C1561 1.524 . S
C1560 C1574 1.377 . S
C1561 C1560 1.524 . S
C1561 C1562 1.397 . S
C1561 C1566 1.363 . S
C1562 H1539 0.950 . S
C1562 C1561 1.397 . S
C1562 C1563 1.334 . S
C1563 H1540 0.950 . S
C1563 C1562 1.334 . S
C1563 C1564 1.287 . S
C1564 C1563 1.287 . S
C1564 C1565 1.524 . S
C1564 H1583 0.913 . S
C1565 H1541 0.950 . S
C1565 C1564 1.524 . S
C1565 C1566 1.415 . S
C1566 H1542 0.950 . S
C1566 C1561 1.363 . S
C1566 C1565 1.415 . S
C1567 H1543 0.951 . S
C1567 C1568 1.366 . S
C1567 C1569 1.388 . S
C1568 C1567 1.366 . S
C1568 C1572 1.385 . S
C1569 H1544 0.951 . S
C1569 C1567 1.388 . S
C1569 C1570 1.366 . S
C1570 C1569 1.366 . S
C1570 C1571 1.414 . S
C1570 C1573 1.499 . S
C1571 H1545 0.950 . S
C1571 C1570 1.414 . S
C1571 C1572 1.374 . S
C1572 H1546 0.950 . S
C1572 C1568 1.385 . S
C1572 C1571 1.374 . S
C1573 C1570 1.499 . S
C1573 C1574 1.373 . S
C1573 C1575 1.389 . S
C1574 H1547 0.950 . S
C1574 C1560 1.377 . S
C1574 C1573 1.373 . S
C1575 C1559 1.377 . S
C1575 C1573 1.389 . S
C1575 C1576 1.524 . S
C1576 C1575 1.524 . S
C1576 C1577 1.397 . S
C1576 C1581 1.363 . S
C1577 H1548 0.950 . S
C1577 C1576 1.397 . S
C1577 C1578 1.334 . S
C1578 H1549 0.950 . S
C1578 C1577 1.334 . S
C1578 C1579 1.287 . S
C1579 C1578 1.287 . S
C1579 C1580 1.524 . S
C1579 H1582 0.999 . S
C1580 H1550 0.950 . S
C1580 C1579 1.524 . S
C1580 C1581 1.415 . S
C1581 H1551 0.950 . S
C1581 C1576 1.363 . S
C1581 C1580 1.415 . S
H1582 C1579 0.999 . S
H1583 C1564 0.913 . S
H1584 C1602 0.951 . S
H1585 C1604 0.951 . S
H1586 C1606 0.950 . S
H1587 C1607 0.950 . S
H1588 C1609 0.950 . S
H1589 C1612 0.950 . S
H1590 C1613 0.950 . S
H1591 C1615 0.950 . S
H1592 C1616 0.950 . S
H1593 C1617 0.951 . S
H1594 C1619 0.951 . S
H1595 C1621 0.950 . S
H1596 C1622 0.950 . S
H1597 C1624 0.950 . S
H1598 C1627 0.950 . S
H1599 C1628 0.950 . S
H1600 C1630 0.950 . S
H1601 C1631 0.950 . S
C1602 H1584 0.951 . S
C1602 C1603 1.366 . S
C1602 C1604 1.388 . S
C1603 C1602 1.366 . S
C1603 C1607 1.385 . S
C1604 H1585 0.951 . S
C1604 C1602 1.388 . S
C1604 C1605 1.366 . S
C1605 C1604 1.366 . S
C1605 C1606 1.414 . S
C1605 C1608 1.499 . S
C1606 H1586 0.950 . S
C1606 C1605 1.414 . S
C1606 C1607 1.374 . S
C1607 H1587 0.950 . S
C1607 C1603 1.385 . S
C1607 C1606 1.374 . S
C1608 C1605 1.499 . S
C1608 C1609 1.373 . S
C1608 C1610 1.389 . S
C1609 H1588 0.950 . S
C1609 C1608 1.373 . S
C1609 C1625 1.377 . S
C1610 C1608 1.389 . S
C1610 C1611 1.524 . S
C1610 C1624 1.377 . S
C1611 C1610 1.524 . S
C1611 C1612 1.397 . S
C1611 C1616 1.363 . S
C1612 H1589 0.950 . S
C1612 C1611 1.397 . S
C1612 C1613 1.334 . S
C1613 H1590 0.950 . S
C1613 C1612 1.334 . S
C1613 C1614 1.287 . S
C1614 C1613 1.287 . S
C1614 C1615 1.524 . S
C1614 H1633 0.913 . S
C1615 H1591 0.950 . S
C1615 C1614 1.524 . S
C1615 C1616 1.415 . S
C1616 H1592 0.950 . S
C1616 C1611 1.363 . S
C1616 C1615 1.415 . S
C1617 H1593 0.951 . S
C1617 C1618 1.366 . S
C1617 C1619 1.388 . S
C1618 C1617 1.366 . S
C1618 C1622 1.385 . S
C1619 H1594 0.951 . S
C1619 C1617 1.388 . S
C1619 C1620 1.366 . S
C1620 C1619 1.366 . S
C1620 C1621 1.414 . S
C1620 C1623 1.499 . S
C1621 H1595 0.950 . S
C1621 C1620 1.414 . S
C1621 C1622 1.374 . S
C1622 H1596 0.950 . S
C1622 C1618 1.385 . S
C1622 C1621 1.374 . S
C1623 C1620 1.499 . S
C1623 C1624 1.373 . S
C1623 C1625 1.389 . S
C1624 H1597 0.950 . S
C1624 C1610 1.377 . S
C1624 C1623 1.373 . S
C1625 C1609 1.377 . S
C1625 C1623 1.389 . S
C1625 C1626 1.524 . S
C1626 C1625 1.524 . S
C1626 C1627 1.397 . S
C1626 C1631 1.363 . S
C1627 H1598 0.950 . S
C1627 C1626 1.397 . S
C1627 C1628 1.334 . S
C1628 H1599 0.950 . S
C1628 C1627 1.334 . S
C1628 C1629 1.287 . S
C1629 C1628 1.287 . S
C1629 C1630 1.524 . S
C1629 H1632 0.999 . S
C1630 H1600 0.950 . S
C1630 C1629 1.524 . S
C1630 C1631 1.415 . S
C1631 H1601 0.950 . S
C1631 C1626 1.363 . S
C1631 C1630 1.415 . S
H1632 C1629 0.999 . S
H1633 C1614 0.913 . S
H1634 C1652 0.951 . S
H1635 C1654 0.951 . S
H1636 C1656 0.950 . S
H1637 C1657 0.950 . S
H1638 C1659 0.950 . S
H1639 C1662 0.950 . S
H1640 C1663 0.950 . S
H1641 C1665 0.950 . S
H1642 C1666 0.950 . S
H1643 C1667 0.951 . S
H1644 C1669 0.951 . S
H1645 C1671 0.950 . S
H1646 C1672 0.950 . S
H1647 C1674 0.950 . S
H1648 C1677 0.950 . S
H1649 C1678 0.950 . S
H1650 C1680 0.950 . S
H1651 C1681 0.950 . S
C1652 H1634 0.951 . S
C1652 C1653 1.366 . S
C1652 C1654 1.388 . S
C1653 C1652 1.366 . S
C1653 C1657 1.385 . S
C1654 H1635 0.951 . S
C1654 C1652 1.388 . S
C1654 C1655 1.366 . S
C1655 C1654 1.366 . S
C1655 C1656 1.414 . S
C1655 C1658 1.499 . S
C1656 H1636 0.950 . S
C1656 C1655 1.414 . S
C1656 C1657 1.374 . S
C1657 H1637 0.950 . S
C1657 C1653 1.385 . S
C1657 C1656 1.374 . S
C1658 C1655 1.499 . S
C1658 C1659 1.373 . S
C1658 C1660 1.389 . S
C1659 H1638 0.950 . S
C1659 C1658 1.373 . S
C1659 C1675 1.377 . S
C1660 C1658 1.389 . S
C1660 C1661 1.524 . S
C1660 C1674 1.377 . S
C1661 C1660 1.524 . S
C1661 C1662 1.397 . S
C1661 C1666 1.363 . S
C1662 H1639 0.950 . S
C1662 C1661 1.397 . S
C1662 C1663 1.334 . S
C1663 H1640 0.950 . S
C1663 C1662 1.334 . S
C1663 C1664 1.287 . S
C1664 C1663 1.287 . S
C1664 C1665 1.524 . S
C1664 H1683 0.913 . S
C1665 H1641 0.950 . S
C1665 C1664 1.524 . S
C1665 C1666 1.415 . S
C1666 H1642 0.950 . S
C1666 C1661 1.363 . S
C1666 C1665 1.415 . S
C1667 H1643 0.951 . S
C1667 C1668 1.366 . S
C1667 C1669 1.388 . S
C1668 C1667 1.366 . S
C1668 C1672 1.385 . S
C1669 H1644 0.951 . S
C1669 C1667 1.388 . S
C1669 C1670 1.366 . S
C1670 C1669 1.366 . S
C1670 C1671 1.414 . S
C1670 C1673 1.499 . S
C1671 H1645 0.950 . S
C1671 C1670 1.414 . S
C1671 C1672 1.374 . S
C1672 H1646 0.950 . S
C1672 C1668 1.385 . S
C1672 C1671 1.374 . S
C1673 C1670 1.499 . S
C1673 C1674 1.373 . S
C1673 C1675 1.389 . S
C1674 H1647 0.950 . S
C1674 C1660 1.377 . S
C1674 C1673 1.373 . S
C1675 C1659 1.377 . S
C1675 C1673 1.389 . S
C1675 C1676 1.524 . S
C1676 C1675 1.524 . S
C1676 C1677 1.397 . S
C1676 C1681 1.363 . S
C1677 H1648 0.950 . S
C1677 C1676 1.397 . S
C1677 C1678 1.334 . S
C1678 H1649 0.950 . S
C1678 C1677 1.334 . S
C1678 C1679 1.287 . S
C1679 C1678 1.287 . S
C1679 C1680 1.524 . S
C1679 H1682 0.999 . S
C1680 H1650 0.950 . S
C1680 C1679 1.524 . S
C1680 C1681 1.415 . S
C1681 H1651 0.950 . S
C1681 C1676 1.363 . S
C1681 C1680 1.415 . S
H1682 C1679 0.999 . S
H1683 C1664 0.913 . S
H1684 C1702 0.951 . S
H1685 C1704 0.951 . S
H1686 C1706 0.950 . S
H1687 C1707 0.950 . S
H1688 C1709 0.950 . S
H1689 C1712 0.950 . S
H1690 C1713 0.950 . S
H1691 C1715 0.950 . S
H1692 C1716 0.950 . S
H1693 C1717 0.951 . S
H1694 C1719 0.951 . S
H1695 C1721 0.950 . S
H1696 C1722 0.950 . S
H1697 C1724 0.950 . S
H1698 C1727 0.950 . S
H1699 C1728 0.950 . S
H1700 C1730 0.950 . S
H1701 C1731 0.950 . S
C1702 H1684 0.951 . S
C1702 C1703 1.366 . S
C1702 C1704 1.388 . S
C1703 C1702 1.366 . S
C1703 C1707 1.385 . S
C1704 H1685 0.951 . S
C1704 C1702 1.388 . S
C1704 C1705 1.366 . S
C1705 C1704 1.366 . S
C1705 C1706 1.414 . S
C1705 C1708 1.499 . S
C1706 H1686 0.950 . S
C1706 C1705 1.414 . S
C1706 C1707 1.374 . S
C1707 H1687 0.950 . S
C1707 C1703 1.385 . S
C1707 C1706 1.374 . S
C1708 C1705 1.499 . S
C1708 C1709 1.373 . S
C1708 C1710 1.389 . S
C1709 H1688 0.950 . S
C1709 C1708 1.373 . S
C1709 C1725 1.377 . S
C1710 C1708 1.389 . S
C1710 C1711 1.524 . S
C1710 C1724 1.377 . S
C1711 C1710 1.524 . S
C1711 C1712 1.397 . S
C1711 C1716 1.363 . S
C1712 H1689 0.950 . S
C1712 C1711 1.397 . S
C1712 C1713 1.334 . S
C1713 H1690 0.950 . S
C1713 C1712 1.334 . S
C1713 C1714 1.287 . S
C1714 C1713 1.287 . S
C1714 C1715 1.524 . S
C1714 H1733 0.913 . S
C1715 H1691 0.950 . S
C1715 C1714 1.524 . S
C1715 C1716 1.415 . S
C1716 H1692 0.950 . S
C1716 C1711 1.363 . S
C1716 C1715 1.415 . S
C1717 H1693 0.951 . S
C1717 C1718 1.366 . S
C1717 C1719 1.388 . S
C1718 C1717 1.366 . S
C1718 C1722 1.385 . S
C1719 H1694 0.951 . S
C1719 C1717 1.388 . S
C1719 C1720 1.366 . S
C1720 C1719 1.366 . S
C1720 C1721 1.414 . S
C1720 C1723 1.499 . S
C1721 H1695 0.950 . S
C1721 C1720 1.414 . S
C1721 C1722 1.374 . S
C1722 H1696 0.950 . S
C1722 C1718 1.385 . S
C1722 C1721 1.374 . S
C1723 C1720 1.499 . S
C1723 C1724 1.373 . S
C1723 C1725 1.389 . S
C1724 H1697 0.950 . S
C1724 C1710 1.377 . S
C1724 C1723 1.373 . S
C1725 C1709 1.377 . S
C1725 C1723 1.389 . S
C1725 C1726 1.524 . S
C1726 C1725 1.524 . S
C1726 C1727 1.397 . S
C1726 C1731 1.363 . S
C1727 H1698 0.950 . S
C1727 C1726 1.397 . S
C1727 C1728 1.334 . S
C1728 H1699 0.950 . S
C1728 C1727 1.334 . S
C1728 C1729 1.287 . S
C1729 C1728 1.287 . S
C1729 C1730 1.524 . S
C1729 H1732 0.999 . S
C1730 H1700 0.950 . S
C1730 C1729 1.524 . S
C1730 C1731 1.415 . S
C1731 H1701 0.950 . S
C1731 C1726 1.363 . S
C1731 C1730 1.415 . S
H1732 C1729 0.999 . S
H1733 C1714 0.913 . S
H1734 C1752 0.951 . S
H1735 C1754 0.951 . S
H1736 C1756 0.950 . S
H1737 C1757 0.950 . S
H1738 C1759 0.950 . S
H1739 C1762 0.950 . S
H1740 C1763 0.950 . S
H1741 C1765 0.950 . S
H1742 C1766 0.950 . S
H1743 C1767 0.951 . S
H1744 C1769 0.951 . S
H1745 C1771 0.950 . S
H1746 C1772 0.950 . S
H1747 C1774 0.950 . S
H1748 C1777 0.950 . S
H1749 C1778 0.950 . S
H1750 C1780 0.950 . S
H1751 C1781 0.950 . S
C1752 H1734 0.951 . S
C1752 C1753 1.366 . S
C1752 C1754 1.388 . S
C1753 C1752 1.366 . S
C1753 C1757 1.385 . S
C1754 H1735 0.951 . S
C1754 C1752 1.388 . S
C1754 C1755 1.366 . S
C1755 C1754 1.366 . S
C1755 C1756 1.414 . S
C1755 C1758 1.499 . S
C1756 H1736 0.950 . S
C1756 C1755 1.414 . S
C1756 C1757 1.374 . S
C1757 H1737 0.950 . S
C1757 C1753 1.385 . S
C1757 C1756 1.374 . S
C1758 C1755 1.499 . S
C1758 C1759 1.373 . S
C1758 C1760 1.389 . S
C1759 H1738 0.950 . S
C1759 C1758 1.373 . S
C1759 C1775 1.377 . S
C1760 C1758 1.389 . S
C1760 C1761 1.524 . S
C1760 C1774 1.377 . S
C1761 C1760 1.524 . S
C1761 C1762 1.397 . S
C1761 C1766 1.363 . S
C1762 H1739 0.950 . S
C1762 C1761 1.397 . S
C1762 C1763 1.334 . S
C1763 H1740 0.950 . S
C1763 C1762 1.334 . S
C1763 C1764 1.287 . S
C1764 C1763 1.287 . S
C1764 C1765 1.524 . S
C1764 H1783 0.913 . S
C1765 H1741 0.950 . S
C1765 C1764 1.524 . S
C1765 C1766 1.415 . S
C1766 H1742 0.950 . S
C1766 C1761 1.363 . S
C1766 C1765 1.415 . S
C1767 H1743 0.951 . S
C1767 C1768 1.366 . S
C1767 C1769 1.388 . S
C1768 C1767 1.366 . S
C1768 C1772 1.385 . S
C1769 H1744 0.951 . S
C1769 C1767 1.388 . S
C1769 C1770 1.366 . S
C1770 C1769 1.366 . S
C1770 C1771 1.414 . S
C1770 C1773 1.499 . S
C1771 H1745 0.950 . S
C1771 C1770 1.414 . S
C1771 C1772 1.374 . S
C1772 H1746 0.950 . S
C1772 C1768 1.385 . S
C1772 C1771 1.374 . S
C1773 C1770 1.499 . S
C1773 C1774 1.373 . S
C1773 C1775 1.389 . S
C1774 H1747 0.950 . S
C1774 C1760 1.377 . S
C1774 C1773 1.373 . S
C1775 C1759 1.377 . S
C1775 C1773 1.389 . S
C1775 C1776 1.524 . S
C1776 C1775 1.524 . S
C1776 C1777 1.397 . S
C1776 C1781 1.363 . S
C1777 H1748 0.950 . S
C1777 C1776 1.397 . S
C1777 C1778 1.334 . S
C1778 H1749 0.950 . S
C1778 C1777 1.334 . S
C1778 C1779 1.287 . S
C1779 C1778 1.287 . S
C1779 C1780 1.524 . S
C1779 H1782 0.999 . S
C1780 H1750 0.950 . S
C1780 C1779 1.524 . S
C1780 C1781 1.415 . S
C1781 H1751 0.950 . S
C1781 C1776 1.363 . S
C1781 C1780 1.415 . S
H1782 C1779 0.999 . S
H1783 C1764 0.913 . S
H1784 C1802 0.951 . S
H1785 C1804 0.951 . S
H1786 C1806 0.950 . S
H1787 C1807 0.950 . S
H1788 C1809 0.950 . S
H1789 C1812 0.950 . S
H1790 C1813 0.950 . S
H1791 C1815 0.950 . S
H1792 C1816 0.950 . S
H1793 C1817 0.951 . S
H1794 C1819 0.951 . S
H1795 C1821 0.950 . S
H1796 C1822 0.950 . S
H1797 C1824 0.950 . S
H1798 C1827 0.950 . S
H1799 C1828 0.950 . S
H1800 C1830 0.950 . S
H1801 C1831 0.950 . S
C1802 H1784 0.951 . S
C1802 C1803 1.366 . S
C1802 C1804 1.388 . S
C1803 C1802 1.366 . S
C1803 C1807 1.385 . S
C1804 H1785 0.951 . S
C1804 C1802 1.388 . S
C1804 C1805 1.366 . S
C1805 C1804 1.366 . S
C1805 C1806 1.414 . S
C1805 C1808 1.499 . S
C1806 H1786 0.950 . S
C1806 C1805 1.414 . S
C1806 C1807 1.374 . S
C1807 H1787 0.950 . S
C1807 C1803 1.385 . S
C1807 C1806 1.374 . S
C1808 C1805 1.499 . S
C1808 C1809 1.373 . S
C1808 C1810 1.389 . S
C1809 H1788 0.950 . S
C1809 C1808 1.373 . S
C1809 C1825 1.377 . S
C1810 C1808 1.389 . S
C1810 C1811 1.524 . S
C1810 C1824 1.377 . S
C1811 C1810 1.524 . S
C1811 C1812 1.397 . S
C1811 C1816 1.363 . S
C1812 H1789 0.950 . S
C1812 C1811 1.397 . S
C1812 C1813 1.334 . S
C1813 H1790 0.950 . S
C1813 C1812 1.334 . S
C1813 C1814 1.287 . S
C1814 C1813 1.287 . S
C1814 C1815 1.524 . S
C1814 H1833 0.913 . S
C1815 H1791 0.950 . S
C1815 C1814 1.524 . S
C1815 C1816 1.415 . S
C1816 H1792 0.950 . S
C1816 C1811 1.363 . S
C1816 C1815 1.415 . S
C1817 H1793 0.951 . S
C1817 C1818 1.366 . S
C1817 C1819 1.388 . S
C1818 C1817 1.366 . S
C1818 C1822 1.385 . S
C1819 H1794 0.951 . S
C1819 C1817 1.388 . S
C1819 C1820 1.366 . S
C1820 C1819 1.366 . S
C1820 C1821 1.414 . S
C1820 C1823 1.499 . S
C1821 H1795 0.950 . S
C1821 C1820 1.414 . S
C1821 C1822 1.374 . S
C1822 H1796 0.950 . S
C1822 C1818 1.385 . S
C1822 C1821 1.374 . S
C1823 C1820 1.499 . S
C1823 C1824 1.373 . S
C1823 C1825 1.389 . S
C1824 H1797 0.950 . S
C1824 C1810 1.377 . S
C1824 C1823 1.373 . S
C1825 C1809 1.377 . S
C1825 C1823 1.389 . S
C1825 C1826 1.524 . S
C1826 C1825 1.524 . S
C1826 C1827 1.397 . S
C1826 C1831 1.363 . S
C1827 H1798 0.950 . S
C1827 C1826 1.397 . S
C1827 C1828 1.334 . S
C1828 H1799 0.950 . S
C1828 C1827 1.334 . S
C1828 C1829 1.287 . S
C1829 C1828 1.287 . S
C1829 C1830 1.524 . S
C1829 H1832 0.999 . S
C1830 H1800 0.950 . S
C1830 C1829 1.524 . S
C1830 C1831 1.415 . S
C1831 H1801 0.950 . S
C1831 C1826 1.363 . S
C1831 C1830 1.415 . S
H1832 C1829 0.999 . S
H1833 C1814 0.913 . S
H1834 C1852 0.951 . S
H1835 C1854 0.951 . S
H1836 C1856 0.950 . S
H1837 C1857 0.950 . S
H1838 C1859 0.950 . S
H1839 C1862 0.950 . S
H1840 C1863 0.950 . S
H1841 C1865 0.950 . S
H1842 C1866 0.950 . S
H1843 C1867 0.951 . S
H1844 C1869 0.951 . S
H1845 C1871 0.950 . S
H1846 C1872 0.950 . S
H1847 C1874 0.950 . S
H1848 C1877 0.950 . S
H1849 C1878 0.950 . S
H1850 C1880 0.950 . S
H1851 C1881 0.950 . S
C1852 H1834 0.951 . S
C1852 C1853 1.366 . S
C1852 C1854 1.388 . S
C1853 C1852 1.366 . S
C1853 C1857 1.385 . S
C1854 H1835 0.951 . S
C1854 C1852 1.388 . S
C1854 C1855 1.366 . S
C1855 C1854 1.366 . S
C1855 C1856 1.414 . S
C1855 C1858 1.499 . S
C1856 H1836 0.950 . S
C1856 C1855 1.414 . S
C1856 C1857 1.374 . S
C1857 H1837 0.950 . S
C1857 C1853 1.385 . S
C1857 C1856 1.374 . S
C1858 C1855 1.499 . S
C1858 C1859 1.373 . S
C1858 C1860 1.389 . S
C1859 H1838 0.950 . S
C1859 C1858 1.373 . S
C1859 C1875 1.377 . S
C1860 C1858 1.389 . S
C1860 C1861 1.524 . S
C1860 C1874 1.377 . S
C1861 C1860 1.524 . S
C1861 C1862 1.397 . S
C1861 C1866 1.363 . S
C1862 H1839 0.950 . S
C1862 C1861 1.397 . S
C1862 C1863 1.334 . S
C1863 H1840 0.950 . S
C1863 C1862 1.334 . S
C1863 C1864 1.287 . S
C1864 C1863 1.287 . S
C1864 C1865 1.524 . S
C1864 H1883 0.913 . S
C1865 H1841 0.950 . S
C1865 C1864 1.524 . S
C1865 C1866 1.415 . S
C1866 H1842 0.950 . S
C1866 C1861 1.363 . S
C1866 C1865 1.415 . S
C1867 H1843 0.951 . S
C1867 C1868 1.366 . S
C1867 C1869 1.388 . S
C1868 C1867 1.366 . S
C1868 C1872 1.385 . S
C1869 H1844 0.951 . S
C1869 C1867 1.388 . S
C1869 C1870 1.366 . S
C1870 C1869 1.366 . S
C1870 C1871 1.414 . S
C1870 C1873 1.499 . S
C1871 H1845 0.950 . S
C1871 C1870 1.414 . S
C1871 C1872 1.374 . S
C1872 H1846 0.950 . S
C1872 C1868 1.385 . S
C1872 C1871 1.374 . S
C1873 C1870 1.499 . S
C1873 C1874 1.373 . S
C1873 C1875 1.389 . S
C1874 H1847 0.950 . S
C1874 C1860 1.377 . S
C1874 C1873 1.373 . S
C1875 C1859 1.377 . S
C1875 C1873 1.389 . S
C1875 C1876 1.524 . S
C1876 C1875 1.524 . S
C1876 C1877 1.397 . S
C1876 C1881 1.363 . S
C1877 H1848 0.950 . S
C1877 C1876 1.397 . S
C1877 C1878 1.334 . S
C1878 H1849 0.950 . S
C1878 C1877 1.334 . S
C1878 C1879 1.287 . S
C1879 C1878 1.287 . S
C1879 C1880 1.524 . S
C1879 H1882 0.999 . S
C1880 H1850 0.950 . S
C1880 C1879 1.524 . S
C1880 C1881 1.415 . S
C1881 H1851 0.950 . S
C1881 C1876 1.363 . S
C1881 C1880 1.415 . S
H1882 C1879 0.999 . S
H1883 C1864 0.913 . S
H1884 C1902 0.951 . S
H1885 C1904 0.951 . S
H1886 C1906 0.950 . S
H1887 C1907 0.950 . S
H1888 C1909 0.950 . S
H1889 C1912 0.950 . S
H1890 C1913 0.950 . S
H1891 C1915 0.950 . S
H1892 C1916 0.950 . S
H1893 C1917 0.951 . S
H1894 C1919 0.951 . S
H1895 C1921 0.950 . S
H1896 C1922 0.950 . S
H1897 C1924 0.950 . S
H1898 C1927 0.950 . S
H1899 C1928 0.950 . S
H1900 C1930 0.950 . S
H1901 C1931 0.950 . S
C1902 H1884 0.951 . S
C1902 C1903 1.366 . S
C1902 C1904 1.388 . S
C1903 C1902 1.366 . S
C1903 C1907 1.385 . S
C1904 H1885 0.951 . S
C1904 C1902 1.388 . S
C1904 C1905 1.366 . S
C1905 C1904 1.366 . S
C1905 C1906 1.414 . S
C1905 C1908 1.499 . S
C1906 H1886 0.950 . S
C1906 C1905 1.414 . S
C1906 C1907 1.374 . S
C1907 H1887 0.950 . S
C1907 C1903 1.385 . S
C1907 C1906 1.374 . S
C1908 C1905 1.499 . S
C1908 C1909 1.373 . S
C1908 C1910 1.389 . S
C1909 H1888 0.950 . S
C1909 C1908 1.373 . S
C1909 C1925 1.377 . S
C1910 C1908 1.389 . S
C1910 C1911 1.524 . S
C1910 C1924 1.377 . S
C1911 C1910 1.524 . S
C1911 C1912 1.397 . S
C1911 C1916 1.363 . S
C1912 H1889 0.950 . S
C1912 C1911 1.397 . S
C1912 C1913 1.334 . S
C1913 H1890 0.950 . S
C1913 C1912 1.334 . S
C1913 C1914 1.287 . S
C1914 C1913 1.287 . S
C1914 C1915 1.524 . S
C1914 H1933 0.913 . S
C1915 H1891 0.950 . S
C1915 C1914 1.524 . S
C1915 C1916 1.415 . S
C1916 H1892 0.950 . S
C1916 C1911 1.363 . S
C1916 C1915 1.415 . S
C1917 H1893 0.951 . S
C1917 C1918 1.366 . S
C1917 C1919 1.388 . S
C1918 C1917 1.366 . S
C1918 C1922 1.385 . S
C1919 H1894 0.951 . S
C1919 C1917 1.388 . S
C1919 C1920 1.366 . S
C1920 C1919 1.366 . S
C1920 C1921 1.414 . S
C1920 C1923 1.499 . S
C1921 H1895 0.950 . S
C1921 C1920 1.414 . S
C1921 C1922 1.374 . S
C1922 H1896 0.950 . S
C1922 C1918 1.385 . S
C1922 C1921 1.374 . S
C1923 C1920 1.499 . S
C1923 C1924 1.373 . S
C1923 C1925 1.389 . S
C1924 H1897 0.950 . S
C1924 C1910 1.377 . S
C1924 C1923 1.373 . S
C1925 C1909 1.377 . S
C1925 C1923 1.389 . S
C1925 C1926 1.524 . S
C1926 C1925 1.524 . S
C1926 C1927 1.397 . S
C1926 C1931 1.363 . S
C1927 H1898 0.950 . S
C1927 C1926 1.397 . S
C1927 C1928 1.334 . S
C1928 H1899 0.950 . S
C1928 C1927 1.334 . S
C1928 C1929 1.287 . S
C1929 C1928 1.287 . S
C1929 C1930 1.524 . S
C1929 H1932 0.999 . S
C1930 H1900 0.950 . S
C1930 C1929 1.524 . S
C1930 C1931 1.415 . S
C1931 H1901 0.950 . S
C1931 C1926 1.363 . S
C1931 C1930 1.415 . S
H1932 C1929 0.999 . S
H1933 C1914 0.913 . S
H1934 C1952 0.951 . S
H1935 C1954 0.951 . S
H1936 C1956 0.950 . S
H1937 C1957 0.950 . S
H1938 C1959 0.950 . S
H1939 C1962 0.950 . S
H1940 C1963 0.950 . S
H1941 C1965 0.950 . S
H1942 C1966 0.950 . S
H1943 C1967 0.951 . S
H1944 C1969 0.951 . S
H1945 C1971 0.950 . S
H1946 C1972 0.950 . S
H1947 C1974 0.950 . S
H1948 C1977 0.950 . S
H1949 C1978 0.950 . S
H1950 C1980 0.950 . S
H1951 C1981 0.950 . S
C1952 H1934 0.951 . S
C1952 C1953 1.366 . S
C1952 C1954 1.388 . S
C1953 C1952 1.366 . S
C1953 C1957 1.385 . S
C1954 H1935 0.951 . S
C1954 C1952 1.388 . S
C1954 C1955 1.366 . S
C1955 C1954 1.366 . S
C1955 C1956 1.414 . S
C1955 C1958 1.499 . S
C1956 H1936 0.950 . S
C1956 C1955 1.414 . S
C1956 C1957 1.374 . S
C1957 H1937 0.950 . S
C1957 C1953 1.385 . S
C1957 C1956 1.374 . S
C1958 C1955 1.499 . S
C1958 C1959 1.373 . S
C1958 C1960 1.389 . S
C1959 H1938 0.950 . S
C1959 C1958 1.373 . S
C1959 C1975 1.377 . S
C1960 C1958 1.389 . S
C1960 C1961 1.524 . S
C1960 C1974 1.377 . S
C1961 C1960 1.524 . S
C1961 C1962 1.397 . S
C1961 C1966 1.363 . S
C1962 H1939 0.950 . S
C1962 C1961 1.397 . S
C1962 C1963 1.334 . S
C1963 H1940 0.950 . S
C1963 C1962 1.334 . S
C1963 C1964 1.287 . S
C1964 C1963 1.287 . S
C1964 C1965 1.524 . S
C1964 H1983 0.913 . S
C1965 H1941 0.950 . S
C1965 C1964 1.524 . S
C1965 C1966 1.415 . S
C1966 H1942 0.950 . S
C1966 C1961 1.363 . S
C1966 C1965 1.415 . S
C1967 H1943 0.951 . S
C1967 C1968 1.366 . S
C1967 C1969 1.388 . S
C1968 C1967 1.366 . S
C1968 C1972 1.385 . S
C1969 H1944 0.951 . S
C1969 C1967 1.388 . S
C1969 C1970 1.366 . S
C1970 C1969 1.366 . S
C1970 C1971 1.414 . S
C1970 C1973 1.499 . S
C1971 H1945 0.950 . S
C1971 C1970 1.414 . S
C1971 C1972 1.374 . S
C1972 H1946 0.950 . S
C1972 C1968 1.385 . S
C1972 C1971 1.374 . S
C1973 C1970 1.499 . S
C1973 C1974 1.373 . S
C1973 C1975 1.389 . S
C1974 H1947 0.950 . S
C1974 C1960 1.377 . S
C1974 C1973 1.373 . S
C1975 C1959 1.377 . S
C1975 C1973 1.389 . S
C1975 C1976 1.524 . S
C1976 C1975 1.524 . S
C1976 C1977 1.397 . S
C1976 C1981 1.363 . S
C1977 H1948 0.950 . S
C1977 C1976 1.397 . S
C1977 C1978 1.334 . S
C1978 H1949 0.950 . S
C1978 C1977 1.334 . S
C1978 C1979 1.287 . S
C1979 C1978 1.287 . S
C1979 C1980 1.524 . S
C1979 H1982 0.999 . S
C1980 H1950 0.950 . S
C1980 C1979 1.524 . S
C1980 C1981 1.415 . S
C1981 H1951 0.950 . S
C1981 C1976 1.363 . S
C1981 C1980 1.415 . S
H1982 C1979 0.999 . S
H1983 C1964 0.913 . S
H1984 C2002 0.951 . S
H1985 C2004 0.951 . S
H1986 C2006 0.950 . S
H1987 C2007 0.950 . S
H1988 C2009 0.950 . S
H1989 C2012 0.950 . S
H1990 C2013 0.950 . S
H1991 C2015 0.950 . S
H1992 C2016 0.950 . S
H1993 C2017 0.951 . S
H1994 C2019 0.951 . S
H1995 C2021 0.950 . S
H1996 C2022 0.950 . S
H1997 C2024 0.950 . S
H1998 C2027 0.950 . S
H1999 C2028 0.950 . S
H2000 C2030 0.950 . S
H2001 C2031 0.950 . S
C2002 H1984 0.951 . S
C2002 C2003 1.366 . S
C2002 C2004 1.388 . S
C2003 C2002 1.366 . S
C2003 C2007 1.385 . S
C2004 H1985 0.951 . S
C2004 C2002 1.388 . S
C2004 C2005 1.366 . S
C2005 C2004 1.366 . S
C2005 C2006 1.414 . S
C2005 C2008 1.499 . S
C2006 H1986 0.950 . S
C2006 C2005 1.414 . S
C2006 C2007 1.374 . S
C2007 H1987 0.950 . S
C2007 C2003 1.385 . S
C2007 C2006 1.374 . S
C2008 C2005 1.499 . S
C2008 C2009 1.373 . S
C2008 C2010 1.389 . S
C2009 H1988 0.950 . S
C2009 C2008 1.373 . S
C2009 C2025 1.377 . S
C2010 C2008 1.389 . S
C2010 C2011 1.524 . S
C2010 C2024 1.377 . S
C2011 C2010 1.524 . S
C2011 C2012 1.397 . S
C2011 C2016 1.363 . S
C2012 H1989 0.950 . S
C2012 C2011 1.397 . S
C2012 C2013 1.334 . S
C2013 H1990 0.950 . S
C2013 C2012 1.334 . S
C2013 C2014 1.287 . S
C2014 C2013 1.287 . S
C2014 C2015 1.524 . S
C2014 H2033 0.913 . S
C2015 H1991 0.950 . S
C2015 C2014 1.524 . S
C2015 C2016 1.415 . S
C2016 H1992 0.950 . S
C2016 C2011 1.363 . S
C2016 C2015 1.415 . S
C2017 H1993 0.951 . S
C2017 C2018 1.366 . S
C2017 C2019 1.388 . S
C2018 C2017 1.366 . S
C2018 C2022 1.385 . S
C2019 H1994 0.951 . S
C2019 C2017 1.388 . S
C2019 C2020 1.366 . S
C2020 C2019 1.366 . S
C2020 C2021 1.414 . S
C2020 C2023 1.499 . S
C2021 H1995 0.950 . S
C2021 C2020 1.414 . S
C2021 C2022 1.374 . S
C2022 H1996 0.950 . S
C2022 C2018 1.385 . S
C2022 C2021 1.374 . S
C2023 C2020 1.499 . S
C2023 C2024 1.373 . S
C2023 C2025 1.389 . S
C2024 H1997 0.950 . S
C2024 C2010 1.377 . S
C2024 C2023 1.373 . S
C2025 C2009 1.377 . S
C2025 C2023 1.389 . S
C2025 C2026 1.524 . S
C2026 C2025 1.524 . S
C2026 C2027 1.397 . S
C2026 C2031 1.363 . S
C2027 H1998 0.950 . S
C2027 C2026 1.397 . S
C2027 C2028 1.334 . S
C2028 H1999 0.950 . S
C2028 C2027 1.334 . S
C2028 C2029 1.287 . S
C2029 C2028 1.287 . S
C2029 C2030 1.524 . S
C2029 H2032 0.999 . S
C2030 H2000 0.950 . S
C2030 C2029 1.524 . S
C2030 C2031 1.415 . S
C2031 H2001 0.950 . S
C2031 C2026 1.363 . S
C2031 C2030 1.415 . S
H2032 C2029 0.999 . S
H2033 C2014 0.913 . S
C253 C231 2.006 . S
C268 C10 2.006 . S
C303 C205 2.006 . S
C318 C17 2.006 . S
C353 C218 2.006 . S
C368 C30 2.006 . S
C403 C101 2.006 . S
C418 C49 2.006 . S
C453 C114 2.006 . S
C468 C62 2.006 . S
C503 C69 2.006 . S
C518 C88 2.006 . S
C553 C127 2.006 . S
C568 C173 2.006 . S
C603 C134 2.006 . S
C618 C186 2.006 . S
C653 C153 2.006 . S
C668 C166 2.006 . S
C703 C3 0.171 . S
C718 C224 0.170 . S
C753 C198 0.170 . S
C768 C18 0.171 . S
C803 C31 0.170 . S
C818 C211 0.168 . S
C853 C94 0.170 . S
C868 C42 0.170 . S
C903 C55 0.170 . S
C918 C107 0.169 . S
C953 C70 0.171 . S
C968 C81 0.171 . S
C1003 C120 0.171 . S
C1018 C174 0.170 . S
C1053 C187 0.168 . S
C1068 C135 0.170 . S
C1103 C159 0.167 . S
C1118 C146 0.167 . S
C1153 C4 1.904 . S
C1168 C43 1.904 . S
C1203 C56 1.904 . S
C1218 C23 1.904 . S
C1253 C75 1.904 . S
C1268 C36 1.904 . S
C1303 C68 1.796 . S
C1318 C16 1.796 . S
C1353 C29 1.796 . S
C1368 C44 1.796 . S
C1403 C57 1.796 . S
C1418 C5 1.796 . S
C1453 C82 1.904 . S
C1468 C121 1.904 . S
C1503 C140 1.904 . S
C1518 C95 1.904 . S
C1553 C147 1.904 . S
C1568 C108 1.905 . S
C1603 C148 1.796 . S
C1618 C96 1.796 . S
C1653 C109 1.796 . S
C1668 C122 1.796 . S
C1703 C133 1.796 . S
C1718 C83 1.796 . S
C1753 C199 1.904 . S
C1768 C160 1.904 . S
C1803 C212 1.904 . S
C1818 C179 1.904 . S
C1853 C192 1.904 . S
C1868 C225 1.904 . S
C1903 C226 1.796 . S
C1918 C172 1.796 . S
C1953 C185 1.796 . S
C1968 C200 1.796 . S
C2003 C213 1.796 . S
C2018 C161 1.796 . S
