# Generated by pormake.
# Topology afw, (4)-cn, num edge types: 1
# Building blocks:
#     Node 0, Type 0, BuildingBlock: CEKHIL_clean_sbu_0, # of connection points: 4
#     Node 1, Type 0, BuildingBlock: CEKHIL_clean_sbu_0, # of connection points: 4
#     Node 2, Type 0, BuildingBlock: CEKHIL_clean_sbu_0, # of connection points: 4
#     Node 3, Type 0, BuildingBlock: CEKHIL_clean_sbu_0, # of connection points: 4
#     Node 4, Type 0, BuildingBlock: CEKHIL_clean_sbu_0, # of connection points: 4
#     Node 5, Type 0, BuildingBlock: CEKHIL_clean_sbu_0, # of connection points: 4
#     Node 6, Type 0, BuildingBlock: CEKHIL_clean_sbu_0, # of connection points: 4
#     Node 7, Type 0, BuildingBlock: CEKHIL_clean_sbu_0, # of connection points: 4
#     Node 8, Type 0, BuildingBlock: CEKHIL_clean_sbu_0, # of connection points: 4
#     Edge 9, Type (0, 0), BuildingBlock: MIFKUJ_clean_linker_0, # of connection points: 2
#     Edge 10, Type (0, 0), BuildingBlock: MIFKUJ_clean_linker_0, # of connection points: 2
#     Edge 11, Type (0, 0), BuildingBlock: MIFKUJ_clean_linker_0, # of connection points: 2
#     Edge 12, Type (0, 0), BuildingBlock: MIFKUJ_clean_linker_0, # of connection points: 2
#     Edge 13, Type (0, 0), BuildingBlock: MIFKUJ_clean_linker_0, # of connection points: 2
#     Edge 14, Type (0, 0), BuildingBlock: MIFKUJ_clean_linker_0, # of connection points: 2
#     Edge 15, Type (0, 0), BuildingBlock: MIFKUJ_clean_linker_0, # of connection points: 2
#     Edge 16, Type (0, 0), BuildingBlock: MIFKUJ_clean_linker_0, # of connection points: 2
#     Edge 17, Type (0, 0), BuildingBlock: MIFKUJ_clean_linker_0, # of connection points: 2
#     Edge 18, Type (0, 0), BuildingBlock: MIFKUJ_clean_linker_0, # of connection points: 2
#     Edge 19, Type (0, 0), BuildingBlock: MIFKUJ_clean_linker_0, # of connection points: 2
#     Edge 20, Type (0, 0), BuildingBlock: MIFKUJ_clean_linker_0, # of connection points: 2
#     Edge 21, Type (0, 0), BuildingBlock: MIFKUJ_clean_linker_0, # of connection points: 2
#     Edge 22, Type (0, 0), BuildingBlock: MIFKUJ_clean_linker_0, # of connection points: 2
#     Edge 23, Type (0, 0), BuildingBlock: MIFKUJ_clean_linker_0, # of connection points: 2
#     Edge 24, Type (0, 0), BuildingBlock: MIFKUJ_clean_linker_0, # of connection points: 2
#     Edge 25, Type (0, 0), BuildingBlock: MIFKUJ_clean_linker_0, # of connection points: 2
#     Edge 26, Type (0, 0), BuildingBlock: MIFKUJ_clean_linker_0, # of connection points: 2
# Relax obj value: 0.199
# Max RMSD: 0.207
# Mean RMSD: 0.200
data_MOF--net-afw--node1-CEKHIL_clean_sbu_0--edge1-MIFKUJ_clean_linker_0
_symmetry_space_group_name_H-M    P1
_symmetry_Int_Tables_number       1
_symmetry_cell_setting            triclinic
loop_
_symmetry_equiv_pos_as_xyz
'x, y, z'
_cell_length_a     55.57718
_cell_length_b     55.969129
_cell_length_c     40.440445
_cell_angle_alpha  90.816604
_cell_angle_beta   90.494804
_cell_angle_gamma 120.0658
loop_
_atom_site_label
_atom_site_type_symbol
_atom_site_fract_x
_atom_site_fract_y
_atom_site_fract_z
_atom_type_partial_charge
Co0 Co 0.02612 0.22206 0.01475 0.0
O1 O 0.04722 0.25904 -0.0008 0.0
O2 O 0.00308 0.22991 0.98586 0.0
C3 C 0.05781 0.20919 0.00554 0.0
O4 O -0.00168 0.18192 0.02499 0.0
Co5 Co 0.04712 0.2058 0.07721 0.0
O6 O 0.01667 0.16812 0.06525 0.0
C7 C 0.02188 0.24059 0.0848 0.0
C8 C 0.02497 0.25423 0.9829 0.0
C9 C -0.00217 0.16318 0.04362 0.0
O10 O 0.01452 0.23602 0.0541 0.0
O11 O 0.0371 0.2322 0.09846 0.0
O12 O 0.04203 0.20893 0.98149 0.0
O13 O 0.05639 0.22052 0.03302 0.0
Co14 Co 0.81646 0.81225 0.02444 0.0
O15 O 0.79757 0.77462 0.03814 0.0
O16 O 0.79008 0.80732 0.05847 0.0
C17 C 0.85964 0.81856 0.02614 0.0
O18 O 0.83294 0.85354 0.01675 0.0
Co19 Co 0.84864 0.82718 0.95801 0.0
O20 O 0.86076 0.86552 0.97246 0.0
C21 C 0.78746 0.79796 0.9572 0.0
C22 C 0.78431 0.78173 0.0586 0.0
C23 C 0.85033 0.87166 0.99684 0.0
O24 O 0.78746 0.80238 0.98853 0.0
O25 O 0.8095 0.80398 0.94124 0.0
O26 O 0.84827 0.82074 0.05311 0.0
O27 O 0.84359 0.80979 0.00026 0.0
Co28 Co 0.19879 -0.00027 0.01217 0.0
O29 O 0.21752 0.98011 -0.00022 0.0
O30 O 0.22663 0.0204 0.97974 0.0
C31 C 0.1554 0.96348 0.00802 0.0
O32 O 0.18292 0.02541 0.01771 0.0
Co33 Co 0.16287 0.98469 0.07552 0.0
O34 O 0.14959 0.00829 0.05599 0.0
C35 C 0.22407 0.01734 0.08146 0.0
C36 C 0.23153 -2e-05 0.97948 0.0
C37 C 0.16281 0.02537 0.03336 0.0
O38 O 0.22627 0.01878 0.04978 0.0
O39 O 0.20093 0.00348 0.09621 0.0
O40 O 0.16813 0.97666 0.98173 0.0
O41 O 0.17015 0.97084 0.035 0.0
Co42 Co 0.64144 0.53209 0.34524 0.0
O43 O 0.62182 0.54915 0.36387 0.0
O44 O 0.66584 0.56182 0.37499 0.0
C45 C 0.60917 0.48755 0.35266 0.0
O46 O 0.66822 0.51883 0.33252 0.0
Co47 Co 0.6195 0.49565 0.28137 0.0
O48 O 0.648 0.48562 0.29305 0.0
C49 C 0.64644 0.5559 0.27632 0.0
C50 C 0.64478 0.56538 0.38008 0.0
C51 C 0.66744 0.49945 0.31418 0.0
O52 O 0.65337 0.55836 0.30715 0.0
O53 O 0.63103 0.5325 0.26182 0.0
O54 O 0.62517 0.50259 0.3771 0.0
O55 O 0.6105 0.50089 0.32618 0.0
Co56 Co 0.49485 0.14213 0.35884 0.0
O57 O 0.47426 0.10447 0.37287 0.0
O58 O 0.46874 0.13873 0.3922 0.0
C59 C 0.53751 0.14696 0.36114 0.0
O60 O 0.51279 0.18357 0.35133 0.0
Co61 Co 0.52791 0.15703 0.29334 0.0
O62 O 0.54199 0.19567 0.30852 0.0
C63 C 0.46682 0.12854 0.29115 0.0
C64 C 0.46168 0.11281 0.39285 0.0
C65 C 0.53131 0.20186 0.33257 0.0
O66 O 0.46648 0.13337 0.32233 0.0
O67 O 0.48899 0.13391 0.27587 0.0
O68 O 0.52611 0.14938 0.38796 0.0
O69 O 0.5216 0.13861 0.33511 0.0
Co70 Co 0.88015 0.37689 0.34213 0.0
O71 O 0.91649 0.40067 0.36104 0.0
O72 O 0.88886 0.35664 0.37329 0.0
C73 C 0.86371 0.40601 0.34694 0.0
O74 O 0.84121 0.34641 0.32991 0.0
Co75 Co 0.8604 0.39052 0.2769 0.0
O76 O 0.82323 0.35991 0.28916 0.0
C77 C 0.89945 0.36956 0.27426 0.0
C78 C 0.91223 0.3795 0.37828 0.0
C79 C 0.82078 0.34297 0.3114 0.0
O80 O 0.8967 0.3654 0.30551 0.0
O81 O 0.88817 0.38118 0.2584 0.0
O82 O 0.86408 0.39214 0.37226 0.0
O83 O 0.87618 0.4043 0.32088 0.0
Co84 Co 0.35383 0.88265 0.67207 0.0
O85 O 0.37593 0.91976 0.65694 0.0
O86 O 0.33235 0.89085 0.64114 0.0
C87 C 0.38613 0.87 0.66571 0.0
O88 O 0.32494 0.84244 0.68108 0.0
Co89 Co 0.37141 0.86401 0.73555 0.0
O90 O 0.3399 0.82704 0.7233 0.0
C91 C 0.34683 0.89978 0.74158 0.0
C92 C 0.35449 0.91505 0.63893 0.0
C93 C 0.32239 0.82319 0.70036 0.0
O94 O 0.34097 0.89671 0.71039 0.0
O95 O 0.36073 0.89013 0.75581 0.0
O96 O 0.37123 0.86956 0.64053 0.0
O97 O 0.38308 0.88071 0.69272 0.0
Co98 Co 0.1442 0.47597 0.69329 0.0
O99 O 0.12929 0.4399 0.71118 0.0
O100 O 0.11618 0.47003 0.7255 0.0
C101 C 0.18909 0.48773 0.69732 0.0
O102 O 0.15597 0.51546 0.68061 0.0
Co103 Co 0.17703 0.48949 0.62759 0.0
O104 O 0.18515 0.52766 0.63773 0.0
C105 C 0.11683 0.45102 0.62766 0.0
C106 C 0.11352 0.44573 0.72894 0.0
C107 C 0.17279 0.53345 0.66019 0.0
O108 O 0.11539 0.45999 0.65661 0.0
O109 O 0.13984 0.45787 0.61351 0.0
O110 O 0.17674 0.49061 0.72297 0.0
O111 O 0.1734 0.47561 0.6718 0.0
Co112 Co 0.52638 0.66027 0.67437 0.0
O113 O 0.54715 0.6431 0.66034 0.0
O114 O 0.55651 0.68516 0.64678 0.0
C115 C 0.48394 0.62442 0.66312 0.0
O116 O 0.50913 0.68435 0.68281 0.0
Co117 Co 0.48549 0.6373 0.73295 0.0
O118 O 0.47291 0.66257 0.71669 0.0
C119 C 0.54592 0.66957 0.7463 0.0
C120 C 0.56246 0.66551 0.64422 0.0
C121 C 0.48757 0.68215 0.69722 0.0
O122 O 0.55043 0.67518 0.71544 0.0
O123 O 0.5218 0.65337 0.75776 0.0
O124 O 0.49844 0.64079 0.63966 0.0
O125 O 0.49652 0.62848 0.69136 0.0
H126 H 0.12591 0.0353 0.06591 0.0
H127 H 0.11079 0.06797 0.05204 0.0
H128 H 0.16672 0.09619 0.96994 0.0
H129 H 0.18156 0.06278 0.98308 0.0
H130 H 0.1687 0.13915 0.01144 0.0
H131 H 0.10287 0.05926 0.94985 0.0
H132 H 0.06828 0.01015 0.93967 0.0
H133 H 0.01569 0.01474 0.01361 0.0
H134 H 0.05011 0.06384 0.02451 0.0
H135 H 0.05875 0.17924 0.95249 0.0
H136 H 0.0808 0.15095 0.94913 0.0
H137 H 0.11307 0.17624 0.04872 0.0
H138 H 0.09109 0.2047 0.05227 0.0
H139 H 0.06936 0.10735 0.98707 0.0
H140 H 0.17522 0.17732 0.05471 0.0
H141 H 0.20984 0.22687 0.06111 0.0
H142 H 0.18326 0.24275 0.9681 0.0
H143 H 0.14877 0.19327 0.9609 0.0
C144 C 0.13486 0.0482 0.04467 0.0
C145 C 0.15465 0.04609 0.02532 0.0
C146 C 0.1262 0.06689 0.03684 0.0
C147 C 0.13741 0.08418 0.00977 0.0
C148 C 0.15773 0.08282 0.99083 0.0
C149 C 0.16618 0.06376 -0.0016 0.0
C150 C 0.12803 0.10396 0.00205 0.0
C151 C 0.14705 0.13229 0.00585 0.0
C152 C 0.09985 0.09486 0.99427 0.0
C153 C 0.07919 0.06521 0.98816 0.0
C154 C 0.08403 0.04977 0.96412 0.0
C155 C 0.06439 0.02197 0.95809 0.0
C156 C 0.03979 0.00937 0.97592 0.0
C157 C 0.03473 0.02456 -0.00024 0.0
C158 C 0.05429 0.05239 0.00584 0.0
C159 C 0.07082 0.17905 0.97355 0.0
C160 C 0.07315 0.19411 0.0027 0.0
C161 C 0.08334 0.16284 0.97158 0.0
C162 C 0.09864 0.16161 -0.00141 0.0
C163 C 0.10162 0.17719 0.02745 0.0
C164 C 0.08898 0.19334 0.02949 0.0
C165 C 0.10985 0.14259 0.99745 0.0
C166 C 0.09111 0.11432 0.99219 0.0
C167 C 0.13832 0.15181 0.0035 0.0
C168 C 0.15924 0.18159 0.00743 0.0
C169 C 0.17685 0.19136 0.03555 0.0
C170 C 0.19644 0.21945 0.03933 0.0
C171 C 0.19869 0.23796 0.01507 0.0
C172 C 0.18142 0.22841 0.98693 0.0
C173 C 0.16182 0.20035 0.98302 0.0
H174 H 0.21386 0.2597 0.01805 0.0
H175 H 0.02483 0.98776 0.97151 0.0
H176 H 0.86545 0.9104 0.94979 0.0
H177 H 0.88438 0.9599 0.95769 0.0
H178 H 0.87503 0.94947 0.0632 0.0
H179 H 0.85491 0.89939 0.05523 0.0
H180 H 0.86383 0.98817 0.04459 0.0
H181 H 0.9382 0.97013 0.02609 0.0
H182 H 0.96319 0.9503 0.99695 0.0
H183 H 0.9689 0.99679 0.91089 0.0
H184 H 0.94361 0.01662 0.93935 0.0
H185 H 0.97591 0.12368 0.09028 0.0
H186 H 0.94391 0.07422 0.0814 0.0
H187 H 0.93821 0.08741 0.97752 0.0
H188 H 0.96988 0.13718 0.98635 0.0
H189 H 0.95579 0.04795 0.99463 0.0
H190 H 0.88326 0.06836 0.01773 0.0
H191 H 0.85989 0.08824 0.05012 0.0
H192 H 0.85391 0.038 0.13239 0.0
H193 H 0.87765 0.0181 0.10065 0.0
C194 C 0.86718 0.91859 0.97468 0.0
C195 C 0.85906 0.90111 0.00196 0.0
C196 C 0.87809 0.94692 0.97917 0.0
C197 C 0.88185 0.95852 0.0111 0.0
C198 C 0.8725 0.94098 0.03834 0.0
C199 C 0.86105 0.91241 0.03379 0.0
C200 C 0.89673 0.98901 0.01587 0.0
C201 C 0.88406 0.00121 0.03396 0.0
C202 C 0.92304 0.00612 0.0017 0.0
C203 C 0.93869 0.99459 0.98471 0.0
C204 C 0.94461 0.97597 0.00086 0.0
C205 C 0.95881 0.96472 0.98447 0.0
C206 C 0.96741 0.9721 0.95199 0.0
C207 C 0.96209 0.99098 0.93598 0.0
C208 C 0.94785 0.00225 0.95224 0.0
C209 C 0.96739 0.11612 0.06565 0.0
C210 C 0.9754 0.13422 0.03896 0.0
C211 C 0.94907 0.0879 0.06067 0.0
C212 C 0.93874 0.07725 0.02884 0.0
C213 C 0.94593 0.09535 0.00229 0.0
C214 C 0.96388 0.12372 0.00738 0.0
C215 C 0.92277 0.04701 0.02301 0.0
C216 C 0.93543 0.03487 0.00496 0.0
C217 C 0.89681 0.03005 0.03778 0.0
C218 C 0.88248 0.04193 0.0569 0.0
C219 C 0.87721 0.06174 0.04283 0.0
C220 C 0.86384 0.07297 0.06105 0.0
C221 C 0.85548 0.06444 0.09332 0.0
C222 C 0.86042 0.0446 0.1074 0.0
C223 C 0.87381 0.03332 0.08929 0.0
H224 H 0.84513 0.07315 0.10738 0.0
H225 H 0.97831 0.9633 0.93928 0.0
H226 H 0.88923 0.82326 0.97086 0.0
H227 H 0.93958 0.84479 0.9667 0.0
H228 H 0.9483 0.85886 0.07246 0.0
H229 H 0.8979 0.83808 0.07667 0.0
H230 H 0.98244 0.90417 0.04128 0.0
H231 H 0.95863 0.80906 0.0339 0.0
H232 H 0.93385 0.76125 0.0117 0.0
H233 H 0.96846 0.78991 0.91609 0.0
H234 H -0.00684 0.83796 0.93761 0.0
H235 H 0.12298 0.941 0.06161 0.0
H236 H 0.07233 0.9137 0.06261 0.0
H237 H 0.06859 0.91593 0.95621 0.0
H238 H 0.11948 0.94381 0.95495 0.0
H239 H 0.03227 0.86259 0.98533 0.0
H240 H 0.05789 0.95788 0.99473 0.0
H241 H 0.08223 0.00527 0.01783 0.0
H242 H 0.0431 0.97584 0.11116 0.0
H243 H 0.01937 0.928 0.08907 0.0
C244 C 0.90184 0.83073 0.99327 0.0
C245 C 0.88971 0.82916 0.02409 0.0
C246 C 0.9306 0.84287 0.99086 0.0
C247 C 0.94763 0.85321 0.0193 0.0
C248 C 0.93548 0.85101 0.05022 0.0
C249 C 0.90672 0.83909 0.0526 0.0
C250 C 0.97822 0.86786 0.01661 0.0
C251 C -0.00663 0.89489 0.02957 0.0
C252 C 0.9923 0.85603 0.00027 0.0
C253 C 0.97754 0.82714 0.9873 0.0
C254 C 0.96079 0.80519 0.00808 0.0
C255 C 0.94679 0.77805 0.99563 0.0
C256 C 0.94952 0.77255 0.96249 0.0
C257 C 0.96633 0.7942 0.94175 0.0
C258 C 0.98036 0.82139 0.95406 0.0
C259 C 0.11145 0.93557 0.03838 0.0
C260 C 0.12511 0.94476 0.0082 0.0
C261 C 0.08255 0.91999 0.03903 0.0
C262 C 0.06691 0.91313 0.00952 0.0
C263 C 0.08046 0.92116 0.9792 0.0
C264 C 0.10943 0.93709 0.97855 0.0
C265 C 0.03634 0.89855 0.01065 0.0
C266 C 0.02125 0.87171 0.9972 0.0
C267 C 0.02228 0.91047 0.02676 0.0
C268 C 0.03709 0.93923 0.04031 0.0
C269 C 0.05483 0.96139 0.02035 0.0
C270 C 0.06849 0.98837 0.03327 0.0
C271 C 0.06414 0.9936 0.0659 0.0
C272 C 0.04642 0.97177 0.08585 0.0
C273 C 0.03294 0.94469 0.07319 0.0
H274 H 0.07443 0.01455 0.0757 0.0
H275 H 0.93867 0.75152 0.9529 0.0
H276 H 0.82606 0.40164 0.39265 0.0
H277 H 0.79415 0.41969 0.38912 0.0
H278 H 0.82966 0.45716 0.29625 0.0
H279 H 0.86158 0.43901 0.29946 0.0
H280 H 0.82036 0.4916 0.33966 0.0
H281 H 0.77177 0.39915 0.29263 0.0
H282 H 0.75389 0.34902 0.29264 0.0
H283 H 0.70557 0.34128 0.37829 0.0
H284 H 0.72321 0.3915 0.37877 0.0
H285 H 0.67679 0.46489 0.27499 0.0
H286 H 0.71179 0.45135 0.2828 0.0
H287 H 0.74238 0.50296 0.37092 0.0
H288 H 0.7077 0.51715 0.36295 0.0
H289 H 0.71917 0.42429 0.3312 0.0
H290 H 0.81206 0.52635 0.37981 0.0
H291 H 0.83066 0.57657 0.37648 0.0
H292 H 0.7912 0.56509 0.2812 0.0
H293 H 0.77266 0.51485 0.2838 0.0
C294 C 0.82729 0.41398 0.37165 0.0
C295 C 0.84622 0.41888 0.34624 0.0
C296 C 0.80901 0.42418 0.36965 0.0
C297 C 0.8095 0.43955 0.34234 0.0
C298 C 0.82904 0.44533 0.31753 0.0
C299 C 0.84717 0.43491 0.31934 0.0
C300 C 0.78884 0.44861 0.3389 0.0
C301 C 0.79822 0.47696 0.33793 0.0
C302 C 0.76004 0.42937 0.33641 0.0
C303 C 0.74909 0.39913 0.33598 0.0
C304 C 0.7575 0.3868 0.31162 0.0
C305 C 0.74738 0.35835 0.31152 0.0
C306 C 0.72879 0.34198 0.33563 0.0
C307 C 0.72009 0.35401 0.35974 0.0
C308 C 0.73006 0.38246 0.35986 0.0
C309 C 0.69104 0.47355 0.29595 0.0
C310 C 0.6895 0.49223 0.31827 0.0
C311 C 0.71097 0.46567 0.30044 0.0
C312 C 0.72976 0.47623 0.32733 0.0
C313 C 0.72832 0.49486 0.34973 0.0
C314 C 0.70847 0.50293 0.34513 0.0
C315 C 0.75063 0.46743 0.33183 0.0
C316 C 0.74128 0.43904 0.33317 0.0
C317 C 0.77948 0.48665 0.33427 0.0
C318 C 0.79075 0.51683 0.33218 0.0
C319 C 0.80744 0.53457 0.35811 0.0
C320 C 0.81795 0.56302 0.35636 0.0
C321 C 0.81204 0.574 0.32869 0.0
C322 C 0.79568 0.55654 0.30267 0.0
C323 C 0.78513 0.52807 0.30429 0.0
H324 H 0.82018 0.59603 0.3274 0.0
H325 H 0.72096 0.31996 0.33546 0.0
H326 H 0.55553 0.24333 0.28844 0.0
H327 H 0.5682 0.29141 0.296 0.0
H328 H 0.5404 0.27586 0.39683 0.0
H329 H 0.5264 0.22707 0.38884 0.0
H330 H 0.52319 0.3061 0.37128 0.0
H331 H 0.61238 0.31379 0.37564 0.0
H332 H 0.65123 0.30718 0.35866 0.0
H333 H 0.65733 0.34816 0.26763 0.0
H334 H 0.61857 0.35508 0.28398 0.0
H335 H 0.60025 0.45515 0.40604 0.0
H336 H 0.58506 0.4058 0.4058 0.0
H337 H 0.57498 0.40215 0.29974 0.0
H338 H 0.5891 0.45122 0.29981 0.0
H339 H 0.61308 0.38283 0.33307 0.0
H340 H 0.52062 0.37238 0.33161 0.0
H341 H 0.48449 0.38119 0.35366 0.0
H342 H 0.48823 0.34678 0.44649 0.0
H343 H 0.52471 0.33815 0.42512 0.0
C344 C 0.55226 0.25011 0.31234 0.0
C345 C 0.53998 0.23134 0.33807 0.0
C346 C 0.55973 0.27776 0.31672 0.0
C347 C 0.55583 0.28754 0.34721 0.0
C348 C 0.54371 0.26888 0.37308 0.0
C349 C 0.53572 0.24099 0.36851 0.0
C350 C 0.5632 0.31694 0.35128 0.0
C351 C 0.54307 0.32284 0.36342 0.0
C352 C 0.58908 0.33897 0.34091 0.0
C353 C 0.61235 0.33472 0.33092 0.0
C354 C 0.62186 0.32121 0.35189 0.0
C355 C 0.64388 0.31743 0.34239 0.0
C356 C 0.65655 0.32701 0.31198 0.0
C357 C 0.64742 0.34066 0.29113 0.0
C358 C 0.62549 0.3446 0.30054 0.0
C359 C 0.59429 0.44373 0.38272 0.0
C360 C 0.59611 0.45713 0.3529 0.0
C361 C 0.58568 0.41559 0.38265 0.0
C362 C 0.57915 0.40053 0.35274 0.0
C363 C 0.58007 0.41357 0.32304 0.0
C364 C 0.58808 0.44157 0.32316 0.0
C365 C 0.57289 0.37156 0.35226 0.0
C366 C 0.59333 0.36591 0.34101 0.0
C367 C 0.54766 0.34991 0.36416 0.0
C368 C 0.52562 0.35494 0.37691 0.0
C369 C 0.51395 0.36696 0.35684 0.0
C370 C 0.49335 0.37186 0.36918 0.0
C371 C 0.48413 0.36464 0.40149 0.0
C372 C 0.49542 0.35241 0.42149 0.0
C373 C 0.51604 0.3475 0.40927 0.0
H374 H 0.46819 0.36844 0.41101 0.0
H375 H 0.67347 0.32391 0.30459 0.0
H376 H 0.57623 0.1651 0.41148 0.0
H377 H 0.62679 0.19238 0.40626 0.0
H378 H 0.61735 0.18577 0.29985 0.0
H379 H 0.56744 0.15682 0.305 0.0
H380 H 0.66184 0.18713 0.31341 0.0
H381 H 0.62245 0.24232 0.34864 0.0
H382 H 0.59594 0.25637 0.38467 0.0
H383 H 0.6518 0.26944 0.46589 0.0
H384 H 0.67848 0.25514 0.4304 0.0
H385 H 0.77629 0.31822 0.2684 0.0
H386 H 0.72981 0.27958 0.27959 0.0
H387 H 0.75635 0.27507 0.37866 0.0
H388 H 0.80284 0.31348 0.36773 0.0
H389 H 0.7058 0.2778 0.37281 0.0
H390 H 0.7483 0.22716 0.32762 0.0
H391 H 0.7736 0.21708 0.28492 0.0
H392 H 0.70926 0.20066 0.21344 0.0
H393 H 0.68376 0.21099 0.2556 0.0
C394 C 0.58507 0.169 0.38704 0.0
C395 C 0.56787 0.15944 0.35864 0.0
C396 C 0.61392 0.18476 0.38406 0.0
C397 C 0.62584 0.19196 0.35264 0.0
C398 C 0.60872 0.18076 0.32437 0.0
C399 C 0.58005 0.16436 0.32737 0.0
C400 C 0.65566 0.21269 0.34882 0.0
C401 C 0.67135 0.20698 0.32632 0.0
C402 C 0.66822 0.23866 0.36564 0.0
C403 C 0.65226 0.24734 0.38699 0.0
C404 C 0.62894 0.24796 0.37426 0.0
C405 C 0.61388 0.25597 0.39458 0.0
C406 C 0.62211 0.26369 0.42759 0.0
C407 C 0.64544 0.26344 0.44033 0.0
C408 C 0.66054 0.25539 0.42013 0.0
C409 C 0.77226 0.30885 0.29246 0.0
C410 C 0.79316 0.31883 0.31717 0.0
C411 C 0.7458 0.28677 0.29875 0.0
C412 C 0.73987 0.27451 0.32986 0.0
C413 C 0.76069 0.2843 0.35449 0.0
C414 C 0.78721 0.30613 0.34812 0.0
C415 C 0.71156 0.25225 0.33718 0.0
C416 C 0.69625 0.25777 0.36028 0.0
C417 C 0.69905 0.22661 0.31993 0.0
C418 C 0.71422 0.22002 0.29473 0.0
C419 C 0.73964 0.22157 0.30274 0.0
C420 C 0.754 0.21578 0.27864 0.0
C421 C 0.74307 0.20828 0.24647 0.0
C422 C 0.71771 0.20647 0.23836 0.0
C423 C 0.70328 0.21225 0.26236 0.0
H424 H 0.75422 0.20383 0.22784 0.0
H425 H 0.61045 0.26993 0.44327 0.0
H426 H 0.3918 0.84166 0.6137 0.0
H427 H 0.41443 0.81377 0.61436 0.0
H428 H 0.43961 0.83818 0.71619 0.0
H429 H 0.41731 0.86632 0.71564 0.0
H430 H 0.47983 0.83412 0.68059 0.0
H431 H 0.38134 0.7819 0.69895 0.0
H432 H 0.33256 0.76595 0.68407 0.0
H433 H 0.33949 0.72571 0.59645 0.0
H434 H 0.38886 0.74252 0.61012 0.0
H435 H 0.44528 0.68621 0.72566 0.0
H436 H 0.43223 0.72117 0.71659 0.0
H437 H 0.49784 0.76069 0.64603 0.0
H438 H 0.51148 0.72598 0.65537 0.0
H439 H 0.41371 0.73393 0.66313 0.0
H440 H 0.52175 0.83071 0.64987 0.0
H441 H 0.57039 0.84832 0.66796 0.0
H442 H 0.54238 0.79799 0.75397 0.0
H443 H 0.4936 0.78036 0.73661 0.0
C444 C 0.40255 0.84144 0.63606 0.0
C445 C 0.40247 0.85584 0.66477 0.0
C446 C 0.41551 0.82556 0.63636 0.0
C447 C 0.42843 0.82372 0.66543 0.0
C448 C 0.42979 0.83938 0.69351 0.0
C449 C 0.41685 0.85527 0.69322 0.0
C450 C 0.43771 0.80321 0.66785 0.0
C451 C 0.46549 0.81223 0.6765 0.0
C452 C 0.4188 0.77463 0.66307 0.0
C453 C 0.38891 0.7638 0.65533 0.0
C454 C 0.37258 0.76992 0.67631 0.0
C455 C 0.34483 0.7608 0.66801 0.0
C456 C 0.3329 0.74484 0.63927 0.0
C457 C 0.34878 0.73811 0.61867 0.0
C458 C 0.3767 0.74755 0.6266 0.0
C459 C 0.45704 0.70232 0.70823 0.0
C460 C 0.47955 0.70332 0.69137 0.0
C461 C 0.44946 0.72226 0.703 0.0
C462 C 0.46418 0.74364 0.68083 0.0
C463 C 0.48645 0.74458 0.66361 0.0
C464 C 0.49415 0.72466 0.66893 0.0
C465 C 0.45594 0.76476 0.67585 0.0
C466 C 0.42824 0.75583 0.66675 0.0
C467 C 0.47483 0.79334 0.6808 0.0
C468 C 0.50406 0.804 0.69172 0.0
C469 C 0.52599 0.82347 0.67268 0.0
C470 C 0.55358 0.83345 0.68281 0.0
C471 C 0.55947 0.8242 0.71203 0.0
C472 C 0.53779 0.80504 0.73127 0.0
C473 C 0.51017 0.79503 0.72128 0.0
H474 H 0.58084 0.83193 0.71981 0.0
H475 H 0.31132 0.73755 0.63303 0.0
H476 H 0.28907 0.78965 0.74791 0.0
H477 H 0.25378 0.74088 0.74215 0.0
H478 H 0.2686 0.74373 0.63723 0.0
H479 H 0.30239 0.79321 0.64277 0.0
H480 H 0.21852 0.70872 0.6445 0.0
H481 H 0.30065 0.71674 0.69967 0.0
H482 H 0.33796 0.73532 0.74257 0.0
H483 H 0.27656 0.70377 0.81837 0.0
H484 H 0.2391 0.68554 0.77574 0.0
H485 H 0.19858 0.57462 0.61561 0.0
H486 H 0.21398 0.62349 0.62344 0.0
H487 H 0.17743 0.60742 0.72002 0.0
H488 H 0.16192 0.55825 0.71247 0.0
H489 H 0.23201 0.64781 0.72114 0.0
H490 H 0.15035 0.62789 0.65902 0.0
H491 H 0.11674 0.6086 0.61234 0.0
H492 H 0.18048 0.66045 0.54519 0.0
H493 H 0.21459 0.67979 0.59139 0.0
C494 C 0.28435 0.7799 0.72355 0.0
C495 C 0.29853 0.795 0.69581 0.0
C496 C 0.26444 0.75192 0.72029 0.0
C497 C 0.2593 0.73811 0.68949 0.0
C498 C 0.27232 0.75368 0.66139 0.0
C499 C 0.29161 0.78197 0.66449 0.0
C500 C 0.24166 0.7074 0.68682 0.0
C501 C 0.22165 0.69545 0.66113 0.0
C502 C 0.24502 0.68976 0.70893 0.0
C503 C 0.26729 0.70041 0.73464 0.0
C504 C 0.29529 0.71421 0.72552 0.0
C505 C 0.31639 0.72455 0.74974 0.0
C506 C 0.30963 0.72087 0.7832 0.0
C507 C 0.28177 0.7067 0.79245 0.0
C508 C 0.26061 0.69636 0.76827 0.0
C509 C 0.19342 0.58133 0.63838 0.0
C510 C 0.17917 0.56249 0.66353 0.0
C511 C 0.20207 0.6093 0.64268 0.0
C512 C 0.19668 0.61908 0.67221 0.0
C513 C 0.18167 0.60025 0.69697 0.0
C514 C 0.1728 0.57216 0.69258 0.0
C515 C 0.20942 0.64925 0.67845 0.0
C516 C 0.22854 0.66108 0.70484 0.0
C517 C 0.2056 0.66662 0.65653 0.0
C518 C 0.18508 0.65518 0.62869 0.0
C519 C 0.15726 0.63505 0.63428 0.0
C520 C 0.1381 0.62413 0.6079 0.0
C521 C 0.14648 0.63327 0.57582 0.0
C522 C 0.17402 0.6534 0.57006 0.0
C523 C 0.19326 0.66438 0.59634 0.0
H524 H 0.13162 0.62477 0.55543 0.0
H525 H 0.32598 0.72888 0.80195 0.0
H526 H 0.21693 0.47382 0.65395 0.0
H527 H 0.26708 0.49532 0.64794 0.0
H528 H 0.27977 0.55148 0.72932 0.0
H529 H 0.22932 0.52913 0.73625 0.0
H530 H 0.30293 0.54429 0.63122 0.0
H531 H 0.34197 0.5718 0.76723 0.0
H532 H 0.32651 0.55406 0.82319 0.0
H533 H 0.27518 0.47221 0.78252 0.0
H534 H 0.2906 0.4894 0.72639 0.0
H535 H 0.44835 0.63829 0.63495 0.0
H536 H 0.39781 0.61389 0.64004 0.0
H537 H 0.40103 0.54812 0.6909 0.0
H538 H 0.45179 0.5737 0.68798 0.0
H539 H 0.36955 0.5594 0.72247 0.0
H540 H 0.37528 0.54313 0.60644 0.0
H541 H 0.39031 0.55592 0.54901 0.0
H542 H 0.35112 0.60532 0.54664 0.0
H543 H 0.33613 0.59308 0.60418 0.0
C544 C 0.23043 0.49056 0.67081 0.0
C545 C 0.21937 0.49982 0.69563 0.0
C546 C 0.25906 0.50291 0.66724 0.0
C547 C 0.27719 0.52496 0.68819 0.0
C548 C 0.26618 0.53418 0.71321 0.0
C549 C 0.23741 0.52147 0.71714 0.0
C550 C 0.30754 0.53859 0.68302 0.0
C551 C 0.31752 0.54753 0.65115 0.0
C552 C 0.32651 0.54255 0.70892 0.0
C553 C 0.31721 0.53197 0.74259 0.0
C554 C 0.32744 0.55001 0.77025 0.0
C555 C 0.31867 0.54005 0.802 0.0
C556 C 0.29979 0.51205 0.8064 0.0
C557 C 0.28971 0.49392 0.77907 0.0
C558 C 0.29843 0.50377 0.74728 0.0
C559 C 0.43809 0.61832 0.64654 0.0
C560 C 0.45364 0.60754 0.66074 0.0
C561 C 0.40923 0.60437 0.64944 0.0
C562 C 0.39547 0.57893 0.6655 0.0
C563 C 0.41113 0.56774 0.67853 0.0
C564 C 0.44003 0.58215 0.6766 0.0
C565 C 0.36501 0.56469 0.67046 0.0
C566 C 0.355 0.55597 0.70242 0.0
C567 C 0.34593 0.56011 0.64438 0.0
C568 C 0.35478 0.56736 0.6097 0.0
C569 C 0.37001 0.55684 0.59373 0.0
C570 C 0.3785 0.56398 0.56115 0.0
C571 C 0.37172 0.58146 0.54421 0.0
C572 C 0.35637 0.59179 0.55979 0.0
C573 C 0.34784 0.58474 0.59237 0.0
H574 H 0.37833 0.58697 0.519 0.0
H575 H 0.29303 0.50438 0.83099 0.0
H576 H 0.98606 0.24784 0.93594 0.0
H577 H 0.99179 0.28088 0.89304 0.0
H578 H 0.07082 0.3406 0.93684 0.0
H579 H 0.06541 0.30796 0.97938 0.0
H580 H 0.0065 0.34041 0.89017 0.0
H581 H 0.11644 0.35712 0.87487 0.0
H582 H 0.14226 0.33266 0.88554 0.0
H583 H 0.06687 0.25465 0.87313 0.0
H584 H 0.04074 0.27865 0.86185 0.0
H585 H 0.09477 0.45546 0.78729 0.0
H586 H 0.06967 0.42156 0.83017 0.0
H587 H 0.06338 0.35651 0.7656 0.0
H588 H 0.08917 0.39026 0.72354 0.0
H589 H 0.08621 0.35603 0.82094 0.0
H590 H 0.00548 0.36084 0.78974 0.0
H591 H 0.97822 0.38359 0.77801 0.0
H592 H 0.99149 0.41497 0.87802 0.0
H593 H 0.01916 0.39272 0.89025 0.0
C594 C 0.00431 0.26826 0.93683 0.0
C595 C 0.02554 0.27515 0.9606 0.0
C596 C 0.00745 0.28713 0.91248 0.0
C597 C 0.03182 0.31301 0.91172 0.0
C598 C 0.05192 0.32065 0.93699 0.0
C599 C 0.04886 0.30188 0.96114 0.0
C600 C 0.03863 0.3303 0.88214 0.0
C601 C 0.02382 0.34386 0.87483 0.0
C602 C 0.06094 0.33433 0.862 0.0
C603 C 0.07662 0.31969 0.86785 0.0
C604 C 0.10543 0.33475 0.87425 0.0
C605 C 0.1201 0.32097 0.88042 0.0
C606 C 0.1062 0.29212 0.88012 0.0
C607 C 0.0776 0.27699 0.87347 0.0
C608 C 0.06285 0.29067 0.86721 0.0
C609 C 0.08744 0.43383 0.78212 0.0
C610 C 0.0942 0.42545 0.75241 0.0
C611 C 0.07302 0.41446 0.80653 0.0
C612 C 0.06473 0.38647 0.80115 0.0
C613 C 0.06977 0.37799 0.77044 0.0
C614 C 0.08453 0.39729 0.74644 0.0
C615 C 0.05423 0.36658 0.82856 0.0
C616 C 0.06862 0.35257 0.83579 0.0
C617 C 0.03129 0.36195 0.84808 0.0
C618 C 0.01461 0.3753 0.84083 0.0
C619 C 0.00278 0.37278 0.80917 0.0
C620 C 0.98721 0.38554 0.80244 0.0
C621 C 0.98318 0.40077 0.82723 0.0
C622 C -0.00535 0.40319 0.85883 0.0
C623 C 0.01025 0.39048 0.86569 0.0
H624 H 0.97112 0.41064 0.82197 0.0
H625 H 0.11759 0.28149 0.88497 0.0
H626 H 0.77999 0.7901 0.89039 0.0
H627 H 0.73656 0.76972 0.85888 0.0
H628 H 0.69112 0.75751 0.94893 0.0
H629 H 0.73477 0.77778 0.98111 0.0
H630 H 0.66776 0.71153 0.90705 0.0
H631 H 0.69911 0.80775 0.89992 0.0
H632 H 0.73284 0.85675 0.89034 0.0
H633 H 0.74088 0.83726 0.78943 0.0
H634 H 0.7075 0.78805 0.79852 0.0
H635 H 0.54394 0.67253 0.81362 0.0
H636 H 0.58294 0.69547 0.85271 0.0
H637 H 0.64035 0.71948 0.77209 0.0
H638 H 0.6014 0.69714 0.73262 0.0
H639 H 0.65486 0.76143 0.81433 0.0
H640 H 0.62756 0.66513 0.82275 0.0
H641 H 0.59482 0.6158 0.83203 0.0
H642 H 0.57986 0.63524 0.93009 0.0
H643 H 0.61227 0.68475 0.92122 0.0
C644 C 0.76085 0.78317 0.90366 0.0
C645 C 0.7609 0.78567 0.93833 0.0
C646 C 0.73604 0.77164 0.88553 0.0
C647 C 0.71076 0.76252 0.90158 0.0
C648 C 0.71053 0.76464 0.93616 0.0
C649 C 0.73546 0.77627 0.95444 0.0
C650 C 0.68467 0.75016 0.88188 0.0
C651 C 0.66459 0.72256 0.88718 0.0
C652 C 0.68098 0.76452 0.85564 0.0
C653 C 0.70092 0.79416 0.84998 0.0
C654 C 0.70821 0.81387 0.87574 0.0
C655 C 0.72725 0.8417 0.87039 0.0
C656 C 0.73903 0.85011 0.83931 0.0
C657 C 0.73174 0.83071 0.8135 0.0
C658 C 0.71273 0.80286 0.81872 0.0
C659 C 0.56486 0.68258 0.80415 0.0
C660 C 0.56959 0.68294 0.76999 0.0
C661 C 0.58712 0.69563 0.82657 0.0
C662 C 0.6145 0.70888 0.81531 0.0
C663 C 0.61932 0.70935 0.78125 0.0
C664 C 0.59706 0.69653 0.75875 0.0
C665 C 0.63823 0.72255 0.83893 0.0
C666 C 0.65782 0.75046 0.83442 0.0
C667 C 0.64151 0.70843 0.86581 0.0
C668 C 0.6221 0.67866 0.87118 0.0
C669 C 0.61712 0.6589 0.84619 0.0
C670 C 0.59866 0.63091 0.8514 0.0
C671 C 0.5852 0.6224 0.8816 0.0
C672 C 0.59026 0.64187 0.90669 0.0
C673 C 0.60869 0.66989 0.9016 0.0
H674 H 0.57091 0.60072 0.88558 0.0
H675 H 0.75377 0.87166 0.83522 0.0
H676 H 0.33389 0.93917 0.72341 0.0
H677 H 0.31661 0.96301 0.75931 0.0
H678 H 0.31839 0.91643 0.84235 0.0
H679 H 0.33611 0.89313 0.8072 0.0
H680 H 0.26539 0.91735 0.82707 0.0
H681 H 0.36617 0.9751 0.84385 0.0
H682 H 0.41369 0.00536 0.82401 0.0
H683 H 0.38893 0.06093 0.785 0.0
H684 H 0.34111 0.03073 0.80422 0.0
H685 H 0.24958 0.96303 0.97872 0.0
H686 H 0.27178 0.95284 0.93331 0.0
H687 H 0.27593 0.02025 0.87838 0.0
H688 H 0.25376 0.03083 0.92417 0.0
H689 H 0.32323 0.01355 0.87022 0.0
H690 H 0.225 0.96074 0.85949 0.0
H691 H 0.17689 0.9313 0.87794 0.0
H692 H 0.19478 0.86716 0.90144 0.0
H693 H 0.24317 0.89642 0.88367 0.0
C694 C 0.33062 0.9341 0.74934 0.0
C695 C 0.33638 0.91433 0.76254 0.0
C696 C 0.32089 0.94777 0.76975 0.0
C697 C 0.31635 0.94143 0.80336 0.0
C698 C 0.32186 0.92158 0.81644 0.0
C699 C 0.33205 0.90837 0.79633 0.0
C700 C 0.30511 0.95466 0.82523 0.0
C701 C 0.27797 0.93837 0.83652 0.0
C702 C 0.3213 0.98237 0.8365 0.0
C703 C 0.35 0.00047 0.82502 0.0
C704 C 0.37078 0.9936 0.8307 0.0
C705 C 0.39778 0.01078 0.81966 0.0
C706 C 0.4043 0.035 0.80313 0.0
C707 C 0.38384 0.04213 0.79772 0.0
C708 C 0.35679 0.025 0.80869 0.0
C709 C 0.25567 0.97606 0.95729 0.0
C710 C 0.24961 0.9975 0.9548 0.0
C711 C 0.26831 0.97018 0.93133 0.0
C712 C 0.27493 0.98544 0.90227 0.0
C713 C 0.27081 0.00816 0.90058 0.0
C714 C 0.25817 0.01416 0.92673 0.0
C715 C 0.28384 0.97583 0.87306 0.0
C716 C 0.3104 0.99273 0.86029 0.0
C717 C 0.26696 0.94872 0.85996 0.0
C718 C 0.23779 0.93088 0.87045 0.0
C719 C 0.21874 0.94044 0.86882 0.0
C720 C 0.19141 0.92378 0.87914 0.0
C721 C 0.18279 0.89739 0.89091 0.0
C722 C 0.20149 0.88761 0.89233 0.0
C723 C 0.22887 0.90422 0.88211 0.0
H724 H 0.16162 0.88452 0.89888 0.0
H725 H 0.42522 0.04828 0.79462 0.0
H726 H 0.45753 0.10706 0.2284 0.0
H727 H 0.41564 0.09023 0.19439 0.0
H728 H 0.37509 0.10712 0.27439 0.0
H729 H 0.41703 0.12367 0.30914 0.0
H730 H 0.34111 0.05767 0.24391 0.0
H731 H 0.40063 0.1509 0.21005 0.0
H732 H 0.44449 0.19036 0.19126 0.0
H733 H 0.44067 0.14468 0.10323 0.0
H734 H 0.39699 0.1048 0.1217 0.0
H735 H 0.2282 0.03794 0.14378 0.0
H736 H 0.26925 0.05964 0.18006 0.0
H737 H 0.31786 0.05091 0.10314 0.0
H738 H 0.27696 0.03018 0.06613 0.0
H739 H 0.34725 0.09858 0.13401 0.0
H740 H 0.29014 0.00464 0.16874 0.0
H741 H 0.24688 0.96425 0.18725 0.0
H742 H 0.24672 0.01018 0.27314 0.0
H743 H 0.28982 0.05095 0.25491 0.0
C744 C 0.43975 0.10724 0.2389 0.0
C745 C 0.44074 0.11701 0.27141 0.0
C746 C 0.41584 0.09768 0.21933 0.0
C747 C 0.39253 0.09802 0.23164 0.0
C748 C 0.39301 0.10693 0.26439 0.0
C749 C 0.41696 0.11636 0.28418 0.0
C750 C 0.36772 0.08899 0.21009 0.0
C751 C 0.3423 0.0669 0.22012 0.0
C752 C 0.36953 0.10068 0.17876 0.0
C753 C 0.39562 0.12479 0.16738 0.0
C754 C 0.40923 0.14921 0.18677 0.0
C755 C 0.43405 0.17166 0.17617 0.0
C756 C 0.44538 0.17001 0.1461 0.0
C757 C 0.43187 0.14593 0.12652 0.0
C758 C 0.40706 0.12341 0.13702 0.0
C759 C 0.24769 0.04079 0.13454 0.0
C760 C 0.24939 0.03212 0.1023 0.0
C761 C 0.27108 0.05309 0.15534 0.0
C762 C 0.29643 0.05624 0.1446 0.0
C763 C 0.29844 0.04851 0.11198 0.0
C764 C 0.27511 0.03667 0.09089 0.0
C765 C 0.32065 0.06701 0.16762 0.0
C766 C 0.34598 0.08944 0.15789 0.0
C767 C 0.3188 0.05551 0.19915 0.0
C768 C 0.29305 0.03091 0.21031 0.0
C769 C 0.28079 0.00616 0.19147 0.0
C770 C 0.25631 0.9832 0.20192 0.0
C771 C 0.24402 0.98467 0.23131 0.0
C772 C 0.25624 0.00908 0.25036 0.0
C773 C 0.28071 0.03211 0.24001 0.0
H774 H 0.22506 0.96688 0.23934 0.0
H775 H 0.46462 0.1874 0.13795 0.0
H776 H 0.0278 0.2502 0.15191 0.0
H777 H 0.00999 0.27447 0.1854 0.0
H778 H 0.97531 0.28959 0.09773 0.0
H779 H -0.00681 0.26567 0.06397 0.0
H780 H 0.00155 0.33528 0.13805 0.0
H781 H 0.93414 0.23876 0.14814 0.0
H782 H 0.91824 0.19013 0.16058 0.0
H783 H 0.94808 0.21327 0.26081 0.0
H784 H 0.9645 0.26213 0.24882 0.0
H785 H 0.90359 0.36651 0.20707 0.0
H786 H 0.92775 0.34713 0.17659 0.0
H787 H 0.95604 0.33051 0.26851 0.0
H788 H 0.93148 0.34936 0.29928 0.0
H789 H 0.93553 0.2868 0.22808 0.0
H790 H 0.00074 0.38333 0.21869 0.0
H791 H 0.01612 0.43181 0.20604 0.0
H792 H 0.99033 0.40884 0.1046 0.0
H793 H 0.97444 0.36013 0.11674 0.0
C794 C 0.01647 0.25876 0.13969 0.0
C795 C 0.0118 0.25583 0.10524 0.0
C796 C 0.00625 0.27254 0.1589 0.0
C797 C 0.99114 0.28357 0.14404 0.0
C798 C 0.98692 0.28119 0.10965 0.0
C799 C -0.00294 0.26738 0.09043 0.0
C800 C 0.97929 0.29725 0.16431 0.0
C801 C 0.98692 0.32465 0.15756 0.0
C802 C 0.96073 0.28351 0.19022 0.0
C803 C 0.95083 0.25414 0.19748 0.0
C804 C 0.93752 0.23351 0.17275 0.0
C805 C 0.92838 0.2059 0.17973 0.0
C806 C 0.93222 0.19862 0.21143 0.0
C807 C 0.94516 0.21894 0.23624 0.0
C808 C 0.95438 0.2466 0.22938 0.0
C809 C 0.91515 0.35898 0.22086 0.0
C810 C 0.91555 0.35948 0.25565 0.0
C811 C 0.92904 0.34799 0.20337 0.0
C812 C 0.94393 0.33763 0.22028 0.0
C813 C 0.94468 0.33841 0.25497 0.0
C814 C 0.93065 0.34924 0.2725 0.0
C815 C 0.95767 0.32487 0.20178 0.0
C816 C 0.95035 0.29759 0.2088 0.0
C817 C 0.97652 0.33873 0.17612 0.0
C818 C 0.9862 0.36804 0.1687 0.0
C819 C -0.00184 0.38858 0.19374 0.0
C820 C 0.00701 0.41611 0.18665 0.0
C821 C 0.00415 0.4234 0.15455 0.0
C822 C -0.00749 0.40317 0.12945 0.0
C823 C 0.98362 0.3756 0.13642 0.0
H824 H 0.011 0.44472 0.14912 0.0
H825 H 0.92512 0.17723 0.21679 0.0
H826 H 0.67644 0.61009 0.29774 0.0
H827 H 0.69746 0.65134 0.26374 0.0
H828 H 0.6633 0.60023 0.17578 0.0
H829 H 0.64229 0.55902 0.20928 0.0
H830 H 0.72007 0.63745 0.17295 0.0
H831 H 0.63581 0.63763 0.20425 0.0
H832 H 0.60334 0.63852 0.24477 0.0
H833 H 0.66839 0.71565 0.28521 0.0
H834 H 0.70135 0.71502 0.24519 0.0
H835 H 0.74865 0.72763 0.046 0.0
H836 H 0.72195 0.69205 0.08599 0.0
H837 H 0.75084 0.75414 0.16408 0.0
H838 H 0.77643 0.79014 0.12343 0.0
H839 H 0.70001 0.71443 0.1771 0.0
H840 H 0.78397 0.71693 0.14855 0.0
H841 H 0.81948 0.71781 0.11164 0.0
H842 H 0.75989 0.63795 0.07159 0.0
H843 H 0.7239 0.63677 0.10793 0.0
C844 C 0.67321 0.60762 0.27118 0.0
C845 C 0.65775 0.58116 0.25627 0.0
C846 C 0.68514 0.63124 0.25182 0.0
C847 C 0.68186 0.6288 0.21728 0.0
C848 C 0.66607 0.60253 0.20242 0.0
C849 C 0.65403 0.57898 0.22168 0.0
C850 C 0.69609 0.65331 0.19616 0.0
C851 C 0.71545 0.65413 0.17358 0.0
C852 C 0.69101 0.67567 0.19815 0.0
C853 C 0.6711 0.67613 0.22195 0.0
C854 C 0.64324 0.65467 0.22195 0.0
C855 C 0.62474 0.65514 0.24479 0.0
C856 C 0.63381 0.67709 0.26761 0.0
C857 C 0.66139 0.69865 0.26755 0.0
C858 C 0.67998 0.69825 0.24477 0.0
C859 C 0.74878 0.73372 0.07159 0.0
C860 C 0.76471 0.76147 0.08181 0.0
C861 C 0.73369 0.71339 0.09447 0.0
C862 C 0.73515 0.7203 0.12825 0.0
C863 C 0.74961 0.74829 0.13821 0.0
C864 C 0.76418 0.76881 0.11503 0.0
C865 C 0.72328 0.69806 0.15299 0.0
C866 C 0.70466 0.69779 0.17646 0.0
C867 C 0.72951 0.6764 0.15245 0.0
C868 C 0.75118 0.67686 0.1308 0.0
C869 C 0.7784 0.69962 0.13174 0.0
C870 C 0.79861 0.70017 0.11093 0.0
C871 C 0.79193 0.67797 0.08924 0.0
C872 C 0.76503 0.65514 0.08839 0.0
C873 C 0.74472 0.6545 0.10911 0.0
H874 H 0.80761 0.67844 0.07314 0.0
H875 H 0.61946 0.67741 0.28528 0.0
H876 H 0.10791 0.4121 0.58078 0.0
H877 H 0.0688 0.38991 0.54156 0.0
H878 H 0.02922 0.42972 0.59079 0.0
H879 H 0.06789 0.4512 0.63091 0.0
H880 H 0.9909 0.38008 0.56525 0.0
H881 H 0.07355 0.46136 0.52784 0.0
H882 H 0.12357 0.48914 0.51602 0.0
H883 H 0.11642 0.4262 0.44797 0.0
H884 H 0.0664 0.39789 0.45974 0.0
H885 H 0.9589 0.42606 0.39959 0.0
H886 H 0.99076 0.43045 0.44414 0.0
H887 H 0.94371 0.34242 0.45827 0.0
H888 H 0.91118 0.33797 0.41414 0.0
H889 H 0.02446 0.41118 0.45189 0.0
H890 H 0.94746 0.33046 0.54122 0.0
H891 H 0.89764 0.30738 0.55464 0.0
H892 H 0.89326 0.3774 0.5204 0.0
H893 H 0.94311 0.40101 0.50718 0.0
C894 C 0.09054 0.4156 0.58368 0.0
C895 C 0.0911 0.43379 0.60836 0.0
C896 C 0.06823 0.40288 0.56133 0.0
C897 C 0.04653 0.40877 0.56281 0.0
C898 C 0.04587 0.42503 0.58917 0.0
C899 C 0.06799 0.43737 0.61197 0.0
C900 C 0.02681 0.40135 0.53463 0.0
C901 C -0.00184 0.38661 0.54038 0.0
C902 C 0.03638 0.41029 0.50231 0.0
C903 C 0.06635 0.42741 0.49492 0.0
C904 C 0.0827 0.4534 0.5105 0.0
C905 C 0.11103 0.46923 0.5038 0.0
C906 C 0.12318 0.45941 0.48132 0.0
C907 C 0.10699 0.43376 0.46541 0.0
C908 C 0.07866 0.41782 0.47208 0.0
C909 C 0.95539 0.40761 0.41205 0.0
C910 C 0.9325 0.38171 0.40355 0.0
C911 C 0.97364 0.41013 0.43747 0.0
C912 C 0.96942 0.3868 0.45472 0.0
C913 C 0.94705 0.36074 0.44562 0.0
C914 C 0.9286 0.35823 0.42033 0.0
C915 C 0.98845 0.39018 0.48246 0.0
C916 C 0.01707 0.40415 0.47659 0.0
C917 C 0.97881 0.38116 0.51474 0.0
C918 C 0.9489 0.36732 0.52284 0.0
C919 C 0.93586 0.34093 0.53663 0.0
C920 C 0.90762 0.32777 0.5442 0.0
C921 C 0.89227 0.34087 0.53825 0.0
C922 C 0.90515 0.36722 0.52486 0.0
C923 C 0.93338 0.38049 0.51729 0.0
H924 H 0.87041 0.33064 0.5441 0.0
H925 H 0.14512 0.47169 0.47617 0.0
H926 H 0.68172 0.58887 0.43161 0.0
H927 H 0.67925 0.61654 0.4776 0.0
H928 H 0.60891 0.61546 0.43034 0.0
H929 H 0.61067 0.58712 0.38473 0.0
H930 H 0.66228 0.67149 0.47227 0.0
H931 H 0.57974 0.57377 0.47379 0.0
H932 H 0.56266 0.52375 0.46857 0.0
H933 H 0.62363 0.53164 0.54057 0.0
H934 H 0.6412 0.58178 0.54586 0.0
H935 H 0.57626 0.69065 0.58483 0.0
H936 H 0.60248 0.68343 0.5416 0.0
H937 H 0.62301 0.63696 0.60922 0.0
H938 H 0.5951 0.64259 0.65166 0.0
H939 H 0.60293 0.60789 0.55895 0.0
H940 H 0.67343 0.70144 0.5726 0.0
H941 H 0.69446 0.75192 0.5787 0.0
H942 H 0.66438 0.75522 0.4817 0.0
H943 H 0.6428 0.70469 0.47517 0.0
C944 C 0.66613 0.59507 0.43065 0.0
C945 C 0.64618 0.58564 0.40484 0.0
C946 C 0.66487 0.61097 0.45681 0.0
C947 C 0.64404 0.6181 0.45708 0.0
C948 C 0.6253 0.61033 0.43025 0.0
C949 C 0.62619 0.59398 0.40443 0.0
C950 C 0.63876 0.62936 0.48755 0.0
C951 C 0.64927 0.65782 0.49136 0.0
C952 C 0.62272 0.61146 0.5127 0.0
C953 C 0.61184 0.58138 0.51003 0.0
C954 C 0.58953 0.56479 0.48837 0.0
C955 C 0.57977 0.53646 0.48541 0.0
C956 C 0.59209 0.52453 0.50418 0.0
C957 C 0.61413 0.54091 0.52602 0.0
C958 C 0.62399 0.56926 0.52902 0.0
C959 C 0.58703 0.67956 0.59065 0.0
C960 C 0.58355 0.66696 0.62135 0.0
C961 C 0.60221 0.67556 0.56597 0.0
C962 C 0.61487 0.65964 0.57201 0.0
C963 C 0.61326 0.64908 0.60376 0.0
C964 C 0.59741 0.65238 0.62805 0.0
C965 C 0.62599 0.65054 0.54421 0.0
C966 C 0.61644 0.62214 0.54059 0.0
C967 C 0.64342 0.66877 0.51972 0.0
C968 C 0.65631 0.6992 0.5235 0.0
C969 C 0.6711 0.71288 0.55266 0.0
C970 C 0.68316 0.74153 0.55618 0.0
C971 C 0.68072 0.75676 0.53063 0.0
C972 C 0.66625 0.74339 0.50148 0.0
C973 C 0.65413 0.71475 0.49784 0.0
H974 H 0.69007 0.77893 0.5334 0.0
H975 H 0.58452 0.5026 0.50185 0.0
H976 H 0.32057 0.90718 0.58545 0.0
H977 H 0.32799 0.94075 0.54262 0.0
H978 H 0.39958 0.00323 0.59707 0.0
H979 H 0.39251 0.96989 0.63962 0.0
H980 H 0.36551 0.02274 0.56619 0.0
H981 H 0.41007 0.96778 0.54092 0.0
H982 H 0.40838 0.92341 0.53063 0.0
H983 H 0.34954 0.90429 0.45092 0.0
H984 H 0.35063 0.94842 0.46107 0.0
H985 H 0.46143 0.12135 0.45882 0.0
H986 H 0.43329 0.08732 0.49967 0.0
H987 H 0.38771 0.02805 0.42096 0.0
H988 H 0.41789 0.06149 0.3804 0.0
H989 H 0.3986 0.00322 0.46127 0.0
H990 H 0.35918 0.06042 0.47766 0.0
H991 H 0.35784 0.10339 0.48684 0.0
H992 H 0.40058 0.11682 0.58019 0.0
H993 H 0.40252 0.07414 0.5714 0.0
C994 C 0.33754 0.92822 0.58857 0.0
C995 C 0.35616 0.93588 0.61564 0.0
C996 C 0.34173 0.94734 0.56413 0.0
C997 C 0.36441 0.97438 0.56667 0.0
C998 C 0.38192 0.98248 0.59474 0.0
C999 C 0.37796 0.96335 0.61889 0.0
C1000 C 0.37207 0.99343 0.53864 0.0
C1001 C 0.37272 0.01863 0.54312 0.0
C1002 C 0.38052 0.98752 0.50826 0.0
C1003 C 0.38019 0.9612 0.50198 0.0
C1004 C 0.39664 0.95401 0.52136 0.0
C1005 C 0.39581 0.92893 0.51553 0.0
C1006 C 0.37881 0.911 0.4902 0.0
C1007 C 0.36266 0.91817 0.47057 0.0
C1008 C 0.36338 0.94321 0.47634 0.0
C1009 C 0.44504 0.10117 0.45038 0.0
C1010 C 0.44166 0.09389 0.41667 0.0
C1011 C 0.42871 0.08173 0.47371 0.0
C1012 C 0.40782 0.05502 0.46363 0.0
C1013 C 0.40365 0.04836 0.42958 0.0
C1014 C 0.42075 0.06746 0.40637 0.0
C1015 C 0.3926 0.03329 0.48854 0.0
C1016 C 0.39069 0.00745 0.48369 0.0
C1017 C 0.38238 0.03848 0.51823 0.0
C1018 C 0.38111 0.06411 0.52377 0.0
C1019 C 0.36842 0.07261 0.50007 0.0
C1020 C 0.36754 0.09691 0.50522 0.0
C1021 C 0.37914 0.11284 0.53406 0.0
C1022 C 0.39159 0.10445 0.55786 0.0
C1023 C 0.39254 0.08018 0.55284 0.0
H1024 H 0.37846 0.13165 0.53798 0.0
H1025 H 0.37819 0.89158 0.48573 0.0
loop_
_geom_bond_atom_site_label_1
_geom_bond_atom_site_label_2
_geom_bond_distance
_geom_bond_site_symmetry_2
_ccdc_geom_bond_type
Co0 O1 2.216 1_554 S
Co0 O2 2.091 1_554 S
Co0 O4 2.001 1_454 S
Co0 O10 2.021 1_455 S
Co0 O12 2.137 1_554 S
Co0 O13 2.244 . S
O1 Co0 2.216 1_556 S
O1 C8 1.247 . S
O2 Co0 2.091 1_556 S
O2 C8 1.261 . S
C3 O12 1.247 1_554 S
C3 O13 1.272 . S
O4 Co0 2.001 1_656 S
O4 C9 1.235 1_556 S
Co5 O6 2.061 1_455 S
Co5 O11 2.052 . S
Co5 O13 2.135 . S
O6 Co5 2.061 1_655 S
O6 C9 1.235 . S
C7 O10 1.238 . S
C7 O11 1.241 1_655 S
C8 O1 1.247 . S
C8 O2 1.261 . S
C9 O4 1.235 1_554 S
C9 O6 1.235 . S
O10 Co0 2.021 1_655 S
O10 C7 1.238 . S
O11 Co5 2.052 . S
O11 C7 1.241 1_455 S
O12 Co0 2.137 1_556 S
O12 C3 1.247 1_556 S
O13 Co0 2.244 . S
O13 C3 1.272 . S
O13 Co5 2.135 . S
Co14 O15 2.216 . S
Co14 O16 2.091 . S
Co14 O18 2.004 . S
Co14 O24 2.021 . S
Co14 O26 2.137 . S
Co14 O27 2.244 1_554 S
O15 Co14 2.216 . S
O15 C22 1.247 . S
O16 Co14 2.091 . S
O16 C22 1.261 . S
C17 O26 1.247 . S
C17 O27 1.272 1_554 S
O18 Co14 2.004 . S
O18 C23 1.259 . S
Co19 O20 2.061 . S
Co19 O25 2.052 . S
Co19 O27 2.135 . S
O20 Co19 2.061 . S
O20 C23 1.235 1_556 S
C21 O24 1.238 1_556 S
C21 O25 1.241 . S
C22 O15 1.247 . S
C22 O16 1.261 . S
C23 O18 1.259 . S
C23 O20 1.235 1_554 S
O24 Co14 2.021 . S
O24 C21 1.238 1_554 S
O25 Co19 2.052 . S
O25 C21 1.241 . S
O26 Co14 2.137 . S
O26 C17 1.247 . S
O27 Co14 2.244 1_556 S
O27 C17 1.272 1_556 S
O27 Co19 2.135 . S
Co28 O29 2.216 1_544 S
Co28 O30 2.091 1_554 S
Co28 O32 2.004 1_554 S
Co28 O38 2.021 . S
Co28 O40 2.137 1_544 S
Co28 O41 2.244 1_545 S
O29 Co28 2.216 1_566 S
O29 C36 1.247 . S
O30 Co28 2.091 1_556 S
O30 C36 1.261 1_545 S
C31 O40 1.247 1_554 S
C31 O41 1.272 . S
O32 Co28 2.004 1_556 S
O32 C37 1.259 1_556 S
Co33 O34 2.061 . S
Co33 O39 2.052 . S
Co33 O41 2.135 1_545 S
O34 Co33 2.061 . S
O34 C37 1.235 . S
C35 O38 1.238 . S
C35 O39 1.241 . S
C36 O29 1.247 . S
C36 O30 1.261 1_565 S
C37 O32 1.259 1_554 S
C37 O34 1.235 . S
O38 Co28 2.021 . S
O38 C35 1.238 . S
O39 Co33 2.052 . S
O39 C35 1.241 . S
O40 Co28 2.137 1_566 S
O40 C31 1.247 1_556 S
O41 Co28 2.244 1_565 S
O41 C31 1.272 . S
O41 Co33 2.135 1_565 S
Co42 O43 2.216 . S
Co42 O44 2.091 . S
Co42 O46 2.004 . S
Co42 O52 2.021 . S
Co42 O54 2.137 . S
Co42 O55 2.244 . S
O43 Co42 2.216 . S
O43 C50 1.247 . S
O44 Co42 2.091 . S
O44 C50 1.261 . S
C45 O54 1.247 . S
C45 O55 1.272 . S
O46 Co42 2.004 . S
O46 C51 1.259 . S
Co47 O48 2.061 . S
Co47 O53 2.052 . S
Co47 O55 2.135 . S
O48 Co47 2.061 . S
O48 C51 1.235 . S
C49 O52 1.238 . S
C49 O53 1.241 . S
C50 O43 1.247 . S
C50 O44 1.261 . S
C51 O46 1.259 . S
C51 O48 1.235 . S
O52 Co42 2.021 . S
O52 C49 1.238 . S
O53 Co47 2.052 . S
O53 C49 1.241 . S
O54 Co42 2.137 . S
O54 C45 1.247 . S
O55 Co42 2.244 . S
O55 C45 1.272 . S
O55 Co47 2.135 . S
Co56 O57 2.216 . S
Co56 O58 2.091 . S
Co56 O60 2.004 . S
Co56 O66 2.021 . S
Co56 O68 2.137 . S
Co56 O69 2.244 . S
O57 Co56 2.216 . S
O57 C64 1.247 . S
O58 Co56 2.091 . S
O58 C64 1.261 . S
C59 O68 1.247 . S
C59 O69 1.272 . S
O60 Co56 2.004 . S
O60 C65 1.259 . S
Co61 O62 2.061 . S
Co61 O67 2.052 . S
Co61 O69 2.135 . S
O62 Co61 2.061 . S
O62 C65 1.235 . S
C63 O66 1.238 . S
C63 O67 1.241 . S
C64 O57 1.247 . S
C64 O58 1.261 . S
C65 O60 1.259 . S
C65 O62 1.235 . S
O66 Co56 2.021 . S
O66 C63 1.238 . S
O67 Co61 2.052 . S
O67 C63 1.241 . S
O68 Co56 2.137 . S
O68 C59 1.247 . S
O69 Co56 2.244 . S
O69 C59 1.272 . S
O69 Co61 2.135 . S
Co70 O71 2.216 . S
Co70 O72 2.091 . S
Co70 O74 2.004 . S
Co70 O80 2.021 . S
Co70 O82 2.137 . S
Co70 O83 2.244 . S
O71 Co70 2.216 . S
O71 C78 1.247 . S
O72 Co70 2.091 . S
O72 C78 1.261 . S
C73 O82 1.247 . S
C73 O83 1.272 . S
O74 Co70 2.004 . S
O74 C79 1.259 . S
Co75 O76 2.061 . S
Co75 O81 2.052 . S
Co75 O83 2.135 . S
O76 Co75 2.061 . S
O76 C79 1.235 . S
C77 O80 1.238 . S
C77 O81 1.241 . S
C78 O71 1.247 . S
C78 O72 1.261 . S
C79 O74 1.259 . S
C79 O76 1.235 . S
O80 Co70 2.021 . S
O80 C77 1.238 . S
O81 Co75 2.052 . S
O81 C77 1.241 . S
O82 Co70 2.137 . S
O82 C73 1.247 . S
O83 Co70 2.244 . S
O83 C73 1.272 . S
O83 Co75 2.135 . S
Co84 O85 2.216 . S
Co84 O86 2.091 . S
Co84 O88 2.004 . S
Co84 O94 2.021 . S
Co84 O96 2.137 . S
Co84 O97 2.244 . S
O85 Co84 2.216 . S
O85 C92 1.247 . S
O86 Co84 2.091 . S
O86 C92 1.261 . S
C87 O96 1.247 . S
C87 O97 1.272 . S
O88 Co84 2.004 . S
O88 C93 1.259 . S
Co89 O90 2.061 . S
Co89 O95 2.052 . S
Co89 O97 2.135 . S
O90 Co89 2.061 . S
O90 C93 1.235 . S
C91 O94 1.238 . S
C91 O95 1.241 . S
C92 O85 1.247 . S
C92 O86 1.261 . S
C93 O88 1.259 . S
C93 O90 1.235 . S
O94 Co84 2.021 . S
O94 C91 1.238 . S
O95 Co89 2.052 . S
O95 C91 1.241 . S
O96 Co84 2.137 . S
O96 C87 1.247 . S
O97 Co84 2.244 . S
O97 C87 1.272 . S
O97 Co89 2.135 . S
Co98 O99 2.216 . S
Co98 O100 2.091 . S
Co98 O102 2.004 . S
Co98 O108 2.021 . S
Co98 O110 2.137 . S
Co98 O111 2.244 . S
O99 Co98 2.216 . S
O99 C106 1.247 . S
O100 Co98 2.091 . S
O100 C106 1.261 . S
C101 O110 1.247 . S
C101 O111 1.272 . S
O102 Co98 2.004 . S
O102 C107 1.259 . S
Co103 O104 2.061 . S
Co103 O109 2.052 . S
Co103 O111 2.135 . S
O104 Co103 2.061 . S
O104 C107 1.235 . S
C105 O108 1.238 . S
C105 O109 1.241 . S
C106 O99 1.247 . S
C106 O100 1.261 . S
C107 O102 1.259 . S
C107 O104 1.235 . S
O108 Co98 2.021 . S
O108 C105 1.238 . S
O109 Co103 2.052 . S
O109 C105 1.241 . S
O110 Co98 2.137 . S
O110 C101 1.247 . S
O111 Co98 2.244 . S
O111 C101 1.272 . S
O111 Co103 2.135 . S
Co112 O113 2.216 . S
Co112 O114 2.091 . S
Co112 O116 2.004 . S
Co112 O122 2.021 . S
Co112 O124 2.137 . S
Co112 O125 2.244 . S
O113 Co112 2.216 . S
O113 C120 1.247 . S
O114 Co112 2.091 . S
O114 C120 1.261 . S
C115 O124 1.247 . S
C115 O125 1.272 . S
O116 Co112 2.004 . S
O116 C121 1.259 . S
Co117 O118 2.061 . S
Co117 O123 2.052 . S
Co117 O125 2.135 . S
O118 Co117 2.061 . S
O118 C121 1.235 . S
C119 O122 1.238 . S
C119 O123 1.241 . S
C120 O113 1.247 . S
C120 O114 1.261 . S
C121 O116 1.259 . S
C121 O118 1.235 . S
O122 Co112 2.021 . S
O122 C119 1.238 . S
O123 Co117 2.052 . S
O123 C119 1.241 . S
O124 Co112 2.137 . S
O124 C115 1.247 . S
O125 Co112 2.244 . S
O125 C115 1.272 . S
O125 Co117 2.135 . S
H126 C144 0.951 . S
H127 C146 0.951 . S
H128 C148 0.950 . S
H129 C149 0.950 . S
H130 C151 0.950 . S
H131 C154 0.950 . S
H132 C155 0.950 . S
H133 C157 0.950 . S
H134 C158 0.950 . S
H135 C159 0.940 1_556 S
H136 C161 0.952 1_556 S
H137 C163 0.950 . S
H138 C164 0.950 . S
H139 C166 0.950 . S
H140 C169 0.950 . S
H141 C170 0.950 . S
H142 C172 0.950 1_556 S
H143 C173 0.950 1_556 S
C144 H126 0.951 . S
C144 C145 1.366 . S
C144 C146 1.388 . S
C145 C144 1.366 . S
C145 C149 1.385 1_554 S
C146 H127 0.951 . S
C146 C144 1.388 . S
C146 C147 1.366 . S
C147 C146 1.366 . S
C147 C148 1.414 1_554 S
C147 C150 1.499 . S
C148 H128 0.950 . S
C148 C147 1.414 1_556 S
C148 C149 1.374 . S
C149 H129 0.950 . S
C149 C145 1.385 1_556 S
C149 C148 1.374 . S
C150 C147 1.499 . S
C150 C151 1.373 . S
C150 C152 1.389 . S
C151 H130 0.950 . S
C151 C150 1.373 . S
C151 C167 1.377 . S
C152 C150 1.389 . S
C152 C153 1.524 . S
C152 C166 1.377 . S
C153 C152 1.524 . S
C153 C154 1.397 1_554 S
C153 C158 1.363 . S
C154 H131 0.950 . S
C154 C153 1.397 1_556 S
C154 C155 1.334 . S
C155 H132 0.950 . S
C155 C154 1.334 . S
C155 C156 1.287 . S
C156 C155 1.287 . S
C156 C157 1.524 1_556 S
C156 H175 0.913 1_545 S
C157 H133 0.950 . S
C157 C156 1.524 1_554 S
C157 C158 1.415 . S
C158 H134 0.950 . S
C158 C153 1.363 . S
C158 C157 1.415 . S
C159 H135 0.940 1_554 S
C159 C160 1.377 . S
C159 C161 1.388 . S
C160 C159 1.377 . S
C160 C164 1.385 . S
C161 H136 0.952 1_554 S
C161 C159 1.388 . S
C161 C162 1.365 . S
C162 C161 1.365 . S
C162 C163 1.414 . S
C162 C165 1.499 . S
C163 H137 0.950 . S
C163 C162 1.414 . S
C163 C164 1.374 . S
C164 H138 0.950 . S
C164 C160 1.385 . S
C164 C163 1.374 . S
C165 C162 1.499 . S
C165 C166 1.373 . S
C165 C167 1.389 . S
C166 H139 0.950 . S
C166 C152 1.377 . S
C166 C165 1.373 . S
C167 C151 1.377 . S
C167 C165 1.389 . S
C167 C168 1.524 . S
C168 C167 1.524 . S
C168 C169 1.397 . S
C168 C173 1.363 . S
C169 H140 0.950 . S
C169 C168 1.397 . S
C169 C170 1.334 . S
C170 H141 0.950 . S
C170 C169 1.334 . S
C170 C171 1.287 . S
C171 C170 1.287 . S
C171 C172 1.524 . S
C171 H174 0.999 . S
C172 H142 0.950 1_554 S
C172 C171 1.524 . S
C172 C173 1.415 . S
C173 H143 0.950 1_554 S
C173 C168 1.363 . S
C173 C172 1.415 . S
H174 C171 0.999 . S
H175 C156 0.913 1_565 S
H176 C194 0.951 . S
H177 C196 0.951 . S
H178 C198 0.950 . S
H179 C199 0.950 . S
H180 C201 0.950 . S
H181 C204 0.950 1_554 S
H182 C205 0.950 . S
H183 C207 0.950 . S
H184 C208 0.950 1_545 S
H185 C209 0.951 . S
H186 C211 0.951 . S
H187 C213 0.950 . S
H188 C214 0.950 . S
H189 C216 0.950 . S
H190 C219 0.950 . S
H191 C220 0.950 . S
H192 C222 0.950 . S
H193 C223 0.950 . S
C194 H176 0.951 . S
C194 C195 1.366 1_556 S
C194 C196 1.388 . S
C195 C194 1.366 1_554 S
C195 C199 1.385 . S
C196 H177 0.951 . S
C196 C194 1.388 . S
C196 C197 1.366 1_556 S
C197 C196 1.366 1_554 S
C197 C198 1.414 . S
C197 C200 1.499 . S
C198 H178 0.950 . S
C198 C197 1.414 . S
C198 C199 1.374 . S
C199 H179 0.950 . S
C199 C195 1.385 . S
C199 C198 1.374 . S
C200 C197 1.499 . S
C200 C201 1.373 . S
C200 C202 1.400 1_554 S
C201 H180 0.950 . S
C201 C200 1.373 . S
C201 C217 1.377 1_565 S
C202 C200 1.400 1_556 S
C202 C203 1.559 . S
C202 C216 1.332 1_565 S
C203 C202 1.559 . S
C203 C204 1.397 . S
C203 C208 1.363 . S
C204 H181 0.950 1_556 S
C204 C203 1.397 . S
C204 C205 1.334 . S
C205 H182 0.950 . S
C205 C204 1.334 . S
C205 C206 1.287 . S
C206 C205 1.287 . S
C206 C207 1.524 . S
C206 H225 0.913 . S
C207 H183 0.950 . S
C207 C206 1.524 . S
C207 C208 1.415 . S
C208 H184 0.950 1_565 S
C208 C203 1.363 . S
C208 C207 1.415 . S
C209 H185 0.951 . S
C209 C210 1.366 . S
C209 C211 1.388 . S
C210 C209 1.366 . S
C210 C214 1.385 1_554 S
C211 H186 0.951 . S
C211 C209 1.388 . S
C211 C212 1.366 . S
C212 C211 1.366 . S
C212 C213 1.414 1_554 S
C212 C215 1.499 . S
C213 H187 0.950 . S
C213 C212 1.414 1_556 S
C213 C214 1.374 . S
C214 H188 0.950 . S
C214 C210 1.385 1_556 S
C214 C213 1.374 . S
C215 C212 1.499 . S
C215 C216 1.373 1_554 S
C215 C217 1.389 . S
C216 H189 0.950 . S
C216 C202 1.332 1_545 S
C216 C215 1.373 1_556 S
C217 C201 1.377 1_545 S
C217 C215 1.389 . S
C217 C218 1.524 . S
C218 C217 1.524 . S
C218 C219 1.397 . S
C218 C223 1.363 . S
C219 H190 0.950 . S
C219 C218 1.397 . S
C219 C220 1.334 . S
C220 H191 0.950 . S
C220 C219 1.334 . S
C220 C221 1.287 . S
C221 C220 1.287 . S
C221 C222 1.524 . S
C221 H224 0.999 . S
C222 H192 0.950 . S
C222 C221 1.524 . S
C222 C223 1.415 . S
C223 H193 0.950 . S
C223 C218 1.363 . S
C223 C222 1.415 . S
H224 C221 0.999 . S
H225 C206 0.913 . S
H226 C244 0.951 . S
H227 C246 0.951 . S
H228 C248 0.950 . S
H229 C249 0.950 . S
H230 C251 0.950 . S
H231 C254 0.950 . S
H232 C255 0.950 . S
H233 C257 0.950 . S
H234 C258 0.950 1_455 S
H235 C259 0.951 . S
H236 C261 0.951 . S
H237 C263 0.950 . S
H238 C264 0.950 . S
H239 C266 0.950 . S
H240 C269 0.950 . S
H241 C270 0.950 1_545 S
H242 C272 0.950 . S
H243 C273 0.950 . S
C244 H226 0.951 . S
C244 C245 1.366 1_556 S
C244 C246 1.388 . S
C245 C244 1.366 1_554 S
C245 C249 1.385 . S
C246 H227 0.951 . S
C246 C244 1.388 . S
C246 C247 1.366 1_556 S
C247 C246 1.366 1_554 S
C247 C248 1.414 . S
C247 C250 1.499 . S
C248 H228 0.950 . S
C248 C247 1.414 . S
C248 C249 1.374 . S
C249 H229 0.950 . S
C249 C245 1.385 . S
C249 C248 1.374 . S
C250 C247 1.499 . S
C250 C251 1.373 . S
C250 C252 1.417 1_554 S
C251 H230 0.950 . S
C251 C250 1.373 . S
C251 C267 1.377 1_655 S
C252 C250 1.417 1_556 S
C252 C253 1.527 . S
C252 C266 1.343 1_655 S
C253 C252 1.527 . S
C253 C254 1.397 . S
C253 C258 1.363 . S
C254 H231 0.950 . S
C254 C253 1.397 . S
C254 C255 1.334 . S
C255 H232 0.950 . S
C255 C254 1.334 . S
C255 C256 1.287 . S
C256 C255 1.287 . S
C256 C257 1.524 . S
C256 H275 0.913 . S
C257 H233 0.950 . S
C257 C256 1.524 . S
C257 C258 1.415 . S
C258 H234 0.950 1_655 S
C258 C253 1.363 . S
C258 C257 1.415 . S
C259 H235 0.951 . S
C259 C260 1.366 . S
C259 C261 1.388 . S
C260 C259 1.366 . S
C260 C264 1.385 1_554 S
C261 H236 0.951 . S
C261 C259 1.388 . S
C261 C262 1.366 . S
C262 C261 1.366 . S
C262 C263 1.414 1_554 S
C262 C265 1.499 . S
C263 H237 0.950 . S
C263 C262 1.414 1_556 S
C263 C264 1.374 . S
C264 H238 0.950 . S
C264 C260 1.385 1_556 S
C264 C263 1.374 . S
C265 C262 1.499 . S
C265 C266 1.373 1_554 S
C265 C267 1.389 . S
C266 H239 0.950 . S
C266 C252 1.343 1_455 S
C266 C265 1.373 1_556 S
C267 C251 1.377 1_455 S
C267 C265 1.389 . S
C267 C268 1.524 . S
C268 C267 1.524 . S
C268 C269 1.397 . S
C268 C273 1.363 . S
C269 H240 0.950 . S
C269 C268 1.397 . S
C269 C270 1.334 . S
C270 H241 0.950 1_565 S
C270 C269 1.334 . S
C270 C271 1.287 . S
C271 C270 1.287 . S
C271 C272 1.524 . S
C271 H274 0.987 1_565 S
C272 H242 0.950 . S
C272 C271 1.524 . S
C272 C273 1.415 . S
C273 H243 0.950 . S
C273 C268 1.363 . S
C273 C272 1.415 . S
H274 C271 0.987 1_545 S
H275 C256 0.913 . S
H276 C294 0.951 . S
H277 C296 0.951 . S
H278 C298 0.950 . S
H279 C299 0.950 . S
H280 C301 0.950 . S
H281 C304 0.950 . S
H282 C305 0.950 . S
H283 C307 0.950 . S
H284 C308 0.950 . S
H285 C309 0.951 . S
H286 C311 0.951 . S
H287 C313 0.950 . S
H288 C314 0.950 . S
H289 C316 0.950 . S
H290 C319 0.950 . S
H291 C320 0.950 . S
H292 C322 0.950 . S
H293 C323 0.950 . S
C294 H276 0.951 . S
C294 C295 1.366 . S
C294 C296 1.388 . S
C295 C294 1.366 . S
C295 C299 1.385 . S
C296 H277 0.951 . S
C296 C294 1.388 . S
C296 C297 1.366 . S
C297 C296 1.366 . S
C297 C298 1.414 . S
C297 C300 1.499 . S
C298 H278 0.950 . S
C298 C297 1.414 . S
C298 C299 1.374 . S
C299 H279 0.950 . S
C299 C295 1.385 . S
C299 C298 1.374 . S
C300 C297 1.499 . S
C300 C301 1.373 . S
C300 C302 1.389 . S
C301 H280 0.950 . S
C301 C300 1.373 . S
C301 C317 1.377 . S
C302 C300 1.389 . S
C302 C303 1.524 . S
C302 C316 1.377 . S
C303 C302 1.524 . S
C303 C304 1.397 . S
C303 C308 1.363 . S
C304 H281 0.950 . S
C304 C303 1.397 . S
C304 C305 1.334 . S
C305 H282 0.950 . S
C305 C304 1.334 . S
C305 C306 1.287 . S
C306 C305 1.287 . S
C306 C307 1.524 . S
C306 H325 0.913 . S
C307 H283 0.950 . S
C307 C306 1.524 . S
C307 C308 1.415 . S
C308 H284 0.950 . S
C308 C303 1.363 . S
C308 C307 1.415 . S
C309 H285 0.951 . S
C309 C310 1.366 . S
C309 C311 1.388 . S
C310 C309 1.366 . S
C310 C314 1.385 . S
C311 H286 0.951 . S
C311 C309 1.388 . S
C311 C312 1.366 . S
C312 C311 1.366 . S
C312 C313 1.414 . S
C312 C315 1.499 . S
C313 H287 0.950 . S
C313 C312 1.414 . S
C313 C314 1.374 . S
C314 H288 0.950 . S
C314 C310 1.385 . S
C314 C313 1.374 . S
C315 C312 1.499 . S
C315 C316 1.373 . S
C315 C317 1.389 . S
C316 H289 0.950 . S
C316 C302 1.377 . S
C316 C315 1.373 . S
C317 C301 1.377 . S
C317 C315 1.389 . S
C317 C318 1.524 . S
C318 C317 1.524 . S
C318 C319 1.397 . S
C318 C323 1.363 . S
C319 H290 0.950 . S
C319 C318 1.397 . S
C319 C320 1.334 . S
C320 H291 0.950 . S
C320 C319 1.334 . S
C320 C321 1.287 . S
C321 C320 1.287 . S
C321 C322 1.524 . S
C321 H324 0.999 . S
C322 H292 0.950 . S
C322 C321 1.524 . S
C322 C323 1.415 . S
C323 H293 0.950 . S
C323 C318 1.363 . S
C323 C322 1.415 . S
H324 C321 0.999 . S
H325 C306 0.913 . S
H326 C344 0.951 . S
H327 C346 0.951 . S
H328 C348 0.950 . S
H329 C349 0.950 . S
H330 C351 0.950 . S
H331 C354 0.950 . S
H332 C355 0.950 . S
H333 C357 0.950 . S
H334 C358 0.950 . S
H335 C359 0.951 . S
H336 C361 0.951 . S
H337 C363 0.950 . S
H338 C364 0.950 . S
H339 C366 0.950 . S
H340 C369 0.950 . S
H341 C370 0.950 . S
H342 C372 0.950 . S
H343 C373 0.950 . S
C344 H326 0.951 . S
C344 C345 1.366 . S
C344 C346 1.388 . S
C345 C344 1.366 . S
C345 C349 1.385 . S
C346 H327 0.951 . S
C346 C344 1.388 . S
C346 C347 1.366 . S
C347 C346 1.366 . S
C347 C348 1.414 . S
C347 C350 1.499 . S
C348 H328 0.950 . S
C348 C347 1.414 . S
C348 C349 1.374 . S
C349 H329 0.950 . S
C349 C345 1.385 . S
C349 C348 1.374 . S
C350 C347 1.499 . S
C350 C351 1.373 . S
C350 C352 1.389 . S
C351 H330 0.950 . S
C351 C350 1.373 . S
C351 C367 1.377 . S
C352 C350 1.389 . S
C352 C353 1.524 . S
C352 C366 1.377 . S
C353 C352 1.524 . S
C353 C354 1.397 . S
C353 C358 1.363 . S
C354 H331 0.950 . S
C354 C353 1.397 . S
C354 C355 1.334 . S
C355 H332 0.950 . S
C355 C354 1.334 . S
C355 C356 1.287 . S
C356 C355 1.287 . S
C356 C357 1.524 . S
C356 H375 0.913 . S
C357 H333 0.950 . S
C357 C356 1.524 . S
C357 C358 1.415 . S
C358 H334 0.950 . S
C358 C353 1.363 . S
C358 C357 1.415 . S
C359 H335 0.951 . S
C359 C360 1.366 . S
C359 C361 1.388 . S
C360 C359 1.366 . S
C360 C364 1.385 . S
C361 H336 0.951 . S
C361 C359 1.388 . S
C361 C362 1.366 . S
C362 C361 1.366 . S
C362 C363 1.414 . S
C362 C365 1.499 . S
C363 H337 0.950 . S
C363 C362 1.414 . S
C363 C364 1.374 . S
C364 H338 0.950 . S
C364 C360 1.385 . S
C364 C363 1.374 . S
C365 C362 1.499 . S
C365 C366 1.373 . S
C365 C367 1.389 . S
C366 H339 0.950 . S
C366 C352 1.377 . S
C366 C365 1.373 . S
C367 C351 1.377 . S
C367 C365 1.389 . S
C367 C368 1.524 . S
C368 C367 1.524 . S
C368 C369 1.397 . S
C368 C373 1.363 . S
C369 H340 0.950 . S
C369 C368 1.397 . S
C369 C370 1.334 . S
C370 H341 0.950 . S
C370 C369 1.334 . S
C370 C371 1.287 . S
C371 C370 1.287 . S
C371 C372 1.524 . S
C371 H374 0.999 . S
C372 H342 0.950 . S
C372 C371 1.524 . S
C372 C373 1.415 . S
C373 H343 0.950 . S
C373 C368 1.363 . S
C373 C372 1.415 . S
H374 C371 0.999 . S
H375 C356 0.913 . S
H376 C394 0.951 . S
H377 C396 0.951 . S
H378 C398 0.950 . S
H379 C399 0.950 . S
H380 C401 0.950 . S
H381 C404 0.950 . S
H382 C405 0.950 . S
H383 C407 0.950 . S
H384 C408 0.950 . S
H385 C409 0.951 . S
H386 C411 0.951 . S
H387 C413 0.950 . S
H388 C414 0.950 . S
H389 C416 0.950 . S
H390 C419 0.950 . S
H391 C420 0.950 . S
H392 C422 0.950 . S
H393 C423 0.950 . S
C394 H376 0.951 . S
C394 C395 1.366 . S
C394 C396 1.388 . S
C395 C394 1.366 . S
C395 C399 1.385 . S
C396 H377 0.951 . S
C396 C394 1.388 . S
C396 C397 1.366 . S
C397 C396 1.366 . S
C397 C398 1.414 . S
C397 C400 1.499 . S
C398 H378 0.950 . S
C398 C397 1.414 . S
C398 C399 1.374 . S
C399 H379 0.950 . S
C399 C395 1.385 . S
C399 C398 1.374 . S
C400 C397 1.499 . S
C400 C401 1.373 . S
C400 C402 1.389 . S
C401 H380 0.950 . S
C401 C400 1.373 . S
C401 C417 1.377 . S
C402 C400 1.389 . S
C402 C403 1.524 . S
C402 C416 1.377 . S
C403 C402 1.524 . S
C403 C404 1.397 . S
C403 C408 1.363 . S
C404 H381 0.950 . S
C404 C403 1.397 . S
C404 C405 1.334 . S
C405 H382 0.950 . S
C405 C404 1.334 . S
C405 C406 1.287 . S
C406 C405 1.287 . S
C406 C407 1.524 . S
C406 H425 0.913 . S
C407 H383 0.950 . S
C407 C406 1.524 . S
C407 C408 1.415 . S
C408 H384 0.950 . S
C408 C403 1.363 . S
C408 C407 1.415 . S
C409 H385 0.951 . S
C409 C410 1.366 . S
C409 C411 1.388 . S
C410 C409 1.366 . S
C410 C414 1.385 . S
C411 H386 0.951 . S
C411 C409 1.388 . S
C411 C412 1.366 . S
C412 C411 1.366 . S
C412 C413 1.414 . S
C412 C415 1.499 . S
C413 H387 0.950 . S
C413 C412 1.414 . S
C413 C414 1.374 . S
C414 H388 0.950 . S
C414 C410 1.385 . S
C414 C413 1.374 . S
C415 C412 1.499 . S
C415 C416 1.373 . S
C415 C417 1.389 . S
C416 H389 0.950 . S
C416 C402 1.377 . S
C416 C415 1.373 . S
C417 C401 1.377 . S
C417 C415 1.389 . S
C417 C418 1.524 . S
C418 C417 1.524 . S
C418 C419 1.397 . S
C418 C423 1.363 . S
C419 H390 0.950 . S
C419 C418 1.397 . S
C419 C420 1.334 . S
C420 H391 0.950 . S
C420 C419 1.334 . S
C420 C421 1.287 . S
C421 C420 1.287 . S
C421 C422 1.524 . S
C421 H424 0.999 . S
C422 H392 0.950 . S
C422 C421 1.524 . S
C422 C423 1.415 . S
C423 H393 0.950 . S
C423 C418 1.363 . S
C423 C422 1.415 . S
H424 C421 0.999 . S
H425 C406 0.913 . S
H426 C444 0.951 . S
H427 C446 0.951 . S
H428 C448 0.950 . S
H429 C449 0.950 . S
H430 C451 0.950 . S
H431 C454 0.950 . S
H432 C455 0.950 . S
H433 C457 0.950 . S
H434 C458 0.950 . S
H435 C459 0.951 . S
H436 C461 0.951 . S
H437 C463 0.950 . S
H438 C464 0.950 . S
H439 C466 0.950 . S
H440 C469 0.950 . S
H441 C470 0.950 . S
H442 C472 0.950 . S
H443 C473 0.950 . S
C444 H426 0.951 . S
C444 C445 1.366 . S
C444 C446 1.388 . S
C445 C444 1.366 . S
C445 C449 1.385 . S
C446 H427 0.951 . S
C446 C444 1.388 . S
C446 C447 1.366 . S
C447 C446 1.366 . S
C447 C448 1.414 . S
C447 C450 1.499 . S
C448 H428 0.950 . S
C448 C447 1.414 . S
C448 C449 1.374 . S
C449 H429 0.950 . S
C449 C445 1.385 . S
C449 C448 1.374 . S
C450 C447 1.499 . S
C450 C451 1.373 . S
C450 C452 1.389 . S
C451 H430 0.950 . S
C451 C450 1.373 . S
C451 C467 1.377 . S
C452 C450 1.389 . S
C452 C453 1.524 . S
C452 C466 1.377 . S
C453 C452 1.524 . S
C453 C454 1.397 . S
C453 C458 1.363 . S
C454 H431 0.950 . S
C454 C453 1.397 . S
C454 C455 1.334 . S
C455 H432 0.950 . S
C455 C454 1.334 . S
C455 C456 1.287 . S
C456 C455 1.287 . S
C456 C457 1.524 . S
C456 H475 0.913 . S
C457 H433 0.950 . S
C457 C456 1.524 . S
C457 C458 1.415 . S
C458 H434 0.950 . S
C458 C453 1.363 . S
C458 C457 1.415 . S
C459 H435 0.951 . S
C459 C460 1.366 . S
C459 C461 1.388 . S
C460 C459 1.366 . S
C460 C464 1.385 . S
C461 H436 0.951 . S
C461 C459 1.388 . S
C461 C462 1.366 . S
C462 C461 1.366 . S
C462 C463 1.414 . S
C462 C465 1.499 . S
C463 H437 0.950 . S
C463 C462 1.414 . S
C463 C464 1.374 . S
C464 H438 0.950 . S
C464 C460 1.385 . S
C464 C463 1.374 . S
C465 C462 1.499 . S
C465 C466 1.373 . S
C465 C467 1.389 . S
C466 H439 0.950 . S
C466 C452 1.377 . S
C466 C465 1.373 . S
C467 C451 1.377 . S
C467 C465 1.389 . S
C467 C468 1.524 . S
C468 C467 1.524 . S
C468 C469 1.397 . S
C468 C473 1.363 . S
C469 H440 0.950 . S
C469 C468 1.397 . S
C469 C470 1.334 . S
C470 H441 0.950 . S
C470 C469 1.334 . S
C470 C471 1.287 . S
C471 C470 1.287 . S
C471 C472 1.524 . S
C471 H474 0.999 . S
C472 H442 0.950 . S
C472 C471 1.524 . S
C472 C473 1.415 . S
C473 H443 0.950 . S
C473 C468 1.363 . S
C473 C472 1.415 . S
H474 C471 0.999 . S
H475 C456 0.913 . S
H476 C494 0.951 . S
H477 C496 0.951 . S
H478 C498 0.950 . S
H479 C499 0.950 . S
H480 C501 0.950 . S
H481 C504 0.950 . S
H482 C505 0.950 . S
H483 C507 0.950 . S
H484 C508 0.950 . S
H485 C509 0.951 . S
H486 C511 0.951 . S
H487 C513 0.950 . S
H488 C514 0.950 . S
H489 C516 0.950 . S
H490 C519 0.950 . S
H491 C520 0.950 . S
H492 C522 0.950 . S
H493 C523 0.950 . S
C494 H476 0.951 . S
C494 C495 1.366 . S
C494 C496 1.388 . S
C495 C494 1.366 . S
C495 C499 1.385 . S
C496 H477 0.951 . S
C496 C494 1.388 . S
C496 C497 1.366 . S
C497 C496 1.366 . S
C497 C498 1.414 . S
C497 C500 1.499 . S
C498 H478 0.950 . S
C498 C497 1.414 . S
C498 C499 1.374 . S
C499 H479 0.950 . S
C499 C495 1.385 . S
C499 C498 1.374 . S
C500 C497 1.499 . S
C500 C501 1.373 . S
C500 C502 1.389 . S
C501 H480 0.950 . S
C501 C500 1.373 . S
C501 C517 1.377 . S
C502 C500 1.389 . S
C502 C503 1.524 . S
C502 C516 1.377 . S
C503 C502 1.524 . S
C503 C504 1.397 . S
C503 C508 1.363 . S
C504 H481 0.950 . S
C504 C503 1.397 . S
C504 C505 1.334 . S
C505 H482 0.950 . S
C505 C504 1.334 . S
C505 C506 1.287 . S
C506 C505 1.287 . S
C506 C507 1.524 . S
C506 H525 0.913 . S
C507 H483 0.950 . S
C507 C506 1.524 . S
C507 C508 1.415 . S
C508 H484 0.950 . S
C508 C503 1.363 . S
C508 C507 1.415 . S
C509 H485 0.951 . S
C509 C510 1.366 . S
C509 C511 1.388 . S
C510 C509 1.366 . S
C510 C514 1.385 . S
C511 H486 0.951 . S
C511 C509 1.388 . S
C511 C512 1.366 . S
C512 C511 1.366 . S
C512 C513 1.414 . S
C512 C515 1.499 . S
C513 H487 0.950 . S
C513 C512 1.414 . S
C513 C514 1.374 . S
C514 H488 0.950 . S
C514 C510 1.385 . S
C514 C513 1.374 . S
C515 C512 1.499 . S
C515 C516 1.373 . S
C515 C517 1.389 . S
C516 H489 0.950 . S
C516 C502 1.377 . S
C516 C515 1.373 . S
C517 C501 1.377 . S
C517 C515 1.389 . S
C517 C518 1.524 . S
C518 C517 1.524 . S
C518 C519 1.397 . S
C518 C523 1.363 . S
C519 H490 0.950 . S
C519 C518 1.397 . S
C519 C520 1.334 . S
C520 H491 0.950 . S
C520 C519 1.334 . S
C520 C521 1.287 . S
C521 C520 1.287 . S
C521 C522 1.524 . S
C521 H524 0.999 . S
C522 H492 0.950 . S
C522 C521 1.524 . S
C522 C523 1.415 . S
C523 H493 0.950 . S
C523 C518 1.363 . S
C523 C522 1.415 . S
H524 C521 0.999 . S
H525 C506 0.913 . S
H526 C544 0.951 . S
H527 C546 0.951 . S
H528 C548 0.950 . S
H529 C549 0.950 . S
H530 C551 0.950 . S
H531 C554 0.950 . S
H532 C555 0.950 . S
H533 C557 0.950 . S
H534 C558 0.950 . S
H535 C559 0.951 . S
H536 C561 0.951 . S
H537 C563 0.950 . S
H538 C564 0.950 . S
H539 C566 0.950 . S
H540 C569 0.950 . S
H541 C570 0.950 . S
H542 C572 0.950 . S
H543 C573 0.950 . S
C544 H526 0.951 . S
C544 C545 1.366 . S
C544 C546 1.388 . S
C545 C544 1.366 . S
C545 C549 1.385 . S
C546 H527 0.951 . S
C546 C544 1.388 . S
C546 C547 1.366 . S
C547 C546 1.366 . S
C547 C548 1.414 . S
C547 C550 1.499 . S
C548 H528 0.950 . S
C548 C547 1.414 . S
C548 C549 1.374 . S
C549 H529 0.950 . S
C549 C545 1.385 . S
C549 C548 1.374 . S
C550 C547 1.499 . S
C550 C551 1.373 . S
C550 C552 1.389 . S
C551 H530 0.950 . S
C551 C550 1.373 . S
C551 C567 1.377 . S
C552 C550 1.389 . S
C552 C553 1.524 . S
C552 C566 1.377 . S
C553 C552 1.524 . S
C553 C554 1.397 . S
C553 C558 1.363 . S
C554 H531 0.950 . S
C554 C553 1.397 . S
C554 C555 1.334 . S
C555 H532 0.950 . S
C555 C554 1.334 . S
C555 C556 1.287 . S
C556 C555 1.287 . S
C556 C557 1.524 . S
C556 H575 0.913 . S
C557 H533 0.950 . S
C557 C556 1.524 . S
C557 C558 1.415 . S
C558 H534 0.950 . S
C558 C553 1.363 . S
C558 C557 1.415 . S
C559 H535 0.951 . S
C559 C560 1.366 . S
C559 C561 1.388 . S
C560 C559 1.366 . S
C560 C564 1.385 . S
C561 H536 0.951 . S
C561 C559 1.388 . S
C561 C562 1.366 . S
C562 C561 1.366 . S
C562 C563 1.414 . S
C562 C565 1.499 . S
C563 H537 0.950 . S
C563 C562 1.414 . S
C563 C564 1.374 . S
C564 H538 0.950 . S
C564 C560 1.385 . S
C564 C563 1.374 . S
C565 C562 1.499 . S
C565 C566 1.373 . S
C565 C567 1.389 . S
C566 H539 0.950 . S
C566 C552 1.377 . S
C566 C565 1.373 . S
C567 C551 1.377 . S
C567 C565 1.389 . S
C567 C568 1.524 . S
C568 C567 1.524 . S
C568 C569 1.397 . S
C568 C573 1.363 . S
C569 H540 0.950 . S
C569 C568 1.397 . S
C569 C570 1.334 . S
C570 H541 0.950 . S
C570 C569 1.334 . S
C570 C571 1.287 . S
C571 C570 1.287 . S
C571 C572 1.524 . S
C571 H574 0.999 . S
C572 H542 0.950 . S
C572 C571 1.524 . S
C572 C573 1.415 . S
C573 H543 0.950 . S
C573 C568 1.363 . S
C573 C572 1.415 . S
H574 C571 0.999 . S
H575 C556 0.913 . S
H576 C594 0.951 . S
H577 C596 0.951 . S
H578 C598 0.950 . S
H579 C599 0.950 . S
H580 C601 0.950 . S
H581 C604 0.950 . S
H582 C605 0.950 . S
H583 C607 0.950 . S
H584 C608 0.950 . S
H585 C609 0.951 . S
H586 C611 0.951 . S
H587 C613 0.950 . S
H588 C614 0.950 . S
H589 C616 0.950 . S
H590 C619 0.950 . S
H591 C620 0.950 . S
H592 C622 0.950 . S
H593 C623 0.950 . S
C594 H576 0.951 . S
C594 C595 1.366 . S
C594 C596 1.388 . S
C595 C594 1.366 . S
C595 C599 1.385 . S
C596 H577 0.951 . S
C596 C594 1.388 . S
C596 C597 1.366 . S
C597 C596 1.366 . S
C597 C598 1.414 . S
C597 C600 1.499 . S
C598 H578 0.950 . S
C598 C597 1.414 . S
C598 C599 1.374 . S
C599 H579 0.950 . S
C599 C595 1.385 . S
C599 C598 1.374 . S
C600 C597 1.499 . S
C600 C601 1.373 . S
C600 C602 1.389 . S
C601 H580 0.950 . S
C601 C600 1.373 . S
C601 C617 1.377 . S
C602 C600 1.389 . S
C602 C603 1.524 . S
C602 C616 1.377 . S
C603 C602 1.524 . S
C603 C604 1.397 . S
C603 C608 1.363 . S
C604 H581 0.950 . S
C604 C603 1.397 . S
C604 C605 1.334 . S
C605 H582 0.950 . S
C605 C604 1.334 . S
C605 C606 1.287 . S
C606 C605 1.287 . S
C606 C607 1.524 . S
C606 H625 0.913 . S
C607 H583 0.950 . S
C607 C606 1.524 . S
C607 C608 1.415 . S
C608 H584 0.950 . S
C608 C603 1.363 . S
C608 C607 1.415 . S
C609 H585 0.951 . S
C609 C610 1.366 . S
C609 C611 1.388 . S
C610 C609 1.366 . S
C610 C614 1.385 . S
C611 H586 0.951 . S
C611 C609 1.388 . S
C611 C612 1.366 . S
C612 C611 1.366 . S
C612 C613 1.414 . S
C612 C615 1.499 . S
C613 H587 0.950 . S
C613 C612 1.414 . S
C613 C614 1.374 . S
C614 H588 0.950 . S
C614 C610 1.385 . S
C614 C613 1.374 . S
C615 C612 1.499 . S
C615 C616 1.373 . S
C615 C617 1.389 . S
C616 H589 0.950 . S
C616 C602 1.377 . S
C616 C615 1.373 . S
C617 C601 1.377 . S
C617 C615 1.389 . S
C617 C618 1.524 . S
C618 C617 1.524 . S
C618 C619 1.397 . S
C618 C623 1.363 . S
C619 H590 0.950 . S
C619 C618 1.397 . S
C619 C620 1.334 . S
C620 H591 0.950 . S
C620 C619 1.334 . S
C620 C621 1.287 . S
C621 C620 1.287 . S
C621 C622 1.524 . S
C621 H624 0.999 . S
C622 H592 0.950 . S
C622 C621 1.524 . S
C622 C623 1.415 . S
C623 H593 0.950 . S
C623 C618 1.363 . S
C623 C622 1.415 . S
H624 C621 0.999 . S
H625 C606 0.913 . S
H626 C644 0.951 . S
H627 C646 0.951 . S
H628 C648 0.950 . S
H629 C649 0.950 . S
H630 C651 0.950 . S
H631 C654 0.950 . S
H632 C655 0.950 . S
H633 C657 0.950 . S
H634 C658 0.950 . S
H635 C659 0.951 . S
H636 C661 0.951 . S
H637 C663 0.950 . S
H638 C664 0.950 . S
H639 C666 0.950 . S
H640 C669 0.950 . S
H641 C670 0.950 . S
H642 C672 0.950 . S
H643 C673 0.950 . S
C644 H626 0.951 . S
C644 C645 1.366 . S
C644 C646 1.388 . S
C645 C644 1.366 . S
C645 C649 1.385 . S
C646 H627 0.951 . S
C646 C644 1.388 . S
C646 C647 1.366 . S
C647 C646 1.366 . S
C647 C648 1.414 . S
C647 C650 1.499 . S
C648 H628 0.950 . S
C648 C647 1.414 . S
C648 C649 1.374 . S
C649 H629 0.950 . S
C649 C645 1.385 . S
C649 C648 1.374 . S
C650 C647 1.499 . S
C650 C651 1.373 . S
C650 C652 1.389 . S
C651 H630 0.950 . S
C651 C650 1.373 . S
C651 C667 1.377 . S
C652 C650 1.389 . S
C652 C653 1.524 . S
C652 C666 1.377 . S
C653 C652 1.524 . S
C653 C654 1.397 . S
C653 C658 1.363 . S
C654 H631 0.950 . S
C654 C653 1.397 . S
C654 C655 1.334 . S
C655 H632 0.950 . S
C655 C654 1.334 . S
C655 C656 1.287 . S
C656 C655 1.287 . S
C656 C657 1.524 . S
C656 H675 0.913 . S
C657 H633 0.950 . S
C657 C656 1.524 . S
C657 C658 1.415 . S
C658 H634 0.950 . S
C658 C653 1.363 . S
C658 C657 1.415 . S
C659 H635 0.951 . S
C659 C660 1.366 . S
C659 C661 1.388 . S
C660 C659 1.366 . S
C660 C664 1.385 . S
C661 H636 0.951 . S
C661 C659 1.388 . S
C661 C662 1.366 . S
C662 C661 1.366 . S
C662 C663 1.414 . S
C662 C665 1.499 . S
C663 H637 0.950 . S
C663 C662 1.414 . S
C663 C664 1.374 . S
C664 H638 0.950 . S
C664 C660 1.385 . S
C664 C663 1.374 . S
C665 C662 1.499 . S
C665 C666 1.373 . S
C665 C667 1.389 . S
C666 H639 0.950 . S
C666 C652 1.377 . S
C666 C665 1.373 . S
C667 C651 1.377 . S
C667 C665 1.389 . S
C667 C668 1.524 . S
C668 C667 1.524 . S
C668 C669 1.397 . S
C668 C673 1.363 . S
C669 H640 0.950 . S
C669 C668 1.397 . S
C669 C670 1.334 . S
C670 H641 0.950 . S
C670 C669 1.334 . S
C670 C671 1.287 . S
C671 C670 1.287 . S
C671 C672 1.524 . S
C671 H674 0.999 . S
C672 H642 0.950 . S
C672 C671 1.524 . S
C672 C673 1.415 . S
C673 H643 0.950 . S
C673 C668 1.363 . S
C673 C672 1.415 . S
H674 C671 0.999 . S
H675 C656 0.913 . S
H676 C694 0.951 . S
H677 C696 0.951 . S
H678 C698 0.950 . S
H679 C699 0.950 . S
H680 C701 0.950 . S
H681 C704 0.950 . S
H682 C705 0.950 . S
H683 C707 0.950 . S
H684 C708 0.950 . S
H685 C709 0.951 . S
H686 C711 0.951 . S
H687 C713 0.950 1_545 S
H688 C714 0.950 . S
H689 C716 0.950 . S
H690 C719 0.950 . S
H691 C720 0.950 . S
H692 C722 0.950 . S
H693 C723 0.950 . S
C694 H676 0.951 . S
C694 C695 1.366 . S
C694 C696 1.388 . S
C695 C694 1.366 . S
C695 C699 1.385 . S
C696 H677 0.951 . S
C696 C694 1.388 . S
C696 C697 1.366 . S
C697 C696 1.366 . S
C697 C698 1.414 . S
C697 C700 1.499 . S
C698 H678 0.950 . S
C698 C697 1.414 . S
C698 C699 1.374 . S
C699 H679 0.950 . S
C699 C695 1.385 . S
C699 C698 1.374 . S
C700 C697 1.499 . S
C700 C701 1.373 . S
C700 C702 1.389 . S
C701 H680 0.950 . S
C701 C700 1.373 . S
C701 C717 1.377 . S
C702 C700 1.389 . S
C702 C703 1.524 . S
C702 C716 1.377 . S
C703 C702 1.524 . S
C703 C704 1.397 . S
C703 C708 1.363 1_565 S
C704 H681 0.950 . S
C704 C703 1.397 . S
C704 C705 1.334 . S
C705 H682 0.950 . S
C705 C704 1.334 . S
C705 C706 1.287 . S
C706 C705 1.287 . S
C706 C707 1.524 1_565 S
C706 H725 0.913 1_565 S
C707 H683 0.950 . S
C707 C706 1.524 1_545 S
C707 C708 1.415 . S
C708 H684 0.950 . S
C708 C703 1.363 1_545 S
C708 C707 1.415 . S
C709 H685 0.951 . S
C709 C710 1.366 . S
C709 C711 1.388 . S
C710 C709 1.366 . S
C710 C714 1.385 1_565 S
C711 H686 0.951 . S
C711 C709 1.388 . S
C711 C712 1.366 . S
C712 C711 1.366 . S
C712 C713 1.414 . S
C712 C715 1.499 . S
C713 H687 0.950 1_565 S
C713 C712 1.414 . S
C713 C714 1.374 1_565 S
C714 H688 0.950 . S
C714 C710 1.385 1_545 S
C714 C713 1.374 1_545 S
C715 C712 1.499 . S
C715 C716 1.373 . S
C715 C717 1.389 . S
C716 H689 0.950 . S
C716 C702 1.377 . S
C716 C715 1.373 . S
C717 C701 1.377 . S
C717 C715 1.389 . S
C717 C718 1.524 . S
C718 C717 1.524 . S
C718 C719 1.397 . S
C718 C723 1.363 . S
C719 H690 0.950 . S
C719 C718 1.397 . S
C719 C720 1.334 . S
C720 H691 0.950 . S
C720 C719 1.334 . S
C720 C721 1.287 . S
C721 C720 1.287 . S
C721 C722 1.524 . S
C721 H724 0.999 . S
C722 H692 0.950 . S
C722 C721 1.524 . S
C722 C723 1.415 . S
C723 H693 0.950 . S
C723 C718 1.363 . S
C723 C722 1.415 . S
H724 C721 0.999 . S
H725 C706 0.913 1_545 S
H726 C744 0.951 . S
H727 C746 0.951 . S
H728 C748 0.950 . S
H729 C749 0.950 . S
H730 C751 0.950 . S
H731 C754 0.950 . S
H732 C755 0.950 . S
H733 C757 0.950 . S
H734 C758 0.950 . S
H735 C759 0.951 . S
H736 C761 0.951 . S
H737 C763 0.950 . S
H738 C764 0.950 . S
H739 C766 0.950 . S
H740 C769 0.950 . S
H741 C770 0.950 . S
H742 C772 0.950 . S
H743 C773 0.950 . S
C744 H726 0.951 . S
C744 C745 1.366 . S
C744 C746 1.388 . S
C745 C744 1.366 . S
C745 C749 1.385 . S
C746 H727 0.951 . S
C746 C744 1.388 . S
C746 C747 1.366 . S
C747 C746 1.366 . S
C747 C748 1.414 . S
C747 C750 1.499 . S
C748 H728 0.950 . S
C748 C747 1.414 . S
C748 C749 1.374 . S
C749 H729 0.950 . S
C749 C745 1.385 . S
C749 C748 1.374 . S
C750 C747 1.499 . S
C750 C751 1.373 . S
C750 C752 1.389 . S
C751 H730 0.950 . S
C751 C750 1.373 . S
C751 C767 1.377 . S
C752 C750 1.389 . S
C752 C753 1.524 . S
C752 C766 1.377 . S
C753 C752 1.524 . S
C753 C754 1.397 . S
C753 C758 1.363 . S
C754 H731 0.950 . S
C754 C753 1.397 . S
C754 C755 1.334 . S
C755 H732 0.950 . S
C755 C754 1.334 . S
C755 C756 1.287 . S
C756 C755 1.287 . S
C756 C757 1.524 . S
C756 H775 0.913 . S
C757 H733 0.950 . S
C757 C756 1.524 . S
C757 C758 1.415 . S
C758 H734 0.950 . S
C758 C753 1.363 . S
C758 C757 1.415 . S
C759 H735 0.951 . S
C759 C760 1.366 . S
C759 C761 1.388 . S
C760 C759 1.366 . S
C760 C764 1.385 . S
C761 H736 0.951 . S
C761 C759 1.388 . S
C761 C762 1.366 . S
C762 C761 1.366 . S
C762 C763 1.414 . S
C762 C765 1.499 . S
C763 H737 0.950 . S
C763 C762 1.414 . S
C763 C764 1.374 . S
C764 H738 0.950 . S
C764 C760 1.385 . S
C764 C763 1.374 . S
C765 C762 1.499 . S
C765 C766 1.373 . S
C765 C767 1.389 . S
C766 H739 0.950 . S
C766 C752 1.377 . S
C766 C765 1.373 . S
C767 C751 1.377 . S
C767 C765 1.389 . S
C767 C768 1.524 . S
C768 C767 1.524 . S
C768 C769 1.397 . S
C768 C773 1.363 . S
C769 H740 0.950 . S
C769 C768 1.397 . S
C769 C770 1.334 . S
C770 H741 0.950 . S
C770 C769 1.334 . S
C770 C771 1.287 . S
C771 C770 1.287 . S
C771 C772 1.524 . S
C771 H774 0.999 . S
C772 H742 0.950 . S
C772 C771 1.524 . S
C772 C773 1.415 . S
C773 H743 0.950 . S
C773 C768 1.363 . S
C773 C772 1.415 . S
H774 C771 0.999 . S
H775 C756 0.913 . S
H776 C794 0.951 1_455 S
H777 C796 0.951 . S
H778 C798 0.950 . S
H779 C799 0.950 . S
H780 C801 0.950 . S
H781 C804 0.950 . S
H782 C805 0.950 . S
H783 C807 0.950 . S
H784 C808 0.950 . S
H785 C809 0.951 . S
H786 C811 0.951 . S
H787 C813 0.950 . S
H788 C814 0.950 . S
H789 C816 0.950 . S
H790 C819 0.950 . S
H791 C820 0.950 . S
H792 C822 0.950 . S
H793 C823 0.950 . S
C794 H776 0.951 1_655 S
C794 C795 1.366 . S
C794 C796 1.388 . S
C795 C794 1.366 . S
C795 C799 1.385 . S
C796 H777 0.951 . S
C796 C794 1.388 . S
C796 C797 1.366 . S
C797 C796 1.366 . S
C797 C798 1.414 . S
C797 C800 1.499 . S
C798 H778 0.950 . S
C798 C797 1.414 . S
C798 C799 1.374 . S
C799 H779 0.950 . S
C799 C795 1.385 . S
C799 C798 1.374 . S
C800 C797 1.499 . S
C800 C801 1.373 . S
C800 C802 1.389 . S
C801 H780 0.950 . S
C801 C800 1.373 . S
C801 C817 1.377 . S
C802 C800 1.389 . S
C802 C803 1.524 . S
C802 C816 1.377 . S
C803 C802 1.524 . S
C803 C804 1.397 . S
C803 C808 1.363 . S
C804 H781 0.950 . S
C804 C803 1.397 . S
C804 C805 1.334 . S
C805 H782 0.950 . S
C805 C804 1.334 . S
C805 C806 1.287 . S
C806 C805 1.287 . S
C806 C807 1.524 . S
C806 H825 0.913 . S
C807 H783 0.950 . S
C807 C806 1.524 . S
C807 C808 1.415 . S
C808 H784 0.950 . S
C808 C803 1.363 . S
C808 C807 1.415 . S
C809 H785 0.951 . S
C809 C810 1.366 . S
C809 C811 1.388 . S
C810 C809 1.366 . S
C810 C814 1.385 . S
C811 H786 0.951 . S
C811 C809 1.388 . S
C811 C812 1.366 . S
C812 C811 1.366 . S
C812 C813 1.414 . S
C812 C815 1.499 . S
C813 H787 0.950 . S
C813 C812 1.414 . S
C813 C814 1.374 . S
C814 H788 0.950 . S
C814 C810 1.385 . S
C814 C813 1.374 . S
C815 C812 1.499 . S
C815 C816 1.373 . S
C815 C817 1.389 . S
C816 H789 0.950 . S
C816 C802 1.377 . S
C816 C815 1.373 . S
C817 C801 1.377 . S
C817 C815 1.389 . S
C817 C818 1.524 . S
C818 C817 1.524 . S
C818 C819 1.397 . S
C818 C823 1.363 . S
C819 H790 0.950 . S
C819 C818 1.397 . S
C819 C820 1.334 . S
C820 H791 0.950 . S
C820 C819 1.334 . S
C820 C821 1.287 . S
C821 C820 1.287 . S
C821 C822 1.524 . S
C821 H824 0.999 . S
C822 H792 0.950 . S
C822 C821 1.524 . S
C822 C823 1.415 . S
C823 H793 0.950 . S
C823 C818 1.363 . S
C823 C822 1.415 . S
H824 C821 0.999 . S
H825 C806 0.913 . S
H826 C844 0.951 . S
H827 C846 0.951 . S
H828 C848 0.950 . S
H829 C849 0.950 . S
H830 C851 0.950 . S
H831 C854 0.950 . S
H832 C855 0.950 . S
H833 C857 0.950 . S
H834 C858 0.950 . S
H835 C859 0.951 . S
H836 C861 0.951 . S
H837 C863 0.950 . S
H838 C864 0.950 . S
H839 C866 0.950 . S
H840 C869 0.950 . S
H841 C870 0.950 . S
H842 C872 0.950 . S
H843 C873 0.950 . S
C844 H826 0.951 . S
C844 C845 1.366 . S
C844 C846 1.388 . S
C845 C844 1.366 . S
C845 C849 1.385 . S
C846 H827 0.951 . S
C846 C844 1.388 . S
C846 C847 1.366 . S
C847 C846 1.366 . S
C847 C848 1.414 . S
C847 C850 1.499 . S
C848 H828 0.950 . S
C848 C847 1.414 . S
C848 C849 1.374 . S
C849 H829 0.950 . S
C849 C845 1.385 . S
C849 C848 1.374 . S
C850 C847 1.499 . S
C850 C851 1.373 . S
C850 C852 1.389 . S
C851 H830 0.950 . S
C851 C850 1.373 . S
C851 C867 1.377 . S
C852 C850 1.389 . S
C852 C853 1.524 . S
C852 C866 1.377 . S
C853 C852 1.524 . S
C853 C854 1.397 . S
C853 C858 1.363 . S
C854 H831 0.950 . S
C854 C853 1.397 . S
C854 C855 1.334 . S
C855 H832 0.950 . S
C855 C854 1.334 . S
C855 C856 1.287 . S
C856 C855 1.287 . S
C856 C857 1.524 . S
C856 H875 0.913 . S
C857 H833 0.950 . S
C857 C856 1.524 . S
C857 C858 1.415 . S
C858 H834 0.950 . S
C858 C853 1.363 . S
C858 C857 1.415 . S
C859 H835 0.951 . S
C859 C860 1.366 . S
C859 C861 1.388 . S
C860 C859 1.366 . S
C860 C864 1.385 . S
C861 H836 0.951 . S
C861 C859 1.388 . S
C861 C862 1.366 . S
C862 C861 1.366 . S
C862 C863 1.414 . S
C862 C865 1.499 . S
C863 H837 0.950 . S
C863 C862 1.414 . S
C863 C864 1.374 . S
C864 H838 0.950 . S
C864 C860 1.385 . S
C864 C863 1.374 . S
C865 C862 1.499 . S
C865 C866 1.373 . S
C865 C867 1.389 . S
C866 H839 0.950 . S
C866 C852 1.377 . S
C866 C865 1.373 . S
C867 C851 1.377 . S
C867 C865 1.389 . S
C867 C868 1.524 . S
C868 C867 1.524 . S
C868 C869 1.397 . S
C868 C873 1.363 . S
C869 H840 0.950 . S
C869 C868 1.397 . S
C869 C870 1.334 . S
C870 H841 0.950 . S
C870 C869 1.334 . S
C870 C871 1.287 . S
C871 C870 1.287 . S
C871 C872 1.524 . S
C871 H874 0.999 . S
C872 H842 0.950 . S
C872 C871 1.524 . S
C872 C873 1.415 . S
C873 H843 0.950 . S
C873 C868 1.363 . S
C873 C872 1.415 . S
H874 C871 0.999 . S
H875 C856 0.913 . S
H876 C894 0.951 . S
H877 C896 0.951 . S
H878 C898 0.950 . S
H879 C899 0.950 . S
H880 C901 0.950 . S
H881 C904 0.950 . S
H882 C905 0.950 . S
H883 C907 0.950 . S
H884 C908 0.950 . S
H885 C909 0.951 . S
H886 C911 0.951 . S
H887 C913 0.950 . S
H888 C914 0.950 . S
H889 C916 0.950 . S
H890 C919 0.950 . S
H891 C920 0.950 . S
H892 C922 0.950 . S
H893 C923 0.950 . S
C894 H876 0.951 . S
C894 C895 1.366 . S
C894 C896 1.388 . S
C895 C894 1.366 . S
C895 C899 1.385 . S
C896 H877 0.951 . S
C896 C894 1.388 . S
C896 C897 1.366 . S
C897 C896 1.366 . S
C897 C898 1.414 . S
C897 C900 1.499 . S
C898 H878 0.950 . S
C898 C897 1.414 . S
C898 C899 1.374 . S
C899 H879 0.950 . S
C899 C895 1.385 . S
C899 C898 1.374 . S
C900 C897 1.499 . S
C900 C901 1.373 . S
C900 C902 1.389 . S
C901 H880 0.950 . S
C901 C900 1.373 . S
C901 C917 1.377 1_455 S
C902 C900 1.389 . S
C902 C903 1.524 . S
C902 C916 1.377 . S
C903 C902 1.524 . S
C903 C904 1.397 . S
C903 C908 1.363 . S
C904 H881 0.950 . S
C904 C903 1.397 . S
C904 C905 1.334 . S
C905 H882 0.950 . S
C905 C904 1.334 . S
C905 C906 1.287 . S
C906 C905 1.287 . S
C906 C907 1.524 . S
C906 H925 0.913 . S
C907 H883 0.950 . S
C907 C906 1.524 . S
C907 C908 1.415 . S
C908 H884 0.950 . S
C908 C903 1.363 . S
C908 C907 1.415 . S
C909 H885 0.951 . S
C909 C910 1.366 . S
C909 C911 1.388 . S
C910 C909 1.366 . S
C910 C914 1.385 . S
C911 H886 0.951 . S
C911 C909 1.388 . S
C911 C912 1.366 . S
C912 C911 1.366 . S
C912 C913 1.414 . S
C912 C915 1.513 . S
C913 H887 0.950 . S
C913 C912 1.414 . S
C913 C914 1.374 . S
C914 H888 0.950 . S
C914 C910 1.385 . S
C914 C913 1.374 . S
C915 C912 1.513 . S
C915 C916 1.354 1_655 S
C915 C917 1.395 . S
C916 H889 0.950 . S
C916 C902 1.377 . S
C916 C915 1.354 1_455 S
C917 C901 1.377 1_655 S
C917 C915 1.395 . S
C917 C918 1.524 . S
C918 C917 1.524 . S
C918 C919 1.397 . S
C918 C923 1.363 . S
C919 H890 0.950 . S
C919 C918 1.397 . S
C919 C920 1.334 . S
C920 H891 0.950 . S
C920 C919 1.334 . S
C920 C921 1.287 . S
C921 C920 1.287 . S
C921 C922 1.524 . S
C921 H924 0.999 . S
C922 H892 0.950 . S
C922 C921 1.524 . S
C922 C923 1.415 . S
C923 H893 0.950 . S
C923 C918 1.363 . S
C923 C922 1.415 . S
H924 C921 0.999 . S
H925 C906 0.913 . S
H926 C944 0.951 . S
H927 C946 0.951 . S
H928 C948 0.950 . S
H929 C949 0.950 . S
H930 C951 0.950 . S
H931 C954 0.950 . S
H932 C955 0.950 . S
H933 C957 0.950 . S
H934 C958 0.950 . S
H935 C959 0.951 . S
H936 C961 0.951 . S
H937 C963 0.950 . S
H938 C964 0.950 . S
H939 C966 0.950 . S
H940 C969 0.950 . S
H941 C970 0.950 . S
H942 C972 0.950 . S
H943 C973 0.950 . S
C944 H926 0.951 . S
C944 C945 1.366 . S
C944 C946 1.388 . S
C945 C944 1.366 . S
C945 C949 1.385 . S
C946 H927 0.951 . S
C946 C944 1.388 . S
C946 C947 1.366 . S
C947 C946 1.366 . S
C947 C948 1.414 . S
C947 C950 1.499 . S
C948 H928 0.950 . S
C948 C947 1.414 . S
C948 C949 1.374 . S
C949 H929 0.950 . S
C949 C945 1.385 . S
C949 C948 1.374 . S
C950 C947 1.499 . S
C950 C951 1.373 . S
C950 C952 1.389 . S
C951 H930 0.950 . S
C951 C950 1.373 . S
C951 C967 1.377 . S
C952 C950 1.389 . S
C952 C953 1.524 . S
C952 C966 1.377 . S
C953 C952 1.524 . S
C953 C954 1.397 . S
C953 C958 1.363 . S
C954 H931 0.950 . S
C954 C953 1.397 . S
C954 C955 1.334 . S
C955 H932 0.950 . S
C955 C954 1.334 . S
C955 C956 1.287 . S
C956 C955 1.287 . S
C956 C957 1.524 . S
C956 H975 0.913 . S
C957 H933 0.950 . S
C957 C956 1.524 . S
C957 C958 1.415 . S
C958 H934 0.950 . S
C958 C953 1.363 . S
C958 C957 1.415 . S
C959 H935 0.951 . S
C959 C960 1.366 . S
C959 C961 1.388 . S
C960 C959 1.366 . S
C960 C964 1.385 . S
C961 H936 0.951 . S
C961 C959 1.388 . S
C961 C962 1.366 . S
C962 C961 1.366 . S
C962 C963 1.414 . S
C962 C965 1.499 . S
C963 H937 0.950 . S
C963 C962 1.414 . S
C963 C964 1.374 . S
C964 H938 0.950 . S
C964 C960 1.385 . S
C964 C963 1.374 . S
C965 C962 1.499 . S
C965 C966 1.373 . S
C965 C967 1.389 . S
C966 H939 0.950 . S
C966 C952 1.377 . S
C966 C965 1.373 . S
C967 C951 1.377 . S
C967 C965 1.389 . S
C967 C968 1.524 . S
C968 C967 1.524 . S
C968 C969 1.397 . S
C968 C973 1.363 . S
C969 H940 0.950 . S
C969 C968 1.397 . S
C969 C970 1.334 . S
C970 H941 0.950 . S
C970 C969 1.334 . S
C970 C971 1.287 . S
C971 C970 1.287 . S
C971 C972 1.524 . S
C971 H974 0.999 . S
C972 H942 0.950 . S
C972 C971 1.524 . S
C972 C973 1.415 . S
C973 H943 0.950 . S
C973 C968 1.363 . S
C973 C972 1.415 . S
H974 C971 0.999 . S
H975 C956 0.913 . S
H976 C994 0.951 . S
H977 C996 0.951 . S
H978 C998 0.950 . S
H979 C999 0.950 . S
H980 C1001 0.950 . S
H981 C1004 0.950 . S
H982 C1005 0.950 . S
H983 C1007 0.950 . S
H984 C1008 0.950 . S
H985 C1009 0.951 . S
H986 C1011 0.951 . S
H987 C1013 0.950 . S
H988 C1014 0.950 . S
H989 C1016 0.950 . S
H990 C1019 0.950 . S
H991 C1020 0.950 . S
H992 C1022 0.950 . S
H993 C1023 0.950 . S
C994 H976 0.951 . S
C994 C995 1.366 . S
C994 C996 1.388 . S
C995 C994 1.366 . S
C995 C999 1.385 . S
C996 H977 0.951 . S
C996 C994 1.388 . S
C996 C997 1.366 . S
C997 C996 1.366 . S
C997 C998 1.414 . S
C997 C1000 1.499 . S
C998 H978 0.950 . S
C998 C997 1.414 . S
C998 C999 1.374 . S
C999 H979 0.950 . S
C999 C995 1.385 . S
C999 C998 1.374 . S
C1000 C997 1.499 . S
C1000 C1001 1.373 1_565 S
C1000 C1002 1.389 . S
C1001 H980 0.950 . S
C1001 C1000 1.373 1_545 S
C1001 C1017 1.377 . S
C1002 C1000 1.389 . S
C1002 C1003 1.524 . S
C1002 C1016 1.377 1_565 S
C1003 C1002 1.524 . S
C1003 C1004 1.397 . S
C1003 C1008 1.363 . S
C1004 H981 0.950 . S
C1004 C1003 1.397 . S
C1004 C1005 1.334 . S
C1005 H982 0.950 . S
C1005 C1004 1.334 . S
C1005 C1006 1.287 . S
C1006 C1005 1.287 . S
C1006 C1007 1.524 . S
C1006 H1025 0.913 . S
C1007 H983 0.950 . S
C1007 C1006 1.524 . S
C1007 C1008 1.415 . S
C1008 H984 0.950 . S
C1008 C1003 1.363 . S
C1008 C1007 1.415 . S
C1009 H985 0.951 . S
C1009 C1010 1.366 . S
C1009 C1011 1.388 . S
C1010 C1009 1.366 . S
C1010 C1014 1.385 . S
C1011 H986 0.951 . S
C1011 C1009 1.388 . S
C1011 C1012 1.366 . S
C1012 C1011 1.366 . S
C1012 C1013 1.414 . S
C1012 C1015 1.499 . S
C1013 H987 0.950 . S
C1013 C1012 1.414 . S
C1013 C1014 1.374 . S
C1014 H988 0.950 . S
C1014 C1010 1.385 . S
C1014 C1013 1.374 . S
C1015 C1012 1.499 . S
C1015 C1016 1.373 . S
C1015 C1017 1.389 . S
C1016 H989 0.950 . S
C1016 C1002 1.377 1_545 S
C1016 C1015 1.373 . S
C1017 C1001 1.377 . S
C1017 C1015 1.389 . S
C1017 C1018 1.524 . S
C1018 C1017 1.524 . S
C1018 C1019 1.397 . S
C1018 C1023 1.363 . S
C1019 H990 0.950 . S
C1019 C1018 1.397 . S
C1019 C1020 1.334 . S
C1020 H991 0.950 . S
C1020 C1019 1.334 . S
C1020 C1021 1.287 . S
C1021 C1020 1.287 . S
C1021 C1022 1.524 . S
C1021 H1024 0.999 . S
C1022 H992 0.950 . S
C1022 C1021 1.524 . S
C1022 C1023 1.415 . S
C1023 H993 0.950 . S
C1023 C1018 1.363 . S
C1023 C1022 1.415 . S
H1024 C1021 0.999 . S
H1025 C1006 0.913 . S
C145 C37 0.845 . S
C160 C3 0.850 . S
C195 C23 0.860 . S
C210 C9 0.857 . S
C245 C17 0.889 . S
C260 C31 0.891 . S
C295 C73 0.848 . S
C310 C51 0.839 . S
C345 C65 0.829 . S
C360 C45 0.834 . S
C395 C59 0.859 . S
C410 C79 0.851 . S
C445 C87 0.840 . S
C460 C121 0.833 . S
C495 C93 0.799 . S
C510 C107 0.798 . S
C545 C101 0.824 . S
C560 C115 0.825 . S
C595 C8 1.353 . S
C610 C106 1.354 . S
C645 C21 1.365 . S
C660 C119 1.368 . S
C695 C91 1.346 . S
C710 C36 1.371 . S
C745 C63 1.326 . S
C760 C35 1.325 . S
C795 C7 1.348 . S
C810 C77 1.346 . S
C845 C49 1.361 . S
C860 C22 1.383 . S
C895 C105 1.340 . S
C910 C78 1.364 . S
C945 C50 1.374 . S
C960 C120 1.373 . S
C995 C92 1.394 . S
C1010 C64 1.393 . S
