# Generated by pormake.
# Topology uoa, (4)-cn, num edge types: 1
# Building blocks:
#     Node 0, Type 0, BuildingBlock: NAWXER_clean_sbu_0, # of connection points: 4
#     Node 1, Type 0, BuildingBlock: NAWXER_clean_sbu_0, # of connection points: 4
#     Node 2, Type 0, BuildingBlock: NAWXER_clean_sbu_0, # of connection points: 4
#     Node 3, Type 0, BuildingBlock: NAWXER_clean_sbu_0, # of connection points: 4
#     Node 4, Type 0, BuildingBlock: NAWXER_clean_sbu_0, # of connection points: 4
#     Node 5, Type 0, BuildingBlock: NAWXER_clean_sbu_0, # of connection points: 4
#     Node 6, Type 0, BuildingBlock: NAWXER_clean_sbu_0, # of connection points: 4
#     Node 7, Type 0, BuildingBlock: NAWXER_clean_sbu_0, # of connection points: 4
#     Node 8, Type 0, BuildingBlock: NAWXER_clean_sbu_0, # of connection points: 4
#     Node 9, Type 0, BuildingBlock: NAWXER_clean_sbu_0, # of connection points: 4
#     Node 10, Type 0, BuildingBlock: NAWXER_clean_sbu_0, # of connection points: 4
#     Node 11, Type 0, BuildingBlock: NAWXER_clean_sbu_0, # of connection points: 4
#     Node 12, Type 0, BuildingBlock: NAWXER_clean_sbu_0, # of connection points: 4
#     Node 13, Type 0, BuildingBlock: NAWXER_clean_sbu_0, # of connection points: 4
#     Node 14, Type 0, BuildingBlock: NAWXER_clean_sbu_0, # of connection points: 4
#     Node 15, Type 0, BuildingBlock: NAWXER_clean_sbu_0, # of connection points: 4
#     Node 16, Type 0, BuildingBlock: NAWXER_clean_sbu_0, # of connection points: 4
#     Node 17, Type 0, BuildingBlock: NAWXER_clean_sbu_0, # of connection points: 4
#     Node 18, Type 0, BuildingBlock: NAWXER_clean_sbu_0, # of connection points: 4
#     Node 19, Type 0, BuildingBlock: NAWXER_clean_sbu_0, # of connection points: 4
#     Node 20, Type 0, BuildingBlock: NAWXER_clean_sbu_0, # of connection points: 4
#     Node 21, Type 0, BuildingBlock: NAWXER_clean_sbu_0, # of connection points: 4
#     Node 22, Type 0, BuildingBlock: NAWXER_clean_sbu_0, # of connection points: 4
#     Node 23, Type 0, BuildingBlock: NAWXER_clean_sbu_0, # of connection points: 4
#     Node 24, Type 0, BuildingBlock: NAWXER_clean_sbu_0, # of connection points: 4
#     Node 25, Type 0, BuildingBlock: NAWXER_clean_sbu_0, # of connection points: 4
#     Node 26, Type 0, BuildingBlock: NAWXER_clean_sbu_0, # of connection points: 4
#     Node 27, Type 0, BuildingBlock: NAWXER_clean_sbu_0, # of connection points: 4
#     Node 28, Type 0, BuildingBlock: NAWXER_clean_sbu_0, # of connection points: 4
#     Node 29, Type 0, BuildingBlock: NAWXER_clean_sbu_0, # of connection points: 4
#     Node 30, Type 0, BuildingBlock: NAWXER_clean_sbu_0, # of connection points: 4
#     Node 31, Type 0, BuildingBlock: NAWXER_clean_sbu_0, # of connection points: 4
#     Edge 32, Type (0, 0), BuildingBlock: KIFKEQ_clean_linker_1, # of connection points: 2
#     Edge 33, Type (0, 0), BuildingBlock: KIFKEQ_clean_linker_1, # of connection points: 2
#     Edge 34, Type (0, 0), BuildingBlock: KIFKEQ_clean_linker_1, # of connection points: 2
#     Edge 35, Type (0, 0), BuildingBlock: KIFKEQ_clean_linker_1, # of connection points: 2
#     Edge 36, Type (0, 0), BuildingBlock: KIFKEQ_clean_linker_1, # of connection points: 2
#     Edge 37, Type (0, 0), BuildingBlock: KIFKEQ_clean_linker_1, # of connection points: 2
#     Edge 38, Type (0, 0), BuildingBlock: KIFKEQ_clean_linker_1, # of connection points: 2
#     Edge 39, Type (0, 0), BuildingBlock: KIFKEQ_clean_linker_1, # of connection points: 2
#     Edge 40, Type (0, 0), BuildingBlock: KIFKEQ_clean_linker_1, # of connection points: 2
#     Edge 41, Type (0, 0), BuildingBlock: KIFKEQ_clean_linker_1, # of connection points: 2
#     Edge 42, Type (0, 0), BuildingBlock: KIFKEQ_clean_linker_1, # of connection points: 2
#     Edge 43, Type (0, 0), BuildingBlock: KIFKEQ_clean_linker_1, # of connection points: 2
#     Edge 44, Type (0, 0), BuildingBlock: KIFKEQ_clean_linker_1, # of connection points: 2
#     Edge 45, Type (0, 0), BuildingBlock: KIFKEQ_clean_linker_1, # of connection points: 2
#     Edge 46, Type (0, 0), BuildingBlock: KIFKEQ_clean_linker_1, # of connection points: 2
#     Edge 47, Type (0, 0), BuildingBlock: KIFKEQ_clean_linker_1, # of connection points: 2
#     Edge 48, Type (0, 0), BuildingBlock: KIFKEQ_clean_linker_1, # of connection points: 2
#     Edge 49, Type (0, 0), BuildingBlock: KIFKEQ_clean_linker_1, # of connection points: 2
#     Edge 50, Type (0, 0), BuildingBlock: KIFKEQ_clean_linker_1, # of connection points: 2
#     Edge 51, Type (0, 0), BuildingBlock: KIFKEQ_clean_linker_1, # of connection points: 2
#     Edge 52, Type (0, 0), BuildingBlock: KIFKEQ_clean_linker_1, # of connection points: 2
#     Edge 53, Type (0, 0), BuildingBlock: KIFKEQ_clean_linker_1, # of connection points: 2
#     Edge 54, Type (0, 0), BuildingBlock: KIFKEQ_clean_linker_1, # of connection points: 2
#     Edge 55, Type (0, 0), BuildingBlock: KIFKEQ_clean_linker_1, # of connection points: 2
#     Edge 56, Type (0, 0), BuildingBlock: KIFKEQ_clean_linker_1, # of connection points: 2
#     Edge 57, Type (0, 0), BuildingBlock: KIFKEQ_clean_linker_1, # of connection points: 2
#     Edge 58, Type (0, 0), BuildingBlock: KIFKEQ_clean_linker_1, # of connection points: 2
#     Edge 59, Type (0, 0), BuildingBlock: KIFKEQ_clean_linker_1, # of connection points: 2
#     Edge 60, Type (0, 0), BuildingBlock: KIFKEQ_clean_linker_1, # of connection points: 2
#     Edge 61, Type (0, 0), BuildingBlock: KIFKEQ_clean_linker_1, # of connection points: 2
#     Edge 62, Type (0, 0), BuildingBlock: KIFKEQ_clean_linker_1, # of connection points: 2
#     Edge 63, Type (0, 0), BuildingBlock: KIFKEQ_clean_linker_1, # of connection points: 2
#     Edge 64, Type (0, 0), BuildingBlock: KIFKEQ_clean_linker_1, # of connection points: 2
#     Edge 65, Type (0, 0), BuildingBlock: KIFKEQ_clean_linker_1, # of connection points: 2
#     Edge 66, Type (0, 0), BuildingBlock: KIFKEQ_clean_linker_1, # of connection points: 2
#     Edge 67, Type (0, 0), BuildingBlock: KIFKEQ_clean_linker_1, # of connection points: 2
#     Edge 68, Type (0, 0), BuildingBlock: KIFKEQ_clean_linker_1, # of connection points: 2
#     Edge 69, Type (0, 0), BuildingBlock: KIFKEQ_clean_linker_1, # of connection points: 2
#     Edge 70, Type (0, 0), BuildingBlock: KIFKEQ_clean_linker_1, # of connection points: 2
#     Edge 71, Type (0, 0), BuildingBlock: KIFKEQ_clean_linker_1, # of connection points: 2
#     Edge 72, Type (0, 0), BuildingBlock: KIFKEQ_clean_linker_1, # of connection points: 2
#     Edge 73, Type (0, 0), BuildingBlock: KIFKEQ_clean_linker_1, # of connection points: 2
#     Edge 74, Type (0, 0), BuildingBlock: KIFKEQ_clean_linker_1, # of connection points: 2
#     Edge 75, Type (0, 0), BuildingBlock: KIFKEQ_clean_linker_1, # of connection points: 2
#     Edge 76, Type (0, 0), BuildingBlock: KIFKEQ_clean_linker_1, # of connection points: 2
#     Edge 77, Type (0, 0), BuildingBlock: KIFKEQ_clean_linker_1, # of connection points: 2
#     Edge 78, Type (0, 0), BuildingBlock: KIFKEQ_clean_linker_1, # of connection points: 2
#     Edge 79, Type (0, 0), BuildingBlock: KIFKEQ_clean_linker_1, # of connection points: 2
#     Edge 80, Type (0, 0), BuildingBlock: KIFKEQ_clean_linker_1, # of connection points: 2
#     Edge 81, Type (0, 0), BuildingBlock: KIFKEQ_clean_linker_1, # of connection points: 2
#     Edge 82, Type (0, 0), BuildingBlock: KIFKEQ_clean_linker_1, # of connection points: 2
#     Edge 83, Type (0, 0), BuildingBlock: KIFKEQ_clean_linker_1, # of connection points: 2
#     Edge 84, Type (0, 0), BuildingBlock: KIFKEQ_clean_linker_1, # of connection points: 2
#     Edge 85, Type (0, 0), BuildingBlock: KIFKEQ_clean_linker_1, # of connection points: 2
#     Edge 86, Type (0, 0), BuildingBlock: KIFKEQ_clean_linker_1, # of connection points: 2
#     Edge 87, Type (0, 0), BuildingBlock: KIFKEQ_clean_linker_1, # of connection points: 2
#     Edge 88, Type (0, 0), BuildingBlock: KIFKEQ_clean_linker_1, # of connection points: 2
#     Edge 89, Type (0, 0), BuildingBlock: KIFKEQ_clean_linker_1, # of connection points: 2
#     Edge 90, Type (0, 0), BuildingBlock: KIFKEQ_clean_linker_1, # of connection points: 2
#     Edge 91, Type (0, 0), BuildingBlock: KIFKEQ_clean_linker_1, # of connection points: 2
#     Edge 92, Type (0, 0), BuildingBlock: KIFKEQ_clean_linker_1, # of connection points: 2
#     Edge 93, Type (0, 0), BuildingBlock: KIFKEQ_clean_linker_1, # of connection points: 2
#     Edge 94, Type (0, 0), BuildingBlock: KIFKEQ_clean_linker_1, # of connection points: 2
#     Edge 95, Type (0, 0), BuildingBlock: KIFKEQ_clean_linker_1, # of connection points: 2
# Relax obj value: 0.037
# Max RMSD: 0.224
# Mean RMSD: 0.224
data_MOF--net-uoa--node1-NAWXER_clean_sbu_0--edge1-KIFKEQ_clean_linker_1
_symmetry_space_group_name_H-M    P1
_symmetry_Int_Tables_number       1
_symmetry_cell_setting            triclinic
loop_
_symmetry_equiv_pos_as_xyz
'x, y, z'
_cell_length_a     77.05066
_cell_length_b     77.101477
_cell_length_c     29.586471
_cell_angle_alpha  90.007928
_cell_angle_beta   89.993749
_cell_angle_gamma 89.961978
loop_
_atom_site_label
_atom_site_type_symbol
_atom_site_fract_x
_atom_site_fract_y
_atom_site_fract_z
_atom_type_partial_charge
C0 C 0.00781 0.10038 0.97681 0.0
C1 C 0.00019 0.09369 0.13932 0.0
O2 O 0.02041 0.09188 0.99455 0.0
Zn3 Zn 0.02759 0.08346 0.06162 0.0
O4 O 0.99585 0.10622 1.0021 0.0
Zn5 Zn 0.00441 0.09717 0.05841 0.0
O6 O 0.02721 0.11282 0.07267 0.0
O7 O 0.04906 0.09435 0.07291 0.0
O8 O 0.99048 0.10148 0.11122 0.0
O9 O 0.01413 0.08628 0.12543 0.0
O10 O 0.02923 0.05925 0.05422 0.0
O11 O 0.00241 0.06909 0.04832 0.0
C12 C 0.04346 0.10968 0.07778 0.0
C13 C 0.01326 0.05641 0.04724 0.0
C14 C 0.18605 0.76605 0.29368 0.0
C15 C 0.13063 0.79383 0.31713 0.0
O16 O 0.17382 0.75474 0.29509 0.0
Zn17 Zn 0.14576 0.75529 0.3033 0.0
O18 O 0.18246 0.78199 0.29854 0.0
Zn19 Zn 0.15803 0.77937 0.30422 0.0
O20 O 0.1549 0.76701 0.36966 0.0
O21 O 0.14233 0.74178 0.35687 0.0
O22 O 0.14551 0.80036 0.31064 0.0
O23 O 0.12871 0.7773 0.31539 0.0
O24 O 0.13764 0.74534 0.24752 0.0
O25 O 0.15083 0.77039 0.238 0.0
C26 C 0.14862 0.75267 0.38455 0.0
C27 C 0.14319 0.7571 0.22126 0.0
C28 C 0.48885 0.89909 0.63577 0.0
C29 C 0.48368 0.89355 0.47249 0.0
O30 O 0.47462 0.90569 0.62108 0.0
Zn31 Zn 0.46213 0.90918 0.55624 0.0
O32 O 0.49951 0.89248 0.60793 0.0
Zn33 Zn 0.48587 0.89606 0.55435 0.0
O34 O 0.48716 0.92391 0.54434 0.0
O35 O 0.46038 0.93378 0.55135 0.0
O36 O 0.49528 0.88747 0.49853 0.0
O37 O 0.47071 0.90169 0.48951 0.0
O38 O 0.44076 0.89726 0.56329 0.0
O39 O 0.46342 0.87982 0.56688 0.0
C40 C 0.47636 0.93661 0.54408 0.0
C41 C 0.44694 0.8822 0.56927 0.0
C42 C 0.30483 0.22741 0.80691 0.0
C43 C 0.3589 0.19828 0.83591 0.0
O44 O 0.31732 0.23845 0.8077 0.0
Zn45 Zn 0.34528 0.23719 0.8184 0.0
O46 O 0.30795 0.21155 0.81464 0.0
Zn47 Zn 0.33227 0.2136 0.82136 0.0
O48 O 0.33544 0.22655 0.88561 0.0
O49 O 0.34884 0.2512 0.87154 0.0
O50 O 0.34368 0.19235 0.83117 0.0
O51 O 0.36163 0.21464 0.83155 0.0
O52 O 0.35408 0.2462 0.76235 0.0
O53 O 0.34041 0.2213 0.75435 0.0
C54 C 0.34209 0.24081 0.89977 0.0
C55 C 0.34853 0.23419 0.73684 0.0
C56 C 0.04549 0.87916 0.44458 0.0
C57 C 0.01739 0.93429 0.47009 0.0
O58 O 0.02896 0.87715 0.44673 0.0
Zn59 Zn 0.00688 0.894 0.45967 0.0
O60 O 0.05198 0.89404 0.45122 0.0
Zn61 Zn 0.03092 0.90642 0.45853 0.0
O62 O 0.02223 0.89886 0.52477 0.0
O63 O -0.00281 0.8856 0.51545 0.0
O64 O 0.03336 0.93085 0.46481 0.0
O65 O 0.00617 0.92198 0.46861 0.0
O66 O 0.99322 0.89068 0.40627 0.0
O67 O 0.01838 0.90341 0.3933 0.0
C68 C 0.00903 0.89107 0.5416 0.0
C69 C 0.00403 0.8971 0.37852 0.0
C70 C 0.35233 0.75882 0.7895 0.0
C71 C 0.34672 0.75184 0.62656 0.0
O72 O 0.3436 0.77127 0.77184 0.0
Zn73 Zn 0.33564 0.77882 0.70462 0.0
O74 O 0.35875 0.74722 0.76404 0.0
Zn75 Zn 0.34977 0.75575 0.70765 0.0
O76 O 0.36505 0.77869 0.69385 0.0
O77 O 0.34666 0.80059 0.69559 0.0
O78 O 0.3544 0.74205 0.65468 0.0
O79 O 0.33917 0.76568 0.64053 0.0
O80 O 0.31112 0.77973 0.70984 0.0
O81 O 0.32181 0.75329 0.71707 0.0
C82 C 0.36199 0.795 0.69018 0.0
C83 C 0.30876 0.76369 0.71696 0.0
C84 C 0.48551 0.10233 0.02605 0.0
C85 C 0.49426 0.0972 0.86331 0.0
O86 O 0.47342 0.09341 0.00732 0.0
Zn87 Zn 0.4669 0.08536 0.93917 0.0
O88 O 0.49726 0.10903 1.00155 0.0
Zn89 Zn 0.48945 0.10009 0.94449 0.0
O90 O 0.46608 0.11488 0.93082 0.0
O91 O 0.44505 0.09555 0.92766 0.0
O92 O 0.50347 0.10526 0.892 0.0
O93 O 0.48058 0.0892 0.87646 0.0
O94 O 0.46644 0.06095 0.9441 0.0
O95 O 0.49253 0.07214 0.95437 0.0
C96 C 0.45002 0.11116 0.92469 0.0
C97 C 0.48239 0.0589 0.95313 0.0
C98 C 0.14732 0.24136 0.11837 0.0
C99 C 0.14057 0.2335 0.28088 0.0
O100 O 0.15471 0.22739 0.13204 0.0
Zn101 Zn 0.15748 0.21382 0.19571 0.0
O102 O 0.13956 0.25101 0.14665 0.0
Zn103 Zn 0.14377 0.23695 0.19928 0.0
O104 O 0.17185 0.23885 0.21001 0.0
O105 O 0.1817 0.21209 0.20299 0.0
O106 O 0.13464 0.24541 0.2556 0.0
O107 O 0.14909 0.22093 0.26307 0.0
O108 O 0.14662 0.19239 0.18416 0.0
O109 O 0.1281 0.21419 0.18457 0.0
C110 C 0.18453 0.22799 0.2108 0.0
C111 C 0.13128 0.19797 0.17923 0.0
C112 C 0.98458 0.89232 0.04171 0.0
C113 C 0.98956 0.89636 0.8782 0.0
O114 O 0.9963 0.88631 0.01594 0.0
Zn115 Zn 0.98672 0.89428 0.95977 0.0
O116 O 0.97148 0.90016 0.02435 0.0
Zn117 Zn 0.96284 0.907 0.95726 0.0
O118 O 0.94165 0.89484 0.95125 0.0
O119 O 0.96445 0.87756 0.94845 0.0
O120 O 0.97527 0.90294 0.89249 0.0
O121 O 0.00036 0.89026 0.90645 0.0
O122 O 0.98765 0.92228 0.96764 0.0
O123 O 0.96067 0.93155 0.96044 0.0
C124 C 0.94795 0.87978 0.94617 0.0
C125 C 0.9766 0.93478 0.96707 0.0
C126 C 0.85012 0.23234 0.78862 0.0
C127 C 0.84657 0.23929 0.6249 0.0
O128 O 0.8575 0.2436 0.76393 0.0
Zn129 Zn 0.84867 0.23551 0.70656 0.0
O130 O 0.84121 0.22022 0.77009 0.0
Zn131 Zn 0.83435 0.21254 0.70226 0.0
O132 O 0.84531 0.19062 0.6949 0.0
O133 O 0.86383 0.21239 0.69324 0.0
O134 O 0.83915 0.22534 0.6385 0.0
O135 O 0.8534 0.24943 0.6537 0.0
O136 O 0.8207 0.23816 0.71505 0.0
O137 O 0.80973 0.21197 0.70499 0.0
C138 C 0.86069 0.19609 0.68985 0.0
C139 C 0.80753 0.22795 0.71345 0.0
C140 C 0.5031 0.09503 0.36317 0.0
C141 C 0.51147 0.0993 0.52653 0.0
O142 O 0.49315 0.10202 0.39219 0.0
Zn143 Zn 0.50739 0.09732 0.44475 0.0
O144 O 0.5171 0.08759 0.37644 0.0
Zn145 Zn 0.53039 0.08315 0.43942 0.0
O146 O 0.53134 0.05875 0.44401 0.0
O147 O 0.50493 0.06927 0.45344 0.0
O148 O 0.52355 0.09055 0.50729 0.0
O149 O 0.49965 0.10618 0.50257 0.0
O150 O 0.53049 0.11263 0.43079 0.0
O151 O 0.55207 0.09382 0.42927 0.0
C152 C 0.51541 0.05629 0.45252 0.0
C153 C 0.5467 0.10928 0.4254 0.0
C154 C 0.63037 0.79505 0.18206 0.0
C155 C 0.68345 0.76368 0.20956 0.0
O156 O 0.64582 0.80051 0.18554 0.0
Zn157 Zn 0.65674 0.77881 0.1963 0.0
O158 O 0.62717 0.77888 0.18782 0.0
Zn159 Zn 0.64221 0.75603 0.20331 0.0
O160 O 0.63344 0.74903 0.26198 0.0
O161 O 0.64968 0.77252 0.26486 0.0
O162 O 0.67029 0.75345 0.21193 0.0
O163 O 0.68124 0.77955 0.19981 0.0
O164 O 0.65266 0.76461 0.13441 0.0
O165 O 0.63709 0.74152 0.15145 0.0
C166 C 0.64075 0.76083 0.2851 0.0
C167 C 0.64486 0.7507 0.12208 0.0
C168 C 0.94666 0.10844 0.57456 0.0
C169 C 0.97827 0.05491 0.55335 0.0
O170 O 0.94102 0.09308 0.57037 0.0
Zn171 Zn 0.96287 0.08187 0.5632 0.0
O172 O 0.96299 0.11139 0.5708 0.0
Zn173 Zn 0.986 0.09603 0.5581 0.0
O174 O 0.99403 0.10439 0.50018 0.0
O175 O 0.97044 0.08832 0.4952 0.0
O176 O 0.98851 0.06804 0.55116 0.0
O177 O 0.96227 0.05723 0.56149 0.0
O178 O 0.97575 0.08706 0.62651 0.0
O179 O -6e-05 0.10108 0.61081 0.0
C180 C 0.98258 0.09701 0.47605 0.0
C181 C 0.98974 0.0945 0.63985 0.0
C182 C 0.6508 0.2407 0.39077 0.0
C183 C 0.6447 0.23397 0.22792 0.0
O184 O 0.64328 0.2506 0.36263 0.0
Zn185 Zn 0.64769 0.23686 0.30966 0.0
O186 O 0.6582 0.22679 0.37671 0.0
Zn187 Zn 0.66136 0.2137 0.3124 0.0
O188 O 0.68563 0.21208 0.30569 0.0
O189 O 0.67582 0.23889 0.30005 0.0
O190 O 0.65317 0.22127 0.24528 0.0
O191 O 0.63875 0.24572 0.25364 0.0
O192 O 0.63196 0.21398 0.32307 0.0
O193 O 0.65047 0.19217 0.3226 0.0
C194 C 0.68851 0.22805 0.29903 0.0
C195 C 0.63512 0.19772 0.32763 0.0
C196 C 0.50422 0.90054 0.13628 0.0
C197 C 0.5085 0.89623 0.97275 0.0
O198 O 0.4932 0.89482 0.10811 0.0
Zn199 Zn 0.50675 0.89852 0.05477 0.0
O200 O 0.51869 0.9067 0.12187 0.0
Zn201 Zn 0.53099 0.91033 0.05639 0.0
O202 O 0.53406 0.93469 0.05209 0.0
O203 O 0.50667 0.9266 0.0475 0.0
O204 O 0.52194 0.90359 0.98965 0.0
O205 O 0.49662 0.89085 0.9989 0.0
O206 O 0.52857 0.88104 0.06532 0.0
O207 O 0.55185 0.89763 0.0616 0.0
C208 C 0.51822 0.93861 0.04688 0.0
C209 C 0.54514 0.88277 0.06684 0.0
C210 C 0.84226 0.75464 0.89336 0.0
C211 C 0.84699 0.75931 0.72986 0.0
O212 O 0.84805 0.74364 0.86521 0.0
Zn213 Zn 0.8447 0.75738 0.81194 0.0
O214 O 0.83631 0.7692 0.87897 0.0
Zn215 Zn 0.83309 0.78176 0.81379 0.0
O216 O 0.80873 0.78515 0.80921 0.0
O217 O 0.81662 0.7577 0.80435 0.0
O218 O 0.83975 0.77278 0.74702 0.0
O219 O 0.85231 0.74734 0.75581 0.0
O220 O 0.86241 0.77889 0.82344 0.0
O221 O 0.84612 0.80238 0.81983 0.0
C222 C 0.80469 0.76935 0.80376 0.0
C223 C 0.86089 0.79546 0.82537 0.0
C224 C 0.51111 0.59808 0.4824 0.0
C225 C 0.50513 0.59263 0.64559 0.0
O226 O 0.52407 0.58997 0.49965 0.0
Zn227 Zn 0.53208 0.58221 0.56681 0.0
O228 O 0.4993 0.60386 0.50824 0.0
Zn229 Zn 0.50854 0.59529 0.56421 0.0
O230 O 0.5312 0.61156 0.57678 0.0
O231 O 0.55344 0.59354 0.57557 0.0
O232 O 0.49468 0.59924 0.61724 0.0
O233 O 0.51935 0.58582 0.63148 0.0
O234 O 0.53408 0.55786 0.5612 0.0
O235 O 0.50714 0.56725 0.555 0.0
C236 C 0.54758 0.60876 0.58064 0.0
C237 C 0.51816 0.55473 0.55444 0.0
C238 C 0.63243 0.2955 0.82316 0.0
C239 C 0.68751 0.26672 0.80341 0.0
O240 O 0.6302 0.27903 0.82063 0.0
Zn241 Zn 0.64685 0.25673 0.80927 0.0
O242 O 0.64754 0.30174 0.81866 0.0
Zn243 Zn 0.65974 0.28052 0.81276 0.0
O244 O 0.6536 0.2721 0.74538 0.0
O245 O 0.63905 0.24763 0.75181 0.0
O246 O 0.68422 0.28266 0.80966 0.0
O247 O 0.67503 0.25566 0.80289 0.0
O248 O 0.64252 0.24295 0.86241 0.0
O249 O 0.65549 0.26781 0.87707 0.0
C250 C 0.64569 0.2593 0.72695 0.0
C251 C 0.64875 0.25355 0.89098 0.0
C252 C 0.98554 0.39376 0.97162 0.0
C253 C 0.99026 0.39954 0.13484 0.0
O254 O 0.97223 0.40139 0.98845 0.0
Zn255 Zn 0.96337 0.40872 0.05476 0.0
O256 O -0.00259 0.38836 0.99779 0.0
Zn257 Zn 0.98753 0.39657 0.05357 0.0
O258 O 0.9656 0.37946 0.06584 0.0
O259 O 0.94243 0.39619 0.06145 0.0
O260 O 0.00116 0.3933 0.10706 0.0
O261 O 0.97584 0.40571 0.12008 0.0
O262 O 0.96059 0.43309 0.04881 0.0
O263 O 0.98789 0.42457 0.0447 0.0
C264 C 0.94905 0.38133 0.06772 0.0
C265 C 0.9765 0.43674 0.04335 0.0
C266 C 0.8414 0.73976 0.39309 0.0
C267 C 0.84693 0.73427 0.22993 0.0
O268 O 0.83472 0.72555 0.37867 0.0
Zn269 Zn 0.83135 0.71292 0.31391 0.0
O270 O 0.84801 0.75031 0.36502 0.0
Zn271 Zn 0.84422 0.73657 0.31175 0.0
O272 O 0.81613 0.73774 0.3027 0.0
O273 O 0.80701 0.7107 0.30826 0.0
O274 O 0.85267 0.74603 0.25591 0.0
O275 O 0.83895 0.72121 0.24701 0.0
O276 O 0.84298 0.6917 0.32234 0.0
O277 O 0.86076 0.7141 0.32405 0.0
C278 C 0.8037 0.72661 0.30192 0.0
C279 C 0.85815 0.69769 0.32763 0.0
C280 C 0.50929 0.39412 0.03243 0.0
C281 C 0.50256 0.39826 0.86873 0.0
O282 O 0.52186 0.40234 0.01388 0.0
Zn283 Zn 0.52981 0.40905 0.94646 0.0
O284 O 0.49751 0.38755 0.00776 0.0
Zn285 Zn 0.50615 0.39595 0.95034 0.0
O286 O 0.52859 0.37959 0.93744 0.0
O287 O 0.55114 0.39716 0.93928 0.0
O288 O 0.49211 0.39187 0.89744 0.0
O289 O 0.51685 0.40502 0.88242 0.0
O290 O 0.53177 0.43347 0.95062 0.0
O291 O 0.50487 0.42408 0.9584 0.0
C292 C 0.54503 0.38202 0.93441 0.0
C293 C 0.51587 0.43662 0.95798 0.0
C294 C 0.84751 0.25215 0.12477 0.0
C295 C 0.85277 0.25873 0.28801 0.0
O296 O 0.84036 0.26623 0.13864 0.0
Zn297 Zn 0.83707 0.2794 0.20284 0.0
O298 O 0.85478 0.24212 0.15304 0.0
Zn299 Zn 0.85046 0.25594 0.20601 0.0
O300 O 0.82239 0.25443 0.21506 0.0
O301 O 0.81258 0.2812 0.20751 0.0
O302 O 0.85896 0.24701 0.26252 0.0
O303 O 0.8445 0.27148 0.27029 0.0
O304 O 0.84879 0.30079 0.19442 0.0
O305 O 0.86655 0.27839 0.19285 0.0
C306 C 0.80969 0.26525 0.21475 0.0
C307 C 0.86397 0.29478 0.18937 0.0
C308 C 0.94824 0.61155 0.429 0.0
C309 C 0.97925 0.55887 0.46178 0.0
O310 O 0.9644 0.61499 0.43455 0.0
Zn311 Zn 0.98741 0.59975 0.44988 0.0
O312 O 0.94289 0.59615 0.43421 0.0
Zn313 Zn 0.96449 0.58564 0.44643 0.0
O314 O 0.97131 0.59434 0.51354 0.0
O315 O 0.9956 0.6091 0.50624 0.0
O316 O 0.96326 0.56142 0.45432 0.0
O317 O 0.98988 0.57174 0.46066 0.0
O318 O 0.00146 0.60409 0.39726 0.0
O319 O 0.97814 0.58845 0.3829 0.0
C320 C 0.9837 0.60309 0.53141 0.0
C321 C 0.99198 0.59604 0.36913 0.0
C322 C 0.64522 0.74479 0.62226 0.0
C323 C 0.6418 0.73386 0.78495 0.0
O324 O 0.65384 0.73133 0.63421 0.0
Zn325 Zn 0.65866 0.7171 0.69542 0.0
O326 O 0.63694 0.75339 0.65188 0.0
Zn327 Zn 0.64299 0.73899 0.70341 0.0
O328 O 0.671 0.743 0.71206 0.0
O329 O 0.68306 0.71749 0.6986 0.0
O330 O 0.63392 0.74538 0.76207 0.0
O331 O 0.65129 0.72266 0.76448 0.0
O332 O 0.6491 0.69501 0.68278 0.0
O333 O 0.6291 0.71535 0.68787 0.0
C334 C 0.6846 0.73337 0.70899 0.0
C335 C 0.63332 0.69951 0.68039 0.0
C336 C 0.48321 0.39208 0.53183 0.0
C337 C 0.49108 0.39698 0.3689 0.0
O338 O 0.4947 0.38519 0.50682 0.0
Zn339 Zn 0.48662 0.39418 0.45011 0.0
O340 O 0.47105 0.40109 0.51361 0.0
Zn341 Zn 0.46413 0.40908 0.44562 0.0
O342 O 0.44215 0.39901 0.43495 0.0
O343 O 0.46313 0.37958 0.43687 0.0
O344 O 0.47748 0.40508 0.38239 0.0
O345 O 0.5004 0.38892 0.39737 0.0
O346 O 0.48988 0.42211 0.45972 0.0
O347 O 0.46381 0.43351 0.45033 0.0
C348 C 0.44705 0.38339 0.43136 0.0
C349 C 0.47982 0.43543 0.45876 0.0
C350 C 0.30743 0.72813 0.21329 0.0
C351 C 0.36136 0.69718 0.19236 0.0
O352 O 0.30997 0.71215 0.20546 0.0
Zn353 Zn 0.3346 0.71312 0.20354 0.0
O354 O 0.32042 0.73856 0.21522 0.0
Zn355 Zn 0.34847 0.73638 0.20809 0.0
O356 O 0.35327 0.75027 0.15523 0.0
O357 O 0.33951 0.7259 0.13991 0.0
O358 O 0.36416 0.71354 0.19572 0.0
O359 O 0.34604 0.69142 0.19672 0.0
O360 O 0.34104 0.72097 0.2714 0.0
O361 O 0.35683 0.74471 0.26567 0.0
C362 C 0.34675 0.73996 0.12636 0.0
C363 C 0.34962 0.73327 0.29015 0.0
C364 C 0.0449 0.61088 0.9334 0.0
C365 C 0.01352 0.55736 0.95492 0.0
O366 O 0.05052 0.5955 0.93744 0.0
Zn367 Zn 0.02874 0.58434 0.94474 0.0
O368 O 0.02858 0.61388 0.9373 0.0
Zn369 Zn 0.0056 0.59846 0.95018 0.0
O370 O -0.00235 0.6068 0.00827 0.0
O371 O 0.02129 0.59075 0.01288 0.0
O372 O 0.00321 0.57044 0.95731 0.0
O373 O 0.02947 0.55973 0.94636 0.0
O374 O 0.01578 0.58953 0.88158 0.0
O375 O 0.99155 0.60347 0.89754 0.0
C376 C 0.00917 0.59941 0.03222 0.0
C377 C 0.00175 0.59694 0.86838 0.0
C378 C 0.13209 0.29547 0.68306 0.0
C379 C 0.18558 0.26414 0.70548 0.0
O380 O 0.14747 0.30106 0.68728 0.0
Zn381 Zn 0.15862 0.27928 0.69451 0.0
O382 O 0.12907 0.27916 0.68677 0.0
Zn383 Zn 0.14449 0.25619 0.6997 0.0
O384 O 0.13602 0.24819 0.75761 0.0
O385 O 0.1521 0.27176 0.76262 0.0
O386 O 0.17249 0.25384 0.70761 0.0
O387 O 0.18323 0.28006 0.69653 0.0
O388 O 0.15361 0.26634 0.63119 0.0
O389 O 0.13966 0.24214 0.64696 0.0
C390 C 0.14341 0.25963 0.78176 0.0
C391 C 0.14627 0.25231 0.61789 0.0
C392 C 0.49109 0.59439 0.14552 0.0
C393 C 0.48519 0.59955 0.98211 0.0
O394 O 0.50158 0.601 0.11726 0.0
Zn395 Zn 0.48777 0.59714 0.06398 0.0
O396 O 0.47689 0.58761 0.13129 0.0
Zn397 Zn 0.46426 0.58375 0.06674 0.0
O398 O 0.46283 0.55915 0.06216 0.0
O399 O 0.48944 0.56927 0.05393 0.0
O400 O 0.4724 0.59127 0.99959 0.0
O401 O 0.49684 0.60576 0.00777 0.0
O402 O 0.46506 0.61315 0.07665 0.0
O403 O 0.44272 0.5953 0.07404 0.0
C404 C 0.47878 0.55647 0.05417 0.0
C405 C 0.44863 0.61049 0.07942 0.0
C406 C 0.14943 0.73728 0.88482 0.0
C407 C 0.14505 0.73297 0.72137 0.0
O408 O 0.14329 0.74816 0.85686 0.0
Zn409 Zn 0.14728 0.73476 0.80345 0.0
O410 O 0.15598 0.72301 0.87019 0.0
Zn411 Zn 0.15976 0.71078 0.80471 0.0
O412 O 0.18425 0.70841 0.80003 0.0
O413 O 0.17536 0.73559 0.79651 0.0
O414 O 0.15275 0.71972 0.73822 0.0
O415 O 0.13934 0.74469 0.74757 0.0
O416 O 0.13041 0.71257 0.81453 0.0
O417 O 0.14745 0.68963 0.81043 0.0
C418 C 0.18771 0.72439 0.79554 0.0
C419 C 0.13247 0.69605 0.81623 0.0
C420 C 0.0468 0.38332 0.56732 0.0
C421 C 0.01764 0.43808 0.54565 0.0
O422 O 0.05304 0.39839 0.56213 0.0
Zn423 Zn 0.03171 0.41043 0.55593 0.0
O424 O 0.03032 0.38104 0.56496 0.0
Zn425 Zn 0.00792 0.39753 0.55352 0.0
O426 O -0.00159 0.38937 0.4975 0.0
O427 O 0.02311 0.40337 0.48887 0.0
O428 O 0.00673 0.42548 0.54524 0.0
O429 O 0.03359 0.43503 0.55242 0.0
O430 O 0.01931 0.40634 0.62077 0.0
O431 O 0.99432 0.39349 0.60684 0.0
C432 C 0.01008 0.3954 0.47163 0.0
C433 C 0.00507 0.39967 0.63508 0.0
C434 C 0.34721 0.2599 0.23679 0.0
C435 C 0.34265 0.25299 0.40006 0.0
O436 O 0.35361 0.24819 0.26194 0.0
Zn437 Zn 0.34491 0.25675 0.31843 0.0
O438 O 0.33867 0.27243 0.25483 0.0
Zn439 Zn 0.33096 0.27984 0.32266 0.0
O440 O 0.3417 0.30151 0.33183 0.0
O441 O 0.36043 0.27985 0.33093 0.0
O442 O 0.33538 0.26701 0.38639 0.0
O443 O 0.34942 0.2428 0.37133 0.0
O444 O 0.317 0.2545 0.30877 0.0
O445 O 0.3064 0.28082 0.31874 0.0
C446 C 0.35716 0.29609 0.33565 0.0
C447 C 0.30399 0.26492 0.30995 0.0
H448 H 0.01938 0.10633 0.68135 0.0
H449 H 0.96815 0.08621 0.70948 0.0
H450 H 0.0246 0.10948 0.76261 0.0
H451 H 0.9734 0.08933 0.7901 0.0
H452 H 0.98082 0.11359 0.92764 0.0
H453 H 0.97727 0.11327 0.84576 0.0
H454 H 0.02807 0.09027 0.83114 0.0
H455 H 0.03172 0.09065 0.91314 0.0
C456 C 0.00926 0.10255 0.70478 0.0
C457 C 0.99335 0.09601 0.6889 0.0
C458 C 0.01227 0.10432 0.75126 0.0
C459 C -0.00065 0.09978 0.78269 0.0
C460 C 0.98351 0.0932 0.76673 0.0
C461 C 0.98056 0.09128 0.72046 0.0
C462 C 0.99134 0.10866 0.90702 0.0
C463 C 0.0065 0.10203 0.92701 0.0
C464 C 0.98925 0.10838 0.86011 0.0
C465 C 0.00232 0.10157 0.83207 0.0
C466 C 0.01781 0.09566 0.85186 0.0
C467 C 0.01985 0.09582 0.89885 0.0
H468 H 0.13786 0.76667 0.92707 0.0
H469 H 0.15831 0.71547 0.95388 0.0
H470 H 0.13497 0.77174 0.00811 0.0
H471 H 0.15559 0.72066 0.03484 0.0
H472 H 0.15269 0.78036 0.1562 0.0
H473 H 0.15376 0.77579 0.07477 0.0
H474 H 0.13257 0.72439 0.09233 0.0
H475 H 0.13166 0.72884 0.17396 0.0
C476 C 0.14182 0.75653 0.95022 0.0
C477 C 0.14834 0.74067 0.93399 0.0
C478 C 0.1402 0.75946 0.99664 0.0
C479 C 0.14498 0.74657 0.02784 0.0
C480 C 0.15156 0.73075 0.01162 0.0
C481 C 0.15326 0.72784 0.96522 0.0
C482 C 0.1481 0.76813 0.14272 0.0
C483 C 0.14216 0.75494 0.17162 0.0
C484 C 0.14866 0.76555 0.09601 0.0
C485 C 0.14337 0.74969 0.07717 0.0
C486 C 0.13698 0.73666 0.10594 0.0
C487 C 0.13633 0.73927 0.15266 0.0
H488 H 0.47431 0.89006 0.17794 0.0
H489 H 0.52627 0.90823 0.20587 0.0
H490 H 0.46897 0.88705 0.25882 0.0
H491 H 0.52083 0.90537 0.28672 0.0
H492 H 0.51147 0.88105 0.42488 0.0
H493 H 0.51608 0.88223 0.34335 0.0
H494 H 0.46556 0.90562 0.32622 0.0
H495 H 0.46084 0.9043 0.4076 0.0
C496 C 0.48456 0.89349 0.2013 0.0
C497 C 0.50072 0.8994 0.18541 0.0
C498 C 0.48148 0.89181 0.24765 0.0
C499 C 0.4945 0.89589 0.27914 0.0
C500 C 0.51062 0.90188 0.26327 0.0
C501 C 0.51368 0.90366 0.21694 0.0
C502 C 0.50126 0.88626 0.4037 0.0
C503 C 0.48581 0.89262 0.42279 0.0
C504 C 0.50397 0.88707 0.35703 0.0
C505 C 0.49125 0.89416 0.3284 0.0
C506 C 0.47557 0.89999 0.34734 0.0
C507 C 0.47289 0.89927 0.39402 0.0
H508 H 0.35468 0.22348 0.44156 0.0
H509 H 0.33347 0.27427 0.46968 0.0
H510 H 0.35768 0.21821 0.52276 0.0
H511 H 0.33641 0.26894 0.55037 0.0
H512 H 0.36085 0.26169 0.68814 0.0
H513 H 0.36026 0.2655 0.60634 0.0
H514 H 0.33863 0.21419 0.5909 0.0
H515 H 0.33928 0.21029 0.67277 0.0
C516 C 0.3506 0.23348 0.46499 0.0
C517 C 0.34384 0.2493 0.44911 0.0
C518 C 0.35229 0.23044 0.51145 0.0
C519 C 0.34741 0.24322 0.5429 0.0
C520 C 0.34054 0.25895 0.52697 0.0
C521 C 0.33872 0.26194 0.48067 0.0
C522 C 0.35616 0.25113 0.66734 0.0
C523 C 0.35001 0.23573 0.68706 0.0
C524 C 0.35572 0.25336 0.62048 0.0
C525 C 0.34923 0.24021 0.59225 0.0
C526 C 0.34377 0.22453 0.61177 0.0
C527 C 0.34409 0.22233 0.6587 0.0
H528 H 0.01907 0.88485 0.83603 0.0
H529 H 0.96781 0.90521 0.80911 0.0
H530 H 0.02421 0.88209 0.75489 0.0
H531 H 0.97305 0.9026 0.72822 0.0
H532 H 0.98104 0.87906 0.58911 0.0
H533 H 0.9768 0.87958 0.67082 0.0
H534 H 0.02813 0.90106 0.68809 0.0
H535 H 0.03248 0.9004 0.6065 0.0
C536 C 0.00893 0.8888 0.81286 0.0
C537 C 0.99303 0.89526 0.82907 0.0
C538 C 0.0119 0.88726 0.76639 0.0
C539 C -0.00101 0.89203 0.7352 0.0
C540 C 0.98314 0.89856 0.75143 0.0
C541 C 0.98021 0.9002 0.79781 0.0
C542 C 0.9915 0.88371 0.61034 0.0
C543 C 0.00707 0.88976 0.59125 0.0
C544 C 0.98902 0.88413 0.65712 0.0
C545 C 0.00208 0.8905 0.68583 0.0
C546 C 0.01787 0.89598 0.66688 0.0
C547 C 0.02032 0.89565 0.62009 0.0
H548 H 0.34182 0.78224 0.85351 0.0
H549 H 0.36569 0.73183 0.83829 0.0
H550 H 0.34132 0.77833 0.93542 0.0
H551 H 0.36523 0.72801 0.9201 0.0
H552 H 0.33863 0.71827 0.05679 0.0
H553 H 0.34143 0.72364 0.97609 0.0
H554 H 0.36076 0.77512 1.00355 0.0
H555 H 0.35793 0.76979 0.0848 0.0
C556 C 0.34715 0.77042 0.86762 0.0
C557 C 0.3537 0.7573 0.8393 0.0
C558 C 0.34692 0.76823 0.91457 0.0
C559 C 0.3531 0.75281 0.93412 0.0
C560 C 0.36015 0.73994 0.90592 0.0
C561 C 0.36052 0.74218 0.85906 0.0
C562 C 0.34345 0.73077 0.04576 0.0
C563 C 0.34805 0.74361 0.0773 0.0
C564 C 0.34518 0.73378 0.99947 0.0
C565 C 0.35144 0.74975 0.9835 0.0
C566 C 0.35585 0.76271 0.01491 0.0
C567 C 0.35426 0.75963 0.06139 0.0
H568 H 0.4616 0.0914 0.08847 0.0
H569 H 0.51199 0.11561 0.07683 0.0
H570 H 0.46495 0.09036 0.17061 0.0
H571 H 0.51526 0.11454 0.15873 0.0
H572 H 0.52455 0.08654 0.29343 0.0
H573 H 0.51927 0.08974 0.21283 0.0
H574 H 0.46798 0.10964 0.24048 0.0
H575 H 0.47325 0.10649 0.32179 0.0
C576 C 0.47329 0.09669 0.10341 0.0
C577 C 0.48658 0.10348 0.07601 0.0
C578 C 0.47516 0.09614 0.15047 0.0
C579 C 0.49044 0.10221 0.17101 0.0
C580 C 0.50344 0.10955 0.14376 0.0
C581 C 0.50151 0.11025 0.09684 0.0
C582 C 0.51209 0.09154 0.2825 0.0
C583 C 0.49932 0.09627 0.31414 0.0
C584 C 0.50914 0.0935 0.23626 0.0
C585 C 0.49328 0.10009 0.22036 0.0
C586 C 0.48032 0.1045 0.25181 0.0
C587 C 0.48335 0.10272 0.2983 0.0
H588 H 0.15453 0.27379 0.54801 0.0
H589 H 0.13482 0.22249 0.57661 0.0
H590 H 0.15161 0.26834 0.4674 0.0
H591 H 0.13186 0.21706 0.49539 0.0
H592 H 0.15064 0.20981 0.34479 0.0
H593 H 0.15111 0.21362 0.42678 0.0
H594 H 0.1277 0.26417 0.41175 0.0
H595 H 0.12726 0.26046 0.32994 0.0
C596 C 0.1496 0.26132 0.53714 0.0
C597 C 0.14491 0.24857 0.56884 0.0
C598 C 0.14779 0.25826 0.49087 0.0
C599 C 0.14137 0.24233 0.47504 0.0
C600 C 0.1369 0.22945 0.50661 0.0
C601 C 0.13855 0.23257 0.55308 0.0
C602 C 0.14539 0.22165 0.35899 0.0
C603 C 0.13901 0.23488 0.33073 0.0
C604 C 0.14561 0.22379 0.40598 0.0
C605 C 0.13961 0.23926 0.42565 0.0
C606 C 0.13266 0.25221 0.39751 0.0
C607 C 0.13231 0.25002 0.35063 0.0
H608 H 0.9743 0.88661 0.33582 0.0
H609 H 0.0259 0.90621 0.30989 0.0
H610 H 0.96916 0.88444 0.25459 0.0
H611 H 0.02066 0.90417 0.22885 0.0
H612 H 0.0124 0.88024 0.08974 0.0
H613 H 0.01661 0.8811 0.1714 0.0
H614 H 0.96569 0.90367 0.18782 0.0
H615 H 0.96136 0.90269 0.10619 0.0
C616 C 0.98451 0.89054 0.31284 0.0
C617 C 0.00052 0.89658 0.32935 0.0
C618 C 0.98153 0.88934 0.26632 0.0
C619 C 0.99454 0.89403 0.23537 0.0
C620 C 0.01048 0.90021 0.25189 0.0
C621 C 0.01342 0.90152 0.29834 0.0
C622 C 0.00203 0.88524 0.11076 0.0
C623 C 0.98656 0.89145 0.09142 0.0
C624 C 0.0045 0.88585 0.15751 0.0
C625 C 0.99154 0.89259 0.18597 0.0
C626 C 0.97587 0.89831 0.16678 0.0
C627 C 0.97343 0.8978 0.11999 0.0
H628 H 0.87142 0.23275 0.07904 0.0
H629 H 0.82448 0.26255 0.06027 0.0
H630 H 0.87273 0.22731 0.99738 0.0
H631 H 0.82556 0.2566 0.97893 0.0
H632 H 0.82632 0.22015 0.84861 0.0
H633 H 0.82578 0.22436 0.93059 0.0
H634 H 0.87439 0.25191 0.92345 0.0
H635 H 0.87475 0.24821 0.84099 0.0
C636 C 0.8613 0.23796 0.05756 0.0
C637 C 0.84783 0.24806 0.07596 0.0
C638 C 0.86212 0.23492 0.01097 0.0
C639 C 0.84925 0.24156 0.98222 0.0
C640 C 0.83559 0.25134 1.00062 0.0
C641 C 0.83501 0.25475 0.04701 0.0
C642 C 0.83697 0.22699 0.86452 0.0
C643 C 0.8506 0.23385 0.83843 0.0
C644 C 0.8366 0.22944 0.9113 0.0
C645 C 0.85004 0.23843 0.933 0.0
C646 C 0.86393 0.24487 0.90728 0.0
C647 C 0.8641 0.24279 0.86026 0.0
H648 H 0.51164 0.1225 0.81699 0.0
H649 H 0.48647 0.07289 0.79988 0.0
H650 H 0.51684 0.12393 0.73514 0.0
H651 H 0.49218 0.07413 0.71855 0.0
H652 H 0.5261 0.07686 0.58636 0.0
H653 H 0.52312 0.07667 0.66863 0.0
H654 H 0.49244 0.12341 0.66221 0.0
H655 H 0.49495 0.12341 0.57944 0.0
C656 C 0.50745 0.11182 0.79585 0.0
C657 C 0.49866 0.09757 0.81471 0.0
C658 C 0.51033 0.1127 0.74916 0.0
C659 C 0.50488 0.09914 0.72087 0.0
C660 C 0.49653 0.08471 0.73984 0.0
C661 C 0.49326 0.08402 0.78625 0.0
C662 C 0.51885 0.08721 0.60244 0.0
C663 C 0.51073 0.10015 0.57646 0.0
C664 C 0.51712 0.08704 0.64944 0.0
C665 C 0.50759 0.10003 0.67146 0.0
C666 C 0.49994 0.11332 0.64582 0.0
C667 C 0.50132 0.11327 0.5986 0.0
H668 H 0.61877 0.76095 0.57692 0.0
H669 H 0.6698 0.7389 0.55822 0.0
H670 H 0.61668 0.76612 0.4951 0.0
H671 H 0.66788 0.74455 0.47704 0.0
H672 H 0.66345 0.77602 0.34339 0.0
H673 H 0.6641 0.77375 0.42574 0.0
H674 H 0.61746 0.74288 0.42282 0.0
H675 H 0.61697 0.74473 0.33997 0.0
C676 C 0.62962 0.75749 0.55546 0.0
C677 C 0.64445 0.74955 0.57387 0.0
C678 C 0.62837 0.76034 0.50876 0.0
C679 C 0.64212 0.75571 0.47998 0.0
C680 C 0.65714 0.74828 0.4986 0.0
C681 C 0.65821 0.74504 0.54497 0.0
C682 C 0.65321 0.76889 0.36024 0.0
C683 C 0.64016 0.76052 0.33516 0.0
C684 C 0.65364 0.76757 0.40733 0.0
C685 C 0.64083 0.75818 0.43044 0.0
C686 C 0.62742 0.75029 0.40567 0.0
C687 C 0.6272 0.75129 0.35837 0.0
H688 H 0.96967 0.0732 0.41722 0.0
H689 H -0.00155 0.12123 0.42242 0.0
H690 H 0.97313 0.07243 0.33505 0.0
H691 H 0.00142 0.12064 0.33977 0.0
H692 H 0.98164 0.11807 0.18567 0.0
H693 H 0.9767 0.11951 0.26752 0.0
H694 H 0.00435 0.0713 0.28465 0.0
H695 H 0.00981 0.07007 0.20311 0.0
C696 C 0.97652 0.08372 0.40075 0.0
C697 C 0.98379 0.0973 0.4262 0.0
C698 C 0.97854 0.08321 0.35385 0.0
C699 C 0.9875 0.09648 0.33141 0.0
C700 C 0.99439 0.11031 0.35653 0.0
C701 C 0.99274 0.11062 0.40365 0.0
C702 C 0.98656 0.10773 0.20689 0.0
C703 C 0.99609 0.09394 0.1881 0.0
C704 C 0.98382 0.10863 0.25359 0.0
C705 C 0.99018 0.09553 0.28204 0.0
C706 C -0.00069 0.08153 0.26321 0.0
C707 C 0.00243 0.08085 0.2167 0.0
H708 H 0.63112 0.26107 0.17993 0.0
H709 H 0.65503 0.21074 0.16318 0.0
H710 H 0.63129 0.26512 0.09822 0.0
H711 H 0.65526 0.2149 0.08135 0.0
H712 H 0.63823 0.22356 0.93275 0.0
H713 H 0.63582 0.2181 0.01396 0.0
H714 H 0.65448 0.26984 0.04127 0.0
H715 H 0.65682 0.27536 0.96049 0.0
C716 C 0.63626 0.25079 0.15884 0.0
C717 C 0.64315 0.23562 0.17816 0.0
C718 C 0.63646 0.25318 0.11203 0.0
C719 C 0.64345 0.24041 0.08339 0.0
C720 C 0.64972 0.22494 0.10252 0.0
C721 C 0.64963 0.2226 0.14943 0.0
C722 C 0.64184 0.23375 0.9561 0.0
C723 C 0.64772 0.24989 0.9401 0.0
C724 C 0.64051 0.2306 1.00259 0.0
C725 C 0.64485 0.24358 0.03398 0.0
C726 C 0.65078 0.25967 0.01793 0.0
C727 C 0.65225 0.26277 0.97159 0.0
H728 H 0.51831 0.88786 0.67869 0.0
H729 H 0.46728 0.90903 0.70423 0.0
H730 H 0.5235 0.88606 0.76003 0.0
H731 H 0.47255 0.90736 0.78525 0.0
H732 H 0.53193 0.90537 0.9075 0.0
H733 H 0.52757 0.90567 0.82583 0.0
H734 H 0.47605 0.88477 0.8439 0.0
H735 H 0.48029 0.8846 0.92557 0.0
C736 C 0.50824 0.8922 0.7016 0.0
C737 C 0.49238 0.89859 0.68495 0.0
C738 C 0.51124 0.89121 0.74816 0.0
C739 C 0.4984 0.89647 0.77901 0.0
C740 C 0.4826 0.90296 0.76233 0.0
C741 C 0.47964 0.90404 0.71586 0.0
C742 C 0.51972 0.90071 0.89406 0.0
C743 C 0.50643 0.89503 0.92309 0.0
C744 C 0.51726 0.90082 0.84725 0.0
C745 C 0.50143 0.89536 0.82848 0.0
C746 C 0.4883 0.88929 0.85743 0.0
C747 C 0.49079 0.88909 0.9042 0.0
H748 H 0.85798 0.73099 0.68203 0.0
H749 H 0.83785 0.78293 0.66514 0.0
H750 H 0.8571 0.72677 0.60036 0.0
H751 H 0.83682 0.7786 0.58353 0.0
H752 H 0.85318 0.76909 0.43541 0.0
H753 H 0.85572 0.77424 0.5166 0.0
H754 H 0.83396 0.72364 0.54299 0.0
H755 H 0.83156 0.71839 0.46206 0.0
C756 C 0.8535 0.74155 0.66092 0.0
C757 C 0.84792 0.75727 0.68015 0.0
C758 C 0.85287 0.73909 0.61415 0.0
C759 C 0.84674 0.7523 0.58556 0.0
C760 C 0.8417 0.76821 0.60465 0.0
C761 C 0.84224 0.77066 0.65144 0.0
C762 C 0.84888 0.75909 0.45854 0.0
C763 C 0.84217 0.74333 0.44223 0.0
C764 C 0.8503 0.76207 0.50503 0.0
C765 C 0.84514 0.7493 0.53617 0.0
C766 C 0.83829 0.73362 0.51984 0.0
C767 C 0.83678 0.73068 0.47343 0.0
H768 H 0.46952 0.58541 0.21482 0.0
H769 H 0.52094 0.60516 0.18749 0.0
H770 H 0.47506 0.58745 0.29568 0.0
H771 H 0.52642 0.60728 0.2687 0.0
H772 H 0.5344 0.58815 0.41739 0.0
H773 H 0.53008 0.58777 0.33563 0.0
H774 H 0.47932 0.61056 0.35309 0.0
H775 H 0.48353 0.61087 0.43473 0.0
C776 C 0.48203 0.59015 0.22602 0.0
C777 C 0.49479 0.59511 0.19464 0.0
C778 C 0.48514 0.59145 0.2724 0.0
C779 C 0.50113 0.59764 0.28856 0.0
C780 C 0.51401 0.60239 0.25725 0.0
C781 C 0.51084 0.60121 0.21076 0.0
C782 C 0.52239 0.59325 0.40378 0.0
C783 C 0.50928 0.59946 0.43266 0.0
C784 C 0.51995 0.59307 0.35692 0.0
C785 C 0.5043 0.59899 0.33797 0.0
C786 C 0.49141 0.60566 0.36675 0.0
C787 C 0.49389 0.60595 0.41353 0.0
H788 H 0.67217 0.22823 0.45682 0.0
H789 H 0.62792 0.26173 0.43536 0.0
H790 H 0.67028 0.2336 0.53836 0.0
H791 H 0.62592 0.26668 0.51711 0.0
H792 H 0.62424 0.23923 0.67469 0.0
H793 H 0.62521 0.23563 0.59221 0.0
H794 H 0.66798 0.2715 0.58465 0.0
H795 H 0.66689 0.27549 0.66664 0.0
C796 C 0.66207 0.23673 0.46946 0.0
C797 C 0.65022 0.2446 0.4397 0.0
C798 C 0.66101 0.23976 0.51597 0.0
C799 C 0.64791 0.25044 0.53351 0.0
C800 C 0.63609 0.25837 0.50403 0.0
C801 C 0.63732 0.25559 0.45741 0.0
C802 C 0.63374 0.24645 0.65539 0.0
C803 C 0.64545 0.25767 0.67712 0.0
C804 C 0.63426 0.2444 0.60838 0.0
C805 C 0.64667 0.25331 0.58262 0.0
C806 C 0.65829 0.26457 0.60409 0.0
C807 C 0.6576 0.26686 0.65089 0.0
H808 H 0.02673 0.40867 0.70424 0.0
H809 H 0.97569 0.38787 0.67717 0.0
H810 H 0.02152 0.40591 0.78512 0.0
H811 H 0.97059 0.38496 0.75827 0.0
H812 H 0.96204 0.40294 0.90671 0.0
H813 H 0.96643 0.40379 0.82516 0.0
H814 H 0.01801 0.38283 0.84242 0.0
H815 H 0.01372 0.38214 0.92411 0.0
C816 C 0.01439 0.40353 0.71551 0.0
C817 C 0.00161 0.39852 0.68421 0.0
C818 C 0.01147 0.40181 0.76188 0.0
C819 C 0.99569 0.39512 0.77806 0.0
C820 C 0.98284 0.39026 0.74682 0.0
C821 C 0.98579 0.3919 0.70038 0.0
C822 C 0.97426 0.39835 0.89313 0.0
C823 C 0.98757 0.39256 0.92196 0.0
C824 C 0.97674 0.39878 0.84636 0.0
C825 C 0.99261 0.39351 0.82741 0.0
C826 C 0.00573 0.38723 0.85612 0.0
C827 C 0.00322 0.38671 0.90288 0.0
H828 H 0.83645 0.71134 0.16485 0.0
H829 H 0.85984 0.76183 0.18246 0.0
H830 H 0.8357 0.7159 0.08329 0.0
H831 H 0.85924 0.76627 0.10088 0.0
H832 H 0.83417 0.77661 0.96272 0.0
H833 H 0.83641 0.77109 0.0436 0.0
H834 H 0.8547 0.71917 0.01633 0.0
H835 H 0.85231 0.7246 0.93528 0.0
C836 C 0.84163 0.72332 0.15132 0.0
C837 C 0.84813 0.73626 0.18023 0.0
C838 C 0.84124 0.7259 0.10455 0.0
C839 C 0.84727 0.7415 0.08569 0.0
C840 C 0.85424 0.75422 0.11448 0.0
C841 C 0.85471 0.75161 0.1612 0.0
C842 C 0.83861 0.76399 0.9739 0.0
C843 C 0.84304 0.75104 0.9425 0.0
C844 C 0.84003 0.76088 0.02027 0.0
C845 C 0.84583 0.74473 0.03634 0.0
C846 C 0.85008 0.73171 1.00499 0.0
C847 C 0.84875 0.73485 0.95856 0.0
H848 H 0.49168 0.37061 0.0847 0.0
H849 H 0.52381 0.41643 0.09265 0.0
H850 H 0.48862 0.37081 0.16737 0.0
H851 H 0.52027 0.41683 0.17476 0.0
H852 H 0.48285 0.42105 0.30514 0.0
H853 H 0.48848 0.41967 0.22375 0.0
H854 H 0.51358 0.37009 0.24085 0.0
H855 H 0.50847 0.37166 0.3227 0.0
C856 C 0.49812 0.38065 0.10406 0.0
C857 C 0.50801 0.39348 0.08227 0.0
C858 C 0.49642 0.38071 0.1512 0.0
C859 C 0.50422 0.39384 0.17705 0.0
C860 C 0.51416 0.40659 0.15538 0.0
C861 C 0.51621 0.4063 0.10849 0.0
C862 C 0.4897 0.40993 0.2916 0.0
C863 C 0.49528 0.39649 0.3202 0.0
C864 C 0.49291 0.40916 0.24516 0.0
C865 C 0.50138 0.39475 0.22636 0.0
C866 C 0.50697 0.38129 0.25477 0.0
C867 C 0.50414 0.38226 0.30145 0.0
H868 H 0.84266 0.28225 0.35223 0.0
H869 H 0.86511 0.23121 0.33667 0.0
H870 H 0.84181 0.27817 0.43409 0.0
H871 H 0.8643 0.22722 0.41839 0.0
H872 H 0.83769 0.21794 0.55516 0.0
H873 H 0.84046 0.22339 0.47446 0.0
H874 H 0.86105 0.27435 0.50224 0.0
H875 H 0.85826 0.26895 0.58345 0.0
C876 C 0.8476 0.27025 0.36626 0.0
C877 C 0.85387 0.25702 0.33784 0.0
C878 C 0.84716 0.26795 0.41317 0.0
C879 C 0.85285 0.25232 0.43262 0.0
C880 C 0.85959 0.23931 0.40432 0.0
C881 C 0.86016 0.24165 0.3575 0.0
C882 C 0.84277 0.23035 0.5442 0.0
C883 C 0.84775 0.24302 0.57583 0.0
C884 C 0.84448 0.2334 0.4979 0.0
C885 C 0.8511 0.24925 0.482 0.0
C886 C 0.85585 0.26204 0.51351 0.0
C887 C 0.85429 0.25892 0.55998 0.0
H888 H 0.97195 0.60853 0.82706 0.0
H889 H 0.02338 0.58896 0.79859 0.0
H890 H 0.96667 0.61175 0.74583 0.0
H891 H 0.01808 0.59216 0.71802 0.0
H892 H 0.01042 0.61666 0.58087 0.0
H893 H 0.01391 0.61624 0.66276 0.0
H894 H 0.96344 0.59259 0.67691 0.0
H895 H 0.95985 0.59303 0.59487 0.0
C896 C 0.9821 0.60488 0.80356 0.0
C897 C -0.00192 0.59847 0.81935 0.0
C898 C 0.97905 0.6067 0.75709 0.0
C899 C 0.99201 0.60235 0.72559 0.0
C900 C 0.00794 0.59589 0.74145 0.0
C901 C 0.01091 0.59392 0.7877 0.0
C902 C -5e-05 0.61157 0.60139 0.0
C903 C 0.9849 0.60476 0.58124 0.0
C904 C 0.00201 0.61124 0.64831 0.0
C905 C 0.98903 0.60421 0.67622 0.0
C906 C 0.97364 0.59814 0.65629 0.0
C907 C 0.97162 0.59835 0.60928 0.0
H908 H 0.66896 0.75841 0.05801 0.0
H909 H 0.61969 0.73271 0.07658 0.0
H910 H 0.66759 0.75243 0.97688 0.0
H911 H 0.61812 0.7272 0.99486 0.0
H912 H 0.61691 0.74824 0.83964 0.0
H913 H 0.61727 0.7503 0.92243 0.0
H914 H 0.66601 0.72281 0.92577 0.0
H915 H 0.66551 0.72029 0.84338 0.0
C916 C 0.65788 0.75142 0.04475 0.0
C917 C 0.64445 0.74598 0.07361 0.0
C918 C 0.65713 0.74797 0.99841 0.0
C919 C 0.64274 0.73939 0.97979 0.0
C920 C 0.62933 0.73387 0.00853 0.0
C921 C 0.63028 0.73693 0.05517 0.0
C922 C 0.62758 0.74244 0.85811 0.0
C923 C 0.64117 0.7341 0.83501 0.0
C924 C 0.62773 0.74357 0.90539 0.0
C925 C 0.64168 0.73672 0.93027 0.0
C926 C 0.65513 0.72819 0.90727 0.0
C927 C 0.65479 0.72671 0.86018 0.0
H928 H 0.52439 0.40585 0.79892 0.0
H929 H 0.47229 0.38822 0.82736 0.0
H930 H 0.51883 0.40317 0.71822 0.0
H931 H 0.46676 0.38552 0.74619 0.0
H932 H 0.46013 0.40378 0.59542 0.0
H933 H 0.46411 0.40475 0.67734 0.0
H934 H 0.51368 0.37919 0.663 0.0
H935 H 0.50978 0.37823 0.58129 0.0
C936 C 0.51172 0.40146 0.78799 0.0
C937 C 0.49879 0.39725 0.81965 0.0
C938 C 0.50859 0.39979 0.7417 0.0
C939 C 0.4924 0.394 0.72587 0.0
C940 C 0.47934 0.39007 0.75741 0.0
C941 C 0.48253 0.39157 0.80386 0.0
C942 C 0.47179 0.39819 0.60977 0.0
C943 C 0.48467 0.391 0.58173 0.0
C944 C 0.47404 0.3987 0.65671 0.0
C945 C 0.48928 0.3922 0.67653 0.0
C946 C 0.50191 0.38454 0.64862 0.0
C947 C 0.4996 0.38388 0.60181 0.0
H948 H 0.37384 0.74956 0.34291 0.0
H949 H 0.32607 0.72035 0.34973 0.0
H950 H 0.37342 0.75287 0.42546 0.0
H951 H 0.32547 0.72416 0.43182 0.0
H952 H 0.32314 0.76145 0.56266 0.0
H953 H 0.3243 0.7558 0.48122 0.0
H954 H 0.37258 0.72825 0.49849 0.0
H955 H 0.37122 0.73339 0.58028 0.0
C956 C 0.36332 0.74382 0.36202 0.0
C957 C 0.35002 0.73467 0.33996 0.0
C958 C 0.36311 0.74568 0.40909 0.0
C959 C 0.3494 0.73877 0.43462 0.0
C960 C 0.33615 0.72959 0.41268 0.0
C961 C 0.33656 0.72737 0.36583 0.0
C962 C 0.33393 0.75408 0.54912 0.0
C963 C 0.34706 0.7478 0.57775 0.0
C964 C 0.33456 0.75084 0.50267 0.0
C965 C 0.34855 0.74166 0.48392 0.0
C966 C 0.36171 0.73541 0.51237 0.0
C967 C 0.36086 0.73826 0.55903 0.0
H968 H 0.02233 0.57562 0.09077 0.0
H969 H 0.99329 0.62355 0.08622 0.0
H970 H 0.01909 0.57481 0.17298 0.0
H971 H 0.99053 0.62291 0.16891 0.0
H972 H 0.01014 0.62064 0.32261 0.0
H973 H 0.01503 0.62207 0.24074 0.0
H974 H 0.98836 0.57332 0.22405 0.0
H975 H 0.98296 0.5721 0.30559 0.0
C976 C 0.01547 0.58611 0.10739 0.0
C977 C 0.00806 0.59967 0.08211 0.0
C978 C 0.01357 0.58557 0.15432 0.0
C979 C 0.0046 0.5988 0.17698 0.0
C980 C -0.00242 0.61262 0.15202 0.0
C981 C -0.00089 0.61294 0.10486 0.0
C982 C 0.00544 0.61017 0.30148 0.0
C983 C 0.99619 0.59624 0.3204 0.0
C984 C 0.00815 0.61106 0.25476 0.0
C985 C 0.00204 0.59782 0.22641 0.0
C986 C 0.99322 0.58366 0.24539 0.0
C987 C 0.99012 0.58298 0.29192 0.0
H988 H 0.11922 0.24377 0.83562 0.0
H989 H 0.16741 0.27234 0.84042 0.0
H990 H 0.12 0.24064 0.91822 0.0
H991 H 0.16837 0.2687 0.92252 0.0
H992 H 0.17082 0.23178 0.05412 0.0
H993 H 0.16948 0.2374 0.97266 0.0
H994 H 0.12139 0.2652 0.99077 0.0
H995 H 0.12295 0.26011 0.07252 0.0
C996 C 0.12991 0.24941 0.85429 0.0
C997 C 0.14321 0.25835 0.83163 0.0
C998 C 0.13032 0.24766 0.90139 0.0
C999 C 0.14426 0.25443 0.92639 0.0
C1000 C 0.15751 0.26338 0.90384 0.0
C1001 C 0.15689 0.26551 0.85697 0.0
C1002 C 0.16006 0.23923 0.04076 0.0
C1003 C 0.14703 0.24557 0.06963 0.0
C1004 C 0.15931 0.24244 0.99429 0.0
C1005 C 0.1453 0.25166 0.97574 0.0
C1006 C 0.13227 0.25802 1.00445 0.0
C1007 C 0.13324 0.25519 0.05111 0.0
H1008 H 0.47533 0.60375 0.68712 0.0
H1009 H 0.52669 0.58389 0.71524 0.0
H1010 H 0.46996 0.60665 0.76816 0.0
H1011 H 0.52124 0.58672 0.79603 0.0
H1012 H 0.51289 0.61168 0.93368 0.0
H1013 H 0.51715 0.61044 0.85205 0.0
H1014 H 0.46624 0.58786 0.83617 0.0
H1015 H 0.46189 0.58918 0.9178 0.0
C1016 C 0.48544 0.59992 0.71054 0.0
C1017 C 0.50144 0.59358 0.69468 0.0
C1018 C 0.48233 0.60155 0.75695 0.0
C1019 C 0.49522 0.59703 0.78844 0.0
C1020 C 0.51115 0.59056 0.77257 0.0
C1021 C 0.51421 0.5888 0.72626 0.0
C1022 C 0.50252 0.60664 0.91279 0.0
C1023 C 0.48707 0.60047 0.93232 0.0
C1024 C 0.50502 0.6058 0.86605 0.0
C1025 C 0.49209 0.5989 0.83775 0.0
C1026 C 0.4764 0.59332 0.85708 0.0
C1027 C 0.47394 0.59404 0.90387 0.0
H1028 H 0.13796 0.72308 0.42746 0.0
H1029 H 0.15784 0.77457 0.45304 0.0
H1030 H 0.13596 0.71795 0.5087 0.0
H1031 H 0.15599 0.76934 0.53412 0.0
H1032 H 0.15486 0.70983 0.65619 0.0
H1033 H 0.15541 0.71429 0.57463 0.0
H1034 H 0.13335 0.76535 0.59253 0.0
H1035 H 0.13295 0.761 0.67418 0.0
C1036 C 0.14198 0.73327 0.45037 0.0
C1037 C 0.14807 0.74924 0.43375 0.0
C1038 C 0.14088 0.73031 0.49689 0.0
C1039 C 0.14573 0.74328 0.52778 0.0
C1040 C 0.15191 0.75919 0.51115 0.0
C1041 C 0.1531 0.76213 0.46467 0.0
C1042 C 0.14999 0.72196 0.64275 0.0
C1043 C 0.14393 0.73509 0.67173 0.0
C1044 C 0.15025 0.72448 0.59598 0.0
C1045 C 0.14454 0.74021 0.5772 0.0
C1046 C 0.13808 0.75318 0.60608 0.0
C1047 C 0.13773 0.75063 0.65283 0.0
H1048 H 0.02014 0.3894 0.17745 0.0
H1049 H 0.96827 0.40831 0.20359 0.0
H1050 H 0.02539 0.38735 0.25865 0.0
H1051 H 0.97361 0.40639 0.28461 0.0
H1052 H 0.98239 0.38287 0.42393 0.0
H1053 H 0.97808 0.38352 0.3423 0.0
H1054 H 0.02866 0.4067 0.32522 0.0
H1055 H 0.03309 0.40594 0.40683 0.0
C1056 C 0.00989 0.3932 0.20047 0.0
C1057 C 0.99378 0.39902 0.18402 0.0
C1058 C 0.01293 0.39207 0.24697 0.0
C1059 C -0.00012 0.39662 0.27799 0.0
C1060 C 0.98383 0.40255 0.26154 0.0
C1061 C 0.98083 0.40378 0.21509 0.0
C1062 C 0.99267 0.38796 0.40278 0.0
C1063 C 0.00806 0.39441 0.42194 0.0
C1064 C 0.99014 0.38844 0.35604 0.0
C1065 C 0.00297 0.39529 0.32739 0.0
C1066 C 0.01858 0.40125 0.3464 0.0
C1067 C 0.02108 0.40086 0.39318 0.0
H1068 H 0.36024 0.23285 0.18762 0.0
H1069 H 0.33638 0.2833 0.17305 0.0
H1070 H 0.35938 0.22898 0.10589 0.0
H1071 H 0.33549 0.27933 0.09114 0.0
H1072 H 0.3525 0.27079 0.94174 0.0
H1073 H 0.35485 0.27617 0.023 0.0
H1074 H 0.33557 0.22463 0.04988 0.0
H1075 H 0.33325 0.2192 0.96904 0.0
C1076 C 0.35497 0.24319 0.167 0.0
C1077 C 0.3483 0.25835 0.18694 0.0
C1078 C 0.35436 0.24091 0.12018 0.0
C1079 C 0.34721 0.25378 0.09216 0.0
C1080 C 0.34114 0.26922 0.11187 0.0
C1081 C 0.34162 0.27146 0.15879 0.0
C1082 C 0.34869 0.26064 0.96501 0.0
C1083 C 0.3427 0.24456 0.94887 0.0
C1084 C 0.35 0.26374 0.01151 0.0
C1085 C 0.34553 0.25077 0.04278 0.0
C1086 C 0.33937 0.23478 0.02661 0.0
C1087 C 0.33791 0.23173 0.98024 0.0
H1088 H 0.03351 0.02973 0.01896 0.0
H1089 H 0.98026 0.04313 0.04871 0.0
H1090 H 0.02462 0.00074 0.99758 0.0
H1091 H 0.97134 0.01365 0.02926 0.0
H1092 H 0.95906 0.96475 0.94907 0.0
H1093 H 0.96776 0.99426 0.96781 0.0
H1094 H 0.01492 0.97452 0.02827 0.0
H1095 H 0.00656 0.94519 0.00758 0.0
C1096 C 0.01989 0.02639 0.02152 0.0
C1097 C 0.00758 0.03869 0.03571 0.0
C1098 C 0.01479 0.0097 0.00946 0.0
C1099 C -0.00273 0.00476 0.01195 0.0
C1100 C 0.98492 0.01707 0.02631 0.0
C1101 C 0.99002 0.03392 0.03778 0.0
C1102 C 0.97135 0.96677 0.96607 0.0
C1103 C 0.98219 0.95269 0.97665 0.0
C1104 C 0.97626 0.98367 0.9772 0.0
C1105 C 0.99203 0.98682 0.99969 0.0
C1106 C 0.00284 0.97266 0.01021 0.0
C1107 C -0.00196 0.95581 0.99848 0.0
H1108 H 0.21308 0.78673 0.26884 0.0
H1109 H 0.19968 0.73332 0.29584 0.0
H1110 H 0.24227 0.77791 0.24781 0.0
H1111 H 0.22916 0.72452 0.27668 0.0
H1112 H 0.27688 0.71197 0.19384 0.0
H1113 H 0.2477 0.72139 0.21344 0.0
H1114 H 0.26885 0.76738 0.27644 0.0
H1115 H 0.29798 0.75825 0.25504 0.0
C1116 C 0.21645 0.77311 0.27091 0.0
C1117 C 0.20407 0.7607 0.28392 0.0
C1118 C 0.23324 0.76806 0.25902 0.0
C1119 C 0.2381 0.75049 0.26038 0.0
C1120 C 0.22578 0.73812 0.27433 0.0
C1121 C 0.20891 0.74316 0.28569 0.0
C1122 C 0.27527 0.72415 0.21158 0.0
C1123 C 0.2897 0.73439 0.22285 0.0
C1124 C 0.25854 0.72949 0.22321 0.0
C1125 C 0.25589 0.74508 0.24691 0.0
C1126 C 0.27036 0.75541 0.25768 0.0
C1127 C 0.28708 0.75017 0.24552 0.0
H1128 H 0.53531 0.02898 0.47825 0.0
H1129 H 0.48205 0.04401 0.45467 0.0
H1130 H 0.52586 0.00046 0.5021 0.0
H1131 H 0.47252 0.01497 0.47642 0.0
H1132 H 0.45997 0.96731 0.56126 0.0
H1133 H 0.46927 0.9963 0.53909 0.0
H1134 H 0.51478 0.97431 0.47535 0.0
H1135 H 0.50589 0.94556 0.49958 0.0
C1136 C 0.52156 0.02607 0.47745 0.0
C1137 C 0.50941 0.03871 0.46441 0.0
C1138 C 0.51612 0.00965 0.49095 0.0
C1139 C 0.49841 0.00531 0.49103 0.0
C1140 C 0.48624 0.01793 0.47749 0.0
C1141 C 0.49169 0.03452 0.46464 0.0
C1142 C 0.47203 0.96875 0.54282 0.0
C1143 C 0.48228 0.95422 0.53242 0.0
C1144 C 0.47729 0.98534 0.52971 0.0
C1145 C 0.49277 0.9877 0.50529 0.0
C1146 C 0.50297 0.97308 0.49488 0.0
C1147 C 0.49785 0.95656 0.50865 0.0
H1148 H 0.29169 0.26034 0.8014 0.0
H1149 H 0.2781 0.20648 0.78202 0.0
H1150 H 0.26274 0.2689 0.77645 0.0
H1151 H 0.2496 0.21498 0.75522 0.0
H1152 H 0.19412 0.23494 0.75229 0.0
H1153 H 0.22275 0.22629 0.77861 0.0
H1154 H 0.24531 0.27054 0.71064 0.0
H1155 H 0.21652 0.27957 0.6861 0.0
C1156 C 0.28253 0.25035 0.79174 0.0
C1157 C 0.28714 0.23276 0.79386 0.0
C1158 C 0.266 0.25524 0.77704 0.0
C1159 C 0.25383 0.24263 0.7636 0.0
C1160 C 0.25849 0.22504 0.766 0.0
C1161 C 0.27489 0.22016 0.78124 0.0
C1162 C 0.20523 0.24271 0.74262 0.0
C1163 C 0.2031 0.25792 0.71716 0.0
C1164 C 0.22166 0.23775 0.75764 0.0
C1165 C 0.23637 0.24776 0.74697 0.0
C1166 C 0.23425 0.26273 0.72036 0.0
C1167 C 0.21777 0.26781 0.70589 0.0
H1168 H 0.0379 0.96143 0.49512 0.0
H1169 H 0.98452 0.94759 0.46886 0.0
H1170 H 0.02883 0.99044 0.517 0.0
H1171 H 0.97546 0.97688 0.48889 0.0
H1172 H 0.00844 0.04594 0.51109 0.0
H1173 H 0.01789 0.01699 0.48914 0.0
H1174 H 0.97233 0.99514 0.55268 0.0
H1175 H 0.96257 0.02414 0.57285 0.0
C1176 C 0.02424 0.96467 0.49341 0.0
C1177 C 0.01191 0.95221 0.48036 0.0
C1178 C 0.01904 0.98135 0.50579 0.0
C1179 C 0.0014 0.98603 0.50491 0.0
C1180 C 0.98912 0.97364 0.4909 0.0
C1181 C 0.9943 0.95688 0.47904 0.0
C1182 C 0.00053 0.03492 0.52063 0.0
C1183 C 0.98476 0.0373 0.5436 0.0
C1184 C 0.00596 0.01831 0.50815 0.0
C1185 C 0.99583 0.0037 0.51888 0.0
C1186 C 0.98027 0.0061 0.54293 0.0
C1187 C 0.97474 0.02272 0.55489 0.0
H1188 H 0.20106 0.75717 0.79983 0.0
H1189 H 0.21504 0.70405 0.77072 0.0
H1190 H 0.23053 0.76632 0.78189 0.0
H1191 H 0.24422 0.71323 0.75084 0.0
H1192 H 0.29973 0.73328 0.75801 0.0
H1193 H 0.27072 0.7238 0.77962 0.0
H1194 H 0.24901 0.77003 0.71903 0.0
H1195 H 0.27804 0.77978 0.69932 0.0
C1196 C 0.21042 0.74747 0.78949 0.0
C1197 C 0.20574 0.72991 0.7867 0.0
C1198 C 0.22729 0.75271 0.77883 0.0
C1199 C 0.23976 0.74053 0.76455 0.0
C1200 C 0.23507 0.72294 0.76232 0.0
C1201 C 0.21829 0.71768 0.77353 0.0
C1202 C 0.28873 0.74134 0.74914 0.0
C1203 C 0.29114 0.75728 0.72709 0.0
C1204 C 0.27209 0.73591 0.76141 0.0
C1205 C 0.25749 0.74619 0.75133 0.0
C1206 C 0.25995 0.76196 0.72831 0.0
C1207 C 0.27659 0.76749 0.71662 0.0
H1208 H 0.48568 0.95273 0.04561 0.0
H1209 H 0.53975 0.96537 0.02505 0.0
H1210 H 0.47761 0.98213 0.02397 0.0
H1211 H 0.53167 0.99449 1.00166 0.0
H1212 H 0.51176 0.05043 1.00006 0.0
H1213 H 0.52051 0.02167 0.02594 0.0
H1214 H 0.47627 -0.00072 0.95755 0.0
H1215 H 0.46723 0.02801 0.93337 0.0
C1216 C 0.49583 0.96179 0.03648 0.0
C1217 C 0.51333 0.95672 0.03692 0.0
C1218 C 0.49122 0.9786 0.02371 0.0
C1219 C 0.50399 0.99064 0.01055 0.0
C1220 C 0.52152 0.98565 0.01203 0.0
C1221 C 0.52614 0.9689 0.02528 0.0
C1222 C 0.50402 0.03932 0.99029 0.0
C1223 C 0.48879 0.04145 0.96487 0.0
C1224 C 0.50902 0.02284 1.00508 0.0
C1225 C 0.49898 0.00816 0.99426 0.0
C1226 C 0.48406 0.01032 0.96754 0.0
C1227 C 0.47896 0.02678 0.95327 0.0
H1228 H 0.19743 0.26107 0.21568 0.0
H1229 H 0.21142 0.20734 0.23586 0.0
H1230 H 0.22648 0.26982 0.23951 0.0
H1231 H 0.23997 0.21602 0.26154 0.0
H1232 H 0.29533 0.23577 0.26307 0.0
H1233 H 0.26663 0.22722 0.237 0.0
H1234 H 0.24431 0.27172 0.30453 0.0
H1235 H 0.27315 0.28065 0.32875 0.0
C1236 C 0.20669 0.25116 0.2253 0.0
C1237 C 0.20218 0.23354 0.22368 0.0
C1238 C 0.22328 0.25615 0.23932 0.0
C1239 C 0.23559 0.24362 0.25257 0.0
C1240 C 0.23099 0.22601 0.25081 0.0
C1241 C 0.21455 0.22103 0.23624 0.0
C1242 C 0.28426 0.24362 0.27264 0.0
C1243 C 0.28646 0.25885 0.29794 0.0
C1244 C 0.26779 0.23873 0.25777 0.0
C1245 C 0.25312 0.24882 0.2685 0.0
C1246 C 0.25533 0.26385 0.29478 0.0
C1247 C 0.27184 0.26887 0.30907 0.0
H1248 H 0.77653 0.21273 0.69392 0.0
H1249 H 0.79907 0.25753 0.75896 0.0
H1250 H 0.74772 0.22231 0.71657 0.0
H1251 H 0.77034 0.26677 0.78345 0.0
H1252 H 0.71492 0.28728 0.78108 0.0
H1253 H 0.74379 0.27828 0.75802 0.0
H1254 H 0.72976 0.22469 0.78104 0.0
H1255 H 0.70054 0.23373 0.80218 0.0
C1256 C 0.7753 0.22463 0.71314 0.0
C1257 C 0.79003 0.23441 0.72457 0.0
C1258 C 0.7588 0.23004 0.72653 0.0
C1259 C 0.75668 0.24524 0.75225 0.0
C1260 C 0.77144 0.25513 0.76318 0.0
C1261 C 0.78793 0.24983 0.74922 0.0
C1262 C 0.71803 0.27358 0.78153 0.0
C1263 C 0.70544 0.2612 0.79335 0.0
C1264 C 0.73463 0.26841 0.76845 0.0
C1265 C 0.73913 0.25074 0.76745 0.0
C1266 C 0.72665 0.23839 0.78048 0.0
C1267 C 0.70994 0.24356 0.793 0.0
H1268 H 0.69218 0.73455 0.25679 0.0
H1269 H 0.71429 0.77893 0.18882 0.0
H1270 H 0.72104 0.72578 0.28156 0.0
H1271 H 0.7432 0.76982 0.21185 0.0
H1272 H 0.79046 0.75954 0.29856 0.0
H1273 H 0.76118 0.76817 0.27674 0.0
H1274 H 0.74768 0.71432 0.25588 0.0
H1275 H 0.77658 0.70574 0.27948 0.0
C1276 C 0.70325 0.74226 0.2465 0.0
C1277 C 0.701 0.75742 0.22095 0.0
C1278 C 0.7198 0.73723 0.26063 0.0
C1279 C 0.73446 0.74715 0.24896 0.0
C1280 C 0.73218 0.76209 0.22236 0.0
C1281 C 0.71563 0.76722 0.20876 0.0
C1282 C 0.78117 0.74958 0.28965 0.0
C1283 C 0.78582 0.73198 0.29082 0.0
C1284 C 0.76443 0.7545 0.27678 0.0
C1285 C 0.75207 0.74194 0.26427 0.0
C1286 C 0.75674 0.72434 0.26593 0.0
C1287 C 0.77337 0.71942 0.2793 0.0
H1288 H 0.70165 0.2611 0.29929 0.0
H1289 H 0.71544 0.20775 0.27246 0.0
H1290 H 0.73107 0.27006 0.27931 0.0
H1291 H 0.74438 0.21668 0.25056 0.0
H1292 H 0.79989 0.23545 0.25721 0.0
H1293 H 0.77073 0.22691 0.27948 0.0
H1294 H 0.75008 0.27327 0.21707 0.0
H1295 H 0.77938 0.28216 0.19675 0.0
C1296 C 0.71094 0.25132 0.28894 0.0
C1297 C 0.70627 0.23373 0.28773 0.0
C1298 C 0.72776 0.25644 0.27716 0.0
C1299 C 0.74015 0.24409 0.26332 0.0
C1300 C 0.73535 0.22652 0.26194 0.0
C1301 C 0.71869 0.2214 0.2743 0.0
C1302 C 0.7891 0.24375 0.24803 0.0
C1303 C 0.7919 0.25945 0.22522 0.0
C1304 C 0.77235 0.23885 0.26068 0.0
C1305 C 0.75799 0.24941 0.25013 0.0
C1306 C 0.76083 0.26498 0.22657 0.0
C1307 C 0.77761 0.27 0.21453 0.0
H1308 H 0.6926 0.76233 0.75827 0.0
H1309 H 0.71575 0.71951 0.68583 0.0
H1310 H 0.72135 0.77134 0.78405 0.0
H1311 H 0.74439 0.72877 0.71013 0.0
H1312 H 0.79062 0.73689 0.79996 0.0
H1313 H 0.76125 0.72903 0.77763 0.0
H1314 H 0.74861 0.78326 0.76015 0.0
H1315 H 0.77778 0.79112 0.78405 0.0
C1316 C 0.70386 0.75505 0.74722 0.0
C1317 C 0.70195 0.74017 0.7203 0.0
C1318 C 0.72032 0.76018 0.76197 0.0
C1319 C 0.73516 0.75062 0.74969 0.0
C1320 C 0.73321 0.73615 0.72126 0.0
C1321 C 0.7168 0.73094 0.70697 0.0
C1322 C 0.78152 0.74713 0.79174 0.0
C1323 C 0.78654 0.7646 0.7936 0.0
C1324 C 0.76472 0.74264 0.77858 0.0
C1325 C 0.75263 0.75552 0.76651 0.0
C1326 C 0.75753 0.77302 0.76956 0.0
C1327 C 0.77429 0.77752 0.78312 0.0
H1328 H 0.48513 0.54177 0.55088 0.0
H1329 H 0.53887 0.52754 0.53136 0.0
H1330 H 0.4763 0.51268 0.52817 0.0
H1331 H 0.53008 0.49884 0.50681 0.0
H1332 H 0.50927 0.44352 0.5055 0.0
H1333 H 0.51843 0.47214 0.53112 0.0
H1334 H 0.4745 0.49517 0.46265 0.0
H1335 H 0.46501 0.46652 0.43883 0.0
C1336 C 0.49504 0.53244 0.54169 0.0
C1337 C 0.51268 0.53693 0.54297 0.0
C1338 C 0.48999 0.51581 0.52829 0.0
C1339 C 0.50248 0.50342 0.51533 0.0
C1340 C 0.52013 0.50792 0.51717 0.0
C1341 C 0.52517 0.52444 0.53109 0.0
C1342 C 0.50169 0.45474 0.49564 0.0
C1343 C 0.48642 0.45281 0.47029 0.0
C1344 C 0.50693 0.47115 0.51027 0.0
C1345 C 0.49712 0.48597 0.49928 0.0
C1346 C 0.48213 0.48402 0.47271 0.0
C1347 C 0.47678 0.46761 0.45865 0.0
H1348 H 0.95544 0.46356 0.01894 0.0
H1349 H 0.0092 0.45046 0.04295 0.0
H1350 H 0.96396 0.49257 0.99582 0.0
H1351 H 0.0177 0.47977 0.02164 0.0
H1352 H 0.0293 0.52665 0.93513 0.0
H1353 H 0.02004 0.49766 0.95681 0.0
H1354 H 0.97478 0.51939 0.02224 0.0
H1355 H 0.98372 0.54832 0.99883 0.0
C1356 C 0.96908 0.46696 0.01993 0.0
C1357 C 0.98167 0.45471 0.03267 0.0
C1358 C 0.97396 0.48364 0.00682 0.0
C1359 C 0.99153 0.48852 0.00664 0.0
C1360 C 0.00408 0.47635 0.02044 0.0
C1361 C -0.00079 0.45959 0.03304 0.0
C1362 C 0.01729 0.5252 0.95381 0.0
C1363 C 0.00722 0.53974 0.96524 0.0
C1364 C 0.01206 0.50859 0.96664 0.0
C1365 C -0.00325 0.50617 0.99171 0.0
C1366 C 0.98654 0.52073 1.0025 0.0
C1367 C 0.99167 0.53733 0.98915 0.0
H1368 H 0.53656 0.46357 0.98247 0.0
H1369 H 0.48288 0.44981 0.96037 0.0
H1370 H 0.5278 0.49226 0.00718 0.0
H1371 H 0.47407 0.47894 0.98305 0.0
H1372 H 0.46257 0.52572 0.0712 0.0
H1373 H 0.47159 0.49686 0.04733 0.0
H1374 H 0.51686 0.51895 0.98288 0.0
H1375 H 0.50823 0.54763 0.00873 0.0
C1376 C 0.52288 0.46679 0.98214 0.0
C1377 C 0.5104 0.45443 0.96945 0.0
C1378 C 0.51784 0.4833 0.99616 0.0
C1379 C 0.50021 0.48798 0.9972 0.0
C1380 C 0.48774 0.4757 0.98355 0.0
C1381 C 0.49278 0.45905 0.97013 0.0
C1382 C 0.47452 0.52435 0.05227 0.0
C1383 C 0.48474 0.5389 0.04202 0.0
C1384 C 0.47962 0.50783 0.03816 0.0
C1385 C 0.49491 0.50553 0.01287 0.0
C1386 C 0.50516 0.52014 1.0029 0.0
C1387 C 0.5002 0.53662 0.01764 0.0
H1388 H 0.98759 0.44798 0.50473 0.0
H1389 H 0.03478 0.46834 0.56297 0.0
H1390 H 0.97885 0.47712 0.48327 0.0
H1391 H 0.02568 0.49768 0.54346 0.0
H1392 H 0.01248 0.54609 0.46118 0.0
H1393 H 0.02184 0.51684 0.48164 0.0
H1394 H 0.96873 0.5033 0.51314 0.0
H1395 H 0.9594 0.53204 0.49072 0.0
C1396 C 0.99596 0.45874 0.51362 0.0
C1397 C 0.01184 0.4559 0.53561 0.0
C1398 C 0.99093 0.47548 0.50145 0.0
C1399 C 0.00154 0.48982 0.51168 0.0
C1400 C 0.01733 0.48695 0.53431 0.0
C1401 C 0.02248 0.47015 0.54588 0.0
C1402 C 0.00285 0.53679 0.47228 0.0
C1403 C 0.98521 0.5413 0.47396 0.0
C1404 C 0.0082 0.52007 0.48434 0.0
C1405 C 0.99603 0.50764 0.49893 0.0
C1406 C 0.97843 0.51234 0.50109 0.0
C1407 C 0.97308 0.52889 0.48843 0.0
H1408 H 0.07478 0.10516 0.1172 0.0
H1409 H 0.03927 0.14503 0.0725 0.0
H1410 H 0.09485 0.12709 0.14308 0.0
H1411 H 0.05999 0.16729 0.09668 0.0
H1412 H 0.09589 0.20167 0.18581 0.0
H1413 H 0.07376 0.18085 0.16127 0.0
H1414 H 0.11423 0.14701 0.11128 0.0
H1415 H 0.13602 0.16717 0.13751 0.0
C1416 C 0.07137 0.11867 0.11228 0.0
C1417 C 0.05555 0.12339 0.09228 0.0
C1418 C 0.08294 0.13128 0.12699 0.0
C1419 C 0.07919 0.14898 0.12128 0.0
C1420 C 0.06323 0.15377 0.1018 0.0
C1421 C 0.05144 0.14105 0.08764 0.0
C1422 C 0.09994 0.18971 0.16977 0.0
C1423 C 0.11765 0.18588 0.16429 0.0
C1424 C 0.08731 0.17786 0.15542 0.0
C1425 C 0.09223 0.16214 0.13487 0.0
C1426 C 0.10996 0.15871 0.1282 0.0
C1427 C 0.12248 0.17033 0.14313 0.0
H1428 H 0.09981 0.78463 0.35686 0.0
H1429 H 0.1289 0.82887 0.30889 0.0
H1430 H 0.07817 0.80419 0.38972 0.0
H1431 H 0.10725 0.84823 0.34071 0.0
H1432 H 0.03618 0.84817 0.40607 0.0
H1433 H 0.05561 0.8265 0.37281 0.0
H1434 H 0.09989 0.85611 0.41819 0.0
H1435 H 0.08065 0.87777 0.45042 0.0
C1436 C 0.1014 0.79849 0.35256 0.0
C1437 C 0.11615 0.80523 0.33079 0.0
C1438 C 0.08903 0.80967 0.37139 0.0
C1439 C 0.09122 0.82773 0.36862 0.0
C1440 C 0.10545 0.83438 0.34452 0.0
C1441 C 0.1178 0.82327 0.32598 0.0
C1442 C 0.05007 0.84988 0.40945 0.0
C1443 C 0.0569 0.86476 0.43039 0.0
C1444 C 0.06117 0.83749 0.39039 0.0
C1445 C 0.07926 0.83981 0.39208 0.0
C1446 C 0.08601 0.85421 0.41523 0.0
C1447 C 0.07497 0.86656 0.43402 0.0
H1448 H 0.36146 0.83023 0.69464 0.0
H1449 H 0.39361 0.78708 0.65345 0.0
H1450 H 0.38276 0.85036 0.66447 0.0
H1451 H 0.41477 0.8073 0.62185 0.0
H1452 H 0.4557 0.85126 0.60841 0.0
H1453 H 0.43596 0.82956 0.6396 0.0
H1454 H 0.39217 0.85925 0.59092 0.0
H1455 H 0.41181 0.88109 0.56117 0.0
C1456 C 0.37312 0.82504 0.67922 0.0
C1457 C 0.37582 0.80708 0.67616 0.0
C1458 C 0.38526 0.83658 0.66156 0.0
C1459 C 0.40031 0.83043 0.63997 0.0
C1460 C 0.40334 0.81245 0.63839 0.0
C1461 C 0.39122 0.80088 0.65646 0.0
C1462 C 0.44186 0.85301 0.60395 0.0
C1463 C 0.43529 0.86794 0.58272 0.0
C1464 C 0.43055 0.84058 0.62178 0.0
C1465 C 0.41249 0.84283 0.61843 0.0
C1466 C 0.40601 0.85736 0.59521 0.0
C1467 C 0.41727 0.86981 0.57779 0.0
H1468 H 0.41887 0.10624 0.88446 0.0
H1469 H 0.45287 0.14647 0.93431 0.0
H1470 H 0.39794 0.12791 0.86154 0.0
H1471 H 0.43134 0.1684 0.91308 0.0
H1472 H 0.39413 0.20324 0.82925 0.0
H1473 H 0.41701 0.18267 0.85037 0.0
H1474 H 0.37788 0.14654 0.89624 0.0
H1475 H 0.35534 0.16652 0.87345 0.0
C1476 C 0.42177 0.11975 0.89109 0.0
C1477 C 0.43741 0.12465 0.91169 0.0
C1478 C 0.40972 0.13221 0.87808 0.0
C1479 C 0.41281 0.1499 0.88611 0.0
C1480 C 0.4286 0.15488 0.90616 0.0
C1481 C 0.44086 0.14235 0.91862 0.0
C1482 C 0.39052 0.19084 0.84368 0.0
C1483 C 0.37298 0.18636 0.84903 0.0
C1484 C 0.40359 0.17913 0.85606 0.0
C1485 C 0.39927 0.16285 0.87445 0.0
C1486 C 0.3817 0.15872 0.88095 0.0
C1487 C 0.36874 0.17023 0.86803 0.0
H1488 H 0.89159 0.78563 0.86477 0.0
H1489 H 0.86356 0.83031 0.81507 0.0
H1490 H 0.91383 0.80484 0.89632 0.0
H1491 H 0.88578 0.8493 0.84562 0.0
H1492 H 0.91288 0.87879 0.95399 0.0
H1493 H 0.89322 0.85717 0.92343 0.0
H1494 H 0.9369 0.82673 0.87757 0.0
H1495 H 0.95676 0.84837 0.90913 0.0
C1496 C 0.89036 0.7995 0.8598 0.0
C1497 C 0.87573 0.8065 0.83801 0.0
C1498 C 0.90307 0.81047 0.87788 0.0
C1499 C 0.90131 0.82856 0.8743 0.0
C1500 C 0.88722 0.83542 0.85004 0.0
C1501 C 0.87455 0.82453 0.83226 0.0
C1502 C 0.91833 0.8674 0.93788 0.0
C1503 C 0.93635 0.86537 0.93349 0.0
C1504 C 0.90706 0.85508 0.92008 0.0
C1505 C 0.91353 0.84048 0.89718 0.0
C1506 C 0.93157 0.8379 0.89495 0.0
C1507 C 0.94291 0.85026 0.91303 0.0
H1508 H 0.9114 0.10837 0.56872 0.0
H1509 H 0.95476 0.14009 0.61034 0.0
H1510 H 0.89137 0.13021 0.59691 0.0
H1511 H 0.93469 0.16173 0.64016 0.0
H1512 H 0.86032 0.16092 0.69701 0.0
H1513 H 0.8817 0.1405 0.66835 0.0
H1514 H 0.9133 0.18319 0.62148 0.0
H1515 H 0.89212 0.20366 0.65178 0.0
C1516 C 0.91665 0.12005 0.58383 0.0
C1517 C 0.93464 0.12249 0.5875 0.0
C1518 C 0.90517 0.1325 0.60039 0.0
C1519 C 0.91141 0.1476 0.62154 0.0
C1520 C 0.92944 0.15031 0.62385 0.0
C1521 C 0.94094 0.1379 0.60681 0.0
C1522 C 0.87191 0.16595 0.68098 0.0
C1523 C 0.87451 0.18388 0.67648 0.0
C1524 C 0.8841 0.15425 0.66415 0.0
C1525 C 0.89908 0.16019 0.64188 0.0
C1526 C 0.90196 0.17816 0.63865 0.0
C1527 C 0.88982 0.1899 0.65598 0.0
H1528 H 0.63976 0.16648 0.36726 0.0
H1529 H 0.59973 0.20161 0.3216 0.0
H1530 H 0.61792 0.14623 0.39269 0.0
H1531 H 0.57754 0.18071 0.34526 0.0
H1532 H 0.5429 0.14462 0.43239 0.0
H1533 H 0.56379 0.16684 0.4091 0.0
H1534 H 0.5983 0.12662 0.36092 0.0
H1535 H 0.57804 0.10471 0.38596 0.0
C1536 C 0.62623 0.16976 0.36202 0.0
C1537 C 0.62145 0.18553 0.34188 0.0
C1538 C 0.61367 0.15809 0.37648 0.0
C1539 C 0.59595 0.16168 0.37035 0.0
C1540 C 0.59108 0.17759 0.35072 0.0
C1541 C 0.60375 0.18949 0.33686 0.0
C1542 C 0.55503 0.14062 0.41706 0.0
C1543 C 0.55897 0.12295 0.41164 0.0
C1544 C 0.56692 0.15332 0.40341 0.0
C1545 C 0.58283 0.14852 0.38362 0.0
C1546 C 0.58644 0.13082 0.37723 0.0
C1547 C 0.57476 0.11822 0.39146 0.0
H1548 H 0.53621 0.85254 0.10939 0.0
H1549 H 0.57966 0.87987 0.05076 0.0
H1550 H 0.55604 0.83042 0.13863 0.0
H1551 H 0.59929 0.85766 0.07859 0.0
H1552 H 0.59796 0.78704 0.15042 0.0
H1553 H 0.57644 0.80712 0.11953 0.0
H1554 H 0.60994 0.85024 0.15257 0.0
H1555 H 0.63152 0.83027 0.18209 0.0
C1556 C 0.54993 0.8536 0.10194 0.0
C1557 C 0.55644 0.868 0.07831 0.0
C1558 C 0.56127 0.84096 0.11867 0.0
C1559 C 0.57926 0.8425 0.11171 0.0
C1560 C 0.58556 0.85637 0.08568 0.0
C1561 C 0.5743 0.86903 0.06941 0.0
C1562 C 0.60061 0.80083 0.15143 0.0
C1563 C 0.61649 0.80709 0.16824 0.0
C1564 C 0.58829 0.81231 0.13379 0.0
C1565 C 0.59163 0.83022 0.13287 0.0
C1566 C 0.60718 0.83647 0.15161 0.0
C1567 C 0.6195 0.82504 0.16887 0.0
H1568 H 0.57971 0.60488 0.61602 0.0
H1569 H 0.54239 0.64402 0.57734 0.0
H1570 H 0.59948 0.62716 0.64134 0.0
H1571 H 0.56276 0.66667 0.60092 0.0
H1572 H 0.59795 0.70138 0.68977 0.0
H1573 H 0.57655 0.67988 0.66529 0.0
H1574 H 0.61795 0.64818 0.61112 0.0
H1575 H 0.63912 0.66905 0.63738 0.0
C1576 C 0.57583 0.61831 0.61224 0.0
C1577 C 0.55957 0.62271 0.59423 0.0
C1578 C 0.58724 0.63113 0.62663 0.0
C1579 C 0.58285 0.64875 0.62261 0.0
C1580 C 0.5665 0.65322 0.60481 0.0
C1581 C 0.55489 0.64028 0.59098 0.0
C1582 C 0.60239 0.68973 0.67287 0.0
C1583 C 0.62019 0.68675 0.66608 0.0
C1584 C 0.59016 0.6775 0.6585 0.0
C1585 C 0.59553 0.66221 0.6366 0.0
C1586 C 0.61334 0.65955 0.62896 0.0
C1587 C 0.62551 0.67156 0.6439 0.0
H1588 H 0.58009 0.3813 0.943 0.0
H1589 H 0.53663 0.35053 0.89738 0.0
H1590 H 0.60003 0.35942 0.91494 0.0
H1591 H 0.55676 0.32868 0.86802 0.0
H1592 H 0.60093 0.2869 0.85982 0.0
H1593 H 0.57882 0.30687 0.88852 0.0
H1594 H 0.60914 0.35028 0.84066 0.0
H1595 H 0.63129 0.33048 0.81326 0.0
C1596 C 0.5748 0.36981 0.92708 0.0
C1597 C 0.55681 0.3677 0.92201 0.0
C1598 C 0.58623 0.35733 0.91067 0.0
C1599 C 0.57998 0.3425 0.88837 0.0
C1600 C 0.56195 0.33997 0.88504 0.0
C1601 C 0.55045 0.35247 0.90184 0.0
C1602 C 0.60272 0.3007 0.85497 0.0
C1603 C 0.61792 0.30716 0.8348 0.0
C1604 C 0.59007 0.31213 0.87138 0.0
C1605 C 0.59241 0.33015 0.86766 0.0
C1606 C 0.60718 0.33648 0.84522 0.0
C1607 C 0.61982 0.32513 0.8292 0.0
H1608 H 0.86419 0.32997 0.19405 0.0
H1609 H 0.89565 0.2862 0.15365 0.0
H1610 H 0.88579 0.34967 0.16355 0.0
H1611 H 0.91722 0.30606 0.12195 0.0
H1612 H 0.95828 0.35075 0.10844 0.0
H1613 H 0.93869 0.32889 0.13998 0.0
H1614 H 0.89472 0.35732 0.08765 0.0
H1615 H 0.91412 0.37922 0.0573 0.0
C1616 C 0.87578 0.32455 0.17882 0.0
C1617 C 0.87815 0.30654 0.17586 0.0
C1618 C 0.8881 0.33584 0.16102 0.0
C1619 C 0.90303 0.3294 0.13946 0.0
C1620 C 0.90584 0.31139 0.13835 0.0
C1621 C 0.8935 0.30004 0.15648 0.0
C1622 C 0.94444 0.35216 0.10318 0.0
C1623 C 0.9377 0.36679 0.08089 0.0
C1624 C 0.93324 0.33965 0.12124 0.0
C1625 C 0.91516 0.34159 0.1171 0.0
C1626 C 0.90857 0.35572 0.09254 0.0
C1627 C 0.91969 0.36821 0.07484 0.0
H1628 H 0.95094 0.64696 0.43688 0.0
H1629 H 0.91815 0.60625 0.3844 0.0
H1630 H 0.92976 0.66866 0.41163 0.0
H1631 H 0.89767 0.62764 0.35735 0.0
H1632 H 0.85447 0.66572 0.36368 0.0
H1633 H 0.87686 0.64604 0.38884 0.0
H1634 H 0.91624 0.68269 0.34743 0.0
H1635 H 0.89344 0.703 0.32398 0.0
C1636 C 0.93928 0.64269 0.41972 0.0
C1637 C 0.936 0.62494 0.41337 0.0
C1638 C 0.92724 0.65509 0.40495 0.0
C1639 C 0.91188 0.64988 0.38305 0.0
C1640 C 0.90906 0.63212 0.37534 0.0
C1641 C 0.92085 0.61982 0.39074 0.0
C1642 C 0.86789 0.6696 0.35963 0.0
C1643 C 0.87221 0.68582 0.3413 0.0
C1644 C 0.88078 0.65826 0.37393 0.0
C1645 C 0.89839 0.66263 0.36947 0.0
C1646 C 0.90279 0.67896 0.35154 0.0
C1647 C 0.88977 0.69053 0.33781 0.0
H1648 H 0.35283 0.32782 0.37312 0.0
H1649 H 0.39247 0.29194 0.32906 0.0
H1650 H 0.37492 0.34797 0.39772 0.0
H1651 H 0.41487 0.31268 0.35185 0.0
H1652 H 0.44994 0.34803 0.43888 0.0
H1653 H 0.4286 0.32629 0.4156 0.0
H1654 H 0.39506 0.36721 0.36683 0.0
H1655 H 0.4158 0.38869 0.39194 0.0
C1656 C 0.36631 0.32435 0.36802 0.0
C1657 C 0.37092 0.30837 0.34873 0.0
C1658 C 0.37902 0.33597 0.38199 0.0
C1659 C 0.3967 0.33208 0.37625 0.0
C1660 C 0.40137 0.31602 0.35712 0.0
C1661 C 0.38857 0.30421 0.34373 0.0
C1662 C 0.43793 0.35229 0.42344 0.0
C1663 C 0.43441 0.37004 0.41783 0.0
C1664 C 0.42577 0.33986 0.40976 0.0
C1665 C 0.41002 0.345 0.38971 0.0
C1666 C 0.4068 0.36277 0.38327 0.0
C1667 C 0.41875 0.37512 0.39754 0.0
H1668 H 0.36137 0.66198 0.19859 0.0
H1669 H 0.3932 0.7053 0.15731 0.0
H1670 H 0.38327 0.64195 0.17082 0.0
H1671 H 0.41498 0.68517 0.12805 0.0
H1672 H 0.41355 0.61101 0.07024 0.0
H1673 H 0.39339 0.6327 0.09836 0.0
H1674 H 0.43638 0.66333 0.1476 0.0
H1675 H 0.45668 0.64176 0.11799 0.0
C1676 C 0.37308 0.66722 0.18367 0.0
C1677 C 0.37552 0.6852 0.17986 0.0
C1678 C 0.38558 0.65574 0.16738 0.0
C1679 C 0.40073 0.66196 0.14641 0.0
C1680 C 0.40348 0.67997 0.14414 0.0
C1681 C 0.391 0.69149 0.16086 0.0
C1682 C 0.41872 0.62245 0.08669 0.0
C1683 C 0.43668 0.62463 0.09219 0.0
C1684 C 0.40716 0.63482 0.10317 0.0
C1685 C 0.41326 0.64959 0.12605 0.0
C1686 C 0.43127 0.65212 0.13004 0.0
C1687 C 0.44289 0.63977 0.11311 0.0
H1688 H 0.03694 0.64289 0.89916 0.0
H1689 H 0.08015 0.61031 0.93759 0.0
H1690 H 0.05715 0.66428 0.86846 0.0
H1691 H 0.10026 0.6318 0.90826 0.0
H1692 H 0.13065 0.66113 0.80519 0.0
H1693 H 0.10865 0.64154 0.83431 0.0
H1694 H 0.07982 0.68522 0.88694 0.0
H1695 H 0.10172 0.70495 0.85645 0.0
C1696 C 0.05075 0.64045 0.90179 0.0
C1697 C 0.05697 0.62486 0.92037 0.0
C1698 C 0.06232 0.65269 0.88422 0.0
C1699 C 0.08029 0.64958 0.88518 0.0
C1700 C 0.08647 0.63436 0.90583 0.0
C1701 C 0.07495 0.62211 0.923 0.0
C1702 C 0.11952 0.66658 0.82252 0.0
C1703 C 0.11797 0.68456 0.82885 0.0
C1704 C 0.10698 0.65535 0.83957 0.0
C1705 C 0.09268 0.6618 0.8638 0.0
C1706 C 0.09069 0.67985 0.86838 0.0
C1707 C 0.10322 0.69114 0.85093 0.0
H1708 H 0.03802 0.35227 0.60581 0.0
H1709 H 0.08186 0.38198 0.55793 0.0
H1710 H 0.0578 0.33035 0.63595 0.0
H1711 H 0.10151 0.35994 0.58664 0.0
H1712 H 0.13252 0.33065 0.68896 0.0
H1713 H 0.11106 0.35091 0.66007 0.0
H1714 H 0.07892 0.30803 0.61709 0.0
H1715 H 0.10027 0.28767 0.64742 0.0
C1716 C 0.05185 0.35395 0.60096 0.0
C1717 C 0.05842 0.36891 0.57991 0.0
C1718 C 0.06318 0.3414 0.61821 0.0
C1719 C 0.08123 0.34357 0.61441 0.0
C1720 C 0.08769 0.35812 0.59127 0.0
C1721 C 0.07642 0.37069 0.57446 0.0
C1722 C 0.1208 0.32554 0.67376 0.0
C1723 C 0.11812 0.30759 0.67017 0.0
C1724 C 0.10856 0.33714 0.65683 0.0
C1725 C 0.09345 0.33107 0.63544 0.0
C1726 C 0.09042 0.31311 0.63346 0.0
C1727 C 0.10264 0.30146 0.65081 0.0
loop_
_geom_bond_atom_site_label_1
_geom_bond_atom_site_label_2
_geom_bond_distance
_geom_bond_site_symmetry_2
_ccdc_geom_bond_type
C0 O2 1.247 . S
C0 O4 1.258 1_455 S
C1 O8 1.247 1_455 S
C1 O9 1.258 . S
O2 C0 1.247 . S
O2 Zn3 2.028 1_556 S
Zn3 O2 2.028 1_554 S
Zn3 O7 2.035 . S
Zn3 O9 2.035 . S
Zn3 O10 2.028 . S
O4 C0 1.258 1_655 S
O4 Zn5 2.035 1_556 S
Zn5 O4 2.035 1_554 S
Zn5 O6 2.028 1_655 S
Zn5 O8 2.028 . S
Zn5 O11 2.035 . S
O6 Zn5 2.028 1_455 S
O6 C12 1.247 . S
O7 Zn3 2.035 . S
O7 C12 1.258 . S
O8 C1 1.247 1_655 S
O8 Zn5 2.028 . S
O9 C1 1.258 . S
O9 Zn3 2.035 . S
O10 Zn3 2.028 . S
O10 C13 1.247 1_455 S
O11 Zn5 2.035 . S
O11 C13 1.258 . S
C12 O6 1.247 . S
C12 O7 1.258 . S
C13 O10 1.247 1_655 S
C13 O11 1.258 . S
C14 O16 1.247 . S
C14 O18 1.258 . S
C15 O22 1.247 . S
C15 O23 1.258 . S
O16 C14 1.247 . S
O16 Zn17 2.028 . S
Zn17 O16 2.028 . S
Zn17 O21 2.035 . S
Zn17 O23 2.035 . S
Zn17 O24 2.028 . S
O18 C14 1.258 . S
O18 Zn19 2.035 . S
Zn19 O18 2.035 . S
Zn19 O20 2.028 . S
Zn19 O22 2.028 . S
Zn19 O25 2.035 . S
O20 Zn19 2.028 . S
O20 C26 1.247 . S
O21 Zn17 2.035 . S
O21 C26 1.258 . S
O22 C15 1.247 . S
O22 Zn19 2.028 . S
O23 C15 1.258 . S
O23 Zn17 2.035 . S
O24 Zn17 2.028 . S
O24 C27 1.247 . S
O25 Zn19 2.035 . S
O25 C27 1.258 . S
C26 O20 1.247 . S
C26 O21 1.258 . S
C27 O24 1.247 . S
C27 O25 1.258 . S
C28 O30 1.247 . S
C28 O32 1.258 . S
C29 O36 1.247 . S
C29 O37 1.258 . S
O30 C28 1.247 . S
O30 Zn31 2.028 . S
Zn31 O30 2.028 . S
Zn31 O35 2.035 . S
Zn31 O37 2.035 . S
Zn31 O38 2.028 . S
O32 C28 1.258 . S
O32 Zn33 2.035 . S
Zn33 O32 2.035 . S
Zn33 O34 2.028 . S
Zn33 O36 2.028 . S
Zn33 O39 2.035 . S
O34 Zn33 2.028 . S
O34 C40 1.247 . S
O35 Zn31 2.035 . S
O35 C40 1.258 . S
O36 C29 1.247 . S
O36 Zn33 2.028 . S
O37 C29 1.258 . S
O37 Zn31 2.035 . S
O38 Zn31 2.028 . S
O38 C41 1.247 . S
O39 Zn33 2.035 . S
O39 C41 1.258 . S
C40 O34 1.247 . S
C40 O35 1.258 . S
C41 O38 1.247 . S
C41 O39 1.258 . S
C42 O44 1.247 . S
C42 O46 1.258 . S
C43 O50 1.247 . S
C43 O51 1.258 . S
O44 C42 1.247 . S
O44 Zn45 2.028 . S
Zn45 O44 2.028 . S
Zn45 O49 2.035 . S
Zn45 O51 2.035 . S
Zn45 O52 2.028 . S
O46 C42 1.258 . S
O46 Zn47 2.035 . S
Zn47 O46 2.035 . S
Zn47 O48 2.028 . S
Zn47 O50 2.028 . S
Zn47 O53 2.035 . S
O48 Zn47 2.028 . S
O48 C54 1.247 . S
O49 Zn45 2.035 . S
O49 C54 1.258 . S
O50 C43 1.247 . S
O50 Zn47 2.028 . S
O51 C43 1.258 . S
O51 Zn45 2.035 . S
O52 Zn45 2.028 . S
O52 C55 1.247 . S
O53 Zn47 2.035 . S
O53 C55 1.258 . S
C54 O48 1.247 . S
C54 O49 1.258 . S
C55 O52 1.247 . S
C55 O53 1.258 . S
C56 O58 1.247 . S
C56 O60 1.258 . S
C57 O64 1.247 1_655 S
C57 O65 1.258 . S
O58 C56 1.247 . S
O58 Zn59 2.028 1_455 S
Zn59 O58 2.028 1_655 S
Zn59 O63 2.035 . S
Zn59 O65 2.035 . S
Zn59 O66 2.028 . S
O60 C56 1.258 . S
O60 Zn61 2.035 . S
Zn61 O60 2.035 . S
Zn61 O62 2.028 . S
Zn61 O64 2.028 . S
Zn61 O67 2.035 . S
O62 Zn61 2.028 . S
O62 C68 1.247 . S
O63 Zn59 2.035 . S
O63 C68 1.258 1_655 S
O64 C57 1.247 1_455 S
O64 Zn61 2.028 . S
O65 C57 1.258 . S
O65 Zn59 2.035 . S
O66 Zn59 2.028 . S
O66 C69 1.247 1_655 S
O67 Zn61 2.035 . S
O67 C69 1.258 . S
C68 O62 1.247 . S
C68 O63 1.258 1_455 S
C69 O66 1.247 1_455 S
C69 O67 1.258 . S
C70 O72 1.247 . S
C70 O74 1.258 . S
C71 O78 1.247 . S
C71 O79 1.258 . S
O72 C70 1.247 . S
O72 Zn73 2.028 . S
Zn73 O72 2.028 . S
Zn73 O77 2.035 . S
Zn73 O79 2.035 . S
Zn73 O80 2.028 . S
O74 C70 1.258 . S
O74 Zn75 2.035 . S
Zn75 O74 2.035 . S
Zn75 O76 2.028 . S
Zn75 O78 2.028 . S
Zn75 O81 2.035 . S
O76 Zn75 2.028 . S
O76 C82 1.247 . S
O77 Zn73 2.035 . S
O77 C82 1.258 . S
O78 C71 1.247 . S
O78 Zn75 2.028 . S
O79 C71 1.258 . S
O79 Zn73 2.035 . S
O80 Zn73 2.028 . S
O80 C83 1.247 . S
O81 Zn75 2.035 . S
O81 C83 1.258 . S
C82 O76 1.247 . S
C82 O77 1.258 . S
C83 O80 1.247 . S
C83 O81 1.258 . S
C84 O86 1.247 . S
C84 O88 1.258 . S
C85 O92 1.247 . S
C85 O93 1.258 . S
O86 C84 1.247 . S
O86 Zn87 2.028 1_554 S
Zn87 O86 2.028 1_556 S
Zn87 O91 2.035 . S
Zn87 O93 2.035 . S
Zn87 O94 2.028 . S
O88 C84 1.258 . S
O88 Zn89 2.035 1_554 S
Zn89 O88 2.035 1_556 S
Zn89 O90 2.028 . S
Zn89 O92 2.028 . S
Zn89 O95 2.035 . S
O90 Zn89 2.028 . S
O90 C96 1.247 . S
O91 Zn87 2.035 . S
O91 C96 1.258 . S
O92 C85 1.247 . S
O92 Zn89 2.028 . S
O93 C85 1.258 . S
O93 Zn87 2.035 . S
O94 Zn87 2.028 . S
O94 C97 1.247 . S
O95 Zn89 2.035 . S
O95 C97 1.258 . S
C96 O90 1.247 . S
C96 O91 1.258 . S
C97 O94 1.247 . S
C97 O95 1.258 . S
C98 O100 1.247 . S
C98 O102 1.258 . S
C99 O106 1.247 . S
C99 O107 1.258 . S
O100 C98 1.247 . S
O100 Zn101 2.028 . S
Zn101 O100 2.028 . S
Zn101 O105 2.035 . S
Zn101 O107 2.035 . S
Zn101 O108 2.028 . S
O102 C98 1.258 . S
O102 Zn103 2.035 . S
Zn103 O102 2.035 . S
Zn103 O104 2.028 . S
Zn103 O106 2.028 . S
Zn103 O109 2.035 . S
O104 Zn103 2.028 . S
O104 C110 1.247 . S
O105 Zn101 2.035 . S
O105 C110 1.258 . S
O106 C99 1.247 . S
O106 Zn103 2.028 . S
O107 C99 1.258 . S
O107 Zn101 2.035 . S
O108 Zn101 2.028 . S
O108 C111 1.247 . S
O109 Zn103 2.035 . S
O109 C111 1.258 . S
C110 O104 1.247 . S
C110 O105 1.258 . S
C111 O108 1.247 . S
C111 O109 1.258 . S
C112 O114 1.247 1_655 S
C112 O116 1.258 . S
C113 O120 1.247 . S
C113 O121 1.258 1_655 S
O114 C112 1.247 1_455 S
O114 Zn115 2.028 1_554 S
Zn115 O114 2.028 1_556 S
Zn115 O119 2.035 1_455 S
Zn115 O121 2.035 . S
Zn115 O122 2.028 . S
O116 C112 1.258 . S
O116 Zn117 2.035 1_554 S
Zn117 O116 2.035 1_556 S
Zn117 O118 2.028 . S
Zn117 O120 2.028 . S
Zn117 O123 2.035 . S
O118 Zn117 2.028 . S
O118 C124 1.247 . S
O119 Zn115 2.035 1_655 S
O119 C124 1.258 . S
O120 C113 1.247 . S
O120 Zn117 2.028 . S
O121 C113 1.258 1_455 S
O121 Zn115 2.035 . S
O122 Zn115 2.028 . S
O122 C125 1.247 . S
O123 Zn117 2.035 . S
O123 C125 1.258 1_655 S
C124 O118 1.247 . S
C124 O119 1.258 . S
C125 O122 1.247 . S
C125 O123 1.258 1_455 S
C126 O128 1.247 . S
C126 O130 1.258 . S
C127 O134 1.247 . S
C127 O135 1.258 . S
O128 C126 1.247 . S
O128 Zn129 2.028 . S
Zn129 O128 2.028 . S
Zn129 O133 2.035 . S
Zn129 O135 2.035 . S
Zn129 O136 2.028 . S
O130 C126 1.258 . S
O130 Zn131 2.035 . S
Zn131 O130 2.035 . S
Zn131 O132 2.028 . S
Zn131 O134 2.028 . S
Zn131 O137 2.035 . S
O132 Zn131 2.028 . S
O132 C138 1.247 . S
O133 Zn129 2.035 . S
O133 C138 1.258 . S
O134 C127 1.247 . S
O134 Zn131 2.028 . S
O135 C127 1.258 . S
O135 Zn129 2.035 . S
O136 Zn129 2.028 . S
O136 C139 1.247 . S
O137 Zn131 2.035 . S
O137 C139 1.258 . S
C138 O132 1.247 . S
C138 O133 1.258 . S
C139 O136 1.247 . S
C139 O137 1.258 . S
C140 O142 1.247 . S
C140 O144 1.258 . S
C141 O148 1.247 . S
C141 O149 1.258 . S
O142 C140 1.247 . S
O142 Zn143 2.028 . S
Zn143 O142 2.028 . S
Zn143 O147 2.035 . S
Zn143 O149 2.035 . S
Zn143 O150 2.028 . S
O144 C140 1.258 . S
O144 Zn145 2.035 . S
Zn145 O144 2.035 . S
Zn145 O146 2.028 . S
Zn145 O148 2.028 . S
Zn145 O151 2.035 . S
O146 Zn145 2.028 . S
O146 C152 1.247 . S
O147 Zn143 2.035 . S
O147 C152 1.258 . S
O148 C141 1.247 . S
O148 Zn145 2.028 . S
O149 C141 1.258 . S
O149 Zn143 2.035 . S
O150 Zn143 2.028 . S
O150 C153 1.247 . S
O151 Zn145 2.035 . S
O151 C153 1.258 . S
C152 O146 1.247 . S
C152 O147 1.258 . S
C153 O150 1.247 . S
C153 O151 1.258 . S
C154 O156 1.247 . S
C154 O158 1.258 . S
C155 O162 1.247 . S
C155 O163 1.258 . S
O156 C154 1.247 . S
O156 Zn157 2.028 . S
Zn157 O156 2.028 . S
Zn157 O161 2.035 . S
Zn157 O163 2.035 . S
Zn157 O164 2.028 . S
O158 C154 1.258 . S
O158 Zn159 2.035 . S
Zn159 O158 2.035 . S
Zn159 O160 2.028 . S
Zn159 O162 2.028 . S
Zn159 O165 2.035 . S
O160 Zn159 2.028 . S
O160 C166 1.247 . S
O161 Zn157 2.035 . S
O161 C166 1.258 . S
O162 C155 1.247 . S
O162 Zn159 2.028 . S
O163 C155 1.258 . S
O163 Zn157 2.035 . S
O164 Zn157 2.028 . S
O164 C167 1.247 . S
O165 Zn159 2.035 . S
O165 C167 1.258 . S
C166 O160 1.247 . S
C166 O161 1.258 . S
C167 O164 1.247 . S
C167 O165 1.258 . S
C168 O170 1.247 . S
C168 O172 1.258 . S
C169 O176 1.247 . S
C169 O177 1.258 1_455 S
O170 C168 1.247 . S
O170 Zn171 2.028 . S
Zn171 O170 2.028 . S
Zn171 O175 2.035 . S
Zn171 O177 2.035 . S
Zn171 O178 2.028 . S
O172 C168 1.258 . S
O172 Zn173 2.035 1_655 S
Zn173 O172 2.035 1_455 S
Zn173 O174 2.028 . S
Zn173 O176 2.028 . S
Zn173 O179 2.035 . S
O174 Zn173 2.028 . S
O174 C180 1.247 1_455 S
O175 Zn171 2.035 . S
O175 C180 1.258 . S
O176 C169 1.247 . S
O176 Zn173 2.028 . S
O177 C169 1.258 1_655 S
O177 Zn171 2.035 . S
O178 Zn171 2.028 . S
O178 C181 1.247 . S
O179 Zn173 2.035 . S
O179 C181 1.258 1_455 S
C180 O174 1.247 1_655 S
C180 O175 1.258 . S
C181 O178 1.247 . S
C181 O179 1.258 1_655 S
C182 O184 1.247 . S
C182 O186 1.258 . S
C183 O190 1.247 . S
C183 O191 1.258 . S
O184 C182 1.247 . S
O184 Zn185 2.028 . S
Zn185 O184 2.028 . S
Zn185 O189 2.035 . S
Zn185 O191 2.035 . S
Zn185 O192 2.028 . S
O186 C182 1.258 . S
O186 Zn187 2.035 . S
Zn187 O186 2.035 . S
Zn187 O188 2.028 . S
Zn187 O190 2.028 . S
Zn187 O193 2.035 . S
O188 Zn187 2.028 . S
O188 C194 1.247 . S
O189 Zn185 2.035 . S
O189 C194 1.258 . S
O190 C183 1.247 . S
O190 Zn187 2.028 . S
O191 C183 1.258 . S
O191 Zn185 2.035 . S
O192 Zn185 2.028 . S
O192 C195 1.247 . S
O193 Zn187 2.035 . S
O193 C195 1.258 . S
C194 O188 1.247 . S
C194 O189 1.258 . S
C195 O192 1.247 . S
C195 O193 1.258 . S
C196 O198 1.247 . S
C196 O200 1.258 . S
C197 O204 1.247 . S
C197 O205 1.258 . S
O198 C196 1.247 . S
O198 Zn199 2.028 . S
Zn199 O198 2.028 . S
Zn199 O203 2.035 . S
Zn199 O205 2.035 1_554 S
Zn199 O206 2.028 . S
O200 C196 1.258 . S
O200 Zn201 2.035 . S
Zn201 O200 2.035 . S
Zn201 O202 2.028 . S
Zn201 O204 2.028 1_554 S
Zn201 O207 2.035 . S
O202 Zn201 2.028 . S
O202 C208 1.247 . S
O203 Zn199 2.035 . S
O203 C208 1.258 . S
O204 C197 1.247 . S
O204 Zn201 2.028 1_556 S
O205 C197 1.258 . S
O205 Zn199 2.035 1_556 S
O206 Zn199 2.028 . S
O206 C209 1.247 . S
O207 Zn201 2.035 . S
O207 C209 1.258 . S
C208 O202 1.247 . S
C208 O203 1.258 . S
C209 O206 1.247 . S
C209 O207 1.258 . S
C210 O212 1.247 . S
C210 O214 1.258 . S
C211 O218 1.247 . S
C211 O219 1.258 . S
O212 C210 1.247 . S
O212 Zn213 2.028 . S
Zn213 O212 2.028 . S
Zn213 O217 2.035 . S
Zn213 O219 2.035 . S
Zn213 O220 2.028 . S
O214 C210 1.258 . S
O214 Zn215 2.035 . S
Zn215 O214 2.035 . S
Zn215 O216 2.028 . S
Zn215 O218 2.028 . S
Zn215 O221 2.035 . S
O216 Zn215 2.028 . S
O216 C222 1.247 . S
O217 Zn213 2.035 . S
O217 C222 1.258 . S
O218 C211 1.247 . S
O218 Zn215 2.028 . S
O219 C211 1.258 . S
O219 Zn213 2.035 . S
O220 Zn213 2.028 . S
O220 C223 1.247 . S
O221 Zn215 2.035 . S
O221 C223 1.258 . S
C222 O216 1.247 . S
C222 O217 1.258 . S
C223 O220 1.247 . S
C223 O221 1.258 . S
C224 O226 1.247 . S
C224 O228 1.258 . S
C225 O232 1.247 . S
C225 O233 1.258 . S
O226 C224 1.247 . S
O226 Zn227 2.028 . S
Zn227 O226 2.028 . S
Zn227 O231 2.035 . S
Zn227 O233 2.035 . S
Zn227 O234 2.028 . S
O228 C224 1.258 . S
O228 Zn229 2.035 . S
Zn229 O228 2.035 . S
Zn229 O230 2.028 . S
Zn229 O232 2.028 . S
Zn229 O235 2.035 . S
O230 Zn229 2.028 . S
O230 C236 1.247 . S
O231 Zn227 2.035 . S
O231 C236 1.258 . S
O232 C225 1.247 . S
O232 Zn229 2.028 . S
O233 C225 1.258 . S
O233 Zn227 2.035 . S
O234 Zn227 2.028 . S
O234 C237 1.247 . S
O235 Zn229 2.035 . S
O235 C237 1.258 . S
C236 O230 1.247 . S
C236 O231 1.258 . S
C237 O234 1.247 . S
C237 O235 1.258 . S
C238 O240 1.247 . S
C238 O242 1.258 . S
C239 O246 1.247 . S
C239 O247 1.258 . S
O240 C238 1.247 . S
O240 Zn241 2.028 . S
Zn241 O240 2.028 . S
Zn241 O245 2.035 . S
Zn241 O247 2.035 . S
Zn241 O248 2.028 . S
O242 C238 1.258 . S
O242 Zn243 2.035 . S
Zn243 O242 2.035 . S
Zn243 O244 2.028 . S
Zn243 O246 2.028 . S
Zn243 O249 2.035 . S
O244 Zn243 2.028 . S
O244 C250 1.247 . S
O245 Zn241 2.035 . S
O245 C250 1.258 . S
O246 C239 1.247 . S
O246 Zn243 2.028 . S
O247 C239 1.258 . S
O247 Zn241 2.035 . S
O248 Zn241 2.028 . S
O248 C251 1.247 . S
O249 Zn243 2.035 . S
O249 C251 1.258 . S
C250 O244 1.247 . S
C250 O245 1.258 . S
C251 O248 1.247 . S
C251 O249 1.258 . S
C252 O254 1.247 . S
C252 O256 1.258 1_655 S
C253 O260 1.247 1_655 S
C253 O261 1.258 . S
O254 C252 1.247 . S
O254 Zn255 2.028 1_556 S
Zn255 O254 2.028 1_554 S
Zn255 O259 2.035 . S
Zn255 O261 2.035 . S
Zn255 O262 2.028 . S
O256 C252 1.258 1_455 S
O256 Zn257 2.035 1_556 S
Zn257 O256 2.035 1_554 S
Zn257 O258 2.028 1_455 S
Zn257 O260 2.028 . S
Zn257 O263 2.035 . S
O258 Zn257 2.028 1_655 S
O258 C264 1.247 . S
O259 Zn255 2.035 . S
O259 C264 1.258 . S
O260 C253 1.247 1_455 S
O260 Zn257 2.028 . S
O261 C253 1.258 . S
O261 Zn255 2.035 . S
O262 Zn255 2.028 . S
O262 C265 1.247 1_655 S
O263 Zn257 2.035 . S
O263 C265 1.258 . S
C264 O258 1.247 . S
C264 O259 1.258 . S
C265 O262 1.247 1_455 S
C265 O263 1.258 . S
C266 O268 1.247 . S
C266 O270 1.258 . S
C267 O274 1.247 . S
C267 O275 1.258 . S
O268 C266 1.247 . S
O268 Zn269 2.028 . S
Zn269 O268 2.028 . S
Zn269 O273 2.035 . S
Zn269 O275 2.035 . S
Zn269 O276 2.028 . S
O270 C266 1.258 . S
O270 Zn271 2.035 . S
Zn271 O270 2.035 . S
Zn271 O272 2.028 . S
Zn271 O274 2.028 . S
Zn271 O277 2.035 . S
O272 Zn271 2.028 . S
O272 C278 1.247 . S
O273 Zn269 2.035 . S
O273 C278 1.258 . S
O274 C267 1.247 . S
O274 Zn271 2.028 . S
O275 C267 1.258 . S
O275 Zn269 2.035 . S
O276 Zn269 2.028 . S
O276 C279 1.247 . S
O277 Zn271 2.035 . S
O277 C279 1.258 . S
C278 O272 1.247 . S
C278 O273 1.258 . S
C279 O276 1.247 . S
C279 O277 1.258 . S
C280 O282 1.247 . S
C280 O284 1.258 . S
C281 O288 1.247 . S
C281 O289 1.258 . S
O282 C280 1.247 . S
O282 Zn283 2.028 1_554 S
Zn283 O282 2.028 1_556 S
Zn283 O287 2.035 . S
Zn283 O289 2.035 . S
Zn283 O290 2.028 . S
O284 C280 1.258 . S
O284 Zn285 2.035 1_554 S
Zn285 O284 2.035 1_556 S
Zn285 O286 2.028 . S
Zn285 O288 2.028 . S
Zn285 O291 2.035 . S
O286 Zn285 2.028 . S
O286 C292 1.247 . S
O287 Zn283 2.035 . S
O287 C292 1.258 . S
O288 C281 1.247 . S
O288 Zn285 2.028 . S
O289 C281 1.258 . S
O289 Zn283 2.035 . S
O290 Zn283 2.028 . S
O290 C293 1.247 . S
O291 Zn285 2.035 . S
O291 C293 1.258 . S
C292 O286 1.247 . S
C292 O287 1.258 . S
C293 O290 1.247 . S
C293 O291 1.258 . S
C294 O296 1.247 . S
C294 O298 1.258 . S
C295 O302 1.247 . S
C295 O303 1.258 . S
O296 C294 1.247 . S
O296 Zn297 2.028 . S
Zn297 O296 2.028 . S
Zn297 O301 2.035 . S
Zn297 O303 2.035 . S
Zn297 O304 2.028 . S
O298 C294 1.258 . S
O298 Zn299 2.035 . S
Zn299 O298 2.035 . S
Zn299 O300 2.028 . S
Zn299 O302 2.028 . S
Zn299 O305 2.035 . S
O300 Zn299 2.028 . S
O300 C306 1.247 . S
O301 Zn297 2.035 . S
O301 C306 1.258 . S
O302 C295 1.247 . S
O302 Zn299 2.028 . S
O303 C295 1.258 . S
O303 Zn297 2.035 . S
O304 Zn297 2.028 . S
O304 C307 1.247 . S
O305 Zn299 2.035 . S
O305 C307 1.258 . S
C306 O300 1.247 . S
C306 O301 1.258 . S
C307 O304 1.247 . S
C307 O305 1.258 . S
C308 O310 1.247 . S
C308 O312 1.258 . S
C309 O316 1.247 1_455 S
C309 O317 1.258 . S
O310 C308 1.247 . S
O310 Zn311 2.028 1_655 S
Zn311 O310 2.028 1_455 S
Zn311 O315 2.035 . S
Zn311 O317 2.035 . S
Zn311 O318 2.028 . S
O312 C308 1.258 . S
O312 Zn313 2.035 . S
Zn313 O312 2.035 . S
Zn313 O314 2.028 . S
Zn313 O316 2.028 . S
Zn313 O319 2.035 . S
O314 Zn313 2.028 . S
O314 C320 1.247 . S
O315 Zn311 2.035 . S
O315 C320 1.258 1_455 S
O316 C309 1.247 1_655 S
O316 Zn313 2.028 . S
O317 C309 1.258 . S
O317 Zn311 2.035 . S
O318 Zn311 2.028 . S
O318 C321 1.247 1_455 S
O319 Zn313 2.035 . S
O319 C321 1.258 . S
C320 O314 1.247 . S
C320 O315 1.258 1_655 S
C321 O318 1.247 1_655 S
C321 O319 1.258 . S
C322 O324 1.247 . S
C322 O326 1.258 . S
C323 O330 1.247 . S
C323 O331 1.258 . S
O324 C322 1.247 . S
O324 Zn325 2.028 . S
Zn325 O324 2.028 . S
Zn325 O329 2.035 . S
Zn325 O331 2.035 . S
Zn325 O332 2.028 . S
O326 C322 1.258 . S
O326 Zn327 2.035 . S
Zn327 O326 2.035 . S
Zn327 O328 2.028 . S
Zn327 O330 2.028 . S
Zn327 O333 2.035 . S
O328 Zn327 2.028 . S
O328 C334 1.247 . S
O329 Zn325 2.035 . S
O329 C334 1.258 . S
O330 C323 1.247 . S
O330 Zn327 2.028 . S
O331 C323 1.258 . S
O331 Zn325 2.035 . S
O332 Zn325 2.028 . S
O332 C335 1.247 . S
O333 Zn327 2.035 . S
O333 C335 1.258 . S
C334 O328 1.247 . S
C334 O329 1.258 . S
C335 O332 1.247 . S
C335 O333 1.258 . S
C336 O338 1.247 . S
C336 O340 1.258 . S
C337 O344 1.247 . S
C337 O345 1.258 . S
O338 C336 1.247 . S
O338 Zn339 2.028 . S
Zn339 O338 2.028 . S
Zn339 O343 2.035 . S
Zn339 O345 2.035 . S
Zn339 O346 2.028 . S
O340 C336 1.258 . S
O340 Zn341 2.035 . S
Zn341 O340 2.035 . S
Zn341 O342 2.028 . S
Zn341 O344 2.028 . S
Zn341 O347 2.035 . S
O342 Zn341 2.028 . S
O342 C348 1.247 . S
O343 Zn339 2.035 . S
O343 C348 1.258 . S
O344 C337 1.247 . S
O344 Zn341 2.028 . S
O345 C337 1.258 . S
O345 Zn339 2.035 . S
O346 Zn339 2.028 . S
O346 C349 1.247 . S
O347 Zn341 2.035 . S
O347 C349 1.258 . S
C348 O342 1.247 . S
C348 O343 1.258 . S
C349 O346 1.247 . S
C349 O347 1.258 . S
C350 O352 1.247 . S
C350 O354 1.258 . S
C351 O358 1.247 . S
C351 O359 1.258 . S
O352 C350 1.247 . S
O352 Zn353 2.028 . S
Zn353 O352 2.028 . S
Zn353 O357 2.035 . S
Zn353 O359 2.035 . S
Zn353 O360 2.028 . S
O354 C350 1.258 . S
O354 Zn355 2.035 . S
Zn355 O354 2.035 . S
Zn355 O356 2.028 . S
Zn355 O358 2.028 . S
Zn355 O361 2.035 . S
O356 Zn355 2.028 . S
O356 C362 1.247 . S
O357 Zn353 2.035 . S
O357 C362 1.258 . S
O358 C351 1.247 . S
O358 Zn355 2.028 . S
O359 C351 1.258 . S
O359 Zn353 2.035 . S
O360 Zn353 2.028 . S
O360 C363 1.247 . S
O361 Zn355 2.035 . S
O361 C363 1.258 . S
C362 O356 1.247 . S
C362 O357 1.258 . S
C363 O360 1.247 . S
C363 O361 1.258 . S
C364 O366 1.247 . S
C364 O368 1.258 . S
C365 O372 1.247 . S
C365 O373 1.258 1_655 S
O366 C364 1.247 . S
O366 Zn367 2.028 . S
Zn367 O366 2.028 . S
Zn367 O371 2.035 1_556 S
Zn367 O373 2.035 . S
Zn367 O374 2.028 . S
O368 C364 1.258 . S
O368 Zn369 2.035 1_455 S
Zn369 O368 2.035 1_655 S
Zn369 O370 2.028 1_556 S
Zn369 O372 2.028 . S
Zn369 O375 2.035 . S
O370 Zn369 2.028 1_554 S
O370 C376 1.247 1_655 S
O371 Zn367 2.035 1_554 S
O371 C376 1.258 . S
O372 C365 1.247 . S
O372 Zn369 2.028 . S
O373 C365 1.258 1_455 S
O373 Zn367 2.035 . S
O374 Zn367 2.028 . S
O374 C377 1.247 . S
O375 Zn369 2.035 . S
O375 C377 1.258 1_655 S
C376 O370 1.247 1_455 S
C376 O371 1.258 . S
C377 O374 1.247 . S
C377 O375 1.258 1_455 S
C378 O380 1.247 . S
C378 O382 1.258 . S
C379 O386 1.247 . S
C379 O387 1.258 . S
O380 C378 1.247 . S
O380 Zn381 2.028 . S
Zn381 O380 2.028 . S
Zn381 O385 2.035 . S
Zn381 O387 2.035 . S
Zn381 O388 2.028 . S
O382 C378 1.258 . S
O382 Zn383 2.035 . S
Zn383 O382 2.035 . S
Zn383 O384 2.028 . S
Zn383 O386 2.028 . S
Zn383 O389 2.035 . S
O384 Zn383 2.028 . S
O384 C390 1.247 . S
O385 Zn381 2.035 . S
O385 C390 1.258 . S
O386 C379 1.247 . S
O386 Zn383 2.028 . S
O387 C379 1.258 . S
O387 Zn381 2.035 . S
O388 Zn381 2.028 . S
O388 C391 1.247 . S
O389 Zn383 2.035 . S
O389 C391 1.258 . S
C390 O384 1.247 . S
C390 O385 1.258 . S
C391 O388 1.247 . S
C391 O389 1.258 . S
C392 O394 1.247 . S
C392 O396 1.258 . S
C393 O400 1.247 . S
C393 O401 1.258 . S
O394 C392 1.247 . S
O394 Zn395 2.028 . S
Zn395 O394 2.028 . S
Zn395 O399 2.035 . S
Zn395 O401 2.035 1_554 S
Zn395 O402 2.028 . S
O396 C392 1.258 . S
O396 Zn397 2.035 . S
Zn397 O396 2.035 . S
Zn397 O398 2.028 . S
Zn397 O400 2.028 1_554 S
Zn397 O403 2.035 . S
O398 Zn397 2.028 . S
O398 C404 1.247 . S
O399 Zn395 2.035 . S
O399 C404 1.258 . S
O400 C393 1.247 . S
O400 Zn397 2.028 1_556 S
O401 C393 1.258 . S
O401 Zn395 2.035 1_556 S
O402 Zn395 2.028 . S
O402 C405 1.247 . S
O403 Zn397 2.035 . S
O403 C405 1.258 . S
C404 O398 1.247 . S
C404 O399 1.258 . S
C405 O402 1.247 . S
C405 O403 1.258 . S
C406 O408 1.247 . S
C406 O410 1.258 . S
C407 O414 1.247 . S
C407 O415 1.258 . S
O408 C406 1.247 . S
O408 Zn409 2.028 . S
Zn409 O408 2.028 . S
Zn409 O413 2.035 . S
Zn409 O415 2.035 . S
Zn409 O416 2.028 . S
O410 C406 1.258 . S
O410 Zn411 2.035 . S
Zn411 O410 2.035 . S
Zn411 O412 2.028 . S
Zn411 O414 2.028 . S
Zn411 O417 2.035 . S
O412 Zn411 2.028 . S
O412 C418 1.247 . S
O413 Zn409 2.035 . S
O413 C418 1.258 . S
O414 C407 1.247 . S
O414 Zn411 2.028 . S
O415 C407 1.258 . S
O415 Zn409 2.035 . S
O416 Zn409 2.028 . S
O416 C419 1.247 . S
O417 Zn411 2.035 . S
O417 C419 1.258 . S
C418 O412 1.247 . S
C418 O413 1.258 . S
C419 O416 1.247 . S
C419 O417 1.258 . S
C420 O422 1.247 . S
C420 O424 1.258 . S
C421 O428 1.247 . S
C421 O429 1.258 1_655 S
O422 C420 1.247 . S
O422 Zn423 2.028 . S
Zn423 O422 2.028 . S
Zn423 O427 2.035 . S
Zn423 O429 2.035 . S
Zn423 O430 2.028 . S
O424 C420 1.258 . S
O424 Zn425 2.035 1_455 S
Zn425 O424 2.035 1_655 S
Zn425 O426 2.028 . S
Zn425 O428 2.028 . S
Zn425 O431 2.035 . S
O426 Zn425 2.028 . S
O426 C432 1.247 1_655 S
O427 Zn423 2.035 . S
O427 C432 1.258 . S
O428 C421 1.247 . S
O428 Zn425 2.028 . S
O429 C421 1.258 1_455 S
O429 Zn423 2.035 . S
O430 Zn423 2.028 . S
O430 C433 1.247 . S
O431 Zn425 2.035 . S
O431 C433 1.258 1_655 S
C432 O426 1.247 1_455 S
C432 O427 1.258 . S
C433 O430 1.247 . S
C433 O431 1.258 1_455 S
C434 O436 1.247 . S
C434 O438 1.258 . S
C435 O442 1.247 . S
C435 O443 1.258 . S
O436 C434 1.247 . S
O436 Zn437 2.028 . S
Zn437 O436 2.028 . S
Zn437 O441 2.035 . S
Zn437 O443 2.035 . S
Zn437 O444 2.028 . S
O438 C434 1.258 . S
O438 Zn439 2.035 . S
Zn439 O438 2.035 . S
Zn439 O440 2.028 . S
Zn439 O442 2.028 . S
Zn439 O445 2.035 . S
O440 Zn439 2.028 . S
O440 C446 1.247 . S
O441 Zn437 2.035 . S
O441 C446 1.258 . S
O442 C435 1.247 . S
O442 Zn439 2.028 . S
O443 C435 1.258 . S
O443 Zn437 2.035 . S
O444 Zn437 2.028 . S
O444 C447 1.247 . S
O445 Zn439 2.035 . S
O445 C447 1.258 . S
C446 O440 1.247 . S
C446 O441 1.258 . S
C447 O444 1.247 . S
C447 O445 1.258 . S
H448 C456 0.950 . S
H449 C461 0.950 . S
H450 C458 0.950 . S
H451 C460 0.950 . S
H452 C462 0.950 . S
H453 C464 0.950 . S
H454 C466 0.950 . S
H455 C467 0.950 . S
C456 H448 0.950 . S
C456 C457 1.386 1_455 S
C456 C458 1.391 . S
C457 C456 1.386 1_655 S
C457 C461 1.393 . S
C458 H450 0.950 . S
C458 C456 1.391 . S
C458 C459 1.366 1_455 S
C459 C458 1.366 1_655 S
C459 C460 1.446 . S
C459 C465 1.479 1_655 S
C460 H451 0.950 . S
C460 C459 1.446 . S
C460 C461 1.391 . S
C461 H449 0.950 . S
C461 C457 1.393 . S
C461 C460 1.391 . S
C462 H452 0.950 . S
C462 C463 1.386 1_655 S
C462 C464 1.391 . S
C463 C462 1.386 1_455 S
C463 C467 1.393 . S
C464 H453 0.950 . S
C464 C462 1.391 . S
C464 C465 1.400 1_655 S
C465 C459 1.479 1_455 S
C465 C464 1.400 1_455 S
C465 C466 1.398 . S
C466 H454 0.950 . S
C466 C465 1.398 . S
C466 C467 1.391 . S
C467 H455 0.950 . S
C467 C463 1.393 . S
C467 C466 1.391 . S
H468 C476 0.950 . S
H469 C481 0.950 . S
H470 C478 0.950 . S
H471 C480 0.950 . S
H472 C482 0.950 . S
H473 C484 0.950 . S
H474 C486 0.950 . S
H475 C487 0.950 . S
C476 H468 0.950 . S
C476 C477 1.386 . S
C476 C478 1.391 1_556 S
C477 C476 1.386 . S
C477 C481 1.393 . S
C478 H470 0.950 . S
C478 C476 1.391 1_554 S
C478 C479 1.400 . S
C479 C478 1.400 . S
C479 C480 1.398 . S
C479 C485 1.491 . S
C480 H471 0.950 . S
C480 C479 1.398 . S
C480 C481 1.391 1_554 S
C481 H469 0.950 . S
C481 C477 1.393 . S
C481 C480 1.391 1_556 S
C482 H472 0.950 . S
C482 C483 1.386 . S
C482 C484 1.391 . S
C483 C482 1.386 . S
C483 C487 1.393 . S
C484 H473 0.950 . S
C484 C482 1.391 . S
C484 C485 1.400 . S
C485 C479 1.491 . S
C485 C484 1.400 . S
C485 C486 1.398 . S
C486 H474 0.950 . S
C486 C485 1.398 . S
C486 C487 1.391 . S
C487 H475 0.950 . S
C487 C483 1.393 . S
C487 C486 1.391 . S
H488 C496 0.950 . S
H489 C501 0.950 . S
H490 C498 0.950 . S
H491 C500 0.950 . S
H492 C502 0.950 . S
H493 C504 0.950 . S
H494 C506 0.950 . S
H495 C507 0.950 . S
C496 H488 0.950 . S
C496 C497 1.386 . S
C496 C498 1.391 . S
C497 C496 1.386 . S
C497 C501 1.393 . S
C498 H490 0.950 . S
C498 C496 1.391 . S
C498 C499 1.400 . S
C499 C498 1.400 . S
C499 C500 1.398 . S
C499 C505 1.491 . S
C500 H491 0.950 . S
C500 C499 1.398 . S
C500 C501 1.391 . S
C501 H489 0.950 . S
C501 C497 1.393 . S
C501 C500 1.391 . S
C502 H492 0.950 . S
C502 C503 1.386 . S
C502 C504 1.391 . S
C503 C502 1.386 . S
C503 C507 1.393 . S
C504 H493 0.950 . S
C504 C502 1.391 . S
C504 C505 1.400 . S
C505 C499 1.491 . S
C505 C504 1.400 . S
C505 C506 1.398 . S
C506 H494 0.950 . S
C506 C505 1.398 . S
C506 C507 1.391 . S
C507 H495 0.950 . S
C507 C503 1.393 . S
C507 C506 1.391 . S
H508 C516 0.950 . S
H509 C521 0.950 . S
H510 C518 0.950 . S
H511 C520 0.950 . S
H512 C522 0.950 . S
H513 C524 0.950 . S
H514 C526 0.950 . S
H515 C527 0.950 . S
C516 H508 0.950 . S
C516 C517 1.386 . S
C516 C518 1.391 . S
C517 C516 1.386 . S
C517 C521 1.393 . S
C518 H510 0.950 . S
C518 C516 1.391 . S
C518 C519 1.400 . S
C519 C518 1.400 . S
C519 C520 1.398 . S
C519 C525 1.491 . S
C520 H511 0.950 . S
C520 C519 1.398 . S
C520 C521 1.391 . S
C521 H509 0.950 . S
C521 C517 1.393 . S
C521 C520 1.391 . S
C522 H512 0.950 . S
C522 C523 1.386 . S
C522 C524 1.391 . S
C523 C522 1.386 . S
C523 C527 1.393 . S
C524 H513 0.950 . S
C524 C522 1.391 . S
C524 C525 1.400 . S
C525 C519 1.491 . S
C525 C524 1.400 . S
C525 C526 1.398 . S
C526 H514 0.950 . S
C526 C525 1.398 . S
C526 C527 1.391 . S
C527 H515 0.950 . S
C527 C523 1.393 . S
C527 C526 1.391 . S
H528 C536 0.950 . S
H529 C541 0.950 . S
H530 C538 0.950 . S
H531 C540 0.950 . S
H532 C542 0.950 . S
H533 C544 0.950 . S
H534 C546 0.950 . S
H535 C547 0.950 . S
C536 H528 0.950 . S
C536 C537 1.386 1_455 S
C536 C538 1.391 . S
C537 C536 1.386 1_655 S
C537 C541 1.393 . S
C538 H530 0.950 . S
C538 C536 1.391 . S
C538 C539 1.377 1_455 S
C539 C538 1.377 1_655 S
C539 C540 1.428 . S
C539 C545 1.485 1_655 S
C540 H531 0.950 . S
C540 C539 1.428 . S
C540 C541 1.391 . S
C541 H529 0.950 . S
C541 C537 1.393 . S
C541 C540 1.391 . S
C542 H532 0.950 . S
C542 C543 1.386 1_655 S
C542 C544 1.391 . S
C543 C542 1.386 1_455 S
C543 C547 1.393 . S
C544 H533 0.950 . S
C544 C542 1.391 . S
C544 C545 1.400 1_655 S
C545 C539 1.485 1_455 S
C545 C544 1.400 1_455 S
C545 C546 1.398 . S
C546 H534 0.950 . S
C546 C545 1.398 . S
C546 C547 1.391 . S
C547 H535 0.950 . S
C547 C543 1.393 . S
C547 C546 1.391 . S
H548 C556 0.950 . S
H549 C561 0.950 . S
H550 C558 0.950 . S
H551 C560 0.950 . S
H552 C562 0.950 . S
H553 C564 0.950 . S
H554 C566 0.950 . S
H555 C567 0.950 . S
C556 H548 0.950 . S
C556 C557 1.386 . S
C556 C558 1.391 . S
C557 C556 1.386 . S
C557 C561 1.393 . S
C558 H550 0.950 . S
C558 C556 1.391 . S
C558 C559 1.400 . S
C559 C558 1.400 . S
C559 C560 1.398 . S
C559 C565 1.491 . S
C560 H551 0.950 . S
C560 C559 1.398 . S
C560 C561 1.391 . S
C561 H549 0.950 . S
C561 C557 1.393 . S
C561 C560 1.391 . S
C562 H552 0.950 . S
C562 C563 1.386 . S
C562 C564 1.391 1_554 S
C563 C562 1.386 . S
C563 C567 1.393 . S
C564 H553 0.950 . S
C564 C562 1.391 1_556 S
C564 C565 1.400 . S
C565 C559 1.491 . S
C565 C564 1.400 . S
C565 C566 1.398 . S
C566 H554 0.950 . S
C566 C565 1.398 . S
C566 C567 1.391 1_556 S
C567 H555 0.950 . S
C567 C563 1.393 . S
C567 C566 1.391 1_554 S
H568 C576 0.950 . S
H569 C581 0.950 . S
H570 C578 0.950 . S
H571 C580 0.950 . S
H572 C582 0.950 . S
H573 C584 0.950 . S
H574 C586 0.950 . S
H575 C587 0.950 . S
C576 H568 0.950 . S
C576 C577 1.386 . S
C576 C578 1.391 . S
C577 C576 1.386 . S
C577 C581 1.393 . S
C578 H570 0.950 . S
C578 C576 1.391 . S
C578 C579 1.400 . S
C579 C578 1.400 . S
C579 C580 1.398 . S
C579 C585 1.491 . S
C580 H571 0.950 . S
C580 C579 1.398 . S
C580 C581 1.391 . S
C581 H569 0.950 . S
C581 C577 1.393 . S
C581 C580 1.391 . S
C582 H572 0.950 . S
C582 C583 1.386 . S
C582 C584 1.391 . S
C583 C582 1.386 . S
C583 C587 1.393 . S
C584 H573 0.950 . S
C584 C582 1.391 . S
C584 C585 1.400 . S
C585 C579 1.491 . S
C585 C584 1.400 . S
C585 C586 1.398 . S
C586 H574 0.950 . S
C586 C585 1.398 . S
C586 C587 1.391 . S
C587 H575 0.950 . S
C587 C583 1.393 . S
C587 C586 1.391 . S
H588 C596 0.950 . S
H589 C601 0.950 . S
H590 C598 0.950 . S
H591 C600 0.950 . S
H592 C602 0.950 . S
H593 C604 0.950 . S
H594 C606 0.950 . S
H595 C607 0.950 . S
C596 H588 0.950 . S
C596 C597 1.386 . S
C596 C598 1.391 . S
C597 C596 1.386 . S
C597 C601 1.393 . S
C598 H590 0.950 . S
C598 C596 1.391 . S
C598 C599 1.400 . S
C599 C598 1.400 . S
C599 C600 1.398 . S
C599 C605 1.491 . S
C600 H591 0.950 . S
C600 C599 1.398 . S
C600 C601 1.391 . S
C601 H589 0.950 . S
C601 C597 1.393 . S
C601 C600 1.391 . S
C602 H592 0.950 . S
C602 C603 1.386 . S
C602 C604 1.391 . S
C603 C602 1.386 . S
C603 C607 1.393 . S
C604 H593 0.950 . S
C604 C602 1.391 . S
C604 C605 1.400 . S
C605 C599 1.491 . S
C605 C604 1.400 . S
C605 C606 1.398 . S
C606 H594 0.950 . S
C606 C605 1.398 . S
C606 C607 1.391 . S
C607 H595 0.950 . S
C607 C603 1.393 . S
C607 C606 1.391 . S
H608 C616 0.950 . S
H609 C621 0.950 . S
H610 C618 0.950 . S
H611 C620 0.950 . S
H612 C622 0.950 . S
H613 C624 0.950 . S
H614 C626 0.950 . S
H615 C627 0.950 . S
C616 H608 0.950 . S
C616 C617 1.386 1_655 S
C616 C618 1.391 . S
C617 C616 1.386 1_455 S
C617 C621 1.393 . S
C618 H610 0.950 . S
C618 C616 1.391 . S
C618 C619 1.367 1_655 S
C619 C618 1.367 1_455 S
C619 C620 1.441 . S
C619 C625 1.483 1_455 S
C620 H611 0.950 . S
C620 C619 1.441 . S
C620 C621 1.391 . S
C621 H609 0.950 . S
C621 C617 1.393 . S
C621 C620 1.391 . S
C622 H612 0.950 . S
C622 C623 1.386 1_455 S
C622 C624 1.391 . S
C623 C622 1.386 1_655 S
C623 C627 1.393 . S
C624 H613 0.950 . S
C624 C622 1.391 . S
C624 C625 1.400 1_455 S
C625 C619 1.483 1_655 S
C625 C624 1.400 1_655 S
C625 C626 1.398 . S
C626 H614 0.950 . S
C626 C625 1.398 . S
C626 C627 1.391 . S
C627 H615 0.950 . S
C627 C623 1.393 . S
C627 C626 1.391 . S
H628 C636 0.950 . S
H629 C641 0.950 . S
H630 C638 0.950 . S
H631 C640 0.950 . S
H632 C642 0.950 . S
H633 C644 0.950 . S
H634 C646 0.950 . S
H635 C647 0.950 . S
C636 H628 0.950 . S
C636 C637 1.386 . S
C636 C638 1.391 1_554 S
C637 C636 1.386 . S
C637 C641 1.393 . S
C638 H630 0.950 . S
C638 C636 1.391 1_556 S
C638 C639 1.400 . S
C639 C638 1.400 . S
C639 C640 1.398 . S
C639 C645 1.491 . S
C640 H631 0.950 . S
C640 C639 1.398 . S
C640 C641 1.391 1_556 S
C641 H629 0.950 . S
C641 C637 1.393 . S
C641 C640 1.391 1_554 S
C642 H632 0.950 . S
C642 C643 1.386 . S
C642 C644 1.391 . S
C643 C642 1.386 . S
C643 C647 1.393 . S
C644 H633 0.950 . S
C644 C642 1.391 . S
C644 C645 1.400 . S
C645 C639 1.491 . S
C645 C644 1.400 . S
C645 C646 1.398 . S
C646 H634 0.950 . S
C646 C645 1.398 . S
C646 C647 1.391 . S
C647 H635 0.950 . S
C647 C643 1.393 . S
C647 C646 1.391 . S
H648 C656 0.950 . S
H649 C661 0.950 . S
H650 C658 0.950 . S
H651 C660 0.950 . S
H652 C662 0.950 . S
H653 C664 0.950 . S
H654 C666 0.950 . S
H655 C667 0.950 . S
C656 H648 0.950 . S
C656 C657 1.386 . S
C656 C658 1.391 . S
C657 C656 1.386 . S
C657 C661 1.393 . S
C658 H650 0.950 . S
C658 C656 1.391 . S
C658 C659 1.400 . S
C659 C658 1.400 . S
C659 C660 1.398 . S
C659 C665 1.491 . S
C660 H651 0.950 . S
C660 C659 1.398 . S
C660 C661 1.391 . S
C661 H649 0.950 . S
C661 C657 1.393 . S
C661 C660 1.391 . S
C662 H652 0.950 . S
C662 C663 1.386 . S
C662 C664 1.391 . S
C663 C662 1.386 . S
C663 C667 1.393 . S
C664 H653 0.950 . S
C664 C662 1.391 . S
C664 C665 1.400 . S
C665 C659 1.491 . S
C665 C664 1.400 . S
C665 C666 1.398 . S
C666 H654 0.950 . S
C666 C665 1.398 . S
C666 C667 1.391 . S
C667 H655 0.950 . S
C667 C663 1.393 . S
C667 C666 1.391 . S
H668 C676 0.950 . S
H669 C681 0.950 . S
H670 C678 0.950 . S
H671 C680 0.950 . S
H672 C682 0.950 . S
H673 C684 0.950 . S
H674 C686 0.950 . S
H675 C687 0.950 . S
C676 H668 0.950 . S
C676 C677 1.386 . S
C676 C678 1.391 . S
C677 C676 1.386 . S
C677 C681 1.393 . S
C678 H670 0.950 . S
C678 C676 1.391 . S
C678 C679 1.400 . S
C679 C678 1.400 . S
C679 C680 1.398 . S
C679 C685 1.491 . S
C680 H671 0.950 . S
C680 C679 1.398 . S
C680 C681 1.391 . S
C681 H669 0.950 . S
C681 C677 1.393 . S
C681 C680 1.391 . S
C682 H672 0.950 . S
C682 C683 1.386 . S
C682 C684 1.391 . S
C683 C682 1.386 . S
C683 C687 1.393 . S
C684 H673 0.950 . S
C684 C682 1.391 . S
C684 C685 1.400 . S
C685 C679 1.491 . S
C685 C684 1.400 . S
C685 C686 1.398 . S
C686 H674 0.950 . S
C686 C685 1.398 . S
C686 C687 1.391 . S
C687 H675 0.950 . S
C687 C683 1.393 . S
C687 C686 1.391 . S
H688 C696 0.950 . S
H689 C701 0.950 . S
H690 C698 0.950 . S
H691 C700 0.950 . S
H692 C702 0.950 . S
H693 C704 0.950 . S
H694 C706 0.944 1_655 S
H695 C707 0.950 . S
C696 H688 0.950 . S
C696 C697 1.386 . S
C696 C698 1.391 . S
C697 C696 1.386 . S
C697 C701 1.393 . S
C698 H690 0.950 . S
C698 C696 1.391 . S
C698 C699 1.400 . S
C699 C698 1.400 . S
C699 C700 1.398 . S
C699 C705 1.477 1_655 S
C700 H691 0.950 . S
C700 C699 1.398 . S
C700 C701 1.391 . S
C701 H689 0.950 . S
C701 C697 1.393 . S
C701 C700 1.391 . S
C702 H692 0.950 . S
C702 C703 1.386 . S
C702 C704 1.391 . S
C703 C702 1.386 . S
C703 C707 1.393 . S
C704 H693 0.950 . S
C704 C702 1.391 . S
C704 C705 1.416 . S
C705 C699 1.477 1_455 S
C705 C704 1.416 . S
C705 C706 1.401 . S
C706 H694 0.944 1_455 S
C706 C705 1.401 . S
C706 C707 1.391 . S
C707 H695 0.950 . S
C707 C703 1.393 . S
C707 C706 1.391 . S
H708 C716 0.950 . S
H709 C721 0.950 . S
H710 C718 0.950 . S
H711 C720 0.950 . S
H712 C722 0.950 . S
H713 C724 0.950 . S
H714 C726 0.950 . S
H715 C727 0.950 . S
C716 H708 0.950 . S
C716 C717 1.386 . S
C716 C718 1.391 . S
C717 C716 1.386 . S
C717 C721 1.393 . S
C718 H710 0.950 . S
C718 C716 1.391 . S
C718 C719 1.400 . S
C719 C718 1.400 . S
C719 C720 1.398 . S
C719 C725 1.491 . S
C720 H711 0.950 . S
C720 C719 1.398 . S
C720 C721 1.391 . S
C721 H709 0.950 . S
C721 C717 1.393 . S
C721 C720 1.391 . S
C722 H712 0.950 . S
C722 C723 1.386 . S
C722 C724 1.391 1_556 S
C723 C722 1.386 . S
C723 C727 1.393 . S
C724 H713 0.950 . S
C724 C722 1.391 1_554 S
C724 C725 1.400 . S
C725 C719 1.491 . S
C725 C724 1.400 . S
C725 C726 1.398 . S
C726 H714 0.950 . S
C726 C725 1.398 . S
C726 C727 1.391 1_554 S
C727 H715 0.950 . S
C727 C723 1.393 . S
C727 C726 1.391 1_556 S
H728 C736 0.950 . S
H729 C741 0.950 . S
H730 C738 0.950 . S
H731 C740 0.950 . S
H732 C742 0.950 . S
H733 C744 0.950 . S
H734 C746 0.950 . S
H735 C747 0.950 . S
C736 H728 0.950 . S
C736 C737 1.386 . S
C736 C738 1.391 . S
C737 C736 1.386 . S
C737 C741 1.393 . S
C738 H730 0.950 . S
C738 C736 1.391 . S
C738 C739 1.400 . S
C739 C738 1.400 . S
C739 C740 1.398 . S
C739 C745 1.491 . S
C740 H731 0.950 . S
C740 C739 1.398 . S
C740 C741 1.391 . S
C741 H729 0.950 . S
C741 C737 1.393 . S
C741 C740 1.391 . S
C742 H732 0.950 . S
C742 C743 1.386 . S
C742 C744 1.391 . S
C743 C742 1.386 . S
C743 C747 1.393 . S
C744 H733 0.950 . S
C744 C742 1.391 . S
C744 C745 1.400 . S
C745 C739 1.491 . S
C745 C744 1.400 . S
C745 C746 1.398 . S
C746 H734 0.950 . S
C746 C745 1.398 . S
C746 C747 1.391 . S
C747 H735 0.950 . S
C747 C743 1.393 . S
C747 C746 1.391 . S
H748 C756 0.950 . S
H749 C761 0.950 . S
H750 C758 0.950 . S
H751 C760 0.950 . S
H752 C762 0.950 . S
H753 C764 0.950 . S
H754 C766 0.950 . S
H755 C767 0.950 . S
C756 H748 0.950 . S
C756 C757 1.386 . S
C756 C758 1.391 . S
C757 C756 1.386 . S
C757 C761 1.393 . S
C758 H750 0.950 . S
C758 C756 1.391 . S
C758 C759 1.400 . S
C759 C758 1.400 . S
C759 C760 1.398 . S
C759 C765 1.491 . S
C760 H751 0.950 . S
C760 C759 1.398 . S
C760 C761 1.391 . S
C761 H749 0.950 . S
C761 C757 1.393 . S
C761 C760 1.391 . S
C762 H752 0.950 . S
C762 C763 1.386 . S
C762 C764 1.391 . S
C763 C762 1.386 . S
C763 C767 1.393 . S
C764 H753 0.950 . S
C764 C762 1.391 . S
C764 C765 1.400 . S
C765 C759 1.491 . S
C765 C764 1.400 . S
C765 C766 1.398 . S
C766 H754 0.950 . S
C766 C765 1.398 . S
C766 C767 1.391 . S
C767 H755 0.950 . S
C767 C763 1.393 . S
C767 C766 1.391 . S
H768 C776 0.950 . S
H769 C781 0.950 . S
H770 C778 0.950 . S
H771 C780 0.950 . S
H772 C782 0.950 . S
H773 C784 0.950 . S
H774 C786 0.950 . S
H775 C787 0.950 . S
C776 H768 0.950 . S
C776 C777 1.386 . S
C776 C778 1.391 . S
C777 C776 1.386 . S
C777 C781 1.393 . S
C778 H770 0.950 . S
C778 C776 1.391 . S
C778 C779 1.400 . S
C779 C778 1.400 . S
C779 C780 1.398 . S
C779 C785 1.491 . S
C780 H771 0.950 . S
C780 C779 1.398 . S
C780 C781 1.391 . S
C781 H769 0.950 . S
C781 C777 1.393 . S
C781 C780 1.391 . S
C782 H772 0.950 . S
C782 C783 1.386 . S
C782 C784 1.391 . S
C783 C782 1.386 . S
C783 C787 1.393 . S
C784 H773 0.950 . S
C784 C782 1.391 . S
C784 C785 1.400 . S
C785 C779 1.491 . S
C785 C784 1.400 . S
C785 C786 1.398 . S
C786 H774 0.950 . S
C786 C785 1.398 . S
C786 C787 1.391 . S
C787 H775 0.950 . S
C787 C783 1.393 . S
C787 C786 1.391 . S
H788 C796 0.950 . S
H789 C801 0.950 . S
H790 C798 0.950 . S
H791 C800 0.950 . S
H792 C802 0.950 . S
H793 C804 0.950 . S
H794 C806 0.950 . S
H795 C807 0.950 . S
C796 H788 0.950 . S
C796 C797 1.386 . S
C796 C798 1.391 . S
C797 C796 1.386 . S
C797 C801 1.393 . S
C798 H790 0.950 . S
C798 C796 1.391 . S
C798 C799 1.400 . S
C799 C798 1.400 . S
C799 C800 1.398 . S
C799 C805 1.491 . S
C800 H791 0.950 . S
C800 C799 1.398 . S
C800 C801 1.391 . S
C801 H789 0.950 . S
C801 C797 1.393 . S
C801 C800 1.391 . S
C802 H792 0.950 . S
C802 C803 1.386 . S
C802 C804 1.391 . S
C803 C802 1.386 . S
C803 C807 1.393 . S
C804 H793 0.950 . S
C804 C802 1.391 . S
C804 C805 1.400 . S
C805 C799 1.491 . S
C805 C804 1.400 . S
C805 C806 1.398 . S
C806 H794 0.950 . S
C806 C805 1.398 . S
C806 C807 1.391 . S
C807 H795 0.950 . S
C807 C803 1.393 . S
C807 C806 1.391 . S
H808 C816 0.950 . S
H809 C821 0.950 . S
H810 C818 0.950 . S
H811 C820 0.950 . S
H812 C822 0.950 . S
H813 C824 0.950 . S
H814 C826 0.950 . S
H815 C827 0.950 . S
C816 H808 0.950 . S
C816 C817 1.386 . S
C816 C818 1.391 . S
C817 C816 1.386 . S
C817 C821 1.393 1_455 S
C818 H810 0.950 . S
C818 C816 1.391 . S
C818 C819 1.445 . S
C819 C818 1.445 . S
C819 C820 1.366 1_455 S
C819 C825 1.481 1_455 S
C820 H811 0.950 . S
C820 C819 1.366 1_655 S
C820 C821 1.391 . S
C821 H809 0.950 . S
C821 C817 1.393 1_655 S
C821 C820 1.391 . S
C822 H812 0.950 . S
C822 C823 1.386 . S
C822 C824 1.391 . S
C823 C822 1.386 . S
C823 C827 1.393 1_655 S
C824 H813 0.950 . S
C824 C822 1.391 . S
C824 C825 1.400 . S
C825 C819 1.481 1_655 S
C825 C824 1.400 . S
C825 C826 1.398 1_655 S
C826 H814 0.950 . S
C826 C825 1.398 1_455 S
C826 C827 1.391 . S
C827 H815 0.950 . S
C827 C823 1.393 1_455 S
C827 C826 1.391 . S
H828 C836 0.950 . S
H829 C841 0.950 . S
H830 C838 0.950 . S
H831 C840 0.950 . S
H832 C842 0.950 . S
H833 C844 0.950 . S
H834 C846 0.950 . S
H835 C847 0.950 . S
C836 H828 0.950 . S
C836 C837 1.386 . S
C836 C838 1.391 . S
C837 C836 1.386 . S
C837 C841 1.393 . S
C838 H830 0.950 . S
C838 C836 1.391 . S
C838 C839 1.400 . S
C839 C838 1.400 . S
C839 C840 1.398 . S
C839 C845 1.491 . S
C840 H831 0.950 . S
C840 C839 1.398 . S
C840 C841 1.391 . S
C841 H829 0.950 . S
C841 C837 1.393 . S
C841 C840 1.391 . S
C842 H832 0.950 . S
C842 C843 1.386 . S
C842 C844 1.391 1_556 S
C843 C842 1.386 . S
C843 C847 1.393 . S
C844 H833 0.950 . S
C844 C842 1.391 1_554 S
C844 C845 1.400 . S
C845 C839 1.491 . S
C845 C844 1.400 . S
C845 C846 1.398 . S
C846 H834 0.950 . S
C846 C845 1.398 . S
C846 C847 1.391 1_554 S
C847 H835 0.950 . S
C847 C843 1.393 . S
C847 C846 1.391 1_556 S
H848 C856 0.950 . S
H849 C861 0.950 . S
H850 C858 0.950 . S
H851 C860 0.950 . S
H852 C862 0.950 . S
H853 C864 0.950 . S
H854 C866 0.950 . S
H855 C867 0.950 . S
C856 H848 0.950 . S
C856 C857 1.386 . S
C856 C858 1.391 . S
C857 C856 1.386 . S
C857 C861 1.393 . S
C858 H850 0.950 . S
C858 C856 1.391 . S
C858 C859 1.400 . S
C859 C858 1.400 . S
C859 C860 1.398 . S
C859 C865 1.491 . S
C860 H851 0.950 . S
C860 C859 1.398 . S
C860 C861 1.391 . S
C861 H849 0.950 . S
C861 C857 1.393 . S
C861 C860 1.391 . S
C862 H852 0.950 . S
C862 C863 1.386 . S
C862 C864 1.391 . S
C863 C862 1.386 . S
C863 C867 1.393 . S
C864 H853 0.950 . S
C864 C862 1.391 . S
C864 C865 1.400 . S
C865 C859 1.491 . S
C865 C864 1.400 . S
C865 C866 1.398 . S
C866 H854 0.950 . S
C866 C865 1.398 . S
C866 C867 1.391 . S
C867 H855 0.950 . S
C867 C863 1.393 . S
C867 C866 1.391 . S
H868 C876 0.950 . S
H869 C881 0.950 . S
H870 C878 0.950 . S
H871 C880 0.950 . S
H872 C882 0.950 . S
H873 C884 0.950 . S
H874 C886 0.950 . S
H875 C887 0.950 . S
C876 H868 0.950 . S
C876 C877 1.386 . S
C876 C878 1.391 . S
C877 C876 1.386 . S
C877 C881 1.393 . S
C878 H870 0.950 . S
C878 C876 1.391 . S
C878 C879 1.400 . S
C879 C878 1.400 . S
C879 C880 1.398 . S
C879 C885 1.491 . S
C880 H871 0.950 . S
C880 C879 1.398 . S
C880 C881 1.391 . S
C881 H869 0.950 . S
C881 C877 1.393 . S
C881 C880 1.391 . S
C882 H872 0.950 . S
C882 C883 1.386 . S
C882 C884 1.391 . S
C883 C882 1.386 . S
C883 C887 1.393 . S
C884 H873 0.950 . S
C884 C882 1.391 . S
C884 C885 1.400 . S
C885 C879 1.491 . S
C885 C884 1.400 . S
C885 C886 1.398 . S
C886 H874 0.950 . S
C886 C885 1.398 . S
C886 C887 1.391 . S
C887 H875 0.950 . S
C887 C883 1.393 . S
C887 C886 1.391 . S
H888 C896 0.950 . S
H889 C901 0.950 . S
H890 C898 0.950 . S
H891 C900 0.950 . S
H892 C902 0.950 . S
H893 C904 0.950 . S
H894 C906 0.950 . S
H895 C907 0.950 . S
C896 H888 0.950 . S
C896 C897 1.386 1_655 S
C896 C898 1.391 . S
C897 C896 1.386 1_455 S
C897 C901 1.393 . S
C898 H890 0.950 . S
C898 C896 1.391 . S
C898 C899 1.363 1_655 S
C899 C898 1.363 1_455 S
C899 C900 1.448 . S
C899 C905 1.481 1_455 S
C900 H891 0.950 . S
C900 C899 1.448 . S
C900 C901 1.391 . S
C901 H889 0.950 . S
C901 C897 1.393 . S
C901 C900 1.391 . S
C902 H892 0.950 . S
C902 C903 1.386 1_455 S
C902 C904 1.391 . S
C903 C902 1.386 1_655 S
C903 C907 1.393 . S
C904 H893 0.950 . S
C904 C902 1.391 . S
C904 C905 1.400 1_455 S
C905 C899 1.481 1_655 S
C905 C904 1.400 1_655 S
C905 C906 1.398 . S
C906 H894 0.950 . S
C906 C905 1.398 . S
C906 C907 1.391 . S
C907 H895 0.950 . S
C907 C903 1.393 . S
C907 C906 1.391 . S
H908 C916 0.950 . S
H909 C921 0.950 . S
H910 C918 0.950 . S
H911 C920 0.950 . S
H912 C922 0.950 . S
H913 C924 0.950 . S
H914 C926 0.950 . S
H915 C927 0.950 . S
C916 H908 0.950 . S
C916 C917 1.386 . S
C916 C918 1.391 1_554 S
C917 C916 1.386 . S
C917 C921 1.393 . S
C918 H910 0.950 . S
C918 C916 1.391 1_556 S
C918 C919 1.400 . S
C919 C918 1.400 . S
C919 C920 1.398 . S
C919 C925 1.491 . S
C920 H911 0.950 . S
C920 C919 1.398 . S
C920 C921 1.391 1_556 S
C921 H909 0.950 . S
C921 C917 1.393 . S
C921 C920 1.391 1_554 S
C922 H912 0.950 . S
C922 C923 1.386 . S
C922 C924 1.391 . S
C923 C922 1.386 . S
C923 C927 1.393 . S
C924 H913 0.950 . S
C924 C922 1.391 . S
C924 C925 1.400 . S
C925 C919 1.491 . S
C925 C924 1.400 . S
C925 C926 1.398 . S
C926 H914 0.950 . S
C926 C925 1.398 . S
C926 C927 1.391 . S
C927 H915 0.950 . S
C927 C923 1.393 . S
C927 C926 1.391 . S
H928 C936 0.950 . S
H929 C941 0.950 . S
H930 C938 0.950 . S
H931 C940 0.950 . S
H932 C942 0.950 . S
H933 C944 0.950 . S
H934 C946 0.950 . S
H935 C947 0.950 . S
C936 H928 0.950 . S
C936 C937 1.386 . S
C936 C938 1.391 . S
C937 C936 1.386 . S
C937 C941 1.393 . S
C938 H930 0.950 . S
C938 C936 1.391 . S
C938 C939 1.400 . S
C939 C938 1.400 . S
C939 C940 1.398 . S
C939 C945 1.491 . S
C940 H931 0.950 . S
C940 C939 1.398 . S
C940 C941 1.391 . S
C941 H929 0.950 . S
C941 C937 1.393 . S
C941 C940 1.391 . S
C942 H932 0.950 . S
C942 C943 1.386 . S
C942 C944 1.391 . S
C943 C942 1.386 . S
C943 C947 1.393 . S
C944 H933 0.950 . S
C944 C942 1.391 . S
C944 C945 1.400 . S
C945 C939 1.491 . S
C945 C944 1.400 . S
C945 C946 1.398 . S
C946 H934 0.950 . S
C946 C945 1.398 . S
C946 C947 1.391 . S
C947 H935 0.950 . S
C947 C943 1.393 . S
C947 C946 1.391 . S
H948 C956 0.950 . S
H949 C961 0.950 . S
H950 C958 0.950 . S
H951 C960 0.950 . S
H952 C962 0.950 . S
H953 C964 0.950 . S
H954 C966 0.950 . S
H955 C967 0.950 . S
C956 H948 0.950 . S
C956 C957 1.386 . S
C956 C958 1.391 . S
C957 C956 1.386 . S
C957 C961 1.393 . S
C958 H950 0.950 . S
C958 C956 1.391 . S
C958 C959 1.400 . S
C959 C958 1.400 . S
C959 C960 1.398 . S
C959 C965 1.491 . S
C960 H951 0.950 . S
C960 C959 1.398 . S
C960 C961 1.391 . S
C961 H949 0.950 . S
C961 C957 1.393 . S
C961 C960 1.391 . S
C962 H952 0.950 . S
C962 C963 1.386 . S
C962 C964 1.391 . S
C963 C962 1.386 . S
C963 C967 1.393 . S
C964 H953 0.950 . S
C964 C962 1.391 . S
C964 C965 1.400 . S
C965 C959 1.491 . S
C965 C964 1.400 . S
C965 C966 1.398 . S
C966 H954 0.950 . S
C966 C965 1.398 . S
C966 C967 1.391 . S
C967 H955 0.950 . S
C967 C963 1.393 . S
C967 C966 1.391 . S
H968 C976 0.950 . S
H969 C981 0.950 1_655 S
H970 C978 0.950 . S
H971 C980 0.950 . S
H972 C982 0.950 . S
H973 C984 0.950 . S
H974 C986 0.950 . S
H975 C987 0.958 . S
C976 H968 0.950 . S
C976 C977 1.386 . S
C976 C978 1.391 . S
C977 C976 1.386 . S
C977 C981 1.393 . S
C978 H970 0.950 . S
C978 C976 1.391 . S
C978 C979 1.400 . S
C979 C978 1.400 . S
C979 C980 1.398 1_455 S
C979 C985 1.478 1_455 S
C980 H971 0.950 . S
C980 C979 1.398 1_655 S
C980 C981 1.391 1_655 S
C981 H969 0.950 1_455 S
C981 C977 1.393 . S
C981 C980 1.391 1_455 S
C982 H972 0.950 . S
C982 C983 1.386 . S
C982 C984 1.391 . S
C983 C982 1.386 . S
C983 C987 1.380 1_655 S
C984 H973 0.950 . S
C984 C982 1.391 . S
C984 C985 1.432 . S
C985 C979 1.478 1_655 S
C985 C984 1.432 . S
C985 C986 1.383 1_655 S
C986 H974 0.950 . S
C986 C985 1.383 1_455 S
C986 C987 1.396 . S
C987 H975 0.958 . S
C987 C983 1.380 1_455 S
C987 C986 1.396 . S
H988 C996 0.950 . S
H989 C1001 0.950 . S
H990 C998 0.950 . S
H991 C1000 0.950 . S
H992 C1002 0.950 . S
H993 C1004 0.950 . S
H994 C1006 0.950 . S
H995 C1007 0.950 . S
C996 H988 0.950 . S
C996 C997 1.386 . S
C996 C998 1.391 . S
C997 C996 1.386 . S
C997 C1001 1.393 . S
C998 H990 0.950 . S
C998 C996 1.391 . S
C998 C999 1.400 . S
C999 C998 1.400 . S
C999 C1000 1.398 . S
C999 C1005 1.491 . S
C1000 H991 0.950 . S
C1000 C999 1.398 . S
C1000 C1001 1.391 . S
C1001 H989 0.950 . S
C1001 C997 1.393 . S
C1001 C1000 1.391 . S
C1002 H992 0.950 . S
C1002 C1003 1.386 . S
C1002 C1004 1.391 1_554 S
C1003 C1002 1.386 . S
C1003 C1007 1.393 . S
C1004 H993 0.950 . S
C1004 C1002 1.391 1_556 S
C1004 C1005 1.400 . S
C1005 C999 1.491 . S
C1005 C1004 1.400 . S
C1005 C1006 1.398 . S
C1006 H994 0.950 . S
C1006 C1005 1.398 . S
C1006 C1007 1.391 1_556 S
C1007 H995 0.950 . S
C1007 C1003 1.393 . S
C1007 C1006 1.391 1_554 S
H1008 C1016 0.950 . S
H1009 C1021 0.950 . S
H1010 C1018 0.950 . S
H1011 C1020 0.950 . S
H1012 C1022 0.950 . S
H1013 C1024 0.950 . S
H1014 C1026 0.950 . S
H1015 C1027 0.950 . S
C1016 H1008 0.950 . S
C1016 C1017 1.386 . S
C1016 C1018 1.391 . S
C1017 C1016 1.386 . S
C1017 C1021 1.393 . S
C1018 H1010 0.950 . S
C1018 C1016 1.391 . S
C1018 C1019 1.400 . S
C1019 C1018 1.400 . S
C1019 C1020 1.398 . S
C1019 C1025 1.491 . S
C1020 H1011 0.950 . S
C1020 C1019 1.398 . S
C1020 C1021 1.391 . S
C1021 H1009 0.950 . S
C1021 C1017 1.393 . S
C1021 C1020 1.391 . S
C1022 H1012 0.950 . S
C1022 C1023 1.386 . S
C1022 C1024 1.391 . S
C1023 C1022 1.386 . S
C1023 C1027 1.393 . S
C1024 H1013 0.950 . S
C1024 C1022 1.391 . S
C1024 C1025 1.400 . S
C1025 C1019 1.491 . S
C1025 C1024 1.400 . S
C1025 C1026 1.398 . S
C1026 H1014 0.950 . S
C1026 C1025 1.398 . S
C1026 C1027 1.391 . S
C1027 H1015 0.950 . S
C1027 C1023 1.393 . S
C1027 C1026 1.391 . S
H1028 C1036 0.950 . S
H1029 C1041 0.950 . S
H1030 C1038 0.950 . S
H1031 C1040 0.950 . S
H1032 C1042 0.950 . S
H1033 C1044 0.950 . S
H1034 C1046 0.950 . S
H1035 C1047 0.950 . S
C1036 H1028 0.950 . S
C1036 C1037 1.386 . S
C1036 C1038 1.391 . S
C1037 C1036 1.386 . S
C1037 C1041 1.393 . S
C1038 H1030 0.950 . S
C1038 C1036 1.391 . S
C1038 C1039 1.400 . S
C1039 C1038 1.400 . S
C1039 C1040 1.398 . S
C1039 C1045 1.491 . S
C1040 H1031 0.950 . S
C1040 C1039 1.398 . S
C1040 C1041 1.391 . S
C1041 H1029 0.950 . S
C1041 C1037 1.393 . S
C1041 C1040 1.391 . S
C1042 H1032 0.950 . S
C1042 C1043 1.386 . S
C1042 C1044 1.391 . S
C1043 C1042 1.386 . S
C1043 C1047 1.393 . S
C1044 H1033 0.950 . S
C1044 C1042 1.391 . S
C1044 C1045 1.400 . S
C1045 C1039 1.491 . S
C1045 C1044 1.400 . S
C1045 C1046 1.398 . S
C1046 H1034 0.950 . S
C1046 C1045 1.398 . S
C1046 C1047 1.391 . S
C1047 H1035 0.950 . S
C1047 C1043 1.393 . S
C1047 C1046 1.391 . S
H1048 C1056 0.950 . S
H1049 C1061 0.950 . S
H1050 C1058 0.950 . S
H1051 C1060 0.950 . S
H1052 C1062 0.950 . S
H1053 C1064 0.950 . S
H1054 C1066 0.950 . S
H1055 C1067 0.950 . S
C1056 H1048 0.950 . S
C1056 C1057 1.386 1_455 S
C1056 C1058 1.391 . S
C1057 C1056 1.386 1_655 S
C1057 C1061 1.393 . S
C1058 H1050 0.950 . S
C1058 C1056 1.391 . S
C1058 C1059 1.373 1_455 S
C1059 C1058 1.373 1_655 S
C1059 C1060 1.442 . S
C1059 C1065 1.478 1_655 S
C1060 H1051 0.950 . S
C1060 C1059 1.442 . S
C1060 C1061 1.391 . S
C1061 H1049 0.950 . S
C1061 C1057 1.393 . S
C1061 C1060 1.391 . S
C1062 H1052 0.950 . S
C1062 C1063 1.386 1_655 S
C1062 C1064 1.391 . S
C1063 C1062 1.386 1_455 S
C1063 C1067 1.393 . S
C1064 H1053 0.950 . S
C1064 C1062 1.391 . S
C1064 C1065 1.400 1_655 S
C1065 C1059 1.478 1_455 S
C1065 C1064 1.400 1_455 S
C1065 C1066 1.398 . S
C1066 H1054 0.950 . S
C1066 C1065 1.398 . S
C1066 C1067 1.391 . S
C1067 H1055 0.950 . S
C1067 C1063 1.393 . S
C1067 C1066 1.391 . S
H1068 C1076 0.950 . S
H1069 C1081 0.950 . S
H1070 C1078 0.950 . S
H1071 C1080 0.950 . S
H1072 C1082 0.950 . S
H1073 C1084 0.950 . S
H1074 C1086 0.950 . S
H1075 C1087 0.950 . S
C1076 H1068 0.950 . S
C1076 C1077 1.386 . S
C1076 C1078 1.391 . S
C1077 C1076 1.386 . S
C1077 C1081 1.393 . S
C1078 H1070 0.950 . S
C1078 C1076 1.391 . S
C1078 C1079 1.400 . S
C1079 C1078 1.400 . S
C1079 C1080 1.398 . S
C1079 C1085 1.491 . S
C1080 H1071 0.950 . S
C1080 C1079 1.398 . S
C1080 C1081 1.391 . S
C1081 H1069 0.950 . S
C1081 C1077 1.393 . S
C1081 C1080 1.391 . S
C1082 H1072 0.950 . S
C1082 C1083 1.386 . S
C1082 C1084 1.391 1_556 S
C1083 C1082 1.386 . S
C1083 C1087 1.393 . S
C1084 H1073 0.950 . S
C1084 C1082 1.391 1_554 S
C1084 C1085 1.400 . S
C1085 C1079 1.491 . S
C1085 C1084 1.400 . S
C1085 C1086 1.398 . S
C1086 H1074 0.950 . S
C1086 C1085 1.398 . S
C1086 C1087 1.391 1_554 S
C1087 H1075 0.950 . S
C1087 C1083 1.393 . S
C1087 C1086 1.391 1_556 S
H1088 C1096 0.953 . S
H1089 C1101 0.950 . S
H1090 C1098 0.950 . S
H1091 C1100 0.950 . S
H1092 C1102 0.953 . S
H1093 C1104 0.950 . S
H1094 C1106 0.950 . S
H1095 C1107 0.950 . S
C1096 H1088 0.953 . S
C1096 C1097 1.386 1_455 S
C1096 C1098 1.391 1_554 S
C1097 C1096 1.386 1_655 S
C1097 C1101 1.393 . S
C1098 H1090 0.950 . S
C1098 C1096 1.391 1_556 S
C1098 C1099 1.400 1_456 S
C1099 C1098 1.400 1_654 S
C1099 C1100 1.398 . S
C1099 C1105 1.491 1_644 S
C1100 H1091 0.950 . S
C1100 C1099 1.398 . S
C1100 C1101 1.391 . S
C1101 H1089 0.950 . S
C1101 C1097 1.393 . S
C1101 C1100 1.391 . S
C1102 H1092 0.953 . S
C1102 C1103 1.386 1_655 S
C1102 C1104 1.391 1_556 S
C1103 C1102 1.386 1_455 S
C1103 C1107 1.393 . S
C1104 H1093 0.950 . S
C1104 C1102 1.391 1_554 S
C1104 C1105 1.400 1_654 S
C1105 C1099 1.491 1_466 S
C1105 C1104 1.400 1_456 S
C1105 C1106 1.398 . S
C1106 H1094 0.950 . S
C1106 C1105 1.398 . S
C1106 C1107 1.391 . S
C1107 H1095 0.950 . S
C1107 C1103 1.393 . S
C1107 C1106 1.391 . S
H1108 C1116 0.950 . S
H1109 C1121 0.950 . S
H1110 C1118 0.950 . S
H1111 C1120 0.950 . S
H1112 C1122 0.950 . S
H1113 C1124 0.950 . S
H1114 C1126 0.950 . S
H1115 C1127 0.950 . S
C1116 H1108 0.950 . S
C1116 C1117 1.386 . S
C1116 C1118 1.391 . S
C1117 C1116 1.386 . S
C1117 C1121 1.393 . S
C1118 H1110 0.950 . S
C1118 C1116 1.391 . S
C1118 C1119 1.400 . S
C1119 C1118 1.400 . S
C1119 C1120 1.398 . S
C1119 C1125 1.491 . S
C1120 H1111 0.950 . S
C1120 C1119 1.398 . S
C1120 C1121 1.391 . S
C1121 H1109 0.950 . S
C1121 C1117 1.393 . S
C1121 C1120 1.391 . S
C1122 H1112 0.950 . S
C1122 C1123 1.386 . S
C1122 C1124 1.391 . S
C1123 C1122 1.386 . S
C1123 C1127 1.393 . S
C1124 H1113 0.950 . S
C1124 C1122 1.391 . S
C1124 C1125 1.400 . S
C1125 C1119 1.491 . S
C1125 C1124 1.400 . S
C1125 C1126 1.398 . S
C1126 H1114 0.950 . S
C1126 C1125 1.398 . S
C1126 C1127 1.391 . S
C1127 H1115 0.950 . S
C1127 C1123 1.393 . S
C1127 C1126 1.391 . S
H1128 C1136 0.950 . S
H1129 C1141 0.950 . S
H1130 C1138 0.950 . S
H1131 C1140 0.950 . S
H1132 C1142 0.950 . S
H1133 C1144 0.950 . S
H1134 C1146 0.950 . S
H1135 C1147 0.950 . S
C1136 H1128 0.950 . S
C1136 C1137 1.386 . S
C1136 C1138 1.391 . S
C1137 C1136 1.386 . S
C1137 C1141 1.393 . S
C1138 H1130 0.950 . S
C1138 C1136 1.391 . S
C1138 C1139 1.400 . S
C1139 C1138 1.400 . S
C1139 C1140 1.398 . S
C1139 C1145 1.491 1_545 S
C1140 H1131 0.950 . S
C1140 C1139 1.398 . S
C1140 C1141 1.391 . S
C1141 H1129 0.950 . S
C1141 C1137 1.393 . S
C1141 C1140 1.391 . S
C1142 H1132 0.950 . S
C1142 C1143 1.386 . S
C1142 C1144 1.391 . S
C1143 C1142 1.386 . S
C1143 C1147 1.393 . S
C1144 H1133 0.950 . S
C1144 C1142 1.391 . S
C1144 C1145 1.400 . S
C1145 C1139 1.491 1_565 S
C1145 C1144 1.400 . S
C1145 C1146 1.398 . S
C1146 H1134 0.950 . S
C1146 C1145 1.398 . S
C1146 C1147 1.391 . S
C1147 H1135 0.950 . S
C1147 C1143 1.393 . S
C1147 C1146 1.391 . S
H1148 C1156 0.950 . S
H1149 C1161 0.950 . S
H1150 C1158 0.950 . S
H1151 C1160 0.950 . S
H1152 C1162 0.950 . S
H1153 C1164 0.950 . S
H1154 C1166 0.950 . S
H1155 C1167 0.950 . S
C1156 H1148 0.950 . S
C1156 C1157 1.386 . S
C1156 C1158 1.391 . S
C1157 C1156 1.386 . S
C1157 C1161 1.393 . S
C1158 H1150 0.950 . S
C1158 C1156 1.391 . S
C1158 C1159 1.400 . S
C1159 C1158 1.400 . S
C1159 C1160 1.398 . S
C1159 C1165 1.491 . S
C1160 H1151 0.950 . S
C1160 C1159 1.398 . S
C1160 C1161 1.391 . S
C1161 H1149 0.950 . S
C1161 C1157 1.393 . S
C1161 C1160 1.391 . S
C1162 H1152 0.950 . S
C1162 C1163 1.386 . S
C1162 C1164 1.391 . S
C1163 C1162 1.386 . S
C1163 C1167 1.393 . S
C1164 H1153 0.950 . S
C1164 C1162 1.391 . S
C1164 C1165 1.400 . S
C1165 C1159 1.491 . S
C1165 C1164 1.400 . S
C1165 C1166 1.398 . S
C1166 H1154 0.950 . S
C1166 C1165 1.398 . S
C1166 C1167 1.391 . S
C1167 H1155 0.950 . S
C1167 C1163 1.393 . S
C1167 C1166 1.391 . S
H1168 C1176 0.942 1_455 S
H1169 C1181 0.950 . S
H1170 C1178 0.950 . S
H1171 C1180 0.950 . S
H1172 C1182 0.942 1_655 S
H1173 C1184 0.950 . S
H1174 C1186 0.950 . S
H1175 C1187 0.950 . S
C1176 H1168 0.942 1_655 S
C1176 C1177 1.401 . S
C1176 C1178 1.386 1_655 S
C1177 C1176 1.401 . S
C1177 C1181 1.393 . S
C1178 H1170 0.950 . S
C1178 C1176 1.386 1_455 S
C1178 C1179 1.395 1_455 S
C1179 C1178 1.395 1_655 S
C1179 C1180 1.412 . S
C1179 C1185 1.484 1_665 S
C1180 H1171 0.950 . S
C1180 C1179 1.412 . S
C1180 C1181 1.391 . S
C1181 H1169 0.950 . S
C1181 C1177 1.393 . S
C1181 C1180 1.391 . S
C1182 H1172 0.942 1_455 S
C1182 C1183 1.401 . S
C1182 C1184 1.386 1_455 S
C1183 C1182 1.401 . S
C1183 C1187 1.393 . S
C1184 H1173 0.950 . S
C1184 C1182 1.386 1_655 S
C1184 C1185 1.395 1_655 S
C1185 C1179 1.484 1_445 S
C1185 C1184 1.395 1_455 S
C1185 C1186 1.412 . S
C1186 H1174 0.950 . S
C1186 C1185 1.412 . S
C1186 C1187 1.391 . S
C1187 H1175 0.950 . S
C1187 C1183 1.393 . S
C1187 C1186 1.391 . S
H1188 C1196 0.950 . S
H1189 C1201 0.950 . S
H1190 C1198 0.950 . S
H1191 C1200 0.950 . S
H1192 C1202 0.950 . S
H1193 C1204 0.950 . S
H1194 C1206 0.950 . S
H1195 C1207 0.950 . S
C1196 H1188 0.950 . S
C1196 C1197 1.386 . S
C1196 C1198 1.391 . S
C1197 C1196 1.386 . S
C1197 C1201 1.393 . S
C1198 H1190 0.950 . S
C1198 C1196 1.391 . S
C1198 C1199 1.400 . S
C1199 C1198 1.400 . S
C1199 C1200 1.398 . S
C1199 C1205 1.491 . S
C1200 H1191 0.950 . S
C1200 C1199 1.398 . S
C1200 C1201 1.391 . S
C1201 H1189 0.950 . S
C1201 C1197 1.393 . S
C1201 C1200 1.391 . S
C1202 H1192 0.950 . S
C1202 C1203 1.386 . S
C1202 C1204 1.391 . S
C1203 C1202 1.386 . S
C1203 C1207 1.393 . S
C1204 H1193 0.950 . S
C1204 C1202 1.391 . S
C1204 C1205 1.400 . S
C1205 C1199 1.491 . S
C1205 C1204 1.400 . S
C1205 C1206 1.398 . S
C1206 H1194 0.950 . S
C1206 C1205 1.398 . S
C1206 C1207 1.391 . S
C1207 H1195 0.950 . S
C1207 C1203 1.393 . S
C1207 C1206 1.391 . S
H1208 C1216 0.950 . S
H1209 C1221 0.950 . S
H1210 C1218 0.954 . S
H1211 C1220 0.950 . S
H1212 C1222 0.950 . S
H1213 C1224 0.954 . S
H1214 C1226 0.950 . S
H1215 C1227 0.950 . S
C1216 H1208 0.950 . S
C1216 C1217 1.386 . S
C1216 C1218 1.391 . S
C1217 C1216 1.386 . S
C1217 C1221 1.393 . S
C1218 H1210 0.954 . S
C1218 C1216 1.391 . S
C1218 C1219 1.400 . S
C1219 C1218 1.400 . S
C1219 C1220 1.398 . S
C1219 C1225 1.491 1_564 S
C1220 H1211 0.950 . S
C1220 C1219 1.398 . S
C1220 C1221 1.391 . S
C1221 H1209 0.950 . S
C1221 C1217 1.393 . S
C1221 C1220 1.391 . S
C1222 H1212 0.950 . S
C1222 C1223 1.386 . S
C1222 C1224 1.391 . S
C1223 C1222 1.386 . S
C1223 C1227 1.393 . S
C1224 H1213 0.954 . S
C1224 C1222 1.391 . S
C1224 C1225 1.400 . S
C1225 C1219 1.491 1_546 S
C1225 C1224 1.400 . S
C1225 C1226 1.398 . S
C1226 H1214 0.950 . S
C1226 C1225 1.398 . S
C1226 C1227 1.391 . S
C1227 H1215 0.950 . S
C1227 C1223 1.393 . S
C1227 C1226 1.391 . S
H1228 C1236 0.950 . S
H1229 C1241 0.950 . S
H1230 C1238 0.950 . S
H1231 C1240 0.950 . S
H1232 C1242 0.950 . S
H1233 C1244 0.950 . S
H1234 C1246 0.950 . S
H1235 C1247 0.950 . S
C1236 H1228 0.950 . S
C1236 C1237 1.386 . S
C1236 C1238 1.391 . S
C1237 C1236 1.386 . S
C1237 C1241 1.393 . S
C1238 H1230 0.950 . S
C1238 C1236 1.391 . S
C1238 C1239 1.400 . S
C1239 C1238 1.400 . S
C1239 C1240 1.398 . S
C1239 C1245 1.491 . S
C1240 H1231 0.950 . S
C1240 C1239 1.398 . S
C1240 C1241 1.391 . S
C1241 H1229 0.950 . S
C1241 C1237 1.393 . S
C1241 C1240 1.391 . S
C1242 H1232 0.950 . S
C1242 C1243 1.386 . S
C1242 C1244 1.391 . S
C1243 C1242 1.386 . S
C1243 C1247 1.393 . S
C1244 H1233 0.950 . S
C1244 C1242 1.391 . S
C1244 C1245 1.400 . S
C1245 C1239 1.491 . S
C1245 C1244 1.400 . S
C1245 C1246 1.398 . S
C1246 H1234 0.950 . S
C1246 C1245 1.398 . S
C1246 C1247 1.391 . S
C1247 H1235 0.950 . S
C1247 C1243 1.393 . S
C1247 C1246 1.391 . S
H1248 C1256 0.950 . S
H1249 C1261 0.950 . S
H1250 C1258 0.950 . S
H1251 C1260 0.950 . S
H1252 C1262 0.950 . S
H1253 C1264 0.950 . S
H1254 C1266 0.950 . S
H1255 C1267 0.950 . S
C1256 H1248 0.950 . S
C1256 C1257 1.386 . S
C1256 C1258 1.391 . S
C1257 C1256 1.386 . S
C1257 C1261 1.393 . S
C1258 H1250 0.950 . S
C1258 C1256 1.391 . S
C1258 C1259 1.400 . S
C1259 C1258 1.400 . S
C1259 C1260 1.398 . S
C1259 C1265 1.491 . S
C1260 H1251 0.950 . S
C1260 C1259 1.398 . S
C1260 C1261 1.391 . S
C1261 H1249 0.950 . S
C1261 C1257 1.393 . S
C1261 C1260 1.391 . S
C1262 H1252 0.950 . S
C1262 C1263 1.386 . S
C1262 C1264 1.391 . S
C1263 C1262 1.386 . S
C1263 C1267 1.393 . S
C1264 H1253 0.950 . S
C1264 C1262 1.391 . S
C1264 C1265 1.400 . S
C1265 C1259 1.491 . S
C1265 C1264 1.400 . S
C1265 C1266 1.398 . S
C1266 H1254 0.950 . S
C1266 C1265 1.398 . S
C1266 C1267 1.391 . S
C1267 H1255 0.950 . S
C1267 C1263 1.393 . S
C1267 C1266 1.391 . S
H1268 C1276 0.950 . S
H1269 C1281 0.950 . S
H1270 C1278 0.950 . S
H1271 C1280 0.950 . S
H1272 C1282 0.950 . S
H1273 C1284 0.950 . S
H1274 C1286 0.950 . S
H1275 C1287 0.950 . S
C1276 H1268 0.950 . S
C1276 C1277 1.386 . S
C1276 C1278 1.391 . S
C1277 C1276 1.386 . S
C1277 C1281 1.393 . S
C1278 H1270 0.950 . S
C1278 C1276 1.391 . S
C1278 C1279 1.400 . S
C1279 C1278 1.400 . S
C1279 C1280 1.398 . S
C1279 C1285 1.491 . S
C1280 H1271 0.950 . S
C1280 C1279 1.398 . S
C1280 C1281 1.391 . S
C1281 H1269 0.950 . S
C1281 C1277 1.393 . S
C1281 C1280 1.391 . S
C1282 H1272 0.950 . S
C1282 C1283 1.386 . S
C1282 C1284 1.391 . S
C1283 C1282 1.386 . S
C1283 C1287 1.393 . S
C1284 H1273 0.950 . S
C1284 C1282 1.391 . S
C1284 C1285 1.400 . S
C1285 C1279 1.491 . S
C1285 C1284 1.400 . S
C1285 C1286 1.398 . S
C1286 H1274 0.950 . S
C1286 C1285 1.398 . S
C1286 C1287 1.391 . S
C1287 H1275 0.950 . S
C1287 C1283 1.393 . S
C1287 C1286 1.391 . S
H1288 C1296 0.950 . S
H1289 C1301 0.950 . S
H1290 C1298 0.950 . S
H1291 C1300 0.950 . S
H1292 C1302 0.950 . S
H1293 C1304 0.950 . S
H1294 C1306 0.950 . S
H1295 C1307 0.950 . S
C1296 H1288 0.950 . S
C1296 C1297 1.386 . S
C1296 C1298 1.391 . S
C1297 C1296 1.386 . S
C1297 C1301 1.393 . S
C1298 H1290 0.950 . S
C1298 C1296 1.391 . S
C1298 C1299 1.400 . S
C1299 C1298 1.400 . S
C1299 C1300 1.398 . S
C1299 C1305 1.491 . S
C1300 H1291 0.950 . S
C1300 C1299 1.398 . S
C1300 C1301 1.391 . S
C1301 H1289 0.950 . S
C1301 C1297 1.393 . S
C1301 C1300 1.391 . S
C1302 H1292 0.950 . S
C1302 C1303 1.386 . S
C1302 C1304 1.391 . S
C1303 C1302 1.386 . S
C1303 C1307 1.393 . S
C1304 H1293 0.950 . S
C1304 C1302 1.391 . S
C1304 C1305 1.400 . S
C1305 C1299 1.491 . S
C1305 C1304 1.400 . S
C1305 C1306 1.398 . S
C1306 H1294 0.950 . S
C1306 C1305 1.398 . S
C1306 C1307 1.391 . S
C1307 H1295 0.950 . S
C1307 C1303 1.393 . S
C1307 C1306 1.391 . S
H1308 C1316 0.950 . S
H1309 C1321 0.950 . S
H1310 C1318 0.950 . S
H1311 C1320 0.950 . S
H1312 C1322 0.950 . S
H1313 C1324 0.950 . S
H1314 C1326 0.950 . S
H1315 C1327 0.950 . S
C1316 H1308 0.950 . S
C1316 C1317 1.386 . S
C1316 C1318 1.391 . S
C1317 C1316 1.386 . S
C1317 C1321 1.393 . S
C1318 H1310 0.950 . S
C1318 C1316 1.391 . S
C1318 C1319 1.400 . S
C1319 C1318 1.400 . S
C1319 C1320 1.398 . S
C1319 C1325 1.491 . S
C1320 H1311 0.950 . S
C1320 C1319 1.398 . S
C1320 C1321 1.391 . S
C1321 H1309 0.950 . S
C1321 C1317 1.393 . S
C1321 C1320 1.391 . S
C1322 H1312 0.950 . S
C1322 C1323 1.386 . S
C1322 C1324 1.391 . S
C1323 C1322 1.386 . S
C1323 C1327 1.393 . S
C1324 H1313 0.950 . S
C1324 C1322 1.391 . S
C1324 C1325 1.400 . S
C1325 C1319 1.491 . S
C1325 C1324 1.400 . S
C1325 C1326 1.398 . S
C1326 H1314 0.950 . S
C1326 C1325 1.398 . S
C1326 C1327 1.391 . S
C1327 H1315 0.950 . S
C1327 C1323 1.393 . S
C1327 C1326 1.391 . S
H1328 C1336 0.950 . S
H1329 C1341 0.950 . S
H1330 C1338 0.950 . S
H1331 C1340 0.950 . S
H1332 C1342 0.950 . S
H1333 C1344 0.950 . S
H1334 C1346 0.950 . S
H1335 C1347 0.950 . S
C1336 H1328 0.950 . S
C1336 C1337 1.386 . S
C1336 C1338 1.391 . S
C1337 C1336 1.386 . S
C1337 C1341 1.393 . S
C1338 H1330 0.950 . S
C1338 C1336 1.391 . S
C1338 C1339 1.400 . S
C1339 C1338 1.400 . S
C1339 C1340 1.398 . S
C1339 C1345 1.491 . S
C1340 H1331 0.950 . S
C1340 C1339 1.398 . S
C1340 C1341 1.391 . S
C1341 H1329 0.950 . S
C1341 C1337 1.393 . S
C1341 C1340 1.391 . S
C1342 H1332 0.950 . S
C1342 C1343 1.386 . S
C1342 C1344 1.391 . S
C1343 C1342 1.386 . S
C1343 C1347 1.393 . S
C1344 H1333 0.950 . S
C1344 C1342 1.391 . S
C1344 C1345 1.400 . S
C1345 C1339 1.491 . S
C1345 C1344 1.400 . S
C1345 C1346 1.398 . S
C1346 H1334 0.950 . S
C1346 C1345 1.398 . S
C1346 C1347 1.391 . S
C1347 H1335 0.950 . S
C1347 C1343 1.393 . S
C1347 C1346 1.391 . S
H1348 C1356 0.950 1_556 S
H1349 C1361 0.950 . S
H1350 C1358 0.950 . S
H1351 C1360 0.950 . S
H1352 C1362 0.950 1_554 S
H1353 C1364 0.950 . S
H1354 C1366 0.950 . S
H1355 C1367 0.950 . S
C1356 H1348 0.950 1_554 S
C1356 C1357 1.386 1_655 S
C1356 C1358 1.391 1_554 S
C1357 C1356 1.386 1_455 S
C1357 C1361 1.393 . S
C1358 H1350 0.950 . S
C1358 C1356 1.391 1_556 S
C1358 C1359 1.400 1_656 S
C1359 C1358 1.400 1_454 S
C1359 C1360 1.398 . S
C1359 C1365 1.491 1_454 S
C1360 H1351 0.950 . S
C1360 C1359 1.398 . S
C1360 C1361 1.391 . S
C1361 H1349 0.950 . S
C1361 C1357 1.393 . S
C1361 C1360 1.391 . S
C1362 H1352 0.950 1_556 S
C1362 C1363 1.386 1_455 S
C1362 C1364 1.391 1_556 S
C1363 C1362 1.386 1_655 S
C1363 C1367 1.393 . S
C1364 H1353 0.950 . S
C1364 C1362 1.391 1_554 S
C1364 C1365 1.400 1_454 S
C1365 C1359 1.491 1_656 S
C1365 C1364 1.400 1_656 S
C1365 C1366 1.398 . S
C1366 H1354 0.950 . S
C1366 C1365 1.398 . S
C1366 C1367 1.391 . S
C1367 H1355 0.950 . S
C1367 C1363 1.393 . S
C1367 C1366 1.391 . S
H1368 C1376 0.950 . S
H1369 C1381 0.950 . S
H1370 C1378 0.950 . S
H1371 C1380 0.950 . S
H1372 C1382 0.950 . S
H1373 C1384 0.950 . S
H1374 C1386 0.950 . S
H1375 C1387 0.950 . S
C1376 H1368 0.950 . S
C1376 C1377 1.386 . S
C1376 C1378 1.391 . S
C1377 C1376 1.386 . S
C1377 C1381 1.393 1_556 S
C1378 H1370 0.950 . S
C1378 C1376 1.391 . S
C1378 C1379 1.400 . S
C1379 C1378 1.400 . S
C1379 C1380 1.398 1_556 S
C1379 C1385 1.491 1_556 S
C1380 H1371 0.950 . S
C1380 C1379 1.398 1_554 S
C1380 C1381 1.391 . S
C1381 H1369 0.950 . S
C1381 C1377 1.393 1_554 S
C1381 C1380 1.391 . S
C1382 H1372 0.950 . S
C1382 C1383 1.386 . S
C1382 C1384 1.391 . S
C1383 C1382 1.386 . S
C1383 C1387 1.393 1_554 S
C1384 H1373 0.950 . S
C1384 C1382 1.391 . S
C1384 C1385 1.400 . S
C1385 C1379 1.491 1_554 S
C1385 C1384 1.400 . S
C1385 C1386 1.398 1_554 S
C1386 H1374 0.950 . S
C1386 C1385 1.398 1_556 S
C1386 C1387 1.391 . S
C1387 H1375 0.950 . S
C1387 C1383 1.393 1_556 S
C1387 C1386 1.391 . S
H1388 C1396 0.950 . S
H1389 C1401 0.950 . S
H1390 C1398 0.950 . S
H1391 C1400 0.950 . S
H1392 C1402 0.950 . S
H1393 C1404 0.950 . S
H1394 C1406 0.950 . S
H1395 C1407 0.950 . S
C1396 H1388 0.950 . S
C1396 C1397 1.386 . S
C1396 C1398 1.391 . S
C1397 C1396 1.386 . S
C1397 C1401 1.393 1_655 S
C1398 H1390 0.950 . S
C1398 C1396 1.391 . S
C1398 C1399 1.400 . S
C1399 C1398 1.400 . S
C1399 C1400 1.398 1_655 S
C1399 C1405 1.491 1_655 S
C1400 H1391 0.950 . S
C1400 C1399 1.398 1_455 S
C1400 C1401 1.391 . S
C1401 H1389 0.950 . S
C1401 C1397 1.393 1_455 S
C1401 C1400 1.391 . S
C1402 H1392 0.950 . S
C1402 C1403 1.386 . S
C1402 C1404 1.391 . S
C1403 C1402 1.386 . S
C1403 C1407 1.393 1_455 S
C1404 H1393 0.950 . S
C1404 C1402 1.391 . S
C1404 C1405 1.400 . S
C1405 C1399 1.491 1_455 S
C1405 C1404 1.400 . S
C1405 C1406 1.398 1_455 S
C1406 H1394 0.950 . S
C1406 C1405 1.398 1_655 S
C1406 C1407 1.391 . S
C1407 H1395 0.950 . S
C1407 C1403 1.393 1_655 S
C1407 C1406 1.391 . S
H1408 C1416 0.950 . S
H1409 C1421 0.950 . S
H1410 C1418 0.950 . S
H1411 C1420 0.950 . S
H1412 C1422 0.950 . S
H1413 C1424 0.950 . S
H1414 C1426 0.950 . S
H1415 C1427 0.950 . S
C1416 H1408 0.950 . S
C1416 C1417 1.386 . S
C1416 C1418 1.391 . S
C1417 C1416 1.386 . S
C1417 C1421 1.393 . S
C1418 H1410 0.950 . S
C1418 C1416 1.391 . S
C1418 C1419 1.400 . S
C1419 C1418 1.400 . S
C1419 C1420 1.398 . S
C1419 C1425 1.491 . S
C1420 H1411 0.950 . S
C1420 C1419 1.398 . S
C1420 C1421 1.391 . S
C1421 H1409 0.950 . S
C1421 C1417 1.393 . S
C1421 C1420 1.391 . S
C1422 H1412 0.950 . S
C1422 C1423 1.386 . S
C1422 C1424 1.391 . S
C1423 C1422 1.386 . S
C1423 C1427 1.393 . S
C1424 H1413 0.950 . S
C1424 C1422 1.391 . S
C1424 C1425 1.400 . S
C1425 C1419 1.491 . S
C1425 C1424 1.400 . S
C1425 C1426 1.398 . S
C1426 H1414 0.950 . S
C1426 C1425 1.398 . S
C1426 C1427 1.391 . S
C1427 H1415 0.950 . S
C1427 C1423 1.393 . S
C1427 C1426 1.391 . S
H1428 C1436 0.950 . S
H1429 C1441 0.950 . S
H1430 C1438 0.950 . S
H1431 C1440 0.950 . S
H1432 C1442 0.950 . S
H1433 C1444 0.950 . S
H1434 C1446 0.950 . S
H1435 C1447 0.950 . S
C1436 H1428 0.950 . S
C1436 C1437 1.386 . S
C1436 C1438 1.391 . S
C1437 C1436 1.386 . S
C1437 C1441 1.393 . S
C1438 H1430 0.950 . S
C1438 C1436 1.391 . S
C1438 C1439 1.400 . S
C1439 C1438 1.400 . S
C1439 C1440 1.398 . S
C1439 C1445 1.491 . S
C1440 H1431 0.950 . S
C1440 C1439 1.398 . S
C1440 C1441 1.391 . S
C1441 H1429 0.950 . S
C1441 C1437 1.393 . S
C1441 C1440 1.391 . S
C1442 H1432 0.950 . S
C1442 C1443 1.386 . S
C1442 C1444 1.391 . S
C1443 C1442 1.386 . S
C1443 C1447 1.393 . S
C1444 H1433 0.950 . S
C1444 C1442 1.391 . S
C1444 C1445 1.400 . S
C1445 C1439 1.491 . S
C1445 C1444 1.400 . S
C1445 C1446 1.398 . S
C1446 H1434 0.950 . S
C1446 C1445 1.398 . S
C1446 C1447 1.391 . S
C1447 H1435 0.950 . S
C1447 C1443 1.393 . S
C1447 C1446 1.391 . S
H1448 C1456 0.950 . S
H1449 C1461 0.950 . S
H1450 C1458 0.950 . S
H1451 C1460 0.950 . S
H1452 C1462 0.950 . S
H1453 C1464 0.950 . S
H1454 C1466 0.950 . S
H1455 C1467 0.950 . S
C1456 H1448 0.950 . S
C1456 C1457 1.386 . S
C1456 C1458 1.391 . S
C1457 C1456 1.386 . S
C1457 C1461 1.393 . S
C1458 H1450 0.950 . S
C1458 C1456 1.391 . S
C1458 C1459 1.400 . S
C1459 C1458 1.400 . S
C1459 C1460 1.398 . S
C1459 C1465 1.491 . S
C1460 H1451 0.950 . S
C1460 C1459 1.398 . S
C1460 C1461 1.391 . S
C1461 H1449 0.950 . S
C1461 C1457 1.393 . S
C1461 C1460 1.391 . S
C1462 H1452 0.950 . S
C1462 C1463 1.386 . S
C1462 C1464 1.391 . S
C1463 C1462 1.386 . S
C1463 C1467 1.393 . S
C1464 H1453 0.950 . S
C1464 C1462 1.391 . S
C1464 C1465 1.400 . S
C1465 C1459 1.491 . S
C1465 C1464 1.400 . S
C1465 C1466 1.398 . S
C1466 H1454 0.950 . S
C1466 C1465 1.398 . S
C1466 C1467 1.391 . S
C1467 H1455 0.950 . S
C1467 C1463 1.393 . S
C1467 C1466 1.391 . S
H1468 C1476 0.950 . S
H1469 C1481 0.950 . S
H1470 C1478 0.950 . S
H1471 C1480 0.950 . S
H1472 C1482 0.950 . S
H1473 C1484 0.950 . S
H1474 C1486 0.950 . S
H1475 C1487 0.950 . S
C1476 H1468 0.950 . S
C1476 C1477 1.386 . S
C1476 C1478 1.391 . S
C1477 C1476 1.386 . S
C1477 C1481 1.393 . S
C1478 H1470 0.950 . S
C1478 C1476 1.391 . S
C1478 C1479 1.400 . S
C1479 C1478 1.400 . S
C1479 C1480 1.398 . S
C1479 C1485 1.491 . S
C1480 H1471 0.950 . S
C1480 C1479 1.398 . S
C1480 C1481 1.391 . S
C1481 H1469 0.950 . S
C1481 C1477 1.393 . S
C1481 C1480 1.391 . S
C1482 H1472 0.950 . S
C1482 C1483 1.386 . S
C1482 C1484 1.391 . S
C1483 C1482 1.386 . S
C1483 C1487 1.393 . S
C1484 H1473 0.950 . S
C1484 C1482 1.391 . S
C1484 C1485 1.400 . S
C1485 C1479 1.491 . S
C1485 C1484 1.400 . S
C1485 C1486 1.398 . S
C1486 H1474 0.950 . S
C1486 C1485 1.398 . S
C1486 C1487 1.391 . S
C1487 H1475 0.950 . S
C1487 C1483 1.393 . S
C1487 C1486 1.391 . S
H1488 C1496 0.950 . S
H1489 C1501 0.950 . S
H1490 C1498 0.950 . S
H1491 C1500 0.950 . S
H1492 C1502 0.950 . S
H1493 C1504 0.950 . S
H1494 C1506 0.950 . S
H1495 C1507 0.950 . S
C1496 H1488 0.950 . S
C1496 C1497 1.386 . S
C1496 C1498 1.391 . S
C1497 C1496 1.386 . S
C1497 C1501 1.393 . S
C1498 H1490 0.950 . S
C1498 C1496 1.391 . S
C1498 C1499 1.400 . S
C1499 C1498 1.400 . S
C1499 C1500 1.398 . S
C1499 C1505 1.491 . S
C1500 H1491 0.950 . S
C1500 C1499 1.398 . S
C1500 C1501 1.391 . S
C1501 H1489 0.950 . S
C1501 C1497 1.393 . S
C1501 C1500 1.391 . S
C1502 H1492 0.950 . S
C1502 C1503 1.386 . S
C1502 C1504 1.391 . S
C1503 C1502 1.386 . S
C1503 C1507 1.393 . S
C1504 H1493 0.950 . S
C1504 C1502 1.391 . S
C1504 C1505 1.400 . S
C1505 C1499 1.491 . S
C1505 C1504 1.400 . S
C1505 C1506 1.398 . S
C1506 H1494 0.950 . S
C1506 C1505 1.398 . S
C1506 C1507 1.391 . S
C1507 H1495 0.950 . S
C1507 C1503 1.393 . S
C1507 C1506 1.391 . S
H1508 C1516 0.950 . S
H1509 C1521 0.950 . S
H1510 C1518 0.950 . S
H1511 C1520 0.950 . S
H1512 C1522 0.950 . S
H1513 C1524 0.950 . S
H1514 C1526 0.950 . S
H1515 C1527 0.950 . S
C1516 H1508 0.950 . S
C1516 C1517 1.386 . S
C1516 C1518 1.391 . S
C1517 C1516 1.386 . S
C1517 C1521 1.393 . S
C1518 H1510 0.950 . S
C1518 C1516 1.391 . S
C1518 C1519 1.400 . S
C1519 C1518 1.400 . S
C1519 C1520 1.398 . S
C1519 C1525 1.491 . S
C1520 H1511 0.950 . S
C1520 C1519 1.398 . S
C1520 C1521 1.391 . S
C1521 H1509 0.950 . S
C1521 C1517 1.393 . S
C1521 C1520 1.391 . S
C1522 H1512 0.950 . S
C1522 C1523 1.386 . S
C1522 C1524 1.391 . S
C1523 C1522 1.386 . S
C1523 C1527 1.393 . S
C1524 H1513 0.950 . S
C1524 C1522 1.391 . S
C1524 C1525 1.400 . S
C1525 C1519 1.491 . S
C1525 C1524 1.400 . S
C1525 C1526 1.398 . S
C1526 H1514 0.950 . S
C1526 C1525 1.398 . S
C1526 C1527 1.391 . S
C1527 H1515 0.950 . S
C1527 C1523 1.393 . S
C1527 C1526 1.391 . S
H1528 C1536 0.950 . S
H1529 C1541 0.950 . S
H1530 C1538 0.950 . S
H1531 C1540 0.950 . S
H1532 C1542 0.950 . S
H1533 C1544 0.950 . S
H1534 C1546 0.950 . S
H1535 C1547 0.950 . S
C1536 H1528 0.950 . S
C1536 C1537 1.386 . S
C1536 C1538 1.391 . S
C1537 C1536 1.386 . S
C1537 C1541 1.393 . S
C1538 H1530 0.950 . S
C1538 C1536 1.391 . S
C1538 C1539 1.400 . S
C1539 C1538 1.400 . S
C1539 C1540 1.398 . S
C1539 C1545 1.491 . S
C1540 H1531 0.950 . S
C1540 C1539 1.398 . S
C1540 C1541 1.391 . S
C1541 H1529 0.950 . S
C1541 C1537 1.393 . S
C1541 C1540 1.391 . S
C1542 H1532 0.950 . S
C1542 C1543 1.386 . S
C1542 C1544 1.391 . S
C1543 C1542 1.386 . S
C1543 C1547 1.393 . S
C1544 H1533 0.950 . S
C1544 C1542 1.391 . S
C1544 C1545 1.400 . S
C1545 C1539 1.491 . S
C1545 C1544 1.400 . S
C1545 C1546 1.398 . S
C1546 H1534 0.950 . S
C1546 C1545 1.398 . S
C1546 C1547 1.391 . S
C1547 H1535 0.950 . S
C1547 C1543 1.393 . S
C1547 C1546 1.391 . S
H1548 C1556 0.950 . S
H1549 C1561 0.950 . S
H1550 C1558 0.950 . S
H1551 C1560 0.950 . S
H1552 C1562 0.950 . S
H1553 C1564 0.950 . S
H1554 C1566 0.950 . S
H1555 C1567 0.950 . S
C1556 H1548 0.950 . S
C1556 C1557 1.386 . S
C1556 C1558 1.391 . S
C1557 C1556 1.386 . S
C1557 C1561 1.393 . S
C1558 H1550 0.950 . S
C1558 C1556 1.391 . S
C1558 C1559 1.400 . S
C1559 C1558 1.400 . S
C1559 C1560 1.398 . S
C1559 C1565 1.491 . S
C1560 H1551 0.950 . S
C1560 C1559 1.398 . S
C1560 C1561 1.391 . S
C1561 H1549 0.950 . S
C1561 C1557 1.393 . S
C1561 C1560 1.391 . S
C1562 H1552 0.950 . S
C1562 C1563 1.386 . S
C1562 C1564 1.391 . S
C1563 C1562 1.386 . S
C1563 C1567 1.393 . S
C1564 H1553 0.950 . S
C1564 C1562 1.391 . S
C1564 C1565 1.400 . S
C1565 C1559 1.491 . S
C1565 C1564 1.400 . S
C1565 C1566 1.398 . S
C1566 H1554 0.950 . S
C1566 C1565 1.398 . S
C1566 C1567 1.391 . S
C1567 H1555 0.950 . S
C1567 C1563 1.393 . S
C1567 C1566 1.391 . S
H1568 C1576 0.950 . S
H1569 C1581 0.950 . S
H1570 C1578 0.950 . S
H1571 C1580 0.950 . S
H1572 C1582 0.950 . S
H1573 C1584 0.950 . S
H1574 C1586 0.950 . S
H1575 C1587 0.950 . S
C1576 H1568 0.950 . S
C1576 C1577 1.386 . S
C1576 C1578 1.391 . S
C1577 C1576 1.386 . S
C1577 C1581 1.393 . S
C1578 H1570 0.950 . S
C1578 C1576 1.391 . S
C1578 C1579 1.400 . S
C1579 C1578 1.400 . S
C1579 C1580 1.398 . S
C1579 C1585 1.491 . S
C1580 H1571 0.950 . S
C1580 C1579 1.398 . S
C1580 C1581 1.391 . S
C1581 H1569 0.950 . S
C1581 C1577 1.393 . S
C1581 C1580 1.391 . S
C1582 H1572 0.950 . S
C1582 C1583 1.386 . S
C1582 C1584 1.391 . S
C1583 C1582 1.386 . S
C1583 C1587 1.393 . S
C1584 H1573 0.950 . S
C1584 C1582 1.391 . S
C1584 C1585 1.400 . S
C1585 C1579 1.491 . S
C1585 C1584 1.400 . S
C1585 C1586 1.398 . S
C1586 H1574 0.950 . S
C1586 C1585 1.398 . S
C1586 C1587 1.391 . S
C1587 H1575 0.950 . S
C1587 C1583 1.393 . S
C1587 C1586 1.391 . S
H1588 C1596 0.950 . S
H1589 C1601 0.950 . S
H1590 C1598 0.950 . S
H1591 C1600 0.950 . S
H1592 C1602 0.950 . S
H1593 C1604 0.950 . S
H1594 C1606 0.950 . S
H1595 C1607 0.950 . S
C1596 H1588 0.950 . S
C1596 C1597 1.386 . S
C1596 C1598 1.391 . S
C1597 C1596 1.386 . S
C1597 C1601 1.393 . S
C1598 H1590 0.950 . S
C1598 C1596 1.391 . S
C1598 C1599 1.400 . S
C1599 C1598 1.400 . S
C1599 C1600 1.398 . S
C1599 C1605 1.491 . S
C1600 H1591 0.950 . S
C1600 C1599 1.398 . S
C1600 C1601 1.391 . S
C1601 H1589 0.950 . S
C1601 C1597 1.393 . S
C1601 C1600 1.391 . S
C1602 H1592 0.950 . S
C1602 C1603 1.386 . S
C1602 C1604 1.391 . S
C1603 C1602 1.386 . S
C1603 C1607 1.393 . S
C1604 H1593 0.950 . S
C1604 C1602 1.391 . S
C1604 C1605 1.400 . S
C1605 C1599 1.491 . S
C1605 C1604 1.400 . S
C1605 C1606 1.398 . S
C1606 H1594 0.950 . S
C1606 C1605 1.398 . S
C1606 C1607 1.391 . S
C1607 H1595 0.950 . S
C1607 C1603 1.393 . S
C1607 C1606 1.391 . S
H1608 C1616 0.950 . S
H1609 C1621 0.950 . S
H1610 C1618 0.950 . S
H1611 C1620 0.950 . S
H1612 C1622 0.950 . S
H1613 C1624 0.950 . S
H1614 C1626 0.950 . S
H1615 C1627 0.950 . S
C1616 H1608 0.950 . S
C1616 C1617 1.386 . S
C1616 C1618 1.391 . S
C1617 C1616 1.386 . S
C1617 C1621 1.393 . S
C1618 H1610 0.950 . S
C1618 C1616 1.391 . S
C1618 C1619 1.400 . S
C1619 C1618 1.400 . S
C1619 C1620 1.398 . S
C1619 C1625 1.491 . S
C1620 H1611 0.950 . S
C1620 C1619 1.398 . S
C1620 C1621 1.391 . S
C1621 H1609 0.950 . S
C1621 C1617 1.393 . S
C1621 C1620 1.391 . S
C1622 H1612 0.950 . S
C1622 C1623 1.386 . S
C1622 C1624 1.391 . S
C1623 C1622 1.386 . S
C1623 C1627 1.393 . S
C1624 H1613 0.950 . S
C1624 C1622 1.391 . S
C1624 C1625 1.400 . S
C1625 C1619 1.491 . S
C1625 C1624 1.400 . S
C1625 C1626 1.398 . S
C1626 H1614 0.950 . S
C1626 C1625 1.398 . S
C1626 C1627 1.391 . S
C1627 H1615 0.950 . S
C1627 C1623 1.393 . S
C1627 C1626 1.391 . S
H1628 C1636 0.950 . S
H1629 C1641 0.950 . S
H1630 C1638 0.950 . S
H1631 C1640 0.950 . S
H1632 C1642 0.950 . S
H1633 C1644 0.950 . S
H1634 C1646 0.950 . S
H1635 C1647 0.950 . S
C1636 H1628 0.950 . S
C1636 C1637 1.386 . S
C1636 C1638 1.391 . S
C1637 C1636 1.386 . S
C1637 C1641 1.393 . S
C1638 H1630 0.950 . S
C1638 C1636 1.391 . S
C1638 C1639 1.400 . S
C1639 C1638 1.400 . S
C1639 C1640 1.398 . S
C1639 C1645 1.491 . S
C1640 H1631 0.950 . S
C1640 C1639 1.398 . S
C1640 C1641 1.391 . S
C1641 H1629 0.950 . S
C1641 C1637 1.393 . S
C1641 C1640 1.391 . S
C1642 H1632 0.950 . S
C1642 C1643 1.386 . S
C1642 C1644 1.391 . S
C1643 C1642 1.386 . S
C1643 C1647 1.393 . S
C1644 H1633 0.950 . S
C1644 C1642 1.391 . S
C1644 C1645 1.400 . S
C1645 C1639 1.491 . S
C1645 C1644 1.400 . S
C1645 C1646 1.398 . S
C1646 H1634 0.950 . S
C1646 C1645 1.398 . S
C1646 C1647 1.391 . S
C1647 H1635 0.950 . S
C1647 C1643 1.393 . S
C1647 C1646 1.391 . S
H1648 C1656 0.950 . S
H1649 C1661 0.950 . S
H1650 C1658 0.950 . S
H1651 C1660 0.950 . S
H1652 C1662 0.950 . S
H1653 C1664 0.950 . S
H1654 C1666 0.950 . S
H1655 C1667 0.950 . S
C1656 H1648 0.950 . S
C1656 C1657 1.386 . S
C1656 C1658 1.391 . S
C1657 C1656 1.386 . S
C1657 C1661 1.393 . S
C1658 H1650 0.950 . S
C1658 C1656 1.391 . S
C1658 C1659 1.400 . S
C1659 C1658 1.400 . S
C1659 C1660 1.398 . S
C1659 C1665 1.491 . S
C1660 H1651 0.950 . S
C1660 C1659 1.398 . S
C1660 C1661 1.391 . S
C1661 H1649 0.950 . S
C1661 C1657 1.393 . S
C1661 C1660 1.391 . S
C1662 H1652 0.950 . S
C1662 C1663 1.386 . S
C1662 C1664 1.391 . S
C1663 C1662 1.386 . S
C1663 C1667 1.393 . S
C1664 H1653 0.950 . S
C1664 C1662 1.391 . S
C1664 C1665 1.400 . S
C1665 C1659 1.491 . S
C1665 C1664 1.400 . S
C1665 C1666 1.398 . S
C1666 H1654 0.950 . S
C1666 C1665 1.398 . S
C1666 C1667 1.391 . S
C1667 H1655 0.950 . S
C1667 C1663 1.393 . S
C1667 C1666 1.391 . S
H1668 C1676 0.950 . S
H1669 C1681 0.950 . S
H1670 C1678 0.950 . S
H1671 C1680 0.950 . S
H1672 C1682 0.950 . S
H1673 C1684 0.950 . S
H1674 C1686 0.950 . S
H1675 C1687 0.950 . S
C1676 H1668 0.950 . S
C1676 C1677 1.386 . S
C1676 C1678 1.391 . S
C1677 C1676 1.386 . S
C1677 C1681 1.393 . S
C1678 H1670 0.950 . S
C1678 C1676 1.391 . S
C1678 C1679 1.400 . S
C1679 C1678 1.400 . S
C1679 C1680 1.398 . S
C1679 C1685 1.491 . S
C1680 H1671 0.950 . S
C1680 C1679 1.398 . S
C1680 C1681 1.391 . S
C1681 H1669 0.950 . S
C1681 C1677 1.393 . S
C1681 C1680 1.391 . S
C1682 H1672 0.950 . S
C1682 C1683 1.386 . S
C1682 C1684 1.391 . S
C1683 C1682 1.386 . S
C1683 C1687 1.393 . S
C1684 H1673 0.950 . S
C1684 C1682 1.391 . S
C1684 C1685 1.400 . S
C1685 C1679 1.491 . S
C1685 C1684 1.400 . S
C1685 C1686 1.398 . S
C1686 H1674 0.950 . S
C1686 C1685 1.398 . S
C1686 C1687 1.391 . S
C1687 H1675 0.950 . S
C1687 C1683 1.393 . S
C1687 C1686 1.391 . S
H1688 C1696 0.950 . S
H1689 C1701 0.950 . S
H1690 C1698 0.950 . S
H1691 C1700 0.950 . S
H1692 C1702 0.950 . S
H1693 C1704 0.950 . S
H1694 C1706 0.950 . S
H1695 C1707 0.950 . S
C1696 H1688 0.950 . S
C1696 C1697 1.386 . S
C1696 C1698 1.391 . S
C1697 C1696 1.386 . S
C1697 C1701 1.393 . S
C1698 H1690 0.950 . S
C1698 C1696 1.391 . S
C1698 C1699 1.400 . S
C1699 C1698 1.400 . S
C1699 C1700 1.398 . S
C1699 C1705 1.491 . S
C1700 H1691 0.950 . S
C1700 C1699 1.398 . S
C1700 C1701 1.391 . S
C1701 H1689 0.950 . S
C1701 C1697 1.393 . S
C1701 C1700 1.391 . S
C1702 H1692 0.950 . S
C1702 C1703 1.386 . S
C1702 C1704 1.391 . S
C1703 C1702 1.386 . S
C1703 C1707 1.393 . S
C1704 H1693 0.950 . S
C1704 C1702 1.391 . S
C1704 C1705 1.400 . S
C1705 C1699 1.491 . S
C1705 C1704 1.400 . S
C1705 C1706 1.398 . S
C1706 H1694 0.950 . S
C1706 C1705 1.398 . S
C1706 C1707 1.391 . S
C1707 H1695 0.950 . S
C1707 C1703 1.393 . S
C1707 C1706 1.391 . S
H1708 C1716 0.950 . S
H1709 C1721 0.950 . S
H1710 C1718 0.950 . S
H1711 C1720 0.950 . S
H1712 C1722 0.950 . S
H1713 C1724 0.950 . S
H1714 C1726 0.950 . S
H1715 C1727 0.950 . S
C1716 H1708 0.950 . S
C1716 C1717 1.386 . S
C1716 C1718 1.391 . S
C1717 C1716 1.386 . S
C1717 C1721 1.393 . S
C1718 H1710 0.950 . S
C1718 C1716 1.391 . S
C1718 C1719 1.400 . S
C1719 C1718 1.400 . S
C1719 C1720 1.398 . S
C1719 C1725 1.491 . S
C1720 H1711 0.950 . S
C1720 C1719 1.398 . S
C1720 C1721 1.391 . S
C1721 H1709 0.950 . S
C1721 C1717 1.393 . S
C1721 C1720 1.391 . S
C1722 H1712 0.950 . S
C1722 C1723 1.386 . S
C1722 C1724 1.391 . S
C1723 C1722 1.386 . S
C1723 C1727 1.393 . S
C1724 H1713 0.950 . S
C1724 C1722 1.391 . S
C1724 C1725 1.400 . S
C1725 C1719 1.491 . S
C1725 C1724 1.400 . S
C1725 C1726 1.398 . S
C1726 H1714 0.950 . S
C1726 C1725 1.398 . S
C1726 C1727 1.391 . S
C1727 H1715 0.950 . S
C1727 C1723 1.393 . S
C1727 C1726 1.391 . S
C457 C181 1.430 . S
C463 C0 1.431 . S
C477 C406 1.432 . S
C483 C27 1.433 . S
C497 C196 1.429 . S
C503 C29 1.430 . S
C517 C435 1.431 . S
C523 C55 1.431 . S
C537 C113 1.425 . S
C543 C68 1.427 . S
C557 C70 1.428 . S
C563 C362 1.426 . S
C577 C84 1.429 . S
C583 C140 1.426 . S
C597 C391 1.424 . S
C603 C99 1.425 . S
C617 C69 1.428 . S
C623 C112 1.429 . S
C637 C294 1.423 . S
C643 C126 1.424 . S
C657 C85 1.421 . S
C663 C141 1.425 . S
C677 C322 1.423 . S
C683 C166 1.424 . S
C697 C180 1.433 . S
C703 C1 1.432 . S
C717 C183 1.430 . S
C723 C251 1.428 . S
C737 C28 1.423 . S
C743 C197 1.425 . S
C757 C211 1.433 . S
C763 C266 1.432 . S
C777 C392 1.427 . S
C783 C224 1.430 . S
C797 C182 1.422 . S
C803 C250 1.425 . S
C817 C433 1.430 . S
C823 C252 1.431 . S
C837 C267 1.424 . S
C843 C210 1.422 . S
C857 C280 1.433 . S
C863 C337 1.432 . S
C877 C295 1.430 . S
C883 C127 1.430 . S
C897 C377 1.429 . S
C903 C320 1.431 . S
C917 C167 1.423 . S
C923 C323 1.424 . S
C937 C281 1.427 . S
C943 C336 1.429 . S
C957 C363 1.425 . S
C963 C71 1.422 . S
C977 C376 1.432 . S
C983 C321 1.431 . S
C997 C390 1.424 . S
C1003 C98 1.423 . S
C1017 C225 1.431 . S
C1023 C393 1.432 . S
C1037 C26 1.423 . S
C1043 C407 1.425 . S
C1057 C253 1.431 . S
C1063 C432 1.432 . S
C1077 C434 1.431 . S
C1083 C54 1.430 . S
C1097 C13 1.946 . S
C1103 C125 1.950 . S
C1117 C14 1.946 . S
C1123 C350 1.943 . S
C1137 C152 1.953 . S
C1143 C40 1.956 . S
C1157 C42 1.960 . S
C1163 C379 1.960 . S
C1177 C57 1.941 . S
C1183 C169 1.945 . S
C1197 C418 1.960 . S
C1203 C83 1.960 . S
C1217 C208 1.950 . S
C1223 C97 1.950 . S
C1237 C110 1.957 . S
C1243 C447 1.957 . S
C1257 C139 1.946 . S
C1263 C239 1.942 . S
C1277 C155 1.953 . S
C1283 C278 1.953 . S
C1297 C194 1.958 . S
C1303 C306 1.961 . S
C1317 C334 1.947 . S
C1323 C222 1.943 . S
C1337 C237 1.954 . S
C1343 C349 1.957 . S
C1357 C265 1.945 . S
C1363 C365 1.949 . S
C1377 C293 1.960 . S
C1383 C404 1.960 . S
C1397 C421 1.960 . S
C1403 C309 1.957 . S
C1417 C12 1.894 . S
C1423 C111 1.880 . S
C1437 C15 1.880 . S
C1443 C56 1.894 . S
C1457 C82 1.891 . S
C1463 C41 1.882 . S
C1477 C96 1.883 . S
C1483 C43 1.891 . S
C1497 C223 1.888 . S
C1503 C124 1.885 . S
C1517 C168 1.880 . S
C1523 C138 1.893 . S
C1537 C195 1.893 . S
C1543 C153 1.884 . S
C1557 C209 1.894 . S
C1563 C154 1.880 . S
C1577 C236 1.883 . S
C1583 C335 1.891 . S
C1597 C292 1.889 . S
C1603 C238 1.886 . S
C1617 C307 1.890 . S
C1623 C264 1.883 . S
C1637 C308 1.890 . S
C1643 C279 1.885 . S
C1657 C446 1.892 . S
C1663 C348 1.881 . S
C1677 C351 1.882 . S
C1683 C405 1.894 . S
C1697 C364 1.881 . S
C1703 C419 1.892 . S
C1717 C420 1.884 . S
C1723 C378 1.887 . S
