# Generated by pormake.
# Topology lcy-a, (4)-cn, num edge types: 1
# Building blocks:
#     Node 0, Type 0, BuildingBlock: KUFVIS_clean_sbu_0, # of connection points: 4
#     Node 1, Type 0, BuildingBlock: KUFVIS_clean_sbu_0, # of connection points: 4
#     Node 2, Type 0, BuildingBlock: KUFVIS_clean_sbu_0, # of connection points: 4
#     Node 3, Type 0, BuildingBlock: KUFVIS_clean_sbu_0, # of connection points: 4
#     Node 4, Type 0, BuildingBlock: KUFVIS_clean_sbu_0, # of connection points: 4
#     Node 5, Type 0, BuildingBlock: KUFVIS_clean_sbu_0, # of connection points: 4
#     Node 6, Type 0, BuildingBlock: KUFVIS_clean_sbu_0, # of connection points: 4
#     Node 7, Type 0, BuildingBlock: KUFVIS_clean_sbu_0, # of connection points: 4
#     Node 8, Type 0, BuildingBlock: KUFVIS_clean_sbu_0, # of connection points: 4
#     Node 9, Type 0, BuildingBlock: KUFVIS_clean_sbu_0, # of connection points: 4
#     Node 10, Type 0, BuildingBlock: KUFVIS_clean_sbu_0, # of connection points: 4
#     Node 11, Type 0, BuildingBlock: KUFVIS_clean_sbu_0, # of connection points: 4
#     Node 12, Type 0, BuildingBlock: KUFVIS_clean_sbu_0, # of connection points: 4
#     Node 13, Type 0, BuildingBlock: KUFVIS_clean_sbu_0, # of connection points: 4
#     Node 14, Type 0, BuildingBlock: KUFVIS_clean_sbu_0, # of connection points: 4
#     Node 15, Type 0, BuildingBlock: KUFVIS_clean_sbu_0, # of connection points: 4
#     Node 16, Type 0, BuildingBlock: KUFVIS_clean_sbu_0, # of connection points: 4
#     Node 17, Type 0, BuildingBlock: KUFVIS_clean_sbu_0, # of connection points: 4
#     Node 18, Type 0, BuildingBlock: KUFVIS_clean_sbu_0, # of connection points: 4
#     Node 19, Type 0, BuildingBlock: KUFVIS_clean_sbu_0, # of connection points: 4
#     Node 20, Type 0, BuildingBlock: KUFVIS_clean_sbu_0, # of connection points: 4
#     Node 21, Type 0, BuildingBlock: KUFVIS_clean_sbu_0, # of connection points: 4
#     Node 22, Type 0, BuildingBlock: KUFVIS_clean_sbu_0, # of connection points: 4
#     Node 23, Type 0, BuildingBlock: KUFVIS_clean_sbu_0, # of connection points: 4
#     Edge 24, Type (0, 0), BuildingBlock: XIVTED_clean_linker_0, # of connection points: 2
#     Edge 25, Type (0, 0), BuildingBlock: XIVTED_clean_linker_0, # of connection points: 2
#     Edge 26, Type (0, 0), BuildingBlock: XIVTED_clean_linker_0, # of connection points: 2
#     Edge 27, Type (0, 0), BuildingBlock: XIVTED_clean_linker_0, # of connection points: 2
#     Edge 28, Type (0, 0), BuildingBlock: XIVTED_clean_linker_0, # of connection points: 2
#     Edge 29, Type (0, 0), BuildingBlock: XIVTED_clean_linker_0, # of connection points: 2
#     Edge 30, Type (0, 0), BuildingBlock: XIVTED_clean_linker_0, # of connection points: 2
#     Edge 31, Type (0, 0), BuildingBlock: XIVTED_clean_linker_0, # of connection points: 2
#     Edge 32, Type (0, 0), BuildingBlock: XIVTED_clean_linker_0, # of connection points: 2
#     Edge 33, Type (0, 0), BuildingBlock: XIVTED_clean_linker_0, # of connection points: 2
#     Edge 34, Type (0, 0), BuildingBlock: XIVTED_clean_linker_0, # of connection points: 2
#     Edge 35, Type (0, 0), BuildingBlock: XIVTED_clean_linker_0, # of connection points: 2
#     Edge 36, Type (0, 0), BuildingBlock: XIVTED_clean_linker_0, # of connection points: 2
#     Edge 37, Type (0, 0), BuildingBlock: XIVTED_clean_linker_0, # of connection points: 2
#     Edge 38, Type (0, 0), BuildingBlock: XIVTED_clean_linker_0, # of connection points: 2
#     Edge 39, Type (0, 0), BuildingBlock: XIVTED_clean_linker_0, # of connection points: 2
#     Edge 40, Type (0, 0), BuildingBlock: XIVTED_clean_linker_0, # of connection points: 2
#     Edge 41, Type (0, 0), BuildingBlock: XIVTED_clean_linker_0, # of connection points: 2
#     Edge 42, Type (0, 0), BuildingBlock: XIVTED_clean_linker_0, # of connection points: 2
#     Edge 43, Type (0, 0), BuildingBlock: XIVTED_clean_linker_0, # of connection points: 2
#     Edge 44, Type (0, 0), BuildingBlock: XIVTED_clean_linker_0, # of connection points: 2
#     Edge 45, Type (0, 0), BuildingBlock: XIVTED_clean_linker_0, # of connection points: 2
#     Edge 46, Type (0, 0), BuildingBlock: XIVTED_clean_linker_0, # of connection points: 2
#     Edge 47, Type (0, 0), BuildingBlock: XIVTED_clean_linker_0, # of connection points: 2
#     Edge 48, Type (0, 0), BuildingBlock: XIVTED_clean_linker_0, # of connection points: 2
#     Edge 49, Type (0, 0), BuildingBlock: XIVTED_clean_linker_0, # of connection points: 2
#     Edge 50, Type (0, 0), BuildingBlock: XIVTED_clean_linker_0, # of connection points: 2
#     Edge 51, Type (0, 0), BuildingBlock: XIVTED_clean_linker_0, # of connection points: 2
#     Edge 52, Type (0, 0), BuildingBlock: XIVTED_clean_linker_0, # of connection points: 2
#     Edge 53, Type (0, 0), BuildingBlock: XIVTED_clean_linker_0, # of connection points: 2
#     Edge 54, Type (0, 0), BuildingBlock: XIVTED_clean_linker_0, # of connection points: 2
#     Edge 55, Type (0, 0), BuildingBlock: XIVTED_clean_linker_0, # of connection points: 2
#     Edge 56, Type (0, 0), BuildingBlock: XIVTED_clean_linker_0, # of connection points: 2
#     Edge 57, Type (0, 0), BuildingBlock: XIVTED_clean_linker_0, # of connection points: 2
#     Edge 58, Type (0, 0), BuildingBlock: XIVTED_clean_linker_0, # of connection points: 2
#     Edge 59, Type (0, 0), BuildingBlock: XIVTED_clean_linker_0, # of connection points: 2
#     Edge 60, Type (0, 0), BuildingBlock: XIVTED_clean_linker_0, # of connection points: 2
#     Edge 61, Type (0, 0), BuildingBlock: XIVTED_clean_linker_0, # of connection points: 2
#     Edge 62, Type (0, 0), BuildingBlock: XIVTED_clean_linker_0, # of connection points: 2
#     Edge 63, Type (0, 0), BuildingBlock: XIVTED_clean_linker_0, # of connection points: 2
#     Edge 64, Type (0, 0), BuildingBlock: XIVTED_clean_linker_0, # of connection points: 2
#     Edge 65, Type (0, 0), BuildingBlock: XIVTED_clean_linker_0, # of connection points: 2
#     Edge 66, Type (0, 0), BuildingBlock: XIVTED_clean_linker_0, # of connection points: 2
#     Edge 67, Type (0, 0), BuildingBlock: XIVTED_clean_linker_0, # of connection points: 2
#     Edge 68, Type (0, 0), BuildingBlock: XIVTED_clean_linker_0, # of connection points: 2
#     Edge 69, Type (0, 0), BuildingBlock: XIVTED_clean_linker_0, # of connection points: 2
#     Edge 70, Type (0, 0), BuildingBlock: XIVTED_clean_linker_0, # of connection points: 2
#     Edge 71, Type (0, 0), BuildingBlock: XIVTED_clean_linker_0, # of connection points: 2
# Relax obj value: 0.405
# Max RMSD: 0.182
# Mean RMSD: 0.182
data_MOF--net-lcy-a--node1-KUFVIS_clean_sbu_0--edge1-XIVTED_clean_linker_0
_symmetry_space_group_name_H-M    P1
_symmetry_Int_Tables_number       1
_symmetry_cell_setting            triclinic
loop_
_symmetry_equiv_pos_as_xyz
'x, y, z'
_cell_length_a     56.05951
_cell_length_b     55.994547
_cell_length_c     56.017757
_cell_angle_alpha  90.047336
_cell_angle_beta   90.030783
_cell_angle_gamma 89.983906
loop_
_atom_site_label
_atom_site_type_symbol
_atom_site_fract_x
_atom_site_fract_y
_atom_site_fract_z
_atom_type_partial_charge
Mn0 Mn 0.22529 0.29423 0.4233 0.0
Mn1 Mn 0.25215 0.26061 0.46529 0.0
C2 C 0.25411 0.26704 0.41241 0.0
C3 C 0.2229 0.32932 0.40142 0.0
C4 C 0.20209 0.25127 0.44692 0.0
O5 O 0.2172 0.31138 0.45409 0.0
O6 O 0.23858 0.28982 0.48049 0.0
C7 C 0.29159 0.29334 0.4781 0.0
N8 N 0.28407 0.27167 0.46998 0.0
C9 C 0.3245 0.25825 0.46473 0.0
C10 C 0.33266 0.28036 0.47322 0.0
C11 C 0.31613 0.29797 0.47993 0.0
C12 C 0.29982 0.25456 0.46355 0.0
H13 H 0.27898 0.30707 0.483 0.0
C14 C 0.22526 0.30767 0.47506 0.0
O15 O 0.20432 0.31582 0.4045 0.0
O16 O 0.24265 0.32268 0.41152 0.0
N17 N 0.2665 0.23227 0.45262 0.0
C18 C 0.25572 0.21251 0.44338 0.0
C19 C 0.26979 0.19346 0.43516 0.0
C20 C 0.29477 0.19491 0.43652 0.0
C21 C 0.30546 0.21536 0.44622 0.0
C22 C 0.29052 0.23366 0.45444 0.0
H23 H 0.23654 0.21136 0.44212 0.0
O24 O 0.23882 0.27474 0.3968 0.0
O25 O 0.25219 0.27579 0.43382 0.0
O26 O 0.20203 0.26778 0.43135 0.0
O27 O 0.21953 0.24749 0.46115 0.0
C28 C 0.33035 0.21853 0.4476 0.0
C29 C 0.33987 0.23996 0.45682 0.0
H30 H 0.35154 0.28416 0.47439 0.0
H31 H 0.3223 0.31513 0.48633 0.0
H32 H 0.26141 0.17775 0.42763 0.0
H33 H 0.30556 0.1803 0.42988 0.0
H34 H 0.34235 0.20473 0.44129 0.0
H35 H 0.35903 0.24231 0.45743 0.0
Mn36 Mn 0.95435 0.97792 0.68576 0.0
Mn37 Mn 0.98779 0.00685 0.72668 0.0
C38 C 0.97968 0.00788 0.67394 0.0
C39 C 0.9194 0.9723 0.6643 0.0
C40 C -0.0008 0.95731 0.70818 0.0
O41 O 0.93855 0.9693 0.71708 0.0
O42 O 0.95978 0.99191 0.74275 0.0
C43 C 0.95356 0.04486 0.74017 0.0
N44 N 0.97532 0.03828 0.73156 0.0
C45 C 0.98691 0.07935 0.72647 0.0
C46 C 0.96473 0.08655 0.73552 0.0
C47 C 0.94797 0.06921 0.74236 0.0
C48 C 0.99157 0.05482 0.72491 0.0
H49 H 0.9405 0.03162 0.74523 0.0
C50 C 0.94253 0.97764 0.73791 0.0
O51 O 0.93423 0.95492 0.66805 0.0
O52 O 0.92446 0.99288 0.67382 0.0
N53 N 0.01502 0.02252 0.71329 0.0
C54 C 0.03507 0.01265 0.70369 0.0
C55 C 0.05331 0.0276 0.69524 0.0
C56 C 0.0508 0.05251 0.69683 0.0
C57 C 0.03012 0.06226 0.70698 0.0
C58 C 0.01264 0.04647 0.71533 0.0
H59 H 0.03706 0.99353 0.7023 0.0
O60 O 0.97234 0.99205 0.65867 0.0
O61 O 0.97156 0.00599 0.69559 0.0
O62 O 0.98218 0.95648 0.69329 0.0
O63 O 0.00255 0.97483 0.72244 0.0
C64 C 0.02597 0.08702 0.70873 0.0
C65 C 0.00438 0.09556 0.71846 0.0
H66 H 0.96028 0.10532 0.73706 0.0
H67 H 0.93073 0.07462 0.74919 0.0
H68 H 0.06921 0.01995 0.68741 0.0
H69 H 0.0648 0.06399 0.69006 0.0
H70 H 0.03913 0.09965 0.70236 0.0
H71 H 0.00127 0.11463 0.71942 0.0
Mn72 Mn 0.27014 0.70649 0.92564 0.0
Mn73 Mn 0.24916 0.74176 0.96956 0.0
C74 C 0.24102 0.73423 0.91741 0.0
C75 C 0.26967 0.67091 0.9045 0.0
C76 C 0.29731 0.7487 0.94575 0.0
O77 O 0.28122 0.68997 0.95581 0.0
O78 O 0.26244 0.71193 0.98385 0.0
C79 C 0.20922 0.71169 0.98671 0.0
N80 N 0.21722 0.73273 0.97752 0.0
C81 C 0.17734 0.74863 0.97609 0.0
C82 C 0.16873 0.72724 0.9858 0.0
C83 C 0.18474 0.70868 0.9911 0.0
C84 C 0.20196 0.75071 0.97234 0.0
H85 H 0.22138 0.69725 0.99052 0.0
C86 C 0.27489 0.69379 0.97735 0.0
O87 O 0.28864 0.68415 0.90541 0.0
O88 O 0.25111 0.67808 0.91638 0.0
N89 N 0.2353 0.7707 0.95772 0.0
C90 C 0.24625 0.7896 0.94703 0.0
C91 C 0.23259 0.80936 0.93985 0.0
C92 C 0.20784 0.8095 0.94374 0.0
C93 C 0.19698 0.7899 0.95488 0.0
C94 C 0.21154 0.77084 0.96192 0.0
H95 H 0.26523 0.78956 0.94384 0.0
O96 O 0.25415 0.72569 0.90034 0.0
O97 O 0.24513 0.72592 0.93866 0.0
O98 O 0.29472 0.73239 0.93022 0.0
O99 O 0.28197 0.75301 0.9621 0.0
C100 C 0.17221 0.78835 0.95883 0.0
C101 C 0.16239 0.76773 0.96942 0.0
H102 H 0.14983 0.72475 0.98899 0.0
H103 H 0.17821 0.69204 -0.00159 0.0
H104 H 0.24109 0.82439 0.93121 0.0
H105 H 0.19733 0.82465 0.93793 0.0
H106 H 0.1605 0.80279 0.95351 0.0
H107 H 0.14328 0.7666 0.97206 0.0
Mn108 Mn 0.5393 0.01898 0.16766 0.0
Mn109 Mn 0.50228 0.9941 0.20783 0.0
C110 C 0.51192 0.99083 0.15553 0.0
C111 C 0.5756 0.0198 0.14783 0.0
C112 C 0.4965 0.04454 0.18882 0.0
O113 O 0.55484 0.02674 0.19937 0.0
O114 O 0.53126 0.00618 0.22469 0.0
C115 C 0.53164 0.95281 0.22297 0.0
N116 N 0.51111 0.96156 0.21332 0.0
C117 C 0.4956 0.9219 0.20749 0.0
C118 C 0.5165 0.91248 0.21752 0.0
C119 C 0.53459 0.92801 0.22529 0.0
C120 C 0.49354 0.94678 0.20588 0.0
H121 H 0.5457 0.96465 0.22876 0.0
C122 C 0.54979 0.01888 0.22014 0.0
O123 O 0.5627 0.03893 0.15008 0.0
O124 O 0.56766 0.00038 0.15765 0.0
N125 N 0.47409 0.98131 0.19334 0.0
C126 C 0.45583 0.99316 0.1825 0.0
C127 C 0.43666 0.98015 0.17293 0.0
C128 C 0.43647 0.95512 0.17458 0.0
C129 C 0.45543 0.94332 0.18587 0.0
C130 C 0.47393 0.95724 0.19531 0.0
H131 H 0.45596 0.01238 0.181 0.0
O132 O 0.5209 0.00572 0.14023 0.0
O133 O 0.51936 0.99294 0.1774 0.0
O134 O 0.5135 0.0435 0.17386 0.0
O135 O 0.49128 0.02745 0.20301 0.0
C136 C 0.45696 0.91827 0.18764 0.0
C137 C 0.47702 0.90757 0.19845 0.0
H138 H 0.51897 0.89336 0.21908 0.0
H139 H 0.55084 0.92087 0.23291 0.0
H140 H 0.42214 0.98938 0.16416 0.0
H141 H 0.42178 0.94514 0.16694 0.0
H142 H 0.44295 0.90704 0.18044 0.0
H143 H 0.47813 0.88828 0.1994 0.0
Mn144 Mn 0.72696 0.18996 0.56209 0.0
Mn145 Mn 0.75129 0.22126 0.5168 0.0
C146 C 0.75499 0.21891 0.56983 0.0
C147 C 0.72553 0.15741 0.58763 0.0
C148 C 0.70166 0.23026 0.53602 0.0
O149 O 0.71884 0.17 0.53303 0.0
O150 O 0.73791 0.19074 0.50427 0.0
C151 C 0.79115 0.18867 0.50482 0.0
N152 N 0.78331 0.21067 0.51164 0.0
C153 C 0.82349 0.22564 0.51371 0.0
C154 C 0.83195 0.20323 0.50642 0.0
C155 C 0.8157 0.18465 0.502 0.0
C156 C 0.79879 0.22867 0.51596 0.0
H157 H 0.77877 0.17424 0.50167 0.0
C158 C 0.72563 0.17279 0.51145 0.0
O159 O 0.70666 0.17 0.583 0.0
O160 O 0.7451 0.16313 0.5766 0.0
N161 N 0.76533 0.25081 0.52675 0.0
C162 C 0.75436 0.27096 0.53487 0.0
C163 C 0.76819 0.29099 0.54087 0.0
C164 C 0.79311 0.29013 0.53841 0.0
C165 C 0.80398 0.26927 0.52984 0.0
C166 C 0.78927 0.24995 0.52389 0.0
H167 H 0.73523 0.27169 0.53693 0.0
O168 O 0.74032 0.21216 0.58642 0.0
O169 O 0.75298 0.2083 0.54929 0.0
O170 O 0.70271 0.21468 0.5524 0.0
O171 O 0.71852 0.23395 0.52114 0.0
C172 C 0.82887 0.26673 0.52739 0.0
C173 C 0.83862 0.24494 0.51933 0.0
H174 H 0.85086 0.19999 0.50439 0.0
H175 H 0.82211 0.16725 0.49656 0.0
H176 H 0.75967 0.30702 0.54751 0.0
H177 H 0.80373 0.30554 0.54331 0.0
H178 H 0.8407 0.28135 0.53192 0.0
H179 H 0.8578 0.24311 0.5178 0.0
Mn180 Mn 0.02223 0.48492 0.82365 0.0
Mn181 Mn 0.99517 0.51071 0.77656 0.0
C182 C -0.00199 0.51769 0.82919 0.0
C183 C 0.05495 0.48103 0.84889 0.0
C184 C 0.97993 0.46325 0.79774 0.0
O185 O 0.04061 0.47203 0.79518 0.0
O186 O 0.02412 0.49351 0.7653 0.0
C187 C 0.03178 0.54641 0.76335 0.0
N188 N 0.00907 0.54123 0.77024 0.0
C189 C -0.00159 0.58287 0.77057 0.0
C190 C 0.02166 0.58863 0.76337 0.0
C191 C 0.03841 0.57032 0.75975 0.0
C192 C 0.99278 0.5587 0.77369 0.0
H193 H 0.04478 0.53241 0.76076 0.0
C194 C 0.03958 0.47863 0.77336 0.0
O195 O 0.03972 0.46377 0.84618 0.0
O196 O 0.05147 0.50028 0.83647 0.0
N197 N 0.96725 0.5282 0.78565 0.0
C198 C 0.94618 0.51976 0.79433 0.0
C199 C 0.92776 0.53588 0.79973 0.0
C200 C 0.93119 0.56047 0.79615 0.0
C201 C 0.953 0.56872 0.78714 0.0
C202 C 0.97062 0.5518 0.78182 0.0
H203 H 0.94351 0.5009 0.79726 0.0
O204 O 0.00241 0.50333 0.84685 0.0
O205 O 0.00794 0.51231 0.80898 0.0
O206 O 0.9942 0.46362 0.81538 0.0
O207 O 0.97928 0.47957 0.78182 0.0
C208 C 0.95813 0.59311 0.78369 0.0
C209 C 0.98081 0.60017 0.77539 0.0
H210 H 0.02693 0.60706 0.76088 0.0
H211 H 0.05643 0.57465 0.75433 0.0
H212 H 0.911 0.52938 0.80676 0.0
H213 H 0.91702 0.57286 0.80058 0.0
H214 H 0.94487 0.6066 0.78767 0.0
H215 H 0.98462 0.61898 0.7731 0.0
Mn216 Mn 0.7664 0.7804 0.0733 0.0
Mn217 Mn 0.74569 0.7506 0.02539 0.0
C218 C 0.73365 0.75594 0.077 0.0
C219 C 0.76826 0.81429 0.09703 0.0
C220 C 0.79105 0.73743 0.05191 0.0
O221 O 0.78179 0.79737 0.04524 0.0
O222 O 0.76298 0.77961 0.01432 0.0
C223 C 0.71035 0.78542 0.00719 0.0
N224 N 0.71552 0.7632 0.01562 0.0
C225 C 0.67441 0.7512 0.01264 0.0
C226 C 0.66867 0.7739 0.00378 0.0
C227 C 0.68672 0.79108 0.00106 0.0
C228 C 0.69831 0.74651 0.01825 0.0
H229 H 0.72412 0.79875 0.00528 0.0
C230 C 0.77698 0.79555 0.02301 0.0
O231 O 0.78557 0.79893 0.09647 0.0
O232 O 0.75002 0.81027 0.08328 0.0
N233 N 0.72827 0.72254 0.03418 0.0
C234 C 0.73648 0.70211 0.04452 0.0
C235 C 0.7205 0.68339 0.04924 0.0
C236 C 0.69628 0.68586 0.04329 0.0
C237 C 0.68826 0.70702 0.03258 0.0
C238 C 0.70506 0.72496 0.02804 0.0
H239 H 0.75504 0.70015 0.04926 0.0
O240 O 0.74612 0.76162 0.0957 0.0
O241 O 0.74068 0.76495 0.05686 0.0
O242 O 0.78839 0.75226 0.06882 0.0
O243 O 0.77668 0.7359 0.03424 0.0
C244 C 0.66419 0.71119 0.02667 0.0
C245 C 0.65726 0.73326 0.0167 0.0
H246 H 0.65043 0.77843 -0.00071 0.0
H247 H 0.6824 0.8087 0.99438 0.0
H248 H 0.72681 0.66714 0.05757 0.0
H249 H 0.68397 0.67149 0.0472 0.0
H250 H 0.65079 0.69767 0.03001 0.0
H251 H 0.63865 0.73637 0.01253 0.0
Mn252 Mn 0.46548 0.52127 0.32691 0.0
Mn253 Mn 0.49501 0.4949 0.28169 0.0
C254 C 0.4909 0.4899 0.33447 0.0
C255 C 0.43216 0.52505 0.35112 0.0
C256 C 0.50747 0.54377 0.30148 0.0
O257 O 0.44728 0.53201 0.29748 0.0
O258 O 0.46572 0.51041 0.26885 0.0
C259 C 0.46047 0.45721 0.26828 0.0
N260 N 0.48261 0.4636 0.276 0.0
C261 C 0.49497 0.42249 0.27816 0.0
C262 C 0.47234 0.41548 0.27009 0.0
C263 C 0.45502 0.43293 0.26514 0.0
C264 C 0.49947 0.44696 0.28068 0.0
H265 H 0.44703 0.47055 0.26461 0.0
C266 C 0.44926 0.5247 0.27595 0.0
O267 O 0.44675 0.54275 0.34793 0.0
O268 O 0.43661 0.50534 0.33971 0.0
N269 N 0.52328 0.47896 0.29237 0.0
C270 C 0.54364 0.4886 0.30154 0.0
C271 C 0.56246 0.47348 0.30828 0.0
C272 C 0.56016 0.44865 0.30554 0.0
C273 C 0.53906 0.43914 0.29601 0.0
C274 C 0.521 0.45511 0.28937 0.0
H275 H 0.54543 0.50765 0.30385 0.0
O276 O 0.48546 0.50483 0.35136 0.0
O277 O 0.48128 0.49393 0.31378 0.0
O278 O 0.49267 0.54338 0.3186 0.0
O279 O 0.50942 0.52689 0.28623 0.0
C280 C 0.53505 0.41445 0.2933 0.0
C281 C 0.51303 0.40612 0.28436 0.0
H282 H 0.46799 0.39677 0.26785 0.0
H283 H 0.43748 0.42766 0.25903 0.0
H284 H 0.57865 0.48094 0.31571 0.0
H285 H 0.57462 0.43703 0.31099 0.0
H286 H 0.54868 0.40168 0.29833 0.0
H287 H 0.51005 0.38708 0.28265 0.0
Mn288 Mn 0.41417 0.2285 0.27752 0.0
Mn289 Mn 0.45984 0.25203 0.24652 0.0
C290 C 0.40733 0.259 0.25079 0.0
C291 C 0.39082 0.22776 0.31173 0.0
C292 C 0.43836 0.20326 0.23625 0.0
O293 O 0.4434 0.21737 0.29571 0.0
O294 O 0.47244 0.23757 0.27649 0.0
C295 C 0.47454 0.29087 0.27927 0.0
N296 N 0.46648 0.2837 0.25747 0.0
C297 C 0.46504 0.32427 0.2434 0.0
C298 C 0.47351 0.33207 0.26564 0.0
C299 C 0.47827 0.31529 0.28365 0.0
C300 C 0.46196 0.29968 0.23997 0.0
H301 H 0.47803 0.27807 0.29325 0.0
C302 C 0.46505 0.22409 0.29349 0.0
O303 O 0.39256 0.20914 0.298 0.0
O304 O 0.40294 0.24656 0.30578 0.0
N305 N 0.44939 0.26695 0.21761 0.0
C306 C 0.43985 0.25665 0.19773 0.0
C307 C 0.43328 0.27109 0.17832 0.0
C308 C 0.43656 0.29593 0.17955 0.0
C309 C 0.44645 0.30612 0.20018 0.0
C310 C 0.4529 0.29082 0.21886 0.0
H311 H 0.43712 0.23759 0.19676 0.0
O312 O 0.39002 0.245 0.25718 0.0
O313 O 0.42797 0.25457 0.26029 0.0
O314 O 0.4213 0.20474 0.25113 0.0
O315 O 0.45412 0.21956 0.23362 0.0
C316 C 0.44969 0.33091 0.20312 0.0
C317 C 0.45899 0.33997 0.22471 0.0
H318 H 0.4762 0.3509 0.26916 0.0
H319 H 0.48467 0.32118 0.30091 0.0
H320 H 0.42557 0.2631 0.1625 0.0
H321 H 0.43123 0.30702 0.16464 0.0
H322 H 0.44481 0.34318 0.189 0.0
H323 H 0.46113 0.35908 0.22687 0.0
Mn324 Mn 0.02108 0.15679 0.52999 0.0
Mn325 Mn 0.9955 0.19666 0.49323 0.0
C326 C 0.99365 0.14414 0.50205 0.0
C327 C 0.02144 0.13706 0.56636 0.0
C328 C 0.04693 0.18002 0.48877 0.0
O329 O 0.02773 0.18867 0.54584 0.0
O330 O 0.00568 0.21346 0.52297 0.0
C331 C 0.95248 0.20958 0.52098 0.0
N332 N 0.96247 0.20048 0.50077 0.0
C333 C 0.92385 0.19305 0.48355 0.0
C334 C 0.91316 0.20253 0.5041 0.0
C335 C 0.92754 0.21082 0.5229 0.0
C336 C 0.9488 0.19258 0.48251 0.0
H337 H 0.96345 0.21577 0.53558 0.0
C338 C 0.01875 0.20913 0.54132 0.0
O339 O 0.04082 0.13944 0.55388 0.0
O340 O 0.00207 0.14646 0.55786 0.0
N341 N 0.9846 0.18197 0.46433 0.0
C342 C -0.00232 0.17185 0.4465 0.0
C343 C 0.98594 0.16182 0.42674 0.0
C344 C 0.96091 0.16227 0.42553 0.0
C345 C 0.94784 0.1728 0.4441 0.0
C346 C 0.96052 0.18274 0.46323 0.0
H347 H 0.0169 0.17127 0.44741 0.0
O348 O 0.0088 0.12913 0.51111 0.0
O349 O 0.9952 0.16597 0.50972 0.0
O350 O 0.04597 0.16395 0.50476 0.0
O351 O 0.0294 0.19371 0.48369 0.0
C352 C 0.92271 0.17336 0.44462 0.0
C353 C 0.91073 0.1835 0.46431 0.0
H354 H 0.89395 0.20332 0.50575 0.0
H355 H 0.9194 0.21802 0.53887 0.0
H356 H 0.99615 0.15363 0.41253 0.0
H357 H 0.95192 0.15429 0.41038 0.0
H358 H 0.91243 0.16577 0.4301 0.0
H359 H 0.8914 0.18356 0.46465 0.0
Mn360 Mn 0.07887 0.7733 0.79013 0.0
Mn361 Mn 0.03413 0.75133 0.75659 0.0
C362 C 0.08597 0.7421 0.76428 0.0
C363 C 0.10052 0.7744 0.8254 0.0
C364 C 0.05836 0.79887 0.74726 0.0
O365 O 0.04906 0.78611 0.80624 0.0
O366 O 0.0204 0.76675 0.78555 0.0
C367 C 0.0161 0.7135 0.78876 0.0
N368 N 0.02543 0.72012 0.76732 0.0
C369 C 0.02547 0.67944 0.75342 0.0
C370 C 0.01574 0.67221 0.7753 0.0
C371 C 0.01104 0.68932 0.79305 0.0
C372 C 0.02996 0.70381 0.75009 0.0
H373 H 0.01266 0.72656 0.80253 0.0
C374 C 0.02729 0.78037 0.80267 0.0
O375 O 0.09985 0.7926 0.81109 0.0
O376 O 0.08806 0.75574 0.81951 0.0
N377 N 0.0455 0.73566 0.72842 0.0
C378 C 0.05654 0.74533 0.70904 0.0
C379 C 0.06324 0.73046 0.68999 0.0
C380 C 0.05852 0.70585 0.69105 0.0
C381 C 0.04706 0.69633 0.71114 0.0
C382 C 0.04055 0.71205 0.72947 0.0
H383 H 0.06034 0.76421 0.70819 0.0
O384 O 0.10348 0.7554 0.77161 0.0
O385 O 0.06498 0.74748 0.77246 0.0
O386 O 0.07446 0.79667 0.76303 0.0
O387 O 0.04198 0.78337 0.74381 0.0
C388 C 0.04228 0.67178 0.71391 0.0
C389 C 0.03149 0.66335 0.73503 0.0
H390 H 0.01211 0.65354 0.7788 0.0
H391 H 0.00368 0.68385 0.81004 0.0
H392 H 0.07214 0.73793 0.67457 0.0
H393 H 0.06394 0.69441 0.67643 0.0
H394 H 0.04714 0.65919 0.70005 0.0
H395 H 0.0282 0.64441 0.73706 0.0
Mn396 Mn 0.48146 0.83096 0.01787 0.0
Mn397 Mn 0.50461 0.78443 0.98765 0.0
C398 C 0.51426 0.83638 0.99374 0.0
C399 C 0.47883 0.85423 0.0521 0.0
C400 C 0.45791 0.80861 0.97465 0.0
O401 O 0.46742 0.80201 0.03456 0.0
O402 O 0.48737 0.77216 0.01617 0.0
C403 C 0.54023 0.76706 0.0226 0.0
N404 N 0.53501 0.7758 0.00052 0.0
C405 C 0.57638 0.77491 0.9891 0.0
C406 C 0.58219 0.76579 0.01167 0.0
C407 C 0.56403 0.76186 0.02849 0.0
C408 C 0.55232 0.77954 0.98416 0.0
H409 H 0.52635 0.76419 0.03565 0.0
C410 C 0.47296 0.77999 0.03219 0.0
O411 O 0.46145 0.85324 0.03683 0.0
O412 O 0.49754 0.84125 0.04776 0.0
N413 N 0.52199 0.79453 0.96004 0.0
C414 C 0.51362 0.80501 0.93976 0.0
C415 C 0.52963 0.81094 0.92144 0.0
C416 C 0.55406 0.80604 0.92415 0.0
C417 C 0.56226 0.7952 0.94517 0.0
C418 C 0.54543 0.78946 0.96271 0.0
H419 H 0.49488 0.80896 0.93765 0.0
O420 O 0.5008 0.85442 -0.00068 0.0
O421 O 0.50796 0.81588 0.00244 0.0
O422 O 0.45955 0.82553 0.98967 0.0
O423 O 0.47344 0.792 0.97278 0.0
C424 C 0.58652 0.79031 0.94959 0.0
C425 C 0.59357 0.78016 0.97153 0.0
H426 H 0.60054 0.762 0.01638 0.0
H427 H 0.56838 0.75495 0.046 0.0
H428 H 0.52319 0.81939 0.90531 0.0
H429 H 0.56639 0.81087 0.91008 0.0
H430 H 0.59994 0.79459 0.93637 0.0
H431 H 0.6123 0.77676 0.97483 0.0
Mn432 Mn 0.91298 0.27562 0.69855 0.0
Mn433 Mn 0.95747 0.2557 0.73369 0.0
C434 C 0.90505 0.24858 0.72846 0.0
C435 C 0.89072 0.2726 0.6638 0.0
C436 C 0.93537 0.30504 0.73809 0.0
O437 O 0.94277 0.28444 0.68014 0.0
O438 O 0.97107 0.26684 0.70274 0.0
C439 C 0.97308 0.21361 0.70568 0.0
N440 N 0.96447 0.22306 0.72638 0.0
C441 C 0.96263 0.18421 0.74465 0.0
C442 C 0.97165 0.1741 0.72359 0.0
C443 C 0.97688 0.18887 0.70403 0.0
C444 C 0.95947 0.20902 0.74535 0.0
H445 H 0.97693 0.22484 0.69051 0.0
C446 C 0.96428 0.27796 0.68387 0.0
O447 O 0.89219 0.29265 0.67538 0.0
O448 O 0.90253 0.25452 0.67218 0.0
N449 N 0.94618 0.24388 0.76371 0.0
C450 C 0.93614 0.2562 0.78214 0.0
C451 C 0.92913 0.2439 0.80281 0.0
C452 C 0.93249 0.21909 0.80433 0.0
C453 C 0.94292 0.2068 0.78517 0.0
C454 C 0.94982 0.22005 0.76514 0.0
H455 H 0.93332 0.27523 0.78102 0.0
O456 O 0.88805 0.26173 0.7198 0.0
O457 O 0.92603 0.25165 0.71919 0.0
O458 O 0.91928 0.30213 0.72236 0.0
O459 O 0.95108 0.28925 0.74306 0.0
C460 C 0.94626 0.18186 0.78498 0.0
C461 C 0.95612 0.17057 0.76474 0.0
H462 H 0.97437 0.15499 0.72216 0.0
H463 H 0.9837 0.18118 0.68767 0.0
H464 H 0.92101 0.2535 0.81748 0.0
H465 H 0.9268 0.20963 0.8202 0.0
H466 H 0.94103 0.17115 0.8002 0.0
H467 H 0.9583 0.15135 0.76468 0.0
Mn468 Mn 0.97502 0.68269 0.95494 0.0
Mn469 Mn -0.00124 0.7243 0.99145 0.0
C470 C 0.00526 0.67243 0.9806 0.0
C471 C 0.97248 0.66293 0.91862 0.0
C472 C 0.9508 0.70078 -0.00016 0.0
O473 O 0.96376 0.71393 0.94065 0.0
O474 O 0.98371 0.74042 0.96351 0.0
C475 C 0.03688 0.74263 0.95976 0.0
N476 N 0.03013 0.73248 0.98079 0.0
C477 C 0.0709 0.73027 0.99415 0.0
C478 C 0.07824 0.74098 0.97276 0.0
C479 C 0.06115 0.74713 0.95548 0.0
C480 C 0.04644 0.72642 -0.00248 0.0
H481 H 0.02387 0.74713 0.94629 0.0
C482 C 0.97026 0.73519 0.94571 0.0
O483 O 0.95446 0.66413 0.93307 0.0
O484 O 0.9919 0.67397 0.92492 0.0
N485 N 0.01432 0.71087 0.01877 0.0
C486 C 0.00447 0.69945 0.03784 0.0
C487 C 0.01927 0.6914 0.0564 0.0
C488 C 0.044 0.69523 0.05521 0.0
C489 C 0.05371 0.70722 0.03552 0.0
C490 C 0.03805 0.71507 0.01768 0.0
H491 H 0.9855 0.69635 0.03883 0.0
O492 O 0.99131 0.6561 0.97189 0.0
O493 O 0.00138 0.69421 0.97362 0.0
O494 O 0.95218 0.68646 0.98237 0.0
O495 O 0.96663 0.71659 0.00438 0.0
C496 C 0.07835 0.71127 0.03268 0.0
C497 C 0.08694 0.72278 0.01201 0.0
H498 H 0.09696 0.74429 0.9693 0.0
H499 H 0.06669 0.7552 0.93883 0.0
H500 H 0.01164 0.68215 0.07154 0.0
H501 H 0.05538 0.68876 0.06944 0.0
H502 H 0.09088 0.70533 0.04615 0.0
H503 H 0.10595 0.7255 0.00988 0.0
Mn504 Mn 0.56197 0.72573 0.19001 0.0
Mn505 Mn 0.51945 0.7494 0.22548 0.0
C506 C 0.57193 0.75437 0.21764 0.0
C507 C 0.5836 0.72434 0.15475 0.0
C508 C 0.541 0.70035 0.23302 0.0
O509 O 0.53124 0.71633 0.17356 0.0
O510 O 0.50427 0.73566 0.19634 0.0
C511 C 0.50374 0.78901 0.19414 0.0
N512 N 0.51266 0.78134 0.21542 0.0
C513 C 0.51542 0.82166 0.23011 0.0
C514 C 0.50599 0.82995 0.20846 0.0
C515 C 0.50017 0.81355 0.19039 0.0
C516 C 0.51838 0.79698 0.23292 0.0
H517 H 0.4995 0.77652 0.18008 0.0
C518 C 0.50995 0.72297 0.17811 0.0
O519 O 0.58103 0.70562 0.16811 0.0
O520 O 0.57279 0.74377 0.16143 0.0
N521 N 0.53186 0.76375 0.25394 0.0
C522 C 0.54185 0.75297 0.27332 0.0
C523 C 0.54929 0.76697 0.29276 0.0
C524 C 0.54631 0.79187 0.29211 0.0
C525 C 0.53575 0.80254 0.27208 0.0
C526 C 0.52842 0.78765 0.25336 0.0
H527 H 0.54431 0.73386 0.2739 0.0
O528 O 0.58815 0.74018 0.20913 0.0
O529 O 0.55044 0.75169 0.20934 0.0
O530 O 0.55589 0.70172 0.21604 0.0
O531 O 0.52579 0.71671 0.23772 0.0
C532 C 0.5326 0.8274 0.26979 0.0
C533 C 0.52246 0.83695 0.24882 0.0
H534 H 0.50341 0.84887 0.20541 0.0
H535 H 0.49308 0.81982 0.17355 0.0
H536 H 0.55744 0.75861 0.30814 0.0
H537 H 0.55232 0.80263 0.30702 0.0
H538 H 0.53817 0.83935 0.28394 0.0
H539 H 0.52039 0.85611 0.24716 0.0
Mn540 Mn 0.51657 0.32136 0.46054 0.0
Mn541 Mn 0.49136 0.27752 0.49293 0.0
C542 C 0.48844 0.33057 0.48899 0.0
C543 C 0.51819 0.34506 0.42667 0.0
C544 C 0.54204 0.29502 0.50015 0.0
O545 O 0.52412 0.29134 0.44173 0.0
O546 O 0.50286 0.26386 0.46215 0.0
C547 C 0.44954 0.2657 0.46289 0.0
N548 N 0.4587 0.27329 0.48411 0.0
C549 C 0.41946 0.2771 0.50106 0.0
C550 C 0.40964 0.26909 0.47948 0.0
C551 C 0.42474 0.2634 0.4603 0.0
C552 C 0.44432 0.27871 0.50271 0.0
H553 H 0.46108 0.26144 0.44805 0.0
C554 C 0.51588 0.27024 0.4444 0.0
O555 O 0.53703 0.3411 0.43953 0.0
O556 O 0.49848 0.33475 0.43318 0.0
N557 N 0.47922 0.28905 0.52273 0.0
C558 C 0.49146 0.29789 0.54181 0.0
C559 C 0.47888 0.30537 0.56216 0.0
C560 C 0.45388 0.30367 0.56269 0.0
C561 C 0.44168 0.29447 0.54285 0.0
C562 C 0.45519 0.28711 0.52315 0.0
H563 H 0.51064 0.29937 0.54145 0.0
O564 O 0.50345 0.34669 0.48181 0.0
O565 O 0.49041 0.30964 0.47918 0.0
O566 O 0.54089 0.31221 0.48547 0.0
O567 O 0.52486 0.2805 0.50379 0.0
C568 C 0.41663 0.29275 0.54169 0.0
C569 C 0.40552 0.28402 0.52082 0.0
H570 H 0.39055 0.26739 0.47737 0.0
H571 H 0.41726 0.25734 0.44354 0.0
H572 H 0.48842 0.31253 0.57737 0.0
H573 H 0.44423 0.30966 0.57834 0.0
H574 H 0.40572 0.29833 0.55664 0.0
H575 H 0.38624 0.28303 0.52003 0.0
Mn576 Mn 0.28428 0.42964 0.2296 0.0
Mn577 Mn 0.25394 0.47539 0.25428 0.0
C578 C 0.25839 0.42262 0.26065 0.0
C579 C 0.31801 0.40579 0.22653 0.0
C580 C 0.24163 0.45348 0.20628 0.0
O581 O 0.30214 0.4589 0.21807 0.0
O582 O 0.28324 0.48798 0.23857 0.0
C583 C 0.28843 0.49 0.29162 0.0
N584 N 0.26625 0.48222 0.28541 0.0
C585 C 0.25374 0.48164 0.3265 0.0
C586 C 0.27637 0.48986 0.33331 0.0
C587 C 0.29379 0.49402 0.31579 0.0
C588 C 0.24934 0.4782 0.30212 0.0
H589 H 0.30197 0.49301 0.27826 0.0
C590 C 0.29995 0.4806 0.22474 0.0
O591 O 0.3034 0.40839 0.20875 0.0
O592 O 0.31333 0.41754 0.24598 0.0
N593 N 0.22565 0.46524 0.27051 0.0
C594 C 0.20526 0.45585 0.26115 0.0
C595 C 0.18634 0.44982 0.27642 0.0
C596 C 0.18856 0.45354 0.30112 0.0
C597 C 0.20966 0.46334 0.31034 0.0
C598 C 0.22782 0.46923 0.29422 0.0
H599 H 0.2035 0.45281 0.2422 0.0
O600 O 0.26451 0.40538 0.2464 0.0
O601 O 0.2679 0.44335 0.25644 0.0
O602 O 0.25705 0.43692 0.20719 0.0
O603 O 0.23944 0.46946 0.22244 0.0
C604 C 0.21356 0.46703 0.33492 0.0
C605 C 0.23558 0.47617 0.34299 0.0
H606 H 0.28065 0.49278 0.35195 0.0
H607 H 0.31136 0.5002 0.32091 0.0
H608 H 0.17014 0.44221 0.26918 0.0
H609 H 0.17402 0.44864 0.31286 0.0
H610 H 0.19986 0.46259 0.3478 0.0
H611 H 0.23849 0.47862 0.36196 0.0
Mn612 Mn 0.78199 0.08374 0.77539 0.0
Mn613 Mn 0.75067 0.03621 0.75612 0.0
C614 C 0.756 0.08763 0.74376 0.0
C615 C 0.81602 0.10726 0.7751 0.0
C616 C 0.74034 0.06259 0.80232 0.0
O617 O 0.79972 0.05547 0.78957 0.0
O618 O 0.78027 0.02474 0.77208 0.0
C619 C 0.78335 0.01713 0.71924 0.0
N620 N 0.76165 0.02619 0.72539 0.0
C621 C 0.74771 0.02344 0.68484 0.0
C622 C 0.76986 0.01395 0.6781 0.0
C623 C 0.78776 0.0108 0.69538 0.0
C624 C 0.74426 0.02917 0.70894 0.0
H625 H 0.79722 0.01485 0.73243 0.0
C626 C 0.79722 0.03324 0.78499 0.0
O627 O 0.80181 0.10689 0.79337 0.0
O628 O 0.81078 0.09344 0.75721 0.0
N629 N 0.72203 0.04555 0.73999 0.0
C630 C 0.7023 0.05645 0.74909 0.0
C631 C 0.68303 0.06171 0.73394 0.0
C632 C 0.68426 0.05572 0.70962 0.0
C633 C 0.70474 0.04447 0.70066 0.0
C634 C 0.72327 0.03944 0.71666 0.0
H635 H 0.70132 0.06125 0.76774 0.0
O636 O 0.76219 0.10628 0.75609 0.0
O637 O 0.76515 0.06746 0.7505 0.0
O638 O 0.75526 0.07932 0.79914 0.0
O639 O 0.73764 0.04525 0.78773 0.0
C640 C 0.70769 0.03852 0.67639 0.0
C641 C 0.72915 0.02799 0.66849 0.0
H642 H 0.77341 0.00926 0.65967 0.0
H643 H 0.80495 0.00362 0.6903 0.0
H644 H 0.66733 0.07048 0.74097 0.0
H645 H 0.66947 0.06004 0.69794 0.0
H646 H 0.69369 0.04226 0.6636 0.0
H647 H 0.73133 0.02381 0.64973 0.0
Mn648 Mn 0.16043 0.53751 0.0215 0.0
Mn649 Mn 0.20227 0.5015 -0.00199 0.0
C650 C 0.15007 0.51056 0.99217 0.0
C651 C 0.14036 0.57366 0.02225 0.0
C652 C 0.18139 0.49524 0.04765 0.0
O653 O 0.19159 0.55308 0.0313 0.0
O654 O 0.21811 0.5308 0.0107 0.0
C655 C 0.21853 0.53094 0.95728 0.0
N656 N 0.20887 0.51028 0.96571 0.0
C657 C 0.20496 0.49446 0.92595 0.0
C658 C 0.21503 0.51549 0.91687 0.0
C659 C 0.22184 0.53381 0.9326 0.0
C660 C 0.20236 0.49249 0.95073 0.0
H661 H 0.22355 0.54517 0.96928 0.0
C662 C 0.21272 0.54873 0.02396 0.0
O663 O 0.14168 0.56025 0.04109 0.0
O664 O 0.15117 0.56629 0.00312 0.0
N665 N 0.1887 0.47304 0.98479 0.0
C666 C 0.1776 0.4547 0.99627 0.0
C667 C 0.16882 0.43533 0.98298 0.0
C668 C 0.17153 0.43502 0.95805 0.0
C669 C 0.18304 0.45407 0.94663 0.0
C670 C 0.19166 0.47277 0.96084 0.0
H671 H 0.1753 0.45493 0.0154 0.0
O672 O 0.13392 0.51914 0.0064 0.0
O673 O 0.17169 0.51817 0.99562 0.0
O674 O 0.16557 0.51136 0.04578 0.0
O675 O 0.19655 0.49063 0.03124 0.0
C676 C 0.18583 0.45549 0.92168 0.0
C677 C 0.19679 0.47566 0.91134 0.0
H678 H 0.21735 0.5179 0.89784 0.0
H679 H 0.22947 0.55015 0.92571 0.0
H680 H 0.15986 0.42074 0.99191 0.0
H681 H 0.1645 0.42016 0.94784 0.0
H682 H 0.1793 0.44132 0.91024 0.0
H683 H 0.19852 0.4767 0.89211 0.0
Mn684 Mn 0.70436 0.90887 0.27168 0.0
Mn685 Mn 0.74019 0.9529 0.25217 0.0
C686 C 0.73193 0.9012 0.24225 0.0
C687 C 0.66846 0.88845 0.26998 0.0
C688 C 0.74662 0.92754 0.29967 0.0
O689 O 0.68833 0.93893 0.2838 0.0
O690 O 0.71058 0.96726 0.26586 0.0
C691 C 0.71058 0.97184 0.21267 0.0
N692 N 0.73141 0.96199 0.22045 0.0
C693 C 0.74733 0.96138 0.18055 0.0
C694 C 0.72614 0.97172 0.17217 0.0
C695 C 0.70769 0.97695 0.1883 0.0
C696 C 0.7493 0.95692 0.20508 0.0
H697 H 0.69622 0.97562 0.22494 0.0
C698 C 0.69245 0.96063 0.2782 0.0
O699 O 0.6815 0.88825 0.28914 0.0
O700 O 0.67602 0.90101 0.25205 0.0
N701 N 0.76894 0.94097 0.23804 0.0
C702 C 0.78756 0.92954 0.24872 0.0
C703 C 0.80718 0.92235 0.23489 0.0
C704 C 0.80745 0.92695 0.21025 0.0
C705 C 0.78812 0.93882 0.19967 0.0
C706 C 0.7692 0.94584 0.2144 0.0
H707 H 0.78741 0.92579 0.26761 0.0
O708 O 0.72317 0.88381 0.2548 0.0
O709 O 0.72398 0.92241 0.24717 0.0
O710 O 0.73023 0.91218 0.29661 0.0
O711 O 0.75112 0.94424 0.28477 0.0
C712 C 0.78669 0.94349 0.175 0.0
C713 C 0.7663 0.95476 0.16545 0.0
H714 H 0.72373 0.97542 0.15335 0.0
H715 H 0.69121 0.98476 0.18193 0.0
H716 H 0.82199 0.91313 0.24318 0.0
H717 H 0.82248 0.92112 0.19961 0.0
H718 H 0.80102 0.9382 0.16317 0.0
H719 H 0.76528 0.95796 0.14641 0.0
Mn720 Mn 0.3325 0.46867 0.52575 0.0
Mn721 Mn 0.28883 0.50233 0.50191 0.0
C722 C 0.3413 0.49577 0.49612 0.0
C723 C 0.3544 0.43355 0.52685 0.0
C724 C 0.3094 0.51011 0.55148 0.0
O725 O 0.30213 0.45155 0.53553 0.0
O726 O 0.27459 0.47234 0.5147 0.0
C727 C 0.27386 0.47197 0.46127 0.0
N728 N 0.28262 0.49307 0.46963 0.0
C729 C 0.28542 0.50899 0.42983 0.0
C730 C 0.27627 0.48749 0.42082 0.0
C731 C 0.27049 0.4689 0.43661 0.0
C732 C 0.28812 0.51113 0.45461 0.0
H733 H 0.26956 0.45756 0.47332 0.0
C734 C 0.28085 0.4547 0.52796 0.0
O735 O 0.35246 0.44711 0.54555 0.0
O736 O 0.34326 0.4402 0.50764 0.0
N737 N 0.30098 0.53136 0.48858 0.0
C738 C 0.31124 0.55026 0.49997 0.0
C739 C 0.31898 0.56999 0.48661 0.0
C740 C 0.31611 0.57009 0.4617 0.0
C741 C 0.30548 0.55046 0.45036 0.0
C742 C 0.29789 0.53139 0.46463 0.0
H743 H 0.31365 0.55021 0.51909 0.0
O744 O 0.35796 0.48828 0.51039 0.0
O745 O 0.32015 0.4871 0.49976 0.0
O746 O 0.326 0.49478 0.54982 0.0
O747 O 0.29401 0.51371 0.53503 0.0
C748 C 0.30259 0.54884 0.42542 0.0
C749 C 0.29254 0.52813 0.41517 0.0
H750 H 0.27387 0.48496 0.40179 0.0
H751 H 0.26356 0.4522 0.42978 0.0
H752 H 0.32726 0.58504 0.49547 0.0
H753 H 0.32232 0.58525 0.45143 0.0
H754 H 0.30833 0.56328 0.41394 0.0
H755 H 0.29072 0.52696 0.39595 0.0
Mn756 Mn 0.20373 0.5703 0.73335 0.0
Mn757 Mn 0.23534 0.52536 0.75798 0.0
C758 C 0.22972 0.57798 0.76414 0.0
C759 C 0.16968 0.59377 0.73075 0.0
C760 C 0.24712 0.5476 0.7101 0.0
O761 O 0.18645 0.54067 0.7219 0.0
O762 O 0.20656 0.51204 0.74186 0.0
C763 C 0.20078 0.51 0.79488 0.0
N764 N 0.22286 0.51823 0.78893 0.0
C765 C 0.23487 0.5192 0.83017 0.0
C766 C 0.21237 0.51045 0.83669 0.0
C767 C 0.19524 0.50588 0.81896 0.0
C768 C 0.23946 0.52273 0.80586 0.0
H769 H 0.18745 0.5067 0.78135 0.0
C770 C 0.18956 0.51897 0.72815 0.0
O771 O 0.18401 0.59125 0.71274 0.0
O772 O 0.17468 0.58191 0.75003 0.0
N773 N 0.26325 0.53606 0.77453 0.0
C774 C 0.28367 0.54555 0.76538 0.0
C775 C 0.30236 0.55183 0.78086 0.0
C776 C 0.2999 0.54823 0.80555 0.0
C777 C 0.27881 0.53825 0.81453 0.0
C778 C 0.26089 0.53209 0.79822 0.0
H779 H 0.28563 0.54847 0.74644 0.0
O780 O 0.22311 0.59504 0.74992 0.0
O781 O 0.22061 0.55703 0.7601 0.0
O782 O 0.23097 0.56349 0.7108 0.0
O783 O 0.24994 0.53185 0.72637 0.0
C784 C 0.2747 0.53454 0.83906 0.0
C785 C 0.25276 0.52502 0.84688 0.0
H786 H 0.20795 0.5074 0.85525 0.0
H787 H 0.17776 0.49931 0.82387 0.0
H788 H 0.31858 0.55956 0.77379 0.0
H789 H 0.31426 0.55334 0.81745 0.0
H790 H 0.28821 0.53919 0.8521 0.0
H791 H 0.24974 0.5225 0.8658 0.0
Mn792 Mn 0.68473 0.95594 0.9808 0.0
Mn793 Mn 0.72713 0.98916 0.00778 0.0
C794 C 0.67456 0.98079 0.01178 0.0
C795 C 0.66333 0.92082 0.97577 0.0
C796 C 0.70563 0.00126 0.95967 0.0
O797 O 0.71557 0.9406 0.96992 0.0
O798 O 0.74239 0.9613 0.99164 0.0
C799 C 0.74258 0.95445 0.04458 0.0
N800 N 0.73374 0.97635 0.03874 0.0
C801 C 0.73093 0.98755 0.08014 0.0
C802 C 0.74027 0.96523 0.08657 0.0
C803 C 0.74607 0.9486 0.06871 0.0
C804 C 0.72801 0.99245 0.05579 0.0
H805 H 0.74681 0.94149 0.03095 0.0
C806 C 0.7368 0.94441 0.97719 0.0
O807 O 0.66591 0.93603 0.95852 0.0
O808 O 0.67394 0.92562 0.99586 0.0
N809 N 0.71467 0.01628 0.02447 0.0
C810 C 0.70475 0.03655 0.01537 0.0
C811 C 0.69731 0.05474 0.03096 0.0
C812 C 0.70022 0.05195 0.0557 0.0
C813 C 0.71072 0.03106 0.06464 0.0
C814 C 0.71804 0.01365 0.04823 0.0
H815 H 0.70237 0.03878 0.99638 0.0
O816 O 0.65841 0.97345 0.99687 0.0
O817 O 0.69611 0.97284 0.00849 0.0
O818 O 0.69068 0.98426 0.95952 0.0
O819 O 0.72105 0.00426 0.97623 0.0
C820 C 0.71384 0.02666 0.0892 0.0
C821 C 0.72392 0.00492 0.09695 0.0
H822 H 0.74279 0.96057 0.10516 0.0
H823 H 0.75309 0.93125 0.07353 0.0
H824 H 0.68921 0.07081 0.02392 0.0
H825 H 0.69421 0.06591 0.06768 0.0
H826 H 0.70829 0.03977 0.10231 0.0
H827 H 0.72599 0.00164 0.11588 0.0
Mn828 Mn 0.83121 0.00746 0.47975 0.0
Mn829 Mn 0.7847 0.97886 0.50477 0.0
C830 C 0.8369 0.98392 0.513 0.0
C831 C 0.8551 0.04114 0.47587 0.0
C832 C 0.80744 0.9641 0.45785 0.0
O833 O 0.8023 0.0246 0.46608 0.0
O834 O 0.77271 0.00738 0.48734 0.0
C835 C 0.76912 0.01497 0.54011 0.0
N836 N 0.77723 0.99259 0.53513 0.0
C837 C 0.77731 0.98209 0.57678 0.0
C838 C 0.76879 0.00498 0.58234 0.0
C839 C 0.76469 0.02149 0.56392 0.0
C840 C 0.78112 0.97652 0.5527 0.0
H841 H 0.76613 0.02779 0.52603 0.0
C842 C 0.78046 0.02302 0.47249 0.0
O843 O 0.85345 0.0255 0.45883 0.0
O844 O 0.84247 0.03746 0.49494 0.0
N845 N 0.79461 0.95136 0.52248 0.0
C846 C 0.80432 0.93062 0.51426 0.0
C847 C 0.81027 0.91249 0.53051 0.0
C848 C 0.80619 0.91587 0.55502 0.0
C849 C 0.79613 0.93735 0.56306 0.0
C850 C 0.79032 0.95468 0.546 0.0
H851 H 0.80765 0.92799 0.49545 0.0
O852 O 0.85472 0.98878 0.49901 0.0
O853 O 0.81649 0.99296 0.50693 0.0
O854 O 0.82464 0.97884 0.45865 0.0
O855 O 0.79112 0.96311 0.47374 0.0
C856 C 0.79212 0.94245 0.58737 0.0
C857 C 0.7827 0.96479 0.59422 0.0
H858 H 0.76558 0.01015 0.6007 0.0
H859 H 0.75826 0.03923 0.56807 0.0
H860 H 0.8181 0.896 0.52419 0.0
H861 H 0.81103 0.90194 0.56753 0.0
H862 H 0.79649 0.92942 0.60096 0.0
H863 H 0.77998 0.96861 0.61299 0.0
H864 H 0.09032 0.16052 0.50014 0.0
H865 H 0.16145 0.25396 0.42001 0.0
H866 H 0.05689 0.21039 0.4517 0.0
H867 H 0.1932 0.21445 0.47818 0.0
H868 H 0.12454 0.23191 0.42569 0.0
H869 H 0.1293 0.17369 0.4861 0.0
C870 C 0.09111 0.17396 0.48627 0.0
C871 C 0.07025 0.1847 0.47741 0.0
C872 C 0.13964 0.22794 0.43709 0.0
C873 C 0.11489 0.19988 0.46141 0.0
C874 C 0.16077 0.24054 0.4339 0.0
C875 C 0.18041 0.23638 0.44894 0.0
C876 C 0.13802 0.21102 0.45544 0.0
C877 C 0.17844 0.21851 0.46638 0.0
C878 C 0.11342 0.18153 0.47836 0.0
C879 C 0.07248 0.20188 0.45933 0.0
N880 N 0.15752 0.20663 0.46931 0.0
N881 N 0.09442 0.20913 0.45212 0.0
H882 H 0.03412 0.94676 0.74121 0.0
H883 H 0.03059 0.8106 0.70866 0.0
H884 H 0.00015 0.91954 0.67748 0.0
H885 H 0.08243 0.84006 0.75761 0.0
H886 H 0.02224 0.85085 0.69425 0.0
H887 H 0.05511 0.90864 0.74542 0.0
C888 C 0.03132 0.93295 0.72795 0.0
C889 C 0.01487 0.93614 0.70936 0.0
C890 C 0.03578 0.84845 0.70783 0.0
C891 C 0.03866 0.89263 0.71407 0.0
C892 C 0.04052 0.82546 0.71607 0.0
C893 C 0.05683 0.82199 0.73471 0.0
C894 C 0.04711 0.86808 0.71864 0.0
C895 C 0.06943 0.84189 0.74343 0.0
C896 C 0.04334 0.91123 0.7303 0.0
C897 C 0.01219 0.91772 0.69249 0.0
N898 N 0.06393 0.86416 0.73569 0.0
N899 N 0.02363 0.89664 0.69548 0.0
H900 H 0.30988 0.78806 0.97242 0.0
H901 H 0.44581 0.77553 0.94048 0.0
H902 H 0.33588 0.7411 0.91696 0.0
H903 H 0.41751 0.8356 0.97982 0.0
H904 H 0.40539 0.76539 0.92796 0.0
H905 H 0.34865 0.80807 0.97282 0.0
C906 C 0.32363 0.78207 0.96022 0.0
C907 C 0.31972 0.76258 0.94498 0.0
C908 C 0.40809 0.78107 0.93896 0.0
C909 C 0.36404 0.78535 0.94531 0.0
C910 C 0.4312 0.7869 0.94607 0.0
C911 C 0.43504 0.80606 0.96175 0.0
C912 C 0.38872 0.79428 0.94789 0.0
C913 C 0.41541 0.82036 0.96811 0.0
C914 C 0.34571 0.79359 0.96033 0.0
C915 C 0.33811 0.75583 0.92929 0.0
N916 N 0.39303 0.81385 0.96161 0.0
N917 N 0.35955 0.76696 0.93012 0.0
H918 H 0.50421 0.08573 0.16371 0.0
H919 H 0.41299 0.16183 0.24193 0.0
H920 H 0.4584 0.0554 0.2178 0.0
H921 H 0.47079 0.19244 0.20114 0.0
H922 H 0.42281 0.12266 0.22566 0.0
H923 H 0.48547 0.12441 0.17007 0.0
C924 C 0.49004 0.08709 0.17678 0.0
C925 C 0.4832 0.06729 0.19059 0.0
C926 C 0.43313 0.13801 0.22006 0.0
C927 C 0.46166 0.11169 0.19786 0.0
C928 C 0.42751 0.16044 0.22925 0.0
C929 C 0.4414 0.18045 0.22326 0.0
C930 C 0.4527 0.13556 0.20469 0.0
C931 C 0.45983 0.17749 0.20658 0.0
C932 C 0.47937 0.10924 0.18038 0.0
C933 C 0.46452 0.0702 0.207 0.0
N934 N 0.46512 0.15539 0.19808 0.0
N935 N 0.45455 0.09208 0.21036 0.0
H936 H 0.691 0.26724 0.50544 0.0
H937 H 0.55297 0.26183 0.53451 0.0
H938 H 0.66124 0.22476 0.56253 0.0
H939 H 0.58452 0.31713 0.49097 0.0
H940 H 0.59287 0.24971 0.54701 0.0
H941 H 0.65245 0.28731 0.50116 0.0
C942 C 0.67647 0.26224 0.51715 0.0
C943 C 0.67929 0.24404 0.53409 0.0
C944 C 0.59102 0.26472 0.53499 0.0
C945 C 0.63529 0.26684 0.52933 0.0
C946 C 0.56823 0.27164 0.52785 0.0
C947 C 0.56539 0.29022 0.51134 0.0
C948 C 0.61105 0.27627 0.52528 0.0
C949 C 0.58582 0.30249 0.50351 0.0
C950 C 0.65452 0.27377 0.51479 0.0
C951 C 0.6599 0.23848 0.549 0.0
N952 N 0.60782 0.29502 0.51024 0.0
N953 N 0.63868 0.24964 0.54608 0.0
H954 H 0.91176 0.34622 0.72649 0.0
H955 H 0.97917 0.42299 0.82547 0.0
H956 H 0.96085 0.31685 0.77821 0.0
H957 H 0.94841 0.45321 0.7615 0.0
H958 H 0.96278 0.38425 0.81452 0.0
H959 H 0.91616 0.38534 0.74518 0.0
C960 C 0.92328 0.3479 0.74193 0.0
C961 C 0.93629 0.32827 0.75056 0.0
C962 C 0.95935 0.39945 0.80308 0.0
C963 C 0.94119 0.37298 0.77205 0.0
C964 C 0.96862 0.42165 0.80933 0.0
C965 C 0.96569 0.44133 0.79405 0.0
C966 C 0.947 0.39691 0.78147 0.0
C967 C 0.95151 0.43846 0.77359 0.0
C968 C 0.92575 0.37026 0.75255 0.0
C969 C 0.95079 0.33155 0.77071 0.0
N970 N 0.94296 0.41654 0.7677 0.0
N971 N 0.95298 0.35354 0.78068 0.0
H972 H 0.82904 0.74155 0.08231 0.0
H973 H 0.91435 0.66871 0.99577 0.0
H974 H 0.80486 0.7026 0.02019 0.0
H975 H 0.93698 0.72993 0.03704 0.0
H976 H 0.87543 0.67077 0.01475 0.0
H977 H 0.86922 0.72644 0.07563 0.0
C978 C 0.83199 0.72939 0.06755 0.0
C979 C 0.81362 0.72386 0.05134 0.0
C980 C 0.88906 0.6835 0.01988 0.0
C981 C 0.85958 0.70652 0.04385 0.0
C982 C 0.91131 0.68244 0.00905 0.0
C983 C 0.92882 0.69966 0.01431 0.0
C984 C 0.88425 0.70178 0.03621 0.0
C985 C 0.92389 0.7166 0.03209 0.0
C986 C 0.85499 0.72087 0.06378 0.0
C987 C 0.81855 0.70774 0.03282 0.0
N988 N 0.90188 0.71745 0.0422 0.0
N989 N 0.8412 0.69989 0.02937 0.0
H990 H 0.5687 0.66086 0.22597 0.0
H991 H 0.5044 0.58522 0.32725 0.0
H992 H 0.51454 0.68937 0.27296 0.0
H993 H 0.53971 0.55416 0.26606 0.0
H994 H 0.51785 0.62456 0.31459 0.0
H995 H 0.56713 0.62325 0.24748 0.0
C996 C 0.55656 0.65934 0.24093 0.0
C997 C 0.54134 0.67824 0.24737 0.0
C998 C 0.52295 0.60907 0.30419 0.0
C999 C 0.53971 0.63509 0.27213 0.0
C1000 C 0.51539 0.58654 0.31141 0.0
C1001 C 0.52039 0.56636 0.2973 0.0
C1002 C 0.53573 0.6114 0.28286 0.0
C1003 C 0.53503 0.56924 0.27723 0.0
C1004 C 0.55576 0.63781 0.2532 0.0
C1005 C 0.52629 0.67518 0.26712 0.0
N1006 N 0.54191 0.59144 0.27039 0.0
N1007 N 0.5257 0.65387 0.2787 0.0
H1008 H 0.2422 0.42322 0.16797 0.0
H1009 H 0.15763 0.50564 0.08905 0.0
H1010 H 0.20722 0.48665 0.19468 0.0
H1011 H 0.21081 0.45795 0.0599 0.0
H1012 H 0.16708 0.49116 0.12894 0.0
H1013 H 0.22208 0.42858 0.12989 0.0
C1014 C 0.23009 0.43816 0.16599 0.0
C1015 C 0.22681 0.45485 0.18448 0.0
C1016 C 0.17642 0.48365 0.11376 0.0
C1017 C 0.20367 0.46089 0.14079 0.0
C1018 C 0.17101 0.49181 0.09092 0.0
C1019 C 0.18382 0.48333 0.07106 0.0
C1020 C 0.1946 0.46677 0.11677 0.0
C1021 C 0.20077 0.46527 0.0747 0.0
C1022 C 0.21862 0.44116 0.14418 0.0
C1023 C 0.21058 0.47357 0.18084 0.0
N1024 N 0.20586 0.45777 0.09718 0.0
N1025 N 0.19978 0.47624 0.15928 0.0
H1026 H 0.67236 0.00308 0.92419 0.0
H1027 H 0.75043 0.08853 0.84246 0.0
H1028 H 0.73792 0.03635 0.94754 0.0
H1029 H 0.70286 0.03405 0.81559 0.0
H1030 H 0.73684 0.07994 0.88289 0.0
H1031 H 0.67491 0.02494 0.88684 0.0
C1032 C 0.68721 0.01517 0.92162 0.0
C1033 C 0.70538 0.01735 0.9388 0.0
C1034 C 0.72908 0.07024 0.86807 0.0
C1035 C 0.70813 0.04256 0.89602 0.0
C1036 C 0.7367 0.07515 0.84494 0.0
C1037 C 0.72816 0.06155 0.82563 0.0
C1038 C 0.71264 0.05181 0.87184 0.0
C1039 C 0.71027 0.04463 0.82998 0.0
C1040 C 0.68855 0.02768 0.90027 0.0
C1041 C 0.72378 0.03379 0.93462 0.0
N1042 N 0.70331 0.04001 0.85271 0.0
N1043 N 0.72489 0.04555 0.91343 0.0
H1044 H 0.73729 0.89996 0.33885 0.0
H1045 H 0.83584 0.96458 0.41808 0.0
H1046 H 0.78705 0.95239 0.31201 0.0
H1047 H 0.77233 0.93166 0.44681 0.0
H1048 H 0.82538 0.94936 0.37871 0.0
H1049 H 0.75714 0.90153 0.37752 0.0
C1050 C 0.75257 0.91161 0.34095 0.0
C1051 C 0.76022 0.92647 0.32224 0.0
C1052 C 0.81398 0.94514 0.39373 0.0
C1053 C 0.78304 0.92811 0.36649 0.0
C1054 C 0.81995 0.95373 0.41628 0.0
C1055 C 0.80455 0.94999 0.43572 0.0
C1056 C 0.79257 0.93262 0.39062 0.0
C1057 C 0.78446 0.93543 0.43227 0.0
C1058 C 0.76387 0.91244 0.36306 0.0
C1059 C 0.78026 0.94097 0.32603 0.0
N1060 N 0.77883 0.92759 0.41003 0.0
N1061 N 0.79086 0.9416 0.34783 0.0
H1062 H 0.28402 0.51685 0.6998 0.0
H1063 H 0.27911 0.54698 0.56265 0.0
H1064 H 0.24479 0.57678 0.67111 0.0
H1065 H 0.33254 0.50063 0.59341 0.0
H1066 H 0.26912 0.56105 0.60265 0.0
H1067 H 0.30482 0.51301 0.66165 0.0
C1068 C 0.27996 0.52935 0.68563 0.0
C1069 C 0.26225 0.5468 0.68853 0.0
C1070 C 0.28331 0.54809 0.6006 0.0
C1071 C 0.28586 0.54247 0.64489 0.0
C1072 C 0.28899 0.54003 0.57775 0.0
C1073 C 0.30631 0.52222 0.57469 0.0
C1074 C 0.29478 0.53798 0.62049 0.0
C1075 C 0.31879 0.51413 0.5949 0.0
C1076 C 0.2919 0.52722 0.66388 0.0
C1077 C 0.25799 0.56274 0.66962 0.0
N1078 N 0.31246 0.52172 0.61699 0.0
N1079 N 0.26943 0.55995 0.64851 0.0
H1080 H 0.23532 0.45086 0.5102 0.0
H1081 H 0.24566 0.31121 0.51955 0.0
H1082 H 0.28688 0.41331 0.55353 0.0
H1083 H 0.19885 0.34878 0.47115 0.0
H1084 H 0.25074 0.34793 0.54236 0.0
H1085 H 0.21237 0.41409 0.50655 0.0
C1086 C 0.24156 0.43507 0.51946 0.0
C1087 C 0.26356 0.43501 0.53147 0.0
C1088 C 0.2389 0.348 0.52707 0.0
C1089 C 0.23744 0.39276 0.52709 0.0
C1090 C 0.23592 0.32697 0.51403 0.0
C1091 C 0.22251 0.32708 0.49284 0.0
C1092 C 0.22853 0.36927 0.51877 0.0
C1093 C 0.20996 0.34799 0.48695 0.0
C1094 C 0.22842 0.41402 0.51732 0.0
C1095 C 0.27039 0.41408 0.54349 0.0
N1096 N 0.21374 0.36839 0.4995 0.0
N1097 N 0.25768 0.39366 0.54052 0.0
H1098 H 0.90387 0.94769 0.73605 0.0
H1099 H 0.79942 0.98443 0.77995 0.0
H1100 H 0.93806 -0.00025 0.78149 0.0
H1101 H 0.84026 0.0447 0.80533 0.0
H1102 H 0.83557 0.96043 0.77993 0.0
H1103 H 0.8675 0.95237 0.75865 0.0
C1104 C 0.90395 0.95961 0.7513 0.0
C1105 C 0.9238 0.97409 0.7562 0.0
C1106 C 0.83674 0.97887 0.78553 0.0
C1107 C 0.88184 0.97971 0.78248 0.0
C1108 C 0.81594 0.99256 0.78582 0.0
C1109 C 0.81696 0.01696 0.79159 0.0
C1110 C 0.85875 0.98986 0.79048 0.0
C1111 C 0.8387 0.0262 0.79993 0.0
C1112 C 0.883 0.96226 0.76442 0.0
C1113 C 0.92299 0.98873 0.77655 0.0
N1114 N 0.85883 0.01281 0.79851 0.0
N1115 N 0.90212 0.99169 0.78849 0.0
H1116 H 0.30195 0.65328 0.97202 0.0
H1117 H 0.21025 0.58757 0.05378 0.0
H1118 H 0.25488 0.68858 0.02182 0.0
H1119 H 0.25715 0.55245 0.00368 0.0
H1120 H 0.23552 0.62291 0.05208 0.0
H1121 H 0.29571 0.61588 0.99324 0.0
C1122 C 0.29079 0.65335 0.9878 0.0
C1123 C 0.27811 0.67393 0.99451 0.0
C1124 C 0.24061 0.6073 0.04186 0.0
C1125 C 0.27056 0.631 0.01862 0.0
C1126 C 0.22614 0.58706 0.04279 0.0
C1127 C 0.23109 0.56728 0.02818 0.0
C1128 C 0.25995 0.60788 0.02595 0.0
C1129 C 0.25227 0.56749 0.0148 0.0
C1130 C 0.28719 0.63191 -9e-05 0.0
C1131 C 0.26446 0.67302 0.01551 0.0
N1132 N 0.26559 0.58771 0.01354 0.0
N1133 N 0.26047 0.65173 0.02641 0.0
H1134 H 0.54894 0.00173 0.26617 0.0
H1135 H 0.65225 0.95494 0.30548 0.0
H1136 H 0.5931 0.04148 0.21714 0.0
H1137 H 0.6881 0.00621 0.26058 0.0
H1138 H 0.6158 0.97757 0.30171 0.0
H1139 H 0.58327 0.99611 0.29193 0.0
C1140 C 0.5658 0.00959 0.26096 0.0
C1141 C 0.56829 0.02122 0.23891 0.0
C1142 C 0.63157 0.98445 0.29308 0.0
C1143 C 0.60824 0.01391 0.2679 0.0
C1144 C 0.65261 0.97136 0.29529 0.0
C1145 C 0.67309 0.97811 0.28254 0.0
C1146 C 0.63092 0.00436 0.27777 0.0
C1147 C 0.67259 -0.0001 0.27019 0.0
C1148 C 0.58565 0.0061 0.27563 0.0
C1149 C 0.59043 0.03166 0.23356 0.0
N1150 N 0.65168 0.01187 0.26759 0.0
N1151 N 0.60962 0.02724 0.24764 0.0
H1152 H 0.69718 0.13333 0.51705 0.0
H1153 H 0.78955 0.06147 0.44337 0.0
H1154 H 0.74725 0.16544 0.46811 0.0
H1155 H 0.73379 0.02936 0.48576 0.0
H1156 H 0.7668 0.0985 0.44234 0.0
H1157 H 0.702 0.09538 0.49639 0.0
C1158 C 0.70878 0.13257 0.50161 0.0
C1159 C 0.72257 0.15238 0.49493 0.0
C1160 C 0.75924 0.08319 0.45138 0.0
C1161 C 0.72856 0.10882 0.47148 0.0
C1162 C 0.77226 0.06197 0.45198 0.0
C1163 C 0.76405 0.04253 0.46551 0.0
C1164 C 0.73808 0.08506 0.4647 0.0
C1165 C 0.74123 0.04411 0.47574 0.0
C1166 C 0.71153 0.11084 0.48977 0.0
C1167 C 0.73678 0.15046 0.47437 0.0
N1168 N 0.72935 0.06522 0.47568 0.0
N1169 N 0.73996 0.12887 0.4638 0.0
H1170 H 0.15269 0.52415 0.69634 0.0
H1171 H 0.07689 0.44819 0.78281 0.0
H1172 H 0.18206 0.47461 0.74756 0.0
H1173 H 0.0478 0.49314 0.72732 0.0
H1174 H 0.11461 0.4469 0.76133 0.0
H1175 H 0.11503 0.50261 0.69778 0.0
C1176 C 0.15144 0.50838 0.70746 0.0
C1177 C 0.17023 0.50184 0.72268 0.0
C1178 C 0.09981 0.45657 0.75352 0.0
C1179 C 0.12696 0.47742 0.72482 0.0
C1180 C 0.0782 0.45734 0.76583 0.0
C1181 C 0.05945 0.47167 0.7574 0.0
C1182 C 0.10275 0.47055 0.73291 0.0
C1183 C 0.06202 0.48252 0.73496 0.0
C1184 C 0.12986 0.49604 0.70828 0.0
C1185 C 0.16779 0.48081 0.73611 0.0
N1186 N 0.08351 0.48229 0.72382 0.0
N1187 N 0.14628 0.46978 0.73745 0.0
H1188 H 0.73452 0.90836 0.94406 0.0
H1189 H 0.80745 0.83258 0.03337 0.0
H1190 H 0.78026 0.9376 -0.00121 0.0
H1191 H 0.76431 0.80364 0.97637 0.0
H1192 H 0.8095 0.87037 0.01203 0.0
H1193 H 0.75675 0.87107 0.94596 0.0
C1194 C 0.74964 0.90719 0.95606 0.0
C1195 C 0.75482 0.92576 0.97209 0.0
C1196 C 0.80008 0.85559 0.00386 0.0
C1197 C 0.78 0.8829 0.97473 0.0
C1198 C 0.79888 0.83393 0.01608 0.0
C1199 C 0.78478 0.81521 0.00717 0.0
C1200 C 0.78675 0.85862 0.98283 0.0
C1201 C 0.77473 0.81783 0.98436 0.0
C1202 C 0.76236 0.88582 0.95715 0.0
C1203 C 0.77508 0.92347 0.98666 0.0
N1204 N 0.77532 0.83938 0.9733 0.0
N1205 N 0.78647 0.90212 0.98819 0.0
H1206 H 0.33858 0.47287 0.19572 0.0
H1207 H 0.44613 0.51386 0.22817 0.0
H1208 H 0.30768 0.52561 0.24271 0.0
H1209 H 0.40719 0.54793 0.28532 0.0
H1210 H 0.4098 0.51298 0.20446 0.0
H1211 H 0.37652 0.4931 0.19856 0.0
C1212 C 0.33959 0.48918 0.20609 0.0
C1213 C 0.3201 0.49696 0.21977 0.0
C1214 C 0.40908 0.52065 0.22216 0.0
C1215 C 0.36387 0.52054 0.22322 0.0
C1216 C 0.42999 0.52142 0.23566 0.0
C1217 C 0.42952 0.53002 0.25921 0.0
C1218 C 0.38747 0.52804 0.23255 0.0
C1219 C 0.4083 0.54038 0.26756 0.0
C1220 C 0.36145 0.50093 0.20767 0.0
C1221 C 0.32238 0.51851 0.23239 0.0
N1222 N 0.38801 0.53855 0.25447 0.0
N1223 N 0.34406 0.52914 0.23437 0.0
H1224 H 0.49455 0.22649 0.43828 0.0
H1225 H 0.51093 0.24018 0.29965 0.0
H1226 H 0.54331 0.27549 0.40421 0.0
H1227 H 0.45673 0.19713 0.33353 0.0
H1228 H 0.53245 0.24192 0.3374 0.0
H1229 H 0.49061 0.20497 0.40064 0.0
C1230 C 0.50491 0.23242 0.42308 0.0
C1231 C 0.5186 0.25339 0.4242 0.0
C1232 C 0.51613 0.23162 0.33644 0.0
C1233 C 0.51396 0.22892 0.38102 0.0
C1234 C 0.50381 0.23057 0.31483 0.0
C1235 C 0.48148 0.21926 0.31361 0.0
C1236 C 0.50595 0.22146 0.35696 0.0
C1237 C 0.4735 0.2067 0.33378 0.0
C1238 C 0.50261 0.2201 0.40155 0.0
C1239 C 0.53196 0.25986 0.40401 0.0
N1240 N 0.48543 0.20863 0.35478 0.0
N1241 N 0.52887 0.248 0.3831 0.0
H1242 H 0.04662 0.20846 0.58153 0.0
H1243 H 0.01153 0.26471 0.68251 0.0
H1244 H 0.99565 0.25234 0.54391 0.0
H1245 H 0.95563 0.29447 0.63859 0.0
H1246 H 0.03451 0.25629 0.64679 0.0
H1247 H 0.04232 0.23371 0.61622 0.0
C1248 C 0.03488 0.2238 0.58038 0.0
C1249 C 0.02091 0.22779 0.55996 0.0
C1250 C 0.01726 0.26465 0.64477 0.0
C1251 C 0.01575 0.25721 0.60003 0.0
C1252 C 0.00421 0.26981 0.66535 0.0
C1253 C 0.98115 0.27943 0.66357 0.0
C1254 C 0.00692 0.26872 0.62223 0.0
C1255 C 0.973 0.28634 0.64089 0.0
C1256 C 0.03245 0.23844 0.60037 0.0
C1257 C 0.00642 0.24822 0.55941 0.0
N1258 N 0.9856 0.2803 0.62112 0.0
N1259 N 0.00382 0.26181 0.57933 0.0
H1260 H 0.93984 0.73335 0.90734 0.0
H1261 H 0.03348 0.81004 0.84126 0.0
H1262 H 0.99076 0.77958 0.94213 0.0
H1263 H 0.98078 0.76562 0.8067 0.0
H1264 H 0.00882 0.8108 0.87701 0.0
H1265 H 0.94427 0.75658 0.87092 0.0
C1266 C 0.95148 0.74879 0.90756 0.0
C1267 C 0.96586 0.75379 0.92748 0.0
C1268 C 0.00233 0.80136 0.86142 0.0
C1269 C 0.97142 0.78011 0.88565 0.0
C1270 C 0.01647 0.80088 0.84095 0.0
C1271 C 0.0097 0.78688 0.82127 0.0
C1272 C 0.98153 0.78741 0.86232 0.0
C1273 C 0.98713 0.77602 0.82171 0.0
C1274 C 0.95403 0.76207 0.88668 0.0
C1275 C 0.97997 0.77449 0.92693 0.0
N1276 N 0.97416 0.77596 0.84216 0.0
N1277 N 0.98302 0.78644 0.90607 0.0
H1278 H 0.46603 0.74434 0.17383 0.0
H1279 H 0.48273 0.73208 0.03591 0.0
H1280 H 0.51272 0.69408 0.13866 0.0
H1281 H 0.4451 0.78928 0.07145 0.0
H1282 H 0.47956 0.70816 0.07205 0.0
H1283 H 0.44451 0.74977 0.1364 0.0
C1284 C 0.47134 0.73385 0.15847 0.0
C1285 C 0.49196 0.7196 0.15908 0.0
C1286 C 0.47146 0.72572 0.07175 0.0
C1287 C 0.46753 0.72595 0.11621 0.0
C1288 C 0.47329 0.73945 0.05109 0.0
C1289 C 0.46508 0.76315 0.05096 0.0
C1290 C 0.46163 0.73587 0.09245 0.0
C1291 C 0.45243 0.7714 0.07097 0.0
C1292 C 0.45904 0.73703 0.13705 0.0
C1293 C 0.49751 0.706 0.13877 0.0
N1294 N 0.45164 0.75801 0.09114 0.0
N1295 N 0.48579 0.71 0.11796 0.0
H1296 H 0.18872 0.34078 0.36845 0.0
H1297 H 0.27565 0.43318 0.30443 0.0
H1298 H 0.25623 0.36446 0.39696 0.0
H1299 H 0.21794 0.39699 0.26879 0.0
H1300 H 0.26174 0.41728 0.34258 0.0
H1301 H 0.19245 0.37026 0.33639 0.0
C1302 C 0.20406 0.35253 0.36826 0.0
C1303 C 0.22244 0.3499 0.38506 0.0
C1304 C 0.25179 0.41319 0.32652 0.0
C1305 C 0.22681 0.38346 0.34855 0.0
C1306 C 0.25959 0.42244 0.30483 0.0
C1307 C 0.24756 0.41669 0.28369 0.0
C1308 C 0.2322 0.39757 0.32692 0.0
C1309 C 0.22745 0.40195 0.28487 0.0
C1310 C 0.20621 0.36926 0.34993 0.0
C1311 C 0.24186 0.36563 0.38409 0.0
N1312 N 0.22044 0.39272 0.30617 0.0
N1313 N 0.24368 0.38155 0.36594 0.0
H1314 H 0.86144 0.94478 0.52852 0.0
H1315 H 0.88397 0.00432 0.65396 0.0
H1316 H 0.82473 0.00782 0.55292 0.0
H1317 H 0.90996 0.93413 0.63549 0.0
H1318 H 0.85698 0.00275 0.61979 0.0
H1319 H 0.87481 0.93728 0.56958 0.0
C1320 C 0.85581 0.95668 0.5427 0.0
C1321 C 0.84175 0.97667 0.53763 0.0
C1322 C 0.86827 0.98749 0.62343 0.0
C1323 C 0.85739 0.96882 0.5842 0.0
C1324 C 0.88367 0.98839 0.64297 0.0
C1325 C 0.89957 0.96956 0.64723 0.0
C1326 C 0.86914 0.9678 0.60785 0.0
C1327 C 0.89824 0.94922 0.63262 0.0
C1328 C 0.86335 0.95244 0.56608 0.0
C1329 C 0.83519 0.99192 0.55634 0.0
N1330 N 0.88367 0.94908 0.61326 0.0
N1331 N 0.84327 0.98782 0.57877 0.0
H1332 H 0.2708 0.60277 0.77088 0.0
H1333 H 0.23444 0.63727 0.90177 0.0
H1334 H 0.21308 0.56873 0.80845 0.0
H1335 H 0.30188 0.65736 0.87056 0.0
H1336 H 0.22907 0.60779 0.87008 0.0
H1337 H 0.28541 0.61899 0.80879 0.0
C1338 C 0.26159 0.59833 0.78728 0.0
C1339 C 0.24107 0.58417 0.78683 0.0
C1340 C 0.24526 0.61833 0.87039 0.0
C1341 C 0.25694 0.60318 0.82994 0.0
C1342 C 0.2483 0.63519 0.88847 0.0
C1343 C 0.26839 0.65008 0.88847 0.0
C1344 C 0.26223 0.61673 0.852 0.0
C1345 C 0.28596 0.64644 0.87102 0.0
C1346 C 0.26988 0.6075 0.80888 0.0
C1347 C 0.22932 0.57921 0.80831 0.0
N1348 N 0.28224 0.63045 0.85318 0.0
N1349 N 0.23727 0.58895 0.82902 0.0
H1350 H 0.5934 0.0559 0.1201 0.0
H1351 H 0.64795 0.02097 0.01589 0.0
H1352 H 0.6064 0.98275 0.14058 0.0
H1353 H 0.68232 0.96594 0.0571 0.0
H1354 H 0.62944 0.03625 0.05227 0.0
H1355 H 0.624 0.05219 0.08926 0.0
C1356 C 0.60287 0.03914 0.11827 0.0
C1357 C 0.59693 0.01939 0.13246 0.0
C1358 C 0.64175 0.02144 0.05367 0.0
C1359 C 0.63132 0.01478 0.09681 0.0
C1360 C 0.65211 0.01263 0.03284 0.0
C1361 C 0.66702 0.99264 0.0338 0.0
C1362 C 0.64585 0.00964 0.07545 0.0
C1363 C 0.67139 0.98184 0.05589 0.0
C1364 C 0.62015 0.03695 0.10048 0.0
C1365 C 0.61006 -0.00174 0.12966 0.0
N1366 N 0.66058 0.99031 0.07586 0.0
N1367 N 0.62644 0.99642 0.11193 0.0
H1368 H 0.69004 0.14857 0.61984 0.0
H1369 H 0.77618 0.07179 0.70307 0.0
H1370 H 0.76103 0.12625 0.59998 0.0
H1371 H 0.71644 0.11234 0.7295 0.0
H1372 H 0.76466 0.08187 0.66223 0.0
H1373 H 0.69355 0.12541 0.65666 0.0
C1374 C 0.70617 0.13839 0.62296 0.0
C1375 C 0.72547 0.13966 0.60705 0.0
C1376 C 0.7538 0.08824 0.6769 0.0
C1377 C 0.72954 0.11329 0.64908 0.0
C1378 C 0.76024 0.08235 0.70015 0.0
C1379 C 0.7469 0.09092 0.71946 0.0
C1380 C 0.73413 0.10322 0.67302 0.0
C1381 C 0.72695 0.10523 0.71493 0.0
C1382 C 0.70817 0.12528 0.64403 0.0
C1383 C 0.74586 0.12602 0.61193 0.0
N1384 N 0.72116 0.11103 0.69209 0.0
N1385 N 0.74747 0.1136 0.63268 0.0
H1386 H 0.16188 0.5258 0.94802 0.0
H1387 H 0.06064 0.44815 0.88462 0.0
H1388 H 0.1195 0.47333 0.98485 0.0
H1389 H 0.09271 0.5113 0.85436 0.0
H1390 H 0.08892 0.45033 0.91792 0.0
H1391 H 0.14388 0.51346 0.91027 0.0
C1392 C 0.14927 0.51114 0.94798 0.0
C1393 C 0.14249 0.50013 0.96935 0.0
C1394 C 0.08996 0.46348 0.90379 0.0
C1395 C 0.12095 0.48671 0.9265 0.0
C1396 C 0.0739 0.46222 0.88476 0.0
C1397 C 0.07412 0.4798 0.86691 0.0
C1398 C 0.1064 0.48237 0.90485 0.0
C1399 C 0.0917 0.49758 0.86792 0.0
C1400 C 0.1388 0.50429 0.9265 0.0
C1401 C 0.12535 0.48197 0.96859 0.0
N1402 N 0.107 0.49853 0.8867 0.0
N1403 N 0.11502 0.47588 0.94747 0.0
H1404 H 0.77135 0.87381 0.2351 0.0
H1405 H 0.73632 0.85106 0.10095 0.0
H1406 H 0.7176 0.91454 0.19822 0.0
H1407 H 0.8 0.82206 0.13316 0.0
H1408 H 0.73259 0.87877 0.13444 0.0
H1409 H 0.7857 0.85868 0.19662 0.0
C1410 C 0.76301 0.87996 0.21877 0.0
C1411 C 0.74364 0.89565 0.21957 0.0
C1412 C 0.74763 0.86664 0.13399 0.0
C1413 C 0.75915 0.87793 0.17578 0.0
C1414 C 0.74973 0.8508 0.11488 0.0
C1415 C 0.76822 0.83395 0.11455 0.0
C1416 C 0.76389 0.86528 0.15306 0.0
C1417 C 0.78527 0.83456 0.13289 0.0
C1418 C 0.77114 0.87139 0.19685 0.0
C1419 C 0.73296 0.90281 0.19814 0.0
N1420 N 0.78244 0.84965 0.15165 0.0
N1421 N 0.74068 0.89367 0.17708 0.0
H1422 H 0.32954 0.47861 0.45277 0.0
H1423 H 0.42504 0.55929 0.38525 0.0
H1424 H 0.36988 0.53429 0.48725 0.0
H1425 H 0.39555 0.49365 0.3576 0.0
H1426 H 0.39724 0.55714 0.41887 0.0
H1427 H 0.34561 0.49103 0.41429 0.0
C1428 C 0.34131 0.49394 0.45206 0.0
C1429 C 0.34806 0.50585 0.47297 0.0
C1430 C 0.39662 0.54345 0.40522 0.0
C1431 C 0.36746 0.51942 0.42927 0.0
C1432 C 0.4124 0.54468 0.386 0.0
C1433 C 0.41284 0.52637 0.36888 0.0
C1434 C 0.38116 0.52384 0.40718 0.0
C1435 C 0.39604 0.50794 0.37063 0.0
C1436 C 0.35067 0.50086 0.43016 0.0
C1437 C 0.3641 0.52492 0.47136 0.0
N1438 N 0.38105 0.50701 0.3896 0.0
N1439 N 0.37343 0.53107 0.44982 0.0
H1440 H 0.25793 0.22699 0.38507 0.0
H1441 H 0.39032 0.25966 0.34845 0.0
H1442 H 0.29935 0.28223 0.41893 0.0
H1443 H 0.35354 0.19767 0.32126 0.0
H1444 H 0.35922 0.26457 0.37846 0.0
H1445 H 0.29422 0.21236 0.36537 0.0
C1446 C 0.27484 0.23562 0.38874 0.0
C1447 C 0.27595 0.25543 0.40394 0.0
C1448 C 0.35806 0.24967 0.36617 0.0
C1449 C 0.31716 0.23951 0.38105 0.0
C1450 C 0.37582 0.24689 0.34901 0.0
C1451 C 0.37427 0.22846 0.33215 0.0
C1452 C 0.33836 0.23417 0.36618 0.0
C1453 C 0.35528 0.21224 0.33385 0.0
C1454 C 0.2955 0.22733 0.37754 0.0
C1455 C 0.298 0.26648 0.40778 0.0
N1456 N 0.33779 0.21573 0.3503 0.0
N1457 N 0.31773 0.25849 0.39626 0.0
H1458 H 0.96457 0.05334 0.68 0.0
H1459 H 0.05408 0.10405 0.58161 0.0
H1460 H 0.01934 0.01121 0.64628 0.0
H1461 H 0.98697 0.13673 0.60055 0.0
H1462 H 0.04853 0.07506 0.61391 0.0
H1463 H 0.97978 0.08889 0.65966 0.0
C1464 C 0.98025 0.0518 0.6688 0.0
C1465 C 0.99112 0.02961 0.66507 0.0
C1466 C 0.03525 0.08885 0.61121 0.0
C1467 C 0.00799 0.06975 0.64114 0.0
C1468 C 0.03844 0.10543 0.59288 0.0
C1469 C 0.02072 0.12247 0.58819 0.0
C1470 C 0.01431 0.08955 0.62494 0.0
C1471 C 0.00086 0.12358 0.60334 0.0
C1472 C 0.98878 0.07198 0.65706 0.0
C1473 C 0.01075 0.02819 0.64973 0.0
N1474 N -0.00194 0.10716 0.6209 0.0
N1475 N 0.01856 0.04802 0.63819 0.0
H1476 H 0.23554 0.77432 0.89062 0.0
H1477 H 0.10252 0.74148 0.86135 0.0
H1478 H 0.19631 0.72043 0.92885 0.0
H1479 H 0.13607 0.806 0.83597 0.0
H1480 H 0.13458 0.73681 0.8905 0.0
H1481 H 0.19792 0.78968 0.87441 0.0
C1482 C 0.21887 0.76616 0.89599 0.0
C1483 C 0.21877 0.74644 0.91129 0.0
C1484 C 0.13473 0.75224 0.87886 0.0
C1485 C 0.17596 0.76313 0.89234 0.0
C1486 C 0.11643 0.75488 0.8622 0.0
C1487 C 0.11693 0.77389 0.84595 0.0
C1488 C 0.15385 0.76847 0.8789 0.0
C1489 C 0.13518 0.7909 0.84799 0.0
C1490 C 0.19744 0.77487 0.88682 0.0
C1491 C 0.19693 0.73603 0.91745 0.0
N1492 N 0.15321 0.78753 0.86383 0.0
N1493 N 0.17637 0.74432 0.90772 0.0
H1494 H 0.52621 0.94575 0.16487 0.0
H1495 H 0.44666 0.88998 0.06065 0.0
H1496 H 0.4747 0.98611 0.12452 0.0
H1497 H 0.50993 0.85691 0.08957 0.0
H1498 H 0.44976 0.92136 0.09094 0.0
H1499 H 0.5131 0.90933 0.14469 0.0
C1500 C 0.51161 0.94674 0.15223 0.0
C1501 C 0.50108 0.96872 0.14664 0.0
C1502 C 0.46275 0.90704 0.09084 0.0
C1503 C 0.48676 0.92747 0.12272 0.0
C1504 C 0.46097 0.88909 0.07362 0.0
C1505 C 0.4783 0.87104 0.07239 0.0
C1506 C 0.48191 0.9068 0.10697 0.0
C1507 C 0.49638 0.87069 0.08968 0.0
C1508 C 0.50432 0.92604 0.14054 0.0
C1509 C 0.48296 0.96935 0.12946 0.0
N1510 N 0.49785 0.88845 0.10613 0.0
N1511 N 0.47641 0.94899 0.11797 0.0
H1512 H 0.75758 0.2612 0.59367 0.0
H1513 H 0.89115 0.2371 0.63056 0.0
H1514 H 0.80073 0.20543 0.56298 0.0
H1515 H 0.85334 0.30113 0.65073 0.0
H1516 H 0.86013 0.22839 0.60131 0.0
H1517 H 0.79366 0.27927 0.61067 0.0
C1518 C 0.77479 0.25314 0.59012 0.0
C1519 C 0.77645 0.23218 0.57663 0.0
C1520 C 0.85875 0.24457 0.61182 0.0
C1521 C 0.81748 0.25206 0.59647 0.0
C1522 C 0.87646 0.24951 0.62855 0.0
C1523 C 0.87454 0.26963 0.64331 0.0
C1524 C 0.83874 0.25959 0.61023 0.0
C1525 C 0.85534 0.2853 0.6398 0.0
C1526 C 0.79534 0.2634 0.59974 0.0
C1527 C 0.79891 0.22197 0.57285 0.0
N1528 N 0.83788 0.27969 0.62392 0.0
N1529 N 0.81856 0.23189 0.58291 0.0
H1530 H 0.02066 0.55894 0.81891 0.0
H1531 H 0.93567 0.63459 0.90394 0.0
H1532 H 0.95756 0.531 0.8527 0.0
H1533 H 0.00776 0.65467 0.88581 0.0
H1534 H 0.93788 0.60203 0.87502 0.0
H1535 H 0.01035 0.59889 0.83325 0.0
C1536 C 0.00424 0.56143 0.82882 0.0
C1537 C 0.98964 0.54192 0.83435 0.0
C1538 C 0.95305 0.61383 0.87708 0.0
C1539 C 0.97824 0.58719 0.85153 0.0
C1540 C 0.95181 0.63247 0.89352 0.0
C1541 C 0.97179 0.647 0.89767 0.0
C1542 C 0.97441 0.60974 0.86471 0.0
C1543 C 0.99209 0.64362 0.88345 0.0
C1544 C -0.00152 0.58414 0.83714 0.0
C1545 C 0.96907 0.54576 0.84793 0.0
N1546 N 0.99302 0.62507 0.86784 0.0
N1547 N 0.96401 0.56801 0.8562 0.0
H1548 H 0.61363 0.68836 0.14134 0.0
H1549 H 0.69248 0.77624 0.06234 0.0
H1550 H 0.59315 0.76043 0.12319 0.0
H1551 H 0.72031 0.71549 0.1004 0.0
H1552 H 0.65197 0.76428 0.07346 0.0
H1553 H 0.64811 0.69195 0.11495 0.0
C1554 C 0.61607 0.70476 0.1314 0.0
C1555 C 0.60084 0.72436 0.13488 0.0
C1556 C 0.66688 0.75328 0.07896 0.0
C1557 C 0.64023 0.72852 0.10482 0.0
C1558 C 0.68991 0.75999 0.07251 0.0
C1559 C 0.70951 0.74653 0.08022 0.0
C1560 C 0.66357 0.73321 0.09356 0.0
C1561 C 0.7055 0.72612 0.09399 0.0
C1562 C 0.6358 0.70679 0.11642 0.0
C1563 C 0.60471 0.74505 0.12134 0.0
N1564 N 0.68291 0.72009 0.10035 0.0
N1565 N 0.62427 0.74673 0.10714 0.0
H1566 H 0.47028 0.44754 0.32461 0.0
H1567 H 0.55388 0.37616 0.41494 0.0
H1568 H 0.5305 0.47897 0.36064 0.0
H1569 H 0.48338 0.35361 0.39363 0.0
H1570 H 0.55141 0.4092 0.38648 0.0
H1571 H 0.48113 0.40859 0.34093 0.0
C1572 C 0.48622 0.44602 0.33545 0.0
C1573 C 0.49987 0.46622 0.34098 0.0
C1574 C 0.53666 0.39679 0.38781 0.0
C1575 C 0.51178 0.42209 0.36052 0.0
C1576 C 0.53806 0.3779 0.40397 0.0
C1577 C 0.51861 0.3624 0.40691 0.0
C1578 C 0.51574 0.40005 0.37445 0.0
C1579 C 0.49863 0.36538 0.39216 0.0
C1580 C 0.49227 0.42388 0.34493 0.0
C1581 C 0.51977 0.46363 0.35582 0.0
N1582 N 0.49761 0.38402 0.37672 0.0
N1583 N 0.5251 0.44191 0.36524 0.0
H1584 H 0.38149 0.26944 0.21087 0.0
H1585 H 0.35414 0.39927 0.25869 0.0
H1586 H 0.4183 0.30169 0.27021 0.0
H1587 H 0.32644 0.37236 0.192 0.0
H1588 H 0.38226 0.366 0.25987 0.0
H1589 H 0.36543 0.30877 0.2001 0.0
C1590 C 0.38662 0.28497 0.22121 0.0
C1591 C 0.40146 0.28259 0.24113 0.0
C1592 C 0.37029 0.36754 0.24477 0.0
C1593 C 0.38271 0.32724 0.22962 0.0
C1594 C 0.35422 0.38654 0.24413 0.0
C1595 C 0.33767 0.38831 0.22545 0.0
C1596 C 0.3695 0.34998 0.22683 0.0
C1597 C 0.33873 0.3715 0.20689 0.0
C1598 C 0.37751 0.30737 0.21512 0.0
C1599 C 0.4073 0.303 0.25436 0.0
N1600 N 0.35406 0.35277 0.20826 0.0
N1601 N 0.39771 0.32445 0.24853 0.0
H1602 H 0.8521 0.10867 0.74239 0.0
H1603 H 0.87857 0.24447 0.76904 0.0
H1604 H 0.82455 0.14541 0.80427 0.0
H1605 H 0.91585 0.20342 0.71577 0.0
H1606 H 0.86266 0.20728 0.78585 0.0
H1607 H 0.88003 0.14146 0.73599 0.0
C1608 C 0.85219 0.12349 0.75484 0.0
C1609 C 0.83573 0.12457 0.77362 0.0
C1610 C 0.87479 0.20634 0.77084 0.0
C1611 C 0.86729 0.16234 0.7662 0.0
C1612 C 0.88379 0.22752 0.76131 0.0
C1613 C 0.89879 0.22676 0.74139 0.0
C1614 C 0.88024 0.18445 0.75977 0.0
C1615 C 0.90474 0.20457 0.73154 0.0
C1616 C 0.86816 0.14221 0.75121 0.0
C1617 C 0.8368 0.14402 0.7894 0.0
N1618 N 0.89527 0.18427 0.74069 0.0
N1619 N 0.85199 0.16239 0.78507 0.0
H1620 H 0.0502 0.68328 0.96692 0.0
H1621 H 0.10725 0.58743 0.05527 0.0
H1622 H 0.01026 0.64383 0.01941 0.0
H1623 H 0.13835 0.60821 0.98794 0.0
H1624 H 0.07661 0.61812 0.05004 0.0
H1625 H 0.08716 0.66569 0.98235 0.0
C1626 C 0.04939 0.6714 0.98216 0.0
C1627 C 0.02743 0.6652 0.99229 0.0
C1628 C 0.09043 0.61622 0.03666 0.0
C1629 C 0.0692 0.64459 0.00947 0.0
C1630 C 0.10794 0.59879 0.03964 0.0
C1631 C 0.12501 0.59498 0.02174 0.0
C1632 C 0.09015 0.62994 0.01572 0.0
C1633 C 0.12521 0.61029 0.00195 0.0
C1634 C 0.07037 0.66128 0.99082 0.0
C1635 C 0.02701 0.64915 0.01139 0.0
N1636 N 0.10782 0.62694 -0.00069 0.0
N1637 N 0.04765 0.63928 0.01936 0.0
H1638 H 0.63407 0.88996 0.23552 0.0
H1639 H 0.5984 0.7562 0.25818 0.0
H1640 H 0.65527 0.85136 0.29871 0.0
H1641 H 0.5637 0.80042 0.20574 0.0
H1642 H 0.61589 0.79203 0.27625 0.0
H1643 H 0.6042 0.85933 0.22732 0.0
C1644 C 0.63214 0.87523 0.24789 0.0
C1645 C 0.64742 0.87291 0.26756 0.0
C1646 C 0.60401 0.794 0.26113 0.0
C1647 C 0.61366 0.8376 0.25809 0.0
C1648 C 0.59413 0.77359 0.25086 0.0
C1649 C 0.57934 0.77563 0.23087 0.0
C1650 C 0.59974 0.81642 0.25069 0.0
C1651 C 0.57463 0.79833 0.22154 0.0
C1652 C 0.61507 0.85775 0.24323 0.0
C1653 C 0.64399 0.85366 0.28319 0.0
N1654 N 0.58501 0.81788 0.23139 0.0
N1655 N 0.62778 0.83645 0.27785 0.0
H1656 H 0.3883 0.42138 0.55983 0.0
H1657 H 0.44348 0.32229 0.4739 0.0
H1658 H 0.35673 0.39814 0.49347 0.0
H1659 H 0.48362 0.35805 0.52892 0.0
H1660 H 0.40712 0.34139 0.48842 0.0
H1661 H 0.41865 0.39016 0.55574 0.0
C1662 C 0.38749 0.40943 0.54464 0.0
C1663 C 0.37027 0.41257 0.52672 0.0
C1664 C 0.42376 0.34471 0.49767 0.0
C1665 C 0.40477 0.37696 0.52201 0.0
C1666 C 0.44444 0.33361 0.48956 0.0
C1667 C 0.46634 0.33832 0.50061 0.0
C1668 C 0.42517 0.36114 0.51655 0.0
C1669 C 0.46691 0.35386 0.52017 0.0
C1670 C 0.40483 0.39169 0.5423 0.0
C1671 C 0.36994 0.39656 0.50749 0.0
N1672 N 0.44659 0.36492 0.52746 0.0
N1673 N 0.38711 0.37958 0.50552 0.0
H1674 H 0.1607 0.62734 0.6965 0.0
H1675 H 0.0723 0.69931 0.78173 0.0
H1676 H 0.1351 0.60136 0.76433 0.0
H1677 H 0.11307 0.73171 0.72523 0.0
H1678 H 0.08615 0.65994 0.76879 0.0
H1679 H 0.13416 0.66182 0.70019 0.0
C1680 C 0.14914 0.62862 0.71193 0.0
C1681 C 0.15042 0.61172 0.73038 0.0
C1682 C 0.09173 0.67559 0.75892 0.0
C1683 C 0.12019 0.65109 0.7347 0.0
C1684 C 0.08369 0.69798 0.76616 0.0
C1685 C 0.09126 0.71855 0.75415 0.0
C1686 C 0.10785 0.67387 0.73984 0.0
C1687 C 0.10669 0.71612 0.73469 0.0
C1688 C 0.13409 0.64835 0.71405 0.0
C1689 C 0.13494 0.61418 0.74988 0.0
N1690 N 0.1146 0.69412 0.72815 0.0
N1691 N 0.12066 0.63369 0.75167 0.0
H1692 H 0.55481 0.8224 0.01564 0.0
H1693 H 0.63491 0.90996 0.93769 0.0
H1694 H 0.52891 0.86208 0.95508 0.0
H1695 H 0.653 0.88622 0.00874 0.0
H1696 H 0.60113 0.88242 0.93751 0.0
H1697 H 0.59537 0.83568 0.00668 0.0
C1698 C 0.55785 0.83338 2e-05 0.0
C1699 C 0.53874 0.8409 0.98577 0.0
C1700 C 0.61276 0.88295 0.95295 0.0
C1701 C 0.58475 0.85687 0.97598 0.0
C1702 C 0.63209 0.8986 0.95307 0.0
C1703 C 0.64645 0.90075 0.9735 0.0
C1704 C 0.60783 0.86936 0.97337 0.0
C1705 C 0.64212 0.88541 0.99278 0.0
C1706 C 0.58092 0.8411 0.99504 0.0
C1707 C 0.54334 0.85578 0.96628 0.0
N1708 N 0.62295 0.87058 0.99239 0.0
N1709 N 0.56594 0.86344 0.962 0.0
H1710 H 0.8571 0.08053 0.50448 0.0
H1711 H 0.9888 0.1131 0.46473 0.0
H1712 H 0.89194 0.0472 0.44441 0.0
H1713 H 0.9488 0.1525 0.51726 0.0
H1714 H 0.9521 0.09206 0.45318 0.0
H1715 H 0.88865 0.11048 0.50572 0.0
C1716 C 0.87127 0.07969 0.49137 0.0
C1717 C 0.87211 0.06119 0.47454 0.0
C1718 C 0.95123 0.10573 0.46682 0.0
C1719 C 0.90853 0.09519 0.47605 0.0
C1720 C 0.97212 0.1177 0.47335 0.0
C1721 C 0.97155 0.1348 0.49156 0.0
C1722 C 0.9299 0.11048 0.47918 0.0
C1723 C 0.94976 0.13984 0.50268 0.0
C1724 C 0.88929 0.09682 0.49204 0.0
C1725 C 0.89073 0.06109 0.4578 0.0
N1726 N 0.92984 0.1276 0.49645 0.0
N1727 N 0.90846 0.07761 0.45922 0.0
loop_
_geom_bond_atom_site_label_1
_geom_bond_atom_site_label_2
_geom_bond_distance
_geom_bond_site_symmetry_2
_ccdc_geom_bond_type
Mn0 O5 2.095 . S
Mn0 O15 2.162 . S
Mn0 O16 2.297 . S
Mn0 O24 2.385 . S
Mn0 O25 2.209 . S
Mn0 O26 2.094 . S
Mn1 O6 2.121 . S
Mn1 N8 2.257 . S
Mn1 N17 2.282 . S
Mn1 O25 2.215 . S
Mn1 O27 2.117 . S
C2 O24 1.234 . S
C2 O25 1.283 . S
C3 O15 1.281 . S
C3 O16 1.236 . S
C4 O26 1.240 . S
C4 O27 1.264 . S
O5 Mn0 2.095 . S
O5 C14 1.250 . S
O6 Mn1 2.121 . S
O6 C14 1.258 . S
C7 N8 1.326 . S
C7 C11 1.460 . S
C7 H13 0.929 . S
N8 Mn1 2.257 . S
N8 C7 1.326 . S
N8 C12 1.362 . S
C9 C10 1.258 . S
C9 C12 1.431 . S
C9 C29 1.449 . S
C10 C9 1.258 . S
C10 C11 1.477 . S
C10 H30 0.931 . S
C11 C7 1.460 . S
C11 C10 1.477 . S
C11 H31 0.930 . S
C12 N8 1.362 . S
C12 C9 1.431 . S
C12 C22 1.476 . S
H13 C7 0.929 . S
C14 O5 1.250 . S
C14 O6 1.258 . S
O15 Mn0 2.162 . S
O15 C3 1.281 . S
O16 Mn0 2.297 . S
O16 C3 1.236 . S
N17 Mn1 2.282 . S
N17 C18 1.328 . S
N17 C22 1.318 . S
C18 N17 1.328 . S
C18 C19 1.457 . S
C18 H23 0.929 . S
C19 C18 1.457 . S
C19 C20 1.291 . S
C19 H32 0.931 . S
C20 C19 1.291 . S
C20 C21 1.373 . S
C20 H33 0.929 . S
C21 C20 1.373 . S
C21 C22 1.396 . S
C21 C28 1.403 . S
C22 C12 1.476 . S
C22 N17 1.318 . S
C22 C21 1.396 . S
H23 C18 0.929 . S
O24 Mn0 2.385 . S
O24 C2 1.234 . S
O25 Mn0 2.209 . S
O25 Mn1 2.215 . S
O25 C2 1.283 . S
O26 Mn0 2.094 . S
O26 C4 1.240 . S
O27 Mn1 2.117 . S
O27 C4 1.264 . S
C28 C21 1.403 . S
C28 C29 1.399 . S
C28 H34 0.929 . S
C29 C9 1.449 . S
C29 C28 1.399 . S
C29 H35 0.930 . S
H30 C10 0.931 . S
H31 C11 0.930 . S
H32 C19 0.931 . S
H33 C20 0.929 . S
H34 C28 0.929 . S
H35 C29 0.930 . S
Mn36 O41 2.095 . S
Mn36 O51 2.162 . S
Mn36 O52 2.297 . S
Mn36 O60 2.385 . S
Mn36 O61 2.209 . S
Mn36 O62 2.094 . S
Mn37 O42 2.121 . S
Mn37 N44 2.257 1_565 S
Mn37 N53 2.282 1_655 S
Mn37 O61 2.215 . S
Mn37 O63 2.117 . S
C38 O60 1.234 . S
C38 O61 1.283 . S
C39 O51 1.281 . S
C39 O52 1.236 . S
C40 O62 1.240 . S
C40 O63 1.264 . S
O41 Mn36 2.095 . S
O41 C50 1.250 . S
O42 Mn37 2.121 . S
O42 C50 1.258 . S
C43 N44 1.326 . S
C43 C47 1.460 . S
C43 H49 0.929 . S
N44 Mn37 2.257 1_545 S
N44 C43 1.326 . S
N44 C48 1.362 1_655 S
C45 C46 1.248 1_455 S
C45 C48 1.431 . S
C45 C65 1.449 . S
C46 C45 1.248 1_655 S
C46 C47 1.491 . S
C46 H66 0.926 1_655 S
C47 C43 1.460 . S
C47 C46 1.491 . S
C47 H67 0.930 . S
C48 N44 1.362 1_455 S
C48 C45 1.431 . S
C48 C58 1.476 1_545 S
H49 C43 0.929 . S
C50 O41 1.250 . S
C50 O42 1.258 . S
O51 Mn36 2.162 . S
O51 C39 1.281 . S
O52 Mn36 2.297 . S
O52 C39 1.236 . S
N53 Mn37 2.282 1_455 S
N53 C54 1.328 . S
N53 C58 1.318 . S
C54 N53 1.328 . S
C54 C55 1.457 . S
C54 H59 0.929 . S
C55 C54 1.457 . S
C55 C56 1.291 . S
C55 H68 0.931 . S
C56 C55 1.291 . S
C56 C57 1.400 . S
C56 H69 0.929 . S
C57 C56 1.400 . S
C57 C58 1.406 . S
C57 C64 1.367 1_565 S
C58 C48 1.476 1_565 S
C58 N53 1.318 . S
C58 C57 1.406 . S
H59 C54 0.929 . S
O60 Mn36 2.385 . S
O60 C38 1.234 . S
O61 Mn36 2.209 . S
O61 Mn37 2.215 . S
O61 C38 1.283 . S
O62 Mn36 2.094 . S
O62 C40 1.240 . S
O63 Mn37 2.117 . S
O63 C40 1.264 . S
C64 C57 1.367 1_545 S
C64 C65 1.399 . S
C64 H70 0.929 . S
C65 C45 1.449 . S
C65 C64 1.399 . S
C65 H71 0.930 . S
H66 C46 0.926 1_455 S
H67 C47 0.930 . S
H68 C55 0.931 . S
H69 C56 0.929 . S
H70 C64 0.929 . S
H71 C65 0.930 . S
Mn72 O77 2.095 . S
Mn72 O87 2.162 . S
Mn72 O88 2.297 . S
Mn72 O96 2.385 . S
Mn72 O97 2.209 . S
Mn72 O98 2.094 . S
Mn73 O78 2.121 . S
Mn73 N80 2.257 . S
Mn73 N89 2.282 . S
Mn73 O97 2.215 . S
Mn73 O99 2.117 . S
C74 O96 1.234 . S
C74 O97 1.283 . S
C75 O87 1.281 . S
C75 O88 1.236 . S
C76 O98 1.240 . S
C76 O99 1.264 . S
O77 Mn72 2.095 . S
O77 C86 1.250 . S
O78 Mn73 2.121 . S
O78 C86 1.258 . S
C79 N80 1.326 . S
C79 C83 1.460 . S
C79 H85 0.929 . S
N80 Mn73 2.257 . S
N80 C79 1.326 . S
N80 C84 1.362 . S
C81 C82 1.258 . S
C81 C84 1.431 . S
C81 C101 1.449 . S
C82 C81 1.258 . S
C82 C83 1.477 . S
C82 H102 0.931 . S
C83 C79 1.460 . S
C83 C82 1.477 . S
C83 H103 0.930 . S
C84 N80 1.362 . S
C84 C81 1.431 . S
C84 C94 1.476 . S
H85 C79 0.929 . S
C86 O77 1.250 . S
C86 O78 1.258 . S
O87 Mn72 2.162 . S
O87 C75 1.281 . S
O88 Mn72 2.297 . S
O88 C75 1.236 . S
N89 Mn73 2.282 . S
N89 C90 1.328 . S
N89 C94 1.318 . S
C90 N89 1.328 . S
C90 C91 1.457 . S
C90 H95 0.929 . S
C91 C90 1.457 . S
C91 C92 1.291 . S
C91 H104 0.931 . S
C92 C91 1.291 . S
C92 C93 1.373 . S
C92 H105 0.929 . S
C93 C92 1.373 . S
C93 C94 1.396 . S
C93 C100 1.403 . S
C94 C84 1.476 . S
C94 N89 1.318 . S
C94 C93 1.396 . S
H95 C90 0.929 . S
O96 Mn72 2.385 . S
O96 C74 1.234 . S
O97 Mn72 2.209 . S
O97 Mn73 2.215 . S
O97 C74 1.283 . S
O98 Mn72 2.094 . S
O98 C76 1.240 . S
O99 Mn73 2.117 . S
O99 C76 1.264 . S
C100 C93 1.403 . S
C100 C101 1.399 . S
C100 H106 0.929 . S
C101 C81 1.449 . S
C101 C100 1.399 . S
C101 H107 0.930 . S
H102 C82 0.931 . S
H103 C83 0.930 . S
H104 C91 0.931 . S
H105 C92 0.929 . S
H106 C100 0.929 . S
H107 C101 0.930 . S
Mn108 O113 2.095 . S
Mn108 O123 2.162 . S
Mn108 O124 2.297 . S
Mn108 O132 2.385 . S
Mn108 O133 2.209 . S
Mn108 O134 2.094 . S
Mn109 O114 2.121 . S
Mn109 N116 2.257 1_545 S
Mn109 N125 2.282 . S
Mn109 O133 2.215 . S
Mn109 O135 2.117 . S
C110 O132 1.234 . S
C110 O133 1.283 . S
C111 O123 1.281 . S
C111 O124 1.236 . S
C112 O134 1.240 . S
C112 O135 1.264 . S
O113 Mn108 2.095 . S
O113 C122 1.250 . S
O114 Mn109 2.121 . S
O114 C122 1.258 . S
C115 N116 1.326 . S
C115 C119 1.460 . S
C115 H121 0.929 . S
N116 Mn109 2.257 1_565 S
N116 C115 1.326 . S
N116 C120 1.362 . S
C117 C118 1.258 . S
C117 C120 1.431 . S
C117 C137 1.449 . S
C118 C117 1.258 . S
C118 C119 1.477 . S
C118 H138 0.931 . S
C119 C115 1.460 . S
C119 C118 1.477 . S
C119 H139 0.930 . S
C120 N116 1.362 . S
C120 C117 1.431 . S
C120 C130 1.476 1_565 S
H121 C115 0.929 . S
C122 O113 1.250 . S
C122 O114 1.258 . S
O123 Mn108 2.162 . S
O123 C111 1.281 . S
O124 Mn108 2.297 . S
O124 C111 1.236 . S
N125 Mn109 2.282 . S
N125 C126 1.328 . S
N125 C130 1.318 . S
C126 N125 1.328 . S
C126 C127 1.457 . S
C126 H131 0.929 . S
C127 C126 1.457 . S
C127 C128 1.291 . S
C127 H140 0.931 . S
C128 C127 1.291 . S
C128 C129 1.400 . S
C128 H141 0.929 . S
C129 C128 1.400 . S
C129 C130 1.406 . S
C129 C136 1.367 1_545 S
C130 C120 1.476 1_545 S
C130 N125 1.318 . S
C130 C129 1.406 . S
H131 C126 0.929 . S
O132 Mn108 2.385 . S
O132 C110 1.234 . S
O133 Mn108 2.209 . S
O133 Mn109 2.215 . S
O133 C110 1.283 . S
O134 Mn108 2.094 . S
O134 C112 1.240 . S
O135 Mn109 2.117 . S
O135 C112 1.264 . S
C136 C129 1.367 1_565 S
C136 C137 1.399 . S
C136 H142 0.929 . S
C137 C117 1.449 . S
C137 C136 1.399 . S
C137 H143 0.930 . S
H138 C118 0.931 . S
H139 C119 0.930 . S
H140 C127 0.931 . S
H141 C128 0.929 . S
H142 C136 0.929 . S
H143 C137 0.930 . S
Mn144 O149 2.095 . S
Mn144 O159 2.162 . S
Mn144 O160 2.297 . S
Mn144 O168 2.385 . S
Mn144 O169 2.209 . S
Mn144 O170 2.094 . S
Mn145 O150 2.121 . S
Mn145 N152 2.257 . S
Mn145 N161 2.282 . S
Mn145 O169 2.215 . S
Mn145 O171 2.117 . S
C146 O168 1.234 . S
C146 O169 1.283 . S
C147 O159 1.281 . S
C147 O160 1.236 . S
C148 O170 1.240 . S
C148 O171 1.264 . S
O149 Mn144 2.095 . S
O149 C158 1.250 . S
O150 Mn145 2.121 . S
O150 C158 1.258 . S
C151 N152 1.326 . S
C151 C155 1.460 . S
C151 H157 0.929 . S
N152 Mn145 2.257 . S
N152 C151 1.326 . S
N152 C156 1.362 . S
C153 C154 1.258 . S
C153 C156 1.431 . S
C153 C173 1.449 . S
C154 C153 1.258 . S
C154 C155 1.477 . S
C154 H174 0.931 . S
C155 C151 1.460 . S
C155 C154 1.477 . S
C155 H175 0.930 . S
C156 N152 1.362 . S
C156 C153 1.431 . S
C156 C166 1.476 . S
H157 C151 0.929 . S
C158 O149 1.250 . S
C158 O150 1.258 . S
O159 Mn144 2.162 . S
O159 C147 1.281 . S
O160 Mn144 2.297 . S
O160 C147 1.236 . S
N161 Mn145 2.282 . S
N161 C162 1.328 . S
N161 C166 1.318 . S
C162 N161 1.328 . S
C162 C163 1.457 . S
C162 H167 0.929 . S
C163 C162 1.457 . S
C163 C164 1.291 . S
C163 H176 0.931 . S
C164 C163 1.291 . S
C164 C165 1.373 . S
C164 H177 0.929 . S
C165 C164 1.373 . S
C165 C166 1.396 . S
C165 C172 1.403 . S
C166 C156 1.476 . S
C166 N161 1.318 . S
C166 C165 1.396 . S
H167 C162 0.929 . S
O168 Mn144 2.385 . S
O168 C146 1.234 . S
O169 Mn144 2.209 . S
O169 Mn145 2.215 . S
O169 C146 1.283 . S
O170 Mn144 2.094 . S
O170 C148 1.240 . S
O171 Mn145 2.117 . S
O171 C148 1.264 . S
C172 C165 1.403 . S
C172 C173 1.399 . S
C172 H178 0.929 . S
C173 C153 1.449 . S
C173 C172 1.399 . S
C173 H179 0.930 . S
H174 C154 0.931 . S
H175 C155 0.930 . S
H176 C163 0.931 . S
H177 C164 0.929 . S
H178 C172 0.929 . S
H179 C173 0.930 . S
Mn180 O185 2.095 . S
Mn180 O195 2.162 . S
Mn180 O196 2.297 . S
Mn180 O204 2.385 . S
Mn180 O205 2.209 . S
Mn180 O206 2.094 . S
Mn181 O186 2.121 . S
Mn181 N188 2.257 . S
Mn181 N197 2.282 1_455 S
Mn181 O205 2.215 . S
Mn181 O207 2.117 . S
C182 O204 1.234 . S
C182 O205 1.283 . S
C183 O195 1.281 . S
C183 O196 1.236 . S
C184 O206 1.240 . S
C184 O207 1.264 . S
O185 Mn180 2.095 . S
O185 C194 1.250 . S
O186 Mn181 2.121 . S
O186 C194 1.258 . S
C187 N188 1.326 . S
C187 C191 1.460 . S
C187 H193 0.929 . S
N188 Mn181 2.257 . S
N188 C187 1.326 . S
N188 C192 1.362 1_455 S
C189 C190 1.248 1_655 S
C189 C192 1.431 . S
C189 C209 1.449 . S
C190 C189 1.248 1_455 S
C190 C191 1.491 . S
C190 H210 0.926 1_455 S
C191 C187 1.460 . S
C191 C190 1.491 . S
C191 H211 0.930 . S
C192 N188 1.362 1_655 S
C192 C189 1.431 . S
C192 C202 1.476 . S
H193 C187 0.929 . S
C194 O185 1.250 . S
C194 O186 1.258 . S
O195 Mn180 2.162 . S
O195 C183 1.281 . S
O196 Mn180 2.297 . S
O196 C183 1.236 . S
N197 Mn181 2.282 1_655 S
N197 C198 1.328 . S
N197 C202 1.318 . S
C198 N197 1.328 . S
C198 C199 1.457 . S
C198 H203 0.929 . S
C199 C198 1.457 . S
C199 C200 1.291 . S
C199 H212 0.931 . S
C200 C199 1.291 . S
C200 C201 1.373 . S
C200 H213 0.929 . S
C201 C200 1.373 . S
C201 C202 1.396 . S
C201 C208 1.403 . S
C202 C192 1.476 . S
C202 N197 1.318 . S
C202 C201 1.396 . S
H203 C198 0.929 . S
O204 Mn180 2.385 . S
O204 C182 1.234 . S
O205 Mn180 2.209 . S
O205 Mn181 2.215 . S
O205 C182 1.283 . S
O206 Mn180 2.094 . S
O206 C184 1.240 . S
O207 Mn181 2.117 . S
O207 C184 1.264 . S
C208 C201 1.403 . S
C208 C209 1.399 . S
C208 H214 0.929 . S
C209 C189 1.449 . S
C209 C208 1.399 . S
C209 H215 0.930 . S
H210 C190 0.926 1_655 S
H211 C191 0.930 . S
H212 C199 0.931 . S
H213 C200 0.929 . S
H214 C208 0.929 . S
H215 C209 0.930 . S
Mn216 O221 2.095 . S
Mn216 O231 2.162 . S
Mn216 O232 2.297 . S
Mn216 O240 2.385 . S
Mn216 O241 2.209 . S
Mn216 O242 2.094 . S
Mn217 O222 2.121 . S
Mn217 N224 2.257 . S
Mn217 N233 2.282 . S
Mn217 O241 2.215 . S
Mn217 O243 2.117 . S
C218 O240 1.234 . S
C218 O241 1.283 . S
C219 O231 1.281 . S
C219 O232 1.236 . S
C220 O242 1.240 . S
C220 O243 1.264 . S
O221 Mn216 2.095 . S
O221 C230 1.250 . S
O222 Mn217 2.121 . S
O222 C230 1.258 . S
C223 N224 1.326 . S
C223 C227 1.460 . S
C223 H229 0.929 . S
N224 Mn217 2.257 . S
N224 C223 1.326 . S
N224 C228 1.362 . S
C225 C226 1.258 . S
C225 C228 1.431 . S
C225 C245 1.449 . S
C226 C225 1.258 . S
C226 C227 1.477 . S
C226 H246 0.931 . S
C227 C223 1.460 . S
C227 C226 1.477 . S
C227 H247 0.930 . S
C228 N224 1.362 . S
C228 C225 1.431 . S
C228 C238 1.476 . S
H229 C223 0.929 . S
C230 O221 1.250 . S
C230 O222 1.258 . S
O231 Mn216 2.162 . S
O231 C219 1.281 . S
O232 Mn216 2.297 . S
O232 C219 1.236 . S
N233 Mn217 2.282 . S
N233 C234 1.328 . S
N233 C238 1.318 . S
C234 N233 1.328 . S
C234 C235 1.457 . S
C234 H239 0.929 . S
C235 C234 1.457 . S
C235 C236 1.291 . S
C235 H248 0.931 . S
C236 C235 1.291 . S
C236 C237 1.373 . S
C236 H249 0.929 . S
C237 C236 1.373 . S
C237 C238 1.396 . S
C237 C244 1.403 . S
C238 C228 1.476 . S
C238 N233 1.318 . S
C238 C237 1.396 . S
H239 C234 0.929 . S
O240 Mn216 2.385 . S
O240 C218 1.234 . S
O241 Mn216 2.209 . S
O241 Mn217 2.215 . S
O241 C218 1.283 . S
O242 Mn216 2.094 . S
O242 C220 1.240 . S
O243 Mn217 2.117 . S
O243 C220 1.264 . S
C244 C237 1.403 . S
C244 C245 1.399 . S
C244 H250 0.929 . S
C245 C225 1.449 . S
C245 C244 1.399 . S
C245 H251 0.930 . S
H246 C226 0.931 . S
H247 C227 0.930 . S
H248 C235 0.931 . S
H249 C236 0.929 . S
H250 C244 0.929 . S
H251 C245 0.930 . S
Mn252 O257 2.095 . S
Mn252 O267 2.162 . S
Mn252 O268 2.297 . S
Mn252 O276 2.385 . S
Mn252 O277 2.209 . S
Mn252 O278 2.094 . S
Mn253 O258 2.121 . S
Mn253 N260 2.257 . S
Mn253 N269 2.282 . S
Mn253 O277 2.215 . S
Mn253 O279 2.117 . S
C254 O276 1.234 . S
C254 O277 1.283 . S
C255 O267 1.281 . S
C255 O268 1.236 . S
C256 O278 1.240 . S
C256 O279 1.264 . S
O257 Mn252 2.095 . S
O257 C266 1.250 . S
O258 Mn253 2.121 . S
O258 C266 1.258 . S
C259 N260 1.326 . S
C259 C263 1.460 . S
C259 H265 0.929 . S
N260 Mn253 2.257 . S
N260 C259 1.326 . S
N260 C264 1.362 . S
C261 C262 1.258 . S
C261 C264 1.431 . S
C261 C281 1.449 . S
C262 C261 1.258 . S
C262 C263 1.477 . S
C262 H282 0.931 . S
C263 C259 1.460 . S
C263 C262 1.477 . S
C263 H283 0.930 . S
C264 N260 1.362 . S
C264 C261 1.431 . S
C264 C274 1.476 . S
H265 C259 0.929 . S
C266 O257 1.250 . S
C266 O258 1.258 . S
O267 Mn252 2.162 . S
O267 C255 1.281 . S
O268 Mn252 2.297 . S
O268 C255 1.236 . S
N269 Mn253 2.282 . S
N269 C270 1.328 . S
N269 C274 1.318 . S
C270 N269 1.328 . S
C270 C271 1.457 . S
C270 H275 0.929 . S
C271 C270 1.457 . S
C271 C272 1.291 . S
C271 H284 0.931 . S
C272 C271 1.291 . S
C272 C273 1.373 . S
C272 H285 0.929 . S
C273 C272 1.373 . S
C273 C274 1.396 . S
C273 C280 1.403 . S
C274 C264 1.476 . S
C274 N269 1.318 . S
C274 C273 1.396 . S
H275 C270 0.929 . S
O276 Mn252 2.385 . S
O276 C254 1.234 . S
O277 Mn252 2.209 . S
O277 Mn253 2.215 . S
O277 C254 1.283 . S
O278 Mn252 2.094 . S
O278 C256 1.240 . S
O279 Mn253 2.117 . S
O279 C256 1.264 . S
C280 C273 1.403 . S
C280 C281 1.399 . S
C280 H286 0.929 . S
C281 C261 1.449 . S
C281 C280 1.399 . S
C281 H287 0.930 . S
H282 C262 0.931 . S
H283 C263 0.930 . S
H284 C271 0.931 . S
H285 C272 0.929 . S
H286 C280 0.929 . S
H287 C281 0.930 . S
Mn288 O293 2.095 . S
Mn288 O303 2.162 . S
Mn288 O304 2.297 . S
Mn288 O312 2.385 . S
Mn288 O313 2.209 . S
Mn288 O314 2.094 . S
Mn289 O294 2.121 . S
Mn289 N296 2.257 . S
Mn289 N305 2.282 . S
Mn289 O313 2.215 . S
Mn289 O315 2.117 . S
C290 O312 1.234 . S
C290 O313 1.283 . S
C291 O303 1.281 . S
C291 O304 1.236 . S
C292 O314 1.240 . S
C292 O315 1.264 . S
O293 Mn288 2.095 . S
O293 C302 1.250 . S
O294 Mn289 2.121 . S
O294 C302 1.258 . S
C295 N296 1.326 . S
C295 C299 1.460 . S
C295 H301 0.929 . S
N296 Mn289 2.257 . S
N296 C295 1.326 . S
N296 C300 1.362 . S
C297 C298 1.258 . S
C297 C300 1.431 . S
C297 C317 1.449 . S
C298 C297 1.258 . S
C298 C299 1.477 . S
C298 H318 0.931 . S
C299 C295 1.460 . S
C299 C298 1.477 . S
C299 H319 0.930 . S
C300 N296 1.362 . S
C300 C297 1.431 . S
C300 C310 1.476 . S
H301 C295 0.929 . S
C302 O293 1.250 . S
C302 O294 1.258 . S
O303 Mn288 2.162 . S
O303 C291 1.281 . S
O304 Mn288 2.297 . S
O304 C291 1.236 . S
N305 Mn289 2.282 . S
N305 C306 1.328 . S
N305 C310 1.318 . S
C306 N305 1.328 . S
C306 C307 1.457 . S
C306 H311 0.929 . S
C307 C306 1.457 . S
C307 C308 1.291 . S
C307 H320 0.931 . S
C308 C307 1.291 . S
C308 C309 1.373 . S
C308 H321 0.929 . S
C309 C308 1.373 . S
C309 C310 1.396 . S
C309 C316 1.403 . S
C310 C300 1.476 . S
C310 N305 1.318 . S
C310 C309 1.396 . S
H311 C306 0.929 . S
O312 Mn288 2.385 . S
O312 C290 1.234 . S
O313 Mn288 2.209 . S
O313 Mn289 2.215 . S
O313 C290 1.283 . S
O314 Mn288 2.094 . S
O314 C292 1.240 . S
O315 Mn289 2.117 . S
O315 C292 1.264 . S
C316 C309 1.403 . S
C316 C317 1.399 . S
C316 H322 0.929 . S
C317 C297 1.449 . S
C317 C316 1.399 . S
C317 H323 0.930 . S
H318 C298 0.931 . S
H319 C299 0.930 . S
H320 C307 0.931 . S
H321 C308 0.929 . S
H322 C316 0.929 . S
H323 C317 0.930 . S
Mn324 O329 2.095 . S
Mn324 O339 2.162 . S
Mn324 O340 2.297 . S
Mn324 O348 2.385 . S
Mn324 O349 2.209 . S
Mn324 O350 2.094 . S
Mn325 O330 2.121 . S
Mn325 N332 2.257 1_455 S
Mn325 N341 2.282 . S
Mn325 O349 2.215 . S
Mn325 O351 2.117 . S
C326 O348 1.234 . S
C326 O349 1.283 . S
C327 O339 1.281 . S
C327 O340 1.236 . S
C328 O350 1.240 . S
C328 O351 1.264 . S
O329 Mn324 2.095 . S
O329 C338 1.250 . S
O330 Mn325 2.121 . S
O330 C338 1.258 . S
C331 N332 1.326 . S
C331 C335 1.460 . S
C331 H337 0.929 . S
N332 Mn325 2.257 1_655 S
N332 C331 1.326 . S
N332 C336 1.362 . S
C333 C334 1.258 . S
C333 C336 1.431 . S
C333 C353 1.449 . S
C334 C333 1.258 . S
C334 C335 1.477 . S
C334 H354 0.931 . S
C335 C331 1.460 . S
C335 C334 1.477 . S
C335 H355 0.930 . S
C336 N332 1.362 . S
C336 C333 1.431 . S
C336 C346 1.476 1_655 S
H337 C331 0.929 . S
C338 O329 1.250 . S
C338 O330 1.258 . S
O339 Mn324 2.162 . S
O339 C327 1.281 . S
O340 Mn324 2.297 . S
O340 C327 1.236 . S
N341 Mn325 2.282 . S
N341 C342 1.328 . S
N341 C346 1.318 . S
C342 N341 1.328 . S
C342 C343 1.457 . S
C342 H347 0.929 . S
C343 C342 1.457 . S
C343 C344 1.291 . S
C343 H356 0.931 . S
C344 C343 1.291 . S
C344 C345 1.400 . S
C344 H357 0.929 . S
C345 C344 1.400 . S
C345 C346 1.406 . S
C345 C352 1.367 1_455 S
C346 C336 1.476 1_455 S
C346 N341 1.318 . S
C346 C345 1.406 . S
H347 C342 0.929 . S
O348 Mn324 2.385 . S
O348 C326 1.234 . S
O349 Mn324 2.209 . S
O349 Mn325 2.215 . S
O349 C326 1.283 . S
O350 Mn324 2.094 . S
O350 C328 1.240 . S
O351 Mn325 2.117 . S
O351 C328 1.264 . S
C352 C345 1.367 1_655 S
C352 C353 1.399 . S
C352 H358 0.929 . S
C353 C333 1.449 . S
C353 C352 1.399 . S
C353 H359 0.930 . S
H354 C334 0.931 . S
H355 C335 0.930 . S
H356 C343 0.931 . S
H357 C344 0.929 . S
H358 C352 0.929 . S
H359 C353 0.930 . S
Mn360 O365 2.095 . S
Mn360 O375 2.162 . S
Mn360 O376 2.297 . S
Mn360 O384 2.385 . S
Mn360 O385 2.209 . S
Mn360 O386 2.094 . S
Mn361 O366 2.121 . S
Mn361 N368 2.257 . S
Mn361 N377 2.282 . S
Mn361 O385 2.215 . S
Mn361 O387 2.117 . S
C362 O384 1.234 . S
C362 O385 1.283 . S
C363 O375 1.281 . S
C363 O376 1.236 . S
C364 O386 1.240 . S
C364 O387 1.264 . S
O365 Mn360 2.095 . S
O365 C374 1.250 . S
O366 Mn361 2.121 . S
O366 C374 1.258 . S
C367 N368 1.326 . S
C367 C371 1.460 . S
C367 H373 0.929 . S
N368 Mn361 2.257 . S
N368 C367 1.326 . S
N368 C372 1.362 . S
C369 C370 1.258 . S
C369 C372 1.431 . S
C369 C389 1.449 . S
C370 C369 1.258 . S
C370 C371 1.477 . S
C370 H390 0.931 . S
C371 C367 1.460 . S
C371 C370 1.477 . S
C371 H391 0.930 . S
C372 N368 1.362 . S
C372 C369 1.431 . S
C372 C382 1.476 . S
H373 C367 0.929 . S
C374 O365 1.250 . S
C374 O366 1.258 . S
O375 Mn360 2.162 . S
O375 C363 1.281 . S
O376 Mn360 2.297 . S
O376 C363 1.236 . S
N377 Mn361 2.282 . S
N377 C378 1.328 . S
N377 C382 1.318 . S
C378 N377 1.328 . S
C378 C379 1.457 . S
C378 H383 0.929 . S
C379 C378 1.457 . S
C379 C380 1.291 . S
C379 H392 0.931 . S
C380 C379 1.291 . S
C380 C381 1.373 . S
C380 H393 0.929 . S
C381 C380 1.373 . S
C381 C382 1.396 . S
C381 C388 1.403 . S
C382 C372 1.476 . S
C382 N377 1.318 . S
C382 C381 1.396 . S
H383 C378 0.929 . S
O384 Mn360 2.385 . S
O384 C362 1.234 . S
O385 Mn360 2.209 . S
O385 Mn361 2.215 . S
O385 C362 1.283 . S
O386 Mn360 2.094 . S
O386 C364 1.240 . S
O387 Mn361 2.117 . S
O387 C364 1.264 . S
C388 C381 1.403 . S
C388 C389 1.399 . S
C388 H394 0.929 . S
C389 C369 1.449 . S
C389 C388 1.399 . S
C389 H395 0.930 . S
H390 C370 0.931 . S
H391 C371 0.930 . S
H392 C379 0.931 . S
H393 C380 0.929 . S
H394 C388 0.929 . S
H395 C389 0.930 . S
Mn396 O401 2.095 . S
Mn396 O411 2.162 . S
Mn396 O412 2.297 . S
Mn396 O420 2.385 . S
Mn396 O421 2.209 . S
Mn396 O422 2.094 . S
Mn397 O402 2.121 . S
Mn397 N404 2.257 . S
Mn397 N413 2.282 1_554 S
Mn397 O421 2.215 . S
Mn397 O423 2.117 . S
C398 O420 1.234 . S
C398 O421 1.283 . S
C399 O411 1.281 . S
C399 O412 1.236 . S
C400 O422 1.240 . S
C400 O423 1.264 . S
O401 Mn396 2.095 . S
O401 C410 1.250 . S
O402 Mn397 2.121 . S
O402 C410 1.258 . S
C403 N404 1.326 . S
C403 C407 1.460 . S
C403 H409 0.929 . S
N404 Mn397 2.257 . S
N404 C403 1.326 . S
N404 C408 1.362 1_554 S
C405 C406 1.248 1_556 S
C405 C408 1.431 . S
C405 C425 1.449 . S
C406 C405 1.248 1_554 S
C406 C407 1.491 . S
C406 H426 0.926 1_554 S
C407 C403 1.460 . S
C407 C406 1.491 . S
C407 H427 0.930 . S
C408 N404 1.362 1_556 S
C408 C405 1.431 . S
C408 C418 1.476 . S
H409 C403 0.929 . S
C410 O401 1.250 . S
C410 O402 1.258 . S
O411 Mn396 2.162 . S
O411 C399 1.281 . S
O412 Mn396 2.297 . S
O412 C399 1.236 . S
N413 Mn397 2.282 1_556 S
N413 C414 1.328 . S
N413 C418 1.318 . S
C414 N413 1.328 . S
C414 C415 1.457 . S
C414 H419 0.929 . S
C415 C414 1.457 . S
C415 C416 1.291 . S
C415 H428 0.931 . S
C416 C415 1.291 . S
C416 C417 1.373 . S
C416 H429 0.929 . S
C417 C416 1.373 . S
C417 C418 1.396 . S
C417 C424 1.403 . S
C418 C408 1.476 . S
C418 N413 1.318 . S
C418 C417 1.396 . S
H419 C414 0.929 . S
O420 Mn396 2.385 . S
O420 C398 1.234 . S
O421 Mn396 2.209 . S
O421 Mn397 2.215 . S
O421 C398 1.283 . S
O422 Mn396 2.094 . S
O422 C400 1.240 . S
O423 Mn397 2.117 . S
O423 C400 1.264 . S
C424 C417 1.403 . S
C424 C425 1.399 . S
C424 H430 0.929 . S
C425 C405 1.449 . S
C425 C424 1.399 . S
C425 H431 0.930 . S
H426 C406 0.926 1_556 S
H427 C407 0.930 . S
H428 C415 0.931 . S
H429 C416 0.929 . S
H430 C424 0.929 . S
H431 C425 0.930 . S
Mn432 O437 2.095 . S
Mn432 O447 2.162 . S
Mn432 O448 2.297 . S
Mn432 O456 2.385 . S
Mn432 O457 2.209 . S
Mn432 O458 2.094 . S
Mn433 O438 2.121 . S
Mn433 N440 2.257 . S
Mn433 N449 2.282 . S
Mn433 O457 2.215 . S
Mn433 O459 2.117 . S
C434 O456 1.234 . S
C434 O457 1.283 . S
C435 O447 1.281 . S
C435 O448 1.236 . S
C436 O458 1.240 . S
C436 O459 1.264 . S
O437 Mn432 2.095 . S
O437 C446 1.250 . S
O438 Mn433 2.121 . S
O438 C446 1.258 . S
C439 N440 1.326 . S
C439 C443 1.460 . S
C439 H445 0.929 . S
N440 Mn433 2.257 . S
N440 C439 1.326 . S
N440 C444 1.362 . S
C441 C442 1.258 . S
C441 C444 1.431 . S
C441 C461 1.449 . S
C442 C441 1.258 . S
C442 C443 1.477 . S
C442 H462 0.931 . S
C443 C439 1.460 . S
C443 C442 1.477 . S
C443 H463 0.930 . S
C444 N440 1.362 . S
C444 C441 1.431 . S
C444 C454 1.476 . S
H445 C439 0.929 . S
C446 O437 1.250 . S
C446 O438 1.258 . S
O447 Mn432 2.162 . S
O447 C435 1.281 . S
O448 Mn432 2.297 . S
O448 C435 1.236 . S
N449 Mn433 2.282 . S
N449 C450 1.328 . S
N449 C454 1.318 . S
C450 N449 1.328 . S
C450 C451 1.457 . S
C450 H455 0.929 . S
C451 C450 1.457 . S
C451 C452 1.291 . S
C451 H464 0.931 . S
C452 C451 1.291 . S
C452 C453 1.373 . S
C452 H465 0.929 . S
C453 C452 1.373 . S
C453 C454 1.396 . S
C453 C460 1.403 . S
C454 C444 1.476 . S
C454 N449 1.318 . S
C454 C453 1.396 . S
H455 C450 0.929 . S
O456 Mn432 2.385 . S
O456 C434 1.234 . S
O457 Mn432 2.209 . S
O457 Mn433 2.215 . S
O457 C434 1.283 . S
O458 Mn432 2.094 . S
O458 C436 1.240 . S
O459 Mn433 2.117 . S
O459 C436 1.264 . S
C460 C453 1.403 . S
C460 C461 1.399 . S
C460 H466 0.929 . S
C461 C441 1.449 . S
C461 C460 1.399 . S
C461 H467 0.930 . S
H462 C442 0.931 . S
H463 C443 0.930 . S
H464 C451 0.931 . S
H465 C452 0.929 . S
H466 C460 0.929 . S
H467 C461 0.930 . S
Mn468 O473 2.095 . S
Mn468 O483 2.162 . S
Mn468 O484 2.297 . S
Mn468 O492 2.385 . S
Mn468 O493 2.209 . S
Mn468 O494 2.094 . S
Mn469 O474 2.121 . S
Mn469 N476 2.257 1_655 S
Mn469 N485 2.282 1_556 S
Mn469 O493 2.215 . S
Mn469 O495 2.117 . S
C470 O492 1.234 . S
C470 O493 1.283 . S
C471 O483 1.281 . S
C471 O484 1.236 . S
C472 O494 1.240 . S
C472 O495 1.264 . S
O473 Mn468 2.095 . S
O473 C482 1.250 . S
O474 Mn469 2.121 . S
O474 C482 1.258 . S
C475 N476 1.326 . S
C475 C479 1.460 . S
C475 H481 0.929 . S
N476 Mn469 2.257 1_455 S
N476 C475 1.326 . S
N476 C480 1.362 1_556 S
C477 C478 1.248 1_554 S
C477 C480 1.431 . S
C477 C497 1.449 . S
C478 C477 1.248 1_556 S
C478 C479 1.491 . S
C478 H498 0.926 1_556 S
C479 C475 1.460 . S
C479 C478 1.491 . S
C479 H499 0.930 . S
C480 N476 1.362 1_554 S
C480 C477 1.431 . S
C480 C490 1.476 1_455 S
H481 C475 0.929 . S
C482 O473 1.250 . S
C482 O474 1.258 . S
O483 Mn468 2.162 . S
O483 C471 1.281 . S
O484 Mn468 2.297 . S
O484 C471 1.236 . S
N485 Mn469 2.282 1_554 S
N485 C486 1.328 . S
N485 C490 1.318 . S
C486 N485 1.328 . S
C486 C487 1.457 . S
C486 H491 0.929 . S
C487 C486 1.457 . S
C487 C488 1.291 . S
C487 H500 0.931 . S
C488 C487 1.291 . S
C488 C489 1.400 . S
C488 H501 0.929 . S
C489 C488 1.400 . S
C489 C490 1.406 . S
C489 C496 1.367 1_655 S
C490 C480 1.476 1_655 S
C490 N485 1.318 . S
C490 C489 1.406 . S
H491 C486 0.929 . S
O492 Mn468 2.385 . S
O492 C470 1.234 . S
O493 Mn468 2.209 . S
O493 Mn469 2.215 . S
O493 C470 1.283 . S
O494 Mn468 2.094 . S
O494 C472 1.240 . S
O495 Mn469 2.117 . S
O495 C472 1.264 . S
C496 C489 1.367 1_455 S
C496 C497 1.399 . S
C496 H502 0.929 . S
C497 C477 1.449 . S
C497 C496 1.399 . S
C497 H503 0.930 . S
H498 C478 0.926 1_554 S
H499 C479 0.930 . S
H500 C487 0.931 . S
H501 C488 0.929 . S
H502 C496 0.929 . S
H503 C497 0.930 . S
Mn504 O509 2.095 . S
Mn504 O519 2.162 . S
Mn504 O520 2.297 . S
Mn504 O528 2.385 . S
Mn504 O529 2.209 . S
Mn504 O530 2.094 . S
Mn505 O510 2.121 . S
Mn505 N512 2.257 . S
Mn505 N521 2.282 . S
Mn505 O529 2.215 . S
Mn505 O531 2.117 . S
C506 O528 1.234 . S
C506 O529 1.283 . S
C507 O519 1.281 . S
C507 O520 1.236 . S
C508 O530 1.240 . S
C508 O531 1.264 . S
O509 Mn504 2.095 . S
O509 C518 1.250 . S
O510 Mn505 2.121 . S
O510 C518 1.258 . S
C511 N512 1.326 . S
C511 C515 1.460 . S
C511 H517 0.929 . S
N512 Mn505 2.257 . S
N512 C511 1.326 . S
N512 C516 1.362 . S
C513 C514 1.258 . S
C513 C516 1.431 . S
C513 C533 1.449 . S
C514 C513 1.258 . S
C514 C515 1.477 . S
C514 H534 0.931 . S
C515 C511 1.460 . S
C515 C514 1.477 . S
C515 H535 0.930 . S
C516 N512 1.362 . S
C516 C513 1.431 . S
C516 C526 1.476 . S
H517 C511 0.929 . S
C518 O509 1.250 . S
C518 O510 1.258 . S
O519 Mn504 2.162 . S
O519 C507 1.281 . S
O520 Mn504 2.297 . S
O520 C507 1.236 . S
N521 Mn505 2.282 . S
N521 C522 1.328 . S
N521 C526 1.318 . S
C522 N521 1.328 . S
C522 C523 1.457 . S
C522 H527 0.929 . S
C523 C522 1.457 . S
C523 C524 1.291 . S
C523 H536 0.931 . S
C524 C523 1.291 . S
C524 C525 1.373 . S
C524 H537 0.929 . S
C525 C524 1.373 . S
C525 C526 1.396 . S
C525 C532 1.403 . S
C526 C516 1.476 . S
C526 N521 1.318 . S
C526 C525 1.396 . S
H527 C522 0.929 . S
O528 Mn504 2.385 . S
O528 C506 1.234 . S
O529 Mn504 2.209 . S
O529 Mn505 2.215 . S
O529 C506 1.283 . S
O530 Mn504 2.094 . S
O530 C508 1.240 . S
O531 Mn505 2.117 . S
O531 C508 1.264 . S
C532 C525 1.403 . S
C532 C533 1.399 . S
C532 H538 0.929 . S
C533 C513 1.449 . S
C533 C532 1.399 . S
C533 H539 0.930 . S
H534 C514 0.931 . S
H535 C515 0.930 . S
H536 C523 0.931 . S
H537 C524 0.929 . S
H538 C532 0.929 . S
H539 C533 0.930 . S
Mn540 O545 2.095 . S
Mn540 O555 2.162 . S
Mn540 O556 2.297 . S
Mn540 O564 2.385 . S
Mn540 O565 2.209 . S
Mn540 O566 2.094 . S
Mn541 O546 2.121 . S
Mn541 N548 2.257 . S
Mn541 N557 2.282 . S
Mn541 O565 2.215 . S
Mn541 O567 2.117 . S
C542 O564 1.234 . S
C542 O565 1.283 . S
C543 O555 1.281 . S
C543 O556 1.236 . S
C544 O566 1.240 . S
C544 O567 1.264 . S
O545 Mn540 2.095 . S
O545 C554 1.250 . S
O546 Mn541 2.121 . S
O546 C554 1.258 . S
C547 N548 1.326 . S
C547 C551 1.460 . S
C547 H553 0.929 . S
N548 Mn541 2.257 . S
N548 C547 1.326 . S
N548 C552 1.362 . S
C549 C550 1.258 . S
C549 C552 1.431 . S
C549 C569 1.449 . S
C550 C549 1.258 . S
C550 C551 1.477 . S
C550 H570 0.931 . S
C551 C547 1.460 . S
C551 C550 1.477 . S
C551 H571 0.930 . S
C552 N548 1.362 . S
C552 C549 1.431 . S
C552 C562 1.476 . S
H553 C547 0.929 . S
C554 O545 1.250 . S
C554 O546 1.258 . S
O555 Mn540 2.162 . S
O555 C543 1.281 . S
O556 Mn540 2.297 . S
O556 C543 1.236 . S
N557 Mn541 2.282 . S
N557 C558 1.328 . S
N557 C562 1.318 . S
C558 N557 1.328 . S
C558 C559 1.457 . S
C558 H563 0.929 . S
C559 C558 1.457 . S
C559 C560 1.291 . S
C559 H572 0.931 . S
C560 C559 1.291 . S
C560 C561 1.373 . S
C560 H573 0.929 . S
C561 C560 1.373 . S
C561 C562 1.396 . S
C561 C568 1.403 . S
C562 C552 1.476 . S
C562 N557 1.318 . S
C562 C561 1.396 . S
H563 C558 0.929 . S
O564 Mn540 2.385 . S
O564 C542 1.234 . S
O565 Mn540 2.209 . S
O565 Mn541 2.215 . S
O565 C542 1.283 . S
O566 Mn540 2.094 . S
O566 C544 1.240 . S
O567 Mn541 2.117 . S
O567 C544 1.264 . S
C568 C561 1.403 . S
C568 C569 1.399 . S
C568 H574 0.929 . S
C569 C549 1.449 . S
C569 C568 1.399 . S
C569 H575 0.930 . S
H570 C550 0.931 . S
H571 C551 0.930 . S
H572 C559 0.931 . S
H573 C560 0.929 . S
H574 C568 0.929 . S
H575 C569 0.930 . S
Mn576 O581 2.095 . S
Mn576 O591 2.162 . S
Mn576 O592 2.297 . S
Mn576 O600 2.385 . S
Mn576 O601 2.209 . S
Mn576 O602 2.094 . S
Mn577 O582 2.121 . S
Mn577 N584 2.257 . S
Mn577 N593 2.282 . S
Mn577 O601 2.215 . S
Mn577 O603 2.117 . S
C578 O600 1.234 . S
C578 O601 1.283 . S
C579 O591 1.281 . S
C579 O592 1.236 . S
C580 O602 1.240 . S
C580 O603 1.264 . S
O581 Mn576 2.095 . S
O581 C590 1.250 . S
O582 Mn577 2.121 . S
O582 C590 1.258 . S
C583 N584 1.326 . S
C583 C587 1.460 . S
C583 H589 0.929 . S
N584 Mn577 2.257 . S
N584 C583 1.326 . S
N584 C588 1.362 . S
C585 C586 1.258 . S
C585 C588 1.431 . S
C585 C605 1.449 . S
C586 C585 1.258 . S
C586 C587 1.477 . S
C586 H606 0.931 . S
C587 C583 1.460 . S
C587 C586 1.477 . S
C587 H607 0.930 . S
C588 N584 1.362 . S
C588 C585 1.431 . S
C588 C598 1.476 . S
H589 C583 0.929 . S
C590 O581 1.250 . S
C590 O582 1.258 . S
O591 Mn576 2.162 . S
O591 C579 1.281 . S
O592 Mn576 2.297 . S
O592 C579 1.236 . S
N593 Mn577 2.282 . S
N593 C594 1.328 . S
N593 C598 1.318 . S
C594 N593 1.328 . S
C594 C595 1.457 . S
C594 H599 0.929 . S
C595 C594 1.457 . S
C595 C596 1.291 . S
C595 H608 0.931 . S
C596 C595 1.291 . S
C596 C597 1.373 . S
C596 H609 0.929 . S
C597 C596 1.373 . S
C597 C598 1.396 . S
C597 C604 1.403 . S
C598 C588 1.476 . S
C598 N593 1.318 . S
C598 C597 1.396 . S
H599 C594 0.929 . S
O600 Mn576 2.385 . S
O600 C578 1.234 . S
O601 Mn576 2.209 . S
O601 Mn577 2.215 . S
O601 C578 1.283 . S
O602 Mn576 2.094 . S
O602 C580 1.240 . S
O603 Mn577 2.117 . S
O603 C580 1.264 . S
C604 C597 1.403 . S
C604 C605 1.399 . S
C604 H610 0.929 . S
C605 C585 1.449 . S
C605 C604 1.399 . S
C605 H611 0.930 . S
H606 C586 0.931 . S
H607 C587 0.930 . S
H608 C595 0.931 . S
H609 C596 0.929 . S
H610 C604 0.929 . S
H611 C605 0.930 . S
Mn612 O617 2.095 . S
Mn612 O627 2.162 . S
Mn612 O628 2.297 . S
Mn612 O636 2.385 . S
Mn612 O637 2.209 . S
Mn612 O638 2.094 . S
Mn613 O618 2.121 . S
Mn613 N620 2.257 . S
Mn613 N629 2.282 . S
Mn613 O637 2.215 . S
Mn613 O639 2.117 . S
C614 O636 1.234 . S
C614 O637 1.283 . S
C615 O627 1.281 . S
C615 O628 1.236 . S
C616 O638 1.240 . S
C616 O639 1.264 . S
O617 Mn612 2.095 . S
O617 C626 1.250 . S
O618 Mn613 2.121 . S
O618 C626 1.258 . S
C619 N620 1.326 . S
C619 C623 1.460 . S
C619 H625 0.929 . S
N620 Mn613 2.257 . S
N620 C619 1.326 . S
N620 C624 1.362 . S
C621 C622 1.258 . S
C621 C624 1.431 . S
C621 C641 1.449 . S
C622 C621 1.258 . S
C622 C623 1.477 . S
C622 H642 0.931 . S
C623 C619 1.460 . S
C623 C622 1.477 . S
C623 H643 0.930 . S
C624 N620 1.362 . S
C624 C621 1.431 . S
C624 C634 1.476 . S
H625 C619 0.929 . S
C626 O617 1.250 . S
C626 O618 1.258 . S
O627 Mn612 2.162 . S
O627 C615 1.281 . S
O628 Mn612 2.297 . S
O628 C615 1.236 . S
N629 Mn613 2.282 . S
N629 C630 1.328 . S
N629 C634 1.318 . S
C630 N629 1.328 . S
C630 C631 1.457 . S
C630 H635 0.929 . S
C631 C630 1.457 . S
C631 C632 1.291 . S
C631 H644 0.931 . S
C632 C631 1.291 . S
C632 C633 1.373 . S
C632 H645 0.929 . S
C633 C632 1.373 . S
C633 C634 1.396 . S
C633 C640 1.403 . S
C634 C624 1.476 . S
C634 N629 1.318 . S
C634 C633 1.396 . S
H635 C630 0.929 . S
O636 Mn612 2.385 . S
O636 C614 1.234 . S
O637 Mn612 2.209 . S
O637 Mn613 2.215 . S
O637 C614 1.283 . S
O638 Mn612 2.094 . S
O638 C616 1.240 . S
O639 Mn613 2.117 . S
O639 C616 1.264 . S
C640 C633 1.403 . S
C640 C641 1.399 . S
C640 H646 0.929 . S
C641 C621 1.449 . S
C641 C640 1.399 . S
C641 H647 0.930 . S
H642 C622 0.931 . S
H643 C623 0.930 . S
H644 C631 0.931 . S
H645 C632 0.929 . S
H646 C640 0.929 . S
H647 C641 0.930 . S
Mn648 O653 2.095 . S
Mn648 O663 2.162 . S
Mn648 O664 2.297 . S
Mn648 O672 2.385 . S
Mn648 O673 2.209 . S
Mn648 O674 2.094 . S
Mn649 O654 2.121 . S
Mn649 N656 2.257 1_554 S
Mn649 N665 2.282 . S
Mn649 O673 2.215 . S
Mn649 O675 2.117 . S
C650 O672 1.234 . S
C650 O673 1.283 . S
C651 O663 1.281 . S
C651 O664 1.236 . S
C652 O674 1.240 . S
C652 O675 1.264 . S
O653 Mn648 2.095 . S
O653 C662 1.250 . S
O654 Mn649 2.121 . S
O654 C662 1.258 . S
C655 N656 1.326 . S
C655 C659 1.460 . S
C655 H661 0.929 . S
N656 Mn649 2.257 1_556 S
N656 C655 1.326 . S
N656 C660 1.362 . S
C657 C658 1.258 . S
C657 C660 1.431 . S
C657 C677 1.449 . S
C658 C657 1.258 . S
C658 C659 1.477 . S
C658 H678 0.931 . S
C659 C655 1.460 . S
C659 C658 1.477 . S
C659 H679 0.930 . S
C660 N656 1.362 . S
C660 C657 1.431 . S
C660 C670 1.476 1_556 S
H661 C655 0.929 . S
C662 O653 1.250 . S
C662 O654 1.258 . S
O663 Mn648 2.162 . S
O663 C651 1.281 . S
O664 Mn648 2.297 . S
O664 C651 1.236 . S
N665 Mn649 2.282 . S
N665 C666 1.328 . S
N665 C670 1.318 . S
C666 N665 1.328 . S
C666 C667 1.457 . S
C666 H671 0.929 . S
C667 C666 1.457 . S
C667 C668 1.291 . S
C667 H680 0.931 . S
C668 C667 1.291 . S
C668 C669 1.400 . S
C668 H681 0.929 . S
C669 C668 1.400 . S
C669 C670 1.406 . S
C669 C676 1.367 1_554 S
C670 C660 1.476 1_554 S
C670 N665 1.318 . S
C670 C669 1.406 . S
H671 C666 0.929 . S
O672 Mn648 2.385 . S
O672 C650 1.234 . S
O673 Mn648 2.209 . S
O673 Mn649 2.215 . S
O673 C650 1.283 . S
O674 Mn648 2.094 . S
O674 C652 1.240 . S
O675 Mn649 2.117 . S
O675 C652 1.264 . S
C676 C669 1.367 1_556 S
C676 C677 1.399 . S
C676 H682 0.929 . S
C677 C657 1.449 . S
C677 C676 1.399 . S
C677 H683 0.930 . S
H678 C658 0.931 . S
H679 C659 0.930 . S
H680 C667 0.931 . S
H681 C668 0.929 . S
H682 C676 0.929 . S
H683 C677 0.930 . S
Mn684 O689 2.095 . S
Mn684 O699 2.162 . S
Mn684 O700 2.297 . S
Mn684 O708 2.385 . S
Mn684 O709 2.209 . S
Mn684 O710 2.094 . S
Mn685 O690 2.121 . S
Mn685 N692 2.257 . S
Mn685 N701 2.282 . S
Mn685 O709 2.215 . S
Mn685 O711 2.117 . S
C686 O708 1.234 . S
C686 O709 1.283 . S
C687 O699 1.281 . S
C687 O700 1.236 . S
C688 O710 1.240 . S
C688 O711 1.264 . S
O689 Mn684 2.095 . S
O689 C698 1.250 . S
O690 Mn685 2.121 . S
O690 C698 1.258 . S
C691 N692 1.326 . S
C691 C695 1.460 . S
C691 H697 0.929 . S
N692 Mn685 2.257 . S
N692 C691 1.326 . S
N692 C696 1.362 . S
C693 C694 1.258 . S
C693 C696 1.431 . S
C693 C713 1.449 . S
C694 C693 1.258 . S
C694 C695 1.477 . S
C694 H714 0.931 . S
C695 C691 1.460 . S
C695 C694 1.477 . S
C695 H715 0.930 . S
C696 N692 1.362 . S
C696 C693 1.431 . S
C696 C706 1.476 . S
H697 C691 0.929 . S
C698 O689 1.250 . S
C698 O690 1.258 . S
O699 Mn684 2.162 . S
O699 C687 1.281 . S
O700 Mn684 2.297 . S
O700 C687 1.236 . S
N701 Mn685 2.282 . S
N701 C702 1.328 . S
N701 C706 1.318 . S
C702 N701 1.328 . S
C702 C703 1.457 . S
C702 H707 0.929 . S
C703 C702 1.457 . S
C703 C704 1.291 . S
C703 H716 0.931 . S
C704 C703 1.291 . S
C704 C705 1.373 . S
C704 H717 0.929 . S
C705 C704 1.373 . S
C705 C706 1.396 . S
C705 C712 1.403 . S
C706 C696 1.476 . S
C706 N701 1.318 . S
C706 C705 1.396 . S
H707 C702 0.929 . S
O708 Mn684 2.385 . S
O708 C686 1.234 . S
O709 Mn684 2.209 . S
O709 Mn685 2.215 . S
O709 C686 1.283 . S
O710 Mn684 2.094 . S
O710 C688 1.240 . S
O711 Mn685 2.117 . S
O711 C688 1.264 . S
C712 C705 1.403 . S
C712 C713 1.399 . S
C712 H718 0.929 . S
C713 C693 1.449 . S
C713 C712 1.399 . S
C713 H719 0.930 . S
H714 C694 0.931 . S
H715 C695 0.930 . S
H716 C703 0.931 . S
H717 C704 0.929 . S
H718 C712 0.929 . S
H719 C713 0.930 . S
Mn720 O725 2.095 . S
Mn720 O735 2.162 . S
Mn720 O736 2.297 . S
Mn720 O744 2.385 . S
Mn720 O745 2.209 . S
Mn720 O746 2.094 . S
Mn721 O726 2.121 . S
Mn721 N728 2.257 . S
Mn721 N737 2.282 . S
Mn721 O745 2.215 . S
Mn721 O747 2.117 . S
C722 O744 1.234 . S
C722 O745 1.283 . S
C723 O735 1.281 . S
C723 O736 1.236 . S
C724 O746 1.240 . S
C724 O747 1.264 . S
O725 Mn720 2.095 . S
O725 C734 1.250 . S
O726 Mn721 2.121 . S
O726 C734 1.258 . S
C727 N728 1.326 . S
C727 C731 1.460 . S
C727 H733 0.929 . S
N728 Mn721 2.257 . S
N728 C727 1.326 . S
N728 C732 1.362 . S
C729 C730 1.258 . S
C729 C732 1.431 . S
C729 C749 1.449 . S
C730 C729 1.258 . S
C730 C731 1.477 . S
C730 H750 0.931 . S
C731 C727 1.460 . S
C731 C730 1.477 . S
C731 H751 0.930 . S
C732 N728 1.362 . S
C732 C729 1.431 . S
C732 C742 1.476 . S
H733 C727 0.929 . S
C734 O725 1.250 . S
C734 O726 1.258 . S
O735 Mn720 2.162 . S
O735 C723 1.281 . S
O736 Mn720 2.297 . S
O736 C723 1.236 . S
N737 Mn721 2.282 . S
N737 C738 1.328 . S
N737 C742 1.318 . S
C738 N737 1.328 . S
C738 C739 1.457 . S
C738 H743 0.929 . S
C739 C738 1.457 . S
C739 C740 1.291 . S
C739 H752 0.931 . S
C740 C739 1.291 . S
C740 C741 1.373 . S
C740 H753 0.929 . S
C741 C740 1.373 . S
C741 C742 1.396 . S
C741 C748 1.403 . S
C742 C732 1.476 . S
C742 N737 1.318 . S
C742 C741 1.396 . S
H743 C738 0.929 . S
O744 Mn720 2.385 . S
O744 C722 1.234 . S
O745 Mn720 2.209 . S
O745 Mn721 2.215 . S
O745 C722 1.283 . S
O746 Mn720 2.094 . S
O746 C724 1.240 . S
O747 Mn721 2.117 . S
O747 C724 1.264 . S
C748 C741 1.403 . S
C748 C749 1.399 . S
C748 H754 0.929 . S
C749 C729 1.449 . S
C749 C748 1.399 . S
C749 H755 0.930 . S
H750 C730 0.931 . S
H751 C731 0.930 . S
H752 C739 0.931 . S
H753 C740 0.929 . S
H754 C748 0.929 . S
H755 C749 0.930 . S
Mn756 O761 2.095 . S
Mn756 O771 2.162 . S
Mn756 O772 2.297 . S
Mn756 O780 2.385 . S
Mn756 O781 2.209 . S
Mn756 O782 2.094 . S
Mn757 O762 2.121 . S
Mn757 N764 2.257 . S
Mn757 N773 2.282 . S
Mn757 O781 2.215 . S
Mn757 O783 2.117 . S
C758 O780 1.234 . S
C758 O781 1.283 . S
C759 O771 1.281 . S
C759 O772 1.236 . S
C760 O782 1.240 . S
C760 O783 1.264 . S
O761 Mn756 2.095 . S
O761 C770 1.250 . S
O762 Mn757 2.121 . S
O762 C770 1.258 . S
C763 N764 1.326 . S
C763 C767 1.460 . S
C763 H769 0.929 . S
N764 Mn757 2.257 . S
N764 C763 1.326 . S
N764 C768 1.362 . S
C765 C766 1.258 . S
C765 C768 1.431 . S
C765 C785 1.449 . S
C766 C765 1.258 . S
C766 C767 1.477 . S
C766 H786 0.931 . S
C767 C763 1.460 . S
C767 C766 1.477 . S
C767 H787 0.930 . S
C768 N764 1.362 . S
C768 C765 1.431 . S
C768 C778 1.476 . S
H769 C763 0.929 . S
C770 O761 1.250 . S
C770 O762 1.258 . S
O771 Mn756 2.162 . S
O771 C759 1.281 . S
O772 Mn756 2.297 . S
O772 C759 1.236 . S
N773 Mn757 2.282 . S
N773 C774 1.328 . S
N773 C778 1.318 . S
C774 N773 1.328 . S
C774 C775 1.457 . S
C774 H779 0.929 . S
C775 C774 1.457 . S
C775 C776 1.291 . S
C775 H788 0.931 . S
C776 C775 1.291 . S
C776 C777 1.373 . S
C776 H789 0.929 . S
C777 C776 1.373 . S
C777 C778 1.396 . S
C777 C784 1.403 . S
C778 C768 1.476 . S
C778 N773 1.318 . S
C778 C777 1.396 . S
H779 C774 0.929 . S
O780 Mn756 2.385 . S
O780 C758 1.234 . S
O781 Mn756 2.209 . S
O781 Mn757 2.215 . S
O781 C758 1.283 . S
O782 Mn756 2.094 . S
O782 C760 1.240 . S
O783 Mn757 2.117 . S
O783 C760 1.264 . S
C784 C777 1.403 . S
C784 C785 1.399 . S
C784 H790 0.929 . S
C785 C765 1.449 . S
C785 C784 1.399 . S
C785 H791 0.930 . S
H786 C766 0.931 . S
H787 C767 0.930 . S
H788 C775 0.931 . S
H789 C776 0.929 . S
H790 C784 0.929 . S
H791 C785 0.930 . S
Mn792 O797 2.095 . S
Mn792 O807 2.162 . S
Mn792 O808 2.297 . S
Mn792 O816 2.385 . S
Mn792 O817 2.209 . S
Mn792 O818 2.094 . S
Mn793 O798 2.121 . S
Mn793 N800 2.257 1_556 S
Mn793 N809 2.282 1_565 S
Mn793 O817 2.215 . S
Mn793 O819 2.117 . S
C794 O816 1.234 . S
C794 O817 1.283 . S
C795 O807 1.281 . S
C795 O808 1.236 . S
C796 O818 1.240 . S
C796 O819 1.264 . S
O797 Mn792 2.095 . S
O797 C806 1.250 . S
O798 Mn793 2.121 . S
O798 C806 1.258 . S
C799 N800 1.326 . S
C799 C803 1.460 . S
C799 H805 0.929 . S
N800 Mn793 2.257 1_554 S
N800 C799 1.326 . S
N800 C804 1.362 1_565 S
C801 C802 1.248 1_545 S
C801 C804 1.431 . S
C801 C821 1.449 . S
C802 C801 1.248 1_565 S
C802 C803 1.491 . S
C802 H822 0.926 1_565 S
C803 C799 1.460 . S
C803 C802 1.491 . S
C803 H823 0.930 . S
C804 N800 1.362 1_545 S
C804 C801 1.431 . S
C804 C814 1.476 1_554 S
H805 C799 0.929 . S
C806 O797 1.250 . S
C806 O798 1.258 . S
O807 Mn792 2.162 . S
O807 C795 1.281 . S
O808 Mn792 2.297 . S
O808 C795 1.236 . S
N809 Mn793 2.282 1_545 S
N809 C810 1.328 . S
N809 C814 1.318 . S
C810 N809 1.328 . S
C810 C811 1.457 . S
C810 H815 0.929 . S
C811 C810 1.457 . S
C811 C812 1.291 . S
C811 H824 0.931 . S
C812 C811 1.291 . S
C812 C813 1.400 . S
C812 H825 0.929 . S
C813 C812 1.400 . S
C813 C814 1.406 . S
C813 C820 1.367 1_556 S
C814 C804 1.476 1_556 S
C814 N809 1.318 . S
C814 C813 1.406 . S
H815 C810 0.929 . S
O816 Mn792 2.385 . S
O816 C794 1.234 . S
O817 Mn792 2.209 . S
O817 Mn793 2.215 . S
O817 C794 1.283 . S
O818 Mn792 2.094 . S
O818 C796 1.240 . S
O819 Mn793 2.117 . S
O819 C796 1.264 . S
C820 C813 1.367 1_554 S
C820 C821 1.399 . S
C820 H826 0.929 . S
C821 C801 1.449 . S
C821 C820 1.399 . S
C821 H827 0.930 . S
H822 C802 0.926 1_545 S
H823 C803 0.930 . S
H824 C811 0.931 . S
H825 C812 0.929 . S
H826 C820 0.929 . S
H827 C821 0.930 . S
Mn828 O833 2.095 . S
Mn828 O843 2.162 . S
Mn828 O844 2.297 . S
Mn828 O852 2.385 . S
Mn828 O853 2.209 . S
Mn828 O854 2.094 . S
Mn829 O834 2.121 . S
Mn829 N836 2.257 . S
Mn829 N845 2.282 1_545 S
Mn829 O853 2.215 . S
Mn829 O855 2.117 . S
C830 O852 1.234 . S
C830 O853 1.283 . S
C831 O843 1.281 . S
C831 O844 1.236 . S
C832 O854 1.240 . S
C832 O855 1.264 . S
O833 Mn828 2.095 . S
O833 C842 1.250 . S
O834 Mn829 2.121 . S
O834 C842 1.258 . S
C835 N836 1.326 . S
C835 C839 1.460 . S
C835 H841 0.929 . S
N836 Mn829 2.257 . S
N836 C835 1.326 . S
N836 C840 1.362 1_545 S
C837 C838 1.248 1_565 S
C837 C840 1.431 . S
C837 C857 1.449 . S
C838 C837 1.248 1_545 S
C838 C839 1.491 . S
C838 H858 0.926 1_545 S
C839 C835 1.460 . S
C839 C838 1.491 . S
C839 H859 0.930 . S
C840 N836 1.362 1_565 S
C840 C837 1.431 . S
C840 C850 1.476 . S
H841 C835 0.929 . S
C842 O833 1.250 . S
C842 O834 1.258 . S
O843 Mn828 2.162 . S
O843 C831 1.281 . S
O844 Mn828 2.297 . S
O844 C831 1.236 . S
N845 Mn829 2.282 1_565 S
N845 C846 1.328 . S
N845 C850 1.318 . S
C846 N845 1.328 . S
C846 C847 1.457 . S
C846 H851 0.929 . S
C847 C846 1.457 . S
C847 C848 1.291 . S
C847 H860 0.931 . S
C848 C847 1.291 . S
C848 C849 1.373 . S
C848 H861 0.929 . S
C849 C848 1.373 . S
C849 C850 1.396 . S
C849 C856 1.403 . S
C850 C840 1.476 . S
C850 N845 1.318 . S
C850 C849 1.396 . S
H851 C846 0.929 . S
O852 Mn828 2.385 . S
O852 C830 1.234 . S
O853 Mn828 2.209 . S
O853 Mn829 2.215 . S
O853 C830 1.283 . S
O854 Mn828 2.094 . S
O854 C832 1.240 . S
O855 Mn829 2.117 . S
O855 C832 1.264 . S
C856 C849 1.403 . S
C856 C857 1.399 . S
C856 H862 0.929 . S
C857 C837 1.449 . S
C857 C856 1.399 . S
C857 H863 0.930 . S
H858 C838 0.926 1_565 S
H859 C839 0.930 . S
H860 C847 0.931 . S
H861 C848 0.929 . S
H862 C856 0.929 . S
H863 C857 0.930 . S
H864 C870 0.930 . S
H865 C874 0.930 . S
H866 C879 0.929 . S
H867 C877 0.929 . S
H868 C872 0.929 . S
H869 C878 0.929 . S
C870 H864 0.930 . S
C870 C871 1.367 . S
C870 C878 1.378 . S
C871 C870 1.367 . S
C871 C879 1.433 . S
C872 H868 0.929 . S
C872 C874 1.378 . S
C872 C876 1.350 . S
C873 C876 1.463 . S
C873 C878 1.350 . S
C873 N881 1.427 . S
C874 H865 0.930 . S
C874 C872 1.378 . S
C874 C875 1.367 . S
C875 C874 1.367 . S
C875 C877 1.433 . S
C876 C872 1.350 . S
C876 C873 1.463 . S
C876 N880 1.427 . S
C877 H867 0.929 . S
C877 C875 1.433 . S
C877 N880 1.384 . S
C878 H869 0.929 . S
C878 C870 1.378 . S
C878 C873 1.350 . S
C879 H866 0.929 . S
C879 C871 1.433 . S
C879 N881 1.384 . S
N880 C876 1.427 . S
N880 C877 1.384 . S
N881 C873 1.427 . S
N881 C879 1.384 . S
H882 C888 0.930 . S
H883 C892 0.930 . S
H884 C897 0.929 . S
H885 C895 0.929 . S
H886 C890 0.929 . S
H887 C896 0.927 1_655 S
C888 H882 0.930 . S
C888 C889 1.367 . S
C888 C896 1.350 1_655 S
C889 C888 1.367 . S
C889 C897 1.433 1_655 S
C890 H886 0.929 . S
C890 C892 1.378 . S
C890 C894 1.350 . S
C891 C894 1.463 . S
C891 C896 1.381 . S
C891 N899 1.427 . S
C892 H883 0.930 . S
C892 C890 1.378 . S
C892 C893 1.367 . S
C893 C892 1.367 . S
C893 C895 1.433 . S
C894 C890 1.350 . S
C894 C891 1.463 . S
C894 N898 1.427 . S
C895 H885 0.929 . S
C895 C893 1.433 . S
C895 N898 1.384 . S
C896 H887 0.927 1_455 S
C896 C888 1.350 1_455 S
C896 C891 1.381 . S
C897 H884 0.929 . S
C897 C889 1.433 1_455 S
C897 N899 1.384 . S
N898 C894 1.427 . S
N898 C895 1.384 . S
N899 C891 1.427 . S
N899 C897 1.384 . S
H900 C906 0.930 . S
H901 C910 0.930 . S
H902 C915 0.929 . S
H903 C913 0.929 . S
H904 C908 0.929 . S
H905 C914 0.929 . S
C906 H900 0.930 . S
C906 C907 1.367 . S
C906 C914 1.378 . S
C907 C906 1.367 . S
C907 C915 1.433 . S
C908 H904 0.929 . S
C908 C910 1.378 . S
C908 C912 1.350 . S
C909 C912 1.463 . S
C909 C914 1.350 . S
C909 N917 1.427 . S
C910 H901 0.930 . S
C910 C908 1.378 . S
C910 C911 1.367 1_556 S
C911 C910 1.367 1_554 S
C911 C913 1.433 . S
C912 C908 1.350 . S
C912 C909 1.463 . S
C912 N916 1.427 . S
C913 H903 0.929 . S
C913 C911 1.433 . S
C913 N916 1.384 1_554 S
C914 H905 0.929 . S
C914 C906 1.378 . S
C914 C909 1.350 . S
C915 H902 0.929 . S
C915 C907 1.433 . S
C915 N917 1.384 . S
N916 C912 1.427 . S
N916 C913 1.384 1_556 S
N917 C909 1.427 . S
N917 C915 1.384 . S
H918 C924 0.930 . S
H919 C928 0.930 . S
H920 C933 0.929 . S
H921 C931 0.929 . S
H922 C926 0.929 . S
H923 C932 0.929 . S
C924 H918 0.930 . S
C924 C925 1.367 . S
C924 C932 1.378 . S
C925 C924 1.367 . S
C925 C933 1.433 . S
C926 H922 0.929 . S
C926 C928 1.378 . S
C926 C930 1.350 . S
C927 C930 1.463 . S
C927 C932 1.350 . S
C927 N935 1.427 . S
C928 H919 0.930 . S
C928 C926 1.378 . S
C928 C929 1.367 . S
C929 C928 1.367 . S
C929 C931 1.433 . S
C930 C926 1.350 . S
C930 C927 1.463 . S
C930 N934 1.427 . S
C931 H921 0.929 . S
C931 C929 1.433 . S
C931 N934 1.384 . S
C932 H923 0.929 . S
C932 C924 1.378 . S
C932 C927 1.350 . S
C933 H920 0.929 . S
C933 C925 1.433 . S
C933 N935 1.384 . S
N934 C930 1.427 . S
N934 C931 1.384 . S
N935 C927 1.427 . S
N935 C933 1.384 . S
H936 C942 0.930 . S
H937 C946 0.930 . S
H938 C951 0.929 . S
H939 C949 0.929 . S
H940 C944 0.929 . S
H941 C950 0.929 . S
C942 H936 0.930 . S
C942 C943 1.367 . S
C942 C950 1.378 . S
C943 C942 1.367 . S
C943 C951 1.433 . S
C944 H940 0.929 . S
C944 C946 1.378 . S
C944 C948 1.350 . S
C945 C948 1.463 . S
C945 C950 1.350 . S
C945 N953 1.427 . S
C946 H937 0.930 . S
C946 C944 1.378 . S
C946 C947 1.367 . S
C947 C946 1.367 . S
C947 C949 1.433 . S
C948 C944 1.350 . S
C948 C945 1.463 . S
C948 N952 1.427 . S
C949 H939 0.929 . S
C949 C947 1.433 . S
C949 N952 1.384 . S
C950 H941 0.929 . S
C950 C942 1.378 . S
C950 C945 1.350 . S
C951 H938 0.929 . S
C951 C943 1.433 . S
C951 N953 1.384 . S
N952 C948 1.427 . S
N952 C949 1.384 . S
N953 C945 1.427 . S
N953 C951 1.384 . S
H954 C960 0.930 . S
H955 C964 0.930 . S
H956 C969 0.929 . S
H957 C967 0.929 . S
H958 C962 0.929 . S
H959 C968 0.929 . S
C960 H954 0.930 . S
C960 C961 1.367 . S
C960 C968 1.378 . S
C961 C960 1.367 . S
C961 C969 1.433 . S
C962 H958 0.929 . S
C962 C964 1.378 . S
C962 C966 1.350 1_455 S
C963 C966 1.463 . S
C963 C968 1.350 . S
C963 N971 1.427 . S
C964 H955 0.930 . S
C964 C962 1.378 . S
C964 C965 1.367 . S
C965 C964 1.367 . S
C965 C967 1.433 1_455 S
C966 C962 1.350 1_655 S
C966 C963 1.463 . S
C966 N970 1.427 . S
C967 H957 0.929 . S
C967 C965 1.433 1_655 S
C967 N970 1.384 . S
C968 H959 0.929 . S
C968 C960 1.378 . S
C968 C963 1.350 . S
C969 H956 0.929 . S
C969 C961 1.433 . S
C969 N971 1.384 . S
N970 C966 1.427 . S
N970 C967 1.384 . S
N971 C963 1.427 . S
N971 C969 1.384 . S
H972 C978 0.930 . S
H973 C982 0.930 . S
H974 C987 0.929 . S
H975 C985 0.929 . S
H976 C980 0.929 . S
H977 C986 0.929 . S
C978 H972 0.930 . S
C978 C979 1.367 . S
C978 C986 1.378 . S
C979 C978 1.367 . S
C979 C987 1.433 . S
C980 H976 0.929 . S
C980 C982 1.378 . S
C980 C984 1.350 . S
C981 C984 1.463 . S
C981 C986 1.350 . S
C981 N989 1.427 . S
C982 H973 0.930 . S
C982 C980 1.378 . S
C982 C983 1.367 1_554 S
C983 C982 1.367 1_556 S
C983 C985 1.433 . S
C984 C980 1.350 . S
C984 C981 1.463 . S
C984 N988 1.427 1_554 S
C985 H975 0.929 . S
C985 C983 1.433 . S
C985 N988 1.384 . S
C986 H977 0.929 . S
C986 C978 1.378 . S
C986 C981 1.350 . S
C987 H974 0.929 . S
C987 C979 1.433 . S
C987 N989 1.384 . S
N988 C984 1.427 1_556 S
N988 C985 1.384 . S
N989 C981 1.427 . S
N989 C987 1.384 . S
H990 C996 0.930 . S
H991 C1000 0.930 . S
H992 C1005 0.929 . S
H993 C1003 0.929 . S
H994 C998 0.929 . S
H995 C1004 0.929 . S
C996 H990 0.930 . S
C996 C997 1.367 . S
C996 C1004 1.378 . S
C997 C996 1.367 . S
C997 C1005 1.433 . S
C998 H994 0.929 . S
C998 C1000 1.378 . S
C998 C1002 1.350 . S
C999 C1002 1.463 . S
C999 C1004 1.350 . S
C999 N1007 1.427 . S
C1000 H991 0.930 . S
C1000 C998 1.378 . S
C1000 C1001 1.367 . S
C1001 C1000 1.367 . S
C1001 C1003 1.433 . S
C1002 C998 1.350 . S
C1002 C999 1.463 . S
C1002 N1006 1.427 . S
C1003 H993 0.929 . S
C1003 C1001 1.433 . S
C1003 N1006 1.384 . S
C1004 H995 0.929 . S
C1004 C996 1.378 . S
C1004 C999 1.350 . S
C1005 H992 0.929 . S
C1005 C997 1.433 . S
C1005 N1007 1.384 . S
N1006 C1002 1.427 . S
N1006 C1003 1.384 . S
N1007 C999 1.427 . S
N1007 C1005 1.384 . S
H1008 C1014 0.930 . S
H1009 C1018 0.930 . S
H1010 C1023 0.929 . S
H1011 C1021 0.929 . S
H1012 C1016 0.929 . S
H1013 C1022 0.929 . S
C1014 H1008 0.930 . S
C1014 C1015 1.367 . S
C1014 C1022 1.378 . S
C1015 C1014 1.367 . S
C1015 C1023 1.433 . S
C1016 H1012 0.929 . S
C1016 C1018 1.378 . S
C1016 C1020 1.350 . S
C1017 C1020 1.463 . S
C1017 C1022 1.350 . S
C1017 N1025 1.427 . S
C1018 H1009 0.930 . S
C1018 C1016 1.378 . S
C1018 C1019 1.367 . S
C1019 C1018 1.367 . S
C1019 C1021 1.433 . S
C1020 C1016 1.350 . S
C1020 C1017 1.463 . S
C1020 N1024 1.427 . S
C1021 H1011 0.929 . S
C1021 C1019 1.433 . S
C1021 N1024 1.384 . S
C1022 H1013 0.929 . S
C1022 C1014 1.378 . S
C1022 C1017 1.350 . S
C1023 H1010 0.929 . S
C1023 C1015 1.433 . S
C1023 N1025 1.384 . S
N1024 C1020 1.427 . S
N1024 C1021 1.384 . S
N1025 C1017 1.427 . S
N1025 C1023 1.384 . S
H1026 C1032 0.931 . S
H1027 C1036 0.930 . S
H1028 C1041 0.929 . S
H1029 C1039 0.929 . S
H1030 C1034 0.929 . S
H1031 C1040 0.929 . S
C1032 H1026 0.931 . S
C1032 C1033 1.368 . S
C1032 C1040 1.376 1_565 S
C1033 C1032 1.368 . S
C1033 C1041 1.433 . S
C1034 H1030 0.929 . S
C1034 C1036 1.378 . S
C1034 C1038 1.350 . S
C1035 C1038 1.463 . S
C1035 C1040 1.350 . S
C1035 N1043 1.427 . S
C1036 H1027 0.930 . S
C1036 C1034 1.378 . S
C1036 C1037 1.367 . S
C1037 C1036 1.367 . S
C1037 C1039 1.433 . S
C1038 C1034 1.350 . S
C1038 C1035 1.463 . S
C1038 N1042 1.427 . S
C1039 H1029 0.929 . S
C1039 C1037 1.433 . S
C1039 N1042 1.384 . S
C1040 H1031 0.929 . S
C1040 C1032 1.376 1_545 S
C1040 C1035 1.350 . S
C1041 H1028 0.929 . S
C1041 C1033 1.433 . S
C1041 N1043 1.384 1_565 S
N1042 C1038 1.427 . S
N1042 C1039 1.384 . S
N1043 C1035 1.427 . S
N1043 C1041 1.384 1_545 S
H1044 C1050 0.930 . S
H1045 C1054 0.930 . S
H1046 C1059 0.929 . S
H1047 C1057 0.929 . S
H1048 C1052 0.929 . S
H1049 C1058 0.929 . S
C1050 H1044 0.930 . S
C1050 C1051 1.367 . S
C1050 C1058 1.378 . S
C1051 C1050 1.367 . S
C1051 C1059 1.433 . S
C1052 H1048 0.929 . S
C1052 C1054 1.378 . S
C1052 C1056 1.350 1_545 S
C1053 C1056 1.463 . S
C1053 C1058 1.350 . S
C1053 N1061 1.427 . S
C1054 H1045 0.930 . S
C1054 C1052 1.378 . S
C1054 C1055 1.367 . S
C1055 C1054 1.367 . S
C1055 C1057 1.433 1_545 S
C1056 C1052 1.350 1_565 S
C1056 C1053 1.463 . S
C1056 N1060 1.427 . S
C1057 H1047 0.929 . S
C1057 C1055 1.433 1_565 S
C1057 N1060 1.384 . S
C1058 H1049 0.929 . S
C1058 C1050 1.378 . S
C1058 C1053 1.350 . S
C1059 H1046 0.929 . S
C1059 C1051 1.433 . S
C1059 N1061 1.384 . S
N1060 C1056 1.427 . S
N1060 C1057 1.384 . S
N1061 C1053 1.427 . S
N1061 C1059 1.384 . S
H1062 C1068 0.930 . S
H1063 C1072 0.930 . S
H1064 C1077 0.929 . S
H1065 C1075 0.929 . S
H1066 C1070 0.929 . S
H1067 C1076 0.929 . S
C1068 H1062 0.930 . S
C1068 C1069 1.367 . S
C1068 C1076 1.378 . S
C1069 C1068 1.367 . S
C1069 C1077 1.433 . S
C1070 H1066 0.929 . S
C1070 C1072 1.378 . S
C1070 C1074 1.350 . S
C1071 C1074 1.463 . S
C1071 C1076 1.350 . S
C1071 N1079 1.427 . S
C1072 H1063 0.930 . S
C1072 C1070 1.378 . S
C1072 C1073 1.367 . S
C1073 C1072 1.367 . S
C1073 C1075 1.433 . S
C1074 C1070 1.350 . S
C1074 C1071 1.463 . S
C1074 N1078 1.427 . S
C1075 H1065 0.929 . S
C1075 C1073 1.433 . S
C1075 N1078 1.384 . S
C1076 H1067 0.929 . S
C1076 C1068 1.378 . S
C1076 C1071 1.350 . S
C1077 H1064 0.929 . S
C1077 C1069 1.433 . S
C1077 N1079 1.384 . S
N1078 C1074 1.427 . S
N1078 C1075 1.384 . S
N1079 C1071 1.427 . S
N1079 C1077 1.384 . S
H1080 C1086 0.930 . S
H1081 C1090 0.930 . S
H1082 C1095 0.929 . S
H1083 C1093 0.929 . S
H1084 C1088 0.929 . S
H1085 C1094 0.929 . S
C1086 H1080 0.930 . S
C1086 C1087 1.367 . S
C1086 C1094 1.378 . S
C1087 C1086 1.367 . S
C1087 C1095 1.433 . S
C1088 H1084 0.929 . S
C1088 C1090 1.378 . S
C1088 C1092 1.350 . S
C1089 C1092 1.463 . S
C1089 C1094 1.350 . S
C1089 N1097 1.427 . S
C1090 H1081 0.930 . S
C1090 C1088 1.378 . S
C1090 C1091 1.367 . S
C1091 C1090 1.367 . S
C1091 C1093 1.433 . S
C1092 C1088 1.350 . S
C1092 C1089 1.463 . S
C1092 N1096 1.427 . S
C1093 H1083 0.929 . S
C1093 C1091 1.433 . S
C1093 N1096 1.384 . S
C1094 H1085 0.929 . S
C1094 C1086 1.378 . S
C1094 C1089 1.350 . S
C1095 H1082 0.929 . S
C1095 C1087 1.433 . S
C1095 N1097 1.384 . S
N1096 C1092 1.427 . S
N1096 C1093 1.384 . S
N1097 C1089 1.427 . S
N1097 C1095 1.384 . S
H1098 C1104 0.930 1_545 S
H1099 C1108 0.930 . S
H1100 C1113 0.929 . S
H1101 C1111 0.929 . S
H1102 C1106 0.929 1_565 S
H1103 C1112 0.929 . S
C1104 H1098 0.930 1_565 S
C1104 C1105 1.367 . S
C1104 C1112 1.378 1_565 S
C1105 C1104 1.367 . S
C1105 C1113 1.433 . S
C1106 H1102 0.929 1_545 S
C1106 C1108 1.378 . S
C1106 C1110 1.350 . S
C1107 C1110 1.463 . S
C1107 C1112 1.350 . S
C1107 N1115 1.427 1_545 S
C1108 H1099 0.930 . S
C1108 C1106 1.378 . S
C1108 C1109 1.367 . S
C1109 C1108 1.367 . S
C1109 C1111 1.433 . S
C1110 C1106 1.350 . S
C1110 C1107 1.463 . S
C1110 N1114 1.427 . S
C1111 H1101 0.929 . S
C1111 C1109 1.433 . S
C1111 N1114 1.384 . S
C1112 H1103 0.929 . S
C1112 C1104 1.378 1_545 S
C1112 C1107 1.350 . S
C1113 H1100 0.929 . S
C1113 C1105 1.433 . S
C1113 N1115 1.384 . S
N1114 C1110 1.427 . S
N1114 C1111 1.384 . S
N1115 C1107 1.427 1_565 S
N1115 C1113 1.384 . S
H1116 C1122 0.930 . S
H1117 C1126 0.930 . S
H1118 C1131 0.929 . S
H1119 C1129 0.929 . S
H1120 C1124 0.929 . S
H1121 C1130 0.929 . S
C1122 H1116 0.930 . S
C1122 C1123 1.367 . S
C1122 C1130 1.378 . S
C1123 C1122 1.367 . S
C1123 C1131 1.433 . S
C1124 H1120 0.929 . S
C1124 C1126 1.378 . S
C1124 C1128 1.350 1_554 S
C1125 C1128 1.463 . S
C1125 C1130 1.350 . S
C1125 N1133 1.427 . S
C1126 H1117 0.930 . S
C1126 C1124 1.378 . S
C1126 C1127 1.367 . S
C1127 C1126 1.367 . S
C1127 C1129 1.433 . S
C1128 C1124 1.350 1_556 S
C1128 C1125 1.463 . S
C1128 N1132 1.427 . S
C1129 H1119 0.929 . S
C1129 C1127 1.433 . S
C1129 N1132 1.384 1_554 S
C1130 H1121 0.929 . S
C1130 C1122 1.378 . S
C1130 C1125 1.350 . S
C1131 H1118 0.929 . S
C1131 C1123 1.433 . S
C1131 N1133 1.384 . S
N1132 C1128 1.427 . S
N1132 C1129 1.384 1_556 S
N1133 C1125 1.427 . S
N1133 C1131 1.384 . S
H1134 C1140 0.930 . S
H1135 C1144 0.930 . S
H1136 C1149 0.929 . S
H1137 C1147 0.929 . S
H1138 C1142 0.929 . S
H1139 C1148 0.929 . S
C1140 H1134 0.930 . S
C1140 C1141 1.367 . S
C1140 C1148 1.378 . S
C1141 C1140 1.367 . S
C1141 C1149 1.433 . S
C1142 H1138 0.929 . S
C1142 C1144 1.378 . S
C1142 C1146 1.350 . S
C1143 C1146 1.463 . S
C1143 C1148 1.350 1_565 S
C1143 N1151 1.427 . S
C1144 H1135 0.930 . S
C1144 C1142 1.378 . S
C1144 C1145 1.367 . S
C1145 C1144 1.367 . S
C1145 C1147 1.433 . S
C1146 C1142 1.350 . S
C1146 C1143 1.463 . S
C1146 N1150 1.427 . S
C1147 H1137 0.929 . S
C1147 C1145 1.433 . S
C1147 N1150 1.384 . S
C1148 H1139 0.929 . S
C1148 C1140 1.378 . S
C1148 C1143 1.350 1_545 S
C1149 H1136 0.929 . S
C1149 C1141 1.433 . S
C1149 N1151 1.384 1_545 S
N1150 C1146 1.427 . S
N1150 C1147 1.384 . S
N1151 C1143 1.427 . S
N1151 C1149 1.384 1_565 S
H1152 C1158 0.930 . S
H1153 C1162 0.930 . S
H1154 C1167 0.929 . S
H1155 C1165 0.929 . S
H1156 C1160 0.929 . S
H1157 C1166 0.929 . S
C1158 H1152 0.930 . S
C1158 C1159 1.367 . S
C1158 C1166 1.378 . S
C1159 C1158 1.367 . S
C1159 C1167 1.433 . S
C1160 H1156 0.929 . S
C1160 C1162 1.378 . S
C1160 C1164 1.350 . S
C1161 C1164 1.463 . S
C1161 C1166 1.350 . S
C1161 N1169 1.427 . S
C1162 H1153 0.930 . S
C1162 C1160 1.378 . S
C1162 C1163 1.367 . S
C1163 C1162 1.367 . S
C1163 C1165 1.433 . S
C1164 C1160 1.350 . S
C1164 C1161 1.463 . S
C1164 N1168 1.427 . S
C1165 H1155 0.929 . S
C1165 C1163 1.433 . S
C1165 N1168 1.384 . S
C1166 H1157 0.929 . S
C1166 C1158 1.378 . S
C1166 C1161 1.350 . S
C1167 H1154 0.929 . S
C1167 C1159 1.433 . S
C1167 N1169 1.384 . S
N1168 C1164 1.427 . S
N1168 C1165 1.384 . S
N1169 C1161 1.427 . S
N1169 C1167 1.384 . S
H1170 C1176 0.930 . S
H1171 C1180 0.930 . S
H1172 C1185 0.929 . S
H1173 C1183 0.929 . S
H1174 C1178 0.929 . S
H1175 C1184 0.929 . S
C1176 H1170 0.930 . S
C1176 C1177 1.367 . S
C1176 C1184 1.378 . S
C1177 C1176 1.367 . S
C1177 C1185 1.433 . S
C1178 H1174 0.929 . S
C1178 C1180 1.378 . S
C1178 C1182 1.350 . S
C1179 C1182 1.463 . S
C1179 C1184 1.350 . S
C1179 N1187 1.427 . S
C1180 H1171 0.930 . S
C1180 C1178 1.378 . S
C1180 C1181 1.367 . S
C1181 C1180 1.367 . S
C1181 C1183 1.433 . S
C1182 C1178 1.350 . S
C1182 C1179 1.463 . S
C1182 N1186 1.427 . S
C1183 H1173 0.929 . S
C1183 C1181 1.433 . S
C1183 N1186 1.384 . S
C1184 H1175 0.929 . S
C1184 C1176 1.378 . S
C1184 C1179 1.350 . S
C1185 H1172 0.929 . S
C1185 C1177 1.433 . S
C1185 N1187 1.384 . S
N1186 C1182 1.427 . S
N1186 C1183 1.384 . S
N1187 C1179 1.427 . S
N1187 C1185 1.384 . S
H1188 C1194 0.930 . S
H1189 C1198 0.930 . S
H1190 C1203 0.929 1_554 S
H1191 C1201 0.929 . S
H1192 C1196 0.929 . S
H1193 C1202 0.929 . S
C1194 H1188 0.930 . S
C1194 C1195 1.367 . S
C1194 C1202 1.378 . S
C1195 C1194 1.367 . S
C1195 C1203 1.433 . S
C1196 H1192 0.929 . S
C1196 C1198 1.378 . S
C1196 C1200 1.350 . S
C1197 C1200 1.463 . S
C1197 C1202 1.350 1_554 S
C1197 N1205 1.427 . S
C1198 H1189 0.930 . S
C1198 C1196 1.378 . S
C1198 C1199 1.367 . S
C1199 C1198 1.367 . S
C1199 C1201 1.433 . S
C1200 C1196 1.350 . S
C1200 C1197 1.463 . S
C1200 N1204 1.427 . S
C1201 H1191 0.929 . S
C1201 C1199 1.433 . S
C1201 N1204 1.384 . S
C1202 H1193 0.929 . S
C1202 C1194 1.378 . S
C1202 C1197 1.350 1_556 S
C1203 H1190 0.929 1_556 S
C1203 C1195 1.433 . S
C1203 N1205 1.384 1_556 S
N1204 C1200 1.427 . S
N1204 C1201 1.384 . S
N1205 C1197 1.427 . S
N1205 C1203 1.384 1_554 S
H1206 C1212 0.930 . S
H1207 C1216 0.930 . S
H1208 C1221 0.929 . S
H1209 C1219 0.929 . S
H1210 C1214 0.929 . S
H1211 C1220 0.929 . S
C1212 H1206 0.930 . S
C1212 C1213 1.367 . S
C1212 C1220 1.378 . S
C1213 C1212 1.367 . S
C1213 C1221 1.433 . S
C1214 H1210 0.929 . S
C1214 C1216 1.378 . S
C1214 C1218 1.350 . S
C1215 C1218 1.463 . S
C1215 C1220 1.350 . S
C1215 N1223 1.427 . S
C1216 H1207 0.930 . S
C1216 C1214 1.378 . S
C1216 C1217 1.367 . S
C1217 C1216 1.367 . S
C1217 C1219 1.433 . S
C1218 C1214 1.350 . S
C1218 C1215 1.463 . S
C1218 N1222 1.427 . S
C1219 H1209 0.929 . S
C1219 C1217 1.433 . S
C1219 N1222 1.384 . S
C1220 H1211 0.929 . S
C1220 C1212 1.378 . S
C1220 C1215 1.350 . S
C1221 H1208 0.929 . S
C1221 C1213 1.433 . S
C1221 N1223 1.384 . S
N1222 C1218 1.427 . S
N1222 C1219 1.384 . S
N1223 C1215 1.427 . S
N1223 C1221 1.384 . S
H1224 C1230 0.930 . S
H1225 C1234 0.930 . S
H1226 C1239 0.929 . S
H1227 C1237 0.929 . S
H1228 C1232 0.929 . S
H1229 C1238 0.929 . S
C1230 H1224 0.930 . S
C1230 C1231 1.367 . S
C1230 C1238 1.378 . S
C1231 C1230 1.367 . S
C1231 C1239 1.433 . S
C1232 H1228 0.929 . S
C1232 C1234 1.378 . S
C1232 C1236 1.350 . S
C1233 C1236 1.463 . S
C1233 C1238 1.350 . S
C1233 N1241 1.427 . S
C1234 H1225 0.930 . S
C1234 C1232 1.378 . S
C1234 C1235 1.367 . S
C1235 C1234 1.367 . S
C1235 C1237 1.433 . S
C1236 C1232 1.350 . S
C1236 C1233 1.463 . S
C1236 N1240 1.427 . S
C1237 H1227 0.929 . S
C1237 C1235 1.433 . S
C1237 N1240 1.384 . S
C1238 H1229 0.929 . S
C1238 C1230 1.378 . S
C1238 C1233 1.350 . S
C1239 H1226 0.929 . S
C1239 C1231 1.433 . S
C1239 N1241 1.384 . S
N1240 C1236 1.427 . S
N1240 C1237 1.384 . S
N1241 C1233 1.427 . S
N1241 C1239 1.384 . S
H1242 C1248 0.932 . S
H1243 C1252 0.930 . S
H1244 C1257 0.929 . S
H1245 C1255 0.929 . S
H1246 C1250 0.894 1_455 S
H1247 C1256 0.929 . S
C1248 H1242 0.932 . S
C1248 C1249 1.367 . S
C1248 C1256 1.378 1_455 S
C1249 C1248 1.367 . S
C1249 C1257 1.433 . S
C1250 H1246 0.894 1_655 S
C1250 C1252 1.378 . S
C1250 C1254 1.350 . S
C1251 C1254 1.463 . S
C1251 C1256 1.350 . S
C1251 N1259 1.427 1_655 S
C1252 H1243 0.930 . S
C1252 C1250 1.378 . S
C1252 C1253 1.367 . S
C1253 C1252 1.367 . S
C1253 C1255 1.433 . S
C1254 C1250 1.350 . S
C1254 C1251 1.463 . S
C1254 N1258 1.427 . S
C1255 H1245 0.929 . S
C1255 C1253 1.433 . S
C1255 N1258 1.384 . S
C1256 H1247 0.929 . S
C1256 C1248 1.378 1_655 S
C1256 C1251 1.350 . S
C1257 H1244 0.929 . S
C1257 C1249 1.433 . S
C1257 N1259 1.384 . S
N1258 C1254 1.427 . S
N1258 C1255 1.384 . S
N1259 C1251 1.427 1_455 S
N1259 C1257 1.384 . S
H1260 C1266 0.930 . S
H1261 C1270 0.930 . S
H1262 C1275 0.929 . S
H1263 C1273 0.929 . S
H1264 C1268 0.929 . S
H1265 C1274 0.929 . S
C1266 H1260 0.930 . S
C1266 C1267 1.367 . S
C1266 C1274 1.378 . S
C1267 C1266 1.367 . S
C1267 C1275 1.433 . S
C1268 H1264 0.929 . S
C1268 C1270 1.378 . S
C1268 C1272 1.350 . S
C1269 C1272 1.463 . S
C1269 C1274 1.350 1_455 S
C1269 N1277 1.426 . S
C1270 H1261 0.930 . S
C1270 C1268 1.378 . S
C1270 C1271 1.367 . S
C1271 C1270 1.367 . S
C1271 C1273 1.433 . S
C1272 C1268 1.350 . S
C1272 C1269 1.463 . S
C1272 N1276 1.427 . S
C1273 H1263 0.929 . S
C1273 C1271 1.433 . S
C1273 N1276 1.384 . S
C1274 H1265 0.929 . S
C1274 C1266 1.378 . S
C1274 C1269 1.350 1_655 S
C1275 H1262 0.929 . S
C1275 C1267 1.433 . S
C1275 N1277 1.387 1_655 S
N1276 C1272 1.427 . S
N1276 C1273 1.384 . S
N1277 C1269 1.426 . S
N1277 C1275 1.387 1_455 S
H1278 C1284 0.930 . S
H1279 C1288 0.930 . S
H1280 C1293 0.929 . S
H1281 C1291 0.929 . S
H1282 C1286 0.929 . S
H1283 C1292 0.929 . S
C1284 H1278 0.930 . S
C1284 C1285 1.367 . S
C1284 C1292 1.378 . S
C1285 C1284 1.367 . S
C1285 C1293 1.433 . S
C1286 H1282 0.929 . S
C1286 C1288 1.378 . S
C1286 C1290 1.350 . S
C1287 C1290 1.463 . S
C1287 C1292 1.350 . S
C1287 N1295 1.427 . S
C1288 H1279 0.930 . S
C1288 C1286 1.378 . S
C1288 C1289 1.367 . S
C1289 C1288 1.367 . S
C1289 C1291 1.433 . S
C1290 C1286 1.350 . S
C1290 C1287 1.463 . S
C1290 N1294 1.427 . S
C1291 H1281 0.929 . S
C1291 C1289 1.433 . S
C1291 N1294 1.384 . S
C1292 H1283 0.929 . S
C1292 C1284 1.378 . S
C1292 C1287 1.350 . S
C1293 H1280 0.929 . S
C1293 C1285 1.433 . S
C1293 N1295 1.384 . S
N1294 C1290 1.427 . S
N1294 C1291 1.384 . S
N1295 C1287 1.427 . S
N1295 C1293 1.384 . S
H1296 C1302 0.930 . S
H1297 C1306 0.930 . S
H1298 C1311 0.929 . S
H1299 C1309 0.929 . S
H1300 C1304 0.929 . S
H1301 C1310 0.929 . S
C1302 H1296 0.930 . S
C1302 C1303 1.367 . S
C1302 C1310 1.378 . S
C1303 C1302 1.367 . S
C1303 C1311 1.433 . S
C1304 H1300 0.929 . S
C1304 C1306 1.378 . S
C1304 C1308 1.350 . S
C1305 C1308 1.463 . S
C1305 C1310 1.350 . S
C1305 N1313 1.427 . S
C1306 H1297 0.930 . S
C1306 C1304 1.378 . S
C1306 C1307 1.367 . S
C1307 C1306 1.367 . S
C1307 C1309 1.433 . S
C1308 C1304 1.350 . S
C1308 C1305 1.463 . S
C1308 N1312 1.427 . S
C1309 H1299 0.929 . S
C1309 C1307 1.433 . S
C1309 N1312 1.384 . S
C1310 H1301 0.929 . S
C1310 C1302 1.378 . S
C1310 C1305 1.350 . S
C1311 H1298 0.929 . S
C1311 C1303 1.433 . S
C1311 N1313 1.384 . S
N1312 C1308 1.427 . S
N1312 C1309 1.384 . S
N1313 C1305 1.427 . S
N1313 C1311 1.384 . S
H1314 C1320 0.930 . S
H1315 C1324 0.930 . S
H1316 C1329 0.929 . S
H1317 C1327 0.929 . S
H1318 C1322 0.929 . S
H1319 C1328 0.929 . S
C1320 H1314 0.930 . S
C1320 C1321 1.367 1_565 S
C1320 C1328 1.378 . S
C1321 C1320 1.367 1_545 S
C1321 C1329 1.433 . S
C1322 H1318 0.929 . S
C1322 C1324 1.378 . S
C1322 C1326 1.350 . S
C1323 C1326 1.463 . S
C1323 C1328 1.350 . S
C1323 N1331 1.427 1_565 S
C1324 H1315 0.930 . S
C1324 C1322 1.378 . S
C1324 C1325 1.367 . S
C1325 C1324 1.367 . S
C1325 C1327 1.433 . S
C1326 C1322 1.350 . S
C1326 C1323 1.463 . S
C1326 N1330 1.427 . S
C1327 H1317 0.929 . S
C1327 C1325 1.433 . S
C1327 N1330 1.384 . S
C1328 H1319 0.929 . S
C1328 C1320 1.378 . S
C1328 C1323 1.350 . S
C1329 H1316 0.929 . S
C1329 C1321 1.433 . S
C1329 N1331 1.384 . S
N1330 C1326 1.427 . S
N1330 C1327 1.384 . S
N1331 C1323 1.427 1_545 S
N1331 C1329 1.384 . S
H1332 C1338 0.930 . S
H1333 C1342 0.930 . S
H1334 C1347 0.929 . S
H1335 C1345 0.929 . S
H1336 C1340 0.929 . S
H1337 C1346 0.929 . S
C1338 H1332 0.930 . S
C1338 C1339 1.367 . S
C1338 C1346 1.378 . S
C1339 C1338 1.367 . S
C1339 C1347 1.433 . S
C1340 H1336 0.929 . S
C1340 C1342 1.378 . S
C1340 C1344 1.350 . S
C1341 C1344 1.463 . S
C1341 C1346 1.350 . S
C1341 N1349 1.427 . S
C1342 H1333 0.930 . S
C1342 C1340 1.378 . S
C1342 C1343 1.367 . S
C1343 C1342 1.367 . S
C1343 C1345 1.433 . S
C1344 C1340 1.350 . S
C1344 C1341 1.463 . S
C1344 N1348 1.427 . S
C1345 H1335 0.929 . S
C1345 C1343 1.433 . S
C1345 N1348 1.384 . S
C1346 H1337 0.929 . S
C1346 C1338 1.378 . S
C1346 C1341 1.350 . S
C1347 H1334 0.929 . S
C1347 C1339 1.433 . S
C1347 N1349 1.384 . S
N1348 C1344 1.427 . S
N1348 C1345 1.384 . S
N1349 C1341 1.427 . S
N1349 C1347 1.384 . S
H1350 C1356 0.930 . S
H1351 C1360 0.930 . S
H1352 C1365 0.929 . S
H1353 C1363 0.929 . S
H1354 C1358 0.929 . S
H1355 C1364 0.929 . S
C1356 H1350 0.930 . S
C1356 C1357 1.367 . S
C1356 C1364 1.378 . S
C1357 C1356 1.367 . S
C1357 C1365 1.433 . S
C1358 H1354 0.929 . S
C1358 C1360 1.378 1_554 S
C1358 C1362 1.350 . S
C1359 C1362 1.463 . S
C1359 C1364 1.350 . S
C1359 N1367 1.427 . S
C1360 H1351 0.930 . S
C1360 C1358 1.378 1_556 S
C1360 C1361 1.367 1_545 S
C1361 C1360 1.367 1_565 S
C1361 C1363 1.433 . S
C1362 C1358 1.350 . S
C1362 C1359 1.463 . S
C1362 N1366 1.445 . S
C1363 H1353 0.929 . S
C1363 C1361 1.433 . S
C1363 N1366 1.370 1_566 S
C1364 H1355 0.929 . S
C1364 C1356 1.378 . S
C1364 C1359 1.350 . S
C1365 H1352 0.929 . S
C1365 C1357 1.433 . S
C1365 N1367 1.384 . S
N1366 C1362 1.445 . S
N1366 C1363 1.370 1_544 S
N1367 C1359 1.427 . S
N1367 C1365 1.384 . S
H1368 C1374 0.930 . S
H1369 C1378 0.930 . S
H1370 C1383 0.929 . S
H1371 C1381 0.929 . S
H1372 C1376 0.929 . S
H1373 C1382 0.929 . S
C1374 H1368 0.930 . S
C1374 C1375 1.367 . S
C1374 C1382 1.378 . S
C1375 C1374 1.367 . S
C1375 C1383 1.433 . S
C1376 H1372 0.929 . S
C1376 C1378 1.378 . S
C1376 C1380 1.350 . S
C1377 C1380 1.463 . S
C1377 C1382 1.350 . S
C1377 N1385 1.427 . S
C1378 H1369 0.930 . S
C1378 C1376 1.378 . S
C1378 C1379 1.367 . S
C1379 C1378 1.367 . S
C1379 C1381 1.433 . S
C1380 C1376 1.350 . S
C1380 C1377 1.463 . S
C1380 N1384 1.427 . S
C1381 H1371 0.929 . S
C1381 C1379 1.433 . S
C1381 N1384 1.384 . S
C1382 H1373 0.929 . S
C1382 C1374 1.378 . S
C1382 C1377 1.350 . S
C1383 H1370 0.929 . S
C1383 C1375 1.433 . S
C1383 N1385 1.384 . S
N1384 C1380 1.427 . S
N1384 C1381 1.384 . S
N1385 C1377 1.427 . S
N1385 C1383 1.384 . S
H1386 C1392 0.932 . S
H1387 C1396 0.930 . S
H1388 C1401 0.929 . S
H1389 C1399 0.929 . S
H1390 C1394 0.929 . S
H1391 C1400 0.929 . S
C1392 H1386 0.932 . S
C1392 C1393 1.367 1_556 S
C1392 C1400 1.378 . S
C1393 C1392 1.367 1_554 S
C1393 C1401 1.433 . S
C1394 H1390 0.929 . S
C1394 C1396 1.378 . S
C1394 C1398 1.350 . S
C1395 C1398 1.463 . S
C1395 C1400 1.350 . S
C1395 N1403 1.427 . S
C1396 H1387 0.930 . S
C1396 C1394 1.378 . S
C1396 C1397 1.367 . S
C1397 C1396 1.367 . S
C1397 C1399 1.433 . S
C1398 C1394 1.350 . S
C1398 C1395 1.463 . S
C1398 N1402 1.427 . S
C1399 H1389 0.929 . S
C1399 C1397 1.433 . S
C1399 N1402 1.384 . S
C1400 H1391 0.929 . S
C1400 C1392 1.378 . S
C1400 C1395 1.350 . S
C1401 H1388 0.929 . S
C1401 C1393 1.433 . S
C1401 N1403 1.384 1_554 S
N1402 C1398 1.427 . S
N1402 C1399 1.384 . S
N1403 C1395 1.427 . S
N1403 C1401 1.384 1_556 S
H1404 C1410 0.930 . S
H1405 C1414 0.930 . S
H1406 C1419 0.929 . S
H1407 C1417 0.929 . S
H1408 C1412 0.929 . S
H1409 C1418 0.929 . S
C1410 H1404 0.930 . S
C1410 C1411 1.367 . S
C1410 C1418 1.378 . S
C1411 C1410 1.367 . S
C1411 C1419 1.433 . S
C1412 H1408 0.929 . S
C1412 C1414 1.378 . S
C1412 C1416 1.350 . S
C1413 C1416 1.463 . S
C1413 C1418 1.350 . S
C1413 N1421 1.427 . S
C1414 H1405 0.930 . S
C1414 C1412 1.378 . S
C1414 C1415 1.367 . S
C1415 C1414 1.367 . S
C1415 C1417 1.433 . S
C1416 C1412 1.350 . S
C1416 C1413 1.463 . S
C1416 N1420 1.427 . S
C1417 H1407 0.929 . S
C1417 C1415 1.433 . S
C1417 N1420 1.384 . S
C1418 H1409 0.929 . S
C1418 C1410 1.378 . S
C1418 C1413 1.350 . S
C1419 H1406 0.929 . S
C1419 C1411 1.433 . S
C1419 N1421 1.384 . S
N1420 C1416 1.427 . S
N1420 C1417 1.384 . S
N1421 C1413 1.427 . S
N1421 C1419 1.384 . S
H1422 C1428 0.930 . S
H1423 C1432 0.930 . S
H1424 C1437 0.929 . S
H1425 C1435 0.929 . S
H1426 C1430 0.929 . S
H1427 C1436 0.929 . S
C1428 H1422 0.930 . S
C1428 C1429 1.367 . S
C1428 C1436 1.378 . S
C1429 C1428 1.367 . S
C1429 C1437 1.433 . S
C1430 H1426 0.929 . S
C1430 C1432 1.378 . S
C1430 C1434 1.350 . S
C1431 C1434 1.463 . S
C1431 C1436 1.350 . S
C1431 N1439 1.427 . S
C1432 H1423 0.930 . S
C1432 C1430 1.378 . S
C1432 C1433 1.367 . S
C1433 C1432 1.367 . S
C1433 C1435 1.433 . S
C1434 C1430 1.350 . S
C1434 C1431 1.463 . S
C1434 N1438 1.427 . S
C1435 H1425 0.929 . S
C1435 C1433 1.433 . S
C1435 N1438 1.384 . S
C1436 H1427 0.929 . S
C1436 C1428 1.378 . S
C1436 C1431 1.350 . S
C1437 H1424 0.929 . S
C1437 C1429 1.433 . S
C1437 N1439 1.384 . S
N1438 C1434 1.427 . S
N1438 C1435 1.384 . S
N1439 C1431 1.427 . S
N1439 C1437 1.384 . S
H1440 C1446 0.930 . S
H1441 C1450 0.930 . S
H1442 C1455 0.929 . S
H1443 C1453 0.929 . S
H1444 C1448 0.929 . S
H1445 C1454 0.929 . S
C1446 H1440 0.930 . S
C1446 C1447 1.367 . S
C1446 C1454 1.378 . S
C1447 C1446 1.367 . S
C1447 C1455 1.433 . S
C1448 H1444 0.929 . S
C1448 C1450 1.378 . S
C1448 C1452 1.350 . S
C1449 C1452 1.463 . S
C1449 C1454 1.350 . S
C1449 N1457 1.427 . S
C1450 H1441 0.930 . S
C1450 C1448 1.378 . S
C1450 C1451 1.367 . S
C1451 C1450 1.367 . S
C1451 C1453 1.433 . S
C1452 C1448 1.350 . S
C1452 C1449 1.463 . S
C1452 N1456 1.427 . S
C1453 H1443 0.929 . S
C1453 C1451 1.433 . S
C1453 N1456 1.384 . S
C1454 H1445 0.929 . S
C1454 C1446 1.378 . S
C1454 C1449 1.350 . S
C1455 H1442 0.929 . S
C1455 C1447 1.433 . S
C1455 N1457 1.384 . S
N1456 C1452 1.427 . S
N1456 C1453 1.384 . S
N1457 C1449 1.427 . S
N1457 C1455 1.384 . S
H1458 C1464 0.930 . S
H1459 C1468 0.930 . S
H1460 C1473 0.929 . S
H1461 C1471 0.929 . S
H1462 C1466 0.929 . S
H1463 C1472 0.929 . S
C1464 H1458 0.930 . S
C1464 C1465 1.367 . S
C1464 C1472 1.378 1_565 S
C1465 C1464 1.367 . S
C1465 C1473 1.433 1_655 S
C1466 H1462 0.929 . S
C1466 C1468 1.378 . S
C1466 C1470 1.350 . S
C1467 C1470 1.463 . S
C1467 C1472 1.350 1_455 S
C1467 N1475 1.427 . S
C1468 H1459 0.930 . S
C1468 C1466 1.378 . S
C1468 C1469 1.367 . S
C1469 C1468 1.367 . S
C1469 C1471 1.433 . S
C1470 C1466 1.350 . S
C1470 C1467 1.463 . S
C1470 N1474 1.427 . S
C1471 H1461 0.929 . S
C1471 C1469 1.433 . S
C1471 N1474 1.384 . S
C1472 H1463 0.929 . S
C1472 C1464 1.378 1_545 S
C1472 C1467 1.350 1_655 S
C1473 H1460 0.929 . S
C1473 C1465 1.433 1_455 S
C1473 N1475 1.384 1_565 S
N1474 C1470 1.427 . S
N1474 C1471 1.384 . S
N1475 C1467 1.427 . S
N1475 C1473 1.384 1_545 S
H1476 C1482 0.930 . S
H1477 C1486 0.930 . S
H1478 C1491 0.929 . S
H1479 C1489 0.929 . S
H1480 C1484 0.929 . S
H1481 C1490 0.929 . S
C1482 H1476 0.930 . S
C1482 C1483 1.367 . S
C1482 C1490 1.378 . S
C1483 C1482 1.367 . S
C1483 C1491 1.433 . S
C1484 H1480 0.929 . S
C1484 C1486 1.378 . S
C1484 C1488 1.350 . S
C1485 C1488 1.463 . S
C1485 C1490 1.350 . S
C1485 N1493 1.427 . S
C1486 H1477 0.930 . S
C1486 C1484 1.378 . S
C1486 C1487 1.367 . S
C1487 C1486 1.367 . S
C1487 C1489 1.433 . S
C1488 C1484 1.350 . S
C1488 C1485 1.463 . S
C1488 N1492 1.427 . S
C1489 H1479 0.929 . S
C1489 C1487 1.433 . S
C1489 N1492 1.384 . S
C1490 H1481 0.929 . S
C1490 C1482 1.378 . S
C1490 C1485 1.350 . S
C1491 H1478 0.929 . S
C1491 C1483 1.433 . S
C1491 N1493 1.384 . S
N1492 C1488 1.427 . S
N1492 C1489 1.384 . S
N1493 C1485 1.427 . S
N1493 C1491 1.384 . S
H1494 C1500 0.930 . S
H1495 C1504 0.930 . S
H1496 C1509 0.929 . S
H1497 C1507 0.929 . S
H1498 C1502 0.929 . S
H1499 C1508 0.929 . S
C1500 H1494 0.930 . S
C1500 C1501 1.367 . S
C1500 C1508 1.378 1_545 S
C1501 C1500 1.367 . S
C1501 C1509 1.433 . S
C1502 H1498 0.929 . S
C1502 C1504 1.378 . S
C1502 C1506 1.350 . S
C1503 C1506 1.463 . S
C1503 C1508 1.350 . S
C1503 N1511 1.427 . S
C1504 H1495 0.930 . S
C1504 C1502 1.378 . S
C1504 C1505 1.367 . S
C1505 C1504 1.367 . S
C1505 C1507 1.433 . S
C1506 C1502 1.350 . S
C1506 C1503 1.463 . S
C1506 N1510 1.427 . S
C1507 H1497 0.929 . S
C1507 C1505 1.433 . S
C1507 N1510 1.384 . S
C1508 H1499 0.929 . S
C1508 C1500 1.378 1_565 S
C1508 C1503 1.350 . S
C1509 H1496 0.929 . S
C1509 C1501 1.433 . S
C1509 N1511 1.384 1_545 S
N1510 C1506 1.427 . S
N1510 C1507 1.384 . S
N1511 C1503 1.427 . S
N1511 C1509 1.384 1_565 S
H1512 C1518 0.930 . S
H1513 C1522 0.930 . S
H1514 C1527 0.929 . S
H1515 C1525 0.929 . S
H1516 C1520 0.929 . S
H1517 C1526 0.929 . S
C1518 H1512 0.930 . S
C1518 C1519 1.367 . S
C1518 C1526 1.378 . S
C1519 C1518 1.367 . S
C1519 C1527 1.433 . S
C1520 H1516 0.929 . S
C1520 C1522 1.378 . S
C1520 C1524 1.350 . S
C1521 C1524 1.463 . S
C1521 C1526 1.350 . S
C1521 N1529 1.427 . S
C1522 H1513 0.930 . S
C1522 C1520 1.378 . S
C1522 C1523 1.367 . S
C1523 C1522 1.367 . S
C1523 C1525 1.433 . S
C1524 C1520 1.350 . S
C1524 C1521 1.463 . S
C1524 N1528 1.427 . S
C1525 H1515 0.929 . S
C1525 C1523 1.433 . S
C1525 N1528 1.384 . S
C1526 H1517 0.929 . S
C1526 C1518 1.378 . S
C1526 C1521 1.350 . S
C1527 H1514 0.929 . S
C1527 C1519 1.433 . S
C1527 N1529 1.384 . S
N1528 C1524 1.427 . S
N1528 C1525 1.384 . S
N1529 C1521 1.427 . S
N1529 C1527 1.384 . S
H1530 C1536 0.930 . S
H1531 C1540 0.930 . S
H1532 C1545 0.929 . S
H1533 C1543 0.929 . S
H1534 C1538 0.929 . S
H1535 C1544 0.926 1_455 S
C1536 H1530 0.930 . S
C1536 C1537 1.367 . S
C1536 C1544 1.369 1_455 S
C1537 C1536 1.367 . S
C1537 C1545 1.433 1_455 S
C1538 H1534 0.929 . S
C1538 C1540 1.378 . S
C1538 C1542 1.350 . S
C1539 C1542 1.463 . S
C1539 C1544 1.361 . S
C1539 N1547 1.427 . S
C1540 H1531 0.930 . S
C1540 C1538 1.378 . S
C1540 C1541 1.367 . S
C1541 C1540 1.367 . S
C1541 C1543 1.433 . S
C1542 C1538 1.350 . S
C1542 C1539 1.463 . S
C1542 N1546 1.427 . S
C1543 H1533 0.929 . S
C1543 C1541 1.433 . S
C1543 N1546 1.384 . S
C1544 H1535 0.926 1_655 S
C1544 C1536 1.369 1_655 S
C1544 C1539 1.361 . S
C1545 H1532 0.929 . S
C1545 C1537 1.433 1_655 S
C1545 N1547 1.384 . S
N1546 C1542 1.427 . S
N1546 C1543 1.384 . S
N1547 C1539 1.427 . S
N1547 C1545 1.384 . S
H1548 C1554 0.930 . S
H1549 C1558 0.930 . S
H1550 C1563 0.929 . S
H1551 C1561 0.929 . S
H1552 C1556 0.929 . S
H1553 C1562 0.929 . S
C1554 H1548 0.930 . S
C1554 C1555 1.367 . S
C1554 C1562 1.378 . S
C1555 C1554 1.367 . S
C1555 C1563 1.433 . S
C1556 H1552 0.929 . S
C1556 C1558 1.378 . S
C1556 C1560 1.350 . S
C1557 C1560 1.463 . S
C1557 C1562 1.350 . S
C1557 N1565 1.427 . S
C1558 H1549 0.930 . S
C1558 C1556 1.378 . S
C1558 C1559 1.367 . S
C1559 C1558 1.367 . S
C1559 C1561 1.433 . S
C1560 C1556 1.350 . S
C1560 C1557 1.463 . S
C1560 N1564 1.427 . S
C1561 H1551 0.929 . S
C1561 C1559 1.433 . S
C1561 N1564 1.384 . S
C1562 H1553 0.929 . S
C1562 C1554 1.378 . S
C1562 C1557 1.350 . S
C1563 H1550 0.929 . S
C1563 C1555 1.433 . S
C1563 N1565 1.384 . S
N1564 C1560 1.427 . S
N1564 C1561 1.384 . S
N1565 C1557 1.427 . S
N1565 C1563 1.384 . S
H1566 C1572 0.930 . S
H1567 C1576 0.930 . S
H1568 C1581 0.929 . S
H1569 C1579 0.929 . S
H1570 C1574 0.929 . S
H1571 C1580 0.929 . S
C1572 H1566 0.930 . S
C1572 C1573 1.367 . S
C1572 C1580 1.378 . S
C1573 C1572 1.367 . S
C1573 C1581 1.433 . S
C1574 H1570 0.929 . S
C1574 C1576 1.378 . S
C1574 C1578 1.350 . S
C1575 C1578 1.463 . S
C1575 C1580 1.350 . S
C1575 N1583 1.427 . S
C1576 H1567 0.930 . S
C1576 C1574 1.378 . S
C1576 C1577 1.367 . S
C1577 C1576 1.367 . S
C1577 C1579 1.433 . S
C1578 C1574 1.350 . S
C1578 C1575 1.463 . S
C1578 N1582 1.427 . S
C1579 H1569 0.929 . S
C1579 C1577 1.433 . S
C1579 N1582 1.384 . S
C1580 H1571 0.929 . S
C1580 C1572 1.378 . S
C1580 C1575 1.350 . S
C1581 H1568 0.929 . S
C1581 C1573 1.433 . S
C1581 N1583 1.384 . S
N1582 C1578 1.427 . S
N1582 C1579 1.384 . S
N1583 C1575 1.427 . S
N1583 C1581 1.384 . S
H1584 C1590 0.930 . S
H1585 C1594 0.930 . S
H1586 C1599 0.929 . S
H1587 C1597 0.929 . S
H1588 C1592 0.929 . S
H1589 C1598 0.929 . S
C1590 H1584 0.930 . S
C1590 C1591 1.367 . S
C1590 C1598 1.378 . S
C1591 C1590 1.367 . S
C1591 C1599 1.433 . S
C1592 H1588 0.929 . S
C1592 C1594 1.378 . S
C1592 C1596 1.350 . S
C1593 C1596 1.463 . S
C1593 C1598 1.350 . S
C1593 N1601 1.427 . S
C1594 H1585 0.930 . S
C1594 C1592 1.378 . S
C1594 C1595 1.367 . S
C1595 C1594 1.367 . S
C1595 C1597 1.433 . S
C1596 C1592 1.350 . S
C1596 C1593 1.463 . S
C1596 N1600 1.427 . S
C1597 H1587 0.929 . S
C1597 C1595 1.433 . S
C1597 N1600 1.384 . S
C1598 H1589 0.929 . S
C1598 C1590 1.378 . S
C1598 C1593 1.350 . S
C1599 H1586 0.929 . S
C1599 C1591 1.433 . S
C1599 N1601 1.384 . S
N1600 C1596 1.427 . S
N1600 C1597 1.384 . S
N1601 C1593 1.427 . S
N1601 C1599 1.384 . S
H1602 C1608 0.930 . S
H1603 C1612 0.930 . S
H1604 C1617 0.929 . S
H1605 C1615 0.929 . S
H1606 C1610 0.929 . S
H1607 C1616 0.929 . S
C1608 H1602 0.930 . S
C1608 C1609 1.367 . S
C1608 C1616 1.378 . S
C1609 C1608 1.367 . S
C1609 C1617 1.433 . S
C1610 H1606 0.929 . S
C1610 C1612 1.378 . S
C1610 C1614 1.350 . S
C1611 C1614 1.463 . S
C1611 C1616 1.350 . S
C1611 N1619 1.427 . S
C1612 H1603 0.930 . S
C1612 C1610 1.378 . S
C1612 C1613 1.367 . S
C1613 C1612 1.367 . S
C1613 C1615 1.433 . S
C1614 C1610 1.350 . S
C1614 C1611 1.463 . S
C1614 N1618 1.427 . S
C1615 H1605 0.929 . S
C1615 C1613 1.433 . S
C1615 N1618 1.384 . S
C1616 H1607 0.929 . S
C1616 C1608 1.378 . S
C1616 C1611 1.350 . S
C1617 H1604 0.929 . S
C1617 C1609 1.433 . S
C1617 N1619 1.384 . S
N1618 C1614 1.427 . S
N1618 C1615 1.384 . S
N1619 C1611 1.427 . S
N1619 C1617 1.384 . S
H1620 C1626 0.930 . S
H1621 C1630 0.930 . S
H1622 C1635 0.929 . S
H1623 C1633 0.929 . S
H1624 C1628 0.929 . S
H1625 C1634 0.929 . S
C1626 H1620 0.930 . S
C1626 C1627 1.367 1_554 S
C1626 C1634 1.378 1_655 S
C1627 C1626 1.367 1_556 S
C1627 C1635 1.433 . S
C1628 H1624 0.929 . S
C1628 C1630 1.378 . S
C1628 C1632 1.350 . S
C1629 C1632 1.463 . S
C1629 C1634 1.350 . S
C1629 N1637 1.427 . S
C1630 H1621 0.930 . S
C1630 C1628 1.378 . S
C1630 C1631 1.367 . S
C1631 C1630 1.367 . S
C1631 C1633 1.433 . S
C1632 C1628 1.350 . S
C1632 C1629 1.463 . S
C1632 N1636 1.427 . S
C1633 H1623 0.929 . S
C1633 C1631 1.433 . S
C1633 N1636 1.384 . S
C1634 H1625 0.929 . S
C1634 C1626 1.378 1_455 S
C1634 C1629 1.350 . S
C1635 H1622 0.929 . S
C1635 C1627 1.433 . S
C1635 N1637 1.384 1_656 S
N1636 C1632 1.427 . S
N1636 C1633 1.384 . S
N1637 C1629 1.427 . S
N1637 C1635 1.384 1_454 S
H1638 C1644 0.930 . S
H1639 C1648 0.930 . S
H1640 C1653 0.929 . S
H1641 C1651 0.929 . S
H1642 C1646 0.929 . S
H1643 C1652 0.929 . S
C1644 H1638 0.930 . S
C1644 C1645 1.367 . S
C1644 C1652 1.378 . S
C1645 C1644 1.367 . S
C1645 C1653 1.433 . S
C1646 H1642 0.929 . S
C1646 C1648 1.378 . S
C1646 C1650 1.350 . S
C1647 C1650 1.463 . S
C1647 C1652 1.350 . S
C1647 N1655 1.427 . S
C1648 H1639 0.930 . S
C1648 C1646 1.378 . S
C1648 C1649 1.367 . S
C1649 C1648 1.367 . S
C1649 C1651 1.433 . S
C1650 C1646 1.350 . S
C1650 C1647 1.463 . S
C1650 N1654 1.427 . S
C1651 H1641 0.929 . S
C1651 C1649 1.433 . S
C1651 N1654 1.384 . S
C1652 H1643 0.929 . S
C1652 C1644 1.378 . S
C1652 C1647 1.350 . S
C1653 H1640 0.929 . S
C1653 C1645 1.433 . S
C1653 N1655 1.384 . S
N1654 C1650 1.427 . S
N1654 C1651 1.384 . S
N1655 C1647 1.427 . S
N1655 C1653 1.384 . S
H1656 C1662 0.930 . S
H1657 C1666 0.930 . S
H1658 C1671 0.929 . S
H1659 C1669 0.929 . S
H1660 C1664 0.929 . S
H1661 C1670 0.929 . S
C1662 H1656 0.930 . S
C1662 C1663 1.367 . S
C1662 C1670 1.378 . S
C1663 C1662 1.367 . S
C1663 C1671 1.433 . S
C1664 H1660 0.929 . S
C1664 C1666 1.378 . S
C1664 C1668 1.350 . S
C1665 C1668 1.463 . S
C1665 C1670 1.350 . S
C1665 N1673 1.427 . S
C1666 H1657 0.930 . S
C1666 C1664 1.378 . S
C1666 C1667 1.367 . S
C1667 C1666 1.367 . S
C1667 C1669 1.433 . S
C1668 C1664 1.350 . S
C1668 C1665 1.463 . S
C1668 N1672 1.427 . S
C1669 H1659 0.929 . S
C1669 C1667 1.433 . S
C1669 N1672 1.384 . S
C1670 H1661 0.929 . S
C1670 C1662 1.378 . S
C1670 C1665 1.350 . S
C1671 H1658 0.929 . S
C1671 C1663 1.433 . S
C1671 N1673 1.384 . S
N1672 C1668 1.427 . S
N1672 C1669 1.384 . S
N1673 C1665 1.427 . S
N1673 C1671 1.384 . S
H1674 C1680 0.930 . S
H1675 C1684 0.930 . S
H1676 C1689 0.929 . S
H1677 C1687 0.929 . S
H1678 C1682 0.929 . S
H1679 C1688 0.929 . S
C1680 H1674 0.930 . S
C1680 C1681 1.367 . S
C1680 C1688 1.378 . S
C1681 C1680 1.367 . S
C1681 C1689 1.433 . S
C1682 H1678 0.929 . S
C1682 C1684 1.378 . S
C1682 C1686 1.350 . S
C1683 C1686 1.463 . S
C1683 C1688 1.350 . S
C1683 N1691 1.427 . S
C1684 H1675 0.930 . S
C1684 C1682 1.378 . S
C1684 C1685 1.367 . S
C1685 C1684 1.367 . S
C1685 C1687 1.433 . S
C1686 C1682 1.350 . S
C1686 C1683 1.463 . S
C1686 N1690 1.427 . S
C1687 H1677 0.929 . S
C1687 C1685 1.433 . S
C1687 N1690 1.384 . S
C1688 H1679 0.929 . S
C1688 C1680 1.378 . S
C1688 C1683 1.350 . S
C1689 H1676 0.929 . S
C1689 C1681 1.433 . S
C1689 N1691 1.384 . S
N1690 C1686 1.427 . S
N1690 C1687 1.384 . S
N1691 C1683 1.427 . S
N1691 C1689 1.384 . S
H1692 C1698 0.930 . S
H1693 C1702 0.930 . S
H1694 C1707 0.929 . S
H1695 C1705 0.929 . S
H1696 C1700 0.929 . S
H1697 C1706 0.929 . S
C1698 H1692 0.930 . S
C1698 C1699 1.367 1_556 S
C1698 C1706 1.378 . S
C1699 C1698 1.367 1_554 S
C1699 C1707 1.433 . S
C1700 H1696 0.929 . S
C1700 C1702 1.378 . S
C1700 C1704 1.350 . S
C1701 C1704 1.463 . S
C1701 C1706 1.350 . S
C1701 N1709 1.427 . S
C1702 H1693 0.930 . S
C1702 C1700 1.378 . S
C1702 C1703 1.367 . S
C1703 C1702 1.367 . S
C1703 C1705 1.433 . S
C1704 C1700 1.350 . S
C1704 C1701 1.463 . S
C1704 N1708 1.427 . S
C1705 H1695 0.929 . S
C1705 C1703 1.433 . S
C1705 N1708 1.384 . S
C1706 H1697 0.929 . S
C1706 C1698 1.378 . S
C1706 C1701 1.350 . S
C1707 H1694 0.929 . S
C1707 C1699 1.433 . S
C1707 N1709 1.384 1_554 S
N1708 C1704 1.427 . S
N1708 C1705 1.384 . S
N1709 C1701 1.427 . S
N1709 C1707 1.384 1_556 S
H1710 C1716 0.930 . S
H1711 C1720 0.930 . S
H1712 C1725 0.929 . S
H1713 C1723 0.929 . S
H1714 C1718 0.929 . S
H1715 C1724 0.929 . S
C1716 H1710 0.930 . S
C1716 C1717 1.367 . S
C1716 C1724 1.378 . S
C1717 C1716 1.367 . S
C1717 C1725 1.433 . S
C1718 H1714 0.929 . S
C1718 C1720 1.378 1_655 S
C1718 C1722 1.350 . S
C1719 C1722 1.463 . S
C1719 C1724 1.350 . S
C1719 N1727 1.427 . S
C1720 H1711 0.930 . S
C1720 C1718 1.378 1_455 S
C1720 C1721 1.367 . S
C1721 C1720 1.367 . S
C1721 C1723 1.433 . S
C1722 C1718 1.350 . S
C1722 C1719 1.463 . S
C1722 N1726 1.427 . S
C1723 H1713 0.929 . S
C1723 C1721 1.433 . S
C1723 N1726 1.384 1_455 S
C1724 H1715 0.929 . S
C1724 C1716 1.378 . S
C1724 C1719 1.350 . S
C1725 H1712 0.929 . S
C1725 C1717 1.433 . S
C1725 N1727 1.384 . S
N1726 C1722 1.427 . S
N1726 C1723 1.384 1_655 S
N1727 C1719 1.427 . S
N1727 C1725 1.384 . S
C871 C328 1.191 . S
C875 C4 1.192 . S
C889 C40 1.177 . S
C893 C364 1.177 . S
C907 C76 1.191 . S
C911 C400 1.191 . S
C925 C112 1.175 . S
C929 C292 1.175 . S
C943 C148 1.173 . S
C947 C544 1.173 . S
C961 C436 1.187 . S
C965 C184 1.187 . S
C979 C220 1.180 . S
C983 C472 1.181 . S
C997 C508 1.194 . S
C1001 C256 1.194 . S
C1015 C580 1.175 . S
C1019 C652 1.175 . S
C1033 C796 1.192 . S
C1037 C616 1.192 . S
C1051 C688 1.180 . S
C1055 C832 1.180 . S
C1069 C760 1.191 . S
C1073 C724 1.190 . S
C1087 C734 1.640 . S
C1091 C14 1.641 . S
C1105 C50 1.645 . S
C1109 C626 1.646 . S
C1123 C86 1.655 . S
C1127 C662 1.655 . S
C1141 C122 1.655 . S
C1145 C698 1.655 . S
C1159 C158 1.649 . S
C1163 C842 1.648 . S
C1177 C770 1.656 . S
C1181 C194 1.655 . S
C1195 C806 1.654 . S
C1199 C230 1.653 . S
C1213 C590 1.640 . S
C1217 C266 1.641 . S
C1231 C554 1.638 . S
C1235 C302 1.638 . S
C1249 C338 1.647 . S
C1253 C446 1.649 . S
C1267 C482 1.656 . S
C1271 C374 1.656 . S
C1285 C518 1.638 . S
C1289 C410 1.639 . S
C1303 C3 1.083 . S
C1307 C578 1.117 . S
C1321 C830 1.122 . S
C1325 C39 1.068 . S
C1339 C758 1.122 . S
C1343 C75 1.064 . S
C1357 C111 1.065 . S
C1361 C794 1.121 . S
C1375 C147 1.078 . S
C1379 C614 1.118 . S
C1393 C650 1.119 . S
C1397 C183 1.073 . S
C1411 C686 1.120 . S
C1415 C219 1.077 . S
C1429 C722 1.118 . S
C1433 C255 1.078 . S
C1447 C2 1.118 . S
C1451 C291 1.084 . S
C1465 C38 1.117 . S
C1469 C327 1.086 . S
C1483 C74 1.122 . S
C1487 C363 1.064 . S
C1501 C110 1.117 . S
C1505 C399 1.085 . S
C1519 C146 1.121 . S
C1523 C435 1.064 . S
C1537 C182 1.118 . S
C1541 C471 1.085 . S
C1555 C507 1.066 . S
C1559 C218 1.121 . S
C1573 C254 1.121 . S
C1577 C543 1.066 . S
C1591 C290 1.121 . S
C1595 C579 1.070 . S
C1609 C615 1.064 . S
C1613 C434 1.121 . S
C1627 C470 1.120 . S
C1631 C651 1.066 . S
C1645 C687 1.065 . S
C1649 C506 1.122 . S
C1663 C723 1.066 . S
C1667 C542 1.121 . S
C1681 C759 1.082 . S
C1685 C362 1.117 . S
C1699 C398 1.120 . S
C1703 C795 1.067 . S
C1717 C831 1.083 . S
C1721 C326 1.118 . S
