# Generated by pormake.
# Topology smn, (6)-cn, num edge types: 1
# Building blocks:
#     Node 0, Type 0, BuildingBlock: OJICUG_clean_sbu_0, # of connection points: 6
#     Node 1, Type 0, BuildingBlock: OJICUG_clean_sbu_0, # of connection points: 6
#     Node 2, Type 0, BuildingBlock: OJICUG_clean_sbu_0, # of connection points: 6
#     Node 3, Type 0, BuildingBlock: OJICUG_clean_sbu_0, # of connection points: 6
#     Node 4, Type 0, BuildingBlock: OJICUG_clean_sbu_0, # of connection points: 6
#     Node 5, Type 0, BuildingBlock: OJICUG_clean_sbu_0, # of connection points: 6
#     Node 6, Type 0, BuildingBlock: OJICUG_clean_sbu_0, # of connection points: 6
#     Node 7, Type 0, BuildingBlock: OJICUG_clean_sbu_0, # of connection points: 6
#     Node 8, Type 0, BuildingBlock: OJICUG_clean_sbu_0, # of connection points: 6
#     Node 9, Type 0, BuildingBlock: OJICUG_clean_sbu_0, # of connection points: 6
#     Node 10, Type 0, BuildingBlock: OJICUG_clean_sbu_0, # of connection points: 6
#     Node 11, Type 0, BuildingBlock: OJICUG_clean_sbu_0, # of connection points: 6
#     Node 12, Type 0, BuildingBlock: OJICUG_clean_sbu_0, # of connection points: 6
#     Node 13, Type 0, BuildingBlock: OJICUG_clean_sbu_0, # of connection points: 6
#     Node 14, Type 0, BuildingBlock: OJICUG_clean_sbu_0, # of connection points: 6
#     Node 15, Type 0, BuildingBlock: OJICUG_clean_sbu_0, # of connection points: 6
#     Node 16, Type 0, BuildingBlock: OJICUG_clean_sbu_0, # of connection points: 6
#     Node 17, Type 0, BuildingBlock: OJICUG_clean_sbu_0, # of connection points: 6
#     Edge 18, Type (0, 0), BuildingBlock: OJICUG_clean_linker_0, # of connection points: 2
#     Edge 19, Type (0, 0), BuildingBlock: OJICUG_clean_linker_0, # of connection points: 2
#     Edge 20, Type (0, 0), BuildingBlock: OJICUG_clean_linker_0, # of connection points: 2
#     Edge 21, Type (0, 0), BuildingBlock: OJICUG_clean_linker_0, # of connection points: 2
#     Edge 22, Type (0, 0), BuildingBlock: OJICUG_clean_linker_0, # of connection points: 2
#     Edge 23, Type (0, 0), BuildingBlock: OJICUG_clean_linker_0, # of connection points: 2
#     Edge 24, Type (0, 0), BuildingBlock: OJICUG_clean_linker_0, # of connection points: 2
#     Edge 25, Type (0, 0), BuildingBlock: OJICUG_clean_linker_0, # of connection points: 2
#     Edge 26, Type (0, 0), BuildingBlock: OJICUG_clean_linker_0, # of connection points: 2
#     Edge 27, Type (0, 0), BuildingBlock: OJICUG_clean_linker_0, # of connection points: 2
#     Edge 28, Type (0, 0), BuildingBlock: OJICUG_clean_linker_0, # of connection points: 2
#     Edge 29, Type (0, 0), BuildingBlock: OJICUG_clean_linker_0, # of connection points: 2
#     Edge 30, Type (0, 0), BuildingBlock: OJICUG_clean_linker_0, # of connection points: 2
#     Edge 31, Type (0, 0), BuildingBlock: OJICUG_clean_linker_0, # of connection points: 2
#     Edge 32, Type (0, 0), BuildingBlock: OJICUG_clean_linker_0, # of connection points: 2
#     Edge 33, Type (0, 0), BuildingBlock: OJICUG_clean_linker_0, # of connection points: 2
#     Edge 34, Type (0, 0), BuildingBlock: OJICUG_clean_linker_0, # of connection points: 2
#     Edge 35, Type (0, 0), BuildingBlock: OJICUG_clean_linker_0, # of connection points: 2
#     Edge 36, Type (0, 0), BuildingBlock: OJICUG_clean_linker_0, # of connection points: 2
#     Edge 37, Type (0, 0), BuildingBlock: OJICUG_clean_linker_0, # of connection points: 2
#     Edge 38, Type (0, 0), BuildingBlock: OJICUG_clean_linker_0, # of connection points: 2
#     Edge 39, Type (0, 0), BuildingBlock: OJICUG_clean_linker_0, # of connection points: 2
#     Edge 40, Type (0, 0), BuildingBlock: OJICUG_clean_linker_0, # of connection points: 2
#     Edge 41, Type (0, 0), BuildingBlock: OJICUG_clean_linker_0, # of connection points: 2
#     Edge 42, Type (0, 0), BuildingBlock: OJICUG_clean_linker_0, # of connection points: 2
#     Edge 43, Type (0, 0), BuildingBlock: OJICUG_clean_linker_0, # of connection points: 2
#     Edge 44, Type (0, 0), BuildingBlock: OJICUG_clean_linker_0, # of connection points: 2
#     Edge 45, Type (0, 0), BuildingBlock: OJICUG_clean_linker_0, # of connection points: 2
#     Edge 46, Type (0, 0), BuildingBlock: OJICUG_clean_linker_0, # of connection points: 2
#     Edge 47, Type (0, 0), BuildingBlock: OJICUG_clean_linker_0, # of connection points: 2
#     Edge 48, Type (0, 0), BuildingBlock: OJICUG_clean_linker_0, # of connection points: 2
#     Edge 49, Type (0, 0), BuildingBlock: OJICUG_clean_linker_0, # of connection points: 2
#     Edge 50, Type (0, 0), BuildingBlock: OJICUG_clean_linker_0, # of connection points: 2
#     Edge 51, Type (0, 0), BuildingBlock: OJICUG_clean_linker_0, # of connection points: 2
#     Edge 52, Type (0, 0), BuildingBlock: OJICUG_clean_linker_0, # of connection points: 2
#     Edge 53, Type (0, 0), BuildingBlock: OJICUG_clean_linker_0, # of connection points: 2
#     Edge 54, Type (0, 0), BuildingBlock: OJICUG_clean_linker_0, # of connection points: 2
#     Edge 55, Type (0, 0), BuildingBlock: OJICUG_clean_linker_0, # of connection points: 2
#     Edge 56, Type (0, 0), BuildingBlock: OJICUG_clean_linker_0, # of connection points: 2
#     Edge 57, Type (0, 0), BuildingBlock: OJICUG_clean_linker_0, # of connection points: 2
#     Edge 58, Type (0, 0), BuildingBlock: OJICUG_clean_linker_0, # of connection points: 2
#     Edge 59, Type (0, 0), BuildingBlock: OJICUG_clean_linker_0, # of connection points: 2
#     Edge 60, Type (0, 0), BuildingBlock: OJICUG_clean_linker_0, # of connection points: 2
#     Edge 61, Type (0, 0), BuildingBlock: OJICUG_clean_linker_0, # of connection points: 2
#     Edge 62, Type (0, 0), BuildingBlock: OJICUG_clean_linker_0, # of connection points: 2
#     Edge 63, Type (0, 0), BuildingBlock: OJICUG_clean_linker_0, # of connection points: 2
#     Edge 64, Type (0, 0), BuildingBlock: OJICUG_clean_linker_0, # of connection points: 2
#     Edge 65, Type (0, 0), BuildingBlock: OJICUG_clean_linker_0, # of connection points: 2
#     Edge 66, Type (0, 0), BuildingBlock: OJICUG_clean_linker_0, # of connection points: 2
#     Edge 67, Type (0, 0), BuildingBlock: OJICUG_clean_linker_0, # of connection points: 2
#     Edge 68, Type (0, 0), BuildingBlock: OJICUG_clean_linker_0, # of connection points: 2
#     Edge 69, Type (0, 0), BuildingBlock: OJICUG_clean_linker_0, # of connection points: 2
#     Edge 70, Type (0, 0), BuildingBlock: OJICUG_clean_linker_0, # of connection points: 2
#     Edge 71, Type (0, 0), BuildingBlock: OJICUG_clean_linker_0, # of connection points: 2
# Relax obj value: 0.148
# Max RMSD: 0.236
# Mean RMSD: 0.236
data_MOF--net-smn--node1-OJICUG_clean_sbu_0--edge1-OJICUG_clean_linker_0
_symmetry_space_group_name_H-M    P1
_symmetry_Int_Tables_number       1
_symmetry_cell_setting            triclinic
loop_
_symmetry_equiv_pos_as_xyz
'x, y, z'
_cell_length_a     48.967545
_cell_length_b     48.981833
_cell_length_c     13.787014
_cell_angle_alpha  89.993683
_cell_angle_beta   89.994468
_cell_angle_gamma 119.98585
loop_
_atom_site_label
_atom_site_type_symbol
_atom_site_fract_x
_atom_site_fract_y
_atom_site_fract_z
_atom_type_partial_charge
Sc0 Sc 0.01142 0.16448 0.74623 0.0
Sc1 Sc 0.03286 0.23707 0.85562 0.0
Sc2 Sc 0.9905 0.21582 0.63536 0.0
O3 O 0.01159 0.20584 0.74575 0.0
C4 C 0.03379 0.19203 0.53475 0.0
C5 C 0.07791 0.20727 0.84642 0.0
C6 C 0.0533 0.28233 0.67318 0.0
C7 C 0.98916 0.17028 0.95727 0.0
C8 C 0.94496 0.14114 0.64618 0.0
C9 C 0.97044 0.2415 0.81657 0.0
O10 O 0.03263 0.17471 0.60532 0.0
O11 O 0.07326 0.22976 0.86959 0.0
O12 O 0.02783 0.26399 0.62899 0.0
O13 O 0.9902 0.15394 0.8871 0.0
O14 O 0.94984 0.16831 0.62235 0.0
O15 O 0.99581 0.24841 0.86111 0.0
O16 O 0.96554 0.13736 0.68899 0.0
O17 O 1.00438 0.20036 0.95946 0.0
O18 O 0.96322 0.2276 0.73439 0.0
O19 O 0.05724 0.18296 0.80367 0.0
O20 O 0.01874 0.20706 0.53208 0.0
O21 O 0.06042 0.27577 0.75573 0.0
Sc22 Sc 0.78419 0.80261 0.85455 0.0
Sc23 Sc 0.80563 0.78139 0.63465 0.0
Sc24 Sc 0.85714 0.85336 0.74646 0.0
O25 O 0.81559 0.81239 0.74521 0.0
C26 C 0.81434 0.87736 0.84564 0.0
C27 C 0.73899 0.77761 0.67183 0.0
C28 C 0.82979 0.84868 0.53492 0.0
C29 C 0.77984 0.73578 0.81628 0.0
C30 C 0.85074 0.8252 0.95749 0.0
C31 C 0.88032 0.8102 0.64561 0.0
O32 O 0.79143 0.85027 0.86711 0.0
O33 O 0.75746 0.77066 0.62754 0.0
O34 O 0.84705 0.86469 0.60578 0.0
O35 O 0.77301 0.75431 0.86078 0.0
O36 O 0.86736 0.84214 0.88699 0.0
O37 O 0.85309 0.78798 0.62185 0.0
O38 O 0.82067 0.81099 0.95953 0.0
O39 O 0.7936 0.7423 0.73383 0.0
O40 O 0.88416 0.83456 0.68854 0.0
O41 O 0.7455 0.79124 0.75441 0.0
O42 O 0.83889 0.88083 0.80481 0.0
O43 O 0.81472 0.8186 0.53175 0.0
Sc44 Sc 0.16663 0.0104 0.74771 0.0
Sc45 Sc 0.21688 0.98753 0.85622 0.0
Sc46 Sc 0.2387 0.03041 0.63686 0.0
O47 O 0.20743 0.0094 0.74684 0.0
C48 C 0.1716 0.98873 0.53487 0.0
C49 C 0.14189 0.9433 0.84547 0.0
C50 C 0.24175 0.96713 0.67362 0.0
C51 C 0.19448 0.03157 0.95942 0.0
C52 C 0.21064 0.07691 0.64945 0.0
C53 C 0.28411 0.04961 0.81875 0.0
O54 O 0.15558 0.99006 0.60559 0.0
O55 O 0.16888 0.94748 0.86872 0.0
O56 O 0.249 0.99267 0.62964 0.0
O57 O 0.17728 0.03098 0.88936 0.0
O58 O 0.23249 0.07147 0.62455 0.0
O59 O 0.26543 0.02422 0.86283 0.0
O60 O 0.1862 0.05663 0.69263 0.0
O61 O 0.20899 0.016 0.961 0.0
O62 O 0.27768 0.05707 0.73656 0.0
O63 O 0.13866 0.96433 0.80333 0.0
O64 O 0.20167 1.00294 0.53305 0.0
O65 O 0.22792 0.95996 0.75595 0.0
Sc66 Sc 0.01076 0.85409 0.2454 0.0
Sc67 Sc 0.99059 0.78158 0.13806 0.0
Sc68 Sc 0.03484 0.80467 0.3519 0.0
O69 O 0.01211 0.81357 0.24497 0.0
C70 C 0.07783 0.87989 0.34142 0.0
C71 C 0.03182 0.848 0.03218 0.0
C72 C 0.05504 0.7805 0.17101 0.0
C73 C 0.94389 0.80959 0.15126 0.0
C74 C 0.99021 0.82563 0.45758 0.0
C75 C 0.97435 0.73652 0.31594 0.0
O76 O 0.05767 0.88294 0.29322 0.0
O77 O 0.01882 0.81799 0.03313 0.0
O78 O 0.06381 0.7969 0.24868 0.0
O79 O 0.9636 0.83355 0.19761 0.0
O80 O 1.0043 0.80963 0.45603 0.0
O81 O 0.96355 0.74367 0.24181 0.0
O82 O 0.99241 0.84458 0.39063 0.0
O83 O 0.95009 0.78858 0.12264 0.0
O84 O 1.00121 0.75522 0.35207 0.0
O85 O 0.02906 0.86408 0.1002 0.0
O86 O 0.07288 0.85317 0.3705 0.0
O87 O 0.02789 0.77034 0.13352 0.0
Sc88 Sc 0.23954 0.21603 0.13605 0.0
Sc89 Sc 0.2184 0.23746 0.35604 0.0
Sc90 Sc 0.16744 0.16466 0.24757 0.0
O91 O 0.20851 0.20611 0.24655 0.0
C92 C 0.17234 0.19202 0.03587 0.0
C93 C 0.24342 0.28266 0.17342 0.0
C94 C 0.14361 0.20756 0.34646 0.0
C95 C 0.28517 0.24168 0.31756 0.0
C96 C 0.21059 0.14136 0.1477 0.0
C97 C 0.19551 0.17085 0.45871 0.0
O98 O 0.20242 0.20716 0.03301 0.0
O99 O 0.22974 0.27615 0.25595 0.0
O100 O 0.14007 0.18312 0.30483 0.0
O101 O 0.27858 0.22786 0.23524 0.0
O102 O 0.18625 0.13755 0.19071 0.0
O103 O 0.21008 0.20092 0.46065 0.0
O104 O 0.23276 0.16854 0.12329 0.0
O105 O 0.26672 0.24864 0.36197 0.0
O106 O 0.17832 0.15435 0.38847 0.0
O107 O 0.25042 0.26422 0.12923 0.0
O108 O 0.15628 0.17467 0.10653 0.0
O109 O 0.17072 0.23022 0.36907 0.0
Sc110 Sc 0.8568 0.00948 0.24587 0.0
Sc111 Sc 0.80508 0.02992 0.13508 0.0
Sc112 Sc 0.78413 0.98772 0.35563 0.0
O113 O 0.81528 0.00902 0.24551 0.0
C114 C 0.81418 0.9429 0.3458 0.0
C115 C 0.82925 0.98694 0.03436 0.0
C116 C 0.7386 0.96714 0.17379 0.0
C117 C 0.87976 0.07581 0.14582 0.0
C118 C 0.85093 0.03156 0.45711 0.0
C119 C 0.77962 0.05006 0.31673 0.0
O120 O 0.83845 0.96364 0.303 0.0
O121 O 0.81388 1.00166 0.03191 0.0
O122 O 0.74529 0.96008 0.25625 0.0
O123 O 0.88372 0.05542 0.18907 0.0
O124 O 0.82085 0.01625 0.45935 0.0
O125 O 0.79336 0.05721 0.23427 0.0
O126 O 0.86729 0.03059 0.38685 0.0
O127 O 0.85252 0.07066 0.12148 0.0
O128 O 0.77274 0.02471 0.36133 0.0
O129 O 0.84677 0.98841 0.10473 0.0
O130 O 0.79162 0.94744 0.36923 0.0
O131 O 0.75691 0.99253 0.12924 0.0
Sc132 Sc 0.67945 0.49817 0.07839 0.0
Sc133 Sc 0.69966 0.57021 0.18942 0.0
Sc134 Sc 0.65698 0.54867 0.96969 0.0
O135 O 0.67869 0.53906 0.07917 0.0
C136 C 0.70076 0.52591 0.86661 0.0
C137 C 0.74587 0.54177 0.17792 0.0
C138 C 0.71937 0.61559 0.00731 0.0
C139 C 0.65705 0.50306 0.29032 0.0
C140 C 0.61252 0.47386 0.98009 0.0
C141 C 0.63668 0.57371 0.15198 0.0
O142 O 0.70036 0.50893 0.93708 0.0
O143 O 0.74057 0.56372 0.20254 0.0
O144 O 0.69396 0.59704 0.96313 0.0
O145 O 0.65857 0.48705 0.21987 0.0
O146 O 0.61674 0.50089 0.9574 0.0
O147 O 0.66217 0.58087 0.19611 0.0
O148 O 0.63353 0.47049 0.02172 0.0
O149 O 0.67161 0.53313 0.29272 0.0
O150 O 0.62953 0.55992 0.06965 0.0
O151 O 0.72553 0.5174 0.1346 0.0
O152 O 0.68516 0.54038 0.86486 0.0
O153 O 0.72668 0.60914 0.08975 0.0
Sc154 Sc 0.52257 0.18713 0.07837 0.0
Sc155 Sc 0.45036 0.13575 0.18933 0.0
Sc156 Sc 0.47159 0.11448 0.96921 0.0
O157 O 0.48145 0.14573 0.07897 0.0
C158 C 0.49446 0.18123 0.86746 0.0
C159 C 0.47941 0.21041 0.17861 0.0
C160 C 0.4047 0.10999 0.008 0.0
C161 C 0.51748 0.15961 0.28979 0.0
C162 C 0.54643 0.14444 0.97816 0.0
C163 C 0.44667 0.06923 0.15173 0.0
O164 O 0.5117 0.19763 0.93777 0.0
O165 O 0.45708 0.18322 0.20214 0.0
O166 O 0.4232 0.10314 0.96347 0.0
O167 O 0.53362 0.17685 0.21907 0.0
O168 O 0.5193 0.12178 0.9556 0.0
O169 O 0.43961 0.08761 0.19594 0.0
O170 O 0.54997 0.16879 0.02038 0.0
O171 O 0.4874 0.14465 0.29263 0.0
O172 O 0.46035 0.07575 0.06917 0.0
O173 O 0.50382 0.2142 0.13606 0.0
O174 O 0.47985 0.15115 0.86514 0.0
O175 O 0.4113 0.12385 0.09024 0.0
Sc176 Sc 0.83241 0.34181 0.07578 0.0
Sc177 Sc 0.88416 0.32147 0.18683 0.0
Sc178 Sc 0.90539 0.36419 0.96715 0.0
O179 O 0.87405 0.34252 0.07663 0.0
C180 C 0.83884 0.32027 0.86439 0.0
C181 C 0.80955 0.27537 0.17511 0.0
C182 C 0.91015 0.30191 0.00518 0.0
C183 C 0.85942 0.36388 0.28796 0.0
C184 C 0.87492 0.40867 0.97702 0.0
C185 C 0.95064 0.38447 0.1497 0.0
O186 O 0.82229 0.3209 0.93458 0.0
O187 O 0.8368 0.28058 0.19951 0.0
O188 O 0.91697 0.3273 0.96092 0.0
O189 O 0.84207 0.36258 0.21728 0.0
O190 O 0.89772 0.40442 0.95421 0.0
O191 O 0.93227 0.35898 0.19374 0.0
O192 O 0.85062 0.3877 0.01909 0.0
O193 O 0.87493 0.34932 0.29027 0.0
O194 O 0.94406 0.39168 0.06731 0.0
O195 O 0.80555 0.29577 0.132 0.0
O196 O 0.86892 0.3358 0.86256 0.0
O197 O 0.89625 0.29455 0.08739 0.0
Sc198 Sc 0.65691 0.11452 0.46788 0.0
Sc199 Sc 0.69936 0.13588 0.68794 0.0
Sc200 Sc 0.67849 0.18722 0.5768 0.0
O201 O 0.67825 0.14582 0.57753 0.0
C202 C 0.7004 0.18119 0.36542 0.0
C203 C 0.71947 0.11034 0.50645 0.0
C204 C 0.745 0.21058 0.67617 0.0
C205 C 0.63666 0.06928 0.65032 0.0
C206 C 0.61181 0.14422 0.47803 0.0
C207 C 0.65617 0.15981 0.78859 0.0
O208 O 0.68521 0.15112 0.36358 0.0
O209 O 0.72668 0.1242 0.58871 0.0
O210 O 0.72449 0.21437 0.63298 0.0
O211 O 0.62949 0.07582 0.56785 0.0
O212 O 0.63255 0.16859 0.52033 0.0
O213 O 0.67104 0.14459 0.79113 0.0
O214 O 0.61648 0.12175 0.45458 0.0
O215 O 0.66211 0.08767 0.69448 0.0
O216 O 0.65753 0.17726 0.71814 0.0
O217 O 0.69405 0.10332 0.46209 0.0
O218 O 0.69945 0.1976 0.43554 0.0
O219 O 0.73998 0.18342 0.70087 0.0
Sc220 Sc 0.90628 0.54834 0.47139 0.0
Sc221 Sc 0.88438 0.57028 0.68621 0.0
Sc222 Sc 0.83278 0.49802 0.57685 0.0
O223 O 0.87441 0.53875 0.57826 0.0
C224 C 0.84071 0.52696 0.36529 0.0
C225 C 0.91264 0.61582 0.50942 0.0
C226 C 0.80959 0.5416 0.67263 0.0
C227 C 0.95043 0.57249 0.65271 0.0
C228 C 0.87472 0.4731 0.48021 0.0
C229 C 0.85982 0.50375 0.79012 0.0
O230 O 0.87078 0.54323 0.36725 0.0
O231 O 0.8947 0.60822 0.58362 0.0
O232 O 0.80564 0.51795 0.62509 0.0
O233 O 0.94304 0.55626 0.57469 0.0
O234 O 0.85142 0.46977 0.52848 0.0
O235 O 0.87664 0.53377 0.78993 0.0
O236 O 0.89634 0.49997 0.45145 0.0
O237 O 0.93314 0.58221 0.69058 0.0
O238 O 0.84105 0.48776 0.72184 0.0
O239 O 0.92155 0.59777 0.4727 0.0
O240 O 0.824 0.50776 0.43181 0.0
O241 O 0.83667 0.56263 0.70203 0.0
Sc242 Sc 0.47248 0.36406 0.46954 0.0
Sc243 Sc 0.45093 0.3217 0.68977 0.0
Sc244 Sc 0.52308 0.3419 0.57925 0.0
O245 O 0.48213 0.34257 0.57955 0.0
C246 C 0.49518 0.32003 0.36787 0.0
C247 C 0.40548 0.30187 0.50791 0.0
C248 C 0.47941 0.27554 0.67878 0.0
C249 C 0.44761 0.38471 0.65145 0.0
C250 C 0.54737 0.40859 0.47966 0.0
C251 C 0.51803 0.36431 0.79095 0.0
O252 O 0.48052 0.33546 0.36568 0.0
O253 O 0.41198 0.2946 0.59031 0.0
O254 O 0.50382 0.29588 0.63565 0.0
O255 O 0.46141 0.39177 0.56908 0.0
O256 O 0.55077 0.38776 0.52241 0.0
O257 O 0.48795 0.34975 0.79317 0.0
O258 O 0.52033 0.40419 0.45623 0.0
O259 O 0.44035 0.35924 0.6958 0.0
O260 O 0.53409 0.36282 0.72062 0.0
O261 O 0.42403 0.32723 0.46355 0.0
O262 O 0.51244 0.32088 0.43812 0.0
O263 O 0.45742 0.28083 0.70321 0.0
Sc264 Sc 0.34492 0.83147 0.41352 0.0
Sc265 Sc 0.36531 0.90357 0.52444 0.0
Sc266 Sc 0.32344 0.8825 0.30329 0.0
O267 O 0.34454 0.87255 0.41378 0.0
C268 C 0.36733 0.85944 0.2025 0.0
C269 C 0.41112 0.87464 0.51454 0.0
C270 C 0.38588 0.94916 0.3427 0.0
C271 C 0.32208 0.83642 0.62461 0.0
C272 C 0.27849 0.80772 0.31286 0.0
C273 C 0.3026 0.90742 0.48475 0.0
O274 O 0.36627 0.84211 0.27288 0.0
O275 O 0.40598 0.89674 0.53876 0.0
O276 O 0.36057 0.93079 0.29784 0.0
O277 O 0.32362 0.8204 0.5543 0.0
O278 O 0.28308 0.83484 0.28954 0.0
O279 O 0.32792 0.91444 0.52975 0.0
O280 O 0.29917 0.80412 0.35575 0.0
O281 O 0.33683 0.86649 0.62724 0.0
O282 O 0.29571 0.89377 0.40217 0.0
O283 O 0.39077 0.85036 0.47098 0.0
O284 O 0.35205 0.87423 0.19995 0.0
O285 O 0.39284 0.94256 0.42544 0.0
Sc286 Sc 0.11669 0.46884 0.52144 0.0
Sc287 Sc 0.13777 0.44795 0.30024 0.0
Sc288 Sc 0.18887 0.52027 0.41075 0.0
O289 O 0.14771 0.47894 0.41083 0.0
C290 C 0.14592 0.54343 0.51301 0.0
C291 C 0.07102 0.44369 0.33958 0.0
C292 C 0.16051 0.51504 0.20081 0.0
C293 C 0.11292 0.40236 0.48225 0.0
C294 C 0.18392 0.49215 0.62094 0.0
C295 C 0.21249 0.47768 0.30852 0.0
O296 O 0.12328 0.51622 0.53468 0.0
O297 O 0.08951 0.437 0.29429 0.0
O298 O 0.17752 0.53129 0.2717 0.0
O299 O 0.10608 0.42075 0.52744 0.0
O300 O 0.20009 0.50921 0.54997 0.0
O301 O 0.18534 0.45491 0.28695 0.0
O302 O 0.15384 0.4777 0.62454 0.0
O303 O 0.12627 0.40892 0.39918 0.0
O304 O 0.21609 0.50215 0.35001 0.0
O305 O 0.07756 0.45707 0.4226 0.0
O306 O 0.17046 0.54722 0.47145 0.0
O307 O 0.14635 0.48498 0.19708 0.0
Sc308 Sc 0.50052 0.6762 0.41163 0.0
Sc309 Sc 0.55171 0.65495 0.52216 0.0
Sc310 Sc 0.57282 0.69688 0.30112 0.0
O311 O 0.54173 0.67601 0.41164 0.0
C312 C 0.5058 0.65394 0.19989 0.0
C313 C 0.4769 0.60965 0.51095 0.0
C314 C 0.57668 0.63422 0.34068 0.0
C315 C 0.52811 0.69829 0.62336 0.0
C316 C 0.54384 0.74265 0.31233 0.0
C317 C 0.61848 0.71733 0.48267 0.0
O318 O 0.48972 0.65549 0.27001 0.0
O319 O 0.50403 0.61458 0.53583 0.0
O320 O 0.58372 0.65954 0.29573 0.0
O321 O 0.51059 0.69693 0.5532 0.0
O322 O 0.56586 0.73747 0.28729 0.0
O323 O 0.60005 0.69205 0.52762 0.0
O324 O 0.51957 0.72229 0.35604 0.0
O325 O 0.5434 0.6835 0.62544 0.0
O326 O 0.61183 0.72435 0.4001 0.0
O327 O 0.4732 0.63015 0.46731 0.0
O328 O 0.53588 0.6685 0.19788 0.0
O329 O 0.563 0.62729 0.42323 0.0
Sc330 Sc 0.34472 0.52053 0.90946 0.0
Sc331 Sc 0.3242 0.44813 0.80026 0.0
Sc332 Sc 0.3662 0.46969 0.02109 0.0
O333 O 0.34505 0.47941 0.91026 0.0
C334 C 0.41117 0.54451 0.01032 0.0
C335 C 0.36726 0.515 0.69849 0.0
C336 C 0.38707 0.44464 0.84016 0.0
C337 C 0.27835 0.477 0.80956 0.0
C338 C 0.32235 0.49293 0.12095 0.0
C339 C 0.30391 0.40281 0.98252 0.0
O340 O 0.39059 0.54807 0.96653 0.0
O341 O 0.35251 0.48493 0.6966 0.0
O342 O 0.39402 0.45847 0.92247 0.0
O343 O 0.29874 0.50143 0.85251 0.0
O344 O 0.33745 0.47796 0.1238 0.0
O345 O 0.2968 0.40931 0.89986 0.0
O346 O 0.32359 0.51029 0.05044 0.0
O347 O 0.28351 0.45487 0.78581 0.0
O348 O 0.32924 0.42131 0.02707 0.0
O349 O 0.36582 0.53121 0.7684 0.0
O350 O 0.40645 0.51743 0.03466 0.0
O351 O 0.36165 0.43738 0.79538 0.0
Sc352 Sc 0.57254 0.88245 0.80289 0.0
Sc353 Sc 0.55168 0.90381 0.02347 0.0
Sc354 Sc 0.50022 0.8314 0.91381 0.0
O355 O 0.54154 0.87261 0.9134 0.0
C356 C 0.50546 0.85928 0.7029 0.0
C357 C 0.5768 0.94919 0.84129 0.0
C358 C 0.47697 0.87455 0.01433 0.0
C359 C 0.61821 0.90755 0.9845 0.0
C360 C 0.54291 0.80771 0.81262 0.0
C361 C 0.52833 0.83687 0.12449 0.0
O362 O 0.53554 0.87393 0.69978 0.0
O363 O 0.56323 0.94269 0.92399 0.0
O364 O 0.47317 0.85006 0.97239 0.0
O365 O 0.61153 0.89389 0.90194 0.0
O366 O 0.51857 0.80408 0.85518 0.0
O367 O 0.54306 0.86695 0.12714 0.0
O368 O 0.56544 0.83485 0.78964 0.0
O369 O 0.59989 0.91461 0.02923 0.0
O370 O 0.51104 0.82059 0.05407 0.0
O371 O 0.58366 0.93072 0.79668 0.0
O372 O 0.48926 0.84208 0.77358 0.0
O373 O 0.50419 0.89702 0.03695 0.0
Sc374 Sc 0.13738 0.69661 0.80133 0.0
Sc375 Sc 0.11639 0.65559 0.02406 0.0
Sc376 Sc 0.18835 0.67526 0.91304 0.0
O377 O 0.14733 0.67583 0.91281 0.0
C378 C 0.16057 0.6528 0.70165 0.0
C379 C 0.07055 0.63451 0.8429 0.0
C380 C 0.14466 0.60918 0.01383 0.0
C381 C 0.11308 0.71843 0.98184 0.0
C382 C 0.21227 0.74163 0.81198 0.0
C383 C 0.18353 0.69828 0.12421 0.0
O384 O 0.14538 0.66767 0.69906 0.0
O385 O 0.07723 0.62792 0.92603 0.0
O386 O 0.16893 0.62919 0.96926 0.0
O387 O 0.12648 0.72482 0.89892 0.0
O388 O 0.21587 0.72119 0.85651 0.0
O389 O 0.15348 0.68409 0.12638 0.0
O390 O 0.18518 0.73675 0.78678 0.0
O391 O 0.10593 0.69327 0.02802 0.0
O392 O 0.19941 0.69624 0.05435 0.0
O393 O 0.08895 0.65956 0.7968 0.0
O394 O 0.17811 0.65426 0.77188 0.0
O395 O 0.123 0.61484 0.03939 0.0
C396 C 0.05757 0.17564 0.40563 0.0
C397 C 0.05879 0.19957 0.46354 0.0
H398 H 0.08315 0.15989 0.3203 0.0
C399 C 0.08731 0.22831 0.47198 0.0
H400 H 0.03594 0.15317 0.39963 0.0
C401 C 0.11497 0.23202 0.42937 0.0
C402 C 0.11428 0.20712 0.37684 0.0
H403 H 0.08874 0.24686 0.5183 0.0
H404 H 0.13703 0.25357 0.44222 0.0
C405 C 0.08488 0.17955 0.36132 0.0
C406 C 0.84246 0.91247 0.36196 0.0
C407 C 0.81476 0.91412 0.37674 0.0
H408 H 0.86894 0.89005 0.40091 0.0
C409 C 0.78981 0.88984 0.42897 0.0
H410 H 0.86218 0.93047 0.32129 0.0
C411 C 0.79356 0.86594 0.47175 0.0
C412 C 0.82237 0.86627 0.46386 0.0
H413 H 0.76817 0.89024 0.44128 0.0
H414 H 0.77492 0.84873 0.51768 0.0
C415 C 0.8464 0.88912 0.40647 0.0
C416 C 0.15535 0.93652 0.46329 0.0
C417 C 0.15383 0.96444 0.46211 0.0
H418 H 0.13209 0.88732 0.42695 0.0
C419 C 0.12979 0.96536 0.41034 0.0
H420 H 0.17348 0.93526 0.50486 0.0
C421 C 0.10651 0.93827 0.36488 0.0
C422 C 0.10618 0.90937 0.37319 0.0
H423 H 0.12794 0.9865 0.41012 0.0
H424 H 0.08752 0.9396 0.32907 0.0
C425 C 0.13151 0.90904 0.41983 0.0
C426 C 0.23092 0.08553 0.01758 0.0
C427 C 0.2028 0.05669 0.03068 0.0
H428 H 0.25565 0.13543 0.04383 0.0
C429 C 0.17975 0.05522 0.09344 0.0
H430 H 0.24875 0.08715 0.96754 0.0
C431 C 0.1838 0.08256 0.13786 0.0
C432 C 0.21054 0.11219 0.11766 0.0
H433 H 0.15772 0.03332 0.10308 0.0
H434 H 0.16475 0.08063 0.18272 0.0
C435 C 0.23474 0.11318 0.0604 0.0
C436 C 0.90764 0.12832 0.0595 0.0
C437 C 0.90882 0.10497 0.11546 0.0
H438 H 0.93341 0.16869 0.96768 0.0
C439 C 0.93853 0.10783 0.13423 0.0
H440 H 0.88533 0.127 0.04408 0.0
C441 C 0.96575 0.13131 0.08976 0.0
C442 C 0.96409 0.15308 0.02839 0.0
H443 H 0.94061 0.0906 0.17801 0.0
H444 H 0.9877 0.1312 0.09834 0.0
C445 C 0.93518 0.15233 0.01666 0.0
C446 C 0.8878 0.83934 0.09526 0.0
C447 C 0.86737 0.8168 0.02915 0.0
H448 H 0.92718 0.85403 0.18908 0.0
C449 C 0.86888 0.78917 0.01464 0.0
H450 H 0.88728 0.86099 0.10616 0.0
C451 C 0.89246 0.7854 0.05952 0.0
C452 C 0.91462 0.80917 0.12025 0.0
H453 H 0.85352 0.77173 0.96224 0.0
H454 H 0.8945 0.76496 0.04181 0.0
C455 C 0.91085 0.83532 0.14174 0.0
C456 C 0.93912 0.83716 0.63392 0.0
C457 C 0.90949 0.81024 0.61519 0.0
H458 H 0.98831 0.86311 0.59836 0.0
C459 C 0.90849 0.78576 0.55936 0.0
H460 H 0.94109 0.85644 0.67755 0.0
C461 C 0.93614 0.78939 0.51679 0.0
C462 C 0.96499 0.81761 0.52856 0.0
H463 H 0.88624 0.76472 0.54389 0.0
H464 H 0.93448 0.77129 0.4679 0.0
C465 C 0.96644 0.84101 0.58971 0.0
C466 C 0.18456 0.10961 0.63951 0.0
C467 C 0.21099 0.1062 0.61902 0.0
H468 H 0.1589 0.13318 0.60414 0.0
C469 C 0.23513 0.12891 0.56046 0.0
H470 H 0.16558 0.09288 0.68532 0.0
C471 C 0.23152 0.15273 0.51666 0.0
C472 C 0.20367 0.15394 0.53011 0.0
H473 H 0.2558 0.12715 0.54358 0.0
H474 H 0.24928 0.16854 0.46575 0.0
C475 C 0.18071 0.13291 0.59412 0.0
C476 C 0.86848 0.08535 0.51736 0.0
C477 C 0.86808 0.0566 0.52834 0.0
H478 H 0.89341 0.13516 0.54549 0.0
C479 C 0.8901 0.05512 0.58906 0.0
H480 H 0.85193 0.08699 0.46888 0.0
C481 C 0.91344 0.08238 0.63368 0.0
C482 C 0.91593 0.11196 0.61569 0.0
H483 H 0.89047 0.0333 0.59705 0.0
H484 H 0.93086 0.08044 0.67693 0.0
C485 C 0.89237 0.11294 0.56033 0.0
C486 C 0.79317 0.93367 0.9693 0.0
C487 C 0.82208 0.9621 0.9629 0.0
H488 H 0.76785 0.88406 0.93798 0.0
C489 C 0.84642 0.96327 0.90704 0.0
H490 H 0.77429 0.93223 0.01406 0.0
C491 C 0.84267 0.93603 0.86277 0.0
C492 C 0.81483 0.90671 0.87623 0.0
H493 H 0.86902 0.98481 0.90263 0.0
H494 H 0.8626 0.93773 0.82339 0.0
C495 C 0.7896 0.90607 0.92674 0.0
C496 C 0.11257 0.88917 0.92247 0.0
C497 C 0.11233 0.91453 0.87568 0.0
H498 H 0.08601 0.84685 0.00591 0.0
C499 C 0.08326 0.91378 0.86515 0.0
H500 H 0.13438 0.88884 0.93135 0.0
C501 C 0.05591 0.89013 0.90856 0.0
C502 C 0.05665 0.86607 0.96069 0.0
H503 H 0.08187 0.93266 0.82884 0.0
H504 H 0.03462 0.89172 0.90651 0.0
C505 C 0.08481 0.86495 0.96401 0.0
C506 C 0.10868 0.1793 0.86224 0.0
C507 C 0.10678 0.20685 0.87747 0.0
H508 H 0.13132 0.15302 0.90089 0.0
C509 C 0.13089 0.23176 0.93024 0.0
H510 H 0.09081 0.15962 0.82114 0.0
C511 C 0.15485 0.22811 0.97311 0.0
C512 C 0.15475 0.19943 0.96475 0.0
H513 H 0.13031 0.25329 0.94292 0.0
H514 H 0.1719 0.2467 0.01946 0.0
C515 C 0.13208 0.17546 0.90682 0.0
C516 C 0.75082 0.51493 0.6848 0.0
C517 C 0.78057 0.54164 0.70387 0.0
H518 H 0.70175 0.48894 0.72219 0.0
C519 C 0.78193 0.56582 0.76203 0.0
H520 H 0.74863 0.49586 0.63958 0.0
C521 C 0.75455 0.56206 0.80662 0.0
C522 C 0.72562 0.534 0.79455 0.0
H523 H 0.80429 0.5867 0.77779 0.0
H524 H 0.75647 0.57992 0.85706 0.0
C525 C 0.72373 0.51092 0.7311 0.0
C526 C 0.45846 0.19938 0.80976 0.0
C527 C 0.48637 0.19828 0.79643 0.0
H528 H 0.43415 0.22497 0.7834 0.0
C529 C 0.50947 0.2196 0.73331 0.0
H530 H 0.4406 0.18336 0.86006 0.0
C531 C 0.50568 0.24303 0.68867 0.0
C532 C 0.47915 0.24629 0.70902 0.0
H533 H 0.53134 0.21941 0.72346 0.0
H534 H 0.52476 0.25994 0.64351 0.0
C535 C 0.45489 0.22334 0.7667 0.0
C536 C 0.82134 0.26639 0.80539 0.0
C537 C 0.82195 0.2952 0.79304 0.0
H538 H 0.79623 0.21652 0.7786 0.0
C539 C 0.80021 0.29669 0.73105 0.0
H540 H 0.83768 0.26477 0.85484 0.0
C541 C 0.77687 0.26937 0.68666 0.0
C542 C 0.77412 0.23975 0.70614 0.0
H543 H 0.8 0.31856 0.72201 0.0
H544 H 0.75964 0.2713 0.64245 0.0
C545 C 0.79747 0.23876 0.76262 0.0
C546 C 0.84567 0.41457 0.45967 0.0
C547 C 0.87383 0.44371 0.44828 0.0
H548 H 0.81904 0.36603 0.41734 0.0
C549 C 0.89915 0.44427 0.39865 0.0
H550 H 0.82561 0.41302 0.4979 0.0
C551 C 0.89549 0.41673 0.35542 0.0
C552 C 0.86635 0.38851 0.35995 0.0
H553 H 0.92114 0.46617 0.38905 0.0
H554 H 0.91453 0.41812 0.31163 0.0
C555 C 0.84182 0.38741 0.41453 0.0
C556 C 0.60601 0.43848 0.46111 0.0
C557 C 0.57679 0.43731 0.44873 0.0
H558 H 0.65471 0.46063 0.42031 0.0
C559 C 0.57627 0.46209 0.39905 0.0
H560 H 0.6076 0.42007 0.4997 0.0
C561 C 0.60391 0.48607 0.35644 0.0
C562 C 0.63222 0.48531 0.36183 0.0
H563 H 0.55434 0.46207 0.38866 0.0
H564 H 0.60256 0.5037 0.31242 0.0
C565 C 0.63327 0.46191 0.41672 0.0
C566 C 0.58076 0.17192 0.46414 0.0
C567 C 0.58285 0.14453 0.44771 0.0
H568 H 0.55799 0.19816 0.42652 0.0
C569 C 0.55888 0.11974 0.39419 0.0
H570 H 0.5985 0.19147 0.50595 0.0
C571 C 0.53493 0.12342 0.35152 0.0
C572 C 0.53489 0.15201 0.3609 0.0
H573 H 0.55961 0.09834 0.38061 0.0
H574 H 0.51802 0.10498 0.30446 0.0
C575 C 0.55735 0.1758 0.41978 0.0
C576 C 0.57509 0.11995 0.89524 0.0
C577 C 0.57577 0.14496 0.94709 0.0
H578 H 0.60127 0.10493 0.80673 0.0
C579 C 0.60513 0.17267 0.96146 0.0
H580 H 0.55305 0.09829 0.88324 0.0
C581 C 0.6324 0.17654 0.91692 0.0
C582 C 0.63121 0.15244 0.85988 0.0
H583 H 0.60686 0.19244 0.00185 0.0
H584 H 0.65399 0.19908 0.92216 0.0
C585 C 0.60272 0.12363 0.85242 0.0
C586 C 0.89957 0.46251 0.89821 0.0
C587 C 0.87416 0.43741 0.94647 0.0
H588 H 0.91506 0.50454 0.81351 0.0
C589 C 0.84596 0.43835 0.95815 0.0
H590 H 0.9216 0.46268 0.88839 0.0
C591 C 0.84215 0.4619 0.91449 0.0
C592 C 0.86675 0.48568 0.86103 0.0
H593 H 0.82584 0.4197 -0.00434 0.0
H594 H 0.81935 0.46046 0.91759 0.0
C595 C 0.89594 0.48664 0.85642 0.0
C596 C 0.58258 0.41524 0.96182 0.0
C597 C 0.58374 0.44445 0.94956 0.0
H598 H 0.56044 0.36657 0.92084 0.0
C599 C 0.55891 0.44496 0.90016 0.0
H600 H 0.60102 0.41365 0.00026 0.0
C601 C 0.53492 0.41734 0.85753 0.0
C602 C 0.53572 0.38906 0.86265 0.0
H603 H 0.55892 0.46689 0.88988 0.0
H604 H 0.51727 0.4187 0.81364 0.0
C605 C 0.55914 0.388 0.91742 0.0
C606 C 0.50651 0.26918 0.1904 0.0
C607 C 0.47954 0.23957 0.20911 0.0
H608 H 0.53261 0.31831 0.22651 0.0
C609 C 0.45513 0.23857 0.26529 0.0
H610 H 0.52574 0.27113 0.14646 0.0
C611 C 0.45888 0.26616 0.30837 0.0
C612 C 0.48715 0.29495 0.29666 0.0
H613 H 0.43405 0.21634 0.28071 0.0
H614 H 0.44082 0.26452 0.35748 0.0
C615 C 0.51048 0.29645 0.2351 0.0
C616 C 0.75079 0.24335 0.18719 0.0
C617 C 0.78051 0.24621 0.20566 0.0
H618 H 0.70167 0.22008 0.22388 0.0
C619 C 0.78176 0.22296 0.2619 0.0
H620 H 0.74865 0.26051 0.14323 0.0
C621 C 0.75428 0.19904 0.30532 0.0
C622 C 0.72538 0.19831 0.29391 0.0
H623 H 0.80409 0.22429 0.27714 0.0
H624 H 0.75612 0.18276 0.35447 0.0
C625 C 0.72363 0.21997 0.23225 0.0
C626 C 0.82246 0.56295 0.30725 0.0
C627 C 0.82345 0.53495 0.29455 0.0
H628 H 0.79683 0.58725 0.28095 0.0
C629 C 0.80182 0.51166 0.23249 0.0
H630 H 0.83867 0.58095 0.3568 0.0
C631 C 0.77827 0.51538 0.18829 0.0
C632 C 0.77516 0.54201 0.20801 0.0
H633 H 0.80189 0.48974 0.22307 0.0
H634 H 0.76118 0.49616 0.14393 0.0
C635 C 0.79835 0.56642 0.26471 0.0
C636 C 0.39092 0.84362 0.0712 0.0
C637 C 0.39242 0.86722 0.13145 0.0
H638 H 0.41624 0.82798 0.98402 0.0
C639 C 0.42122 0.89553 0.14231 0.0
H640 H 0.36907 0.82145 0.06333 0.0
C641 C 0.44881 0.89911 0.09965 0.0
C642 C 0.4478 0.87446 0.04479 0.0
H643 H 0.42286 0.91379 0.19045 0.0
H644 H 0.47105 0.92027 0.11435 0.0
C645 C 0.4182 0.8474 0.02694 0.0
C646 C 0.12467 0.53412 0.14968 0.0
C647 C 0.15184 0.53204 0.13138 0.0
H648 H 0.10086 0.56037 0.12706 0.0
C649 C 0.17388 0.55226 0.06377 0.0
H650 H 0.10765 0.51895 0.20337 0.0
C651 C 0.16987 0.5756 0.01937 0.0
C652 C 0.14423 0.57986 0.04429 0.0
H653 H 0.19518 0.55131 0.04997 0.0
H654 H 0.18818 0.59169 0.97044 0.0
C655 C 0.1209 0.55795 0.10669 0.0
C656 C 0.44149 0.60316 0.02807 0.0
C657 C 0.43998 0.57382 0.04136 0.0
H658 H 0.46394 0.65192 0.06821 0.0
C659 C 0.4645 0.57311 0.09201 0.0
H660 H 0.42328 0.6049 0.98874 0.0
C661 C 0.48855 0.60068 0.13467 0.0
C662 C 0.48811 0.62913 0.12835 0.0
H663 H 0.46422 0.55108 0.10311 0.0
H664 H 0.50596 0.59919 0.17945 0.0
C665 C 0.46499 0.63036 0.0725 0.0
C666 C 0.56766 0.7793 0.72984 0.0
C667 C 0.54257 0.77846 0.78174 0.0
H668 H 0.58287 0.7533 0.64134 0.0
C669 C 0.51498 0.74903 0.79642 0.0
H670 H 0.58923 0.8014 0.71765 0.0
C671 C 0.51128 0.72182 0.75205 0.0
C672 C 0.53543 0.72316 0.69485 0.0
H673 H 0.49517 0.74719 0.83688 0.0
H674 H 0.48881 0.70016 0.75742 0.0
C675 C 0.56415 0.75173 0.68716 0.0
C676 C 0.26848 0.81888 0.68726 0.0
C677 C 0.29705 0.81874 0.69549 0.0
H678 H 0.21874 0.79427 0.71686 0.0
C679 C 0.29828 0.79586 0.75261 0.0
H680 H 0.26701 0.8361 0.64147 0.0
C681 C 0.27098 0.77231 0.79648 0.0
C682 C 0.24157 0.7705 0.78134 0.0
H683 H 0.31994 0.79505 0.75834 0.0
H684 H 0.27274 0.75429 0.83689 0.0
C685 C 0.24083 0.79479 0.72939 0.0
C686 C 0.22244 0.50714 0.75474 0.0
C687 C 0.20117 0.48411 0.69139 0.0
H688 H 0.26272 0.52233 0.84484 0.0
C689 C 0.20236 0.45626 0.67767 0.0
H690 H 0.2222 0.52895 0.7649 0.0
C691 C 0.22629 0.45266 0.7208 0.0
C692 C 0.24916 0.47682 0.77889 0.0
H693 H 0.18638 0.43845 0.62721 0.0
H694 H 0.22796 0.43195 0.70393 0.0
C695 C 0.24587 0.50332 0.79939 0.0
C696 C 0.27122 0.50558 0.29361 0.0
C697 C 0.24179 0.47807 0.27789 0.0
H698 H 0.32021 0.53181 0.25594 0.0
C699 C 0.24106 0.45313 0.22545 0.0
H700 H 0.27298 0.52526 0.33461 0.0
C701 C 0.26874 0.45675 0.18321 0.0
C702 C 0.29732 0.48541 0.19198 0.0
H703 H 0.21897 0.43163 0.21248 0.0
H704 H 0.26728 0.43818 0.13693 0.0
C705 C 0.29854 0.50939 0.24975 0.0
C706 C 0.51712 0.77472 0.30195 0.0
C707 C 0.54386 0.77179 0.28212 0.0
H708 H 0.4912 0.79806 0.26701 0.0
C709 C 0.56815 0.79497 0.2251 0.0
H710 H 0.49799 0.75762 0.34657 0.0
C711 C 0.56446 0.81888 0.1823 0.0
C712 C 0.53637 0.8197 0.19515 0.0
H713 H 0.58906 0.79358 0.20882 0.0
H714 H 0.58239 0.83513 0.13259 0.0
C715 C 0.51319 0.7981 0.25752 0.0
C716 C 0.22504 0.77916 0.23189 0.0
C717 C 0.24967 0.77844 0.28187 0.0
H718 H 0.18342 0.75306 0.14517 0.0
C719 C 0.24824 0.74912 0.29467 0.0
H720 H 0.22527 0.80117 0.22121 0.0
C721 C 0.2247 0.72194 0.25041 0.0
C722 C 0.20145 0.72316 0.19524 0.0
H723 H 0.26653 0.74738 0.33353 0.0
H724 H 0.22576 0.70039 0.25438 0.0
C725 C 0.20094 0.75159 0.1894 0.0
C726 C 0.17715 0.6293 0.57235 0.0
C727 C 0.15316 0.62783 0.63062 0.0
H728 H 0.19317 0.60404 0.48665 0.0
C729 C 0.1246 0.59916 0.63946 0.0
H730 H 0.19949 0.65106 0.56604 0.0
C731 C 0.12112 0.57161 0.59678 0.0
C732 C 0.1461 0.57258 0.54385 0.0
H733 H 0.10601 0.59753 0.68607 0.0
H734 H 0.09971 0.54944 0.60983 0.0
C735 C 0.17348 0.60211 0.52803 0.0
C736 C 0.42092 0.53255 0.63656 0.0
C737 C 0.39226 0.53246 0.62734 0.0
H738 H 0.47069 0.55737 0.60766 0.0
C739 C 0.39089 0.555 0.56887 0.0
H740 H 0.42247 0.51559 0.68333 0.0
C741 C 0.41816 0.57851 0.5248 0.0
C742 C 0.44767 0.58064 0.54112 0.0
H743 H 0.36914 0.55561 0.5623 0.0
H744 H 0.41631 0.5963 0.48337 0.0
C745 C 0.44854 0.55661 0.59421 0.0
C746 C 0.46341 0.89897 0.60209 0.0
C747 C 0.44022 0.87464 0.54523 0.0
H748 H 0.50361 0.9133 0.69451 0.0
C749 C 0.44315 0.84788 0.52575 0.0
H750 H 0.46202 0.91989 0.61812 0.0
C751 C 0.46656 0.84401 0.57021 0.0
C752 C 0.48819 0.86725 0.63232 0.0
H753 H 0.42604 0.82872 0.48128 0.0
H754 H 0.46654 0.82203 0.56092 0.0
C755 C 0.48735 0.89532 0.64497 0.0
C756 C 0.08968 0.34084 0.67918 0.0
C757 C 0.07434 0.31288 0.62535 0.0
H758 H 0.11399 0.39133 0.67515 0.0
C759 C 0.07586 0.31463 0.52322 0.0
H760 H 0.08885 0.34022 0.75771 0.0
C761 C 0.09064 0.34383 0.47578 0.0
C762 C 0.10358 0.37179 0.52969 0.0
H763 H 0.06443 0.29335 0.47987 0.0
H764 H 0.09004 0.34446 0.39729 0.0
C765 C 0.10388 0.37004 0.63176 0.0
C766 C 0.68044 0.75536 0.67863 0.0
C767 C 0.70833 0.76792 0.62433 0.0
H768 H 0.62993 0.72932 0.67548 0.0
C769 C 0.7064 0.76758 0.52224 0.0
H770 H 0.6812 0.75524 0.75715 0.0
C771 C 0.6771 0.75323 0.47532 0.0
C772 C 0.6492 0.73835 0.5297 0.0
H773 H 0.72761 0.77736 0.47853 0.0
H774 H 0.67633 0.75197 0.39684 0.0
C775 C 0.65115 0.74041 0.63173 0.0
C776 C 0.26409 0.9309 0.68055 0.0
C777 C 0.25142 0.94613 0.62621 0.0
H778 H 0.2904 0.90669 0.67753 0.0
C779 C 0.25185 0.94457 0.52411 0.0
H780 H 0.26418 0.93178 0.75907 0.0
C781 C 0.26638 0.92979 0.47726 0.0
C782 C 0.28138 0.9169 0.5317 0.0
H783 H 0.24202 0.95595 0.48036 0.0
H784 H 0.26769 0.93031 0.39879 0.0
C785 C 0.27923 0.91673 0.63372 0.0
C786 C 0.31674 0.07184 0.96841 0.0
C787 C 0.31481 0.07031 0.86632 0.0
H788 H 0.34681 0.0864 0.0938 0.0
C789 C 0.3427 0.08571 0.81202 0.0
H790 H 0.29553 0.06037 0.01213 0.0
C791 C 0.37199 0.10014 0.85891 0.0
C792 C 0.37394 0.10005 0.96093 0.0
H793 H 0.34194 0.0849 0.7335 0.0
H794 H 0.39322 0.11038 0.81517 0.0
C795 C 0.34603 0.08688 0.01532 0.0
C796 C 0.94757 0.25141 0.96557 0.0
C797 C 0.94957 0.2514 0.86354 0.0
H798 H 0.93276 0.26673 0.09082 0.0
C799 C 0.93474 0.26445 0.80902 0.0
H800 H 0.95863 0.24127 0.00941 0.0
C801 C 0.92045 0.27947 0.85578 0.0
C802 C 0.92009 0.28111 0.95785 0.0
H803 H 0.93596 0.26484 0.73054 0.0
H804 H 0.91065 0.29086 0.81194 0.0
C805 C 0.93266 0.26582 0.01231 0.0
C806 C 0.77019 0.70334 0.96588 0.0
C807 C 0.77003 0.70512 0.86381 0.0
H808 H 0.75493 0.67351 0.09179 0.0
C809 C 0.75684 0.67715 0.80988 0.0
H810 H 0.78046 0.72463 0.00927 0.0
C811 C 0.7418 0.64795 0.85727 0.0
C812 C 0.74027 0.64618 0.9594 0.0
H813 H 0.75631 0.6778 0.73139 0.0
H814 H 0.73028 0.62667 0.81389 0.0
C815 C 0.75575 0.67414 0.01326 0.0
C816 C 0.95978 0.66403 0.45321 0.0
C817 C 0.92707 0.64777 0.46736 0.0
H818 H 0.99981 0.70407 0.39326 0.0
C819 C 0.9091 0.66038 0.42872 0.0
H820 H 0.97411 0.6546 0.48092 0.0
C821 C 0.92393 0.68886 0.37582 0.0
C822 C 0.95685 0.70506 0.3624 0.0
H823 H 0.8837 0.64781 0.43689 0.0
H824 H 0.90987 0.69841 0.347 0.0
C825 C 0.97444 0.69226 0.40218 0.0
C826 C 0.31765 0.25139 0.46709 0.0
C827 C 0.31583 0.25141 0.36501 0.0
H828 H 0.34756 0.26667 0.59283 0.0
C829 C 0.34378 0.26437 0.31094 0.0
H830 H 0.29638 0.24129 0.51059 0.0
C831 C 0.37302 0.27932 0.35817 0.0
C832 C 0.37484 0.28099 0.46027 0.0
H833 H 0.3431 0.26478 0.23244 0.0
H834 H 0.39429 0.29068 0.31466 0.0
C835 C 0.34689 0.26574 0.51431 0.0
C836 C 0.75711 0.08614 0.30991 0.0
C837 C 0.7699 0.07102 0.36411 0.0
H838 H 0.73094 0.11049 0.31337 0.0
C839 C 0.76983 0.07284 0.46619 0.0
H840 H 0.75678 0.08509 0.23141 0.0
C841 C 0.75553 0.0878 0.51327 0.0
C842 C 0.74043 0.10062 0.45907 0.0
H843 H 0.77982 0.06157 0.50982 0.0
H844 H 0.7545 0.0875 0.59177 0.0
C845 C 0.7422 0.10051 0.35699 0.0
C846 C 0.67672 0.92953 0.97754 0.0
C847 C 0.64883 0.91698 0.03181 0.0
H848 H 0.72724 0.95539 0.98084 0.0
C849 C 0.65073 0.91706 0.13389 0.0
H850 H 0.67599 0.92983 0.89903 0.0
C851 C 0.68001 0.9312 0.18088 0.0
C852 C 0.70792 0.94612 0.12659 0.0
H853 H 0.62951 0.90726 0.17757 0.0
H854 H 0.68076 0.93231 0.25938 0.0
C855 C 0.706 0.94426 0.02452 0.0
C856 C 0.07594 0.76912 0.02051 0.0
C857 C 0.07588 0.77092 0.12252 0.0
H858 H 0.08862 0.75178 0.89527 0.0
C859 C 0.0921 0.75925 0.17643 0.0
H860 H 0.06365 0.77808 0.97725 0.0
C861 C 0.1058 0.74367 0.12955 0.0
C862 C 0.10416 0.74016 0.02788 0.0
H863 H 0.09228 0.76017 0.25495 0.0
H864 H 0.11658 0.7332 0.17318 0.0
C865 C 0.0903 0.75421 0.97348 0.0
C866 C 0.25316 0.31505 0.02364 0.0
C867 C 0.25311 0.31327 0.12574 0.0
H868 H 0.26862 0.3449 0.89777 0.0
C869 C 0.26606 0.34124 0.17966 0.0
H870 H 0.24308 0.29377 0.98025 0.0
C871 C 0.28111 0.37044 0.1323 0.0
C872 C 0.28288 0.37222 0.0302 0.0
H873 H 0.26643 0.34059 0.25817 0.0
H874 H 0.29248 0.39172 0.17571 0.0
C875 C 0.26761 0.34426 0.97628 0.0
C876 C 0.98319 0.40692 0.29935 0.0
C877 C 0.98131 0.40536 0.19724 0.0
H878 H 0.01315 0.42102 0.42496 0.0
C879 C 0.00925 0.42042 0.14313 0.0
H880 H 0.96193 0.39567 0.34293 0.0
C881 C 0.03851 0.43443 0.19023 0.0
C882 C 0.04037 0.43425 0.29229 0.0
H883 H 0.00854 0.41953 0.06461 0.0
H884 H 0.05975 0.44437 0.1466 0.0
C885 C 0.01245 0.42153 0.34647 0.0
C886 C 0.60037 0.59593 0.14494 0.0
C887 C 0.61566 0.58335 0.19933 0.0
H888 H 0.576 0.62208 0.14794 0.0
C889 C 0.61405 0.58371 0.30141 0.0
H890 H 0.60127 0.59605 0.06642 0.0
C891 C 0.59915 0.59812 0.34824 0.0
C892 C 0.58621 0.61306 0.29376 0.0
H893 H 0.62545 0.57391 0.34518 0.0
H894 H 0.59964 0.59941 0.42671 0.0
C895 C 0.58608 0.61095 0.19174 0.0
C896 C 0.42236 0.00767 0.34902 0.0
C897 C 0.40708 0.97972 0.29512 0.0
H898 H 0.44698 0.05817 0.34494 0.0
C899 C 0.40898 0.98147 0.19303 0.0
H900 H 0.42127 0.00705 0.42752 0.0
C901 C 0.42411 0.01066 0.14561 0.0
C902 C 0.43704 0.03864 0.19947 0.0
H903 H 0.39761 0.96019 0.14964 0.0
H904 H 0.4238 0.01129 0.06709 0.0
C905 C 0.43692 0.03687 0.30159 0.0
C906 C 0.59918 0.00774 0.84756 0.0
C907 C 0.58635 0.97978 0.79365 0.0
H908 H 0.62532 0.05823 0.84354 0.0
C909 C 0.58627 0.98154 0.69156 0.0
H910 H 0.59961 0.0071 0.92607 0.0
C911 C 0.6005 0.01074 0.64417 0.0
C912 C 0.61568 0.03871 0.69806 0.0
H913 H 0.57625 0.96025 0.64818 0.0
H914 H 0.60146 0.01138 0.56566 0.0
C915 C 0.61401 0.03694 0.80017 0.0
C916 C 0.01193 0.59887 0.85056 0.0
C917 C 0.03989 0.61309 0.79636 0.0
H918 H 0.9614 0.5748 0.84651 0.0
C919 C 0.03808 0.60981 0.6946 0.0
H920 H 0.01262 0.60109 0.92882 0.0
C921 C 0.00884 0.59423 0.64752 0.0
C922 C 0.9809 0.58232 0.7013 0.0
H923 H 0.05936 0.62038 0.6511 0.0
H924 H 0.00815 0.59344 0.56899 0.0
C925 C 0.98269 0.58396 0.80334 0.0
C926 C 0.43781 0.40753 0.80078 0.0
C927 C 0.43808 0.40583 0.69869 0.0
H928 H 0.42212 0.42193 0.92613 0.0
C929 C 0.42541 0.42105 0.64432 0.0
H930 H 0.44766 0.39617 0.84453 0.0
C931 C 0.41037 0.43531 0.69118 0.0
C932 C 0.40833 0.43523 0.79322 0.0
H933 H 0.42522 0.42008 0.56581 0.0
H934 H 0.39917 0.44532 0.6474 0.0
C935 C 0.42337 0.42239 0.84765 0.0
loop_
_geom_bond_atom_site_label_1
_geom_bond_atom_site_label_2
_geom_bond_distance
_geom_bond_site_symmetry_2
_ccdc_geom_bond_type
Sc0 O3 2.025 . S
Sc0 O10 2.105 . S
Sc0 O13 2.105 1_455 S
Sc0 O16 2.105 1_455 S
Sc0 O19 2.105 . S
Sc1 O3 2.025 . S
Sc1 O11 2.105 . S
Sc1 O15 2.105 1_455 S
Sc1 O17 2.105 1_455 S
Sc1 O21 2.105 . S
Sc2 O3 2.026 1_655 S
Sc2 O12 2.106 1_655 S
Sc2 O14 2.104 . S
Sc2 O18 2.103 . S
Sc2 O20 2.107 1_655 S
O3 Sc0 2.025 . S
O3 Sc1 2.025 . S
O3 Sc2 2.026 1_455 S
C4 O10 1.268 . S
C4 O20 1.268 . S
C5 O11 1.268 . S
C5 O19 1.268 . S
C6 O12 1.268 . S
C6 O21 1.268 . S
C7 O13 1.268 . S
C7 O17 1.268 . S
C8 O14 1.268 . S
C8 O16 1.268 . S
C9 O15 1.268 . S
C9 O18 1.268 . S
O10 Sc0 2.105 . S
O10 C4 1.268 . S
O11 Sc1 2.105 . S
O11 C5 1.268 . S
O12 Sc2 2.106 1_455 S
O12 C6 1.268 . S
O13 Sc0 2.105 1_655 S
O13 C7 1.268 . S
O14 Sc2 2.104 . S
O14 C8 1.268 . S
O15 Sc1 2.105 1_655 S
O15 C9 1.268 . S
O16 Sc0 2.105 1_655 S
O16 C8 1.268 . S
O17 Sc1 2.105 1_655 S
O17 C7 1.268 . S
O18 Sc2 2.103 . S
O18 C9 1.268 . S
O19 Sc0 2.105 . S
O19 C5 1.268 . S
O20 Sc2 2.107 1_455 S
O20 C4 1.268 . S
O21 Sc1 2.105 . S
O21 C6 1.268 . S
Sc22 O25 2.025 . S
Sc22 O32 2.105 . S
Sc22 O35 2.105 . S
Sc22 O38 2.105 . S
Sc22 O41 2.105 . S
Sc23 O25 2.025 . S
Sc23 O33 2.105 . S
Sc23 O37 2.105 . S
Sc23 O39 2.105 . S
Sc23 O43 2.105 . S
Sc24 O25 2.025 . S
Sc24 O34 2.105 . S
Sc24 O36 2.105 . S
Sc24 O40 2.105 . S
Sc24 O42 2.105 . S
O25 Sc22 2.025 . S
O25 Sc23 2.025 . S
O25 Sc24 2.025 . S
C26 O32 1.268 . S
C26 O42 1.268 . S
C27 O33 1.268 . S
C27 O41 1.268 . S
C28 O34 1.268 . S
C28 O43 1.268 . S
C29 O35 1.268 . S
C29 O39 1.268 . S
C30 O36 1.268 . S
C30 O38 1.268 . S
C31 O37 1.268 . S
C31 O40 1.268 . S
O32 Sc22 2.105 . S
O32 C26 1.268 . S
O33 Sc23 2.105 . S
O33 C27 1.268 . S
O34 Sc24 2.105 . S
O34 C28 1.268 . S
O35 Sc22 2.105 . S
O35 C29 1.268 . S
O36 Sc24 2.105 . S
O36 C30 1.268 . S
O37 Sc23 2.105 . S
O37 C31 1.268 . S
O38 Sc22 2.105 . S
O38 C30 1.268 . S
O39 Sc23 2.105 . S
O39 C29 1.268 . S
O40 Sc24 2.105 . S
O40 C31 1.268 . S
O41 Sc22 2.105 . S
O41 C27 1.268 . S
O42 Sc24 2.105 . S
O42 C26 1.268 . S
O43 Sc23 2.105 . S
O43 C28 1.268 . S
Sc44 O47 2.025 . S
Sc44 O54 2.105 1_545 S
Sc44 O57 2.105 . S
Sc44 O60 2.105 . S
Sc44 O63 2.105 1_545 S
Sc45 O47 2.026 1_565 S
Sc45 O55 2.104 . S
Sc45 O59 2.106 1_565 S
Sc45 O61 2.107 1_565 S
Sc45 O65 2.103 . S
Sc46 O47 2.025 . S
Sc46 O56 2.105 1_545 S
Sc46 O58 2.105 . S
Sc46 O62 2.105 . S
Sc46 O64 2.105 1_545 S
O47 Sc44 2.025 . S
O47 Sc45 2.026 1_545 S
O47 Sc46 2.025 . S
C48 O54 1.268 . S
C48 O64 1.268 . S
C49 O55 1.268 . S
C49 O63 1.268 . S
C50 O56 1.268 . S
C50 O65 1.268 . S
C51 O57 1.268 . S
C51 O61 1.268 . S
C52 O58 1.268 . S
C52 O60 1.268 . S
C53 O59 1.268 . S
C53 O62 1.268 . S
O54 Sc44 2.105 1_565 S
O54 C48 1.268 . S
O55 Sc45 2.104 . S
O55 C49 1.268 . S
O56 Sc46 2.105 1_565 S
O56 C50 1.268 . S
O57 Sc44 2.105 . S
O57 C51 1.268 . S
O58 Sc46 2.105 . S
O58 C52 1.268 . S
O59 Sc45 2.106 1_545 S
O59 C53 1.268 . S
O60 Sc44 2.105 . S
O60 C52 1.268 . S
O61 Sc45 2.107 1_545 S
O61 C51 1.268 . S
O62 Sc46 2.105 . S
O62 C53 1.268 . S
O63 Sc44 2.105 1_565 S
O63 C49 1.268 . S
O64 Sc46 2.105 1_565 S
O64 C48 1.268 . S
O65 Sc45 2.103 . S
O65 C50 1.268 . S
Sc66 O69 2.025 . S
Sc66 O76 2.105 . S
Sc66 O79 2.105 1_455 S
Sc66 O82 2.105 1_455 S
Sc66 O85 2.105 . S
Sc67 O69 2.025 1_655 S
Sc67 O77 2.106 1_655 S
Sc67 O81 2.104 . S
Sc67 O83 2.102 . S
Sc67 O87 2.107 1_655 S
Sc68 O69 2.025 . S
Sc68 O78 2.105 . S
Sc68 O80 2.105 1_455 S
Sc68 O84 2.105 1_455 S
Sc68 O86 2.105 . S
O69 Sc66 2.025 . S
O69 Sc67 2.025 1_455 S
O69 Sc68 2.025 . S
C70 O76 1.268 . S
C70 O86 1.268 . S
C71 O77 1.268 . S
C71 O85 1.268 . S
C72 O78 1.268 . S
C72 O87 1.268 . S
C73 O79 1.268 . S
C73 O83 1.268 . S
C74 O80 1.268 . S
C74 O82 1.268 . S
C75 O81 1.268 . S
C75 O84 1.268 . S
O76 Sc66 2.105 . S
O76 C70 1.268 . S
O77 Sc67 2.106 1_455 S
O77 C71 1.268 . S
O78 Sc68 2.105 . S
O78 C72 1.268 . S
O79 Sc66 2.105 1_655 S
O79 C73 1.268 . S
O80 Sc68 2.105 1_655 S
O80 C74 1.268 . S
O81 Sc67 2.104 . S
O81 C75 1.268 . S
O82 Sc66 2.105 1_655 S
O82 C74 1.268 . S
O83 Sc67 2.102 . S
O83 C73 1.268 . S
O84 Sc68 2.105 1_655 S
O84 C75 1.268 . S
O85 Sc66 2.105 . S
O85 C71 1.268 . S
O86 Sc68 2.105 . S
O86 C70 1.268 . S
O87 Sc67 2.107 1_455 S
O87 C72 1.268 . S
Sc88 O91 2.025 . S
Sc88 O98 2.105 . S
Sc88 O101 2.105 . S
Sc88 O104 2.105 . S
Sc88 O107 2.105 . S
Sc89 O91 2.025 . S
Sc89 O99 2.105 . S
Sc89 O103 2.105 . S
Sc89 O105 2.105 . S
Sc89 O109 2.105 . S
Sc90 O91 2.025 . S
Sc90 O100 2.105 . S
Sc90 O102 2.105 . S
Sc90 O106 2.105 . S
Sc90 O108 2.105 . S
O91 Sc88 2.025 . S
O91 Sc89 2.025 . S
O91 Sc90 2.025 . S
C92 O98 1.268 . S
C92 O108 1.268 . S
C93 O99 1.268 . S
C93 O107 1.268 . S
C94 O100 1.268 . S
C94 O109 1.268 . S
C95 O101 1.268 . S
C95 O105 1.268 . S
C96 O102 1.268 . S
C96 O104 1.268 . S
C97 O103 1.268 . S
C97 O106 1.268 . S
O98 Sc88 2.105 . S
O98 C92 1.268 . S
O99 Sc89 2.105 . S
O99 C93 1.268 . S
O100 Sc90 2.105 . S
O100 C94 1.268 . S
O101 Sc88 2.105 . S
O101 C95 1.268 . S
O102 Sc90 2.105 . S
O102 C96 1.268 . S
O103 Sc89 2.105 . S
O103 C97 1.268 . S
O104 Sc88 2.105 . S
O104 C96 1.268 . S
O105 Sc89 2.105 . S
O105 C95 1.268 . S
O106 Sc90 2.105 . S
O106 C97 1.268 . S
O107 Sc88 2.105 . S
O107 C93 1.268 . S
O108 Sc90 2.105 . S
O108 C92 1.268 . S
O109 Sc89 2.105 . S
O109 C94 1.268 . S
Sc110 O113 2.025 . S
Sc110 O120 2.105 1_545 S
Sc110 O123 2.105 . S
Sc110 O126 2.105 . S
Sc110 O129 2.105 1_545 S
Sc111 O113 2.025 . S
Sc111 O121 2.105 1_545 S
Sc111 O125 2.105 . S
Sc111 O127 2.105 . S
Sc111 O131 2.105 1_545 S
Sc112 O113 2.025 1_565 S
Sc112 O122 2.104 . S
Sc112 O124 2.106 1_565 S
Sc112 O128 2.107 1_565 S
Sc112 O130 2.102 . S
O113 Sc110 2.025 . S
O113 Sc111 2.025 . S
O113 Sc112 2.025 1_545 S
C114 O120 1.268 . S
C114 O130 1.268 . S
C115 O121 1.268 . S
C115 O129 1.268 . S
C116 O122 1.268 . S
C116 O131 1.268 . S
C117 O123 1.268 . S
C117 O127 1.268 . S
C118 O124 1.268 . S
C118 O126 1.268 . S
C119 O125 1.268 . S
C119 O128 1.268 . S
O120 Sc110 2.105 1_565 S
O120 C114 1.268 . S
O121 Sc111 2.105 1_565 S
O121 C115 1.268 . S
O122 Sc112 2.104 . S
O122 C116 1.268 . S
O123 Sc110 2.105 . S
O123 C117 1.268 . S
O124 Sc112 2.106 1_545 S
O124 C118 1.268 . S
O125 Sc111 2.105 . S
O125 C119 1.268 . S
O126 Sc110 2.105 . S
O126 C118 1.268 . S
O127 Sc111 2.105 . S
O127 C117 1.268 . S
O128 Sc112 2.107 1_545 S
O128 C119 1.268 . S
O129 Sc110 2.105 1_565 S
O129 C115 1.268 . S
O130 Sc112 2.102 . S
O130 C114 1.268 . S
O131 Sc111 2.105 1_565 S
O131 C116 1.268 . S
Sc132 O135 2.025 . S
Sc132 O142 2.105 1_554 S
Sc132 O145 2.105 . S
Sc132 O148 2.105 1_554 S
Sc132 O151 2.105 . S
Sc133 O135 2.025 . S
Sc133 O143 2.105 . S
Sc133 O147 2.105 . S
Sc133 O149 2.105 . S
Sc133 O153 2.105 . S
Sc134 O135 2.025 1_556 S
Sc134 O144 2.105 . S
Sc134 O146 2.105 . S
Sc134 O150 2.105 1_556 S
Sc134 O152 2.105 . S
O135 Sc132 2.025 . S
O135 Sc133 2.025 . S
O135 Sc134 2.025 1_554 S
C136 O142 1.268 . S
C136 O152 1.268 . S
C137 O143 1.268 . S
C137 O151 1.268 . S
C138 O144 1.268 1_554 S
C138 O153 1.268 . S
C139 O145 1.268 . S
C139 O149 1.268 . S
C140 O146 1.268 . S
C140 O148 1.268 . S
C141 O147 1.268 . S
C141 O150 1.268 . S
O142 Sc132 2.105 1_556 S
O142 C136 1.268 . S
O143 Sc133 2.105 . S
O143 C137 1.268 . S
O144 Sc134 2.105 . S
O144 C138 1.268 1_556 S
O145 Sc132 2.105 . S
O145 C139 1.268 . S
O146 Sc134 2.105 . S
O146 C140 1.268 . S
O147 Sc133 2.105 . S
O147 C141 1.268 . S
O148 Sc132 2.105 1_556 S
O148 C140 1.268 . S
O149 Sc133 2.105 . S
O149 C139 1.268 . S
O150 Sc134 2.105 1_554 S
O150 C141 1.268 . S
O151 Sc132 2.105 . S
O151 C137 1.268 . S
O152 Sc134 2.105 . S
O152 C136 1.268 . S
O153 Sc133 2.105 . S
O153 C138 1.268 . S
Sc154 O157 2.025 . S
Sc154 O164 2.105 1_554 S
Sc154 O167 2.105 . S
Sc154 O170 2.105 1_554 S
Sc154 O173 2.105 . S
Sc155 O157 2.025 . S
Sc155 O165 2.105 . S
Sc155 O169 2.105 . S
Sc155 O171 2.105 . S
Sc155 O175 2.105 . S
Sc156 O157 2.025 1_556 S
Sc156 O166 2.105 . S
Sc156 O168 2.105 . S
Sc156 O172 2.105 1_556 S
Sc156 O174 2.105 . S
O157 Sc154 2.025 . S
O157 Sc155 2.025 . S
O157 Sc156 2.025 1_554 S
C158 O164 1.268 . S
C158 O174 1.268 . S
C159 O165 1.268 . S
C159 O173 1.268 . S
C160 O166 1.268 1_554 S
C160 O175 1.268 . S
C161 O167 1.268 . S
C161 O171 1.268 . S
C162 O168 1.268 . S
C162 O170 1.268 . S
C163 O169 1.268 . S
C163 O172 1.268 . S
O164 Sc154 2.105 1_556 S
O164 C158 1.268 . S
O165 Sc155 2.105 . S
O165 C159 1.268 . S
O166 Sc156 2.105 . S
O166 C160 1.268 1_556 S
O167 Sc154 2.105 . S
O167 C161 1.268 . S
O168 Sc156 2.105 . S
O168 C162 1.268 . S
O169 Sc155 2.105 . S
O169 C163 1.268 . S
O170 Sc154 2.105 1_556 S
O170 C162 1.268 . S
O171 Sc155 2.105 . S
O171 C161 1.268 . S
O172 Sc156 2.105 1_554 S
O172 C163 1.268 . S
O173 Sc154 2.105 . S
O173 C159 1.268 . S
O174 Sc156 2.105 . S
O174 C158 1.268 . S
O175 Sc155 2.105 . S
O175 C160 1.268 . S
Sc176 O179 2.025 . S
Sc176 O186 2.105 1_554 S
Sc176 O189 2.105 . S
Sc176 O192 2.105 1_554 S
Sc176 O195 2.105 . S
Sc177 O179 2.025 . S
Sc177 O187 2.105 . S
Sc177 O191 2.105 . S
Sc177 O193 2.105 . S
Sc177 O197 2.105 . S
Sc178 O179 2.025 1_556 S
Sc178 O188 2.105 . S
Sc178 O190 2.105 . S
Sc178 O194 2.105 1_556 S
Sc178 O196 2.105 . S
O179 Sc176 2.025 . S
O179 Sc177 2.025 . S
O179 Sc178 2.025 1_554 S
C180 O186 1.268 . S
C180 O196 1.268 . S
C181 O187 1.268 . S
C181 O195 1.268 . S
C182 O188 1.268 1_554 S
C182 O197 1.268 . S
C183 O189 1.268 . S
C183 O193 1.268 . S
C184 O190 1.268 . S
C184 O192 1.268 . S
C185 O191 1.268 . S
C185 O194 1.268 . S
O186 Sc176 2.105 1_556 S
O186 C180 1.268 . S
O187 Sc177 2.105 . S
O187 C181 1.268 . S
O188 Sc178 2.105 . S
O188 C182 1.268 1_556 S
O189 Sc176 2.105 . S
O189 C183 1.268 . S
O190 Sc178 2.105 . S
O190 C184 1.268 . S
O191 Sc177 2.105 . S
O191 C185 1.268 . S
O192 Sc176 2.105 1_556 S
O192 C184 1.268 . S
O193 Sc177 2.105 . S
O193 C183 1.268 . S
O194 Sc178 2.105 1_554 S
O194 C185 1.268 . S
O195 Sc176 2.105 . S
O195 C181 1.268 . S
O196 Sc178 2.105 . S
O196 C180 1.268 . S
O197 Sc177 2.105 . S
O197 C182 1.268 . S
Sc198 O201 2.025 . S
Sc198 O208 2.105 . S
Sc198 O211 2.105 . S
Sc198 O214 2.105 . S
Sc198 O217 2.105 . S
Sc199 O201 2.025 . S
Sc199 O209 2.105 . S
Sc199 O213 2.105 . S
Sc199 O215 2.105 . S
Sc199 O219 2.105 . S
Sc200 O201 2.025 . S
Sc200 O210 2.105 . S
Sc200 O212 2.105 . S
Sc200 O216 2.105 . S
Sc200 O218 2.105 . S
O201 Sc198 2.025 . S
O201 Sc199 2.025 . S
O201 Sc200 2.025 . S
C202 O208 1.268 . S
C202 O218 1.268 . S
C203 O209 1.268 . S
C203 O217 1.268 . S
C204 O210 1.268 . S
C204 O219 1.268 . S
C205 O211 1.268 . S
C205 O215 1.268 . S
C206 O212 1.268 . S
C206 O214 1.268 . S
C207 O213 1.268 . S
C207 O216 1.268 . S
O208 Sc198 2.105 . S
O208 C202 1.268 . S
O209 Sc199 2.105 . S
O209 C203 1.268 . S
O210 Sc200 2.105 . S
O210 C204 1.268 . S
O211 Sc198 2.105 . S
O211 C205 1.268 . S
O212 Sc200 2.105 . S
O212 C206 1.268 . S
O213 Sc199 2.105 . S
O213 C207 1.268 . S
O214 Sc198 2.105 . S
O214 C206 1.268 . S
O215 Sc199 2.105 . S
O215 C205 1.268 . S
O216 Sc200 2.105 . S
O216 C207 1.268 . S
O217 Sc198 2.105 . S
O217 C203 1.268 . S
O218 Sc200 2.105 . S
O218 C202 1.268 . S
O219 Sc199 2.105 . S
O219 C204 1.268 . S
Sc220 O223 2.025 . S
Sc220 O230 2.105 . S
Sc220 O233 2.105 . S
Sc220 O236 2.105 . S
Sc220 O239 2.105 . S
Sc221 O223 2.025 . S
Sc221 O231 2.105 . S
Sc221 O235 2.105 . S
Sc221 O237 2.105 . S
Sc221 O241 2.105 . S
Sc222 O223 2.025 . S
Sc222 O232 2.105 . S
Sc222 O234 2.105 . S
Sc222 O238 2.105 . S
Sc222 O240 2.105 . S
O223 Sc220 2.025 . S
O223 Sc221 2.025 . S
O223 Sc222 2.025 . S
C224 O230 1.268 . S
C224 O240 1.268 . S
C225 O231 1.268 . S
C225 O239 1.268 . S
C226 O232 1.268 . S
C226 O241 1.268 . S
C227 O233 1.268 . S
C227 O237 1.268 . S
C228 O234 1.268 . S
C228 O236 1.268 . S
C229 O235 1.268 . S
C229 O238 1.268 . S
O230 Sc220 2.105 . S
O230 C224 1.268 . S
O231 Sc221 2.105 . S
O231 C225 1.268 . S
O232 Sc222 2.105 . S
O232 C226 1.268 . S
O233 Sc220 2.105 . S
O233 C227 1.268 . S
O234 Sc222 2.105 . S
O234 C228 1.268 . S
O235 Sc221 2.105 . S
O235 C229 1.268 . S
O236 Sc220 2.105 . S
O236 C228 1.268 . S
O237 Sc221 2.105 . S
O237 C227 1.268 . S
O238 Sc222 2.105 . S
O238 C229 1.268 . S
O239 Sc220 2.105 . S
O239 C225 1.268 . S
O240 Sc222 2.105 . S
O240 C224 1.268 . S
O241 Sc221 2.105 . S
O241 C226 1.268 . S
Sc242 O245 2.025 . S
Sc242 O252 2.105 . S
Sc242 O255 2.105 . S
Sc242 O258 2.105 . S
Sc242 O261 2.105 . S
Sc243 O245 2.025 . S
Sc243 O253 2.105 . S
Sc243 O257 2.105 . S
Sc243 O259 2.105 . S
Sc243 O263 2.105 . S
Sc244 O245 2.025 . S
Sc244 O254 2.105 . S
Sc244 O256 2.105 . S
Sc244 O260 2.105 . S
Sc244 O262 2.105 . S
O245 Sc242 2.025 . S
O245 Sc243 2.025 . S
O245 Sc244 2.025 . S
C246 O252 1.268 . S
C246 O262 1.268 . S
C247 O253 1.268 . S
C247 O261 1.268 . S
C248 O254 1.268 . S
C248 O263 1.268 . S
C249 O255 1.268 . S
C249 O259 1.268 . S
C250 O256 1.268 . S
C250 O258 1.268 . S
C251 O257 1.268 . S
C251 O260 1.268 . S
O252 Sc242 2.105 . S
O252 C246 1.268 . S
O253 Sc243 2.105 . S
O253 C247 1.268 . S
O254 Sc244 2.105 . S
O254 C248 1.268 . S
O255 Sc242 2.105 . S
O255 C249 1.268 . S
O256 Sc244 2.105 . S
O256 C250 1.268 . S
O257 Sc243 2.105 . S
O257 C251 1.268 . S
O258 Sc242 2.105 . S
O258 C250 1.268 . S
O259 Sc243 2.105 . S
O259 C249 1.268 . S
O260 Sc244 2.105 . S
O260 C251 1.268 . S
O261 Sc242 2.105 . S
O261 C247 1.268 . S
O262 Sc244 2.105 . S
O262 C246 1.268 . S
O263 Sc243 2.105 . S
O263 C248 1.268 . S
Sc264 O267 2.025 . S
Sc264 O274 2.105 . S
Sc264 O277 2.105 . S
Sc264 O280 2.105 . S
Sc264 O283 2.105 . S
Sc265 O267 2.025 . S
Sc265 O275 2.105 . S
Sc265 O279 2.105 . S
Sc265 O281 2.105 . S
Sc265 O285 2.105 . S
Sc266 O267 2.025 . S
Sc266 O276 2.105 . S
Sc266 O278 2.105 . S
Sc266 O282 2.105 . S
Sc266 O284 2.105 . S
O267 Sc264 2.025 . S
O267 Sc265 2.025 . S
O267 Sc266 2.025 . S
C268 O274 1.268 . S
C268 O284 1.268 . S
C269 O275 1.268 . S
C269 O283 1.268 . S
C270 O276 1.268 . S
C270 O285 1.268 . S
C271 O277 1.268 . S
C271 O281 1.268 . S
C272 O278 1.268 . S
C272 O280 1.268 . S
C273 O279 1.268 . S
C273 O282 1.268 . S
O274 Sc264 2.105 . S
O274 C268 1.268 . S
O275 Sc265 2.105 . S
O275 C269 1.268 . S
O276 Sc266 2.105 . S
O276 C270 1.268 . S
O277 Sc264 2.105 . S
O277 C271 1.268 . S
O278 Sc266 2.105 . S
O278 C272 1.268 . S
O279 Sc265 2.105 . S
O279 C273 1.268 . S
O280 Sc264 2.105 . S
O280 C272 1.268 . S
O281 Sc265 2.105 . S
O281 C271 1.268 . S
O282 Sc266 2.105 . S
O282 C273 1.268 . S
O283 Sc264 2.105 . S
O283 C269 1.268 . S
O284 Sc266 2.105 . S
O284 C268 1.268 . S
O285 Sc265 2.105 . S
O285 C270 1.268 . S
Sc286 O289 2.025 . S
Sc286 O296 2.105 . S
Sc286 O299 2.105 . S
Sc286 O302 2.105 . S
Sc286 O305 2.105 . S
Sc287 O289 2.025 . S
Sc287 O297 2.105 . S
Sc287 O301 2.105 . S
Sc287 O303 2.105 . S
Sc287 O307 2.105 . S
Sc288 O289 2.025 . S
Sc288 O298 2.105 . S
Sc288 O300 2.105 . S
Sc288 O304 2.105 . S
Sc288 O306 2.105 . S
O289 Sc286 2.025 . S
O289 Sc287 2.025 . S
O289 Sc288 2.025 . S
C290 O296 1.268 . S
C290 O306 1.268 . S
C291 O297 1.268 . S
C291 O305 1.268 . S
C292 O298 1.268 . S
C292 O307 1.268 . S
C293 O299 1.268 . S
C293 O303 1.268 . S
C294 O300 1.268 . S
C294 O302 1.268 . S
C295 O301 1.268 . S
C295 O304 1.268 . S
O296 Sc286 2.105 . S
O296 C290 1.268 . S
O297 Sc287 2.105 . S
O297 C291 1.268 . S
O298 Sc288 2.105 . S
O298 C292 1.268 . S
O299 Sc286 2.105 . S
O299 C293 1.268 . S
O300 Sc288 2.105 . S
O300 C294 1.268 . S
O301 Sc287 2.105 . S
O301 C295 1.268 . S
O302 Sc286 2.105 . S
O302 C294 1.268 . S
O303 Sc287 2.105 . S
O303 C293 1.268 . S
O304 Sc288 2.105 . S
O304 C295 1.268 . S
O305 Sc286 2.105 . S
O305 C291 1.268 . S
O306 Sc288 2.105 . S
O306 C290 1.268 . S
O307 Sc287 2.105 . S
O307 C292 1.268 . S
Sc308 O311 2.025 . S
Sc308 O318 2.105 . S
Sc308 O321 2.105 . S
Sc308 O324 2.105 . S
Sc308 O327 2.105 . S
Sc309 O311 2.025 . S
Sc309 O319 2.105 . S
Sc309 O323 2.105 . S
Sc309 O325 2.105 . S
Sc309 O329 2.105 . S
Sc310 O311 2.025 . S
Sc310 O320 2.105 . S
Sc310 O322 2.105 . S
Sc310 O326 2.105 . S
Sc310 O328 2.105 . S
O311 Sc308 2.025 . S
O311 Sc309 2.025 . S
O311 Sc310 2.025 . S
C312 O318 1.268 . S
C312 O328 1.268 . S
C313 O319 1.268 . S
C313 O327 1.268 . S
C314 O320 1.268 . S
C314 O329 1.268 . S
C315 O321 1.268 . S
C315 O325 1.268 . S
C316 O322 1.268 . S
C316 O324 1.268 . S
C317 O323 1.268 . S
C317 O326 1.268 . S
O318 Sc308 2.105 . S
O318 C312 1.268 . S
O319 Sc309 2.105 . S
O319 C313 1.268 . S
O320 Sc310 2.105 . S
O320 C314 1.268 . S
O321 Sc308 2.105 . S
O321 C315 1.268 . S
O322 Sc310 2.105 . S
O322 C316 1.268 . S
O323 Sc309 2.105 . S
O323 C317 1.268 . S
O324 Sc308 2.105 . S
O324 C316 1.268 . S
O325 Sc309 2.105 . S
O325 C315 1.268 . S
O326 Sc310 2.105 . S
O326 C317 1.268 . S
O327 Sc308 2.105 . S
O327 C313 1.268 . S
O328 Sc310 2.105 . S
O328 C312 1.268 . S
O329 Sc309 2.105 . S
O329 C314 1.268 . S
Sc330 O333 2.025 . S
Sc330 O340 2.105 1_556 S
Sc330 O343 2.105 . S
Sc330 O346 2.105 1_556 S
Sc330 O349 2.105 . S
Sc331 O333 2.025 . S
Sc331 O341 2.105 . S
Sc331 O345 2.105 . S
Sc331 O347 2.105 . S
Sc331 O351 2.105 . S
Sc332 O333 2.025 1_554 S
Sc332 O342 2.105 1_554 S
Sc332 O344 2.105 . S
Sc332 O348 2.105 . S
Sc332 O350 2.105 . S
O333 Sc330 2.025 . S
O333 Sc331 2.025 . S
O333 Sc332 2.025 1_556 S
C334 O340 1.268 . S
C334 O350 1.268 . S
C335 O341 1.268 . S
C335 O349 1.268 . S
C336 O342 1.268 . S
C336 O351 1.268 . S
C337 O343 1.268 . S
C337 O347 1.268 . S
C338 O344 1.268 . S
C338 O346 1.268 . S
C339 O345 1.268 . S
C339 O348 1.268 1_556 S
O340 Sc330 2.105 1_554 S
O340 C334 1.268 . S
O341 Sc331 2.105 . S
O341 C335 1.268 . S
O342 Sc332 2.105 1_556 S
O342 C336 1.268 . S
O343 Sc330 2.105 . S
O343 C337 1.268 . S
O344 Sc332 2.105 . S
O344 C338 1.268 . S
O345 Sc331 2.105 . S
O345 C339 1.268 . S
O346 Sc330 2.105 1_554 S
O346 C338 1.268 . S
O347 Sc331 2.105 . S
O347 C337 1.268 . S
O348 Sc332 2.105 . S
O348 C339 1.268 1_554 S
O349 Sc330 2.105 . S
O349 C335 1.268 . S
O350 Sc332 2.105 . S
O350 C334 1.268 . S
O351 Sc331 2.105 . S
O351 C336 1.268 . S
Sc352 O355 2.025 . S
Sc352 O362 2.105 . S
Sc352 O365 2.105 . S
Sc352 O368 2.105 . S
Sc352 O371 2.105 . S
Sc353 O355 2.025 1_554 S
Sc353 O363 2.105 1_554 S
Sc353 O367 2.105 . S
Sc353 O369 2.105 . S
Sc353 O373 2.105 . S
Sc354 O355 2.025 . S
Sc354 O364 2.105 1_556 S
Sc354 O366 2.105 . S
Sc354 O370 2.105 1_556 S
Sc354 O372 2.105 . S
O355 Sc352 2.025 . S
O355 Sc353 2.025 1_556 S
O355 Sc354 2.025 . S
C356 O362 1.268 . S
C356 O372 1.268 . S
C357 O363 1.268 . S
C357 O371 1.268 . S
C358 O364 1.268 . S
C358 O373 1.268 . S
C359 O365 1.268 . S
C359 O369 1.268 1_556 S
C360 O366 1.268 . S
C360 O368 1.268 . S
C361 O367 1.268 . S
C361 O370 1.268 . S
O362 Sc352 2.105 . S
O362 C356 1.268 . S
O363 Sc353 2.105 1_556 S
O363 C357 1.268 . S
O364 Sc354 2.105 1_554 S
O364 C358 1.268 . S
O365 Sc352 2.105 . S
O365 C359 1.268 . S
O366 Sc354 2.105 . S
O366 C360 1.268 . S
O367 Sc353 2.105 . S
O367 C361 1.268 . S
O368 Sc352 2.105 . S
O368 C360 1.268 . S
O369 Sc353 2.105 . S
O369 C359 1.268 1_554 S
O370 Sc354 2.105 1_554 S
O370 C361 1.268 . S
O371 Sc352 2.105 . S
O371 C357 1.268 . S
O372 Sc354 2.105 . S
O372 C356 1.268 . S
O373 Sc353 2.105 . S
O373 C358 1.268 . S
Sc374 O377 2.025 . S
Sc374 O384 2.105 . S
Sc374 O387 2.105 . S
Sc374 O390 2.105 . S
Sc374 O393 2.105 . S
Sc375 O377 2.025 1_554 S
Sc375 O385 2.105 1_554 S
Sc375 O389 2.105 . S
Sc375 O391 2.105 . S
Sc375 O395 2.105 . S
Sc376 O377 2.025 . S
Sc376 O386 2.105 1_556 S
Sc376 O388 2.105 . S
Sc376 O392 2.105 1_556 S
Sc376 O394 2.105 . S
O377 Sc374 2.025 . S
O377 Sc375 2.025 1_556 S
O377 Sc376 2.025 . S
C378 O384 1.268 . S
C378 O394 1.268 . S
C379 O385 1.268 . S
C379 O393 1.268 . S
C380 O386 1.268 . S
C380 O395 1.268 . S
C381 O387 1.268 . S
C381 O391 1.268 1_556 S
C382 O388 1.268 . S
C382 O390 1.268 . S
C383 O389 1.268 . S
C383 O392 1.268 . S
O384 Sc374 2.105 . S
O384 C378 1.268 . S
O385 Sc375 2.105 1_556 S
O385 C379 1.268 . S
O386 Sc376 2.105 1_554 S
O386 C380 1.268 . S
O387 Sc374 2.105 . S
O387 C381 1.268 . S
O388 Sc376 2.105 . S
O388 C382 1.268 . S
O389 Sc375 2.105 . S
O389 C383 1.268 . S
O390 Sc374 2.105 . S
O390 C382 1.268 . S
O391 Sc375 2.105 . S
O391 C381 1.268 1_554 S
O392 Sc376 2.105 1_554 S
O392 C383 1.268 . S
O393 Sc374 2.105 . S
O393 C379 1.268 . S
O394 Sc376 2.105 . S
O394 C378 1.268 . S
O395 Sc375 2.105 . S
O395 C380 1.268 . S
C396 C397 1.387 . S
C396 H400 0.950 . S
C396 C405 1.390 . S
C397 C396 1.387 . S
C397 C399 1.387 . S
H398 C405 0.950 . S
C399 C397 1.387 . S
C399 C401 1.390 . S
C399 H403 0.950 . S
H400 C396 0.950 . S
C401 C399 1.390 . S
C401 C402 1.387 . S
C401 H404 0.950 . S
C402 C401 1.387 . S
C402 C405 1.387 . S
H403 C399 0.950 . S
H404 C401 0.950 . S
C405 C396 1.390 . S
C405 H398 0.950 . S
C405 C402 1.387 . S
C406 C407 1.387 . S
C406 H410 0.950 . S
C406 C415 1.390 . S
C407 C406 1.387 . S
C407 C409 1.387 . S
H408 C415 0.950 . S
C409 C407 1.387 . S
C409 C411 1.390 . S
C409 H413 0.950 . S
H410 C406 0.950 . S
C411 C409 1.390 . S
C411 C412 1.387 . S
C411 H414 0.950 . S
C412 C411 1.387 . S
C412 C415 1.387 . S
H413 C409 0.950 . S
H414 C411 0.950 . S
C415 C406 1.390 . S
C415 H408 0.950 . S
C415 C412 1.387 . S
C416 C417 1.387 . S
C416 H420 0.950 . S
C416 C425 1.390 . S
C417 C416 1.387 . S
C417 C419 1.387 . S
H418 C425 0.950 . S
C419 C417 1.387 . S
C419 C421 1.390 . S
C419 H423 0.950 . S
H420 C416 0.950 . S
C421 C419 1.390 . S
C421 C422 1.387 . S
C421 H424 0.950 . S
C422 C421 1.387 . S
C422 C425 1.387 . S
H423 C419 0.950 . S
H424 C421 0.950 . S
C425 C416 1.390 . S
C425 H418 0.950 . S
C425 C422 1.387 . S
C426 C427 1.387 . S
C426 H430 0.950 . S
C426 C435 1.390 . S
C427 C426 1.387 . S
C427 C429 1.387 1_556 S
H428 C435 0.950 . S
C429 C427 1.387 1_554 S
C429 C431 1.390 . S
C429 H433 0.950 . S
H430 C426 0.950 . S
C431 C429 1.390 . S
C431 C432 1.387 . S
C431 H434 0.950 . S
C432 C431 1.387 . S
C432 C435 1.387 1_554 S
H433 C429 0.950 . S
H434 C431 0.950 . S
C435 C426 1.390 . S
C435 H428 0.950 . S
C435 C432 1.387 1_556 S
C436 C437 1.387 1_556 S
C436 H440 0.950 . S
C436 C445 1.390 . S
C437 C436 1.387 1_554 S
C437 C439 1.387 . S
H438 C445 0.950 . S
C439 C437 1.387 . S
C439 C441 1.390 . S
C439 H443 0.950 . S
H440 C436 0.950 . S
C441 C439 1.390 . S
C441 C442 1.387 1_554 S
C441 H444 0.950 . S
C442 C441 1.387 1_556 S
C442 C445 1.387 . S
H443 C439 0.950 . S
H444 C441 0.950 . S
C445 C436 1.390 . S
C445 H438 0.950 . S
C445 C442 1.387 . S
C446 C447 1.387 1_554 S
C446 H450 0.950 . S
C446 C455 1.390 . S
C447 C446 1.387 1_556 S
C447 C449 1.387 . S
H448 C455 0.950 . S
C449 C447 1.387 . S
C449 C451 1.390 1_556 S
C449 H453 0.950 . S
H450 C446 0.950 . S
C451 C449 1.390 1_554 S
C451 C452 1.387 . S
C451 H454 0.950 . S
C452 C451 1.387 . S
C452 C455 1.387 . S
H453 C449 0.950 . S
H454 C451 0.950 . S
C455 C446 1.390 . S
C455 H448 0.950 . S
C455 C452 1.387 . S
C456 C457 1.387 . S
C456 H460 0.950 . S
C456 C465 1.390 . S
C457 C456 1.387 . S
C457 C459 1.387 . S
H458 C465 0.950 . S
C459 C457 1.387 . S
C459 C461 1.390 . S
C459 H463 0.950 . S
H460 C456 0.950 . S
C461 C459 1.390 . S
C461 C462 1.387 . S
C461 H464 0.950 . S
C462 C461 1.387 . S
C462 C465 1.387 . S
H463 C459 0.950 . S
H464 C461 0.950 . S
C465 C456 1.390 . S
C465 H458 0.950 . S
C465 C462 1.387 . S
C466 C467 1.387 . S
C466 H470 0.950 . S
C466 C475 1.390 . S
C467 C466 1.387 . S
C467 C469 1.387 . S
H468 C475 0.950 . S
C469 C467 1.387 . S
C469 C471 1.390 . S
C469 H473 0.950 . S
H470 C466 0.950 . S
C471 C469 1.390 . S
C471 C472 1.387 . S
C471 H474 0.950 . S
C472 C471 1.387 . S
C472 C475 1.387 . S
H473 C469 0.950 . S
H474 C471 0.950 . S
C475 C466 1.390 . S
C475 H468 0.950 . S
C475 C472 1.387 . S
C476 C477 1.387 . S
C476 H480 0.950 . S
C476 C485 1.390 . S
C477 C476 1.387 . S
C477 C479 1.387 . S
H478 C485 0.950 . S
C479 C477 1.387 . S
C479 C481 1.390 . S
C479 H483 0.950 . S
H480 C476 0.950 . S
C481 C479 1.390 . S
C481 C482 1.387 . S
C481 H484 0.950 . S
C482 C481 1.387 . S
C482 C485 1.387 . S
H483 C479 0.950 . S
H484 C481 0.950 . S
C485 C476 1.390 . S
C485 H478 0.950 . S
C485 C482 1.387 . S
C486 C487 1.387 . S
C486 H490 0.950 . S
C486 C495 1.390 . S
C487 C486 1.387 . S
C487 C489 1.387 1_554 S
H488 C495 0.950 . S
C489 C487 1.387 1_556 S
C489 C491 1.390 . S
C489 H493 0.950 . S
H490 C486 0.950 . S
C491 C489 1.390 . S
C491 C492 1.387 . S
C491 H494 0.950 . S
C492 C491 1.387 . S
C492 C495 1.387 1_556 S
H493 C489 0.950 . S
H494 C491 0.950 . S
C495 C486 1.390 . S
C495 H488 0.950 . S
C495 C492 1.387 1_554 S
C496 C497 1.387 . S
C496 H500 0.950 . S
C496 C505 1.390 . S
C497 C496 1.387 . S
C497 C499 1.387 1_556 S
H498 C505 0.950 . S
C499 C497 1.387 1_554 S
C499 C501 1.390 . S
C499 H503 0.950 . S
H500 C496 0.950 . S
C501 C499 1.390 . S
C501 C502 1.387 . S
C501 H504 0.950 . S
C502 C501 1.387 . S
C502 C505 1.387 1_554 S
H503 C499 0.950 . S
H504 C501 0.950 . S
C505 C496 1.390 . S
C505 H498 0.950 . S
C505 C502 1.387 1_556 S
C506 C507 1.387 . S
C506 H510 0.950 . S
C506 C515 1.390 . S
C507 C506 1.387 . S
C507 C509 1.387 . S
H508 C515 0.950 . S
C509 C507 1.387 . S
C509 C511 1.390 1_556 S
C509 H513 0.950 . S
H510 C506 0.950 . S
C511 C509 1.390 1_554 S
C511 C512 1.387 . S
C511 H514 0.950 . S
C512 C511 1.387 . S
C512 C515 1.387 1_554 S
H513 C509 0.950 . S
H514 C511 0.950 . S
C515 C506 1.390 . S
C515 H508 0.950 . S
C515 C512 1.387 1_556 S
C516 C517 1.387 . S
C516 H520 0.950 . S
C516 C525 1.390 . S
C517 C516 1.387 . S
C517 C519 1.387 . S
H518 C525 0.950 . S
C519 C517 1.387 . S
C519 C521 1.390 . S
C519 H523 0.950 . S
H520 C516 0.950 . S
C521 C519 1.390 . S
C521 C522 1.387 . S
C521 H524 0.950 . S
C522 C521 1.387 . S
C522 C525 1.387 . S
H523 C519 0.950 . S
H524 C521 0.950 . S
C525 C516 1.390 . S
C525 H518 0.950 . S
C525 C522 1.387 . S
C526 C527 1.387 . S
C526 H530 0.950 . S
C526 C535 1.390 . S
C527 C526 1.387 . S
C527 C529 1.387 . S
H528 C535 0.950 . S
C529 C527 1.387 . S
C529 C531 1.390 . S
C529 H533 0.950 . S
H530 C526 0.950 . S
C531 C529 1.390 . S
C531 C532 1.387 . S
C531 H534 0.950 . S
C532 C531 1.387 . S
C532 C535 1.387 . S
H533 C529 0.950 . S
H534 C531 0.950 . S
C535 C526 1.390 . S
C535 H528 0.950 . S
C535 C532 1.387 . S
C536 C537 1.387 . S
C536 H540 0.950 . S
C536 C545 1.390 . S
C537 C536 1.387 . S
C537 C539 1.387 . S
H538 C545 0.950 . S
C539 C537 1.387 . S
C539 C541 1.390 . S
C539 H543 0.950 . S
H540 C536 0.950 . S
C541 C539 1.390 . S
C541 C542 1.387 . S
C541 H544 0.950 . S
C542 C541 1.387 . S
C542 C545 1.387 . S
H543 C539 0.950 . S
H544 C541 0.950 . S
C545 C536 1.390 . S
C545 H538 0.950 . S
C545 C542 1.387 . S
C546 C547 1.387 . S
C546 H550 0.950 . S
C546 C555 1.390 . S
C547 C546 1.387 . S
C547 C549 1.387 . S
H548 C555 0.950 . S
C549 C547 1.387 . S
C549 C551 1.390 . S
C549 H553 0.950 . S
H550 C546 0.950 . S
C551 C549 1.390 . S
C551 C552 1.387 . S
C551 H554 0.950 . S
C552 C551 1.387 . S
C552 C555 1.387 . S
H553 C549 0.950 . S
H554 C551 0.950 . S
C555 C546 1.390 . S
C555 H548 0.950 . S
C555 C552 1.387 . S
C556 C557 1.387 . S
C556 H560 0.950 . S
C556 C565 1.390 . S
C557 C556 1.387 . S
C557 C559 1.387 . S
H558 C565 0.950 . S
C559 C557 1.387 . S
C559 C561 1.390 . S
C559 H563 0.950 . S
H560 C556 0.950 . S
C561 C559 1.390 . S
C561 C562 1.387 . S
C561 H564 0.950 . S
C562 C561 1.387 . S
C562 C565 1.387 . S
H563 C559 0.950 . S
H564 C561 0.950 . S
C565 C556 1.390 . S
C565 H558 0.950 . S
C565 C562 1.387 . S
C566 C567 1.387 . S
C566 H570 0.950 . S
C566 C575 1.390 . S
C567 C566 1.387 . S
C567 C569 1.387 . S
H568 C575 0.950 . S
C569 C567 1.387 . S
C569 C571 1.390 . S
C569 H573 0.950 . S
H570 C566 0.950 . S
C571 C569 1.390 . S
C571 C572 1.387 . S
C571 H574 0.950 . S
C572 C571 1.387 . S
C572 C575 1.387 . S
H573 C569 0.950 . S
H574 C571 0.950 . S
C575 C566 1.390 . S
C575 H568 0.950 . S
C575 C572 1.387 . S
C576 C577 1.387 . S
C576 H580 0.950 . S
C576 C585 1.390 . S
C577 C576 1.387 . S
C577 C579 1.387 . S
H578 C585 0.950 . S
C579 C577 1.387 . S
C579 C581 1.390 . S
C579 H583 0.950 . S
H580 C576 0.950 . S
C581 C579 1.390 . S
C581 C582 1.387 . S
C581 H584 0.950 . S
C582 C581 1.387 . S
C582 C585 1.387 . S
H583 C579 0.950 . S
H584 C581 0.950 . S
C585 C576 1.390 . S
C585 H578 0.950 . S
C585 C582 1.387 . S
C586 C587 1.387 . S
C586 H590 0.950 . S
C586 C595 1.390 . S
C587 C586 1.387 . S
C587 C589 1.387 . S
H588 C595 0.950 . S
C589 C587 1.387 . S
C589 C591 1.390 . S
C589 H593 0.950 1_556 S
H590 C586 0.950 . S
C591 C589 1.390 . S
C591 C592 1.387 . S
C591 H594 0.950 . S
C592 C591 1.387 . S
C592 C595 1.387 . S
H593 C589 0.950 1_554 S
H594 C591 0.950 . S
C595 C586 1.390 . S
C595 H588 0.950 . S
C595 C592 1.387 . S
C596 C597 1.387 . S
C596 H600 0.950 1_556 S
C596 C605 1.390 . S
C597 C596 1.387 . S
C597 C599 1.387 . S
H598 C605 0.950 . S
C599 C597 1.387 . S
C599 C601 1.390 . S
C599 H603 0.950 . S
H600 C596 0.950 1_554 S
C601 C599 1.390 . S
C601 C602 1.387 . S
C601 H604 0.950 . S
C602 C601 1.387 . S
C602 C605 1.387 . S
H603 C599 0.950 . S
H604 C601 0.950 . S
C605 C596 1.390 . S
C605 H598 0.950 . S
C605 C602 1.387 . S
C606 C607 1.387 . S
C606 H610 0.950 . S
C606 C615 1.390 . S
C607 C606 1.387 . S
C607 C609 1.387 . S
H608 C615 0.950 . S
C609 C607 1.387 . S
C609 C611 1.390 . S
C609 H613 0.950 . S
H610 C606 0.950 . S
C611 C609 1.390 . S
C611 C612 1.387 . S
C611 H614 0.950 . S
C612 C611 1.387 . S
C612 C615 1.387 . S
H613 C609 0.950 . S
H614 C611 0.950 . S
C615 C606 1.390 . S
C615 H608 0.950 . S
C615 C612 1.387 . S
C616 C617 1.387 . S
C616 H620 0.950 . S
C616 C625 1.390 . S
C617 C616 1.387 . S
C617 C619 1.387 . S
H618 C625 0.950 . S
C619 C617 1.387 . S
C619 C621 1.390 . S
C619 H623 0.950 . S
H620 C616 0.950 . S
C621 C619 1.390 . S
C621 C622 1.387 . S
C621 H624 0.950 . S
C622 C621 1.387 . S
C622 C625 1.387 . S
H623 C619 0.950 . S
H624 C621 0.950 . S
C625 C616 1.390 . S
C625 H618 0.950 . S
C625 C622 1.387 . S
C626 C627 1.387 . S
C626 H630 0.950 . S
C626 C635 1.390 . S
C627 C626 1.387 . S
C627 C629 1.387 . S
H628 C635 0.950 . S
C629 C627 1.387 . S
C629 C631 1.390 . S
C629 H633 0.950 . S
H630 C626 0.950 . S
C631 C629 1.390 . S
C631 C632 1.387 . S
C631 H634 0.950 . S
C632 C631 1.387 . S
C632 C635 1.387 . S
H633 C629 0.950 . S
H634 C631 0.950 . S
C635 C626 1.390 . S
C635 H628 0.950 . S
C635 C632 1.387 . S
C636 C637 1.387 . S
C636 H640 0.950 . S
C636 C645 1.390 . S
C637 C636 1.387 . S
C637 C639 1.387 . S
H638 C645 0.950 . S
C639 C637 1.387 . S
C639 C641 1.390 . S
C639 H643 0.950 . S
H640 C636 0.950 . S
C641 C639 1.390 . S
C641 C642 1.387 . S
C641 H644 0.950 . S
C642 C641 1.387 . S
C642 C645 1.387 . S
H643 C639 0.950 . S
H644 C641 0.950 . S
C645 C636 1.390 . S
C645 H638 0.950 . S
C645 C642 1.387 . S
C646 C647 1.387 . S
C646 H650 0.950 . S
C646 C655 1.390 . S
C647 C646 1.387 . S
C647 C649 1.387 . S
H648 C655 0.950 . S
C649 C647 1.387 . S
C649 C651 1.390 . S
C649 H653 0.950 . S
H650 C646 0.950 . S
C651 C649 1.390 . S
C651 C652 1.387 . S
C651 H654 0.951 . S
C652 C651 1.387 . S
C652 C655 1.387 . S
H653 C649 0.950 . S
H654 C651 0.951 . S
C655 C646 1.390 . S
C655 H648 0.950 . S
C655 C652 1.387 . S
C656 C657 1.387 . S
C656 H660 0.950 . S
C656 C665 1.390 . S
C657 C656 1.387 . S
C657 C659 1.387 . S
H658 C665 0.950 . S
C659 C657 1.387 . S
C659 C661 1.390 . S
C659 H663 0.950 1_554 S
H660 C656 0.950 . S
C661 C659 1.390 . S
C661 C662 1.387 . S
C661 H664 0.950 . S
C662 C661 1.387 . S
C662 C665 1.387 . S
H663 C659 0.950 1_556 S
H664 C661 0.950 . S
C665 C656 1.390 . S
C665 H658 0.950 . S
C665 C662 1.387 . S
C666 C667 1.387 . S
C666 H670 0.950 . S
C666 C675 1.390 . S
C667 C666 1.387 . S
C667 C669 1.387 . S
H668 C675 0.950 . S
C669 C667 1.387 . S
C669 C671 1.390 . S
C669 H673 0.950 . S
H670 C666 0.950 . S
C671 C669 1.390 . S
C671 C672 1.387 . S
C671 H674 0.950 . S
C672 C671 1.387 . S
C672 C675 1.387 . S
H673 C669 0.950 . S
H674 C671 0.950 . S
C675 C666 1.390 . S
C675 H668 0.950 . S
C675 C672 1.387 . S
C676 C677 1.387 . S
C676 H680 0.950 . S
C676 C685 1.390 . S
C677 C676 1.387 . S
C677 C679 1.387 . S
H678 C685 0.950 . S
C679 C677 1.387 . S
C679 C681 1.390 . S
C679 H683 0.950 . S
H680 C676 0.950 . S
C681 C679 1.390 . S
C681 C682 1.387 . S
C681 H684 0.950 . S
C682 C681 1.387 . S
C682 C685 1.387 . S
H683 C679 0.950 . S
H684 C681 0.950 . S
C685 C676 1.390 . S
C685 H678 0.950 . S
C685 C682 1.387 . S
C686 C687 1.387 . S
C686 H690 0.950 . S
C686 C695 1.390 . S
C687 C686 1.387 . S
C687 C689 1.387 . S
H688 C695 0.950 . S
C689 C687 1.387 . S
C689 C691 1.390 . S
C689 H693 0.950 . S
H690 C686 0.950 . S
C691 C689 1.390 . S
C691 C692 1.387 . S
C691 H694 0.950 . S
C692 C691 1.387 . S
C692 C695 1.387 . S
H693 C689 0.950 . S
H694 C691 0.950 . S
C695 C686 1.390 . S
C695 H688 0.950 . S
C695 C692 1.387 . S
C696 C697 1.387 . S
C696 H700 0.950 . S
C696 C705 1.390 . S
C697 C696 1.387 . S
C697 C699 1.387 . S
H698 C705 0.950 . S
C699 C697 1.387 . S
C699 C701 1.390 . S
C699 H703 0.950 . S
H700 C696 0.950 . S
C701 C699 1.390 . S
C701 C702 1.387 . S
C701 H704 0.950 . S
C702 C701 1.387 . S
C702 C705 1.387 . S
H703 C699 0.950 . S
H704 C701 0.950 . S
C705 C696 1.390 . S
C705 H698 0.950 . S
C705 C702 1.387 . S
C706 C707 1.387 . S
C706 H710 0.950 . S
C706 C715 1.390 . S
C707 C706 1.387 . S
C707 C709 1.387 . S
H708 C715 0.950 . S
C709 C707 1.387 . S
C709 C711 1.390 . S
C709 H713 0.950 . S
H710 C706 0.950 . S
C711 C709 1.390 . S
C711 C712 1.387 . S
C711 H714 0.950 . S
C712 C711 1.387 . S
C712 C715 1.387 . S
H713 C709 0.950 . S
H714 C711 0.950 . S
C715 C706 1.390 . S
C715 H708 0.950 . S
C715 C712 1.387 . S
C716 C717 1.387 . S
C716 H720 0.950 . S
C716 C725 1.390 . S
C717 C716 1.387 . S
C717 C719 1.387 . S
H718 C725 0.950 . S
C719 C717 1.387 . S
C719 C721 1.390 . S
C719 H723 0.950 . S
H720 C716 0.950 . S
C721 C719 1.390 . S
C721 C722 1.387 . S
C721 H724 0.950 . S
C722 C721 1.387 . S
C722 C725 1.387 . S
H723 C719 0.950 . S
H724 C721 0.950 . S
C725 C716 1.390 . S
C725 H718 0.950 . S
C725 C722 1.387 . S
C726 C727 1.387 . S
C726 H730 0.950 . S
C726 C735 1.390 . S
C727 C726 1.387 . S
C727 C729 1.387 . S
H728 C735 0.950 . S
C729 C727 1.387 . S
C729 C731 1.390 . S
C729 H733 0.950 . S
H730 C726 0.950 . S
C731 C729 1.390 . S
C731 C732 1.387 . S
C731 H734 0.950 . S
C732 C731 1.387 . S
C732 C735 1.387 . S
H733 C729 0.950 . S
H734 C731 0.950 . S
C735 C726 1.390 . S
C735 H728 0.950 . S
C735 C732 1.387 . S
C736 C737 1.387 . S
C736 H740 0.950 . S
C736 C745 1.390 . S
C737 C736 1.387 . S
C737 C739 1.387 . S
H738 C745 0.950 . S
C739 C737 1.387 . S
C739 C741 1.390 . S
C739 H743 0.950 . S
H740 C736 0.950 . S
C741 C739 1.390 . S
C741 C742 1.387 . S
C741 H744 0.950 . S
C742 C741 1.387 . S
C742 C745 1.387 . S
H743 C739 0.950 . S
H744 C741 0.950 . S
C745 C736 1.390 . S
C745 H738 0.950 . S
C745 C742 1.387 . S
C746 C747 1.387 . S
C746 H750 0.950 . S
C746 C755 1.390 . S
C747 C746 1.387 . S
C747 C749 1.387 . S
H748 C755 0.950 . S
C749 C747 1.387 . S
C749 C751 1.390 . S
C749 H753 0.950 . S
H750 C746 0.950 . S
C751 C749 1.390 . S
C751 C752 1.387 . S
C751 H754 0.950 . S
C752 C751 1.387 . S
C752 C755 1.387 . S
H753 C749 0.950 . S
H754 C751 0.950 . S
C755 C746 1.390 . S
C755 H748 0.950 . S
C755 C752 1.387 . S
C756 C757 1.387 . S
C756 H760 0.950 . S
C756 C765 1.390 . S
C757 C756 1.387 . S
C757 C759 1.387 . S
H758 C765 0.950 . S
C759 C757 1.387 . S
C759 C761 1.390 . S
C759 H763 0.950 . S
H760 C756 0.950 . S
C761 C759 1.390 . S
C761 C762 1.387 . S
C761 H764 0.950 . S
C762 C761 1.387 . S
C762 C765 1.387 . S
H763 C759 0.950 . S
H764 C761 0.950 . S
C765 C756 1.390 . S
C765 H758 0.950 . S
C765 C762 1.387 . S
C766 C767 1.387 . S
C766 H770 0.950 . S
C766 C775 1.390 . S
C767 C766 1.387 . S
C767 C769 1.387 . S
H768 C775 0.950 . S
C769 C767 1.387 . S
C769 C771 1.390 . S
C769 H773 0.950 . S
H770 C766 0.950 . S
C771 C769 1.390 . S
C771 C772 1.387 . S
C771 H774 0.950 . S
C772 C771 1.387 . S
C772 C775 1.387 . S
H773 C769 0.950 . S
H774 C771 0.950 . S
C775 C766 1.390 . S
C775 H768 0.950 . S
C775 C772 1.387 . S
C776 C777 1.387 . S
C776 H780 0.950 . S
C776 C785 1.390 . S
C777 C776 1.387 . S
C777 C779 1.387 . S
H778 C785 0.950 . S
C779 C777 1.387 . S
C779 C781 1.390 . S
C779 H783 0.950 . S
H780 C776 0.950 . S
C781 C779 1.390 . S
C781 C782 1.387 . S
C781 H784 0.950 . S
C782 C781 1.387 . S
C782 C785 1.387 . S
H783 C779 0.950 . S
H784 C781 0.950 . S
C785 C776 1.390 . S
C785 H778 0.950 . S
C785 C782 1.387 . S
C786 C787 1.387 . S
C786 H790 0.950 . S
C786 C795 1.390 . S
C787 C786 1.387 . S
C787 C789 1.387 . S
H788 C795 0.950 1_554 S
C789 C787 1.387 . S
C789 C791 1.390 . S
C789 H793 0.950 . S
H790 C786 0.950 . S
C791 C789 1.390 . S
C791 C792 1.387 . S
C791 H794 0.950 . S
C792 C791 1.387 . S
C792 C795 1.387 . S
H793 C789 0.950 . S
H794 C791 0.950 . S
C795 C786 1.390 . S
C795 H788 0.950 1_556 S
C795 C792 1.387 . S
C796 C797 1.387 . S
C796 H800 0.950 . S
C796 C805 1.390 . S
C797 C796 1.387 . S
C797 C799 1.387 . S
H798 C805 0.950 1_554 S
C799 C797 1.387 . S
C799 C801 1.390 . S
C799 H803 0.950 . S
H800 C796 0.950 . S
C801 C799 1.390 . S
C801 C802 1.387 . S
C801 H804 0.950 . S
C802 C801 1.387 . S
C802 C805 1.387 . S
H803 C799 0.950 . S
H804 C801 0.950 . S
C805 C796 1.390 . S
C805 H798 0.950 1_556 S
C805 C802 1.387 . S
C806 C807 1.387 . S
C806 H810 0.950 . S
C806 C815 1.390 . S
C807 C806 1.387 . S
C807 C809 1.387 . S
H808 C815 0.950 . S
C809 C807 1.387 . S
C809 C811 1.390 . S
C809 H813 0.950 . S
H810 C806 0.950 . S
C811 C809 1.390 . S
C811 C812 1.387 . S
C811 H814 0.950 . S
C812 C811 1.387 . S
C812 C815 1.387 . S
H813 C809 0.950 . S
H814 C811 0.950 . S
C815 C806 1.390 . S
C815 H808 0.950 . S
C815 C812 1.387 . S
C816 C817 1.387 . S
C816 H820 0.950 . S
C816 C825 1.390 . S
C817 C816 1.387 . S
C817 C819 1.387 . S
H818 C825 0.950 . S
C819 C817 1.387 . S
C819 C821 1.390 . S
C819 H823 0.950 . S
H820 C816 0.950 . S
C821 C819 1.390 . S
C821 C822 1.387 . S
C821 H824 0.950 . S
C822 C821 1.387 . S
C822 C825 1.387 . S
H823 C819 0.950 . S
H824 C821 0.950 . S
C825 C816 1.390 . S
C825 H818 0.950 . S
C825 C822 1.387 . S
C826 C827 1.387 . S
C826 H830 0.950 . S
C826 C835 1.390 . S
C827 C826 1.387 . S
C827 C829 1.387 . S
H828 C835 0.950 . S
C829 C827 1.387 . S
C829 C831 1.390 . S
C829 H833 0.950 . S
H830 C826 0.950 . S
C831 C829 1.390 . S
C831 C832 1.387 . S
C831 H834 0.950 . S
C832 C831 1.387 . S
C832 C835 1.387 . S
H833 C829 0.950 . S
H834 C831 0.950 . S
C835 C826 1.390 . S
C835 H828 0.950 . S
C835 C832 1.387 . S
C836 C837 1.387 . S
C836 H840 0.950 . S
C836 C845 1.390 . S
C837 C836 1.387 . S
C837 C839 1.387 . S
H838 C845 0.950 . S
C839 C837 1.387 . S
C839 C841 1.390 . S
C839 H843 0.950 . S
H840 C836 0.950 . S
C841 C839 1.390 . S
C841 C842 1.387 . S
C841 H844 0.950 . S
C842 C841 1.387 . S
C842 C845 1.387 . S
H843 C839 0.950 . S
H844 C841 0.950 . S
C845 C836 1.390 . S
C845 H838 0.950 . S
C845 C842 1.387 . S
C846 C847 1.387 . S
C846 H850 0.946 1_554 S
C846 C855 1.390 . S
C847 C846 1.387 . S
C847 C849 1.387 . S
H848 C855 0.950 . S
C849 C847 1.387 . S
C849 C851 1.390 . S
C849 H853 0.950 . S
H850 C846 0.946 1_556 S
C851 C849 1.390 . S
C851 C852 1.387 . S
C851 H854 0.950 . S
C852 C851 1.387 . S
C852 C855 1.387 . S
H853 C849 0.950 . S
H854 C851 0.950 . S
C855 C846 1.390 . S
C855 H848 0.950 . S
C855 C852 1.387 . S
C856 C857 1.387 . S
C856 H860 0.950 . S
C856 C865 1.390 . S
C857 C856 1.387 . S
C857 C859 1.387 . S
H858 C865 0.950 1_556 S
C859 C857 1.387 . S
C859 C861 1.390 . S
C859 H863 0.950 . S
H860 C856 0.950 . S
C861 C859 1.390 . S
C861 C862 1.387 . S
C861 H864 0.950 . S
C862 C861 1.387 . S
C862 C865 1.387 . S
H863 C859 0.950 . S
H864 C861 0.950 . S
C865 C856 1.390 . S
C865 H858 0.950 1_554 S
C865 C862 1.387 . S
C866 C867 1.387 . S
C866 H870 0.950 . S
C866 C875 1.390 . S
C867 C866 1.387 . S
C867 C869 1.387 . S
H868 C875 0.950 . S
C869 C867 1.387 . S
C869 C871 1.390 . S
C869 H873 0.950 . S
H870 C866 0.950 . S
C871 C869 1.390 . S
C871 C872 1.387 . S
C871 H874 0.950 . S
C872 C871 1.387 . S
C872 C875 1.387 . S
H873 C869 0.950 . S
H874 C871 0.950 . S
C875 C866 1.390 . S
C875 H868 0.950 . S
C875 C872 1.387 . S
C876 C877 1.387 . S
C876 H880 0.950 . S
C876 C885 1.390 1_655 S
C877 C876 1.387 . S
C877 C879 1.387 1_655 S
H878 C885 0.950 . S
C879 C877 1.387 1_455 S
C879 C881 1.390 . S
C879 H883 0.950 . S
H880 C876 0.950 . S
C881 C879 1.390 . S
C881 C882 1.387 . S
C881 H884 0.950 . S
C882 C881 1.387 . S
C882 C885 1.387 . S
H883 C879 0.950 . S
H884 C881 0.950 . S
C885 C876 1.390 1_455 S
C885 H878 0.950 . S
C885 C882 1.387 . S
C886 C887 1.387 . S
C886 H890 0.950 . S
C886 C895 1.390 . S
C887 C886 1.387 . S
C887 C889 1.387 . S
H888 C895 0.950 . S
C889 C887 1.387 . S
C889 C891 1.390 . S
C889 H893 0.950 . S
H890 C886 0.950 . S
C891 C889 1.390 . S
C891 C892 1.387 . S
C891 H894 0.950 . S
C892 C891 1.387 . S
C892 C895 1.387 . S
H893 C889 0.950 . S
H894 C891 0.950 . S
C895 C886 1.390 . S
C895 H888 0.950 . S
C895 C892 1.387 . S
C896 C897 1.387 . S
C896 H900 0.950 . S
C896 C905 1.390 1_565 S
C897 C896 1.387 . S
C897 C899 1.387 . S
H898 C905 0.950 . S
C899 C897 1.387 . S
C899 C901 1.390 1_565 S
C899 H903 0.950 . S
H900 C896 0.950 . S
C901 C899 1.390 1_545 S
C901 C902 1.387 . S
C901 H904 0.950 . S
C902 C901 1.387 . S
C902 C905 1.387 . S
H903 C899 0.950 . S
H904 C901 0.950 . S
C905 C896 1.390 1_545 S
C905 H898 0.950 . S
C905 C902 1.387 . S
C906 C907 1.387 . S
C906 H910 0.950 . S
C906 C915 1.390 1_565 S
C907 C906 1.387 . S
C907 C909 1.387 . S
H908 C915 0.950 . S
C909 C907 1.387 . S
C909 C911 1.390 1_565 S
C909 H913 0.950 . S
H910 C906 0.950 . S
C911 C909 1.390 1_545 S
C911 C912 1.387 . S
C911 H914 0.950 . S
C912 C911 1.387 . S
C912 C915 1.387 . S
H913 C909 0.950 . S
H914 C911 0.950 . S
C915 C906 1.390 1_545 S
C915 H908 0.950 . S
C915 C912 1.387 . S
C916 C917 1.387 . S
C916 H920 0.951 . S
C916 C925 1.390 1_455 S
C917 C916 1.387 . S
C917 C919 1.387 . S
H918 C925 0.950 . S
C919 C917 1.387 . S
C919 C921 1.390 . S
C919 H923 0.950 . S
H920 C916 0.951 . S
C921 C919 1.390 . S
C921 C922 1.387 1_455 S
C921 H924 0.950 . S
C922 C921 1.387 1_655 S
C922 C925 1.387 . S
H923 C919 0.950 . S
H924 C921 0.950 . S
C925 C916 1.390 1_655 S
C925 H918 0.950 . S
C925 C922 1.387 . S
C926 C927 1.387 . S
C926 H930 0.950 . S
C926 C935 1.390 . S
C927 C926 1.387 . S
C927 C929 1.387 . S
H928 C935 0.950 . S
C929 C927 1.387 . S
C929 C931 1.390 . S
C929 H933 0.950 . S
H930 C926 0.950 . S
C931 C929 1.390 . S
C931 C932 1.387 . S
C931 H934 0.950 . S
C932 C931 1.387 . S
C932 C935 1.387 . S
H933 C929 0.950 . S
H934 C931 0.950 . S
C935 C926 1.390 . S
C935 H928 0.950 . S
C935 C932 1.387 . S
C397 C4 1.403 . S
C402 C94 1.391 . S
C407 C114 1.391 . S
C412 C28 1.403 . S
C417 C48 1.404 . S
C422 C70 1.390 . S
C427 C51 1.403 . S
C432 C96 1.389 . S
C437 C117 1.390 . S
C442 C7 1.404 . S
C447 C30 1.403 . S
C452 C73 1.391 . S
C457 C31 1.391 . S
C462 C74 1.404 . S
C467 C52 1.390 . S
C472 C97 1.403 . S
C477 C118 1.403 . S
C482 C8 1.392 . S
C487 C115 1.403 . S
C492 C26 1.391 . S
C497 C49 1.390 . S
C502 C71 1.403 . S
C507 C5 1.390 . S
C512 C92 1.404 . S
C517 C226 1.390 . S
C522 C136 1.403 . S
C527 C158 1.404 . S
C532 C248 1.389 . S
C537 C180 1.404 . S
C542 C204 1.391 . S
C547 C228 1.390 . S
C552 C183 1.403 . S
C557 C250 1.392 . S
C562 C139 1.403 . S
C567 C206 1.391 . S
C572 C161 1.403 . S
C577 C162 1.390 . S
C582 C207 1.403 . S
C587 C184 1.391 . S
C592 C229 1.403 . S
C597 C140 1.389 . S
C602 C251 1.404 . S
C607 C159 1.389 . S
C612 C246 1.404 . S
C617 C181 1.390 . S
C622 C202 1.404 . S
C627 C224 1.403 . S
C632 C137 1.391 . S
C637 C268 1.403 . S
C642 C358 1.391 . S
C647 C292 1.403 . S
C652 C380 1.390 . S
C657 C334 1.390 . S
C662 C312 1.403 . S
C667 C360 1.391 . S
C672 C315 1.403 . S
C677 C271 1.403 . S
C682 C382 1.391 . S
C687 C294 1.403 . S
C692 C337 1.391 . S
C697 C295 1.390 . S
C702 C338 1.404 . S
C707 C316 1.389 . S
C712 C361 1.404 . S
C717 C272 1.390 . S
C722 C383 1.403 . S
C727 C378 1.403 . S
C732 C290 1.391 . S
C737 C335 1.403 . S
C742 C313 1.391 . S
C747 C269 1.391 . S
C752 C356 1.403 . S
C757 C6 1.871 . S
C762 C293 1.871 . S
C767 C27 1.868 . S
C772 C317 1.869 . S
C777 C50 1.870 . S
C782 C273 1.872 . S
C787 C53 1.869 . S
C792 C160 1.868 1_556 S
C797 C9 1.871 . S
C802 C182 1.870 1_556 S
C807 C29 1.871 . S
C812 C138 1.871 1_556 S
C817 C225 1.871 . S
C822 C75 1.871 . S
C827 C95 1.868 . S
C832 C247 1.869 . S
C837 C119 1.871 . S
C842 C203 1.869 . S
C847 C359 1.871 1_554 S
C852 C116 1.871 . S
C857 C72 1.868 . S
C862 C381 1.869 1_554 S
C867 C93 1.868 . S
C872 C339 1.869 1_554 S
C877 C185 1.869 . S
C882 C291 1.868 . S
C887 C141 1.868 . S
C892 C314 1.870 . S
C897 C270 1.871 . S
C902 C163 1.871 . S
C907 C357 1.871 . S
C912 C205 1.871 . S
C917 C379 1.870 . S
C922 C227 1.868 . S
C927 C249 1.868 . S
C932 C336 1.869 . S
