# Generated by pormake.
# Topology uob, (4)-cn, num edge types: 1
# Building blocks:
#     Node 0, Type 0, BuildingBlock: QUQFOY_clean_sbu_1, # of connection points: 4
#     Node 1, Type 0, BuildingBlock: QUQFOY_clean_sbu_1, # of connection points: 4
#     Node 2, Type 0, BuildingBlock: QUQFOY_clean_sbu_1, # of connection points: 4
#     Node 3, Type 0, BuildingBlock: QUQFOY_clean_sbu_1, # of connection points: 4
#     Node 4, Type 0, BuildingBlock: QUQFOY_clean_sbu_1, # of connection points: 4
#     Node 5, Type 0, BuildingBlock: QUQFOY_clean_sbu_1, # of connection points: 4
#     Node 6, Type 0, BuildingBlock: QUQFOY_clean_sbu_1, # of connection points: 4
#     Node 7, Type 0, BuildingBlock: QUQFOY_clean_sbu_1, # of connection points: 4
#     Node 8, Type 0, BuildingBlock: QUQFOY_clean_sbu_1, # of connection points: 4
#     Node 9, Type 0, BuildingBlock: QUQFOY_clean_sbu_1, # of connection points: 4
#     Node 10, Type 0, BuildingBlock: QUQFOY_clean_sbu_1, # of connection points: 4
#     Node 11, Type 0, BuildingBlock: QUQFOY_clean_sbu_1, # of connection points: 4
#     Node 12, Type 0, BuildingBlock: QUQFOY_clean_sbu_1, # of connection points: 4
#     Node 13, Type 0, BuildingBlock: QUQFOY_clean_sbu_1, # of connection points: 4
#     Node 14, Type 0, BuildingBlock: QUQFOY_clean_sbu_1, # of connection points: 4
#     Node 15, Type 0, BuildingBlock: QUQFOY_clean_sbu_1, # of connection points: 4
#     Edge 16, Type (0, 0), BuildingBlock: XUDNAN_clean_linker_2, # of connection points: 2
#     Edge 17, Type (0, 0), BuildingBlock: XUDNAN_clean_linker_2, # of connection points: 2
#     Edge 18, Type (0, 0), BuildingBlock: XUDNAN_clean_linker_2, # of connection points: 2
#     Edge 19, Type (0, 0), BuildingBlock: XUDNAN_clean_linker_2, # of connection points: 2
#     Edge 20, Type (0, 0), BuildingBlock: XUDNAN_clean_linker_2, # of connection points: 2
#     Edge 21, Type (0, 0), BuildingBlock: XUDNAN_clean_linker_2, # of connection points: 2
#     Edge 22, Type (0, 0), BuildingBlock: XUDNAN_clean_linker_2, # of connection points: 2
#     Edge 23, Type (0, 0), BuildingBlock: XUDNAN_clean_linker_2, # of connection points: 2
#     Edge 24, Type (0, 0), BuildingBlock: XUDNAN_clean_linker_2, # of connection points: 2
#     Edge 25, Type (0, 0), BuildingBlock: XUDNAN_clean_linker_2, # of connection points: 2
#     Edge 26, Type (0, 0), BuildingBlock: XUDNAN_clean_linker_2, # of connection points: 2
#     Edge 27, Type (0, 0), BuildingBlock: XUDNAN_clean_linker_2, # of connection points: 2
#     Edge 28, Type (0, 0), BuildingBlock: XUDNAN_clean_linker_2, # of connection points: 2
#     Edge 29, Type (0, 0), BuildingBlock: XUDNAN_clean_linker_2, # of connection points: 2
#     Edge 30, Type (0, 0), BuildingBlock: XUDNAN_clean_linker_2, # of connection points: 2
#     Edge 31, Type (0, 0), BuildingBlock: XUDNAN_clean_linker_2, # of connection points: 2
#     Edge 32, Type (0, 0), BuildingBlock: XUDNAN_clean_linker_2, # of connection points: 2
#     Edge 33, Type (0, 0), BuildingBlock: XUDNAN_clean_linker_2, # of connection points: 2
#     Edge 34, Type (0, 0), BuildingBlock: XUDNAN_clean_linker_2, # of connection points: 2
#     Edge 35, Type (0, 0), BuildingBlock: XUDNAN_clean_linker_2, # of connection points: 2
#     Edge 36, Type (0, 0), BuildingBlock: XUDNAN_clean_linker_2, # of connection points: 2
#     Edge 37, Type (0, 0), BuildingBlock: XUDNAN_clean_linker_2, # of connection points: 2
#     Edge 38, Type (0, 0), BuildingBlock: XUDNAN_clean_linker_2, # of connection points: 2
#     Edge 39, Type (0, 0), BuildingBlock: XUDNAN_clean_linker_2, # of connection points: 2
#     Edge 40, Type (0, 0), BuildingBlock: XUDNAN_clean_linker_2, # of connection points: 2
#     Edge 41, Type (0, 0), BuildingBlock: XUDNAN_clean_linker_2, # of connection points: 2
#     Edge 42, Type (0, 0), BuildingBlock: XUDNAN_clean_linker_2, # of connection points: 2
#     Edge 43, Type (0, 0), BuildingBlock: XUDNAN_clean_linker_2, # of connection points: 2
#     Edge 44, Type (0, 0), BuildingBlock: XUDNAN_clean_linker_2, # of connection points: 2
#     Edge 45, Type (0, 0), BuildingBlock: XUDNAN_clean_linker_2, # of connection points: 2
#     Edge 46, Type (0, 0), BuildingBlock: XUDNAN_clean_linker_2, # of connection points: 2
#     Edge 47, Type (0, 0), BuildingBlock: XUDNAN_clean_linker_2, # of connection points: 2
# Relax obj value: 0.047
# Max RMSD: 0.119
# Mean RMSD: 0.119
data_MOF--net-uob--node1-QUQFOY_clean_sbu_1--edge1-XUDNAN_clean_linker_2
_symmetry_space_group_name_H-M    P1
_symmetry_Int_Tables_number       1
_symmetry_cell_setting            triclinic
loop_
_symmetry_equiv_pos_as_xyz
'x, y, z'
_cell_length_a     55.934496
_cell_length_b     55.902485
_cell_length_c     28.243869
_cell_angle_alpha  89.887397
_cell_angle_beta   90.179493
_cell_angle_gamma 90.013911
loop_
_atom_site_label
_atom_site_type_symbol
_atom_site_fract_x
_atom_site_fract_y
_atom_site_fract_z
_atom_type_partial_charge
O0 O 0.13576 0.0665 0.43397 0.0
Cd1 Cd 0.14519 0.04589 0.37717 0.0
Cd2 Cd 0.1239 0.08178 0.33276 0.0
O3 O 0.13394 0.10016 0.39352 0.0
O4 O 0.17299 0.02654 0.40092 0.0
O5 O 0.17635 0.05686 0.35059 0.0
C6 C 0.18647 0.04163 0.37884 0.0
C7 C 0.1319 0.09372 0.25504 0.0
C8 C 0.13547 0.08921 0.433 0.0
C9 C 0.09763 0.03542 0.3387 0.0
O10 O 0.09573 0.05807 0.33817 0.0
O11 O 0.11797 0.02578 0.3462 0.0
O12 O 0.11533 0.10394 0.27947 0.0
O13 O 0.14501 0.07782 0.27601 0.0
O14 O 0.94366 0.64173 0.61848 0.0
Cd15 Cd 0.97445 0.64282 0.58039 0.0
Cd16 Cd 0.93959 0.61623 0.5161 0.0
O17 O 0.91684 0.62455 0.57216 0.0
O18 O 0.99345 0.66331 0.62524 0.0
O19 O 0.9843 0.67491 0.55281 0.0
C20 C 0.99317 0.68002 0.59385 0.0
C21 C 0.92273 0.61448 0.43904 0.0
C22 C 0.92254 0.63439 0.61123 0.0
C23 C 0.985 0.59111 0.5545 0.0
O24 O 0.96576 0.59076 0.53025 0.0
O25 O 0.992 0.61005 0.57561 0.0
O26 O 0.91753 0.5991 0.47135 0.0
O27 O 0.93746 0.63133 0.45029 0.0
O28 O 0.36894 0.43662 0.88698 0.0
Cd29 Cd 0.37133 0.46722 0.84679 0.0
Cd30 Cd 0.38539 0.42766 0.78342 0.0
O31 O 0.37473 0.406 0.83877 0.0
O32 O 0.35786 0.4903 0.89393 0.0
O33 O 0.33884 0.48075 0.82823 0.0
C34 C 0.33855 0.49118 0.86902 0.0
C35 C 0.37732 0.41767 0.70432 0.0
C36 C 0.36947 0.41427 0.87927 0.0
C37 C 0.42193 0.46665 0.81054 0.0
O38 O 0.41669 0.44629 0.79336 0.0
O39 O 0.40586 0.47954 0.82994 0.0
O40 O 0.39315 0.40628 0.72876 0.0
O41 O 0.3652 0.43416 0.72547 0.0
O42 O 0.57807 0.88052 0.12719 0.0
Cd43 Cd 0.54695 0.8824 0.08862 0.0
Cd44 Cd 0.58517 0.89631 0.02317 0.0
O45 O 0.60782 0.88533 0.07657 0.0
O46 O 0.52472 0.86897 0.1376 0.0
O47 O 0.53345 0.84956 0.07218 0.0
C48 C 0.52367 0.84945 0.11357 0.0
C49 C 0.594 0.88802 0.94368 0.0
C50 C 0.60024 0.88068 0.11788 0.0
C51 C 0.54759 0.93333 0.05401 0.0
O52 O 0.56762 0.92805 0.03556 0.0
O53 O 0.53456 0.91715 0.07287 0.0
O54 O 0.6059 0.90371 0.96738 0.0
O55 O 0.57739 0.87639 0.9656 0.0
O56 O 0.13943 0.44777 0.93334 0.0
Cd57 Cd 0.13875 0.47296 0.9857 0.0
Cd58 Cd 0.12671 0.43094 0.0352 0.0
O59 O 0.14122 0.41461 0.9755 0.0
O60 O 0.15834 0.49844 0.95454 0.0
O61 O 0.17025 0.47888 0.01865 0.0
C62 C 0.17513 0.49346 0.98439 0.0
C63 C 0.12984 0.41371 0.11134 0.0
C64 C 0.14273 0.42536 0.93583 0.0
C65 C 0.08875 0.46994 0.01739 0.0
O66 O 0.09438 0.44833 0.02631 0.0
O67 O 0.10481 0.48495 1.00528 0.0
O68 O 0.11763 0.4038 0.07801 0.0
O69 O 0.14164 0.43286 0.10085 0.0
O70 O 0.56671 0.64491 0.21244 0.0
Cd71 Cd 0.53722 0.64877 0.25464 0.0
Cd72 Cd 0.57161 0.62323 0.31382 0.0
O73 O 0.59502 0.63031 0.25882 0.0
O74 O 0.51802 0.67027 0.21169 0.0
O75 O 0.53075 0.68171 0.28207 0.0
C76 C 0.52058 0.68711 0.24233 0.0
C77 C 0.58196 0.62967 0.3936 0.0
C78 C 0.5882 0.63832 0.2188 0.0
C79 C 0.52566 0.59785 0.2835 0.0
O80 O 0.54663 0.59672 0.30099 0.0
O81 O 0.51747 0.61756 0.26712 0.0
O82 O 0.59055 0.61189 0.37013 0.0
O83 O 0.56807 0.64436 0.37122 0.0
O84 O 0.39002 0.06916 0.44281 0.0
Cd85 Cd 0.38813 0.05009 0.50433 0.0
Cd86 Cd 0.40138 0.092 0.54099 0.0
O87 O 0.38716 0.10443 0.47749 0.0
O88 O 0.36058 0.02779 0.49419 0.0
O89 O 0.35922 0.06024 0.53944 0.0
C90 C 0.34801 0.04343 0.51695 0.0
C91 C 0.39576 0.11082 0.6142 0.0
C92 C 0.38611 0.0915 0.44049 0.0
C93 C 0.43767 0.05179 0.5379 0.0
O94 O 0.43352 0.07415 0.53809 0.0
O95 O 0.42054 0.03708 0.53112 0.0
O96 O 0.40854 0.12047 0.58139 0.0
O97 O 0.38472 0.09114 0.60429 0.0
O98 O 0.93492 0.87329 0.73196 0.0
Cd99 Cd 0.96868 0.87369 0.76006 0.0
Cd100 Cd 0.93673 0.89771 0.83419 0.0
O101 O 0.91135 0.89288 0.78137 0.0
O102 O 0.9859 0.85986 0.70408 0.0
O103 O 0.98331 0.84065 0.77176 0.0
C104 C 0.98962 0.84059 0.72784 0.0
C105 C 0.92602 0.8903 0.91337 0.0
C106 C 0.91459 0.88161 0.74289 0.0
C107 C 0.97914 0.92524 0.79312 0.0
O108 O 0.96188 0.92409 0.82226 0.0
O109 O 0.98451 0.90754 0.76665 0.0
O110 O 0.91867 0.90907 0.89113 0.0
O111 O 0.9393 0.87542 0.89041 0.0
O112 O 0.63149 0.56987 0.90436 0.0
Cd113 Cd 0.6344 0.54734 0.84766 0.0
Cd114 Cd 0.60814 0.58692 0.80891 0.0
O115 O 0.62026 0.60366 0.87013 0.0
O116 O 0.65572 0.52188 0.875 0.0
O117 O 0.66792 0.54776 0.82102 0.0
C118 C 0.673 0.531 0.85096 0.0
C119 C 0.60866 0.60547 0.73403 0.0
C120 C 0.6278 0.59224 0.90624 0.0
C121 C 0.583 0.53945 0.81904 0.0
O122 O 0.58108 0.56209 0.81674 0.0
O123 O 0.60346 0.5297 0.82483 0.0
O124 O 0.59429 0.61233 0.76692 0.0
O125 O 0.62375 0.58872 0.7443 0.0
O126 O 0.43962 0.14375 0.13353 0.0
Cd127 Cd 0.46923 0.14746 0.09128 0.0
Cd128 Cd 0.43499 0.12309 0.03167 0.0
O129 O 0.41163 0.12905 0.08664 0.0
O130 O 0.4886 0.16904 0.13353 0.0
O131 O 0.47578 0.1802 0.06289 0.0
C132 C 0.48611 0.18571 0.10236 0.0
C133 C 0.42346 0.13071 0.95321 0.0
C134 C 0.4182 0.13702 0.12671 0.0
C135 C 0.48066 0.09691 0.06006 0.0
O136 O 0.45975 0.09622 0.04226 0.0
O137 O 0.48888 0.11625 0.07787 0.0
O138 O 0.41556 0.11236 0.97602 0.0
O139 O 0.43757 0.1452 0.97544 0.0
O140 O 0.89265 0.94474 0.42692 0.0
Cd141 Cd 0.88868 0.96455 0.36663 0.0
Cd142 Cd 0.89995 0.92351 0.32702 0.0
O143 O 0.885 0.91094 0.38986 0.0
O144 O 0.86077 0.98612 0.37895 0.0
O145 O 0.85937 0.95387 0.33312 0.0
C146 C 0.84818 0.97033 0.35647 0.0
C147 C 0.89459 0.9058 0.2525 0.0
C148 C 0.88658 0.92284 0.42819 0.0
C149 C 0.93719 0.96266 0.33083 0.0
O150 O 0.93264 0.94037 0.33135 0.0
O151 O 0.92034 0.97766 0.33736 0.0
O152 O 0.90661 0.8953 0.28556 0.0
O153 O 0.88394 0.92561 0.26289 0.0
O154 O 0.08781 0.37382 0.63269 0.0
Cd155 Cd 0.05483 0.3744 0.60114 0.0
Cd156 Cd 0.08926 0.39894 0.53065 0.0
O157 O 0.11335 0.3926 0.5857 0.0
O158 O 0.03609 0.36014 0.65486 0.0
O159 O 0.04067 0.3414 0.58721 0.0
C160 C 0.03315 0.34101 0.63037 0.0
C161 C 0.10048 0.39258 0.45131 0.0
C162 C 0.10868 0.38148 0.62396 0.0
C163 C 0.04559 0.42613 0.56797 0.0
O164 O 0.06399 0.42529 0.54168 0.0
O165 O 0.03913 0.40819 0.59292 0.0
O166 O 0.10821 0.41074 0.4749 0.0
O167 O 0.08684 0.37755 0.47321 0.0
O168 O 0.63591 0.94608 0.4307 0.0
Cd169 Cd 0.64475 0.96595 0.48904 0.0
Cd170 Cd 0.62177 0.92907 0.53136 0.0
O171 O 0.63314 0.9122 0.47017 0.0
O172 O 0.67294 0.98538 0.46794 0.0
O173 O 0.67547 0.95454 0.51728 0.0
C174 C 0.68604 0.97003 0.49036 0.0
C175 C 0.6221 0.90946 0.60484 0.0
C176 C 0.63542 0.92337 0.43117 0.0
C177 C 0.597 0.9767 0.52607 0.0
O178 O 0.59467 0.95408 0.52582 0.0
O179 O 0.61752 0.98606 0.51947 0.0
O180 O 0.60743 0.90344 0.57167 0.0
O181 O 0.63763 0.92591 0.5955 0.0
O182 O 0.08073 0.14424 0.74026 0.0
Cd183 Cd 0.04895 0.14315 0.77536 0.0
Cd184 Cd 0.08358 0.11529 0.83933 0.0
O185 O 0.10625 0.12308 0.78319 0.0
O186 O 0.03023 0.16326 0.72924 0.0
O187 O 0.03709 0.17456 0.80271 0.0
C188 C 0.0291 0.1797 0.76096 0.0
C189 C 0.1007 0.11381 0.91587 0.0
C190 C 0.10138 0.1355 0.74666 0.0
C191 C 0.03847 0.09075 0.8 0.0
O192 O 0.05712 0.09033 0.82595 0.0
O193 O 0.03218 0.10966 0.77771 0.0
O194 O 0.10556 0.09813 0.88406 0.0
O195 O 0.08609 0.13075 0.90444 0.0
O196 O 0.87776 0.56898 0.92472 0.0
Cd197 Cd 0.87486 0.54626 0.98138 0.0
Cd198 Cd 0.89925 0.58479 0.02001 0.0
O199 O 0.88777 0.60288 0.95966 0.0
O200 O 0.85334 0.52093 0.95445 0.0
O201 O 0.84144 0.54691 1.00835 0.0
C202 C 0.83618 0.53019 0.97856 0.0
C203 C 0.89169 0.59547 0.09865 0.0
C204 C 0.88086 0.59146 0.92312 0.0
C205 C 0.92611 0.53888 1.01018 0.0
O206 O 0.92753 0.56155 0.012 0.0
O207 O 0.90584 0.52874 1.00456 0.0
O208 O 0.90776 0.60647 0.07407 0.0
O209 O 0.87879 0.57953 0.07737 0.0
O210 O 0.43406 0.3838 0.18573 0.0
Cd211 Cd 0.46136 0.38435 0.23433 0.0
Cd212 Cd 0.41933 0.39676 0.28887 0.0
O213 O 0.40198 0.38213 0.23089 0.0
O214 O 0.48694 0.3695 0.19456 0.0
O215 O 0.47116 0.35106 0.25603 0.0
C216 C 0.48448 0.35009 0.21876 0.0
C217 C 0.40159 0.39442 0.36439 0.0
C218 C 0.41174 0.38051 0.19043 0.0
C219 C 0.45816 0.43451 0.26794 0.0
O220 O 0.43673 0.42892 0.27814 0.0
O221 O 0.47304 0.41843 0.25536 0.0
O222 O 0.39238 0.40693 0.3307 0.0
O223 O 0.42054 0.38217 0.35485 0.0
H224 H 0.31558 1.00865 0.48801 0.0
H225 H 0.32213 0.08432 0.51993 0.0
H226 H 0.28261 0.09161 0.48459 0.0
H227 H 0.28597 0.01346 0.37909 0.0
H228 H 0.26526 0.98916 0.38789 0.0
H229 H 0.29376 0.98895 0.41776 0.0
H230 H 0.2728 0.98497 0.49899 0.0
H231 H 0.24424 0.98453 0.46928 0.0
H232 H 0.24998 1.0062 0.51512 0.0
H233 H 0.2458 0.09197 0.43514 0.0
H234 H 0.20777 0.08415 0.39376 0.0
H235 H 0.22095 1.00778 0.4025 0.0
C236 C 0.30834 0.0266 0.4888 0.0
C237 C 0.32204 0.0459 0.50693 0.0
C238 C 0.31199 0.06918 0.50692 0.0
C239 C 0.28961 0.07358 0.48633 0.0
C240 C 0.27705 0.05444 0.46704 0.0
C241 C 0.2855 0.03125 0.46976 0.0
C242 C 0.26769 0.01394 0.44764 0.0
C243 C 0.27885 1.00059 0.4056 0.0
C244 C 0.2581 0.99637 0.48499 0.0
C245 C 0.2483 0.03115 0.43109 0.0
C246 C 0.25449 0.05446 0.44173 0.0
C247 C 0.24049 0.07376 0.42744 0.0
C248 C 0.21907 0.06914 0.40335 0.0
C249 C 0.21144 0.04539 0.39476 0.0
C250 C 0.22638 0.02612 0.40854 0.0
H251 H 0.99042 0.79413 0.76162 0.0
H252 H 1.00645 0.83702 0.63749 0.0
H253 H 0.01347 0.80032 0.59144 0.0
H254 H 0.03409 0.74488 0.73582 0.0
H255 H 0.01394 0.72223 0.75754 0.0
H256 H 0.01337 0.75187 0.78256 0.0
H257 H 0.96813 0.75496 0.76361 0.0
H258 H 0.9686 0.72547 0.73832 0.0
H259 H 0.95795 0.75041 0.70366 0.0
H260 H 0.01262 0.75916 0.55551 0.0
H261 H 1.00657 0.71659 0.53448 0.0
H262 H 0.99312 0.70004 0.68206 0.0
C263 C 0.99617 0.79581 0.7252 0.0
C264 C 0.99802 0.81856 0.70338 0.0
C265 C 1.00503 0.81988 0.65522 0.0
C266 C 0.00906 0.79908 0.62865 0.0
C267 C 1.0063 0.77695 0.65069 0.0
C268 C 1.00036 0.77515 0.69809 0.0
C269 C 0.99693 0.74917 0.71232 0.0
C270 C 0.01571 0.74159 0.74925 0.0
C271 C 0.97139 0.74476 0.73053 0.0
C272 C 1.00111 0.73677 0.66527 0.0
C273 C 1.00656 0.7531 0.63016 0.0
C274 C 0.00895 0.74614 0.58294 0.0
C275 C 1.00546 0.72193 0.57125 0.0
C276 C 0.99989 0.7049 0.60667 0.0
C277 C 0.9981 0.71248 0.65435 0.0
H278 H 0.29317 0.49222 0.8298 0.0
H279 H 0.33259 0.50938 0.9579 0.0
H280 H 0.29471 0.51624 0.99988 0.0
H281 H 0.24312 0.5362 0.85032 0.0
H282 H 0.2212 0.51598 0.82603 0.0
H283 H 0.25146 0.51559 0.80423 0.0
H284 H 0.25421 0.4703 0.82305 0.0
H285 H 0.22411 0.4706 0.84521 0.0
H286 H 0.24815 0.45999 0.88234 0.0
H287 H 0.25277 0.51361 0.03198 0.0
H288 H 0.2098 0.50651 0.04842 0.0
H289 H 0.19714 0.49481 0.89887 0.0
C290 C 0.29386 0.49823 0.86619 0.0
C291 C 0.31599 0.50032 0.89034 0.0
C292 C 0.31598 0.50778 0.93834 0.0
C293 C 0.29449 0.51168 0.96266 0.0
C294 C 0.27299 0.50855 0.93842 0.0
C295 C 0.2725 0.50254 0.89092 0.0
C296 C 0.24696 0.49901 0.87392 0.0
C297 C 0.24029 0.51782 0.8364 0.0
C298 C 0.24315 0.47346 0.85504 0.0
C299 C 0.23332 0.50305 0.91961 0.0
C300 C 0.24865 0.50848 0.95649 0.0
C301 C 0.24049 0.51016 1.00311 0.0
C302 C 0.2161 0.50609 0.01221 0.0
C303 C 0.20008 0.50089 0.9748 0.0
C304 C 0.20884 0.49974 0.92791 0.0
H305 H 0.52483 0.80325 0.07838 0.0
H306 H 0.50436 0.8445 0.20179 0.0
H307 H 0.49782 0.8072 0.24644 0.0
H308 H 0.48206 0.7525 0.09952 0.0
H309 H 0.50325 0.73065 0.07876 0.0
H310 H 0.50346 0.76052 0.0546 0.0
H311 H 0.54819 0.76467 0.07706 0.0
H312 H 0.54807 0.73497 0.10166 0.0
H313 H 0.55733 0.75993 0.13763 0.0
H314 H 0.50001 0.76579 0.28184 0.0
H315 H 0.50647 0.7231 0.30204 0.0
H316 H 0.52261 0.70817 0.15505 0.0
C317 C 0.5182 0.80444 0.11427 0.0
C318 C 0.51501 0.82696 0.13633 0.0
C319 C 0.5068 0.82759 0.1838 0.0
C320 C 0.50308 0.80643 0.20963 0.0
C321 C 0.50725 0.78459 0.18748 0.0
C322 C 0.51415 0.7834 0.14054 0.0
C323 C 0.51859 0.75764 0.12596 0.0
C324 C 0.50077 0.74987 0.08742 0.0
C325 C 0.54459 0.75411 0.10963 0.0
C326 C 0.51387 0.74468 0.17234 0.0
C327 C 0.5074 0.76056 0.20745 0.0
C328 C 0.50443 0.7531 0.25432 0.0
C329 C 0.50818 0.72885 0.26556 0.0
C330 C 0.51446 0.71223 0.23001 0.0
C331 C 0.51704 0.72032 0.18274 0.0
H332 H 0.7087 0.56253 0.86985 0.0
H333 H 0.69271 0.48677 0.8658 0.0
H334 H 0.73282 0.47785 0.89928 0.0
H335 H 0.77275 0.55941 0.8452 0.0
H336 H 0.7799 0.58277 0.88681 0.0
H337 H 0.75126 0.5826 0.85748 0.0
H338 H 0.73028 0.58354 0.93915 0.0
H339 H 0.75885 0.58326 0.96874 0.0
H340 H 0.73693 0.56062 0.98219 0.0
H341 H 0.77549 0.47762 0.9323 0.0
H342 H 0.81573 0.48616 0.96558 0.0
H343 H 0.80111 0.56213 0.95797 0.0
C344 C 0.71398 0.54404 0.87469 0.0
C345 C 0.69801 0.52525 0.86382 0.0
C346 C 0.70498 0.50134 0.87283 0.0
C347 C 0.72765 0.49616 0.89206 0.0
C348 C 0.74284 0.51515 0.90336 0.0
C349 C 0.73618 0.53864 0.8953 0.0
C350 C 0.7549 0.55588 0.91392 0.0
C351 C 0.76532 0.57105 0.87344 0.0
C352 C 0.74462 0.57176 0.95334 0.0
C353 C 0.77325 0.53848 0.93341 0.0
C354 C 0.76617 0.51505 0.92641 0.0
C355 C 0.78099 0.4959 0.93868 0.0
C356 C 0.80373 0.50086 0.9578 0.0
C357 C 0.81111 0.52472 0.96579 0.0
C358 C 0.7955 0.54369 0.95395 0.0
H359 H 0.47969 0.30463 0.25679 0.0
H360 H 0.50768 0.34283 0.13505 0.0
H361 H 0.51438 0.30457 0.0942 0.0
H362 H 0.5211 0.25182 0.24652 0.0
H363 H 0.49815 0.23122 0.26506 0.0
H364 H 0.49824 0.26147 0.28709 0.0
H365 H 0.45483 0.26704 0.2569 0.0
H366 H 0.45469 0.23697 0.23435 0.0
H367 H 0.44809 0.26169 0.19536 0.0
H368 H 0.51137 0.26282 0.06099 0.0
H369 H 0.50383 0.22011 0.04259 0.0
H370 H 0.48123 0.20825 0.18735 0.0
C371 C 0.48797 0.30492 0.2222 0.0
C372 C 0.49322 0.32688 0.19937 0.0
C373 C 0.50363 0.32636 0.15363 0.0
C374 C 0.50745 0.30465 0.12993 0.0
C375 C 0.50122 0.28341 0.15261 0.0
C376 C 0.49225 0.2833 0.1982 0.0
C377 C 0.48606 0.25801 0.21367 0.0
C378 C 0.50183 0.25017 0.25557 0.0
C379 C 0.45933 0.25581 0.22576 0.0
C380 C 0.49217 0.24411 0.16916 0.0
C381 C 0.50079 0.2591 0.13424 0.0
C382 C 0.50529 0.25078 0.08849 0.0
C383 C 0.50091 0.22654 0.07825 0.0
C384 C 0.49255 0.21079 0.11378 0.0
C385 C 0.4884 0.21973 0.1599 0.0
H386 H 0.81496 1.00464 0.38385 0.0
H387 H 0.82358 0.92868 0.35699 0.0
H388 H 0.78433 0.92086 0.39264 0.0
H389 H 0.78513 1.00082 0.493 0.0
H390 H 0.76383 0.02438 0.48195 0.0
H391 H 0.79246 0.02485 0.45292 0.0
H392 H 0.77177 0.02688 0.37088 0.0
H393 H 0.74308 0.02703 0.3997 0.0
H394 H 0.74961 1.00476 0.35553 0.0
H395 H 0.74729 0.92031 0.441 0.0
H396 H 0.70867 0.92778 0.47988 0.0
H397 H 0.71998 1.0043 0.46668 0.0
C398 C 0.80825 0.98647 0.38436 0.0
C399 C 0.82241 0.96729 0.36743 0.0
C400 C 0.81305 0.94374 0.36905 0.0
C401 C 0.79084 0.93903 0.38984 0.0
C402 C 0.77776 0.95813 0.40776 0.0
C403 C 0.78557 0.98149 0.40359 0.0
C404 C 0.76719 0.99867 0.424 0.0
C405 C 0.7778 0.01302 0.46543 0.0
C406 C 0.75732 0.01532 0.38521 0.0
C407 C 0.74821 0.98121 0.44114 0.0
C408 C 0.7551 0.95791 0.43239 0.0
C409 C 0.74146 0.93848 0.44728 0.0
C410 C 0.71967 0.94292 0.46994 0.0
C411 C 0.71134 0.96659 0.47648 0.0
C412 C 0.72595 0.98601 0.46226 0.0
H413 H 0.03358 0.29482 0.5956 0.0
H414 H 0.01401 0.33663 0.7188 0.0
H415 H 1.00627 0.29952 0.76339 0.0
H416 H 0.98993 0.24473 0.61639 0.0
H417 H 0.01092 0.22256 0.59615 0.0
H418 H 0.0116 0.25237 0.57173 0.0
H419 H 0.0563 0.25604 0.59484 0.0
H420 H 0.05572 0.22639 0.61955 0.0
H421 H 0.06516 0.25126 0.65556 0.0
H422 H 1.00692 0.25812 0.79866 0.0
H423 H 0.01339 0.21556 0.81958 0.0
H424 H 0.03052 0.20024 0.67313 0.0
C425 C 0.02689 0.29618 0.63142 0.0
C426 C 0.02427 0.31874 0.65347 0.0
C427 C 0.01604 0.31964 0.70089 0.0
C428 C 0.01159 0.2986 0.72663 0.0
C429 C 0.01515 0.27666 0.70447 0.0
C430 C 0.02226 0.27527 0.65767 0.0
C431 C 0.02643 0.24945 0.64334 0.0
C432 C 1.00865 0.24183 0.6046 0.0
C433 C 0.05244 0.24557 0.6274 0.0
C434 C 0.02136 0.23667 0.68973 0.0
C435 C 0.01478 0.25267 0.72454 0.0
C436 C 0.01146 0.24535 0.77139 0.0
C437 C 0.0152 0.22114 0.78302 0.0
C438 C 0.02195 0.20446 0.7479 0.0
C439 C 0.02463 0.21239 0.70054 0.0
H440 H 0.05084 0.04997 0.34367 0.0
H441 H 0.095 0.98731 0.31972 0.0
H442 H 0.05852 0.96273 0.31041 0.0
H443 H 1.00689 0.02051 0.41343 0.0
H444 H 0.98212 0.03758 0.3903 0.0
H445 H 0.01158 0.05054 0.39196 0.0
H446 H 0.00917 0.05898 0.30186 0.0
H447 H 0.97969 0.046 0.29989 0.0
H448 H 1.00285 0.03475 0.2617 0.0
H449 H 0.0176 0.94493 0.30547 0.0
H450 H 0.97511 0.93416 0.30943 0.0
H451 H 0.95691 1.00818 0.33908 0.0
C452 C 0.05289 0.03112 0.33595 0.0
C453 C 0.07585 0.02058 0.33208 0.0
C454 C 0.07766 0.99578 0.32275 0.0
C455 C 0.05703 0.98171 0.31726 0.0
C456 C 0.03472 0.99267 0.32146 0.0
C457 C 0.0325 0.01678 0.33085 0.0
C458 C 1.00642 0.02388 0.33604 0.0
C459 C 1.00147 0.0337 0.3859 0.0
C460 C 0.9991 0.04197 0.29757 0.0
C461 C 0.99428 0.99992 0.32847 0.0
C462 C 0.011 0.98226 0.31966 0.0
C463 C 1.00436 0.9586 0.31229 0.0
C464 C 0.98008 0.95269 0.31468 0.0
C465 C 0.9625 0.97029 0.3247 0.0
C466 C 0.96979 0.99432 0.33111 0.0
H467 H 0.99618 0.55528 0.49156 0.0
H468 H 0.99986 0.57455 0.63999 0.0
H469 H 0.01346 0.53362 0.65978 0.0
H470 H 0.97635 0.49549 0.50452 0.0
H471 H 0.99498 0.48324 0.4586 0.0
H472 H 0.98556 0.51401 0.45552 0.0
H473 H 0.02966 0.52789 0.45005 0.0
H474 H 0.03918 0.49712 0.45212 0.0
H475 H 0.05077 0.51825 0.49451 0.0
H476 H 0.02244 0.48942 0.66416 0.0
H477 H 0.03522 0.44753 0.65152 0.0
H478 H 0.03082 0.45806 0.49967 0.0
C479 C 1.00028 0.55093 0.52807 0.0
C480 C 0.99705 0.56804 0.56432 0.0
C481 C 1.00252 0.56178 0.6117 0.0
C482 C 0.01 0.53851 0.62331 0.0
C483 C 0.01248 0.52186 0.58695 0.0
C484 C 1.00856 0.52798 0.54011 0.0
C485 C 0.01381 0.507 0.50768 0.0
C486 C 0.99133 0.4995 0.47995 0.0
C487 C 0.0346 0.51292 0.47411 0.0
C488 C 0.0209 0.48805 0.54365 0.0
C489 C 0.01945 0.49687 0.58924 0.0
C490 C 0.02398 0.48243 0.62859 0.0
C491 C 0.03097 0.45861 0.62113 0.0
C492 C 0.03392 0.44962 0.57472 0.0
C493 C 0.02865 0.46452 0.53552 0.0
H494 H 0.44187 0.51182 0.82539 0.0
H495 H 0.46025 0.43804 0.79386 0.0
H496 H 0.5028 0.44863 0.79293 0.0
H497 H 0.48733 0.53817 0.74991 0.0
H498 H 0.4938 0.56252 0.78968 0.0
H499 H 0.46441 0.54934 0.78877 0.0
H500 H 0.46744 0.541 0.87884 0.0
H501 H 0.49685 0.55415 0.87999 0.0
H502 H 0.49244 0.52411 0.90157 0.0
H503 H 0.5436 0.46639 0.7973 0.0
H504 H 0.58006 0.49117 0.80285 0.0
H505 H 0.53615 0.5539 0.82813 0.0
C506 C 0.45486 0.49793 0.81832 0.0
C507 C 0.44752 0.47408 0.80968 0.0
C508 C 0.4652 0.45648 0.80034 0.0
C509 C 0.48954 0.46227 0.79985 0.0
C510 C 0.49618 0.48582 0.80838 0.0
C511 C 0.47943 0.50346 0.8171 0.0
C512 C 0.49163 0.52748 0.82421 0.0
C513 C 0.48383 0.54544 0.78585 0.0
C514 C 0.4868 0.53725 0.87412 0.0
C515 C 0.51771 0.52043 0.81837 0.0
C516 C 0.51989 0.49627 0.80956 0.0
C517 C 0.54215 0.48539 0.80391 0.0
C518 C 0.56278 0.49961 0.80721 0.0
C519 C 0.56107 0.5245 0.81563 0.0
C520 C 0.53813 0.53496 0.8212 0.0
H521 H 0.50251 0.9547 0.05521 0.0
H522 H 0.57848 0.97048 0.05915 0.0
H523 H 0.56971 0.01352 0.06313 0.0
H524 H 0.48698 1.00441 0.9795 0.0
H525 H 0.45892 0.01047 1.00832 0.0
H526 H 0.47089 0.98056 1.00835 0.0
H527 H 0.4688 0.97949 0.09994 0.0
H528 H 0.45681 0.0094 0.10015 0.0
H529 H 0.48342 1.00262 0.13372 0.0
H530 H 0.55313 0.05503 0.06798 0.0
H531 H 0.52943 0.09241 0.06759 0.0
H532 H 0.46429 0.05063 0.05529 0.0
C533 C 0.51723 0.96724 0.05723 0.0
C534 C 0.54119 0.95912 0.05692 0.0
C535 C 0.55997 0.97618 0.05903 0.0
C536 C 0.5552 1.00073 0.06153 0.0
C537 C 0.5315 1.00821 0.06136 0.0
C538 C 0.51278 0.99205 0.05883 0.0
C539 C 0.48899 1.00514 0.05704 0.0
C540 C 0.47566 0.99983 1.01053 0.0
C541 C 0.4736 0.99878 0.10029 0.0
C542 C 0.49736 0.03101 0.05896 0.0
C543 C 0.52195 0.03234 0.06204 0.0
C544 C 0.53384 0.05424 0.06529 0.0
C545 C 0.52025 0.07539 0.06513 0.0
C546 C 0.49505 0.07454 0.06098 0.0
C547 C 0.48356 0.05195 0.05791 0.0
H548 H 0.06774 0.51485 1.00668 0.0
H549 H 0.0511 0.44008 0.03326 0.0
H550 H 1.00832 0.44966 0.03496 0.0
H551 H 0.02122 0.53899 0.08307 0.0
H552 H 0.01445 0.56372 0.04426 0.0
H553 H 0.04415 0.55125 0.04541 0.0
H554 H 0.04194 0.54414 0.95489 0.0
H555 H 0.01223 0.55655 0.95351 0.0
H556 H 0.01754 0.52694 0.93067 0.0
H557 H 0.96706 0.46655 0.03093 0.0
H558 H 0.93005 0.4905 0.02493 0.0
H559 H 0.97265 0.55455 1.00357 0.0
C560 C 0.05511 0.50053 0.01304 0.0
C561 C 0.063 0.47669 0.01977 0.0
C562 C 0.04574 0.45852 0.02804 0.0
C563 C 0.02127 0.46373 0.02903 0.0
C564 C 0.01409 0.48727 0.02203 0.0
C565 C 0.03043 0.50545 0.01452 0.0
C566 C 0.01771 0.52925 1.00818 0.0
C567 C 0.02481 0.54684 0.04758 0.0
C568 C 0.02265 0.53984 0.95888 0.0
C569 C 0.99179 0.52147 0.01294 0.0
C570 C 0.99013 0.49715 0.02074 0.0
C571 C 0.9681 0.48566 0.02514 0.0
C572 C 0.94716 0.4994 0.02157 0.0
C573 C 0.94835 0.52442 0.01403 0.0
C574 C 0.97106 0.5355 1.00978 0.0
H575 H 0.5031 0.45573 0.27704 0.0
H576 H 0.42763 0.47203 0.26029 0.0
H577 H 0.43665 0.51503 0.26197 0.0
H578 H 0.51539 0.5038 0.35911 0.0
H579 H 0.54462 0.51028 0.33565 0.0
H580 H 0.53261 0.48045 0.33147 0.0
H581 H 0.53867 0.48115 0.24059 0.0
H582 H 0.55075 0.51097 0.24455 0.0
H583 H 0.52566 0.50503 0.2061 0.0
H584 H 0.45344 0.55648 0.26394 0.0
H585 H 0.47719 0.59368 0.26992 0.0
H586 H 0.54156 0.55136 0.28955 0.0
C587 C 0.48854 0.46837 0.27348 0.0
C588 C 0.46464 0.46037 0.26849 0.0
C589 C 0.44608 0.47758 0.26442 0.0
C590 C 0.45099 0.50214 0.26517 0.0
C591 C 0.47459 0.50946 0.27049 0.0
C592 C 0.49309 0.49317 0.2749 0.0
C593 C 0.51677 0.50607 0.28164 0.0
C594 C 0.528 0.49977 0.32984 0.0
C595 C 0.53397 0.50047 0.24078 0.0
C596 C 0.5086 0.532 0.28015 0.0
C597 C 0.48422 0.53353 0.27329 0.0
C598 C 0.47256 0.55554 0.26959 0.0
C599 C 0.48619 0.57659 0.27299 0.0
C600 C 0.51119 0.57554 0.28061 0.0
C601 C 0.52243 0.55285 0.28432 0.0
H602 H 0.45665 1.0061 0.52731 0.0
H603 H 0.47614 0.07945 0.56037 0.0
H604 H 0.51849 0.06803 0.56326 0.0
H605 H 0.50253 0.97796 0.60283 0.0
H606 H 0.50812 0.95411 0.56145 0.0
H607 H 0.47893 0.96766 0.56431 0.0
H608 H 0.48092 0.97713 0.47458 0.0
H609 H 0.51015 0.96374 0.47152 0.0
H610 H 0.50578 0.99412 0.45182 0.0
H611 H 0.55913 0.0497 0.5571 0.0
H612 H 0.59517 0.02467 0.54671 0.0
H613 H 0.54993 0.96298 0.52007 0.0
C614 C 0.46979 0.01967 0.53583 0.0
C615 C 0.46289 0.04371 0.5435 0.0
C616 C 0.4808 0.06092 0.55417 0.0
C617 C 0.50501 0.05464 0.55595 0.0
C618 C 0.51125 0.03099 0.54733 0.0
C619 C 0.49421 0.01368 0.53794 0.0
C620 C 0.50597 0.98965 0.529 0.0
C621 C 0.49844 0.97126 0.56665 0.0
C622 C 0.50037 0.98064 0.47874 0.0
C623 C 0.53218 0.99633 0.53421 0.0
C624 C 0.53481 0.02027 0.54473 0.0
C625 C 0.55731 0.03084 0.54936 0.0
C626 C 0.5777 0.01651 0.54325 0.0
C627 C 0.57546 0.99184 0.5329 0.0
C628 C 0.55231 0.98172 0.52852 0.0
H629 H 0.02649 0.05571 0.86397 0.0
H630 H 0.02413 0.07345 0.71457 0.0
H631 H 0.01074 0.03226 0.69633 0.0
H632 H 0.04694 0.99627 0.85462 0.0
H633 H 0.02811 0.98425 0.90056 0.0
H634 H 0.0371 0.01518 0.90239 0.0
H635 H 0.99279 0.02854 0.90575 0.0
H636 H 0.98368 0.99763 0.90499 0.0
H637 H 0.97216 0.01812 0.86117 0.0
H638 H 1.00201 0.9878 0.69399 0.0
H639 H 0.98971 0.9459 0.7085 0.0
H640 H 0.99313 0.95819 0.85987 0.0
C641 C 0.02268 0.051 0.82755 0.0
C642 C 0.02624 0.06774 0.79062 0.0
C643 C 0.02118 0.06098 0.74337 0.0
C644 C 0.01384 0.03755 0.73267 0.0
C645 C 0.01109 0.02126 0.76975 0.0
C646 C 0.01459 0.0279 0.81638 0.0
C647 C 0.00936 1.00723 0.84972 0.0
C648 C 0.03171 1.00034 0.87851 0.0
C649 C 0.98824 0.01324 0.88232 0.0
C650 C 1.0028 0.98781 0.81454 0.0
C651 C 1.00442 0.99615 0.76854 0.0
C652 C 1.00034 0.98119 0.72987 0.0
C653 C 0.99363 0.95735 0.73842 0.0
C654 C 0.99054 0.94883 0.78524 0.0
C655 C 0.99539 0.96426 0.82371 0.0
H656 H 0.12665 0.09868 0.70997 0.0
H657 H 0.11009 0.1736 0.68954 0.0
H658 H 0.12484 0.1714 0.60747 0.0
H659 H 0.17942 0.09505 0.62135 0.0
H660 H 0.16945 0.06587 0.60276 0.0
H661 H 0.16551 0.07516 0.66335 0.0
H662 H 0.12028 0.06592 0.65623 0.0
H663 H 0.12383 0.05728 0.59555 0.0
H664 H 0.1029 0.08053 0.61071 0.0
H665 H 0.13141 0.15898 0.52398 0.0
H666 H 0.13166 0.13779 0.44722 0.0
H667 H 0.14243 0.07051 0.52124 0.0
C668 C 0.12768 0.11492 0.68911 0.0
C669 C 0.11782 0.13642 0.70616 0.0
C670 C 0.1181 0.15711 0.67722 0.0
C671 C 0.12637 0.15599 0.63051 0.0
C672 C 0.13431 0.13403 0.61336 0.0
C673 C 0.13545 0.11392 0.64206 0.0
C674 C 0.14055 0.09168 0.61325 0.0
C675 C 0.1652 0.08134 0.62593 0.0
C676 C 0.1207 0.07278 0.6193 0.0
C677 C 0.14046 0.10217 0.56382 0.0
C678 C 0.13745 0.12668 0.56458 0.0
C679 C 0.13442 0.13987 0.52296 0.0
C680 C 0.1344 0.12767 0.47953 0.0
C681 C 0.13702 0.1025 0.47818 0.0
C682 C 0.14051 0.08979 0.52096 0.0
H683 H 0.93003 0.65473 0.69758 0.0
H684 H 0.87829 0.61295 0.61824 0.0
H685 H 0.8562 0.60501 0.69218 0.0
H686 H 0.93668 0.61634 0.78531 0.0
H687 H 0.94018 0.63748 0.83295 0.0
H688 H 0.94767 0.6461 0.77364 0.0
H689 H 0.91849 0.68194 0.77826 0.0
H690 H 0.91103 0.67362 0.83815 0.0
H691 H 0.88773 0.67694 0.7944 0.0
H692 H 0.84574 0.59369 0.77437 0.0
H693 H 0.84742 0.58015 0.85735 0.0
H694 H 0.90631 0.62862 0.88456 0.0
C695 C 0.91351 0.64471 0.6953 0.0
C696 C 0.90588 0.63448 0.65198 0.0
C697 C 0.88438 0.62116 0.65081 0.0
C698 C 0.8717 0.61659 0.69273 0.0
C699 C 0.8806 0.62572 0.73531 0.0
C700 C 0.90087 0.63981 0.73677 0.0
C701 C 0.90904 0.64422 0.78727 0.0
C702 C 0.9349 0.63549 0.79521 0.0
C703 C 0.9064 0.67076 0.80028 0.0
C704 C 0.89123 0.62898 0.81401 0.0
C705 C 0.87457 0.61901 0.78344 0.0
C706 C 0.85823 0.6019 0.79875 0.0
C707 C 0.85941 0.59423 0.8459 0.0
C708 C 0.87687 0.60356 0.87728 0.0
C709 C 0.89239 0.62176 0.86158 0.0
H710 H 0.42783 0.36547 0.1049 0.0
H711 H 0.36342 0.38727 0.17805 0.0
H712 H 0.34169 0.38806 0.10174 0.0
H713 H 0.42385 0.40348 0.01611 0.0
H714 H 0.43506 0.38429 0.97001 0.0
H715 H 0.44336 0.37879 0.03035 0.0
H716 H 0.42715 0.33548 0.02411 0.0
H717 H 0.41874 0.34089 0.96332 0.0
H718 H 0.39677 0.33044 1.0051 0.0
H719 H 0.33058 0.39698 0.01865 0.0
H720 H 0.33097 0.41261 0.93686 0.0
H721 H 0.40171 0.38342 0.91615 0.0
C722 C 0.40891 0.36958 0.10506 0.0
C723 C 0.39729 0.37637 0.1473 0.0
C724 C 0.37261 0.38183 0.14615 0.0
C725 C 0.36013 0.38224 0.10293 0.0
C726 C 0.37247 0.37661 0.06148 0.0
C727 C 0.39626 0.36996 0.06237 0.0
C728 C 0.40649 0.36826 0.01289 0.0
C729 C 0.42845 0.38469 1.00704 0.0
C730 C 0.41264 0.34221 1.00064 0.0
C731 C 0.38536 0.37698 0.98409 0.0
C732 C 0.36566 0.38108 0.01265 0.0
C733 C 0.34545 0.39293 0.99561 0.0
C734 C 0.34578 0.40172 0.94912 0.0
C735 C 0.36606 0.39842 0.92015 0.0
C736 C 0.38561 0.38503 0.93709 0.0
H737 H 0.64491 0.94188 0.34376 0.0
H738 H 0.62954 0.87517 0.41633 0.0
H739 H 0.62877 0.8542 0.33949 0.0
H740 H 0.60576 0.93479 0.25446 0.0
H741 H 0.62384 0.9482 0.20882 0.0
H742 H 0.62838 0.95651 0.26946 0.0
H743 H 0.6731 0.94475 0.26278 0.0
H744 H 0.66853 0.9361 0.20193 0.0
H745 H 0.68106 0.91507 0.24361 0.0
H746 H 0.62103 0.84263 0.25627 0.0
H747 H 0.60575 0.84188 0.17417 0.0
H748 H 0.62816 0.91522 0.15445 0.0
C749 C 0.64198 0.92274 0.34365 0.0
C750 C 0.63723 0.91016 0.38602 0.0
C751 C 0.63328 0.88517 0.38432 0.0
C752 C 0.633 0.87308 0.34084 0.0
C753 C 0.63715 0.88615 0.29954 0.0
C754 C 0.64177 0.91043 0.30067 0.0
C755 C 0.64251 0.92101 0.25133 0.0
C756 C 0.62402 0.94129 0.24572 0.0
C757 C 0.66781 0.92974 0.2392 0.0
C758 C 0.63585 0.89925 0.22233 0.0
C759 C 0.63344 0.87915 0.25071 0.0
C760 C 0.62374 0.85792 0.23336 0.0
C761 C 0.61522 0.85758 0.18667 0.0
C762 C 0.6167 0.87823 0.15794 0.0
C763 C 0.62807 0.89891 0.17522 0.0
H764 H 0.13472 0.41803 0.66032 0.0
H765 H 0.11864 0.34293 0.67883 0.0
H766 H 0.13499 0.34429 0.75995 0.0
H767 H 0.18925 0.42074 0.74683 0.0
H768 H 0.17957 0.44972 0.76703 0.0
H769 H 0.17483 0.44109 0.70621 0.0
H770 H 0.12971 0.4502 0.71524 0.0
H771 H 0.13409 0.45835 0.77597 0.0
H772 H 0.11292 0.43524 0.76099 0.0
H773 H 0.14242 0.35592 0.84364 0.0
H774 H 0.14177 0.37659 0.92099 0.0
H775 H 0.15227 0.44444 0.84915 0.0
C776 C 0.13623 0.40158 0.68045 0.0
C777 C 0.12607 0.38025 0.66314 0.0
C778 C 0.12693 0.35929 0.69126 0.0
C779 C 0.13613 0.35993 0.73744 0.0
C780 C 0.14443 0.38169 0.75502 0.0
C781 C 0.14499 0.40211 0.72704 0.0
C782 C 0.15049 0.42405 0.75655 0.0
C783 C 0.175 0.43451 0.74337 0.0
C784 C 0.13061 0.44304 0.75191 0.0
C785 C 0.15105 0.41309 0.80561 0.0
C786 C 0.14823 0.38857 0.80403 0.0
C787 C 0.14535 0.37503 0.84529 0.0
C788 C 0.14491 0.38692 0.88912 0.0
C789 C 0.14695 0.41212 0.89119 0.0
C790 C 0.15081 0.42512 0.84888 0.0
H791 H 0.57912 0.6566 0.1311 0.0
H792 H 0.63234 0.61687 0.21102 0.0
H793 H 0.65361 0.60785 0.13668 0.0
H794 H 0.57223 0.61689 0.04526 0.0
H795 H 0.56809 0.63751 0.99678 0.0
H796 H 0.5609 0.64659 0.05592 0.0
H797 H 0.58953 0.68282 0.04875 0.0
H798 H 0.59668 0.67401 0.98905 0.0
H799 H 0.62023 0.67809 0.03197 0.0
H800 H 0.66336 0.59543 0.05469 0.0
H801 H 0.66145 0.58133 0.97214 0.0
H802 H 0.60193 0.62901 0.94449 0.0
C803 C 0.59576 0.64675 0.13329 0.0
C804 C 0.60408 0.63744 0.17696 0.0
C805 C 0.62572 0.62437 0.17811 0.0
C806 C 0.63794 0.61919 0.13599 0.0
C807 C 0.62846 0.62752 0.09322 0.0
C808 C 0.60802 0.64136 0.09167 0.0
C809 C 0.59944 0.64515 0.04123 0.0
C810 C 0.57366 0.63597 0.03444 0.0
C811 C 0.60161 0.67159 0.02691 0.0
C812 C 0.61727 0.6299 0.01474 0.0
C813 C 0.63421 0.62036 0.04529 0.0
C814 C 0.65065 0.60331 0.03027 0.0
C815 C 0.64934 0.59532 0.98339 0.0
C816 C 0.63168 0.60431 0.95201 0.0
C817 C 0.61601 0.6224 0.96746 0.0
H818 H 0.40548 0.13135 0.40041 0.0
H819 H 0.35498 0.074 0.37582 0.0
H820 H 0.35015 0.08706 0.2928 0.0
H821 H 0.3798 0.17611 0.30978 0.0
H822 H 0.40952 0.18512 0.29288 0.0
H823 H 0.40354 0.17621 0.3531 0.0
H824 H 0.43725 0.14451 0.34816 0.0
H825 H 0.44328 0.15331 0.2883 0.0
H826 H 0.43638 0.12251 0.30156 0.0
H827 H 0.35683 0.10053 0.21061 0.0
H828 H 0.37688 0.11094 0.13567 0.0
H829 H 0.42427 0.1588 0.21204 0.0
C830 C 0.39261 0.12236 0.37791 0.0
C831 C 0.38028 0.10201 0.39422 0.0
C832 C 0.36437 0.08982 0.36369 0.0
C833 C 0.36138 0.09723 0.31668 0.0
C834 C 0.37455 0.1168 0.30074 0.0
C835 C 0.38987 0.12925 0.33049 0.0
C836 C 0.40531 0.14653 0.30281 0.0
C837 C 0.39916 0.17254 0.31539 0.0
C838 C 0.43212 0.14138 0.31066 0.0
C839 C 0.39749 0.14063 0.2528 0.0
C840 C 0.3791 0.12411 0.2524 0.0
C841 C 0.37083 0.1139 0.21036 0.0
C842 C 0.38232 0.11992 0.1679 0.0
C843 C 0.40215 0.13563 0.16808 0.0
C844 C 0.40901 0.14688 0.21079 0.0
H845 H 0.89362 0.92042 0.70467 0.0
H846 H 0.89847 0.84352 0.69286 0.0
H847 H 0.88231 0.84559 0.61161 0.0
H848 H 0.84066 0.92998 0.61579 0.0
H849 H 0.8551 0.95658 0.59377 0.0
H850 H 0.85779 0.94857 0.65545 0.0
H851 H 0.90386 0.95024 0.64775 0.0
H852 H 0.90147 0.95751 0.58611 0.0
H853 H 0.91847 0.93168 0.60441 0.0
H854 H 0.87678 0.85643 0.52714 0.0
H855 H 0.88073 0.87501 0.44806 0.0
H856 H 0.88171 0.9452 0.51329 0.0
C857 C 0.88954 0.904 0.68604 0.0
C858 C 0.89648 0.88178 0.70519 0.0
C859 C 0.89251 0.86061 0.67904 0.0
C860 C 0.88344 0.86167 0.63278 0.0
C861 C 0.87858 0.88407 0.6132 0.0
C862 C 0.8811 0.9049 0.63933 0.0
C863 C 0.87953 0.92681 0.60778 0.0
C864 C 0.85692 0.94134 0.61886 0.0
C865 C 0.90218 0.94244 0.61176 0.0
C866 C 0.87766 0.91504 0.55973 0.0
C867 C 0.87636 0.89043 0.56356 0.0
C868 C 0.87712 0.87571 0.52371 0.0
C869 C 0.87953 0.88639 0.47893 0.0
C870 C 0.88162 0.91153 0.47453 0.0
C871 C 0.88008 0.92592 0.51547 0.0
H872 H 0.0843 0.13315 0.99958 0.0
H873 H 0.14078 0.08919 0.94087 0.0
H874 H 0.15735 0.08291 0.02093 0.0
H875 H 0.11986 0.16026 0.09657 0.0
H876 H 0.0954 0.15892 0.13789 0.0
H877 H 0.08948 0.16238 0.07547 0.0
H878 H 0.06233 0.12483 0.07721 0.0
H879 H 0.06814 0.12129 0.13952 0.0
H880 H 0.0742 0.09699 0.09945 0.0
H881 H 0.16616 0.07875 0.10743 0.0
H882 H 0.16548 0.07557 0.19458 0.0
H883 H 0.10292 0.12147 0.1983 0.0
C884 C 0.10044 0.12264 1.00355 0.0
C885 C 0.11137 0.11183 0.96389 0.0
C886 C 0.13214 0.0977 0.97067 0.0
C887 C 0.14176 0.09411 0.01603 0.0
C888 C 0.13039 0.10467 0.05448 0.0
C889 C 0.11016 0.11861 0.04883 0.0
C890 C 0.10032 0.12624 0.0965 0.0
C891 C 0.10133 0.15358 0.10191 0.0
C892 C 0.07474 0.11676 0.10357 0.0
C893 C 0.11789 0.11401 0.12971 0.0
C894 C 0.13527 0.10193 0.10469 0.0
C895 C 0.15279 0.08834 0.12744 0.0
C896 C 0.15226 0.08666 0.17702 0.0
C897 C 0.13426 0.09837 0.20345 0.0
C898 C 0.11713 0.11256 0.17929 0.0
H899 H 0.93907 0.63412 0.35518 0.0
H900 H 0.88327 0.58899 0.41345 0.0
H901 H 0.86709 0.58242 0.33322 0.0
H902 H 0.90318 0.66073 0.25832 0.0
H903 H 0.92766 0.66006 0.21698 0.0
H904 H 0.93352 0.66334 0.27943 0.0
H905 H 0.96135 0.62632 0.27727 0.0
H906 H 0.95559 0.62296 0.21492 0.0
H907 H 0.95 0.59837 0.25474 0.0
H908 H 0.85842 0.57839 0.24653 0.0
H909 H 0.85887 0.57598 0.15929 0.0
H910 H 0.92057 0.62306 0.15598 0.0
C911 C 0.92318 0.62325 0.35107 0.0
C912 C 0.91233 0.61222 0.39074 0.0
C913 C 0.89187 0.59768 0.38372 0.0
C914 C 0.88248 0.5939 0.33823 0.0
C915 C 0.89374 0.6047 0.29983 0.0
C916 C 0.91367 0.61905 0.30566 0.0
C917 C 0.92335 0.6271 0.25802 0.0
C918 C 0.92183 0.65443 0.2529 0.0
C919 C 0.94909 0.61815 0.25083 0.0
C920 C 0.90601 0.61468 0.22462 0.0
C921 C 0.88891 0.60209 0.24955 0.0
C922 C 0.87159 0.58836 0.22662 0.0
C923 C 0.87197 0.58712 0.17696 0.0
C924 C 0.88963 0.59943 0.15057 0.0
C925 C 0.90662 0.61369 0.17495 0.0
H926 H 0.40705 0.39195 0.64661 0.0
H927 H 0.34151 0.43347 0.64553 0.0
H928 H 0.33861 0.42839 0.55876 0.0
H929 H 0.431 0.41694 0.5435 0.0
H930 H 0.44466 0.38975 0.52265 0.0
H931 H 0.44006 0.39413 0.58504 0.0
H932 H 0.41617 0.35449 0.58937 0.0
H933 H 0.42072 0.34995 0.52688 0.0
H934 H 0.39086 0.35011 0.55067 0.0
H935 H 0.34454 0.42157 0.47179 0.0
H936 H 0.35933 0.41469 0.39085 0.0
H937 H 0.42151 0.37808 0.44791 0.0
C938 C 0.39179 0.39954 0.6283 0.0
C939 C 0.37435 0.41293 0.65297 0.0
C940 C 0.35499 0.42304 0.62747 0.0
C941 C 0.35317 0.42018 0.57819 0.0
C942 C 0.37087 0.40721 0.55488 0.0
C943 C 0.38983 0.39704 0.57908 0.0
C944 C 0.40744 0.38556 0.54526 0.0
C945 C 0.43225 0.39731 0.54936 0.0
C946 C 0.40887 0.35841 0.55354 0.0
C947 C 0.39569 0.39127 0.49812 0.0
C948 C 0.37448 0.40352 0.50456 0.0
C949 C 0.36099 0.41177 0.46636 0.0
C950 C 0.36958 0.40778 0.42045 0.0
C951 C 0.39153 0.39572 0.41291 0.0
C952 C 0.40451 0.38703 0.45241 0.0
H953 H 0.64081 0.9265 0.68837 0.0
H954 H 0.59658 0.86985 0.63037 0.0
H955 H 0.58749 0.85582 0.71122 0.0
H956 H 0.6638 0.89252 0.79252 0.0
H957 H 0.66245 0.91841 0.83037 0.0
H958 H 0.66804 0.922 0.76794 0.0
H959 H 0.63196 0.95089 0.76156 0.0
H960 H 0.62615 0.94726 0.82376 0.0
H961 H 0.60293 0.94101 0.78115 0.0
H962 H 0.57962 0.85062 0.79824 0.0
H963 H 0.57426 0.85431 0.88478 0.0
H964 H 0.62351 0.91432 0.8863 0.0
C965 C 0.62978 0.91073 0.69266 0.0
C966 C 0.61958 0.89915 0.65299 0.0
C967 C 0.60471 0.87894 0.66018 0.0
C968 C 0.59946 0.8708 0.70601 0.0
C969 C 0.60923 0.88302 0.74441 0.0
C970 C 0.62423 0.90245 0.73825 0.0
C971 C 0.63087 0.91354 0.78543 0.0
C972 C 0.6579 0.91148 0.7946 0.0
C973 C 0.62247 0.93972 0.78811 0.0
C974 C 0.61683 0.89768 0.81892 0.0
C975 C 0.60462 0.88005 0.79462 0.0
C976 C 0.58937 0.86413 0.81773 0.0
C977 C 0.58639 0.8664 0.86689 0.0
C978 C 0.59856 0.88448 0.89244 0.0
C979 C 0.61417 0.90009 0.86797 0.0
H980 H 0.12339 0.42462 0.39293 0.0
H981 H 0.0902 0.35443 0.39379 0.0
H982 H 0.09764 0.35079 0.30791 0.0
H983 H 0.09885 0.44366 0.28432 0.0
H984 H 0.12495 0.45995 0.26541 0.0
H985 H 0.11908 0.45609 0.32756 0.0
H986 H 0.16094 0.43707 0.33895 0.0
H987 H 0.16693 0.44083 0.27671 0.0
H988 H 0.16935 0.41165 0.30353 0.0
H989 H 0.10596 0.35599 0.22107 0.0
H990 H 0.11365 0.36991 0.13959 0.0
H991 H 0.14161 0.43677 0.19451 0.0
C992 C 0.11804 0.40829 0.37525 0.0
C993 C 0.10633 0.38972 0.4003 0.0
C994 C 0.09927 0.36885 0.37554 0.0
C995 C 0.10348 0.3666 0.32672 0.0
C996 C 0.11482 0.38534 0.30305 0.0
C997 C 0.12202 0.40579 0.32648 0.0
C998 C 0.13253 0.42392 0.29223 0.0
C999 C 0.11798 0.44728 0.2924 0.0
C1000 C 0.15901 0.42864 0.30354 0.0
C1001 C 0.1297 0.41066 0.24572 0.0
C1002 C 0.11963 0.38836 0.25287 0.0
C1003 C 0.1141 0.3733 0.21514 0.0
C1004 C 0.11854 0.38138 0.16891 0.0
C1005 C 0.12844 0.40435 0.16055 0.0
C1006 C 0.13447 0.41895 0.19969 0.0
H1007 H 0.62446 0.58585 0.65031 0.0
H1008 H 0.58689 0.64713 0.70763 0.0
H1009 H 0.57893 0.66175 0.62658 0.0
H1010 H 0.6505 0.61653 0.54587 0.0
H1011 H 0.6461 0.59095 0.50809 0.0
H1012 H 0.65136 0.58678 0.57056 0.0
H1013 H 0.61218 0.56228 0.5769 0.0
H1014 H 0.60675 0.56646 0.51461 0.0
H1015 H 0.58446 0.57539 0.55699 0.0
H1016 H 0.5721 0.66807 0.53939 0.0
H1017 H 0.56663 0.66534 0.45274 0.0
H1018 H 0.60794 0.59962 0.4515 0.0
C1019 C 0.6151 0.60266 0.6458 0.0
C1020 C 0.60652 0.61548 0.68542 0.0
C1021 C 0.59376 0.63706 0.67791 0.0
C1022 C 0.58918 0.64554 0.63195 0.0
C1023 C 0.59739 0.63223 0.59364 0.0
C1024 C 0.61014 0.61127 0.60002 0.0
C1025 C 0.61538 0.59946 0.55281 0.0
C1026 C 0.64245 0.59837 0.54381 0.0
C1027 C 0.60401 0.57442 0.5502 0.0
C1028 C 0.60319 0.61679 0.51906 0.0
C1029 C 0.59315 0.6357 0.54331 0.0
C1030 C 0.58011 0.65346 0.51999 0.0
C1031 C 0.57707 0.65175 0.4707 0.0
C1032 C 0.58691 0.63235 0.44511 0.0
C1033 C 0.60036 0.61482 0.46983 0.0
H1034 H 0.38194 0.08862 0.69652 0.0
H1035 H 0.41165 0.15485 0.64214 0.0
H1036 H 0.41842 0.16891 0.72387 0.0
H1037 H 0.35352 0.11445 0.80451 0.0
H1038 H 0.36119 0.08866 0.83982 0.0
H1039 H 0.35541 0.08536 0.77734 0.0
H1040 H 0.3968 0.06528 0.767 0.0
H1041 H 0.4028 0.06871 0.82921 0.0
H1042 H 0.4233 0.08087 0.78633 0.0
H1043 H 0.42653 0.17371 0.81099 0.0
H1044 H 0.43426 0.16924 0.89679 0.0
H1045 H 0.39939 0.09989 0.89456 0.0
C1046 C 0.38916 0.10639 0.70181 0.0
C1047 C 0.39605 0.12073 0.66287 0.0
C1048 C 0.40607 0.14361 0.67136 0.0
C1049 C 0.40998 0.15177 0.71771 0.0
C1050 C 0.40373 0.13688 0.75531 0.0
C1051 C 0.39332 0.11475 0.7479 0.0
C1052 C 0.39011 0.10139 0.79423 0.0
C1053 C 0.36347 0.09723 0.80458 0.0
C1054 C 0.40409 0.07767 0.79416 0.0
C1055 C 0.40093 0.11917 0.82863 0.0
C1056 C 0.40848 0.13963 0.80557 0.0
C1057 C 0.42035 0.15794 0.82954 0.0
C1058 C 0.42473 0.15521 0.87827 0.0
C1059 C 0.41731 0.13431 0.90254 0.0
C1060 C 0.40502 0.11624 0.87725 0.0
H1061 H 0.88284 0.9298 0.17065 0.0
H1062 H 0.90985 0.86189 0.2227 0.0
H1063 H 0.91782 0.84914 0.14062 0.0
H1064 H 0.85569 0.90664 0.05903 0.0
H1065 H 0.86456 0.9328 0.02604 0.0
H1066 H 0.85792 0.9352 0.08826 0.0
H1067 H 0.89964 0.95396 0.10284 0.0
H1068 H 0.90652 0.95139 0.04089 0.0
H1069 H 0.92601 0.93799 0.0844 0.0
H1070 H 0.92713 0.84555 0.05371 0.0
H1071 H 0.93571 0.85097 0.96853 0.0
H1072 H 0.90282 0.92123 0.973 0.0
C1073 C 0.88972 0.91195 0.16471 0.0
C1074 C 0.89549 0.89675 0.20317 0.0
C1075 C 0.90512 0.87379 0.19386 0.0
C1076 C 0.90972 0.86638 0.1473 0.0
C1077 C 0.90457 0.8821 0.11029 0.0
C1078 C 0.89457 0.90433 0.11841 0.0
C1079 C 0.89243 0.91852 0.07277 0.0
C1080 C 0.86608 0.92358 0.06082 0.0
C1081 C 0.90702 0.94183 0.07541 0.0
C1082 C 0.90331 0.90104 0.03796 0.0
C1083 C 0.91003 0.88006 0.06021 0.0
C1084 C 0.92163 0.86178 0.03579 0.0
C1085 C 0.9265 0.86504 0.98742 0.0
C1086 C 0.91985 0.88645 0.96393 0.0
C1087 C 0.90792 0.90453 0.9897 0.0
loop_
_geom_bond_atom_site_label_1
_geom_bond_atom_site_label_2
_geom_bond_distance
_geom_bond_site_symmetry_2
_ccdc_geom_bond_type
O0 Cd1 2.223 . S
O0 C8 1.315 . S
Cd1 O0 2.223 . S
Cd1 O4 2.297 . S
Cd1 O5 2.439 . S
Cd1 O11 2.240 . S
Cd2 O3 2.240 . S
Cd2 O10 2.223 . S
Cd2 O12 2.297 . S
Cd2 O13 2.439 . S
O3 Cd2 2.240 . S
O3 C8 1.279 . S
O4 Cd1 2.297 . S
O4 C6 1.247 . S
O5 Cd1 2.439 . S
O5 C6 1.208 . S
C6 O4 1.247 . S
C6 O5 1.208 . S
C7 O12 1.247 . S
C7 O13 1.208 . S
C8 O0 1.315 . S
C8 O3 1.279 . S
C9 O10 1.315 . S
C9 O11 1.279 . S
O10 Cd2 2.223 . S
O10 C9 1.315 . S
O11 Cd1 2.240 . S
O11 C9 1.279 . S
O12 Cd2 2.297 . S
O12 C7 1.247 . S
O13 Cd2 2.439 . S
O13 C7 1.208 . S
O14 Cd15 2.223 . S
O14 C22 1.315 . S
Cd15 O14 2.223 . S
Cd15 O18 2.297 . S
Cd15 O19 2.439 . S
Cd15 O25 2.240 . S
Cd16 O17 2.240 . S
Cd16 O24 2.223 . S
Cd16 O26 2.297 . S
Cd16 O27 2.439 . S
O17 Cd16 2.240 . S
O17 C22 1.279 . S
O18 Cd15 2.297 . S
O18 C20 1.247 . S
O19 Cd15 2.439 . S
O19 C20 1.208 . S
C20 O18 1.247 . S
C20 O19 1.208 . S
C21 O26 1.247 . S
C21 O27 1.208 . S
C22 O14 1.315 . S
C22 O17 1.279 . S
C23 O24 1.315 . S
C23 O25 1.279 . S
O24 Cd16 2.223 . S
O24 C23 1.315 . S
O25 Cd15 2.240 . S
O25 C23 1.279 . S
O26 Cd16 2.297 . S
O26 C21 1.247 . S
O27 Cd16 2.439 . S
O27 C21 1.208 . S
O28 Cd29 2.223 . S
O28 C36 1.315 . S
Cd29 O28 2.223 . S
Cd29 O32 2.297 . S
Cd29 O33 2.439 . S
Cd29 O39 2.240 . S
Cd30 O31 2.240 . S
Cd30 O38 2.223 . S
Cd30 O40 2.297 . S
Cd30 O41 2.439 . S
O31 Cd30 2.240 . S
O31 C36 1.279 . S
O32 Cd29 2.297 . S
O32 C34 1.247 . S
O33 Cd29 2.439 . S
O33 C34 1.208 . S
C34 O32 1.247 . S
C34 O33 1.208 . S
C35 O40 1.247 . S
C35 O41 1.208 . S
C36 O28 1.315 . S
C36 O31 1.279 . S
C37 O38 1.315 . S
C37 O39 1.279 . S
O38 Cd30 2.223 . S
O38 C37 1.315 . S
O39 Cd29 2.240 . S
O39 C37 1.279 . S
O40 Cd30 2.297 . S
O40 C35 1.247 . S
O41 Cd30 2.439 . S
O41 C35 1.208 . S
O42 Cd43 2.223 . S
O42 C50 1.315 . S
Cd43 O42 2.223 . S
Cd43 O46 2.297 . S
Cd43 O47 2.439 . S
Cd43 O53 2.240 . S
Cd44 O45 2.240 . S
Cd44 O52 2.223 . S
Cd44 O54 2.297 1_554 S
Cd44 O55 2.439 1_554 S
O45 Cd44 2.240 . S
O45 C50 1.279 . S
O46 Cd43 2.297 . S
O46 C48 1.247 . S
O47 Cd43 2.439 . S
O47 C48 1.208 . S
C48 O46 1.247 . S
C48 O47 1.208 . S
C49 O54 1.247 . S
C49 O55 1.208 . S
C50 O42 1.315 . S
C50 O45 1.279 . S
C51 O52 1.315 . S
C51 O53 1.279 . S
O52 Cd44 2.223 . S
O52 C51 1.315 . S
O53 Cd43 2.240 . S
O53 C51 1.279 . S
O54 Cd44 2.297 1_556 S
O54 C49 1.247 . S
O55 Cd44 2.439 1_556 S
O55 C49 1.208 . S
O56 Cd57 2.223 . S
O56 C64 1.315 . S
Cd57 O56 2.223 . S
Cd57 O60 2.297 . S
Cd57 O61 2.439 1_556 S
Cd57 O67 2.240 1_556 S
Cd58 O59 2.240 1_554 S
Cd58 O66 2.223 . S
Cd58 O68 2.297 . S
Cd58 O69 2.439 . S
O59 Cd58 2.240 1_556 S
O59 C64 1.279 . S
O60 Cd57 2.297 . S
O60 C62 1.247 . S
O61 Cd57 2.439 1_554 S
O61 C62 1.208 1_554 S
C62 O60 1.247 . S
C62 O61 1.208 1_556 S
C63 O68 1.247 . S
C63 O69 1.208 . S
C64 O56 1.315 . S
C64 O59 1.279 . S
C65 O66 1.315 . S
C65 O67 1.279 . S
O66 Cd58 2.223 . S
O66 C65 1.315 . S
O67 Cd57 2.240 1_554 S
O67 C65 1.279 . S
O68 Cd58 2.297 . S
O68 C63 1.247 . S
O69 Cd58 2.439 . S
O69 C63 1.208 . S
O70 Cd71 2.223 . S
O70 C78 1.315 . S
Cd71 O70 2.223 . S
Cd71 O74 2.297 . S
Cd71 O75 2.439 . S
Cd71 O81 2.240 . S
Cd72 O73 2.240 . S
Cd72 O80 2.223 . S
Cd72 O82 2.297 . S
Cd72 O83 2.439 . S
O73 Cd72 2.240 . S
O73 C78 1.279 . S
O74 Cd71 2.297 . S
O74 C76 1.247 . S
O75 Cd71 2.439 . S
O75 C76 1.208 . S
C76 O74 1.247 . S
C76 O75 1.208 . S
C77 O82 1.247 . S
C77 O83 1.208 . S
C78 O70 1.315 . S
C78 O73 1.279 . S
C79 O80 1.315 . S
C79 O81 1.279 . S
O80 Cd72 2.223 . S
O80 C79 1.315 . S
O81 Cd71 2.240 . S
O81 C79 1.279 . S
O82 Cd72 2.297 . S
O82 C77 1.247 . S
O83 Cd72 2.439 . S
O83 C77 1.208 . S
O84 Cd85 2.223 . S
O84 C92 1.315 . S
Cd85 O84 2.223 . S
Cd85 O88 2.297 . S
Cd85 O89 2.439 . S
Cd85 O95 2.240 . S
Cd86 O87 2.240 . S
Cd86 O94 2.223 . S
Cd86 O96 2.297 . S
Cd86 O97 2.439 . S
O87 Cd86 2.240 . S
O87 C92 1.279 . S
O88 Cd85 2.297 . S
O88 C90 1.247 . S
O89 Cd85 2.439 . S
O89 C90 1.208 . S
C90 O88 1.247 . S
C90 O89 1.208 . S
C91 O96 1.247 . S
C91 O97 1.208 . S
C92 O84 1.315 . S
C92 O87 1.279 . S
C93 O94 1.315 . S
C93 O95 1.279 . S
O94 Cd86 2.223 . S
O94 C93 1.315 . S
O95 Cd85 2.240 . S
O95 C93 1.279 . S
O96 Cd86 2.297 . S
O96 C91 1.247 . S
O97 Cd86 2.439 . S
O97 C91 1.208 . S
O98 Cd99 2.223 . S
O98 C106 1.315 . S
Cd99 O98 2.223 . S
Cd99 O102 2.297 . S
Cd99 O103 2.439 . S
Cd99 O109 2.240 . S
Cd100 O101 2.240 . S
Cd100 O108 2.223 . S
Cd100 O110 2.297 . S
Cd100 O111 2.439 . S
O101 Cd100 2.240 . S
O101 C106 1.279 . S
O102 Cd99 2.297 . S
O102 C104 1.247 . S
O103 Cd99 2.439 . S
O103 C104 1.208 . S
C104 O102 1.247 . S
C104 O103 1.208 . S
C105 O110 1.247 . S
C105 O111 1.208 . S
C106 O98 1.315 . S
C106 O101 1.279 . S
C107 O108 1.315 . S
C107 O109 1.279 . S
O108 Cd100 2.223 . S
O108 C107 1.315 . S
O109 Cd99 2.240 . S
O109 C107 1.279 . S
O110 Cd100 2.297 . S
O110 C105 1.247 . S
O111 Cd100 2.439 . S
O111 C105 1.208 . S
O112 Cd113 2.223 . S
O112 C120 1.315 . S
Cd113 O112 2.223 . S
Cd113 O116 2.297 . S
Cd113 O117 2.439 . S
Cd113 O123 2.240 . S
Cd114 O115 2.240 . S
Cd114 O122 2.223 . S
Cd114 O124 2.297 . S
Cd114 O125 2.439 . S
O115 Cd114 2.240 . S
O115 C120 1.279 . S
O116 Cd113 2.297 . S
O116 C118 1.247 . S
O117 Cd113 2.439 . S
O117 C118 1.208 . S
C118 O116 1.247 . S
C118 O117 1.208 . S
C119 O124 1.247 . S
C119 O125 1.208 . S
C120 O112 1.315 . S
C120 O115 1.279 . S
C121 O122 1.315 . S
C121 O123 1.279 . S
O122 Cd114 2.223 . S
O122 C121 1.315 . S
O123 Cd113 2.240 . S
O123 C121 1.279 . S
O124 Cd114 2.297 . S
O124 C119 1.247 . S
O125 Cd114 2.439 . S
O125 C119 1.208 . S
O126 Cd127 2.223 . S
O126 C134 1.315 . S
Cd127 O126 2.223 . S
Cd127 O130 2.297 . S
Cd127 O131 2.439 . S
Cd127 O137 2.240 . S
Cd128 O129 2.240 . S
Cd128 O136 2.223 . S
Cd128 O138 2.297 1_554 S
Cd128 O139 2.439 1_554 S
O129 Cd128 2.240 . S
O129 C134 1.279 . S
O130 Cd127 2.297 . S
O130 C132 1.247 . S
O131 Cd127 2.439 . S
O131 C132 1.208 . S
C132 O130 1.247 . S
C132 O131 1.208 . S
C133 O138 1.247 . S
C133 O139 1.208 . S
C134 O126 1.315 . S
C134 O129 1.279 . S
C135 O136 1.315 . S
C135 O137 1.279 . S
O136 Cd128 2.223 . S
O136 C135 1.315 . S
O137 Cd127 2.240 . S
O137 C135 1.279 . S
O138 Cd128 2.297 1_556 S
O138 C133 1.247 . S
O139 Cd128 2.439 1_556 S
O139 C133 1.208 . S
O140 Cd141 2.223 . S
O140 C148 1.315 . S
Cd141 O140 2.223 . S
Cd141 O144 2.297 . S
Cd141 O145 2.439 . S
Cd141 O151 2.240 . S
Cd142 O143 2.240 . S
Cd142 O150 2.223 . S
Cd142 O152 2.297 . S
Cd142 O153 2.439 . S
O143 Cd142 2.240 . S
O143 C148 1.279 . S
O144 Cd141 2.297 . S
O144 C146 1.247 . S
O145 Cd141 2.439 . S
O145 C146 1.208 . S
C146 O144 1.247 . S
C146 O145 1.208 . S
C147 O152 1.247 . S
C147 O153 1.208 . S
C148 O140 1.315 . S
C148 O143 1.279 . S
C149 O150 1.315 . S
C149 O151 1.279 . S
O150 Cd142 2.223 . S
O150 C149 1.315 . S
O151 Cd141 2.240 . S
O151 C149 1.279 . S
O152 Cd142 2.297 . S
O152 C147 1.247 . S
O153 Cd142 2.439 . S
O153 C147 1.208 . S
O154 Cd155 2.223 . S
O154 C162 1.315 . S
Cd155 O154 2.223 . S
Cd155 O158 2.297 . S
Cd155 O159 2.439 . S
Cd155 O165 2.240 . S
Cd156 O157 2.240 . S
Cd156 O164 2.223 . S
Cd156 O166 2.297 . S
Cd156 O167 2.439 . S
O157 Cd156 2.240 . S
O157 C162 1.279 . S
O158 Cd155 2.297 . S
O158 C160 1.247 . S
O159 Cd155 2.439 . S
O159 C160 1.208 . S
C160 O158 1.247 . S
C160 O159 1.208 . S
C161 O166 1.247 . S
C161 O167 1.208 . S
C162 O154 1.315 . S
C162 O157 1.279 . S
C163 O164 1.315 . S
C163 O165 1.279 . S
O164 Cd156 2.223 . S
O164 C163 1.315 . S
O165 Cd155 2.240 . S
O165 C163 1.279 . S
O166 Cd156 2.297 . S
O166 C161 1.247 . S
O167 Cd156 2.439 . S
O167 C161 1.208 . S
O168 Cd169 2.223 . S
O168 C176 1.315 . S
Cd169 O168 2.223 . S
Cd169 O172 2.297 . S
Cd169 O173 2.439 . S
Cd169 O179 2.240 . S
Cd170 O171 2.240 . S
Cd170 O178 2.223 . S
Cd170 O180 2.297 . S
Cd170 O181 2.439 . S
O171 Cd170 2.240 . S
O171 C176 1.279 . S
O172 Cd169 2.297 . S
O172 C174 1.247 . S
O173 Cd169 2.439 . S
O173 C174 1.208 . S
C174 O172 1.247 . S
C174 O173 1.208 . S
C175 O180 1.247 . S
C175 O181 1.208 . S
C176 O168 1.315 . S
C176 O171 1.279 . S
C177 O178 1.315 . S
C177 O179 1.279 . S
O178 Cd170 2.223 . S
O178 C177 1.315 . S
O179 Cd169 2.240 . S
O179 C177 1.279 . S
O180 Cd170 2.297 . S
O180 C175 1.247 . S
O181 Cd170 2.439 . S
O181 C175 1.208 . S
O182 Cd183 2.223 . S
O182 C190 1.315 . S
Cd183 O182 2.223 . S
Cd183 O186 2.297 . S
Cd183 O187 2.439 . S
Cd183 O193 2.240 . S
Cd184 O185 2.240 . S
Cd184 O192 2.223 . S
Cd184 O194 2.297 . S
Cd184 O195 2.439 . S
O185 Cd184 2.240 . S
O185 C190 1.279 . S
O186 Cd183 2.297 . S
O186 C188 1.247 . S
O187 Cd183 2.439 . S
O187 C188 1.208 . S
C188 O186 1.247 . S
C188 O187 1.208 . S
C189 O194 1.247 . S
C189 O195 1.208 . S
C190 O182 1.315 . S
C190 O185 1.279 . S
C191 O192 1.315 . S
C191 O193 1.279 . S
O192 Cd184 2.223 . S
O192 C191 1.315 . S
O193 Cd183 2.240 . S
O193 C191 1.279 . S
O194 Cd184 2.297 . S
O194 C189 1.247 . S
O195 Cd184 2.439 . S
O195 C189 1.208 . S
O196 Cd197 2.223 . S
O196 C204 1.315 . S
Cd197 O196 2.223 . S
Cd197 O200 2.297 . S
Cd197 O201 2.439 1_556 S
Cd197 O207 2.240 1_556 S
Cd198 O199 2.240 1_554 S
Cd198 O206 2.223 . S
Cd198 O208 2.297 . S
Cd198 O209 2.439 . S
O199 Cd198 2.240 1_556 S
O199 C204 1.279 . S
O200 Cd197 2.297 . S
O200 C202 1.247 . S
O201 Cd197 2.439 1_554 S
O201 C202 1.208 1_554 S
C202 O200 1.247 . S
C202 O201 1.208 1_556 S
C203 O208 1.247 . S
C203 O209 1.208 . S
C204 O196 1.315 . S
C204 O199 1.279 . S
C205 O206 1.315 . S
C205 O207 1.279 . S
O206 Cd198 2.223 . S
O206 C205 1.315 . S
O207 Cd197 2.240 1_554 S
O207 C205 1.279 . S
O208 Cd198 2.297 . S
O208 C203 1.247 . S
O209 Cd198 2.439 . S
O209 C203 1.208 . S
O210 Cd211 2.223 . S
O210 C218 1.315 . S
Cd211 O210 2.223 . S
Cd211 O214 2.297 . S
Cd211 O215 2.439 . S
Cd211 O221 2.240 . S
Cd212 O213 2.240 . S
Cd212 O220 2.223 . S
Cd212 O222 2.297 . S
Cd212 O223 2.439 . S
O213 Cd212 2.240 . S
O213 C218 1.279 . S
O214 Cd211 2.297 . S
O214 C216 1.247 . S
O215 Cd211 2.439 . S
O215 C216 1.208 . S
C216 O214 1.247 . S
C216 O215 1.208 . S
C217 O222 1.247 . S
C217 O223 1.208 . S
C218 O210 1.315 . S
C218 O213 1.279 . S
C219 O220 1.315 . S
C219 O221 1.279 . S
O220 Cd212 2.223 . S
O220 C219 1.315 . S
O221 Cd211 2.240 . S
O221 C219 1.279 . S
O222 Cd212 2.297 . S
O222 C217 1.247 . S
O223 Cd212 2.439 . S
O223 C217 1.208 . S
H224 C236 0.930 . S
H225 C238 0.930 . S
H226 C239 0.930 . S
H227 C243 0.959 . S
H228 C243 0.959 . S
H229 C243 0.961 . S
H230 C244 0.960 1_565 S
H231 C244 0.961 1_565 S
H232 C244 0.959 . S
H233 C247 0.929 . S
H234 C248 0.931 . S
H235 C250 0.930 . S
C236 H224 0.930 . S
C236 C237 1.399 . S
C236 C241 1.399 . S
C237 C236 1.399 . S
C237 C238 1.376 . S
C238 H225 0.930 . S
C238 C237 1.376 . S
C238 C239 1.388 . S
C239 H226 0.930 . S
C239 C238 1.388 . S
C239 C240 1.390 . S
C240 C239 1.390 . S
C240 C241 1.394 . S
C240 C246 1.465 . S
C241 C236 1.399 . S
C241 C240 1.394 . S
C241 C242 1.516 . S
C242 C241 1.516 . S
C242 C243 1.502 . S
C242 C244 1.561 . S
C242 C245 1.526 . S
C243 H227 0.959 . S
C243 H228 0.959 . S
C243 H229 0.961 . S
C243 C242 1.502 . S
C244 H230 0.960 1_545 S
C244 H231 0.961 1_545 S
C244 H232 0.959 . S
C244 C242 1.561 . S
C245 C242 1.526 . S
C245 C246 1.396 . S
C245 C250 1.390 . S
C246 C240 1.465 . S
C246 C245 1.396 . S
C246 C247 1.399 . S
C247 H233 0.929 . S
C247 C246 1.399 . S
C247 C248 1.385 . S
C248 H234 0.931 . S
C248 C247 1.385 . S
C248 C249 1.389 . S
C249 C248 1.389 . S
C249 C250 1.387 . S
C250 H235 0.930 . S
C250 C245 1.390 . S
C250 C249 1.387 . S
H251 C263 0.930 . S
H252 C265 0.930 . S
H253 C266 0.930 . S
H254 C270 0.959 . S
H255 C270 0.959 . S
H256 C270 0.961 . S
H257 C271 0.960 . S
H258 C271 0.961 . S
H259 C271 0.959 . S
H260 C274 0.929 . S
H261 C275 0.931 . S
H262 C277 0.930 . S
C263 H251 0.930 . S
C263 C264 1.399 . S
C263 C268 1.399 . S
C264 C263 1.399 . S
C264 C265 1.376 . S
C265 H252 0.930 . S
C265 C264 1.376 . S
C265 C266 1.388 . S
C266 H253 0.930 . S
C266 C265 1.388 . S
C266 C267 1.390 . S
C267 C266 1.390 . S
C267 C268 1.394 . S
C267 C273 1.465 . S
C268 C263 1.399 . S
C268 C267 1.394 . S
C268 C269 1.516 . S
C269 C268 1.516 . S
C269 C270 1.502 . S
C269 C271 1.561 . S
C269 C272 1.526 . S
C270 H254 0.959 . S
C270 H255 0.959 . S
C270 H256 0.961 . S
C270 C269 1.502 . S
C271 H257 0.960 . S
C271 H258 0.961 . S
C271 H259 0.959 . S
C271 C269 1.561 . S
C272 C269 1.526 . S
C272 C273 1.396 . S
C272 C277 1.390 . S
C273 C267 1.465 . S
C273 C272 1.396 . S
C273 C274 1.399 . S
C274 H260 0.929 . S
C274 C273 1.399 . S
C274 C275 1.385 . S
C275 H261 0.931 . S
C275 C274 1.385 . S
C275 C276 1.389 . S
C276 C275 1.389 . S
C276 C277 1.387 . S
C277 H262 0.930 . S
C277 C272 1.390 . S
C277 C276 1.387 . S
H278 C290 0.930 . S
H279 C292 0.930 . S
H280 C293 0.930 . S
H281 C297 0.959 . S
H282 C297 0.959 . S
H283 C297 0.961 . S
H284 C298 0.960 . S
H285 C298 0.961 . S
H286 C298 0.959 . S
H287 C301 0.917 1_554 S
H288 C302 0.931 1_554 S
H289 C304 0.930 . S
C290 H278 0.930 . S
C290 C291 1.399 . S
C290 C295 1.399 . S
C291 C290 1.399 . S
C291 C292 1.376 . S
C292 H279 0.930 . S
C292 C291 1.376 . S
C292 C293 1.388 . S
C293 H280 0.930 . S
C293 C292 1.388 . S
C293 C294 1.390 . S
C294 C293 1.390 . S
C294 C295 1.394 . S
C294 C300 1.465 . S
C295 C290 1.399 . S
C295 C294 1.394 . S
C295 C296 1.516 . S
C296 C295 1.516 . S
C296 C297 1.502 . S
C296 C298 1.561 . S
C296 C299 1.526 . S
C297 H281 0.959 . S
C297 H282 0.959 . S
C297 H283 0.961 . S
C297 C296 1.502 . S
C298 H284 0.960 . S
C298 H285 0.961 . S
C298 H286 0.959 . S
C298 C296 1.561 . S
C299 C296 1.526 . S
C299 C300 1.396 . S
C299 C304 1.390 . S
C300 C294 1.465 . S
C300 C299 1.396 . S
C300 C301 1.399 . S
C301 H287 0.917 1_556 S
C301 C300 1.399 . S
C301 C302 1.385 . S
C302 H288 0.931 1_556 S
C302 C301 1.385 . S
C302 C303 1.389 . S
C303 C302 1.389 . S
C303 C304 1.387 . S
C304 H289 0.930 . S
C304 C299 1.390 . S
C304 C303 1.387 . S
H305 C317 0.930 . S
H306 C319 0.930 . S
H307 C320 0.930 . S
H308 C324 0.959 . S
H309 C324 0.959 . S
H310 C324 0.961 . S
H311 C325 0.960 . S
H312 C325 0.961 . S
H313 C325 0.959 . S
H314 C328 0.929 . S
H315 C329 0.931 . S
H316 C331 0.930 . S
C317 H305 0.930 . S
C317 C318 1.399 . S
C317 C322 1.399 . S
C318 C317 1.399 . S
C318 C319 1.376 . S
C319 H306 0.930 . S
C319 C318 1.376 . S
C319 C320 1.388 . S
C320 H307 0.930 . S
C320 C319 1.388 . S
C320 C321 1.390 . S
C321 C320 1.390 . S
C321 C322 1.394 . S
C321 C327 1.465 . S
C322 C317 1.399 . S
C322 C321 1.394 . S
C322 C323 1.516 . S
C323 C322 1.516 . S
C323 C324 1.502 . S
C323 C325 1.561 . S
C323 C326 1.526 . S
C324 H308 0.959 . S
C324 H309 0.959 . S
C324 H310 0.961 . S
C324 C323 1.502 . S
C325 H311 0.960 . S
C325 H312 0.961 . S
C325 H313 0.959 . S
C325 C323 1.561 . S
C326 C323 1.526 . S
C326 C327 1.396 . S
C326 C331 1.390 . S
C327 C321 1.465 . S
C327 C326 1.396 . S
C327 C328 1.399 . S
C328 H314 0.929 . S
C328 C327 1.399 . S
C328 C329 1.385 . S
C329 H315 0.931 . S
C329 C328 1.385 . S
C329 C330 1.389 . S
C330 C329 1.389 . S
C330 C331 1.387 . S
C331 H316 0.930 . S
C331 C326 1.390 . S
C331 C330 1.387 . S
H332 C344 0.930 . S
H333 C346 0.930 . S
H334 C347 0.930 . S
H335 C351 0.959 . S
H336 C351 0.959 . S
H337 C351 0.961 . S
H338 C352 0.960 . S
H339 C352 0.961 . S
H340 C352 0.959 . S
H341 C355 0.929 . S
H342 C356 0.931 1_554 S
H343 C358 0.930 . S
C344 H332 0.930 . S
C344 C345 1.399 . S
C344 C349 1.399 . S
C345 C344 1.399 . S
C345 C346 1.376 . S
C346 H333 0.930 . S
C346 C345 1.376 . S
C346 C347 1.388 . S
C347 H334 0.930 . S
C347 C346 1.388 . S
C347 C348 1.390 . S
C348 C347 1.390 . S
C348 C349 1.394 . S
C348 C354 1.465 . S
C349 C344 1.399 . S
C349 C348 1.394 . S
C349 C350 1.516 . S
C350 C349 1.516 . S
C350 C351 1.502 . S
C350 C352 1.561 . S
C350 C353 1.526 . S
C351 H335 0.959 . S
C351 H336 0.959 . S
C351 H337 0.961 . S
C351 C350 1.502 . S
C352 H338 0.960 . S
C352 H339 0.961 . S
C352 H340 0.959 . S
C352 C350 1.561 . S
C353 C350 1.526 . S
C353 C354 1.396 . S
C353 C358 1.390 . S
C354 C348 1.465 . S
C354 C353 1.396 . S
C354 C355 1.399 . S
C355 H341 0.929 . S
C355 C354 1.399 . S
C355 C356 1.385 . S
C356 H342 0.931 1_556 S
C356 C355 1.385 . S
C356 C357 1.389 . S
C357 C356 1.389 . S
C357 C358 1.387 . S
C358 H343 0.930 . S
C358 C353 1.390 . S
C358 C357 1.387 . S
H359 C371 0.930 . S
H360 C373 0.930 . S
H361 C374 0.930 . S
H362 C378 0.959 . S
H363 C378 0.959 . S
H364 C378 0.961 . S
H365 C379 0.960 . S
H366 C379 0.961 . S
H367 C379 0.959 . S
H368 C382 0.929 . S
H369 C383 0.931 . S
H370 C385 0.930 . S
C371 H359 0.930 . S
C371 C372 1.399 . S
C371 C376 1.399 . S
C372 C371 1.399 . S
C372 C373 1.376 . S
C373 H360 0.930 . S
C373 C372 1.376 . S
C373 C374 1.388 . S
C374 H361 0.930 . S
C374 C373 1.388 . S
C374 C375 1.390 . S
C375 C374 1.390 . S
C375 C376 1.394 . S
C375 C381 1.465 . S
C376 C371 1.399 . S
C376 C375 1.394 . S
C376 C377 1.516 . S
C377 C376 1.516 . S
C377 C378 1.502 . S
C377 C379 1.561 . S
C377 C380 1.526 . S
C378 H362 0.959 . S
C378 H363 0.959 . S
C378 H364 0.961 . S
C378 C377 1.502 . S
C379 H365 0.960 . S
C379 H366 0.961 . S
C379 H367 0.959 . S
C379 C377 1.561 . S
C380 C377 1.526 . S
C380 C381 1.396 . S
C380 C385 1.390 . S
C381 C375 1.465 . S
C381 C380 1.396 . S
C381 C382 1.399 . S
C382 H368 0.929 . S
C382 C381 1.399 . S
C382 C383 1.385 . S
C383 H369 0.931 . S
C383 C382 1.385 . S
C383 C384 1.389 . S
C384 C383 1.389 . S
C384 C385 1.387 . S
C385 H370 0.930 . S
C385 C380 1.390 . S
C385 C384 1.387 . S
H386 C398 0.930 . S
H387 C400 0.930 . S
H388 C401 0.930 . S
H389 C405 0.959 . S
H390 C405 0.959 . S
H391 C405 0.961 . S
H392 C406 0.960 1_545 S
H393 C406 0.961 1_545 S
H394 C406 0.959 . S
H395 C409 0.929 . S
H396 C410 0.931 . S
H397 C412 0.930 . S
C398 H386 0.930 . S
C398 C399 1.399 . S
C398 C403 1.399 . S
C399 C398 1.399 . S
C399 C400 1.376 . S
C400 H387 0.930 . S
C400 C399 1.376 . S
C400 C401 1.388 . S
C401 H388 0.930 . S
C401 C400 1.388 . S
C401 C402 1.390 . S
C402 C401 1.390 . S
C402 C403 1.394 . S
C402 C408 1.465 . S
C403 C398 1.399 . S
C403 C402 1.394 . S
C403 C404 1.516 . S
C404 C403 1.516 . S
C404 C405 1.502 . S
C404 C406 1.561 . S
C404 C407 1.526 . S
C405 H389 0.959 . S
C405 H390 0.959 . S
C405 H391 0.961 . S
C405 C404 1.502 . S
C406 H392 0.960 1_565 S
C406 H393 0.961 1_565 S
C406 H394 0.959 . S
C406 C404 1.561 . S
C407 C404 1.526 . S
C407 C408 1.396 . S
C407 C412 1.390 . S
C408 C402 1.465 . S
C408 C407 1.396 . S
C408 C409 1.399 . S
C409 H395 0.929 . S
C409 C408 1.399 . S
C409 C410 1.385 . S
C410 H396 0.931 . S
C410 C409 1.385 . S
C410 C411 1.389 . S
C411 C410 1.389 . S
C411 C412 1.387 . S
C412 H397 0.930 . S
C412 C407 1.390 . S
C412 C411 1.387 . S
H413 C425 0.930 . S
H414 C427 0.930 . S
H415 C428 0.930 . S
H416 C432 0.959 . S
H417 C432 0.959 . S
H418 C432 0.961 . S
H419 C433 0.960 . S
H420 C433 0.961 . S
H421 C433 0.959 . S
H422 C436 0.929 . S
H423 C437 0.931 . S
H424 C439 0.930 . S
C425 H413 0.930 . S
C425 C426 1.399 . S
C425 C430 1.399 . S
C426 C425 1.399 . S
C426 C427 1.376 . S
C427 H414 0.930 . S
C427 C426 1.376 . S
C427 C428 1.388 . S
C428 H415 0.930 . S
C428 C427 1.388 . S
C428 C429 1.390 . S
C429 C428 1.390 . S
C429 C430 1.394 . S
C429 C435 1.465 . S
C430 C425 1.399 . S
C430 C429 1.394 . S
C430 C431 1.516 . S
C431 C430 1.516 . S
C431 C432 1.502 . S
C431 C433 1.561 . S
C431 C434 1.526 . S
C432 H416 0.959 . S
C432 H417 0.959 . S
C432 H418 0.961 . S
C432 C431 1.502 . S
C433 H419 0.960 . S
C433 H420 0.961 . S
C433 H421 0.959 . S
C433 C431 1.561 . S
C434 C431 1.526 . S
C434 C435 1.396 . S
C434 C439 1.390 . S
C435 C429 1.465 . S
C435 C434 1.396 . S
C435 C436 1.399 . S
C436 H422 0.929 . S
C436 C435 1.399 . S
C436 C437 1.385 . S
C437 H423 0.931 . S
C437 C436 1.385 . S
C437 C438 1.389 . S
C438 C437 1.389 . S
C438 C439 1.387 . S
C439 H424 0.930 . S
C439 C434 1.390 . S
C439 C438 1.387 . S
H440 C452 0.930 . S
H441 C454 0.930 . S
H442 C455 0.930 . S
H443 C459 0.959 . S
H444 C459 0.959 1_655 S
H445 C459 0.961 . S
H446 C460 0.929 1_455 S
H447 C460 0.961 . S
H448 C460 0.959 . S
H449 C463 0.929 . S
H450 C464 0.931 . S
H451 C466 0.930 . S
C452 H440 0.930 . S
C452 C453 1.399 . S
C452 C457 1.399 . S
C453 C452 1.399 . S
C453 C454 1.376 . S
C454 H441 0.930 . S
C454 C453 1.376 . S
C454 C455 1.388 . S
C455 H442 0.930 . S
C455 C454 1.388 . S
C455 C456 1.390 . S
C456 C455 1.390 . S
C456 C457 1.394 . S
C456 C462 1.465 1_445 S
C457 C452 1.399 . S
C457 C456 1.394 . S
C457 C458 1.516 1_455 S
C458 C457 1.516 1_655 S
C458 C459 1.502 1_645 S
C458 C460 1.561 . S
C458 C461 1.526 1_545 S
C459 H443 0.959 . S
C459 H444 0.959 1_455 S
C459 H445 0.961 . S
C459 C458 1.502 1_465 S
C460 H446 0.929 1_655 S
C460 H447 0.961 . S
C460 H448 0.959 . S
C460 C458 1.561 . S
C461 C458 1.526 1_565 S
C461 C462 1.396 . S
C461 C466 1.390 . S
C462 C456 1.465 1_665 S
C462 C461 1.396 . S
C462 C463 1.399 . S
C463 H449 0.929 . S
C463 C462 1.399 . S
C463 C464 1.385 . S
C464 H450 0.931 . S
C464 C463 1.385 . S
C464 C465 1.389 . S
C465 C464 1.389 . S
C465 C466 1.387 . S
C466 H451 0.930 . S
C466 C461 1.390 . S
C466 C465 1.387 . S
H467 C479 0.930 . S
H468 C481 0.930 . S
H469 C482 0.949 . S
H470 C486 0.959 . S
H471 C486 0.959 . S
H472 C486 0.961 . S
H473 C487 0.960 . S
H474 C487 0.961 . S
H475 C487 0.959 . S
H476 C490 0.929 . S
H477 C491 0.931 . S
H478 C493 0.930 . S
C479 H467 0.930 . S
C479 C480 1.399 . S
C479 C484 1.399 . S
C480 C479 1.399 . S
C480 C481 1.376 . S
C481 H468 0.930 . S
C481 C480 1.376 . S
C481 C482 1.369 1_655 S
C482 H469 0.949 . S
C482 C481 1.369 1_455 S
C482 C483 1.391 . S
C483 C482 1.391 . S
C483 C484 1.394 1_455 S
C483 C489 1.465 . S
C484 C479 1.399 . S
C484 C483 1.394 1_655 S
C484 C485 1.516 . S
C485 C484 1.516 . S
C485 C486 1.502 . S
C485 C487 1.561 1_655 S
C485 C488 1.526 1_655 S
C486 H470 0.959 . S
C486 H471 0.959 . S
C486 H472 0.961 . S
C486 C485 1.502 . S
C487 H473 0.960 . S
C487 H474 0.961 . S
C487 H475 0.959 . S
C487 C485 1.561 1_455 S
C488 C485 1.526 1_455 S
C488 C489 1.396 . S
C488 C493 1.390 . S
C489 C483 1.465 . S
C489 C488 1.396 . S
C489 C490 1.399 . S
C490 H476 0.929 . S
C490 C489 1.399 . S
C490 C491 1.385 . S
C491 H477 0.931 . S
C491 C490 1.385 . S
C491 C492 1.389 . S
C492 C491 1.389 . S
C492 C493 1.387 . S
C493 H478 0.930 . S
C493 C488 1.390 . S
C493 C492 1.387 . S
H494 C506 0.930 . S
H495 C508 0.930 . S
H496 C509 0.930 . S
H497 C513 0.959 . S
H498 C513 0.959 . S
H499 C513 0.961 . S
H500 C514 0.960 . S
H501 C514 0.961 . S
H502 C514 0.959 . S
H503 C517 0.929 . S
H504 C518 0.931 . S
H505 C520 0.930 . S
C506 H494 0.930 . S
C506 C507 1.399 . S
C506 C511 1.399 . S
C507 C506 1.399 . S
C507 C508 1.376 . S
C508 H495 0.930 . S
C508 C507 1.376 . S
C508 C509 1.388 . S
C509 H496 0.930 . S
C509 C508 1.388 . S
C509 C510 1.390 . S
C510 C509 1.390 . S
C510 C511 1.394 . S
C510 C516 1.465 . S
C511 C506 1.399 . S
C511 C510 1.394 . S
C511 C512 1.516 . S
C512 C511 1.516 . S
C512 C513 1.502 . S
C512 C514 1.561 . S
C512 C515 1.526 . S
C513 H497 0.959 . S
C513 H498 0.959 . S
C513 H499 0.961 . S
C513 C512 1.502 . S
C514 H500 0.960 . S
C514 H501 0.961 . S
C514 H502 0.959 . S
C514 C512 1.561 . S
C515 C512 1.526 . S
C515 C516 1.396 . S
C515 C520 1.390 . S
C516 C510 1.465 . S
C516 C515 1.396 . S
C516 C517 1.399 . S
C517 H503 0.929 . S
C517 C516 1.399 . S
C517 C518 1.385 . S
C518 H504 0.931 . S
C518 C517 1.385 . S
C518 C519 1.389 . S
C519 C518 1.389 . S
C519 C520 1.387 . S
C520 H505 0.930 . S
C520 C515 1.390 . S
C520 C519 1.387 . S
H521 C533 0.930 . S
H522 C535 0.930 . S
H523 C536 0.930 1_556 S
H524 C540 0.959 . S
H525 C540 0.959 . S
H526 C540 0.961 . S
H527 C541 0.960 1_565 S
H528 C541 0.961 . S
H529 C541 0.959 . S
H530 C544 0.929 1_556 S
H531 C545 0.931 . S
H532 C547 0.930 . S
C533 H521 0.930 . S
C533 C534 1.399 . S
C533 C538 1.399 . S
C534 C533 1.399 . S
C534 C535 1.376 . S
C535 H522 0.930 . S
C535 C534 1.376 . S
C535 C536 1.388 . S
C536 H523 0.930 1_554 S
C536 C535 1.388 . S
C536 C537 1.390 . S
C537 C536 1.390 . S
C537 C538 1.394 . S
C537 C543 1.465 1_565 S
C538 C533 1.399 . S
C538 C537 1.394 . S
C538 C539 1.516 . S
C539 C538 1.516 . S
C539 C540 1.502 . S
C539 C541 1.561 1_565 S
C539 C542 1.526 1_565 S
C540 H524 0.959 . S
C540 H525 0.959 . S
C540 H526 0.961 . S
C540 C539 1.502 . S
C541 H527 0.960 1_545 S
C541 H528 0.961 . S
C541 H529 0.959 . S
C541 C539 1.561 1_545 S
C542 C539 1.526 1_545 S
C542 C543 1.396 . S
C542 C547 1.390 . S
C543 C537 1.465 1_545 S
C543 C542 1.396 . S
C543 C544 1.399 . S
C544 H530 0.929 1_554 S
C544 C543 1.399 . S
C544 C545 1.385 . S
C545 H531 0.931 . S
C545 C544 1.385 . S
C545 C546 1.389 . S
C546 C545 1.389 . S
C546 C547 1.387 . S
C547 H532 0.930 . S
C547 C542 1.390 . S
C547 C546 1.387 . S
H548 C560 0.930 . S
H549 C562 0.930 . S
H550 C563 0.930 . S
H551 C567 0.959 . S
H552 C567 0.959 1_655 S
H553 C567 0.961 . S
H554 C568 0.960 1_455 S
H555 C568 0.961 . S
H556 C568 0.959 . S
H557 C571 0.929 . S
H558 C572 0.931 . S
H559 C574 0.930 . S
C560 H548 0.930 . S
C560 C561 1.399 1_556 S
C560 C565 1.399 . S
C561 C560 1.399 1_554 S
C561 C562 1.376 . S
C562 H549 0.930 . S
C562 C561 1.376 . S
C562 C563 1.388 . S
C563 H550 0.930 . S
C563 C562 1.388 . S
C563 C564 1.390 . S
C564 C563 1.390 . S
C564 C565 1.394 1_554 S
C564 C570 1.465 1_455 S
C565 C560 1.399 . S
C565 C564 1.394 1_556 S
C565 C566 1.501 1_455 S
C566 C565 1.501 1_655 S
C566 C567 1.496 1_655 S
C566 C568 1.568 . S
C566 C569 1.541 . S
C567 H551 0.959 . S
C567 H552 0.959 1_455 S
C567 H553 0.961 . S
C567 C566 1.496 1_455 S
C568 H554 0.960 1_655 S
C568 H555 0.961 . S
C568 H556 0.959 . S
C568 C566 1.568 . S
C569 C566 1.541 . S
C569 C570 1.396 1_556 S
C569 C574 1.390 . S
C570 C564 1.465 1_655 S
C570 C569 1.396 1_554 S
C570 C571 1.399 . S
C571 H557 0.929 . S
C571 C570 1.399 . S
C571 C572 1.385 . S
C572 H558 0.931 . S
C572 C571 1.385 . S
C572 C573 1.389 . S
C573 C572 1.389 . S
C573 C574 1.387 1_554 S
C574 H559 0.930 . S
C574 C569 1.390 . S
C574 C573 1.387 1_556 S
H575 C587 0.930 . S
H576 C589 0.930 . S
H577 C590 0.930 . S
H578 C594 0.959 . S
H579 C594 0.959 . S
H580 C594 0.961 . S
H581 C595 0.960 . S
H582 C595 0.961 . S
H583 C595 0.959 . S
H584 C598 0.929 . S
H585 C599 0.931 . S
H586 C601 0.930 . S
C587 H575 0.930 . S
C587 C588 1.399 . S
C587 C592 1.399 . S
C588 C587 1.399 . S
C588 C589 1.376 . S
C589 H576 0.930 . S
C589 C588 1.376 . S
C589 C590 1.388 . S
C590 H577 0.930 . S
C590 C589 1.388 . S
C590 C591 1.390 . S
C591 C590 1.390 . S
C591 C592 1.394 . S
C591 C597 1.465 . S
C592 C587 1.399 . S
C592 C591 1.394 . S
C592 C593 1.516 . S
C593 C592 1.516 . S
C593 C594 1.502 . S
C593 C595 1.561 . S
C593 C596 1.526 . S
C594 H578 0.959 . S
C594 H579 0.959 . S
C594 H580 0.961 . S
C594 C593 1.502 . S
C595 H581 0.960 . S
C595 H582 0.961 . S
C595 H583 0.959 . S
C595 C593 1.561 . S
C596 C593 1.526 . S
C596 C597 1.396 . S
C596 C601 1.390 . S
C597 C591 1.465 . S
C597 C596 1.396 . S
C597 C598 1.399 . S
C598 H584 0.929 . S
C598 C597 1.399 . S
C598 C599 1.385 . S
C599 H585 0.931 . S
C599 C598 1.385 . S
C599 C600 1.389 . S
C600 C599 1.389 . S
C600 C601 1.387 . S
C601 H586 0.930 . S
C601 C596 1.390 . S
C601 C600 1.387 . S
H602 C614 0.930 . S
H603 C616 0.930 . S
H604 C617 0.930 . S
H605 C621 0.959 . S
H606 C621 0.959 . S
H607 C621 0.961 . S
H608 C622 0.960 . S
H609 C622 0.961 . S
H610 C622 0.959 . S
H611 C625 0.929 1_545 S
H612 C626 0.931 . S
H613 C628 0.930 . S
C614 H602 0.930 . S
C614 C615 1.399 . S
C614 C619 1.399 . S
C615 C614 1.399 . S
C615 C616 1.376 . S
C616 H603 0.930 . S
C616 C615 1.376 . S
C616 C617 1.388 . S
C617 H604 0.930 . S
C617 C616 1.388 . S
C617 C618 1.390 . S
C618 C617 1.390 . S
C618 C619 1.394 . S
C618 C624 1.469 . S
C619 C614 1.399 . S
C619 C618 1.394 . S
C619 C620 1.516 1_545 S
C620 C619 1.516 1_565 S
C620 C621 1.502 . S
C620 C622 1.561 1_565 S
C620 C623 1.526 . S
C621 H605 0.959 . S
C621 H606 0.959 . S
C621 H607 0.961 . S
C621 C620 1.502 . S
C622 H608 0.960 . S
C622 H609 0.961 . S
C622 H610 0.959 . S
C622 C620 1.561 1_545 S
C623 C620 1.526 . S
C623 C624 1.392 1_565 S
C623 C628 1.390 . S
C624 C618 1.469 . S
C624 C623 1.392 1_545 S
C624 C625 1.398 1_545 S
C625 H611 0.929 1_565 S
C625 C624 1.398 1_565 S
C625 C626 1.385 . S
C626 H612 0.931 . S
C626 C625 1.385 . S
C626 C627 1.389 . S
C627 C626 1.389 . S
C627 C628 1.387 . S
C628 H613 0.930 . S
C628 C623 1.390 . S
C628 C627 1.387 . S
H629 C641 0.930 . S
H630 C643 0.930 . S
H631 C644 0.930 . S
H632 C648 0.959 . S
H633 C648 0.959 . S
H634 C648 0.961 1_545 S
H635 C649 0.960 . S
H636 C649 0.961 1_565 S
H637 C649 0.959 . S
H638 C652 0.929 . S
H639 C653 0.931 . S
H640 C655 0.930 . S
C641 H629 0.930 . S
C641 C642 1.399 . S
C641 C646 1.399 . S
C642 C641 1.399 . S
C642 C643 1.376 . S
C643 H630 0.930 . S
C643 C642 1.376 . S
C643 C644 1.388 . S
C644 H631 0.930 . S
C644 C643 1.388 . S
C644 C645 1.390 . S
C645 C644 1.390 . S
C645 C646 1.394 . S
C645 C651 1.465 1_445 S
C646 C641 1.399 . S
C646 C645 1.394 . S
C646 C647 1.511 1_455 S
C647 C646 1.511 1_655 S
C647 C648 1.474 1_645 S
C647 C649 1.592 . S
C647 C650 1.532 1_545 S
C648 H632 0.959 . S
C648 H633 0.959 . S
C648 H634 0.961 1_565 S
C648 C647 1.474 1_465 S
C649 H635 0.960 . S
C649 H636 0.961 1_545 S
C649 H637 0.959 . S
C649 C647 1.592 . S
C650 C647 1.532 1_565 S
C650 C651 1.396 . S
C650 C655 1.390 . S
C651 C645 1.465 1_665 S
C651 C650 1.396 . S
C651 C652 1.399 . S
C652 H638 0.929 . S
C652 C651 1.399 . S
C652 C653 1.385 . S
C653 H639 0.931 . S
C653 C652 1.385 . S
C653 C654 1.389 . S
C654 C653 1.389 . S
C654 C655 1.387 . S
C655 H640 0.930 . S
C655 C650 1.390 . S
C655 C654 1.387 . S
H656 C668 0.930 . S
H657 C670 0.930 . S
H658 C671 0.930 . S
H659 C675 0.959 . S
H660 C675 0.959 . S
H661 C675 0.961 . S
H662 C676 0.960 . S
H663 C676 0.961 . S
H664 C676 0.959 . S
H665 C679 0.929 . S
H666 C680 0.931 . S
H667 C682 0.930 . S
C668 H656 0.930 . S
C668 C669 1.399 . S
C668 C673 1.399 . S
C669 C668 1.399 . S
C669 C670 1.376 . S
C670 H657 0.930 . S
C670 C669 1.376 . S
C670 C671 1.388 . S
C671 H658 0.930 . S
C671 C670 1.388 . S
C671 C672 1.390 . S
C672 C671 1.390 . S
C672 C673 1.394 . S
C672 C678 1.465 . S
C673 C668 1.399 . S
C673 C672 1.394 . S
C673 C674 1.516 . S
C674 C673 1.516 . S
C674 C675 1.502 . S
C674 C676 1.561 . S
C674 C677 1.526 . S
C675 H659 0.959 . S
C675 H660 0.959 . S
C675 H661 0.961 . S
C675 C674 1.502 . S
C676 H662 0.960 . S
C676 H663 0.961 . S
C676 H664 0.959 . S
C676 C674 1.561 . S
C677 C674 1.526 . S
C677 C678 1.396 . S
C677 C682 1.390 . S
C678 C672 1.465 . S
C678 C677 1.396 . S
C678 C679 1.399 . S
C679 H665 0.929 . S
C679 C678 1.399 . S
C679 C680 1.385 . S
C680 H666 0.931 . S
C680 C679 1.385 . S
C680 C681 1.389 . S
C681 C680 1.389 . S
C681 C682 1.387 . S
C682 H667 0.930 . S
C682 C677 1.390 . S
C682 C681 1.387 . S
H683 C695 0.930 . S
H684 C697 0.930 . S
H685 C698 0.930 . S
H686 C702 0.959 . S
H687 C702 0.959 . S
H688 C702 0.961 . S
H689 C703 0.960 . S
H690 C703 0.961 . S
H691 C703 0.959 . S
H692 C706 0.929 . S
H693 C707 0.931 . S
H694 C709 0.930 . S
C695 H683 0.930 . S
C695 C696 1.399 . S
C695 C700 1.399 . S
C696 C695 1.399 . S
C696 C697 1.376 . S
C697 H684 0.930 . S
C697 C696 1.376 . S
C697 C698 1.388 . S
C698 H685 0.930 . S
C698 C697 1.388 . S
C698 C699 1.390 . S
C699 C698 1.390 . S
C699 C700 1.394 . S
C699 C705 1.465 . S
C700 C695 1.399 . S
C700 C699 1.394 . S
C700 C701 1.516 . S
C701 C700 1.516 . S
C701 C702 1.502 . S
C701 C703 1.561 . S
C701 C704 1.526 . S
C702 H686 0.959 . S
C702 H687 0.959 . S
C702 H688 0.961 . S
C702 C701 1.502 . S
C703 H689 0.960 . S
C703 H690 0.961 . S
C703 H691 0.959 . S
C703 C701 1.561 . S
C704 C701 1.526 . S
C704 C705 1.396 . S
C704 C709 1.390 . S
C705 C699 1.465 . S
C705 C704 1.396 . S
C705 C706 1.399 . S
C706 H692 0.929 . S
C706 C705 1.399 . S
C706 C707 1.385 . S
C707 H693 0.931 . S
C707 C706 1.385 . S
C707 C708 1.389 . S
C708 C707 1.389 . S
C708 C709 1.387 . S
C709 H694 0.930 . S
C709 C704 1.390 . S
C709 C708 1.387 . S
H710 C722 0.930 . S
H711 C724 0.930 . S
H712 C725 0.930 . S
H713 C729 0.959 . S
H714 C729 0.959 1_556 S
H715 C729 0.961 . S
H716 C730 0.960 . S
H717 C730 0.961 1_556 S
H718 C730 0.959 . S
H719 C733 0.929 1_554 S
H720 C734 0.931 . S
H721 C736 0.930 . S
C722 H710 0.930 . S
C722 C723 1.399 . S
C722 C727 1.399 . S
C723 C722 1.399 . S
C723 C724 1.376 . S
C724 H711 0.930 . S
C724 C723 1.376 . S
C724 C725 1.388 . S
C725 H712 0.930 . S
C725 C724 1.388 . S
C725 C726 1.390 . S
C726 C725 1.390 . S
C726 C727 1.394 . S
C726 C732 1.465 . S
C727 C722 1.399 . S
C727 C726 1.394 . S
C727 C728 1.516 . S
C728 C727 1.516 . S
C728 C729 1.502 . S
C728 C730 1.561 . S
C728 C731 1.526 1_554 S
C729 H713 0.959 . S
C729 H714 0.959 1_554 S
C729 H715 0.961 . S
C729 C728 1.502 . S
C730 H716 0.960 . S
C730 H717 0.961 1_554 S
C730 H718 0.959 . S
C730 C728 1.561 . S
C731 C728 1.526 1_556 S
C731 C732 1.396 1_556 S
C731 C736 1.390 . S
C732 C726 1.465 . S
C732 C731 1.396 1_554 S
C732 C733 1.399 1_554 S
C733 H719 0.929 1_556 S
C733 C732 1.399 1_556 S
C733 C734 1.385 . S
C734 H720 0.931 . S
C734 C733 1.385 . S
C734 C735 1.389 . S
C735 C734 1.389 . S
C735 C736 1.387 . S
C736 H721 0.930 . S
C736 C731 1.390 . S
C736 C735 1.387 . S
H737 C749 0.930 . S
H738 C751 0.930 . S
H739 C752 0.930 . S
H740 C756 0.959 . S
H741 C756 0.959 . S
H742 C756 0.961 . S
H743 C757 0.960 . S
H744 C757 0.961 . S
H745 C757 0.959 . S
H746 C760 0.929 . S
H747 C761 0.931 . S
H748 C763 0.930 . S
C749 H737 0.930 . S
C749 C750 1.399 . S
C749 C754 1.399 . S
C750 C749 1.399 . S
C750 C751 1.376 . S
C751 H738 0.930 . S
C751 C750 1.376 . S
C751 C752 1.388 . S
C752 H739 0.930 . S
C752 C751 1.388 . S
C752 C753 1.390 . S
C753 C752 1.390 . S
C753 C754 1.394 . S
C753 C759 1.465 . S
C754 C749 1.399 . S
C754 C753 1.394 . S
C754 C755 1.516 . S
C755 C754 1.516 . S
C755 C756 1.502 . S
C755 C757 1.561 . S
C755 C758 1.526 . S
C756 H740 0.959 . S
C756 H741 0.959 . S
C756 H742 0.961 . S
C756 C755 1.502 . S
C757 H743 0.960 . S
C757 H744 0.961 . S
C757 H745 0.959 . S
C757 C755 1.561 . S
C758 C755 1.526 . S
C758 C759 1.396 . S
C758 C763 1.390 . S
C759 C753 1.465 . S
C759 C758 1.396 . S
C759 C760 1.399 . S
C760 H746 0.929 . S
C760 C759 1.399 . S
C760 C761 1.385 . S
C761 H747 0.931 . S
C761 C760 1.385 . S
C761 C762 1.389 . S
C762 C761 1.389 . S
C762 C763 1.387 . S
C763 H748 0.930 . S
C763 C758 1.390 . S
C763 C762 1.387 . S
H764 C776 0.930 . S
H765 C778 0.930 . S
H766 C779 0.930 . S
H767 C783 0.959 . S
H768 C783 0.959 . S
H769 C783 0.961 . S
H770 C784 0.960 . S
H771 C784 0.961 . S
H772 C784 0.959 . S
H773 C787 0.929 . S
H774 C788 0.931 . S
H775 C790 0.930 . S
C776 H764 0.930 . S
C776 C777 1.399 . S
C776 C781 1.399 . S
C777 C776 1.399 . S
C777 C778 1.376 . S
C778 H765 0.930 . S
C778 C777 1.376 . S
C778 C779 1.388 . S
C779 H766 0.930 . S
C779 C778 1.388 . S
C779 C780 1.390 . S
C780 C779 1.390 . S
C780 C781 1.394 . S
C780 C786 1.465 . S
C781 C776 1.399 . S
C781 C780 1.394 . S
C781 C782 1.516 . S
C782 C781 1.516 . S
C782 C783 1.502 . S
C782 C784 1.561 . S
C782 C785 1.526 . S
C783 H767 0.959 . S
C783 H768 0.959 . S
C783 H769 0.961 . S
C783 C782 1.502 . S
C784 H770 0.960 . S
C784 H771 0.961 . S
C784 H772 0.959 . S
C784 C782 1.561 . S
C785 C782 1.526 . S
C785 C786 1.396 . S
C785 C790 1.390 . S
C786 C780 1.465 . S
C786 C785 1.396 . S
C786 C787 1.399 . S
C787 H773 0.929 . S
C787 C786 1.399 . S
C787 C788 1.385 . S
C788 H774 0.931 . S
C788 C787 1.385 . S
C788 C789 1.389 . S
C789 C788 1.389 . S
C789 C790 1.387 . S
C790 H775 0.930 . S
C790 C785 1.390 . S
C790 C789 1.387 . S
H791 C803 0.930 . S
H792 C805 0.930 . S
H793 C806 0.930 . S
H794 C810 0.959 . S
H795 C810 0.959 1_556 S
H796 C810 0.961 . S
H797 C811 0.960 . S
H798 C811 0.961 1_556 S
H799 C811 0.959 . S
H800 C814 0.929 1_554 S
H801 C815 0.931 . S
H802 C817 0.930 . S
C803 H791 0.930 . S
C803 C804 1.399 . S
C803 C808 1.399 . S
C804 C803 1.399 . S
C804 C805 1.376 . S
C805 H792 0.930 . S
C805 C804 1.376 . S
C805 C806 1.388 . S
C806 H793 0.930 . S
C806 C805 1.388 . S
C806 C807 1.390 . S
C807 C806 1.390 . S
C807 C808 1.394 . S
C807 C813 1.465 . S
C808 C803 1.399 . S
C808 C807 1.394 . S
C808 C809 1.516 . S
C809 C808 1.516 . S
C809 C810 1.502 . S
C809 C811 1.561 . S
C809 C812 1.526 1_554 S
C810 H794 0.959 . S
C810 H795 0.959 1_554 S
C810 H796 0.961 . S
C810 C809 1.502 . S
C811 H797 0.960 . S
C811 H798 0.961 1_554 S
C811 H799 0.959 . S
C811 C809 1.561 . S
C812 C809 1.526 1_556 S
C812 C813 1.396 1_556 S
C812 C817 1.390 . S
C813 C807 1.465 . S
C813 C812 1.396 1_554 S
C813 C814 1.399 1_554 S
C814 H800 0.929 1_556 S
C814 C813 1.399 1_556 S
C814 C815 1.385 . S
C815 H801 0.931 . S
C815 C814 1.385 . S
C815 C816 1.389 . S
C816 C815 1.389 . S
C816 C817 1.387 . S
C817 H802 0.930 . S
C817 C812 1.390 . S
C817 C816 1.387 . S
H818 C830 0.930 . S
H819 C832 0.930 . S
H820 C833 0.930 . S
H821 C837 0.959 . S
H822 C837 0.959 . S
H823 C837 0.961 . S
H824 C838 0.960 . S
H825 C838 0.961 . S
H826 C838 0.959 . S
H827 C841 0.929 . S
H828 C842 0.931 . S
H829 C844 0.930 . S
C830 H818 0.930 . S
C830 C831 1.399 . S
C830 C835 1.399 . S
C831 C830 1.399 . S
C831 C832 1.376 . S
C832 H819 0.930 . S
C832 C831 1.376 . S
C832 C833 1.388 . S
C833 H820 0.930 . S
C833 C832 1.388 . S
C833 C834 1.390 . S
C834 C833 1.390 . S
C834 C835 1.394 . S
C834 C840 1.465 . S
C835 C830 1.399 . S
C835 C834 1.394 . S
C835 C836 1.516 . S
C836 C835 1.516 . S
C836 C837 1.502 . S
C836 C838 1.561 . S
C836 C839 1.526 . S
C837 H821 0.959 . S
C837 H822 0.959 . S
C837 H823 0.961 . S
C837 C836 1.502 . S
C838 H824 0.960 . S
C838 H825 0.961 . S
C838 H826 0.959 . S
C838 C836 1.561 . S
C839 C836 1.526 . S
C839 C840 1.396 . S
C839 C844 1.390 . S
C840 C834 1.465 . S
C840 C839 1.396 . S
C840 C841 1.399 . S
C841 H827 0.929 . S
C841 C840 1.399 . S
C841 C842 1.385 . S
C842 H828 0.931 . S
C842 C841 1.385 . S
C842 C843 1.389 . S
C843 C842 1.389 . S
C843 C844 1.387 . S
C844 H829 0.930 . S
C844 C839 1.390 . S
C844 C843 1.387 . S
H845 C857 0.930 . S
H846 C859 0.930 . S
H847 C860 0.930 . S
H848 C864 0.959 . S
H849 C864 0.959 . S
H850 C864 0.961 . S
H851 C865 0.960 . S
H852 C865 0.961 . S
H853 C865 0.959 . S
H854 C868 0.929 . S
H855 C869 0.931 . S
H856 C871 0.930 . S
C857 H845 0.930 . S
C857 C858 1.399 . S
C857 C862 1.399 . S
C858 C857 1.399 . S
C858 C859 1.376 . S
C859 H846 0.930 . S
C859 C858 1.376 . S
C859 C860 1.388 . S
C860 H847 0.930 . S
C860 C859 1.388 . S
C860 C861 1.390 . S
C861 C860 1.390 . S
C861 C862 1.394 . S
C861 C867 1.465 . S
C862 C857 1.399 . S
C862 C861 1.394 . S
C862 C863 1.516 . S
C863 C862 1.516 . S
C863 C864 1.502 . S
C863 C865 1.561 . S
C863 C866 1.526 . S
C864 H848 0.959 . S
C864 H849 0.959 . S
C864 H850 0.961 . S
C864 C863 1.502 . S
C865 H851 0.960 . S
C865 H852 0.961 . S
C865 H853 0.959 . S
C865 C863 1.561 . S
C866 C863 1.526 . S
C866 C867 1.396 . S
C866 C871 1.390 . S
C867 C861 1.465 . S
C867 C866 1.396 . S
C867 C868 1.399 . S
C868 H854 0.929 . S
C868 C867 1.399 . S
C868 C869 1.385 . S
C869 H855 0.931 . S
C869 C868 1.385 . S
C869 C870 1.389 . S
C870 C869 1.389 . S
C870 C871 1.387 . S
C871 H856 0.930 . S
C871 C866 1.390 . S
C871 C870 1.387 . S
H872 C884 0.930 . S
H873 C886 0.930 . S
H874 C887 0.930 . S
H875 C891 0.959 . S
H876 C891 0.959 . S
H877 C891 0.961 . S
H878 C892 0.960 . S
H879 C892 0.961 . S
H880 C892 0.959 . S
H881 C895 0.929 . S
H882 C896 0.931 . S
H883 C898 0.930 . S
C884 H872 0.930 . S
C884 C885 1.399 . S
C884 C889 1.397 1_556 S
C885 C884 1.399 . S
C885 C886 1.376 . S
C886 H873 0.930 . S
C886 C885 1.376 . S
C886 C887 1.388 . S
C887 H874 0.930 . S
C887 C886 1.388 . S
C887 C888 1.390 1_556 S
C888 C887 1.390 1_554 S
C888 C889 1.394 . S
C888 C894 1.465 . S
C889 C884 1.397 1_554 S
C889 C888 1.394 . S
C889 C890 1.518 . S
C890 C889 1.518 . S
C890 C891 1.502 . S
C890 C892 1.561 . S
C890 C893 1.526 . S
C891 H875 0.959 . S
C891 H876 0.959 . S
C891 H877 0.961 . S
C891 C890 1.502 . S
C892 H878 0.960 . S
C892 H879 0.961 . S
C892 H880 0.959 . S
C892 C890 1.561 . S
C893 C890 1.526 . S
C893 C894 1.396 . S
C893 C898 1.390 . S
C894 C888 1.465 . S
C894 C893 1.396 . S
C894 C895 1.399 . S
C895 H881 0.929 . S
C895 C894 1.399 . S
C895 C896 1.385 . S
C896 H882 0.931 . S
C896 C895 1.385 . S
C896 C897 1.389 . S
C897 C896 1.389 . S
C897 C898 1.387 . S
C898 H883 0.930 . S
C898 C893 1.390 . S
C898 C897 1.387 . S
H899 C911 0.930 . S
H900 C913 0.930 . S
H901 C914 0.930 . S
H902 C918 0.959 . S
H903 C918 0.959 . S
H904 C918 0.961 . S
H905 C919 0.960 . S
H906 C919 0.961 . S
H907 C919 0.959 . S
H908 C922 0.929 . S
H909 C923 0.931 . S
H910 C925 0.930 . S
C911 H899 0.930 . S
C911 C912 1.399 . S
C911 C916 1.399 . S
C912 C911 1.399 . S
C912 C913 1.376 . S
C913 H900 0.930 . S
C913 C912 1.376 . S
C913 C914 1.388 . S
C914 H901 0.930 . S
C914 C913 1.388 . S
C914 C915 1.390 . S
C915 C914 1.390 . S
C915 C916 1.394 . S
C915 C921 1.465 . S
C916 C911 1.399 . S
C916 C915 1.394 . S
C916 C917 1.516 . S
C917 C916 1.516 . S
C917 C918 1.502 . S
C917 C919 1.561 . S
C917 C920 1.526 . S
C918 H902 0.959 . S
C918 H903 0.959 . S
C918 H904 0.961 . S
C918 C917 1.502 . S
C919 H905 0.960 . S
C919 H906 0.961 . S
C919 H907 0.959 . S
C919 C917 1.561 . S
C920 C917 1.526 . S
C920 C921 1.396 . S
C920 C925 1.390 . S
C921 C915 1.465 . S
C921 C920 1.396 . S
C921 C922 1.399 . S
C922 H908 0.929 . S
C922 C921 1.399 . S
C922 C923 1.385 . S
C923 H909 0.931 . S
C923 C922 1.385 . S
C923 C924 1.389 . S
C924 C923 1.389 . S
C924 C925 1.387 . S
C925 H910 0.930 . S
C925 C920 1.390 . S
C925 C924 1.387 . S
H926 C938 0.930 . S
H927 C940 0.930 . S
H928 C941 0.930 . S
H929 C945 0.959 . S
H930 C945 0.959 . S
H931 C945 0.961 . S
H932 C946 0.960 . S
H933 C946 0.961 . S
H934 C946 0.959 . S
H935 C949 0.929 . S
H936 C950 0.931 . S
H937 C952 0.930 . S
C938 H926 0.930 . S
C938 C939 1.399 . S
C938 C943 1.399 . S
C939 C938 1.399 . S
C939 C940 1.376 . S
C940 H927 0.930 . S
C940 C939 1.376 . S
C940 C941 1.388 . S
C941 H928 0.930 . S
C941 C940 1.388 . S
C941 C942 1.390 . S
C942 C941 1.390 . S
C942 C943 1.394 . S
C942 C948 1.465 . S
C943 C938 1.399 . S
C943 C942 1.394 . S
C943 C944 1.516 . S
C944 C943 1.516 . S
C944 C945 1.502 . S
C944 C946 1.561 . S
C944 C947 1.526 . S
C945 H929 0.959 . S
C945 H930 0.959 . S
C945 H931 0.961 . S
C945 C944 1.502 . S
C946 H932 0.960 . S
C946 H933 0.961 . S
C946 H934 0.959 . S
C946 C944 1.561 . S
C947 C944 1.526 . S
C947 C948 1.396 . S
C947 C952 1.390 . S
C948 C942 1.465 . S
C948 C947 1.396 . S
C948 C949 1.399 . S
C949 H935 0.929 . S
C949 C948 1.399 . S
C949 C950 1.385 . S
C950 H936 0.931 . S
C950 C949 1.385 . S
C950 C951 1.389 . S
C951 C950 1.389 . S
C951 C952 1.387 . S
C952 H937 0.930 . S
C952 C947 1.390 . S
C952 C951 1.387 . S
H953 C965 0.930 . S
H954 C967 0.930 . S
H955 C968 0.930 . S
H956 C972 0.959 . S
H957 C972 0.959 . S
H958 C972 0.961 . S
H959 C973 0.960 . S
H960 C973 0.961 . S
H961 C973 0.959 . S
H962 C976 0.929 . S
H963 C977 0.931 . S
H964 C979 0.930 . S
C965 H953 0.930 . S
C965 C966 1.399 . S
C965 C970 1.399 . S
C966 C965 1.399 . S
C966 C967 1.376 . S
C967 H954 0.930 . S
C967 C966 1.376 . S
C967 C968 1.388 . S
C968 H955 0.930 . S
C968 C967 1.388 . S
C968 C969 1.390 . S
C969 C968 1.390 . S
C969 C970 1.394 . S
C969 C975 1.465 . S
C970 C965 1.399 . S
C970 C969 1.394 . S
C970 C971 1.516 . S
C971 C970 1.516 . S
C971 C972 1.502 . S
C971 C973 1.561 . S
C971 C974 1.526 . S
C972 H956 0.959 . S
C972 H957 0.959 . S
C972 H958 0.961 . S
C972 C971 1.502 . S
C973 H959 0.960 . S
C973 H960 0.961 . S
C973 H961 0.959 . S
C973 C971 1.561 . S
C974 C971 1.526 . S
C974 C975 1.396 . S
C974 C979 1.390 . S
C975 C969 1.465 . S
C975 C974 1.396 . S
C975 C976 1.399 . S
C976 H962 0.929 . S
C976 C975 1.399 . S
C976 C977 1.385 . S
C977 H963 0.931 . S
C977 C976 1.385 . S
C977 C978 1.389 . S
C978 C977 1.389 . S
C978 C979 1.387 . S
C979 H964 0.930 . S
C979 C974 1.390 . S
C979 C978 1.387 . S
H980 C992 0.930 . S
H981 C994 0.930 . S
H982 C995 0.930 . S
H983 C999 0.959 . S
H984 C999 0.959 . S
H985 C999 0.961 . S
H986 C1000 0.960 . S
H987 C1000 0.961 . S
H988 C1000 0.959 . S
H989 C1003 0.929 . S
H990 C1004 0.931 . S
H991 C1006 0.930 . S
C992 H980 0.930 . S
C992 C993 1.399 . S
C992 C997 1.399 . S
C993 C992 1.399 . S
C993 C994 1.376 . S
C994 H981 0.930 . S
C994 C993 1.376 . S
C994 C995 1.388 . S
C995 H982 0.930 . S
C995 C994 1.388 . S
C995 C996 1.390 . S
C996 C995 1.390 . S
C996 C997 1.394 . S
C996 C1002 1.465 . S
C997 C992 1.399 . S
C997 C996 1.394 . S
C997 C998 1.516 . S
C998 C997 1.516 . S
C998 C999 1.502 . S
C998 C1000 1.561 . S
C998 C1001 1.526 . S
C999 H983 0.959 . S
C999 H984 0.959 . S
C999 H985 0.961 . S
C999 C998 1.502 . S
C1000 H986 0.960 . S
C1000 H987 0.961 . S
C1000 H988 0.959 . S
C1000 C998 1.561 . S
C1001 C998 1.526 . S
C1001 C1002 1.396 . S
C1001 C1006 1.390 . S
C1002 C996 1.465 . S
C1002 C1001 1.396 . S
C1002 C1003 1.399 . S
C1003 H989 0.929 . S
C1003 C1002 1.399 . S
C1003 C1004 1.385 . S
C1004 H990 0.931 . S
C1004 C1003 1.385 . S
C1004 C1005 1.389 . S
C1005 C1004 1.389 . S
C1005 C1006 1.387 . S
C1006 H991 0.930 . S
C1006 C1001 1.390 . S
C1006 C1005 1.387 . S
H1007 C1019 0.930 . S
H1008 C1021 0.930 . S
H1009 C1022 0.930 . S
H1010 C1026 0.959 . S
H1011 C1026 0.959 . S
H1012 C1026 0.961 . S
H1013 C1027 0.960 . S
H1014 C1027 0.961 . S
H1015 C1027 0.959 . S
H1016 C1030 0.929 . S
H1017 C1031 0.931 . S
H1018 C1033 0.930 . S
C1019 H1007 0.930 . S
C1019 C1020 1.399 . S
C1019 C1024 1.399 . S
C1020 C1019 1.399 . S
C1020 C1021 1.376 . S
C1021 H1008 0.930 . S
C1021 C1020 1.376 . S
C1021 C1022 1.388 . S
C1022 H1009 0.930 . S
C1022 C1021 1.388 . S
C1022 C1023 1.390 . S
C1023 C1022 1.390 . S
C1023 C1024 1.394 . S
C1023 C1029 1.465 . S
C1024 C1019 1.399 . S
C1024 C1023 1.394 . S
C1024 C1025 1.516 . S
C1025 C1024 1.516 . S
C1025 C1026 1.502 . S
C1025 C1027 1.561 . S
C1025 C1028 1.526 . S
C1026 H1010 0.959 . S
C1026 H1011 0.959 . S
C1026 H1012 0.961 . S
C1026 C1025 1.502 . S
C1027 H1013 0.960 . S
C1027 H1014 0.961 . S
C1027 H1015 0.959 . S
C1027 C1025 1.561 . S
C1028 C1025 1.526 . S
C1028 C1029 1.396 . S
C1028 C1033 1.390 . S
C1029 C1023 1.465 . S
C1029 C1028 1.396 . S
C1029 C1030 1.399 . S
C1030 H1016 0.929 . S
C1030 C1029 1.399 . S
C1030 C1031 1.385 . S
C1031 H1017 0.931 . S
C1031 C1030 1.385 . S
C1031 C1032 1.389 . S
C1032 C1031 1.389 . S
C1032 C1033 1.387 . S
C1033 H1018 0.930 . S
C1033 C1028 1.390 . S
C1033 C1032 1.387 . S
H1034 C1046 0.930 . S
H1035 C1048 0.930 . S
H1036 C1049 0.930 . S
H1037 C1053 0.959 . S
H1038 C1053 0.959 . S
H1039 C1053 0.961 . S
H1040 C1054 0.960 . S
H1041 C1054 0.961 . S
H1042 C1054 0.959 . S
H1043 C1057 0.929 . S
H1044 C1058 0.931 . S
H1045 C1060 0.930 . S
C1046 H1034 0.930 . S
C1046 C1047 1.399 . S
C1046 C1051 1.399 . S
C1047 C1046 1.399 . S
C1047 C1048 1.376 . S
C1048 H1035 0.930 . S
C1048 C1047 1.376 . S
C1048 C1049 1.388 . S
C1049 H1036 0.930 . S
C1049 C1048 1.388 . S
C1049 C1050 1.390 . S
C1050 C1049 1.390 . S
C1050 C1051 1.394 . S
C1050 C1056 1.465 . S
C1051 C1046 1.399 . S
C1051 C1050 1.394 . S
C1051 C1052 1.516 . S
C1052 C1051 1.516 . S
C1052 C1053 1.502 . S
C1052 C1054 1.561 . S
C1052 C1055 1.526 . S
C1053 H1037 0.959 . S
C1053 H1038 0.959 . S
C1053 H1039 0.961 . S
C1053 C1052 1.502 . S
C1054 H1040 0.960 . S
C1054 H1041 0.961 . S
C1054 H1042 0.959 . S
C1054 C1052 1.561 . S
C1055 C1052 1.526 . S
C1055 C1056 1.396 . S
C1055 C1060 1.390 . S
C1056 C1050 1.465 . S
C1056 C1055 1.396 . S
C1056 C1057 1.399 . S
C1057 H1043 0.929 . S
C1057 C1056 1.399 . S
C1057 C1058 1.385 . S
C1058 H1044 0.931 . S
C1058 C1057 1.385 . S
C1058 C1059 1.389 . S
C1059 C1058 1.389 . S
C1059 C1060 1.387 . S
C1060 H1045 0.930 . S
C1060 C1055 1.390 . S
C1060 C1059 1.387 . S
H1061 C1073 0.930 . S
H1062 C1075 0.930 . S
H1063 C1076 0.930 . S
H1064 C1080 0.959 . S
H1065 C1080 0.959 1_556 S
H1066 C1080 0.961 . S
H1067 C1081 0.960 . S
H1068 C1081 0.961 1_556 S
H1069 C1081 0.959 . S
H1070 C1084 0.929 1_554 S
H1071 C1085 0.931 . S
H1072 C1087 0.930 . S
C1073 H1061 0.930 . S
C1073 C1074 1.399 . S
C1073 C1078 1.399 . S
C1074 C1073 1.399 . S
C1074 C1075 1.376 . S
C1075 H1062 0.930 . S
C1075 C1074 1.376 . S
C1075 C1076 1.388 . S
C1076 H1063 0.930 . S
C1076 C1075 1.388 . S
C1076 C1077 1.390 . S
C1077 C1076 1.390 . S
C1077 C1078 1.394 . S
C1077 C1083 1.465 . S
C1078 C1073 1.399 . S
C1078 C1077 1.394 . S
C1078 C1079 1.516 . S
C1079 C1078 1.516 . S
C1079 C1080 1.502 . S
C1079 C1081 1.561 . S
C1079 C1082 1.526 1_554 S
C1080 H1064 0.959 . S
C1080 H1065 0.959 1_554 S
C1080 H1066 0.961 . S
C1080 C1079 1.502 . S
C1081 H1067 0.960 . S
C1081 H1068 0.961 1_554 S
C1081 H1069 0.959 . S
C1081 C1079 1.561 . S
C1082 C1079 1.526 1_556 S
C1082 C1083 1.396 1_556 S
C1082 C1087 1.390 . S
C1083 C1077 1.465 . S
C1083 C1082 1.396 1_554 S
C1083 C1084 1.399 1_554 S
C1084 H1070 0.929 1_556 S
C1084 C1083 1.399 1_556 S
C1084 C1085 1.385 . S
C1085 H1071 0.931 . S
C1085 C1084 1.385 . S
C1085 C1086 1.389 . S
C1086 C1085 1.389 . S
C1086 C1087 1.387 . S
C1087 H1072 0.930 . S
C1087 C1082 1.390 . S
C1087 C1086 1.387 . S
C237 C90 1.439 . S
C249 C6 1.407 . S
C264 C104 1.401 . S
C276 C20 1.440 . S
C291 C34 1.372 . S
C303 C62 1.425 . S
C318 C48 1.387 . S
C330 C76 1.439 . S
C345 C118 1.371 . S
C357 C202 1.419 . S
C372 C216 1.416 . S
C384 C132 1.435 . S
C399 C146 1.440 . S
C411 C174 1.405 . S
C426 C160 1.397 . S
C438 C188 1.440 . S
C453 C9 1.316 . S
C465 C149 1.333 . S
C480 C23 1.385 . S
C492 C163 1.341 . S
C507 C37 1.309 . S
C519 C121 1.343 . S
C534 C51 1.304 . S
C546 C135 1.352 . S
C561 C65 1.311 . S
C573 C205 1.339 . S
C588 C219 1.303 . S
C600 C79 1.356 . S
C615 C93 1.306 . S
C627 C177 1.348 . S
C642 C191 1.380 . S
C654 C107 1.352 . S
C669 C190 0.755 . S
C681 C8 0.900 . S
C696 C22 0.901 . S
C708 C204 0.756 . S
C723 C218 0.902 . S
C735 C36 0.756 . S
C750 C176 0.856 . S
C762 C50 0.804 . S
C777 C162 0.782 . S
C789 C64 0.875 . S
C804 C78 0.900 . S
C816 C120 0.758 . S
C831 C92 0.789 . S
C843 C134 0.872 . S
C858 C106 0.754 . S
C870 C148 0.900 . S
C885 C189 1.492 . S
C897 C7 1.490 . S
C912 C21 1.486 . S
C924 C203 1.496 . S
C939 C35 1.518 . S
C951 C217 1.474 . S
C966 C175 1.475 . S
C978 C49 1.523 . S
C993 C161 1.503 . S
C1005 C63 1.508 . S
C1020 C119 1.475 . S
C1032 C77 1.522 . S
C1047 C91 1.474 . S
C1059 C133 1.521 . S
C1074 C147 1.476 . S
C1086 C105 1.523 . S
