# Generated by pormake.
# Topology dft, (4)-cn, num edge types: 1
# Building blocks:
#     Node 0, Type 0, BuildingBlock: ICAMEG_clean_sbu_1, # of connection points: 4
#     Node 1, Type 0, BuildingBlock: ICAMEG_clean_sbu_1, # of connection points: 4
#     Node 2, Type 0, BuildingBlock: ICAMEG_clean_sbu_1, # of connection points: 4
#     Node 3, Type 0, BuildingBlock: ICAMEG_clean_sbu_1, # of connection points: 4
#     Node 4, Type 0, BuildingBlock: ICAMEG_clean_sbu_1, # of connection points: 4
#     Node 5, Type 0, BuildingBlock: ICAMEG_clean_sbu_1, # of connection points: 4
#     Node 6, Type 0, BuildingBlock: ICAMEG_clean_sbu_1, # of connection points: 4
#     Node 7, Type 0, BuildingBlock: ICAMEG_clean_sbu_1, # of connection points: 4
#     Edge 8, Type (0, 0), BuildingBlock: ZUJKAS_clean_linker_0, # of connection points: 2
#     Edge 9, Type (0, 0), BuildingBlock: ZUJKAS_clean_linker_0, # of connection points: 2
#     Edge 10, Type (0, 0), BuildingBlock: ZUJKAS_clean_linker_0, # of connection points: 2
#     Edge 11, Type (0, 0), BuildingBlock: ZUJKAS_clean_linker_0, # of connection points: 2
#     Edge 12, Type (0, 0), BuildingBlock: ZUJKAS_clean_linker_0, # of connection points: 2
#     Edge 13, Type (0, 0), BuildingBlock: ZUJKAS_clean_linker_0, # of connection points: 2
#     Edge 14, Type (0, 0), BuildingBlock: ZUJKAS_clean_linker_0, # of connection points: 2
#     Edge 15, Type (0, 0), BuildingBlock: ZUJKAS_clean_linker_0, # of connection points: 2
#     Edge 16, Type (0, 0), BuildingBlock: ZUJKAS_clean_linker_0, # of connection points: 2
#     Edge 17, Type (0, 0), BuildingBlock: ZUJKAS_clean_linker_0, # of connection points: 2
#     Edge 18, Type (0, 0), BuildingBlock: ZUJKAS_clean_linker_0, # of connection points: 2
#     Edge 19, Type (0, 0), BuildingBlock: ZUJKAS_clean_linker_0, # of connection points: 2
#     Edge 20, Type (0, 0), BuildingBlock: ZUJKAS_clean_linker_0, # of connection points: 2
#     Edge 21, Type (0, 0), BuildingBlock: ZUJKAS_clean_linker_0, # of connection points: 2
#     Edge 22, Type (0, 0), BuildingBlock: ZUJKAS_clean_linker_0, # of connection points: 2
#     Edge 23, Type (0, 0), BuildingBlock: ZUJKAS_clean_linker_0, # of connection points: 2
# Relax obj value: 0.223
# Max RMSD: 0.222
# Mean RMSD: 0.222
data_MOF--net-dft--node1-ICAMEG_clean_sbu_1--edge1-ZUJKAS_clean_linker_0
_symmetry_space_group_name_H-M    P1
_symmetry_Int_Tables_number       1
_symmetry_cell_setting            triclinic
loop_
_symmetry_equiv_pos_as_xyz
'x, y, z'
_cell_length_a     44.220015
_cell_length_b     44.19336
_cell_length_c     60.380965
_cell_angle_alpha  90.018625
_cell_angle_beta   89.974317
_cell_angle_gamma 90.012696
loop_
_atom_site_label
_atom_site_type_symbol
_atom_site_fract_x
_atom_site_fract_y
_atom_site_fract_z
_atom_type_partial_charge
Co0 Co 0.29623 0.08924 0.15944 0.0
Co1 Co 0.34721 0.05781 0.19473 0.0
O2 O 0.33583 0.07019 0.16459 0.0
C3 C 0.30862 0.05128 0.11873 0.0
O4 O 0.3281 0.03444 0.12949 0.0
C5 C 0.40428 0.08503 0.1764 0.0
O6 O 0.38877 0.10668 0.1668 0.0
O7 O 0.34233 0.10048 0.20483 0.0
O8 O 0.29689 0.10845 0.18951 0.0
H9 H 0.33608 0.05633 0.27754 0.0
H10 H 0.34647 0.0993 0.1275 0.0
O11 O 0.29388 0.07191 0.12874 0.0
H12 H 0.31541 0.20115 0.15182 0.0
H13 H 0.21668 0.14369 0.11492 0.0
H14 H 0.2409 0.09646 0.18673 0.0
H15 H 0.28962 0.15587 0.16628 0.0
H16 H 0.26681 0.121 0.1214 0.0
O17 O 0.39093 0.06514 0.18807 0.0
H18 H 0.32216 0.07026 0.23935 0.0
H19 H 0.39708 0.02079 0.2143 0.0
H20 H 0.1906 0.11919 0.18102 0.0
H21 H 0.37251 0.14399 0.11234 0.0
H22 H 0.1782 0.14301 0.1449 0.0
H23 H 0.35711 0.1954 0.12454 0.0
O24 O 0.27593 0.05272 0.17192 0.0
H25 H 0.38498 0.97651 0.14348 0.0
H26 H 0.32599 0.9975 0.21105 0.0
H27 H 0.33134 0.94493 0.19806 0.0
H28 H 0.36111 0.93411 0.16408 0.0
H29 H 0.37862 0.02884 0.15687 0.0
H30 H 0.41197 0.00656 0.25223 0.0
H31 H 0.3813 0.02426 0.28418 0.0
O32 O 0.30398 0.04885 0.2026 0.0
C33 C 0.318 0.11568 0.20285 0.0
C34 C 0.34961 0.04845 0.26376 0.0
C35 C 0.39222 0.02055 0.24956 0.0
N36 N 0.35873 0.04631 0.22459 0.0
C37 C 0.34182 0.05623 0.24208 0.0
C38 C 0.38374 0.02878 0.22811 0.0
C39 C 0.37499 0.03047 0.26747 0.0
C40 C 0.3393 0.12155 0.13267 0.0
N41 N 0.31633 0.12487 0.14762 0.0
C42 C 0.35428 0.1468 0.12412 0.0
C43 C 0.34566 0.17564 0.13101 0.0
C44 C 0.32229 0.17888 0.14631 0.0
C45 C 0.30782 0.15311 0.15448 0.0
C46 C 0.22181 0.13337 0.13073 0.0
C47 C 0.23574 0.10686 0.17098 0.0
C48 C 0.25013 0.12036 0.13447 0.0
N49 N 0.25684 0.10743 0.15444 0.0
C50 C 0.20719 0.11966 0.16784 0.0
C51 C 0.20024 0.133 0.14756 0.0
C52 C 0.28024 0.04258 0.19147 0.0
C53 C 0.37192 0.98093 0.1583 0.0
C54 C 0.33864 0.99308 0.1961 0.0
C55 C 0.34176 0.96321 0.1889 0.0
C56 C 0.3585 0.95715 0.16985 0.0
N57 N 0.35177 0.01631 0.18463 0.0
C58 C 0.36831 0.01051 0.166 0.0
Co59 Co 0.02372 0.29272 0.66433 0.0
Co60 Co 0.06092 0.34034 0.69892 0.0
O61 O 0.04556 0.33086 0.66921 0.0
C62 C 0.06286 0.29897 0.62378 0.0
O63 O 0.08541 0.30912 0.6358 0.0
C64 C 0.03496 0.39972 0.68396 0.0
O65 O 0.01107 0.38592 0.67593 0.0
O66 O 0.01891 0.33768 0.7108 0.0
O67 O 0.00723 0.29317 0.69525 0.0
H68 H 0.06822 0.32645 0.78134 0.0
H69 H 0.01443 0.34404 0.63348 0.0
O70 O 0.03818 0.29107 0.63293 0.0
H71 H 0.91311 0.32012 0.66281 0.0
H72 H 0.96059 0.21863 0.62085 0.0
H73 H 0.01558 0.23663 0.69065 0.0
H74 H 0.95753 0.29048 0.67444 0.0
H75 H 0.98678 0.26707 0.62736 0.0
O76 O 0.05584 0.38466 0.69335 0.0
H77 H 0.05033 0.31473 0.74364 0.0
H78 H 0.10269 0.38701 0.71757 0.0
H79 H 0.98947 0.18798 0.6849 0.0
H80 H 0.97051 0.374 0.62115 0.0
H81 H 0.96172 0.17871 0.64979 0.0
H82 H 0.91941 0.36218 0.63591 0.0
O83 O 0.05992 0.26973 0.67471 0.0
H84 H 0.13978 0.37387 0.64427 0.0
H85 H 0.1209 0.31476 0.71214 0.0
H86 H 0.17247 0.31703 0.6967 0.0
H87 H 0.1822 0.34684 0.66257 0.0
H88 H 0.08845 0.37065 0.6601 0.0
H89 H 0.1209 0.39972 0.75502 0.0
H90 H 0.10376 0.36924 0.78723 0.0
O91 O 0.06764 0.29638 0.70569 0.0
C92 C 0.00232 0.31419 0.70924 0.0
C93 C 0.07589 0.33988 0.76744 0.0
C94 C 0.10542 0.38102 0.75267 0.0
N95 N 0.07551 0.35009 0.72839 0.0
C96 C 0.06588 0.33331 0.74604 0.0
C97 C 0.09494 0.37378 0.73151 0.0
C98 C 0.09581 0.3639 0.77073 0.0
C99 C 0.99222 0.33856 0.63981 0.0
N100 N 0.98858 0.31548 0.65461 0.0
C101 C 0.96745 0.35568 0.63283 0.0
C102 C 0.9388 0.34906 0.64114 0.0
C103 C 0.93525 0.32548 0.65623 0.0
C104 C 0.96052 0.30883 0.66281 0.0
C105 C 0.97262 0.22239 0.63621 0.0
C106 C 0.00352 0.23282 0.67534 0.0
C107 C 0.98762 0.24973 0.63996 0.0
N108 N 0.00273 0.25471 0.65937 0.0
C109 C 0.98879 0.2052 0.67217 0.0
C110 C 0.97325 0.20001 0.65246 0.0
C111 C 0.07144 0.27264 0.69398 0.0
C112 C 0.13584 0.36086 0.65918 0.0
C113 C 0.12488 0.32761 0.69719 0.0
C114 C 0.15417 0.3289 0.68858 0.0
C115 C 0.15962 0.34566 0.66944 0.0
N116 N 0.10166 0.3426 0.68704 0.0
C117 C 0.10685 0.35906 0.66827 0.0
Co118 Co 0.83113 0.04182 0.1551 0.0
Co119 Co 0.77875 0.05871 0.19437 0.0
O120 O 0.78991 0.05463 0.16295 0.0
C121 C 0.81109 0.08374 0.11817 0.0
O122 O 0.78787 0.09338 0.1297 0.0
C123 C 0.72326 0.0332 0.17208 0.0
O124 O 0.73986 0.0195 0.15713 0.0
O125 O 0.78881 0.01516 0.19894 0.0
O126 O 0.83408 0.01655 0.18255 0.0
H127 H 0.79392 0.04275 0.276 0.0
H128 H 0.78087 0.03196 0.12281 0.0
O129 O 0.8302 0.06566 0.12676 0.0
H130 H 0.82588 0.93133 0.13478 0.0
H131 H 0.91453 0.00767 0.10392 0.0
H132 H 0.88822 0.03606 0.18052 0.0
H133 H 0.84611 0.97598 0.15416 0.0
H134 H 0.86233 0.02216 0.11354 0.0
O135 O 0.73563 0.04801 0.18772 0.0
H136 H 0.80731 0.03931 0.23644 0.0
H137 H 0.72616 0.08483 0.21896 0.0
H138 H 0.94063 0.02144 0.17166 0.0
H139 H 0.76048 0.9881 0.10271 0.0
H140 H 0.95409 0.00711 0.13311 0.0
H141 H 0.78288 0.93723 0.10869 0.0
O142 O 0.84748 0.07744 0.17139 0.0
H143 H 0.73068 0.14579 0.15403 0.0
H144 H 0.79371 0.11647 0.21781 0.0
H145 H 0.78228 0.17033 0.2115 0.0
H146 H 0.75044 0.18532 0.17945 0.0
H147 H 0.74305 0.09222 0.16078 0.0
H148 H 0.71178 0.08851 0.25832 0.0
H149 H 0.74585 0.06749 0.28717 0.0
O150 O 0.82116 0.07076 0.20261 0.0
C151 C 0.81469 0.0036 0.195 0.0
C152 C 0.77892 0.05204 0.26359 0.0
C153 C 0.7328 0.07769 0.25367 0.0
N154 N 0.76762 0.06195 0.22539 0.0
C155 C 0.7864 0.0502 0.24116 0.0
C156 C 0.74102 0.07544 0.23139 0.0
C157 C 0.75193 0.06591 0.26984 0.0
C158 C 0.79119 0.01013 0.12526 0.0
N159 N 0.81494 0.00679 0.13951 0.0
C160 C 0.77934 0.98525 0.11393 0.0
C161 C 0.79187 0.95671 0.11733 0.0
C162 C 0.81596 0.95339 0.13198 0.0
C163 C 0.82724 0.97879 0.14299 0.0
C164 C 0.90895 0.01386 0.12078 0.0
C165 C 0.89384 0.02978 0.16372 0.0
C166 C 0.87944 0.02221 0.12632 0.0
N167 N 0.87216 0.0299 0.1476 0.0
C168 C 0.92358 0.02155 0.1588 0.0
C169 C 0.93113 0.01354 0.13716 0.0
C170 C 0.84324 0.08243 0.19198 0.0
C171 C 0.74459 0.13956 0.16805 0.0
C172 C 0.78014 0.12278 0.20369 0.0
C173 C 0.77359 0.15333 0.20027 0.0
C174 C 0.7557 0.16172 0.1823 0.0
N175 N 0.76922 0.10114 0.1896 0.0
C176 C 0.75162 0.10923 0.17198 0.0
Co177 Co 0.08429 0.83701 0.65721 0.0
Co178 Co 0.05752 0.77881 0.68803 0.0
O179 O 0.07039 0.79501 0.65943 0.0
C180 C 0.04709 0.82622 0.61661 0.0
O181 O 0.02757 0.81059 0.62831 0.0
C182 C 0.08801 0.71908 0.68913 0.0
O183 O 0.10109 0.72773 0.70761 0.0
O184 O 0.0985 0.78842 0.70018 0.0
O185 O 0.10075 0.83614 0.68802 0.0
H186 H 0.04921 0.7793 0.77101 0.0
H187 H 0.10322 0.79179 0.62361 0.0
O188 O 0.06932 0.83918 0.62601 0.0
H189 H 0.1981 0.83262 0.65442 0.0
H190 H 0.1305 0.92686 0.61856 0.0
H191 H 0.08216 0.89031 0.68712 0.0
H192 H 0.1488 0.85134 0.66762 0.0
H193 H 0.11436 0.87367 0.62195 0.0
O194 O 0.07169 0.73771 0.67832 0.0
H195 H 0.06408 0.79928 0.73446 0.0
H196 H 0.02481 0.72296 0.70281 0.0
H197 H 0.09817 0.9436 0.68449 0.0
H198 H 0.15207 0.77274 0.60969 0.0
H199 H 0.12254 0.96222 0.65002 0.0
H200 H 0.19997 0.79313 0.62516 0.0
O201 O 0.04469 0.85112 0.669 0.0
H202 H 0.98624 0.73683 0.63092 0.0
H203 H 0.99372 0.79027 0.7024 0.0
H204 H 0.9435 0.77954 0.6866 0.0
H205 H 0.9395 0.75249 0.65066 0.0
H206 H 0.03606 0.74854 0.64711 0.0
H207 H 0.00961 0.7021 0.73902 0.0
H208 H 0.02178 0.73036 0.77345 0.0
O209 O 0.04208 0.81951 0.69795 0.0
C210 C 0.11026 0.81477 0.70033 0.0
C211 C 0.04378 0.76678 0.75613 0.0
C212 C 0.02155 0.72345 0.73818 0.0
N213 N 0.04534 0.76233 0.71652 0.0
C214 C 0.05214 0.77798 0.73539 0.0
C215 C 0.03023 0.73537 0.71772 0.0
C216 C 0.02839 0.73932 0.75748 0.0
C217 C 0.12395 0.80097 0.63029 0.0
N218 N 0.1231 0.8228 0.6463 0.0
C219 C 0.15155 0.79002 0.6224 0.0
C220 C 0.17842 0.80145 0.6311 0.0
C221 C 0.17739 0.8236 0.64751 0.0
C222 C 0.14938 0.83406 0.65495 0.0
C223 C 0.11991 0.91902 0.63367 0.0
C224 C 0.09282 0.89817 0.67208 0.0
C225 C 0.11061 0.88894 0.63566 0.0
N226 N 0.09736 0.87883 0.65474 0.0
C227 C 0.1018 0.92841 0.67068 0.0
C228 C 0.11545 0.93884 0.65133 0.0
C229 C 0.03427 0.84386 0.68801 0.0
C230 C 0.98768 0.74856 0.64663 0.0
C231 C 0.99224 0.77879 0.68664 0.0
C232 C 0.9637 0.77263 0.67783 0.0
C233 C 0.96147 0.75741 0.65768 0.0
N234 N 0.01788 0.77003 0.67571 0.0
C235 C 0.01584 0.75511 0.65594 0.0
Co236 Co 0.29057 0.03711 0.84797 0.0
Co237 Co 0.33868 0.05477 0.80595 0.0
O238 O 0.32993 0.05229 0.83786 0.0
C239 C 0.31009 0.08268 0.88284 0.0
O240 O 0.33358 0.09137 0.87118 0.0
C241 C 0.39598 0.03126 0.82611 0.0
O242 O 0.38026 0.01364 0.83927 0.0
O243 O 0.33138 0.01041 0.80308 0.0
O244 O 0.28798 0.00893 0.82207 0.0
H245 H 0.3202 0.03205 0.72553 0.0
H246 H 0.34487 0.0341 0.8775 0.0
O247 O 0.2912 0.06381 0.8749 0.0
H248 H 0.30555 0.92994 0.8743 0.0
H249 H 0.21346 0.00222 0.90395 0.0
H250 H 0.2327 0.02405 0.82511 0.0
H251 H 0.28035 0.97082 0.85372 0.0
H252 H 0.26368 0.01963 0.89163 0.0
O253 O 0.38269 0.04768 0.81181 0.0
H254 H 0.30923 0.03052 0.76555 0.0
H255 H 0.38789 0.08263 0.77884 0.0
H256 H 0.18224 0.00636 0.83671 0.0
H257 H 0.37028 0.99414 0.89873 0.0
H258 H 0.17235 0.99533 0.87639 0.0
H259 H 0.35076 0.94149 0.89719 0.0
O260 O 0.27027 0.06971 0.83064 0.0
H261 H 0.3828 0.14777 0.84136 0.0
H262 H 0.31773 0.10953 0.78126 0.0
H263 H 0.32551 0.16447 0.7853 0.0
H264 H 0.35833 0.18394 0.81549 0.0
H265 H 0.37413 0.093 0.83688 0.0
H266 H 0.39983 0.08452 0.73898 0.0
H267 H 0.36579 0.05921 0.712 0.0
O268 O 0.29509 0.06302 0.79874 0.0
C269 C 0.30687 0.99715 0.80861 0.0
C270 C 0.33517 0.04323 0.73712 0.0
C271 C 0.37988 0.07264 0.74467 0.0
N272 N 0.3478 0.05658 0.77453 0.0
C273 C 0.32905 0.04248 0.7598 0.0
C274 C 0.37304 0.07141 0.76723 0.0
C275 C 0.36077 0.05844 0.72954 0.0
C276 C 0.3357 0.01155 0.87705 0.0
N277 N 0.31068 0.00514 0.86462 0.0
C278 C 0.35044 0.98885 0.88898 0.0
C279 C 0.33954 0.95931 0.88805 0.0
C280 C 0.31421 0.95282 0.8752 0.0
C281 C 0.30006 0.9761 0.86351 0.0
C282 C 0.21749 0.00694 0.88661 0.0
C283 C 0.22863 0.01919 0.8424 0.0
C284 C 0.24586 0.01694 0.87954 0.0
N285 N 0.25118 0.02279 0.85764 0.0
C286 C 0.19999 0.00923 0.84887 0.0
C287 C 0.19444 0.00306 0.87114 0.0
C288 C 0.27284 0.07358 0.80978 0.0
C289 C 0.36844 0.13957 0.82815 0.0
C290 C 0.33182 0.11779 0.79457 0.0
C291 C 0.33625 0.14895 0.79671 0.0
C292 C 0.35469 0.15985 0.81364 0.0
N293 N 0.34534 0.09803 0.8089 0.0
C294 C 0.36348 0.10857 0.82551 0.0
Co295 Co 0.09254 0.28895 0.34325 0.0
Co296 Co 0.06432 0.34558 0.31143 0.0
O297 O 0.07836 0.33099 0.34035 0.0
C298 C 0.05726 0.30008 0.38497 0.0
O299 O 0.03609 0.31397 0.37365 0.0
C300 C 0.09225 0.40063 0.33383 0.0
O301 O 0.10135 0.38477 0.35094 0.0
O302 O 0.10466 0.33517 0.29863 0.0
O303 O 0.10678 0.28796 0.31178 0.0
H304 H 0.05128 0.33765 0.22897 0.0
H305 H 0.11402 0.33464 0.37566 0.0
O306 O 0.07982 0.28841 0.37507 0.0
H307 H 0.20635 0.294 0.3408 0.0
H308 H 0.14181 0.20126 0.38248 0.0
H309 H 0.08804 0.23402 0.31511 0.0
H310 H 0.15619 0.27456 0.33023 0.0
H311 H 0.12545 0.25425 0.37819 0.0
O312 O 0.07907 0.38785 0.31756 0.0
H313 H 0.06724 0.32038 0.26599 0.0
H314 H 0.03373 0.40148 0.29473 0.0
H315 H 0.10419 0.18088 0.31866 0.0
H316 H 0.16382 0.35445 0.38697 0.0
H317 H 0.13129 0.16417 0.35254 0.0
H318 H 0.21043 0.33419 0.36943 0.0
O319 O 0.05213 0.27424 0.33344 0.0
H320 H 0.99429 0.38794 0.36958 0.0
H321 H 1.00031 0.33592 0.29752 0.0
H322 H 0.95042 0.34756 0.31349 0.0
H323 H 0.94714 0.37396 0.34973 0.0
H324 H 0.04361 0.37539 0.35323 0.0
H325 H 0.01773 0.41975 0.25799 0.0
H326 H 0.02634 0.38768 0.22479 0.0
O327 O 0.04807 0.30434 0.30379 0.0
C328 C 0.11586 0.30861 0.29866 0.0
C329 C 0.04734 0.3518 0.24332 0.0
C330 C 0.02856 0.3979 0.2596 0.0
N331 N 0.0513 0.3598 0.28254 0.0
C332 C 0.05628 0.34212 0.26433 0.0
C333 C 0.03777 0.38747 0.28036 0.0
C334 C 0.03338 0.37989 0.24098 0.0
C335 C 0.13419 0.32562 0.36803 0.0
N336 N 0.13212 0.3036 0.35222 0.0
C337 C 0.16234 0.33695 0.37447 0.0
C338 C 0.18848 0.32559 0.36461 0.0
C339 C 0.18621 0.30305 0.34855 0.0
C340 C 0.1577 0.29223 0.34256 0.0
C341 C 0.13001 0.20826 0.36764 0.0
C342 C 0.09987 0.22699 0.32989 0.0
C343 C 0.12058 0.23823 0.36515 0.0
N344 N 0.1058 0.24728 0.34641 0.0
C345 C 0.10894 0.19683 0.33181 0.0
C346 C 0.12412 0.18747 0.35083 0.0
C347 C 0.04047 0.28073 0.31469 0.0
C348 C 0.99541 0.37667 0.35368 0.0
C349 C 0.99917 0.34736 0.3133 0.0
C350 C 0.9708 0.35394 0.32225 0.0
C351 C 0.96897 0.36875 0.34257 0.0
N352 N 0.02508 0.35545 0.32417 0.0
C353 C 0.02339 0.36973 0.34421 0.0
Co354 Co 0.82295 0.09018 0.84252 0.0
Co355 Co 0.77209 0.06143 0.80593 0.0
O356 O 0.78333 0.07162 0.83655 0.0
C357 C 0.80973 0.05029 0.88217 0.0
O358 O 0.78899 0.03518 0.87128 0.0
C359 C 0.71479 0.08671 0.82543 0.0
O360 O 0.73018 0.10712 0.83647 0.0
O361 O 0.77696 0.10478 0.79757 0.0
O362 O 0.82238 0.1116 0.81325 0.0
H363 H 0.78356 0.06597 0.7232 0.0
H364 H 0.77247 0.09815 0.87466 0.0
O365 O 0.8253 0.07063 0.87251 0.0
H366 H 0.80435 0.20145 0.85466 0.0
H367 H 0.90263 0.14099 0.88923 0.0
H368 H 0.87839 0.09909 0.81565 0.0
H369 H 0.82988 0.15717 0.83839 0.0
H370 H 0.85237 0.11913 0.88178 0.0
O371 O 0.72829 0.06815 0.81271 0.0
H372 H 0.79726 0.07721 0.76191 0.0
H373 H 0.72243 0.02571 0.78483 0.0
H374 H 0.92884 0.12101 0.82233 0.0
H375 H 0.74674 0.14176 0.89163 0.0
H376 H 0.94125 0.14216 0.85935 0.0
H377 H 0.76254 0.19392 0.8816 0.0
O378 O 0.84314 0.05451 0.82869 0.0
H379 H 0.73468 0.97634 0.85389 0.0
H380 H 0.79359 0.0025 0.78726 0.0
H381 H 0.78861 0.94904 0.79822 0.0
H382 H 0.75888 0.93563 0.83173 0.0
H383 H 0.74067 0.02959 0.84252 0.0
H384 H 0.70776 0.01414 0.74636 0.0
H385 H 0.73851 0.03422 0.71521 0.0
O386 O 0.81537 0.05321 0.79779 0.0
C387 C 0.80129 0.11982 0.80019 0.0
C388 C 0.77 0.05706 0.73662 0.0
C389 C 0.72744 0.02801 0.74962 0.0
N390 N 0.76073 0.05209 0.77563 0.0
C391 C 0.77767 0.06333 0.75859 0.0
C392 C 0.7358 0.03473 0.77138 0.0
C393 C 0.74471 0.03926 0.73216 0.0
C394 C 0.77987 0.12069 0.87045 0.0
N395 N 0.80293 0.12498 0.85572 0.0
C396 C 0.76504 0.14535 0.88001 0.0
C397 C 0.77387 0.1746 0.87434 0.0
C398 C 0.79731 0.17884 0.85923 0.0
C399 C 0.81164 0.15364 0.85003 0.0
C400 C 0.8975 0.13185 0.87303 0.0
C401 C 0.88356 0.10832 0.83178 0.0
C402 C 0.86911 0.11931 0.86873 0.0
N403 N 0.8624 0.10786 0.84827 0.0
C404 C 0.91219 0.12067 0.83548 0.0
C405 C 0.91915 0.13251 0.85625 0.0
C406 C 0.8389 0.04582 0.80877 0.0
C407 C 0.74772 0.98189 0.83927 0.0
C408 C 0.78094 0.99693 0.80201 0.0
C409 C 0.77804 0.96657 0.80806 0.0
C410 C 0.76133 0.95906 0.82684 0.0
N411 N 0.76764 0.01923 0.81434 0.0
C412 C 0.75113 0.01201 0.83272 0.0
Co413 Co 0.03942 0.82697 0.34385 0.0
Co414 Co 0.05764 0.77487 0.3045 0.0
O415 O 0.05267 0.78591 0.3359 0.0
C416 C 0.08077 0.80703 0.38117 0.0
O417 O 0.08976 0.78306 0.37018 0.0
C418 C 0.0322 0.71917 0.32669 0.0
O419 O 0.01954 0.73568 0.34216 0.0
O420 O 0.01429 0.78509 0.29915 0.0
O421 O 0.01456 0.82994 0.31626 0.0
H422 H 0.04451 0.79061 0.22266 0.0
H423 H 0.0295 0.77654 0.3761 0.0
O424 O 0.06302 0.82616 0.37225 0.0
H425 H 0.92877 0.82071 0.36324 0.0
H426 H 0.00417 0.90971 0.39522 0.0
H427 H 0.03338 0.88426 0.31863 0.0
H428 H 0.97351 0.84132 0.34425 0.0
H429 H 0.01919 0.85769 0.38545 0.0
O430 O 0.0465 0.73164 0.31082 0.0
H431 H 0.03984 0.80381 0.26219 0.0
H432 H 0.08413 0.72217 0.28023 0.0
H433 H 0.01826 0.9365 0.32766 0.0
H434 H 0.98554 0.75576 0.39582 0.0
H435 H 0.00351 0.94953 0.3662 0.0
H436 H 0.9346 0.77773 0.38939 0.0
O437 O 0.07502 0.84382 0.32793 0.0
H438 H 0.14333 0.72658 0.34627 0.0
H439 H 0.11607 0.78975 0.28205 0.0
H440 H 0.16967 0.77823 0.28923 0.0
H441 H 0.18363 0.74632 0.32151 0.0
H442 H 0.09003 0.73902 0.33864 0.0
H443 H 0.08903 0.70798 0.24091 0.0
H444 H 0.06926 0.74238 0.21179 0.0
O445 O 0.07008 0.81735 0.29658 0.0
C446 C 0.00241 0.81082 0.30317 0.0
C447 C 0.05327 0.77546 0.23519 0.0
C448 C 0.07823 0.72907 0.24543 0.0
N449 N 0.06182 0.76388 0.27352 0.0
C450 C 0.05074 0.78284 0.2576 0.0
C451 C 0.07529 0.7372 0.26768 0.0
C452 C 0.06714 0.74839 0.2291 0.0
C453 C 0.00765 0.78667 0.37345 0.0
N454 N 0.00435 0.81039 0.35914 0.0
C455 C 0.98271 0.7746 0.38456 0.0
C456 C 0.95414 0.78688 0.38091 0.0
C457 C 0.95085 0.81096 0.36623 0.0
C458 C 0.97631 0.82246 0.35543 0.0
C459 C 0.01052 0.90432 0.37837 0.0
C460 C 0.0269 0.88969 0.33543 0.0
C461 C 0.01915 0.8749 0.37274 0.0
N462 N 0.02706 0.86786 0.35145 0.0
C463 C 0.0184 0.91934 0.34045 0.0
C464 C 0.01015 0.92664 0.36208 0.0
C465 C 0.08073 0.83976 0.30744 0.0
C466 C 0.13755 0.7405 0.33215 0.0
C467 C 0.12192 0.77612 0.29625 0.0
C468 C 0.15234 0.76954 0.30017 0.0
C469 C 0.16014 0.75161 0.31826 0.0
N470 N 0.09985 0.76519 0.30996 0.0
C471 C 0.10737 0.74757 0.32771 0.0
H472 H 0.26692 0.07845 0.09212 0.0
H473 H 0.26877 0.08448 0.05201 0.0
H474 H 0.34965 0.03013 0.04936 0.0
H475 H 0.34798 0.02387 0.08972 0.0
H476 H 0.31723 0.11161 0.0285 0.0
H477 H 0.29502 0.9937 1.00057 0.0
H478 H 0.28653 0.00643 0.02831 0.0
H479 H 0.32486 0.99831 0.02051 0.0
C480 C 0.28493 0.0674 0.08304 0.0
C481 C 0.30737 0.05072 0.09418 0.0
C482 C 0.28598 0.07097 0.06009 0.0
C483 C 0.30933 0.0578 0.0477 0.0
C484 C 0.33123 0.04023 0.05859 0.0
H485 H 0.35609 0.10152 0.91018 0.0
H486 H 0.35707 0.09821 0.95073 0.0
C487 C 0.33021 0.03661 0.08165 0.0
C488 C 0.31121 0.06371 0.02354 0.0
H489 H 0.30581 0.02983 0.97288 0.0
C490 C 0.31488 0.09373 0.01632 0.0
C491 C 0.30797 0.04036 0.00772 0.0
C492 C 0.30314 0.00789 0.01455 0.0
C493 C 0.31517 0.10103 0.99366 0.0
C494 C 0.31184 0.07769 0.97787 0.0
C495 C 0.30844 0.04766 0.98508 0.0
C496 C 0.31046 0.0839 0.95376 0.0
C497 C 0.31818 0.13367 0.98673 0.0
C498 C 0.28373 0.07778 0.94214 0.0
C499 C 0.28303 0.07984 0.91908 0.0
C500 C 0.30918 0.08775 0.90711 0.0
C501 C 0.33549 0.09561 0.91888 0.0
C502 C 0.33614 0.0936 0.94205 0.0
H503 H 0.31567 0.14943 1.00095 0.0
H504 H 0.34082 0.13729 0.97924 0.0
H505 H 0.30095 0.13938 0.97403 0.0
H506 H 0.26363 0.0704 0.95088 0.0
H507 H 0.26232 0.0738 0.91057 0.0
H508 H 0.02045 0.27727 0.59515 0.0
H509 H 0.0212 0.27796 0.55493 0.0
H510 H 0.10932 0.31967 0.55584 0.0
H511 H 0.10866 0.31951 0.59657 0.0
H512 H 0.06772 0.34726 0.52612 0.0
H513 H 0.07095 0.2229 0.5145 0.0
H514 H 0.04093 0.23523 0.53236 0.0
H515 H 0.07961 0.24072 0.54064 0.0
C516 C 0.04019 0.28646 0.58695 0.0
C517 C 0.06462 0.29819 0.59921 0.0
C518 C 0.04058 0.2867 0.56385 0.0
C519 C 0.06547 0.29845 0.55236 0.0
C520 C 0.08994 0.31033 0.56442 0.0
H521 H 0.09768 0.27251 0.41242 0.0
H522 H 0.09939 0.27356 0.45265 0.0
C523 C 0.08959 0.31009 0.58768 0.0
C524 C 0.06534 0.29867 0.52775 0.0
H525 H 0.05872 0.25235 0.48272 0.0
C526 C 0.06597 0.32653 0.51659 0.0
C527 C 0.06323 0.27158 0.51534 0.0
C528 C 0.06393 0.24089 0.52628 0.0
C529 C 0.06396 0.32804 0.49335 0.0
C530 C 0.06077 0.30098 0.48101 0.0
C531 C 0.06072 0.27312 0.49219 0.0
C532 C 0.05908 0.30079 0.45641 0.0
C533 C 0.06577 0.35853 0.4822 0.0
C534 C 0.03552 0.31541 0.44501 0.0
C535 C 0.03443 0.31489 0.42178 0.0
C536 C 0.05682 0.29959 0.40958 0.0
C537 C 0.08002 0.28456 0.42117 0.0
C538 C 0.08109 0.28513 0.44425 0.0
H539 H 0.07542 0.37604 0.49337 0.0
H540 H 0.0798 0.35734 0.46697 0.0
H541 H 0.04269 0.36585 0.4774 0.0
H542 H 0.01792 0.32712 0.45407 0.0
H543 H 0.01625 0.32666 0.41341 0.0
H544 H 0.76922 0.02403 0.91093 0.0
H545 H 0.76762 0.03016 0.95133 0.0
H546 H 0.85125 0.08019 0.94916 0.0
H547 H 0.85316 0.07416 0.90904 0.0
H548 H 0.81102 0.01565 0.9859 0.0
H549 H 0.7895 0.13898 0.97855 0.0
H550 H 0.78463 0.11309 0.95567 0.0
H551 H 0.82181 0.1258 0.96328 0.0
C552 C 0.78756 0.03584 0.9191 0.0
C553 C 0.81114 0.04891 0.9067 0.0
C554 C 0.78651 0.03947 0.94216 0.0
C555 C 0.80893 0.05628 0.95312 0.0
C556 C 0.83336 0.06775 0.94095 0.0
H557 H 0.85781 0.07134 0.09011 0.0
H558 H 0.8555 0.06597 0.04993 0.0
C559 C 0.83447 0.06413 0.918 0.0
C560 C 0.80663 0.06264 0.97718 0.0
H561 H 0.80163 0.12057 0.01456 0.0
C562 C 0.80875 0.03854 0.99219 0.0
C563 C 0.80322 0.09251 0.98531 0.0
C564 C 0.79937 0.1191 0.9699 0.0
C565 C 0.80872 0.04365 0.01516 0.0
C566 C 0.80678 0.07365 0.02326 0.0
C567 C 0.80348 0.09765 0.00828 0.0
C568 C 0.80893 0.0804 0.04726 0.0
C569 C 0.81085 0.0169 0.03061 0.0
C570 C 0.78397 0.09187 0.05894 0.0
C571 C 0.78521 0.0951 0.08202 0.0
C572 C 0.8115 0.08696 0.09372 0.0
C573 C 0.83708 0.07749 0.08169 0.0
C574 C 0.83579 0.07423 0.05872 0.0
H575 H 0.80487 0.99538 0.02215 0.0
H576 H 0.83439 0.01492 0.03679 0.0
H577 H 0.79571 0.01992 0.04513 0.0
H578 H 0.76312 0.09704 0.05032 0.0
H579 H 0.76509 0.10238 0.09076 0.0
H580 H 0.09603 0.76127 0.40986 0.0
H581 H 0.09058 0.76191 0.45031 0.0
H582 H 0.06699 0.85649 0.44794 0.0
H583 H 0.07226 0.85611 0.40772 0.0
H584 H 0.11658 0.79803 0.48488 0.0
H585 H 0.99283 0.81555 0.4772 0.0
H586 H 0.01617 0.80365 0.45424 0.0
H587 H 0.01502 0.84281 0.46228 0.0
C588 C 0.09039 0.78237 0.418 0.0
C589 C 0.08426 0.80856 0.40555 0.0
C590 C 0.08707 0.78264 0.44109 0.0
C591 C 0.07757 0.80904 0.452 0.0
C592 C 0.07359 0.83569 0.43976 0.0
H593 H 0.07929 0.86164 0.58825 0.0
H594 H 0.08526 0.8553 0.54841 0.0
C595 C 0.07684 0.83546 0.41678 0.0
C596 C 0.07069 0.80875 0.47603 0.0
H597 H 0.014 0.8224 0.51322 0.0
C598 C 0.09413 0.80311 0.4911 0.0
C599 C 0.04121 0.81479 0.48408 0.0
C600 C 0.01477 0.81925 0.46863 0.0
C601 C 0.08915 0.80468 0.51405 0.0
C602 C 0.06008 0.81249 0.52207 0.0
C603 C 0.03634 0.8168 0.50702 0.0
C604 C 0.05433 0.81752 0.54599 0.0
C605 C 0.11511 0.79805 0.52952 0.0
C606 C 0.0337 0.79939 0.5577 0.0
C607 C 0.02999 0.80311 0.58061 0.0
C608 C 0.04682 0.82511 0.59208 0.0
C609 C 0.06622 0.84424 0.58001 0.0
C610 C 0.06985 0.84053 0.55722 0.0
H611 H 0.1329 0.78431 0.52128 0.0
H612 H 0.12553 0.81969 0.53487 0.0
H613 H 0.10721 0.78584 0.54452 0.0
H614 H 0.02124 0.78171 0.54925 0.0
H615 H 0.01493 0.78798 0.58942 0.0
H616 H 0.44109 0.11624 0.14738 0.0
H617 H 0.49531 0.10777 0.14063 0.0
H618 H 0.49612 0.03845 0.19085 0.0
H619 H 0.44255 0.0464 0.19751 0.0
H620 H 0.5443 0.11229 0.16899 0.0
H621 H 0.53414 0.99482 0.13853 0.0
H622 H 0.50201 0.01986 0.1408 0.0
H623 H 0.51559 0.99967 0.16472 0.0
C624 C 0.45288 0.09924 0.15698 0.0
C625 C 0.43735 0.08185 0.17285 0.0
C626 C 0.4838 0.09435 0.15305 0.0
C627 C 0.49957 0.0719 0.16483 0.0
C628 C 0.48426 0.05522 0.18108 0.0
H629 H 0.68254 0.05139 0.20314 0.0
H630 H 0.62877 0.06114 0.19825 0.0
C631 C 0.45357 0.06002 0.18497 0.0
C632 C 0.5323 0.06634 0.16103 0.0
H633 H 0.58332 0.00948 0.15225 0.0
C634 C 0.55283 0.08994 0.16496 0.0
C635 C 0.54348 0.03731 0.15535 0.0
C636 C 0.52262 0.01156 0.14937 0.0
C637 C 0.58418 0.08483 0.16474 0.0
C638 C 0.59526 0.0552 0.16092 0.0
C639 C 0.57482 0.03206 0.15557 0.0
C640 C 0.62773 0.04753 0.16384 0.0
C641 C 0.60514 0.11116 0.16894 0.0
C642 C 0.64478 0.03505 0.14644 0.0
C643 C 0.67571 0.02907 0.14926 0.0
C644 C 0.68998 0.03541 0.16956 0.0
C645 C 0.67242 0.04661 0.18719 0.0
C646 C 0.64166 0.05244 0.18439 0.0
H647 H 0.59433 0.13299 0.1644 0.0
H648 H 0.61072 0.11208 0.18684 0.0
H649 H 0.62653 0.10879 0.15946 0.0
H650 H 0.63436 0.03071 0.13052 0.0
H651 H 0.68859 0.02048 0.13536 0.0
H652 H 0.00142 0.44016 0.65928 0.0
H653 H 0.01045 0.49481 0.65512 0.0
H654 H 0.08582 0.48877 0.70019 0.0
H655 H 0.0774 0.43475 0.70414 0.0
H656 H 0.01099 0.54072 0.68641 0.0
H657 H 0.12397 0.53116 0.64771 0.0
H658 H 0.09856 0.49934 0.65009 0.0
H659 H 0.12171 0.51053 0.67323 0.0
C660 C 0.01991 0.45053 0.66827 0.0
C661 C 0.03885 0.43296 0.68186 0.0
C662 C 0.02509 0.48171 0.66584 0.0
C663 C 0.04932 0.49574 0.6769 0.0
C664 C 0.0676 0.47834 0.69094 0.0
H665 H 0.11637 0.67168 0.70977 0.0
H666 H 0.10695 0.6176 0.70416 0.0
C667 C 0.06257 0.44737 0.69329 0.0
C668 C 0.05529 0.52868 0.67454 0.0
H669 H 0.1116 0.57956 0.66353 0.0
C670 C 0.0328 0.54925 0.68105 0.0
C671 C 0.08378 0.53981 0.66752 0.0
C672 C 0.10827 0.51905 0.65903 0.0
C673 C 0.03852 0.58054 0.68173 0.0
C674 C 0.06739 0.59149 0.67556 0.0
C675 C 0.08957 0.57105 0.6684 0.0
C676 C 0.07525 0.62402 0.6773 0.0
C677 C 0.01407 0.60159 0.68989 0.0
C678 C 0.06137 0.64543 0.66353 0.0
C679 C 0.06685 0.67632 0.66657 0.0
C680 C 0.08628 0.68641 0.68353 0.0
C681 C 0.10127 0.66475 0.69659 0.0
C682 C 0.09587 0.63384 0.69344 0.0
H683 H 0.99486 0.58914 0.69749 0.0
H684 H 0.02334 0.61771 0.70226 0.0
H685 H 0.00524 0.61498 0.67575 0.0
H686 H 0.0457 0.63826 0.65077 0.0
H687 H 0.05492 0.69229 0.65616 0.0
H688 H 0.67799 0.11294 0.85697 0.0
H689 H 0.62377 0.10344 0.8629 0.0
H690 H 0.6228 0.04346 0.80657 0.0
H691 H 0.67642 0.05239 0.80072 0.0
H692 H 0.57452 0.11271 0.83585 0.0
H693 H 0.58534 0.99076 0.85421 0.0
H694 H 0.61742 0.01604 0.85407 0.0
H695 H 0.60335 1.00033 0.82854 0.0
C696 C 0.66616 0.0978 0.84584 0.0
C697 C 0.68166 0.08322 0.82851 0.0
C698 C 0.63523 0.0923 0.84929 0.0
C699 C 0.61941 0.07207 0.83554 0.0
C700 C 0.63469 0.05838 0.81783 0.0
H701 H 0.43533 0.05832 0.79765 0.0
H702 H 0.48894 0.0683 0.80308 0.0
C703 C 0.66541 0.06373 0.81442 0.0
C704 C 0.58672 0.06575 0.83894 0.0
H705 H 0.53594 0.00763 0.84249 0.0
C706 C 0.5661 0.08979 0.83766 0.0
C707 C 0.57567 0.0359 0.84179 0.0
C708 C 0.59664 0.00934 0.84498 0.0
C709 C 0.53474 0.0846 0.83776 0.0
C710 C 0.52374 0.0545 0.83867 0.0
C711 C 0.54433 0.03064 0.84139 0.0
C712 C 0.49121 0.04728 0.8354 0.0
C713 C 0.51372 0.11144 0.83661 0.0
C714 C 0.47484 0.03073 0.85127 0.0
C715 C 0.44401 0.02455 0.84807 0.0
C716 C 0.42913 0.03478 0.82889 0.0
C717 C 0.44593 0.05041 0.81274 0.0
C718 C 0.4766 0.0564 0.8159 0.0
H719 H 0.52456 0.1321 0.84346 0.0
H720 H 0.50801 0.11605 0.81904 0.0
H721 H 0.49241 0.10713 0.84581 0.0
H722 H 0.48576 0.02312 0.86633 0.0
H723 H 0.43172 0.01249 0.86083 0.0
H724 H 0.08643 0.43978 0.29931 0.0
H725 H 0.07697 0.49412 0.30098 0.0
H726 H 0.08469 0.49161 0.37217 0.0
H727 H 0.09502 0.43719 0.37055 0.0
H728 H 0.02914 0.52016 0.3204 0.0
H729 H 0.13423 0.56573 0.35808 0.0
H730 H 0.13182 0.52777 0.3472 0.0
H731 H 0.11647 0.53644 0.37404 0.0
C732 C 0.08679 0.45089 0.31531 0.0
C733 C 0.09157 0.43415 0.3348 0.0
C734 C 0.08125 0.48197 0.31624 0.0
C735 C 0.08022 0.49709 0.33668 0.0
C736 C 0.08596 0.48065 0.35616 0.0
H737 H 0.02434 0.68478 0.36414 0.0
H738 H 0.03377 0.63024 0.36819 0.0
C739 C 0.09185 0.44949 0.35522 0.0
C740 C 0.07095 0.52946 0.33744 0.0
H741 H 0.09362 0.6002 0.35337 0.0
C742 C 0.04329 0.53761 0.32764 0.0
C743 C 0.08927 0.55229 0.347 0.0
C744 C 0.11972 0.54525 0.357 0.0
C745 C 0.03368 0.56787 0.32685 0.0
C746 C 0.05217 0.59064 0.33609 0.0
C747 C 0.07944 0.58257 0.34641 0.0
C748 C 0.04465 0.62315 0.33365 0.0
C749 C 0.00393 0.57541 0.31597 0.0
C750 C 0.0474 0.63704 0.31288 0.0
C751 C 0.04221 0.66804 0.31054 0.0
C752 C 0.03398 0.68581 0.32892 0.0
C753 C 0.03036 0.67167 0.34963 0.0
C754 C 0.03592 0.6406 0.35201 0.0
H755 H 0.98962 0.55501 0.31357 0.0
H756 H 0.99121 0.59218 0.32602 0.0
H757 H 0.00831 0.58566 0.29949 0.0
H758 H 0.05428 0.62397 0.29855 0.0
H759 H 0.04523 0.67821 0.29436 0.0
H760 H 0.11909 0.25758 0.27444 0.0
H761 H 0.16387 0.23683 0.25631 0.0
H762 H 0.21333 0.31839 0.27138 0.0
H763 H 0.16801 0.33954 0.28949 0.0
H764 H 0.20554 0.26071 0.22114 0.0
H765 H 0.25618 0.2448 0.30493 0.0
H766 H 0.21612 0.25097 0.30134 0.0
H767 H 0.2421 0.28157 0.29717 0.0
C768 C 0.13922 0.27149 0.27324 0.0
C769 C 0.14015 0.30019 0.28318 0.0
C770 C 0.16478 0.2596 0.26295 0.0
C771 C 0.19192 0.27598 0.26269 0.0
C772 C 0.19254 0.30543 0.27147 0.0
H773 H 0.33898 0.17307 0.1986 0.0
H774 H 0.31504 0.21837 0.21457 0.0
C775 C 0.16666 0.31758 0.28158 0.0
C776 C 0.21976 0.26044 0.25518 0.0
H777 H 0.27875 0.2188 0.27531 0.0
C778 C 0.22216 0.25226 0.23281 0.0
C779 C 0.24101 0.24913 0.2706 0.0
C780 C 0.23892 0.25685 0.2949 0.0
C781 C 0.24435 0.23176 0.22561 0.0
C782 C 0.26472 0.21931 0.24122 0.0
C783 C 0.26329 0.22867 0.2634 0.0
C784 C 0.28413 0.19318 0.23536 0.0
C785 C 0.24449 0.22184 0.20167 0.0
C786 C 0.27569 0.16423 0.24264 0.0
C787 C 0.28928 0.13855 0.23358 0.0
C788 C 0.31187 0.14147 0.21743 0.0
C789 C 0.32208 0.17041 0.21145 0.0
C790 C 0.30824 0.1962 0.22037 0.0
H791 H 0.2253 0.23154 0.19217 0.0
H792 H 0.26589 0.22915 0.1937 0.0
H793 H 0.24334 0.19677 0.20058 0.0
H794 H 0.25701 0.16145 0.25408 0.0
H795 H 0.28061 0.11641 0.23798 0.0
H796 H 0.94719 0.34115 0.70967 0.0
H797 H 0.90152 0.32063 0.72746 0.0
H798 H 0.95584 0.25259 0.75971 0.0
H799 H 1.00111 0.27292 0.74189 0.0
H800 H 0.88352 0.26173 0.71829 0.0
H801 H 0.8966 0.27626 0.80866 0.0
H802 H 0.91727 0.29889 0.78884 0.0
H803 H 0.93035 0.26162 0.79613 0.0
C804 C 0.94939 0.32277 0.72143 0.0
C805 C 0.97755 0.30895 0.72491 0.0
C806 C 0.92334 0.31088 0.73139 0.0
C807 C 0.92529 0.2853 0.74514 0.0
C808 C 0.95382 0.27277 0.74965 0.0
H809 H 0.83797 0.12247 0.76469 0.0
H810 H 0.86078 0.16822 0.74919 0.0
C811 C 0.9797 0.28441 0.73952 0.0
C812 C 0.89772 0.26864 0.75206 0.0
H813 H 0.86618 0.2335 0.79676 0.0
C814 C 0.8792 0.25619 0.7355 0.0
C815 C 0.89186 0.26161 0.7745 0.0
C816 C 0.90991 0.27557 0.79306 0.0
C817 C 0.85656 0.23504 0.74067 0.0
C818 C 0.85254 0.22598 0.76293 0.0
C819 C 0.86941 0.24025 0.77965 0.0
C820 C 0.83409 0.19917 0.76898 0.0
C821 C 0.83792 0.22172 0.72217 0.0
C822 C 0.81104 0.20133 0.78493 0.0
C823 C 0.79769 0.1751 0.79356 0.0
C824 C 0.80751 0.14648 0.7865 0.0
C825 C 0.82946 0.14438 0.76983 0.0
C826 C 0.84254 0.17051 0.76105 0.0
H827 H 0.83637 0.23755 0.70792 0.0
H828 H 0.84887 0.20063 0.71624 0.0
H829 H 0.81471 0.21609 0.72788 0.0
H830 H 0.80447 0.22318 0.79148 0.0
H831 H 0.78137 0.17712 0.80686 0.0
H832 H 0.97689 0.86666 0.30407 0.0
H833 H 0.93137 0.88384 0.2861 0.0
H834 H 0.91749 0.79506 0.25819 0.0
H835 H 0.96429 0.77735 0.27617 0.0
H836 H 0.90954 0.83833 0.2277 0.0
H837 H 0.84402 0.872 0.30075 0.0
H838 H 0.88104 0.88802 0.3033 0.0
H839 H 0.87655 0.84741 0.30282 0.0
C840 C 0.96422 0.85044 0.29435 0.0
C841 C 0.97431 0.82044 0.29174 0.0
C842 C 0.93781 0.86033 0.28424 0.0
C843 C 0.92033 0.84053 0.27142 0.0
C844 C 0.93033 0.81058 0.26841 0.0
H845 H 0.78016 0.96307 0.21919 0.0
H846 H 0.79742 0.91528 0.23598 0.0
C847 C 0.95712 0.80055 0.27858 0.0
C848 C 0.89349 0.85282 0.2597 0.0
H849 H 0.8381 0.9054 0.26783 0.0
C850 C 0.89321 0.85217 0.23648 0.0
C851 C 0.87133 0.87008 0.27101 0.0
C852 C 0.86807 0.86906 0.29586 0.0
C853 C 0.87409 0.8714 0.22441 0.0
C854 C 0.85558 0.89236 0.23589 0.0
C855 C 0.85292 0.89003 0.25897 0.0
C856 C 0.84374 0.91995 0.22485 0.0
C857 C 0.87526 0.87029 0.19946 0.0
C858 C 0.86414 0.93878 0.21364 0.0
C859 C 0.85449 0.96576 0.20419 0.0
C860 C 0.82414 0.97504 0.2059 0.0
C861 C 0.80365 0.95653 0.21752 0.0
C862 C 0.81344 0.92919 0.227 0.0
H863 H 0.87901 0.84674 0.19362 0.0
H864 H 0.85411 0.87908 0.19191 0.0
H865 H 0.89458 0.88412 0.19352 0.0
H866 H 0.88787 0.93291 0.21253 0.0
H867 H 0.87112 0.97946 0.19566 0.0
H868 H 0.12073 0.86809 0.7205 0.0
H869 H 0.16756 0.88497 0.73766 0.0
H870 H 0.20575 0.79587 0.72958 0.0
H871 H 0.15822 0.77854 0.71221 0.0
H872 H 0.21824 0.82809 0.77251 0.0
H873 H 0.24526 0.89626 0.69844 0.0
H874 H 0.20685 0.90156 0.70725 0.0
H875 H 0.21901 0.86488 0.69782 0.0
C876 C 0.13885 0.85186 0.72272 0.0
C877 C 0.13595 0.82205 0.71494 0.0
C878 C 0.16566 0.8616 0.73238 0.0
C879 C 0.19031 0.84188 0.73432 0.0
C880 C 0.187 0.81147 0.72796 0.0
H881 H 0.33533 0.96577 0.77477 0.0
H882 H 0.31687 0.91981 0.7561 0.0
C883 C 0.15985 0.80156 0.71827 0.0
C884 C 0.21936 0.85422 0.74245 0.0
H885 H 0.26507 0.9151 0.73344 0.0
C886 C 0.22923 0.84647 0.76374 0.0
C887 C 0.23428 0.8776 0.73075 0.0
C888 C 0.22602 0.88535 0.70718 0.0
C889 C 0.25127 0.86392 0.7746 0.0
C890 C 0.263 0.89005 0.76403 0.0
C891 C 0.25578 0.89543 0.74176 0.0
C892 C 0.27719 0.91499 0.77683 0.0
C893 C 0.26045 0.8552 0.79778 0.0
C894 C 0.26096 0.92767 0.79446 0.0
C895 C 0.2712 0.95373 0.80493 0.0
C896 C 0.298 0.96813 0.79804 0.0
C897 C 0.31472 0.95517 0.7806 0.0
C898 C 0.30425 0.92889 0.76997 0.0
H899 H 0.2606 0.8302 0.79969 0.0
H900 H 0.28318 0.86415 0.80208 0.0
H901 H 0.2437 0.86436 0.80973 0.0
H902 H 0.23946 0.91819 0.79956 0.0
H903 H 0.25737 0.96304 0.81807 0.0
H904 H 0.83877 0.02836 0.76545 0.0
H905 H 0.87419 0.99524 0.74653 0.0
H906 H 0.92717 0.9875 0.80613 0.0
H907 H 0.89149 0.02101 0.82557 0.0
H908 H 0.96103 0.99732 0.76376 0.0
H909 H 0.87871 0.90251 0.7604 0.0
H910 H 0.86436 0.93826 0.75089 0.0
H911 H 0.87485 0.93382 0.77944 0.0
C912 C 0.85792 0.01979 0.7747 0.0
C913 C 0.862 0.02714 0.79722 0.0
C914 C 0.87816 1.00078 0.76376 0.0
C915 C 0.90301 0.98859 0.775 0.0
C916 C 0.90796 0.9966 0.79723 0.0
H917 H 0.00726 0.83534 0.72823 0.0
H918 H 0.97697 0.87106 0.74942 0.0
C919 C 0.88756 0.0157 0.8083 0.0
C920 C 0.92308 0.96685 0.76341 0.0
H921 H 0.92281 0.89763 0.73827 0.0
C922 C 0.95283 0.97542 0.7583 0.0
C923 C 0.91232 0.93825 0.75645 0.0
C924 C 0.8809 0.92744 0.7622 0.0
C925 C 0.97192 0.95634 0.74593 0.0
C926 C 0.96077 0.92816 0.7383 0.0
C927 C 0.93123 0.91937 0.74389 0.0
C928 C 0.97958 0.90689 0.72511 0.0
C929 C 0.00394 0.96632 0.74134 0.0
C930 C 0.99081 0.91496 0.70415 0.0
C931 C 0.00821 0.89444 0.69182 0.0
C932 C 0.01459 0.86543 0.70024 0.0
C933 C 0.00288 0.85741 0.72113 0.0
C934 C 0.98554 0.87785 0.73336 0.0
H935 H 0.01116 0.98474 0.75269 0.0
H936 H 0.01992 0.94707 0.74301 0.0
H937 H 0.00545 0.97493 0.72412 0.0
H938 H 0.98598 0.93705 0.69726 0.0
H939 H 0.01684 0.90141 0.67583 0.0
H940 H 0.2255 0.02262 0.17483 0.0
H941 H 0.18845 0.98986 0.19349 0.0
H942 H 0.245 0.98736 0.25158 0.0
H943 H 0.28178 0.01973 0.2334 0.0
H944 H 0.22558 0.92948 0.23562 0.0
H945 H 0.13073 0.01093 0.24661 0.0
H946 H 0.14676 0.00783 0.21928 0.0
H947 H 0.1691 0.02309 0.24141 0.0
C948 C 0.22994 0.01523 0.19162 0.0
C949 C 0.25678 0.02374 0.2025 0.0
C950 C 0.20869 0.99664 0.20229 0.0
C951 C 0.21394 0.98633 0.22397 0.0
C952 C 0.24049 0.99505 0.23487 0.0
H953 H 0.10535 0.89307 0.32285 0.0
H954 H 0.13674 0.9292 0.3022 0.0
C955 C 0.26155 0.0136 0.22434 0.0
C956 C 0.19271 0.96539 0.23526 0.0
H957 H 0.12271 0.96085 0.2591 0.0
C958 C 0.20303 0.93627 0.24065 0.0
C959 C 0.16348 0.97449 0.24204 0.0
C960 C 0.15175 0.00584 0.23723 0.0
C961 C 0.18488 0.91596 0.2526 0.0
C962 C 0.15556 0.92493 0.25924 0.0
C963 C 0.1452 0.95407 0.25393 0.0
C964 C 0.13536 0.90402 0.27149 0.0
C965 C 0.19738 0.88519 0.2584 0.0
C966 C 0.12391 0.87821 0.26096 0.0
C967 C 0.10602 0.85763 0.27263 0.0
C968 C 0.09923 0.86232 0.29518 0.0
C969 C 0.1103 0.88858 0.30559 0.0
C970 C 0.12813 0.90931 0.29381 0.0
H971 H 0.22226 0.88401 0.25598 0.0
H972 H 0.19209 0.87936 0.27586 0.0
H973 H 0.1867 0.86787 0.24763 0.0
H974 H 0.12898 0.87389 0.24369 0.0
H975 H 0.09771 0.83789 0.26391 0.0
H976 H 0.1005 0.22494 0.67354 0.0
H977 H 0.13205 0.18602 0.69142 0.0
H978 H 0.11254 0.2249 0.75532 0.0
H979 H 0.08149 0.26354 0.73785 0.0
H980 H 0.18434 0.20096 0.72108 0.0
H981 H 0.09596 0.13185 0.76246 0.0
H982 H 0.08814 0.15546 0.7387 0.0
H983 H 0.09211 0.17212 0.76567 0.0
C984 C 0.10267 0.22489 0.69141 0.0
C985 C 0.08857 0.24741 0.70423 0.0
C986 C 0.12071 0.20274 0.70158 0.0
C987 C 0.12434 0.20245 0.72471 0.0
C988 C 0.10972 0.22446 0.7375 0.0
H989 H 0.22687 0.10924 0.82618 0.0
H990 H 0.19053 0.13944 0.80484 0.0
C991 C 0.09211 0.24668 0.72741 0.0
C992 C 0.14493 0.18062 0.7357 0.0
H993 H 0.14668 0.12422 0.77437 0.0
C994 C 0.17616 0.18386 0.73249 0.0
C995 C 0.13414 0.15874 0.75084 0.0
C996 C 0.10074 0.15406 0.75457 0.0
C997 C 0.197 0.1664 0.74454 0.0
C998 C 0.18624 0.1445 0.75979 0.0
C999 C 0.15493 0.141 0.76274 0.0
C1000 C 0.20721 0.12509 0.7728 0.0
C1001 C 0.23033 0.17247 0.74145 0.0
C1002 C 0.22807 0.10638 0.76193 0.0
C1003 C 0.24893 0.08939 0.77402 0.0
C1004 C 0.24916 0.0903 0.79734 0.0
C1005 C 0.2274 0.10808 0.80827 0.0
C1006 C 0.20662 0.12535 0.79609 0.0
H1007 H 0.23448 0.19528 0.73433 0.0
H1008 H 0.24271 0.1707 0.75739 0.0
H1009 H 0.23986 0.15553 0.72981 0.0
H1010 H 0.22843 0.1051 0.74402 0.0
H1011 H 0.26504 0.07566 0.76498 0.0
H1012 H 0.02397 0.22321 0.32799 0.0
H1013 H 0.99124 0.18743 0.30808 0.0
H1014 H 0.97755 0.25339 0.25647 0.0
H1015 H 0.00977 0.28902 0.27599 0.0
H1016 H 0.924 0.22557 0.27109 0.0
H1017 H 0.01325 0.1416 0.25014 0.0
H1018 H 0.00995 0.15155 0.27893 0.0
H1019 H 0.02195 0.17955 0.25926 0.0
C1020 C 0.01385 0.23014 0.31247 0.0
C1021 C 0.01954 0.25909 0.30368 0.0
C1022 C 0.99536 0.20958 0.30103 0.0
C1023 C 0.98226 0.21765 0.28065 0.0
C1024 C 0.98748 0.24664 0.27211 0.0
H1025 H 0.89444 0.11171 0.17692 0.0
H1026 H 0.92887 0.14399 0.19845 0.0
C1027 C 0.00595 0.26704 0.2834 0.0
C1028 C 0.96272 0.19634 0.26811 0.0
H1029 H 0.96325 0.12989 0.23907 0.0
C1030 C 0.93255 0.20459 0.26417 0.0
C1031 C 0.97408 0.16924 0.25879 0.0
C1032 C 0.00663 0.15992 0.26178 0.0
C1033 C 0.91335 0.18639 0.2513 0.0
C1034 C 0.92452 0.15903 0.2423 0.0
C1035 C 0.95476 0.15084 0.24606 0.0
C1036 C 0.90476 0.13843 0.22937 0.0
C1037 C 0.88135 0.1968 0.24715 0.0
C1038 C 0.88022 0.12423 0.23971 0.0
C1039 C 0.86063 0.10588 0.22756 0.0
C1040 C 0.86509 0.10124 0.20469 0.0
C1041 C 0.89019 0.11493 0.19443 0.0
C1042 C 0.90992 0.13331 0.20671 0.0
H1043 H 0.87846 0.2213 0.25073 0.0
H1044 H 0.87463 0.19247 0.22971 0.0
H1045 H 0.86573 0.184 0.25807 0.0
H1046 H 0.87609 0.12751 0.25724 0.0
H1047 H 0.84181 0.09552 0.23618 0.0
loop_
_geom_bond_atom_site_label_1
_geom_bond_atom_site_label_2
_geom_bond_distance
_geom_bond_site_symmetry_2
_ccdc_geom_bond_type
Co0 O2 2.143 . S
Co0 O8 2.074 . S
Co0 O11 2.093 . S
Co0 O24 2.097 . S
Co0 N41 2.151 . S
Co0 N49 2.214 . S
Co1 O2 2.160 . S
Co1 O7 2.058 . S
Co1 O17 2.057 . S
Co1 O32 2.037 . S
Co1 N36 2.145 . S
Co1 N57 2.257 . S
O2 Co0 2.143 . S
O2 Co1 2.160 . S
C3 O4 1.278 . S
C3 O11 1.224 . S
O4 C3 1.278 . S
C5 O6 1.245 . S
C5 O17 1.232 . S
O6 C5 1.245 . S
O7 Co1 2.058 . S
O7 C33 1.269 . S
O8 Co0 2.074 . S
O8 C33 1.257 . S
H9 C34 0.930 . S
H10 C40 0.930 . S
O11 Co0 2.093 . S
O11 C3 1.224 . S
H12 C44 0.929 . S
H13 C46 0.930 . S
H14 C47 0.930 . S
H15 C45 0.929 . S
H16 C48 0.928 . S
O17 Co1 2.057 . S
O17 C5 1.232 . S
H18 C37 0.929 . S
H19 C38 0.929 . S
H20 C50 0.931 . S
H21 C42 0.929 . S
H22 C51 0.930 . S
H23 C43 0.931 . S
O24 Co0 2.097 . S
O24 C52 1.214 . S
H25 C53 0.929 . S
H26 C54 0.929 . S
H27 C55 0.930 . S
H28 C56 0.929 . S
H29 C58 0.930 . S
H30 C35 0.930 . S
H31 C39 0.930 . S
O32 Co1 2.037 . S
O32 C52 1.234 . S
C33 O7 1.269 . S
C33 O8 1.257 . S
C34 H9 0.930 . S
C34 C37 1.388 . S
C34 C39 1.418 . S
C35 H30 0.930 . S
C35 C38 1.404 . S
C35 C39 1.353 . S
N36 Co1 2.145 . S
N36 C37 1.397 . S
N36 C38 1.334 . S
C37 H18 0.929 . S
C37 C34 1.388 . S
C37 N36 1.397 . S
C38 H19 0.929 . S
C38 C35 1.404 . S
C38 N36 1.334 . S
C39 H31 0.930 . S
C39 C34 1.418 . S
C39 C35 1.353 . S
C40 H10 0.930 . S
C40 N41 1.330 . S
C40 C42 1.446 . S
N41 Co0 2.151 . S
N41 C40 1.330 . S
N41 C45 1.418 . S
C42 H21 0.929 . S
C42 C40 1.446 . S
C42 C43 1.332 . S
C43 H23 0.931 . S
C43 C42 1.332 . S
C43 C44 1.267 . S
C44 H12 0.929 . S
C44 C43 1.267 . S
C44 C45 1.251 . S
C45 H15 0.929 . S
C45 N41 1.418 . S
C45 C44 1.251 . S
C46 H13 0.930 . S
C46 C48 1.406 . S
C46 C51 1.261 . S
C47 H14 0.930 . S
C47 N49 1.325 . S
C47 C50 1.357 . S
C48 H16 0.928 . S
C48 C46 1.406 . S
C48 N49 1.261 . S
N49 Co0 2.214 . S
N49 C47 1.325 . S
N49 C48 1.261 . S
C50 H20 0.931 . S
C50 C47 1.357 . S
C50 C51 1.312 . S
C51 H22 0.930 . S
C51 C46 1.261 . S
C51 C50 1.312 . S
C52 O24 1.214 . S
C52 O32 1.234 . S
C53 H25 0.929 . S
C53 C56 1.391 . S
C53 C58 1.391 1_565 S
C54 H26 0.929 . S
C54 C55 1.390 . S
C54 N57 1.391 1_565 S
C55 H27 0.930 . S
C55 C54 1.390 . S
C55 C56 1.392 . S
C56 H28 0.929 . S
C56 C53 1.391 . S
C56 C55 1.392 . S
N57 Co1 2.257 . S
N57 C54 1.391 1_545 S
N57 C58 1.388 . S
C58 H29 0.930 . S
C58 C53 1.391 1_545 S
C58 N57 1.388 . S
Co59 O61 2.143 . S
Co59 O67 2.074 . S
Co59 O70 2.093 . S
Co59 O83 2.097 . S
Co59 N100 2.151 1_455 S
Co59 N108 2.214 . S
Co60 O61 2.160 . S
Co60 O66 2.058 . S
Co60 O76 2.057 . S
Co60 O91 2.037 . S
Co60 N95 2.145 . S
Co60 N116 2.257 . S
O61 Co59 2.143 . S
O61 Co60 2.160 . S
C62 O63 1.278 . S
C62 O70 1.224 . S
O63 C62 1.278 . S
C64 O65 1.245 . S
C64 O76 1.232 . S
O65 C64 1.245 . S
O66 Co60 2.058 . S
O66 C92 1.269 1_455 S
O67 Co59 2.074 . S
O67 C92 1.257 1_455 S
H68 C93 0.930 . S
H69 C99 0.930 . S
O70 Co59 2.093 . S
O70 C62 1.224 . S
H71 C103 0.929 . S
H72 C105 0.930 . S
H73 C106 0.930 . S
H74 C104 0.929 . S
H75 C107 0.928 1_655 S
O76 Co60 2.057 . S
O76 C64 1.232 . S
H77 C96 0.929 . S
H78 C97 0.929 . S
H79 C109 0.931 . S
H80 C101 0.929 . S
H81 C110 0.930 . S
H82 C102 0.931 . S
O83 Co59 2.097 . S
O83 C111 1.214 . S
H84 C112 0.929 . S
H85 C113 0.929 . S
H86 C114 0.930 . S
H87 C115 0.929 . S
H88 C117 0.930 . S
H89 C94 0.930 . S
H90 C98 0.930 . S
O91 Co60 2.037 . S
O91 C111 1.234 . S
C92 O66 1.269 1_655 S
C92 O67 1.257 1_655 S
C93 H68 0.930 . S
C93 C96 1.388 . S
C93 C98 1.418 . S
C94 H89 0.930 . S
C94 C97 1.404 . S
C94 C98 1.353 . S
N95 Co60 2.145 . S
N95 C96 1.397 . S
N95 C97 1.334 . S
C96 H77 0.929 . S
C96 C93 1.388 . S
C96 N95 1.397 . S
C97 H78 0.929 . S
C97 C94 1.404 . S
C97 N95 1.334 . S
C98 H90 0.930 . S
C98 C93 1.418 . S
C98 C94 1.353 . S
C99 H69 0.930 . S
C99 N100 1.330 . S
C99 C101 1.446 . S
N100 Co59 2.151 1_655 S
N100 C99 1.330 . S
N100 C104 1.418 . S
C101 H80 0.929 . S
C101 C99 1.446 . S
C101 C102 1.332 . S
C102 H82 0.931 . S
C102 C101 1.332 . S
C102 C103 1.267 . S
C103 H71 0.929 . S
C103 C102 1.267 . S
C103 C104 1.251 . S
C104 H74 0.929 . S
C104 N100 1.418 . S
C104 C103 1.251 . S
C105 H72 0.930 . S
C105 C107 1.406 1_655 S
C105 C110 1.261 . S
C106 H73 0.930 . S
C106 N108 1.325 . S
C106 C109 1.357 . S
C107 H75 0.928 1_455 S
C107 C105 1.406 1_455 S
C107 N108 1.260 . S
N108 Co59 2.214 . S
N108 C106 1.325 . S
N108 C107 1.260 . S
C109 H79 0.931 . S
C109 C106 1.357 . S
C109 C110 1.312 1_455 S
C110 H81 0.930 . S
C110 C105 1.261 . S
C110 C109 1.312 1_655 S
C111 O83 1.214 . S
C111 O91 1.234 . S
C112 H84 0.929 . S
C112 C115 1.391 . S
C112 C117 1.391 . S
C113 H85 0.929 . S
C113 C114 1.390 . S
C113 N116 1.391 . S
C114 H86 0.930 . S
C114 C113 1.390 . S
C114 C115 1.392 . S
C115 H87 0.929 . S
C115 C112 1.391 . S
C115 C114 1.392 . S
N116 Co60 2.257 . S
N116 C113 1.391 . S
N116 C117 1.388 . S
C117 H88 0.930 . S
C117 C112 1.391 . S
C117 N116 1.388 . S
Co118 O120 2.143 . S
Co118 O126 2.074 . S
Co118 O129 2.093 . S
Co118 O142 2.097 . S
Co118 N159 2.151 1_545 S
Co118 N167 2.214 . S
Co119 O120 2.160 . S
Co119 O125 2.058 . S
Co119 O135 2.057 . S
Co119 O150 2.037 . S
Co119 N154 2.145 . S
Co119 N175 2.257 . S
O120 Co118 2.143 . S
O120 Co119 2.160 . S
C121 O122 1.278 . S
C121 O129 1.224 . S
O122 C121 1.278 . S
C123 O124 1.245 . S
C123 O135 1.232 . S
O124 C123 1.245 . S
O125 Co119 2.058 . S
O125 C151 1.269 1_545 S
O126 Co118 2.074 . S
O126 C151 1.257 1_545 S
H127 C152 0.930 . S
H128 C158 0.930 . S
O129 Co118 2.093 . S
O129 C121 1.224 . S
H130 C162 0.929 . S
H131 C164 0.930 . S
H132 C165 0.930 . S
H133 C163 0.929 . S
H134 C166 0.929 1_565 S
O135 Co119 2.057 . S
O135 C123 1.232 . S
H136 C155 0.929 . S
H137 C156 0.929 . S
H138 C168 0.931 . S
H139 C160 0.929 . S
H140 C169 0.930 . S
H141 C161 0.931 . S
O142 Co118 2.097 . S
O142 C170 1.214 . S
H143 C171 0.929 . S
H144 C172 0.929 . S
H145 C173 0.930 . S
H146 C174 0.929 . S
H147 C176 0.930 . S
H148 C153 0.930 . S
H149 C157 0.930 . S
O150 Co119 2.037 . S
O150 C170 1.234 . S
C151 O125 1.269 1_565 S
C151 O126 1.257 1_565 S
C152 H127 0.930 . S
C152 C155 1.388 . S
C152 C157 1.418 . S
C153 H148 0.930 . S
C153 C156 1.404 . S
C153 C157 1.353 . S
N154 Co119 2.145 . S
N154 C155 1.397 . S
N154 C156 1.334 . S
C155 H136 0.929 . S
C155 C152 1.388 . S
C155 N154 1.397 . S
C156 H137 0.929 . S
C156 C153 1.404 . S
C156 N154 1.334 . S
C157 H149 0.930 . S
C157 C152 1.418 . S
C157 C153 1.353 . S
C158 H128 0.930 . S
C158 N159 1.330 . S
C158 C160 1.446 . S
N159 Co118 2.151 1_565 S
N159 C158 1.330 . S
N159 C163 1.418 . S
C160 H139 0.929 . S
C160 C158 1.446 . S
C160 C161 1.332 . S
C161 H141 0.931 . S
C161 C160 1.332 . S
C161 C162 1.267 . S
C162 H130 0.929 . S
C162 C161 1.267 . S
C162 C163 1.251 . S
C163 H133 0.929 . S
C163 N159 1.418 . S
C163 C162 1.251 . S
C164 H131 0.930 . S
C164 C166 1.406 1_565 S
C164 C169 1.261 . S
C165 H132 0.930 . S
C165 N167 1.325 . S
C165 C168 1.357 . S
C166 H134 0.929 1_545 S
C166 C164 1.406 1_545 S
C166 N167 1.260 . S
N167 Co118 2.214 . S
N167 C165 1.325 . S
N167 C166 1.260 . S
C168 H138 0.931 . S
C168 C165 1.357 . S
C168 C169 1.312 1_545 S
C169 H140 0.930 . S
C169 C164 1.261 . S
C169 C168 1.312 1_565 S
C170 O142 1.214 . S
C170 O150 1.234 . S
C171 H143 0.929 . S
C171 C174 1.391 . S
C171 C176 1.391 . S
C172 H144 0.929 . S
C172 C173 1.390 . S
C172 N175 1.391 . S
C173 H145 0.930 . S
C173 C172 1.390 . S
C173 C174 1.392 . S
C174 H146 0.929 . S
C174 C171 1.391 . S
C174 C173 1.392 . S
N175 Co119 2.257 . S
N175 C172 1.391 . S
N175 C176 1.388 . S
C176 H147 0.930 . S
C176 C171 1.391 . S
C176 N175 1.388 . S
Co177 O179 2.143 . S
Co177 O185 2.074 . S
Co177 O188 2.093 . S
Co177 O201 2.097 . S
Co177 N218 2.151 . S
Co177 N226 2.214 . S
Co178 O179 2.160 . S
Co178 O184 2.058 . S
Co178 O194 2.057 . S
Co178 O209 2.037 . S
Co178 N213 2.145 . S
Co178 N234 2.257 . S
O179 Co177 2.143 . S
O179 Co178 2.160 . S
C180 O181 1.278 . S
C180 O188 1.224 . S
O181 C180 1.278 . S
C182 O183 1.245 . S
C182 O194 1.232 . S
O183 C182 1.245 . S
O184 Co178 2.058 . S
O184 C210 1.269 . S
O185 Co177 2.074 . S
O185 C210 1.257 . S
H186 C211 0.930 . S
H187 C217 0.930 . S
O188 Co177 2.093 . S
O188 C180 1.224 . S
H189 C221 0.929 . S
H190 C223 0.930 . S
H191 C224 0.930 . S
H192 C222 0.929 . S
H193 C225 0.928 . S
O194 Co178 2.057 . S
O194 C182 1.232 . S
H195 C214 0.929 . S
H196 C215 0.929 . S
H197 C227 0.931 . S
H198 C219 0.929 . S
H199 C228 0.930 . S
H200 C220 0.931 . S
O201 Co177 2.097 . S
O201 C229 1.214 . S
H202 C230 0.929 . S
H203 C231 0.929 . S
H204 C232 0.930 . S
H205 C233 0.929 . S
H206 C235 0.930 . S
H207 C212 0.930 . S
H208 C216 0.930 . S
O209 Co178 2.037 . S
O209 C229 1.234 . S
C210 O184 1.269 . S
C210 O185 1.257 . S
C211 H186 0.930 . S
C211 C214 1.388 . S
C211 C216 1.418 . S
C212 H207 0.930 . S
C212 C215 1.404 . S
C212 C216 1.353 . S
N213 Co178 2.145 . S
N213 C214 1.397 . S
N213 C215 1.334 . S
C214 H195 0.929 . S
C214 C211 1.388 . S
C214 N213 1.397 . S
C215 H196 0.929 . S
C215 C212 1.404 . S
C215 N213 1.334 . S
C216 H208 0.930 . S
C216 C211 1.418 . S
C216 C212 1.353 . S
C217 H187 0.930 . S
C217 N218 1.330 . S
C217 C219 1.446 . S
N218 Co177 2.151 . S
N218 C217 1.330 . S
N218 C222 1.418 . S
C219 H198 0.929 . S
C219 C217 1.446 . S
C219 C220 1.332 . S
C220 H200 0.931 . S
C220 C219 1.332 . S
C220 C221 1.267 . S
C221 H189 0.929 . S
C221 C220 1.267 . S
C221 C222 1.251 . S
C222 H192 0.929 . S
C222 N218 1.418 . S
C222 C221 1.251 . S
C223 H190 0.930 . S
C223 C225 1.406 . S
C223 C228 1.261 . S
C224 H191 0.930 . S
C224 N226 1.325 . S
C224 C227 1.357 . S
C225 H193 0.928 . S
C225 C223 1.406 . S
C225 N226 1.261 . S
N226 Co177 2.214 . S
N226 C224 1.325 . S
N226 C225 1.261 . S
C227 H197 0.931 . S
C227 C224 1.357 . S
C227 C228 1.312 . S
C228 H199 0.930 . S
C228 C223 1.261 . S
C228 C227 1.312 . S
C229 O201 1.214 . S
C229 O209 1.234 . S
C230 H202 0.929 . S
C230 C233 1.391 . S
C230 C235 1.391 1_655 S
C231 H203 0.929 . S
C231 C232 1.390 . S
C231 N234 1.391 1_655 S
C232 H204 0.930 . S
C232 C231 1.390 . S
C232 C233 1.392 . S
C233 H205 0.929 . S
C233 C230 1.391 . S
C233 C232 1.392 . S
N234 Co178 2.257 . S
N234 C231 1.391 1_455 S
N234 C235 1.388 . S
C235 H206 0.930 . S
C235 C230 1.391 1_455 S
C235 N234 1.388 . S
Co236 O238 2.143 . S
Co236 O244 2.074 . S
Co236 O247 2.093 . S
Co236 O260 2.097 . S
Co236 N277 2.151 1_545 S
Co236 N285 2.214 . S
Co237 O238 2.160 . S
Co237 O243 2.058 . S
Co237 O253 2.057 . S
Co237 O268 2.037 . S
Co237 N272 2.145 . S
Co237 N293 2.257 . S
O238 Co236 2.143 . S
O238 Co237 2.160 . S
C239 O240 1.278 . S
C239 O247 1.224 . S
O240 C239 1.278 . S
C241 O242 1.245 . S
C241 O253 1.232 . S
O242 C241 1.245 . S
O243 Co237 2.058 . S
O243 C269 1.269 1_545 S
O244 Co236 2.074 . S
O244 C269 1.257 1_545 S
H245 C270 0.930 . S
H246 C276 0.930 . S
O247 Co236 2.093 . S
O247 C239 1.224 . S
H248 C280 0.929 . S
H249 C282 0.930 . S
H250 C283 0.930 . S
H251 C281 0.929 . S
H252 C284 0.928 1_565 S
O253 Co237 2.057 . S
O253 C241 1.232 . S
H254 C273 0.929 . S
H255 C274 0.929 . S
H256 C286 0.931 . S
H257 C278 0.929 . S
H258 C287 0.930 . S
H259 C279 0.931 . S
O260 Co236 2.097 . S
O260 C288 1.214 . S
H261 C289 0.929 . S
H262 C290 0.929 . S
H263 C291 0.930 . S
H264 C292 0.929 . S
H265 C294 0.930 . S
H266 C271 0.930 . S
H267 C275 0.930 . S
O268 Co237 2.037 . S
O268 C288 1.234 . S
C269 O243 1.269 1_565 S
C269 O244 1.257 1_565 S
C270 H245 0.930 . S
C270 C273 1.388 . S
C270 C275 1.418 . S
C271 H266 0.930 . S
C271 C274 1.404 . S
C271 C275 1.353 . S
N272 Co237 2.145 . S
N272 C273 1.397 . S
N272 C274 1.334 . S
C273 H254 0.929 . S
C273 C270 1.388 . S
C273 N272 1.397 . S
C274 H255 0.929 . S
C274 C271 1.404 . S
C274 N272 1.334 . S
C275 H267 0.930 . S
C275 C270 1.418 . S
C275 C271 1.353 . S
C276 H246 0.930 . S
C276 N277 1.330 . S
C276 C278 1.446 . S
N277 Co236 2.151 1_565 S
N277 C276 1.330 . S
N277 C281 1.418 . S
C278 H257 0.929 . S
C278 C276 1.446 . S
C278 C279 1.332 . S
C279 H259 0.931 . S
C279 C278 1.332 . S
C279 C280 1.267 . S
C280 H248 0.929 . S
C280 C279 1.267 . S
C280 C281 1.251 . S
C281 H251 0.929 . S
C281 N277 1.418 . S
C281 C280 1.251 . S
C282 H249 0.930 . S
C282 C284 1.406 1_565 S
C282 C287 1.261 . S
C283 H250 0.930 . S
C283 N285 1.325 . S
C283 C286 1.357 . S
C284 H252 0.928 1_545 S
C284 C282 1.406 1_545 S
C284 N285 1.260 . S
N285 Co236 2.214 . S
N285 C283 1.325 . S
N285 C284 1.260 . S
C286 H256 0.931 . S
C286 C283 1.357 . S
C286 C287 1.312 1_545 S
C287 H258 0.930 . S
C287 C282 1.261 . S
C287 C286 1.312 1_565 S
C288 O260 1.214 . S
C288 O268 1.234 . S
C289 H261 0.929 . S
C289 C292 1.391 . S
C289 C294 1.391 . S
C290 H262 0.929 . S
C290 C291 1.390 . S
C290 N293 1.391 . S
C291 H263 0.930 . S
C291 C290 1.390 . S
C291 C292 1.392 . S
C292 H264 0.929 . S
C292 C289 1.391 . S
C292 C291 1.392 . S
N293 Co237 2.257 . S
N293 C290 1.391 . S
N293 C294 1.388 . S
C294 H265 0.930 . S
C294 C289 1.391 . S
C294 N293 1.388 . S
Co295 O297 2.143 . S
Co295 O303 2.074 . S
Co295 O306 2.093 . S
Co295 O319 2.097 . S
Co295 N336 2.151 . S
Co295 N344 2.214 . S
Co296 O297 2.160 . S
Co296 O302 2.058 . S
Co296 O312 2.057 . S
Co296 O327 2.037 . S
Co296 N331 2.145 . S
Co296 N352 2.257 . S
O297 Co295 2.143 . S
O297 Co296 2.160 . S
C298 O299 1.278 . S
C298 O306 1.224 . S
O299 C298 1.278 . S
C300 O301 1.245 . S
C300 O312 1.232 . S
O301 C300 1.245 . S
O302 Co296 2.058 . S
O302 C328 1.269 . S
O303 Co295 2.074 . S
O303 C328 1.257 . S
H304 C329 0.930 . S
H305 C335 0.930 . S
O306 Co295 2.093 . S
O306 C298 1.224 . S
H307 C339 0.929 . S
H308 C341 0.930 . S
H309 C342 0.930 . S
H310 C340 0.929 . S
H311 C343 0.928 . S
O312 Co296 2.057 . S
O312 C300 1.232 . S
H313 C332 0.929 . S
H314 C333 0.929 . S
H315 C345 0.931 . S
H316 C337 0.929 . S
H317 C346 0.930 . S
H318 C338 0.931 . S
O319 Co295 2.097 . S
O319 C347 1.214 . S
H320 C348 0.929 . S
H321 C349 0.929 . S
H322 C350 0.930 . S
H323 C351 0.929 . S
H324 C353 0.930 . S
H325 C330 0.930 . S
H326 C334 0.930 . S
O327 Co296 2.037 . S
O327 C347 1.234 . S
C328 O302 1.269 . S
C328 O303 1.257 . S
C329 H304 0.930 . S
C329 C332 1.388 . S
C329 C334 1.418 . S
C330 H325 0.930 . S
C330 C333 1.404 . S
C330 C334 1.353 . S
N331 Co296 2.145 . S
N331 C332 1.397 . S
N331 C333 1.334 . S
C332 H313 0.929 . S
C332 C329 1.388 . S
C332 N331 1.397 . S
C333 H314 0.929 . S
C333 C330 1.404 . S
C333 N331 1.334 . S
C334 H326 0.930 . S
C334 C329 1.418 . S
C334 C330 1.353 . S
C335 H305 0.930 . S
C335 N336 1.330 . S
C335 C337 1.446 . S
N336 Co295 2.151 . S
N336 C335 1.330 . S
N336 C340 1.418 . S
C337 H316 0.929 . S
C337 C335 1.446 . S
C337 C338 1.332 . S
C338 H318 0.931 . S
C338 C337 1.332 . S
C338 C339 1.267 . S
C339 H307 0.929 . S
C339 C338 1.267 . S
C339 C340 1.251 . S
C340 H310 0.929 . S
C340 N336 1.418 . S
C340 C339 1.251 . S
C341 H308 0.930 . S
C341 C343 1.406 . S
C341 C346 1.261 . S
C342 H309 0.930 . S
C342 N344 1.325 . S
C342 C345 1.357 . S
C343 H311 0.928 . S
C343 C341 1.406 . S
C343 N344 1.261 . S
N344 Co295 2.214 . S
N344 C342 1.325 . S
N344 C343 1.261 . S
C345 H315 0.931 . S
C345 C342 1.357 . S
C345 C346 1.312 . S
C346 H317 0.930 . S
C346 C341 1.261 . S
C346 C345 1.312 . S
C347 O319 1.214 . S
C347 O327 1.234 . S
C348 H320 0.929 . S
C348 C351 1.391 . S
C348 C353 1.391 1_655 S
C349 H321 0.929 . S
C349 C350 1.390 . S
C349 N352 1.391 1_655 S
C350 H322 0.930 . S
C350 C349 1.390 . S
C350 C351 1.392 . S
C351 H323 0.929 . S
C351 C348 1.391 . S
C351 C350 1.392 . S
N352 Co296 2.257 . S
N352 C349 1.391 1_455 S
N352 C353 1.388 . S
C353 H324 0.930 . S
C353 C348 1.391 1_455 S
C353 N352 1.388 . S
Co354 O356 2.143 . S
Co354 O362 2.074 . S
Co354 O365 2.093 . S
Co354 O378 2.097 . S
Co354 N395 2.151 . S
Co354 N403 2.214 . S
Co355 O356 2.160 . S
Co355 O361 2.058 . S
Co355 O371 2.057 . S
Co355 O386 2.037 . S
Co355 N390 2.145 . S
Co355 N411 2.257 . S
O356 Co354 2.143 . S
O356 Co355 2.160 . S
C357 O358 1.278 . S
C357 O365 1.224 . S
O358 C357 1.278 . S
C359 O360 1.245 . S
C359 O371 1.232 . S
O360 C359 1.245 . S
O361 Co355 2.058 . S
O361 C387 1.269 . S
O362 Co354 2.074 . S
O362 C387 1.257 . S
H363 C388 0.930 . S
H364 C394 0.930 . S
O365 Co354 2.093 . S
O365 C357 1.224 . S
H366 C398 0.929 . S
H367 C400 0.930 . S
H368 C401 0.930 . S
H369 C399 0.929 . S
H370 C402 0.928 . S
O371 Co355 2.057 . S
O371 C359 1.232 . S
H372 C391 0.929 . S
H373 C392 0.929 . S
H374 C404 0.931 . S
H375 C396 0.929 . S
H376 C405 0.930 . S
H377 C397 0.931 . S
O378 Co354 2.097 . S
O378 C406 1.214 . S
H379 C407 0.929 . S
H380 C408 0.929 . S
H381 C409 0.930 . S
H382 C410 0.929 . S
H383 C412 0.930 . S
H384 C389 0.930 . S
H385 C393 0.930 . S
O386 Co355 2.037 . S
O386 C406 1.234 . S
C387 O361 1.269 . S
C387 O362 1.257 . S
C388 H363 0.930 . S
C388 C391 1.388 . S
C388 C393 1.418 . S
C389 H384 0.930 . S
C389 C392 1.404 . S
C389 C393 1.353 . S
N390 Co355 2.145 . S
N390 C391 1.397 . S
N390 C392 1.334 . S
C391 H372 0.929 . S
C391 C388 1.388 . S
C391 N390 1.397 . S
C392 H373 0.929 . S
C392 C389 1.404 . S
C392 N390 1.334 . S
C393 H385 0.930 . S
C393 C388 1.418 . S
C393 C389 1.353 . S
C394 H364 0.930 . S
C394 N395 1.330 . S
C394 C396 1.446 . S
N395 Co354 2.151 . S
N395 C394 1.330 . S
N395 C399 1.418 . S
C396 H375 0.929 . S
C396 C394 1.446 . S
C396 C397 1.332 . S
C397 H377 0.931 . S
C397 C396 1.332 . S
C397 C398 1.267 . S
C398 H366 0.929 . S
C398 C397 1.267 . S
C398 C399 1.251 . S
C399 H369 0.929 . S
C399 N395 1.418 . S
C399 C398 1.251 . S
C400 H367 0.930 . S
C400 C402 1.406 . S
C400 C405 1.261 . S
C401 H368 0.930 . S
C401 N403 1.325 . S
C401 C404 1.357 . S
C402 H370 0.928 . S
C402 C400 1.406 . S
C402 N403 1.261 . S
N403 Co354 2.214 . S
N403 C401 1.325 . S
N403 C402 1.261 . S
C404 H374 0.931 . S
C404 C401 1.357 . S
C404 C405 1.312 . S
C405 H376 0.930 . S
C405 C400 1.261 . S
C405 C404 1.312 . S
C406 O378 1.214 . S
C406 O386 1.234 . S
C407 H379 0.929 . S
C407 C410 1.391 . S
C407 C412 1.391 1_565 S
C408 H380 0.929 . S
C408 C409 1.390 . S
C408 N411 1.391 1_565 S
C409 H381 0.930 . S
C409 C408 1.390 . S
C409 C410 1.392 . S
C410 H382 0.929 . S
C410 C407 1.391 . S
C410 C409 1.392 . S
N411 Co355 2.257 . S
N411 C408 1.391 1_545 S
N411 C412 1.388 . S
C412 H383 0.930 . S
C412 C407 1.391 1_545 S
C412 N411 1.388 . S
Co413 O415 2.143 . S
Co413 O421 2.074 . S
Co413 O424 2.093 . S
Co413 O437 2.097 . S
Co413 N454 2.151 1_455 S
Co413 N462 2.214 . S
Co414 O415 2.160 . S
Co414 O420 2.058 . S
Co414 O430 2.057 . S
Co414 O445 2.037 . S
Co414 N449 2.145 . S
Co414 N470 2.257 . S
O415 Co413 2.143 . S
O415 Co414 2.160 . S
C416 O417 1.278 . S
C416 O424 1.224 . S
O417 C416 1.278 . S
C418 O419 1.245 . S
C418 O430 1.232 . S
O419 C418 1.245 . S
O420 Co414 2.058 . S
O420 C446 1.269 1_455 S
O421 Co413 2.074 . S
O421 C446 1.257 1_455 S
H422 C447 0.930 . S
H423 C453 0.930 . S
O424 Co413 2.093 . S
O424 C416 1.224 . S
H425 C457 0.929 . S
H426 C459 0.930 . S
H427 C460 0.930 . S
H428 C458 0.929 . S
H429 C461 0.929 1_655 S
O430 Co414 2.057 . S
O430 C418 1.232 . S
H431 C450 0.929 . S
H432 C451 0.929 . S
H433 C463 0.931 . S
H434 C455 0.929 . S
H435 C464 0.930 . S
H436 C456 0.931 . S
O437 Co413 2.097 . S
O437 C465 1.214 . S
H438 C466 0.929 . S
H439 C467 0.929 . S
H440 C468 0.930 . S
H441 C469 0.929 . S
H442 C471 0.930 . S
H443 C448 0.930 . S
H444 C452 0.930 . S
O445 Co414 2.037 . S
O445 C465 1.234 . S
C446 O420 1.269 1_655 S
C446 O421 1.257 1_655 S
C447 H422 0.930 . S
C447 C450 1.388 . S
C447 C452 1.418 . S
C448 H443 0.930 . S
C448 C451 1.404 . S
C448 C452 1.353 . S
N449 Co414 2.145 . S
N449 C450 1.397 . S
N449 C451 1.334 . S
C450 H431 0.929 . S
C450 C447 1.388 . S
C450 N449 1.397 . S
C451 H432 0.929 . S
C451 C448 1.404 . S
C451 N449 1.334 . S
C452 H444 0.930 . S
C452 C447 1.418 . S
C452 C448 1.353 . S
C453 H423 0.930 . S
C453 N454 1.330 . S
C453 C455 1.446 . S
N454 Co413 2.151 1_655 S
N454 C453 1.330 . S
N454 C458 1.418 . S
C455 H434 0.929 . S
C455 C453 1.446 . S
C455 C456 1.332 . S
C456 H436 0.931 . S
C456 C455 1.332 . S
C456 C457 1.267 . S
C457 H425 0.929 . S
C457 C456 1.267 . S
C457 C458 1.251 . S
C458 H428 0.929 . S
C458 N454 1.418 . S
C458 C457 1.251 . S
C459 H426 0.930 . S
C459 C461 1.406 1_655 S
C459 C464 1.261 . S
C460 H427 0.930 . S
C460 N462 1.325 . S
C460 C463 1.357 . S
C461 H429 0.929 1_455 S
C461 C459 1.406 1_455 S
C461 N462 1.260 . S
N462 Co413 2.214 . S
N462 C460 1.325 . S
N462 C461 1.260 . S
C463 H433 0.931 . S
C463 C460 1.357 . S
C463 C464 1.312 1_455 S
C464 H435 0.930 . S
C464 C459 1.261 . S
C464 C463 1.312 1_655 S
C465 O437 1.214 . S
C465 O445 1.234 . S
C466 H438 0.929 . S
C466 C469 1.391 . S
C466 C471 1.391 . S
C467 H439 0.929 . S
C467 C468 1.390 . S
C467 N470 1.391 . S
C468 H440 0.930 . S
C468 C467 1.390 . S
C468 C469 1.392 . S
C469 H441 0.929 . S
C469 C466 1.391 . S
C469 C468 1.392 . S
N470 Co414 2.257 . S
N470 C467 1.391 . S
N470 C471 1.388 . S
C471 H442 0.930 . S
C471 C466 1.391 . S
C471 N470 1.388 . S
H472 C480 0.929 . S
H473 C482 0.930 . S
H474 C484 0.930 . S
H475 C487 0.929 . S
H476 C490 0.930 . S
H477 C492 0.960 1_565 S
H478 C492 0.960 1_565 S
H479 C492 0.960 . S
C480 H472 0.929 . S
C480 C481 1.377 . S
C480 C482 1.384 . S
C481 C480 1.377 . S
C481 C487 1.390 . S
C482 H473 0.930 . S
C482 C480 1.384 . S
C482 C483 1.372 . S
C483 C482 1.372 . S
C483 C484 1.400 . S
C483 C488 1.490 . S
C484 H474 0.930 . S
C484 C483 1.400 . S
C484 C487 1.386 . S
H485 C501 0.930 . S
H486 C502 0.931 . S
C487 H475 0.929 . S
C487 C481 1.390 . S
C487 C484 1.386 . S
C488 C483 1.490 . S
C488 C490 1.395 . S
C488 C491 1.403 . S
H489 C495 0.930 . S
C490 H476 0.930 . S
C490 C488 1.395 . S
C490 C493 1.403 1_554 S
C491 C488 1.403 . S
C491 C492 1.524 . S
C491 C495 1.400 1_554 S
C492 H477 0.960 1_545 S
C492 H478 0.960 1_545 S
C492 H479 0.960 . S
C492 C491 1.524 . S
C493 C490 1.403 1_556 S
C493 C494 1.392 . S
C493 C497 1.495 . S
C494 C493 1.392 . S
C494 C495 1.385 . S
C494 C496 1.478 . S
C495 H489 0.930 . S
C495 C491 1.400 1_556 S
C495 C494 1.385 . S
C496 C494 1.478 . S
C496 C498 1.381 . S
C496 C502 1.383 . S
C497 C493 1.495 . S
C497 H503 0.959 . S
C497 H504 0.961 . S
C497 H505 0.960 . S
C498 C496 1.381 . S
C498 C499 1.394 . S
C498 H506 0.930 . S
C499 C498 1.394 . S
C499 C500 1.383 . S
C499 H507 0.929 . S
C500 C499 1.383 . S
C500 C501 1.377 . S
C501 H485 0.930 . S
C501 C500 1.377 . S
C501 C502 1.379 . S
C502 H486 0.931 . S
C502 C496 1.383 . S
C502 C501 1.379 . S
H503 C497 0.959 . S
H504 C497 0.961 . S
H505 C497 0.960 . S
H506 C498 0.930 . S
H507 C499 0.929 . S
H508 C516 0.929 . S
H509 C518 0.930 . S
H510 C520 0.930 . S
H511 C523 0.929 . S
H512 C526 0.930 . S
H513 C528 0.960 . S
H514 C528 0.960 . S
H515 C528 0.960 . S
C516 H508 0.929 . S
C516 C517 1.377 . S
C516 C518 1.384 . S
C517 C516 1.377 . S
C517 C523 1.390 . S
C518 H509 0.930 . S
C518 C516 1.384 . S
C518 C519 1.372 . S
C519 C518 1.372 . S
C519 C520 1.400 . S
C519 C524 1.490 . S
C520 H510 0.930 . S
C520 C519 1.400 . S
C520 C523 1.386 . S
H521 C537 0.930 . S
H522 C538 0.931 . S
C523 H511 0.929 . S
C523 C517 1.390 . S
C523 C520 1.386 . S
C524 C519 1.490 . S
C524 C526 1.395 . S
C524 C527 1.403 . S
H525 C531 0.930 . S
C526 H512 0.930 . S
C526 C524 1.395 . S
C526 C529 1.403 . S
C527 C524 1.403 . S
C527 C528 1.524 . S
C527 C531 1.400 . S
C528 H513 0.960 . S
C528 H514 0.960 . S
C528 H515 0.960 . S
C528 C527 1.524 . S
C529 C526 1.403 . S
C529 C530 1.392 . S
C529 C533 1.495 . S
C530 C529 1.392 . S
C530 C531 1.385 . S
C530 C532 1.478 . S
C531 H525 0.930 . S
C531 C527 1.400 . S
C531 C530 1.385 . S
C532 C530 1.478 . S
C532 C534 1.381 . S
C532 C538 1.383 . S
C533 C529 1.495 . S
C533 H539 0.959 . S
C533 H540 0.961 . S
C533 H541 0.960 . S
C534 C532 1.381 . S
C534 C535 1.394 . S
C534 H542 0.930 . S
C535 C534 1.394 . S
C535 C536 1.383 . S
C535 H543 0.929 . S
C536 C535 1.383 . S
C536 C537 1.377 . S
C537 H521 0.930 . S
C537 C536 1.377 . S
C537 C538 1.379 . S
C538 H522 0.931 . S
C538 C532 1.383 . S
C538 C537 1.379 . S
H539 C533 0.959 . S
H540 C533 0.961 . S
H541 C533 0.960 . S
H542 C534 0.930 . S
H543 C535 0.929 . S
H544 C552 0.929 . S
H545 C554 0.930 . S
H546 C556 0.930 . S
H547 C559 0.929 . S
H548 C562 0.930 . S
H549 C564 0.960 . S
H550 C564 0.960 . S
H551 C564 0.960 . S
C552 H544 0.929 . S
C552 C553 1.377 . S
C552 C554 1.384 . S
C553 C552 1.377 . S
C553 C559 1.390 . S
C554 H545 0.930 . S
C554 C552 1.384 . S
C554 C555 1.372 . S
C555 C554 1.372 . S
C555 C556 1.400 . S
C555 C560 1.490 . S
C556 H546 0.930 . S
C556 C555 1.400 . S
C556 C559 1.386 . S
H557 C573 0.930 . S
H558 C574 0.931 . S
C559 H547 0.929 . S
C559 C553 1.390 . S
C559 C556 1.386 . S
C560 C555 1.490 . S
C560 C562 1.395 . S
C560 C563 1.403 . S
H561 C567 0.930 . S
C562 H548 0.930 . S
C562 C560 1.395 . S
C562 C565 1.403 1_556 S
C563 C560 1.403 . S
C563 C564 1.524 . S
C563 C567 1.400 1_556 S
C564 H549 0.960 . S
C564 H550 0.960 . S
C564 H551 0.960 . S
C564 C563 1.524 . S
C565 C562 1.403 1_554 S
C565 C566 1.392 . S
C565 C569 1.495 . S
C566 C565 1.392 . S
C566 C567 1.385 . S
C566 C568 1.478 . S
C567 H561 0.930 . S
C567 C563 1.400 1_554 S
C567 C566 1.385 . S
C568 C566 1.478 . S
C568 C570 1.381 . S
C568 C574 1.383 . S
C569 C565 1.495 . S
C569 H575 0.959 . S
C569 H576 0.961 . S
C569 H577 0.960 . S
C570 C568 1.381 . S
C570 C571 1.394 . S
C570 H578 0.930 . S
C571 C570 1.394 . S
C571 C572 1.383 . S
C571 H579 0.929 . S
C572 C571 1.383 . S
C572 C573 1.377 . S
C573 H557 0.930 . S
C573 C572 1.377 . S
C573 C574 1.379 . S
C574 H558 0.931 . S
C574 C568 1.383 . S
C574 C573 1.379 . S
H575 C569 0.959 . S
H576 C569 0.961 . S
H577 C569 0.960 . S
H578 C570 0.930 . S
H579 C571 0.929 . S
H580 C588 0.929 . S
H581 C590 0.930 . S
H582 C592 0.930 . S
H583 C595 0.929 . S
H584 C598 0.930 . S
H585 C600 0.960 . S
H586 C600 0.960 . S
H587 C600 0.960 . S
C588 H580 0.929 . S
C588 C589 1.377 . S
C588 C590 1.384 . S
C589 C588 1.377 . S
C589 C595 1.390 . S
C590 H581 0.930 . S
C590 C588 1.384 . S
C590 C591 1.372 . S
C591 C590 1.372 . S
C591 C592 1.400 . S
C591 C596 1.490 . S
C592 H582 0.930 . S
C592 C591 1.400 . S
C592 C595 1.386 . S
H593 C609 0.930 . S
H594 C610 0.931 . S
C595 H583 0.929 . S
C595 C589 1.390 . S
C595 C592 1.386 . S
C596 C591 1.490 . S
C596 C598 1.395 . S
C596 C599 1.403 . S
H597 C603 0.930 . S
C598 H584 0.930 . S
C598 C596 1.395 . S
C598 C601 1.403 . S
C599 C596 1.403 . S
C599 C600 1.524 . S
C599 C603 1.400 . S
C600 H585 0.960 . S
C600 H586 0.960 . S
C600 H587 0.960 . S
C600 C599 1.524 . S
C601 C598 1.403 . S
C601 C602 1.392 . S
C601 C605 1.495 . S
C602 C601 1.392 . S
C602 C603 1.385 . S
C602 C604 1.478 . S
C603 H597 0.930 . S
C603 C599 1.400 . S
C603 C602 1.385 . S
C604 C602 1.478 . S
C604 C606 1.381 . S
C604 C610 1.383 . S
C605 C601 1.495 . S
C605 H611 0.959 . S
C605 H612 0.961 . S
C605 H613 0.960 . S
C606 C604 1.381 . S
C606 C607 1.394 . S
C606 H614 0.930 . S
C607 C606 1.394 . S
C607 C608 1.383 . S
C607 H615 0.929 . S
C608 C607 1.383 . S
C608 C609 1.377 . S
C609 H593 0.930 . S
C609 C608 1.377 . S
C609 C610 1.379 . S
C610 H594 0.931 . S
C610 C604 1.383 . S
C610 C609 1.379 . S
H611 C605 0.959 . S
H612 C605 0.961 . S
H613 C605 0.960 . S
H614 C606 0.930 . S
H615 C607 0.929 . S
H616 C624 0.929 . S
H617 C626 0.930 . S
H618 C628 0.930 . S
H619 C631 0.929 . S
H620 C634 0.930 . S
H621 C636 0.960 1_565 S
H622 C636 0.960 . S
H623 C636 0.960 . S
C624 H616 0.929 . S
C624 C625 1.377 . S
C624 C626 1.384 . S
C625 C624 1.377 . S
C625 C631 1.390 . S
C626 H617 0.930 . S
C626 C624 1.384 . S
C626 C627 1.372 . S
C627 C626 1.372 . S
C627 C628 1.400 . S
C627 C632 1.490 . S
C628 H618 0.930 . S
C628 C627 1.400 . S
C628 C631 1.386 . S
H629 C645 0.930 . S
H630 C646 0.931 . S
C631 H619 0.929 . S
C631 C625 1.390 . S
C631 C628 1.386 . S
C632 C627 1.490 . S
C632 C634 1.395 . S
C632 C635 1.403 . S
H633 C639 0.930 . S
C634 H620 0.930 . S
C634 C632 1.395 . S
C634 C637 1.403 . S
C635 C632 1.403 . S
C635 C636 1.524 . S
C635 C639 1.400 . S
C636 H621 0.960 1_545 S
C636 H622 0.960 . S
C636 H623 0.960 . S
C636 C635 1.524 . S
C637 C634 1.403 . S
C637 C638 1.392 . S
C637 C641 1.495 . S
C638 C637 1.392 . S
C638 C639 1.385 . S
C638 C640 1.478 . S
C639 H633 0.930 . S
C639 C635 1.400 . S
C639 C638 1.385 . S
C640 C638 1.478 . S
C640 C642 1.381 . S
C640 C646 1.383 . S
C641 C637 1.495 . S
C641 H647 0.959 . S
C641 H648 0.961 . S
C641 H649 0.960 . S
C642 C640 1.381 . S
C642 C643 1.394 . S
C642 H650 0.930 . S
C643 C642 1.394 . S
C643 C644 1.383 . S
C643 H651 0.929 . S
C644 C643 1.383 . S
C644 C645 1.377 . S
C645 H629 0.930 . S
C645 C644 1.377 . S
C645 C646 1.379 . S
C646 H630 0.931 . S
C646 C640 1.383 . S
C646 C645 1.379 . S
H647 C641 0.959 . S
H648 C641 0.961 . S
H649 C641 0.960 . S
H650 C642 0.930 . S
H651 C643 0.929 . S
H652 C660 0.929 1_655 S
H653 C662 0.930 . S
H654 C664 0.930 . S
H655 C667 0.929 . S
H656 C670 0.930 . S
H657 C672 0.960 . S
H658 C672 0.960 . S
H659 C672 0.960 . S
C660 H652 0.929 1_455 S
C660 C661 1.377 . S
C660 C662 1.384 . S
C661 C660 1.377 . S
C661 C667 1.390 . S
C662 H653 0.930 . S
C662 C660 1.384 . S
C662 C663 1.372 . S
C663 C662 1.372 . S
C663 C664 1.400 . S
C663 C668 1.490 . S
C664 H654 0.930 . S
C664 C663 1.400 . S
C664 C667 1.386 . S
H665 C681 0.930 . S
H666 C682 0.931 . S
C667 H655 0.929 . S
C667 C661 1.390 . S
C667 C664 1.386 . S
C668 C663 1.490 . S
C668 C670 1.395 . S
C668 C671 1.403 . S
H669 C675 0.930 . S
C670 H656 0.930 . S
C670 C668 1.395 . S
C670 C673 1.403 . S
C671 C668 1.403 . S
C671 C672 1.524 . S
C671 C675 1.400 . S
C672 H657 0.960 . S
C672 H658 0.960 . S
C672 H659 0.960 . S
C672 C671 1.524 . S
C673 C670 1.403 . S
C673 C674 1.392 . S
C673 C677 1.495 . S
C674 C673 1.392 . S
C674 C675 1.385 . S
C674 C676 1.478 . S
C675 H669 0.930 . S
C675 C671 1.400 . S
C675 C674 1.385 . S
C676 C674 1.478 . S
C676 C678 1.381 . S
C676 C682 1.383 . S
C677 C673 1.495 . S
C677 H683 0.959 1_455 S
C677 H684 0.961 . S
C677 H685 0.960 . S
C678 C676 1.381 . S
C678 C679 1.394 . S
C678 H686 0.930 . S
C679 C678 1.394 . S
C679 C680 1.383 . S
C679 H687 0.929 . S
C680 C679 1.383 . S
C680 C681 1.377 . S
C681 H665 0.930 . S
C681 C680 1.377 . S
C681 C682 1.379 . S
C682 H666 0.931 . S
C682 C676 1.383 . S
C682 C681 1.379 . S
H683 C677 0.959 1_655 S
H684 C677 0.961 . S
H685 C677 0.960 . S
H686 C678 0.930 . S
H687 C679 0.929 . S
H688 C696 0.929 . S
H689 C698 0.930 . S
H690 C700 0.930 . S
H691 C703 0.929 . S
H692 C706 0.930 . S
H693 C708 0.946 1_565 S
H694 C708 0.960 . S
H695 C708 0.960 . S
C696 H688 0.929 . S
C696 C697 1.377 . S
C696 C698 1.384 . S
C697 C696 1.377 . S
C697 C703 1.390 . S
C698 H689 0.930 . S
C698 C696 1.384 . S
C698 C699 1.372 . S
C699 C698 1.372 . S
C699 C700 1.400 . S
C699 C704 1.490 . S
C700 H690 0.930 . S
C700 C699 1.400 . S
C700 C703 1.386 . S
H701 C717 0.930 1_565 S
H702 C718 0.931 . S
C703 H691 0.929 . S
C703 C697 1.390 . S
C703 C700 1.386 . S
C704 C699 1.490 . S
C704 C706 1.395 . S
C704 C707 1.403 . S
H705 C711 0.930 . S
C706 H692 0.930 . S
C706 C704 1.395 . S
C706 C709 1.403 . S
C707 C704 1.403 . S
C707 C708 1.524 . S
C707 C711 1.400 . S
C708 H693 0.946 1_545 S
C708 H694 0.960 . S
C708 H695 0.960 . S
C708 C707 1.524 . S
C709 C706 1.403 . S
C709 C710 1.392 . S
C709 C713 1.495 . S
C710 C709 1.392 . S
C710 C711 1.385 . S
C710 C712 1.478 . S
C711 H705 0.930 . S
C711 C707 1.400 . S
C711 C710 1.385 . S
C712 C710 1.478 . S
C712 C714 1.381 . S
C712 C718 1.383 . S
C713 C709 1.495 . S
C713 H719 0.959 . S
C713 H720 0.961 . S
C713 H721 0.960 . S
C714 C712 1.381 . S
C714 C715 1.394 . S
C714 H722 0.930 . S
C715 C714 1.394 . S
C715 C716 1.383 . S
C715 H723 0.929 . S
C716 C715 1.383 . S
C716 C717 1.377 . S
C717 H701 0.930 1_545 S
C717 C716 1.377 . S
C717 C718 1.379 . S
C718 H702 0.931 . S
C718 C712 1.383 . S
C718 C717 1.379 . S
H719 C713 0.959 . S
H720 C713 0.961 . S
H721 C713 0.960 . S
H722 C714 0.930 . S
H723 C715 0.929 . S
H724 C732 0.929 . S
H725 C734 0.930 . S
H726 C736 0.930 . S
H727 C739 0.929 . S
H728 C742 0.930 . S
H729 C744 0.960 . S
H730 C744 0.960 . S
H731 C744 0.960 . S
C732 H724 0.929 . S
C732 C733 1.377 . S
C732 C734 1.384 . S
C733 C732 1.377 . S
C733 C739 1.390 . S
C734 H725 0.930 . S
C734 C732 1.384 . S
C734 C735 1.372 . S
C735 C734 1.372 . S
C735 C736 1.400 . S
C735 C740 1.490 . S
C736 H726 0.930 . S
C736 C735 1.400 . S
C736 C739 1.386 . S
H737 C753 0.930 . S
H738 C754 0.931 . S
C739 H727 0.929 . S
C739 C733 1.390 . S
C739 C736 1.386 . S
C740 C735 1.490 . S
C740 C742 1.395 . S
C740 C743 1.403 . S
H741 C747 0.930 . S
C742 H728 0.930 . S
C742 C740 1.395 . S
C742 C745 1.403 . S
C743 C740 1.403 . S
C743 C744 1.524 . S
C743 C747 1.400 . S
C744 H729 0.960 . S
C744 H730 0.960 . S
C744 H731 0.960 . S
C744 C743 1.524 . S
C745 C742 1.403 . S
C745 C746 1.392 . S
C745 C749 1.495 . S
C746 C745 1.392 . S
C746 C747 1.385 . S
C746 C748 1.478 . S
C747 H741 0.930 . S
C747 C743 1.400 . S
C747 C746 1.385 . S
C748 C746 1.478 . S
C748 C750 1.381 . S
C748 C754 1.383 . S
C749 C745 1.495 . S
C749 H755 0.959 . S
C749 H756 0.961 1_455 S
C749 H757 0.960 . S
C750 C748 1.381 . S
C750 C751 1.394 . S
C750 H758 0.930 . S
C751 C750 1.394 . S
C751 C752 1.383 . S
C751 H759 0.929 . S
C752 C751 1.383 . S
C752 C753 1.377 . S
C753 H737 0.930 . S
C753 C752 1.377 . S
C753 C754 1.379 . S
C754 H738 0.931 . S
C754 C748 1.383 . S
C754 C753 1.379 . S
H755 C749 0.959 . S
H756 C749 0.961 1_655 S
H757 C749 0.960 . S
H758 C750 0.930 . S
H759 C751 0.929 . S
H760 C768 0.929 . S
H761 C770 0.930 . S
H762 C772 0.930 . S
H763 C775 0.929 . S
H764 C778 0.930 . S
H765 C780 0.960 . S
H766 C780 0.960 . S
H767 C780 0.960 . S
C768 H760 0.929 . S
C768 C769 1.377 . S
C768 C770 1.384 . S
C769 C768 1.377 . S
C769 C775 1.390 . S
C770 H761 0.930 . S
C770 C768 1.384 . S
C770 C771 1.372 . S
C771 C770 1.372 . S
C771 C772 1.400 . S
C771 C776 1.490 . S
C772 H762 0.930 . S
C772 C771 1.400 . S
C772 C775 1.386 . S
H773 C789 0.930 . S
H774 C790 0.931 . S
C775 H763 0.929 . S
C775 C769 1.390 . S
C775 C772 1.386 . S
C776 C771 1.490 . S
C776 C778 1.395 . S
C776 C779 1.403 . S
H777 C783 0.930 . S
C778 H764 0.930 . S
C778 C776 1.395 . S
C778 C781 1.403 . S
C779 C776 1.403 . S
C779 C780 1.524 . S
C779 C783 1.400 . S
C780 H765 0.960 . S
C780 H766 0.960 . S
C780 H767 0.960 . S
C780 C779 1.524 . S
C781 C778 1.403 . S
C781 C782 1.392 . S
C781 C785 1.495 . S
C782 C781 1.392 . S
C782 C783 1.385 . S
C782 C784 1.478 . S
C783 H777 0.930 . S
C783 C779 1.400 . S
C783 C782 1.385 . S
C784 C782 1.478 . S
C784 C786 1.381 . S
C784 C790 1.383 . S
C785 C781 1.495 . S
C785 H791 0.959 . S
C785 H792 0.961 . S
C785 H793 0.960 . S
C786 C784 1.381 . S
C786 C787 1.394 . S
C786 H794 0.930 . S
C787 C786 1.394 . S
C787 C788 1.383 . S
C787 H795 0.929 . S
C788 C787 1.383 . S
C788 C789 1.377 . S
C789 H773 0.930 . S
C789 C788 1.377 . S
C789 C790 1.379 . S
C790 H774 0.931 . S
C790 C784 1.383 . S
C790 C789 1.379 . S
H791 C785 0.959 . S
H792 C785 0.961 . S
H793 C785 0.960 . S
H794 C786 0.930 . S
H795 C787 0.929 . S
H796 C804 0.929 . S
H797 C806 0.930 . S
H798 C808 0.930 . S
H799 C811 0.940 . S
H800 C814 0.930 . S
H801 C816 0.960 . S
H802 C816 0.960 . S
H803 C816 0.960 . S
C804 H796 0.929 . S
C804 C805 1.377 . S
C804 C806 1.384 . S
C805 C804 1.377 . S
C805 C811 1.390 . S
C806 H797 0.930 . S
C806 C804 1.384 . S
C806 C807 1.372 . S
C807 C806 1.372 . S
C807 C808 1.400 . S
C807 C812 1.490 . S
C808 H798 0.930 . S
C808 C807 1.400 . S
C808 C811 1.386 . S
H809 C825 0.930 . S
H810 C826 0.931 . S
C811 H799 0.940 . S
C811 C805 1.390 . S
C811 C808 1.386 . S
C812 C807 1.490 . S
C812 C814 1.395 . S
C812 C815 1.403 . S
H813 C819 0.930 . S
C814 H800 0.930 . S
C814 C812 1.395 . S
C814 C817 1.403 . S
C815 C812 1.403 . S
C815 C816 1.524 . S
C815 C819 1.400 . S
C816 H801 0.960 . S
C816 H802 0.960 . S
C816 H803 0.960 . S
C816 C815 1.524 . S
C817 C814 1.403 . S
C817 C818 1.392 . S
C817 C821 1.495 . S
C818 C817 1.392 . S
C818 C819 1.385 . S
C818 C820 1.478 . S
C819 H813 0.930 . S
C819 C815 1.400 . S
C819 C818 1.385 . S
C820 C818 1.478 . S
C820 C822 1.381 . S
C820 C826 1.383 . S
C821 C817 1.495 . S
C821 H827 0.959 . S
C821 H828 0.961 . S
C821 H829 0.960 . S
C822 C820 1.381 . S
C822 C823 1.394 . S
C822 H830 0.930 . S
C823 C822 1.394 . S
C823 C824 1.383 . S
C823 H831 0.929 . S
C824 C823 1.383 . S
C824 C825 1.377 . S
C825 H809 0.930 . S
C825 C824 1.377 . S
C825 C826 1.379 . S
C826 H810 0.931 . S
C826 C820 1.383 . S
C826 C825 1.379 . S
H827 C821 0.959 . S
H828 C821 0.961 . S
H829 C821 0.960 . S
H830 C822 0.930 . S
H831 C823 0.929 . S
H832 C840 0.929 1_455 S
H833 C842 0.930 . S
H834 C844 0.930 . S
H835 C847 0.929 . S
H836 C850 0.930 . S
H837 C852 0.960 . S
H838 C852 0.960 . S
H839 C852 0.960 . S
C840 H832 0.929 1_655 S
C840 C841 1.377 . S
C840 C842 1.384 . S
C841 C840 1.377 . S
C841 C847 1.390 . S
C842 H833 0.930 . S
C842 C840 1.384 . S
C842 C843 1.372 . S
C843 C842 1.372 . S
C843 C844 1.400 . S
C843 C848 1.490 . S
C844 H834 0.930 . S
C844 C843 1.400 . S
C844 C847 1.386 . S
H845 C861 0.930 . S
H846 C862 0.931 . S
C847 H835 0.929 . S
C847 C841 1.390 . S
C847 C844 1.386 . S
C848 C843 1.490 . S
C848 C850 1.395 . S
C848 C851 1.403 . S
H849 C855 0.930 . S
C850 H836 0.930 . S
C850 C848 1.395 . S
C850 C853 1.403 . S
C851 C848 1.403 . S
C851 C852 1.524 . S
C851 C855 1.400 . S
C852 H837 0.960 . S
C852 H838 0.960 . S
C852 H839 0.960 . S
C852 C851 1.524 . S
C853 C850 1.403 . S
C853 C854 1.392 . S
C853 C857 1.495 . S
C854 C853 1.392 . S
C854 C855 1.385 . S
C854 C856 1.478 . S
C855 H849 0.930 . S
C855 C851 1.400 . S
C855 C854 1.385 . S
C856 C854 1.478 . S
C856 C858 1.381 . S
C856 C862 1.383 . S
C857 C853 1.495 . S
C857 H863 0.959 . S
C857 H864 0.961 . S
C857 H865 0.960 . S
C858 C856 1.381 . S
C858 C859 1.394 . S
C858 H866 0.930 . S
C859 C858 1.394 . S
C859 C860 1.383 . S
C859 H867 0.929 1_565 S
C860 C859 1.383 . S
C860 C861 1.377 . S
C861 H845 0.930 . S
C861 C860 1.377 . S
C861 C862 1.379 . S
C862 H846 0.931 . S
C862 C856 1.383 . S
C862 C861 1.379 . S
H863 C857 0.959 . S
H864 C857 0.961 . S
H865 C857 0.960 . S
H866 C858 0.930 . S
H867 C859 0.929 1_545 S
H868 C876 0.929 . S
H869 C878 0.930 . S
H870 C880 0.930 . S
H871 C883 0.929 . S
H872 C886 0.930 . S
H873 C888 0.960 . S
H874 C888 0.960 . S
H875 C888 0.960 . S
C876 H868 0.929 . S
C876 C877 1.377 . S
C876 C878 1.384 . S
C877 C876 1.377 . S
C877 C883 1.390 . S
C878 H869 0.930 . S
C878 C876 1.384 . S
C878 C879 1.372 . S
C879 C878 1.372 . S
C879 C880 1.400 . S
C879 C884 1.490 . S
C880 H870 0.930 . S
C880 C879 1.400 . S
C880 C883 1.386 . S
H881 C897 0.930 . S
H882 C898 0.931 . S
C883 H871 0.929 . S
C883 C877 1.390 . S
C883 C880 1.386 . S
C884 C879 1.490 . S
C884 C886 1.395 . S
C884 C887 1.403 . S
H885 C891 0.930 . S
C886 H872 0.930 . S
C886 C884 1.395 . S
C886 C889 1.403 . S
C887 C884 1.403 . S
C887 C888 1.524 . S
C887 C891 1.400 . S
C888 H873 0.960 . S
C888 H874 0.960 . S
C888 H875 0.960 . S
C888 C887 1.524 . S
C889 C886 1.403 . S
C889 C890 1.392 . S
C889 C893 1.495 . S
C890 C889 1.392 . S
C890 C891 1.385 . S
C890 C892 1.478 . S
C891 H885 0.930 . S
C891 C887 1.400 . S
C891 C890 1.385 . S
C892 C890 1.478 . S
C892 C894 1.381 . S
C892 C898 1.383 . S
C893 C889 1.495 . S
C893 H899 0.959 . S
C893 H900 0.961 . S
C893 H901 0.960 . S
C894 C892 1.381 . S
C894 C895 1.394 . S
C894 H902 0.930 . S
C895 C894 1.394 . S
C895 C896 1.383 . S
C895 H903 0.929 . S
C896 C895 1.383 . S
C896 C897 1.377 . S
C897 H881 0.930 . S
C897 C896 1.377 . S
C897 C898 1.379 . S
C898 H882 0.931 . S
C898 C892 1.383 . S
C898 C897 1.379 . S
H899 C893 0.959 . S
H900 C893 0.961 . S
H901 C893 0.960 . S
H902 C894 0.930 . S
H903 C895 0.929 . S
H904 C912 0.929 . S
H905 C914 0.930 . S
H906 C916 0.930 . S
H907 C919 0.929 . S
H908 C922 0.930 . S
H909 C924 0.960 . S
H910 C924 0.960 . S
H911 C924 0.960 . S
C912 H904 0.929 . S
C912 C913 1.377 . S
C912 C914 1.384 1_545 S
C913 C912 1.377 . S
C913 C919 1.390 . S
C914 H905 0.930 . S
C914 C912 1.384 1_565 S
C914 C915 1.372 . S
C915 C914 1.372 . S
C915 C916 1.400 . S
C915 C920 1.490 . S
C916 H906 0.930 . S
C916 C915 1.400 . S
C916 C919 1.386 1_565 S
H917 C933 0.930 . S
H918 C934 0.931 . S
C919 H907 0.929 . S
C919 C913 1.390 . S
C919 C916 1.386 1_545 S
C920 C915 1.490 . S
C920 C922 1.395 . S
C920 C923 1.403 . S
H921 C927 0.930 . S
C922 H908 0.930 . S
C922 C920 1.395 . S
C922 C925 1.403 . S
C923 C920 1.403 . S
C923 C924 1.524 . S
C923 C927 1.400 . S
C924 H909 0.960 . S
C924 H910 0.960 . S
C924 H911 0.960 . S
C924 C923 1.524 . S
C925 C922 1.403 . S
C925 C926 1.392 . S
C925 C929 1.495 . S
C926 C925 1.392 . S
C926 C927 1.385 . S
C926 C928 1.478 . S
C927 H921 0.930 . S
C927 C923 1.400 . S
C927 C926 1.385 . S
C928 C926 1.478 . S
C928 C930 1.381 . S
C928 C934 1.383 1_655 S
C929 C925 1.495 . S
C929 H935 0.959 . S
C929 H936 0.961 . S
C929 H937 0.960 . S
C930 C928 1.381 . S
C930 C931 1.394 . S
C930 H938 0.930 . S
C931 C930 1.394 . S
C931 C932 1.383 1_655 S
C931 H939 0.929 . S
C932 C931 1.383 1_455 S
C932 C933 1.377 . S
C933 H917 0.930 . S
C933 C932 1.377 . S
C933 C934 1.379 . S
C934 H918 0.931 . S
C934 C928 1.383 1_455 S
C934 C933 1.379 . S
H935 C929 0.959 . S
H936 C929 0.961 . S
H937 C929 0.960 . S
H938 C930 0.930 . S
H939 C931 0.929 . S
H940 C948 0.929 . S
H941 C950 0.930 . S
H942 C952 0.930 . S
H943 C955 0.929 . S
H944 C958 0.930 . S
H945 C960 0.960 . S
H946 C960 0.960 . S
H947 C960 0.960 1_545 S
C948 H940 0.929 . S
C948 C949 1.377 1_565 S
C948 C950 1.384 . S
C949 C948 1.377 1_545 S
C949 C955 1.390 . S
C950 H941 0.930 . S
C950 C948 1.384 . S
C950 C951 1.372 . S
C951 C950 1.372 . S
C951 C952 1.400 1_565 S
C951 C956 1.490 . S
C952 H942 0.930 . S
C952 C951 1.400 1_545 S
C952 C955 1.386 . S
H953 C969 0.930 . S
H954 C970 0.931 . S
C955 H943 0.929 . S
C955 C949 1.390 . S
C955 C952 1.386 . S
C956 C951 1.490 . S
C956 C958 1.395 . S
C956 C959 1.403 . S
H957 C963 0.930 . S
C958 H944 0.930 . S
C958 C956 1.395 . S
C958 C961 1.403 . S
C959 C956 1.403 . S
C959 C960 1.524 . S
C959 C963 1.400 . S
C960 H945 0.960 . S
C960 H946 0.960 . S
C960 H947 0.960 1_565 S
C960 C959 1.524 . S
C961 C958 1.403 . S
C961 C962 1.392 . S
C961 C965 1.495 . S
C962 C961 1.392 . S
C962 C963 1.385 . S
C962 C964 1.478 . S
C963 H957 0.930 . S
C963 C959 1.400 . S
C963 C962 1.385 . S
C964 C962 1.478 . S
C964 C966 1.381 . S
C964 C970 1.383 . S
C965 C961 1.495 . S
C965 H971 0.959 . S
C965 H972 0.961 . S
C965 H973 0.960 . S
C966 C964 1.381 . S
C966 C967 1.394 . S
C966 H974 0.930 . S
C967 C966 1.394 . S
C967 C968 1.383 . S
C967 H975 0.929 . S
C968 C967 1.383 . S
C968 C969 1.377 . S
C969 H953 0.930 . S
C969 C968 1.377 . S
C969 C970 1.379 . S
C970 H954 0.931 . S
C970 C964 1.383 . S
C970 C969 1.379 . S
H971 C965 0.959 . S
H972 C965 0.961 . S
H973 C965 0.960 . S
H974 C966 0.930 . S
H975 C967 0.929 . S
H976 C984 0.929 . S
H977 C986 0.930 . S
H978 C988 0.930 . S
H979 C991 0.929 . S
H980 C994 0.930 . S
H981 C996 0.960 . S
H982 C996 0.960 . S
H983 C996 0.960 . S
C984 H976 0.929 . S
C984 C985 1.377 . S
C984 C986 1.384 . S
C985 C984 1.377 . S
C985 C991 1.390 . S
C986 H977 0.930 . S
C986 C984 1.384 . S
C986 C987 1.372 . S
C987 C986 1.372 . S
C987 C988 1.400 . S
C987 C992 1.490 . S
C988 H978 0.930 . S
C988 C987 1.400 . S
C988 C991 1.386 . S
H989 C1005 0.930 . S
H990 C1006 0.931 . S
C991 H979 0.929 . S
C991 C985 1.390 . S
C991 C988 1.386 . S
C992 C987 1.490 . S
C992 C994 1.395 . S
C992 C995 1.403 . S
H993 C999 0.930 . S
C994 H980 0.930 . S
C994 C992 1.395 . S
C994 C997 1.403 . S
C995 C992 1.403 . S
C995 C996 1.524 . S
C995 C999 1.400 . S
C996 H981 0.960 . S
C996 H982 0.960 . S
C996 H983 0.960 . S
C996 C995 1.524 . S
C997 C994 1.403 . S
C997 C998 1.392 . S
C997 C1001 1.495 . S
C998 C997 1.392 . S
C998 C999 1.385 . S
C998 C1000 1.478 . S
C999 H993 0.930 . S
C999 C995 1.400 . S
C999 C998 1.385 . S
C1000 C998 1.478 . S
C1000 C1002 1.381 . S
C1000 C1006 1.383 . S
C1001 C997 1.495 . S
C1001 H1007 0.959 . S
C1001 H1008 0.961 . S
C1001 H1009 0.960 . S
C1002 C1000 1.381 . S
C1002 C1003 1.394 . S
C1002 H1010 0.930 . S
C1003 C1002 1.394 . S
C1003 C1004 1.383 . S
C1003 H1011 0.929 . S
C1004 C1003 1.383 . S
C1004 C1005 1.377 . S
C1005 H989 0.930 . S
C1005 C1004 1.377 . S
C1005 C1006 1.379 . S
C1006 H990 0.931 . S
C1006 C1000 1.383 . S
C1006 C1005 1.379 . S
H1007 C1001 0.959 . S
H1008 C1001 0.961 . S
H1009 C1001 0.960 . S
H1010 C1002 0.930 . S
H1011 C1003 0.929 . S
H1012 C1020 0.930 . S
H1013 C1022 0.930 . S
H1014 C1024 0.929 . S
H1015 C1027 0.929 . S
H1016 C1030 0.930 . S
H1017 C1032 0.960 . S
H1018 C1032 0.960 . S
H1019 C1032 0.960 . S
C1020 H1012 0.930 . S
C1020 C1021 1.357 1_655 S
C1020 C1022 1.405 . S
C1021 C1020 1.357 1_455 S
C1021 C1027 1.390 . S
C1022 H1013 0.930 . S
C1022 C1020 1.405 . S
C1022 C1023 1.372 . S
C1023 C1022 1.372 . S
C1023 C1024 1.397 1_655 S
C1023 C1028 1.490 . S
C1024 H1014 0.929 . S
C1024 C1023 1.397 1_455 S
C1024 C1027 1.388 . S
H1025 C1041 0.930 . S
H1026 C1042 0.931 . S
C1027 H1015 0.929 . S
C1027 C1021 1.390 . S
C1027 C1024 1.388 . S
C1028 C1023 1.490 . S
C1028 C1030 1.395 . S
C1028 C1031 1.403 . S
H1029 C1035 0.930 . S
C1030 H1016 0.930 . S
C1030 C1028 1.395 . S
C1030 C1033 1.403 . S
C1031 C1028 1.403 . S
C1031 C1032 1.524 1_655 S
C1031 C1035 1.400 . S
C1032 H1017 0.960 . S
C1032 H1018 0.960 . S
C1032 H1019 0.960 . S
C1032 C1031 1.524 1_455 S
C1033 C1030 1.403 . S
C1033 C1034 1.392 . S
C1033 C1037 1.495 . S
C1034 C1033 1.392 . S
C1034 C1035 1.385 . S
C1034 C1036 1.478 . S
C1035 H1029 0.930 . S
C1035 C1031 1.400 . S
C1035 C1034 1.385 . S
C1036 C1034 1.478 . S
C1036 C1038 1.381 . S
C1036 C1042 1.383 . S
C1037 C1033 1.495 . S
C1037 H1043 0.959 . S
C1037 H1044 0.961 . S
C1037 H1045 0.960 . S
C1038 C1036 1.381 . S
C1038 C1039 1.394 . S
C1038 H1046 0.930 . S
C1039 C1038 1.394 . S
C1039 C1040 1.383 . S
C1039 H1047 0.929 . S
C1040 C1039 1.383 . S
C1040 C1041 1.377 . S
C1041 H1025 0.930 . S
C1041 C1040 1.377 . S
C1041 C1042 1.379 . S
C1042 H1026 0.931 . S
C1042 C1036 1.383 . S
C1042 C1041 1.379 . S
H1043 C1037 0.959 . S
H1044 C1037 0.961 . S
H1045 C1037 0.960 . S
H1046 C1038 0.930 . S
H1047 C1039 0.929 . S
C481 C3 1.557 . S
C500 C239 1.554 . S
C517 C62 1.555 . S
C536 C298 1.560 . S
C553 C357 1.556 . S
C572 C121 1.558 . S
C589 C416 1.556 . S
C608 C180 1.557 . S
C625 C5 1.479 . S
C644 C123 1.462 . S
C661 C64 1.480 . S
C680 C182 1.466 . S
C697 C359 1.480 . S
C716 C241 1.464 . S
C733 C300 1.484 . S
C752 C418 1.494 . S
C769 C328 0.757 . S
C788 C33 0.729 . S
C805 C92 0.766 . S
C824 C387 0.796 . S
C841 C446 0.753 . S
C860 C151 0.737 . S
C877 C210 0.757 . S
C896 C269 0.762 . S
C913 C406 1.785 . S
C932 C229 1.791 . S
C949 C52 1.788 . S
C968 C465 1.781 . S
C985 C111 1.789 . S
C1004 C288 1.777 . S
C1021 C347 1.789 . S
C1040 C170 1.776 . S
