# Generated by pormake.
# Topology ict, (4)-cn, num edge types: 1
# Building blocks:
#     Node 0, Type 0, BuildingBlock: CEKHIL_clean_sbu_0, # of connection points: 4
#     Node 1, Type 0, BuildingBlock: CEKHIL_clean_sbu_0, # of connection points: 4
#     Node 2, Type 0, BuildingBlock: CEKHIL_clean_sbu_0, # of connection points: 4
#     Node 3, Type 0, BuildingBlock: CEKHIL_clean_sbu_0, # of connection points: 4
#     Node 4, Type 0, BuildingBlock: CEKHIL_clean_sbu_0, # of connection points: 4
#     Node 5, Type 0, BuildingBlock: CEKHIL_clean_sbu_0, # of connection points: 4
#     Node 6, Type 0, BuildingBlock: CEKHIL_clean_sbu_0, # of connection points: 4
#     Node 7, Type 0, BuildingBlock: CEKHIL_clean_sbu_0, # of connection points: 4
#     Node 8, Type 0, BuildingBlock: CEKHIL_clean_sbu_0, # of connection points: 4
#     Node 9, Type 0, BuildingBlock: CEKHIL_clean_sbu_0, # of connection points: 4
#     Node 10, Type 0, BuildingBlock: CEKHIL_clean_sbu_0, # of connection points: 4
#     Node 11, Type 0, BuildingBlock: CEKHIL_clean_sbu_0, # of connection points: 4
#     Node 12, Type 0, BuildingBlock: CEKHIL_clean_sbu_0, # of connection points: 4
#     Node 13, Type 0, BuildingBlock: CEKHIL_clean_sbu_0, # of connection points: 4
#     Node 14, Type 0, BuildingBlock: CEKHIL_clean_sbu_0, # of connection points: 4
#     Node 15, Type 0, BuildingBlock: CEKHIL_clean_sbu_0, # of connection points: 4
#     Node 16, Type 0, BuildingBlock: CEKHIL_clean_sbu_0, # of connection points: 4
#     Node 17, Type 0, BuildingBlock: CEKHIL_clean_sbu_0, # of connection points: 4
#     Node 18, Type 0, BuildingBlock: CEKHIL_clean_sbu_0, # of connection points: 4
#     Node 19, Type 0, BuildingBlock: CEKHIL_clean_sbu_0, # of connection points: 4
#     Node 20, Type 0, BuildingBlock: CEKHIL_clean_sbu_0, # of connection points: 4
#     Node 21, Type 0, BuildingBlock: CEKHIL_clean_sbu_0, # of connection points: 4
#     Node 22, Type 0, BuildingBlock: CEKHIL_clean_sbu_0, # of connection points: 4
#     Node 23, Type 0, BuildingBlock: CEKHIL_clean_sbu_0, # of connection points: 4
#     Node 24, Type 0, BuildingBlock: CEKHIL_clean_sbu_0, # of connection points: 4
#     Node 25, Type 0, BuildingBlock: CEKHIL_clean_sbu_0, # of connection points: 4
#     Node 26, Type 0, BuildingBlock: CEKHIL_clean_sbu_0, # of connection points: 4
#     Node 27, Type 0, BuildingBlock: CEKHIL_clean_sbu_0, # of connection points: 4
#     Node 28, Type 0, BuildingBlock: CEKHIL_clean_sbu_0, # of connection points: 4
#     Node 29, Type 0, BuildingBlock: CEKHIL_clean_sbu_0, # of connection points: 4
#     Node 30, Type 0, BuildingBlock: CEKHIL_clean_sbu_0, # of connection points: 4
#     Node 31, Type 0, BuildingBlock: CEKHIL_clean_sbu_0, # of connection points: 4
#     Node 32, Type 0, BuildingBlock: CEKHIL_clean_sbu_0, # of connection points: 4
#     Node 33, Type 0, BuildingBlock: CEKHIL_clean_sbu_0, # of connection points: 4
#     Node 34, Type 0, BuildingBlock: CEKHIL_clean_sbu_0, # of connection points: 4
#     Node 35, Type 0, BuildingBlock: CEKHIL_clean_sbu_0, # of connection points: 4
#     Edge 36, Type (0, 0), BuildingBlock: MIFKUJ_clean_linker_0, # of connection points: 2
#     Edge 37, Type (0, 0), BuildingBlock: MIFKUJ_clean_linker_0, # of connection points: 2
#     Edge 38, Type (0, 0), BuildingBlock: MIFKUJ_clean_linker_0, # of connection points: 2
#     Edge 39, Type (0, 0), BuildingBlock: MIFKUJ_clean_linker_0, # of connection points: 2
#     Edge 40, Type (0, 0), BuildingBlock: MIFKUJ_clean_linker_0, # of connection points: 2
#     Edge 41, Type (0, 0), BuildingBlock: MIFKUJ_clean_linker_0, # of connection points: 2
#     Edge 42, Type (0, 0), BuildingBlock: MIFKUJ_clean_linker_0, # of connection points: 2
#     Edge 43, Type (0, 0), BuildingBlock: MIFKUJ_clean_linker_0, # of connection points: 2
#     Edge 44, Type (0, 0), BuildingBlock: MIFKUJ_clean_linker_0, # of connection points: 2
#     Edge 45, Type (0, 0), BuildingBlock: MIFKUJ_clean_linker_0, # of connection points: 2
#     Edge 46, Type (0, 0), BuildingBlock: MIFKUJ_clean_linker_0, # of connection points: 2
#     Edge 47, Type (0, 0), BuildingBlock: MIFKUJ_clean_linker_0, # of connection points: 2
#     Edge 48, Type (0, 0), BuildingBlock: MIFKUJ_clean_linker_0, # of connection points: 2
#     Edge 49, Type (0, 0), BuildingBlock: MIFKUJ_clean_linker_0, # of connection points: 2
#     Edge 50, Type (0, 0), BuildingBlock: MIFKUJ_clean_linker_0, # of connection points: 2
#     Edge 51, Type (0, 0), BuildingBlock: MIFKUJ_clean_linker_0, # of connection points: 2
#     Edge 52, Type (0, 0), BuildingBlock: MIFKUJ_clean_linker_0, # of connection points: 2
#     Edge 53, Type (0, 0), BuildingBlock: MIFKUJ_clean_linker_0, # of connection points: 2
#     Edge 54, Type (0, 0), BuildingBlock: MIFKUJ_clean_linker_0, # of connection points: 2
#     Edge 55, Type (0, 0), BuildingBlock: MIFKUJ_clean_linker_0, # of connection points: 2
#     Edge 56, Type (0, 0), BuildingBlock: MIFKUJ_clean_linker_0, # of connection points: 2
#     Edge 57, Type (0, 0), BuildingBlock: MIFKUJ_clean_linker_0, # of connection points: 2
#     Edge 58, Type (0, 0), BuildingBlock: MIFKUJ_clean_linker_0, # of connection points: 2
#     Edge 59, Type (0, 0), BuildingBlock: MIFKUJ_clean_linker_0, # of connection points: 2
#     Edge 60, Type (0, 0), BuildingBlock: MIFKUJ_clean_linker_0, # of connection points: 2
#     Edge 61, Type (0, 0), BuildingBlock: MIFKUJ_clean_linker_0, # of connection points: 2
#     Edge 62, Type (0, 0), BuildingBlock: MIFKUJ_clean_linker_0, # of connection points: 2
#     Edge 63, Type (0, 0), BuildingBlock: MIFKUJ_clean_linker_0, # of connection points: 2
#     Edge 64, Type (0, 0), BuildingBlock: MIFKUJ_clean_linker_0, # of connection points: 2
#     Edge 65, Type (0, 0), BuildingBlock: MIFKUJ_clean_linker_0, # of connection points: 2
#     Edge 66, Type (0, 0), BuildingBlock: MIFKUJ_clean_linker_0, # of connection points: 2
#     Edge 67, Type (0, 0), BuildingBlock: MIFKUJ_clean_linker_0, # of connection points: 2
#     Edge 68, Type (0, 0), BuildingBlock: MIFKUJ_clean_linker_0, # of connection points: 2
#     Edge 69, Type (0, 0), BuildingBlock: MIFKUJ_clean_linker_0, # of connection points: 2
#     Edge 70, Type (0, 0), BuildingBlock: MIFKUJ_clean_linker_0, # of connection points: 2
#     Edge 71, Type (0, 0), BuildingBlock: MIFKUJ_clean_linker_0, # of connection points: 2
#     Edge 72, Type (0, 0), BuildingBlock: MIFKUJ_clean_linker_0, # of connection points: 2
#     Edge 73, Type (0, 0), BuildingBlock: MIFKUJ_clean_linker_0, # of connection points: 2
#     Edge 74, Type (0, 0), BuildingBlock: MIFKUJ_clean_linker_0, # of connection points: 2
#     Edge 75, Type (0, 0), BuildingBlock: MIFKUJ_clean_linker_0, # of connection points: 2
#     Edge 76, Type (0, 0), BuildingBlock: MIFKUJ_clean_linker_0, # of connection points: 2
#     Edge 77, Type (0, 0), BuildingBlock: MIFKUJ_clean_linker_0, # of connection points: 2
#     Edge 78, Type (0, 0), BuildingBlock: MIFKUJ_clean_linker_0, # of connection points: 2
#     Edge 79, Type (0, 0), BuildingBlock: MIFKUJ_clean_linker_0, # of connection points: 2
#     Edge 80, Type (0, 0), BuildingBlock: MIFKUJ_clean_linker_0, # of connection points: 2
#     Edge 81, Type (0, 0), BuildingBlock: MIFKUJ_clean_linker_0, # of connection points: 2
#     Edge 82, Type (0, 0), BuildingBlock: MIFKUJ_clean_linker_0, # of connection points: 2
#     Edge 83, Type (0, 0), BuildingBlock: MIFKUJ_clean_linker_0, # of connection points: 2
#     Edge 84, Type (0, 0), BuildingBlock: MIFKUJ_clean_linker_0, # of connection points: 2
#     Edge 85, Type (0, 0), BuildingBlock: MIFKUJ_clean_linker_0, # of connection points: 2
#     Edge 86, Type (0, 0), BuildingBlock: MIFKUJ_clean_linker_0, # of connection points: 2
#     Edge 87, Type (0, 0), BuildingBlock: MIFKUJ_clean_linker_0, # of connection points: 2
#     Edge 88, Type (0, 0), BuildingBlock: MIFKUJ_clean_linker_0, # of connection points: 2
#     Edge 89, Type (0, 0), BuildingBlock: MIFKUJ_clean_linker_0, # of connection points: 2
#     Edge 90, Type (0, 0), BuildingBlock: MIFKUJ_clean_linker_0, # of connection points: 2
#     Edge 91, Type (0, 0), BuildingBlock: MIFKUJ_clean_linker_0, # of connection points: 2
#     Edge 92, Type (0, 0), BuildingBlock: MIFKUJ_clean_linker_0, # of connection points: 2
#     Edge 93, Type (0, 0), BuildingBlock: MIFKUJ_clean_linker_0, # of connection points: 2
#     Edge 94, Type (0, 0), BuildingBlock: MIFKUJ_clean_linker_0, # of connection points: 2
#     Edge 95, Type (0, 0), BuildingBlock: MIFKUJ_clean_linker_0, # of connection points: 2
#     Edge 96, Type (0, 0), BuildingBlock: MIFKUJ_clean_linker_0, # of connection points: 2
#     Edge 97, Type (0, 0), BuildingBlock: MIFKUJ_clean_linker_0, # of connection points: 2
#     Edge 98, Type (0, 0), BuildingBlock: MIFKUJ_clean_linker_0, # of connection points: 2
#     Edge 99, Type (0, 0), BuildingBlock: MIFKUJ_clean_linker_0, # of connection points: 2
#     Edge 100, Type (0, 0), BuildingBlock: MIFKUJ_clean_linker_0, # of connection points: 2
#     Edge 101, Type (0, 0), BuildingBlock: MIFKUJ_clean_linker_0, # of connection points: 2
#     Edge 102, Type (0, 0), BuildingBlock: MIFKUJ_clean_linker_0, # of connection points: 2
#     Edge 103, Type (0, 0), BuildingBlock: MIFKUJ_clean_linker_0, # of connection points: 2
#     Edge 104, Type (0, 0), BuildingBlock: MIFKUJ_clean_linker_0, # of connection points: 2
#     Edge 105, Type (0, 0), BuildingBlock: MIFKUJ_clean_linker_0, # of connection points: 2
#     Edge 106, Type (0, 0), BuildingBlock: MIFKUJ_clean_linker_0, # of connection points: 2
#     Edge 107, Type (0, 0), BuildingBlock: MIFKUJ_clean_linker_0, # of connection points: 2
# Relax obj value: 0.096
# Max RMSD: 0.120
# Mean RMSD: 0.120
data_MOF--net-ict--node1-CEKHIL_clean_sbu_0--edge1-MIFKUJ_clean_linker_0
_symmetry_space_group_name_H-M    P1
_symmetry_Int_Tables_number       1
_symmetry_cell_setting            triclinic
loop_
_symmetry_equiv_pos_as_xyz
'x, y, z'
_cell_length_a     83.494615
_cell_length_b     83.502295
_cell_length_c     47.965178
_cell_angle_alpha  89.988648
_cell_angle_beta   90.004787
_cell_angle_gamma 120.00832
loop_
_atom_site_label
_atom_site_type_symbol
_atom_site_fract_x
_atom_site_fract_y
_atom_site_fract_z
_atom_type_partial_charge
Co0 Co 0.23295 0.21802 0.04589 0.0
O1 O 0.24062 0.22097 0.00747 0.0
O2 O 0.2597 0.2322 0.0434 0.0
C3 C 0.21036 0.225 0.03871 0.0
O4 O 0.23027 0.21848 0.08834 0.0
Co5 Co 0.19345 0.18865 0.06426 0.0
O6 O 0.20008 0.20302 0.09946 0.0
C7 C 0.22031 0.17711 0.04737 0.0
C8 C 0.25751 0.23024 0.0165 0.0
C9 C 0.21696 0.21369 0.10595 0.0
O10 O 0.23345 0.1941 0.04757 0.0
O11 O 0.20333 0.17232 0.05149 0.0
O12 O 0.22738 0.23814 0.0421 0.0
O13 O 0.20782 0.20845 0.0383 0.0
Co14 Co 0.7828 0.01462 0.04662 0.0
O15 O 0.77885 0.01857 0.00828 0.0
O16 O 0.76872 0.02729 0.04458 0.0
C17 C 0.77538 0.98483 0.04062 0.0
O18 O 0.78346 0.01232 0.08911 0.0
Co19 Co 0.81252 0.00461 0.06358 0.0
O20 O 0.79917 0.99775 0.0997 0.0
C21 C 0.82374 0.0425 0.04442 0.0
C22 C 0.76992 0.02647 0.01762 0.0
C23 C 0.7887 0.00412 0.10661 0.0
O24 O 0.80689 0.03894 0.04641 0.0
O25 O 0.82846 0.03023 0.04832 0.0
O26 O 0.76243 0.98893 0.04448 0.0
O27 O 0.79195 0.99875 0.03897 0.0
Co28 Co 0.98614 0.76956 0.04452 0.0
O29 O 0.9828 0.76177 0.0062 0.0
O30 O 0.97347 0.74277 0.04235 0.0
C31 C 0.01599 0.79204 0.03974 0.0
O32 O 0.98796 0.77268 0.08709 0.0
Co33 Co 0.99532 0.80942 0.05968 0.0
O34 O 1.0 0.80285 0.09725 0.0
C35 C 0.95791 0.7822 0.0401 0.0
C36 C 0.97468 0.74491 0.01539 0.0
C37 C 0.99456 0.78624 0.10463 0.0
O38 O 0.9617 0.76912 0.04323 0.0
O39 O 0.96997 0.79931 0.04335 0.0
O40 O 0.01189 0.77497 0.04345 0.0
O41 O 0.00206 0.79457 0.03702 0.0
Co42 Co 0.2174 0.23374 0.46236 0.0
O43 O 0.21973 0.24064 0.50113 0.0
O44 O 0.23143 0.26042 0.4661 0.0
C45 C 0.22434 0.21105 0.46864 0.0
O46 O 0.21852 0.23193 0.41982 0.0
Co47 Co 0.18835 0.19459 0.44191 0.0
O48 O 0.20364 0.2019 0.40758 0.0
C49 C 0.17649 0.22112 0.45934 0.0
C50 C 0.22908 0.2577 0.49287 0.0
C51 C 0.21425 0.21892 0.40185 0.0
O52 O 0.19348 0.23422 0.46027 0.0
O53 O 0.17176 0.20424 0.45433 0.0
O54 O 0.23751 0.22817 0.46638 0.0
O55 O 0.20777 0.20848 0.46867 0.0
Co56 Co 0.76683 0.98524 0.46331 0.0
O57 O 0.75971 0.98167 0.50199 0.0
O58 O 0.74013 0.97191 0.46654 0.0
C59 C 0.78875 0.01531 0.46755 0.0
O60 O 0.76898 0.98704 0.42072 0.0
Co61 Co 0.80652 0.99572 0.44491 0.0
O62 O 0.7992 0.00253 0.40945 0.0
C63 C 0.78062 0.95784 0.46481 0.0
C64 C 0.7427 0.97316 0.4934 0.0
C65 C 0.78222 0.9957 0.40306 0.0
O66 O 0.76721 0.96125 0.46366 0.0
O67 O 0.79748 0.97016 0.46012 0.0
O68 O 0.77146 0.01068 0.46495 0.0
O69 O 0.79192 0.00173 0.46953 0.0
Co70 Co 0.01741 0.78383 0.46041 0.0
O71 O 0.02161 0.7795 0.49833 0.0
O72 O 0.02991 0.76951 0.4614 0.0
C73 C 0.98773 0.77661 0.4671 0.0
O74 O 0.01457 0.78499 0.41803 0.0
Co75 Co 0.0082 0.81469 0.44692 0.0
O76 O 0.00355 0.80413 0.40889 0.0
C77 C 0.04608 0.82469 0.4636 0.0
C78 C 0.02933 0.77056 0.48844 0.0
C79 C 0.00835 0.79256 0.40098 0.0
O80 O 0.04201 0.80773 0.46055 0.0
O81 O 0.03406 0.82987 0.46147 0.0
O82 O 0.99168 0.76361 0.46269 0.0
O83 O 0.00177 0.79306 0.46932 0.0
Co84 Co 0.76874 0.78361 0.95724 0.0
O85 O 0.76096 0.77912 0.99557 0.0
O86 O 0.74199 0.76908 0.95938 0.0
C87 C 0.79166 0.77686 0.96189 0.0
O88 O 0.77179 0.78489 0.9147 0.0
Co89 Co 0.80828 0.81494 0.94199 0.0
O90 O 0.8015 0.80485 0.90377 0.0
C91 C 0.7804 0.82432 0.96101 0.0
C92 C 0.74411 0.77017 0.98634 0.0
C93 C 0.78503 0.79292 0.89681 0.0
O94 O 0.76767 0.80728 0.95832 0.0
O95 O 0.79761 0.82981 0.95781 0.0
O96 O 0.77467 0.76365 0.95836 0.0
O97 O 0.79386 0.7932 0.96464 0.0
Co98 Co 0.21826 0.98595 0.96051 0.0
O99 O 0.22166 0.9813 0.99873 0.0
O100 O 0.23265 0.97355 0.96242 0.0
C101 C 0.22498 0.01543 0.96784 0.0
O102 O 0.2182 0.98918 0.91805 0.0
Co103 Co 0.18803 0.99541 0.94403 0.0
O104 O 0.20147 0.00277 0.90807 0.0
C105 C 0.17746 0.95738 0.96127 0.0
C106 C 0.23089 0.97374 0.98937 0.0
C107 C 0.21253 0.99718 0.90084 0.0
O108 O 0.19445 0.96136 0.95937 0.0
O109 O 0.1724 0.96944 0.95806 0.0
O110 O 0.23824 0.01175 0.96406 0.0
O111 O 0.20854 0.00126 0.96869 0.0
Co112 Co 0.01518 0.23158 0.9595 0.0
O113 O 0.01939 0.23912 0.99797 0.0
O114 O 0.02735 0.2583 0.96214 0.0
C115 C 0.98566 0.20862 0.96551 0.0
O116 O 0.01232 0.22885 0.91696 0.0
Co117 Co 0.00639 0.19227 0.94199 0.0
O118 O 0.99924 0.19869 0.90611 0.0
C119 C 0.04433 0.21994 0.95912 0.0
C120 C 0.02688 0.25602 0.98904 0.0
C121 C 0.00463 0.21539 0.89934 0.0
O122 O 0.03992 0.23268 0.9585 0.0
O123 O 0.03257 0.20281 0.95516 0.0
O124 O 0.98935 0.22562 0.96257 0.0
O125 O 0.99984 0.20637 0.96675 0.0
Co126 Co 0.78333 0.768 0.54191 0.0
O127 O 0.77757 0.75941 0.50404 0.0
O128 O 0.76871 0.74122 0.54116 0.0
C129 C 0.77641 0.7908 0.53707 0.0
O130 O 0.78565 0.77187 0.58432 0.0
Co131 Co 0.81464 0.80793 0.55533 0.0
O132 O 0.80375 0.80221 0.59319 0.0
C133 C 0.82405 0.78003 0.53603 0.0
C134 C 0.76866 0.74279 0.51416 0.0
C135 C 0.7927 0.78574 0.60128 0.0
O136 O 0.80713 0.76707 0.53949 0.0
O137 O 0.82928 0.79719 0.53901 0.0
O138 O 0.76331 0.77392 0.54171 0.0
O139 O 0.79266 0.79294 0.53356 0.0
Co140 Co 0.23453 0.0166 0.54419 0.0
O141 O 0.24285 0.02151 0.50611 0.0
O142 O 0.26136 0.02982 0.54277 0.0
C143 C 0.21263 0.98678 0.53669 0.0
O144 O 0.23099 0.01319 0.58657 0.0
Co145 Co 0.19423 0.00541 0.56002 0.0
O146 O 0.20047 0.99772 0.5956 0.0
C147 C 0.2207 0.04392 0.5432 0.0
C148 C 0.25959 0.02947 0.51578 0.0
C149 C 0.2172 0.00415 0.60324 0.0
O150 O 0.23421 0.04067 0.54525 0.0
O151 O 0.20374 0.0313 0.54614 0.0
O152 O 0.22973 0.9911 0.54071 0.0
O153 O 0.20972 0.00054 0.53566 0.0
Co154 Co 0.98397 0.21654 0.54435 0.0
O155 O 0.98049 0.22109 0.50614 0.0
O156 O 0.97179 0.23113 0.54256 0.0
C157 C 0.0136 0.22331 0.53882 0.0
O158 O 0.98606 0.21532 0.58685 0.0
Co159 Co 0.99239 0.18546 0.55959 0.0
O160 O 0.99796 0.19709 0.59698 0.0
C161 C 0.95535 0.17601 0.53922 0.0
C162 C 0.97276 0.23015 0.51558 0.0
C163 C 0.99284 0.20852 0.60433 0.0
O164 O 0.95926 0.19283 0.54333 0.0
O165 O 0.96726 0.17074 0.54218 0.0
O166 O 0.00986 0.23649 0.54291 0.0
O167 O 0.99943 0.20694 0.53642 0.0
Co168 Co 0.90022 0.55027 0.37749 0.0
O169 O 0.90816 0.55481 0.33922 0.0
O170 O 0.92701 0.56352 0.37552 0.0
C171 C 0.8786 0.55886 0.3733 0.0
O172 O 0.89704 0.54878 0.42004 0.0
Co173 Co 0.8599 0.52033 0.39201 0.0
O174 O 0.86697 0.52995 0.43042 0.0
C175 C 0.8862 0.50913 0.372 0.0
C176 C 0.92499 0.56294 0.34856 0.0
C177 C 0.8836 0.54116 0.43769 0.0
O178 O 0.89964 0.52574 0.37577 0.0
O179 O 0.86921 0.50464 0.37486 0.0
O180 O 0.89588 0.57129 0.37688 0.0
O181 O 0.87534 0.54216 0.37009 0.0
Co182 Co 0.45337 0.34818 0.37793 0.0
O183 O 0.44892 0.35143 0.33955 0.0
O184 O 0.43988 0.36146 0.3756 0.0
C185 C 0.44509 0.31805 0.37397 0.0
O186 O 0.45468 0.34654 0.42052 0.0
Co187 Co 0.4834 0.33813 0.39329 0.0
O188 O 0.47189 0.33348 0.43068 0.0
C189 C 0.49449 0.3756 0.37306 0.0
C190 C 0.44059 0.35998 0.34866 0.0
C191 C 0.46111 0.3394 0.43804 0.0
O192 O 0.47777 0.37224 0.37628 0.0
O193 O 0.49914 0.36326 0.37652 0.0
O194 O 0.43251 0.32272 0.37733 0.0
O195 O 0.46175 0.33161 0.37086 0.0
Co196 Co 0.6532 0.1007 0.37872 0.0
O197 O 0.64973 0.09317 0.34027 0.0
O198 O 0.64021 0.07394 0.37615 0.0
C199 C 0.68317 0.12285 0.37427 0.0
O200 O 0.65511 0.1035 0.42131 0.0
Co201 Co 0.66282 0.14052 0.39476 0.0
O202 O 0.66807 0.13371 0.4318 0.0
C203 C 0.6254 0.11387 0.37458 0.0
C204 C 0.64143 0.07625 0.34922 0.0
C205 C 0.66234 0.11699 0.43893 0.0
O206 O 0.62895 0.10064 0.37776 0.0
O207 O 0.63761 0.13091 0.37803 0.0
O208 O 0.67876 0.10566 0.37745 0.0
O209 O 0.66944 0.12573 0.37169 0.0
Co210 Co 0.88614 0.56741 0.79361 0.0
O211 O 0.89046 0.57591 0.83156 0.0
O212 O 0.90096 0.59421 0.79467 0.0
C213 C 0.89255 0.54442 0.8006 0.0
O214 O 0.88504 0.56343 0.75122 0.0
Co215 Co 0.85479 0.52763 0.77965 0.0
O216 O 0.86645 0.53316 0.74234 0.0
C217 C 0.84545 0.55617 0.79532 0.0
C218 C 0.89971 0.59257 0.8217 0.0
C219 C 0.87791 0.54953 0.73431 0.0
O220 O 0.86261 0.56876 0.79346 0.0
O221 O 0.8398 0.53889 0.79263 0.0
O222 O 0.9059 0.56123 0.7962 0.0
O223 O 0.87627 0.54246 0.80251 0.0
Co224 Co 0.43449 0.32077 0.79369 0.0
O225 O 0.42653 0.31805 0.8319 0.0
O226 O 0.40773 0.30832 0.79549 0.0
C227 C 0.45722 0.35057 0.79726 0.0
O228 O 0.43772 0.32188 0.75121 0.0
Co229 Co 0.47414 0.32884 0.77954 0.0
O230 O 0.46741 0.33111 0.74076 0.0
C231 C 0.44649 0.29226 0.80092 0.0
C232 C 0.40972 0.30978 0.82245 0.0
C233 C 0.451 0.32662 0.73352 0.0
O234 O 0.43365 0.29618 0.7962 0.0
O235 O 0.46369 0.30409 0.79811 0.0
O236 O 0.44019 0.34659 0.79354 0.0
O237 O 0.45956 0.33658 0.80099 0.0
Co238 Co 0.68153 0.11552 0.7949 0.0
O239 O 0.68602 0.11236 0.83335 0.0
O240 O 0.69332 0.10062 0.79746 0.0
C241 C 0.65228 0.10964 0.80166 0.0
O242 O 0.67823 0.11502 0.75242 0.0
Co243 Co 0.6731 0.14622 0.77685 0.0
O244 O 0.66516 0.13208 0.74154 0.0
C245 C 0.71125 0.15617 0.79222 0.0
C246 C 0.69312 0.10261 0.82435 0.0
C247 C 0.67036 0.12062 0.73486 0.0
O248 O 0.70649 0.13892 0.79306 0.0
O249 O 0.69972 0.16178 0.78792 0.0
O250 O 0.65555 0.09605 0.79878 0.0
O251 O 0.6667 0.12593 0.80228 0.0
Co252 Co 0.43668 0.11634 0.29313 0.0
O253 O 0.4291 0.11157 0.33155 0.0
O254 O 0.40995 0.102 0.29557 0.0
C255 C 0.45948 0.10934 0.29672 0.0
O256 O 0.43944 0.11795 0.25057 0.0
Co257 Co 0.47614 0.1477 0.2777 0.0
O258 O 0.46898 0.13826 0.2392 0.0
C259 C 0.44876 0.15687 0.29955 0.0
C260 C 0.41219 0.10287 0.32249 0.0
C261 C 0.45248 0.12627 0.23246 0.0
O262 O 0.43585 0.14011 0.29513 0.0
O263 O 0.46593 0.16217 0.29643 0.0
O264 O 0.44242 0.09624 0.29338 0.0
O265 O 0.46184 0.12571 0.29998 0.0
Co266 Co 0.88384 0.31695 0.29029 0.0
O267 O 0.88852 0.31413 0.32876 0.0
O268 O 0.89862 0.305 0.2929 0.0
C269 C 0.89026 0.34656 0.29445 0.0
O270 O 0.88245 0.31828 0.24769 0.0
Co271 Co 0.85224 0.32461 0.27448 0.0
O272 O 0.86199 0.32727 0.23613 0.0
C273 C 0.84344 0.28812 0.29627 0.0
C274 C 0.89761 0.30631 0.31982 0.0
C275 C 0.87415 0.32298 0.22951 0.0
O276 O 0.86027 0.29213 0.29199 0.0
O277 O 0.838 0.29988 0.29311 0.0
O278 O 0.9036 0.34298 0.29095 0.0
O279 O 0.87401 0.3323 0.29725 0.0
Co280 Co 0.68501 0.56668 0.29014 0.0
O281 O 0.68823 0.57393 0.32877 0.0
O282 O 0.69606 0.59328 0.29317 0.0
C283 C 0.65578 0.54284 0.29471 0.0
O284 O 0.68306 0.56431 0.24749 0.0
Co285 Co 0.67851 0.52813 0.27263 0.0
O286 O 0.67454 0.53513 0.23498 0.0
C287 C 0.71564 0.55695 0.29059 0.0
C288 C 0.69525 0.59084 0.32005 0.0
C289 C 0.6783 0.55151 0.22896 0.0
O290 O 0.71033 0.56902 0.29037 0.0
O291 O 0.7047 0.53972 0.28603 0.0
O292 O 0.65887 0.55963 0.29191 0.0
O293 O 0.67034 0.54124 0.29679 0.0
Co294 Co 0.44955 0.10447 0.87711 0.0
O295 O 0.44496 0.09644 0.8389 0.0
O296 O 0.4359 0.07768 0.87535 0.0
C297 C 0.44144 0.12643 0.87265 0.0
O298 O 0.45103 0.10783 0.9196 0.0
Co299 Co 0.4798 0.1447 0.8915 0.0
O300 O 0.46858 0.13817 0.92913 0.0
C301 C 0.49062 0.11789 0.87235 0.0
C302 C 0.43654 0.07963 0.84836 0.0
C303 C 0.45772 0.12155 0.93684 0.0
O304 O 0.47386 0.10462 0.8757 0.0
O305 O 0.49536 0.13495 0.87523 0.0
O306 O 0.42878 0.10924 0.87631 0.0
O307 O 0.45803 0.12936 0.86948 0.0
Co308 Co 0.8991 0.34824 0.87494 0.0
O309 O 0.90768 0.35317 0.83702 0.0
O310 O 0.92594 0.36095 0.87393 0.0
C311 C 0.87685 0.31863 0.86704 0.0
O312 O 0.89513 0.34469 0.91726 0.0
Co313 Co 0.85894 0.33818 0.88933 0.0
O314 O 0.86475 0.3319 0.92635 0.0
C315 C 0.8864 0.37653 0.87387 0.0
C316 C 0.92435 0.36082 0.84691 0.0
C317 C 0.88125 0.33723 0.9342 0.0
O318 O 0.89948 0.37266 0.87599 0.0
O319 O 0.86927 0.3643 0.87618 0.0
O320 O 0.89381 0.32263 0.87154 0.0
O321 O 0.87426 0.33259 0.86571 0.0
Co322 Co 0.65337 0.55139 0.87502 0.0
O323 O 0.64992 0.55627 0.83697 0.0
O324 O 0.64064 0.56546 0.87376 0.0
C325 C 0.6832 0.55887 0.86946 0.0
O326 O 0.65539 0.54981 0.91743 0.0
Co327 Co 0.66268 0.52083 0.88949 0.0
O328 O 0.66867 0.5327 0.92673 0.0
C329 C 0.62529 0.51061 0.86974 0.0
C330 C 0.64183 0.56489 0.84675 0.0
C331 C 0.66293 0.54356 0.93449 0.0
O332 O 0.62896 0.52738 0.87356 0.0
O333 O 0.63741 0.50561 0.87273 0.0
O334 O 0.67908 0.57175 0.87402 0.0
O335 O 0.66928 0.54239 0.86671 0.0
Co336 Co 0.5641 0.88377 0.71263 0.0
O337 O 0.57309 0.88881 0.67495 0.0
O338 O 0.59091 0.8978 0.71245 0.0
C339 C 0.54193 0.89139 0.70604 0.0
O340 O 0.55978 0.88184 0.75492 0.0
Co341 Co 0.52388 0.85323 0.72547 0.0
O342 O 0.52946 0.86348 0.76372 0.0
C343 C 0.55132 0.84296 0.70726 0.0
C344 C 0.58964 0.89727 0.68537 0.0
C345 C 0.54591 0.87456 0.77186 0.0
O346 O 0.56443 0.85972 0.71122 0.0
O347 O 0.53419 0.83804 0.70962 0.0
O348 O 0.55885 0.90419 0.71132 0.0
O349 O 0.53936 0.87491 0.70327 0.0
Co350 Co 0.11576 0.68015 0.71135 0.0
O351 O 0.11177 0.68389 0.67298 0.0
O352 O 0.10152 0.69267 0.70907 0.0
C353 C 0.10866 0.65041 0.70585 0.0
O354 O 0.11649 0.67794 0.75387 0.0
Co355 Co 0.14635 0.67106 0.72732 0.0
O356 O 0.13573 0.6674 0.76523 0.0
C357 C 0.15666 0.70874 0.70902 0.0
C358 C 0.10281 0.6918 0.68212 0.0
C359 C 0.124 0.67226 0.77193 0.0
O360 O 0.13966 0.70472 0.71113 0.0
O361 O 0.16179 0.69675 0.71224 0.0
O362 O 0.09558 0.65436 0.70943 0.0
O363 O 0.12513 0.66445 0.70382 0.0
Co364 Co 0.31959 0.43486 0.71516 0.0
O365 O 0.31591 0.42616 0.67729 0.0
O366 O 0.30721 0.40804 0.71445 0.0
C367 C 0.34925 0.45756 0.70904 0.0
O368 O 0.32176 0.4389 0.75753 0.0
Co369 Co 0.32831 0.47478 0.72835 0.0
O370 O 0.33244 0.46899 0.76677 0.0
C371 C 0.29079 0.44674 0.71036 0.0
C372 C 0.30799 0.40953 0.6874 0.0
C373 C 0.3276 0.45261 0.77469 0.0
O374 O 0.29492 0.43394 0.71384 0.0
O375 O 0.30267 0.46397 0.71282 0.0
O376 O 0.34547 0.44069 0.71389 0.0
O377 O 0.33512 0.45975 0.70624 0.0
Co378 Co 0.54875 0.89827 0.12821 0.0
O379 O 0.55396 0.90683 0.1661 0.0
O380 O 0.56366 0.92507 0.12909 0.0
C381 C 0.55516 0.87519 0.13402 0.0
O382 O 0.54675 0.89425 0.08582 0.0
Co383 Co 0.51685 0.8586 0.11525 0.0
O384 O 0.52694 0.86419 0.07692 0.0
C385 C 0.50844 0.88705 0.13474 0.0
C386 C 0.56302 0.92347 0.15613 0.0
C387 C 0.53871 0.88045 0.06883 0.0
O388 O 0.52526 0.89968 0.12977 0.0
O389 O 0.50287 0.86976 0.13267 0.0
O390 O 0.56847 0.89197 0.12932 0.0
O391 O 0.53897 0.87333 0.13694 0.0
Co392 Co 0.10264 0.65174 0.12682 0.0
O393 O 0.09453 0.64722 0.16501 0.0
O394 O 0.07587 0.63934 0.12854 0.0
C395 C 0.12534 0.68131 0.13341 0.0
O396 O 0.10603 0.65487 0.08439 0.0
Co397 Co 0.14239 0.66087 0.11115 0.0
O398 O 0.13626 0.66724 0.07444 0.0
C399 C 0.11462 0.62282 0.12737 0.0
C400 C 0.07776 0.63962 0.15551 0.0
C401 C 0.11971 0.6621 0.06709 0.0
O402 O 0.10179 0.62709 0.12593 0.0
O403 O 0.1318 0.63471 0.1243 0.0
O404 O 0.10834 0.6775 0.12996 0.0
O405 O 0.12769 0.6672 0.13491 0.0
Co406 Co 0.35141 0.45049 0.13052 0.0
O407 O 0.3552 0.44538 0.16827 0.0
O408 O 0.36384 0.43608 0.13093 0.0
C409 C 0.32172 0.44336 0.13683 0.0
O410 O 0.34903 0.45249 0.08821 0.0
Co411 Co 0.3426 0.48175 0.11823 0.0
O412 O 0.33797 0.47168 0.07987 0.0
C413 C 0.37992 0.49105 0.13676 0.0
C414 C 0.36307 0.43668 0.158 0.0
C415 C 0.34282 0.46024 0.07147 0.0
O416 O 0.37603 0.47432 0.13187 0.0
O417 O 0.36791 0.49627 0.135 0.0
O418 O 0.32557 0.43034 0.1318 0.0
O419 O 0.33582 0.4597 0.13978 0.0
Co420 Co 0.10229 0.44856 0.62566 0.0
O421 O 0.09429 0.44378 0.66387 0.0
O422 O 0.07549 0.43412 0.62748 0.0
C423 C 0.12505 0.4416 0.63073 0.0
O424 O 0.10564 0.45016 0.58316 0.0
Co425 Co 0.14203 0.47975 0.61119 0.0
O426 O 0.13546 0.47008 0.57274 0.0
C427 C 0.11423 0.4893 0.63004 0.0
C428 C 0.07749 0.43493 0.65446 0.0
C429 C 0.11901 0.45828 0.56549 0.0
O430 O 0.10138 0.47233 0.62702 0.0
O431 O 0.13142 0.49463 0.62715 0.0
O432 O 0.10809 0.4285 0.62659 0.0
O433 O 0.12731 0.45795 0.63355 0.0
Co434 Co 0.55097 0.65229 0.62699 0.0
O435 O 0.55506 0.64808 0.66509 0.0
O436 O 0.5657 0.64029 0.62833 0.0
C437 C 0.55747 0.68174 0.63342 0.0
O438 O 0.55021 0.65508 0.58457 0.0
Co439 Co 0.52006 0.66097 0.61136 0.0
O440 O 0.53306 0.66826 0.57502 0.0
C441 C 0.51021 0.62304 0.62799 0.0
C442 C 0.56432 0.64065 0.65533 0.0
C443 C 0.54419 0.66282 0.5675 0.0
O444 O 0.52736 0.62749 0.62679 0.0
O445 O 0.5047 0.63472 0.6244 0.0
O446 O 0.57079 0.67817 0.62953 0.0
O447 O 0.54112 0.66749 0.63525 0.0
Co448 Co 0.34733 0.90036 0.62982 0.0
O449 O 0.3511 0.90904 0.66768 0.0
O450 O 0.35924 0.92715 0.63054 0.0
C451 C 0.31789 0.87727 0.63619 0.0
O452 O 0.34487 0.89618 0.58752 0.0
Co453 Co 0.33948 0.86063 0.61699 0.0
O454 O 0.33457 0.86611 0.57875 0.0
C455 C 0.37619 0.88908 0.63675 0.0
C456 C 0.35859 0.92565 0.6576 0.0
C457 C 0.33892 0.88233 0.57062 0.0
O458 O 0.37221 0.90171 0.63068 0.0
O459 O 0.36434 0.87178 0.6355 0.0
O460 O 0.3213 0.89404 0.63157 0.0
O461 O 0.33227 0.87546 0.63878 0.0
Co462 Co 0.1172 0.43396 0.21013 0.0
O463 O 0.11226 0.42528 0.17227 0.0
O464 O 0.10263 0.40713 0.20937 0.0
C465 C 0.11033 0.45672 0.20388 0.0
O466 O 0.11899 0.43811 0.25242 0.0
Co467 Co 0.14866 0.47386 0.22287 0.0
O468 O 0.13811 0.46834 0.26104 0.0
C469 C 0.15752 0.44581 0.20328 0.0
C470 C 0.10335 0.40865 0.18231 0.0
C471 C 0.12656 0.45203 0.26926 0.0
O472 O 0.14094 0.43301 0.20911 0.0
O473 O 0.16276 0.46306 0.20456 0.0
O474 O 0.09719 0.43986 0.20864 0.0
O475 O 0.12663 0.45882 0.20114 0.0
Co476 Co 0.56805 0.68262 0.21082 0.0
O477 O 0.57583 0.68734 0.17251 0.0
O478 O 0.59484 0.69637 0.20863 0.0
C479 C 0.5466 0.65257 0.20451 0.0
O480 O 0.56499 0.6795 0.2533 0.0
Co481 Co 0.52768 0.67088 0.22746 0.0
O482 O 0.5345 0.66329 0.26262 0.0
C483 C 0.55357 0.70952 0.2108 0.0
C484 C 0.5927 0.69575 0.18169 0.0
C485 C 0.55133 0.67013 0.27006 0.0
O486 O 0.56718 0.70638 0.2118 0.0
O487 O 0.53671 0.69684 0.21437 0.0
O488 O 0.5639 0.65738 0.2077 0.0
O489 O 0.54322 0.66602 0.20317 0.0
Co490 Co 0.31929 0.88579 0.21389 0.0
O491 O 0.31596 0.89014 0.17551 0.0
O492 O 0.30578 0.89908 0.2115 0.0
C493 C 0.34948 0.8943 0.20977 0.0
O494 O 0.32089 0.88438 0.25647 0.0
Co495 Co 0.32981 0.85598 0.22889 0.0
O496 O 0.33285 0.8662 0.26699 0.0
C497 C 0.29223 0.84465 0.20886 0.0
C498 C 0.30725 0.89832 0.18456 0.0
C499 C 0.32709 0.87714 0.27421 0.0
O500 O 0.29534 0.86127 0.21234 0.0
O501 O 0.30477 0.84023 0.21187 0.0
O502 O 0.34472 0.9068 0.21321 0.0
O503 O 0.33599 0.87762 0.20673 0.0
H504 H 0.4106 0.31192 0.87915 0.0
H505 H 0.3846 0.29802 0.9115 0.0
H506 H 0.3467 0.27547 0.84232 0.0
H507 H 0.37277 0.28963 0.80965 0.0
H508 H 0.33412 0.28984 0.88072 0.0
H509 H 0.35778 0.24829 0.8813 0.0
H510 H 0.38136 0.23887 0.88549 0.0
H511 H 0.39197 0.25816 0.97012 0.0
H512 H 0.36868 0.268 0.9663 0.0
H513 H 0.2562 0.22718 0.95988 0.0
H514 H 0.28197 0.24039 0.92706 0.0
H515 H 0.32038 0.26447 0.99534 0.0
H516 H 0.29455 0.25101 0.02852 0.0
H517 H 0.33247 0.24886 0.95699 0.0
H518 H 0.30884 0.29091 0.95533 0.0
H519 H 0.28475 0.2996 0.95057 0.0
H520 H 0.27358 0.27836 0.86699 0.0
H521 H 0.29744 0.26931 0.87138 0.0
C522 C 0.39674 0.30405 0.87075 0.0
C523 C 0.39375 0.30183 0.8418 0.0
C524 C 0.38188 0.29601 0.88932 0.0
C525 C 0.3637 0.28544 0.87939 0.0
C526 C 0.36062 0.2835 0.85046 0.0
C527 C 0.37552 0.29159 0.83182 0.0
C528 C 0.34797 0.27657 0.89928 0.0
C529 C 0.33363 0.28066 0.89714 0.0
C530 C 0.3475 0.26488 0.92108 0.0
C531 C 0.36158 0.25903 0.92343 0.0
C532 C 0.36525 0.25068 0.90073 0.0
C533 C 0.37855 0.24524 0.90305 0.0
C534 C 0.38815 0.24792 0.92805 0.0
C535 C 0.38451 0.25609 0.95077 0.0
C536 C 0.37126 0.2616 0.94854 0.0
C537 C 0.27012 0.23528 0.96799 0.0
C538 C 0.27332 0.23814 0.99683 0.0
C539 C 0.28485 0.24288 0.94915 0.0
C540 C 0.3031 0.25365 0.95868 0.0
C541 C 0.30639 0.25626 0.98751 0.0
C542 C 0.29163 0.24861 0.00643 0.0
C543 C 0.31869 0.26221 0.93848 0.0
C544 C 0.33298 0.25804 0.94056 0.0
C545 C 0.31908 0.27374 0.91652 0.0
C546 C 0.30481 0.27929 0.91378 0.0
C547 C 0.30115 0.28797 0.93601 0.0
C548 C 0.28756 0.29298 0.93336 0.0
C549 C 0.27761 0.28949 0.90852 0.0
C550 C 0.28128 0.28104 0.88623 0.0
C551 C 0.29485 0.27598 0.88877 0.0
H552 H 0.26709 0.29338 0.90652 0.0
H553 H 0.39835 0.2436 0.92986 0.0
H554 H 0.68873 0.09953 0.88074 0.0
H555 H 0.70119 0.08623 0.91357 0.0
H556 H 0.72746 0.07419 0.84572 0.0
H557 H 0.71441 0.08694 0.81255 0.0
H558 H 0.71251 0.04607 0.88021 0.0
H559 H 0.75143 0.11216 0.8924 0.0
H560 H 0.75833 0.14396 0.90258 0.0
H561 H 0.73305 0.12665 0.98318 0.0
H562 H 0.72576 0.09472 0.97334 0.0
H563 H 0.77354 0.02939 0.96109 0.0
H564 H 0.76 0.04189 0.92879 0.0
H565 H 0.73373 0.05309 0.99755 0.0
H566 H 0.74767 0.04095 0.03018 0.0
H567 H 0.74827 0.08137 0.96308 0.0
H568 H 0.70915 0.0161 0.95236 0.0
H569 H 0.70166 0.98395 0.94399 0.0
H570 H 0.72602 0.99898 0.86249 0.0
H571 H 0.73388 0.03129 0.87052 0.0
C572 C 0.69717 0.09406 0.87277 0.0
C573 C 0.70066 0.09437 0.84404 0.0
C574 C 0.70439 0.08655 0.89162 0.0
C575 C 0.71561 0.07952 0.88227 0.0
C576 C 0.71892 0.07959 0.8535 0.0
C577 C 0.71148 0.0869 0.83455 0.0
C578 C 0.72365 0.07188 0.90242 0.0
C579 C 0.72057 0.05391 0.8981 0.0
C580 C 0.73366 0.08182 0.92634 0.0
C581 C 0.73792 0.10102 0.93204 0.0
C582 C 0.74721 0.11511 0.91219 0.0
C583 C 0.75121 0.13316 0.91792 0.0
C584 C 0.74611 0.13729 0.94351 0.0
C585 C 0.73698 0.12341 0.96338 0.0
C586 C 0.73292 0.10535 0.95775 0.0
C587 C 0.76485 0.03447 0.96939 0.0
C588 C 0.76162 0.03411 0.99822 0.0
C589 C 0.75703 0.04153 0.95083 0.0
C590 C 0.74557 0.04816 0.96063 0.0
C591 C 0.74246 0.04799 0.98946 0.0
C592 C 0.75041 0.04103 0.0081 0.0
C593 C 0.7372 0.05563 0.9408 0.0
C594 C 0.74022 0.07354 0.94518 0.0
C595 C 0.72701 0.04559 0.91709 0.0
C596 C 0.72225 0.02615 0.91216 0.0
C597 C 0.71303 0.01258 0.93274 0.0
C598 C 0.7087 0.99432 0.92804 0.0
C599 C 0.7134 0.98944 0.90275 0.0
C600 C 0.7224 0.00279 0.88208 0.0
C601 C 0.72678 0.02107 0.88668 0.0
H602 H 0.71004 0.97529 0.89915 0.0
H603 H 0.74927 0.15124 0.94806 0.0
H604 H 0.95561 0.70775 0.02747 0.0
H605 H 0.94311 0.68193 0.99423 0.0
H606 H 0.96377 0.72064 0.92584 0.0
H607 H 0.97637 0.74635 0.95871 0.0
H608 H 0.91745 0.67241 0.95263 0.0
H609 H 0.9777 0.70298 0.87341 0.0
H610 H 0.01146 0.72416 0.87267 0.0
H611 H 0.01514 0.71097 0.95811 0.0
H612 H 0.98146 0.68953 0.95924 0.0
H613 H 0.91942 0.62953 0.80828 0.0
H614 H 0.93211 0.65587 0.8406 0.0
H615 H 0.91139 0.61823 0.9103 0.0
H616 H 0.8986 0.59204 0.87838 0.0
H617 H 0.95761 0.66629 0.88219 0.0
H618 H 0.89687 0.6362 0.96136 0.0
H619 H 0.86308 0.61518 0.96161 0.0
H620 H 0.86021 0.62763 0.87552 0.0
H621 H 0.89392 0.64895 0.87488 0.0
C622 C 0.95753 0.71073 0.00535 0.0
C623 C 0.96707 0.72909 0.99575 0.0
C624 C 0.95033 0.69598 0.98639 0.0
C625 C 0.95268 0.69935 0.95755 0.0
C626 C 0.96203 0.71768 0.94798 0.0
C627 C 0.96919 0.73238 0.96685 0.0
C628 C 0.94529 0.68377 0.93733 0.0
C629 C 0.92627 0.67091 0.9375 0.0
C630 C 0.95671 0.68213 0.91702 0.0
C631 C 0.97702 0.6948 0.91647 0.0
C632 C 0.98573 0.70455 0.892 0.0
C633 C 0.00485 0.71661 0.89152 0.0
C634 C 0.01543 0.71896 0.91535 0.0
C635 C 0.00692 0.7092 0.93969 0.0
C636 C 0.98781 0.69711 0.94028 0.0
C637 C 0.91759 0.6269 0.83049 0.0
C638 C 0.90793 0.6087 0.84074 0.0
C639 C 0.92487 0.64195 0.84893 0.0
C640 C 0.92248 0.63903 0.87786 0.0
C641 C 0.91312 0.62085 0.88807 0.0
C642 C 0.90588 0.60587 0.86974 0.0
C643 C 0.92978 0.65487 0.89758 0.0
C644 C 0.94878 0.6678 0.8973 0.0
C645 C 0.91833 0.6566 0.91773 0.0
C646 C 0.89797 0.64404 0.91802 0.0
C647 C 0.88902 0.63452 0.94253 0.0
C648 C 0.86988 0.62255 0.94273 0.0
C649 C 0.85952 0.62003 0.91858 0.0
C650 C 0.86826 0.62954 0.89419 0.0
C651 C 0.88739 0.64156 0.89389 0.0
H652 H 0.8447 0.61073 0.91877 0.0
H653 H 0.03023 0.72831 0.91495 0.0
H654 H 0.30811 0.40961 0.63066 0.0
H655 H 0.29382 0.38318 0.59923 0.0
H656 H 0.27469 0.3461 0.66968 0.0
H657 H 0.28923 0.37267 0.7015 0.0
H658 H 0.28874 0.33396 0.62914 0.0
H659 H 0.24498 0.35464 0.63408 0.0
H660 H 0.23415 0.37721 0.63239 0.0
H661 H 0.25037 0.38861 0.54647 0.0
H662 H 0.2616 0.36634 0.54776 0.0
H663 H 0.22672 0.25532 0.54959 0.0
H664 H 0.23939 0.28057 0.58338 0.0
H665 H 0.26118 0.32025 0.51632 0.0
H666 H 0.24838 0.29497 0.48223 0.0
H667 H 0.24453 0.33023 0.55674 0.0
H668 H 0.28942 0.31012 0.55313 0.0
H669 H 0.29999 0.28736 0.55551 0.0
H670 H 0.28076 0.2744 0.64002 0.0
H671 H 0.26984 0.29691 0.638 0.0
C672 C 0.30091 0.39585 0.63957 0.0
C673 C 0.29975 0.39325 0.66863 0.0
C674 C 0.29265 0.38073 0.62152 0.0
C675 C 0.28293 0.36265 0.63207 0.0
C676 C 0.28206 0.35995 0.66108 0.0
C677 C 0.29035 0.37513 0.67923 0.0
C678 C 0.2738 0.34668 0.61264 0.0
C679 C 0.27884 0.33299 0.61362 0.0
C680 C 0.26113 0.34558 0.59202 0.0
C681 C 0.25429 0.35892 0.59109 0.0
C682 C 0.24638 0.36207 0.61488 0.0
C683 C 0.24015 0.3748 0.61399 0.0
C684 C 0.2416 0.38437 0.58936 0.0
C685 C 0.24927 0.3812 0.56555 0.0
C686 C 0.25556 0.36851 0.56634 0.0
C687 C 0.2342 0.26942 0.54197 0.0
C688 C 0.23663 0.27314 0.51319 0.0
C689 C 0.24148 0.28384 0.56135 0.0
C690 C 0.25142 0.30231 0.55242 0.0
C691 C 0.25359 0.3061 0.52369 0.0
C692 C 0.24633 0.29165 0.50424 0.0
C693 C 0.25961 0.31763 0.57309 0.0
C694 C 0.25437 0.33119 0.57235 0.0
C695 C 0.27202 0.31855 0.59402 0.0
C696 C 0.27865 0.30507 0.59531 0.0
C697 C 0.28731 0.30231 0.57214 0.0
C698 C 0.29339 0.28948 0.57344 0.0
C699 C 0.291 0.27941 0.59788 0.0
C700 C 0.28258 0.28219 0.62109 0.0
C701 C 0.27646 0.295 0.61989 0.0
H702 H 0.29572 0.26947 0.59884 0.0
H703 H 0.23676 0.39421 0.58871 0.0
H704 H 0.59004 0.89555 0.62877 0.0
H705 H 0.61679 0.90833 0.59788 0.0
H706 H 0.65321 0.93015 0.66882 0.0
H707 H 0.62632 0.91738 0.70011 0.0
H708 H 0.66345 0.95539 0.62575 0.0
H709 H 0.64832 0.89263 0.63736 0.0
H710 H 0.62786 0.85878 0.63835 0.0
H711 H 0.61596 0.85905 0.55132 0.0
H712 H 0.63611 0.89295 0.54991 0.0
H713 H 0.74465 0.97586 0.55007 0.0
H714 H 0.71917 0.96292 0.58347 0.0
H715 H 0.68005 0.93958 0.5159 0.0
H716 H 0.70558 0.95246 0.48222 0.0
H717 H 0.67201 0.91489 0.55893 0.0
H718 H 0.68617 0.97785 0.54811 0.0
H719 H 0.70632 0.01175 0.5475 0.0
H720 H 0.7201 0.01096 0.63354 0.0
H721 H 0.70022 0.977 0.63457 0.0
C722 C 0.60372 0.90308 0.6379 0.0
C723 C 0.60606 0.90541 0.66693 0.0
C724 C 0.61901 0.91031 0.62017 0.0
C725 C 0.637 0.92 0.63105 0.0
C726 C 0.63943 0.92266 0.66001 0.0
C727 C 0.62408 0.91533 0.67784 0.0
C728 C 0.65315 0.92738 0.61197 0.0
C729 C 0.66551 0.9465 0.61147 0.0
C730 C 0.65559 0.91581 0.59293 0.0
C731 C 0.64361 0.89537 0.5936 0.0
C732 C 0.64123 0.88549 0.61848 0.0
C733 C 0.6297 0.86629 0.61911 0.0
C734 C 0.62059 0.85678 0.59493 0.0
C735 C 0.62302 0.86644 0.57004 0.0
C736 C 0.6345 0.88565 0.56931 0.0
C737 C 0.73063 0.96799 0.54226 0.0
C738 C 0.72713 0.96525 0.51346 0.0
C739 C 0.71607 0.96064 0.5614 0.0
C740 C 0.69769 0.95044 0.55218 0.0
C741 C 0.69414 0.94745 0.52346 0.0
C742 C 0.70872 0.95487 0.50425 0.0
C743 C 0.68222 0.94292 0.57256 0.0
C744 C 0.66999 0.92376 0.57331 0.0
C745 C 0.67992 0.95445 0.59187 0.0
C746 C 0.69186 0.97487 0.59133 0.0
C747 C 0.69362 0.98489 0.56684 0.0
C748 C 0.70497 0.00412 0.56643 0.0
C749 C 0.71453 0.0135 0.59044 0.0
C750 C 0.71271 0.00367 0.61495 0.0
C751 C 0.7014 0.98444 0.61546 0.0
H752 H 0.7233 0.02839 0.59009 0.0
H753 H 0.61166 0.84191 0.59546 0.0
H754 H 0.03011 0.77182 0.5451 0.0
H755 H 0.04293 0.75843 0.577 0.0
H756 H 0.05921 0.73716 0.50728 0.0
H757 H 0.04615 0.75046 0.47496 0.0
H758 H 0.0431 0.71149 0.54862 0.0
H759 H 0.09115 0.77464 0.54211 0.0
H760 H 0.10464 0.8085 0.54315 0.0
H761 H 0.08895 0.8057 0.62904 0.0
H762 H 0.07509 0.77177 0.62839 0.0
H763 H 0.10243 0.68999 0.62544 0.0
H764 H 0.0899 0.70318 0.59256 0.0
H765 H 0.07264 0.72456 0.66095 0.0
H766 H 0.08534 0.71144 0.69419 0.0
H767 H 0.08971 0.75027 0.61964 0.0
H768 H 0.04116 0.687 0.62569 0.0
H769 H 0.02757 0.65313 0.62438 0.0
H770 H 0.04446 0.65629 0.53905 0.0
H771 H 0.05838 0.69023 0.53996 0.0
C772 C 0.03642 0.76431 0.53645 0.0
C773 C 0.03716 0.76225 0.50745 0.0
C774 C 0.04383 0.75673 0.55477 0.0
C775 C 0.05226 0.747 0.54455 0.0
C776 C 0.05282 0.74468 0.51561 0.0
C777 C 0.0454 0.75231 0.49718 0.0
C778 C 0.06024 0.73914 0.56427 0.0
C779 C 0.05351 0.72001 0.56385 0.0
C780 C 0.0735 0.7502 0.5846 0.0
C781 C 0.08193 0.77063 0.58512 0.0
C782 C 0.09044 0.78122 0.56116 0.0
C783 C 0.09818 0.80043 0.56169 0.0
C784 C 0.09762 0.80924 0.58613 0.0
C785 C 0.08936 0.79885 0.61011 0.0
C786 C 0.08157 0.77963 0.60968 0.0
C787 C 0.09593 0.69744 0.63357 0.0
C788 C 0.09482 0.69961 0.66246 0.0
C789 C 0.08871 0.70493 0.6147 0.0
C790 C 0.08016 0.71469 0.62427 0.0
C791 C 0.07915 0.71703 0.65311 0.0
C792 C 0.08634 0.70948 0.67207 0.0
C793 C 0.07251 0.72262 0.60406 0.0
C794 C 0.07932 0.74176 0.60438 0.0
C795 C 0.05935 0.71159 0.5836 0.0
C796 C 0.05097 0.69118 0.58298 0.0
C797 C 0.04211 0.68049 0.60671 0.0
C798 C 0.03432 0.66128 0.60603 0.0
C799 C 0.03519 0.65257 0.58167 0.0
C800 C 0.04381 0.66306 0.55792 0.0
C801 C 0.05164 0.68228 0.5585 0.0
H802 H 0.02915 0.63769 0.58118 0.0
H803 H 0.10362 0.82412 0.58649 0.0
H804 H 0.59131 0.69499 0.12497 0.0
H805 H 0.61707 0.70791 0.09216 0.0
H806 H 0.6557 0.72807 0.16065 0.0
H807 H 0.62984 0.71521 0.19384 0.0
H808 H 0.66538 0.75394 0.11861 0.0
H809 H 0.6481 0.68994 0.12635 0.0
H810 H 0.62659 0.65627 0.12577 0.0
H811 H 0.61321 0.65937 0.04023 0.0
H812 H 0.63445 0.69312 0.04041 0.0
H813 H 0.74536 0.77187 0.04304 0.0
H814 H 0.71951 0.75957 0.07566 0.0
H815 H 0.68108 0.73832 0.00697 0.0
H816 H 0.70703 0.75054 0.974 0.0
H817 H 0.67116 0.71317 0.04893 0.0
H818 H 0.68852 0.77681 0.04046 0.0
H819 H 0.70982 0.81052 0.04048 0.0
H820 H 0.72271 0.80835 0.12656 0.0
H821 H 0.70172 0.77456 0.12694 0.0
C822 C 0.60527 0.70218 0.13315 0.0
C823 C 0.60853 0.70399 0.16206 0.0
C824 C 0.61999 0.70951 0.11431 0.0
C825 C 0.63832 0.71876 0.12393 0.0
C826 C 0.64166 0.72094 0.15278 0.0
C827 C 0.62688 0.71354 0.17171 0.0
C828 C 0.6539 0.72599 0.10375 0.0
C829 C 0.66682 0.745 0.10364 0.0
C830 C 0.65546 0.7144 0.08369 0.0
C831 C 0.64274 0.69409 0.08348 0.0
C832 C 0.64046 0.68347 0.10748 0.0
C833 C 0.62834 0.66437 0.10721 0.0
C834 C 0.61851 0.6557 0.083 0.0
C835 C 0.62082 0.66611 0.05898 0.0
C836 C 0.63291 0.68522 0.05914 0.0
C837 C 0.73142 0.76456 0.0348 0.0
C838 C 0.72825 0.76222 0.00589 0.0
C839 C 0.71664 0.75761 0.05351 0.0
C840 C 0.69835 0.74824 0.04377 0.0
C841 C 0.6951 0.74558 0.01494 0.0
C842 C 0.70992 0.75258 0.99613 0.0
C843 C 0.68269 0.74112 0.06381 0.0
C844 C 0.66974 0.72213 0.06388 0.0
C845 C 0.68108 0.75276 0.08375 0.0
C846 C 0.69367 0.77311 0.08365 0.0
C847 C 0.69601 0.78349 0.05934 0.0
C848 C 0.70801 0.80262 0.05928 0.0
C849 C 0.71764 0.81157 0.08349 0.0
C850 C 0.71526 0.8014 0.10782 0.0
C851 C 0.7033 0.78226 0.10797 0.0
H852 H 0.72692 0.82638 0.08341 0.0
H853 H 0.60913 0.6409 0.08283 0.0
H854 H 0.28781 0.91606 0.19633 0.0
H855 H 0.27464 0.92857 0.1629 0.0
H856 H 0.29537 0.91041 0.09477 0.0
H857 H 0.30871 0.89815 0.12787 0.0
H858 H 0.30197 0.94474 0.08577 0.0
H859 H 0.25016 0.8868 0.11378 0.0
H860 H 0.22875 0.86375 0.14752 0.0
H861 H 0.21146 0.90166 0.17502 0.0
H862 H 0.23318 0.92518 0.14204 0.0
H863 H 0.25027 0.95607 0.97674 0.0
H864 H 0.26295 0.94271 0.0095 0.0
H865 H 0.242 0.95991 0.07855 0.0
H866 H 0.2291 0.97297 0.04608 0.0
H867 H 0.23534 0.92557 0.08663 0.0
H868 H 0.288 0.98382 0.06021 0.0
H869 H 0.30993 0.00723 0.02732 0.0
H870 H 0.32538 0.96851 0.99674 0.0
H871 H 0.30335 0.94478 0.02922 0.0
C872 C 0.28956 0.91476 0.17423 0.0
C873 C 0.29928 0.90609 0.16477 0.0
C874 C 0.28198 0.92185 0.15514 0.0
C875 C 0.28388 0.92029 0.12628 0.0
C876 C 0.29373 0.91179 0.11689 0.0
C877 C 0.30131 0.90474 0.13589 0.0
C878 C 0.2757 0.92752 0.10575 0.0
C879 C 0.28735 0.94036 0.08575 0.0
C880 C 0.25668 0.92206 0.10598 0.0
C881 C 0.24345 0.90784 0.12561 0.0
C882 C 0.24192 0.89029 0.12718 0.0
C883 C 0.2297 0.87713 0.14614 0.0
C884 C 0.21874 0.88122 0.16336 0.0
C885 C 0.21997 0.89851 0.16167 0.0
C886 C 0.23225 0.91178 0.14288 0.0
C887 C 0.24839 0.957 0.9989 0.0
C888 C 0.23875 0.96565 0.00879 0.0
C889 C 0.25568 0.94941 0.01762 0.0
C890 C 0.25359 0.95045 0.04655 0.0
C891 C 0.24379 0.95891 0.05637 0.0
C892 C 0.23648 0.96645 0.03773 0.0
C893 C 0.26163 0.94285 0.06673 0.0
C894 C 0.24995 0.92992 0.08664 0.0
C895 C 0.28061 0.94821 0.06642 0.0
C896 C 0.29389 0.96247 0.04694 0.0
C897 C 0.29597 0.98025 0.04632 0.0
C898 C 0.30844 0.99359 0.02778 0.0
C899 C 0.319 0.98935 0.0099 0.0
C900 C 0.31716 0.97177 0.01057 0.0
C901 C 0.3047 0.95838 0.02906 0.0
H902 H 0.32865 0.99969 0.99556 0.0
H903 H 0.20928 0.871 0.178 0.0
H904 H 0.10265 0.40895 0.12563 0.0
H905 H 0.08917 0.38264 0.09393 0.0
H906 H 0.07121 0.34524 0.16398 0.0
H907 H 0.08495 0.37171 0.19609 0.0
H908 H 0.08699 0.33476 0.12299 0.0
H909 H 0.04031 0.35209 0.12808 0.0
H910 H 0.02805 0.37349 0.12607 0.0
H911 H 0.0449 0.38579 0.0405 0.0
H912 H 0.0575 0.36465 0.0421 0.0
H913 H 0.02708 0.25443 0.04577 0.0
H914 H 0.03981 0.28009 0.07877 0.0
H915 H 0.05708 0.31888 0.01053 0.0
H916 H 0.04407 0.29314 0.97723 0.0
H917 H 0.04122 0.3283 0.05138 0.0
H918 H 0.08821 0.31156 0.04597 0.0
H919 H 0.10086 0.29048 0.04744 0.0
H920 H 0.08404 0.27746 0.13292 0.0
H921 H 0.07102 0.29826 0.13183 0.0
C922 C 0.0958 0.39515 0.1344 0.0
C923 C 0.0948 0.39243 0.16343 0.0
C924 C 0.08803 0.3801 0.11619 0.0
C925 C 0.07897 0.36196 0.12655 0.0
C926 C 0.07809 0.35914 0.15553 0.0
C927 C 0.08588 0.37425 0.17385 0.0
C928 C 0.07063 0.34604 0.10693 0.0
C929 C 0.07675 0.33316 0.10764 0.0
C930 C 0.05765 0.34425 0.08636 0.0
C931 C 0.05 0.3569 0.08529 0.0
C932 C 0.04153 0.35946 0.10889 0.0
C933 C 0.03449 0.37153 0.10782 0.0
C934 C 0.03573 0.38102 0.08319 0.0
C935 C 0.04396 0.37844 0.05956 0.0
C936 C 0.05104 0.3664 0.06054 0.0
C937 C 0.03359 0.26841 0.03771 0.0
C938 C 0.03461 0.27175 0.00884 0.0
C939 C 0.04095 0.28309 0.05665 0.0
C940 C 0.04963 0.30144 0.04715 0.0
C941 C 0.05049 0.30483 0.01833 0.0
C942 C 0.04309 0.29012 0.99933 0.0
C943 C 0.05761 0.31702 0.06739 0.0
C944 C 0.05142 0.32985 0.06678 0.0
C945 C 0.07058 0.3188 0.08797 0.0
C946 C 0.07847 0.30634 0.08873 0.0
C947 C 0.08707 0.30409 0.06502 0.0
C948 C 0.09434 0.29221 0.06579 0.0
C949 C 0.09322 0.28261 0.09024 0.0
C950 C 0.08488 0.2849 0.11399 0.0
C951 C 0.07756 0.29674 0.11331 0.0
H952 H 0.09886 0.27342 0.0908 0.0
H953 H 0.03028 0.39036 0.0824 0.0
H954 H 0.69925 0.58964 0.37627 0.0
H955 H 0.71064 0.61514 0.40947 0.0
H956 H 0.71795 0.65278 0.34259 0.0
H957 H 0.707 0.6273 0.30903 0.0
H958 H 0.74668 0.66808 0.37605 0.0
H959 H 0.68107 0.63673 0.38952 0.0
H960 H 0.65007 0.61004 0.39844 0.0
H961 H 0.66821 0.60168 0.47811 0.0
H962 H 0.69941 0.62818 0.46949 0.0
H963 H 0.76003 0.7428 0.45953 0.0
H964 H 0.7457 0.71657 0.42764 0.0
H965 H 0.74164 0.67992 0.49414 0.0
H966 H 0.75549 0.70619 0.52656 0.0
H967 H 0.71105 0.66409 0.46118 0.0
H968 H 0.77691 0.69682 0.44705 0.0
H969 H 0.80653 0.72537 0.43878 0.0
H970 H 0.78712 0.73182 0.35896 0.0
H971 H 0.75706 0.70364 0.36725 0.0
C972 C 0.70323 0.60334 0.36859 0.0
C973 C 0.70212 0.60644 0.34001 0.0
C974 C 0.70967 0.61791 0.38765 0.0
C975 C 0.71487 0.63587 0.37866 0.0
C976 C 0.71396 0.63904 0.35007 0.0
C977 C 0.70766 0.62447 0.33091 0.0
C978 C 0.72153 0.65135 0.39905 0.0
C979 C 0.73875 0.66728 0.39445 0.0
C980 C 0.7114 0.65023 0.42343 0.0
C981 C 0.69263 0.63434 0.42874 0.0
C982 C 0.67849 0.62912 0.40885 0.0
C983 C 0.66087 0.61404 0.41387 0.0
C984 C 0.65718 0.60414 0.43879 0.0
C985 C 0.67109 0.60934 0.45879 0.0
C986 C 0.68874 0.6244 0.45387 0.0
C987 C 0.756 0.72915 0.46745 0.0
C988 C 0.75909 0.72658 0.49549 0.0
C989 C 0.74781 0.71416 0.44917 0.0
C990 C 0.74293 0.69631 0.45832 0.0
C991 C 0.74537 0.69358 0.48657 0.0
C992 C 0.75335 0.70859 0.50504 0.0
C993 C 0.73612 0.68076 0.43807 0.0
C994 C 0.71894 0.66484 0.44276 0.0
C995 C 0.74621 0.68192 0.41366 0.0
C996 C 0.76467 0.6982 0.40789 0.0
C997 C 0.77893 0.70435 0.42776 0.0
C998 C 0.79579 0.72051 0.4231 0.0
C999 C 0.79871 0.73043 0.39835 0.0
C1000 C 0.78482 0.72414 0.37814 0.0
C1001 C 0.76785 0.7081 0.38285 0.0
H1002 H 0.81175 0.74298 0.3948 0.0
H1003 H 0.64354 0.59247 0.44264 0.0
H1004 H 0.25895 0.02886 0.45903 0.0
H1005 H 0.28513 0.04151 0.427 0.0
H1006 H 0.32287 0.06093 0.49663 0.0
H1007 H 0.29658 0.04833 0.52903 0.0
H1008 H 0.33345 0.08701 0.45478 0.0
H1009 H 0.31535 0.02288 0.46228 0.0
H1010 H 0.29364 0.98926 0.46132 0.0
H1011 H 0.28127 0.99276 0.3754 0.0
H1012 H 0.30273 0.02647 0.37595 0.0
H1013 H 0.4136 0.10461 0.37924 0.0
H1014 H 0.38779 0.09248 0.41199 0.0
H1015 H 0.34924 0.07141 0.34343 0.0
H1016 H 0.37511 0.08345 0.31038 0.0
H1017 H 0.33924 0.04624 0.38515 0.0
H1018 H 0.35726 0.11015 0.37719 0.0
H1019 H 0.3785 0.14388 0.37789 0.0
H1020 H 0.39071 0.14104 0.46409 0.0
H1021 H 0.36978 0.10723 0.4638 0.0
C1022 C 0.2728 0.03583 0.46762 0.0
C1023 C 0.27568 0.03751 0.49662 0.0
C1024 C 0.28777 0.043 0.44923 0.0
C1025 C 0.30597 0.05197 0.4594 0.0
C1026 C 0.30893 0.05401 0.48834 0.0
C1027 C 0.29391 0.04676 0.50682 0.0
C1028 C 0.3218 0.05911 0.43966 0.0
C1029 C 0.3349 0.07806 0.43984 0.0
C1030 C 0.32339 0.04751 0.41966 0.0
C1031 C 0.31052 0.02723 0.41924 0.0
C1032 C 0.30789 0.01651 0.44324 0.0
C1033 C 0.29565 0.99743 0.44276 0.0
C1034 C 0.28605 0.98889 0.41834 0.0
C1035 C 0.2887 0.9994 0.39432 0.0
C1036 C 0.30092 0.01849 0.39469 0.0
C1037 C 0.39964 0.09737 0.37107 0.0
C1038 C 0.3964 0.09501 0.34217 0.0
C1039 C 0.38489 0.09052 0.38985 0.0
C1040 C 0.36657 0.08124 0.38017 0.0
C1041 C 0.36327 0.07859 0.35135 0.0
C1042 C 0.37806 0.08549 0.3325 0.0
C1043 C 0.35092 0.07416 0.40022 0.0
C1044 C 0.33784 0.05521 0.4001 0.0
C1045 C 0.34933 0.08579 0.42022 0.0
C1046 C 0.36206 0.10611 0.4204 0.0
C1047 C 0.36461 0.11668 0.39623 0.0
C1048 C 0.37657 0.13582 0.39656 0.0
C1049 C 0.38594 0.14458 0.42102 0.0
C1050 C 0.38343 0.13422 0.44517 0.0
C1051 C 0.37152 0.11507 0.44493 0.0
H1052 H 0.39508 0.15941 0.42131 0.0
H1053 H 0.27657 0.97411 0.41801 0.0
H1054 H 0.89725 0.30764 0.37655 0.0
H1055 H 0.91022 0.29503 0.40967 0.0
H1056 H 0.92977 0.2756 0.34161 0.0
H1057 H 0.91655 0.28806 0.30814 0.0
H1058 H 0.91339 0.24943 0.38185 0.0
H1059 H 0.95961 0.31378 0.37875 0.0
H1060 H 0.97142 0.34735 0.38127 0.0
H1061 H 0.95261 0.34169 0.46593 0.0
H1062 H 0.94046 0.30803 0.46379 0.0
H1063 H 0.97365 0.22998 0.45886 0.0
H1064 H 0.96089 0.24315 0.4264 0.0
H1065 H 0.94184 0.26234 0.49541 0.0
H1066 H 0.95486 0.24931 0.52825 0.0
H1067 H 0.95766 0.28857 0.45516 0.0
H1068 H 0.91174 0.22448 0.45878 0.0
H1069 H 0.89992 0.19089 0.45673 0.0
H1070 H 0.91776 0.19592 0.37161 0.0
H1071 H 0.92996 0.22959 0.37329 0.0
C1072 C 0.90436 0.30075 0.36854 0.0
C1073 C 0.90594 0.29893 0.33967 0.0
C1074 C 0.91183 0.29359 0.38756 0.0
C1075 C 0.92117 0.28456 0.37817 0.0
C1076 C 0.92266 0.28257 0.34934 0.0
C1077 C 0.91517 0.28975 0.33024 0.0
C1078 C 0.92912 0.27698 0.39853 0.0
C1079 C 0.92328 0.25804 0.39761 0.0
C1080 C 0.94161 0.28811 0.41964 0.0
C1081 C 0.94897 0.30836 0.42101 0.0
C1082 C 0.95786 0.31967 0.39783 0.0
C1083 C 0.96464 0.33872 0.3992 0.0
C1084 C 0.96272 0.34664 0.42372 0.0
C1085 C 0.95406 0.33553 0.44694 0.0
C1086 C 0.94725 0.31647 0.44567 0.0
C1087 C 0.96676 0.23701 0.46722 0.0
C1088 C 0.9652 0.23853 0.49617 0.0
C1089 C 0.9594 0.24447 0.44858 0.0
C1090 C 0.95017 0.25351 0.45843 0.0
C1091 C 0.94885 0.25536 0.48734 0.0
C1092 C 0.95626 0.24788 0.50607 0.0
C1093 C 0.94199 0.26104 0.43841 0.0
C1094 C 0.94777 0.27996 0.4394 0.0
C1095 C 0.9294 0.24988 0.41742 0.0
C1096 C 0.92192 0.2296 0.41625 0.0
C1097 C 0.91327 0.21845 0.43969 0.0
C1098 C 0.90648 0.19939 0.43858 0.0
C1099 C 0.90813 0.19128 0.41407 0.0
C1100 C 0.91652 0.20222 0.39059 0.0
C1101 C 0.92336 0.22129 0.3916 0.0
H1102 H 0.90286 0.17652 0.41326 0.0
H1103 H 0.96798 0.36139 0.42474 0.0
H1104 H 0.07852 0.63771 0.21214 0.0
H1105 H 0.0524 0.62431 0.2443 0.0
H1106 H 0.01461 0.60965 0.17511 0.0
H1107 H 0.04083 0.62327 0.14261 0.0
H1108 H 0.00529 0.62496 0.21761 0.0
H1109 H 0.02025 0.577 0.2076 0.0
H1110 H 0.04054 0.56341 0.20725 0.0
H1111 H 0.05316 0.57705 0.29378 0.0
H1112 H 0.03319 0.59101 0.29454 0.0
H1113 H 0.92395 0.56423 0.29189 0.0
H1114 H 0.9499 0.57714 0.2594 0.0
H1115 H 0.98805 0.59261 0.32824 0.0
H1116 H 0.962 0.5795 0.36107 0.0
H1117 H 0.99704 0.57663 0.28566 0.0
H1118 H 0.98224 0.62498 0.29514 0.0
H1119 H 0.96184 0.63844 0.29511 0.0
H1120 H 0.94865 0.62362 0.20901 0.0
H1121 H 0.96878 0.60984 0.20863 0.0
C1122 C 0.06466 0.63164 0.20368 0.0
C1123 C 0.06175 0.63151 0.17478 0.0
C1124 C 0.04973 0.6239 0.22213 0.0
C1125 C 0.03153 0.61576 0.21212 0.0
C1126 C 0.02855 0.61581 0.18329 0.0
C1127 C 0.04352 0.62355 0.16475 0.0
C1128 C 0.0157 0.60744 0.23188 0.0
C1129 C 0.00332 0.61419 0.2322 0.0
C1130 C 0.01339 0.59369 0.25139 0.0
C1131 C 0.02535 0.58522 0.25105 0.0
C1132 C 0.02747 0.57724 0.2265 0.0
C1133 C 0.0389 0.56945 0.22624 0.0
C1134 C 0.04816 0.5694 0.25046 0.0
C1135 C 0.04599 0.57712 0.27502 0.0
C1136 C 0.03461 0.58496 0.27538 0.0
C1137 C 0.93785 0.5704 0.3002 0.0
C1138 C 0.94092 0.57092 0.32911 0.0
C1139 C 0.95268 0.57783 0.28156 0.0
C1140 C 0.97094 0.58604 0.29137 0.0
C1141 C 0.97407 0.58638 0.32021 0.0
C1142 C 0.95919 0.57895 0.33894 0.0
C1143 C 0.98667 0.59418 0.27141 0.0
C1144 C 0.99902 0.58739 0.27106 0.0
C1145 C 0.98893 0.60786 0.25182 0.0
C1146 C 0.97689 0.61622 0.25194 0.0
C1147 C 0.97488 0.62447 0.27626 0.0
C1148 C 0.96338 0.63218 0.27631 0.0
C1149 C 0.95391 0.63185 0.25209 0.0
C1150 C 0.95597 0.62385 0.22776 0.0
C1151 C 0.96744 0.6161 0.22761 0.0
H1152 H 0.94502 0.63782 0.25217 0.0
H1153 H 0.057 0.56335 0.25022 0.0
H1154 H 0.43973 0.35776 0.29196 0.0
H1155 H 0.42701 0.37082 0.25912 0.0
H1156 H 0.41029 0.39261 0.32765 0.0
H1157 H 0.42322 0.3797 0.36075 0.0
H1158 H 0.39259 0.36458 0.25126 0.0
H1159 H 0.41419 0.43383 0.30757 0.0
H1160 H 0.43886 0.45584 0.33886 0.0
H1161 H 0.47574 0.43828 0.30729 0.0
H1162 H 0.45139 0.41639 0.27552 0.0
H1163 H 0.36412 0.4376 0.2147 0.0
H1164 H 0.3774 0.42432 0.24599 0.0
H1165 H 0.39374 0.40385 0.17532 0.0
H1166 H 0.38025 0.41705 0.14368 0.0
H1167 H 0.41234 0.43135 0.25176 0.0
H1168 H 0.39136 0.36287 0.19461 0.0
H1169 H 0.36686 0.34076 0.16317 0.0
H1170 H 0.32913 0.35682 0.19608 0.0
H1171 H 0.35332 0.37883 0.22795 0.0
C1172 C 0.43336 0.36534 0.3001 0.0
C1173 C 0.43254 0.36774 0.329 0.0
C1174 C 0.42604 0.37275 0.28126 0.0
C1175 C 0.41783 0.38283 0.29085 0.0
C1176 C 0.41679 0.3851 0.31973 0.0
C1177 C 0.42412 0.37765 0.33864 0.0
C1178 C 0.41039 0.39095 0.27057 0.0
C1179 C 0.39709 0.37923 0.25113 0.0
C1180 C 0.41604 0.41 0.27064 0.0
C1181 C 0.43088 0.42332 0.2894 0.0
C1182 C 0.42758 0.43472 0.30723 0.0
C1183 C 0.44151 0.44717 0.32506 0.0
C1184 C 0.45883 0.44841 0.32513 0.0
C1185 C 0.46229 0.43725 0.30729 0.0
C1186 C 0.44842 0.42481 0.2894 0.0
C1187 C 0.37048 0.43023 0.20572 0.0
C1188 C 0.37107 0.42832 0.17666 0.0
C1189 C 0.37814 0.4227 0.22369 0.0
C1190 C 0.38648 0.41299 0.21307 0.0
C1191 C 0.38718 0.4111 0.18402 0.0
C1192 C 0.37951 0.41868 0.16595 0.0
C1193 C 0.39445 0.40497 0.23258 0.0
C1194 C 0.40787 0.41671 0.25185 0.0
C1195 C 0.38895 0.38595 0.2323 0.0
C1196 C 0.37423 0.37264 0.21341 0.0
C1197 C 0.37782 0.36164 0.19517 0.0
C1198 C 0.36399 0.34913 0.17728 0.0
C1199 C 0.34647 0.34744 0.17755 0.0
C1200 C 0.34273 0.3582 0.1958 0.0
C1201 C 0.35651 0.37071 0.21375 0.0
H1202 H 0.33578 0.33776 0.16367 0.0
H1203 H 0.46959 0.45804 0.33897 0.0
H1204 H 0.58185 0.96041 0.14247 0.0
H1205 H 0.59545 0.98681 0.17462 0.0
H1206 H 0.57753 0.94933 0.24461 0.0
H1207 H 0.56376 0.92306 0.21281 0.0
H1208 H 0.56989 0.97629 0.25327 0.0
H1209 H 0.62291 0.9724 0.22319 0.0
H1210 H 0.64442 0.97152 0.18881 0.0
H1211 H 0.6575 0.0251 0.15845 0.0
H1212 H 0.63589 0.02619 0.19244 0.0
H1213 H 0.62314 0.03909 0.36097 0.0
H1214 H 0.6101 0.01341 0.32759 0.0
H1215 H 0.62883 0.05232 0.25941 0.0
H1216 H 0.64208 0.07794 0.2925 0.0
H1217 H 0.63596 0.02514 0.24903 0.0
H1218 H 0.58354 0.02946 0.27934 0.0
H1219 H 0.56216 0.03063 0.31366 0.0
H1220 H 0.5478 0.97652 0.34318 0.0
H1221 H 0.56932 0.97514 0.3093 0.0
C1222 C 0.58087 0.95783 0.16471 0.0
C1223 C 0.57176 0.93965 0.17507 0.0
C1224 C 0.58869 0.97291 0.18306 0.0
C1225 C 0.58763 0.97006 0.21207 0.0
C1226 C 0.5785 0.9519 0.22236 0.0
C1227 C 0.57069 0.93688 0.2041 0.0
C1228 C 0.59581 0.98587 0.2319 0.0
C1229 C 0.58439 0.98686 0.25254 0.0
C1230 C 0.61462 0.99992 0.23057 0.0
C1231 C 0.62764 0.99929 0.21015 0.0
C1232 C 0.63026 0.98392 0.20903 0.0
C1233 C 0.6425 0.9834 0.18964 0.0
C1234 C 0.65228 0.99822 0.1714 0.0
C1235 C 0.64989 0.01361 0.17256 0.0
C1236 C 0.63767 0.0142 0.1919 0.0
C1237 C 0.62449 0.04215 0.33887 0.0
C1238 C 0.63361 0.06054 0.3294 0.0
C1239 C 0.61697 0.02748 0.31981 0.0
C1240 C 0.61833 0.03094 0.29096 0.0
C1241 C 0.62762 0.0493 0.28153 0.0
C1242 C 0.63514 0.06393 0.30052 0.0
C1243 C 0.61007 0.01548 0.27052 0.0
C1244 C 0.62146 0.01459 0.24975 0.0
C1245 C 0.59122 0.00154 0.27168 0.0
C1246 C 0.57818 0.00228 0.29196 0.0
C1247 C 0.57593 0.01787 0.29329 0.0
C1248 C 0.56377 0.01856 0.31264 0.0
C1249 C 0.55366 0.00367 0.33063 0.0
C1250 C 0.55566 0.98805 0.32926 0.0
C1251 C 0.56783 0.9873 0.30997 0.0
H1252 H 0.54425 0.00423 0.3456 0.0
H1253 H 0.66175 0.99779 0.15641 0.0
H1254 H 0.35909 0.92549 0.71431 0.0
H1255 H 0.37208 0.95189 0.74584 0.0
H1256 H 0.38849 0.98904 0.67558 0.0
H1257 H 0.37567 0.9625 0.64363 0.0
H1258 H 0.41586 0.00066 0.71403 0.0
H1259 H 0.35117 0.98081 0.71523 0.0
H1260 H 0.31785 0.95847 0.71996 0.0
H1261 H 0.32634 0.94713 0.80431 0.0
H1262 H 0.35977 0.96923 0.79996 0.0
H1263 H 0.43579 0.08059 0.79165 0.0
H1264 H 0.42247 0.05459 0.75931 0.0
H1265 H 0.40544 0.01651 0.82847 0.0
H1266 H 0.41859 0.04261 0.86116 0.0
H1267 H 0.37828 0.00561 0.79009 0.0
H1268 H 0.44288 0.02519 0.78898 0.0
H1269 H 0.47624 0.04746 0.78448 0.0
H1270 H 0.46801 0.05919 0.70022 0.0
H1271 H 0.43454 0.03718 0.70435 0.0
C1272 C 0.36539 0.93926 0.70547 0.0
C1273 C 0.36627 0.94189 0.67642 0.0
C1274 C 0.37276 0.95436 0.72358 0.0
C1275 C 0.38104 0.97245 0.71313 0.0
C1276 C 0.3821 0.97518 0.68411 0.0
C1277 C 0.37472 0.96002 0.66589 0.0
C1278 C 0.3888 0.98844 0.73263 0.0
C1279 C 0.40757 0.00191 0.73038 0.0
C1280 C 0.37811 0.98981 0.75446 0.0
C1281 C 0.358 0.97656 0.75718 0.0
C1282 C 0.34595 0.97345 0.73472 0.0
C1283 C 0.32704 0.96085 0.73735 0.0
C1284 C 0.31999 0.95135 0.7624 0.0
C1285 C 0.33183 0.95448 0.78491 0.0
C1286 C 0.35075 0.96706 0.78239 0.0
C1287 C 0.42923 0.0667 0.80006 0.0
C1288 C 0.4283 0.06367 0.82901 0.0
C1289 C 0.42168 0.05183 0.78149 0.0
C1290 C 0.41317 0.03359 0.79141 0.0
C1291 C 0.412 0.03048 0.82034 0.0
C1292 C 0.41955 0.0454 0.83899 0.0
C1293 C 0.40534 0.01782 0.77152 0.0
C1294 C 0.38656 0.00438 0.77371 0.0
C1295 C 0.41603 0.01647 0.74966 0.0
C1296 C 0.43617 0.02965 0.74707 0.0
C1297 C 0.44816 0.03262 0.76956 0.0
C1298 C 0.46709 0.04518 0.76706 0.0
C1299 C 0.47423 0.05476 0.7421 0.0
C1300 C 0.46245 0.05177 0.71955 0.0
C1301 C 0.44351 0.03924 0.72195 0.0
H1302 H 0.48889 0.06448 0.74021 0.0
H1303 H 0.30534 0.9416 0.76439 0.0
H1304 H 0.04048 0.41903 0.64223 0.0
H1305 H 0.01459 0.4065 0.6753 0.0
H1306 H 0.05278 0.41983 0.74366 0.0
H1307 H 0.07859 0.43223 0.7109 0.0
H1308 H 0.02291 0.3857 0.74981 0.0
H1309 H 0.03476 0.4469 0.72971 0.0
H1310 H 0.03916 0.47273 0.69959 0.0
H1311 H 0.98394 0.43984 0.66795 0.0
H1312 H 0.97931 0.4137 0.69757 0.0
H1313 H 0.96117 0.3761 0.86021 0.0
H1314 H 0.98751 0.38893 0.82793 0.0
H1315 H 0.95027 0.37652 0.75851 0.0
H1316 H 0.92405 0.36389 0.79046 0.0
H1317 H 0.98002 0.41058 0.75341 0.0
H1318 H 0.9685 0.34919 0.7732 0.0
H1319 H 0.96434 0.32345 0.80332 0.0
H1320 H 0.01921 0.35699 0.83587 0.0
H1321 H 0.02361 0.38303 0.80619 0.0
C1322 C 0.04333 0.4192 0.66429 0.0
C1323 C 0.06158 0.42667 0.67393 0.0
C1324 C 0.02854 0.41212 0.68317 0.0
C1325 C 0.03177 0.41238 0.712 0.0
C1326 C 0.04995 0.41949 0.72155 0.0
C1327 C 0.0647 0.42663 0.70276 0.0
C1328 C 0.01628 0.40544 0.73233 0.0
C1329 C 0.01366 0.39129 0.75082 0.0
C1330 C 0.00405 0.41254 0.73339 0.0
C1331 C 0.00676 0.42827 0.71564 0.0
C1332 C 0.0236 0.44512 0.71615 0.0
C1333 C 0.02613 0.45983 0.6992 0.0
C1334 C 0.01185 0.45791 0.68182 0.0
C1335 C 0.995 0.4413 0.6814 0.0
C1336 C 0.99241 0.42653 0.69827 0.0
C1337 C 0.95863 0.37615 0.83808 0.0
C1338 C 0.94051 0.36891 0.82791 0.0
C1339 C 0.97367 0.38342 0.81964 0.0
C1340 C 0.97085 0.38355 0.79075 0.0
C1341 C 0.9528 0.37659 0.78068 0.0
C1342 C 0.9378 0.36929 0.79902 0.0
C1343 C 0.98659 0.39077 0.77082 0.0
C1344 C 0.98927 0.40499 0.75242 0.0
C1345 C 0.99891 0.38376 0.76988 0.0
C1346 C 0.99631 0.36812 0.7877 0.0
C1347 C 0.97962 0.35113 0.78695 0.0
C1348 C 0.97723 0.33647 0.80391 0.0
C1349 C 0.99148 0.3386 0.82156 0.0
C1350 C 0.00817 0.35537 0.82222 0.0
C1351 C 0.01063 0.37008 0.80533 0.0
H1352 H 0.98961 0.32723 0.83467 0.0
H1353 H 0.01383 0.46932 0.66871 0.0
H1354 H 0.64771 0.57042 0.79092 0.0
H1355 H 0.63484 0.58372 0.75877 0.0
H1356 H 0.60569 0.59163 0.82673 0.0
H1357 H 0.61868 0.57837 0.85927 0.0
H1358 H 0.58364 0.57516 0.77871 0.0
H1359 H 0.64243 0.62793 0.80216 0.0
H1360 H 0.6763 0.64513 0.80802 0.0
H1361 H 0.68335 0.63857 0.72089 0.0
H1362 H 0.64949 0.62109 0.71458 0.0
H1363 H 0.55837 0.63455 0.71108 0.0
H1364 H 0.57169 0.6215 0.74283 0.0
H1365 H 0.60224 0.61585 0.67474 0.0
H1366 H 0.58881 0.62888 0.64262 0.0
H1367 H 0.62371 0.63101 0.72235 0.0
H1368 H 0.56632 0.57871 0.69763 0.0
H1369 H 0.53267 0.56036 0.68994 0.0
H1370 H 0.52308 0.56449 0.77691 0.0
H1371 H 0.5567 0.58319 0.78504 0.0
C1372 C 0.63861 0.57504 0.79911 0.0
C1373 C 0.63424 0.57339 0.82767 0.0
C1374 C 0.63131 0.58268 0.78069 0.0
C1375 C 0.61941 0.58877 0.79039 0.0
C1376 C 0.61488 0.58704 0.81886 0.0
C1377 C 0.62236 0.57954 0.83742 0.0
C1378 C 0.61158 0.59672 0.7706 0.0
C1379 C 0.59236 0.58755 0.76673 0.0
C1380 C 0.62305 0.61249 0.75424 0.0
C1381 C 0.64341 0.62305 0.75796 0.0
C1382 C 0.65119 0.63002 0.7843 0.0
C1383 C 0.6704 0.63985 0.78769 0.0
C1384 C 0.68197 0.6429 0.76486 0.0
C1385 C 0.67437 0.63618 0.73856 0.0
C1386 C 0.65517 0.62632 0.73506 0.0
C1387 C 0.56792 0.63055 0.7028 0.0
C1388 C 0.57254 0.63273 0.67432 0.0
C1389 C 0.57547 0.62302 0.72098 0.0
C1390 C 0.58786 0.61759 0.71112 0.0
C1391 C 0.59269 0.61994 0.68275 0.0
C1392 C 0.58497 0.62732 0.66443 0.0
C1393 C 0.59574 0.60955 0.73062 0.0
C1394 C 0.61497 0.61866 0.7344 0.0
C1395 C 0.5843 0.5936 0.74666 0.0
C1396 C 0.56405 0.58252 0.74189 0.0
C1397 C 0.55704 0.57589 0.71507 0.0
C1398 C 0.53797 0.5654 0.71063 0.0
C1399 C 0.52575 0.56129 0.7329 0.0
C1400 C 0.53257 0.56771 0.75966 0.0
C1401 C 0.55164 0.57825 0.7642 0.0
H1402 H 0.511 0.55304 0.7294 0.0
H1403 H 0.69684 0.65052 0.76753 0.0
H1404 H 0.19904 0.02496 0.97912 0.0
H1405 H 0.20383 0.05499 0.99348 0.0
H1406 H 0.26279 0.07864 0.98453 0.0
H1407 H 0.25809 0.04826 0.97022 0.0
H1408 H 0.22425 0.07472 0.04058 0.0
H1409 H 0.27816 0.12613 0.96471 0.0
H1410 H 0.29005 0.12708 0.91726 0.0
H1411 H 0.237 0.08238 0.89239 0.0
H1412 H 0.22475 0.08135 0.93954 0.0
H1413 H 0.25416 0.18059 0.03479 0.0
H1414 H 0.26062 0.15573 0.02327 0.0
H1415 H 0.20285 0.11549 0.03378 0.0
H1416 H 0.19634 0.13989 0.04575 0.0
H1417 H 0.24829 0.13074 0.98124 0.0
H1418 H 0.19671 0.0766 0.06085 0.0
H1419 H 0.18542 0.07612 0.10852 0.0
H1420 H 0.23513 0.12695 0.12727 0.0
H1421 H 0.24686 0.12761 0.07986 0.0
C1422 C 0.21305 0.03653 0.97994 0.0
C1423 C 0.22821 0.03421 0.97367 0.0
C1424 C 0.21575 0.05369 0.98827 0.0
C1425 C 0.23364 0.06899 0.99024 0.0
C1426 C 0.24886 0.06697 0.9831 0.0
C1427 C 0.24616 0.04965 0.97493 0.0
C1428 C 0.236 0.08674 1.00076 0.0
C1429 C 0.22949 0.08698 0.02762 0.0
C1430 C 0.24355 0.10293 0.98426 0.0
C1431 C 0.25064 0.1035 0.95575 0.0
C1432 C 0.26904 0.11653 0.94908 0.0
C1433 C 0.27584 0.11709 0.92224 0.0
C1434 C 0.26431 0.10474 0.90185 0.0
C1435 C 0.24594 0.09187 0.90823 0.0
C1436 C 0.23907 0.09127 0.93503 0.0
C1437 C 0.24287 0.16642 0.03493 0.0
C1438 C 0.22473 0.16228 0.0414 0.0
C1439 C 0.24659 0.15225 0.02821 0.0
C1440 C 0.23227 0.13372 0.02805 0.0
C1441 C 0.2142 0.12963 0.03435 0.0
C1442 C 0.21049 0.14368 0.04109 0.0
C1443 C 0.23577 0.11846 0.02067 0.0
C1444 C 0.24344 0.11866 0.9945 0.0
C1445 C 0.22944 0.10267 0.03792 0.0
C1446 C 0.22262 0.1022 0.06669 0.0
C1447 C 0.20529 0.08761 0.07519 0.0
C1448 C 0.1988 0.08732 0.10216 0.0
C1449 C 0.20954 0.10151 0.12089 0.0
C1450 C 0.22681 0.116 0.11271 0.0
C1451 C 0.23338 0.11635 0.08578 0.0
H1452 H 0.20448 0.10127 0.14175 0.0
H1453 H 0.2696 0.10518 0.8811 0.0
H1454 H 0.95333 0.20943 0.9713 0.0
H1455 H 0.9224 0.18311 0.98091 0.0
H1456 H 0.94444 0.14615 0.97757 0.0
H1457 H 0.97511 0.17217 0.96778 0.0
H1458 H 0.91176 0.13152 0.9512 0.0
H1459 H 0.9375 0.16208 0.03961 0.0
H1460 H 0.9504 0.18856 0.07202 0.0
H1461 H 0.9009 0.19193 0.06482 0.0
H1462 H 0.88781 0.16559 0.03206 0.0
H1463 H 0.85999 0.05408 0.0334 0.0
H1464 H 0.88372 0.08413 0.01652 0.0
H1465 H 0.84501 0.104 0.01916 0.0
H1466 H 0.82083 0.07365 0.03608 0.0
H1467 H 0.88134 0.12934 0.04114 0.0
H1468 H 0.85376 0.09474 0.95862 0.0
H1469 H 0.84119 0.06757 0.92764 0.0
H1470 H 0.89439 0.07142 0.92431 0.0
H1471 H 0.90723 0.09845 0.95564 0.0
C1472 C 0.95149 0.19565 0.97232 0.0
C1473 C 0.96666 0.19287 0.96894 0.0
C1474 C 0.93385 0.18065 0.97793 0.0
C1475 C 0.93114 0.16268 0.98023 0.0
C1476 C 0.94618 0.15988 0.97588 0.0
C1477 C 0.96374 0.17479 0.97037 0.0
C1478 C 0.91294 0.1467 0.98817 0.0
C1479 C 0.90511 0.13106 0.97085 0.0
C1480 C 0.90394 0.14626 0.01344 0.0
C1481 C 0.91179 0.16205 0.03313 0.0
C1482 C 0.92944 0.16857 0.04477 0.0
C1483 C 0.93677 0.18353 0.06323 0.0
C1484 C 0.92651 0.19196 0.0704 0.0
C1485 C 0.90886 0.18541 0.05919 0.0
C1486 C 0.90147 0.17047 0.04068 0.0
C1487 C 0.85641 0.06478 0.03061 0.0
C1488 C 0.83839 0.06134 0.03603 0.0
C1489 C 0.87004 0.08197 0.02083 0.0
C1490 C 0.86605 0.09619 0.01625 0.0
C1491 C 0.84831 0.09314 0.02246 0.0
C1492 C 0.83453 0.0758 0.03209 0.0
C1493 C 0.8806 0.11404 0.00458 0.0
C1494 C 0.88773 0.12998 0.02117 0.0
C1495 C 0.88903 0.11476 0.97867 0.0
C1496 C 0.88143 0.09858 0.95962 0.0
C1497 C 0.86275 0.08972 0.95145 0.0
C1498 C 0.85558 0.07435 0.9338 0.0
C1499 C 0.86698 0.06776 0.92404 0.0
C1500 C 0.88558 0.07654 0.93188 0.0
C1501 C 0.89282 0.09191 0.94956 0.0
H1502 H 0.8614 0.05585 0.91038 0.0
H1503 H 0.9322 0.20354 0.0847 0.0
H1504 H 0.79104 0.74364 0.9636 0.0
H1505 H 0.81738 0.73884 0.9721 0.0
H1506 H 0.85392 0.79793 0.97543 0.0
H1507 H 0.82795 0.80277 0.96664 0.0
H1508 H 0.86944 0.78185 0.94688 0.0
H1509 H 0.83639 0.77122 0.03488 0.0
H1510 H 0.80909 0.75513 0.06545 0.0
H1511 H 0.80749 0.70363 0.0507 0.0
H1512 H 0.83467 0.71941 0.01977 0.0
H1513 H 0.94509 0.80613 0.03156 0.0
H1514 H 0.91505 0.7993 0.01401 0.0
H1515 H 0.89746 0.74121 0.01089 0.0
H1516 H 0.92782 0.74789 0.02858 0.0
H1517 H 0.87038 0.74947 0.03311 0.0
H1518 H 0.90775 0.7623 0.95202 0.0
H1519 H 0.93577 0.77946 0.92323 0.0
H1520 H 0.92964 0.82751 0.92569 0.0
H1521 H 0.90173 0.81075 0.95486 0.0
C1522 C 0.80475 0.75557 0.96583 0.0
C1523 C 0.80743 0.77358 0.96459 0.0
C1524 C 0.81975 0.75281 0.97082 0.0
C1525 C 0.8376 0.76803 0.97468 0.0
C1526 C 0.8403 0.78597 0.97249 0.0
C1527 C 0.8254 0.78872 0.96754 0.0
C1528 C 0.85358 0.76566 0.98205 0.0
C1529 C 0.86962 0.77474 0.96571 0.0
C1530 C 0.85367 0.75588 0.00615 0.0
C1531 C 0.83739 0.74644 0.02475 0.0
C1532 C 0.83012 0.75644 0.038 0.0
C1533 C 0.81469 0.74739 0.05541 0.0
C1534 C 0.80652 0.72836 0.05994 0.0
C1535 C 0.81381 0.71836 0.04712 0.0
C1536 C 0.82922 0.72735 0.02966 0.0
C1537 C 0.9349 0.79184 0.02733 0.0
C1538 C 0.939 0.77758 0.03135 0.0
C1539 C 0.91771 0.78799 0.01719 0.0
C1540 C 0.90415 0.7698 0.01075 0.0
C1541 C 0.90781 0.75536 0.01561 0.0
C1542 C 0.92516 0.75922 0.0257 0.0
C1543 C 0.88638 0.76631 0.99852 0.0
C1544 C 0.87004 0.75614 0.01389 0.0
C1545 C 0.886 0.77516 0.97357 0.0
C1546 C 0.90268 0.78527 0.95574 0.0
C1547 C 0.91244 0.77656 0.94656 0.0
C1548 C 0.92829 0.78622 0.93016 0.0
C1549 C 0.93449 0.80457 0.92266 0.0
C1550 C 0.92481 0.81329 0.9315 0.0
C1551 C 0.90896 0.80371 0.94794 0.0
H1552 H 0.94677 0.81202 0.90997 0.0
H1553 H 0.79458 0.72137 0.07343 0.0
H1554 H 0.1799 0.25401 0.4774 0.0
H1555 H 0.15493 0.25997 0.49023 0.0
H1556 H 0.11458 0.20386 0.46842 0.0
H1557 H 0.13921 0.19789 0.45517 0.0
H1558 H 0.10405 0.22712 0.44988 0.0
H1559 H 0.12814 0.21742 0.53656 0.0
H1560 H 0.1526 0.22448 0.57126 0.0
H1561 H 0.1611 0.27931 0.58112 0.0
H1562 H 0.13683 0.27263 0.54618 0.0
H1563 H 0.02353 0.19786 0.52571 0.0
H1564 H 0.05399 0.20336 0.51221 0.0
H1565 H 0.0772 0.26175 0.52705 0.0
H1566 H 0.04643 0.25638 0.54044 0.0
H1567 H 0.09923 0.24459 0.54714 0.0
H1568 H 0.07112 0.25177 0.4648 0.0
H1569 H 0.04575 0.24329 0.43125 0.0
H1570 H 0.04433 0.19216 0.41382 0.0
H1571 H 0.06949 0.20019 0.44762 0.0
C1572 C 0.16571 0.243 0.47506 0.0
C1573 C 0.1616 0.22543 0.46534 0.0
C1574 C 0.15146 0.24641 0.48256 0.0
C1575 C 0.13288 0.2323 0.48057 0.0
C1576 C 0.1288 0.21497 0.47013 0.0
C1577 C 0.14295 0.21156 0.46265 0.0
C1578 C 0.1175 0.23512 0.48989 0.0
C1579 C 0.10303 0.23096 0.47114 0.0
C1580 C 0.11637 0.24064 0.51743 0.0
C1581 C 0.13085 0.24461 0.53852 0.0
C1582 C 0.13533 0.23103 0.54598 0.0
C1583 C 0.14914 0.23495 0.56571 0.0
C1584 C 0.15845 0.25236 0.57831 0.0
C1585 C 0.15391 0.26585 0.57129 0.0
C1586 C 0.14013 0.262 0.55153 0.0
C1587 C 0.0351 0.21188 0.52643 0.0
C1588 C 0.03254 0.22672 0.53392 0.0
C1589 C 0.0525 0.21498 0.51866 0.0
C1590 C 0.06776 0.23296 0.51835 0.0
C1591 C 0.06554 0.24777 0.52712 0.0
C1592 C 0.04799 0.24469 0.5347 0.0
C1593 C 0.08564 0.23601 0.50733 0.0
C1594 C 0.10051 0.24122 0.52571 0.0
C1595 C 0.08715 0.23137 0.47948 0.0
C1596 C 0.07213 0.22654 0.45889 0.0
C1597 C 0.06531 0.23865 0.45397 0.0
C1598 C 0.05097 0.23394 0.43488 0.0
C1599 C 0.04341 0.21719 0.42044 0.0
C1600 C 0.0502 0.20513 0.42502 0.0
C1601 C 0.06451 0.20977 0.44412 0.0
H1602 H 0.03231 0.21356 0.40567 0.0
H1603 H 0.16914 0.25538 0.59358 0.0
H1604 H 0.74328 0.79044 0.53583 0.0
H1605 H 0.73873 0.81702 0.52815 0.0
H1606 H 0.79787 0.85325 0.5251 0.0
H1607 H 0.80246 0.82705 0.53293 0.0
H1608 H 0.78173 0.86856 0.55461 0.0
H1609 H 0.77178 0.83683 0.46564 0.0
H1610 H 0.75594 0.80999 0.43418 0.0
H1611 H 0.70434 0.80828 0.44857 0.0
H1612 H 0.71986 0.83499 0.48042 0.0
H1613 H 0.80546 0.94609 0.47334 0.0
H1614 H 0.79939 0.916 0.48977 0.0
H1615 H 0.74088 0.89662 0.49166 0.0
H1616 H 0.74679 0.92692 0.47515 0.0
H1617 H 0.74997 0.87083 0.46849 0.0
H1618 H 0.76188 0.9066 0.55114 0.0
H1619 H 0.77854 0.934 0.58127 0.0
H1620 H 0.82692 0.92842 0.57844 0.0
H1621 H 0.81065 0.90115 0.54791 0.0
C1622 C 0.75527 0.80412 0.53382 0.0
C1623 C 0.77322 0.80665 0.53484 0.0
C1624 C 0.75266 0.81926 0.52933 0.0
C1625 C 0.76797 0.83711 0.5258 0.0
C1626 C 0.78585 0.83964 0.52779 0.0
C1627 C 0.78845 0.8246 0.53218 0.0
C1628 C 0.76577 0.85324 0.51893 0.0
C1629 C 0.77477 0.86905 0.5358 0.0
C1630 C 0.75621 0.85372 0.49482 0.0
C1631 C 0.74692 0.83772 0.47566 0.0
C1632 C 0.75703 0.83062 0.46226 0.0
C1633 C 0.74811 0.81546 0.44434 0.0
C1634 C 0.72913 0.80739 0.43946 0.0
C1635 C 0.71903 0.81451 0.45243 0.0
C1636 C 0.72788 0.82966 0.47041 0.0
C1637 C 0.79126 0.93548 0.47705 0.0
C1638 C 0.77662 0.93903 0.47301 0.0
C1639 C 0.78783 0.91827 0.48658 0.0
C1640 C 0.76972 0.90418 0.49231 0.0
C1641 C 0.75497 0.90737 0.48749 0.0
C1642 C 0.75839 0.9247 0.47807 0.0
C1643 C 0.76654 0.88629 0.50364 0.0
C1644 C 0.75653 0.8702 0.48766 0.0
C1645 C 0.77523 0.88554 0.52854 0.0
C1646 C 0.78506 0.90187 0.54709 0.0
C1647 C 0.77611 0.91128 0.55678 0.0
C1648 C 0.78548 0.92679 0.57396 0.0
C1649 C 0.80378 0.93296 0.58174 0.0
C1650 C 0.81274 0.92362 0.57239 0.0
C1651 C 0.80344 0.90812 0.55518 0.0
H1652 H 0.81102 0.94497 0.59504 0.0
H1653 H 0.72225 0.79565 0.42557 0.0
H1654 H 0.05992 0.86187 0.46785 0.0
H1655 H 0.09123 0.8857 0.479 0.0
H1656 H 0.10792 0.8446 0.48521 0.0
H1657 H 0.07616 0.82026 0.47429 0.0
H1658 H 0.12214 0.87036 0.52821 0.0
H1659 H 0.12146 0.87188 0.42952 0.0
H1660 H 0.1092 0.87183 0.38274 0.0
H1661 H 0.11108 0.92309 0.4009 0.0
H1662 H 0.12309 0.92332 0.44794 0.0
H1663 H 0.21415 0.95455 0.53495 0.0
H1664 H 0.18888 0.92354 0.52204 0.0
H1665 H 0.15191 0.94529 0.51354 0.0
H1666 H 0.17671 0.97589 0.52645 0.0
H1667 H 0.15285 0.92544 0.46675 0.0
H1668 H 0.14866 0.9203 0.56822 0.0
H1669 H 0.16081 0.91997 0.61495 0.0
H1670 H 0.16891 0.87508 0.59035 0.0
H1671 H 0.15707 0.87534 0.5433 0.0
C1672 C 0.07015 0.85775 0.47147 0.0
C1673 C 0.06546 0.83908 0.46994 0.0
C1674 C 0.08813 0.87147 0.47777 0.0
C1675 C 0.102 0.86699 0.4825 0.0
C1676 C 0.09744 0.84837 0.48145 0.0
C1677 C 0.07931 0.83451 0.47508 0.0
C1678 C 0.1211 0.88205 0.48865 0.0
C1679 C 0.12912 0.88222 0.51448 0.0
C1680 C 0.13021 0.89753 0.47075 0.0
C1681 C 0.12313 0.89757 0.44233 0.0
C1682 C 0.11917 0.88309 0.4236 0.0
C1683 C 0.11226 0.88304 0.39703 0.0
C1684 C 0.10935 0.89744 0.38886 0.0
C1685 C 0.11336 0.91195 0.40724 0.0
C1686 C 0.12025 0.91207 0.43386 0.0
C1687 C 0.20056 0.9526 0.53062 0.0
C1688 C 0.19744 0.96768 0.53156 0.0
C1689 C 0.18617 0.93493 0.52326 0.0
C1690 C 0.16858 0.93219 0.51665 0.0
C1691 C 0.16542 0.94714 0.51835 0.0
C1692 C 0.17963 0.96464 0.52583 0.0
C1693 C 0.15338 0.9141 0.5068 0.0
C1694 C 0.14614 0.91337 0.48015 0.0
C1695 C 0.14514 0.89814 0.52387 0.0
C1696 C 0.15224 0.89802 0.55213 0.0
C1697 C 0.15322 0.9105 0.57267 0.0
C1698 C 0.16001 0.91029 0.59924 0.0
C1699 C 0.1657 0.89756 0.60558 0.0
C1700 C 0.16455 0.88497 0.58539 0.0
C1701 C 0.15781 0.88514 0.55877 0.0
H1702 H 0.17094 0.89742 0.62616 0.0
H1703 H 0.10399 0.89737 0.36828 0.0
H1704 H 0.74198 0.95223 0.04199 0.0
H1705 H 0.73628 0.92125 0.02897 0.0
H1706 H 0.79462 0.94388 0.01424 0.0
H1707 H 0.80043 0.97446 0.02744 0.0
H1708 H 0.77059 0.92298 0.96881 0.0
H1709 H 0.7774 0.92019 0.06956 0.0
H1710 H 0.76825 0.92046 0.11835 0.0
H1711 H 0.71445 0.87395 0.10182 0.0
H1712 H 0.7232 0.8736 0.05277 0.0
H1713 H 0.80283 0.86176 0.96152 0.0
H1714 H 0.79508 0.88514 0.97458 0.0
H1715 H 0.73866 0.8428 0.99029 0.0
H1716 H 0.74637 0.81895 0.97742 0.0
H1717 H 0.75256 0.86947 0.0318 0.0
H1718 H 0.74715 0.86864 0.93361 0.0
H1719 H 0.75575 0.86789 0.88466 0.0
H1720 H 0.80515 0.92048 0.89512 0.0
H1721 H 0.79701 0.92144 0.94426 0.0
C1722 C 0.75358 0.95049 0.03631 0.0
C1723 C 0.77164 0.96579 0.03559 0.0
C1724 C 0.7503 0.93284 0.02889 0.0
C1725 C 0.76503 0.93037 0.02047 0.0
C1726 C 0.78306 0.94554 0.0205 0.0
C1727 C 0.78635 0.96301 0.02815 0.0
C1728 C 0.76201 0.91232 0.01031 0.0
C1729 C 0.76661 0.91124 0.98253 0.0
C1730 C 0.75606 0.89679 0.02795 0.0
C1731 C 0.75085 0.89706 0.0574 0.0
C1732 C 0.76354 0.91016 0.07624 0.0
C1733 C 0.75845 0.9103 0.10396 0.0
C1734 C 0.74075 0.89729 0.11315 0.0
C1735 C 0.72813 0.88407 0.09465 0.0
C1736 C 0.73315 0.88389 0.06689 0.0
C1737 C 0.78872 0.85728 0.96763 0.0
C1738 C 0.7752 0.83841 0.96824 0.0
C1739 C 0.78429 0.87074 0.975 0.0
C1740 C 0.76623 0.86575 0.983 0.0
C1741 C 0.75266 0.84694 0.98398 0.0
C1742 C 0.75708 0.83337 0.97649 0.0
C1743 C 0.76203 0.88049 0.99061 0.0
C1744 C 0.75604 0.88097 0.01781 0.0
C1745 C 0.76654 0.89548 0.97235 0.0
C1746 C 0.77148 0.89507 0.9427 0.0
C1747 C 0.75991 0.88 0.92553 0.0
C1748 C 0.76469 0.87954 0.89774 0.0
C1749 C 0.78099 0.89412 0.88679 0.0
C1750 C 0.79252 0.9092 0.90362 0.0
C1751 C 0.78781 0.90972 0.93144 0.0
H1752 H 0.78467 0.89373 0.86527 0.0
H1753 H 0.73683 0.89741 0.13463 0.0
H1754 H 0.14044 0.94411 0.96751 0.0
H1755 H 0.11712 0.91394 0.98456 0.0
H1756 H 0.15792 0.89683 0.98988 0.0
H1757 H 0.18171 0.92733 0.97282 0.0
H1758 H 0.12194 0.86939 0.9667 0.0
H1759 H 0.14744 0.90704 0.04754 0.0
H1760 H 0.15876 0.9353 0.07588 0.0
H1761 H 0.10481 0.92979 0.07382 0.0
H1762 H 0.09323 0.90166 0.04508 0.0
H1763 H 0.04825 0.79076 0.03745 0.0
H1764 H 0.07953 0.81674 0.02845 0.0
H1765 H 0.05788 0.85404 0.02577 0.0
H1766 H 0.02696 0.82845 0.03506 0.0
H1767 H 0.08961 0.86921 0.05364 0.0
H1768 H 0.06612 0.83593 0.96604 0.0
H1769 H 0.0543 0.80846 0.93573 0.0
H1770 H 0.10394 0.80616 0.9495 0.0
H1771 H 0.11594 0.83351 0.98018 0.0
C1772 C 0.14457 0.93398 0.97204 0.0
C1773 C 0.16307 0.93828 0.96896 0.0
C1774 C 0.13117 0.91671 0.98186 0.0
C1775 C 0.13586 0.90328 0.98883 0.0
C1776 C 0.15407 0.90709 0.9847 0.0
C1777 C 0.16762 0.92451 0.97497 0.0
C1778 C 0.1216 0.88561 1.00132 0.0
C1779 C 0.11513 0.86919 0.98607 0.0
C1780 C 0.11266 0.88547 0.02645 0.0
C1781 C 0.1195 0.90227 0.04404 0.0
C1782 C 0.13802 0.91192 0.05298 0.0
C1783 C 0.14448 0.92791 0.06913 0.0
C1784 C 0.13252 0.93435 0.07662 0.0
C1785 C 0.11406 0.92478 0.06801 0.0
C1786 C 0.10753 0.90879 0.05182 0.0
C1787 C 0.05027 0.80456 0.03527 0.0
C1788 C 0.03515 0.80756 0.03683 0.0
C1789 C 0.0681 0.81935 0.03 0.0
C1790 C 0.07102 0.83732 0.02616 0.0
C1791 C 0.056 0.84033 0.02869 0.0
C1792 C 0.03828 0.82564 0.03392 0.0
C1793 C 0.08942 0.85308 0.01847 0.0
C1794 C 0.0967 0.86921 0.03467 0.0
C1795 C 0.099 0.85295 0.99416 0.0
C1796 C 0.09181 0.83659 0.97567 0.0
C1797 C 0.07444 0.82947 0.96277 0.0
C1798 C 0.06772 0.81394 0.9455 0.0
C1799 C 0.07833 0.80553 0.94077 0.0
C1800 C 0.09571 0.81266 0.95324 0.0
C1801 C 0.10248 0.82817 0.97056 0.0
H1802 H 0.07311 0.79351 0.92739 0.0
H1803 H 0.13755 0.94673 0.08912 0.0
H1804 H 0.21031 0.25797 0.04081 0.0
H1805 H 0.18483 0.26322 0.02732 0.0
H1806 H 0.15056 0.20514 0.00914 0.0
H1807 H 0.17553 0.19974 0.02293 0.0
H1808 H 0.15363 0.23038 0.96504 0.0
H1809 H 0.14227 0.21974 0.06496 0.0
H1810 H 0.15069 0.22709 0.11447 0.0
H1811 H 0.15729 0.28105 0.10263 0.0
H1812 H 0.1492 0.27411 0.05288 0.0
H1813 H 0.05977 0.19796 0.95487 0.0
H1814 H 0.09088 0.20529 0.96744 0.0
H1815 H 0.10434 0.2606 0.99029 0.0
H1816 H 0.07283 0.25327 0.97799 0.0
H1817 H 0.11639 0.24527 0.02941 0.0
H1818 H 0.12287 0.25454 0.93194 0.0
H1819 H 0.11471 0.24794 0.88224 0.0
H1820 H 0.11842 0.1986 0.8882 0.0
H1821 H 0.12634 0.20473 0.93805 0.0
C1822 C 0.19726 0.24633 0.03421 0.0
C1823 C 0.19494 0.22846 0.03286 0.0
C1824 C 0.18276 0.24935 0.02652 0.0
C1825 C 0.16589 0.23457 0.01709 0.0
C1826 C 0.16352 0.21674 0.01622 0.0
C1827 C 0.17781 0.21368 0.02422 0.0
C1828 C 0.15067 0.23737 0.00715 0.0
C1829 C 0.14548 0.23365 0.97906 0.0
C1830 C 0.14054 0.24238 0.02526 0.0
C1831 C 0.14543 0.24652 0.05512 0.0
C1832 C 0.14574 0.23325 0.07283 0.0
C1833 C 0.1504 0.23733 0.10095 0.0
C1834 C 0.1546 0.25456 0.11166 0.0
C1835 C 0.15409 0.26773 0.09428 0.0
C1836 C 0.14948 0.26374 0.06613 0.0
C1837 C 0.06929 0.21175 0.96239 0.0
C1838 C 0.06374 0.22503 0.9653 0.0
C1839 C 0.08717 0.21596 0.96945 0.0
C1840 C 0.10005 0.23358 0.97945 0.0
C1841 C 0.09465 0.24694 0.98245 0.0
C1842 C 0.07667 0.24275 0.97527 0.0
C1843 C 0.11886 0.23748 0.98746 0.0
C1844 C 0.12478 0.24247 0.01514 0.0
C1845 C 0.12982 0.23383 0.96888 0.0
C1846 C 0.12513 0.23007 0.93882 0.0
C1847 C 0.12183 0.24221 0.92272 0.0
C1848 C 0.11726 0.23856 0.8945 0.0
C1849 C 0.11603 0.22285 0.88208 0.0
C1850 C 0.11939 0.21077 0.89784 0.0
C1851 C 0.12395 0.21434 0.92608 0.0
H1852 H 0.11248 0.22005 0.86023 0.0
H1853 H 0.15819 0.25768 0.13345 0.0
H1854 H 0.97701 0.80193 0.4765 0.0
H1855 H 0.94634 0.79626 0.48901 0.0
H1856 H 0.92456 0.73747 0.48179 0.0
H1857 H 0.95549 0.74307 0.46903 0.0
H1858 H 0.90128 0.74952 0.45869 0.0
H1859 H 0.93172 0.75442 0.5447 0.0
H1860 H 0.95746 0.76799 0.57838 0.0
H1861 H 0.95485 0.81804 0.58042 0.0
H1862 H 0.92928 0.80489 0.54641 0.0
H1863 H 0.82012 0.74564 0.525 0.0
H1864 H 0.84481 0.73884 0.51326 0.0
H1865 H 0.88502 0.79701 0.51774 0.0
H1866 H 0.86092 0.80388 0.52954 0.0
H1867 H 0.89587 0.77699 0.54737 0.0
H1868 H 0.86947 0.77396 0.45539 0.0
H1869 H 0.84662 0.76178 0.41721 0.0
H1870 H 0.84244 0.70861 0.42532 0.0
H1871 H 0.8651 0.72041 0.46376 0.0
C1872 C 0.96572 0.78777 0.47735 0.0
C1873 C 0.9687 0.77293 0.472 0.0
C1874 C 0.94819 0.78456 0.48462 0.0
C1875 C 0.93327 0.76644 0.48685 0.0
C1876 C 0.93596 0.75155 0.48038 0.0
C1877 C 0.9536 0.75477 0.4731 0.0
C1878 C 0.91508 0.7634 0.4965 0.0
C1879 C 0.89989 0.75511 0.47838 0.0
C1880 C 0.91336 0.77076 0.52214 0.0
C1881 C 0.92861 0.77868 0.54289 0.0
C1882 C 0.9367 0.76836 0.5522 0.0
C1883 C 0.95126 0.77598 0.57137 0.0
C1884 C 0.9578 0.79388 0.58151 0.0
C1885 C 0.94977 0.80418 0.57255 0.0
C1886 C 0.93521 0.79664 0.55336 0.0
C1887 C 0.83423 0.75695 0.52347 0.0
C1888 C 0.83848 0.7753 0.52846 0.0
C1889 C 0.8483 0.75305 0.51661 0.0
C1890 C 0.86678 0.76742 0.51468 0.0
C1891 C 0.8709 0.78567 0.51929 0.0
C1892 C 0.857 0.78956 0.52604 0.0
C1893 C 0.88227 0.76396 0.50889 0.0
C1894 C 0.89701 0.77095 0.52797 0.0
C1895 C 0.88351 0.75541 0.48412 0.0
C1896 C 0.86877 0.748 0.46269 0.0
C1897 C 0.86342 0.75958 0.44938 0.0
C1898 C 0.8506 0.75278 0.42756 0.0
C1899 C 0.84316 0.73446 0.41878 0.0
C1900 C 0.84825 0.7228 0.4321 0.0
C1901 C 0.86105 0.72953 0.45392 0.0
H1902 H 0.8335 0.72928 0.40158 0.0
H1903 H 0.96908 0.79975 0.59634 0.0
H1904 H 0.25744 0.21223 0.47816 0.0
H1905 H 0.26177 0.18619 0.49151 0.0
H1906 H 0.20307 0.14888 0.48335 0.0
H1907 H 0.19867 0.17457 0.47026 0.0
H1908 H 0.21645 0.14557 0.53362 0.0
H1909 H 0.23336 0.14966 0.4357 0.0
H1910 H 0.2522 0.16564 0.39439 0.0
H1911 H 0.30111 0.17404 0.4368 0.0
H1912 H 0.28257 0.15832 0.47853 0.0
H1913 H 0.19567 0.05461 0.53014 0.0
H1914 H 0.2014 0.08532 0.51873 0.0
H1915 H 0.26002 0.10742 0.52955 0.0
H1916 H 0.25444 0.07627 0.5405 0.0
H1917 H 0.25284 0.12227 0.48392 0.0
H1918 H 0.23563 0.11481 0.57953 0.0
H1919 H 0.21708 0.09892 0.62111 0.0
H1920 H 0.16958 0.09772 0.58443 0.0
H1921 H 0.18776 0.11337 0.54246 0.0
C1922 C 0.24553 0.19842 0.47884 0.0
C1923 C 0.2277 0.19546 0.47336 0.0
C1924 C 0.24802 0.18358 0.48646 0.0
C1925 C 0.23271 0.16561 0.48858 0.0
C1926 C 0.21505 0.16263 0.48207 0.0
C1927 C 0.21257 0.17736 0.47451 0.0
C1928 C 0.23457 0.14987 0.49899 0.0
C1929 C 0.22435 0.14043 0.52268 0.0
C1930 C 0.24552 0.14366 0.48545 0.0
C1931 C 0.25662 0.15303 0.46034 0.0
C1932 C 0.24815 0.15507 0.43631 0.0
C1933 C 0.25877 0.16404 0.4128 0.0
C1934 C 0.27785 0.1709 0.413 0.0
C1935 C 0.28634 0.16875 0.43669 0.0
C1936 C 0.27578 0.15981 0.46027 0.0
C1937 C 0.20983 0.06593 0.53029 0.0
C1938 C 0.22458 0.06292 0.5366 0.0
C1939 C 0.21307 0.08356 0.52378 0.0
C1940 C 0.2311 0.09877 0.52383 0.0
C1941 C 0.24597 0.09589 0.52958 0.0
C1942 C 0.24275 0.0781 0.53594 0.0
C1943 C 0.23402 0.11751 0.51782 0.0
C1944 C 0.2452 0.12758 0.49515 0.0
C1945 C 0.22403 0.12445 0.53241 0.0
C1946 C 0.21306 0.11521 0.55778 0.0
C1947 C 0.2212 0.11107 0.58027 0.0
C1948 C 0.21075 0.10211 0.60391 0.0
C1949 C 0.19216 0.0973 0.6054 0.0
C1950 C 0.18399 0.10147 0.58326 0.0
C1951 C 0.19437 0.11041 0.55955 0.0
H1952 H 0.18409 0.09035 0.62372 0.0
H1953 H 0.28605 0.17785 0.39478 0.0
H1954 H 0.92404 0.1792 0.53653 0.0
H1955 H 0.89323 0.15592 0.51978 0.0
H1956 H 0.91343 0.11837 0.50327 0.0
H1957 H 0.94393 0.14122 0.51996 0.0
H1958 H 0.89259 0.12068 0.45931 0.0
H1959 H 0.88941 0.11317 0.56051 0.0
H1960 H 0.89098 0.12408 0.60877 0.0
H1961 H 0.84828 0.13692 0.59067 0.0
H1962 H 0.84663 0.1263 0.54216 0.0
H1963 H 0.82554 0.02774 0.46357 0.0
H1964 H 0.851 0.05914 0.47033 0.0
H1965 H 0.81218 0.0783 0.48278 0.0
H1966 H 0.78638 0.04659 0.4759 0.0
H1967 H 0.83904 0.09057 0.52374 0.0
H1968 H 0.83748 0.09146 0.4255 0.0
H1969 H 0.83538 0.0799 0.37758 0.0
H1970 H 0.88636 0.07985 0.38896 0.0
H1971 H 0.88862 0.0911 0.43714 0.0
C1972 C 0.92189 0.16597 0.52939 0.0
C1973 C 0.93648 0.16208 0.52978 0.0
C1974 C 0.9043 0.15271 0.5198 0.0
C1975 C 0.90108 0.13544 0.51024 0.0
C1976 C 0.91564 0.13164 0.51041 0.0
C1977 C 0.93307 0.14472 0.52019 0.0
C1978 C 0.88257 0.12092 0.50057 0.0
C1979 C 0.88085 0.1141 0.47333 0.0
C1980 C 0.86707 0.11282 0.51855 0.0
C1981 C 0.86808 0.1192 0.54765 0.0
C1982 C 0.88049 0.11849 0.56676 0.0
C1983 C 0.88136 0.12458 0.59416 0.0
C1984 C 0.86979 0.13125 0.60275 0.0
C1985 C 0.85727 0.1318 0.58397 0.0
C1986 C 0.85636 0.12574 0.55653 0.0
C1987 C 0.82236 0.03863 0.4674 0.0
C1988 C 0.80395 0.0347 0.46921 0.0
C1989 C 0.83695 0.05662 0.47114 0.0
C1990 C 0.8335 0.0711 0.47682 0.0
C1991 C 0.81513 0.06732 0.47829 0.0
C1992 C 0.80044 0.04925 0.47426 0.0
C1993 C 0.84929 0.08982 0.48281 0.0
C1994 C 0.85055 0.09745 0.50936 0.0
C1995 C 0.86435 0.09873 0.46412 0.0
C1996 C 0.86318 0.09208 0.43504 0.0
C1997 C 0.84819 0.08887 0.41787 0.0
C1998 C 0.84697 0.08238 0.39065 0.0
C1999 C 0.86072 0.07914 0.38025 0.0
C2000 C 0.87572 0.08239 0.39705 0.0
C2001 C 0.877 0.08885 0.42431 0.0
H2002 H 0.85977 0.07415 0.35915 0.0
H2003 H 0.87048 0.13595 0.62398 0.0
H2004 H 0.86132 0.47282 0.36194 0.0
H2005 H 0.86739 0.44832 0.34871 0.0
H2006 H 0.92609 0.48674 0.35024 0.0
H2007 H 0.92015 0.51177 0.36325 0.0
H2008 H 0.91536 0.463 0.30436 0.0
H2009 H 0.9079 0.45731 0.40277 0.0
H2010 H 0.89338 0.45595 0.44812 0.0
H2011 H 0.84383 0.40709 0.42213 0.0
H2012 H 0.85794 0.4083 0.37645 0.0
H2013 H 0.9233 0.37938 0.29743 0.0
H2014 H 0.92767 0.4099 0.30989 0.0
H2015 H 0.8685 0.38661 0.3132 0.0
H2016 H 0.86406 0.35638 0.30087 0.0
H2017 H 0.88624 0.40558 0.36103 0.0
H2018 H 0.89294 0.41403 0.26057 0.0
H2019 H 0.90769 0.41543 0.21539 0.0
H2020 H 0.95954 0.45911 0.24623 0.0
H2021 H 0.94514 0.45776 0.29177 0.0
C2022 C 0.87558 0.47621 0.35956 0.0
C2023 C 0.89025 0.49433 0.36396 0.0
C2024 C 0.87901 0.4621 0.35201 0.0
C2025 C 0.89719 0.46562 0.3489 0.0
C2026 C 0.91195 0.48372 0.35267 0.0
C2027 C 0.90852 0.49797 0.36024 0.0
C2028 C 0.90037 0.45009 0.34205 0.0
C2029 C 0.90937 0.45057 0.31704 0.0
C2030 C 0.89249 0.43386 0.35853 0.0
C2031 C 0.88397 0.43296 0.38611 0.0
C2032 C 0.89387 0.44634 0.40665 0.0
C2033 C 0.88571 0.44559 0.43243 0.0
C2034 C 0.86769 0.43146 0.43799 0.0
C2035 C 0.85779 0.41803 0.4178 0.0
C2036 C 0.86588 0.41872 0.39197 0.0
C2037 C 0.91126 0.38089 0.30041 0.0
C2038 C 0.89334 0.36547 0.29838 0.0
C2039 C 0.91378 0.3983 0.30752 0.0
C2040 C 0.89839 0.40046 0.31265 0.0
C2041 C 0.88055 0.38521 0.30955 0.0
C2042 C 0.87805 0.36793 0.30242 0.0
C2043 C 0.90051 0.41819 0.3228 0.0
C2044 C 0.89256 0.41812 0.3486 0.0
C2045 C 0.90944 0.43475 0.3071 0.0
C2046 C 0.91803 0.43563 0.27968 0.0
C2047 C 0.90753 0.42382 0.2578 0.0
C2048 C 0.91581 0.42462 0.23211 0.0
C2049 C 0.93456 0.43731 0.22797 0.0
C2050 C 0.94503 0.44926 0.24949 0.0
C2051 C 0.93682 0.44848 0.27523 0.0
H2052 H 0.94095 0.4379 0.20808 0.0
H2053 H 0.86139 0.43091 0.45796 0.0
H2054 H 0.62281 0.54247 0.29831 0.0
H2055 H 0.59214 0.51566 0.30741 0.0
H2056 H 0.61587 0.48011 0.3076 0.0
H2057 H 0.64633 0.50666 0.29827 0.0
H2058 H 0.58345 0.46432 0.28008 0.0
H2059 H 0.60728 0.49611 0.36825 0.0
H2060 H 0.61918 0.52296 0.39985 0.0
H2061 H 0.56908 0.52488 0.38935 0.0
H2062 H 0.557 0.49816 0.35738 0.0
H2063 H 0.53077 0.38718 0.36235 0.0
H2064 H 0.5545 0.41711 0.34515 0.0
H2065 H 0.51556 0.43675 0.34588 0.0
H2066 H 0.4914 0.40653 0.36323 0.0
H2067 H 0.55113 0.46239 0.36795 0.0
H2068 H 0.52545 0.42691 0.28559 0.0
H2069 H 0.51379 0.39952 0.2552 0.0
H2070 H 0.56742 0.40425 0.25515 0.0
H2071 H 0.57935 0.43151 0.28589 0.0
C2072 C 0.62141 0.52889 0.29999 0.0
C2073 C 0.63699 0.52667 0.29773 0.0
C2074 C 0.60391 0.51361 0.30531 0.0
C2075 C 0.60174 0.4959 0.30849 0.0
C2076 C 0.61719 0.49363 0.30523 0.0
C2077 C 0.63463 0.50884 0.29998 0.0
C2078 C 0.58365 0.4797 0.31623 0.0
C2079 C 0.57639 0.4639 0.2993 0.0
C2080 C 0.57411 0.47932 0.34088 0.0
C2081 C 0.58134 0.49531 0.36016 0.0
C2082 C 0.59887 0.50236 0.37251 0.0
C2083 C 0.60564 0.51753 0.39051 0.0
C2084 C 0.59492 0.52566 0.39653 0.0
C2085 C 0.57739 0.51859 0.38462 0.0
C2086 C 0.57057 0.50344 0.36656 0.0
C2087 C 0.52713 0.39779 0.35903 0.0
C2088 C 0.50907 0.39433 0.36411 0.0
C2089 C 0.54076 0.41492 0.34906 0.0
C2090 C 0.53672 0.42905 0.34387 0.0
C2091 C 0.51891 0.42596 0.34964 0.0
C2092 C 0.50514 0.40869 0.35953 0.0
C2093 C 0.55133 0.44688 0.33223 0.0
C2094 C 0.55793 0.46296 0.3484 0.0
C2095 C 0.56032 0.44753 0.30689 0.0
C2096 C 0.55327 0.43121 0.28819 0.0
C2097 C 0.53473 0.42204 0.27926 0.0
C2098 C 0.52808 0.40654 0.26194 0.0
C2099 C 0.53985 0.40013 0.25328 0.0
C2100 C 0.55832 0.40923 0.26187 0.0
C2101 C 0.56504 0.42472 0.27921 0.0
H2102 H 0.53467 0.38813 0.23988 0.0
H2103 H 0.60018 0.5374 0.41048 0.0
H2104 H 0.45831 0.07602 0.30192 0.0
H2105 H 0.48452 0.07108 0.31068 0.0
H2106 H 0.52199 0.12993 0.30596 0.0
H2107 H 0.49606 0.13492 0.29718 0.0
H2108 H 0.53587 0.11083 0.27938 0.0
H2109 H 0.50664 0.10841 0.36828 0.0
H2110 H 0.48053 0.09579 0.40137 0.0
H2111 H 0.47623 0.04243 0.39641 0.0
H2112 H 0.50219 0.05471 0.36299 0.0
H2113 H 0.61394 0.13825 0.36075 0.0
H2114 H 0.58386 0.1315 0.34335 0.0
H2115 H 0.56387 0.07302 0.35012 0.0
H2116 H 0.59425 0.07962 0.36759 0.0
H2117 H 0.53883 0.08457 0.37081 0.0
H2118 H 0.57241 0.08927 0.28829 0.0
H2119 H 0.5992 0.10283 0.25651 0.0
H2120 H 0.59568 0.15225 0.24975 0.0
H2121 H 0.56904 0.13912 0.28186 0.0
C2122 C 0.47217 0.08785 0.30238 0.0
C2123 C 0.47514 0.10586 0.29903 0.0
C2124 C 0.48711 0.08502 0.3075 0.0
C2125 C 0.50519 0.10016 0.30923 0.0
C2126 C 0.50817 0.11804 0.30471 0.0
C2127 C 0.49331 0.12088 0.29978 0.0
C2128 C 0.52109 0.09779 0.31709 0.0
C2129 C 0.5365 0.10505 0.29934 0.0
C2130 C 0.52173 0.08976 0.34278 0.0
C2131 C 0.50617 0.0824 0.36288 0.0
C2132 C 0.50002 0.09395 0.37407 0.0
C2133 C 0.48527 0.08687 0.39291 0.0
C2134 C 0.47668 0.0683 0.40091 0.0
C2135 C 0.48287 0.05679 0.39014 0.0
C2136 C 0.4976 0.06381 0.37126 0.0
C2137 C 0.60321 0.12391 0.35874 0.0
C2138 C 0.60661 0.10948 0.36555 0.0
C2139 C 0.586 0.12009 0.34864 0.0
C2140 C 0.57173 0.10177 0.34512 0.0
C2141 C 0.57477 0.08726 0.35258 0.0
C2142 C 0.59213 0.09107 0.36253 0.0
C2143 C 0.55378 0.09819 0.33349 0.0
C2144 C 0.53802 0.08986 0.35052 0.0
C2145 C 0.55281 0.10528 0.30714 0.0
C2146 C 0.56876 0.11323 0.28763 0.0
C2147 C 0.57742 0.10309 0.28019 0.0
C2148 C 0.59257 0.11069 0.26209 0.0
C2149 C 0.59915 0.1284 0.25114 0.0
C2150 C 0.59056 0.13853 0.25824 0.0
C2151 C 0.57542 0.131 0.27637 0.0
H2152 H 0.61088 0.13427 0.23713 0.0
H2153 H 0.46527 0.06284 0.4155 0.0
H2154 H 0.8082 0.53525 0.78832 0.0
H2155 H 0.78463 0.54297 0.80054 0.0
H2156 H 0.82676 0.59692 0.8284 0.0
H2157 H 0.85073 0.58921 0.81626 0.0
H2158 H 0.79769 0.57972 0.866 0.0
H2159 H 0.80455 0.59468 0.77017 0.0
H2160 H 0.80805 0.59093 0.71996 0.0
H2161 H 0.75447 0.542 0.71833 0.0
H2162 H 0.75074 0.54527 0.76863 0.0
H2163 H 0.71587 0.59167 0.87651 0.0
H2164 H 0.74719 0.59792 0.86461 0.0
H2165 H 0.7246 0.54118 0.83893 0.0
H2166 H 0.69364 0.53477 0.85112 0.0
H2167 H 0.7483 0.56925 0.79858 0.0
H2168 H 0.74511 0.55224 0.89671 0.0
H2169 H 0.74202 0.55644 0.94691 0.0
H2170 H 0.78954 0.61098 0.94333 0.0
H2171 H 0.79271 0.60721 0.89295 0.0
C2172 C 0.81256 0.54883 0.79688 0.0
C2173 C 0.83139 0.56162 0.80125 0.0
C2174 C 0.79903 0.55326 0.80374 0.0
C2175 C 0.80393 0.5706 0.81508 0.0
C2176 C 0.8227 0.5835 0.81951 0.0
C2177 C 0.83636 0.57911 0.81242 0.0
C2178 C 0.7891 0.57459 0.82299 0.0
C2179 C 0.78713 0.57794 0.85113 0.0
C2180 C 0.77531 0.57225 0.8036 0.0
C2181 C 0.7774 0.5702 0.77326 0.0
C2182 C 0.79356 0.58305 0.75916 0.0
C2183 C 0.79558 0.58101 0.73067 0.0
C2184 C 0.7815 0.56623 0.71597 0.0
C2185 C 0.76536 0.55345 0.72974 0.0
C2186 C 0.76327 0.55541 0.75824 0.0
C2187 C 0.71767 0.58052 0.86861 0.0
C2188 C 0.7023 0.56275 0.86466 0.0
C2189 C 0.73552 0.58411 0.86182 0.0
C2190 C 0.73812 0.57002 0.85073 0.0
C2191 C 0.72284 0.55225 0.84731 0.0
C2192 C 0.70515 0.54861 0.85441 0.0
C2193 C 0.75655 0.57353 0.84167 0.0
C2194 C 0.75915 0.57159 0.81326 0.0
C2195 C 0.77092 0.57732 0.86076 0.0
C2196 C 0.76897 0.57956 0.89099 0.0
C2197 C 0.75476 0.56522 0.90655 0.0
C2198 C 0.75303 0.5675 0.93505 0.0
C2199 C 0.76553 0.584 0.94828 0.0
C2200 C 0.77983 0.59823 0.93304 0.0
C2201 C 0.7816 0.59603 0.90451 0.0
H2202 H 0.76417 0.58573 0.97036 0.0
H2203 H 0.78309 0.56468 0.69391 0.0
H2204 H 0.40757 0.12424 0.86888 0.0
H2205 H 0.40161 0.15001 0.86239 0.0
H2206 H 0.46024 0.18867 0.86648 0.0
H2207 H 0.46623 0.16321 0.87293 0.0
H2208 H 0.44031 0.20095 0.89559 0.0
H2209 H 0.43842 0.17391 0.80435 0.0
H2210 H 0.42583 0.14839 0.77023 0.0
H2211 H 0.37213 0.14308 0.77776 0.0
H2212 H 0.38438 0.16845 0.81221 0.0
H2213 H 0.46981 0.27991 0.81671 0.0
H2214 H 0.46191 0.24955 0.83426 0.0
H2215 H 0.40387 0.23117 0.82517 0.0
H2216 H 0.41165 0.26185 0.80746 0.0
H2217 H 0.41458 0.2057 0.80469 0.0
H2218 H 0.41929 0.23844 0.88776 0.0
H2219 H 0.43298 0.26488 0.92019 0.0
H2220 H 0.48147 0.25982 0.92819 0.0
H2221 H 0.46829 0.23362 0.89532 0.0
C2222 C 0.41913 0.13827 0.86872 0.0
C2223 C 0.43737 0.14172 0.87123 0.0
C2224 C 0.41572 0.15295 0.86494 0.0
C2225 C 0.4305 0.17125 0.86378 0.0
C2226 C 0.44862 0.17468 0.86738 0.0
C2227 C 0.45203 0.16008 0.87094 0.0
C2228 C 0.42758 0.18698 0.85726 0.0
C2229 C 0.4346 0.20198 0.87579 0.0
C2230 C 0.41956 0.18806 0.83182 0.0
C2231 C 0.41224 0.17288 0.8111 0.0
C2232 C 0.42389 0.16719 0.79889 0.0
C2233 C 0.41683 0.15278 0.77947 0.0
C2234 C 0.39818 0.14407 0.77191 0.0
C2235 C 0.38656 0.1498 0.78369 0.0
C2236 C 0.39356 0.1642 0.80316 0.0
C2237 C 0.45533 0.2695 0.81831 0.0
C2238 C 0.44137 0.27341 0.81065 0.0
C2239 C 0.45084 0.25213 0.82851 0.0
C2240 C 0.43231 0.2382 0.83135 0.0
C2241 C 0.41826 0.2418 0.82324 0.0
C2242 C 0.42275 0.25932 0.81315 0.0
C2243 C 0.42806 0.21994 0.84253 0.0
C2244 C 0.41972 0.20449 0.8249 0.0
C2245 C 0.43488 0.21843 0.86883 0.0
C2246 C 0.4428 0.23406 0.88895 0.0
C2247 C 0.43292 0.24302 0.89628 0.0
C2248 C 0.44059 0.25797 0.91476 0.0
C2249 C 0.45806 0.26401 0.92625 0.0
C2250 C 0.46792 0.25511 0.91929 0.0
C2251 C 0.46035 0.2402 0.90075 0.0
H2252 H 0.46397 0.27558 0.94056 0.0
H2253 H 0.39273 0.13292 0.75686 0.0
H2254 H 0.73848 0.15199 0.81766 0.0
H2255 H 0.76988 0.17651 0.82975 0.0
H2256 H 0.75941 0.2169 0.79062 0.0
H2257 H 0.72828 0.19268 0.77848 0.0
H2258 H 0.79366 0.22345 0.77846 0.0
H2259 H 0.75499 0.21034 0.85934 0.0
H2260 H 0.73417 0.19136 0.8972 0.0
H2261 H 0.77595 0.18023 0.92796 0.0
H2262 H 0.79685 0.1988 0.88986 0.0
H2263 H 0.84295 0.30877 0.84627 0.0
H2264 H 0.81841 0.27798 0.83302 0.0
H2265 H 0.85143 0.25464 0.86109 0.0
H2266 H 0.8765 0.28575 0.87397 0.0
H2267 H 0.81012 0.23616 0.87861 0.0
H2268 H 0.85057 0.25504 0.79923 0.0
H2269 H 0.87041 0.27701 0.76306 0.0
H2270 H 0.82391 0.27982 0.73078 0.0
H2271 H 0.80385 0.25809 0.76705 0.0
C2272 C 0.74298 0.16606 0.8113 0.0
C2273 C 0.73083 0.1704 0.79726 0.0
C2274 C 0.76089 0.18005 0.81833 0.0
C2275 C 0.76693 0.19855 0.81125 0.0
C2276 C 0.75507 0.20273 0.79626 0.0
C2277 C 0.73721 0.18886 0.78947 0.0
C2278 C 0.78518 0.21387 0.8205 0.0
C2279 C 0.7973 0.22614 0.80035 0.0
C2280 C 0.79008 0.21728 0.84905 0.0
C2281 C 0.77736 0.2057 0.8715 0.0
C2282 C 0.75963 0.20361 0.87393 0.0
C2283 C 0.74782 0.19295 0.89547 0.0
C2284 C 0.75368 0.18451 0.9149 0.0
C2285 C 0.77136 0.18668 0.91281 0.0
C2286 C 0.78319 0.19724 0.89123 0.0
C2287 C 0.84503 0.29712 0.84981 0.0
C2288 C 0.86168 0.29968 0.86109 0.0
C2289 C 0.83099 0.27954 0.84215 0.0
C2290 C 0.83321 0.26412 0.8459 0.0
C2291 C 0.84955 0.26644 0.85798 0.0
C2292 C 0.86381 0.28417 0.86528 0.0
C2293 C 0.81832 0.24577 0.83659 0.0
C2294 C 0.80677 0.23305 0.8567 0.0
C2295 C 0.81377 0.24208 0.80804 0.0
C2296 C 0.82573 0.25502 0.78599 0.0
C2297 C 0.8446 0.26045 0.78456 0.0
C2298 C 0.85588 0.27285 0.76401 0.0
C2299 C 0.84843 0.27983 0.74466 0.0
C2300 C 0.82967 0.2744 0.74578 0.0
C2301 C 0.81833 0.26202 0.76631 0.0
H2302 H 0.85718 0.28943 0.72877 0.0
H2303 H 0.74455 0.17639 0.93166 0.0
H2304 H 0.4722 0.19187 0.31796 0.0
H2305 H 0.46449 0.21449 0.33545 0.0
H2306 H 0.40658 0.17638 0.32118 0.0
H2307 H 0.41415 0.1533 0.3036 0.0
H2308 H 0.41945 0.21356 0.30194 0.0
H2309 H 0.41903 0.18235 0.3844 0.0
H2310 H 0.43018 0.16778 0.41802 0.0
H2311 H 0.47923 0.2201 0.43227 0.0
H2312 H 0.46858 0.23493 0.39832 0.0
H2313 H 0.4112 0.28679 0.36747 0.0
H2314 H 0.40503 0.25508 0.35993 0.0
H2315 H 0.46323 0.27405 0.36897 0.0
H2316 H 0.46944 0.30553 0.37635 0.0
H2317 H 0.4414 0.24083 0.39579 0.0
H2318 H 0.44467 0.26934 0.30545 0.0
H2319 H 0.43442 0.28401 0.27055 0.0
H2320 H 0.37988 0.23637 0.2713 0.0
H2321 H 0.38978 0.22152 0.30651 0.0
C2322 C 0.45779 0.18819 0.31839 0.0
C2323 C 0.4438 0.17071 0.30932 0.0
C2324 C 0.45341 0.20115 0.32856 0.0
C2325 C 0.43496 0.19703 0.32988 0.0
C2326 C 0.4209 0.17977 0.32041 0.0
C2327 C 0.42527 0.16662 0.31041 0.0
C2328 C 0.43082 0.21113 0.34095 0.0
C2329 C 0.42374 0.21921 0.32274 0.0
C2330 C 0.43656 0.21855 0.36802 0.0
C2331 C 0.44301 0.20975 0.38869 0.0
C2332 C 0.43225 0.19074 0.39455 0.0
C2333 C 0.43848 0.18242 0.41369 0.0
C2334 C 0.45539 0.193 0.42727 0.0
C2335 C 0.46612 0.21192 0.42175 0.0
C2336 C 0.45998 0.2203 0.40257 0.0
C2337 C 0.42261 0.2841 0.36821 0.0
C2338 C 0.44082 0.29864 0.37231 0.0
C2339 C 0.41908 0.26602 0.36384 0.0
C2340 C 0.4337 0.26225 0.36372 0.0
C2341 C 0.45174 0.27664 0.36903 0.0
C2342 C 0.45528 0.29465 0.37312 0.0
C2343 C 0.43073 0.24369 0.3564 0.0
C2344 C 0.43653 0.23481 0.37533 0.0
C2345 C 0.4238 0.23553 0.33002 0.0
C2346 C 0.41789 0.24444 0.30886 0.0
C2347 C 0.43045 0.26207 0.29834 0.0
C2348 C 0.42472 0.2704 0.27848 0.0
C2349 C 0.40649 0.26116 0.26879 0.0
C2350 C 0.39398 0.24353 0.27888 0.0
C2351 C 0.39964 0.23515 0.29879 0.0
H2352 H 0.40207 0.26763 0.2534 0.0
H2353 H 0.46018 0.18655 0.44209 0.0
H2354 H 0.80852 0.27654 0.31498 0.0
H2355 H 0.78597 0.24624 0.33261 0.0
H2356 H 0.82398 0.2264 0.3178 0.0
H2357 H 0.84701 0.25705 0.30005 0.0
H2358 H 0.78666 0.20202 0.29915 0.0
H2359 H 0.81824 0.23295 0.38169 0.0
H2360 H 0.83287 0.25875 0.41514 0.0
H2361 H 0.78069 0.25592 0.42879 0.0
H2362 H 0.76578 0.23029 0.39508 0.0
H2363 H 0.71454 0.1206 0.36648 0.0
H2364 H 0.74599 0.14633 0.35779 0.0
H2365 H 0.72655 0.18512 0.36776 0.0
H2366 H 0.69533 0.15966 0.37633 0.0
H2367 H 0.76004 0.197 0.39343 0.0
H2368 H 0.73078 0.17122 0.30398 0.0
H2369 H 0.71586 0.14621 0.26928 0.0
H2370 H 0.76377 0.13977 0.26844 0.0
H2371 H 0.77887 0.16461 0.30345 0.0
C2372 C 0.8122 0.26581 0.31531 0.0
C2373 C 0.82965 0.2693 0.30607 0.0
C2374 C 0.79927 0.24848 0.32557 0.0
C2375 C 0.80339 0.23416 0.32683 0.0
C2376 C 0.8206 0.23734 0.31713 0.0
C2377 C 0.83372 0.25485 0.30703 0.0
C2378 C 0.78934 0.21596 0.3381 0.0
C2379 C 0.78115 0.20072 0.32004 0.0
C2380 C 0.78206 0.21438 0.36525 0.0
C2381 C 0.79091 0.22973 0.38573 0.0
C2382 C 0.8099 0.23791 0.39167 0.0
C2383 C 0.81824 0.25249 0.41071 0.0
C2384 C 0.80772 0.25898 0.42407 0.0
C2385 C 0.78882 0.25087 0.41844 0.0
C2386 C 0.78041 0.23629 0.3994 0.0
C2387 C 0.71707 0.13464 0.36718 0.0
C2388 C 0.70248 0.13813 0.37191 0.0
C2389 C 0.735 0.1493 0.36213 0.0
C2390 C 0.73856 0.16762 0.36194 0.0
C2391 C 0.72412 0.1711 0.36785 0.0
C2392 C 0.70626 0.15651 0.37263 0.0
C2393 C 0.75695 0.1833 0.35414 0.0
C2394 C 0.76591 0.19808 0.37287 0.0
C2395 C 0.7649 0.18446 0.32761 0.0
C2396 C 0.75584 0.16957 0.30659 0.0
C2397 C 0.73806 0.16435 0.29658 0.0
C2398 C 0.72959 0.15024 0.27682 0.0
C2399 C 0.73883 0.14136 0.26674 0.0
C2400 C 0.7566 0.14662 0.27633 0.0
C2401 C 0.76513 0.16071 0.29612 0.0
H2402 H 0.73225 0.13043 0.25143 0.0
H2403 H 0.81421 0.27028 0.4388 0.0
H2404 H 0.84163 0.53538 0.37812 0.0
H2405 H 0.81672 0.54167 0.36739 0.0
H2406 H 0.85681 0.59869 0.35037 0.0
H2407 H 0.88195 0.59251 0.36149 0.0
H2408 H 0.80595 0.56669 0.38744 0.0
H2409 H 0.8399 0.60874 0.28941 0.0
H2410 H 0.86459 0.61433 0.25585 0.0
H2411 H 0.855 0.55942 0.26979 0.0
H2412 H 0.83011 0.55345 0.30311 0.0
H2413 H 0.73972 0.58623 0.32303 0.0
H2414 H 0.77053 0.59321 0.33899 0.0
H2415 H 0.76613 0.54803 0.28959 0.0
H2416 H 0.73541 0.54084 0.27396 0.0
H2417 H 0.80176 0.58021 0.28776 0.0
H2418 H 0.75438 0.53993 0.35444 0.0
H2419 H 0.72884 0.53243 0.38728 0.0
H2420 H 0.76412 0.58091 0.43529 0.0
H2421 H 0.7898 0.58882 0.40247 0.0
C2422 C 0.84516 0.54934 0.37257 0.0
C2423 C 0.86372 0.56343 0.37045 0.0
C2424 C 0.8309 0.55293 0.36658 0.0
C2425 C 0.83492 0.57061 0.35794 0.0
C2426 C 0.85344 0.58495 0.35695 0.0
C2427 C 0.86775 0.5814 0.36335 0.0
C2428 C 0.81971 0.57332 0.3476 0.0
C2429 C 0.80519 0.56998 0.36577 0.0
C2430 C 0.81864 0.57748 0.31929 0.0
C2431 C 0.83334 0.58076 0.29898 0.0
C2432 C 0.84305 0.59787 0.28524 0.0
C2433 C 0.85707 0.60109 0.26627 0.0
C2434 C 0.86142 0.58726 0.26078 0.0
C2435 C 0.85168 0.57014 0.27415 0.0
C2436 C 0.83763 0.56684 0.29309 0.0
C2437 C 0.7455 0.57802 0.3152 0.0
C2438 C 0.73512 0.5629 0.2974 0.0
C2439 C 0.76305 0.58199 0.32438 0.0
C2440 C 0.77055 0.57108 0.31552 0.0
C2441 C 0.76061 0.55664 0.2966 0.0
C2442 C 0.74301 0.55249 0.28781 0.0
C2443 C 0.78796 0.57345 0.32755 0.0
C2444 C 0.80283 0.5776 0.30966 0.0
C2445 C 0.78929 0.56991 0.35606 0.0
C2446 C 0.77391 0.56508 0.37584 0.0
C2447 C 0.75663 0.54907 0.37188 0.0
C2448 C 0.74214 0.54473 0.3905 0.0
C2449 C 0.74483 0.55622 0.41331 0.0
C2450 C 0.76204 0.57205 0.41758 0.0
C2451 C 0.77656 0.57646 0.39898 0.0
H2452 H 0.7336 0.55284 0.42771 0.0
H2453 H 0.87229 0.5898 0.24612 0.0
H2454 H 0.61943 0.07704 0.80864 0.0
H2455 H 0.5892 0.07358 0.82058 0.0
H2456 H 0.6129 0.13278 0.81621 0.0
H2457 H 0.64287 0.13631 0.80458 0.0
H2458 H 0.5945 0.11856 0.86475 0.0
H2459 H 0.58417 0.10439 0.76586 0.0
H2460 H 0.58173 0.08647 0.72361 0.0
H2461 H 0.53872 0.03718 0.76197 0.0
H2462 H 0.54108 0.05477 0.80462 0.0
H2463 H 0.52647 0.14232 0.85889 0.0
H2464 H 0.55096 0.13584 0.84735 0.0
H2465 H 0.51315 0.07737 0.85703 0.0
H2466 H 0.48814 0.08372 0.86827 0.0
H2467 H 0.536 0.08504 0.81117 0.0
H2468 H 0.5437 0.09983 0.90783 0.0
H2469 H 0.54585 0.11765 0.95005 0.0
H2470 H 0.59379 0.16519 0.91676 0.0
H2471 H 0.59178 0.14775 0.87416 0.0
C2472 C 0.61808 0.08926 0.80989 0.0
C2473 C 0.63354 0.10695 0.80587 0.0
C2474 C 0.60082 0.08727 0.81668 0.0
C2475 C 0.59883 0.10294 0.8194 0.0
C2476 C 0.61414 0.12051 0.81443 0.0
C2477 C 0.63128 0.1225 0.80771 0.0
C2478 C 0.58124 0.10151 0.82889 0.0
C2479 C 0.58173 0.11129 0.85296 0.0
C2480 C 0.56438 0.09137 0.81418 0.0
C2481 C 0.56297 0.08084 0.78855 0.0
C2482 C 0.57432 0.08969 0.76538 0.0
C2483 C 0.57292 0.07961 0.74135 0.0
C2484 C 0.56013 0.06069 0.74014 0.0
C2485 C 0.54865 0.05182 0.76295 0.0
C2486 C 0.55001 0.06184 0.78706 0.0
C2487 C 0.52323 0.12803 0.85866 0.0
C2488 C 0.50531 0.11355 0.86489 0.0
C2489 C 0.53732 0.12436 0.85207 0.0
C2490 C 0.53399 0.10615 0.85185 0.0
C2491 C 0.51604 0.09155 0.85727 0.0
C2492 C 0.5018 0.09521 0.8638 0.0
C2493 C 0.54957 0.10279 0.84632 0.0
C2494 C 0.54868 0.09204 0.82322 0.0
C2495 C 0.56613 0.11197 0.86198 0.0
C2496 C 0.56753 0.12249 0.88773 0.0
C2497 C 0.55464 0.11412 0.90944 0.0
C2498 C 0.55584 0.12415 0.93345 0.0
C2499 C 0.56994 0.14254 0.93607 0.0
C2500 C 0.58288 0.15094 0.91471 0.0
C2501 C 0.58174 0.14097 0.89064 0.0
H2502 H 0.57084 0.15029 0.95467 0.0
H2503 H 0.55906 0.0529 0.72151 0.0
H2504 H 0.92549 0.54438 0.80186 0.0
H2505 H 0.93003 0.51843 0.81502 0.0
H2506 H 0.87106 0.48333 0.82442 0.0
H2507 H 0.86644 0.5089 0.81135 0.0
H2508 H 0.89099 0.48294 0.87049 0.0
H2509 H 0.89257 0.47875 0.76929 0.0
H2510 H 0.90528 0.49087 0.72264 0.0
H2511 H 0.9581 0.4988 0.74793 0.0
H2512 H 0.94575 0.48695 0.79488 0.0
H2513 H 0.86259 0.38988 0.87065 0.0
H2514 H 0.86955 0.42106 0.85967 0.0
H2515 H 0.92753 0.43861 0.8528 0.0
H2516 H 0.92065 0.40701 0.86345 0.0
H2517 H 0.9158 0.4522 0.81002 0.0
H2518 H 0.913 0.45183 0.90875 0.0
H2519 H 0.90055 0.43974 0.9555 0.0
H2520 H 0.8511 0.4412 0.93605 0.0
H2521 H 0.86313 0.45304 0.88903 0.0
C2522 C 0.91352 0.53105 0.80643 0.0
C2523 C 0.89562 0.52869 0.80572 0.0
C2524 C 0.91613 0.51628 0.81393 0.0
C2525 C 0.90088 0.49901 0.82085 0.0
C2526 C 0.88303 0.49658 0.81937 0.0
C2527 C 0.88041 0.51121 0.81179 0.0
C2528 C 0.90317 0.48345 0.83072 0.0
C2529 C 0.89639 0.47619 0.85727 0.0
C2530 C 0.91095 0.47516 0.81392 0.0
C2531 C 0.91831 0.4822 0.78569 0.0
C2532 C 0.90694 0.48324 0.76498 0.0
C2533 C 0.91407 0.49003 0.73847 0.0
C2534 C 0.93251 0.49567 0.73236 0.0
C2535 C 0.94384 0.49447 0.75272 0.0
C2536 C 0.93678 0.48772 0.77927 0.0
C2537 C 0.87688 0.40029 0.86696 0.0
C2538 C 0.89107 0.39587 0.86812 0.0
C2539 C 0.88084 0.41819 0.86077 0.0
C2540 C 0.89909 0.43225 0.85584 0.0
C2541 C 0.91336 0.42798 0.85671 0.0
C2542 C 0.9094 0.40994 0.86292 0.0
C2543 C 0.90282 0.4512 0.84933 0.0
C2544 C 0.91079 0.45916 0.82353 0.0
C2545 C 0.89624 0.46027 0.86691 0.0
C2546 C 0.88896 0.45327 0.89529 0.0
C2547 C 0.89943 0.44947 0.91437 0.0
C2548 C 0.89245 0.44267 0.94094 0.0
C2549 C 0.87504 0.43969 0.94873 0.0
C2550 C 0.86459 0.44353 0.92999 0.0
C2551 C 0.8715 0.45032 0.90339 0.0
H2552 H 0.86966 0.43442 0.96931 0.0
H2553 H 0.938 0.50092 0.71182 0.0
H2554 H 0.5939 0.51357 0.86613 0.0
H2555 H 0.5632 0.49001 0.84954 0.0
H2556 H 0.58354 0.45231 0.83561 0.0
H2557 H 0.61399 0.47548 0.85211 0.0
H2558 H 0.56318 0.45389 0.79087 0.0
H2559 H 0.55864 0.44783 0.89206 0.0
H2560 H 0.55978 0.45936 0.93978 0.0
H2561 H 0.51768 0.47251 0.91873 0.0
H2562 H 0.51648 0.46127 0.87074 0.0
H2563 H 0.49377 0.36159 0.79558 0.0
H2564 H 0.51989 0.3926 0.80273 0.0
H2565 H 0.48256 0.41396 0.81082 0.0
H2566 H 0.45611 0.38268 0.80351 0.0
H2567 H 0.50858 0.42551 0.85351 0.0
H2568 H 0.50878 0.42586 0.75508 0.0
H2569 H 0.50701 0.41364 0.70772 0.0
H2570 H 0.55662 0.41151 0.72257 0.0
H2571 H 0.55854 0.42344 0.77021 0.0
C2572 C 0.59181 0.50024 0.85962 0.0
C2573 C 0.60644 0.49643 0.8606 0.0
C2574 C 0.57427 0.48682 0.85013 0.0
C2575 C 0.57113 0.46944 0.8413 0.0
C2576 C 0.5857 0.46567 0.84217 0.0
C2577 C 0.6031 0.47894 0.85182 0.0
C2578 C 0.55268 0.45485 0.83147 0.0
C2579 C 0.55122 0.44767 0.80453 0.0
C2580 C 0.53692 0.44722 0.84893 0.0
C2581 C 0.53765 0.45396 0.87774 0.0
C2582 C 0.54975 0.45334 0.89754 0.0
C2583 C 0.55038 0.45979 0.92465 0.0
C2584 C 0.53886 0.46673 0.93225 0.0
C2585 C 0.52664 0.46718 0.91279 0.0
C2586 C 0.52597 0.46077 0.88564 0.0
C2587 C 0.49107 0.37289 0.79854 0.0
C2588 C 0.47289 0.36971 0.79899 0.0
C2589 C 0.50604 0.39064 0.80252 0.0
C2590 C 0.50318 0.40562 0.80711 0.0
C2591 C 0.48505 0.40258 0.80721 0.0
C2592 C 0.46999 0.38476 0.80292 0.0
C2593 C 0.51928 0.4241 0.81328 0.0
C2594 C 0.52034 0.43202 0.83952 0.0
C2595 C 0.53467 0.43248 0.7951 0.0
C2596 C 0.53375 0.42549 0.76631 0.0
C2597 C 0.51925 0.42268 0.74833 0.0
C2598 C 0.51823 0.41581 0.72141 0.0
C2599 C 0.53168 0.41178 0.71215 0.0
C2600 C 0.54621 0.41465 0.72977 0.0
C2601 C 0.54729 0.4215 0.75673 0.0
H2602 H 0.53086 0.40645 0.69131 0.0
H2603 H 0.53936 0.4717 0.95325 0.0
H2604 H 0.53147 0.69152 0.64269 0.0
H2605 H 0.53604 0.72232 0.65009 0.0
H2606 H 0.59484 0.74592 0.63847 0.0
H2607 H 0.59035 0.71475 0.63154 0.0
H2608 H 0.58752 0.76122 0.68283 0.0
H2609 H 0.5693 0.75125 0.58812 0.0
H2610 H 0.55079 0.73406 0.54723 0.0
H2611 H 0.50263 0.73177 0.58333 0.0
H2612 H 0.52076 0.74867 0.62467 0.0
H2613 H 0.58539 0.84746 0.69305 0.0
H2614 H 0.59194 0.82363 0.67575 0.0
H2615 H 0.53429 0.78253 0.68447 0.0
H2616 H 0.52762 0.80594 0.70155 0.0
H2617 H 0.54822 0.7811 0.63332 0.0
H2618 H 0.56616 0.78585 0.73146 0.0
H2619 H 0.58491 0.80274 0.77239 0.0
H2620 H 0.63457 0.81565 0.72788 0.0
H2621 H 0.6161 0.799 0.68657 0.0
C2622 C 0.54539 0.70323 0.64149 0.0
C2623 C 0.56055 0.7007 0.63641 0.0
C2624 C 0.54798 0.72088 0.6456 0.0
C2625 C 0.56575 0.73649 0.64438 0.0
C2626 C 0.58099 0.73408 0.63934 0.0
C2627 C 0.5784 0.71629 0.63529 0.0
C2628 C 0.56809 0.75511 0.64933 0.0
C2629 C 0.57928 0.76582 0.67155 0.0
C2630 C 0.55736 0.76114 0.63462 0.0
C2631 C 0.54641 0.7512 0.60957 0.0
C2632 C 0.55474 0.74701 0.58742 0.0
C2633 C 0.54431 0.73731 0.56415 0.0
C2634 C 0.52554 0.73182 0.56269 0.0
C2635 C 0.51717 0.73605 0.58448 0.0
C2636 C 0.52753 0.74572 0.60782 0.0
C2637 C 0.57415 0.83331 0.69152 0.0
C2638 C 0.55595 0.82866 0.69867 0.0
C2639 C 0.57792 0.81973 0.68159 0.0
C2640 C 0.56358 0.80132 0.67873 0.0
C2641 C 0.54554 0.79667 0.68628 0.0
C2642 C 0.54177 0.81012 0.69617 0.0
C2643 C 0.56689 0.78664 0.66764 0.0
C2644 C 0.55681 0.77674 0.64412 0.0
C2645 C 0.57874 0.78147 0.681 0.0
C2646 C 0.58978 0.79139 0.70585 0.0
C2647 C 0.58109 0.79242 0.73034 0.0
C2648 C 0.59166 0.80192 0.75362 0.0
C2649 C 0.61093 0.81032 0.75271 0.0
C2650 C 0.61965 0.80917 0.72854 0.0
C2651 C 0.60914 0.79971 0.7052 0.0
H2652 H 0.61909 0.81766 0.77075 0.0
H2653 H 0.51749 0.7243 0.54467 0.0
H2654 H 0.19388 0.72244 0.7056 0.0
H2655 H 0.21786 0.75365 0.69419 0.0
H2656 H 0.17691 0.77043 0.68603 0.0
H2657 H 0.15244 0.73879 0.69719 0.0
H2658 H 0.20274 0.7841 0.64338 0.0
H2659 H 0.20389 0.78418 0.74217 0.0
H2660 H 0.20379 0.77232 0.78929 0.0
H2661 H 0.25532 0.77451 0.77216 0.0
H2662 H 0.25561 0.78612 0.72479 0.0
H2663 H 0.28471 0.87687 0.6361 0.0
H2664 H 0.25417 0.85075 0.6487 0.0
H2665 H 0.27844 0.81615 0.66004 0.0
H2666 H 0.30866 0.84187 0.6475 0.0
H2667 H 0.25745 0.81575 0.70536 0.0
H2668 H 0.25298 0.81103 0.60406 0.0
H2669 H 0.25276 0.82279 0.55697 0.0
H2670 H 0.20714 0.83013 0.57998 0.0
H2671 H 0.20726 0.81864 0.62736 0.0
C2672 C 0.18983 0.73267 0.70149 0.0
C2673 C 0.17115 0.72804 0.70251 0.0
C2674 C 0.20364 0.7506 0.69504 0.0
C2675 C 0.19923 0.76445 0.68967 0.0
C2676 C 0.18062 0.75995 0.69027 0.0
C2677 C 0.16668 0.74189 0.69677 0.0
C2678 C 0.21432 0.78347 0.68324 0.0
C2679 C 0.21453 0.79127 0.6572 0.0
C2680 C 0.22972 0.7928 0.70124 0.0
C2681 C 0.22972 0.78596 0.72985 0.0
C2682 C 0.21515 0.78203 0.74838 0.0
C2683 C 0.21507 0.77536 0.77515 0.0
C2684 C 0.22953 0.77265 0.7837 0.0
C2685 C 0.24413 0.77663 0.76552 0.0
C2686 C 0.24428 0.78329 0.73871 0.0
C2687 C 0.28343 0.86361 0.64097 0.0
C2688 C 0.29909 0.86144 0.64095 0.0
C2689 C 0.26601 0.84874 0.64816 0.0
C2690 C 0.2641 0.83157 0.65547 0.0
C2691 C 0.27964 0.82932 0.65468 0.0
C2692 C 0.29692 0.84405 0.6474 0.0
C2693 C 0.2462 0.81592 0.66506 0.0
C2694 C 0.24548 0.80881 0.69182 0.0
C2695 C 0.23036 0.80736 0.6478 0.0
C2696 C 0.23029 0.81422 0.61934 0.0
C2697 C 0.24302 0.81532 0.59915 0.0
C2698 C 0.24289 0.8219 0.5724 0.0
C2699 C 0.22999 0.82727 0.56551 0.0
C2700 C 0.21715 0.82601 0.58535 0.0
C2701 C 0.21724 0.81946 0.61215 0.0
H2702 H 0.2299 0.83235 0.54479 0.0
H2703 H 0.22944 0.76748 0.80443 0.0
H2704 H 0.27604 0.46937 0.70907 0.0
H2705 H 0.24504 0.46181 0.69553 0.0
H2706 H 0.23055 0.40517 0.68088 0.0
H2707 H 0.26199 0.4127 0.69426 0.0
H2708 H 0.21808 0.41931 0.63865 0.0
H2709 H 0.21329 0.41389 0.73694 0.0
H2710 H 0.22264 0.42253 0.78588 0.0
H2711 H 0.21988 0.47213 0.77507 0.0
H2712 H 0.21078 0.46395 0.72593 0.0
H2713 H 0.12475 0.40849 0.62838 0.0
H2714 H 0.15024 0.40305 0.64102 0.0
H2715 H 0.18546 0.46137 0.65655 0.0
H2716 H 0.16044 0.46692 0.64377 0.0
H2717 H 0.18267 0.43748 0.7015 0.0
H2718 H 0.19213 0.44423 0.60083 0.0
H2719 H 0.18244 0.43502 0.55214 0.0
H2720 H 0.17533 0.38129 0.56852 0.0
H2721 H 0.18468 0.39008 0.61749 0.0
C2722 C 0.26635 0.45526 0.70308 0.0
C2723 C 0.27155 0.44163 0.70294 0.0
C2724 C 0.24855 0.45094 0.69542 0.0
C2725 C 0.2354 0.43287 0.68757 0.0
C2726 C 0.24047 0.41918 0.68704 0.0
C2727 C 0.2584 0.42349 0.69485 0.0
C2728 C 0.21651 0.42877 0.67983 0.0
C2729 C 0.21007 0.42283 0.65259 0.0
C2730 C 0.20606 0.43335 0.69803 0.0
C2731 C 0.21141 0.43832 0.72768 0.0
C2732 C 0.21478 0.4267 0.74494 0.0
C2733 C 0.22003 0.43151 0.77273 0.0
C2734 C 0.22187 0.44788 0.78357 0.0
C2735 C 0.21844 0.45945 0.76665 0.0
C2736 C 0.2132 0.45472 0.73883 0.0
C2737 C 0.13802 0.42014 0.63413 0.0
C2738 C 0.14056 0.43811 0.63525 0.0
C2739 C 0.15253 0.41702 0.64134 0.0
C2740 C 0.16965 0.43181 0.6499 0.0
C2741 C 0.17231 0.44976 0.65017 0.0
C2742 C 0.15798 0.4529 0.64277 0.0
C2743 C 0.18475 0.42889 0.66002 0.0
C2744 C 0.19041 0.43349 0.6878 0.0
C2745 C 0.19432 0.42292 0.64239 0.0
C2746 C 0.18882 0.41772 0.61293 0.0
C2747 C 0.1883 0.43038 0.59414 0.0
C2748 C 0.18291 0.42525 0.56647 0.0
C2749 C 0.17819 0.40755 0.55727 0.0
C2750 C 0.17893 0.39497 0.5757 0.0
C2751 C 0.18427 0.40002 0.60341 0.0
H2752 H 0.17402 0.40361 0.53584 0.0
H2753 H 0.22594 0.45158 0.80509 0.0
H2754 H 0.36197 0.86997 0.2116 0.0
H2755 H 0.39338 0.87613 0.20424 0.0
H2756 H 0.41252 0.93438 0.19555 0.0
H2757 H 0.38076 0.92823 0.203 0.0
H2758 H 0.425 0.92075 0.15311 0.0
H2759 H 0.42571 0.92092 0.25161 0.0
H2760 H 0.41391 0.91027 0.29911 0.0
H2761 H 0.41318 0.85924 0.28392 0.0
H2762 H 0.4247 0.86943 0.23616 0.0
H2763 H 0.51262 0.92198 0.13769 0.0
H2764 H 0.48994 0.93024 0.15485 0.0
H2765 H 0.45117 0.87266 0.17057 0.0
H2766 H 0.4734 0.8643 0.15356 0.0
H2767 H 0.45447 0.89536 0.21512 0.0
H2768 H 0.44678 0.89309 0.1139 0.0
H2769 H 0.45774 0.90326 0.06589 0.0
H2770 H 0.47173 0.95874 0.08702 0.0
H2771 H 0.46106 0.94891 0.1353 0.0
C2772 C 0.37285 0.88414 0.20848 0.0
C2773 C 0.3689 0.89862 0.20789 0.0
C2774 C 0.39085 0.88766 0.20439 0.0
C2775 C 0.40533 0.90574 0.19961 0.0
C2776 C 0.40154 0.92034 0.19935 0.0
C2777 C 0.38345 0.91682 0.20371 0.0
C2778 C 0.42407 0.90881 0.19334 0.0
C2779 C 0.43176 0.9157 0.16699 0.0
C2780 C 0.43283 0.90214 0.21138 0.0
C2781 C 0.42604 0.89594 0.24022 0.0
C2782 C 0.42294 0.90738 0.25832 0.0
C2783 C 0.4163 0.90142 0.28531 0.0
C2784 C 0.41279 0.88409 0.29452 0.0
C2785 C 0.41593 0.87268 0.27677 0.0
C2786 C 0.42254 0.87855 0.24974 0.0
C2787 C 0.49923 0.91109 0.14472 0.0
C2788 C 0.49485 0.89246 0.14413 0.0
C2789 C 0.48632 0.91584 0.15452 0.0
C2790 C 0.46891 0.90205 0.16406 0.0
C2791 C 0.46457 0.88353 0.16349 0.0
C2792 C 0.47731 0.87878 0.15355 0.0
C2793 C 0.45484 0.90646 0.17447 0.0
C2794 C 0.44805 0.90097 0.20164 0.0
C2795 C 0.44697 0.91446 0.15722 0.0
C2796 C 0.45338 0.92033 0.12826 0.0
C2797 C 0.45236 0.90749 0.10836 0.0
C2798 C 0.45848 0.91318 0.0811 0.0
C2799 C 0.4655 0.93165 0.07344 0.0
C2800 C 0.46635 0.94445 0.09301 0.0
C2801 C 0.46026 0.93883 0.12032 0.0
H2802 H 0.47022 0.93603 0.05231 0.0
H2803 H 0.40764 0.8795 0.31542 0.0
H2804 H 0.13685 0.60768 0.12352 0.0
H2805 H 0.12963 0.57656 0.13572 0.0
H2806 H 0.07394 0.56248 0.15729 0.0
H2807 H 0.08116 0.59402 0.14533 0.0
H2808 H 0.08904 0.5503 0.19663 0.0
H2809 H 0.08069 0.54445 0.09914 0.0
H2810 H 0.08755 0.55294 0.04957 0.0
H2811 H 0.13721 0.54982 0.05604 0.0
H2812 H 0.13082 0.5416 0.10577 0.0
H2813 H 0.07755 0.45698 0.2078 0.0
H2814 H 0.0722 0.48251 0.1951 0.0
H2815 H 0.13006 0.51668 0.17536 0.0
H2816 H 0.13554 0.49161 0.18821 0.0
H2817 H 0.10526 0.51406 0.13231 0.0
H2818 H 0.1143 0.52404 0.23281 0.0
H2819 H 0.10616 0.51524 0.28206 0.0
H2820 H 0.05258 0.50921 0.26846 0.0
H2821 H 0.06028 0.51765 0.21899 0.0
C2822 C 0.123 0.59802 0.13069 0.0
C2823 C 0.10957 0.6034 0.13335 0.0
C2824 C 0.11886 0.58014 0.13754 0.0
C2825 C 0.10117 0.56709 0.14706 0.0
C2826 C 0.08765 0.57231 0.14981 0.0
C2827 C 0.09178 0.5903 0.14283 0.0
C2828 C 0.09736 0.54828 0.15484 0.0
C2829 C 0.09214 0.54213 0.18237 0.0
C2830 C 0.10137 0.53759 0.13625 0.0
C2831 C 0.1053 0.54248 0.10627 0.0
C2832 C 0.09314 0.5457 0.09006 0.0
C2833 C 0.09694 0.55045 0.06191 0.0
C2834 C 0.11281 0.55194 0.04967 0.0
C2835 C 0.12491 0.54865 0.06555 0.0
C2836 C 0.12119 0.54392 0.09371 0.0
C2837 C 0.08913 0.47003 0.20107 0.0
C2838 C 0.10694 0.47226 0.19888 0.0
C2839 C 0.08605 0.48456 0.19382 0.0
C2840 C 0.10073 0.50142 0.18414 0.0
C2841 C 0.11854 0.50374 0.18263 0.0
C2842 C 0.12164 0.48939 0.19008 0.0
C2843 C 0.09781 0.5166 0.17435 0.0
C2844 C 0.10172 0.52201 0.14634 0.0
C2845 C 0.09236 0.52641 0.19241 0.0
C2846 C 0.08776 0.52119 0.22209 0.0
C2847 C 0.1007 0.52061 0.24022 0.0
C2848 C 0.09618 0.51573 0.2682 0.0
C2849 C 0.07884 0.5116 0.27834 0.0
C2850 C 0.06599 0.51235 0.26055 0.0
C2851 C 0.07042 0.51717 0.23254 0.0
H2852 H 0.07537 0.50789 0.30001 0.0
H2853 H 0.11573 0.55562 0.02788 0.0
H2854 H 0.50973 0.63989 0.20633 0.0
H2855 H 0.48457 0.60837 0.19962 0.0
H2856 H 0.52389 0.58956 0.19025 0.0
H2857 H 0.54944 0.62144 0.19707 0.0
H2858 H 0.49671 0.57632 0.14865 0.0
H2859 H 0.49882 0.57737 0.24718 0.0
H2860 H 0.50117 0.59026 0.29421 0.0
H2861 H 0.45001 0.58976 0.28161 0.0
H2862 H 0.4475 0.57719 0.2343 0.0
H2863 H 0.41122 0.48778 0.1382 0.0
H2864 H 0.44232 0.51115 0.15378 0.0
H2865 H 0.42253 0.54895 0.17096 0.0
H2866 H 0.39175 0.52602 0.15555 0.0
H2867 H 0.44359 0.54718 0.21399 0.0
H2868 H 0.44611 0.55321 0.11259 0.0
H2869 H 0.44424 0.54168 0.06468 0.0
H2870 H 0.48704 0.52905 0.0832 0.0
H2871 H 0.48899 0.54031 0.13137 0.0
C2872 C 0.5131 0.62908 0.20312 0.0
C2873 C 0.53157 0.63314 0.20227 0.0
C2874 C 0.49867 0.61102 0.19939 0.0
C2875 C 0.50235 0.59659 0.19472 0.0
C2876 C 0.52078 0.60051 0.19397 0.0
C2877 C 0.53532 0.61867 0.19797 0.0
C2878 C 0.48668 0.57769 0.18945 0.0
C2879 C 0.4853 0.56963 0.16323 0.0
C2880 C 0.47176 0.56907 0.20842 0.0
C2881 C 0.47301 0.57637 0.23709 0.0
C2882 C 0.48811 0.5801 0.25436 0.0
C2883 C 0.48947 0.58735 0.28108 0.0
C2884 C 0.47575 0.59083 0.29089 0.0
C2885 C 0.46062 0.58704 0.274 0.0
C2886 C 0.45921 0.57982 0.24723 0.0
C2887 C 0.41353 0.50109 0.14525 0.0
C2888 C 0.39896 0.505 0.14549 0.0
C2889 C 0.43129 0.5144 0.15415 0.0
C2890 C 0.4347 0.53176 0.16358 0.0
C2891 C 0.42018 0.53561 0.16394 0.0
C2892 C 0.40257 0.52246 0.1549 0.0
C2893 C 0.45334 0.5463 0.17277 0.0
C2894 C 0.45525 0.55352 0.19977 0.0
C2895 C 0.46872 0.55412 0.15455 0.0
C2896 C 0.46751 0.54734 0.12566 0.0
C2897 C 0.45499 0.54781 0.10652 0.0
C2898 C 0.45394 0.54136 0.0793 0.0
C2899 C 0.46546 0.53457 0.07093 0.0
C2900 C 0.47809 0.53427 0.08973 0.0
C2901 C 0.47917 0.54068 0.11699 0.0
H2902 H 0.46463 0.5296 0.04984 0.0
H2903 H 0.47684 0.59646 0.31158 0.0
H2904 H 0.07527 0.61784 0.70513 0.0
H2905 H 0.06995 0.58699 0.69235 0.0
H2906 H 0.12873 0.60956 0.68282 0.0
H2907 H 0.13414 0.64007 0.69565 0.0
H2908 H 0.10754 0.58954 0.63613 0.0
H2909 H 0.10786 0.58422 0.73751 0.0
H2910 H 0.09589 0.58375 0.78468 0.0
H2911 H 0.04267 0.53881 0.76099 0.0
H2912 H 0.05428 0.53919 0.71352 0.0
H2913 H 0.13745 0.52649 0.63455 0.0
H2914 H 0.12989 0.55012 0.64664 0.0
H2915 H 0.07225 0.5087 0.65403 0.0
H2916 H 0.07975 0.48455 0.64214 0.0
H2917 H 0.0842 0.53439 0.69725 0.0
H2918 H 0.08505 0.53602 0.59861 0.0
H2919 H 0.09657 0.53609 0.55127 0.0
H2920 H 0.14605 0.58751 0.56835 0.0
H2921 H 0.13497 0.58763 0.61596 0.0
C2922 C 0.08703 0.61611 0.70067 0.0
C2923 C 0.10511 0.63139 0.70122 0.0
C2924 C 0.08397 0.59852 0.69337 0.0
C2925 C 0.09895 0.59607 0.68645 0.0
C2926 C 0.11698 0.6112 0.68788 0.0
C2927 C 0.12004 0.62864 0.69531 0.0
C2928 C 0.09622 0.57809 0.67638 0.0
C2929 C 0.10243 0.57747 0.64946 0.0
C2930 C 0.08878 0.56212 0.69337 0.0
C2931 C 0.08186 0.56191 0.72188 0.0
C2932 C 0.09356 0.57437 0.74227 0.0
C2933 C 0.08685 0.57409 0.76908 0.0
C2934 C 0.06851 0.5613 0.7758 0.0
C2935 C 0.05686 0.54873 0.75574 0.0
C2936 C 0.0635 0.54897 0.72889 0.0
C2937 C 0.12311 0.52225 0.63864 0.0
C2938 C 0.1092 0.50355 0.63714 0.0
C2939 C 0.11881 0.53586 0.64548 0.0
C2940 C 0.10048 0.53123 0.65079 0.0
C2941 C 0.08649 0.51258 0.64981 0.0
C2942 C 0.09079 0.49883 0.6429 0.0
C2943 C 0.0964 0.54619 0.65746 0.0
C2944 C 0.08887 0.54627 0.68361 0.0
C2945 C 0.10247 0.56168 0.63966 0.0
C2946 C 0.10918 0.56179 0.61093 0.0
C2947 C 0.09844 0.5473 0.59234 0.0
C2948 C 0.10488 0.54731 0.56544 0.0
C2949 C 0.12203 0.56179 0.55681 0.0
C2950 C 0.13276 0.57631 0.57506 0.0
C2951 C 0.12639 0.57636 0.60199 0.0
H2952 H 0.127 0.56177 0.53598 0.0
H2953 H 0.06335 0.5611 0.79657 0.0
H2954 H 0.35902 0.49218 0.69175 0.0
H2955 H 0.38967 0.51707 0.67882 0.0
H2956 H 0.41327 0.48335 0.70189 0.0
H2957 H 0.38228 0.45795 0.71457 0.0
H2958 H 0.43294 0.52465 0.72033 0.0
H2959 H 0.41094 0.48472 0.64025 0.0
H2960 H 0.38753 0.46526 0.60539 0.0
H2961 H 0.38395 0.51221 0.57733 0.0
H2962 H 0.40713 0.53189 0.61233 0.0
H2963 H 0.51517 0.59591 0.65218 0.0
H2964 H 0.49102 0.56487 0.66663 0.0
H2965 H 0.44924 0.5757 0.63382 0.0
H2966 H 0.47306 0.60643 0.61935 0.0
H2967 H 0.44214 0.5416 0.62007 0.0
H2968 H 0.46052 0.58063 0.70136 0.0
H2969 H 0.48156 0.60075 0.73813 0.0
H2970 H 0.48971 0.55657 0.7664 0.0
H2971 H 0.46932 0.53639 0.72902 0.0
C2972 C 0.3707 0.49003 0.69437 0.0
C2973 C 0.36822 0.47304 0.70403 0.0
C2974 C 0.38821 0.50428 0.68693 0.0
C2975 C 0.40365 0.50196 0.68923 0.0
C2976 C 0.40145 0.48534 0.69998 0.0
C2977 C 0.38379 0.47088 0.70714 0.0
C2978 C 0.42176 0.51681 0.67898 0.0
C2979 C 0.43528 0.52814 0.69835 0.0
C2980 C 0.42448 0.52148 0.65038 0.0
C2981 C 0.4107 0.50975 0.62904 0.0
C2982 C 0.40506 0.49087 0.62679 0.0
C2983 C 0.39185 0.4798 0.60698 0.0
C2984 C 0.38424 0.48749 0.58918 0.0
C2985 C 0.38986 0.50627 0.59112 0.0
C2986 C 0.40305 0.51739 0.61092 0.0
C2987 C 0.50084 0.59156 0.64774 0.0
C2988 C 0.49604 0.60369 0.63469 0.0
C2989 C 0.48707 0.57387 0.65615 0.0
C2990 C 0.46832 0.56802 0.65146 0.0
C2991 C 0.46361 0.5799 0.63764 0.0
C2992 C 0.47727 0.59753 0.62947 0.0
C2993 C 0.45331 0.54981 0.66147 0.0
C2994 C 0.44023 0.53788 0.64199 0.0
C2995 C 0.45095 0.54476 0.69004 0.0
C2996 C 0.46368 0.5571 0.71198 0.0
C2997 C 0.46709 0.5753 0.71503 0.0
C2998 C 0.4789 0.58673 0.73601 0.0
C2999 C 0.48712 0.58 0.75442 0.0
C3000 C 0.4835 0.56183 0.75193 0.0
C3001 C 0.47188 0.55041 0.73077 0.0
H3002 H 0.49619 0.58883 0.77074 0.0
H3003 H 0.374 0.4789 0.57387 0.0
H3004 H 0.40892 0.92029 0.62307 0.0
H3005 H 0.44032 0.9275 0.6364 0.0
H3006 H 0.41729 0.87739 0.68504 0.0
H3007 H 0.38617 0.86994 0.67142 0.0
H3008 H 0.44749 0.90947 0.71174 0.0
H3009 H 0.42992 0.87485 0.62377 0.0
H3010 H 0.42021 0.87055 0.57447 0.0
H3011 H 0.46838 0.9222 0.55341 0.0
H3012 H 0.47822 0.9269 0.60271 0.0
H3013 H 0.50816 0.86791 0.68448 0.0
H3014 H 0.48333 0.87417 0.67351 0.0
H3015 H 0.51615 0.92977 0.70482 0.0
H3016 H 0.54148 0.92367 0.71552 0.0
H3017 H 0.48477 0.90224 0.63747 0.0
H3018 H 0.48111 0.93705 0.73744 0.0
H3019 H 0.49002 0.93968 0.78703 0.0
H3020 H 0.48351 0.88532 0.78442 0.0
H3021 H 0.47432 0.8823 0.73497 0.0
C3022 C 0.41061 0.91095 0.63681 0.0
C3023 C 0.39513 0.89445 0.64595 0.0
C3024 C 0.4285 0.91509 0.64443 0.0
C3025 C 0.43106 0.90298 0.66176 0.0
C3026 C 0.41559 0.88696 0.6718 0.0
C3027 C 0.39783 0.88264 0.66378 0.0
C3028 C 0.44972 0.90586 0.66771 0.0
C3029 C 0.45585 0.90827 0.69546 0.0
C3030 C 0.46055 0.9042 0.64649 0.0
C3031 C 0.45466 0.90134 0.61692 0.0
C3032 C 0.43834 0.88536 0.60865 0.0
C3033 C 0.43283 0.88283 0.58072 0.0
C3034 C 0.44364 0.89613 0.56084 0.0
C3035 C 0.46 0.91194 0.56885 0.0
C3036 C 0.46555 0.91454 0.59677 0.0
C3037 C 0.51016 0.88149 0.68912 0.0
C3038 C 0.52678 0.89531 0.70088 0.0
C3039 C 0.49598 0.88507 0.68265 0.0
C3040 C 0.49797 0.90244 0.68819 0.0
C3041 C 0.51442 0.91628 0.70032 0.0
C3042 C 0.52881 0.91277 0.70647 0.0
C3043 C 0.48243 0.90558 0.68156 0.0
C3044 C 0.47683 0.90419 0.65365 0.0
C3045 C 0.47207 0.90809 0.70266 0.0
C3046 C 0.47729 0.90958 0.73245 0.0
C3047 C 0.48155 0.92567 0.7475 0.0
C3048 C 0.48664 0.92721 0.77557 0.0
C3049 C 0.48741 0.91271 0.78884 0.0
C3050 C 0.483 0.89658 0.77409 0.0
C3051 C 0.47787 0.89496 0.74603 0.0
H3052 H 0.49137 0.91394 0.81056 0.0
H3053 H 0.43936 0.89414 0.53921 0.0
H3054 H 0.16033 0.41572 0.2193 0.0
H3055 H 0.18504 0.40909 0.20673 0.0
H3056 H 0.21001 0.45744 0.15414 0.0
H3057 H 0.18587 0.46441 0.16714 0.0
H3058 H 0.20794 0.4233 0.13075 0.0
H3059 H 0.22708 0.464 0.21296 0.0
H3060 H 0.22284 0.47117 0.26136 0.0
H3061 H 0.22159 0.42181 0.28992 0.0
H3062 H 0.22557 0.41424 0.24156 0.0
H3063 H 0.31168 0.46802 0.15402 0.0
H3064 H 0.28074 0.4624 0.16433 0.0
H3065 H 0.25754 0.40527 0.14027 0.0
H3066 H 0.2888 0.41078 0.13008 0.0
H3067 H 0.25546 0.43721 0.20339 0.0
H3068 H 0.21304 0.39459 0.11044 0.0
H3069 H 0.21709 0.3878 0.06171 0.0
H3070 H 0.26546 0.44152 0.05418 0.0
H3071 H 0.2615 0.44874 0.10269 0.0
C3072 C 0.17101 0.42479 0.20485 0.0
C3073 C 0.17132 0.44068 0.19441 0.0
C3074 C 0.18504 0.42098 0.19767 0.0
C3075 C 0.19926 0.43276 0.17944 0.0
C3076 C 0.19909 0.44814 0.16809 0.0
C3077 C 0.18538 0.45218 0.17573 0.0
C3078 C 0.21531 0.43027 0.17387 0.0
C3079 C 0.21821 0.42602 0.1467 0.0
C3080 C 0.22866 0.43383 0.19468 0.0
C3081 C 0.22636 0.43844 0.22367 0.0
C3082 C 0.22572 0.4546 0.22954 0.0
C3083 C 0.22341 0.45875 0.25696 0.0
C3084 C 0.22188 0.44692 0.27869 0.0
C3085 C 0.22273 0.43094 0.27306 0.0
C3086 C 0.22501 0.42671 0.24566 0.0
C3087 C 0.30004 0.45425 0.15078 0.0
C3088 C 0.30269 0.43982 0.14127 0.0
C3089 C 0.28236 0.45105 0.15684 0.0
C3090 C 0.26688 0.43342 0.15322 0.0
C3091 C 0.26934 0.41898 0.14321 0.0
C3092 C 0.28717 0.42215 0.13737 0.0
C3093 C 0.24832 0.43054 0.16009 0.0
C3094 C 0.24496 0.43387 0.18758 0.0
C3095 C 0.23456 0.42608 0.13954 0.0
C3096 C 0.23711 0.42208 0.1103 0.0
C3097 C 0.22452 0.40496 0.09835 0.0
C3098 C 0.22679 0.40104 0.07078 0.0
C3099 C 0.24155 0.4142 0.0549 0.0
C3100 C 0.25406 0.43132 0.06654 0.0
C3101 C 0.25183 0.43532 0.09409 0.0
H3102 H 0.24322 0.41111 0.03356 0.0
H3103 H 0.2201 0.45016 0.29991 0.0
H3104 H 0.58815 0.87527 0.13535 0.0
H3105 H 0.59278 0.84942 0.14868 0.0
H3106 H 0.53379 0.81404 0.15729 0.0
H3107 H 0.52908 0.83954 0.14411 0.0
H3108 H 0.55316 0.81366 0.20363 0.0
H3109 H 0.55617 0.80947 0.10277 0.0
H3110 H 0.56925 0.82154 0.05626 0.0
H3111 H 0.62215 0.83051 0.08326 0.0
H3112 H 0.60944 0.81872 0.13007 0.0
H3113 H 0.52844 0.72125 0.20723 0.0
H3114 H 0.5339 0.75181 0.19525 0.0
H3115 H 0.59239 0.77179 0.18813 0.0
H3116 H 0.58701 0.74084 0.1997 0.0
H3117 H 0.58005 0.78398 0.14519 0.0
H3118 H 0.57628 0.78432 0.24386 0.0
H3119 H 0.56364 0.7724 0.29059 0.0
H3120 H 0.51334 0.77163 0.26903 0.0
H3121 H 0.52557 0.78328 0.22201 0.0
C3122 C 0.57619 0.86189 0.13973 0.0
C3123 C 0.55826 0.85946 0.13885 0.0
C3124 C 0.57885 0.84717 0.14734 0.0
C3125 C 0.56362 0.82985 0.15413 0.0
C3126 C 0.54574 0.82732 0.15235 0.0
C3127 C 0.54308 0.84192 0.14471 0.0
C3128 C 0.566 0.81441 0.16437 0.0
C3129 C 0.55898 0.80712 0.19083 0.0
C3130 C 0.57432 0.8064 0.14814 0.0
C3131 C 0.58192 0.81344 0.12001 0.0
C3132 C 0.57064 0.81418 0.09886 0.0
C3133 C 0.57797 0.82093 0.07243 0.0
C3134 C 0.59654 0.82685 0.06684 0.0
C3135 C 0.60779 0.82597 0.08764 0.0
C3136 C 0.60052 0.81924 0.11412 0.0
C3137 C 0.54252 0.73208 0.20331 0.0
C3138 C 0.5573 0.72852 0.20462 0.0
C3139 C 0.54563 0.74963 0.19654 0.0
C3140 C 0.56359 0.76419 0.19122 0.0
C3141 C 0.57842 0.76077 0.19232 0.0
C3142 C 0.57532 0.74309 0.19905 0.0
C3143 C 0.56647 0.78275 0.18401 0.0
C3144 C 0.57455 0.7907 0.15825 0.0
C3145 C 0.55924 0.79151 0.20098 0.0
C3146 C 0.55183 0.7846 0.22933 0.0
C3147 C 0.56248 0.7815 0.24901 0.0
C3148 C 0.55539 0.77481 0.27557 0.0
C3149 C 0.53769 0.77124 0.28276 0.0
C3150 C 0.52706 0.7744 0.26343 0.0
C3151 C 0.53408 0.78108 0.23683 0.0
H3152 H 0.53222 0.76605 0.30333 0.0
H3153 H 0.60219 0.83207 0.04636 0.0
H3154 H 0.16191 0.69234 0.13366 0.0
H3155 H 0.18766 0.72262 0.14604 0.0
H3156 H 0.15012 0.74362 0.15562 0.0
H3157 H 0.12409 0.71315 0.14269 0.0
H3158 H 0.18423 0.76953 0.13119 0.0
H3159 H 0.16294 0.73133 0.21232 0.0
H3160 H 0.1528 0.70285 0.23967 0.0
H3161 H 0.20587 0.70731 0.22798 0.0
H3162 H 0.21624 0.73568 0.20019 0.0
H3163 H 0.26004 0.84625 0.20486 0.0
H3164 H 0.2291 0.82096 0.1924 0.0
H3165 H 0.25119 0.7844 0.18184 0.0
H3166 H 0.28172 0.80915 0.19465 0.0
H3167 H 0.2207 0.76833 0.21204 0.0
H3168 H 0.24051 0.80452 0.12632 0.0
H3169 H 0.25053 0.83285 0.09858 0.0
H3170 H 0.20029 0.83241 0.11934 0.0
H3171 H 0.1901 0.80423 0.14758 0.0
C3172 C 0.1591 0.70342 0.13804 0.0
C3173 C 0.14094 0.70031 0.13754 0.0
C3174 C 0.17385 0.72074 0.14516 0.0
C3175 C 0.17075 0.73527 0.15229 0.0
C3176 C 0.15278 0.73255 0.15032 0.0
C3177 C 0.13794 0.71515 0.14299 0.0
C3178 C 0.18626 0.75272 0.16351 0.0
C3179 C 0.19205 0.76939 0.14917 0.0
C3180 C 0.19642 0.75251 0.18698 0.0
C3181 C 0.19033 0.73559 0.20405 0.0
C3182 C 0.17241 0.72619 0.21545 0.0
C3183 C 0.16663 0.71006 0.23104 0.0
C3184 C 0.17868 0.70326 0.23553 0.0
C3185 C 0.19655 0.7126 0.22449 0.0
C3186 C 0.2024 0.72871 0.20885 0.0
C3187 C 0.25827 0.83281 0.19988 0.0
C3188 C 0.2734 0.82975 0.20096 0.0
C3189 C 0.2406 0.81839 0.19265 0.0
C3190 C 0.23783 0.80077 0.18612 0.0
C3191 C 0.25294 0.79782 0.18696 0.0
C3192 C 0.27046 0.81207 0.19429 0.0
C3193 C 0.21928 0.78502 0.17895 0.0
C3194 C 0.21279 0.76861 0.19429 0.0
C3195 C 0.20855 0.78556 0.15647 0.0
C3196 C 0.21464 0.8024 0.13933 0.0
C3197 C 0.23167 0.81055 0.12515 0.0
C3198 C 0.23737 0.82657 0.10931 0.0
C3199 C 0.22608 0.83445 0.10725 0.0
C3200 C 0.20903 0.8263 0.12096 0.0
C3201 C 0.20329 0.81031 0.1369 0.0
H3202 H 0.23053 0.84687 0.09503 0.0
H3203 H 0.17417 0.69077 0.24759 0.0
H3204 H 0.24668 0.21859 0.1368 0.0
H3205 H 0.25105 0.22381 0.18737 0.0
H3206 H 0.20132 0.22725 0.19214 0.0
H3207 H 0.19651 0.2214 0.14192 0.0
H3208 H 0.23797 0.25591 0.22578 0.0
H3209 H 0.19191 0.19025 0.20806 0.0
H3210 H 0.18252 0.16046 0.18491 0.0
H3211 H 0.22984 0.1601 0.21926 0.0
H3212 H 0.23965 0.19006 0.24226 0.0
H3213 H 0.20864 0.24131 0.36696 0.0
H3214 H 0.21365 0.24441 0.31654 0.0
H3215 H 0.23922 0.21048 0.3208 0.0
H3216 H 0.2327 0.20618 0.37083 0.0
H3217 H 0.21844 0.19887 0.28108 0.0
H3218 H 0.26311 0.26067 0.30464 0.0
H3219 H 0.2759 0.29136 0.32659 0.0
H3220 H 0.23721 0.30111 0.28136 0.0
H3221 H 0.22401 0.27037 0.2594 0.0
C3222 C 0.23688 0.2208 0.14857 0.0
C3223 C 0.22121 0.21952 0.13547 0.0
C3224 C 0.23939 0.22376 0.17741 0.0
C3225 C 0.22652 0.22594 0.1934 0.0
C3226 C 0.21144 0.22569 0.18011 0.0
C3227 C 0.20868 0.22227 0.15147 0.0
C3228 C 0.22768 0.22664 0.22427 0.0
C3229 C 0.23365 0.24349 0.23805 0.0
C3230 C 0.22266 0.21055 0.24007 0.0
C3231 C 0.21662 0.19247 0.22656 0.0
C3232 C 0.2004 0.1839 0.21044 0.0
C3233 C 0.19498 0.16697 0.1974 0.0
C3234 C 0.20561 0.15842 0.20053 0.0
C3235 C 0.22164 0.16676 0.2168 0.0
C3236 C 0.22713 0.1837 0.22985 0.0
C3237 C 0.21566 0.23485 0.35709 0.0
C3238 C 0.22042 0.22362 0.37267 0.0
C3239 C 0.21865 0.2367 0.32823 0.0
C3240 C 0.22709 0.22791 0.31452 0.0
C3241 C 0.2326 0.21737 0.33057 0.0
C3242 C 0.22903 0.21501 0.35922 0.0
C3243 C 0.22869 0.22829 0.28338 0.0
C3244 C 0.22312 0.21152 0.26928 0.0
C3245 C 0.23459 0.24463 0.26738 0.0
C3246 C 0.24247 0.26314 0.28054 0.0
C3247 C 0.25724 0.2693 0.29952 0.0
C3248 C 0.26458 0.28672 0.31194 0.0
C3249 C 0.25734 0.29816 0.30542 0.0
C3250 C 0.24279 0.29223 0.28641 0.0
C3251 C 0.23539 0.27482 0.27394 0.0
H3252 H 0.26305 0.31164 0.31506 0.0
H3253 H 0.2014 0.14532 0.19042 0.0
H3254 H 0.78289 0.97697 0.14353 0.0
H3255 H 0.7773 0.97627 0.19378 0.0
H3256 H 0.77809 0.02815 0.18767 0.0
H3257 H 0.7831 0.02867 0.13706 0.0
H3258 H 0.8048 0.02246 0.22918 0.0
H3259 H 0.74112 1.00003 0.20185 0.0
H3260 H 0.71251 0.97914 0.17633 0.0
H3261 H 0.70977 0.9323 0.21796 0.0
H3262 H 0.73853 0.95291 0.24344 0.0
H3263 H 0.79282 0.02685 0.37289 0.0
H3264 H 0.78943 0.02917 0.32259 0.0
H3265 H 0.76031 0.96958 0.31634 0.0
H3266 H 0.76248 0.96737 0.36705 0.0
H3267 H 0.74673 0.98082 0.27976 0.0
H3268 H 0.8094 0.99922 0.30272 0.0
H3269 H 0.83935 0.017 0.32685 0.0
H3270 H 0.84606 0.06745 0.29234 0.0
H3271 H 0.81604 0.04997 0.2682 0.0
C3272 C 0.78159 0.9881 0.15281 0.0
C3273 C 0.78345 0.0029 0.13638 0.0
C3274 C 0.77837 0.98765 0.18148 0.0
C3275 C 0.77728 0.00215 0.19435 0.0
C3276 C 0.77881 0.0168 0.17802 0.0
C3277 C 0.7816 0.01704 0.14915 0.0
C3278 C 0.77589 0.00248 0.22514 0.0
C3279 C 0.79203 0.01368 0.24034 0.0
C3280 C 0.75942 0.9904 0.2395 0.0
C3281 C 0.74207 0.97801 0.22434 0.0
C3282 C 0.73452 0.98527 0.20536 0.0
C3283 C 0.71825 0.97348 0.19095 0.0
C3284 C 0.70935 0.9544 0.19546 0.0
C3285 C 0.71668 0.94708 0.21446 0.0
C3286 C 0.73295 0.95881 0.22892 0.0
C3287 C 0.78533 0.01429 0.36074 0.0
C3288 C 0.77788 0.99694 0.37365 0.0
C3289 C 0.78357 0.01559 0.33196 0.0
C3290 C 0.77514 0.99957 0.31531 0.0
C3291 C 0.76696 0.98218 0.32852 0.0
C3292 C 0.76819 0.98089 0.35749 0.0
C3293 C 0.77572 0.00091 0.2842 0.0
C3294 C 0.75949 0.98988 0.26882 0.0
C3295 C 0.7923 0.01276 0.26956 0.0
C3296 C 0.8104 0.02331 0.28389 0.0
C3297 C 0.81722 0.01412 0.30041 0.0
C3298 C 0.83421 0.02414 0.31406 0.0
C3299 C 0.84459 0.04334 0.31117 0.0
C3300 C 0.838 0.05257 0.29457 0.0
C3301 C 0.82101 0.04262 0.28088 0.0
H3302 H 0.85775 0.05106 0.32171 0.0
H3303 H 0.69676 0.9453 0.18429 0.0
H3304 H 0.00679 0.76234 0.37458 0.0
H3305 H 0.00263 0.75525 0.32441 0.0
H3306 H 0.00317 0.80644 0.30906 0.0
H3307 H 0.00672 0.81324 0.35856 0.0
H3308 H 0.97592 0.78026 0.2821 0.0
H3309 H 0.04086 0.79898 0.29467 0.0
H3310 H 0.06667 0.79638 0.31476 0.0
H3311 H 0.04312 0.74109 0.2829 0.0
H3312 H 0.01705 0.7433 0.26288 0.0
H3313 H 0.00359 0.81087 0.14727 0.0
H3314 H 0.00403 0.80558 0.19693 0.0
H3315 H 0.98807 0.74867 0.18148 0.0
H3316 H 0.98746 0.75379 0.13098 0.0
H3317 H 0.01835 0.76911 0.22354 0.0
H3318 H 0.95597 0.75361 0.20414 0.0
H3319 H 0.93168 0.75819 0.18281 0.0
H3320 H 0.95175 0.80931 0.22735 0.0
H3321 H 0.97634 0.80518 0.24863 0.0
C3322 C 0.0061 0.77208 0.36041 0.0
C3323 C 0.00694 0.78829 0.37067 0.0
C3324 C 0.00376 0.76804 0.33173 0.0
C3325 C 0.00256 0.7803 0.31281 0.0
C3326 C 0.00383 0.79662 0.32312 0.0
C3327 C 0.00591 0.80052 0.35156 0.0
C3328 C 0.99957 0.77637 0.2823 0.0
C3329 C 0.98525 0.77782 0.26939 0.0
C3330 C 0.01126 0.77252 0.2656 0.0
C3331 C 0.02691 0.77122 0.27761 0.0
C3332 C 0.04112 0.78622 0.29215 0.0
C3333 C 0.0558 0.78483 0.30348 0.0
C3334 C 0.0565 0.76855 0.3002 0.0
C3335 C 0.04254 0.75366 0.28549 0.0
C3336 C 0.02782 0.75498 0.27413 0.0
C3337 C 1.00023 0.79718 0.15415 0.0
C3338 C 0.99537 0.78272 0.13492 0.0
C3339 C 1.00049 0.7942 0.18269 0.0
C3340 C 0.99597 0.77672 0.19292 0.0
C3341 C 0.9916 0.76228 0.17396 0.0
C3342 C 0.99117 0.76522 0.14516 0.0
C3343 C 0.99528 0.77385 0.22358 0.0
C3344 C 0.00881 0.77109 0.23644 0.0
C3345 C 0.98299 0.77669 0.24035 0.0
C3346 C 0.96805 0.77911 0.22789 0.0
C3347 C 0.95527 0.76588 0.20926 0.0
C3348 C 0.94144 0.76839 0.19719 0.0
C3349 C 0.94018 0.78404 0.2037 0.0
C3350 C 0.95274 0.79719 0.22234 0.0
C3351 C 0.9666 0.79475 0.23444 0.0
H3352 H 0.92947 0.78596 0.19432 0.0
H3353 H 0.06788 0.7675 0.30898 0.0
H3354 H 0.75826 0.76095 0.87155 0.0
H3355 H 0.75363 0.7546 0.82109 0.0
H3356 H 0.79844 0.80961 0.80391 0.0
H3357 H 0.80336 0.81588 0.85371 0.0
H3358 H 0.76529 0.79841 0.77172 0.0
H3359 H 0.8073 0.7766 0.8005 0.0
H3360 H 0.8154 0.75669 0.82796 0.0
H3361 H 0.76883 0.7083 0.79365 0.0
H3362 H 0.7603 0.72796 0.76626 0.0
H3363 H 0.80621 0.81166 0.64258 0.0
H3364 H 0.79879 0.80765 0.69186 0.0
H3365 H 0.76138 0.74943 0.67897 0.0
H3366 H 0.76896 0.75326 0.62896 0.0
H3367 H 0.7824 0.75574 0.72606 0.0
H3368 H 0.74368 0.77716 0.69053 0.0
H3369 H 0.73509 0.79659 0.66283 0.0
H3370 H 0.77324 0.84443 0.7097 0.0
H3371 H 0.78229 0.82535 0.73742 0.0
C3372 C 0.76703 0.77168 0.85694 0.0
C3373 C 0.78123 0.78888 0.86662 0.0
C3374 C 0.76441 0.76803 0.82819 0.0
C3375 C 0.77572 0.78165 0.80879 0.0
C3376 C 0.78955 0.79892 0.81849 0.0
C3377 C 0.79239 0.80244 0.84701 0.0
C3378 C 0.7737 0.7782 0.77827 0.0
C3379 C 0.76897 0.78905 0.76169 0.0
C3380 C 0.77786 0.7655 0.76526 0.0
C3381 C 0.78302 0.75373 0.78166 0.0
C3382 C 0.79868 0.76171 0.79903 0.0
C3383 C 0.80337 0.75048 0.81453 0.0
C3384 C 0.79259 0.73124 0.81264 0.0
C3385 C 0.77713 0.7232 0.79516 0.0
C3386 C 0.77237 0.73438 0.77964 0.0
C3387 C 0.79636 0.79794 0.64998 0.0
C3388 C 0.78811 0.7828 0.63155 0.0
C3389 C 0.79207 0.7957 0.6783 0.0
C3390 C 0.77926 0.77831 0.68912 0.0
C3391 C 0.77121 0.76301 0.67105 0.0
C3392 C 0.77554 0.76524 0.64247 0.0
C3393 C 0.77469 0.77652 0.7194 0.0
C3394 C 0.77819 0.76472 0.73596 0.0
C3395 C 0.76919 0.78823 0.73246 0.0
C3396 C 0.76373 0.79981 0.71599 0.0
C3397 C 0.75033 0.79185 0.69483 0.0
C3398 C 0.74537 0.8028 0.67913 0.0
C3399 C 0.75363 0.82174 0.68448 0.0
C3400 C 0.76685 0.82976 0.70559 0.0
C3401 C 0.77188 0.81887 0.72133 0.0
H3402 H 0.74977 0.83019 0.6723 0.0
H3403 H 0.79626 0.72256 0.82464 0.0
H3404 H 0.24658 0.02743 0.63645 0.0
H3405 H 0.2492 0.02521 0.68709 0.0
H3406 H 0.19804 0.97298 0.68738 0.0
H3407 H 0.19502 0.97558 0.63729 0.0
H3408 H 0.19586 0.99265 0.72495 0.0
H3409 H 0.24249 0.97796 0.70072 0.0
H3410 H 0.27084 0.98215 0.67802 0.0
H3411 H 0.3032 0.03309 0.72242 0.0
H3412 H 0.27501 0.02933 0.74512 0.0
H3413 H 0.22563 0.97785 0.87101 0.0
H3414 H 0.23001 0.97839 0.82026 0.0
H3415 H 0.21618 0.02151 0.81261 0.0
H3416 H 0.21149 0.02084 0.86279 0.0
H3417 H 0.25097 0.00371 0.77945 0.0
H3418 H 0.18708 0.01209 0.75928 0.0
H3419 H 0.15762 0.00442 0.78216 0.0
H3420 H 0.15773 0.95952 0.82564 0.0
H3421 H 0.18703 0.96675 0.80273 0.0
C3422 C 0.23608 0.01535 0.64732 0.0
C3423 C 0.22051 0.00177 0.63295 0.0
C3424 C 0.23761 0.01404 0.67629 0.0
C3425 C 0.22382 0.9989 0.69127 0.0
C3426 C 0.20879 0.98489 0.67652 0.0
C3427 C 0.20709 0.98637 0.64781 0.0
C3428 C 0.224 0.99828 0.72241 0.0
C3429 C 0.20795 0.99502 0.7367 0.0
C3430 C 0.23963 0.00112 0.73807 0.0
C3431 C 0.2566 0.00344 0.72443 0.0
C3432 C 0.25563 0.99013 0.70548 0.0
C3433 C 0.27168 0.99242 0.69264 0.0
C3434 C 0.2888 0.0079 0.69872 0.0
C3435 C 0.28992 0.02112 0.71771 0.0
C3436 C 0.27392 0.0189 0.73059 0.0
C3437 C 0.22381 0.98763 0.85853 0.0
C3438 C 0.2179 0.99907 0.87093 0.0
C3439 C 0.22635 0.98795 0.82953 0.0
C3440 C 0.22308 0.99974 0.81254 0.0
C3441 C 0.21843 0.01203 0.82518 0.0
C3442 C 0.21574 0.01161 0.85395 0.0
C3443 C 0.22296 0.99833 0.78157 0.0
C3444 C 0.23895 0.00127 0.76745 0.0
C3445 C 0.20712 0.9947 0.7659 0.0
C3446 C 0.18934 0.99008 0.77948 0.0
C3447 C 0.18077 0.00053 0.77363 0.0
C3448 C 0.16411 0.99627 0.78662 0.0
C3449 C 0.15584 0.98153 0.8054 0.0
C3450 C 0.16418 0.97098 0.81116 0.0
C3451 C 0.18083 0.97516 0.7982 0.0
H3452 H 0.14295 0.97827 0.81546 0.0
H3453 H 0.30121 0.00964 0.68877 0.0
H3454 H 0.98072 0.22975 0.63132 0.0
H3455 H 0.98333 0.23733 0.6812 0.0
H3456 H 0.01118 0.2063 0.69507 0.0
H3457 H 0.00887 0.19888 0.64575 0.0
H3458 H 0.96954 0.21538 0.72632 0.0
H3459 H 0.04296 0.22532 0.74499 0.0
H3460 H 0.07256 0.23767 0.71981 0.0
H3461 H 0.0589 0.27199 0.67021 0.0
H3462 H 0.02935 0.26006 0.69535 0.0
H3463 H 0.98272 0.19049 0.85997 0.0
H3464 H 0.98076 0.19567 0.81051 0.0
H3465 H 0.01965 0.25379 0.82118 0.0
H3466 H 0.0218 0.24868 0.87119 0.0
H3467 H 0.02893 0.23972 0.77738 0.0
H3468 H 0.97508 0.2401 0.80664 0.0
H3469 H 0.9457 0.22951 0.83171 0.0
H3470 H 0.9208 0.17868 0.78545 0.0
H3471 H 0.95012 0.18884 0.76038 0.0
C3472 C 0.98751 0.22465 0.64497 0.0
C3473 C 0.99459 0.2137 0.63436 0.0
C3474 C 0.98896 0.22897 0.6735 0.0
C3475 C 0.99768 0.22261 0.69188 0.0
C3476 C 0.00472 0.2117 0.6813 0.0
C3477 C 0.00325 0.20736 0.65297 0.0
C3478 C 0.99893 0.22658 0.72235 0.0
C3479 C 0.98254 0.22086 0.73746 0.0
C3480 C 0.01595 0.23421 0.73692 0.0
C3481 C 0.03387 0.2417 0.72199 0.0
C3482 C 0.04632 0.23559 0.72884 0.0
C3483 C 0.06308 0.2425 0.71454 0.0
C3484 C 0.06759 0.25558 0.69339 0.0
C3485 C 0.05537 0.26182 0.68654 0.0
C3486 C 0.0386 0.25497 0.7008 0.0
C3487 C 0.99078 0.20445 0.85198 0.0
C3488 C 0.00249 0.21916 0.86965 0.0
C3489 C 0.98953 0.2074 0.82362 0.0
C3490 C 0.99992 0.22514 0.81208 0.0
C3491 C 0.01144 0.23998 0.82964 0.0
C3492 C 0.01261 0.23705 0.85823 0.0
C3493 C 0.99944 0.22768 0.78139 0.0
C3494 C 0.01597 0.23458 0.76623 0.0
C3495 C 0.98259 0.2214 0.76678 0.0
C3496 C 0.96486 0.21522 0.78171 0.0
C3497 C 0.96339 0.22661 0.80193 0.0
C3498 C 0.94673 0.22069 0.81613 0.0
C3499 C 0.9314 0.20343 0.8102 0.0
C3500 C 0.93269 0.19206 0.79002 0.0
C3501 C 0.94932 0.19791 0.77577 0.0
H3502 H 0.91852 0.19887 0.82122 0.0
H3503 H 0.08057 0.26089 0.68232 0.0
H3504 H 0.86413 0.51856 0.48047 0.0
H3505 H 0.86757 0.52528 0.5301 0.0
H3506 H 0.91409 0.57949 0.51377 0.0
H3507 H 0.91104 0.57252 0.46347 0.0
H3508 H 0.91973 0.565 0.56099 0.0
H3509 H 0.87178 0.57461 0.5274 0.0
H3510 H 0.84359 0.56761 0.50125 0.0
H3511 H 0.81179 0.51924 0.55146 0.0
H3512 H 0.83983 0.52578 0.57765 0.0
H3513 H 0.90295 0.58147 0.70645 0.0
H3514 H 0.90831 0.5855 0.65579 0.0
H3515 H 0.86776 0.52809 0.64311 0.0
H3516 H 0.86244 0.52388 0.69295 0.0
H3517 H 0.8622 0.55247 0.60977 0.0
H3518 H 0.9123 0.54179 0.63848 0.0
H3519 H 0.94086 0.54977 0.66436 0.0
H3520 H 0.96893 0.60259 0.6235 0.0
H3521 H 0.94043 0.595 0.59764 0.0
C3522 C 0.87518 0.53191 0.48733 0.0
C3523 C 0.88715 0.54511 0.46795 0.0
C3524 C 0.8771 0.53576 0.51579 0.0
C3525 C 0.89075 0.5531 0.52571 0.0
C3526 C 0.90333 0.56608 0.5066 0.0
C3527 C 0.90158 0.5621 0.4779 0.0
C3528 C 0.89116 0.55746 0.55594 0.0
C3529 C 0.90726 0.56265 0.57158 0.0
C3530 C 0.87494 0.55454 0.56989 0.0
C3531 C 0.85795 0.55066 0.55443 0.0
C3532 C 0.85879 0.56243 0.53279 0.0
C3533 C 0.84283 0.55854 0.51795 0.0
C3534 C 0.82591 0.54298 0.52467 0.0
C3535 C 0.8249 0.53129 0.54628 0.0
C3536 C 0.84082 0.5351 0.56117 0.0
C3537 C 0.89527 0.5697 0.69286 0.0
C3538 C 0.8822 0.55237 0.70393 0.0
C3539 C 0.89838 0.57202 0.66393 0.0
C3540 C 0.88837 0.55709 0.64568 0.0
C3541 C 0.87557 0.53982 0.65676 0.0
C3542 C 0.87259 0.53746 0.68542 0.0
C3543 C 0.89046 0.55911 0.61488 0.0
C3544 C 0.87478 0.55521 0.5991 0.0
C3545 C 0.90709 0.56345 0.60093 0.0
C3546 C 0.92418 0.56793 0.61642 0.0
C3547 C 0.92451 0.55518 0.63522 0.0
C3548 C 0.9407 0.55961 0.64984 0.0
C3549 C 0.95668 0.5767 0.64565 0.0
C3550 C 0.95653 0.58937 0.62677 0.0
C3551 C 0.94036 0.58501 0.61212 0.0
H3552 H 0.9692 0.58011 0.65699 0.0
H3553 H 0.81357 0.53999 0.51315 0.0
H3554 H 0.47176 0.32453 0.47974 0.0
H3555 H 0.4641 0.3219 0.52888 0.0
H3556 H 0.4316 0.34818 0.51486 0.0
H3557 H 0.43943 0.35113 0.46495 0.0
H3558 H 0.45352 0.36158 0.56215 0.0
H3559 H 0.40949 0.30269 0.52696 0.0
H3560 H 0.39805 0.27408 0.49949 0.0
H3561 H 0.43222 0.25918 0.54703 0.0
H3562 H 0.44409 0.28785 0.57452 0.0
H3563 H 0.42613 0.33413 0.70729 0.0
H3564 H 0.42215 0.33587 0.65663 0.0
H3565 H 0.46342 0.3203 0.64128 0.0
H3566 H 0.46779 0.31903 0.69136 0.0
H3567 H 0.42935 0.30062 0.60847 0.0
H3568 H 0.47728 0.36248 0.63627 0.0
H3569 H 0.48899 0.39117 0.66369 0.0
H3570 H 0.44629 0.39988 0.63003 0.0
H3571 H 0.43417 0.37106 0.60269 0.0
C3572 C 0.46294 0.32978 0.48685 0.0
C3573 C 0.45616 0.338 0.46814 0.0
C3574 C 0.4585 0.32816 0.5151 0.0
C3575 C 0.44702 0.33454 0.52556 0.0
C3576 C 0.4404 0.34304 0.50721 0.0
C3577 C 0.44485 0.34468 0.47868 0.0
C3578 C 0.44236 0.33234 0.55581 0.0
C3579 C 0.44776 0.34818 0.5722 0.0
C3580 C 0.43496 0.31488 0.56905 0.0
C3581 C 0.42774 0.29749 0.55275 0.0
C3582 C 0.41465 0.29338 0.53146 0.0
C3583 C 0.40808 0.27713 0.51589 0.0
C3584 C 0.41441 0.26483 0.52149 0.0
C3585 C 0.42732 0.26872 0.54272 0.0
C3586 C 0.43395 0.28496 0.55834 0.0
C3587 C 0.43422 0.33096 0.69304 0.0
C3588 C 0.44732 0.32652 0.70327 0.0
C3589 C 0.43198 0.33201 0.66418 0.0
C3590 C 0.44252 0.32822 0.64526 0.0
C3591 C 0.45514 0.32324 0.65551 0.0
C3592 C 0.45767 0.3226 0.68415 0.0
C3593 C 0.44104 0.32987 0.61468 0.0
C3594 C 0.43455 0.31391 0.59829 0.0
C3595 C 0.44733 0.34716 0.6015 0.0
C3596 C 0.45467 0.36451 0.61777 0.0
C3597 C 0.47028 0.37042 0.63494 0.0
C3598 C 0.47702 0.38672 0.65042 0.0
C3599 C 0.46835 0.39731 0.64869 0.0
C3600 C 0.45296 0.39164 0.6314 0.0
C3601 C 0.44615 0.37533 0.61591 0.0
H3602 H 0.47358 0.40992 0.66068 0.0
H3603 H 0.40931 0.25226 0.50941 0.0
H3604 H 0.6864 0.10322 0.70709 0.0
H3605 H 0.68449 0.09627 0.65703 0.0
H3606 H 0.64737 0.11762 0.64575 0.0
H3607 H 0.64898 0.12432 0.69531 0.0
H3608 H 0.63661 0.08773 0.61402 0.0
H3609 H 0.694 0.14453 0.63398 0.0
H3610 H 0.7243 0.1631 0.65686 0.0
H3611 H 0.7431 0.12818 0.62136 0.0
H3612 H 0.71279 0.10927 0.59854 0.0
H3613 H 0.67937 0.1424 0.48028 0.0
H3614 H 0.68051 0.13707 0.52977 0.0
H3615 H 0.65014 0.07813 0.51604 0.0
H3616 H 0.64864 0.08336 0.46593 0.0
H3617 H 0.69499 0.1212 0.56022 0.0
H3618 H 0.62274 0.05833 0.5749 0.0
H3619 H 0.59212 0.04288 0.5521 0.0
H3620 H 0.60264 0.09485 0.51814 0.0
H3621 H 0.63321 0.11061 0.54099 0.0
C3622 C 0.67763 0.10617 0.69399 0.0
C3623 C 0.66802 0.11453 0.70525 0.0
C3624 C 0.67659 0.10225 0.66536 0.0
C3625 C 0.66592 0.10658 0.64752 0.0
C3626 C 0.65568 0.11411 0.65901 0.0
C3627 C 0.65674 0.11807 0.68743 0.0
C3628 C 0.66626 0.10468 0.61667 0.0
C3629 C 0.64941 0.09481 0.60227 0.0
C3630 C 0.6829 0.11401 0.6012 0.0
C3631 C 0.70109 0.12536 0.61488 0.0
C3632 C 0.70456 0.14074 0.63124 0.0
C3633 C 0.72173 0.15133 0.64417 0.0
C3634 C 0.73559 0.14678 0.64065 0.0
C3635 C 0.73233 0.13166 0.62413 0.0
C3636 C 0.71516 0.121 0.6112 0.0
C3637 C 0.67293 0.12824 0.48757 0.0
C3638 C 0.66375 0.1133 0.46896 0.0
C3639 C 0.67372 0.12523 0.51601 0.0
C3640 C 0.66535 0.10722 0.52678 0.0
C3641 C 0.65657 0.09218 0.50828 0.0
C3642 C 0.65576 0.09519 0.47962 0.0
C3643 C 0.66531 0.1046 0.55753 0.0
C3644 C 0.68222 0.11362 0.57193 0.0
C3645 C 0.6487 0.09483 0.57298 0.0
C3646 C 0.63032 0.08557 0.55933 0.0
C3647 C 0.61849 0.06644 0.56259 0.0
C3648 C 0.60115 0.05764 0.54967 0.0
C3649 C 0.59547 0.06786 0.53359 0.0
C3650 C 0.60709 0.08693 0.53049 0.0
C3651 C 0.62442 0.0958 0.5434 0.0
H3652 H 0.58206 0.06102 0.52358 0.0
H3653 H 0.74888 0.15501 0.65066 0.0
H3654 H 0.42596 0.09421 0.20724 0.0
H3655 H 0.42081 0.08813 0.15679 0.0
H3656 H 0.4644 0.14374 0.13962 0.0
H3657 H 0.46987 0.14974 0.18944 0.0
H3658 H 0.43019 0.13147 0.10864 0.0
H3659 H 0.47476 0.11222 0.13437 0.0
H3660 H 0.48445 0.09311 0.16067 0.0
H3661 H 0.43859 0.0438 0.12709 0.0
H3662 H 0.42848 0.06265 0.10088 0.0
H3663 H 0.47002 0.14724 0.97843 0.0
H3664 H 0.46285 0.14263 0.02773 0.0
H3665 H 0.42764 0.08408 0.01416 0.0
H3666 H 0.43502 0.08854 0.9641 0.0
H3667 H 0.4492 0.091 0.06055 0.0
H3668 H 0.40802 0.11004 0.02764 0.0
H3669 H 0.39784 0.12862 1.00105 0.0
H3670 H 0.435 0.17691 0.04795 0.0
H3671 H 0.44563 0.15869 0.07455 0.0
C3672 C 0.43435 0.10512 0.19264 0.0
C3673 C 0.44838 0.12242 0.20231 0.0
C3674 C 0.43143 0.10162 0.1639 0.0
C3675 C 0.44225 0.1155 0.14451 0.0
C3676 C 0.45589 0.13286 0.15421 0.0
C3677 C 0.45905 0.13623 0.18272 0.0
C3678 C 0.43991 0.1122 0.11398 0.0
C3679 C 0.43428 0.12259 0.09807 0.0
C3680 C 0.44462 0.1001 0.10031 0.0
C3681 C 0.45072 0.08882 0.11601 0.0
C3682 C 0.46663 0.0973 0.13283 0.0
C3683 C 0.47222 0.08652 0.14766 0.0
C3684 C 0.4621 0.06725 0.14564 0.0
C3685 C 0.44639 0.05872 0.1287 0.0
C3686 C 0.44072 0.06945 0.11385 0.0
C3687 C 0.4607 0.13332 0.98567 0.0
C3688 C 0.45303 0.11827 0.96705 0.0
C3689 C 0.45653 0.13073 0.01402 0.0
C3690 C 0.44442 0.11307 0.02467 0.0
C3691 C 0.43691 0.09787 0.00637 0.0
C3692 C 0.44112 0.10045 0.97776 0.0
C3693 C 0.44015 0.11087 0.05505 0.0
C3694 C 0.44457 0.09948 0.07099 0.0
C3695 C 0.43411 0.12192 0.06881 0.0
C3696 C 0.42768 0.13298 0.05304 0.0
C3697 C 0.41411 0.12464 0.03219 0.0
C3698 C 0.40825 0.13512 0.01712 0.0
C3699 C 0.41578 0.15394 0.02279 0.0
C3700 C 0.42917 0.16232 0.04359 0.0
C3701 C 0.4351 0.15192 0.05871 0.0
H3702 H 0.41123 0.16203 0.01109 0.0
H3703 H 0.46646 0.05893 0.15712 0.0
H3704 H 0.90665 0.32952 0.20458 0.0
H3705 H 0.91312 0.33111 0.15417 0.0
H3706 H 0.85715 0.31773 0.13648 0.0
H3707 H 0.85076 0.31654 0.18626 0.0
H3708 H 0.87037 0.29696 0.1049 0.0
H3709 H 0.88804 0.36004 0.13251 0.0
H3710 H 0.90643 0.38852 0.15987 0.0
H3711 H 0.95656 0.39372 0.12656 0.0
H3712 H 0.93844 0.36509 0.09931 0.0
H3713 H 0.85506 0.32208 0.97496 0.0
H3714 H 0.85923 0.31878 0.02419 0.0
H3715 H 0.9181 0.34381 0.01199 0.0
H3716 H 0.91408 0.34751 0.96203 0.0
H3717 H 0.91026 0.35732 0.0586 0.0
H3718 H 0.89265 0.29773 0.02406 0.0
H3719 H 0.8747 0.26918 0.9967 0.0
H3720 H 0.82577 0.25658 0.04303 0.0
H3721 H 0.84335 0.28519 0.0704 0.0
C3722 C 0.89574 0.32681 0.18987 0.0
C3723 C 0.87823 0.32299 0.19939 0.0
C3724 C 0.89946 0.32778 0.16115 0.0
C3725 C 0.8856 0.32455 0.14163 0.0
C3726 C 0.86802 0.32024 0.15117 0.0
C3727 C 0.86443 0.31965 0.17966 0.0
C3728 C 0.88914 0.326 0.11112 0.0
C3729 C 0.87912 0.31013 0.09473 0.0
C3730 C 0.90106 0.34307 0.09796 0.0
C3731 C 0.91191 0.3603 0.11419 0.0
C3732 C 0.90299 0.36716 0.13124 0.0
C3733 C 0.91336 0.38335 0.14668 0.0
C3734 C 0.93265 0.39289 0.14504 0.0
C3735 C 0.94161 0.38629 0.12787 0.0
C3736 C 0.9313 0.37009 0.11242 0.0
C3737 C 0.86896 0.32687 0.98248 0.0
C3738 C 0.88423 0.33501 0.96428 0.0
C3739 C 0.8713 0.32486 0.01079 0.0
C3740 C 0.88894 0.33073 0.02183 0.0
C3741 C 0.90433 0.33906 0.00393 0.0
C3742 C 0.90199 0.34111 0.97536 0.0
C3743 C 0.89091 0.32834 0.05221 0.0
C3744 C 0.90191 0.34402 0.06864 0.0
C3745 C 0.88001 0.31101 0.06548 0.0
C3746 C 0.86934 0.29368 0.04922 0.0
C3747 C 0.87804 0.28893 0.02831 0.0
C3748 C 0.86793 0.27273 0.01281 0.0
C3749 C 0.8491 0.26108 0.01811 0.0
C3750 C 0.84036 0.26561 0.03896 0.0
C3751 C 0.8504 0.28181 0.05451 0.0
H3752 H 0.84129 0.24855 0.00607 0.0
H3753 H 0.94066 0.40542 0.157 0.0
H3754 H 0.68687 0.53702 0.18481 0.0
H3755 H 0.68459 0.54229 0.13528 0.0
H3756 H 0.66541 0.58016 0.15549 0.0
H3757 H 0.66822 0.57535 0.20564 0.0
H3758 H 0.64328 0.54668 0.1127 0.0
H3759 H 0.70106 0.60155 0.13089 0.0
H3760 H 0.73237 0.61959 0.15081 0.0
H3761 H 0.75009 0.58756 0.10359 0.0
H3762 H 0.71879 0.5691 0.08373 0.0
H3763 H 0.64646 0.56007 0.9635 0.0
H3764 H 0.64911 0.56721 0.01355 0.0
H3765 H 0.68635 0.54587 0.02317 0.0
H3766 H 0.68388 0.53882 0.97363 0.0
H3767 H 0.69862 0.57764 0.05178 0.0
H3768 H 0.64113 0.52 0.04029 0.0
H3769 H 0.60984 0.49981 0.02143 0.0
H3770 H 0.59156 0.53523 0.05664 0.0
H3771 H 0.62285 0.55577 0.0754 0.0
C3772 C 0.68227 0.54657 0.17879 0.0
C3773 C 0.6777 0.55576 0.19911 0.0
C3774 C 0.681 0.54958 0.15048 0.0
C3775 C 0.67482 0.56157 0.14177 0.0
C3776 C 0.67023 0.57085 0.16188 0.0
C3777 C 0.67192 0.56817 0.19042 0.0
C3778 C 0.67291 0.56379 0.11148 0.0
C3779 C 0.65531 0.55392 0.09933 0.0
C3780 C 0.68866 0.57281 0.09413 0.0
C3781 C 0.70752 0.58384 0.106 0.0
C3782 C 0.71158 0.59822 0.12497 0.0
C3783 C 0.72934 0.60855 0.1362 0.0
C3784 C 0.7432 0.6047 0.12852 0.0
C3785 C 0.73933 0.59052 0.10954 0.0
C3786 C 0.72159 0.58013 0.09826 0.0
C3787 C 0.65529 0.55701 0.97627 0.0
C3788 C 0.66485 0.54874 0.96449 0.0
C3789 C 0.65675 0.56105 0.00489 0.0
C3790 C 0.66786 0.557 0.02218 0.0
C3791 C 0.67773 0.54918 0.0103 0.0
C3792 C 0.67619 0.54504 0.9819 0.0
C3793 C 0.66898 0.56023 0.05283 0.0
C3794 C 0.68649 0.57094 0.06506 0.0
C3795 C 0.65315 0.55183 0.07023 0.0
C3796 C 0.63438 0.53956 0.05888 0.0
C3797 C 0.63048 0.52358 0.04377 0.0
C3798 C 0.61274 0.51205 0.03315 0.0
C3799 C 0.59874 0.51627 0.03773 0.0
C3800 C 0.60244 0.532 0.05303 0.0
C3801 C 0.62017 0.54359 0.06366 0.0
H3802 H 0.585 0.50733 0.02951 0.0
H3803 H 0.75695 0.61272 0.13723 0.0
H3804 H 0.56764 0.91008 0.04177 0.0
H3805 H 0.5744 0.91317 0.99152 0.0
H3806 H 0.52547 0.8603 0.97721 0.0
H3807 H 0.51894 0.85694 0.02679 0.0
H3808 H 0.55287 0.8617 0.94957 0.0
H3809 H 0.52856 0.90331 0.96275 0.0
H3810 H 0.52831 0.93035 0.98296 0.0
H3811 H 0.58272 0.96621 0.95036 0.0
H3812 H 0.58336 0.93933 0.93023 0.0
H3813 H 0.52146 0.85653 0.81394 0.0
H3814 H 0.52613 0.86185 0.86386 0.0
H3815 H 0.58158 0.90662 0.84959 0.0
H3816 H 0.57712 0.9013 0.79898 0.0
H3817 H 0.55889 0.91348 0.89121 0.0
H3818 H 0.58012 0.87103 0.87164 0.0
H3819 H 0.57854 0.84341 0.85028 0.0
H3820 H 0.52822 0.80851 0.89469 0.0
H3821 H 0.52934 0.83593 0.91599 0.0
C3822 C 0.55832 0.89917 0.02785 0.0
C3823 C 0.54281 0.88322 0.03844 0.0
C3824 C 0.56217 0.90097 0.99911 0.0
C3825 C 0.55044 0.88696 0.98045 0.0
C3826 C 0.53485 0.87123 0.99107 0.0
C3827 C 0.53111 0.86936 0.01958 0.0
C3828 C 0.55417 0.88813 0.94988 0.0
C3829 C 0.55416 0.87305 0.93689 0.0
C3830 C 0.55651 0.90319 0.93322 0.0
C3831 C 0.55611 0.91931 0.94532 0.0
C3832 C 0.54053 0.91695 0.9601 0.0
C3833 C 0.5403 0.93224 0.97149 0.0
C3834 C 0.55552 0.94998 0.96803 0.0
C3835 C 0.57096 0.95246 0.95308 0.0
C3836 C 0.57126 0.93721 0.94167 0.0
C3837 C 0.53468 0.8676 0.8212 0.0
C3838 C 0.54895 0.87844 0.80229 0.0
C3839 C 0.53731 0.87059 0.84985 0.0
C3840 C 0.55422 0.88455 0.86044 0.0
C3841 C 0.56843 0.89576 0.84179 0.0
C3842 C 0.56587 0.89264 0.81292 0.0
C3843 C 0.55681 0.88673 0.89113 0.0
C3844 C 0.55802 0.90238 0.90406 0.0
C3845 C 0.55541 0.87213 0.90783 0.0
C3846 C 0.55478 0.85556 0.8953 0.0
C3847 C 0.56865 0.85747 0.87671 0.0
C3848 C 0.56785 0.84185 0.86463 0.0
C3849 C 0.55328 0.82422 0.8711 0.0
C3850 C 0.5395 0.82217 0.8897 0.0
C3851 C 0.54023 0.83775 0.90182 0.0
H3852 H 0.55267 0.81214 0.86172 0.0
H3853 H 0.55531 0.9618 0.97686 0.0
H3854 H 0.08662 0.65196 0.04025 0.0
H3855 H 0.08194 0.65486 0.99033 0.0
H3856 H 0.14062 0.67943 0.97638 0.0
H3857 H 0.14544 0.67698 0.02566 0.0
H3858 H 0.12823 0.69768 0.948 0.0
H3859 H 0.10897 0.63297 0.96243 0.0
H3860 H 0.0899 0.60202 0.98316 0.0
H3861 H 0.0408 0.59944 0.95039 0.0
H3862 H 0.05958 0.63049 0.92975 0.0
H3863 H 0.14549 0.67419 0.81578 0.0
H3864 H 0.13901 0.67374 0.86538 0.0
H3865 H 0.0863 0.66892 0.84659 0.0
H3866 H 0.09287 0.66976 0.79631 0.0
H3867 H 0.08888 0.64219 0.89062 0.0
H3868 H 0.11097 0.70594 0.86872 0.0
H3869 H 0.13201 0.73591 0.84659 0.0
H3870 H 0.17771 0.73946 0.89283 0.0
H3871 H 0.15699 0.70936 0.91492 0.0
C3872 C 0.09852 0.65807 0.02655 0.0
C3873 C 0.1164 0.66416 0.03711 0.0
C3874 C 0.09581 0.65966 0.99798 0.0
C3875 C 0.11092 0.66727 0.97948 0.0
C3876 C 0.12873 0.67359 0.99014 0.0
C3877 C 0.13144 0.67208 0.01848 0.0
C3878 C 0.10857 0.66845 0.94886 0.0
C3879 C 0.11953 0.68554 0.93553 0.0
C3880 C 0.09691 0.65275 0.93246 0.0
C3881 C 0.08564 0.63413 0.9449 0.0
C3882 C 0.09409 0.62586 0.95986 0.0
C3883 C 0.08334 0.60829 0.97155 0.0
C3884 C 0.06414 0.5988 0.96819 0.0
C3885 C 0.05566 0.60683 0.95305 0.0
C3886 C 0.06635 0.62441 0.94135 0.0
C3887 C 0.13247 0.673 0.82204 0.0
C3888 C 0.11967 0.67198 0.80202 0.0
C3889 C 0.12882 0.67278 0.85045 0.0
C3890 C 0.1122 0.6713 0.85961 0.0
C3891 C 0.09921 0.67006 0.83985 0.0
C3892 C 0.10302 0.67063 0.81121 0.0
C3893 C 0.10893 0.67126 0.89001 0.0
C3894 C 0.09705 0.65442 0.90324 0.0
C3895 C 0.11992 0.68712 0.90637 0.0
C3896 C 0.13243 0.70533 0.89335 0.0
C3897 C 0.12553 0.71304 0.87401 0.0
C3898 C 0.13739 0.73007 0.8615 0.0
C3899 C 0.15619 0.73957 0.86826 0.0
C3900 C 0.16315 0.73209 0.88761 0.0
C3901 C 0.15134 0.71505 0.90016 0.0
H3902 H 0.16536 0.75275 0.85854 0.0
H3903 H 0.05584 0.5852 0.97724 0.0
H3904 H 0.33688 0.47887 0.02985 0.0
H3905 H 0.33318 0.4721 0.98034 0.0
H3906 H 0.34131 0.42557 0.99363 0.0
H3907 H 0.34546 0.43254 0.04385 0.0
H3908 H 0.35912 0.4446 0.94665 0.0
H3909 H 0.29816 0.41832 0.98213 0.0
H3910 H 0.27253 0.41694 0.00948 0.0
H3911 H 0.27486 0.46121 0.96078 0.0
H3912 H 0.30077 0.46313 0.93347 0.0
H3913 H 0.32782 0.42341 0.80155 0.0
H3914 H 0.32926 0.41928 0.85218 0.0
H3915 H 0.32989 0.47052 0.86688 0.0
H3916 H 0.32868 0.47485 0.81695 0.0
H3917 H 0.3043 0.44099 0.9002 0.0
H3918 H 0.36877 0.46996 0.8708 0.0
H3919 H 0.39449 0.47119 0.84378 0.0
H3920 H 0.38436 0.42017 0.88097 0.0
H3921 H 0.35839 0.41852 0.90795 0.0
C3922 C 0.33789 0.46714 0.02246 0.0
C3923 C 0.34128 0.45613 0.04106 0.0
C3924 C 0.3357 0.46326 0.994 0.0
C3925 C 0.33653 0.44807 0.98323 0.0
C3926 C 0.34046 0.43729 1.00148 0.0
C3927 C 0.3428 0.44127 0.03017 0.0
C3928 C 0.33313 0.44372 0.95292 0.0
C3929 C 0.34692 0.44336 0.93657 0.0
C3930 C 0.31723 0.44211 0.93962 0.0
C3931 C 0.30149 0.44091 0.9558 0.0
C3932 C 0.29329 0.42784 0.97734 0.0
C3933 C 0.27869 0.42696 0.99285 0.0
C3934 C 0.27206 0.43898 0.98687 0.0
C3935 C 0.28001 0.4519 0.96537 0.0
C3936 C 0.29464 0.45288 0.94985 0.0
C3937 C 0.32824 0.43376 0.81562 0.0
C3938 C 0.32819 0.44949 0.80512 0.0
C3939 C 0.32912 0.4314 0.8445 0.0
C3940 C 0.3297 0.44461 0.86329 0.0
C3941 C 0.32942 0.46014 0.8528 0.0
C3942 C 0.32881 0.46262 0.82415 0.0
C3943 C 0.33059 0.44263 0.89398 0.0
C3944 C 0.31627 0.44177 0.91038 0.0
C3945 C 0.34589 0.44295 0.90724 0.0
C3946 C 0.3615 0.44398 0.89109 0.0
C3947 C 0.37191 0.45891 0.87301 0.0
C3948 C 0.38656 0.45971 0.85775 0.0
C3949 C 0.39102 0.44573 0.86058 0.0
C3950 C 0.38087 0.43096 0.87875 0.0
C3951 C 0.36619 0.43009 0.89403 0.0
H3952 H 0.40236 0.44637 0.84876 0.0
H3953 H 0.26074 0.43828 0.99885 0.0
H3954 H 0.09287 0.42633 0.53949 0.0
H3955 H 0.08867 0.42045 0.48888 0.0
H3956 H 0.1326 0.47612 0.47302 0.0
H3957 H 0.13713 0.48191 0.52299 0.0
H3958 H 0.09932 0.46427 0.44048 0.0
H3959 H 0.14297 0.44462 0.46855 0.0
H3960 H 0.15227 0.42554 0.49578 0.0
H3961 H 0.10696 0.3762 0.46125 0.0
H3962 H 0.09723 0.39502 0.43412 0.0
H3963 H 0.13959 0.47833 0.31007 0.0
H3964 H 0.13262 0.47449 0.35954 0.0
H3965 H 0.09627 0.41596 0.34762 0.0
H3966 H 0.1034 0.41963 0.2975 0.0
H3967 H 0.11812 0.42312 0.39403 0.0
H3968 H 0.07781 0.44309 0.35937 0.0
H3969 H 0.06846 0.46214 0.33221 0.0
H3970 H 0.1061 0.51018 0.37916 0.0
H3971 H 0.11592 0.49149 0.40632 0.0
C3972 C 0.10153 0.4373 0.52513 0.0
C3973 C 0.11539 0.45455 0.53522 0.0
C3974 C 0.09916 0.43392 0.4963 0.0
C3975 C 0.11035 0.44787 0.47724 0.0
C3976 C 0.12381 0.46518 0.48735 0.0
C3977 C 0.12643 0.46843 0.51595 0.0
C3978 C 0.10858 0.44468 0.44664 0.0
C3979 C 0.10338 0.45525 0.43027 0.0
C3980 C 0.11333 0.43248 0.43343 0.0
C3981 C 0.11922 0.4212 0.44963 0.0
C3982 C 0.13487 0.4297 0.46699 0.0
C3983 C 0.14025 0.41894 0.48235 0.0
C3984 C 0.13017 0.39967 0.48033 0.0
C3985 C 0.11473 0.39113 0.46286 0.0
C3986 C 0.10928 0.40183 0.44748 0.0
C3987 C 0.13007 0.46458 0.31774 0.0
C3988 C 0.122 0.4493 0.29956 0.0
C3989 C 0.12602 0.46244 0.34617 0.0
C3990 C 0.11367 0.44499 0.35732 0.0
C3991 C 0.10576 0.42958 0.33946 0.0
C3992 C 0.10981 0.43172 0.3108 0.0
C3993 C 0.10945 0.44322 0.38773 0.0
C3994 C 0.11355 0.43177 0.40411 0.0
C3995 C 0.10357 0.45455 0.40103 0.0
C3996 C 0.09766 0.46588 0.38482 0.0
C3997 C 0.08419 0.45774 0.36379 0.0
C3998 C 0.0788 0.46847 0.3484 0.0
C3999 C 0.0867 0.48735 0.35395 0.0
C4000 C 0.1 0.49554 0.3749 0.0
C4001 C 0.10546 0.48488 0.39033 0.0
H4002 H 0.08248 0.49564 0.34208 0.0
H4003 H 0.13436 0.39136 0.49223 0.0
H4004 H 0.57941 0.69475 0.30395 0.0
H4005 H 0.58167 0.69257 0.35467 0.0
H4006 H 0.53348 0.63794 0.35339 0.0
H4007 H 0.53073 0.6405 0.30319 0.0
H4008 H 0.52851 0.65597 0.39062 0.0
H4009 H 0.5795 0.64735 0.36866 0.0
H4010 H 0.60917 0.65454 0.34708 0.0
H4011 H 0.63681 0.70583 0.39205 0.0
H4012 H 0.60726 0.69906 0.41362 0.0
H4013 H 0.55962 0.6454 0.53829 0.0
H4014 H 0.5644 0.64604 0.48767 0.0
H4015 H 0.54545 0.68524 0.47848 0.0
H4016 H 0.54041 0.6845 0.52856 0.0
H4017 H 0.58431 0.67223 0.4473 0.0
H4018 H 0.51665 0.67321 0.4241 0.0
H4019 H 0.48622 0.66278 0.44585 0.0
H4020 H 0.49056 0.6205 0.49041 0.0
H4021 H 0.52087 0.6305 0.46863 0.0
C4022 C 0.56954 0.68217 0.31451 0.0
C4023 C 0.55482 0.66786 0.29968 0.0
C4024 C 0.57086 0.68088 0.34352 0.0
C4025 C 0.55774 0.66506 0.35807 0.0
C4026 C 0.54368 0.65038 0.34286 0.0
C4027 C 0.54214 0.65182 0.3141 0.0
C4028 C 0.55748 0.66433 0.38921 0.0
C4029 C 0.54076 0.65947 0.40286 0.0
C4030 C 0.57333 0.66866 0.4055 0.0
C4031 C 0.59112 0.67277 0.39257 0.0
C4032 C 0.59188 0.66023 0.37379 0.0
C4033 C 0.60868 0.66421 0.36159 0.0
C4034 C 0.62486 0.68065 0.36814 0.0
C4035 C 0.62427 0.69311 0.38697 0.0
C4036 C 0.6075 0.6892 0.39921 0.0
C4037 C 0.5567 0.65433 0.52551 0.0
C4038 C 0.54934 0.66465 0.53749 0.0
C4039 C 0.55949 0.65471 0.49659 0.0
C4040 C 0.55498 0.66544 0.47921 0.0
C4041 C 0.5487 0.67659 0.49137 0.0
C4042 C 0.54581 0.67612 0.52009 0.0
C4043 C 0.55545 0.66412 0.44829 0.0
C4044 C 0.57213 0.66865 0.43483 0.0
C4045 C 0.53947 0.65902 0.43202 0.0
C4046 C 0.52111 0.65273 0.44492 0.0
C4047 C 0.51107 0.66164 0.43845 0.0
C4048 C 0.49385 0.65581 0.4508 0.0
C4049 C 0.48649 0.64103 0.46957 0.0
C4050 C 0.4963 0.63199 0.47595 0.0
C4051 C 0.51351 0.63775 0.46363 0.0
H4052 H 0.47316 0.63655 0.47912 0.0
H4053 H 0.63785 0.68371 0.35867 0.0
H4054 H 0.32897 0.85689 0.31716 0.0
H4055 H 0.32908 0.86239 0.36693 0.0
H4056 H 0.32555 0.9113 0.3507 0.0
H4057 H 0.3252 0.90575 0.30015 0.0
H4058 H 0.35378 0.91448 0.39315 0.0
H4059 H 0.28913 0.87908 0.37314 0.0
H4060 H 0.26106 0.85359 0.35184 0.0
H4061 H 0.26931 0.81397 0.39723 0.0
H4062 H 0.2976 0.83921 0.41849 0.0
H4063 H 0.34288 0.91334 0.54343 0.0
H4064 H 0.33919 0.91681 0.49335 0.0
H4065 H 0.32759 0.86098 0.47932 0.0
H4066 H 0.33083 0.85729 0.52879 0.0
H4067 H 0.30384 0.86646 0.45165 0.0
H4068 H 0.37048 0.90035 0.4645 0.0
H4069 H 0.39975 0.92485 0.48457 0.0
H4070 H 0.38873 0.96633 0.45222 0.0
H4071 H 0.35926 0.94204 0.43223 0.0
C4072 C 0.32825 0.86888 0.32397 0.0
C4073 C 0.32707 0.88089 0.30453 0.0
C4074 C 0.32827 0.87196 0.35253 0.0
C4075 C 0.32726 0.8872 0.36252 0.0
C4076 C 0.32633 0.89944 0.34336 0.0
C4077 C 0.32604 0.89621 0.31454 0.0
C4078 C 0.32702 0.88981 0.39312 0.0
C4079 C 0.34266 0.90429 0.40602 0.0
C4080 C 0.31267 0.87631 0.40985 0.0
C4081 C 0.29555 0.86106 0.3973 0.0
C4082 C 0.28504 0.86493 0.37844 0.0
C4083 C 0.26907 0.85052 0.36639 0.0
C4084 C 0.26342 0.83217 0.37315 0.0
C4085 C 0.2737 0.82819 0.39202 0.0
C4086 C 0.28969 0.84255 0.40411 0.0
C4087 C 0.33956 0.90183 0.52964 0.0
C4088 C 0.33713 0.88503 0.5403 0.0
C4089 C 0.3375 0.90384 0.50099 0.0
C4090 C 0.33315 0.88916 0.48244 0.0
C4091 C 0.33081 0.87248 0.49312 0.0
C4092 C 0.33274 0.87042 0.52156 0.0
C4093 C 0.33093 0.89076 0.45187 0.0
C4094 C 0.31478 0.87699 0.43893 0.0
C4095 C 0.34491 0.90482 0.43518 0.0
C4096 C 0.36257 0.91939 0.44721 0.0
C4097 C 0.37423 0.91469 0.46188 0.0
C4098 C 0.39086 0.92854 0.47319 0.0
C4099 C 0.39606 0.94714 0.46976 0.0
C4100 C 0.38466 0.95192 0.45492 0.0
C4101 C 0.368 0.93812 0.44359 0.0
H4102 H 0.40895 0.95784 0.47852 0.0
H4103 H 0.25105 0.82104 0.36379 0.0
loop_
_geom_bond_atom_site_label_1
_geom_bond_atom_site_label_2
_geom_bond_distance
_geom_bond_site_symmetry_2
_ccdc_geom_bond_type
Co0 O1 2.216 1_554 S
Co0 O2 2.091 . S
Co0 O4 2.004 . S
Co0 O10 2.021 . S
Co0 O12 2.137 . S
Co0 O13 2.244 . S
O1 Co0 2.216 1_556 S
O1 C8 1.247 1_556 S
O2 Co0 2.091 . S
O2 C8 1.261 . S
C3 O12 1.247 . S
C3 O13 1.272 . S
O4 Co0 2.004 . S
O4 C9 1.259 . S
Co5 O6 2.061 . S
Co5 O11 2.052 . S
Co5 O13 2.135 . S
O6 Co5 2.061 . S
O6 C9 1.235 . S
C7 O10 1.238 . S
C7 O11 1.241 . S
C8 O1 1.247 1_554 S
C8 O2 1.261 . S
C9 O4 1.259 . S
C9 O6 1.235 . S
O10 Co0 2.021 . S
O10 C7 1.238 . S
O11 Co5 2.052 . S
O11 C7 1.241 . S
O12 Co0 2.137 . S
O12 C3 1.247 . S
O13 Co0 2.244 . S
O13 C3 1.272 . S
O13 Co5 2.135 . S
Co14 O15 2.216 1_554 S
Co14 O16 2.091 . S
Co14 O18 2.004 . S
Co14 O24 2.021 . S
Co14 O26 2.137 1_545 S
Co14 O27 2.244 1_545 S
O15 Co14 2.216 1_556 S
O15 C22 1.247 1_556 S
O16 Co14 2.091 . S
O16 C22 1.261 . S
C17 O26 1.247 . S
C17 O27 1.272 . S
O18 Co14 2.004 . S
O18 C23 1.259 . S
Co19 O20 2.061 . S
Co19 O25 2.052 . S
Co19 O27 2.135 1_545 S
O20 Co19 2.061 . S
O20 C23 1.235 . S
C21 O24 1.238 . S
C21 O25 1.241 . S
C22 O15 1.247 1_554 S
C22 O16 1.261 . S
C23 O18 1.259 . S
C23 O20 1.235 . S
O24 Co14 2.021 . S
O24 C21 1.238 . S
O25 Co19 2.052 . S
O25 C21 1.241 . S
O26 Co14 2.137 1_565 S
O26 C17 1.247 . S
O27 Co14 2.244 1_565 S
O27 C17 1.272 . S
O27 Co19 2.135 1_565 S
Co28 O29 2.216 1_554 S
Co28 O30 2.091 . S
Co28 O32 2.004 . S
Co28 O38 2.021 . S
Co28 O40 2.137 1_655 S
Co28 O41 2.244 1_655 S
O29 Co28 2.216 1_556 S
O29 C36 1.247 1_556 S
O30 Co28 2.091 . S
O30 C36 1.261 . S
C31 O40 1.247 . S
C31 O41 1.272 . S
O32 Co28 2.004 . S
O32 C37 1.259 . S
Co33 O34 2.061 . S
Co33 O39 2.052 . S
Co33 O41 2.135 1_655 S
O34 Co33 2.061 . S
O34 C37 1.235 . S
C35 O38 1.238 . S
C35 O39 1.241 . S
C36 O29 1.247 1_554 S
C36 O30 1.261 . S
C37 O32 1.259 . S
C37 O34 1.235 . S
O38 Co28 2.021 . S
O38 C35 1.238 . S
O39 Co33 2.052 . S
O39 C35 1.241 . S
O40 Co28 2.137 1_455 S
O40 C31 1.247 . S
O41 Co28 2.244 1_455 S
O41 C31 1.272 . S
O41 Co33 2.135 1_455 S
Co42 O43 2.216 . S
Co42 O44 2.091 . S
Co42 O46 2.004 . S
Co42 O52 2.021 . S
Co42 O54 2.137 . S
Co42 O55 2.244 . S
O43 Co42 2.216 . S
O43 C50 1.247 . S
O44 Co42 2.091 . S
O44 C50 1.261 . S
C45 O54 1.247 . S
C45 O55 1.272 . S
O46 Co42 2.004 . S
O46 C51 1.259 . S
Co47 O48 2.061 . S
Co47 O53 2.052 . S
Co47 O55 2.135 . S
O48 Co47 2.061 . S
O48 C51 1.235 . S
C49 O52 1.238 . S
C49 O53 1.241 . S
C50 O43 1.247 . S
C50 O44 1.261 . S
C51 O46 1.259 . S
C51 O48 1.235 . S
O52 Co42 2.021 . S
O52 C49 1.238 . S
O53 Co47 2.052 . S
O53 C49 1.241 . S
O54 Co42 2.137 . S
O54 C45 1.247 . S
O55 Co42 2.244 . S
O55 C45 1.272 . S
O55 Co47 2.135 . S
Co56 O57 2.216 . S
Co56 O58 2.091 . S
Co56 O60 2.004 . S
Co56 O66 2.021 . S
Co56 O68 2.137 1_565 S
Co56 O69 2.244 1_565 S
O57 Co56 2.216 . S
O57 C64 1.247 . S
O58 Co56 2.091 . S
O58 C64 1.261 . S
C59 O68 1.247 . S
C59 O69 1.272 . S
O60 Co56 2.004 . S
O60 C65 1.259 . S
Co61 O62 2.061 . S
Co61 O67 2.052 . S
Co61 O69 2.135 1_565 S
O62 Co61 2.061 . S
O62 C65 1.235 . S
C63 O66 1.238 . S
C63 O67 1.241 . S
C64 O57 1.247 . S
C64 O58 1.261 . S
C65 O60 1.259 . S
C65 O62 1.235 . S
O66 Co56 2.021 . S
O66 C63 1.238 . S
O67 Co61 2.052 . S
O67 C63 1.241 . S
O68 Co56 2.137 1_545 S
O68 C59 1.247 . S
O69 Co56 2.244 1_545 S
O69 C59 1.272 . S
O69 Co61 2.135 1_545 S
Co70 O71 2.216 . S
Co70 O72 2.091 . S
Co70 O74 2.004 . S
Co70 O80 2.021 . S
Co70 O82 2.137 1_455 S
Co70 O83 2.244 1_455 S
O71 Co70 2.216 . S
O71 C78 1.247 . S
O72 Co70 2.091 . S
O72 C78 1.261 . S
C73 O82 1.247 . S
C73 O83 1.272 . S
O74 Co70 2.004 . S
O74 C79 1.259 . S
Co75 O76 2.061 . S
Co75 O81 2.052 . S
Co75 O83 2.135 1_455 S
O76 Co75 2.061 . S
O76 C79 1.235 . S
C77 O80 1.238 . S
C77 O81 1.241 . S
C78 O71 1.247 . S
C78 O72 1.261 . S
C79 O74 1.259 . S
C79 O76 1.235 . S
O80 Co70 2.021 . S
O80 C77 1.238 . S
O81 Co75 2.052 . S
O81 C77 1.241 . S
O82 Co70 2.137 1_655 S
O82 C73 1.247 . S
O83 Co70 2.244 1_655 S
O83 C73 1.272 . S
O83 Co75 2.135 1_655 S
Co84 O85 2.216 1_556 S
Co84 O86 2.091 . S
Co84 O88 2.004 . S
Co84 O94 2.021 . S
Co84 O96 2.137 . S
Co84 O97 2.244 . S
O85 Co84 2.216 1_554 S
O85 C92 1.247 1_554 S
O86 Co84 2.091 . S
O86 C92 1.261 . S
C87 O96 1.247 . S
C87 O97 1.272 . S
O88 Co84 2.004 . S
O88 C93 1.259 . S
Co89 O90 2.061 . S
Co89 O95 2.052 . S
Co89 O97 2.135 . S
O90 Co89 2.061 . S
O90 C93 1.235 . S
C91 O94 1.238 . S
C91 O95 1.241 . S
C92 O85 1.247 1_556 S
C92 O86 1.261 . S
C93 O88 1.259 . S
C93 O90 1.235 . S
O94 Co84 2.021 . S
O94 C91 1.238 . S
O95 Co89 2.052 . S
O95 C91 1.241 . S
O96 Co84 2.137 . S
O96 C87 1.247 . S
O97 Co84 2.244 . S
O97 C87 1.272 . S
O97 Co89 2.135 . S
Co98 O99 2.216 1_556 S
Co98 O100 2.091 . S
Co98 O102 2.004 . S
Co98 O108 2.021 . S
Co98 O110 2.137 1_565 S
Co98 O111 2.244 1_565 S
O99 Co98 2.216 1_554 S
O99 C106 1.247 1_554 S
O100 Co98 2.091 . S
O100 C106 1.261 . S
C101 O110 1.247 . S
C101 O111 1.272 . S
O102 Co98 2.004 . S
O102 C107 1.259 . S
Co103 O104 2.061 . S
Co103 O109 2.052 . S
Co103 O111 2.135 1_565 S
O104 Co103 2.061 . S
O104 C107 1.235 . S
C105 O108 1.238 . S
C105 O109 1.241 . S
C106 O99 1.247 1_556 S
C106 O100 1.261 . S
C107 O102 1.259 . S
C107 O104 1.235 . S
O108 Co98 2.021 . S
O108 C105 1.238 . S
O109 Co103 2.052 . S
O109 C105 1.241 . S
O110 Co98 2.137 1_545 S
O110 C101 1.247 . S
O111 Co98 2.244 1_545 S
O111 C101 1.272 . S
O111 Co103 2.135 1_545 S
Co112 O113 2.216 1_556 S
Co112 O114 2.091 . S
Co112 O116 2.004 . S
Co112 O122 2.021 . S
Co112 O124 2.137 1_455 S
Co112 O125 2.244 1_455 S
O113 Co112 2.216 1_554 S
O113 C120 1.247 1_554 S
O114 Co112 2.091 . S
O114 C120 1.261 . S
C115 O124 1.247 . S
C115 O125 1.272 . S
O116 Co112 2.004 . S
O116 C121 1.259 . S
Co117 O118 2.061 . S
Co117 O123 2.052 . S
Co117 O125 2.135 1_455 S
O118 Co117 2.061 . S
O118 C121 1.235 . S
C119 O122 1.238 . S
C119 O123 1.241 . S
C120 O113 1.247 1_556 S
C120 O114 1.261 . S
C121 O116 1.259 . S
C121 O118 1.235 . S
O122 Co112 2.021 . S
O122 C119 1.238 . S
O123 Co117 2.052 . S
O123 C119 1.241 . S
O124 Co112 2.137 1_655 S
O124 C115 1.247 . S
O125 Co112 2.244 1_655 S
O125 C115 1.272 . S
O125 Co117 2.135 1_655 S
Co126 O127 2.216 . S
Co126 O128 2.091 . S
Co126 O130 2.004 . S
Co126 O136 2.021 . S
Co126 O138 2.137 . S
Co126 O139 2.244 . S
O127 Co126 2.216 . S
O127 C134 1.247 . S
O128 Co126 2.091 . S
O128 C134 1.261 . S
C129 O138 1.247 . S
C129 O139 1.272 . S
O130 Co126 2.004 . S
O130 C135 1.259 . S
Co131 O132 2.061 . S
Co131 O137 2.052 . S
Co131 O139 2.135 . S
O132 Co131 2.061 . S
O132 C135 1.235 . S
C133 O136 1.238 . S
C133 O137 1.241 . S
C134 O127 1.247 . S
C134 O128 1.261 . S
C135 O130 1.259 . S
C135 O132 1.235 . S
O136 Co126 2.021 . S
O136 C133 1.238 . S
O137 Co131 2.052 . S
O137 C133 1.241 . S
O138 Co126 2.137 . S
O138 C129 1.247 . S
O139 Co126 2.244 . S
O139 C129 1.272 . S
O139 Co131 2.135 . S
Co140 O141 2.216 . S
Co140 O142 2.091 . S
Co140 O144 2.004 . S
Co140 O150 2.021 . S
Co140 O152 2.137 1_545 S
Co140 O153 2.244 1_545 S
O141 Co140 2.216 . S
O141 C148 1.247 . S
O142 Co140 2.091 . S
O142 C148 1.261 . S
C143 O152 1.247 . S
C143 O153 1.272 . S
O144 Co140 2.004 . S
O144 C149 1.259 . S
Co145 O146 2.061 . S
Co145 O151 2.052 . S
Co145 O153 2.135 1_545 S
O146 Co145 2.061 . S
O146 C149 1.235 . S
C147 O150 1.238 . S
C147 O151 1.241 . S
C148 O141 1.247 . S
C148 O142 1.261 . S
C149 O144 1.259 . S
C149 O146 1.235 . S
O150 Co140 2.021 . S
O150 C147 1.238 . S
O151 Co145 2.052 . S
O151 C147 1.241 . S
O152 Co140 2.137 1_565 S
O152 C143 1.247 . S
O153 Co140 2.244 1_565 S
O153 C143 1.272 . S
O153 Co145 2.135 1_565 S
Co154 O155 2.216 . S
Co154 O156 2.091 . S
Co154 O158 2.004 . S
Co154 O164 2.021 . S
Co154 O166 2.137 1_655 S
Co154 O167 2.244 1_655 S
O155 Co154 2.216 . S
O155 C162 1.247 . S
O156 Co154 2.091 . S
O156 C162 1.261 . S
C157 O166 1.247 . S
C157 O167 1.272 . S
O158 Co154 2.004 . S
O158 C163 1.259 . S
Co159 O160 2.061 . S
Co159 O165 2.052 . S
Co159 O167 2.135 1_655 S
O160 Co159 2.061 . S
O160 C163 1.235 . S
C161 O164 1.238 . S
C161 O165 1.241 . S
C162 O155 1.247 . S
C162 O156 1.261 . S
C163 O158 1.259 . S
C163 O160 1.235 . S
O164 Co154 2.021 . S
O164 C161 1.238 . S
O165 Co159 2.052 . S
O165 C161 1.241 . S
O166 Co154 2.137 1_455 S
O166 C157 1.247 . S
O167 Co154 2.244 1_455 S
O167 C157 1.272 . S
O167 Co159 2.135 1_455 S
Co168 O169 2.216 . S
Co168 O170 2.091 . S
Co168 O172 2.004 . S
Co168 O178 2.021 . S
Co168 O180 2.137 . S
Co168 O181 2.244 . S
O169 Co168 2.216 . S
O169 C176 1.247 . S
O170 Co168 2.091 . S
O170 C176 1.261 . S
C171 O180 1.247 . S
C171 O181 1.272 . S
O172 Co168 2.004 . S
O172 C177 1.259 . S
Co173 O174 2.061 . S
Co173 O179 2.052 . S
Co173 O181 2.135 . S
O174 Co173 2.061 . S
O174 C177 1.235 . S
C175 O178 1.238 . S
C175 O179 1.241 . S
C176 O169 1.247 . S
C176 O170 1.261 . S
C177 O172 1.259 . S
C177 O174 1.235 . S
O178 Co168 2.021 . S
O178 C175 1.238 . S
O179 Co173 2.052 . S
O179 C175 1.241 . S
O180 Co168 2.137 . S
O180 C171 1.247 . S
O181 Co168 2.244 . S
O181 C171 1.272 . S
O181 Co173 2.135 . S
Co182 O183 2.216 . S
Co182 O184 2.091 . S
Co182 O186 2.004 . S
Co182 O192 2.021 . S
Co182 O194 2.137 . S
Co182 O195 2.244 . S
O183 Co182 2.216 . S
O183 C190 1.247 . S
O184 Co182 2.091 . S
O184 C190 1.261 . S
C185 O194 1.247 . S
C185 O195 1.272 . S
O186 Co182 2.004 . S
O186 C191 1.259 . S
Co187 O188 2.061 . S
Co187 O193 2.052 . S
Co187 O195 2.135 . S
O188 Co187 2.061 . S
O188 C191 1.235 . S
C189 O192 1.238 . S
C189 O193 1.241 . S
C190 O183 1.247 . S
C190 O184 1.261 . S
C191 O186 1.259 . S
C191 O188 1.235 . S
O192 Co182 2.021 . S
O192 C189 1.238 . S
O193 Co187 2.052 . S
O193 C189 1.241 . S
O194 Co182 2.137 . S
O194 C185 1.247 . S
O195 Co182 2.244 . S
O195 C185 1.272 . S
O195 Co187 2.135 . S
Co196 O197 2.216 . S
Co196 O198 2.091 . S
Co196 O200 2.004 . S
Co196 O206 2.021 . S
Co196 O208 2.137 . S
Co196 O209 2.244 . S
O197 Co196 2.216 . S
O197 C204 1.247 . S
O198 Co196 2.091 . S
O198 C204 1.261 . S
C199 O208 1.247 . S
C199 O209 1.272 . S
O200 Co196 2.004 . S
O200 C205 1.259 . S
Co201 O202 2.061 . S
Co201 O207 2.052 . S
Co201 O209 2.135 . S
O202 Co201 2.061 . S
O202 C205 1.235 . S
C203 O206 1.238 . S
C203 O207 1.241 . S
C204 O197 1.247 . S
C204 O198 1.261 . S
C205 O200 1.259 . S
C205 O202 1.235 . S
O206 Co196 2.021 . S
O206 C203 1.238 . S
O207 Co201 2.052 . S
O207 C203 1.241 . S
O208 Co196 2.137 . S
O208 C199 1.247 . S
O209 Co196 2.244 . S
O209 C199 1.272 . S
O209 Co201 2.135 . S
Co210 O211 2.216 . S
Co210 O212 2.091 . S
Co210 O214 2.004 . S
Co210 O220 2.021 . S
Co210 O222 2.137 . S
Co210 O223 2.244 . S
O211 Co210 2.216 . S
O211 C218 1.247 . S
O212 Co210 2.091 . S
O212 C218 1.261 . S
C213 O222 1.247 . S
C213 O223 1.272 . S
O214 Co210 2.004 . S
O214 C219 1.259 . S
Co215 O216 2.061 . S
Co215 O221 2.052 . S
Co215 O223 2.135 . S
O216 Co215 2.061 . S
O216 C219 1.235 . S
C217 O220 1.238 . S
C217 O221 1.241 . S
C218 O211 1.247 . S
C218 O212 1.261 . S
C219 O214 1.259 . S
C219 O216 1.235 . S
O220 Co210 2.021 . S
O220 C217 1.238 . S
O221 Co215 2.052 . S
O221 C217 1.241 . S
O222 Co210 2.137 . S
O222 C213 1.247 . S
O223 Co210 2.244 . S
O223 C213 1.272 . S
O223 Co215 2.135 . S
Co224 O225 2.216 . S
Co224 O226 2.091 . S
Co224 O228 2.004 . S
Co224 O234 2.021 . S
Co224 O236 2.137 . S
Co224 O237 2.244 . S
O225 Co224 2.216 . S
O225 C232 1.247 . S
O226 Co224 2.091 . S
O226 C232 1.261 . S
C227 O236 1.247 . S
C227 O237 1.272 . S
O228 Co224 2.004 . S
O228 C233 1.259 . S
Co229 O230 2.061 . S
Co229 O235 2.052 . S
Co229 O237 2.135 . S
O230 Co229 2.061 . S
O230 C233 1.235 . S
C231 O234 1.238 . S
C231 O235 1.241 . S
C232 O225 1.247 . S
C232 O226 1.261 . S
C233 O228 1.259 . S
C233 O230 1.235 . S
O234 Co224 2.021 . S
O234 C231 1.238 . S
O235 Co229 2.052 . S
O235 C231 1.241 . S
O236 Co224 2.137 . S
O236 C227 1.247 . S
O237 Co224 2.244 . S
O237 C227 1.272 . S
O237 Co229 2.135 . S
Co238 O239 2.216 . S
Co238 O240 2.091 . S
Co238 O242 2.004 . S
Co238 O248 2.021 . S
Co238 O250 2.137 . S
Co238 O251 2.244 . S
O239 Co238 2.216 . S
O239 C246 1.247 . S
O240 Co238 2.091 . S
O240 C246 1.261 . S
C241 O250 1.247 . S
C241 O251 1.272 . S
O242 Co238 2.004 . S
O242 C247 1.259 . S
Co243 O244 2.061 . S
Co243 O249 2.052 . S
Co243 O251 2.135 . S
O244 Co243 2.061 . S
O244 C247 1.235 . S
C245 O248 1.238 . S
C245 O249 1.241 . S
C246 O239 1.247 . S
C246 O240 1.261 . S
C247 O242 1.259 . S
C247 O244 1.235 . S
O248 Co238 2.021 . S
O248 C245 1.238 . S
O249 Co243 2.052 . S
O249 C245 1.241 . S
O250 Co238 2.137 . S
O250 C241 1.247 . S
O251 Co238 2.244 . S
O251 C241 1.272 . S
O251 Co243 2.135 . S
Co252 O253 2.216 . S
Co252 O254 2.091 . S
Co252 O256 2.004 . S
Co252 O262 2.021 . S
Co252 O264 2.137 . S
Co252 O265 2.244 . S
O253 Co252 2.216 . S
O253 C260 1.247 . S
O254 Co252 2.091 . S
O254 C260 1.261 . S
C255 O264 1.247 . S
C255 O265 1.272 . S
O256 Co252 2.004 . S
O256 C261 1.259 . S
Co257 O258 2.061 . S
Co257 O263 2.052 . S
Co257 O265 2.135 . S
O258 Co257 2.061 . S
O258 C261 1.235 . S
C259 O262 1.238 . S
C259 O263 1.241 . S
C260 O253 1.247 . S
C260 O254 1.261 . S
C261 O256 1.259 . S
C261 O258 1.235 . S
O262 Co252 2.021 . S
O262 C259 1.238 . S
O263 Co257 2.052 . S
O263 C259 1.241 . S
O264 Co252 2.137 . S
O264 C255 1.247 . S
O265 Co252 2.244 . S
O265 C255 1.272 . S
O265 Co257 2.135 . S
Co266 O267 2.216 . S
Co266 O268 2.091 . S
Co266 O270 2.004 . S
Co266 O276 2.021 . S
Co266 O278 2.137 . S
Co266 O279 2.244 . S
O267 Co266 2.216 . S
O267 C274 1.247 . S
O268 Co266 2.091 . S
O268 C274 1.261 . S
C269 O278 1.247 . S
C269 O279 1.272 . S
O270 Co266 2.004 . S
O270 C275 1.259 . S
Co271 O272 2.061 . S
Co271 O277 2.052 . S
Co271 O279 2.135 . S
O272 Co271 2.061 . S
O272 C275 1.235 . S
C273 O276 1.238 . S
C273 O277 1.241 . S
C274 O267 1.247 . S
C274 O268 1.261 . S
C275 O270 1.259 . S
C275 O272 1.235 . S
O276 Co266 2.021 . S
O276 C273 1.238 . S
O277 Co271 2.052 . S
O277 C273 1.241 . S
O278 Co266 2.137 . S
O278 C269 1.247 . S
O279 Co266 2.244 . S
O279 C269 1.272 . S
O279 Co271 2.135 . S
Co280 O281 2.216 . S
Co280 O282 2.091 . S
Co280 O284 2.004 . S
Co280 O290 2.021 . S
Co280 O292 2.137 . S
Co280 O293 2.244 . S
O281 Co280 2.216 . S
O281 C288 1.247 . S
O282 Co280 2.091 . S
O282 C288 1.261 . S
C283 O292 1.247 . S
C283 O293 1.272 . S
O284 Co280 2.004 . S
O284 C289 1.259 . S
Co285 O286 2.061 . S
Co285 O291 2.052 . S
Co285 O293 2.135 . S
O286 Co285 2.061 . S
O286 C289 1.235 . S
C287 O290 1.238 . S
C287 O291 1.241 . S
C288 O281 1.247 . S
C288 O282 1.261 . S
C289 O284 1.259 . S
C289 O286 1.235 . S
O290 Co280 2.021 . S
O290 C287 1.238 . S
O291 Co285 2.052 . S
O291 C287 1.241 . S
O292 Co280 2.137 . S
O292 C283 1.247 . S
O293 Co280 2.244 . S
O293 C283 1.272 . S
O293 Co285 2.135 . S
Co294 O295 2.216 . S
Co294 O296 2.091 . S
Co294 O298 2.004 . S
Co294 O304 2.021 . S
Co294 O306 2.137 . S
Co294 O307 2.244 . S
O295 Co294 2.216 . S
O295 C302 1.247 . S
O296 Co294 2.091 . S
O296 C302 1.261 . S
C297 O306 1.247 . S
C297 O307 1.272 . S
O298 Co294 2.004 . S
O298 C303 1.259 . S
Co299 O300 2.061 . S
Co299 O305 2.052 . S
Co299 O307 2.135 . S
O300 Co299 2.061 . S
O300 C303 1.235 . S
C301 O304 1.238 . S
C301 O305 1.241 . S
C302 O295 1.247 . S
C302 O296 1.261 . S
C303 O298 1.259 . S
C303 O300 1.235 . S
O304 Co294 2.021 . S
O304 C301 1.238 . S
O305 Co299 2.052 . S
O305 C301 1.241 . S
O306 Co294 2.137 . S
O306 C297 1.247 . S
O307 Co294 2.244 . S
O307 C297 1.272 . S
O307 Co299 2.135 . S
Co308 O309 2.216 . S
Co308 O310 2.091 . S
Co308 O312 2.004 . S
Co308 O318 2.021 . S
Co308 O320 2.137 . S
Co308 O321 2.244 . S
O309 Co308 2.216 . S
O309 C316 1.247 . S
O310 Co308 2.091 . S
O310 C316 1.261 . S
C311 O320 1.247 . S
C311 O321 1.272 . S
O312 Co308 2.004 . S
O312 C317 1.259 . S
Co313 O314 2.061 . S
Co313 O319 2.052 . S
Co313 O321 2.135 . S
O314 Co313 2.061 . S
O314 C317 1.235 . S
C315 O318 1.238 . S
C315 O319 1.241 . S
C316 O309 1.247 . S
C316 O310 1.261 . S
C317 O312 1.259 . S
C317 O314 1.235 . S
O318 Co308 2.021 . S
O318 C315 1.238 . S
O319 Co313 2.052 . S
O319 C315 1.241 . S
O320 Co308 2.137 . S
O320 C311 1.247 . S
O321 Co308 2.244 . S
O321 C311 1.272 . S
O321 Co313 2.135 . S
Co322 O323 2.216 . S
Co322 O324 2.091 . S
Co322 O326 2.004 . S
Co322 O332 2.021 . S
Co322 O334 2.137 . S
Co322 O335 2.244 . S
O323 Co322 2.216 . S
O323 C330 1.247 . S
O324 Co322 2.091 . S
O324 C330 1.261 . S
C325 O334 1.247 . S
C325 O335 1.272 . S
O326 Co322 2.004 . S
O326 C331 1.259 . S
Co327 O328 2.061 . S
Co327 O333 2.052 . S
Co327 O335 2.135 . S
O328 Co327 2.061 . S
O328 C331 1.235 . S
C329 O332 1.238 . S
C329 O333 1.241 . S
C330 O323 1.247 . S
C330 O324 1.261 . S
C331 O326 1.259 . S
C331 O328 1.235 . S
O332 Co322 2.021 . S
O332 C329 1.238 . S
O333 Co327 2.052 . S
O333 C329 1.241 . S
O334 Co322 2.137 . S
O334 C325 1.247 . S
O335 Co322 2.244 . S
O335 C325 1.272 . S
O335 Co327 2.135 . S
Co336 O337 2.216 . S
Co336 O338 2.091 . S
Co336 O340 2.004 . S
Co336 O346 2.021 . S
Co336 O348 2.137 . S
Co336 O349 2.244 . S
O337 Co336 2.216 . S
O337 C344 1.247 . S
O338 Co336 2.091 . S
O338 C344 1.261 . S
C339 O348 1.247 . S
C339 O349 1.272 . S
O340 Co336 2.004 . S
O340 C345 1.259 . S
Co341 O342 2.061 . S
Co341 O347 2.052 . S
Co341 O349 2.135 . S
O342 Co341 2.061 . S
O342 C345 1.235 . S
C343 O346 1.238 . S
C343 O347 1.241 . S
C344 O337 1.247 . S
C344 O338 1.261 . S
C345 O340 1.259 . S
C345 O342 1.235 . S
O346 Co336 2.021 . S
O346 C343 1.238 . S
O347 Co341 2.052 . S
O347 C343 1.241 . S
O348 Co336 2.137 . S
O348 C339 1.247 . S
O349 Co336 2.244 . S
O349 C339 1.272 . S
O349 Co341 2.135 . S
Co350 O351 2.216 . S
Co350 O352 2.091 . S
Co350 O354 2.004 . S
Co350 O360 2.021 . S
Co350 O362 2.137 . S
Co350 O363 2.244 . S
O351 Co350 2.216 . S
O351 C358 1.247 . S
O352 Co350 2.091 . S
O352 C358 1.261 . S
C353 O362 1.247 . S
C353 O363 1.272 . S
O354 Co350 2.004 . S
O354 C359 1.259 . S
Co355 O356 2.061 . S
Co355 O361 2.052 . S
Co355 O363 2.135 . S
O356 Co355 2.061 . S
O356 C359 1.235 . S
C357 O360 1.238 . S
C357 O361 1.241 . S
C358 O351 1.247 . S
C358 O352 1.261 . S
C359 O354 1.259 . S
C359 O356 1.235 . S
O360 Co350 2.021 . S
O360 C357 1.238 . S
O361 Co355 2.052 . S
O361 C357 1.241 . S
O362 Co350 2.137 . S
O362 C353 1.247 . S
O363 Co350 2.244 . S
O363 C353 1.272 . S
O363 Co355 2.135 . S
Co364 O365 2.216 . S
Co364 O366 2.091 . S
Co364 O368 2.004 . S
Co364 O374 2.021 . S
Co364 O376 2.137 . S
Co364 O377 2.244 . S
O365 Co364 2.216 . S
O365 C372 1.247 . S
O366 Co364 2.091 . S
O366 C372 1.261 . S
C367 O376 1.247 . S
C367 O377 1.272 . S
O368 Co364 2.004 . S
O368 C373 1.259 . S
Co369 O370 2.061 . S
Co369 O375 2.052 . S
Co369 O377 2.135 . S
O370 Co369 2.061 . S
O370 C373 1.235 . S
C371 O374 1.238 . S
C371 O375 1.241 . S
C372 O365 1.247 . S
C372 O366 1.261 . S
C373 O368 1.259 . S
C373 O370 1.235 . S
O374 Co364 2.021 . S
O374 C371 1.238 . S
O375 Co369 2.052 . S
O375 C371 1.241 . S
O376 Co364 2.137 . S
O376 C367 1.247 . S
O377 Co364 2.244 . S
O377 C367 1.272 . S
O377 Co369 2.135 . S
Co378 O379 2.216 . S
Co378 O380 2.091 . S
Co378 O382 2.004 . S
Co378 O388 2.021 . S
Co378 O390 2.137 . S
Co378 O391 2.244 . S
O379 Co378 2.216 . S
O379 C386 1.247 . S
O380 Co378 2.091 . S
O380 C386 1.261 . S
C381 O390 1.247 . S
C381 O391 1.272 . S
O382 Co378 2.004 . S
O382 C387 1.259 . S
Co383 O384 2.061 . S
Co383 O389 2.052 . S
Co383 O391 2.135 . S
O384 Co383 2.061 . S
O384 C387 1.235 . S
C385 O388 1.238 . S
C385 O389 1.241 . S
C386 O379 1.247 . S
C386 O380 1.261 . S
C387 O382 1.259 . S
C387 O384 1.235 . S
O388 Co378 2.021 . S
O388 C385 1.238 . S
O389 Co383 2.052 . S
O389 C385 1.241 . S
O390 Co378 2.137 . S
O390 C381 1.247 . S
O391 Co378 2.244 . S
O391 C381 1.272 . S
O391 Co383 2.135 . S
Co392 O393 2.216 . S
Co392 O394 2.091 . S
Co392 O396 2.004 . S
Co392 O402 2.021 . S
Co392 O404 2.137 . S
Co392 O405 2.244 . S
O393 Co392 2.216 . S
O393 C400 1.247 . S
O394 Co392 2.091 . S
O394 C400 1.261 . S
C395 O404 1.247 . S
C395 O405 1.272 . S
O396 Co392 2.004 . S
O396 C401 1.259 . S
Co397 O398 2.061 . S
Co397 O403 2.052 . S
Co397 O405 2.135 . S
O398 Co397 2.061 . S
O398 C401 1.235 . S
C399 O402 1.238 . S
C399 O403 1.241 . S
C400 O393 1.247 . S
C400 O394 1.261 . S
C401 O396 1.259 . S
C401 O398 1.235 . S
O402 Co392 2.021 . S
O402 C399 1.238 . S
O403 Co397 2.052 . S
O403 C399 1.241 . S
O404 Co392 2.137 . S
O404 C395 1.247 . S
O405 Co392 2.244 . S
O405 C395 1.272 . S
O405 Co397 2.135 . S
Co406 O407 2.216 . S
Co406 O408 2.091 . S
Co406 O410 2.004 . S
Co406 O416 2.021 . S
Co406 O418 2.137 . S
Co406 O419 2.244 . S
O407 Co406 2.216 . S
O407 C414 1.247 . S
O408 Co406 2.091 . S
O408 C414 1.261 . S
C409 O418 1.247 . S
C409 O419 1.272 . S
O410 Co406 2.004 . S
O410 C415 1.259 . S
Co411 O412 2.061 . S
Co411 O417 2.052 . S
Co411 O419 2.135 . S
O412 Co411 2.061 . S
O412 C415 1.235 . S
C413 O416 1.238 . S
C413 O417 1.241 . S
C414 O407 1.247 . S
C414 O408 1.261 . S
C415 O410 1.259 . S
C415 O412 1.235 . S
O416 Co406 2.021 . S
O416 C413 1.238 . S
O417 Co411 2.052 . S
O417 C413 1.241 . S
O418 Co406 2.137 . S
O418 C409 1.247 . S
O419 Co406 2.244 . S
O419 C409 1.272 . S
O419 Co411 2.135 . S
Co420 O421 2.216 . S
Co420 O422 2.091 . S
Co420 O424 2.004 . S
Co420 O430 2.021 . S
Co420 O432 2.137 . S
Co420 O433 2.244 . S
O421 Co420 2.216 . S
O421 C428 1.247 . S
O422 Co420 2.091 . S
O422 C428 1.261 . S
C423 O432 1.247 . S
C423 O433 1.272 . S
O424 Co420 2.004 . S
O424 C429 1.259 . S
Co425 O426 2.061 . S
Co425 O431 2.052 . S
Co425 O433 2.135 . S
O426 Co425 2.061 . S
O426 C429 1.235 . S
C427 O430 1.238 . S
C427 O431 1.241 . S
C428 O421 1.247 . S
C428 O422 1.261 . S
C429 O424 1.259 . S
C429 O426 1.235 . S
O430 Co420 2.021 . S
O430 C427 1.238 . S
O431 Co425 2.052 . S
O431 C427 1.241 . S
O432 Co420 2.137 . S
O432 C423 1.247 . S
O433 Co420 2.244 . S
O433 C423 1.272 . S
O433 Co425 2.135 . S
Co434 O435 2.216 . S
Co434 O436 2.091 . S
Co434 O438 2.004 . S
Co434 O444 2.021 . S
Co434 O446 2.137 . S
Co434 O447 2.244 . S
O435 Co434 2.216 . S
O435 C442 1.247 . S
O436 Co434 2.091 . S
O436 C442 1.261 . S
C437 O446 1.247 . S
C437 O447 1.272 . S
O438 Co434 2.004 . S
O438 C443 1.259 . S
Co439 O440 2.061 . S
Co439 O445 2.052 . S
Co439 O447 2.135 . S
O440 Co439 2.061 . S
O440 C443 1.235 . S
C441 O444 1.238 . S
C441 O445 1.241 . S
C442 O435 1.247 . S
C442 O436 1.261 . S
C443 O438 1.259 . S
C443 O440 1.235 . S
O444 Co434 2.021 . S
O444 C441 1.238 . S
O445 Co439 2.052 . S
O445 C441 1.241 . S
O446 Co434 2.137 . S
O446 C437 1.247 . S
O447 Co434 2.244 . S
O447 C437 1.272 . S
O447 Co439 2.135 . S
Co448 O449 2.216 . S
Co448 O450 2.091 . S
Co448 O452 2.004 . S
Co448 O458 2.021 . S
Co448 O460 2.137 . S
Co448 O461 2.244 . S
O449 Co448 2.216 . S
O449 C456 1.247 . S
O450 Co448 2.091 . S
O450 C456 1.261 . S
C451 O460 1.247 . S
C451 O461 1.272 . S
O452 Co448 2.004 . S
O452 C457 1.259 . S
Co453 O454 2.061 . S
Co453 O459 2.052 . S
Co453 O461 2.135 . S
O454 Co453 2.061 . S
O454 C457 1.235 . S
C455 O458 1.238 . S
C455 O459 1.241 . S
C456 O449 1.247 . S
C456 O450 1.261 . S
C457 O452 1.259 . S
C457 O454 1.235 . S
O458 Co448 2.021 . S
O458 C455 1.238 . S
O459 Co453 2.052 . S
O459 C455 1.241 . S
O460 Co448 2.137 . S
O460 C451 1.247 . S
O461 Co448 2.244 . S
O461 C451 1.272 . S
O461 Co453 2.135 . S
Co462 O463 2.216 . S
Co462 O464 2.091 . S
Co462 O466 2.004 . S
Co462 O472 2.021 . S
Co462 O474 2.137 . S
Co462 O475 2.244 . S
O463 Co462 2.216 . S
O463 C470 1.247 . S
O464 Co462 2.091 . S
O464 C470 1.261 . S
C465 O474 1.247 . S
C465 O475 1.272 . S
O466 Co462 2.004 . S
O466 C471 1.259 . S
Co467 O468 2.061 . S
Co467 O473 2.052 . S
Co467 O475 2.135 . S
O468 Co467 2.061 . S
O468 C471 1.235 . S
C469 O472 1.238 . S
C469 O473 1.241 . S
C470 O463 1.247 . S
C470 O464 1.261 . S
C471 O466 1.259 . S
C471 O468 1.235 . S
O472 Co462 2.021 . S
O472 C469 1.238 . S
O473 Co467 2.052 . S
O473 C469 1.241 . S
O474 Co462 2.137 . S
O474 C465 1.247 . S
O475 Co462 2.244 . S
O475 C465 1.272 . S
O475 Co467 2.135 . S
Co476 O477 2.216 . S
Co476 O478 2.091 . S
Co476 O480 2.004 . S
Co476 O486 2.021 . S
Co476 O488 2.137 . S
Co476 O489 2.244 . S
O477 Co476 2.216 . S
O477 C484 1.247 . S
O478 Co476 2.091 . S
O478 C484 1.261 . S
C479 O488 1.247 . S
C479 O489 1.272 . S
O480 Co476 2.004 . S
O480 C485 1.259 . S
Co481 O482 2.061 . S
Co481 O487 2.052 . S
Co481 O489 2.135 . S
O482 Co481 2.061 . S
O482 C485 1.235 . S
C483 O486 1.238 . S
C483 O487 1.241 . S
C484 O477 1.247 . S
C484 O478 1.261 . S
C485 O480 1.259 . S
C485 O482 1.235 . S
O486 Co476 2.021 . S
O486 C483 1.238 . S
O487 Co481 2.052 . S
O487 C483 1.241 . S
O488 Co476 2.137 . S
O488 C479 1.247 . S
O489 Co476 2.244 . S
O489 C479 1.272 . S
O489 Co481 2.135 . S
Co490 O491 2.216 . S
Co490 O492 2.091 . S
Co490 O494 2.004 . S
Co490 O500 2.021 . S
Co490 O502 2.137 . S
Co490 O503 2.244 . S
O491 Co490 2.216 . S
O491 C498 1.247 . S
O492 Co490 2.091 . S
O492 C498 1.261 . S
C493 O502 1.247 . S
C493 O503 1.272 . S
O494 Co490 2.004 . S
O494 C499 1.259 . S
Co495 O496 2.061 . S
Co495 O501 2.052 . S
Co495 O503 2.135 . S
O496 Co495 2.061 . S
O496 C499 1.235 . S
C497 O500 1.238 . S
C497 O501 1.241 . S
C498 O491 1.247 . S
C498 O492 1.261 . S
C499 O494 1.259 . S
C499 O496 1.235 . S
O500 Co490 2.021 . S
O500 C497 1.238 . S
O501 Co495 2.052 . S
O501 C497 1.241 . S
O502 Co490 2.137 . S
O502 C493 1.247 . S
O503 Co490 2.244 . S
O503 C493 1.272 . S
O503 Co495 2.135 . S
H504 C522 0.951 . S
H505 C524 0.951 . S
H506 C526 0.950 . S
H507 C527 0.950 . S
H508 C529 0.950 . S
H509 C532 0.950 . S
H510 C533 0.950 . S
H511 C535 0.950 . S
H512 C536 0.950 . S
H513 C537 0.951 . S
H514 C539 0.951 . S
H515 C541 0.950 . S
H516 C542 0.950 . S
H517 C544 0.950 . S
H518 C547 0.950 . S
H519 C548 0.950 . S
H520 C550 0.950 . S
H521 C551 0.950 . S
C522 H504 0.951 . S
C522 C523 1.366 . S
C522 C524 1.388 . S
C523 C522 1.366 . S
C523 C527 1.385 . S
C524 H505 0.951 . S
C524 C522 1.388 . S
C524 C525 1.366 . S
C525 C524 1.366 . S
C525 C526 1.414 . S
C525 C528 1.499 . S
C526 H506 0.950 . S
C526 C525 1.414 . S
C526 C527 1.374 . S
C527 H507 0.950 . S
C527 C523 1.385 . S
C527 C526 1.374 . S
C528 C525 1.499 . S
C528 C529 1.373 . S
C528 C530 1.389 . S
C529 H508 0.950 . S
C529 C528 1.373 . S
C529 C545 1.377 . S
C530 C528 1.389 . S
C530 C531 1.524 . S
C530 C544 1.377 . S
C531 C530 1.524 . S
C531 C532 1.397 . S
C531 C536 1.363 . S
C532 H509 0.950 . S
C532 C531 1.397 . S
C532 C533 1.334 . S
C533 H510 0.950 . S
C533 C532 1.334 . S
C533 C534 1.287 . S
C534 C533 1.287 . S
C534 C535 1.524 . S
C534 H553 0.913 . S
C535 H511 0.950 . S
C535 C534 1.524 . S
C535 C536 1.415 . S
C536 H512 0.950 . S
C536 C531 1.363 . S
C536 C535 1.415 . S
C537 H513 0.951 . S
C537 C538 1.366 . S
C537 C539 1.388 . S
C538 C537 1.366 . S
C538 C542 1.385 . S
C539 H514 0.951 . S
C539 C537 1.388 . S
C539 C540 1.366 . S
C540 C539 1.366 . S
C540 C541 1.414 . S
C540 C543 1.499 . S
C541 H515 0.950 . S
C541 C540 1.414 . S
C541 C542 1.374 . S
C542 H516 0.950 . S
C542 C538 1.385 . S
C542 C541 1.374 . S
C543 C540 1.499 . S
C543 C544 1.373 . S
C543 C545 1.389 . S
C544 H517 0.950 . S
C544 C530 1.377 . S
C544 C543 1.373 . S
C545 C529 1.377 . S
C545 C543 1.389 . S
C545 C546 1.524 . S
C546 C545 1.524 . S
C546 C547 1.397 . S
C546 C551 1.363 . S
C547 H518 0.950 . S
C547 C546 1.397 . S
C547 C548 1.334 . S
C548 H519 0.950 . S
C548 C547 1.334 . S
C548 C549 1.287 . S
C549 C548 1.287 . S
C549 C550 1.524 . S
C549 H552 0.999 . S
C550 H520 0.950 . S
C550 C549 1.524 . S
C550 C551 1.415 . S
C551 H521 0.950 . S
C551 C546 1.363 . S
C551 C550 1.415 . S
H552 C549 0.999 . S
H553 C534 0.913 . S
H554 C572 0.951 . S
H555 C574 0.951 . S
H556 C576 0.950 . S
H557 C577 0.950 . S
H558 C579 0.950 . S
H559 C582 0.950 . S
H560 C583 0.950 . S
H561 C585 0.950 . S
H562 C586 0.950 . S
H563 C587 0.951 . S
H564 C589 0.951 . S
H565 C591 0.950 . S
H566 C592 0.950 . S
H567 C594 0.950 . S
H568 C597 0.950 . S
H569 C598 0.950 . S
H570 C600 0.950 . S
H571 C601 0.950 . S
C572 H554 0.951 . S
C572 C573 1.366 . S
C572 C574 1.388 . S
C573 C572 1.366 . S
C573 C577 1.385 . S
C574 H555 0.951 . S
C574 C572 1.388 . S
C574 C575 1.366 . S
C575 C574 1.366 . S
C575 C576 1.414 . S
C575 C578 1.499 . S
C576 H556 0.950 . S
C576 C575 1.414 . S
C576 C577 1.374 . S
C577 H557 0.950 . S
C577 C573 1.385 . S
C577 C576 1.374 . S
C578 C575 1.499 . S
C578 C579 1.373 . S
C578 C580 1.389 . S
C579 H558 0.950 . S
C579 C578 1.373 . S
C579 C595 1.377 . S
C580 C578 1.389 . S
C580 C581 1.524 . S
C580 C594 1.377 . S
C581 C580 1.524 . S
C581 C582 1.397 . S
C581 C586 1.363 . S
C582 H559 0.950 . S
C582 C581 1.397 . S
C582 C583 1.334 . S
C583 H560 0.950 . S
C583 C582 1.334 . S
C583 C584 1.287 . S
C584 C583 1.287 . S
C584 C585 1.524 . S
C584 H603 0.913 . S
C585 H561 0.950 . S
C585 C584 1.524 . S
C585 C586 1.415 . S
C586 H562 0.950 . S
C586 C581 1.363 . S
C586 C585 1.415 . S
C587 H563 0.951 . S
C587 C588 1.366 . S
C587 C589 1.388 . S
C588 C587 1.366 . S
C588 C592 1.385 1_556 S
C589 H564 0.951 . S
C589 C587 1.388 . S
C589 C590 1.366 . S
C590 C589 1.366 . S
C590 C591 1.414 . S
C590 C593 1.499 . S
C591 H565 0.950 . S
C591 C590 1.414 . S
C591 C592 1.374 1_556 S
C592 H566 0.950 . S
C592 C588 1.385 1_554 S
C592 C591 1.374 1_554 S
C593 C590 1.499 . S
C593 C594 1.373 . S
C593 C595 1.389 . S
C594 H567 0.950 . S
C594 C580 1.377 . S
C594 C593 1.373 . S
C595 C579 1.377 . S
C595 C593 1.389 . S
C595 C596 1.524 . S
C596 C595 1.524 . S
C596 C597 1.397 . S
C596 C601 1.363 . S
C597 H568 0.950 . S
C597 C596 1.397 . S
C597 C598 1.334 1_545 S
C598 H569 0.950 . S
C598 C597 1.334 1_565 S
C598 C599 1.287 . S
C599 C598 1.287 . S
C599 C600 1.524 . S
C599 H602 0.999 . S
C600 H570 0.950 . S
C600 C599 1.524 . S
C600 C601 1.415 1_565 S
C601 H571 0.950 . S
C601 C596 1.363 . S
C601 C600 1.415 1_545 S
H602 C599 0.999 . S
H603 C584 0.913 . S
H604 C622 0.951 . S
H605 C624 0.951 . S
H606 C626 0.950 . S
H607 C627 0.950 . S
H608 C629 0.950 . S
H609 C632 0.950 . S
H610 C633 0.950 . S
H611 C635 0.950 . S
H612 C636 0.950 . S
H613 C637 0.951 . S
H614 C639 0.951 . S
H615 C641 0.950 . S
H616 C642 0.950 . S
H617 C644 0.950 . S
H618 C647 0.950 . S
H619 C648 0.950 . S
H620 C650 0.950 . S
H621 C651 0.950 . S
C622 H604 0.951 . S
C622 C623 1.366 . S
C622 C624 1.388 . S
C623 C622 1.366 . S
C623 C627 1.385 . S
C624 H605 0.951 . S
C624 C622 1.388 . S
C624 C625 1.366 . S
C625 C624 1.366 . S
C625 C626 1.414 . S
C625 C628 1.499 . S
C626 H606 0.950 . S
C626 C625 1.414 . S
C626 C627 1.374 . S
C627 H607 0.950 . S
C627 C623 1.385 . S
C627 C626 1.374 . S
C628 C625 1.499 . S
C628 C629 1.373 . S
C628 C630 1.389 . S
C629 H608 0.950 . S
C629 C628 1.373 . S
C629 C645 1.377 . S
C630 C628 1.389 . S
C630 C631 1.524 . S
C630 C644 1.377 . S
C631 C630 1.524 . S
C631 C632 1.397 . S
C631 C636 1.363 . S
C632 H609 0.950 . S
C632 C631 1.397 . S
C632 C633 1.334 . S
C633 H610 0.950 . S
C633 C632 1.334 . S
C633 C634 1.287 1_655 S
C634 C633 1.287 1_455 S
C634 C635 1.524 . S
C634 H653 0.913 . S
C635 H611 0.950 . S
C635 C634 1.524 . S
C635 C636 1.415 1_455 S
C636 H612 0.950 . S
C636 C631 1.363 . S
C636 C635 1.415 1_655 S
C637 H613 0.951 . S
C637 C638 1.366 . S
C637 C639 1.388 . S
C638 C637 1.366 . S
C638 C642 1.385 . S
C639 H614 0.951 . S
C639 C637 1.388 . S
C639 C640 1.366 . S
C640 C639 1.366 . S
C640 C641 1.414 . S
C640 C643 1.499 . S
C641 H615 0.950 . S
C641 C640 1.414 . S
C641 C642 1.374 . S
C642 H616 0.950 . S
C642 C638 1.385 . S
C642 C641 1.374 . S
C643 C640 1.499 . S
C643 C644 1.373 . S
C643 C645 1.389 . S
C644 H617 0.950 . S
C644 C630 1.377 . S
C644 C643 1.373 . S
C645 C629 1.377 . S
C645 C643 1.389 . S
C645 C646 1.524 . S
C646 C645 1.524 . S
C646 C647 1.397 . S
C646 C651 1.363 . S
C647 H618 0.950 . S
C647 C646 1.397 . S
C647 C648 1.334 . S
C648 H619 0.950 . S
C648 C647 1.334 . S
C648 C649 1.287 . S
C649 C648 1.287 . S
C649 C650 1.524 . S
C649 H652 0.999 . S
C650 H620 0.950 . S
C650 C649 1.524 . S
C650 C651 1.415 . S
C651 H621 0.950 . S
C651 C646 1.363 . S
C651 C650 1.415 . S
H652 C649 0.999 . S
H653 C634 0.913 . S
H654 C672 0.951 . S
H655 C674 0.951 . S
H656 C676 0.950 . S
H657 C677 0.950 . S
H658 C679 0.950 . S
H659 C682 0.950 . S
H660 C683 0.950 . S
H661 C685 0.950 . S
H662 C686 0.950 . S
H663 C687 0.951 . S
H664 C689 0.951 . S
H665 C691 0.950 . S
H666 C692 0.950 . S
H667 C694 0.950 . S
H668 C697 0.950 . S
H669 C698 0.950 . S
H670 C700 0.950 . S
H671 C701 0.950 . S
C672 H654 0.951 . S
C672 C673 1.366 . S
C672 C674 1.388 . S
C673 C672 1.366 . S
C673 C677 1.385 . S
C674 H655 0.951 . S
C674 C672 1.388 . S
C674 C675 1.366 . S
C675 C674 1.366 . S
C675 C676 1.414 . S
C675 C678 1.499 . S
C676 H656 0.950 . S
C676 C675 1.414 . S
C676 C677 1.374 . S
C677 H657 0.950 . S
C677 C673 1.385 . S
C677 C676 1.374 . S
C678 C675 1.499 . S
C678 C679 1.373 . S
C678 C680 1.389 . S
C679 H658 0.950 . S
C679 C678 1.373 . S
C679 C695 1.377 . S
C680 C678 1.389 . S
C680 C681 1.524 . S
C680 C694 1.377 . S
C681 C680 1.524 . S
C681 C682 1.397 . S
C681 C686 1.363 . S
C682 H659 0.950 . S
C682 C681 1.397 . S
C682 C683 1.334 . S
C683 H660 0.950 . S
C683 C682 1.334 . S
C683 C684 1.287 . S
C684 C683 1.287 . S
C684 C685 1.524 . S
C684 H703 0.913 . S
C685 H661 0.950 . S
C685 C684 1.524 . S
C685 C686 1.415 . S
C686 H662 0.950 . S
C686 C681 1.363 . S
C686 C685 1.415 . S
C687 H663 0.951 . S
C687 C688 1.366 . S
C687 C689 1.388 . S
C688 C687 1.366 . S
C688 C692 1.385 . S
C689 H664 0.951 . S
C689 C687 1.388 . S
C689 C690 1.366 . S
C690 C689 1.366 . S
C690 C691 1.414 . S
C690 C693 1.499 . S
C691 H665 0.950 . S
C691 C690 1.414 . S
C691 C692 1.374 . S
C692 H666 0.950 . S
C692 C688 1.385 . S
C692 C691 1.374 . S
C693 C690 1.499 . S
C693 C694 1.373 . S
C693 C695 1.389 . S
C694 H667 0.950 . S
C694 C680 1.377 . S
C694 C693 1.373 . S
C695 C679 1.377 . S
C695 C693 1.389 . S
C695 C696 1.524 . S
C696 C695 1.524 . S
C696 C697 1.397 . S
C696 C701 1.363 . S
C697 H668 0.950 . S
C697 C696 1.397 . S
C697 C698 1.334 . S
C698 H669 0.950 . S
C698 C697 1.334 . S
C698 C699 1.287 . S
C699 C698 1.287 . S
C699 C700 1.524 . S
C699 H702 0.999 . S
C700 H670 0.950 . S
C700 C699 1.524 . S
C700 C701 1.415 . S
C701 H671 0.950 . S
C701 C696 1.363 . S
C701 C700 1.415 . S
H702 C699 0.999 . S
H703 C684 0.913 . S
H704 C722 0.951 . S
H705 C724 0.951 . S
H706 C726 0.950 . S
H707 C727 0.950 . S
H708 C729 0.950 . S
H709 C732 0.950 . S
H710 C733 0.950 . S
H711 C735 0.950 . S
H712 C736 0.950 . S
H713 C737 0.951 . S
H714 C739 0.951 . S
H715 C741 0.950 . S
H716 C742 0.950 . S
H717 C744 0.950 . S
H718 C747 0.950 . S
H719 C748 0.950 . S
H720 C750 0.950 . S
H721 C751 0.950 . S
C722 H704 0.951 . S
C722 C723 1.366 . S
C722 C724 1.388 . S
C723 C722 1.366 . S
C723 C727 1.385 . S
C724 H705 0.951 . S
C724 C722 1.388 . S
C724 C725 1.366 . S
C725 C724 1.366 . S
C725 C726 1.414 . S
C725 C728 1.499 . S
C726 H706 0.950 . S
C726 C725 1.414 . S
C726 C727 1.374 . S
C727 H707 0.950 . S
C727 C723 1.385 . S
C727 C726 1.374 . S
C728 C725 1.499 . S
C728 C729 1.373 . S
C728 C730 1.389 . S
C729 H708 0.950 . S
C729 C728 1.373 . S
C729 C745 1.377 . S
C730 C728 1.389 . S
C730 C731 1.524 . S
C730 C744 1.377 . S
C731 C730 1.524 . S
C731 C732 1.397 . S
C731 C736 1.363 . S
C732 H709 0.950 . S
C732 C731 1.397 . S
C732 C733 1.334 . S
C733 H710 0.950 . S
C733 C732 1.334 . S
C733 C734 1.287 . S
C734 C733 1.287 . S
C734 C735 1.524 . S
C734 H753 0.913 . S
C735 H711 0.950 . S
C735 C734 1.524 . S
C735 C736 1.415 . S
C736 H712 0.950 . S
C736 C731 1.363 . S
C736 C735 1.415 . S
C737 H713 0.951 . S
C737 C738 1.366 . S
C737 C739 1.388 . S
C738 C737 1.366 . S
C738 C742 1.385 . S
C739 H714 0.951 . S
C739 C737 1.388 . S
C739 C740 1.366 . S
C740 C739 1.366 . S
C740 C741 1.414 . S
C740 C743 1.499 . S
C741 H715 0.950 . S
C741 C740 1.414 . S
C741 C742 1.374 . S
C742 H716 0.950 . S
C742 C738 1.385 . S
C742 C741 1.374 . S
C743 C740 1.499 . S
C743 C744 1.373 . S
C743 C745 1.389 . S
C744 H717 0.950 . S
C744 C730 1.377 . S
C744 C743 1.373 . S
C745 C729 1.377 . S
C745 C743 1.389 . S
C745 C746 1.524 . S
C746 C745 1.524 . S
C746 C747 1.397 . S
C746 C751 1.363 . S
C747 H718 0.950 . S
C747 C746 1.397 . S
C747 C748 1.334 . S
C748 H719 0.950 . S
C748 C747 1.334 . S
C748 C749 1.287 1_565 S
C749 C748 1.287 1_545 S
C749 C750 1.524 . S
C749 H752 0.999 . S
C750 H720 0.950 . S
C750 C749 1.524 . S
C750 C751 1.415 1_545 S
C751 H721 0.950 . S
C751 C746 1.363 . S
C751 C750 1.415 1_565 S
H752 C749 0.999 . S
H753 C734 0.913 . S
H754 C772 0.951 . S
H755 C774 0.951 . S
H756 C776 0.950 . S
H757 C777 0.950 . S
H758 C779 0.950 . S
H759 C782 0.950 . S
H760 C783 0.950 . S
H761 C785 0.950 . S
H762 C786 0.950 . S
H763 C787 0.951 . S
H764 C789 0.951 . S
H765 C791 0.950 . S
H766 C792 0.950 . S
H767 C794 0.950 . S
H768 C797 0.950 . S
H769 C798 0.950 . S
H770 C800 0.950 . S
H771 C801 0.950 . S
C772 H754 0.951 . S
C772 C773 1.366 . S
C772 C774 1.388 . S
C773 C772 1.366 . S
C773 C777 1.385 . S
C774 H755 0.951 . S
C774 C772 1.388 . S
C774 C775 1.366 . S
C775 C774 1.366 . S
C775 C776 1.414 . S
C775 C778 1.499 . S
C776 H756 0.950 . S
C776 C775 1.414 . S
C776 C777 1.374 . S
C777 H757 0.950 . S
C777 C773 1.385 . S
C777 C776 1.374 . S
C778 C775 1.499 . S
C778 C779 1.373 . S
C778 C780 1.389 . S
C779 H758 0.950 . S
C779 C778 1.373 . S
C779 C795 1.377 . S
C780 C778 1.389 . S
C780 C781 1.524 . S
C780 C794 1.377 . S
C781 C780 1.524 . S
C781 C782 1.397 . S
C781 C786 1.363 . S
C782 H759 0.950 . S
C782 C781 1.397 . S
C782 C783 1.334 . S
C783 H760 0.950 . S
C783 C782 1.334 . S
C783 C784 1.287 . S
C784 C783 1.287 . S
C784 C785 1.524 . S
C784 H803 0.913 . S
C785 H761 0.950 . S
C785 C784 1.524 . S
C785 C786 1.415 . S
C786 H762 0.950 . S
C786 C781 1.363 . S
C786 C785 1.415 . S
C787 H763 0.951 . S
C787 C788 1.366 . S
C787 C789 1.388 . S
C788 C787 1.366 . S
C788 C792 1.385 . S
C789 H764 0.951 . S
C789 C787 1.388 . S
C789 C790 1.366 . S
C790 C789 1.366 . S
C790 C791 1.414 . S
C790 C793 1.499 . S
C791 H765 0.950 . S
C791 C790 1.414 . S
C791 C792 1.374 . S
C792 H766 0.950 . S
C792 C788 1.385 . S
C792 C791 1.374 . S
C793 C790 1.499 . S
C793 C794 1.373 . S
C793 C795 1.389 . S
C794 H767 0.950 . S
C794 C780 1.377 . S
C794 C793 1.373 . S
C795 C779 1.377 . S
C795 C793 1.389 . S
C795 C796 1.524 . S
C796 C795 1.524 . S
C796 C797 1.397 . S
C796 C801 1.363 . S
C797 H768 0.950 . S
C797 C796 1.397 . S
C797 C798 1.334 . S
C798 H769 0.950 . S
C798 C797 1.334 . S
C798 C799 1.287 . S
C799 C798 1.287 . S
C799 C800 1.524 . S
C799 H802 0.999 . S
C800 H770 0.950 . S
C800 C799 1.524 . S
C800 C801 1.415 . S
C801 H771 0.950 . S
C801 C796 1.363 . S
C801 C800 1.415 . S
H802 C799 0.999 . S
H803 C784 0.913 . S
H804 C822 0.951 . S
H805 C824 0.951 . S
H806 C826 0.950 . S
H807 C827 0.950 . S
H808 C829 0.950 . S
H809 C832 0.950 . S
H810 C833 0.950 . S
H811 C835 0.950 . S
H812 C836 0.950 . S
H813 C837 0.951 . S
H814 C839 0.951 . S
H815 C841 0.950 . S
H816 C842 0.950 . S
H817 C844 0.950 . S
H818 C847 0.950 . S
H819 C848 0.950 . S
H820 C850 0.950 . S
H821 C851 0.950 . S
C822 H804 0.951 . S
C822 C823 1.366 . S
C822 C824 1.388 . S
C823 C822 1.366 . S
C823 C827 1.385 . S
C824 H805 0.951 . S
C824 C822 1.388 . S
C824 C825 1.366 . S
C825 C824 1.366 . S
C825 C826 1.414 . S
C825 C828 1.499 . S
C826 H806 0.950 . S
C826 C825 1.414 . S
C826 C827 1.374 . S
C827 H807 0.950 . S
C827 C823 1.385 . S
C827 C826 1.374 . S
C828 C825 1.499 . S
C828 C829 1.373 . S
C828 C830 1.389 . S
C829 H808 0.950 . S
C829 C828 1.373 . S
C829 C845 1.377 . S
C830 C828 1.389 . S
C830 C831 1.524 . S
C830 C844 1.377 . S
C831 C830 1.524 . S
C831 C832 1.397 . S
C831 C836 1.363 . S
C832 H809 0.950 . S
C832 C831 1.397 . S
C832 C833 1.334 . S
C833 H810 0.950 . S
C833 C832 1.334 . S
C833 C834 1.287 . S
C834 C833 1.287 . S
C834 C835 1.524 . S
C834 H853 0.913 . S
C835 H811 0.950 . S
C835 C834 1.524 . S
C835 C836 1.415 . S
C836 H812 0.950 . S
C836 C831 1.363 . S
C836 C835 1.415 . S
C837 H813 0.951 . S
C837 C838 1.366 . S
C837 C839 1.388 . S
C838 C837 1.366 . S
C838 C842 1.385 1_554 S
C839 H814 0.951 . S
C839 C837 1.388 . S
C839 C840 1.366 . S
C840 C839 1.366 . S
C840 C841 1.414 . S
C840 C843 1.499 . S
C841 H815 0.950 . S
C841 C840 1.414 . S
C841 C842 1.374 1_554 S
C842 H816 0.950 . S
C842 C838 1.385 1_556 S
C842 C841 1.374 1_556 S
C843 C840 1.499 . S
C843 C844 1.373 . S
C843 C845 1.389 . S
C844 H817 0.950 . S
C844 C830 1.377 . S
C844 C843 1.373 . S
C845 C829 1.377 . S
C845 C843 1.389 . S
C845 C846 1.524 . S
C846 C845 1.524 . S
C846 C847 1.397 . S
C846 C851 1.363 . S
C847 H818 0.950 . S
C847 C846 1.397 . S
C847 C848 1.334 . S
C848 H819 0.950 . S
C848 C847 1.334 . S
C848 C849 1.287 . S
C849 C848 1.287 . S
C849 C850 1.524 . S
C849 H852 0.999 . S
C850 H820 0.950 . S
C850 C849 1.524 . S
C850 C851 1.415 . S
C851 H821 0.950 . S
C851 C846 1.363 . S
C851 C850 1.415 . S
H852 C849 0.999 . S
H853 C834 0.913 . S
H854 C872 0.951 . S
H855 C874 0.951 . S
H856 C876 0.950 . S
H857 C877 0.950 . S
H858 C879 0.950 . S
H859 C882 0.950 . S
H860 C883 0.950 . S
H861 C885 0.950 . S
H862 C886 0.950 . S
H863 C887 0.958 . S
H864 C889 0.951 . S
H865 C891 0.950 . S
H866 C892 0.950 . S
H867 C894 0.950 . S
H868 C897 0.950 . S
H869 C898 0.950 . S
H870 C900 0.950 . S
H871 C901 0.950 . S
C872 H854 0.951 . S
C872 C873 1.366 . S
C872 C874 1.388 . S
C873 C872 1.366 . S
C873 C877 1.385 . S
C874 H855 0.951 . S
C874 C872 1.388 . S
C874 C875 1.366 . S
C875 C874 1.366 . S
C875 C876 1.414 . S
C875 C878 1.499 . S
C876 H856 0.950 . S
C876 C875 1.414 . S
C876 C877 1.374 . S
C877 H857 0.950 . S
C877 C873 1.385 . S
C877 C876 1.374 . S
C878 C875 1.499 . S
C878 C879 1.373 . S
C878 C880 1.389 . S
C879 H858 0.950 . S
C879 C878 1.373 . S
C879 C895 1.377 . S
C880 C878 1.389 . S
C880 C881 1.524 . S
C880 C894 1.377 . S
C881 C880 1.524 . S
C881 C882 1.397 . S
C881 C886 1.363 . S
C882 H859 0.950 . S
C882 C881 1.397 . S
C882 C883 1.334 . S
C883 H860 0.950 . S
C883 C882 1.334 . S
C883 C884 1.287 . S
C884 C883 1.287 . S
C884 C885 1.524 . S
C884 H903 0.913 . S
C885 H861 0.950 . S
C885 C884 1.524 . S
C885 C886 1.415 . S
C886 H862 0.950 . S
C886 C881 1.363 . S
C886 C885 1.415 . S
C887 H863 0.958 . S
C887 C888 1.363 1_556 S
C887 C889 1.383 1_556 S
C888 C887 1.363 1_554 S
C888 C892 1.385 . S
C889 H864 0.951 . S
C889 C887 1.383 1_554 S
C889 C890 1.366 . S
C890 C889 1.366 . S
C890 C891 1.414 . S
C890 C893 1.499 . S
C891 H865 0.950 . S
C891 C890 1.414 . S
C891 C892 1.374 . S
C892 H866 0.950 . S
C892 C888 1.385 . S
C892 C891 1.374 . S
C893 C890 1.499 . S
C893 C894 1.373 . S
C893 C895 1.389 . S
C894 H867 0.950 . S
C894 C880 1.377 . S
C894 C893 1.373 . S
C895 C879 1.377 . S
C895 C893 1.389 . S
C895 C896 1.524 . S
C896 C895 1.524 . S
C896 C897 1.397 . S
C896 C901 1.363 . S
C897 H868 0.950 . S
C897 C896 1.397 . S
C897 C898 1.334 . S
C898 H869 0.950 . S
C898 C897 1.334 . S
C898 C899 1.287 1_554 S
C899 C898 1.287 1_556 S
C899 C900 1.524 . S
C899 H902 0.999 . S
C900 H870 0.950 . S
C900 C899 1.524 . S
C900 C901 1.415 1_556 S
C901 H871 0.950 . S
C901 C896 1.363 . S
C901 C900 1.415 1_554 S
H902 C899 0.999 . S
H903 C884 0.913 . S
H904 C922 0.951 . S
H905 C924 0.951 . S
H906 C926 0.950 . S
H907 C927 0.950 . S
H908 C929 0.950 . S
H909 C932 0.950 . S
H910 C933 0.950 . S
H911 C935 0.950 . S
H912 C936 0.950 . S
H913 C937 0.951 . S
H914 C939 0.951 . S
H915 C941 0.950 . S
H916 C942 0.950 1_556 S
H917 C944 0.950 . S
H918 C947 0.950 . S
H919 C948 0.950 . S
H920 C950 0.950 . S
H921 C951 0.950 . S
C922 H904 0.951 . S
C922 C923 1.366 . S
C922 C924 1.388 . S
C923 C922 1.366 . S
C923 C927 1.385 . S
C924 H905 0.951 . S
C924 C922 1.388 . S
C924 C925 1.366 . S
C925 C924 1.366 . S
C925 C926 1.414 . S
C925 C928 1.499 . S
C926 H906 0.950 . S
C926 C925 1.414 . S
C926 C927 1.374 . S
C927 H907 0.950 . S
C927 C923 1.385 . S
C927 C926 1.374 . S
C928 C925 1.499 . S
C928 C929 1.373 . S
C928 C930 1.389 . S
C929 H908 0.950 . S
C929 C928 1.373 . S
C929 C945 1.377 . S
C930 C928 1.389 . S
C930 C931 1.524 . S
C930 C944 1.377 . S
C931 C930 1.524 . S
C931 C932 1.397 . S
C931 C936 1.363 . S
C932 H909 0.950 . S
C932 C931 1.397 . S
C932 C933 1.334 . S
C933 H910 0.950 . S
C933 C932 1.334 . S
C933 C934 1.287 . S
C934 C933 1.287 . S
C934 C935 1.524 . S
C934 H953 0.913 . S
C935 H911 0.950 . S
C935 C934 1.524 . S
C935 C936 1.415 . S
C936 H912 0.950 . S
C936 C931 1.363 . S
C936 C935 1.415 . S
C937 H913 0.951 . S
C937 C938 1.366 . S
C937 C939 1.388 . S
C938 C937 1.366 . S
C938 C942 1.385 . S
C939 H914 0.951 . S
C939 C937 1.388 . S
C939 C940 1.366 . S
C940 C939 1.366 . S
C940 C941 1.414 . S
C940 C943 1.499 . S
C941 H915 0.950 . S
C941 C940 1.414 . S
C941 C942 1.374 . S
C942 H916 0.950 1_554 S
C942 C938 1.385 . S
C942 C941 1.374 . S
C943 C940 1.499 . S
C943 C944 1.373 . S
C943 C945 1.389 . S
C944 H917 0.950 . S
C944 C930 1.377 . S
C944 C943 1.373 . S
C945 C929 1.377 . S
C945 C943 1.389 . S
C945 C946 1.524 . S
C946 C945 1.524 . S
C946 C947 1.397 . S
C946 C951 1.363 . S
C947 H918 0.950 . S
C947 C946 1.397 . S
C947 C948 1.334 . S
C948 H919 0.950 . S
C948 C947 1.334 . S
C948 C949 1.287 . S
C949 C948 1.287 . S
C949 C950 1.524 . S
C949 H952 0.999 . S
C950 H920 0.950 . S
C950 C949 1.524 . S
C950 C951 1.415 . S
C951 H921 0.950 . S
C951 C946 1.363 . S
C951 C950 1.415 . S
H952 C949 0.999 . S
H953 C934 0.913 . S
H954 C972 0.951 . S
H955 C974 0.951 . S
H956 C976 0.950 . S
H957 C977 0.950 . S
H958 C979 0.950 . S
H959 C982 0.950 . S
H960 C983 0.950 . S
H961 C985 0.950 . S
H962 C986 0.950 . S
H963 C987 0.951 . S
H964 C989 0.951 . S
H965 C991 0.950 . S
H966 C992 0.950 . S
H967 C994 0.950 . S
H968 C997 0.950 . S
H969 C998 0.950 . S
H970 C1000 0.950 . S
H971 C1001 0.950 . S
C972 H954 0.951 . S
C972 C973 1.366 . S
C972 C974 1.388 . S
C973 C972 1.366 . S
C973 C977 1.385 . S
C974 H955 0.951 . S
C974 C972 1.388 . S
C974 C975 1.366 . S
C975 C974 1.366 . S
C975 C976 1.414 . S
C975 C978 1.499 . S
C976 H956 0.950 . S
C976 C975 1.414 . S
C976 C977 1.374 . S
C977 H957 0.950 . S
C977 C973 1.385 . S
C977 C976 1.374 . S
C978 C975 1.499 . S
C978 C979 1.373 . S
C978 C980 1.389 . S
C979 H958 0.950 . S
C979 C978 1.373 . S
C979 C995 1.377 . S
C980 C978 1.389 . S
C980 C981 1.524 . S
C980 C994 1.377 . S
C981 C980 1.524 . S
C981 C982 1.397 . S
C981 C986 1.363 . S
C982 H959 0.950 . S
C982 C981 1.397 . S
C982 C983 1.334 . S
C983 H960 0.950 . S
C983 C982 1.334 . S
C983 C984 1.287 . S
C984 C983 1.287 . S
C984 C985 1.524 . S
C984 H1003 0.913 . S
C985 H961 0.950 . S
C985 C984 1.524 . S
C985 C986 1.415 . S
C986 H962 0.950 . S
C986 C981 1.363 . S
C986 C985 1.415 . S
C987 H963 0.951 . S
C987 C988 1.366 . S
C987 C989 1.388 . S
C988 C987 1.366 . S
C988 C992 1.385 . S
C989 H964 0.951 . S
C989 C987 1.388 . S
C989 C990 1.366 . S
C990 C989 1.366 . S
C990 C991 1.414 . S
C990 C993 1.499 . S
C991 H965 0.950 . S
C991 C990 1.414 . S
C991 C992 1.374 . S
C992 H966 0.950 . S
C992 C988 1.385 . S
C992 C991 1.374 . S
C993 C990 1.499 . S
C993 C994 1.373 . S
C993 C995 1.389 . S
C994 H967 0.950 . S
C994 C980 1.377 . S
C994 C993 1.373 . S
C995 C979 1.377 . S
C995 C993 1.389 . S
C995 C996 1.524 . S
C996 C995 1.524 . S
C996 C997 1.397 . S
C996 C1001 1.363 . S
C997 H968 0.950 . S
C997 C996 1.397 . S
C997 C998 1.334 . S
C998 H969 0.950 . S
C998 C997 1.334 . S
C998 C999 1.287 . S
C999 C998 1.287 . S
C999 C1000 1.524 . S
C999 H1002 0.999 . S
C1000 H970 0.950 . S
C1000 C999 1.524 . S
C1000 C1001 1.415 . S
C1001 H971 0.950 . S
C1001 C996 1.363 . S
C1001 C1000 1.415 . S
H1002 C999 0.999 . S
H1003 C984 0.913 . S
H1004 C1022 0.951 . S
H1005 C1024 0.951 . S
H1006 C1026 0.950 . S
H1007 C1027 0.950 . S
H1008 C1029 0.950 . S
H1009 C1032 0.950 . S
H1010 C1033 0.950 . S
H1011 C1035 0.950 . S
H1012 C1036 0.950 . S
H1013 C1037 0.951 . S
H1014 C1039 0.951 . S
H1015 C1041 0.950 . S
H1016 C1042 0.950 . S
H1017 C1044 0.950 . S
H1018 C1047 0.950 . S
H1019 C1048 0.950 . S
H1020 C1050 0.950 . S
H1021 C1051 0.950 . S
C1022 H1004 0.951 . S
C1022 C1023 1.366 . S
C1022 C1024 1.388 . S
C1023 C1022 1.366 . S
C1023 C1027 1.385 . S
C1024 H1005 0.951 . S
C1024 C1022 1.388 . S
C1024 C1025 1.366 . S
C1025 C1024 1.366 . S
C1025 C1026 1.414 . S
C1025 C1028 1.499 . S
C1026 H1006 0.950 . S
C1026 C1025 1.414 . S
C1026 C1027 1.374 . S
C1027 H1007 0.950 . S
C1027 C1023 1.385 . S
C1027 C1026 1.374 . S
C1028 C1025 1.499 . S
C1028 C1029 1.373 . S
C1028 C1030 1.389 . S
C1029 H1008 0.950 . S
C1029 C1028 1.373 . S
C1029 C1045 1.377 . S
C1030 C1028 1.389 . S
C1030 C1031 1.524 . S
C1030 C1044 1.377 . S
C1031 C1030 1.524 . S
C1031 C1032 1.397 . S
C1031 C1036 1.363 . S
C1032 H1009 0.950 . S
C1032 C1031 1.397 . S
C1032 C1033 1.334 1_545 S
C1033 H1010 0.950 . S
C1033 C1032 1.334 1_565 S
C1033 C1034 1.287 . S
C1034 C1033 1.287 . S
C1034 C1035 1.524 . S
C1034 H1053 0.913 . S
C1035 H1011 0.950 . S
C1035 C1034 1.524 . S
C1035 C1036 1.415 1_565 S
C1036 H1012 0.950 . S
C1036 C1031 1.363 . S
C1036 C1035 1.415 1_545 S
C1037 H1013 0.951 . S
C1037 C1038 1.366 . S
C1037 C1039 1.388 . S
C1038 C1037 1.366 . S
C1038 C1042 1.385 . S
C1039 H1014 0.951 . S
C1039 C1037 1.388 . S
C1039 C1040 1.366 . S
C1040 C1039 1.366 . S
C1040 C1041 1.414 . S
C1040 C1043 1.499 . S
C1041 H1015 0.950 . S
C1041 C1040 1.414 . S
C1041 C1042 1.374 . S
C1042 H1016 0.950 . S
C1042 C1038 1.385 . S
C1042 C1041 1.374 . S
C1043 C1040 1.499 . S
C1043 C1044 1.373 . S
C1043 C1045 1.389 . S
C1044 H1017 0.950 . S
C1044 C1030 1.377 . S
C1044 C1043 1.373 . S
C1045 C1029 1.377 . S
C1045 C1043 1.389 . S
C1045 C1046 1.524 . S
C1046 C1045 1.524 . S
C1046 C1047 1.397 . S
C1046 C1051 1.363 . S
C1047 H1018 0.950 . S
C1047 C1046 1.397 . S
C1047 C1048 1.334 . S
C1048 H1019 0.950 . S
C1048 C1047 1.334 . S
C1048 C1049 1.287 . S
C1049 C1048 1.287 . S
C1049 C1050 1.524 . S
C1049 H1052 0.999 . S
C1050 H1020 0.950 . S
C1050 C1049 1.524 . S
C1050 C1051 1.415 . S
C1051 H1021 0.950 . S
C1051 C1046 1.363 . S
C1051 C1050 1.415 . S
H1052 C1049 0.999 . S
H1053 C1034 0.913 . S
H1054 C1072 0.951 . S
H1055 C1074 0.951 . S
H1056 C1076 0.950 . S
H1057 C1077 0.950 . S
H1058 C1079 0.950 . S
H1059 C1082 0.950 . S
H1060 C1083 0.950 . S
H1061 C1085 0.950 . S
H1062 C1086 0.950 . S
H1063 C1087 0.951 . S
H1064 C1089 0.951 . S
H1065 C1091 0.950 . S
H1066 C1092 0.950 . S
H1067 C1094 0.950 . S
H1068 C1097 0.950 . S
H1069 C1098 0.950 . S
H1070 C1100 0.950 . S
H1071 C1101 0.950 . S
C1072 H1054 0.951 . S
C1072 C1073 1.366 . S
C1072 C1074 1.388 . S
C1073 C1072 1.366 . S
C1073 C1077 1.385 . S
C1074 H1055 0.951 . S
C1074 C1072 1.388 . S
C1074 C1075 1.366 . S
C1075 C1074 1.366 . S
C1075 C1076 1.414 . S
C1075 C1078 1.499 . S
C1076 H1056 0.950 . S
C1076 C1075 1.414 . S
C1076 C1077 1.374 . S
C1077 H1057 0.950 . S
C1077 C1073 1.385 . S
C1077 C1076 1.374 . S
C1078 C1075 1.499 . S
C1078 C1079 1.373 . S
C1078 C1080 1.389 . S
C1079 H1058 0.950 . S
C1079 C1078 1.373 . S
C1079 C1095 1.377 . S
C1080 C1078 1.389 . S
C1080 C1081 1.524 . S
C1080 C1094 1.377 . S
C1081 C1080 1.524 . S
C1081 C1082 1.397 . S
C1081 C1086 1.363 . S
C1082 H1059 0.950 . S
C1082 C1081 1.397 . S
C1082 C1083 1.334 . S
C1083 H1060 0.950 . S
C1083 C1082 1.334 . S
C1083 C1084 1.287 . S
C1084 C1083 1.287 . S
C1084 C1085 1.524 . S
C1084 H1103 0.913 . S
C1085 H1061 0.950 . S
C1085 C1084 1.524 . S
C1085 C1086 1.415 . S
C1086 H1062 0.950 . S
C1086 C1081 1.363 . S
C1086 C1085 1.415 . S
C1087 H1063 0.951 . S
C1087 C1088 1.366 . S
C1087 C1089 1.388 . S
C1088 C1087 1.366 . S
C1088 C1092 1.385 . S
C1089 H1064 0.951 . S
C1089 C1087 1.388 . S
C1089 C1090 1.366 . S
C1090 C1089 1.366 . S
C1090 C1091 1.414 . S
C1090 C1093 1.499 . S
C1091 H1065 0.950 . S
C1091 C1090 1.414 . S
C1091 C1092 1.374 . S
C1092 H1066 0.950 . S
C1092 C1088 1.385 . S
C1092 C1091 1.374 . S
C1093 C1090 1.499 . S
C1093 C1094 1.373 . S
C1093 C1095 1.389 . S
C1094 H1067 0.950 . S
C1094 C1080 1.377 . S
C1094 C1093 1.373 . S
C1095 C1079 1.377 . S
C1095 C1093 1.389 . S
C1095 C1096 1.524 . S
C1096 C1095 1.524 . S
C1096 C1097 1.397 . S
C1096 C1101 1.363 . S
C1097 H1068 0.950 . S
C1097 C1096 1.397 . S
C1097 C1098 1.334 . S
C1098 H1069 0.950 . S
C1098 C1097 1.334 . S
C1098 C1099 1.287 . S
C1099 C1098 1.287 . S
C1099 C1100 1.524 . S
C1099 H1102 0.999 . S
C1100 H1070 0.950 . S
C1100 C1099 1.524 . S
C1100 C1101 1.415 . S
C1101 H1071 0.950 . S
C1101 C1096 1.363 . S
C1101 C1100 1.415 . S
H1102 C1099 0.999 . S
H1103 C1084 0.913 . S
H1104 C1122 0.951 . S
H1105 C1124 0.951 . S
H1106 C1126 0.950 . S
H1107 C1127 0.950 . S
H1108 C1129 0.950 . S
H1109 C1132 0.950 . S
H1110 C1133 0.950 . S
H1111 C1135 0.950 . S
H1112 C1136 0.950 . S
H1113 C1137 0.951 . S
H1114 C1139 0.951 . S
H1115 C1141 0.950 . S
H1116 C1142 0.950 . S
H1117 C1144 0.950 . S
H1118 C1147 0.950 . S
H1119 C1148 0.950 . S
H1120 C1150 0.950 . S
H1121 C1151 0.950 . S
C1122 H1104 0.951 . S
C1122 C1123 1.366 . S
C1122 C1124 1.388 . S
C1123 C1122 1.366 . S
C1123 C1127 1.385 . S
C1124 H1105 0.951 . S
C1124 C1122 1.388 . S
C1124 C1125 1.366 . S
C1125 C1124 1.366 . S
C1125 C1126 1.414 . S
C1125 C1128 1.499 . S
C1126 H1106 0.950 . S
C1126 C1125 1.414 . S
C1126 C1127 1.374 . S
C1127 H1107 0.950 . S
C1127 C1123 1.385 . S
C1127 C1126 1.374 . S
C1128 C1125 1.499 . S
C1128 C1129 1.373 . S
C1128 C1130 1.389 . S
C1129 H1108 0.950 . S
C1129 C1128 1.373 . S
C1129 C1145 1.377 1_455 S
C1130 C1128 1.389 . S
C1130 C1131 1.524 . S
C1130 C1144 1.377 1_455 S
C1131 C1130 1.524 . S
C1131 C1132 1.397 . S
C1131 C1136 1.363 . S
C1132 H1109 0.950 . S
C1132 C1131 1.397 . S
C1132 C1133 1.334 . S
C1133 H1110 0.950 . S
C1133 C1132 1.334 . S
C1133 C1134 1.287 . S
C1134 C1133 1.287 . S
C1134 C1135 1.524 . S
C1134 H1153 0.913 . S
C1135 H1111 0.950 . S
C1135 C1134 1.524 . S
C1135 C1136 1.415 . S
C1136 H1112 0.950 . S
C1136 C1131 1.363 . S
C1136 C1135 1.415 . S
C1137 H1113 0.951 . S
C1137 C1138 1.366 . S
C1137 C1139 1.388 . S
C1138 C1137 1.366 . S
C1138 C1142 1.385 . S
C1139 H1114 0.951 . S
C1139 C1137 1.388 . S
C1139 C1140 1.366 . S
C1140 C1139 1.366 . S
C1140 C1141 1.414 . S
C1140 C1143 1.499 . S
C1141 H1115 0.950 . S
C1141 C1140 1.414 . S
C1141 C1142 1.374 . S
C1142 H1116 0.950 . S
C1142 C1138 1.385 . S
C1142 C1141 1.374 . S
C1143 C1140 1.499 . S
C1143 C1144 1.373 . S
C1143 C1145 1.389 . S
C1144 H1117 0.950 . S
C1144 C1130 1.377 1_655 S
C1144 C1143 1.373 . S
C1145 C1129 1.377 1_655 S
C1145 C1143 1.389 . S
C1145 C1146 1.524 . S
C1146 C1145 1.524 . S
C1146 C1147 1.397 . S
C1146 C1151 1.363 . S
C1147 H1118 0.950 . S
C1147 C1146 1.397 . S
C1147 C1148 1.334 . S
C1148 H1119 0.950 . S
C1148 C1147 1.334 . S
C1148 C1149 1.287 . S
C1149 C1148 1.287 . S
C1149 C1150 1.524 . S
C1149 H1152 0.999 . S
C1150 H1120 0.950 . S
C1150 C1149 1.524 . S
C1150 C1151 1.415 . S
C1151 H1121 0.950 . S
C1151 C1146 1.363 . S
C1151 C1150 1.415 . S
H1152 C1149 0.999 . S
H1153 C1134 0.913 . S
H1154 C1172 0.951 . S
H1155 C1174 0.951 . S
H1156 C1176 0.950 . S
H1157 C1177 0.950 . S
H1158 C1179 0.950 . S
H1159 C1182 0.950 . S
H1160 C1183 0.950 . S
H1161 C1185 0.950 . S
H1162 C1186 0.950 . S
H1163 C1187 0.951 . S
H1164 C1189 0.951 . S
H1165 C1191 0.950 . S
H1166 C1192 0.950 . S
H1167 C1194 0.950 . S
H1168 C1197 0.950 . S
H1169 C1198 0.950 . S
H1170 C1200 0.950 . S
H1171 C1201 0.950 . S
C1172 H1154 0.951 . S
C1172 C1173 1.366 . S
C1172 C1174 1.388 . S
C1173 C1172 1.366 . S
C1173 C1177 1.385 . S
C1174 H1155 0.951 . S
C1174 C1172 1.388 . S
C1174 C1175 1.366 . S
C1175 C1174 1.366 . S
C1175 C1176 1.414 . S
C1175 C1178 1.499 . S
C1176 H1156 0.950 . S
C1176 C1175 1.414 . S
C1176 C1177 1.374 . S
C1177 H1157 0.950 . S
C1177 C1173 1.385 . S
C1177 C1176 1.374 . S
C1178 C1175 1.499 . S
C1178 C1179 1.373 . S
C1178 C1180 1.389 . S
C1179 H1158 0.950 . S
C1179 C1178 1.373 . S
C1179 C1195 1.377 . S
C1180 C1178 1.389 . S
C1180 C1181 1.524 . S
C1180 C1194 1.377 . S
C1181 C1180 1.524 . S
C1181 C1182 1.397 . S
C1181 C1186 1.363 . S
C1182 H1159 0.950 . S
C1182 C1181 1.397 . S
C1182 C1183 1.334 . S
C1183 H1160 0.950 . S
C1183 C1182 1.334 . S
C1183 C1184 1.287 . S
C1184 C1183 1.287 . S
C1184 C1185 1.524 . S
C1184 H1203 0.913 . S
C1185 H1161 0.950 . S
C1185 C1184 1.524 . S
C1185 C1186 1.415 . S
C1186 H1162 0.950 . S
C1186 C1181 1.363 . S
C1186 C1185 1.415 . S
C1187 H1163 0.951 . S
C1187 C1188 1.366 . S
C1187 C1189 1.388 . S
C1188 C1187 1.366 . S
C1188 C1192 1.385 . S
C1189 H1164 0.951 . S
C1189 C1187 1.388 . S
C1189 C1190 1.366 . S
C1190 C1189 1.366 . S
C1190 C1191 1.414 . S
C1190 C1193 1.499 . S
C1191 H1165 0.950 . S
C1191 C1190 1.414 . S
C1191 C1192 1.374 . S
C1192 H1166 0.950 . S
C1192 C1188 1.385 . S
C1192 C1191 1.374 . S
C1193 C1190 1.499 . S
C1193 C1194 1.373 . S
C1193 C1195 1.389 . S
C1194 H1167 0.950 . S
C1194 C1180 1.377 . S
C1194 C1193 1.373 . S
C1195 C1179 1.377 . S
C1195 C1193 1.389 . S
C1195 C1196 1.524 . S
C1196 C1195 1.524 . S
C1196 C1197 1.397 . S
C1196 C1201 1.363 . S
C1197 H1168 0.950 . S
C1197 C1196 1.397 . S
C1197 C1198 1.334 . S
C1198 H1169 0.950 . S
C1198 C1197 1.334 . S
C1198 C1199 1.287 . S
C1199 C1198 1.287 . S
C1199 C1200 1.524 . S
C1199 H1202 0.999 . S
C1200 H1170 0.950 . S
C1200 C1199 1.524 . S
C1200 C1201 1.415 . S
C1201 H1171 0.950 . S
C1201 C1196 1.363 . S
C1201 C1200 1.415 . S
H1202 C1199 0.999 . S
H1203 C1184 0.913 . S
H1204 C1222 0.951 . S
H1205 C1224 0.951 . S
H1206 C1226 0.950 . S
H1207 C1227 0.950 . S
H1208 C1229 0.950 . S
H1209 C1232 0.950 1_565 S
H1210 C1233 0.950 . S
H1211 C1235 0.950 . S
H1212 C1236 0.950 . S
H1213 C1237 0.951 . S
H1214 C1239 0.951 . S
H1215 C1241 0.950 . S
H1216 C1242 0.950 . S
H1217 C1244 0.950 . S
H1218 C1247 0.950 1_545 S
H1219 C1248 0.950 . S
H1220 C1250 0.950 . S
H1221 C1251 0.950 . S
C1222 H1204 0.951 . S
C1222 C1223 1.366 . S
C1222 C1224 1.388 . S
C1223 C1222 1.366 . S
C1223 C1227 1.385 . S
C1224 H1205 0.951 . S
C1224 C1222 1.388 . S
C1224 C1225 1.366 . S
C1225 C1224 1.366 . S
C1225 C1226 1.414 . S
C1225 C1228 1.499 . S
C1226 H1206 0.950 . S
C1226 C1225 1.414 . S
C1226 C1227 1.374 . S
C1227 H1207 0.950 . S
C1227 C1223 1.385 . S
C1227 C1226 1.374 . S
C1228 C1225 1.499 . S
C1228 C1229 1.373 . S
C1228 C1230 1.389 1_565 S
C1229 H1208 0.950 . S
C1229 C1228 1.373 . S
C1229 C1245 1.377 . S
C1230 C1228 1.389 1_545 S
C1230 C1231 1.524 . S
C1230 C1244 1.377 . S
C1231 C1230 1.524 . S
C1231 C1232 1.397 . S
C1231 C1236 1.363 . S
C1232 H1209 0.950 1_545 S
C1232 C1231 1.397 . S
C1232 C1233 1.334 . S
C1233 H1210 0.950 . S
C1233 C1232 1.334 . S
C1233 C1234 1.287 . S
C1234 C1233 1.287 . S
C1234 C1235 1.524 . S
C1234 H1253 0.913 . S
C1235 H1211 0.950 . S
C1235 C1234 1.524 . S
C1235 C1236 1.415 . S
C1236 H1212 0.950 . S
C1236 C1231 1.363 . S
C1236 C1235 1.415 . S
C1237 H1213 0.951 . S
C1237 C1238 1.366 . S
C1237 C1239 1.388 . S
C1238 C1237 1.366 . S
C1238 C1242 1.385 . S
C1239 H1214 0.951 . S
C1239 C1237 1.388 . S
C1239 C1240 1.366 . S
C1240 C1239 1.366 . S
C1240 C1241 1.414 . S
C1240 C1243 1.499 . S
C1241 H1215 0.950 . S
C1241 C1240 1.414 . S
C1241 C1242 1.374 . S
C1242 H1216 0.950 . S
C1242 C1238 1.385 . S
C1242 C1241 1.374 . S
C1243 C1240 1.499 . S
C1243 C1244 1.373 . S
C1243 C1245 1.389 1_545 S
C1244 H1217 0.950 . S
C1244 C1230 1.377 . S
C1244 C1243 1.373 . S
C1245 C1229 1.377 . S
C1245 C1243 1.389 1_565 S
C1245 C1246 1.524 . S
C1246 C1245 1.524 . S
C1246 C1247 1.397 . S
C1246 C1251 1.363 . S
C1247 H1218 0.950 1_565 S
C1247 C1246 1.397 . S
C1247 C1248 1.334 . S
C1248 H1219 0.950 . S
C1248 C1247 1.334 . S
C1248 C1249 1.287 . S
C1249 C1248 1.287 . S
C1249 C1250 1.524 . S
C1249 H1252 0.999 . S
C1250 H1220 0.950 . S
C1250 C1249 1.524 . S
C1250 C1251 1.415 . S
C1251 H1221 0.950 . S
C1251 C1246 1.363 . S
C1251 C1250 1.415 . S
H1252 C1249 0.999 . S
H1253 C1234 0.913 . S
H1254 C1272 0.951 . S
H1255 C1274 0.951 . S
H1256 C1276 0.950 . S
H1257 C1277 0.950 . S
H1258 C1279 0.950 . S
H1259 C1282 0.950 . S
H1260 C1283 0.950 . S
H1261 C1285 0.950 . S
H1262 C1286 0.950 . S
H1263 C1287 0.951 . S
H1264 C1289 0.951 . S
H1265 C1291 0.950 . S
H1266 C1292 0.950 . S
H1267 C1294 0.950 . S
H1268 C1297 0.950 . S
H1269 C1298 0.950 . S
H1270 C1300 0.950 . S
H1271 C1301 0.950 . S
C1272 H1254 0.951 . S
C1272 C1273 1.366 . S
C1272 C1274 1.388 . S
C1273 C1272 1.366 . S
C1273 C1277 1.385 . S
C1274 H1255 0.951 . S
C1274 C1272 1.388 . S
C1274 C1275 1.366 . S
C1275 C1274 1.366 . S
C1275 C1276 1.414 . S
C1275 C1278 1.499 . S
C1276 H1256 0.950 . S
C1276 C1275 1.414 . S
C1276 C1277 1.374 . S
C1277 H1257 0.950 . S
C1277 C1273 1.385 . S
C1277 C1276 1.374 . S
C1278 C1275 1.499 . S
C1278 C1279 1.373 1_565 S
C1278 C1280 1.389 . S
C1279 H1258 0.950 . S
C1279 C1278 1.373 1_545 S
C1279 C1295 1.377 . S
C1280 C1278 1.389 . S
C1280 C1281 1.524 . S
C1280 C1294 1.377 . S
C1281 C1280 1.524 . S
C1281 C1282 1.397 . S
C1281 C1286 1.363 . S
C1282 H1259 0.950 . S
C1282 C1281 1.397 . S
C1282 C1283 1.334 . S
C1283 H1260 0.950 . S
C1283 C1282 1.334 . S
C1283 C1284 1.287 . S
C1284 C1283 1.287 . S
C1284 C1285 1.524 . S
C1284 H1303 0.913 . S
C1285 H1261 0.950 . S
C1285 C1284 1.524 . S
C1285 C1286 1.415 . S
C1286 H1262 0.950 . S
C1286 C1281 1.363 . S
C1286 C1285 1.415 . S
C1287 H1263 0.951 . S
C1287 C1288 1.366 . S
C1287 C1289 1.388 . S
C1288 C1287 1.366 . S
C1288 C1292 1.385 . S
C1289 H1264 0.951 . S
C1289 C1287 1.388 . S
C1289 C1290 1.366 . S
C1290 C1289 1.366 . S
C1290 C1291 1.414 . S
C1290 C1293 1.499 . S
C1291 H1265 0.950 . S
C1291 C1290 1.414 . S
C1291 C1292 1.374 . S
C1292 H1266 0.950 . S
C1292 C1288 1.385 . S
C1292 C1291 1.374 . S
C1293 C1290 1.499 . S
C1293 C1294 1.373 1_545 S
C1293 C1295 1.389 . S
C1294 H1267 0.950 . S
C1294 C1280 1.377 . S
C1294 C1293 1.373 1_565 S
C1295 C1279 1.377 . S
C1295 C1293 1.389 . S
C1295 C1296 1.524 . S
C1296 C1295 1.524 . S
C1296 C1297 1.397 . S
C1296 C1301 1.363 . S
C1297 H1268 0.950 . S
C1297 C1296 1.397 . S
C1297 C1298 1.334 . S
C1298 H1269 0.950 . S
C1298 C1297 1.334 . S
C1298 C1299 1.287 . S
C1299 C1298 1.287 . S
C1299 C1300 1.524 . S
C1299 H1302 0.999 . S
C1300 H1270 0.950 . S
C1300 C1299 1.524 . S
C1300 C1301 1.415 . S
C1301 H1271 0.950 . S
C1301 C1296 1.363 . S
C1301 C1300 1.415 . S
H1302 C1299 0.999 . S
H1303 C1284 0.913 . S
H1304 C1322 0.951 . S
H1305 C1324 0.951 . S
H1306 C1326 0.950 . S
H1307 C1327 0.950 . S
H1308 C1329 0.950 . S
H1309 C1332 0.950 . S
H1310 C1333 0.950 . S
H1311 C1335 0.950 1_655 S
H1312 C1336 0.950 . S
H1313 C1337 0.951 . S
H1314 C1339 0.951 . S
H1315 C1341 0.950 . S
H1316 C1342 0.950 . S
H1317 C1344 0.950 . S
H1318 C1347 0.950 . S
H1319 C1348 0.950 . S
H1320 C1350 0.950 1_455 S
H1321 C1351 0.950 . S
C1322 H1304 0.951 . S
C1322 C1323 1.366 . S
C1322 C1324 1.388 . S
C1323 C1322 1.366 . S
C1323 C1327 1.385 . S
C1324 H1305 0.951 . S
C1324 C1322 1.388 . S
C1324 C1325 1.366 . S
C1325 C1324 1.366 . S
C1325 C1326 1.414 . S
C1325 C1328 1.499 . S
C1326 H1306 0.950 . S
C1326 C1325 1.414 . S
C1326 C1327 1.374 . S
C1327 H1307 0.950 . S
C1327 C1323 1.385 . S
C1327 C1326 1.374 . S
C1328 C1325 1.499 . S
C1328 C1329 1.373 . S
C1328 C1330 1.389 . S
C1329 H1308 0.950 . S
C1329 C1328 1.373 . S
C1329 C1345 1.377 1_455 S
C1330 C1328 1.389 . S
C1330 C1331 1.524 . S
C1330 C1344 1.377 1_455 S
C1331 C1330 1.524 . S
C1331 C1332 1.397 . S
C1331 C1336 1.363 1_455 S
C1332 H1309 0.950 . S
C1332 C1331 1.397 . S
C1332 C1333 1.334 . S
C1333 H1310 0.950 . S
C1333 C1332 1.334 . S
C1333 C1334 1.287 . S
C1334 C1333 1.287 . S
C1334 C1335 1.524 . S
C1334 H1353 0.913 . S
C1335 H1311 0.950 1_455 S
C1335 C1334 1.524 . S
C1335 C1336 1.415 1_455 S
C1336 H1312 0.950 . S
C1336 C1331 1.363 1_655 S
C1336 C1335 1.415 1_655 S
C1337 H1313 0.951 . S
C1337 C1338 1.366 . S
C1337 C1339 1.388 . S
C1338 C1337 1.366 . S
C1338 C1342 1.385 . S
C1339 H1314 0.951 . S
C1339 C1337 1.388 . S
C1339 C1340 1.366 . S
C1340 C1339 1.366 . S
C1340 C1341 1.414 . S
C1340 C1343 1.499 . S
C1341 H1315 0.950 . S
C1341 C1340 1.414 . S
C1341 C1342 1.374 . S
C1342 H1316 0.950 . S
C1342 C1338 1.385 . S
C1342 C1341 1.374 . S
C1343 C1340 1.499 . S
C1343 C1344 1.373 . S
C1343 C1345 1.389 . S
C1344 H1317 0.950 . S
C1344 C1330 1.377 1_655 S
C1344 C1343 1.373 . S
C1345 C1329 1.377 1_655 S
C1345 C1343 1.389 . S
C1345 C1346 1.524 . S
C1346 C1345 1.524 . S
C1346 C1347 1.397 . S
C1346 C1351 1.363 1_655 S
C1347 H1318 0.950 . S
C1347 C1346 1.397 . S
C1347 C1348 1.334 . S
C1348 H1319 0.950 . S
C1348 C1347 1.334 . S
C1348 C1349 1.287 . S
C1349 C1348 1.287 . S
C1349 C1350 1.524 . S
C1349 H1352 0.999 . S
C1350 H1320 0.950 1_655 S
C1350 C1349 1.524 . S
C1350 C1351 1.415 1_655 S
C1351 H1321 0.950 . S
C1351 C1346 1.363 1_455 S
C1351 C1350 1.415 1_455 S
H1352 C1349 0.999 . S
H1353 C1334 0.913 . S
H1354 C1372 0.951 . S
H1355 C1374 0.951 . S
H1356 C1376 0.950 . S
H1357 C1377 0.950 . S
H1358 C1379 0.950 . S
H1359 C1382 0.950 . S
H1360 C1383 0.950 . S
H1361 C1385 0.950 . S
H1362 C1386 0.950 . S
H1363 C1387 0.951 . S
H1364 C1389 0.951 . S
H1365 C1391 0.950 . S
H1366 C1392 0.950 . S
H1367 C1394 0.950 . S
H1368 C1397 0.950 . S
H1369 C1398 0.950 . S
H1370 C1400 0.950 . S
H1371 C1401 0.950 . S
C1372 H1354 0.951 . S
C1372 C1373 1.366 . S
C1372 C1374 1.388 . S
C1373 C1372 1.366 . S
C1373 C1377 1.385 . S
C1374 H1355 0.951 . S
C1374 C1372 1.388 . S
C1374 C1375 1.366 . S
C1375 C1374 1.366 . S
C1375 C1376 1.414 . S
C1375 C1378 1.499 . S
C1376 H1356 0.950 . S
C1376 C1375 1.414 . S
C1376 C1377 1.374 . S
C1377 H1357 0.950 . S
C1377 C1373 1.385 . S
C1377 C1376 1.374 . S
C1378 C1375 1.499 . S
C1378 C1379 1.373 . S
C1378 C1380 1.389 . S
C1379 H1358 0.950 . S
C1379 C1378 1.373 . S
C1379 C1395 1.377 . S
C1380 C1378 1.389 . S
C1380 C1381 1.524 . S
C1380 C1394 1.377 . S
C1381 C1380 1.524 . S
C1381 C1382 1.397 . S
C1381 C1386 1.363 . S
C1382 H1359 0.950 . S
C1382 C1381 1.397 . S
C1382 C1383 1.334 . S
C1383 H1360 0.950 . S
C1383 C1382 1.334 . S
C1383 C1384 1.287 . S
C1384 C1383 1.287 . S
C1384 C1385 1.524 . S
C1384 H1403 0.913 . S
C1385 H1361 0.950 . S
C1385 C1384 1.524 . S
C1385 C1386 1.415 . S
C1386 H1362 0.950 . S
C1386 C1381 1.363 . S
C1386 C1385 1.415 . S
C1387 H1363 0.951 . S
C1387 C1388 1.366 . S
C1387 C1389 1.388 . S
C1388 C1387 1.366 . S
C1388 C1392 1.385 . S
C1389 H1364 0.951 . S
C1389 C1387 1.388 . S
C1389 C1390 1.366 . S
C1390 C1389 1.366 . S
C1390 C1391 1.414 . S
C1390 C1393 1.499 . S
C1391 H1365 0.950 . S
C1391 C1390 1.414 . S
C1391 C1392 1.374 . S
C1392 H1366 0.950 . S
C1392 C1388 1.385 . S
C1392 C1391 1.374 . S
C1393 C1390 1.499 . S
C1393 C1394 1.373 . S
C1393 C1395 1.389 . S
C1394 H1367 0.950 . S
C1394 C1380 1.377 . S
C1394 C1393 1.373 . S
C1395 C1379 1.377 . S
C1395 C1393 1.389 . S
C1395 C1396 1.524 . S
C1396 C1395 1.524 . S
C1396 C1397 1.397 . S
C1396 C1401 1.363 . S
C1397 H1368 0.950 . S
C1397 C1396 1.397 . S
C1397 C1398 1.334 . S
C1398 H1369 0.950 . S
C1398 C1397 1.334 . S
C1398 C1399 1.287 . S
C1399 C1398 1.287 . S
C1399 C1400 1.524 . S
C1399 H1402 0.999 . S
C1400 H1370 0.950 . S
C1400 C1399 1.524 . S
C1400 C1401 1.415 . S
C1401 H1371 0.950 . S
C1401 C1396 1.363 . S
C1401 C1400 1.415 . S
H1402 C1399 0.999 . S
H1403 C1384 0.913 . S
H1404 C1422 0.951 . S
H1405 C1424 0.951 . S
H1406 C1426 0.950 . S
H1407 C1427 0.950 . S
H1408 C1429 0.950 . S
H1409 C1432 0.950 . S
H1410 C1433 0.950 . S
H1411 C1435 0.950 . S
H1412 C1436 0.950 . S
H1413 C1437 0.951 . S
H1414 C1439 0.951 . S
H1415 C1441 0.951 . S
H1416 C1442 0.950 1_556 S
H1417 C1444 0.950 . S
H1418 C1447 0.950 . S
H1419 C1448 0.950 . S
H1420 C1450 0.950 . S
H1421 C1451 0.950 . S
C1422 H1404 0.951 . S
C1422 C1423 1.366 . S
C1422 C1424 1.388 . S
C1423 C1422 1.366 . S
C1423 C1427 1.385 1_556 S
C1424 H1405 0.951 . S
C1424 C1422 1.388 . S
C1424 C1425 1.366 . S
C1425 C1424 1.366 . S
C1425 C1426 1.414 1_556 S
C1425 C1428 1.499 . S
C1426 H1406 0.950 . S
C1426 C1425 1.414 1_554 S
C1426 C1427 1.374 . S
C1427 H1407 0.950 . S
C1427 C1423 1.385 1_554 S
C1427 C1426 1.374 . S
C1428 C1425 1.499 . S
C1428 C1429 1.373 1_556 S
C1428 C1430 1.389 . S
C1429 H1408 0.950 . S
C1429 C1428 1.373 1_554 S
C1429 C1445 1.377 . S
C1430 C1428 1.389 . S
C1430 C1431 1.524 . S
C1430 C1444 1.377 . S
C1431 C1430 1.524 . S
C1431 C1432 1.397 . S
C1431 C1436 1.363 . S
C1432 H1409 0.950 . S
C1432 C1431 1.397 . S
C1432 C1433 1.334 . S
C1433 H1410 0.950 . S
C1433 C1432 1.334 . S
C1433 C1434 1.287 . S
C1434 C1433 1.287 . S
C1434 C1435 1.524 . S
C1434 H1453 0.913 . S
C1435 H1411 0.950 . S
C1435 C1434 1.524 . S
C1435 C1436 1.415 . S
C1436 H1412 0.950 . S
C1436 C1431 1.363 . S
C1436 C1435 1.415 . S
C1437 H1413 0.951 . S
C1437 C1438 1.366 . S
C1437 C1439 1.388 . S
C1438 C1437 1.366 . S
C1438 C1442 1.385 . S
C1439 H1414 0.951 . S
C1439 C1437 1.388 . S
C1439 C1440 1.366 . S
C1440 C1439 1.366 . S
C1440 C1441 1.414 1_554 S
C1440 C1443 1.499 . S
C1441 H1415 0.951 . S
C1441 C1440 1.414 1_556 S
C1441 C1442 1.374 1_556 S
C1442 H1416 0.950 1_554 S
C1442 C1438 1.385 . S
C1442 C1441 1.374 1_554 S
C1443 C1440 1.499 . S
C1443 C1444 1.373 1_554 S
C1443 C1445 1.389 . S
C1444 H1417 0.950 . S
C1444 C1430 1.377 . S
C1444 C1443 1.373 1_556 S
C1445 C1429 1.377 . S
C1445 C1443 1.389 . S
C1445 C1446 1.524 . S
C1446 C1445 1.524 . S
C1446 C1447 1.397 . S
C1446 C1451 1.363 . S
C1447 H1418 0.950 . S
C1447 C1446 1.397 . S
C1447 C1448 1.334 . S
C1448 H1419 0.950 . S
C1448 C1447 1.334 . S
C1448 C1449 1.287 . S
C1449 C1448 1.287 . S
C1449 C1450 1.524 . S
C1449 H1452 0.999 . S
C1450 H1420 0.950 . S
C1450 C1449 1.524 . S
C1450 C1451 1.415 . S
C1451 H1421 0.950 . S
C1451 C1446 1.363 . S
C1451 C1450 1.415 . S
H1452 C1449 0.999 . S
H1453 C1434 0.913 . S
H1454 C1472 0.951 . S
H1455 C1474 0.951 1_554 S
H1456 C1476 0.950 . S
H1457 C1477 0.950 . S
H1458 C1479 0.950 . S
H1459 C1482 0.950 . S
H1460 C1483 0.950 . S
H1461 C1485 0.950 . S
H1462 C1486 0.950 . S
H1463 C1487 0.951 . S
H1464 C1489 0.951 . S
H1465 C1491 0.950 . S
H1466 C1492 0.950 . S
H1467 C1494 0.950 . S
H1468 C1497 0.950 . S
H1469 C1498 0.950 . S
H1470 C1500 0.950 . S
H1471 C1501 0.950 . S
C1472 H1454 0.951 . S
C1472 C1473 1.366 . S
C1472 C1474 1.388 . S
C1473 C1472 1.366 . S
C1473 C1477 1.385 . S
C1474 H1455 0.951 1_556 S
C1474 C1472 1.388 . S
C1474 C1475 1.366 . S
C1475 C1474 1.366 . S
C1475 C1476 1.414 . S
C1475 C1478 1.504 . S
C1476 H1456 0.950 . S
C1476 C1475 1.414 . S
C1476 C1477 1.374 . S
C1477 H1457 0.950 . S
C1477 C1473 1.385 . S
C1477 C1476 1.374 . S
C1478 C1475 1.504 . S
C1478 C1479 1.388 . S
C1478 C1480 1.370 1_556 S
C1479 H1458 0.950 . S
C1479 C1478 1.388 . S
C1479 C1495 1.377 . S
C1480 C1478 1.370 1_554 S
C1480 C1481 1.524 . S
C1480 C1494 1.377 . S
C1481 C1480 1.524 . S
C1481 C1482 1.397 . S
C1481 C1486 1.363 . S
C1482 H1459 0.950 . S
C1482 C1481 1.397 . S
C1482 C1483 1.334 . S
C1483 H1460 0.950 . S
C1483 C1482 1.334 . S
C1483 C1484 1.287 . S
C1484 C1483 1.287 . S
C1484 C1485 1.524 . S
C1484 H1503 0.913 . S
C1485 H1461 0.950 . S
C1485 C1484 1.524 . S
C1485 C1486 1.415 . S
C1486 H1462 0.950 . S
C1486 C1481 1.363 . S
C1486 C1485 1.415 . S
C1487 H1463 0.951 . S
C1487 C1488 1.366 . S
C1487 C1489 1.388 . S
C1488 C1487 1.366 . S
C1488 C1492 1.385 . S
C1489 H1464 0.951 . S
C1489 C1487 1.388 . S
C1489 C1490 1.366 . S
C1490 C1489 1.366 . S
C1490 C1491 1.414 . S
C1490 C1493 1.499 . S
C1491 H1465 0.950 . S
C1491 C1490 1.414 . S
C1491 C1492 1.374 . S
C1492 H1466 0.950 . S
C1492 C1488 1.385 . S
C1492 C1491 1.374 . S
C1493 C1490 1.499 . S
C1493 C1494 1.373 . S
C1493 C1495 1.389 1_554 S
C1494 H1467 0.950 . S
C1494 C1480 1.377 . S
C1494 C1493 1.373 . S
C1495 C1479 1.377 . S
C1495 C1493 1.389 1_556 S
C1495 C1496 1.524 . S
C1496 C1495 1.524 . S
C1496 C1497 1.397 . S
C1496 C1501 1.363 . S
C1497 H1468 0.950 . S
C1497 C1496 1.397 . S
C1497 C1498 1.334 . S
C1498 H1469 0.950 . S
C1498 C1497 1.334 . S
C1498 C1499 1.287 . S
C1499 C1498 1.287 . S
C1499 C1500 1.524 . S
C1499 H1502 0.999 . S
C1500 H1470 0.950 . S
C1500 C1499 1.524 . S
C1500 C1501 1.415 . S
C1501 H1471 0.950 . S
C1501 C1496 1.363 . S
C1501 C1500 1.415 . S
H1502 C1499 0.999 . S
H1503 C1484 0.913 . S
H1504 C1522 0.951 . S
H1505 C1524 0.951 . S
H1506 C1526 0.950 . S
H1507 C1527 0.950 1_554 S
H1508 C1529 0.950 . S
H1509 C1532 0.950 . S
H1510 C1533 0.950 . S
H1511 C1535 0.942 1_556 S
H1512 C1536 0.950 1_556 S
H1513 C1537 0.951 . S
H1514 C1539 0.951 . S
H1515 C1541 0.950 1_556 S
H1516 C1542 0.950 . S
H1517 C1544 0.950 . S
H1518 C1547 0.950 . S
H1519 C1548 0.950 . S
H1520 C1550 0.950 . S
H1521 C1551 0.950 . S
C1522 H1504 0.951 . S
C1522 C1523 1.366 . S
C1522 C1524 1.388 . S
C1523 C1522 1.366 . S
C1523 C1527 1.385 . S
C1524 H1505 0.951 . S
C1524 C1522 1.388 . S
C1524 C1525 1.366 . S
C1525 C1524 1.366 . S
C1525 C1526 1.414 1_556 S
C1525 C1528 1.500 1_556 S
C1526 H1506 0.950 . S
C1526 C1525 1.414 1_554 S
C1526 C1527 1.374 1_554 S
C1527 H1507 0.950 1_556 S
C1527 C1523 1.385 . S
C1527 C1526 1.374 1_556 S
C1528 C1525 1.500 1_554 S
C1528 C1529 1.374 1_554 S
C1528 C1530 1.388 . S
C1529 H1508 0.950 . S
C1529 C1528 1.374 1_556 S
C1529 C1545 1.377 1_556 S
C1530 C1528 1.388 . S
C1530 C1531 1.524 . S
C1530 C1544 1.377 . S
C1531 C1530 1.524 . S
C1531 C1532 1.397 . S
C1531 C1536 1.363 . S
C1532 H1509 0.950 . S
C1532 C1531 1.397 . S
C1532 C1533 1.334 . S
C1533 H1510 0.950 . S
C1533 C1532 1.334 . S
C1533 C1534 1.287 . S
C1534 C1533 1.287 . S
C1534 C1535 1.524 . S
C1534 H1553 0.913 . S
C1535 H1511 0.942 1_554 S
C1535 C1534 1.524 . S
C1535 C1536 1.415 . S
C1536 H1512 0.950 1_554 S
C1536 C1531 1.363 . S
C1536 C1535 1.415 . S
C1537 H1513 0.951 . S
C1537 C1538 1.366 . S
C1537 C1539 1.388 . S
C1538 C1537 1.366 . S
C1538 C1542 1.385 . S
C1539 H1514 0.951 . S
C1539 C1537 1.388 . S
C1539 C1540 1.366 . S
C1540 C1539 1.366 . S
C1540 C1541 1.414 . S
C1540 C1543 1.499 . S
C1541 H1515 0.950 1_554 S
C1541 C1540 1.414 . S
C1541 C1542 1.374 . S
C1542 H1516 0.950 . S
C1542 C1538 1.385 . S
C1542 C1541 1.374 . S
C1543 C1540 1.499 . S
C1543 C1544 1.373 . S
C1543 C1545 1.389 . S
C1544 H1517 0.950 . S
C1544 C1530 1.377 . S
C1544 C1543 1.373 . S
C1545 C1529 1.377 1_554 S
C1545 C1543 1.389 . S
C1545 C1546 1.524 1_554 S
C1546 C1545 1.524 1_556 S
C1546 C1547 1.397 . S
C1546 C1551 1.363 1_556 S
C1547 H1518 0.950 . S
C1547 C1546 1.397 . S
C1547 C1548 1.334 . S
C1548 H1519 0.950 . S
C1548 C1547 1.334 . S
C1548 C1549 1.287 . S
C1549 C1548 1.287 . S
C1549 C1550 1.524 1_556 S
C1549 H1552 0.999 . S
C1550 H1520 0.950 . S
C1550 C1549 1.524 1_554 S
C1550 C1551 1.415 . S
C1551 H1521 0.950 . S
C1551 C1546 1.363 1_554 S
C1551 C1550 1.415 . S
H1552 C1549 0.999 . S
H1553 C1534 0.913 . S
H1554 C1572 0.951 . S
H1555 C1574 0.951 . S
H1556 C1576 0.950 . S
H1557 C1577 0.950 . S
H1558 C1579 0.950 . S
H1559 C1582 0.950 . S
H1560 C1583 0.950 . S
H1561 C1585 0.950 . S
H1562 C1586 0.950 . S
H1563 C1587 0.951 . S
H1564 C1589 0.951 . S
H1565 C1591 0.950 . S
H1566 C1592 0.950 . S
H1567 C1594 0.950 . S
H1568 C1597 0.950 . S
H1569 C1598 0.950 . S
H1570 C1600 0.950 . S
H1571 C1601 0.950 . S
C1572 H1554 0.951 . S
C1572 C1573 1.366 . S
C1572 C1574 1.388 . S
C1573 C1572 1.366 . S
C1573 C1577 1.385 . S
C1574 H1555 0.951 . S
C1574 C1572 1.388 . S
C1574 C1575 1.366 . S
C1575 C1574 1.366 . S
C1575 C1576 1.414 . S
C1575 C1578 1.499 . S
C1576 H1556 0.950 . S
C1576 C1575 1.414 . S
C1576 C1577 1.374 . S
C1577 H1557 0.950 . S
C1577 C1573 1.385 . S
C1577 C1576 1.374 . S
C1578 C1575 1.499 . S
C1578 C1579 1.373 . S
C1578 C1580 1.389 . S
C1579 H1558 0.950 . S
C1579 C1578 1.373 . S
C1579 C1595 1.377 . S
C1580 C1578 1.389 . S
C1580 C1581 1.524 . S
C1580 C1594 1.377 . S
C1581 C1580 1.524 . S
C1581 C1582 1.397 . S
C1581 C1586 1.363 . S
C1582 H1559 0.950 . S
C1582 C1581 1.397 . S
C1582 C1583 1.334 . S
C1583 H1560 0.950 . S
C1583 C1582 1.334 . S
C1583 C1584 1.287 . S
C1584 C1583 1.287 . S
C1584 C1585 1.524 . S
C1584 H1603 0.913 . S
C1585 H1561 0.950 . S
C1585 C1584 1.524 . S
C1585 C1586 1.415 . S
C1586 H1562 0.950 . S
C1586 C1581 1.363 . S
C1586 C1585 1.415 . S
C1587 H1563 0.951 . S
C1587 C1588 1.366 . S
C1587 C1589 1.388 . S
C1588 C1587 1.366 . S
C1588 C1592 1.385 . S
C1589 H1564 0.951 . S
C1589 C1587 1.388 . S
C1589 C1590 1.366 . S
C1590 C1589 1.366 . S
C1590 C1591 1.414 . S
C1590 C1593 1.499 . S
C1591 H1565 0.950 . S
C1591 C1590 1.414 . S
C1591 C1592 1.374 . S
C1592 H1566 0.950 . S
C1592 C1588 1.385 . S
C1592 C1591 1.374 . S
C1593 C1590 1.499 . S
C1593 C1594 1.373 . S
C1593 C1595 1.389 . S
C1594 H1567 0.950 . S
C1594 C1580 1.377 . S
C1594 C1593 1.373 . S
C1595 C1579 1.377 . S
C1595 C1593 1.389 . S
C1595 C1596 1.524 . S
C1596 C1595 1.524 . S
C1596 C1597 1.397 . S
C1596 C1601 1.363 . S
C1597 H1568 0.950 . S
C1597 C1596 1.397 . S
C1597 C1598 1.334 . S
C1598 H1569 0.950 . S
C1598 C1597 1.334 . S
C1598 C1599 1.287 . S
C1599 C1598 1.287 . S
C1599 C1600 1.524 . S
C1599 H1602 0.999 . S
C1600 H1570 0.950 . S
C1600 C1599 1.524 . S
C1600 C1601 1.415 . S
C1601 H1571 0.950 . S
C1601 C1596 1.363 . S
C1601 C1600 1.415 . S
H1602 C1599 0.999 . S
H1603 C1584 0.913 . S
H1604 C1622 0.951 . S
H1605 C1624 0.951 . S
H1606 C1626 0.950 . S
H1607 C1627 0.950 . S
H1608 C1629 0.950 . S
H1609 C1632 0.950 . S
H1610 C1633 0.950 . S
H1611 C1635 0.950 . S
H1612 C1636 0.950 . S
H1613 C1637 0.951 . S
H1614 C1639 0.951 . S
H1615 C1641 0.950 . S
H1616 C1642 0.950 . S
H1617 C1644 0.950 . S
H1618 C1647 0.950 . S
H1619 C1648 0.950 . S
H1620 C1650 0.950 . S
H1621 C1651 0.950 . S
C1622 H1604 0.951 . S
C1622 C1623 1.366 . S
C1622 C1624 1.388 . S
C1623 C1622 1.366 . S
C1623 C1627 1.385 . S
C1624 H1605 0.951 . S
C1624 C1622 1.388 . S
C1624 C1625 1.366 . S
C1625 C1624 1.366 . S
C1625 C1626 1.414 . S
C1625 C1628 1.499 . S
C1626 H1606 0.950 . S
C1626 C1625 1.414 . S
C1626 C1627 1.374 . S
C1627 H1607 0.950 . S
C1627 C1623 1.385 . S
C1627 C1626 1.374 . S
C1628 C1625 1.499 . S
C1628 C1629 1.373 . S
C1628 C1630 1.389 . S
C1629 H1608 0.950 . S
C1629 C1628 1.373 . S
C1629 C1645 1.377 . S
C1630 C1628 1.389 . S
C1630 C1631 1.524 . S
C1630 C1644 1.377 . S
C1631 C1630 1.524 . S
C1631 C1632 1.397 . S
C1631 C1636 1.363 . S
C1632 H1609 0.950 . S
C1632 C1631 1.397 . S
C1632 C1633 1.334 . S
C1633 H1610 0.950 . S
C1633 C1632 1.334 . S
C1633 C1634 1.287 . S
C1634 C1633 1.287 . S
C1634 C1635 1.524 . S
C1634 H1653 0.913 . S
C1635 H1611 0.950 . S
C1635 C1634 1.524 . S
C1635 C1636 1.415 . S
C1636 H1612 0.950 . S
C1636 C1631 1.363 . S
C1636 C1635 1.415 . S
C1637 H1613 0.951 . S
C1637 C1638 1.366 . S
C1637 C1639 1.388 . S
C1638 C1637 1.366 . S
C1638 C1642 1.385 . S
C1639 H1614 0.951 . S
C1639 C1637 1.388 . S
C1639 C1640 1.366 . S
C1640 C1639 1.366 . S
C1640 C1641 1.414 . S
C1640 C1643 1.499 . S
C1641 H1615 0.950 . S
C1641 C1640 1.414 . S
C1641 C1642 1.374 . S
C1642 H1616 0.950 . S
C1642 C1638 1.385 . S
C1642 C1641 1.374 . S
C1643 C1640 1.499 . S
C1643 C1644 1.373 . S
C1643 C1645 1.389 . S
C1644 H1617 0.950 . S
C1644 C1630 1.377 . S
C1644 C1643 1.373 . S
C1645 C1629 1.377 . S
C1645 C1643 1.389 . S
C1645 C1646 1.524 . S
C1646 C1645 1.524 . S
C1646 C1647 1.397 . S
C1646 C1651 1.363 . S
C1647 H1618 0.950 . S
C1647 C1646 1.397 . S
C1647 C1648 1.334 . S
C1648 H1619 0.950 . S
C1648 C1647 1.334 . S
C1648 C1649 1.287 . S
C1649 C1648 1.287 . S
C1649 C1650 1.524 . S
C1649 H1652 0.999 . S
C1650 H1620 0.950 . S
C1650 C1649 1.524 . S
C1650 C1651 1.415 . S
C1651 H1621 0.950 . S
C1651 C1646 1.363 . S
C1651 C1650 1.415 . S
H1652 C1649 0.999 . S
H1653 C1634 0.913 . S
H1654 C1672 0.951 . S
H1655 C1674 0.951 . S
H1656 C1676 0.950 . S
H1657 C1677 0.950 . S
H1658 C1679 0.950 . S
H1659 C1682 0.950 . S
H1660 C1683 0.950 . S
H1661 C1685 0.950 . S
H1662 C1686 0.950 . S
H1663 C1687 0.951 . S
H1664 C1689 0.951 . S
H1665 C1691 0.950 . S
H1666 C1692 0.950 . S
H1667 C1694 0.950 . S
H1668 C1697 0.950 . S
H1669 C1698 0.950 . S
H1670 C1700 0.950 . S
H1671 C1701 0.950 . S
C1672 H1654 0.951 . S
C1672 C1673 1.366 . S
C1672 C1674 1.388 . S
C1673 C1672 1.366 . S
C1673 C1677 1.385 . S
C1674 H1655 0.951 . S
C1674 C1672 1.388 . S
C1674 C1675 1.366 . S
C1675 C1674 1.366 . S
C1675 C1676 1.414 . S
C1675 C1678 1.499 . S
C1676 H1656 0.950 . S
C1676 C1675 1.414 . S
C1676 C1677 1.374 . S
C1677 H1657 0.950 . S
C1677 C1673 1.385 . S
C1677 C1676 1.374 . S
C1678 C1675 1.499 . S
C1678 C1679 1.373 . S
C1678 C1680 1.389 . S
C1679 H1658 0.950 . S
C1679 C1678 1.373 . S
C1679 C1695 1.377 . S
C1680 C1678 1.389 . S
C1680 C1681 1.524 . S
C1680 C1694 1.377 . S
C1681 C1680 1.524 . S
C1681 C1682 1.397 . S
C1681 C1686 1.363 . S
C1682 H1659 0.950 . S
C1682 C1681 1.397 . S
C1682 C1683 1.334 . S
C1683 H1660 0.950 . S
C1683 C1682 1.334 . S
C1683 C1684 1.287 . S
C1684 C1683 1.287 . S
C1684 C1685 1.524 . S
C1684 H1703 0.913 . S
C1685 H1661 0.950 . S
C1685 C1684 1.524 . S
C1685 C1686 1.415 . S
C1686 H1662 0.950 . S
C1686 C1681 1.363 . S
C1686 C1685 1.415 . S
C1687 H1663 0.951 . S
C1687 C1688 1.366 . S
C1687 C1689 1.388 . S
C1688 C1687 1.366 . S
C1688 C1692 1.385 . S
C1689 H1664 0.951 . S
C1689 C1687 1.388 . S
C1689 C1690 1.366 . S
C1690 C1689 1.366 . S
C1690 C1691 1.414 . S
C1690 C1693 1.499 . S
C1691 H1665 0.950 . S
C1691 C1690 1.414 . S
C1691 C1692 1.374 . S
C1692 H1666 0.950 . S
C1692 C1688 1.385 . S
C1692 C1691 1.374 . S
C1693 C1690 1.499 . S
C1693 C1694 1.373 . S
C1693 C1695 1.389 . S
C1694 H1667 0.950 . S
C1694 C1680 1.377 . S
C1694 C1693 1.373 . S
C1695 C1679 1.377 . S
C1695 C1693 1.389 . S
C1695 C1696 1.524 . S
C1696 C1695 1.524 . S
C1696 C1697 1.397 . S
C1696 C1701 1.363 . S
C1697 H1668 0.950 . S
C1697 C1696 1.397 . S
C1697 C1698 1.334 . S
C1698 H1669 0.950 . S
C1698 C1697 1.334 . S
C1698 C1699 1.287 . S
C1699 C1698 1.287 . S
C1699 C1700 1.524 . S
C1699 H1702 0.999 . S
C1700 H1670 0.950 . S
C1700 C1699 1.524 . S
C1700 C1701 1.415 . S
C1701 H1671 0.950 . S
C1701 C1696 1.363 . S
C1701 C1700 1.415 . S
H1702 C1699 0.999 . S
H1703 C1684 0.913 . S
H1704 C1722 0.951 . S
H1705 C1724 0.951 . S
H1706 C1726 0.950 . S
H1707 C1727 0.950 . S
H1708 C1729 0.950 . S
H1709 C1732 0.950 . S
H1710 C1733 0.950 . S
H1711 C1735 0.950 . S
H1712 C1736 0.950 . S
H1713 C1737 0.951 . S
H1714 C1739 0.951 . S
H1715 C1741 0.950 . S
H1716 C1742 0.950 . S
H1717 C1744 0.950 . S
H1718 C1747 0.950 . S
H1719 C1748 0.950 . S
H1720 C1750 0.950 . S
H1721 C1751 0.950 . S
C1722 H1704 0.951 . S
C1722 C1723 1.366 . S
C1722 C1724 1.388 . S
C1723 C1722 1.366 . S
C1723 C1727 1.385 . S
C1724 H1705 0.951 . S
C1724 C1722 1.388 . S
C1724 C1725 1.366 . S
C1725 C1724 1.366 . S
C1725 C1726 1.414 . S
C1725 C1728 1.499 . S
C1726 H1706 0.950 . S
C1726 C1725 1.414 . S
C1726 C1727 1.374 . S
C1727 H1707 0.950 . S
C1727 C1723 1.385 . S
C1727 C1726 1.374 . S
C1728 C1725 1.499 . S
C1728 C1729 1.373 1_554 S
C1728 C1730 1.389 . S
C1729 H1708 0.950 . S
C1729 C1728 1.373 1_556 S
C1729 C1745 1.377 . S
C1730 C1728 1.389 . S
C1730 C1731 1.524 . S
C1730 C1744 1.377 . S
C1731 C1730 1.524 . S
C1731 C1732 1.397 . S
C1731 C1736 1.363 . S
C1732 H1709 0.950 . S
C1732 C1731 1.397 . S
C1732 C1733 1.334 . S
C1733 H1710 0.950 . S
C1733 C1732 1.334 . S
C1733 C1734 1.287 . S
C1734 C1733 1.287 . S
C1734 C1735 1.524 . S
C1734 H1753 0.913 . S
C1735 H1711 0.950 . S
C1735 C1734 1.524 . S
C1735 C1736 1.415 . S
C1736 H1712 0.950 . S
C1736 C1731 1.363 . S
C1736 C1735 1.415 . S
C1737 H1713 0.951 . S
C1737 C1738 1.366 . S
C1737 C1739 1.388 . S
C1738 C1737 1.366 . S
C1738 C1742 1.385 . S
C1739 H1714 0.951 . S
C1739 C1737 1.388 . S
C1739 C1740 1.366 . S
C1740 C1739 1.366 . S
C1740 C1741 1.414 . S
C1740 C1743 1.499 . S
C1741 H1715 0.950 . S
C1741 C1740 1.414 . S
C1741 C1742 1.374 . S
C1742 H1716 0.950 . S
C1742 C1738 1.385 . S
C1742 C1741 1.374 . S
C1743 C1740 1.499 . S
C1743 C1744 1.373 1_556 S
C1743 C1745 1.389 . S
C1744 H1717 0.950 . S
C1744 C1730 1.377 . S
C1744 C1743 1.373 1_554 S
C1745 C1729 1.377 . S
C1745 C1743 1.389 . S
C1745 C1746 1.524 . S
C1746 C1745 1.524 . S
C1746 C1747 1.397 . S
C1746 C1751 1.363 . S
C1747 H1718 0.950 . S
C1747 C1746 1.397 . S
C1747 C1748 1.334 . S
C1748 H1719 0.950 . S
C1748 C1747 1.334 . S
C1748 C1749 1.287 . S
C1749 C1748 1.287 . S
C1749 C1750 1.524 . S
C1749 H1752 0.999 . S
C1750 H1720 0.950 . S
C1750 C1749 1.524 . S
C1750 C1751 1.415 . S
C1751 H1721 0.950 . S
C1751 C1746 1.363 . S
C1751 C1750 1.415 . S
H1752 C1749 0.999 . S
H1753 C1734 0.913 . S
H1754 C1772 0.951 . S
H1755 C1774 0.951 . S
H1756 C1776 0.950 1_554 S
H1757 C1777 0.950 . S
H1758 C1779 0.950 . S
H1759 C1782 0.950 . S
H1760 C1783 0.950 . S
H1761 C1785 0.950 1_556 S
H1762 C1786 0.950 . S
H1763 C1787 0.951 . S
H1764 C1789 0.951 . S
H1765 C1791 0.971 . S
H1766 C1792 0.950 . S
H1767 C1794 0.950 . S
H1768 C1797 0.950 . S
H1769 C1798 0.950 . S
H1770 C1800 0.950 . S
H1771 C1801 0.950 1_554 S
C1772 H1754 0.951 . S
C1772 C1773 1.366 . S
C1772 C1774 1.388 . S
C1773 C1772 1.366 . S
C1773 C1777 1.385 . S
C1774 H1755 0.951 . S
C1774 C1772 1.388 . S
C1774 C1775 1.366 . S
C1775 C1774 1.366 . S
C1775 C1776 1.414 . S
C1775 C1778 1.499 . S
C1776 H1756 0.950 1_556 S
C1776 C1775 1.414 . S
C1776 C1777 1.374 . S
C1777 H1757 0.950 . S
C1777 C1773 1.385 . S
C1777 C1776 1.374 . S
C1778 C1775 1.499 . S
C1778 C1779 1.373 . S
C1778 C1780 1.389 . S
C1779 H1758 0.950 . S
C1779 C1778 1.373 . S
C1779 C1795 1.377 . S
C1780 C1778 1.389 . S
C1780 C1781 1.524 1_556 S
C1780 C1794 1.377 1_556 S
C1781 C1780 1.524 1_554 S
C1781 C1782 1.397 . S
C1781 C1786 1.363 1_554 S
C1782 H1759 0.950 . S
C1782 C1781 1.397 . S
C1782 C1783 1.334 . S
C1783 H1760 0.950 . S
C1783 C1782 1.334 . S
C1783 C1784 1.287 . S
C1784 C1783 1.287 . S
C1784 C1785 1.524 . S
C1784 H1803 0.913 . S
C1785 H1761 0.950 1_554 S
C1785 C1784 1.524 . S
C1785 C1786 1.415 1_554 S
C1786 H1762 0.950 . S
C1786 C1781 1.363 1_556 S
C1786 C1785 1.415 1_556 S
C1787 H1763 0.951 . S
C1787 C1788 1.366 . S
C1787 C1789 1.388 . S
C1788 C1787 1.366 . S
C1788 C1792 1.385 . S
C1789 H1764 0.951 . S
C1789 C1787 1.388 . S
C1789 C1790 1.366 . S
C1790 C1789 1.366 . S
C1790 C1791 1.403 1_554 S
C1790 C1793 1.500 1_554 S
C1791 H1765 0.971 . S
C1791 C1790 1.403 1_556 S
C1791 C1792 1.365 1_556 S
C1792 H1766 0.950 . S
C1792 C1788 1.385 . S
C1792 C1791 1.365 1_554 S
C1793 C1790 1.500 1_556 S
C1793 C1794 1.374 1_556 S
C1793 C1795 1.388 . S
C1794 H1767 0.950 . S
C1794 C1780 1.377 1_554 S
C1794 C1793 1.374 1_554 S
C1795 C1779 1.377 . S
C1795 C1793 1.388 . S
C1795 C1796 1.524 . S
C1796 C1795 1.524 . S
C1796 C1797 1.397 . S
C1796 C1801 1.363 . S
C1797 H1768 0.950 . S
C1797 C1796 1.397 . S
C1797 C1798 1.334 . S
C1798 H1769 0.950 . S
C1798 C1797 1.334 . S
C1798 C1799 1.287 . S
C1799 C1798 1.287 . S
C1799 C1800 1.524 . S
C1799 H1802 0.999 . S
C1800 H1770 0.950 . S
C1800 C1799 1.524 . S
C1800 C1801 1.415 . S
C1801 H1771 0.950 1_556 S
C1801 C1796 1.363 . S
C1801 C1800 1.415 . S
H1802 C1799 0.999 . S
H1803 C1784 0.913 . S
H1804 C1822 0.951 . S
H1805 C1824 0.951 . S
H1806 C1826 0.950 . S
H1807 C1827 0.950 1_556 S
H1808 C1829 0.950 . S
H1809 C1832 0.950 . S
H1810 C1833 0.950 . S
H1811 C1835 0.950 . S
H1812 C1836 0.950 . S
H1813 C1837 0.951 . S
H1814 C1839 0.951 . S
H1815 C1841 0.950 1_554 S
H1816 C1842 0.939 1_554 S
H1817 C1844 0.950 . S
H1818 C1847 0.950 . S
H1819 C1848 0.950 . S
H1820 C1850 0.950 . S
H1821 C1851 0.950 . S
C1822 H1804 0.951 . S
C1822 C1823 1.366 . S
C1822 C1824 1.388 . S
C1823 C1822 1.366 . S
C1823 C1827 1.385 . S
C1824 H1805 0.951 . S
C1824 C1822 1.388 . S
C1824 C1825 1.366 . S
C1825 C1824 1.366 . S
C1825 C1826 1.414 1_554 S
C1825 C1828 1.499 . S
C1826 H1806 0.950 . S
C1826 C1825 1.414 1_556 S
C1826 C1827 1.374 1_556 S
C1827 H1807 0.950 1_554 S
C1827 C1823 1.385 . S
C1827 C1826 1.374 1_554 S
C1828 C1825 1.499 . S
C1828 C1829 1.373 1_554 S
C1828 C1830 1.389 . S
C1829 H1808 0.950 . S
C1829 C1828 1.373 1_556 S
C1829 C1845 1.377 . S
C1830 C1828 1.389 . S
C1830 C1831 1.524 . S
C1830 C1844 1.377 . S
C1831 C1830 1.524 . S
C1831 C1832 1.397 . S
C1831 C1836 1.363 . S
C1832 H1809 0.950 . S
C1832 C1831 1.397 . S
C1832 C1833 1.334 . S
C1833 H1810 0.950 . S
C1833 C1832 1.334 . S
C1833 C1834 1.287 . S
C1834 C1833 1.287 . S
C1834 C1835 1.524 . S
C1834 H1853 0.913 . S
C1835 H1811 0.950 . S
C1835 C1834 1.524 . S
C1835 C1836 1.415 . S
C1836 H1812 0.950 . S
C1836 C1831 1.363 . S
C1836 C1835 1.415 . S
C1837 H1813 0.951 . S
C1837 C1838 1.366 . S
C1837 C1839 1.388 . S
C1838 C1837 1.366 . S
C1838 C1842 1.385 . S
C1839 H1814 0.951 . S
C1839 C1837 1.388 . S
C1839 C1840 1.366 . S
C1840 C1839 1.366 . S
C1840 C1841 1.414 . S
C1840 C1843 1.499 . S
C1841 H1815 0.950 1_556 S
C1841 C1840 1.414 . S
C1841 C1842 1.374 . S
C1842 H1816 0.939 1_556 S
C1842 C1838 1.385 . S
C1842 C1841 1.374 . S
C1843 C1840 1.499 . S
C1843 C1844 1.373 1_556 S
C1843 C1845 1.389 . S
C1844 H1817 0.950 . S
C1844 C1830 1.377 . S
C1844 C1843 1.373 1_554 S
C1845 C1829 1.377 . S
C1845 C1843 1.389 . S
C1845 C1846 1.524 . S
C1846 C1845 1.524 . S
C1846 C1847 1.397 . S
C1846 C1851 1.363 . S
C1847 H1818 0.950 . S
C1847 C1846 1.397 . S
C1847 C1848 1.334 . S
C1848 H1819 0.950 . S
C1848 C1847 1.334 . S
C1848 C1849 1.287 . S
C1849 C1848 1.287 . S
C1849 C1850 1.524 . S
C1849 H1852 0.999 . S
C1850 H1820 0.950 . S
C1850 C1849 1.524 . S
C1850 C1851 1.415 . S
C1851 H1821 0.950 . S
C1851 C1846 1.363 . S
C1851 C1850 1.415 . S
H1852 C1849 0.999 . S
H1853 C1834 0.913 . S
H1854 C1872 0.951 . S
H1855 C1874 0.951 . S
H1856 C1876 0.950 . S
H1857 C1877 0.950 . S
H1858 C1879 0.950 . S
H1859 C1882 0.950 . S
H1860 C1883 0.950 . S
H1861 C1885 0.950 . S
H1862 C1886 0.950 . S
H1863 C1887 0.951 . S
H1864 C1889 0.951 . S
H1865 C1891 0.950 . S
H1866 C1892 0.950 . S
H1867 C1894 0.950 . S
H1868 C1897 0.950 . S
H1869 C1898 0.950 . S
H1870 C1900 0.950 . S
H1871 C1901 0.950 . S
C1872 H1854 0.951 . S
C1872 C1873 1.366 . S
C1872 C1874 1.388 . S
C1873 C1872 1.366 . S
C1873 C1877 1.385 . S
C1874 H1855 0.951 . S
C1874 C1872 1.388 . S
C1874 C1875 1.366 . S
C1875 C1874 1.366 . S
C1875 C1876 1.414 . S
C1875 C1878 1.499 . S
C1876 H1856 0.950 . S
C1876 C1875 1.414 . S
C1876 C1877 1.374 . S
C1877 H1857 0.950 . S
C1877 C1873 1.385 . S
C1877 C1876 1.374 . S
C1878 C1875 1.499 . S
C1878 C1879 1.373 . S
C1878 C1880 1.389 . S
C1879 H1858 0.950 . S
C1879 C1878 1.373 . S
C1879 C1895 1.377 . S
C1880 C1878 1.389 . S
C1880 C1881 1.524 . S
C1880 C1894 1.377 . S
C1881 C1880 1.524 . S
C1881 C1882 1.397 . S
C1881 C1886 1.363 . S
C1882 H1859 0.950 . S
C1882 C1881 1.397 . S
C1882 C1883 1.334 . S
C1883 H1860 0.950 . S
C1883 C1882 1.334 . S
C1883 C1884 1.287 . S
C1884 C1883 1.287 . S
C1884 C1885 1.524 . S
C1884 H1903 0.913 . S
C1885 H1861 0.950 . S
C1885 C1884 1.524 . S
C1885 C1886 1.415 . S
C1886 H1862 0.950 . S
C1886 C1881 1.363 . S
C1886 C1885 1.415 . S
C1887 H1863 0.951 . S
C1887 C1888 1.366 . S
C1887 C1889 1.388 . S
C1888 C1887 1.366 . S
C1888 C1892 1.385 . S
C1889 H1864 0.951 . S
C1889 C1887 1.388 . S
C1889 C1890 1.366 . S
C1890 C1889 1.366 . S
C1890 C1891 1.414 . S
C1890 C1893 1.499 . S
C1891 H1865 0.950 . S
C1891 C1890 1.414 . S
C1891 C1892 1.374 . S
C1892 H1866 0.950 . S
C1892 C1888 1.385 . S
C1892 C1891 1.374 . S
C1893 C1890 1.499 . S
C1893 C1894 1.373 . S
C1893 C1895 1.389 . S
C1894 H1867 0.950 . S
C1894 C1880 1.377 . S
C1894 C1893 1.373 . S
C1895 C1879 1.377 . S
C1895 C1893 1.389 . S
C1895 C1896 1.524 . S
C1896 C1895 1.524 . S
C1896 C1897 1.397 . S
C1896 C1901 1.363 . S
C1897 H1868 0.950 . S
C1897 C1896 1.397 . S
C1897 C1898 1.334 . S
C1898 H1869 0.950 . S
C1898 C1897 1.334 . S
C1898 C1899 1.287 . S
C1899 C1898 1.287 . S
C1899 C1900 1.524 . S
C1899 H1902 0.999 . S
C1900 H1870 0.950 . S
C1900 C1899 1.524 . S
C1900 C1901 1.415 . S
C1901 H1871 0.950 . S
C1901 C1896 1.363 . S
C1901 C1900 1.415 . S
H1902 C1899 0.999 . S
H1903 C1884 0.913 . S
H1904 C1922 0.951 . S
H1905 C1924 0.951 . S
H1906 C1926 0.950 . S
H1907 C1927 0.950 . S
H1908 C1929 0.950 . S
H1909 C1932 0.950 . S
H1910 C1933 0.950 . S
H1911 C1935 0.950 . S
H1912 C1936 0.950 . S
H1913 C1937 0.951 . S
H1914 C1939 0.951 . S
H1915 C1941 0.950 . S
H1916 C1942 0.950 . S
H1917 C1944 0.950 . S
H1918 C1947 0.950 . S
H1919 C1948 0.950 . S
H1920 C1950 0.950 . S
H1921 C1951 0.950 . S
C1922 H1904 0.951 . S
C1922 C1923 1.366 . S
C1922 C1924 1.388 . S
C1923 C1922 1.366 . S
C1923 C1927 1.385 . S
C1924 H1905 0.951 . S
C1924 C1922 1.388 . S
C1924 C1925 1.366 . S
C1925 C1924 1.366 . S
C1925 C1926 1.414 . S
C1925 C1928 1.499 . S
C1926 H1906 0.950 . S
C1926 C1925 1.414 . S
C1926 C1927 1.374 . S
C1927 H1907 0.950 . S
C1927 C1923 1.385 . S
C1927 C1926 1.374 . S
C1928 C1925 1.499 . S
C1928 C1929 1.373 . S
C1928 C1930 1.389 . S
C1929 H1908 0.950 . S
C1929 C1928 1.373 . S
C1929 C1945 1.377 . S
C1930 C1928 1.389 . S
C1930 C1931 1.524 . S
C1930 C1944 1.377 . S
C1931 C1930 1.524 . S
C1931 C1932 1.397 . S
C1931 C1936 1.363 . S
C1932 H1909 0.950 . S
C1932 C1931 1.397 . S
C1932 C1933 1.334 . S
C1933 H1910 0.950 . S
C1933 C1932 1.334 . S
C1933 C1934 1.287 . S
C1934 C1933 1.287 . S
C1934 C1935 1.524 . S
C1934 H1953 0.913 . S
C1935 H1911 0.950 . S
C1935 C1934 1.524 . S
C1935 C1936 1.415 . S
C1936 H1912 0.950 . S
C1936 C1931 1.363 . S
C1936 C1935 1.415 . S
C1937 H1913 0.951 . S
C1937 C1938 1.366 . S
C1937 C1939 1.388 . S
C1938 C1937 1.366 . S
C1938 C1942 1.385 . S
C1939 H1914 0.951 . S
C1939 C1937 1.388 . S
C1939 C1940 1.366 . S
C1940 C1939 1.366 . S
C1940 C1941 1.414 . S
C1940 C1943 1.499 . S
C1941 H1915 0.950 . S
C1941 C1940 1.414 . S
C1941 C1942 1.374 . S
C1942 H1916 0.950 . S
C1942 C1938 1.385 . S
C1942 C1941 1.374 . S
C1943 C1940 1.499 . S
C1943 C1944 1.373 . S
C1943 C1945 1.389 . S
C1944 H1917 0.950 . S
C1944 C1930 1.377 . S
C1944 C1943 1.373 . S
C1945 C1929 1.377 . S
C1945 C1943 1.389 . S
C1945 C1946 1.524 . S
C1946 C1945 1.524 . S
C1946 C1947 1.397 . S
C1946 C1951 1.363 . S
C1947 H1918 0.950 . S
C1947 C1946 1.397 . S
C1947 C1948 1.334 . S
C1948 H1919 0.950 . S
C1948 C1947 1.334 . S
C1948 C1949 1.287 . S
C1949 C1948 1.287 . S
C1949 C1950 1.524 . S
C1949 H1952 0.999 . S
C1950 H1920 0.950 . S
C1950 C1949 1.524 . S
C1950 C1951 1.415 . S
C1951 H1921 0.950 . S
C1951 C1946 1.363 . S
C1951 C1950 1.415 . S
H1952 C1949 0.999 . S
H1953 C1934 0.913 . S
H1954 C1972 0.951 . S
H1955 C1974 0.951 . S
H1956 C1976 0.950 . S
H1957 C1977 0.950 . S
H1958 C1979 0.950 . S
H1959 C1982 0.950 . S
H1960 C1983 0.950 . S
H1961 C1985 0.950 . S
H1962 C1986 0.950 . S
H1963 C1987 0.951 . S
H1964 C1989 0.951 . S
H1965 C1991 0.950 . S
H1966 C1992 0.950 . S
H1967 C1994 0.950 . S
H1968 C1997 0.950 . S
H1969 C1998 0.950 . S
H1970 C2000 0.950 . S
H1971 C2001 0.950 . S
C1972 H1954 0.951 . S
C1972 C1973 1.366 . S
C1972 C1974 1.388 . S
C1973 C1972 1.366 . S
C1973 C1977 1.385 . S
C1974 H1955 0.951 . S
C1974 C1972 1.388 . S
C1974 C1975 1.366 . S
C1975 C1974 1.366 . S
C1975 C1976 1.414 . S
C1975 C1978 1.499 . S
C1976 H1956 0.950 . S
C1976 C1975 1.414 . S
C1976 C1977 1.374 . S
C1977 H1957 0.950 . S
C1977 C1973 1.385 . S
C1977 C1976 1.374 . S
C1978 C1975 1.499 . S
C1978 C1979 1.373 . S
C1978 C1980 1.389 . S
C1979 H1958 0.950 . S
C1979 C1978 1.373 . S
C1979 C1995 1.377 . S
C1980 C1978 1.389 . S
C1980 C1981 1.524 . S
C1980 C1994 1.377 . S
C1981 C1980 1.524 . S
C1981 C1982 1.397 . S
C1981 C1986 1.363 . S
C1982 H1959 0.950 . S
C1982 C1981 1.397 . S
C1982 C1983 1.334 . S
C1983 H1960 0.950 . S
C1983 C1982 1.334 . S
C1983 C1984 1.287 . S
C1984 C1983 1.287 . S
C1984 C1985 1.524 . S
C1984 H2003 0.913 . S
C1985 H1961 0.950 . S
C1985 C1984 1.524 . S
C1985 C1986 1.415 . S
C1986 H1962 0.950 . S
C1986 C1981 1.363 . S
C1986 C1985 1.415 . S
C1987 H1963 0.951 . S
C1987 C1988 1.366 . S
C1987 C1989 1.388 . S
C1988 C1987 1.366 . S
C1988 C1992 1.385 . S
C1989 H1964 0.951 . S
C1989 C1987 1.388 . S
C1989 C1990 1.366 . S
C1990 C1989 1.366 . S
C1990 C1991 1.414 . S
C1990 C1993 1.499 . S
C1991 H1965 0.950 . S
C1991 C1990 1.414 . S
C1991 C1992 1.374 . S
C1992 H1966 0.950 . S
C1992 C1988 1.385 . S
C1992 C1991 1.374 . S
C1993 C1990 1.499 . S
C1993 C1994 1.373 . S
C1993 C1995 1.389 . S
C1994 H1967 0.950 . S
C1994 C1980 1.377 . S
C1994 C1993 1.373 . S
C1995 C1979 1.377 . S
C1995 C1993 1.389 . S
C1995 C1996 1.524 . S
C1996 C1995 1.524 . S
C1996 C1997 1.397 . S
C1996 C2001 1.363 . S
C1997 H1968 0.950 . S
C1997 C1996 1.397 . S
C1997 C1998 1.334 . S
C1998 H1969 0.950 . S
C1998 C1997 1.334 . S
C1998 C1999 1.287 . S
C1999 C1998 1.287 . S
C1999 C2000 1.524 . S
C1999 H2002 0.999 . S
C2000 H1970 0.950 . S
C2000 C1999 1.524 . S
C2000 C2001 1.415 . S
C2001 H1971 0.950 . S
C2001 C1996 1.363 . S
C2001 C2000 1.415 . S
H2002 C1999 0.999 . S
H2003 C1984 0.913 . S
H2004 C2022 0.951 . S
H2005 C2024 0.951 . S
H2006 C2026 0.950 . S
H2007 C2027 0.950 . S
H2008 C2029 0.950 . S
H2009 C2032 0.950 . S
H2010 C2033 0.950 . S
H2011 C2035 0.950 . S
H2012 C2036 0.950 . S
H2013 C2037 0.951 . S
H2014 C2039 0.951 . S
H2015 C2041 0.950 . S
H2016 C2042 0.950 . S
H2017 C2044 0.950 . S
H2018 C2047 0.950 . S
H2019 C2048 0.950 . S
H2020 C2050 0.950 . S
H2021 C2051 0.950 . S
C2022 H2004 0.951 . S
C2022 C2023 1.366 . S
C2022 C2024 1.388 . S
C2023 C2022 1.366 . S
C2023 C2027 1.385 . S
C2024 H2005 0.951 . S
C2024 C2022 1.388 . S
C2024 C2025 1.366 . S
C2025 C2024 1.366 . S
C2025 C2026 1.414 . S
C2025 C2028 1.499 . S
C2026 H2006 0.950 . S
C2026 C2025 1.414 . S
C2026 C2027 1.374 . S
C2027 H2007 0.950 . S
C2027 C2023 1.385 . S
C2027 C2026 1.374 . S
C2028 C2025 1.499 . S
C2028 C2029 1.373 . S
C2028 C2030 1.389 . S
C2029 H2008 0.950 . S
C2029 C2028 1.373 . S
C2029 C2045 1.377 . S
C2030 C2028 1.389 . S
C2030 C2031 1.524 . S
C2030 C2044 1.377 . S
C2031 C2030 1.524 . S
C2031 C2032 1.397 . S
C2031 C2036 1.363 . S
C2032 H2009 0.950 . S
C2032 C2031 1.397 . S
C2032 C2033 1.334 . S
C2033 H2010 0.950 . S
C2033 C2032 1.334 . S
C2033 C2034 1.287 . S
C2034 C2033 1.287 . S
C2034 C2035 1.524 . S
C2034 H2053 0.913 . S
C2035 H2011 0.950 . S
C2035 C2034 1.524 . S
C2035 C2036 1.415 . S
C2036 H2012 0.950 . S
C2036 C2031 1.363 . S
C2036 C2035 1.415 . S
C2037 H2013 0.951 . S
C2037 C2038 1.366 . S
C2037 C2039 1.388 . S
C2038 C2037 1.366 . S
C2038 C2042 1.385 . S
C2039 H2014 0.951 . S
C2039 C2037 1.388 . S
C2039 C2040 1.366 . S
C2040 C2039 1.366 . S
C2040 C2041 1.414 . S
C2040 C2043 1.499 . S
C2041 H2015 0.950 . S
C2041 C2040 1.414 . S
C2041 C2042 1.374 . S
C2042 H2016 0.950 . S
C2042 C2038 1.385 . S
C2042 C2041 1.374 . S
C2043 C2040 1.499 . S
C2043 C2044 1.373 . S
C2043 C2045 1.389 . S
C2044 H2017 0.950 . S
C2044 C2030 1.377 . S
C2044 C2043 1.373 . S
C2045 C2029 1.377 . S
C2045 C2043 1.389 . S
C2045 C2046 1.524 . S
C2046 C2045 1.524 . S
C2046 C2047 1.397 . S
C2046 C2051 1.363 . S
C2047 H2018 0.950 . S
C2047 C2046 1.397 . S
C2047 C2048 1.334 . S
C2048 H2019 0.950 . S
C2048 C2047 1.334 . S
C2048 C2049 1.287 . S
C2049 C2048 1.287 . S
C2049 C2050 1.524 . S
C2049 H2052 0.999 . S
C2050 H2020 0.950 . S
C2050 C2049 1.524 . S
C2050 C2051 1.415 . S
C2051 H2021 0.950 . S
C2051 C2046 1.363 . S
C2051 C2050 1.415 . S
H2052 C2049 0.999 . S
H2053 C2034 0.913 . S
H2054 C2072 0.951 . S
H2055 C2074 0.951 . S
H2056 C2076 0.950 . S
H2057 C2077 0.950 . S
H2058 C2079 0.950 . S
H2059 C2082 0.950 . S
H2060 C2083 0.950 . S
H2061 C2085 0.950 . S
H2062 C2086 0.950 . S
H2063 C2087 0.951 . S
H2064 C2089 0.951 . S
H2065 C2091 0.950 . S
H2066 C2092 0.950 . S
H2067 C2094 0.950 . S
H2068 C2097 0.950 . S
H2069 C2098 0.950 . S
H2070 C2100 0.950 . S
H2071 C2101 0.950 . S
C2072 H2054 0.951 . S
C2072 C2073 1.366 . S
C2072 C2074 1.388 . S
C2073 C2072 1.366 . S
C2073 C2077 1.385 . S
C2074 H2055 0.951 . S
C2074 C2072 1.388 . S
C2074 C2075 1.366 . S
C2075 C2074 1.366 . S
C2075 C2076 1.414 . S
C2075 C2078 1.499 . S
C2076 H2056 0.950 . S
C2076 C2075 1.414 . S
C2076 C2077 1.374 . S
C2077 H2057 0.950 . S
C2077 C2073 1.385 . S
C2077 C2076 1.374 . S
C2078 C2075 1.499 . S
C2078 C2079 1.373 . S
C2078 C2080 1.389 . S
C2079 H2058 0.950 . S
C2079 C2078 1.373 . S
C2079 C2095 1.377 . S
C2080 C2078 1.389 . S
C2080 C2081 1.524 . S
C2080 C2094 1.377 . S
C2081 C2080 1.524 . S
C2081 C2082 1.397 . S
C2081 C2086 1.363 . S
C2082 H2059 0.950 . S
C2082 C2081 1.397 . S
C2082 C2083 1.334 . S
C2083 H2060 0.950 . S
C2083 C2082 1.334 . S
C2083 C2084 1.287 . S
C2084 C2083 1.287 . S
C2084 C2085 1.524 . S
C2084 H2103 0.913 . S
C2085 H2061 0.950 . S
C2085 C2084 1.524 . S
C2085 C2086 1.415 . S
C2086 H2062 0.950 . S
C2086 C2081 1.363 . S
C2086 C2085 1.415 . S
C2087 H2063 0.951 . S
C2087 C2088 1.366 . S
C2087 C2089 1.388 . S
C2088 C2087 1.366 . S
C2088 C2092 1.385 . S
C2089 H2064 0.951 . S
C2089 C2087 1.388 . S
C2089 C2090 1.366 . S
C2090 C2089 1.366 . S
C2090 C2091 1.414 . S
C2090 C2093 1.499 . S
C2091 H2065 0.950 . S
C2091 C2090 1.414 . S
C2091 C2092 1.374 . S
C2092 H2066 0.950 . S
C2092 C2088 1.385 . S
C2092 C2091 1.374 . S
C2093 C2090 1.499 . S
C2093 C2094 1.373 . S
C2093 C2095 1.389 . S
C2094 H2067 0.950 . S
C2094 C2080 1.377 . S
C2094 C2093 1.373 . S
C2095 C2079 1.377 . S
C2095 C2093 1.389 . S
C2095 C2096 1.524 . S
C2096 C2095 1.524 . S
C2096 C2097 1.397 . S
C2096 C2101 1.363 . S
C2097 H2068 0.950 . S
C2097 C2096 1.397 . S
C2097 C2098 1.334 . S
C2098 H2069 0.950 . S
C2098 C2097 1.334 . S
C2098 C2099 1.287 . S
C2099 C2098 1.287 . S
C2099 C2100 1.524 . S
C2099 H2102 0.999 . S
C2100 H2070 0.950 . S
C2100 C2099 1.524 . S
C2100 C2101 1.415 . S
C2101 H2071 0.950 . S
C2101 C2096 1.363 . S
C2101 C2100 1.415 . S
H2102 C2099 0.999 . S
H2103 C2084 0.913 . S
H2104 C2122 0.951 . S
H2105 C2124 0.951 . S
H2106 C2126 0.950 . S
H2107 C2127 0.950 . S
H2108 C2129 0.950 . S
H2109 C2132 0.950 . S
H2110 C2133 0.950 . S
H2111 C2135 0.950 . S
H2112 C2136 0.950 . S
H2113 C2137 0.951 . S
H2114 C2139 0.951 . S
H2115 C2141 0.950 . S
H2116 C2142 0.950 . S
H2117 C2144 0.950 . S
H2118 C2147 0.950 . S
H2119 C2148 0.950 . S
H2120 C2150 0.950 . S
H2121 C2151 0.950 . S
C2122 H2104 0.951 . S
C2122 C2123 1.366 . S
C2122 C2124 1.388 . S
C2123 C2122 1.366 . S
C2123 C2127 1.385 . S
C2124 H2105 0.951 . S
C2124 C2122 1.388 . S
C2124 C2125 1.366 . S
C2125 C2124 1.366 . S
C2125 C2126 1.414 . S
C2125 C2128 1.499 . S
C2126 H2106 0.950 . S
C2126 C2125 1.414 . S
C2126 C2127 1.374 . S
C2127 H2107 0.950 . S
C2127 C2123 1.385 . S
C2127 C2126 1.374 . S
C2128 C2125 1.499 . S
C2128 C2129 1.373 . S
C2128 C2130 1.389 . S
C2129 H2108 0.950 . S
C2129 C2128 1.373 . S
C2129 C2145 1.377 . S
C2130 C2128 1.389 . S
C2130 C2131 1.524 . S
C2130 C2144 1.377 . S
C2131 C2130 1.524 . S
C2131 C2132 1.397 . S
C2131 C2136 1.363 . S
C2132 H2109 0.950 . S
C2132 C2131 1.397 . S
C2132 C2133 1.334 . S
C2133 H2110 0.950 . S
C2133 C2132 1.334 . S
C2133 C2134 1.287 . S
C2134 C2133 1.287 . S
C2134 C2135 1.524 . S
C2134 H2153 0.913 . S
C2135 H2111 0.950 . S
C2135 C2134 1.524 . S
C2135 C2136 1.415 . S
C2136 H2112 0.950 . S
C2136 C2131 1.363 . S
C2136 C2135 1.415 . S
C2137 H2113 0.951 . S
C2137 C2138 1.366 . S
C2137 C2139 1.388 . S
C2138 C2137 1.366 . S
C2138 C2142 1.385 . S
C2139 H2114 0.951 . S
C2139 C2137 1.388 . S
C2139 C2140 1.366 . S
C2140 C2139 1.366 . S
C2140 C2141 1.414 . S
C2140 C2143 1.499 . S
C2141 H2115 0.950 . S
C2141 C2140 1.414 . S
C2141 C2142 1.374 . S
C2142 H2116 0.950 . S
C2142 C2138 1.385 . S
C2142 C2141 1.374 . S
C2143 C2140 1.499 . S
C2143 C2144 1.373 . S
C2143 C2145 1.389 . S
C2144 H2117 0.950 . S
C2144 C2130 1.377 . S
C2144 C2143 1.373 . S
C2145 C2129 1.377 . S
C2145 C2143 1.389 . S
C2145 C2146 1.524 . S
C2146 C2145 1.524 . S
C2146 C2147 1.397 . S
C2146 C2151 1.363 . S
C2147 H2118 0.950 . S
C2147 C2146 1.397 . S
C2147 C2148 1.334 . S
C2148 H2119 0.950 . S
C2148 C2147 1.334 . S
C2148 C2149 1.287 . S
C2149 C2148 1.287 . S
C2149 C2150 1.524 . S
C2149 H2152 0.999 . S
C2150 H2120 0.950 . S
C2150 C2149 1.524 . S
C2150 C2151 1.415 . S
C2151 H2121 0.950 . S
C2151 C2146 1.363 . S
C2151 C2150 1.415 . S
H2152 C2149 0.999 . S
H2153 C2134 0.913 . S
H2154 C2172 0.951 . S
H2155 C2174 0.951 . S
H2156 C2176 0.950 . S
H2157 C2177 0.950 . S
H2158 C2179 0.950 . S
H2159 C2182 0.950 . S
H2160 C2183 0.950 . S
H2161 C2185 0.950 . S
H2162 C2186 0.950 . S
H2163 C2187 0.951 . S
H2164 C2189 0.951 . S
H2165 C2191 0.950 . S
H2166 C2192 0.950 . S
H2167 C2194 0.950 . S
H2168 C2197 0.950 . S
H2169 C2198 0.950 . S
H2170 C2200 0.950 . S
H2171 C2201 0.950 . S
C2172 H2154 0.951 . S
C2172 C2173 1.366 . S
C2172 C2174 1.388 . S
C2173 C2172 1.366 . S
C2173 C2177 1.385 . S
C2174 H2155 0.951 . S
C2174 C2172 1.388 . S
C2174 C2175 1.366 . S
C2175 C2174 1.366 . S
C2175 C2176 1.414 . S
C2175 C2178 1.499 . S
C2176 H2156 0.950 . S
C2176 C2175 1.414 . S
C2176 C2177 1.374 . S
C2177 H2157 0.950 . S
C2177 C2173 1.385 . S
C2177 C2176 1.374 . S
C2178 C2175 1.499 . S
C2178 C2179 1.373 . S
C2178 C2180 1.389 . S
C2179 H2158 0.950 . S
C2179 C2178 1.373 . S
C2179 C2195 1.377 . S
C2180 C2178 1.389 . S
C2180 C2181 1.524 . S
C2180 C2194 1.377 . S
C2181 C2180 1.524 . S
C2181 C2182 1.397 . S
C2181 C2186 1.363 . S
C2182 H2159 0.950 . S
C2182 C2181 1.397 . S
C2182 C2183 1.334 . S
C2183 H2160 0.950 . S
C2183 C2182 1.334 . S
C2183 C2184 1.287 . S
C2184 C2183 1.287 . S
C2184 C2185 1.524 . S
C2184 H2203 0.913 . S
C2185 H2161 0.950 . S
C2185 C2184 1.524 . S
C2185 C2186 1.415 . S
C2186 H2162 0.950 . S
C2186 C2181 1.363 . S
C2186 C2185 1.415 . S
C2187 H2163 0.951 . S
C2187 C2188 1.366 . S
C2187 C2189 1.388 . S
C2188 C2187 1.366 . S
C2188 C2192 1.385 . S
C2189 H2164 0.951 . S
C2189 C2187 1.388 . S
C2189 C2190 1.366 . S
C2190 C2189 1.366 . S
C2190 C2191 1.414 . S
C2190 C2193 1.499 . S
C2191 H2165 0.950 . S
C2191 C2190 1.414 . S
C2191 C2192 1.374 . S
C2192 H2166 0.950 . S
C2192 C2188 1.385 . S
C2192 C2191 1.374 . S
C2193 C2190 1.499 . S
C2193 C2194 1.373 . S
C2193 C2195 1.389 . S
C2194 H2167 0.950 . S
C2194 C2180 1.377 . S
C2194 C2193 1.373 . S
C2195 C2179 1.377 . S
C2195 C2193 1.389 . S
C2195 C2196 1.524 . S
C2196 C2195 1.524 . S
C2196 C2197 1.397 . S
C2196 C2201 1.363 . S
C2197 H2168 0.950 . S
C2197 C2196 1.397 . S
C2197 C2198 1.334 . S
C2198 H2169 0.950 . S
C2198 C2197 1.334 . S
C2198 C2199 1.287 . S
C2199 C2198 1.287 . S
C2199 C2200 1.524 . S
C2199 H2202 0.999 . S
C2200 H2170 0.950 . S
C2200 C2199 1.524 . S
C2200 C2201 1.415 . S
C2201 H2171 0.950 . S
C2201 C2196 1.363 . S
C2201 C2200 1.415 . S
H2202 C2199 0.999 . S
H2203 C2184 0.913 . S
H2204 C2222 0.951 . S
H2205 C2224 0.951 . S
H2206 C2226 0.950 . S
H2207 C2227 0.950 . S
H2208 C2229 0.950 . S
H2209 C2232 0.950 . S
H2210 C2233 0.950 . S
H2211 C2235 0.950 . S
H2212 C2236 0.950 . S
H2213 C2237 0.951 . S
H2214 C2239 0.951 . S
H2215 C2241 0.950 . S
H2216 C2242 0.950 . S
H2217 C2244 0.950 . S
H2218 C2247 0.950 . S
H2219 C2248 0.950 . S
H2220 C2250 0.950 . S
H2221 C2251 0.950 . S
C2222 H2204 0.951 . S
C2222 C2223 1.366 . S
C2222 C2224 1.388 . S
C2223 C2222 1.366 . S
C2223 C2227 1.385 . S
C2224 H2205 0.951 . S
C2224 C2222 1.388 . S
C2224 C2225 1.366 . S
C2225 C2224 1.366 . S
C2225 C2226 1.414 . S
C2225 C2228 1.499 . S
C2226 H2206 0.950 . S
C2226 C2225 1.414 . S
C2226 C2227 1.374 . S
C2227 H2207 0.950 . S
C2227 C2223 1.385 . S
C2227 C2226 1.374 . S
C2228 C2225 1.499 . S
C2228 C2229 1.373 . S
C2228 C2230 1.389 . S
C2229 H2208 0.950 . S
C2229 C2228 1.373 . S
C2229 C2245 1.377 . S
C2230 C2228 1.389 . S
C2230 C2231 1.524 . S
C2230 C2244 1.377 . S
C2231 C2230 1.524 . S
C2231 C2232 1.397 . S
C2231 C2236 1.363 . S
C2232 H2209 0.950 . S
C2232 C2231 1.397 . S
C2232 C2233 1.334 . S
C2233 H2210 0.950 . S
C2233 C2232 1.334 . S
C2233 C2234 1.287 . S
C2234 C2233 1.287 . S
C2234 C2235 1.524 . S
C2234 H2253 0.913 . S
C2235 H2211 0.950 . S
C2235 C2234 1.524 . S
C2235 C2236 1.415 . S
C2236 H2212 0.950 . S
C2236 C2231 1.363 . S
C2236 C2235 1.415 . S
C2237 H2213 0.951 . S
C2237 C2238 1.366 . S
C2237 C2239 1.388 . S
C2238 C2237 1.366 . S
C2238 C2242 1.385 . S
C2239 H2214 0.951 . S
C2239 C2237 1.388 . S
C2239 C2240 1.366 . S
C2240 C2239 1.366 . S
C2240 C2241 1.414 . S
C2240 C2243 1.499 . S
C2241 H2215 0.950 . S
C2241 C2240 1.414 . S
C2241 C2242 1.374 . S
C2242 H2216 0.950 . S
C2242 C2238 1.385 . S
C2242 C2241 1.374 . S
C2243 C2240 1.499 . S
C2243 C2244 1.373 . S
C2243 C2245 1.389 . S
C2244 H2217 0.950 . S
C2244 C2230 1.377 . S
C2244 C2243 1.373 . S
C2245 C2229 1.377 . S
C2245 C2243 1.389 . S
C2245 C2246 1.524 . S
C2246 C2245 1.524 . S
C2246 C2247 1.397 . S
C2246 C2251 1.363 . S
C2247 H2218 0.950 . S
C2247 C2246 1.397 . S
C2247 C2248 1.334 . S
C2248 H2219 0.950 . S
C2248 C2247 1.334 . S
C2248 C2249 1.287 . S
C2249 C2248 1.287 . S
C2249 C2250 1.524 . S
C2249 H2252 0.999 . S
C2250 H2220 0.950 . S
C2250 C2249 1.524 . S
C2250 C2251 1.415 . S
C2251 H2221 0.950 . S
C2251 C2246 1.363 . S
C2251 C2250 1.415 . S
H2252 C2249 0.999 . S
H2253 C2234 0.913 . S
H2254 C2272 0.951 . S
H2255 C2274 0.951 . S
H2256 C2276 0.950 . S
H2257 C2277 0.950 . S
H2258 C2279 0.950 . S
H2259 C2282 0.950 . S
H2260 C2283 0.950 . S
H2261 C2285 0.950 . S
H2262 C2286 0.950 . S
H2263 C2287 0.951 . S
H2264 C2289 0.951 . S
H2265 C2291 0.950 . S
H2266 C2292 0.950 . S
H2267 C2294 0.950 . S
H2268 C2297 0.950 . S
H2269 C2298 0.950 . S
H2270 C2300 0.950 . S
H2271 C2301 0.950 . S
C2272 H2254 0.951 . S
C2272 C2273 1.366 . S
C2272 C2274 1.388 . S
C2273 C2272 1.366 . S
C2273 C2277 1.385 . S
C2274 H2255 0.951 . S
C2274 C2272 1.388 . S
C2274 C2275 1.366 . S
C2275 C2274 1.366 . S
C2275 C2276 1.414 . S
C2275 C2278 1.499 . S
C2276 H2256 0.950 . S
C2276 C2275 1.414 . S
C2276 C2277 1.374 . S
C2277 H2257 0.950 . S
C2277 C2273 1.385 . S
C2277 C2276 1.374 . S
C2278 C2275 1.499 . S
C2278 C2279 1.373 . S
C2278 C2280 1.389 . S
C2279 H2258 0.950 . S
C2279 C2278 1.373 . S
C2279 C2295 1.377 . S
C2280 C2278 1.389 . S
C2280 C2281 1.524 . S
C2280 C2294 1.377 . S
C2281 C2280 1.524 . S
C2281 C2282 1.397 . S
C2281 C2286 1.363 . S
C2282 H2259 0.950 . S
C2282 C2281 1.397 . S
C2282 C2283 1.334 . S
C2283 H2260 0.950 . S
C2283 C2282 1.334 . S
C2283 C2284 1.287 . S
C2284 C2283 1.287 . S
C2284 C2285 1.524 . S
C2284 H2303 0.913 . S
C2285 H2261 0.950 . S
C2285 C2284 1.524 . S
C2285 C2286 1.415 . S
C2286 H2262 0.950 . S
C2286 C2281 1.363 . S
C2286 C2285 1.415 . S
C2287 H2263 0.951 . S
C2287 C2288 1.366 . S
C2287 C2289 1.388 . S
C2288 C2287 1.366 . S
C2288 C2292 1.385 . S
C2289 H2264 0.951 . S
C2289 C2287 1.388 . S
C2289 C2290 1.366 . S
C2290 C2289 1.366 . S
C2290 C2291 1.414 . S
C2290 C2293 1.499 . S
C2291 H2265 0.950 . S
C2291 C2290 1.414 . S
C2291 C2292 1.374 . S
C2292 H2266 0.950 . S
C2292 C2288 1.385 . S
C2292 C2291 1.374 . S
C2293 C2290 1.499 . S
C2293 C2294 1.373 . S
C2293 C2295 1.389 . S
C2294 H2267 0.950 . S
C2294 C2280 1.377 . S
C2294 C2293 1.373 . S
C2295 C2279 1.377 . S
C2295 C2293 1.389 . S
C2295 C2296 1.524 . S
C2296 C2295 1.524 . S
C2296 C2297 1.397 . S
C2296 C2301 1.363 . S
C2297 H2268 0.950 . S
C2297 C2296 1.397 . S
C2297 C2298 1.334 . S
C2298 H2269 0.950 . S
C2298 C2297 1.334 . S
C2298 C2299 1.287 . S
C2299 C2298 1.287 . S
C2299 C2300 1.524 . S
C2299 H2302 0.999 . S
C2300 H2270 0.950 . S
C2300 C2299 1.524 . S
C2300 C2301 1.415 . S
C2301 H2271 0.950 . S
C2301 C2296 1.363 . S
C2301 C2300 1.415 . S
H2302 C2299 0.999 . S
H2303 C2284 0.913 . S
H2304 C2322 0.951 . S
H2305 C2324 0.951 . S
H2306 C2326 0.950 . S
H2307 C2327 0.950 . S
H2308 C2329 0.950 . S
H2309 C2332 0.950 . S
H2310 C2333 0.950 . S
H2311 C2335 0.950 . S
H2312 C2336 0.950 . S
H2313 C2337 0.951 . S
H2314 C2339 0.951 . S
H2315 C2341 0.950 . S
H2316 C2342 0.950 . S
H2317 C2344 0.950 . S
H2318 C2347 0.950 . S
H2319 C2348 0.950 . S
H2320 C2350 0.950 . S
H2321 C2351 0.950 . S
C2322 H2304 0.951 . S
C2322 C2323 1.366 . S
C2322 C2324 1.388 . S
C2323 C2322 1.366 . S
C2323 C2327 1.385 . S
C2324 H2305 0.951 . S
C2324 C2322 1.388 . S
C2324 C2325 1.366 . S
C2325 C2324 1.366 . S
C2325 C2326 1.414 . S
C2325 C2328 1.499 . S
C2326 H2306 0.950 . S
C2326 C2325 1.414 . S
C2326 C2327 1.374 . S
C2327 H2307 0.950 . S
C2327 C2323 1.385 . S
C2327 C2326 1.374 . S
C2328 C2325 1.499 . S
C2328 C2329 1.373 . S
C2328 C2330 1.389 . S
C2329 H2308 0.950 . S
C2329 C2328 1.373 . S
C2329 C2345 1.377 . S
C2330 C2328 1.389 . S
C2330 C2331 1.524 . S
C2330 C2344 1.377 . S
C2331 C2330 1.524 . S
C2331 C2332 1.397 . S
C2331 C2336 1.363 . S
C2332 H2309 0.950 . S
C2332 C2331 1.397 . S
C2332 C2333 1.334 . S
C2333 H2310 0.950 . S
C2333 C2332 1.334 . S
C2333 C2334 1.287 . S
C2334 C2333 1.287 . S
C2334 C2335 1.524 . S
C2334 H2353 0.913 . S
C2335 H2311 0.950 . S
C2335 C2334 1.524 . S
C2335 C2336 1.415 . S
C2336 H2312 0.950 . S
C2336 C2331 1.363 . S
C2336 C2335 1.415 . S
C2337 H2313 0.951 . S
C2337 C2338 1.366 . S
C2337 C2339 1.388 . S
C2338 C2337 1.366 . S
C2338 C2342 1.385 . S
C2339 H2314 0.951 . S
C2339 C2337 1.388 . S
C2339 C2340 1.366 . S
C2340 C2339 1.366 . S
C2340 C2341 1.414 . S
C2340 C2343 1.499 . S
C2341 H2315 0.950 . S
C2341 C2340 1.414 . S
C2341 C2342 1.374 . S
C2342 H2316 0.950 . S
C2342 C2338 1.385 . S
C2342 C2341 1.374 . S
C2343 C2340 1.499 . S
C2343 C2344 1.373 . S
C2343 C2345 1.389 . S
C2344 H2317 0.950 . S
C2344 C2330 1.377 . S
C2344 C2343 1.373 . S
C2345 C2329 1.377 . S
C2345 C2343 1.389 . S
C2345 C2346 1.524 . S
C2346 C2345 1.524 . S
C2346 C2347 1.397 . S
C2346 C2351 1.363 . S
C2347 H2318 0.950 . S
C2347 C2346 1.397 . S
C2347 C2348 1.334 . S
C2348 H2319 0.950 . S
C2348 C2347 1.334 . S
C2348 C2349 1.287 . S
C2349 C2348 1.287 . S
C2349 C2350 1.524 . S
C2349 H2352 0.999 . S
C2350 H2320 0.950 . S
C2350 C2349 1.524 . S
C2350 C2351 1.415 . S
C2351 H2321 0.950 . S
C2351 C2346 1.363 . S
C2351 C2350 1.415 . S
H2352 C2349 0.999 . S
H2353 C2334 0.913 . S
H2354 C2372 0.951 . S
H2355 C2374 0.951 . S
H2356 C2376 0.950 . S
H2357 C2377 0.950 . S
H2358 C2379 0.950 . S
H2359 C2382 0.950 . S
H2360 C2383 0.950 . S
H2361 C2385 0.950 . S
H2362 C2386 0.950 . S
H2363 C2387 0.951 . S
H2364 C2389 0.951 . S
H2365 C2391 0.950 . S
H2366 C2392 0.950 . S
H2367 C2394 0.950 . S
H2368 C2397 0.950 . S
H2369 C2398 0.950 . S
H2370 C2400 0.950 . S
H2371 C2401 0.950 . S
C2372 H2354 0.951 . S
C2372 C2373 1.366 . S
C2372 C2374 1.388 . S
C2373 C2372 1.366 . S
C2373 C2377 1.385 . S
C2374 H2355 0.951 . S
C2374 C2372 1.388 . S
C2374 C2375 1.366 . S
C2375 C2374 1.366 . S
C2375 C2376 1.414 . S
C2375 C2378 1.499 . S
C2376 H2356 0.950 . S
C2376 C2375 1.414 . S
C2376 C2377 1.374 . S
C2377 H2357 0.950 . S
C2377 C2373 1.385 . S
C2377 C2376 1.374 . S
C2378 C2375 1.499 . S
C2378 C2379 1.373 . S
C2378 C2380 1.389 . S
C2379 H2358 0.950 . S
C2379 C2378 1.373 . S
C2379 C2395 1.377 . S
C2380 C2378 1.389 . S
C2380 C2381 1.524 . S
C2380 C2394 1.377 . S
C2381 C2380 1.524 . S
C2381 C2382 1.397 . S
C2381 C2386 1.363 . S
C2382 H2359 0.950 . S
C2382 C2381 1.397 . S
C2382 C2383 1.334 . S
C2383 H2360 0.950 . S
C2383 C2382 1.334 . S
C2383 C2384 1.287 . S
C2384 C2383 1.287 . S
C2384 C2385 1.524 . S
C2384 H2403 0.913 . S
C2385 H2361 0.950 . S
C2385 C2384 1.524 . S
C2385 C2386 1.415 . S
C2386 H2362 0.950 . S
C2386 C2381 1.363 . S
C2386 C2385 1.415 . S
C2387 H2363 0.951 . S
C2387 C2388 1.366 . S
C2387 C2389 1.388 . S
C2388 C2387 1.366 . S
C2388 C2392 1.385 . S
C2389 H2364 0.951 . S
C2389 C2387 1.388 . S
C2389 C2390 1.366 . S
C2390 C2389 1.366 . S
C2390 C2391 1.414 . S
C2390 C2393 1.499 . S
C2391 H2365 0.950 . S
C2391 C2390 1.414 . S
C2391 C2392 1.374 . S
C2392 H2366 0.950 . S
C2392 C2388 1.385 . S
C2392 C2391 1.374 . S
C2393 C2390 1.499 . S
C2393 C2394 1.373 . S
C2393 C2395 1.389 . S
C2394 H2367 0.950 . S
C2394 C2380 1.377 . S
C2394 C2393 1.373 . S
C2395 C2379 1.377 . S
C2395 C2393 1.389 . S
C2395 C2396 1.524 . S
C2396 C2395 1.524 . S
C2396 C2397 1.397 . S
C2396 C2401 1.363 . S
C2397 H2368 0.950 . S
C2397 C2396 1.397 . S
C2397 C2398 1.334 . S
C2398 H2369 0.950 . S
C2398 C2397 1.334 . S
C2398 C2399 1.287 . S
C2399 C2398 1.287 . S
C2399 C2400 1.524 . S
C2399 H2402 0.999 . S
C2400 H2370 0.950 . S
C2400 C2399 1.524 . S
C2400 C2401 1.415 . S
C2401 H2371 0.950 . S
C2401 C2396 1.363 . S
C2401 C2400 1.415 . S
H2402 C2399 0.999 . S
H2403 C2384 0.913 . S
H2404 C2422 0.951 . S
H2405 C2424 0.951 . S
H2406 C2426 0.950 . S
H2407 C2427 0.950 . S
H2408 C2429 0.950 . S
H2409 C2432 0.950 . S
H2410 C2433 0.950 . S
H2411 C2435 0.950 . S
H2412 C2436 0.950 . S
H2413 C2437 0.951 . S
H2414 C2439 0.951 . S
H2415 C2441 0.950 . S
H2416 C2442 0.950 . S
H2417 C2444 0.950 . S
H2418 C2447 0.950 . S
H2419 C2448 0.950 . S
H2420 C2450 0.950 . S
H2421 C2451 0.950 . S
C2422 H2404 0.951 . S
C2422 C2423 1.366 . S
C2422 C2424 1.388 . S
C2423 C2422 1.366 . S
C2423 C2427 1.385 . S
C2424 H2405 0.951 . S
C2424 C2422 1.388 . S
C2424 C2425 1.366 . S
C2425 C2424 1.366 . S
C2425 C2426 1.414 . S
C2425 C2428 1.499 . S
C2426 H2406 0.950 . S
C2426 C2425 1.414 . S
C2426 C2427 1.374 . S
C2427 H2407 0.950 . S
C2427 C2423 1.385 . S
C2427 C2426 1.374 . S
C2428 C2425 1.499 . S
C2428 C2429 1.373 . S
C2428 C2430 1.389 . S
C2429 H2408 0.950 . S
C2429 C2428 1.373 . S
C2429 C2445 1.377 . S
C2430 C2428 1.389 . S
C2430 C2431 1.524 . S
C2430 C2444 1.377 . S
C2431 C2430 1.524 . S
C2431 C2432 1.397 . S
C2431 C2436 1.363 . S
C2432 H2409 0.950 . S
C2432 C2431 1.397 . S
C2432 C2433 1.334 . S
C2433 H2410 0.950 . S
C2433 C2432 1.334 . S
C2433 C2434 1.287 . S
C2434 C2433 1.287 . S
C2434 C2435 1.524 . S
C2434 H2453 0.913 . S
C2435 H2411 0.950 . S
C2435 C2434 1.524 . S
C2435 C2436 1.415 . S
C2436 H2412 0.950 . S
C2436 C2431 1.363 . S
C2436 C2435 1.415 . S
C2437 H2413 0.951 . S
C2437 C2438 1.366 . S
C2437 C2439 1.388 . S
C2438 C2437 1.366 . S
C2438 C2442 1.385 . S
C2439 H2414 0.951 . S
C2439 C2437 1.388 . S
C2439 C2440 1.366 . S
C2440 C2439 1.366 . S
C2440 C2441 1.414 . S
C2440 C2443 1.499 . S
C2441 H2415 0.950 . S
C2441 C2440 1.414 . S
C2441 C2442 1.374 . S
C2442 H2416 0.950 . S
C2442 C2438 1.385 . S
C2442 C2441 1.374 . S
C2443 C2440 1.499 . S
C2443 C2444 1.373 . S
C2443 C2445 1.389 . S
C2444 H2417 0.950 . S
C2444 C2430 1.377 . S
C2444 C2443 1.373 . S
C2445 C2429 1.377 . S
C2445 C2443 1.389 . S
C2445 C2446 1.524 . S
C2446 C2445 1.524 . S
C2446 C2447 1.397 . S
C2446 C2451 1.363 . S
C2447 H2418 0.950 . S
C2447 C2446 1.397 . S
C2447 C2448 1.334 . S
C2448 H2419 0.950 . S
C2448 C2447 1.334 . S
C2448 C2449 1.287 . S
C2449 C2448 1.287 . S
C2449 C2450 1.524 . S
C2449 H2452 0.999 . S
C2450 H2420 0.950 . S
C2450 C2449 1.524 . S
C2450 C2451 1.415 . S
C2451 H2421 0.950 . S
C2451 C2446 1.363 . S
C2451 C2450 1.415 . S
H2452 C2449 0.999 . S
H2453 C2434 0.913 . S
H2454 C2472 0.951 . S
H2455 C2474 0.951 . S
H2456 C2476 0.950 . S
H2457 C2477 0.950 . S
H2458 C2479 0.950 . S
H2459 C2482 0.950 . S
H2460 C2483 0.950 . S
H2461 C2485 0.950 . S
H2462 C2486 0.950 . S
H2463 C2487 0.951 . S
H2464 C2489 0.951 . S
H2465 C2491 0.950 . S
H2466 C2492 0.950 . S
H2467 C2494 0.950 . S
H2468 C2497 0.950 . S
H2469 C2498 0.950 . S
H2470 C2500 0.950 . S
H2471 C2501 0.950 . S
C2472 H2454 0.951 . S
C2472 C2473 1.366 . S
C2472 C2474 1.388 . S
C2473 C2472 1.366 . S
C2473 C2477 1.385 . S
C2474 H2455 0.951 . S
C2474 C2472 1.388 . S
C2474 C2475 1.366 . S
C2475 C2474 1.366 . S
C2475 C2476 1.414 . S
C2475 C2478 1.499 . S
C2476 H2456 0.950 . S
C2476 C2475 1.414 . S
C2476 C2477 1.374 . S
C2477 H2457 0.950 . S
C2477 C2473 1.385 . S
C2477 C2476 1.374 . S
C2478 C2475 1.499 . S
C2478 C2479 1.373 . S
C2478 C2480 1.389 . S
C2479 H2458 0.950 . S
C2479 C2478 1.373 . S
C2479 C2495 1.377 . S
C2480 C2478 1.389 . S
C2480 C2481 1.524 . S
C2480 C2494 1.377 . S
C2481 C2480 1.524 . S
C2481 C2482 1.397 . S
C2481 C2486 1.363 . S
C2482 H2459 0.950 . S
C2482 C2481 1.397 . S
C2482 C2483 1.334 . S
C2483 H2460 0.950 . S
C2483 C2482 1.334 . S
C2483 C2484 1.287 . S
C2484 C2483 1.287 . S
C2484 C2485 1.524 . S
C2484 H2503 0.913 . S
C2485 H2461 0.950 . S
C2485 C2484 1.524 . S
C2485 C2486 1.415 . S
C2486 H2462 0.950 . S
C2486 C2481 1.363 . S
C2486 C2485 1.415 . S
C2487 H2463 0.951 . S
C2487 C2488 1.366 . S
C2487 C2489 1.388 . S
C2488 C2487 1.366 . S
C2488 C2492 1.385 . S
C2489 H2464 0.951 . S
C2489 C2487 1.388 . S
C2489 C2490 1.366 . S
C2490 C2489 1.366 . S
C2490 C2491 1.414 . S
C2490 C2493 1.499 . S
C2491 H2465 0.950 . S
C2491 C2490 1.414 . S
C2491 C2492 1.374 . S
C2492 H2466 0.950 . S
C2492 C2488 1.385 . S
C2492 C2491 1.374 . S
C2493 C2490 1.499 . S
C2493 C2494 1.373 . S
C2493 C2495 1.389 . S
C2494 H2467 0.950 . S
C2494 C2480 1.377 . S
C2494 C2493 1.373 . S
C2495 C2479 1.377 . S
C2495 C2493 1.389 . S
C2495 C2496 1.524 . S
C2496 C2495 1.524 . S
C2496 C2497 1.397 . S
C2496 C2501 1.363 . S
C2497 H2468 0.950 . S
C2497 C2496 1.397 . S
C2497 C2498 1.334 . S
C2498 H2469 0.950 . S
C2498 C2497 1.334 . S
C2498 C2499 1.287 . S
C2499 C2498 1.287 . S
C2499 C2500 1.524 . S
C2499 H2502 0.999 . S
C2500 H2470 0.950 . S
C2500 C2499 1.524 . S
C2500 C2501 1.415 . S
C2501 H2471 0.950 . S
C2501 C2496 1.363 . S
C2501 C2500 1.415 . S
H2502 C2499 0.999 . S
H2503 C2484 0.913 . S
H2504 C2522 0.951 . S
H2505 C2524 0.951 . S
H2506 C2526 0.950 . S
H2507 C2527 0.950 . S
H2508 C2529 0.950 . S
H2509 C2532 0.950 . S
H2510 C2533 0.950 . S
H2511 C2535 0.950 . S
H2512 C2536 0.950 . S
H2513 C2537 0.951 . S
H2514 C2539 0.951 . S
H2515 C2541 0.950 . S
H2516 C2542 0.950 . S
H2517 C2544 0.950 . S
H2518 C2547 0.950 . S
H2519 C2548 0.950 . S
H2520 C2550 0.950 . S
H2521 C2551 0.950 . S
C2522 H2504 0.951 . S
C2522 C2523 1.366 . S
C2522 C2524 1.388 . S
C2523 C2522 1.366 . S
C2523 C2527 1.385 . S
C2524 H2505 0.951 . S
C2524 C2522 1.388 . S
C2524 C2525 1.366 . S
C2525 C2524 1.366 . S
C2525 C2526 1.414 . S
C2525 C2528 1.499 . S
C2526 H2506 0.950 . S
C2526 C2525 1.414 . S
C2526 C2527 1.374 . S
C2527 H2507 0.950 . S
C2527 C2523 1.385 . S
C2527 C2526 1.374 . S
C2528 C2525 1.499 . S
C2528 C2529 1.373 . S
C2528 C2530 1.389 . S
C2529 H2508 0.950 . S
C2529 C2528 1.373 . S
C2529 C2545 1.377 . S
C2530 C2528 1.389 . S
C2530 C2531 1.524 . S
C2530 C2544 1.377 . S
C2531 C2530 1.524 . S
C2531 C2532 1.397 . S
C2531 C2536 1.363 . S
C2532 H2509 0.950 . S
C2532 C2531 1.397 . S
C2532 C2533 1.334 . S
C2533 H2510 0.950 . S
C2533 C2532 1.334 . S
C2533 C2534 1.287 . S
C2534 C2533 1.287 . S
C2534 C2535 1.524 . S
C2534 H2553 0.913 . S
C2535 H2511 0.950 . S
C2535 C2534 1.524 . S
C2535 C2536 1.415 . S
C2536 H2512 0.950 . S
C2536 C2531 1.363 . S
C2536 C2535 1.415 . S
C2537 H2513 0.951 . S
C2537 C2538 1.366 . S
C2537 C2539 1.388 . S
C2538 C2537 1.366 . S
C2538 C2542 1.385 . S
C2539 H2514 0.951 . S
C2539 C2537 1.388 . S
C2539 C2540 1.366 . S
C2540 C2539 1.366 . S
C2540 C2541 1.414 . S
C2540 C2543 1.499 . S
C2541 H2515 0.950 . S
C2541 C2540 1.414 . S
C2541 C2542 1.374 . S
C2542 H2516 0.950 . S
C2542 C2538 1.385 . S
C2542 C2541 1.374 . S
C2543 C2540 1.499 . S
C2543 C2544 1.373 . S
C2543 C2545 1.389 . S
C2544 H2517 0.950 . S
C2544 C2530 1.377 . S
C2544 C2543 1.373 . S
C2545 C2529 1.377 . S
C2545 C2543 1.389 . S
C2545 C2546 1.524 . S
C2546 C2545 1.524 . S
C2546 C2547 1.397 . S
C2546 C2551 1.363 . S
C2547 H2518 0.950 . S
C2547 C2546 1.397 . S
C2547 C2548 1.334 . S
C2548 H2519 0.950 . S
C2548 C2547 1.334 . S
C2548 C2549 1.287 . S
C2549 C2548 1.287 . S
C2549 C2550 1.524 . S
C2549 H2552 0.999 . S
C2550 H2520 0.950 . S
C2550 C2549 1.524 . S
C2550 C2551 1.415 . S
C2551 H2521 0.950 . S
C2551 C2546 1.363 . S
C2551 C2550 1.415 . S
H2552 C2549 0.999 . S
H2553 C2534 0.913 . S
H2554 C2572 0.951 . S
H2555 C2574 0.951 . S
H2556 C2576 0.950 . S
H2557 C2577 0.950 . S
H2558 C2579 0.950 . S
H2559 C2582 0.950 . S
H2560 C2583 0.950 . S
H2561 C2585 0.950 . S
H2562 C2586 0.950 . S
H2563 C2587 0.951 . S
H2564 C2589 0.951 . S
H2565 C2591 0.950 . S
H2566 C2592 0.950 . S
H2567 C2594 0.950 . S
H2568 C2597 0.950 . S
H2569 C2598 0.950 . S
H2570 C2600 0.950 . S
H2571 C2601 0.950 . S
C2572 H2554 0.951 . S
C2572 C2573 1.366 . S
C2572 C2574 1.388 . S
C2573 C2572 1.366 . S
C2573 C2577 1.385 . S
C2574 H2555 0.951 . S
C2574 C2572 1.388 . S
C2574 C2575 1.366 . S
C2575 C2574 1.366 . S
C2575 C2576 1.414 . S
C2575 C2578 1.499 . S
C2576 H2556 0.950 . S
C2576 C2575 1.414 . S
C2576 C2577 1.374 . S
C2577 H2557 0.950 . S
C2577 C2573 1.385 . S
C2577 C2576 1.374 . S
C2578 C2575 1.499 . S
C2578 C2579 1.373 . S
C2578 C2580 1.389 . S
C2579 H2558 0.950 . S
C2579 C2578 1.373 . S
C2579 C2595 1.377 . S
C2580 C2578 1.389 . S
C2580 C2581 1.524 . S
C2580 C2594 1.377 . S
C2581 C2580 1.524 . S
C2581 C2582 1.397 . S
C2581 C2586 1.363 . S
C2582 H2559 0.950 . S
C2582 C2581 1.397 . S
C2582 C2583 1.334 . S
C2583 H2560 0.950 . S
C2583 C2582 1.334 . S
C2583 C2584 1.287 . S
C2584 C2583 1.287 . S
C2584 C2585 1.524 . S
C2584 H2603 0.913 . S
C2585 H2561 0.950 . S
C2585 C2584 1.524 . S
C2585 C2586 1.415 . S
C2586 H2562 0.950 . S
C2586 C2581 1.363 . S
C2586 C2585 1.415 . S
C2587 H2563 0.951 . S
C2587 C2588 1.366 . S
C2587 C2589 1.388 . S
C2588 C2587 1.366 . S
C2588 C2592 1.385 . S
C2589 H2564 0.951 . S
C2589 C2587 1.388 . S
C2589 C2590 1.366 . S
C2590 C2589 1.366 . S
C2590 C2591 1.414 . S
C2590 C2593 1.499 . S
C2591 H2565 0.950 . S
C2591 C2590 1.414 . S
C2591 C2592 1.374 . S
C2592 H2566 0.950 . S
C2592 C2588 1.385 . S
C2592 C2591 1.374 . S
C2593 C2590 1.499 . S
C2593 C2594 1.373 . S
C2593 C2595 1.389 . S
C2594 H2567 0.950 . S
C2594 C2580 1.377 . S
C2594 C2593 1.373 . S
C2595 C2579 1.377 . S
C2595 C2593 1.389 . S
C2595 C2596 1.524 . S
C2596 C2595 1.524 . S
C2596 C2597 1.397 . S
C2596 C2601 1.363 . S
C2597 H2568 0.950 . S
C2597 C2596 1.397 . S
C2597 C2598 1.334 . S
C2598 H2569 0.950 . S
C2598 C2597 1.334 . S
C2598 C2599 1.287 . S
C2599 C2598 1.287 . S
C2599 C2600 1.524 . S
C2599 H2602 0.999 . S
C2600 H2570 0.950 . S
C2600 C2599 1.524 . S
C2600 C2601 1.415 . S
C2601 H2571 0.950 . S
C2601 C2596 1.363 . S
C2601 C2600 1.415 . S
H2602 C2599 0.999 . S
H2603 C2584 0.913 . S
H2604 C2622 0.951 . S
H2605 C2624 0.951 . S
H2606 C2626 0.950 . S
H2607 C2627 0.950 . S
H2608 C2629 0.950 . S
H2609 C2632 0.950 . S
H2610 C2633 0.950 . S
H2611 C2635 0.950 . S
H2612 C2636 0.950 . S
H2613 C2637 0.951 . S
H2614 C2639 0.951 . S
H2615 C2641 0.950 . S
H2616 C2642 0.950 . S
H2617 C2644 0.950 . S
H2618 C2647 0.950 . S
H2619 C2648 0.950 . S
H2620 C2650 0.950 . S
H2621 C2651 0.950 . S
C2622 H2604 0.951 . S
C2622 C2623 1.366 . S
C2622 C2624 1.388 . S
C2623 C2622 1.366 . S
C2623 C2627 1.385 . S
C2624 H2605 0.951 . S
C2624 C2622 1.388 . S
C2624 C2625 1.366 . S
C2625 C2624 1.366 . S
C2625 C2626 1.414 . S
C2625 C2628 1.499 . S
C2626 H2606 0.950 . S
C2626 C2625 1.414 . S
C2626 C2627 1.374 . S
C2627 H2607 0.950 . S
C2627 C2623 1.385 . S
C2627 C2626 1.374 . S
C2628 C2625 1.499 . S
C2628 C2629 1.373 . S
C2628 C2630 1.389 . S
C2629 H2608 0.950 . S
C2629 C2628 1.373 . S
C2629 C2645 1.377 . S
C2630 C2628 1.389 . S
C2630 C2631 1.524 . S
C2630 C2644 1.377 . S
C2631 C2630 1.524 . S
C2631 C2632 1.397 . S
C2631 C2636 1.363 . S
C2632 H2609 0.950 . S
C2632 C2631 1.397 . S
C2632 C2633 1.334 . S
C2633 H2610 0.950 . S
C2633 C2632 1.334 . S
C2633 C2634 1.287 . S
C2634 C2633 1.287 . S
C2634 C2635 1.524 . S
C2634 H2653 0.913 . S
C2635 H2611 0.950 . S
C2635 C2634 1.524 . S
C2635 C2636 1.415 . S
C2636 H2612 0.950 . S
C2636 C2631 1.363 . S
C2636 C2635 1.415 . S
C2637 H2613 0.951 . S
C2637 C2638 1.366 . S
C2637 C2639 1.388 . S
C2638 C2637 1.366 . S
C2638 C2642 1.385 . S
C2639 H2614 0.951 . S
C2639 C2637 1.388 . S
C2639 C2640 1.366 . S
C2640 C2639 1.366 . S
C2640 C2641 1.414 . S
C2640 C2643 1.499 . S
C2641 H2615 0.950 . S
C2641 C2640 1.414 . S
C2641 C2642 1.374 . S
C2642 H2616 0.950 . S
C2642 C2638 1.385 . S
C2642 C2641 1.374 . S
C2643 C2640 1.499 . S
C2643 C2644 1.373 . S
C2643 C2645 1.389 . S
C2644 H2617 0.950 . S
C2644 C2630 1.377 . S
C2644 C2643 1.373 . S
C2645 C2629 1.377 . S
C2645 C2643 1.389 . S
C2645 C2646 1.524 . S
C2646 C2645 1.524 . S
C2646 C2647 1.397 . S
C2646 C2651 1.363 . S
C2647 H2618 0.950 . S
C2647 C2646 1.397 . S
C2647 C2648 1.334 . S
C2648 H2619 0.950 . S
C2648 C2647 1.334 . S
C2648 C2649 1.287 . S
C2649 C2648 1.287 . S
C2649 C2650 1.524 . S
C2649 H2652 0.999 . S
C2650 H2620 0.950 . S
C2650 C2649 1.524 . S
C2650 C2651 1.415 . S
C2651 H2621 0.950 . S
C2651 C2646 1.363 . S
C2651 C2650 1.415 . S
H2652 C2649 0.999 . S
H2653 C2634 0.913 . S
H2654 C2672 0.951 . S
H2655 C2674 0.951 . S
H2656 C2676 0.950 . S
H2657 C2677 0.950 . S
H2658 C2679 0.950 . S
H2659 C2682 0.950 . S
H2660 C2683 0.950 . S
H2661 C2685 0.950 . S
H2662 C2686 0.950 . S
H2663 C2687 0.951 . S
H2664 C2689 0.951 . S
H2665 C2691 0.950 . S
H2666 C2692 0.950 . S
H2667 C2694 0.950 . S
H2668 C2697 0.950 . S
H2669 C2698 0.950 . S
H2670 C2700 0.950 . S
H2671 C2701 0.950 . S
C2672 H2654 0.951 . S
C2672 C2673 1.366 . S
C2672 C2674 1.388 . S
C2673 C2672 1.366 . S
C2673 C2677 1.385 . S
C2674 H2655 0.951 . S
C2674 C2672 1.388 . S
C2674 C2675 1.366 . S
C2675 C2674 1.366 . S
C2675 C2676 1.414 . S
C2675 C2678 1.499 . S
C2676 H2656 0.950 . S
C2676 C2675 1.414 . S
C2676 C2677 1.374 . S
C2677 H2657 0.950 . S
C2677 C2673 1.385 . S
C2677 C2676 1.374 . S
C2678 C2675 1.499 . S
C2678 C2679 1.373 . S
C2678 C2680 1.389 . S
C2679 H2658 0.950 . S
C2679 C2678 1.373 . S
C2679 C2695 1.377 . S
C2680 C2678 1.389 . S
C2680 C2681 1.524 . S
C2680 C2694 1.377 . S
C2681 C2680 1.524 . S
C2681 C2682 1.397 . S
C2681 C2686 1.363 . S
C2682 H2659 0.950 . S
C2682 C2681 1.397 . S
C2682 C2683 1.334 . S
C2683 H2660 0.950 . S
C2683 C2682 1.334 . S
C2683 C2684 1.287 . S
C2684 C2683 1.287 . S
C2684 C2685 1.524 . S
C2684 H2703 0.913 . S
C2685 H2661 0.950 . S
C2685 C2684 1.524 . S
C2685 C2686 1.415 . S
C2686 H2662 0.950 . S
C2686 C2681 1.363 . S
C2686 C2685 1.415 . S
C2687 H2663 0.951 . S
C2687 C2688 1.366 . S
C2687 C2689 1.388 . S
C2688 C2687 1.366 . S
C2688 C2692 1.385 . S
C2689 H2664 0.951 . S
C2689 C2687 1.388 . S
C2689 C2690 1.366 . S
C2690 C2689 1.366 . S
C2690 C2691 1.414 . S
C2690 C2693 1.499 . S
C2691 H2665 0.950 . S
C2691 C2690 1.414 . S
C2691 C2692 1.374 . S
C2692 H2666 0.950 . S
C2692 C2688 1.385 . S
C2692 C2691 1.374 . S
C2693 C2690 1.499 . S
C2693 C2694 1.373 . S
C2693 C2695 1.389 . S
C2694 H2667 0.950 . S
C2694 C2680 1.377 . S
C2694 C2693 1.373 . S
C2695 C2679 1.377 . S
C2695 C2693 1.389 . S
C2695 C2696 1.524 . S
C2696 C2695 1.524 . S
C2696 C2697 1.397 . S
C2696 C2701 1.363 . S
C2697 H2668 0.950 . S
C2697 C2696 1.397 . S
C2697 C2698 1.334 . S
C2698 H2669 0.950 . S
C2698 C2697 1.334 . S
C2698 C2699 1.287 . S
C2699 C2698 1.287 . S
C2699 C2700 1.524 . S
C2699 H2702 0.999 . S
C2700 H2670 0.950 . S
C2700 C2699 1.524 . S
C2700 C2701 1.415 . S
C2701 H2671 0.950 . S
C2701 C2696 1.363 . S
C2701 C2700 1.415 . S
H2702 C2699 0.999 . S
H2703 C2684 0.913 . S
H2704 C2722 0.951 . S
H2705 C2724 0.951 . S
H2706 C2726 0.950 . S
H2707 C2727 0.950 . S
H2708 C2729 0.950 . S
H2709 C2732 0.950 . S
H2710 C2733 0.950 . S
H2711 C2735 0.950 . S
H2712 C2736 0.950 . S
H2713 C2737 0.951 . S
H2714 C2739 0.951 . S
H2715 C2741 0.950 . S
H2716 C2742 0.950 . S
H2717 C2744 0.950 . S
H2718 C2747 0.950 . S
H2719 C2748 0.950 . S
H2720 C2750 0.950 . S
H2721 C2751 0.950 . S
C2722 H2704 0.951 . S
C2722 C2723 1.366 . S
C2722 C2724 1.388 . S
C2723 C2722 1.366 . S
C2723 C2727 1.385 . S
C2724 H2705 0.951 . S
C2724 C2722 1.388 . S
C2724 C2725 1.366 . S
C2725 C2724 1.366 . S
C2725 C2726 1.414 . S
C2725 C2728 1.499 . S
C2726 H2706 0.950 . S
C2726 C2725 1.414 . S
C2726 C2727 1.374 . S
C2727 H2707 0.950 . S
C2727 C2723 1.385 . S
C2727 C2726 1.374 . S
C2728 C2725 1.499 . S
C2728 C2729 1.373 . S
C2728 C2730 1.389 . S
C2729 H2708 0.950 . S
C2729 C2728 1.373 . S
C2729 C2745 1.377 . S
C2730 C2728 1.389 . S
C2730 C2731 1.524 . S
C2730 C2744 1.377 . S
C2731 C2730 1.524 . S
C2731 C2732 1.397 . S
C2731 C2736 1.363 . S
C2732 H2709 0.950 . S
C2732 C2731 1.397 . S
C2732 C2733 1.334 . S
C2733 H2710 0.950 . S
C2733 C2732 1.334 . S
C2733 C2734 1.287 . S
C2734 C2733 1.287 . S
C2734 C2735 1.524 . S
C2734 H2753 0.913 . S
C2735 H2711 0.950 . S
C2735 C2734 1.524 . S
C2735 C2736 1.415 . S
C2736 H2712 0.950 . S
C2736 C2731 1.363 . S
C2736 C2735 1.415 . S
C2737 H2713 0.951 . S
C2737 C2738 1.366 . S
C2737 C2739 1.388 . S
C2738 C2737 1.366 . S
C2738 C2742 1.385 . S
C2739 H2714 0.951 . S
C2739 C2737 1.388 . S
C2739 C2740 1.366 . S
C2740 C2739 1.366 . S
C2740 C2741 1.414 . S
C2740 C2743 1.499 . S
C2741 H2715 0.950 . S
C2741 C2740 1.414 . S
C2741 C2742 1.374 . S
C2742 H2716 0.950 . S
C2742 C2738 1.385 . S
C2742 C2741 1.374 . S
C2743 C2740 1.499 . S
C2743 C2744 1.373 . S
C2743 C2745 1.389 . S
C2744 H2717 0.950 . S
C2744 C2730 1.377 . S
C2744 C2743 1.373 . S
C2745 C2729 1.377 . S
C2745 C2743 1.389 . S
C2745 C2746 1.524 . S
C2746 C2745 1.524 . S
C2746 C2747 1.397 . S
C2746 C2751 1.363 . S
C2747 H2718 0.950 . S
C2747 C2746 1.397 . S
C2747 C2748 1.334 . S
C2748 H2719 0.950 . S
C2748 C2747 1.334 . S
C2748 C2749 1.287 . S
C2749 C2748 1.287 . S
C2749 C2750 1.524 . S
C2749 H2752 0.999 . S
C2750 H2720 0.950 . S
C2750 C2749 1.524 . S
C2750 C2751 1.415 . S
C2751 H2721 0.950 . S
C2751 C2746 1.363 . S
C2751 C2750 1.415 . S
H2752 C2749 0.999 . S
H2753 C2734 0.913 . S
H2754 C2772 0.951 . S
H2755 C2774 0.951 . S
H2756 C2776 0.950 . S
H2757 C2777 0.950 . S
H2758 C2779 0.950 . S
H2759 C2782 0.950 . S
H2760 C2783 0.950 . S
H2761 C2785 0.950 . S
H2762 C2786 0.950 . S
H2763 C2787 0.951 . S
H2764 C2789 0.951 . S
H2765 C2791 0.950 . S
H2766 C2792 0.950 . S
H2767 C2794 0.950 . S
H2768 C2797 0.950 . S
H2769 C2798 0.950 . S
H2770 C2800 0.950 . S
H2771 C2801 0.950 . S
C2772 H2754 0.951 . S
C2772 C2773 1.366 . S
C2772 C2774 1.388 . S
C2773 C2772 1.366 . S
C2773 C2777 1.385 . S
C2774 H2755 0.951 . S
C2774 C2772 1.388 . S
C2774 C2775 1.366 . S
C2775 C2774 1.366 . S
C2775 C2776 1.414 . S
C2775 C2778 1.499 . S
C2776 H2756 0.950 . S
C2776 C2775 1.414 . S
C2776 C2777 1.374 . S
C2777 H2757 0.950 . S
C2777 C2773 1.385 . S
C2777 C2776 1.374 . S
C2778 C2775 1.499 . S
C2778 C2779 1.373 . S
C2778 C2780 1.389 . S
C2779 H2758 0.950 . S
C2779 C2778 1.373 . S
C2779 C2795 1.377 . S
C2780 C2778 1.389 . S
C2780 C2781 1.524 . S
C2780 C2794 1.377 . S
C2781 C2780 1.524 . S
C2781 C2782 1.397 . S
C2781 C2786 1.363 . S
C2782 H2759 0.950 . S
C2782 C2781 1.397 . S
C2782 C2783 1.334 . S
C2783 H2760 0.950 . S
C2783 C2782 1.334 . S
C2783 C2784 1.287 . S
C2784 C2783 1.287 . S
C2784 C2785 1.524 . S
C2784 H2803 0.913 . S
C2785 H2761 0.950 . S
C2785 C2784 1.524 . S
C2785 C2786 1.415 . S
C2786 H2762 0.950 . S
C2786 C2781 1.363 . S
C2786 C2785 1.415 . S
C2787 H2763 0.951 . S
C2787 C2788 1.366 . S
C2787 C2789 1.388 . S
C2788 C2787 1.366 . S
C2788 C2792 1.385 . S
C2789 H2764 0.951 . S
C2789 C2787 1.388 . S
C2789 C2790 1.366 . S
C2790 C2789 1.366 . S
C2790 C2791 1.414 . S
C2790 C2793 1.499 . S
C2791 H2765 0.950 . S
C2791 C2790 1.414 . S
C2791 C2792 1.374 . S
C2792 H2766 0.950 . S
C2792 C2788 1.385 . S
C2792 C2791 1.374 . S
C2793 C2790 1.499 . S
C2793 C2794 1.373 . S
C2793 C2795 1.389 . S
C2794 H2767 0.950 . S
C2794 C2780 1.377 . S
C2794 C2793 1.373 . S
C2795 C2779 1.377 . S
C2795 C2793 1.389 . S
C2795 C2796 1.524 . S
C2796 C2795 1.524 . S
C2796 C2797 1.397 . S
C2796 C2801 1.363 . S
C2797 H2768 0.950 . S
C2797 C2796 1.397 . S
C2797 C2798 1.334 . S
C2798 H2769 0.950 . S
C2798 C2797 1.334 . S
C2798 C2799 1.287 . S
C2799 C2798 1.287 . S
C2799 C2800 1.524 . S
C2799 H2802 0.999 . S
C2800 H2770 0.950 . S
C2800 C2799 1.524 . S
C2800 C2801 1.415 . S
C2801 H2771 0.950 . S
C2801 C2796 1.363 . S
C2801 C2800 1.415 . S
H2802 C2799 0.999 . S
H2803 C2784 0.913 . S
H2804 C2822 0.951 . S
H2805 C2824 0.951 . S
H2806 C2826 0.950 . S
H2807 C2827 0.950 . S
H2808 C2829 0.950 . S
H2809 C2832 0.950 . S
H2810 C2833 0.950 . S
H2811 C2835 0.950 . S
H2812 C2836 0.950 . S
H2813 C2837 0.951 . S
H2814 C2839 0.951 . S
H2815 C2841 0.950 . S
H2816 C2842 0.950 . S
H2817 C2844 0.950 . S
H2818 C2847 0.950 . S
H2819 C2848 0.950 . S
H2820 C2850 0.950 . S
H2821 C2851 0.950 . S
C2822 H2804 0.951 . S
C2822 C2823 1.366 . S
C2822 C2824 1.388 . S
C2823 C2822 1.366 . S
C2823 C2827 1.385 . S
C2824 H2805 0.951 . S
C2824 C2822 1.388 . S
C2824 C2825 1.366 . S
C2825 C2824 1.366 . S
C2825 C2826 1.414 . S
C2825 C2828 1.499 . S
C2826 H2806 0.950 . S
C2826 C2825 1.414 . S
C2826 C2827 1.374 . S
C2827 H2807 0.950 . S
C2827 C2823 1.385 . S
C2827 C2826 1.374 . S
C2828 C2825 1.499 . S
C2828 C2829 1.373 . S
C2828 C2830 1.389 . S
C2829 H2808 0.950 . S
C2829 C2828 1.373 . S
C2829 C2845 1.377 . S
C2830 C2828 1.389 . S
C2830 C2831 1.524 . S
C2830 C2844 1.377 . S
C2831 C2830 1.524 . S
C2831 C2832 1.397 . S
C2831 C2836 1.363 . S
C2832 H2809 0.950 . S
C2832 C2831 1.397 . S
C2832 C2833 1.334 . S
C2833 H2810 0.950 . S
C2833 C2832 1.334 . S
C2833 C2834 1.287 . S
C2834 C2833 1.287 . S
C2834 C2835 1.524 . S
C2834 H2853 0.913 . S
C2835 H2811 0.950 . S
C2835 C2834 1.524 . S
C2835 C2836 1.415 . S
C2836 H2812 0.950 . S
C2836 C2831 1.363 . S
C2836 C2835 1.415 . S
C2837 H2813 0.951 . S
C2837 C2838 1.366 . S
C2837 C2839 1.388 . S
C2838 C2837 1.366 . S
C2838 C2842 1.385 . S
C2839 H2814 0.951 . S
C2839 C2837 1.388 . S
C2839 C2840 1.366 . S
C2840 C2839 1.366 . S
C2840 C2841 1.414 . S
C2840 C2843 1.499 . S
C2841 H2815 0.950 . S
C2841 C2840 1.414 . S
C2841 C2842 1.374 . S
C2842 H2816 0.950 . S
C2842 C2838 1.385 . S
C2842 C2841 1.374 . S
C2843 C2840 1.499 . S
C2843 C2844 1.373 . S
C2843 C2845 1.389 . S
C2844 H2817 0.950 . S
C2844 C2830 1.377 . S
C2844 C2843 1.373 . S
C2845 C2829 1.377 . S
C2845 C2843 1.389 . S
C2845 C2846 1.524 . S
C2846 C2845 1.524 . S
C2846 C2847 1.397 . S
C2846 C2851 1.363 . S
C2847 H2818 0.950 . S
C2847 C2846 1.397 . S
C2847 C2848 1.334 . S
C2848 H2819 0.950 . S
C2848 C2847 1.334 . S
C2848 C2849 1.287 . S
C2849 C2848 1.287 . S
C2849 C2850 1.524 . S
C2849 H2852 0.999 . S
C2850 H2820 0.950 . S
C2850 C2849 1.524 . S
C2850 C2851 1.415 . S
C2851 H2821 0.950 . S
C2851 C2846 1.363 . S
C2851 C2850 1.415 . S
H2852 C2849 0.999 . S
H2853 C2834 0.913 . S
H2854 C2872 0.951 . S
H2855 C2874 0.951 . S
H2856 C2876 0.950 . S
H2857 C2877 0.950 . S
H2858 C2879 0.950 . S
H2859 C2882 0.950 . S
H2860 C2883 0.950 . S
H2861 C2885 0.950 . S
H2862 C2886 0.950 . S
H2863 C2887 0.951 . S
H2864 C2889 0.951 . S
H2865 C2891 0.950 . S
H2866 C2892 0.950 . S
H2867 C2894 0.950 . S
H2868 C2897 0.950 . S
H2869 C2898 0.950 . S
H2870 C2900 0.950 . S
H2871 C2901 0.950 . S
C2872 H2854 0.951 . S
C2872 C2873 1.366 . S
C2872 C2874 1.388 . S
C2873 C2872 1.366 . S
C2873 C2877 1.385 . S
C2874 H2855 0.951 . S
C2874 C2872 1.388 . S
C2874 C2875 1.366 . S
C2875 C2874 1.366 . S
C2875 C2876 1.414 . S
C2875 C2878 1.499 . S
C2876 H2856 0.950 . S
C2876 C2875 1.414 . S
C2876 C2877 1.374 . S
C2877 H2857 0.950 . S
C2877 C2873 1.385 . S
C2877 C2876 1.374 . S
C2878 C2875 1.499 . S
C2878 C2879 1.373 . S
C2878 C2880 1.389 . S
C2879 H2858 0.950 . S
C2879 C2878 1.373 . S
C2879 C2895 1.377 . S
C2880 C2878 1.389 . S
C2880 C2881 1.524 . S
C2880 C2894 1.377 . S
C2881 C2880 1.524 . S
C2881 C2882 1.397 . S
C2881 C2886 1.363 . S
C2882 H2859 0.950 . S
C2882 C2881 1.397 . S
C2882 C2883 1.334 . S
C2883 H2860 0.950 . S
C2883 C2882 1.334 . S
C2883 C2884 1.287 . S
C2884 C2883 1.287 . S
C2884 C2885 1.524 . S
C2884 H2903 0.913 . S
C2885 H2861 0.950 . S
C2885 C2884 1.524 . S
C2885 C2886 1.415 . S
C2886 H2862 0.950 . S
C2886 C2881 1.363 . S
C2886 C2885 1.415 . S
C2887 H2863 0.951 . S
C2887 C2888 1.366 . S
C2887 C2889 1.388 . S
C2888 C2887 1.366 . S
C2888 C2892 1.385 . S
C2889 H2864 0.951 . S
C2889 C2887 1.388 . S
C2889 C2890 1.366 . S
C2890 C2889 1.366 . S
C2890 C2891 1.414 . S
C2890 C2893 1.499 . S
C2891 H2865 0.950 . S
C2891 C2890 1.414 . S
C2891 C2892 1.374 . S
C2892 H2866 0.950 . S
C2892 C2888 1.385 . S
C2892 C2891 1.374 . S
C2893 C2890 1.499 . S
C2893 C2894 1.373 . S
C2893 C2895 1.389 . S
C2894 H2867 0.950 . S
C2894 C2880 1.377 . S
C2894 C2893 1.373 . S
C2895 C2879 1.377 . S
C2895 C2893 1.389 . S
C2895 C2896 1.524 . S
C2896 C2895 1.524 . S
C2896 C2897 1.397 . S
C2896 C2901 1.363 . S
C2897 H2868 0.950 . S
C2897 C2896 1.397 . S
C2897 C2898 1.334 . S
C2898 H2869 0.950 . S
C2898 C2897 1.334 . S
C2898 C2899 1.287 . S
C2899 C2898 1.287 . S
C2899 C2900 1.524 . S
C2899 H2902 0.999 . S
C2900 H2870 0.950 . S
C2900 C2899 1.524 . S
C2900 C2901 1.415 . S
C2901 H2871 0.950 . S
C2901 C2896 1.363 . S
C2901 C2900 1.415 . S
H2902 C2899 0.999 . S
H2903 C2884 0.913 . S
H2904 C2922 0.951 . S
H2905 C2924 0.951 . S
H2906 C2926 0.950 . S
H2907 C2927 0.950 . S
H2908 C2929 0.950 . S
H2909 C2932 0.950 . S
H2910 C2933 0.950 . S
H2911 C2935 0.950 . S
H2912 C2936 0.950 . S
H2913 C2937 0.951 . S
H2914 C2939 0.951 . S
H2915 C2941 0.950 . S
H2916 C2942 0.950 . S
H2917 C2944 0.950 . S
H2918 C2947 0.950 . S
H2919 C2948 0.950 . S
H2920 C2950 0.950 . S
H2921 C2951 0.950 . S
C2922 H2904 0.951 . S
C2922 C2923 1.366 . S
C2922 C2924 1.388 . S
C2923 C2922 1.366 . S
C2923 C2927 1.385 . S
C2924 H2905 0.951 . S
C2924 C2922 1.388 . S
C2924 C2925 1.366 . S
C2925 C2924 1.366 . S
C2925 C2926 1.414 . S
C2925 C2928 1.499 . S
C2926 H2906 0.950 . S
C2926 C2925 1.414 . S
C2926 C2927 1.374 . S
C2927 H2907 0.950 . S
C2927 C2923 1.385 . S
C2927 C2926 1.374 . S
C2928 C2925 1.499 . S
C2928 C2929 1.373 . S
C2928 C2930 1.389 . S
C2929 H2908 0.950 . S
C2929 C2928 1.373 . S
C2929 C2945 1.377 . S
C2930 C2928 1.389 . S
C2930 C2931 1.524 . S
C2930 C2944 1.377 . S
C2931 C2930 1.524 . S
C2931 C2932 1.397 . S
C2931 C2936 1.363 . S
C2932 H2909 0.950 . S
C2932 C2931 1.397 . S
C2932 C2933 1.334 . S
C2933 H2910 0.950 . S
C2933 C2932 1.334 . S
C2933 C2934 1.287 . S
C2934 C2933 1.287 . S
C2934 C2935 1.524 . S
C2934 H2953 0.913 . S
C2935 H2911 0.950 . S
C2935 C2934 1.524 . S
C2935 C2936 1.415 . S
C2936 H2912 0.950 . S
C2936 C2931 1.363 . S
C2936 C2935 1.415 . S
C2937 H2913 0.951 . S
C2937 C2938 1.366 . S
C2937 C2939 1.388 . S
C2938 C2937 1.366 . S
C2938 C2942 1.385 . S
C2939 H2914 0.951 . S
C2939 C2937 1.388 . S
C2939 C2940 1.366 . S
C2940 C2939 1.366 . S
C2940 C2941 1.414 . S
C2940 C2943 1.499 . S
C2941 H2915 0.950 . S
C2941 C2940 1.414 . S
C2941 C2942 1.374 . S
C2942 H2916 0.950 . S
C2942 C2938 1.385 . S
C2942 C2941 1.374 . S
C2943 C2940 1.499 . S
C2943 C2944 1.373 . S
C2943 C2945 1.389 . S
C2944 H2917 0.950 . S
C2944 C2930 1.377 . S
C2944 C2943 1.373 . S
C2945 C2929 1.377 . S
C2945 C2943 1.389 . S
C2945 C2946 1.524 . S
C2946 C2945 1.524 . S
C2946 C2947 1.397 . S
C2946 C2951 1.363 . S
C2947 H2918 0.950 . S
C2947 C2946 1.397 . S
C2947 C2948 1.334 . S
C2948 H2919 0.950 . S
C2948 C2947 1.334 . S
C2948 C2949 1.287 . S
C2949 C2948 1.287 . S
C2949 C2950 1.524 . S
C2949 H2952 0.999 . S
C2950 H2920 0.950 . S
C2950 C2949 1.524 . S
C2950 C2951 1.415 . S
C2951 H2921 0.950 . S
C2951 C2946 1.363 . S
C2951 C2950 1.415 . S
H2952 C2949 0.999 . S
H2953 C2934 0.913 . S
H2954 C2972 0.951 . S
H2955 C2974 0.951 . S
H2956 C2976 0.950 . S
H2957 C2977 0.950 . S
H2958 C2979 0.950 . S
H2959 C2982 0.950 . S
H2960 C2983 0.950 . S
H2961 C2985 0.950 . S
H2962 C2986 0.950 . S
H2963 C2987 0.951 . S
H2964 C2989 0.951 . S
H2965 C2991 0.950 . S
H2966 C2992 0.950 . S
H2967 C2994 0.950 . S
H2968 C2997 0.950 . S
H2969 C2998 0.950 . S
H2970 C3000 0.950 . S
H2971 C3001 0.950 . S
C2972 H2954 0.951 . S
C2972 C2973 1.366 . S
C2972 C2974 1.388 . S
C2973 C2972 1.366 . S
C2973 C2977 1.385 . S
C2974 H2955 0.951 . S
C2974 C2972 1.388 . S
C2974 C2975 1.366 . S
C2975 C2974 1.366 . S
C2975 C2976 1.414 . S
C2975 C2978 1.499 . S
C2976 H2956 0.950 . S
C2976 C2975 1.414 . S
C2976 C2977 1.374 . S
C2977 H2957 0.950 . S
C2977 C2973 1.385 . S
C2977 C2976 1.374 . S
C2978 C2975 1.499 . S
C2978 C2979 1.373 . S
C2978 C2980 1.389 . S
C2979 H2958 0.950 . S
C2979 C2978 1.373 . S
C2979 C2995 1.377 . S
C2980 C2978 1.389 . S
C2980 C2981 1.524 . S
C2980 C2994 1.377 . S
C2981 C2980 1.524 . S
C2981 C2982 1.397 . S
C2981 C2986 1.363 . S
C2982 H2959 0.950 . S
C2982 C2981 1.397 . S
C2982 C2983 1.334 . S
C2983 H2960 0.950 . S
C2983 C2982 1.334 . S
C2983 C2984 1.287 . S
C2984 C2983 1.287 . S
C2984 C2985 1.524 . S
C2984 H3003 0.913 . S
C2985 H2961 0.950 . S
C2985 C2984 1.524 . S
C2985 C2986 1.415 . S
C2986 H2962 0.950 . S
C2986 C2981 1.363 . S
C2986 C2985 1.415 . S
C2987 H2963 0.951 . S
C2987 C2988 1.366 . S
C2987 C2989 1.388 . S
C2988 C2987 1.366 . S
C2988 C2992 1.385 . S
C2989 H2964 0.951 . S
C2989 C2987 1.388 . S
C2989 C2990 1.366 . S
C2990 C2989 1.366 . S
C2990 C2991 1.414 . S
C2990 C2993 1.499 . S
C2991 H2965 0.950 . S
C2991 C2990 1.414 . S
C2991 C2992 1.374 . S
C2992 H2966 0.950 . S
C2992 C2988 1.385 . S
C2992 C2991 1.374 . S
C2993 C2990 1.499 . S
C2993 C2994 1.373 . S
C2993 C2995 1.389 . S
C2994 H2967 0.950 . S
C2994 C2980 1.377 . S
C2994 C2993 1.373 . S
C2995 C2979 1.377 . S
C2995 C2993 1.389 . S
C2995 C2996 1.524 . S
C2996 C2995 1.524 . S
C2996 C2997 1.397 . S
C2996 C3001 1.363 . S
C2997 H2968 0.950 . S
C2997 C2996 1.397 . S
C2997 C2998 1.334 . S
C2998 H2969 0.950 . S
C2998 C2997 1.334 . S
C2998 C2999 1.287 . S
C2999 C2998 1.287 . S
C2999 C3000 1.524 . S
C2999 H3002 0.999 . S
C3000 H2970 0.950 . S
C3000 C2999 1.524 . S
C3000 C3001 1.415 . S
C3001 H2971 0.950 . S
C3001 C2996 1.363 . S
C3001 C3000 1.415 . S
H3002 C2999 0.999 . S
H3003 C2984 0.913 . S
H3004 C3022 0.951 . S
H3005 C3024 0.951 . S
H3006 C3026 0.950 . S
H3007 C3027 0.950 . S
H3008 C3029 0.950 . S
H3009 C3032 0.950 . S
H3010 C3033 0.950 . S
H3011 C3035 0.950 . S
H3012 C3036 0.950 . S
H3013 C3037 0.951 . S
H3014 C3039 0.951 . S
H3015 C3041 0.950 . S
H3016 C3042 0.950 . S
H3017 C3044 0.950 . S
H3018 C3047 0.950 . S
H3019 C3048 0.950 . S
H3020 C3050 0.950 . S
H3021 C3051 0.950 . S
C3022 H3004 0.951 . S
C3022 C3023 1.366 . S
C3022 C3024 1.388 . S
C3023 C3022 1.366 . S
C3023 C3027 1.385 . S
C3024 H3005 0.951 . S
C3024 C3022 1.388 . S
C3024 C3025 1.366 . S
C3025 C3024 1.366 . S
C3025 C3026 1.414 . S
C3025 C3028 1.499 . S
C3026 H3006 0.950 . S
C3026 C3025 1.414 . S
C3026 C3027 1.374 . S
C3027 H3007 0.950 . S
C3027 C3023 1.385 . S
C3027 C3026 1.374 . S
C3028 C3025 1.499 . S
C3028 C3029 1.373 . S
C3028 C3030 1.389 . S
C3029 H3008 0.950 . S
C3029 C3028 1.373 . S
C3029 C3045 1.377 . S
C3030 C3028 1.389 . S
C3030 C3031 1.524 . S
C3030 C3044 1.377 . S
C3031 C3030 1.524 . S
C3031 C3032 1.397 . S
C3031 C3036 1.363 . S
C3032 H3009 0.950 . S
C3032 C3031 1.397 . S
C3032 C3033 1.334 . S
C3033 H3010 0.950 . S
C3033 C3032 1.334 . S
C3033 C3034 1.287 . S
C3034 C3033 1.287 . S
C3034 C3035 1.524 . S
C3034 H3053 0.913 . S
C3035 H3011 0.950 . S
C3035 C3034 1.524 . S
C3035 C3036 1.415 . S
C3036 H3012 0.950 . S
C3036 C3031 1.363 . S
C3036 C3035 1.415 . S
C3037 H3013 0.951 . S
C3037 C3038 1.366 . S
C3037 C3039 1.388 . S
C3038 C3037 1.366 . S
C3038 C3042 1.385 . S
C3039 H3014 0.951 . S
C3039 C3037 1.388 . S
C3039 C3040 1.366 . S
C3040 C3039 1.366 . S
C3040 C3041 1.414 . S
C3040 C3043 1.499 . S
C3041 H3015 0.950 . S
C3041 C3040 1.414 . S
C3041 C3042 1.374 . S
C3042 H3016 0.950 . S
C3042 C3038 1.385 . S
C3042 C3041 1.374 . S
C3043 C3040 1.499 . S
C3043 C3044 1.373 . S
C3043 C3045 1.389 . S
C3044 H3017 0.950 . S
C3044 C3030 1.377 . S
C3044 C3043 1.373 . S
C3045 C3029 1.377 . S
C3045 C3043 1.389 . S
C3045 C3046 1.524 . S
C3046 C3045 1.524 . S
C3046 C3047 1.397 . S
C3046 C3051 1.363 . S
C3047 H3018 0.950 . S
C3047 C3046 1.397 . S
C3047 C3048 1.334 . S
C3048 H3019 0.950 . S
C3048 C3047 1.334 . S
C3048 C3049 1.287 . S
C3049 C3048 1.287 . S
C3049 C3050 1.524 . S
C3049 H3052 0.999 . S
C3050 H3020 0.950 . S
C3050 C3049 1.524 . S
C3050 C3051 1.415 . S
C3051 H3021 0.950 . S
C3051 C3046 1.363 . S
C3051 C3050 1.415 . S
H3052 C3049 0.999 . S
H3053 C3034 0.913 . S
H3054 C3072 0.951 . S
H3055 C3074 0.951 . S
H3056 C3076 0.950 . S
H3057 C3077 0.950 . S
H3058 C3079 0.950 . S
H3059 C3082 0.950 . S
H3060 C3083 0.950 . S
H3061 C3085 0.950 . S
H3062 C3086 0.950 . S
H3063 C3087 0.951 . S
H3064 C3089 0.951 . S
H3065 C3091 0.950 . S
H3066 C3092 0.950 . S
H3067 C3094 0.950 . S
H3068 C3097 0.950 . S
H3069 C3098 0.950 . S
H3070 C3100 0.950 . S
H3071 C3101 0.950 . S
C3072 H3054 0.951 . S
C3072 C3073 1.366 . S
C3072 C3074 1.388 . S
C3073 C3072 1.366 . S
C3073 C3077 1.385 . S
C3074 H3055 0.951 . S
C3074 C3072 1.388 . S
C3074 C3075 1.366 . S
C3075 C3074 1.366 . S
C3075 C3076 1.414 . S
C3075 C3078 1.499 . S
C3076 H3056 0.950 . S
C3076 C3075 1.414 . S
C3076 C3077 1.374 . S
C3077 H3057 0.950 . S
C3077 C3073 1.385 . S
C3077 C3076 1.374 . S
C3078 C3075 1.499 . S
C3078 C3079 1.373 . S
C3078 C3080 1.389 . S
C3079 H3058 0.950 . S
C3079 C3078 1.373 . S
C3079 C3095 1.377 . S
C3080 C3078 1.389 . S
C3080 C3081 1.524 . S
C3080 C3094 1.377 . S
C3081 C3080 1.524 . S
C3081 C3082 1.397 . S
C3081 C3086 1.363 . S
C3082 H3059 0.950 . S
C3082 C3081 1.397 . S
C3082 C3083 1.334 . S
C3083 H3060 0.950 . S
C3083 C3082 1.334 . S
C3083 C3084 1.287 . S
C3084 C3083 1.287 . S
C3084 C3085 1.524 . S
C3084 H3103 0.913 . S
C3085 H3061 0.950 . S
C3085 C3084 1.524 . S
C3085 C3086 1.415 . S
C3086 H3062 0.950 . S
C3086 C3081 1.363 . S
C3086 C3085 1.415 . S
C3087 H3063 0.951 . S
C3087 C3088 1.366 . S
C3087 C3089 1.388 . S
C3088 C3087 1.366 . S
C3088 C3092 1.385 . S
C3089 H3064 0.951 . S
C3089 C3087 1.388 . S
C3089 C3090 1.366 . S
C3090 C3089 1.366 . S
C3090 C3091 1.414 . S
C3090 C3093 1.499 . S
C3091 H3065 0.950 . S
C3091 C3090 1.414 . S
C3091 C3092 1.374 . S
C3092 H3066 0.950 . S
C3092 C3088 1.385 . S
C3092 C3091 1.374 . S
C3093 C3090 1.499 . S
C3093 C3094 1.373 . S
C3093 C3095 1.389 . S
C3094 H3067 0.950 . S
C3094 C3080 1.377 . S
C3094 C3093 1.373 . S
C3095 C3079 1.377 . S
C3095 C3093 1.389 . S
C3095 C3096 1.524 . S
C3096 C3095 1.524 . S
C3096 C3097 1.397 . S
C3096 C3101 1.363 . S
C3097 H3068 0.950 . S
C3097 C3096 1.397 . S
C3097 C3098 1.334 . S
C3098 H3069 0.950 . S
C3098 C3097 1.334 . S
C3098 C3099 1.287 . S
C3099 C3098 1.287 . S
C3099 C3100 1.524 . S
C3099 H3102 0.999 . S
C3100 H3070 0.950 . S
C3100 C3099 1.524 . S
C3100 C3101 1.415 . S
C3101 H3071 0.950 . S
C3101 C3096 1.363 . S
C3101 C3100 1.415 . S
H3102 C3099 0.999 . S
H3103 C3084 0.913 . S
H3104 C3122 0.951 . S
H3105 C3124 0.951 . S
H3106 C3126 0.950 . S
H3107 C3127 0.950 . S
H3108 C3129 0.950 . S
H3109 C3132 0.950 . S
H3110 C3133 0.950 . S
H3111 C3135 0.950 . S
H3112 C3136 0.950 . S
H3113 C3137 0.951 . S
H3114 C3139 0.951 . S
H3115 C3141 0.950 . S
H3116 C3142 0.950 . S
H3117 C3144 0.950 . S
H3118 C3147 0.950 . S
H3119 C3148 0.950 . S
H3120 C3150 0.950 . S
H3121 C3151 0.950 . S
C3122 H3104 0.951 . S
C3122 C3123 1.366 . S
C3122 C3124 1.388 . S
C3123 C3122 1.366 . S
C3123 C3127 1.385 . S
C3124 H3105 0.951 . S
C3124 C3122 1.388 . S
C3124 C3125 1.366 . S
C3125 C3124 1.366 . S
C3125 C3126 1.414 . S
C3125 C3128 1.499 . S
C3126 H3106 0.950 . S
C3126 C3125 1.414 . S
C3126 C3127 1.374 . S
C3127 H3107 0.950 . S
C3127 C3123 1.385 . S
C3127 C3126 1.374 . S
C3128 C3125 1.499 . S
C3128 C3129 1.373 . S
C3128 C3130 1.389 . S
C3129 H3108 0.950 . S
C3129 C3128 1.373 . S
C3129 C3145 1.377 . S
C3130 C3128 1.389 . S
C3130 C3131 1.524 . S
C3130 C3144 1.377 . S
C3131 C3130 1.524 . S
C3131 C3132 1.397 . S
C3131 C3136 1.363 . S
C3132 H3109 0.950 . S
C3132 C3131 1.397 . S
C3132 C3133 1.334 . S
C3133 H3110 0.950 . S
C3133 C3132 1.334 . S
C3133 C3134 1.287 . S
C3134 C3133 1.287 . S
C3134 C3135 1.524 . S
C3134 H3153 0.913 . S
C3135 H3111 0.950 . S
C3135 C3134 1.524 . S
C3135 C3136 1.415 . S
C3136 H3112 0.950 . S
C3136 C3131 1.363 . S
C3136 C3135 1.415 . S
C3137 H3113 0.951 . S
C3137 C3138 1.366 . S
C3137 C3139 1.388 . S
C3138 C3137 1.366 . S
C3138 C3142 1.385 . S
C3139 H3114 0.951 . S
C3139 C3137 1.388 . S
C3139 C3140 1.366 . S
C3140 C3139 1.366 . S
C3140 C3141 1.414 . S
C3140 C3143 1.499 . S
C3141 H3115 0.950 . S
C3141 C3140 1.414 . S
C3141 C3142 1.374 . S
C3142 H3116 0.950 . S
C3142 C3138 1.385 . S
C3142 C3141 1.374 . S
C3143 C3140 1.499 . S
C3143 C3144 1.373 . S
C3143 C3145 1.389 . S
C3144 H3117 0.950 . S
C3144 C3130 1.377 . S
C3144 C3143 1.373 . S
C3145 C3129 1.377 . S
C3145 C3143 1.389 . S
C3145 C3146 1.524 . S
C3146 C3145 1.524 . S
C3146 C3147 1.397 . S
C3146 C3151 1.363 . S
C3147 H3118 0.950 . S
C3147 C3146 1.397 . S
C3147 C3148 1.334 . S
C3148 H3119 0.950 . S
C3148 C3147 1.334 . S
C3148 C3149 1.287 . S
C3149 C3148 1.287 . S
C3149 C3150 1.524 . S
C3149 H3152 0.999 . S
C3150 H3120 0.950 . S
C3150 C3149 1.524 . S
C3150 C3151 1.415 . S
C3151 H3121 0.950 . S
C3151 C3146 1.363 . S
C3151 C3150 1.415 . S
H3152 C3149 0.999 . S
H3153 C3134 0.913 . S
H3154 C3172 0.951 . S
H3155 C3174 0.951 . S
H3156 C3176 0.950 . S
H3157 C3177 0.950 . S
H3158 C3179 0.950 . S
H3159 C3182 0.950 . S
H3160 C3183 0.950 . S
H3161 C3185 0.950 . S
H3162 C3186 0.950 . S
H3163 C3187 0.951 . S
H3164 C3189 0.951 . S
H3165 C3191 0.950 . S
H3166 C3192 0.950 . S
H3167 C3194 0.950 . S
H3168 C3197 0.950 . S
H3169 C3198 0.950 . S
H3170 C3200 0.950 . S
H3171 C3201 0.950 . S
C3172 H3154 0.951 . S
C3172 C3173 1.366 . S
C3172 C3174 1.388 . S
C3173 C3172 1.366 . S
C3173 C3177 1.385 . S
C3174 H3155 0.951 . S
C3174 C3172 1.388 . S
C3174 C3175 1.366 . S
C3175 C3174 1.366 . S
C3175 C3176 1.414 . S
C3175 C3178 1.499 . S
C3176 H3156 0.950 . S
C3176 C3175 1.414 . S
C3176 C3177 1.374 . S
C3177 H3157 0.950 . S
C3177 C3173 1.385 . S
C3177 C3176 1.374 . S
C3178 C3175 1.499 . S
C3178 C3179 1.373 . S
C3178 C3180 1.389 . S
C3179 H3158 0.950 . S
C3179 C3178 1.373 . S
C3179 C3195 1.377 . S
C3180 C3178 1.389 . S
C3180 C3181 1.524 . S
C3180 C3194 1.377 . S
C3181 C3180 1.524 . S
C3181 C3182 1.397 . S
C3181 C3186 1.363 . S
C3182 H3159 0.950 . S
C3182 C3181 1.397 . S
C3182 C3183 1.334 . S
C3183 H3160 0.950 . S
C3183 C3182 1.334 . S
C3183 C3184 1.287 . S
C3184 C3183 1.287 . S
C3184 C3185 1.524 . S
C3184 H3203 0.913 . S
C3185 H3161 0.950 . S
C3185 C3184 1.524 . S
C3185 C3186 1.415 . S
C3186 H3162 0.950 . S
C3186 C3181 1.363 . S
C3186 C3185 1.415 . S
C3187 H3163 0.951 . S
C3187 C3188 1.366 . S
C3187 C3189 1.388 . S
C3188 C3187 1.366 . S
C3188 C3192 1.385 . S
C3189 H3164 0.951 . S
C3189 C3187 1.388 . S
C3189 C3190 1.366 . S
C3190 C3189 1.366 . S
C3190 C3191 1.414 . S
C3190 C3193 1.499 . S
C3191 H3165 0.950 . S
C3191 C3190 1.414 . S
C3191 C3192 1.374 . S
C3192 H3166 0.950 . S
C3192 C3188 1.385 . S
C3192 C3191 1.374 . S
C3193 C3190 1.499 . S
C3193 C3194 1.373 . S
C3193 C3195 1.389 . S
C3194 H3167 0.950 . S
C3194 C3180 1.377 . S
C3194 C3193 1.373 . S
C3195 C3179 1.377 . S
C3195 C3193 1.389 . S
C3195 C3196 1.524 . S
C3196 C3195 1.524 . S
C3196 C3197 1.397 . S
C3196 C3201 1.363 . S
C3197 H3168 0.950 . S
C3197 C3196 1.397 . S
C3197 C3198 1.334 . S
C3198 H3169 0.950 . S
C3198 C3197 1.334 . S
C3198 C3199 1.287 . S
C3199 C3198 1.287 . S
C3199 C3200 1.524 . S
C3199 H3202 0.999 . S
C3200 H3170 0.950 . S
C3200 C3199 1.524 . S
C3200 C3201 1.415 . S
C3201 H3171 0.950 . S
C3201 C3196 1.363 . S
C3201 C3200 1.415 . S
H3202 C3199 0.999 . S
H3203 C3184 0.913 . S
H3204 C3222 0.951 . S
H3205 C3224 0.951 . S
H3206 C3226 0.950 . S
H3207 C3227 0.950 . S
H3208 C3229 0.950 . S
H3209 C3232 0.950 . S
H3210 C3233 0.950 . S
H3211 C3235 0.950 . S
H3212 C3236 0.950 . S
H3213 C3237 0.951 . S
H3214 C3239 0.951 . S
H3215 C3241 0.950 . S
H3216 C3242 0.950 . S
H3217 C3244 0.950 . S
H3218 C3247 0.950 . S
H3219 C3248 0.950 . S
H3220 C3250 0.950 . S
H3221 C3251 0.950 . S
C3222 H3204 0.951 . S
C3222 C3223 1.366 . S
C3222 C3224 1.388 . S
C3223 C3222 1.366 . S
C3223 C3227 1.385 . S
C3224 H3205 0.951 . S
C3224 C3222 1.388 . S
C3224 C3225 1.366 . S
C3225 C3224 1.366 . S
C3225 C3226 1.414 . S
C3225 C3228 1.499 . S
C3226 H3206 0.950 . S
C3226 C3225 1.414 . S
C3226 C3227 1.374 . S
C3227 H3207 0.950 . S
C3227 C3223 1.385 . S
C3227 C3226 1.374 . S
C3228 C3225 1.499 . S
C3228 C3229 1.373 . S
C3228 C3230 1.389 . S
C3229 H3208 0.950 . S
C3229 C3228 1.373 . S
C3229 C3245 1.377 . S
C3230 C3228 1.389 . S
C3230 C3231 1.524 . S
C3230 C3244 1.377 . S
C3231 C3230 1.524 . S
C3231 C3232 1.397 . S
C3231 C3236 1.363 . S
C3232 H3209 0.950 . S
C3232 C3231 1.397 . S
C3232 C3233 1.334 . S
C3233 H3210 0.950 . S
C3233 C3232 1.334 . S
C3233 C3234 1.287 . S
C3234 C3233 1.287 . S
C3234 C3235 1.524 . S
C3234 H3253 0.913 . S
C3235 H3211 0.950 . S
C3235 C3234 1.524 . S
C3235 C3236 1.415 . S
C3236 H3212 0.950 . S
C3236 C3231 1.363 . S
C3236 C3235 1.415 . S
C3237 H3213 0.951 . S
C3237 C3238 1.366 . S
C3237 C3239 1.388 . S
C3238 C3237 1.366 . S
C3238 C3242 1.385 . S
C3239 H3214 0.951 . S
C3239 C3237 1.388 . S
C3239 C3240 1.366 . S
C3240 C3239 1.366 . S
C3240 C3241 1.414 . S
C3240 C3243 1.499 . S
C3241 H3215 0.950 . S
C3241 C3240 1.414 . S
C3241 C3242 1.374 . S
C3242 H3216 0.950 . S
C3242 C3238 1.385 . S
C3242 C3241 1.374 . S
C3243 C3240 1.499 . S
C3243 C3244 1.373 . S
C3243 C3245 1.389 . S
C3244 H3217 0.950 . S
C3244 C3230 1.377 . S
C3244 C3243 1.373 . S
C3245 C3229 1.377 . S
C3245 C3243 1.389 . S
C3245 C3246 1.524 . S
C3246 C3245 1.524 . S
C3246 C3247 1.397 . S
C3246 C3251 1.363 . S
C3247 H3218 0.950 . S
C3247 C3246 1.397 . S
C3247 C3248 1.334 . S
C3248 H3219 0.950 . S
C3248 C3247 1.334 . S
C3248 C3249 1.287 . S
C3249 C3248 1.287 . S
C3249 C3250 1.524 . S
C3249 H3252 0.999 . S
C3250 H3220 0.950 . S
C3250 C3249 1.524 . S
C3250 C3251 1.415 . S
C3251 H3221 0.950 . S
C3251 C3246 1.363 . S
C3251 C3250 1.415 . S
H3252 C3249 0.999 . S
H3253 C3234 0.913 . S
H3254 C3272 0.951 . S
H3255 C3274 0.951 . S
H3256 C3276 0.950 . S
H3257 C3277 0.950 . S
H3258 C3279 0.950 . S
H3259 C3282 0.950 . S
H3260 C3283 0.950 . S
H3261 C3285 0.950 . S
H3262 C3286 0.950 . S
H3263 C3287 0.951 . S
H3264 C3289 0.951 . S
H3265 C3291 0.950 . S
H3266 C3292 0.950 . S
H3267 C3294 0.950 . S
H3268 C3297 0.950 . S
H3269 C3298 0.950 . S
H3270 C3300 0.950 . S
H3271 C3301 0.950 . S
C3272 H3254 0.951 . S
C3272 C3273 1.366 1_565 S
C3272 C3274 1.388 . S
C3273 C3272 1.366 1_545 S
C3273 C3277 1.385 . S
C3274 H3255 0.951 . S
C3274 C3272 1.388 . S
C3274 C3275 1.366 1_565 S
C3275 C3274 1.366 1_545 S
C3275 C3276 1.414 . S
C3275 C3278 1.499 . S
C3276 H3256 0.950 . S
C3276 C3275 1.414 . S
C3276 C3277 1.374 . S
C3277 H3257 0.950 . S
C3277 C3273 1.385 . S
C3277 C3276 1.374 . S
C3278 C3275 1.499 . S
C3278 C3279 1.373 . S
C3278 C3280 1.389 1_545 S
C3279 H3258 0.950 . S
C3279 C3278 1.373 . S
C3279 C3295 1.377 . S
C3280 C3278 1.389 1_565 S
C3280 C3281 1.524 . S
C3280 C3294 1.377 . S
C3281 C3280 1.524 . S
C3281 C3282 1.397 . S
C3281 C3286 1.363 . S
C3282 H3259 0.950 . S
C3282 C3281 1.397 . S
C3282 C3283 1.334 . S
C3283 H3260 0.950 . S
C3283 C3282 1.334 . S
C3283 C3284 1.287 . S
C3284 C3283 1.287 . S
C3284 C3285 1.524 . S
C3284 H3303 0.913 . S
C3285 H3261 0.950 . S
C3285 C3284 1.524 . S
C3285 C3286 1.415 . S
C3286 H3262 0.950 . S
C3286 C3281 1.363 . S
C3286 C3285 1.415 . S
C3287 H3263 0.951 . S
C3287 C3288 1.366 1_545 S
C3287 C3289 1.388 . S
C3288 C3287 1.366 1_565 S
C3288 C3292 1.385 . S
C3289 H3264 0.951 . S
C3289 C3287 1.388 . S
C3289 C3290 1.366 1_545 S
C3290 C3289 1.366 1_565 S
C3290 C3291 1.414 . S
C3290 C3293 1.499 . S
C3291 H3265 0.950 . S
C3291 C3290 1.414 . S
C3291 C3292 1.374 . S
C3292 H3266 0.950 . S
C3292 C3288 1.385 . S
C3292 C3291 1.374 . S
C3293 C3290 1.499 . S
C3293 C3294 1.373 . S
C3293 C3295 1.389 1_565 S
C3294 H3267 0.950 . S
C3294 C3280 1.377 . S
C3294 C3293 1.373 . S
C3295 C3279 1.377 . S
C3295 C3293 1.389 1_545 S
C3295 C3296 1.524 . S
C3296 C3295 1.524 . S
C3296 C3297 1.397 . S
C3296 C3301 1.363 . S
C3297 H3268 0.950 . S
C3297 C3296 1.397 . S
C3297 C3298 1.334 . S
C3298 H3269 0.950 . S
C3298 C3297 1.334 . S
C3298 C3299 1.287 . S
C3299 C3298 1.287 . S
C3299 C3300 1.524 . S
C3299 H3302 0.999 . S
C3300 H3270 0.950 . S
C3300 C3299 1.524 . S
C3300 C3301 1.415 . S
C3301 H3271 0.950 . S
C3301 C3296 1.363 . S
C3301 C3300 1.415 . S
H3302 C3299 0.999 . S
H3303 C3284 0.913 . S
H3304 C3322 0.956 . S
H3305 C3324 0.951 . S
H3306 C3326 0.950 . S
H3307 C3327 0.950 . S
H3308 C3329 0.938 . S
H3309 C3332 0.950 . S
H3310 C3333 0.950 . S
H3311 C3335 0.950 . S
H3312 C3336 0.909 1_655 S
H3313 C3337 0.956 . S
H3314 C3339 0.951 . S
H3315 C3341 0.950 . S
H3316 C3342 0.950 . S
H3317 C3344 0.938 . S
H3318 C3347 0.950 . S
H3319 C3348 0.950 . S
H3320 C3350 0.950 . S
H3321 C3351 0.908 1_455 S
C3322 H3304 0.956 . S
C3322 C3323 1.358 1_655 S
C3322 C3324 1.392 . S
C3323 C3322 1.358 1_455 S
C3323 C3327 1.385 . S
C3324 H3305 0.951 . S
C3324 C3322 1.392 . S
C3324 C3325 1.366 1_655 S
C3325 C3324 1.366 1_455 S
C3325 C3326 1.414 . S
C3325 C3328 1.499 . S
C3326 H3306 0.950 . S
C3326 C3325 1.414 . S
C3326 C3327 1.374 . S
C3327 H3307 0.950 . S
C3327 C3323 1.385 . S
C3327 C3326 1.374 . S
C3328 C3325 1.499 . S
C3328 C3329 1.352 1_455 S
C3328 C3330 1.389 . S
C3329 H3308 0.938 . S
C3329 C3328 1.352 1_655 S
C3329 C3345 1.383 . S
C3330 C3328 1.389 . S
C3330 C3331 1.524 . S
C3330 C3344 1.383 . S
C3331 C3330 1.524 . S
C3331 C3332 1.397 . S
C3331 C3336 1.366 . S
C3332 H3309 0.950 . S
C3332 C3331 1.397 . S
C3332 C3333 1.334 . S
C3333 H3310 0.950 . S
C3333 C3332 1.334 . S
C3333 C3334 1.287 . S
C3334 C3333 1.287 . S
C3334 C3335 1.524 . S
C3334 H3353 0.913 . S
C3335 H3311 0.950 . S
C3335 C3334 1.524 . S
C3335 C3336 1.455 . S
C3336 H3312 0.909 1_455 S
C3336 C3331 1.366 . S
C3336 C3335 1.455 . S
C3337 H3313 0.956 . S
C3337 C3338 1.359 1_455 S
C3337 C3339 1.392 . S
C3338 C3337 1.359 1_655 S
C3338 C3342 1.385 . S
C3339 H3314 0.951 . S
C3339 C3337 1.392 . S
C3339 C3340 1.366 1_455 S
C3340 C3339 1.366 1_655 S
C3340 C3341 1.414 . S
C3340 C3343 1.499 . S
C3341 H3315 0.950 . S
C3341 C3340 1.414 . S
C3341 C3342 1.374 . S
C3342 H3316 0.950 . S
C3342 C3338 1.385 . S
C3342 C3341 1.374 . S
C3343 C3340 1.499 . S
C3343 C3344 1.353 1_655 S
C3343 C3345 1.389 . S
C3344 H3317 0.938 . S
C3344 C3330 1.383 . S
C3344 C3343 1.353 1_455 S
C3345 C3329 1.383 . S
C3345 C3343 1.389 . S
C3345 C3346 1.524 . S
C3346 C3345 1.524 . S
C3346 C3347 1.397 . S
C3346 C3351 1.366 . S
C3347 H3318 0.950 . S
C3347 C3346 1.397 . S
C3347 C3348 1.334 . S
C3348 H3319 0.950 . S
C3348 C3347 1.334 . S
C3348 C3349 1.287 . S
C3349 C3348 1.287 . S
C3349 C3350 1.524 . S
C3349 H3352 0.999 . S
C3350 H3320 0.950 . S
C3350 C3349 1.524 . S
C3350 C3351 1.455 . S
C3351 H3321 0.908 1_655 S
C3351 C3346 1.366 . S
C3351 C3350 1.455 . S
H3352 C3349 0.999 . S
H3353 C3334 0.913 . S
H3354 C3372 0.951 . S
H3355 C3374 0.951 . S
H3356 C3376 0.950 . S
H3357 C3377 0.950 . S
H3358 C3379 0.950 . S
H3359 C3382 0.950 . S
H3360 C3383 0.950 . S
H3361 C3385 0.950 . S
H3362 C3386 0.950 . S
H3363 C3387 0.951 . S
H3364 C3389 0.951 . S
H3365 C3391 0.950 . S
H3366 C3392 0.950 . S
H3367 C3394 0.950 . S
H3368 C3397 0.950 . S
H3369 C3398 0.950 . S
H3370 C3400 0.950 . S
H3371 C3401 0.950 . S
C3372 H3354 0.951 . S
C3372 C3373 1.366 . S
C3372 C3374 1.388 . S
C3373 C3372 1.366 . S
C3373 C3377 1.385 . S
C3374 H3355 0.951 . S
C3374 C3372 1.388 . S
C3374 C3375 1.366 . S
C3375 C3374 1.366 . S
C3375 C3376 1.414 . S
C3375 C3378 1.499 . S
C3376 H3356 0.950 . S
C3376 C3375 1.414 . S
C3376 C3377 1.374 . S
C3377 H3357 0.950 . S
C3377 C3373 1.385 . S
C3377 C3376 1.374 . S
C3378 C3375 1.499 . S
C3378 C3379 1.373 . S
C3378 C3380 1.389 . S
C3379 H3358 0.950 . S
C3379 C3378 1.373 . S
C3379 C3395 1.377 . S
C3380 C3378 1.389 . S
C3380 C3381 1.524 . S
C3380 C3394 1.377 . S
C3381 C3380 1.524 . S
C3381 C3382 1.397 . S
C3381 C3386 1.363 . S
C3382 H3359 0.950 . S
C3382 C3381 1.397 . S
C3382 C3383 1.334 . S
C3383 H3360 0.950 . S
C3383 C3382 1.334 . S
C3383 C3384 1.287 . S
C3384 C3383 1.287 . S
C3384 C3385 1.524 . S
C3384 H3403 0.913 . S
C3385 H3361 0.950 . S
C3385 C3384 1.524 . S
C3385 C3386 1.415 . S
C3386 H3362 0.950 . S
C3386 C3381 1.363 . S
C3386 C3385 1.415 . S
C3387 H3363 0.951 . S
C3387 C3388 1.366 . S
C3387 C3389 1.388 . S
C3388 C3387 1.366 . S
C3388 C3392 1.385 . S
C3389 H3364 0.951 . S
C3389 C3387 1.388 . S
C3389 C3390 1.366 . S
C3390 C3389 1.366 . S
C3390 C3391 1.414 . S
C3390 C3393 1.499 . S
C3391 H3365 0.950 . S
C3391 C3390 1.414 . S
C3391 C3392 1.374 . S
C3392 H3366 0.950 . S
C3392 C3388 1.385 . S
C3392 C3391 1.374 . S
C3393 C3390 1.499 . S
C3393 C3394 1.373 . S
C3393 C3395 1.389 . S
C3394 H3367 0.950 . S
C3394 C3380 1.377 . S
C3394 C3393 1.373 . S
C3395 C3379 1.377 . S
C3395 C3393 1.389 . S
C3395 C3396 1.524 . S
C3396 C3395 1.524 . S
C3396 C3397 1.397 . S
C3396 C3401 1.363 . S
C3397 H3368 0.950 . S
C3397 C3396 1.397 . S
C3397 C3398 1.334 . S
C3398 H3369 0.950 . S
C3398 C3397 1.334 . S
C3398 C3399 1.287 . S
C3399 C3398 1.287 . S
C3399 C3400 1.524 . S
C3399 H3402 0.999 . S
C3400 H3370 0.950 . S
C3400 C3399 1.524 . S
C3400 C3401 1.415 . S
C3401 H3371 0.950 . S
C3401 C3396 1.363 . S
C3401 C3400 1.415 . S
H3402 C3399 0.999 . S
H3403 C3384 0.913 . S
H3404 C3422 0.951 . S
H3405 C3424 0.951 . S
H3406 C3426 0.950 . S
H3407 C3427 0.950 . S
H3408 C3429 0.950 . S
H3409 C3432 0.954 1_565 S
H3410 C3433 0.950 . S
H3411 C3435 0.950 . S
H3412 C3436 0.950 . S
H3413 C3437 0.951 . S
H3414 C3439 0.951 . S
H3415 C3441 0.950 . S
H3416 C3442 0.950 . S
H3417 C3444 0.950 . S
H3418 C3447 0.953 1_545 S
H3419 C3448 0.950 . S
H3420 C3450 0.950 . S
H3421 C3451 0.950 . S
C3422 H3404 0.951 . S
C3422 C3423 1.366 . S
C3422 C3424 1.388 . S
C3423 C3422 1.366 . S
C3423 C3427 1.385 1_545 S
C3424 H3405 0.951 . S
C3424 C3422 1.388 . S
C3424 C3425 1.366 . S
C3425 C3424 1.366 . S
C3425 C3426 1.414 1_545 S
C3425 C3428 1.499 . S
C3426 H3406 0.950 . S
C3426 C3425 1.414 1_565 S
C3426 C3427 1.374 . S
C3427 H3407 0.950 . S
C3427 C3423 1.385 1_565 S
C3427 C3426 1.374 . S
C3428 C3425 1.499 . S
C3428 C3429 1.373 1_545 S
C3428 C3430 1.389 . S
C3429 H3408 0.950 . S
C3429 C3428 1.373 1_565 S
C3429 C3445 1.377 . S
C3430 C3428 1.389 . S
C3430 C3431 1.524 . S
C3430 C3444 1.377 . S
C3431 C3430 1.524 . S
C3431 C3432 1.397 . S
C3431 C3436 1.363 . S
C3432 H3409 0.954 1_545 S
C3432 C3431 1.397 . S
C3432 C3433 1.334 . S
C3433 H3410 0.950 . S
C3433 C3432 1.334 . S
C3433 C3434 1.287 . S
C3434 C3433 1.287 . S
C3434 C3435 1.524 . S
C3434 H3453 0.913 . S
C3435 H3411 0.950 . S
C3435 C3434 1.524 . S
C3435 C3436 1.415 . S
C3436 H3412 0.950 . S
C3436 C3431 1.363 . S
C3436 C3435 1.415 . S
C3437 H3413 0.951 . S
C3437 C3438 1.366 . S
C3437 C3439 1.388 . S
C3438 C3437 1.366 . S
C3438 C3442 1.385 1_565 S
C3439 H3414 0.951 . S
C3439 C3437 1.388 . S
C3439 C3440 1.366 . S
C3440 C3439 1.366 . S
C3440 C3441 1.414 1_565 S
C3440 C3443 1.499 . S
C3441 H3415 0.950 . S
C3441 C3440 1.414 1_545 S
C3441 C3442 1.374 . S
C3442 H3416 0.950 . S
C3442 C3438 1.385 1_545 S
C3442 C3441 1.374 . S
C3443 C3440 1.499 . S
C3443 C3444 1.373 1_565 S
C3443 C3445 1.389 . S
C3444 H3417 0.950 . S
C3444 C3430 1.377 . S
C3444 C3443 1.373 1_545 S
C3445 C3429 1.377 . S
C3445 C3443 1.389 . S
C3445 C3446 1.524 . S
C3446 C3445 1.524 . S
C3446 C3447 1.397 . S
C3446 C3451 1.363 . S
C3447 H3418 0.953 1_565 S
C3447 C3446 1.397 . S
C3447 C3448 1.334 . S
C3448 H3419 0.950 . S
C3448 C3447 1.334 . S
C3448 C3449 1.287 . S
C3449 C3448 1.287 . S
C3449 C3450 1.524 . S
C3449 H3452 0.999 . S
C3450 H3420 0.950 . S
C3450 C3449 1.524 . S
C3450 C3451 1.415 . S
C3451 H3421 0.950 . S
C3451 C3446 1.363 . S
C3451 C3450 1.415 . S
H3452 C3449 0.999 . S
H3453 C3434 0.913 . S
H3454 C3472 0.951 . S
H3455 C3474 0.951 . S
H3456 C3476 0.950 . S
H3457 C3477 0.950 . S
H3458 C3479 0.950 . S
H3459 C3482 0.950 . S
H3460 C3483 0.950 . S
H3461 C3485 0.950 . S
H3462 C3486 0.950 . S
H3463 C3487 0.951 . S
H3464 C3489 0.951 . S
H3465 C3491 0.950 . S
H3466 C3492 0.950 . S
H3467 C3494 0.950 . S
H3468 C3497 0.950 . S
H3469 C3498 0.950 . S
H3470 C3500 0.950 . S
H3471 C3501 0.950 . S
C3472 H3454 0.951 . S
C3472 C3473 1.366 1_455 S
C3472 C3474 1.388 . S
C3473 C3472 1.366 1_655 S
C3473 C3477 1.385 . S
C3474 H3455 0.951 . S
C3474 C3472 1.388 . S
C3474 C3475 1.366 1_455 S
C3475 C3474 1.366 1_655 S
C3475 C3476 1.414 . S
C3475 C3478 1.499 . S
C3476 H3456 0.950 . S
C3476 C3475 1.414 . S
C3476 C3477 1.374 . S
C3477 H3457 0.950 . S
C3477 C3473 1.385 . S
C3477 C3476 1.374 . S
C3478 C3475 1.499 . S
C3478 C3479 1.373 . S
C3478 C3480 1.389 1_655 S
C3479 H3458 0.950 . S
C3479 C3478 1.373 . S
C3479 C3495 1.377 . S
C3480 C3478 1.389 1_455 S
C3480 C3481 1.524 . S
C3480 C3494 1.377 . S
C3481 C3480 1.524 . S
C3481 C3482 1.397 . S
C3481 C3486 1.363 . S
C3482 H3459 0.950 . S
C3482 C3481 1.397 . S
C3482 C3483 1.334 . S
C3483 H3460 0.950 . S
C3483 C3482 1.334 . S
C3483 C3484 1.287 . S
C3484 C3483 1.287 . S
C3484 C3485 1.524 . S
C3484 H3503 0.913 . S
C3485 H3461 0.950 . S
C3485 C3484 1.524 . S
C3485 C3486 1.415 . S
C3486 H3462 0.950 . S
C3486 C3481 1.363 . S
C3486 C3485 1.415 . S
C3487 H3463 0.951 . S
C3487 C3488 1.366 1_655 S
C3487 C3489 1.388 . S
C3488 C3487 1.366 1_455 S
C3488 C3492 1.385 . S
C3489 H3464 0.951 . S
C3489 C3487 1.388 . S
C3489 C3490 1.366 1_655 S
C3490 C3489 1.366 1_455 S
C3490 C3491 1.414 . S
C3490 C3493 1.499 . S
C3491 H3465 0.950 . S
C3491 C3490 1.414 . S
C3491 C3492 1.374 . S
C3492 H3466 0.950 . S
C3492 C3488 1.385 . S
C3492 C3491 1.374 . S
C3493 C3490 1.499 . S
C3493 C3494 1.373 . S
C3493 C3495 1.389 1_455 S
C3494 H3467 0.950 . S
C3494 C3480 1.377 . S
C3494 C3493 1.373 . S
C3495 C3479 1.377 . S
C3495 C3493 1.389 1_655 S
C3495 C3496 1.524 . S
C3496 C3495 1.524 . S
C3496 C3497 1.397 . S
C3496 C3501 1.363 . S
C3497 H3468 0.950 . S
C3497 C3496 1.397 . S
C3497 C3498 1.334 . S
C3498 H3469 0.950 . S
C3498 C3497 1.334 . S
C3498 C3499 1.287 . S
C3499 C3498 1.287 . S
C3499 C3500 1.524 . S
C3499 H3502 0.999 . S
C3500 H3470 0.950 . S
C3500 C3499 1.524 . S
C3500 C3501 1.415 . S
C3501 H3471 0.950 . S
C3501 C3496 1.363 . S
C3501 C3500 1.415 . S
H3502 C3499 0.999 . S
H3503 C3484 0.913 . S
H3504 C3522 0.951 . S
H3505 C3524 0.951 . S
H3506 C3526 0.950 . S
H3507 C3527 0.950 . S
H3508 C3529 0.950 . S
H3509 C3532 0.950 . S
H3510 C3533 0.950 . S
H3511 C3535 0.950 . S
H3512 C3536 0.950 . S
H3513 C3537 0.951 . S
H3514 C3539 0.951 . S
H3515 C3541 0.950 . S
H3516 C3542 0.950 . S
H3517 C3544 0.950 . S
H3518 C3547 0.950 . S
H3519 C3548 0.950 . S
H3520 C3550 0.950 . S
H3521 C3551 0.950 . S
C3522 H3504 0.951 . S
C3522 C3523 1.366 . S
C3522 C3524 1.388 . S
C3523 C3522 1.366 . S
C3523 C3527 1.385 . S
C3524 H3505 0.951 . S
C3524 C3522 1.388 . S
C3524 C3525 1.366 . S
C3525 C3524 1.366 . S
C3525 C3526 1.414 . S
C3525 C3528 1.499 . S
C3526 H3506 0.950 . S
C3526 C3525 1.414 . S
C3526 C3527 1.374 . S
C3527 H3507 0.950 . S
C3527 C3523 1.385 . S
C3527 C3526 1.374 . S
C3528 C3525 1.499 . S
C3528 C3529 1.373 . S
C3528 C3530 1.389 . S
C3529 H3508 0.950 . S
C3529 C3528 1.373 . S
C3529 C3545 1.377 . S
C3530 C3528 1.389 . S
C3530 C3531 1.524 . S
C3530 C3544 1.377 . S
C3531 C3530 1.524 . S
C3531 C3532 1.397 . S
C3531 C3536 1.363 . S
C3532 H3509 0.950 . S
C3532 C3531 1.397 . S
C3532 C3533 1.334 . S
C3533 H3510 0.950 . S
C3533 C3532 1.334 . S
C3533 C3534 1.287 . S
C3534 C3533 1.287 . S
C3534 C3535 1.524 . S
C3534 H3553 0.913 . S
C3535 H3511 0.950 . S
C3535 C3534 1.524 . S
C3535 C3536 1.415 . S
C3536 H3512 0.950 . S
C3536 C3531 1.363 . S
C3536 C3535 1.415 . S
C3537 H3513 0.951 . S
C3537 C3538 1.366 . S
C3537 C3539 1.388 . S
C3538 C3537 1.366 . S
C3538 C3542 1.385 . S
C3539 H3514 0.951 . S
C3539 C3537 1.388 . S
C3539 C3540 1.366 . S
C3540 C3539 1.366 . S
C3540 C3541 1.414 . S
C3540 C3543 1.499 . S
C3541 H3515 0.950 . S
C3541 C3540 1.414 . S
C3541 C3542 1.374 . S
C3542 H3516 0.950 . S
C3542 C3538 1.385 . S
C3542 C3541 1.374 . S
C3543 C3540 1.499 . S
C3543 C3544 1.373 . S
C3543 C3545 1.389 . S
C3544 H3517 0.950 . S
C3544 C3530 1.377 . S
C3544 C3543 1.373 . S
C3545 C3529 1.377 . S
C3545 C3543 1.389 . S
C3545 C3546 1.524 . S
C3546 C3545 1.524 . S
C3546 C3547 1.397 . S
C3546 C3551 1.363 . S
C3547 H3518 0.950 . S
C3547 C3546 1.397 . S
C3547 C3548 1.334 . S
C3548 H3519 0.950 . S
C3548 C3547 1.334 . S
C3548 C3549 1.287 . S
C3549 C3548 1.287 . S
C3549 C3550 1.524 . S
C3549 H3552 0.999 . S
C3550 H3520 0.950 . S
C3550 C3549 1.524 . S
C3550 C3551 1.415 . S
C3551 H3521 0.950 . S
C3551 C3546 1.363 . S
C3551 C3550 1.415 . S
H3552 C3549 0.999 . S
H3553 C3534 0.913 . S
H3554 C3572 0.951 . S
H3555 C3574 0.951 . S
H3556 C3576 0.950 . S
H3557 C3577 0.950 . S
H3558 C3579 0.950 . S
H3559 C3582 0.950 . S
H3560 C3583 0.950 . S
H3561 C3585 0.950 . S
H3562 C3586 0.950 . S
H3563 C3587 0.951 . S
H3564 C3589 0.951 . S
H3565 C3591 0.950 . S
H3566 C3592 0.950 . S
H3567 C3594 0.950 . S
H3568 C3597 0.950 . S
H3569 C3598 0.950 . S
H3570 C3600 0.950 . S
H3571 C3601 0.950 . S
C3572 H3554 0.951 . S
C3572 C3573 1.366 . S
C3572 C3574 1.388 . S
C3573 C3572 1.366 . S
C3573 C3577 1.385 . S
C3574 H3555 0.951 . S
C3574 C3572 1.388 . S
C3574 C3575 1.366 . S
C3575 C3574 1.366 . S
C3575 C3576 1.414 . S
C3575 C3578 1.499 . S
C3576 H3556 0.950 . S
C3576 C3575 1.414 . S
C3576 C3577 1.374 . S
C3577 H3557 0.950 . S
C3577 C3573 1.385 . S
C3577 C3576 1.374 . S
C3578 C3575 1.499 . S
C3578 C3579 1.373 . S
C3578 C3580 1.389 . S
C3579 H3558 0.950 . S
C3579 C3578 1.373 . S
C3579 C3595 1.377 . S
C3580 C3578 1.389 . S
C3580 C3581 1.524 . S
C3580 C3594 1.377 . S
C3581 C3580 1.524 . S
C3581 C3582 1.397 . S
C3581 C3586 1.363 . S
C3582 H3559 0.950 . S
C3582 C3581 1.397 . S
C3582 C3583 1.334 . S
C3583 H3560 0.950 . S
C3583 C3582 1.334 . S
C3583 C3584 1.287 . S
C3584 C3583 1.287 . S
C3584 C3585 1.524 . S
C3584 H3603 0.913 . S
C3585 H3561 0.950 . S
C3585 C3584 1.524 . S
C3585 C3586 1.415 . S
C3586 H3562 0.950 . S
C3586 C3581 1.363 . S
C3586 C3585 1.415 . S
C3587 H3563 0.951 . S
C3587 C3588 1.366 . S
C3587 C3589 1.388 . S
C3588 C3587 1.366 . S
C3588 C3592 1.385 . S
C3589 H3564 0.951 . S
C3589 C3587 1.388 . S
C3589 C3590 1.366 . S
C3590 C3589 1.366 . S
C3590 C3591 1.414 . S
C3590 C3593 1.499 . S
C3591 H3565 0.950 . S
C3591 C3590 1.414 . S
C3591 C3592 1.374 . S
C3592 H3566 0.950 . S
C3592 C3588 1.385 . S
C3592 C3591 1.374 . S
C3593 C3590 1.499 . S
C3593 C3594 1.373 . S
C3593 C3595 1.389 . S
C3594 H3567 0.950 . S
C3594 C3580 1.377 . S
C3594 C3593 1.373 . S
C3595 C3579 1.377 . S
C3595 C3593 1.389 . S
C3595 C3596 1.524 . S
C3596 C3595 1.524 . S
C3596 C3597 1.397 . S
C3596 C3601 1.363 . S
C3597 H3568 0.950 . S
C3597 C3596 1.397 . S
C3597 C3598 1.334 . S
C3598 H3569 0.950 . S
C3598 C3597 1.334 . S
C3598 C3599 1.287 . S
C3599 C3598 1.287 . S
C3599 C3600 1.524 . S
C3599 H3602 0.999 . S
C3600 H3570 0.950 . S
C3600 C3599 1.524 . S
C3600 C3601 1.415 . S
C3601 H3571 0.950 . S
C3601 C3596 1.363 . S
C3601 C3600 1.415 . S
H3602 C3599 0.999 . S
H3603 C3584 0.913 . S
H3604 C3622 0.951 . S
H3605 C3624 0.951 . S
H3606 C3626 0.950 . S
H3607 C3627 0.950 . S
H3608 C3629 0.950 . S
H3609 C3632 0.950 . S
H3610 C3633 0.950 . S
H3611 C3635 0.950 . S
H3612 C3636 0.950 . S
H3613 C3637 0.951 . S
H3614 C3639 0.951 . S
H3615 C3641 0.950 . S
H3616 C3642 0.950 . S
H3617 C3644 0.950 . S
H3618 C3647 0.950 . S
H3619 C3648 0.950 . S
H3620 C3650 0.950 . S
H3621 C3651 0.950 . S
C3622 H3604 0.951 . S
C3622 C3623 1.366 . S
C3622 C3624 1.388 . S
C3623 C3622 1.366 . S
C3623 C3627 1.385 . S
C3624 H3605 0.951 . S
C3624 C3622 1.388 . S
C3624 C3625 1.366 . S
C3625 C3624 1.366 . S
C3625 C3626 1.414 . S
C3625 C3628 1.499 . S
C3626 H3606 0.950 . S
C3626 C3625 1.414 . S
C3626 C3627 1.374 . S
C3627 H3607 0.950 . S
C3627 C3623 1.385 . S
C3627 C3626 1.374 . S
C3628 C3625 1.499 . S
C3628 C3629 1.373 . S
C3628 C3630 1.389 . S
C3629 H3608 0.950 . S
C3629 C3628 1.373 . S
C3629 C3645 1.377 . S
C3630 C3628 1.389 . S
C3630 C3631 1.524 . S
C3630 C3644 1.377 . S
C3631 C3630 1.524 . S
C3631 C3632 1.397 . S
C3631 C3636 1.363 . S
C3632 H3609 0.950 . S
C3632 C3631 1.397 . S
C3632 C3633 1.334 . S
C3633 H3610 0.950 . S
C3633 C3632 1.334 . S
C3633 C3634 1.287 . S
C3634 C3633 1.287 . S
C3634 C3635 1.524 . S
C3634 H3653 0.913 . S
C3635 H3611 0.950 . S
C3635 C3634 1.524 . S
C3635 C3636 1.415 . S
C3636 H3612 0.950 . S
C3636 C3631 1.363 . S
C3636 C3635 1.415 . S
C3637 H3613 0.951 . S
C3637 C3638 1.366 . S
C3637 C3639 1.388 . S
C3638 C3637 1.366 . S
C3638 C3642 1.385 . S
C3639 H3614 0.951 . S
C3639 C3637 1.388 . S
C3639 C3640 1.366 . S
C3640 C3639 1.366 . S
C3640 C3641 1.414 . S
C3640 C3643 1.499 . S
C3641 H3615 0.950 . S
C3641 C3640 1.414 . S
C3641 C3642 1.374 . S
C3642 H3616 0.950 . S
C3642 C3638 1.385 . S
C3642 C3641 1.374 . S
C3643 C3640 1.499 . S
C3643 C3644 1.373 . S
C3643 C3645 1.389 . S
C3644 H3617 0.950 . S
C3644 C3630 1.377 . S
C3644 C3643 1.373 . S
C3645 C3629 1.377 . S
C3645 C3643 1.389 . S
C3645 C3646 1.524 . S
C3646 C3645 1.524 . S
C3646 C3647 1.397 . S
C3646 C3651 1.363 . S
C3647 H3618 0.950 . S
C3647 C3646 1.397 . S
C3647 C3648 1.334 . S
C3648 H3619 0.950 . S
C3648 C3647 1.334 . S
C3648 C3649 1.287 . S
C3649 C3648 1.287 . S
C3649 C3650 1.524 . S
C3649 H3652 0.999 . S
C3650 H3620 0.950 . S
C3650 C3649 1.524 . S
C3650 C3651 1.415 . S
C3651 H3621 0.950 . S
C3651 C3646 1.363 . S
C3651 C3650 1.415 . S
H3652 C3649 0.999 . S
H3653 C3634 0.913 . S
H3654 C3672 0.951 . S
H3655 C3674 0.951 . S
H3656 C3676 0.950 . S
H3657 C3677 0.950 . S
H3658 C3679 0.950 . S
H3659 C3682 0.950 . S
H3660 C3683 0.950 . S
H3661 C3685 0.950 . S
H3662 C3686 0.950 . S
H3663 C3687 0.951 . S
H3664 C3689 0.951 . S
H3665 C3691 0.950 . S
H3666 C3692 0.950 . S
H3667 C3694 0.950 . S
H3668 C3697 0.950 . S
H3669 C3698 0.950 . S
H3670 C3700 0.950 . S
H3671 C3701 0.950 . S
C3672 H3654 0.951 . S
C3672 C3673 1.366 . S
C3672 C3674 1.388 . S
C3673 C3672 1.366 . S
C3673 C3677 1.385 . S
C3674 H3655 0.951 . S
C3674 C3672 1.388 . S
C3674 C3675 1.366 . S
C3675 C3674 1.366 . S
C3675 C3676 1.414 . S
C3675 C3678 1.499 . S
C3676 H3656 0.950 . S
C3676 C3675 1.414 . S
C3676 C3677 1.374 . S
C3677 H3657 0.950 . S
C3677 C3673 1.385 . S
C3677 C3676 1.374 . S
C3678 C3675 1.499 . S
C3678 C3679 1.373 . S
C3678 C3680 1.389 . S
C3679 H3658 0.950 . S
C3679 C3678 1.373 . S
C3679 C3695 1.377 . S
C3680 C3678 1.389 . S
C3680 C3681 1.524 . S
C3680 C3694 1.377 . S
C3681 C3680 1.524 . S
C3681 C3682 1.397 . S
C3681 C3686 1.363 . S
C3682 H3659 0.950 . S
C3682 C3681 1.397 . S
C3682 C3683 1.334 . S
C3683 H3660 0.950 . S
C3683 C3682 1.334 . S
C3683 C3684 1.287 . S
C3684 C3683 1.287 . S
C3684 C3685 1.524 . S
C3684 H3703 0.913 . S
C3685 H3661 0.950 . S
C3685 C3684 1.524 . S
C3685 C3686 1.415 . S
C3686 H3662 0.950 . S
C3686 C3681 1.363 . S
C3686 C3685 1.415 . S
C3687 H3663 0.951 . S
C3687 C3688 1.366 . S
C3687 C3689 1.388 1_556 S
C3688 C3687 1.366 . S
C3688 C3692 1.385 . S
C3689 H3664 0.951 . S
C3689 C3687 1.388 1_554 S
C3689 C3690 1.366 . S
C3690 C3689 1.366 . S
C3690 C3691 1.414 . S
C3690 C3693 1.499 . S
C3691 H3665 0.950 . S
C3691 C3690 1.414 . S
C3691 C3692 1.374 1_554 S
C3692 H3666 0.950 . S
C3692 C3688 1.385 . S
C3692 C3691 1.374 1_556 S
C3693 C3690 1.499 . S
C3693 C3694 1.373 . S
C3693 C3695 1.389 . S
C3694 H3667 0.950 . S
C3694 C3680 1.377 . S
C3694 C3693 1.373 . S
C3695 C3679 1.377 . S
C3695 C3693 1.389 . S
C3695 C3696 1.524 . S
C3696 C3695 1.524 . S
C3696 C3697 1.397 . S
C3696 C3701 1.363 . S
C3697 H3668 0.950 . S
C3697 C3696 1.397 . S
C3697 C3698 1.334 . S
C3698 H3669 0.950 . S
C3698 C3697 1.334 . S
C3698 C3699 1.287 . S
C3699 C3698 1.287 . S
C3699 C3700 1.524 . S
C3699 H3702 0.999 . S
C3700 H3670 0.950 . S
C3700 C3699 1.524 . S
C3700 C3701 1.415 . S
C3701 H3671 0.950 . S
C3701 C3696 1.363 . S
C3701 C3700 1.415 . S
H3702 C3699 0.999 . S
H3703 C3684 0.913 . S
H3704 C3722 0.951 . S
H3705 C3724 0.951 . S
H3706 C3726 0.950 . S
H3707 C3727 0.950 . S
H3708 C3729 0.950 . S
H3709 C3732 0.950 . S
H3710 C3733 0.950 . S
H3711 C3735 0.950 . S
H3712 C3736 0.950 . S
H3713 C3737 0.951 . S
H3714 C3739 0.951 . S
H3715 C3741 0.950 . S
H3716 C3742 0.950 . S
H3717 C3744 0.950 . S
H3718 C3747 0.950 . S
H3719 C3748 0.950 . S
H3720 C3750 0.950 . S
H3721 C3751 0.950 . S
C3722 H3704 0.951 . S
C3722 C3723 1.366 . S
C3722 C3724 1.388 . S
C3723 C3722 1.366 . S
C3723 C3727 1.385 . S
C3724 H3705 0.951 . S
C3724 C3722 1.388 . S
C3724 C3725 1.366 . S
C3725 C3724 1.366 . S
C3725 C3726 1.414 . S
C3725 C3728 1.499 . S
C3726 H3706 0.950 . S
C3726 C3725 1.414 . S
C3726 C3727 1.374 . S
C3727 H3707 0.950 . S
C3727 C3723 1.385 . S
C3727 C3726 1.374 . S
C3728 C3725 1.499 . S
C3728 C3729 1.373 . S
C3728 C3730 1.389 . S
C3729 H3708 0.950 . S
C3729 C3728 1.373 . S
C3729 C3745 1.377 . S
C3730 C3728 1.389 . S
C3730 C3731 1.524 . S
C3730 C3744 1.377 . S
C3731 C3730 1.524 . S
C3731 C3732 1.397 . S
C3731 C3736 1.363 . S
C3732 H3709 0.950 . S
C3732 C3731 1.397 . S
C3732 C3733 1.334 . S
C3733 H3710 0.950 . S
C3733 C3732 1.334 . S
C3733 C3734 1.287 . S
C3734 C3733 1.287 . S
C3734 C3735 1.524 . S
C3734 H3753 0.913 . S
C3735 H3711 0.950 . S
C3735 C3734 1.524 . S
C3735 C3736 1.415 . S
C3736 H3712 0.950 . S
C3736 C3731 1.363 . S
C3736 C3735 1.415 . S
C3737 H3713 0.951 . S
C3737 C3738 1.366 . S
C3737 C3739 1.388 1_556 S
C3738 C3737 1.366 . S
C3738 C3742 1.385 . S
C3739 H3714 0.951 . S
C3739 C3737 1.388 1_554 S
C3739 C3740 1.366 . S
C3740 C3739 1.366 . S
C3740 C3741 1.414 . S
C3740 C3743 1.499 . S
C3741 H3715 0.950 . S
C3741 C3740 1.414 . S
C3741 C3742 1.374 1_554 S
C3742 H3716 0.950 . S
C3742 C3738 1.385 . S
C3742 C3741 1.374 1_556 S
C3743 C3740 1.499 . S
C3743 C3744 1.373 . S
C3743 C3745 1.389 . S
C3744 H3717 0.950 . S
C3744 C3730 1.377 . S
C3744 C3743 1.373 . S
C3745 C3729 1.377 . S
C3745 C3743 1.389 . S
C3745 C3746 1.524 . S
C3746 C3745 1.524 . S
C3746 C3747 1.397 . S
C3746 C3751 1.363 . S
C3747 H3718 0.950 . S
C3747 C3746 1.397 . S
C3747 C3748 1.334 . S
C3748 H3719 0.950 . S
C3748 C3747 1.334 . S
C3748 C3749 1.287 . S
C3749 C3748 1.287 . S
C3749 C3750 1.524 . S
C3749 H3752 0.999 . S
C3750 H3720 0.950 . S
C3750 C3749 1.524 . S
C3750 C3751 1.415 . S
C3751 H3721 0.950 . S
C3751 C3746 1.363 . S
C3751 C3750 1.415 . S
H3752 C3749 0.999 . S
H3753 C3734 0.913 . S
H3754 C3772 0.951 . S
H3755 C3774 0.951 . S
H3756 C3776 0.950 . S
H3757 C3777 0.950 . S
H3758 C3779 0.950 . S
H3759 C3782 0.950 . S
H3760 C3783 0.950 . S
H3761 C3785 0.950 . S
H3762 C3786 0.950 . S
H3763 C3787 0.951 . S
H3764 C3789 0.951 . S
H3765 C3791 0.950 . S
H3766 C3792 0.950 . S
H3767 C3794 0.950 . S
H3768 C3797 0.950 . S
H3769 C3798 0.950 . S
H3770 C3800 0.950 . S
H3771 C3801 0.950 . S
C3772 H3754 0.951 . S
C3772 C3773 1.366 . S
C3772 C3774 1.388 . S
C3773 C3772 1.366 . S
C3773 C3777 1.385 . S
C3774 H3755 0.951 . S
C3774 C3772 1.388 . S
C3774 C3775 1.366 . S
C3775 C3774 1.366 . S
C3775 C3776 1.414 . S
C3775 C3778 1.499 . S
C3776 H3756 0.950 . S
C3776 C3775 1.414 . S
C3776 C3777 1.374 . S
C3777 H3757 0.950 . S
C3777 C3773 1.385 . S
C3777 C3776 1.374 . S
C3778 C3775 1.499 . S
C3778 C3779 1.373 . S
C3778 C3780 1.389 . S
C3779 H3758 0.950 . S
C3779 C3778 1.373 . S
C3779 C3795 1.377 . S
C3780 C3778 1.389 . S
C3780 C3781 1.524 . S
C3780 C3794 1.377 . S
C3781 C3780 1.524 . S
C3781 C3782 1.397 . S
C3781 C3786 1.363 . S
C3782 H3759 0.950 . S
C3782 C3781 1.397 . S
C3782 C3783 1.334 . S
C3783 H3760 0.950 . S
C3783 C3782 1.334 . S
C3783 C3784 1.287 . S
C3784 C3783 1.287 . S
C3784 C3785 1.524 . S
C3784 H3803 0.913 . S
C3785 H3761 0.950 . S
C3785 C3784 1.524 . S
C3785 C3786 1.415 . S
C3786 H3762 0.950 . S
C3786 C3781 1.363 . S
C3786 C3785 1.415 . S
C3787 H3763 0.951 . S
C3787 C3788 1.366 . S
C3787 C3789 1.388 1_556 S
C3788 C3787 1.366 . S
C3788 C3792 1.385 . S
C3789 H3764 0.951 . S
C3789 C3787 1.388 1_554 S
C3789 C3790 1.366 . S
C3790 C3789 1.366 . S
C3790 C3791 1.414 . S
C3790 C3793 1.499 . S
C3791 H3765 0.950 . S
C3791 C3790 1.414 . S
C3791 C3792 1.374 1_554 S
C3792 H3766 0.950 . S
C3792 C3788 1.385 . S
C3792 C3791 1.374 1_556 S
C3793 C3790 1.499 . S
C3793 C3794 1.373 . S
C3793 C3795 1.389 . S
C3794 H3767 0.950 . S
C3794 C3780 1.377 . S
C3794 C3793 1.373 . S
C3795 C3779 1.377 . S
C3795 C3793 1.389 . S
C3795 C3796 1.524 . S
C3796 C3795 1.524 . S
C3796 C3797 1.397 . S
C3796 C3801 1.363 . S
C3797 H3768 0.950 . S
C3797 C3796 1.397 . S
C3797 C3798 1.334 . S
C3798 H3769 0.950 . S
C3798 C3797 1.334 . S
C3798 C3799 1.287 . S
C3799 C3798 1.287 . S
C3799 C3800 1.524 . S
C3799 H3802 0.999 . S
C3800 H3770 0.950 . S
C3800 C3799 1.524 . S
C3800 C3801 1.415 . S
C3801 H3771 0.950 . S
C3801 C3796 1.363 . S
C3801 C3800 1.415 . S
H3802 C3799 0.999 . S
H3803 C3784 0.913 . S
H3804 C3822 0.951 . S
H3805 C3824 0.951 . S
H3806 C3826 0.950 . S
H3807 C3827 0.950 . S
H3808 C3829 0.950 . S
H3809 C3832 0.950 . S
H3810 C3833 0.950 . S
H3811 C3835 0.950 . S
H3812 C3836 0.950 . S
H3813 C3837 0.951 . S
H3814 C3839 0.951 . S
H3815 C3841 0.950 . S
H3816 C3842 0.950 . S
H3817 C3844 0.950 . S
H3818 C3847 0.950 . S
H3819 C3848 0.950 . S
H3820 C3850 0.950 . S
H3821 C3851 0.950 . S
C3822 H3804 0.951 . S
C3822 C3823 1.366 . S
C3822 C3824 1.388 1_554 S
C3823 C3822 1.366 . S
C3823 C3827 1.385 . S
C3824 H3805 0.951 . S
C3824 C3822 1.388 1_556 S
C3824 C3825 1.366 . S
C3825 C3824 1.366 . S
C3825 C3826 1.414 . S
C3825 C3828 1.499 . S
C3826 H3806 0.950 . S
C3826 C3825 1.414 . S
C3826 C3827 1.374 1_556 S
C3827 H3807 0.950 . S
C3827 C3823 1.385 . S
C3827 C3826 1.374 1_554 S
C3828 C3825 1.499 . S
C3828 C3829 1.373 . S
C3828 C3830 1.389 . S
C3829 H3808 0.950 . S
C3829 C3828 1.373 . S
C3829 C3845 1.377 . S
C3830 C3828 1.389 . S
C3830 C3831 1.524 . S
C3830 C3844 1.377 . S
C3831 C3830 1.524 . S
C3831 C3832 1.397 . S
C3831 C3836 1.363 . S
C3832 H3809 0.950 . S
C3832 C3831 1.397 . S
C3832 C3833 1.334 . S
C3833 H3810 0.950 . S
C3833 C3832 1.334 . S
C3833 C3834 1.287 . S
C3834 C3833 1.287 . S
C3834 C3835 1.524 . S
C3834 H3853 0.913 . S
C3835 H3811 0.950 . S
C3835 C3834 1.524 . S
C3835 C3836 1.415 . S
C3836 H3812 0.950 . S
C3836 C3831 1.363 . S
C3836 C3835 1.415 . S
C3837 H3813 0.951 . S
C3837 C3838 1.366 . S
C3837 C3839 1.388 . S
C3838 C3837 1.366 . S
C3838 C3842 1.385 . S
C3839 H3814 0.951 . S
C3839 C3837 1.388 . S
C3839 C3840 1.366 . S
C3840 C3839 1.366 . S
C3840 C3841 1.414 . S
C3840 C3843 1.499 . S
C3841 H3815 0.950 . S
C3841 C3840 1.414 . S
C3841 C3842 1.374 . S
C3842 H3816 0.950 . S
C3842 C3838 1.385 . S
C3842 C3841 1.374 . S
C3843 C3840 1.499 . S
C3843 C3844 1.373 . S
C3843 C3845 1.389 . S
C3844 H3817 0.950 . S
C3844 C3830 1.377 . S
C3844 C3843 1.373 . S
C3845 C3829 1.377 . S
C3845 C3843 1.389 . S
C3845 C3846 1.524 . S
C3846 C3845 1.524 . S
C3846 C3847 1.397 . S
C3846 C3851 1.363 . S
C3847 H3818 0.950 . S
C3847 C3846 1.397 . S
C3847 C3848 1.334 . S
C3848 H3819 0.950 . S
C3848 C3847 1.334 . S
C3848 C3849 1.287 . S
C3849 C3848 1.287 . S
C3849 C3850 1.524 . S
C3849 H3852 0.999 . S
C3850 H3820 0.950 . S
C3850 C3849 1.524 . S
C3850 C3851 1.415 . S
C3851 H3821 0.950 . S
C3851 C3846 1.363 . S
C3851 C3850 1.415 . S
H3852 C3849 0.999 . S
H3853 C3834 0.913 . S
H3854 C3872 0.951 . S
H3855 C3874 0.951 . S
H3856 C3876 0.950 . S
H3857 C3877 0.950 . S
H3858 C3879 0.950 . S
H3859 C3882 0.950 . S
H3860 C3883 0.950 . S
H3861 C3885 0.950 . S
H3862 C3886 0.950 . S
H3863 C3887 0.951 . S
H3864 C3889 0.951 . S
H3865 C3891 0.950 . S
H3866 C3892 0.950 . S
H3867 C3894 0.950 . S
H3868 C3897 0.950 . S
H3869 C3898 0.950 . S
H3870 C3900 0.950 . S
H3871 C3901 0.950 . S
C3872 H3854 0.951 . S
C3872 C3873 1.366 . S
C3872 C3874 1.388 1_554 S
C3873 C3872 1.366 . S
C3873 C3877 1.385 . S
C3874 H3855 0.951 . S
C3874 C3872 1.388 1_556 S
C3874 C3875 1.366 . S
C3875 C3874 1.366 . S
C3875 C3876 1.414 . S
C3875 C3878 1.499 . S
C3876 H3856 0.950 . S
C3876 C3875 1.414 . S
C3876 C3877 1.374 1_556 S
C3877 H3857 0.950 . S
C3877 C3873 1.385 . S
C3877 C3876 1.374 1_554 S
C3878 C3875 1.499 . S
C3878 C3879 1.373 . S
C3878 C3880 1.389 . S
C3879 H3858 0.950 . S
C3879 C3878 1.373 . S
C3879 C3895 1.377 . S
C3880 C3878 1.389 . S
C3880 C3881 1.524 . S
C3880 C3894 1.377 . S
C3881 C3880 1.524 . S
C3881 C3882 1.397 . S
C3881 C3886 1.363 . S
C3882 H3859 0.950 . S
C3882 C3881 1.397 . S
C3882 C3883 1.334 . S
C3883 H3860 0.950 . S
C3883 C3882 1.334 . S
C3883 C3884 1.287 . S
C3884 C3883 1.287 . S
C3884 C3885 1.524 . S
C3884 H3903 0.913 . S
C3885 H3861 0.950 . S
C3885 C3884 1.524 . S
C3885 C3886 1.415 . S
C3886 H3862 0.950 . S
C3886 C3881 1.363 . S
C3886 C3885 1.415 . S
C3887 H3863 0.951 . S
C3887 C3888 1.366 . S
C3887 C3889 1.388 . S
C3888 C3887 1.366 . S
C3888 C3892 1.385 . S
C3889 H3864 0.951 . S
C3889 C3887 1.388 . S
C3889 C3890 1.366 . S
C3890 C3889 1.366 . S
C3890 C3891 1.414 . S
C3890 C3893 1.499 . S
C3891 H3865 0.950 . S
C3891 C3890 1.414 . S
C3891 C3892 1.374 . S
C3892 H3866 0.950 . S
C3892 C3888 1.385 . S
C3892 C3891 1.374 . S
C3893 C3890 1.499 . S
C3893 C3894 1.373 . S
C3893 C3895 1.389 . S
C3894 H3867 0.950 . S
C3894 C3880 1.377 . S
C3894 C3893 1.373 . S
C3895 C3879 1.377 . S
C3895 C3893 1.389 . S
C3895 C3896 1.524 . S
C3896 C3895 1.524 . S
C3896 C3897 1.397 . S
C3896 C3901 1.363 . S
C3897 H3868 0.950 . S
C3897 C3896 1.397 . S
C3897 C3898 1.334 . S
C3898 H3869 0.950 . S
C3898 C3897 1.334 . S
C3898 C3899 1.287 . S
C3899 C3898 1.287 . S
C3899 C3900 1.524 . S
C3899 H3902 0.999 . S
C3900 H3870 0.950 . S
C3900 C3899 1.524 . S
C3900 C3901 1.415 . S
C3901 H3871 0.950 . S
C3901 C3896 1.363 . S
C3901 C3900 1.415 . S
H3902 C3899 0.999 . S
H3903 C3884 0.913 . S
H3904 C3922 0.951 . S
H3905 C3924 0.951 . S
H3906 C3926 0.950 . S
H3907 C3927 0.950 . S
H3908 C3929 0.950 . S
H3909 C3932 0.950 . S
H3910 C3933 0.950 . S
H3911 C3935 0.950 . S
H3912 C3936 0.950 . S
H3913 C3937 0.951 . S
H3914 C3939 0.951 . S
H3915 C3941 0.950 . S
H3916 C3942 0.950 . S
H3917 C3944 0.950 . S
H3918 C3947 0.950 . S
H3919 C3948 0.950 . S
H3920 C3950 0.950 . S
H3921 C3951 0.950 . S
C3922 H3904 0.951 . S
C3922 C3923 1.366 . S
C3922 C3924 1.388 1_554 S
C3923 C3922 1.366 . S
C3923 C3927 1.385 . S
C3924 H3905 0.951 . S
C3924 C3922 1.388 1_556 S
C3924 C3925 1.366 . S
C3925 C3924 1.366 . S
C3925 C3926 1.414 . S
C3925 C3928 1.499 . S
C3926 H3906 0.950 . S
C3926 C3925 1.414 . S
C3926 C3927 1.374 1_556 S
C3927 H3907 0.950 . S
C3927 C3923 1.385 . S
C3927 C3926 1.374 1_554 S
C3928 C3925 1.499 . S
C3928 C3929 1.373 . S
C3928 C3930 1.389 . S
C3929 H3908 0.950 . S
C3929 C3928 1.373 . S
C3929 C3945 1.377 . S
C3930 C3928 1.389 . S
C3930 C3931 1.524 . S
C3930 C3944 1.377 . S
C3931 C3930 1.524 . S
C3931 C3932 1.397 . S
C3931 C3936 1.363 . S
C3932 H3909 0.950 . S
C3932 C3931 1.397 . S
C3932 C3933 1.334 . S
C3933 H3910 0.950 . S
C3933 C3932 1.334 . S
C3933 C3934 1.287 . S
C3934 C3933 1.287 . S
C3934 C3935 1.524 . S
C3934 H3953 0.913 . S
C3935 H3911 0.950 . S
C3935 C3934 1.524 . S
C3935 C3936 1.415 . S
C3936 H3912 0.950 . S
C3936 C3931 1.363 . S
C3936 C3935 1.415 . S
C3937 H3913 0.951 . S
C3937 C3938 1.366 . S
C3937 C3939 1.388 . S
C3938 C3937 1.366 . S
C3938 C3942 1.385 . S
C3939 H3914 0.951 . S
C3939 C3937 1.388 . S
C3939 C3940 1.366 . S
C3940 C3939 1.366 . S
C3940 C3941 1.414 . S
C3940 C3943 1.499 . S
C3941 H3915 0.950 . S
C3941 C3940 1.414 . S
C3941 C3942 1.374 . S
C3942 H3916 0.950 . S
C3942 C3938 1.385 . S
C3942 C3941 1.374 . S
C3943 C3940 1.499 . S
C3943 C3944 1.373 . S
C3943 C3945 1.389 . S
C3944 H3917 0.950 . S
C3944 C3930 1.377 . S
C3944 C3943 1.373 . S
C3945 C3929 1.377 . S
C3945 C3943 1.389 . S
C3945 C3946 1.524 . S
C3946 C3945 1.524 . S
C3946 C3947 1.397 . S
C3946 C3951 1.363 . S
C3947 H3918 0.950 . S
C3947 C3946 1.397 . S
C3947 C3948 1.334 . S
C3948 H3919 0.950 . S
C3948 C3947 1.334 . S
C3948 C3949 1.287 . S
C3949 C3948 1.287 . S
C3949 C3950 1.524 . S
C3949 H3952 0.999 . S
C3950 H3920 0.950 . S
C3950 C3949 1.524 . S
C3950 C3951 1.415 . S
C3951 H3921 0.950 . S
C3951 C3946 1.363 . S
C3951 C3950 1.415 . S
H3952 C3949 0.999 . S
H3953 C3934 0.913 . S
H3954 C3972 0.951 . S
H3955 C3974 0.951 . S
H3956 C3976 0.950 . S
H3957 C3977 0.950 . S
H3958 C3979 0.950 . S
H3959 C3982 0.950 . S
H3960 C3983 0.950 . S
H3961 C3985 0.950 . S
H3962 C3986 0.950 . S
H3963 C3987 0.951 . S
H3964 C3989 0.951 . S
H3965 C3991 0.950 . S
H3966 C3992 0.950 . S
H3967 C3994 0.950 . S
H3968 C3997 0.950 . S
H3969 C3998 0.950 . S
H3970 C4000 0.950 . S
H3971 C4001 0.950 . S
C3972 H3954 0.951 . S
C3972 C3973 1.366 . S
C3972 C3974 1.388 . S
C3973 C3972 1.366 . S
C3973 C3977 1.385 . S
C3974 H3955 0.951 . S
C3974 C3972 1.388 . S
C3974 C3975 1.366 . S
C3975 C3974 1.366 . S
C3975 C3976 1.414 . S
C3975 C3978 1.499 . S
C3976 H3956 0.950 . S
C3976 C3975 1.414 . S
C3976 C3977 1.374 . S
C3977 H3957 0.950 . S
C3977 C3973 1.385 . S
C3977 C3976 1.374 . S
C3978 C3975 1.499 . S
C3978 C3979 1.373 . S
C3978 C3980 1.389 . S
C3979 H3958 0.950 . S
C3979 C3978 1.373 . S
C3979 C3995 1.377 . S
C3980 C3978 1.389 . S
C3980 C3981 1.524 . S
C3980 C3994 1.377 . S
C3981 C3980 1.524 . S
C3981 C3982 1.397 . S
C3981 C3986 1.363 . S
C3982 H3959 0.950 . S
C3982 C3981 1.397 . S
C3982 C3983 1.334 . S
C3983 H3960 0.950 . S
C3983 C3982 1.334 . S
C3983 C3984 1.287 . S
C3984 C3983 1.287 . S
C3984 C3985 1.524 . S
C3984 H4003 0.913 . S
C3985 H3961 0.950 . S
C3985 C3984 1.524 . S
C3985 C3986 1.415 . S
C3986 H3962 0.950 . S
C3986 C3981 1.363 . S
C3986 C3985 1.415 . S
C3987 H3963 0.951 . S
C3987 C3988 1.366 . S
C3987 C3989 1.388 . S
C3988 C3987 1.366 . S
C3988 C3992 1.385 . S
C3989 H3964 0.951 . S
C3989 C3987 1.388 . S
C3989 C3990 1.366 . S
C3990 C3989 1.366 . S
C3990 C3991 1.414 . S
C3990 C3993 1.499 . S
C3991 H3965 0.950 . S
C3991 C3990 1.414 . S
C3991 C3992 1.374 . S
C3992 H3966 0.950 . S
C3992 C3988 1.385 . S
C3992 C3991 1.374 . S
C3993 C3990 1.499 . S
C3993 C3994 1.373 . S
C3993 C3995 1.389 . S
C3994 H3967 0.950 . S
C3994 C3980 1.377 . S
C3994 C3993 1.373 . S
C3995 C3979 1.377 . S
C3995 C3993 1.389 . S
C3995 C3996 1.524 . S
C3996 C3995 1.524 . S
C3996 C3997 1.397 . S
C3996 C4001 1.363 . S
C3997 H3968 0.950 . S
C3997 C3996 1.397 . S
C3997 C3998 1.334 . S
C3998 H3969 0.950 . S
C3998 C3997 1.334 . S
C3998 C3999 1.287 . S
C3999 C3998 1.287 . S
C3999 C4000 1.524 . S
C3999 H4002 0.999 . S
C4000 H3970 0.950 . S
C4000 C3999 1.524 . S
C4000 C4001 1.415 . S
C4001 H3971 0.950 . S
C4001 C3996 1.363 . S
C4001 C4000 1.415 . S
H4002 C3999 0.999 . S
H4003 C3984 0.913 . S
H4004 C4022 0.951 . S
H4005 C4024 0.951 . S
H4006 C4026 0.950 . S
H4007 C4027 0.950 . S
H4008 C4029 0.950 . S
H4009 C4032 0.950 . S
H4010 C4033 0.950 . S
H4011 C4035 0.950 . S
H4012 C4036 0.950 . S
H4013 C4037 0.951 . S
H4014 C4039 0.951 . S
H4015 C4041 0.950 . S
H4016 C4042 0.950 . S
H4017 C4044 0.950 . S
H4018 C4047 0.950 . S
H4019 C4048 0.950 . S
H4020 C4050 0.950 . S
H4021 C4051 0.950 . S
C4022 H4004 0.951 . S
C4022 C4023 1.366 . S
C4022 C4024 1.388 . S
C4023 C4022 1.366 . S
C4023 C4027 1.385 . S
C4024 H4005 0.951 . S
C4024 C4022 1.388 . S
C4024 C4025 1.366 . S
C4025 C4024 1.366 . S
C4025 C4026 1.414 . S
C4025 C4028 1.499 . S
C4026 H4006 0.950 . S
C4026 C4025 1.414 . S
C4026 C4027 1.374 . S
C4027 H4007 0.950 . S
C4027 C4023 1.385 . S
C4027 C4026 1.374 . S
C4028 C4025 1.499 . S
C4028 C4029 1.373 . S
C4028 C4030 1.389 . S
C4029 H4008 0.950 . S
C4029 C4028 1.373 . S
C4029 C4045 1.377 . S
C4030 C4028 1.389 . S
C4030 C4031 1.524 . S
C4030 C4044 1.377 . S
C4031 C4030 1.524 . S
C4031 C4032 1.397 . S
C4031 C4036 1.363 . S
C4032 H4009 0.950 . S
C4032 C4031 1.397 . S
C4032 C4033 1.334 . S
C4033 H4010 0.950 . S
C4033 C4032 1.334 . S
C4033 C4034 1.287 . S
C4034 C4033 1.287 . S
C4034 C4035 1.524 . S
C4034 H4053 0.913 . S
C4035 H4011 0.950 . S
C4035 C4034 1.524 . S
C4035 C4036 1.415 . S
C4036 H4012 0.950 . S
C4036 C4031 1.363 . S
C4036 C4035 1.415 . S
C4037 H4013 0.951 . S
C4037 C4038 1.366 . S
C4037 C4039 1.388 . S
C4038 C4037 1.366 . S
C4038 C4042 1.385 . S
C4039 H4014 0.951 . S
C4039 C4037 1.388 . S
C4039 C4040 1.366 . S
C4040 C4039 1.366 . S
C4040 C4041 1.414 . S
C4040 C4043 1.499 . S
C4041 H4015 0.950 . S
C4041 C4040 1.414 . S
C4041 C4042 1.374 . S
C4042 H4016 0.950 . S
C4042 C4038 1.385 . S
C4042 C4041 1.374 . S
C4043 C4040 1.499 . S
C4043 C4044 1.373 . S
C4043 C4045 1.389 . S
C4044 H4017 0.950 . S
C4044 C4030 1.377 . S
C4044 C4043 1.373 . S
C4045 C4029 1.377 . S
C4045 C4043 1.389 . S
C4045 C4046 1.524 . S
C4046 C4045 1.524 . S
C4046 C4047 1.397 . S
C4046 C4051 1.363 . S
C4047 H4018 0.950 . S
C4047 C4046 1.397 . S
C4047 C4048 1.334 . S
C4048 H4019 0.950 . S
C4048 C4047 1.334 . S
C4048 C4049 1.287 . S
C4049 C4048 1.287 . S
C4049 C4050 1.524 . S
C4049 H4052 0.999 . S
C4050 H4020 0.950 . S
C4050 C4049 1.524 . S
C4050 C4051 1.415 . S
C4051 H4021 0.950 . S
C4051 C4046 1.363 . S
C4051 C4050 1.415 . S
H4052 C4049 0.999 . S
H4053 C4034 0.913 . S
H4054 C4072 0.951 . S
H4055 C4074 0.951 . S
H4056 C4076 0.950 . S
H4057 C4077 0.950 . S
H4058 C4079 0.950 . S
H4059 C4082 0.950 . S
H4060 C4083 0.950 . S
H4061 C4085 0.950 . S
H4062 C4086 0.950 . S
H4063 C4087 0.951 . S
H4064 C4089 0.951 . S
H4065 C4091 0.950 . S
H4066 C4092 0.950 . S
H4067 C4094 0.950 . S
H4068 C4097 0.950 . S
H4069 C4098 0.950 . S
H4070 C4100 0.950 . S
H4071 C4101 0.950 . S
C4072 H4054 0.951 . S
C4072 C4073 1.366 . S
C4072 C4074 1.388 . S
C4073 C4072 1.366 . S
C4073 C4077 1.385 . S
C4074 H4055 0.951 . S
C4074 C4072 1.388 . S
C4074 C4075 1.366 . S
C4075 C4074 1.366 . S
C4075 C4076 1.414 . S
C4075 C4078 1.499 . S
C4076 H4056 0.950 . S
C4076 C4075 1.414 . S
C4076 C4077 1.374 . S
C4077 H4057 0.950 . S
C4077 C4073 1.385 . S
C4077 C4076 1.374 . S
C4078 C4075 1.499 . S
C4078 C4079 1.373 . S
C4078 C4080 1.389 . S
C4079 H4058 0.950 . S
C4079 C4078 1.373 . S
C4079 C4095 1.377 . S
C4080 C4078 1.389 . S
C4080 C4081 1.524 . S
C4080 C4094 1.377 . S
C4081 C4080 1.524 . S
C4081 C4082 1.397 . S
C4081 C4086 1.363 . S
C4082 H4059 0.950 . S
C4082 C4081 1.397 . S
C4082 C4083 1.334 . S
C4083 H4060 0.950 . S
C4083 C4082 1.334 . S
C4083 C4084 1.287 . S
C4084 C4083 1.287 . S
C4084 C4085 1.524 . S
C4084 H4103 0.913 . S
C4085 H4061 0.950 . S
C4085 C4084 1.524 . S
C4085 C4086 1.415 . S
C4086 H4062 0.950 . S
C4086 C4081 1.363 . S
C4086 C4085 1.415 . S
C4087 H4063 0.951 . S
C4087 C4088 1.366 . S
C4087 C4089 1.388 . S
C4088 C4087 1.366 . S
C4088 C4092 1.385 . S
C4089 H4064 0.951 . S
C4089 C4087 1.388 . S
C4089 C4090 1.366 . S
C4090 C4089 1.366 . S
C4090 C4091 1.414 . S
C4090 C4093 1.499 . S
C4091 H4065 0.950 . S
C4091 C4090 1.414 . S
C4091 C4092 1.374 . S
C4092 H4066 0.950 . S
C4092 C4088 1.385 . S
C4092 C4091 1.374 . S
C4093 C4090 1.499 . S
C4093 C4094 1.373 . S
C4093 C4095 1.389 . S
C4094 H4067 0.950 . S
C4094 C4080 1.377 . S
C4094 C4093 1.373 . S
C4095 C4079 1.377 . S
C4095 C4093 1.389 . S
C4095 C4096 1.524 . S
C4096 C4095 1.524 . S
C4096 C4097 1.397 . S
C4096 C4101 1.363 . S
C4097 H4068 0.950 . S
C4097 C4096 1.397 . S
C4097 C4098 1.334 . S
C4098 H4069 0.950 . S
C4098 C4097 1.334 . S
C4098 C4099 1.287 . S
C4099 C4098 1.287 . S
C4099 C4100 1.524 . S
C4099 H4102 0.999 . S
C4100 H4070 0.950 . S
C4100 C4099 1.524 . S
C4100 C4101 1.415 . S
C4101 H4071 0.950 . S
C4101 C4096 1.363 . S
C4101 C4100 1.415 . S
H4102 C4099 0.999 . S
H4103 C4084 0.913 . S
C523 C232 0.994 . S
C538 C8 0.994 1_556 S
C573 C246 0.994 . S
C588 C22 0.994 1_556 S
C623 C36 0.994 1_556 S
C638 C218 0.994 . S
C673 C372 0.994 . S
C688 C50 0.993 . S
C723 C344 0.994 . S
C738 C64 0.994 . S
C773 C78 0.994 . S
C788 C358 0.994 . S
C823 C484 0.993 . S
C838 C92 0.994 1_554 S
C873 C498 0.994 . S
C888 C106 0.994 1_554 S
C923 C470 0.994 . S
C938 C120 0.994 1_554 S
C973 C288 0.994 . S
C988 C134 0.994 . S
C1023 C148 0.994 . S
C1038 C260 0.994 . S
C1073 C274 0.994 . S
C1088 C162 0.994 . S
C1123 C400 0.994 . S
C1138 C176 0.993 . S
C1173 C190 0.994 . S
C1188 C414 0.994 . S
C1223 C386 0.994 . S
C1238 C204 0.994 . S
C1273 C456 0.994 . S
C1288 C302 0.994 . S
C1323 C428 0.994 . S
C1338 C316 0.993 . S
C1373 C330 0.994 . S
C1388 C442 0.994 . S
C1423 C101 1.568 . S
C1438 C7 1.550 . S
C1473 C115 1.568 . S
C1488 C21 1.549 . S
C1523 C87 1.568 . S
C1538 C35 1.550 . S
C1573 C49 1.549 . S
C1588 C157 1.568 . S
C1623 C129 1.568 . S
C1638 C63 1.549 . S
C1673 C77 1.549 . S
C1688 C143 1.568 . S
C1723 C17 1.568 . S
C1738 C91 1.549 . S
C1773 C105 1.549 . S
C1788 C31 1.568 . S
C1823 C3 1.569 . S
C1838 C119 1.549 . S
C1873 C73 1.569 . S
C1888 C133 1.549 . S
C1923 C45 1.568 . S
C1938 C147 1.550 . S
C1973 C161 1.549 . S
C1988 C59 1.568 . S
C2023 C175 1.549 . S
C2038 C269 1.568 . S
C2073 C283 1.568 . S
C2088 C189 1.549 . S
C2123 C255 1.569 . S
C2138 C203 1.549 . S
C2173 C217 1.549 . S
C2188 C325 1.568 . S
C2223 C297 1.569 . S
C2238 C231 1.549 . S
C2273 C245 1.549 . S
C2288 C311 1.568 . S
C2323 C259 1.549 . S
C2338 C185 1.568 . S
C2373 C273 1.549 . S
C2388 C199 1.568 . S
C2423 C171 1.568 . S
C2438 C287 1.550 . S
C2473 C241 1.568 . S
C2488 C301 1.549 . S
C2523 C213 1.569 . S
C2538 C315 1.550 . S
C2573 C329 1.549 . S
C2588 C227 1.568 . S
C2623 C437 1.569 . S
C2638 C343 1.549 . S
C2673 C357 1.549 . S
C2688 C451 1.568 . S
C2723 C371 1.549 . S
C2738 C423 1.569 . S
C2773 C493 1.568 . S
C2788 C385 1.549 . S
C2823 C399 1.549 . S
C2838 C465 1.569 . S
C2873 C479 1.568 . S
C2888 C413 1.549 . S
C2923 C353 1.568 . S
C2938 C427 1.549 . S
C2973 C367 1.568 . S
C2988 C441 1.549 . S
C3023 C455 1.550 . S
C3038 C339 1.569 . S
C3073 C469 1.550 . S
C3088 C409 1.568 . S
C3123 C381 1.569 . S
C3138 C483 1.550 . S
C3173 C395 1.568 . S
C3188 C497 1.549 . S
C3223 C9 1.586 . S
C3238 C51 1.585 . S
C3273 C23 1.586 . S
C3288 C65 1.586 . S
C3323 C79 1.585 . S
C3338 C37 1.586 . S
C3373 C93 1.586 . S
C3388 C135 1.586 . S
C3423 C149 1.585 . S
C3438 C107 1.586 . S
C3473 C163 1.586 . S
C3488 C121 1.586 . S
C3523 C177 1.586 . S
C3538 C219 1.585 . S
C3573 C191 1.586 . S
C3588 C233 1.586 . S
C3623 C247 1.586 . S
C3638 C205 1.585 . S
C3673 C261 1.586 . S
C3688 C303 1.586 . S
C3723 C275 1.586 . S
C3738 C317 1.586 . S
C3773 C289 1.585 . S
C3788 C331 1.586 . S
C3823 C387 1.585 . S
C3838 C345 1.586 . S
C3873 C401 1.586 . S
C3888 C359 1.585 . S
C3923 C415 1.586 . S
C3938 C373 1.586 . S
C3973 C429 1.586 . S
C3988 C471 1.586 . S
C4023 C485 1.585 . S
C4038 C443 1.586 . S
C4073 C499 1.586 . S
C4088 C457 1.585 . S
