# Generated by pormake.
# Topology zfc, (5)-cn, num edge types: 1
# Building blocks:
#     Node 0, Type 0, BuildingBlock: BEQFEK_clean_sbu_0, # of connection points: 5
#     Node 1, Type 0, BuildingBlock: BEQFEK_clean_sbu_0, # of connection points: 5
#     Node 2, Type 0, BuildingBlock: BEQFEK_clean_sbu_0, # of connection points: 5
#     Node 3, Type 0, BuildingBlock: BEQFEK_clean_sbu_0, # of connection points: 5
#     Node 4, Type 0, BuildingBlock: BEQFEK_clean_sbu_0, # of connection points: 5
#     Node 5, Type 0, BuildingBlock: BEQFEK_clean_sbu_0, # of connection points: 5
#     Node 6, Type 0, BuildingBlock: BEQFEK_clean_sbu_0, # of connection points: 5
#     Node 7, Type 0, BuildingBlock: BEQFEK_clean_sbu_0, # of connection points: 5
#     Node 8, Type 0, BuildingBlock: BEQFEK_clean_sbu_0, # of connection points: 5
#     Node 9, Type 0, BuildingBlock: BEQFEK_clean_sbu_0, # of connection points: 5
#     Node 10, Type 0, BuildingBlock: BEQFEK_clean_sbu_0, # of connection points: 5
#     Node 11, Type 0, BuildingBlock: BEQFEK_clean_sbu_0, # of connection points: 5
#     Node 12, Type 0, BuildingBlock: BEQFEK_clean_sbu_0, # of connection points: 5
#     Node 13, Type 0, BuildingBlock: BEQFEK_clean_sbu_0, # of connection points: 5
#     Node 14, Type 0, BuildingBlock: BEQFEK_clean_sbu_0, # of connection points: 5
#     Node 15, Type 0, BuildingBlock: BEQFEK_clean_sbu_0, # of connection points: 5
#     Edge 16, Type (0, 0), BuildingBlock: XUDNAN_clean_linker_2, # of connection points: 2
#     Edge 17, Type (0, 0), BuildingBlock: XUDNAN_clean_linker_2, # of connection points: 2
#     Edge 18, Type (0, 0), BuildingBlock: XUDNAN_clean_linker_2, # of connection points: 2
#     Edge 19, Type (0, 0), BuildingBlock: XUDNAN_clean_linker_2, # of connection points: 2
#     Edge 20, Type (0, 0), BuildingBlock: XUDNAN_clean_linker_2, # of connection points: 2
#     Edge 21, Type (0, 0), BuildingBlock: XUDNAN_clean_linker_2, # of connection points: 2
#     Edge 22, Type (0, 0), BuildingBlock: XUDNAN_clean_linker_2, # of connection points: 2
#     Edge 23, Type (0, 0), BuildingBlock: XUDNAN_clean_linker_2, # of connection points: 2
#     Edge 24, Type (0, 0), BuildingBlock: XUDNAN_clean_linker_2, # of connection points: 2
#     Edge 25, Type (0, 0), BuildingBlock: XUDNAN_clean_linker_2, # of connection points: 2
#     Edge 26, Type (0, 0), BuildingBlock: XUDNAN_clean_linker_2, # of connection points: 2
#     Edge 27, Type (0, 0), BuildingBlock: XUDNAN_clean_linker_2, # of connection points: 2
#     Edge 28, Type (0, 0), BuildingBlock: XUDNAN_clean_linker_2, # of connection points: 2
#     Edge 29, Type (0, 0), BuildingBlock: XUDNAN_clean_linker_2, # of connection points: 2
#     Edge 30, Type (0, 0), BuildingBlock: XUDNAN_clean_linker_2, # of connection points: 2
#     Edge 31, Type (0, 0), BuildingBlock: XUDNAN_clean_linker_2, # of connection points: 2
#     Edge 32, Type (0, 0), BuildingBlock: XUDNAN_clean_linker_2, # of connection points: 2
#     Edge 33, Type (0, 0), BuildingBlock: XUDNAN_clean_linker_2, # of connection points: 2
#     Edge 34, Type (0, 0), BuildingBlock: XUDNAN_clean_linker_2, # of connection points: 2
#     Edge 35, Type (0, 0), BuildingBlock: XUDNAN_clean_linker_2, # of connection points: 2
#     Edge 36, Type (0, 0), BuildingBlock: XUDNAN_clean_linker_2, # of connection points: 2
#     Edge 37, Type (0, 0), BuildingBlock: XUDNAN_clean_linker_2, # of connection points: 2
#     Edge 38, Type (0, 0), BuildingBlock: XUDNAN_clean_linker_2, # of connection points: 2
#     Edge 39, Type (0, 0), BuildingBlock: XUDNAN_clean_linker_2, # of connection points: 2
#     Edge 40, Type (0, 0), BuildingBlock: XUDNAN_clean_linker_2, # of connection points: 2
#     Edge 41, Type (0, 0), BuildingBlock: XUDNAN_clean_linker_2, # of connection points: 2
#     Edge 42, Type (0, 0), BuildingBlock: XUDNAN_clean_linker_2, # of connection points: 2
#     Edge 43, Type (0, 0), BuildingBlock: XUDNAN_clean_linker_2, # of connection points: 2
#     Edge 44, Type (0, 0), BuildingBlock: XUDNAN_clean_linker_2, # of connection points: 2
#     Edge 45, Type (0, 0), BuildingBlock: XUDNAN_clean_linker_2, # of connection points: 2
#     Edge 46, Type (0, 0), BuildingBlock: XUDNAN_clean_linker_2, # of connection points: 2
#     Edge 47, Type (0, 0), BuildingBlock: XUDNAN_clean_linker_2, # of connection points: 2
#     Edge 48, Type (0, 0), BuildingBlock: XUDNAN_clean_linker_2, # of connection points: 2
#     Edge 49, Type (0, 0), BuildingBlock: XUDNAN_clean_linker_2, # of connection points: 2
#     Edge 50, Type (0, 0), BuildingBlock: XUDNAN_clean_linker_2, # of connection points: 2
#     Edge 51, Type (0, 0), BuildingBlock: XUDNAN_clean_linker_2, # of connection points: 2
#     Edge 52, Type (0, 0), BuildingBlock: XUDNAN_clean_linker_2, # of connection points: 2
#     Edge 53, Type (0, 0), BuildingBlock: XUDNAN_clean_linker_2, # of connection points: 2
#     Edge 54, Type (0, 0), BuildingBlock: XUDNAN_clean_linker_2, # of connection points: 2
#     Edge 55, Type (0, 0), BuildingBlock: XUDNAN_clean_linker_2, # of connection points: 2
# Relax obj value: 0.172
# Max RMSD: 0.198
# Mean RMSD: 0.198
data_MOF--net-zfc--node1-BEQFEK_clean_sbu_0--edge1-XUDNAN_clean_linker_2
_symmetry_space_group_name_H-M    P1
_symmetry_Int_Tables_number       1
_symmetry_cell_setting            triclinic
loop_
_symmetry_equiv_pos_as_xyz
'x, y, z'
_cell_length_a     73.347842
_cell_length_b     73.445719
_cell_length_c     18.848985
_cell_angle_alpha  89.976608
_cell_angle_beta   89.987852
_cell_angle_gamma 89.906556
loop_
_atom_site_label
_atom_site_type_symbol
_atom_site_fract_x
_atom_site_fract_y
_atom_site_fract_z
_atom_type_partial_charge
Co0 Co 0.25556 0.11711 0.12978 0.0
Co1 Co 0.27116 0.12293 0.97685 0.0
C2 C 0.23635 0.14161 0.0296 0.0
O3 O 0.23636 0.1342 0.09093 0.0
O4 O 0.24885 0.13805 0.9847 0.0
C5 C 0.23938 0.11532 0.27083 0.0
O6 O 0.22981 0.12972 0.25267 0.0
C7 C 0.26728 0.1201 0.82335 0.0
C8 C 0.29579 0.12039 0.78575 0.0
C9 C 0.27793 0.11858 0.76324 0.0
N10 N 0.27828 0.12269 0.87944 0.0
N11 N 0.29532 0.12313 0.85649 0.0
C12 C 0.24713 0.11721 0.8281 0.0
H13 H 0.24297 0.11424 0.88347 0.0
H14 H 0.24295 0.10583 0.79293 0.0
H15 H 0.24005 0.12968 0.80944 0.0
C16 C 0.2574 0.07849 0.08285 0.0
N17 N 0.25971 0.09647 0.07116 0.0
N18 N 0.26681 0.09881 0.00775 0.0
C19 C 0.26931 0.08238 0.97727 0.0
C20 C 0.26344 0.06898 0.02376 0.0
C21 C 0.24883 0.0707 0.14814 0.0
H22 H 0.23647 0.07866 0.16212 0.0
H23 H 0.24513 0.05618 0.14085 0.0
H24 H 0.25861 0.07181 0.19283 0.0
O25 O 0.27874 0.1308 0.14277 0.0
O26 O 0.29046 0.13423 0.03495 0.0
H27 H 0.28172 0.06498 0.89821 0.0
H28 H 0.26738 0.0829 0.86418 0.0
C29 C 0.27753 0.07939 0.90554 0.0
H30 H 0.28963 0.08823 0.89886 0.0
H31 H 0.30665 0.12457 0.88945 0.0
O32 O 0.24991 0.108 0.22575 0.0
C33 C 0.29132 0.13654 0.10188 0.0
Co34 Co 0.88788 0.25516 0.13442 0.0
Co35 Co 0.88081 0.26879 0.98134 0.0
C36 C 0.86474 0.23353 0.04075 0.0
O37 O 0.87343 0.23448 0.09896 0.0
O38 O 0.86599 0.24594 0.99374 0.0
C39 C 0.89911 0.2375 0.26897 0.0
O40 O 0.90081 0.22157 0.23799 0.0
C41 C 0.88214 0.2625 0.82946 0.0
C42 C 0.88675 0.29004 0.78595 0.0
C43 C 0.88618 0.27179 0.76736 0.0
N44 N 0.88112 0.2746 0.88271 0.0
N45 N 0.88348 0.29109 0.8562 0.0
C46 C 0.87859 0.24254 0.83855 0.0
H47 H 0.86514 0.24067 0.86423 0.0
H48 H 0.88915 0.23654 0.87368 0.0
H49 H 0.87816 0.23517 0.78734 0.0
C50 C 0.92648 0.25936 0.09037 0.0
N51 N 0.90843 0.25971 0.07705 0.0
N52 N 0.90563 0.26567 0.01212 0.0
C53 C 0.92197 0.26941 0.98226 0.0
C54 C 0.93566 0.26545 0.0307 0.0
C55 C 0.93465 0.25453 0.16059 0.0
H56 H 0.92882 0.2635 0.20222 0.0
H57 H 0.93103 0.24029 0.17397 0.0
H58 H 0.94971 0.25596 0.16017 0.0
O59 O 0.87256 0.27716 0.14249 0.0
O60 O 0.86901 0.28892 0.03521 0.0
H61 H 0.91764 0.29066 0.90672 0.0
H62 H 0.93924 0.27909 0.89698 0.0
C63 C 0.92458 0.27727 0.90977 0.0
H64 H 0.91846 0.26806 0.86988 0.0
H65 H 0.8838 0.30296 0.8866 0.0
O66 O 0.89474 0.25141 0.23302 0.0
C67 C 0.86643 0.28957 0.10204 0.0
Co68 Co 0.75689 0.88946 0.13075 0.0
Co69 Co 0.73705 0.88035 0.98451 0.0
C70 C 0.77464 0.86542 0.02627 0.0
O71 O 0.77557 0.87389 0.08508 0.0
O72 O 0.76091 0.86698 0.98519 0.0
C73 C 0.77088 0.90328 0.28604 0.0
O74 O 0.78651 0.91193 0.29007 0.0
C75 C 0.73659 0.87899 0.8265 0.0
C76 C 0.70751 0.88367 0.80287 0.0
C77 C 0.72442 0.88191 0.77064 0.0
N78 N 0.72734 0.87971 0.88844 0.0
N79 N 0.70991 0.88216 0.87354 0.0
C80 C 0.75647 0.87444 0.82149 0.0
H81 H 0.7596 0.86284 0.85689 0.0
H82 H 0.76465 0.88632 0.83887 0.0
H83 H 0.76048 0.87035 0.76712 0.0
C84 C 0.75028 0.92698 0.08162 0.0
N85 N 0.749 0.90884 0.07277 0.0
N86 N 0.7407 0.90533 0.01229 0.0
C87 C 0.73677 0.92134 0.98032 0.0
C88 C 0.74252 0.93554 0.02349 0.0
C89 C 0.75971 0.9358 0.14294 0.0
H90 H 0.75186 0.93304 0.19208 0.0
H91 H 0.77345 0.92971 0.14959 0.0
H92 H 0.76095 0.95074 0.13562 0.0
O93 O 0.73643 0.87401 0.14987 0.0
O94 O 0.72016 0.86747 0.05392 0.0
H95 H 0.71453 0.91657 0.90981 0.0
H96 H 0.72631 0.93764 0.89345 0.0
C97 C 0.7281 0.92316 0.90884 0.0
H98 H 0.73668 0.91623 0.86864 0.0
H99 H 0.6997 0.88348 0.91181 0.0
O100 O 0.76538 0.89787 0.2256 0.0
C101 C 0.72305 0.8661 0.12063 0.0
Co102 Co 0.11849 0.74797 0.12844 0.0
Co103 Co 0.12315 0.73125 0.97702 0.0
C104 C 0.14229 0.76634 0.028 0.0
O105 O 0.13459 0.76716 0.08843 0.0
O106 O 0.13884 0.75333 0.98536 0.0
C107 C 0.11622 0.76715 0.26228 0.0
O108 O 0.12456 0.78053 0.22935 0.0
C109 C 0.12006 0.73919 0.8282 0.0
C110 C 0.12518 0.71303 0.77421 0.0
C111 C 0.12176 0.73135 0.76163 0.0
N112 N 0.1226 0.72628 0.87764 0.0
N113 N 0.12562 0.71061 0.84522 0.0
C114 C 0.11487 0.75843 0.84535 0.0
H115 H 0.10851 0.75923 0.89863 0.0
H116 H 0.10532 0.7639 0.8049 0.0
H117 H 0.12725 0.76704 0.84578 0.0
C118 C 0.07961 0.74618 0.08706 0.0
N119 N 0.09742 0.74356 0.07327 0.0
N120 N 0.09916 0.73583 0.0107 0.0
C121 C 0.08241 0.73313 0.98298 0.0
C122 C 0.06949 0.73955 0.03061 0.0
C123 C 0.07251 0.75486 0.15332 0.0
H124 H 0.07548 0.74581 0.19905 0.0
H125 H 0.07971 0.76792 0.16253 0.0
H126 H 0.05759 0.75726 0.15048 0.0
O127 O 0.13271 0.72536 0.13659 0.0
O128 O 0.1346 0.71118 0.03277 0.0
H129 H 0.08827 0.71372 0.90105 0.0
H130 H 0.06451 0.72048 0.90659 0.0
C131 C 0.07882 0.72523 0.9112 0.0
H132 H 0.08122 0.73582 0.87031 0.0
H133 H 0.12817 0.69834 0.87141 0.0
O134 O 0.1117 0.75306 0.22766 0.0
C135 C 0.13793 0.71194 0.09915 0.0
Co136 Co 0.25691 0.8874 0.85946 0.0
Co137 Co 0.26556 0.88144 0.01572 0.0
C138 C 0.23382 0.86302 0.95416 0.0
O139 O 0.23819 0.87015 0.89484 0.0
O140 O 0.24265 0.86674 0.01058 0.0
C141 C 0.24069 0.89792 0.71429 0.0
O142 O 0.22303 0.89684 0.72499 0.0
C143 C 0.26803 0.87832 0.17043 0.0
C144 C 0.29405 0.89287 0.1881 0.0
C145 C 0.27957 0.88478 0.22311 0.0
N146 N 0.2752 0.88296 0.10755 0.0
N147 N 0.29089 0.89129 0.11834 0.0
C148 C 0.25102 0.86727 0.17844 0.0
H149 H 0.25034 0.85687 0.13596 0.0
H150 H 0.23896 0.87632 0.17316 0.0
H151 H 0.25062 0.86024 0.23051 0.0
C152 C 0.25939 0.92581 0.89863 0.0
N153 N 0.25978 0.90806 0.91512 0.0
N154 N 0.26193 0.90603 0.98362 0.0
C155 C 0.26184 0.92275 0.01406 0.0
C156 C 0.26018 0.93593 0.9609 0.0
C157 C 0.26007 0.93275 0.82392 0.0
H158 H 0.26902 0.92386 0.79156 0.0
H159 H 0.24617 0.93243 0.80074 0.0
H160 H 0.26546 0.94685 0.8215 0.0
O161 O 0.27991 0.87488 0.84906 0.0
O162 O 0.28486 0.86783 0.96129 0.0
H163 H 0.27638 0.92769 0.11022 0.0
H164 H 0.25436 0.93849 0.1062 0.0
C165 C 0.26207 0.92596 0.09243 0.0
H166 H 0.25603 0.91421 0.12082 0.0
H167 H 0.29909 0.89652 0.07794 0.0
O168 O 0.2518 0.89431 0.7635 0.0
C169 C 0.28929 0.86697 0.89605 0.0
Co170 Co 0.11527 0.25629 0.86273 0.0
Co171 Co 0.12419 0.26921 0.01662 0.0
C172 C 0.14137 0.23534 0.95177 0.0
O173 O 0.13209 0.2372 0.89525 0.0
O174 O 0.13979 0.24664 0.00275 0.0
C175 C 0.11199 0.23704 0.73156 0.0
O176 O 0.12025 0.22391 0.76634 0.0
C177 C 0.12387 0.26185 0.16634 0.0
C178 C 0.12694 0.28878 0.21687 0.0
C179 C 0.12495 0.27038 0.2318 0.0
N180 N 0.12532 0.27449 0.11535 0.0
N181 N 0.12721 0.29061 0.14563 0.0
C182 C 0.11971 0.24226 0.15144 0.0
H183 H 0.11283 0.24088 0.09928 0.0
H184 H 0.11089 0.23642 0.19353 0.0
H185 H 0.13264 0.23443 0.14943 0.0
C186 C 0.07744 0.25957 0.91524 0.0
N187 N 0.09561 0.25988 0.92548 0.0
N188 N 0.09915 0.26572 0.98996 0.0
C189 C 0.08321 0.2696 0.02262 0.0
C190 C 0.06892 0.26575 0.97648 0.0
C191 C 0.06873 0.25534 0.84542 0.0
H192 H 0.07348 0.26532 0.80529 0.0
H193 H 0.07317 0.24164 0.82757 0.0
H194 H 0.05363 0.25584 0.84842 0.0
O195 O 0.12946 0.27873 0.8528 0.0
O196 O 0.13491 0.28982 0.96034 0.0
H197 H 0.09022 0.28982 0.09963 0.0
H198 H 0.06744 0.2807 0.11007 0.0
C199 C 0.08173 0.27738 0.09579 0.0
H200 H 0.08697 0.26732 0.13459 0.0
H201 H 0.12846 0.30282 0.11779 0.0
O202 O 0.10719 0.2513 0.76473 0.0
C203 C 0.13623 0.29084 0.89293 0.0
Co204 Co 0.75027 0.11836 0.85859 0.0
Co205 Co 0.73669 0.12215 0.01246 0.0
C206 C 0.77135 0.14002 0.96271 0.0
O207 O 0.77023 0.13221 0.90275 0.0
O208 O 0.759 0.13812 0.00965 0.0
C209 C 0.76688 0.10772 0.71475 0.0
O210 O 0.77919 0.09588 0.73553 0.0
C211 C 0.73911 0.12171 0.16624 0.0
C212 C 0.71056 0.11693 0.1989 0.0
C213 C 0.72802 0.11954 0.22455 0.0
N214 N 0.7288 0.12027 0.10783 0.0
N215 N 0.71173 0.11737 0.12753 0.0
C216 C 0.75921 0.12515 0.16597 0.0
H217 H 0.76575 0.11741 0.12226 0.0
H218 H 0.7655 0.12128 0.21738 0.0
H219 H 0.76165 0.13987 0.15668 0.0
C220 C 0.74587 0.07903 0.88993 0.0
N221 N 0.74526 0.09669 0.90832 0.0
N222 N 0.74142 0.09806 0.97622 0.0
C223 C 0.74062 0.08113 0.00437 0.0
C224 C 0.74345 0.06839 0.9504 0.0
C225 C 0.74688 0.0726 0.81469 0.0
H226 H 0.74075 0.08287 0.77871 0.0
H227 H 0.76133 0.0706 0.79955 0.0
H228 H 0.7396 0.05947 0.80823 0.0
O229 O 0.72831 0.13304 0.85147 0.0
O230 O 0.71633 0.13421 0.95885 0.0
H231 H 0.72402 0.07855 0.09701 0.0
H232 H 0.74369 0.06368 0.09642 0.0
C233 C 0.73861 0.07741 0.08207 0.0
H234 H 0.74641 0.08758 0.11284 0.0
H235 H 0.70088 0.11579 0.09228 0.0
O236 O 0.75638 0.11546 0.75876 0.0
C237 C 0.71565 0.13797 0.89294 0.0
Co238 Co 0.8904 0.74677 0.85205 0.0
Co239 Co 0.88116 0.73412 0.00575 0.0
C240 C 0.86504 0.76855 0.94067 0.0
O241 O 0.87416 0.76627 0.88404 0.0
O242 O 0.86604 0.75705 0.99128 0.0
C243 C 0.89521 0.76637 0.72149 0.0
O244 O 0.88841 0.78027 0.75645 0.0
C245 C 0.88213 0.74225 0.15508 0.0
C246 C 0.87791 0.71575 0.20784 0.0
C247 C 0.88079 0.73411 0.2214 0.0
N248 N 0.87999 0.72941 0.10514 0.0
N249 N 0.87741 0.71357 0.13679 0.0
C250 C 0.88695 0.76159 0.13821 0.0
H251 H 0.89341 0.7625 0.08511 0.0
H252 H 0.89637 0.76723 0.17864 0.0
H253 H 0.87432 0.76993 0.13725 0.0
C254 C 0.92777 0.74535 0.90451 0.0
N255 N 0.90977 0.74337 0.91429 0.0
N256 N 0.9065 0.73769 0.97926 0.0
C257 C 0.92271 0.73583 0.01313 0.0
C258 C 0.93667 0.74079 0.96681 0.0
C259 C 0.93617 0.751 0.83554 0.0
H260 H 0.93119 0.74193 0.79271 0.0
H261 H 0.93178 0.76508 0.82261 0.0
H262 H 0.95127 0.75029 0.83707 0.0
O263 O 0.87739 0.72399 0.84363 0.0
O264 O 0.87014 0.7132 0.94986 0.0
H265 H 0.91535 0.71881 0.10103 0.0
H266 H 0.93898 0.72587 0.10069 0.0
C267 C 0.9248 0.73016 0.08894 0.0
H268 H 0.92136 0.74181 0.12385 0.0
H269 H 0.87553 0.70128 0.11003 0.0
O270 O 0.89839 0.7516 0.75421 0.0
C271 C 0.8703 0.71178 0.88231 0.0
Co272 Co 0.75271 0.61665 0.62739 0.0
Co273 Co 0.76748 0.624 0.47471 0.0
C274 C 0.73212 0.64026 0.52507 0.0
O275 O 0.73307 0.6326 0.58574 0.0
O276 O 0.74448 0.63802 0.47849 0.0
C277 C 0.7401 0.61826 0.76917 0.0
O278 O 0.73661 0.63525 0.75207 0.0
C279 C 0.76652 0.62444 0.31975 0.0
C280 C 0.79513 0.61814 0.29216 0.0
C281 C 0.77794 0.62054 0.26321 0.0
N282 N 0.77647 0.62419 0.37963 0.0
N283 N 0.79363 0.62083 0.36264 0.0
C284 C 0.74613 0.62555 0.3185 0.0
H285 H 0.74038 0.61848 0.36543 0.0
H286 H 0.74039 0.6194 0.26963 0.0
H287 H 0.74198 0.64007 0.32093 0.0
C288 C 0.76209 0.57878 0.58469 0.0
N289 N 0.75943 0.59654 0.5696 0.0
N290 N 0.76352 0.59946 0.50276 0.0
C291 C 0.76748 0.58341 0.47154 0.0
C292 C 0.76717 0.56971 0.52274 0.0
C293 C 0.76243 0.57144 0.65882 0.0
H294 H 0.76779 0.58191 0.69563 0.0
H295 H 0.74835 0.56794 0.67536 0.0
H296 H 0.77119 0.55917 0.663 0.0
O297 O 0.77441 0.63129 0.64547 0.0
O298 O 0.78634 0.63542 0.5384 0.0
H299 H 0.78436 0.58444 0.37891 0.0
H300 H 0.76704 0.56698 0.37619 0.0
C301 C 0.77009 0.58109 0.39326 0.0
H302 H 0.76077 0.59029 0.36427 0.0
H303 H 0.80411 0.61925 0.39959 0.0
O304 O 0.74551 0.60742 0.72124 0.0
C305 C 0.78693 0.63747 0.60569 0.0
Co306 Co 0.38825 0.75022 0.62884 0.0
Co307 Co 0.38222 0.77129 0.48437 0.0
C308 C 0.36421 0.7349 0.52238 0.0
O309 O 0.37358 0.7319 0.57796 0.0
O310 O 0.3661 0.74947 0.48653 0.0
C311 C 0.39898 0.73435 0.78475 0.0
O312 O 0.40758 0.71866 0.78779 0.0
C313 C 0.38061 0.77055 0.3276 0.0
C314 C 0.38667 0.79904 0.29885 0.0
C315 C 0.38329 0.78204 0.26972 0.0
N316 N 0.38264 0.78027 0.38781 0.0
N317 N 0.38616 0.79732 0.37006 0.0
C318 C 0.37503 0.75093 0.3266 0.0
H319 H 0.36185 0.74949 0.35481 0.0
H320 H 0.38535 0.74266 0.35524 0.0
H321 H 0.37309 0.7456 0.27225 0.0
C322 C 0.42647 0.75602 0.59217 0.0
N323 N 0.40869 0.7578 0.57724 0.0
N324 N 0.40669 0.76552 0.51474 0.0
C325 C 0.42344 0.76804 0.48613 0.0
C326 C 0.43657 0.76201 0.53444 0.0
C327 C 0.43347 0.74993 0.66298 0.0
H328 H 0.42555 0.75671 0.70557 0.0
H329 H 0.43157 0.73501 0.66827 0.0
H330 H 0.44807 0.75337 0.67026 0.0
O331 O 0.37256 0.7709 0.64511 0.0
O332 O 0.36979 0.78909 0.55154 0.0
H333 H 0.42347 0.7895 0.40964 0.0
H334 H 0.44087 0.77245 0.39468 0.0
C335 C 0.42662 0.77474 0.41217 0.0
H336 H 0.41736 0.76756 0.37514 0.0
H337 H 0.3885 0.80773 0.40657 0.0
O338 O 0.39467 0.74077 0.72438 0.0
C339 C 0.36618 0.78515 0.61617 0.0
Co340 Co 0.24709 0.39013 0.64037 0.0
Co341 Co 0.2353 0.38065 0.48391 0.0
C342 C 0.2674 0.3623 0.55316 0.0
O343 O 0.26479 0.3714 0.60962 0.0
O344 O 0.25722 0.36455 0.49913 0.0
C345 C 0.26751 0.39203 0.76873 0.0
O346 O 0.27982 0.38354 0.73042 0.0
C347 C 0.24265 0.37971 0.33252 0.0
C348 C 0.2154 0.38138 0.28326 0.0
C349 C 0.23385 0.38071 0.26772 0.0
N350 N 0.23007 0.37981 0.38433 0.0
N351 N 0.21376 0.38066 0.35457 0.0
C352 C 0.26277 0.38037 0.34539 0.0
H353 H 0.26569 0.38754 0.39593 0.0
H354 H 0.2699 0.38733 0.3011 0.0
H355 H 0.26806 0.36625 0.34942 0.0
C356 C 0.24714 0.4275 0.58275 0.0
N357 N 0.24522 0.40937 0.57531 0.0
N358 N 0.23989 0.40563 0.51019 0.0
C359 C 0.23825 0.42145 0.47416 0.0
C360 C 0.24277 0.43579 0.51886 0.0
C361 C 0.25341 0.43651 0.64954 0.0
H362 H 0.26481 0.42862 0.67306 0.0
H363 H 0.25783 0.45074 0.63977 0.0
H364 H 0.24202 0.43658 0.68833 0.0
O365 O 0.22316 0.37881 0.64884 0.0
O366 O 0.21423 0.37051 0.5407 0.0
H367 H 0.22863 0.43739 0.38485 0.0
H368 H 0.24179 0.41741 0.36269 0.0
C369 C 0.23144 0.42303 0.39956 0.0
H370 H 0.21869 0.41512 0.39381 0.0
H371 H 0.20155 0.38124 0.38291 0.0
O372 O 0.25312 0.3979 0.73875 0.0
C373 C 0.21162 0.37147 0.60764 0.0
Co374 Co 0.61763 0.25365 0.63548 0.0
Co375 Co 0.62337 0.23478 0.48481 0.0
C376 C 0.64274 0.2697 0.52768 0.0
O377 O 0.63567 0.27007 0.5893 0.0
O378 O 0.6389 0.25711 0.48367 0.0
C379 C 0.60601 0.27146 0.78732 0.0
O380 O 0.59763 0.2872 0.79389 0.0
C381 C 0.62502 0.23428 0.32724 0.0
C382 C 0.61854 0.20574 0.30135 0.0
C383 C 0.62217 0.22249 0.27044 0.0
N384 N 0.62282 0.22504 0.38857 0.0
N385 N 0.61909 0.20793 0.37244 0.0
C386 C 0.63121 0.25365 0.32399 0.0
H387 H 0.64446 0.25475 0.35185 0.0
H388 H 0.62118 0.26244 0.35181 0.0
H389 H 0.6333 0.25856 0.26908 0.0
C390 C 0.57929 0.25124 0.59011 0.0
N391 N 0.59715 0.24886 0.57695 0.0
N392 N 0.59916 0.24108 0.51443 0.0
C393 C 0.58247 0.23866 0.48529 0.0
C394 C 0.56933 0.24502 0.53248 0.0
C395 C 0.5719 0.25824 0.65893 0.0
H396 H 0.57825 0.25064 0.70339 0.0
H397 H 0.57551 0.27283 0.66468 0.0
H398 H 0.55689 0.25667 0.66237 0.0
O399 O 0.62874 0.23038 0.65793 0.0
O400 O 0.63384 0.21637 0.55462 0.0
H401 H 0.58346 0.21665 0.41148 0.0
H402 H 0.56471 0.23219 0.39694 0.0
C403 C 0.57925 0.23115 0.41262 0.0
H404 H 0.5877 0.23867 0.37365 0.0
H405 H 0.61661 0.19778 0.40997 0.0
O406 O 0.60984 0.26595 0.72501 0.0
C407 C 0.63446 0.21678 0.62256 0.0
Co408 Co 0.75377 0.393 0.35402 0.0
Co409 Co 0.76857 0.38234 0.50623 0.0
C410 C 0.73367 0.36644 0.44593 0.0
O411 O 0.73527 0.37598 0.38989 0.0
O412 O 0.74543 0.36746 0.49574 0.0
C413 C 0.73699 0.39226 0.21858 0.0
O414 O 0.72569 0.38144 0.25215 0.0
C415 C 0.76553 0.38364 0.66173 0.0
C416 C 0.79325 0.37612 0.69659 0.0
C417 C 0.77613 0.38087 0.72162 0.0
N418 N 0.77594 0.38094 0.60384 0.0
N419 N 0.79257 0.37662 0.62515 0.0
C420 C 0.74552 0.38748 0.65937 0.0
H421 H 0.74165 0.39325 0.60706 0.0
H422 H 0.74161 0.39699 0.70248 0.0
H423 H 0.73799 0.37455 0.66748 0.0
C424 C 0.75886 0.42983 0.40877 0.0
N425 N 0.75834 0.41173 0.41851 0.0
N426 N 0.76502 0.40765 0.48145 0.0
C427 C 0.77007 0.42329 0.51372 0.0
C428 C 0.76636 0.43779 0.46856 0.0
C429 C 0.75344 0.43907 0.34127 0.0
H430 H 0.74083 0.43277 0.3201 0.0
H431 H 0.75119 0.45387 0.34962 0.0
H432 H 0.76443 0.43717 0.30143 0.0
O433 O 0.77641 0.37975 0.34089 0.0
O434 O 0.78831 0.37127 0.44389 0.0
H435 H 0.78605 0.43795 0.59166 0.0
H436 H 0.77082 0.42093 0.62656 0.0
C437 C 0.78025 0.42421 0.58242 0.0
H438 H 0.79143 0.41403 0.58242 0.0
H439 H 0.80336 0.37369 0.59092 0.0
O440 O 0.7485 0.40124 0.25475 0.0
C441 C 0.78892 0.37198 0.37621 0.0
Co442 Co 0.616 0.76029 0.3601 0.0
Co443 Co 0.6247 0.7692 0.5175 0.0
C444 C 0.63988 0.73574 0.4477 0.0
O445 O 0.63172 0.73963 0.39006 0.0
O446 O 0.63834 0.74596 0.50184 0.0
C447 C 0.6092 0.74058 0.23229 0.0
O448 O 0.61421 0.7263 0.2695 0.0
C449 C 0.62394 0.76124 0.66649 0.0
C450 C 0.62878 0.78787 0.71755 0.0
C451 C 0.62564 0.76961 0.73204 0.0
N452 N 0.62609 0.77388 0.61593 0.0
N453 N 0.62908 0.78979 0.64645 0.0
C454 C 0.61879 0.74192 0.65098 0.0
H455 H 0.61212 0.74093 0.5983 0.0
H456 H 0.60943 0.73655 0.69225 0.0
H457 H 0.63129 0.73339 0.64988 0.0
C458 C 0.57819 0.7635 0.41124 0.0
N459 N 0.59631 0.76401 0.42179 0.0
N460 N 0.5997 0.76783 0.48867 0.0
C461 C 0.58365 0.76986 0.52288 0.0
C462 C 0.56954 0.76727 0.47486 0.0
C463 C 0.56946 0.75839 0.34237 0.0
H464 H 0.57383 0.76812 0.30066 0.0
H465 H 0.57422 0.74465 0.32637 0.0
H466 H 0.55436 0.75846 0.34612 0.0
O467 O 0.63071 0.78249 0.35392 0.0
O468 O 0.63758 0.78888 0.46588 0.0
H469 H 0.59129 0.78492 0.61561 0.0
H470 H 0.56753 0.77841 0.61291 0.0
C471 C 0.58165 0.77402 0.60018 0.0
H472 H 0.58482 0.76164 0.63152 0.0
H473 H 0.6311 0.80194 0.61885 0.0
O474 O 0.60785 0.75595 0.26258 0.0
C475 C 0.63856 0.79241 0.3998 0.0
Co476 Co 0.24998 0.61914 0.36273 0.0
Co477 Co 0.23545 0.6221 0.51705 0.0
C478 C 0.26769 0.64387 0.46382 0.0
O479 O 0.26829 0.63576 0.40435 0.0
O480 O 0.25529 0.64047 0.50906 0.0
C481 C 0.26915 0.6085 0.22888 0.0
O482 O 0.28318 0.60171 0.26323 0.0
C483 C 0.24195 0.62008 0.66803 0.0
C484 C 0.21454 0.61576 0.7136 0.0
C485 C 0.23284 0.61698 0.73112 0.0
N486 N 0.22969 0.62032 0.61521 0.0
N487 N 0.21328 0.61797 0.64271 0.0
C488 C 0.26199 0.6229 0.65724 0.0
H489 H 0.26668 0.6151 0.61022 0.0
H490 H 0.27008 0.61901 0.70448 0.0
H491 H 0.26447 0.63754 0.64642 0.0
C492 C 0.2481 0.57989 0.39461 0.0
N493 N 0.24706 0.59743 0.41428 0.0
N494 N 0.24264 0.59843 0.48175 0.0
C495 C 0.24209 0.58133 0.50862 0.0
C496 C 0.24553 0.56891 0.454 0.0
C497 C 0.2486 0.57388 0.31865 0.0
H498 H 0.24137 0.58391 0.28479 0.0
H499 H 0.26295 0.57288 0.30067 0.0
H500 H 0.24198 0.56042 0.31193 0.0
O501 O 0.22633 0.63079 0.35622 0.0
O502 O 0.21366 0.6316 0.4632 0.0
H503 H 0.22455 0.57874 0.59877 0.0
H504 H 0.2438 0.56323 0.59948 0.0
C505 C 0.2392 0.57715 0.58555 0.0
H506 H 0.24712 0.58675 0.61831 0.0
H507 H 0.20129 0.61741 0.61296 0.0
O508 O 0.25578 0.6152 0.26259 0.0
C509 C 0.21304 0.63455 0.39655 0.0
Co510 Co 0.38805 0.25458 0.36711 0.0
Co511 Co 0.38205 0.23352 0.51128 0.0
C512 C 0.36283 0.26962 0.47287 0.0
O513 O 0.37082 0.27173 0.41342 0.0
O514 O 0.36613 0.25579 0.51188 0.0
C515 C 0.40084 0.2695 0.21265 0.0
O516 O 0.41389 0.28169 0.21652 0.0
C517 C 0.38537 0.23512 0.6661 0.0
C518 C 0.37713 0.2076 0.70003 0.0
C519 C 0.38235 0.22449 0.72581 0.0
N520 N 0.3822 0.22499 0.60782 0.0
N521 N 0.37747 0.20847 0.62855 0.0
C522 C 0.38949 0.25506 0.6644 0.0
H523 H 0.39128 0.2599 0.60911 0.0
H524 H 0.40214 0.25787 0.69461 0.0
H525 H 0.37823 0.26268 0.69025 0.0
C526 C 0.42658 0.25164 0.4129 0.0
N527 N 0.40866 0.24889 0.42355 0.0
N528 N 0.40641 0.23935 0.48214 0.0
C529 C 0.42299 0.23567 0.51014 0.0
C530 C 0.43629 0.24335 0.46714 0.0
C531 C 0.43424 0.26166 0.35066 0.0
H532 H 0.43043 0.25435 0.30138 0.0
H533 H 0.42816 0.27549 0.34844 0.0
H534 H 0.44931 0.26268 0.35326 0.0
O535 O 0.37548 0.23186 0.34871 0.0
O536 O 0.37118 0.21488 0.44442 0.0
H537 H 0.41646 0.21392 0.58173 0.0
H538 H 0.44029 0.22041 0.5815 0.0
C539 C 0.42607 0.22552 0.57791 0.0
H540 H 0.42356 0.23479 0.62327 0.0
H541 H 0.3739 0.19796 0.594 0.0
O542 O 0.39453 0.26244 0.26917 0.0
C543 C 0.36977 0.21733 0.37754 0.0
H544 H 0.25818 0.1396 0.67279 0.0
H545 H 0.28402 0.08682 0.69337 0.0
H546 H 0.27326 0.07843 0.57291 0.0
H547 H 0.21864 0.12614 0.57008 0.0
H548 H 0.21928 0.14598 0.51377 0.0
H549 H 0.22772 0.14727 0.60342 0.0
H550 H 0.25904 0.15877 0.55753 0.0
H551 H 0.25056 0.15785 0.46806 0.0
H552 H 0.27105 0.14568 0.4914 0.0
H553 H 0.26134 0.07678 0.44755 0.0
H554 H 0.25145 0.08283 0.32436 0.0
H555 H 0.23343 0.13679 0.38638 0.0
C556 C 0.26137 0.12624 0.65184 0.0
C557 C 0.27177 0.11375 0.69155 0.0
C558 C 0.27605 0.09649 0.66292 0.0
C559 C 0.2699 0.09161 0.59505 0.0
C560 C 0.25963 0.10424 0.55677 0.0
C561 C 0.25559 0.12129 0.58385 0.0
C562 C 0.24582 0.13296 0.52973 0.0
C563 C 0.22673 0.1384 0.55584 0.0
C564 C 0.2573 0.14981 0.51057 0.0
C565 C 0.24479 0.11982 0.46818 0.0
C566 C 0.25279 0.1033 0.48475 0.0
C567 C 0.25484 0.08958 0.43428 0.0
C568 C 0.24916 0.09312 0.36454 0.0
C569 C 0.24151 0.11022 0.34612 0.0
C570 C 0.23879 0.12345 0.39925 0.0
H571 H 0.87818 0.2857 0.63684 0.0
H572 H 0.90704 0.24153 0.74068 0.0
H573 H 0.91383 0.22778 0.62431 0.0
H574 H 0.85835 0.2608 0.49791 0.0
H575 H 0.8619 0.27783 0.43051 0.0
H576 H 0.85943 0.28455 0.52178 0.0
H577 H 0.89042 0.30132 0.51757 0.0
H578 H 0.89289 0.295 0.42574 0.0
H579 H 0.9105 0.28924 0.4886 0.0
H580 H 0.91543 0.21765 0.49636 0.0
H581 H 0.91418 0.21369 0.36571 0.0
H582 H 0.88669 0.2659 0.34735 0.0
C583 C 0.88596 0.27316 0.63494 0.0
C584 C 0.89124 0.26415 0.69766 0.0
C585 C 0.90189 0.24807 0.69326 0.0
C586 C 0.90607 0.24029 0.62741 0.0
C587 C 0.90006 0.24914 0.5665 0.0
C588 C 0.89056 0.26542 0.56961 0.0
C589 C 0.88594 0.27234 0.49629 0.0
C590 C 0.86518 0.27396 0.48607 0.0
C591 C 0.89552 0.29055 0.48118 0.0
C592 C 0.89388 0.25715 0.45183 0.0
C593 C 0.90196 0.24387 0.49301 0.0
C594 C 0.90939 0.22809 0.46334 0.0
C595 C 0.90858 0.22592 0.38935 0.0
C596 C 0.90053 0.23953 0.34649 0.0
C597 C 0.89321 0.25533 0.37849 0.0
H598 H 0.782 0.90747 0.42378 0.0
H599 H 0.73589 0.88997 0.29683 0.0
H600 H 0.7187 0.88307 0.40665 0.0
H601 H 0.77734 0.87294 0.5572 0.0
H602 H 0.78432 0.8876 0.62879 0.0
H603 H 0.79273 0.89154 0.54031 0.0
H604 H 0.78054 0.92468 0.54436 0.0
H605 H 0.77225 0.92089 0.63304 0.0
H606 H 0.75687 0.92872 0.56488 0.0
H607 H 0.70682 0.87755 0.53228 0.0
H608 H 0.70145 0.87373 0.66102 0.0
H609 H 0.75493 0.89634 0.70402 0.0
C610 C 0.76824 0.9023 0.41887 0.0
C611 C 0.7603 0.89931 0.35153 0.0
C612 C 0.7423 0.89235 0.34774 0.0
C613 C 0.73242 0.88842 0.40989 0.0
C614 C 0.74073 0.89145 0.47546 0.0
C615 C 0.75825 0.89824 0.48018 0.0
C616 C 0.76432 0.89986 0.55676 0.0
C617 C 0.78065 0.88724 0.57162 0.0
C618 C 0.76874 0.91972 0.57587 0.0
C619 C 0.74738 0.89324 0.59469 0.0
C620 C 0.73397 0.88828 0.54701 0.0
C621 C 0.71728 0.88135 0.56992 0.0
C622 C 0.71436 0.87924 0.64324 0.0
C623 C 0.72801 0.88403 0.6931 0.0
C624 C 0.74454 0.89156 0.66793 0.0
H625 H 0.10261 0.73991 0.34644 0.0
H626 H 0.12795 0.79327 0.3553 0.0
H627 H 0.13062 0.79044 0.48535 0.0
H628 H 0.07758 0.74341 0.5173 0.0
H629 H 0.0814 0.71974 0.53777 0.0
H630 H 0.07946 0.72697 0.44669 0.0
H631 H 0.1108 0.71223 0.41949 0.0
H632 H 0.11303 0.70523 0.51056 0.0
H633 H 0.1305 0.719 0.47009 0.0
H634 H 0.13409 0.78029 0.61089 0.0
H635 H 0.13573 0.7647 0.72618 0.0
H636 H 0.10749 0.71812 0.63749 0.0
C637 C 0.10834 0.75121 0.3758 0.0
C638 C 0.1151 0.76683 0.34062 0.0
C639 C 0.12264 0.78121 0.38103 0.0
C640 C 0.12424 0.77971 0.45492 0.0
C641 C 0.11809 0.76383 0.48753 0.0
C642 C 0.11005 0.74993 0.4495 0.0
C643 C 0.10546 0.73389 0.49692 0.0
C644 C 0.08474 0.73083 0.49984 0.0
C645 C 0.11556 0.71657 0.47282 0.0
C646 C 0.11266 0.74076 0.56729 0.0
C647 C 0.11978 0.75809 0.56064 0.0
C648 C 0.12807 0.76695 0.61729 0.0
C649 C 0.12877 0.75803 0.68288 0.0
C650 C 0.12108 0.74049 0.69164 0.0
C651 C 0.11318 0.73166 0.63264 0.0
H652 H 0.24685 0.88715 0.29576 0.0
H653 H 0.30568 0.88656 0.32421 0.0
H654 H 0.30149 0.89299 0.45133 0.0
H655 H 0.2358 0.92138 0.41815 0.0
H656 H 0.21571 0.91038 0.45259 0.0
H657 H 0.22293 0.90607 0.36276 0.0
H658 H 0.22418 0.87136 0.38746 0.0
H659 H 0.21643 0.87552 0.47666 0.0
H660 H 0.23726 0.86304 0.46171 0.0
H661 H 0.2914 0.90129 0.57034 0.0
H662 H 0.27617 0.90448 0.68478 0.0
H663 H 0.22352 0.89601 0.5838 0.0
C664 C 0.25888 0.88758 0.3287 0.0
C665 C 0.27663 0.88598 0.30011 0.0
C666 C 0.29197 0.8877 0.34513 0.0
C667 C 0.28974 0.89143 0.41717 0.0
C668 C 0.2721 0.89318 0.44319 0.0
C669 C 0.25692 0.8908 0.40112 0.0
C670 C 0.23949 0.89248 0.44379 0.0
C671 C 0.2278 0.90854 0.41774 0.0
C672 C 0.22871 0.87453 0.44234 0.0
C673 C 0.24733 0.89621 0.51652 0.0
C674 C 0.26616 0.89697 0.51403 0.0
C675 C 0.27669 0.90048 0.5734 0.0
C676 C 0.26782 0.90232 0.63814 0.0
C677 C 0.24862 0.90018 0.64333 0.0
C678 C 0.23817 0.89771 0.58136 0.0
H679 H 0.09947 0.26393 0.64265 0.0
H680 H 0.12538 0.2107 0.6433 0.0
H681 H 0.13054 0.21318 0.51449 0.0
H682 H 0.07768 0.25953 0.46562 0.0
H683 H 0.08155 0.28316 0.44465 0.0
H684 H 0.07809 0.27629 0.53546 0.0
H685 H 0.10867 0.29148 0.56987 0.0
H686 H 0.11244 0.2981 0.47912 0.0
H687 H 0.12932 0.2847 0.52514 0.0
H688 H 0.13641 0.22293 0.39033 0.0
H689 H 0.13954 0.23783 0.27407 0.0
H690 H 0.10891 0.28436 0.35142 0.0
C691 C 0.10582 0.25259 0.61547 0.0
C692 C 0.11202 0.2371 0.65314 0.0
C693 C 0.12044 0.22265 0.61564 0.0
C694 C 0.12349 0.22396 0.54248 0.0
C695 C 0.11788 0.23971 0.50754 0.0
C696 C 0.10894 0.25365 0.54239 0.0
C697 C 0.10501 0.26942 0.49276 0.0
C698 C 0.08435 0.27226 0.4841 0.0
C699 C 0.11443 0.28695 0.51826 0.0
C700 C 0.11355 0.26233 0.42499 0.0
C701 C 0.12086 0.24516 0.43485 0.0
C702 C 0.13027 0.23613 0.38128 0.0
C703 C 0.13185 0.24466 0.31519 0.0
C704 C 0.12386 0.26194 0.30289 0.0
C705 C 0.11489 0.27101 0.35903 0.0
H706 H 0.76698 0.08579 0.59665 0.0
H707 H 0.76111 0.14171 0.66719 0.0
H708 H 0.75148 0.15088 0.5474 0.0
H709 H 0.78268 0.09662 0.41222 0.0
H710 H 0.76987 0.07807 0.3745 0.0
H711 H 0.77876 0.07625 0.46338 0.0
H712 H 0.74625 0.06926 0.50963 0.0
H713 H 0.73719 0.07142 0.42127 0.0
H714 H 0.72805 0.08517 0.49208 0.0
H715 H 0.73941 0.15365 0.42625 0.0
H716 H 0.72778 0.1501 0.30367 0.0
H717 H 0.74103 0.09262 0.30959 0.0
C718 C 0.76432 0.10003 0.58578 0.0
C719 C 0.76495 0.11312 0.64034 0.0
C720 C 0.76079 0.13156 0.62548 0.0
C721 C 0.75529 0.1369 0.55781 0.0
C722 C 0.75405 0.12361 0.50565 0.0
C723 C 0.75865 0.10561 0.51818 0.0
C724 C 0.75485 0.09397 0.45354 0.0
C725 C 0.7726 0.08575 0.42416 0.0
C726 C 0.74074 0.07908 0.47017 0.0
C727 C 0.7471 0.1082 0.40373 0.0
C728 C 0.74681 0.1252 0.43499 0.0
C729 C 0.73972 0.14046 0.4007 0.0
C730 C 0.73304 0.13834 0.33174 0.0
C731 C 0.73348 0.12112 0.29869 0.0
C732 C 0.74052 0.10586 0.33479 0.0
H733 H 0.90483 0.73829 0.63349 0.0
H734 H 0.88531 0.79416 0.63249 0.0
H735 H 0.88058 0.79227 0.50308 0.0
H736 H 0.9279 0.73958 0.45947 0.0
H737 H 0.92114 0.71662 0.43844 0.0
H738 H 0.92483 0.72313 0.52946 0.0
H739 H 0.89229 0.71212 0.56098 0.0
H740 H 0.88834 0.70585 0.46999 0.0
H741 H 0.87302 0.72141 0.51387 0.0
H742 H 0.87415 0.78303 0.37812 0.0
H743 H 0.86971 0.76834 0.2623 0.0
H744 H 0.89463 0.71882 0.34261 0.0
C745 C 0.89999 0.7503 0.60592 0.0
C746 C 0.89545 0.76641 0.64314 0.0
C747 C 0.88895 0.78172 0.6051 0.0
C748 C 0.88616 0.78075 0.53163 0.0
C749 C 0.89008 0.76443 0.49711 0.0
C750 C 0.89712 0.74957 0.53273 0.0
C751 C 0.89933 0.73335 0.48381 0.0
C752 C 0.9195 0.72786 0.4774 0.0
C753 C 0.88754 0.71724 0.50866 0.0
C754 C 0.89221 0.74137 0.41515 0.0
C755 C 0.8869 0.75928 0.42416 0.0
C756 C 0.87882 0.76921 0.36972 0.0
C757 C 0.87653 0.76078 0.30372 0.0
C758 C 0.88259 0.74269 0.2922 0.0
C759 C 0.89022 0.73279 0.34928 0.0
H760 H 0.7578 0.64152 0.17321 0.0
H761 H 0.78595 0.58978 0.18915 0.0
H762 H 0.77564 0.5817 0.068 0.0
H763 H 0.71889 0.62604 0.06953 0.0
H764 H 0.71813 0.64633 0.01582 0.0
H765 H 0.72651 0.64744 0.10562 0.0
H766 H 0.75695 0.66144 0.06117 0.0
H767 H 0.74847 0.66071 0.97168 0.0
H768 H 0.76978 0.64978 0.99333 0.0
H769 H 0.76294 0.57978 0.94431 0.0
H770 H 0.75264 0.58577 0.82202 0.0
H771 H 0.73349 0.63925 0.88624 0.0
C772 C 0.76163 0.62845 0.15112 0.0
C773 C 0.77249 0.61616 0.19005 0.0
C774 C 0.77763 0.59933 0.15959 0.0
C775 C 0.77169 0.59457 0.09134 0.0
C776 C 0.76077 0.60691 0.05442 0.0
C777 C 0.75603 0.62361 0.08284 0.0
C778 C 0.74552 0.63505 0.03007 0.0
C779 C 0.72611 0.63894 0.05688 0.0
C780 C 0.7558 0.65278 0.01306 0.0
C781 C 0.74531 0.6223 0.96709 0.0
C782 C 0.75388 0.60601 0.98258 0.0
C783 C 0.75614 0.59246 0.93166 0.0
C784 C 0.75019 0.59598 0.86232 0.0
C785 C 0.74234 0.61305 0.84443 0.0
C786 C 0.73932 0.62605 0.89825 0.0
H787 H 0.39812 0.75207 0.20268 0.0
H788 H 0.36969 0.80281 0.16199 0.0
H789 H 0.37024 0.79624 0.03315 0.0
H790 H 0.42694 0.75244 0.05286 0.0
H791 H 0.42539 0.72832 0.03638 0.0
H792 H 0.42255 0.73694 0.12508 0.0
H793 H 0.39105 0.72115 0.13398 0.0
H794 H 0.39386 0.71237 0.0454 0.0
H795 H 0.37399 0.7257 0.0674 0.0
H796 H 0.37418 0.784 0.90787 0.0
H797 H 0.38142 0.76732 0.79746 0.0
H798 H 0.40625 0.72412 0.92178 0.0
C799 C 0.3915 0.76155 0.16701 0.0
C800 C 0.38332 0.77769 0.19267 0.0
C801 C 0.3758 0.79024 0.14356 0.0
C802 C 0.37601 0.7866 0.07035 0.0
C803 C 0.38385 0.77036 0.04698 0.0
C804 C 0.39141 0.75802 0.09396 0.0
C805 C 0.39909 0.74162 0.05538 0.0
C806 C 0.41972 0.73973 0.0682 0.0
C807 C 0.38889 0.72418 0.07682 0.0
C808 C 0.39501 0.7468 0.97925 0.0
C809 C 0.38613 0.76338 0.97538 0.0
C810 C 0.3811 0.77099 0.91041 0.0
C811 C 0.38528 0.7614 0.84793 0.0
C812 C 0.39443 0.74439 0.85079 0.0
C813 C 0.39927 0.73707 0.91758 0.0
H814 H 0.22805 0.40497 0.15938 0.0
H815 H 0.25852 0.35654 0.21662 0.0
H816 H 0.27296 0.35628 0.09813 0.0
H817 H 0.21836 0.39406 0.98292 0.0
H818 H 0.222 0.41659 0.94762 0.0
H819 H 0.21514 0.41378 0.03856 0.0
H820 H 0.24331 0.43232 0.07923 0.0
H821 H 0.25032 0.43503 0.98812 0.0
H822 H 0.26576 0.4252 0.0519 0.0
H823 H 0.28295 0.36032 0.97325 0.0
H824 H 0.28625 0.36697 0.84594 0.0
H825 H 0.24922 0.4128 0.86737 0.0
C826 C 0.23782 0.3944 0.14669 0.0
C827 C 0.24231 0.3808 0.19673 0.0
C828 C 0.25515 0.36717 0.17898 0.0
C829 C 0.26342 0.36695 0.11203 0.0
C830 C 0.2589 0.38064 0.06395 0.0
C831 C 0.24646 0.39416 0.0803 0.0
C832 C 0.24375 0.40697 0.01796 0.0
C833 C 0.22362 0.40788 0.99543 0.0
C834 C 0.25122 0.42601 0.03535 0.0
C835 C 0.25549 0.39767 0.9625 0.0
C836 C 0.26459 0.38289 0.99105 0.0
C837 C 0.27604 0.37195 0.95038 0.0
C838 C 0.27789 0.37591 0.87809 0.0
C839 C 0.26803 0.39044 0.84683 0.0
C840 C 0.25697 0.40166 0.89 0.0
H841 H 0.60727 0.25225 0.20328 0.0
H842 H 0.6353 0.20136 0.16201 0.0
H843 H 0.6345 0.20793 0.03289 0.0
H844 H 0.57812 0.25192 0.05375 0.0
H845 H 0.57969 0.27609 0.03822 0.0
H846 H 0.58255 0.26721 0.12654 0.0
H847 H 0.61409 0.28296 0.13578 0.0
H848 H 0.61125 0.29197 0.04758 0.0
H849 H 0.63111 0.27857 0.0689 0.0
H850 H 0.6304 0.22062 0.90616 0.0
H851 H 0.62327 0.238 0.79674 0.0
H852 H 0.59903 0.28073 0.92473 0.0
C853 C 0.61371 0.2427 0.16741 0.0
C854 C 0.62189 0.22655 0.193 0.0
C855 C 0.62919 0.21394 0.14365 0.0
C856 C 0.62883 0.21758 0.07026 0.0
C857 C 0.62103 0.23387 0.04697 0.0
C858 C 0.61363 0.24621 0.09438 0.0
C859 C 0.60599 0.2627 0.05649 0.0
C860 C 0.58536 0.26458 0.06953 0.0
C861 C 0.61622 0.28008 0.0785 0.0
C862 C 0.61001 0.25769 0.98023 0.0
C863 C 0.61872 0.24104 0.97538 0.0
C864 C 0.62362 0.23369 0.90966 0.0
C865 C 0.61951 0.24364 0.84769 0.0
C866 C 0.61058 0.26073 0.85187 0.0
C867 C 0.60586 0.26772 0.91931 0.0
H868 H 0.74105 0.41547 0.10321 0.0
H869 H 0.7439 0.35887 0.16833 0.0
H870 H 0.75418 0.35016 0.04875 0.0
H871 H 0.72338 0.4053 0.92417 0.0
H872 H 0.73581 0.42353 0.88235 0.0
H873 H 0.7287 0.42562 0.97353 0.0
H874 H 0.76207 0.43183 0.01074 0.0
H875 H 0.76932 0.42965 0.91983 0.0
H876 H 0.7796 0.41566 0.98754 0.0
H877 H 0.76616 0.34755 0.92725 0.0
H878 H 0.77605 0.35065 0.80253 0.0
H879 H 0.76312 0.40825 0.80828 0.0
C880 C 0.74368 0.40126 0.09162 0.0
C881 C 0.74161 0.38777 0.14455 0.0
C882 C 0.74519 0.36933 0.12806 0.0
C883 C 0.75113 0.36426 0.06049 0.0
C884 C 0.7531 0.37776 0.00935 0.0
C885 C 0.74918 0.39584 0.02323 0.0
C886 C 0.75198 0.40737 0.95711 0.0
C887 C 0.73389 0.41596 0.93286 0.0
C888 C 0.76662 0.42199 0.96957 0.0
C889 C 0.75848 0.39297 0.90486 0.0
C890 C 0.75914 0.37604 0.93675 0.0
C891 C 0.76544 0.36066 0.90114 0.0
C892 C 0.77106 0.36253 0.83058 0.0
C893 C 0.77006 0.37957 0.79606 0.0
C894 C 0.76369 0.39501 0.83353 0.0
H895 H 0.59957 0.76782 0.14103 0.0
H896 H 0.61926 0.71204 0.1473 0.0
H897 H 0.62447 0.71302 0.01799 0.0
H898 H 0.5773 0.76516 0.96509 0.0
H899 H 0.58404 0.78804 0.94251 0.0
H900 H 0.57981 0.78205 0.03376 0.0
H901 H 0.61208 0.79354 0.06714 0.0
H902 H 0.61657 0.79923 0.97596 0.0
H903 H 0.6317 0.78407 0.02285 0.0
H904 H 0.63154 0.72149 0.8926 0.0
H905 H 0.63657 0.7356 0.77575 0.0
H906 H 0.61122 0.78549 0.85016 0.0
C907 C 0.60454 0.75564 0.11503 0.0
C908 C 0.60901 0.73984 0.15417 0.0
C909 C 0.61563 0.72425 0.11828 0.0
C910 C 0.61871 0.7247 0.04494 0.0
C911 C 0.6149 0.74077 0.00851 0.0
C912 C 0.60766 0.75585 0.04207 0.0
C913 C 0.60566 0.77175 0.99157 0.0
C914 C 0.5855 0.77706 0.9827 0.0
C915 C 0.61719 0.7881 0.01585 0.0
C916 C 0.61324 0.76334 0.92456 0.0
C917 C 0.61851 0.74549 0.9355 0.0
C918 C 0.62693 0.73527 0.88267 0.0
C919 C 0.62959 0.74336 0.81624 0.0
C920 C 0.62359 0.76138 0.80302 0.0
C921 C 0.61563 0.77157 0.8584 0.0
H922 H 0.2478 0.62963 0.14518 0.0
H923 H 0.28728 0.58561 0.13716 0.0
H924 H 0.28247 0.58312 0.00722 0.0
H925 H 0.21653 0.6118 0.02264 0.0
H926 H 0.21097 0.63349 0.98337 0.0
H927 H 0.21834 0.63237 0.07433 0.0
H928 H 0.24436 0.65517 0.04756 0.0
H929 H 0.237 0.65652 0.95654 0.0
H930 H 0.26021 0.65035 0.9769 0.0
H931 H 0.27198 0.58463 0.87957 0.0
H932 H 0.25789 0.59093 0.76272 0.0
H933 H 0.22539 0.63399 0.85628 0.0
C934 C 0.25557 0.61953 0.11612 0.0
C935 C 0.26792 0.60777 0.15096 0.0
C936 C 0.27788 0.59482 0.11116 0.0
C937 C 0.27515 0.59328 0.0376 0.0
C938 C 0.26259 0.60492 0.0052 0.0
C939 C 0.25311 0.61791 0.0432 0.0
C940 C 0.24026 0.62869 -0.00352 0.0
C941 C 0.22035 0.62644 0.02066 0.0
C942 C 0.2458 0.64888 0.99423 0.0
C943 C 0.24366 0.61948 0.92607 0.0
C944 C 0.25666 0.60587 0.93208 0.0
C945 C 0.26196 0.59538 0.87412 0.0
C946 C 0.25396 0.59907 0.80817 0.0
C947 C 0.24088 0.61313 0.80095 0.0
C948 C 0.23548 0.62326 0.86073 0.0
H949 H 0.41918 0.2698 0.08525 0.0
H950 H 0.36829 0.25326 0.18332 0.0
H951 H 0.35794 0.24051 0.06907 0.0
H952 H 0.40155 0.28196 0.91268 0.0
H953 H 0.42063 0.27243 0.86505 0.0
H954 H 0.42373 0.28096 0.9538 0.0
H955 H 0.43688 0.24977 0.99261 0.0
H956 H 0.43377 0.2411 0.90405 0.0
H957 H 0.42367 0.22942 0.97837 0.0
H958 H 0.35345 0.22869 0.94553 0.0
H959 H 0.35496 0.21895 0.82005 0.0
H960 H 0.40891 0.24254 0.80185 0.0
C961 C 0.40576 0.26373 0.08234 0.0
C962 C 0.39445 0.26268 0.143 0.0
C963 C 0.37715 0.25425 0.13749 0.0
C964 C 0.37115 0.24698 0.07281 0.0
C965 C 0.38267 0.24806 0.01419 0.0
C966 C 0.39964 0.25615 0.0183 0.0
C967 C 0.4097 0.2547 0.94814 0.0
C968 C 0.41416 0.27365 0.91816 0.0
C969 C 0.42703 0.24306 0.95629 0.0
C970 C 0.39553 0.245 0.9034 0.0
C971 C 0.38012 0.24114 0.94285 0.0
C972 C 0.3654 0.23173 0.91401 0.0
C973 C 0.36639 0.2262 0.84287 0.0
C974 C 0.38188 0.23028 0.80108 0.0
C975 C 0.39667 0.23971 0.83198 0.0
H976 H 0.30034 0.1408 0.24307 0.0
H977 H 0.31691 0.15618 0.02992 0.0
H978 H 0.34084 0.17576 0.07983 0.0
H979 H 0.30487 0.18281 0.32263 0.0
H980 H 0.3144 0.17492 0.40532 0.0
H981 H 0.30003 0.16012 0.35395 0.0
H982 H 0.32551 0.1357 0.35133 0.0
H983 H 0.33996 0.15041 0.40324 0.0
H984 H 0.34786 0.1417 0.31929 0.0
H985 H 0.3604 0.19568 0.14959 0.0
H986 H 0.37515 0.21551 0.23596 0.0
H987 H 0.34671 0.18802 0.40777 0.0
C988 C 0.30922 0.14804 0.2069 0.0
C989 C 0.30673 0.14692 0.13242 0.0
C990 C 0.31858 0.15669 0.08698 0.0
C991 C 0.33226 0.16783 0.11484 0.0
C992 C 0.33413 0.16886 0.18824 0.0
C993 C 0.32312 0.15914 0.23389 0.0
C994 C 0.32757 0.16358 0.31081 0.0
C995 C 0.31071 0.1708 0.35046 0.0
C996 C 0.3357 0.14685 0.3484 0.0
C997 C 0.34189 0.17827 0.30087 0.0
C998 C 0.3457 0.18064 0.22955 0.0
C999 C 0.35774 0.19382 0.2056 0.0
C1000 C 0.36597 0.20511 0.25549 0.0
C1001 C 0.36205 0.20344 0.32904 0.0
C1002 C 0.35011 0.18954 0.35218 0.0
H1003 H 0.81014 0.34138 0.40552 0.0
H1004 H 0.8013 0.38424 0.25047 0.0
H1005 H 0.82169 0.36876 0.16688 0.0
H1006 H 0.85944 0.33298 0.35457 0.0
H1007 H 0.85752 0.30877 0.36785 0.0
H1008 H 0.84408 0.32418 0.42091 0.0
H1009 H 0.81463 0.30769 0.38202 0.0
H1010 H 0.82785 0.2922 0.32884 0.0
H1011 H 0.8097 0.30521 0.2888 0.0
H1012 H 0.8391 0.34709 0.09341 0.0
H1013 H 0.8556 0.3214 0.03836 0.0
H1014 H 0.85445 0.2926 0.23973 0.0
C1015 C 0.81303 0.34776 0.35495 0.0
C1016 C 0.80408 0.364 0.33454 0.0
C1017 C 0.80791 0.37175 0.26722 0.0
C1018 C 0.81952 0.36309 0.2192 0.0
C1019 C 0.82748 0.34673 0.23928 0.0
C1020 C 0.82477 0.33925 0.30591 0.0
C1021 C 0.83438 0.32097 0.31173 0.0
C1022 C 0.84976 0.32178 0.36705 0.0
C1023 C 0.82082 0.30562 0.32882 0.0
C1024 C 0.84203 0.31911 0.23712 0.0
C1025 C 0.83801 0.33422 0.19654 0.0
C1026 C 0.84268 0.3353 0.12491 0.0
C1027 C 0.85194 0.32059 0.09394 0.0
C1028 C 0.85643 0.30502 0.13458 0.0
C1029 C 0.8514 0.30438 0.20723 0.0
H1030 H 0.63625 0.81272 0.27754 0.0
H1031 H 0.66989 0.80293 0.46332 0.0
H1032 H 0.6945 0.82108 0.41016 0.0
H1033 H 0.66903 0.80981 0.14854 0.0
H1034 H 0.6617 0.82868 0.09433 0.0
H1035 H 0.64546 0.81682 0.14891 0.0
H1036 H 0.63634 0.84691 0.21098 0.0
H1037 H 0.65219 0.859 0.15509 0.0
H1038 H 0.65376 0.86096 0.25019 0.0
H1039 H 0.71654 0.83529 0.33268 0.0
H1040 H 0.73437 0.85119 0.24309 0.0
H1041 H 0.6867 0.85476 0.1063 0.0
C1042 C 0.64864 0.81487 0.30763 0.0
C1043 C 0.65126 0.80644 0.37448 0.0
C1044 C 0.66757 0.80944 0.41252 0.0
C1045 C 0.68166 0.8196 0.38252 0.0
C1046 C 0.67898 0.82706 0.31542 0.0
C1047 C 0.66273 0.82545 0.27917 0.0
C1048 C 0.66372 0.83499 0.20757 0.0
C1049 C 0.65975 0.82178 0.14624 0.0
C1050 C 0.65073 0.85144 0.20586 0.0
C1051 C 0.6835 0.84111 0.20762 0.0
C1052 C 0.69182 0.83635 0.27085 0.0
C1053 C 0.7101 0.83958 0.2838 0.0
C1054 C 0.7201 0.84863 0.23212 0.0
C1055 C 0.71186 0.85461 0.16801 0.0
C1056 C 0.69334 0.85046 0.15483 0.0
H1057 H 0.19771 0.66838 0.40877 0.0
H1058 H 0.19337 0.61685 0.29864 0.0
H1059 H 0.17247 0.63073 0.21134 0.0
H1060 H 0.14965 0.68456 0.37365 0.0
H1061 H 0.15717 0.70768 0.3612 0.0
H1062 H 0.16923 0.69289 0.42139 0.0
H1063 H 0.19919 0.69949 0.35325 0.0
H1064 H 0.18717 0.71387 0.29169 0.0
H1065 H 0.20036 0.69488 0.25941 0.0
H1066 H 0.15609 0.65118 0.12593 0.0
H1067 H 0.14159 0.67616 0.0576 0.0
H1068 H 0.15638 0.71422 0.22402 0.0
C1069 C 0.19153 0.65987 0.36852 0.0
C1070 C 0.1966 0.64146 0.36135 0.0
C1071 C 0.18913 0.63087 0.30579 0.0
C1072 C 0.17741 0.63867 0.25567 0.0
C1073 C 0.17328 0.65709 0.26199 0.0
C1074 C 0.17978 0.6675 0.31782 0.0
C1075 C 0.17438 0.68729 0.30905 0.0
C1076 C 0.16186 0.69346 0.36993 0.0
C1077 C 0.19128 0.6996 0.30298 0.0
C1078 C 0.16416 0.68634 0.23936 0.0
C1079 C 0.16374 0.66885 0.21276 0.0
C1080 C 0.15598 0.66489 0.14688 0.0
C1081 C 0.14794 0.67915 0.10815 0.0
C1082 C 0.14767 0.69704 0.13585 0.0
C1083 C 0.15608 0.70061 0.20193 0.0
H1084 H 0.35807 0.82257 0.61447 0.0
H1085 H 0.34465 0.77132 0.7175 0.0
H1086 H 0.32618 0.78743 0.80496 0.0
H1087 H 0.36068 0.84932 0.77453 0.0
H1088 H 0.34983 0.8693 0.73838 0.0
H1089 H 0.36244 0.8542 0.68105 0.0
H1090 H 0.33412 0.85011 0.60059 0.0
H1091 H 0.3216 0.86557 0.65658 0.0
H1092 H 0.3128 0.84309 0.63954 0.0
H1093 H 0.31138 0.80819 0.88732 0.0
H1094 H 0.29436 0.83291 0.94603 0.0
H1095 H 0.31412 0.87112 0.78819 0.0
C1096 C 0.35103 0.81481 0.6549 0.0
C1097 C 0.3532 0.79571 0.65999 0.0
C1098 C 0.34364 0.786 0.71345 0.0
C1099 C 0.33308 0.795 0.76371 0.0
C1100 C 0.33191 0.81379 0.75976 0.0
C1101 C 0.3401 0.82366 0.70594 0.0
C1102 C 0.33576 0.8438 0.714 0.0
C1103 C 0.35322 0.8548 0.72779 0.0
C1104 C 0.32545 0.85106 0.64881 0.0
C1105 C 0.32368 0.8434 0.77964 0.0
C1106 C 0.3222 0.82596 0.8061 0.0
C1107 C 0.31228 0.82196 0.86714 0.0
C1108 C 0.30285 0.83609 0.90066 0.0
C1109 C 0.30307 0.85384 0.87187 0.0
C1110 C 0.3139 0.85763 0.81141 0.0
H1111 H 0.15822 0.28873 0.77762 0.0
H1112 H 0.136 0.32702 0.92991 0.0
H1113 H 0.15013 0.3525 0.863 0.0
H1114 H 0.20134 0.31192 0.75867 0.0
H1115 H 0.2036 0.30601 0.6663 0.0
H1116 H 0.19114 0.29132 0.72536 0.0
H1117 H 0.1631 0.29349 0.64202 0.0
H1118 H 0.17535 0.30856 0.58364 0.0
H1119 H 0.15374 0.31552 0.62044 0.0
H1120 H 0.16688 0.37348 0.78003 0.0
H1121 H 0.18847 0.38826 0.69756 0.0
H1122 H 0.20006 0.33613 0.59995 0.0
C1123 C 0.15632 0.3025 0.79681 0.0
C1124 C 0.14594 0.30603 0.85848 0.0
C1125 C 0.14399 0.32412 0.88291 0.0
C1126 C 0.1518 0.33862 0.84485 0.0
C1127 C 0.16166 0.33468 0.78328 0.0
C1128 C 0.16426 0.31702 0.76031 0.0
C1129 C 0.17654 0.31627 0.69569 0.0
C1130 C 0.1942 0.30576 0.71252 0.0
C1131 C 0.16658 0.30797 0.63166 0.0
C1132 C 0.18024 0.33635 0.6848 0.0
C1133 C 0.17143 0.34673 0.73575 0.0
C1134 C 0.17368 0.36552 0.73958 0.0
C1135 C 0.18584 0.37381 0.69225 0.0
C1136 C 0.19549 0.36336 0.64151 0.0
C1137 C 0.19229 0.34448 0.63646 0.0
H1138 H 0.71296 0.15149 0.75842 0.0
H1139 H 0.68311 0.14728 0.95684 0.0
H1140 H 0.65731 0.16398 0.90239 0.0
H1141 H 0.69981 0.19625 0.71826 0.0
H1142 H 0.69843 0.19255 0.62387 0.0
H1143 H 0.71368 0.17898 0.67679 0.0
H1144 H 0.69838 0.14966 0.62923 0.0
H1145 H 0.68293 0.16317 0.57661 0.0
H1146 H 0.6741 0.14675 0.63881 0.0
H1147 H 0.63595 0.18279 0.82946 0.0
H1148 H 0.62111 0.20404 0.74638 0.0
H1149 H 0.66481 0.19582 0.59465 0.0
C1150 C 0.70093 0.15386 0.7905 0.0
C1151 C 0.70002 0.14799 0.862 0.0
C1152 C 0.68412 0.15163 0.90208 0.0
C1153 C 0.66937 0.16099 0.87142 0.0
C1154 C 0.67077 0.16652 0.80073 0.0
C1155 C 0.68618 0.16316 0.76089 0.0
C1156 C 0.68483 0.17162 0.68769 0.0
C1157 C 0.70008 0.18569 0.67602 0.0
C1158 C 0.68507 0.15692 0.62967 0.0
C1159 C 0.66633 0.18067 0.69287 0.0
C1160 C 0.65839 0.17735 0.75831 0.0
C1161 C 0.64191 0.18527 0.77783 0.0
C1162 C 0.63361 0.19732 0.73028 0.0
C1163 C 0.64177 0.20139 0.66397 0.0
C1164 C 0.65808 0.19257 0.6442 0.0
H1165 H 0.78906 0.65043 0.74183 0.0
H1166 H 0.82023 0.64531 0.54687 0.0
H1167 H 0.84658 0.6598 0.60565 0.0
H1168 H 0.80449 0.69403 0.78718 0.0
H1169 H 0.80516 0.6899 0.88145 0.0
H1170 H 0.78956 0.67736 0.82655 0.0
H1171 H 0.8031 0.64713 0.87378 0.0
H1172 H 0.81897 0.6596 0.92823 0.0
H1173 H 0.82724 0.64294 0.8658 0.0
H1174 H 0.86876 0.67573 0.68215 0.0
H1175 H 0.88426 0.69626 0.7652 0.0
H1176 H 0.83861 0.69247 0.9109 0.0
C1177 C 0.80149 0.65217 0.7116 0.0
C1178 C 0.80264 0.64662 0.63972 0.0
C1179 C 0.81904 0.64944 0.60184 0.0
C1180 C 0.83412 0.65749 0.63503 0.0
C1181 C 0.83256 0.66264 0.70603 0.0
C1182 C 0.81662 0.66032 0.74372 0.0
C1183 C 0.81803 0.66853 0.81748 0.0
C1184 C 0.80345 0.68334 0.82877 0.0
C1185 C 0.81676 0.65366 0.8747 0.0
C1186 C 0.83707 0.67655 0.81434 0.0
C1187 C 0.84531 0.67245 0.75016 0.0
C1188 C 0.86251 0.67893 0.73264 0.0
C1189 C 0.87119 0.69058 0.78031 0.0
C1190 C 0.86262 0.69594 0.84448 0.0
C1191 C 0.8456 0.68832 0.86296 0.0
H1192 H 0.27826 0.03903 0.0911 0.0
H1193 H 0.24274 0.0554 0.91856 0.0
H1194 H 0.23743 0.02315 0.88841 0.0
H1195 H 0.29938 1.00148 -0.00205 0.0
H1196 H 0.30075 0.98687 0.07465 0.0
H1197 H 0.30125 0.01122 0.08544 0.0
H1198 H 0.27381 0.00932 0.17144 0.0
H1199 H 0.27315 0.98495 0.1606 0.0
H1200 H 0.2531 0.99839 0.14274 0.0
H1201 H 0.23408 0.98997 0.88202 0.0
H1202 H 0.23646 0.95671 0.88581 0.0
H1203 H 0.27737 0.96058 0.05168 0.0
C1204 C 0.26932 0.03568 0.04729 0.0
C1205 C 0.26071 0.04954 0.00728 0.0
C1206 C 0.24933 0.04488 0.94972 0.0
C1207 C 0.2462 0.02665 0.93247 0.0
C1208 C 0.25472 0.01326 0.97296 0.0
C1209 C 0.26628 0.01743 0.02844 0.0
C1210 C 0.27426 1.00018 0.06081 0.0
C1211 C 0.29515 0.99993 0.05427 0.0
C1212 C 0.26822 0.99809 0.13851 0.0
C1213 C 0.26547 0.98576 0.01412 0.0
C1214 C 0.25394 0.99375 0.96517 0.0
C1215 C 0.24341 0.98354 0.91878 0.0
C1216 C 0.24501 0.96461 0.92093 0.0
C1217 C 0.2576 0.95598 0.96698 0.0
C1218 C 0.26774 0.96673 0.01534 0.0
H1219 H 0.04092 0.24129 0.97286 0.0
H1220 H 0.05278 0.29853 0.00252 0.0
H1221 H 0.01982 0.30488 0.01856 0.0
H1222 H 0.9989 0.24723 0.87572 0.0
H1223 H 0.98779 0.22805 0.91675 0.0
H1224 H 0.01222 0.22818 0.90677 0.0
H1225 H 0.01597 0.22297 0.04207 0.0
H1226 H 0.99156 0.22282 0.05244 0.0
H1227 H 0.0052 0.23847 0.10335 0.0
H1228 H 0.98541 0.30491 0.02921 0.0
H1229 H 0.95231 0.29838 0.03898 0.0
H1230 H 0.96302 0.24099 0.00658 0.0
C1231 C 0.03649 0.25513 0.9827 0.0
C1232 C 0.04925 0.26945 0.98676 0.0
C1233 C 0.04312 0.28741 -0.00021 0.0
C1234 C 0.02447 0.29112 0.00868 0.0
C1235 C 0.01217 0.27669 0.00455 0.0
C1236 C 0.01794 0.25903 0.99221 0.0
C1237 C 1.002 0.24594 0.99136 0.0
C1238 C 1.00012 0.23681 0.9183 0.0
C1239 C 0.00379 0.23171 0.05086 0.0
C1240 C 0.98635 0.25893 0.00543 0.0
C1241 C 0.99248 0.27664 0.01227 0.0
C1242 C 0.98049 0.29109 0.02426 0.0
C1243 C 0.96178 0.28729 0.02969 0.0
C1244 C 0.95534 0.26923 0.02379 0.0
C1245 C 0.96775 0.2549 0.01156 0.0
H1246 H 0.72485 0.96531 0.08026 0.0
H1247 H 0.76447 0.94896 0.92189 0.0
H1248 H 0.76915 0.98118 0.88878 0.0
H1249 H 0.70433 1.00154 0.97558 0.0
H1250 H 0.70091 0.01656 0.05006 0.0
H1251 H 0.70092 0.99226 0.06316 0.0
H1252 H 0.72635 0.99561 0.15739 0.0
H1253 H 0.72652 0.01991 0.14415 0.0
H1254 H 0.74727 0.00699 0.13417 0.0
H1255 H 0.77157 0.01449 0.8799 0.0
H1256 H 0.76861 0.0477 0.88177 0.0
H1257 H 0.72409 0.0434 0.03282 0.0
C1258 C 0.73444 0.96866 0.03857 0.0
C1259 C 0.74442 0.95485 0.00348 0.0
C1260 C 0.75679 0.95948 0.94906 0.0
C1261 C 0.75956 0.97767 0.9302 0.0
C1262 C 0.74967 0.99104 0.96586 0.0
C1263 C 0.73713 0.98685 0.01808 0.0
C1264 C 0.72799 0.00402 0.046 0.0
C1265 C 0.70731 0.00357 0.03287 0.0
C1266 C 0.73229 0.00679 0.12512 0.0
C1267 C 0.73728 0.01841 0.00068 0.0
C1268 C 0.75001 0.01052 0.95625 0.0
C1269 C 0.76129 0.02083 0.91285 0.0
C1270 C 0.75932 0.03974 0.91364 0.0
C1271 C 0.7457 0.04826 0.95537 0.0
C1272 C 0.73461 0.03738 5e-05 0.0
H1273 H 0.96278 0.71585 0.00923 0.0
H1274 H 0.95447 0.77266 0.95542 0.0
H1275 H 0.98754 0.77816 0.96505 0.0
H1276 H 0.99981 0.72399 0.13844 0.0
H1277 H 0.01221 0.70379 0.11337 0.0
H1278 H 0.98773 0.70439 0.10538 0.0
H1279 H 0.99053 0.69573 0.97269 0.0
H1280 H 0.01501 0.69534 0.98004 0.0
H1281 H 0.0042 0.70963 0.91454 0.0
H1282 H 0.02103 0.77755 0.97487 0.0
H1283 H 0.05384 0.77116 0.99213 0.0
H1284 H 0.04143 0.71486 0.0407 0.0
C1285 C 0.96798 0.72948 0.00106 0.0
C1286 C 0.95619 0.74391 0.98191 0.0
C1287 C 0.96338 0.76151 0.97029 0.0
C1288 C 0.9821 0.76474 0.97547 0.0
C1289 C 0.99346 0.75023 0.9929 0.0
C1290 C 0.98677 0.73299 0.00639 0.0
C1291 C 1.0022 0.71987 0.02356 0.0
C1292 C 1.00038 0.71258 0.09972 0.0
C1293 C 0.00303 0.70422 0.96946 0.0
C1294 C 0.01854 0.73244 0.01642 0.0
C1295 C 0.01308 0.74988 -0.00122 0.0
C1296 C 0.02551 0.76399 0.98907 0.0
C1297 C 0.04405 0.76027 -0.00124 0.0
C1298 C 0.04994 0.74262 0.01755 0.0
C1299 C 0.03711 0.72846 0.02605 0.0
H1300 H 0.75415 0.4624 0.5659 0.0
H1301 H 0.79045 0.45621 0.38632 0.0
H1302 H 0.79754 0.48914 0.39038 0.0
H1303 H 0.73405 0.50213 0.51276 0.0
H1304 H 0.73237 0.51257 0.5991 0.0
H1305 H 0.73295 0.48819 0.59148 0.0
H1306 H 0.76081 0.48689 0.67596 0.0
H1307 H 0.76029 0.51136 0.684 0.0
H1308 H 0.78084 0.50006 0.65549 0.0
H1309 H 0.79963 0.52285 0.41128 0.0
H1310 H 0.79388 0.5552 0.43704 0.0
H1311 H 0.75228 0.53982 0.58949 0.0
C1312 C 0.76394 0.468 0.52884 0.0
C1313 C 0.77195 0.45695 0.47627 0.0
C1314 C 0.78435 0.4646 0.42723 0.0
C1315 C 0.78851 0.48321 0.42945 0.0
C1316 C 0.7801 0.49391 0.48102 0.0
C1317 C 0.76803 0.48662 0.52973 0.0
C1318 C 0.75937 0.50141 0.57455 0.0
C1319 C 0.73845 0.50105 0.56905 0.0
C1320 C 0.7657 0.49983 0.6521 0.0
C1321 C 0.76738 0.51819 0.53985 0.0
C1322 C 0.77998 0.51352 0.48852 0.0
C1323 C 0.7896 0.52665 0.45071 0.0
C1324 C 0.78598 0.54504 0.46488 0.0
C1325 C 0.77217 0.55018 0.51364 0.0
C1326 C 0.76298 0.53646 0.55218 0.0
H1327 H 0.46182 0.78651 0.47957 0.0
H1328 H 0.45641 0.73207 0.56682 0.0
H1329 H 0.48971 0.72853 0.56626 0.0
H1330 H 0.49919 0.7734 0.3583 0.0
H1331 H 0.5106 0.79503 0.36585 0.0
H1332 H 0.48618 0.79379 0.37518 0.0
H1333 H 0.48854 0.80947 0.49787 0.0
H1334 H 0.51297 0.81055 0.48924 0.0
H1335 H 0.50292 0.79962 0.56539 0.0
H1336 H 0.52312 0.73128 0.56465 0.0
H1337 H 0.55561 0.73829 0.54302 0.0
H1338 H 0.54028 0.78922 0.44311 0.0
C1339 C 0.46767 0.77376 0.49741 0.0
C1340 C 0.45654 0.75972 0.52504 0.0
C1341 C 0.46469 0.74323 0.54767 0.0
C1342 C 0.48359 0.74104 0.54726 0.0
C1343 C 0.49422 0.75524 0.52173 0.0
C1344 C 0.48664 0.77109 0.49527 0.0
C1345 C 0.50139 0.78369 0.46718 0.0
C1346 C 0.49921 0.78665 0.38686 0.0
C1347 C 0.50145 0.80191 0.50735 0.0
C1348 C 0.51833 0.77254 0.48371 0.0
C1349 C 0.51378 0.75628 0.51598 0.0
C1350 C 0.52691 0.74385 0.53856 0.0
C1351 C 0.54526 0.74794 0.52645 0.0
C1352 C 0.55021 0.76417 0.4914 0.0
C1353 C 0.53666 0.77669 0.46992 0.0
H1354 H 0.22606 0.4657 0.57894 0.0
H1355 H 0.26406 0.44925 0.41472 0.0
H1356 H 0.26872 0.48145 0.3818 0.0
H1357 H 0.20496 0.50245 0.47895 0.0
H1358 H 0.20254 0.51728 0.55458 0.0
H1359 H 0.20234 0.49296 0.56661 0.0
H1360 H 0.2288 0.49568 0.65687 0.0
H1361 H 0.22917 0.52001 0.6446 0.0
H1362 H 0.24961 0.50684 0.63076 0.0
H1363 H 0.27186 0.51482 0.37536 0.0
H1364 H 0.26979 0.54808 0.38109 0.0
H1365 H 0.22576 0.54372 0.53442 0.0
C1366 C 0.23533 0.469 0.5361 0.0
C1367 C 0.24485 0.45515 0.4994 0.0
C1368 C 0.25673 0.45976 0.44326 0.0
C1369 C 0.25949 0.47797 0.42444 0.0
C1370 C 0.25009 0.49136 0.46185 0.0
C1371 C 0.23799 0.48719 0.51565 0.0
C1372 C 0.22937 0.50438 0.54564 0.0
C1373 C 0.20856 0.50426 0.5358 0.0
C1374 C 0.23454 0.50687 0.62412 0.0
C1375 C 0.23841 0.51876 0.49958 0.0
C1376 C 0.25065 0.51086 0.4532 0.0
C1377 C 0.26191 0.52118 0.40978 0.0
C1378 C 0.26047 0.54013 0.41289 0.0
C1379 C 0.24728 0.5487 0.45661 0.0
C1380 C 0.23609 0.53776 0.50068 0.0
H1381 H 0.54309 0.21914 0.50017 0.0
H1382 H 0.55107 0.27671 0.54055 0.0
H1383 H 0.51796 0.28187 0.53179 0.0
H1384 H 0.50614 0.22472 0.37188 0.0
H1385 H 0.4936 0.20512 0.40223 0.0
H1386 H 0.51805 0.20571 0.41095 0.0
H1387 H 0.51498 0.19963 0.54563 0.0
H1388 H 0.49051 0.19919 0.53739 0.0
H1389 H 0.50115 0.21461 0.59909 0.0
H1390 H 0.48477 0.28126 0.52049 0.0
H1391 H 0.4521 0.27506 0.50126 0.0
H1392 H 0.46418 0.21791 0.46765 0.0
C1393 C 0.53777 0.23281 0.5063 0.0
C1394 C 0.54954 0.2476 0.52116 0.0
C1395 C 0.54221 0.26527 0.52949 0.0
C1396 C 0.52346 0.26832 0.52469 0.0
C1397 C 0.51216 0.25353 0.51124 0.0
C1398 C 0.51891 0.23612 0.50163 0.0
C1399 C 0.50345 0.22279 0.48753 0.0
C1400 C 0.50543 0.21408 0.41375 0.0
C1401 C 0.50247 0.2082 0.54591 0.0
C1402 C 0.48709 0.23554 0.49068 0.0
C1403 C 0.49257 0.25317 0.50469 0.0
C1404 C 0.48025 0.26754 0.50951 0.0
C1405 C 0.46177 0.26391 0.49868 0.0
C1406 C 0.45577 0.24609 0.48338 0.0
C1407 C 0.46852 0.23164 0.47995 0.0
H1408 H 0.21163 0.16108 0.11388 0.0
H1409 H 0.22867 0.15247 0.89555 0.0
H1410 H 0.2064 0.17502 0.85524 0.0
H1411 H 0.16323 0.16799 0.07534 0.0
H1412 H 0.16021 0.18578 0.14014 0.0
H1413 H 0.17723 0.16841 0.15394 0.0
H1414 H 0.20199 0.19323 0.1671 0.0
H1415 H 0.18505 0.21066 0.15323 0.0
H1416 H 0.20499 0.20979 0.09743 0.0
H1417 H 0.18263 0.19765 0.83581 0.0
H1418 H 0.1586 0.22089 0.83838 0.0
H1419 H 0.15657 0.21734 0.06838 0.0
C1420 C 0.2105 0.16384 0.05762 0.0
C1421 C 0.22191 0.15478 0.00793 0.0
C1422 C 0.22016 0.15904 0.93485 0.0
C1423 C 0.2075 0.17189 0.91118 0.0
C1424 C 0.19661 0.1806 0.96102 0.0
C1425 C 0.19792 0.17693 0.03272 0.0
C1426 C 0.1846 0.18882 0.07424 0.0
C1427 C 0.17048 0.17704 0.11323 0.0
C1428 C 0.19477 0.20137 0.12606 0.0
C1429 C 0.17577 0.19965 0.01438 0.0
C1430 C 0.18291 0.19444 0.94969 0.0
C1431 C 0.1769 0.2019 0.88607 0.0
C1432 C 0.16314 0.21505 0.88815 0.0
C1433 C 0.15559 0.22092 0.95346 0.0
C1434 C 0.16211 0.21317 0.01766 0.0
H1435 H 0.82751 0.23161 0.03529 0.0
H1436 H 0.87669 0.19926 0.01566 0.0
H1437 H 0.85803 0.17172 0.99393 0.0
H1438 H 0.80181 0.19791 0.13099 0.0
H1439 H 0.78041 0.20325 0.08882 0.0
H1440 H 0.79753 0.22062 0.09862 0.0
H1441 H 0.79692 0.22655 0.96316 0.0
H1442 H 0.77968 0.2093 0.95301 0.0
H1443 H 0.80056 0.20785 0.90285 0.0
H1444 H 0.83418 0.14809 0.97051 0.0
H1445 H 0.80654 0.12926 0.95426 0.0
H1446 H 0.77256 0.1761 0.00037 0.0
C1447 C 0.83425 0.2187 0.02595 0.0
C1448 C 0.85346 0.2174 0.0265 0.0
C1449 C 0.86196 0.20038 0.01514 0.0
C1450 C 0.85149 0.18473 0.00274 0.0
C1451 C 0.83254 0.18635 0.00313 0.0
C1452 C 0.82396 0.20285 0.015 0.0
C1453 C 0.80338 0.20065 0.0153 0.0
C1454 C 0.79531 0.20592 0.08776 0.0
C1455 C 0.79462 0.21175 0.95498 0.0
C1456 C 0.80174 0.18035 0.0019 0.0
C1457 C 0.81875 0.17244 0.994 0.0
C1458 C 0.82081 0.15406 0.97752 0.0
C1459 C 0.80509 0.14348 0.96849 0.0
C1460 C 0.78757 0.1512 0.97751 0.0
C1461 C 0.78587 0.16983 0.99497 0.0
H1462 H 0.83856 0.77675 0.04176 0.0
H1463 H 0.86462 0.79766 0.85137 0.0
H1464 H 0.84473 0.8245 0.85449 0.0
H1465 H 0.79313 0.79195 0.99508 0.0
H1466 H 0.78677 0.79789 0.08449 0.0
H1467 H 0.80324 0.7801 0.06904 0.0
H1468 H 0.82653 0.79683 0.14884 0.0
H1469 H 0.81011 0.81464 0.16472 0.0
H1470 H 0.8323 0.82018 0.12976 0.0
H1471 H 0.82124 0.84832 0.87263 0.0
H1472 H 0.79635 0.86892 0.91093 0.0
H1473 H 0.78602 0.83423 0.09252 0.0
C1474 C 0.84015 0.78704 0.00107 0.0
C1475 C 0.85319 0.78495 0.94612 0.0
C1476 C 0.85472 0.79875 0.89375 0.0
C1477 C 0.84347 0.81413 0.89499 0.0
C1478 C 0.83066 0.81568 0.949 0.0
C1479 C 0.82893 0.80261 0.00138 0.0
C1480 C 0.81376 0.8077 0.05269 0.0
C1481 C 0.79831 0.79357 0.05015 0.0
C1482 C 0.82113 0.80998 0.1285 0.0
C1483 C 0.80762 0.8258 0.02158 0.0
C1484 C 0.81739 0.82994 0.96105 0.0
C1485 C 0.81363 0.84539 0.92047 0.0
C1486 C 0.79953 0.85699 0.94245 0.0
C1487 C 0.78966 0.85328 0.00509 0.0
C1488 C 0.79374 0.83751 0.04523 0.0
H1489 H 0.15881 0.79327 0.10951 0.0
H1490 H 0.15679 0.77083 0.89629 0.0
H1491 H 0.17908 0.79344 0.85656 0.0
H1492 H 0.16435 0.84061 0.05939 0.0
H1493 H 0.18044 0.84574 0.12884 0.0
H1494 H 0.16366 0.82814 0.14177 0.0
H1495 H 0.1893 0.80504 0.17043 0.0
H1496 H 0.20615 0.82256 0.15759 0.0
H1497 H 0.20755 0.80167 0.10769 0.0
H1498 H 0.20057 0.81836 0.83731 0.0
H1499 H 0.22254 0.84343 0.84082 0.0
H1500 H 0.21335 0.84957 0.06741 0.0
C1501 C 0.16296 0.79323 0.05438 0.0
C1502 C 0.15569 0.7804 0.00578 0.0
C1503 C 0.16181 0.78062 0.93443 0.0
C1504 C 0.17456 0.79341 0.91122 0.0
C1505 C 0.18136 0.80584 0.96002 0.0
C1506 C 0.17602 0.80582 0.03027 0.0
C1507 C 0.18619 0.82044 0.07159 0.0
C1508 C 0.17286 0.83457 0.1022 0.0
C1509 C 0.198 0.81191 0.13029 0.0
C1510 C 0.19791 0.82867 0.01318 0.0
C1511 C 0.19466 0.82004 0.94933 0.0
C1512 C 0.2033 0.82523 0.88695 0.0
C1513 C 0.21571 0.83961 0.88954 0.0
C1514 C 0.21965 0.84861 0.95427 0.0
C1515 C 0.21063 0.84299 0.01713 0.0
H1516 H 0.66284 0.72451 0.55614 0.0
H1517 H 0.64435 0.71002 0.34454 0.0
H1518 H 0.66494 0.68358 0.3449 0.0
H1519 H 0.70982 0.71232 0.52739 0.0
H1520 H 0.71329 0.70352 0.61564 0.0
H1521 H 0.69667 0.72118 0.60048 0.0
H1522 H 0.67173 0.70109 0.65782 0.0
H1523 H 0.68827 0.68334 0.67301 0.0
H1524 H 0.66775 0.67848 0.62392 0.0
H1525 H 0.6883 0.65976 0.36403 0.0
H1526 H 0.71299 0.63919 0.40276 0.0
H1527 H 0.71627 0.66778 0.60357 0.0
C1528 C 0.66298 0.71567 0.51017 0.0
C1529 C 0.65183 0.71937 0.45037 0.0
C1530 C 0.65265 0.70754 0.39106 0.0
C1531 C 0.66432 0.69244 0.3907 0.0
C1532 C 0.67515 0.68925 0.45004 0.0
C1533 C 0.67463 0.70046 0.50881 0.0
C1534 C 0.68817 0.69409 0.5647 0.0
C1535 C 0.70286 0.70864 0.5778 0.0
C1536 C 0.67839 0.68894 0.63396 0.0
C1537 C 0.69617 0.67744 0.52828 0.0
C1538 C 0.68853 0.67507 0.46189 0.0
C1539 C 0.69426 0.66132 0.41618 0.0
C1540 C 0.7083 0.64973 0.43854 0.0
C1541 C 0.71631 0.65177 0.5063 0.0
C1542 C 0.71004 0.66569 0.55213 0.0
H1543 H 0.36223 0.69746 0.50869 0.0
H1544 H 0.3299 0.74696 0.50724 0.0
H1545 H 0.30177 0.72879 0.49705 0.0
H1546 H 0.33436 0.67432 0.37504 0.0
H1547 H 0.33703 0.65219 0.41509 0.0
H1548 H 0.3547 0.66902 0.42466 0.0
H1549 H 0.35279 0.66577 0.56135 0.0
H1550 H 0.33497 0.64908 0.55225 0.0
H1551 H 0.33121 0.66916 0.60527 0.0
H1552 H 0.27725 0.70563 0.49713 0.0
H1553 H 0.25744 0.67861 0.48491 0.0
H1554 H 0.30517 0.64392 0.47078 0.0
C1555 C 0.3492 0.70437 0.50555 0.0
C1556 C 0.3481 0.72355 0.50869 0.0
C1557 C 0.33093 0.73226 0.50421 0.0
C1558 C 0.3149 0.72207 0.49903 0.0
C1559 C 0.31633 0.7032 0.49671 0.0
C1560 C 0.33301 0.69438 0.49791 0.0
C1561 C 0.33057 0.67395 0.49044 0.0
C1562 C 0.3397 0.66696 0.42224 0.0
C1563 C 0.33782 0.6639 0.55626 0.0
C1564 C 0.30994 0.67273 0.48568 0.0
C1565 C 0.30206 0.68978 0.49104 0.0
C1566 C 0.28323 0.69222 0.49172 0.0
C1567 C 0.27211 0.67685 0.48513 0.0
C1568 C 0.27987 0.65938 0.47631 0.0
C1569 C 0.29901 0.65724 0.47675 0.0
H1570 H 0.34229 0.2935 0.39238 0.0
H1571 H 0.35233 0.27619 0.60918 0.0
H1572 H 0.32931 0.29809 0.65179 0.0
H1573 H 0.33447 0.34122 0.4287 0.0
H1574 H 0.31625 0.34351 0.36512 0.0
H1575 H 0.33396 0.32687 0.35116 0.0
H1576 H 0.30963 0.30148 0.34183 0.0
H1577 H 0.29186 0.31805 0.35581 0.0
H1578 H 0.2935 0.29844 0.41301 0.0
H1579 H 0.30603 0.32211 0.67187 0.0
H1580 H 0.28227 0.34575 0.66839 0.0
H1581 H 0.28538 0.34678 0.4383 0.0
C1582 C 0.33974 0.29446 0.44885 0.0
C1583 C 0.34927 0.28323 0.49756 0.0
C1584 C 0.34528 0.28465 0.5709 0.0
C1585 C 0.33223 0.29707 0.59565 0.0
C1586 C 0.32306 0.30786 0.54641 0.0
C1587 C 0.32647 0.30661 0.47451 0.0
C1588 C 0.31412 0.31941 0.43302 0.0
C1589 C 0.32538 0.3336 0.39209 0.0
C1590 C 0.30153 0.3087 0.38297 0.0
C1591 C 0.30342 0.32817 0.49303 0.0
C1592 C 0.30895 0.32134 0.5579 0.0
C1593 C 0.30152 0.32752 0.62141 0.0
C1594 C 0.28805 0.34103 0.61881 0.0
C1595 C 0.28192 0.34817 0.55311 0.0
C1596 C 0.28969 0.34154 0.4893 0.0
H1597 H 0.72265 0.34441 0.55889 0.0
H1598 H 0.71016 0.35786 0.33954 0.0
H1599 H 0.68603 0.33496 0.33855 0.0
H1600 H 0.71493 0.29613 0.54353 0.0
H1601 H 0.70425 0.29372 0.62915 0.0
H1602 H 0.72079 0.31145 0.61464 0.0
H1603 H 0.69735 0.33564 0.65559 0.0
H1604 H 0.68075 0.31798 0.67047 0.0
H1605 H 0.6754 0.33683 0.61279 0.0
H1606 H 0.66417 0.31015 0.35701 0.0
H1607 H 0.64402 0.28554 0.39787 0.0
H1608 H 0.66882 0.2878 0.60657 0.0
C1609 C 0.71475 0.3426 0.51089 0.0
C1610 C 0.71843 0.35308 0.44928 0.0
C1611 C 0.70772 0.3502 0.38761 0.0
C1612 C 0.69393 0.33712 0.38628 0.0
C1613 C 0.69075 0.32699 0.44721 0.0
C1614 C 0.70065 0.3296 0.50872 0.0
C1615 C 0.69409 0.31674 0.56667 0.0
C1616 C 0.70943 0.30374 0.58985 0.0
C1617 C 0.68644 0.32744 0.63014 0.0
C1618 C 0.67907 0.30657 0.52763 0.0
C1619 C 0.67758 0.31269 0.4586 0.0
C1620 C 0.66515 0.30523 0.41101 0.0
C1621 C 0.65387 0.29113 0.43448 0.0
C1622 C 0.65496 0.28463 0.50499 0.0
C1623 C 0.66765 0.29258 0.55241 0.0
loop_
_geom_bond_atom_site_label_1
_geom_bond_atom_site_label_2
_geom_bond_distance
_geom_bond_site_symmetry_2
_ccdc_geom_bond_type
Co0 O3 1.970 . S
Co0 N17 1.989 . S
Co0 O25 1.967 . S
Co0 O32 1.920 . S
Co1 O4 1.966 . S
Co1 N10 2.022 . S
Co1 N18 1.993 1_556 S
Co1 O26 1.941 1_556 S
C2 O3 1.258 . S
C2 O4 1.263 1_554 S
O3 Co0 1.970 . S
O3 C2 1.258 . S
O4 Co1 1.966 . S
O4 C2 1.263 1_556 S
C5 O6 1.235 . S
C5 O32 1.289 . S
O6 C5 1.235 . S
C7 C9 1.400 . S
C7 N10 1.351 . S
C7 C12 1.501 . S
C8 C9 1.387 . S
C8 N11 1.341 . S
C9 C7 1.400 . S
C9 C8 1.387 . S
N10 Co1 2.022 . S
N10 C7 1.351 . S
N10 N11 1.365 . S
N11 C8 1.341 . S
N11 N10 1.365 . S
N11 H31 0.862 . S
C12 C7 1.501 . S
C12 H13 0.961 . S
C12 H14 0.961 . S
C12 H15 0.960 . S
H13 C12 0.961 . S
H14 C12 0.961 . S
H15 C12 0.960 . S
C16 N17 1.342 . S
C16 C20 1.401 . S
C16 C21 1.499 . S
N17 Co0 1.989 . S
N17 C16 1.342 . S
N17 N18 1.388 . S
N18 Co1 1.993 1_554 S
N18 N17 1.388 . S
N18 C19 1.346 1_554 S
C19 N18 1.346 1_556 S
C19 C20 1.396 1_556 S
C19 C29 1.510 . S
C20 C16 1.401 . S
C20 C19 1.396 1_554 S
C21 C16 1.499 . S
C21 H22 0.959 . S
C21 H23 0.960 . S
C21 H24 0.961 . S
H22 C21 0.959 . S
H23 C21 0.960 . S
H24 C21 0.961 . S
O25 Co0 1.967 . S
O25 C33 1.258 . S
O26 Co1 1.941 1_554 S
O26 C33 1.266 . S
H27 C29 0.959 . S
H28 C29 0.961 . S
C29 C19 1.510 . S
C29 H27 0.959 . S
C29 H28 0.961 . S
C29 H30 0.960 . S
H30 C29 0.960 . S
H31 N11 0.862 . S
O32 Co0 1.920 . S
O32 C5 1.289 . S
C33 O25 1.258 . S
C33 O26 1.266 . S
Co34 O37 1.970 . S
Co34 N51 1.989 . S
Co34 O59 1.967 . S
Co34 O66 1.920 . S
Co35 O38 1.966 . S
Co35 N44 2.022 . S
Co35 N52 1.993 1_556 S
Co35 O60 1.941 1_556 S
C36 O37 1.258 . S
C36 O38 1.263 1_554 S
O37 Co34 1.970 . S
O37 C36 1.258 . S
O38 Co35 1.966 . S
O38 C36 1.263 1_556 S
C39 O40 1.235 . S
C39 O66 1.289 . S
O40 C39 1.235 . S
C41 C43 1.400 . S
C41 N44 1.351 . S
C41 C46 1.501 . S
C42 C43 1.387 . S
C42 N45 1.341 . S
C43 C41 1.400 . S
C43 C42 1.387 . S
N44 Co35 2.022 . S
N44 C41 1.351 . S
N44 N45 1.365 . S
N45 C42 1.341 . S
N45 N44 1.365 . S
N45 H65 0.862 . S
C46 C41 1.501 . S
C46 H47 0.961 . S
C46 H48 0.961 . S
C46 H49 0.960 . S
H47 C46 0.961 . S
H48 C46 0.961 . S
H49 C46 0.960 . S
C50 N51 1.342 . S
C50 C54 1.401 . S
C50 C55 1.499 . S
N51 Co34 1.989 . S
N51 C50 1.342 . S
N51 N52 1.388 . S
N52 Co35 1.993 1_554 S
N52 N51 1.388 . S
N52 C53 1.346 1_554 S
C53 N52 1.346 1_556 S
C53 C54 1.396 1_556 S
C53 C63 1.510 . S
C54 C50 1.401 . S
C54 C53 1.396 1_554 S
C55 C50 1.499 . S
C55 H56 0.959 . S
C55 H57 0.960 . S
C55 H58 0.961 . S
H56 C55 0.959 . S
H57 C55 0.960 . S
H58 C55 0.961 . S
O59 Co34 1.967 . S
O59 C67 1.258 . S
O60 Co35 1.941 1_554 S
O60 C67 1.266 . S
H61 C63 0.959 . S
H62 C63 0.961 . S
C63 C53 1.510 . S
C63 H61 0.959 . S
C63 H62 0.961 . S
C63 H64 0.960 . S
H64 C63 0.960 . S
H65 N45 0.862 . S
O66 Co34 1.920 . S
O66 C39 1.289 . S
C67 O59 1.258 . S
C67 O60 1.266 . S
Co68 O71 1.970 . S
Co68 N85 1.989 . S
Co68 O93 1.967 . S
Co68 O100 1.920 . S
Co69 O72 1.966 . S
Co69 N78 2.022 . S
Co69 N86 1.993 1_556 S
Co69 O94 1.941 1_556 S
C70 O71 1.258 . S
C70 O72 1.263 1_554 S
O71 Co68 1.970 . S
O71 C70 1.258 . S
O72 Co69 1.966 . S
O72 C70 1.263 1_556 S
C73 O74 1.235 . S
C73 O100 1.289 . S
O74 C73 1.235 . S
C75 C77 1.400 . S
C75 N78 1.351 . S
C75 C80 1.501 . S
C76 C77 1.387 . S
C76 N79 1.341 . S
C77 C75 1.400 . S
C77 C76 1.387 . S
N78 Co69 2.022 . S
N78 C75 1.351 . S
N78 N79 1.365 . S
N79 C76 1.341 . S
N79 N78 1.365 . S
N79 H99 0.862 . S
C80 C75 1.501 . S
C80 H81 0.961 . S
C80 H82 0.961 . S
C80 H83 0.960 . S
H81 C80 0.961 . S
H82 C80 0.961 . S
H83 C80 0.960 . S
C84 N85 1.342 . S
C84 C88 1.401 . S
C84 C89 1.499 . S
N85 Co68 1.989 . S
N85 C84 1.342 . S
N85 N86 1.388 . S
N86 Co69 1.993 1_554 S
N86 N85 1.388 . S
N86 C87 1.346 1_554 S
C87 N86 1.346 1_556 S
C87 C88 1.396 1_556 S
C87 C97 1.510 . S
C88 C84 1.401 . S
C88 C87 1.396 1_554 S
C89 C84 1.499 . S
C89 H90 0.959 . S
C89 H91 0.960 . S
C89 H92 0.961 . S
H90 C89 0.959 . S
H91 C89 0.960 . S
H92 C89 0.961 . S
O93 Co68 1.967 . S
O93 C101 1.258 . S
O94 Co69 1.941 1_554 S
O94 C101 1.266 . S
H95 C97 0.959 . S
H96 C97 0.961 . S
C97 C87 1.510 . S
C97 H95 0.959 . S
C97 H96 0.961 . S
C97 H98 0.960 . S
H98 C97 0.960 . S
H99 N79 0.862 . S
O100 Co68 1.920 . S
O100 C73 1.289 . S
C101 O93 1.258 . S
C101 O94 1.266 . S
Co102 O105 1.970 . S
Co102 N119 1.989 . S
Co102 O127 1.967 . S
Co102 O134 1.920 . S
Co103 O106 1.966 . S
Co103 N112 2.022 . S
Co103 N120 1.993 1_556 S
Co103 O128 1.941 1_556 S
C104 O105 1.258 . S
C104 O106 1.263 1_554 S
O105 Co102 1.970 . S
O105 C104 1.258 . S
O106 Co103 1.966 . S
O106 C104 1.263 1_556 S
C107 O108 1.235 . S
C107 O134 1.289 . S
O108 C107 1.235 . S
C109 C111 1.400 . S
C109 N112 1.351 . S
C109 C114 1.501 . S
C110 C111 1.387 . S
C110 N113 1.341 . S
C111 C109 1.400 . S
C111 C110 1.387 . S
N112 Co103 2.022 . S
N112 C109 1.351 . S
N112 N113 1.365 . S
N113 C110 1.341 . S
N113 N112 1.365 . S
N113 H133 0.862 . S
C114 C109 1.501 . S
C114 H115 0.961 . S
C114 H116 0.961 . S
C114 H117 0.960 . S
H115 C114 0.961 . S
H116 C114 0.961 . S
H117 C114 0.960 . S
C118 N119 1.342 . S
C118 C122 1.401 . S
C118 C123 1.499 . S
N119 Co102 1.989 . S
N119 C118 1.342 . S
N119 N120 1.388 . S
N120 Co103 1.993 1_554 S
N120 N119 1.388 . S
N120 C121 1.346 1_554 S
C121 N120 1.346 1_556 S
C121 C122 1.396 1_556 S
C121 C131 1.510 . S
C122 C118 1.401 . S
C122 C121 1.396 1_554 S
C123 C118 1.499 . S
C123 H124 0.959 . S
C123 H125 0.960 . S
C123 H126 0.961 . S
H124 C123 0.959 . S
H125 C123 0.960 . S
H126 C123 0.961 . S
O127 Co102 1.967 . S
O127 C135 1.258 . S
O128 Co103 1.941 1_554 S
O128 C135 1.266 . S
H129 C131 0.959 . S
H130 C131 0.961 . S
C131 C121 1.510 . S
C131 H129 0.959 . S
C131 H130 0.961 . S
C131 H132 0.960 . S
H132 C131 0.960 . S
H133 N113 0.862 . S
O134 Co102 1.920 . S
O134 C107 1.289 . S
C135 O127 1.258 . S
C135 O128 1.266 . S
Co136 O139 1.970 . S
Co136 N153 1.989 . S
Co136 O161 1.967 . S
Co136 O168 1.920 . S
Co137 O140 1.966 . S
Co137 N146 2.022 . S
Co137 N154 1.993 1_554 S
Co137 O162 1.941 1_554 S
C138 O139 1.258 . S
C138 O140 1.263 1_556 S
O139 Co136 1.970 . S
O139 C138 1.258 . S
O140 Co137 1.966 . S
O140 C138 1.263 1_554 S
C141 O142 1.235 . S
C141 O168 1.289 . S
O142 C141 1.235 . S
C143 C145 1.400 . S
C143 N146 1.351 . S
C143 C148 1.501 . S
C144 C145 1.387 . S
C144 N147 1.341 . S
C145 C143 1.400 . S
C145 C144 1.387 . S
N146 Co137 2.022 . S
N146 C143 1.351 . S
N146 N147 1.365 . S
N147 C144 1.341 . S
N147 N146 1.365 . S
N147 H167 0.862 . S
C148 C143 1.501 . S
C148 H149 0.961 . S
C148 H150 0.961 . S
C148 H151 0.960 . S
H149 C148 0.961 . S
H150 C148 0.961 . S
H151 C148 0.960 . S
C152 N153 1.342 . S
C152 C156 1.401 . S
C152 C157 1.499 . S
N153 Co136 1.989 . S
N153 C152 1.342 . S
N153 N154 1.388 . S
N154 Co137 1.993 1_556 S
N154 N153 1.388 . S
N154 C155 1.346 1_556 S
C155 N154 1.346 1_554 S
C155 C156 1.396 1_554 S
C155 C165 1.510 . S
C156 C152 1.401 . S
C156 C155 1.396 1_556 S
C157 C152 1.499 . S
C157 H158 0.959 . S
C157 H159 0.960 . S
C157 H160 0.961 . S
H158 C157 0.959 . S
H159 C157 0.960 . S
H160 C157 0.961 . S
O161 Co136 1.967 . S
O161 C169 1.258 . S
O162 Co137 1.941 1_556 S
O162 C169 1.266 . S
H163 C165 0.959 . S
H164 C165 0.961 . S
C165 C155 1.510 . S
C165 H163 0.959 . S
C165 H164 0.961 . S
C165 H166 0.960 . S
H166 C165 0.960 . S
H167 N147 0.862 . S
O168 Co136 1.920 . S
O168 C141 1.289 . S
C169 O161 1.258 . S
C169 O162 1.266 . S
Co170 O173 1.970 . S
Co170 N187 1.989 . S
Co170 O195 1.967 . S
Co170 O202 1.920 . S
Co171 O174 1.966 . S
Co171 N180 2.022 . S
Co171 N188 1.993 1_554 S
Co171 O196 1.941 1_554 S
C172 O173 1.258 . S
C172 O174 1.263 1_556 S
O173 Co170 1.970 . S
O173 C172 1.258 . S
O174 Co171 1.966 . S
O174 C172 1.263 1_554 S
C175 O176 1.235 . S
C175 O202 1.289 . S
O176 C175 1.235 . S
C177 C179 1.400 . S
C177 N180 1.351 . S
C177 C182 1.501 . S
C178 C179 1.387 . S
C178 N181 1.341 . S
C179 C177 1.400 . S
C179 C178 1.387 . S
N180 Co171 2.022 . S
N180 C177 1.351 . S
N180 N181 1.365 . S
N181 C178 1.341 . S
N181 N180 1.365 . S
N181 H201 0.862 . S
C182 C177 1.501 . S
C182 H183 0.961 . S
C182 H184 0.961 . S
C182 H185 0.960 . S
H183 C182 0.961 . S
H184 C182 0.961 . S
H185 C182 0.960 . S
C186 N187 1.342 . S
C186 C190 1.401 . S
C186 C191 1.499 . S
N187 Co170 1.989 . S
N187 C186 1.342 . S
N187 N188 1.388 . S
N188 Co171 1.993 1_556 S
N188 N187 1.388 . S
N188 C189 1.346 1_556 S
C189 N188 1.346 1_554 S
C189 C190 1.396 1_554 S
C189 C199 1.510 . S
C190 C186 1.401 . S
C190 C189 1.396 1_556 S
C191 C186 1.499 . S
C191 H192 0.959 . S
C191 H193 0.960 . S
C191 H194 0.961 . S
H192 C191 0.959 . S
H193 C191 0.960 . S
H194 C191 0.961 . S
O195 Co170 1.967 . S
O195 C203 1.258 . S
O196 Co171 1.941 1_556 S
O196 C203 1.266 . S
H197 C199 0.959 . S
H198 C199 0.961 . S
C199 C189 1.510 . S
C199 H197 0.959 . S
C199 H198 0.961 . S
C199 H200 0.960 . S
H200 C199 0.960 . S
H201 N181 0.862 . S
O202 Co170 1.920 . S
O202 C175 1.289 . S
C203 O195 1.258 . S
C203 O196 1.266 . S
Co204 O207 1.970 . S
Co204 N221 1.989 . S
Co204 O229 1.967 . S
Co204 O236 1.920 . S
Co205 O208 1.966 . S
Co205 N214 2.022 . S
Co205 N222 1.993 1_554 S
Co205 O230 1.941 1_554 S
C206 O207 1.258 . S
C206 O208 1.263 1_556 S
O207 Co204 1.970 . S
O207 C206 1.258 . S
O208 Co205 1.966 . S
O208 C206 1.263 1_554 S
C209 O210 1.235 . S
C209 O236 1.289 . S
O210 C209 1.235 . S
C211 C213 1.400 . S
C211 N214 1.351 . S
C211 C216 1.501 . S
C212 C213 1.387 . S
C212 N215 1.341 . S
C213 C211 1.400 . S
C213 C212 1.387 . S
N214 Co205 2.022 . S
N214 C211 1.351 . S
N214 N215 1.365 . S
N215 C212 1.341 . S
N215 N214 1.365 . S
N215 H235 0.862 . S
C216 C211 1.501 . S
C216 H217 0.961 . S
C216 H218 0.961 . S
C216 H219 0.960 . S
H217 C216 0.961 . S
H218 C216 0.961 . S
H219 C216 0.960 . S
C220 N221 1.342 . S
C220 C224 1.401 . S
C220 C225 1.499 . S
N221 Co204 1.989 . S
N221 C220 1.342 . S
N221 N222 1.388 . S
N222 Co205 1.993 1_556 S
N222 N221 1.388 . S
N222 C223 1.346 1_556 S
C223 N222 1.346 1_554 S
C223 C224 1.396 1_554 S
C223 C233 1.510 . S
C224 C220 1.401 . S
C224 C223 1.396 1_556 S
C225 C220 1.499 . S
C225 H226 0.959 . S
C225 H227 0.960 . S
C225 H228 0.961 . S
H226 C225 0.959 . S
H227 C225 0.960 . S
H228 C225 0.961 . S
O229 Co204 1.967 . S
O229 C237 1.258 . S
O230 Co205 1.941 1_556 S
O230 C237 1.266 . S
H231 C233 0.959 . S
H232 C233 0.961 . S
C233 C223 1.510 . S
C233 H231 0.959 . S
C233 H232 0.961 . S
C233 H234 0.960 . S
H234 C233 0.960 . S
H235 N215 0.862 . S
O236 Co204 1.920 . S
O236 C209 1.289 . S
C237 O229 1.258 . S
C237 O230 1.266 . S
Co238 O241 1.970 . S
Co238 N255 1.989 . S
Co238 O263 1.967 . S
Co238 O270 1.920 . S
Co239 O242 1.966 . S
Co239 N248 2.022 . S
Co239 N256 1.993 1_554 S
Co239 O264 1.941 1_554 S
C240 O241 1.258 . S
C240 O242 1.263 1_556 S
O241 Co238 1.970 . S
O241 C240 1.258 . S
O242 Co239 1.966 . S
O242 C240 1.263 1_554 S
C243 O244 1.235 . S
C243 O270 1.289 . S
O244 C243 1.235 . S
C245 C247 1.400 . S
C245 N248 1.351 . S
C245 C250 1.501 . S
C246 C247 1.387 . S
C246 N249 1.341 . S
C247 C245 1.400 . S
C247 C246 1.387 . S
N248 Co239 2.022 . S
N248 C245 1.351 . S
N248 N249 1.365 . S
N249 C246 1.341 . S
N249 N248 1.365 . S
N249 H269 0.862 . S
C250 C245 1.501 . S
C250 H251 0.961 . S
C250 H252 0.961 . S
C250 H253 0.960 . S
H251 C250 0.961 . S
H252 C250 0.961 . S
H253 C250 0.960 . S
C254 N255 1.342 . S
C254 C258 1.401 . S
C254 C259 1.499 . S
N255 Co238 1.989 . S
N255 C254 1.342 . S
N255 N256 1.388 . S
N256 Co239 1.993 1_556 S
N256 N255 1.388 . S
N256 C257 1.346 1_556 S
C257 N256 1.346 1_554 S
C257 C258 1.396 1_554 S
C257 C267 1.510 . S
C258 C254 1.401 . S
C258 C257 1.396 1_556 S
C259 C254 1.499 . S
C259 H260 0.959 . S
C259 H261 0.960 . S
C259 H262 0.961 . S
H260 C259 0.959 . S
H261 C259 0.960 . S
H262 C259 0.961 . S
O263 Co238 1.967 . S
O263 C271 1.258 . S
O264 Co239 1.941 1_556 S
O264 C271 1.266 . S
H265 C267 0.959 . S
H266 C267 0.961 . S
C267 C257 1.510 . S
C267 H265 0.959 . S
C267 H266 0.961 . S
C267 H268 0.960 . S
H268 C267 0.960 . S
H269 N249 0.862 . S
O270 Co238 1.920 . S
O270 C243 1.289 . S
C271 O263 1.258 . S
C271 O264 1.266 . S
Co272 O275 1.970 . S
Co272 N289 1.989 . S
Co272 O297 1.967 . S
Co272 O304 1.920 . S
Co273 O276 1.966 . S
Co273 N282 2.022 . S
Co273 N290 1.993 . S
Co273 O298 1.941 . S
C274 O275 1.258 . S
C274 O276 1.263 . S
O275 Co272 1.970 . S
O275 C274 1.258 . S
O276 Co273 1.966 . S
O276 C274 1.263 . S
C277 O278 1.235 . S
C277 O304 1.289 . S
O278 C277 1.235 . S
C279 C281 1.400 . S
C279 N282 1.351 . S
C279 C284 1.501 . S
C280 C281 1.387 . S
C280 N283 1.341 . S
C281 C279 1.400 . S
C281 C280 1.387 . S
N282 Co273 2.022 . S
N282 C279 1.351 . S
N282 N283 1.365 . S
N283 C280 1.341 . S
N283 N282 1.365 . S
N283 H303 0.862 . S
C284 C279 1.501 . S
C284 H285 0.961 . S
C284 H286 0.961 . S
C284 H287 0.960 . S
H285 C284 0.961 . S
H286 C284 0.961 . S
H287 C284 0.960 . S
C288 N289 1.342 . S
C288 C292 1.401 . S
C288 C293 1.499 . S
N289 Co272 1.989 . S
N289 C288 1.342 . S
N289 N290 1.388 . S
N290 Co273 1.993 . S
N290 N289 1.388 . S
N290 C291 1.346 . S
C291 N290 1.346 . S
C291 C292 1.396 . S
C291 C301 1.510 . S
C292 C288 1.401 . S
C292 C291 1.396 . S
C293 C288 1.499 . S
C293 H294 0.959 . S
C293 H295 0.960 . S
C293 H296 0.961 . S
H294 C293 0.959 . S
H295 C293 0.960 . S
H296 C293 0.961 . S
O297 Co272 1.967 . S
O297 C305 1.258 . S
O298 Co273 1.941 . S
O298 C305 1.266 . S
H299 C301 0.959 . S
H300 C301 0.961 . S
C301 C291 1.510 . S
C301 H299 0.959 . S
C301 H300 0.961 . S
C301 H302 0.960 . S
H302 C301 0.960 . S
H303 N283 0.862 . S
O304 Co272 1.920 . S
O304 C277 1.289 . S
C305 O297 1.258 . S
C305 O298 1.266 . S
Co306 O309 1.970 . S
Co306 N323 1.989 . S
Co306 O331 1.967 . S
Co306 O338 1.920 . S
Co307 O310 1.966 . S
Co307 N316 2.022 . S
Co307 N324 1.993 . S
Co307 O332 1.941 . S
C308 O309 1.258 . S
C308 O310 1.263 . S
O309 Co306 1.970 . S
O309 C308 1.258 . S
O310 Co307 1.966 . S
O310 C308 1.263 . S
C311 O312 1.235 . S
C311 O338 1.289 . S
O312 C311 1.235 . S
C313 C315 1.400 . S
C313 N316 1.351 . S
C313 C318 1.501 . S
C314 C315 1.387 . S
C314 N317 1.341 . S
C315 C313 1.400 . S
C315 C314 1.387 . S
N316 Co307 2.022 . S
N316 C313 1.351 . S
N316 N317 1.365 . S
N317 C314 1.341 . S
N317 N316 1.365 . S
N317 H337 0.862 . S
C318 C313 1.501 . S
C318 H319 0.961 . S
C318 H320 0.961 . S
C318 H321 0.960 . S
H319 C318 0.961 . S
H320 C318 0.961 . S
H321 C318 0.960 . S
C322 N323 1.342 . S
C322 C326 1.401 . S
C322 C327 1.499 . S
N323 Co306 1.989 . S
N323 C322 1.342 . S
N323 N324 1.388 . S
N324 Co307 1.993 . S
N324 N323 1.388 . S
N324 C325 1.346 . S
C325 N324 1.346 . S
C325 C326 1.396 . S
C325 C335 1.510 . S
C326 C322 1.401 . S
C326 C325 1.396 . S
C327 C322 1.499 . S
C327 H328 0.959 . S
C327 H329 0.960 . S
C327 H330 0.961 . S
H328 C327 0.959 . S
H329 C327 0.960 . S
H330 C327 0.961 . S
O331 Co306 1.967 . S
O331 C339 1.258 . S
O332 Co307 1.941 . S
O332 C339 1.266 . S
H333 C335 0.959 . S
H334 C335 0.961 . S
C335 C325 1.510 . S
C335 H333 0.959 . S
C335 H334 0.961 . S
C335 H336 0.960 . S
H336 C335 0.960 . S
H337 N317 0.862 . S
O338 Co306 1.920 . S
O338 C311 1.289 . S
C339 O331 1.258 . S
C339 O332 1.266 . S
Co340 O343 1.970 . S
Co340 N357 1.989 . S
Co340 O365 1.967 . S
Co340 O372 1.920 . S
Co341 O344 1.966 . S
Co341 N350 2.022 . S
Co341 N358 1.993 . S
Co341 O366 1.941 . S
C342 O343 1.258 . S
C342 O344 1.263 . S
O343 Co340 1.970 . S
O343 C342 1.258 . S
O344 Co341 1.966 . S
O344 C342 1.263 . S
C345 O346 1.235 . S
C345 O372 1.289 . S
O346 C345 1.235 . S
C347 C349 1.400 . S
C347 N350 1.351 . S
C347 C352 1.501 . S
C348 C349 1.387 . S
C348 N351 1.341 . S
C349 C347 1.400 . S
C349 C348 1.387 . S
N350 Co341 2.022 . S
N350 C347 1.351 . S
N350 N351 1.365 . S
N351 C348 1.341 . S
N351 N350 1.365 . S
N351 H371 0.862 . S
C352 C347 1.501 . S
C352 H353 0.961 . S
C352 H354 0.961 . S
C352 H355 0.960 . S
H353 C352 0.961 . S
H354 C352 0.961 . S
H355 C352 0.960 . S
C356 N357 1.342 . S
C356 C360 1.401 . S
C356 C361 1.499 . S
N357 Co340 1.989 . S
N357 C356 1.342 . S
N357 N358 1.388 . S
N358 Co341 1.993 . S
N358 N357 1.388 . S
N358 C359 1.346 . S
C359 N358 1.346 . S
C359 C360 1.396 . S
C359 C369 1.510 . S
C360 C356 1.401 . S
C360 C359 1.396 . S
C361 C356 1.499 . S
C361 H362 0.959 . S
C361 H363 0.960 . S
C361 H364 0.961 . S
H362 C361 0.959 . S
H363 C361 0.960 . S
H364 C361 0.961 . S
O365 Co340 1.967 . S
O365 C373 1.258 . S
O366 Co341 1.941 . S
O366 C373 1.266 . S
H367 C369 0.959 . S
H368 C369 0.961 . S
C369 C359 1.510 . S
C369 H367 0.959 . S
C369 H368 0.961 . S
C369 H370 0.960 . S
H370 C369 0.960 . S
H371 N351 0.862 . S
O372 Co340 1.920 . S
O372 C345 1.289 . S
C373 O365 1.258 . S
C373 O366 1.266 . S
Co374 O377 1.970 . S
Co374 N391 1.989 . S
Co374 O399 1.967 . S
Co374 O406 1.920 . S
Co375 O378 1.966 . S
Co375 N384 2.022 . S
Co375 N392 1.993 . S
Co375 O400 1.941 . S
C376 O377 1.258 . S
C376 O378 1.263 . S
O377 Co374 1.970 . S
O377 C376 1.258 . S
O378 Co375 1.966 . S
O378 C376 1.263 . S
C379 O380 1.235 . S
C379 O406 1.289 . S
O380 C379 1.235 . S
C381 C383 1.400 . S
C381 N384 1.351 . S
C381 C386 1.501 . S
C382 C383 1.387 . S
C382 N385 1.341 . S
C383 C381 1.400 . S
C383 C382 1.387 . S
N384 Co375 2.022 . S
N384 C381 1.351 . S
N384 N385 1.365 . S
N385 C382 1.341 . S
N385 N384 1.365 . S
N385 H405 0.862 . S
C386 C381 1.501 . S
C386 H387 0.961 . S
C386 H388 0.961 . S
C386 H389 0.960 . S
H387 C386 0.961 . S
H388 C386 0.961 . S
H389 C386 0.960 . S
C390 N391 1.342 . S
C390 C394 1.401 . S
C390 C395 1.499 . S
N391 Co374 1.989 . S
N391 C390 1.342 . S
N391 N392 1.388 . S
N392 Co375 1.993 . S
N392 N391 1.388 . S
N392 C393 1.346 . S
C393 N392 1.346 . S
C393 C394 1.396 . S
C393 C403 1.510 . S
C394 C390 1.401 . S
C394 C393 1.396 . S
C395 C390 1.499 . S
C395 H396 0.959 . S
C395 H397 0.960 . S
C395 H398 0.961 . S
H396 C395 0.959 . S
H397 C395 0.960 . S
H398 C395 0.961 . S
O399 Co374 1.967 . S
O399 C407 1.258 . S
O400 Co375 1.941 . S
O400 C407 1.266 . S
H401 C403 0.959 . S
H402 C403 0.961 . S
C403 C393 1.510 . S
C403 H401 0.959 . S
C403 H402 0.961 . S
C403 H404 0.960 . S
H404 C403 0.960 . S
H405 N385 0.862 . S
O406 Co374 1.920 . S
O406 C379 1.289 . S
C407 O399 1.258 . S
C407 O400 1.266 . S
Co408 O411 1.970 . S
Co408 N425 1.989 . S
Co408 O433 1.967 . S
Co408 O440 1.920 . S
Co409 O412 1.966 . S
Co409 N418 2.022 . S
Co409 N426 1.993 . S
Co409 O434 1.941 . S
C410 O411 1.258 . S
C410 O412 1.263 . S
O411 Co408 1.970 . S
O411 C410 1.258 . S
O412 Co409 1.966 . S
O412 C410 1.263 . S
C413 O414 1.235 . S
C413 O440 1.289 . S
O414 C413 1.235 . S
C415 C417 1.400 . S
C415 N418 1.351 . S
C415 C420 1.501 . S
C416 C417 1.387 . S
C416 N419 1.341 . S
C417 C415 1.400 . S
C417 C416 1.387 . S
N418 Co409 2.022 . S
N418 C415 1.351 . S
N418 N419 1.365 . S
N419 C416 1.341 . S
N419 N418 1.365 . S
N419 H439 0.862 . S
C420 C415 1.501 . S
C420 H421 0.961 . S
C420 H422 0.961 . S
C420 H423 0.960 . S
H421 C420 0.961 . S
H422 C420 0.961 . S
H423 C420 0.960 . S
C424 N425 1.342 . S
C424 C428 1.401 . S
C424 C429 1.499 . S
N425 Co408 1.989 . S
N425 C424 1.342 . S
N425 N426 1.388 . S
N426 Co409 1.993 . S
N426 N425 1.388 . S
N426 C427 1.346 . S
C427 N426 1.346 . S
C427 C428 1.396 . S
C427 C437 1.510 . S
C428 C424 1.401 . S
C428 C427 1.396 . S
C429 C424 1.499 . S
C429 H430 0.959 . S
C429 H431 0.960 . S
C429 H432 0.961 . S
H430 C429 0.959 . S
H431 C429 0.960 . S
H432 C429 0.961 . S
O433 Co408 1.967 . S
O433 C441 1.258 . S
O434 Co409 1.941 . S
O434 C441 1.266 . S
H435 C437 0.959 . S
H436 C437 0.961 . S
C437 C427 1.510 . S
C437 H435 0.959 . S
C437 H436 0.961 . S
C437 H438 0.960 . S
H438 C437 0.960 . S
H439 N419 0.862 . S
O440 Co408 1.920 . S
O440 C413 1.289 . S
C441 O433 1.258 . S
C441 O434 1.266 . S
Co442 O445 1.970 . S
Co442 N459 1.989 . S
Co442 O467 1.967 . S
Co442 O474 1.920 . S
Co443 O446 1.966 . S
Co443 N452 2.022 . S
Co443 N460 1.993 . S
Co443 O468 1.941 . S
C444 O445 1.258 . S
C444 O446 1.263 . S
O445 Co442 1.970 . S
O445 C444 1.258 . S
O446 Co443 1.966 . S
O446 C444 1.263 . S
C447 O448 1.235 . S
C447 O474 1.289 . S
O448 C447 1.235 . S
C449 C451 1.400 . S
C449 N452 1.351 . S
C449 C454 1.501 . S
C450 C451 1.387 . S
C450 N453 1.341 . S
C451 C449 1.400 . S
C451 C450 1.387 . S
N452 Co443 2.022 . S
N452 C449 1.351 . S
N452 N453 1.365 . S
N453 C450 1.341 . S
N453 N452 1.365 . S
N453 H473 0.862 . S
C454 C449 1.501 . S
C454 H455 0.961 . S
C454 H456 0.961 . S
C454 H457 0.960 . S
H455 C454 0.961 . S
H456 C454 0.961 . S
H457 C454 0.960 . S
C458 N459 1.342 . S
C458 C462 1.401 . S
C458 C463 1.499 . S
N459 Co442 1.989 . S
N459 C458 1.342 . S
N459 N460 1.388 . S
N460 Co443 1.993 . S
N460 N459 1.388 . S
N460 C461 1.346 . S
C461 N460 1.346 . S
C461 C462 1.396 . S
C461 C471 1.510 . S
C462 C458 1.401 . S
C462 C461 1.396 . S
C463 C458 1.499 . S
C463 H464 0.959 . S
C463 H465 0.960 . S
C463 H466 0.961 . S
H464 C463 0.959 . S
H465 C463 0.960 . S
H466 C463 0.961 . S
O467 Co442 1.967 . S
O467 C475 1.258 . S
O468 Co443 1.941 . S
O468 C475 1.266 . S
H469 C471 0.959 . S
H470 C471 0.961 . S
C471 C461 1.510 . S
C471 H469 0.959 . S
C471 H470 0.961 . S
C471 H472 0.960 . S
H472 C471 0.960 . S
H473 N453 0.862 . S
O474 Co442 1.920 . S
O474 C447 1.289 . S
C475 O467 1.258 . S
C475 O468 1.266 . S
Co476 O479 1.970 . S
Co476 N493 1.989 . S
Co476 O501 1.967 . S
Co476 O508 1.920 . S
Co477 O480 1.966 . S
Co477 N486 2.022 . S
Co477 N494 1.993 . S
Co477 O502 1.941 . S
C478 O479 1.258 . S
C478 O480 1.263 . S
O479 Co476 1.970 . S
O479 C478 1.258 . S
O480 Co477 1.966 . S
O480 C478 1.263 . S
C481 O482 1.235 . S
C481 O508 1.289 . S
O482 C481 1.235 . S
C483 C485 1.400 . S
C483 N486 1.351 . S
C483 C488 1.501 . S
C484 C485 1.387 . S
C484 N487 1.341 . S
C485 C483 1.400 . S
C485 C484 1.387 . S
N486 Co477 2.022 . S
N486 C483 1.351 . S
N486 N487 1.365 . S
N487 C484 1.341 . S
N487 N486 1.365 . S
N487 H507 0.862 . S
C488 C483 1.501 . S
C488 H489 0.961 . S
C488 H490 0.961 . S
C488 H491 0.960 . S
H489 C488 0.961 . S
H490 C488 0.961 . S
H491 C488 0.960 . S
C492 N493 1.342 . S
C492 C496 1.401 . S
C492 C497 1.499 . S
N493 Co476 1.989 . S
N493 C492 1.342 . S
N493 N494 1.388 . S
N494 Co477 1.993 . S
N494 N493 1.388 . S
N494 C495 1.346 . S
C495 N494 1.346 . S
C495 C496 1.396 . S
C495 C505 1.510 . S
C496 C492 1.401 . S
C496 C495 1.396 . S
C497 C492 1.499 . S
C497 H498 0.959 . S
C497 H499 0.960 . S
C497 H500 0.961 . S
H498 C497 0.959 . S
H499 C497 0.960 . S
H500 C497 0.961 . S
O501 Co476 1.967 . S
O501 C509 1.258 . S
O502 Co477 1.941 . S
O502 C509 1.266 . S
H503 C505 0.959 . S
H504 C505 0.961 . S
C505 C495 1.510 . S
C505 H503 0.959 . S
C505 H504 0.961 . S
C505 H506 0.960 . S
H506 C505 0.960 . S
H507 N487 0.862 . S
O508 Co476 1.920 . S
O508 C481 1.289 . S
C509 O501 1.258 . S
C509 O502 1.266 . S
Co510 O513 1.970 . S
Co510 N527 1.989 . S
Co510 O535 1.967 . S
Co510 O542 1.920 . S
Co511 O514 1.966 . S
Co511 N520 2.022 . S
Co511 N528 1.993 . S
Co511 O536 1.941 . S
C512 O513 1.258 . S
C512 O514 1.263 . S
O513 Co510 1.970 . S
O513 C512 1.258 . S
O514 Co511 1.966 . S
O514 C512 1.263 . S
C515 O516 1.235 . S
C515 O542 1.289 . S
O516 C515 1.235 . S
C517 C519 1.400 . S
C517 N520 1.351 . S
C517 C522 1.501 . S
C518 C519 1.387 . S
C518 N521 1.341 . S
C519 C517 1.400 . S
C519 C518 1.387 . S
N520 Co511 2.022 . S
N520 C517 1.351 . S
N520 N521 1.365 . S
N521 C518 1.341 . S
N521 N520 1.365 . S
N521 H541 0.862 . S
C522 C517 1.501 . S
C522 H523 0.961 . S
C522 H524 0.961 . S
C522 H525 0.960 . S
H523 C522 0.961 . S
H524 C522 0.961 . S
H525 C522 0.960 . S
C526 N527 1.342 . S
C526 C530 1.401 . S
C526 C531 1.499 . S
N527 Co510 1.989 . S
N527 C526 1.342 . S
N527 N528 1.388 . S
N528 Co511 1.993 . S
N528 N527 1.388 . S
N528 C529 1.346 . S
C529 N528 1.346 . S
C529 C530 1.396 . S
C529 C539 1.510 . S
C530 C526 1.401 . S
C530 C529 1.396 . S
C531 C526 1.499 . S
C531 H532 0.959 . S
C531 H533 0.960 . S
C531 H534 0.961 . S
H532 C531 0.959 . S
H533 C531 0.960 . S
H534 C531 0.961 . S
O535 Co510 1.967 . S
O535 C543 1.258 . S
O536 Co511 1.941 . S
O536 C543 1.266 . S
H537 C539 0.959 . S
H538 C539 0.961 . S
C539 C529 1.510 . S
C539 H537 0.959 . S
C539 H538 0.961 . S
C539 H540 0.960 . S
H540 C539 0.960 . S
H541 N521 0.862 . S
O542 Co510 1.920 . S
O542 C515 1.289 . S
C543 O535 1.258 . S
C543 O536 1.266 . S
H544 C556 0.930 . S
H545 C558 0.930 . S
H546 C559 0.930 . S
H547 C563 0.959 . S
H548 C563 0.959 . S
H549 C563 0.961 . S
H550 C564 0.960 . S
H551 C564 0.961 . S
H552 C564 0.959 . S
H553 C567 0.929 . S
H554 C568 0.931 . S
H555 C570 0.930 . S
C556 H544 0.930 . S
C556 C557 1.399 . S
C556 C561 1.399 . S
C557 C556 1.399 . S
C557 C558 1.376 . S
C558 H545 0.930 . S
C558 C557 1.376 . S
C558 C559 1.388 . S
C559 H546 0.930 . S
C559 C558 1.388 . S
C559 C560 1.390 . S
C560 C559 1.390 . S
C560 C561 1.394 . S
C560 C566 1.465 . S
C561 C556 1.399 . S
C561 C560 1.394 . S
C561 C562 1.516 . S
C562 C561 1.516 . S
C562 C563 1.502 . S
C562 C564 1.561 . S
C562 C565 1.526 . S
C563 H547 0.959 . S
C563 H548 0.959 . S
C563 H549 0.961 . S
C563 C562 1.502 . S
C564 H550 0.960 . S
C564 H551 0.961 . S
C564 H552 0.959 . S
C564 C562 1.561 . S
C565 C562 1.526 . S
C565 C566 1.396 . S
C565 C570 1.390 . S
C566 C560 1.465 . S
C566 C565 1.396 . S
C566 C567 1.399 . S
C567 H553 0.929 . S
C567 C566 1.399 . S
C567 C568 1.385 . S
C568 H554 0.931 . S
C568 C567 1.385 . S
C568 C569 1.389 . S
C569 C568 1.389 . S
C569 C570 1.387 . S
C570 H555 0.930 . S
C570 C565 1.390 . S
C570 C569 1.387 . S
H571 C583 0.930 . S
H572 C585 0.930 . S
H573 C586 0.930 . S
H574 C590 0.959 . S
H575 C590 0.959 . S
H576 C590 0.961 . S
H577 C591 0.960 . S
H578 C591 0.961 . S
H579 C591 0.959 . S
H580 C594 0.929 . S
H581 C595 0.931 . S
H582 C597 0.930 . S
C583 H571 0.930 . S
C583 C584 1.399 . S
C583 C588 1.399 . S
C584 C583 1.399 . S
C584 C585 1.376 . S
C585 H572 0.930 . S
C585 C584 1.376 . S
C585 C586 1.388 . S
C586 H573 0.930 . S
C586 C585 1.388 . S
C586 C587 1.390 . S
C587 C586 1.390 . S
C587 C588 1.394 . S
C587 C593 1.465 . S
C588 C583 1.399 . S
C588 C587 1.394 . S
C588 C589 1.516 . S
C589 C588 1.516 . S
C589 C590 1.502 . S
C589 C591 1.561 . S
C589 C592 1.526 . S
C590 H574 0.959 . S
C590 H575 0.959 . S
C590 H576 0.961 . S
C590 C589 1.502 . S
C591 H577 0.960 . S
C591 H578 0.961 . S
C591 H579 0.959 . S
C591 C589 1.561 . S
C592 C589 1.526 . S
C592 C593 1.396 . S
C592 C597 1.390 . S
C593 C587 1.465 . S
C593 C592 1.396 . S
C593 C594 1.399 . S
C594 H580 0.929 . S
C594 C593 1.399 . S
C594 C595 1.385 . S
C595 H581 0.931 . S
C595 C594 1.385 . S
C595 C596 1.389 . S
C596 C595 1.389 . S
C596 C597 1.387 . S
C597 H582 0.930 . S
C597 C592 1.390 . S
C597 C596 1.387 . S
H598 C610 0.930 . S
H599 C612 0.930 . S
H600 C613 0.930 . S
H601 C617 0.959 . S
H602 C617 0.959 . S
H603 C617 0.961 . S
H604 C618 0.960 . S
H605 C618 0.961 . S
H606 C618 0.959 . S
H607 C621 0.929 . S
H608 C622 0.931 . S
H609 C624 0.930 . S
C610 H598 0.930 . S
C610 C611 1.399 . S
C610 C615 1.399 . S
C611 C610 1.399 . S
C611 C612 1.376 . S
C612 H599 0.930 . S
C612 C611 1.376 . S
C612 C613 1.388 . S
C613 H600 0.930 . S
C613 C612 1.388 . S
C613 C614 1.390 . S
C614 C613 1.390 . S
C614 C615 1.394 . S
C614 C620 1.465 . S
C615 C610 1.399 . S
C615 C614 1.394 . S
C615 C616 1.516 . S
C616 C615 1.516 . S
C616 C617 1.502 . S
C616 C618 1.561 . S
C616 C619 1.526 . S
C617 H601 0.959 . S
C617 H602 0.959 . S
C617 H603 0.961 . S
C617 C616 1.502 . S
C618 H604 0.960 . S
C618 H605 0.961 . S
C618 H606 0.959 . S
C618 C616 1.561 . S
C619 C616 1.526 . S
C619 C620 1.396 . S
C619 C624 1.390 . S
C620 C614 1.465 . S
C620 C619 1.396 . S
C620 C621 1.399 . S
C621 H607 0.929 . S
C621 C620 1.399 . S
C621 C622 1.385 . S
C622 H608 0.931 . S
C622 C621 1.385 . S
C622 C623 1.389 . S
C623 C622 1.389 . S
C623 C624 1.387 . S
C624 H609 0.930 . S
C624 C619 1.390 . S
C624 C623 1.387 . S
H625 C637 0.930 . S
H626 C639 0.930 . S
H627 C640 0.930 . S
H628 C644 0.959 . S
H629 C644 0.959 . S
H630 C644 0.961 . S
H631 C645 0.960 . S
H632 C645 0.961 . S
H633 C645 0.959 . S
H634 C648 0.929 . S
H635 C649 0.931 . S
H636 C651 0.930 . S
C637 H625 0.930 . S
C637 C638 1.399 . S
C637 C642 1.399 . S
C638 C637 1.399 . S
C638 C639 1.376 . S
C639 H626 0.930 . S
C639 C638 1.376 . S
C639 C640 1.388 . S
C640 H627 0.930 . S
C640 C639 1.388 . S
C640 C641 1.390 . S
C641 C640 1.390 . S
C641 C642 1.394 . S
C641 C647 1.465 . S
C642 C637 1.399 . S
C642 C641 1.394 . S
C642 C643 1.516 . S
C643 C642 1.516 . S
C643 C644 1.502 . S
C643 C645 1.561 . S
C643 C646 1.526 . S
C644 H628 0.959 . S
C644 H629 0.959 . S
C644 H630 0.961 . S
C644 C643 1.502 . S
C645 H631 0.960 . S
C645 H632 0.961 . S
C645 H633 0.959 . S
C645 C643 1.561 . S
C646 C643 1.526 . S
C646 C647 1.396 . S
C646 C651 1.390 . S
C647 C641 1.465 . S
C647 C646 1.396 . S
C647 C648 1.399 . S
C648 H634 0.929 . S
C648 C647 1.399 . S
C648 C649 1.385 . S
C649 H635 0.931 . S
C649 C648 1.385 . S
C649 C650 1.389 . S
C650 C649 1.389 . S
C650 C651 1.387 . S
C651 H636 0.930 . S
C651 C646 1.390 . S
C651 C650 1.387 . S
H652 C664 0.930 . S
H653 C666 0.930 . S
H654 C667 0.930 . S
H655 C671 0.959 . S
H656 C671 0.959 . S
H657 C671 0.961 . S
H658 C672 0.960 . S
H659 C672 0.961 . S
H660 C672 0.959 . S
H661 C675 0.929 . S
H662 C676 0.931 . S
H663 C678 0.930 . S
C664 H652 0.930 . S
C664 C665 1.399 . S
C664 C669 1.399 . S
C665 C664 1.399 . S
C665 C666 1.376 . S
C666 H653 0.930 . S
C666 C665 1.376 . S
C666 C667 1.388 . S
C667 H654 0.930 . S
C667 C666 1.388 . S
C667 C668 1.390 . S
C668 C667 1.390 . S
C668 C669 1.394 . S
C668 C674 1.465 . S
C669 C664 1.399 . S
C669 C668 1.394 . S
C669 C670 1.516 . S
C670 C669 1.516 . S
C670 C671 1.502 . S
C670 C672 1.561 . S
C670 C673 1.526 . S
C671 H655 0.959 . S
C671 H656 0.959 . S
C671 H657 0.961 . S
C671 C670 1.502 . S
C672 H658 0.960 . S
C672 H659 0.961 . S
C672 H660 0.959 . S
C672 C670 1.561 . S
C673 C670 1.526 . S
C673 C674 1.396 . S
C673 C678 1.390 . S
C674 C668 1.465 . S
C674 C673 1.396 . S
C674 C675 1.399 . S
C675 H661 0.929 . S
C675 C674 1.399 . S
C675 C676 1.385 . S
C676 H662 0.931 . S
C676 C675 1.385 . S
C676 C677 1.389 . S
C677 C676 1.389 . S
C677 C678 1.387 . S
C678 H663 0.930 . S
C678 C673 1.390 . S
C678 C677 1.387 . S
H679 C691 0.930 . S
H680 C693 0.930 . S
H681 C694 0.930 . S
H682 C698 0.959 . S
H683 C698 0.959 . S
H684 C698 0.961 . S
H685 C699 0.960 . S
H686 C699 0.961 . S
H687 C699 0.959 . S
H688 C702 0.929 . S
H689 C703 0.931 . S
H690 C705 0.930 . S
C691 H679 0.930 . S
C691 C692 1.399 . S
C691 C696 1.399 . S
C692 C691 1.399 . S
C692 C693 1.376 . S
C693 H680 0.930 . S
C693 C692 1.376 . S
C693 C694 1.388 . S
C694 H681 0.930 . S
C694 C693 1.388 . S
C694 C695 1.390 . S
C695 C694 1.390 . S
C695 C696 1.394 . S
C695 C701 1.465 . S
C696 C691 1.399 . S
C696 C695 1.394 . S
C696 C697 1.516 . S
C697 C696 1.516 . S
C697 C698 1.502 . S
C697 C699 1.561 . S
C697 C700 1.526 . S
C698 H682 0.959 . S
C698 H683 0.959 . S
C698 H684 0.961 . S
C698 C697 1.502 . S
C699 H685 0.960 . S
C699 H686 0.961 . S
C699 H687 0.959 . S
C699 C697 1.561 . S
C700 C697 1.526 . S
C700 C701 1.396 . S
C700 C705 1.390 . S
C701 C695 1.465 . S
C701 C700 1.396 . S
C701 C702 1.399 . S
C702 H688 0.929 . S
C702 C701 1.399 . S
C702 C703 1.385 . S
C703 H689 0.931 . S
C703 C702 1.385 . S
C703 C704 1.389 . S
C704 C703 1.389 . S
C704 C705 1.387 . S
C705 H690 0.930 . S
C705 C700 1.390 . S
C705 C704 1.387 . S
H706 C718 0.930 . S
H707 C720 0.930 . S
H708 C721 0.930 . S
H709 C725 0.959 . S
H710 C725 0.959 . S
H711 C725 0.961 . S
H712 C726 0.960 . S
H713 C726 0.961 . S
H714 C726 0.959 . S
H715 C729 0.929 . S
H716 C730 0.931 . S
H717 C732 0.930 . S
C718 H706 0.930 . S
C718 C719 1.399 . S
C718 C723 1.399 . S
C719 C718 1.399 . S
C719 C720 1.376 . S
C720 H707 0.930 . S
C720 C719 1.376 . S
C720 C721 1.388 . S
C721 H708 0.930 . S
C721 C720 1.388 . S
C721 C722 1.390 . S
C722 C721 1.390 . S
C722 C723 1.394 . S
C722 C728 1.465 . S
C723 C718 1.399 . S
C723 C722 1.394 . S
C723 C724 1.516 . S
C724 C723 1.516 . S
C724 C725 1.502 . S
C724 C726 1.561 . S
C724 C727 1.526 . S
C725 H709 0.959 . S
C725 H710 0.959 . S
C725 H711 0.961 . S
C725 C724 1.502 . S
C726 H712 0.960 . S
C726 H713 0.961 . S
C726 H714 0.959 . S
C726 C724 1.561 . S
C727 C724 1.526 . S
C727 C728 1.396 . S
C727 C732 1.390 . S
C728 C722 1.465 . S
C728 C727 1.396 . S
C728 C729 1.399 . S
C729 H715 0.929 . S
C729 C728 1.399 . S
C729 C730 1.385 . S
C730 H716 0.931 . S
C730 C729 1.385 . S
C730 C731 1.389 . S
C731 C730 1.389 . S
C731 C732 1.387 . S
C732 H717 0.930 . S
C732 C727 1.390 . S
C732 C731 1.387 . S
H733 C745 0.930 . S
H734 C747 0.930 . S
H735 C748 0.930 . S
H736 C752 0.959 . S
H737 C752 0.959 . S
H738 C752 0.961 . S
H739 C753 0.960 . S
H740 C753 0.961 . S
H741 C753 0.959 . S
H742 C756 0.929 . S
H743 C757 0.931 . S
H744 C759 0.930 . S
C745 H733 0.930 . S
C745 C746 1.399 . S
C745 C750 1.399 . S
C746 C745 1.399 . S
C746 C747 1.376 . S
C747 H734 0.930 . S
C747 C746 1.376 . S
C747 C748 1.388 . S
C748 H735 0.930 . S
C748 C747 1.388 . S
C748 C749 1.390 . S
C749 C748 1.390 . S
C749 C750 1.394 . S
C749 C755 1.465 . S
C750 C745 1.399 . S
C750 C749 1.394 . S
C750 C751 1.516 . S
C751 C750 1.516 . S
C751 C752 1.502 . S
C751 C753 1.561 . S
C751 C754 1.526 . S
C752 H736 0.959 . S
C752 H737 0.959 . S
C752 H738 0.961 . S
C752 C751 1.502 . S
C753 H739 0.960 . S
C753 H740 0.961 . S
C753 H741 0.959 . S
C753 C751 1.561 . S
C754 C751 1.526 . S
C754 C755 1.396 . S
C754 C759 1.390 . S
C755 C749 1.465 . S
C755 C754 1.396 . S
C755 C756 1.399 . S
C756 H742 0.929 . S
C756 C755 1.399 . S
C756 C757 1.385 . S
C757 H743 0.931 . S
C757 C756 1.385 . S
C757 C758 1.389 . S
C758 C757 1.389 . S
C758 C759 1.387 . S
C759 H744 0.930 . S
C759 C754 1.390 . S
C759 C758 1.387 . S
H760 C772 0.930 . S
H761 C774 0.930 . S
H762 C775 0.930 . S
H763 C779 0.959 . S
H764 C779 0.959 1_556 S
H765 C779 0.961 . S
H766 C780 0.960 . S
H767 C780 0.961 1_556 S
H768 C780 0.959 1_556 S
H769 C783 0.929 . S
H770 C784 0.931 . S
H771 C786 0.930 . S
C772 H760 0.930 . S
C772 C773 1.399 . S
C772 C777 1.399 . S
C773 C772 1.399 . S
C773 C774 1.376 . S
C774 H761 0.930 . S
C774 C773 1.376 . S
C774 C775 1.388 . S
C775 H762 0.930 . S
C775 C774 1.388 . S
C775 C776 1.390 . S
C776 C775 1.390 . S
C776 C777 1.394 . S
C776 C782 1.465 1_554 S
C777 C772 1.399 . S
C777 C776 1.394 . S
C777 C778 1.516 . S
C778 C777 1.516 . S
C778 C779 1.502 . S
C778 C780 1.561 . S
C778 C781 1.526 1_554 S
C779 H763 0.959 . S
C779 H764 0.959 1_554 S
C779 H765 0.961 . S
C779 C778 1.502 . S
C780 H766 0.960 . S
C780 H767 0.961 1_554 S
C780 H768 0.959 1_554 S
C780 C778 1.561 . S
C781 C778 1.526 1_556 S
C781 C782 1.396 . S
C781 C786 1.390 . S
C782 C776 1.465 1_556 S
C782 C781 1.396 . S
C782 C783 1.399 . S
C783 H769 0.929 . S
C783 C782 1.399 . S
C783 C784 1.385 . S
C784 H770 0.931 . S
C784 C783 1.385 . S
C784 C785 1.389 . S
C785 C784 1.389 . S
C785 C786 1.387 . S
C786 H771 0.930 . S
C786 C781 1.390 . S
C786 C785 1.387 . S
H787 C799 0.930 . S
H788 C801 0.930 . S
H789 C802 0.930 . S
H790 C806 0.959 . S
H791 C806 0.959 . S
H792 C806 0.961 . S
H793 C807 0.960 . S
H794 C807 0.961 . S
H795 C807 0.959 . S
H796 C810 0.929 . S
H797 C811 0.931 . S
H798 C813 0.930 . S
C799 H787 0.930 . S
C799 C800 1.399 . S
C799 C804 1.399 . S
C800 C799 1.399 . S
C800 C801 1.376 . S
C801 H788 0.930 . S
C801 C800 1.376 . S
C801 C802 1.388 . S
C802 H789 0.930 . S
C802 C801 1.388 . S
C802 C803 1.390 . S
C803 C802 1.390 . S
C803 C804 1.394 . S
C803 C809 1.465 1_554 S
C804 C799 1.399 . S
C804 C803 1.394 . S
C804 C805 1.516 . S
C805 C804 1.516 . S
C805 C806 1.502 . S
C805 C807 1.561 . S
C805 C808 1.526 1_554 S
C806 H790 0.959 . S
C806 H791 0.959 . S
C806 H792 0.961 . S
C806 C805 1.502 . S
C807 H793 0.960 . S
C807 H794 0.961 . S
C807 H795 0.959 . S
C807 C805 1.561 . S
C808 C805 1.526 1_556 S
C808 C809 1.396 . S
C808 C813 1.390 . S
C809 C803 1.465 1_556 S
C809 C808 1.396 . S
C809 C810 1.399 . S
C810 H796 0.929 . S
C810 C809 1.399 . S
C810 C811 1.385 . S
C811 H797 0.931 . S
C811 C810 1.385 . S
C811 C812 1.389 . S
C812 C811 1.389 . S
C812 C813 1.387 . S
C813 H798 0.930 . S
C813 C808 1.390 . S
C813 C812 1.387 . S
H814 C826 0.930 . S
H815 C828 0.930 . S
H816 C829 0.930 . S
H817 C833 0.959 1_556 S
H818 C833 0.959 1_556 S
H819 C833 0.961 . S
H820 C834 0.960 . S
H821 C834 0.961 1_556 S
H822 C834 0.959 . S
H823 C837 0.929 . S
H824 C838 0.931 . S
H825 C840 0.930 . S
C826 H814 0.930 . S
C826 C827 1.399 . S
C826 C831 1.399 . S
C827 C826 1.399 . S
C827 C828 1.376 . S
C828 H815 0.930 . S
C828 C827 1.376 . S
C828 C829 1.388 . S
C829 H816 0.930 . S
C829 C828 1.388 . S
C829 C830 1.390 . S
C830 C829 1.390 . S
C830 C831 1.394 . S
C830 C836 1.465 1_554 S
C831 C826 1.399 . S
C831 C830 1.394 . S
C831 C832 1.516 . S
C832 C831 1.516 . S
C832 C833 1.502 . S
C832 C834 1.561 . S
C832 C835 1.526 1_554 S
C833 H817 0.959 1_554 S
C833 H818 0.959 1_554 S
C833 H819 0.961 . S
C833 C832 1.502 . S
C834 H820 0.960 . S
C834 H821 0.961 1_554 S
C834 H822 0.959 . S
C834 C832 1.561 . S
C835 C832 1.526 1_556 S
C835 C836 1.396 . S
C835 C840 1.390 . S
C836 C830 1.465 1_556 S
C836 C835 1.396 . S
C836 C837 1.399 . S
C837 H823 0.929 . S
C837 C836 1.399 . S
C837 C838 1.385 . S
C838 H824 0.931 . S
C838 C837 1.385 . S
C838 C839 1.389 . S
C839 C838 1.389 . S
C839 C840 1.387 . S
C840 H825 0.930 . S
C840 C835 1.390 . S
C840 C839 1.387 . S
H841 C853 0.930 . S
H842 C855 0.930 . S
H843 C856 0.930 . S
H844 C860 0.959 . S
H845 C860 0.959 . S
H846 C860 0.961 . S
H847 C861 0.960 . S
H848 C861 0.961 . S
H849 C861 0.959 . S
H850 C864 0.929 . S
H851 C865 0.931 . S
H852 C867 0.930 . S
C853 H841 0.930 . S
C853 C854 1.399 . S
C853 C858 1.399 . S
C854 C853 1.399 . S
C854 C855 1.376 . S
C855 H842 0.930 . S
C855 C854 1.376 . S
C855 C856 1.388 . S
C856 H843 0.930 . S
C856 C855 1.388 . S
C856 C857 1.390 . S
C857 C856 1.390 . S
C857 C858 1.394 . S
C857 C863 1.465 1_554 S
C858 C853 1.399 . S
C858 C857 1.394 . S
C858 C859 1.516 . S
C859 C858 1.516 . S
C859 C860 1.502 . S
C859 C861 1.561 . S
C859 C862 1.526 1_554 S
C860 H844 0.959 . S
C860 H845 0.959 . S
C860 H846 0.961 . S
C860 C859 1.502 . S
C861 H847 0.960 . S
C861 H848 0.961 . S
C861 H849 0.959 . S
C861 C859 1.561 . S
C862 C859 1.526 1_556 S
C862 C863 1.396 . S
C862 C867 1.390 . S
C863 C857 1.465 1_556 S
C863 C862 1.396 . S
C863 C864 1.399 . S
C864 H850 0.929 . S
C864 C863 1.399 . S
C864 C865 1.385 . S
C865 H851 0.931 . S
C865 C864 1.385 . S
C865 C866 1.389 . S
C866 C865 1.389 . S
C866 C867 1.387 . S
C867 H852 0.930 . S
C867 C862 1.390 . S
C867 C866 1.387 . S
H868 C880 0.930 . S
H869 C882 0.930 . S
H870 C883 0.930 . S
H871 C887 0.959 . S
H872 C887 0.959 . S
H873 C887 0.961 . S
H874 C888 0.960 1_554 S
H875 C888 0.961 . S
H876 C888 0.959 . S
H877 C891 0.929 . S
H878 C892 0.931 . S
H879 C894 0.930 . S
C880 H868 0.930 . S
C880 C881 1.399 . S
C880 C885 1.399 . S
C881 C880 1.399 . S
C881 C882 1.376 . S
C882 H869 0.930 . S
C882 C881 1.376 . S
C882 C883 1.388 . S
C883 H870 0.930 . S
C883 C882 1.388 . S
C883 C884 1.390 . S
C884 C883 1.390 . S
C884 C885 1.394 . S
C884 C890 1.465 1_554 S
C885 C880 1.399 . S
C885 C884 1.394 . S
C885 C886 1.516 1_554 S
C886 C885 1.516 1_556 S
C886 C887 1.502 . S
C886 C888 1.561 . S
C886 C889 1.526 . S
C887 H871 0.959 . S
C887 H872 0.959 . S
C887 H873 0.961 . S
C887 C886 1.502 . S
C888 H874 0.960 1_556 S
C888 H875 0.961 . S
C888 H876 0.959 . S
C888 C886 1.561 . S
C889 C886 1.526 . S
C889 C890 1.396 . S
C889 C894 1.390 . S
C890 C884 1.465 1_556 S
C890 C889 1.396 . S
C890 C891 1.399 . S
C891 H877 0.929 . S
C891 C890 1.399 . S
C891 C892 1.385 . S
C892 H878 0.931 . S
C892 C891 1.385 . S
C892 C893 1.389 . S
C893 C892 1.389 . S
C893 C894 1.387 . S
C894 H879 0.930 . S
C894 C889 1.390 . S
C894 C893 1.387 . S
H895 C907 0.930 . S
H896 C909 0.930 . S
H897 C910 0.930 . S
H898 C914 0.959 . S
H899 C914 0.959 . S
H900 C914 0.961 1_554 S
H901 C915 0.960 . S
H902 C915 0.961 1_556 S
H903 C915 0.959 . S
H904 C918 0.929 . S
H905 C919 0.931 . S
H906 C921 0.930 . S
C907 H895 0.930 . S
C907 C908 1.399 . S
C907 C912 1.399 . S
C908 C907 1.399 . S
C908 C909 1.376 . S
C909 H896 0.930 . S
C909 C908 1.376 . S
C909 C910 1.388 . S
C910 H897 0.930 . S
C910 C909 1.388 . S
C910 C911 1.390 . S
C911 C910 1.390 . S
C911 C912 1.394 . S
C911 C917 1.465 1_554 S
C912 C907 1.399 . S
C912 C911 1.394 . S
C912 C913 1.516 1_554 S
C913 C912 1.516 1_556 S
C913 C914 1.502 . S
C913 C915 1.561 1_556 S
C913 C916 1.526 . S
C914 H898 0.959 . S
C914 H899 0.959 . S
C914 H900 0.961 1_556 S
C914 C913 1.502 . S
C915 H901 0.960 . S
C915 H902 0.961 1_554 S
C915 H903 0.959 . S
C915 C913 1.561 1_554 S
C916 C913 1.526 . S
C916 C917 1.396 . S
C916 C921 1.390 . S
C917 C911 1.465 1_556 S
C917 C916 1.396 . S
C917 C918 1.399 . S
C918 H904 0.929 . S
C918 C917 1.399 . S
C918 C919 1.385 . S
C919 H905 0.931 . S
C919 C918 1.385 . S
C919 C920 1.389 . S
C920 C919 1.389 . S
C920 C921 1.387 . S
C921 H906 0.930 . S
C921 C916 1.390 . S
C921 C920 1.387 . S
H922 C934 0.930 . S
H923 C936 0.930 . S
H924 C937 0.930 . S
H925 C941 0.959 . S
H926 C941 0.959 1_556 S
H927 C941 0.961 . S
H928 C942 0.960 1_554 S
H929 C942 0.961 . S
H930 C942 0.959 . S
H931 C945 0.929 . S
H932 C946 0.931 . S
H933 C948 0.930 . S
C934 H922 0.930 . S
C934 C935 1.399 . S
C934 C939 1.399 . S
C935 C934 1.399 . S
C935 C936 1.376 . S
C936 H923 0.930 . S
C936 C935 1.376 . S
C936 C937 1.388 . S
C937 H924 0.930 . S
C937 C936 1.388 . S
C937 C938 1.390 . S
C938 C937 1.390 . S
C938 C939 1.394 . S
C938 C944 1.465 1_554 S
C939 C934 1.399 . S
C939 C938 1.394 . S
C939 C940 1.516 1_554 S
C940 C939 1.516 1_556 S
C940 C941 1.502 1_556 S
C940 C942 1.561 . S
C940 C943 1.526 . S
C941 H925 0.959 . S
C941 H926 0.959 1_554 S
C941 H927 0.961 . S
C941 C940 1.502 1_554 S
C942 H928 0.960 1_556 S
C942 H929 0.961 . S
C942 H930 0.959 . S
C942 C940 1.561 . S
C943 C940 1.526 . S
C943 C944 1.396 . S
C943 C948 1.390 . S
C944 C938 1.465 1_556 S
C944 C943 1.396 . S
C944 C945 1.399 . S
C945 H931 0.929 . S
C945 C944 1.399 . S
C945 C946 1.385 . S
C946 H932 0.931 . S
C946 C945 1.385 . S
C946 C947 1.389 . S
C947 C946 1.389 . S
C947 C948 1.387 . S
C948 H933 0.930 . S
C948 C943 1.390 . S
C948 C947 1.387 . S
H949 C961 0.930 . S
H950 C963 0.930 . S
H951 C964 0.930 . S
H952 C968 0.959 . S
H953 C968 0.959 . S
H954 C968 0.961 . S
H955 C969 0.960 1_554 S
H956 C969 0.961 . S
H957 C969 0.959 . S
H958 C972 0.929 . S
H959 C973 0.931 . S
H960 C975 0.930 . S
C961 H949 0.930 . S
C961 C962 1.399 . S
C961 C966 1.399 . S
C962 C961 1.399 . S
C962 C963 1.376 . S
C963 H950 0.930 . S
C963 C962 1.376 . S
C963 C964 1.388 . S
C964 H951 0.930 . S
C964 C963 1.388 . S
C964 C965 1.390 . S
C965 C964 1.390 . S
C965 C966 1.394 . S
C965 C971 1.465 1_554 S
C966 C961 1.399 . S
C966 C965 1.394 . S
C966 C967 1.516 1_554 S
C967 C966 1.516 1_556 S
C967 C968 1.502 . S
C967 C969 1.561 . S
C967 C970 1.526 . S
C968 H952 0.959 . S
C968 H953 0.959 . S
C968 H954 0.961 . S
C968 C967 1.502 . S
C969 H955 0.960 1_556 S
C969 H956 0.961 . S
C969 H957 0.959 . S
C969 C967 1.561 . S
C970 C967 1.526 . S
C970 C971 1.396 . S
C970 C975 1.390 . S
C971 C965 1.465 1_556 S
C971 C970 1.396 . S
C971 C972 1.399 . S
C972 H958 0.929 . S
C972 C971 1.399 . S
C972 C973 1.385 . S
C973 H959 0.931 . S
C973 C972 1.385 . S
C973 C974 1.389 . S
C974 C973 1.389 . S
C974 C975 1.387 . S
C975 H960 0.930 . S
C975 C970 1.390 . S
C975 C974 1.387 . S
H976 C988 0.930 . S
H977 C990 0.930 . S
H978 C991 0.930 . S
H979 C995 0.959 . S
H980 C995 0.959 . S
H981 C995 0.961 . S
H982 C996 0.960 . S
H983 C996 0.961 . S
H984 C996 0.959 . S
H985 C999 0.929 . S
H986 C1000 0.931 . S
H987 C1002 0.930 . S
C988 H976 0.930 . S
C988 C989 1.399 . S
C988 C993 1.399 . S
C989 C988 1.399 . S
C989 C990 1.376 . S
C990 H977 0.930 . S
C990 C989 1.376 . S
C990 C991 1.388 . S
C991 H978 0.930 . S
C991 C990 1.388 . S
C991 C992 1.390 . S
C992 C991 1.390 . S
C992 C993 1.394 . S
C992 C998 1.465 . S
C993 C988 1.399 . S
C993 C992 1.394 . S
C993 C994 1.516 . S
C994 C993 1.516 . S
C994 C995 1.502 . S
C994 C996 1.561 . S
C994 C997 1.526 . S
C995 H979 0.959 . S
C995 H980 0.959 . S
C995 H981 0.961 . S
C995 C994 1.502 . S
C996 H982 0.960 . S
C996 H983 0.961 . S
C996 H984 0.959 . S
C996 C994 1.561 . S
C997 C994 1.526 . S
C997 C998 1.396 . S
C997 C1002 1.390 . S
C998 C992 1.465 . S
C998 C997 1.396 . S
C998 C999 1.399 . S
C999 H985 0.929 . S
C999 C998 1.399 . S
C999 C1000 1.385 . S
C1000 H986 0.931 . S
C1000 C999 1.385 . S
C1000 C1001 1.389 . S
C1001 C1000 1.389 . S
C1001 C1002 1.387 . S
C1002 H987 0.930 . S
C1002 C997 1.390 . S
C1002 C1001 1.387 . S
H1003 C1015 0.930 . S
H1004 C1017 0.930 . S
H1005 C1018 0.930 . S
H1006 C1022 0.959 . S
H1007 C1022 0.959 . S
H1008 C1022 0.961 . S
H1009 C1023 0.960 . S
H1010 C1023 0.961 . S
H1011 C1023 0.959 . S
H1012 C1026 0.929 . S
H1013 C1027 0.931 . S
H1014 C1029 0.930 . S
C1015 H1003 0.930 . S
C1015 C1016 1.399 . S
C1015 C1020 1.399 . S
C1016 C1015 1.399 . S
C1016 C1017 1.376 . S
C1017 H1004 0.930 . S
C1017 C1016 1.376 . S
C1017 C1018 1.388 . S
C1018 H1005 0.930 . S
C1018 C1017 1.388 . S
C1018 C1019 1.390 . S
C1019 C1018 1.390 . S
C1019 C1020 1.394 . S
C1019 C1025 1.465 . S
C1020 C1015 1.399 . S
C1020 C1019 1.394 . S
C1020 C1021 1.516 . S
C1021 C1020 1.516 . S
C1021 C1022 1.502 . S
C1021 C1023 1.561 . S
C1021 C1024 1.526 . S
C1022 H1006 0.959 . S
C1022 H1007 0.959 . S
C1022 H1008 0.961 . S
C1022 C1021 1.502 . S
C1023 H1009 0.960 . S
C1023 H1010 0.961 . S
C1023 H1011 0.959 . S
C1023 C1021 1.561 . S
C1024 C1021 1.526 . S
C1024 C1025 1.396 . S
C1024 C1029 1.390 . S
C1025 C1019 1.465 . S
C1025 C1024 1.396 . S
C1025 C1026 1.399 . S
C1026 H1012 0.929 . S
C1026 C1025 1.399 . S
C1026 C1027 1.385 . S
C1027 H1013 0.931 . S
C1027 C1026 1.385 . S
C1027 C1028 1.389 . S
C1028 C1027 1.389 . S
C1028 C1029 1.387 . S
C1029 H1014 0.930 . S
C1029 C1024 1.390 . S
C1029 C1028 1.387 . S
H1030 C1042 0.930 . S
H1031 C1044 0.930 . S
H1032 C1045 0.930 . S
H1033 C1049 0.959 . S
H1034 C1049 0.959 . S
H1035 C1049 0.961 . S
H1036 C1050 0.960 . S
H1037 C1050 0.961 . S
H1038 C1050 0.959 . S
H1039 C1053 0.929 . S
H1040 C1054 0.931 . S
H1041 C1056 0.930 . S
C1042 H1030 0.930 . S
C1042 C1043 1.399 . S
C1042 C1047 1.399 . S
C1043 C1042 1.399 . S
C1043 C1044 1.376 . S
C1044 H1031 0.930 . S
C1044 C1043 1.376 . S
C1044 C1045 1.388 . S
C1045 H1032 0.930 . S
C1045 C1044 1.388 . S
C1045 C1046 1.390 . S
C1046 C1045 1.390 . S
C1046 C1047 1.394 . S
C1046 C1052 1.465 . S
C1047 C1042 1.399 . S
C1047 C1046 1.394 . S
C1047 C1048 1.516 . S
C1048 C1047 1.516 . S
C1048 C1049 1.502 . S
C1048 C1050 1.561 . S
C1048 C1051 1.526 . S
C1049 H1033 0.959 . S
C1049 H1034 0.959 . S
C1049 H1035 0.961 . S
C1049 C1048 1.502 . S
C1050 H1036 0.960 . S
C1050 H1037 0.961 . S
C1050 H1038 0.959 . S
C1050 C1048 1.561 . S
C1051 C1048 1.526 . S
C1051 C1052 1.396 . S
C1051 C1056 1.390 . S
C1052 C1046 1.465 . S
C1052 C1051 1.396 . S
C1052 C1053 1.399 . S
C1053 H1039 0.929 . S
C1053 C1052 1.399 . S
C1053 C1054 1.385 . S
C1054 H1040 0.931 . S
C1054 C1053 1.385 . S
C1054 C1055 1.389 . S
C1055 C1054 1.389 . S
C1055 C1056 1.387 . S
C1056 H1041 0.930 . S
C1056 C1051 1.390 . S
C1056 C1055 1.387 . S
H1057 C1069 0.930 . S
H1058 C1071 0.930 . S
H1059 C1072 0.930 . S
H1060 C1076 0.959 . S
H1061 C1076 0.959 . S
H1062 C1076 0.961 . S
H1063 C1077 0.960 . S
H1064 C1077 0.961 . S
H1065 C1077 0.959 . S
H1066 C1080 0.929 . S
H1067 C1081 0.931 . S
H1068 C1083 0.930 . S
C1069 H1057 0.930 . S
C1069 C1070 1.399 . S
C1069 C1074 1.399 . S
C1070 C1069 1.399 . S
C1070 C1071 1.376 . S
C1071 H1058 0.930 . S
C1071 C1070 1.376 . S
C1071 C1072 1.388 . S
C1072 H1059 0.930 . S
C1072 C1071 1.388 . S
C1072 C1073 1.390 . S
C1073 C1072 1.390 . S
C1073 C1074 1.394 . S
C1073 C1079 1.465 . S
C1074 C1069 1.399 . S
C1074 C1073 1.394 . S
C1074 C1075 1.516 . S
C1075 C1074 1.516 . S
C1075 C1076 1.502 . S
C1075 C1077 1.561 . S
C1075 C1078 1.526 . S
C1076 H1060 0.959 . S
C1076 H1061 0.959 . S
C1076 H1062 0.961 . S
C1076 C1075 1.502 . S
C1077 H1063 0.960 . S
C1077 H1064 0.961 . S
C1077 H1065 0.959 . S
C1077 C1075 1.561 . S
C1078 C1075 1.526 . S
C1078 C1079 1.396 . S
C1078 C1083 1.390 . S
C1079 C1073 1.465 . S
C1079 C1078 1.396 . S
C1079 C1080 1.399 . S
C1080 H1066 0.929 . S
C1080 C1079 1.399 . S
C1080 C1081 1.385 . S
C1081 H1067 0.931 . S
C1081 C1080 1.385 . S
C1081 C1082 1.389 . S
C1082 C1081 1.389 . S
C1082 C1083 1.387 . S
C1083 H1068 0.930 . S
C1083 C1078 1.390 . S
C1083 C1082 1.387 . S
H1084 C1096 0.930 . S
H1085 C1098 0.930 . S
H1086 C1099 0.930 . S
H1087 C1103 0.959 . S
H1088 C1103 0.959 . S
H1089 C1103 0.961 . S
H1090 C1104 0.960 . S
H1091 C1104 0.961 . S
H1092 C1104 0.959 . S
H1093 C1107 0.929 . S
H1094 C1108 0.931 . S
H1095 C1110 0.930 . S
C1096 H1084 0.930 . S
C1096 C1097 1.399 . S
C1096 C1101 1.399 . S
C1097 C1096 1.399 . S
C1097 C1098 1.376 . S
C1098 H1085 0.930 . S
C1098 C1097 1.376 . S
C1098 C1099 1.388 . S
C1099 H1086 0.930 . S
C1099 C1098 1.388 . S
C1099 C1100 1.390 . S
C1100 C1099 1.390 . S
C1100 C1101 1.394 . S
C1100 C1106 1.465 . S
C1101 C1096 1.399 . S
C1101 C1100 1.394 . S
C1101 C1102 1.516 . S
C1102 C1101 1.516 . S
C1102 C1103 1.502 . S
C1102 C1104 1.561 . S
C1102 C1105 1.526 . S
C1103 H1087 0.959 . S
C1103 H1088 0.959 . S
C1103 H1089 0.961 . S
C1103 C1102 1.502 . S
C1104 H1090 0.960 . S
C1104 H1091 0.961 . S
C1104 H1092 0.959 . S
C1104 C1102 1.561 . S
C1105 C1102 1.526 . S
C1105 C1106 1.396 . S
C1105 C1110 1.390 . S
C1106 C1100 1.465 . S
C1106 C1105 1.396 . S
C1106 C1107 1.399 . S
C1107 H1093 0.929 . S
C1107 C1106 1.399 . S
C1107 C1108 1.385 . S
C1108 H1094 0.931 . S
C1108 C1107 1.385 . S
C1108 C1109 1.389 . S
C1109 C1108 1.389 . S
C1109 C1110 1.387 . S
C1110 H1095 0.930 . S
C1110 C1105 1.390 . S
C1110 C1109 1.387 . S
H1111 C1123 0.930 . S
H1112 C1125 0.930 . S
H1113 C1126 0.930 . S
H1114 C1130 0.959 . S
H1115 C1130 0.959 . S
H1116 C1130 0.961 . S
H1117 C1131 0.960 . S
H1118 C1131 0.961 . S
H1119 C1131 0.959 . S
H1120 C1134 0.929 . S
H1121 C1135 0.931 . S
H1122 C1137 0.930 . S
C1123 H1111 0.930 . S
C1123 C1124 1.399 . S
C1123 C1128 1.399 . S
C1124 C1123 1.399 . S
C1124 C1125 1.376 . S
C1125 H1112 0.930 . S
C1125 C1124 1.376 . S
C1125 C1126 1.388 . S
C1126 H1113 0.930 . S
C1126 C1125 1.388 . S
C1126 C1127 1.390 . S
C1127 C1126 1.390 . S
C1127 C1128 1.394 . S
C1127 C1133 1.465 . S
C1128 C1123 1.399 . S
C1128 C1127 1.394 . S
C1128 C1129 1.516 . S
C1129 C1128 1.516 . S
C1129 C1130 1.502 . S
C1129 C1131 1.561 . S
C1129 C1132 1.526 . S
C1130 H1114 0.959 . S
C1130 H1115 0.959 . S
C1130 H1116 0.961 . S
C1130 C1129 1.502 . S
C1131 H1117 0.960 . S
C1131 H1118 0.961 . S
C1131 H1119 0.959 . S
C1131 C1129 1.561 . S
C1132 C1129 1.526 . S
C1132 C1133 1.396 . S
C1132 C1137 1.390 . S
C1133 C1127 1.465 . S
C1133 C1132 1.396 . S
C1133 C1134 1.399 . S
C1134 H1120 0.929 . S
C1134 C1133 1.399 . S
C1134 C1135 1.385 . S
C1135 H1121 0.931 . S
C1135 C1134 1.385 . S
C1135 C1136 1.389 . S
C1136 C1135 1.389 . S
C1136 C1137 1.387 . S
C1137 H1122 0.930 . S
C1137 C1132 1.390 . S
C1137 C1136 1.387 . S
H1138 C1150 0.930 . S
H1139 C1152 0.930 . S
H1140 C1153 0.930 . S
H1141 C1157 0.959 . S
H1142 C1157 0.959 . S
H1143 C1157 0.961 . S
H1144 C1158 0.960 . S
H1145 C1158 0.961 . S
H1146 C1158 0.959 . S
H1147 C1161 0.929 . S
H1148 C1162 0.931 . S
H1149 C1164 0.930 . S
C1150 H1138 0.930 . S
C1150 C1151 1.399 . S
C1150 C1155 1.399 . S
C1151 C1150 1.399 . S
C1151 C1152 1.376 . S
C1152 H1139 0.930 . S
C1152 C1151 1.376 . S
C1152 C1153 1.388 . S
C1153 H1140 0.930 . S
C1153 C1152 1.388 . S
C1153 C1154 1.390 . S
C1154 C1153 1.390 . S
C1154 C1155 1.394 . S
C1154 C1160 1.465 . S
C1155 C1150 1.399 . S
C1155 C1154 1.394 . S
C1155 C1156 1.516 . S
C1156 C1155 1.516 . S
C1156 C1157 1.502 . S
C1156 C1158 1.561 . S
C1156 C1159 1.526 . S
C1157 H1141 0.959 . S
C1157 H1142 0.959 . S
C1157 H1143 0.961 . S
C1157 C1156 1.502 . S
C1158 H1144 0.960 . S
C1158 H1145 0.961 . S
C1158 H1146 0.959 . S
C1158 C1156 1.561 . S
C1159 C1156 1.526 . S
C1159 C1160 1.396 . S
C1159 C1164 1.390 . S
C1160 C1154 1.465 . S
C1160 C1159 1.396 . S
C1160 C1161 1.399 . S
C1161 H1147 0.929 . S
C1161 C1160 1.399 . S
C1161 C1162 1.385 . S
C1162 H1148 0.931 . S
C1162 C1161 1.385 . S
C1162 C1163 1.389 . S
C1163 C1162 1.389 . S
C1163 C1164 1.387 . S
C1164 H1149 0.930 . S
C1164 C1159 1.390 . S
C1164 C1163 1.387 . S
H1165 C1177 0.930 . S
H1166 C1179 0.930 . S
H1167 C1180 0.930 . S
H1168 C1184 0.959 . S
H1169 C1184 0.959 . S
H1170 C1184 0.961 . S
H1171 C1185 0.960 . S
H1172 C1185 0.961 . S
H1173 C1185 0.959 . S
H1174 C1188 0.929 . S
H1175 C1189 0.931 . S
H1176 C1191 0.930 . S
C1177 H1165 0.930 . S
C1177 C1178 1.399 . S
C1177 C1182 1.399 . S
C1178 C1177 1.399 . S
C1178 C1179 1.376 . S
C1179 H1166 0.930 . S
C1179 C1178 1.376 . S
C1179 C1180 1.388 . S
C1180 H1167 0.930 . S
C1180 C1179 1.388 . S
C1180 C1181 1.390 . S
C1181 C1180 1.390 . S
C1181 C1182 1.394 . S
C1181 C1187 1.465 . S
C1182 C1177 1.399 . S
C1182 C1181 1.394 . S
C1182 C1183 1.516 . S
C1183 C1182 1.516 . S
C1183 C1184 1.502 . S
C1183 C1185 1.561 . S
C1183 C1186 1.526 . S
C1184 H1168 0.959 . S
C1184 H1169 0.959 . S
C1184 H1170 0.961 . S
C1184 C1183 1.502 . S
C1185 H1171 0.960 . S
C1185 H1172 0.961 . S
C1185 H1173 0.959 . S
C1185 C1183 1.561 . S
C1186 C1183 1.526 . S
C1186 C1187 1.396 . S
C1186 C1191 1.390 . S
C1187 C1181 1.465 . S
C1187 C1186 1.396 . S
C1187 C1188 1.399 . S
C1188 H1174 0.929 . S
C1188 C1187 1.399 . S
C1188 C1189 1.385 . S
C1189 H1175 0.931 . S
C1189 C1188 1.385 . S
C1189 C1190 1.389 . S
C1190 C1189 1.389 . S
C1190 C1191 1.387 . S
C1191 H1176 0.930 . S
C1191 C1186 1.390 . S
C1191 C1190 1.387 . S
H1192 C1204 0.930 . S
H1193 C1206 0.930 . S
H1194 C1207 0.930 . S
H1195 C1211 0.959 . S
H1196 C1211 0.959 . S
H1197 C1211 0.961 1_545 S
H1198 C1212 0.960 1_545 S
H1199 C1212 0.961 . S
H1200 C1212 0.959 . S
H1201 C1215 0.929 . S
H1202 C1216 0.931 . S
H1203 C1218 0.930 . S
C1204 H1192 0.930 . S
C1204 C1205 1.399 . S
C1204 C1209 1.399 . S
C1205 C1204 1.399 . S
C1205 C1206 1.376 1_554 S
C1206 H1193 0.930 . S
C1206 C1205 1.376 1_556 S
C1206 C1207 1.388 . S
C1207 H1194 0.930 . S
C1207 C1206 1.388 . S
C1207 C1208 1.390 . S
C1208 C1207 1.390 . S
C1208 C1209 1.394 1_556 S
C1208 C1214 1.465 1_545 S
C1209 C1204 1.399 . S
C1209 C1208 1.394 1_554 S
C1209 C1210 1.516 1_545 S
C1210 C1209 1.516 1_565 S
C1210 C1211 1.502 . S
C1210 C1212 1.561 . S
C1210 C1213 1.526 . S
C1211 H1195 0.959 . S
C1211 H1196 0.959 . S
C1211 H1197 0.961 1_565 S
C1211 C1210 1.502 . S
C1212 H1198 0.960 1_565 S
C1212 H1199 0.961 . S
C1212 H1200 0.959 . S
C1212 C1210 1.561 . S
C1213 C1210 1.526 . S
C1213 C1214 1.396 1_554 S
C1213 C1218 1.390 . S
C1214 C1208 1.465 1_565 S
C1214 C1213 1.396 1_556 S
C1214 C1215 1.399 . S
C1215 H1201 0.929 . S
C1215 C1214 1.399 . S
C1215 C1216 1.385 . S
C1216 H1202 0.931 . S
C1216 C1215 1.385 . S
C1216 C1217 1.389 . S
C1217 C1216 1.389 . S
C1217 C1218 1.387 1_556 S
C1218 H1203 0.930 . S
C1218 C1213 1.390 . S
C1218 C1217 1.387 1_554 S
H1219 C1231 0.930 . S
H1220 C1233 0.930 . S
H1221 C1234 0.930 . S
H1222 C1238 0.959 . S
H1223 C1238 0.959 . S
H1224 C1238 0.961 1_455 S
H1225 C1239 0.960 . S
H1226 C1239 0.961 1_655 S
H1227 C1239 0.959 . S
H1228 C1242 0.929 . S
H1229 C1243 0.931 . S
H1230 C1245 0.930 . S
C1231 H1219 0.930 . S
C1231 C1232 1.399 . S
C1231 C1236 1.399 . S
C1232 C1231 1.399 . S
C1232 C1233 1.376 . S
C1233 H1220 0.930 . S
C1233 C1232 1.376 . S
C1233 C1234 1.388 1_556 S
C1234 H1221 0.930 . S
C1234 C1233 1.388 1_554 S
C1234 C1235 1.390 . S
C1235 C1234 1.390 . S
C1235 C1236 1.394 1_554 S
C1235 C1241 1.465 1_455 S
C1236 C1231 1.399 . S
C1236 C1235 1.394 1_556 S
C1236 C1237 1.506 1_455 S
C1237 C1236 1.506 1_655 S
C1237 C1238 1.504 . S
C1237 C1239 1.560 1_656 S
C1237 C1240 1.536 1_556 S
C1238 H1222 0.959 . S
C1238 H1223 0.959 . S
C1238 H1224 0.961 1_655 S
C1238 C1237 1.504 . S
C1239 H1225 0.960 . S
C1239 H1226 0.961 1_455 S
C1239 H1227 0.959 . S
C1239 C1237 1.560 1_454 S
C1240 C1237 1.536 1_554 S
C1240 C1241 1.396 . S
C1240 C1245 1.390 . S
C1241 C1235 1.465 1_655 S
C1241 C1240 1.396 . S
C1241 C1242 1.399 . S
C1242 H1228 0.929 . S
C1242 C1241 1.399 . S
C1242 C1243 1.385 . S
C1243 H1229 0.931 . S
C1243 C1242 1.385 . S
C1243 C1244 1.389 . S
C1244 C1243 1.389 . S
C1244 C1245 1.387 . S
C1245 H1230 0.930 . S
C1245 C1240 1.390 . S
C1245 C1244 1.387 . S
H1246 C1258 0.930 . S
H1247 C1260 0.930 . S
H1248 C1261 0.930 . S
H1249 C1265 0.959 . S
H1250 C1265 0.959 . S
H1251 C1265 0.961 1_565 S
H1252 C1266 0.960 1_565 S
H1253 C1266 0.961 . S
H1254 C1266 0.959 . S
H1255 C1269 0.929 . S
H1256 C1270 0.931 . S
H1257 C1272 0.930 . S
C1258 H1246 0.930 . S
C1258 C1259 1.399 . S
C1258 C1263 1.399 . S
C1259 C1258 1.399 . S
C1259 C1260 1.376 1_554 S
C1260 H1247 0.930 . S
C1260 C1259 1.376 1_556 S
C1260 C1261 1.388 . S
C1261 H1248 0.930 . S
C1261 C1260 1.388 . S
C1261 C1262 1.390 . S
C1262 C1261 1.390 . S
C1262 C1263 1.394 1_556 S
C1262 C1268 1.465 1_565 S
C1263 C1258 1.399 . S
C1263 C1262 1.394 1_554 S
C1263 C1264 1.516 1_565 S
C1264 C1263 1.516 1_545 S
C1264 C1265 1.502 . S
C1264 C1266 1.561 . S
C1264 C1267 1.526 . S
C1265 H1249 0.959 . S
C1265 H1250 0.959 . S
C1265 H1251 0.961 1_545 S
C1265 C1264 1.502 . S
C1266 H1252 0.960 1_545 S
C1266 H1253 0.961 . S
C1266 H1254 0.959 . S
C1266 C1264 1.561 . S
C1267 C1264 1.526 . S
C1267 C1268 1.396 1_554 S
C1267 C1272 1.390 . S
C1268 C1262 1.465 1_545 S
C1268 C1267 1.396 1_556 S
C1268 C1269 1.399 . S
C1269 H1255 0.929 . S
C1269 C1268 1.399 . S
C1269 C1270 1.385 . S
C1270 H1256 0.931 . S
C1270 C1269 1.385 . S
C1270 C1271 1.389 . S
C1271 C1270 1.389 . S
C1271 C1272 1.387 1_556 S
C1272 H1257 0.930 . S
C1272 C1267 1.390 . S
C1272 C1271 1.387 1_554 S
H1273 C1285 0.930 1_554 S
H1274 C1287 0.930 . S
H1275 C1288 0.930 . S
H1276 C1292 0.959 . S
H1277 C1292 0.959 1_455 S
H1278 C1292 0.961 . S
H1279 C1293 0.960 1_655 S
H1280 C1293 0.961 . S
H1281 C1293 0.959 . S
H1282 C1296 0.929 . S
H1283 C1297 0.931 . S
H1284 C1299 0.930 . S
C1285 H1273 0.930 1_556 S
C1285 C1286 1.399 . S
C1285 C1290 1.399 . S
C1286 C1285 1.399 . S
C1286 C1287 1.376 . S
C1287 H1274 0.930 . S
C1287 C1286 1.376 . S
C1287 C1288 1.388 . S
C1288 H1275 0.930 . S
C1288 C1287 1.388 . S
C1288 C1289 1.390 . S
C1289 C1288 1.390 . S
C1289 C1290 1.394 . S
C1289 C1295 1.465 1_655 S
C1290 C1285 1.399 . S
C1290 C1289 1.394 . S
C1290 C1291 1.559 1_556 S
C1291 C1290 1.559 1_554 S
C1291 C1292 1.511 . S
C1291 C1293 1.556 1_654 S
C1291 C1294 1.481 1_655 S
C1292 H1276 0.959 . S
C1292 H1277 0.959 1_655 S
C1292 H1278 0.961 . S
C1292 C1291 1.511 . S
C1293 H1279 0.960 1_455 S
C1293 H1280 0.961 . S
C1293 H1281 0.959 . S
C1293 C1291 1.556 1_456 S
C1294 C1291 1.481 1_455 S
C1294 C1295 1.396 1_554 S
C1294 C1299 1.390 . S
C1295 C1289 1.465 1_455 S
C1295 C1294 1.396 1_556 S
C1295 C1296 1.399 . S
C1296 H1282 0.929 . S
C1296 C1295 1.399 . S
C1296 C1297 1.385 . S
C1297 H1283 0.931 . S
C1297 C1296 1.385 . S
C1297 C1298 1.389 1_556 S
C1298 C1297 1.389 1_554 S
C1298 C1299 1.387 . S
C1299 H1284 0.930 . S
C1299 C1294 1.390 . S
C1299 C1298 1.387 . S
H1300 C1312 0.930 . S
H1301 C1314 0.930 . S
H1302 C1315 0.930 . S
H1303 C1319 0.959 . S
H1304 C1319 0.959 . S
H1305 C1319 0.961 . S
H1306 C1320 0.960 . S
H1307 C1320 0.961 . S
H1308 C1320 0.959 . S
H1309 C1323 0.929 . S
H1310 C1324 0.931 . S
H1311 C1326 0.930 . S
C1312 H1300 0.930 . S
C1312 C1313 1.399 . S
C1312 C1317 1.399 . S
C1313 C1312 1.399 . S
C1313 C1314 1.376 . S
C1314 H1301 0.930 . S
C1314 C1313 1.376 . S
C1314 C1315 1.388 . S
C1315 H1302 0.930 . S
C1315 C1314 1.388 . S
C1315 C1316 1.390 . S
C1316 C1315 1.390 . S
C1316 C1317 1.394 . S
C1316 C1322 1.465 . S
C1317 C1312 1.399 . S
C1317 C1316 1.394 . S
C1317 C1318 1.516 . S
C1318 C1317 1.516 . S
C1318 C1319 1.502 . S
C1318 C1320 1.561 . S
C1318 C1321 1.526 . S
C1319 H1303 0.959 . S
C1319 H1304 0.959 . S
C1319 H1305 0.961 . S
C1319 C1318 1.502 . S
C1320 H1306 0.960 . S
C1320 H1307 0.961 . S
C1320 H1308 0.959 . S
C1320 C1318 1.561 . S
C1321 C1318 1.526 . S
C1321 C1322 1.396 . S
C1321 C1326 1.390 . S
C1322 C1316 1.465 . S
C1322 C1321 1.396 . S
C1322 C1323 1.399 . S
C1323 H1309 0.929 . S
C1323 C1322 1.399 . S
C1323 C1324 1.385 . S
C1324 H1310 0.931 . S
C1324 C1323 1.385 . S
C1324 C1325 1.389 . S
C1325 C1324 1.389 . S
C1325 C1326 1.387 . S
C1326 H1311 0.930 . S
C1326 C1321 1.390 . S
C1326 C1325 1.387 . S
H1327 C1339 0.930 . S
H1328 C1341 0.930 . S
H1329 C1342 0.930 . S
H1330 C1346 0.959 . S
H1331 C1346 0.959 . S
H1332 C1346 0.961 . S
H1333 C1347 0.960 . S
H1334 C1347 0.961 . S
H1335 C1347 0.959 . S
H1336 C1350 0.929 . S
H1337 C1351 0.931 . S
H1338 C1353 0.930 . S
C1339 H1327 0.930 . S
C1339 C1340 1.399 . S
C1339 C1344 1.399 . S
C1340 C1339 1.399 . S
C1340 C1341 1.376 . S
C1341 H1328 0.930 . S
C1341 C1340 1.376 . S
C1341 C1342 1.388 . S
C1342 H1329 0.930 . S
C1342 C1341 1.388 . S
C1342 C1343 1.390 . S
C1343 C1342 1.390 . S
C1343 C1344 1.394 . S
C1343 C1349 1.465 . S
C1344 C1339 1.399 . S
C1344 C1343 1.394 . S
C1344 C1345 1.516 . S
C1345 C1344 1.516 . S
C1345 C1346 1.502 . S
C1345 C1347 1.561 . S
C1345 C1348 1.526 . S
C1346 H1330 0.959 . S
C1346 H1331 0.959 . S
C1346 H1332 0.961 . S
C1346 C1345 1.502 . S
C1347 H1333 0.960 . S
C1347 H1334 0.961 . S
C1347 H1335 0.959 . S
C1347 C1345 1.561 . S
C1348 C1345 1.526 . S
C1348 C1349 1.396 . S
C1348 C1353 1.390 . S
C1349 C1343 1.465 . S
C1349 C1348 1.396 . S
C1349 C1350 1.399 . S
C1350 H1336 0.929 . S
C1350 C1349 1.399 . S
C1350 C1351 1.385 . S
C1351 H1337 0.931 . S
C1351 C1350 1.385 . S
C1351 C1352 1.389 . S
C1352 C1351 1.389 . S
C1352 C1353 1.387 . S
C1353 H1338 0.930 . S
C1353 C1348 1.390 . S
C1353 C1352 1.387 . S
H1354 C1366 0.930 . S
H1355 C1368 0.930 . S
H1356 C1369 0.930 . S
H1357 C1373 0.959 . S
H1358 C1373 0.959 . S
H1359 C1373 0.961 . S
H1360 C1374 0.960 . S
H1361 C1374 0.961 . S
H1362 C1374 0.959 . S
H1363 C1377 0.929 . S
H1364 C1378 0.931 . S
H1365 C1380 0.930 . S
C1366 H1354 0.930 . S
C1366 C1367 1.399 . S
C1366 C1371 1.399 . S
C1367 C1366 1.399 . S
C1367 C1368 1.376 . S
C1368 H1355 0.930 . S
C1368 C1367 1.376 . S
C1368 C1369 1.388 . S
C1369 H1356 0.930 . S
C1369 C1368 1.388 . S
C1369 C1370 1.390 . S
C1370 C1369 1.390 . S
C1370 C1371 1.394 . S
C1370 C1376 1.465 . S
C1371 C1366 1.399 . S
C1371 C1370 1.394 . S
C1371 C1372 1.516 . S
C1372 C1371 1.516 . S
C1372 C1373 1.502 . S
C1372 C1374 1.561 . S
C1372 C1375 1.526 . S
C1373 H1357 0.959 . S
C1373 H1358 0.959 . S
C1373 H1359 0.961 . S
C1373 C1372 1.502 . S
C1374 H1360 0.960 . S
C1374 H1361 0.961 . S
C1374 H1362 0.959 . S
C1374 C1372 1.561 . S
C1375 C1372 1.526 . S
C1375 C1376 1.396 . S
C1375 C1380 1.390 . S
C1376 C1370 1.465 . S
C1376 C1375 1.396 . S
C1376 C1377 1.399 . S
C1377 H1363 0.929 . S
C1377 C1376 1.399 . S
C1377 C1378 1.385 . S
C1378 H1364 0.931 . S
C1378 C1377 1.385 . S
C1378 C1379 1.389 . S
C1379 C1378 1.389 . S
C1379 C1380 1.387 . S
C1380 H1365 0.930 . S
C1380 C1375 1.390 . S
C1380 C1379 1.387 . S
H1381 C1393 0.930 . S
H1382 C1395 0.930 . S
H1383 C1396 0.930 . S
H1384 C1400 0.959 . S
H1385 C1400 0.959 . S
H1386 C1400 0.961 . S
H1387 C1401 0.960 . S
H1388 C1401 0.961 . S
H1389 C1401 0.959 . S
H1390 C1404 0.929 . S
H1391 C1405 0.931 . S
H1392 C1407 0.930 . S
C1393 H1381 0.930 . S
C1393 C1394 1.399 . S
C1393 C1398 1.399 . S
C1394 C1393 1.399 . S
C1394 C1395 1.376 . S
C1395 H1382 0.930 . S
C1395 C1394 1.376 . S
C1395 C1396 1.388 . S
C1396 H1383 0.930 . S
C1396 C1395 1.388 . S
C1396 C1397 1.390 . S
C1397 C1396 1.390 . S
C1397 C1398 1.394 . S
C1397 C1403 1.465 . S
C1398 C1393 1.399 . S
C1398 C1397 1.394 . S
C1398 C1399 1.516 . S
C1399 C1398 1.516 . S
C1399 C1400 1.502 . S
C1399 C1401 1.561 . S
C1399 C1402 1.526 . S
C1400 H1384 0.959 . S
C1400 H1385 0.959 . S
C1400 H1386 0.961 . S
C1400 C1399 1.502 . S
C1401 H1387 0.960 . S
C1401 H1388 0.961 . S
C1401 H1389 0.959 . S
C1401 C1399 1.561 . S
C1402 C1399 1.526 . S
C1402 C1403 1.396 . S
C1402 C1407 1.390 . S
C1403 C1397 1.465 . S
C1403 C1402 1.396 . S
C1403 C1404 1.399 . S
C1404 H1390 0.929 . S
C1404 C1403 1.399 . S
C1404 C1405 1.385 . S
C1405 H1391 0.931 . S
C1405 C1404 1.385 . S
C1405 C1406 1.389 . S
C1406 C1405 1.389 . S
C1406 C1407 1.387 . S
C1407 H1392 0.930 . S
C1407 C1402 1.390 . S
C1407 C1406 1.387 . S
H1408 C1420 0.930 . S
H1409 C1422 0.930 . S
H1410 C1423 0.930 . S
H1411 C1427 0.959 . S
H1412 C1427 0.959 . S
H1413 C1427 0.961 . S
H1414 C1428 0.960 . S
H1415 C1428 0.961 . S
H1416 C1428 0.959 . S
H1417 C1431 0.929 . S
H1418 C1432 0.931 . S
H1419 C1434 0.930 . S
C1420 H1408 0.930 . S
C1420 C1421 1.399 . S
C1420 C1425 1.399 . S
C1421 C1420 1.399 . S
C1421 C1422 1.376 1_554 S
C1422 H1409 0.930 . S
C1422 C1421 1.376 1_556 S
C1422 C1423 1.388 . S
C1423 H1410 0.930 . S
C1423 C1422 1.388 . S
C1423 C1424 1.390 . S
C1424 C1423 1.390 . S
C1424 C1425 1.394 1_556 S
C1424 C1430 1.465 . S
C1425 C1420 1.399 . S
C1425 C1424 1.394 1_554 S
C1425 C1426 1.516 . S
C1426 C1425 1.516 . S
C1426 C1427 1.502 . S
C1426 C1428 1.561 . S
C1426 C1429 1.526 . S
C1427 H1411 0.959 . S
C1427 H1412 0.959 . S
C1427 H1413 0.961 . S
C1427 C1426 1.502 . S
C1428 H1414 0.960 . S
C1428 H1415 0.961 . S
C1428 H1416 0.959 . S
C1428 C1426 1.561 . S
C1429 C1426 1.526 . S
C1429 C1430 1.396 1_554 S
C1429 C1434 1.390 . S
C1430 C1424 1.465 . S
C1430 C1429 1.396 1_556 S
C1430 C1431 1.399 . S
C1431 H1417 0.929 . S
C1431 C1430 1.399 . S
C1431 C1432 1.385 . S
C1432 H1418 0.931 . S
C1432 C1431 1.385 . S
C1432 C1433 1.389 . S
C1433 C1432 1.389 . S
C1433 C1434 1.387 1_556 S
C1434 H1419 0.930 . S
C1434 C1429 1.390 . S
C1434 C1433 1.387 1_554 S
H1435 C1447 0.930 . S
H1436 C1449 0.930 . S
H1437 C1450 0.930 . S
H1438 C1454 0.959 . S
H1439 C1454 0.959 . S
H1440 C1454 0.961 . S
H1441 C1455 0.960 . S
H1442 C1455 0.961 . S
H1443 C1455 0.959 . S
H1444 C1458 0.929 . S
H1445 C1459 0.931 . S
H1446 C1461 0.930 . S
C1447 H1435 0.930 . S
C1447 C1448 1.399 . S
C1447 C1452 1.399 . S
C1448 C1447 1.399 . S
C1448 C1449 1.376 . S
C1449 H1436 0.930 . S
C1449 C1448 1.376 . S
C1449 C1450 1.388 1_554 S
C1450 H1437 0.930 . S
C1450 C1449 1.388 1_556 S
C1450 C1451 1.390 . S
C1451 C1450 1.390 . S
C1451 C1452 1.394 1_556 S
C1451 C1457 1.465 . S
C1452 C1447 1.399 . S
C1452 C1451 1.394 1_554 S
C1452 C1453 1.516 . S
C1453 C1452 1.516 . S
C1453 C1454 1.502 . S
C1453 C1455 1.561 1_554 S
C1453 C1456 1.526 1_554 S
C1454 H1438 0.959 . S
C1454 H1439 0.959 . S
C1454 H1440 0.961 . S
C1454 C1453 1.502 . S
C1455 H1441 0.960 . S
C1455 H1442 0.961 . S
C1455 H1443 0.959 . S
C1455 C1453 1.561 1_556 S
C1456 C1453 1.526 1_556 S
C1456 C1457 1.396 . S
C1456 C1461 1.390 . S
C1457 C1451 1.465 . S
C1457 C1456 1.396 . S
C1457 C1458 1.399 . S
C1458 H1444 0.929 . S
C1458 C1457 1.399 . S
C1458 C1459 1.385 . S
C1459 H1445 0.931 . S
C1459 C1458 1.385 . S
C1459 C1460 1.389 . S
C1460 C1459 1.389 . S
C1460 C1461 1.387 . S
C1461 H1446 0.930 . S
C1461 C1456 1.390 . S
C1461 C1460 1.387 . S
H1462 C1474 0.930 . S
H1463 C1476 0.930 . S
H1464 C1477 0.930 . S
H1465 C1481 0.959 . S
H1466 C1481 0.959 . S
H1467 C1481 0.961 . S
H1468 C1482 0.960 . S
H1469 C1482 0.961 . S
H1470 C1482 0.959 . S
H1471 C1485 0.929 . S
H1472 C1486 0.931 . S
H1473 C1488 0.930 . S
C1474 H1462 0.930 . S
C1474 C1475 1.399 1_554 S
C1474 C1479 1.399 . S
C1475 C1474 1.399 1_556 S
C1475 C1476 1.376 . S
C1476 H1463 0.930 . S
C1476 C1475 1.376 . S
C1476 C1477 1.388 . S
C1477 H1464 0.930 . S
C1477 C1476 1.388 . S
C1477 C1478 1.390 . S
C1478 C1477 1.390 . S
C1478 C1479 1.394 1_556 S
C1478 C1484 1.465 . S
C1479 C1474 1.399 . S
C1479 C1478 1.394 1_554 S
C1479 C1480 1.516 . S
C1480 C1479 1.516 . S
C1480 C1481 1.502 . S
C1480 C1482 1.561 . S
C1480 C1483 1.526 . S
C1481 H1465 0.959 . S
C1481 H1466 0.959 . S
C1481 H1467 0.961 . S
C1481 C1480 1.502 . S
C1482 H1468 0.960 . S
C1482 H1469 0.961 . S
C1482 H1470 0.959 . S
C1482 C1480 1.561 . S
C1483 C1480 1.526 . S
C1483 C1484 1.396 1_554 S
C1483 C1488 1.390 . S
C1484 C1478 1.465 . S
C1484 C1483 1.396 1_556 S
C1484 C1485 1.399 . S
C1485 H1471 0.929 . S
C1485 C1484 1.399 . S
C1485 C1486 1.385 . S
C1486 H1472 0.931 . S
C1486 C1485 1.385 . S
C1486 C1487 1.389 1_556 S
C1487 C1486 1.389 1_554 S
C1487 C1488 1.387 . S
C1488 H1473 0.930 . S
C1488 C1483 1.390 . S
C1488 C1487 1.387 . S
H1489 C1501 0.930 . S
H1490 C1503 0.930 . S
H1491 C1504 0.930 . S
H1492 C1508 0.959 . S
H1493 C1508 0.959 . S
H1494 C1508 0.961 . S
H1495 C1509 0.960 . S
H1496 C1509 0.961 . S
H1497 C1509 0.959 . S
H1498 C1512 0.929 . S
H1499 C1513 0.931 . S
H1500 C1515 0.930 . S
C1501 H1489 0.930 . S
C1501 C1502 1.399 . S
C1501 C1506 1.399 . S
C1502 C1501 1.399 . S
C1502 C1503 1.376 1_554 S
C1503 H1490 0.930 . S
C1503 C1502 1.376 1_556 S
C1503 C1504 1.388 . S
C1504 H1491 0.930 . S
C1504 C1503 1.388 . S
C1504 C1505 1.390 . S
C1505 C1504 1.390 . S
C1505 C1506 1.394 1_556 S
C1505 C1511 1.465 . S
C1506 C1501 1.399 . S
C1506 C1505 1.394 1_554 S
C1506 C1507 1.516 . S
C1507 C1506 1.516 . S
C1507 C1508 1.502 . S
C1507 C1509 1.561 . S
C1507 C1510 1.526 . S
C1508 H1492 0.959 . S
C1508 H1493 0.959 . S
C1508 H1494 0.961 . S
C1508 C1507 1.502 . S
C1509 H1495 0.960 . S
C1509 H1496 0.961 . S
C1509 H1497 0.959 . S
C1509 C1507 1.561 . S
C1510 C1507 1.526 . S
C1510 C1511 1.396 1_554 S
C1510 C1515 1.390 . S
C1511 C1505 1.465 . S
C1511 C1510 1.396 1_556 S
C1511 C1512 1.399 . S
C1512 H1498 0.929 . S
C1512 C1511 1.399 . S
C1512 C1513 1.385 . S
C1513 H1499 0.931 . S
C1513 C1512 1.385 . S
C1513 C1514 1.389 . S
C1514 C1513 1.389 . S
C1514 C1515 1.387 1_556 S
C1515 H1500 0.930 . S
C1515 C1510 1.390 . S
C1515 C1514 1.387 1_554 S
H1516 C1528 0.930 . S
H1517 C1530 0.930 . S
H1518 C1531 0.930 . S
H1519 C1535 0.959 . S
H1520 C1535 0.959 . S
H1521 C1535 0.961 . S
H1522 C1536 0.960 . S
H1523 C1536 0.961 . S
H1524 C1536 0.959 . S
H1525 C1539 0.929 . S
H1526 C1540 0.931 . S
H1527 C1542 0.930 . S
C1528 H1516 0.930 . S
C1528 C1529 1.399 . S
C1528 C1533 1.399 . S
C1529 C1528 1.399 . S
C1529 C1530 1.376 . S
C1530 H1517 0.930 . S
C1530 C1529 1.376 . S
C1530 C1531 1.388 . S
C1531 H1518 0.930 . S
C1531 C1530 1.388 . S
C1531 C1532 1.390 . S
C1532 C1531 1.390 . S
C1532 C1533 1.394 . S
C1532 C1538 1.465 . S
C1533 C1528 1.399 . S
C1533 C1532 1.394 . S
C1533 C1534 1.516 . S
C1534 C1533 1.516 . S
C1534 C1535 1.502 . S
C1534 C1536 1.561 . S
C1534 C1537 1.526 . S
C1535 H1519 0.959 . S
C1535 H1520 0.959 . S
C1535 H1521 0.961 . S
C1535 C1534 1.502 . S
C1536 H1522 0.960 . S
C1536 H1523 0.961 . S
C1536 H1524 0.959 . S
C1536 C1534 1.561 . S
C1537 C1534 1.526 . S
C1537 C1538 1.396 . S
C1537 C1542 1.390 . S
C1538 C1532 1.465 . S
C1538 C1537 1.396 . S
C1538 C1539 1.399 . S
C1539 H1525 0.929 . S
C1539 C1538 1.399 . S
C1539 C1540 1.385 . S
C1540 H1526 0.931 . S
C1540 C1539 1.385 . S
C1540 C1541 1.389 . S
C1541 C1540 1.389 . S
C1541 C1542 1.387 . S
C1542 H1527 0.930 . S
C1542 C1537 1.390 . S
C1542 C1541 1.387 . S
H1543 C1555 0.930 . S
H1544 C1557 0.930 . S
H1545 C1558 0.930 . S
H1546 C1562 0.959 . S
H1547 C1562 0.959 . S
H1548 C1562 0.961 . S
H1549 C1563 0.960 . S
H1550 C1563 0.961 . S
H1551 C1563 0.959 . S
H1552 C1566 0.929 . S
H1553 C1567 0.931 . S
H1554 C1569 0.930 . S
C1555 H1543 0.930 . S
C1555 C1556 1.399 . S
C1555 C1560 1.399 . S
C1556 C1555 1.399 . S
C1556 C1557 1.376 . S
C1557 H1544 0.930 . S
C1557 C1556 1.376 . S
C1557 C1558 1.388 . S
C1558 H1545 0.930 . S
C1558 C1557 1.388 . S
C1558 C1559 1.390 . S
C1559 C1558 1.390 . S
C1559 C1560 1.394 . S
C1559 C1565 1.465 . S
C1560 C1555 1.399 . S
C1560 C1559 1.394 . S
C1560 C1561 1.516 . S
C1561 C1560 1.516 . S
C1561 C1562 1.502 . S
C1561 C1563 1.561 . S
C1561 C1564 1.526 . S
C1562 H1546 0.959 . S
C1562 H1547 0.959 . S
C1562 H1548 0.961 . S
C1562 C1561 1.502 . S
C1563 H1549 0.960 . S
C1563 H1550 0.961 . S
C1563 H1551 0.959 . S
C1563 C1561 1.561 . S
C1564 C1561 1.526 . S
C1564 C1565 1.396 . S
C1564 C1569 1.390 . S
C1565 C1559 1.465 . S
C1565 C1564 1.396 . S
C1565 C1566 1.399 . S
C1566 H1552 0.929 . S
C1566 C1565 1.399 . S
C1566 C1567 1.385 . S
C1567 H1553 0.931 . S
C1567 C1566 1.385 . S
C1567 C1568 1.389 . S
C1568 C1567 1.389 . S
C1568 C1569 1.387 . S
C1569 H1554 0.930 . S
C1569 C1564 1.390 . S
C1569 C1568 1.387 . S
H1570 C1582 0.930 . S
H1571 C1584 0.930 . S
H1572 C1585 0.930 . S
H1573 C1589 0.959 . S
H1574 C1589 0.959 . S
H1575 C1589 0.961 . S
H1576 C1590 0.960 . S
H1577 C1590 0.961 . S
H1578 C1590 0.959 . S
H1579 C1593 0.929 . S
H1580 C1594 0.931 . S
H1581 C1596 0.930 . S
C1582 H1570 0.930 . S
C1582 C1583 1.399 . S
C1582 C1587 1.399 . S
C1583 C1582 1.399 . S
C1583 C1584 1.376 . S
C1584 H1571 0.930 . S
C1584 C1583 1.376 . S
C1584 C1585 1.388 . S
C1585 H1572 0.930 . S
C1585 C1584 1.388 . S
C1585 C1586 1.390 . S
C1586 C1585 1.390 . S
C1586 C1587 1.394 . S
C1586 C1592 1.465 . S
C1587 C1582 1.399 . S
C1587 C1586 1.394 . S
C1587 C1588 1.516 . S
C1588 C1587 1.516 . S
C1588 C1589 1.502 . S
C1588 C1590 1.561 . S
C1588 C1591 1.526 . S
C1589 H1573 0.959 . S
C1589 H1574 0.959 . S
C1589 H1575 0.961 . S
C1589 C1588 1.502 . S
C1590 H1576 0.960 . S
C1590 H1577 0.961 . S
C1590 H1578 0.959 . S
C1590 C1588 1.561 . S
C1591 C1588 1.526 . S
C1591 C1592 1.396 . S
C1591 C1596 1.390 . S
C1592 C1586 1.465 . S
C1592 C1591 1.396 . S
C1592 C1593 1.399 . S
C1593 H1579 0.929 . S
C1593 C1592 1.399 . S
C1593 C1594 1.385 . S
C1594 H1580 0.931 . S
C1594 C1593 1.385 . S
C1594 C1595 1.389 . S
C1595 C1594 1.389 . S
C1595 C1596 1.387 . S
C1596 H1581 0.930 . S
C1596 C1591 1.390 . S
C1596 C1595 1.387 . S
H1597 C1609 0.930 . S
H1598 C1611 0.930 . S
H1599 C1612 0.930 . S
H1600 C1616 0.959 . S
H1601 C1616 0.959 . S
H1602 C1616 0.961 . S
H1603 C1617 0.960 . S
H1604 C1617 0.961 . S
H1605 C1617 0.959 . S
H1606 C1620 0.929 . S
H1607 C1621 0.931 . S
H1608 C1623 0.930 . S
C1609 H1597 0.930 . S
C1609 C1610 1.399 . S
C1609 C1614 1.399 . S
C1610 C1609 1.399 . S
C1610 C1611 1.376 . S
C1611 H1598 0.930 . S
C1611 C1610 1.376 . S
C1611 C1612 1.388 . S
C1612 H1599 0.930 . S
C1612 C1611 1.388 . S
C1612 C1613 1.390 . S
C1613 C1612 1.390 . S
C1613 C1614 1.394 . S
C1613 C1619 1.465 . S
C1614 C1609 1.399 . S
C1614 C1613 1.394 . S
C1614 C1615 1.516 . S
C1615 C1614 1.516 . S
C1615 C1616 1.502 . S
C1615 C1617 1.561 . S
C1615 C1618 1.526 . S
C1616 H1600 0.959 . S
C1616 H1601 0.959 . S
C1616 H1602 0.961 . S
C1616 C1615 1.502 . S
C1617 H1603 0.960 . S
C1617 H1604 0.961 . S
C1617 H1605 0.959 . S
C1617 C1615 1.561 . S
C1618 C1615 1.526 . S
C1618 C1619 1.396 . S
C1618 C1623 1.390 . S
C1619 C1613 1.465 . S
C1619 C1618 1.396 . S
C1619 C1620 1.399 . S
C1620 H1606 0.929 . S
C1620 C1619 1.399 . S
C1620 C1621 1.385 . S
C1621 H1607 0.931 . S
C1621 C1620 1.385 . S
C1621 C1622 1.389 . S
C1622 C1621 1.389 . S
C1622 C1623 1.387 . S
C1623 H1608 0.930 . S
C1623 C1618 1.390 . S
C1623 C1622 1.387 . S
C557 C9 1.155 . S
C569 C5 1.189 . S
C584 C43 1.199 . S
C596 C39 1.207 . S
C611 C73 1.176 . S
C623 C77 1.147 . S
C638 C107 1.188 . S
C650 C111 1.201 . S
C665 C145 1.149 . S
C677 C141 1.172 . S
C692 C175 1.188 . S
C704 C179 1.201 . S
C719 C209 1.170 . S
C731 C213 1.164 . S
C746 C243 1.192 . S
C758 C247 1.205 . S
C773 C281 1.154 . S
C785 C277 1.189 . S
C800 C315 1.157 . S
C812 C311 1.170 . S
C827 C349 1.199 . S
C839 C345 1.186 . S
C854 C383 1.159 . S
C866 C379 1.170 . S
C881 C413 1.170 . S
C893 C417 1.165 . S
C908 C447 1.191 . S
C920 C451 1.204 . S
C935 C481 1.207 . S
C947 C485 1.201 . S
C962 C515 1.170 . S
C974 C519 1.163 . S
C989 C33 1.436 . S
C1001 C543 1.368 . S
C1016 C441 1.366 . S
C1028 C67 1.434 . S
C1043 C475 1.428 . S
C1055 C101 1.367 . S
C1070 C509 1.370 . S
C1082 C135 1.436 . S
C1097 C339 1.386 . S
C1109 C169 1.401 . S
C1124 C203 1.419 . S
C1136 C373 1.399 . S
C1151 C237 1.432 . S
C1163 C407 1.381 . S
C1178 C305 1.433 . S
C1190 C271 1.379 . S
C1205 C20 1.545 . S
C1217 C156 1.558 . S
C1232 C190 1.569 . S
C1244 C54 1.576 . S
C1259 C88 1.544 . S
C1271 C224 1.555 . S
C1286 C258 1.553 . S
C1298 C122 1.544 . S
C1313 C428 1.574 . S
C1325 C292 1.561 . S
C1340 C326 1.557 . S
C1352 C462 1.545 . S
C1367 C360 1.545 . S
C1379 C496 1.557 . S
C1394 C394 1.551 . S
C1406 C530 1.544 . S
C1421 C2 1.748 . S
C1433 C172 1.757 . S
C1448 C36 1.747 . S
C1460 C206 1.751 . S
C1475 C240 1.751 . S
C1487 C70 1.747 . S
C1502 C104 1.749 . S
C1514 C138 1.757 . S
C1529 C444 1.753 . S
C1541 C274 1.746 . S
C1556 C308 1.755 . S
C1568 C478 1.752 . S
C1583 C512 1.748 . S
C1595 C342 1.757 . S
C1610 C410 1.754 . S
C1622 C376 1.746 . S
