# Generated by pormake.
# Topology wna, (6)-cn, num edge types: 1
# Building blocks:
#     Node 0, Type 0, BuildingBlock: JUFBIX_clean_sbu_0, # of connection points: 6
#     Node 1, Type 0, BuildingBlock: JUFBIX_clean_sbu_0, # of connection points: 6
#     Node 2, Type 0, BuildingBlock: JUFBIX_clean_sbu_0, # of connection points: 6
#     Node 3, Type 0, BuildingBlock: JUFBIX_clean_sbu_0, # of connection points: 6
#     Node 4, Type 0, BuildingBlock: JUFBIX_clean_sbu_0, # of connection points: 6
#     Node 5, Type 0, BuildingBlock: JUFBIX_clean_sbu_0, # of connection points: 6
#     Node 6, Type 0, BuildingBlock: JUFBIX_clean_sbu_0, # of connection points: 6
#     Node 7, Type 0, BuildingBlock: JUFBIX_clean_sbu_0, # of connection points: 6
#     Node 8, Type 0, BuildingBlock: JUFBIX_clean_sbu_0, # of connection points: 6
#     Node 9, Type 0, BuildingBlock: JUFBIX_clean_sbu_0, # of connection points: 6
#     Node 10, Type 0, BuildingBlock: JUFBIX_clean_sbu_0, # of connection points: 6
#     Node 11, Type 0, BuildingBlock: JUFBIX_clean_sbu_0, # of connection points: 6
#     Node 12, Type 0, BuildingBlock: JUFBIX_clean_sbu_0, # of connection points: 6
#     Node 13, Type 0, BuildingBlock: JUFBIX_clean_sbu_0, # of connection points: 6
#     Node 14, Type 0, BuildingBlock: JUFBIX_clean_sbu_0, # of connection points: 6
#     Node 15, Type 0, BuildingBlock: JUFBIX_clean_sbu_0, # of connection points: 6
#     Node 16, Type 0, BuildingBlock: JUFBIX_clean_sbu_0, # of connection points: 6
#     Node 17, Type 0, BuildingBlock: JUFBIX_clean_sbu_0, # of connection points: 6
#     Node 18, Type 0, BuildingBlock: JUFBIX_clean_sbu_0, # of connection points: 6
#     Node 19, Type 0, BuildingBlock: JUFBIX_clean_sbu_0, # of connection points: 6
#     Node 20, Type 0, BuildingBlock: JUFBIX_clean_sbu_0, # of connection points: 6
#     Node 21, Type 0, BuildingBlock: JUFBIX_clean_sbu_0, # of connection points: 6
#     Node 22, Type 0, BuildingBlock: JUFBIX_clean_sbu_0, # of connection points: 6
#     Node 23, Type 0, BuildingBlock: JUFBIX_clean_sbu_0, # of connection points: 6
#     Node 24, Type 0, BuildingBlock: JUFBIX_clean_sbu_0, # of connection points: 6
#     Node 25, Type 0, BuildingBlock: JUFBIX_clean_sbu_0, # of connection points: 6
#     Node 26, Type 0, BuildingBlock: JUFBIX_clean_sbu_0, # of connection points: 6
#     Node 27, Type 0, BuildingBlock: JUFBIX_clean_sbu_0, # of connection points: 6
#     Node 28, Type 0, BuildingBlock: JUFBIX_clean_sbu_0, # of connection points: 6
#     Node 29, Type 0, BuildingBlock: JUFBIX_clean_sbu_0, # of connection points: 6
#     Node 30, Type 0, BuildingBlock: JUFBIX_clean_sbu_0, # of connection points: 6
#     Node 31, Type 0, BuildingBlock: JUFBIX_clean_sbu_0, # of connection points: 6
#     Node 32, Type 0, BuildingBlock: JUFBIX_clean_sbu_0, # of connection points: 6
#     Node 33, Type 0, BuildingBlock: JUFBIX_clean_sbu_0, # of connection points: 6
#     Node 34, Type 0, BuildingBlock: JUFBIX_clean_sbu_0, # of connection points: 6
#     Node 35, Type 0, BuildingBlock: JUFBIX_clean_sbu_0, # of connection points: 6
#     Edge 36, Type (0, 0), BuildingBlock: KIFKEQ_clean_linker_1, # of connection points: 2
#     Edge 37, Type (0, 0), BuildingBlock: KIFKEQ_clean_linker_1, # of connection points: 2
#     Edge 38, Type (0, 0), BuildingBlock: KIFKEQ_clean_linker_1, # of connection points: 2
#     Edge 39, Type (0, 0), BuildingBlock: KIFKEQ_clean_linker_1, # of connection points: 2
#     Edge 40, Type (0, 0), BuildingBlock: KIFKEQ_clean_linker_1, # of connection points: 2
#     Edge 41, Type (0, 0), BuildingBlock: KIFKEQ_clean_linker_1, # of connection points: 2
#     Edge 42, Type (0, 0), BuildingBlock: KIFKEQ_clean_linker_1, # of connection points: 2
#     Edge 43, Type (0, 0), BuildingBlock: KIFKEQ_clean_linker_1, # of connection points: 2
#     Edge 44, Type (0, 0), BuildingBlock: KIFKEQ_clean_linker_1, # of connection points: 2
#     Edge 45, Type (0, 0), BuildingBlock: KIFKEQ_clean_linker_1, # of connection points: 2
#     Edge 46, Type (0, 0), BuildingBlock: KIFKEQ_clean_linker_1, # of connection points: 2
#     Edge 47, Type (0, 0), BuildingBlock: KIFKEQ_clean_linker_1, # of connection points: 2
#     Edge 48, Type (0, 0), BuildingBlock: KIFKEQ_clean_linker_1, # of connection points: 2
#     Edge 49, Type (0, 0), BuildingBlock: KIFKEQ_clean_linker_1, # of connection points: 2
#     Edge 50, Type (0, 0), BuildingBlock: KIFKEQ_clean_linker_1, # of connection points: 2
#     Edge 51, Type (0, 0), BuildingBlock: KIFKEQ_clean_linker_1, # of connection points: 2
#     Edge 52, Type (0, 0), BuildingBlock: KIFKEQ_clean_linker_1, # of connection points: 2
#     Edge 53, Type (0, 0), BuildingBlock: KIFKEQ_clean_linker_1, # of connection points: 2
#     Edge 54, Type (0, 0), BuildingBlock: KIFKEQ_clean_linker_1, # of connection points: 2
#     Edge 55, Type (0, 0), BuildingBlock: KIFKEQ_clean_linker_1, # of connection points: 2
#     Edge 56, Type (0, 0), BuildingBlock: KIFKEQ_clean_linker_1, # of connection points: 2
#     Edge 57, Type (0, 0), BuildingBlock: KIFKEQ_clean_linker_1, # of connection points: 2
#     Edge 58, Type (0, 0), BuildingBlock: KIFKEQ_clean_linker_1, # of connection points: 2
#     Edge 59, Type (0, 0), BuildingBlock: KIFKEQ_clean_linker_1, # of connection points: 2
#     Edge 60, Type (0, 0), BuildingBlock: KIFKEQ_clean_linker_1, # of connection points: 2
#     Edge 61, Type (0, 0), BuildingBlock: KIFKEQ_clean_linker_1, # of connection points: 2
#     Edge 62, Type (0, 0), BuildingBlock: KIFKEQ_clean_linker_1, # of connection points: 2
#     Edge 63, Type (0, 0), BuildingBlock: KIFKEQ_clean_linker_1, # of connection points: 2
#     Edge 64, Type (0, 0), BuildingBlock: KIFKEQ_clean_linker_1, # of connection points: 2
#     Edge 65, Type (0, 0), BuildingBlock: KIFKEQ_clean_linker_1, # of connection points: 2
#     Edge 66, Type (0, 0), BuildingBlock: KIFKEQ_clean_linker_1, # of connection points: 2
#     Edge 67, Type (0, 0), BuildingBlock: KIFKEQ_clean_linker_1, # of connection points: 2
#     Edge 68, Type (0, 0), BuildingBlock: KIFKEQ_clean_linker_1, # of connection points: 2
#     Edge 69, Type (0, 0), BuildingBlock: KIFKEQ_clean_linker_1, # of connection points: 2
#     Edge 70, Type (0, 0), BuildingBlock: KIFKEQ_clean_linker_1, # of connection points: 2
#     Edge 71, Type (0, 0), BuildingBlock: KIFKEQ_clean_linker_1, # of connection points: 2
#     Edge 72, Type (0, 0), BuildingBlock: KIFKEQ_clean_linker_1, # of connection points: 2
#     Edge 73, Type (0, 0), BuildingBlock: KIFKEQ_clean_linker_1, # of connection points: 2
#     Edge 74, Type (0, 0), BuildingBlock: KIFKEQ_clean_linker_1, # of connection points: 2
#     Edge 75, Type (0, 0), BuildingBlock: KIFKEQ_clean_linker_1, # of connection points: 2
#     Edge 76, Type (0, 0), BuildingBlock: KIFKEQ_clean_linker_1, # of connection points: 2
#     Edge 77, Type (0, 0), BuildingBlock: KIFKEQ_clean_linker_1, # of connection points: 2
#     Edge 78, Type (0, 0), BuildingBlock: KIFKEQ_clean_linker_1, # of connection points: 2
#     Edge 79, Type (0, 0), BuildingBlock: KIFKEQ_clean_linker_1, # of connection points: 2
#     Edge 80, Type (0, 0), BuildingBlock: KIFKEQ_clean_linker_1, # of connection points: 2
#     Edge 81, Type (0, 0), BuildingBlock: KIFKEQ_clean_linker_1, # of connection points: 2
#     Edge 82, Type (0, 0), BuildingBlock: KIFKEQ_clean_linker_1, # of connection points: 2
#     Edge 83, Type (0, 0), BuildingBlock: KIFKEQ_clean_linker_1, # of connection points: 2
#     Edge 84, Type (0, 0), BuildingBlock: KIFKEQ_clean_linker_1, # of connection points: 2
#     Edge 85, Type (0, 0), BuildingBlock: KIFKEQ_clean_linker_1, # of connection points: 2
#     Edge 86, Type (0, 0), BuildingBlock: KIFKEQ_clean_linker_1, # of connection points: 2
#     Edge 87, Type (0, 0), BuildingBlock: KIFKEQ_clean_linker_1, # of connection points: 2
#     Edge 88, Type (0, 0), BuildingBlock: KIFKEQ_clean_linker_1, # of connection points: 2
#     Edge 89, Type (0, 0), BuildingBlock: KIFKEQ_clean_linker_1, # of connection points: 2
#     Edge 90, Type (0, 0), BuildingBlock: KIFKEQ_clean_linker_1, # of connection points: 2
#     Edge 91, Type (0, 0), BuildingBlock: KIFKEQ_clean_linker_1, # of connection points: 2
#     Edge 92, Type (0, 0), BuildingBlock: KIFKEQ_clean_linker_1, # of connection points: 2
#     Edge 93, Type (0, 0), BuildingBlock: KIFKEQ_clean_linker_1, # of connection points: 2
#     Edge 94, Type (0, 0), BuildingBlock: KIFKEQ_clean_linker_1, # of connection points: 2
#     Edge 95, Type (0, 0), BuildingBlock: KIFKEQ_clean_linker_1, # of connection points: 2
#     Edge 96, Type (0, 0), BuildingBlock: KIFKEQ_clean_linker_1, # of connection points: 2
#     Edge 97, Type (0, 0), BuildingBlock: KIFKEQ_clean_linker_1, # of connection points: 2
#     Edge 98, Type (0, 0), BuildingBlock: KIFKEQ_clean_linker_1, # of connection points: 2
#     Edge 99, Type (0, 0), BuildingBlock: KIFKEQ_clean_linker_1, # of connection points: 2
#     Edge 100, Type (0, 0), BuildingBlock: KIFKEQ_clean_linker_1, # of connection points: 2
#     Edge 101, Type (0, 0), BuildingBlock: KIFKEQ_clean_linker_1, # of connection points: 2
#     Edge 102, Type (0, 0), BuildingBlock: KIFKEQ_clean_linker_1, # of connection points: 2
#     Edge 103, Type (0, 0), BuildingBlock: KIFKEQ_clean_linker_1, # of connection points: 2
#     Edge 104, Type (0, 0), BuildingBlock: KIFKEQ_clean_linker_1, # of connection points: 2
#     Edge 105, Type (0, 0), BuildingBlock: KIFKEQ_clean_linker_1, # of connection points: 2
#     Edge 106, Type (0, 0), BuildingBlock: KIFKEQ_clean_linker_1, # of connection points: 2
#     Edge 107, Type (0, 0), BuildingBlock: KIFKEQ_clean_linker_1, # of connection points: 2
#     Edge 108, Type (0, 0), BuildingBlock: KIFKEQ_clean_linker_1, # of connection points: 2
#     Edge 109, Type (0, 0), BuildingBlock: KIFKEQ_clean_linker_1, # of connection points: 2
#     Edge 110, Type (0, 0), BuildingBlock: KIFKEQ_clean_linker_1, # of connection points: 2
#     Edge 111, Type (0, 0), BuildingBlock: KIFKEQ_clean_linker_1, # of connection points: 2
#     Edge 112, Type (0, 0), BuildingBlock: KIFKEQ_clean_linker_1, # of connection points: 2
#     Edge 113, Type (0, 0), BuildingBlock: KIFKEQ_clean_linker_1, # of connection points: 2
#     Edge 114, Type (0, 0), BuildingBlock: KIFKEQ_clean_linker_1, # of connection points: 2
#     Edge 115, Type (0, 0), BuildingBlock: KIFKEQ_clean_linker_1, # of connection points: 2
#     Edge 116, Type (0, 0), BuildingBlock: KIFKEQ_clean_linker_1, # of connection points: 2
#     Edge 117, Type (0, 0), BuildingBlock: KIFKEQ_clean_linker_1, # of connection points: 2
#     Edge 118, Type (0, 0), BuildingBlock: KIFKEQ_clean_linker_1, # of connection points: 2
#     Edge 119, Type (0, 0), BuildingBlock: KIFKEQ_clean_linker_1, # of connection points: 2
#     Edge 120, Type (0, 0), BuildingBlock: KIFKEQ_clean_linker_1, # of connection points: 2
#     Edge 121, Type (0, 0), BuildingBlock: KIFKEQ_clean_linker_1, # of connection points: 2
#     Edge 122, Type (0, 0), BuildingBlock: KIFKEQ_clean_linker_1, # of connection points: 2
#     Edge 123, Type (0, 0), BuildingBlock: KIFKEQ_clean_linker_1, # of connection points: 2
#     Edge 124, Type (0, 0), BuildingBlock: KIFKEQ_clean_linker_1, # of connection points: 2
#     Edge 125, Type (0, 0), BuildingBlock: KIFKEQ_clean_linker_1, # of connection points: 2
#     Edge 126, Type (0, 0), BuildingBlock: KIFKEQ_clean_linker_1, # of connection points: 2
#     Edge 127, Type (0, 0), BuildingBlock: KIFKEQ_clean_linker_1, # of connection points: 2
#     Edge 128, Type (0, 0), BuildingBlock: KIFKEQ_clean_linker_1, # of connection points: 2
#     Edge 129, Type (0, 0), BuildingBlock: KIFKEQ_clean_linker_1, # of connection points: 2
#     Edge 130, Type (0, 0), BuildingBlock: KIFKEQ_clean_linker_1, # of connection points: 2
#     Edge 131, Type (0, 0), BuildingBlock: KIFKEQ_clean_linker_1, # of connection points: 2
#     Edge 132, Type (0, 0), BuildingBlock: KIFKEQ_clean_linker_1, # of connection points: 2
#     Edge 133, Type (0, 0), BuildingBlock: KIFKEQ_clean_linker_1, # of connection points: 2
#     Edge 134, Type (0, 0), BuildingBlock: KIFKEQ_clean_linker_1, # of connection points: 2
#     Edge 135, Type (0, 0), BuildingBlock: KIFKEQ_clean_linker_1, # of connection points: 2
#     Edge 136, Type (0, 0), BuildingBlock: KIFKEQ_clean_linker_1, # of connection points: 2
#     Edge 137, Type (0, 0), BuildingBlock: KIFKEQ_clean_linker_1, # of connection points: 2
#     Edge 138, Type (0, 0), BuildingBlock: KIFKEQ_clean_linker_1, # of connection points: 2
#     Edge 139, Type (0, 0), BuildingBlock: KIFKEQ_clean_linker_1, # of connection points: 2
#     Edge 140, Type (0, 0), BuildingBlock: KIFKEQ_clean_linker_1, # of connection points: 2
#     Edge 141, Type (0, 0), BuildingBlock: KIFKEQ_clean_linker_1, # of connection points: 2
#     Edge 142, Type (0, 0), BuildingBlock: KIFKEQ_clean_linker_1, # of connection points: 2
#     Edge 143, Type (0, 0), BuildingBlock: KIFKEQ_clean_linker_1, # of connection points: 2
# Relax obj value: 0.432
# Max RMSD: 0.263
# Mean RMSD: 0.263
data_MOF--net-wna--node1-JUFBIX_clean_sbu_0--edge1-KIFKEQ_clean_linker_1
_symmetry_space_group_name_H-M    P1
_symmetry_Int_Tables_number       1
_symmetry_cell_setting            triclinic
loop_
_symmetry_equiv_pos_as_xyz
'x, y, z'
_cell_length_a     45.962706
_cell_length_b     45.960828
_cell_length_c     81.305149
_cell_angle_alpha  89.998113
_cell_angle_beta   89.999571
_cell_angle_gamma 120.02192
loop_
_atom_site_label
_atom_site_type_symbol
_atom_site_fract_x
_atom_site_fract_y
_atom_site_fract_z
_atom_type_partial_charge
Co0 Co 0.05132 0.22494 0.16568 0.0
C1 C 0.0544 0.28459 0.17423 0.0
Co2 Co 0.0995 0.26149 0.17708 0.0
C3 C 0.9941 0.16005 0.1612 0.0
C4 C 0.99052 0.19585 0.1458 0.0
N5 N 0.01041 0.19286 0.15704 0.0
N6 N 0.96485 0.14222 0.15302 0.0
C7 C 0.9624 0.16472 0.14332 0.0
H8 H 0.00345 0.14957 0.1703 0.0
H9 H 0.99614 0.21909 0.13978 0.0
C10 C 0.09692 0.20217 0.16793 0.0
N11 N 0.14063 0.29253 0.18576 0.0
C12 C 0.17075 0.30045 0.17934 0.0
C13 C 0.14776 0.31012 0.1999 0.0
N14 N 0.19646 0.322 0.18893 0.0
C15 C 0.18217 0.32816 0.20194 0.0
C16 C 0.05313 0.22017 0.20002 0.0
O17 O 0.06746 0.19429 0.16341 0.0
O18 O 0.11553 0.23082 0.17433 0.0
O19 O 0.0834 0.24365 0.19844 0.0
O20 O 0.03494 0.20836 0.18726 0.0
O21 O 0.08334 0.29208 0.17961 0.0
H22 H 0.12915 0.30921 0.20836 0.0
H23 H 0.17371 0.28942 0.16815 0.0
O24 O 0.03577 0.25584 0.16783 0.0
O25 O 0.0678 0.2424 0.1442 0.0
O26 O 0.11506 0.27943 0.15579 0.0
C27 C 0.09713 0.26791 0.14295 0.0
H28 H 0.94204 0.15907 0.13488 0.0
H29 H 0.19559 0.34421 0.21225 0.0
Co30 Co 0.77946 0.82636 0.16539 0.0
C31 C 0.71881 0.76977 0.17282 0.0
Co32 Co 0.74248 0.83807 0.17623 0.0
C33 C 0.8435 0.83083 0.16231 0.0
C34 C 0.80961 0.79837 0.14385 0.0
N35 N 0.81157 0.81739 0.1569 0.0
N36 N 0.86164 0.82118 0.15316 0.0
C37 C 0.8405 0.80082 0.14146 0.0
H38 H 0.85361 0.84832 0.17248 0.0
H39 H 0.78736 0.78408 0.13642 0.0
C40 C 0.80281 0.89483 0.1681 0.0
N41 N 0.71135 0.84832 0.18467 0.0
C42 C 0.70418 0.87121 0.17843 0.0
C43 C 0.69284 0.83707 0.19852 0.0
N44 N 0.68219 0.875 0.18786 0.0
C45 C 0.67499 0.85362 0.20056 0.0
C46 C 0.78221 0.83139 0.19977 0.0
O47 O 0.81053 0.87319 0.16341 0.0
O48 O 0.77403 0.88479 0.17436 0.0
O49 O 0.75846 0.83769 0.19784 0.0
O50 O 0.79526 0.82617 0.18714 0.0
O51 O 0.71108 0.79126 0.17787 0.0
H52 H 0.69292 0.81865 0.20677 0.0
H53 H 0.71598 0.88585 0.1675 0.0
O54 O 0.74815 0.77982 0.16717 0.0
O55 O 0.76279 0.82585 0.14382 0.0
O56 O 0.72637 0.83788 0.15463 0.0
C57 C 0.73831 0.83112 0.14205 0.0
H58 H 0.8469 0.7886 0.13189 0.0
H59 H 0.65829 0.85042 0.21066 0.0
Co60 Co 0.17671 0.95239 0.16593 0.0
C61 C 0.23352 0.94919 0.17392 0.0
Co62 Co 0.16538 0.90402 0.17694 0.0
C63 C 0.16918 0.0098 0.1616 0.0
C64 C 0.20862 0.01323 0.14628 0.0
N65 N 0.18555 0.99337 0.15747 0.0
N66 N 0.18092 0.03914 0.15345 0.0
C67 C 0.20588 0.04148 0.14381 0.0
H68 H 0.14925 1.00048 0.17064 0.0
H69 H 0.22618 0.0075 0.1403 0.0
C70 C 0.10834 0.90661 0.16835 0.0
N71 N 0.15555 0.86286 0.18541 0.0
C72 C 0.13309 0.83274 0.17909 0.0
C73 C 0.16681 0.85576 0.1993 0.0
N74 N 0.12958 0.80706 0.1885 0.0
C75 C 0.15067 0.82136 0.20129 0.0
C76 C 0.17059 0.9499 0.2003 0.0
O77 O 0.12976 0.93579 0.16334 0.0
O78 O 0.11861 0.88843 0.17503 0.0
O79 O 0.16533 0.9202 0.19845 0.0
O80 O 0.17548 0.96801 0.18763 0.0
O81 O 0.21214 0.91975 0.17872 0.0
H82 H 0.18497 0.87438 0.20761 0.0
H83 H 0.11852 0.82975 0.16811 0.0
O84 O 0.22331 0.96835 0.1683 0.0
O85 O 0.17862 0.93679 0.14446 0.0
O86 O 0.16596 0.88821 0.15534 0.0
C87 C 0.17329 0.907 0.14277 0.0
H88 H 0.22078 0.06183 0.13539 0.0
H89 H 0.15393 0.80794 0.21141 0.0
Co90 Co 0.22494 0.04826 0.3485 0.0
C91 C 0.28521 0.0519 0.33966 0.0
Co92 Co 0.26194 0.09652 0.3373 0.0
C93 C 0.15962 0.99162 0.35443 0.0
C94 C 0.19783 0.98363 0.36483 0.0
N95 N 0.19315 0.00665 0.35677 0.0
N96 N 0.14328 0.9602 0.36056 0.0
C97 C 0.16713 0.95484 0.36704 0.0
H98 H 0.14744 0.0029 0.3477 0.0
H99 H 0.22202 0.98716 0.36848 0.0
C100 C 0.20218 0.09363 0.34678 0.0
N101 N 0.29276 0.13815 0.32904 0.0
C102 C 0.29765 0.1676 0.335 0.0
C103 C 0.3139 0.14651 0.31614 0.0
N104 N 0.32064 0.19413 0.32631 0.0
C105 C 0.3312 0.18105 0.31445 0.0
C106 C 0.22062 0.05121 0.31408 0.0
O107 O 0.1943 0.06426 0.35146 0.0
O108 O 0.23059 0.11185 0.34007 0.0
O109 O 0.24496 0.08102 0.31587 0.0
O110 O 0.20786 0.03295 0.32677 0.0
O111 O 0.29304 0.08115 0.3347 0.0
H112 H 0.31615 0.12867 0.30834 0.0
H113 H 0.28442 0.16949 0.34559 0.0
O114 O 0.25617 0.03301 0.3457 0.0
O115 O 0.24276 0.06373 0.37007 0.0
O116 O 0.27926 0.11157 0.35871 0.0
C117 C 0.26804 0.09321 0.37143 0.0
H118 H 0.16267 0.93173 0.37281 0.0
H119 H 0.34933 0.19528 0.30496 0.0
Co120 Co 0.95543 0.17715 0.34871 0.0
C121 C 0.95172 0.23352 0.34028 0.0
Co122 Co 0.90725 0.16536 0.33726 0.0
C123 C 0.01283 0.16982 0.35318 0.0
C124 C 0.0164 0.20933 0.36847 0.0
N125 N 0.99652 0.18635 0.35726 0.0
N126 N 0.04203 0.18127 0.3614 0.0
C127 C 0.0445 0.20633 0.37102 0.0
H128 H 0.00345 0.14986 0.34415 0.0
H129 H 0.01073 0.22693 0.37446 0.0
C130 C 0.91039 0.10878 0.3463 0.0
N131 N 0.86581 0.15474 0.32882 0.0
C132 C 0.83629 0.1301 0.3347 0.0
C133 C 0.85757 0.16773 0.31597 0.0
N134 N 0.80984 0.12673 0.326 0.0
C135 C 0.82303 0.15055 0.31423 0.0
C136 C 0.9535 0.17088 0.31428 0.0
O137 O 0.93969 0.13039 0.35101 0.0
O138 O 0.8919 0.11881 0.3398 0.0
O139 O 0.92325 0.16417 0.31584 0.0
O140 O 0.97164 0.17702 0.32705 0.0
O141 O 0.92281 0.21195 0.33494 0.0
H142 H 0.87548 0.18799 0.30826 0.0
H143 H 0.83429 0.11487 0.34526 0.0
O144 O 0.9706 0.22357 0.34655 0.0
O145 O 0.93903 0.17803 0.37025 0.0
O146 O 0.89163 0.16715 0.35861 0.0
C147 C 0.90953 0.17376 0.37147 0.0
H148 H 0.06478 0.22103 0.3795 0.0
H149 H 0.80888 0.15467 0.30479 0.0
Co150 Co 0.82715 0.77831 0.34806 0.0
C151 C 0.77021 0.71807 0.34051 0.0
Co152 Co 0.83824 0.74062 0.33771 0.0
C153 C 0.83503 0.84341 0.35217 0.0
C154 C 0.79565 0.8077 0.36762 0.0
N155 N 0.81848 0.81064 0.35635 0.0
N156 N 0.82371 0.86127 0.36039 0.0
C157 C 0.79877 0.83883 0.37012 0.0
H158 H 0.8549 0.85386 0.34309 0.0
H159 H 0.77811 0.78451 0.3737 0.0
C160 C 0.8954 0.80043 0.34584 0.0
N161 N 0.84778 0.70899 0.32942 0.0
C162 C 0.87011 0.70127 0.33581 0.0
C163 C 0.83651 0.69054 0.31555 0.0
N164 N 0.87356 0.679 0.32647 0.0
C165 C 0.85254 0.67218 0.31364 0.0
C166 C 0.83295 0.78092 0.31384 0.0
O167 O 0.87418 0.80894 0.35019 0.0
O168 O 0.88502 0.77137 0.33988 0.0
O169 O 0.8387 0.75684 0.31599 0.0
O170 O 0.82775 0.7943 0.32634 0.0
O171 O 0.79151 0.70986 0.33582 0.0
H172 H 0.81848 0.69108 0.30719 0.0
H173 H 0.8847 0.71293 0.34678 0.0
O174 O 0.78051 0.74755 0.346 0.0
O175 O 0.8258 0.76153 0.36976 0.0
O176 O 0.8372 0.72437 0.35932 0.0
C177 C 0.83048 0.73671 0.37175 0.0
H178 H 0.78422 0.84454 0.37863 0.0
H179 H 0.84933 0.65548 0.30355 0.0
Co180 Co 0.90666 0.74208 0.83747 0.0
C181 C 0.90994 0.80229 0.84623 0.0
Co182 Co 0.95478 0.77894 0.8488 0.0
C183 C 0.83569 0.70613 0.83488 0.0
C184 C 0.85718 0.68998 0.81617 0.0
N185 N 0.86527 0.71117 0.82903 0.0
N186 N 0.80932 0.68296 0.82617 0.0
C187 C 0.82266 0.67248 0.81439 0.0
H188 H 0.83361 0.71933 0.84543 0.0
H189 H 0.87518 0.68778 0.80848 0.0
C190 C 0.95112 0.71857 0.84072 0.0
N191 N 0.99587 0.81076 0.85741 0.0
C192 C 0.01475 0.84263 0.85199 0.0
C193 C 0.01268 0.80857 0.87051 0.0
N194 N 0.04256 0.86052 0.86118 0.0
C195 C 0.04137 0.83926 0.87292 0.0
C196 C 0.90874 0.73644 0.87166 0.0
O197 O 0.9222 0.71101 0.83531 0.0
O198 O 0.96989 0.74754 0.84689 0.0
O199 O 0.93816 0.76181 0.8704 0.0
O200 O 0.89091 0.72491 0.85881 0.0
O201 O 0.9393 0.81011 0.85091 0.0
H202 H 0.00439 0.78628 0.87796 0.0
H203 H 0.00766 0.8529 0.84178 0.0
O204 O 0.89138 0.77357 0.83986 0.0
O205 O 0.92267 0.75876 0.81608 0.0
O206 O 0.97097 0.79509 0.82701 0.0
C207 C 0.95275 0.78251 0.8143 0.0
H208 H 0.80862 0.65422 0.80493 0.0
H209 H 0.05988 0.84546 0.88252 0.0
Co210 Co 0.26248 0.16498 0.83687 0.0
C211 C 0.20328 0.10725 0.84583 0.0
Co212 Co 0.22509 0.17514 0.84851 0.0
C213 C 0.30219 0.13357 0.83453 0.0
C214 C 0.31146 0.16615 0.81397 0.0
N215 N 0.29387 0.15548 0.82811 0.0
N216 N 0.32402 0.12984 0.82497 0.0
C217 C 0.32991 0.15021 0.81195 0.0
H218 H 0.29128 0.1195 0.84571 0.0
H219 H 0.31029 0.18371 0.80552 0.0
C220 C 0.28457 0.23271 0.84014 0.0
N221 N 0.19278 0.18347 0.85735 0.0
C222 C 0.16085 0.17029 0.85198 0.0
C223 C 0.19485 0.20226 0.87053 0.0
N224 N 0.14284 0.17994 0.86125 0.0
C225 C 0.16406 0.19997 0.87301 0.0
C226 C 0.26857 0.17264 0.87109 0.0
O227 O 0.29269 0.21182 0.83465 0.0
O228 O 0.25564 0.2219 0.84649 0.0
O229 O 0.24285 0.17612 0.86997 0.0
O230 O 0.28026 0.16681 0.85815 0.0
O231 O 0.1949 0.12827 0.85072 0.0
H232 H 0.21718 0.21643 0.87793 0.0
H233 H 0.15068 0.15313 0.84169 0.0
O234 O 0.23193 0.11801 0.83926 0.0
O235 O 0.24509 0.16388 0.81561 0.0
O236 O 0.20821 0.17468 0.82682 0.0
C237 C 0.22082 0.16945 0.81401 0.0
H238 H 0.34607 0.15308 0.80165 0.0
H239 H 0.15782 0.21219 0.88264 0.0
Co240 Co 0.8392 0.09909 0.83695 0.0
C241 C 0.89664 0.09709 0.84582 0.0
Co242 Co 0.82849 0.05119 0.84837 0.0
C243 C 0.87128 0.17035 0.83473 0.0
C244 C 0.83813 0.14729 0.81433 0.0
N245 N 0.84897 0.14021 0.82836 0.0
N246 N 0.87512 0.19604 0.82522 0.0
C247 C 0.85437 0.18171 0.81231 0.0
H248 H 0.88555 0.17335 0.84582 0.0
H249 H 0.82026 0.12866 0.80593 0.0
C250 C 0.77123 0.05372 0.84015 0.0
N251 N 0.81996 0.01033 0.85693 0.0
C252 C 0.83636 0.99398 0.85269 0.0
C253 C 0.79718 0.99045 0.86823 0.0
N254 N 0.82494 0.96469 0.86085 0.0
C255 C 0.80013 0.9623 0.87064 0.0
C256 C 0.83123 0.09678 0.87117 0.0
O257 O 0.79236 0.08284 0.83485 0.0
O258 O 0.78177 0.03518 0.84625 0.0
O259 O 0.82724 0.0674 0.86988 0.0
O260 O 0.83761 0.11475 0.85835 0.0
O261 O 0.87536 0.06779 0.85071 0.0
H262 H 0.77965 0.99609 0.87431 0.0
H263 H 0.8561 0.00331 0.84353 0.0
O264 O 0.88618 0.1152 0.83922 0.0
O265 O 0.84001 0.08297 0.81559 0.0
O266 O 0.82916 0.03514 0.82666 0.0
C267 C 0.83436 0.05311 0.8139 0.0
H268 H 0.85145 0.1951 0.80208 0.0
H269 H 0.78547 0.94196 0.8791 0.0
Co270 Co 0.74193 0.9049 0.6769 0.0
C271 C 0.80172 0.90759 0.66858 0.0
Co272 Co 0.7793 0.9533 0.66592 0.0
C273 C 0.70292 0.83348 0.67916 0.0
C274 C 0.69205 0.85665 0.69924 0.0
N275 N 0.71051 0.86367 0.68539 0.0
N276 N 0.68072 0.80785 0.6886 0.0
C277 C 0.67382 0.82225 0.70131 0.0
H278 H 0.71457 0.83042 0.66823 0.0
H279 H 0.69243 0.87531 0.70748 0.0
C280 C 0.71914 0.95009 0.67365 0.0
N281 N 0.8116 0.99433 0.65739 0.0
C282 C 0.84355 0.01296 0.66277 0.0
C283 C 0.80943 0.01148 0.64444 0.0
N284 N 0.86148 0.04094 0.65369 0.0
C285 C 0.84018 0.0401 0.64207 0.0
C286 C 0.73738 0.90767 0.64272 0.0
O287 O 0.71098 0.92071 0.67858 0.0
O288 O 0.74853 0.96915 0.668 0.0
O289 O 0.76203 0.93736 0.64441 0.0
O290 O 0.72563 0.88901 0.65532 0.0
O291 O 0.80976 0.93687 0.66361 0.0
H292 H 0.78707 0.00354 0.6371 0.0
H293 H 0.85378 0.00564 0.67291 0.0
O294 O 0.77307 0.88937 0.67508 0.0
O295 O 0.75806 0.92114 0.69844 0.0
O296 O 0.79569 0.96901 0.68764 0.0
C297 C 0.78243 0.95089 0.7003 0.0
H298 H 0.65709 0.80892 0.71142 0.0
H299 H 0.84635 0.05888 0.63261 0.0
Co300 Co 0.09822 0.83875 0.67636 0.0
C301 C 0.09399 0.89517 0.66813 0.0
Co302 Co 0.04929 0.82668 0.66578 0.0
C303 C 0.16936 0.87451 0.67874 0.0
C304 C 0.14823 0.83581 0.69698 0.0
N305 N 0.1399 0.84946 0.68445 0.0
N306 N 0.19586 0.87742 0.68723 0.0
C307 C 0.18274 0.85295 0.6987 0.0
H308 H 0.17127 0.8903 0.66845 0.0
H309 H 0.13038 0.8151 0.70448 0.0
C310 C 0.05394 0.77046 0.67333 0.0
N311 N 0.0079 0.81709 0.65755 0.0
C312 C 0.98946 0.83059 0.6629 0.0
C313 C 0.99053 0.7975 0.6447 0.0
N314 N 0.96139 0.82044 0.6539 0.0
C315 C 0.96194 0.79968 0.64236 0.0
C316 C 0.09458 0.83108 0.64223 0.0
O317 O 0.0833 0.79213 0.6781 0.0
O318 O 0.03435 0.78027 0.66786 0.0
O319 O 0.06478 0.82557 0.64414 0.0
O320 O 0.11365 0.83842 0.65469 0.0
O321 O 0.06467 0.87338 0.66348 0.0
H322 H 0.99841 0.78304 0.63736 0.0
H323 H 0.99708 0.8485 0.67289 0.0
O324 O 0.11285 0.88533 0.67442 0.0
O325 O 0.08258 0.83854 0.69804 0.0
O326 O 0.03404 0.82714 0.68764 0.0
C327 C 0.05267 0.83253 0.70015 0.0
H328 H 0.19693 0.84833 0.70792 0.0
H329 H 0.9431 0.78707 0.63293 0.0
Co330 Co 0.16565 0.26308 0.67762 0.0
C331 C 0.10791 0.20382 0.66876 0.0
Co332 Co 0.1759 0.22565 0.66616 0.0
C333 C 0.13411 0.30265 0.6798 0.0
C334 C 0.16691 0.31239 0.70031 0.0
N335 N 0.15618 0.29459 0.68623 0.0
N336 N 0.13031 0.32452 0.6893 0.0
C337 C 0.15082 0.33072 0.70228 0.0
H338 H 0.11993 0.29149 0.66867 0.0
H339 H 0.18458 0.31143 0.70877 0.0
C340 C 0.23351 0.2852 0.67441 0.0
N341 N 0.18414 0.1932 0.65753 0.0
C342 C 0.16757 0.1604 0.66171 0.0
C343 C 0.20681 0.19608 0.64618 0.0
N344 N 0.17879 0.14248 0.65345 0.0
C345 C 0.20363 0.16491 0.64367 0.0
C346 C 0.1734 0.26867 0.64338 0.0
O347 O 0.21259 0.29346 0.67973 0.0
O348 O 0.22268 0.2561 0.66828 0.0
O349 O 0.17723 0.24319 0.64466 0.0
O350 O 0.1673 0.2804 0.65623 0.0
O351 O 0.12901 0.19562 0.66382 0.0
H352 H 0.22441 0.21927 0.64013 0.0
H353 H 0.14787 0.15 0.67087 0.0
O354 O 0.11858 0.23241 0.67537 0.0
O355 O 0.16473 0.24605 0.69897 0.0
O356 O 0.17506 0.20875 0.68786 0.0
C357 C 0.17001 0.2216 0.70064 0.0
H358 H 0.15368 0.34697 0.71253 0.0
H359 H 0.21816 0.15919 0.63514 0.0
Co360 Co 0.71476 0.55678 0.49878 0.0
C361 C 0.71878 0.61687 0.5075 0.0
Co362 Co 0.76345 0.59314 0.50987 0.0
C363 C 0.65826 0.49157 0.49251 0.0
C364 C 0.65046 0.52995 0.48217 0.0
N365 N 0.67333 0.52513 0.4903 0.0
N366 N 0.62697 0.47535 0.48624 0.0
C367 C 0.62172 0.49929 0.4798 0.0
H368 H 0.6694 0.47927 0.49926 0.0
H369 H 0.65406 0.5542 0.47859 0.0
C370 C 0.76025 0.53361 0.50061 0.0
N371 N 0.80471 0.62395 0.51847 0.0
C372 C 0.83488 0.63185 0.51213 0.0
C373 C 0.8117 0.6417 0.53256 0.0
N374 N 0.86048 0.65355 0.52173 0.0
C375 C 0.84607 0.65981 0.53465 0.0
C376 C 0.71719 0.55198 0.53304 0.0
O377 O 0.73084 0.52596 0.49604 0.0
O378 O 0.77888 0.56209 0.50717 0.0
O379 O 0.74736 0.57563 0.53131 0.0
O380 O 0.69882 0.53981 0.52035 0.0
O381 O 0.74796 0.62431 0.51243 0.0
H382 H 0.79302 0.64092 0.54092 0.0
H383 H 0.83796 0.62078 0.50098 0.0
O384 O 0.69965 0.58797 0.5014 0.0
O385 O 0.73056 0.57456 0.47735 0.0
O386 O 0.77901 0.61058 0.48838 0.0
C387 C 0.76028 0.59927 0.47577 0.0
H388 H 0.5987 0.49492 0.47397 0.0
H389 H 0.85939 0.67603 0.54493 0.0
Co390 Co 0.44578 0.15961 0.49982 0.0
C391 C 0.38572 0.10276 0.50833 0.0
Co392 Co 0.4084 0.17056 0.51071 0.0
C393 C 0.51052 0.16667 0.49571 0.0
C394 C 0.47456 0.12727 0.48036 0.0
N395 N 0.47775 0.15038 0.49152 0.0
N396 N 0.52814 0.15492 0.48762 0.0
C397 C 0.50554 0.12996 0.47795 0.0
H398 H 0.52113 0.18666 0.50473 0.0
H399 H 0.4513 0.10978 0.47432 0.0
C400 C 0.4681 0.22762 0.50161 0.0
N401 N 0.37724 0.18085 0.51889 0.0
C402 C 0.37197 0.20502 0.51276 0.0
C403 C 0.35631 0.16826 0.53188 0.0
N404 N 0.34897 0.20854 0.52143 0.0
C405 C 0.33876 0.18526 0.53345 0.0
C406 C 0.4496 0.16668 0.53415 0.0
O407 O 0.47661 0.20638 0.49733 0.0
O408 O 0.43923 0.21726 0.50779 0.0
O409 O 0.42549 0.17244 0.53222 0.0
O410 O 0.46224 0.16076 0.52156 0.0
O411 O 0.37782 0.1241 0.51334 0.0
H412 H 0.35442 0.14852 0.53983 0.0
H413 H 0.38496 0.21991 0.50207 0.0
O414 O 0.41475 0.11301 0.50224 0.0
O415 O 0.42846 0.15791 0.47813 0.0
O416 O 0.39101 0.16795 0.48934 0.0
C417 C 0.40282 0.16147 0.47665 0.0
H418 H 0.51104 0.11509 0.46954 0.0
H419 H 0.32075 0.1815 0.54298 0.0
Co420 Co 0.84373 0.28646 0.49915 0.0
C421 C 0.90074 0.28359 0.5075 0.0
Co422 Co 0.83286 0.23849 0.51051 0.0
C423 C 0.83579 0.34357 0.49465 0.0
C424 C 0.8754 0.3473 0.47938 0.0
N425 N 0.85251 0.32742 0.49063 0.0
N426 N 0.84706 0.37269 0.48636 0.0
C427 C 0.87217 0.37523 0.47675 0.0
H428 H 0.81582 0.33415 0.50368 0.0
H429 H 0.89309 0.34173 0.47341 0.0
C430 C 0.77567 0.2409 0.50151 0.0
N431 N 0.82266 0.19716 0.51893 0.0
C432 C 0.79802 0.16756 0.51313 0.0
C433 C 0.83566 0.18911 0.53184 0.0
N434 N 0.79463 0.14124 0.52195 0.0
C435 C 0.81847 0.1546 0.53371 0.0
C436 C 0.83749 0.2842 0.53362 0.0
O437 O 0.79703 0.27022 0.49672 0.0
O438 O 0.78603 0.22273 0.50809 0.0
O439 O 0.83189 0.25435 0.5319 0.0
O440 O 0.84285 0.3023 0.52088 0.0
O441 O 0.87953 0.25445 0.51273 0.0
H442 H 0.85583 0.20715 0.53955 0.0
H443 H 0.78272 0.16543 0.50258 0.0
O444 O 0.89035 0.30223 0.50139 0.0
O445 O 0.84515 0.27036 0.47759 0.0
O446 O 0.83457 0.22297 0.48914 0.0
C447 C 0.8411 0.24095 0.47632 0.0
H448 H 0.88677 0.39547 0.46823 0.0
H449 H 0.82251 0.1406 0.54326 0.0
Co450 Co 0.89332 0.38572 0.68145 0.0
C451 C 0.95297 0.38803 0.67316 0.0
Co452 Co 0.93049 0.43337 0.66986 0.0
C453 C 0.8284 0.32836 0.68601 0.0
C454 C 0.8644 0.32542 0.70154 0.0
N455 N 0.86118 0.34502 0.6902 0.0
N456 N 0.81083 0.29911 0.69423 0.0
C457 C 0.83345 0.29709 0.70402 0.0
H458 H 0.81778 0.33739 0.67682 0.0
H459 H 0.8877 0.33132 0.70757 0.0
C460 C 0.87122 0.43166 0.6788 0.0
N461 N 0.96181 0.47423 0.66107 0.0
C462 C 0.97009 0.50452 0.66739 0.0
C463 C 0.97938 0.48099 0.64693 0.0
N464 N 0.99189 0.52997 0.65775 0.0
C465 C 0.99779 0.51536 0.6448 0.0
C466 C 0.88895 0.38711 0.64699 0.0
O467 O 0.8631 0.40238 0.68376 0.0
O468 O 0.89977 0.44962 0.67213 0.0
O469 O 0.91325 0.41695 0.64858 0.0
O470 O 0.87629 0.36929 0.6598 0.0
O471 O 0.96095 0.41705 0.66774 0.0
H472 H 0.97823 0.46216 0.63855 0.0
H473 H 0.95917 0.5078 0.67854 0.0
O474 O 0.92396 0.36965 0.67935 0.0
O475 O 0.91099 0.40228 0.70288 0.0
O476 O 0.94804 0.44938 0.69118 0.0
C477 C 0.93644 0.43166 0.70407 0.0
H478 H 0.82802 0.27686 0.71251 0.0
H479 H 0.01391 0.52854 0.63447 0.0
Co480 Co 0.62167 0.51017 0.68227 0.0
C481 C 0.61755 0.56648 0.67442 0.0
Co482 Co 0.57304 0.49802 0.67115 0.0
C483 C 0.68163 0.50638 0.68539 0.0
C484 C 0.67973 0.53846 0.70391 0.0
N485 N 0.66281 0.51941 0.69084 0.0
N486 N 0.70951 0.51634 0.69452 0.0
C487 C 0.70842 0.53645 0.70627 0.0
H488 H 0.67447 0.48901 0.67518 0.0
H489 H 0.67153 0.55252 0.71136 0.0
C490 C 0.57667 0.44157 0.67962 0.0
N491 N 0.53163 0.48755 0.66263 0.0
C492 C 0.50158 0.46487 0.66896 0.0
C493 C 0.52434 0.49845 0.64868 0.0
N494 N 0.47576 0.46087 0.6595 0.0
C495 C 0.48992 0.4819 0.64667 0.0
C496 C 0.61957 0.5045 0.64787 0.0
O497 O 0.606 0.46325 0.68435 0.0
O498 O 0.55791 0.45149 0.67329 0.0
O499 O 0.5893 0.49759 0.64962 0.0
O500 O 0.6379 0.51056 0.66055 0.0
O501 O 0.58854 0.54486 0.66916 0.0
H502 H 0.54284 0.51665 0.64035 0.0
H503 H 0.49874 0.45053 0.68001 0.0
O504 O 0.63668 0.55658 0.68042 0.0
O505 O 0.60531 0.51067 0.70377 0.0
O506 O 0.55714 0.49884 0.6927 0.0
C507 C 0.57561 0.50562 0.70537 0.0
H508 H 0.72701 0.54882 0.71583 0.0
H509 H 0.4764 0.48488 0.63651 0.0
Co510 Co 0.49571 0.11259 0.68212 0.0
C511 C 0.43875 0.05292 0.67381 0.0
Co512 Co 0.50678 0.07563 0.67077 0.0
C513 C 0.50077 0.17674 0.68565 0.0
C514 C 0.4685 0.14284 0.70415 0.0
N515 N 0.48719 0.14474 0.69097 0.0
N516 N 0.49149 0.19497 0.69496 0.0
C517 C 0.47127 0.17383 0.7067 0.0
H518 H 0.51808 0.18683 0.67541 0.0
H519 H 0.45422 0.12055 0.71156 0.0
C520 C 0.5639 0.13511 0.67967 0.0
N521 N 0.51652 0.04448 0.66195 0.0
C522 C 0.53867 0.03636 0.66822 0.0
C523 C 0.50564 0.02686 0.64783 0.0
N524 N 0.54237 0.01462 0.65856 0.0
C525 C 0.52171 0.00858 0.64566 0.0
C526 C 0.5017 0.11697 0.64776 0.0
O527 O 0.54243 0.14305 0.68433 0.0
O528 O 0.55369 0.10644 0.67323 0.0
O529 O 0.50777 0.09304 0.64946 0.0
O530 O 0.49608 0.12941 0.66051 0.0
O531 O 0.46003 0.04512 0.66855 0.0
H532 H 0.48783 0.02788 0.63949 0.0
H533 H 0.55292 0.04733 0.67935 0.0
O534 O 0.44909 0.08187 0.68003 0.0
O535 O 0.49479 0.09486 0.70359 0.0
O536 O 0.50505 0.05789 0.69201 0.0
C537 C 0.49874 0.06944 0.70485 0.0
H538 H 0.45933 0.18029 0.71638 0.0
H539 H 0.51872 0.99243 0.63534 0.0
Co540 Co 0.57123 0.07392 0.17051 0.0
C541 C 0.57294 0.13322 0.17946 0.0
Co542 Co 0.61898 0.11118 0.182 0.0
C543 C 0.50005 0.03438 0.16817 0.0
C544 C 0.52339 0.02484 0.14772 0.0
N545 N 0.53028 0.04252 0.16182 0.0
N546 N 0.47451 0.01259 0.15858 0.0
C547 C 0.489 0.00652 0.14563 0.0
H548 H 0.49688 0.04542 0.1793 0.0
H549 H 0.54214 0.02588 0.13931 0.0
C550 C 0.61682 0.0516 0.17365 0.0
N551 N 0.65972 0.1435 0.19066 0.0
C552 C 0.67612 0.17628 0.18645 0.0
C553 C 0.6795 0.14052 0.20198 0.0
N554 N 0.70535 0.19409 0.19465 0.0
C555 C 0.70765 0.17161 0.20444 0.0
C556 C 0.57331 0.06802 0.20472 0.0
O557 O 0.58769 0.0435 0.16833 0.0
O558 O 0.63517 0.08063 0.17984 0.0
O559 O 0.60265 0.09352 0.20348 0.0
O560 O 0.55546 0.05642 0.19186 0.0
O561 O 0.60224 0.14132 0.18436 0.0
H562 H 0.6738 0.1173 0.20803 0.0
H563 H 0.66688 0.18673 0.17728 0.0
O564 O 0.55491 0.10464 0.17283 0.0
O565 O 0.58741 0.09108 0.1492 0.0
O566 O 0.63517 0.12814 0.16031 0.0
C567 C 0.61723 0.11538 0.14753 0.0
H568 H 0.47573 0.99036 0.13533 0.0
H569 H 0.72794 0.17725 0.21293 0.0
Co570 Co 0.92812 0.49822 0.17072 0.0
C571 C 0.86801 0.44135 0.17973 0.0
Co572 Co 0.89122 0.50951 0.18195 0.0
C573 C 0.96398 0.46311 0.16832 0.0
C574 C 0.98033 0.50069 0.14957 0.0
N575 N 0.95902 0.48765 0.16239 0.0
N576 N 0.98721 0.45988 0.15969 0.0
C577 C 0.99782 0.48366 0.1479 0.0
H578 H 0.95071 0.44788 0.17887 0.0
H579 H 0.98263 0.52089 0.14183 0.0
C580 C 0.95145 0.5662 0.17361 0.0
N581 N 0.85943 0.5189 0.19047 0.0
C582 C 0.82753 0.50579 0.18508 0.0
C583 C 0.86172 0.53816 0.20347 0.0
N584 N 0.80973 0.5159 0.1942 0.0
C585 C 0.83105 0.53619 0.20586 0.0
C586 C 0.93388 0.50658 0.20487 0.0
O587 O 0.95911 0.54483 0.16833 0.0
O588 O 0.92251 0.556 0.17979 0.0
O589 O 0.90849 0.51054 0.20355 0.0
O590 O 0.94542 0.50011 0.19208 0.0
O591 O 0.86016 0.46292 0.1843 0.0
H592 H 0.88406 0.55231 0.21087 0.0
H593 H 0.8172 0.48824 0.17495 0.0
O594 O 0.89669 0.45145 0.17334 0.0
O595 O 0.91129 0.49702 0.14932 0.0
O596 O 0.87488 0.50897 0.16015 0.0
C597 C 0.88739 0.50309 0.14749 0.0
H598 H 0.01618 0.48784 0.13849 0.0
H599 H 0.82492 0.54869 0.21539 0.0
Co600 Co 0.5055 0.43172 0.17 0.0
C601 C 0.56311 0.43008 0.17892 0.0
Co602 Co 0.49519 0.38406 0.1816 0.0
C603 C 0.53726 0.50295 0.16746 0.0
C604 C 0.50426 0.47939 0.14707 0.0
N605 N 0.5151 0.47264 0.16119 0.0
N606 N 0.54101 0.52841 0.1578 0.0
C607 C 0.52036 0.51376 0.14489 0.0
H608 H 0.55152 0.50624 0.17859 0.0
H609 H 0.48649 0.46056 0.13871 0.0
C610 C 0.43772 0.38617 0.17332 0.0
N611 N 0.4868 0.34336 0.19046 0.0
C612 C 0.49998 0.32458 0.18511 0.0
C613 C 0.46798 0.32666 0.20363 0.0
N614 N 0.4903 0.29693 0.1944 0.0
C615 C 0.47025 0.29816 0.20615 0.0
C616 C 0.49778 0.43013 0.20419 0.0
O617 O 0.45869 0.41519 0.16783 0.0
O618 O 0.44844 0.36791 0.17959 0.0
O619 O 0.49421 0.40089 0.20305 0.0
O620 O 0.50379 0.44774 0.19127 0.0
O621 O 0.54204 0.40069 0.18382 0.0
H622 H 0.45381 0.33483 0.21101 0.0
H623 H 0.51716 0.33156 0.17483 0.0
O624 O 0.55242 0.44803 0.17235 0.0
O625 O 0.50648 0.41533 0.14874 0.0
O626 O 0.49564 0.3676 0.15992 0.0
C627 C 0.5009 0.38548 0.14712 0.0
H628 H 0.51741 0.52691 0.13455 0.0
H629 H 0.45801 0.27972 0.21579 0.0
Co630 Co 0.4089 0.23709 0.01049 0.0
C631 C 0.46827 0.23926 1.00155 0.0
Co632 Co 0.44614 0.28516 0.99922 0.0
C633 C 0.36966 0.16587 0.01302 0.0
C634 C 0.35992 0.18939 0.03333 0.0
N635 N 0.37766 0.19615 0.01925 0.0
N636 N 0.3479 0.14042 0.02267 0.0
C637 C 0.3417 0.15503 0.03553 0.0
H638 H 0.38076 0.16261 1.00193 0.0
H639 H 0.36084 0.20822 0.04164 0.0
C640 C 0.3865 0.28257 0.00752 0.0
N641 N 0.47837 0.32593 0.99043 0.0
C642 C 0.51037 0.34455 0.99574 0.0
C643 C 0.4763 0.34272 0.97728 0.0
N644 N 0.52843 0.37217 0.98645 0.0
C645 C 0.50717 0.37111 0.97474 0.0
C646 C 0.40285 0.23916 0.97641 0.0
O647 O 0.3785 0.25339 0.01272 0.0
O648 O 0.41554 0.30117 1.00139 0.0
O649 O 0.42833 0.2685 0.97771 0.0
O650 O 0.39122 0.22123 0.98923 0.0
O651 O 0.47644 0.26875 0.99692 0.0
H652 H 0.45396 0.33463 0.96991 0.0
H653 H 0.52057 0.33742 1.00596 0.0
O654 O 0.43958 0.22092 0.008 0.0
O655 O 0.42626 0.25334 0.03182 0.0
O656 O 0.46302 0.30139 0.02087 0.0
C657 C 0.45039 0.28322 0.03359 0.0
H658 H 0.3255 0.14187 0.04583 0.0
H659 H 0.51346 0.38956 0.9651 0.0
Co660 Co 0.76504 0.16981 0.01083 0.0
C661 C 0.76215 0.22683 1.00177 0.0
Co662 Co 0.71702 0.15867 0.99951 0.0
C663 C 0.83589 0.20474 0.01304 0.0
C664 C 0.81495 0.16773 0.03206 0.0
N665 N 0.80649 0.18033 0.01913 0.0
N666 N 0.86248 0.20837 0.02167 0.0
C667 C 0.84952 0.18494 0.03364 0.0
H668 H 0.83766 0.21964 1.00238 0.0
H669 H 0.79717 0.14779 0.03995 0.0
C670 C 0.72032 0.10189 0.00792 0.0
N671 N 0.67588 0.14935 0.99108 0.0
C672 C 0.65932 0.16555 0.99525 0.0
C673 C 0.65607 0.12626 0.97989 0.0
N674 N 0.62998 0.15376 0.98712 0.0
C675 C 0.62772 0.12885 0.97745 0.0
C676 C 0.76246 0.16158 0.97661 0.0
O677 O 0.74943 0.12319 0.01315 0.0
O678 O 0.70163 0.11218 1.00179 0.0
O679 O 0.733 0.15737 0.97792 0.0
O680 O 0.78043 0.16808 0.98943 0.0
O681 O 0.73284 0.20532 0.99703 0.0
H682 H 0.66191 0.10882 0.97386 0.0
H683 H 0.66859 0.18548 1.0043 0.0
O684 O 0.78049 0.21664 0.00832 0.0
O685 O 0.74935 0.17085 0.03226 0.0
O686 O 0.70127 0.1595 0.02128 0.0
C687 C 0.71945 0.16508 0.034 0.0
H688 H 0.86385 0.18116 0.04311 0.0
H689 H 0.60739 0.11396 0.96902 0.0
Co690 Co 0.83241 0.59392 0.01051 0.0
C691 C 0.7751 0.53431 1.00144 0.0
Co692 Co 0.84323 0.55689 0.99908 0.0
C693 C 0.7978 0.63019 0.01306 0.0
C694 C 0.83548 0.64631 0.03175 0.0
N695 N 0.82231 0.6251 0.0189 0.0
N696 N 0.79466 0.65336 0.02179 0.0
C697 C 0.81851 0.66384 0.03354 0.0
H698 H 0.78244 0.61697 1.00253 0.0
H699 H 0.85564 0.64843 0.03945 0.0
C700 C 0.9003 0.61674 0.00757 0.0
N701 N 0.8521 0.52473 0.99063 0.0
C702 C 0.83572 0.49197 0.99487 0.0
C703 C 0.8751 0.52775 0.97945 0.0
N704 N 0.84735 0.47419 0.9868 0.0
C705 C 0.87229 0.49669 0.97709 0.0
C706 C 0.84083 0.59987 0.97628 0.0
O707 O 0.87907 0.6247 0.01272 0.0
O708 O 0.88991 0.58769 1.00147 0.0
O709 O 0.84499 0.57457 0.97752 0.0
O710 O 0.83406 0.61108 0.98912 0.0
O711 O 0.79641 0.52644 0.99645 0.0
H712 H 0.89268 0.55096 0.9734 0.0
H713 H 0.81583 0.48149 1.00394 0.0
O714 O 0.78553 0.56273 0.00818 0.0
O715 O 0.83148 0.57728 0.03187 0.0
O716 O 0.84203 0.54002 0.02087 0.0
C717 C 0.83684 0.55289 0.03361 0.0
H718 H 0.82273 0.68207 0.04302 0.0
H719 H 0.88713 0.49108 0.96871 0.0
Co720 Co 0.38505 0.89288 0.83305 0.0
C721 C 0.38806 0.95289 0.84122 0.0
Co722 Co 0.43307 0.92992 0.84443 0.0
C723 C 0.32742 0.82796 0.82883 0.0
C724 C 0.32429 0.86372 0.81319 0.0
N725 N 0.34406 0.86069 0.82449 0.0
N726 N 0.29805 0.81024 0.82071 0.0
C727 C 0.29591 0.83273 0.81086 0.0
H728 H 0.3366 0.81749 0.83801 0.0
H729 H 0.33014 0.88691 0.80705 0.0
C730 C 0.4306 0.87028 0.83555 0.0
N731 N 0.47432 0.96108 0.853 0.0
C732 C 0.50438 0.9688 0.84656 0.0
C733 C 0.48162 0.97886 0.86709 0.0
N734 N 0.5302 0.99042 0.85607 0.0
C735 C 0.51606 0.99682 0.86907 0.0
C736 C 0.38689 0.88892 0.8675 0.0
O737 O 0.4012 0.86229 0.83086 0.0
O738 O 0.44899 0.89895 0.842 0.0
O739 O 0.41691 0.91286 0.86581 0.0
O740 O 0.36885 0.87638 0.85474 0.0
O741 O 0.41705 0.96067 0.84663 0.0
H742 H 0.46311 0.97813 0.87556 0.0
H743 H 0.50721 0.95757 0.83541 0.0
O744 O 0.36947 0.92388 0.83505 0.0
O745 O 0.40146 0.91015 0.81149 0.0
O746 O 0.44871 0.94722 0.82308 0.0
C747 C 0.43087 0.93556 0.81022 0.0
H748 H 0.27559 0.82716 0.80241 0.0
H749 H 0.52959 0.01297 0.87933 0.0
Co750 Co 0.11218 0.49468 0.8324 0.0
C751 C 0.05252 0.43737 0.84057 0.0
Co752 Co 0.0751 0.50535 0.84388 0.0
C753 C 0.17721 0.50277 0.82775 0.0
C754 C 0.14142 0.46379 0.81215 0.0
N755 N 0.1444 0.48631 0.82362 0.0
N756 N 0.19504 0.49165 0.81935 0.0
C757 C 0.17255 0.46696 0.80953 0.0
H758 H 0.18769 0.52235 0.83698 0.0
H759 H 0.11818 0.44634 0.80608 0.0
C760 C 0.13448 0.56286 0.83506 0.0
N761 N 0.04376 0.51483 0.85267 0.0
C762 C 0.03554 0.53689 0.84638 0.0
C763 C 0.02605 0.50386 0.86676 0.0
N764 N 0.01365 0.54044 0.85598 0.0
C765 C 0.00762 0.51978 0.86889 0.0
C766 C 0.11648 0.50038 0.86682 0.0
O767 O 0.14252 0.54153 0.83032 0.0
O768 O 0.10576 0.55242 0.8415 0.0
O769 O 0.09245 0.50631 0.86518 0.0
O770 O 0.12895 0.49489 0.85403 0.0
O771 O 0.04467 0.45847 0.84606 0.0
H772 H 0.02711 0.48609 0.87512 0.0
H773 H 0.04657 0.55119 0.83526 0.0
O774 O 0.08146 0.44796 0.8343 0.0
O775 O 0.09473 0.49395 0.81092 0.0
O776 O 0.05747 0.50368 0.8226 0.0
C777 C 0.06922 0.49776 0.80971 0.0
H778 H 0.17821 0.45255 0.80089 0.0
H779 H 0.99138 0.51672 0.87918 0.0
Co780 Co 0.51079 0.6209 0.83218 0.0
C781 C 0.56675 0.61647 0.84007 0.0
Co782 Co 0.49818 0.57192 0.84295 0.0
C783 C 0.50388 0.67866 0.82821 0.0
C784 C 0.5432 0.68225 0.81276 0.0
N785 N 0.52011 0.66219 0.82389 0.0
N786 N 0.51567 0.70819 0.82024 0.0
C787 C 0.54058 0.71064 0.81051 0.0
H788 H 0.48396 0.66922 0.83726 0.0
H789 H 0.56068 0.67656 0.80666 0.0
C790 C 0.44201 0.57579 0.83445 0.0
N791 N 0.48773 0.53047 0.85132 0.0
C792 C 0.46489 0.50045 0.84503 0.0
C793 C 0.49891 0.52314 0.86517 0.0
N794 N 0.46106 0.47462 0.85443 0.0
C795 C 0.48236 0.48872 0.86717 0.0
C796 C 0.50462 0.61816 0.86648 0.0
O797 O 0.46393 0.60514 0.82989 0.0
O798 O 0.45166 0.55681 0.84078 0.0
O799 O 0.49777 0.58792 0.8646 0.0
O800 O 0.51061 0.63664 0.85388 0.0
O801 O 0.54493 0.5872 0.84491 0.0
H802 H 0.5173 0.54161 0.87344 0.0
H803 H 0.45033 0.49766 0.83407 0.0
O804 O 0.55709 0.63599 0.83434 0.0
O805 O 0.51192 0.60517 0.8106 0.0
O806 O 0.49901 0.55639 0.82134 0.0
C807 C 0.50637 0.57531 0.80881 0.0
H808 H 0.5555 0.73116 0.80218 0.0
H809 H 0.48552 0.47517 0.87725 0.0
Co810 Co 0.55826 0.71547 0.01544 0.0
C811 C 0.61834 0.71923 0.00753 0.0
Co812 Co 0.5947 0.76392 1.00427 0.0
C813 C 0.49345 0.65829 0.02009 0.0
C814 C 0.52954 0.65483 0.03532 0.0
N815 N 0.52632 0.67461 0.02409 0.0
N816 N 0.47581 0.62914 0.02836 0.0
C817 C 0.49848 0.62674 0.03795 0.0
H818 H 0.48279 0.66756 0.01105 0.0
H819 H 0.55289 0.66053 0.04124 0.0
C820 C 0.53502 0.76084 0.01273 0.0
N821 N 0.62583 0.80499 0.99563 0.0
C822 C 0.63372 0.83516 1.00196 0.0
C823 C 0.64399 0.81199 0.98167 0.0
N824 N 0.65587 0.86077 0.99251 0.0
C825 C 0.66238 0.84638 0.97966 0.0
C826 C 0.55433 0.71716 0.9811 0.0
O827 O 0.52751 0.73173 0.01774 0.0
O828 O 0.5635 0.7793 1.00615 0.0
O829 O 0.57807 0.7473 0.98276 0.0
O830 O 0.54175 0.69912 0.99384 0.0
O831 O 0.62593 0.74842 1.00253 0.0
H832 H 0.64336 0.79331 0.97336 0.0
H833 H 0.62239 0.83825 0.01301 0.0
O834 O 0.58916 0.69995 0.01332 0.0
O835 O 0.57557 0.73168 0.03688 0.0
O836 O 0.61133 0.78012 0.02581 0.0
C837 C 0.59996 0.76154 0.03847 0.0
H838 H 0.49298 0.60648 0.04643 0.0
H839 H 0.679 0.85974 0.96951 0.0
Co840 Co 0.2869 0.8419 0.01539 0.0
C841 C 0.28363 0.89897 0.00803 0.0
Co842 Co 0.2383 0.83097 1.00476 0.0
C843 C 0.34609 0.8368 0.01847 0.0
C844 C 0.34494 0.86939 0.03694 0.0
N845 N 0.32782 0.85045 0.02387 0.0
N846 N 0.37381 0.84622 0.02765 0.0
C847 C 0.3732 0.86666 0.03936 0.0
H848 H 0.33861 0.81933 0.00829 0.0
H849 H 0.33712 0.88379 0.04436 0.0
C850 C 0.24105 0.77377 0.01271 0.0
N851 N 0.19714 0.82132 0.99634 0.0
C852 C 0.16701 0.7988 1.00264 0.0
C853 C 0.19003 0.83252 0.98243 0.0
N854 N 0.14133 0.79516 0.9932 0.0
C855 C 0.15562 0.81626 0.9804 0.0
C856 C 0.28432 0.83682 0.98111 0.0
O857 O 0.27084 0.79492 0.01704 0.0
O858 O 0.2223 0.78422 1.00693 0.0
O859 O 0.2543 0.83056 0.98314 0.0
O860 O 0.30283 0.84233 0.99367 0.0
O861 O 0.25443 0.87778 1.00286 0.0
H862 H 0.20864 0.85063 0.9741 0.0
H863 H 0.16403 0.78422 0.01361 0.0
O864 O 0.3025 0.88857 0.01385 0.0
O865 O 0.27071 0.84212 0.03704 0.0
O866 O 0.22278 0.83191 0.0263 0.0
C867 C 0.24132 0.83782 0.03885 0.0
H868 H 0.39181 0.87874 0.04894 0.0
H869 H 0.14221 0.81939 0.97025 0.0
Co870 Co 0.16047 0.44489 0.01465 0.0
C871 C 0.10422 0.38443 1.00579 0.0
Co872 Co 0.17218 0.40816 1.00356 0.0
C873 C 0.16863 0.50991 0.02075 0.0
C874 C 0.12225 0.47131 0.03084 0.0
N875 N 0.15022 0.47633 0.02293 0.0
N876 N 0.15324 0.52596 0.02684 0.0
C877 C 0.12391 0.50186 0.03313 0.0
H878 H 0.19226 0.52234 0.01416 0.0
H879 H 0.10157 0.44699 0.03432 0.0
C880 C 0.22864 0.46811 0.01306 0.0
N881 N 0.18328 0.37762 0.99529 0.0
C882 C 0.20797 0.37291 1.00122 0.0
C883 C 0.17045 0.35639 0.98243 0.0
N884 N 0.21148 0.34989 0.99256 0.0
C885 C 0.18774 0.33917 0.98074 0.0
C886 C 0.16795 0.44936 0.9803 0.0
O887 O 0.20695 0.47565 0.01781 0.0
O888 O 0.21873 0.43987 1.00623 0.0
O889 O 0.17327 0.42494 0.98211 0.0
O890 O 0.16254 0.4622 0.99298 0.0
O891 O 0.12584 0.37665 1.00111 0.0
H892 H 0.15022 0.35395 0.97467 0.0
H893 H 0.22311 0.38621 0.01179 0.0
O894 O 0.11414 0.41358 0.01161 0.0
O895 O 0.15791 0.4269 0.0362 0.0
O896 O 0.17035 0.3911 0.02498 0.0
C897 C 0.16278 0.40207 0.03765 0.0
H898 H 0.10503 0.50607 0.03881 0.0
H899 H 0.18376 0.32092 0.9713 0.0
Co900 Co 0.23809 0.40754 0.50342 0.0
C901 C 0.24043 0.46672 0.51257 0.0
Co902 Co 0.28611 0.4441 0.51492 0.0
C903 C 0.16696 0.36825 0.50107 0.0
C904 C 0.19018 0.35912 0.48043 0.0
N905 N 0.19714 0.3765 0.49463 0.0
N906 N 0.14137 0.34666 0.49145 0.0
C907 C 0.15578 0.34084 0.47838 0.0
H908 H 0.16386 0.37906 0.5123 0.0
H909 H 0.20888 0.3603 0.47195 0.0
C910 C 0.28313 0.38451 0.50638 0.0
N911 N 0.32686 0.47605 0.5237 0.0
C912 C 0.34332 0.50891 0.51966 0.0
C913 C 0.34648 0.47283 0.53503 0.0
N914 N 0.37241 0.52654 0.52799 0.0
C915 C 0.3746 0.50387 0.53766 0.0
C916 C 0.24001 0.40107 0.53757 0.0
O917 O 0.25427 0.37706 0.50093 0.0
O918 O 0.30169 0.41321 0.51284 0.0
O919 O 0.26935 0.42657 0.53637 0.0
O920 O 0.22227 0.38946 0.52468 0.0
O921 O 0.26991 0.47472 0.51713 0.0
H922 H 0.34067 0.44949 0.541 0.0
H923 H 0.3342 0.51956 0.51054 0.0
O924 O 0.22194 0.43807 0.50614 0.0
O925 O 0.25439 0.42552 0.48212 0.0
O926 O 0.30277 0.4608 0.49336 0.0
C927 C 0.28465 0.44903 0.48058 0.0
H928 H 0.14245 0.32488 0.46803 0.0
H929 H 0.39476 0.50935 0.54621 0.0
Co930 Co 0.59464 0.83061 0.50501 0.0
C931 C 0.53488 0.77383 0.51344 0.0
Co932 Co 0.55756 0.84234 0.5156 0.0
C933 C 0.6338 0.7984 0.50298 0.0
C934 C 0.64474 0.83241 0.48288 0.0
N935 N 0.62612 0.82085 0.49668 0.0
N936 N 0.65622 0.79518 0.49364 0.0
C937 C 0.66317 0.81646 0.48092 0.0
H938 H 0.62208 0.78365 0.5139 0.0
H939 H 0.64437 0.85067 0.47461 0.0
C940 C 0.61774 0.89891 0.50781 0.0
N941 N 0.52521 0.8511 0.52388 0.0
C942 C 0.4924 0.8344 0.51974 0.0
C943 C 0.52815 0.87419 0.53498 0.0
N944 N 0.47453 0.84592 0.5278 0.0
C945 C 0.49701 0.87112 0.53739 0.0
C946 C 0.59911 0.83875 0.53909 0.0
O947 O 0.62574 0.87735 0.50329 0.0
O948 O 0.58823 0.88892 0.51319 0.0
O949 O 0.57485 0.84433 0.53719 0.0
O950 O 0.61066 0.83118 0.52663 0.0
O951 O 0.52719 0.79546 0.51816 0.0
H952 H 0.55137 0.89196 0.54097 0.0
H953 H 0.48195 0.81432 0.51076 0.0
O954 O 0.56346 0.78386 0.50695 0.0
O955 O 0.57869 0.83059 0.48335 0.0
O956 O 0.54104 0.84105 0.49388 0.0
C957 C 0.5544 0.83603 0.48132 0.0
H958 H 0.68006 0.81996 0.47086 0.0
H959 H 0.49133 0.88593 0.54575 0.0
Co960 Co 0.17024 0.76321 0.50475 0.0
C961 C 0.22692 0.75974 0.51338 0.0
Co962 Co 0.1585 0.71454 0.51549 0.0
C963 C 0.20572 0.83421 0.5025 0.0
C964 C 0.16752 0.81328 0.48402 0.0
N965 N 0.18078 0.80483 0.49667 0.0
N966 N 0.209 0.86077 0.49395 0.0
C967 C 0.18483 0.84781 0.48234 0.0
H968 H 0.22126 0.836 0.51289 0.0
H969 H 0.14703 0.7955 0.47638 0.0
C970 C 0.10204 0.71843 0.50746 0.0
N971 N 0.14917 0.67323 0.52365 0.0
C972 C 0.16567 0.65696 0.51948 0.0
C973 C 0.12595 0.65309 0.53472 0.0
N974 N 0.15395 0.62751 0.52751 0.0
C975 C 0.12878 0.62487 0.53709 0.0
C976 C 0.16206 0.75951 0.53891 0.0
O977 O 0.12356 0.74796 0.50284 0.0
O978 O 0.11206 0.69908 0.51301 0.0
O979 O 0.15648 0.72965 0.5371 0.0
O980 O 0.16956 0.77849 0.5264 0.0
O981 O 0.20527 0.73051 0.51817 0.0
H982 H 0.10832 0.65869 0.54073 0.0
H983 H 0.18579 0.66655 0.51053 0.0
O984 O 0.2169 0.77821 0.50682 0.0
O985 O 0.17046 0.74771 0.48313 0.0
O986 O 0.1599 0.69955 0.49369 0.0
C987 C 0.16509 0.718 0.48112 0.0
H988 H 0.1806 0.86211 0.47302 0.0
H989 H 0.11388 0.60437 0.54544 0.0
Co990 Co 0.07536 0.5726 0.34396 0.0
C991 C 0.135 0.57528 0.3347 0.0
Co992 Co 0.11226 0.62071 0.33267 0.0
C993 C 0.03933 0.5017 0.3463 0.0
C994 C 0.02322 0.52289 0.36518 0.0
N995 N 0.04432 0.53118 0.35227 0.0
N996 N 0.01634 0.47523 0.35501 0.0
C997 C 0.00584 0.48835 0.36688 0.0
H998 H 0.0525 0.49976 0.33571 0.0
H999 H 0.02107 0.54078 0.37299 0.0
C1000 C 0.05236 0.61752 0.34128 0.0
N1001 N 0.14426 0.66187 0.32428 0.0
C1002 C 0.17701 0.6783 0.32852 0.0
C1003 C 0.14118 0.68189 0.31315 0.0
N1004 N 0.19473 0.70776 0.32049 0.0
C1005 C 0.17221 0.71021 0.31081 0.0
C1006 C 0.06937 0.57543 0.30979 0.0
O1007 O 0.04459 0.58838 0.34643 0.0
O1008 O 0.08129 0.63626 0.33507 0.0
O1009 O 0.09474 0.60485 0.31108 0.0
O1010 O 0.05801 0.55737 0.32259 0.0
O1011 O 0.14291 0.60469 0.33006 0.0
H1012 H 0.11795 0.67621 0.30711 0.0
H1013 H 0.18754 0.66887 0.33755 0.0
O1014 O 0.10649 0.55698 0.34129 0.0
O1015 O 0.09227 0.58812 0.36535 0.0
O1016 O 0.12896 0.63632 0.35445 0.0
C1017 C 0.11635 0.61803 0.36714 0.0
H1018 H 0.98774 0.47414 0.37638 0.0
H1019 H 0.17778 0.73069 0.30246 0.0
Co1020 Co 0.43032 0.50454 0.34328 0.0
C1021 C 0.42726 0.56122 0.33426 0.0
Co1022 Co 0.38221 0.49272 0.33178 0.0
C1023 C 0.50125 0.53965 0.34608 0.0
C1024 C 0.47953 0.50191 0.36474 0.0
N1025 N 0.4716 0.51501 0.35183 0.0
N1026 N 0.52748 0.54292 0.35493 0.0
C1027 C 0.51402 0.51903 0.36667 0.0
H1028 H 0.50348 0.55497 0.33553 0.0
H1029 H 0.46144 0.48165 0.37239 0.0
C1030 C 0.38581 0.43629 0.34021 0.0
N1031 N 0.34119 0.48356 0.32319 0.0
C1032 C 0.3248 0.49994 0.32737 0.0
C1033 C 0.32135 0.46067 0.31193 0.0
N1034 N 0.29557 0.48848 0.31918 0.0
C1035 C 0.29317 0.46358 0.30946 0.0
C1036 C 0.42832 0.4963 0.30907 0.0
O1037 O 0.4147 0.45788 0.34558 0.0
O1038 O 0.36698 0.44624 0.33389 0.0
O1039 O 0.39878 0.49197 0.31025 0.0
O1040 O 0.44612 0.50284 0.32196 0.0
O1041 O 0.39798 0.53956 0.32953 0.0
H1042 H 0.32706 0.44315 0.30588 0.0
H1043 H 0.33411 0.51976 0.33647 0.0
O1044 O 0.44577 0.55119 0.34076 0.0
O1045 O 0.4142 0.50567 0.36466 0.0
O1046 O 0.36582 0.49271 0.35344 0.0
C1047 C 0.38394 0.49889 0.36622 0.0
H1048 H 0.52794 0.51485 0.37621 0.0
H1049 H 0.27286 0.4489 0.30099 0.0
Co1050 Co 0.49935 0.929 0.34443 0.0
C1051 C 0.44207 0.86959 0.33554 0.0
Co1052 Co 0.51022 0.89185 0.33316 0.0
C1053 C 0.4676 0.9684 0.34652 0.0
C1054 C 0.50004 0.97794 0.36717 0.0
N1055 N 0.48957 0.96029 0.35304 0.0
N1056 N 0.46362 0.99015 0.35602 0.0
C1057 C 0.48389 0.99622 0.36909 0.0
H1058 H 0.45362 0.95736 0.33533 0.0
H1059 H 0.51757 0.97691 0.3757 0.0
C1060 C 0.56731 0.95163 0.34139 0.0
N1061 N 0.51876 0.8596 0.32453 0.0
C1062 C 0.50211 0.82674 0.32858 0.0
C1063 C 0.54159 0.86264 0.31324 0.0
N1064 N 0.5134 0.80892 0.32028 0.0
C1065 C 0.53842 0.8315 0.31063 0.0
C1066 C 0.5074 0.93474 0.31028 0.0
O1067 O 0.5461 0.95961 0.34655 0.0
O1068 O 0.55687 0.9225 0.33538 0.0
O1069 O 0.51153 0.90944 0.31162 0.0
O1070 O 0.50097 0.94631 0.32309 0.0
O1071 O 0.46343 0.86158 0.33081 0.0
H1072 H 0.55926 0.88592 0.30727 0.0
H1073 H 0.48223 0.81619 0.33765 0.0
O1074 O 0.45242 0.89821 0.34207 0.0
O1075 O 0.49849 0.91192 0.36583 0.0
O1076 O 0.50947 0.87499 0.35482 0.0
C1077 C 0.50419 0.88774 0.36756 0.0
H1078 H 0.48652 0.01234 0.37937 0.0
H1079 H 0.55303 0.82589 0.3021 0.0
H1080 H 0.06341 0.13921 0.15458 0.0
H1081 H 0.15891 0.21145 0.1758 0.0
H1082 H 0.08417 0.10033 0.15034 0.0
H1083 H 0.1794 0.17216 0.1719 0.0
H1084 H 0.21588 0.10631 0.14753 0.0
H1085 H 0.19566 0.14607 0.15045 0.0
H1086 H 0.09897 0.06531 0.16622 0.0
H1087 H 0.11866 0.02554 0.16265 0.0
C1088 C 0.0888 0.14676 0.15841 0.0
C1089 C 0.10948 0.17842 0.16556 0.0
C1090 C 0.10064 0.12438 0.15605 0.0
C1091 C 0.13344 0.13309 0.16081 0.0
C1092 C 0.15417 0.16482 0.1679 0.0
C1093 C 0.14232 0.18724 0.17025 0.0
C1094 C 0.19021 0.097 0.15143 0.0
C1095 C 0.16898 0.06271 0.15491 0.0
C1096 C 0.17873 0.11985 0.15329 0.0
C1097 C 0.14571 0.1089 0.15861 0.0
C1098 C 0.12443 0.07458 0.16194 0.0
C1099 C 0.13589 0.0518 0.16009 0.0
H1100 H 0.89761 0.10944 0.14723 0.0
H1101 H 0.97904 0.09397 0.1622 0.0
H1102 H 0.8582 0.04937 0.15041 0.0
H1103 H 0.93966 0.03446 0.16601 0.0
H1104 H 0.86592 0.92446 0.15486 0.0
H1105 H 0.9046 0.98415 0.15048 0.0
H1106 H 0.83264 0.00732 0.17204 0.0
H1107 H 0.79358 0.94751 0.17609 0.0
C1108 C 0.90714 0.09327 0.15115 0.0
C1109 C 0.9415 0.10664 0.15452 0.0
C1110 C 0.88449 0.05889 0.15316 0.0
C1111 C 0.89573 0.03708 0.15853 0.0
C1112 C 0.93015 0.05043 0.16171 0.0
C1113 C 0.95272 0.08472 0.15972 0.0
C1114 C 0.85833 0.94227 0.15868 0.0
C1115 C 0.82667 0.93119 0.16586 0.0
C1116 C 0.88059 0.97653 0.15623 0.0
C1117 C 0.87176 1.00057 0.16091 0.0
C1118 C 0.84007 0.98948 0.16809 0.0
C1119 C 0.81779 0.95519 0.17054 0.0
H1120 H 0.05622 0.85206 0.18316 0.0
H1121 H 0.07814 0.93185 0.14856 0.0
H1122 H 0.99605 0.83042 0.17936 0.0
H1123 H 0.01791 0.90978 0.14462 0.0
H1124 H 0.90737 0.8342 0.12918 0.0
H1125 H 0.96754 0.85472 0.1328 0.0
H1126 H 0.95512 0.85266 0.18549 0.0
H1127 H 0.89512 0.83241 0.18185 0.0
C1128 C 0.04821 0.86495 0.17474 0.0
C1129 C 0.07193 0.8937 0.16618 0.0
C1130 C 0.0138 0.8526 0.17261 0.0
C1131 C 0.0024 0.86839 0.16167 0.0
C1132 C 0.02606 0.89698 0.15302 0.0
C1133 C 0.06049 0.90969 0.15536 0.0
C1134 C 0.91752 0.83789 0.14151 0.0
C1135 C 0.89667 0.83178 0.15523 0.0
C1136 C 0.9519 0.84986 0.14358 0.0
C1137 C 0.96591 0.85531 0.15942 0.0
C1138 C 0.94492 0.84853 0.17315 0.0
C1139 C 0.9107 0.83716 0.17107 0.0
H1140 H 0.13943 0.06097 0.36046 0.0
H1141 H 0.21225 0.15593 0.33898 0.0
H1142 H 0.10128 0.0826 0.36489 0.0
H1143 H 0.17374 0.17729 0.34309 0.0
H1144 H 0.10922 0.21546 0.36734 0.0
H1145 H 0.14833 0.19435 0.36453 0.0
H1146 H 0.06653 0.09795 0.34914 0.0
H1147 H 0.02747 0.11853 0.35258 0.0
C1148 C 0.14725 0.08642 0.35662 0.0
C1149 C 0.17885 0.10668 0.34932 0.0
C1150 C 0.1253 0.09878 0.3591 0.0
C1151 C 0.1344 0.13168 0.35432 0.0
C1152 C 0.1661 0.15199 0.3471 0.0
C1153 C 0.18806 0.13964 0.34462 0.0
C1154 C 0.09956 0.18967 0.36354 0.0
C1155 C 0.0652 0.16879 0.36011 0.0
C1156 C 0.12203 0.17766 0.36175 0.0
C1157 C 0.1106 0.14447 0.35656 0.0
C1158 C 0.07618 0.12353 0.35332 0.0
C1159 C 0.0538 0.13551 0.35509 0.0
H1160 H 0.88627 0.90937 0.35124 0.0
H1161 H 0.78965 0.89425 0.36654 0.0
H1162 H 0.90681 0.96905 0.34783 0.0
H1163 H 0.81073 0.95443 0.36377 0.0
H1164 H 0.84834 0.05645 0.33837 0.0
H1165 H 0.82734 0.99661 0.34223 0.0
H1166 H 0.92231 0.01911 0.36378 0.0
H1167 H 0.94361 0.07893 0.35957 0.0
C1168 C 0.86935 0.91873 0.35387 0.0
C1169 C 0.83617 0.89689 0.35904 0.0
C1170 C 0.88131 0.95309 0.35212 0.0
C1171 C 0.86044 0.96654 0.35553 0.0
C1172 C 0.82735 0.9448 0.36087 0.0
C1173 C 0.81537 0.91036 0.36263 0.0
C1174 C 0.86478 0.04864 0.34389 0.0
C1175 C 0.8977 0.07245 0.34861 0.0
C1176 C 0.85264 0.01433 0.34623 0.0
C1177 C 0.87312 0.00306 0.35333 0.0
C1178 C 0.90602 0.02692 0.35808 0.0
C1179 C 0.91818 0.06122 0.35574 0.0
H1180 H 0.94374 0.7844 0.35224 0.0
H1181 H 0.92875 0.86884 0.34456 0.0
H1182 H 0.00328 0.82247 0.35695 0.0
H1183 H 0.98874 0.9072 0.34784 0.0
H1184 H 0.09306 0.97181 0.36798 0.0
H1185 H 0.03293 0.93281 0.36529 0.0
H1186 H 0.05428 0.85768 0.34587 0.0
H1187 H 0.11413 0.89622 0.34998 0.0
C1188 C 0.95342 0.81122 0.3513 0.0
C1189 C 0.93172 0.82372 0.34806 0.0
C1190 C 0.98771 0.83319 0.35387 0.0
C1191 C 1.00138 0.86826 0.35277 0.0
C1192 C 0.97942 0.88057 0.34924 0.0
C1193 C 0.94496 0.85858 0.34717 0.0
C1194 C 0.08456 0.94675 0.3633 0.0
C1195 C 0.10792 0.93678 0.35928 0.0
C1196 C 0.05012 0.92441 0.36156 0.0
C1197 C 0.03823 0.89181 0.35522 0.0
C1198 C 0.062 0.88209 0.35114 0.0
C1199 C 0.0964 0.90418 0.35337 0.0
H1200 H 0.94342 0.86558 0.85923 0.0
H1201 H 0.84775 0.79265 0.83844 0.0
H1202 H 0.92244 0.90431 0.8634 0.0
H1203 H 0.82701 0.83176 0.84229 0.0
H1204 H 0.79039 0.89751 0.86685 0.0
H1205 H 0.81085 0.85796 0.86376 0.0
H1206 H 0.90703 0.93897 0.8476 0.0
H1207 H 0.8871 0.97852 0.8513 0.0
C1208 C 0.91796 0.85786 0.85547 0.0
C1209 C 0.89731 0.82604 0.84846 0.0
C1210 C 0.90597 0.88015 0.85779 0.0
C1211 C 0.87305 0.8712 0.85316 0.0
C1212 C 0.85235 0.83932 0.84619 0.0
C1213 C 0.86434 0.817 0.84386 0.0
C1214 C 0.816 0.90692 0.86281 0.0
C1215 C 0.83701 0.94122 0.85928 0.0
C1216 C 0.82762 0.88418 0.86086 0.0
C1217 C 0.86058 0.89525 0.85539 0.0
C1218 C 0.88163 0.92959 0.85199 0.0
C1219 C 0.87002 0.95226 0.85392 0.0
H1220 H 0.14808 0.07654 0.86571 0.0
H1221 H 0.20651 0.05548 0.83109 0.0
H1222 H 0.11047 0.01626 0.86971 0.0
H1223 H 0.1685 0.99517 0.83495 0.0
H1224 H 0.0653 0.89385 0.83248 0.0
H1225 H 0.10535 0.95379 0.82883 0.0
H1226 H 0.11551 0.96624 0.88152 0.0
H1227 H 0.07557 0.90614 0.88515 0.0
C1228 C 0.15283 0.05906 0.85892 0.0
C1229 C 0.18024 0.07076 0.84806 0.0
C1230 C 0.13143 0.02459 0.8613 0.0
C1231 C 0.13666 1.00113 0.85266 0.0
C1232 C 0.16386 0.01277 0.8417 0.0
C1233 C 0.18562 0.04725 0.83953 0.0
C1234 C 0.07618 0.90942 0.84326 0.0
C1235 C 0.06734 0.89543 0.85909 0.0
C1236 C 0.09921 0.94361 0.84117 0.0
C1237 C 0.11342 0.9646 0.8549 0.0
C1238 C 0.10475 0.95061 0.87074 0.0
C1239 C 0.08216 0.91626 0.87282 0.0
H1240 H 0.92663 0.07163 0.86554 0.0
H1241 H 0.949 0.15195 0.83122 0.0
H1242 H 0.98673 0.09335 0.86952 0.0
H1243 H 0.00916 0.17329 0.83505 0.0
H1244 H 0.10966 0.16978 0.83251 0.0
H1245 H 0.04989 0.15064 0.82882 0.0
H1246 H 0.03721 0.1479 0.8815 0.0
H1247 H 0.09713 0.1673 0.88517 0.0
C1248 C 0.94436 0.09386 0.85882 0.0
C1249 C 0.93306 0.11007 0.84805 0.0
C1250 C 0.97873 0.10637 0.86118 0.0
C1251 C 0.00254 0.13501 0.85262 0.0
C1252 C 0.99131 0.15107 0.84175 0.0
C1253 C 0.95691 0.13891 0.8396 0.0
C1254 C 0.09407 0.16511 0.84328 0.0
C1255 C 0.10796 0.16994 0.85913 0.0
C1256 C 0.05999 0.15441 0.84117 0.0
C1257 C 0.03897 0.14774 0.85488 0.0
C1258 C 0.05286 0.15269 0.87073 0.0
C1259 C 0.0871 0.164 0.87284 0.0
H1260 H 0.79892 0.85319 0.68367 0.0
H1261 H 0.85705 0.93221 0.64875 0.0
H1262 H 0.83699 0.83101 0.67997 0.0
H1263 H 0.89478 0.90961 0.64491 0.0
H1264 H 0.92842 0.83282 0.62984 0.0
H1265 H 0.88912 0.85381 0.63334 0.0
H1266 H 0.90029 0.85321 0.68604 0.0
H1267 H 0.93969 0.8325 0.68251 0.0
C1268 C 0.81979 0.8658 0.6752 0.0
C1269 C 0.82505 0.8945 0.66652 0.0
C1270 C 0.84158 0.85314 0.67312 0.0
C1271 C 0.8687 0.86857 0.66213 0.0
C1272 C 0.87387 0.89711 0.65337 0.0
C1273 C 0.85242 0.91014 0.65565 0.0
C1274 C 0.92219 0.83692 0.64215 0.0
C1275 C 0.93705 0.83111 0.65591 0.0
C1276 C 0.89999 0.84915 0.64414 0.0
C1277 C 0.8918 0.85516 0.65996 0.0
C1278 C 0.9061 0.84865 0.67372 0.0
C1279 C 0.92873 0.83701 0.67171 0.0
H1280 H 0.21307 0.10969 0.64729 0.0
H1281 H 0.11655 0.09424 0.66297 0.0
H1282 H 0.19244 0.04965 0.65033 0.0
H1283 H 0.09645 0.03468 0.66664 0.0
H1284 H 0.06007 0.92463 0.65521 0.0
H1285 H 0.08085 0.98434 0.65096 0.0
H1286 H 0.17652 0.0077 0.67193 0.0
H1287 H 0.15601 0.94793 0.67585 0.0
C1288 C 0.18746 0.09354 0.65134 0.0
C1289 C 0.16656 0.10691 0.65494 0.0
C1290 C 0.17574 0.05916 0.65327 0.0
C1291 C 0.14281 0.03734 0.65879 0.0
C1292 C 0.12184 0.05068 0.66222 0.0
C1293 C 0.13354 0.08498 0.66031 0.0
C1294 C 0.08554 0.94249 0.65892 0.0
C1295 C 0.10634 0.9315 0.6659 0.0
C1296 C 0.09741 0.97675 0.65655 0.0
C1297 C 0.13036 1.00084 0.66111 0.0
C1298 C 0.15117 0.98981 0.66808 0.0
C1299 C 0.1393 0.95555 0.67046 0.0
H1300 H 0.89497 0.06322 0.6824 0.0
H1301 H 0.90693 0.07459 0.62975 0.0
H1302 H 0.95481 0.10384 0.68604 0.0
H1303 H 0.96688 0.11503 0.63336 0.0
H1304 H 0.07755 0.14864 0.64888 0.0
H1305 H 0.01738 0.11039 0.64503 0.0
H1306 H 0.99556 0.16759 0.67996 0.0
H1307 H 0.05582 0.20633 0.68366 0.0
C1308 C 0.91045 0.07443 0.67163 0.0
C1309 C 0.89639 0.06576 0.6558 0.0
C1310 C 0.94456 0.09779 0.67371 0.0
C1311 C 0.96542 0.11248 0.65998 0.0
C1312 C 0.95136 0.10392 0.64414 0.0
C1313 C 0.91709 0.08102 0.64208 0.0
C1314 C 0.05995 0.15311 0.65573 0.0
C1315 C 0.07143 0.18051 0.66658 0.0
C1316 C 0.02553 0.13132 0.65345 0.0
C1317 C 1.00189 0.13611 0.66217 0.0
C1318 C 0.01331 0.16329 0.67313 0.0
C1319 C 0.04775 0.18547 0.67521 0.0
H1320 H 0.88102 0.43976 0.48018 0.0
H1321 H 0.78433 0.3581 0.49529 0.0
H1322 H 0.85986 0.4788 0.48286 0.0
H1323 H 0.76366 0.39717 0.4986 0.0
H1324 H 0.72695 0.47057 0.48716 0.0
H1325 H 0.74815 0.43198 0.48284 0.0
H1326 H 0.84321 0.5043 0.50436 0.0
H1327 H 0.8223 0.54316 0.50837 0.0
C1328 C 0.85526 0.4301 0.48402 0.0
C1329 C 0.83449 0.39579 0.4876 0.0
C1330 C 0.84322 0.45253 0.48574 0.0
C1331 C 0.81008 0.44115 0.49101 0.0
C1332 C 0.78921 0.40677 0.49437 0.0
C1333 C 0.80124 0.3844 0.49267 0.0
C1334 C 0.75238 0.47826 0.49096 0.0
C1335 C 0.7729 0.50993 0.49814 0.0
C1336 C 0.76449 0.45607 0.48855 0.0
C1337 C 0.7974 0.46503 0.49325 0.0
C1338 C 0.81792 0.49677 0.50038 0.0
C1339 C 0.80582 0.51894 0.5028 0.0
H1340 H 0.45158 0.27565 0.49531 0.0
H1341 H 0.53651 0.26116 0.5023 0.0
H1342 H 0.48933 0.33516 0.49031 0.0
H1343 H 0.57457 0.32112 0.49873 0.0
H1344 H 0.63839 0.42521 0.4784 0.0
H1345 H 0.59947 0.36507 0.48111 0.0
H1346 H 0.52475 0.38631 0.50121 0.0
H1347 H 0.56318 0.44618 0.49706 0.0
C1348 C 0.47845 0.28543 0.49602 0.0
C1349 C 0.49118 0.26389 0.49915 0.0
C1350 C 0.50022 0.3197 0.49329 0.0
C1351 C 0.53534 0.33349 0.49412 0.0
C1352 C 0.54788 0.31169 0.49753 0.0
C1353 C 0.52607 0.27725 0.49976 0.0
C1354 C 0.61342 0.41667 0.48321 0.0
C1355 C 0.60352 0.44 0.48743 0.0
C1356 C 0.59114 0.38223 0.48498 0.0
C1357 C 0.55871 0.37032 0.49154 0.0
C1358 C 0.54904 0.39406 0.49578 0.0
C1359 C 0.57105 0.42846 0.49352 0.0
H1360 H 0.5606 0.12021 0.48171 0.0
H1361 H 0.57665 0.21734 0.49669 0.0
H1362 H 0.62071 0.14082 0.48451 0.0
H1363 H 0.63619 0.2374 0.50014 0.0
H1364 H 0.74558 0.27373 0.48814 0.0
H1365 H 0.68579 0.25238 0.48406 0.0
H1366 H 0.66348 0.15766 0.50585 0.0
H1367 H 0.72343 0.17875 0.5096 0.0
C1368 C 0.57689 0.14593 0.48556 0.0
C1369 C 0.56369 0.16703 0.48903 0.0
C1370 C 0.6113 0.15764 0.48735 0.0
C1371 C 0.63327 0.19075 0.49259 0.0
C1372 C 0.62007 0.21188 0.49592 0.0
C1373 C 0.58577 0.2002 0.49415 0.0
C1374 C 0.72795 0.24833 0.49205 0.0
C1375 C 0.73928 0.22798 0.49924 0.0
C1376 C 0.69364 0.23614 0.48978 0.0
C1377 C 0.66982 0.20333 0.49466 0.0
C1378 C 0.68117 0.18291 0.50177 0.0
C1379 C 0.71553 0.1951 0.50404 0.0
H1380 H 0.81601 0.40676 0.69869 0.0
H1381 H 0.87402 0.48655 0.66411 0.0
H1382 H 0.77811 0.42902 0.70276 0.0
H1383 H 0.8357 0.50843 0.66805 0.0
H1384 H 0.73215 0.50586 0.66576 0.0
H1385 H 0.7724 0.48627 0.662 0.0
H1386 H 0.78287 0.48394 0.71467 0.0
H1387 H 0.74275 0.5038 0.71841 0.0
C1388 C 0.82062 0.42898 0.69192 0.0
C1389 C 0.848 0.44489 0.68106 0.0
C1390 C 0.79904 0.44181 0.69434 0.0
C1391 C 0.80405 0.47046 0.68575 0.0
C1392 C 0.83122 0.48622 0.67478 0.0
C1393 C 0.85316 0.47374 0.67256 0.0
C1394 C 0.74313 0.50122 0.67651 0.0
C1395 C 0.73433 0.50628 0.69237 0.0
C1396 C 0.76628 0.49024 0.67437 0.0
C1397 C 0.78065 0.48353 0.68805 0.0
C1398 C 0.772 0.48875 0.70392 0.0
C1399 C 0.74929 0.50033 0.70606 0.0
H1400 H 0.50215 0.22831 0.66629 0.0
H1401 H 0.5053 0.24087 0.71896 0.0
H1402 H 0.52262 0.28832 0.66262 0.0
H1403 H 0.52603 0.3011 0.71532 0.0
H1404 H 0.60266 0.4117 0.69918 0.0
H1405 H 0.58079 0.3515 0.70322 0.0
H1406 H 0.50061 0.32918 0.66893 0.0
H1407 H 0.52206 0.38926 0.66502 0.0
C1408 C 0.50726 0.24397 0.67707 0.0
C1409 C 0.50219 0.23001 0.69291 0.0
C1410 C 0.51876 0.2782 0.67498 0.0
C1411 C 0.52597 0.2993 0.68869 0.0
C1412 C 0.52085 0.28538 0.70455 0.0
C1413 C 0.50876 0.25097 0.70663 0.0
C1414 C 0.5804 0.39395 0.69249 0.0
C1415 C 0.56411 0.40522 0.68177 0.0
C1416 C 0.56779 0.35954 0.69489 0.0
C1417 C 0.539 0.33576 0.6864 0.0
C1418 C 0.52293 0.34701 0.67556 0.0
C1419 C 0.53519 0.38138 0.67336 0.0
H1420 H 0.77899 0.23194 0.70016 0.0
H1421 H 0.76198 0.31217 0.68478 0.0
H1422 H 0.71908 0.19179 0.69708 0.0
H1423 H 0.70262 0.27205 0.68109 0.0
H1424 H 0.5934 0.19802 0.69301 0.0
H1425 H 0.65302 0.237 0.69716 0.0
H1426 H 0.67653 0.16533 0.67555 0.0
H1427 H 0.61667 0.1259 0.6717 0.0
C1428 C 0.76252 0.24104 0.69616 0.0
C1429 C 0.77539 0.2753 0.69268 0.0
C1430 C 0.72824 0.21798 0.69422 0.0
C1431 C 0.70604 0.22869 0.68881 0.0
C1432 C 0.71892 0.26297 0.68544 0.0
C1433 C 0.7531 0.28596 0.68736 0.0
C1434 C 0.61124 0.19052 0.68914 0.0
C1435 C 0.60026 0.15886 0.68198 0.0
C1436 C 0.64547 0.21296 0.69145 0.0
C1437 C 0.66959 0.20435 0.68665 0.0
C1438 C 0.6586 0.17261 0.67956 0.0
C1439 C 0.62431 0.15011 0.67724 0.0
H1440 H 0.51821 0.13077 0.16471 0.0
H1441 H 0.59817 0.18862 0.19923 0.0
H1442 H 0.49696 0.1697 0.16841 0.0
H1443 H 0.57654 0.22709 0.20307 0.0
H1444 H 0.50272 0.26385 0.21841 0.0
H1445 H 0.52201 0.22323 0.21486 0.0
H1446 H 0.51973 0.23312 0.16216 0.0
H1447 H 0.50072 0.27388 0.16573 0.0
C1448 C 0.53118 0.1517 0.17311 0.0
C1449 C 0.5599 0.15665 0.18165 0.0
C1450 C 0.51907 0.17401 0.17518 0.0
C1451 C 0.53506 0.20131 0.18606 0.0
C1452 C 0.56357 0.20607 0.19471 0.0
C1453 C 0.57603 0.18415 0.19243 0.0
C1454 C 0.50611 0.2571 0.20609 0.0
C1455 C 0.50032 0.27204 0.19235 0.0
C1456 C 0.51735 0.23409 0.20406 0.0
C1457 C 0.52239 0.2251 0.18823 0.0
C1458 C 0.51589 0.23948 0.17449 0.0
C1459 C 0.50526 0.26294 0.17653 0.0
H1460 H 0.80487 0.41171 0.19288 0.0
H1461 H 0.87758 0.3887 0.17208 0.0
H1462 H 0.76611 0.35203 0.19718 0.0
H1463 H 0.83842 0.32887 0.17605 0.0
H1464 H 0.77251 0.22659 0.20069 0.0
H1465 H 0.81218 0.2866 0.19758 0.0
H1466 H 0.73135 0.30197 0.18139 0.0
H1467 H 0.69168 0.24251 0.18512 0.0
C1468 C 0.81254 0.39391 0.18915 0.0
C1469 C 0.8443 0.40499 0.18209 0.0
C1470 C 0.79023 0.35966 0.19154 0.0
C1471 C 0.7991 0.33562 0.18693 0.0
C1472 C 0.83093 0.34672 0.17993 0.0
C1473 C 0.85328 0.38101 0.17753 0.0
C1474 C 0.76317 0.24284 0.19664 0.0
C1475 C 0.72888 0.22962 0.1931 0.0
C1476 C 0.78597 0.27719 0.19468 0.0
C1477 C 0.77498 0.29912 0.18919 0.0
C1478 C 0.74066 0.2859 0.18579 0.0
C1479 C 0.71793 0.25165 0.18774 0.0
H1480 H 0.76421 0.5036 0.21818 0.0
H1481 H 0.77632 0.50496 0.16551 0.0
H1482 H 0.70411 0.48345 0.21457 0.0
H1483 H 0.71638 0.48509 0.16188 0.0
H1484 H 0.61491 0.48496 0.16411 0.0
H1485 H 0.6752 0.50718 0.16796 0.0
H1486 H 0.65399 0.42818 0.20283 0.0
H1487 H 0.59373 0.40558 0.19884 0.0
C1488 C 0.75405 0.49992 0.20585 0.0
C1489 C 0.77482 0.50575 0.19212 0.0
C1490 C 0.71971 0.48818 0.20379 0.0
C1491 C 0.70568 0.48268 0.18795 0.0
C1492 C 0.72661 0.48927 0.17422 0.0
C1493 C 0.76079 0.50042 0.17629 0.0
C1494 C 0.62311 0.47231 0.17258 0.0
C1495 C 0.59958 0.44347 0.18114 0.0
C1496 C 0.65758 0.48498 0.17474 0.0
C1497 C 0.66917 0.46943 0.18572 0.0
C1498 C 0.64568 0.4408 0.19439 0.0
C1499 C 0.61123 0.42777 0.19202 0.0
H1500 H 0.56274 0.11878 0.9814 0.0
H1501 H 0.64386 0.2162 0.99604 0.0
H1502 H 0.5231 0.1392 0.98433 0.0
H1503 H 0.60428 0.23608 0.99961 0.0
H1504 H 0.53086 0.27194 0.98784 0.0
H1505 H 0.56927 0.25065 0.98358 0.0
H1506 H 0.49747 0.1562 1.00582 0.0
H1507 H 0.4586 0.17725 0.00976 0.0
C1508 C 0.57214 0.14452 0.9852 0.0
C1509 C 0.60648 0.16577 0.98855 0.0
C1510 C 0.54938 0.15613 0.98706 0.0
C1511 C 0.56051 0.18927 0.99224 0.0
C1512 C 0.59488 0.21053 0.99544 0.0
C1513 C 0.61756 0.19896 0.99359 0.0
C1514 C 0.52322 0.24662 0.99182 0.0
C1515 C 0.4917 0.22633 0.99919 0.0
C1516 C 0.54533 0.23446 0.98945 0.0
C1517 C 0.5365 0.20175 0.9944 0.0
C1518 C 0.50488 0.18137 1.00169 0.0
C1519 C 0.48272 0.19354 1.00406 0.0
H1520 H 0.82435 0.27939 0.00956 0.0
H1521 H 0.7289 0.25659 0.98848 0.0
H1522 H 0.8452 0.33926 1.00559 0.0
H1523 H 0.74999 0.31629 0.98418 0.0
H1524 H 0.78508 0.42576 0.99615 0.0
H1525 H 0.76518 0.3663 0.99991 0.0
H1526 H 0.86162 0.38165 0.98413 0.0
H1527 H 0.88206 0.44167 0.98101 0.0
C1528 C 0.80784 0.28713 1.00405 0.0
C1529 C 0.7749 0.26321 0.99941 0.0
C1530 C 0.81989 0.32145 1.00165 0.0
C1531 C 0.79928 0.33261 0.99457 0.0
C1532 C 0.7664 0.30862 0.98988 0.0
C1533 C 0.75435 0.27435 0.99227 0.0
C1534 C 0.80222 0.41662 0.99363 0.0
C1535 C 0.8353 0.43866 0.98838 0.0
C1536 C 0.79063 0.38236 0.99559 0.0
C1537 C 0.81176 0.36913 0.99231 0.0
C1538 C 0.84479 0.39107 0.98693 0.0
C1539 C 0.8564 0.42543 0.98496 0.0
H1540 H 0.56198 0.39515 0.01508 0.0
H1541 H 0.57402 0.40466 0.96239 0.0
H1542 H 0.62192 0.43537 0.01862 0.0
H1543 H 0.63413 0.44475 0.9659 0.0
H1544 H 0.74482 0.47862 0.98181 0.0
H1545 H 0.68461 0.44042 0.97789 0.0
H1546 H 0.66277 0.49864 0.01217 0.0
H1547 H 0.72296 0.53725 0.01594 0.0
C1548 C 0.5775 0.40587 1.00427 0.0
C1549 C 0.56343 0.3968 0.98846 0.0
C1550 C 0.61169 0.429 1.00629 0.0
C1551 C 0.63261 0.44308 0.99253 0.0
C1552 C 0.61855 0.4341 0.97671 0.0
C1553 C 0.5842 0.41142 0.9747 0.0
C1554 C 0.72719 0.48331 0.98851 0.0
C1555 C 0.73865 0.51093 0.99921 0.0
C1556 C 0.69276 0.46155 0.98618 0.0
C1557 C 0.6691 0.46664 0.99471 0.0
C1558 C 0.68051 0.49408 1.0055 0.0
C1559 C 0.71493 0.51619 0.00762 0.0
H1560 H 0.39751 0.80744 0.82209 0.0
H1561 H 0.49268 0.87981 0.84355 0.0
H1562 H 0.41863 0.76892 0.81771 0.0
H1563 H 0.51356 0.84083 0.8395 0.0
H1564 H 0.55059 0.77553 0.81471 0.0
H1565 H 0.53023 0.81515 0.81797 0.0
H1566 H 0.43353 0.73385 0.83336 0.0
H1567 H 0.45334 0.69428 0.82946 0.0
C1568 C 0.4229 0.81508 0.82595 0.0
C1569 C 0.44338 0.84669 0.8332 0.0
C1570 C 0.43496 0.7929 0.82351 0.0
C1571 C 0.46778 0.80173 0.82828 0.0
C1572 C 0.48831 0.8334 0.83549 0.0
C1573 C 0.47624 0.85563 0.83793 0.0
C1574 C 0.52489 0.76609 0.81861 0.0
C1575 C 0.50369 0.7317 0.82188 0.0
C1576 C 0.51333 0.78885 0.82066 0.0
C1577 C 0.48025 0.77771 0.82596 0.0
C1578 C 0.45903 0.74329 0.8291 0.0
C1579 C 0.47056 0.72061 0.82706 0.0
H1580 H 0.19776 0.59276 0.82212 0.0
H1581 H 0.12483 0.61544 0.84293 0.0
H1582 H 0.23663 0.65245 0.81812 0.0
H1583 H 0.16416 0.6754 0.83923 0.0
H1584 H 0.23084 0.7781 0.81477 0.0
H1585 H 0.19087 0.71815 0.81788 0.0
H1586 H 0.27128 0.70217 0.83412 0.0
H1587 H 0.31124 0.76156 0.8304 0.0
C1588 C 0.19005 0.61049 0.82591 0.0
C1589 C 0.15818 0.5993 0.83288 0.0
C1590 C 0.21244 0.64478 0.82369 0.0
C1591 C 0.20359 0.66878 0.8284 0.0
C1592 C 0.17164 0.65758 0.8353 0.0
C1593 C 0.1492 0.62322 0.83753 0.0
C1594 C 0.24003 0.76173 0.81883 0.0
C1595 C 0.2743 0.77477 0.82237 0.0
C1596 C 0.21705 0.72742 0.8208 0.0
C1597 C 0.22783 0.70531 0.82628 0.0
C1598 C 0.26212 0.71836 0.82972 0.0
C1599 C 0.28502 0.75259 0.82777 0.0
H1600 H 0.41296 0.61 0.82142 0.0
H1601 H 0.38902 0.51382 0.84199 0.0
H1602 H 0.35335 0.58943 0.81695 0.0
H1603 H 0.32937 0.49352 0.83785 0.0
H1604 H 0.22774 0.45737 0.81302 0.0
H1605 H 0.28777 0.4779 0.81608 0.0
H1606 H 0.30285 0.57386 0.83254 0.0
H1607 H 0.24333 0.55386 0.82885 0.0
C1608 C 0.39498 0.58452 0.82506 0.0
C1609 C 0.40576 0.56357 0.83208 0.0
C1610 C 0.36078 0.57277 0.82257 0.0
C1611 C 0.33655 0.53981 0.82704 0.0
C1612 C 0.34737 0.51888 0.83405 0.0
C1613 C 0.38157 0.53062 0.83655 0.0
C1614 C 0.24393 0.48295 0.8171 0.0
C1615 C 0.23061 0.50387 0.82076 0.0
C1616 C 0.27829 0.49461 0.81904 0.0
C1617 C 0.30013 0.5275 0.82462 0.0
C1618 C 0.28684 0.54851 0.82807 0.0
C1619 C 0.25256 0.53686 0.82615 0.0
H1620 H 0.53718 0.81513 0.99786 0.0
H1621 H 0.4793 0.73514 0.03237 0.0
H1622 H 0.49846 0.83651 1.00159 0.0
H1623 H 0.4409 0.75695 0.03624 0.0
H1624 H 0.40619 0.83288 0.05166 0.0
H1625 H 0.44559 0.81206 0.04808 0.0
H1626 H 0.43533 0.81412 0.99538 0.0
H1627 H 0.39585 0.83469 0.99899 0.0
C1628 C 0.51622 0.80213 1.00624 0.0
C1629 C 0.51126 0.77342 0.01481 0.0
C1630 C 0.49405 0.81433 0.00833 0.0
C1631 C 0.4668 0.79841 0.01923 0.0
C1632 C 0.4619 0.76983 0.02786 0.0
C1633 C 0.48374 0.75727 0.02557 0.0
C1634 C 0.41261 0.82911 0.03934 0.0
C1635 C 0.39801 0.83534 0.0256 0.0
C1636 C 0.43486 0.81696 0.03729 0.0
C1637 C 0.44339 0.81145 0.02145 0.0
C1638 C 0.42927 0.81829 0.00772 0.0
C1639 C 0.40658 0.82985 0.00978 0.0
H1640 H 0.17668 0.72539 0.01912 0.0
H1641 H 0.27606 0.74044 0.01112 0.0
H1642 H 0.1552 0.66579 0.02368 0.0
H1643 H 0.25442 0.68043 0.01429 0.0
H1644 H 0.21492 0.57624 0.03447 0.0
H1645 H 0.23592 0.63635 0.03189 0.0
H1646 H 0.13946 0.61487 0.01237 0.0
H1647 H 0.11826 0.555 0.01634 0.0
C1648 C 0.1938 0.71571 0.01808 0.0
C1649 C 0.228 0.73743 0.0148 0.0
C1650 C 0.18148 0.68141 0.02057 0.0
C1651 C 0.20289 0.66778 0.01936 0.0
C1652 C 0.23713 0.68974 0.01577 0.0
C1653 C 0.2496 0.72421 0.01377 0.0
C1654 C 0.19834 0.58469 0.0298 0.0
C1655 C 0.16504 0.5613 0.02569 0.0
C1656 C 0.21036 0.61912 0.02811 0.0
C1657 C 0.18962 0.63096 0.02177 0.0
C1658 C 0.15616 0.60716 0.01763 0.0
C1659 C 0.14392 0.57276 0.0198 0.0
H1660 H 0.25809 0.53045 0.02713 0.0
H1661 H 0.28123 0.45877 1.00515 0.0
H1662 H 0.31775 0.56883 0.03182 0.0
H1663 H 0.34098 0.49752 0.00951 0.0
H1664 H 0.44314 0.56193 0.03416 0.0
H1665 H 0.38299 0.52257 0.03123 0.0
H1666 H 0.36788 0.60419 0.01613 0.0
H1667 H 0.42747 0.6435 0.01969 0.0
C1668 C 0.27591 0.52293 0.02323 0.0
C1669 C 0.26491 0.4916 0.01572 0.0
C1670 C 0.31013 0.54501 0.02586 0.0
C1671 C 0.33416 0.53628 0.02102 0.0
C1672 C 0.32312 0.50485 0.01357 0.0
C1673 C 0.28888 0.48275 0.01095 0.0
C1674 C 0.4269 0.57149 0.03042 0.0
C1675 C 0.44021 0.60586 0.02708 0.0
C1676 C 0.39249 0.5489 0.02856 0.0
C1677 C 0.37063 0.56021 0.02339 0.0
C1678 C 0.38391 0.59464 0.02028 0.0
C1679 C 0.41823 0.61716 0.02212 0.0
H1680 H 0.17845 0.45713 0.50449 0.0
H1681 H 0.27329 0.52936 0.52629 0.0
H1682 H 0.15737 0.49587 0.50859 0.0
H1683 H 0.25193 0.5677 0.53074 0.0
H1684 H 0.21665 0.64199 0.51869 0.0
H1685 H 0.23698 0.60278 0.51505 0.0
H1686 H 0.1403 0.521 0.53015 0.0
H1687 H 0.11943 0.56024 0.53313 0.0
C1688 C 0.19477 0.48122 0.5102 0.0
C1689 C 0.2276 0.49021 0.51501 0.0
C1690 C 0.18258 0.50332 0.51267 0.0
C1691 C 0.20294 0.53488 0.52 0.0
C1692 C 0.23573 0.54377 0.52486 0.0
C1693 C 0.24793 0.52172 0.52237 0.0
C1694 C 0.19955 0.61563 0.52108 0.0
C1695 C 0.16627 0.60426 0.52608 0.0
C1696 C 0.21139 0.59317 0.5192 0.0
C1697 C 0.1903 0.55873 0.5223 0.0
C1698 C 0.1571 0.54733 0.52747 0.0
C1699 C 0.14523 0.56986 0.52936 0.0
H1700 H 0.54417 0.72115 0.50556 0.0
H1701 H 0.47189 0.7443 0.52678 0.0
H1702 H 0.50502 0.66134 0.50958 0.0
H1703 H 0.43313 0.68462 0.53112 0.0
H1704 H 0.35855 0.57505 0.5189 0.0
H1705 H 0.39813 0.63459 0.51535 0.0
H1706 H 0.47913 0.61911 0.53113 0.0
H1707 H 0.43952 0.55903 0.53406 0.0
C1708 C 0.51997 0.71349 0.51112 0.0
C1709 C 0.51111 0.7375 0.51579 0.0
C1710 C 0.49764 0.67922 0.51354 0.0
C1711 C 0.46593 0.66816 0.52068 0.0
C1712 C 0.45716 0.69222 0.52539 0.0
C1713 C 0.47947 0.72647 0.52297 0.0
C1714 C 0.38481 0.58419 0.52147 0.0
C1715 C 0.39585 0.56212 0.52664 0.0
C1716 C 0.40749 0.61848 0.51963 0.0
C1717 C 0.44184 0.63167 0.52295 0.0
C1718 C 0.45289 0.60971 0.52829 0.0
C1719 C 0.43014 0.57532 0.53015 0.0
H1720 H 0.44163 0.88022 0.53361 0.0
H1721 H 0.4263 0.78331 0.51873 0.0
H1722 H 0.38152 0.85931 0.53069 0.0
H1723 H 0.36668 0.76291 0.51516 0.0
H1724 H 0.25671 0.72644 0.52665 0.0
H1725 H 0.31649 0.7476 0.53086 0.0
H1726 H 0.33925 0.8426 0.50927 0.0
H1727 H 0.27942 0.82174 0.5054 0.0
C1728 C 0.42549 0.85447 0.52976 0.0
C1729 C 0.43892 0.83354 0.52635 0.0
C1730 C 0.39107 0.84258 0.5279 0.0
C1731 C 0.36926 0.80944 0.52264 0.0
C1732 C 0.38266 0.78845 0.51939 0.0
C1733 C 0.41701 0.80033 0.52124 0.0
C1734 C 0.27446 0.75186 0.5228 0.0
C1735 C 0.26328 0.77237 0.51566 0.0
C1736 C 0.30876 0.76394 0.52514 0.0
C1737 C 0.33271 0.79681 0.52039 0.0
C1738 C 0.32149 0.81733 0.51327 0.0
C1739 C 0.28718 0.80526 0.51093 0.0
H1740 H 0.12503 0.51294 0.34236 0.0
H1741 H 0.19776 0.60818 0.3211 0.0
H1742 H 0.16361 0.49169 0.33807 0.0
H1743 H 0.23592 0.58668 0.31647 0.0
H1744 H 0.30995 0.55102 0.32826 0.0
H1745 H 0.27074 0.5713 0.33202 0.0
H1746 H 0.18905 0.47496 0.31648 0.0
H1747 H 0.22833 0.45412 0.31335 0.0
C1748 C 0.14921 0.52932 0.33674 0.0
C1749 C 0.15838 0.56232 0.33215 0.0
C1750 C 0.17121 0.51703 0.33415 0.0
C1751 C 0.20288 0.53747 0.32693 0.0
C1752 C 0.21192 0.57041 0.32227 0.0
C1753 C 0.18996 0.5827 0.32486 0.0
C1754 C 0.28361 0.53398 0.32579 0.0
C1755 C 0.27229 0.50079 0.32063 0.0
C1756 C 0.26114 0.54579 0.32774 0.0
C1757 C 0.22672 0.52479 0.32455 0.0
C1758 C 0.21536 0.49169 0.31922 0.0
C1759 C 0.23792 0.47985 0.31725 0.0
H1760 H 0.39385 0.59104 0.32115 0.0
H1761 H 0.48938 0.6137 0.34207 0.0
H1762 H 0.41497 0.65084 0.31699 0.0
H1763 H 0.51022 0.67354 0.33824 0.0
H1764 H 0.54756 0.77603 0.31407 0.0
H1765 H 0.52665 0.71588 0.31683 0.0
H1766 H 0.43049 0.70097 0.33282 0.0
H1767 H 0.45089 0.76065 0.32943 0.0
C1768 C 0.41931 0.60878 0.32493 0.0
C1769 C 0.43989 0.59758 0.33197 0.0
C1770 C 0.43137 0.64309 0.32261 0.0
C1771 C 0.4643 0.66703 0.32729 0.0
C1772 C 0.4849 0.65578 0.3343 0.0
C1773 C 0.47284 0.62147 0.33662 0.0
C1774 C 0.52186 0.75987 0.31798 0.0
C1775 C 0.501 0.77329 0.32159 0.0
C1776 C 0.50997 0.72542 0.31975 0.0
C1777 C 0.47691 0.70358 0.3251 0.0
C1778 C 0.45598 0.71698 0.32853 0.0
C1779 C 0.46785 0.75135 0.32678 0.0
H1780 H 0.24316 0.6938 0.3296 0.0
H1781 H 0.22721 0.77508 0.3149 0.0
H1782 H 0.30261 0.73333 0.3334 0.0
H1783 H 0.28725 0.81466 0.31805 0.0
H1784 H 0.3896 0.87921 0.34359 0.0
H1785 H 0.3297 0.84029 0.33957 0.0
H1786 H 0.3525 0.76838 0.31764 0.0
H1787 H 0.41219 0.80684 0.32199 0.0
C1788 C 0.25229 0.72012 0.32719 0.0
C1789 C 0.23026 0.73124 0.32205 0.0
C1790 C 0.28654 0.74278 0.32917 0.0
C1791 C 0.29976 0.7772 0.32602 0.0
C1792 C 0.27783 0.78836 0.32076 0.0
C1793 C 0.24347 0.76562 0.31876 0.0
C1794 C 0.38181 0.85505 0.33795 0.0
C1795 C 0.40568 0.84608 0.33317 0.0
C1796 C 0.34748 0.83285 0.33553 0.0
C1797 C 0.33627 0.8012 0.32829 0.0
C1798 C 0.36021 0.79235 0.32346 0.0
C1799 C 0.39448 0.8145 0.32588 0.0
H1800 H 0.22878 0.33552 0.15977 0.0
H1801 H 0.24318 0.33349 0.21212 0.0
H1802 H 0.28726 0.35059 0.15508 0.0
H1803 H 0.3017 0.3487 0.20746 0.0
H1804 H 0.38878 0.33369 0.19067 0.0
H1805 H 0.33033 0.31919 0.19415 0.0
H1806 H 0.34627 0.39953 0.16121 0.0
H1807 H 0.40496 0.41431 0.15775 0.0
C1808 C 0.24453 0.33842 0.17026 0.0
C1809 C 0.23147 0.33327 0.1863 0.0
C1810 C 0.27797 0.3472 0.16758 0.0
C1811 C 0.29887 0.35056 0.1809 0.0
C1812 C 0.28598 0.34591 0.19696 0.0
C1813 C 0.25266 0.33757 0.19964 0.0
C1814 C 0.37977 0.34805 0.184 0.0
C1815 C 0.40151 0.37518 0.17394 0.0
C1816 C 0.34639 0.33991 0.18613 0.0
C1817 C 0.33392 0.35845 0.17807 0.0
C1818 C 0.35526 0.38481 0.16754 0.0
C1819 C 0.38882 0.39325 0.16558 0.0
H1820 H 0.58923 0.99112 0.15766 0.0
H1821 H 0.66916 0.05499 0.19104 0.0
H1822 H 0.60459 0.94751 0.16069 0.0
H1823 H 0.68416 0.01132 0.19412 0.0
H1824 H 0.66961 0.909 0.21127 0.0
H1825 H 0.6542 0.95225 0.20694 0.0
H1826 H 0.65485 0.93881 0.15442 0.0
H1827 H 0.67027 0.89552 0.15878 0.0
C1828 C 0.61024 0.99597 0.16551 0.0
C1829 C 0.62797 0.02649 0.17411 0.0
C1830 C 0.61902 0.97104 0.16722 0.0
C1831 C 0.64534 0.97598 0.17775 0.0
C1832 C 0.66349 0.00673 0.18608 0.0
C1833 C 0.65506 0.03181 0.18419 0.0
C1834 C 0.66609 0.91505 0.19883 0.0
C1835 C 0.67117 0.89898 0.18536 0.0
C1836 C 0.65762 0.93998 0.19634 0.0
C1837 C 0.65356 0.94897 0.18034 0.0
C1838 C 0.65777 0.9323 0.16687 0.0
C1839 C 0.66675 0.90772 0.16936 0.0
H1840 H 0.09531 0.76034 0.21181 0.0
H1841 H 0.10998 0.77478 0.15937 0.0
H1842 H 0.05187 0.70179 0.20729 0.0
H1843 H 0.06649 0.71621 0.15483 0.0
H1844 H 0.01228 0.59816 0.15791 0.0
H1845 H 0.05667 0.65679 0.16115 0.0
H1846 H 0.99312 0.67395 0.19409 0.0
H1847 H 0.94869 0.61564 0.19081 0.0
C1848 C 0.08951 0.75084 0.19934 0.0
C1849 C 0.10589 0.77204 0.18593 0.0
C1850 C 0.06448 0.71751 0.19675 0.0
C1851 C 0.05573 0.70464 0.1807 0.0
C1852 C 0.07283 0.72553 0.16731 0.0
C1853 C 0.09751 0.759 0.1699 0.0
C1854 C 0.00766 0.61456 0.16569 0.0
C1855 C 0.97701 0.60229 0.1741 0.0
C1856 C 0.03303 0.64806 0.16752 0.0
C1857 C 0.02836 0.66969 0.17799 0.0
C1858 C 0.99748 0.65763 0.18611 0.0
C1859 C 0.97197 0.62434 0.1841 0.0
H1860 H 0.3805 0.2492 0.31908 0.0
H1861 H 0.28215 0.21768 0.33919 0.0
H1862 H 0.39621 0.30796 0.32342 0.0
H1863 H 0.29809 0.276 0.34397 0.0
H1864 H 0.32547 0.3839 0.33038 0.0
H1865 H 0.31011 0.32523 0.32736 0.0
H1866 H 0.40717 0.34819 0.34624 0.0
H1867 H 0.42281 0.40714 0.3491 0.0
C1868 C 0.36229 0.25481 0.32442 0.0
C1869 C 0.33016 0.22879 0.32884 0.0
C1870 C 0.37137 0.28839 0.32708 0.0
C1871 C 0.34839 0.29657 0.33408 0.0
C1872 C 0.31627 0.27052 0.33845 0.0
C1873 C 0.30727 0.23706 0.33587 0.0
C1874 C 0.34344 0.37643 0.33405 0.0
C1875 C 0.37536 0.4002 0.33997 0.0
C1876 C 0.3346 0.34277 0.33235 0.0
C1877 C 0.3575 0.33213 0.33649 0.0
C1878 C 0.38918 0.35575 0.34274 0.0
C1879 C 0.39799 0.38944 0.34451 0.0
H1880 H 0.61895 0.94263 0.33137 0.0
H1881 H 0.59747 0.01804 0.34994 0.0
H1882 H 0.6777 0.98541 0.32784 0.0
H1883 H 0.65649 0.06079 0.3466 0.0
H1884 H 0.75495 0.13193 0.31893 0.0
H1885 H 0.69614 0.08928 0.32357 0.0
H1886 H 0.72765 0.02261 0.34389 0.0
H1887 H 0.78599 0.06456 0.3388 0.0
C1888 C 0.62684 0.96825 0.33491 0.0
C1889 C 0.60352 0.97692 0.34094 0.0
C1890 C 0.66054 0.99276 0.33291 0.0
C1891 C 0.67168 0.0265 0.33686 0.0
C1892 C 0.64853 0.03507 0.34323 0.0
C1893 C 0.61481 0.01052 0.34529 0.0
C1894 C 0.74922 0.10807 0.32427 0.0
C1895 C 0.77513 0.10171 0.32856 0.0
C1896 C 0.71562 0.08381 0.3271 0.0
C1897 C 0.70729 0.05263 0.33415 0.0
C1898 C 0.73322 0.04627 0.33835 0.0
C1899 C 0.7667 0.0705 0.33559 0.0
H1900 H 0.89323 0.66655 0.35562 0.0
H1901 H 0.908 0.66676 0.30319 0.0
H1902 H 0.93705 0.65198 0.36021 0.0
H1903 H 0.95176 0.65214 0.30775 0.0
H1904 H 0.05509 0.66986 0.32422 0.0
H1905 H 0.01053 0.68354 0.321 0.0
H1906 H 0.9472 0.6026 0.3539 0.0
H1907 H 0.99171 0.58858 0.35709 0.0
C1908 C 0.90579 0.66332 0.3451 0.0
C1909 C 0.89734 0.66782 0.32906 0.0
C1910 C 0.93067 0.65484 0.34772 0.0
C1911 C 0.94788 0.65122 0.33434 0.0
C1912 C 0.93906 0.65515 0.31828 0.0
C1913 C 0.91384 0.66315 0.31566 0.0
C1914 C 0.03184 0.65521 0.33094 0.0
C1915 C 0.02688 0.6281 0.3409 0.0
C1916 C 0.00626 0.66287 0.32896 0.0
C1917 C 0.97539 0.64389 0.33707 0.0
C1918 C 0.97082 0.61762 0.34753 0.0
C1919 C 0.99626 0.60962 0.34934 0.0
H1920 H 0.59575 0.57892 0.84826 0.0
H1921 H 0.61923 0.67713 0.83075 0.0
H1922 H 0.65476 0.59471 0.84539 0.0
H1923 H 0.67787 0.6926 0.82767 0.0
H1924 H 0.78515 0.72072 0.83932 0.0
H1925 H 0.72674 0.70419 0.84411 0.0
H1926 H 0.69565 0.60677 0.82289 0.0
H1927 H 0.75456 0.62302 0.8186 0.0
C1928 C 0.61351 0.60394 0.84393 0.0
C1929 C 0.60281 0.62679 0.83976 0.0
C1930 C 0.64723 0.61285 0.84214 0.0
C1931 C 0.67092 0.64483 0.83624 0.0
C1932 C 0.6603 0.66788 0.83241 0.0
C1933 C 0.62665 0.65897 0.83415 0.0
C1934 C 0.76597 0.69561 0.83586 0.0
C1935 C 0.77455 0.67309 0.82866 0.0
C1936 C 0.73242 0.68627 0.83845 0.0
C1937 C 0.70657 0.65419 0.83387 0.0
C1938 C 0.71505 0.63156 0.8267 0.0
C1939 C 0.74873 0.64097 0.82407 0.0
H1940 H 0.33832 0.11189 0.85415 0.0
H1941 H 0.33578 0.09468 0.80186 0.0
H1942 H 0.3538 0.06881 0.85897 0.0
H1943 H 0.35136 0.05166 0.80665 0.0
H1944 H 0.33554 0.94945 0.82401 0.0
H1945 H 0.32153 0.99367 0.82031 0.0
H1946 H 0.40275 0.0585 0.85274 0.0
H1947 H 0.41708 0.01429 0.8564 0.0
C1948 C 0.34123 0.09896 0.8437 0.0
C1949 C 0.33577 0.1065 0.82764 0.0
C1950 C 0.35025 0.0745 0.84645 0.0
C1951 C 0.35351 0.05678 0.83319 0.0
C1952 C 0.34865 0.06474 0.8171 0.0
C1953 C 0.3401 0.08954 0.81434 0.0
C1954 C 0.35022 0.97298 0.83051 0.0
C1955 C 0.37745 0.97838 0.8405 0.0
C1956 C 0.34236 0.99838 0.82826 0.0
C1957 C 0.36127 0.02957 0.83611 0.0
C1958 C 0.38775 0.03464 0.84656 0.0
C1959 C 0.39593 0.00936 0.84864 0.0
H1960 H 0.90988 0.24279 0.80197 0.0
H1961 H 0.89433 0.22839 0.85436 0.0
H1962 H 0.95319 0.30137 0.80655 0.0
H1963 H 0.93772 0.28695 0.85897 0.0
H1964 H 0.99166 0.40475 0.85622 0.0
H1965 H 0.9476 0.34606 0.85283 0.0
H1966 H 0.01162 0.32993 0.81972 0.0
H1967 H 0.05572 0.38835 0.82315 0.0
C1968 C 0.91547 0.25228 0.81443 0.0
C1969 C 0.89884 0.23108 0.82781 0.0
C1970 C 0.94044 0.28564 0.81707 0.0
C1971 C 0.94893 0.29856 0.83312 0.0
C1972 C 0.93162 0.27764 0.84648 0.0
C1973 C 0.90698 0.24415 0.84385 0.0
C1974 C 0.99646 0.38857 0.84837 0.0
C1975 C 0.02716 0.40119 0.83995 0.0
C1976 C 0.97126 0.35501 0.84644 0.0
C1977 C 0.97614 0.33362 0.83589 0.0
C1978 C 0.00707 0.34604 0.82776 0.0
C1979 C 0.0324 0.3794 0.82985 0.0
H1980 H 0.66936 0.61603 0.69178 0.0
H1981 H 0.58846 0.59826 0.6587 0.0
H1982 H 0.68326 0.67435 0.69491 0.0
H1983 H 0.60276 0.65697 0.66177 0.0
H1984 H 0.66825 0.77514 0.65958 0.0
H1985 H 0.65276 0.71637 0.65529 0.0
H1986 H 0.65253 0.70266 0.70783 0.0
H1987 H 0.668 0.76136 0.71209 0.0
C1988 C 0.65479 0.62465 0.68501 0.0
C1989 C 0.62779 0.60252 0.67499 0.0
C1990 C 0.6626 0.65797 0.68693 0.0
C1991 C 0.6439 0.67002 0.67869 0.0
C1992 C 0.61759 0.64827 0.66824 0.0
C1993 C 0.60942 0.61472 0.6665 0.0
C1994 C 0.66476 0.75947 0.67018 0.0
C1995 C 0.66938 0.77276 0.68616 0.0
C1996 C 0.65573 0.72588 0.66774 0.0
C1997 C 0.65168 0.70511 0.68123 0.0
C1998 C 0.65581 0.71826 0.69722 0.0
C1999 C 0.66433 0.7517 0.69966 0.0
H2000 H 0.40873 0.98701 0.66441 0.0
H2001 H 0.38693 0.06146 0.68404 0.0
H2002 H 0.34959 0.94421 0.66712 0.0
H2003 H 0.32802 0.01861 0.68693 0.0
H2004 H 0.21994 0.94015 0.67506 0.0
H2005 H 0.27841 0.98233 0.6704 0.0
H2006 H 0.30945 0.91454 0.68975 0.0
H2007 H 0.2506 0.87174 0.69393 0.0
C2008 C 0.3913 0.99432 0.66917 0.0
C2009 C 0.40253 0.02765 0.67401 0.0
C2010 C 0.3575 0.96973 0.67086 0.0
C2011 C 0.33421 0.978 0.67733 0.0
C2012 C 0.3453 0.0115 0.68177 0.0
C2013 C 0.37909 0.03605 0.68014 0.0
C2014 C 0.23916 0.93403 0.67814 0.0
C2015 C 0.2306 0.90248 0.68479 0.0
C2016 C 0.27271 0.95837 0.67563 0.0
C2017 C 0.29854 0.95177 0.6797 0.0
C2018 C 0.29006 0.92022 0.68633 0.0
C2019 C 0.25641 0.89586 0.6889 0.0
H2020 H 0.01405 0.4165 0.65773 0.0
H2021 H 0.94951 0.33563 0.69052 0.0
H2022 H 0.05817 0.40207 0.66136 0.0
H2023 H 0.99367 0.32149 0.69417 0.0
H2024 H 0.09514 0.33626 0.71241 0.0
H2025 H 0.05181 0.35141 0.70764 0.0
H2026 H 0.06842 0.35317 0.65529 0.0
H2027 H 0.11181 0.33813 0.6601 0.0
C2028 C 0.00915 0.39546 0.66557 0.0
C2029 C 0.9783 0.37721 0.67384 0.0
C2030 C 0.03439 0.38722 0.66763 0.0
C2031 C 0.0294 0.36091 0.67818 0.0
C2032 C 0.99831 0.34219 0.68615 0.0
C2033 C 0.97294 0.35011 0.68392 0.0
C2034 C 0.08981 0.34032 0.69993 0.0
C2035 C 0.10673 0.33596 0.68662 0.0
C2036 C 0.06482 0.34863 0.69718 0.0
C2037 C 0.05664 0.35319 0.68108 0.0
C2038 C 0.07428 0.34985 0.66781 0.0
C2039 C 0.09892 0.34109 0.67055 0.0
H2040 H 0.89333 0.6676 0.4927 0.0
H2041 H 0.90673 0.66487 0.5451 0.0
H2042 H 0.95213 0.68333 0.48829 0.0
H2043 H 0.96545 0.68056 0.54072 0.0
H2044 H 0.05229 0.66496 0.52384 0.0
H2045 H 0.99377 0.65043 0.52693 0.0
H2046 H 0.01144 0.73329 0.49542 0.0
H2047 H 0.07031 0.74821 0.4924 0.0
C2048 C 0.90892 0.67048 0.50325 0.0
C2049 C 0.89554 0.66498 0.51924 0.0
C2050 C 0.94252 0.67963 0.50074 0.0
C2051 C 0.96316 0.68291 0.51416 0.0
C2052 C 0.94992 0.67787 0.53016 0.0
C2053 C 0.91649 0.66923 0.53268 0.0
C2054 C 0.04367 0.6799 0.51742 0.0
C2055 C 0.06592 0.70776 0.50788 0.0
C2056 C 0.01025 0.67173 0.51931 0.0
C2057 C 0.99826 0.69094 0.51153 0.0
C2058 C 0.02012 0.71807 0.50152 0.0
C2059 C 0.05375 0.72659 0.49982 0.0
H2060 H 0.28906 0.20363 0.52858 0.0
H2061 H 0.38731 0.27036 0.50831 0.0
H2062 H 0.27314 0.24644 0.5239 0.0
H2063 H 0.37117 0.31245 0.50318 0.0
H2064 H 0.34353 0.3929 0.51634 0.0
H2065 H 0.359 0.34975 0.51965 0.0
H2066 H 0.26219 0.27517 0.5007 0.0
H2067 H 0.24643 0.31832 0.49754 0.0
C2068 C 0.30718 0.22737 0.52313 0.0
C2069 C 0.33934 0.23353 0.51876 0.0
C2070 C 0.29799 0.25171 0.52028 0.0
C2071 C 0.3209 0.28275 0.51313 0.0
C2072 C 0.35305 0.28887 0.50881 0.0
C2073 C 0.36215 0.26458 0.51159 0.0
C2074 C 0.32564 0.36738 0.5127 0.0
C2075 C 0.29375 0.35904 0.50668 0.0
C2076 C 0.33455 0.34267 0.51458 0.0
C2077 C 0.31173 0.30906 0.51051 0.0
C2078 C 0.2801 0.3008 0.50414 0.0
C2079 C 0.27123 0.32557 0.50219 0.0
H2080 H 0.60933 0.95118 0.51739 0.0
H2081 H 0.68424 0.92824 0.4996 0.0
H2082 H 0.65253 0.00985 0.52071 0.0
H2083 H 0.72739 0.98714 0.50271 0.0
H2084 H 0.79924 0.08623 0.52956 0.0
H2085 H 0.75615 0.02742 0.52538 0.0
H2086 H 0.69011 0.05916 0.50447 0.0
H2087 H 0.73247 0.1175 0.50914 0.0
C2088 C 0.63493 0.95872 0.51398 0.0
C2089 C 0.64333 0.93503 0.50823 0.0
C2090 C 0.65969 0.99237 0.51586 0.0
C2091 C 0.6934 0.00309 0.51204 0.0
C2092 C 0.70171 0.97954 0.50597 0.0
C2093 C 0.67692 0.94587 0.50405 0.0
C2094 C 0.77543 0.08056 0.52419 0.0
C2095 C 0.76938 0.10653 0.51962 0.0
C2096 C 0.7509 0.04695 0.52162 0.0
C2097 C 0.71977 0.03868 0.51454 0.0
C2098 C 0.71372 0.06468 0.51006 0.0
C2099 C 0.7382 0.09817 0.51257 0.0
H2100 H 0.08442 0.73916 0.68808 0.0
H2101 H 1.0012 0.72072 0.65652 0.0
H2102 H 0.07067 0.68075 0.68455 0.0
H2103 H 0.98779 0.66262 0.65294 0.0
H2104 H 0.00289 0.57631 0.63446 0.0
H2105 H 0.01813 0.6349 0.63902 0.0
H2106 H 0.02183 0.62132 0.69137 0.0
H2107 H 0.00662 0.56274 0.68678 0.0
C2108 C 0.06305 0.72259 0.68053 0.0
C2109 C 0.04388 0.73452 0.67259 0.0
C2110 C 0.05521 0.68922 0.67852 0.0
C2111 C 0.0284 0.66737 0.66834 0.0
C2112 C 0.00886 0.67911 0.66068 0.0
C2113 C 0.01637 0.71228 0.66286 0.0
C2114 C 0.00741 0.58602 0.6469 0.0
C2115 C 0.00351 0.56506 0.66028 0.0
C2116 C 0.01578 0.61937 0.64952 0.0
C2117 C 0.02089 0.63247 0.66556 0.0
C2118 C 0.01808 0.61183 0.67889 0.0
C2119 C 0.00923 0.57836 0.67628 0.0
H2120 H 0.26673 0.346 0.69013 0.0
H2121 H 0.28224 0.28128 0.65711 0.0
H2122 H 0.32577 0.3894 0.68693 0.0
H2123 H 0.34097 0.32473 0.65386 0.0
H2124 H 0.42895 0.42642 0.63623 0.0
H2125 H 0.37024 0.38344 0.64075 0.0
H2126 H 0.3847 0.39812 0.6932 0.0
H2127 H 0.44346 0.44114 0.68866 0.0
C2128 C 0.28278 0.34092 0.68232 0.0
C2129 C 0.26982 0.31022 0.67387 0.0
C2130 C 0.31653 0.36573 0.68052 0.0
C2131 C 0.33778 0.36048 0.67003 0.0
C2132 C 0.32501 0.32955 0.66186 0.0
C2133 C 0.29145 0.3046 0.66384 0.0
C2134 C 0.41946 0.4207 0.6487 0.0
C2135 C 0.44073 0.43704 0.66209 0.0
C2136 C 0.38601 0.39592 0.65129 0.0
C2137 C 0.37304 0.38735 0.66733 0.0
C2138 C 0.39405 0.4043 0.68072 0.0
C2139 C 0.42765 0.42873 0.67813 0.0
H2140 H 0.72278 0.00295 0.65666 0.0
H2141 H 0.65775 0.92091 0.68877 0.0
H2142 H 0.6787 0.01729 0.65323 0.0
H2143 H 0.61373 0.93556 0.68538 0.0
H2144 H 0.56089 1.00032 0.68758 0.0
H2145 H 0.60405 0.98482 0.69206 0.0
H2146 H 0.62042 0.98766 0.63965 0.0
H2147 H 0.57731 0.00323 0.6352 0.0
C2148 C 0.69925 0.98824 0.66315 0.0
C2149 C 0.69372 0.96078 0.67299 0.0
C2150 C 0.67394 0.99628 0.66106 0.0
C2151 C 0.64277 0.97733 0.66892 0.0
C2152 C 0.63759 0.95058 0.6792 0.0
C2153 C 0.66275 0.94222 0.68112 0.0
C2154 C 0.57367 0.99751 0.67704 0.0
C2155 C 0.56587 0.00303 0.66105 0.0
C2156 C 0.59818 0.98848 0.6796 0.0
C2157 C 0.61567 0.98529 0.66621 0.0
C2158 C 0.60751 0.9903 0.65019 0.0
C2159 C 0.58265 0.99885 0.64763 0.0
H2160 H 0.28299 0.00215 0.15708 0.0
H2161 H 0.26545 0.91967 0.18898 0.0
H2162 H 0.34132 0.01619 0.15361 0.0
H2163 H 0.32405 0.93404 0.18555 0.0
H2164 H 0.44185 0.99831 0.18764 0.0
H2165 H 0.38328 0.98311 0.19223 0.0
H2166 H 0.3695 0.9862 0.13986 0.0
H2167 H 0.42808 1.00145 0.1353 0.0
C2168 C 0.29168 0.98729 0.16353 0.0
C2169 C 0.26961 0.95978 0.17331 0.0
C2170 C 0.32498 0.99516 0.1614 0.0
C2171 C 0.33702 0.976 0.16919 0.0
C2172 C 0.31535 0.94923 0.17943 0.0
C2173 C 0.28186 0.94102 0.18138 0.0
C2174 C 0.4262 0.9956 0.17714 0.0
C2175 C 0.43944 1.00111 0.16112 0.0
C2176 C 0.39273 0.98675 0.17975 0.0
C2177 C 0.37202 0.98374 0.16641 0.0
C2178 C 0.38508 0.98871 0.15037 0.0
C2179 C 0.41843 0.99707 0.14775 0.0
H2180 H 0.04741 0.4653 0.15264 0.0
H2181 H 0.94906 0.39776 0.17258 0.0
H2182 H 0.06367 0.42271 0.1572 0.0
H2183 H 0.96555 0.3559 0.17761 0.0
H2184 H 0.99386 0.27602 0.16441 0.0
H2185 H 0.97808 0.31896 0.16123 0.0
H2186 H 0.07487 0.39381 0.18008 0.0
H2187 H 0.09096 0.35085 0.18308 0.0
C2188 C 0.02932 0.44143 0.15799 0.0
C2189 C 0.99703 0.43498 0.1623 0.0
C2190 C 0.03872 0.41721 0.16078 0.0
C2191 C 0.01589 0.38599 0.16781 0.0
C2192 C 0.98362 0.37959 0.17207 0.0
C2193 C 0.9743 0.40377 0.16935 0.0
C2194 C 0.01169 0.30155 0.16805 0.0
C2195 C 0.04367 0.31001 0.174 0.0
C2196 C 0.0026 0.32615 0.16626 0.0
C2197 C 0.0253 0.35979 0.17034 0.0
C2198 C 0.05703 0.36816 0.17663 0.0
C2199 C 0.0661 0.3435 0.17849 0.0
H2200 H 0.55977 0.56139 0.18678 0.0
H2201 H 0.57594 0.57471 0.13439 0.0
H2202 H 0.60299 0.62011 0.1912 0.0
H2203 H 0.61912 0.63342 0.13877 0.0
H2204 H 0.7218 0.72036 0.15568 0.0
H2205 H 0.67744 0.66205 0.15224 0.0
H2206 H 0.61298 0.67924 0.18451 0.0
H2207 H 0.6573 0.73786 0.1879 0.0
C2208 C 0.57251 0.57696 0.17623 0.0
C2209 C 0.5646 0.56354 0.16025 0.0
C2210 C 0.59705 0.61053 0.17874 0.0
C2211 C 0.6145 0.63118 0.16533 0.0
C2212 C 0.60624 0.61792 0.14933 0.0
C2213 C 0.58134 0.58448 0.14681 0.0
C2214 C 0.69831 0.71168 0.16219 0.0
C2215 C 0.69305 0.73373 0.17207 0.0
C2216 C 0.67284 0.67837 0.16009 0.0
C2217 C 0.64173 0.66627 0.168 0.0
C2218 C 0.63677 0.68796 0.1783 0.0
C2219 C 0.66211 0.72146 0.18022 0.0
H2220 H 0.25489 0.93126 0.99261 0.0
H2221 H 0.33603 0.94812 0.02532 0.0
H2222 H 0.26955 0.98996 0.9959 0.0
H2223 H 0.3504 0.00659 0.02864 0.0
H2224 H 0.33626 0.09419 0.04615 0.0
H2225 H 0.32081 0.03549 0.04184 0.0
H2226 H 0.31882 0.04881 0.98936 0.0
H2227 H 0.33417 0.10747 0.9937 0.0
C2228 C 0.276 0.94755 1.00038 0.0
C2229 C 0.29431 0.93508 0.0087 0.0
C2230 C 0.28438 0.9811 1.00224 0.0
C2231 C 0.31089 0.00264 0.01264 0.0
C2232 C 0.32958 0.99036 0.02071 0.0
C2233 C 0.32152 0.95698 0.01868 0.0
C2234 C 0.3321 0.08442 0.03373 0.0
C2235 C 0.33646 0.10532 0.02026 0.0
C2236 C 0.32362 0.051 0.03125 0.0
C2237 C 0.31887 0.03776 0.01526 0.0
C2238 C 0.32227 0.05838 1.00181 0.0
C2239 C 0.33122 0.09192 1.00428 0.0
H2240 H 0.052 0.39305 0.01506 0.0
H2241 H 0.07491 0.31787 0.99764 0.0
H2242 H 0.99347 0.34992 0.01864 0.0
H2243 H 0.01602 0.27471 1.00099 0.0
H2244 H 0.9177 0.20385 0.02893 0.0
H2245 H 0.97635 0.24663 0.02401 0.0
H2246 H 0.9439 0.3119 1.00283 0.0
H2247 H 0.8858 0.26994 0.00826 0.0
C2248 C 0.04447 0.36739 0.01176 0.0
C2249 C 0.06812 0.35889 1.00607 0.0
C2250 C 0.01088 0.34267 0.01379 0.0
C2251 C 1.00018 0.30888 0.01018 0.0
C2252 C 0.02364 0.30047 1.0041 0.0
C2253 C 0.05728 0.32525 1.00202 0.0
C2254 C 0.9232 0.22743 0.02334 0.0
C2255 C 0.8971 0.23341 0.01893 0.0
C2256 C 0.9567 0.25176 0.02035 0.0
C2257 C 0.96471 0.28258 0.01298 0.0
C2258 C 0.93858 0.28852 0.00862 0.0
C2259 C 0.90522 0.26427 0.01158 0.0
H2260 H 0.79984 0.71334 0.02914 0.0
H2261 H 0.73244 0.6151 0.00905 0.0
H2262 H 0.757 0.72937 0.02486 0.0
H2263 H 0.69038 0.63138 1.00427 0.0
H2264 H 0.61013 0.65886 0.01742 0.0
H2265 H 0.65333 0.64347 0.02071 0.0
H2266 H 0.72794 0.74066 1.00214 0.0
H2267 H 0.68473 0.75637 0.99905 0.0
C2268 C 0.77595 0.69523 0.02381 0.0
C2269 C 0.76962 0.66304 0.01937 0.0
C2270 C 0.75159 0.70449 0.02119 0.0
C2271 C 0.72036 0.68164 0.01418 0.0
C2272 C 0.71407 0.64946 0.0098 0.0
C2273 C 0.73838 0.64028 0.01237 0.0
C2274 C 0.63567 0.67687 0.01388 0.0
C2275 C 0.64399 0.70883 0.00796 0.0
C2276 C 0.66043 0.66801 0.01574 0.0
C2277 C 0.69406 0.69092 0.01174 0.0
C2278 C 0.70231 0.72266 1.00553 0.0
C2279 C 0.6775 0.73152 1.00362 0.0
H2280 H 0.73867 0.08229 0.82475 0.0
H2281 H 0.72215 1.00121 0.85742 0.0
H2282 H 0.68004 0.06771 0.82828 0.0
H2283 H 0.66379 0.98695 0.86099 0.0
H2284 H 0.57701 0.00179 0.87919 0.0
H2285 H 0.63546 0.01681 0.87445 0.0
H2286 H 0.62079 0.01867 0.8221 0.0
H2287 H 0.56235 0.00373 0.82687 0.0
C2288 C 0.72247 0.06118 0.83254 0.0
C2289 C 0.73505 0.0429 0.84081 0.0
C2290 C 0.68895 0.05285 0.83454 0.0
C2291 C 0.66754 0.02644 0.84503 0.0
C2292 C 0.6799 0.00772 0.853 0.0
C2293 C 0.71324 0.01572 0.85083 0.0
C2294 C 0.58642 0.00582 0.86671 0.0
C2295 C 0.56518 0.00155 0.8534 0.0
C2296 C 0.61971 0.01406 0.86398 0.0
C2297 C 0.63252 0.01865 0.8479 0.0
C2298 C 0.61156 0.01533 0.83461 0.0
C2299 C 0.57814 0.00662 0.83733 0.0
H2300 H 0.00328 0.72133 0.85798 0.0
H2301 H 0.92183 0.65746 0.82531 0.0
H2302 H 0.01691 0.67679 0.86144 0.0
H2303 H 0.93575 0.61293 0.82875 0.0
H2304 H 0.99968 0.55911 0.82692 0.0
H2305 H 0.98456 0.60252 0.82238 0.0
H2306 H 0.98664 0.61849 0.8748 0.0
H2307 H 1.00188 0.57516 0.87931 0.0
C2308 C 0.98854 0.69795 0.85137 0.0
C2309 C 0.96145 0.69289 0.84137 0.0
C2310 C 0.99617 0.67237 0.85349 0.0
C2311 C 0.97716 0.64136 0.84549 0.0
C2312 C 0.95081 0.63665 0.83504 0.0
C2313 C 0.94287 0.6621 0.83308 0.0
C2314 C 0.99676 0.57185 0.83745 0.0
C2315 C 1.00204 0.56391 0.85346 0.0
C2316 C 0.98795 0.5965 0.83486 0.0
C2317 C 0.9847 0.61397 0.84824 0.0
C2318 C 0.98934 0.6056 0.86427 0.0
C2319 C 0.99771 0.58062 0.86687 0.0
H2320 H 0.28117 0.28153 0.85764 0.0
H2321 H 0.34483 0.26577 0.824 0.0
H2322 H 0.32479 0.34025 0.86071 0.0
H2323 H 0.38839 0.32476 0.82703 0.0
H2324 H 0.44048 0.44234 0.82531 0.0
H2325 H 0.39711 0.38367 0.82091 0.0
H2326 H 0.38382 0.36929 0.87343 0.0
H2327 H 0.42711 0.42793 0.87781 0.0
C2328 C 0.30429 0.29068 0.85073 0.0
C2329 C 0.30958 0.269 0.84059 0.0
C2330 C 0.32934 0.32422 0.85261 0.0
C2331 C 0.36001 0.33689 0.84422 0.0
C2332 C 0.36491 0.31559 0.83361 0.0
C2333 C 0.34001 0.28187 0.8319 0.0
C2334 C 0.42829 0.42657 0.83589 0.0
C2335 C 0.43707 0.43964 0.8519 0.0
C2336 C 0.40367 0.39303 0.83337 0.0
C2337 C 0.38702 0.37209 0.84682 0.0
C2338 C 0.39606 0.38504 0.86284 0.0
C2339 C 0.42103 0.41843 0.86536 0.0
H2340 H 0.66837 0.90767 0.96931 0.0
H2341 H 0.66931 0.89297 0.02169 0.0
H2342 H 0.68403 0.96633 0.97396 0.0
H2343 H 0.68494 0.95164 0.02636 0.0
H2344 H 0.74929 0.06972 0.02333 0.0
H2345 H 0.73473 0.01102 0.01995 0.0
H2346 H 0.65347 0.99425 0.98748 0.0
H2347 H 0.66766 0.0526 0.9909 0.0
C2348 C 0.67235 0.91713 0.98178 0.0
C2349 C 0.66756 0.89584 0.99514 0.0
C2350 C 0.68096 0.95052 0.98446 0.0
C2351 C 0.68542 0.96334 1.00053 0.0
C2352 C 0.68169 0.94236 0.01386 0.0
C2353 C 0.67259 0.90883 0.01119 0.0
C2354 C 0.72808 0.05338 0.01562 0.0
C2355 C 0.70964 0.06578 0.00737 0.0
C2356 C 0.71978 0.01985 0.01371 0.0
C2357 C 0.69323 0.99832 1.00332 0.0
C2358 C 0.67434 0.0105 0.99538 0.0
C2359 C 0.68231 0.04382 0.99747 0.0
H2360 H 0.93242 0.67735 0.02342 0.0
H2361 H 0.94973 0.61383 0.99039 0.0
H2362 H 0.99111 0.72158 0.0203 0.0
H2363 H 0.00817 0.65814 0.98723 0.0
H2364 H 0.09488 0.76072 0.96979 0.0
H2365 H 0.03639 0.717 0.97418 0.0
H2366 H 0.05033 0.73135 0.02667 0.0
H2367 H 0.10883 0.77512 0.02226 0.0
C2368 C 0.94881 0.67271 0.01564 0.0
C2369 C 0.93646 0.64212 1.00715 0.0
C2370 C 0.98235 0.69799 0.01388 0.0
C2371 C 0.00399 0.69333 1.00341 0.0
C2372 C 0.99185 0.6625 0.99521 0.0
C2373 C 0.95849 0.63706 0.99715 0.0
C2374 C 0.08529 0.75479 0.98223 0.0
C2375 C 0.10633 0.77121 0.99568 0.0
C2376 C 0.052 0.72959 0.98475 0.0
C2377 C 0.03899 0.72069 1.00077 0.0
C2378 C 0.05974 0.73778 0.01421 0.0
C2379 C 0.09317 0.76264 0.01169 0.0
H2380 H 0.27358 0.38832 1.00541 0.0
H2381 H 0.20632 0.28982 0.98555 0.0
H2382 H 0.31563 0.37204 0.01047 0.0
H2383 H 0.24902 0.27378 0.99016 0.0
H2384 H 0.32029 0.24648 0.01638 0.0
H2385 H 0.27758 0.26281 0.01324 0.0
H2386 H 0.35274 0.35928 0.99422 0.0
H2387 H 0.3955 0.34324 0.99752 0.0
C2388 C 0.26768 0.3631 1.00219 0.0
C2389 C 0.2365 0.34026 0.99516 0.0
C2390 C 0.29195 0.35391 1.00494 0.0
C2391 C 0.28562 0.32164 1.00073 0.0
C2392 C 0.25445 0.29872 0.9937 0.0
C2393 C 0.23017 0.308 0.99088 0.0
C2394 C 0.32778 0.27133 0.01171 0.0
C2395 C 0.3613 0.29357 1.0072 0.0
C2396 C 0.30325 0.28053 0.00977 0.0
C2397 C 0.31177 0.31222 1.00338 0.0
C2398 C 0.34545 0.33479 0.9993 0.0
C2399 C 0.36994 0.32555 1.00116 0.0
H2400 H 0.10905 0.33217 0.5206 0.0
H2401 H 0.09467 0.3356 0.46834 0.0
H2402 H 0.05062 0.31715 0.52543 0.0
H2403 H 0.03619 0.32045 0.47313 0.0
H2404 H 0.95008 0.33646 0.49055 0.0
H2405 H 0.00832 0.3504 0.48693 0.0
H2406 H 0.99135 0.26856 0.51905 0.0
H2407 H 0.93285 0.25434 0.52265 0.0
C2408 C 0.0933 0.32955 0.51016 0.0
C2409 C 0.10633 0.33513 0.49411 0.0
C2410 C 0.0599 0.3208 0.51291 0.0
C2411 C 0.03905 0.31792 0.49966 0.0
C2412 C 0.05189 0.32288 0.48357 0.0
C2413 C 0.08517 0.33118 0.48081 0.0
C2414 C 0.95881 0.32165 0.49701 0.0
C2415 C 0.93685 0.29426 0.50688 0.0
C2416 C 0.99206 0.32946 0.4948 0.0
C2417 C 0.00416 0.31033 0.50258 0.0
C2418 C 0.98262 0.28372 0.51293 0.0
C2419 C 0.94918 0.27561 0.51498 0.0
H2420 H 0.6689 0.76132 0.47024 0.0
H2421 H 0.66884 0.77531 0.52272 0.0
H2422 H 0.68413 0.71795 0.4746 0.0
H2423 H 0.68415 0.73192 0.52711 0.0
H2424 H 0.74849 0.67777 0.5232 0.0
H2425 H 0.73434 0.72232 0.52033 0.0
H2426 H 0.65241 0.65889 0.48794 0.0
H2427 H 0.66611 0.61432 0.49089 0.0
C2428 C 0.67259 0.7554 0.48268 0.0
C2429 C 0.66763 0.77155 0.49614 0.0
C2430 C 0.68097 0.73043 0.48518 0.0
C2431 C 0.68506 0.72151 0.50119 0.0
C2432 C 0.68118 0.7384 0.51465 0.0
C2433 C 0.67227 0.76302 0.51215 0.0
C2434 C 0.72722 0.67322 0.51563 0.0
C2435 C 0.70844 0.64256 0.50726 0.0
C2436 C 0.71915 0.69867 0.51401 0.0
C2437 C 0.69254 0.69407 0.50378 0.0
C2438 C 0.67333 0.66318 0.49573 0.0
C2439 C 0.68103 0.6376 0.49754 0.0
H2440 H 0.27149 0.88409 0.50624 0.0
H2441 H 0.20414 0.91595 0.4872 0.0
H2442 H 0.31399 0.94231 0.51115 0.0
H2443 H 0.24733 0.97461 0.49163 0.0
H2444 H 0.3198 0.07301 0.51761 0.0
H2445 H 0.27672 0.01407 0.51458 0.0
H2446 H 0.35094 0.9921 0.49491 0.0
H2447 H 0.39409 0.05082 0.49812 0.0
C2448 C 0.26567 0.90353 0.50317 0.0
C2449 C 0.23431 0.89539 0.49643 0.0
C2450 C 0.2902 0.93693 0.50583 0.0
C2451 C 0.284 0.96303 0.50181 0.0
C2452 C 0.25268 0.95498 0.49504 0.0
C2453 C 0.22811 0.92147 0.49232 0.0
C2454 C 0.32701 0.05553 0.51282 0.0
C2455 C 0.36038 0.06659 0.50811 0.0
C2456 C 0.30226 0.02185 0.51095 0.0
C2457 C 0.3104 0.99853 0.5044 0.0
C2458 C 0.34394 0.00943 0.50012 0.0
C2459 C 0.36866 0.04309 0.50194 0.0
H2460 H 0.05502 0.45187 0.34221 0.0
H2461 H 0.95648 0.42007 0.36217 0.0
H2462 H 0.03915 0.39366 0.33724 0.0
H2463 H 0.94084 0.36135 0.35765 0.0
H2464 H 0.91469 0.26267 0.33149 0.0
H2465 H 0.93014 0.32151 0.33465 0.0
H2466 H 0.02707 0.34431 0.35365 0.0
H2467 H 0.01192 0.28577 0.35031 0.0
C2468 C 0.02986 0.43244 0.34546 0.0
C2469 C 0.00689 0.4406 0.35249 0.0
C2470 C 0.02091 0.39904 0.34277 0.0
C2471 C 0.98876 0.37294 0.34704 0.0
C2472 C 0.9657 0.38099 0.35407 0.0
C2473 C 0.97474 0.41453 0.35683 0.0
C2474 C 0.93944 0.28032 0.33616 0.0
C2475 C 0.9621 0.26956 0.34063 0.0
C2476 C 0.94814 0.31393 0.33811 0.0
C2477 C 0.97972 0.33746 0.34448 0.0
C2478 C 0.00265 0.32683 0.34857 0.0
C2479 C 0.99394 0.29326 0.34668 0.0
H2480 H 0.71844 0.7271 0.35028 0.0
H2481 H 0.74025 0.65158 0.33221 0.0
H2482 H 0.65964 0.68432 0.35365 0.0
H2483 H 0.68121 0.60885 0.33539 0.0
H2484 H 0.58218 0.53772 0.36246 0.0
H2485 H 0.64109 0.58041 0.35819 0.0
H2486 H 0.61008 0.64713 0.3374 0.0
H2487 H 0.55163 0.60515 0.34215 0.0
C2488 C 0.71062 0.70146 0.34683 0.0
C2489 C 0.73403 0.69275 0.34098 0.0
C2490 C 0.6769 0.67695 0.34873 0.0
C2491 C 0.66584 0.64319 0.34486 0.0
C2492 C 0.6891 0.63458 0.3387 0.0
C2493 C 0.72284 0.65912 0.33674 0.0
C2494 C 0.58803 0.5616 0.3571 0.0
C2495 C 0.56224 0.56796 0.35258 0.0
C2496 C 0.6217 0.58589 0.35448 0.0
C2497 C 0.63019 0.61708 0.3474 0.0
C2498 C 0.60438 0.62345 0.34298 0.0
C2499 C 0.57083 0.5992 0.34554 0.0
H2500 H 0.34684 0.08188 0.3247 0.0
H2501 H 0.28172 0.99864 0.35619 0.0
H2502 H 0.39137 0.06798 0.3283 0.0
H2503 H 0.32628 0.98511 0.35984 0.0
H2504 H 0.4276 1.001 0.37898 0.0
H2505 H 0.38407 0.0158 0.37402 0.0
H2506 H 0.40245 0.01932 0.32178 0.0
H2507 H 0.446 0.00453 0.32677 0.0
C2508 C 0.34191 0.06043 0.33222 0.0
C2509 C 0.31078 0.04138 0.34017 0.0
C2510 C 0.36737 0.05252 0.33428 0.0
C2511 C 0.36232 0.02574 0.3445 0.0
C2512 C 0.33095 0.00618 0.35208 0.0
C2513 C 0.30536 0.01377 0.34986 0.0
C2514 C 0.42262 0.00539 0.36648 0.0
C2515 C 0.44005 0.00156 0.35326 0.0
C2516 C 0.39753 0.0135 0.36363 0.0
C2517 C 0.38978 0.01842 0.34751 0.0
C2518 C 0.40798 0.01569 0.33432 0.0
C2519 C 0.43271 0.00709 0.33717 0.0
H2520 H 0.15587 0.34028 0.04242 0.0
H2521 H 0.1548 0.42171 0.06848 0.0
H2522 H 0.14106 0.30744 0.0677 0.0
H2523 H 0.14044 0.38874 0.09394 0.0
H2524 H 0.15074 0.33073 0.13836 0.0
H2525 H 0.16802 0.36378 0.1131 0.0
H2526 H 0.08835 0.28074 0.08664 0.0
H2527 H 0.0705 0.24759 0.11203 0.0
C2528 C 0.15287 0.35138 0.05358 0.0
C2529 C 0.15659 0.38371 0.05343 0.0
C2530 C 0.14414 0.3324 0.06803 0.0
C2531 C 0.13946 0.34547 0.08274 0.0
C2532 C 0.14404 0.37813 0.08275 0.0
C2533 C 0.15223 0.39696 0.0682 0.0
C2534 C 0.13701 0.31931 0.12715 0.0
C2535 C 0.10923 0.28643 0.12721 0.0
C2536 C 0.1468 0.3384 0.11272 0.0
C2537 C 0.12944 0.32489 0.09796 0.0
C2538 C 0.10226 0.29171 0.09787 0.0
C2539 C 0.09205 0.27275 0.11238 0.0
H2540 H 0.60061 0.72341 0.06401 0.0
H2541 H 0.64037 0.82642 0.04861 0.0
H2542 H 0.63586 0.74278 0.08865 0.0
H2543 H 0.675 0.8457 0.07353 0.0
H2544 H 0.69823 0.85571 0.13162 0.0
H2545 H 0.66398 0.84033 0.10657 0.0
H2546 H 0.70345 0.77668 0.09177 0.0
H2547 H 0.73833 0.7926 0.11654 0.0
C2548 C 0.61635 0.75018 0.06604 0.0
C2549 C 0.61767 0.7734 0.05439 0.0
C2550 C 0.63673 0.76121 0.08006 0.0
C2551 C 0.65829 0.79568 0.08288 0.0
C2552 C 0.65858 0.81899 0.07161 0.0
C2553 C 0.63876 0.80795 0.05739 0.0
C2554 C 0.70003 0.8389 0.12287 0.0
C2555 C 0.72106 0.82545 0.12601 0.0
C2556 C 0.68042 0.8301 0.10858 0.0
C2557 C 0.68089 0.8071 0.09737 0.0
C2558 C 0.70246 0.79425 0.10031 0.0
C2559 C 0.72262 0.80362 0.1144 0.0
H2560 H 0.21289 0.94548 0.1175 0.0
H2561 H 0.14836 0.8423 0.13233 0.0
H2562 H 0.22881 0.92631 0.09279 0.0
H2563 H 0.16374 0.82323 0.10735 0.0
H2564 H 0.17686 0.81384 0.04936 0.0
H2565 H 0.15838 0.82929 0.0745 0.0
H2566 H 0.26173 0.89181 0.08931 0.0
H2567 H 0.28029 0.87579 0.06441 0.0
C2568 C 0.20161 0.91873 0.11532 0.0
C2569 C 0.1793 0.89538 0.12682 0.0
C2570 C 0.21097 0.9078 0.10128 0.0
C2571 C 0.19768 0.87333 0.09829 0.0
C2572 C 0.17433 0.84994 0.10941 0.0
C2573 C 0.16553 0.86086 0.12365 0.0
C2574 C 0.19559 0.83042 0.05813 0.0
C2575 C 0.23002 0.84351 0.05496 0.0
C2576 C 0.18501 0.83925 0.07247 0.0
C2577 C 0.20867 0.86196 0.08371 0.0
C2578 C 0.24303 0.87447 0.08074 0.0
C2579 C 0.2536 0.86505 0.06658 0.0
H2580 H 0.42298 0.15392 0.44584 0.0
H2581 H 0.34037 0.15282 0.4718 0.0
H2582 H 0.38987 0.13843 0.4204 0.0
H2583 H 0.30743 0.13691 0.44655 0.0
H2584 H 0.24833 0.06602 0.40233 0.0
H2585 H 0.28166 0.08419 0.42769 0.0
H2586 H 0.36383 0.16471 0.40117 0.0
H2587 H 0.33063 0.14711 0.37598 0.0
C2588 C 0.39795 0.15064 0.4461 0.0
C2589 C 0.38442 0.15473 0.46084 0.0
C2590 C 0.37902 0.14178 0.43156 0.0
C2591 C 0.346 0.13626 0.43156 0.0
C2592 C 0.33265 0.14066 0.44624 0.0
C2593 C 0.3517 0.15005 0.46067 0.0
C2594 C 0.27335 0.08779 0.40197 0.0
C2595 C 0.28671 0.10517 0.38715 0.0
C2596 C 0.29242 0.09818 0.41646 0.0
C2597 C 0.3254 0.12574 0.41634 0.0
C2598 C 0.33862 0.14321 0.40157 0.0
C2599 C 0.31943 0.13323 0.38719 0.0
H2600 H 0.85513 0.18165 0.37589 0.0
H2601 H 0.93616 0.18083 0.40247 0.0
H2602 H 0.83712 0.19698 0.40102 0.0
H2603 H 0.91756 0.19571 0.42776 0.0
H2604 H 0.84917 0.18669 0.47179 0.0
H2605 H 0.86476 0.169 0.44665 0.0
H2606 H 0.86351 0.24961 0.42005 0.0
H2607 H 0.84837 0.26789 0.44537 0.0
C2608 C 0.86889 0.18432 0.38714 0.0
C2609 C 0.89709 0.17992 0.38717 0.0
C2610 C 0.85867 0.19337 0.40149 0.0
C2611 C 0.87602 0.19769 0.4163 0.0
C2612 C 0.90365 0.1924 0.4165 0.0
C2613 C 0.91428 0.18389 0.40204 0.0
C2614 C 0.8519 0.20055 0.46058 0.0
C2615 C 0.84744 0.22872 0.46059 0.0
C2616 C 0.8611 0.19051 0.44621 0.0
C2617 C 0.86551 0.20801 0.43144 0.0
C2618 C 0.86014 0.23559 0.43128 0.0
C2619 C 0.85148 0.24604 0.44576 0.0
H2620 H 0.85471 0.6967 0.38268 0.0
H2621 H 0.79146 0.73715 0.39695 0.0
H2622 H 0.83894 0.66289 0.40786 0.0
H2623 H 0.77515 0.70268 0.4219 0.0
H2624 H 0.72193 0.60051 0.45045 0.0
H2625 H 0.74119 0.63565 0.42575 0.0
H2626 H 0.84419 0.67407 0.44053 0.0
H2627 H 0.82502 0.63954 0.46548 0.0
C2628 C 0.83776 0.69865 0.39129 0.0
C2629 C 0.82442 0.71968 0.38788 0.0
C2630 C 0.82874 0.67929 0.40566 0.0
C2631 C 0.80561 0.67999 0.4167 0.0
C2632 C 0.79282 0.70151 0.41349 0.0
C2633 C 0.80241 0.72144 0.3993 0.0
C2634 C 0.74868 0.6161 0.44833 0.0
C2635 C 0.77197 0.61719 0.45988 0.0
C2636 C 0.75967 0.63643 0.43429 0.0
C2637 C 0.79415 0.65771 0.43134 0.0
C2638 C 0.81748 0.65787 0.44254 0.0
C2639 C 0.8065 0.6381 0.45678 0.0
H2640 H 0.93566 0.75593 0.90264 0.0
H2641 H 0.85433 0.67415 0.87614 0.0
H2642 H 0.91735 0.72229 0.9279 0.0
H2643 H 0.83665 0.64066 0.90122 0.0
H2644 H 0.84826 0.58062 0.94525 0.0
H2645 H 0.86339 0.61436 0.92002 0.0
H2646 H 0.8646 0.69589 0.94692 0.0
H2647 H 0.849 0.66229 0.97197 0.0
C2648 C 0.91378 0.73099 0.90223 0.0
C2649 C 0.89642 0.71784 0.88738 0.0
C2650 C 0.90332 0.71174 0.91666 0.0
C2651 C 0.87572 0.67879 0.91646 0.0
C2652 C 0.85818 0.66583 0.90169 0.0
C2653 C 0.86822 0.68521 0.88736 0.0
C2654 C 0.85137 0.60558 0.94572 0.0
C2655 C 0.84727 0.61865 0.96061 0.0
C2656 C 0.86003 0.62487 0.93131 0.0
C2657 C 0.86536 0.65781 0.93157 0.0
C2658 C 0.86096 0.67073 0.9464 0.0
C2659 C 0.85175 0.6513 0.96071 0.0
H2660 H 0.33112 0.18112 0.87559 0.0
H2661 H 0.24846 0.17876 0.90212 0.0
H2662 H 0.36413 0.19615 0.90084 0.0
H2663 H 0.28159 0.19334 0.9275 0.0
H2664 H 0.3407 0.18462 0.97165 0.0
H2665 H 0.3078 0.16698 0.94637 0.0
H2666 H 0.38979 0.24818 0.9201 0.0
H2667 H 0.42283 0.26639 0.94554 0.0
C2668 C 0.31979 0.18341 0.88684 0.0
C2669 C 0.28705 0.17867 0.88683 0.0
C2670 C 0.33887 0.19227 0.90127 0.0
C2671 C 0.32551 0.19607 0.91609 0.0
C2672 C 0.29246 0.19043 0.91624 0.0
C2673 C 0.27351 0.1821 0.90172 0.0
C2674 C 0.35194 0.19863 0.96048 0.0
C2675 C 0.38449 0.22695 0.96062 0.0
C2676 C 0.33292 0.18861 0.94603 0.0
C2677 C 0.34615 0.20628 0.93132 0.0
C2678 C 0.37903 0.23401 0.93129 0.0
C2679 C 0.39793 0.24443 0.94583 0.0
H2680 H 0.82282 0.15082 0.87591 0.0
H2681 H 0.82447 0.06973 0.90202 0.0
H2682 H 0.80713 0.16805 0.9012 0.0
H2683 H 0.80924 0.08753 0.92745 0.0
H2684 H 0.81714 0.15429 0.97191 0.0
H2685 H 0.83536 0.1398 0.9466 0.0
H2686 H 0.7544 0.14073 0.92019 0.0
H2687 H 0.73559 0.15478 0.94567 0.0
C2688 C 0.82026 0.13689 0.88709 0.0
C2689 C 0.82497 0.10888 0.88695 0.0
C2690 C 0.81101 0.14667 0.90153 0.0
C2691 C 0.80681 0.12904 0.91624 0.0
C2692 C 0.81245 0.10164 0.91627 0.0
C2693 C 0.82116 0.09146 0.90173 0.0
C2694 C 0.80329 0.15171 0.96071 0.0
C2695 C 0.77488 0.15575 0.96082 0.0
C2696 C 0.81365 0.14316 0.94624 0.0
C2697 C 0.79622 0.13899 0.93148 0.0
C2698 C 0.76837 0.14394 0.93142 0.0
C2699 C 0.75761 0.15195 0.94599 0.0
H2700 H 0.60018 0.87857 0.56425 0.0
H2701 H 0.63831 0.81342 0.54982 0.0
H2702 H 0.63514 0.89455 0.58901 0.0
H2703 H 0.67264 0.82889 0.57482 0.0
H2704 H 0.69665 0.84301 0.63245 0.0
H2705 H 0.66208 0.82417 0.60752 0.0
H2706 H 0.70216 0.92733 0.59255 0.0
H2707 H 0.73733 0.94625 0.61724 0.0
C2708 C 0.61549 0.86716 0.56653 0.0
C2709 C 0.61646 0.84469 0.55512 0.0
C2710 C 0.63571 0.87655 0.5806 0.0
C2711 C 0.65674 0.86313 0.58371 0.0
C2712 C 0.65663 0.83957 0.57269 0.0
C2713 C 0.63698 0.83073 0.55842 0.0
C2714 C 0.69848 0.86163 0.6237 0.0
C2715 C 0.71981 0.8961 0.62676 0.0
C2716 C 0.67868 0.85084 0.60947 0.0
C2717 C 0.67925 0.87433 0.59824 0.0
C2718 C 0.70106 0.90874 0.60112 0.0
C2719 C 0.7214 0.91952 0.61515 0.0
H2720 H 0.18778 0.82418 0.54941 0.0
H2721 H 0.12214 0.72117 0.56416 0.0
H2722 H 0.1725 0.84358 0.57427 0.0
H2723 H 0.10639 0.74069 0.58882 0.0
H2724 H 0.05546 0.79157 0.61709 0.0
H2725 H 0.07393 0.7747 0.59246 0.0
H2726 H 0.17738 0.83893 0.6067 0.0
H2727 H 0.159 0.85534 0.63155 0.0
C2728 C 0.1704 0.80571 0.55806 0.0
C2729 C 0.15624 0.77115 0.55488 0.0
C2730 C 0.16166 0.81683 0.57224 0.0
C2731 C 0.13803 0.79361 0.58333 0.0
C2732 C 0.12442 0.75908 0.58036 0.0
C2733 C 0.1337 0.74794 0.56635 0.0
C2734 C 0.08215 0.8025 0.61484 0.0
C2735 C 0.10579 0.82485 0.62622 0.0
C2736 C 0.09267 0.79257 0.60085 0.0
C2737 C 0.12704 0.8053 0.5978 0.0
C2738 C 0.15074 0.82876 0.60879 0.0
C2739 C 0.14021 0.83816 0.62296 0.0
H2740 H 0.26651 0.4216 0.56849 0.0
H2741 H 0.18571 0.33871 0.5423 0.0
H2742 H 0.24802 0.38894 0.59401 0.0
H2743 H 0.16775 0.30616 0.5677 0.0
H2744 H 0.17981 0.2481 0.61253 0.0
H2745 H 0.19415 0.28067 0.58698 0.0
H2746 H 0.1958 0.36325 0.61306 0.0
H2747 H 0.18104 0.33079 0.63848 0.0
C2748 C 0.2447 0.39659 0.5682 0.0
C2749 C 0.22758 0.38283 0.55337 0.0
C2750 C 0.23411 0.37793 0.58279 0.0
C2751 C 0.20656 0.34495 0.58279 0.0
C2752 C 0.18923 0.33138 0.56802 0.0
C2753 C 0.19943 0.35018 0.55351 0.0
C2754 C 0.18284 0.27304 0.61277 0.0
C2755 C 0.17921 0.28678 0.62754 0.0
C2756 C 0.19102 0.29165 0.59815 0.0
C2757 C 0.19627 0.32456 0.59809 0.0
C2758 C 0.19221 0.3381 0.61279 0.0
C2759 C 0.18351 0.31934 0.62732 0.0
H2760 H 0.9987 0.48608 0.70878 0.0
H2761 H 0.91604 0.40504 0.73498 0.0
H2762 H 0.03138 0.50396 0.73414 0.0
H2763 H 0.94882 0.42345 0.76047 0.0
H2764 H 0.00714 0.49024 0.80493 0.0
H2765 H 0.97457 0.47566 0.77956 0.0
H2766 H 0.05698 0.47737 0.75328 0.0
H2767 H 0.08967 0.49153 0.7788 0.0
C2768 C 0.9873 0.4723 0.71999 0.0
C2769 C 0.95469 0.4441 0.71986 0.0
C2770 C 0.00618 0.48245 0.73448 0.0
C2771 C 0.9927 0.46502 0.74923 0.0
C2772 C 0.95975 0.43744 0.74925 0.0
C2773 C 0.94101 0.4269 0.73468 0.0
C2774 C 0.01853 0.48783 0.79374 0.0
C2775 C 0.05108 0.49208 0.79389 0.0
C2776 C 0.99972 0.47923 0.77924 0.0
C2777 C 0.01318 0.47523 0.76449 0.0
C2778 C 0.04607 0.48045 0.76449 0.0
C2779 C 0.06475 0.48853 0.77908 0.0
H2780 H 0.51083 0.48172 0.71549 0.0
H2781 H 0.61394 0.5441 0.73095 0.0
H2782 H 0.49181 0.49741 0.74038 0.0
H2783 H 0.59484 0.56032 0.75557 0.0
H2784 H 0.54593 0.61383 0.78352 0.0
H2785 H 0.56188 0.59467 0.75882 0.0
H2786 H 0.49656 0.49159 0.77328 0.0
H2787 H 0.48115 0.51064 0.79825 0.0
C2788 C 0.52938 0.49846 0.72429 0.0
C2789 C 0.56388 0.51157 0.72131 0.0
C2790 C 0.51848 0.50743 0.73849 0.0
C2791 C 0.5419 0.53031 0.74977 0.0
C2792 C 0.57632 0.54287 0.74697 0.0
C2793 C 0.5872 0.53333 0.73297 0.0
C2794 C 0.53458 0.58708 0.78132 0.0
C2795 C 0.51224 0.56373 0.7928 0.0
C2796 C 0.54395 0.57616 0.76727 0.0
C2797 C 0.53063 0.54169 0.76425 0.0
C2798 C 0.50717 0.51829 0.77534 0.0
C2799 C 0.49836 0.52921 0.78959 0.0
H2800 H 0.49197 0.08955 0.73575 0.0
H2801 H 0.49065 0.0071 0.70952 0.0
H2802 H 0.47707 0.05648 0.76117 0.0
H2803 H 0.47528 0.97413 0.73479 0.0
H2804 H 0.40404 0.91546 0.77929 0.0
H2805 H 0.42265 0.94841 0.75383 0.0
H2806 H 0.5035 0.03047 0.78024 0.0
H2807 H 0.48549 0.99765 0.80553 0.0
C2808 C 0.4888 0.06457 0.73543 0.0
C2809 C 0.49261 0.05105 0.72062 0.0
C2810 C 0.48028 0.04565 0.74996 0.0
C2811 C 0.47483 0.01267 0.7499 0.0
C2812 C 0.47902 0.99934 0.73515 0.0
C2813 C 0.48808 0.01839 0.72072 0.0
C2814 C 0.42601 0.94036 0.77961 0.0
C2815 C 0.44328 0.95384 0.79443 0.0
C2816 C 0.43666 0.9592 0.76506 0.0
C2817 C 0.4644 0.99207 0.76512 0.0
C2818 C 0.48187 0.00535 0.77988 0.0
C2819 C 0.47163 0.98637 0.79433 0.0
H2820 H 0.59998 0.0884 0.23563 0.0
H2821 H 0.51927 0.0055 0.20941 0.0
H2822 H 0.58183 0.05548 0.26109 0.0
H2823 H 0.50168 0.97267 0.23473 0.0
H2824 H 0.51439 0.91457 0.27942 0.0
H2825 H 0.52867 0.94734 0.25391 0.0
H2826 H 0.52937 0.02933 0.28011 0.0
H2827 H 0.51463 0.99669 0.30546 0.0
C2828 C 0.57826 0.06334 0.23532 0.0
C2829 C 0.56106 0.04966 0.2205 0.0
C2830 C 0.56788 0.04451 0.24987 0.0
C2831 C 0.54047 0.01146 0.24983 0.0
C2832 C 0.52307 0.99795 0.23507 0.0
C2833 C 0.53305 0.01692 0.22061 0.0
C2834 C 0.5172 0.93942 0.27968 0.0
C2835 C 0.51328 0.95294 0.29447 0.0
C2836 C 0.52535 0.95815 0.2651 0.0
C2837 C 0.53032 0.99095 0.26509 0.0
C2838 C 0.52601 0.00427 0.2798 0.0
C2839 C 0.51732 0.9854 0.29429 0.0
H2840 H 0.00701 0.52117 0.30532 0.0
H2841 H 0.08896 0.60231 0.27882 0.0
H2842 H 0.97374 0.5032 0.28018 0.0
H2843 H 0.05554 0.58374 0.25349 0.0
H2844 H 0.99626 0.51482 0.20949 0.0
H2845 H 0.02954 0.53075 0.23465 0.0
H2846 H 0.94753 0.52952 0.26109 0.0
H2847 H 0.91412 0.51405 0.23576 0.0
C2848 C 0.01813 0.53498 0.29409 0.0
C2849 C 0.05075 0.56319 0.29408 0.0
C2850 C 0.99889 0.52478 0.27973 0.0
C2851 C 0.01198 0.54215 0.26493 0.0
C2852 C 0.0449 0.56982 0.26475 0.0
C2853 C 0.06401 0.58044 0.27922 0.0
C2854 C 0.98509 0.51763 0.22068 0.0
C2855 C 0.95242 0.51306 0.22062 0.0
C2856 C 0.00434 0.52703 0.23504 0.0
C2857 C 0.9912 0.53155 0.24977 0.0
C2858 C 0.95821 0.52609 0.24988 0.0
C2859 C 0.9391 0.51722 0.23541 0.0
H2860 H 0.49104 0.4036 0.23519 0.0
H2861 H 0.48923 0.48416 0.20864 0.0
H2862 H 0.47572 0.42176 0.26048 0.0
H2863 H 0.47345 0.50174 0.23378 0.0
H2864 H 0.40182 0.48926 0.27802 0.0
H2865 H 0.4208 0.47486 0.25271 0.0
H2866 H 0.50148 0.47414 0.2795 0.0
H2867 H 0.48307 0.48898 0.30465 0.0
C2868 C 0.48768 0.42529 0.23477 0.0
C2869 C 0.49147 0.44245 0.2199 0.0
C2870 C 0.47892 0.43568 0.24923 0.0
C2871 C 0.47319 0.46303 0.24904 0.0
C2872 C 0.47738 0.4804 0.23424 0.0
C2873 C 0.48669 0.47042 0.21988 0.0
C2874 C 0.42382 0.48642 0.27846 0.0
C2875 C 0.44094 0.49039 0.29335 0.0
C2876 C 0.43469 0.4782 0.26398 0.0
C2877 C 0.4625 0.4732 0.26419 0.0
C2878 C 0.4798 0.47753 0.27902 0.0
C2879 C 0.46934 0.48629 0.29339 0.0
H2880 H 0.01882 0.21039 0.30528 0.0
H2881 H 0.92143 0.13867 0.28599 0.0
H2882 H 0.04258 0.21993 0.27783 0.0
H2883 H 0.94547 0.14592 0.25857 0.0
H2884 H 0.98782 0.19437 0.209 0.0
H2885 H 0.96407 0.18047 0.23645 0.0
H2886 H 0.06114 0.20369 0.25579 0.0
H2887 H 0.08519 0.22019 0.22836 0.0
C2888 C 0.00265 0.19606 0.29515 0.0
C2889 C 0.96825 0.17391 0.29775 0.0
C2890 C 0.01633 0.2013 0.27933 0.0
C2891 C 0.99615 0.18385 0.2657 0.0
C2892 C 0.96185 0.16064 0.26853 0.0
C2893 C 0.948 0.15614 0.2843 0.0
C2894 C 0.00399 0.19629 0.21914 0.0
C2895 C 0.03838 0.2085 0.21655 0.0
C2896 C 0.99031 0.18804 0.23496 0.0
C2897 C 0.01049 0.19091 0.24862 0.0
C2898 C 0.04477 0.20193 0.24581 0.0
C2899 C 0.05862 0.21109 0.23003 0.0
H2900 H 0.83617 0.75367 0.28438 0.0
H2901 H 0.82277 0.83268 0.30516 0.0
H2902 H 0.82641 0.76848 0.25695 0.0
H2903 H 0.81375 0.84798 0.27771 0.0
H2904 H 0.75612 0.83557 0.22938 0.0
H2905 H 0.77121 0.82575 0.25671 0.0
H2906 H 0.8486 0.81026 0.23551 0.0
H2907 H 0.83301 0.81937 0.20812 0.0
C2908 C 0.83162 0.77451 0.28309 0.0
C2909 C 0.83011 0.79186 0.29701 0.0
C2910 C 0.82615 0.78313 0.26732 0.0
C2911 C 0.81909 0.80935 0.26506 0.0
C2912 C 0.81853 0.82729 0.27897 0.0
C2913 C 0.82394 0.81864 0.29473 0.0
C2914 C 0.77655 0.83036 0.23055 0.0
C2915 C 0.79324 0.82815 0.21652 0.0
C2916 C 0.78534 0.82486 0.24626 0.0
C2917 C 0.8111 0.81708 0.24837 0.0
C2918 C 0.82831 0.81567 0.23436 0.0
C2919 C 0.8195 0.82113 0.21864 0.0
H2920 H 0.24593 0.08174 0.28447 0.0
H2921 H 0.16914 0.98863 0.30582 0.0
H2922 H 0.23051 0.05694 0.25716 0.0
H2923 H 0.15315 0.96404 0.27841 0.0
H2924 H 0.18019 0.01188 0.20861 0.0
H2925 H 0.18831 0.03635 0.23602 0.0
H2926 H 0.17579 0.94456 0.25722 0.0
H2927 H 0.16689 0.91985 0.22989 0.0
C2928 C 0.22539 0.05612 0.28333 0.0
C2929 C 0.2089 0.03715 0.29737 0.0
C2930 C 0.21641 0.04192 0.26762 0.0
C2931 C 0.19065 0.00838 0.26553 0.0
C2932 C 0.17346 0.98975 0.27956 0.0
C2933 C 0.18249 0.00394 0.29528 0.0
C2934 C 0.17885 0.99679 0.21914 0.0
C2935 C 0.173 0.96392 0.21703 0.0
C2936 C 0.18371 0.01092 0.23486 0.0
C2937 C 0.18292 0.99256 0.24888 0.0
C2938 C 0.17617 0.95935 0.24677 0.0
C2939 C 0.17124 0.94521 0.23106 0.0
H2940 H 0.92211 0.75722 0.78474 0.0
H2941 H 0.01573 0.83328 0.80599 0.0
H2942 H 0.94672 0.77245 0.7574 0.0
H2943 H 0.04017 0.84913 0.77853 0.0
H2944 H 0.08329 0.83578 0.72952 0.0
H2945 H 0.05914 0.8267 0.757 0.0
H2946 H 0.9671 0.81477 0.73643 0.0
H2947 H 0.99097 0.82301 0.7089 0.0
C2948 C 0.94782 0.77754 0.78357 0.0
C2949 C 0.96696 0.79391 0.79759 0.0
C2950 C 0.96192 0.78643 0.76785 0.0
C2951 C 0.99552 0.812 0.7657 0.0
C2952 C 0.0144 0.82898 0.77971 0.0
C2953 C 1.0003 0.82003 0.79546 0.0
C2954 C 0.058 0.83151 0.73086 0.0
C2955 C 0.03902 0.82993 0.71698 0.0
C2956 C 0.04418 0.82647 0.74666 0.0
C2957 C 0.01106 0.81982 0.74898 0.0
C2958 C 0.99246 0.81925 0.73511 0.0
C2959 C 0.00624 0.82418 0.71931 0.0
H2960 H 0.17978 0.1692 0.70869 0.0
H2961 H 0.16591 0.24726 0.73034 0.0
H2962 H 0.18791 0.15251 0.73602 0.0
H2963 H 0.17485 0.23117 0.75757 0.0
H2964 H 0.24597 0.16477 0.78428 0.0
H2965 H 0.23016 0.17415 0.75708 0.0
H2966 H 0.15268 0.18899 0.77872 0.0
H2967 H 0.16909 0.18039 0.80604 0.0
C2968 C 0.1783 0.1827 0.71928 0.0
C2969 C 0.17232 0.20967 0.71729 0.0
C2970 C 0.18317 0.17327 0.73496 0.0
C2971 C 0.18226 0.1906 0.74905 0.0
C2972 C 0.17532 0.21694 0.74706 0.0
C2973 C 0.17037 0.22632 0.7314 0.0
C2974 C 0.22533 0.16971 0.78325 0.0
C2975 C 0.20894 0.17201 0.79738 0.0
C2976 C 0.21612 0.17492 0.7676 0.0
C2977 C 0.19019 0.18247 0.76565 0.0
C2978 C 0.17311 0.18375 0.77976 0.0
C2979 C 0.18238 0.17861 0.79543 0.0
H2980 H 0.83929 0.08327 0.78422 0.0
H2981 H 0.82271 0.99026 0.8058 0.0
H2982 H 0.82962 0.05818 0.75698 0.0
H2983 H 0.81378 0.96535 0.77844 0.0
H2984 H 0.75581 0.92103 0.7299 0.0
H2985 H 0.77161 0.94586 0.75721 0.0
H2986 H 0.85127 0.03737 0.73597 0.0
H2987 H 0.83494 0.0128 0.70858 0.0
C2988 C 0.83407 0.0576 0.78314 0.0
C2989 C 0.83162 0.03875 0.79723 0.0
C2990 C 0.82868 0.04323 0.76747 0.0
C2991 C 0.82078 0.00965 0.76546 0.0
C2992 C 0.81929 0.9911 0.77953 0.0
C2993 C 0.82463 0.00547 0.79522 0.0
C2994 C 0.77689 0.94635 0.73105 0.0
C2995 C 0.79396 0.96496 0.71702 0.0
C2996 C 0.7861 0.96055 0.74675 0.0
C2997 C 0.81266 0.99372 0.74884 0.0
C2998 C 0.83035 0.01198 0.73482 0.0
C2999 C 0.8211 0.99779 0.71911 0.0
H3000 H 0.58693 0.47241 0.61966 0.0
H3001 H 0.68477 0.54392 0.63856 0.0
H3002 H 0.61044 0.47933 0.59215 0.0
H3003 H 0.70803 0.55319 0.611 0.0
H3004 H 0.74975 0.55269 0.56133 0.0
H3005 H 0.72621 0.5369 0.5889 0.0
H3006 H 0.62878 0.51315 0.56984 0.0
H3007 H 0.65202 0.52632 0.54228 0.0
C3008 C 0.61349 0.4898 0.61787 0.0
C3009 C 0.634 0.50758 0.63124 0.0
C3010 C 0.62705 0.49412 0.60203 0.0
C3011 C 0.66133 0.51716 0.59904 0.0
C3012 C 0.68177 0.53468 0.61261 0.0
C3013 C 0.66837 0.5296 0.62849 0.0
C3014 C 0.7232 0.54361 0.56309 0.0
C3015 C 0.70272 0.54064 0.54966 0.0
C3016 C 0.70964 0.53486 0.57896 0.0
C3017 C 0.6754 0.5239 0.5819 0.0
C3018 C 0.65499 0.52068 0.56828 0.0
C3019 C 0.66838 0.5285 0.55238 0.0
H3020 H 0.5066 0.09179 0.61808 0.0
H3021 H 0.49014 0.16823 0.6397 0.0
H3022 H 0.49699 0.10729 0.59085 0.0
H3023 H 0.4813 0.18433 0.61236 0.0
H3024 H 0.42341 0.17076 0.56374 0.0
H3025 H 0.43931 0.16198 0.59108 0.0
H3026 H 0.51868 0.14965 0.56987 0.0
H3027 H 0.50222 0.15759 0.54248 0.0
C3028 C 0.50143 0.11226 0.61701 0.0
C3029 C 0.49899 0.12864 0.6311 0.0
C3030 C 0.49607 0.1213 0.60135 0.0
C3031 C 0.48824 0.14703 0.59935 0.0
C3032 C 0.48676 0.16406 0.61343 0.0
C3033 C 0.49205 0.15496 0.62912 0.0
C3034 C 0.44447 0.1665 0.56491 0.0
C3035 C 0.46138 0.16467 0.55089 0.0
C3036 C 0.45372 0.16163 0.58063 0.0
C3037 C 0.48019 0.1549 0.58273 0.0
C3038 C 0.4978 0.15419 0.56872 0.0
C3039 C 0.48849 0.15896 0.553 0.0
H3040 H 0.83711 0.32447 0.63905 0.0
H3041 H 0.91412 0.41689 0.61725 0.0
H3042 H 0.82055 0.29945 0.61174 0.0
H3043 H 0.89818 0.39169 0.59006 0.0
H3044 H 0.84745 0.34641 0.54173 0.0
H3045 H 0.85578 0.37119 0.56907 0.0
H3046 H 0.84249 0.27931 0.59054 0.0
H3047 H 0.83334 0.2543 0.56329 0.0
C3048 C 0.85041 0.33952 0.62843 0.0
C3049 C 0.87703 0.37267 0.63036 0.0
C3050 C 0.84105 0.32509 0.61277 0.0
C3051 C 0.85812 0.34344 0.59865 0.0
C3052 C 0.88414 0.3769 0.60059 0.0
C3053 C 0.89344 0.39133 0.61623 0.0
C3054 C 0.84596 0.33137 0.5523 0.0
C3055 C 0.83986 0.29839 0.55029 0.0
C3056 C 0.85095 0.34567 0.56799 0.0
C3057 C 0.85005 0.32738 0.58206 0.0
C3058 C 0.84297 0.29405 0.58005 0.0
C3059 C 0.8379 0.27973 0.56438 0.0
H3060 H 0.65728 0.15517 0.04212 0.0
H3061 H 0.74948 0.16954 0.06367 0.0
H3062 H 0.63266 0.1473 0.06948 0.0
H3063 H 0.72463 0.16084 0.09095 0.0
H3064 H 0.67985 0.16706 0.13941 0.0
H3065 H 0.7047 0.18315 0.11204 0.0
H3066 H 0.61223 0.10533 0.09064 0.0
H3067 H 0.58719 0.08987 0.11789 0.0
C3068 C 0.67236 0.1568 0.05269 0.0
C3069 C 0.70532 0.16286 0.05068 0.0
C3070 C 0.65817 0.15208 0.06839 0.0
C3071 C 0.67653 0.1532 0.08247 0.0
C3072 C 0.70984 0.1602 0.08045 0.0
C3073 C 0.72406 0.16502 0.06476 0.0
C3074 C 0.66471 0.15364 0.12885 0.0
C3075 C 0.63155 0.12709 0.13087 0.0
C3076 C 0.67904 0.16272 0.11315 0.0
C3077 C 0.66059 0.14544 0.09909 0.0
C3078 C 0.62711 0.11952 0.10112 0.0
C3079 C 0.61277 0.1105 0.11679 0.0
H3080 H 0.83546 0.51338 0.13914 0.0
H3081 H 0.91305 0.49818 0.11795 0.0
H3082 H 0.81909 0.52121 0.11168 0.0
H3083 H 0.8973 0.50685 0.09058 0.0
H3084 H 0.8472 0.50094 0.04192 0.0
H3085 H 0.85534 0.48474 0.06938 0.0
H3086 H 0.84114 0.56304 0.09048 0.0
H3087 H 0.83216 0.5786 0.06315 0.0
C3088 C 0.84894 0.51156 0.12863 0.0
C3089 C 0.87567 0.50529 0.13077 0.0
C3090 C 0.83968 0.51625 0.11287 0.0
C3091 C 0.85698 0.51489 0.09887 0.0
C3092 C 0.8831 0.50767 0.10102 0.0
C3093 C 0.89228 0.50288 0.11676 0.0
C3094 C 0.84545 0.51445 0.05244 0.0
C3095 C 0.83914 0.54116 0.05031 0.0
C3096 C 0.85034 0.5053 0.06819 0.0
C3097 C 0.8491 0.52268 0.08219 0.0
C3098 C 0.84185 0.54877 0.08005 0.0
C3099 C 0.83689 0.55785 0.06432 0.0
H3100 H 0.50555 0.41536 0.11741 0.0
H3101 H 0.49029 0.32294 0.13912 0.0
H3102 H 0.49656 0.39034 0.09019 0.0
H3103 H 0.4821 0.2981 0.11177 0.0
H3104 H 0.42463 0.25307 0.06321 0.0
H3105 H 0.44026 0.27793 0.0905 0.0
H3106 H 0.51865 0.37017 0.06919 0.0
H3107 H 0.50242 0.34553 0.0418 0.0
C3108 C 0.50076 0.38984 0.11637 0.0
C3109 C 0.49846 0.37112 0.13048 0.0
C3110 C 0.49579 0.37551 0.10071 0.0
C3111 C 0.48847 0.34211 0.09872 0.0
C3112 C 0.48716 0.32371 0.11283 0.0
C3113 C 0.49206 0.33802 0.12852 0.0
C3114 C 0.44542 0.27855 0.06433 0.0
C3115 C 0.46212 0.29736 0.05028 0.0
C3116 C 0.45454 0.29278 0.08003 0.0
C3117 C 0.48066 0.32616 0.0821 0.0
C3118 C 0.49806 0.3446 0.06806 0.0
C3119 C 0.48888 0.33039 0.05234 0.0
H3120 H 0.32393 0.83781 0.87549 0.0
H3121 H 0.41685 0.914 0.89724 0.0
H3122 H 0.29885 0.82157 0.9028 0.0
H3123 H 0.39159 0.89835 0.92445 0.0
H3124 H 0.34625 0.84669 0.97266 0.0
H3125 H 0.37084 0.8556 0.94527 0.0
H3126 H 0.27914 0.8436 0.92423 0.0
H3127 H 0.25427 0.83388 0.95158 0.0
C3128 C 0.33908 0.851 0.8861 0.0
C3129 C 0.37241 0.87727 0.88415 0.0
C3130 C 0.32461 0.84183 0.90176 0.0
C3131 C 0.34308 0.85873 0.91588 0.0
C3132 C 0.37669 0.88445 0.91392 0.0
C3133 C 0.39117 0.89357 0.89828 0.0
C3134 C 0.3312 0.84565 0.96218 0.0
C3135 C 0.2983 0.8397 0.96434 0.0
C3136 C 0.3454 0.85097 0.94646 0.0
C3137 C 0.32712 0.85058 0.9325 0.0
C3138 C 0.29388 0.84371 0.93464 0.0
C3139 C 0.27963 0.83829 0.95036 0.0
H3140 H 0.15828 0.50171 0.97206 0.0
H3141 H 0.17206 0.42339 0.95068 0.0
H3142 H 0.14987 0.51796 0.94469 0.0
H3143 H 0.16283 0.43905 0.92339 0.0
H3144 H 0.16809 0.48928 0.87477 0.0
H3145 H 0.18466 0.48088 0.90209 0.0
H3146 H 0.10738 0.49599 0.92376 0.0
H3147 H 0.09142 0.50519 0.89656 0.0
C3148 C 0.15971 0.48807 0.96152 0.0
C3149 C 0.16573 0.46115 0.96359 0.0
C3150 C 0.15466 0.49725 0.94582 0.0
C3151 C 0.15542 0.4797 0.93179 0.0
C3152 C 0.16245 0.45343 0.93385 0.0
C3153 C 0.16758 0.44431 0.94955 0.0
C3154 C 0.15486 0.49115 0.88539 0.0
C3155 C 0.12834 0.49781 0.88345 0.0
C3156 C 0.16423 0.48612 0.90106 0.0
C3157 C 0.14728 0.48756 0.91518 0.0
C3158 C 0.12134 0.49511 0.91323 0.0
C3159 C 0.11203 0.50022 0.89758 0.0
H3160 H 0.54444 0.68326 0.87568 0.0
H3161 H 0.47324 0.58561 0.8949 0.0
H3162 H 0.55447 0.70673 0.90318 0.0
H3163 H 0.48094 0.60939 0.92242 0.0
H3164 H 0.52875 0.65185 0.9721 0.0
H3165 H 0.5151 0.62811 0.94463 0.0
H3166 H 0.53863 0.72525 0.92525 0.0
H3167 H 0.55492 0.74926 0.95269 0.0
C3168 C 0.53033 0.66695 0.88581 0.0
C3169 C 0.50813 0.63258 0.88315 0.0
C3170 C 0.53586 0.68048 0.90167 0.0
C3171 C 0.51862 0.6602 0.91532 0.0
C3172 C 0.49548 0.62588 0.91246 0.0
C3173 C 0.49071 0.61217 0.89662 0.0
C3174 C 0.53083 0.66804 0.96194 0.0
C3175 C 0.54304 0.70244 0.96452 0.0
C3176 C 0.52272 0.65436 0.9461 0.0
C3177 C 0.52571 0.67454 0.93242 0.0
C3178 C 0.53678 0.70885 0.93523 0.0
C3179 C 0.54584 0.72269 0.95103 0.0
H3180 H 0.25254 0.44912 0.4523 0.0
H3181 H 0.34999 0.47499 0.47155 0.0
H3182 H 0.27647 0.46573 0.42485 0.0
H3183 H 0.37365 0.48903 0.44407 0.0
H3184 H 0.41605 0.53104 0.39451 0.0
H3185 H 0.39212 0.52364 0.42196 0.0
H3186 H 0.29497 0.44963 0.40274 0.0
H3187 H 0.31862 0.45932 0.37526 0.0
C3188 C 0.27911 0.45826 0.4506 0.0
C3189 C 0.2994 0.46082 0.46405 0.0
C3190 C 0.2929 0.46749 0.43481 0.0
C3191 C 0.32717 0.47856 0.43196 0.0
C3192 C 0.3474 0.4814 0.44559 0.0
C3193 C 0.33379 0.47308 0.46143 0.0
C3194 C 0.38949 0.51355 0.39621 0.0
C3195 C 0.3692 0.49581 0.38276 0.0
C3196 C 0.3757 0.50895 0.41201 0.0
C3197 C 0.34144 0.4857 0.41486 0.0
C3198 C 0.32121 0.46829 0.40123 0.0
C3199 C 0.33482 0.47363 0.38538 0.0
H3200 H 0.49915 0.91282 0.39727 0.0
H3201 H 0.51589 0.83657 0.37563 0.0
H3202 H 0.50857 0.89715 0.42452 0.0
H3203 H 0.52458 0.82035 0.40297 0.0
H3204 H 0.5815 0.83298 0.4518 0.0
H3205 H 0.56632 0.84252 0.42443 0.0
H3206 H 0.48646 0.85436 0.44537 0.0
H3207 H 0.50215 0.84558 0.47279 0.0
C3208 C 0.50436 0.89237 0.39834 0.0
C3209 C 0.50689 0.87607 0.38423 0.0
C3210 C 0.50962 0.88324 0.41401 0.0
C3211 C 0.51747 0.85752 0.416 0.0
C3212 C 0.5191 0.84061 0.40191 0.0
C3213 C 0.51388 0.84977 0.38622 0.0
C3214 C 0.56049 0.8373 0.45057 0.0
C3215 C 0.54318 0.83869 0.46453 0.0
C3216 C 0.55166 0.84262 0.43483 0.0
C3217 C 0.52524 0.84941 0.43264 0.0
C3218 C 0.5073 0.84978 0.44659 0.0
C3219 C 0.51617 0.84452 0.46233 0.0
H3220 H 0.15635 0.65652 0.47257 0.0
H3221 H 0.16861 0.74842 0.45166 0.0
H3222 H 0.14869 0.63254 0.44508 0.0
H3223 H 0.16013 0.72418 0.42423 0.0
H3224 H 0.09121 0.58725 0.39669 0.0
H3225 H 0.10641 0.61187 0.42402 0.0
H3226 H 0.18315 0.7053 0.40291 0.0
H3227 H 0.16736 0.68085 0.37545 0.0
C3228 C 0.15756 0.67168 0.46211 0.0
C3229 C 0.16295 0.70435 0.46434 0.0
C3230 C 0.15296 0.65784 0.44634 0.0
C3231 C 0.15355 0.6763 0.4324 0.0
C3232 C 0.1599 0.70934 0.43463 0.0
C3233 C 0.16459 0.72321 0.4504 0.0
C3234 C 0.11156 0.61295 0.39786 0.0
C3235 C 0.12794 0.6321 0.38385 0.0
C3236 C 0.12042 0.62705 0.41358 0.0
C3237 C 0.14596 0.66067 0.41572 0.0
C3238 C 0.16302 0.67952 0.40172 0.0
C3239 C 0.15411 0.66541 0.38597 0.0
loop_
_geom_bond_atom_site_label_1
_geom_bond_atom_site_label_2
_geom_bond_distance
_geom_bond_site_symmetry_2
_ccdc_geom_bond_type
Co0 N5 2.057 . S
Co0 O17 2.021 . S
Co0 O20 2.062 . S
Co0 O24 2.117 . S
Co0 O25 2.020 . S
C1 O21 1.259 . S
C1 O24 1.258 . S
Co2 N11 2.057 . S
Co2 O18 2.117 . S
Co2 O19 2.020 . S
Co2 O21 2.021 . S
Co2 O26 2.062 . S
C3 N5 1.318 . S
C3 N6 1.323 1_455 S
C3 H8 0.950 . S
C4 N5 1.375 1_655 S
C4 C7 1.350 . S
C4 H9 0.930 1_655 S
N5 Co0 2.057 . S
N5 C3 1.318 . S
N5 C4 1.375 1_455 S
N6 C3 1.323 1_655 S
N6 C7 1.373 . S
C7 C4 1.350 . S
C7 N6 1.373 . S
C7 H28 0.931 . S
H8 C3 0.950 . S
H9 C4 0.930 1_455 S
C10 O17 1.259 . S
C10 O18 1.258 . S
N11 Co2 2.057 . S
N11 C12 1.316 . S
N11 C13 1.375 . S
C12 N11 1.316 . S
C12 N14 1.347 . S
C12 H23 0.931 . S
C13 N11 1.375 . S
C13 C15 1.350 . S
C13 H22 0.930 . S
N14 C12 1.347 . S
N14 C15 1.373 . S
C15 C13 1.350 . S
C15 N14 1.373 . S
C15 H29 0.931 . S
C16 O19 1.256 . S
C16 O20 1.255 . S
O17 Co0 2.021 . S
O17 C10 1.259 . S
O18 Co2 2.117 . S
O18 C10 1.258 . S
O19 Co2 2.020 . S
O19 C16 1.256 . S
O20 Co0 2.062 . S
O20 C16 1.255 . S
O21 C1 1.259 . S
O21 Co2 2.021 . S
H22 C13 0.930 . S
H23 C12 0.931 . S
O24 Co0 2.117 . S
O24 C1 1.258 . S
O25 Co0 2.020 . S
O25 C27 1.256 . S
O26 Co2 2.062 . S
O26 C27 1.255 . S
C27 O25 1.256 . S
C27 O26 1.255 . S
H28 C7 0.931 . S
H29 C15 0.931 . S
Co30 N35 2.057 . S
Co30 O47 2.021 . S
Co30 O50 2.062 . S
Co30 O54 2.117 . S
Co30 O55 2.020 . S
C31 O51 1.259 . S
C31 O54 1.258 . S
Co32 N41 2.057 . S
Co32 O48 2.117 . S
Co32 O49 2.020 . S
Co32 O51 2.021 . S
Co32 O56 2.062 . S
C33 N35 1.316 . S
C33 N36 1.347 . S
C33 H38 0.931 . S
C34 N35 1.375 . S
C34 C37 1.350 . S
C34 H39 0.930 . S
N35 Co30 2.057 . S
N35 C33 1.316 . S
N35 C34 1.375 . S
N36 C33 1.347 . S
N36 C37 1.373 . S
C37 C34 1.350 . S
C37 N36 1.373 . S
C37 H58 0.931 . S
H38 C33 0.931 . S
H39 C34 0.930 . S
C40 O47 1.259 . S
C40 O48 1.258 . S
N41 Co32 2.057 . S
N41 C42 1.316 . S
N41 C43 1.375 . S
C42 N41 1.316 . S
C42 N44 1.347 . S
C42 H53 0.931 . S
C43 N41 1.375 . S
C43 C45 1.350 . S
C43 H52 0.930 . S
N44 C42 1.347 . S
N44 C45 1.373 . S
C45 C43 1.350 . S
C45 N44 1.373 . S
C45 H59 0.931 . S
C46 O49 1.256 . S
C46 O50 1.255 . S
O47 Co30 2.021 . S
O47 C40 1.259 . S
O48 Co32 2.117 . S
O48 C40 1.258 . S
O49 Co32 2.020 . S
O49 C46 1.256 . S
O50 Co30 2.062 . S
O50 C46 1.255 . S
O51 C31 1.259 . S
O51 Co32 2.021 . S
H52 C43 0.930 . S
H53 C42 0.931 . S
O54 Co30 2.117 . S
O54 C31 1.258 . S
O55 Co30 2.020 . S
O55 C57 1.256 . S
O56 Co32 2.062 . S
O56 C57 1.255 . S
C57 O55 1.256 . S
C57 O56 1.255 . S
H58 C37 0.931 . S
H59 C45 0.931 . S
Co60 N65 2.057 . S
Co60 O77 2.021 . S
Co60 O80 2.062 . S
Co60 O84 2.117 . S
Co60 O85 2.020 . S
C61 O81 1.259 . S
C61 O84 1.258 . S
Co62 N71 2.057 . S
Co62 O78 2.117 . S
Co62 O79 2.020 . S
Co62 O81 2.021 . S
Co62 O86 2.062 . S
C63 N65 1.338 . S
C63 N66 1.328 1_565 S
C63 H68 0.928 . S
C64 N65 1.375 1_545 S
C64 C67 1.350 . S
C64 H69 0.930 1_545 S
N65 Co60 2.057 . S
N65 C63 1.338 . S
N65 C64 1.375 1_565 S
N66 C63 1.328 1_545 S
N66 C67 1.373 . S
C67 C64 1.350 . S
C67 N66 1.373 . S
C67 H88 0.931 . S
H68 C63 0.928 . S
H69 C64 0.930 1_565 S
C70 O77 1.259 . S
C70 O78 1.258 . S
N71 Co62 2.057 . S
N71 C72 1.316 . S
N71 C73 1.375 . S
C72 N71 1.316 . S
C72 N74 1.347 . S
C72 H83 0.931 . S
C73 N71 1.375 . S
C73 C75 1.350 . S
C73 H82 0.930 . S
N74 C72 1.347 . S
N74 C75 1.373 . S
C75 C73 1.350 . S
C75 N74 1.373 . S
C75 H89 0.931 . S
C76 O79 1.256 . S
C76 O80 1.255 . S
O77 Co60 2.021 . S
O77 C70 1.259 . S
O78 Co62 2.117 . S
O78 C70 1.258 . S
O79 Co62 2.020 . S
O79 C76 1.256 . S
O80 Co60 2.062 . S
O80 C76 1.255 . S
O81 C61 1.259 . S
O81 Co62 2.021 . S
H82 C73 0.930 . S
H83 C72 0.931 . S
O84 Co60 2.117 . S
O84 C61 1.258 . S
O85 Co60 2.020 . S
O85 C87 1.256 . S
O86 Co62 2.062 . S
O86 C87 1.255 . S
C87 O85 1.256 . S
C87 O86 1.255 . S
H88 C67 0.931 . S
H89 C75 0.931 . S
Co90 N95 2.057 . S
Co90 O107 2.021 . S
Co90 O110 2.062 . S
Co90 O114 2.117 . S
Co90 O115 2.020 . S
C91 O111 1.259 . S
C91 O114 1.258 . S
Co92 N101 2.057 . S
Co92 O108 2.117 . S
Co92 O109 2.020 . S
Co92 O111 2.021 . S
Co92 O116 2.062 . S
C93 N95 1.318 . S
C93 N96 1.323 1_545 S
C93 H98 0.950 . S
C94 N95 1.375 1_565 S
C94 C97 1.350 . S
C94 H99 0.930 1_565 S
N95 Co90 2.057 . S
N95 C93 1.318 . S
N95 C94 1.375 1_545 S
N96 C93 1.323 1_565 S
N96 C97 1.373 . S
C97 C94 1.350 . S
C97 N96 1.373 . S
C97 H118 0.931 . S
H98 C93 0.950 . S
H99 C94 0.930 1_545 S
C100 O107 1.259 . S
C100 O108 1.258 . S
N101 Co92 2.057 . S
N101 C102 1.316 . S
N101 C103 1.375 . S
C102 N101 1.316 . S
C102 N104 1.347 . S
C102 H113 0.931 . S
C103 N101 1.375 . S
C103 C105 1.350 . S
C103 H112 0.930 . S
N104 C102 1.347 . S
N104 C105 1.373 . S
C105 C103 1.350 . S
C105 N104 1.373 . S
C105 H119 0.931 . S
C106 O109 1.256 . S
C106 O110 1.255 . S
O107 Co90 2.021 . S
O107 C100 1.259 . S
O108 Co92 2.117 . S
O108 C100 1.258 . S
O109 Co92 2.020 . S
O109 C106 1.256 . S
O110 Co90 2.062 . S
O110 C106 1.255 . S
O111 C91 1.259 . S
O111 Co92 2.021 . S
H112 C103 0.930 . S
H113 C102 0.931 . S
O114 Co90 2.117 . S
O114 C91 1.258 . S
O115 Co90 2.020 . S
O115 C117 1.256 . S
O116 Co92 2.062 . S
O116 C117 1.255 . S
C117 O115 1.256 . S
C117 O116 1.255 . S
H118 C97 0.931 . S
H119 C105 0.931 . S
Co120 N125 2.057 . S
Co120 O137 2.021 . S
Co120 O140 2.062 . S
Co120 O144 2.117 . S
Co120 O145 2.020 . S
C121 O141 1.259 . S
C121 O144 1.258 . S
Co122 N131 2.057 . S
Co122 O138 2.117 . S
Co122 O139 2.020 . S
Co122 O141 2.021 . S
Co122 O146 2.062 . S
C123 N125 1.338 . S
C123 N126 1.328 1_655 S
C123 H128 0.928 . S
C124 N125 1.375 1_455 S
C124 C127 1.350 . S
C124 H129 0.930 1_455 S
N125 Co120 2.057 . S
N125 C123 1.338 . S
N125 C124 1.375 1_655 S
N126 C123 1.328 1_455 S
N126 C127 1.373 . S
C127 C124 1.350 . S
C127 N126 1.373 . S
C127 H148 0.931 . S
H128 C123 0.928 . S
H129 C124 0.930 1_655 S
C130 O137 1.259 . S
C130 O138 1.258 . S
N131 Co122 2.057 . S
N131 C132 1.316 . S
N131 C133 1.375 . S
C132 N131 1.316 . S
C132 N134 1.347 . S
C132 H143 0.931 . S
C133 N131 1.375 . S
C133 C135 1.350 . S
C133 H142 0.930 . S
N134 C132 1.347 . S
N134 C135 1.373 . S
C135 C133 1.350 . S
C135 N134 1.373 . S
C135 H149 0.931 . S
C136 O139 1.256 . S
C136 O140 1.255 . S
O137 Co120 2.021 . S
O137 C130 1.259 . S
O138 Co122 2.117 . S
O138 C130 1.258 . S
O139 Co122 2.020 . S
O139 C136 1.256 . S
O140 Co120 2.062 . S
O140 C136 1.255 . S
O141 C121 1.259 . S
O141 Co122 2.021 . S
H142 C133 0.930 . S
H143 C132 0.931 . S
O144 Co120 2.117 . S
O144 C121 1.258 . S
O145 Co120 2.020 . S
O145 C147 1.256 . S
O146 Co122 2.062 . S
O146 C147 1.255 . S
C147 O145 1.256 . S
C147 O146 1.255 . S
H148 C127 0.931 . S
H149 C135 0.931 . S
Co150 N155 2.057 . S
Co150 O167 2.021 . S
Co150 O170 2.062 . S
Co150 O174 2.117 . S
Co150 O175 2.020 . S
C151 O171 1.259 . S
C151 O174 1.258 . S
Co152 N161 2.057 . S
Co152 O168 2.117 . S
Co152 O169 2.020 . S
Co152 O171 2.021 . S
Co152 O176 2.062 . S
C153 N155 1.316 . S
C153 N156 1.347 . S
C153 H158 0.931 . S
C154 N155 1.375 . S
C154 C157 1.350 . S
C154 H159 0.930 . S
N155 Co150 2.057 . S
N155 C153 1.316 . S
N155 C154 1.375 . S
N156 C153 1.347 . S
N156 C157 1.373 . S
C157 C154 1.350 . S
C157 N156 1.373 . S
C157 H178 0.931 . S
H158 C153 0.931 . S
H159 C154 0.930 . S
C160 O167 1.259 . S
C160 O168 1.258 . S
N161 Co152 2.057 . S
N161 C162 1.316 . S
N161 C163 1.375 . S
C162 N161 1.316 . S
C162 N164 1.347 . S
C162 H173 0.931 . S
C163 N161 1.375 . S
C163 C165 1.350 . S
C163 H172 0.930 . S
N164 C162 1.347 . S
N164 C165 1.373 . S
C165 C163 1.350 . S
C165 N164 1.373 . S
C165 H179 0.931 . S
C166 O169 1.256 . S
C166 O170 1.255 . S
O167 Co150 2.021 . S
O167 C160 1.259 . S
O168 Co152 2.117 . S
O168 C160 1.258 . S
O169 Co152 2.020 . S
O169 C166 1.256 . S
O170 Co150 2.062 . S
O170 C166 1.255 . S
O171 C151 1.259 . S
O171 Co152 2.021 . S
H172 C163 0.930 . S
H173 C162 0.931 . S
O174 Co150 2.117 . S
O174 C151 1.258 . S
O175 Co150 2.020 . S
O175 C177 1.256 . S
O176 Co152 2.062 . S
O176 C177 1.255 . S
C177 O175 1.256 . S
C177 O176 1.255 . S
H178 C157 0.931 . S
H179 C165 0.931 . S
Co180 N185 2.057 . S
Co180 O197 2.021 . S
Co180 O200 2.062 . S
Co180 O204 2.117 . S
Co180 O205 2.020 . S
C181 O201 1.259 . S
C181 O204 1.258 . S
Co182 N191 2.057 . S
Co182 O198 2.117 . S
Co182 O199 2.020 . S
Co182 O201 2.021 . S
Co182 O206 2.062 . S
C183 N185 1.316 . S
C183 N186 1.347 . S
C183 H188 0.931 . S
C184 N185 1.375 . S
C184 C187 1.350 . S
C184 H189 0.930 . S
N185 Co180 2.057 . S
N185 C183 1.316 . S
N185 C184 1.375 . S
N186 C183 1.347 . S
N186 C187 1.373 . S
C187 C184 1.350 . S
C187 N186 1.373 . S
C187 H208 0.931 . S
H188 C183 0.931 . S
H189 C184 0.930 . S
C190 O197 1.259 . S
C190 O198 1.258 . S
N191 Co182 2.057 . S
N191 C192 1.318 . S
N191 C193 1.375 1_655 S
C192 N191 1.318 . S
C192 N194 1.323 1_655 S
C192 H203 0.950 . S
C193 N191 1.375 1_455 S
C193 C195 1.350 . S
C193 H202 0.930 1_455 S
N194 C192 1.323 1_455 S
N194 C195 1.373 . S
C195 C193 1.350 . S
C195 N194 1.373 . S
C195 H209 0.931 . S
C196 O199 1.256 . S
C196 O200 1.255 . S
O197 Co180 2.021 . S
O197 C190 1.259 . S
O198 Co182 2.117 . S
O198 C190 1.258 . S
O199 Co182 2.020 . S
O199 C196 1.256 . S
O200 Co180 2.062 . S
O200 C196 1.255 . S
O201 C181 1.259 . S
O201 Co182 2.021 . S
H202 C193 0.930 1_655 S
H203 C192 0.950 . S
O204 Co180 2.117 . S
O204 C181 1.258 . S
O205 Co180 2.020 . S
O205 C207 1.256 . S
O206 Co182 2.062 . S
O206 C207 1.255 . S
C207 O205 1.256 . S
C207 O206 1.255 . S
H208 C187 0.931 . S
H209 C195 0.931 . S
Co210 N215 2.057 . S
Co210 O227 2.021 . S
Co210 O230 2.062 . S
Co210 O234 2.117 . S
Co210 O235 2.020 . S
C211 O231 1.259 . S
C211 O234 1.258 . S
Co212 N221 2.057 . S
Co212 O228 2.117 . S
Co212 O229 2.020 . S
Co212 O231 2.021 . S
Co212 O236 2.062 . S
C213 N215 1.316 . S
C213 N216 1.347 . S
C213 H218 0.931 . S
C214 N215 1.375 . S
C214 C217 1.350 . S
C214 H219 0.930 . S
N215 Co210 2.057 . S
N215 C213 1.316 . S
N215 C214 1.375 . S
N216 C213 1.347 . S
N216 C217 1.373 . S
C217 C214 1.350 . S
C217 N216 1.373 . S
C217 H238 0.931 . S
H218 C213 0.931 . S
H219 C214 0.930 . S
C220 O227 1.259 . S
C220 O228 1.258 . S
N221 Co212 2.057 . S
N221 C222 1.316 . S
N221 C223 1.375 . S
C222 N221 1.316 . S
C222 N224 1.347 . S
C222 H233 0.931 . S
C223 N221 1.375 . S
C223 C225 1.350 . S
C223 H232 0.930 . S
N224 C222 1.347 . S
N224 C225 1.373 . S
C225 C223 1.350 . S
C225 N224 1.373 . S
C225 H239 0.931 . S
C226 O229 1.256 . S
C226 O230 1.255 . S
O227 Co210 2.021 . S
O227 C220 1.259 . S
O228 Co212 2.117 . S
O228 C220 1.258 . S
O229 Co212 2.020 . S
O229 C226 1.256 . S
O230 Co210 2.062 . S
O230 C226 1.255 . S
O231 C211 1.259 . S
O231 Co212 2.021 . S
H232 C223 0.930 . S
H233 C222 0.931 . S
O234 Co210 2.117 . S
O234 C211 1.258 . S
O235 Co210 2.020 . S
O235 C237 1.256 . S
O236 Co212 2.062 . S
O236 C237 1.255 . S
C237 O235 1.256 . S
C237 O236 1.255 . S
H238 C217 0.931 . S
H239 C225 0.931 . S
Co240 N245 2.057 . S
Co240 O257 2.021 . S
Co240 O260 2.062 . S
Co240 O264 2.117 . S
Co240 O265 2.020 . S
C241 O261 1.259 . S
C241 O264 1.258 . S
Co242 N251 2.057 . S
Co242 O258 2.117 . S
Co242 O259 2.020 . S
Co242 O261 2.021 . S
Co242 O266 2.062 . S
C243 N245 1.316 . S
C243 N246 1.347 . S
C243 H248 0.931 . S
C244 N245 1.375 . S
C244 C247 1.350 . S
C244 H249 0.930 . S
N245 Co240 2.057 . S
N245 C243 1.316 . S
N245 C244 1.375 . S
N246 C243 1.347 . S
N246 C247 1.373 . S
C247 C244 1.350 . S
C247 N246 1.373 . S
C247 H268 0.931 . S
H248 C243 0.931 . S
H249 C244 0.930 . S
C250 O257 1.259 . S
C250 O258 1.258 . S
N251 Co242 2.057 . S
N251 C252 1.338 . S
N251 C253 1.375 1_545 S
C252 N251 1.338 . S
C252 N254 1.328 1_545 S
C252 H263 0.928 . S
C253 N251 1.375 1_565 S
C253 C255 1.350 . S
C253 H262 0.930 1_565 S
N254 C252 1.328 1_565 S
N254 C255 1.373 . S
C255 C253 1.350 . S
C255 N254 1.373 . S
C255 H269 0.931 . S
C256 O259 1.256 . S
C256 O260 1.255 . S
O257 Co240 2.021 . S
O257 C250 1.259 . S
O258 Co242 2.117 . S
O258 C250 1.258 . S
O259 Co242 2.020 . S
O259 C256 1.256 . S
O260 Co240 2.062 . S
O260 C256 1.255 . S
O261 C241 1.259 . S
O261 Co242 2.021 . S
H262 C253 0.930 1_545 S
H263 C252 0.928 . S
O264 Co240 2.117 . S
O264 C241 1.258 . S
O265 Co240 2.020 . S
O265 C267 1.256 . S
O266 Co242 2.062 . S
O266 C267 1.255 . S
C267 O265 1.256 . S
C267 O266 1.255 . S
H268 C247 0.931 . S
H269 C255 0.931 . S
Co270 N275 2.057 . S
Co270 O287 2.021 . S
Co270 O290 2.062 . S
Co270 O294 2.117 . S
Co270 O295 2.020 . S
C271 O291 1.259 . S
C271 O294 1.258 . S
Co272 N281 2.057 . S
Co272 O288 2.117 . S
Co272 O289 2.020 . S
Co272 O291 2.021 . S
Co272 O296 2.062 . S
C273 N275 1.316 . S
C273 N276 1.347 . S
C273 H278 0.931 . S
C274 N275 1.375 . S
C274 C277 1.350 . S
C274 H279 0.930 . S
N275 Co270 2.057 . S
N275 C273 1.316 . S
N275 C274 1.375 . S
N276 C273 1.347 . S
N276 C277 1.373 . S
C277 C274 1.350 . S
C277 N276 1.373 . S
C277 H298 0.931 . S
H278 C273 0.931 . S
H279 C274 0.930 . S
C280 O287 1.259 . S
C280 O288 1.258 . S
N281 Co272 2.057 . S
N281 C282 1.318 . S
N281 C283 1.375 1_565 S
C282 N281 1.318 . S
C282 N284 1.323 1_565 S
C282 H293 0.950 . S
C283 N281 1.375 1_545 S
C283 C285 1.350 . S
C283 H292 0.930 1_545 S
N284 C282 1.323 1_545 S
N284 C285 1.373 . S
C285 C283 1.350 . S
C285 N284 1.373 . S
C285 H299 0.931 . S
C286 O289 1.256 . S
C286 O290 1.255 . S
O287 Co270 2.021 . S
O287 C280 1.259 . S
O288 Co272 2.117 . S
O288 C280 1.258 . S
O289 Co272 2.020 . S
O289 C286 1.256 . S
O290 Co270 2.062 . S
O290 C286 1.255 . S
O291 C271 1.259 . S
O291 Co272 2.021 . S
H292 C283 0.930 1_565 S
H293 C282 0.950 . S
O294 Co270 2.117 . S
O294 C271 1.258 . S
O295 Co270 2.020 . S
O295 C297 1.256 . S
O296 Co272 2.062 . S
O296 C297 1.255 . S
C297 O295 1.256 . S
C297 O296 1.255 . S
H298 C277 0.931 . S
H299 C285 0.931 . S
Co300 N305 2.057 . S
Co300 O317 2.021 . S
Co300 O320 2.062 . S
Co300 O324 2.117 . S
Co300 O325 2.020 . S
C301 O321 1.259 . S
C301 O324 1.258 . S
Co302 N311 2.057 . S
Co302 O318 2.117 . S
Co302 O319 2.020 . S
Co302 O321 2.021 . S
Co302 O326 2.062 . S
C303 N305 1.316 . S
C303 N306 1.347 . S
C303 H308 0.931 . S
C304 N305 1.375 . S
C304 C307 1.350 . S
C304 H309 0.930 . S
N305 Co300 2.057 . S
N305 C303 1.316 . S
N305 C304 1.375 . S
N306 C303 1.347 . S
N306 C307 1.373 . S
C307 C304 1.350 . S
C307 N306 1.373 . S
C307 H328 0.931 . S
H308 C303 0.931 . S
H309 C304 0.930 . S
C310 O317 1.259 . S
C310 O318 1.258 . S
N311 Co302 2.057 . S
N311 C312 1.338 . S
N311 C313 1.375 1_455 S
C312 N311 1.338 . S
C312 N314 1.328 1_455 S
C312 H323 0.928 . S
C313 N311 1.375 1_655 S
C313 C315 1.350 . S
C313 H322 0.930 1_655 S
N314 C312 1.328 1_655 S
N314 C315 1.373 . S
C315 C313 1.350 . S
C315 N314 1.373 . S
C315 H329 0.931 . S
C316 O319 1.256 . S
C316 O320 1.255 . S
O317 Co300 2.021 . S
O317 C310 1.259 . S
O318 Co302 2.117 . S
O318 C310 1.258 . S
O319 Co302 2.020 . S
O319 C316 1.256 . S
O320 Co300 2.062 . S
O320 C316 1.255 . S
O321 C301 1.259 . S
O321 Co302 2.021 . S
H322 C313 0.930 1_455 S
H323 C312 0.928 . S
O324 Co300 2.117 . S
O324 C301 1.258 . S
O325 Co300 2.020 . S
O325 C327 1.256 . S
O326 Co302 2.062 . S
O326 C327 1.255 . S
C327 O325 1.256 . S
C327 O326 1.255 . S
H328 C307 0.931 . S
H329 C315 0.931 . S
Co330 N335 2.057 . S
Co330 O347 2.021 . S
Co330 O350 2.062 . S
Co330 O354 2.117 . S
Co330 O355 2.020 . S
C331 O351 1.259 . S
C331 O354 1.258 . S
Co332 N341 2.057 . S
Co332 O348 2.117 . S
Co332 O349 2.020 . S
Co332 O351 2.021 . S
Co332 O356 2.062 . S
C333 N335 1.316 . S
C333 N336 1.347 . S
C333 H338 0.931 . S
C334 N335 1.375 . S
C334 C337 1.350 . S
C334 H339 0.930 . S
N335 Co330 2.057 . S
N335 C333 1.316 . S
N335 C334 1.375 . S
N336 C333 1.347 . S
N336 C337 1.373 . S
C337 C334 1.350 . S
C337 N336 1.373 . S
C337 H358 0.931 . S
H338 C333 0.931 . S
H339 C334 0.930 . S
C340 O347 1.259 . S
C340 O348 1.258 . S
N341 Co332 2.057 . S
N341 C342 1.316 . S
N341 C343 1.375 . S
C342 N341 1.316 . S
C342 N344 1.347 . S
C342 H353 0.931 . S
C343 N341 1.375 . S
C343 C345 1.350 . S
C343 H352 0.930 . S
N344 C342 1.347 . S
N344 C345 1.373 . S
C345 C343 1.350 . S
C345 N344 1.373 . S
C345 H359 0.931 . S
C346 O349 1.256 . S
C346 O350 1.255 . S
O347 Co330 2.021 . S
O347 C340 1.259 . S
O348 Co332 2.117 . S
O348 C340 1.258 . S
O349 Co332 2.020 . S
O349 C346 1.256 . S
O350 Co330 2.062 . S
O350 C346 1.255 . S
O351 C331 1.259 . S
O351 Co332 2.021 . S
H352 C343 0.930 . S
H353 C342 0.931 . S
O354 Co330 2.117 . S
O354 C331 1.258 . S
O355 Co330 2.020 . S
O355 C357 1.256 . S
O356 Co332 2.062 . S
O356 C357 1.255 . S
C357 O355 1.256 . S
C357 O356 1.255 . S
H358 C337 0.931 . S
H359 C345 0.931 . S
Co360 N365 2.057 . S
Co360 O377 2.021 . S
Co360 O380 2.062 . S
Co360 O384 2.117 . S
Co360 O385 2.020 . S
C361 O381 1.259 . S
C361 O384 1.258 . S
Co362 N371 2.057 . S
Co362 O378 2.117 . S
Co362 O379 2.020 . S
Co362 O381 2.021 . S
Co362 O386 2.062 . S
C363 N365 1.316 . S
C363 N366 1.347 . S
C363 H368 0.931 . S
C364 N365 1.375 . S
C364 C367 1.350 . S
C364 H369 0.930 . S
N365 Co360 2.057 . S
N365 C363 1.316 . S
N365 C364 1.375 . S
N366 C363 1.347 . S
N366 C367 1.373 . S
C367 C364 1.350 . S
C367 N366 1.373 . S
C367 H388 0.931 . S
H368 C363 0.931 . S
H369 C364 0.930 . S
C370 O377 1.259 . S
C370 O378 1.258 . S
N371 Co362 2.057 . S
N371 C372 1.316 . S
N371 C373 1.375 . S
C372 N371 1.316 . S
C372 N374 1.347 . S
C372 H383 0.931 . S
C373 N371 1.375 . S
C373 C375 1.350 . S
C373 H382 0.930 . S
N374 C372 1.347 . S
N374 C375 1.373 . S
C375 C373 1.350 . S
C375 N374 1.373 . S
C375 H389 0.931 . S
C376 O379 1.256 . S
C376 O380 1.255 . S
O377 Co360 2.021 . S
O377 C370 1.259 . S
O378 Co362 2.117 . S
O378 C370 1.258 . S
O379 Co362 2.020 . S
O379 C376 1.256 . S
O380 Co360 2.062 . S
O380 C376 1.255 . S
O381 C361 1.259 . S
O381 Co362 2.021 . S
H382 C373 0.930 . S
H383 C372 0.931 . S
O384 Co360 2.117 . S
O384 C361 1.258 . S
O385 Co360 2.020 . S
O385 C387 1.256 . S
O386 Co362 2.062 . S
O386 C387 1.255 . S
C387 O385 1.256 . S
C387 O386 1.255 . S
H388 C367 0.931 . S
H389 C375 0.931 . S
Co390 N395 2.057 . S
Co390 O407 2.021 . S
Co390 O410 2.062 . S
Co390 O414 2.117 . S
Co390 O415 2.020 . S
C391 O411 1.259 . S
C391 O414 1.258 . S
Co392 N401 2.057 . S
Co392 O408 2.117 . S
Co392 O409 2.020 . S
Co392 O411 2.021 . S
Co392 O416 2.062 . S
C393 N395 1.316 . S
C393 N396 1.347 . S
C393 H398 0.931 . S
C394 N395 1.375 . S
C394 C397 1.350 . S
C394 H399 0.930 . S
N395 Co390 2.057 . S
N395 C393 1.316 . S
N395 C394 1.375 . S
N396 C393 1.347 . S
N396 C397 1.373 . S
C397 C394 1.350 . S
C397 N396 1.373 . S
C397 H418 0.931 . S
H398 C393 0.931 . S
H399 C394 0.930 . S
C400 O407 1.259 . S
C400 O408 1.258 . S
N401 Co392 2.057 . S
N401 C402 1.316 . S
N401 C403 1.375 . S
C402 N401 1.316 . S
C402 N404 1.347 . S
C402 H413 0.931 . S
C403 N401 1.375 . S
C403 C405 1.350 . S
C403 H412 0.930 . S
N404 C402 1.347 . S
N404 C405 1.373 . S
C405 C403 1.350 . S
C405 N404 1.373 . S
C405 H419 0.931 . S
C406 O409 1.256 . S
C406 O410 1.255 . S
O407 Co390 2.021 . S
O407 C400 1.259 . S
O408 Co392 2.117 . S
O408 C400 1.258 . S
O409 Co392 2.020 . S
O409 C406 1.256 . S
O410 Co390 2.062 . S
O410 C406 1.255 . S
O411 C391 1.259 . S
O411 Co392 2.021 . S
H412 C403 0.930 . S
H413 C402 0.931 . S
O414 Co390 2.117 . S
O414 C391 1.258 . S
O415 Co390 2.020 . S
O415 C417 1.256 . S
O416 Co392 2.062 . S
O416 C417 1.255 . S
C417 O415 1.256 . S
C417 O416 1.255 . S
H418 C397 0.931 . S
H419 C405 0.931 . S
Co420 N425 2.057 . S
Co420 O437 2.021 . S
Co420 O440 2.062 . S
Co420 O444 2.117 . S
Co420 O445 2.020 . S
C421 O441 1.259 . S
C421 O444 1.258 . S
Co422 N431 2.057 . S
Co422 O438 2.117 . S
Co422 O439 2.020 . S
Co422 O441 2.021 . S
Co422 O446 2.062 . S
C423 N425 1.316 . S
C423 N426 1.347 . S
C423 H428 0.931 . S
C424 N425 1.375 . S
C424 C427 1.350 . S
C424 H429 0.930 . S
N425 Co420 2.057 . S
N425 C423 1.316 . S
N425 C424 1.375 . S
N426 C423 1.347 . S
N426 C427 1.373 . S
C427 C424 1.350 . S
C427 N426 1.373 . S
C427 H448 0.931 . S
H428 C423 0.931 . S
H429 C424 0.930 . S
C430 O437 1.259 . S
C430 O438 1.258 . S
N431 Co422 2.057 . S
N431 C432 1.316 . S
N431 C433 1.375 . S
C432 N431 1.316 . S
C432 N434 1.347 . S
C432 H443 0.931 . S
C433 N431 1.375 . S
C433 C435 1.350 . S
C433 H442 0.930 . S
N434 C432 1.347 . S
N434 C435 1.373 . S
C435 C433 1.350 . S
C435 N434 1.373 . S
C435 H449 0.931 . S
C436 O439 1.256 . S
C436 O440 1.255 . S
O437 Co420 2.021 . S
O437 C430 1.259 . S
O438 Co422 2.117 . S
O438 C430 1.258 . S
O439 Co422 2.020 . S
O439 C436 1.256 . S
O440 Co420 2.062 . S
O440 C436 1.255 . S
O441 C421 1.259 . S
O441 Co422 2.021 . S
H442 C433 0.930 . S
H443 C432 0.931 . S
O444 Co420 2.117 . S
O444 C421 1.258 . S
O445 Co420 2.020 . S
O445 C447 1.256 . S
O446 Co422 2.062 . S
O446 C447 1.255 . S
C447 O445 1.256 . S
C447 O446 1.255 . S
H448 C427 0.931 . S
H449 C435 0.931 . S
Co450 N455 2.057 . S
Co450 O467 2.021 . S
Co450 O470 2.062 . S
Co450 O474 2.117 . S
Co450 O475 2.020 . S
C451 O471 1.259 . S
C451 O474 1.258 . S
Co452 N461 2.057 . S
Co452 O468 2.117 . S
Co452 O469 2.020 . S
Co452 O471 2.021 . S
Co452 O476 2.062 . S
C453 N455 1.316 . S
C453 N456 1.347 . S
C453 H458 0.931 . S
C454 N455 1.375 . S
C454 C457 1.350 . S
C454 H459 0.930 . S
N455 Co450 2.057 . S
N455 C453 1.316 . S
N455 C454 1.375 . S
N456 C453 1.347 . S
N456 C457 1.373 . S
C457 C454 1.350 . S
C457 N456 1.373 . S
C457 H478 0.931 . S
H458 C453 0.931 . S
H459 C454 0.930 . S
C460 O467 1.259 . S
C460 O468 1.258 . S
N461 Co452 2.057 . S
N461 C462 1.316 1_655 S
N461 C463 1.375 . S
C462 N461 1.316 1_455 S
C462 N464 1.347 . S
C462 H473 0.931 . S
C463 N461 1.375 . S
C463 C465 1.350 . S
C463 H472 0.930 . S
N464 C462 1.347 . S
N464 C465 1.373 1_455 S
C465 C463 1.350 . S
C465 N464 1.373 1_655 S
C465 H479 0.931 . S
C466 O469 1.256 . S
C466 O470 1.255 . S
O467 Co450 2.021 . S
O467 C460 1.259 . S
O468 Co452 2.117 . S
O468 C460 1.258 . S
O469 Co452 2.020 . S
O469 C466 1.256 . S
O470 Co450 2.062 . S
O470 C466 1.255 . S
O471 C451 1.259 . S
O471 Co452 2.021 . S
H472 C463 0.930 . S
H473 C462 0.931 . S
O474 Co450 2.117 . S
O474 C451 1.258 . S
O475 Co450 2.020 . S
O475 C477 1.256 . S
O476 Co452 2.062 . S
O476 C477 1.255 . S
C477 O475 1.256 . S
C477 O476 1.255 . S
H478 C457 0.931 . S
H479 C465 0.931 . S
Co480 N485 2.057 . S
Co480 O497 2.021 . S
Co480 O500 2.062 . S
Co480 O504 2.117 . S
Co480 O505 2.020 . S
C481 O501 1.259 . S
C481 O504 1.258 . S
Co482 N491 2.057 . S
Co482 O498 2.117 . S
Co482 O499 2.020 . S
Co482 O501 2.021 . S
Co482 O506 2.062 . S
C483 N485 1.316 . S
C483 N486 1.347 . S
C483 H488 0.931 . S
C484 N485 1.375 . S
C484 C487 1.350 . S
C484 H489 0.930 . S
N485 Co480 2.057 . S
N485 C483 1.316 . S
N485 C484 1.375 . S
N486 C483 1.347 . S
N486 C487 1.373 . S
C487 C484 1.350 . S
C487 N486 1.373 . S
C487 H508 0.931 . S
H488 C483 0.931 . S
H489 C484 0.930 . S
C490 O497 1.259 . S
C490 O498 1.258 . S
N491 Co482 2.057 . S
N491 C492 1.316 . S
N491 C493 1.375 . S
C492 N491 1.316 . S
C492 N494 1.347 . S
C492 H503 0.931 . S
C493 N491 1.375 . S
C493 C495 1.350 . S
C493 H502 0.930 . S
N494 C492 1.347 . S
N494 C495 1.373 . S
C495 C493 1.350 . S
C495 N494 1.373 . S
C495 H509 0.931 . S
C496 O499 1.256 . S
C496 O500 1.255 . S
O497 Co480 2.021 . S
O497 C490 1.259 . S
O498 Co482 2.117 . S
O498 C490 1.258 . S
O499 Co482 2.020 . S
O499 C496 1.256 . S
O500 Co480 2.062 . S
O500 C496 1.255 . S
O501 C481 1.259 . S
O501 Co482 2.021 . S
H502 C493 0.930 . S
H503 C492 0.931 . S
O504 Co480 2.117 . S
O504 C481 1.258 . S
O505 Co480 2.020 . S
O505 C507 1.256 . S
O506 Co482 2.062 . S
O506 C507 1.255 . S
C507 O505 1.256 . S
C507 O506 1.255 . S
H508 C487 0.931 . S
H509 C495 0.931 . S
Co510 N515 2.057 . S
Co510 O527 2.021 . S
Co510 O530 2.062 . S
Co510 O534 2.117 . S
Co510 O535 2.020 . S
C511 O531 1.259 . S
C511 O534 1.258 . S
Co512 N521 2.057 . S
Co512 O528 2.117 . S
Co512 O529 2.020 . S
Co512 O531 2.021 . S
Co512 O536 2.062 . S
C513 N515 1.316 . S
C513 N516 1.347 . S
C513 H518 0.931 . S
C514 N515 1.375 . S
C514 C517 1.350 . S
C514 H519 0.930 . S
N515 Co510 2.057 . S
N515 C513 1.316 . S
N515 C514 1.375 . S
N516 C513 1.347 . S
N516 C517 1.373 . S
C517 C514 1.350 . S
C517 N516 1.373 . S
C517 H538 0.931 . S
H518 C513 0.931 . S
H519 C514 0.930 . S
C520 O527 1.259 . S
C520 O528 1.258 . S
N521 Co512 2.057 . S
N521 C522 1.316 1_545 S
N521 C523 1.375 . S
C522 N521 1.316 1_565 S
C522 N524 1.347 . S
C522 H533 0.931 . S
C523 N521 1.375 . S
C523 C525 1.350 . S
C523 H532 0.930 . S
N524 C522 1.347 . S
N524 C525 1.373 1_565 S
C525 C523 1.350 . S
C525 N524 1.373 1_545 S
C525 H539 0.931 . S
C526 O529 1.256 . S
C526 O530 1.255 . S
O527 Co510 2.021 . S
O527 C520 1.259 . S
O528 Co512 2.117 . S
O528 C520 1.258 . S
O529 Co512 2.020 . S
O529 C526 1.256 . S
O530 Co510 2.062 . S
O530 C526 1.255 . S
O531 C511 1.259 . S
O531 Co512 2.021 . S
H532 C523 0.930 . S
H533 C522 0.931 . S
O534 Co510 2.117 . S
O534 C511 1.258 . S
O535 Co510 2.020 . S
O535 C537 1.256 . S
O536 Co512 2.062 . S
O536 C537 1.255 . S
C537 O535 1.256 . S
C537 O536 1.255 . S
H538 C517 0.931 . S
H539 C525 0.931 . S
Co540 N545 2.057 . S
Co540 O557 2.021 . S
Co540 O560 2.062 . S
Co540 O564 2.117 . S
Co540 O565 2.020 . S
C541 O561 1.259 . S
C541 O564 1.258 . S
Co542 N551 2.057 . S
Co542 O558 2.117 . S
Co542 O559 2.020 . S
Co542 O561 2.021 . S
Co542 O566 2.062 . S
C543 N545 1.316 1_565 S
C543 N546 1.347 . S
C543 H548 0.931 . S
C544 N545 1.375 . S
C544 C547 1.350 . S
C544 H549 0.930 . S
N545 Co540 2.057 . S
N545 C543 1.316 1_545 S
N545 C544 1.375 . S
N546 C543 1.347 . S
N546 C547 1.373 1_565 S
C547 C544 1.350 . S
C547 N546 1.373 1_545 S
C547 H568 0.931 . S
H548 C543 0.931 . S
H549 C544 0.930 . S
C550 O557 1.259 . S
C550 O558 1.258 . S
N551 Co542 2.057 . S
N551 C552 1.316 . S
N551 C553 1.375 . S
C552 N551 1.316 . S
C552 N554 1.347 . S
C552 H563 0.931 . S
C553 N551 1.375 . S
C553 C555 1.350 . S
C553 H562 0.930 . S
N554 C552 1.347 . S
N554 C555 1.373 . S
C555 C553 1.350 . S
C555 N554 1.373 . S
C555 H569 0.931 . S
C556 O559 1.256 . S
C556 O560 1.255 . S
O557 Co540 2.021 . S
O557 C550 1.259 . S
O558 Co542 2.117 . S
O558 C550 1.258 . S
O559 Co542 2.020 . S
O559 C556 1.256 . S
O560 Co540 2.062 . S
O560 C556 1.255 . S
O561 C541 1.259 . S
O561 Co542 2.021 . S
H562 C553 0.930 . S
H563 C552 0.931 . S
O564 Co540 2.117 . S
O564 C541 1.258 . S
O565 Co540 2.020 . S
O565 C567 1.256 . S
O566 Co542 2.062 . S
O566 C567 1.255 . S
C567 O565 1.256 . S
C567 O566 1.255 . S
H568 C547 0.931 . S
H569 C555 0.931 . S
Co570 N575 2.057 . S
Co570 O587 2.021 . S
Co570 O590 2.062 . S
Co570 O594 2.117 . S
Co570 O595 2.020 . S
C571 O591 1.259 . S
C571 O594 1.258 . S
Co572 N581 2.057 . S
Co572 O588 2.117 . S
Co572 O589 2.020 . S
Co572 O591 2.021 . S
Co572 O596 2.062 . S
C573 N575 1.316 1_455 S
C573 N576 1.347 . S
C573 H578 0.931 . S
C574 N575 1.375 . S
C574 C577 1.350 . S
C574 H579 0.930 . S
N575 Co570 2.057 . S
N575 C573 1.316 1_655 S
N575 C574 1.375 . S
N576 C573 1.347 . S
N576 C577 1.373 1_455 S
C577 C574 1.350 . S
C577 N576 1.373 1_655 S
C577 H598 0.931 . S
H578 C573 0.931 . S
H579 C574 0.930 . S
C580 O587 1.259 . S
C580 O588 1.258 . S
N581 Co572 2.057 . S
N581 C582 1.316 . S
N581 C583 1.375 . S
C582 N581 1.316 . S
C582 N584 1.347 . S
C582 H593 0.931 . S
C583 N581 1.375 . S
C583 C585 1.350 . S
C583 H592 0.930 . S
N584 C582 1.347 . S
N584 C585 1.373 . S
C585 C583 1.350 . S
C585 N584 1.373 . S
C585 H599 0.931 . S
C586 O589 1.256 . S
C586 O590 1.255 . S
O587 Co570 2.021 . S
O587 C580 1.259 . S
O588 Co572 2.117 . S
O588 C580 1.258 . S
O589 Co572 2.020 . S
O589 C586 1.256 . S
O590 Co570 2.062 . S
O590 C586 1.255 . S
O591 C571 1.259 . S
O591 Co572 2.021 . S
H592 C583 0.930 . S
H593 C582 0.931 . S
O594 Co570 2.117 . S
O594 C571 1.258 . S
O595 Co570 2.020 . S
O595 C597 1.256 . S
O596 Co572 2.062 . S
O596 C597 1.255 . S
C597 O595 1.256 . S
C597 O596 1.255 . S
H598 C577 0.931 . S
H599 C585 0.931 . S
Co600 N605 2.057 . S
Co600 O617 2.021 . S
Co600 O620 2.062 . S
Co600 O624 2.117 . S
Co600 O625 2.020 . S
C601 O621 1.259 . S
C601 O624 1.258 . S
Co602 N611 2.057 . S
Co602 O618 2.117 . S
Co602 O619 2.020 . S
Co602 O621 2.021 . S
Co602 O626 2.062 . S
C603 N605 1.316 . S
C603 N606 1.347 . S
C603 H608 0.931 . S
C604 N605 1.375 . S
C604 C607 1.350 . S
C604 H609 0.930 . S
N605 Co600 2.057 . S
N605 C603 1.316 . S
N605 C604 1.375 . S
N606 C603 1.347 . S
N606 C607 1.373 . S
C607 C604 1.350 . S
C607 N606 1.373 . S
C607 H628 0.931 . S
H608 C603 0.931 . S
H609 C604 0.930 . S
C610 O617 1.259 . S
C610 O618 1.258 . S
N611 Co602 2.057 . S
N611 C612 1.316 . S
N611 C613 1.375 . S
C612 N611 1.316 . S
C612 N614 1.347 . S
C612 H623 0.931 . S
C613 N611 1.375 . S
C613 C615 1.350 . S
C613 H622 0.930 . S
N614 C612 1.347 . S
N614 C615 1.373 . S
C615 C613 1.350 . S
C615 N614 1.373 . S
C615 H629 0.931 . S
C616 O619 1.256 . S
C616 O620 1.255 . S
O617 Co600 2.021 . S
O617 C610 1.259 . S
O618 Co602 2.117 . S
O618 C610 1.258 . S
O619 Co602 2.020 . S
O619 C616 1.256 . S
O620 Co600 2.062 . S
O620 C616 1.255 . S
O621 C601 1.259 . S
O621 Co602 2.021 . S
H622 C613 0.930 . S
H623 C612 0.931 . S
O624 Co600 2.117 . S
O624 C601 1.258 . S
O625 Co600 2.020 . S
O625 C627 1.256 . S
O626 Co602 2.062 . S
O626 C627 1.255 . S
C627 O625 1.256 . S
C627 O626 1.255 . S
H628 C607 0.931 . S
H629 C615 0.931 . S
Co630 N635 2.057 . S
Co630 O647 2.021 . S
Co630 O650 2.062 1_554 S
Co630 O654 2.123 . S
Co630 O655 2.020 . S
C631 O651 1.259 . S
C631 O654 1.251 1_556 S
Co632 N641 2.057 . S
Co632 O648 2.117 . S
Co632 O649 2.020 . S
Co632 O651 2.021 . S
Co632 O656 2.062 1_556 S
C633 N635 1.316 . S
C633 N636 1.347 . S
C633 H638 0.931 . S
C634 N635 1.375 . S
C634 C637 1.350 . S
C634 H639 0.930 . S
N635 Co630 2.057 . S
N635 C633 1.316 . S
N635 C634 1.375 . S
N636 C633 1.347 . S
N636 C637 1.373 . S
C637 C634 1.350 . S
C637 N636 1.373 . S
C637 H658 0.931 . S
H638 C633 0.931 . S
H639 C634 0.930 . S
C640 O647 1.259 . S
C640 O648 1.258 1_554 S
N641 Co632 2.057 . S
N641 C642 1.316 . S
N641 C643 1.375 . S
C642 N641 1.316 . S
C642 N644 1.347 . S
C642 H653 0.931 . S
C643 N641 1.375 . S
C643 C645 1.350 . S
C643 H652 0.930 . S
N644 C642 1.347 . S
N644 C645 1.373 . S
C645 C643 1.350 . S
C645 N644 1.373 . S
C645 H659 0.931 . S
C646 O649 1.256 . S
C646 O650 1.255 . S
O647 Co630 2.021 . S
O647 C640 1.259 . S
O648 Co632 2.117 . S
O648 C640 1.258 1_556 S
O649 Co632 2.020 . S
O649 C646 1.256 . S
O650 Co630 2.062 1_556 S
O650 C646 1.255 . S
O651 C631 1.259 . S
O651 Co632 2.021 . S
H652 C643 0.930 . S
H653 C642 0.931 . S
O654 Co630 2.123 . S
O654 C631 1.251 1_554 S
O655 Co630 2.020 . S
O655 C657 1.256 . S
O656 Co632 2.062 1_554 S
O656 C657 1.255 . S
C657 O655 1.256 . S
C657 O656 1.255 . S
H658 C637 0.931 . S
H659 C645 0.931 . S
Co660 N665 2.057 . S
Co660 O677 2.021 . S
Co660 O680 2.062 1_554 S
Co660 O684 2.123 . S
Co660 O685 2.020 . S
C661 O681 1.259 . S
C661 O684 1.251 1_556 S
Co662 N671 2.057 . S
Co662 O678 2.117 . S
Co662 O679 2.020 . S
Co662 O681 2.021 . S
Co662 O686 2.062 1_556 S
C663 N665 1.316 . S
C663 N666 1.347 . S
C663 H668 0.931 . S
C664 N665 1.375 . S
C664 C667 1.350 . S
C664 H669 0.930 . S
N665 Co660 2.057 . S
N665 C663 1.316 . S
N665 C664 1.375 . S
N666 C663 1.347 . S
N666 C667 1.373 . S
C667 C664 1.350 . S
C667 N666 1.373 . S
C667 H688 0.931 . S
H668 C663 0.931 . S
H669 C664 0.930 . S
C670 O677 1.259 . S
C670 O678 1.258 1_554 S
N671 Co662 2.057 . S
N671 C672 1.316 . S
N671 C673 1.375 . S
C672 N671 1.316 . S
C672 N674 1.347 . S
C672 H683 0.931 . S
C673 N671 1.375 . S
C673 C675 1.350 . S
C673 H682 0.930 . S
N674 C672 1.347 . S
N674 C675 1.373 . S
C675 C673 1.350 . S
C675 N674 1.373 . S
C675 H689 0.931 . S
C676 O679 1.256 . S
C676 O680 1.255 . S
O677 Co660 2.021 . S
O677 C670 1.259 . S
O678 Co662 2.117 . S
O678 C670 1.258 1_556 S
O679 Co662 2.020 . S
O679 C676 1.256 . S
O680 Co660 2.062 1_556 S
O680 C676 1.255 . S
O681 C661 1.259 . S
O681 Co662 2.021 . S
H682 C673 0.930 . S
H683 C672 0.931 . S
O684 Co660 2.123 . S
O684 C661 1.251 1_554 S
O685 Co660 2.020 . S
O685 C687 1.256 . S
O686 Co662 2.062 1_554 S
O686 C687 1.255 . S
C687 O685 1.256 . S
C687 O686 1.255 . S
H688 C667 0.931 . S
H689 C675 0.931 . S
Co690 N695 2.057 . S
Co690 O707 2.021 . S
Co690 O710 2.062 1_554 S
Co690 O714 2.123 . S
Co690 O715 2.020 . S
C691 O711 1.259 . S
C691 O714 1.251 1_556 S
Co692 N701 2.057 . S
Co692 O708 2.117 . S
Co692 O709 2.020 . S
Co692 O711 2.021 . S
Co692 O716 2.062 1_556 S
C693 N695 1.316 . S
C693 N696 1.347 . S
C693 H698 0.931 . S
C694 N695 1.375 . S
C694 C697 1.350 . S
C694 H699 0.930 . S
N695 Co690 2.057 . S
N695 C693 1.316 . S
N695 C694 1.375 . S
N696 C693 1.347 . S
N696 C697 1.373 . S
C697 C694 1.350 . S
C697 N696 1.373 . S
C697 H718 0.931 . S
H698 C693 0.931 . S
H699 C694 0.930 . S
C700 O707 1.259 . S
C700 O708 1.258 1_554 S
N701 Co692 2.057 . S
N701 C702 1.316 . S
N701 C703 1.375 . S
C702 N701 1.316 . S
C702 N704 1.347 . S
C702 H713 0.931 . S
C703 N701 1.375 . S
C703 C705 1.350 . S
C703 H712 0.930 . S
N704 C702 1.347 . S
N704 C705 1.373 . S
C705 C703 1.350 . S
C705 N704 1.373 . S
C705 H719 0.931 . S
C706 O709 1.256 . S
C706 O710 1.255 . S
O707 Co690 2.021 . S
O707 C700 1.259 . S
O708 Co692 2.117 . S
O708 C700 1.258 1_556 S
O709 Co692 2.020 . S
O709 C706 1.256 . S
O710 Co690 2.062 1_556 S
O710 C706 1.255 . S
O711 C691 1.259 . S
O711 Co692 2.021 . S
H712 C703 0.930 . S
H713 C702 0.931 . S
O714 Co690 2.123 . S
O714 C691 1.251 1_554 S
O715 Co690 2.020 . S
O715 C717 1.256 . S
O716 Co692 2.062 1_554 S
O716 C717 1.255 . S
C717 O715 1.256 . S
C717 O716 1.255 . S
H718 C697 0.931 . S
H719 C705 0.931 . S
Co720 N725 2.057 . S
Co720 O737 2.021 . S
Co720 O740 2.062 . S
Co720 O744 2.117 . S
Co720 O745 2.020 . S
C721 O741 1.259 . S
C721 O744 1.258 . S
Co722 N731 2.057 . S
Co722 O738 2.117 . S
Co722 O739 2.020 . S
Co722 O741 2.021 . S
Co722 O746 2.062 . S
C723 N725 1.316 . S
C723 N726 1.347 . S
C723 H728 0.931 . S
C724 N725 1.375 . S
C724 C727 1.350 . S
C724 H729 0.930 . S
N725 Co720 2.057 . S
N725 C723 1.316 . S
N725 C724 1.375 . S
N726 C723 1.347 . S
N726 C727 1.373 . S
C727 C724 1.350 . S
C727 N726 1.373 . S
C727 H748 0.931 . S
H728 C723 0.931 . S
H729 C724 0.930 . S
C730 O737 1.259 . S
C730 O738 1.258 . S
N731 Co722 2.057 . S
N731 C732 1.316 1_565 S
N731 C733 1.375 . S
C732 N731 1.316 1_545 S
C732 N734 1.347 . S
C732 H743 0.931 . S
C733 N731 1.375 . S
C733 C735 1.350 . S
C733 H742 0.930 . S
N734 C732 1.347 . S
N734 C735 1.373 1_545 S
C735 C733 1.350 . S
C735 N734 1.373 1_565 S
C735 H749 0.931 . S
C736 O739 1.256 . S
C736 O740 1.255 . S
O737 Co720 2.021 . S
O737 C730 1.259 . S
O738 Co722 2.117 . S
O738 C730 1.258 . S
O739 Co722 2.020 . S
O739 C736 1.256 . S
O740 Co720 2.062 . S
O740 C736 1.255 . S
O741 C721 1.259 . S
O741 Co722 2.021 . S
H742 C733 0.930 . S
H743 C732 0.931 . S
O744 Co720 2.117 . S
O744 C721 1.258 . S
O745 Co720 2.020 . S
O745 C747 1.256 . S
O746 Co722 2.062 . S
O746 C747 1.255 . S
C747 O745 1.256 . S
C747 O746 1.255 . S
H748 C727 0.931 . S
H749 C735 0.931 . S
Co750 N755 2.057 . S
Co750 O767 2.021 . S
Co750 O770 2.062 . S
Co750 O774 2.117 . S
Co750 O775 2.020 . S
C751 O771 1.259 . S
C751 O774 1.258 . S
Co752 N761 2.057 . S
Co752 O768 2.117 . S
Co752 O769 2.020 . S
Co752 O771 2.021 . S
Co752 O776 2.062 . S
C753 N755 1.316 . S
C753 N756 1.347 . S
C753 H758 0.931 . S
C754 N755 1.375 . S
C754 C757 1.350 . S
C754 H759 0.930 . S
N755 Co750 2.057 . S
N755 C753 1.316 . S
N755 C754 1.375 . S
N756 C753 1.347 . S
N756 C757 1.373 . S
C757 C754 1.350 . S
C757 N756 1.373 . S
C757 H778 0.931 . S
H758 C753 0.931 . S
H759 C754 0.930 . S
C760 O767 1.259 . S
C760 O768 1.258 . S
N761 Co752 2.057 . S
N761 C762 1.316 1_455 S
N761 C763 1.375 . S
C762 N761 1.316 1_655 S
C762 N764 1.347 . S
C762 H773 0.931 . S
C763 N761 1.375 . S
C763 C765 1.350 . S
C763 H772 0.930 . S
N764 C762 1.347 . S
N764 C765 1.373 1_655 S
C765 C763 1.350 . S
C765 N764 1.373 1_455 S
C765 H779 0.931 . S
C766 O769 1.256 . S
C766 O770 1.255 . S
O767 Co750 2.021 . S
O767 C760 1.259 . S
O768 Co752 2.117 . S
O768 C760 1.258 . S
O769 Co752 2.020 . S
O769 C766 1.256 . S
O770 Co750 2.062 . S
O770 C766 1.255 . S
O771 C751 1.259 . S
O771 Co752 2.021 . S
H772 C763 0.930 . S
H773 C762 0.931 . S
O774 Co750 2.117 . S
O774 C751 1.258 . S
O775 Co750 2.020 . S
O775 C777 1.256 . S
O776 Co752 2.062 . S
O776 C777 1.255 . S
C777 O775 1.256 . S
C777 O776 1.255 . S
H778 C757 0.931 . S
H779 C765 0.931 . S
Co780 N785 2.057 . S
Co780 O797 2.021 . S
Co780 O800 2.062 . S
Co780 O804 2.117 . S
Co780 O805 2.020 . S
C781 O801 1.259 . S
C781 O804 1.258 . S
Co782 N791 2.057 . S
Co782 O798 2.117 . S
Co782 O799 2.020 . S
Co782 O801 2.021 . S
Co782 O806 2.062 . S
C783 N785 1.316 . S
C783 N786 1.347 . S
C783 H788 0.931 . S
C784 N785 1.375 . S
C784 C787 1.350 . S
C784 H789 0.930 . S
N785 Co780 2.057 . S
N785 C783 1.316 . S
N785 C784 1.375 . S
N786 C783 1.347 . S
N786 C787 1.373 . S
C787 C784 1.350 . S
C787 N786 1.373 . S
C787 H808 0.931 . S
H788 C783 0.931 . S
H789 C784 0.930 . S
C790 O797 1.259 . S
C790 O798 1.258 . S
N791 Co782 2.057 . S
N791 C792 1.316 . S
N791 C793 1.375 . S
C792 N791 1.316 . S
C792 N794 1.347 . S
C792 H803 0.931 . S
C793 N791 1.375 . S
C793 C795 1.350 . S
C793 H802 0.930 . S
N794 C792 1.347 . S
N794 C795 1.373 . S
C795 C793 1.350 . S
C795 N794 1.373 . S
C795 H809 0.931 . S
C796 O799 1.256 . S
C796 O800 1.255 . S
O797 Co780 2.021 . S
O797 C790 1.259 . S
O798 Co782 2.117 . S
O798 C790 1.258 . S
O799 Co782 2.020 . S
O799 C796 1.256 . S
O800 Co780 2.062 . S
O800 C796 1.255 . S
O801 C781 1.259 . S
O801 Co782 2.021 . S
H802 C793 0.930 . S
H803 C792 0.931 . S
O804 Co780 2.117 . S
O804 C781 1.258 . S
O805 Co780 2.020 . S
O805 C807 1.256 . S
O806 Co782 2.062 . S
O806 C807 1.255 . S
C807 O805 1.256 . S
C807 O806 1.255 . S
H808 C787 0.931 . S
H809 C795 0.931 . S
Co810 N815 2.057 . S
Co810 O827 2.021 . S
Co810 O830 2.062 1_554 S
Co810 O834 2.117 . S
Co810 O835 2.020 . S
C811 O831 1.259 . S
C811 O834 1.258 1_556 S
Co812 N821 2.057 . S
Co812 O828 2.123 . S
Co812 O829 2.020 . S
Co812 O831 2.021 . S
Co812 O836 2.062 1_556 S
C813 N815 1.316 . S
C813 N816 1.347 . S
C813 H818 0.931 . S
C814 N815 1.375 . S
C814 C817 1.350 . S
C814 H819 0.930 . S
N815 Co810 2.057 . S
N815 C813 1.316 . S
N815 C814 1.375 . S
N816 C813 1.347 . S
N816 C817 1.373 . S
C817 C814 1.350 . S
C817 N816 1.373 . S
C817 H838 0.931 . S
H818 C813 0.931 . S
H819 C814 0.930 . S
C820 O827 1.259 . S
C820 O828 1.251 1_554 S
N821 Co812 2.057 . S
N821 C822 1.316 . S
N821 C823 1.375 . S
C822 N821 1.316 . S
C822 N824 1.347 . S
C822 H833 0.931 . S
C823 N821 1.375 . S
C823 C825 1.350 . S
C823 H832 0.930 . S
N824 C822 1.347 . S
N824 C825 1.373 . S
C825 C823 1.350 . S
C825 N824 1.373 . S
C825 H839 0.931 . S
C826 O829 1.256 . S
C826 O830 1.255 . S
O827 Co810 2.021 . S
O827 C820 1.259 . S
O828 Co812 2.123 . S
O828 C820 1.251 1_556 S
O829 Co812 2.020 . S
O829 C826 1.256 . S
O830 Co810 2.062 1_556 S
O830 C826 1.255 . S
O831 C811 1.259 . S
O831 Co812 2.021 . S
H832 C823 0.930 . S
H833 C822 0.931 . S
O834 Co810 2.117 . S
O834 C811 1.258 1_554 S
O835 Co810 2.020 . S
O835 C837 1.256 . S
O836 Co812 2.062 1_554 S
O836 C837 1.255 . S
C837 O835 1.256 . S
C837 O836 1.255 . S
H838 C817 0.931 . S
H839 C825 0.931 . S
Co840 N845 2.057 . S
Co840 O857 2.021 . S
Co840 O860 2.062 1_554 S
Co840 O864 2.117 . S
Co840 O865 2.020 . S
C841 O861 1.259 . S
C841 O864 1.258 1_556 S
Co842 N851 2.057 . S
Co842 O858 2.123 . S
Co842 O859 2.020 . S
Co842 O861 2.021 . S
Co842 O866 2.062 1_556 S
C843 N845 1.316 . S
C843 N846 1.347 . S
C843 H848 0.931 . S
C844 N845 1.375 . S
C844 C847 1.350 . S
C844 H849 0.930 . S
N845 Co840 2.057 . S
N845 C843 1.316 . S
N845 C844 1.375 . S
N846 C843 1.347 . S
N846 C847 1.373 . S
C847 C844 1.350 . S
C847 N846 1.373 . S
C847 H868 0.931 . S
H848 C843 0.931 . S
H849 C844 0.930 . S
C850 O857 1.259 . S
C850 O858 1.251 1_554 S
N851 Co842 2.057 . S
N851 C852 1.316 . S
N851 C853 1.375 . S
C852 N851 1.316 . S
C852 N854 1.347 . S
C852 H863 0.931 . S
C853 N851 1.375 . S
C853 C855 1.350 . S
C853 H862 0.930 . S
N854 C852 1.347 . S
N854 C855 1.373 . S
C855 C853 1.350 . S
C855 N854 1.373 . S
C855 H869 0.931 . S
C856 O859 1.256 . S
C856 O860 1.255 . S
O857 Co840 2.021 . S
O857 C850 1.259 . S
O858 Co842 2.123 . S
O858 C850 1.251 1_556 S
O859 Co842 2.020 . S
O859 C856 1.256 . S
O860 Co840 2.062 1_556 S
O860 C856 1.255 . S
O861 C841 1.259 . S
O861 Co842 2.021 . S
H862 C853 0.930 . S
H863 C852 0.931 . S
O864 Co840 2.117 . S
O864 C841 1.258 1_554 S
O865 Co840 2.020 . S
O865 C867 1.256 . S
O866 Co842 2.062 1_554 S
O866 C867 1.255 . S
C867 O865 1.256 . S
C867 O866 1.255 . S
H868 C847 0.931 . S
H869 C855 0.931 . S
Co870 N875 2.057 . S
Co870 O887 2.021 . S
Co870 O890 2.062 1_554 S
Co870 O894 2.117 . S
Co870 O895 2.020 . S
C871 O891 1.259 . S
C871 O894 1.258 1_556 S
Co872 N881 2.057 . S
Co872 O888 2.123 . S
Co872 O889 2.020 . S
Co872 O891 2.021 . S
Co872 O896 2.062 1_556 S
C873 N875 1.316 . S
C873 N876 1.347 . S
C873 H878 0.931 . S
C874 N875 1.375 . S
C874 C877 1.350 . S
C874 H879 0.930 . S
N875 Co870 2.057 . S
N875 C873 1.316 . S
N875 C874 1.375 . S
N876 C873 1.347 . S
N876 C877 1.373 . S
C877 C874 1.350 . S
C877 N876 1.373 . S
C877 H898 0.931 . S
H878 C873 0.931 . S
H879 C874 0.930 . S
C880 O887 1.259 . S
C880 O888 1.251 1_554 S
N881 Co872 2.057 . S
N881 C882 1.316 . S
N881 C883 1.375 . S
C882 N881 1.316 . S
C882 N884 1.347 . S
C882 H893 0.931 . S
C883 N881 1.375 . S
C883 C885 1.350 . S
C883 H892 0.930 . S
N884 C882 1.347 . S
N884 C885 1.373 . S
C885 C883 1.350 . S
C885 N884 1.373 . S
C885 H899 0.931 . S
C886 O889 1.256 . S
C886 O890 1.255 . S
O887 Co870 2.021 . S
O887 C880 1.259 . S
O888 Co872 2.123 . S
O888 C880 1.251 1_556 S
O889 Co872 2.020 . S
O889 C886 1.256 . S
O890 Co870 2.062 1_556 S
O890 C886 1.255 . S
O891 C871 1.259 . S
O891 Co872 2.021 . S
H892 C883 0.930 . S
H893 C882 0.931 . S
O894 Co870 2.117 . S
O894 C871 1.258 1_554 S
O895 Co870 2.020 . S
O895 C897 1.256 . S
O896 Co872 2.062 1_554 S
O896 C897 1.255 . S
C897 O895 1.256 . S
C897 O896 1.255 . S
H898 C877 0.931 . S
H899 C885 0.931 . S
Co900 N905 2.057 . S
Co900 O917 2.021 . S
Co900 O920 2.062 . S
Co900 O924 2.117 . S
Co900 O925 2.020 . S
C901 O921 1.259 . S
C901 O924 1.258 . S
Co902 N911 2.057 . S
Co902 O918 2.117 . S
Co902 O919 2.020 . S
Co902 O921 2.021 . S
Co902 O926 2.062 . S
C903 N905 1.316 . S
C903 N906 1.347 . S
C903 H908 0.931 . S
C904 N905 1.375 . S
C904 C907 1.350 . S
C904 H909 0.930 . S
N905 Co900 2.057 . S
N905 C903 1.316 . S
N905 C904 1.375 . S
N906 C903 1.347 . S
N906 C907 1.373 . S
C907 C904 1.350 . S
C907 N906 1.373 . S
C907 H928 0.931 . S
H908 C903 0.931 . S
H909 C904 0.930 . S
C910 O917 1.259 . S
C910 O918 1.258 . S
N911 Co902 2.057 . S
N911 C912 1.316 . S
N911 C913 1.375 . S
C912 N911 1.316 . S
C912 N914 1.347 . S
C912 H923 0.931 . S
C913 N911 1.375 . S
C913 C915 1.350 . S
C913 H922 0.930 . S
N914 C912 1.347 . S
N914 C915 1.373 . S
C915 C913 1.350 . S
C915 N914 1.373 . S
C915 H929 0.931 . S
C916 O919 1.256 . S
C916 O920 1.255 . S
O917 Co900 2.021 . S
O917 C910 1.259 . S
O918 Co902 2.117 . S
O918 C910 1.258 . S
O919 Co902 2.020 . S
O919 C916 1.256 . S
O920 Co900 2.062 . S
O920 C916 1.255 . S
O921 C901 1.259 . S
O921 Co902 2.021 . S
H922 C913 0.930 . S
H923 C912 0.931 . S
O924 Co900 2.117 . S
O924 C901 1.258 . S
O925 Co900 2.020 . S
O925 C927 1.256 . S
O926 Co902 2.062 . S
O926 C927 1.255 . S
C927 O925 1.256 . S
C927 O926 1.255 . S
H928 C907 0.931 . S
H929 C915 0.931 . S
Co930 N935 2.057 . S
Co930 O947 2.021 . S
Co930 O950 2.062 . S
Co930 O954 2.117 . S
Co930 O955 2.020 . S
C931 O951 1.259 . S
C931 O954 1.258 . S
Co932 N941 2.057 . S
Co932 O948 2.117 . S
Co932 O949 2.020 . S
Co932 O951 2.021 . S
Co932 O956 2.062 . S
C933 N935 1.316 . S
C933 N936 1.347 . S
C933 H938 0.931 . S
C934 N935 1.375 . S
C934 C937 1.350 . S
C934 H939 0.930 . S
N935 Co930 2.057 . S
N935 C933 1.316 . S
N935 C934 1.375 . S
N936 C933 1.347 . S
N936 C937 1.373 . S
C937 C934 1.350 . S
C937 N936 1.373 . S
C937 H958 0.931 . S
H938 C933 0.931 . S
H939 C934 0.930 . S
C940 O947 1.259 . S
C940 O948 1.258 . S
N941 Co932 2.057 . S
N941 C942 1.316 . S
N941 C943 1.375 . S
C942 N941 1.316 . S
C942 N944 1.347 . S
C942 H953 0.931 . S
C943 N941 1.375 . S
C943 C945 1.350 . S
C943 H952 0.930 . S
N944 C942 1.347 . S
N944 C945 1.373 . S
C945 C943 1.350 . S
C945 N944 1.373 . S
C945 H959 0.931 . S
C946 O949 1.256 . S
C946 O950 1.255 . S
O947 Co930 2.021 . S
O947 C940 1.259 . S
O948 Co932 2.117 . S
O948 C940 1.258 . S
O949 Co932 2.020 . S
O949 C946 1.256 . S
O950 Co930 2.062 . S
O950 C946 1.255 . S
O951 C931 1.259 . S
O951 Co932 2.021 . S
H952 C943 0.930 . S
H953 C942 0.931 . S
O954 Co930 2.117 . S
O954 C931 1.258 . S
O955 Co930 2.020 . S
O955 C957 1.256 . S
O956 Co932 2.062 . S
O956 C957 1.255 . S
C957 O955 1.256 . S
C957 O956 1.255 . S
H958 C937 0.931 . S
H959 C945 0.931 . S
Co960 N965 2.057 . S
Co960 O977 2.021 . S
Co960 O980 2.062 . S
Co960 O984 2.117 . S
Co960 O985 2.020 . S
C961 O981 1.259 . S
C961 O984 1.258 . S
Co962 N971 2.057 . S
Co962 O978 2.117 . S
Co962 O979 2.020 . S
Co962 O981 2.021 . S
Co962 O986 2.062 . S
C963 N965 1.316 . S
C963 N966 1.347 . S
C963 H968 0.931 . S
C964 N965 1.375 . S
C964 C967 1.350 . S
C964 H969 0.930 . S
N965 Co960 2.057 . S
N965 C963 1.316 . S
N965 C964 1.375 . S
N966 C963 1.347 . S
N966 C967 1.373 . S
C967 C964 1.350 . S
C967 N966 1.373 . S
C967 H988 0.931 . S
H968 C963 0.931 . S
H969 C964 0.930 . S
C970 O977 1.259 . S
C970 O978 1.258 . S
N971 Co962 2.057 . S
N971 C972 1.316 . S
N971 C973 1.375 . S
C972 N971 1.316 . S
C972 N974 1.347 . S
C972 H983 0.931 . S
C973 N971 1.375 . S
C973 C975 1.350 . S
C973 H982 0.930 . S
N974 C972 1.347 . S
N974 C975 1.373 . S
C975 C973 1.350 . S
C975 N974 1.373 . S
C975 H989 0.931 . S
C976 O979 1.256 . S
C976 O980 1.255 . S
O977 Co960 2.021 . S
O977 C970 1.259 . S
O978 Co962 2.117 . S
O978 C970 1.258 . S
O979 Co962 2.020 . S
O979 C976 1.256 . S
O980 Co960 2.062 . S
O980 C976 1.255 . S
O981 C961 1.259 . S
O981 Co962 2.021 . S
H982 C973 0.930 . S
H983 C972 0.931 . S
O984 Co960 2.117 . S
O984 C961 1.258 . S
O985 Co960 2.020 . S
O985 C987 1.256 . S
O986 Co962 2.062 . S
O986 C987 1.255 . S
C987 O985 1.256 . S
C987 O986 1.255 . S
H988 C967 0.931 . S
H989 C975 0.931 . S
Co990 N995 2.057 . S
Co990 O1007 2.021 . S
Co990 O1010 2.062 . S
Co990 O1014 2.117 . S
Co990 O1015 2.020 . S
C991 O1011 1.259 . S
C991 O1014 1.258 . S
Co992 N1001 2.057 . S
Co992 O1008 2.117 . S
Co992 O1009 2.020 . S
Co992 O1011 2.021 . S
Co992 O1016 2.062 . S
C993 N995 1.316 1_655 S
C993 N996 1.347 . S
C993 H998 0.931 . S
C994 N995 1.375 . S
C994 C997 1.350 . S
C994 H999 0.930 . S
N995 Co990 2.057 . S
N995 C993 1.316 1_455 S
N995 C994 1.375 . S
N996 C993 1.347 . S
N996 C997 1.373 1_655 S
C997 C994 1.350 . S
C997 N996 1.373 1_455 S
C997 H1018 0.931 . S
H998 C993 0.931 . S
H999 C994 0.930 . S
C1000 O1007 1.259 . S
C1000 O1008 1.258 . S
N1001 Co992 2.057 . S
N1001 C1002 1.316 . S
N1001 C1003 1.375 . S
C1002 N1001 1.316 . S
C1002 N1004 1.347 . S
C1002 H1013 0.931 . S
C1003 N1001 1.375 . S
C1003 C1005 1.350 . S
C1003 H1012 0.930 . S
N1004 C1002 1.347 . S
N1004 C1005 1.373 . S
C1005 C1003 1.350 . S
C1005 N1004 1.373 . S
C1005 H1019 0.931 . S
C1006 O1009 1.256 . S
C1006 O1010 1.255 . S
O1007 Co990 2.021 . S
O1007 C1000 1.259 . S
O1008 Co992 2.117 . S
O1008 C1000 1.258 . S
O1009 Co992 2.020 . S
O1009 C1006 1.256 . S
O1010 Co990 2.062 . S
O1010 C1006 1.255 . S
O1011 C991 1.259 . S
O1011 Co992 2.021 . S
H1012 C1003 0.930 . S
H1013 C1002 0.931 . S
O1014 Co990 2.117 . S
O1014 C991 1.258 . S
O1015 Co990 2.020 . S
O1015 C1017 1.256 . S
O1016 Co992 2.062 . S
O1016 C1017 1.255 . S
C1017 O1015 1.256 . S
C1017 O1016 1.255 . S
H1018 C997 0.931 . S
H1019 C1005 0.931 . S
Co1020 N1025 2.057 . S
Co1020 O1037 2.021 . S
Co1020 O1040 2.062 . S
Co1020 O1044 2.117 . S
Co1020 O1045 2.020 . S
C1021 O1041 1.259 . S
C1021 O1044 1.258 . S
Co1022 N1031 2.057 . S
Co1022 O1038 2.117 . S
Co1022 O1039 2.020 . S
Co1022 O1041 2.021 . S
Co1022 O1046 2.062 . S
C1023 N1025 1.316 . S
C1023 N1026 1.347 . S
C1023 H1028 0.931 . S
C1024 N1025 1.375 . S
C1024 C1027 1.350 . S
C1024 H1029 0.930 . S
N1025 Co1020 2.057 . S
N1025 C1023 1.316 . S
N1025 C1024 1.375 . S
N1026 C1023 1.347 . S
N1026 C1027 1.373 . S
C1027 C1024 1.350 . S
C1027 N1026 1.373 . S
C1027 H1048 0.931 . S
H1028 C1023 0.931 . S
H1029 C1024 0.930 . S
C1030 O1037 1.259 . S
C1030 O1038 1.258 . S
N1031 Co1022 2.057 . S
N1031 C1032 1.316 . S
N1031 C1033 1.375 . S
C1032 N1031 1.316 . S
C1032 N1034 1.347 . S
C1032 H1043 0.931 . S
C1033 N1031 1.375 . S
C1033 C1035 1.350 . S
C1033 H1042 0.930 . S
N1034 C1032 1.347 . S
N1034 C1035 1.373 . S
C1035 C1033 1.350 . S
C1035 N1034 1.373 . S
C1035 H1049 0.931 . S
C1036 O1039 1.256 . S
C1036 O1040 1.255 . S
O1037 Co1020 2.021 . S
O1037 C1030 1.259 . S
O1038 Co1022 2.117 . S
O1038 C1030 1.258 . S
O1039 Co1022 2.020 . S
O1039 C1036 1.256 . S
O1040 Co1020 2.062 . S
O1040 C1036 1.255 . S
O1041 C1021 1.259 . S
O1041 Co1022 2.021 . S
H1042 C1033 0.930 . S
H1043 C1032 0.931 . S
O1044 Co1020 2.117 . S
O1044 C1021 1.258 . S
O1045 Co1020 2.020 . S
O1045 C1047 1.256 . S
O1046 Co1022 2.062 . S
O1046 C1047 1.255 . S
C1047 O1045 1.256 . S
C1047 O1046 1.255 . S
H1048 C1027 0.931 . S
H1049 C1035 0.931 . S
Co1050 N1055 2.057 . S
Co1050 O1067 2.021 . S
Co1050 O1070 2.062 . S
Co1050 O1074 2.117 . S
Co1050 O1075 2.020 . S
C1051 O1071 1.259 . S
C1051 O1074 1.258 . S
Co1052 N1061 2.057 . S
Co1052 O1068 2.117 . S
Co1052 O1069 2.020 . S
Co1052 O1071 2.021 . S
Co1052 O1076 2.062 . S
C1053 N1055 1.316 1_545 S
C1053 N1056 1.347 . S
C1053 H1058 0.931 . S
C1054 N1055 1.375 . S
C1054 C1057 1.350 . S
C1054 H1059 0.930 . S
N1055 Co1050 2.057 . S
N1055 C1053 1.316 1_565 S
N1055 C1054 1.375 . S
N1056 C1053 1.347 . S
N1056 C1057 1.373 1_545 S
C1057 C1054 1.350 . S
C1057 N1056 1.373 1_565 S
C1057 H1078 0.931 . S
H1058 C1053 0.931 . S
H1059 C1054 0.930 . S
C1060 O1067 1.259 . S
C1060 O1068 1.258 . S
N1061 Co1052 2.057 . S
N1061 C1062 1.316 . S
N1061 C1063 1.375 . S
C1062 N1061 1.316 . S
C1062 N1064 1.347 . S
C1062 H1073 0.931 . S
C1063 N1061 1.375 . S
C1063 C1065 1.350 . S
C1063 H1072 0.930 . S
N1064 C1062 1.347 . S
N1064 C1065 1.373 . S
C1065 C1063 1.350 . S
C1065 N1064 1.373 . S
C1065 H1079 0.931 . S
C1066 O1069 1.256 . S
C1066 O1070 1.255 . S
O1067 Co1050 2.021 . S
O1067 C1060 1.259 . S
O1068 Co1052 2.117 . S
O1068 C1060 1.258 . S
O1069 Co1052 2.020 . S
O1069 C1066 1.256 . S
O1070 Co1050 2.062 . S
O1070 C1066 1.255 . S
O1071 C1051 1.259 . S
O1071 Co1052 2.021 . S
H1072 C1063 0.930 . S
H1073 C1062 0.931 . S
O1074 Co1050 2.117 . S
O1074 C1051 1.258 . S
O1075 Co1050 2.020 . S
O1075 C1077 1.256 . S
O1076 Co1052 2.062 . S
O1076 C1077 1.255 . S
C1077 O1075 1.256 . S
C1077 O1076 1.255 . S
H1078 C1057 0.931 . S
H1079 C1065 0.931 . S
H1080 C1088 0.950 . S
H1081 C1093 0.950 . S
H1082 C1090 0.950 . S
H1083 C1092 0.950 . S
H1084 C1094 0.950 . S
H1085 C1096 0.950 . S
H1086 C1098 0.950 . S
H1087 C1099 0.950 . S
C1088 H1080 0.950 . S
C1088 C1089 1.386 . S
C1088 C1090 1.391 . S
C1089 C1088 1.386 . S
C1089 C1093 1.393 . S
C1090 H1082 0.950 . S
C1090 C1088 1.391 . S
C1090 C1091 1.400 . S
C1091 C1090 1.400 . S
C1091 C1092 1.398 . S
C1091 C1097 1.491 . S
C1092 H1083 0.950 . S
C1092 C1091 1.398 . S
C1092 C1093 1.391 . S
C1093 H1081 0.950 . S
C1093 C1089 1.393 . S
C1093 C1092 1.391 . S
C1094 H1084 0.950 . S
C1094 C1095 1.386 . S
C1094 C1096 1.391 . S
C1095 C1094 1.386 . S
C1095 C1099 1.393 . S
C1096 H1085 0.950 . S
C1096 C1094 1.391 . S
C1096 C1097 1.400 . S
C1097 C1091 1.491 . S
C1097 C1096 1.400 . S
C1097 C1098 1.398 . S
C1098 H1086 0.950 . S
C1098 C1097 1.398 . S
C1098 C1099 1.391 . S
C1099 H1087 0.950 . S
C1099 C1095 1.393 . S
C1099 C1098 1.391 . S
H1100 C1108 0.950 . S
H1101 C1113 0.950 . S
H1102 C1110 0.950 . S
H1103 C1112 0.950 . S
H1104 C1114 0.950 . S
H1105 C1116 0.950 . S
H1106 C1118 0.950 . S
H1107 C1119 0.950 . S
C1108 H1100 0.950 . S
C1108 C1109 1.386 . S
C1108 C1110 1.391 . S
C1109 C1108 1.386 . S
C1109 C1113 1.393 . S
C1110 H1102 0.950 . S
C1110 C1108 1.391 . S
C1110 C1111 1.400 . S
C1111 C1110 1.400 . S
C1111 C1112 1.398 . S
C1111 C1117 1.491 . S
C1112 H1103 0.950 . S
C1112 C1111 1.398 . S
C1112 C1113 1.391 . S
C1113 H1101 0.950 . S
C1113 C1109 1.393 . S
C1113 C1112 1.391 . S
C1114 H1104 0.950 . S
C1114 C1115 1.386 . S
C1114 C1116 1.391 . S
C1115 C1114 1.386 . S
C1115 C1119 1.393 . S
C1116 H1105 0.950 . S
C1116 C1114 1.391 . S
C1116 C1117 1.400 1_565 S
C1117 C1111 1.491 . S
C1117 C1116 1.400 1_545 S
C1117 C1118 1.398 . S
C1118 H1106 0.950 . S
C1118 C1117 1.398 . S
C1118 C1119 1.391 1_545 S
C1119 H1107 0.950 . S
C1119 C1115 1.393 . S
C1119 C1118 1.391 1_565 S
H1120 C1128 0.950 . S
H1121 C1133 0.950 . S
H1122 C1130 0.950 . S
H1123 C1132 0.950 . S
H1124 C1134 0.950 . S
H1125 C1136 0.950 . S
H1126 C1138 0.950 . S
H1127 C1139 0.950 . S
C1128 H1120 0.950 . S
C1128 C1129 1.386 . S
C1128 C1130 1.391 1_455 S
C1129 C1128 1.386 . S
C1129 C1133 1.393 . S
C1130 H1122 0.950 . S
C1130 C1128 1.391 1_655 S
C1130 C1131 1.400 . S
C1131 C1130 1.400 . S
C1131 C1132 1.398 1_655 S
C1131 C1137 1.491 . S
C1132 H1123 0.950 . S
C1132 C1131 1.398 1_455 S
C1132 C1133 1.391 . S
C1133 H1121 0.950 . S
C1133 C1129 1.393 . S
C1133 C1132 1.391 . S
C1134 H1124 0.950 . S
C1134 C1135 1.386 . S
C1134 C1136 1.391 . S
C1135 C1134 1.386 . S
C1135 C1139 1.393 . S
C1136 H1125 0.950 . S
C1136 C1134 1.391 . S
C1136 C1137 1.400 . S
C1137 C1131 1.491 . S
C1137 C1136 1.400 . S
C1137 C1138 1.398 . S
C1138 H1126 0.950 . S
C1138 C1137 1.398 . S
C1138 C1139 1.391 . S
C1139 H1127 0.950 . S
C1139 C1135 1.393 . S
C1139 C1138 1.391 . S
H1140 C1148 0.950 . S
H1141 C1153 0.950 . S
H1142 C1150 0.950 . S
H1143 C1152 0.950 . S
H1144 C1154 0.950 . S
H1145 C1156 0.950 . S
H1146 C1158 0.950 . S
H1147 C1159 0.950 . S
C1148 H1140 0.950 . S
C1148 C1149 1.386 . S
C1148 C1150 1.391 . S
C1149 C1148 1.386 . S
C1149 C1153 1.393 . S
C1150 H1142 0.950 . S
C1150 C1148 1.391 . S
C1150 C1151 1.400 . S
C1151 C1150 1.400 . S
C1151 C1152 1.398 . S
C1151 C1157 1.491 . S
C1152 H1143 0.950 . S
C1152 C1151 1.398 . S
C1152 C1153 1.391 . S
C1153 H1141 0.950 . S
C1153 C1149 1.393 . S
C1153 C1152 1.391 . S
C1154 H1144 0.950 . S
C1154 C1155 1.386 . S
C1154 C1156 1.391 . S
C1155 C1154 1.386 . S
C1155 C1159 1.393 . S
C1156 H1145 0.950 . S
C1156 C1154 1.391 . S
C1156 C1157 1.400 . S
C1157 C1151 1.491 . S
C1157 C1156 1.400 . S
C1157 C1158 1.398 . S
C1158 H1146 0.950 . S
C1158 C1157 1.398 . S
C1158 C1159 1.391 . S
C1159 H1147 0.950 . S
C1159 C1155 1.393 . S
C1159 C1158 1.391 . S
H1160 C1168 0.950 . S
H1161 C1173 0.950 . S
H1162 C1170 0.950 . S
H1163 C1172 0.950 . S
H1164 C1174 0.950 . S
H1165 C1176 0.950 . S
H1166 C1178 0.950 . S
H1167 C1179 0.950 . S
C1168 H1160 0.950 . S
C1168 C1169 1.386 . S
C1168 C1170 1.391 . S
C1169 C1168 1.386 . S
C1169 C1173 1.393 . S
C1170 H1162 0.950 . S
C1170 C1168 1.391 . S
C1170 C1171 1.400 . S
C1171 C1170 1.400 . S
C1171 C1172 1.398 . S
C1171 C1177 1.491 . S
C1172 H1163 0.950 . S
C1172 C1171 1.398 . S
C1172 C1173 1.391 . S
C1173 H1161 0.950 . S
C1173 C1169 1.393 . S
C1173 C1172 1.391 . S
C1174 H1164 0.950 . S
C1174 C1175 1.386 . S
C1174 C1176 1.391 1_545 S
C1175 C1174 1.386 . S
C1175 C1179 1.393 . S
C1176 H1165 0.950 . S
C1176 C1174 1.391 1_565 S
C1176 C1177 1.400 . S
C1177 C1171 1.491 . S
C1177 C1176 1.400 . S
C1177 C1178 1.398 1_565 S
C1178 H1166 0.950 . S
C1178 C1177 1.398 1_545 S
C1178 C1179 1.391 . S
C1179 H1167 0.950 . S
C1179 C1175 1.393 . S
C1179 C1178 1.391 . S
H1180 C1188 0.950 . S
H1181 C1193 0.950 . S
H1182 C1190 0.950 . S
H1183 C1192 0.950 . S
H1184 C1194 0.950 . S
H1185 C1196 0.950 . S
H1186 C1198 0.950 . S
H1187 C1199 0.950 . S
C1188 H1180 0.950 . S
C1188 C1189 1.386 . S
C1188 C1190 1.391 1_655 S
C1189 C1188 1.386 . S
C1189 C1193 1.393 . S
C1190 H1182 0.950 . S
C1190 C1188 1.391 1_455 S
C1190 C1191 1.400 . S
C1191 C1190 1.400 . S
C1191 C1192 1.398 1_455 S
C1191 C1197 1.491 . S
C1192 H1183 0.950 . S
C1192 C1191 1.398 1_655 S
C1192 C1193 1.391 . S
C1193 H1181 0.950 . S
C1193 C1189 1.393 . S
C1193 C1192 1.391 . S
C1194 H1184 0.950 . S
C1194 C1195 1.386 . S
C1194 C1196 1.391 . S
C1195 C1194 1.386 . S
C1195 C1199 1.393 . S
C1196 H1185 0.950 . S
C1196 C1194 1.391 . S
C1196 C1197 1.400 . S
C1197 C1191 1.491 . S
C1197 C1196 1.400 . S
C1197 C1198 1.398 . S
C1198 H1186 0.950 . S
C1198 C1197 1.398 . S
C1198 C1199 1.391 . S
C1199 H1187 0.950 . S
C1199 C1195 1.393 . S
C1199 C1198 1.391 . S
H1200 C1208 0.950 . S
H1201 C1213 0.950 . S
H1202 C1210 0.950 . S
H1203 C1212 0.950 . S
H1204 C1214 0.950 . S
H1205 C1216 0.950 . S
H1206 C1218 0.950 . S
H1207 C1219 0.950 . S
C1208 H1200 0.950 . S
C1208 C1209 1.386 . S
C1208 C1210 1.391 . S
C1209 C1208 1.386 . S
C1209 C1213 1.393 . S
C1210 H1202 0.950 . S
C1210 C1208 1.391 . S
C1210 C1211 1.400 . S
C1211 C1210 1.400 . S
C1211 C1212 1.398 . S
C1211 C1217 1.491 . S
C1212 H1203 0.950 . S
C1212 C1211 1.398 . S
C1212 C1213 1.391 . S
C1213 H1201 0.950 . S
C1213 C1209 1.393 . S
C1213 C1212 1.391 . S
C1214 H1204 0.950 . S
C1214 C1215 1.386 . S
C1214 C1216 1.391 . S
C1215 C1214 1.386 . S
C1215 C1219 1.393 . S
C1216 H1205 0.950 . S
C1216 C1214 1.391 . S
C1216 C1217 1.400 . S
C1217 C1211 1.491 . S
C1217 C1216 1.400 . S
C1217 C1218 1.398 . S
C1218 H1206 0.950 . S
C1218 C1217 1.398 . S
C1218 C1219 1.391 . S
C1219 H1207 0.950 . S
C1219 C1215 1.393 . S
C1219 C1218 1.391 . S
H1220 C1228 0.950 . S
H1221 C1233 0.950 . S
H1222 C1230 0.950 1_565 S
H1223 C1232 0.950 1_565 S
H1224 C1234 0.950 . S
H1225 C1236 0.950 . S
H1226 C1238 0.950 . S
H1227 C1239 0.950 . S
C1228 H1220 0.950 . S
C1228 C1229 1.386 . S
C1228 C1230 1.391 . S
C1229 C1228 1.386 . S
C1229 C1233 1.393 . S
C1230 H1222 0.950 1_545 S
C1230 C1228 1.391 . S
C1230 C1231 1.400 1_545 S
C1231 C1230 1.400 1_565 S
C1231 C1232 1.398 1_565 S
C1231 C1237 1.491 . S
C1232 H1223 0.950 1_545 S
C1232 C1231 1.398 1_545 S
C1232 C1233 1.391 . S
C1233 H1221 0.950 . S
C1233 C1229 1.393 . S
C1233 C1232 1.391 . S
C1234 H1224 0.950 . S
C1234 C1235 1.386 . S
C1234 C1236 1.391 . S
C1235 C1234 1.386 . S
C1235 C1239 1.393 . S
C1236 H1225 0.950 . S
C1236 C1234 1.391 . S
C1236 C1237 1.400 . S
C1237 C1231 1.491 . S
C1237 C1236 1.400 . S
C1237 C1238 1.398 . S
C1238 H1226 0.950 . S
C1238 C1237 1.398 . S
C1238 C1239 1.391 . S
C1239 H1227 0.950 . S
C1239 C1235 1.393 . S
C1239 C1238 1.391 . S
H1240 C1248 0.950 . S
H1241 C1253 0.950 . S
H1242 C1250 0.950 1_455 S
H1243 C1252 0.950 1_455 S
H1244 C1254 0.950 . S
H1245 C1256 0.950 . S
H1246 C1258 0.950 . S
H1247 C1259 0.950 . S
C1248 H1240 0.950 . S
C1248 C1249 1.386 . S
C1248 C1250 1.391 . S
C1249 C1248 1.386 . S
C1249 C1253 1.393 . S
C1250 H1242 0.950 1_655 S
C1250 C1248 1.391 . S
C1250 C1251 1.400 1_655 S
C1251 C1250 1.400 1_455 S
C1251 C1252 1.398 1_455 S
C1251 C1257 1.491 . S
C1252 H1243 0.950 1_655 S
C1252 C1251 1.398 1_655 S
C1252 C1253 1.391 . S
C1253 H1241 0.950 . S
C1253 C1249 1.393 . S
C1253 C1252 1.391 . S
C1254 H1244 0.950 . S
C1254 C1255 1.386 . S
C1254 C1256 1.391 . S
C1255 C1254 1.386 . S
C1255 C1259 1.393 . S
C1256 H1245 0.950 . S
C1256 C1254 1.391 . S
C1256 C1257 1.400 . S
C1257 C1251 1.491 . S
C1257 C1256 1.400 . S
C1257 C1258 1.398 . S
C1258 H1246 0.950 . S
C1258 C1257 1.398 . S
C1258 C1259 1.391 . S
C1259 H1247 0.950 . S
C1259 C1255 1.393 . S
C1259 C1258 1.391 . S
H1260 C1268 0.950 . S
H1261 C1273 0.950 . S
H1262 C1270 0.950 . S
H1263 C1272 0.950 . S
H1264 C1274 0.950 . S
H1265 C1276 0.950 . S
H1266 C1278 0.950 . S
H1267 C1279 0.950 . S
C1268 H1260 0.950 . S
C1268 C1269 1.386 . S
C1268 C1270 1.391 . S
C1269 C1268 1.386 . S
C1269 C1273 1.393 . S
C1270 H1262 0.950 . S
C1270 C1268 1.391 . S
C1270 C1271 1.400 . S
C1271 C1270 1.400 . S
C1271 C1272 1.398 . S
C1271 C1277 1.491 . S
C1272 H1263 0.950 . S
C1272 C1271 1.398 . S
C1272 C1273 1.391 . S
C1273 H1261 0.950 . S
C1273 C1269 1.393 . S
C1273 C1272 1.391 . S
C1274 H1264 0.950 . S
C1274 C1275 1.386 . S
C1274 C1276 1.391 . S
C1275 C1274 1.386 . S
C1275 C1279 1.393 . S
C1276 H1265 0.950 . S
C1276 C1274 1.391 . S
C1276 C1277 1.400 . S
C1277 C1271 1.491 . S
C1277 C1276 1.400 . S
C1277 C1278 1.398 . S
C1278 H1266 0.950 . S
C1278 C1277 1.398 . S
C1278 C1279 1.391 . S
C1279 H1267 0.950 . S
C1279 C1275 1.393 . S
C1279 C1278 1.391 . S
H1280 C1288 0.950 . S
H1281 C1293 0.950 . S
H1282 C1290 0.950 . S
H1283 C1292 0.950 . S
H1284 C1294 0.950 . S
H1285 C1296 0.950 . S
H1286 C1298 0.950 . S
H1287 C1299 0.950 . S
C1288 H1280 0.950 . S
C1288 C1289 1.386 . S
C1288 C1290 1.391 . S
C1289 C1288 1.386 . S
C1289 C1293 1.393 . S
C1290 H1282 0.950 . S
C1290 C1288 1.391 . S
C1290 C1291 1.400 . S
C1291 C1290 1.400 . S
C1291 C1292 1.398 . S
C1291 C1297 1.491 . S
C1292 H1283 0.950 . S
C1292 C1291 1.398 . S
C1292 C1293 1.391 . S
C1293 H1281 0.950 . S
C1293 C1289 1.393 . S
C1293 C1292 1.391 . S
C1294 H1284 0.950 . S
C1294 C1295 1.386 . S
C1294 C1296 1.391 . S
C1295 C1294 1.386 . S
C1295 C1299 1.393 . S
C1296 H1285 0.950 . S
C1296 C1294 1.391 . S
C1296 C1297 1.400 1_565 S
C1297 C1291 1.491 . S
C1297 C1296 1.400 1_545 S
C1297 C1298 1.398 . S
C1298 H1286 0.950 . S
C1298 C1297 1.398 . S
C1298 C1299 1.391 1_545 S
C1299 H1287 0.950 . S
C1299 C1295 1.393 . S
C1299 C1298 1.391 1_565 S
H1300 C1308 0.950 . S
H1301 C1313 0.950 . S
H1302 C1310 0.950 . S
H1303 C1312 0.950 . S
H1304 C1314 0.950 . S
H1305 C1316 0.949 1_655 S
H1306 C1318 0.950 . S
H1307 C1319 0.950 . S
C1308 H1300 0.950 . S
C1308 C1309 1.386 . S
C1308 C1310 1.391 . S
C1309 C1308 1.386 . S
C1309 C1313 1.393 . S
C1310 H1302 0.950 . S
C1310 C1308 1.391 . S
C1310 C1311 1.400 . S
C1311 C1310 1.400 . S
C1311 C1312 1.398 . S
C1311 C1317 1.491 . S
C1312 H1303 0.950 . S
C1312 C1311 1.398 . S
C1312 C1313 1.391 . S
C1313 H1301 0.950 . S
C1313 C1309 1.393 . S
C1313 C1312 1.391 . S
C1314 H1304 0.950 . S
C1314 C1315 1.386 . S
C1314 C1316 1.391 . S
C1315 C1314 1.386 . S
C1315 C1319 1.393 . S
C1316 H1305 0.949 1_455 S
C1316 C1314 1.391 . S
C1316 C1317 1.400 1_455 S
C1317 C1311 1.491 . S
C1317 C1316 1.400 1_655 S
C1317 C1318 1.398 . S
C1318 H1306 0.950 . S
C1318 C1317 1.398 . S
C1318 C1319 1.391 1_655 S
C1319 H1307 0.950 . S
C1319 C1315 1.393 . S
C1319 C1318 1.391 1_455 S
H1320 C1328 0.950 . S
H1321 C1333 0.950 . S
H1322 C1330 0.950 . S
H1323 C1332 0.950 . S
H1324 C1334 0.950 . S
H1325 C1336 0.950 . S
H1326 C1338 0.950 . S
H1327 C1339 0.950 . S
C1328 H1320 0.950 . S
C1328 C1329 1.386 . S
C1328 C1330 1.391 . S
C1329 C1328 1.386 . S
C1329 C1333 1.393 . S
C1330 H1322 0.950 . S
C1330 C1328 1.391 . S
C1330 C1331 1.400 . S
C1331 C1330 1.400 . S
C1331 C1332 1.398 . S
C1331 C1337 1.491 . S
C1332 H1323 0.950 . S
C1332 C1331 1.398 . S
C1332 C1333 1.391 . S
C1333 H1321 0.950 . S
C1333 C1329 1.393 . S
C1333 C1332 1.391 . S
C1334 H1324 0.950 . S
C1334 C1335 1.386 . S
C1334 C1336 1.391 . S
C1335 C1334 1.386 . S
C1335 C1339 1.393 . S
C1336 H1325 0.950 . S
C1336 C1334 1.391 . S
C1336 C1337 1.400 . S
C1337 C1331 1.491 . S
C1337 C1336 1.400 . S
C1337 C1338 1.398 . S
C1338 H1326 0.950 . S
C1338 C1337 1.398 . S
C1338 C1339 1.391 . S
C1339 H1327 0.950 . S
C1339 C1335 1.393 . S
C1339 C1338 1.391 . S
H1340 C1348 0.950 . S
H1341 C1353 0.950 . S
H1342 C1350 0.950 . S
H1343 C1352 0.950 . S
H1344 C1354 0.950 . S
H1345 C1356 0.950 . S
H1346 C1358 0.950 . S
H1347 C1359 0.950 . S
C1348 H1340 0.950 . S
C1348 C1349 1.386 . S
C1348 C1350 1.391 . S
C1349 C1348 1.386 . S
C1349 C1353 1.393 . S
C1350 H1342 0.950 . S
C1350 C1348 1.391 . S
C1350 C1351 1.400 . S
C1351 C1350 1.400 . S
C1351 C1352 1.398 . S
C1351 C1357 1.491 . S
C1352 H1343 0.950 . S
C1352 C1351 1.398 . S
C1352 C1353 1.391 . S
C1353 H1341 0.950 . S
C1353 C1349 1.393 . S
C1353 C1352 1.391 . S
C1354 H1344 0.950 . S
C1354 C1355 1.386 . S
C1354 C1356 1.391 . S
C1355 C1354 1.386 . S
C1355 C1359 1.393 . S
C1356 H1345 0.950 . S
C1356 C1354 1.391 . S
C1356 C1357 1.400 . S
C1357 C1351 1.491 . S
C1357 C1356 1.400 . S
C1357 C1358 1.398 . S
C1358 H1346 0.950 . S
C1358 C1357 1.398 . S
C1358 C1359 1.391 . S
C1359 H1347 0.950 . S
C1359 C1355 1.393 . S
C1359 C1358 1.391 . S
H1360 C1368 0.950 . S
H1361 C1373 0.950 . S
H1362 C1370 0.950 . S
H1363 C1372 0.950 . S
H1364 C1374 0.950 . S
H1365 C1376 0.950 . S
H1366 C1378 0.950 . S
H1367 C1379 0.950 . S
C1368 H1360 0.950 . S
C1368 C1369 1.386 . S
C1368 C1370 1.391 . S
C1369 C1368 1.386 . S
C1369 C1373 1.393 . S
C1370 H1362 0.950 . S
C1370 C1368 1.391 . S
C1370 C1371 1.400 . S
C1371 C1370 1.400 . S
C1371 C1372 1.398 . S
C1371 C1377 1.491 . S
C1372 H1363 0.950 . S
C1372 C1371 1.398 . S
C1372 C1373 1.391 . S
C1373 H1361 0.950 . S
C1373 C1369 1.393 . S
C1373 C1372 1.391 . S
C1374 H1364 0.950 . S
C1374 C1375 1.386 . S
C1374 C1376 1.391 . S
C1375 C1374 1.386 . S
C1375 C1379 1.393 . S
C1376 H1365 0.950 . S
C1376 C1374 1.391 . S
C1376 C1377 1.400 . S
C1377 C1371 1.491 . S
C1377 C1376 1.400 . S
C1377 C1378 1.398 . S
C1378 H1366 0.950 . S
C1378 C1377 1.398 . S
C1378 C1379 1.391 . S
C1379 H1367 0.950 . S
C1379 C1375 1.393 . S
C1379 C1378 1.391 . S
H1380 C1388 0.950 . S
H1381 C1393 0.950 . S
H1382 C1390 0.950 . S
H1383 C1392 0.950 . S
H1384 C1394 0.950 . S
H1385 C1396 0.950 . S
H1386 C1398 0.950 . S
H1387 C1399 0.950 . S
C1388 H1380 0.950 . S
C1388 C1389 1.386 . S
C1388 C1390 1.391 . S
C1389 C1388 1.386 . S
C1389 C1393 1.393 . S
C1390 H1382 0.950 . S
C1390 C1388 1.391 . S
C1390 C1391 1.400 . S
C1391 C1390 1.400 . S
C1391 C1392 1.398 . S
C1391 C1397 1.491 . S
C1392 H1383 0.950 . S
C1392 C1391 1.398 . S
C1392 C1393 1.391 . S
C1393 H1381 0.950 . S
C1393 C1389 1.393 . S
C1393 C1392 1.391 . S
C1394 H1384 0.950 . S
C1394 C1395 1.386 . S
C1394 C1396 1.391 . S
C1395 C1394 1.386 . S
C1395 C1399 1.393 . S
C1396 H1385 0.950 . S
C1396 C1394 1.391 . S
C1396 C1397 1.400 . S
C1397 C1391 1.491 . S
C1397 C1396 1.400 . S
C1397 C1398 1.398 . S
C1398 H1386 0.950 . S
C1398 C1397 1.398 . S
C1398 C1399 1.391 . S
C1399 H1387 0.950 . S
C1399 C1395 1.393 . S
C1399 C1398 1.391 . S
H1400 C1408 0.950 . S
H1401 C1413 0.950 . S
H1402 C1410 0.950 . S
H1403 C1412 0.950 . S
H1404 C1414 0.950 . S
H1405 C1416 0.950 . S
H1406 C1418 0.950 . S
H1407 C1419 0.950 . S
C1408 H1400 0.950 . S
C1408 C1409 1.386 . S
C1408 C1410 1.391 . S
C1409 C1408 1.386 . S
C1409 C1413 1.393 . S
C1410 H1402 0.950 . S
C1410 C1408 1.391 . S
C1410 C1411 1.400 . S
C1411 C1410 1.400 . S
C1411 C1412 1.398 . S
C1411 C1417 1.491 . S
C1412 H1403 0.950 . S
C1412 C1411 1.398 . S
C1412 C1413 1.391 . S
C1413 H1401 0.950 . S
C1413 C1409 1.393 . S
C1413 C1412 1.391 . S
C1414 H1404 0.950 . S
C1414 C1415 1.386 . S
C1414 C1416 1.391 . S
C1415 C1414 1.386 . S
C1415 C1419 1.393 . S
C1416 H1405 0.950 . S
C1416 C1414 1.391 . S
C1416 C1417 1.400 . S
C1417 C1411 1.491 . S
C1417 C1416 1.400 . S
C1417 C1418 1.398 . S
C1418 H1406 0.950 . S
C1418 C1417 1.398 . S
C1418 C1419 1.391 . S
C1419 H1407 0.950 . S
C1419 C1415 1.393 . S
C1419 C1418 1.391 . S
H1420 C1428 0.950 . S
H1421 C1433 0.950 . S
H1422 C1430 0.950 . S
H1423 C1432 0.950 . S
H1424 C1434 0.950 . S
H1425 C1436 0.950 . S
H1426 C1438 0.950 . S
H1427 C1439 0.950 . S
C1428 H1420 0.950 . S
C1428 C1429 1.386 . S
C1428 C1430 1.391 . S
C1429 C1428 1.386 . S
C1429 C1433 1.393 . S
C1430 H1422 0.950 . S
C1430 C1428 1.391 . S
C1430 C1431 1.400 . S
C1431 C1430 1.400 . S
C1431 C1432 1.398 . S
C1431 C1437 1.491 . S
C1432 H1423 0.950 . S
C1432 C1431 1.398 . S
C1432 C1433 1.391 . S
C1433 H1421 0.950 . S
C1433 C1429 1.393 . S
C1433 C1432 1.391 . S
C1434 H1424 0.950 . S
C1434 C1435 1.386 . S
C1434 C1436 1.391 . S
C1435 C1434 1.386 . S
C1435 C1439 1.393 . S
C1436 H1425 0.950 . S
C1436 C1434 1.391 . S
C1436 C1437 1.400 . S
C1437 C1431 1.491 . S
C1437 C1436 1.400 . S
C1437 C1438 1.398 . S
C1438 H1426 0.950 . S
C1438 C1437 1.398 . S
C1438 C1439 1.391 . S
C1439 H1427 0.950 . S
C1439 C1435 1.393 . S
C1439 C1438 1.391 . S
H1440 C1448 0.950 . S
H1441 C1453 0.950 . S
H1442 C1450 0.950 . S
H1443 C1452 0.950 . S
H1444 C1454 0.950 . S
H1445 C1456 0.950 . S
H1446 C1458 0.950 . S
H1447 C1459 0.950 . S
C1448 H1440 0.950 . S
C1448 C1449 1.386 . S
C1448 C1450 1.391 . S
C1449 C1448 1.386 . S
C1449 C1453 1.393 . S
C1450 H1442 0.950 . S
C1450 C1448 1.391 . S
C1450 C1451 1.400 . S
C1451 C1450 1.400 . S
C1451 C1452 1.398 . S
C1451 C1457 1.491 . S
C1452 H1443 0.950 . S
C1452 C1451 1.398 . S
C1452 C1453 1.391 . S
C1453 H1441 0.950 . S
C1453 C1449 1.393 . S
C1453 C1452 1.391 . S
C1454 H1444 0.950 . S
C1454 C1455 1.386 . S
C1454 C1456 1.391 . S
C1455 C1454 1.386 . S
C1455 C1459 1.393 . S
C1456 H1445 0.950 . S
C1456 C1454 1.391 . S
C1456 C1457 1.400 . S
C1457 C1451 1.491 . S
C1457 C1456 1.400 . S
C1457 C1458 1.398 . S
C1458 H1446 0.950 . S
C1458 C1457 1.398 . S
C1458 C1459 1.391 . S
C1459 H1447 0.950 . S
C1459 C1455 1.393 . S
C1459 C1458 1.391 . S
H1460 C1468 0.950 . S
H1461 C1473 0.950 . S
H1462 C1470 0.950 . S
H1463 C1472 0.950 . S
H1464 C1474 0.950 . S
H1465 C1476 0.950 . S
H1466 C1478 0.950 . S
H1467 C1479 0.950 . S
C1468 H1460 0.950 . S
C1468 C1469 1.386 . S
C1468 C1470 1.391 . S
C1469 C1468 1.386 . S
C1469 C1473 1.393 . S
C1470 H1462 0.950 . S
C1470 C1468 1.391 . S
C1470 C1471 1.400 . S
C1471 C1470 1.400 . S
C1471 C1472 1.398 . S
C1471 C1477 1.491 . S
C1472 H1463 0.950 . S
C1472 C1471 1.398 . S
C1472 C1473 1.391 . S
C1473 H1461 0.950 . S
C1473 C1469 1.393 . S
C1473 C1472 1.391 . S
C1474 H1464 0.950 . S
C1474 C1475 1.386 . S
C1474 C1476 1.391 . S
C1475 C1474 1.386 . S
C1475 C1479 1.393 . S
C1476 H1465 0.950 . S
C1476 C1474 1.391 . S
C1476 C1477 1.400 . S
C1477 C1471 1.491 . S
C1477 C1476 1.400 . S
C1477 C1478 1.398 . S
C1478 H1466 0.950 . S
C1478 C1477 1.398 . S
C1478 C1479 1.391 . S
C1479 H1467 0.950 . S
C1479 C1475 1.393 . S
C1479 C1478 1.391 . S
H1480 C1488 0.950 . S
H1481 C1493 0.950 . S
H1482 C1490 0.950 . S
H1483 C1492 0.950 . S
H1484 C1494 0.950 . S
H1485 C1496 0.950 . S
H1486 C1498 0.950 . S
H1487 C1499 0.950 . S
C1488 H1480 0.950 . S
C1488 C1489 1.386 . S
C1488 C1490 1.391 . S
C1489 C1488 1.386 . S
C1489 C1493 1.393 . S
C1490 H1482 0.950 . S
C1490 C1488 1.391 . S
C1490 C1491 1.400 . S
C1491 C1490 1.400 . S
C1491 C1492 1.398 . S
C1491 C1497 1.491 . S
C1492 H1483 0.950 . S
C1492 C1491 1.398 . S
C1492 C1493 1.391 . S
C1493 H1481 0.950 . S
C1493 C1489 1.393 . S
C1493 C1492 1.391 . S
C1494 H1484 0.950 . S
C1494 C1495 1.386 . S
C1494 C1496 1.391 . S
C1495 C1494 1.386 . S
C1495 C1499 1.393 . S
C1496 H1485 0.950 . S
C1496 C1494 1.391 . S
C1496 C1497 1.400 . S
C1497 C1491 1.491 . S
C1497 C1496 1.400 . S
C1497 C1498 1.398 . S
C1498 H1486 0.950 . S
C1498 C1497 1.398 . S
C1498 C1499 1.391 . S
C1499 H1487 0.950 . S
C1499 C1495 1.393 . S
C1499 C1498 1.391 . S
H1500 C1508 0.984 . S
H1501 C1513 0.950 . S
H1502 C1510 0.950 . S
H1503 C1512 0.950 . S
H1504 C1514 0.950 . S
H1505 C1516 0.950 . S
H1506 C1518 0.950 . S
H1507 C1519 0.950 . S
C1508 H1500 0.984 . S
C1508 C1509 1.348 1_554 S
C1508 C1510 1.398 . S
C1509 C1508 1.348 1_556 S
C1509 C1513 1.393 . S
C1510 H1502 0.950 . S
C1510 C1508 1.398 . S
C1510 C1511 1.400 1_554 S
C1511 C1510 1.400 1_556 S
C1511 C1512 1.398 . S
C1511 C1517 1.491 . S
C1512 H1503 0.950 . S
C1512 C1511 1.398 . S
C1512 C1513 1.391 . S
C1513 H1501 0.950 . S
C1513 C1509 1.393 . S
C1513 C1512 1.391 . S
C1514 H1504 0.950 . S
C1514 C1515 1.386 . S
C1514 C1516 1.391 . S
C1515 C1514 1.386 . S
C1515 C1519 1.393 1_556 S
C1516 H1505 0.950 . S
C1516 C1514 1.391 . S
C1516 C1517 1.400 . S
C1517 C1511 1.491 . S
C1517 C1516 1.400 . S
C1517 C1518 1.398 1_556 S
C1518 H1506 0.950 . S
C1518 C1517 1.398 1_554 S
C1518 C1519 1.391 . S
C1519 H1507 0.950 . S
C1519 C1515 1.393 1_554 S
C1519 C1518 1.391 . S
H1520 C1528 0.950 . S
H1521 C1533 0.950 . S
H1522 C1530 0.950 . S
H1523 C1532 0.950 . S
H1524 C1534 0.950 . S
H1525 C1536 0.950 . S
H1526 C1538 0.950 1_554 S
H1527 C1539 0.950 1_554 S
C1528 H1520 0.950 . S
C1528 C1529 1.386 1_554 S
C1528 C1530 1.391 . S
C1529 C1528 1.386 1_556 S
C1529 C1533 1.393 . S
C1530 H1522 0.950 . S
C1530 C1528 1.391 . S
C1530 C1531 1.400 1_554 S
C1531 C1530 1.400 1_556 S
C1531 C1532 1.398 . S
C1531 C1537 1.491 . S
C1532 H1523 0.950 . S
C1532 C1531 1.398 . S
C1532 C1533 1.391 . S
C1533 H1521 0.950 . S
C1533 C1529 1.393 . S
C1533 C1532 1.391 . S
C1534 H1524 0.950 . S
C1534 C1535 1.386 . S
C1534 C1536 1.391 . S
C1535 C1534 1.386 . S
C1535 C1539 1.393 . S
C1536 H1525 0.950 . S
C1536 C1534 1.391 . S
C1536 C1537 1.400 . S
C1537 C1531 1.491 . S
C1537 C1536 1.400 . S
C1537 C1538 1.398 . S
C1538 H1526 0.950 1_556 S
C1538 C1537 1.398 . S
C1538 C1539 1.391 . S
C1539 H1527 0.950 1_556 S
C1539 C1535 1.393 . S
C1539 C1538 1.391 . S
H1540 C1548 0.950 . S
H1541 C1553 0.950 . S
H1542 C1550 0.950 . S
H1543 C1552 0.950 . S
H1544 C1554 0.950 . S
H1545 C1556 0.950 . S
H1546 C1558 0.950 . S
H1547 C1559 0.950 . S
C1548 H1540 0.950 . S
C1548 C1549 1.386 1_554 S
C1548 C1550 1.391 . S
C1549 C1548 1.386 1_556 S
C1549 C1553 1.393 . S
C1550 H1542 0.950 . S
C1550 C1548 1.391 . S
C1550 C1551 1.400 1_554 S
C1551 C1550 1.400 1_556 S
C1551 C1552 1.398 . S
C1551 C1557 1.491 . S
C1552 H1543 0.950 . S
C1552 C1551 1.398 . S
C1552 C1553 1.391 . S
C1553 H1541 0.950 . S
C1553 C1549 1.393 . S
C1553 C1552 1.391 . S
C1554 H1544 0.950 . S
C1554 C1555 1.386 . S
C1554 C1556 1.391 . S
C1555 C1554 1.386 . S
C1555 C1559 1.393 1_556 S
C1556 H1545 0.950 . S
C1556 C1554 1.391 . S
C1556 C1557 1.400 . S
C1557 C1551 1.491 . S
C1557 C1556 1.400 . S
C1557 C1558 1.398 1_556 S
C1558 H1546 0.950 . S
C1558 C1557 1.398 1_554 S
C1558 C1559 1.391 . S
C1559 H1547 0.950 . S
C1559 C1555 1.393 1_554 S
C1559 C1558 1.391 . S
H1560 C1568 0.950 . S
H1561 C1573 0.950 . S
H1562 C1570 0.950 . S
H1563 C1572 0.950 . S
H1564 C1574 0.950 . S
H1565 C1576 0.950 . S
H1566 C1578 0.950 . S
H1567 C1579 0.950 . S
C1568 H1560 0.950 . S
C1568 C1569 1.386 . S
C1568 C1570 1.391 . S
C1569 C1568 1.386 . S
C1569 C1573 1.393 . S
C1570 H1562 0.950 . S
C1570 C1568 1.391 . S
C1570 C1571 1.400 . S
C1571 C1570 1.400 . S
C1571 C1572 1.398 . S
C1571 C1577 1.491 . S
C1572 H1563 0.950 . S
C1572 C1571 1.398 . S
C1572 C1573 1.391 . S
C1573 H1561 0.950 . S
C1573 C1569 1.393 . S
C1573 C1572 1.391 . S
C1574 H1564 0.950 . S
C1574 C1575 1.386 . S
C1574 C1576 1.391 . S
C1575 C1574 1.386 . S
C1575 C1579 1.393 . S
C1576 H1565 0.950 . S
C1576 C1574 1.391 . S
C1576 C1577 1.400 . S
C1577 C1571 1.491 . S
C1577 C1576 1.400 . S
C1577 C1578 1.398 . S
C1578 H1566 0.950 . S
C1578 C1577 1.398 . S
C1578 C1579 1.391 . S
C1579 H1567 0.950 . S
C1579 C1575 1.393 . S
C1579 C1578 1.391 . S
H1580 C1588 0.950 . S
H1581 C1593 0.950 . S
H1582 C1590 0.950 . S
H1583 C1592 0.950 . S
H1584 C1594 0.950 . S
H1585 C1596 0.950 . S
H1586 C1598 0.950 . S
H1587 C1599 0.950 . S
C1588 H1580 0.950 . S
C1588 C1589 1.386 . S
C1588 C1590 1.391 . S
C1589 C1588 1.386 . S
C1589 C1593 1.393 . S
C1590 H1582 0.950 . S
C1590 C1588 1.391 . S
C1590 C1591 1.400 . S
C1591 C1590 1.400 . S
C1591 C1592 1.398 . S
C1591 C1597 1.491 . S
C1592 H1583 0.950 . S
C1592 C1591 1.398 . S
C1592 C1593 1.391 . S
C1593 H1581 0.950 . S
C1593 C1589 1.393 . S
C1593 C1592 1.391 . S
C1594 H1584 0.950 . S
C1594 C1595 1.386 . S
C1594 C1596 1.391 . S
C1595 C1594 1.386 . S
C1595 C1599 1.393 . S
C1596 H1585 0.950 . S
C1596 C1594 1.391 . S
C1596 C1597 1.400 . S
C1597 C1591 1.491 . S
C1597 C1596 1.400 . S
C1597 C1598 1.398 . S
C1598 H1586 0.950 . S
C1598 C1597 1.398 . S
C1598 C1599 1.391 . S
C1599 H1587 0.950 . S
C1599 C1595 1.393 . S
C1599 C1598 1.391 . S
H1600 C1608 0.950 . S
H1601 C1613 0.950 . S
H1602 C1610 0.950 . S
H1603 C1612 0.950 . S
H1604 C1614 0.950 . S
H1605 C1616 0.950 . S
H1606 C1618 0.950 . S
H1607 C1619 0.950 . S
C1608 H1600 0.950 . S
C1608 C1609 1.386 . S
C1608 C1610 1.391 . S
C1609 C1608 1.386 . S
C1609 C1613 1.393 . S
C1610 H1602 0.950 . S
C1610 C1608 1.391 . S
C1610 C1611 1.400 . S
C1611 C1610 1.400 . S
C1611 C1612 1.398 . S
C1611 C1617 1.491 . S
C1612 H1603 0.950 . S
C1612 C1611 1.398 . S
C1612 C1613 1.391 . S
C1613 H1601 0.950 . S
C1613 C1609 1.393 . S
C1613 C1612 1.391 . S
C1614 H1604 0.950 . S
C1614 C1615 1.386 . S
C1614 C1616 1.391 . S
C1615 C1614 1.386 . S
C1615 C1619 1.393 . S
C1616 H1605 0.950 . S
C1616 C1614 1.391 . S
C1616 C1617 1.400 . S
C1617 C1611 1.491 . S
C1617 C1616 1.400 . S
C1617 C1618 1.398 . S
C1618 H1606 0.950 . S
C1618 C1617 1.398 . S
C1618 C1619 1.391 . S
C1619 H1607 0.950 . S
C1619 C1615 1.393 . S
C1619 C1618 1.391 . S
H1620 C1628 0.950 . S
H1621 C1633 0.950 . S
H1622 C1630 0.950 . S
H1623 C1632 0.950 . S
H1624 C1634 0.950 . S
H1625 C1636 0.950 . S
H1626 C1638 0.950 . S
H1627 C1639 0.950 . S
C1628 H1620 0.950 . S
C1628 C1629 1.386 1_556 S
C1628 C1630 1.391 . S
C1629 C1628 1.386 1_554 S
C1629 C1633 1.393 . S
C1630 H1622 0.950 . S
C1630 C1628 1.391 . S
C1630 C1631 1.400 1_556 S
C1631 C1630 1.400 1_554 S
C1631 C1632 1.398 . S
C1631 C1637 1.491 . S
C1632 H1623 0.950 . S
C1632 C1631 1.398 . S
C1632 C1633 1.391 . S
C1633 H1621 0.950 . S
C1633 C1629 1.393 . S
C1633 C1632 1.391 . S
C1634 H1624 0.950 . S
C1634 C1635 1.386 . S
C1634 C1636 1.391 . S
C1635 C1634 1.386 . S
C1635 C1639 1.393 1_554 S
C1636 H1625 0.950 . S
C1636 C1634 1.391 . S
C1636 C1637 1.400 . S
C1637 C1631 1.491 . S
C1637 C1636 1.400 . S
C1637 C1638 1.398 1_554 S
C1638 H1626 0.950 . S
C1638 C1637 1.398 1_556 S
C1638 C1639 1.391 . S
C1639 H1627 0.950 . S
C1639 C1635 1.393 1_556 S
C1639 C1638 1.391 . S
H1640 C1648 0.949 . S
H1641 C1653 0.950 . S
H1642 C1650 0.954 . S
H1643 C1652 0.950 . S
H1644 C1654 0.950 . S
H1645 C1656 0.950 . S
H1646 C1658 0.950 . S
H1647 C1659 0.950 . S
C1648 H1640 0.949 . S
C1648 C1649 1.386 1_556 S
C1648 C1650 1.392 1_556 S
C1649 C1648 1.386 1_554 S
C1649 C1653 1.393 . S
C1650 H1642 0.954 . S
C1650 C1648 1.392 1_554 S
C1650 C1651 1.400 . S
C1651 C1650 1.400 . S
C1651 C1652 1.398 . S
C1651 C1657 1.491 . S
C1652 H1643 0.950 . S
C1652 C1651 1.398 . S
C1652 C1653 1.391 . S
C1653 H1641 0.950 . S
C1653 C1649 1.393 . S
C1653 C1652 1.391 . S
C1654 H1644 0.950 . S
C1654 C1655 1.386 . S
C1654 C1656 1.391 . S
C1655 C1654 1.386 . S
C1655 C1659 1.393 . S
C1656 H1645 0.950 . S
C1656 C1654 1.391 . S
C1656 C1657 1.400 . S
C1657 C1651 1.491 . S
C1657 C1656 1.400 . S
C1657 C1658 1.398 . S
C1658 H1646 0.950 . S
C1658 C1657 1.398 . S
C1658 C1659 1.391 . S
C1659 H1647 0.950 . S
C1659 C1655 1.393 . S
C1659 C1658 1.391 . S
H1660 C1668 0.950 . S
H1661 C1673 0.950 . S
H1662 C1670 0.950 . S
H1663 C1672 0.950 . S
H1664 C1674 0.950 . S
H1665 C1676 0.950 . S
H1666 C1678 0.950 . S
H1667 C1679 0.963 . S
C1668 H1660 0.950 . S
C1668 C1669 1.386 1_556 S
C1668 C1670 1.391 . S
C1669 C1668 1.386 1_554 S
C1669 C1673 1.393 . S
C1670 H1662 0.950 . S
C1670 C1668 1.391 . S
C1670 C1671 1.400 1_556 S
C1671 C1670 1.400 1_554 S
C1671 C1672 1.398 . S
C1671 C1677 1.491 . S
C1672 H1663 0.950 . S
C1672 C1671 1.398 . S
C1672 C1673 1.391 . S
C1673 H1661 0.950 . S
C1673 C1669 1.393 . S
C1673 C1672 1.391 . S
C1674 H1664 0.950 . S
C1674 C1675 1.386 . S
C1674 C1676 1.391 . S
C1675 C1674 1.386 . S
C1675 C1679 1.377 1_554 S
C1676 H1665 0.950 . S
C1676 C1674 1.391 . S
C1676 C1677 1.400 . S
C1677 C1671 1.491 . S
C1677 C1676 1.400 . S
C1677 C1678 1.398 1_554 S
C1678 H1666 0.950 . S
C1678 C1677 1.398 1_556 S
C1678 C1679 1.393 . S
C1679 H1667 0.963 . S
C1679 C1675 1.377 1_556 S
C1679 C1678 1.393 . S
H1680 C1688 0.950 . S
H1681 C1693 0.950 . S
H1682 C1690 0.950 . S
H1683 C1692 0.950 . S
H1684 C1694 0.950 . S
H1685 C1696 0.950 . S
H1686 C1698 0.950 . S
H1687 C1699 0.950 . S
C1688 H1680 0.950 . S
C1688 C1689 1.386 . S
C1688 C1690 1.391 . S
C1689 C1688 1.386 . S
C1689 C1693 1.393 . S
C1690 H1682 0.950 . S
C1690 C1688 1.391 . S
C1690 C1691 1.400 . S
C1691 C1690 1.400 . S
C1691 C1692 1.398 . S
C1691 C1697 1.491 . S
C1692 H1683 0.950 . S
C1692 C1691 1.398 . S
C1692 C1693 1.391 . S
C1693 H1681 0.950 . S
C1693 C1689 1.393 . S
C1693 C1692 1.391 . S
C1694 H1684 0.950 . S
C1694 C1695 1.386 . S
C1694 C1696 1.391 . S
C1695 C1694 1.386 . S
C1695 C1699 1.393 . S
C1696 H1685 0.950 . S
C1696 C1694 1.391 . S
C1696 C1697 1.400 . S
C1697 C1691 1.491 . S
C1697 C1696 1.400 . S
C1697 C1698 1.398 . S
C1698 H1686 0.950 . S
C1698 C1697 1.398 . S
C1698 C1699 1.391 . S
C1699 H1687 0.950 . S
C1699 C1695 1.393 . S
C1699 C1698 1.391 . S
H1700 C1708 0.950 . S
H1701 C1713 0.950 . S
H1702 C1710 0.950 . S
H1703 C1712 0.950 . S
H1704 C1714 0.950 . S
H1705 C1716 0.950 . S
H1706 C1718 0.950 . S
H1707 C1719 0.950 . S
C1708 H1700 0.950 . S
C1708 C1709 1.386 . S
C1708 C1710 1.391 . S
C1709 C1708 1.386 . S
C1709 C1713 1.393 . S
C1710 H1702 0.950 . S
C1710 C1708 1.391 . S
C1710 C1711 1.400 . S
C1711 C1710 1.400 . S
C1711 C1712 1.398 . S
C1711 C1717 1.491 . S
C1712 H1703 0.950 . S
C1712 C1711 1.398 . S
C1712 C1713 1.391 . S
C1713 H1701 0.950 . S
C1713 C1709 1.393 . S
C1713 C1712 1.391 . S
C1714 H1704 0.950 . S
C1714 C1715 1.386 . S
C1714 C1716 1.391 . S
C1715 C1714 1.386 . S
C1715 C1719 1.393 . S
C1716 H1705 0.950 . S
C1716 C1714 1.391 . S
C1716 C1717 1.400 . S
C1717 C1711 1.491 . S
C1717 C1716 1.400 . S
C1717 C1718 1.398 . S
C1718 H1706 0.950 . S
C1718 C1717 1.398 . S
C1718 C1719 1.391 . S
C1719 H1707 0.950 . S
C1719 C1715 1.393 . S
C1719 C1718 1.391 . S
H1720 C1728 0.950 . S
H1721 C1733 0.950 . S
H1722 C1730 0.950 . S
H1723 C1732 0.950 . S
H1724 C1734 0.950 . S
H1725 C1736 0.950 . S
H1726 C1738 0.950 . S
H1727 C1739 0.950 . S
C1728 H1720 0.950 . S
C1728 C1729 1.386 . S
C1728 C1730 1.391 . S
C1729 C1728 1.386 . S
C1729 C1733 1.393 . S
C1730 H1722 0.950 . S
C1730 C1728 1.391 . S
C1730 C1731 1.400 . S
C1731 C1730 1.400 . S
C1731 C1732 1.398 . S
C1731 C1737 1.491 . S
C1732 H1723 0.950 . S
C1732 C1731 1.398 . S
C1732 C1733 1.391 . S
C1733 H1721 0.950 . S
C1733 C1729 1.393 . S
C1733 C1732 1.391 . S
C1734 H1724 0.950 . S
C1734 C1735 1.386 . S
C1734 C1736 1.391 . S
C1735 C1734 1.386 . S
C1735 C1739 1.393 . S
C1736 H1725 0.950 . S
C1736 C1734 1.391 . S
C1736 C1737 1.400 . S
C1737 C1731 1.491 . S
C1737 C1736 1.400 . S
C1737 C1738 1.398 . S
C1738 H1726 0.950 . S
C1738 C1737 1.398 . S
C1738 C1739 1.391 . S
C1739 H1727 0.950 . S
C1739 C1735 1.393 . S
C1739 C1738 1.391 . S
H1740 C1748 0.950 . S
H1741 C1753 0.950 . S
H1742 C1750 0.950 . S
H1743 C1752 0.950 . S
H1744 C1754 0.950 . S
H1745 C1756 0.950 . S
H1746 C1758 0.950 . S
H1747 C1759 0.950 . S
C1748 H1740 0.950 . S
C1748 C1749 1.386 . S
C1748 C1750 1.391 . S
C1749 C1748 1.386 . S
C1749 C1753 1.393 . S
C1750 H1742 0.950 . S
C1750 C1748 1.391 . S
C1750 C1751 1.400 . S
C1751 C1750 1.400 . S
C1751 C1752 1.398 . S
C1751 C1757 1.491 . S
C1752 H1743 0.950 . S
C1752 C1751 1.398 . S
C1752 C1753 1.391 . S
C1753 H1741 0.950 . S
C1753 C1749 1.393 . S
C1753 C1752 1.391 . S
C1754 H1744 0.950 . S
C1754 C1755 1.386 . S
C1754 C1756 1.391 . S
C1755 C1754 1.386 . S
C1755 C1759 1.393 . S
C1756 H1745 0.950 . S
C1756 C1754 1.391 . S
C1756 C1757 1.400 . S
C1757 C1751 1.491 . S
C1757 C1756 1.400 . S
C1757 C1758 1.398 . S
C1758 H1746 0.950 . S
C1758 C1757 1.398 . S
C1758 C1759 1.391 . S
C1759 H1747 0.950 . S
C1759 C1755 1.393 . S
C1759 C1758 1.391 . S
H1760 C1768 0.950 . S
H1761 C1773 0.950 . S
H1762 C1770 0.950 . S
H1763 C1772 0.950 . S
H1764 C1774 0.950 . S
H1765 C1776 0.950 . S
H1766 C1778 0.950 . S
H1767 C1779 0.950 . S
C1768 H1760 0.950 . S
C1768 C1769 1.386 . S
C1768 C1770 1.391 . S
C1769 C1768 1.386 . S
C1769 C1773 1.393 . S
C1770 H1762 0.950 . S
C1770 C1768 1.391 . S
C1770 C1771 1.400 . S
C1771 C1770 1.400 . S
C1771 C1772 1.398 . S
C1771 C1777 1.491 . S
C1772 H1763 0.950 . S
C1772 C1771 1.398 . S
C1772 C1773 1.391 . S
C1773 H1761 0.950 . S
C1773 C1769 1.393 . S
C1773 C1772 1.391 . S
C1774 H1764 0.950 . S
C1774 C1775 1.386 . S
C1774 C1776 1.391 . S
C1775 C1774 1.386 . S
C1775 C1779 1.393 . S
C1776 H1765 0.950 . S
C1776 C1774 1.391 . S
C1776 C1777 1.400 . S
C1777 C1771 1.491 . S
C1777 C1776 1.400 . S
C1777 C1778 1.398 . S
C1778 H1766 0.950 . S
C1778 C1777 1.398 . S
C1778 C1779 1.391 . S
C1779 H1767 0.950 . S
C1779 C1775 1.393 . S
C1779 C1778 1.391 . S
H1780 C1788 0.950 . S
H1781 C1793 0.950 . S
H1782 C1790 0.950 . S
H1783 C1792 0.950 . S
H1784 C1794 0.950 . S
H1785 C1796 0.950 . S
H1786 C1798 0.950 . S
H1787 C1799 0.950 . S
C1788 H1780 0.950 . S
C1788 C1789 1.386 . S
C1788 C1790 1.391 . S
C1789 C1788 1.386 . S
C1789 C1793 1.393 . S
C1790 H1782 0.950 . S
C1790 C1788 1.391 . S
C1790 C1791 1.400 . S
C1791 C1790 1.400 . S
C1791 C1792 1.398 . S
C1791 C1797 1.491 . S
C1792 H1783 0.950 . S
C1792 C1791 1.398 . S
C1792 C1793 1.391 . S
C1793 H1781 0.950 . S
C1793 C1789 1.393 . S
C1793 C1792 1.391 . S
C1794 H1784 0.950 . S
C1794 C1795 1.386 . S
C1794 C1796 1.391 . S
C1795 C1794 1.386 . S
C1795 C1799 1.393 . S
C1796 H1785 0.950 . S
C1796 C1794 1.391 . S
C1796 C1797 1.400 . S
C1797 C1791 1.491 . S
C1797 C1796 1.400 . S
C1797 C1798 1.398 . S
C1798 H1786 0.950 . S
C1798 C1797 1.398 . S
C1798 C1799 1.391 . S
C1799 H1787 0.950 . S
C1799 C1795 1.393 . S
C1799 C1798 1.391 . S
H1800 C1808 0.950 . S
H1801 C1813 0.950 . S
H1802 C1810 0.950 . S
H1803 C1812 0.950 . S
H1804 C1814 0.950 . S
H1805 C1816 0.950 . S
H1806 C1818 0.950 . S
H1807 C1819 0.950 . S
C1808 H1800 0.950 . S
C1808 C1809 1.386 . S
C1808 C1810 1.391 . S
C1809 C1808 1.386 . S
C1809 C1813 1.393 . S
C1810 H1802 0.950 . S
C1810 C1808 1.391 . S
C1810 C1811 1.400 . S
C1811 C1810 1.400 . S
C1811 C1812 1.398 . S
C1811 C1817 1.491 . S
C1812 H1803 0.950 . S
C1812 C1811 1.398 . S
C1812 C1813 1.391 . S
C1813 H1801 0.950 . S
C1813 C1809 1.393 . S
C1813 C1812 1.391 . S
C1814 H1804 0.950 . S
C1814 C1815 1.386 . S
C1814 C1816 1.391 . S
C1815 C1814 1.386 . S
C1815 C1819 1.393 . S
C1816 H1805 0.950 . S
C1816 C1814 1.391 . S
C1816 C1817 1.400 . S
C1817 C1811 1.491 . S
C1817 C1816 1.400 . S
C1817 C1818 1.398 . S
C1818 H1806 0.950 . S
C1818 C1817 1.398 . S
C1818 C1819 1.391 . S
C1819 H1807 0.950 . S
C1819 C1815 1.393 . S
C1819 C1818 1.391 . S
H1820 C1828 0.950 . S
H1821 C1833 0.950 . S
H1822 C1830 0.950 . S
H1823 C1832 0.951 . S
H1824 C1834 0.950 . S
H1825 C1836 0.950 . S
H1826 C1838 0.950 . S
H1827 C1839 0.950 . S
C1828 H1820 0.950 . S
C1828 C1829 1.386 1_565 S
C1828 C1830 1.391 . S
C1829 C1828 1.386 1_545 S
C1829 C1833 1.393 . S
C1830 H1822 0.950 . S
C1830 C1828 1.391 . S
C1830 C1831 1.400 . S
C1831 C1830 1.400 . S
C1831 C1832 1.400 1_565 S
C1831 C1837 1.491 . S
C1832 H1823 0.951 . S
C1832 C1831 1.400 1_545 S
C1832 C1833 1.388 . S
C1833 H1821 0.950 . S
C1833 C1829 1.393 . S
C1833 C1832 1.388 . S
C1834 H1824 0.950 . S
C1834 C1835 1.386 . S
C1834 C1836 1.391 . S
C1835 C1834 1.386 . S
C1835 C1839 1.393 . S
C1836 H1825 0.950 . S
C1836 C1834 1.391 . S
C1836 C1837 1.400 . S
C1837 C1831 1.491 . S
C1837 C1836 1.400 . S
C1837 C1838 1.398 . S
C1838 H1826 0.950 . S
C1838 C1837 1.398 . S
C1838 C1839 1.391 . S
C1839 H1827 0.950 . S
C1839 C1835 1.393 . S
C1839 C1838 1.391 . S
H1840 C1848 0.950 . S
H1841 C1853 0.950 . S
H1842 C1850 0.950 . S
H1843 C1852 0.950 . S
H1844 C1854 0.950 . S
H1845 C1856 0.950 . S
H1846 C1858 0.950 . S
H1847 C1859 0.950 . S
C1848 H1840 0.950 . S
C1848 C1849 1.386 . S
C1848 C1850 1.391 . S
C1849 C1848 1.386 . S
C1849 C1853 1.393 . S
C1850 H1842 0.950 . S
C1850 C1848 1.391 . S
C1850 C1851 1.400 . S
C1851 C1850 1.400 . S
C1851 C1852 1.398 . S
C1851 C1857 1.491 . S
C1852 H1843 0.950 . S
C1852 C1851 1.398 . S
C1852 C1853 1.391 . S
C1853 H1841 0.950 . S
C1853 C1849 1.393 . S
C1853 C1852 1.391 . S
C1854 H1844 0.950 . S
C1854 C1855 1.386 . S
C1854 C1856 1.391 1_655 S
C1855 C1854 1.386 . S
C1855 C1859 1.393 . S
C1856 H1845 0.950 . S
C1856 C1854 1.391 1_455 S
C1856 C1857 1.400 . S
C1857 C1851 1.491 . S
C1857 C1856 1.400 . S
C1857 C1858 1.398 . S
C1858 H1846 0.950 . S
C1858 C1857 1.398 . S
C1858 C1859 1.391 1_455 S
C1859 H1847 0.950 . S
C1859 C1855 1.393 . S
C1859 C1858 1.391 1_655 S
H1860 C1868 0.950 . S
H1861 C1873 0.950 . S
H1862 C1870 0.950 . S
H1863 C1872 0.950 . S
H1864 C1874 0.950 . S
H1865 C1876 0.950 . S
H1866 C1878 0.950 . S
H1867 C1879 0.950 . S
C1868 H1860 0.950 . S
C1868 C1869 1.386 . S
C1868 C1870 1.391 . S
C1869 C1868 1.386 . S
C1869 C1873 1.393 . S
C1870 H1862 0.950 . S
C1870 C1868 1.391 . S
C1870 C1871 1.400 . S
C1871 C1870 1.400 . S
C1871 C1872 1.398 . S
C1871 C1877 1.491 . S
C1872 H1863 0.950 . S
C1872 C1871 1.398 . S
C1872 C1873 1.391 . S
C1873 H1861 0.950 . S
C1873 C1869 1.393 . S
C1873 C1872 1.391 . S
C1874 H1864 0.950 . S
C1874 C1875 1.386 . S
C1874 C1876 1.391 . S
C1875 C1874 1.386 . S
C1875 C1879 1.393 . S
C1876 H1865 0.950 . S
C1876 C1874 1.391 . S
C1876 C1877 1.400 . S
C1877 C1871 1.491 . S
C1877 C1876 1.400 . S
C1877 C1878 1.398 . S
C1878 H1866 0.950 . S
C1878 C1877 1.398 . S
C1878 C1879 1.391 . S
C1879 H1867 0.950 . S
C1879 C1875 1.393 . S
C1879 C1878 1.391 . S
H1880 C1888 0.950 . S
H1881 C1893 0.950 . S
H1882 C1890 0.950 1_565 S
H1883 C1892 0.950 . S
H1884 C1894 0.950 . S
H1885 C1896 0.950 . S
H1886 C1898 0.950 . S
H1887 C1899 0.950 . S
C1888 H1880 0.950 . S
C1888 C1889 1.386 . S
C1888 C1890 1.391 1_565 S
C1889 C1888 1.386 . S
C1889 C1893 1.393 1_565 S
C1890 H1882 0.950 1_545 S
C1890 C1888 1.391 1_545 S
C1890 C1891 1.400 . S
C1891 C1890 1.400 . S
C1891 C1892 1.398 . S
C1891 C1897 1.491 . S
C1892 H1883 0.950 . S
C1892 C1891 1.398 . S
C1892 C1893 1.391 . S
C1893 H1881 0.950 . S
C1893 C1889 1.393 1_545 S
C1893 C1892 1.391 . S
C1894 H1884 0.950 . S
C1894 C1895 1.386 . S
C1894 C1896 1.391 . S
C1895 C1894 1.386 . S
C1895 C1899 1.393 . S
C1896 H1885 0.950 . S
C1896 C1894 1.391 . S
C1896 C1897 1.400 . S
C1897 C1891 1.491 . S
C1897 C1896 1.400 . S
C1897 C1898 1.398 . S
C1898 H1886 0.950 . S
C1898 C1897 1.398 . S
C1898 C1899 1.391 . S
C1899 H1887 0.950 . S
C1899 C1895 1.393 . S
C1899 C1898 1.391 . S
H1900 C1908 0.950 . S
H1901 C1913 0.950 . S
H1902 C1910 0.950 . S
H1903 C1912 0.950 . S
H1904 C1914 0.950 . S
H1905 C1916 0.950 . S
H1906 C1918 0.950 . S
H1907 C1919 0.950 . S
C1908 H1900 0.950 . S
C1908 C1909 1.386 . S
C1908 C1910 1.391 . S
C1909 C1908 1.386 . S
C1909 C1913 1.393 . S
C1910 H1902 0.950 . S
C1910 C1908 1.391 . S
C1910 C1911 1.400 . S
C1911 C1910 1.400 . S
C1911 C1912 1.398 . S
C1911 C1917 1.491 . S
C1912 H1903 0.950 . S
C1912 C1911 1.398 . S
C1912 C1913 1.391 . S
C1913 H1901 0.950 . S
C1913 C1909 1.393 . S
C1913 C1912 1.391 . S
C1914 H1904 0.950 . S
C1914 C1915 1.386 . S
C1914 C1916 1.391 1_455 S
C1915 C1914 1.386 . S
C1915 C1919 1.393 . S
C1916 H1905 0.950 . S
C1916 C1914 1.391 1_655 S
C1916 C1917 1.400 . S
C1917 C1911 1.491 . S
C1917 C1916 1.400 . S
C1917 C1918 1.398 . S
C1918 H1906 0.950 . S
C1918 C1917 1.398 . S
C1918 C1919 1.391 1_655 S
C1919 H1907 0.950 . S
C1919 C1915 1.393 . S
C1919 C1918 1.391 1_455 S
H1920 C1928 0.950 . S
H1921 C1933 0.950 . S
H1922 C1930 0.950 . S
H1923 C1932 0.950 . S
H1924 C1934 0.950 . S
H1925 C1936 0.950 . S
H1926 C1938 0.950 . S
H1927 C1939 0.950 . S
C1928 H1920 0.950 . S
C1928 C1929 1.386 . S
C1928 C1930 1.391 . S
C1929 C1928 1.386 . S
C1929 C1933 1.393 . S
C1930 H1922 0.950 . S
C1930 C1928 1.391 . S
C1930 C1931 1.400 . S
C1931 C1930 1.400 . S
C1931 C1932 1.398 . S
C1931 C1937 1.491 . S
C1932 H1923 0.950 . S
C1932 C1931 1.398 . S
C1932 C1933 1.391 . S
C1933 H1921 0.950 . S
C1933 C1929 1.393 . S
C1933 C1932 1.391 . S
C1934 H1924 0.950 . S
C1934 C1935 1.386 . S
C1934 C1936 1.391 . S
C1935 C1934 1.386 . S
C1935 C1939 1.393 . S
C1936 H1925 0.950 . S
C1936 C1934 1.391 . S
C1936 C1937 1.400 . S
C1937 C1931 1.491 . S
C1937 C1936 1.400 . S
C1937 C1938 1.398 . S
C1938 H1926 0.950 . S
C1938 C1937 1.398 . S
C1938 C1939 1.391 . S
C1939 H1927 0.950 . S
C1939 C1935 1.393 . S
C1939 C1938 1.391 . S
H1940 C1948 0.950 . S
H1941 C1953 0.950 . S
H1942 C1950 0.950 . S
H1943 C1952 0.950 . S
H1944 C1954 0.950 . S
H1945 C1956 0.950 . S
H1946 C1958 0.950 . S
H1947 C1959 0.962 . S
C1948 H1940 0.950 . S
C1948 C1949 1.386 . S
C1948 C1950 1.391 . S
C1949 C1948 1.386 . S
C1949 C1953 1.393 . S
C1950 H1942 0.950 . S
C1950 C1948 1.391 . S
C1950 C1951 1.400 . S
C1951 C1950 1.400 . S
C1951 C1952 1.398 . S
C1951 C1957 1.491 . S
C1952 H1943 0.950 . S
C1952 C1951 1.398 . S
C1952 C1953 1.391 . S
C1953 H1941 0.950 . S
C1953 C1949 1.393 . S
C1953 C1952 1.391 . S
C1954 H1944 0.950 . S
C1954 C1955 1.386 . S
C1954 C1956 1.391 1_565 S
C1955 C1954 1.386 . S
C1955 C1959 1.393 1_565 S
C1956 H1945 0.950 . S
C1956 C1954 1.391 1_545 S
C1956 C1957 1.400 . S
C1957 C1951 1.491 . S
C1957 C1956 1.400 . S
C1957 C1958 1.398 . S
C1958 H1946 0.950 . S
C1958 C1957 1.398 . S
C1958 C1959 1.391 . S
C1959 H1947 0.962 . S
C1959 C1955 1.393 1_545 S
C1959 C1958 1.391 . S
H1960 C1968 0.950 . S
H1961 C1973 0.950 . S
H1962 C1970 0.950 . S
H1963 C1972 0.950 . S
H1964 C1974 0.946 . S
H1965 C1976 0.950 . S
H1966 C1978 0.950 . S
H1967 C1979 0.950 . S
C1968 H1960 0.950 . S
C1968 C1969 1.386 . S
C1968 C1970 1.391 . S
C1969 C1968 1.386 . S
C1969 C1973 1.393 . S
C1970 H1962 0.950 . S
C1970 C1968 1.391 . S
C1970 C1971 1.400 . S
C1971 C1970 1.400 . S
C1971 C1972 1.398 . S
C1971 C1977 1.491 . S
C1972 H1963 0.950 . S
C1972 C1971 1.398 . S
C1972 C1973 1.391 . S
C1973 H1961 0.950 . S
C1973 C1969 1.393 . S
C1973 C1972 1.391 . S
C1974 H1964 0.946 . S
C1974 C1975 1.386 1_655 S
C1974 C1976 1.391 . S
C1975 C1974 1.386 1_455 S
C1975 C1979 1.393 . S
C1976 H1965 0.950 . S
C1976 C1974 1.391 . S
C1976 C1977 1.400 . S
C1977 C1971 1.491 . S
C1977 C1976 1.400 . S
C1977 C1978 1.398 . S
C1978 H1966 0.950 . S
C1978 C1977 1.398 . S
C1978 C1979 1.391 1_655 S
C1979 H1967 0.950 . S
C1979 C1975 1.393 . S
C1979 C1978 1.391 1_455 S
H1980 C1988 0.950 . S
H1981 C1993 0.950 . S
H1982 C1990 0.950 . S
H1983 C1992 0.950 . S
H1984 C1994 0.950 . S
H1985 C1996 0.950 . S
H1986 C1998 0.950 . S
H1987 C1999 0.950 . S
C1988 H1980 0.950 . S
C1988 C1989 1.386 . S
C1988 C1990 1.391 . S
C1989 C1988 1.386 . S
C1989 C1993 1.393 . S
C1990 H1982 0.950 . S
C1990 C1988 1.391 . S
C1990 C1991 1.400 . S
C1991 C1990 1.400 . S
C1991 C1992 1.398 . S
C1991 C1997 1.491 . S
C1992 H1983 0.950 . S
C1992 C1991 1.398 . S
C1992 C1993 1.391 . S
C1993 H1981 0.950 . S
C1993 C1989 1.393 . S
C1993 C1992 1.391 . S
C1994 H1984 0.950 . S
C1994 C1995 1.386 . S
C1994 C1996 1.391 . S
C1995 C1994 1.386 . S
C1995 C1999 1.393 . S
C1996 H1985 0.950 . S
C1996 C1994 1.391 . S
C1996 C1997 1.400 . S
C1997 C1991 1.491 . S
C1997 C1996 1.400 . S
C1997 C1998 1.398 . S
C1998 H1986 0.950 . S
C1998 C1997 1.398 . S
C1998 C1999 1.391 . S
C1999 H1987 0.950 . S
C1999 C1995 1.393 . S
C1999 C1998 1.391 . S
H2000 C2008 0.950 . S
H2001 C2013 0.950 . S
H2002 C2010 0.950 . S
H2003 C2012 0.950 1_545 S
H2004 C2014 0.950 . S
H2005 C2016 0.950 . S
H2006 C2018 0.950 . S
H2007 C2019 0.950 . S
C2008 H2000 0.950 . S
C2008 C2009 1.386 1_565 S
C2008 C2010 1.391 . S
C2009 C2008 1.386 1_545 S
C2009 C2013 1.393 . S
C2010 H2002 0.950 . S
C2010 C2008 1.391 . S
C2010 C2011 1.400 . S
C2011 C2010 1.400 . S
C2011 C2012 1.398 . S
C2011 C2017 1.491 . S
C2012 H2003 0.950 1_565 S
C2012 C2011 1.398 . S
C2012 C2013 1.391 1_565 S
C2013 H2001 0.950 . S
C2013 C2009 1.393 . S
C2013 C2012 1.391 1_545 S
C2014 H2004 0.950 . S
C2014 C2015 1.386 . S
C2014 C2016 1.391 . S
C2015 C2014 1.386 . S
C2015 C2019 1.393 . S
C2016 H2005 0.950 . S
C2016 C2014 1.391 . S
C2016 C2017 1.400 . S
C2017 C2011 1.491 . S
C2017 C2016 1.400 . S
C2017 C2018 1.398 . S
C2018 H2006 0.950 . S
C2018 C2017 1.398 . S
C2018 C2019 1.391 . S
C2019 H2007 0.950 . S
C2019 C2015 1.393 . S
C2019 C2018 1.391 . S
H2020 C2028 0.950 . S
H2021 C2033 0.950 . S
H2022 C2030 0.950 . S
H2023 C2032 0.951 1_655 S
H2024 C2034 0.950 . S
H2025 C2036 0.950 . S
H2026 C2038 0.950 . S
H2027 C2039 0.950 . S
C2028 H2020 0.950 . S
C2028 C2029 1.386 1_455 S
C2028 C2030 1.391 . S
C2029 C2028 1.386 1_655 S
C2029 C2033 1.393 . S
C2030 H2022 0.950 . S
C2030 C2028 1.391 . S
C2030 C2031 1.400 . S
C2031 C2030 1.400 . S
C2031 C2032 1.401 . S
C2031 C2037 1.491 . S
C2032 H2023 0.951 1_455 S
C2032 C2031 1.401 . S
C2032 C2033 1.388 1_455 S
C2033 H2021 0.950 . S
C2033 C2029 1.393 . S
C2033 C2032 1.388 1_655 S
C2034 H2024 0.950 . S
C2034 C2035 1.386 . S
C2034 C2036 1.391 . S
C2035 C2034 1.386 . S
C2035 C2039 1.393 . S
C2036 H2025 0.950 . S
C2036 C2034 1.391 . S
C2036 C2037 1.400 . S
C2037 C2031 1.491 . S
C2037 C2036 1.400 . S
C2037 C2038 1.398 . S
C2038 H2026 0.950 . S
C2038 C2037 1.398 . S
C2038 C2039 1.391 . S
C2039 H2027 0.950 . S
C2039 C2035 1.393 . S
C2039 C2038 1.391 . S
H2040 C2048 0.950 . S
H2041 C2053 0.950 . S
H2042 C2050 0.950 . S
H2043 C2052 0.950 . S
H2044 C2054 0.950 . S
H2045 C2056 0.950 . S
H2046 C2058 0.950 . S
H2047 C2059 0.950 . S
C2048 H2040 0.950 . S
C2048 C2049 1.386 . S
C2048 C2050 1.391 . S
C2049 C2048 1.386 . S
C2049 C2053 1.393 . S
C2050 H2042 0.950 . S
C2050 C2048 1.391 . S
C2050 C2051 1.400 . S
C2051 C2050 1.400 . S
C2051 C2052 1.398 . S
C2051 C2057 1.491 1_655 S
C2052 H2043 0.950 . S
C2052 C2051 1.398 . S
C2052 C2053 1.391 . S
C2053 H2041 0.950 . S
C2053 C2049 1.393 . S
C2053 C2052 1.391 . S
C2054 H2044 0.950 . S
C2054 C2055 1.386 . S
C2054 C2056 1.391 . S
C2055 C2054 1.386 . S
C2055 C2059 1.393 . S
C2056 H2045 0.950 . S
C2056 C2054 1.391 . S
C2056 C2057 1.400 . S
C2057 C2051 1.491 1_455 S
C2057 C2056 1.400 . S
C2057 C2058 1.398 . S
C2058 H2046 0.950 . S
C2058 C2057 1.398 . S
C2058 C2059 1.391 . S
C2059 H2047 0.950 . S
C2059 C2055 1.393 . S
C2059 C2058 1.391 . S
H2060 C2068 0.950 . S
H2061 C2073 0.950 . S
H2062 C2070 0.950 . S
H2063 C2072 0.950 . S
H2064 C2074 0.950 . S
H2065 C2076 0.950 . S
H2066 C2078 0.950 . S
H2067 C2079 0.950 . S
C2068 H2060 0.950 . S
C2068 C2069 1.386 . S
C2068 C2070 1.391 . S
C2069 C2068 1.386 . S
C2069 C2073 1.393 . S
C2070 H2062 0.950 . S
C2070 C2068 1.391 . S
C2070 C2071 1.400 . S
C2071 C2070 1.400 . S
C2071 C2072 1.398 . S
C2071 C2077 1.491 . S
C2072 H2063 0.950 . S
C2072 C2071 1.398 . S
C2072 C2073 1.391 . S
C2073 H2061 0.950 . S
C2073 C2069 1.393 . S
C2073 C2072 1.391 . S
C2074 H2064 0.950 . S
C2074 C2075 1.386 . S
C2074 C2076 1.391 . S
C2075 C2074 1.386 . S
C2075 C2079 1.393 . S
C2076 H2065 0.950 . S
C2076 C2074 1.391 . S
C2076 C2077 1.400 . S
C2077 C2071 1.491 . S
C2077 C2076 1.400 . S
C2077 C2078 1.398 . S
C2078 H2066 0.950 . S
C2078 C2077 1.398 . S
C2078 C2079 1.391 . S
C2079 H2067 0.950 . S
C2079 C2075 1.393 . S
C2079 C2078 1.391 . S
H2080 C2088 0.950 . S
H2081 C2093 0.950 . S
H2082 C2090 0.950 . S
H2083 C2092 0.950 . S
H2084 C2094 0.950 . S
H2085 C2096 0.968 . S
H2086 C2098 0.950 . S
H2087 C2099 0.950 . S
C2088 H2080 0.950 . S
C2088 C2089 1.386 . S
C2088 C2090 1.391 . S
C2089 C2088 1.386 . S
C2089 C2093 1.393 . S
C2090 H2082 0.950 . S
C2090 C2088 1.391 . S
C2090 C2091 1.400 . S
C2091 C2090 1.400 . S
C2091 C2092 1.398 . S
C2091 C2097 1.491 1_565 S
C2092 H2083 0.950 . S
C2092 C2091 1.398 . S
C2092 C2093 1.391 . S
C2093 H2081 0.950 . S
C2093 C2089 1.393 . S
C2093 C2092 1.391 . S
C2094 H2084 0.950 . S
C2094 C2095 1.386 . S
C2094 C2096 1.391 . S
C2095 C2094 1.386 . S
C2095 C2099 1.393 . S
C2096 H2085 0.968 . S
C2096 C2094 1.391 . S
C2096 C2097 1.400 . S
C2097 C2091 1.491 1_545 S
C2097 C2096 1.400 . S
C2097 C2098 1.398 . S
C2098 H2086 0.950 . S
C2098 C2097 1.398 . S
C2098 C2099 1.391 . S
C2099 H2087 0.950 . S
C2099 C2095 1.393 . S
C2099 C2098 1.391 . S
H2100 C2108 0.950 . S
H2101 C2113 0.950 . S
H2102 C2110 0.950 . S
H2103 C2112 0.950 . S
H2104 C2114 0.950 . S
H2105 C2116 0.950 . S
H2106 C2118 0.950 . S
H2107 C2119 0.950 . S
C2108 H2100 0.950 . S
C2108 C2109 1.386 . S
C2108 C2110 1.391 . S
C2109 C2108 1.386 . S
C2109 C2113 1.393 . S
C2110 H2102 0.950 . S
C2110 C2108 1.391 . S
C2110 C2111 1.400 . S
C2111 C2110 1.400 . S
C2111 C2112 1.398 . S
C2111 C2117 1.491 . S
C2112 H2103 0.950 . S
C2112 C2111 1.398 . S
C2112 C2113 1.391 . S
C2113 H2101 0.950 . S
C2113 C2109 1.393 . S
C2113 C2112 1.391 . S
C2114 H2104 0.950 . S
C2114 C2115 1.386 . S
C2114 C2116 1.391 . S
C2115 C2114 1.386 . S
C2115 C2119 1.393 . S
C2116 H2105 0.950 . S
C2116 C2114 1.391 . S
C2116 C2117 1.400 . S
C2117 C2111 1.491 . S
C2117 C2116 1.400 . S
C2117 C2118 1.398 . S
C2118 H2106 0.950 . S
C2118 C2117 1.398 . S
C2118 C2119 1.391 . S
C2119 H2107 0.950 . S
C2119 C2115 1.393 . S
C2119 C2118 1.391 . S
H2120 C2128 0.950 . S
H2121 C2133 0.950 . S
H2122 C2130 0.950 . S
H2123 C2132 0.950 . S
H2124 C2134 0.950 . S
H2125 C2136 0.950 . S
H2126 C2138 0.950 . S
H2127 C2139 0.950 . S
C2128 H2120 0.950 . S
C2128 C2129 1.386 . S
C2128 C2130 1.391 . S
C2129 C2128 1.386 . S
C2129 C2133 1.393 . S
C2130 H2122 0.950 . S
C2130 C2128 1.391 . S
C2130 C2131 1.400 . S
C2131 C2130 1.400 . S
C2131 C2132 1.398 . S
C2131 C2137 1.491 . S
C2132 H2123 0.950 . S
C2132 C2131 1.398 . S
C2132 C2133 1.391 . S
C2133 H2121 0.950 . S
C2133 C2129 1.393 . S
C2133 C2132 1.391 . S
C2134 H2124 0.950 . S
C2134 C2135 1.386 . S
C2134 C2136 1.391 . S
C2135 C2134 1.386 . S
C2135 C2139 1.393 . S
C2136 H2125 0.950 . S
C2136 C2134 1.391 . S
C2136 C2137 1.400 . S
C2137 C2131 1.491 . S
C2137 C2136 1.400 . S
C2137 C2138 1.398 . S
C2138 H2126 0.950 . S
C2138 C2137 1.398 . S
C2138 C2139 1.391 . S
C2139 H2127 0.950 . S
C2139 C2135 1.393 . S
C2139 C2138 1.391 . S
H2140 C2148 0.950 . S
H2141 C2153 0.950 . S
H2142 C2150 0.950 . S
H2143 C2152 0.950 . S
H2144 C2154 0.950 . S
H2145 C2156 0.950 . S
H2146 C2158 0.950 . S
H2147 C2159 0.950 . S
C2148 H2140 0.950 . S
C2148 C2149 1.386 . S
C2148 C2150 1.391 . S
C2149 C2148 1.386 . S
C2149 C2153 1.393 . S
C2150 H2142 0.950 . S
C2150 C2148 1.391 . S
C2150 C2151 1.400 . S
C2151 C2150 1.400 . S
C2151 C2152 1.398 . S
C2151 C2157 1.491 . S
C2152 H2143 0.950 . S
C2152 C2151 1.398 . S
C2152 C2153 1.391 . S
C2153 H2141 0.950 . S
C2153 C2149 1.393 . S
C2153 C2152 1.391 . S
C2154 H2144 0.950 . S
C2154 C2155 1.386 . S
C2154 C2156 1.391 . S
C2155 C2154 1.386 . S
C2155 C2159 1.393 . S
C2156 H2145 0.950 . S
C2156 C2154 1.391 . S
C2156 C2157 1.400 . S
C2157 C2151 1.491 . S
C2157 C2156 1.400 . S
C2157 C2158 1.398 . S
C2158 H2146 0.950 . S
C2158 C2157 1.398 . S
C2158 C2159 1.391 . S
C2159 H2147 0.950 . S
C2159 C2155 1.393 . S
C2159 C2158 1.391 . S
H2160 C2168 0.950 . S
H2161 C2173 0.950 . S
H2162 C2170 0.950 . S
H2163 C2172 0.950 . S
H2164 C2174 0.950 . S
H2165 C2176 0.950 . S
H2166 C2178 0.950 . S
H2167 C2179 0.950 . S
C2168 H2160 0.950 . S
C2168 C2169 1.386 . S
C2168 C2170 1.391 . S
C2169 C2168 1.386 . S
C2169 C2173 1.393 . S
C2170 H2162 0.950 . S
C2170 C2168 1.391 . S
C2170 C2171 1.400 . S
C2171 C2170 1.400 . S
C2171 C2172 1.398 . S
C2171 C2177 1.491 . S
C2172 H2163 0.950 . S
C2172 C2171 1.398 . S
C2172 C2173 1.391 . S
C2173 H2161 0.950 . S
C2173 C2169 1.393 . S
C2173 C2172 1.391 . S
C2174 H2164 0.950 . S
C2174 C2175 1.386 . S
C2174 C2176 1.391 . S
C2175 C2174 1.386 . S
C2175 C2179 1.393 . S
C2176 H2165 0.950 . S
C2176 C2174 1.391 . S
C2176 C2177 1.400 . S
C2177 C2171 1.491 . S
C2177 C2176 1.400 . S
C2177 C2178 1.398 . S
C2178 H2166 0.950 . S
C2178 C2177 1.398 . S
C2178 C2179 1.391 . S
C2179 H2167 0.950 . S
C2179 C2175 1.393 . S
C2179 C2178 1.391 . S
H2180 C2188 0.950 . S
H2181 C2193 0.950 1_655 S
H2182 C2190 0.950 . S
H2183 C2192 0.950 . S
H2184 C2194 0.950 . S
H2185 C2196 0.950 . S
H2186 C2198 0.950 . S
H2187 C2199 0.950 . S
C2188 H2180 0.950 . S
C2188 C2189 1.386 . S
C2188 C2190 1.391 . S
C2189 C2188 1.386 . S
C2189 C2193 1.393 . S
C2190 H2182 0.950 . S
C2190 C2188 1.391 . S
C2190 C2191 1.400 . S
C2191 C2190 1.400 . S
C2191 C2192 1.398 . S
C2191 C2197 1.491 . S
C2192 H2183 0.950 . S
C2192 C2191 1.398 . S
C2192 C2193 1.391 . S
C2193 H2181 0.950 1_455 S
C2193 C2189 1.393 . S
C2193 C2192 1.391 . S
C2194 H2184 0.950 . S
C2194 C2195 1.386 . S
C2194 C2196 1.391 . S
C2195 C2194 1.386 . S
C2195 C2199 1.393 . S
C2196 H2185 0.950 . S
C2196 C2194 1.391 . S
C2196 C2197 1.400 . S
C2197 C2191 1.491 . S
C2197 C2196 1.400 . S
C2197 C2198 1.398 . S
C2198 H2186 0.950 . S
C2198 C2197 1.398 . S
C2198 C2199 1.391 . S
C2199 H2187 0.950 . S
C2199 C2195 1.393 . S
C2199 C2198 1.391 . S
H2200 C2208 0.950 . S
H2201 C2213 0.950 . S
H2202 C2210 0.950 . S
H2203 C2212 0.950 . S
H2204 C2214 0.950 . S
H2205 C2216 0.950 . S
H2206 C2218 0.950 . S
H2207 C2219 0.950 . S
C2208 H2200 0.950 . S
C2208 C2209 1.386 . S
C2208 C2210 1.391 . S
C2209 C2208 1.386 . S
C2209 C2213 1.393 . S
C2210 H2202 0.950 . S
C2210 C2208 1.391 . S
C2210 C2211 1.400 . S
C2211 C2210 1.400 . S
C2211 C2212 1.398 . S
C2211 C2217 1.491 . S
C2212 H2203 0.950 . S
C2212 C2211 1.398 . S
C2212 C2213 1.391 . S
C2213 H2201 0.950 . S
C2213 C2209 1.393 . S
C2213 C2212 1.391 . S
C2214 H2204 0.950 . S
C2214 C2215 1.386 . S
C2214 C2216 1.391 . S
C2215 C2214 1.386 . S
C2215 C2219 1.393 . S
C2216 H2205 0.950 . S
C2216 C2214 1.391 . S
C2216 C2217 1.400 . S
C2217 C2211 1.491 . S
C2217 C2216 1.400 . S
C2217 C2218 1.398 . S
C2218 H2206 0.950 . S
C2218 C2217 1.398 . S
C2218 C2219 1.391 . S
C2219 H2207 0.950 . S
C2219 C2215 1.393 . S
C2219 C2218 1.391 . S
H2220 C2228 0.950 . S
H2221 C2233 0.950 . S
H2222 C2230 0.950 . S
H2223 C2232 0.950 . S
H2224 C2234 0.950 . S
H2225 C2236 0.950 . S
H2226 C2238 0.950 . S
H2227 C2239 0.950 . S
C2228 H2220 0.950 . S
C2228 C2229 1.386 1_556 S
C2228 C2230 1.391 . S
C2229 C2228 1.386 1_554 S
C2229 C2233 1.393 . S
C2230 H2222 0.950 . S
C2230 C2228 1.391 . S
C2230 C2231 1.400 1_556 S
C2231 C2230 1.400 1_554 S
C2231 C2232 1.398 . S
C2231 C2237 1.491 1_565 S
C2232 H2223 0.950 . S
C2232 C2231 1.398 . S
C2232 C2233 1.391 . S
C2233 H2221 0.950 . S
C2233 C2229 1.393 . S
C2233 C2232 1.391 . S
C2234 H2224 0.950 . S
C2234 C2235 1.386 . S
C2234 C2236 1.391 . S
C2235 C2234 1.386 . S
C2235 C2239 1.393 1_554 S
C2236 H2225 0.950 . S
C2236 C2234 1.391 . S
C2236 C2237 1.400 . S
C2237 C2231 1.491 1_545 S
C2237 C2236 1.400 . S
C2237 C2238 1.398 1_554 S
C2238 H2226 0.950 . S
C2238 C2237 1.398 1_556 S
C2238 C2239 1.391 . S
C2239 H2227 0.950 . S
C2239 C2235 1.393 1_556 S
C2239 C2238 1.391 . S
H2240 C2248 0.950 . S
H2241 C2253 0.950 . S
H2242 C2250 0.963 . S
H2243 C2252 0.950 . S
H2244 C2254 0.950 . S
H2245 C2256 0.940 1_455 S
H2246 C2258 0.950 . S
H2247 C2259 0.950 . S
C2248 H2240 0.950 . S
C2248 C2249 1.381 1_556 S
C2248 C2250 1.399 . S
C2249 C2248 1.381 1_554 S
C2249 C2253 1.400 . S
C2250 H2242 0.963 . S
C2250 C2248 1.399 . S
C2250 C2251 1.384 1_556 S
C2251 C2250 1.384 1_554 S
C2251 C2252 1.398 . S
C2251 C2257 1.491 1_455 S
C2252 H2243 0.950 . S
C2252 C2251 1.398 . S
C2252 C2253 1.391 . S
C2253 H2241 0.950 . S
C2253 C2249 1.400 . S
C2253 C2252 1.391 . S
C2254 H2244 0.950 . S
C2254 C2255 1.386 . S
C2254 C2256 1.391 . S
C2255 C2254 1.386 . S
C2255 C2259 1.393 . S
C2256 H2245 0.940 1_655 S
C2256 C2254 1.391 . S
C2256 C2257 1.400 . S
C2257 C2251 1.491 1_655 S
C2257 C2256 1.400 . S
C2257 C2258 1.398 . S
C2258 H2246 0.950 . S
C2258 C2257 1.398 . S
C2258 C2259 1.391 . S
C2259 H2247 0.950 . S
C2259 C2255 1.393 . S
C2259 C2258 1.391 . S
H2260 C2268 0.950 . S
H2261 C2273 0.950 . S
H2262 C2270 0.950 . S
H2263 C2272 0.950 . S
H2264 C2274 0.949 . S
H2265 C2276 0.950 . S
H2266 C2278 0.950 . S
H2267 C2279 0.950 . S
C2268 H2260 0.950 . S
C2268 C2269 1.386 . S
C2268 C2270 1.391 . S
C2269 C2268 1.386 . S
C2269 C2273 1.393 . S
C2270 H2262 0.950 . S
C2270 C2268 1.391 . S
C2270 C2271 1.400 . S
C2271 C2270 1.400 . S
C2271 C2272 1.398 . S
C2271 C2277 1.491 . S
C2272 H2263 0.950 . S
C2272 C2271 1.398 . S
C2272 C2273 1.391 . S
C2273 H2261 0.950 . S
C2273 C2269 1.393 . S
C2273 C2272 1.391 . S
C2274 H2264 0.949 . S
C2274 C2275 1.386 . S
C2274 C2276 1.391 . S
C2275 C2274 1.386 . S
C2275 C2279 1.393 . S
C2276 H2265 0.950 . S
C2276 C2274 1.391 . S
C2276 C2277 1.400 . S
C2277 C2271 1.491 . S
C2277 C2276 1.400 . S
C2277 C2278 1.398 . S
C2278 H2266 0.950 . S
C2278 C2277 1.398 . S
C2278 C2279 1.391 . S
C2279 H2267 0.950 . S
C2279 C2275 1.393 . S
C2279 C2278 1.391 . S
H2280 C2288 0.950 . S
H2281 C2293 0.950 . S
H2282 C2290 0.950 . S
H2283 C2292 0.950 . S
H2284 C2294 0.950 . S
H2285 C2296 0.950 . S
H2286 C2298 0.950 . S
H2287 C2299 0.950 . S
C2288 H2280 0.950 . S
C2288 C2289 1.386 . S
C2288 C2290 1.391 . S
C2289 C2288 1.386 . S
C2289 C2293 1.393 . S
C2290 H2282 0.950 . S
C2290 C2288 1.391 . S
C2290 C2291 1.400 . S
C2291 C2290 1.400 . S
C2291 C2292 1.398 . S
C2291 C2297 1.491 . S
C2292 H2283 0.950 . S
C2292 C2291 1.398 . S
C2292 C2293 1.391 . S
C2293 H2281 0.950 . S
C2293 C2289 1.393 . S
C2293 C2292 1.391 . S
C2294 H2284 0.950 . S
C2294 C2295 1.386 . S
C2294 C2296 1.391 . S
C2295 C2294 1.386 . S
C2295 C2299 1.393 . S
C2296 H2285 0.950 . S
C2296 C2294 1.391 . S
C2296 C2297 1.400 . S
C2297 C2291 1.491 . S
C2297 C2296 1.400 . S
C2297 C2298 1.398 . S
C2298 H2286 0.950 . S
C2298 C2297 1.398 . S
C2298 C2299 1.391 . S
C2299 H2287 0.950 . S
C2299 C2295 1.393 . S
C2299 C2298 1.391 . S
H2300 C2308 0.950 . S
H2301 C2313 0.950 . S
H2302 C2310 0.950 . S
H2303 C2312 0.950 . S
H2304 C2314 0.950 . S
H2305 C2316 0.950 . S
H2306 C2318 0.950 . S
H2307 C2319 0.950 . S
C2308 H2300 0.950 . S
C2308 C2309 1.386 . S
C2308 C2310 1.391 . S
C2309 C2308 1.386 . S
C2309 C2313 1.393 . S
C2310 H2302 0.950 . S
C2310 C2308 1.391 . S
C2310 C2311 1.400 . S
C2311 C2310 1.400 . S
C2311 C2312 1.398 . S
C2311 C2317 1.491 . S
C2312 H2303 0.950 . S
C2312 C2311 1.398 . S
C2312 C2313 1.391 . S
C2313 H2301 0.950 . S
C2313 C2309 1.393 . S
C2313 C2312 1.391 . S
C2314 H2304 0.950 . S
C2314 C2315 1.386 . S
C2314 C2316 1.391 . S
C2315 C2314 1.386 . S
C2315 C2319 1.393 . S
C2316 H2305 0.950 . S
C2316 C2314 1.391 . S
C2316 C2317 1.400 . S
C2317 C2311 1.491 . S
C2317 C2316 1.400 . S
C2317 C2318 1.398 . S
C2318 H2306 0.950 . S
C2318 C2317 1.398 . S
C2318 C2319 1.391 . S
C2319 H2307 0.950 . S
C2319 C2315 1.393 . S
C2319 C2318 1.391 . S
H2320 C2328 0.950 . S
H2321 C2333 0.950 . S
H2322 C2330 0.950 . S
H2323 C2332 0.950 . S
H2324 C2334 0.950 . S
H2325 C2336 0.950 . S
H2326 C2338 0.950 . S
H2327 C2339 0.950 . S
C2328 H2320 0.950 . S
C2328 C2329 1.386 . S
C2328 C2330 1.391 . S
C2329 C2328 1.386 . S
C2329 C2333 1.393 . S
C2330 H2322 0.950 . S
C2330 C2328 1.391 . S
C2330 C2331 1.400 . S
C2331 C2330 1.400 . S
C2331 C2332 1.398 . S
C2331 C2337 1.491 . S
C2332 H2323 0.950 . S
C2332 C2331 1.398 . S
C2332 C2333 1.391 . S
C2333 H2321 0.950 . S
C2333 C2329 1.393 . S
C2333 C2332 1.391 . S
C2334 H2324 0.950 . S
C2334 C2335 1.386 . S
C2334 C2336 1.391 . S
C2335 C2334 1.386 . S
C2335 C2339 1.393 . S
C2336 H2325 0.950 . S
C2336 C2334 1.391 . S
C2336 C2337 1.400 . S
C2337 C2331 1.491 . S
C2337 C2336 1.400 . S
C2337 C2338 1.398 . S
C2338 H2326 0.950 . S
C2338 C2337 1.398 . S
C2338 C2339 1.391 . S
C2339 H2327 0.950 . S
C2339 C2335 1.393 . S
C2339 C2338 1.391 . S
H2340 C2348 0.950 . S
H2341 C2353 0.950 . S
H2342 C2350 0.950 . S
H2343 C2352 0.950 . S
H2344 C2354 0.950 . S
H2345 C2356 0.950 . S
H2346 C2358 0.950 . S
H2347 C2359 0.950 . S
C2348 H2340 0.950 . S
C2348 C2349 1.386 . S
C2348 C2350 1.391 . S
C2349 C2348 1.386 . S
C2349 C2353 1.393 1_556 S
C2350 H2342 0.950 . S
C2350 C2348 1.391 . S
C2350 C2351 1.400 . S
C2351 C2350 1.400 . S
C2351 C2352 1.398 1_556 S
C2351 C2357 1.491 1_565 S
C2352 H2343 0.950 . S
C2352 C2351 1.398 1_554 S
C2352 C2353 1.391 . S
C2353 H2341 0.950 . S
C2353 C2349 1.393 1_554 S
C2353 C2352 1.391 . S
C2354 H2344 0.950 . S
C2354 C2355 1.386 1_554 S
C2354 C2356 1.391 . S
C2355 C2354 1.386 1_556 S
C2355 C2359 1.393 . S
C2356 H2345 0.950 . S
C2356 C2354 1.391 . S
C2356 C2357 1.400 1_554 S
C2357 C2351 1.491 1_545 S
C2357 C2356 1.400 1_556 S
C2357 C2358 1.398 . S
C2358 H2346 0.950 . S
C2358 C2357 1.398 . S
C2358 C2359 1.391 . S
C2359 H2347 0.950 . S
C2359 C2355 1.393 . S
C2359 C2358 1.391 . S
H2360 C2368 0.950 . S
H2361 C2373 0.950 . S
H2362 C2370 0.950 . S
H2363 C2372 0.950 . S
H2364 C2374 0.950 . S
H2365 C2376 0.950 . S
H2366 C2378 0.950 . S
H2367 C2379 0.950 . S
C2368 H2360 0.950 . S
C2368 C2369 1.386 1_554 S
C2368 C2370 1.391 . S
C2369 C2368 1.386 1_556 S
C2369 C2373 1.393 . S
C2370 H2362 0.950 . S
C2370 C2368 1.391 . S
C2370 C2371 1.400 1_554 S
C2371 C2370 1.400 1_556 S
C2371 C2372 1.398 . S
C2371 C2377 1.491 1_655 S
C2372 H2363 0.950 . S
C2372 C2371 1.398 . S
C2372 C2373 1.391 . S
C2373 H2361 0.950 . S
C2373 C2369 1.393 . S
C2373 C2372 1.391 . S
C2374 H2364 0.950 . S
C2374 C2375 1.386 . S
C2374 C2376 1.391 . S
C2375 C2374 1.386 . S
C2375 C2379 1.393 1_556 S
C2376 H2365 0.950 . S
C2376 C2374 1.391 . S
C2376 C2377 1.400 . S
C2377 C2371 1.491 1_455 S
C2377 C2376 1.400 . S
C2377 C2378 1.398 1_556 S
C2378 H2366 0.950 . S
C2378 C2377 1.398 1_554 S
C2378 C2379 1.391 . S
C2379 H2367 0.950 . S
C2379 C2375 1.393 1_554 S
C2379 C2378 1.391 . S
H2380 C2388 0.950 . S
H2381 C2393 0.950 . S
H2382 C2390 0.950 . S
H2383 C2392 0.950 . S
H2384 C2394 0.950 . S
H2385 C2396 0.950 . S
H2386 C2398 0.950 . S
H2387 C2399 0.949 1_554 S
C2388 H2380 0.950 . S
C2388 C2389 1.386 . S
C2388 C2390 1.391 . S
C2389 C2388 1.386 . S
C2389 C2393 1.393 . S
C2390 H2382 0.950 . S
C2390 C2388 1.391 . S
C2390 C2391 1.400 . S
C2391 C2390 1.400 . S
C2391 C2392 1.398 . S
C2391 C2397 1.491 . S
C2392 H2383 0.950 . S
C2392 C2391 1.398 . S
C2392 C2393 1.391 . S
C2393 H2381 0.950 . S
C2393 C2389 1.393 . S
C2393 C2392 1.391 . S
C2394 H2384 0.950 . S
C2394 C2395 1.386 . S
C2394 C2396 1.391 . S
C2395 C2394 1.386 . S
C2395 C2399 1.393 . S
C2396 H2385 0.950 . S
C2396 C2394 1.391 . S
C2396 C2397 1.400 . S
C2397 C2391 1.491 . S
C2397 C2396 1.400 . S
C2397 C2398 1.398 . S
C2398 H2386 0.950 . S
C2398 C2397 1.398 . S
C2398 C2399 1.391 . S
C2399 H2387 0.949 1_556 S
C2399 C2395 1.393 . S
C2399 C2398 1.391 . S
H2400 C2408 0.950 . S
H2401 C2413 0.950 . S
H2402 C2410 0.950 . S
H2403 C2412 0.950 . S
H2404 C2414 0.950 . S
H2405 C2416 0.950 . S
H2406 C2418 0.950 . S
H2407 C2419 0.950 . S
C2408 H2400 0.950 . S
C2408 C2409 1.386 . S
C2408 C2410 1.391 . S
C2409 C2408 1.386 . S
C2409 C2413 1.393 . S
C2410 H2402 0.950 . S
C2410 C2408 1.391 . S
C2410 C2411 1.400 . S
C2411 C2410 1.400 . S
C2411 C2412 1.398 . S
C2411 C2417 1.491 1_455 S
C2412 H2403 0.950 . S
C2412 C2411 1.398 . S
C2412 C2413 1.391 . S
C2413 H2401 0.950 . S
C2413 C2409 1.393 . S
C2413 C2412 1.391 . S
C2414 H2404 0.950 . S
C2414 C2415 1.386 . S
C2414 C2416 1.391 . S
C2415 C2414 1.386 . S
C2415 C2419 1.393 . S
C2416 H2405 0.950 . S
C2416 C2414 1.391 . S
C2416 C2417 1.400 . S
C2417 C2411 1.491 1_655 S
C2417 C2416 1.400 . S
C2417 C2418 1.398 . S
C2418 H2406 0.950 . S
C2418 C2417 1.398 . S
C2418 C2419 1.391 . S
C2419 H2407 0.950 . S
C2419 C2415 1.393 . S
C2419 C2418 1.391 . S
H2420 C2428 0.950 . S
H2421 C2433 0.950 . S
H2422 C2430 0.950 . S
H2423 C2432 0.950 . S
H2424 C2434 0.950 . S
H2425 C2436 0.950 . S
H2426 C2438 0.950 . S
H2427 C2439 0.950 . S
C2428 H2420 0.950 . S
C2428 C2429 1.386 . S
C2428 C2430 1.391 . S
C2429 C2428 1.386 . S
C2429 C2433 1.393 . S
C2430 H2422 0.950 . S
C2430 C2428 1.391 . S
C2430 C2431 1.400 . S
C2431 C2430 1.400 . S
C2431 C2432 1.398 . S
C2431 C2437 1.491 . S
C2432 H2423 0.950 . S
C2432 C2431 1.398 . S
C2432 C2433 1.391 . S
C2433 H2421 0.950 . S
C2433 C2429 1.393 . S
C2433 C2432 1.391 . S
C2434 H2424 0.950 . S
C2434 C2435 1.386 . S
C2434 C2436 1.391 . S
C2435 C2434 1.386 . S
C2435 C2439 1.393 . S
C2436 H2425 0.950 . S
C2436 C2434 1.391 . S
C2436 C2437 1.400 . S
C2437 C2431 1.491 . S
C2437 C2436 1.400 . S
C2437 C2438 1.398 . S
C2438 H2426 0.950 . S
C2438 C2437 1.398 . S
C2438 C2439 1.391 . S
C2439 H2427 0.950 . S
C2439 C2435 1.393 . S
C2439 C2438 1.391 . S
H2440 C2448 0.950 . S
H2441 C2453 0.950 . S
H2442 C2450 0.950 . S
H2443 C2452 0.950 . S
H2444 C2454 0.950 . S
H2445 C2456 0.950 . S
H2446 C2458 0.950 . S
H2447 C2459 0.950 . S
C2448 H2440 0.950 . S
C2448 C2449 1.386 . S
C2448 C2450 1.391 . S
C2449 C2448 1.386 . S
C2449 C2453 1.393 . S
C2450 H2442 0.950 . S
C2450 C2448 1.391 . S
C2450 C2451 1.400 . S
C2451 C2450 1.400 . S
C2451 C2452 1.398 . S
C2451 C2457 1.491 1_565 S
C2452 H2443 0.950 . S
C2452 C2451 1.398 . S
C2452 C2453 1.391 . S
C2453 H2441 0.950 . S
C2453 C2449 1.393 . S
C2453 C2452 1.391 . S
C2454 H2444 0.950 . S
C2454 C2455 1.386 . S
C2454 C2456 1.391 . S
C2455 C2454 1.386 . S
C2455 C2459 1.393 . S
C2456 H2445 0.950 . S
C2456 C2454 1.391 . S
C2456 C2457 1.400 . S
C2457 C2451 1.491 1_545 S
C2457 C2456 1.400 . S
C2457 C2458 1.398 . S
C2458 H2446 0.950 . S
C2458 C2457 1.398 . S
C2458 C2459 1.391 . S
C2459 H2447 0.950 . S
C2459 C2455 1.393 . S
C2459 C2458 1.391 . S
H2460 C2468 0.950 1_455 S
H2461 C2473 0.950 . S
H2462 C2470 0.950 . S
H2463 C2472 0.950 . S
H2464 C2474 0.950 . S
H2465 C2476 0.950 . S
H2466 C2478 0.950 . S
H2467 C2479 0.950 . S
C2468 H2460 0.950 1_655 S
C2468 C2469 1.386 . S
C2468 C2470 1.391 . S
C2469 C2468 1.386 . S
C2469 C2473 1.393 . S
C2470 H2462 0.950 . S
C2470 C2468 1.391 . S
C2470 C2471 1.400 . S
C2471 C2470 1.400 . S
C2471 C2472 1.398 . S
C2471 C2477 1.491 . S
C2472 H2463 0.950 . S
C2472 C2471 1.398 . S
C2472 C2473 1.391 . S
C2473 H2461 0.950 . S
C2473 C2469 1.393 . S
C2473 C2472 1.391 . S
C2474 H2464 0.950 . S
C2474 C2475 1.386 . S
C2474 C2476 1.391 . S
C2475 C2474 1.386 . S
C2475 C2479 1.393 . S
C2476 H2465 0.950 . S
C2476 C2474 1.391 . S
C2476 C2477 1.400 . S
C2477 C2471 1.491 . S
C2477 C2476 1.400 . S
C2477 C2478 1.398 . S
C2478 H2466 0.950 . S
C2478 C2477 1.398 . S
C2478 C2479 1.391 . S
C2479 H2467 0.950 . S
C2479 C2475 1.393 . S
C2479 C2478 1.391 . S
H2480 C2488 0.950 . S
H2481 C2493 0.950 . S
H2482 C2490 0.950 . S
H2483 C2492 0.950 . S
H2484 C2494 0.950 . S
H2485 C2496 0.950 . S
H2486 C2498 0.950 . S
H2487 C2499 0.950 . S
C2488 H2480 0.950 . S
C2488 C2489 1.386 . S
C2488 C2490 1.391 . S
C2489 C2488 1.386 . S
C2489 C2493 1.393 . S
C2490 H2482 0.950 . S
C2490 C2488 1.391 . S
C2490 C2491 1.400 . S
C2491 C2490 1.400 . S
C2491 C2492 1.398 . S
C2491 C2497 1.491 . S
C2492 H2483 0.950 . S
C2492 C2491 1.398 . S
C2492 C2493 1.391 . S
C2493 H2481 0.950 . S
C2493 C2489 1.393 . S
C2493 C2492 1.391 . S
C2494 H2484 0.950 . S
C2494 C2495 1.386 . S
C2494 C2496 1.391 . S
C2495 C2494 1.386 . S
C2495 C2499 1.393 . S
C2496 H2485 0.950 . S
C2496 C2494 1.391 . S
C2496 C2497 1.400 . S
C2497 C2491 1.491 . S
C2497 C2496 1.400 . S
C2497 C2498 1.398 . S
C2498 H2486 0.950 . S
C2498 C2497 1.398 . S
C2498 C2499 1.391 . S
C2499 H2487 0.950 . S
C2499 C2495 1.393 . S
C2499 C2498 1.391 . S
H2500 C2508 0.950 . S
H2501 C2513 0.950 . S
H2502 C2510 0.950 . S
H2503 C2512 0.950 . S
H2504 C2514 0.950 1_565 S
H2505 C2516 0.950 . S
H2506 C2518 0.950 . S
H2507 C2519 0.950 . S
C2508 H2500 0.950 . S
C2508 C2509 1.386 . S
C2508 C2510 1.391 . S
C2509 C2508 1.386 . S
C2509 C2513 1.393 . S
C2510 H2502 0.950 . S
C2510 C2508 1.391 . S
C2510 C2511 1.400 . S
C2511 C2510 1.400 . S
C2511 C2512 1.398 . S
C2511 C2517 1.491 . S
C2512 H2503 0.950 . S
C2512 C2511 1.398 . S
C2512 C2513 1.391 . S
C2513 H2501 0.950 . S
C2513 C2509 1.393 . S
C2513 C2512 1.391 . S
C2514 H2504 0.950 1_545 S
C2514 C2515 1.386 . S
C2514 C2516 1.391 . S
C2515 C2514 1.386 . S
C2515 C2519 1.393 . S
C2516 H2505 0.950 . S
C2516 C2514 1.391 . S
C2516 C2517 1.400 . S
C2517 C2511 1.491 . S
C2517 C2516 1.400 . S
C2517 C2518 1.398 . S
C2518 H2506 0.950 . S
C2518 C2517 1.398 . S
C2518 C2519 1.391 . S
C2519 H2507 0.950 . S
C2519 C2515 1.393 . S
C2519 C2518 1.391 . S
H2520 C2528 0.950 . S
H2521 C2533 0.950 . S
H2522 C2530 0.950 . S
H2523 C2532 0.950 . S
H2524 C2534 0.950 . S
H2525 C2536 0.950 . S
H2526 C2538 0.950 . S
H2527 C2539 0.950 . S
C2528 H2520 0.950 . S
C2528 C2529 1.386 . S
C2528 C2530 1.391 . S
C2529 C2528 1.386 . S
C2529 C2533 1.393 . S
C2530 H2522 0.950 . S
C2530 C2528 1.391 . S
C2530 C2531 1.400 . S
C2531 C2530 1.400 . S
C2531 C2532 1.398 . S
C2531 C2537 1.491 . S
C2532 H2523 0.950 . S
C2532 C2531 1.398 . S
C2532 C2533 1.391 . S
C2533 H2521 0.950 . S
C2533 C2529 1.393 . S
C2533 C2532 1.391 . S
C2534 H2524 0.950 . S
C2534 C2535 1.386 . S
C2534 C2536 1.391 . S
C2535 C2534 1.386 . S
C2535 C2539 1.393 . S
C2536 H2525 0.950 . S
C2536 C2534 1.391 . S
C2536 C2537 1.400 . S
C2537 C2531 1.491 . S
C2537 C2536 1.400 . S
C2537 C2538 1.398 . S
C2538 H2526 0.950 . S
C2538 C2537 1.398 . S
C2538 C2539 1.391 . S
C2539 H2527 0.950 . S
C2539 C2535 1.393 . S
C2539 C2538 1.391 . S
H2540 C2548 0.950 . S
H2541 C2553 0.950 . S
H2542 C2550 0.950 . S
H2543 C2552 0.950 . S
H2544 C2554 0.950 . S
H2545 C2556 0.950 . S
H2546 C2558 0.950 . S
H2547 C2559 0.950 . S
C2548 H2540 0.950 . S
C2548 C2549 1.386 . S
C2548 C2550 1.391 . S
C2549 C2548 1.386 . S
C2549 C2553 1.393 . S
C2550 H2542 0.950 . S
C2550 C2548 1.391 . S
C2550 C2551 1.400 . S
C2551 C2550 1.400 . S
C2551 C2552 1.398 . S
C2551 C2557 1.491 . S
C2552 H2543 0.950 . S
C2552 C2551 1.398 . S
C2552 C2553 1.391 . S
C2553 H2541 0.950 . S
C2553 C2549 1.393 . S
C2553 C2552 1.391 . S
C2554 H2544 0.950 . S
C2554 C2555 1.386 . S
C2554 C2556 1.391 . S
C2555 C2554 1.386 . S
C2555 C2559 1.393 . S
C2556 H2545 0.950 . S
C2556 C2554 1.391 . S
C2556 C2557 1.400 . S
C2557 C2551 1.491 . S
C2557 C2556 1.400 . S
C2557 C2558 1.398 . S
C2558 H2546 0.950 . S
C2558 C2557 1.398 . S
C2558 C2559 1.391 . S
C2559 H2547 0.950 . S
C2559 C2555 1.393 . S
C2559 C2558 1.391 . S
H2560 C2568 0.950 . S
H2561 C2573 0.950 . S
H2562 C2570 0.950 . S
H2563 C2572 0.950 . S
H2564 C2574 0.950 . S
H2565 C2576 0.950 . S
H2566 C2578 0.950 . S
H2567 C2579 0.950 . S
C2568 H2560 0.950 . S
C2568 C2569 1.386 . S
C2568 C2570 1.391 . S
C2569 C2568 1.386 . S
C2569 C2573 1.393 . S
C2570 H2562 0.950 . S
C2570 C2568 1.391 . S
C2570 C2571 1.400 . S
C2571 C2570 1.400 . S
C2571 C2572 1.398 . S
C2571 C2577 1.491 . S
C2572 H2563 0.950 . S
C2572 C2571 1.398 . S
C2572 C2573 1.391 . S
C2573 H2561 0.950 . S
C2573 C2569 1.393 . S
C2573 C2572 1.391 . S
C2574 H2564 0.950 . S
C2574 C2575 1.386 . S
C2574 C2576 1.391 . S
C2575 C2574 1.386 . S
C2575 C2579 1.393 . S
C2576 H2565 0.950 . S
C2576 C2574 1.391 . S
C2576 C2577 1.400 . S
C2577 C2571 1.491 . S
C2577 C2576 1.400 . S
C2577 C2578 1.398 . S
C2578 H2566 0.950 . S
C2578 C2577 1.398 . S
C2578 C2579 1.391 . S
C2579 H2567 0.950 . S
C2579 C2575 1.393 . S
C2579 C2578 1.391 . S
H2580 C2588 0.950 . S
H2581 C2593 0.950 . S
H2582 C2590 0.950 . S
H2583 C2592 0.950 . S
H2584 C2594 0.950 . S
H2585 C2596 0.950 . S
H2586 C2598 0.950 . S
H2587 C2599 0.950 . S
C2588 H2580 0.950 . S
C2588 C2589 1.386 . S
C2588 C2590 1.391 . S
C2589 C2588 1.386 . S
C2589 C2593 1.393 . S
C2590 H2582 0.950 . S
C2590 C2588 1.391 . S
C2590 C2591 1.400 . S
C2591 C2590 1.400 . S
C2591 C2592 1.398 . S
C2591 C2597 1.491 . S
C2592 H2583 0.950 . S
C2592 C2591 1.398 . S
C2592 C2593 1.391 . S
C2593 H2581 0.950 . S
C2593 C2589 1.393 . S
C2593 C2592 1.391 . S
C2594 H2584 0.950 . S
C2594 C2595 1.386 . S
C2594 C2596 1.391 . S
C2595 C2594 1.386 . S
C2595 C2599 1.393 . S
C2596 H2585 0.950 . S
C2596 C2594 1.391 . S
C2596 C2597 1.400 . S
C2597 C2591 1.491 . S
C2597 C2596 1.400 . S
C2597 C2598 1.398 . S
C2598 H2586 0.950 . S
C2598 C2597 1.398 . S
C2598 C2599 1.391 . S
C2599 H2587 0.950 . S
C2599 C2595 1.393 . S
C2599 C2598 1.391 . S
H2600 C2608 0.950 . S
H2601 C2613 0.950 . S
H2602 C2610 0.950 . S
H2603 C2612 0.950 . S
H2604 C2614 0.950 . S
H2605 C2616 0.950 . S
H2606 C2618 0.950 . S
H2607 C2619 0.950 . S
C2608 H2600 0.950 . S
C2608 C2609 1.386 . S
C2608 C2610 1.391 . S
C2609 C2608 1.386 . S
C2609 C2613 1.393 . S
C2610 H2602 0.950 . S
C2610 C2608 1.391 . S
C2610 C2611 1.400 . S
C2611 C2610 1.400 . S
C2611 C2612 1.398 . S
C2611 C2617 1.491 . S
C2612 H2603 0.950 . S
C2612 C2611 1.398 . S
C2612 C2613 1.391 . S
C2613 H2601 0.950 . S
C2613 C2609 1.393 . S
C2613 C2612 1.391 . S
C2614 H2604 0.950 . S
C2614 C2615 1.386 . S
C2614 C2616 1.391 . S
C2615 C2614 1.386 . S
C2615 C2619 1.393 . S
C2616 H2605 0.950 . S
C2616 C2614 1.391 . S
C2616 C2617 1.400 . S
C2617 C2611 1.491 . S
C2617 C2616 1.400 . S
C2617 C2618 1.398 . S
C2618 H2606 0.950 . S
C2618 C2617 1.398 . S
C2618 C2619 1.391 . S
C2619 H2607 0.950 . S
C2619 C2615 1.393 . S
C2619 C2618 1.391 . S
H2620 C2628 0.950 . S
H2621 C2633 0.950 . S
H2622 C2630 0.950 . S
H2623 C2632 0.950 . S
H2624 C2634 0.950 . S
H2625 C2636 0.950 . S
H2626 C2638 0.950 . S
H2627 C2639 0.950 . S
C2628 H2620 0.950 . S
C2628 C2629 1.386 . S
C2628 C2630 1.391 . S
C2629 C2628 1.386 . S
C2629 C2633 1.393 . S
C2630 H2622 0.950 . S
C2630 C2628 1.391 . S
C2630 C2631 1.400 . S
C2631 C2630 1.400 . S
C2631 C2632 1.398 . S
C2631 C2637 1.491 . S
C2632 H2623 0.950 . S
C2632 C2631 1.398 . S
C2632 C2633 1.391 . S
C2633 H2621 0.950 . S
C2633 C2629 1.393 . S
C2633 C2632 1.391 . S
C2634 H2624 0.950 . S
C2634 C2635 1.386 . S
C2634 C2636 1.391 . S
C2635 C2634 1.386 . S
C2635 C2639 1.393 . S
C2636 H2625 0.950 . S
C2636 C2634 1.391 . S
C2636 C2637 1.400 . S
C2637 C2631 1.491 . S
C2637 C2636 1.400 . S
C2637 C2638 1.398 . S
C2638 H2626 0.950 . S
C2638 C2637 1.398 . S
C2638 C2639 1.391 . S
C2639 H2627 0.950 . S
C2639 C2635 1.393 . S
C2639 C2638 1.391 . S
H2640 C2648 0.950 . S
H2641 C2653 0.950 . S
H2642 C2650 0.950 . S
H2643 C2652 0.950 . S
H2644 C2654 0.950 . S
H2645 C2656 0.950 . S
H2646 C2658 0.950 . S
H2647 C2659 0.950 . S
C2648 H2640 0.950 . S
C2648 C2649 1.386 . S
C2648 C2650 1.391 . S
C2649 C2648 1.386 . S
C2649 C2653 1.393 . S
C2650 H2642 0.950 . S
C2650 C2648 1.391 . S
C2650 C2651 1.400 . S
C2651 C2650 1.400 . S
C2651 C2652 1.398 . S
C2651 C2657 1.491 . S
C2652 H2643 0.950 . S
C2652 C2651 1.398 . S
C2652 C2653 1.391 . S
C2653 H2641 0.950 . S
C2653 C2649 1.393 . S
C2653 C2652 1.391 . S
C2654 H2644 0.950 . S
C2654 C2655 1.386 . S
C2654 C2656 1.391 . S
C2655 C2654 1.386 . S
C2655 C2659 1.393 . S
C2656 H2645 0.950 . S
C2656 C2654 1.391 . S
C2656 C2657 1.400 . S
C2657 C2651 1.491 . S
C2657 C2656 1.400 . S
C2657 C2658 1.398 . S
C2658 H2646 0.950 . S
C2658 C2657 1.398 . S
C2658 C2659 1.391 . S
C2659 H2647 0.950 . S
C2659 C2655 1.393 . S
C2659 C2658 1.391 . S
H2660 C2668 0.950 . S
H2661 C2673 0.950 . S
H2662 C2670 0.950 . S
H2663 C2672 0.950 . S
H2664 C2674 0.950 . S
H2665 C2676 0.950 . S
H2666 C2678 0.950 . S
H2667 C2679 0.950 . S
C2668 H2660 0.950 . S
C2668 C2669 1.386 . S
C2668 C2670 1.391 . S
C2669 C2668 1.386 . S
C2669 C2673 1.393 . S
C2670 H2662 0.950 . S
C2670 C2668 1.391 . S
C2670 C2671 1.400 . S
C2671 C2670 1.400 . S
C2671 C2672 1.398 . S
C2671 C2677 1.491 . S
C2672 H2663 0.950 . S
C2672 C2671 1.398 . S
C2672 C2673 1.391 . S
C2673 H2661 0.950 . S
C2673 C2669 1.393 . S
C2673 C2672 1.391 . S
C2674 H2664 0.950 . S
C2674 C2675 1.386 . S
C2674 C2676 1.391 . S
C2675 C2674 1.386 . S
C2675 C2679 1.393 . S
C2676 H2665 0.950 . S
C2676 C2674 1.391 . S
C2676 C2677 1.400 . S
C2677 C2671 1.491 . S
C2677 C2676 1.400 . S
C2677 C2678 1.398 . S
C2678 H2666 0.950 . S
C2678 C2677 1.398 . S
C2678 C2679 1.391 . S
C2679 H2667 0.950 . S
C2679 C2675 1.393 . S
C2679 C2678 1.391 . S
H2680 C2688 0.950 . S
H2681 C2693 0.950 . S
H2682 C2690 0.950 . S
H2683 C2692 0.950 . S
H2684 C2694 0.950 . S
H2685 C2696 0.950 . S
H2686 C2698 0.950 . S
H2687 C2699 0.950 . S
C2688 H2680 0.950 . S
C2688 C2689 1.386 . S
C2688 C2690 1.391 . S
C2689 C2688 1.386 . S
C2689 C2693 1.393 . S
C2690 H2682 0.950 . S
C2690 C2688 1.391 . S
C2690 C2691 1.400 . S
C2691 C2690 1.400 . S
C2691 C2692 1.398 . S
C2691 C2697 1.491 . S
C2692 H2683 0.950 . S
C2692 C2691 1.398 . S
C2692 C2693 1.391 . S
C2693 H2681 0.950 . S
C2693 C2689 1.393 . S
C2693 C2692 1.391 . S
C2694 H2684 0.950 . S
C2694 C2695 1.386 . S
C2694 C2696 1.391 . S
C2695 C2694 1.386 . S
C2695 C2699 1.393 . S
C2696 H2685 0.950 . S
C2696 C2694 1.391 . S
C2696 C2697 1.400 . S
C2697 C2691 1.491 . S
C2697 C2696 1.400 . S
C2697 C2698 1.398 . S
C2698 H2686 0.950 . S
C2698 C2697 1.398 . S
C2698 C2699 1.391 . S
C2699 H2687 0.950 . S
C2699 C2695 1.393 . S
C2699 C2698 1.391 . S
H2700 C2708 0.950 . S
H2701 C2713 0.950 . S
H2702 C2710 0.950 . S
H2703 C2712 0.950 . S
H2704 C2714 0.950 . S
H2705 C2716 0.950 . S
H2706 C2718 0.950 . S
H2707 C2719 0.950 . S
C2708 H2700 0.950 . S
C2708 C2709 1.386 . S
C2708 C2710 1.391 . S
C2709 C2708 1.386 . S
C2709 C2713 1.393 . S
C2710 H2702 0.950 . S
C2710 C2708 1.391 . S
C2710 C2711 1.400 . S
C2711 C2710 1.400 . S
C2711 C2712 1.398 . S
C2711 C2717 1.491 . S
C2712 H2703 0.950 . S
C2712 C2711 1.398 . S
C2712 C2713 1.391 . S
C2713 H2701 0.950 . S
C2713 C2709 1.393 . S
C2713 C2712 1.391 . S
C2714 H2704 0.950 . S
C2714 C2715 1.386 . S
C2714 C2716 1.391 . S
C2715 C2714 1.386 . S
C2715 C2719 1.393 . S
C2716 H2705 0.950 . S
C2716 C2714 1.391 . S
C2716 C2717 1.400 . S
C2717 C2711 1.491 . S
C2717 C2716 1.400 . S
C2717 C2718 1.398 . S
C2718 H2706 0.950 . S
C2718 C2717 1.398 . S
C2718 C2719 1.391 . S
C2719 H2707 0.950 . S
C2719 C2715 1.393 . S
C2719 C2718 1.391 . S
H2720 C2728 0.950 . S
H2721 C2733 0.950 . S
H2722 C2730 0.950 . S
H2723 C2732 0.950 . S
H2724 C2734 0.950 . S
H2725 C2736 0.950 . S
H2726 C2738 0.950 . S
H2727 C2739 0.950 . S
C2728 H2720 0.950 . S
C2728 C2729 1.386 . S
C2728 C2730 1.391 . S
C2729 C2728 1.386 . S
C2729 C2733 1.393 . S
C2730 H2722 0.950 . S
C2730 C2728 1.391 . S
C2730 C2731 1.400 . S
C2731 C2730 1.400 . S
C2731 C2732 1.398 . S
C2731 C2737 1.491 . S
C2732 H2723 0.950 . S
C2732 C2731 1.398 . S
C2732 C2733 1.391 . S
C2733 H2721 0.950 . S
C2733 C2729 1.393 . S
C2733 C2732 1.391 . S
C2734 H2724 0.950 . S
C2734 C2735 1.386 . S
C2734 C2736 1.391 . S
C2735 C2734 1.386 . S
C2735 C2739 1.393 . S
C2736 H2725 0.950 . S
C2736 C2734 1.391 . S
C2736 C2737 1.400 . S
C2737 C2731 1.491 . S
C2737 C2736 1.400 . S
C2737 C2738 1.398 . S
C2738 H2726 0.950 . S
C2738 C2737 1.398 . S
C2738 C2739 1.391 . S
C2739 H2727 0.950 . S
C2739 C2735 1.393 . S
C2739 C2738 1.391 . S
H2740 C2748 0.950 . S
H2741 C2753 0.950 . S
H2742 C2750 0.950 . S
H2743 C2752 0.950 . S
H2744 C2754 0.950 . S
H2745 C2756 0.950 . S
H2746 C2758 0.950 . S
H2747 C2759 0.950 . S
C2748 H2740 0.950 . S
C2748 C2749 1.386 . S
C2748 C2750 1.391 . S
C2749 C2748 1.386 . S
C2749 C2753 1.393 . S
C2750 H2742 0.950 . S
C2750 C2748 1.391 . S
C2750 C2751 1.400 . S
C2751 C2750 1.400 . S
C2751 C2752 1.398 . S
C2751 C2757 1.491 . S
C2752 H2743 0.950 . S
C2752 C2751 1.398 . S
C2752 C2753 1.391 . S
C2753 H2741 0.950 . S
C2753 C2749 1.393 . S
C2753 C2752 1.391 . S
C2754 H2744 0.950 . S
C2754 C2755 1.386 . S
C2754 C2756 1.391 . S
C2755 C2754 1.386 . S
C2755 C2759 1.393 . S
C2756 H2745 0.950 . S
C2756 C2754 1.391 . S
C2756 C2757 1.400 . S
C2757 C2751 1.491 . S
C2757 C2756 1.400 . S
C2757 C2758 1.398 . S
C2758 H2746 0.950 . S
C2758 C2757 1.398 . S
C2758 C2759 1.391 . S
C2759 H2747 0.950 . S
C2759 C2755 1.393 . S
C2759 C2758 1.391 . S
H2760 C2768 0.950 . S
H2761 C2773 0.950 . S
H2762 C2770 0.950 . S
H2763 C2772 0.950 . S
H2764 C2774 0.950 . S
H2765 C2776 0.950 . S
H2766 C2778 0.950 . S
H2767 C2779 0.950 . S
C2768 H2760 0.950 . S
C2768 C2769 1.386 . S
C2768 C2770 1.391 1_655 S
C2769 C2768 1.386 . S
C2769 C2773 1.393 . S
C2770 H2762 0.950 . S
C2770 C2768 1.391 1_455 S
C2770 C2771 1.400 1_455 S
C2771 C2770 1.400 1_655 S
C2771 C2772 1.398 . S
C2771 C2777 1.491 1_655 S
C2772 H2763 0.950 . S
C2772 C2771 1.398 . S
C2772 C2773 1.391 . S
C2773 H2761 0.950 . S
C2773 C2769 1.393 . S
C2773 C2772 1.391 . S
C2774 H2764 0.950 . S
C2774 C2775 1.386 . S
C2774 C2776 1.391 1_455 S
C2775 C2774 1.386 . S
C2775 C2779 1.393 . S
C2776 H2765 0.950 . S
C2776 C2774 1.391 1_655 S
C2776 C2777 1.400 1_655 S
C2777 C2771 1.491 1_455 S
C2777 C2776 1.400 1_455 S
C2777 C2778 1.398 . S
C2778 H2766 0.950 . S
C2778 C2777 1.398 . S
C2778 C2779 1.391 . S
C2779 H2767 0.950 . S
C2779 C2775 1.393 . S
C2779 C2778 1.391 . S
H2780 C2788 0.950 . S
H2781 C2793 0.950 . S
H2782 C2790 0.950 . S
H2783 C2792 0.950 . S
H2784 C2794 0.950 . S
H2785 C2796 0.950 . S
H2786 C2798 0.950 . S
H2787 C2799 0.950 . S
C2788 H2780 0.950 . S
C2788 C2789 1.386 . S
C2788 C2790 1.391 . S
C2789 C2788 1.386 . S
C2789 C2793 1.393 . S
C2790 H2782 0.950 . S
C2790 C2788 1.391 . S
C2790 C2791 1.400 . S
C2791 C2790 1.400 . S
C2791 C2792 1.398 . S
C2791 C2797 1.491 . S
C2792 H2783 0.950 . S
C2792 C2791 1.398 . S
C2792 C2793 1.391 . S
C2793 H2781 0.950 . S
C2793 C2789 1.393 . S
C2793 C2792 1.391 . S
C2794 H2784 0.950 . S
C2794 C2795 1.386 . S
C2794 C2796 1.391 . S
C2795 C2794 1.386 . S
C2795 C2799 1.393 . S
C2796 H2785 0.950 . S
C2796 C2794 1.391 . S
C2796 C2797 1.400 . S
C2797 C2791 1.491 . S
C2797 C2796 1.400 . S
C2797 C2798 1.398 . S
C2798 H2786 0.950 . S
C2798 C2797 1.398 . S
C2798 C2799 1.391 . S
C2799 H2787 0.950 . S
C2799 C2795 1.393 . S
C2799 C2798 1.391 . S
H2800 C2808 0.950 . S
H2801 C2813 0.950 . S
H2802 C2810 0.950 . S
H2803 C2812 0.950 . S
H2804 C2814 0.950 . S
H2805 C2816 0.950 . S
H2806 C2818 0.950 . S
H2807 C2819 0.950 . S
C2808 H2800 0.950 . S
C2808 C2809 1.386 . S
C2808 C2810 1.391 . S
C2809 C2808 1.386 . S
C2809 C2813 1.393 . S
C2810 H2802 0.950 . S
C2810 C2808 1.391 . S
C2810 C2811 1.400 . S
C2811 C2810 1.400 . S
C2811 C2812 1.398 1_545 S
C2811 C2817 1.491 1_545 S
C2812 H2803 0.950 . S
C2812 C2811 1.398 1_565 S
C2812 C2813 1.391 1_565 S
C2813 H2801 0.950 . S
C2813 C2809 1.393 . S
C2813 C2812 1.391 1_545 S
C2814 H2804 0.950 . S
C2814 C2815 1.386 . S
C2814 C2816 1.391 . S
C2815 C2814 1.386 . S
C2815 C2819 1.393 . S
C2816 H2805 0.950 . S
C2816 C2814 1.391 . S
C2816 C2817 1.400 . S
C2817 C2811 1.491 1_565 S
C2817 C2816 1.400 . S
C2817 C2818 1.398 1_565 S
C2818 H2806 0.950 . S
C2818 C2817 1.398 1_545 S
C2818 C2819 1.391 1_545 S
C2819 H2807 0.950 . S
C2819 C2815 1.393 . S
C2819 C2818 1.391 1_565 S
H2820 C2828 0.950 . S
H2821 C2833 0.950 . S
H2822 C2830 0.950 . S
H2823 C2832 0.950 . S
H2824 C2834 0.950 . S
H2825 C2836 0.950 . S
H2826 C2838 0.950 . S
H2827 C2839 0.950 . S
C2828 H2820 0.950 . S
C2828 C2829 1.386 . S
C2828 C2830 1.391 . S
C2829 C2828 1.386 . S
C2829 C2833 1.393 . S
C2830 H2822 0.950 . S
C2830 C2828 1.391 . S
C2830 C2831 1.400 . S
C2831 C2830 1.400 . S
C2831 C2832 1.398 1_545 S
C2831 C2837 1.491 1_545 S
C2832 H2823 0.950 . S
C2832 C2831 1.398 1_565 S
C2832 C2833 1.391 1_565 S
C2833 H2821 0.950 . S
C2833 C2829 1.393 . S
C2833 C2832 1.391 1_545 S
C2834 H2824 0.950 . S
C2834 C2835 1.386 . S
C2834 C2836 1.391 . S
C2835 C2834 1.386 . S
C2835 C2839 1.393 . S
C2836 H2825 0.950 . S
C2836 C2834 1.391 . S
C2836 C2837 1.400 . S
C2837 C2831 1.491 1_565 S
C2837 C2836 1.400 . S
C2837 C2838 1.398 1_565 S
C2838 H2826 0.950 . S
C2838 C2837 1.398 1_545 S
C2838 C2839 1.391 1_545 S
C2839 H2827 0.950 . S
C2839 C2835 1.393 . S
C2839 C2838 1.391 1_565 S
H2840 C2848 0.950 . S
H2841 C2853 0.950 . S
H2842 C2850 0.971 . S
H2843 C2852 0.950 . S
H2844 C2854 0.950 . S
H2845 C2856 0.971 . S
H2846 C2858 0.950 . S
H2847 C2859 0.950 . S
C2848 H2840 0.950 . S
C2848 C2849 1.386 . S
C2848 C2850 1.374 1_455 S
C2849 C2848 1.386 . S
C2849 C2853 1.393 . S
C2850 H2842 0.971 . S
C2850 C2848 1.374 1_655 S
C2850 C2851 1.398 1_655 S
C2851 C2850 1.398 1_455 S
C2851 C2852 1.398 . S
C2851 C2857 1.491 1_455 S
C2852 H2843 0.950 . S
C2852 C2851 1.398 . S
C2852 C2853 1.391 . S
C2853 H2841 0.950 . S
C2853 C2849 1.393 . S
C2853 C2852 1.391 . S
C2854 H2844 0.950 . S
C2854 C2855 1.386 . S
C2854 C2856 1.374 1_655 S
C2855 C2854 1.386 . S
C2855 C2859 1.393 . S
C2856 H2845 0.971 . S
C2856 C2854 1.374 1_455 S
C2856 C2857 1.398 1_455 S
C2857 C2851 1.491 1_655 S
C2857 C2856 1.398 1_655 S
C2857 C2858 1.398 . S
C2858 H2846 0.950 . S
C2858 C2857 1.398 . S
C2858 C2859 1.391 . S
C2859 H2847 0.950 . S
C2859 C2855 1.393 . S
C2859 C2858 1.391 . S
H2860 C2868 0.950 . S
H2861 C2873 0.950 . S
H2862 C2870 0.950 . S
H2863 C2872 0.950 . S
H2864 C2874 0.950 . S
H2865 C2876 0.950 . S
H2866 C2878 0.950 . S
H2867 C2879 0.950 . S
C2868 H2860 0.950 . S
C2868 C2869 1.386 . S
C2868 C2870 1.391 . S
C2869 C2868 1.386 . S
C2869 C2873 1.393 . S
C2870 H2862 0.950 . S
C2870 C2868 1.391 . S
C2870 C2871 1.400 . S
C2871 C2870 1.400 . S
C2871 C2872 1.398 . S
C2871 C2877 1.491 . S
C2872 H2863 0.950 . S
C2872 C2871 1.398 . S
C2872 C2873 1.391 . S
C2873 H2861 0.950 . S
C2873 C2869 1.393 . S
C2873 C2872 1.391 . S
C2874 H2864 0.950 . S
C2874 C2875 1.386 . S
C2874 C2876 1.391 . S
C2875 C2874 1.386 . S
C2875 C2879 1.393 . S
C2876 H2865 0.950 . S
C2876 C2874 1.391 . S
C2876 C2877 1.400 . S
C2877 C2871 1.491 . S
C2877 C2876 1.400 . S
C2877 C2878 1.398 . S
C2878 H2866 0.950 . S
C2878 C2877 1.398 . S
C2878 C2879 1.391 . S
C2879 H2867 0.950 . S
C2879 C2875 1.393 . S
C2879 C2878 1.391 . S
H2880 C2888 0.950 . S
H2881 C2893 0.950 . S
H2882 C2890 0.950 . S
H2883 C2892 0.950 . S
H2884 C2894 0.950 . S
H2885 C2896 0.950 . S
H2886 C2898 0.950 . S
H2887 C2899 0.950 . S
C2888 H2880 0.950 . S
C2888 C2889 1.386 . S
C2888 C2890 1.391 . S
C2889 C2888 1.386 . S
C2889 C2893 1.393 . S
C2890 H2882 0.950 . S
C2890 C2888 1.391 . S
C2890 C2891 1.400 . S
C2891 C2890 1.400 . S
C2891 C2892 1.398 . S
C2891 C2897 1.491 1_655 S
C2892 H2883 0.950 . S
C2892 C2891 1.398 . S
C2892 C2893 1.391 . S
C2893 H2881 0.950 . S
C2893 C2889 1.393 . S
C2893 C2892 1.391 . S
C2894 H2884 0.950 . S
C2894 C2895 1.386 . S
C2894 C2896 1.391 . S
C2895 C2894 1.386 . S
C2895 C2899 1.393 . S
C2896 H2885 0.950 . S
C2896 C2894 1.391 . S
C2896 C2897 1.400 . S
C2897 C2891 1.491 1_455 S
C2897 C2896 1.400 . S
C2897 C2898 1.398 . S
C2898 H2886 0.950 . S
C2898 C2897 1.398 . S
C2898 C2899 1.391 . S
C2899 H2887 0.950 . S
C2899 C2895 1.393 . S
C2899 C2898 1.391 . S
H2900 C2908 0.950 . S
H2901 C2913 0.950 . S
H2902 C2910 0.950 . S
H2903 C2912 0.950 . S
H2904 C2914 0.950 . S
H2905 C2916 0.950 . S
H2906 C2918 0.950 . S
H2907 C2919 0.950 . S
C2908 H2900 0.950 . S
C2908 C2909 1.386 . S
C2908 C2910 1.391 . S
C2909 C2908 1.386 . S
C2909 C2913 1.393 . S
C2910 H2902 0.950 . S
C2910 C2908 1.391 . S
C2910 C2911 1.400 . S
C2911 C2910 1.400 . S
C2911 C2912 1.398 . S
C2911 C2917 1.491 . S
C2912 H2903 0.950 . S
C2912 C2911 1.398 . S
C2912 C2913 1.391 . S
C2913 H2901 0.950 . S
C2913 C2909 1.393 . S
C2913 C2912 1.391 . S
C2914 H2904 0.950 . S
C2914 C2915 1.386 . S
C2914 C2916 1.391 . S
C2915 C2914 1.386 . S
C2915 C2919 1.393 . S
C2916 H2905 0.950 . S
C2916 C2914 1.391 . S
C2916 C2917 1.400 . S
C2917 C2911 1.491 . S
C2917 C2916 1.400 . S
C2917 C2918 1.398 . S
C2918 H2906 0.950 . S
C2918 C2917 1.398 . S
C2918 C2919 1.391 . S
C2919 H2907 0.950 . S
C2919 C2915 1.393 . S
C2919 C2918 1.391 . S
H2920 C2928 0.950 . S
H2921 C2933 0.950 . S
H2922 C2930 0.950 . S
H2923 C2932 0.950 . S
H2924 C2934 0.950 . S
H2925 C2936 0.950 . S
H2926 C2938 0.950 . S
H2927 C2939 0.950 . S
C2928 H2920 0.950 . S
C2928 C2929 1.386 . S
C2928 C2930 1.391 . S
C2929 C2928 1.386 . S
C2929 C2933 1.393 . S
C2930 H2922 0.950 . S
C2930 C2928 1.391 . S
C2930 C2931 1.400 . S
C2931 C2930 1.400 . S
C2931 C2932 1.398 . S
C2931 C2937 1.491 1_545 S
C2932 H2923 0.950 . S
C2932 C2931 1.398 . S
C2932 C2933 1.391 . S
C2933 H2921 0.950 . S
C2933 C2929 1.393 . S
C2933 C2932 1.391 . S
C2934 H2924 0.950 . S
C2934 C2935 1.386 . S
C2934 C2936 1.391 . S
C2935 C2934 1.386 . S
C2935 C2939 1.393 . S
C2936 H2925 0.950 . S
C2936 C2934 1.391 . S
C2936 C2937 1.400 . S
C2937 C2931 1.491 1_565 S
C2937 C2936 1.400 . S
C2937 C2938 1.398 . S
C2938 H2926 0.950 . S
C2938 C2937 1.398 . S
C2938 C2939 1.391 . S
C2939 H2927 0.950 . S
C2939 C2935 1.393 . S
C2939 C2938 1.391 . S
H2940 C2948 0.950 . S
H2941 C2953 0.950 . S
H2942 C2950 0.950 . S
H2943 C2952 0.950 1_455 S
H2944 C2954 0.950 . S
H2945 C2956 0.950 . S
H2946 C2958 0.950 1_655 S
H2947 C2959 0.950 . S
C2948 H2940 0.950 . S
C2948 C2949 1.386 . S
C2948 C2950 1.391 . S
C2949 C2948 1.386 . S
C2949 C2953 1.393 . S
C2950 H2942 0.950 . S
C2950 C2948 1.391 . S
C2950 C2951 1.400 . S
C2951 C2950 1.400 . S
C2951 C2952 1.398 . S
C2951 C2957 1.491 1_655 S
C2952 H2943 0.950 1_655 S
C2952 C2951 1.398 . S
C2952 C2953 1.391 . S
C2953 H2941 0.950 . S
C2953 C2949 1.393 . S
C2953 C2952 1.391 . S
C2954 H2944 0.950 . S
C2954 C2955 1.386 . S
C2954 C2956 1.391 . S
C2955 C2954 1.386 . S
C2955 C2959 1.393 . S
C2956 H2945 0.950 . S
C2956 C2954 1.391 . S
C2956 C2957 1.400 . S
C2957 C2951 1.491 1_455 S
C2957 C2956 1.400 . S
C2957 C2958 1.398 . S
C2958 H2946 0.950 1_455 S
C2958 C2957 1.398 . S
C2958 C2959 1.391 . S
C2959 H2947 0.950 . S
C2959 C2955 1.393 . S
C2959 C2958 1.391 . S
H2960 C2968 0.950 . S
H2961 C2973 0.950 . S
H2962 C2970 0.950 . S
H2963 C2972 0.950 . S
H2964 C2974 0.950 . S
H2965 C2976 0.950 . S
H2966 C2978 0.950 . S
H2967 C2979 0.950 . S
C2968 H2960 0.950 . S
C2968 C2969 1.386 . S
C2968 C2970 1.391 . S
C2969 C2968 1.386 . S
C2969 C2973 1.393 . S
C2970 H2962 0.950 . S
C2970 C2968 1.391 . S
C2970 C2971 1.400 . S
C2971 C2970 1.400 . S
C2971 C2972 1.398 . S
C2971 C2977 1.491 . S
C2972 H2963 0.950 . S
C2972 C2971 1.398 . S
C2972 C2973 1.391 . S
C2973 H2961 0.950 . S
C2973 C2969 1.393 . S
C2973 C2972 1.391 . S
C2974 H2964 0.950 . S
C2974 C2975 1.386 . S
C2974 C2976 1.391 . S
C2975 C2974 1.386 . S
C2975 C2979 1.393 . S
C2976 H2965 0.950 . S
C2976 C2974 1.391 . S
C2976 C2977 1.400 . S
C2977 C2971 1.491 . S
C2977 C2976 1.400 . S
C2977 C2978 1.398 . S
C2978 H2966 0.950 . S
C2978 C2977 1.398 . S
C2978 C2979 1.391 . S
C2979 H2967 0.950 . S
C2979 C2975 1.393 . S
C2979 C2978 1.391 . S
H2980 C2988 0.950 . S
H2981 C2993 0.950 . S
H2982 C2990 0.950 . S
H2983 C2992 0.923 1_565 S
H2984 C2994 0.950 . S
H2985 C2996 0.950 . S
H2986 C2998 0.923 1_545 S
H2987 C2999 0.950 . S
C2988 H2980 0.950 . S
C2988 C2989 1.386 . S
C2988 C2990 1.391 . S
C2989 C2988 1.386 . S
C2989 C2993 1.393 . S
C2990 H2982 0.950 . S
C2990 C2988 1.391 . S
C2990 C2991 1.400 . S
C2991 C2990 1.400 . S
C2991 C2992 1.408 . S
C2991 C2997 1.491 1_545 S
C2992 H2983 0.923 1_545 S
C2992 C2991 1.408 . S
C2992 C2993 1.408 . S
C2993 H2981 0.950 . S
C2993 C2989 1.393 . S
C2993 C2992 1.408 . S
C2994 H2984 0.950 . S
C2994 C2995 1.386 . S
C2994 C2996 1.391 . S
C2995 C2994 1.386 . S
C2995 C2999 1.393 . S
C2996 H2985 0.950 . S
C2996 C2994 1.391 . S
C2996 C2997 1.400 . S
C2997 C2991 1.491 1_565 S
C2997 C2996 1.400 . S
C2997 C2998 1.408 . S
C2998 H2986 0.923 1_565 S
C2998 C2997 1.408 . S
C2998 C2999 1.408 . S
C2999 H2987 0.950 . S
C2999 C2995 1.393 . S
C2999 C2998 1.408 . S
H3000 C3008 0.950 . S
H3001 C3013 0.950 . S
H3002 C3010 0.950 . S
H3003 C3012 0.950 . S
H3004 C3014 0.950 . S
H3005 C3016 0.950 . S
H3006 C3018 0.950 . S
H3007 C3019 0.950 . S
C3008 H3000 0.950 . S
C3008 C3009 1.386 . S
C3008 C3010 1.391 . S
C3009 C3008 1.386 . S
C3009 C3013 1.393 . S
C3010 H3002 0.950 . S
C3010 C3008 1.391 . S
C3010 C3011 1.400 . S
C3011 C3010 1.400 . S
C3011 C3012 1.398 . S
C3011 C3017 1.491 . S
C3012 H3003 0.950 . S
C3012 C3011 1.398 . S
C3012 C3013 1.391 . S
C3013 H3001 0.950 . S
C3013 C3009 1.393 . S
C3013 C3012 1.391 . S
C3014 H3004 0.950 . S
C3014 C3015 1.386 . S
C3014 C3016 1.391 . S
C3015 C3014 1.386 . S
C3015 C3019 1.393 . S
C3016 H3005 0.950 . S
C3016 C3014 1.391 . S
C3016 C3017 1.400 . S
C3017 C3011 1.491 . S
C3017 C3016 1.400 . S
C3017 C3018 1.398 . S
C3018 H3006 0.950 . S
C3018 C3017 1.398 . S
C3018 C3019 1.391 . S
C3019 H3007 0.950 . S
C3019 C3015 1.393 . S
C3019 C3018 1.391 . S
H3020 C3028 0.950 . S
H3021 C3033 0.950 . S
H3022 C3030 0.950 . S
H3023 C3032 0.950 . S
H3024 C3034 0.950 . S
H3025 C3036 0.950 . S
H3026 C3038 0.950 . S
H3027 C3039 0.950 . S
C3028 H3020 0.950 . S
C3028 C3029 1.386 . S
C3028 C3030 1.391 . S
C3029 C3028 1.386 . S
C3029 C3033 1.393 . S
C3030 H3022 0.950 . S
C3030 C3028 1.391 . S
C3030 C3031 1.400 . S
C3031 C3030 1.400 . S
C3031 C3032 1.398 . S
C3031 C3037 1.491 . S
C3032 H3023 0.950 . S
C3032 C3031 1.398 . S
C3032 C3033 1.391 . S
C3033 H3021 0.950 . S
C3033 C3029 1.393 . S
C3033 C3032 1.391 . S
C3034 H3024 0.950 . S
C3034 C3035 1.386 . S
C3034 C3036 1.391 . S
C3035 C3034 1.386 . S
C3035 C3039 1.393 . S
C3036 H3025 0.950 . S
C3036 C3034 1.391 . S
C3036 C3037 1.400 . S
C3037 C3031 1.491 . S
C3037 C3036 1.400 . S
C3037 C3038 1.398 . S
C3038 H3026 0.950 . S
C3038 C3037 1.398 . S
C3038 C3039 1.391 . S
C3039 H3027 0.950 . S
C3039 C3035 1.393 . S
C3039 C3038 1.391 . S
H3040 C3048 0.950 . S
H3041 C3053 0.950 . S
H3042 C3050 0.950 . S
H3043 C3052 0.950 . S
H3044 C3054 0.950 . S
H3045 C3056 0.950 . S
H3046 C3058 0.950 . S
H3047 C3059 0.950 . S
C3048 H3040 0.950 . S
C3048 C3049 1.386 . S
C3048 C3050 1.391 . S
C3049 C3048 1.386 . S
C3049 C3053 1.393 . S
C3050 H3042 0.950 . S
C3050 C3048 1.391 . S
C3050 C3051 1.400 . S
C3051 C3050 1.400 . S
C3051 C3052 1.398 . S
C3051 C3057 1.491 . S
C3052 H3043 0.950 . S
C3052 C3051 1.398 . S
C3052 C3053 1.391 . S
C3053 H3041 0.950 . S
C3053 C3049 1.393 . S
C3053 C3052 1.391 . S
C3054 H3044 0.950 . S
C3054 C3055 1.386 . S
C3054 C3056 1.391 . S
C3055 C3054 1.386 . S
C3055 C3059 1.393 . S
C3056 H3045 0.950 . S
C3056 C3054 1.391 . S
C3056 C3057 1.400 . S
C3057 C3051 1.491 . S
C3057 C3056 1.400 . S
C3057 C3058 1.398 . S
C3058 H3046 0.950 . S
C3058 C3057 1.398 . S
C3058 C3059 1.391 . S
C3059 H3047 0.950 . S
C3059 C3055 1.393 . S
C3059 C3058 1.391 . S
H3060 C3068 0.950 . S
H3061 C3073 0.950 . S
H3062 C3070 0.950 . S
H3063 C3072 0.950 . S
H3064 C3074 0.950 . S
H3065 C3076 0.950 . S
H3066 C3078 0.950 . S
H3067 C3079 0.950 . S
C3068 H3060 0.950 . S
C3068 C3069 1.386 . S
C3068 C3070 1.391 . S
C3069 C3068 1.386 . S
C3069 C3073 1.393 . S
C3070 H3062 0.950 . S
C3070 C3068 1.391 . S
C3070 C3071 1.400 . S
C3071 C3070 1.400 . S
C3071 C3072 1.398 . S
C3071 C3077 1.491 . S
C3072 H3063 0.950 . S
C3072 C3071 1.398 . S
C3072 C3073 1.391 . S
C3073 H3061 0.950 . S
C3073 C3069 1.393 . S
C3073 C3072 1.391 . S
C3074 H3064 0.950 . S
C3074 C3075 1.386 . S
C3074 C3076 1.391 . S
C3075 C3074 1.386 . S
C3075 C3079 1.393 . S
C3076 H3065 0.950 . S
C3076 C3074 1.391 . S
C3076 C3077 1.400 . S
C3077 C3071 1.491 . S
C3077 C3076 1.400 . S
C3077 C3078 1.398 . S
C3078 H3066 0.950 . S
C3078 C3077 1.398 . S
C3078 C3079 1.391 . S
C3079 H3067 0.950 . S
C3079 C3075 1.393 . S
C3079 C3078 1.391 . S
H3080 C3088 0.950 . S
H3081 C3093 0.950 . S
H3082 C3090 0.950 . S
H3083 C3092 0.950 . S
H3084 C3094 0.950 . S
H3085 C3096 0.950 . S
H3086 C3098 0.950 . S
H3087 C3099 0.950 . S
C3088 H3080 0.950 . S
C3088 C3089 1.386 . S
C3088 C3090 1.391 . S
C3089 C3088 1.386 . S
C3089 C3093 1.393 . S
C3090 H3082 0.950 . S
C3090 C3088 1.391 . S
C3090 C3091 1.400 . S
C3091 C3090 1.400 . S
C3091 C3092 1.398 . S
C3091 C3097 1.491 . S
C3092 H3083 0.950 . S
C3092 C3091 1.398 . S
C3092 C3093 1.391 . S
C3093 H3081 0.950 . S
C3093 C3089 1.393 . S
C3093 C3092 1.391 . S
C3094 H3084 0.950 . S
C3094 C3095 1.386 . S
C3094 C3096 1.391 . S
C3095 C3094 1.386 . S
C3095 C3099 1.393 . S
C3096 H3085 0.950 . S
C3096 C3094 1.391 . S
C3096 C3097 1.400 . S
C3097 C3091 1.491 . S
C3097 C3096 1.400 . S
C3097 C3098 1.398 . S
C3098 H3086 0.950 . S
C3098 C3097 1.398 . S
C3098 C3099 1.391 . S
C3099 H3087 0.950 . S
C3099 C3095 1.393 . S
C3099 C3098 1.391 . S
H3100 C3108 0.950 . S
H3101 C3113 0.950 . S
H3102 C3110 0.950 . S
H3103 C3112 0.950 . S
H3104 C3114 0.950 . S
H3105 C3116 0.950 . S
H3106 C3118 0.950 . S
H3107 C3119 0.950 . S
C3108 H3100 0.950 . S
C3108 C3109 1.386 . S
C3108 C3110 1.391 . S
C3109 C3108 1.386 . S
C3109 C3113 1.393 . S
C3110 H3102 0.950 . S
C3110 C3108 1.391 . S
C3110 C3111 1.400 . S
C3111 C3110 1.400 . S
C3111 C3112 1.398 . S
C3111 C3117 1.491 . S
C3112 H3103 0.950 . S
C3112 C3111 1.398 . S
C3112 C3113 1.391 . S
C3113 H3101 0.950 . S
C3113 C3109 1.393 . S
C3113 C3112 1.391 . S
C3114 H3104 0.950 . S
C3114 C3115 1.386 . S
C3114 C3116 1.391 . S
C3115 C3114 1.386 . S
C3115 C3119 1.393 . S
C3116 H3105 0.950 . S
C3116 C3114 1.391 . S
C3116 C3117 1.400 . S
C3117 C3111 1.491 . S
C3117 C3116 1.400 . S
C3117 C3118 1.398 . S
C3118 H3106 0.950 . S
C3118 C3117 1.398 . S
C3118 C3119 1.391 . S
C3119 H3107 0.950 . S
C3119 C3115 1.393 . S
C3119 C3118 1.391 . S
H3120 C3128 0.950 . S
H3121 C3133 0.950 . S
H3122 C3130 0.950 . S
H3123 C3132 0.950 . S
H3124 C3134 0.950 . S
H3125 C3136 0.950 . S
H3126 C3138 0.950 . S
H3127 C3139 0.950 . S
C3128 H3120 0.950 . S
C3128 C3129 1.386 . S
C3128 C3130 1.391 . S
C3129 C3128 1.386 . S
C3129 C3133 1.393 . S
C3130 H3122 0.950 . S
C3130 C3128 1.391 . S
C3130 C3131 1.400 . S
C3131 C3130 1.400 . S
C3131 C3132 1.398 . S
C3131 C3137 1.491 . S
C3132 H3123 0.950 . S
C3132 C3131 1.398 . S
C3132 C3133 1.391 . S
C3133 H3121 0.950 . S
C3133 C3129 1.393 . S
C3133 C3132 1.391 . S
C3134 H3124 0.950 . S
C3134 C3135 1.386 . S
C3134 C3136 1.391 . S
C3135 C3134 1.386 . S
C3135 C3139 1.393 . S
C3136 H3125 0.950 . S
C3136 C3134 1.391 . S
C3136 C3137 1.400 . S
C3137 C3131 1.491 . S
C3137 C3136 1.400 . S
C3137 C3138 1.398 . S
C3138 H3126 0.950 . S
C3138 C3137 1.398 . S
C3138 C3139 1.391 . S
C3139 H3127 0.950 . S
C3139 C3135 1.393 . S
C3139 C3138 1.391 . S
H3140 C3148 0.950 . S
H3141 C3153 0.950 . S
H3142 C3150 0.950 . S
H3143 C3152 0.950 . S
H3144 C3154 0.950 . S
H3145 C3156 0.950 . S
H3146 C3158 0.950 . S
H3147 C3159 0.950 . S
C3148 H3140 0.950 . S
C3148 C3149 1.386 . S
C3148 C3150 1.391 . S
C3149 C3148 1.386 . S
C3149 C3153 1.393 . S
C3150 H3142 0.950 . S
C3150 C3148 1.391 . S
C3150 C3151 1.400 . S
C3151 C3150 1.400 . S
C3151 C3152 1.398 . S
C3151 C3157 1.491 . S
C3152 H3143 0.950 . S
C3152 C3151 1.398 . S
C3152 C3153 1.391 . S
C3153 H3141 0.950 . S
C3153 C3149 1.393 . S
C3153 C3152 1.391 . S
C3154 H3144 0.950 . S
C3154 C3155 1.386 . S
C3154 C3156 1.391 . S
C3155 C3154 1.386 . S
C3155 C3159 1.393 . S
C3156 H3145 0.950 . S
C3156 C3154 1.391 . S
C3156 C3157 1.400 . S
C3157 C3151 1.491 . S
C3157 C3156 1.400 . S
C3157 C3158 1.398 . S
C3158 H3146 0.950 . S
C3158 C3157 1.398 . S
C3158 C3159 1.391 . S
C3159 H3147 0.950 . S
C3159 C3155 1.393 . S
C3159 C3158 1.391 . S
H3160 C3168 0.950 . S
H3161 C3173 0.950 . S
H3162 C3170 0.950 . S
H3163 C3172 0.950 . S
H3164 C3174 0.950 . S
H3165 C3176 0.950 . S
H3166 C3178 0.950 . S
H3167 C3179 0.950 . S
C3168 H3160 0.950 . S
C3168 C3169 1.386 . S
C3168 C3170 1.391 . S
C3169 C3168 1.386 . S
C3169 C3173 1.393 . S
C3170 H3162 0.950 . S
C3170 C3168 1.391 . S
C3170 C3171 1.400 . S
C3171 C3170 1.400 . S
C3171 C3172 1.398 . S
C3171 C3177 1.491 . S
C3172 H3163 0.950 . S
C3172 C3171 1.398 . S
C3172 C3173 1.391 . S
C3173 H3161 0.950 . S
C3173 C3169 1.393 . S
C3173 C3172 1.391 . S
C3174 H3164 0.950 . S
C3174 C3175 1.386 . S
C3174 C3176 1.391 . S
C3175 C3174 1.386 . S
C3175 C3179 1.393 . S
C3176 H3165 0.950 . S
C3176 C3174 1.391 . S
C3176 C3177 1.400 . S
C3177 C3171 1.491 . S
C3177 C3176 1.400 . S
C3177 C3178 1.398 . S
C3178 H3166 0.950 . S
C3178 C3177 1.398 . S
C3178 C3179 1.391 . S
C3179 H3167 0.950 . S
C3179 C3175 1.393 . S
C3179 C3178 1.391 . S
H3180 C3188 0.950 . S
H3181 C3193 0.950 . S
H3182 C3190 0.950 . S
H3183 C3192 0.950 . S
H3184 C3194 0.950 . S
H3185 C3196 0.950 . S
H3186 C3198 0.950 . S
H3187 C3199 0.950 . S
C3188 H3180 0.950 . S
C3188 C3189 1.386 . S
C3188 C3190 1.391 . S
C3189 C3188 1.386 . S
C3189 C3193 1.393 . S
C3190 H3182 0.950 . S
C3190 C3188 1.391 . S
C3190 C3191 1.400 . S
C3191 C3190 1.400 . S
C3191 C3192 1.398 . S
C3191 C3197 1.491 . S
C3192 H3183 0.950 . S
C3192 C3191 1.398 . S
C3192 C3193 1.391 . S
C3193 H3181 0.950 . S
C3193 C3189 1.393 . S
C3193 C3192 1.391 . S
C3194 H3184 0.950 . S
C3194 C3195 1.386 . S
C3194 C3196 1.391 . S
C3195 C3194 1.386 . S
C3195 C3199 1.393 . S
C3196 H3185 0.950 . S
C3196 C3194 1.391 . S
C3196 C3197 1.400 . S
C3197 C3191 1.491 . S
C3197 C3196 1.400 . S
C3197 C3198 1.398 . S
C3198 H3186 0.950 . S
C3198 C3197 1.398 . S
C3198 C3199 1.391 . S
C3199 H3187 0.950 . S
C3199 C3195 1.393 . S
C3199 C3198 1.391 . S
H3200 C3208 0.950 . S
H3201 C3213 0.950 . S
H3202 C3210 0.950 . S
H3203 C3212 0.950 . S
H3204 C3214 0.950 . S
H3205 C3216 0.950 . S
H3206 C3218 0.950 . S
H3207 C3219 0.950 . S
C3208 H3200 0.950 . S
C3208 C3209 1.386 . S
C3208 C3210 1.391 . S
C3209 C3208 1.386 . S
C3209 C3213 1.393 . S
C3210 H3202 0.950 . S
C3210 C3208 1.391 . S
C3210 C3211 1.400 . S
C3211 C3210 1.400 . S
C3211 C3212 1.398 . S
C3211 C3217 1.491 . S
C3212 H3203 0.950 . S
C3212 C3211 1.398 . S
C3212 C3213 1.391 . S
C3213 H3201 0.950 . S
C3213 C3209 1.393 . S
C3213 C3212 1.391 . S
C3214 H3204 0.950 . S
C3214 C3215 1.386 . S
C3214 C3216 1.391 . S
C3215 C3214 1.386 . S
C3215 C3219 1.393 . S
C3216 H3205 0.950 . S
C3216 C3214 1.391 . S
C3216 C3217 1.400 . S
C3217 C3211 1.491 . S
C3217 C3216 1.400 . S
C3217 C3218 1.398 . S
C3218 H3206 0.950 . S
C3218 C3217 1.398 . S
C3218 C3219 1.391 . S
C3219 H3207 0.950 . S
C3219 C3215 1.393 . S
C3219 C3218 1.391 . S
H3220 C3228 0.950 . S
H3221 C3233 0.950 . S
H3222 C3230 0.950 . S
H3223 C3232 0.950 . S
H3224 C3234 0.950 . S
H3225 C3236 0.950 . S
H3226 C3238 0.950 . S
H3227 C3239 0.950 . S
C3228 H3220 0.950 . S
C3228 C3229 1.386 . S
C3228 C3230 1.391 . S
C3229 C3228 1.386 . S
C3229 C3233 1.393 . S
C3230 H3222 0.950 . S
C3230 C3228 1.391 . S
C3230 C3231 1.400 . S
C3231 C3230 1.400 . S
C3231 C3232 1.398 . S
C3231 C3237 1.491 . S
C3232 H3223 0.950 . S
C3232 C3231 1.398 . S
C3232 C3233 1.391 . S
C3233 H3221 0.950 . S
C3233 C3229 1.393 . S
C3233 C3232 1.391 . S
C3234 H3224 0.950 . S
C3234 C3235 1.386 . S
C3234 C3236 1.391 . S
C3235 C3234 1.386 . S
C3235 C3239 1.393 . S
C3236 H3225 0.950 . S
C3236 C3234 1.391 . S
C3236 C3237 1.400 . S
C3237 C3231 1.491 . S
C3237 C3236 1.400 . S
C3237 C3238 1.398 . S
C3238 H3226 0.950 . S
C3238 C3237 1.398 . S
C3238 C3239 1.391 . S
C3239 H3227 0.950 . S
C3239 C3235 1.393 . S
C3239 C3238 1.391 . S
C1089 C10 1.379 . S
C1095 N66 1.387 . S
C1109 N6 1.390 . S
C1115 C40 1.387 . S
C1129 C70 1.382 . S
C1135 N36 1.391 . S
C1149 C100 1.377 . S
C1155 N126 1.389 . S
C1169 N156 1.387 . S
C1175 C130 1.379 . S
C1189 C160 1.388 . S
C1195 N96 1.389 . S
C1209 C181 1.388 . S
C1215 N254 1.387 . S
C1229 C211 1.380 . S
C1235 N194 1.391 . S
C1249 C241 1.379 . S
C1255 N224 1.391 . S
C1269 C271 1.385 . S
C1275 N314 1.385 . S
C1289 N344 1.386 . S
C1295 C301 1.382 . S
C1309 N284 1.385 . S
C1315 C331 1.385 . S
C1329 N426 1.386 . S
C1335 C370 1.388 . S
C1349 C400 1.388 . S
C1355 N366 1.389 . S
C1369 N396 1.390 . S
C1375 C430 1.385 . S
C1389 C460 1.387 . S
C1395 N486 1.385 . S
C1409 N516 1.391 . S
C1415 C490 1.379 . S
C1429 N456 1.390 . S
C1435 C520 1.386 . S
C1449 C541 1.387 . S
C1455 N614 1.385 . S
C1469 C571 1.388 . S
C1475 N554 1.386 . S
C1489 N584 1.391 . S
C1495 C601 1.380 . S
C1509 N674 1.385 . S
C1515 C631 1.383 . S
C1529 C661 1.380 . S
C1535 N704 1.387 . S
C1549 N644 1.385 . S
C1555 C691 1.386 . S
C1569 C730 1.382 . S
C1575 N786 1.385 . S
C1589 C760 1.381 . S
C1595 N726 1.386 . S
C1609 C790 1.378 . S
C1615 N756 1.390 . S
C1629 C820 1.380 . S
C1635 N846 1.391 . S
C1649 C850 1.387 . S
C1655 N876 1.390 . S
C1669 C880 1.378 . S
C1675 N816 1.389 . S
C1689 C901 1.378 . S
C1695 N974 1.390 . S
C1709 C931 1.378 . S
C1715 N914 1.389 . S
C1729 N944 1.385 . S
C1735 C961 1.383 . S
C1749 C991 1.378 . S
C1755 N1034 1.390 . S
C1769 C1021 1.386 . S
C1775 N1064 1.390 . S
C1789 N1004 1.391 . S
C1795 C1051 1.383 . S
C1809 N14 1.005 . S
C1815 C610 1.084 . S
C1829 C550 1.082 . S
C1835 N44 0.988 . S
C1849 N74 0.944 . S
C1855 C580 1.074 . S
C1869 N104 0.956 . S
C1875 C1030 1.077 . S
C1889 C1060 1.080 . S
C1895 N134 0.984 . S
C1909 N164 1.006 . S
C1915 C1000 1.084 . S
C1929 C781 1.079 . S
C1935 N186 0.977 . S
C1949 N216 0.945 . S
C1955 C721 1.074 . S
C1969 N246 1.006 . S
C1975 C751 1.084 . S
C1989 C481 1.082 . S
C1995 N276 0.987 . S
C2009 C511 1.081 . S
C2015 N306 0.991 . S
C2029 C451 1.078 . S
C2035 N336 0.973 . S
C2049 N374 1.000 . S
C2055 C970 1.084 . S
C2069 N404 0.946 . S
C2075 C910 1.075 . S
C2089 C940 1.078 . S
C2095 N434 0.973 . S
C2109 C310 1.084 . S
C2115 N464 1.007 . S
C2129 C340 1.085 . S
C2135 N494 1.006 . S
C2149 C280 1.074 . S
C2155 N524 0.944 . S
C2169 C61 1.085 . S
C2175 N546 1.007 . S
C2189 N576 0.973 . S
C2195 C1 1.078 . S
C2209 N606 0.953 . S
C2215 C31 1.075 . S
C2229 C841 1.074 1_554 S
C2235 N636 0.946 . S
C2249 C871 1.077 1_554 S
C2255 N666 0.963 . S
C2269 N696 0.975 . S
C2275 C811 1.078 1_554 S
C2289 C250 1.084 . S
C2295 N734 1.003 . S
C2309 C190 1.074 . S
C2315 N764 0.944 . S
C2329 C220 1.077 . S
C2335 N794 0.964 . S
C2349 N824 0.958 . S
C2355 C670 1.076 1_556 S
C2369 C700 1.084 1_556 S
C2375 N854 1.006 . S
C2389 N884 0.986 . S
C2395 C640 1.080 1_556 S
C2409 N906 0.949 . S
C2415 C421 1.074 . S
C2429 N936 1.000 . S
C2435 C361 1.084 . S
C2449 N966 0.947 . S
C2455 C391 1.075 . S
C2469 N996 0.965 . S
C2475 C121 1.078 . S
C2489 C151 1.076 . S
C2495 N1026 0.950 . S
C2509 C91 1.078 . S
C2515 N1056 0.975 . S
C2529 C897 1.509 . S
C2535 C27 1.500 . S
C2549 C837 1.499 . S
C2555 C57 1.494 . S
C2569 C87 1.495 . S
C2575 C867 1.495 . S
C2589 C417 1.494 . S
C2595 C117 1.500 . S
C2609 C147 1.512 . S
C2615 C447 1.505 . S
C2629 C177 1.511 . S
C2635 C387 1.512 . S
C2649 C196 1.510 . S
C2655 C706 1.501 . S
C2669 C226 1.501 . S
C2675 C646 1.509 . S
C2689 C256 1.507 . S
C2695 C676 1.512 . S
C2709 C946 1.511 . S
C2715 C286 1.512 . S
C2729 C976 1.494 . S
C2735 C316 1.498 . S
C2749 C916 1.501 . S
C2755 C346 1.494 . S
C2769 C477 1.506 . S
C2775 C777 1.497 . S
C2789 C507 1.511 . S
C2795 C807 1.512 . S
C2809 C537 1.500 . S
C2815 C747 1.509 . S
C2829 C556 1.505 . S
C2835 C1066 1.496 . S
C2849 C1006 1.496 . S
C2855 C586 1.504 . S
C2869 C616 1.500 . S
C2875 C1036 1.494 . S
C2889 C136 2.089 . S
C2895 C16 2.088 . S
C2909 C166 2.075 . S
C2915 C46 2.078 . S
C2929 C106 2.075 . S
C2935 C76 2.074 . S
C2949 C207 2.084 . S
C2955 C327 2.080 . S
C2969 C357 2.074 . S
C2975 C237 2.074 . S
C2989 C267 2.082 . S
C2995 C297 2.078 . S
C3009 C496 2.074 . S
C3015 C376 2.075 . S
C3029 C526 2.076 . S
C3035 C406 2.080 . S
C3049 C466 2.082 . S
C3055 C436 2.078 . S
C3069 C687 2.085 . S
C3075 C567 2.088 . S
C3089 C597 2.082 . S
C3095 C717 2.085 . S
C3109 C627 2.082 . S
C3115 C657 2.078 . S
C3129 C736 2.085 . S
C3135 C856 2.081 . S
C3149 C886 2.086 . S
C3155 C766 2.082 . S
C3169 C796 2.076 . S
C3175 C826 2.074 . S
C3189 C927 2.075 . S
C3195 C1047 2.074 . S
C3209 C1077 2.080 . S
C3215 C957 2.076 . S
C3229 C987 2.074 . S
C3235 C1017 2.074 . S
