# Generated by pormake.
# Topology smd, (6)-cn, num edge types: 1
# Building blocks:
#     Node 0, Type 0, BuildingBlock: BETDEL_clean_sbu_0, # of connection points: 6
#     Node 1, Type 0, BuildingBlock: BETDEL_clean_sbu_0, # of connection points: 6
#     Node 2, Type 0, BuildingBlock: BETDEL_clean_sbu_0, # of connection points: 6
#     Node 3, Type 0, BuildingBlock: BETDEL_clean_sbu_0, # of connection points: 6
#     Node 4, Type 0, BuildingBlock: BETDEL_clean_sbu_0, # of connection points: 6
#     Node 5, Type 0, BuildingBlock: BETDEL_clean_sbu_0, # of connection points: 6
#     Node 6, Type 0, BuildingBlock: BETDEL_clean_sbu_0, # of connection points: 6
#     Node 7, Type 0, BuildingBlock: BETDEL_clean_sbu_0, # of connection points: 6
#     Node 8, Type 0, BuildingBlock: BETDEL_clean_sbu_0, # of connection points: 6
#     Node 9, Type 0, BuildingBlock: BETDEL_clean_sbu_0, # of connection points: 6
#     Node 10, Type 0, BuildingBlock: BETDEL_clean_sbu_0, # of connection points: 6
#     Node 11, Type 0, BuildingBlock: BETDEL_clean_sbu_0, # of connection points: 6
#     Node 12, Type 0, BuildingBlock: BETDEL_clean_sbu_0, # of connection points: 6
#     Node 13, Type 0, BuildingBlock: BETDEL_clean_sbu_0, # of connection points: 6
#     Node 14, Type 0, BuildingBlock: BETDEL_clean_sbu_0, # of connection points: 6
#     Node 15, Type 0, BuildingBlock: BETDEL_clean_sbu_0, # of connection points: 6
#     Node 16, Type 0, BuildingBlock: BETDEL_clean_sbu_0, # of connection points: 6
#     Node 17, Type 0, BuildingBlock: BETDEL_clean_sbu_0, # of connection points: 6
#     Edge 18, Type (0, 0), None
#     Edge 19, Type (0, 0), None
#     Edge 20, Type (0, 0), None
#     Edge 21, Type (0, 0), None
#     Edge 22, Type (0, 0), None
#     Edge 23, Type (0, 0), None
#     Edge 24, Type (0, 0), None
#     Edge 25, Type (0, 0), None
#     Edge 26, Type (0, 0), None
#     Edge 27, Type (0, 0), None
#     Edge 28, Type (0, 0), None
#     Edge 29, Type (0, 0), None
#     Edge 30, Type (0, 0), None
#     Edge 31, Type (0, 0), None
#     Edge 32, Type (0, 0), None
#     Edge 33, Type (0, 0), None
#     Edge 34, Type (0, 0), None
#     Edge 35, Type (0, 0), None
#     Edge 36, Type (0, 0), None
#     Edge 37, Type (0, 0), None
#     Edge 38, Type (0, 0), None
#     Edge 39, Type (0, 0), None
#     Edge 40, Type (0, 0), None
#     Edge 41, Type (0, 0), None
#     Edge 42, Type (0, 0), None
#     Edge 43, Type (0, 0), None
#     Edge 44, Type (0, 0), None
#     Edge 45, Type (0, 0), None
#     Edge 46, Type (0, 0), None
#     Edge 47, Type (0, 0), None
#     Edge 48, Type (0, 0), None
#     Edge 49, Type (0, 0), None
#     Edge 50, Type (0, 0), None
#     Edge 51, Type (0, 0), None
#     Edge 52, Type (0, 0), None
#     Edge 53, Type (0, 0), None
#     Edge 54, Type (0, 0), None
#     Edge 55, Type (0, 0), None
#     Edge 56, Type (0, 0), None
#     Edge 57, Type (0, 0), None
#     Edge 58, Type (0, 0), None
#     Edge 59, Type (0, 0), None
#     Edge 60, Type (0, 0), None
#     Edge 61, Type (0, 0), None
#     Edge 62, Type (0, 0), None
#     Edge 63, Type (0, 0), None
#     Edge 64, Type (0, 0), None
#     Edge 65, Type (0, 0), None
#     Edge 66, Type (0, 0), None
#     Edge 67, Type (0, 0), None
#     Edge 68, Type (0, 0), None
#     Edge 69, Type (0, 0), None
#     Edge 70, Type (0, 0), None
#     Edge 71, Type (0, 0), None
# Relax obj value: 0.256
# Max RMSD: 0.318
# Mean RMSD: 0.293
data_MOF--net-smd--node1-BETDEL_clean_sbu_0--edge1-none
_symmetry_space_group_name_H-M    P1
_symmetry_Int_Tables_number       1
_symmetry_cell_setting            triclinic
loop_
_symmetry_equiv_pos_as_xyz
'x, y, z'
_cell_length_a     29.771822
_cell_length_b     30.476494
_cell_length_c     8.8709588
_cell_angle_alpha  91.449416
_cell_angle_beta   91.933597
_cell_angle_gamma 119.98321
loop_
_atom_site_label
_atom_site_type_symbol
_atom_site_fract_x
_atom_site_fract_y
_atom_site_fract_z
_atom_type_partial_charge
Dy0 Dy 0.0097 0.22334 0.6998 0.0
C1 C 0.98505 0.21414 0.13893 0.0
C2 C 0.99417 0.22106 0.99507 0.0
Dy3 Dy 0.97378 0.20856 0.43934 0.0
O4 O 0.04057 0.24306 0.94014 0.0
O5 O 0.9577 0.20421 0.89072 0.0
O6 O 0.03924 0.1694 0.69549 0.0
O7 O 0.04973 0.2142 0.51341 0.0
C8 C 0.06361 0.18522 0.57322 0.0
C9 C 0.92707 0.24342 0.649 0.0
O10 O 0.94595 0.12768 0.45182 0.0
O11 O 0.93542 0.14491 0.68726 0.0
O12 O 0.93972 0.19565 0.19941 0.0
O13 O 0.02195 0.22732 0.24018 0.0
O14 O 0.90169 0.2014 0.56519 0.0
O15 O 0.97316 0.26226 0.61608 0.0
O16 O 0.06602 0.30115 0.5889 0.0
O17 O 0.01929 0.28418 0.36628 0.0
C18 C 0.92449 0.11074 0.57755 0.0
C19 C 0.06174 0.31313 0.44445 0.0
Dy20 Dy 0.77945 0.75786 0.45298 0.0
C21 C 0.77133 0.77132 0.99535 0.0
C22 C 0.77366 0.7651 0.14382 0.0
Dy23 Dy 0.7597 0.77609 0.68917 0.0
O24 O 0.79484 0.7419 0.21217 0.0
O25 O 0.75442 0.78178 0.24214 0.0
O26 O 0.8439 0.74455 0.48811 0.0
O27 O 0.84294 0.8047 0.61764 0.0
C28 C 0.86796 0.78123 0.59012 0.0
C29 C 0.67916 0.74568 0.46541 0.0
O30 O 0.78674 0.85539 0.69222 0.0
O31 O 0.79966 0.84323 0.44853 0.0
O32 O 0.74498 0.79025 0.92964 0.0
O33 O 0.79241 0.75668 0.89453 0.0
O34 O 0.69976 0.78818 0.54605 0.0
O35 O 0.70162 0.72241 0.50819 0.0
O36 O 0.75006 0.68107 0.58496 0.0
O37 O 0.71204 0.70076 0.76865 0.0
C38 C 0.8005 0.87377 0.56065 0.0
C39 C 0.72454 0.66906 0.71432 0.0
Dy40 Dy 0.22334 0.98643 0.67559 0.0
C41 C 0.24846 0.0219 0.12781 0.0
C42 C 0.24274 0.01136 0.97933 0.0
Dy43 Dy 0.23165 0.0145 0.43063 0.0
O44 O 0.25128 0.9782 0.90945 0.0
O45 O 0.22181 0.02841 0.88591 0.0
O46 O 0.15974 0.90924 0.68001 0.0
O47 O 0.15263 0.95933 0.52466 0.0
C48 C 0.13085 0.91451 0.57724 0.0
C49 C 0.31887 0.07246 0.63659 0.0
O50 O 0.1835 0.04891 0.44535 0.0
O51 O 0.20739 0.054 0.68978 0.0
O52 O 0.22682 0.04345 0.20043 0.0
O53 O 0.26704 0.00304 0.22226 0.0
O54 O 0.29304 0.09008 0.56531 0.0
O55 O 0.29762 0.027 0.59275 0.0
O56 O 0.26123 0.94806 0.53191 0.0
O57 O 0.20624 0.9364 0.34436 0.0
C58 C 0.18706 0.06837 0.57982 0.0
C59 C 0.23903 0.9243 0.39811 0.0
Dy60 Dy 0.01668 0.78078 0.72194 0.0
C61 C 0.98687 0.76407 0.15969 0.0
C62 C -0.00326 0.76977 1.01596 0.0
Dy63 Dy 0.9758 0.76537 0.45745 0.0
O64 O 0.04348 0.78999 0.9649 0.0
O65 O 0.96174 0.75735 0.90855 0.0
O66 O 0.09322 0.79569 0.61981 0.0
O67 O 0.02408 0.73737 0.52532 0.0
C68 C 0.07183 0.76256 0.50607 0.0
C69 C 0.92494 0.80314 0.60565 0.0
O70 O 0.9246 0.6889 0.5898 0.0
O71 O 0.98921 0.70222 0.76031 0.0
O72 O 0.941 0.74283 0.2183 0.0
O73 O 0.02401 0.78261 0.26139 0.0
O74 O 0.94804 0.8209 0.48192 0.0
O75 O 0.93958 0.77322 0.65406 0.0
O76 O 0.05522 0.86324 0.70522 0.0
O77 O 0.05213 0.84332 0.46052 0.0
C78 C 0.94128 0.6736 0.71195 0.0
C79 C 0.07403 0.87761 0.57382 0.0
Dy80 Dy 0.22582 0.21506 0.45933 0.0
C81 C 0.23288 0.22587 1.01262 0.0
C82 C 0.24167 0.22359 0.15869 0.0
Dy83 Dy 0.21075 0.2286 0.71391 0.0
O84 O 0.22831 0.18228 0.22912 0.0
O85 O 0.25368 0.26064 0.25373 0.0
O86 O 0.29144 0.20898 0.59791 0.0
O87 O 0.28507 0.27084 0.63259 0.0
C88 C 0.31135 0.25188 0.67517 0.0
C89 C 0.11988 0.20603 0.59538 0.0
O90 O 0.24558 0.30562 0.59615 0.0
O91 O 0.20122 0.26861 0.38197 0.0
O92 O 0.23255 0.26402 0.95054 0.0
O93 O 0.21789 0.18858 0.91507 0.0
O94 O 0.14303 0.23744 0.7112 0.0
O95 O 0.14513 0.18491 0.54798 0.0
O96 O 0.18088 0.13302 0.45891 0.0
O97 O 0.20347 0.1488 0.7056 0.0
C98 C 0.2292 0.31076 0.45867 0.0
C99 C 0.18548 0.11607 0.58755 0.0
Dy100 Dy 0.763 0.98078 0.68035 0.0
C101 C 0.77137 0.00141 0.13111 0.0
C102 C 0.7681 0.99341 0.98367 0.0
Dy103 Dy 0.78443 0.01293 0.43338 0.0
O104 O 0.74271 0.94899 0.91065 0.0
O105 O 0.7906 0.02949 0.89271 0.0
O106 O 0.69939 0.90816 0.53893 0.0
O107 O 0.70736 0.97706 0.49783 0.0
C108 C 0.6815 0.9315 0.45617 0.0
C109 C 0.87793 0.05999 0.57027 0.0
O110 O 0.76638 0.07214 0.56209 0.0
O111 O 0.7233 0.01962 0.74743 0.0
O112 O 0.79552 0.04587 0.20423 0.0
O113 O 0.75305 0.96495 0.22158 0.0
O114 O 0.86715 0.03507 0.44191 0.0
O115 O 0.83647 0.05271 0.62817 0.0
O116 O 0.81487 0.95001 0.67217 0.0
O117 O 0.78748 0.93787 0.43248 0.0
C118 C 0.74148 0.06377 0.69289 0.0
C119 C 0.80823 0.92534 0.54543 0.0
Dy120 Dy 0.62348 0.52128 0.73806 0.0
C121 C 0.67064 0.56221 0.32676 0.0
C122 C 0.65266 0.54621 0.45905 0.0
Dy123 Dy 0.66886 0.55201 1.02975 0.0
O124 O 0.61226 0.54619 0.51278 0.0
O125 O 0.67085 0.52503 0.54663 0.0
O126 O 0.55104 0.44934 0.77869 0.0
O127 O 0.61985 0.47546 0.92177 0.0
C128 C 0.57132 0.44488 0.90684 0.0
C129 C 0.7093 0.62296 0.80524 0.0
O130 O 0.69861 0.5011 0.99176 0.0
O131 O 0.70002 0.51906 0.74624 0.0
O132 O 0.7013 0.55018 0.25837 0.0
O133 O 0.64879 0.57903 0.23606 0.0
O134 O 0.7372 0.61866 0.91435 0.0
O135 O 0.66344 0.59484 0.83919 0.0
O136 O 0.58506 0.55986 0.86557 0.0
O137 O 0.58868 0.52721 0.0847 0.0
C138 C 0.71777 0.50387 0.86052 0.0
C139 C 0.57088 0.55099 1.00854 0.0
Dy140 Dy 0.45891 0.1162 0.73403 0.0
C141 C 0.44935 0.13062 0.29315 0.0
C142 C 0.44876 0.1207 0.43663 0.0
Dy143 Dy 0.44104 0.13371 0.99037 0.0
O144 O 0.47292 0.09898 0.49959 0.0
O145 O 0.42561 0.13356 0.533 0.0
O146 O 0.54038 0.17899 0.74294 0.0
O147 O 0.51364 0.13294 0.92526 0.0
C148 C 0.55397 0.1672 0.86772 0.0
C149 C 0.35502 0.09339 0.77852 0.0
O150 O 0.49442 0.21292 0.95479 0.0
O151 O 0.45265 0.18808 0.73313 0.0
O152 O 0.42222 0.1483 0.22479 0.0
O153 O 0.47368 0.11864 0.19842 0.0
O154 O 0.37059 0.13473 0.86322 0.0
O155 O 0.38435 0.0769 0.81441 0.0
O156 O 0.43689 0.04042 0.86074 0.0
O157 O 0.40983 0.06064 0.07369 0.0
C158 C 0.47847 0.22509 0.83463 0.0
C159 C 0.42181 0.03096 1.00531 0.0
Dy160 Dy 0.90153 0.35388 0.75223 0.0
C161 C 0.89855 0.3346 0.30271 0.0
C162 C 0.90459 0.34326 0.45069 0.0
Dy163 Dy 0.88802 0.31946 0.99822 0.0
O164 O 0.92428 0.38759 0.52391 0.0
O165 O 0.88733 0.307 0.54152 0.0
O166 O 0.83982 0.37346 0.73691 0.0
O167 O 0.88589 0.39092 0.939 0.0
C168 C 0.85081 0.39614 0.86915 0.0
C169 C 0.91153 0.26501 0.78322 0.0
O170 O 0.80538 0.28865 0.97942 0.0
O171 O 0.81934 0.28212 0.7372 0.0
O172 O 0.87967 0.29 0.23225 0.0
O173 O 0.90949 0.36955 0.20862 0.0
O174 O 0.87066 0.24441 0.86426 0.0
O175 O 0.9361 0.3113 0.82267 0.0
O176 O 0.97531 0.41386 0.90932 0.0
O177 O 0.96827 0.35434 0.06738 0.0
C178 C 0.78646 0.26867 0.84629 0.0
C179 C 0.9924 0.4014 1.03556 0.0
Dy180 Dy 0.67875 0.12768 0.99232 0.0
C181 C 0.65015 0.11103 0.43004 0.0
C182 C 0.66029 0.11846 0.28705 0.0
Dy183 Dy 0.63879 0.11221 0.72646 0.0
O184 O 0.70659 0.1359 0.23428 0.0
O185 O 0.62542 0.10882 0.18123 0.0
O186 O 0.75108 0.13224 0.88045 0.0
O187 O 0.67863 0.07752 0.80564 0.0
C188 C 0.72501 0.09637 0.77551 0.0
C189 C 0.60264 0.16567 0.86571 0.0
O190 O 0.58411 0.03697 0.85738 0.0
O191 O 0.64373 0.05055 1.04758 0.0
O192 O 0.6044 0.09345 0.4878 0.0
O193 O 0.68681 0.12411 0.53176 0.0
O194 O 0.62556 0.17737 0.74004 0.0
O195 O 0.60632 0.12928 0.91871 0.0
O196 O 0.71623 0.20866 0.97279 0.0
O197 O 0.71761 0.18723 0.73096 0.0
C198 C 0.59724 0.02303 0.98921 0.0
C199 C 0.73567 0.22221 0.84247 0.0
Dy200 Dy 0.8733 0.55091 1.01247 0.0
C201 C 0.88657 0.53836 0.4578 0.0
C202 C 0.87623 0.53853 0.31164 0.0
Dy203 Dy 0.88239 0.53145 0.76082 0.0
O204 O 0.86749 0.57249 0.25056 0.0
O205 O 0.87755 0.50797 0.20964 0.0
O206 O 0.92944 0.63335 0.95579 0.0
O207 O 0.86962 0.59251 0.80551 0.0
C208 C 0.90885 0.63553 0.82758 0.0
C209 C 0.84632 0.44231 0.88179 0.0
O210 O 0.9648 0.56261 0.9043 0.0
O211 O 0.94726 0.59451 0.11167 0.0
O212 O 0.88944 0.50284 0.52847 0.0
O213 O 0.89093 0.57302 0.55174 0.0
O214 O 0.82333 0.4502 0.76771 0.0
O215 O 0.88286 0.48454 0.93817 0.0
O216 O 0.79132 0.51971 1.00347 0.0
O217 O 0.79741 0.51421 0.75137 0.0
C218 C 0.97764 0.58257 1.04939 0.0
C219 C 0.76938 0.50953 0.86887 0.0
Dy220 Dy 0.42135 0.31254 1.05499 0.0
C221 C 0.44182 0.34397 0.49875 0.0
C222 C 0.43781 0.33227 0.35344 0.0
Dy223 Dy 0.44571 0.35953 0.79668 0.0
O224 O 0.40453 0.28736 0.29061 0.0
O225 O 0.46344 0.36486 0.25483 0.0
O226 O 0.35684 0.24313 0.91304 0.0
O227 O 0.36978 0.31486 0.86941 0.0
C228 C 0.34396 0.26901 0.82387 0.0
C229 C 0.54471 0.40354 1.00877 0.0
O230 O 0.43141 0.41735 0.93763 0.0
O231 O 0.39152 0.36111 0.12061 0.0
O232 O 0.47172 0.38916 0.56666 0.0
O233 O 0.41431 0.31013 0.59131 0.0
O234 O 0.50116 0.364 0.97052 0.0
O235 O 0.50033 0.36442 0.9652 0.0
O236 O 0.45641 0.26824 1.00553 0.0
O237 O 0.45479 0.28863 0.75818 0.0
C238 C 0.41104 0.40681 0.07505 0.0
C239 C 0.46373 0.26299 0.86369 0.0
Dy240 Dy 0.3571 0.89847 0.34927 0.0
C241 C 0.33049 0.88242 0.78153 0.0
C242 C 0.34165 0.89307 0.6411 0.0
Dy243 Dy 0.31333 0.87623 0.07568 0.0
O244 O 0.38863 0.91534 0.58899 0.0
O245 O 0.30565 0.88002 0.53716 0.0
O246 O 0.3808 0.83995 0.3297 0.0
O247 O 0.38992 0.8857 0.15305 0.0
C248 C 0.40404 0.85615 0.20586 0.0
C249 C 0.26334 0.90524 0.28417 0.0
O250 O 0.28521 0.79709 0.12064 0.0
O251 O 0.28049 0.82469 0.34936 0.0
O252 O 0.28397 0.8641 0.83384 0.0
O253 O 0.36555 0.89289 0.88699 0.0
O254 O 0.23957 0.86995 0.17678 0.0
O255 O 0.31092 0.92662 0.262 0.0
O256 O 0.40632 0.97333 0.21767 0.0
O257 O 0.35212 0.95179 1.0065 0.0
C258 C 0.26294 0.78714 0.24798 0.0
C259 C 0.39672 0.98165 0.07297 0.0
Dy260 Dy 0.13815 0.45334 0.11921 0.0
C261 C 0.12572 0.46404 0.67889 0.0
C262 C 0.12746 0.45546 0.82222 0.0
Dy263 Dy 0.1148 0.46977 0.38094 0.0
O264 O 0.15483 0.43713 0.88638 0.0
O265 O 0.10296 0.46692 0.91724 0.0
O266 O 0.21628 0.52108 0.14928 0.0
O267 O 0.18806 0.4707 0.31983 0.0
C268 C 0.22867 0.50744 0.27248 0.0
C269 C 0.03674 0.43366 0.1475 0.0
O270 O 0.16147 0.55022 0.35539 0.0
O271 O 0.13469 0.52708 0.11319 0.0
O272 O 0.09597 0.47991 0.61667 0.0
O273 O 0.15091 0.45437 0.58054 0.0
O274 O 0.04608 0.47113 0.24282 0.0
O275 O 0.06446 0.4168 0.19367 0.0
O276 O 0.11064 0.3762 0.24744 0.0
O277 O 0.0776 0.39431 0.45308 0.0
C278 C 0.155 0.56292 0.22179 0.0
C279 C 0.09013 0.36442 0.3863 0.0
Dy280 Dy 0.53894 0.65136 0.35785 0.0
C281 C 0.55635 0.67069 0.80405 0.0
C282 C 0.55338 0.66248 0.65765 0.0
Dy283 Dy 0.56078 0.68266 0.1058 0.0
O284 O 0.52486 0.6183 0.58552 0.0
O285 O 0.57584 0.69862 0.5676 0.0
O286 O 0.45884 0.63705 0.34995 0.0
O287 O 0.48537 0.6142 0.16456 0.0
C288 C 0.44542 0.60982 0.22513 0.0
C289 C 0.64329 0.72894 0.32412 0.0
O290 O 0.5113 0.71556 0.11694 0.0
O291 O 0.53913 0.727 0.35771 0.0
O292 O 0.58518 0.71451 0.87771 0.0
O293 O 0.5298 0.63524 0.89307 0.0
O294 O 0.6272 0.75385 0.24206 0.0
O295 O 0.61512 0.68327 0.28571 0.0
O296 O 0.54534 0.58592 0.23112 0.0
O297 O 0.58995 0.63443 1.03966 0.0
C298 C 0.51813 0.73926 0.24547 0.0
C299 C 0.56678 0.59053 0.09658 0.0
Dy300 Dy 0.34918 0.46442 0.39343 0.0
C301 C 0.3172 0.44451 0.82385 0.0
C302 C 0.32844 0.45263 0.68288 0.0
Dy303 Dy 0.30526 0.44685 0.11706 0.0
O304 O 0.37519 0.4693 0.63395 0.0
O305 O 0.29456 0.44539 0.57657 0.0
O306 O 0.42181 0.4717 0.27788 0.0
O307 O 0.34888 0.4171 0.20299 0.0
C308 C 0.3951 0.43717 0.17028 0.0
C309 C 0.27579 0.50426 0.26356 0.0
O310 O 0.24987 0.3718 0.243 0.0
O311 O 0.30868 0.38506 0.43682 0.0
O312 O 0.27136 0.42882 0.87901 0.0
O313 O 0.35324 0.45605 0.92603 0.0
O314 O 0.29505 0.51333 0.13213 0.0
O315 O 0.27842 0.4672 0.31543 0.0
O316 O 0.38514 0.54524 0.36913 0.0
O317 O 0.38136 0.5245 0.121 0.0
C318 C 0.26236 0.35761 0.37485 0.0
C319 C 0.39975 0.55932 0.23392 0.0
Dy320 Dy 0.56491 0.8835 0.09154 0.0
C321 C 0.57247 0.89777 0.64888 0.0
C322 C 0.58157 0.89343 0.79318 0.0
Dy323 Dy 0.55046 0.90291 0.35256 0.0
O324 O 0.56266 0.85051 0.85895 0.0
O325 O 0.59911 0.93062 0.8918 0.0
O326 O 0.62787 0.87294 0.22784 0.0
O327 O 0.62427 0.93677 0.26653 0.0
C328 C 0.6481 0.91509 0.30913 0.0
C329 C 0.46039 0.87863 0.22685 0.0
O330 O 0.58223 0.97668 0.22078 0.0
O331 O 0.53777 0.93468 1.01033 0.0
O332 O 0.57813 0.93878 0.58838 0.0
O333 O 0.55108 0.85987 0.55224 0.0
O334 O 0.48307 0.91204 0.33904 0.0
O335 O 0.48586 0.85687 0.18742 0.0
O336 O 0.51726 0.80265 0.10561 0.0
O337 O 0.53932 0.8223 0.35335 0.0
C338 C 0.56484 0.97818 0.08062 0.0
C339 C 0.52033 0.78802 0.23971 0.0
Dy340 Dy 0.10592 0.65752 0.36859 0.0
C341 C 0.09715 0.66296 0.81109 0.0
C342 C 0.08892 0.6501 0.66569 0.0
Dy343 Dy 0.11846 0.69038 0.10807 0.0
O344 O 0.10922 0.62692 0.59459 0.0
O345 O 0.07078 0.66966 0.57265 0.0
O346 O 0.04341 0.58301 0.23443 0.0
O347 O 0.04719 0.64909 0.19181 0.0
C348 C 0.02727 0.60478 0.14011 0.0
C349 C 0.20718 0.75554 0.23346 0.0
O350 O 0.07874 0.72588 0.25468 0.0
O351 O 0.13145 0.73571 0.44862 0.0
O352 O 0.09008 0.69771 0.87679 0.0
O353 O 0.11939 0.64693 0.90328 0.0
O354 O 0.18342 0.76612 0.12689 0.0
O355 O 0.18316 0.70928 0.26922 0.0
O356 O 0.16143 0.63302 0.34749 0.0
O357 O 0.13165 0.62136 0.10588 0.0
C358 C 0.09918 0.74786 0.39179 0.0
C359 C 0.15487 0.61044 0.21664 0.0
loop_
_geom_bond_atom_site_label_1
_geom_bond_atom_site_label_2
_geom_bond_distance
_geom_bond_site_symmetry_2
_ccdc_geom_bond_type
Dy0 O4 2.398 . S
Dy0 O5 2.491 1_455 S
Dy0 O6 2.403 . S
Dy0 O7 2.664 . S
Dy0 O11 2.326 1_455 S
Dy0 O15 2.310 1_455 S
Dy0 O16 2.351 . S
C1 O12 1.185 . S
C1 O13 1.355 1_655 S
C2 O4 1.185 . S
C2 O5 1.355 1_455 S
Dy3 O7 2.310 1_655 S
Dy3 O10 2.351 . S
Dy3 O12 2.398 . S
Dy3 O13 2.491 1_655 S
Dy3 O14 2.403 . S
Dy3 O15 2.664 . S
Dy3 O17 2.326 1_655 S
O4 Dy0 2.398 . S
O4 C2 1.185 . S
O5 Dy0 2.491 1_655 S
O5 C2 1.355 1_655 S
O6 Dy0 2.403 . S
O6 C8 1.254 . S
O7 Dy0 2.664 . S
O7 Dy3 2.310 1_455 S
O7 C8 1.268 . S
C8 O6 1.254 . S
C8 O7 1.268 . S
C9 O14 1.254 . S
C9 O15 1.268 . S
O10 Dy3 2.351 . S
O10 C18 1.249 . S
O11 Dy0 2.326 1_655 S
O11 C18 1.267 . S
O12 C1 1.185 . S
O12 Dy3 2.398 . S
O13 C1 1.355 1_455 S
O13 Dy3 2.491 1_455 S
O14 Dy3 2.403 . S
O14 C9 1.254 . S
O15 Dy0 2.310 1_655 S
O15 Dy3 2.664 . S
O15 C9 1.268 . S
O16 Dy0 2.351 . S
O16 C19 1.249 . S
O17 Dy3 2.326 1_455 S
O17 C19 1.267 . S
C18 O10 1.249 . S
C18 O11 1.267 . S
C19 O16 1.249 . S
C19 O17 1.267 . S
Dy20 O24 2.398 . S
Dy20 O25 2.491 . S
Dy20 O26 2.403 . S
Dy20 O27 2.664 . S
Dy20 O31 2.326 . S
Dy20 O35 2.310 . S
Dy20 O36 2.351 . S
C21 O32 1.185 . S
C21 O33 1.355 . S
C22 O24 1.185 . S
C22 O25 1.355 . S
Dy23 O27 2.310 . S
Dy23 O30 2.351 . S
Dy23 O32 2.398 . S
Dy23 O33 2.491 . S
Dy23 O34 2.403 . S
Dy23 O35 2.664 . S
Dy23 O37 2.326 . S
O24 Dy20 2.398 . S
O24 C22 1.185 . S
O25 Dy20 2.491 . S
O25 C22 1.355 . S
O26 Dy20 2.403 . S
O26 C28 1.254 . S
O27 Dy20 2.664 . S
O27 Dy23 2.310 . S
O27 C28 1.268 . S
C28 O26 1.254 . S
C28 O27 1.268 . S
C29 O34 1.254 . S
C29 O35 1.268 . S
O30 Dy23 2.351 . S
O30 C38 1.249 . S
O31 Dy20 2.326 . S
O31 C38 1.267 . S
O32 C21 1.185 . S
O32 Dy23 2.398 . S
O33 C21 1.355 . S
O33 Dy23 2.491 . S
O34 Dy23 2.403 . S
O34 C29 1.254 . S
O35 Dy20 2.310 . S
O35 Dy23 2.664 . S
O35 C29 1.268 . S
O36 Dy20 2.351 . S
O36 C39 1.249 . S
O37 Dy23 2.326 . S
O37 C39 1.267 . S
C38 O30 1.249 . S
C38 O31 1.267 . S
C39 O36 1.249 . S
C39 O37 1.267 . S
Dy40 O44 2.398 . S
Dy40 O45 2.491 1_565 S
Dy40 O46 2.403 . S
Dy40 O47 2.664 . S
Dy40 O51 2.326 1_565 S
Dy40 O55 2.310 1_565 S
Dy40 O56 2.351 . S
C41 O52 1.185 1_565 S
C41 O53 1.356 . S
C42 O44 1.185 1_545 S
C42 O45 1.355 . S
Dy43 O47 2.310 1_545 S
Dy43 O50 2.351 . S
Dy43 O52 2.398 . S
Dy43 O53 2.491 1_545 S
Dy43 O54 2.403 . S
Dy43 O55 2.664 . S
Dy43 O57 2.326 1_545 S
O44 Dy40 2.398 . S
O44 C42 1.185 1_565 S
O45 Dy40 2.491 1_545 S
O45 C42 1.355 . S
O46 Dy40 2.403 . S
O46 C48 1.254 . S
O47 Dy40 2.664 . S
O47 Dy43 2.310 1_565 S
O47 C48 1.268 . S
C48 O46 1.254 . S
C48 O47 1.268 . S
C49 O54 1.254 . S
C49 O55 1.268 . S
O50 Dy43 2.351 . S
O50 C58 1.249 . S
O51 Dy40 2.326 1_545 S
O51 C58 1.267 . S
O52 C41 1.185 1_545 S
O52 Dy43 2.398 . S
O53 C41 1.356 . S
O53 Dy43 2.491 1_565 S
O54 Dy43 2.403 . S
O54 C49 1.254 . S
O55 Dy40 2.310 1_545 S
O55 Dy43 2.664 . S
O55 C49 1.268 . S
O56 Dy40 2.351 . S
O56 C59 1.249 . S
O57 Dy43 2.326 1_565 S
O57 C59 1.267 . S
C58 O50 1.249 . S
C58 O51 1.267 . S
C59 O56 1.249 . S
C59 O57 1.267 . S
Dy60 O64 2.398 . S
Dy60 O65 2.491 1_455 S
Dy60 O66 2.403 . S
Dy60 O67 2.664 . S
Dy60 O71 2.326 1_455 S
Dy60 O75 2.310 1_455 S
Dy60 O76 2.351 . S
C61 O72 1.185 . S
C61 O73 1.355 1_655 S
C62 O64 1.185 . S
C62 O65 1.355 1_455 S
Dy63 O67 2.310 1_655 S
Dy63 O70 2.351 . S
Dy63 O72 2.398 . S
Dy63 O73 2.491 1_655 S
Dy63 O74 2.403 . S
Dy63 O75 2.664 . S
Dy63 O77 2.326 1_655 S
O64 Dy60 2.398 . S
O64 C62 1.185 . S
O65 Dy60 2.491 1_655 S
O65 C62 1.355 1_655 S
O66 Dy60 2.403 . S
O66 C68 1.254 . S
O67 Dy60 2.664 . S
O67 Dy63 2.310 1_455 S
O67 C68 1.268 . S
C68 O66 1.254 . S
C68 O67 1.268 . S
C69 O74 1.254 . S
C69 O75 1.268 . S
O70 Dy63 2.351 . S
O70 C78 1.249 . S
O71 Dy60 2.326 1_655 S
O71 C78 1.267 . S
O72 C61 1.185 . S
O72 Dy63 2.398 . S
O73 C61 1.355 1_455 S
O73 Dy63 2.491 1_455 S
O74 Dy63 2.403 . S
O74 C69 1.254 . S
O75 Dy60 2.310 1_655 S
O75 Dy63 2.664 . S
O75 C69 1.268 . S
O76 Dy60 2.351 . S
O76 C79 1.249 . S
O77 Dy63 2.326 1_455 S
O77 C79 1.267 . S
C78 O70 1.249 . S
C78 O71 1.267 . S
C79 O76 1.249 . S
C79 O77 1.267 . S
Dy80 O84 2.398 . S
Dy80 O85 2.491 . S
Dy80 O86 2.403 . S
Dy80 O87 2.664 . S
Dy80 O91 2.326 . S
Dy80 O95 2.310 . S
Dy80 O96 2.351 . S
C81 O92 1.185 . S
C81 O93 1.355 . S
C82 O84 1.185 . S
C82 O85 1.355 . S
Dy83 O87 2.310 . S
Dy83 O90 2.351 . S
Dy83 O92 2.398 . S
Dy83 O93 2.491 . S
Dy83 O94 2.403 . S
Dy83 O95 2.664 . S
Dy83 O97 2.326 . S
O84 Dy80 2.398 . S
O84 C82 1.185 . S
O85 Dy80 2.491 . S
O85 C82 1.355 . S
O86 Dy80 2.403 . S
O86 C88 1.254 . S
O87 Dy80 2.664 . S
O87 Dy83 2.310 . S
O87 C88 1.268 . S
C88 O86 1.254 . S
C88 O87 1.268 . S
C89 O94 1.254 . S
C89 O95 1.268 . S
O90 Dy83 2.351 . S
O90 C98 1.249 . S
O91 Dy80 2.326 . S
O91 C98 1.267 . S
O92 C81 1.185 . S
O92 Dy83 2.398 . S
O93 C81 1.355 . S
O93 Dy83 2.491 . S
O94 Dy83 2.403 . S
O94 C89 1.254 . S
O95 Dy80 2.310 . S
O95 Dy83 2.664 . S
O95 C89 1.268 . S
O96 Dy80 2.351 . S
O96 C99 1.249 . S
O97 Dy83 2.326 . S
O97 C99 1.267 . S
C98 O90 1.249 . S
C98 O91 1.267 . S
C99 O96 1.249 . S
C99 O97 1.267 . S
Dy100 O104 2.398 . S
Dy100 O105 2.491 1_565 S
Dy100 O106 2.403 . S
Dy100 O107 2.664 . S
Dy100 O111 2.326 1_565 S
Dy100 O115 2.310 1_565 S
Dy100 O116 2.351 . S
C101 O112 1.185 . S
C101 O113 1.355 1_545 S
C102 O104 1.185 1_545 S
C102 O105 1.355 . S
Dy103 O107 2.310 1_545 S
Dy103 O110 2.351 . S
Dy103 O112 2.398 . S
Dy103 O113 2.491 1_545 S
Dy103 O114 2.403 . S
Dy103 O115 2.664 . S
Dy103 O117 2.326 1_545 S
O104 Dy100 2.398 . S
O104 C102 1.185 1_565 S
O105 Dy100 2.491 1_545 S
O105 C102 1.355 . S
O106 Dy100 2.403 . S
O106 C108 1.254 . S
O107 Dy100 2.664 . S
O107 Dy103 2.310 1_565 S
O107 C108 1.268 . S
C108 O106 1.254 . S
C108 O107 1.268 . S
C109 O114 1.254 . S
C109 O115 1.268 . S
O110 Dy103 2.351 . S
O110 C118 1.249 . S
O111 Dy100 2.326 1_545 S
O111 C118 1.267 . S
O112 C101 1.185 . S
O112 Dy103 2.398 . S
O113 C101 1.355 1_565 S
O113 Dy103 2.491 1_565 S
O114 Dy103 2.403 . S
O114 C109 1.254 . S
O115 Dy100 2.310 1_545 S
O115 Dy103 2.664 . S
O115 C109 1.268 . S
O116 Dy100 2.351 . S
O116 C119 1.249 . S
O117 Dy103 2.326 1_565 S
O117 C119 1.267 . S
C118 O110 1.249 . S
C118 O111 1.267 . S
C119 O116 1.249 . S
C119 O117 1.267 . S
Dy120 O124 2.398 . S
Dy120 O125 2.491 . S
Dy120 O126 2.403 . S
Dy120 O127 2.664 . S
Dy120 O131 2.326 . S
Dy120 O135 2.310 . S
Dy120 O136 2.351 . S
C121 O132 1.185 . S
C121 O133 1.355 . S
C122 O124 1.185 . S
C122 O125 1.355 . S
Dy123 O127 2.310 . S
Dy123 O130 2.351 . S
Dy123 O132 2.398 1_556 S
Dy123 O133 2.491 1_556 S
Dy123 O134 2.403 . S
Dy123 O135 2.664 . S
Dy123 O137 2.326 . S
O124 Dy120 2.398 . S
O124 C122 1.185 . S
O125 Dy120 2.491 . S
O125 C122 1.355 . S
O126 Dy120 2.403 . S
O126 C128 1.254 . S
O127 Dy120 2.664 . S
O127 Dy123 2.310 . S
O127 C128 1.268 . S
C128 O126 1.254 . S
C128 O127 1.268 . S
C129 O134 1.254 . S
C129 O135 1.268 . S
O130 Dy123 2.351 . S
O130 C138 1.249 . S
O131 Dy120 2.326 . S
O131 C138 1.267 . S
O132 C121 1.185 . S
O132 Dy123 2.398 1_554 S
O133 C121 1.355 . S
O133 Dy123 2.491 1_554 S
O134 Dy123 2.403 . S
O134 C129 1.254 . S
O135 Dy120 2.310 . S
O135 Dy123 2.664 . S
O135 C129 1.268 . S
O136 Dy120 2.351 . S
O136 C139 1.249 . S
O137 Dy123 2.326 . S
O137 C139 1.267 . S
C138 O130 1.249 . S
C138 O131 1.267 . S
C139 O136 1.249 . S
C139 O137 1.267 . S
Dy140 O144 2.398 . S
Dy140 O145 2.491 . S
Dy140 O146 2.403 . S
Dy140 O147 2.664 . S
Dy140 O151 2.326 . S
Dy140 O155 2.310 . S
Dy140 O156 2.351 . S
C141 O152 1.185 . S
C141 O153 1.355 . S
C142 O144 1.185 . S
C142 O145 1.355 . S
Dy143 O147 2.310 . S
Dy143 O150 2.351 . S
Dy143 O152 2.398 1_556 S
Dy143 O153 2.491 1_556 S
Dy143 O154 2.403 . S
Dy143 O155 2.664 . S
Dy143 O157 2.326 . S
O144 Dy140 2.398 . S
O144 C142 1.185 . S
O145 Dy140 2.491 . S
O145 C142 1.355 . S
O146 Dy140 2.403 . S
O146 C148 1.254 . S
O147 Dy140 2.664 . S
O147 Dy143 2.310 . S
O147 C148 1.268 . S
C148 O146 1.254 . S
C148 O147 1.268 . S
C149 O154 1.254 . S
C149 O155 1.268 . S
O150 Dy143 2.351 . S
O150 C158 1.249 . S
O151 Dy140 2.326 . S
O151 C158 1.267 . S
O152 C141 1.185 . S
O152 Dy143 2.398 1_554 S
O153 C141 1.355 . S
O153 Dy143 2.491 1_554 S
O154 Dy143 2.403 . S
O154 C149 1.254 . S
O155 Dy140 2.310 . S
O155 Dy143 2.664 . S
O155 C149 1.268 . S
O156 Dy140 2.351 . S
O156 C159 1.249 . S
O157 Dy143 2.326 . S
O157 C159 1.267 . S
C158 O150 1.249 . S
C158 O151 1.267 . S
C159 O156 1.249 . S
C159 O157 1.267 . S
Dy160 O164 2.398 . S
Dy160 O165 2.491 . S
Dy160 O166 2.403 . S
Dy160 O167 2.664 . S
Dy160 O171 2.326 . S
Dy160 O175 2.310 . S
Dy160 O176 2.351 . S
C161 O172 1.185 . S
C161 O173 1.355 . S
C162 O164 1.185 . S
C162 O165 1.355 . S
Dy163 O167 2.310 . S
Dy163 O170 2.351 . S
Dy163 O172 2.398 1_556 S
Dy163 O173 2.491 1_556 S
Dy163 O174 2.403 . S
Dy163 O175 2.664 . S
Dy163 O177 2.326 . S
O164 Dy160 2.398 . S
O164 C162 1.185 . S
O165 Dy160 2.491 . S
O165 C162 1.355 . S
O166 Dy160 2.403 . S
O166 C168 1.254 . S
O167 Dy160 2.664 . S
O167 Dy163 2.310 . S
O167 C168 1.268 . S
C168 O166 1.254 . S
C168 O167 1.268 . S
C169 O174 1.254 . S
C169 O175 1.268 . S
O170 Dy163 2.351 . S
O170 C178 1.249 . S
O171 Dy160 2.326 . S
O171 C178 1.267 . S
O172 C161 1.185 . S
O172 Dy163 2.398 1_554 S
O173 C161 1.355 . S
O173 Dy163 2.491 1_554 S
O174 Dy163 2.403 . S
O174 C169 1.254 . S
O175 Dy160 2.310 . S
O175 Dy163 2.664 . S
O175 C169 1.268 . S
O176 Dy160 2.351 . S
O176 C179 1.249 . S
O177 Dy163 2.326 . S
O177 C179 1.267 . S
C178 O170 1.249 . S
C178 O171 1.267 . S
C179 O176 1.249 . S
C179 O177 1.267 . S
Dy180 O184 2.398 1_556 S
Dy180 O185 2.491 1_556 S
Dy180 O186 2.403 . S
Dy180 O187 2.664 . S
Dy180 O191 2.326 . S
Dy180 O195 2.310 . S
Dy180 O196 2.351 . S
C181 O192 1.185 . S
C181 O193 1.355 . S
C182 O184 1.185 . S
C182 O185 1.355 . S
Dy183 O187 2.310 . S
Dy183 O190 2.351 . S
Dy183 O192 2.398 . S
Dy183 O193 2.491 . S
Dy183 O194 2.403 . S
Dy183 O195 2.664 . S
Dy183 O197 2.326 . S
O184 Dy180 2.398 1_554 S
O184 C182 1.185 . S
O185 Dy180 2.491 1_554 S
O185 C182 1.355 . S
O186 Dy180 2.403 . S
O186 C188 1.254 . S
O187 Dy180 2.664 . S
O187 Dy183 2.310 . S
O187 C188 1.268 . S
C188 O186 1.254 . S
C188 O187 1.268 . S
C189 O194 1.254 . S
C189 O195 1.268 . S
O190 Dy183 2.351 . S
O190 C198 1.249 . S
O191 Dy180 2.326 . S
O191 C198 1.267 . S
O192 C181 1.185 . S
O192 Dy183 2.398 . S
O193 C181 1.355 . S
O193 Dy183 2.491 . S
O194 Dy183 2.403 . S
O194 C189 1.254 . S
O195 Dy180 2.310 . S
O195 Dy183 2.664 . S
O195 C189 1.268 . S
O196 Dy180 2.351 . S
O196 C199 1.249 . S
O197 Dy183 2.326 . S
O197 C199 1.267 . S
C198 O190 1.249 . S
C198 O191 1.267 . S
C199 O196 1.249 . S
C199 O197 1.267 . S
Dy200 O204 2.398 1_556 S
Dy200 O205 2.491 1_556 S
Dy200 O206 2.403 . S
Dy200 O207 2.664 . S
Dy200 O211 2.326 1_556 S
Dy200 O215 2.310 . S
Dy200 O216 2.351 . S
C201 O212 1.185 . S
C201 O213 1.355 . S
C202 O204 1.185 . S
C202 O205 1.355 . S
Dy203 O207 2.310 . S
Dy203 O210 2.351 . S
Dy203 O212 2.398 . S
Dy203 O213 2.491 . S
Dy203 O214 2.403 . S
Dy203 O215 2.664 . S
Dy203 O217 2.326 . S
O204 Dy200 2.398 1_554 S
O204 C202 1.185 . S
O205 Dy200 2.491 1_554 S
O205 C202 1.355 . S
O206 Dy200 2.403 . S
O206 C208 1.254 . S
O207 Dy200 2.664 . S
O207 Dy203 2.310 . S
O207 C208 1.268 . S
C208 O206 1.254 . S
C208 O207 1.268 . S
C209 O214 1.254 . S
C209 O215 1.268 . S
O210 Dy203 2.351 . S
O210 C218 1.249 . S
O211 Dy200 2.326 1_554 S
O211 C218 1.267 1_554 S
O212 C201 1.185 . S
O212 Dy203 2.398 . S
O213 C201 1.355 . S
O213 Dy203 2.491 . S
O214 Dy203 2.403 . S
O214 C209 1.254 . S
O215 Dy200 2.310 . S
O215 Dy203 2.664 . S
O215 C209 1.268 . S
O216 Dy200 2.351 . S
O216 C219 1.249 . S
O217 Dy203 2.326 . S
O217 C219 1.267 . S
C218 O210 1.249 . S
C218 O211 1.267 1_556 S
C219 O216 1.249 . S
C219 O217 1.267 . S
Dy220 O224 2.398 1_556 S
Dy220 O225 2.491 1_556 S
Dy220 O226 2.403 . S
Dy220 O227 2.664 . S
Dy220 O231 2.326 . S
Dy220 O235 2.310 . S
Dy220 O236 2.351 . S
C221 O232 1.185 . S
C221 O233 1.355 . S
C222 O224 1.185 . S
C222 O225 1.355 . S
Dy223 O227 2.310 . S
Dy223 O230 2.351 . S
Dy223 O232 2.398 . S
Dy223 O233 2.491 . S
Dy223 O234 2.403 . S
Dy223 O235 2.664 . S
Dy223 O237 2.326 . S
O224 Dy220 2.398 1_554 S
O224 C222 1.185 . S
O225 Dy220 2.491 1_554 S
O225 C222 1.355 . S
O226 Dy220 2.403 . S
O226 C228 1.254 . S
O227 Dy220 2.664 . S
O227 Dy223 2.310 . S
O227 C228 1.268 . S
C228 O226 1.254 . S
C228 O227 1.268 . S
C229 O234 1.254 . S
C229 O235 1.268 . S
O230 Dy223 2.351 . S
O230 C238 1.249 . S
O231 Dy220 2.326 . S
O231 C238 1.267 . S
O232 C221 1.185 . S
O232 Dy223 2.398 . S
O233 C221 1.355 . S
O233 Dy223 2.491 . S
O234 Dy223 2.403 . S
O234 C229 1.254 . S
O235 Dy220 2.310 . S
O235 Dy223 2.664 . S
O235 C229 1.268 . S
O236 Dy220 2.351 . S
O236 C239 1.249 . S
O237 Dy223 2.326 . S
O237 C239 1.267 . S
C238 O230 1.249 . S
C238 O231 1.267 . S
C239 O236 1.249 . S
C239 O237 1.267 . S
Dy240 O244 2.398 . S
Dy240 O245 2.491 . S
Dy240 O246 2.403 . S
Dy240 O247 2.664 . S
Dy240 O251 2.326 . S
Dy240 O255 2.310 . S
Dy240 O256 2.351 . S
C241 O252 1.185 . S
C241 O253 1.355 . S
C242 O244 1.185 . S
C242 O245 1.355 . S
Dy243 O247 2.310 1_556 S
Dy243 O250 2.351 1_556 S
Dy243 O252 2.398 . S
Dy243 O253 2.491 . S
Dy243 O254 2.403 1_556 S
Dy243 O255 2.664 1_556 S
Dy243 O257 2.326 1_556 S
O244 Dy240 2.398 . S
O244 C242 1.185 . S
O245 Dy240 2.491 . S
O245 C242 1.355 . S
O246 Dy240 2.403 . S
O246 C248 1.254 . S
O247 Dy240 2.664 . S
O247 Dy243 2.310 1_554 S
O247 C248 1.268 . S
C248 O246 1.254 . S
C248 O247 1.268 . S
C249 O254 1.254 . S
C249 O255 1.268 . S
O250 Dy243 2.351 1_554 S
O250 C258 1.249 . S
O251 Dy240 2.326 . S
O251 C258 1.267 . S
O252 C241 1.185 . S
O252 Dy243 2.398 . S
O253 C241 1.355 . S
O253 Dy243 2.491 . S
O254 Dy243 2.403 1_554 S
O254 C249 1.254 . S
O255 Dy240 2.310 . S
O255 Dy243 2.664 1_554 S
O255 C249 1.268 . S
O256 Dy240 2.351 . S
O256 C259 1.249 . S
O257 Dy243 2.326 1_554 S
O257 C259 1.267 . S
C258 O250 1.249 . S
C258 O251 1.267 . S
C259 O256 1.249 . S
C259 O257 1.267 . S
Dy260 O264 2.398 . S
Dy260 O265 2.491 . S
Dy260 O266 2.403 1_556 S
Dy260 O267 2.664 1_556 S
Dy260 O271 2.326 1_556 S
Dy260 O275 2.310 1_556 S
Dy260 O276 2.351 1_556 S
C261 O272 1.185 . S
C261 O273 1.355 . S
C262 O264 1.185 . S
C262 O265 1.355 . S
Dy263 O267 2.310 . S
Dy263 O270 2.351 . S
Dy263 O272 2.398 . S
Dy263 O273 2.491 . S
Dy263 O274 2.403 . S
Dy263 O275 2.664 . S
Dy263 O277 2.326 . S
O264 Dy260 2.398 . S
O264 C262 1.185 . S
O265 Dy260 2.491 . S
O265 C262 1.355 . S
O266 Dy260 2.403 1_554 S
O266 C268 1.254 . S
O267 Dy260 2.664 1_554 S
O267 Dy263 2.310 . S
O267 C268 1.268 . S
C268 O266 1.254 . S
C268 O267 1.268 . S
C269 O274 1.254 . S
C269 O275 1.268 . S
O270 Dy263 2.351 . S
O270 C278 1.249 . S
O271 Dy260 2.326 1_554 S
O271 C278 1.267 . S
O272 C261 1.185 . S
O272 Dy263 2.398 . S
O273 C261 1.355 . S
O273 Dy263 2.491 . S
O274 Dy263 2.403 . S
O274 C269 1.254 . S
O275 Dy260 2.310 1_554 S
O275 Dy263 2.664 . S
O275 C269 1.268 . S
O276 Dy260 2.351 1_554 S
O276 C279 1.249 . S
O277 Dy263 2.326 . S
O277 C279 1.267 . S
C278 O270 1.249 . S
C278 O271 1.267 . S
C279 O276 1.249 . S
C279 O277 1.267 . S
Dy280 O284 2.398 . S
Dy280 O285 2.491 . S
Dy280 O286 2.403 . S
Dy280 O287 2.664 . S
Dy280 O291 2.326 . S
Dy280 O295 2.310 . S
Dy280 O296 2.351 . S
C281 O292 1.185 . S
C281 O293 1.355 . S
C282 O284 1.185 . S
C282 O285 1.355 . S
Dy283 O287 2.310 . S
Dy283 O290 2.351 . S
Dy283 O292 2.398 1_554 S
Dy283 O293 2.491 1_554 S
Dy283 O294 2.403 . S
Dy283 O295 2.664 . S
Dy283 O297 2.326 . S
O284 Dy280 2.398 . S
O284 C282 1.185 . S
O285 Dy280 2.491 . S
O285 C282 1.355 . S
O286 Dy280 2.403 . S
O286 C288 1.254 . S
O287 Dy280 2.664 . S
O287 Dy283 2.310 . S
O287 C288 1.268 . S
C288 O286 1.254 . S
C288 O287 1.268 . S
C289 O294 1.254 . S
C289 O295 1.268 . S
O290 Dy283 2.351 . S
O290 C298 1.249 . S
O291 Dy280 2.326 . S
O291 C298 1.267 . S
O292 C281 1.185 . S
O292 Dy283 2.398 1_556 S
O293 C281 1.355 . S
O293 Dy283 2.491 1_556 S
O294 Dy283 2.403 . S
O294 C289 1.254 . S
O295 Dy280 2.310 . S
O295 Dy283 2.664 . S
O295 C289 1.268 . S
O296 Dy280 2.351 . S
O296 C299 1.249 . S
O297 Dy283 2.326 . S
O297 C299 1.267 . S
C298 O290 1.249 . S
C298 O291 1.267 . S
C299 O296 1.249 . S
C299 O297 1.267 . S
Dy300 O304 2.398 . S
Dy300 O305 2.491 . S
Dy300 O306 2.403 . S
Dy300 O307 2.664 . S
Dy300 O311 2.326 . S
Dy300 O315 2.310 . S
Dy300 O316 2.351 . S
C301 O312 1.185 . S
C301 O313 1.355 . S
C302 O304 1.185 . S
C302 O305 1.355 . S
Dy303 O307 2.310 1_556 S
Dy303 O310 2.351 1_556 S
Dy303 O312 2.398 . S
Dy303 O313 2.491 . S
Dy303 O314 2.403 1_556 S
Dy303 O315 2.664 1_556 S
Dy303 O317 2.326 1_556 S
O304 Dy300 2.398 . S
O304 C302 1.185 . S
O305 Dy300 2.491 . S
O305 C302 1.355 . S
O306 Dy300 2.403 . S
O306 C308 1.254 . S
O307 Dy300 2.664 . S
O307 Dy303 2.310 1_554 S
O307 C308 1.268 . S
C308 O306 1.254 . S
C308 O307 1.268 . S
C309 O314 1.254 . S
C309 O315 1.268 . S
O310 Dy303 2.351 1_554 S
O310 C318 1.249 . S
O311 Dy300 2.326 . S
O311 C318 1.267 . S
O312 C301 1.185 . S
O312 Dy303 2.398 . S
O313 C301 1.355 . S
O313 Dy303 2.491 . S
O314 Dy303 2.403 1_554 S
O314 C309 1.254 . S
O315 Dy300 2.310 . S
O315 Dy303 2.664 1_554 S
O315 C309 1.268 . S
O316 Dy300 2.351 . S
O316 C319 1.249 . S
O317 Dy303 2.326 1_554 S
O317 C319 1.267 . S
C318 O310 1.249 . S
C318 O311 1.267 . S
C319 O316 1.249 . S
C319 O317 1.267 . S
Dy320 O324 2.398 1_554 S
Dy320 O325 2.491 1_554 S
Dy320 O326 2.403 . S
Dy320 O327 2.664 . S
Dy320 O331 2.326 . S
Dy320 O335 2.310 . S
Dy320 O336 2.351 . S
C321 O332 1.185 . S
C321 O333 1.355 . S
C322 O324 1.185 . S
C322 O325 1.355 . S
Dy323 O327 2.310 . S
Dy323 O330 2.351 . S
Dy323 O332 2.398 . S
Dy323 O333 2.491 . S
Dy323 O334 2.403 . S
Dy323 O335 2.664 . S
Dy323 O337 2.326 . S
O324 Dy320 2.398 1_556 S
O324 C322 1.185 . S
O325 Dy320 2.491 1_556 S
O325 C322 1.355 . S
O326 Dy320 2.403 . S
O326 C328 1.254 . S
O327 Dy320 2.664 . S
O327 Dy323 2.310 . S
O327 C328 1.268 . S
C328 O326 1.254 . S
C328 O327 1.268 . S
C329 O334 1.254 . S
C329 O335 1.268 . S
O330 Dy323 2.351 . S
O330 C338 1.249 . S
O331 Dy320 2.326 . S
O331 C338 1.267 . S
O332 C321 1.185 . S
O332 Dy323 2.398 . S
O333 C321 1.355 . S
O333 Dy323 2.491 . S
O334 Dy323 2.403 . S
O334 C329 1.254 . S
O335 Dy320 2.310 . S
O335 Dy323 2.664 . S
O335 C329 1.268 . S
O336 Dy320 2.351 . S
O336 C339 1.249 . S
O337 Dy323 2.326 . S
O337 C339 1.267 . S
C338 O330 1.249 . S
C338 O331 1.267 . S
C339 O336 1.249 . S
C339 O337 1.267 . S
Dy340 O344 2.398 . S
Dy340 O345 2.491 . S
Dy340 O346 2.403 . S
Dy340 O347 2.664 . S
Dy340 O351 2.326 . S
Dy340 O355 2.310 . S
Dy340 O356 2.351 . S
C341 O352 1.185 . S
C341 O353 1.355 . S
C342 O344 1.185 . S
C342 O345 1.355 . S
Dy343 O347 2.310 . S
Dy343 O350 2.351 . S
Dy343 O352 2.398 1_554 S
Dy343 O353 2.491 1_554 S
Dy343 O354 2.403 . S
Dy343 O355 2.664 . S
Dy343 O357 2.326 . S
O344 Dy340 2.398 . S
O344 C342 1.185 . S
O345 Dy340 2.491 . S
O345 C342 1.355 . S
O346 Dy340 2.403 . S
O346 C348 1.254 . S
O347 Dy340 2.664 . S
O347 Dy343 2.310 . S
O347 C348 1.268 . S
C348 O346 1.254 . S
C348 O347 1.268 . S
C349 O354 1.254 . S
C349 O355 1.268 . S
O350 Dy343 2.351 . S
O350 C358 1.249 . S
O351 Dy340 2.326 . S
O351 C358 1.267 . S
O352 C341 1.185 . S
O352 Dy343 2.398 1_556 S
O353 C341 1.355 . S
O353 Dy343 2.491 1_556 S
O354 Dy343 2.403 . S
O354 C349 1.254 . S
O355 Dy340 2.310 . S
O355 Dy343 2.664 . S
O355 C349 1.268 . S
O356 Dy340 2.351 . S
O356 C359 1.249 . S
O357 Dy343 2.326 . S
O357 C359 1.267 . S
C358 O350 1.249 . S
C358 O351 1.267 . S
C359 O356 1.249 . S
C359 O357 1.267 . S
C279 C19 2.404 . S
C29 C289 2.521 . S
C59 C249 2.465 . S
C49 C149 2.384 . S
C169 C9 2.682 . S
C39 C129 2.555 . S
C78 C208 2.449 . S
C88 C228 2.217 . S
C188 C118 2.125 . S
C328 C108 2.536 . S
C68 C358 2.484 . S
C318 C98 2.413 . S
C179 C269 2.356 1_656 S
C139 C299 2.269 1_556 S
C159 C259 2.551 1_546 S
C198 C338 2.693 1_546 S
C348 C218 2.546 1_454 S
C308 C238 2.807 1_554 S
C8 C89 1.292 . S
C119 C38 2.036 . S
C79 C48 1.607 . S
C99 C58 2.074 . S
C109 C18 1.790 . S
C69 C28 1.417 . S
C219 C138 2.059 . S
C239 C158 2.149 . S
C199 C178 2.136 . S
C209 C168 1.362 . S
C229 C128 1.393 . S
C189 C148 1.282 . S
C329 C248 1.356 . S
C359 C278 2.027 . S
C288 C319 1.741 . S
C298 C339 2.162 . S
C258 C349 1.685 . S
C309 C268 1.310 . S
C1 C2 1.413 1_654 S
C22 C21 1.499 1_554 S
C41 C42 1.287 1_564 S
C62 C61 1.549 1_456 S
C82 C81 1.298 1_554 S
C101 C102 1.521 1_554 S
C121 C122 1.885 . S
C142 C141 1.303 . S
C161 C162 1.742 . S
C182 C181 1.427 . S
C202 C201 1.722 . S
C222 C221 1.250 . S
C242 C241 1.494 . S
C262 C261 1.511 . S
C281 C282 1.315 . S
C301 C302 1.678 . S
C322 C321 1.371 . S
C342 C341 1.433 . S
