# Generated by pormake.
# Topology ukc, (4)-cn, num edge types: 1
# Building blocks:
#     Node 0, Type 0, BuildingBlock: NAHDIM_clean_sbu_0, # of connection points: 4
#     Node 1, Type 0, BuildingBlock: NAHDIM_clean_sbu_0, # of connection points: 4
#     Node 2, Type 0, BuildingBlock: NAHDIM_clean_sbu_0, # of connection points: 4
#     Node 3, Type 0, BuildingBlock: NAHDIM_clean_sbu_0, # of connection points: 4
#     Node 4, Type 0, BuildingBlock: NAHDIM_clean_sbu_0, # of connection points: 4
#     Node 5, Type 0, BuildingBlock: NAHDIM_clean_sbu_0, # of connection points: 4
#     Node 6, Type 0, BuildingBlock: NAHDIM_clean_sbu_0, # of connection points: 4
#     Node 7, Type 0, BuildingBlock: NAHDIM_clean_sbu_0, # of connection points: 4
#     Node 8, Type 0, BuildingBlock: NAHDIM_clean_sbu_0, # of connection points: 4
#     Node 9, Type 0, BuildingBlock: NAHDIM_clean_sbu_0, # of connection points: 4
#     Node 10, Type 0, BuildingBlock: NAHDIM_clean_sbu_0, # of connection points: 4
#     Node 11, Type 0, BuildingBlock: NAHDIM_clean_sbu_0, # of connection points: 4
#     Node 12, Type 0, BuildingBlock: NAHDIM_clean_sbu_0, # of connection points: 4
#     Node 13, Type 0, BuildingBlock: NAHDIM_clean_sbu_0, # of connection points: 4
#     Node 14, Type 0, BuildingBlock: NAHDIM_clean_sbu_0, # of connection points: 4
#     Node 15, Type 0, BuildingBlock: NAHDIM_clean_sbu_0, # of connection points: 4
#     Node 16, Type 0, BuildingBlock: NAHDIM_clean_sbu_0, # of connection points: 4
#     Node 17, Type 0, BuildingBlock: NAHDIM_clean_sbu_0, # of connection points: 4
#     Node 18, Type 0, BuildingBlock: NAHDIM_clean_sbu_0, # of connection points: 4
#     Node 19, Type 0, BuildingBlock: NAHDIM_clean_sbu_0, # of connection points: 4
#     Node 20, Type 0, BuildingBlock: NAHDIM_clean_sbu_0, # of connection points: 4
#     Node 21, Type 0, BuildingBlock: NAHDIM_clean_sbu_0, # of connection points: 4
#     Node 22, Type 0, BuildingBlock: NAHDIM_clean_sbu_0, # of connection points: 4
#     Node 23, Type 0, BuildingBlock: NAHDIM_clean_sbu_0, # of connection points: 4
#     Node 24, Type 0, BuildingBlock: NAHDIM_clean_sbu_0, # of connection points: 4
#     Node 25, Type 0, BuildingBlock: NAHDIM_clean_sbu_0, # of connection points: 4
#     Node 26, Type 0, BuildingBlock: NAHDIM_clean_sbu_0, # of connection points: 4
#     Node 27, Type 0, BuildingBlock: NAHDIM_clean_sbu_0, # of connection points: 4
#     Node 28, Type 0, BuildingBlock: NAHDIM_clean_sbu_0, # of connection points: 4
#     Node 29, Type 0, BuildingBlock: NAHDIM_clean_sbu_0, # of connection points: 4
#     Node 30, Type 0, BuildingBlock: NAHDIM_clean_sbu_0, # of connection points: 4
#     Node 31, Type 0, BuildingBlock: NAHDIM_clean_sbu_0, # of connection points: 4
#     Edge 32, Type (0, 0), BuildingBlock: AJUNOK_clean_linker_0, # of connection points: 2
#     Edge 33, Type (0, 0), BuildingBlock: AJUNOK_clean_linker_0, # of connection points: 2
#     Edge 34, Type (0, 0), BuildingBlock: AJUNOK_clean_linker_0, # of connection points: 2
#     Edge 35, Type (0, 0), BuildingBlock: AJUNOK_clean_linker_0, # of connection points: 2
#     Edge 36, Type (0, 0), BuildingBlock: AJUNOK_clean_linker_0, # of connection points: 2
#     Edge 37, Type (0, 0), BuildingBlock: AJUNOK_clean_linker_0, # of connection points: 2
#     Edge 38, Type (0, 0), BuildingBlock: AJUNOK_clean_linker_0, # of connection points: 2
#     Edge 39, Type (0, 0), BuildingBlock: AJUNOK_clean_linker_0, # of connection points: 2
#     Edge 40, Type (0, 0), BuildingBlock: AJUNOK_clean_linker_0, # of connection points: 2
#     Edge 41, Type (0, 0), BuildingBlock: AJUNOK_clean_linker_0, # of connection points: 2
#     Edge 42, Type (0, 0), BuildingBlock: AJUNOK_clean_linker_0, # of connection points: 2
#     Edge 43, Type (0, 0), BuildingBlock: AJUNOK_clean_linker_0, # of connection points: 2
#     Edge 44, Type (0, 0), BuildingBlock: AJUNOK_clean_linker_0, # of connection points: 2
#     Edge 45, Type (0, 0), BuildingBlock: AJUNOK_clean_linker_0, # of connection points: 2
#     Edge 46, Type (0, 0), BuildingBlock: AJUNOK_clean_linker_0, # of connection points: 2
#     Edge 47, Type (0, 0), BuildingBlock: AJUNOK_clean_linker_0, # of connection points: 2
#     Edge 48, Type (0, 0), BuildingBlock: AJUNOK_clean_linker_0, # of connection points: 2
#     Edge 49, Type (0, 0), BuildingBlock: AJUNOK_clean_linker_0, # of connection points: 2
#     Edge 50, Type (0, 0), BuildingBlock: AJUNOK_clean_linker_0, # of connection points: 2
#     Edge 51, Type (0, 0), BuildingBlock: AJUNOK_clean_linker_0, # of connection points: 2
#     Edge 52, Type (0, 0), BuildingBlock: AJUNOK_clean_linker_0, # of connection points: 2
#     Edge 53, Type (0, 0), BuildingBlock: AJUNOK_clean_linker_0, # of connection points: 2
#     Edge 54, Type (0, 0), BuildingBlock: AJUNOK_clean_linker_0, # of connection points: 2
#     Edge 55, Type (0, 0), BuildingBlock: AJUNOK_clean_linker_0, # of connection points: 2
#     Edge 56, Type (0, 0), BuildingBlock: AJUNOK_clean_linker_0, # of connection points: 2
#     Edge 57, Type (0, 0), BuildingBlock: AJUNOK_clean_linker_0, # of connection points: 2
#     Edge 58, Type (0, 0), BuildingBlock: AJUNOK_clean_linker_0, # of connection points: 2
#     Edge 59, Type (0, 0), BuildingBlock: AJUNOK_clean_linker_0, # of connection points: 2
#     Edge 60, Type (0, 0), BuildingBlock: AJUNOK_clean_linker_0, # of connection points: 2
#     Edge 61, Type (0, 0), BuildingBlock: AJUNOK_clean_linker_0, # of connection points: 2
#     Edge 62, Type (0, 0), BuildingBlock: AJUNOK_clean_linker_0, # of connection points: 2
#     Edge 63, Type (0, 0), BuildingBlock: AJUNOK_clean_linker_0, # of connection points: 2
#     Edge 64, Type (0, 0), BuildingBlock: AJUNOK_clean_linker_0, # of connection points: 2
#     Edge 65, Type (0, 0), BuildingBlock: AJUNOK_clean_linker_0, # of connection points: 2
#     Edge 66, Type (0, 0), BuildingBlock: AJUNOK_clean_linker_0, # of connection points: 2
#     Edge 67, Type (0, 0), BuildingBlock: AJUNOK_clean_linker_0, # of connection points: 2
#     Edge 68, Type (0, 0), BuildingBlock: AJUNOK_clean_linker_0, # of connection points: 2
#     Edge 69, Type (0, 0), BuildingBlock: AJUNOK_clean_linker_0, # of connection points: 2
#     Edge 70, Type (0, 0), BuildingBlock: AJUNOK_clean_linker_0, # of connection points: 2
#     Edge 71, Type (0, 0), BuildingBlock: AJUNOK_clean_linker_0, # of connection points: 2
#     Edge 72, Type (0, 0), BuildingBlock: AJUNOK_clean_linker_0, # of connection points: 2
#     Edge 73, Type (0, 0), BuildingBlock: AJUNOK_clean_linker_0, # of connection points: 2
#     Edge 74, Type (0, 0), BuildingBlock: AJUNOK_clean_linker_0, # of connection points: 2
#     Edge 75, Type (0, 0), BuildingBlock: AJUNOK_clean_linker_0, # of connection points: 2
#     Edge 76, Type (0, 0), BuildingBlock: AJUNOK_clean_linker_0, # of connection points: 2
#     Edge 77, Type (0, 0), BuildingBlock: AJUNOK_clean_linker_0, # of connection points: 2
#     Edge 78, Type (0, 0), BuildingBlock: AJUNOK_clean_linker_0, # of connection points: 2
#     Edge 79, Type (0, 0), BuildingBlock: AJUNOK_clean_linker_0, # of connection points: 2
#     Edge 80, Type (0, 0), BuildingBlock: AJUNOK_clean_linker_0, # of connection points: 2
#     Edge 81, Type (0, 0), BuildingBlock: AJUNOK_clean_linker_0, # of connection points: 2
#     Edge 82, Type (0, 0), BuildingBlock: AJUNOK_clean_linker_0, # of connection points: 2
#     Edge 83, Type (0, 0), BuildingBlock: AJUNOK_clean_linker_0, # of connection points: 2
#     Edge 84, Type (0, 0), BuildingBlock: AJUNOK_clean_linker_0, # of connection points: 2
#     Edge 85, Type (0, 0), BuildingBlock: AJUNOK_clean_linker_0, # of connection points: 2
#     Edge 86, Type (0, 0), BuildingBlock: AJUNOK_clean_linker_0, # of connection points: 2
#     Edge 87, Type (0, 0), BuildingBlock: AJUNOK_clean_linker_0, # of connection points: 2
#     Edge 88, Type (0, 0), BuildingBlock: AJUNOK_clean_linker_0, # of connection points: 2
#     Edge 89, Type (0, 0), BuildingBlock: AJUNOK_clean_linker_0, # of connection points: 2
#     Edge 90, Type (0, 0), BuildingBlock: AJUNOK_clean_linker_0, # of connection points: 2
#     Edge 91, Type (0, 0), BuildingBlock: AJUNOK_clean_linker_0, # of connection points: 2
#     Edge 92, Type (0, 0), BuildingBlock: AJUNOK_clean_linker_0, # of connection points: 2
#     Edge 93, Type (0, 0), BuildingBlock: AJUNOK_clean_linker_0, # of connection points: 2
#     Edge 94, Type (0, 0), BuildingBlock: AJUNOK_clean_linker_0, # of connection points: 2
#     Edge 95, Type (0, 0), BuildingBlock: AJUNOK_clean_linker_0, # of connection points: 2
# Relax obj value: 0.068
# Max RMSD: 0.094
# Mean RMSD: 0.094
data_MOF--net-ukc--node1-NAHDIM_clean_sbu_0--edge1-AJUNOK_clean_linker_0
_symmetry_space_group_name_H-M    P1
_symmetry_Int_Tables_number       1
_symmetry_cell_setting            triclinic
loop_
_symmetry_equiv_pos_as_xyz
'x, y, z'
_cell_length_a     34.116693
_cell_length_b     34.119704
_cell_length_c     61.613542
_cell_angle_alpha  90.018656
_cell_angle_beta   90.00446
_cell_angle_gamma 89.935282
loop_
_atom_site_label
_atom_site_type_symbol
_atom_site_fract_x
_atom_site_fract_y
_atom_site_fract_z
_atom_type_partial_charge
C0 C 0.16926 0.39129 0.01865 0.0
O1 O 0.16962 0.40431 0.03871 0.0
O2 O 0.10634 0.36874 0.06084 0.0
Zn3 Zn 0.08963 0.37547 0.0297 0.0
O4 O 0.05707 0.42385 0.02459 0.0
C5 C 0.03202 0.31962 0.03728 0.0
O6 O 0.02805 0.34312 0.05404 0.0
O7 O 0.1377 0.37727 0.01094 0.0
C8 C 0.04243 0.42738 0.00571 0.0
O9 O 0.04965 0.39989 0.99132 0.0
C10 C 0.10189 0.39318 0.07617 0.0
O11 O 0.08575 0.42733 0.07202 0.0
O12 O 0.05725 0.32795 0.02285 0.0
C13 C 0.84697 0.92375 0.2695 0.0
O14 O 0.83683 0.92578 0.29003 0.0
O15 O 0.86793 0.86156 0.31177 0.0
Zn16 Zn 0.86046 0.84365 0.2809 0.0
O17 O 0.81187 0.81112 0.27719 0.0
C18 C 0.91913 0.78777 0.28818 0.0
O19 O 0.89837 0.78479 0.30605 0.0
O20 O 0.85792 0.89106 0.26168 0.0
C21 C 0.8066 0.79379 0.25918 0.0
O22 O 0.83304 0.79801 0.24384 0.0
C23 C 0.84517 0.85422 0.32753 0.0
O24 O 0.81321 0.83373 0.32401 0.0
O25 O 0.90789 0.81135 0.27349 0.0
C26 C 0.31884 0.59615 0.51594 0.0
O27 O 0.32018 0.5731 0.53299 0.0
O28 O 0.37811 0.6121 0.56038 0.0
Zn29 Zn 0.39685 0.60922 0.5294 0.0
O30 O 0.42605 0.55914 0.52341 0.0
C31 C 0.45887 0.66017 0.53915 0.0
O32 O 0.4641 0.6329 0.5539 0.0
O33 O 0.3497 0.61433 0.51036 0.0
C34 C 0.4455 0.55511 0.50597 0.0
O35 O 0.44563 0.58396 0.49184 0.0
C36 C 0.39174 0.59157 0.57582 0.0
O37 O 0.41867 0.56508 0.57162 0.0
O38 O 0.43202 0.65565 0.5251 0.0
C39 C 0.67765 0.07384 0.76762 0.0
O40 O 0.70871 0.0883 0.77733 0.0
O41 O 0.64444 0.12711 0.81623 0.0
Zn42 Zn 0.64301 0.143 0.78492 0.0
O43 O 0.68855 0.17802 0.77747 0.0
C44 C 0.58796 0.20682 0.77815 0.0
O45 O 0.61955 0.2286 0.77981 0.0
O46 O 0.64582 0.09316 0.76798 0.0
C47 C 0.69372 0.18869 0.75792 0.0
O48 O 0.66912 0.17625 0.74304 0.0
C49 C 0.63122 0.14935 0.83103 0.0
O50 O 0.61885 0.18458 0.82578 0.0
O51 O 0.59132 0.16979 0.77928 0.0
C52 C 0.17309 0.63158 0.47079 0.0
O53 O 0.17413 0.65531 0.45402 0.0
O54 O 0.11076 0.62853 0.42692 0.0
Zn55 Zn 0.09297 0.62472 0.45783 0.0
O56 O 0.05636 0.57932 0.46235 0.0
C57 C 0.02922 0.67776 0.46667 0.0
O58 O 0.00842 0.64597 0.46334 0.0
O59 O 0.1407 0.616 0.47607 0.0
C60 C 0.04908 0.56913 0.48177 0.0
O61 O 0.06614 0.58827 0.49768 0.0
C62 C 0.09804 0.60839 0.41112 0.0
O63 O 0.07016 0.58257 0.4145 0.0
O64 O 0.06637 0.67568 0.46555 0.0
C65 C 0.67571 0.91671 0.7312 0.0
O66 O 0.70397 0.90405 0.71852 0.0
O67 O 0.63838 0.8667 0.68432 0.0
Zn68 Zn 0.63967 0.84794 0.71512 0.0
O69 O 0.68534 0.81147 0.72015 0.0
C70 C 0.58351 0.78484 0.71904 0.0
O71 O 0.61386 0.76321 0.71367 0.0
O72 O 0.64489 0.89618 0.73323 0.0
C73 C 0.69031 0.79489 0.73842 0.0
O74 O 0.66502 0.80182 0.75404 0.0
C75 C 0.63983 0.84362 0.66821 0.0
O76 O 0.64399 0.80586 0.67173 0.0
O77 O 0.58797 0.82162 0.72111 0.0
C78 C 0.31465 0.39196 0.9694 0.0
O79 O 0.31536 0.39912 0.94847 0.0
O80 O 0.38559 0.37897 0.93063 0.0
Zn81 Zn 0.39747 0.38228 0.96263 0.0
O82 O 0.43125 0.42871 0.97009 0.0
C83 C 0.45313 0.32353 0.95624 0.0
O84 O 0.46115 0.34787 0.94034 0.0
O85 O 0.34662 0.38456 0.9792 0.0
C86 C 0.44689 0.42968 0.98882 0.0
O87 O 0.43996 0.40067 0.00229 0.0
C88 C 0.39779 0.40191 0.91589 0.0
O89 O 0.41972 0.43197 0.92131 0.0
O90 O 0.42656 0.33262 0.96978 0.0
C91 C 0.85683 0.06722 0.21904 0.0
O92 O 0.84676 0.06883 0.1985 0.0
O93 O 0.88385 0.13434 0.17965 0.0
Zn94 Zn 0.87805 0.14758 0.2113 0.0
O95 O 0.83238 0.1838 0.2166 0.0
C96 C 0.9334 0.20979 0.21742 0.0
O97 O 0.9042 0.23065 0.20966 0.0
O98 O 0.87048 0.09771 0.22818 0.0
C99 C 0.8248 0.19436 0.23593 0.0
O100 O 0.84705 0.18113 0.25173 0.0
C101 C 0.85661 0.13648 0.16565 0.0
O102 O 0.82181 0.14886 0.17169 0.0
O103 O 0.92848 0.17328 0.22034 0.0
C104 C 0.81939 0.6045 0.97238 0.0
O105 O 0.81982 0.58884 0.95292 0.0
O106 O 0.88094 0.62095 0.93013 0.0
Zn107 Zn 0.89907 0.61813 0.96123 0.0
O108 O 0.93068 0.5694 0.96695 0.0
C109 C 0.95627 0.67449 0.95147 0.0
O110 O 0.95842 0.65147 0.93441 0.0
O111 O 0.85093 0.61866 0.9801 0.0
C112 C 0.94698 0.56468 0.98531 0.0
O113 O 0.94249 0.59192 0.0002 0.0
C114 C 0.88953 0.5967 0.91524 0.0
O115 O 0.91267 0.56698 0.9197 0.0
O116 O 0.93247 0.66587 0.96659 0.0
C117 C 0.13726 0.07233 0.71718 0.0
O118 O 0.12286 0.07565 0.69751 0.0
O119 O 0.14814 0.144 0.67875 0.0
Zn120 Zn 0.15015 0.15467 0.71086 0.0
O121 O 0.19849 0.18607 0.71776 0.0
C122 C 0.06827 0.17175 0.71523 0.0
O123 O 0.06568 0.13651 0.70677 0.0
O124 O 0.15095 0.10266 0.72651 0.0
C125 C 0.20101 0.20598 0.73513 0.0
O126 O 0.1717 0.20513 0.74896 0.0
C127 C 0.13166 0.16752 0.66564 0.0
O128 O 0.1179 0.20088 0.67309 0.0
O129 O 0.10204 0.18571 0.71914 0.0
C130 C 0.66178 0.39193 0.48037 0.0
O131 O 0.65456 0.41656 0.46448 0.0
O132 O 0.60974 0.35809 0.43495 0.0
Zn133 Zn 0.58941 0.36407 0.46538 0.0
O134 O 0.55639 0.41238 0.46963 0.0
C135 C 0.53709 0.30383 0.45517 0.0
O136 O 0.5368 0.32447 0.43719 0.0
O137 O 0.63634 0.36597 0.4848 0.0
C138 C 0.53889 0.41544 0.48776 0.0
O139 O 0.54349 0.38735 0.50212 0.0
C140 C 0.60951 0.38283 0.4196 0.0
O141 O 0.59539 0.41811 0.42311 0.0
O142 O 0.55711 0.31591 0.47122 0.0
C143 C 0.34863 0.93507 0.23018 0.0
O144 O 0.32413 0.93342 0.21375 0.0
O145 O 0.36449 0.88002 0.18393 0.0
Zn146 Zn 0.36524 0.85906 0.21447 0.0
O147 O 0.31691 0.82773 0.22112 0.0
C148 C 0.42492 0.80599 0.20113 0.0
O149 O 0.40488 0.80836 0.18299 0.0
O150 O 0.36943 0.90515 0.23445 0.0
C151 C 0.31511 0.80932 0.23901 0.0
O152 O 0.34467 0.81206 0.25258 0.0
C153 C 0.34176 0.8679 0.16906 0.0
O154 O 0.31603 0.84047 0.17358 0.0
O155 O 0.41301 0.8247 0.21771 0.0
C156 C 0.81354 0.38407 0.52336 0.0
O157 O 0.81823 0.3594 0.53953 0.0
O158 O 0.88266 0.40001 0.56451 0.0
Zn159 Zn 0.89366 0.39668 0.53257 0.0
O160 O 0.93188 0.43841 0.52373 0.0
C161 C 0.94944 0.33537 0.52034 0.0
O162 O 0.97376 0.36465 0.51724 0.0
O163 O 0.84279 0.40395 0.51698 0.0
C164 C 0.93681 0.44676 0.50382 0.0
O165 O 0.91645 0.42763 0.48916 0.0
C166 C 0.90524 0.38322 0.578 0.0
O167 O 0.93697 0.36572 0.57076 0.0
O168 O 0.91451 0.34265 0.52625 0.0
C169 C 0.37716 0.07891 0.27859 0.0
O170 O 0.39968 0.07762 0.29587 0.0
O171 O 0.37535 0.14646 0.32128 0.0
Zn172 Zn 0.37292 0.16063 0.28965 0.0
O173 O 0.32974 0.19901 0.28275 0.0
C174 C 0.43243 0.2192 0.28355 0.0
O175 O 0.40415 0.24241 0.29026 0.0
O176 O 0.36293 0.11161 0.27269 0.0
C177 C 0.3239 0.20615 0.26275 0.0
O178 O 0.34649 0.18892 0.24835 0.0
C179 C 0.34606 0.14032 0.33353 0.0
O180 O 0.31048 0.14488 0.32578 0.0
O181 O 0.42544 0.18284 0.28144 0.0
C182 C 0.67736 0.60629 0.02448 0.0
O183 O 0.68059 0.59851 0.04526 0.0
O184 O 0.61415 0.61544 0.06712 0.0
Zn185 Zn 0.59617 0.61309 0.03605 0.0
O186 O 0.56385 0.56501 0.03007 0.0
C187 C 0.53544 0.66503 0.04544 0.0
O188 O 0.52994 0.63709 0.05977 0.0
O189 O 0.64369 0.6137 0.0166 0.0
C190 C 0.54679 0.56216 0.0118 0.0
O191 O 0.5514 0.59048 -0.00243 0.0
C192 C 0.60258 0.59381 0.08258 0.0
O193 O 0.57638 0.56648 0.07875 0.0
O194 O 0.56278 0.66108 0.03159 0.0
C195 C 0.14289 0.92222 0.76216 0.0
O196 O 0.16599 0.91876 0.77912 0.0
O197 O 0.12041 0.86624 0.80702 0.0
Zn198 Zn 0.12341 0.84625 0.7763 0.0
O199 O 0.17293 0.81588 0.77042 0.0
C200 C 0.07009 0.78625 0.78644 0.0
O201 O 0.09394 0.78473 0.80316 0.0
O202 O 0.12118 0.89347 0.75697 0.0
C203 C 0.17853 0.80399 0.75111 0.0
O204 O 0.15217 0.81247 0.73629 0.0
C205 C 0.1429 0.85649 0.82251 0.0
O206 O 0.17111 0.83107 0.81892 0.0
O207 O 0.07681 0.81101 0.7715 0.0
C208 C 0.65533 0.90748 0.51743 0.0
O209 O 0.64308 0.93819 0.52838 0.0
O210 O 0.60301 0.87008 0.56581 0.0
Zn211 Zn 0.58542 0.87447 0.53483 0.0
O212 O 0.55082 0.92135 0.52935 0.0
C213 C 0.53574 0.81142 0.54423 0.0
O214 O 0.53278 0.83222 0.5621 0.0
O215 O 0.63412 0.87694 0.51692 0.0
C216 C 0.53061 0.92169 0.51201 0.0
O217 O 0.53338 0.89173 0.49871 0.0
C218 C 0.6052 0.89634 0.58033 0.0
O219 O 0.5956 0.93259 0.5755 0.0
O220 O 0.55607 0.82461 0.52858 0.0
C221 C 0.36668 0.43072 0.7653 0.0
O222 O 0.34352 0.42875 0.7823 0.0
O223 O 0.38741 0.37249 0.81046 0.0
Zn224 Zn 0.3863 0.35377 0.77957 0.0
O225 O 0.33846 0.32119 0.77307 0.0
C226 C 0.43685 0.28619 0.7794 0.0
O227 O 0.40555 0.2692 0.78748 0.0
O228 O 0.38752 0.40113 0.76046 0.0
C229 C 0.3364 0.30444 0.75468 0.0
O230 O 0.36513 0.30966 0.74079 0.0
C231 C 0.37114 0.3548 0.82615 0.0
O232 O 0.3515 0.32245 0.82227 0.0
O233 O 0.43524 0.32231 0.7745 0.0
C234 C 0.81551 0.09703 0.01984 0.0
O235 O 0.81773 0.078 0.03832 0.0
O236 O 0.87936 0.11203 0.06133 0.0
Zn237 Zn 0.89564 0.11082 0.0299 0.0
O238 O 0.92785 0.06324 0.02234 0.0
C239 C 0.9508 0.17045 0.03913 0.0
O240 O 0.95434 0.14895 0.05669 0.0
O241 O 0.84632 0.11269 0.01216 0.0
C242 C 0.94591 0.06347 0.00428 0.0
O243 O 0.94212 0.09419 0.99161 0.0
C244 C 0.89481 0.09297 0.07681 0.0
O245 O 0.92428 0.06924 0.07275 0.0
O246 O 0.92729 0.1596 0.02432 0.0
C247 C 0.15076 0.57798 0.26566 0.0
O248 O 0.16523 0.57954 0.28539 0.0
O249 O 0.12338 0.6372 0.30788 0.0
Zn250 Zn 0.12887 0.65537 0.27697 0.0
O251 O 0.17599 0.68986 0.27312 0.0
C252 C 0.07037 0.71007 0.28521 0.0
O253 O 0.09372 0.71439 0.30199 0.0
O254 O 0.13349 0.60792 0.25794 0.0
C255 C 0.17959 0.70974 0.25581 0.0
O256 O 0.15223 0.707 0.24087 0.0
C257 C 0.14691 0.64581 0.3231 0.0
O258 O 0.17793 0.66714 0.31872 0.0
O259 O 0.07987 0.68589 0.27043 0.0
C260 C 0.66768 0.12062 0.97439 0.0
O261 O 0.66863 0.13507 0.95464 0.0
O262 O 0.59759 0.12232 0.93376 0.0
Zn263 Zn 0.58495 0.11539 0.96532 0.0
O264 O 0.55212 0.06741 0.97006 0.0
C265 C 0.52733 0.17066 0.95929 0.0
O266 O 0.52047 0.14483 0.94393 0.0
O267 O 0.63485 0.11103 0.98255 0.0
C268 C 0.53918 0.06059 0.98901 0.0
O269 O 0.54769 0.08532 0.00467 0.0
C270 C 0.6075 0.09653 0.91998 0.0
O271 O 0.61062 0.0598 0.92612 0.0
O272 O 0.5541 0.16359 0.97309 0.0
C273 C 0.1549 0.43031 0.21906 0.0
O274 O 0.16726 0.42792 0.19892 0.0
O275 O 0.13487 0.36393 0.18015 0.0
Zn276 Zn 0.13872 0.34941 0.21164 0.0
O277 O 0.18591 0.31582 0.21801 0.0
C278 C 0.08664 0.28404 0.21937 0.0
O279 O 0.11832 0.26341 0.21528 0.0
O280 O 0.14217 0.39972 0.22849 0.0
C281 C 0.19423 0.30838 0.23769 0.0
O282 O 0.17188 0.32316 0.25302 0.0
C283 C 0.13786 0.34097 0.16406 0.0
O284 O 0.14537 0.3037 0.1675 0.0
O285 O 0.08882 0.32122 0.21928 0.0
C286 C 0.81134 0.91104 0.47946 0.0
O287 O 0.82331 0.94295 0.46956 0.0
O288 O 0.8693 0.8775 0.43169 0.0
Zn289 Zn 0.88376 0.88057 0.46315 0.0
O290 O 0.91548 0.92888 0.4694 0.0
C291 C 0.95044 0.82885 0.46704 0.0
O292 O 0.96943 0.85935 0.45939 0.0
O293 O 0.83344 0.88108 0.47969 0.0
C294 C 0.92854 0.93556 0.48835 0.0
O295 O 0.92074 0.91041 0.5039 0.0
C296 C 0.89045 0.89082 0.41644 0.0
O297 O 0.92352 0.90847 0.42128 0.0
O298 O 0.91385 0.83178 0.4705 0.0
C299 C 0.38385 0.58012 0.72067 0.0
O300 O 0.41136 0.58587 0.70611 0.0
O301 O 0.37562 0.64269 0.67753 0.0
Zn302 Zn 0.36895 0.6581 0.70876 0.0
O303 O 0.32302 0.69434 0.7132 0.0
C304 C 0.42647 0.71912 0.71516 0.0
O305 O 0.39851 0.74161 0.70739 0.0
O306 O 0.36112 0.60836 0.72545 0.0
C307 C 0.3154 0.70695 0.73215 0.0
O308 O 0.33825 0.69632 0.74828 0.0
C309 C 0.349 0.63952 0.66326 0.0
O310 O 0.31279 0.64932 0.66811 0.0
O311 O 0.41964 0.68291 0.71797 0.0
C312 C 0.30571 0.09952 0.483 0.0
O313 O 0.30622 0.07528 0.46642 0.0
O314 O 0.36517 0.11265 0.43769 0.0
Zn315 Zn 0.38391 0.11074 0.46873 0.0
O316 O 0.41249 0.06047 0.47541 0.0
C317 C 0.44861 0.15895 0.45921 0.0
O318 O 0.45408 0.13051 0.44518 0.0
O319 O 0.33696 0.11768 0.48788 0.0
C320 C 0.43421 0.05857 0.49214 0.0
O321 O 0.43662 0.08936 0.50488 0.0
C322 C 0.37994 0.09302 0.4222 0.0
O323 O 0.40845 0.06817 0.42627 0.0
O324 O 0.4203 0.15652 0.47252 0.0
C325 C 0.64024 0.57713 0.2309 0.0
O326 O 0.66631 0.58448 0.21575 0.0
O327 O 0.61562 0.63144 0.18545 0.0
Zn328 Zn 0.617 0.65074 0.21626 0.0
O329 O 0.66573 0.68174 0.22264 0.0
C330 C 0.56632 0.71124 0.20528 0.0
O331 O 0.59392 0.71423 0.19051 0.0
O332 O 0.61472 0.60316 0.23519 0.0
C333 C 0.66881 0.698 0.24112 0.0
O334 O 0.64028 0.69347 0.25521 0.0
C335 C 0.64156 0.63784 0.17112 0.0
O336 O 0.6728 0.65824 0.17634 0.0
O337 O 0.56984 0.68534 0.21997 0.0
C338 C 0.17845 0.87184 0.96774 0.0
O339 O 0.17909 0.85653 0.9482 0.0
O340 O 0.11307 0.87829 0.92584 0.0
Zn341 Zn 0.09701 0.88084 0.9573 0.0
O342 O 0.06329 0.928 0.96336 0.0
C343 C 0.04216 0.82131 0.94909 0.0
O344 O 0.0384 0.84315 0.93166 0.0
O345 O 0.14594 0.88354 0.97551 0.0
C346 C 0.04462 0.92992 0.98117 0.0
O347 O 0.04792 0.90086 0.99505 0.0
C348 C 0.10357 0.90209 0.91091 0.0
O349 O 0.08147 0.93244 0.91568 0.0
O350 O 0.06626 0.83175 0.96372 0.0
C351 C 0.84506 0.40487 0.73118 0.0
O352 O 0.81299 0.38586 0.7259 0.0
O353 O 0.88732 0.34432 0.68101 0.0
Zn354 Zn 0.88068 0.33598 0.71302 0.0
O355 O 0.83187 0.3045 0.71886 0.0
C356 C 0.92874 0.26984 0.71502 0.0
O357 O 0.89907 0.25748 0.70326 0.0
O358 O 0.87811 0.38881 0.72766 0.0
C359 C 0.82617 0.29041 0.73767 0.0
O360 O 0.852 0.29766 0.75298 0.0
C361 C 0.86582 0.3666 0.66956 0.0
O362 O 0.8364 0.38503 0.67878 0.0
O363 O 0.92768 0.30459 0.72244 0.0
C364 C 0.31978 0.88798 0.01993 0.0
O365 O 0.31801 0.90773 0.03821 0.0
O366 O 0.37628 0.87449 0.06588 0.0
Zn367 Zn 0.39723 0.87291 0.03533 0.0
O368 O 0.43004 0.92017 0.0285 0.0
C369 C 0.44684 0.81055 0.04902 0.0
O370 O 0.4438 0.82991 0.06736 0.0
O371 O 0.35144 0.87053 0.01494 0.0
C372 C 0.44345 0.92388 0.00937 0.0
O373 O 0.43526 0.89671 0.99497 0.0
C374 C 0.38264 0.90164 0.07954 0.0
O375 O 0.40364 0.93206 0.07365 0.0
O376 O 0.43001 0.82394 0.03217 0.0
C377 C 0.84037 0.56385 0.7657 0.0
O378 O 0.81238 0.57498 0.77899 0.0
O379 O 0.87094 0.62026 0.81124 0.0
Zn380 Zn 0.86949 0.63663 0.77985 0.0
O381 O 0.82198 0.66976 0.77319 0.0
C382 C 0.92852 0.69193 0.78909 0.0
O383 O 0.90716 0.69406 0.80679 0.0
O384 O 0.86906 0.58685 0.76245 0.0
C385 C 0.82116 0.68873 0.75544 0.0
O386 O 0.85086 0.68518 0.74202 0.0
C387 C 0.84739 0.63187 0.82586 0.0
O388 O 0.81873 0.65573 0.82054 0.0
O389 O 0.91821 0.66855 0.77407 0.0
C390 C 0.15567 0.13359 0.5241 0.0
O391 O 0.15115 0.16206 0.53824 0.0
O392 O 0.08076 0.13299 0.56445 0.0
Zn393 Zn 0.07369 0.12269 0.53263 0.0
O394 O 0.03857 0.07638 0.52715 0.0
C395 C 0.01376 0.17807 0.52624 0.0
O396 O 0.99553 0.15178 0.53808 0.0
O397 O 0.1261 0.11308 0.51884 0.0
C398 C 0.02674 0.07104 0.50782 0.0
O399 O 0.03803 0.09576 0.49273 0.0
C400 C 0.10519 0.11566 0.57667 0.0
O401 O 0.12604 0.08652 0.56882 0.0
O402 O 0.04902 0.17152 0.52067 0.0
C403 C 0.62966 0.42503 0.27341 0.0
O404 O 0.60483 0.42069 0.28954 0.0
O405 O 0.64777 0.36117 0.31641 0.0
Zn406 Zn 0.64655 0.34642 0.28491 0.0
O407 O 0.69112 0.31021 0.2772 0.0
C408 C 0.58998 0.284 0.27898 0.0
O409 O 0.62087 0.26153 0.2817 0.0
O410 O 0.65086 0.3961 0.26787 0.0
C411 C 0.69642 0.30078 0.25745 0.0
O412 O 0.67256 0.31512 0.24272 0.0
C413 C 0.64736 0.33541 0.33125 0.0
O414 O 0.64846 0.29823 0.32575 0.0
O415 O 0.59431 0.32099 0.27919 0.0
C416 C 0.9884 0.52457 0.01051 0.0
C417 C 0.97092 0.52923 0.98997 0.0
C418 C 0.01132 0.49163 0.01543 0.0
C419 C 0.01781 0.46187 1e-05 0.0
H420 H 0.98445 0.54658 0.023 0.0
H421 H 0.02409 0.4896 0.03149 0.0
S422 S 0.9785 0.45965 0.94375 0.0
N423 N 0.96161 0.50099 0.95405 0.0
N424 N 0.0046 0.43919 0.96325 0.0
C425 C 0.00045 0.46606 0.97938 0.0
C426 C 0.97705 0.49965 0.97438 0.0
C427 C 0.73308 0.7279 0.23071 0.0
C428 C 0.70371 0.7222 0.24643 0.0
C429 C 0.76611 0.75095 0.23505 0.0
C430 C 0.77129 0.76933 0.2553 0.0
H431 H 0.73059 0.71459 0.21481 0.0
H432 H 0.78769 0.7544 0.2223 0.0
S433 S 0.70329 0.7634 0.30228 0.0
N434 N 0.68222 0.73664 0.28328 0.0
N435 N 0.74426 0.77991 0.2914 0.0
C436 C 0.74227 0.76375 0.27126 0.0
C437 C 0.70854 0.74023 0.26684 0.0
C438 C 0.51184 0.48133 0.47777 0.0
C439 C 0.51428 0.45029 0.49274 0.0
C440 C 0.48941 0.51486 0.48216 0.0
C441 C 0.46838 0.51881 0.5017 0.0
H442 H 0.52756 0.47995 0.46251 0.0
H443 H 0.48876 0.53793 0.47009 0.0
S444 S 0.46428 0.44561 0.54629 0.0
N445 N 0.49315 0.42548 0.52791 0.0
N446 N 0.4511 0.48837 0.53613 0.0
C447 C 0.47028 0.48785 0.51678 0.0
C448 C 0.49318 0.45368 0.51232 0.0
C449 C 0.78616 0.24999 0.76328 0.0
C450 C 0.79165 0.26522 0.74227 0.0
C451 C 0.75444 0.22547 0.76813 0.0
C452 C 0.72682 0.215 0.75218 0.0
H453 H 0.8066 0.25686 0.77618 0.0
H454 H 0.75177 0.2145 0.78456 0.0
S455 S 0.72723 0.24759 0.69464 0.0
N456 N 0.7663 0.26846 0.70537 0.0
N457 N 0.70677 0.22238 0.71447 0.0
C458 C 0.73175 0.23021 0.7311 0.0
C459 C 0.76408 0.2553 0.72616 0.0
C460 C 0.9867 0.49737 0.51362 0.0
C461 C 0.96546 0.47741 0.49746 0.0
C462 C 0.01374 0.52664 0.50832 0.0
C463 C 0.0208 0.53729 0.48661 0.0
H464 H 0.98241 0.4905 0.53062 0.0
H465 H 0.0291 0.5411 0.52145 0.0
S466 S 0.9733 0.49379 0.438 0.0
N467 N 0.95365 0.47019 0.45868 0.0
N468 N 0.00451 0.52523 0.44872 0.0
C469 C -0.0 0.51744 0.47021 0.0
C470 C 0.97235 0.48755 0.47562 0.0
C471 C 0.72659 0.74683 0.76171 0.0
C472 C 0.7238 0.76775 0.74208 0.0
C473 C 0.75787 0.72117 0.76576 0.0
C474 C 0.78785 0.71539 0.75038 0.0
H475 H 0.70442 0.75021 0.77415 0.0
H476 H 0.75858 0.70597 0.78119 0.0
S477 S 0.79439 0.76291 0.69623 0.0
N478 N 0.75379 0.78071 0.70696 0.0
N479 N 0.81252 0.73264 0.71455 0.0
C480 C 0.78538 0.73598 0.7306 0.0
C481 C 0.75342 0.76208 0.72646 0.0
C482 C 0.47967 0.49359 0.9805 0.0
C483 C 0.47257 0.4629 0.99524 0.0
C484 C 0.5037 0.52533 0.98602 0.0
C485 C 0.52174 0.52784 0.00653 0.0
H486 H 0.46656 0.49322 0.96448 0.0
H487 H 0.50808 0.54811 0.97402 0.0
S488 S 0.5128 0.45518 0.05115 0.0
N489 N 0.48572 0.43705 0.03136 0.0
N490 N 0.53082 0.49667 0.0417 0.0
C491 C 0.51498 0.49734 0.02146 0.0
C492 C 0.49045 0.46494 0.01583 0.0
C493 C 0.78446 0.23297 0.2623 0.0
C494 C 0.79173 0.22141 0.24073 0.0
C495 C 0.75369 0.25853 0.26747 0.0
C496 C 0.72878 0.27373 0.25132 0.0
H497 H 0.8027 0.22224 0.27541 0.0
H498 H 0.74951 0.2664 0.28435 0.0
S499 S 0.73501 0.2526 0.19223 0.0
N500 N 0.77124 0.22713 0.20302 0.0
N501 N 0.71346 0.27515 0.21272 0.0
C502 C 0.73562 0.26241 0.22964 0.0
C503 C 0.76703 0.2363 0.22437 0.0
C504 C 0.27128 0.27497 0.76401 0.0
C505 C 0.30241 0.27905 0.74919 0.0
C506 C 0.23884 0.25125 0.75933 0.0
C507 C 0.23611 0.23047 0.73964 0.0
H508 H 0.27181 0.29029 0.77941 0.0
H509 H 0.21571 0.24929 0.77132 0.0
S510 S 0.30986 0.23078 0.69526 0.0
N511 N 0.32848 0.26 0.71393 0.0
N512 N 0.26765 0.21548 0.70517 0.0
C513 C 0.2671 0.23414 0.72467 0.0
C514 C 0.30016 0.25839 0.72942 0.0
C515 C 0.21799 0.75613 0.23269 0.0
C516 C 0.21421 0.73532 0.2523 0.0
C517 C 0.25048 0.78011 0.22867 0.0
C518 C 0.28065 0.78435 0.24408 0.0
H519 H 0.19578 0.75382 0.2202 0.0
H520 H 0.25196 0.79524 0.21324 0.0
S521 S 0.28457 0.73692 0.29833 0.0
N522 N 0.24327 0.72107 0.28752 0.0
N523 N 0.30428 0.7661 0.27998 0.0
C524 C 0.27714 0.76399 0.26387 0.0
C525 C 0.24398 0.73952 0.26797 0.0
C526 C 0.26744 0.25049 0.27145 0.0
C527 C 0.29165 0.23269 0.2558 0.0
C528 C 0.2363 0.27499 0.26541 0.0
C529 C 0.22797 0.2828 0.24344 0.0
H530 H 0.27236 0.24538 0.28859 0.0
H531 H 0.21853 0.28776 0.27816 0.0
S532 S 0.28276 0.24387 0.19598 0.0
N533 N 0.30533 0.22496 0.21723 0.0
N534 N 0.24688 0.27092 0.20592 0.0
C535 C 0.2521 0.26542 0.22758 0.0
C536 C 0.28387 0.24043 0.23374 0.0
C537 C 0.24019 0.76919 0.76199 0.0
C538 C 0.21365 0.78013 0.74558 0.0
C539 C 0.27303 0.74588 0.75742 0.0
C540 C 0.28083 0.73249 0.73624 0.0
H541 H 0.23551 0.77841 0.77862 0.0
H542 H 0.29229 0.73814 0.77072 0.0
S543 S 0.22107 0.75367 0.68719 0.0
N544 N 0.19788 0.77632 0.70709 0.0
N545 N 0.2595 0.7326 0.69853 0.0
C546 C 0.25479 0.74357 0.71958 0.0
C547 C 0.22127 0.76732 0.72424 0.0
C548 C 0.50522 0.98906 0.52014 0.0
C549 C 0.50499 0.95566 0.50673 0.0
C550 C 0.48205 0.02189 0.51536 0.0
C551 C 0.45754 0.02278 0.49697 0.0
H552 H 0.52373 0.99013 0.53441 0.0
H553 H 0.48366 0.04687 0.52617 0.0
S554 S 0.4451 0.9424 0.45686 0.0
N555 N 0.47734 0.92521 0.47442 0.0
N556 N 0.43386 0.98682 0.46547 0.0
C557 C 0.45662 0.9894 0.48352 0.0
C558 C 0.48029 0.95592 0.48839 0.0
C559 C -0.00158 0.96515 0.00604 0.0
C560 C 0.01959 0.96433 0.98642 0.0
C561 C 0.9747 0.99718 0.0116 0.0
C562 C 0.97108 0.02984 -0.00221 0.0
H563 H 0.00011 0.94084 0.0173 0.0
H564 H 0.95914 0.99623 0.02691 0.0
S565 S 0.02042 0.0425 0.94446 0.0
N566 N 0.03535 -0.00078 0.9531 0.0
N567 N 0.99087 0.05935 0.96351 0.0
C568 C 0.99205 0.02945 0.97808 0.0
C569 C 0.01624 0.99677 0.97241 0.0
C570 C 0.49974 0.01946 0.01452 0.0
C571 C 0.51491 0.02542 0.99354 0.0
C572 C 0.47675 0.98666 0.01942 0.0
C573 C 0.46792 0.95831 0.00356 0.0
H574 H 0.50558 0.04031 0.02738 0.0
H575 H 0.46585 0.98359 0.03584 0.0
S576 S 0.50061 0.9599 0.94602 0.0
N577 N 0.51951 1e-05 0.9567 0.0
N578 N 0.47635 0.93839 0.96588 0.0
C579 C 0.48292 0.96382 0.98247 0.0
C580 C 0.50636 0.99733 0.97747 0.0
C581 C 0.99187 0.00936 0.51843 0.0
C582 C 0.00111 0.03723 0.50239 0.0
C583 C 0.9683 0.97682 0.51374 0.0
C584 C 0.95288 0.97074 0.49282 0.0
H585 H 0.00311 0.01245 0.53478 0.0
H586 H 0.96233 0.9562 0.52668 0.0
S587 S 0.96733 0.0356 0.44504 0.0
N588 N 0.99226 0.05692 0.46472 0.0
N589 N 0.94803 0.99588 0.45593 0.0
C590 C 0.96156 -0.00143 0.47663 0.0
C591 C 0.98562 0.03174 0.48141 0.0
C592 C 0.9802 0.2286 0.05703 0.0
C593 C 0.97133 0.2084 0.03777 0.0
C594 C -0.00088 0.26488 0.05656 0.0
C595 C 0.01068 0.28202 0.03683 0.0
H596 H 0.97205 0.21653 0.07266 0.0
H597 H 0.00534 0.27924 0.07186 0.0
S598 S 0.99464 0.2409 0.98181 0.0
N599 N 0.97521 0.20816 -0.00164 0.0
N600 N 0.01192 0.27617 -0.00251 0.0
C601 C 0.00224 0.26209 0.01741 0.0
C602 C 0.9822 0.22535 0.01787 0.0
C603 C 0.01438 0.74002 0.30491 0.0
C604 C 0.03189 0.7299 0.28504 0.0
C605 C 0.9776 0.75801 0.30565 0.0
C606 C 0.9572 0.76736 0.28652 0.0
H607 H 0.02894 0.73353 0.32013 0.0
H608 H 0.96542 0.76525 0.32139 0.0
S609 S 0.99031 0.74731 0.23026 0.0
N610 N 0.02604 0.7302 0.2457 0.0
N611 N 0.95704 0.76516 0.24706 0.0
C612 C 0.97439 0.75767 0.26648 0.0
C613 C 0.01168 0.73858 0.26574 0.0
C614 C 0.48532 0.721 0.52186 0.0
C615 C 0.48056 0.69755 0.54046 0.0
C616 C 0.50395 0.75758 0.52306 0.0
C617 C 0.51749 0.77231 0.543 0.0
H618 H 0.47453 0.71104 0.50626 0.0
H619 H 0.50693 0.7748 0.50839 0.0
S620 S 0.51291 0.72214 0.59637 0.0
N621 N 0.49182 0.69137 0.57932 0.0
N622 N 0.52603 0.76029 0.58162 0.0
C623 C 0.51321 0.74904 0.56166 0.0
C624 C 0.49498 0.71157 0.56039 0.0
C625 C 0.54586 0.26631 0.77385 0.0
C626 C 0.54873 0.22553 0.77685 0.0
C627 C 0.50951 0.2854 0.77411 0.0
C628 C 0.47446 0.26458 0.77756 0.0
H629 H 0.57196 0.28388 0.77158 0.0
H630 H 0.50911 0.31693 0.77212 0.0
S631 S 0.46543 0.15694 0.78488 0.0
N632 N 0.51297 0.16457 0.78231 0.0
N633 N 0.44471 0.20052 0.78289 0.0
C634 C 0.47672 0.22362 0.77997 0.0
C635 C 0.51379 0.20409 0.77957 0.0
C636 C 0.01088 0.78739 0.46469 0.0
C637 C 0.97063 0.79051 0.46945 0.0
C638 C 0.02997 0.75099 0.46469 0.0
C639 C 0.0095 0.71619 0.46928 0.0
H640 H 0.02773 0.81313 0.46038 0.0
H641 H 0.06069 0.75007 0.46028 0.0
S642 S 0.90484 0.70851 0.48516 0.0
N643 N 0.91171 0.7557 0.4807 0.0
N644 N 0.94757 0.68741 0.48053 0.0
C645 C 0.9697 0.719 0.47502 0.0
C646 C 0.95028 0.75609 0.47517 0.0
C647 C 0.51049 0.79166 0.71874 0.0
C648 C 0.54377 0.7674 0.72032 0.0
C649 C 0.47266 0.77581 0.71772 0.0
C650 C 0.4665 0.73507 0.71846 0.0
H651 H 0.51363 0.82318 0.71757 0.0
H652 H 0.44814 0.79573 0.71591 0.0
S653 S 0.54366 0.65886 0.72449 0.0
N654 N 0.56797 0.70064 0.72396 0.0
N655 N 0.49695 0.67081 0.72221 0.0
C656 C 0.49943 0.71051 0.72099 0.0
C657 C 0.53801 0.72667 0.72185 0.0
C658 C 0.49849 0.2295 0.97769 0.0
C659 C 0.50803 0.20932 0.9585 0.0
C660 C 0.4802 0.26639 0.97693 0.0
C661 C 0.47209 0.28468 0.95696 0.0
H662 H 0.50473 0.21648 0.99335 0.0
H663 H 0.47292 0.28094 0.99204 0.0
S664 S 0.49221 0.24434 0.90214 0.0
N665 N 0.50821 0.21035 0.91902 0.0
N666 N 0.47492 0.27988 0.91761 0.0
C667 C 0.48193 0.26493 0.9377 0.0
C668 C 0.49962 0.22716 0.93847 0.0
C669 C 0.0134 0.28685 0.21913 0.0
C670 C 0.04792 0.26461 0.22142 0.0
C671 C 0.9765 0.26893 0.21859 0.0
C672 C 0.9725 0.22803 0.2205 0.0
H673 H 0.01481 0.31833 0.21698 0.0
H674 H 0.951 0.28734 0.21615 0.0
S675 S 0.05351 0.15683 0.22914 0.0
N676 N 0.07558 0.19972 0.22727 0.0
N677 N 0.00626 0.166 0.2264 0.0
C678 C 0.00665 0.20557 0.22388 0.0
C679 C 0.04432 0.22385 0.22429 0.0
C680 C 0.98914 0.72909 0.93197 0.0
C681 C 0.97861 0.71159 0.95178 0.0
C682 C 0.00935 0.76469 0.9314 0.0
C683 C 0.02059 0.78387 0.95061 0.0
H684 H 0.98117 0.71553 0.91669 0.0
H685 H 0.01659 0.77704 0.91571 0.0
S686 S 0.00077 0.75001 0.00675 0.0
N687 N 0.98092 0.716 0.99116 0.0
N688 N 0.01997 0.78269 0.99008 0.0
C689 C 0.01072 0.76653 0.97058 0.0
C690 C 0.98939 0.73049 0.97117 0.0
C691 C 0.96305 0.20598 0.70955 0.0
C692 C 0.9639 0.24458 0.7176 0.0
C693 C 0.99657 0.18235 0.70962 0.0
C694 C 0.03255 0.19626 0.71767 0.0
H695 H 0.93644 0.19401 0.70264 0.0
H696 H 0.99436 0.15325 0.70269 0.0
S697 S 0.04986 0.29401 0.74244 0.0
N698 N 0.00324 0.29481 0.73525 0.0
N699 N 0.06639 0.25036 0.73534 0.0
C700 C 0.03354 0.23425 0.72663 0.0
C701 C -0.00078 0.25838 0.72662 0.0
C702 C 0.4993 0.25331 0.47581 0.0
C703 C 0.5158 0.26628 0.45618 0.0
C704 C 0.47768 0.21838 0.47673 0.0
C705 C 0.47275 0.19482 0.45818 0.0
H706 H 0.50233 0.27069 0.49043 0.0
H707 H 0.46481 0.20974 0.49207 0.0
S708 S 0.51192 0.21506 0.40309 0.0
N709 N 0.52675 0.25249 0.41793 0.0
N710 N 0.48691 0.1866 0.41972 0.0
C711 C 0.48999 0.20706 0.43858 0.0
C712 C 0.51129 0.24289 0.43757 0.0
C713 C 0.47372 0.76565 0.22166 0.0
C714 C 0.4613 0.78253 0.202 0.0
C715 C 0.5077 0.74251 0.22261 0.0
C716 C 0.53088 0.73617 0.20404 0.0
H717 H 0.45672 0.76978 0.23633 0.0
H718 H 0.51597 0.7297 0.23804 0.0
S719 S 0.51175 0.77527 0.14878 0.0
N720 N 0.47515 0.79203 0.16364 0.0
N721 N 0.53921 0.74921 0.16547 0.0
C722 C 0.51907 0.75348 0.18436 0.0
C723 C 0.4842 0.77646 0.18333 0.0
C724 C 0.00344 0.28674 0.51456 0.0
C725 C 0.96381 0.2943 0.51938 0.0
C726 C 0.01894 0.24876 0.51585 0.0
C727 C 0.99548 0.21681 0.52211 0.0
H728 H 0.02309 0.31047 0.51037 0.0
H729 H 0.04993 0.24479 0.51271 0.0
S730 S 0.88879 0.21988 0.53391 0.0
N731 N 0.90058 0.26584 0.52877 0.0
N732 N 0.92979 0.19462 0.53125 0.0
C733 C 0.95537 0.22356 0.52589 0.0
C734 C 0.93952 0.26223 0.5245 0.0
C735 C 0.47917 0.27552 0.28184 0.0
C736 C 0.47259 0.23491 0.28028 0.0
C737 C 0.51706 0.29114 0.28066 0.0
C738 C 0.55006 0.26681 0.27801 0.0
H739 H 0.45495 0.29553 0.28442 0.0
H740 H 0.52046 0.32254 0.28247 0.0
S741 S 0.54874 0.15864 0.27128 0.0
N742 N 0.50228 0.17077 0.27457 0.0
N743 N 0.57344 0.20015 0.27244 0.0
C744 C 0.54386 0.22625 0.27564 0.0
C745 C 0.50518 0.21031 0.27673 0.0
C746 C 0.48656 0.76062 0.02886 0.0
C747 C 0.46869 0.77312 0.04825 0.0
C748 C 0.50819 0.72562 0.02804 0.0
C749 C 0.51193 0.70148 0.04644 0.0
H750 H 0.48441 0.77832 0.01432 0.0
H751 H 0.52187 0.71732 0.01285 0.0
S752 S 0.46936 0.72044 0.10094 0.0
N753 N 0.45551 0.75832 0.08615 0.0
N754 N 0.49542 0.6924 0.08455 0.0
C755 C 0.49359 0.71339 0.06582 0.0
C756 C 0.47219 0.74927 0.06674 0.0
C757 C 0.98481 0.72558 0.80662 0.0
C758 C 0.96491 0.71519 0.7875 0.0
C759 C 0.01909 0.74797 0.80597 0.0
C760 C 0.03445 0.76158 0.78618 0.0
H761 H 0.97399 0.71611 0.8223 0.0
H762 H 0.03323 0.75522 0.82119 0.0
S763 S 0.99335 0.74261 0.73143 0.0
N764 N 0.96313 0.71981 0.74813 0.0
N765 N 0.02729 0.76287 0.74691 0.0
C766 C 0.01484 0.75152 0.76688 0.0
C767 C 0.98019 0.72801 0.76753 0.0
C768 C 0.27718 0.39513 0.00419 0.0
C769 C 0.27707 0.39219 0.98142 0.0
C770 C 0.24214 0.39527 0.01602 0.0
C771 C 0.20562 0.39188 0.00557 0.0
H772 H 0.30454 0.3976 0.013 0.0
H773 H 0.24381 0.39753 0.03353 0.0
S774 S 0.18911 0.38349 0.94621 0.0
N775 N 0.23719 0.38606 0.94882 0.0
N776 N 0.17138 0.38591 0.9711 0.0
C777 C 0.20502 0.3889 0.98281 0.0
C778 C 0.24071 0.38921 0.97072 0.0
C779 C 0.85263 0.03111 0.25419 0.0
C780 C 0.85302 0.03023 0.23137 0.0
C781 C 0.84985 0.99656 0.26633 0.0
C782 C 0.84797 0.95972 0.25613 0.0
H783 H 0.85442 0.05875 0.26281 0.0
H784 H 0.84996 -0.00121 0.28386 0.0
S785 S 0.84735 0.94127 0.19676 0.0
N786 N 0.85058 0.98938 0.19899 0.0
N787 N 0.84585 0.92438 0.22185 0.0
C788 C 0.84806 0.95836 0.23332 0.0
C789 C 0.8504 0.99362 0.22093 0.0
C790 C 0.24518 0.63925 0.47643 0.0
C791 C 0.2096 0.62178 0.48267 0.0
C792 C 0.28031 0.63027 0.48705 0.0
C793 C 0.2814 0.60343 0.50439 0.0
H794 H 0.24607 0.66017 0.46322 0.0
H795 H 0.30678 0.64484 0.48168 0.0
S796 S 0.19642 0.54874 0.5268 0.0
N797 N 0.17768 0.57574 0.50715 0.0
N798 N 0.2437 0.55885 0.5271 0.0
C799 C 0.24608 0.5854 0.5107 0.0
C800 C 0.21022 0.59459 0.49988 0.0
C801 C 0.64311 0.01332 0.75553 0.0
C802 C 0.67843 0.03401 0.75814 0.0
C803 C 0.64274 0.97513 0.7473 0.0
C804 C 0.67761 0.95625 0.74102 0.0
H805 H 0.61542 0.02651 0.76011 0.0
H806 H 0.6147 0.96058 0.74552 0.0
S807 S 0.77799 -0.00234 0.74448 0.0
N808 N 0.74931 0.03279 0.75388 0.0
N809 N 0.74856 0.96104 0.73806 0.0
C810 C 0.7132 0.97658 0.74348 0.0
C811 C 0.71362 0.01542 0.75214 0.0
C812 C 0.75002 0.60965 0.02035 0.0
C813 C 0.71281 0.60649 0.01064 0.0
C814 C 0.78427 0.60945 0.00783 0.0
C815 C 0.78268 0.60549 0.98515 0.0
H816 H 0.75283 0.6125 0.03779 0.0
H817 H 0.81223 0.61188 0.01607 0.0
S818 S 0.69254 0.5967 0.9517 0.0
N819 N 0.67637 0.59981 0.9769 0.0
N820 N 0.74077 0.59901 0.95337 0.0
C821 C 0.74567 0.6024 0.97518 0.0
C822 C 0.71073 0.60307 0.98792 0.0
C823 C 0.1612 0.99276 0.75816 0.0
C824 C 0.14119 0.95977 0.75007 0.0
C825 C 0.15956 0.02896 0.7475 0.0
C826 C 0.13806 0.03368 0.7282 0.0
H827 H 0.17813 0.99083 0.77299 0.0
H828 H 0.1755 0.05337 0.75445 0.0
S829 S 0.08035 0.95648 0.70011 0.0
N830 N 0.09912 0.93419 0.72149 0.0
N831 N 0.09609 0.00214 0.70141 0.0
C832 C 0.11796 0.00091 0.71984 0.0
C833 C 0.1195 0.96402 0.73078 0.0
C834 C 0.74391 0.36308 0.51871 0.0
C835 C 0.77485 0.388 0.51262 0.0
C836 C 0.70733 0.36514 0.50849 0.0
C837 C 0.70006 0.39228 0.49177 0.0
H838 H 0.74799 0.34135 0.53132 0.0
H839 H 0.68474 0.34487 0.51362 0.0
S840 S 0.7707 0.46556 0.47037 0.0
N841 N 0.79539 0.4417 0.48924 0.0
N842 N 0.72665 0.44565 0.47005 0.0
C843 C 0.73048 0.41801 0.48581 0.0
C844 C 0.76783 0.41584 0.4962 0.0
C845 C 0.38624 0.00708 0.27226 0.0
C846 C 0.36847 0.04266 0.2662 0.0
C847 C 0.37917 0.97245 0.26072 0.0
C848 C 0.35392 0.97187 0.24266 0.0
H849 H 0.40611 0.00587 0.28596 0.0
H850 H 0.39392 0.94597 0.26598 0.0
S851 S 0.29913 0.057 0.22035 0.0
N852 N 0.32379 0.07505 0.2411 0.0
N853 N 0.31046 0.01 0.21945 0.0
C854 C 0.33546 0.00713 0.23657 0.0
C855 C 0.34276 0.04248 0.2483 0.0
C856 C 0.75162 0.94414 0.49426 0.0
C857 C 0.7717 0.9093 0.48917 0.0
C858 C 0.71391 0.94327 0.50328 0.0
C859 C 0.6946 0.90756 0.50722 0.0
H860 H 0.76524 0.97234 0.49146 0.0
H861 H 0.69977 0.97086 0.50711 0.0
S862 S 0.73415 0.80798 0.49634 0.0
N863 N 0.7693 0.838 0.48852 0.0
N864 N 0.6984 0.83638 0.50522 0.0
C865 C 0.7142 0.87248 0.50198 0.0
C866 C 0.75277 0.87335 0.49306 0.0
C867 C 0.35434 0.53747 0.74933 0.0
C868 C 0.37931 0.54143 0.7313 0.0
C869 C 0.35001 0.50145 0.75995 0.0
C870 C 0.37037 0.46785 0.75294 0.0
H871 H 0.3383 0.56249 0.75553 0.0
H872 H 0.33084 0.50019 0.77395 0.0
S873 S 0.43759 0.46193 0.7056 0.0
N874 N 0.42345 0.50818 0.70627 0.0
N875 N 0.41529 0.44053 0.72618 0.0
C876 C 0.39483 0.47117 0.73462 0.0
C877 C 0.39932 0.50792 0.72383 0.0
C878 C 0.77641 0.11605 0.9872 0.0
C879 C 0.77739 0.10196 0.00864 0.0
C880 C 0.74084 0.12203 0.97636 0.0
C881 C 0.70471 0.11432 0.98653 0.0
H882 H 0.80336 0.12248 0.97862 0.0
H883 H 0.74184 0.13276 0.95983 0.0
S884 S 0.69102 0.07804 0.04287 0.0
N885 N 0.73898 0.08105 0.03985 0.0
N886 N 0.67214 0.09232 0.01951 0.0
C887 C 0.70521 0.10031 0.00802 0.0
C888 C 0.74151 0.09409 0.01905 0.0
C889 C 0.15678 0.50524 0.26435 0.0
C890 C 0.15269 0.54102 0.25323 0.0
C891 C 0.15737 0.46953 0.25316 0.0
C892 C 0.15471 0.46837 0.23042 0.0
H893 H 0.15883 0.50467 0.28189 0.0
H894 H 0.16018 0.44267 0.26241 0.0
S895 S 0.14429 0.55385 0.19361 0.0
N896 N 0.14617 0.57314 0.21817 0.0
N897 N 0.14802 0.50601 0.19708 0.0
C898 C 0.15118 0.50394 0.21904 0.0
C899 C 0.14992 0.54029 0.23047 0.0
C900 C 0.1977 0.09736 0.49759 0.0
C901 C 0.1946 0.12505 0.51444 0.0
C902 C 0.2338 0.08889 0.48787 0.0
C903 C 0.26844 0.10768 0.49458 0.0
H904 H 0.17196 0.08224 0.49163 0.0
H905 H 0.23434 0.06769 0.47478 0.0
S906 S 0.27675 0.18129 0.5388 0.0
N907 N 0.22966 0.17038 0.53796 0.0
N908 N 0.29755 0.15445 0.51971 0.0
C909 C 0.26596 0.13496 0.5117 0.0
C910 C 0.22908 0.14366 0.5216 0.0
C911 C 0.6083 0.49449 0.26814 0.0
C912 C 0.63337 0.46343 0.26233 0.0
C913 C 0.61107 0.53118 0.25808 0.0
C914 C 0.63909 0.5384 0.24181 0.0
H915 H 0.58613 0.49054 0.28052 0.0
H916 H 0.59085 0.55397 0.26307 0.0
S917 S 0.71232 0.46708 0.22085 0.0
N918 N 0.68758 0.44248 0.23937 0.0
N919 N 0.69285 0.51136 0.2205 0.0
C920 C 0.66462 0.50769 0.23595 0.0
C921 C 0.66173 0.47025 0.24616 0.0
C922 C 0.21343 0.88939 0.00208 0.0
C923 C 0.21512 0.87601 0.98048 0.0
C924 C 0.24746 0.8936 0.01455 0.0
C925 C 0.28459 0.88447 0.006 0.0
H926 H 0.18556 0.8965 0.00953 0.0
H927 H 0.24446 0.9036 0.03116 0.0
S928 S 0.30561 0.85062 0.94993 0.0
N929 N 0.25747 0.85523 0.95078 0.0
N930 N 0.32133 0.86303 0.97431 0.0
C931 C 0.28688 0.87159 0.98435 0.0
C932 C 0.2522 0.8674 0.97158 0.0
C933 C 0.87651 0.46912 0.74017 0.0
C934 C 0.84286 0.44529 0.74 0.0
C935 C 0.87519 0.50766 0.74802 0.0
C936 C 0.84027 0.52383 0.75627 0.0
H937 H 0.90418 0.45806 0.73407 0.0
H938 H 0.902 0.52464 0.74794 0.0
S939 S 0.74371 0.47396 0.75927 0.0
N940 N 0.77335 0.44093 0.74858 0.0
N941 N 0.77096 0.51318 0.76346 0.0
C942 C 0.80632 0.50042 0.75611 0.0
C943 C 0.80758 0.46125 0.74795 0.0
C944 C 0.12438 0.34273 0.10289 0.0
C945 C 0.11279 0.38164 0.09862 0.0
C946 C 0.13303 0.3301 0.12397 0.0
C947 C 0.1306 0.35583 0.14174 0.0
H948 H 0.12622 0.32145 0.08988 0.0
H949 H 0.14121 0.29972 0.12633 0.0
S950 S 0.10383 0.46147 0.13929 0.0
N951 N 0.10089 0.44631 0.11391 0.0
N952 N 0.11722 0.42276 0.15353 0.0
C953 C 0.11997 0.39515 0.13768 0.0
C954 C 0.11104 0.40799 0.11616 0.0
C955 C 0.84472 0.86209 0.38898 0.0
C956 C 0.8786 0.8842 0.39354 0.0
C957 C 0.83374 0.85333 0.36763 0.0
C958 C 0.85614 0.86627 0.34988 0.0
H959 H 0.8267 0.85078 0.40202 0.0
H960 H 0.8078 0.83562 0.36511 0.0
S961 S 0.94605 0.92754 0.35281 0.0
N962 N 0.93346 0.92055 0.37837 0.0
N963 N 0.91286 0.90419 0.33825 0.0
C964 C 0.88952 0.88938 0.35413 0.0
C965 C 0.90073 0.89831 0.37593 0.0
C966 C 0.3356 0.63469 0.62341 0.0
C967 C 0.35913 0.62489 0.64133 0.0
C968 C 0.34596 0.62303 0.60236 0.0
C969 C 0.37992 0.60057 0.59844 0.0
H970 H 0.30951 0.65242 0.62557 0.0
H971 H 0.32736 0.63209 0.58902 0.0
S972 S 0.44983 0.56457 0.64012 0.0
N973 N 0.41684 0.58962 0.65396 0.0
N974 N 0.43605 0.56739 0.61448 0.0
C975 C 0.40294 0.58935 0.61633 0.0
C976 C 0.39265 0.60163 0.63773 0.0
C977 C 0.61442 0.16086 0.86993 0.0
C978 C 0.62721 0.13498 0.85365 0.0
C979 C 0.60846 0.14805 0.89122 0.0
C980 C 0.61493 0.10871 0.89722 0.0
H981 H 0.60862 0.19136 0.86623 0.0
H982 H 0.59832 0.16933 0.90301 0.0
S983 S 0.64902 0.02899 0.86079 0.0
N984 N 0.64662 0.06801 0.84501 0.0
N985 N 0.63532 0.04396 0.88511 0.0
C986 C 0.62806 0.08247 0.88117 0.0
C987 C 0.63426 0.09559 0.8594 0.0
C988 C 0.10412 0.61073 0.34968 0.0
C989 C 0.13728 0.63424 0.34569 0.0
C990 C 0.0923 0.60163 0.37085 0.0
C991 C 0.11302 0.61584 0.38892 0.0
H992 H 0.08657 0.59971 0.33636 0.0
H993 H 0.06611 0.58416 0.37301 0.0
S994 S 0.20385 0.67584 0.38743 0.0
N995 N 0.19211 0.66953 0.36168 0.0
N996 N 0.16992 0.6525 0.40145 0.0
C997 C 0.14704 0.63826 0.3852 0.0
C998 C 0.15918 0.64741 0.3636 0.0
C999 C 0.6323 0.83224 0.62838 0.0
C1000 C 0.63367 0.85869 0.64586 0.0
C1001 C 0.62384 0.84496 0.60732 0.0
C1002 C 0.61634 0.88475 0.60274 0.0
H1003 H 0.63712 0.80121 0.63097 0.0
H1004 H 0.62256 0.82308 0.5946 0.0
S1005 S 0.61861 0.96647 0.64251 0.0
N1006 N 0.62853 0.92704 0.65702 0.0
N1007 N 0.61255 0.95087 0.61737 0.0
C1008 C 0.61863 0.91177 0.61993 0.0
C1009 C 0.62732 0.89878 0.64147 0.0
C1010 C 0.36114 0.34734 0.86615 0.0
C1011 C 0.37632 0.36919 0.84873 0.0
C1012 C 0.36755 0.35873 0.88769 0.0
C1013 C 0.38945 0.39249 0.8928 0.0
H1014 H 0.34467 0.32074 0.86321 0.0
H1015 H 0.35568 0.34037 0.90042 0.0
S1016 S 0.43357 0.46152 0.85316 0.0
N1017 N 0.41273 0.42747 0.83804 0.0
N1018 N 0.42482 0.44875 0.87853 0.0
C1019 C 0.4039 0.41531 0.87555 0.0
C1020 C 0.39734 0.4037 0.85355 0.0
C1021 C 0.8997 0.10463 0.13793 0.0
C1022 C 0.86433 0.124 0.14297 0.0
C1023 C 0.90866 0.09346 0.11662 0.0
C1024 C 0.88283 0.10151 0.09943 0.0
H1025 H 0.92094 0.09825 0.1505 0.0
H1026 H 0.93661 0.07938 0.11357 0.0
S1027 S 0.78524 0.1492 0.10397 0.0
N1028 N 0.80241 0.14898 0.12902 0.0
N1029 N 0.81937 0.12816 0.08896 0.0
C1030 C 0.84689 0.11991 0.10426 0.0
C1031 C 0.83761 0.13108 0.12602 0.0
C1032 C 0.8847 0.5939 0.85378 0.0
C1033 C 0.85485 0.62105 0.84883 0.0
C1034 C 0.89487 0.58531 0.87528 0.0
C1035 C 0.87582 0.60373 0.89275 0.0
H1036 H 0.90099 0.57955 0.84094 0.0
H1037 H 0.91864 0.56491 0.87816 0.0
S1038 S 0.79325 0.67446 0.88882 0.0
N1039 N 0.80456 0.6644 0.86338 0.0
N1040 N 0.82375 0.64834 0.90377 0.0
C1041 C 0.84494 0.62988 0.88812 0.0
C1042 C 0.83442 0.63848 0.86619 0.0
C1043 C 0.13311 0.10675 0.61392 0.0
C1044 C 0.11163 0.12974 0.59918 0.0
C1045 C 0.13981 0.11945 0.63523 0.0
C1046 C 0.12555 0.15584 0.64266 0.0
H1047 H 0.1446 0.07847 0.60906 0.0
H1048 H 0.15614 0.10034 0.64598 0.0
S1049 S 0.06902 0.2281 0.61015 0.0
N1050 N 0.07705 0.19134 0.59332 0.0
N1051 N 0.08977 0.21523 0.63327 0.0
C1052 C 0.1045 0.17944 0.62798 0.0
C1053 C 0.09749 0.1664 0.60629 0.0
C1054 C 0.62086 0.39758 0.38026 0.0
C1055 C 0.62241 0.37073 0.39755 0.0
C1056 C 0.6302 0.38617 0.35903 0.0
C1057 C 0.64131 0.34736 0.35417 0.0
H1058 H 0.61163 0.42756 0.38301 0.0
H1059 H 0.62762 0.40783 0.34626 0.0
S1060 S 0.65301 0.26625 0.3938 0.0
N1061 N 0.63828 0.30389 0.40851 0.0
N1062 N 0.65563 0.28261 0.36864 0.0
C1063 C 0.64426 0.32049 0.37139 0.0
C1064 C 0.63489 0.33212 0.39305 0.0
C1065 C 0.34482 0.86482 0.10764 0.0
C1066 C 0.36912 0.89674 0.10227 0.0
C1067 C 0.33462 0.85682 0.12919 0.0
C1068 C 0.34852 0.88022 0.14631 0.0
H1069 H 0.33426 0.84512 0.09516 0.0
H1070 H 0.31693 0.83114 0.13247 0.0
S1071 S 0.40946 0.96982 0.14095 0.0
N1072 N 0.40418 0.95384 0.11583 0.0
N1073 N 0.38511 0.93867 0.15636 0.0
C1074 C 0.37129 0.91334 0.14115 0.0
C1075 C 0.38153 0.92164 0.11914 0.0
C1076 C 0.90967 0.35603 0.63762 0.0
C1077 C 0.87497 0.37215 0.64622 0.0
C1078 C 0.91937 0.3604 0.6157 0.0
C1079 C 0.89477 0.38097 0.60134 0.0
H1080 H 0.9297 0.33978 0.64788 0.0
H1081 H 0.94633 0.34714 0.60998 0.0
S1082 S 0.80045 0.42913 0.6156 0.0
N1083 N 0.81594 0.40984 0.63862 0.0
N1084 N 0.83411 0.418 0.59736 0.0
C1085 C 0.86005 0.39755 0.60971 0.0
C1086 C 0.85018 0.39315 0.63213 0.0
C1087 C 0.38844 0.10864 0.36153 0.0
C1088 C 0.35264 0.12674 0.35609 0.0
C1089 C 0.39632 0.09643 0.38278 0.0
C1090 C 0.369 0.10239 0.39954 0.0
H1091 H 0.41073 0.10394 0.34928 0.0
H1092 H 0.4246 0.08333 0.3862 0.0
S1093 S 0.27021 0.1469 0.39377 0.0
N1094 N 0.28895 0.1486 0.36907 0.0
N1095 N 0.30406 0.12624 0.40915 0.0
C1096 C 0.33277 0.11976 0.39429 0.0
C1097 C 0.3245 0.13172 0.37253 0.0
C1098 C 0.60281 0.59953 0.14401 0.0
C1099 C 0.63476 0.62437 0.14854 0.0
C1100 C 0.59351 0.58862 0.12271 0.0
C1101 C 0.61558 0.60235 0.10504 0.0
H1102 H 0.58424 0.58886 0.15699 0.0
H1103 H 0.56804 0.57029 0.1201 0.0
S1104 S 0.70417 0.66534 0.10807 0.0
N1105 N 0.69005 0.66034 0.13354 0.0
N1106 N 0.67249 0.63998 0.09351 0.0
C1107 C 0.64848 0.62603 0.10934 0.0
C1108 C 0.65811 0.63697 0.13107 0.0
C1109 C 0.15109 0.8514 0.86273 0.0
C1110 C 0.13495 0.87102 0.84477 0.0
C1111 C 0.14141 0.86233 0.88398 0.0
C1112 C 0.11539 0.89354 0.88819 0.0
H1113 H 0.17052 0.82663 0.86042 0.0
H1114 H 0.15405 0.84562 0.8972 0.0
S1115 S 0.06784 0.95679 0.8468 0.0
N1116 N 0.0936 0.92489 0.83256 0.0
N1117 N 0.07552 0.94549 0.8725 0.0
C1118 C 0.10022 0.91444 0.87038 0.0
C1119 C 0.10993 0.90315 0.8487 0.0
loop_
_geom_bond_atom_site_label_1
_geom_bond_atom_site_label_2
_geom_bond_distance
_geom_bond_site_symmetry_2
_ccdc_geom_bond_type
C0 O1 1.160 . S
C0 O7 1.185 . S
O1 C0 1.160 . S
O2 Zn3 1.899 . S
O2 C10 1.284 . S
Zn3 O2 1.899 . S
Zn3 O4 2.032 . S
Zn3 O7 2.086 . S
Zn3 O12 1.977 . S
O4 Zn3 2.032 . S
O4 C8 1.278 . S
C5 O6 1.203 . S
C5 O12 1.267 . S
O6 C5 1.203 . S
O7 C0 1.185 . S
O7 Zn3 2.086 . S
C8 O4 1.278 . S
C8 O9 1.211 . S
O9 C8 1.211 . S
C10 O2 1.284 . S
C10 O11 1.273 . S
O11 C10 1.273 . S
O12 Zn3 1.977 . S
O12 C5 1.267 . S
C13 O14 1.160 . S
C13 O20 1.185 . S
O14 C13 1.160 . S
O15 Zn16 1.899 . S
O15 C23 1.284 . S
Zn16 O15 1.899 . S
Zn16 O17 2.032 . S
Zn16 O20 2.086 . S
Zn16 O25 1.977 . S
O17 Zn16 2.032 . S
O17 C21 1.278 . S
C18 O19 1.203 . S
C18 O25 1.267 . S
O19 C18 1.203 . S
O20 C13 1.185 . S
O20 Zn16 2.086 . S
C21 O17 1.278 . S
C21 O22 1.211 . S
O22 C21 1.211 . S
C23 O15 1.284 . S
C23 O24 1.273 . S
O24 C23 1.273 . S
O25 Zn16 1.977 . S
O25 C18 1.267 . S
C26 O27 1.160 . S
C26 O33 1.185 . S
O27 C26 1.160 . S
O28 Zn29 1.899 . S
O28 C36 1.284 . S
Zn29 O28 1.899 . S
Zn29 O30 2.032 . S
Zn29 O33 2.086 . S
Zn29 O38 1.977 . S
O30 Zn29 2.032 . S
O30 C34 1.278 . S
C31 O32 1.203 . S
C31 O38 1.267 . S
O32 C31 1.203 . S
O33 C26 1.185 . S
O33 Zn29 2.086 . S
C34 O30 1.278 . S
C34 O35 1.211 . S
O35 C34 1.211 . S
C36 O28 1.284 . S
C36 O37 1.273 . S
O37 C36 1.273 . S
O38 Zn29 1.977 . S
O38 C31 1.267 . S
C39 O40 1.160 . S
C39 O46 1.185 . S
O40 C39 1.160 . S
O41 Zn42 1.899 . S
O41 C49 1.284 . S
Zn42 O41 1.899 . S
Zn42 O43 2.032 . S
Zn42 O46 2.086 . S
Zn42 O51 1.977 . S
O43 Zn42 2.032 . S
O43 C47 1.278 . S
C44 O45 1.203 . S
C44 O51 1.267 . S
O45 C44 1.203 . S
O46 C39 1.185 . S
O46 Zn42 2.086 . S
C47 O43 1.278 . S
C47 O48 1.211 . S
O48 C47 1.211 . S
C49 O41 1.284 . S
C49 O50 1.273 . S
O50 C49 1.273 . S
O51 Zn42 1.977 . S
O51 C44 1.267 . S
C52 O53 1.160 . S
C52 O59 1.185 . S
O53 C52 1.160 . S
O54 Zn55 1.899 . S
O54 C62 1.284 . S
Zn55 O54 1.899 . S
Zn55 O56 2.032 . S
Zn55 O59 2.086 . S
Zn55 O64 1.977 . S
O56 Zn55 2.032 . S
O56 C60 1.278 . S
C57 O58 1.203 . S
C57 O64 1.267 . S
O58 C57 1.203 . S
O59 C52 1.185 . S
O59 Zn55 2.086 . S
C60 O56 1.278 . S
C60 O61 1.211 . S
O61 C60 1.211 . S
C62 O54 1.284 . S
C62 O63 1.273 . S
O63 C62 1.273 . S
O64 Zn55 1.977 . S
O64 C57 1.267 . S
C65 O66 1.160 . S
C65 O72 1.185 . S
O66 C65 1.160 . S
O67 Zn68 1.899 . S
O67 C75 1.284 . S
Zn68 O67 1.899 . S
Zn68 O69 2.032 . S
Zn68 O72 2.086 . S
Zn68 O77 1.977 . S
O69 Zn68 2.032 . S
O69 C73 1.278 . S
C70 O71 1.203 . S
C70 O77 1.267 . S
O71 C70 1.203 . S
O72 C65 1.185 . S
O72 Zn68 2.086 . S
C73 O69 1.278 . S
C73 O74 1.211 . S
O74 C73 1.211 . S
C75 O67 1.284 . S
C75 O76 1.273 . S
O76 C75 1.273 . S
O77 Zn68 1.977 . S
O77 C70 1.267 . S
C78 O79 1.160 . S
C78 O85 1.185 . S
O79 C78 1.160 . S
O80 Zn81 1.899 . S
O80 C88 1.284 . S
Zn81 O80 1.899 . S
Zn81 O82 2.032 . S
Zn81 O85 2.086 . S
Zn81 O90 1.977 . S
O82 Zn81 2.032 . S
O82 C86 1.278 . S
C83 O84 1.203 . S
C83 O90 1.267 . S
O84 C83 1.203 . S
O85 C78 1.185 . S
O85 Zn81 2.086 . S
C86 O82 1.278 . S
C86 O87 1.211 . S
O87 C86 1.211 . S
C88 O80 1.284 . S
C88 O89 1.273 . S
O89 C88 1.273 . S
O90 Zn81 1.977 . S
O90 C83 1.267 . S
C91 O92 1.160 . S
C91 O98 1.185 . S
O92 C91 1.160 . S
O93 Zn94 1.899 . S
O93 C101 1.284 . S
Zn94 O93 1.899 . S
Zn94 O95 2.032 . S
Zn94 O98 2.086 . S
Zn94 O103 1.977 . S
O95 Zn94 2.032 . S
O95 C99 1.278 . S
C96 O97 1.203 . S
C96 O103 1.267 . S
O97 C96 1.203 . S
O98 C91 1.185 . S
O98 Zn94 2.086 . S
C99 O95 1.278 . S
C99 O100 1.211 . S
O100 C99 1.211 . S
C101 O93 1.284 . S
C101 O102 1.273 . S
O102 C101 1.273 . S
O103 Zn94 1.977 . S
O103 C96 1.267 . S
C104 O105 1.160 . S
C104 O111 1.185 . S
O105 C104 1.160 . S
O106 Zn107 1.899 . S
O106 C114 1.284 . S
Zn107 O106 1.899 . S
Zn107 O108 2.032 . S
Zn107 O111 2.086 . S
Zn107 O116 1.977 . S
O108 Zn107 2.032 . S
O108 C112 1.278 . S
C109 O110 1.203 . S
C109 O116 1.267 . S
O110 C109 1.203 . S
O111 C104 1.185 . S
O111 Zn107 2.086 . S
C112 O108 1.278 . S
C112 O113 1.211 . S
O113 C112 1.211 . S
C114 O106 1.284 . S
C114 O115 1.273 . S
O115 C114 1.273 . S
O116 Zn107 1.977 . S
O116 C109 1.267 . S
C117 O118 1.160 . S
C117 O124 1.185 . S
O118 C117 1.160 . S
O119 Zn120 1.899 . S
O119 C127 1.284 . S
Zn120 O119 1.899 . S
Zn120 O121 2.032 . S
Zn120 O124 2.086 . S
Zn120 O129 1.977 . S
O121 Zn120 2.032 . S
O121 C125 1.278 . S
C122 O123 1.203 . S
C122 O129 1.267 . S
O123 C122 1.203 . S
O124 C117 1.185 . S
O124 Zn120 2.086 . S
C125 O121 1.278 . S
C125 O126 1.211 . S
O126 C125 1.211 . S
C127 O119 1.284 . S
C127 O128 1.273 . S
O128 C127 1.273 . S
O129 Zn120 1.977 . S
O129 C122 1.267 . S
C130 O131 1.160 . S
C130 O137 1.185 . S
O131 C130 1.160 . S
O132 Zn133 1.899 . S
O132 C140 1.284 . S
Zn133 O132 1.899 . S
Zn133 O134 2.032 . S
Zn133 O137 2.086 . S
Zn133 O142 1.977 . S
O134 Zn133 2.032 . S
O134 C138 1.278 . S
C135 O136 1.203 . S
C135 O142 1.267 . S
O136 C135 1.203 . S
O137 C130 1.185 . S
O137 Zn133 2.086 . S
C138 O134 1.278 . S
C138 O139 1.211 . S
O139 C138 1.211 . S
C140 O132 1.284 . S
C140 O141 1.273 . S
O141 C140 1.273 . S
O142 Zn133 1.977 . S
O142 C135 1.267 . S
C143 O144 1.160 . S
C143 O150 1.185 . S
O144 C143 1.160 . S
O145 Zn146 1.899 . S
O145 C153 1.284 . S
Zn146 O145 1.899 . S
Zn146 O147 2.032 . S
Zn146 O150 2.086 . S
Zn146 O155 1.977 . S
O147 Zn146 2.032 . S
O147 C151 1.278 . S
C148 O149 1.203 . S
C148 O155 1.267 . S
O149 C148 1.203 . S
O150 C143 1.185 . S
O150 Zn146 2.086 . S
C151 O147 1.278 . S
C151 O152 1.211 . S
O152 C151 1.211 . S
C153 O145 1.284 . S
C153 O154 1.273 . S
O154 C153 1.273 . S
O155 Zn146 1.977 . S
O155 C148 1.267 . S
C156 O157 1.160 . S
C156 O163 1.185 . S
O157 C156 1.160 . S
O158 Zn159 1.899 . S
O158 C166 1.284 . S
Zn159 O158 1.899 . S
Zn159 O160 2.032 . S
Zn159 O163 2.086 . S
Zn159 O168 1.977 . S
O160 Zn159 2.032 . S
O160 C164 1.278 . S
C161 O162 1.203 . S
C161 O168 1.267 . S
O162 C161 1.203 . S
O163 C156 1.185 . S
O163 Zn159 2.086 . S
C164 O160 1.278 . S
C164 O165 1.211 . S
O165 C164 1.211 . S
C166 O158 1.284 . S
C166 O167 1.273 . S
O167 C166 1.273 . S
O168 Zn159 1.977 . S
O168 C161 1.267 . S
C169 O170 1.160 . S
C169 O176 1.185 . S
O170 C169 1.160 . S
O171 Zn172 1.899 . S
O171 C179 1.284 . S
Zn172 O171 1.899 . S
Zn172 O173 2.032 . S
Zn172 O176 2.086 . S
Zn172 O181 1.977 . S
O173 Zn172 2.032 . S
O173 C177 1.278 . S
C174 O175 1.203 . S
C174 O181 1.267 . S
O175 C174 1.203 . S
O176 C169 1.185 . S
O176 Zn172 2.086 . S
C177 O173 1.278 . S
C177 O178 1.211 . S
O178 C177 1.211 . S
C179 O171 1.284 . S
C179 O180 1.273 . S
O180 C179 1.273 . S
O181 Zn172 1.977 . S
O181 C174 1.267 . S
C182 O183 1.160 . S
C182 O189 1.185 . S
O183 C182 1.160 . S
O184 Zn185 1.899 . S
O184 C192 1.284 . S
Zn185 O184 1.899 . S
Zn185 O186 2.032 . S
Zn185 O189 2.086 . S
Zn185 O194 1.977 . S
O186 Zn185 2.032 . S
O186 C190 1.278 . S
C187 O188 1.203 . S
C187 O194 1.267 . S
O188 C187 1.203 . S
O189 C182 1.185 . S
O189 Zn185 2.086 . S
C190 O186 1.278 . S
C190 O191 1.211 . S
O191 C190 1.211 . S
C192 O184 1.284 . S
C192 O193 1.273 . S
O193 C192 1.273 . S
O194 Zn185 1.977 . S
O194 C187 1.267 . S
C195 O196 1.160 . S
C195 O202 1.185 . S
O196 C195 1.160 . S
O197 Zn198 1.899 . S
O197 C205 1.284 . S
Zn198 O197 1.899 . S
Zn198 O199 2.032 . S
Zn198 O202 2.086 . S
Zn198 O207 1.977 . S
O199 Zn198 2.032 . S
O199 C203 1.278 . S
C200 O201 1.203 . S
C200 O207 1.267 . S
O201 C200 1.203 . S
O202 C195 1.185 . S
O202 Zn198 2.086 . S
C203 O199 1.278 . S
C203 O204 1.211 . S
O204 C203 1.211 . S
C205 O197 1.284 . S
C205 O206 1.273 . S
O206 C205 1.273 . S
O207 Zn198 1.977 . S
O207 C200 1.267 . S
C208 O209 1.160 . S
C208 O215 1.185 . S
O209 C208 1.160 . S
O210 Zn211 1.899 . S
O210 C218 1.284 . S
Zn211 O210 1.899 . S
Zn211 O212 2.032 . S
Zn211 O215 2.086 . S
Zn211 O220 1.977 . S
O212 Zn211 2.032 . S
O212 C216 1.278 . S
C213 O214 1.203 . S
C213 O220 1.267 . S
O214 C213 1.203 . S
O215 C208 1.185 . S
O215 Zn211 2.086 . S
C216 O212 1.278 . S
C216 O217 1.211 . S
O217 C216 1.211 . S
C218 O210 1.284 . S
C218 O219 1.273 . S
O219 C218 1.273 . S
O220 Zn211 1.977 . S
O220 C213 1.267 . S
C221 O222 1.160 . S
C221 O228 1.185 . S
O222 C221 1.160 . S
O223 Zn224 1.899 . S
O223 C231 1.284 . S
Zn224 O223 1.899 . S
Zn224 O225 2.032 . S
Zn224 O228 2.086 . S
Zn224 O233 1.977 . S
O225 Zn224 2.032 . S
O225 C229 1.278 . S
C226 O227 1.203 . S
C226 O233 1.267 . S
O227 C226 1.203 . S
O228 C221 1.185 . S
O228 Zn224 2.086 . S
C229 O225 1.278 . S
C229 O230 1.211 . S
O230 C229 1.211 . S
C231 O223 1.284 . S
C231 O232 1.273 . S
O232 C231 1.273 . S
O233 Zn224 1.977 . S
O233 C226 1.267 . S
C234 O235 1.160 . S
C234 O241 1.185 . S
O235 C234 1.160 . S
O236 Zn237 1.899 . S
O236 C244 1.284 . S
Zn237 O236 1.899 . S
Zn237 O238 2.032 . S
Zn237 O241 2.086 . S
Zn237 O246 1.977 . S
O238 Zn237 2.032 . S
O238 C242 1.278 . S
C239 O240 1.203 . S
C239 O246 1.267 . S
O240 C239 1.203 . S
O241 C234 1.185 . S
O241 Zn237 2.086 . S
C242 O238 1.278 . S
C242 O243 1.211 . S
O243 C242 1.211 . S
C244 O236 1.284 . S
C244 O245 1.273 . S
O245 C244 1.273 . S
O246 Zn237 1.977 . S
O246 C239 1.267 . S
C247 O248 1.160 . S
C247 O254 1.185 . S
O248 C247 1.160 . S
O249 Zn250 1.899 . S
O249 C257 1.284 . S
Zn250 O249 1.899 . S
Zn250 O251 2.032 . S
Zn250 O254 2.086 . S
Zn250 O259 1.977 . S
O251 Zn250 2.032 . S
O251 C255 1.278 . S
C252 O253 1.203 . S
C252 O259 1.267 . S
O253 C252 1.203 . S
O254 C247 1.185 . S
O254 Zn250 2.086 . S
C255 O251 1.278 . S
C255 O256 1.211 . S
O256 C255 1.211 . S
C257 O249 1.284 . S
C257 O258 1.273 . S
O258 C257 1.273 . S
O259 Zn250 1.977 . S
O259 C252 1.267 . S
C260 O261 1.160 . S
C260 O267 1.185 . S
O261 C260 1.160 . S
O262 Zn263 1.899 . S
O262 C270 1.284 . S
Zn263 O262 1.899 . S
Zn263 O264 2.032 . S
Zn263 O267 2.086 . S
Zn263 O272 1.977 . S
O264 Zn263 2.032 . S
O264 C268 1.278 . S
C265 O266 1.203 . S
C265 O272 1.267 . S
O266 C265 1.203 . S
O267 C260 1.185 . S
O267 Zn263 2.086 . S
C268 O264 1.278 . S
C268 O269 1.211 . S
O269 C268 1.211 . S
C270 O262 1.284 . S
C270 O271 1.273 . S
O271 C270 1.273 . S
O272 Zn263 1.977 . S
O272 C265 1.267 . S
C273 O274 1.160 . S
C273 O280 1.185 . S
O274 C273 1.160 . S
O275 Zn276 1.899 . S
O275 C283 1.284 . S
Zn276 O275 1.899 . S
Zn276 O277 2.032 . S
Zn276 O280 2.086 . S
Zn276 O285 1.977 . S
O277 Zn276 2.032 . S
O277 C281 1.278 . S
C278 O279 1.203 . S
C278 O285 1.267 . S
O279 C278 1.203 . S
O280 C273 1.185 . S
O280 Zn276 2.086 . S
C281 O277 1.278 . S
C281 O282 1.211 . S
O282 C281 1.211 . S
C283 O275 1.284 . S
C283 O284 1.273 . S
O284 C283 1.273 . S
O285 Zn276 1.977 . S
O285 C278 1.267 . S
C286 O287 1.160 . S
C286 O293 1.185 . S
O287 C286 1.160 . S
O288 Zn289 1.899 . S
O288 C296 1.284 . S
Zn289 O288 1.899 . S
Zn289 O290 2.032 . S
Zn289 O293 2.086 . S
Zn289 O298 1.977 . S
O290 Zn289 2.032 . S
O290 C294 1.278 . S
C291 O292 1.203 . S
C291 O298 1.267 . S
O292 C291 1.203 . S
O293 C286 1.185 . S
O293 Zn289 2.086 . S
C294 O290 1.278 . S
C294 O295 1.211 . S
O295 C294 1.211 . S
C296 O288 1.284 . S
C296 O297 1.273 . S
O297 C296 1.273 . S
O298 Zn289 1.977 . S
O298 C291 1.267 . S
C299 O300 1.160 . S
C299 O306 1.185 . S
O300 C299 1.160 . S
O301 Zn302 1.899 . S
O301 C309 1.284 . S
Zn302 O301 1.899 . S
Zn302 O303 2.032 . S
Zn302 O306 2.086 . S
Zn302 O311 1.977 . S
O303 Zn302 2.032 . S
O303 C307 1.278 . S
C304 O305 1.203 . S
C304 O311 1.267 . S
O305 C304 1.203 . S
O306 C299 1.185 . S
O306 Zn302 2.086 . S
C307 O303 1.278 . S
C307 O308 1.211 . S
O308 C307 1.211 . S
C309 O301 1.284 . S
C309 O310 1.273 . S
O310 C309 1.273 . S
O311 Zn302 1.977 . S
O311 C304 1.267 . S
C312 O313 1.160 . S
C312 O319 1.185 . S
O313 C312 1.160 . S
O314 Zn315 1.899 . S
O314 C322 1.284 . S
Zn315 O314 1.899 . S
Zn315 O316 2.032 . S
Zn315 O319 2.086 . S
Zn315 O324 1.977 . S
O316 Zn315 2.032 . S
O316 C320 1.278 . S
C317 O318 1.203 . S
C317 O324 1.267 . S
O318 C317 1.203 . S
O319 C312 1.185 . S
O319 Zn315 2.086 . S
C320 O316 1.278 . S
C320 O321 1.211 . S
O321 C320 1.211 . S
C322 O314 1.284 . S
C322 O323 1.273 . S
O323 C322 1.273 . S
O324 Zn315 1.977 . S
O324 C317 1.267 . S
C325 O326 1.160 . S
C325 O332 1.185 . S
O326 C325 1.160 . S
O327 Zn328 1.899 . S
O327 C335 1.284 . S
Zn328 O327 1.899 . S
Zn328 O329 2.032 . S
Zn328 O332 2.086 . S
Zn328 O337 1.977 . S
O329 Zn328 2.032 . S
O329 C333 1.278 . S
C330 O331 1.203 . S
C330 O337 1.267 . S
O331 C330 1.203 . S
O332 C325 1.185 . S
O332 Zn328 2.086 . S
C333 O329 1.278 . S
C333 O334 1.211 . S
O334 C333 1.211 . S
C335 O327 1.284 . S
C335 O336 1.273 . S
O336 C335 1.273 . S
O337 Zn328 1.977 . S
O337 C330 1.267 . S
C338 O339 1.160 . S
C338 O345 1.185 . S
O339 C338 1.160 . S
O340 Zn341 1.899 . S
O340 C348 1.284 . S
Zn341 O340 1.899 . S
Zn341 O342 2.032 . S
Zn341 O345 2.086 . S
Zn341 O350 1.977 . S
O342 Zn341 2.032 . S
O342 C346 1.278 . S
C343 O344 1.203 . S
C343 O350 1.267 . S
O344 C343 1.203 . S
O345 C338 1.185 . S
O345 Zn341 2.086 . S
C346 O342 1.278 . S
C346 O347 1.211 . S
O347 C346 1.211 . S
C348 O340 1.284 . S
C348 O349 1.273 . S
O349 C348 1.273 . S
O350 Zn341 1.977 . S
O350 C343 1.267 . S
C351 O352 1.160 . S
C351 O358 1.185 . S
O352 C351 1.160 . S
O353 Zn354 1.899 . S
O353 C361 1.284 . S
Zn354 O353 1.899 . S
Zn354 O355 2.032 . S
Zn354 O358 2.086 . S
Zn354 O363 1.977 . S
O355 Zn354 2.032 . S
O355 C359 1.278 . S
C356 O357 1.203 . S
C356 O363 1.267 . S
O357 C356 1.203 . S
O358 C351 1.185 . S
O358 Zn354 2.086 . S
C359 O355 1.278 . S
C359 O360 1.211 . S
O360 C359 1.211 . S
C361 O353 1.284 . S
C361 O362 1.273 . S
O362 C361 1.273 . S
O363 Zn354 1.977 . S
O363 C356 1.267 . S
C364 O365 1.160 . S
C364 O371 1.185 . S
O365 C364 1.160 . S
O366 Zn367 1.899 . S
O366 C374 1.284 . S
Zn367 O366 1.899 . S
Zn367 O368 2.032 . S
Zn367 O371 2.086 . S
Zn367 O376 1.977 . S
O368 Zn367 2.032 . S
O368 C372 1.278 . S
C369 O370 1.203 . S
C369 O376 1.267 . S
O370 C369 1.203 . S
O371 C364 1.185 . S
O371 Zn367 2.086 . S
C372 O368 1.278 . S
C372 O373 1.211 . S
O373 C372 1.211 . S
C374 O366 1.284 . S
C374 O375 1.273 . S
O375 C374 1.273 . S
O376 Zn367 1.977 . S
O376 C369 1.267 . S
C377 O378 1.160 . S
C377 O384 1.185 . S
O378 C377 1.160 . S
O379 Zn380 1.899 . S
O379 C387 1.284 . S
Zn380 O379 1.899 . S
Zn380 O381 2.032 . S
Zn380 O384 2.086 . S
Zn380 O389 1.977 . S
O381 Zn380 2.032 . S
O381 C385 1.278 . S
C382 O383 1.203 . S
C382 O389 1.267 . S
O383 C382 1.203 . S
O384 C377 1.185 . S
O384 Zn380 2.086 . S
C385 O381 1.278 . S
C385 O386 1.211 . S
O386 C385 1.211 . S
C387 O379 1.284 . S
C387 O388 1.273 . S
O388 C387 1.273 . S
O389 Zn380 1.977 . S
O389 C382 1.267 . S
C390 O391 1.160 . S
C390 O397 1.185 . S
O391 C390 1.160 . S
O392 Zn393 1.899 . S
O392 C400 1.284 . S
Zn393 O392 1.899 . S
Zn393 O394 2.032 . S
Zn393 O397 2.086 . S
Zn393 O402 1.977 . S
O394 Zn393 2.032 . S
O394 C398 1.278 . S
C395 O396 1.203 . S
C395 O402 1.267 . S
O396 C395 1.203 . S
O397 C390 1.185 . S
O397 Zn393 2.086 . S
C398 O394 1.278 . S
C398 O399 1.211 . S
O399 C398 1.211 . S
C400 O392 1.284 . S
C400 O401 1.273 . S
O401 C400 1.273 . S
O402 Zn393 1.977 . S
O402 C395 1.267 . S
C403 O404 1.160 . S
C403 O410 1.185 . S
O404 C403 1.160 . S
O405 Zn406 1.899 . S
O405 C413 1.284 . S
Zn406 O405 1.899 . S
Zn406 O407 2.032 . S
Zn406 O410 2.086 . S
Zn406 O415 1.977 . S
O407 Zn406 2.032 . S
O407 C411 1.278 . S
C408 O409 1.203 . S
C408 O415 1.267 . S
O409 C408 1.203 . S
O410 C403 1.185 . S
O410 Zn406 2.086 . S
C411 O407 1.278 . S
C411 O412 1.211 . S
O412 C411 1.211 . S
C413 O405 1.284 . S
C413 O414 1.273 . S
O414 C413 1.273 . S
O415 Zn406 1.977 . S
O415 C408 1.267 . S
C416 C417 1.369 1_455 S
C416 C418 1.402 1_556 S
C416 H420 0.930 . S
C417 C416 1.369 1_655 S
C417 C426 1.422 1_556 S
C418 C416 1.402 1_554 S
C418 C419 1.380 . S
C418 H421 0.929 . S
C419 C418 1.380 . S
C419 C425 1.428 1_455 S
H420 C416 0.930 . S
H421 C418 0.929 . S
S422 N423 1.613 . S
S422 N424 1.610 . S
N423 S422 1.613 . S
N423 C426 1.351 . S
N424 S422 1.610 . S
N424 C425 1.351 . S
C425 C419 1.428 1_655 S
C425 N424 1.351 . S
C425 C426 1.440 . S
C426 C417 1.422 1_554 S
C426 N423 1.351 . S
C426 C425 1.440 . S
C427 C428 1.369 . S
C427 C429 1.419 . S
C427 H431 0.930 . S
C428 C427 1.369 . S
C428 C437 1.429 . S
C429 C427 1.419 . S
C429 C430 1.363 . S
C429 H432 0.929 . S
C430 C429 1.363 . S
C430 C436 1.428 . S
H431 C427 0.930 . S
H432 C429 0.929 . S
S433 N434 1.613 . S
S433 N435 1.610 . S
N434 S433 1.613 . S
N434 C437 1.350 . S
N435 S433 1.610 . S
N435 C436 1.351 . S
C436 C430 1.428 . S
C436 N435 1.351 . S
C436 C437 1.434 . S
C437 C428 1.429 . S
C437 N434 1.350 . S
C437 C436 1.434 . S
C438 C439 1.369 . S
C438 C440 1.419 . S
C438 H442 0.930 . S
C439 C438 1.369 . S
C439 C448 1.429 . S
C440 C438 1.419 . S
C440 C441 1.363 . S
C440 H443 0.929 . S
C441 C440 1.363 . S
C441 C447 1.428 . S
H442 C438 0.930 . S
H443 C440 0.929 . S
S444 N445 1.613 . S
S444 N446 1.610 . S
N445 S444 1.613 . S
N445 C448 1.350 . S
N446 S444 1.610 . S
N446 C447 1.351 . S
C447 C441 1.428 . S
C447 N446 1.351 . S
C447 C448 1.434 . S
C448 C439 1.429 . S
C448 N445 1.350 . S
C448 C447 1.434 . S
C449 C450 1.369 . S
C449 C451 1.419 . S
C449 H453 0.930 . S
C450 C449 1.369 . S
C450 C459 1.429 . S
C451 C449 1.419 . S
C451 C452 1.363 . S
C451 H454 0.929 . S
C452 C451 1.363 . S
C452 C458 1.428 . S
H453 C449 0.930 . S
H454 C451 0.929 . S
S455 N456 1.613 . S
S455 N457 1.610 . S
N456 S455 1.613 . S
N456 C459 1.350 . S
N457 S455 1.610 . S
N457 C458 1.351 . S
C458 C452 1.428 . S
C458 N457 1.351 . S
C458 C459 1.434 . S
C459 C450 1.429 . S
C459 N456 1.350 . S
C459 C458 1.434 . S
C460 C461 1.369 . S
C460 C462 1.419 1_655 S
C460 H464 0.930 . S
C461 C460 1.369 . S
C461 C470 1.429 . S
C462 C460 1.419 1_455 S
C462 C463 1.363 . S
C462 H465 0.929 . S
C463 C462 1.363 . S
C463 C469 1.428 . S
H464 C460 0.930 . S
H465 C462 0.929 . S
S466 N467 1.613 1_455 S
S466 N468 1.610 . S
N467 S466 1.613 1_655 S
N467 C470 1.350 . S
N468 S466 1.610 . S
N468 C469 1.351 . S
C469 C463 1.428 . S
C469 N468 1.351 . S
C469 C470 1.434 1_455 S
C470 C461 1.429 . S
C470 N467 1.350 . S
C470 C469 1.434 1_655 S
C471 C472 1.369 . S
C471 C473 1.419 . S
C471 H475 0.930 . S
C472 C471 1.369 . S
C472 C481 1.429 . S
C473 C471 1.419 . S
C473 C474 1.363 . S
C473 H476 0.929 . S
C474 C473 1.363 . S
C474 C480 1.428 . S
H475 C471 0.930 . S
H476 C473 0.929 . S
S477 N478 1.613 . S
S477 N479 1.610 . S
N478 S477 1.613 . S
N478 C481 1.350 . S
N479 S477 1.610 . S
N479 C480 1.351 . S
C480 C474 1.428 . S
C480 N479 1.351 . S
C480 C481 1.434 . S
C481 C472 1.429 . S
C481 N478 1.350 . S
C481 C480 1.434 . S
C482 C483 1.369 . S
C482 C484 1.445 . S
C482 H486 0.930 . S
C483 C482 1.369 . S
C483 C492 1.429 1_556 S
C484 C482 1.445 . S
C484 C485 1.334 1_556 S
C484 H487 0.935 . S
C485 C484 1.334 1_554 S
C485 C491 1.428 . S
H486 C482 0.930 . S
H487 C484 0.935 . S
S488 N489 1.613 . S
S488 N490 1.610 . S
N489 S488 1.613 . S
N489 C492 1.350 . S
N490 S488 1.610 . S
N490 C491 1.351 . S
C491 C485 1.428 . S
C491 N490 1.351 . S
C491 C492 1.434 . S
C492 C483 1.429 1_554 S
C492 N489 1.350 . S
C492 C491 1.434 . S
C493 C494 1.369 . S
C493 C495 1.419 . S
C493 H497 0.930 . S
C494 C493 1.369 . S
C494 C503 1.429 . S
C495 C493 1.419 . S
C495 C496 1.363 . S
C495 H498 0.929 . S
C496 C495 1.363 . S
C496 C502 1.428 . S
H497 C493 0.930 . S
H498 C495 0.929 . S
S499 N500 1.613 . S
S499 N501 1.610 . S
N500 S499 1.613 . S
N500 C503 1.350 . S
N501 S499 1.610 . S
N501 C502 1.351 . S
C502 C496 1.428 . S
C502 N501 1.351 . S
C502 C503 1.434 . S
C503 C494 1.429 . S
C503 N500 1.350 . S
C503 C502 1.434 . S
C504 C505 1.369 . S
C504 C506 1.419 . S
C504 H508 0.930 . S
C505 C504 1.369 . S
C505 C514 1.429 . S
C506 C504 1.419 . S
C506 C507 1.363 . S
C506 H509 0.929 . S
C507 C506 1.363 . S
C507 C513 1.428 . S
H508 C504 0.930 . S
H509 C506 0.929 . S
S510 N511 1.613 . S
S510 N512 1.610 . S
N511 S510 1.613 . S
N511 C514 1.350 . S
N512 S510 1.610 . S
N512 C513 1.351 . S
C513 C507 1.428 . S
C513 N512 1.351 . S
C513 C514 1.434 . S
C514 C505 1.429 . S
C514 N511 1.350 . S
C514 C513 1.434 . S
C515 C516 1.369 . S
C515 C517 1.419 . S
C515 H519 0.930 . S
C516 C515 1.369 . S
C516 C525 1.429 . S
C517 C515 1.419 . S
C517 C518 1.363 . S
C517 H520 0.929 . S
C518 C517 1.363 . S
C518 C524 1.428 . S
H519 C515 0.930 . S
H520 C517 0.929 . S
S521 N522 1.613 . S
S521 N523 1.610 . S
N522 S521 1.613 . S
N522 C525 1.350 . S
N523 S521 1.610 . S
N523 C524 1.351 . S
C524 C518 1.428 . S
C524 N523 1.351 . S
C524 C525 1.434 . S
C525 C516 1.429 . S
C525 N522 1.350 . S
C525 C524 1.434 . S
C526 C527 1.369 . S
C526 C528 1.419 . S
C526 H530 0.930 . S
C527 C526 1.369 . S
C527 C536 1.429 . S
C528 C526 1.419 . S
C528 C529 1.363 . S
C528 H531 0.929 . S
C529 C528 1.363 . S
C529 C535 1.428 . S
H530 C526 0.930 . S
H531 C528 0.929 . S
S532 N533 1.613 . S
S532 N534 1.610 . S
N533 S532 1.613 . S
N533 C536 1.350 . S
N534 S532 1.610 . S
N534 C535 1.351 . S
C535 C529 1.428 . S
C535 N534 1.351 . S
C535 C536 1.434 . S
C536 C527 1.429 . S
C536 N533 1.350 . S
C536 C535 1.434 . S
C537 C538 1.369 . S
C537 C539 1.419 . S
C537 H541 0.930 . S
C538 C537 1.369 . S
C538 C547 1.429 . S
C539 C537 1.419 . S
C539 C540 1.363 . S
C539 H542 0.929 . S
C540 C539 1.363 . S
C540 C546 1.428 . S
H541 C537 0.930 . S
H542 C539 0.929 . S
S543 N544 1.613 . S
S543 N545 1.610 . S
N544 S543 1.613 . S
N544 C547 1.350 . S
N545 S543 1.610 . S
N545 C546 1.351 . S
C546 C540 1.428 . S
C546 N545 1.351 . S
C546 C547 1.434 . S
C547 C538 1.429 . S
C547 N544 1.350 . S
C547 C546 1.434 . S
C548 C549 1.369 . S
C548 C550 1.419 1_565 S
C548 H552 0.930 . S
C549 C548 1.369 . S
C549 C558 1.429 . S
C550 C548 1.419 1_545 S
C550 C551 1.363 . S
C550 H553 0.929 . S
C551 C550 1.363 . S
C551 C557 1.428 . S
H552 C548 0.930 . S
H553 C550 0.929 . S
S554 N555 1.613 1_545 S
S554 N556 1.610 . S
N555 S554 1.613 1_565 S
N555 C558 1.350 . S
N556 S554 1.610 . S
N556 C557 1.351 . S
C557 C551 1.428 . S
C557 N556 1.351 . S
C557 C558 1.434 1_545 S
C558 C549 1.429 . S
C558 N555 1.350 . S
C558 C557 1.434 1_565 S
C559 C560 1.369 1_655 S
C559 C561 1.419 . S
C559 H563 0.930 . S
C560 C559 1.369 1_455 S
C560 C569 1.429 1_566 S
C561 C559 1.419 . S
C561 C562 1.363 1_566 S
C561 H564 0.929 . S
C562 C561 1.363 1_544 S
C562 C568 1.428 1_655 S
H563 C559 0.930 . S
H564 C561 0.929 . S
S565 N566 1.613 . S
S565 N567 1.610 . S
N566 S565 1.613 . S
N566 C569 1.350 . S
N567 S565 1.610 . S
N567 C568 1.351 . S
C568 C562 1.428 1_455 S
C568 N567 1.351 . S
C568 C569 1.434 . S
C569 C560 1.429 1_544 S
C569 N566 1.350 . S
C569 C568 1.434 . S
C570 C571 1.369 . S
C570 C572 1.419 1_556 S
C570 H574 0.930 . S
C571 C570 1.369 . S
C571 C580 1.429 1_545 S
C572 C570 1.419 1_554 S
C572 C573 1.363 1_545 S
C572 H575 0.929 . S
C573 C572 1.363 1_565 S
C573 C579 1.428 . S
H574 C570 0.930 . S
H575 C572 0.929 . S
S576 N577 1.613 . S
S576 N578 1.610 1_556 S
N577 S576 1.613 . S
N577 C580 1.350 . S
N578 S576 1.610 1_554 S
N578 C579 1.351 . S
C579 C573 1.428 . S
C579 N578 1.351 . S
C579 C580 1.434 1_554 S
C580 C571 1.429 1_565 S
C580 N577 1.350 . S
C580 C579 1.434 1_556 S
C581 C582 1.369 . S
C581 C583 1.419 1_545 S
C581 H585 0.930 . S
C582 C581 1.369 . S
C582 C591 1.429 1_455 S
C583 C581 1.419 1_565 S
C583 C584 1.363 1_455 S
C583 H586 0.929 . S
C584 C583 1.363 1_655 S
C584 C590 1.428 . S
H585 C581 0.930 . S
H586 C583 0.929 . S
S587 N588 1.613 . S
S587 N589 1.610 1_545 S
N588 S587 1.613 . S
N588 C591 1.350 . S
N589 S587 1.610 1_565 S
N589 C590 1.351 . S
C590 C584 1.428 . S
C590 N589 1.351 . S
C590 C591 1.434 1_565 S
C591 C582 1.429 1_655 S
C591 N588 1.350 . S
C591 C590 1.434 1_545 S
C592 C593 1.369 . S
C592 C594 1.419 1_655 S
C592 H596 0.930 . S
C593 C592 1.369 . S
C593 C602 1.428 . S
C594 C592 1.419 1_455 S
C594 C595 1.363 . S
C594 H597 0.929 . S
C595 C594 1.363 . S
C595 C601 1.428 . S
H596 C592 0.930 . S
H597 C594 0.929 . S
S598 N599 1.613 . S
S598 N600 1.610 . S
N599 S598 1.613 . S
N599 C602 1.350 1_456 S
N600 S598 1.610 . S
N600 C601 1.351 1_556 S
C601 C595 1.428 . S
C601 N600 1.351 1_554 S
C601 C602 1.435 1_455 S
C602 C593 1.428 . S
C602 N599 1.350 1_654 S
C602 C601 1.435 1_655 S
C603 C604 1.369 . S
C603 C605 1.419 1_455 S
C603 H607 0.930 . S
C604 C603 1.369 . S
C604 C613 1.429 . S
C605 C603 1.419 1_655 S
C605 C606 1.363 . S
C605 H608 0.929 . S
C606 C605 1.363 . S
C606 C612 1.428 . S
H607 C603 0.930 . S
H608 C605 0.929 . S
S609 N610 1.613 1_655 S
S609 N611 1.610 . S
N610 S609 1.613 1_455 S
N610 C613 1.350 . S
N611 S609 1.610 . S
N611 C612 1.351 . S
C612 C606 1.428 . S
C612 N611 1.351 . S
C612 C613 1.434 1_655 S
C613 C604 1.429 . S
C613 N610 1.350 . S
C613 C612 1.434 1_455 S
C614 C615 1.369 . S
C614 C616 1.419 . S
C614 H618 0.930 . S
C615 C614 1.369 . S
C615 C624 1.429 . S
C616 C614 1.419 . S
C616 C617 1.363 . S
C616 H619 0.929 . S
C617 C616 1.363 . S
C617 C623 1.428 . S
H618 C614 0.930 . S
H619 C616 0.929 . S
S620 N621 1.613 . S
S620 N622 1.610 . S
N621 S620 1.613 . S
N621 C624 1.350 . S
N622 S620 1.610 . S
N622 C623 1.351 . S
C623 C617 1.428 . S
C623 N622 1.351 . S
C623 C624 1.434 . S
C624 C615 1.429 . S
C624 N621 1.350 . S
C624 C623 1.434 . S
C625 C626 1.369 . S
C625 C627 1.419 . S
C625 H629 0.930 . S
C626 C625 1.369 . S
C626 C635 1.429 . S
C627 C625 1.419 . S
C627 C628 1.363 . S
C627 H630 0.929 . S
C628 C627 1.363 . S
C628 C634 1.428 . S
H629 C625 0.930 . S
H630 C627 0.929 . S
S631 N632 1.613 . S
S631 N633 1.610 . S
N632 S631 1.613 . S
N632 C635 1.350 . S
N633 S631 1.610 . S
N633 C634 1.351 . S
C634 C628 1.428 . S
C634 N633 1.351 . S
C634 C635 1.434 . S
C635 C626 1.429 . S
C635 N632 1.350 . S
C635 C634 1.434 . S
C636 C637 1.369 1_455 S
C636 C638 1.419 . S
C636 H640 0.930 . S
C637 C636 1.369 1_655 S
C637 C646 1.429 . S
C638 C636 1.419 . S
C638 C639 1.363 . S
C638 H641 0.929 . S
C639 C638 1.363 . S
C639 C645 1.428 1_455 S
H640 C636 0.930 . S
H641 C638 0.929 . S
S642 N643 1.613 . S
S642 N644 1.610 . S
N643 S642 1.613 . S
N643 C646 1.350 . S
N644 S642 1.610 . S
N644 C645 1.351 . S
C645 C639 1.428 1_655 S
C645 N644 1.351 . S
C645 C646 1.434 . S
C646 C637 1.429 . S
C646 N643 1.350 . S
C646 C645 1.434 . S
C647 C648 1.369 . S
C647 C649 1.419 . S
C647 H651 0.930 . S
C648 C647 1.369 . S
C648 C657 1.429 . S
C649 C647 1.419 . S
C649 C650 1.363 . S
C649 H652 0.929 . S
C650 C649 1.363 . S
C650 C656 1.428 . S
H651 C647 0.930 . S
H652 C649 0.929 . S
S653 N654 1.613 . S
S653 N655 1.610 . S
N654 S653 1.613 . S
N654 C657 1.350 . S
N655 S653 1.610 . S
N655 C656 1.351 . S
C656 C650 1.428 . S
C656 N655 1.351 . S
C656 C657 1.434 . S
C657 C648 1.429 . S
C657 N654 1.350 . S
C657 C656 1.434 . S
C658 C659 1.369 . S
C658 C660 1.419 . S
C658 H662 0.930 1_556 S
C659 C658 1.369 . S
C659 C668 1.429 . S
C660 C658 1.419 . S
C660 C661 1.363 . S
C660 H663 0.929 1_556 S
C661 C660 1.363 . S
C661 C667 1.428 . S
H662 C658 0.930 1_554 S
H663 C660 0.929 1_554 S
S664 N665 1.613 . S
S664 N666 1.610 . S
N665 S664 1.613 . S
N665 C668 1.350 . S
N666 S664 1.610 . S
N666 C667 1.351 . S
C667 C661 1.428 . S
C667 N666 1.351 . S
C667 C668 1.434 . S
C668 C659 1.429 . S
C668 N665 1.350 . S
C668 C667 1.434 . S
C669 C670 1.363 1_655 S
C669 C671 1.424 . S
C669 H673 0.931 . S
C670 C669 1.363 1_455 S
C670 C679 1.429 . S
C671 C669 1.424 . S
C671 C672 1.363 . S
C671 H674 0.929 . S
C672 C671 1.363 . S
C672 C678 1.428 1_655 S
H673 C669 0.931 . S
H674 C671 0.929 . S
S675 N676 1.613 . S
S675 N677 1.610 . S
N676 S675 1.613 . S
N676 C679 1.350 . S
N677 S675 1.610 . S
N677 C678 1.351 . S
C678 C672 1.428 1_455 S
C678 N677 1.351 . S
C678 C679 1.434 . S
C679 C670 1.429 . S
C679 N676 1.350 . S
C679 C678 1.434 . S
C680 C681 1.369 1_455 S
C680 C682 1.419 . S
C680 H684 0.930 . S
C681 C680 1.369 1_655 S
C681 C690 1.429 . S
C682 C680 1.419 . S
C682 C683 1.363 . S
C682 H685 0.929 . S
C683 C682 1.363 . S
C683 C689 1.428 1_455 S
H684 C680 0.930 . S
H685 C682 0.929 . S
S686 N687 1.596 1_554 S
S686 N688 1.593 1_554 S
N687 S686 1.596 1_556 S
N687 C690 1.350 . S
N688 S686 1.593 1_556 S
N688 C689 1.351 . S
C689 C683 1.428 1_655 S
C689 N688 1.351 . S
C689 C690 1.434 . S
C690 C681 1.429 . S
C690 N687 1.350 . S
C690 C689 1.434 . S
C691 C692 1.369 . S
C691 C693 1.419 1_655 S
C691 H695 0.930 . S
C692 C691 1.369 . S
C692 C701 1.429 . S
C693 C691 1.419 1_455 S
C693 C694 1.363 . S
C693 H696 0.929 . S
C694 C693 1.363 . S
C694 C700 1.428 . S
H695 C691 0.930 . S
H696 C693 0.929 . S
S697 N698 1.613 1_455 S
S697 N699 1.610 . S
N698 S697 1.613 1_655 S
N698 C701 1.350 . S
N699 S697 1.610 . S
N699 C700 1.351 . S
C700 C694 1.428 . S
C700 N699 1.351 . S
C700 C701 1.434 1_455 S
C701 C692 1.429 . S
C701 N698 1.350 . S
C701 C700 1.434 1_655 S
C702 C703 1.369 . S
C702 C704 1.419 . S
C702 H706 0.930 . S
C703 C702 1.369 . S
C703 C712 1.429 . S
C704 C702 1.419 . S
C704 C705 1.363 . S
C704 H707 0.929 . S
C705 C704 1.363 . S
C705 C711 1.428 . S
H706 C702 0.930 . S
H707 C704 0.929 . S
S708 N709 1.613 . S
S708 N710 1.610 . S
N709 S708 1.613 . S
N709 C712 1.350 . S
N710 S708 1.610 . S
N710 C711 1.351 . S
C711 C705 1.428 . S
C711 N710 1.351 . S
C711 C712 1.434 . S
C712 C703 1.429 . S
C712 N709 1.350 . S
C712 C711 1.434 . S
C713 C714 1.369 . S
C713 C715 1.419 . S
C713 H717 0.930 . S
C714 C713 1.369 . S
C714 C723 1.429 . S
C715 C713 1.419 . S
C715 C716 1.363 . S
C715 H718 0.929 . S
C716 C715 1.363 . S
C716 C722 1.428 . S
H717 C713 0.930 . S
H718 C715 0.929 . S
S719 N720 1.613 . S
S719 N721 1.610 . S
N720 S719 1.613 . S
N720 C723 1.350 . S
N721 S719 1.610 . S
N721 C722 1.351 . S
C722 C716 1.428 . S
C722 N721 1.351 . S
C722 C723 1.434 . S
C723 C714 1.429 . S
C723 N720 1.350 . S
C723 C722 1.434 . S
C724 C725 1.369 1_455 S
C724 C726 1.419 . S
C724 H728 0.930 . S
C725 C724 1.369 1_655 S
C725 C734 1.429 . S
C726 C724 1.419 . S
C726 C727 1.363 . S
C726 H729 0.929 . S
C727 C726 1.363 . S
C727 C733 1.428 1_455 S
H728 C724 0.930 . S
H729 C726 0.929 . S
S730 N731 1.613 . S
S730 N732 1.610 . S
N731 S730 1.613 . S
N731 C734 1.350 . S
N732 S730 1.610 . S
N732 C733 1.351 . S
C733 C727 1.428 1_655 S
C733 N732 1.351 . S
C733 C734 1.434 . S
C734 C725 1.429 . S
C734 N731 1.350 . S
C734 C733 1.434 . S
C735 C736 1.369 . S
C735 C737 1.419 . S
C735 H739 0.930 . S
C736 C735 1.369 . S
C736 C745 1.429 . S
C737 C735 1.419 . S
C737 C738 1.363 . S
C737 H740 0.929 . S
C738 C737 1.363 . S
C738 C744 1.428 . S
H739 C735 0.930 . S
H740 C737 0.929 . S
S741 N742 1.613 . S
S741 N743 1.610 . S
N742 S741 1.613 . S
N742 C745 1.350 . S
N743 S741 1.610 . S
N743 C744 1.351 . S
C744 C738 1.428 . S
C744 N743 1.351 . S
C744 C745 1.434 . S
C745 C736 1.429 . S
C745 N742 1.350 . S
C745 C744 1.434 . S
C746 C747 1.369 . S
C746 C748 1.419 . S
C746 H750 0.930 . S
C747 C746 1.369 . S
C747 C756 1.429 . S
C748 C746 1.419 . S
C748 C749 1.363 . S
C748 H751 0.929 . S
C749 C748 1.363 . S
C749 C755 1.428 . S
H750 C746 0.930 . S
H751 C748 0.929 . S
S752 N753 1.613 . S
S752 N754 1.610 . S
N753 S752 1.613 . S
N753 C756 1.350 . S
N754 S752 1.610 . S
N754 C755 1.351 . S
C755 C749 1.428 . S
C755 N754 1.351 . S
C755 C756 1.434 . S
C756 C747 1.429 . S
C756 N753 1.350 . S
C756 C755 1.434 . S
C757 C758 1.369 . S
C757 C759 1.419 1_655 S
C757 H761 0.930 . S
C758 C757 1.369 . S
C758 C767 1.429 . S
C759 C757 1.419 1_455 S
C759 C760 1.363 . S
C759 H762 0.929 . S
C760 C759 1.363 . S
C760 C766 1.428 . S
H761 C757 0.930 . S
H762 C759 0.929 . S
S763 N764 1.613 . S
S763 N765 1.610 1_655 S
N764 S763 1.613 . S
N764 C767 1.350 . S
N765 S763 1.610 1_455 S
N765 C766 1.351 . S
C766 C760 1.428 . S
C766 N765 1.351 . S
C766 C767 1.434 1_455 S
C767 C758 1.429 . S
C767 N764 1.350 . S
C767 C766 1.434 1_655 S
C768 C769 1.369 1_554 S
C768 C770 1.419 . S
C768 H772 0.930 . S
C769 C768 1.369 1_556 S
C769 C778 1.429 . S
C770 C768 1.419 . S
C770 C771 1.363 . S
C770 H773 0.929 . S
C771 C770 1.363 . S
C771 C777 1.428 1_554 S
H772 C768 0.930 . S
H773 C770 0.929 . S
S774 N775 1.613 . S
S774 N776 1.610 . S
N775 S774 1.613 . S
N775 C778 1.350 . S
N776 S774 1.610 . S
N776 C777 1.351 . S
C777 C771 1.428 1_556 S
C777 N776 1.351 . S
C777 C778 1.434 . S
C778 C769 1.429 . S
C778 N775 1.350 . S
C778 C777 1.434 . S
C779 C780 1.369 . S
C779 C781 1.419 1_545 S
C779 H783 0.930 . S
C780 C779 1.369 . S
C780 C789 1.429 . S
C781 C779 1.419 1_565 S
C781 C782 1.363 . S
C781 H784 0.929 . S
C782 C781 1.363 . S
C782 C788 1.428 . S
H783 C779 0.930 . S
H784 C781 0.929 . S
S785 N786 1.613 1_565 S
S785 N787 1.610 . S
N786 S785 1.613 1_545 S
N786 C789 1.350 . S
N787 S785 1.610 . S
N787 C788 1.351 . S
C788 C782 1.428 . S
C788 N787 1.351 . S
C788 C789 1.434 1_565 S
C789 C780 1.429 . S
C789 N786 1.350 . S
C789 C788 1.434 1_545 S
C790 C791 1.369 . S
C790 C792 1.419 . S
C790 H794 0.930 . S
C791 C790 1.369 . S
C791 C800 1.429 . S
C792 C790 1.419 . S
C792 C793 1.363 . S
C792 H795 0.929 . S
C793 C792 1.363 . S
C793 C799 1.428 . S
H794 C790 0.930 . S
H795 C792 0.929 . S
S796 N797 1.613 . S
S796 N798 1.610 . S
N797 S796 1.613 . S
N797 C800 1.350 . S
N798 S796 1.610 . S
N798 C799 1.351 . S
C799 C793 1.428 . S
C799 N798 1.351 . S
C799 C800 1.434 . S
C800 C791 1.429 . S
C800 N797 1.350 . S
C800 C799 1.434 . S
C801 C802 1.369 . S
C801 C803 1.419 1_545 S
C801 H805 0.930 . S
C802 C801 1.369 . S
C802 C811 1.429 . S
C803 C801 1.419 1_565 S
C803 C804 1.363 . S
C803 H806 0.929 . S
C804 C803 1.363 . S
C804 C810 1.428 . S
H805 C801 0.930 . S
H806 C803 0.929 . S
S807 N808 1.613 . S
S807 N809 1.610 1_545 S
N808 S807 1.613 . S
N808 C811 1.350 . S
N809 S807 1.610 1_565 S
N809 C810 1.351 . S
C810 C804 1.428 . S
C810 N809 1.351 . S
C810 C811 1.434 1_565 S
C811 C802 1.429 . S
C811 N808 1.350 . S
C811 C810 1.434 1_545 S
C812 C813 1.369 . S
C812 C814 1.419 . S
C812 H816 0.930 . S
C813 C812 1.369 . S
C813 C822 1.429 1_554 S
C814 C812 1.419 . S
C814 C815 1.363 1_554 S
C814 H817 0.929 . S
C815 C814 1.363 1_556 S
C815 C821 1.428 . S
H816 C812 0.930 . S
H817 C814 0.929 . S
S818 N819 1.613 . S
S818 N820 1.610 . S
N819 S818 1.613 . S
N819 C822 1.350 . S
N820 S818 1.610 . S
N820 C821 1.351 . S
C821 C815 1.428 . S
C821 N820 1.351 . S
C821 C822 1.434 . S
C822 C813 1.429 1_556 S
C822 N819 1.350 . S
C822 C821 1.434 . S
C823 C824 1.369 . S
C823 C825 1.419 1_565 S
C823 H827 0.930 . S
C824 C823 1.369 . S
C824 C833 1.429 . S
C825 C823 1.419 1_545 S
C825 C826 1.363 . S
C825 H828 0.929 . S
C826 C825 1.363 . S
C826 C832 1.428 . S
H827 C823 0.930 . S
H828 C825 0.929 . S
S829 N830 1.613 . S
S829 N831 1.610 1_565 S
N830 S829 1.613 . S
N830 C833 1.350 . S
N831 S829 1.610 1_545 S
N831 C832 1.351 . S
C832 C826 1.428 . S
C832 N831 1.351 . S
C832 C833 1.434 1_545 S
C833 C824 1.429 . S
C833 N830 1.350 . S
C833 C832 1.434 1_565 S
C834 C835 1.369 . S
C834 C836 1.419 . S
C834 H838 0.930 . S
C835 C834 1.369 . S
C835 C844 1.429 . S
C836 C834 1.419 . S
C836 C837 1.363 . S
C836 H839 0.929 . S
C837 C836 1.363 . S
C837 C843 1.428 . S
H838 C834 0.930 . S
H839 C836 0.929 . S
S840 N841 1.613 . S
S840 N842 1.610 . S
N841 S840 1.613 . S
N841 C844 1.350 . S
N842 S840 1.610 . S
N842 C843 1.351 . S
C843 C837 1.428 . S
C843 N842 1.351 . S
C843 C844 1.434 . S
C844 C835 1.429 . S
C844 N841 1.350 . S
C844 C843 1.434 . S
C845 C846 1.369 . S
C845 C847 1.419 1_545 S
C845 H849 0.930 . S
C846 C845 1.369 . S
C846 C855 1.429 . S
C847 C845 1.419 1_565 S
C847 C848 1.363 . S
C847 H850 0.929 . S
C848 C847 1.363 . S
C848 C854 1.428 . S
H849 C845 0.930 . S
H850 C847 0.929 . S
S851 N852 1.613 . S
S851 N853 1.610 1_545 S
N852 S851 1.613 . S
N852 C855 1.350 . S
N853 S851 1.610 1_565 S
N853 C854 1.351 . S
C854 C848 1.428 . S
C854 N853 1.351 . S
C854 C855 1.434 1_565 S
C855 C846 1.429 . S
C855 N852 1.350 . S
C855 C854 1.434 1_545 S
C856 C857 1.369 . S
C856 C858 1.419 . S
C856 H860 0.930 . S
C857 C856 1.369 . S
C857 C866 1.429 . S
C858 C856 1.419 . S
C858 C859 1.363 . S
C858 H861 0.929 . S
C859 C858 1.363 . S
C859 C865 1.428 . S
H860 C856 0.930 . S
H861 C858 0.929 . S
S862 N863 1.613 . S
S862 N864 1.610 . S
N863 S862 1.613 . S
N863 C866 1.350 . S
N864 S862 1.610 . S
N864 C865 1.351 . S
C865 C859 1.428 . S
C865 N864 1.351 . S
C865 C866 1.434 . S
C866 C857 1.429 . S
C866 N863 1.350 . S
C866 C865 1.434 . S
C867 C868 1.369 . S
C867 C869 1.419 . S
C867 H871 0.930 . S
C868 C867 1.369 . S
C868 C877 1.429 . S
C869 C867 1.419 . S
C869 C870 1.363 . S
C869 H872 0.929 . S
C870 C869 1.363 . S
C870 C876 1.428 . S
H871 C867 0.930 . S
H872 C869 0.929 . S
S873 N874 1.613 . S
S873 N875 1.610 . S
N874 S873 1.613 . S
N874 C877 1.350 . S
N875 S873 1.610 . S
N875 C876 1.351 . S
C876 C870 1.428 . S
C876 N875 1.351 . S
C876 C877 1.434 . S
C877 C868 1.429 . S
C877 N874 1.350 . S
C877 C876 1.434 . S
C878 C879 1.369 1_556 S
C878 C880 1.419 . S
C878 H882 0.930 . S
C879 C878 1.369 1_554 S
C879 C888 1.429 . S
C880 C878 1.419 . S
C880 C881 1.363 . S
C880 H883 0.929 . S
C881 C880 1.363 . S
C881 C887 1.428 1_556 S
H882 C878 0.930 . S
H883 C880 0.929 . S
S884 N885 1.613 . S
S884 N886 1.610 . S
N885 S884 1.613 . S
N885 C888 1.350 . S
N886 S884 1.610 . S
N886 C887 1.351 . S
C887 C881 1.428 1_554 S
C887 N886 1.351 . S
C887 C888 1.434 . S
C888 C879 1.429 . S
C888 N885 1.350 . S
C888 C887 1.434 . S
C889 C890 1.369 . S
C889 C891 1.419 . S
C889 H893 0.930 . S
C890 C889 1.369 . S
C890 C899 1.429 . S
C891 C889 1.419 . S
C891 C892 1.363 . S
C891 H894 0.929 . S
C892 C891 1.363 . S
C892 C898 1.428 . S
H893 C889 0.930 . S
H894 C891 0.929 . S
S895 N896 1.613 . S
S895 N897 1.610 . S
N896 S895 1.613 . S
N896 C899 1.350 . S
N897 S895 1.610 . S
N897 C898 1.351 . S
C898 C892 1.428 . S
C898 N897 1.351 . S
C898 C899 1.434 . S
C899 C890 1.429 . S
C899 N896 1.350 . S
C899 C898 1.434 . S
C900 C901 1.369 . S
C900 C902 1.419 . S
C900 H904 0.930 . S
C901 C900 1.369 . S
C901 C910 1.429 . S
C902 C900 1.419 . S
C902 C903 1.363 . S
C902 H905 0.929 . S
C903 C902 1.363 . S
C903 C909 1.428 . S
H904 C900 0.930 . S
H905 C902 0.929 . S
S906 N907 1.613 . S
S906 N908 1.610 . S
N907 S906 1.613 . S
N907 C910 1.350 . S
N908 S906 1.610 . S
N908 C909 1.351 . S
C909 C903 1.428 . S
C909 N908 1.351 . S
C909 C910 1.434 . S
C910 C901 1.429 . S
C910 N907 1.350 . S
C910 C909 1.434 . S
C911 C912 1.369 . S
C911 C913 1.419 . S
C911 H915 0.930 . S
C912 C911 1.369 . S
C912 C921 1.429 . S
C913 C911 1.419 . S
C913 C914 1.363 . S
C913 H916 0.929 . S
C914 C913 1.363 . S
C914 C920 1.428 . S
H915 C911 0.930 . S
H916 C913 0.929 . S
S917 N918 1.613 . S
S917 N919 1.610 . S
N918 S917 1.613 . S
N918 C921 1.350 . S
N919 S917 1.610 . S
N919 C920 1.351 . S
C920 C914 1.428 . S
C920 N919 1.351 . S
C920 C921 1.434 . S
C921 C912 1.429 . S
C921 N918 1.350 . S
C921 C920 1.434 . S
C922 C923 1.369 1_554 S
C922 C924 1.419 . S
C922 H926 0.930 . S
C923 C922 1.369 1_556 S
C923 C932 1.429 . S
C924 C922 1.419 . S
C924 C925 1.363 . S
C924 H927 0.929 . S
C925 C924 1.363 . S
C925 C931 1.428 1_554 S
H926 C922 0.930 . S
H927 C924 0.929 . S
S928 N929 1.613 . S
S928 N930 1.610 . S
N929 S928 1.613 . S
N929 C932 1.350 . S
N930 S928 1.610 . S
N930 C931 1.351 . S
C931 C925 1.428 1_556 S
C931 N930 1.351 . S
C931 C932 1.434 . S
C932 C923 1.429 . S
C932 N929 1.350 . S
C932 C931 1.434 . S
C933 C934 1.369 . S
C933 C935 1.419 . S
C933 H937 0.930 . S
C934 C933 1.369 . S
C934 C943 1.429 . S
C935 C933 1.419 . S
C935 C936 1.363 . S
C935 H938 0.929 . S
C936 C935 1.363 . S
C936 C942 1.428 . S
H937 C933 0.930 . S
H938 C935 0.929 . S
S939 N940 1.613 . S
S939 N941 1.610 . S
N940 S939 1.613 . S
N940 C943 1.350 . S
N941 S939 1.610 . S
N941 C942 1.351 . S
C942 C936 1.428 . S
C942 N941 1.351 . S
C942 C943 1.434 . S
C943 C934 1.429 . S
C943 N940 1.350 . S
C943 C942 1.434 . S
C944 C945 1.369 . S
C944 C946 1.419 . S
C944 H948 0.930 . S
C945 C944 1.369 . S
C945 C954 1.429 . S
C946 C944 1.419 . S
C946 C947 1.363 . S
C946 H949 0.929 . S
C947 C946 1.363 . S
C947 C953 1.428 . S
H948 C944 0.930 . S
H949 C946 0.929 . S
S950 N951 1.613 . S
S950 N952 1.610 . S
N951 S950 1.613 . S
N951 C954 1.350 . S
N952 S950 1.610 . S
N952 C953 1.351 . S
C953 C947 1.428 . S
C953 N952 1.351 . S
C953 C954 1.434 . S
C954 C945 1.429 . S
C954 N951 1.350 . S
C954 C953 1.434 . S
C955 C956 1.369 . S
C955 C957 1.419 . S
C955 H959 0.930 . S
C956 C955 1.369 . S
C956 C965 1.429 . S
C957 C955 1.419 . S
C957 C958 1.363 . S
C957 H960 0.929 . S
C958 C957 1.363 . S
C958 C964 1.428 . S
H959 C955 0.930 . S
H960 C957 0.929 . S
S961 N962 1.613 . S
S961 N963 1.610 . S
N962 S961 1.613 . S
N962 C965 1.350 . S
N963 S961 1.610 . S
N963 C964 1.351 . S
C964 C958 1.428 . S
C964 N963 1.351 . S
C964 C965 1.434 . S
C965 C956 1.429 . S
C965 N962 1.350 . S
C965 C964 1.434 . S
C966 C967 1.369 . S
C966 C968 1.419 . S
C966 H970 0.930 . S
C967 C966 1.369 . S
C967 C976 1.429 . S
C968 C966 1.419 . S
C968 C969 1.363 . S
C968 H971 0.929 . S
C969 C968 1.363 . S
C969 C975 1.428 . S
H970 C966 0.930 . S
H971 C968 0.929 . S
S972 N973 1.613 . S
S972 N974 1.610 . S
N973 S972 1.613 . S
N973 C976 1.350 . S
N974 S972 1.610 . S
N974 C975 1.351 . S
C975 C969 1.428 . S
C975 N974 1.351 . S
C975 C976 1.434 . S
C976 C967 1.429 . S
C976 N973 1.350 . S
C976 C975 1.434 . S
C977 C978 1.369 . S
C977 C979 1.419 . S
C977 H981 0.930 . S
C978 C977 1.369 . S
C978 C987 1.429 . S
C979 C977 1.419 . S
C979 C980 1.363 . S
C979 H982 0.929 . S
C980 C979 1.363 . S
C980 C986 1.428 . S
H981 C977 0.930 . S
H982 C979 0.929 . S
S983 N984 1.613 . S
S983 N985 1.610 . S
N984 S983 1.613 . S
N984 C987 1.350 . S
N985 S983 1.610 . S
N985 C986 1.351 . S
C986 C980 1.428 . S
C986 N985 1.351 . S
C986 C987 1.434 . S
C987 C978 1.429 . S
C987 N984 1.350 . S
C987 C986 1.434 . S
C988 C989 1.369 . S
C988 C990 1.419 . S
C988 H992 0.930 . S
C989 C988 1.369 . S
C989 C998 1.429 . S
C990 C988 1.419 . S
C990 C991 1.363 . S
C990 H993 0.929 . S
C991 C990 1.363 . S
C991 C997 1.428 . S
H992 C988 0.930 . S
H993 C990 0.929 . S
S994 N995 1.613 . S
S994 N996 1.610 . S
N995 S994 1.613 . S
N995 C998 1.350 . S
N996 S994 1.610 . S
N996 C997 1.351 . S
C997 C991 1.428 . S
C997 N996 1.351 . S
C997 C998 1.434 . S
C998 C989 1.429 . S
C998 N995 1.350 . S
C998 C997 1.434 . S
C999 C1000 1.369 . S
C999 C1001 1.419 . S
C999 H1003 0.930 . S
C1000 C999 1.369 . S
C1000 C1009 1.429 . S
C1001 C999 1.419 . S
C1001 C1002 1.363 . S
C1001 H1004 0.929 . S
C1002 C1001 1.363 . S
C1002 C1008 1.428 . S
H1003 C999 0.930 . S
H1004 C1001 0.929 . S
S1005 N1006 1.613 . S
S1005 N1007 1.610 . S
N1006 S1005 1.613 . S
N1006 C1009 1.350 . S
N1007 S1005 1.610 . S
N1007 C1008 1.351 . S
C1008 C1002 1.428 . S
C1008 N1007 1.351 . S
C1008 C1009 1.434 . S
C1009 C1000 1.429 . S
C1009 N1006 1.350 . S
C1009 C1008 1.434 . S
C1010 C1011 1.369 . S
C1010 C1012 1.419 . S
C1010 H1014 0.930 . S
C1011 C1010 1.369 . S
C1011 C1020 1.429 . S
C1012 C1010 1.419 . S
C1012 C1013 1.363 . S
C1012 H1015 0.929 . S
C1013 C1012 1.363 . S
C1013 C1019 1.428 . S
H1014 C1010 0.930 . S
H1015 C1012 0.929 . S
S1016 N1017 1.613 . S
S1016 N1018 1.610 . S
N1017 S1016 1.613 . S
N1017 C1020 1.350 . S
N1018 S1016 1.610 . S
N1018 C1019 1.351 . S
C1019 C1013 1.428 . S
C1019 N1018 1.351 . S
C1019 C1020 1.434 . S
C1020 C1011 1.429 . S
C1020 N1017 1.350 . S
C1020 C1019 1.434 . S
C1021 C1022 1.369 . S
C1021 C1023 1.419 . S
C1021 H1025 0.930 . S
C1022 C1021 1.369 . S
C1022 C1031 1.429 . S
C1023 C1021 1.419 . S
C1023 C1024 1.363 . S
C1023 H1026 0.929 . S
C1024 C1023 1.363 . S
C1024 C1030 1.428 . S
H1025 C1021 0.930 . S
H1026 C1023 0.929 . S
S1027 N1028 1.613 . S
S1027 N1029 1.610 . S
N1028 S1027 1.613 . S
N1028 C1031 1.350 . S
N1029 S1027 1.610 . S
N1029 C1030 1.351 . S
C1030 C1024 1.428 . S
C1030 N1029 1.351 . S
C1030 C1031 1.434 . S
C1031 C1022 1.429 . S
C1031 N1028 1.350 . S
C1031 C1030 1.434 . S
C1032 C1033 1.369 . S
C1032 C1034 1.419 . S
C1032 H1036 0.930 . S
C1033 C1032 1.369 . S
C1033 C1042 1.429 . S
C1034 C1032 1.419 . S
C1034 C1035 1.363 . S
C1034 H1037 0.929 . S
C1035 C1034 1.363 . S
C1035 C1041 1.428 . S
H1036 C1032 0.930 . S
H1037 C1034 0.929 . S
S1038 N1039 1.613 . S
S1038 N1040 1.610 . S
N1039 S1038 1.613 . S
N1039 C1042 1.350 . S
N1040 S1038 1.610 . S
N1040 C1041 1.351 . S
C1041 C1035 1.428 . S
C1041 N1040 1.351 . S
C1041 C1042 1.434 . S
C1042 C1033 1.429 . S
C1042 N1039 1.350 . S
C1042 C1041 1.434 . S
C1043 C1044 1.369 . S
C1043 C1045 1.419 . S
C1043 H1047 0.930 . S
C1044 C1043 1.369 . S
C1044 C1053 1.429 . S
C1045 C1043 1.419 . S
C1045 C1046 1.363 . S
C1045 H1048 0.929 . S
C1046 C1045 1.363 . S
C1046 C1052 1.428 . S
H1047 C1043 0.930 . S
H1048 C1045 0.929 . S
S1049 N1050 1.613 . S
S1049 N1051 1.610 . S
N1050 S1049 1.613 . S
N1050 C1053 1.350 . S
N1051 S1049 1.610 . S
N1051 C1052 1.351 . S
C1052 C1046 1.428 . S
C1052 N1051 1.351 . S
C1052 C1053 1.434 . S
C1053 C1044 1.429 . S
C1053 N1050 1.350 . S
C1053 C1052 1.434 . S
C1054 C1055 1.369 . S
C1054 C1056 1.419 . S
C1054 H1058 0.930 . S
C1055 C1054 1.369 . S
C1055 C1064 1.429 . S
C1056 C1054 1.419 . S
C1056 C1057 1.363 . S
C1056 H1059 0.929 . S
C1057 C1056 1.363 . S
C1057 C1063 1.428 . S
H1058 C1054 0.930 . S
H1059 C1056 0.929 . S
S1060 N1061 1.613 . S
S1060 N1062 1.610 . S
N1061 S1060 1.613 . S
N1061 C1064 1.350 . S
N1062 S1060 1.610 . S
N1062 C1063 1.351 . S
C1063 C1057 1.428 . S
C1063 N1062 1.351 . S
C1063 C1064 1.434 . S
C1064 C1055 1.429 . S
C1064 N1061 1.350 . S
C1064 C1063 1.434 . S
C1065 C1066 1.369 . S
C1065 C1067 1.419 . S
C1065 H1069 0.930 . S
C1066 C1065 1.369 . S
C1066 C1075 1.429 . S
C1067 C1065 1.419 . S
C1067 C1068 1.363 . S
C1067 H1070 0.929 . S
C1068 C1067 1.363 . S
C1068 C1074 1.428 . S
H1069 C1065 0.930 . S
H1070 C1067 0.929 . S
S1071 N1072 1.613 . S
S1071 N1073 1.610 . S
N1072 S1071 1.613 . S
N1072 C1075 1.350 . S
N1073 S1071 1.610 . S
N1073 C1074 1.351 . S
C1074 C1068 1.428 . S
C1074 N1073 1.351 . S
C1074 C1075 1.434 . S
C1075 C1066 1.429 . S
C1075 N1072 1.350 . S
C1075 C1074 1.434 . S
C1076 C1077 1.369 . S
C1076 C1078 1.419 . S
C1076 H1080 0.930 . S
C1077 C1076 1.369 . S
C1077 C1086 1.429 . S
C1078 C1076 1.419 . S
C1078 C1079 1.363 . S
C1078 H1081 0.929 . S
C1079 C1078 1.363 . S
C1079 C1085 1.428 . S
H1080 C1076 0.930 . S
H1081 C1078 0.929 . S
S1082 N1083 1.613 . S
S1082 N1084 1.610 . S
N1083 S1082 1.613 . S
N1083 C1086 1.350 . S
N1084 S1082 1.610 . S
N1084 C1085 1.351 . S
C1085 C1079 1.428 . S
C1085 N1084 1.351 . S
C1085 C1086 1.434 . S
C1086 C1077 1.429 . S
C1086 N1083 1.350 . S
C1086 C1085 1.434 . S
C1087 C1088 1.369 . S
C1087 C1089 1.419 . S
C1087 H1091 0.930 . S
C1088 C1087 1.369 . S
C1088 C1097 1.429 . S
C1089 C1087 1.419 . S
C1089 C1090 1.363 . S
C1089 H1092 0.929 . S
C1090 C1089 1.363 . S
C1090 C1096 1.428 . S
H1091 C1087 0.930 . S
H1092 C1089 0.929 . S
S1093 N1094 1.613 . S
S1093 N1095 1.610 . S
N1094 S1093 1.613 . S
N1094 C1097 1.350 . S
N1095 S1093 1.610 . S
N1095 C1096 1.351 . S
C1096 C1090 1.428 . S
C1096 N1095 1.351 . S
C1096 C1097 1.434 . S
C1097 C1088 1.429 . S
C1097 N1094 1.350 . S
C1097 C1096 1.434 . S
C1098 C1099 1.369 . S
C1098 C1100 1.419 . S
C1098 H1102 0.930 . S
C1099 C1098 1.369 . S
C1099 C1108 1.429 . S
C1100 C1098 1.419 . S
C1100 C1101 1.363 . S
C1100 H1103 0.929 . S
C1101 C1100 1.363 . S
C1101 C1107 1.428 . S
H1102 C1098 0.930 . S
H1103 C1100 0.929 . S
S1104 N1105 1.613 . S
S1104 N1106 1.610 . S
N1105 S1104 1.613 . S
N1105 C1108 1.350 . S
N1106 S1104 1.610 . S
N1106 C1107 1.351 . S
C1107 C1101 1.428 . S
C1107 N1106 1.351 . S
C1107 C1108 1.434 . S
C1108 C1099 1.429 . S
C1108 N1105 1.350 . S
C1108 C1107 1.434 . S
C1109 C1110 1.369 . S
C1109 C1111 1.419 . S
C1109 H1113 0.930 . S
C1110 C1109 1.369 . S
C1110 C1119 1.429 . S
C1111 C1109 1.419 . S
C1111 C1112 1.363 . S
C1111 H1114 0.929 . S
C1112 C1111 1.363 . S
C1112 C1118 1.428 . S
H1113 C1109 0.930 . S
H1114 C1111 0.929 . S
S1115 N1116 1.613 . S
S1115 N1117 1.610 . S
N1116 S1115 1.613 . S
N1116 C1119 1.350 . S
N1117 S1115 1.610 . S
N1117 C1118 1.351 . S
C1118 C1112 1.428 . S
C1118 N1117 1.351 . S
C1118 C1119 1.434 . S
C1119 C1110 1.429 . S
C1119 N1116 1.350 . S
C1119 C1118 1.434 . S
C417 C112 1.620 . S
C419 C8 1.615 . S
C428 C333 1.613 . S
C430 C21 1.621 . S
C439 C138 1.613 . S
C441 C34 1.620 . S
C450 C359 1.622 . S
C452 C47 1.614 . S
C461 C164 1.613 . S
C463 C60 1.620 . S
C472 C73 1.620 . S
C474 C385 1.615 . S
C483 C86 1.614 . S
C485 C190 1.620 . S
C494 C99 1.619 . S
C496 C411 1.616 . S
C505 C229 1.615 . S
C507 C125 1.620 . S
C516 C255 1.620 . S
C518 C151 1.615 . S
C527 C177 1.613 . S
C529 C281 1.620 . S
C538 C203 1.613 . S
C540 C307 1.620 . S
C549 C216 1.615 . S
C551 C320 1.619 . S
C560 C346 1.619 . S
C562 C242 1.615 . S
C571 C268 1.622 . S
C573 C372 1.614 . S
C582 C398 1.617 . S
C584 C294 1.617 . S
C593 C239 1.262 . S
C595 C5 1.264 . S
C604 C252 1.264 . S
C606 C18 1.264 . S
C615 C31 1.255 . S
C617 C213 1.258 . S
C626 C44 1.264 . S
C628 C226 1.261 . S
C637 C291 1.265 . S
C639 C57 1.261 . S
C648 C70 1.257 . S
C650 C304 1.261 . S
C659 C265 1.257 . S
C661 C83 1.256 . S
C670 C278 1.255 . S
C672 C96 1.259 . S
C681 C109 1.263 . S
C683 C343 1.260 . S
C692 C356 1.265 . S
C694 C122 1.262 . S
C703 C135 1.256 . S
C705 C317 1.257 . S
C714 C148 1.255 . S
C716 C330 1.257 . S
C725 C161 1.258 . S
C727 C395 1.257 . S
C736 C174 1.261 . S
C738 C408 1.258 . S
C747 C369 1.257 . S
C749 C187 1.256 . S
C758 C382 1.265 . S
C760 C200 1.264 . S
C769 C78 1.284 . S
C771 C0 1.293 . S
C780 C91 1.287 . S
C782 C13 1.291 . S
C791 C52 1.295 . S
C793 C26 1.285 . S
C802 C39 1.294 . S
C804 C65 1.285 . S
C813 C182 1.295 . S
C815 C104 1.285 . S
C824 C195 1.294 . S
C826 C117 1.285 . S
C835 C156 1.292 . S
C837 C130 1.287 . S
C846 C169 1.294 . S
C848 C143 1.285 . S
C857 C286 1.284 . S
C859 C208 1.293 . S
C868 C299 1.283 . S
C870 C221 1.293 . S
C879 C234 1.284 . S
C881 C260 1.293 . S
C890 C247 1.294 . S
C892 C273 1.285 . S
C901 C390 1.284 . S
C903 C312 1.293 . S
C912 C403 1.292 . S
C914 C325 1.286 . S
C923 C338 1.284 . S
C925 C364 1.293 . S
C934 C351 1.286 . S
C936 C377 1.291 . S
C945 C10 1.535 . S
C947 C283 1.534 . S
C956 C296 1.534 . S
C958 C23 1.533 . S
C967 C309 1.533 . S
C969 C36 1.534 . S
C978 C49 1.534 . S
C980 C270 1.534 . S
C989 C257 1.534 . S
C991 C62 1.533 . S
C1000 C75 1.534 . S
C1002 C218 1.534 . S
C1011 C231 1.533 . S
C1013 C88 1.534 . S
C1022 C101 1.535 . S
C1024 C244 1.534 . S
C1033 C387 1.534 . S
C1035 C114 1.533 . S
C1044 C400 1.533 . S
C1046 C127 1.534 . S
C1055 C140 1.533 . S
C1057 C413 1.534 . S
C1066 C374 1.535 . S
C1068 C153 1.534 . S
C1077 C361 1.535 . S
C1079 C166 1.534 . S
C1088 C179 1.534 . S
C1090 C322 1.533 . S
C1099 C335 1.534 . S
C1101 C192 1.533 . S
C1110 C205 1.534 . S
C1112 C348 1.535 . S
