# Generated by pormake.
# Topology unf, (4)-cn, num edge types: 1
# Building blocks:
#     Node 0, Type 0, BuildingBlock: GALJAG_clean_sbu_0, # of connection points: 4
#     Node 1, Type 0, BuildingBlock: GALJAG_clean_sbu_0, # of connection points: 4
#     Node 2, Type 0, BuildingBlock: GALJAG_clean_sbu_0, # of connection points: 4
#     Node 3, Type 0, BuildingBlock: GALJAG_clean_sbu_0, # of connection points: 4
#     Node 4, Type 0, BuildingBlock: GALJAG_clean_sbu_0, # of connection points: 4
#     Node 5, Type 0, BuildingBlock: GALJAG_clean_sbu_0, # of connection points: 4
#     Node 6, Type 0, BuildingBlock: GALJAG_clean_sbu_0, # of connection points: 4
#     Node 7, Type 0, BuildingBlock: GALJAG_clean_sbu_0, # of connection points: 4
#     Node 8, Type 0, BuildingBlock: GALJAG_clean_sbu_0, # of connection points: 4
#     Node 9, Type 0, BuildingBlock: GALJAG_clean_sbu_0, # of connection points: 4
#     Node 10, Type 0, BuildingBlock: GALJAG_clean_sbu_0, # of connection points: 4
#     Node 11, Type 0, BuildingBlock: GALJAG_clean_sbu_0, # of connection points: 4
#     Edge 12, Type (0, 0), BuildingBlock: CIFDUS_clean_linker_0, # of connection points: 2
#     Edge 13, Type (0, 0), BuildingBlock: CIFDUS_clean_linker_0, # of connection points: 2
#     Edge 14, Type (0, 0), BuildingBlock: CIFDUS_clean_linker_0, # of connection points: 2
#     Edge 15, Type (0, 0), BuildingBlock: CIFDUS_clean_linker_0, # of connection points: 2
#     Edge 16, Type (0, 0), BuildingBlock: CIFDUS_clean_linker_0, # of connection points: 2
#     Edge 17, Type (0, 0), BuildingBlock: CIFDUS_clean_linker_0, # of connection points: 2
#     Edge 18, Type (0, 0), BuildingBlock: CIFDUS_clean_linker_0, # of connection points: 2
#     Edge 19, Type (0, 0), BuildingBlock: CIFDUS_clean_linker_0, # of connection points: 2
#     Edge 20, Type (0, 0), BuildingBlock: CIFDUS_clean_linker_0, # of connection points: 2
#     Edge 21, Type (0, 0), BuildingBlock: CIFDUS_clean_linker_0, # of connection points: 2
#     Edge 22, Type (0, 0), BuildingBlock: CIFDUS_clean_linker_0, # of connection points: 2
#     Edge 23, Type (0, 0), BuildingBlock: CIFDUS_clean_linker_0, # of connection points: 2
#     Edge 24, Type (0, 0), BuildingBlock: CIFDUS_clean_linker_0, # of connection points: 2
#     Edge 25, Type (0, 0), BuildingBlock: CIFDUS_clean_linker_0, # of connection points: 2
#     Edge 26, Type (0, 0), BuildingBlock: CIFDUS_clean_linker_0, # of connection points: 2
#     Edge 27, Type (0, 0), BuildingBlock: CIFDUS_clean_linker_0, # of connection points: 2
#     Edge 28, Type (0, 0), BuildingBlock: CIFDUS_clean_linker_0, # of connection points: 2
#     Edge 29, Type (0, 0), BuildingBlock: CIFDUS_clean_linker_0, # of connection points: 2
#     Edge 30, Type (0, 0), BuildingBlock: CIFDUS_clean_linker_0, # of connection points: 2
#     Edge 31, Type (0, 0), BuildingBlock: CIFDUS_clean_linker_0, # of connection points: 2
#     Edge 32, Type (0, 0), BuildingBlock: CIFDUS_clean_linker_0, # of connection points: 2
#     Edge 33, Type (0, 0), BuildingBlock: CIFDUS_clean_linker_0, # of connection points: 2
#     Edge 34, Type (0, 0), BuildingBlock: CIFDUS_clean_linker_0, # of connection points: 2
#     Edge 35, Type (0, 0), BuildingBlock: CIFDUS_clean_linker_0, # of connection points: 2
# Relax obj value: 0.104
# Max RMSD: 0.121
# Mean RMSD: 0.121
data_MOF--net-unf--node1-GALJAG_clean_sbu_0--edge1-CIFDUS_clean_linker_0
_symmetry_space_group_name_H-M    P1
_symmetry_Int_Tables_number       1
_symmetry_cell_setting            triclinic
loop_
_symmetry_equiv_pos_as_xyz
'x, y, z'
_cell_length_a     34.789084
_cell_length_b     34.939995
_cell_length_c     30.665193
_cell_angle_alpha  90.226057
_cell_angle_beta   90.135056
_cell_angle_gamma 119.89071
loop_
_atom_site_label
_atom_site_type_symbol
_atom_site_fract_x
_atom_site_fract_y
_atom_site_fract_z
_atom_type_partial_charge
In0 In 0.06256 0.35936 0.09076 0.0
O1 O 0.0691 0.33353 0.15717 0.0
O2 O 0.12062 0.39669 0.13862 0.0
C3 C 0.97934 0.28992 0.0848 0.0
C4 C 0.11591 0.34857 0.03442 0.0
C5 C 0.04383 0.42282 0.06717 0.0
O6 O 0.98859 0.32283 0.10887 0.0
O7 O 0.01198 0.2918 0.06517 0.0
O8 O 0.0478 0.39786 0.03993 0.0
O9 O 0.05103 0.41697 0.10629 0.0
C10 C 0.10637 0.36628 0.16644 0.0
O11 O 0.1204 0.38616 0.04217 0.0
O12 O 0.08457 0.31724 0.0545 0.0
In13 In 0.59802 0.68356 0.05467 0.0
O14 O 0.62934 0.74016 0.1038 0.0
O15 O 0.56522 0.6873 0.11841 0.0
C16 C 0.66014 0.65974 0.04317 0.0
C17 C 0.60606 0.74336 0.99495 0.0
C18 C 0.5282 0.60289 0.03974 0.0
O19 O 0.6572 0.67667 0.07861 0.0
O20 O 0.6332 0.65655 0.01397 0.0
O21 O 0.53567 0.63616 0.01742 0.0
O22 O 0.55412 0.61103 0.07178 0.0
C23 C 0.59682 0.72472 0.12938 0.0
O24 O 0.56982 0.71792 0.01347 0.0
O25 O 0.63808 0.73819 0.00617 0.0
In26 In 0.30165 0.91503 0.08554 0.0
O27 O 0.26219 0.8681 0.02948 0.0
O28 O 0.24165 0.91225 0.05323 0.0
C29 C 0.37891 0.92729 0.05317 0.0
C30 C 0.27082 0.85965 0.15428 0.0
C31 C 0.31925 -0.00134 0.0995 0.0
O32 O 0.35032 0.9302 0.03022 0.0
O33 O 0.3674 0.91548 0.09211 0.0
O34 O 0.34731 0.98927 0.08489 0.0
O35 O 0.2826 0.96562 0.10957 0.0
C36 C 0.23437 0.88128 0.02728 0.0
O37 O 0.29858 0.9002 0.15879 0.0
O38 O 0.26034 0.84704 0.1154 0.0
In39 In 0.63005 0.9389 0.39272 0.0
O40 O 0.60015 0.88176 0.44134 0.0
O41 O 0.67021 0.91812 0.43424 0.0
C42 C 0.56894 0.95994 0.4195 0.0
C43 C 0.62086 0.89536 0.31624 0.0
C44 C 0.7031 0.0195 0.39767 0.0
O45 O 0.59473 0.9555 0.44521 0.0
O46 O 0.57298 0.95256 0.37986 0.0
O47 O 0.70244 0.98466 0.40944 0.0
O48 O 0.66716 0.01362 0.38139 0.0
C49 C 0.63736 0.88718 0.45315 0.0
O50 O 0.65078 0.93473 0.32279 0.0
O51 O 0.59428 0.87849 0.34746 0.0
In52 In 0.05781 0.68064 0.40949 0.0
O53 O 0.06224 0.69153 0.3358 0.0
O54 O 0.12042 0.70312 0.37033 0.0
C55 C 0.97868 0.67036 0.43212 0.0
C56 C 0.10823 0.75879 0.4489 0.0
C57 C 0.0431 0.59998 0.43129 0.0
O58 O 0.98798 0.66895 0.39246 0.0
O59 O 0.00869 0.6763 0.45885 0.0
O60 O 0.06247 0.63292 0.45644 0.0
O61 O 0.03319 0.60814 0.39423 0.0
C62 C 0.10325 0.70425 0.33442 0.0
O63 O 0.1121 0.72543 0.4575 0.0
O64 O 0.07928 0.75245 0.42046 0.0
In65 In 0.3203 0.3917 0.42625 0.0
O66 O 0.27722 0.36237 0.3657 0.0
O67 O 0.30745 0.43167 0.37459 0.0
C68 C 0.35321 0.3369 0.43472 0.0
C69 C 0.25107 0.36253 0.48143 0.0
C70 C 0.39797 0.46367 0.44608 0.0
O71 O 0.3352 0.33879 0.39955 0.0
O72 O 0.35417 0.36207 0.46466 0.0
O73 O 0.36486 0.4482 0.47115 0.0
O74 O 0.39086 0.44477 0.40925 0.0
C75 C 0.28155 0.39827 0.35208 0.0
O76 O 0.27577 0.40302 0.47337 0.0
O77 O 0.26177 0.33736 0.46224 0.0
In78 In 0.92359 0.62696 0.93949 0.0
O79 O 0.8541 0.5938 0.9677 0.0
O80 O 0.90282 0.65333 0.99777 0.0
C81 C 0.9444 0.56543 0.96506 0.0
C82 C 0.87932 0.62483 0.866 0.0
C83 C 0.00588 0.69763 0.93307 0.0
O84 O 0.94221 0.59209 0.99143 0.0
O85 O 0.93443 0.5687 0.9262 0.0
O86 O 0.99386 0.66254 0.91168 0.0
O87 O 0.976 0.69754 0.9563 0.0
C88 C 0.86266 0.62337 0.99598 0.0
O89 O 0.89981 0.65885 0.88954 0.0
O90 O 0.88304 0.59235 0.87814 0.0
In91 In 0.35353 0.27051 0.93069 0.0
O92 O 0.32652 0.22413 0.87172 0.0
O93 O 0.39454 0.27257 0.87105 0.0
C94 C 0.27777 0.27366 0.93558 0.0
C95 C 0.36211 0.21675 0.98746 0.0
C96 C 0.4079 0.35193 0.96317 0.0
O97 O 0.31257 0.304 0.9186 0.0
O98 O 0.28054 0.24077 0.94817 0.0
O99 O 0.39621 0.3173 0.98482 0.0
O100 O 0.39384 0.34556 0.92432 0.0
C101 C 0.36294 0.24001 0.85199 0.0
O102 O 0.39252 0.24106 0.96134 0.0
O103 O 0.3275 0.21979 0.98503 0.0
In104 In 0.69747 0.06038 0.91236 0.0
O105 O 0.70082 0.06931 0.83798 0.0
O106 O 0.73573 0.12636 0.87752 0.0
C107 C 0.68385 0.97801 0.89959 0.0
C108 C 0.76315 0.10131 0.97162 0.0
C109 C 0.61939 0.04401 0.94658 0.0
O110 O 0.65284 0.98676 0.90007 0.0
O111 O 0.7221 0.01122 0.9034 0.0
O112 O 0.6468 0.03703 0.96698 0.0
O113 O 0.63244 0.06168 0.90967 0.0
C114 C 0.72632 0.1105 0.83958 0.0
O115 O 0.73276 0.11086 0.96728 0.0
O116 O 0.75936 0.07051 0.94714 0.0
In117 In 0.36039 0.06591 0.56415 0.0
O118 O 0.39334 0.13622 0.5383 0.0
O119 O 0.33288 0.0885 0.50869 0.0
C120 C 0.42449 0.04896 0.53771 0.0
C121 C 0.35412 0.0986 0.64264 0.0
C122 C 0.29153 0.98331 0.55685 0.0
O123 O 0.40041 0.05565 0.51173 0.0
O124 O 0.41751 0.05243 0.57756 0.0
O125 O 0.29215 0.01613 0.53906 0.0
O126 O 0.32516 0.99237 0.57998 0.0
C127 C 0.36382 0.12808 0.50998 0.0
O128 O 0.32103 0.06956 0.6219 0.0
O129 O 0.39088 0.11029 0.62463 0.0
In130 In 0.93769 0.29073 0.57974 0.0
O131 O 0.88917 0.25762 0.52337 0.0
O132 O 0.92129 0.22465 0.55021 0.0
C133 C 0.94976 0.36758 0.54779 0.0
C134 C 0.88905 0.26062 0.65342 0.0
C135 C 0.02345 0.3114 0.58478 0.0
O136 O 0.95267 0.33932 0.52447 0.0
O137 O 0.93855 0.3561 0.58679 0.0
O138 O 0.01024 0.33719 0.59748 0.0
O139 O 0.99308 0.27432 0.57152 0.0
C140 C 0.89409 0.22413 0.52253 0.0
O141 O 0.93071 0.27868 0.65348 0.0
O142 O 0.87208 0.25849 0.61661 0.0
In143 In 0.70892 0.66316 0.60178 0.0
O144 O 0.72637 0.6819 0.67343 0.0
O145 O 0.72014 0.6213 0.65159 0.0
C146 C 0.70603 0.73766 0.58608 0.0
C147 C 0.7795 0.66888 0.56038 0.0
C148 C 0.62833 0.60272 0.57132 0.0
O149 O 0.67698 0.70661 0.60849 0.0
O150 O 0.737 0.73177 0.57324 0.0
O151 O 0.66107 0.62434 0.54661 0.0
O152 O 0.63689 0.60986 0.61157 0.0
C153 C 0.73029 0.64876 0.68242 0.0
O154 O 0.74044 0.63988 0.54984 0.0
O155 O 0.78225 0.69457 0.59073 0.0
H156 H 0.11072 0.27064 0.01537 0.0
H157 H 0.19013 0.41056 0.99209 0.0
H158 H 0.24515 0.3987 0.95396 0.0
H159 H 0.27397 0.34933 0.93419 0.0
H160 H 0.19593 0.21011 0.96165 0.0
H161 H 0.13662 0.22083 0.9907 0.0
C162 C 0.13981 0.29854 0.00151 0.0
C163 C 0.14661 0.34147 0.00688 0.0
C164 C 0.17153 0.29155 0.9805 0.0
C165 C 0.18429 0.37722 0.98854 0.0
C166 C 0.21576 0.37045 0.96684 0.0
C167 C 0.24359 0.32123 0.94573 0.0
C168 C 0.23931 0.279 0.94596 0.0
C169 C 0.21021 0.32787 0.96357 0.0
C170 C 0.19998 0.24292 0.96128 0.0
C171 C 0.16617 0.24907 0.97804 0.0
H172 H 0.68227 0.80658 0.95856 0.0
H173 H 0.54231 0.76144 0.96743 0.0
H174 H 0.55347 0.82812 0.93082 0.0
H175 H 0.60431 0.90346 0.90661 0.0
H176 H 0.74488 0.95067 0.90203 0.0
H177 H 0.73208 0.87854 0.92565 0.0
C178 C 0.65412 0.81099 0.95175 0.0
C179 C 0.61167 0.77956 0.96627 0.0
C180 C 0.66094 0.84986 0.93165 0.0
C181 C 0.5754 0.78545 0.95696 0.0
C182 C 0.58176 0.82359 0.93611 0.0
C183 C 0.63205 0.89765 0.90976 0.0
C184 C 0.67551 0.93243 0.9032 0.0
C185 C 0.62459 0.85669 0.9248 0.0
C186 C 0.71112 0.92443 0.90722 0.0
C187 C 0.70385 0.8833 0.92099 0.0
H188 H 0.20938 0.81253 0.97063 0.0
H189 H 0.16579 0.89765 0.02732 0.0
H190 H 0.09153 0.85067 0.99786 0.0
H191 H 0.03671 0.78004 0.96529 0.0
H192 H 0.07954 0.69449 0.9085 0.0
H193 H 0.15641 0.74731 0.92798 0.0
C194 C 0.18384 0.82124 0.97573 0.0
C195 C 0.19284 0.85803 0.00175 0.0
C196 C 0.14096 0.7938 0.95902 0.0
C197 C 0.15961 0.86925 0.00773 0.0
C198 C 0.11703 0.84231 0.99105 0.0
C199 C 0.06302 0.77341 0.95642 0.0
C200 C 0.05252 0.73323 0.93616 0.0
C201 C 0.10696 0.80366 0.96808 0.0
C202 C 0.08686 0.72519 0.9243 0.0
C203 C 0.13077 0.75524 0.93567 0.0
H204 H 0.62986 0.74018 0.57678 0.0
H205 H 0.77128 0.81698 0.55789 0.0
H206 H 0.76242 0.87257 0.5182 0.0
H207 H 0.71413 0.89478 0.48204 0.0
H208 H 0.57222 0.8161 0.49639 0.0
H209 H 0.58151 0.76569 0.54482 0.0
C210 C 0.65874 0.76965 0.56484 0.0
C211 C 0.70114 0.77464 0.57009 0.0
C212 C 0.65322 0.80062 0.54065 0.0
C213 C 0.73833 0.81255 0.55408 0.0
C214 C 0.73326 0.84416 0.53122 0.0
C215 C 0.68521 0.86682 0.49606 0.0
C216 C 0.64255 0.8588 0.48531 0.0
C217 C 0.69079 0.83778 0.52313 0.0
C218 C 0.60541 0.8227 0.50397 0.0
C219 C 0.61071 0.79392 0.53163 0.0
H220 H 0.17273 0.78157 0.51049 0.0
H221 H 0.10575 0.83394 0.43329 0.0
H222 H 0.1541 0.90742 0.46323 0.0
H223 H 0.21839 0.95765 0.50724 0.0
H224 H 0.28699 0.90661 0.58365 0.0
H225 H 0.23457 0.83164 0.5587 0.0
C226 C 0.1686 0.80905 0.50049 0.0
C227 C 0.13604 0.80243 0.46942 0.0
C228 C 0.19672 0.85141 0.51771 0.0
C229 C 0.13079 0.83823 0.45694 0.0
C230 C 0.15839 0.88028 0.47405 0.0
C231 C 0.22157 0.93007 0.51889 0.0
C232 C 0.25661 0.93763 0.547 0.0
C233 C 0.19188 0.88736 0.50389 0.0
C234 C 0.26024 0.90158 0.56194 0.0
C235 C 0.23044 0.85877 0.54751 0.0
H236 H 0.0592 0.2618 0.55868 0.0
H237 H 0.09379 0.39435 0.59614 0.0
H238 H 0.16961 0.4218 0.57104 0.0
H239 H 0.223 0.40935 0.52968 0.0
H240 H 0.18776 0.27667 0.49182 0.0
H241 H 0.11547 0.24808 0.52607 0.0
C242 C 0.08359 0.29654 0.56215 0.0
C243 C 0.07083 0.32608 0.57864 0.0
C244 C 0.12687 0.31219 0.54703 0.0
C245 C 0.10279 0.37096 0.58334 0.0
C246 C 0.14608 0.38674 0.56873 0.0
C247 C 0.1997 0.37414 0.52952 0.0
C248 C 0.21037 0.34527 0.50768 0.0
C249 C 0.15802 0.35789 0.54909 0.0
C250 C 0.18016 0.29965 0.50813 0.0
C251 C 0.13876 0.28324 0.52763 0.0
H252 H 0.7405 0.68748 0.08226 0.0
H253 H 0.64914 0.59513 0.98754 0.0
H254 H 0.70162 0.57048 0.96993 0.0
H255 H 0.77575 0.5803 0.97576 0.0
H256 H 0.87095 0.67746 0.06458 0.0
H257 H 0.81464 0.69449 0.09092 0.0
C258 C 0.73208 0.66163 0.0582 0.0
C259 C 0.69131 0.64338 0.03593 0.0
C260 C 0.76309 0.64848 0.04721 0.0
C261 C 0.68064 0.61003 0.00467 0.0
C262 C 0.71053 0.5958 0.99468 0.0
C263 C 0.78396 0.60449 0.0016 0.0
C264 C 0.82735 0.62754 0.01826 0.0
C265 C 0.75219 0.61549 0.01498 0.0
C266 C 0.83764 0.65921 0.05133 0.0
C267 C 0.80556 0.66916 0.06615 0.0
H268 H 0.2999 0.15932 0.04336 0.0
H269 H 0.43193 0.20254 0.99588 0.0
H270 H 0.4333 0.14231 0.03453 0.0
H271 H 0.39288 0.07166 0.07211 0.0
H272 H 0.25917 0.02563 0.11594 0.0
H273 H 0.26306 0.09343 0.08961 0.0
C274 C 0.32923 0.15594 0.04207 0.0
C275 C 0.36543 0.18476 0.01618 0.0
C276 C 0.32945 0.12074 0.06368 0.0
C277 C 0.40342 0.1804 0.01517 0.0
C278 C 0.40424 0.14597 0.03724 0.0
C279 C 0.36495 0.07692 0.07689 0.0
C280 C 0.32554 0.04345 0.09526 0.0
C281 C 0.36683 0.11507 0.06022 0.0
C282 C 0.28979 0.05085 0.10162 0.0
C283 C 0.29186 0.08942 0.08622 0.0
H284 H 0.95472 0.21001 0.05005 0.0
H285 H 0.90187 0.29024 0.09875 0.0
H286 H 0.82806 0.23615 0.07145 0.0
H287 H 0.78095 0.17032 0.02606 0.0
H288 H 0.83519 0.09089 0.97791 0.0
H289 H 0.90592 0.14018 0.01299 0.0
C290 C 0.92687 0.21529 0.05531 0.0
C291 C 0.93368 0.25418 0.07587 0.0
C292 C 0.88488 0.18438 0.03927 0.0
C293 C 0.89734 0.26048 0.08295 0.0
C294 C 0.85524 0.22972 0.06709 0.0
C295 C 0.80805 0.16346 0.02391 0.0
C296 C 0.803 0.12735 0.99894 0.0
C297 C 0.84893 0.19218 0.04404 0.0
C298 C 0.83827 0.11863 0.99668 0.0
C299 C 0.87882 0.14686 0.01663 0.0
H300 H 0.41734 0.21619 0.51879 0.0
H301 H 0.30822 0.11782 0.44239 0.0
H302 H 0.30003 0.1756 0.40614 0.0
H303 H 0.31756 0.25325 0.40362 0.0
H304 H 0.42216 0.34988 0.48543 0.0
H305 H 0.43912 0.29398 0.51152 0.0
C306 C 0.39229 0.20747 0.49365 0.0
C307 C 0.36315 0.16291 0.48356 0.0
C308 C 0.38689 0.24065 0.47405 0.0
C309 C 0.33081 0.15199 0.45095 0.0
C310 C 0.32608 0.18498 0.43026 0.0
C311 C 0.34477 0.26209 0.42624 0.0
C312 C 0.3686 0.30532 0.44274 0.0
C313 C 0.35301 0.22932 0.44256 0.0
C314 C 0.40338 0.31658 0.47252 0.0
C315 C 0.41294 0.28466 0.48755 0.0
H316 H 0.82899 0.21235 0.46555 0.0
H317 H 0.89951 0.14934 0.51578 0.0
H318 H 0.84957 0.08171 0.47623 0.0
H319 H 0.78122 0.03813 0.43446 0.0
H320 H 0.70855 0.09963 0.38628 0.0
H321 H 0.76448 0.17047 0.4172 0.0
C322 C 0.83377 0.184 0.46731 0.0
C323 C 0.86749 0.18562 0.49398 0.0
C324 C 0.80448 0.14494 0.44498 0.0
C325 C 0.87352 0.14878 0.49578 0.0
C326 C 0.84497 0.11007 0.47321 0.0
C327 C 0.77801 0.0672 0.43004 0.0
C328 C 0.74061 0.0636 0.40855 0.0
C329 C 0.80963 0.10742 0.44875 0.0
C330 C 0.73701 0.10157 0.40284 0.0
C331 C 0.76883 0.142 0.42074 0.0
H332 H 0.96658 0.69895 0.5088 0.0
H333 H 0.89796 0.63499 0.38982 0.0
H334 H 0.82886 0.6276 0.41934 0.0
H335 H 0.78821 0.63881 0.48041 0.0
H336 H 0.86063 0.70638 0.59692 0.0
H337 H 0.92812 0.71263 0.56698 0.0
C338 C 0.93651 0.68331 0.48922 0.0
C339 C 0.93708 0.66716 0.44744 0.0
C340 C 0.89765 0.67975 0.50609 0.0
C341 C 0.89814 0.64764 0.42216 0.0
C342 C 0.85873 0.64332 0.4391 0.0
C343 C 0.81884 0.65479 0.49906 0.0
C344 C 0.81953 0.672 0.54081 0.0
C345 C 0.85806 0.65907 0.48123 0.0
C346 C 0.85937 0.69305 0.56465 0.0
C347 C 0.89797 0.6966 0.54762 0.0
H348 H 0.20429 0.33152 0.32133 0.0
H349 H 0.29806 0.46944 0.30185 0.0
H350 H 0.25162 0.47227 0.24305 0.0
H351 H 0.18419 0.43496 0.19693 0.0
H352 H 0.08897 0.29797 0.22023 0.0
H353 H 0.13583 0.29549 0.27814 0.0
C354 C 0.21474 0.36213 0.30398 0.0
C355 C 0.25481 0.40007 0.31542 0.0
C356 C 0.18734 0.36375 0.27122 0.0
C357 C 0.26748 0.43973 0.29334 0.0
C358 C 0.24088 0.44136 0.25985 0.0
C359 C 0.17359 0.40471 0.21496 0.0
C360 C 0.13314 0.36669 0.20424 0.0
C361 C 0.20066 0.40356 0.24855 0.0
C362 C 0.1198 0.32775 0.22793 0.0
C363 C 0.14671 0.32621 0.26091 0.0
H364 H 0.65164 0.81136 0.1469 0.0
H365 H 0.53712 0.69518 0.19628 0.0
H366 H 0.53322 0.73812 0.25774 0.0
H367 H 0.56318 0.80873 0.29787 0.0
H368 H 0.6769 0.92486 0.24698 0.0
H369 H 0.67991 0.88201 0.18538 0.0
C370 C 0.62594 0.79536 0.17124 0.0
C371 C 0.59497 0.75006 0.16731 0.0
C372 C 0.62354 0.82035 0.206 0.0
C373 C 0.5615 0.72996 0.19874 0.0
C374 C 0.5592 0.75452 0.2338 0.0
C375 C 0.58837 0.82471 0.27308 0.0
C376 C 0.61979 0.86994 0.27704 0.0
C377 C 0.59007 0.79977 0.23776 0.0
C378 C 0.65228 0.89014 0.24471 0.0
C379 C 0.65415 0.86561 0.20954 0.0
H380 H 0.18947 0.78723 0.15382 0.0
H381 H 0.30087 0.86744 0.23794 0.0
H382 H 0.2599 0.82254 0.30069 0.0
H383 H 0.19045 0.76437 0.3322 0.0
H384 H 0.07637 0.68977 0.24932 0.0
H385 H 0.12035 0.72836 0.18519 0.0
C386 C 0.20498 0.79442 0.18581 0.0
C387 C 0.24816 0.83034 0.19138 0.0
C388 C 0.1806 0.76965 0.22183 0.0
C389 C 0.26767 0.83988 0.23301 0.0
C390 C 0.24424 0.81429 0.2688 0.0
C391 C 0.17545 0.75611 0.29998 0.0
C392 C 0.13039 0.72414 0.29527 0.0
C393 C 0.20042 0.77964 0.2637 0.0
C394 C 0.11104 0.71425 0.25358 0.0
C395 C 0.13614 0.73634 0.21702 0.0
H396 H 0.8477 0.68022 0.84983 0.0
H397 H 0.8445 0.56262 0.80131 0.0
H398 H 0.79475 0.55741 0.74208 0.0
H399 H 0.75439 0.58792 0.7027 0.0
H400 H 0.75719 0.70515 0.75201 0.0
H401 H 0.80408 0.70829 0.81291 0.0
C402 C 0.83629 0.65358 0.82614 0.0
C403 C 0.85024 0.62221 0.82951 0.0
C404 C 0.8072 0.65042 0.79268 0.0
C405 C 0.83451 0.58739 0.79914 0.0
C406 C 0.80596 0.58431 0.76539 0.0
C407 C 0.76468 0.61375 0.72716 0.0
C408 C 0.75234 0.64629 0.72279 0.0
C409 C 0.79222 0.61575 0.76175 0.0
C410 C 0.76613 0.67965 0.75464 0.0
C411 C 0.79322 0.68166 0.78931 0.0
H412 H 0.3004 0.16703 0.80962 0.0
H413 H 0.43842 0.26743 0.80421 0.0
H414 H 0.44845 0.23178 0.73981 0.0
H415 H 0.41786 0.17169 0.68503 0.0
H416 H 0.27956 0.07193 0.69075 0.0
H417 H 0.26994 0.10744 0.7552 0.0
C418 C 0.33264 0.18128 0.79423 0.0
C419 C 0.36856 0.21994 0.8116 0.0
C420 C 0.33821 0.16047 0.75744 0.0
C421 C 0.41017 0.23781 0.79138 0.0
C422 C 0.41597 0.21734 0.75464 0.0
C423 C 0.38572 0.15759 0.70061 0.0
C424 C 0.34953 0.11911 0.68321 0.0
C425 C 0.38026 0.17852 0.73748 0.0
C426 C 0.30799 0.10146 0.70352 0.0
C427 C 0.30241 0.12181 0.74033 0.0
H428 H 0.80421 0.18685 0.83683 0.0
H429 H 0.69716 0.09312 0.75523 0.0
H430 H 0.73673 0.13424 0.69015 0.0
H431 H 0.80414 0.19384 0.65648 0.0
H432 H 0.91417 0.28264 0.73809 0.0
H433 H 0.87109 0.24663 0.80336 0.0
C434 C 0.78929 0.17583 0.80482 0.0
C435 C 0.74779 0.13726 0.80067 0.0
C436 C 0.81296 0.19858 0.76767 0.0
C437 C 0.72908 0.12281 0.75907 0.0
C438 C 0.75172 0.14623 0.72195 0.0
C439 C 0.8184 0.20556 0.68862 0.0
C440 C 0.86211 0.24085 0.69267 0.0
C441 C 0.79402 0.18371 0.72583 0.0
C442 C 0.88058 0.25544 0.73432 0.0
C443 C 0.85598 0.23489 0.77156 0.0
H444 H 0.01475 0.43137 0.9876 0.0
H445 H 0.03737 0.48316 0.1189 0.0
H446 H 0.00764 0.53118 0.09923 0.0
H447 H 0.97447 0.5579 0.0448 0.0
H448 H 0.95132 0.50534 0.91375 0.0
H449 H 0.9816 0.45791 0.93336 0.0
C450 C 0.01347 0.45339 0.01184 0.0
C451 C 0.02843 0.45384 0.05459 0.0
C452 C 0.99583 0.48047 0.00045 0.0
C453 C 0.02621 0.4823 0.08571 0.0
C454 C 0.00907 0.50965 0.07453 0.0
C455 C 0.97582 0.53587 0.02062 0.0
C456 C 0.96048 0.53503 0.97792 0.0
C457 C 0.99353 0.50883 0.03206 0.0
C458 C 0.96271 0.5065 0.94689 0.0
C459 C 0.98018 0.47947 0.95803 0.0
H460 H 0.51848 0.52661 0.07263 0.0
H461 H 0.47022 0.57768 0.9715 0.0
H462 H 0.42943 0.50443 0.93816 0.0
H463 H 0.41101 0.42681 0.93534 0.0
H464 H 0.4584 0.37546 0.03688 0.0
H465 H 0.49661 0.44807 0.07213 0.0
C466 C 0.4984 0.52154 0.04374 0.0
C467 C 0.4974 0.5575 0.02454 0.0
C468 C 0.47568 0.47952 0.02431 0.0
C469 C 0.47145 0.55049 0.98696 0.0
C470 C 0.44841 0.5087 0.96766 0.0
C471 C 0.42999 0.43168 0.96501 0.0
C472 C 0.43254 0.39618 0.98318 0.0
C473 C 0.4511 0.47322 0.98551 0.0
C474 C 0.45637 0.40253 0.02212 0.0
C475 C 0.47802 0.44392 0.04238 0.0
H476 H 0.41683 0.9754 0.98086 0.0
H477 H 0.44364 0.91617 0.09144 0.0
H478 H 0.52115 0.94872 0.06907 0.0
H479 H 0.58133 0.99484 0.01863 0.0
H480 H 0.55451 0.05505 0.90884 0.0
H481 H 0.47699 0.0219 0.93088 0.0
C482 C 0.43951 0.96917 -0.00021 0.0
C483 C 0.42448 0.94307 0.03752 0.0
C484 C 0.4841 0.98875 0.98729 0.0
C485 C 0.45439 0.93589 0.0621 0.0
C486 C 0.49872 0.9547 0.04947 0.0
C487 C 0.55861 0.00106 -0.00025 0.0
C488 C 0.57368 0.02755 0.96226 0.0
C489 C 0.51401 0.98151 0.01235 0.0
C490 C 0.54378 0.03499 0.93795 0.0
C491 C 0.4994 0.01583 0.95038 0.0
H492 H 0.5593 0.98142 0.50218 0.0
H493 H 0.51095 0.97346 0.37082 0.0
H494 H 0.46312 0.00186 0.39579 0.0
H495 H 0.4352 0.02888 0.45487 0.0
H496 H 0.48296 0.03612 0.58635 0.0
H497 H 0.53135 0.00843 0.56128 0.0
C498 C 0.53817 0.98573 0.47901 0.0
C499 C 0.53855 0.97524 0.43471 0.0
C500 C 0.51098 0.00224 0.49356 0.0
C501 C 0.51113 0.98116 0.4051 0.0
C502 C 0.4839 -0.00249 0.41933 0.0
C503 C 0.45642 0.02469 0.47801 0.0
C504 C 0.45567 0.03472 0.52239 0.0
C505 C 0.48368 0.00828 0.46345 0.0
C506 C 0.48307 0.02878 0.55202 0.0
C507 C 0.51061 0.01282 0.53772 0.0
H508 H 0.96888 0.39733 0.46464 0.0
H509 H 0.96333 0.43873 0.59615 0.0
H510 H 0.99455 0.51495 0.57189 0.0
H511 H 0.02449 0.56995 0.51364 0.0
H512 H 0.02608 0.52846 0.38138 0.0
H513 H 0.99593 0.45207 0.40564 0.0
C514 C 0.97416 0.42301 0.48788 0.0
C515 C 0.96386 0.41249 0.5321 0.0
C516 C 0.99199 0.46672 0.47369 0.0
C517 C 0.97077 0.44599 0.56189 0.0
C518 C 0.98891 0.48961 0.54811 0.0
C519 C 0.01869 0.5442 0.49026 0.0
C520 C 0.02807 0.55466 0.44597 0.0
C521 C 4e-05 0.50039 0.50421 0.0
C522 C 0.01943 0.52103 0.41573 0.0
C523 C 0.00203 0.47744 0.42955 0.0
H524 H 0.42434 0.48572 0.52972 0.0
H525 H 0.47295 0.51118 0.39769 0.0
H526 H 0.54902 0.55627 0.42489 0.0
H527 H 0.60174 0.58607 0.48647 0.0
H528 H 0.55253 0.5574 0.61831 0.0
H529 H 0.4766 0.51526 0.59086 0.0
C530 C 0.45149 0.5017 0.50684 0.0
C531 C 0.44305 0.49554 0.46175 0.0
C532 C 0.49505 0.52628 0.52272 0.0
C533 C 0.47864 0.51576 0.43255 0.0
C534 C 0.52211 0.54125 0.4481 0.0
C535 C 0.5744 0.57037 0.50917 0.0
C536 C 0.58278 0.57466 0.55437 0.0
C537 C 0.53075 0.54619 0.49315 0.0
C538 C 0.54701 0.55435 0.58338 0.0
C539 C 0.50355 0.53047 0.56772 0.0
loop_
_geom_bond_atom_site_label_1
_geom_bond_atom_site_label_2
_geom_bond_distance
_geom_bond_site_symmetry_2
_ccdc_geom_bond_type
In0 O1 2.294 . S
In0 O2 2.326 . S
In0 O6 2.266 . S
In0 O7 2.326 . S
In0 O8 2.266 . S
In0 O9 2.326 . S
In0 O11 2.294 . S
In0 O12 2.326 . S
O1 In0 2.294 . S
O1 C10 1.240 . S
O2 In0 2.326 . S
O2 C10 1.252 . S
C3 O6 1.252 . S
C3 O7 1.260 . S
C4 O11 1.240 . S
C4 O12 1.252 . S
C5 O8 1.252 . S
C5 O9 1.260 . S
O6 In0 2.266 . S
O6 C3 1.252 . S
O7 In0 2.326 . S
O7 C3 1.260 . S
O8 In0 2.266 . S
O8 C5 1.252 . S
O9 In0 2.326 . S
O9 C5 1.260 . S
C10 O1 1.240 . S
C10 O2 1.252 . S
O11 In0 2.294 . S
O11 C4 1.240 . S
O12 In0 2.326 . S
O12 C4 1.252 . S
In13 O14 2.294 . S
In13 O15 2.326 . S
In13 O19 2.266 . S
In13 O20 2.326 . S
In13 O21 2.266 . S
In13 O22 2.326 . S
In13 O24 2.294 . S
In13 O25 2.326 . S
O14 In13 2.294 . S
O14 C23 1.240 . S
O15 In13 2.326 . S
O15 C23 1.252 . S
C16 O19 1.252 . S
C16 O20 1.260 . S
C17 O24 1.240 . S
C17 O25 1.252 . S
C18 O21 1.252 . S
C18 O22 1.260 . S
O19 In13 2.266 . S
O19 C16 1.252 . S
O20 In13 2.326 . S
O20 C16 1.260 . S
O21 In13 2.266 . S
O21 C18 1.252 . S
O22 In13 2.326 . S
O22 C18 1.260 . S
C23 O14 1.240 . S
C23 O15 1.252 . S
O24 In13 2.294 . S
O24 C17 1.240 . S
O25 In13 2.326 . S
O25 C17 1.252 . S
In26 O27 2.294 . S
In26 O28 2.326 . S
In26 O32 2.266 . S
In26 O33 2.326 . S
In26 O34 2.266 . S
In26 O35 2.326 . S
In26 O37 2.294 . S
In26 O38 2.326 . S
O27 In26 2.294 . S
O27 C36 1.240 . S
O28 In26 2.326 . S
O28 C36 1.252 . S
C29 O32 1.252 . S
C29 O33 1.260 . S
C30 O37 1.240 . S
C30 O38 1.252 . S
C31 O34 1.252 . S
C31 O35 1.260 . S
O32 In26 2.266 . S
O32 C29 1.252 . S
O33 In26 2.326 . S
O33 C29 1.260 . S
O34 In26 2.266 . S
O34 C31 1.252 . S
O35 In26 2.326 . S
O35 C31 1.260 . S
C36 O27 1.240 . S
C36 O28 1.252 . S
O37 In26 2.294 . S
O37 C30 1.240 . S
O38 In26 2.326 . S
O38 C30 1.252 . S
In39 O40 2.294 . S
In39 O41 2.326 . S
In39 O45 2.266 . S
In39 O46 2.326 . S
In39 O47 2.266 . S
In39 O48 2.326 . S
In39 O50 2.294 . S
In39 O51 2.326 . S
O40 In39 2.294 . S
O40 C49 1.240 . S
O41 In39 2.326 . S
O41 C49 1.252 . S
C42 O45 1.252 . S
C42 O46 1.260 . S
C43 O50 1.240 . S
C43 O51 1.252 . S
C44 O47 1.252 . S
C44 O48 1.260 . S
O45 In39 2.266 . S
O45 C42 1.252 . S
O46 In39 2.326 . S
O46 C42 1.260 . S
O47 In39 2.266 . S
O47 C44 1.252 . S
O48 In39 2.326 . S
O48 C44 1.260 . S
C49 O40 1.240 . S
C49 O41 1.252 . S
O50 In39 2.294 . S
O50 C43 1.240 . S
O51 In39 2.326 . S
O51 C43 1.252 . S
In52 O53 2.294 . S
In52 O54 2.326 . S
In52 O58 2.266 . S
In52 O59 2.326 . S
In52 O60 2.266 . S
In52 O61 2.326 . S
In52 O63 2.294 . S
In52 O64 2.326 . S
O53 In52 2.294 . S
O53 C62 1.240 . S
O54 In52 2.326 . S
O54 C62 1.252 . S
C55 O58 1.252 . S
C55 O59 1.260 . S
C56 O63 1.240 . S
C56 O64 1.252 . S
C57 O60 1.252 . S
C57 O61 1.260 . S
O58 In52 2.266 . S
O58 C55 1.252 . S
O59 In52 2.326 . S
O59 C55 1.260 . S
O60 In52 2.266 . S
O60 C57 1.252 . S
O61 In52 2.326 . S
O61 C57 1.260 . S
C62 O53 1.240 . S
C62 O54 1.252 . S
O63 In52 2.294 . S
O63 C56 1.240 . S
O64 In52 2.326 . S
O64 C56 1.252 . S
In65 O66 2.294 . S
In65 O67 2.326 . S
In65 O71 2.266 . S
In65 O72 2.326 . S
In65 O73 2.266 . S
In65 O74 2.326 . S
In65 O76 2.294 . S
In65 O77 2.326 . S
O66 In65 2.294 . S
O66 C75 1.240 . S
O67 In65 2.326 . S
O67 C75 1.252 . S
C68 O71 1.252 . S
C68 O72 1.260 . S
C69 O76 1.240 . S
C69 O77 1.252 . S
C70 O73 1.252 . S
C70 O74 1.260 . S
O71 In65 2.266 . S
O71 C68 1.252 . S
O72 In65 2.326 . S
O72 C68 1.260 . S
O73 In65 2.266 . S
O73 C70 1.252 . S
O74 In65 2.326 . S
O74 C70 1.260 . S
C75 O66 1.240 . S
C75 O67 1.252 . S
O76 In65 2.294 . S
O76 C69 1.240 . S
O77 In65 2.326 . S
O77 C69 1.252 . S
In78 O79 2.294 . S
In78 O80 2.326 . S
In78 O84 2.266 . S
In78 O85 2.326 . S
In78 O86 2.266 . S
In78 O87 2.326 . S
In78 O89 2.294 . S
In78 O90 2.326 . S
O79 In78 2.294 . S
O79 C88 1.240 . S
O80 In78 2.326 . S
O80 C88 1.252 . S
C81 O84 1.252 . S
C81 O85 1.260 . S
C82 O89 1.240 . S
C82 O90 1.252 . S
C83 O86 1.252 . S
C83 O87 1.260 . S
O84 In78 2.266 . S
O84 C81 1.252 . S
O85 In78 2.326 . S
O85 C81 1.260 . S
O86 In78 2.266 . S
O86 C83 1.252 . S
O87 In78 2.326 . S
O87 C83 1.260 . S
C88 O79 1.240 . S
C88 O80 1.252 . S
O89 In78 2.294 . S
O89 C82 1.240 . S
O90 In78 2.326 . S
O90 C82 1.252 . S
In91 O92 2.294 . S
In91 O93 2.326 . S
In91 O97 2.266 . S
In91 O98 2.326 . S
In91 O99 2.266 . S
In91 O100 2.326 . S
In91 O102 2.294 . S
In91 O103 2.326 . S
O92 In91 2.294 . S
O92 C101 1.240 . S
O93 In91 2.326 . S
O93 C101 1.252 . S
C94 O97 1.252 . S
C94 O98 1.260 . S
C95 O102 1.240 . S
C95 O103 1.252 . S
C96 O99 1.252 . S
C96 O100 1.260 . S
O97 In91 2.266 . S
O97 C94 1.252 . S
O98 In91 2.326 . S
O98 C94 1.260 . S
O99 In91 2.266 . S
O99 C96 1.252 . S
O100 In91 2.326 . S
O100 C96 1.260 . S
C101 O92 1.240 . S
C101 O93 1.252 . S
O102 In91 2.294 . S
O102 C95 1.240 . S
O103 In91 2.326 . S
O103 C95 1.252 . S
In104 O105 2.294 . S
In104 O106 2.326 . S
In104 O110 2.266 . S
In104 O111 2.326 . S
In104 O112 2.266 . S
In104 O113 2.326 . S
In104 O115 2.294 . S
In104 O116 2.326 . S
O105 In104 2.294 . S
O105 C114 1.240 . S
O106 In104 2.326 . S
O106 C114 1.252 . S
C107 O110 1.252 . S
C107 O111 1.260 . S
C108 O115 1.240 . S
C108 O116 1.252 . S
C109 O112 1.252 . S
C109 O113 1.260 . S
O110 In104 2.266 . S
O110 C107 1.252 . S
O111 In104 2.326 . S
O111 C107 1.260 . S
O112 In104 2.266 . S
O112 C109 1.252 . S
O113 In104 2.326 . S
O113 C109 1.260 . S
C114 O105 1.240 . S
C114 O106 1.252 . S
O115 In104 2.294 . S
O115 C108 1.240 . S
O116 In104 2.326 . S
O116 C108 1.252 . S
In117 O118 2.294 . S
In117 O119 2.326 . S
In117 O123 2.266 . S
In117 O124 2.326 . S
In117 O125 2.266 . S
In117 O126 2.326 . S
In117 O128 2.294 . S
In117 O129 2.326 . S
O118 In117 2.294 . S
O118 C127 1.240 . S
O119 In117 2.326 . S
O119 C127 1.252 . S
C120 O123 1.252 . S
C120 O124 1.260 . S
C121 O128 1.240 . S
C121 O129 1.252 . S
C122 O125 1.252 . S
C122 O126 1.260 . S
O123 In117 2.266 . S
O123 C120 1.252 . S
O124 In117 2.326 . S
O124 C120 1.260 . S
O125 In117 2.266 . S
O125 C122 1.252 . S
O126 In117 2.326 . S
O126 C122 1.260 . S
C127 O118 1.240 . S
C127 O119 1.252 . S
O128 In117 2.294 . S
O128 C121 1.240 . S
O129 In117 2.326 . S
O129 C121 1.252 . S
In130 O131 2.294 . S
In130 O132 2.326 . S
In130 O136 2.266 . S
In130 O137 2.326 . S
In130 O138 2.266 . S
In130 O139 2.326 . S
In130 O141 2.294 . S
In130 O142 2.326 . S
O131 In130 2.294 . S
O131 C140 1.240 . S
O132 In130 2.326 . S
O132 C140 1.252 . S
C133 O136 1.252 . S
C133 O137 1.260 . S
C134 O141 1.240 . S
C134 O142 1.252 . S
C135 O138 1.252 . S
C135 O139 1.260 . S
O136 In130 2.266 . S
O136 C133 1.252 . S
O137 In130 2.326 . S
O137 C133 1.260 . S
O138 In130 2.266 . S
O138 C135 1.252 . S
O139 In130 2.326 . S
O139 C135 1.260 . S
C140 O131 1.240 . S
C140 O132 1.252 . S
O141 In130 2.294 . S
O141 C134 1.240 . S
O142 In130 2.326 . S
O142 C134 1.252 . S
In143 O144 2.294 . S
In143 O145 2.326 . S
In143 O149 2.266 . S
In143 O150 2.326 . S
In143 O151 2.266 . S
In143 O152 2.326 . S
In143 O154 2.294 . S
In143 O155 2.326 . S
O144 In143 2.294 . S
O144 C153 1.240 . S
O145 In143 2.326 . S
O145 C153 1.252 . S
C146 O149 1.252 . S
C146 O150 1.260 . S
C147 O154 1.240 . S
C147 O155 1.252 . S
C148 O151 1.252 . S
C148 O152 1.260 . S
O149 In143 2.266 . S
O149 C146 1.252 . S
O150 In143 2.326 . S
O150 C146 1.260 . S
O151 In143 2.266 . S
O151 C148 1.252 . S
O152 In143 2.326 . S
O152 C148 1.260 . S
C153 O144 1.240 . S
C153 O145 1.252 . S
O154 In143 2.294 . S
O154 C147 1.240 . S
O155 In143 2.326 . S
O155 C147 1.252 . S
H156 C162 0.930 . S
H157 C165 0.930 . S
H158 C166 0.930 . S
H159 C167 0.930 . S
H160 C170 0.933 . S
H161 C171 0.930 . S
C162 H156 0.930 . S
C162 C163 1.355 . S
C162 C164 1.415 . S
C163 C162 1.355 . S
C163 C165 1.419 1_554 S
C164 C162 1.415 . S
C164 C169 1.425 1_554 S
C164 C171 1.409 . S
C165 H157 0.930 . S
C165 C163 1.419 1_556 S
C165 C166 1.362 . S
C166 H158 0.930 . S
C166 C165 1.362 . S
C166 C169 1.409 . S
C167 H159 0.930 . S
C167 C168 1.355 . S
C167 C169 1.415 . S
C168 C167 1.355 . S
C168 C170 1.410 1_556 S
C169 C164 1.425 1_556 S
C169 C166 1.409 . S
C169 C167 1.415 . S
C170 H160 0.933 . S
C170 C168 1.410 1_554 S
C170 C171 1.369 . S
C171 H161 0.930 . S
C171 C164 1.409 . S
C171 C170 1.369 . S
H172 C178 0.930 . S
H173 C181 0.930 . S
H174 C182 0.930 . S
H175 C183 0.930 . S
H176 C186 0.930 1_545 S
H177 C187 0.930 . S
C178 H172 0.930 . S
C178 C179 1.355 . S
C178 C180 1.415 . S
C179 C178 1.355 . S
C179 C181 1.419 1_554 S
C180 C178 1.415 . S
C180 C185 1.425 1_554 S
C180 C187 1.409 . S
C181 H173 0.930 . S
C181 C179 1.419 1_556 S
C181 C182 1.362 . S
C182 H174 0.930 . S
C182 C181 1.362 . S
C182 C185 1.409 . S
C183 H175 0.930 . S
C183 C184 1.355 . S
C183 C185 1.415 . S
C184 C183 1.355 . S
C184 C186 1.419 1_556 S
C185 C180 1.425 1_556 S
C185 C182 1.409 . S
C185 C183 1.415 . S
C186 H176 0.930 1_565 S
C186 C184 1.419 1_554 S
C186 C187 1.362 . S
C187 H177 0.930 . S
C187 C180 1.409 . S
C187 C186 1.362 . S
H188 C194 0.930 . S
H189 C197 0.930 . S
H190 C198 0.930 . S
H191 C199 0.930 . S
H192 C202 0.930 . S
H193 C203 0.930 . S
C194 H188 0.930 . S
C194 C195 1.355 1_556 S
C194 C196 1.415 . S
C195 C194 1.355 1_554 S
C195 C197 1.419 . S
C196 C194 1.415 . S
C196 C201 1.425 1_556 S
C196 C203 1.409 . S
C197 H189 0.930 . S
C197 C195 1.419 . S
C197 C198 1.362 . S
C198 H190 0.930 . S
C198 C197 1.362 . S
C198 C201 1.409 . S
C199 H191 0.930 . S
C199 C200 1.355 1_554 S
C199 C201 1.415 . S
C200 C199 1.355 1_556 S
C200 C202 1.419 . S
C201 C196 1.425 1_554 S
C201 C198 1.409 . S
C201 C199 1.415 . S
C202 H192 0.930 . S
C202 C200 1.419 . S
C202 C203 1.362 . S
C203 H193 0.930 . S
C203 C196 1.409 . S
C203 C202 1.362 . S
H204 C210 0.930 . S
H205 C213 0.930 . S
H206 C214 0.930 . S
H207 C215 0.930 . S
H208 C218 0.930 . S
H209 C219 0.930 . S
C210 H204 0.930 . S
C210 C211 1.355 . S
C210 C212 1.415 . S
C211 C210 1.355 . S
C211 C213 1.419 . S
C212 C210 1.415 . S
C212 C217 1.425 . S
C212 C219 1.409 . S
C213 H205 0.930 . S
C213 C211 1.419 . S
C213 C214 1.362 . S
C214 H206 0.930 . S
C214 C213 1.362 . S
C214 C217 1.409 . S
C215 H207 0.930 . S
C215 C216 1.355 . S
C215 C217 1.415 . S
C216 C215 1.355 . S
C216 C218 1.419 . S
C217 C212 1.425 . S
C217 C214 1.409 . S
C217 C215 1.415 . S
C218 H208 0.930 . S
C218 C216 1.419 . S
C218 C219 1.362 . S
C219 H209 0.930 . S
C219 C212 1.409 . S
C219 C218 1.362 . S
H220 C226 0.930 . S
H221 C229 0.930 . S
H222 C230 0.930 . S
H223 C231 0.930 . S
H224 C234 0.930 . S
H225 C235 0.930 . S
C226 H220 0.930 . S
C226 C227 1.355 . S
C226 C228 1.415 . S
C227 C226 1.355 . S
C227 C229 1.419 . S
C228 C226 1.415 . S
C228 C233 1.425 . S
C228 C235 1.409 . S
C229 H221 0.930 . S
C229 C227 1.419 . S
C229 C230 1.362 . S
C230 H222 0.930 . S
C230 C229 1.362 . S
C230 C233 1.409 . S
C231 H223 0.930 . S
C231 C232 1.355 . S
C231 C233 1.415 . S
C232 C231 1.355 . S
C232 C234 1.419 . S
C233 C228 1.425 . S
C233 C230 1.409 . S
C233 C231 1.415 . S
C234 H224 0.930 . S
C234 C232 1.419 . S
C234 C235 1.362 . S
C235 H225 0.930 . S
C235 C228 1.409 . S
C235 C234 1.362 . S
H236 C242 0.930 . S
H237 C245 0.930 . S
H238 C246 0.930 . S
H239 C247 0.930 . S
H240 C250 0.930 . S
H241 C251 0.930 . S
C242 H236 0.930 . S
C242 C243 1.355 . S
C242 C244 1.415 . S
C243 C242 1.355 . S
C243 C245 1.419 . S
C244 C242 1.415 . S
C244 C249 1.425 . S
C244 C251 1.409 . S
C245 H237 0.930 . S
C245 C243 1.419 . S
C245 C246 1.362 . S
C246 H238 0.930 . S
C246 C245 1.362 . S
C246 C249 1.409 . S
C247 H239 0.930 . S
C247 C248 1.355 . S
C247 C249 1.415 . S
C248 C247 1.355 . S
C248 C250 1.419 . S
C249 C244 1.425 . S
C249 C246 1.409 . S
C249 C247 1.415 . S
C250 H240 0.930 . S
C250 C248 1.419 . S
C250 C251 1.362 . S
C251 H241 0.930 . S
C251 C244 1.409 . S
C251 C250 1.362 . S
H252 C258 0.930 . S
H253 C261 0.930 . S
H254 C262 0.930 1_556 S
H255 C263 0.930 . S
H256 C266 0.930 . S
H257 C267 0.930 1_554 S
C258 H252 0.930 . S
C258 C259 1.355 . S
C258 C260 1.415 . S
C259 C258 1.355 . S
C259 C261 1.419 . S
C260 C258 1.415 . S
C260 C265 1.425 1_554 S
C260 C267 1.409 1_554 S
C261 H253 0.930 . S
C261 C259 1.419 . S
C261 C262 1.362 . S
C262 H254 0.930 1_554 S
C262 C261 1.362 . S
C262 C265 1.409 1_554 S
C263 H255 0.930 . S
C263 C264 1.355 . S
C263 C265 1.415 . S
C264 C263 1.355 . S
C264 C266 1.419 . S
C265 C260 1.425 1_556 S
C265 C262 1.409 1_556 S
C265 C263 1.415 . S
C266 H256 0.930 . S
C266 C264 1.419 . S
C266 C267 1.362 . S
C267 H257 0.930 1_556 S
C267 C260 1.409 1_556 S
C267 C266 1.362 . S
H268 C274 0.930 . S
H269 C277 0.930 . S
H270 C278 0.930 . S
H271 C279 0.930 . S
H272 C282 0.931 1_565 S
H273 C283 0.930 . S
C274 H268 0.930 . S
C274 C275 1.355 . S
C274 C276 1.415 . S
C275 C274 1.355 . S
C275 C277 1.419 1_556 S
C276 C274 1.415 . S
C276 C281 1.425 1_556 S
C276 C283 1.409 . S
C277 H269 0.930 . S
C277 C275 1.419 1_554 S
C277 C278 1.362 . S
C278 H270 0.930 . S
C278 C277 1.362 . S
C278 C281 1.409 . S
C279 H271 0.930 . S
C279 C280 1.355 . S
C279 C281 1.415 . S
C280 C279 1.355 . S
C280 C282 1.415 1_554 S
C281 C276 1.425 1_554 S
C281 C278 1.409 . S
C281 C279 1.415 . S
C282 H272 0.931 1_545 S
C282 C280 1.415 1_556 S
C282 C283 1.365 . S
C283 H273 0.930 . S
C283 C276 1.409 . S
C283 C282 1.365 . S
H284 C290 0.930 1_556 S
H285 C293 0.930 . S
H286 C294 0.930 . S
H287 C295 0.930 1_554 S
H288 C298 0.930 . S
H289 C299 0.930 . S
C290 H284 0.930 1_554 S
C290 C291 1.355 . S
C290 C292 1.415 1_554 S
C291 C290 1.355 . S
C291 C293 1.419 . S
C292 C290 1.415 1_556 S
C292 C297 1.425 1_556 S
C292 C299 1.409 . S
C293 H285 0.930 . S
C293 C291 1.419 . S
C293 C294 1.362 . S
C294 H286 0.930 . S
C294 C293 1.362 . S
C294 C297 1.409 . S
C295 H287 0.930 1_556 S
C295 C296 1.355 . S
C295 C297 1.415 1_556 S
C296 C295 1.355 . S
C296 C298 1.419 . S
C297 C292 1.425 1_554 S
C297 C294 1.409 . S
C297 C295 1.415 1_554 S
C298 H288 0.930 . S
C298 C296 1.419 . S
C298 C299 1.362 . S
C299 H289 0.930 . S
C299 C292 1.409 . S
C299 C298 1.362 . S
H300 C306 0.930 . S
H301 C309 0.930 . S
H302 C310 0.930 . S
H303 C311 0.930 . S
H304 C314 0.930 . S
H305 C315 0.930 . S
C306 H300 0.930 . S
C306 C307 1.355 . S
C306 C308 1.415 . S
C307 C306 1.355 . S
C307 C309 1.419 . S
C308 C306 1.415 . S
C308 C313 1.425 . S
C308 C315 1.409 . S
C309 H301 0.930 . S
C309 C307 1.419 . S
C309 C310 1.362 . S
C310 H302 0.930 . S
C310 C309 1.362 . S
C310 C313 1.409 . S
C311 H303 0.930 . S
C311 C312 1.355 . S
C311 C313 1.415 . S
C312 C311 1.355 . S
C312 C314 1.419 . S
C313 C308 1.425 . S
C313 C310 1.409 . S
C313 C311 1.415 . S
C314 H304 0.930 . S
C314 C312 1.419 . S
C314 C315 1.362 . S
C315 H305 0.930 . S
C315 C308 1.409 . S
C315 C314 1.362 . S
H316 C322 0.930 . S
H317 C325 0.930 . S
H318 C326 0.930 . S
H319 C327 0.930 . S
H320 C330 0.930 . S
H321 C331 0.930 . S
C322 H316 0.930 . S
C322 C323 1.355 . S
C322 C324 1.415 . S
C323 C322 1.355 . S
C323 C325 1.419 . S
C324 C322 1.415 . S
C324 C329 1.425 . S
C324 C331 1.409 . S
C325 H317 0.930 . S
C325 C323 1.419 . S
C325 C326 1.362 . S
C326 H318 0.930 . S
C326 C325 1.362 . S
C326 C329 1.409 . S
C327 H319 0.930 . S
C327 C328 1.355 . S
C327 C329 1.415 . S
C328 C327 1.355 . S
C328 C330 1.419 . S
C329 C324 1.425 . S
C329 C326 1.409 . S
C329 C327 1.415 . S
C330 H320 0.930 . S
C330 C328 1.419 . S
C330 C331 1.362 . S
C331 H321 0.930 . S
C331 C324 1.409 . S
C331 C330 1.362 . S
H332 C338 0.930 . S
H333 C341 0.930 . S
H334 C342 0.930 . S
H335 C343 0.930 . S
H336 C346 0.930 . S
H337 C347 0.930 . S
C338 H332 0.930 . S
C338 C339 1.355 . S
C338 C340 1.415 . S
C339 C338 1.355 . S
C339 C341 1.419 . S
C340 C338 1.415 . S
C340 C345 1.425 . S
C340 C347 1.409 . S
C341 H333 0.930 . S
C341 C339 1.419 . S
C341 C342 1.362 . S
C342 H334 0.930 . S
C342 C341 1.362 . S
C342 C345 1.409 . S
C343 H335 0.930 . S
C343 C344 1.355 . S
C343 C345 1.415 . S
C344 C343 1.355 . S
C344 C346 1.419 . S
C345 C340 1.425 . S
C345 C342 1.409 . S
C345 C343 1.415 . S
C346 H336 0.930 . S
C346 C344 1.419 . S
C346 C347 1.362 . S
C347 H337 0.930 . S
C347 C340 1.409 . S
C347 C346 1.362 . S
H348 C354 0.930 . S
H349 C357 0.930 . S
H350 C358 0.930 . S
H351 C359 0.930 . S
H352 C362 0.930 . S
H353 C363 0.930 . S
C354 H348 0.930 . S
C354 C355 1.355 . S
C354 C356 1.415 . S
C355 C354 1.355 . S
C355 C357 1.419 . S
C356 C354 1.415 . S
C356 C361 1.425 . S
C356 C363 1.409 . S
C357 H349 0.930 . S
C357 C355 1.419 . S
C357 C358 1.362 . S
C358 H350 0.930 . S
C358 C357 1.362 . S
C358 C361 1.409 . S
C359 H351 0.930 . S
C359 C360 1.355 . S
C359 C361 1.415 . S
C360 C359 1.355 . S
C360 C362 1.419 . S
C361 C356 1.425 . S
C361 C358 1.409 . S
C361 C359 1.415 . S
C362 H352 0.930 . S
C362 C360 1.419 . S
C362 C363 1.362 . S
C363 H353 0.930 . S
C363 C356 1.409 . S
C363 C362 1.362 . S
H364 C370 0.930 . S
H365 C373 0.930 . S
H366 C374 0.930 . S
H367 C375 0.930 . S
H368 C378 0.930 . S
H369 C379 0.930 . S
C370 H364 0.930 . S
C370 C371 1.355 . S
C370 C372 1.415 . S
C371 C370 1.355 . S
C371 C373 1.419 . S
C372 C370 1.415 . S
C372 C377 1.425 . S
C372 C379 1.409 . S
C373 H365 0.930 . S
C373 C371 1.419 . S
C373 C374 1.362 . S
C374 H366 0.930 . S
C374 C373 1.362 . S
C374 C377 1.409 . S
C375 H367 0.930 . S
C375 C376 1.355 . S
C375 C377 1.415 . S
C376 C375 1.355 . S
C376 C378 1.419 . S
C377 C372 1.425 . S
C377 C374 1.409 . S
C377 C375 1.415 . S
C378 H368 0.930 . S
C378 C376 1.419 . S
C378 C379 1.362 . S
C379 H369 0.930 . S
C379 C372 1.409 . S
C379 C378 1.362 . S
H380 C386 0.930 . S
H381 C389 0.930 . S
H382 C390 0.930 . S
H383 C391 0.930 . S
H384 C394 0.930 . S
H385 C395 0.930 . S
C386 H380 0.930 . S
C386 C387 1.355 . S
C386 C388 1.415 . S
C387 C386 1.355 . S
C387 C389 1.419 . S
C388 C386 1.415 . S
C388 C393 1.425 . S
C388 C395 1.409 . S
C389 H381 0.930 . S
C389 C387 1.419 . S
C389 C390 1.362 . S
C390 H382 0.930 . S
C390 C389 1.362 . S
C390 C393 1.409 . S
C391 H383 0.930 . S
C391 C392 1.355 . S
C391 C393 1.415 . S
C392 C391 1.355 . S
C392 C394 1.419 . S
C393 C388 1.425 . S
C393 C390 1.409 . S
C393 C391 1.415 . S
C394 H384 0.930 . S
C394 C392 1.419 . S
C394 C395 1.362 . S
C395 H385 0.930 . S
C395 C388 1.409 . S
C395 C394 1.362 . S
H396 C402 0.930 . S
H397 C405 0.930 . S
H398 C406 0.930 . S
H399 C407 0.930 . S
H400 C410 0.930 . S
H401 C411 0.930 . S
C402 H396 0.930 . S
C402 C403 1.355 . S
C402 C404 1.415 . S
C403 C402 1.355 . S
C403 C405 1.419 . S
C404 C402 1.415 . S
C404 C409 1.425 . S
C404 C411 1.409 . S
C405 H397 0.930 . S
C405 C403 1.419 . S
C405 C406 1.362 . S
C406 H398 0.930 . S
C406 C405 1.362 . S
C406 C409 1.409 . S
C407 H399 0.930 . S
C407 C408 1.355 . S
C407 C409 1.415 . S
C408 C407 1.355 . S
C408 C410 1.419 . S
C409 C404 1.425 . S
C409 C406 1.409 . S
C409 C407 1.415 . S
C410 H400 0.930 . S
C410 C408 1.419 . S
C410 C411 1.362 . S
C411 H401 0.930 . S
C411 C404 1.409 . S
C411 C410 1.362 . S
H412 C418 0.930 . S
H413 C421 0.930 . S
H414 C422 0.930 . S
H415 C423 0.930 . S
H416 C426 0.930 . S
H417 C427 0.930 . S
C418 H412 0.930 . S
C418 C419 1.355 . S
C418 C420 1.415 . S
C419 C418 1.355 . S
C419 C421 1.419 . S
C420 C418 1.415 . S
C420 C425 1.425 . S
C420 C427 1.409 . S
C421 H413 0.930 . S
C421 C419 1.419 . S
C421 C422 1.362 . S
C422 H414 0.930 . S
C422 C421 1.362 . S
C422 C425 1.409 . S
C423 H415 0.930 . S
C423 C424 1.355 . S
C423 C425 1.415 . S
C424 C423 1.355 . S
C424 C426 1.419 . S
C425 C420 1.425 . S
C425 C422 1.409 . S
C425 C423 1.415 . S
C426 H416 0.930 . S
C426 C424 1.419 . S
C426 C427 1.362 . S
C427 H417 0.930 . S
C427 C420 1.409 . S
C427 C426 1.362 . S
H428 C434 0.930 . S
H429 C437 0.930 . S
H430 C438 0.930 . S
H431 C439 0.930 . S
H432 C442 0.930 . S
H433 C443 0.930 . S
C434 H428 0.930 . S
C434 C435 1.355 . S
C434 C436 1.415 . S
C435 C434 1.355 . S
C435 C437 1.419 . S
C436 C434 1.415 . S
C436 C441 1.425 . S
C436 C443 1.409 . S
C437 H429 0.930 . S
C437 C435 1.419 . S
C437 C438 1.362 . S
C438 H430 0.930 . S
C438 C437 1.362 . S
C438 C441 1.409 . S
C439 H431 0.930 . S
C439 C440 1.355 . S
C439 C441 1.415 . S
C440 C439 1.355 . S
C440 C442 1.419 . S
C441 C436 1.425 . S
C441 C438 1.409 . S
C441 C439 1.415 . S
C442 H432 0.930 . S
C442 C440 1.419 . S
C442 C443 1.362 . S
C443 H433 0.930 . S
C443 C436 1.409 . S
C443 C442 1.362 . S
H444 C450 0.930 1_556 S
H445 C453 0.930 . S
H446 C454 0.930 . S
H447 C455 0.930 1_554 S
H448 C458 0.930 . S
H449 C459 0.930 . S
C450 H444 0.930 1_554 S
C450 C451 1.355 . S
C450 C452 1.415 1_554 S
C451 C450 1.355 . S
C451 C453 1.419 1_455 S
C452 C450 1.415 1_556 S
C452 C457 1.425 1_456 S
C452 C459 1.409 . S
C453 H445 0.930 . S
C453 C451 1.419 1_655 S
C453 C454 1.362 . S
C454 H446 0.930 . S
C454 C453 1.362 . S
C454 C457 1.409 . S
C455 H447 0.930 1_556 S
C455 C456 1.355 . S
C455 C457 1.415 1_556 S
C456 C455 1.355 . S
C456 C458 1.419 1_655 S
C457 C452 1.425 1_654 S
C457 C454 1.409 . S
C457 C455 1.415 1_554 S
C458 H448 0.930 . S
C458 C456 1.419 1_455 S
C458 C459 1.362 . S
C459 H449 0.930 . S
C459 C452 1.409 . S
C459 C458 1.362 . S
H460 C466 0.930 . S
H461 C469 0.930 . S
H462 C470 0.930 . S
H463 C471 0.930 . S
H464 C474 0.930 . S
H465 C475 0.930 . S
C466 H460 0.930 . S
C466 C467 1.355 . S
C466 C468 1.413 1_554 S
C467 C466 1.355 . S
C467 C469 1.419 . S
C468 C466 1.413 1_556 S
C468 C473 1.425 1_556 S
C468 C475 1.411 . S
C469 H461 0.930 . S
C469 C467 1.419 . S
C469 C470 1.362 . S
C470 H462 0.930 . S
C470 C469 1.362 . S
C470 C473 1.411 . S
C471 H463 0.930 . S
C471 C472 1.355 . S
C471 C473 1.413 1_556 S
C472 C471 1.355 . S
C472 C474 1.419 . S
C473 C468 1.425 1_554 S
C473 C470 1.411 . S
C473 C471 1.413 1_554 S
C474 H464 0.930 . S
C474 C472 1.419 . S
C474 C475 1.362 . S
C475 H465 0.930 . S
C475 C468 1.411 . S
C475 C474 1.362 . S
H476 C482 0.930 1_556 S
H477 C485 0.930 . S
H478 C486 0.930 . S
H479 C487 0.930 1_554 S
H480 C490 0.930 . S
H481 C491 0.930 . S
C482 H476 0.930 1_554 S
C482 C483 1.355 . S
C482 C484 1.415 1_564 S
C483 C482 1.355 . S
C483 C485 1.419 . S
C484 C482 1.415 1_546 S
C484 C489 1.425 1_546 S
C484 C491 1.409 . S
C485 H477 0.930 . S
C485 C483 1.419 . S
C485 C486 1.362 . S
C486 H478 0.930 . S
C486 C485 1.362 . S
C486 C489 1.409 . S
C487 H479 0.930 1_556 S
C487 C488 1.355 . S
C487 C489 1.415 1_546 S
C488 C487 1.355 . S
C488 C490 1.419 . S
C489 C484 1.425 1_564 S
C489 C486 1.409 . S
C489 C487 1.415 1_564 S
C490 H480 0.930 . S
C490 C488 1.419 . S
C490 C491 1.362 . S
C491 H481 0.930 . S
C491 C484 1.409 . S
C491 C490 1.362 . S
H492 C498 0.930 . S
H493 C501 0.930 1_545 S
H494 C502 0.930 . S
H495 C503 0.930 . S
H496 C506 0.930 1_565 S
H497 C507 0.930 . S
C498 H492 0.930 . S
C498 C499 1.355 . S
C498 C500 1.415 . S
C499 C498 1.355 . S
C499 C501 1.419 . S
C500 C498 1.415 . S
C500 C505 1.425 1_565 S
C500 C507 1.409 . S
C501 H493 0.930 1_565 S
C501 C499 1.419 . S
C501 C502 1.362 1_565 S
C502 H494 0.930 . S
C502 C501 1.362 1_545 S
C502 C505 1.409 . S
C503 H495 0.930 . S
C503 C504 1.355 . S
C503 C505 1.415 . S
C504 C503 1.355 . S
C504 C506 1.419 . S
C505 C500 1.425 1_545 S
C505 C502 1.409 . S
C505 C503 1.415 . S
C506 H496 0.930 1_545 S
C506 C504 1.419 . S
C506 C507 1.362 1_545 S
C507 H497 0.930 . S
C507 C500 1.409 . S
C507 C506 1.362 1_565 S
H508 C514 0.930 . S
H509 C517 0.930 . S
H510 C518 0.930 . S
H511 C519 0.930 . S
H512 C522 0.930 . S
H513 C523 0.930 . S
C514 H508 0.930 . S
C514 C515 1.355 . S
C514 C516 1.415 . S
C515 C514 1.355 . S
C515 C517 1.419 1_655 S
C516 C514 1.415 . S
C516 C521 1.425 1_655 S
C516 C523 1.409 . S
C517 H509 0.930 . S
C517 C515 1.419 1_455 S
C517 C518 1.362 . S
C518 H510 0.930 . S
C518 C517 1.362 . S
C518 C521 1.409 . S
C519 H511 0.930 . S
C519 C520 1.355 . S
C519 C521 1.415 . S
C520 C519 1.355 . S
C520 C522 1.419 1_455 S
C521 C516 1.425 1_455 S
C521 C518 1.409 . S
C521 C519 1.415 . S
C522 H512 0.930 . S
C522 C520 1.419 1_655 S
C522 C523 1.362 . S
C523 H513 0.930 . S
C523 C516 1.409 . S
C523 C522 1.362 . S
H524 C530 0.930 . S
H525 C533 0.930 . S
H526 C534 0.930 . S
H527 C535 0.930 . S
H528 C538 0.930 . S
H529 C539 0.930 . S
C530 H524 0.930 . S
C530 C531 1.355 . S
C530 C532 1.415 . S
C531 C530 1.355 . S
C531 C533 1.419 . S
C532 C530 1.415 . S
C532 C537 1.425 . S
C532 C539 1.409 . S
C533 H525 0.930 . S
C533 C531 1.419 . S
C533 C534 1.362 . S
C534 H526 0.930 . S
C534 C533 1.362 . S
C534 C537 1.409 . S
C535 H527 0.930 . S
C535 C536 1.355 . S
C535 C537 1.415 . S
C536 C535 1.355 . S
C536 C538 1.419 . S
C537 C532 1.425 . S
C537 C534 1.409 . S
C537 C535 1.415 . S
C538 H528 0.930 . S
C538 C536 1.419 . S
C538 C539 1.362 . S
C539 H529 0.930 . S
C539 C532 1.409 . S
C539 C538 1.362 . S
C163 C4 1.161 . S
C168 C94 1.165 . S
C179 C17 1.170 . S
C184 C107 1.168 1_565 S
C195 C36 1.142 . S
C200 C83 1.150 1_455 S
C211 C146 1.168 . S
C216 C49 1.168 . S
C227 C56 1.165 . S
C232 C122 1.160 1_565 S
C243 C135 1.157 1_455 S
C248 C69 1.146 . S
C259 C16 1.157 . S
C264 C88 1.160 . S
C275 C95 1.168 . S
C280 C31 1.168 1_545 S
C291 C3 1.154 1_655 S
C296 C108 1.154 . S
C307 C127 1.150 . S
C312 C68 1.152 . S
C323 C140 1.157 . S
C328 C44 1.155 1_545 S
C339 C55 1.151 1_655 S
C344 C147 1.147 . S
C355 C75 1.560 . S
C360 C10 1.538 . S
C371 C23 1.578 . S
C376 C43 1.554 . S
C387 C30 1.575 . S
C392 C62 1.576 . S
C403 C82 1.573 . S
C408 C153 1.545 . S
C419 C101 1.576 . S
C424 C121 1.550 . S
C435 C114 1.574 . S
C440 C134 1.577 . S
C451 C5 1.540 . S
C456 C81 1.540 . S
C467 C18 1.560 . S
C472 C96 1.560 . S
C483 C29 1.567 . S
C488 C109 1.567 . S
C499 C42 1.514 . S
C504 C120 1.514 . S
C515 C133 1.511 . S
C520 C57 1.511 . S
C531 C70 1.522 . S
C536 C148 1.522 . S
