# Generated by pormake.
# Topology cha, (4)-cn, num edge types: 1
# Building blocks:
#     Node 0, Type 0, BuildingBlock: NAHDIM_clean_sbu_0, # of connection points: 4
#     Node 1, Type 0, BuildingBlock: NAHDIM_clean_sbu_0, # of connection points: 4
#     Node 2, Type 0, BuildingBlock: NAHDIM_clean_sbu_0, # of connection points: 4
#     Node 3, Type 0, BuildingBlock: NAHDIM_clean_sbu_0, # of connection points: 4
#     Node 4, Type 0, BuildingBlock: NAHDIM_clean_sbu_0, # of connection points: 4
#     Node 5, Type 0, BuildingBlock: NAHDIM_clean_sbu_0, # of connection points: 4
#     Node 6, Type 0, BuildingBlock: NAHDIM_clean_sbu_0, # of connection points: 4
#     Node 7, Type 0, BuildingBlock: NAHDIM_clean_sbu_0, # of connection points: 4
#     Node 8, Type 0, BuildingBlock: NAHDIM_clean_sbu_0, # of connection points: 4
#     Node 9, Type 0, BuildingBlock: NAHDIM_clean_sbu_0, # of connection points: 4
#     Node 10, Type 0, BuildingBlock: NAHDIM_clean_sbu_0, # of connection points: 4
#     Node 11, Type 0, BuildingBlock: NAHDIM_clean_sbu_0, # of connection points: 4
#     Node 12, Type 0, BuildingBlock: NAHDIM_clean_sbu_0, # of connection points: 4
#     Node 13, Type 0, BuildingBlock: NAHDIM_clean_sbu_0, # of connection points: 4
#     Node 14, Type 0, BuildingBlock: NAHDIM_clean_sbu_0, # of connection points: 4
#     Node 15, Type 0, BuildingBlock: NAHDIM_clean_sbu_0, # of connection points: 4
#     Node 16, Type 0, BuildingBlock: NAHDIM_clean_sbu_0, # of connection points: 4
#     Node 17, Type 0, BuildingBlock: NAHDIM_clean_sbu_0, # of connection points: 4
#     Node 18, Type 0, BuildingBlock: NAHDIM_clean_sbu_0, # of connection points: 4
#     Node 19, Type 0, BuildingBlock: NAHDIM_clean_sbu_0, # of connection points: 4
#     Node 20, Type 0, BuildingBlock: NAHDIM_clean_sbu_0, # of connection points: 4
#     Node 21, Type 0, BuildingBlock: NAHDIM_clean_sbu_0, # of connection points: 4
#     Node 22, Type 0, BuildingBlock: NAHDIM_clean_sbu_0, # of connection points: 4
#     Node 23, Type 0, BuildingBlock: NAHDIM_clean_sbu_0, # of connection points: 4
#     Node 24, Type 0, BuildingBlock: NAHDIM_clean_sbu_0, # of connection points: 4
#     Node 25, Type 0, BuildingBlock: NAHDIM_clean_sbu_0, # of connection points: 4
#     Node 26, Type 0, BuildingBlock: NAHDIM_clean_sbu_0, # of connection points: 4
#     Node 27, Type 0, BuildingBlock: NAHDIM_clean_sbu_0, # of connection points: 4
#     Node 28, Type 0, BuildingBlock: NAHDIM_clean_sbu_0, # of connection points: 4
#     Node 29, Type 0, BuildingBlock: NAHDIM_clean_sbu_0, # of connection points: 4
#     Node 30, Type 0, BuildingBlock: NAHDIM_clean_sbu_0, # of connection points: 4
#     Node 31, Type 0, BuildingBlock: NAHDIM_clean_sbu_0, # of connection points: 4
#     Node 32, Type 0, BuildingBlock: NAHDIM_clean_sbu_0, # of connection points: 4
#     Node 33, Type 0, BuildingBlock: NAHDIM_clean_sbu_0, # of connection points: 4
#     Node 34, Type 0, BuildingBlock: NAHDIM_clean_sbu_0, # of connection points: 4
#     Node 35, Type 0, BuildingBlock: NAHDIM_clean_sbu_0, # of connection points: 4
#     Edge 36, Type (0, 0), BuildingBlock: CIFDUS_clean_linker_0, # of connection points: 2
#     Edge 37, Type (0, 0), BuildingBlock: CIFDUS_clean_linker_0, # of connection points: 2
#     Edge 38, Type (0, 0), BuildingBlock: CIFDUS_clean_linker_0, # of connection points: 2
#     Edge 39, Type (0, 0), BuildingBlock: CIFDUS_clean_linker_0, # of connection points: 2
#     Edge 40, Type (0, 0), BuildingBlock: CIFDUS_clean_linker_0, # of connection points: 2
#     Edge 41, Type (0, 0), BuildingBlock: CIFDUS_clean_linker_0, # of connection points: 2
#     Edge 42, Type (0, 0), BuildingBlock: CIFDUS_clean_linker_0, # of connection points: 2
#     Edge 43, Type (0, 0), BuildingBlock: CIFDUS_clean_linker_0, # of connection points: 2
#     Edge 44, Type (0, 0), BuildingBlock: CIFDUS_clean_linker_0, # of connection points: 2
#     Edge 45, Type (0, 0), BuildingBlock: CIFDUS_clean_linker_0, # of connection points: 2
#     Edge 46, Type (0, 0), BuildingBlock: CIFDUS_clean_linker_0, # of connection points: 2
#     Edge 47, Type (0, 0), BuildingBlock: CIFDUS_clean_linker_0, # of connection points: 2
#     Edge 48, Type (0, 0), BuildingBlock: CIFDUS_clean_linker_0, # of connection points: 2
#     Edge 49, Type (0, 0), BuildingBlock: CIFDUS_clean_linker_0, # of connection points: 2
#     Edge 50, Type (0, 0), BuildingBlock: CIFDUS_clean_linker_0, # of connection points: 2
#     Edge 51, Type (0, 0), BuildingBlock: CIFDUS_clean_linker_0, # of connection points: 2
#     Edge 52, Type (0, 0), BuildingBlock: CIFDUS_clean_linker_0, # of connection points: 2
#     Edge 53, Type (0, 0), BuildingBlock: CIFDUS_clean_linker_0, # of connection points: 2
#     Edge 54, Type (0, 0), BuildingBlock: CIFDUS_clean_linker_0, # of connection points: 2
#     Edge 55, Type (0, 0), BuildingBlock: CIFDUS_clean_linker_0, # of connection points: 2
#     Edge 56, Type (0, 0), BuildingBlock: CIFDUS_clean_linker_0, # of connection points: 2
#     Edge 57, Type (0, 0), BuildingBlock: CIFDUS_clean_linker_0, # of connection points: 2
#     Edge 58, Type (0, 0), BuildingBlock: CIFDUS_clean_linker_0, # of connection points: 2
#     Edge 59, Type (0, 0), BuildingBlock: CIFDUS_clean_linker_0, # of connection points: 2
#     Edge 60, Type (0, 0), BuildingBlock: CIFDUS_clean_linker_0, # of connection points: 2
#     Edge 61, Type (0, 0), BuildingBlock: CIFDUS_clean_linker_0, # of connection points: 2
#     Edge 62, Type (0, 0), BuildingBlock: CIFDUS_clean_linker_0, # of connection points: 2
#     Edge 63, Type (0, 0), BuildingBlock: CIFDUS_clean_linker_0, # of connection points: 2
#     Edge 64, Type (0, 0), BuildingBlock: CIFDUS_clean_linker_0, # of connection points: 2
#     Edge 65, Type (0, 0), BuildingBlock: CIFDUS_clean_linker_0, # of connection points: 2
#     Edge 66, Type (0, 0), BuildingBlock: CIFDUS_clean_linker_0, # of connection points: 2
#     Edge 67, Type (0, 0), BuildingBlock: CIFDUS_clean_linker_0, # of connection points: 2
#     Edge 68, Type (0, 0), BuildingBlock: CIFDUS_clean_linker_0, # of connection points: 2
#     Edge 69, Type (0, 0), BuildingBlock: CIFDUS_clean_linker_0, # of connection points: 2
#     Edge 70, Type (0, 0), BuildingBlock: CIFDUS_clean_linker_0, # of connection points: 2
#     Edge 71, Type (0, 0), BuildingBlock: CIFDUS_clean_linker_0, # of connection points: 2
#     Edge 72, Type (0, 0), BuildingBlock: CIFDUS_clean_linker_0, # of connection points: 2
#     Edge 73, Type (0, 0), BuildingBlock: CIFDUS_clean_linker_0, # of connection points: 2
#     Edge 74, Type (0, 0), BuildingBlock: CIFDUS_clean_linker_0, # of connection points: 2
#     Edge 75, Type (0, 0), BuildingBlock: CIFDUS_clean_linker_0, # of connection points: 2
#     Edge 76, Type (0, 0), BuildingBlock: CIFDUS_clean_linker_0, # of connection points: 2
#     Edge 77, Type (0, 0), BuildingBlock: CIFDUS_clean_linker_0, # of connection points: 2
#     Edge 78, Type (0, 0), BuildingBlock: CIFDUS_clean_linker_0, # of connection points: 2
#     Edge 79, Type (0, 0), BuildingBlock: CIFDUS_clean_linker_0, # of connection points: 2
#     Edge 80, Type (0, 0), BuildingBlock: CIFDUS_clean_linker_0, # of connection points: 2
#     Edge 81, Type (0, 0), BuildingBlock: CIFDUS_clean_linker_0, # of connection points: 2
#     Edge 82, Type (0, 0), BuildingBlock: CIFDUS_clean_linker_0, # of connection points: 2
#     Edge 83, Type (0, 0), BuildingBlock: CIFDUS_clean_linker_0, # of connection points: 2
#     Edge 84, Type (0, 0), BuildingBlock: CIFDUS_clean_linker_0, # of connection points: 2
#     Edge 85, Type (0, 0), BuildingBlock: CIFDUS_clean_linker_0, # of connection points: 2
#     Edge 86, Type (0, 0), BuildingBlock: CIFDUS_clean_linker_0, # of connection points: 2
#     Edge 87, Type (0, 0), BuildingBlock: CIFDUS_clean_linker_0, # of connection points: 2
#     Edge 88, Type (0, 0), BuildingBlock: CIFDUS_clean_linker_0, # of connection points: 2
#     Edge 89, Type (0, 0), BuildingBlock: CIFDUS_clean_linker_0, # of connection points: 2
#     Edge 90, Type (0, 0), BuildingBlock: CIFDUS_clean_linker_0, # of connection points: 2
#     Edge 91, Type (0, 0), BuildingBlock: CIFDUS_clean_linker_0, # of connection points: 2
#     Edge 92, Type (0, 0), BuildingBlock: CIFDUS_clean_linker_0, # of connection points: 2
#     Edge 93, Type (0, 0), BuildingBlock: CIFDUS_clean_linker_0, # of connection points: 2
#     Edge 94, Type (0, 0), BuildingBlock: CIFDUS_clean_linker_0, # of connection points: 2
#     Edge 95, Type (0, 0), BuildingBlock: CIFDUS_clean_linker_0, # of connection points: 2
#     Edge 96, Type (0, 0), BuildingBlock: CIFDUS_clean_linker_0, # of connection points: 2
#     Edge 97, Type (0, 0), BuildingBlock: CIFDUS_clean_linker_0, # of connection points: 2
#     Edge 98, Type (0, 0), BuildingBlock: CIFDUS_clean_linker_0, # of connection points: 2
#     Edge 99, Type (0, 0), BuildingBlock: CIFDUS_clean_linker_0, # of connection points: 2
#     Edge 100, Type (0, 0), BuildingBlock: CIFDUS_clean_linker_0, # of connection points: 2
#     Edge 101, Type (0, 0), BuildingBlock: CIFDUS_clean_linker_0, # of connection points: 2
#     Edge 102, Type (0, 0), BuildingBlock: CIFDUS_clean_linker_0, # of connection points: 2
#     Edge 103, Type (0, 0), BuildingBlock: CIFDUS_clean_linker_0, # of connection points: 2
#     Edge 104, Type (0, 0), BuildingBlock: CIFDUS_clean_linker_0, # of connection points: 2
#     Edge 105, Type (0, 0), BuildingBlock: CIFDUS_clean_linker_0, # of connection points: 2
#     Edge 106, Type (0, 0), BuildingBlock: CIFDUS_clean_linker_0, # of connection points: 2
#     Edge 107, Type (0, 0), BuildingBlock: CIFDUS_clean_linker_0, # of connection points: 2
# Relax obj value: 0.157
# Max RMSD: 0.150
# Mean RMSD: 0.150
data_MOF--net-cha--node1-NAHDIM_clean_sbu_0--edge1-CIFDUS_clean_linker_0
_symmetry_space_group_name_H-M    P1
_symmetry_Int_Tables_number       1
_symmetry_cell_setting            triclinic
loop_
_symmetry_equiv_pos_as_xyz
'x, y, z'
_cell_length_a     54.592359
_cell_length_b     54.59454
_cell_length_c     67.778995
_cell_angle_alpha  90.131043
_cell_angle_beta   89.858044
_cell_angle_gamma 119.9132
loop_
_atom_site_label
_atom_site_type_symbol
_atom_site_fract_x
_atom_site_fract_y
_atom_site_fract_z
_atom_type_partial_charge
C0 C 0.03809 0.29594 0.13214 0.0
O1 O 0.04259 0.27553 0.13784 0.0
O2 O 0.07086 0.26845 0.09707 0.0
Zn3 Zn 0.03537 0.27087 0.09477 0.0
O4 O 0.00109 0.2332 0.1004 0.0
C5 C 0.0528 0.29491 0.05569 0.0
O6 O 0.07833 0.3039 0.06265 0.0
O7 O 0.03537 0.29898 0.11385 0.0
C8 C 0.99406 0.21255 0.08869 0.0
O9 O 0.01008 0.21593 0.07326 0.0
C10 C 0.07201 0.24879 0.10628 0.0
O11 O 0.04938 0.22939 0.11541 0.0
O12 O 0.03162 0.28124 0.06695 0.0
C13 C 0.7613 0.7653 0.13801 0.0
O14 O 0.78185 0.78869 0.14562 0.0
O15 O 0.79157 0.82989 0.10626 0.0
Zn16 Zn 0.78875 0.79215 0.10187 0.0
O17 O 0.8259 0.7941 0.10676 0.0
C18 C 0.76213 0.78525 0.06358 0.0
O19 O 0.74905 0.7971 0.0722 0.0
O20 O 0.75951 0.76242 0.11938 0.0
C21 C 0.84604 0.80785 0.09472 0.0
O22 O 0.84239 0.82176 0.0803 0.0
C23 C 0.81065 0.84932 0.11677 0.0
O24 O 0.82926 0.84468 0.12572 0.0
O25 O 0.77918 0.78078 0.07354 0.0
C26 C 0.2918 0.9937 0.11875 0.0
O27 O 0.26549 0.97966 0.12493 0.0
O28 O 0.22995 0.95409 0.08821 0.0
Zn29 Zn 0.26332 0.99291 0.0838 0.0
O30 O 0.25333 0.02278 0.09123 0.0
C31 C 0.25319 -0.0013 0.04451 0.0
O32 O 0.23051 0.99568 0.05354 0.0
O33 O 0.29656 0.00037 0.10062 0.0
C34 C 0.2667 0.04658 0.08267 0.0
O35 O 0.28677 0.05116 0.07 0.0
C36 C 0.20899 0.95041 0.09861 0.0
O37 O 0.20985 0.97221 0.10753 0.0
O38 O 0.27203 -0.00279 0.05459 0.0
C39 C 0.28195 0.03522 0.85843 0.0
O40 O 0.26908 0.04746 0.85019 0.0
O41 O 0.25512 0.07404 0.88649 0.0
Zn42 Zn 0.25144 0.03633 0.893 0.0
O43 O 0.21146 0.00503 0.88821 0.0
C44 C 0.25511 0.04992 0.93432 0.0
O45 O 0.24754 0.06784 0.92786 0.0
O46 O 0.27797 0.02903 0.87665 0.0
C47 C 0.19102 0.00515 0.89716 0.0
O48 O 0.19623 0.02647 0.9088 0.0
C49 C 0.23912 0.07662 0.87409 0.0
O50 O 0.22034 0.05424 0.8644 0.0
O51 O 0.25931 0.03484 0.92196 0.0
C52 C 0.00946 0.28923 0.86839 0.0
O53 O 0.0012 0.26311 0.86301 0.0
O54 O 0.97714 0.23129 0.90327 0.0
Zn55 Zn 0.01471 0.26706 0.90475 0.0
O56 O 0.04651 0.26057 0.89696 0.0
C57 C 0.00154 0.27691 0.94425 0.0
O58 O 0.97563 0.26463 0.93733 0.0
O59 O 0.01563 0.29615 0.88637 0.0
C60 C 0.05334 0.24574 0.90752 0.0
O61 O 0.03827 0.23317 0.9233 0.0
C62 C 0.97267 0.20935 0.89379 0.0
O63 O 0.99349 0.20944 0.88397 0.0
O64 O 0.02166 0.28103 0.93275 0.0
C65 C 0.74433 0.7486 0.87721 0.0
O66 O 0.76938 0.75389 0.87119 0.0
O67 O 0.81111 0.78567 0.90204 0.0
Zn68 Zn 0.77532 0.785 0.91033 0.0
O69 O 0.78133 0.82424 0.90811 0.0
C70 C 0.77901 0.7642 0.94915 0.0
O71 O 0.79703 0.75824 0.94058 0.0
O72 O 0.7421 0.75902 0.89344 0.0
C73 C 0.79955 0.84339 0.91924 0.0
O74 O 0.81424 0.83699 0.93138 0.0
C75 C 0.82658 0.80225 0.88846 0.0
O76 O 0.81842 0.81823 0.87942 0.0
O77 O 0.76685 0.77448 0.93892 0.0
C78 C 0.02089 0.77046 0.84996 0.0
O79 O 0.01734 0.79132 0.8439 0.0
O80 O 0.98076 0.78832 0.88886 0.0
Zn81 Zn 0.01998 0.79394 0.88729 0.0
O82 O 0.04854 0.83329 0.87889 0.0
C83 C 0.01496 0.76979 0.92616 0.0
O84 O 0.98931 0.75146 0.92025 0.0
O85 O 0.02179 0.76667 0.86837 0.0
C86 C 0.05253 0.85432 0.88932 0.0
O87 O 0.03615 0.85006 0.90468 0.0
C88 C 0.9722 0.80205 0.87866 0.0
O89 O 0.98947 0.82089 0.86591 0.0
O90 O 0.03161 0.78896 0.91437 0.0
C91 C 0.28689 0.3111 0.86635 0.0
O92 O 0.27612 0.28589 0.85835 0.0
O93 O 0.26588 0.24734 0.8959 0.0
Zn94 Zn 0.25867 0.27947 0.90137 0.0
O95 O 0.2176 0.26673 0.89743 0.0
C96 C 0.28182 0.28456 0.94051 0.0
O97 O 0.29468 0.27211 0.93245 0.0
O98 O 0.28247 0.31325 0.8845 0.0
C99 C 0.19996 0.2478 0.90898 0.0
O100 O 0.20921 0.23653 0.922 0.0
C101 C 0.25076 0.22747 0.88401 0.0
O102 O 0.2305 0.22842 0.87424 0.0
O103 O 0.26645 0.29052 0.92984 0.0
C104 C 0.74745 0.02166 0.86898 0.0
O105 O 0.77073 0.02244 0.86297 0.0
O106 O 0.81149 0.06007 0.89983 0.0
Zn107 Zn 0.77386 0.02563 0.90536 0.0
O108 O 0.77619 0.99046 0.90123 0.0
C109 C 0.77222 0.04894 0.94333 0.0
O110 O 0.78741 0.07319 0.93423 0.0
O111 O 0.74401 0.02376 0.88732 0.0
C112 C 0.79172 0.98513 0.91224 0.0
O113 O 0.80682 0.00331 0.92607 0.0
C114 C 0.83081 0.05976 0.88951 0.0
O115 O 0.82623 0.03599 0.88137 0.0
O116 O 0.76341 0.02609 0.9337 0.0
C117 C 0.7739 0.04257 0.13262 0.0
O118 O 0.79583 0.0403 0.13789 0.0
O119 O 0.78717 0.99616 0.09797 0.0
Zn120 Zn 0.79089 0.03441 0.09445 0.0
O121 O 0.8315 0.06507 0.09672 0.0
C122 C 0.75959 0.01535 0.05794 0.0
O123 O 0.7469 0.99078 0.06695 0.0
O124 O 0.76738 0.04051 0.11448 0.0
C125 C 0.84893 0.06625 0.08376 0.0
O126 O 0.84001 0.04675 0.06996 0.0
C127 C 0.80449 0.99189 0.10778 0.0
O128 O 0.82596 0.01328 0.11655 0.0
O129 O 0.77829 0.03688 0.06711 0.0
C130 C 0.00559 0.7351 0.11991 0.0
O131 O 0.01452 0.7605 0.12714 0.0
O132 O 0.05101 0.79781 0.09011 0.0
Zn133 Zn 0.01267 0.76461 0.08375 0.0
O134 O 0.98313 0.77584 0.08776 0.0
C135 C 0.02954 0.76759 0.04275 0.0
O136 O 0.05282 0.78997 0.04876 0.0
O137 O 0.00361 0.73161 0.10133 0.0
C138 C 0.98309 0.7945 0.0766 0.0
O139 O 0.00263 0.8062 0.0629 0.0
C140 C 0.05351 0.8173 0.10168 0.0
O141 O 0.03082 0.81527 0.10999 0.0
O142 O 0.01027 0.75318 0.05523 0.0
C143 C 0.28005 0.26088 0.12894 0.0
O144 O 0.25418 0.25068 0.13566 0.0
O145 O 0.21838 0.23175 0.09713 0.0
Zn146 Zn 0.25368 0.22971 0.09273 0.0
O147 O 0.2466 0.18988 0.09418 0.0
C148 C 0.26642 0.26244 0.05635 0.0
O149 O 0.25337 0.27447 0.06475 0.0
O150 O 0.28396 0.25436 0.11169 0.0
C151 C 0.23757 0.17516 0.07855 0.0
O152 O 0.23087 0.18554 0.06337 0.0
C153 C 0.19762 0.21386 0.10734 0.0
O154 O 0.1989 0.19277 0.1156 0.0
O155 O 0.26891 0.24366 0.06566 0.0
C156 C 0.6997 0.63301 0.44638 0.0
O157 O 0.7179 0.62672 0.45412 0.0
O158 O 0.73618 0.60203 0.42167 0.0
Zn159 Zn 0.69788 0.59632 0.4148 0.0
O160 O 0.66791 0.55649 0.42135 0.0
C161 C 0.67328 0.58927 0.37648 0.0
O162 O 0.65001 0.57356 0.38654 0.0
O163 O 0.68917 0.62303 0.42956 0.0
C164 C 0.66795 0.53548 0.41326 0.0
O165 O 0.68846 0.54002 0.40099 0.0
C166 C 0.73953 0.58793 0.43522 0.0
O167 O 0.71757 0.56993 0.44565 0.0
O168 O 0.69671 0.60197 0.38557 0.0
C169 C 0.43082 0.08867 0.4568 0.0
O170 O 0.44624 0.1142 0.46409 0.0
O171 O 0.45211 0.15068 0.42416 0.0
Zn172 Zn 0.45787 0.11713 0.42077 0.0
O173 O 0.49805 0.12823 0.42701 0.0
C174 C 0.43669 0.10792 0.38011 0.0
O175 O 0.42164 0.11927 0.38606 0.0
O176 O 0.43185 0.08484 0.43838 0.0
C177 C 0.51771 0.1481 0.41713 0.0
O178 O 0.51112 0.16154 0.404 0.0
C179 C 0.467 0.17045 0.43621 0.0
O180 O 0.48606 0.16865 0.44692 0.0
O181 O 0.45232 0.1046 0.3924 0.0
C182 C 0.97151 0.34913 0.45411 0.0
O183 O 0.94603 0.33772 0.46175 0.0
O184 O 0.90723 0.31335 0.42602 0.0
Zn185 Zn 0.94134 0.35142 0.4209 0.0
O186 O 0.93424 0.38248 0.42967 0.0
C187 C 0.94343 0.33527 0.38054 0.0
O188 O 0.93239 0.30986 0.38822 0.0
O189 O 0.97489 0.35593 0.43599 0.0
C190 C 0.91579 0.38663 0.42138 0.0
O191 O 0.90038 0.36963 0.40711 0.0
C192 C 0.88796 0.30929 0.43833 0.0
O193 O 0.89015 0.3307 0.44862 0.0
O194 O 0.94957 0.35618 0.3918 0.0
C195 C 0.97278 0.37231 0.19458 0.0
O196 O 0.96322 0.38882 0.18855 0.0
O197 O 0.93266 0.39643 0.22342 0.0
Zn198 Zn 0.93482 0.36111 0.22794 0.0
O199 O 0.8973 0.32693 0.22177 0.0
C200 C 0.95565 0.38026 0.26754 0.0
O201 O 0.965 0.40546 0.25986 0.0
O202 O 0.96428 0.35955 0.21099 0.0
C203 C 0.87429 0.32478 0.2279 0.0
O204 O 0.87506 0.34558 0.23819 0.0
C205 C 0.91754 0.39834 0.20996 0.0
O206 O 0.90365 0.37701 0.19781 0.0
O207 O 0.9428 0.35859 0.25657 0.0
C208 C 0.67032 0.61577 0.18896 0.0
O209 O 0.656 0.5911 0.18019 0.0
O210 O 0.63411 0.54794 0.21191 0.0
Zn211 Zn 0.67051 0.58138 0.22085 0.0
O212 O 0.70348 0.5756 0.2156 0.0
C213 C 0.64801 0.56715 0.26042 0.0
O214 O 0.62767 0.54509 0.2514 0.0
O215 O 0.67792 0.61671 0.20677 0.0
C216 C 0.70673 0.55741 0.22512 0.0
O217 O 0.68732 0.54108 0.23791 0.0
C218 C 0.63176 0.52779 0.20117 0.0
O219 O 0.65454 0.52908 0.19359 0.0
O220 O 0.66843 0.58591 0.25033 0.0
C221 C 0.42416 0.09437 0.18493 0.0
O222 O 0.44901 0.11497 0.17939 0.0
O223 O 0.4829 0.12471 0.21907 0.0
Zn224 Zn 0.44448 0.12089 0.22237 0.0
O225 O 0.4468 0.15833 0.21793 0.0
C226 C 0.44231 0.10183 0.26285 0.0
O227 O 0.46324 0.0981 0.25716 0.0
O228 O 0.41724 0.09233 0.20303 0.0
C229 C 0.46164 0.17809 0.22998 0.0
O230 O 0.47564 0.17349 0.24384 0.0
C231 C 0.50222 0.14374 0.20845 0.0
O232 O 0.4973 0.16199 0.19923 0.0
O233 O 0.43064 0.11003 0.25034 0.0
C234 C 0.685 0.09405 0.19595 0.0
O235 O 0.66518 0.0993 0.19006 0.0
O236 O 0.65079 0.12378 0.22614 0.0
Zn237 Zn 0.68966 0.12907 0.23001 0.0
O238 O 0.72049 0.16922 0.22436 0.0
C239 C 0.69932 0.13973 0.27113 0.0
O240 O 0.70335 0.1643 0.26515 0.0
O241 O 0.69699 0.10366 0.21245 0.0
C242 C 0.71882 0.19157 0.22598 0.0
O243 O 0.69473 0.18962 0.23122 0.0
C244 C 0.64384 0.13536 0.21273 0.0
O245 O 0.66269 0.15153 0.19957 0.0
O246 O 0.69282 0.12016 0.25854 0.0
C247 C 0.93979 0.61883 0.20436 0.0
O248 O 0.92686 0.59318 0.19693 0.0
O249 O 0.91901 0.55748 0.23636 0.0
Zn250 Zn 0.91034 0.58908 0.23925 0.0
O251 O 0.87017 0.5761 0.23169 0.0
C252 C 0.9323 0.60037 0.27917 0.0
O253 O 0.94986 0.59253 0.27229 0.0
O254 O 0.93627 0.62227 0.22247 0.0
C255 C 0.85016 0.55614 0.24127 0.0
O256 O 0.85632 0.54345 0.25524 0.0
C257 C 0.90612 0.53736 0.22415 0.0
O258 O 0.88654 0.5371 0.21277 0.0
O259 O 0.91432 0.60095 0.26762 0.0
C260 C 0.39875 0.34121 0.21009 0.0
O261 O 0.4237 0.34903 0.20243 0.0
O262 O 0.46379 0.39034 0.23466 0.0
Zn263 Zn 0.43192 0.35282 0.24392 0.0
O264 O 0.44197 0.32255 0.23944 0.0
C265 C 0.43773 0.37644 0.28315 0.0
O266 O 0.45399 0.40056 0.27419 0.0
O267 O 0.3965 0.34191 0.2287 0.0
C268 C 0.46061 0.3214 0.24993 0.0
O269 O 0.47379 0.3407 0.26358 0.0
C270 C 0.4828 0.39239 0.22279 0.0
O271 O 0.48155 0.36931 0.21585 0.0
O272 O 0.42549 0.35385 0.27303 0.0
C273 C 0.43233 0.35994 0.47094 0.0
O274 O 0.44913 0.35179 0.47869 0.0
O275 O 0.45928 0.32253 0.439 0.0
Zn276 Zn 0.46006 0.35939 0.43483 0.0
O277 O 0.49881 0.39251 0.43961 0.0
C278 C 0.4315 0.34043 0.39738 0.0
O279 O 0.41747 0.31605 0.40651 0.0
O280 O 0.43274 0.36345 0.4524 0.0
C281 C 0.51992 0.39551 0.42969 0.0
O282 O 0.51637 0.37583 0.41696 0.0
C283 C 0.47612 0.31988 0.45055 0.0
O284 O 0.4944 0.3418 0.46087 0.0
O285 O 0.45034 0.3617 0.40668 0.0
C286 C 0.69516 0.08379 0.4553 0.0
O287 O 0.70599 0.10739 0.4655 0.0
O288 O 0.73468 0.15359 0.43665 0.0
Zn289 Zn 0.6986 0.12165 0.42574 0.0
O290 O 0.6651 0.12612 0.43251 0.0
C291 C 0.71837 0.14558 0.38777 0.0
O292 O 0.73299 0.16805 0.3988 0.0
O293 O 0.69098 0.08457 0.43695 0.0
C294 C 0.66179 0.14583 0.42547 0.0
O295 O 0.68153 0.16496 0.41409 0.0
C296 C 0.73654 0.17215 0.44885 0.0
O297 O 0.71343 0.16985 0.45663 0.0
O298 O 0.70203 0.12205 0.39604 0.0
C299 C 0.95544 0.60992 0.47284 0.0
O300 O 0.92957 0.59629 0.47985 0.0
O301 O 0.8937 0.58581 0.44115 0.0
Zn302 Zn 0.92829 0.5826 0.43626 0.0
O303 O 0.91914 0.54233 0.43903 0.0
C304 C 0.9303 0.60329 0.39648 0.0
O305 O 0.91063 0.60839 0.40307 0.0
O306 O 0.95968 0.60734 0.4547 0.0
C307 C 0.9007 0.52402 0.42754 0.0
O308 O 0.88723 0.53186 0.41532 0.0
C309 C 0.87345 0.56922 0.4523 0.0
O310 O 0.87515 0.54923 0.46189 0.0
O311 O 0.94131 0.59338 0.4082 0.0
C312 C 0.36114 0.96317 0.80647 0.0
O313 O 0.36826 0.94558 0.81423 0.0
O314 O 0.40382 0.93959 0.77743 0.0
Zn315 Zn 0.36832 0.94004 0.7701 0.0
O316 O 0.33541 0.90052 0.77165 0.0
C317 C 0.39532 0.9689 0.73379 0.0
O318 O 0.4184 0.979 0.74448 0.0
O319 O 0.36067 0.96507 0.78781 0.0
C320 C 0.33623 0.881 0.76194 0.0
O321 O 0.35875 0.88721 0.75131 0.0
C322 C 0.4041 0.92126 0.78882 0.0
O323 O 0.38058 0.90268 0.79753 0.0
O324 O 0.37158 0.95258 0.74182 0.0
C325 C 0.07558 0.42571 0.80081 0.0
O326 O 0.0898 0.45235 0.80622 0.0
O327 O 0.10374 0.48494 0.7677 0.0
Zn328 Zn 0.10464 0.44883 0.76436 0.0
O329 O 0.14381 0.4556 0.76908 0.0
C330 C 0.08046 0.44275 0.72548 0.0
O331 O 0.06967 0.45735 0.73327 0.0
O332 O 0.078 0.41912 0.78321 0.0
C333 C 0.16358 0.47193 0.75751 0.0
O334 O 0.15798 0.48478 0.74333 0.0
C335 C 0.12128 0.50559 0.77817 0.0
O336 O 0.14091 0.50349 0.78793 0.0
O337 O 0.09499 0.43577 0.73626 0.0
C338 C 0.63071 0.68941 0.79107 0.0
O339 O 0.60657 0.68663 0.79713 0.0
O340 O 0.56877 0.65004 0.75742 0.0
Zn341 Zn 0.60509 0.68697 0.75436 0.0
O342 O 0.59896 0.71956 0.76049 0.0
C343 C 0.6118 0.66973 0.71531 0.0
O344 O 0.59807 0.64433 0.72308 0.0
O345 O 0.63501 0.68923 0.77265 0.0
C346 C 0.58189 0.72387 0.75039 0.0
O347 O 0.56755 0.7062 0.73611 0.0
C348 C 0.54807 0.64712 0.76782 0.0
O349 O 0.5504 0.66883 0.77779 0.0
O350 O 0.61787 0.69107 0.72611 0.0
C351 C 0.6381 0.69366 0.52694 0.0
O352 O 0.61729 0.69641 0.51971 0.0
O353 O 0.61346 0.73352 0.55874 0.0
Zn354 Zn 0.61254 0.69657 0.56272 0.0
O355 O 0.57407 0.66415 0.55616 0.0
C356 C 0.63478 0.71423 0.6021 0.0
O357 O 0.64666 0.73958 0.59425 0.0
O358 O 0.64107 0.69394 0.54553 0.0
C359 C 0.55258 0.66072 0.56577 0.0
O360 O 0.55588 0.67896 0.57965 0.0
C361 C 0.59633 0.73642 0.54766 0.0
O362 O 0.57742 0.71463 0.53755 0.0
O363 O 0.61995 0.69282 0.59128 0.0
C364 C 0.36596 0.97366 0.54232 0.0
O365 O 0.35585 0.9481 0.53505 0.0
O366 O 0.32094 0.91027 0.57087 0.0
Zn367 Zn 0.35876 0.94344 0.57812 0.0
O368 O 0.38891 0.9328 0.57487 0.0
C369 C 0.37951 0.96644 0.61689 0.0
O370 O 0.4042 0.97707 0.60808 0.0
O371 O 0.36857 0.9771 0.5609 0.0
C372 C 0.38921 0.91425 0.586 0.0
O373 O 0.36942 0.90198 0.59948 0.0
C374 C 0.31845 0.89035 0.55978 0.0
O375 O 0.34119 0.89185 0.55194 0.0
O376 O 0.35718 0.95226 0.60679 0.0
C377 C 0.08642 0.41514 0.53851 0.0
O378 O 0.11192 0.43084 0.53122 0.0
O379 O 0.14907 0.44767 0.56914 0.0
Zn380 Zn 0.11262 0.44783 0.57322 0.0
O381 O 0.11727 0.4857 0.56629 0.0
C382 C 0.10666 0.42439 0.61229 0.0
O383 O 0.11921 0.41164 0.60421 0.0
O384 O 0.08183 0.41827 0.55646 0.0
C385 C 0.13632 0.50803 0.57451 0.0
O386 O 0.15344 0.50612 0.58721 0.0
C387 C 0.16818 0.46391 0.55711 0.0
O388 O 0.16426 0.48172 0.54643 0.0
O389 O 0.10143 0.44046 0.60175 0.0
C390 C 0.36057 0.43798 0.52407 0.0
O391 O 0.34883 0.45163 0.51627 0.0
O392 O 0.32547 0.46731 0.55398 0.0
Zn393 Zn 0.36236 0.46883 0.55926 0.0
O394 O 0.39504 0.50809 0.55554 0.0
C395 C 0.34063 0.4429 0.59719 0.0
O396 O 0.31619 0.43109 0.58802 0.0
O397 O 0.36756 0.44182 0.54215 0.0
C398 C 0.39691 0.52761 0.56677 0.0
O399 O 0.37653 0.52177 0.57951 0.0
C400 C 0.32241 0.48446 0.54304 0.0
O401 O 0.34437 0.50431 0.53359 0.0
O402 O 0.36301 0.45903 0.58764 0.0
C403 C 0.61955 0.95358 0.5281 0.0
O404 O 0.60339 0.92971 0.5188 0.0
O405 O 0.58715 0.88687 0.55519 0.0
Zn406 Zn 0.58677 0.92247 0.56188 0.0
O407 O 0.54895 0.9191 0.5569 0.0
C408 C 0.61038 0.92315 0.60011 0.0
O409 O 0.62147 0.90988 0.59076 0.0
O410 O 0.61631 0.95507 0.54653 0.0
C411 C 0.52869 0.90476 0.56874 0.0
O412 O 0.53252 0.89093 0.58313 0.0
C413 C 0.5696 0.8672 0.54407 0.0
O414 O 0.54925 0.86963 0.53567 0.0
O415 O 0.59522 0.93072 0.59065 0.0
C416 C 0.10166 0.69011 0.53035 0.0
O417 O 0.12705 0.69853 0.52329 0.0
O418 O 0.16507 0.73379 0.55936 0.0
Zn419 Zn 0.13068 0.69682 0.56661 0.0
O420 O 0.13799 0.66409 0.56443 0.0
C421 C 0.14091 0.71124 0.60708 0.0
O422 O 0.16694 0.72409 0.60036 0.0
O423 O 0.09802 0.68853 0.54893 0.0
C424 C 0.15943 0.66414 0.57177 0.0
O425 O 0.1791 0.68713 0.58036 0.0
C426 C 0.1849 0.73637 0.54814 0.0
O427 O 0.18307 0.71382 0.53972 0.0
O428 O 0.12056 0.69861 0.59503 0.0
C429 C 0.08718 0.69085 0.79262 0.0
O430 O 0.09615 0.67461 0.80018 0.0
O431 O 0.12671 0.66311 0.77076 0.0
Zn432 Zn 0.12813 0.69926 0.76281 0.0
O433 O 0.16511 0.7335 0.77044 0.0
C434 C 0.13679 0.68845 0.72326 0.0
O435 O 0.14796 0.67539 0.73265 0.0
O436 O 0.09708 0.70282 0.77613 0.0
C437 C 0.18899 0.73691 0.76523 0.0
O438 O 0.1901 0.71669 0.75546 0.0
C439 C 0.14201 0.66058 0.78377 0.0
O440 O 0.16011 0.68286 0.79387 0.0
O441 O 0.12516 0.69975 0.7331 0.0
C442 C 0.34597 0.43268 0.78544 0.0
O443 O 0.35305 0.45728 0.79342 0.0
O444 O 0.38791 0.4977 0.7571 0.0
Zn445 Zn 0.3508 0.46333 0.75034 0.0
O446 O 0.31861 0.47064 0.75467 0.0
C447 C 0.37313 0.46042 0.71221 0.0
O448 O 0.39751 0.47301 0.72146 0.0
O449 O 0.34425 0.43021 0.76679 0.0
C450 C 0.31559 0.48749 0.74338 0.0
O451 O 0.3344 0.50077 0.72946 0.0
C452 C 0.39015 0.51738 0.76833 0.0
O453 O 0.36734 0.51539 0.77643 0.0
O454 O 0.35064 0.45394 0.72173 0.0
C455 C 0.62999 0.95822 0.7856 0.0
O456 O 0.60555 0.95443 0.79185 0.0
O457 O 0.56462 0.92852 0.76 0.0
Zn458 Zn 0.5966 0.9216 0.7536 0.0
O459 O 0.58586 0.8811 0.75807 0.0
C460 C 0.60064 0.94612 0.71517 0.0
O461 O 0.59005 0.95996 0.72436 0.0
O462 O 0.63104 0.94657 0.76962 0.0
C463 C 0.56765 0.86198 0.74691 0.0
O464 O 0.55475 0.86896 0.73361 0.0
C465 C 0.54513 0.91456 0.77244 0.0
O466 O 0.54531 0.89399 0.78233 0.0
O467 O 0.60581 0.92934 0.72487 0.0
H468 H 0.08073 0.20819 0.12253 0.0
H469 H 0.12212 0.2854 0.08868 0.0
H470 H 0.16464 0.28157 0.08638 0.0
H471 H 0.18967 0.25582 0.09317 0.0
H472 H 0.14853 0.17846 0.12682 0.0
H473 H 0.10631 0.1829 0.13 0.0
C474 C 0.09909 0.22426 0.11472 0.0
C475 C 0.09817 0.24701 0.10575 0.0
C476 C 0.12349 0.22187 0.11335 0.0
C477 C 0.12219 0.26764 0.0957 0.0
C478 C 0.14654 0.26546 0.09435 0.0
C479 C 0.17151 0.23992 0.10124 0.0
C480 C 0.17224 0.21678 0.10969 0.0
C481 C 0.14734 0.24257 0.10298 0.0
C482 C 0.14853 0.19646 0.12014 0.0
C483 C 0.12437 0.19898 0.12197 0.0
H484 H 0.83773 0.9754 0.12688 0.0
H485 H 0.76329 0.9439 0.09037 0.0
H486 H 0.75825 0.89698 0.09047 0.0
H487 H 0.77558 0.86519 0.10005 0.0
H488 H 0.85012 0.89636 0.13638 0.0
H489 H 0.85439 0.94307 0.13726 0.0
C490 C 0.82034 0.95826 0.119 0.0
C491 C 0.801 0.96324 0.10858 0.0
C492 C 0.81758 0.93126 0.11905 0.0
C493 C 0.77854 0.94073 0.09849 0.0
C494 C 0.77563 0.91385 0.09852 0.0
C495 C 0.79272 0.88214 0.10824 0.0
C496 C 0.81255 0.87728 0.11807 0.0
C497 C 0.79513 0.90894 0.10862 0.0
C498 C 0.83457 0.89951 0.12865 0.0
C499 C 0.83706 0.92625 0.12914 0.0
H500 H 0.10415 0.82867 0.08619 0.0
H501 H 0.06541 0.86338 0.1242 0.0
H502 H 0.11058 0.90696 0.12759 0.0
H503 H 0.16033 0.93621 0.11829 0.0
H504 H 0.19904 0.90186 0.07993 0.0
H505 H 0.15465 0.85707 0.07833 0.0
C506 C 0.10561 0.84568 0.09533 0.0
C507 C 0.08137 0.84282 0.1048 0.0
C508 C 0.13163 0.87079 0.09713 0.0
C509 C 0.08369 0.86504 0.11666 0.0
C510 C 0.10952 0.89001 0.11861 0.0
C511 C 0.15916 0.91887 0.1097 0.0
C512 C 0.18293 0.92249 0.09913 0.0
C513 C 0.13352 0.89326 0.10868 0.0
C514 C 0.18105 0.89972 0.08816 0.0
C515 C 0.15564 0.87409 0.08719 0.0
H516 H 0.2742 0.12611 0.89268 0.0
H517 H 0.20587 0.08864 0.85061 0.0
H518 H 0.2046 0.13265 0.84908 0.0
H519 H 0.22091 0.18075 0.86119 0.0
H520 H 0.28881 0.21787 0.90362 0.0
H521 H 0.29228 0.17504 0.90336 0.0
C522 C 0.25917 0.1276 0.88304 0.0
C523 C 0.24003 0.10402 0.87188 0.0
C524 C 0.25837 0.15288 0.88235 0.0
C525 C 0.22078 0.10641 0.85942 0.0
C526 C 0.21999 0.13157 0.85855 0.0
C527 C 0.23663 0.17958 0.87027 0.0
C528 C 0.25442 0.20243 0.88251 0.0
C529 C 0.23839 0.15478 0.87019 0.0
C530 C 0.27475 0.20057 0.89411 0.0
C531 C 0.27674 0.17606 0.89401 0.0
H532 H 0.95583 0.15876 0.87576 0.0
H533 H 0.92567 0.2027 0.9128 0.0
H534 H 0.87908 0.16058 0.91424 0.0
H535 H 0.84717 0.11115 0.90566 0.0
H536 H 0.877 0.06671 0.86888 0.0
H537 H 0.92342 0.10924 0.86663 0.0
C538 C 0.93905 0.15915 0.8841 0.0
C539 C 0.9443 0.18385 0.89418 0.0
C540 C 0.91225 0.13479 0.88494 0.0
C541 C 0.92228 0.18398 0.90491 0.0
C542 C 0.89559 0.15989 0.90577 0.0
C543 C 0.86376 0.11074 0.89707 0.0
C544 C 0.85861 0.08575 0.88748 0.0
C545 C 0.89039 0.13517 0.89592 0.0
C546 C 0.88038 0.08565 0.87643 0.0
C547 C 0.90696 0.10996 0.87515 0.0
H548 H 0.84964 0.77292 0.90471 0.0
H549 H 0.86503 0.83631 0.86088 0.0
H550 H 0.91108 0.84125 0.85354 0.0
H551 H 0.94762 0.82865 0.86029 0.0
H552 H 0.93213 0.76547 0.90434 0.0
H553 H 0.88548 0.75938 0.91078 0.0
C554 C 0.86299 0.78774 0.89348 0.0
C555 C 0.85391 0.80428 0.88342 0.0
C556 C 0.88949 0.79058 0.88939 0.0
C557 C 0.87149 0.82334 0.86889 0.0
C558 C 0.89787 0.82621 0.86468 0.0
C559 C 0.934 0.81346 0.87124 0.0
C560 C 0.94345 0.79764 0.88185 0.0
C561 C 0.90718 0.81011 0.87496 0.0
C562 C 0.92547 0.778 0.89597 0.0
C563 C 0.89876 0.77449 0.89969 0.0
H564 H 0.7524 0.55631 0.45946 0.0
H565 H 0.78934 0.62464 0.41734 0.0
H566 H 0.83451 0.62594 0.41992 0.0
H567 H 0.86263 0.60591 0.43251 0.0
H568 H 0.82568 0.53679 0.474 0.0
H569 H 0.78142 0.53775 0.47337 0.0
C570 C 0.77039 0.57166 0.45098 0.0
C571 C 0.76742 0.59021 0.43813 0.0
C572 C 0.79625 0.57209 0.45234 0.0
C573 C 0.79097 0.61 0.42726 0.0
C574 C 0.81683 0.61076 0.42871 0.0
C575 C 0.845 0.59117 0.44155 0.0
C576 C 0.84742 0.57118 0.45318 0.0
C577 C 0.81956 0.59161 0.44094 0.0
C578 C 0.82435 0.55232 0.46484 0.0
C579 C 0.79902 0.55282 0.46447 0.0
H580 H 0.44352 0.27213 0.42936 0.0
H581 H 0.50925 0.307 0.47345 0.0
H582 H 0.51146 0.26343 0.47338 0.0
H583 H 0.49606 0.21623 0.45992 0.0
H584 H 0.43078 0.18163 0.41549 0.0
H585 H 0.42706 0.22434 0.41666 0.0
C586 C 0.45823 0.27018 0.43905 0.0
C587 C 0.47627 0.29287 0.45133 0.0
C588 C 0.45956 0.24516 0.43883 0.0
C589 C 0.49518 0.28992 0.4638 0.0
C590 C 0.49648 0.26501 0.46376 0.0
C591 C 0.48092 0.21794 0.45054 0.0
C592 C 0.46382 0.19578 0.43758 0.0
C593 C 0.47899 0.24262 0.45119 0.0
C594 C 0.44426 0.19837 0.42558 0.0
C595 C 0.44212 0.22281 0.42622 0.0
H596 H 0.84113 0.29413 0.46083 0.0
H597 H 0.87811 0.26064 0.42012 0.0
H598 H 0.83533 0.21455 0.42134 0.0
H599 H 0.78654 0.18474 0.43204 0.0
H600 H 0.7485 0.2181 0.47188 0.0
H601 H 0.79282 0.26317 0.47313 0.0
C602 C 0.83992 0.27669 0.45235 0.0
C603 C 0.86272 0.28093 0.44027 0.0
C604 C 0.8151 0.25023 0.45294 0.0
C605 C 0.86083 0.25806 0.42943 0.0
C606 C 0.83637 0.23166 0.43012 0.0
C607 C 0.78796 0.20172 0.4412 0.0
C608 C 0.76415 0.1981 0.45173 0.0
C609 C 0.81324 0.22765 0.44155 0.0
C610 C 0.76647 0.22034 0.46356 0.0
C611 C 0.79178 0.24616 0.46423 0.0
H612 H 0.94272 0.4452 0.23309 0.0
H613 H 0.88434 0.4079 0.18462 0.0
H614 H 0.87624 0.44803 0.18439 0.0
H615 H 0.88435 0.49278 0.19878 0.0
H616 H 0.9426 0.5298 0.24736 0.0
H617 H 0.95212 0.49065 0.24666 0.0
C618 C 0.92833 0.44588 0.22238 0.0
C619 C 0.91407 0.4235 0.20895 0.0
C620 C 0.92364 0.46891 0.2224 0.0
C621 C 0.89557 0.42481 0.19515 0.0
C622 C 0.89087 0.44773 0.19503 0.0
C623 C 0.89919 0.49235 0.20918 0.0
C624 C 0.91261 0.51413 0.22316 0.0
C625 C 0.90456 0.46974 0.20873 0.0
C626 C 0.93191 0.51329 0.23646 0.0
C627 C 0.93737 0.4909 0.23609 0.0
H628 H 0.58221 0.51798 0.21733 0.0
H629 H 0.61929 0.47818 0.18276 0.0
H630 H 0.57537 0.4329 0.18516 0.0
H631 H 0.52813 0.40395 0.19966 0.0
H632 H 0.49209 0.44392 0.23517 0.0
H633 H 0.53403 0.48986 0.22976 0.0
C634 C 0.58065 0.4995 0.2101 0.0
C635 C 0.60413 0.50142 0.20005 0.0
C636 C 0.55562 0.47351 0.21187 0.0
C637 C 0.6016 0.47728 0.19066 0.0
C638 C 0.57653 0.45135 0.1921 0.0
C639 C 0.52932 0.42273 0.20607 0.0
C640 C 0.50711 0.42043 0.21798 0.0
C641 C 0.55367 0.4491 0.2031 0.0
C642 C 0.50895 0.44503 0.22606 0.0
C643 C 0.53294 0.47133 0.22298 0.0
H644 H 0.51963 0.11105 0.22693 0.0
H645 H 0.54693 0.17961 0.18534 0.0
H646 H 0.59273 0.18218 0.18225 0.0
H647 H 0.62546 0.16573 0.19201 0.0
H648 H 0.59822 0.09788 0.2342 0.0
H649 H 0.55191 0.09418 0.23627 0.0
C650 C 0.53555 0.12653 0.21714 0.0
C651 C 0.52986 0.14514 0.20642 0.0
C652 C 0.56186 0.128 0.21551 0.0
C653 C 0.55077 0.16507 0.19382 0.0
C654 C 0.57697 0.16654 0.19202 0.0
C655 C 0.60931 0.14999 0.20153 0.0
C656 C 0.61531 0.13214 0.21294 0.0
C657 C 0.5828 0.1482 0.20286 0.0
C658 C 0.59421 0.11196 0.2253 0.0
C659 C 0.5677 0.10982 0.22652 0.0
H660 H 0.45404 0.95308 0.76993 0.0
H661 H 0.41169 0.88331 0.81048 0.0
H662 H 0.45228 0.8759 0.80979 0.0
H663 H 0.49854 0.88736 0.79597 0.0
H664 H 0.53997 0.95657 0.75484 0.0
H665 H 0.50096 0.966 0.75751 0.0
C666 C 0.45374 0.93641 0.77879 0.0
C667 C 0.42977 0.91868 0.79014 0.0
C668 C 0.47692 0.932 0.7781 0.0
C669 C 0.42983 0.89723 0.80155 0.0
C670 C 0.453 0.89291 0.80112 0.0
C671 C 0.49912 0.90461 0.7877 0.0
C672 C 0.52207 0.92106 0.77512 0.0
C673 C 0.47646 0.90985 0.78917 0.0
C674 C 0.52251 0.94342 0.76455 0.0
C675 C 0.5002 0.94888 0.76606 0.0
H676 H 0.15526 0.55373 0.79876 0.0
H677 H 0.08474 0.51698 0.75837 0.0
H678 H 0.08424 0.56129 0.75738 0.0
H679 H 0.10491 0.61084 0.76671 0.0
H680 H 0.17561 0.6483 0.80686 0.0
H681 H 0.17476 0.6032 0.80931 0.0
C682 C 0.1397 0.55537 0.78982 0.0
C683 C 0.1202 0.5321 0.77857 0.0
C684 C 0.13955 0.58102 0.78924 0.0
C685 C 0.10007 0.53456 0.76713 0.0
C686 C 0.09976 0.55991 0.76653 0.0
C687 C 0.12008 0.60918 0.7761 0.0
C688 C 0.14041 0.63296 0.78649 0.0
C689 C 0.11958 0.58333 0.77733 0.0
C690 C 0.15976 0.63033 0.79867 0.0
C691 C 0.15933 0.60456 0.80004 0.0
H692 H 0.44069 0.5277 0.75356 0.0
H693 H 0.40239 0.56429 0.79019 0.0
H694 H 0.44819 0.6072 0.79402 0.0
H695 H 0.49869 0.63504 0.78585 0.0
H696 H 0.53659 0.59841 0.74883 0.0
H697 H 0.49132 0.55475 0.74639 0.0
C698 C 0.44233 0.54499 0.76246 0.0
C699 C 0.41809 0.54281 0.77149 0.0
C700 C 0.46865 0.56963 0.76452 0.0
C701 C 0.42068 0.56541 0.78303 0.0
C702 C 0.44686 0.58998 0.78522 0.0
C703 C 0.49711 0.61745 0.77735 0.0
C704 C 0.521 0.62008 0.76748 0.0
C705 C 0.47093 0.59243 0.77587 0.0
C706 C 0.51855 0.59703 0.75654 0.0
C707 C 0.49265 0.57204 0.75511 0.0
H708 H 0.55927 0.74823 0.52899 0.0
H709 H 0.63368 0.78565 0.56583 0.0
H710 H 0.63244 0.82961 0.56726 0.0
H711 H 0.60931 0.85674 0.55929 0.0
H712 H 0.53448 0.81961 0.52292 0.0
H713 H 0.53693 0.77622 0.52002 0.0
C714 C 0.57534 0.76606 0.53721 0.0
C715 C 0.59647 0.76358 0.54735 0.0
C716 C 0.57438 0.79128 0.53814 0.0
C717 C 0.61712 0.78691 0.55794 0.0
C718 C 0.61642 0.81208 0.55879 0.0
C719 C 0.59356 0.83923 0.55064 0.0
C720 C 0.57166 0.84138 0.54142 0.0
C721 C 0.59499 0.81437 0.54915 0.0
C722 C 0.55153 0.8185 0.53022 0.0
C723 C 0.5529 0.79367 0.52857 0.0
H724 H 0.19485 0.78642 0.56359 0.0
H725 H 0.23346 0.7488 0.52833 0.0
H726 H 0.27779 0.79381 0.52772 0.0
H727 H 0.30641 0.84288 0.53908 0.0
H728 H 0.26773 0.88001 0.57482 0.0
H729 H 0.22254 0.83613 0.57321 0.0
C730 C 0.21287 0.78807 0.55562 0.0
C731 C 0.21089 0.76418 0.54616 0.0
C732 C 0.23833 0.81389 0.55548 0.0
C733 C 0.23442 0.7668 0.53581 0.0
C734 C 0.25981 0.79253 0.53548 0.0
C735 C 0.28805 0.84148 0.54638 0.0
C736 C 0.29055 0.86464 0.5572 0.0
C737 C 0.26214 0.81607 0.54556 0.0
C738 C 0.26648 0.86248 0.56648 0.0
C739 C 0.24061 0.83736 0.5656 0.0
H740 H 0.27462 0.44816 0.56269 0.0
H741 H 0.30791 0.51778 0.5216 0.0
H742 H 0.26274 0.51699 0.52182 0.0
H743 H 0.21437 0.49758 0.53467 0.0
H744 H 0.18185 0.42849 0.57622 0.0
H745 H 0.22624 0.42807 0.57479 0.0
C746 C 0.27201 0.46309 0.55367 0.0
C747 C 0.29466 0.48305 0.54219 0.0
C748 C 0.24616 0.4627 0.55402 0.0
C749 C 0.29085 0.50222 0.5306 0.0
C750 C 0.26503 0.5018 0.53075 0.0
C751 C 0.21694 0.48235 0.54335 0.0
C752 C 0.19483 0.46317 0.55558 0.0
C753 C 0.24263 0.48231 0.54256 0.0
C754 C 0.19853 0.44356 0.56672 0.0
C755 C 0.22392 0.44329 0.56592 0.0
H756 H 0.02646 0.33819 0.12525 0.0
H757 H 0.03602 0.29028 0.17221 0.0
H758 H 0.01929 0.3121 0.1961 0.0
H759 H -0.00277 0.34077 0.20308 0.0
H760 H 0.98675 0.38801 0.15609 0.0
H761 H 0.0089 0.37069 0.13286 0.0
C762 C 0.02524 0.33278 0.14074 0.0
C763 C 0.03208 0.3123 0.14687 0.0
C764 C 0.01525 0.34513 0.1544 0.0
C765 C 0.03067 0.30579 0.16704 0.0
C766 C 0.02102 0.3182 0.18073 0.0
C767 C 8e-05 0.34757 0.18781 0.0
C768 C 0.98995 0.36531 0.18128 0.0
C769 C 0.0125 0.33726 0.17448 0.0
C770 C 0.99417 0.37421 0.1615 0.0
C771 C 0.00675 0.36423 0.14817 0.0
H772 H 0.71808 0.7141 0.12676 0.0
H773 H 0.76293 0.7623 0.17819 0.0
H774 H 0.73648 0.72064 0.1989 0.0
H775 H 0.7041 0.66963 0.20185 0.0
H776 H 0.66029 0.62121 0.15021 0.0
H777 H 0.68268 0.664 0.1302 0.0
C778 C 0.72188 0.71561 0.14253 0.0
C779 C 0.74273 0.7412 0.15086 0.0
C780 C 0.7069 0.6915 0.15431 0.0
C781 C 0.74716 0.74283 0.17136 0.0
C782 C 0.73208 0.71899 0.18322 0.0
C783 C 0.69916 0.66845 0.18627 0.0
C784 C 0.68082 0.64217 0.17751 0.0
C785 C 0.71244 0.69306 0.17477 0.0
C786 C 0.6745 0.64111 0.15732 0.0
C787 C 0.68734 0.66557 0.14584 0.0
H788 H 0.3473 0.03131 0.11183 0.0
H789 H 0.28855 0.984 0.15839 0.0
H790 H 0.32506 0.00975 0.18302 0.0
H791 H 0.37219 0.04871 0.19148 0.0
H792 H 0.43062 0.09666 0.14493 0.0
H793 H 0.39571 0.06756 0.12021 0.0
C794 C 0.34258 0.0263 0.12734 0.0
C795 C 0.31513 0.00596 0.13324 0.0
C796 C 0.36352 0.04154 0.14147 0.0
C797 C 0.30944 -0.0003 0.15342 0.0
C798 C 0.33028 0.01449 0.16755 0.0
C799 C 0.37738 0.05266 0.17593 0.0
C800 C 0.40385 0.07507 0.17009 0.0
C801 C 0.35715 0.03598 0.16176 0.0
C802 C 0.41033 0.07969 0.14986 0.0
C803 C 0.39037 0.06307 0.13569 0.0
H804 H 0.30996 0.00848 0.87073 0.0
H805 H 0.29227 0.04269 0.81882 0.0
H806 H 0.31706 0.02515 0.79834 0.0
H807 H 0.34096 -0.00256 0.79487 0.0
H808 H 0.35785 0.96243 0.8467 0.0
H809 H 0.33638 0.9832 0.86749 0.0
C810 C 0.3117 0.0123 0.85496 0.0
C811 C 0.29904 0.02667 0.84632 0.0
C812 C 0.32577 0.00195 0.84322 0.0
C813 C 0.30167 0.03157 0.82586 0.0
C814 C 0.31582 0.02152 0.81412 0.0
C815 C 0.3402 0.99456 0.81074 0.0
C816 C 0.3508 0.97819 0.81918 0.0
C817 C 0.32753 0.00627 0.8226 0.0
C818 C 0.34973 0.9748 0.83978 0.0
C819 C 0.3374 0.98662 0.8517 0.0
H820 H 0.04453 0.36907 0.79453 0.0
H821 H 0.07134 0.43226 0.8404 0.0
H822 H 0.0506 0.39528 0.86538 0.0
H823 H 0.0291 0.34527 0.87436 0.0
H824 H 0.00318 0.28215 0.82849 0.0
H825 H 0.01907 0.31888 0.80337 0.0
C826 C 0.04558 0.37478 0.80997 0.0
C827 C 0.05982 0.40339 0.8156 0.0
C828 C 0.03391 0.35343 0.82429 0.0
C829 C 0.0607 0.4104 0.83566 0.0
C830 C 0.0489 0.38926 0.84997 0.0
C831 C 0.0266 0.33949 0.85887 0.0
C832 C 0.01534 0.31104 0.85333 0.0
C833 C 0.03611 0.36074 0.84448 0.0
C834 C 0.01199 0.30391 0.83319 0.0
C835 C 0.02114 0.32491 0.81879 0.0
H836 H 0.62963 0.69645 0.83063 0.0
H837 H 0.68352 0.69751 0.78351 0.0
H838 H 0.72297 0.71367 0.80653 0.0
H839 H 0.74309 0.73125 0.83936 0.0
H840 H 0.68936 0.73164 0.88609 0.0
H841 H 0.64889 0.71096 0.86387 0.0
C842 C 0.6499 0.69991 0.8254 0.0
C843 C 0.65366 0.69604 0.80534 0.0
C844 C 0.6726 0.70964 0.83862 0.0
C845 C 0.68007 0.7005 0.79886 0.0
C846 C 0.70267 0.7098 0.81201 0.0
C847 C 0.72247 0.72651 0.84476 0.0
C848 C 0.71935 0.73325 0.86431 0.0
C849 C 0.69933 0.71502 0.83182 0.0
C850 C 0.69244 0.7269 0.87107 0.0
C851 C 0.66925 0.71508 0.85837 0.0
H852 H 0.02811 0.72563 0.85761 0.0
H853 H 0.02916 0.77888 0.81023 0.0
H854 H 0.04707 0.75663 0.7876 0.0
H855 H 0.06719 0.72577 0.78223 0.0
H856 H 0.06695 0.67322 0.82984 0.0
H857 H 0.04365 0.69127 0.85131 0.0
C858 C 0.03193 0.73215 0.84227 0.0
C859 C 0.02772 0.75419 0.83571 0.0
C860 C 0.04255 0.71952 0.82939 0.0
C861 C 0.03243 0.76212 0.81573 0.0
C862 C 0.04275 0.74946 0.80277 0.0
C863 C 0.0617 0.71797 0.79722 0.0
C864 C 0.06922 0.6985 0.80449 0.0
C865 C 0.04864 0.72871 0.80959 0.0
C866 C 0.06167 0.68839 0.82389 0.0
C867 C 0.04839 0.69876 0.83622 0.0
H868 H 0.34455 0.43043 0.82545 0.0
H869 H 0.32827 0.3785 0.77358 0.0
H870 H 0.31022 0.33642 0.7942 0.0
H871 H 0.29614 0.31403 0.82676 0.0
H872 H 0.31163 0.36602 0.87851 0.0
H873 H 0.33306 0.40839 0.8581 0.0
C874 C 0.33728 0.40995 0.81864 0.0
C875 C 0.33754 0.40762 0.798 0.0
C876 C 0.32665 0.3858 0.83055 0.0
C877 C 0.32817 0.38091 0.78944 0.0
C878 C 0.3178 0.3568 0.80121 0.0
C879 C 0.30441 0.33464 0.8336 0.0
C880 C 0.30204 0.3368 0.85411 0.0
C881 C 0.31647 0.35894 0.82176 0.0
C882 C 0.313 0.3637 0.86274 0.0
C883 C 0.32525 0.38797 0.85108 0.0
H884 H 0.74634 0.01018 0.82996 0.0
H885 H 0.69621 0.01738 0.87655 0.0
H886 H 0.65592 0.00047 0.85423 0.0
H887 H 0.63385 0.97988 0.82238 0.0
H888 H 0.6838 0.97129 0.77626 0.0
H889 H 0.72528 0.99267 0.79753 0.0
C890 C 0.72672 0.00836 0.83521 0.0
C891 C 0.72422 0.01477 0.85495 0.0
C892 C 0.70352 -0.00183 0.82243 0.0
C893 C 0.69865 0.01242 0.86145 0.0
C894 C 0.67557 0.00268 0.84872 0.0
C895 C 0.65387 0.98294 0.8169 0.0
C896 C 0.65562 0.97372 0.79783 0.0
C897 C 0.67759 0.99489 0.82931 0.0
C898 C 0.68178 0.97797 0.79094 0.0
C899 C 0.70553 0.99019 0.80309 0.0
H900 H 0.72685 0.04676 0.12673 0.0
H901 H 0.78556 0.05335 0.17185 0.0
H902 H 0.76179 0.06781 0.19581 0.0
H903 H 0.7264 0.08152 0.20339 0.0
H904 H 0.66801 0.07558 0.15823 0.0
H905 H 0.68945 0.0576 0.13492 0.0
C906 C 0.73436 0.05119 0.14183 0.0
C907 C 0.75813 0.04924 0.14742 0.0
C908 C 0.72068 0.05964 0.15553 0.0
C909 C 0.76741 0.05482 0.1671 0.0
C910 C 0.75384 0.06312 0.18083 0.0
C911 C 0.71815 0.07605 0.1885 0.0
C912 C 0.69579 0.08015 0.18253 0.0
C913 C 0.73076 0.06603 0.17512 0.0
C914 C 0.68528 0.07276 0.16322 0.0
C915 C 0.69758 0.06256 0.14984 0.0
H916 H 0.00441 0.73537 0.15995 0.0
H917 H 0.98396 0.67958 0.10983 0.0
H918 H 0.96342 0.6387 0.13175 0.0
H919 H 0.94849 0.61872 0.16488 0.0
H920 H 0.9681 0.67456 0.2149 0.0
H921 H 0.99191 0.71551 0.19323 0.0
C922 C -0.00433 0.7143 0.1538 0.0
C923 C -0.00449 0.71055 0.13326 0.0
C924 C 0.98362 0.69088 0.16646 0.0
C925 C 0.98423 0.68308 0.12558 0.0
C926 C 0.97243 0.65967 0.1381 0.0
C927 C 0.95816 0.63984 0.17108 0.0
C928 C 0.95628 0.64354 0.19146 0.0
C929 C 0.97157 0.66331 0.15853 0.0
C930 C 0.96907 0.67108 0.19925 0.0
C931 C 0.98267 0.69453 0.18687 0.0
H932 H 0.28047 0.27402 0.16786 0.0
H933 H 0.33525 0.28904 0.11775 0.0
H934 H 0.37654 0.31705 0.13822 0.0
H935 H 0.3973 0.33489 0.1705 0.0
H936 H 0.34334 0.31923 0.22112 0.0
H937 H 0.30154 0.29418 0.20021 0.0
C938 C 0.30143 0.28359 0.16141 0.0
C939 C 0.30474 0.2792 0.14135 0.0
C940 C 0.32525 0.29954 0.17333 0.0
C941 C 0.33206 0.29183 0.13319 0.0
C942 C 0.35574 0.30791 0.14487 0.0
C943 C 0.37642 0.32623 0.17698 0.0
C944 C 0.37345 0.32873 0.19735 0.0
C945 C 0.35259 0.31153 0.16499 0.0
C946 C 0.34621 0.3175 0.20547 0.0
C947 C 0.3223 0.3031 0.19353 0.0
H948 H 0.63301 0.68567 0.48728 0.0
H949 H 0.68254 0.68647 0.5371 0.0
H950 H 0.70785 0.67014 0.51603 0.0
H951 H 0.71297 0.65171 0.48419 0.0
H952 H 0.66229 0.64951 0.43466 0.0
H953 H 0.64058 0.67055 0.4549 0.0
C954 C 0.64955 0.68259 0.49351 0.0
C955 C 0.65564 0.687 0.51378 0.0
C956 C 0.66371 0.67276 0.48139 0.0
C957 C 0.67726 0.68303 0.52157 0.0
C958 C 0.69173 0.67364 0.50954 0.0
C959 C 0.69741 0.65612 0.47774 0.0
C960 C 0.68907 0.64875 0.45799 0.0
C961 C 0.68467 0.66782 0.48953 0.0
C962 C 0.66896 0.65476 0.44986 0.0
C963 C 0.65649 0.66675 0.46143 0.0
H964 H 0.42589 0.08964 0.49669 0.0
H965 H 0.39875 0.03296 0.44672 0.0
H966 H 0.37479 0.9925 0.46879 0.0
H967 H 0.36405 0.97308 0.50228 0.0
H968 H 0.39176 0.02964 0.55231 0.0
H969 H 0.41281 0.07028 0.53016 0.0
C970 C 0.41457 0.06846 0.4906 0.0
C971 C 0.41434 0.06437 0.47008 0.0
C972 C 0.40102 0.04525 0.50338 0.0
C973 C 0.39941 0.03675 0.46245 0.0
C974 C 0.38572 0.01357 0.47507 0.0
C975 C 0.3745 0.99429 0.50837 0.0
C976 C 0.37651 -0.00173 0.52894 0.0
C977 C 0.38678 0.01755 0.49556 0.0
C978 C 0.38999 0.02593 0.53654 0.0
C979 C 0.4021 0.0492 0.52388 0.0
H980 H 0.97147 0.34334 0.49383 0.0
H981 H 0.02727 0.37511 0.44347 0.0
H982 H 0.0682 0.39598 0.46535 0.0
H983 H 0.0877 0.40944 0.49873 0.0
H984 H 0.03159 0.37922 0.54901 0.0
H985 H 0.99123 0.35331 0.52715 0.0
C986 C 0.99258 0.35449 0.4876 0.0
C987 C -0.00373 0.35797 0.46706 0.0
C988 C 0.01597 0.36693 0.50025 0.0
C989 C 0.02381 0.37231 0.45925 0.0
C990 C 0.04723 0.38433 0.47175 0.0
C991 C 0.0667 0.3969 0.50494 0.0
C992 C 0.06264 0.39659 0.52546 0.0
C993 C 0.04351 0.38245 0.49228 0.0
C994 C 0.03529 0.38007 0.53325 0.0
C995 C 0.01218 0.36526 0.52077 0.0
H996 H 0.38414 0.40688 0.53593 0.0
H997 H 0.35418 0.42986 0.48418 0.0
H998 H 0.37147 0.40524 0.46325 0.0
H999 H 0.3987 0.3809 0.45948 0.0
H1000 H 0.42968 0.35898 0.51121 0.0
H1001 H 0.40804 0.37924 0.53232 0.0
C1002 C 0.38115 0.40631 0.52008 0.0
C1003 C 0.3682 0.42051 0.51162 0.0
C1004 C 0.39142 0.39241 0.50813 0.0
C1005 C 0.36424 0.41929 0.49108 0.0
C1006 C 0.37417 0.40525 0.47909 0.0
C1007 C 0.40047 0.38024 0.47538 0.0
C1008 C 0.41609 0.36874 0.48373 0.0
C1009 C 0.38835 0.3923 0.48743 0.0
C1010 C 0.41796 0.36788 0.50437 0.0
C1011 C 0.40565 0.37953 0.51647 0.0
H1012 H 0.6265 0.95993 0.48829 0.0
H1013 H 0.65699 0.00518 0.54328 0.0
H1014 H 0.68557 0.04908 0.52535 0.0
H1015 H 0.69829 0.07533 0.49435 0.0
H1016 H 0.66682 0.0307 0.43927 0.0
H1017 H 0.6426 0.98581 0.45696 0.0
C1018 C 0.63966 0.97933 0.49635 0.0
C1019 C 0.6393 0.97931 0.51709 0.0
C1020 C 0.65578 0.00465 0.48594 0.0
C1021 C 0.65662 0.00462 0.52731 0.0
C1022 C 0.67299 0.02977 0.51707 0.0
C1023 C 0.68644 0.05577 0.48616 0.0
C1024 C 0.68407 0.05642 0.46556 0.0
C1025 C 0.67216 0.03015 0.49642 0.0
C1026 C 0.66883 0.03083 0.45517 0.0
C1027 C 0.65488 0.00515 0.46528 0.0
H1028 H 0.01085 0.64072 0.46273 0.0
H1029 H 0.95444 0.61652 0.51278 0.0
H1030 H 0.99479 0.64104 0.53493 0.0
H1031 H 0.04609 0.66667 0.54024 0.0
H1032 H 0.10233 0.69002 0.49012 0.0
H1033 H 0.06193 0.66866 0.46785 0.0
C1034 C 0.00732 0.64093 0.47847 0.0
C1035 C 0.97967 0.62657 0.48609 0.0
C1036 C 0.03058 0.65485 0.49113 0.0
C1037 C 0.97551 0.62727 0.50652 0.0
C1038 C -0.00143 0.64127 0.51921 0.0
C1039 C 0.04954 0.66734 0.52443 0.0
C1040 C 0.07721 0.67973 0.51688 0.0
C1041 C 0.02621 0.65473 0.5117 0.0
C1042 C 0.08127 0.68049 0.49635 0.0
C1043 C 0.05818 0.66823 0.48359 0.0
H1044 H 0.00317 0.27975 0.03708 0.0
H1045 H 0.09271 0.31632 0.02652 0.0
H1046 H 0.0849 0.31604 0.99106 0.0
H1047 H 0.05232 0.30185 0.963 0.0
H1048 H 0.96272 0.26473 0.97357 0.0
H1049 H 0.971 0.26907 0.0091 0.0
C1050 C 0.02104 0.28792 0.02705 0.0
C1051 C 0.04845 0.29775 0.03446 0.0
C1052 C 0.01639 0.28749 0.00667 0.0
C1053 C 0.07136 0.3085 0.02124 0.0
C1054 C 0.06692 0.30828 0.00094 0.0
C1055 C 0.0346 0.29497 0.97306 0.0
C1056 C 0.00691 0.2827 0.96561 0.0
C1057 C 0.03947 0.29727 0.99348 0.0
C1058 C 0.98425 0.27412 0.97887 0.0
C1059 C 0.98894 0.27652 -0.00079 0.0
H1060 H 0.74653 0.77862 0.97131 0.0
H1061 H 0.80383 0.7459 0.97583 0.0
H1062 H 0.80207 0.74777 0.01176 0.0
H1063 H 0.78705 0.76191 0.0417 0.0
H1064 H 0.73061 0.79565 0.03718 0.0
H1065 H 0.72915 0.78997 0.00138 0.0
C1066 C 0.75843 0.77161 0.98013 0.0
C1067 C 0.77548 0.76234 0.97086 0.0
C1068 C 0.75762 0.77308 0.00077 0.0
C1069 C 0.79064 0.75324 0.98255 0.0
C1070 C 0.7897 0.75437 0.00311 0.0
C1071 C 0.77422 0.76782 0.03293 0.0
C1072 C 0.75915 0.77942 0.04212 0.0
C1073 C 0.7737 0.76477 0.01235 0.0
C1074 C 0.74252 0.78679 0.0305 0.0
C1075 C 0.74171 0.78359 0.01002 0.0
H1076 H 0.27757 0.02159 0.95332 0.0
H1077 H 0.23245 0.06675 0.96344 0.0
H1078 H 0.22816 0.0549 -0.00163 0.0
H1079 H 0.23518 0.03004 0.02574 0.0
H1080 H 0.28224 0.98681 0.01668 0.0
H1081 H 0.28788 -0.00041 0.98159 0.0
C1082 C 0.26697 0.02897 0.96321 0.0
C1083 C 0.25515 0.04483 0.95574 0.0
C1084 C 0.26475 0.02226 0.9834 0.0
C1085 C 0.24175 0.05452 0.96877 0.0
C1086 C 0.23916 0.04765 0.98875 0.0
C1087 C 0.24662 0.02335 0.01605 0.0
C1088 C 0.25787 0.00712 0.02359 0.0
C1089 C 0.25019 0.03122 -0.00386 0.0
C1090 C 0.27327 -0.00081 0.01109 0.0
C1091 C 0.27645 0.00647 0.99107 0.0
H1092 H 0.98346 0.73471 0.95596 0.0
H1093 H 0.06577 0.80597 0.94308 0.0
H1094 H 0.07836 0.81006 0.97788 0.0
H1095 H 0.06473 0.79591 0.01224 0.0
H1096 H 0.98213 0.72526 0.02529 0.0
H1097 H 0.97112 0.71833 0.99016 0.0
C1098 C 0.00426 0.75096 0.96072 0.0
C1099 C 0.0235 0.77016 0.94693 0.0
C1100 C 0.01131 0.75342 0.98082 0.0
C1101 C 0.05044 0.791 0.95337 0.0
C1102 C 0.05768 0.7934 0.9733 0.0
C1103 C 0.04442 0.77879 0.00742 0.0
C1104 C 0.02421 0.76133 0.02142 0.0
C1105 C 0.03807 0.77511 0.9872 0.0
C1106 C -0.00194 0.73914 0.01486 0.0
C1107 C 0.99169 0.73518 0.99475 0.0
H1108 H 0.25626 0.29374 0.02988 0.0
H1109 H 0.29764 0.24432 0.03612 0.0
H1110 H 0.30878 0.2495 0.00103 0.0
H1111 H 0.30294 0.26419 0.96813 0.0
H1112 H 0.25987 0.31191 0.96152 0.0
H1113 H 0.2536 0.31156 -0.00281 0.0
C1114 C 0.26802 0.28441 0.02361 0.0
C1115 C 0.27582 0.26843 0.03558 0.0
C1116 C 0.27397 0.28704 0.00332 0.0
C1117 C 0.29113 0.25653 0.02722 0.0
C1118 C 0.29753 0.25946 0.00713 0.0
C1119 C 0.29255 0.27488 0.97449 0.0
C1120 C 0.28166 0.2878 0.96216 0.0
C1121 C 0.28847 0.27409 0.99497 0.0
C1122 C 0.26828 0.3016 0.97067 0.0
C1123 C 0.26461 0.30137 0.99108 0.0
H1124 H 0.74103 0.00265 0.96613 0.0
H1125 H 0.79522 0.0932 0.96924 0.0
H1126 H 0.79404 0.09098 0.00521 0.0
H1127 H 0.78121 0.06292 0.03558 0.0
H1128 H 0.72756 0.97229 0.03244 0.0
H1129 H 0.72475 0.97505 -0.00335 0.0
C1130 C 0.75235 0.02196 0.97466 0.0
C1131 C 0.76848 0.04801 0.96499 0.0
C1132 C 0.75182 0.02051 0.99533 0.0
C1133 C 0.78276 0.07284 0.97629 0.0
C1134 C 0.78218 0.07159 -0.00313 0.0
C1135 C 0.76865 0.04377 0.02711 0.0
C1136 C 0.75491 0.0174 0.03666 0.0
C1137 C 0.76734 0.04547 0.00652 0.0
C1138 C 0.73848 0.99286 0.02547 0.0
C1139 C 0.73692 0.9944 0.00498 0.0
H1140 H 0.69019 0.60485 0.28428 0.0
H1141 H 0.60523 0.53363 0.28546 0.0
H1142 H 0.60518 0.5351 0.3214 0.0
H1143 H 0.62967 0.55543 0.35249 0.0
H1144 H 0.7152 0.62551 0.3516 0.0
H1145 H 0.71452 0.62574 0.31555 0.0
C1146 C 0.67159 0.58979 0.2924 0.0
C1147 C 0.64776 0.56918 0.28218 0.0
C1148 C 0.6718 0.5905 0.31312 0.0
C1149 C 0.62389 0.5497 0.29293 0.0
C1150 C 0.62382 0.5505 0.31351 0.0
C1151 C 0.6481 0.57092 0.34443 0.0
C1152 C 0.67243 0.59043 0.35472 0.0
C1153 C 0.64771 0.57066 0.32374 0.0
C1154 C 0.69621 0.61021 0.34403 0.0
C1155 C 0.69584 0.61036 0.32342 0.0
H1156 H 0.4077 0.11402 0.3496 0.0
H1157 H 0.46837 0.08765 0.36302 0.0
H1158 H 0.47384 0.08141 0.32799 0.0
H1159 H 0.46407 0.08668 0.29346 0.0
H1160 H 0.40384 0.11354 0.2799 0.0
H1161 H 0.39539 0.11604 0.31501 0.0
C1162 C 0.42193 0.10666 0.34488 0.0
C1163 C 0.43777 0.10158 0.35895 0.0
C1164 C 0.42517 0.10329 0.32465 0.0
C1165 C 0.45599 0.09189 0.35255 0.0
C1166 C 0.4592 0.08834 0.33249 0.0
C1167 C 0.44887 0.0928 0.29816 0.0
C1168 C 0.43482 0.10013 0.28403 0.0
C1169 C 0.44429 0.09447 0.31839 0.0
C1170 C 0.41507 0.10787 0.29042 0.0
C1171 C 0.41026 0.1094 0.31053 0.0
H1172 H 0.96565 0.38478 0.36029 0.0
H1173 H 0.92808 0.29467 0.35212 0.0
H1174 H 0.92985 0.30084 0.31639 0.0
H1175 H 0.93972 0.33147 0.28758 0.0
H1176 H 0.97699 0.42156 0.29574 0.0
H1177 H 0.9778 0.41568 0.33138 0.0
C1178 C 0.95801 0.36648 0.35071 0.0
C1179 C 0.94657 0.33928 0.3589 0.0
C1180 C 0.95894 0.37015 0.33018 0.0
C1181 C 0.93692 0.31584 0.34624 0.0
C1182 C 0.93787 0.31934 0.32579 0.0
C1183 C 0.94819 0.34987 0.29713 0.0
C1184 C 0.95809 0.3769 0.28899 0.0
C1185 C 0.94847 0.34634 0.31762 0.0
C1186 C 0.96915 0.4005 0.30159 0.0
C1187 C 0.96958 0.39716 0.322 0.0
H1188 H 0.6951 0.10359 0.36008 0.0
H1189 H 0.7434 0.19434 0.36674 0.0
H1190 H 0.74232 0.20021 0.33127 0.0
H1191 H 0.72616 0.18003 0.29862 0.0
H1192 H 0.67882 0.08954 0.29104 0.0
H1193 H 0.68121 0.08311 0.32663 0.0
C1194 C 0.7055 0.12462 0.35373 0.0
C1195 C 0.71913 0.14848 0.36608 0.0
C1196 C 0.70493 0.12792 0.3332 0.0
C1197 C 0.73272 0.17559 0.35762 0.0
C1198 C 0.73208 0.17901 0.33732 0.0
C1199 C 0.71638 0.15886 0.30472 0.0
C1200 C 0.70208 0.1353 0.29229 0.0
C1201 C 0.71798 0.15538 0.32503 0.0
C1202 C 0.68992 0.10802 0.30036 0.0
C1203 C 0.69121 0.10435 0.32069 0.0
H1204 H 0.90641 0.6179 0.36702 0.0
H1205 H 0.96942 0.59384 0.37805 0.0
H1206 H 0.97708 0.59281 0.34265 0.0
H1207 H 0.96335 0.59525 0.30856 0.0
H1208 H 0.89938 0.61807 0.29766 0.0
H1209 H 0.89482 0.62322 0.33299 0.0
C1210 C 0.92205 0.61273 0.36171 0.0
C1211 C 0.93714 0.60575 0.37518 0.0
C1212 C 0.92607 0.61177 0.34133 0.0
C1213 C 0.95738 0.59917 0.36801 0.0
C1214 C 0.96175 0.59851 0.34775 0.0
C1215 C 0.94861 0.60162 0.31389 0.0
C1216 C 0.93159 0.60602 0.30047 0.0
C1217 C 0.94581 0.60422 0.33427 0.0
C1218 C 0.91264 0.61436 0.30765 0.0
C1219 C 0.90998 0.61729 0.32787 0.0
H1220 H 0.45463 0.38818 0.3752 0.0
H1221 H 0.39802 0.29805 0.37183 0.0
H1222 H 0.39337 0.30161 0.33628 0.0
H1223 H 0.40779 0.32982 0.30595 0.0
H1224 H 0.46484 0.41988 0.30935 0.0
H1225 H 0.46665 0.4168 0.34517 0.0
C1226 C 0.44112 0.36931 0.36673 0.0
C1227 C 0.4269 0.34285 0.37614 0.0
C1228 C 0.43866 0.37148 0.3463 0.0
C1229 C 0.40929 0.31867 0.36496 0.0
C1230 C 0.40665 0.32068 0.34461 0.0
C1231 C 0.42042 0.34885 0.31452 0.0
C1232 C 0.43634 0.37501 0.30494 0.0
C1233 C 0.42159 0.3469 0.3351 0.0
C1234 C 0.45246 0.39945 0.31631 0.0
C1235 C 0.45358 0.39771 0.33681 0.0
H1236 H 0.35182 0.95156 0.70783 0.0
H1237 H 0.44291 -0.00187 0.71133 0.0
H1238 H 0.44602 0.0032 0.67549 0.0
H1239 H 0.42297 0.99161 0.64304 0.0
H1240 H 0.33187 0.94449 0.63965 0.0
H1241 H 0.32876 0.94267 0.67556 0.0
C1242 C 0.37238 0.96303 0.70079 0.0
C1243 C 0.39709 0.97424 0.71227 0.0
C1244 C 0.37404 0.96569 0.68017 0.0
C1245 C 0.42353 0.98919 0.70288 0.0
C1246 C 0.42534 0.99205 0.68236 0.0
C1247 C 0.40242 0.98118 0.65014 0.0
C1248 C 0.37772 0.96802 0.63862 0.0
C1249 C 0.40075 0.97997 0.67084 0.0
C1250 C 0.35126 0.9547 0.64811 0.0
C1251 C 0.34943 0.95359 0.66868 0.0
H1252 H 0.10122 0.4142 0.70493 0.0
H1253 H 0.05669 0.46041 0.69755 0.0
H1254 H 0.05937 0.45723 0.66178 0.0
H1255 H 0.07752 0.44457 0.63269 0.0
H1256 H 0.1224 0.39872 0.64005 0.0
H1257 H 0.11625 0.39843 0.67575 0.0
C1258 C 0.09182 0.42334 0.69552 0.0
C1259 C 0.07902 0.43777 0.70394 0.0
C1260 C 0.09368 0.42168 0.67495 0.0
C1261 C 0.06679 0.44929 0.6915 0.0
C1262 C 0.06839 0.44757 0.67101 0.0
C1263 C 0.08579 0.43432 0.64208 0.0
C1264 C 0.10067 0.42196 0.63371 0.0
C1265 C 0.08231 0.43435 0.6626 0.0
C1266 C 0.11098 0.40852 0.64609 0.0
C1267 C 0.10752 0.40838 0.66653 0.0
H1268 H 0.64024 0.71904 0.69495 0.0
H1269 H 0.59571 0.62843 0.68734 0.0
H1270 H 0.60053 0.63428 0.6516 0.0
H1271 H 0.61435 0.66501 0.62251 0.0
H1272 H 0.65858 0.75561 0.63012 0.0
H1273 H 0.65706 0.7498 0.66587 0.0
C1274 C 0.63179 0.70055 0.6855 0.0
C1275 C 0.61739 0.67334 0.69383 0.0
C1276 C 0.63445 0.70404 0.66495 0.0
C1277 C 0.60679 0.64963 0.68135 0.0
C1278 C 0.60947 0.65295 0.66088 0.0
C1279 C 0.62387 0.68351 0.63197 0.0
C1280 C 0.63631 0.7107 0.62363 0.0
C1281 C 0.62278 0.68004 0.65253 0.0
C1282 C 0.64876 0.73443 0.63612 0.0
C1283 C 0.64785 0.73114 0.65659 0.0
H1284 H 0.32625 0.43235 0.68945 0.0
H1285 H 0.41741 0.47895 0.68643 0.0
H1286 H 0.41532 0.47584 0.65048 0.0
H1287 H 0.38764 0.4629 0.61996 0.0
H1288 H 0.29647 0.41665 0.62298 0.0
H1289 H 0.29861 0.41642 0.65894 0.0
C1290 C 0.34569 0.44165 0.68095 0.0
C1291 C 0.37194 0.45612 0.69061 0.0
C1292 C 0.34435 0.43994 0.6603 0.0
C1293 C 0.39691 0.4678 0.67938 0.0
C1294 C 0.39575 0.46609 0.65881 0.0
C1295 C 0.36821 0.45254 0.62846 0.0
C1296 C 0.34193 0.44006 0.61879 0.0
C1297 C 0.36958 0.45267 0.64912 0.0
C1298 C 0.31699 0.42652 0.63004 0.0
C1299 C 0.31818 0.42644 0.65061 0.0
H1300 H 0.6239 0.92211 0.69228 0.0
H1301 H 0.58426 0.97349 0.68928 0.0
H1302 H 0.58517 0.97209 0.65331 0.0
H1303 H 0.59441 0.95379 0.62285 0.0
H1304 H 0.63391 0.90229 0.62582 0.0
H1305 H 0.63598 0.90639 0.66174 0.0
C1306 C 0.61565 0.9332 0.68378 0.0
C1307 C 0.6038 0.94767 0.69347 0.0
C1308 C 0.61608 0.93218 0.66311 0.0
C1309 C 0.59343 0.96212 0.68221 0.0
C1310 C 0.59386 0.96127 0.66163 0.0
C1311 C 0.60364 0.94359 0.63133 0.0
C1312 C 0.61375 0.92753 0.62168 0.0
C1313 C 0.60468 0.94595 0.65195 0.0
C1314 C 0.62589 0.9147 0.63288 0.0
C1315 C 0.62703 0.91698 0.65342 0.0
H1316 H 0.10289 0.6946 0.69654 0.0
H1317 H 0.18032 0.69202 0.702 0.0
H1318 H 0.18902 0.70043 0.66673 0.0
H1319 H 0.17468 0.70807 0.63437 0.0
H1320 H 0.09543 0.70649 0.62758 0.0
H1321 H 0.0873 0.70022 0.66333 0.0
C1322 C 0.12162 0.6959 0.68993 0.0
C1323 C 0.14096 0.69275 0.70179 0.0
C1324 C 0.12617 0.70006 0.66947 0.0
C1325 C 0.16503 0.69418 0.69312 0.0
C1326 C 0.1701 0.69911 0.67298 0.0
C1327 C 0.15573 0.7066 0.64075 0.0
C1328 C 0.13585 0.70811 0.62852 0.0
C1329 C 0.15085 0.70207 0.66104 0.0
C1330 C 0.11107 0.7055 0.63683 0.0
C1331 C 0.10644 0.70191 0.65721 0.0
H1332 H 0.87328 0.11066 0.10926 0.0
H1333 H 0.8903 0.07628 0.05696 0.0
H1334 H 0.93726 0.11788 0.05446 0.0
H1335 H 0.97248 0.16512 0.06604 0.0
H1336 H 0.95526 0.19974 0.11812 0.0
H1337 H 0.90948 0.15687 0.1218 0.0
C1338 C 0.88732 0.11215 0.09739 0.0
C1339 C 0.87817 0.09044 0.08325 0.0
C1340 C 0.91424 0.13624 0.09593 0.0
C1341 C 0.89672 0.0927 0.06802 0.0
C1342 C 0.92359 0.11652 0.06654 0.0
C1343 C 0.95882 0.16324 0.07828 0.0
C1344 C 0.96724 0.18572 0.09169 0.0
C1345 C 0.93241 0.1386 0.08025 0.0
C1346 C 0.94929 0.18283 0.10752 0.0
C1347 C 0.92306 0.15832 0.10964 0.0
H1348 H 0.94206 0.77682 0.10464 0.0
H1349 H 0.97391 0.82938 0.0528 0.0
H1350 H 0.93532 0.83969 0.05465 0.0
H1351 H 0.8911 0.83163 0.06984 0.0
H1352 H 0.85898 0.77868 0.12149 0.0
H1353 H 0.8993 0.77094 0.12094 0.0
C1354 C 0.94065 0.79064 0.09379 0.0
C1355 C 0.96071 0.80209 0.0785 0.0
C1356 C 0.91835 0.79641 0.09489 0.0
C1357 C 0.9587 0.82016 0.06467 0.0
C1358 C 0.93661 0.82607 0.06571 0.0
C1359 C 0.89302 0.8186 0.0811 0.0
C1360 C 0.87191 0.80559 0.09558 0.0
C1361 C 0.91611 0.814 0.08059 0.0
C1362 C 0.87484 0.78887 0.11011 0.0
C1363 C 0.89787 0.78436 0.10978 0.0
H1364 H 0.26077 0.07739 0.05434 0.0
H1365 H 0.2533 0.06312 0.1171 0.0
H1366 H 0.24242 0.10135 0.12155 0.0
H1367 H 0.23766 0.14053 0.10745 0.0
H1368 H 0.24193 0.15189 0.04427 0.0
H1369 H 0.25103 0.11281 0.04005 0.0
C1370 C 0.25668 0.08268 0.06897 0.0
C1371 C 0.25826 0.06803 0.08543 0.0
C1372 C 0.24979 0.10403 0.07129 0.0
C1373 C 0.25231 0.0744 0.10428 0.0
C1374 C 0.24615 0.09621 0.1068 0.0
C1375 C 0.2403 0.13421 0.09277 0.0
C1376 C 0.23939 0.14923 0.07622 0.0
C1377 C 0.2452 0.11142 0.09041 0.0
C1378 C 0.2425 0.14065 0.05726 0.0
C1379 C 0.24787 0.11841 0.05482 0.0
H1380 H 0.1721 0.95993 0.87246 0.0
H1381 H 0.14502 0.99487 0.91925 0.0
H1382 H 0.09879 0.95209 0.91979 0.0
H1383 H 0.06745 0.90331 0.9089 0.0
H1384 H 0.09454 0.86829 0.86216 0.0
H1385 H 0.13916 0.91266 0.85956 0.0
C1386 C 0.15601 0.95829 0.88266 0.0
C1387 C 0.16215 0.98044 0.89595 0.0
C1388 C 0.12946 0.93357 0.88296 0.0
C1389 C 0.14094 0.9781 0.90892 0.0
C1390 C 0.11448 0.9536 0.90928 0.0
C1391 C 0.08296 0.90546 0.89798 0.0
C1392 C 0.07776 0.88237 0.88593 0.0
C1393 C 0.10871 0.93097 0.89666 0.0
C1394 C 0.09802 0.88565 0.87173 0.0
C1395 C 0.12362 0.91101 0.87026 0.0
H1396 H 0.17427 0.26734 0.88436 0.0
H1397 H 0.15852 0.21285 0.93455 0.0
H1398 H 0.11084 0.20565 0.9376 0.0
H1399 H 0.07504 0.21787 0.92771 0.0
H1400 H 0.09108 0.27282 0.87775 0.0
H1401 H 0.13708 0.27655 0.87286 0.0
C1402 C 0.16033 0.25366 0.89585 0.0
C1403 C 0.17009 0.24093 0.90933 0.0
C1404 C 0.133 0.2498 0.89765 0.0
C1405 C 0.15164 0.22307 0.92403 0.0
C1406 C 0.12436 0.21897 0.92583 0.0
C1407 C 0.08846 0.23043 0.91563 0.0
C1408 C 0.07972 0.24529 0.90327 0.0
C1409 C 0.11504 0.23271 0.91298 0.0
C1410 C 0.09732 0.2613 0.88758 0.0
C1411 C 0.12369 0.2635 0.88478 0.0
H1412 H 0.77312 0.86333 0.89574 0.0
H1413 H 0.83378 0.88786 0.94303 0.0
H1414 H 0.83751 0.93427 0.94454 0.0
H1415 H 0.8221 0.96718 0.93337 0.0
H1416 H 0.76124 0.94242 0.88618 0.0
H1417 H 0.75917 0.89686 0.88369 0.0
C1418 C 0.78726 0.87885 0.90633 0.0
C1419 C 0.80301 0.87204 0.91933 0.0
C1420 C 0.78922 0.90545 0.90719 0.0
C1421 C 0.82134 0.89249 0.93288 0.0
C1422 C 0.82347 0.91905 0.93378 0.0
C1423 C 0.80848 0.95188 0.92247 0.0
C1424 C 0.79174 0.95817 0.91007 0.0
C1425 C 0.80728 0.92564 0.92115 0.0
C1426 C 0.77429 0.93813 0.89597 0.0
C1427 C 0.77306 0.91203 0.89453 0.0
H1428 H 0.56877 0.40905 0.41028 0.0
H1429 H 0.53256 0.44208 0.45197 0.0
H1430 H 0.57595 0.48779 0.45153 0.0
H1431 H 0.62275 0.51935 0.43753 0.0
H1432 H 0.65892 0.48663 0.39557 0.0
H1433 H 0.61704 0.43981 0.39806 0.0
C1434 C 0.57044 0.42616 0.41941 0.0
C1435 C 0.5473 0.42218 0.43098 0.0
C1436 C 0.5954 0.45252 0.41898 0.0
C1437 C 0.54995 0.44455 0.44284 0.0
C1438 C 0.57476 0.47076 0.44257 0.0
C1439 C 0.62161 0.50194 0.42903 0.0
C1440 C 0.64383 0.50659 0.41623 0.0
C1441 C 0.59739 0.47513 0.43041 0.0
C1442 C 0.64206 0.48372 0.40547 0.0
C1443 C 0.61809 0.45692 0.40685 0.0
H1444 H 0.64522 0.18038 0.40866 0.0
H1445 H 0.61743 0.11019 0.44888 0.0
H1446 H 0.57098 0.10623 0.45109 0.0
H1447 H 0.53718 0.12023 0.43961 0.0
H1448 H 0.56453 0.18946 0.39859 0.0
H1449 H 0.61227 0.19637 0.39885 0.0
C1450 C 0.62912 0.16441 0.41808 0.0
C1451 C 0.63475 0.14546 0.42844 0.0
C1452 C 0.6023 0.16195 0.41907 0.0
C1453 C 0.61363 0.12494 0.44063 0.0
C1454 C 0.58702 0.12262 0.44189 0.0
C1455 C 0.55364 0.13703 0.43088 0.0
C1456 C 0.5472 0.15412 0.41896 0.0
C1457 C 0.58095 0.14063 0.43086 0.0
C1458 C 0.56883 0.17585 0.4078 0.0
C1459 C 0.59615 0.17981 0.40791 0.0
H1460 H 0.88101 0.40347 0.4052 0.0
H1461 H 0.94522 0.42602 0.44974 0.0
H1462 H 0.94449 0.46948 0.45669 0.0
H1463 H 0.92826 0.50272 0.44847 0.0
H1464 H 0.86477 0.48076 0.40348 0.0
H1465 H 0.8624 0.43534 0.39856 0.0
C1466 C 0.89467 0.41776 0.41655 0.0
C1467 C 0.91334 0.4116 0.42677 0.0
C1468 C 0.89436 0.4429 0.42037 0.0
C1469 C 0.93078 0.4303 0.44153 0.0
C1470 C 0.9304 0.4552 0.44552 0.0
C1471 C 0.91368 0.4879 0.43773 0.0
C1472 C 0.89693 0.49528 0.42624 0.0
C1473 C 0.91268 0.46197 0.43477 0.0
C1474 C 0.87804 0.47572 0.41246 0.0
C1475 C 0.87671 0.44974 0.40959 0.0
H1476 H 0.77076 0.20285 0.21362 0.0
H1477 H 0.72543 0.24306 0.23605 0.0
H1478 H 0.76949 0.28822 0.23782 0.0
H1479 H 0.82128 0.31554 0.23508 0.0
H1480 H 0.86636 0.27509 0.21257 0.0
H1481 H 0.82195 0.23081 0.20873 0.0
C1482 C 0.77044 0.22152 0.21874 0.0
C1483 C 0.74486 0.21949 0.22487 0.0
C1484 C 0.79584 0.24736 0.21985 0.0
C1485 C 0.74482 0.24398 0.23128 0.0
C1486 C 0.77004 0.26982 0.23238 0.0
C1487 C 0.82138 0.29708 0.22925 0.0
C1488 C 0.84714 0.29857 0.22432 0.0
C1489 C 0.79574 0.27162 0.22706 0.0
C1490 C 0.84686 0.27453 0.21656 0.0
C1491 C 0.82146 0.24915 0.21437 0.0
H1492 H 0.83105 0.58042 0.2151 0.0
H1493 H 0.8029 0.51704 0.26078 0.0
H1494 H 0.7552 0.51004 0.25857 0.0
H1495 H 0.72261 0.5249 0.24575 0.0
H1496 H 0.75125 0.58912 0.20063 0.0
H1497 H 0.79753 0.59258 0.20046 0.0
C1498 C 0.81443 0.56485 0.22444 0.0
C1499 C 0.82065 0.54953 0.23825 0.0
C1500 C 0.78715 0.56119 0.22329 0.0
C1501 C 0.79878 0.52928 0.25012 0.0
C1502 C 0.77148 0.52529 0.2489 0.0
C1503 C 0.73885 0.53942 0.23572 0.0
C1504 C 0.73353 0.55694 0.2234 0.0
C1505 C 0.76559 0.5416 0.23586 0.0
C1506 C 0.7548 0.57553 0.2104 0.0
C1507 C 0.78133 0.57757 0.2103 0.0
H1508 H 0.43855 0.27979 0.22228 0.0
H1509 H 0.49527 0.30974 0.27211 0.0
H1510 H 0.50193 0.26884 0.26952 0.0
H1511 H 0.48954 0.22329 0.25433 0.0
H1512 H 0.43239 0.1931 0.20474 0.0
H1513 H 0.42821 0.23555 0.20595 0.0
C1514 C 0.4525 0.27748 0.23252 0.0
C1515 C 0.46619 0.29769 0.24747 0.0
C1516 C 0.45611 0.25384 0.23102 0.0
C1517 C 0.48437 0.29446 0.26051 0.0
C1518 C 0.48817 0.27104 0.25906 0.0
C1519 C 0.47633 0.22607 0.24368 0.0
C1520 C 0.46113 0.20493 0.22957 0.0
C1521 C 0.47383 0.25041 0.24456 0.0
C1522 C 0.44424 0.20897 0.21581 0.0
C1523 C 0.44178 0.23322 0.21652 0.0
H1524 H 0.28573 0.8622 0.78048 0.0
H1525 H 0.33201 0.83434 0.74384 0.0
H1526 H 0.29107 0.78679 0.74276 0.0
H1527 H 0.24149 0.75378 0.7508 0.0
H1528 H 0.19477 0.78192 0.7867 0.0
H1529 H 0.23667 0.82865 0.78961 0.0
C1530 C 0.28694 0.8457 0.77233 0.0
C1531 C 0.31186 0.85189 0.76215 0.0
C1532 C 0.26325 0.81846 0.77162 0.0
C1533 C 0.31306 0.83022 0.75172 0.0
C1534 C 0.28965 0.803 0.7511 0.0
C1535 C 0.24051 0.77003 0.75942 0.0
C1536 C 0.21498 0.76437 0.76844 0.0
C1537 C 0.26454 0.79697 0.7608 0.0
C1538 C 0.21411 0.78572 0.77954 0.0
C1539 C 0.23806 0.81248 0.78118 0.0
H1540 H 0.27289 0.46249 0.7701 0.0
H1541 H 0.30081 0.51867 0.71994 0.0
H1542 H 0.25686 0.52014 0.72065 0.0
H1543 H 0.20938 0.5032 0.73422 0.0
H1544 H 0.18126 0.44648 0.78408 0.0
H1545 H 0.22652 0.44768 0.78481 0.0
C1546 C 0.26948 0.47523 0.75939 0.0
C1547 C 0.29004 0.49026 0.74489 0.0
C1548 C 0.24407 0.47581 0.75977 0.0
C1549 C 0.28531 0.50679 0.73122 0.0
C1550 C 0.26014 0.50761 0.73159 0.0
C1551 C 0.2132 0.49127 0.74535 0.0
C1552 C 0.19185 0.47461 0.75897 0.0
C1553 C 0.2392 0.49185 0.7456 0.0
C1554 C 0.19725 0.45938 0.77335 0.0
C1555 C 0.22313 0.46001 0.77377 0.0
H1556 H 0.54855 0.73991 0.73103 0.0
H1557 H 0.61029 0.76541 0.77768 0.0
H1558 H 0.60958 0.80944 0.78177 0.0
H1559 H 0.59398 0.8421 0.77061 0.0
H1560 H 0.53288 0.8171 0.72358 0.0
H1561 H 0.53061 0.77138 0.72132 0.0
C1562 C 0.5617 0.75499 0.7422 0.0
C1563 C 0.57964 0.74945 0.75389 0.0
C1564 C 0.56137 0.78042 0.74439 0.0
C1565 C 0.5964 0.76917 0.76838 0.0
C1566 C 0.59604 0.7944 0.77073 0.0
C1567 C 0.57992 0.82656 0.75999 0.0
C1568 C 0.56381 0.83315 0.74717 0.0
C1569 C 0.57898 0.80045 0.75859 0.0
C1570 C 0.54563 0.81267 0.73357 0.0
C1571 C 0.54436 0.78653 0.73223 0.0
H1572 H 0.50287 0.64704 0.58389 0.0
H1573 H 0.5392 0.61815 0.53924 0.0
H1574 H 0.49366 0.57531 0.53464 0.0
H1575 H 0.44435 0.54476 0.54466 0.0
H1576 H 0.40818 0.57325 0.58969 0.0
H1577 H 0.45278 0.61763 0.59259 0.0
C1578 C 0.50081 0.63147 0.57306 0.0
C1579 C 0.52449 0.63572 0.56206 0.0
C1580 C 0.4746 0.60676 0.57056 0.0
C1581 C 0.52137 0.61538 0.548 0.0
C1582 C 0.49533 0.59083 0.54535 0.0
C1583 C 0.44611 0.56077 0.55498 0.0
C1584 C 0.42299 0.55557 0.56704 0.0
C1585 C 0.47192 0.58611 0.55676 0.0
C1586 C 0.42565 0.57661 0.58028 0.0
C1587 C 0.45119 0.602 0.582 0.0
H1588 H 0.4308 0.93308 0.55831 0.0
H1589 H 0.39921 0.88003 0.60993 0.0
H1590 H 0.43862 0.87089 0.60834 0.0
H1591 H 0.48337 0.88002 0.59339 0.0
H1592 H 0.51517 0.93345 0.54195 0.0
H1593 H 0.47417 0.94012 0.54229 0.0
C1594 C 0.43245 0.91942 0.56917 0.0
C1595 C 0.4122 0.90746 0.58431 0.0
C1596 C 0.4552 0.91431 0.56822 0.0
C1597 C 0.41454 0.8896 0.59816 0.0
C1598 C 0.4371 0.88438 0.59728 0.0
C1599 C 0.48123 0.89292 0.58213 0.0
C1600 C 0.50244 0.90637 0.56776 0.0
C1601 C 0.45774 0.89691 0.58252 0.0
C1602 C 0.49924 0.92293 0.55324 0.0
C1603 C 0.47582 0.92682 0.55345 0.0
H1604 H 0.12317 0.61368 0.55472 0.0
H1605 H 0.19899 0.65538 0.58996 0.0
H1606 H 0.19917 0.61097 0.59322 0.0
H1607 H 0.17639 0.55981 0.58762 0.0
H1608 H 0.10055 0.51817 0.55241 0.0
H1609 H 0.10192 0.56309 0.54756 0.0
C1610 C 0.13987 0.61313 0.563 0.0
C1611 C 0.1609 0.63781 0.5722 0.0
C1612 C 0.13978 0.5875 0.56492 0.0
C1613 C 0.18248 0.63671 0.58276 0.0
C1614 C 0.18257 0.61129 0.58469 0.0
C1615 C 0.16023 0.56057 0.5788 0.0
C1616 C 0.13828 0.5356 0.57054 0.0
C1617 C 0.16109 0.58648 0.57609 0.0
C1618 C 0.11764 0.53702 0.55901 0.0
C1619 C 0.11837 0.56272 0.55624 0.0
loop_
_geom_bond_atom_site_label_1
_geom_bond_atom_site_label_2
_geom_bond_distance
_geom_bond_site_symmetry_2
_ccdc_geom_bond_type
C0 O1 1.160 . S
C0 O7 1.185 . S
O1 C0 1.160 . S
O2 Zn3 1.899 . S
O2 C10 1.284 . S
Zn3 O2 1.899 . S
Zn3 O4 2.032 1_455 S
Zn3 O7 2.086 . S
Zn3 O12 1.977 . S
O4 Zn3 2.032 1_655 S
O4 C8 1.278 . S
C5 O6 1.203 . S
C5 O12 1.267 . S
O6 C5 1.203 . S
O7 C0 1.185 . S
O7 Zn3 2.086 . S
C8 O4 1.278 . S
C8 O9 1.211 . S
O9 C8 1.211 . S
C10 O2 1.284 . S
C10 O11 1.273 . S
O11 C10 1.273 . S
O12 Zn3 1.977 . S
O12 C5 1.267 . S
C13 O14 1.160 . S
C13 O20 1.185 . S
O14 C13 1.160 . S
O15 Zn16 1.899 . S
O15 C23 1.284 . S
Zn16 O15 1.899 . S
Zn16 O17 2.032 . S
Zn16 O20 2.086 . S
Zn16 O25 1.977 . S
O17 Zn16 2.032 . S
O17 C21 1.278 . S
C18 O19 1.203 . S
C18 O25 1.267 . S
O19 C18 1.203 . S
O20 C13 1.185 . S
O20 Zn16 2.086 . S
C21 O17 1.278 . S
C21 O22 1.211 . S
O22 C21 1.211 . S
C23 O15 1.284 . S
C23 O24 1.273 . S
O24 C23 1.273 . S
O25 Zn16 1.977 . S
O25 C18 1.267 . S
C26 O27 1.160 . S
C26 O33 1.185 . S
O27 C26 1.160 . S
O28 Zn29 1.899 1_565 S
O28 C36 1.284 . S
Zn29 O28 1.899 1_545 S
Zn29 O30 2.032 . S
Zn29 O33 2.086 . S
Zn29 O38 1.977 . S
O30 Zn29 2.032 . S
O30 C34 1.278 . S
C31 O32 1.203 . S
C31 O38 1.267 . S
O32 C31 1.203 . S
O33 C26 1.185 . S
O33 Zn29 2.086 . S
C34 O30 1.278 . S
C34 O35 1.211 . S
O35 C34 1.211 . S
C36 O28 1.284 . S
C36 O37 1.274 1_565 S
O37 C36 1.274 1_545 S
O38 Zn29 1.977 . S
O38 C31 1.267 . S
C39 O40 1.160 . S
C39 O46 1.185 . S
O40 C39 1.160 . S
O41 Zn42 1.899 . S
O41 C49 1.284 . S
Zn42 O41 1.899 . S
Zn42 O43 2.032 1_545 S
Zn42 O46 2.086 . S
Zn42 O51 1.977 . S
O43 Zn42 2.032 1_565 S
O43 C47 1.278 . S
C44 O45 1.203 . S
C44 O51 1.267 . S
O45 C44 1.203 . S
O46 C39 1.185 . S
O46 Zn42 2.086 . S
C47 O43 1.278 . S
C47 O48 1.211 . S
O48 C47 1.211 . S
C49 O41 1.284 . S
C49 O50 1.273 . S
O50 C49 1.273 . S
O51 Zn42 1.977 . S
O51 C44 1.267 . S
C52 O53 1.160 . S
C52 O59 1.185 . S
O53 C52 1.160 . S
O54 Zn55 1.899 1_655 S
O54 C62 1.284 . S
Zn55 O54 1.899 1_455 S
Zn55 O56 2.032 . S
Zn55 O59 2.086 . S
Zn55 O64 1.977 . S
O56 Zn55 2.032 . S
O56 C60 1.278 . S
C57 O58 1.203 . S
C57 O64 1.267 . S
O58 C57 1.203 . S
O59 C52 1.185 . S
O59 Zn55 2.086 . S
C60 O56 1.278 . S
C60 O61 1.211 . S
O61 C60 1.211 . S
C62 O54 1.284 . S
C62 O63 1.274 1_655 S
O63 C62 1.274 1_455 S
O64 Zn55 1.977 . S
O64 C57 1.267 . S
C65 O66 1.160 . S
C65 O72 1.185 . S
O66 C65 1.160 . S
O67 Zn68 1.899 . S
O67 C75 1.284 . S
Zn68 O67 1.899 . S
Zn68 O69 2.032 . S
Zn68 O72 2.086 . S
Zn68 O77 1.977 . S
O69 Zn68 2.032 . S
O69 C73 1.278 . S
C70 O71 1.203 . S
C70 O77 1.267 . S
O71 C70 1.203 . S
O72 C65 1.185 . S
O72 Zn68 2.086 . S
C73 O69 1.278 . S
C73 O74 1.211 . S
O74 C73 1.211 . S
C75 O67 1.284 . S
C75 O76 1.273 . S
O76 C75 1.273 . S
O77 Zn68 1.977 . S
O77 C70 1.267 . S
C78 O79 1.160 . S
C78 O85 1.185 . S
O79 C78 1.160 . S
O80 Zn81 1.899 1_655 S
O80 C88 1.284 . S
Zn81 O80 1.899 1_455 S
Zn81 O82 2.032 . S
Zn81 O85 2.086 . S
Zn81 O90 1.977 . S
O82 Zn81 2.032 . S
O82 C86 1.278 . S
C83 O84 1.203 . S
C83 O90 1.267 . S
O84 C83 1.203 . S
O85 C78 1.185 . S
O85 Zn81 2.086 . S
C86 O82 1.278 . S
C86 O87 1.211 . S
O87 C86 1.211 . S
C88 O80 1.284 . S
C88 O89 1.273 1_655 S
O89 C88 1.273 1_455 S
O90 Zn81 1.977 . S
O90 C83 1.267 . S
C91 O92 1.160 . S
C91 O98 1.185 . S
O92 C91 1.160 . S
O93 Zn94 1.899 . S
O93 C101 1.284 . S
Zn94 O93 1.899 . S
Zn94 O95 2.032 . S
Zn94 O98 2.086 . S
Zn94 O103 1.977 . S
O95 Zn94 2.032 . S
O95 C99 1.278 . S
C96 O97 1.203 . S
C96 O103 1.267 . S
O97 C96 1.203 . S
O98 C91 1.185 . S
O98 Zn94 2.086 . S
C99 O95 1.278 . S
C99 O100 1.211 . S
O100 C99 1.211 . S
C101 O93 1.284 . S
C101 O102 1.273 . S
O102 C101 1.273 . S
O103 Zn94 1.977 . S
O103 C96 1.267 . S
C104 O105 1.160 . S
C104 O111 1.185 . S
O105 C104 1.160 . S
O106 Zn107 1.899 . S
O106 C114 1.284 . S
Zn107 O106 1.899 . S
Zn107 O108 2.032 1_545 S
Zn107 O111 2.086 . S
Zn107 O116 1.977 . S
O108 Zn107 2.032 1_565 S
O108 C112 1.278 . S
C109 O110 1.203 . S
C109 O116 1.267 . S
O110 C109 1.203 . S
O111 C104 1.185 . S
O111 Zn107 2.086 . S
C112 O108 1.278 . S
C112 O113 1.211 . S
O113 C112 1.211 . S
C114 O106 1.284 . S
C114 O115 1.273 . S
O115 C114 1.273 . S
O116 Zn107 1.977 . S
O116 C109 1.267 . S
C117 O118 1.160 . S
C117 O124 1.185 . S
O118 C117 1.160 . S
O119 Zn120 1.899 1_565 S
O119 C127 1.284 . S
Zn120 O119 1.899 1_545 S
Zn120 O121 2.032 . S
Zn120 O124 2.086 . S
Zn120 O129 1.977 . S
O121 Zn120 2.032 . S
O121 C125 1.278 . S
C122 O123 1.203 . S
C122 O129 1.267 . S
O123 C122 1.203 . S
O124 C117 1.185 . S
O124 Zn120 2.086 . S
C125 O121 1.278 . S
C125 O126 1.211 . S
O126 C125 1.211 . S
C127 O119 1.284 . S
C127 O128 1.273 1_565 S
O128 C127 1.273 1_545 S
O129 Zn120 1.977 . S
O129 C122 1.267 . S
C130 O131 1.160 . S
C130 O137 1.185 . S
O131 C130 1.160 . S
O132 Zn133 1.899 . S
O132 C140 1.284 . S
Zn133 O132 1.899 . S
Zn133 O134 2.032 1_455 S
Zn133 O137 2.086 . S
Zn133 O142 1.977 . S
O134 Zn133 2.032 1_655 S
O134 C138 1.278 . S
C135 O136 1.203 . S
C135 O142 1.267 . S
O136 C135 1.203 . S
O137 C130 1.185 . S
O137 Zn133 2.086 . S
C138 O134 1.278 . S
C138 O139 1.211 . S
O139 C138 1.211 . S
C140 O132 1.284 . S
C140 O141 1.273 . S
O141 C140 1.273 . S
O142 Zn133 1.977 . S
O142 C135 1.267 . S
C143 O144 1.160 . S
C143 O150 1.185 . S
O144 C143 1.160 . S
O145 Zn146 1.899 . S
O145 C153 1.284 . S
Zn146 O145 1.899 . S
Zn146 O147 2.032 . S
Zn146 O150 2.086 . S
Zn146 O155 1.977 . S
O147 Zn146 2.032 . S
O147 C151 1.278 . S
C148 O149 1.203 . S
C148 O155 1.267 . S
O149 C148 1.203 . S
O150 C143 1.185 . S
O150 Zn146 2.086 . S
C151 O147 1.278 . S
C151 O152 1.211 . S
O152 C151 1.211 . S
C153 O145 1.284 . S
C153 O154 1.273 . S
O154 C153 1.273 . S
O155 Zn146 1.977 . S
O155 C148 1.267 . S
C156 O157 1.160 . S
C156 O163 1.185 . S
O157 C156 1.160 . S
O158 Zn159 1.899 . S
O158 C166 1.284 . S
Zn159 O158 1.899 . S
Zn159 O160 2.032 . S
Zn159 O163 2.086 . S
Zn159 O168 1.977 . S
O160 Zn159 2.032 . S
O160 C164 1.278 . S
C161 O162 1.203 . S
C161 O168 1.267 . S
O162 C161 1.203 . S
O163 C156 1.185 . S
O163 Zn159 2.086 . S
C164 O160 1.278 . S
C164 O165 1.211 . S
O165 C164 1.211 . S
C166 O158 1.284 . S
C166 O167 1.273 . S
O167 C166 1.273 . S
O168 Zn159 1.977 . S
O168 C161 1.267 . S
C169 O170 1.160 . S
C169 O176 1.185 . S
O170 C169 1.160 . S
O171 Zn172 1.899 . S
O171 C179 1.284 . S
Zn172 O171 1.899 . S
Zn172 O173 2.032 . S
Zn172 O176 2.086 . S
Zn172 O181 1.977 . S
O173 Zn172 2.032 . S
O173 C177 1.278 . S
C174 O175 1.203 . S
C174 O181 1.267 . S
O175 C174 1.203 . S
O176 C169 1.185 . S
O176 Zn172 2.086 . S
C177 O173 1.278 . S
C177 O178 1.211 . S
O178 C177 1.211 . S
C179 O171 1.284 . S
C179 O180 1.273 . S
O180 C179 1.273 . S
O181 Zn172 1.977 . S
O181 C174 1.267 . S
C182 O183 1.160 . S
C182 O189 1.185 . S
O183 C182 1.160 . S
O184 Zn185 1.899 . S
O184 C192 1.284 . S
Zn185 O184 1.899 . S
Zn185 O186 2.032 . S
Zn185 O189 2.086 . S
Zn185 O194 1.977 . S
O186 Zn185 2.032 . S
O186 C190 1.278 . S
C187 O188 1.203 . S
C187 O194 1.267 . S
O188 C187 1.203 . S
O189 C182 1.185 . S
O189 Zn185 2.086 . S
C190 O186 1.278 . S
C190 O191 1.211 . S
O191 C190 1.211 . S
C192 O184 1.284 . S
C192 O193 1.273 . S
O193 C192 1.273 . S
O194 Zn185 1.977 . S
O194 C187 1.267 . S
C195 O196 1.160 . S
C195 O202 1.185 . S
O196 C195 1.160 . S
O197 Zn198 1.899 . S
O197 C205 1.284 . S
Zn198 O197 1.899 . S
Zn198 O199 2.032 . S
Zn198 O202 2.086 . S
Zn198 O207 1.977 . S
O199 Zn198 2.032 . S
O199 C203 1.278 . S
C200 O201 1.203 . S
C200 O207 1.267 . S
O201 C200 1.203 . S
O202 C195 1.185 . S
O202 Zn198 2.086 . S
C203 O199 1.278 . S
C203 O204 1.211 . S
O204 C203 1.211 . S
C205 O197 1.284 . S
C205 O206 1.273 . S
O206 C205 1.273 . S
O207 Zn198 1.977 . S
O207 C200 1.267 . S
C208 O209 1.160 . S
C208 O215 1.185 . S
O209 C208 1.160 . S
O210 Zn211 1.899 . S
O210 C218 1.284 . S
Zn211 O210 1.899 . S
Zn211 O212 2.032 . S
Zn211 O215 2.086 . S
Zn211 O220 1.977 . S
O212 Zn211 2.032 . S
O212 C216 1.278 . S
C213 O214 1.203 . S
C213 O220 1.267 . S
O214 C213 1.203 . S
O215 C208 1.185 . S
O215 Zn211 2.086 . S
C216 O212 1.278 . S
C216 O217 1.211 . S
O217 C216 1.211 . S
C218 O210 1.284 . S
C218 O219 1.273 . S
O219 C218 1.273 . S
O220 Zn211 1.977 . S
O220 C213 1.267 . S
C221 O222 1.160 . S
C221 O228 1.185 . S
O222 C221 1.160 . S
O223 Zn224 1.899 . S
O223 C231 1.284 . S
Zn224 O223 1.899 . S
Zn224 O225 2.032 . S
Zn224 O228 2.086 . S
Zn224 O233 1.977 . S
O225 Zn224 2.032 . S
O225 C229 1.278 . S
C226 O227 1.203 . S
C226 O233 1.267 . S
O227 C226 1.203 . S
O228 C221 1.185 . S
O228 Zn224 2.086 . S
C229 O225 1.278 . S
C229 O230 1.211 . S
O230 C229 1.211 . S
C231 O223 1.284 . S
C231 O232 1.273 . S
O232 C231 1.273 . S
O233 Zn224 1.977 . S
O233 C226 1.267 . S
C234 O235 1.160 . S
C234 O241 1.185 . S
O235 C234 1.160 . S
O236 Zn237 1.899 . S
O236 C244 1.284 . S
Zn237 O236 1.899 . S
Zn237 O238 2.032 . S
Zn237 O241 2.086 . S
Zn237 O246 1.977 . S
O238 Zn237 2.032 . S
O238 C242 1.278 . S
C239 O240 1.203 . S
C239 O246 1.267 . S
O240 C239 1.203 . S
O241 C234 1.185 . S
O241 Zn237 2.086 . S
C242 O238 1.278 . S
C242 O243 1.211 . S
O243 C242 1.211 . S
C244 O236 1.284 . S
C244 O245 1.273 . S
O245 C244 1.273 . S
O246 Zn237 1.977 . S
O246 C239 1.267 . S
C247 O248 1.160 . S
C247 O254 1.185 . S
O248 C247 1.160 . S
O249 Zn250 1.899 . S
O249 C257 1.284 . S
Zn250 O249 1.899 . S
Zn250 O251 2.032 . S
Zn250 O254 2.086 . S
Zn250 O259 1.977 . S
O251 Zn250 2.032 . S
O251 C255 1.278 . S
C252 O253 1.203 . S
C252 O259 1.267 . S
O253 C252 1.203 . S
O254 C247 1.185 . S
O254 Zn250 2.086 . S
C255 O251 1.278 . S
C255 O256 1.211 . S
O256 C255 1.211 . S
C257 O249 1.284 . S
C257 O258 1.273 . S
O258 C257 1.273 . S
O259 Zn250 1.977 . S
O259 C252 1.267 . S
C260 O261 1.160 . S
C260 O267 1.185 . S
O261 C260 1.160 . S
O262 Zn263 1.899 . S
O262 C270 1.284 . S
Zn263 O262 1.899 . S
Zn263 O264 2.032 . S
Zn263 O267 2.086 . S
Zn263 O272 1.977 . S
O264 Zn263 2.032 . S
O264 C268 1.278 . S
C265 O266 1.203 . S
C265 O272 1.267 . S
O266 C265 1.203 . S
O267 C260 1.185 . S
O267 Zn263 2.086 . S
C268 O264 1.278 . S
C268 O269 1.211 . S
O269 C268 1.211 . S
C270 O262 1.284 . S
C270 O271 1.273 . S
O271 C270 1.273 . S
O272 Zn263 1.977 . S
O272 C265 1.267 . S
C273 O274 1.160 . S
C273 O280 1.185 . S
O274 C273 1.160 . S
O275 Zn276 1.899 . S
O275 C283 1.284 . S
Zn276 O275 1.899 . S
Zn276 O277 2.032 . S
Zn276 O280 2.086 . S
Zn276 O285 1.977 . S
O277 Zn276 2.032 . S
O277 C281 1.278 . S
C278 O279 1.203 . S
C278 O285 1.267 . S
O279 C278 1.203 . S
O280 C273 1.185 . S
O280 Zn276 2.086 . S
C281 O277 1.278 . S
C281 O282 1.211 . S
O282 C281 1.211 . S
C283 O275 1.284 . S
C283 O284 1.273 . S
O284 C283 1.273 . S
O285 Zn276 1.977 . S
O285 C278 1.267 . S
C286 O287 1.160 . S
C286 O293 1.185 . S
O287 C286 1.160 . S
O288 Zn289 1.899 . S
O288 C296 1.284 . S
Zn289 O288 1.899 . S
Zn289 O290 2.032 . S
Zn289 O293 2.086 . S
Zn289 O298 1.977 . S
O290 Zn289 2.032 . S
O290 C294 1.278 . S
C291 O292 1.203 . S
C291 O298 1.267 . S
O292 C291 1.203 . S
O293 C286 1.185 . S
O293 Zn289 2.086 . S
C294 O290 1.278 . S
C294 O295 1.211 . S
O295 C294 1.211 . S
C296 O288 1.284 . S
C296 O297 1.273 . S
O297 C296 1.273 . S
O298 Zn289 1.977 . S
O298 C291 1.267 . S
C299 O300 1.160 . S
C299 O306 1.185 . S
O300 C299 1.160 . S
O301 Zn302 1.899 . S
O301 C309 1.284 . S
Zn302 O301 1.899 . S
Zn302 O303 2.032 . S
Zn302 O306 2.086 . S
Zn302 O311 1.977 . S
O303 Zn302 2.032 . S
O303 C307 1.278 . S
C304 O305 1.203 . S
C304 O311 1.267 . S
O305 C304 1.203 . S
O306 C299 1.185 . S
O306 Zn302 2.086 . S
C307 O303 1.278 . S
C307 O308 1.211 . S
O308 C307 1.211 . S
C309 O301 1.284 . S
C309 O310 1.273 . S
O310 C309 1.273 . S
O311 Zn302 1.977 . S
O311 C304 1.267 . S
C312 O313 1.160 . S
C312 O319 1.185 . S
O313 C312 1.160 . S
O314 Zn315 1.899 . S
O314 C322 1.284 . S
Zn315 O314 1.899 . S
Zn315 O316 2.032 . S
Zn315 O319 2.086 . S
Zn315 O324 1.977 . S
O316 Zn315 2.032 . S
O316 C320 1.278 . S
C317 O318 1.203 . S
C317 O324 1.267 . S
O318 C317 1.203 . S
O319 C312 1.185 . S
O319 Zn315 2.086 . S
C320 O316 1.278 . S
C320 O321 1.211 . S
O321 C320 1.211 . S
C322 O314 1.284 . S
C322 O323 1.273 . S
O323 C322 1.273 . S
O324 Zn315 1.977 . S
O324 C317 1.267 . S
C325 O326 1.160 . S
C325 O332 1.185 . S
O326 C325 1.160 . S
O327 Zn328 1.899 . S
O327 C335 1.284 . S
Zn328 O327 1.899 . S
Zn328 O329 2.032 . S
Zn328 O332 2.086 . S
Zn328 O337 1.977 . S
O329 Zn328 2.032 . S
O329 C333 1.278 . S
C330 O331 1.203 . S
C330 O337 1.267 . S
O331 C330 1.203 . S
O332 C325 1.185 . S
O332 Zn328 2.086 . S
C333 O329 1.278 . S
C333 O334 1.211 . S
O334 C333 1.211 . S
C335 O327 1.284 . S
C335 O336 1.273 . S
O336 C335 1.273 . S
O337 Zn328 1.977 . S
O337 C330 1.267 . S
C338 O339 1.160 . S
C338 O345 1.185 . S
O339 C338 1.160 . S
O340 Zn341 1.899 . S
O340 C348 1.284 . S
Zn341 O340 1.899 . S
Zn341 O342 2.032 . S
Zn341 O345 2.086 . S
Zn341 O350 1.977 . S
O342 Zn341 2.032 . S
O342 C346 1.278 . S
C343 O344 1.203 . S
C343 O350 1.267 . S
O344 C343 1.203 . S
O345 C338 1.185 . S
O345 Zn341 2.086 . S
C346 O342 1.278 . S
C346 O347 1.211 . S
O347 C346 1.211 . S
C348 O340 1.284 . S
C348 O349 1.273 . S
O349 C348 1.273 . S
O350 Zn341 1.977 . S
O350 C343 1.267 . S
C351 O352 1.160 . S
C351 O358 1.185 . S
O352 C351 1.160 . S
O353 Zn354 1.899 . S
O353 C361 1.284 . S
Zn354 O353 1.899 . S
Zn354 O355 2.032 . S
Zn354 O358 2.086 . S
Zn354 O363 1.977 . S
O355 Zn354 2.032 . S
O355 C359 1.278 . S
C356 O357 1.203 . S
C356 O363 1.267 . S
O357 C356 1.203 . S
O358 C351 1.185 . S
O358 Zn354 2.086 . S
C359 O355 1.278 . S
C359 O360 1.211 . S
O360 C359 1.211 . S
C361 O353 1.284 . S
C361 O362 1.273 . S
O362 C361 1.273 . S
O363 Zn354 1.977 . S
O363 C356 1.267 . S
C364 O365 1.160 . S
C364 O371 1.185 . S
O365 C364 1.160 . S
O366 Zn367 1.899 . S
O366 C374 1.284 . S
Zn367 O366 1.899 . S
Zn367 O368 2.032 . S
Zn367 O371 2.086 . S
Zn367 O376 1.977 . S
O368 Zn367 2.032 . S
O368 C372 1.278 . S
C369 O370 1.203 . S
C369 O376 1.267 . S
O370 C369 1.203 . S
O371 C364 1.185 . S
O371 Zn367 2.086 . S
C372 O368 1.278 . S
C372 O373 1.211 . S
O373 C372 1.211 . S
C374 O366 1.284 . S
C374 O375 1.273 . S
O375 C374 1.273 . S
O376 Zn367 1.977 . S
O376 C369 1.267 . S
C377 O378 1.160 . S
C377 O384 1.185 . S
O378 C377 1.160 . S
O379 Zn380 1.899 . S
O379 C387 1.284 . S
Zn380 O379 1.899 . S
Zn380 O381 2.032 . S
Zn380 O384 2.086 . S
Zn380 O389 1.977 . S
O381 Zn380 2.032 . S
O381 C385 1.278 . S
C382 O383 1.203 . S
C382 O389 1.267 . S
O383 C382 1.203 . S
O384 C377 1.185 . S
O384 Zn380 2.086 . S
C385 O381 1.278 . S
C385 O386 1.211 . S
O386 C385 1.211 . S
C387 O379 1.284 . S
C387 O388 1.273 . S
O388 C387 1.273 . S
O389 Zn380 1.977 . S
O389 C382 1.267 . S
C390 O391 1.160 . S
C390 O397 1.185 . S
O391 C390 1.160 . S
O392 Zn393 1.899 . S
O392 C400 1.284 . S
Zn393 O392 1.899 . S
Zn393 O394 2.032 . S
Zn393 O397 2.086 . S
Zn393 O402 1.977 . S
O394 Zn393 2.032 . S
O394 C398 1.278 . S
C395 O396 1.203 . S
C395 O402 1.267 . S
O396 C395 1.203 . S
O397 C390 1.185 . S
O397 Zn393 2.086 . S
C398 O394 1.278 . S
C398 O399 1.211 . S
O399 C398 1.211 . S
C400 O392 1.284 . S
C400 O401 1.273 . S
O401 C400 1.273 . S
O402 Zn393 1.977 . S
O402 C395 1.267 . S
C403 O404 1.160 . S
C403 O410 1.185 . S
O404 C403 1.160 . S
O405 Zn406 1.899 . S
O405 C413 1.284 . S
Zn406 O405 1.899 . S
Zn406 O407 2.032 . S
Zn406 O410 2.086 . S
Zn406 O415 1.977 . S
O407 Zn406 2.032 . S
O407 C411 1.278 . S
C408 O409 1.203 . S
C408 O415 1.267 . S
O409 C408 1.203 . S
O410 C403 1.185 . S
O410 Zn406 2.086 . S
C411 O407 1.278 . S
C411 O412 1.211 . S
O412 C411 1.211 . S
C413 O405 1.284 . S
C413 O414 1.273 . S
O414 C413 1.273 . S
O415 Zn406 1.977 . S
O415 C408 1.267 . S
C416 O417 1.160 . S
C416 O423 1.185 . S
O417 C416 1.160 . S
O418 Zn419 1.899 . S
O418 C426 1.284 . S
Zn419 O418 1.899 . S
Zn419 O420 2.032 . S
Zn419 O423 2.086 . S
Zn419 O428 1.977 . S
O420 Zn419 2.032 . S
O420 C424 1.278 . S
C421 O422 1.203 . S
C421 O428 1.267 . S
O422 C421 1.203 . S
O423 C416 1.185 . S
O423 Zn419 2.086 . S
C424 O420 1.278 . S
C424 O425 1.211 . S
O425 C424 1.211 . S
C426 O418 1.284 . S
C426 O427 1.273 . S
O427 C426 1.273 . S
O428 Zn419 1.977 . S
O428 C421 1.267 . S
C429 O430 1.160 . S
C429 O436 1.185 . S
O430 C429 1.160 . S
O431 Zn432 1.899 . S
O431 C439 1.284 . S
Zn432 O431 1.899 . S
Zn432 O433 2.032 . S
Zn432 O436 2.086 . S
Zn432 O441 1.977 . S
O433 Zn432 2.032 . S
O433 C437 1.278 . S
C434 O435 1.203 . S
C434 O441 1.267 . S
O435 C434 1.203 . S
O436 C429 1.185 . S
O436 Zn432 2.086 . S
C437 O433 1.278 . S
C437 O438 1.211 . S
O438 C437 1.211 . S
C439 O431 1.284 . S
C439 O440 1.273 . S
O440 C439 1.273 . S
O441 Zn432 1.977 . S
O441 C434 1.267 . S
C442 O443 1.160 . S
C442 O449 1.185 . S
O443 C442 1.160 . S
O444 Zn445 1.899 . S
O444 C452 1.284 . S
Zn445 O444 1.899 . S
Zn445 O446 2.032 . S
Zn445 O449 2.086 . S
Zn445 O454 1.977 . S
O446 Zn445 2.032 . S
O446 C450 1.278 . S
C447 O448 1.203 . S
C447 O454 1.267 . S
O448 C447 1.203 . S
O449 C442 1.185 . S
O449 Zn445 2.086 . S
C450 O446 1.278 . S
C450 O451 1.211 . S
O451 C450 1.211 . S
C452 O444 1.284 . S
C452 O453 1.273 . S
O453 C452 1.273 . S
O454 Zn445 1.977 . S
O454 C447 1.267 . S
C455 O456 1.160 . S
C455 O462 1.185 . S
O456 C455 1.160 . S
O457 Zn458 1.899 . S
O457 C465 1.284 . S
Zn458 O457 1.899 . S
Zn458 O459 2.032 . S
Zn458 O462 2.086 . S
Zn458 O467 1.977 . S
O459 Zn458 2.032 . S
O459 C463 1.278 . S
C460 O461 1.203 . S
C460 O467 1.267 . S
O461 C460 1.203 . S
O462 C455 1.185 . S
O462 Zn458 2.086 . S
C463 O459 1.278 . S
C463 O464 1.211 . S
O464 C463 1.211 . S
C465 O457 1.284 . S
C465 O466 1.273 . S
O466 C465 1.273 . S
O467 Zn458 1.977 . S
O467 C460 1.267 . S
H468 C474 0.930 . S
H469 C477 0.930 . S
H470 C478 0.930 . S
H471 C479 0.930 . S
H472 C482 0.930 . S
H473 C483 0.930 . S
C474 H468 0.930 . S
C474 C475 1.355 . S
C474 C476 1.415 . S
C475 C474 1.355 . S
C475 C477 1.419 . S
C476 C474 1.415 . S
C476 C481 1.425 . S
C476 C483 1.409 . S
C477 H469 0.930 . S
C477 C475 1.419 . S
C477 C478 1.362 . S
C478 H470 0.930 . S
C478 C477 1.362 . S
C478 C481 1.409 . S
C479 H471 0.930 . S
C479 C480 1.355 . S
C479 C481 1.415 . S
C480 C479 1.355 . S
C480 C482 1.419 . S
C481 C476 1.425 . S
C481 C478 1.409 . S
C481 C479 1.415 . S
C482 H472 0.930 . S
C482 C480 1.419 . S
C482 C483 1.362 . S
C483 H473 0.930 . S
C483 C476 1.409 . S
C483 C482 1.362 . S
H484 C490 0.930 . S
H485 C493 0.930 . S
H486 C494 0.930 . S
H487 C495 0.930 . S
H488 C498 0.930 . S
H489 C499 0.930 . S
C490 H484 0.930 . S
C490 C491 1.355 . S
C490 C492 1.415 . S
C491 C490 1.355 . S
C491 C493 1.419 . S
C492 C490 1.415 . S
C492 C497 1.425 . S
C492 C499 1.409 . S
C493 H485 0.930 . S
C493 C491 1.419 . S
C493 C494 1.362 . S
C494 H486 0.930 . S
C494 C493 1.362 . S
C494 C497 1.409 . S
C495 H487 0.930 . S
C495 C496 1.355 . S
C495 C497 1.415 . S
C496 C495 1.355 . S
C496 C498 1.419 . S
C497 C492 1.425 . S
C497 C494 1.409 . S
C497 C495 1.415 . S
C498 H488 0.930 . S
C498 C496 1.419 . S
C498 C499 1.362 . S
C499 H489 0.930 . S
C499 C492 1.409 . S
C499 C498 1.362 . S
H500 C506 0.930 . S
H501 C509 0.930 . S
H502 C510 0.930 . S
H503 C511 0.930 . S
H504 C514 0.930 . S
H505 C515 0.930 . S
C506 H500 0.930 . S
C506 C507 1.355 . S
C506 C508 1.415 . S
C507 C506 1.355 . S
C507 C509 1.419 . S
C508 C506 1.415 . S
C508 C513 1.425 . S
C508 C515 1.409 . S
C509 H501 0.930 . S
C509 C507 1.419 . S
C509 C510 1.362 . S
C510 H502 0.930 . S
C510 C509 1.362 . S
C510 C513 1.409 . S
C511 H503 0.930 . S
C511 C512 1.355 . S
C511 C513 1.415 . S
C512 C511 1.355 . S
C512 C514 1.419 . S
C513 C508 1.425 . S
C513 C510 1.409 . S
C513 C511 1.415 . S
C514 H504 0.930 . S
C514 C512 1.419 . S
C514 C515 1.362 . S
C515 H505 0.930 . S
C515 C508 1.409 . S
C515 C514 1.362 . S
H516 C522 0.930 . S
H517 C525 0.930 . S
H518 C526 0.930 . S
H519 C527 0.930 . S
H520 C530 0.930 . S
H521 C531 0.930 . S
C522 H516 0.930 . S
C522 C523 1.355 . S
C522 C524 1.415 . S
C523 C522 1.355 . S
C523 C525 1.419 . S
C524 C522 1.415 . S
C524 C529 1.425 . S
C524 C531 1.409 . S
C525 H517 0.930 . S
C525 C523 1.419 . S
C525 C526 1.362 . S
C526 H518 0.930 . S
C526 C525 1.362 . S
C526 C529 1.409 . S
C527 H519 0.930 . S
C527 C528 1.355 . S
C527 C529 1.415 . S
C528 C527 1.355 . S
C528 C530 1.419 . S
C529 C524 1.425 . S
C529 C526 1.409 . S
C529 C527 1.415 . S
C530 H520 0.930 . S
C530 C528 1.419 . S
C530 C531 1.362 . S
C531 H521 0.930 . S
C531 C524 1.409 . S
C531 C530 1.362 . S
H532 C538 0.930 . S
H533 C541 0.930 . S
H534 C542 0.930 . S
H535 C543 0.930 . S
H536 C546 0.930 . S
H537 C547 0.930 . S
C538 H532 0.930 . S
C538 C539 1.355 . S
C538 C540 1.415 . S
C539 C538 1.355 . S
C539 C541 1.419 . S
C540 C538 1.415 . S
C540 C545 1.425 . S
C540 C547 1.409 . S
C541 H533 0.930 . S
C541 C539 1.419 . S
C541 C542 1.362 . S
C542 H534 0.930 . S
C542 C541 1.362 . S
C542 C545 1.409 . S
C543 H535 0.930 . S
C543 C544 1.355 . S
C543 C545 1.415 . S
C544 C543 1.355 . S
C544 C546 1.419 . S
C545 C540 1.425 . S
C545 C542 1.409 . S
C545 C543 1.415 . S
C546 H536 0.930 . S
C546 C544 1.419 . S
C546 C547 1.362 . S
C547 H537 0.930 . S
C547 C540 1.409 . S
C547 C546 1.362 . S
H548 C554 0.930 . S
H549 C557 0.930 . S
H550 C558 0.930 . S
H551 C559 0.930 . S
H552 C562 0.930 . S
H553 C563 0.930 . S
C554 H548 0.930 . S
C554 C555 1.355 . S
C554 C556 1.415 . S
C555 C554 1.355 . S
C555 C557 1.419 . S
C556 C554 1.415 . S
C556 C561 1.425 . S
C556 C563 1.409 . S
C557 H549 0.930 . S
C557 C555 1.419 . S
C557 C558 1.362 . S
C558 H550 0.930 . S
C558 C557 1.362 . S
C558 C561 1.409 . S
C559 H551 0.930 . S
C559 C560 1.355 . S
C559 C561 1.415 . S
C560 C559 1.355 . S
C560 C562 1.419 . S
C561 C556 1.425 . S
C561 C558 1.409 . S
C561 C559 1.415 . S
C562 H552 0.930 . S
C562 C560 1.419 . S
C562 C563 1.362 . S
C563 H553 0.930 . S
C563 C556 1.409 . S
C563 C562 1.362 . S
H564 C570 0.930 . S
H565 C573 0.930 . S
H566 C574 0.930 . S
H567 C575 0.930 . S
H568 C578 0.930 . S
H569 C579 0.930 . S
C570 H564 0.930 . S
C570 C571 1.355 . S
C570 C572 1.415 . S
C571 C570 1.355 . S
C571 C573 1.419 . S
C572 C570 1.415 . S
C572 C577 1.425 . S
C572 C579 1.409 . S
C573 H565 0.930 . S
C573 C571 1.419 . S
C573 C574 1.362 . S
C574 H566 0.930 . S
C574 C573 1.362 . S
C574 C577 1.409 . S
C575 H567 0.930 . S
C575 C576 1.355 . S
C575 C577 1.415 . S
C576 C575 1.355 . S
C576 C578 1.419 . S
C577 C572 1.425 . S
C577 C574 1.409 . S
C577 C575 1.415 . S
C578 H568 0.930 . S
C578 C576 1.419 . S
C578 C579 1.362 . S
C579 H569 0.930 . S
C579 C572 1.409 . S
C579 C578 1.362 . S
H580 C586 0.930 . S
H581 C589 0.930 . S
H582 C590 0.930 . S
H583 C591 0.930 . S
H584 C594 0.930 . S
H585 C595 0.930 . S
C586 H580 0.930 . S
C586 C587 1.355 . S
C586 C588 1.415 . S
C587 C586 1.355 . S
C587 C589 1.419 . S
C588 C586 1.415 . S
C588 C593 1.425 . S
C588 C595 1.409 . S
C589 H581 0.930 . S
C589 C587 1.419 . S
C589 C590 1.362 . S
C590 H582 0.930 . S
C590 C589 1.362 . S
C590 C593 1.409 . S
C591 H583 0.930 . S
C591 C592 1.355 . S
C591 C593 1.415 . S
C592 C591 1.355 . S
C592 C594 1.419 . S
C593 C588 1.425 . S
C593 C590 1.409 . S
C593 C591 1.415 . S
C594 H584 0.930 . S
C594 C592 1.419 . S
C594 C595 1.362 . S
C595 H585 0.930 . S
C595 C588 1.409 . S
C595 C594 1.362 . S
H596 C602 0.930 . S
H597 C605 0.930 . S
H598 C606 0.930 . S
H599 C607 0.930 . S
H600 C610 0.930 . S
H601 C611 0.930 . S
C602 H596 0.930 . S
C602 C603 1.355 . S
C602 C604 1.415 . S
C603 C602 1.355 . S
C603 C605 1.419 . S
C604 C602 1.415 . S
C604 C609 1.425 . S
C604 C611 1.409 . S
C605 H597 0.930 . S
C605 C603 1.419 . S
C605 C606 1.362 . S
C606 H598 0.930 . S
C606 C605 1.362 . S
C606 C609 1.409 . S
C607 H599 0.930 . S
C607 C608 1.355 . S
C607 C609 1.415 . S
C608 C607 1.355 . S
C608 C610 1.419 . S
C609 C604 1.425 . S
C609 C606 1.409 . S
C609 C607 1.415 . S
C610 H600 0.930 . S
C610 C608 1.419 . S
C610 C611 1.362 . S
C611 H601 0.930 . S
C611 C604 1.409 . S
C611 C610 1.362 . S
H612 C618 0.930 . S
H613 C621 0.930 . S
H614 C622 0.930 . S
H615 C623 0.930 . S
H616 C626 0.930 . S
H617 C627 0.930 . S
C618 H612 0.930 . S
C618 C619 1.355 . S
C618 C620 1.415 . S
C619 C618 1.355 . S
C619 C621 1.419 . S
C620 C618 1.415 . S
C620 C625 1.425 . S
C620 C627 1.409 . S
C621 H613 0.930 . S
C621 C619 1.419 . S
C621 C622 1.362 . S
C622 H614 0.930 . S
C622 C621 1.362 . S
C622 C625 1.409 . S
C623 H615 0.930 . S
C623 C624 1.355 . S
C623 C625 1.415 . S
C624 C623 1.355 . S
C624 C626 1.419 . S
C625 C620 1.425 . S
C625 C622 1.409 . S
C625 C623 1.415 . S
C626 H616 0.930 . S
C626 C624 1.419 . S
C626 C627 1.362 . S
C627 H617 0.930 . S
C627 C620 1.409 . S
C627 C626 1.362 . S
H628 C634 0.930 . S
H629 C637 0.930 . S
H630 C638 0.930 . S
H631 C639 0.930 . S
H632 C642 0.930 . S
H633 C643 0.930 . S
C634 H628 0.930 . S
C634 C635 1.355 . S
C634 C636 1.415 . S
C635 C634 1.355 . S
C635 C637 1.419 . S
C636 C634 1.415 . S
C636 C641 1.425 . S
C636 C643 1.409 . S
C637 H629 0.930 . S
C637 C635 1.419 . S
C637 C638 1.362 . S
C638 H630 0.930 . S
C638 C637 1.362 . S
C638 C641 1.409 . S
C639 H631 0.930 . S
C639 C640 1.355 . S
C639 C641 1.415 . S
C640 C639 1.355 . S
C640 C642 1.419 . S
C641 C636 1.425 . S
C641 C638 1.409 . S
C641 C639 1.415 . S
C642 H632 0.930 . S
C642 C640 1.419 . S
C642 C643 1.362 . S
C643 H633 0.930 . S
C643 C636 1.409 . S
C643 C642 1.362 . S
H644 C650 0.930 . S
H645 C653 0.930 . S
H646 C654 0.930 . S
H647 C655 0.930 . S
H648 C658 0.930 . S
H649 C659 0.930 . S
C650 H644 0.930 . S
C650 C651 1.355 . S
C650 C652 1.415 . S
C651 C650 1.355 . S
C651 C653 1.419 . S
C652 C650 1.415 . S
C652 C657 1.425 . S
C652 C659 1.409 . S
C653 H645 0.930 . S
C653 C651 1.419 . S
C653 C654 1.362 . S
C654 H646 0.930 . S
C654 C653 1.362 . S
C654 C657 1.409 . S
C655 H647 0.930 . S
C655 C656 1.355 . S
C655 C657 1.415 . S
C656 C655 1.355 . S
C656 C658 1.419 . S
C657 C652 1.425 . S
C657 C654 1.409 . S
C657 C655 1.415 . S
C658 H648 0.930 . S
C658 C656 1.419 . S
C658 C659 1.362 . S
C659 H649 0.930 . S
C659 C652 1.409 . S
C659 C658 1.362 . S
H660 C666 0.930 . S
H661 C669 0.930 . S
H662 C670 0.930 . S
H663 C671 0.930 . S
H664 C674 0.930 . S
H665 C675 0.930 . S
C666 H660 0.930 . S
C666 C667 1.355 . S
C666 C668 1.415 . S
C667 C666 1.355 . S
C667 C669 1.419 . S
C668 C666 1.415 . S
C668 C673 1.425 . S
C668 C675 1.409 . S
C669 H661 0.930 . S
C669 C667 1.419 . S
C669 C670 1.362 . S
C670 H662 0.930 . S
C670 C669 1.362 . S
C670 C673 1.409 . S
C671 H663 0.930 . S
C671 C672 1.355 . S
C671 C673 1.415 . S
C672 C671 1.355 . S
C672 C674 1.419 . S
C673 C668 1.425 . S
C673 C670 1.409 . S
C673 C671 1.415 . S
C674 H664 0.930 . S
C674 C672 1.419 . S
C674 C675 1.362 . S
C675 H665 0.930 . S
C675 C668 1.409 . S
C675 C674 1.362 . S
H676 C682 0.930 . S
H677 C685 0.930 . S
H678 C686 0.930 . S
H679 C687 0.930 . S
H680 C690 0.930 . S
H681 C691 0.930 . S
C682 H676 0.930 . S
C682 C683 1.355 . S
C682 C684 1.415 . S
C683 C682 1.355 . S
C683 C685 1.419 . S
C684 C682 1.415 . S
C684 C689 1.425 . S
C684 C691 1.409 . S
C685 H677 0.930 . S
C685 C683 1.419 . S
C685 C686 1.362 . S
C686 H678 0.930 . S
C686 C685 1.362 . S
C686 C689 1.409 . S
C687 H679 0.930 . S
C687 C688 1.355 . S
C687 C689 1.415 . S
C688 C687 1.355 . S
C688 C690 1.419 . S
C689 C684 1.425 . S
C689 C686 1.409 . S
C689 C687 1.415 . S
C690 H680 0.930 . S
C690 C688 1.419 . S
C690 C691 1.362 . S
C691 H681 0.930 . S
C691 C684 1.409 . S
C691 C690 1.362 . S
H692 C698 0.930 . S
H693 C701 0.930 . S
H694 C702 0.930 . S
H695 C703 0.930 . S
H696 C706 0.930 . S
H697 C707 0.930 . S
C698 H692 0.930 . S
C698 C699 1.355 . S
C698 C700 1.415 . S
C699 C698 1.355 . S
C699 C701 1.419 . S
C700 C698 1.415 . S
C700 C705 1.425 . S
C700 C707 1.409 . S
C701 H693 0.930 . S
C701 C699 1.419 . S
C701 C702 1.362 . S
C702 H694 0.930 . S
C702 C701 1.362 . S
C702 C705 1.409 . S
C703 H695 0.930 . S
C703 C704 1.355 . S
C703 C705 1.415 . S
C704 C703 1.355 . S
C704 C706 1.419 . S
C705 C700 1.425 . S
C705 C702 1.409 . S
C705 C703 1.415 . S
C706 H696 0.930 . S
C706 C704 1.419 . S
C706 C707 1.362 . S
C707 H697 0.930 . S
C707 C700 1.409 . S
C707 C706 1.362 . S
H708 C714 0.930 . S
H709 C717 0.930 . S
H710 C718 0.930 . S
H711 C719 0.930 . S
H712 C722 0.930 . S
H713 C723 0.930 . S
C714 H708 0.930 . S
C714 C715 1.355 . S
C714 C716 1.415 . S
C715 C714 1.355 . S
C715 C717 1.419 . S
C716 C714 1.415 . S
C716 C721 1.425 . S
C716 C723 1.409 . S
C717 H709 0.930 . S
C717 C715 1.419 . S
C717 C718 1.362 . S
C718 H710 0.930 . S
C718 C717 1.362 . S
C718 C721 1.409 . S
C719 H711 0.930 . S
C719 C720 1.355 . S
C719 C721 1.415 . S
C720 C719 1.355 . S
C720 C722 1.419 . S
C721 C716 1.425 . S
C721 C718 1.409 . S
C721 C719 1.415 . S
C722 H712 0.930 . S
C722 C720 1.419 . S
C722 C723 1.362 . S
C723 H713 0.930 . S
C723 C716 1.409 . S
C723 C722 1.362 . S
H724 C730 0.930 . S
H725 C733 0.930 . S
H726 C734 0.930 . S
H727 C735 0.930 . S
H728 C738 0.930 . S
H729 C739 0.930 . S
C730 H724 0.930 . S
C730 C731 1.355 . S
C730 C732 1.415 . S
C731 C730 1.355 . S
C731 C733 1.419 . S
C732 C730 1.415 . S
C732 C737 1.425 . S
C732 C739 1.409 . S
C733 H725 0.930 . S
C733 C731 1.419 . S
C733 C734 1.362 . S
C734 H726 0.930 . S
C734 C733 1.362 . S
C734 C737 1.409 . S
C735 H727 0.930 . S
C735 C736 1.355 . S
C735 C737 1.415 . S
C736 C735 1.355 . S
C736 C738 1.419 . S
C737 C732 1.425 . S
C737 C734 1.409 . S
C737 C735 1.415 . S
C738 H728 0.930 . S
C738 C736 1.419 . S
C738 C739 1.362 . S
C739 H729 0.930 . S
C739 C732 1.409 . S
C739 C738 1.362 . S
H740 C746 0.930 . S
H741 C749 0.930 . S
H742 C750 0.930 . S
H743 C751 0.930 . S
H744 C754 0.930 . S
H745 C755 0.930 . S
C746 H740 0.930 . S
C746 C747 1.355 . S
C746 C748 1.415 . S
C747 C746 1.355 . S
C747 C749 1.419 . S
C748 C746 1.415 . S
C748 C753 1.425 . S
C748 C755 1.409 . S
C749 H741 0.930 . S
C749 C747 1.419 . S
C749 C750 1.362 . S
C750 H742 0.930 . S
C750 C749 1.362 . S
C750 C753 1.409 . S
C751 H743 0.930 . S
C751 C752 1.355 . S
C751 C753 1.415 . S
C752 C751 1.355 . S
C752 C754 1.419 . S
C753 C748 1.425 . S
C753 C750 1.409 . S
C753 C751 1.415 . S
C754 H744 0.930 . S
C754 C752 1.419 . S
C754 C755 1.362 . S
C755 H745 0.930 . S
C755 C748 1.409 . S
C755 C754 1.362 . S
H756 C762 0.930 . S
H757 C765 0.930 . S
H758 C766 0.930 . S
H759 C767 0.930 . S
H760 C770 0.930 . S
H761 C771 0.931 . S
C762 H756 0.930 . S
C762 C763 1.355 . S
C762 C764 1.415 . S
C763 C762 1.355 . S
C763 C765 1.419 . S
C764 C762 1.415 . S
C764 C769 1.425 1_455 S
C764 C771 1.422 . S
C765 H757 0.930 . S
C765 C763 1.419 . S
C765 C766 1.362 1_455 S
C766 H758 0.930 . S
C766 C765 1.362 1_655 S
C766 C769 1.409 . S
C767 H759 0.930 . S
C767 C768 1.355 . S
C767 C769 1.415 . S
C768 C767 1.355 . S
C768 C770 1.419 . S
C769 C764 1.425 1_655 S
C769 C766 1.409 . S
C769 C767 1.415 . S
C770 H760 0.930 . S
C770 C768 1.419 . S
C770 C771 1.349 1_655 S
C771 H761 0.931 . S
C771 C764 1.422 . S
C771 C770 1.349 1_455 S
H772 C778 0.930 . S
H773 C781 0.930 . S
H774 C782 0.930 . S
H775 C783 0.930 . S
H776 C786 0.930 . S
H777 C787 0.930 . S
C778 H772 0.930 . S
C778 C779 1.355 . S
C778 C780 1.415 . S
C779 C778 1.355 . S
C779 C781 1.419 . S
C780 C778 1.415 . S
C780 C785 1.425 . S
C780 C787 1.409 . S
C781 H773 0.930 . S
C781 C779 1.419 . S
C781 C782 1.362 . S
C782 H774 0.930 . S
C782 C781 1.362 . S
C782 C785 1.409 . S
C783 H775 0.930 . S
C783 C784 1.355 . S
C783 C785 1.415 . S
C784 C783 1.355 . S
C784 C786 1.419 . S
C785 C780 1.425 . S
C785 C782 1.409 . S
C785 C783 1.415 . S
C786 H776 0.930 . S
C786 C784 1.419 . S
C786 C787 1.362 . S
C787 H777 0.930 . S
C787 C780 1.409 . S
C787 C786 1.362 . S
H788 C794 0.930 . S
H789 C797 0.930 . S
H790 C798 0.930 . S
H791 C799 0.930 . S
H792 C802 0.930 . S
H793 C803 0.930 . S
C794 H788 0.930 . S
C794 C795 1.355 . S
C794 C796 1.415 . S
C795 C794 1.355 . S
C795 C797 1.419 . S
C796 C794 1.415 . S
C796 C801 1.425 . S
C796 C803 1.409 . S
C797 H789 0.930 . S
C797 C795 1.419 . S
C797 C798 1.362 . S
C798 H790 0.930 . S
C798 C797 1.362 . S
C798 C801 1.409 . S
C799 H791 0.930 . S
C799 C800 1.355 . S
C799 C801 1.415 . S
C800 C799 1.355 . S
C800 C802 1.419 . S
C801 C796 1.425 . S
C801 C798 1.409 . S
C801 C799 1.415 . S
C802 H792 0.930 . S
C802 C800 1.419 . S
C802 C803 1.362 . S
C803 H793 0.930 . S
C803 C796 1.409 . S
C803 C802 1.362 . S
H804 C810 0.930 . S
H805 C813 0.930 . S
H806 C814 0.930 . S
H807 C815 0.930 . S
H808 C818 0.930 . S
H809 C819 0.930 . S
C810 H804 0.930 . S
C810 C811 1.355 . S
C810 C812 1.415 . S
C811 C810 1.355 . S
C811 C813 1.419 1_545 S
C812 C810 1.415 . S
C812 C817 1.425 1_545 S
C812 C819 1.409 . S
C813 H805 0.930 . S
C813 C811 1.419 1_565 S
C813 C814 1.362 . S
C814 H806 0.930 . S
C814 C813 1.362 . S
C814 C817 1.409 . S
C815 H807 0.930 . S
C815 C816 1.355 . S
C815 C817 1.415 . S
C816 C815 1.355 . S
C816 C818 1.419 1_565 S
C817 C812 1.425 1_565 S
C817 C814 1.409 . S
C817 C815 1.415 . S
C818 H808 0.930 . S
C818 C816 1.419 1_545 S
C818 C819 1.362 . S
C819 H809 0.930 . S
C819 C812 1.409 . S
C819 C818 1.362 . S
H820 C826 0.930 . S
H821 C829 0.930 . S
H822 C830 0.930 . S
H823 C831 0.930 . S
H824 C834 0.930 . S
H825 C835 0.930 . S
C826 H820 0.930 . S
C826 C827 1.355 . S
C826 C828 1.415 . S
C827 C826 1.355 . S
C827 C829 1.419 . S
C828 C826 1.415 . S
C828 C833 1.425 . S
C828 C835 1.409 . S
C829 H821 0.930 . S
C829 C827 1.419 . S
C829 C830 1.362 . S
C830 H822 0.930 . S
C830 C829 1.362 . S
C830 C833 1.409 . S
C831 H823 0.930 . S
C831 C832 1.355 . S
C831 C833 1.415 . S
C832 C831 1.355 . S
C832 C834 1.419 . S
C833 C828 1.425 . S
C833 C830 1.409 . S
C833 C831 1.415 . S
C834 H824 0.930 . S
C834 C832 1.419 . S
C834 C835 1.362 . S
C835 H825 0.930 . S
C835 C828 1.409 . S
C835 C834 1.362 . S
H836 C842 0.930 . S
H837 C845 0.930 . S
H838 C846 0.930 . S
H839 C847 0.930 . S
H840 C850 0.930 . S
H841 C851 0.930 . S
C842 H836 0.930 . S
C842 C843 1.355 . S
C842 C844 1.415 . S
C843 C842 1.355 . S
C843 C845 1.419 . S
C844 C842 1.415 . S
C844 C849 1.425 . S
C844 C851 1.409 . S
C845 H837 0.930 . S
C845 C843 1.419 . S
C845 C846 1.362 . S
C846 H838 0.930 . S
C846 C845 1.362 . S
C846 C849 1.409 . S
C847 H839 0.930 . S
C847 C848 1.355 . S
C847 C849 1.415 . S
C848 C847 1.355 . S
C848 C850 1.419 . S
C849 C844 1.425 . S
C849 C846 1.409 . S
C849 C847 1.415 . S
C850 H840 0.930 . S
C850 C848 1.419 . S
C850 C851 1.362 . S
C851 H841 0.930 . S
C851 C844 1.409 . S
C851 C850 1.362 . S
H852 C858 0.930 . S
H853 C861 0.930 1_655 S
H854 C862 0.930 . S
H855 C863 0.930 . S
H856 C866 0.930 . S
H857 C867 0.930 . S
C858 H852 0.930 . S
C858 C859 1.355 . S
C858 C860 1.415 . S
C859 C858 1.355 . S
C859 C861 1.419 . S
C860 C858 1.415 . S
C860 C865 1.425 . S
C860 C867 1.409 . S
C861 H853 0.930 1_455 S
C861 C859 1.419 . S
C861 C862 1.362 . S
C862 H854 0.930 . S
C862 C861 1.362 . S
C862 C865 1.409 . S
C863 H855 0.930 . S
C863 C864 1.355 . S
C863 C865 1.415 . S
C864 C863 1.355 . S
C864 C866 1.419 . S
C865 C860 1.425 . S
C865 C862 1.409 . S
C865 C863 1.415 . S
C866 H856 0.930 . S
C866 C864 1.419 . S
C866 C867 1.362 . S
C867 H857 0.930 . S
C867 C860 1.409 . S
C867 C866 1.362 . S
H868 C874 0.930 . S
H869 C877 0.930 . S
H870 C878 0.930 . S
H871 C879 0.930 . S
H872 C882 0.930 . S
H873 C883 0.930 . S
C874 H868 0.930 . S
C874 C875 1.355 . S
C874 C876 1.415 . S
C875 C874 1.355 . S
C875 C877 1.419 . S
C876 C874 1.415 . S
C876 C881 1.425 . S
C876 C883 1.409 . S
C877 H869 0.930 . S
C877 C875 1.419 . S
C877 C878 1.362 . S
C878 H870 0.930 . S
C878 C877 1.362 . S
C878 C881 1.409 . S
C879 H871 0.930 . S
C879 C880 1.355 . S
C879 C881 1.415 . S
C880 C879 1.355 . S
C880 C882 1.419 . S
C881 C876 1.425 . S
C881 C878 1.409 . S
C881 C879 1.415 . S
C882 H872 0.930 . S
C882 C880 1.419 . S
C882 C883 1.362 . S
C883 H873 0.930 . S
C883 C876 1.409 . S
C883 C882 1.362 . S
H884 C890 0.930 . S
H885 C893 0.930 . S
H886 C894 0.930 . S
H887 C895 0.889 1_545 S
H888 C898 0.930 . S
H889 C899 0.930 . S
C890 H884 0.930 . S
C890 C891 1.355 1_565 S
C890 C892 1.415 . S
C891 C890 1.355 1_545 S
C891 C893 1.419 . S
C892 C890 1.415 . S
C892 C897 1.425 1_565 S
C892 C899 1.409 . S
C893 H885 0.930 . S
C893 C891 1.419 . S
C893 C894 1.362 . S
C894 H886 0.930 . S
C894 C893 1.362 . S
C894 C897 1.409 . S
C895 H887 0.889 1_565 S
C895 C896 1.388 . S
C895 C897 1.422 1_565 S
C896 C895 1.388 . S
C896 C898 1.419 . S
C897 C892 1.425 1_545 S
C897 C894 1.409 . S
C897 C895 1.422 1_545 S
C898 H888 0.930 . S
C898 C896 1.419 . S
C898 C899 1.362 . S
C899 H889 0.930 . S
C899 C892 1.409 . S
C899 C898 1.362 . S
H900 C906 0.930 . S
H901 C909 0.930 . S
H902 C910 0.930 . S
H903 C911 0.930 . S
H904 C914 0.930 . S
H905 C915 0.930 . S
C906 H900 0.930 . S
C906 C907 1.355 . S
C906 C908 1.415 . S
C907 C906 1.355 . S
C907 C909 1.419 . S
C908 C906 1.415 . S
C908 C913 1.425 . S
C908 C915 1.409 . S
C909 H901 0.930 . S
C909 C907 1.419 . S
C909 C910 1.362 . S
C910 H902 0.930 . S
C910 C909 1.362 . S
C910 C913 1.409 . S
C911 H903 0.930 . S
C911 C912 1.355 . S
C911 C913 1.415 . S
C912 C911 1.355 . S
C912 C914 1.419 . S
C913 C908 1.425 . S
C913 C910 1.409 . S
C913 C911 1.415 . S
C914 H904 0.930 . S
C914 C912 1.419 . S
C914 C915 1.362 . S
C915 H905 0.930 . S
C915 C908 1.409 . S
C915 C914 1.362 . S
H916 C922 0.930 . S
H917 C925 0.930 . S
H918 C926 0.930 . S
H919 C927 0.930 . S
H920 C930 0.925 1_455 S
H921 C931 0.930 . S
C922 H916 0.930 . S
C922 C923 1.355 . S
C922 C924 1.415 . S
C923 C922 1.355 . S
C923 C925 1.419 1_455 S
C924 C922 1.415 . S
C924 C929 1.425 1_455 S
C924 C931 1.409 . S
C925 H917 0.930 . S
C925 C923 1.419 1_655 S
C925 C926 1.362 . S
C926 H918 0.930 . S
C926 C925 1.362 . S
C926 C929 1.409 . S
C927 H919 0.930 . S
C927 C928 1.355 . S
C927 C929 1.415 . S
C928 C927 1.355 . S
C928 C930 1.426 . S
C929 C924 1.425 1_655 S
C929 C926 1.409 . S
C929 C927 1.415 . S
C930 H920 0.925 1_655 S
C930 C928 1.426 . S
C930 C931 1.361 1_655 S
C931 H921 0.930 . S
C931 C924 1.409 . S
C931 C930 1.361 1_455 S
H932 C938 0.930 . S
H933 C941 0.930 . S
H934 C942 0.930 . S
H935 C943 0.930 . S
H936 C946 0.930 . S
H937 C947 0.930 . S
C938 H932 0.930 . S
C938 C939 1.355 . S
C938 C940 1.415 . S
C939 C938 1.355 . S
C939 C941 1.419 . S
C940 C938 1.415 . S
C940 C945 1.425 . S
C940 C947 1.409 . S
C941 H933 0.930 . S
C941 C939 1.419 . S
C941 C942 1.362 . S
C942 H934 0.930 . S
C942 C941 1.362 . S
C942 C945 1.409 . S
C943 H935 0.930 . S
C943 C944 1.355 . S
C943 C945 1.415 . S
C944 C943 1.355 . S
C944 C946 1.419 . S
C945 C940 1.425 . S
C945 C942 1.409 . S
C945 C943 1.415 . S
C946 H936 0.930 . S
C946 C944 1.419 . S
C946 C947 1.362 . S
C947 H937 0.930 . S
C947 C940 1.409 . S
C947 C946 1.362 . S
H948 C954 0.930 . S
H949 C957 0.930 . S
H950 C958 0.930 . S
H951 C959 0.930 . S
H952 C962 0.930 . S
H953 C963 0.930 . S
C954 H948 0.930 . S
C954 C955 1.355 . S
C954 C956 1.415 . S
C955 C954 1.355 . S
C955 C957 1.419 . S
C956 C954 1.415 . S
C956 C961 1.425 . S
C956 C963 1.409 . S
C957 H949 0.930 . S
C957 C955 1.419 . S
C957 C958 1.362 . S
C958 H950 0.930 . S
C958 C957 1.362 . S
C958 C961 1.409 . S
C959 H951 0.930 . S
C959 C960 1.355 . S
C959 C961 1.415 . S
C960 C959 1.355 . S
C960 C962 1.419 . S
C961 C956 1.425 . S
C961 C958 1.409 . S
C961 C959 1.415 . S
C962 H952 0.930 . S
C962 C960 1.419 . S
C962 C963 1.362 . S
C963 H953 0.930 . S
C963 C956 1.409 . S
C963 C962 1.362 . S
H964 C970 0.930 . S
H965 C973 0.930 . S
H966 C974 0.930 1_565 S
H967 C975 0.930 . S
H968 C978 0.930 . S
H969 C979 0.930 . S
C970 H964 0.930 . S
C970 C971 1.355 . S
C970 C972 1.415 . S
C971 C970 1.355 . S
C971 C973 1.419 . S
C972 C970 1.415 . S
C972 C977 1.425 . S
C972 C979 1.409 . S
C973 H965 0.930 . S
C973 C971 1.419 . S
C973 C974 1.362 . S
C974 H966 0.930 1_545 S
C974 C973 1.362 . S
C974 C977 1.409 . S
C975 H967 0.930 . S
C975 C976 1.355 . S
C975 C977 1.415 1_565 S
C976 C975 1.355 . S
C976 C978 1.419 1_565 S
C977 C972 1.425 . S
C977 C974 1.409 . S
C977 C975 1.415 1_545 S
C978 H968 0.930 . S
C978 C976 1.419 1_545 S
C978 C979 1.362 . S
C979 H969 0.930 . S
C979 C972 1.409 . S
C979 C978 1.362 . S
H980 C986 0.930 . S
H981 C989 0.930 . S
H982 C990 0.930 . S
H983 C991 0.930 . S
H984 C994 0.930 . S
H985 C995 0.930 . S
C986 H980 0.930 . S
C986 C987 1.355 . S
C986 C988 1.415 1_655 S
C987 C986 1.355 . S
C987 C989 1.419 1_655 S
C988 C986 1.415 1_455 S
C988 C993 1.425 . S
C988 C995 1.409 . S
C989 H981 0.930 . S
C989 C987 1.419 1_455 S
C989 C990 1.362 . S
C990 H982 0.930 . S
C990 C989 1.362 . S
C990 C993 1.409 . S
C991 H983 0.930 . S
C991 C992 1.355 . S
C991 C993 1.415 . S
C992 C991 1.355 . S
C992 C994 1.419 . S
C993 C988 1.425 . S
C993 C990 1.409 . S
C993 C991 1.415 . S
C994 H984 0.930 . S
C994 C992 1.419 . S
C994 C995 1.362 . S
C995 H985 0.930 . S
C995 C988 1.409 . S
C995 C994 1.362 . S
H996 C1002 0.930 . S
H997 C1005 0.930 . S
H998 C1006 0.930 . S
H999 C1007 0.930 . S
H1000 C1010 0.930 . S
H1001 C1011 0.930 . S
C1002 H996 0.930 . S
C1002 C1003 1.355 . S
C1002 C1004 1.415 . S
C1003 C1002 1.355 . S
C1003 C1005 1.419 . S
C1004 C1002 1.415 . S
C1004 C1009 1.425 . S
C1004 C1011 1.409 . S
C1005 H997 0.930 . S
C1005 C1003 1.419 . S
C1005 C1006 1.362 . S
C1006 H998 0.930 . S
C1006 C1005 1.362 . S
C1006 C1009 1.409 . S
C1007 H999 0.930 . S
C1007 C1008 1.355 . S
C1007 C1009 1.415 . S
C1008 C1007 1.355 . S
C1008 C1010 1.419 . S
C1009 C1004 1.425 . S
C1009 C1006 1.409 . S
C1009 C1007 1.415 . S
C1010 H1000 0.930 . S
C1010 C1008 1.419 . S
C1010 C1011 1.362 . S
C1011 H1001 0.930 . S
C1011 C1004 1.409 . S
C1011 C1010 1.362 . S
H1012 C1018 0.932 1_565 S
H1013 C1021 0.930 1_565 S
H1014 C1022 0.930 . S
H1015 C1023 0.930 . S
H1016 C1026 0.930 . S
H1017 C1027 0.930 . S
C1018 H1012 0.932 1_545 S
C1018 C1019 1.341 1_545 S
C1018 C1020 1.427 . S
C1019 C1018 1.341 1_565 S
C1019 C1021 1.419 1_565 S
C1020 C1018 1.427 . S
C1020 C1025 1.425 . S
C1020 C1027 1.409 . S
C1021 H1013 0.930 1_545 S
C1021 C1019 1.419 1_545 S
C1021 C1022 1.362 . S
C1022 H1014 0.930 . S
C1022 C1021 1.362 . S
C1022 C1025 1.409 . S
C1023 H1015 0.930 . S
C1023 C1024 1.355 . S
C1023 C1025 1.415 . S
C1024 C1023 1.355 . S
C1024 C1026 1.419 . S
C1025 C1020 1.425 . S
C1025 C1022 1.409 . S
C1025 C1023 1.415 . S
C1026 H1016 0.930 . S
C1026 C1024 1.419 . S
C1026 C1027 1.362 . S
C1027 H1017 0.930 . S
C1027 C1020 1.409 . S
C1027 C1026 1.362 . S
H1028 C1034 0.930 . S
H1029 C1037 0.930 . S
H1030 C1038 0.935 . S
H1031 C1039 0.930 . S
H1032 C1042 0.930 . S
H1033 C1043 0.930 . S
C1034 H1028 0.930 . S
C1034 C1035 1.355 1_455 S
C1034 C1036 1.415 . S
C1035 C1034 1.355 1_655 S
C1035 C1037 1.419 . S
C1036 C1034 1.415 . S
C1036 C1041 1.425 . S
C1036 C1043 1.409 . S
C1037 H1029 0.930 . S
C1037 C1035 1.419 . S
C1037 C1038 1.362 1_655 S
C1038 H1030 0.935 . S
C1038 C1037 1.362 1_455 S
C1038 C1041 1.409 . S
C1039 H1031 0.930 . S
C1039 C1040 1.355 . S
C1039 C1041 1.415 . S
C1040 C1039 1.355 . S
C1040 C1042 1.419 . S
C1041 C1036 1.425 . S
C1041 C1038 1.409 . S
C1041 C1039 1.415 . S
C1042 H1032 0.930 . S
C1042 C1040 1.419 . S
C1042 C1043 1.362 . S
C1043 H1033 0.930 . S
C1043 C1036 1.409 . S
C1043 C1042 1.362 . S
H1044 C1050 0.908 1_655 S
H1045 C1053 0.930 . S
H1046 C1054 0.930 . S
H1047 C1055 0.930 . S
H1048 C1058 0.930 . S
H1049 C1059 0.930 . S
C1050 H1044 0.908 1_455 S
C1050 C1051 1.355 . S
C1050 C1052 1.415 . S
C1051 C1050 1.355 . S
C1051 C1053 1.419 . S
C1052 C1050 1.415 . S
C1052 C1057 1.425 1_554 S
C1052 C1059 1.409 1_454 S
C1053 H1045 0.930 . S
C1053 C1051 1.419 . S
C1053 C1054 1.362 . S
C1054 H1046 0.930 . S
C1054 C1053 1.362 . S
C1054 C1057 1.409 1_554 S
C1055 H1047 0.930 . S
C1055 C1056 1.355 . S
C1055 C1057 1.415 . S
C1056 C1055 1.355 . S
C1056 C1058 1.419 1_455 S
C1057 C1052 1.425 1_556 S
C1057 C1054 1.409 1_556 S
C1057 C1055 1.415 . S
C1058 H1048 0.930 . S
C1058 C1056 1.419 1_655 S
C1058 C1059 1.362 . S
C1059 H1049 0.930 . S
C1059 C1052 1.409 1_656 S
C1059 C1058 1.362 . S
H1060 C1066 0.930 . S
H1061 C1069 0.930 . S
H1062 C1070 0.930 . S
H1063 C1071 0.930 . S
H1064 C1074 0.930 . S
H1065 C1075 0.930 . S
C1066 H1060 0.930 . S
C1066 C1067 1.355 . S
C1066 C1068 1.415 . S
C1067 C1066 1.355 . S
C1067 C1069 1.419 . S
C1068 C1066 1.415 . S
C1068 C1073 1.425 1_556 S
C1068 C1075 1.409 1_556 S
C1069 H1061 0.930 . S
C1069 C1067 1.419 . S
C1069 C1070 1.362 . S
C1070 H1062 0.930 . S
C1070 C1069 1.362 . S
C1070 C1073 1.409 1_556 S
C1071 H1063 0.930 . S
C1071 C1072 1.355 . S
C1071 C1073 1.415 . S
C1072 C1071 1.355 . S
C1072 C1074 1.419 . S
C1073 C1068 1.425 1_554 S
C1073 C1070 1.409 1_554 S
C1073 C1071 1.415 . S
C1074 H1064 0.930 . S
C1074 C1072 1.419 . S
C1074 C1075 1.362 . S
C1075 H1065 0.930 . S
C1075 C1068 1.409 1_554 S
C1075 C1074 1.362 . S
H1076 C1082 0.930 . S
H1077 C1085 0.930 . S
H1078 C1086 0.930 . S
H1079 C1087 0.930 . S
H1080 C1090 0.930 . S
H1081 C1091 0.930 . S
C1082 H1076 0.930 . S
C1082 C1083 1.355 . S
C1082 C1084 1.415 . S
C1083 C1082 1.355 . S
C1083 C1085 1.419 . S
C1084 C1082 1.415 . S
C1084 C1089 1.425 1_556 S
C1084 C1091 1.409 1_556 S
C1085 H1077 0.930 . S
C1085 C1083 1.419 . S
C1085 C1086 1.362 . S
C1086 H1078 0.930 . S
C1086 C1085 1.362 . S
C1086 C1089 1.409 1_556 S
C1087 H1079 0.930 . S
C1087 C1088 1.355 . S
C1087 C1089 1.415 . S
C1088 C1087 1.355 . S
C1088 C1090 1.419 . S
C1089 C1084 1.425 1_554 S
C1089 C1086 1.409 1_554 S
C1089 C1087 1.415 . S
C1090 H1080 0.930 . S
C1090 C1088 1.419 . S
C1090 C1091 1.362 . S
C1091 H1081 0.930 . S
C1091 C1084 1.409 1_554 S
C1091 C1090 1.362 . S
H1092 C1098 0.930 1_655 S
H1093 C1101 0.930 . S
H1094 C1102 0.930 . S
H1095 C1103 0.930 . S
H1096 C1106 0.930 1_655 S
H1097 C1107 0.930 . S
C1098 H1092 0.930 1_455 S
C1098 C1099 1.355 . S
C1098 C1100 1.415 . S
C1099 C1098 1.355 . S
C1099 C1101 1.419 . S
C1100 C1098 1.415 . S
C1100 C1105 1.425 1_556 S
C1100 C1107 1.409 1_456 S
C1101 H1093 0.930 . S
C1101 C1099 1.419 . S
C1101 C1102 1.362 . S
C1102 H1094 0.930 . S
C1102 C1101 1.362 . S
C1102 C1105 1.409 1_556 S
C1103 H1095 0.930 . S
C1103 C1104 1.355 . S
C1103 C1105 1.415 . S
C1104 C1103 1.355 . S
C1104 C1106 1.419 . S
C1105 C1100 1.425 1_554 S
C1105 C1102 1.409 1_554 S
C1105 C1103 1.415 . S
C1106 H1096 0.930 1_455 S
C1106 C1104 1.419 . S
C1106 C1107 1.362 1_455 S
C1107 H1097 0.930 . S
C1107 C1100 1.409 1_654 S
C1107 C1106 1.362 1_655 S
H1108 C1114 0.930 . S
H1109 C1117 0.930 . S
H1110 C1118 0.930 . S
H1111 C1119 0.930 . S
H1112 C1122 0.930 . S
H1113 C1123 0.930 . S
C1114 H1108 0.930 . S
C1114 C1115 1.355 . S
C1114 C1116 1.415 . S
C1115 C1114 1.355 . S
C1115 C1117 1.419 . S
C1116 C1114 1.415 . S
C1116 C1121 1.425 1_554 S
C1116 C1123 1.409 1_554 S
C1117 H1109 0.930 . S
C1117 C1115 1.419 . S
C1117 C1118 1.362 . S
C1118 H1110 0.930 . S
C1118 C1117 1.362 . S
C1118 C1121 1.409 1_554 S
C1119 H1111 0.930 . S
C1119 C1120 1.355 . S
C1119 C1121 1.415 . S
C1120 C1119 1.355 . S
C1120 C1122 1.419 . S
C1121 C1116 1.425 1_556 S
C1121 C1118 1.409 1_556 S
C1121 C1119 1.415 . S
C1122 H1112 0.930 . S
C1122 C1120 1.419 . S
C1122 C1123 1.362 . S
C1123 H1113 0.930 . S
C1123 C1116 1.409 1_556 S
C1123 C1122 1.362 . S
H1124 C1130 0.930 1_565 S
H1125 C1133 0.930 . S
H1126 C1134 0.930 . S
H1127 C1135 0.930 . S
H1128 C1138 0.930 . S
H1129 C1139 0.930 . S
C1130 H1124 0.930 1_545 S
C1130 C1131 1.355 . S
C1130 C1132 1.415 . S
C1131 C1130 1.355 . S
C1131 C1133 1.419 . S
C1132 C1130 1.415 . S
C1132 C1137 1.425 1_556 S
C1132 C1139 1.409 1_546 S
C1133 H1125 0.930 . S
C1133 C1131 1.419 . S
C1133 C1134 1.362 . S
C1134 H1126 0.930 . S
C1134 C1133 1.362 . S
C1134 C1137 1.409 1_556 S
C1135 H1127 0.930 . S
C1135 C1136 1.355 . S
C1135 C1137 1.415 . S
C1136 C1135 1.355 . S
C1136 C1138 1.419 1_545 S
C1137 C1132 1.425 1_554 S
C1137 C1134 1.409 1_554 S
C1137 C1135 1.415 . S
C1138 H1128 0.930 . S
C1138 C1136 1.419 1_565 S
C1138 C1139 1.362 . S
C1139 H1129 0.930 . S
C1139 C1132 1.409 1_564 S
C1139 C1138 1.362 . S
H1140 C1146 0.930 . S
H1141 C1149 0.930 . S
H1142 C1150 0.930 . S
H1143 C1151 0.930 . S
H1144 C1154 0.930 . S
H1145 C1155 0.930 . S
C1146 H1140 0.930 . S
C1146 C1147 1.355 . S
C1146 C1148 1.415 . S
C1147 C1146 1.355 . S
C1147 C1149 1.419 . S
C1148 C1146 1.415 . S
C1148 C1153 1.425 . S
C1148 C1155 1.409 . S
C1149 H1141 0.930 . S
C1149 C1147 1.419 . S
C1149 C1150 1.362 . S
C1150 H1142 0.930 . S
C1150 C1149 1.362 . S
C1150 C1153 1.409 . S
C1151 H1143 0.930 . S
C1151 C1152 1.355 . S
C1151 C1153 1.415 . S
C1152 C1151 1.355 . S
C1152 C1154 1.419 . S
C1153 C1148 1.425 . S
C1153 C1150 1.409 . S
C1153 C1151 1.415 . S
C1154 H1144 0.930 . S
C1154 C1152 1.419 . S
C1154 C1155 1.362 . S
C1155 H1145 0.930 . S
C1155 C1148 1.409 . S
C1155 C1154 1.362 . S
H1156 C1162 0.930 . S
H1157 C1165 0.930 . S
H1158 C1166 0.930 . S
H1159 C1167 0.930 . S
H1160 C1170 0.930 . S
H1161 C1171 0.930 . S
C1162 H1156 0.930 . S
C1162 C1163 1.355 . S
C1162 C1164 1.415 . S
C1163 C1162 1.355 . S
C1163 C1165 1.419 . S
C1164 C1162 1.415 . S
C1164 C1169 1.425 . S
C1164 C1171 1.409 . S
C1165 H1157 0.930 . S
C1165 C1163 1.419 . S
C1165 C1166 1.362 . S
C1166 H1158 0.930 . S
C1166 C1165 1.362 . S
C1166 C1169 1.409 . S
C1167 H1159 0.930 . S
C1167 C1168 1.355 . S
C1167 C1169 1.415 . S
C1168 C1167 1.355 . S
C1168 C1170 1.419 . S
C1169 C1164 1.425 . S
C1169 C1166 1.409 . S
C1169 C1167 1.415 . S
C1170 H1160 0.930 . S
C1170 C1168 1.419 . S
C1170 C1171 1.362 . S
C1171 H1161 0.930 . S
C1171 C1164 1.409 . S
C1171 C1170 1.362 . S
H1172 C1178 0.930 . S
H1173 C1181 0.930 . S
H1174 C1182 0.930 . S
H1175 C1183 0.930 . S
H1176 C1186 0.930 . S
H1177 C1187 0.930 . S
C1178 H1172 0.930 . S
C1178 C1179 1.355 . S
C1178 C1180 1.415 . S
C1179 C1178 1.355 . S
C1179 C1181 1.419 . S
C1180 C1178 1.415 . S
C1180 C1185 1.425 . S
C1180 C1187 1.409 . S
C1181 H1173 0.930 . S
C1181 C1179 1.419 . S
C1181 C1182 1.362 . S
C1182 H1174 0.930 . S
C1182 C1181 1.362 . S
C1182 C1185 1.409 . S
C1183 H1175 0.930 . S
C1183 C1184 1.355 . S
C1183 C1185 1.415 . S
C1184 C1183 1.355 . S
C1184 C1186 1.419 . S
C1185 C1180 1.425 . S
C1185 C1182 1.409 . S
C1185 C1183 1.415 . S
C1186 H1176 0.930 . S
C1186 C1184 1.419 . S
C1186 C1187 1.362 . S
C1187 H1177 0.930 . S
C1187 C1180 1.409 . S
C1187 C1186 1.362 . S
H1188 C1194 0.930 . S
H1189 C1197 0.930 . S
H1190 C1198 0.930 . S
H1191 C1199 0.930 . S
H1192 C1202 0.930 . S
H1193 C1203 0.930 . S
C1194 H1188 0.930 . S
C1194 C1195 1.355 . S
C1194 C1196 1.415 . S
C1195 C1194 1.355 . S
C1195 C1197 1.419 . S
C1196 C1194 1.415 . S
C1196 C1201 1.425 . S
C1196 C1203 1.409 . S
C1197 H1189 0.930 . S
C1197 C1195 1.419 . S
C1197 C1198 1.362 . S
C1198 H1190 0.930 . S
C1198 C1197 1.362 . S
C1198 C1201 1.409 . S
C1199 H1191 0.930 . S
C1199 C1200 1.355 . S
C1199 C1201 1.415 . S
C1200 C1199 1.355 . S
C1200 C1202 1.419 . S
C1201 C1196 1.425 . S
C1201 C1198 1.409 . S
C1201 C1199 1.415 . S
C1202 H1192 0.930 . S
C1202 C1200 1.419 . S
C1202 C1203 1.362 . S
C1203 H1193 0.930 . S
C1203 C1196 1.409 . S
C1203 C1202 1.362 . S
H1204 C1210 0.930 . S
H1205 C1213 0.930 . S
H1206 C1214 0.930 . S
H1207 C1215 0.930 . S
H1208 C1218 0.930 . S
H1209 C1219 0.930 . S
C1210 H1204 0.930 . S
C1210 C1211 1.355 . S
C1210 C1212 1.415 . S
C1211 C1210 1.355 . S
C1211 C1213 1.419 . S
C1212 C1210 1.415 . S
C1212 C1217 1.425 . S
C1212 C1219 1.409 . S
C1213 H1205 0.930 . S
C1213 C1211 1.419 . S
C1213 C1214 1.362 . S
C1214 H1206 0.930 . S
C1214 C1213 1.362 . S
C1214 C1217 1.409 . S
C1215 H1207 0.930 . S
C1215 C1216 1.355 . S
C1215 C1217 1.415 . S
C1216 C1215 1.355 . S
C1216 C1218 1.419 . S
C1217 C1212 1.425 . S
C1217 C1214 1.409 . S
C1217 C1215 1.415 . S
C1218 H1208 0.930 . S
C1218 C1216 1.419 . S
C1218 C1219 1.362 . S
C1219 H1209 0.930 . S
C1219 C1212 1.409 . S
C1219 C1218 1.362 . S
H1220 C1226 0.930 . S
H1221 C1229 0.930 . S
H1222 C1230 0.930 . S
H1223 C1231 0.930 . S
H1224 C1234 0.930 . S
H1225 C1235 0.930 . S
C1226 H1220 0.930 . S
C1226 C1227 1.355 . S
C1226 C1228 1.415 . S
C1227 C1226 1.355 . S
C1227 C1229 1.419 . S
C1228 C1226 1.415 . S
C1228 C1233 1.425 . S
C1228 C1235 1.409 . S
C1229 H1221 0.930 . S
C1229 C1227 1.419 . S
C1229 C1230 1.362 . S
C1230 H1222 0.930 . S
C1230 C1229 1.362 . S
C1230 C1233 1.409 . S
C1231 H1223 0.930 . S
C1231 C1232 1.355 . S
C1231 C1233 1.415 . S
C1232 C1231 1.355 . S
C1232 C1234 1.419 . S
C1233 C1228 1.425 . S
C1233 C1230 1.409 . S
C1233 C1231 1.415 . S
C1234 H1224 0.930 . S
C1234 C1232 1.419 . S
C1234 C1235 1.362 . S
C1235 H1225 0.930 . S
C1235 C1228 1.409 . S
C1235 C1234 1.362 . S
H1236 C1242 0.930 . S
H1237 C1245 0.930 . S
H1238 C1246 0.930 . S
H1239 C1247 0.930 . S
H1240 C1250 0.930 . S
H1241 C1251 0.930 . S
C1242 H1236 0.930 . S
C1242 C1243 1.355 . S
C1242 C1244 1.415 . S
C1243 C1242 1.355 . S
C1243 C1245 1.419 . S
C1244 C1242 1.415 . S
C1244 C1249 1.425 . S
C1244 C1251 1.409 . S
C1245 H1237 0.930 . S
C1245 C1243 1.419 . S
C1245 C1246 1.362 . S
C1246 H1238 0.930 . S
C1246 C1245 1.362 . S
C1246 C1249 1.409 . S
C1247 H1239 0.930 . S
C1247 C1248 1.355 . S
C1247 C1249 1.415 . S
C1248 C1247 1.355 . S
C1248 C1250 1.419 . S
C1249 C1244 1.425 . S
C1249 C1246 1.409 . S
C1249 C1247 1.415 . S
C1250 H1240 0.930 . S
C1250 C1248 1.419 . S
C1250 C1251 1.362 . S
C1251 H1241 0.930 . S
C1251 C1244 1.409 . S
C1251 C1250 1.362 . S
H1252 C1258 0.930 . S
H1253 C1261 0.930 . S
H1254 C1262 0.930 . S
H1255 C1263 0.930 . S
H1256 C1266 0.930 . S
H1257 C1267 0.930 . S
C1258 H1252 0.930 . S
C1258 C1259 1.355 . S
C1258 C1260 1.415 . S
C1259 C1258 1.355 . S
C1259 C1261 1.419 . S
C1260 C1258 1.415 . S
C1260 C1265 1.425 . S
C1260 C1267 1.409 . S
C1261 H1253 0.930 . S
C1261 C1259 1.419 . S
C1261 C1262 1.362 . S
C1262 H1254 0.930 . S
C1262 C1261 1.362 . S
C1262 C1265 1.409 . S
C1263 H1255 0.930 . S
C1263 C1264 1.355 . S
C1263 C1265 1.415 . S
C1264 C1263 1.355 . S
C1264 C1266 1.419 . S
C1265 C1260 1.425 . S
C1265 C1262 1.409 . S
C1265 C1263 1.415 . S
C1266 H1256 0.930 . S
C1266 C1264 1.419 . S
C1266 C1267 1.362 . S
C1267 H1257 0.930 . S
C1267 C1260 1.409 . S
C1267 C1266 1.362 . S
H1268 C1274 0.930 . S
H1269 C1277 0.930 . S
H1270 C1278 0.930 . S
H1271 C1279 0.930 . S
H1272 C1282 0.930 . S
H1273 C1283 0.930 . S
C1274 H1268 0.930 . S
C1274 C1275 1.355 . S
C1274 C1276 1.415 . S
C1275 C1274 1.355 . S
C1275 C1277 1.419 . S
C1276 C1274 1.415 . S
C1276 C1281 1.425 . S
C1276 C1283 1.409 . S
C1277 H1269 0.930 . S
C1277 C1275 1.419 . S
C1277 C1278 1.362 . S
C1278 H1270 0.930 . S
C1278 C1277 1.362 . S
C1278 C1281 1.409 . S
C1279 H1271 0.930 . S
C1279 C1280 1.355 . S
C1279 C1281 1.415 . S
C1280 C1279 1.355 . S
C1280 C1282 1.419 . S
C1281 C1276 1.425 . S
C1281 C1278 1.409 . S
C1281 C1279 1.415 . S
C1282 H1272 0.930 . S
C1282 C1280 1.419 . S
C1282 C1283 1.362 . S
C1283 H1273 0.930 . S
C1283 C1276 1.409 . S
C1283 C1282 1.362 . S
H1284 C1290 0.930 . S
H1285 C1293 0.930 . S
H1286 C1294 0.930 . S
H1287 C1295 0.930 . S
H1288 C1298 0.930 . S
H1289 C1299 0.930 . S
C1290 H1284 0.930 . S
C1290 C1291 1.355 . S
C1290 C1292 1.415 . S
C1291 C1290 1.355 . S
C1291 C1293 1.419 . S
C1292 C1290 1.415 . S
C1292 C1297 1.425 . S
C1292 C1299 1.409 . S
C1293 H1285 0.930 . S
C1293 C1291 1.419 . S
C1293 C1294 1.362 . S
C1294 H1286 0.930 . S
C1294 C1293 1.362 . S
C1294 C1297 1.409 . S
C1295 H1287 0.930 . S
C1295 C1296 1.355 . S
C1295 C1297 1.415 . S
C1296 C1295 1.355 . S
C1296 C1298 1.419 . S
C1297 C1292 1.425 . S
C1297 C1294 1.409 . S
C1297 C1295 1.415 . S
C1298 H1288 0.930 . S
C1298 C1296 1.419 . S
C1298 C1299 1.362 . S
C1299 H1289 0.930 . S
C1299 C1292 1.409 . S
C1299 C1298 1.362 . S
H1300 C1306 0.930 . S
H1301 C1309 0.930 . S
H1302 C1310 0.930 . S
H1303 C1311 0.930 . S
H1304 C1314 0.930 . S
H1305 C1315 0.930 . S
C1306 H1300 0.930 . S
C1306 C1307 1.355 . S
C1306 C1308 1.415 . S
C1307 C1306 1.355 . S
C1307 C1309 1.419 . S
C1308 C1306 1.415 . S
C1308 C1313 1.425 . S
C1308 C1315 1.409 . S
C1309 H1301 0.930 . S
C1309 C1307 1.419 . S
C1309 C1310 1.362 . S
C1310 H1302 0.930 . S
C1310 C1309 1.362 . S
C1310 C1313 1.409 . S
C1311 H1303 0.930 . S
C1311 C1312 1.355 . S
C1311 C1313 1.415 . S
C1312 C1311 1.355 . S
C1312 C1314 1.419 . S
C1313 C1308 1.425 . S
C1313 C1310 1.409 . S
C1313 C1311 1.415 . S
C1314 H1304 0.930 . S
C1314 C1312 1.419 . S
C1314 C1315 1.362 . S
C1315 H1305 0.930 . S
C1315 C1308 1.409 . S
C1315 C1314 1.362 . S
H1316 C1322 0.930 . S
H1317 C1325 0.930 . S
H1318 C1326 0.930 . S
H1319 C1327 0.930 . S
H1320 C1330 0.930 . S
H1321 C1331 0.930 . S
C1322 H1316 0.930 . S
C1322 C1323 1.355 . S
C1322 C1324 1.415 . S
C1323 C1322 1.355 . S
C1323 C1325 1.419 . S
C1324 C1322 1.415 . S
C1324 C1329 1.425 . S
C1324 C1331 1.409 . S
C1325 H1317 0.930 . S
C1325 C1323 1.419 . S
C1325 C1326 1.362 . S
C1326 H1318 0.930 . S
C1326 C1325 1.362 . S
C1326 C1329 1.409 . S
C1327 H1319 0.930 . S
C1327 C1328 1.355 . S
C1327 C1329 1.415 . S
C1328 C1327 1.355 . S
C1328 C1330 1.419 . S
C1329 C1324 1.425 . S
C1329 C1326 1.409 . S
C1329 C1327 1.415 . S
C1330 H1320 0.930 . S
C1330 C1328 1.419 . S
C1330 C1331 1.362 . S
C1331 H1321 0.930 . S
C1331 C1324 1.409 . S
C1331 C1330 1.362 . S
H1332 C1338 0.930 . S
H1333 C1341 0.930 . S
H1334 C1342 0.930 . S
H1335 C1343 0.930 . S
H1336 C1346 0.930 . S
H1337 C1347 0.930 . S
C1338 H1332 0.930 . S
C1338 C1339 1.355 . S
C1338 C1340 1.415 . S
C1339 C1338 1.355 . S
C1339 C1341 1.419 . S
C1340 C1338 1.415 . S
C1340 C1345 1.425 . S
C1340 C1347 1.409 . S
C1341 H1333 0.930 . S
C1341 C1339 1.419 . S
C1341 C1342 1.362 . S
C1342 H1334 0.930 . S
C1342 C1341 1.362 . S
C1342 C1345 1.409 . S
C1343 H1335 0.930 . S
C1343 C1344 1.355 . S
C1343 C1345 1.415 . S
C1344 C1343 1.355 . S
C1344 C1346 1.419 . S
C1345 C1340 1.425 . S
C1345 C1342 1.409 . S
C1345 C1343 1.415 . S
C1346 H1336 0.930 . S
C1346 C1344 1.419 . S
C1346 C1347 1.362 . S
C1347 H1337 0.930 . S
C1347 C1340 1.409 . S
C1347 C1346 1.362 . S
H1348 C1354 0.930 . S
H1349 C1357 0.930 . S
H1350 C1358 0.930 . S
H1351 C1359 0.930 . S
H1352 C1362 0.930 . S
H1353 C1363 0.930 . S
C1354 H1348 0.930 . S
C1354 C1355 1.355 . S
C1354 C1356 1.415 . S
C1355 C1354 1.355 . S
C1355 C1357 1.419 . S
C1356 C1354 1.415 . S
C1356 C1361 1.425 . S
C1356 C1363 1.409 . S
C1357 H1349 0.930 . S
C1357 C1355 1.419 . S
C1357 C1358 1.362 . S
C1358 H1350 0.930 . S
C1358 C1357 1.362 . S
C1358 C1361 1.409 . S
C1359 H1351 0.930 . S
C1359 C1360 1.355 . S
C1359 C1361 1.415 . S
C1360 C1359 1.355 . S
C1360 C1362 1.419 . S
C1361 C1356 1.425 . S
C1361 C1358 1.409 . S
C1361 C1359 1.415 . S
C1362 H1352 0.930 . S
C1362 C1360 1.419 . S
C1362 C1363 1.362 . S
C1363 H1353 0.930 . S
C1363 C1356 1.409 . S
C1363 C1362 1.362 . S
H1364 C1370 0.930 . S
H1365 C1373 0.930 . S
H1366 C1374 0.930 . S
H1367 C1375 0.930 . S
H1368 C1378 0.930 . S
H1369 C1379 0.930 . S
C1370 H1364 0.930 . S
C1370 C1371 1.355 . S
C1370 C1372 1.415 . S
C1371 C1370 1.355 . S
C1371 C1373 1.419 . S
C1372 C1370 1.415 . S
C1372 C1377 1.425 . S
C1372 C1379 1.409 . S
C1373 H1365 0.930 . S
C1373 C1371 1.419 . S
C1373 C1374 1.362 . S
C1374 H1366 0.930 . S
C1374 C1373 1.362 . S
C1374 C1377 1.409 . S
C1375 H1367 0.930 . S
C1375 C1376 1.355 . S
C1375 C1377 1.415 . S
C1376 C1375 1.355 . S
C1376 C1378 1.419 . S
C1377 C1372 1.425 . S
C1377 C1374 1.409 . S
C1377 C1375 1.415 . S
C1378 H1368 0.930 . S
C1378 C1376 1.419 . S
C1378 C1379 1.362 . S
C1379 H1369 0.930 . S
C1379 C1372 1.409 . S
C1379 C1378 1.362 . S
H1380 C1386 0.930 . S
H1381 C1389 0.930 . S
H1382 C1390 0.930 . S
H1383 C1391 0.930 . S
H1384 C1394 0.930 . S
H1385 C1395 0.930 . S
C1386 H1380 0.930 . S
C1386 C1387 1.355 . S
C1386 C1388 1.415 . S
C1387 C1386 1.355 . S
C1387 C1389 1.419 . S
C1388 C1386 1.415 . S
C1388 C1393 1.425 . S
C1388 C1395 1.409 . S
C1389 H1381 0.930 . S
C1389 C1387 1.419 . S
C1389 C1390 1.362 . S
C1390 H1382 0.930 . S
C1390 C1389 1.362 . S
C1390 C1393 1.409 . S
C1391 H1383 0.930 . S
C1391 C1392 1.355 . S
C1391 C1393 1.415 . S
C1392 C1391 1.355 . S
C1392 C1394 1.419 . S
C1393 C1388 1.425 . S
C1393 C1390 1.409 . S
C1393 C1391 1.415 . S
C1394 H1384 0.930 . S
C1394 C1392 1.419 . S
C1394 C1395 1.362 . S
C1395 H1385 0.930 . S
C1395 C1388 1.409 . S
C1395 C1394 1.362 . S
H1396 C1402 0.930 . S
H1397 C1405 0.930 . S
H1398 C1406 0.930 . S
H1399 C1407 0.930 . S
H1400 C1410 0.930 . S
H1401 C1411 0.930 . S
C1402 H1396 0.930 . S
C1402 C1403 1.355 . S
C1402 C1404 1.415 . S
C1403 C1402 1.355 . S
C1403 C1405 1.419 . S
C1404 C1402 1.415 . S
C1404 C1409 1.425 . S
C1404 C1411 1.409 . S
C1405 H1397 0.930 . S
C1405 C1403 1.419 . S
C1405 C1406 1.362 . S
C1406 H1398 0.930 . S
C1406 C1405 1.362 . S
C1406 C1409 1.409 . S
C1407 H1399 0.930 . S
C1407 C1408 1.355 . S
C1407 C1409 1.415 . S
C1408 C1407 1.355 . S
C1408 C1410 1.419 . S
C1409 C1404 1.425 . S
C1409 C1406 1.409 . S
C1409 C1407 1.415 . S
C1410 H1400 0.930 . S
C1410 C1408 1.419 . S
C1410 C1411 1.362 . S
C1411 H1401 0.930 . S
C1411 C1404 1.409 . S
C1411 C1410 1.362 . S
H1412 C1418 0.930 . S
H1413 C1421 0.930 . S
H1414 C1422 0.930 . S
H1415 C1423 0.930 . S
H1416 C1426 0.930 . S
H1417 C1427 0.930 . S
C1418 H1412 0.930 . S
C1418 C1419 1.355 . S
C1418 C1420 1.415 . S
C1419 C1418 1.355 . S
C1419 C1421 1.419 . S
C1420 C1418 1.415 . S
C1420 C1425 1.425 . S
C1420 C1427 1.409 . S
C1421 H1413 0.930 . S
C1421 C1419 1.419 . S
C1421 C1422 1.362 . S
C1422 H1414 0.930 . S
C1422 C1421 1.362 . S
C1422 C1425 1.409 . S
C1423 H1415 0.930 . S
C1423 C1424 1.355 . S
C1423 C1425 1.415 . S
C1424 C1423 1.355 . S
C1424 C1426 1.419 . S
C1425 C1420 1.425 . S
C1425 C1422 1.409 . S
C1425 C1423 1.415 . S
C1426 H1416 0.930 . S
C1426 C1424 1.419 . S
C1426 C1427 1.362 . S
C1427 H1417 0.930 . S
C1427 C1420 1.409 . S
C1427 C1426 1.362 . S
H1428 C1434 0.930 . S
H1429 C1437 0.930 . S
H1430 C1438 0.930 . S
H1431 C1439 0.930 . S
H1432 C1442 0.930 . S
H1433 C1443 0.930 . S
C1434 H1428 0.930 . S
C1434 C1435 1.355 . S
C1434 C1436 1.415 . S
C1435 C1434 1.355 . S
C1435 C1437 1.419 . S
C1436 C1434 1.415 . S
C1436 C1441 1.425 . S
C1436 C1443 1.409 . S
C1437 H1429 0.930 . S
C1437 C1435 1.419 . S
C1437 C1438 1.362 . S
C1438 H1430 0.930 . S
C1438 C1437 1.362 . S
C1438 C1441 1.409 . S
C1439 H1431 0.930 . S
C1439 C1440 1.355 . S
C1439 C1441 1.415 . S
C1440 C1439 1.355 . S
C1440 C1442 1.419 . S
C1441 C1436 1.425 . S
C1441 C1438 1.409 . S
C1441 C1439 1.415 . S
C1442 H1432 0.930 . S
C1442 C1440 1.419 . S
C1442 C1443 1.362 . S
C1443 H1433 0.930 . S
C1443 C1436 1.409 . S
C1443 C1442 1.362 . S
H1444 C1450 0.930 . S
H1445 C1453 0.930 . S
H1446 C1454 0.930 . S
H1447 C1455 0.930 . S
H1448 C1458 0.930 . S
H1449 C1459 0.930 . S
C1450 H1444 0.930 . S
C1450 C1451 1.355 . S
C1450 C1452 1.415 . S
C1451 C1450 1.355 . S
C1451 C1453 1.419 . S
C1452 C1450 1.415 . S
C1452 C1457 1.425 . S
C1452 C1459 1.409 . S
C1453 H1445 0.930 . S
C1453 C1451 1.419 . S
C1453 C1454 1.362 . S
C1454 H1446 0.930 . S
C1454 C1453 1.362 . S
C1454 C1457 1.409 . S
C1455 H1447 0.930 . S
C1455 C1456 1.355 . S
C1455 C1457 1.415 . S
C1456 C1455 1.355 . S
C1456 C1458 1.419 . S
C1457 C1452 1.425 . S
C1457 C1454 1.409 . S
C1457 C1455 1.415 . S
C1458 H1448 0.930 . S
C1458 C1456 1.419 . S
C1458 C1459 1.362 . S
C1459 H1449 0.930 . S
C1459 C1452 1.409 . S
C1459 C1458 1.362 . S
H1460 C1466 0.930 . S
H1461 C1469 0.930 . S
H1462 C1470 0.930 . S
H1463 C1471 0.930 . S
H1464 C1474 0.930 . S
H1465 C1475 0.930 . S
C1466 H1460 0.930 . S
C1466 C1467 1.355 . S
C1466 C1468 1.415 . S
C1467 C1466 1.355 . S
C1467 C1469 1.419 . S
C1468 C1466 1.415 . S
C1468 C1473 1.425 . S
C1468 C1475 1.409 . S
C1469 H1461 0.930 . S
C1469 C1467 1.419 . S
C1469 C1470 1.362 . S
C1470 H1462 0.930 . S
C1470 C1469 1.362 . S
C1470 C1473 1.409 . S
C1471 H1463 0.930 . S
C1471 C1472 1.355 . S
C1471 C1473 1.415 . S
C1472 C1471 1.355 . S
C1472 C1474 1.419 . S
C1473 C1468 1.425 . S
C1473 C1470 1.409 . S
C1473 C1471 1.415 . S
C1474 H1464 0.930 . S
C1474 C1472 1.419 . S
C1474 C1475 1.362 . S
C1475 H1465 0.930 . S
C1475 C1468 1.409 . S
C1475 C1474 1.362 . S
H1476 C1482 0.930 . S
H1477 C1485 0.930 . S
H1478 C1486 0.930 . S
H1479 C1487 0.930 . S
H1480 C1490 0.930 . S
H1481 C1491 0.930 . S
C1482 H1476 0.930 . S
C1482 C1483 1.355 . S
C1482 C1484 1.415 . S
C1483 C1482 1.355 . S
C1483 C1485 1.419 . S
C1484 C1482 1.415 . S
C1484 C1489 1.425 . S
C1484 C1491 1.409 . S
C1485 H1477 0.930 . S
C1485 C1483 1.419 . S
C1485 C1486 1.362 . S
C1486 H1478 0.930 . S
C1486 C1485 1.362 . S
C1486 C1489 1.409 . S
C1487 H1479 0.930 . S
C1487 C1488 1.355 . S
C1487 C1489 1.415 . S
C1488 C1487 1.355 . S
C1488 C1490 1.419 . S
C1489 C1484 1.425 . S
C1489 C1486 1.409 . S
C1489 C1487 1.415 . S
C1490 H1480 0.930 . S
C1490 C1488 1.419 . S
C1490 C1491 1.362 . S
C1491 H1481 0.930 . S
C1491 C1484 1.409 . S
C1491 C1490 1.362 . S
H1492 C1498 0.930 . S
H1493 C1501 0.930 . S
H1494 C1502 0.930 . S
H1495 C1503 0.930 . S
H1496 C1506 0.930 . S
H1497 C1507 0.930 . S
C1498 H1492 0.930 . S
C1498 C1499 1.355 . S
C1498 C1500 1.415 . S
C1499 C1498 1.355 . S
C1499 C1501 1.419 . S
C1500 C1498 1.415 . S
C1500 C1505 1.425 . S
C1500 C1507 1.409 . S
C1501 H1493 0.930 . S
C1501 C1499 1.419 . S
C1501 C1502 1.362 . S
C1502 H1494 0.930 . S
C1502 C1501 1.362 . S
C1502 C1505 1.409 . S
C1503 H1495 0.930 . S
C1503 C1504 1.355 . S
C1503 C1505 1.415 . S
C1504 C1503 1.355 . S
C1504 C1506 1.419 . S
C1505 C1500 1.425 . S
C1505 C1502 1.409 . S
C1505 C1503 1.415 . S
C1506 H1496 0.930 . S
C1506 C1504 1.419 . S
C1506 C1507 1.362 . S
C1507 H1497 0.930 . S
C1507 C1500 1.409 . S
C1507 C1506 1.362 . S
H1508 C1514 0.930 . S
H1509 C1517 0.930 . S
H1510 C1518 0.930 . S
H1511 C1519 0.930 . S
H1512 C1522 0.930 . S
H1513 C1523 0.930 . S
C1514 H1508 0.930 . S
C1514 C1515 1.355 . S
C1514 C1516 1.415 . S
C1515 C1514 1.355 . S
C1515 C1517 1.419 . S
C1516 C1514 1.415 . S
C1516 C1521 1.425 . S
C1516 C1523 1.409 . S
C1517 H1509 0.930 . S
C1517 C1515 1.419 . S
C1517 C1518 1.362 . S
C1518 H1510 0.930 . S
C1518 C1517 1.362 . S
C1518 C1521 1.409 . S
C1519 H1511 0.930 . S
C1519 C1520 1.355 . S
C1519 C1521 1.415 . S
C1520 C1519 1.355 . S
C1520 C1522 1.419 . S
C1521 C1516 1.425 . S
C1521 C1518 1.409 . S
C1521 C1519 1.415 . S
C1522 H1512 0.930 . S
C1522 C1520 1.419 . S
C1522 C1523 1.362 . S
C1523 H1513 0.930 . S
C1523 C1516 1.409 . S
C1523 C1522 1.362 . S
H1524 C1530 0.930 . S
H1525 C1533 0.930 . S
H1526 C1534 0.930 . S
H1527 C1535 0.930 . S
H1528 C1538 0.930 . S
H1529 C1539 0.930 . S
C1530 H1524 0.930 . S
C1530 C1531 1.355 . S
C1530 C1532 1.415 . S
C1531 C1530 1.355 . S
C1531 C1533 1.419 . S
C1532 C1530 1.415 . S
C1532 C1537 1.425 . S
C1532 C1539 1.409 . S
C1533 H1525 0.930 . S
C1533 C1531 1.419 . S
C1533 C1534 1.362 . S
C1534 H1526 0.930 . S
C1534 C1533 1.362 . S
C1534 C1537 1.409 . S
C1535 H1527 0.930 . S
C1535 C1536 1.355 . S
C1535 C1537 1.415 . S
C1536 C1535 1.355 . S
C1536 C1538 1.419 . S
C1537 C1532 1.425 . S
C1537 C1534 1.409 . S
C1537 C1535 1.415 . S
C1538 H1528 0.930 . S
C1538 C1536 1.419 . S
C1538 C1539 1.362 . S
C1539 H1529 0.930 . S
C1539 C1532 1.409 . S
C1539 C1538 1.362 . S
H1540 C1546 0.930 . S
H1541 C1549 0.930 . S
H1542 C1550 0.930 . S
H1543 C1551 0.930 . S
H1544 C1554 0.930 . S
H1545 C1555 0.930 . S
C1546 H1540 0.930 . S
C1546 C1547 1.355 . S
C1546 C1548 1.415 . S
C1547 C1546 1.355 . S
C1547 C1549 1.419 . S
C1548 C1546 1.415 . S
C1548 C1553 1.425 . S
C1548 C1555 1.409 . S
C1549 H1541 0.930 . S
C1549 C1547 1.419 . S
C1549 C1550 1.362 . S
C1550 H1542 0.930 . S
C1550 C1549 1.362 . S
C1550 C1553 1.409 . S
C1551 H1543 0.930 . S
C1551 C1552 1.355 . S
C1551 C1553 1.415 . S
C1552 C1551 1.355 . S
C1552 C1554 1.419 . S
C1553 C1548 1.425 . S
C1553 C1550 1.409 . S
C1553 C1551 1.415 . S
C1554 H1544 0.930 . S
C1554 C1552 1.419 . S
C1554 C1555 1.362 . S
C1555 H1545 0.930 . S
C1555 C1548 1.409 . S
C1555 C1554 1.362 . S
H1556 C1562 0.930 . S
H1557 C1565 0.930 . S
H1558 C1566 0.930 . S
H1559 C1567 0.930 . S
H1560 C1570 0.930 . S
H1561 C1571 0.930 . S
C1562 H1556 0.930 . S
C1562 C1563 1.355 . S
C1562 C1564 1.415 . S
C1563 C1562 1.355 . S
C1563 C1565 1.419 . S
C1564 C1562 1.415 . S
C1564 C1569 1.425 . S
C1564 C1571 1.409 . S
C1565 H1557 0.930 . S
C1565 C1563 1.419 . S
C1565 C1566 1.362 . S
C1566 H1558 0.930 . S
C1566 C1565 1.362 . S
C1566 C1569 1.409 . S
C1567 H1559 0.930 . S
C1567 C1568 1.355 . S
C1567 C1569 1.415 . S
C1568 C1567 1.355 . S
C1568 C1570 1.419 . S
C1569 C1564 1.425 . S
C1569 C1566 1.409 . S
C1569 C1567 1.415 . S
C1570 H1560 0.930 . S
C1570 C1568 1.419 . S
C1570 C1571 1.362 . S
C1571 H1561 0.930 . S
C1571 C1564 1.409 . S
C1571 C1570 1.362 . S
H1572 C1578 0.930 . S
H1573 C1581 0.930 . S
H1574 C1582 0.930 . S
H1575 C1583 0.930 . S
H1576 C1586 0.930 . S
H1577 C1587 0.930 . S
C1578 H1572 0.930 . S
C1578 C1579 1.355 . S
C1578 C1580 1.415 . S
C1579 C1578 1.355 . S
C1579 C1581 1.419 . S
C1580 C1578 1.415 . S
C1580 C1585 1.425 . S
C1580 C1587 1.409 . S
C1581 H1573 0.930 . S
C1581 C1579 1.419 . S
C1581 C1582 1.362 . S
C1582 H1574 0.930 . S
C1582 C1581 1.362 . S
C1582 C1585 1.409 . S
C1583 H1575 0.930 . S
C1583 C1584 1.355 . S
C1583 C1585 1.415 . S
C1584 C1583 1.355 . S
C1584 C1586 1.419 . S
C1585 C1580 1.425 . S
C1585 C1582 1.409 . S
C1585 C1583 1.415 . S
C1586 H1576 0.930 . S
C1586 C1584 1.419 . S
C1586 C1587 1.362 . S
C1587 H1577 0.930 . S
C1587 C1580 1.409 . S
C1587 C1586 1.362 . S
H1588 C1594 0.930 . S
H1589 C1597 0.930 . S
H1590 C1598 0.930 . S
H1591 C1599 0.930 . S
H1592 C1602 0.930 . S
H1593 C1603 0.930 . S
C1594 H1588 0.930 . S
C1594 C1595 1.355 . S
C1594 C1596 1.415 . S
C1595 C1594 1.355 . S
C1595 C1597 1.419 . S
C1596 C1594 1.415 . S
C1596 C1601 1.425 . S
C1596 C1603 1.409 . S
C1597 H1589 0.930 . S
C1597 C1595 1.419 . S
C1597 C1598 1.362 . S
C1598 H1590 0.930 . S
C1598 C1597 1.362 . S
C1598 C1601 1.409 . S
C1599 H1591 0.930 . S
C1599 C1600 1.355 . S
C1599 C1601 1.415 . S
C1600 C1599 1.355 . S
C1600 C1602 1.419 . S
C1601 C1596 1.425 . S
C1601 C1598 1.409 . S
C1601 C1599 1.415 . S
C1602 H1592 0.930 . S
C1602 C1600 1.419 . S
C1602 C1603 1.362 . S
C1603 H1593 0.930 . S
C1603 C1596 1.409 . S
C1603 C1602 1.362 . S
H1604 C1610 0.930 . S
H1605 C1613 0.930 . S
H1606 C1614 0.930 . S
H1607 C1615 0.930 . S
H1608 C1618 0.930 . S
H1609 C1619 0.930 . S
C1610 H1604 0.930 . S
C1610 C1611 1.355 . S
C1610 C1612 1.415 . S
C1611 C1610 1.355 . S
C1611 C1613 1.419 . S
C1612 C1610 1.415 . S
C1612 C1617 1.425 . S
C1612 C1619 1.409 . S
C1613 H1605 0.930 . S
C1613 C1611 1.419 . S
C1613 C1614 1.362 . S
C1614 H1606 0.930 . S
C1614 C1613 1.362 . S
C1614 C1617 1.409 . S
C1615 H1607 0.930 . S
C1615 C1616 1.355 . S
C1615 C1617 1.415 . S
C1616 C1615 1.355 . S
C1616 C1618 1.419 . S
C1617 C1612 1.425 . S
C1617 C1614 1.409 . S
C1617 C1615 1.415 . S
C1618 H1608 0.930 . S
C1618 C1616 1.419 . S
C1618 C1619 1.362 . S
C1619 H1609 0.930 . S
C1619 C1612 1.409 . S
C1619 C1618 1.362 . S
C475 C10 1.226 . S
C480 C153 1.247 . S
C491 C127 1.225 . S
C496 C23 1.248 . S
C507 C140 1.214 . S
C512 C36 1.259 . S
C523 C49 1.212 . S
C528 C101 1.260 . S
C539 C62 1.259 . S
C544 C114 1.214 . S
C555 C75 1.242 . S
C560 C88 1.231 . S
C571 C166 1.235 . S
C576 C309 1.238 . S
C587 C283 1.211 . S
C592 C179 1.261 . S
C603 C192 1.261 . S
C608 C296 1.212 . S
C619 C205 1.217 . S
C624 C257 1.255 . S
C635 C218 1.211 . S
C640 C270 1.261 . S
C651 C231 1.211 . S
C656 C244 1.261 . S
C667 C322 1.212 . S
C672 C465 1.260 . S
C683 C335 1.245 . S
C688 C439 1.228 . S
C699 C452 1.222 . S
C704 C348 1.251 . S
C715 C361 1.262 . S
C720 C413 1.211 . S
C731 C426 1.224 . S
C736 C374 1.248 . S
C747 C400 1.212 . S
C752 C387 1.260 . S
C763 C0 1.178 . S
C768 C195 1.177 . S
C779 C13 1.176 . S
C784 C208 1.177 . S
C795 C26 1.179 . S
C800 C221 1.178 . S
C811 C39 1.195 . S
C816 C312 1.192 . S
C827 C325 1.181 . S
C832 C52 1.184 . S
C843 C338 1.227 . S
C848 C65 1.229 . S
C859 C78 1.181 . S
C864 C429 1.183 . S
C875 C442 1.232 . S
C880 C91 1.231 . S
C891 C104 1.197 . S
C896 C455 1.201 . S
C907 C117 1.200 . S
C912 C234 1.196 . S
C923 C130 1.233 . S
C928 C247 1.233 . S
C939 C143 1.207 . S
C944 C260 1.210 . S
C955 C351 1.228 . S
C960 C156 1.226 . S
C971 C169 1.228 . S
C976 C364 1.226 . S
C987 C182 1.229 . S
C992 C377 1.231 . S
C1003 C390 1.176 . S
C1008 C273 1.176 . S
C1019 C403 1.200 . S
C1024 C286 1.204 . S
C1035 C299 1.181 . S
C1040 C416 1.183 . S
C1051 C5 1.369 . S
C1056 C57 1.363 . S
C1067 C70 1.356 . S
C1072 C18 1.377 . S
C1083 C44 1.335 . S
C1088 C31 1.407 . S
C1099 C83 1.349 . S
C1104 C135 1.398 . S
C1115 C148 1.336 . S
C1120 C96 1.407 . S
C1131 C109 1.392 . S
C1136 C122 1.343 . S
C1147 C213 1.338 . S
C1152 C161 1.406 . S
C1163 C174 1.361 . S
C1168 C226 1.388 . S
C1179 C187 1.334 . S
C1184 C200 1.404 . S
C1195 C291 1.333 . S
C1200 C239 1.405 . S
C1211 C304 1.378 . S
C1216 C252 1.372 . S
C1227 C278 1.397 . S
C1232 C265 1.339 . S
C1243 C317 1.334 . S
C1248 C369 1.408 . S
C1259 C330 1.342 . S
C1264 C382 1.393 . S
C1275 C343 1.337 . S
C1280 C356 1.399 . S
C1291 C447 1.374 . S
C1296 C395 1.359 . S
C1307 C460 1.367 . S
C1312 C408 1.366 . S
C1323 C434 1.335 . S
C1328 C421 1.402 . S
C1339 C125 1.404 . S
C1344 C8 1.364 . S
C1355 C138 1.382 . S
C1360 C21 1.386 . S
C1371 C34 1.420 . S
C1376 C151 1.348 . S
C1387 C47 1.405 . S
C1392 C86 1.363 . S
C1403 C99 1.392 . S
C1408 C60 1.376 . S
C1419 C73 1.349 . S
C1424 C112 1.418 . S
C1435 C281 1.400 . S
C1440 C164 1.368 . S
C1451 C294 1.419 . S
C1456 C177 1.348 . S
C1467 C190 1.416 . S
C1472 C307 1.352 . S
C1483 C242 1.352 . S
C1488 C203 1.415 . S
C1499 C255 1.348 . S
C1504 C216 1.420 . S
C1515 C268 1.351 . S
C1520 C229 1.417 . S
C1531 C320 1.355 . S
C1536 C437 1.413 . S
C1547 C450 1.349 . S
C1552 C333 1.418 . S
C1563 C346 1.370 . S
C1568 C463 1.398 . S
C1579 C359 1.378 . S
C1584 C398 1.390 . S
C1595 C372 1.396 . S
C1600 C411 1.373 . S
C1611 C424 1.347 . S
C1616 C385 1.420 . S
