# Generated by pormake.
# Topology mdf, (4)-cn, num edge types: 1
# Building blocks:
#     Node 0, Type 0, BuildingBlock: ICAMEG_clean_sbu_1, # of connection points: 4
#     Node 1, Type 0, BuildingBlock: ICAMEG_clean_sbu_1, # of connection points: 4
#     Node 2, Type 0, BuildingBlock: ICAMEG_clean_sbu_1, # of connection points: 4
#     Node 3, Type 0, BuildingBlock: ICAMEG_clean_sbu_1, # of connection points: 4
#     Node 4, Type 0, BuildingBlock: ICAMEG_clean_sbu_1, # of connection points: 4
#     Node 5, Type 0, BuildingBlock: ICAMEG_clean_sbu_1, # of connection points: 4
#     Node 6, Type 0, BuildingBlock: ICAMEG_clean_sbu_1, # of connection points: 4
#     Node 7, Type 0, BuildingBlock: ICAMEG_clean_sbu_1, # of connection points: 4
#     Edge 8, Type (0, 0), BuildingBlock: CIFDUS_clean_linker_0, # of connection points: 2
#     Edge 9, Type (0, 0), BuildingBlock: CIFDUS_clean_linker_0, # of connection points: 2
#     Edge 10, Type (0, 0), BuildingBlock: CIFDUS_clean_linker_0, # of connection points: 2
#     Edge 11, Type (0, 0), BuildingBlock: CIFDUS_clean_linker_0, # of connection points: 2
#     Edge 12, Type (0, 0), BuildingBlock: CIFDUS_clean_linker_0, # of connection points: 2
#     Edge 13, Type (0, 0), BuildingBlock: CIFDUS_clean_linker_0, # of connection points: 2
#     Edge 14, Type (0, 0), BuildingBlock: CIFDUS_clean_linker_0, # of connection points: 2
#     Edge 15, Type (0, 0), BuildingBlock: CIFDUS_clean_linker_0, # of connection points: 2
#     Edge 16, Type (0, 0), BuildingBlock: CIFDUS_clean_linker_0, # of connection points: 2
#     Edge 17, Type (0, 0), BuildingBlock: CIFDUS_clean_linker_0, # of connection points: 2
#     Edge 18, Type (0, 0), BuildingBlock: CIFDUS_clean_linker_0, # of connection points: 2
#     Edge 19, Type (0, 0), BuildingBlock: CIFDUS_clean_linker_0, # of connection points: 2
#     Edge 20, Type (0, 0), BuildingBlock: CIFDUS_clean_linker_0, # of connection points: 2
#     Edge 21, Type (0, 0), BuildingBlock: CIFDUS_clean_linker_0, # of connection points: 2
#     Edge 22, Type (0, 0), BuildingBlock: CIFDUS_clean_linker_0, # of connection points: 2
#     Edge 23, Type (0, 0), BuildingBlock: CIFDUS_clean_linker_0, # of connection points: 2
# Relax obj value: 0.008
# Max RMSD: 0.048
# Mean RMSD: 0.048
data_MOF--net-mdf--node1-ICAMEG_clean_sbu_1--edge1-CIFDUS_clean_linker_0
_symmetry_space_group_name_H-M    P1
_symmetry_Int_Tables_number       1
_symmetry_cell_setting            triclinic
loop_
_symmetry_equiv_pos_as_xyz
'x, y, z'
_cell_length_a     36.647721
_cell_length_b     36.469082
_cell_length_c     10.304543
_cell_angle_alpha  90.149645
_cell_angle_beta   90.187251
_cell_angle_gamma 89.899434
loop_
_atom_site_label
_atom_site_type_symbol
_atom_site_fract_x
_atom_site_fract_y
_atom_site_fract_z
_atom_type_partial_charge
Co0 Co 0.24374 0.51079 0.49872 0.0
Co1 Co 0.27737 0.51544 0.19179 0.0
O2 O 0.25837 0.53952 0.34697 0.0
C3 C 0.19157 0.57565 0.48343 0.0
O4 O 0.20689 0.58873 0.37834 0.0
C5 C 0.33871 0.57038 0.20919 0.0
O6 O 0.35657 0.55097 0.29577 0.0
O7 O 0.31539 0.4918 0.29735 0.0
O8 O 0.28395 0.4737 0.47028 0.0
H9 H 0.27695 0.42401 0.82806 0.0
H10 H 0.25985 0.59099 0.52957 0.0
O11 O 0.20277 0.546 0.53498 0.0
H12 H 0.35033 0.52821 0.80186 0.0
H13 H 0.1757 0.49314 0.91431 0.0
H14 H 0.23698 0.43107 0.55001 0.0
H15 H 0.3021 0.49277 0.6896 0.0
H16 H 0.21184 0.52839 0.75684 0.0
O17 O 0.30847 0.55952 0.16268 0.0
H18 H 0.24838 0.468 -0.02024 0.0
H19 H 0.35266 0.50705 0.09097 0.0
H20 H 0.2028 0.39446 0.70854 0.0
H21 H 0.30485 0.62722 0.64937 0.0
H22 H 0.17032 0.42577 0.88852 0.0
H23 H 0.35107 0.59572 0.78567 0.0
O24 O 0.21032 0.48176 0.3895 0.0
H25 H 0.23623 0.59826 0.83261 0.0
H26 H 0.19644 0.52868 0.21482 0.0
H27 H 0.15218 0.56691 0.09838 0.0
H28 H 0.17237 0.60343 0.90904 0.0
H29 H 0.27906 0.55712 0.94619 0.0
H30 H 0.3821 0.46484 0.93854 0.0
H31 H 0.34432 0.42235 0.80831 0.0
O32 O 0.24497 0.47122 0.21529 0.0
C33 C 0.31211 0.4723 0.39802 0.0
C34 C 0.29356 0.44294 0.88315 0.0
C35 C 0.35265 0.46566 0.94555 0.0
N36 N 0.2985 0.49087 0.04229 0.0
C37 C 0.2775 0.46816 0.9679 0.0
C38 C 0.33565 0.49014 0.03026 0.0
C39 C 0.3314 0.44178 0.87235 0.0
C40 C 0.27818 0.5769 0.5937 0.0
N41 N 0.27704 0.53958 0.60599 0.0
C42 C 0.30426 0.59771 0.65986 0.0
C43 C 0.33019 0.58006 0.73617 0.0
C44 C 0.32951 0.54205 0.74625 0.0
C45 C 0.30222 0.5222 0.68212 0.0
C46 C 0.18973 0.47925 0.83612 0.0
C47 C 0.22496 0.44474 0.63261 0.0
C48 C 0.21064 0.49909 0.74772 0.0
N49 N 0.22716 0.48202 0.64551 0.0
C50 C 0.205 0.42386 0.72084 0.0
C51 C 0.18685 0.44139 0.82205 0.0
C52 C 0.2176 0.46383 0.28687 0.0
C53 C 0.22716 0.58243 0.91503 0.0
C54 C 0.2051 0.54229 0.12797 0.0
C55 C 0.17994 0.56468 0.06364 0.0
C56 C 0.19124 0.58518 0.95741 0.0
N57 N 0.24036 0.53964 0.08613 0.0
C58 C 0.25122 0.55884 -0.02078 0.0
Co59 Co 0.51493 0.78126 0.42525 0.0
Co60 Co 0.51702 0.74676 0.73336 0.0
O61 O 0.49013 0.76103 0.57777 0.0
C62 C 0.46846 0.8472 0.37656 0.0
O63 O 0.49796 0.86745 0.38655 0.0
C64 C 0.44964 0.70201 0.74542 0.0
O65 O 0.43097 0.73071 0.70597 0.0
O66 O 0.54905 0.71614 0.62796 0.0
O67 O 0.55963 0.74896 0.44993 0.0
H68 H 0.60803 0.76326 0.09403 0.0
H69 H 0.43984 0.75231 0.39803 0.0
O70 O 0.47034 0.81272 0.39624 0.0
H71 H 0.51621 0.67154 0.12811 0.0
H72 H 0.5176 0.84775 -0.00033 0.0
H73 H 0.59049 0.805 0.37209 0.0
H74 H 0.5427 0.72639 0.2334 0.0
H75 H 0.49078 0.80668 0.16377 0.0
O76 O 0.48424 0.70347 0.75333 0.0
H77 H 0.55996 0.78399 0.94352 0.0
H78 H 0.53824 0.67396 0.83528 0.0
H79 H 0.61926 0.84389 0.20699 0.0
H80 H 0.41195 0.69935 0.28744 0.0
H81 H 0.5825 0.86665 0.02193 0.0
H82 H 0.45061 0.65805 0.15443 0.0
O83 O 0.53716 0.82008 0.53359 0.0
H84 H 0.42788 0.76667 0.09585 0.0
H85 H 0.48382 0.82124 0.70855 0.0
H86 H 0.43657 0.85551 0.82623 0.0
H87 H 0.40727 0.82759 0.01852 0.0
H88 H 0.47782 0.73464 -0.01871 0.0
H89 H 0.58528 0.65207 -0.01415 0.0
H90 H 0.62177 0.69687 0.11153 0.0
O91 O 0.55107 0.78969 0.71609 0.0
C92 C 0.56665 0.72198 0.52491 0.0
C93 C 0.59206 0.74352 0.03992 0.0
C94 C 0.5794 0.6811 -0.02088 0.0
N95 N 0.54532 0.7305 0.88265 0.0
C96 C 0.56442 0.75514 0.95583 0.0
C97 C 0.55217 0.69377 0.8955 0.0
C98 C 0.59976 0.70625 0.05026 0.0
C99 C 0.45657 0.73545 0.3356 0.0
N100 N 0.49288 0.74287 0.32057 0.0
C101 C 0.44065 0.70519 0.27455 0.0
C102 C 0.4623 0.68207 0.19956 0.0
C103 C 0.49922 0.68974 0.18459 0.0
C104 C 0.51404 0.72077 0.24451 0.0
C105 C 0.53398 0.83788 0.07981 0.0
C106 C 0.57472 0.81308 0.28813 0.0
C107 C 0.51901 0.81415 0.17152 0.0
N108 N 0.53889 0.80311 0.27644 0.0
C109 C 0.59104 0.83569 0.19604 0.0
C110 C 0.57034 0.84853 0.09221 0.0
C111 C 0.55368 0.81737 0.64151 0.0
C112 C 0.44073 0.77915 0.01271 0.0
C113 C 0.47296 0.80975 0.79645 0.0
C114 C 0.4456 0.82906 0.86149 0.0
C115 C 0.42916 0.8134 0.96946 0.0
N116 N 0.48441 0.77623 0.83974 0.0
C117 C 0.46924 0.76134 0.9484 0.0
Co118 Co 0.22928 0.00934 0.64153 0.0
Co119 Co 0.26476 0.01468 0.95179 0.0
O120 O 0.24939 0.98683 0.79864 0.0
C121 C 0.15714 0.97255 0.6233 0.0
O122 O 0.1427 1.00517 0.63935 0.0
C123 C 0.31193 0.94727 0.96711 0.0
O124 O 0.28373 0.92659 0.93803 0.0
O125 O 0.29383 0.04791 0.84355 0.0
O126 O 0.26664 0.04971 0.64758 0.0
H127 H 0.24891 0.10139 0.32709 0.0
H128 H 0.24936 0.93058 0.63891 0.0
O129 O 0.1918 0.96856 0.6306 0.0
H130 H 0.33536 0.99101 0.34162 0.0
H131 H 0.15892 1.00582 0.22429 0.0
H132 H 0.21036 0.08526 0.56581 0.0
H133 H 0.28323 0.02513 0.43306 0.0
H134 H 0.20019 0.98045 0.39166 0.0
O135 O 0.30881 0.98207 0.96913 0.0
H136 H 0.2284 0.05383 0.17177 0.0
H137 H 0.3375 0.03772 0.04847 0.0
H138 H 0.16981 0.11196 0.39989 0.0
H139 H 0.29961 0.8947 0.5428 0.0
H140 H 0.14282 0.0718 0.22991 0.0
H141 H 0.34374 0.92527 0.3964 0.0
O142 O 0.19537 0.03999 0.74543 0.0
H143 H 0.24638 0.92221 0.30502 0.0
H144 H 0.18993 0.98429 0.93135 0.0
H145 H 0.15622 0.93547 0.04316 0.0
H146 H 0.18505 0.90337 0.22894 0.0
H147 H 0.27825 0.9729 0.19332 0.0
H148 H 0.35926 0.08225 0.21018 0.0
H149 H 0.31442 0.11598 0.34568 0.0
O150 O 0.2223 0.04914 0.93765 0.0
C151 C 0.29079 0.0603 0.72899 0.0
C152 C 0.26846 0.08644 0.26933 0.0
C153 C 0.33047 0.07596 0.20323 0.0
N154 N 0.28149 0.04267 0.10142 0.0
C155 C 0.25702 0.05965 0.181 0.0
C156 C 0.31794 0.05017 0.11325 0.0
C157 C 0.30538 0.09474 0.27966 0.0
C158 C 0.26746 0.94367 0.57071 0.0
N159 N 0.26327 0.97996 0.54135 0.0
C160 C 0.29622 0.92334 0.51814 0.0
C161 C 0.32101 0.9405 0.43609 0.0
C162 C 0.3164 0.97742 0.40585 0.0
C163 C 0.28674 0.9966 0.45744 0.0
C164 C 0.17083 0.02356 0.29704 0.0
C165 C 0.20007 0.0679 0.48884 0.0
C166 C 0.1947 0.00944 0.39047 0.0
N167 N 0.20809 0.03129 0.48711 0.0
C168 C 0.17673 0.08313 0.39595 0.0
C169 C 0.16165 0.06062 0.30056 0.0
C170 C 0.19717 0.05577 0.85533 0.0
C171 C 0.23352 0.93633 0.22497 0.0
C172 C 0.20197 0.97171 0.01591 0.0
C173 C 0.18293 0.94365 0.07769 0.0
C174 C 0.19907 0.92565 0.18209 0.0
N175 N 0.23593 0.98183 0.05778 0.0
C176 C 0.25123 0.96527 0.1631 0.0
Co177 Co 0.98865 0.77168 0.21338 0.0
Co178 Co 0.99297 0.73775 0.90236 0.0
O179 O 0.01586 0.7563 0.05999 0.0
C180 C 0.05992 0.81039 0.22883 0.0
O181 O 0.07487 0.78067 0.17992 0.0
C182 C 0.03667 0.66735 0.91623 0.0
O183 O 0.01051 0.65105 -0.01984 0.0
O184 O 0.96346 0.70293 0.00338 0.0
O185 O 0.95129 0.73136 0.19077 0.0
H186 H 0.88759 0.68445 0.65772 0.0
H187 H 0.02966 0.77974 0.46005 0.0
O188 O 0.02526 0.81239 0.24055 0.0
H189 H 0.06045 0.65695 0.29362 0.0
H190 H 0.92914 0.86929 0.48213 0.0
H191 H 0.94439 0.73611 0.42262 0.0
H192 H 0.01441 0.69495 0.18487 0.0
H193 H 0.97183 0.84512 0.31954 0.0
O194 O 0.03411 0.70119 0.88664 0.0
H195 H 0.91664 0.72331 0.82426 0.0
H196 H 0.02041 0.7039 0.65793 0.0
H197 H 0.89857 0.75948 0.57792 0.0
H198 H 0.07803 0.74367 0.56877 0.0
H199 H 0.8909 0.82617 0.60849 0.0
H200 H 0.09325 0.6817 0.48402 0.0
O201 O 0.95848 0.80458 0.10586 0.0
H202 H 0.10695 0.80736 0.79848 0.0
H203 H 0.97665 0.79163 0.6929 0.0
H204 H 0.01099 0.84276 0.59439 0.0
H205 H 0.07669 0.85062 0.64766 0.0
H206 H 0.07104 0.75847 0.90128 0.0
H207 H 0.99264 0.66442 0.49004 0.0
H208 H 0.92586 0.65398 0.49071 0.0
O209 O 0.95285 0.77574 0.91327 0.0
C210 C 0.9463 0.70525 0.10984 0.0
C211 C 0.91676 0.68906 0.65562 0.0
C212 C 0.9757 0.67803 0.56109 0.0
N213 N 0.97026 0.71703 0.74823 0.0
C214 C 0.93334 0.71162 0.74842 0.0
C215 C 0.99127 0.7009 0.65507 0.0
C216 C 0.9382 0.67196 0.56198 0.0
C217 C 0.03581 0.75257 0.42596 0.0
N218 N 0.01863 0.7393 0.31813 0.0
C219 C 0.06357 0.73252 0.48599 0.0
C220 C 0.07221 0.69777 0.43877 0.0
C221 C 0.05368 0.68379 0.33175 0.0
C222 C 0.02702 0.7052 0.27184 0.0
C223 C 0.93253 0.83998 0.47051 0.0
C224 C 0.94151 0.76521 0.43645 0.0
C225 C 0.95726 0.82602 0.38011 0.0
N226 N 0.9613 0.78901 0.36293 0.0
C227 C 0.91566 0.77824 0.52486 0.0
C228 C 0.91117 0.81583 0.54163 0.0
C229 C 0.94471 0.80144 -0.007 0.0
C230 C 0.07834 0.80416 0.77473 0.0
C231 C 1.00511 0.79516 0.71649 0.0
C232 C 0.02442 0.8241 0.66066 0.0
C233 C 0.06131 0.82844 0.68988 0.0
N234 N 0.02168 0.77224 0.80305 0.0
C235 C 0.05792 0.77623 0.83147 0.0
Co236 Co 0.73487 0.00945 0.02053 0.0
Co237 Co 0.77171 0.01066 0.71943 0.0
O238 O 0.75374 0.03656 0.87156 0.0
C239 C 0.66556 0.05062 0.06934 0.0
O240 O 0.64756 0.01961 0.05934 0.0
C241 C 0.83848 0.06073 0.7232 0.0
O242 O 0.85725 0.03996 0.80325 0.0
O243 O 0.80695 0.98367 0.8299 0.0
O244 O 0.77037 0.96782 -0.00651 0.0
H245 H 0.76303 0.92038 0.3537 0.0
H246 H 0.75646 0.08723 0.05631 0.0
O247 O 0.69987 0.05122 0.04961 0.0
H248 H 0.84262 0.01645 0.32423 0.0
H249 H 0.6711 0.99911 0.45009 0.0
H250 H 0.71753 0.93125 0.07116 0.0
H251 H 0.79176 0.98543 0.21077 0.0
H252 H 0.70728 0.03049 0.28173 0.0
O253 O 0.80628 0.05213 0.68892 0.0
H254 H 0.73901 0.96643 0.50702 0.0
H255 H 0.84644 0.99392 0.62263 0.0
H256 H 0.68365 0.8982 0.24026 0.0
H257 H 0.8051 0.11943 0.17572 0.0
H258 H 0.65928 0.9324 0.42999 0.0
H259 H 0.84899 0.08382 0.30958 0.0
O260 O 0.69901 0.98371 0.90764 0.0
H261 H 0.73855 0.09627 0.35807 0.0
H262 H 0.69296 0.03281 0.74475 0.0
H263 H 0.65263 0.07501 0.62844 0.0
H264 H 0.67577 0.10821 0.43633 0.0
H265 H 0.77708 0.0508 0.47088 0.0
H266 H 0.87172 0.94921 0.46959 0.0
H267 H 0.83 0.91106 0.33712 0.0
O268 O 0.73592 0.96957 0.74262 0.0
C269 C 0.79915 0.96319 0.92562 0.0
C270 C 0.78151 0.93717 0.41012 0.0
C271 C 0.8425 0.95327 0.47527 0.0
N272 N 0.79105 0.98389 0.5713 0.0
C273 C 0.768 0.96368 0.49553 0.0
C274 C 0.82794 0.97921 0.56045 0.0
C275 C 0.81905 0.9319 0.40066 0.0
C276 C 0.77442 0.0716 0.11845 0.0
N277 N 0.77062 0.03441 0.12883 0.0
C278 C 0.80229 0.09001 0.18446 0.0
C279 C 0.82692 0.07004 0.25941 0.0
C280 C 0.82317 0.03216 0.26838 0.0
C281 C 0.79437 0.01477 0.20378 0.0
C282 C 0.68177 0.98392 0.36834 0.0
C283 C 0.70847 0.94611 0.15598 0.0
C284 C 0.70262 1.00153 0.27391 0.0
N285 N 0.7148 0.98294 0.16755 0.0
C286 C 0.68879 0.92728 0.25065 0.0
C287 C 0.67507 0.94647 0.35691 0.0
C288 C 0.7069 0.96455 0.80807 0.0
C289 C 0.7281 0.08158 0.44097 0.0
C290 C 0.70265 0.04479 0.65637 0.0
C291 C 0.67981 0.06956 0.59229 0.0
C292 C 0.69281 0.08827 0.48458 0.0
N293 N 0.73714 0.03781 0.61225 0.0
C294 C 0.74965 0.05551 0.50446 0.0
Co295 Co 0.01713 0.27521 0.97088 0.0
Co296 Co 0.01842 0.25394 0.29628 0.0
O297 O 0.99284 0.26282 0.13321 0.0
C298 C 0.94634 0.31629 0.96455 0.0
O299 O 0.9302 0.28759 0.01521 0.0
C300 C 0.95388 0.20339 0.30603 0.0
O301 O 0.93352 0.22812 0.24792 0.0
O302 O 0.05459 0.22137 0.21057 0.0
O303 O 0.05455 0.23567 -0.00157 0.0
H304 H 0.13371 0.23625 0.54754 0.0
H305 H 0.95825 0.27388 0.75462 0.0
O306 O 0.98063 0.31591 0.94392 0.0
H307 H 0.96223 0.14947 0.93346 0.0
H308 H 0.03 0.3412 0.54136 0.0
H309 H 0.0942 0.27569 0.89013 0.0
H310 H 1.00169 0.19704 0.02142 0.0
H311 H 0.996 0.31464 0.71774 0.0
O312 O 0.98762 0.20945 0.32595 0.0
H313 H 0.09535 0.26149 0.37573 0.0
H314 H 1.00167 0.21493 0.55288 0.0
H315 H 0.12941 0.30433 0.7176 0.0
H316 H 0.91693 0.22728 0.66855 0.0
H317 H 0.09766 0.33728 0.54012 0.0
H318 H 0.91881 0.16441 0.75667 0.0
O319 O 0.04955 0.31158 0.05785 0.0
H320 H 0.91297 0.29164 0.59247 0.0
H321 H 0.9945 0.32977 0.24252 0.0
H322 H 0.95093 0.37351 0.32976 0.0
H323 H 0.90947 0.35488 0.50614 0.0
H324 H 0.95846 0.24911 0.5072 0.0
H325 H 0.03848 0.19116 0.72644 0.0
H326 H 0.10582 0.20065 0.7255 0.0
O327 O 0.05084 0.29699 0.26928 0.0
C328 C 0.06657 0.21756 0.09562 0.0
C329 C 0.10441 0.23273 0.55145 0.0
C330 C 0.05116 0.20771 0.65264 0.0
N331 N 0.04496 0.24323 0.45706 0.0
C332 C 0.08209 0.24794 0.45557 0.0
C333 C 0.02978 0.22271 0.55406 0.0
C334 C 0.08876 0.21264 0.65104 0.0
C335 C 0.96112 0.24663 0.79013 0.0
N336 N 0.98556 0.23842 0.88639 0.0
C337 C 0.93684 0.22024 0.74212 0.0
C338 C 0.93769 0.18491 0.79185 0.0
C339 C 0.96201 0.17657 0.89089 0.0
C340 C 0.9852 0.20382 0.93845 0.0
C341 C 0.04423 0.32575 0.61524 0.0
C342 C 0.07944 0.28815 0.81101 0.0
C343 C 0.02467 0.30905 0.71492 0.0
N344 N 0.04202 0.28951 0.81058 0.0
C345 C 0.0999 0.30532 0.71463 0.0
C346 C 0.0821 0.32394 0.61542 0.0
C347 C 0.06098 0.31628 0.17334 0.0
C348 C 0.93222 0.30061 0.51994 0.0
C349 C 0.97892 0.32152 0.3255 0.0
C350 C 0.95328 0.34651 0.3724 0.0
C351 C 0.92994 0.336 0.47103 0.0
N352 N 0.98277 0.28719 0.37821 0.0
C353 C 0.95888 0.27657 0.4725 0.0
Co354 Co 0.73629 0.51034 0.23823 0.0
Co355 Co 0.77109 0.51111 0.54894 0.0
O356 O 0.75467 0.48493 0.39292 0.0
C357 C 0.70588 0.43511 0.22427 0.0
O358 O 0.73698 0.42428 0.27488 0.0
C359 C 0.81984 0.4437 0.52339 0.0
O360 O 0.80443 0.43433 0.41325 0.0
O361 O 0.80511 0.54075 0.4445 0.0
O362 O 0.77225 0.55187 0.26425 0.0
H363 H 0.81059 0.62553 0.77631 0.0
H364 H 0.73131 0.46898 -0.00891 0.0
O365 O 0.69972 0.4694 0.20974 0.0
H366 H 0.85795 0.45224 0.14018 0.0
H367 H 0.63368 0.56365 0.97887 0.0
H368 H 0.76718 0.55868 0.03189 0.0
H369 H 0.81629 0.4934 0.25695 0.0
H370 H 0.66183 0.5209 0.13414 0.0
O371 O 0.81087 0.4734 0.58084 0.0
H372 H 0.77691 0.58983 0.61394 0.0
H373 H 0.80635 0.4909 0.80217 0.0
H374 H 0.7398 0.60362 0.88097 0.0
H375 H 0.77131 0.42527 0.87615 0.0
H376 H 0.67286 0.6063 0.85428 0.0
H377 H 0.83505 0.4165 0.95162 0.0
O378 O 0.70042 0.53706 0.34466 0.0
H379 H 0.70275 0.39663 0.67149 0.0
H380 H 0.71611 0.5292 0.74998 0.0
H381 H 0.66556 0.4954 0.85351 0.0
H382 H 0.65917 0.42872 0.81621 0.0
H383 H 0.75026 0.43168 0.56131 0.0
H384 H 0.8412 0.52556 0.96602 0.0
H385 H 0.84346 0.59357 0.95216 0.0
O386 O 0.73197 0.5494 0.52593 0.0
C387 C 0.79844 0.55914 0.34251 0.0
C388 C 0.80947 0.59595 0.78363 0.0
C389 C 0.82654 0.53984 0.8902 0.0
N390 N 0.78879 0.53804 0.69944 0.0
C391 C 0.78988 0.57549 0.69283 0.0
C392 C 0.80635 0.5203 0.79803 0.0
C393 C 0.82804 0.57793 0.88237 0.0
C394 C 0.75914 0.46576 0.02279 0.0
N395 N 0.77125 0.48398 0.13057 0.0
C396 C 0.78155 0.44064 0.95843 0.0
C397 C 0.81736 0.4358 0.0005 0.0
C398 C 0.83019 0.45585 0.1063 0.0
C399 C 0.80655 0.47975 0.17097 0.0
C400 C 0.66307 0.56245 -0.01128 0.0
C401 C 0.73807 0.55905 0.01831 0.0
C402 C 0.67929 0.53777 0.07491 0.0
N403 N 0.71638 0.5365 0.08993 0.0
C404 C 0.72274 0.58464 0.9332 0.0
C405 C 0.68502 0.5863 0.9186 0.0
C406 C 0.70503 0.55456 0.44976 0.0
C407 C 0.70563 0.42571 0.6902 0.0
C408 C 0.71355 0.50013 0.73378 0.0
C409 C 0.68489 0.4812 0.79257 0.0
C410 C 0.68119 0.44369 0.7714 0.0
N411 N 0.737 0.48253 0.65181 0.0
C412 C 0.73313 0.44574 0.62958 0.0
Co413 Co 0.49199 0.27259 0.8161 0.0
Co414 Co 0.49162 0.2506 0.49049 0.0
O415 O 0.51668 0.25991 0.65428 0.0
C416 C 0.56395 0.31138 0.82716 0.0
O417 O 0.57928 0.28282 0.77157 0.0
C418 C 0.5574 0.20152 0.47988 0.0
O419 O 0.57771 0.22794 0.528 0.0
O420 O 0.45561 0.21798 0.57503 0.0
O421 O 0.45267 0.23535 0.78376 0.0
H422 H 0.37669 0.23206 0.23878 0.0
H423 H 0.55097 0.26864 0.03041 0.0
O424 O 0.52969 0.31174 0.84814 0.0
H425 H 0.54071 0.14409 0.85404 0.0
H426 H 0.4799 0.33603 0.25331 0.0
H427 H 0.41473 0.27691 0.89295 0.0
H428 H 0.50376 0.1935 0.76534 0.0
H429 H 0.51361 0.30975 0.07399 0.0
O430 O 0.52326 0.20626 0.46345 0.0
H431 H 0.41509 0.25931 0.40584 0.0
H432 H 0.50844 0.20862 0.23796 0.0
H433 H 0.37995 0.3036 0.07078 0.0
H434 H 0.59019 0.22029 0.11649 0.0
H435 H 0.41225 0.33378 0.25322 0.0
H436 H 0.5847 0.15704 0.031 0.0
O437 O 0.46123 0.30991 0.72879 0.0
H438 H 0.59489 0.2883 0.18654 0.0
H439 H 0.51575 0.32642 0.54526 0.0
H440 H 0.55908 0.37007 0.45571 0.0
H441 H 0.59932 0.35132 0.27425 0.0
H442 H 0.54972 0.24603 0.27435 0.0
H443 H 0.47102 0.1827 0.0677 0.0
H444 H 0.40417 0.19188 0.0718 0.0
O445 O 0.45838 0.29363 0.51809 0.0
C446 C 0.4412 0.21661 0.68702 0.0
C447 C 0.40597 0.22828 0.23519 0.0
C448 C 0.45889 0.20083 0.13885 0.0
N449 N 0.46546 0.23911 0.3289 0.0
C450 C 0.4284 0.24458 0.32851 0.0
C451 C 0.48046 0.21702 0.23503 0.0
C452 C 0.42138 0.20604 0.14058 0.0
C453 C 0.54682 0.24148 -0.00463 0.0
N454 N 0.5218 0.23428 0.89998 0.0
C455 C 0.56985 0.21399 0.04349 0.0
C456 C 0.56707 0.17854 -0.00501 0.0
C457 C 0.54233 0.17127 0.8961 0.0
C458 C 0.5205 0.1996 0.84821 0.0
C459 C 0.46549 0.32163 0.177 0.0
C460 C 0.42963 0.28723 0.97529 0.0
C461 C 0.48477 0.30524 0.0754 0.0
N462 N 0.46704 0.28724 0.97664 0.0
C463 C 0.40947 0.30363 0.07446 0.0
C464 C 0.42759 0.32078 0.17633 0.0
C465 C 0.4488 0.31355 0.6141 0.0
C466 C 0.5763 0.29727 0.26155 0.0
C467 C 0.53109 0.31816 0.46141 0.0
C468 C 0.55646 0.34308 0.41277 0.0
C469 C 0.57908 0.33256 0.31145 0.0
N470 N 0.52693 0.28389 0.40817 0.0
C471 C 0.54989 0.27336 0.3106 0.0
H472 H 0.38355 0.70395 0.86304 0.0
H473 H 0.47607 0.63356 0.79069 0.0
H474 H 0.45138 0.58762 0.93811 0.0
H475 H 0.40428 0.5682 0.09293 0.0
H476 H 0.31092 0.63749 0.15979 0.0
H477 H 0.33558 0.68372 0.01218 0.0
C478 C 0.39791 0.67825 0.8775 0.0
C479 C 0.4314 0.67201 0.81535 0.0
C480 C 0.38398 0.65233 0.96459 0.0
C481 C 0.45007 0.63885 0.83694 0.0
C482 C 0.43615 0.61271 0.92195 0.0
C483 C 0.38993 0.59386 0.07718 0.0
C484 C 0.35661 0.60028 0.13962 0.0
C485 C 0.4035 0.61946 -0.01177 0.0
C486 C 0.33721 0.63273 0.11487 0.0
C487 C 0.35103 0.65883 0.02946 0.0
H488 H 0.46237 0.90964 0.23425 0.0
H489 H 0.39995 0.81772 0.3739 0.0
H490 H 0.34654 0.83915 0.25293 0.0
H491 H 0.31764 0.88382 0.10504 0.0
H492 H 0.38023 0.97594 0.96838 0.0
H493 H 0.43362 0.95419 0.08816 0.0
C494 C 0.43698 0.8945 0.23961 0.0
C495 C 0.43514 0.86228 0.31408 0.0
C496 C 0.40657 0.9066 0.1679 0.0
C497 C 0.40209 0.84274 0.31802 0.0
C498 C 0.37157 0.85486 0.24824 0.0
C499 C 0.34318 0.89871 0.09957 0.0
C500 C 0.34514 0.93114 0.02624 0.0
C501 C 0.3736 0.88652 0.17148 0.0
C502 C 0.37814 0.9507 0.0231 0.0
C503 C 0.40861 0.93843 0.09228 0.0
H504 H 0.03855 0.8732 0.35145 0.0
H505 H 0.13404 0.80883 0.25951 0.0
H506 H 0.17214 0.85111 0.38357 0.0
H507 H 0.17893 0.9079 0.51163 0.0
H508 H 0.08303 0.97147 0.60557 0.0
H509 H 0.04485 0.92814 0.487 0.0
C510 C 0.06776 0.86864 0.35687 0.0
C511 C 0.08334 0.83803 0.29453 0.0
C512 C 0.08963 0.8931 0.42848 0.0
C513 C 0.12123 0.83235 0.30491 0.0
C514 C 0.14309 0.85644 0.37662 0.0
C515 C 0.14962 0.91198 0.50798 0.0
C516 C 0.13398 0.94303 0.56755 0.0
C517 C 0.12766 0.88705 0.43831 0.0
C518 C 0.09592 0.94794 0.56055 0.0
C519 C 0.074 0.92328 0.49189 0.0
H520 H 0.09495 0.69183 0.77798 0.0
H521 H 0.0453 0.59291 0.92409 0.0
H522 H 0.08903 0.55587 0.80284 0.0
H523 H 0.1388 0.55146 0.64439 0.0
H524 H 0.188 0.65016 0.49648 0.0
H525 H 0.14788 0.68735 0.63321 0.0
C526 C 0.0939 0.66218 0.78469 0.0
C527 C 0.06652 0.64523 0.85891 0.0
C528 C 0.11889 0.64097 0.71366 0.0
C529 C 0.06587 0.60675 0.86715 0.0
C530 C 0.09073 0.58549 0.79713 0.0
C531 C 0.1403 0.58116 0.64075 0.0
C532 C 0.16558 0.59815 0.55808 0.0
C533 C 0.11667 0.60231 0.71736 0.0
C534 C 0.16801 0.63653 0.55659 0.0
C535 C 0.14537 0.65774 0.63575 0.0
H536 H 0.91028 0.06926 0.66004 0.0
H537 H 0.80444 0.12011 0.62178 0.0
H538 H 0.82997 0.16717 0.48142 0.0
H539 H 0.88229 0.19408 0.36864 0.0
H540 H 0.98831 0.14345 0.4059 0.0
H541 H 0.96276 0.09607 0.54513 0.0
C542 C 0.89301 0.09099 0.62257 0.0
C543 C 0.85566 0.09144 0.6527 0.0
C544 C 0.90772 0.11766 0.53921 0.0
C545 C 0.8334 0.11934 0.60102 0.0
C546 C 0.8479 0.14616 0.51995 0.0
C547 C 0.89969 0.17235 0.40541 0.0
C548 C 0.93708 0.17223 0.37582 0.0
C549 C 0.88496 0.14545 0.48744 0.0
C550 C 0.95934 0.14414 0.42639 0.0
C551 C 0.94481 0.11708 0.50675 0.0
H552 H 0.88422 0.30783 0.82604 0.0
H553 H 0.96068 0.3895 0.95794 0.0
H554 H 0.92787 0.43681 0.83508 0.0
H555 H 0.87829 0.45442 0.68336 0.0
H556 H 0.80654 0.37075 0.53345 0.0
H557 H 0.83647 0.3248 0.66933 0.0
C558 C 0.89324 0.33613 0.82958 0.0
C559 C 0.92434 0.34541 0.90256 0.0
C560 C 0.87532 0.3627 0.75391 0.0
C561 C 0.93653 0.3819 0.90326 0.0
C562 C 0.91793 0.40885 0.83246 0.0
C563 C 0.86956 0.42603 0.67979 0.0
C564 C 0.84054 0.41588 0.59762 0.0
C565 C 0.8876 0.39947 0.75574 0.0
C566 C 0.82924 0.3791 0.59429 0.0
C567 C 0.84607 0.35288 0.673 0.0
H568 H 0.63775 0.44513 0.11876 0.0
H569 H 0.72111 0.36309 0.18062 0.0
H570 H 0.68588 0.31872 0.05635 0.0
H571 H 0.63177 0.30283 0.92793 0.0
H572 H 0.54623 0.38274 0.8761 0.0
H573 H 0.58193 0.42821 -0.00278 0.0
C574 C 0.64802 0.41745 0.1061 0.0
C575 C 0.6821 0.40762 0.15937 0.0
C576 C 0.6274 0.39169 0.03483 0.0
C577 C 0.69494 0.37156 0.14166 0.0
C578 C 0.67491 0.34609 0.06965 0.0
C579 C 0.6212 0.33037 0.94147 0.0
C580 C 0.58676 0.33965 0.89104 0.0
C581 C 0.64131 0.35592 0.01473 0.0
C582 C 0.5729 0.3751 0.91288 0.0
C583 C 0.5932 0.40102 -0.01728 0.0
H584 H 0.60066 0.05406 0.19803 0.0
H585 H 0.69265 0.12018 0.08402 0.0
H586 H 0.66869 0.17189 0.20811 0.0
H587 H 0.62222 0.19818 0.35346 0.0
H588 H 0.52907 0.13303 0.46033 0.0
H589 H 0.55323 0.08095 0.33734 0.0
C590 C 0.61526 0.07989 0.19896 0.0
C591 C 0.64841 0.08312 0.13145 0.0
C592 C 0.60154 0.1095 0.27192 0.0
C593 C 0.66706 0.11683 0.13484 0.0
C594 C 0.65349 0.14643 0.20644 0.0
C595 C 0.60761 0.17234 0.3516 0.0
C596 C 0.57431 0.16914 0.41787 0.0
C597 C 0.62106 0.14292 0.2771 0.0
C598 C 0.55502 0.13592 0.41129 0.0
C599 C 0.56868 0.10625 0.34029 0.0
H600 H 0.31186 0.41718 0.57665 0.0
H601 H 0.3791 0.46777 0.284 0.0
H602 H 0.42723 0.42318 0.32449 0.0
H603 H 0.45052 0.36934 0.44231 0.0
H604 H 0.38418 0.31934 0.73677 0.0
H605 H 0.33528 0.36354 0.69503 0.0
C606 C 0.33712 0.41863 0.52237 0.0
C607 C 0.34173 0.4459 0.42771 0.0
C608 C 0.36488 0.39286 0.54611 0.0
C609 C 0.37463 0.44711 0.35751 0.0
C610 C 0.4023 0.42162 0.38052 0.0
C611 C 0.42537 0.36847 0.49742 0.0
C612 C 0.4207 0.3415 0.59236 0.0
C613 C 0.39774 0.39437 0.47442 0.0
C614 C 0.38828 0.34033 0.66414 0.0
C615 C 0.36036 0.36549 0.64004 0.0
H616 H 0.63404 0.95756 0.85583 0.0
H617 H 0.72482 0.90434 0.66642 0.0
H618 H 0.68542 0.854 0.59914 0.0
H619 H 0.62523 0.8244 0.59588 0.0
H620 H 0.53359 0.87826 0.77434 0.0
H621 H 0.57295 0.92921 0.84342 0.0
C622 C 0.64513 0.93489 0.8001 0.0
C623 C 0.68231 0.93461 0.76689 0.0
C624 C 0.62215 0.90619 0.75968 0.0
C625 C 0.69626 0.90528 0.69313 0.0
C626 C 0.67379 0.8764 0.65479 0.0
C627 C 0.61413 0.84736 0.6502 0.0
C628 C 0.57704 0.84779 0.68209 0.0
C629 C 0.63677 0.87648 0.68786 0.0
C630 C 0.56235 0.8776 0.75038 0.0
C631 C 0.58478 0.90661 0.7894 0.0
H632 H 0.06665 0.16818 0.90205 0.0
H633 H 0.12653 0.20103 0.24234 0.0
H634 H 0.17228 0.15327 0.19987 0.0
H635 H 0.19564 0.10324 0.06174 0.0
H636 H 0.13561 0.07246 0.71676 0.0
H637 H 0.08997 0.11895 0.76329 0.0
C638 C 0.09017 0.16538 0.96474 0.0
C639 C 0.09392 0.18864 0.07225 0.0
C640 C 0.11617 0.13812 0.9393 0.0
C641 C 0.12339 0.18356 0.15785 0.0
C642 C 0.14948 0.15633 0.13355 0.0
C643 C 0.17241 0.10632 -0.00257 0.0
C644 C 0.16895 0.08364 0.88711 0.0
C645 C 0.14621 0.13352 0.02404 0.0
C646 C 0.13891 0.08884 0.80359 0.0
C647 C 0.11273 0.1156 0.82975 0.0
H648 H 0.89082 0.70429 0.28854 0.0
H649 H 0.94463 0.6371 0.00102 0.0
H650 H 0.90604 0.58572 0.05476 0.0
H651 H 0.85474 0.5597 0.17603 0.0
H652 H 0.79609 0.62757 0.4465 0.0
H653 H 0.83794 0.67858 0.40616 0.0
C654 C 0.89405 0.67842 0.23771 0.0
C655 C 0.92132 0.67463 0.14271 0.0
C656 C 0.87031 0.64905 0.26459 0.0
C657 C 0.92465 0.64093 0.07661 0.0
C658 C 0.90229 0.61136 0.10653 0.0
C659 C 0.8511 0.58583 0.22491 0.0
C660 C 0.8226 0.59012 0.3135 0.0
C661 C 0.87473 0.61517 0.19896 0.0
C662 C 0.81813 0.62375 0.37821 0.0
C663 C 0.84194 0.65293 0.35475 0.0
H664 H 0.30608 0.12195 0.8595 0.0
H665 H 0.33584 0.0602 0.51919 0.0
H666 H 0.38497 0.1038 0.47303 0.0
H667 H 0.4213 0.15789 0.53743 0.0
H668 H 0.38966 0.21992 0.87593 0.0
H669 H 0.33967 0.17779 0.91579 0.0
C670 C 0.32306 0.11848 0.77419 0.0
C671 C 0.31716 0.08853 0.69124 0.0
C672 C 0.35123 0.14336 0.74942 0.0
C673 C 0.33942 0.08373 0.58212 0.0
C674 C 0.36773 0.10839 0.5568 0.0
C675 C 0.40341 0.16223 0.61974 0.0
C676 C 0.41006 0.19142 0.70643 0.0
C677 C 0.37414 0.13811 0.64074 0.0
C678 C 0.38617 0.19696 0.81091 0.0
C679 C 0.35724 0.17307 0.83294 0.0
H680 H 0.85873 0.93942 0.78984 0.0
H681 H 0.79219 0.91373 0.12242 0.0
H682 H 0.83029 0.86044 0.16849 0.0
H683 H 0.88395 0.82225 0.11958 0.0
H684 H 0.94892 0.8463 0.78314 0.0
H685 H 0.90992 0.8989 0.73257 0.0
C686 C 0.85256 0.92233 0.87276 0.0
C687 C 0.82295 0.93118 0.95402 0.0
C688 C 0.87422 0.89125 0.89757 0.0
C689 C 0.81516 0.90814 0.05961 0.0
C690 C 0.83684 0.87749 0.08579 0.0
C691 C 0.88908 0.83877 0.03411 0.0
C692 C 0.91869 0.83012 0.95345 0.0
C693 C 0.86658 0.86895 0.00615 0.0
C694 C 0.92563 0.85186 0.84427 0.0
C695 C 0.90361 0.88221 0.81644 0.0
H696 H 0.12594 0.3311 0.06051 0.0
H697 H 0.05002 0.37025 0.34765 0.0
H698 H 0.09195 0.41942 0.40873 0.0
H699 H 0.15039 0.45025 0.38366 0.0
H700 H 0.22783 0.41088 0.1005 0.0
H701 H 0.18531 0.36263 0.03512 0.0
C702 C 0.11868 0.35071 0.1355 0.0
C703 C 0.0853 0.34722 0.20066 0.0
C704 C 0.14321 0.37858 0.17122 0.0
C705 C 0.07592 0.37238 0.29807 0.0
C706 C 0.09979 0.40045 0.33257 0.0
C707 C 0.1581 0.43118 0.30754 0.0
C708 C 0.19222 0.43436 0.24671 0.0
C709 C 0.13363 0.40358 0.27069 0.0
C710 C 0.20163 0.40929 0.14836 0.0
C711 C 0.17736 0.38161 0.11109 0.0
H712 H 0.58077 0.65812 0.64844 0.0
H713 H 0.61884 0.72549 0.3329 0.0
H714 H 0.66558 0.67922 0.28196 0.0
H715 H 0.69395 0.61843 0.32388 0.0
H716 H 0.65675 0.55402 0.64734 0.0
H717 H 0.61072 0.60052 0.69833 0.0
C718 C 0.59922 0.66305 0.56841 0.0
C719 C 0.5959 0.69519 0.49329 0.0
C720 C 0.62586 0.6367 0.54076 0.0
C721 C 0.62035 0.70077 0.39069 0.0
C722 C 0.64706 0.67438 0.36183 0.0
C723 C 0.67574 0.6149 0.40572 0.0
C724 C 0.67842 0.58314 0.48234 0.0
C725 C 0.64976 0.64206 0.43535 0.0
C726 C 0.65509 0.57847 0.58819 0.0
C727 C 0.62879 0.60493 0.61676 0.0
loop_
_geom_bond_atom_site_label_1
_geom_bond_atom_site_label_2
_geom_bond_distance
_geom_bond_site_symmetry_2
_ccdc_geom_bond_type
Co0 O2 2.143 . S
Co0 O8 2.074 . S
Co0 O11 2.093 . S
Co0 O24 2.097 . S
Co0 N41 2.151 . S
Co0 N49 2.214 . S
Co1 O2 2.160 . S
Co1 O7 2.058 . S
Co1 O17 2.057 . S
Co1 O32 2.037 . S
Co1 N36 2.145 . S
Co1 N57 2.257 . S
O2 Co0 2.143 . S
O2 Co1 2.160 . S
C3 O4 1.278 . S
C3 O11 1.224 . S
O4 C3 1.278 . S
C5 O6 1.245 . S
C5 O17 1.232 . S
O6 C5 1.245 . S
O7 Co1 2.058 . S
O7 C33 1.269 . S
O8 Co0 2.074 . S
O8 C33 1.257 . S
H9 C34 0.930 . S
H10 C40 0.930 . S
O11 Co0 2.093 . S
O11 C3 1.224 . S
H12 C44 0.929 . S
H13 C46 0.930 1_554 S
H14 C47 0.930 . S
H15 C45 0.929 . S
H16 C48 0.928 . S
O17 Co1 2.057 . S
O17 C5 1.232 . S
H18 C37 0.934 . S
H19 C38 0.929 . S
H20 C50 0.931 . S
H21 C42 0.929 . S
H22 C51 0.930 . S
H23 C43 0.931 . S
O24 Co0 2.097 . S
O24 C52 1.214 . S
H25 C53 0.929 . S
H26 C54 0.929 . S
H27 C55 0.930 . S
H28 C56 0.929 . S
H29 C58 0.930 . S
H30 C35 0.930 . S
H31 C39 0.930 . S
O32 Co1 2.037 . S
O32 C52 1.234 . S
C33 O7 1.269 . S
C33 O8 1.257 . S
C34 H9 0.930 . S
C34 C37 1.382 1_556 S
C34 C39 1.418 . S
C35 H30 0.930 . S
C35 C38 1.404 . S
C35 C39 1.353 . S
N36 Co1 2.145 . S
N36 C37 1.398 . S
N36 C38 1.334 1_554 S
C37 H18 0.934 . S
C37 C34 1.382 1_554 S
C37 N36 1.398 . S
C38 H19 0.929 . S
C38 C35 1.404 . S
C38 N36 1.334 1_556 S
C39 H31 0.930 . S
C39 C34 1.418 . S
C39 C35 1.353 . S
C40 H10 0.930 . S
C40 N41 1.330 . S
C40 C42 1.446 . S
N41 Co0 2.151 . S
N41 C40 1.330 . S
N41 C45 1.418 . S
C42 H21 0.929 . S
C42 C40 1.446 . S
C42 C43 1.332 . S
C43 H23 0.931 . S
C43 C42 1.332 . S
C43 C44 1.267 . S
C44 H12 0.929 . S
C44 C43 1.267 . S
C44 C45 1.251 . S
C45 H15 0.929 . S
C45 N41 1.418 . S
C45 C44 1.251 . S
C46 H13 0.930 1_556 S
C46 C48 1.406 . S
C46 C51 1.261 . S
C47 H14 0.930 . S
C47 N49 1.325 . S
C47 C50 1.357 . S
C48 H16 0.928 . S
C48 C46 1.406 . S
C48 N49 1.261 . S
N49 Co0 2.214 . S
N49 C47 1.325 . S
N49 C48 1.261 . S
C50 H20 0.931 . S
C50 C47 1.357 . S
C50 C51 1.312 . S
C51 H22 0.930 . S
C51 C46 1.261 . S
C51 C50 1.312 . S
C52 O24 1.214 . S
C52 O32 1.234 . S
C53 H25 0.929 . S
C53 C56 1.391 1_554 S
C53 C58 1.391 . S
C54 H26 0.929 . S
C54 C55 1.390 1_554 S
C54 N57 1.391 . S
C55 H27 0.930 . S
C55 C54 1.390 1_556 S
C55 C56 1.392 . S
C56 H28 0.929 . S
C56 C53 1.391 1_556 S
C56 C55 1.392 . S
N57 Co1 2.257 . S
N57 C54 1.391 . S
N57 C58 1.388 . S
C58 H29 0.930 . S
C58 C53 1.391 . S
C58 N57 1.388 . S
Co59 O61 2.143 . S
Co59 O67 2.074 . S
Co59 O70 2.093 . S
Co59 O83 2.097 . S
Co59 N100 2.151 . S
Co59 N108 2.214 . S
Co60 O61 2.160 . S
Co60 O66 2.058 . S
Co60 O76 2.057 . S
Co60 O91 2.037 . S
Co60 N95 2.145 . S
Co60 N116 2.257 . S
O61 Co59 2.143 . S
O61 Co60 2.160 . S
C62 O63 1.278 . S
C62 O70 1.224 . S
O63 C62 1.278 . S
C64 O65 1.245 . S
C64 O76 1.232 . S
O65 C64 1.245 . S
O66 Co60 2.058 . S
O66 C92 1.269 . S
O67 Co59 2.074 . S
O67 C92 1.257 . S
H68 C93 0.930 . S
H69 C99 0.930 . S
O70 Co59 2.093 . S
O70 C62 1.224 . S
H71 C103 0.929 . S
H72 C105 0.930 1_556 S
H73 C106 0.930 . S
H74 C104 0.929 . S
H75 C107 0.928 . S
O76 Co60 2.057 . S
O76 C64 1.232 . S
H77 C96 0.934 . S
H78 C97 0.929 . S
H79 C109 0.931 . S
H80 C101 0.929 . S
H81 C110 0.930 . S
H82 C102 0.931 . S
O83 Co59 2.097 . S
O83 C111 1.214 . S
H84 C112 0.929 . S
H85 C113 0.929 . S
H86 C114 0.930 . S
H87 C115 0.929 . S
H88 C117 0.930 . S
H89 C94 0.930 . S
H90 C98 0.930 . S
O91 Co60 2.037 . S
O91 C111 1.234 . S
C92 O66 1.269 . S
C92 O67 1.257 . S
C93 H68 0.930 . S
C93 C96 1.382 1_554 S
C93 C98 1.418 . S
C94 H89 0.930 . S
C94 C97 1.404 . S
C94 C98 1.353 . S
N95 Co60 2.145 . S
N95 C96 1.398 . S
N95 C97 1.334 1_556 S
C96 H77 0.934 . S
C96 C93 1.382 1_556 S
C96 N95 1.398 . S
C97 H78 0.929 . S
C97 C94 1.404 . S
C97 N95 1.334 1_554 S
C98 H90 0.930 . S
C98 C93 1.418 . S
C98 C94 1.353 . S
C99 H69 0.930 . S
C99 N100 1.330 . S
C99 C101 1.446 . S
N100 Co59 2.151 . S
N100 C99 1.330 . S
N100 C104 1.418 . S
C101 H80 0.929 . S
C101 C99 1.446 . S
C101 C102 1.332 . S
C102 H82 0.931 . S
C102 C101 1.332 . S
C102 C103 1.267 . S
C103 H71 0.929 . S
C103 C102 1.267 . S
C103 C104 1.251 . S
C104 H74 0.929 . S
C104 N100 1.418 . S
C104 C103 1.251 . S
C105 H72 0.930 1_554 S
C105 C107 1.406 . S
C105 C110 1.261 . S
C106 H73 0.930 . S
C106 N108 1.325 . S
C106 C109 1.357 . S
C107 H75 0.928 . S
C107 C105 1.406 . S
C107 N108 1.261 . S
N108 Co59 2.214 . S
N108 C106 1.325 . S
N108 C107 1.261 . S
C109 H79 0.931 . S
C109 C106 1.357 . S
C109 C110 1.312 . S
C110 H81 0.930 . S
C110 C105 1.261 . S
C110 C109 1.312 . S
C111 O83 1.214 . S
C111 O91 1.234 . S
C112 H84 0.929 . S
C112 C115 1.391 1_556 S
C112 C117 1.391 . S
C113 H85 0.929 . S
C113 C114 1.390 1_556 S
C113 N116 1.391 . S
C114 H86 0.930 . S
C114 C113 1.390 1_554 S
C114 C115 1.392 . S
C115 H87 0.929 . S
C115 C112 1.391 1_554 S
C115 C114 1.392 . S
N116 Co60 2.257 . S
N116 C113 1.391 . S
N116 C117 1.388 . S
C117 H88 0.930 . S
C117 C112 1.391 . S
C117 N116 1.388 . S
Co118 O120 2.143 1_545 S
Co118 O126 2.074 . S
Co118 O129 2.093 1_545 S
Co118 O142 2.097 . S
Co118 N159 2.151 1_545 S
Co118 N167 2.214 . S
Co119 O120 2.160 1_544 S
Co119 O125 2.058 1_554 S
Co119 O135 2.057 1_545 S
Co119 O150 2.037 . S
Co119 N154 2.145 . S
Co119 N175 2.257 1_545 S
O120 Co118 2.143 1_565 S
O120 Co119 2.160 1_566 S
C121 O122 1.278 . S
C121 O129 1.224 . S
O122 C121 1.278 . S
C123 O124 1.245 1_554 S
C123 O135 1.232 . S
O124 C123 1.245 1_556 S
O125 Co119 2.058 1_556 S
O125 C151 1.269 . S
O126 Co118 2.074 . S
O126 C151 1.257 . S
H127 C152 0.930 . S
H128 C158 0.930 . S
O129 Co118 2.093 1_565 S
O129 C121 1.224 . S
H130 C162 0.929 1_545 S
H131 C164 0.930 . S
H132 C165 0.930 . S
H133 C163 0.929 . S
H134 C166 0.928 . S
O135 Co119 2.057 1_565 S
O135 C123 1.232 . S
H136 C155 0.929 . S
H137 C156 0.929 1_565 S
H138 C168 0.931 . S
H139 C160 0.929 . S
H140 C169 0.930 . S
H141 C161 0.931 . S
O142 Co118 2.097 . S
O142 C170 1.214 . S
H143 C171 0.929 . S
H144 C172 0.929 1_545 S
H145 C173 0.930 . S
H146 C174 0.929 . S
H147 C176 0.930 . S
H148 C153 0.930 . S
H149 C157 0.930 . S
O150 Co119 2.037 . S
O150 C170 1.234 1_554 S
C151 O125 1.269 . S
C151 O126 1.257 . S
C152 H127 0.930 . S
C152 C155 1.388 . S
C152 C157 1.418 . S
C153 H148 0.930 . S
C153 C156 1.404 . S
C153 C157 1.353 . S
N154 Co119 2.145 . S
N154 C155 1.397 . S
N154 C156 1.334 . S
C155 H136 0.929 . S
C155 C152 1.388 . S
C155 N154 1.397 . S
C156 H137 0.929 1_545 S
C156 C153 1.404 . S
C156 N154 1.334 . S
C157 H149 0.930 . S
C157 C152 1.418 . S
C157 C153 1.353 . S
C158 H128 0.930 . S
C158 N159 1.330 . S
C158 C160 1.446 . S
N159 Co118 2.151 1_565 S
N159 C158 1.330 . S
N159 C163 1.418 1_565 S
C160 H139 0.929 . S
C160 C158 1.446 . S
C160 C161 1.332 . S
C161 H141 0.931 . S
C161 C160 1.332 . S
C161 C162 1.267 . S
C162 H130 0.929 1_565 S
C162 C161 1.267 . S
C162 C163 1.251 1_565 S
C163 H133 0.929 . S
C163 N159 1.418 1_545 S
C163 C162 1.251 1_545 S
C164 H131 0.930 . S
C164 C166 1.406 . S
C164 C169 1.261 . S
C165 H132 0.930 . S
C165 N167 1.325 . S
C165 C168 1.357 . S
C166 H134 0.928 . S
C166 C164 1.406 . S
C166 N167 1.261 . S
N167 Co118 2.214 . S
N167 C165 1.325 . S
N167 C166 1.261 . S
C168 H138 0.931 . S
C168 C165 1.357 . S
C168 C169 1.312 . S
C169 H140 0.930 . S
C169 C164 1.261 . S
C169 C168 1.312 . S
C170 O142 1.214 . S
C170 O150 1.234 1_556 S
C171 H143 0.929 . S
C171 C174 1.391 . S
C171 C176 1.391 . S
C172 H144 0.929 1_565 S
C172 C173 1.390 . S
C172 N175 1.391 . S
C173 H145 0.930 . S
C173 C172 1.390 . S
C173 C174 1.392 . S
C174 H146 0.929 . S
C174 C171 1.391 . S
C174 C173 1.392 . S
N175 Co119 2.257 1_565 S
N175 C172 1.391 . S
N175 C176 1.388 . S
C176 H147 0.930 . S
C176 C171 1.391 . S
C176 N175 1.388 . S
Co177 O179 2.143 1_655 S
Co177 O185 2.074 . S
Co177 O188 2.093 1_655 S
Co177 O201 2.097 . S
Co177 N218 2.151 1_655 S
Co177 N226 2.214 . S
Co178 O179 2.160 1_656 S
Co178 O184 2.058 1_556 S
Co178 O194 2.057 1_655 S
Co178 O209 2.037 . S
Co178 N213 2.145 . S
Co178 N234 2.257 1_655 S
O179 Co177 2.143 1_455 S
O179 Co178 2.160 1_454 S
C180 O181 1.278 . S
C180 O188 1.224 . S
O181 C180 1.278 . S
C182 O183 1.245 1_556 S
C182 O194 1.232 . S
O183 C182 1.245 1_554 S
O184 Co178 2.058 1_554 S
O184 C210 1.269 . S
O185 Co177 2.074 . S
O185 C210 1.257 . S
H186 C211 0.930 . S
H187 C217 0.930 . S
O188 Co177 2.093 1_455 S
O188 C180 1.224 . S
H189 C221 0.929 1_655 S
H190 C223 0.930 . S
H191 C224 0.930 . S
H192 C222 0.929 . S
H193 C225 0.928 . S
O194 Co178 2.057 1_455 S
O194 C182 1.232 . S
H195 C214 0.929 . S
H196 C215 0.929 1_455 S
H197 C227 0.931 . S
H198 C219 0.929 . S
H199 C228 0.930 . S
H200 C220 0.931 . S
O201 Co177 2.097 . S
O201 C229 1.214 . S
H202 C230 0.929 . S
H203 C231 0.929 1_655 S
H204 C232 0.930 . S
H205 C233 0.929 . S
H206 C235 0.930 . S
H207 C212 0.930 . S
H208 C216 0.930 . S
O209 Co178 2.037 . S
O209 C229 1.234 1_556 S
C210 O184 1.269 . S
C210 O185 1.257 . S
C211 H186 0.930 . S
C211 C214 1.388 . S
C211 C216 1.418 . S
C212 H207 0.930 . S
C212 C215 1.404 . S
C212 C216 1.353 . S
N213 Co178 2.145 . S
N213 C214 1.397 . S
N213 C215 1.334 . S
C214 H195 0.929 . S
C214 C211 1.388 . S
C214 N213 1.397 . S
C215 H196 0.929 1_655 S
C215 C212 1.404 . S
C215 N213 1.334 . S
C216 H208 0.930 . S
C216 C211 1.418 . S
C216 C212 1.353 . S
C217 H187 0.930 . S
C217 N218 1.330 . S
C217 C219 1.446 . S
N218 Co177 2.151 1_455 S
N218 C217 1.330 . S
N218 C222 1.418 1_455 S
C219 H198 0.929 . S
C219 C217 1.446 . S
C219 C220 1.332 . S
C220 H200 0.931 . S
C220 C219 1.332 . S
C220 C221 1.267 . S
C221 H189 0.929 1_455 S
C221 C220 1.267 . S
C221 C222 1.251 1_455 S
C222 H192 0.929 . S
C222 N218 1.418 1_655 S
C222 C221 1.251 1_655 S
C223 H190 0.930 . S
C223 C225 1.406 . S
C223 C228 1.261 . S
C224 H191 0.930 . S
C224 N226 1.325 . S
C224 C227 1.357 . S
C225 H193 0.928 . S
C225 C223 1.406 . S
C225 N226 1.261 . S
N226 Co177 2.214 . S
N226 C224 1.325 . S
N226 C225 1.261 . S
C227 H197 0.931 . S
C227 C224 1.357 . S
C227 C228 1.312 . S
C228 H199 0.930 . S
C228 C223 1.261 . S
C228 C227 1.312 . S
C229 O201 1.214 . S
C229 O209 1.234 1_554 S
C230 H202 0.929 . S
C230 C233 1.391 . S
C230 C235 1.391 . S
C231 H203 0.929 1_455 S
C231 C232 1.390 . S
C231 N234 1.391 . S
C232 H204 0.930 . S
C232 C231 1.390 . S
C232 C233 1.392 . S
C233 H205 0.929 . S
C233 C230 1.391 . S
C233 C232 1.392 . S
N234 Co178 2.257 1_455 S
N234 C231 1.391 . S
N234 C235 1.388 . S
C235 H206 0.930 . S
C235 C230 1.391 . S
C235 N234 1.388 . S
Co236 O238 2.143 1_564 S
Co236 O244 2.074 . S
Co236 O247 2.093 1_565 S
Co236 O260 2.097 1_554 S
Co236 N277 2.151 1_565 S
Co236 N285 2.214 . S
Co237 O238 2.160 1_565 S
Co237 O243 2.058 . S
Co237 O253 2.057 1_565 S
Co237 O268 2.037 . S
Co237 N272 2.145 . S
Co237 N293 2.257 1_565 S
O238 Co236 2.143 1_546 S
O238 Co237 2.160 1_545 S
C239 O240 1.278 1_554 S
C239 O247 1.224 . S
O240 C239 1.278 1_556 S
C241 O242 1.245 . S
C241 O253 1.232 . S
O242 C241 1.245 . S
O243 Co237 2.058 . S
O243 C269 1.269 . S
O244 Co236 2.074 . S
O244 C269 1.257 1_554 S
H245 C270 0.930 . S
H246 C276 0.930 . S
O247 Co236 2.093 1_545 S
O247 C239 1.224 . S
H248 C280 0.929 1_565 S
H249 C282 0.930 . S
H250 C283 0.930 . S
H251 C281 0.929 . S
H252 C284 0.928 . S
O253 Co237 2.057 1_545 S
O253 C241 1.232 . S
H254 C273 0.929 . S
H255 C274 0.929 1_545 S
H256 C286 0.931 . S
H257 C278 0.929 . S
H258 C287 0.930 . S
H259 C279 0.931 . S
O260 Co236 2.097 1_556 S
O260 C288 1.214 . S
H261 C289 0.929 . S
H262 C290 0.929 1_565 S
H263 C291 0.930 . S
H264 C292 0.929 . S
H265 C294 0.930 . S
H266 C271 0.930 . S
H267 C275 0.930 . S
O268 Co237 2.037 . S
O268 C288 1.234 . S
C269 O243 1.269 . S
C269 O244 1.257 1_556 S
C270 H245 0.930 . S
C270 C273 1.388 . S
C270 C275 1.418 . S
C271 H266 0.930 . S
C271 C274 1.404 . S
C271 C275 1.353 . S
N272 Co237 2.145 . S
N272 C273 1.397 . S
N272 C274 1.334 . S
C273 H254 0.929 . S
C273 C270 1.388 . S
C273 N272 1.397 . S
C274 H255 0.929 1_565 S
C274 C271 1.404 . S
C274 N272 1.334 . S
C275 H267 0.930 . S
C275 C270 1.418 . S
C275 C271 1.353 . S
C276 H246 0.930 . S
C276 N277 1.330 . S
C276 C278 1.446 . S
N277 Co236 2.151 1_545 S
N277 C276 1.330 . S
N277 C281 1.418 1_545 S
C278 H257 0.929 . S
C278 C276 1.446 . S
C278 C279 1.332 . S
C279 H259 0.931 . S
C279 C278 1.332 . S
C279 C280 1.267 . S
C280 H248 0.929 1_545 S
C280 C279 1.267 . S
C280 C281 1.251 1_545 S
C281 H251 0.929 . S
C281 N277 1.418 1_565 S
C281 C280 1.251 1_565 S
C282 H249 0.930 . S
C282 C284 1.406 . S
C282 C287 1.261 . S
C283 H250 0.930 . S
C283 N285 1.325 . S
C283 C286 1.357 . S
C284 H252 0.928 . S
C284 C282 1.406 . S
C284 N285 1.261 . S
N285 Co236 2.214 . S
N285 C283 1.325 . S
N285 C284 1.261 . S
C286 H256 0.931 . S
C286 C283 1.357 . S
C286 C287 1.312 . S
C287 H258 0.930 . S
C287 C282 1.261 . S
C287 C286 1.312 . S
C288 O260 1.214 . S
C288 O268 1.234 . S
C289 H261 0.929 . S
C289 C292 1.391 . S
C289 C294 1.391 . S
C290 H262 0.929 1_545 S
C290 C291 1.390 . S
C290 N293 1.391 . S
C291 H263 0.930 . S
C291 C290 1.390 . S
C291 C292 1.392 . S
C292 H264 0.929 . S
C292 C289 1.391 . S
C292 C291 1.392 . S
N293 Co237 2.257 1_545 S
N293 C290 1.391 . S
N293 C294 1.388 . S
C294 H265 0.930 . S
C294 C289 1.391 . S
C294 N293 1.388 . S
Co295 O297 2.143 1_456 S
Co295 O303 2.074 . S
Co295 O306 2.093 1_455 S
Co295 O319 2.097 1_556 S
Co295 N336 2.151 1_455 S
Co295 N344 2.214 . S
Co296 O297 2.160 1_455 S
Co296 O302 2.058 . S
Co296 O312 2.057 1_455 S
Co296 O327 2.037 . S
Co296 N331 2.145 . S
Co296 N352 2.257 1_455 S
O297 Co295 2.143 1_654 S
O297 Co296 2.160 1_655 S
C298 O299 1.278 1_556 S
C298 O306 1.224 . S
O299 C298 1.278 1_554 S
C300 O301 1.245 . S
C300 O312 1.232 . S
O301 C300 1.245 . S
O302 Co296 2.058 . S
O302 C328 1.269 . S
O303 Co295 2.074 . S
O303 C328 1.257 1_556 S
H304 C329 0.930 . S
H305 C335 0.930 . S
O306 Co295 2.093 1_655 S
O306 C298 1.224 . S
H307 C339 0.929 1_455 S
H308 C341 0.930 . S
H309 C342 0.930 . S
H310 C340 0.929 . S
H311 C343 0.928 . S
O312 Co296 2.057 1_655 S
O312 C300 1.232 . S
H313 C332 0.929 . S
H314 C333 0.929 1_655 S
H315 C345 0.931 . S
H316 C337 0.929 . S
H317 C346 0.930 . S
H318 C338 0.931 . S
O319 Co295 2.097 1_554 S
O319 C347 1.214 . S
H320 C348 0.929 . S
H321 C349 0.929 1_455 S
H322 C350 0.930 . S
H323 C351 0.929 . S
H324 C353 0.930 . S
H325 C330 0.930 . S
H326 C334 0.930 . S
O327 Co296 2.037 . S
O327 C347 1.234 . S
C328 O302 1.269 . S
C328 O303 1.257 1_554 S
C329 H304 0.930 . S
C329 C332 1.388 . S
C329 C334 1.418 . S
C330 H325 0.930 . S
C330 C333 1.404 . S
C330 C334 1.353 . S
N331 Co296 2.145 . S
N331 C332 1.397 . S
N331 C333 1.334 . S
C332 H313 0.929 . S
C332 C329 1.388 . S
C332 N331 1.397 . S
C333 H314 0.929 1_455 S
C333 C330 1.404 . S
C333 N331 1.334 . S
C334 H326 0.930 . S
C334 C329 1.418 . S
C334 C330 1.353 . S
C335 H305 0.930 . S
C335 N336 1.330 . S
C335 C337 1.446 . S
N336 Co295 2.151 1_655 S
N336 C335 1.330 . S
N336 C340 1.418 1_655 S
C337 H316 0.929 . S
C337 C335 1.446 . S
C337 C338 1.332 . S
C338 H318 0.931 . S
C338 C337 1.332 . S
C338 C339 1.267 . S
C339 H307 0.929 1_655 S
C339 C338 1.267 . S
C339 C340 1.251 1_655 S
C340 H310 0.929 . S
C340 N336 1.418 1_455 S
C340 C339 1.251 1_455 S
C341 H308 0.930 . S
C341 C343 1.406 . S
C341 C346 1.261 . S
C342 H309 0.930 . S
C342 N344 1.325 . S
C342 C345 1.357 . S
C343 H311 0.928 . S
C343 C341 1.406 . S
C343 N344 1.261 . S
N344 Co295 2.214 . S
N344 C342 1.325 . S
N344 C343 1.261 . S
C345 H315 0.931 . S
C345 C342 1.357 . S
C345 C346 1.312 . S
C346 H317 0.930 . S
C346 C341 1.261 . S
C346 C345 1.312 . S
C347 O319 1.214 . S
C347 O327 1.234 . S
C348 H320 0.929 . S
C348 C351 1.391 . S
C348 C353 1.391 . S
C349 H321 0.929 1_655 S
C349 C350 1.390 . S
C349 N352 1.391 . S
C350 H322 0.930 . S
C350 C349 1.390 . S
C350 C351 1.392 . S
C351 H323 0.929 . S
C351 C348 1.391 . S
C351 C350 1.392 . S
N352 Co296 2.257 1_655 S
N352 C349 1.391 . S
N352 C353 1.388 . S
C353 H324 0.930 . S
C353 C348 1.391 . S
C353 N352 1.388 . S
Co354 O356 2.143 . S
Co354 O362 2.074 . S
Co354 O365 2.093 . S
Co354 O378 2.097 . S
Co354 N395 2.151 . S
Co354 N403 2.214 . S
Co355 O356 2.160 . S
Co355 O361 2.058 . S
Co355 O371 2.057 . S
Co355 O386 2.037 . S
Co355 N390 2.145 . S
Co355 N411 2.257 . S
O356 Co354 2.143 . S
O356 Co355 2.160 . S
C357 O358 1.278 . S
C357 O365 1.224 . S
O358 C357 1.278 . S
C359 O360 1.245 . S
C359 O371 1.232 . S
O360 C359 1.245 . S
O361 Co355 2.058 . S
O361 C387 1.269 . S
O362 Co354 2.074 . S
O362 C387 1.257 . S
H363 C388 0.930 . S
H364 C394 0.930 . S
O365 Co354 2.093 . S
O365 C357 1.224 . S
H366 C398 0.929 . S
H367 C400 0.930 . S
H368 C401 0.930 . S
H369 C399 0.929 . S
H370 C402 0.928 . S
O371 Co355 2.057 . S
O371 C359 1.232 . S
H372 C391 0.929 . S
H373 C392 0.929 . S
H374 C404 0.931 . S
H375 C396 0.929 . S
H376 C405 0.930 . S
H377 C397 0.931 . S
O378 Co354 2.097 . S
O378 C406 1.214 . S
H379 C407 0.929 . S
H380 C408 0.929 . S
H381 C409 0.930 . S
H382 C410 0.929 . S
H383 C412 0.930 . S
H384 C389 0.930 1_554 S
H385 C393 0.930 1_554 S
O386 Co355 2.037 . S
O386 C406 1.234 . S
C387 O361 1.269 . S
C387 O362 1.257 . S
C388 H363 0.930 . S
C388 C391 1.388 . S
C388 C393 1.418 . S
C389 H384 0.930 1_556 S
C389 C392 1.404 . S
C389 C393 1.353 . S
N390 Co355 2.145 . S
N390 C391 1.397 . S
N390 C392 1.334 . S
C391 H372 0.929 . S
C391 C388 1.388 . S
C391 N390 1.397 . S
C392 H373 0.929 . S
C392 C389 1.404 . S
C392 N390 1.334 . S
C393 H385 0.930 1_556 S
C393 C388 1.418 . S
C393 C389 1.353 . S
C394 H364 0.930 . S
C394 N395 1.330 . S
C394 C396 1.446 1_554 S
N395 Co354 2.151 . S
N395 C394 1.330 . S
N395 C399 1.418 1_554 S
C396 H375 0.929 . S
C396 C394 1.446 1_556 S
C396 C397 1.332 . S
C397 H377 0.931 . S
C397 C396 1.332 . S
C397 C398 1.267 . S
C398 H366 0.929 . S
C398 C397 1.267 . S
C398 C399 1.251 . S
C399 H369 0.929 . S
C399 N395 1.418 1_556 S
C399 C398 1.251 . S
C400 H367 0.930 . S
C400 C402 1.406 . S
C400 C405 1.261 . S
C401 H368 0.930 . S
C401 N403 1.325 . S
C401 C404 1.357 1_554 S
C402 H370 0.928 . S
C402 C400 1.406 . S
C402 N403 1.261 1_556 S
N403 Co354 2.214 . S
N403 C401 1.325 . S
N403 C402 1.261 1_554 S
C404 H374 0.931 . S
C404 C401 1.357 1_556 S
C404 C405 1.312 . S
C405 H376 0.930 . S
C405 C400 1.261 . S
C405 C404 1.312 . S
C406 O378 1.214 . S
C406 O386 1.234 . S
C407 H379 0.929 . S
C407 C410 1.391 . S
C407 C412 1.391 . S
C408 H380 0.929 . S
C408 C409 1.390 . S
C408 N411 1.391 . S
C409 H381 0.930 . S
C409 C408 1.390 . S
C409 C410 1.392 . S
C410 H382 0.929 . S
C410 C407 1.391 . S
C410 C409 1.392 . S
N411 Co355 2.257 . S
N411 C408 1.391 . S
N411 C412 1.388 . S
C412 H383 0.930 . S
C412 C407 1.391 . S
C412 N411 1.388 . S
Co413 O415 2.143 . S
Co413 O421 2.074 . S
Co413 O424 2.093 . S
Co413 O437 2.097 . S
Co413 N454 2.151 . S
Co413 N462 2.214 . S
Co414 O415 2.160 . S
Co414 O420 2.058 . S
Co414 O430 2.057 . S
Co414 O445 2.037 . S
Co414 N449 2.145 . S
Co414 N470 2.257 . S
O415 Co413 2.143 . S
O415 Co414 2.160 . S
C416 O417 1.278 . S
C416 O424 1.224 . S
O417 C416 1.278 . S
C418 O419 1.245 . S
C418 O430 1.232 . S
O419 C418 1.245 . S
O420 Co414 2.058 . S
O420 C446 1.269 . S
O421 Co413 2.074 . S
O421 C446 1.257 . S
H422 C447 0.930 . S
H423 C453 0.930 . S
O424 Co413 2.093 . S
O424 C416 1.224 . S
H425 C457 0.929 . S
H426 C459 0.930 . S
H427 C460 0.930 . S
H428 C458 0.929 . S
H429 C461 0.928 . S
O430 Co414 2.057 . S
O430 C418 1.232 . S
H431 C450 0.929 . S
H432 C451 0.929 . S
H433 C463 0.931 . S
H434 C455 0.929 . S
H435 C464 0.930 . S
H436 C456 0.931 . S
O437 Co413 2.097 . S
O437 C465 1.214 . S
H438 C466 0.929 . S
H439 C467 0.929 . S
H440 C468 0.930 . S
H441 C469 0.929 . S
H442 C471 0.930 . S
H443 C448 0.930 1_556 S
H444 C452 0.930 1_556 S
O445 Co414 2.037 . S
O445 C465 1.234 . S
C446 O420 1.269 . S
C446 O421 1.257 . S
C447 H422 0.930 . S
C447 C450 1.388 . S
C447 C452 1.418 . S
C448 H443 0.930 1_554 S
C448 C451 1.404 . S
C448 C452 1.353 . S
N449 Co414 2.145 . S
N449 C450 1.397 . S
N449 C451 1.334 . S
C450 H431 0.929 . S
C450 C447 1.388 . S
C450 N449 1.397 . S
C451 H432 0.929 . S
C451 C448 1.404 . S
C451 N449 1.334 . S
C452 H444 0.930 1_554 S
C452 C447 1.418 . S
C452 C448 1.353 . S
C453 H423 0.930 . S
C453 N454 1.330 . S
C453 C455 1.446 1_556 S
N454 Co413 2.151 . S
N454 C453 1.330 . S
N454 C458 1.418 1_556 S
C455 H434 0.929 . S
C455 C453 1.446 1_554 S
C455 C456 1.332 . S
C456 H436 0.931 . S
C456 C455 1.332 . S
C456 C457 1.267 . S
C457 H425 0.929 . S
C457 C456 1.267 . S
C457 C458 1.251 . S
C458 H428 0.929 . S
C458 N454 1.418 1_554 S
C458 C457 1.251 . S
C459 H426 0.930 . S
C459 C461 1.406 . S
C459 C464 1.261 . S
C460 H427 0.930 . S
C460 N462 1.325 . S
C460 C463 1.357 1_556 S
C461 H429 0.928 . S
C461 C459 1.406 . S
C461 N462 1.261 1_554 S
N462 Co413 2.214 . S
N462 C460 1.325 . S
N462 C461 1.261 1_556 S
C463 H433 0.931 . S
C463 C460 1.357 1_554 S
C463 C464 1.312 . S
C464 H435 0.930 . S
C464 C459 1.261 . S
C464 C463 1.312 . S
C465 O437 1.214 . S
C465 O445 1.234 . S
C466 H438 0.929 . S
C466 C469 1.391 . S
C466 C471 1.391 . S
C467 H439 0.929 . S
C467 C468 1.390 . S
C467 N470 1.391 . S
C468 H440 0.930 . S
C468 C467 1.390 . S
C468 C469 1.392 . S
C469 H441 0.929 . S
C469 C466 1.391 . S
C469 C468 1.392 . S
N470 Co414 2.257 . S
N470 C467 1.391 . S
N470 C471 1.388 . S
C471 H442 0.930 . S
C471 C466 1.391 . S
C471 N470 1.388 . S
H472 C478 0.930 . S
H473 C481 0.930 . S
H474 C482 0.930 . S
H475 C483 0.930 . S
H476 C486 0.930 . S
H477 C487 0.930 . S
C478 H472 0.930 . S
C478 C479 1.355 . S
C478 C480 1.415 . S
C479 C478 1.355 . S
C479 C481 1.419 1_556 S
C480 C478 1.415 . S
C480 C485 1.425 1_556 S
C480 C487 1.409 . S
C481 H473 0.930 . S
C481 C479 1.419 1_554 S
C481 C482 1.362 . S
C482 H474 0.930 . S
C482 C481 1.362 . S
C482 C485 1.409 . S
C483 H475 0.930 . S
C483 C484 1.355 . S
C483 C485 1.415 . S
C484 C483 1.355 . S
C484 C486 1.419 1_554 S
C485 C480 1.425 1_554 S
C485 C482 1.409 . S
C485 C483 1.415 . S
C486 H476 0.930 . S
C486 C484 1.419 1_556 S
C486 C487 1.362 . S
C487 H477 0.930 . S
C487 C480 1.409 . S
C487 C486 1.362 . S
H488 C494 0.930 . S
H489 C497 0.930 . S
H490 C498 0.930 . S
H491 C499 0.930 . S
H492 C502 0.930 . S
H493 C503 0.930 . S
C494 H488 0.930 . S
C494 C495 1.355 . S
C494 C496 1.415 . S
C495 C494 1.355 . S
C495 C497 1.419 . S
C496 C494 1.415 . S
C496 C501 1.425 . S
C496 C503 1.409 . S
C497 H489 0.930 . S
C497 C495 1.419 . S
C497 C498 1.362 . S
C498 H490 0.930 . S
C498 C497 1.362 . S
C498 C501 1.409 . S
C499 H491 0.930 . S
C499 C500 1.355 . S
C499 C501 1.415 . S
C500 C499 1.355 . S
C500 C502 1.419 . S
C501 C496 1.425 . S
C501 C498 1.409 . S
C501 C499 1.415 . S
C502 H492 0.930 . S
C502 C500 1.419 . S
C502 C503 1.362 . S
C503 H493 0.930 . S
C503 C496 1.409 . S
C503 C502 1.362 . S
H504 C510 0.930 . S
H505 C513 0.930 . S
H506 C514 0.930 . S
H507 C515 0.930 . S
H508 C518 0.930 . S
H509 C519 0.930 . S
C510 H504 0.930 . S
C510 C511 1.355 . S
C510 C512 1.415 . S
C511 C510 1.355 . S
C511 C513 1.419 . S
C512 C510 1.415 . S
C512 C517 1.425 . S
C512 C519 1.409 . S
C513 H505 0.930 . S
C513 C511 1.419 . S
C513 C514 1.362 . S
C514 H506 0.930 . S
C514 C513 1.362 . S
C514 C517 1.409 . S
C515 H507 0.930 . S
C515 C516 1.355 . S
C515 C517 1.415 . S
C516 C515 1.355 . S
C516 C518 1.419 . S
C517 C512 1.425 . S
C517 C514 1.409 . S
C517 C515 1.415 . S
C518 H508 0.930 . S
C518 C516 1.419 . S
C518 C519 1.362 . S
C519 H509 0.930 . S
C519 C512 1.409 . S
C519 C518 1.362 . S
H520 C526 0.930 . S
H521 C529 0.930 1_554 S
H522 C530 0.930 . S
H523 C531 0.930 . S
H524 C534 0.930 . S
H525 C535 0.930 . S
C526 H520 0.930 . S
C526 C527 1.355 . S
C526 C528 1.415 . S
C527 C526 1.355 . S
C527 C529 1.419 . S
C528 C526 1.415 . S
C528 C533 1.425 . S
C528 C535 1.409 . S
C529 H521 0.930 1_556 S
C529 C527 1.419 . S
C529 C530 1.362 . S
C530 H522 0.930 . S
C530 C529 1.362 . S
C530 C533 1.409 . S
C531 H523 0.930 . S
C531 C532 1.355 . S
C531 C533 1.415 . S
C532 C531 1.355 . S
C532 C534 1.419 . S
C533 C528 1.425 . S
C533 C530 1.409 . S
C533 C531 1.415 . S
C534 H524 0.930 . S
C534 C532 1.419 . S
C534 C535 1.362 . S
C535 H525 0.930 . S
C535 C528 1.409 . S
C535 C534 1.362 . S
H536 C542 0.930 . S
H537 C545 0.930 . S
H538 C546 0.930 . S
H539 C547 0.930 . S
H540 C550 0.930 . S
H541 C551 0.930 . S
C542 H536 0.930 . S
C542 C543 1.355 . S
C542 C544 1.415 . S
C543 C542 1.355 . S
C543 C545 1.419 . S
C544 C542 1.415 . S
C544 C549 1.425 . S
C544 C551 1.409 . S
C545 H537 0.930 . S
C545 C543 1.419 . S
C545 C546 1.362 . S
C546 H538 0.930 . S
C546 C545 1.362 . S
C546 C549 1.409 . S
C547 H539 0.930 . S
C547 C548 1.355 . S
C547 C549 1.415 . S
C548 C547 1.355 . S
C548 C550 1.419 . S
C549 C544 1.425 . S
C549 C546 1.409 . S
C549 C547 1.415 . S
C550 H540 0.930 . S
C550 C548 1.419 . S
C550 C551 1.362 . S
C551 H541 0.930 . S
C551 C544 1.409 . S
C551 C550 1.362 . S
H552 C558 0.930 . S
H553 C561 0.930 . S
H554 C562 0.930 . S
H555 C563 0.930 . S
H556 C566 0.930 . S
H557 C567 0.930 . S
C558 H552 0.930 . S
C558 C559 1.355 . S
C558 C560 1.415 . S
C559 C558 1.355 . S
C559 C561 1.419 . S
C560 C558 1.415 . S
C560 C565 1.425 . S
C560 C567 1.409 . S
C561 H553 0.930 . S
C561 C559 1.419 . S
C561 C562 1.362 . S
C562 H554 0.930 . S
C562 C561 1.362 . S
C562 C565 1.409 . S
C563 H555 0.930 . S
C563 C564 1.355 . S
C563 C565 1.415 . S
C564 C563 1.355 . S
C564 C566 1.419 . S
C565 C560 1.425 . S
C565 C562 1.409 . S
C565 C563 1.415 . S
C566 H556 0.930 . S
C566 C564 1.419 . S
C566 C567 1.362 . S
C567 H557 0.930 . S
C567 C560 1.409 . S
C567 C566 1.362 . S
H568 C574 0.930 . S
H569 C577 0.930 . S
H570 C578 0.930 . S
H571 C579 0.930 . S
H572 C582 0.930 . S
H573 C583 0.930 . S
C574 H568 0.930 . S
C574 C575 1.355 . S
C574 C576 1.415 . S
C575 C574 1.355 . S
C575 C577 1.419 . S
C576 C574 1.415 . S
C576 C581 1.425 1_554 S
C576 C583 1.409 1_554 S
C577 H569 0.930 . S
C577 C575 1.419 . S
C577 C578 1.362 . S
C578 H570 0.930 . S
C578 C577 1.362 . S
C578 C581 1.409 1_554 S
C579 H571 0.930 . S
C579 C580 1.355 . S
C579 C581 1.415 . S
C580 C579 1.355 . S
C580 C582 1.419 . S
C581 C576 1.425 1_556 S
C581 C578 1.409 1_556 S
C581 C579 1.415 . S
C582 H572 0.930 . S
C582 C580 1.419 . S
C582 C583 1.362 . S
C583 H573 0.930 . S
C583 C576 1.409 1_556 S
C583 C582 1.362 . S
H584 C590 0.930 . S
H585 C593 0.930 . S
H586 C594 0.930 . S
H587 C595 0.930 . S
H588 C598 0.930 . S
H589 C599 0.930 . S
C590 H584 0.930 . S
C590 C591 1.355 . S
C590 C592 1.415 . S
C591 C590 1.355 . S
C591 C593 1.419 . S
C592 C590 1.415 . S
C592 C597 1.425 . S
C592 C599 1.409 . S
C593 H585 0.930 . S
C593 C591 1.419 . S
C593 C594 1.362 . S
C594 H586 0.930 . S
C594 C593 1.362 . S
C594 C597 1.409 . S
C595 H587 0.930 . S
C595 C596 1.355 . S
C595 C597 1.415 . S
C596 C595 1.355 . S
C596 C598 1.419 . S
C597 C592 1.425 . S
C597 C594 1.409 . S
C597 C595 1.415 . S
C598 H588 0.930 . S
C598 C596 1.419 . S
C598 C599 1.362 . S
C599 H589 0.930 . S
C599 C592 1.409 . S
C599 C598 1.362 . S
H600 C606 0.930 . S
H601 C609 0.930 . S
H602 C610 0.930 . S
H603 C611 0.930 . S
H604 C614 0.930 . S
H605 C615 0.930 . S
C606 H600 0.930 . S
C606 C607 1.355 . S
C606 C608 1.415 . S
C607 C606 1.355 . S
C607 C609 1.419 . S
C608 C606 1.415 . S
C608 C613 1.425 . S
C608 C615 1.409 . S
C609 H601 0.930 . S
C609 C607 1.419 . S
C609 C610 1.362 . S
C610 H602 0.930 . S
C610 C609 1.362 . S
C610 C613 1.409 . S
C611 H603 0.930 . S
C611 C612 1.355 . S
C611 C613 1.415 . S
C612 C611 1.355 . S
C612 C614 1.419 . S
C613 C608 1.425 . S
C613 C610 1.409 . S
C613 C611 1.415 . S
C614 H604 0.930 . S
C614 C612 1.419 . S
C614 C615 1.362 . S
C615 H605 0.930 . S
C615 C608 1.409 . S
C615 C614 1.362 . S
H616 C622 0.930 . S
H617 C625 0.930 1_554 S
H618 C626 0.930 1_554 S
H619 C627 0.930 . S
H620 C630 0.930 . S
H621 C631 0.930 . S
C622 H616 0.930 . S
C622 C623 1.355 . S
C622 C624 1.415 . S
C623 C622 1.355 . S
C623 C625 1.419 . S
C624 C622 1.415 . S
C624 C629 1.425 . S
C624 C631 1.409 . S
C625 H617 0.930 1_556 S
C625 C623 1.419 . S
C625 C626 1.362 . S
C626 H618 0.930 1_556 S
C626 C625 1.362 . S
C626 C629 1.409 . S
C627 H619 0.930 . S
C627 C628 1.355 . S
C627 C629 1.415 . S
C628 C627 1.355 . S
C628 C630 1.419 . S
C629 C624 1.425 . S
C629 C626 1.409 . S
C629 C627 1.415 . S
C630 H620 0.930 . S
C630 C628 1.419 . S
C630 C631 1.362 . S
C631 H621 0.930 . S
C631 C624 1.409 . S
C631 C630 1.362 . S
H632 C638 0.930 . S
H633 C641 0.930 . S
H634 C642 0.930 . S
H635 C643 0.930 . S
H636 C646 0.930 . S
H637 C647 0.930 . S
C638 H632 0.930 . S
C638 C639 1.355 1_556 S
C638 C640 1.415 . S
C639 C638 1.355 1_554 S
C639 C641 1.419 . S
C640 C638 1.415 . S
C640 C645 1.425 1_556 S
C640 C647 1.409 . S
C641 H633 0.930 . S
C641 C639 1.419 . S
C641 C642 1.362 . S
C642 H634 0.930 . S
C642 C641 1.362 . S
C642 C645 1.409 . S
C643 H635 0.930 . S
C643 C644 1.355 1_554 S
C643 C645 1.415 . S
C644 C643 1.355 1_556 S
C644 C646 1.419 . S
C645 C640 1.425 1_554 S
C645 C642 1.409 . S
C645 C643 1.415 . S
C646 H636 0.930 . S
C646 C644 1.419 . S
C646 C647 1.362 . S
C647 H637 0.930 . S
C647 C640 1.409 . S
C647 C646 1.362 . S
H648 C654 0.930 . S
H649 C657 0.930 1_556 S
H650 C658 0.937 . S
H651 C659 0.930 . S
H652 C662 0.930 . S
H653 C663 0.930 . S
C654 H648 0.930 . S
C654 C655 1.355 . S
C654 C656 1.415 . S
C655 C654 1.355 . S
C655 C657 1.419 . S
C656 C654 1.415 . S
C656 C661 1.425 . S
C656 C663 1.409 . S
C657 H649 0.930 1_554 S
C657 C655 1.419 . S
C657 C658 1.362 . S
C658 H650 0.937 . S
C658 C657 1.362 . S
C658 C661 1.409 . S
C659 H651 0.930 . S
C659 C660 1.355 . S
C659 C661 1.415 . S
C660 C659 1.355 . S
C660 C662 1.419 . S
C661 C656 1.425 . S
C661 C658 1.409 . S
C661 C659 1.415 . S
C662 H652 0.930 . S
C662 C660 1.419 . S
C662 C663 1.362 . S
C663 H653 0.930 . S
C663 C656 1.409 . S
C663 C662 1.362 . S
H664 C670 0.930 . S
H665 C673 0.930 . S
H666 C674 0.930 . S
H667 C675 0.930 . S
H668 C678 0.930 . S
H669 C679 0.930 . S
C670 H664 0.930 . S
C670 C671 1.355 . S
C670 C672 1.415 . S
C671 C670 1.355 . S
C671 C673 1.419 . S
C672 C670 1.415 . S
C672 C677 1.425 . S
C672 C679 1.409 . S
C673 H665 0.930 . S
C673 C671 1.419 . S
C673 C674 1.362 . S
C674 H666 0.930 . S
C674 C673 1.362 . S
C674 C677 1.409 . S
C675 H667 0.930 . S
C675 C676 1.355 . S
C675 C677 1.415 . S
C676 C675 1.355 . S
C676 C678 1.419 . S
C677 C672 1.425 . S
C677 C674 1.409 . S
C677 C675 1.415 . S
C678 H668 0.930 . S
C678 C676 1.419 . S
C678 C679 1.362 . S
C679 H669 0.930 . S
C679 C672 1.409 . S
C679 C678 1.362 . S
H680 C686 0.930 . S
H681 C689 0.930 . S
H682 C690 0.930 . S
H683 C691 0.930 . S
H684 C694 0.930 . S
H685 C695 0.930 . S
C686 H680 0.930 . S
C686 C687 1.355 . S
C686 C688 1.415 . S
C687 C686 1.355 . S
C687 C689 1.419 1_556 S
C688 C686 1.415 . S
C688 C693 1.425 1_556 S
C688 C695 1.409 . S
C689 H681 0.930 . S
C689 C687 1.419 1_554 S
C689 C690 1.362 . S
C690 H682 0.930 . S
C690 C689 1.362 . S
C690 C693 1.409 . S
C691 H683 0.930 . S
C691 C692 1.355 . S
C691 C693 1.415 . S
C692 C691 1.355 . S
C692 C694 1.419 1_554 S
C693 C688 1.425 1_554 S
C693 C690 1.409 . S
C693 C691 1.415 . S
C694 H684 0.930 . S
C694 C692 1.419 1_556 S
C694 C695 1.362 . S
C695 H685 0.930 . S
C695 C688 1.409 . S
C695 C694 1.362 . S
H696 C702 0.930 . S
H697 C705 0.930 . S
H698 C706 0.930 . S
H699 C707 0.930 . S
H700 C710 0.930 . S
H701 C711 0.930 . S
C702 H696 0.930 . S
C702 C703 1.355 . S
C702 C704 1.415 . S
C703 C702 1.355 . S
C703 C705 1.419 . S
C704 C702 1.415 . S
C704 C709 1.425 . S
C704 C711 1.409 . S
C705 H697 0.930 . S
C705 C703 1.419 . S
C705 C706 1.362 . S
C706 H698 0.930 . S
C706 C705 1.362 . S
C706 C709 1.409 . S
C707 H699 0.930 . S
C707 C708 1.355 . S
C707 C709 1.415 . S
C708 C707 1.355 . S
C708 C710 1.419 . S
C709 C704 1.425 . S
C709 C706 1.409 . S
C709 C707 1.415 . S
C710 H700 0.930 . S
C710 C708 1.419 . S
C710 C711 1.362 . S
C711 H701 0.930 . S
C711 C704 1.409 . S
C711 C710 1.362 . S
H712 C718 0.930 . S
H713 C721 0.930 . S
H714 C722 0.930 . S
H715 C723 0.930 . S
H716 C726 0.930 . S
H717 C727 0.930 . S
C718 H712 0.930 . S
C718 C719 1.355 . S
C718 C720 1.415 . S
C719 C718 1.355 . S
C719 C721 1.419 . S
C720 C718 1.415 . S
C720 C725 1.425 . S
C720 C727 1.409 . S
C721 H713 0.930 . S
C721 C719 1.419 . S
C721 C722 1.362 . S
C722 H714 0.930 . S
C722 C721 1.362 . S
C722 C725 1.409 . S
C723 H715 0.930 . S
C723 C724 1.355 . S
C723 C725 1.415 . S
C724 C723 1.355 . S
C724 C726 1.419 . S
C725 C720 1.425 . S
C725 C722 1.409 . S
C725 C723 1.415 . S
C726 H716 0.930 . S
C726 C724 1.419 . S
C726 C727 1.362 . S
C727 H717 0.930 . S
C727 C720 1.409 . S
C727 C726 1.362 . S
C479 C64 1.501 . S
C484 C5 1.498 . S
C495 C62 1.505 . S
C500 C123 1.496 . S
C511 C180 1.499 . S
C516 C121 1.489 . S
C527 C182 1.496 . S
C532 C3 1.501 . S
C543 C241 1.505 . S
C548 C300 1.493 . S
C559 C298 1.474 . S
C564 C359 1.507 . S
C575 C357 1.509 . S
C580 C416 1.478 . S
C591 C239 1.507 . S
C596 C418 1.494 . S
C607 C33 1.507 . S
C612 C465 1.512 . S
C623 C288 1.502 . S
C628 C111 1.503 . S
C639 C328 1.507 . S
C644 C170 1.503 . S
C655 C210 1.511 . S
C660 C387 1.512 . S
C671 C151 1.514 . S
C676 C446 1.515 . S
C687 C269 1.510 . S
C692 C229 1.500 . S
C703 C347 1.495 . S
C708 C52 1.509 . S
C719 C92 1.511 . S
C724 C406 1.502 . S
