# Generated by pormake.
# Topology sxb, (6)-cn, num edge types: 1
# Building blocks:
#     Node 0, Type 0, BuildingBlock: PAMTOO_clean_sbu_0, # of connection points: 6
#     Node 1, Type 0, BuildingBlock: PAMTOO_clean_sbu_0, # of connection points: 6
#     Node 2, Type 0, BuildingBlock: PAMTOO_clean_sbu_0, # of connection points: 6
#     Node 3, Type 0, BuildingBlock: PAMTOO_clean_sbu_0, # of connection points: 6
#     Edge 4, Type (0, 0), BuildingBlock: TEMPAE_clean_linker_10, # of connection points: 2
#     Edge 5, Type (0, 0), BuildingBlock: TEMPAE_clean_linker_10, # of connection points: 2
#     Edge 6, Type (0, 0), BuildingBlock: TEMPAE_clean_linker_10, # of connection points: 2
#     Edge 7, Type (0, 0), BuildingBlock: TEMPAE_clean_linker_10, # of connection points: 2
#     Edge 8, Type (0, 0), BuildingBlock: TEMPAE_clean_linker_10, # of connection points: 2
#     Edge 9, Type (0, 0), BuildingBlock: TEMPAE_clean_linker_10, # of connection points: 2
#     Edge 10, Type (0, 0), BuildingBlock: TEMPAE_clean_linker_10, # of connection points: 2
#     Edge 11, Type (0, 0), BuildingBlock: TEMPAE_clean_linker_10, # of connection points: 2
#     Edge 12, Type (0, 0), BuildingBlock: TEMPAE_clean_linker_10, # of connection points: 2
#     Edge 13, Type (0, 0), BuildingBlock: TEMPAE_clean_linker_10, # of connection points: 2
#     Edge 14, Type (0, 0), BuildingBlock: TEMPAE_clean_linker_10, # of connection points: 2
#     Edge 15, Type (0, 0), BuildingBlock: TEMPAE_clean_linker_10, # of connection points: 2
# Relax obj value: 0.438
# Max RMSD: 0.092
# Mean RMSD: 0.089
data_MOF--net-sxb--node1-PAMTOO_clean_sbu_0--edge1-TEMPAE_clean_linker_10
_symmetry_space_group_name_H-M    P1
_symmetry_Int_Tables_number       1
_symmetry_cell_setting            triclinic
loop_
_symmetry_equiv_pos_as_xyz
'x, y, z'
_cell_length_a     16.343615
_cell_length_b     34.672496
_cell_length_c     31.056967
_cell_angle_alpha  92.755882
_cell_angle_beta   99.754203
_cell_angle_gamma 66.434866
loop_
_atom_site_label
_atom_site_type_symbol
_atom_site_fract_x
_atom_site_fract_y
_atom_site_fract_z
_atom_type_partial_charge
Dy0 Dy 0.16079 0.11681 0.02001 0.0
Dy1 Dy 0.96963 0.11414 0.98215 0.0
C2 C 0.10164 0.1113 0.91737 0.0
O3 O 1.06964 0.18604 0.00602 0.0
O4 O 0.93068 0.18236 6e-05 0.0
O5 O 0.27599 0.13036 0.0129 0.0
O6 O 0.27512 0.09996 0.07218 0.0
O7 O 0.98394 0.1063 0.05546 0.0
O8 O 0.08543 0.13651 0.07605 0.0
O9 O 1.07389 1.04867 0.97259 0.0
O10 O 0.17733 1.04989 0.03048 0.0
O11 O 0.84401 0.13884 0.93676 0.0
O12 O 0.87608 1.08382 0.97709 0.0
C13 C 0.98048 0.20471 0.00299 0.0
O14 O 0.16873 0.09653 0.9501 0.0
O15 O 1.01873 0.12936 0.92515 0.0
C16 C 0.40723 1.07206 0.04032 0.0
C17 C 0.54785 1.00532 0.00793 0.0
C18 C 0.48297 0.99735 0.02608 0.0
C19 C 0.41311 1.03045 0.04201 0.0
C20 C 0.47442 1.07972 0.02448 0.0
C21 C 0.54363 1.04685 0.00826 0.0
C22 C 0.32442 0.10788 0.04783 0.0
C23 C 1.02833 0.12179 0.08596 0.0
C24 C 0.14578 1.02828 0.00155 0.0
C25 C 0.81163 1.08327 0.90367 0.0
C26 C 0.78654 1.02716 0.83901 0.0
C27 C 0.71176 1.06147 0.85167 0.0
C28 C 0.72447 0.08867 0.88414 0.0
C29 C 0.88609 1.05377 0.88674 0.0
C30 C 0.87369 1.02614 0.85442 0.0
C31 C 0.82489 0.10674 0.94296 0.0
H32 H 0.4843 0.9659 0.02666 0.0
H33 H 0.36154 1.02364 0.05379 0.0
H34 H 0.47037 0.11155 0.02219 0.0
H35 H 0.59062 1.05471 -0.00647 0.0
H36 H 0.64266 1.06525 0.8404 0.0
H37 H 0.66613 0.11223 0.89583 0.0
H38 H 0.9542 1.05037 0.90036 0.0
H39 H 0.93311 1.00183 0.8445 0.0
Dy40 Dy 1.06813 0.13515 0.50685 0.0
Dy41 Dy 0.15219 1.03549 0.50209 0.0
C42 C 1.0636 0.0932 0.41363 0.0
O43 O 0.95039 0.11757 0.51608 0.0
O44 O 0.99891 1.05162 0.48793 0.0
O45 O 1.04245 0.19729 0.48367 0.0
O46 O 0.9951 0.18968 0.54239 0.0
O47 O 0.13756 1.04906 0.57257 0.0
O48 O 0.14853 0.11219 0.57316 0.0
O49 O 0.27816 1.05103 0.51875 0.0
O50 O 0.21254 0.11896 0.49318 0.0
O51 O 0.17109 0.97407 0.52469 0.0
O52 O 0.23816 0.97943 0.47256 0.0
C53 C 0.93344 1.0844 0.5019 0.0
O54 O 1.01989 0.125 0.437 0.0
O55 O 0.12628 1.05849 0.43266 0.0
C56 C 1.05838 0.23922 0.5431 0.0
C57 C 0.15492 0.28458 0.58764 0.0
C58 C 0.19935 0.24141 0.58013 0.0
C59 C 0.15144 0.21895 0.55828 0.0
C60 C 1.01268 0.28182 0.55172 0.0
C61 C 1.06063 0.3044 0.57396 0.0
C62 C 1.01052 0.2152 0.51861 0.0
C63 C 0.14938 1.08028 0.59435 0.0
C64 C 0.28692 1.08491 0.50588 0.0
C65 C 0.17425 0.92945 0.46599 0.0
C66 C 1.07214 0.88539 0.42445 0.0
C67 C 0.15384 0.86413 0.45303 0.0
C68 C 0.20431 0.88616 0.47391 0.0
C69 C 0.09696 0.94997 0.43499 0.0
C70 C 1.04633 0.9282 0.41444 0.0
C71 C 0.2151 0.9547 0.49348 0.0
H72 H 0.27195 0.22522 0.58935 0.0
H73 H 0.18758 0.18587 0.55226 0.0
H74 H 0.9405 0.2977 0.54071 0.0
H75 H 1.02429 0.33751 0.57966 0.0
H76 H 0.17615 0.83103 0.46097 0.0
H77 H 0.26396 0.86991 0.49778 0.0
H78 H 1.07261 0.98351 0.42863 0.0
H79 H 0.98331 0.94584 0.39326 0.0
Dy80 Dy 0.65731 0.61916 0.0041 0.0
Dy81 Dy 0.46659 0.61116 -0.00749 0.0
C82 C 0.55013 0.61848 0.91103 0.0
O83 O 0.56633 0.68699 0.01308 0.0
O84 O 0.42861 0.68194 -0.00889 0.0
O85 O 0.75166 0.64019 0.98198 0.0
O86 O 0.79866 0.59293 0.03353 0.0
O87 O 0.48092 0.63146 0.061 0.0
O88 O 0.63351 0.61674 0.07287 0.0
O89 O 0.57064 0.54651 0.01574 0.0
O90 O 0.67869 0.55254 -0.01642 0.0
O91 O 0.3338 0.62832 0.95407 0.0
O92 O 0.37891 0.58225 0.00701 0.0
C93 C 0.47711 0.70477 0.00251 0.0
O94 O 0.59042 0.63914 0.93589 0.0
O95 O 0.51673 0.59578 0.92866 0.0
C96 C 0.87595 0.57743 0.97423 0.0
C97 C 0.97543 0.50598 0.92847 0.0
C98 C 0.88041 0.52485 0.91885 0.0
C99 C 0.83184 0.56049 0.94077 0.0
C100 C 0.97037 0.55992 -0.01659 0.0
C101 C 1.01973 0.52514 0.96011 0.0
C102 C 0.82091 0.60897 0.00251 0.0
C103 C 0.55644 0.62648 0.08728 0.0
C104 C 0.64701 0.52849 0.0005 0.0
C105 C 0.30842 0.56604 0.9397 0.0
C106 C 0.29879 0.50327 0.88019 0.0
C107 C 0.31597 0.49521 0.92545 0.0
C108 C 0.32034 0.52632 0.9549 0.0
C109 C 0.29177 0.57395 0.8943 0.0
C110 C 0.28688 0.5429 0.86489 0.0
C111 C 0.32232 0.5974 0.97088 0.0
H112 H 0.84206 0.51193 0.89533 0.0
H113 H 0.75884 0.57391 0.93255 0.0
H114 H 1.0058 0.57256 0.00902 0.0
H115 H 0.09276 0.51328 0.96741 0.0
H116 H 0.32275 0.46532 0.93812 0.0
H117 H 0.33346 0.51917 -0.0104 0.0
H118 H 0.28298 0.60405 0.88134 0.0
H119 H 0.27271 0.55003 0.83016 0.0
Dy120 Dy 0.47142 0.68678 0.49566 0.0
Dy121 Dy 0.56147 0.58609 0.49876 0.0
C122 C 0.51973 0.63542 0.40881 0.0
O123 O 0.34869 0.66879 0.4813 0.0
O124 O 0.41562 0.60205 0.51027 0.0
O125 O 0.37033 0.74374 0.46354 0.0
O126 O 0.46232 0.7472 0.52129 0.0
O127 O 0.58146 0.60648 0.56728 0.0
O128 O 0.46176 0.6698 0.56239 0.0
O129 O 0.67745 0.60284 0.48547 0.0
O130 O 0.62565 0.6703 0.51003 0.0
O131 O 0.66804 0.52894 0.52817 0.0
O132 O 0.56284 0.52573 0.47739 0.0
C133 C 0.34087 0.63527 0.49572 0.0
O134 O 0.51608 0.66883 0.43118 0.0
O135 O 0.52059 0.60217 0.42753 0.0
C136 C 0.43355 0.79411 0.46301 0.0
C137 C 0.53257 0.82834 0.42308 0.0
C138 C 0.49027 0.80423 0.39879 0.0
C139 C 0.44145 0.78714 0.41858 0.0
C140 C 0.46793 0.82163 0.48598 0.0
C141 C 0.51729 0.83851 0.46627 0.0
C142 C 0.40464 0.7675 0.48718 0.0
C143 C 0.5224 0.6374 0.58565 0.0
C144 C 0.69273 0.63683 0.49784 0.0
C145 C 0.61105 0.4782 0.53637 0.0
C146 C 0.56033 0.42663 0.58386 0.0
C147 C 0.51391 0.47067 0.58336 0.0
C148 C 0.53944 0.49618 0.56006 0.0
C149 C 0.66107 0.43465 0.53864 0.0
C150 C 0.63628 0.409 0.56249 0.0
C151 C 0.62987 0.50511 0.50799 0.0
H152 H 0.49922 0.79656 0.36521 0.0
H153 H 0.41511 0.76628 0.39974 0.0
H154 H 0.46247 0.82755 0.52018 0.0
H155 H 0.54933 0.85679 0.48608 0.0
H156 H 0.45444 0.48547 0.59878 0.0
H157 H 0.50082 0.5299 0.55906 0.0
H158 H 0.71739 0.42042 0.52097 0.0
H159 H 0.67454 0.37527 0.56287 0.0
C160 C 0.33967 0.77165 0.01128 0.0
C161 C 0.42895 0.75226 0.00272 0.0
C162 C 0.29341 0.81609 0.0115 0.0
C163 C 0.33542 0.84263 0.00139 0.0
C164 C 0.4251 0.82319 -0.00803 0.0
C165 C 0.47094 0.77864 -0.00652 0.0
C166 C 0.19952 0.83467 0.02318 0.0
C167 C 0.47243 0.84951 0.97956 0.0
C168 C 0.18054 0.95761 0.96424 0.0
C169 C 0.19304 0.98077 0.00142 0.0
C170 C 0.22699 0.91317 0.96351 0.0
C171 C 0.28619 0.89046 0.00125 0.0
C172 C 0.29783 0.91371 0.03907 0.0
C173 C 0.25262 0.95819 0.03848 0.0
C174 C 0.21349 0.89055 0.92193 0.0
C175 C 0.35757 0.89151 0.08059 0.0
H176 H 0.30621 0.75195 0.01869 0.0
H177 H 0.53931 0.76439 -0.01368 0.0
H178 H 0.19746 0.85605 0.05114 0.0
H179 H 0.15031 0.85378 -0.00472 0.0
H180 H 0.17732 0.81013 0.03202 0.0
H181 H 0.54043 0.82995 0.97145 0.0
H182 H 0.43094 0.87014 0.9509 0.0
H183 H 0.48019 0.87034 0.00677 0.0
H184 H 0.13553 0.97436 0.93522 0.0
H185 H 0.26309 0.97533 0.06754 0.0
H186 H 0.18338 0.86809 0.92762 0.0
H187 H 0.27985 0.87198 0.91164 0.0
H188 H 0.16868 0.91258 0.89482 0.0
H189 H 0.35661 0.91359 0.10782 0.0
H190 H 0.42835 0.87475 0.07486 0.0
H191 H 0.33526 0.86751 0.09075 0.0
C192 C 0.68388 0.4551 0.03036 0.0
C193 C 0.69649 0.48102 0.00086 0.0
C194 C 0.73187 0.41068 0.03164 0.0
C195 C 0.79268 0.39074 0.00178 0.0
C196 C 0.80473 0.41681 0.97154 0.0
C197 C 0.75794 0.46122 0.9719 0.0
C198 C 0.71816 0.38503 0.0655 0.0
C199 C 0.86619 0.39779 0.93814 0.0
C200 C 0.97604 0.27743 0.02492 0.0
C201 C 0.93376 0.25233 0.00245 0.0
C202 C 0.93102 0.32201 0.02552 0.0
C203 C 0.84209 0.34285 0.00175 0.0
C204 C 0.8001 0.3176 0.97818 0.0
C205 C 0.84534 0.27308 0.97947 0.0
C206 C 0.97825 0.34681 0.05239 0.0
C207 C 0.70722 0.33769 0.95104 0.0
H208 H 0.63753 0.46967 0.05321 0.0
H209 H 0.76838 0.48052 0.94872 0.0
H210 H 0.6882 0.36342 0.04923 0.0
H211 H 0.78438 0.3653 0.085 0.0
H212 H 0.6731 0.40507 0.08804 0.0
H213 H 0.86696 0.42199 0.9162 0.0
H214 H 0.93634 0.37974 0.95475 0.0
H215 H 0.84397 0.37535 0.91795 0.0
H216 H 1.04383 0.26211 0.04308 0.0
H217 H 0.81175 0.25441 0.96161 0.0
H218 H 0.93591 0.36595 0.07633 0.0
H219 H 0.98747 0.36895 0.03099 0.0
H220 H 1.04556 0.3262 0.07037 0.0
H221 H 0.65683 0.35504 0.97237 0.0
H222 H 0.68553 0.31418 0.93263 0.0
H223 H 0.70654 0.36091 0.92745 0.0
C224 C 0.28721 0.29161 0.63643 0.0
C225 C 0.20924 0.30924 0.60478 0.0
C226 C 0.35071 0.30993 0.64496 0.0
C227 C 0.33521 0.34679 0.62148 0.0
C228 C 0.25212 0.36715 0.59313 0.0
C229 C 0.19032 0.348 0.58494 0.0
C230 C 0.43765 0.2877 0.67606 0.0
C231 C 0.23214 0.40707 0.56809 0.0
C232 C 0.47595 0.41188 0.63724 0.0
C233 C 0.52118 0.39965 0.60103 0.0
C234 C 0.42014 0.39258 0.64693 0.0
C235 C 0.41027 0.36017 0.61996 0.0
C236 C 0.46321 0.34475 0.58638 0.0
C237 C 0.51755 0.36484 0.57716 0.0
C238 C 0.36627 0.40928 0.68363 0.0
C239 C 0.45617 0.30954 0.55742 0.0
H240 H 0.30109 0.26222 0.65282 0.0
H241 H 0.13055 0.36189 0.5604 0.0
H242 H 0.49156 0.26877 0.65707 0.0
H243 H 0.46023 0.31054 0.69518 0.0
H244 H 0.43036 0.26611 0.69903 0.0
H245 H 0.16029 0.42182 0.55207 0.0
H246 H 0.24774 0.43025 0.59009 0.0
H247 H 0.27561 0.39979 0.54243 0.0
H248 H 0.48032 0.43803 0.65664 0.0
H249 H 0.5516 0.35515 0.54901 0.0
H250 H 0.36161 0.38342 0.7014 0.0
H251 H 0.29635 0.4309 0.66984 0.0
H252 H 0.3963 0.42702 0.70729 0.0
H253 H 0.46124 0.28276 0.57739 0.0
H254 H 0.50971 0.29787 0.53653 0.0
H255 H 0.38927 0.32095 0.53584 0.0
C256 C 0.94886 0.87601 0.37039 0.0
C257 C 1.00603 0.86583 0.41108 0.0
C258 C 0.871 0.86722 0.36213 0.0
C259 C 0.85049 0.84767 0.39529 0.0
C260 C 0.91284 0.83342 0.43459 0.0
C261 C 0.98968 0.84281 0.44206 0.0
C262 C 0.80737 0.88199 0.31941 0.0
C263 C 0.89445 0.81169 0.47058 0.0
C264 C 0.6134 0.87518 0.41654 0.0
C265 C 0.60283 0.83749 0.40627 0.0
C266 C 0.69122 0.88018 0.40982 0.0
C267 C 0.75965 0.84678 0.39209 0.0
C268 C 0.74541 0.81031 0.37774 0.0
C269 C 0.66713 0.80602 0.38511 0.0
C270 C 0.70316 0.91994 0.42492 0.0
C271 C 0.81514 0.77484 0.35698 0.0
H272 H 0.96219 0.893 0.3459 0.0
H273 H 1.03285 0.83497 0.4737 0.0
H274 H 0.778 0.85889 0.30738 0.0
H275 H 0.75065 0.91207 0.3244 0.0
H276 H 0.84188 0.88746 0.29387 0.0
H277 H 0.95601 0.79607 0.49523 0.0
H278 H 0.8417 0.83529 0.48738 0.0
H279 H 0.86862 0.78775 0.45711 0.0
H280 H 0.56286 0.89998 0.43189 0.0
H281 H 0.65956 0.77675 0.37695 0.0
H282 H 0.72596 0.93268 0.39936 0.0
H283 H 0.75607 0.91276 0.45446 0.0
H284 H 0.63959 0.94464 0.43308 0.0
H285 H 0.82013 0.78575 0.32491 0.0
H286 H 0.79816 0.74679 0.35179 0.0
H287 H 0.88279 0.76535 0.3775 0.0
C288 C 0.69695 0.97448 -0.01707 0.0
C289 C 0.61377 0.97251 -0.01595 0.0
C290 C 0.74366 0.95779 0.94816 0.0
C291 C 0.70824 0.93612 0.91479 0.0
C292 C 0.63855 0.92431 0.92304 0.0
C293 C 0.58925 0.94409 0.95664 0.0
C294 C 0.8242 0.9682 0.94586 0.0
C295 C 0.61187 0.893 0.89534 0.0
C296 C 0.6858 0.99032 0.8119 0.0
C297 C 0.77446 0.98801 0.822 0.0
C298 C 0.65819 0.96804 0.83887 0.0
C299 C 0.72556 0.93732 0.86901 0.0
C300 C 0.81567 0.92199 0.86091 0.0
C301 C 0.84067 0.94849 0.83789 0.0
C302 C 0.55817 0.98235 0.83921 0.0
C303 C 0.88668 0.88111 0.881 0.0
H304 H 0.72056 0.99317 0.00683 0.0
H305 H 0.52818 0.93963 0.95894 0.0
H306 H 0.88459 0.93923 0.9428 0.0
H307 H 0.80897 0.98936 0.91755 0.0
H308 H 0.84217 0.98447 0.97535 0.0
H309 H 0.53782 0.9065 0.88336 0.0
H310 H 0.64911 0.8823 0.86734 0.0
H311 H 0.62635 0.86506 0.91603 0.0
H312 H 0.63514 1.01643 0.7918 0.0
H313 H 0.91186 0.94123 0.839 0.0
H314 H 0.54154 0.99526 0.87149 0.0
H315 H 0.53799 0.95547 0.83249 0.0
H316 H 0.51678 1.00715 0.81392 0.0
H317 H 0.95107 0.88448 0.894 0.0
H318 H 0.90121 0.85729 0.85506 0.0
H319 H 0.86404 0.86902 0.90718 0.0
C320 C 0.46138 1.05586 0.53102 0.0
C321 C 0.38208 1.0847 0.50538 0.0
C322 C 0.54952 1.05566 0.53116 0.0
C323 C 0.56274 1.08403 0.50387 0.0
C324 C 0.48304 0.11273 0.47736 0.0
C325 C 0.39532 0.11319 0.47897 0.0
C326 C 0.62904 1.02507 0.56132 0.0
C327 C 0.49038 0.143 0.44648 0.0
C328 C 0.77783 0.11166 0.52845 0.0
C329 C 0.83862 1.0841 0.50218 0.0
C330 C 0.69058 0.11148 0.5298 0.0
C331 C 0.65853 1.08393 0.50331 0.0
C332 C 0.7192 1.05638 0.4763 0.0
C333 C 0.80725 1.05637 0.47652 0.0
C334 C 0.63274 0.14077 0.56041 0.0
C335 C 0.69045 1.02701 0.44629 0.0
H336 H 0.4545 1.03357 0.55193 0.0
H337 H 0.33661 0.13568 0.45855 0.0
H338 H 0.6651 1.04221 0.58214 0.0
H339 H 0.60835 1.00704 0.58275 0.0
H340 H 0.67781 1.00249 0.54192 0.0
H341 H 0.5153 0.16526 0.46526 0.0
H342 H 0.54029 0.12552 0.42491 0.0
H343 H 0.42453 0.16139 0.42581 0.0
H344 H 0.79916 0.13326 0.5489 0.0
H345 H 0.85129 1.03482 0.45574 0.0
H346 H 0.61291 0.12263 0.5821 0.0
H347 H 0.56957 0.16376 0.54144 0.0
H348 H 0.66806 0.15839 0.58099 0.0
H349 H 0.67284 1.00614 0.46548 0.0
H350 H 0.74404 1.00721 0.42747 0.0
H351 H 0.62874 1.04551 0.423 0.0
C352 C 0.11653 0.44087 0.9243 0.0
C353 C 1.02862 0.46743 0.90523 0.0
C354 C 0.1734 0.4099 0.89975 0.0
C355 C 0.1448 0.40864 0.85397 0.0
C356 C 1.05026 0.42352 0.84059 0.0
C357 C 0.99315 0.45539 0.86459 0.0
C358 C 0.26096 0.37813 0.92357 0.0
C359 C 1.0104 0.4067 0.80066 0.0
C360 C 0.19745 0.48636 0.82032 0.0
C361 C 0.27851 0.4728 0.85007 0.0
C362 C 0.16195 0.45713 0.80337 0.0
C363 C 0.19998 0.41624 0.82314 0.0
C364 C 0.2946 0.4007 0.83683 0.0
C365 C 0.3323 0.42938 0.85417 0.0
C366 C 1.08159 0.47118 0.76732 0.0
C367 C 0.35258 0.35445 0.83636 0.0
H368 H 0.14142 0.44387 0.95836 0.0
H369 H 0.92269 0.47099 0.85039 0.0
H370 H 0.2814 0.34764 0.9067 0.0
H371 H 0.31495 0.39024 0.92654 0.0
H372 H 0.25394 0.37238 0.95739 0.0
H373 H 0.97643 0.38759 0.81127 0.0
H374 H 0.95743 0.43279 0.77965 0.0
H375 H 1.06304 0.38627 0.78168 0.0
H376 H 0.15936 0.51951 0.81216 0.0
H377 H 0.40054 0.41805 0.87235 0.0
H378 H 1.01864 0.48788 0.78124 0.0
H379 H 1.07751 0.44409 0.748 0.0
H380 H 0.08653 0.49389 0.7449 0.0
H381 H 0.40313 0.34426 0.86677 0.0
H382 H 0.39092 0.34852 0.80874 0.0
H383 H 0.31113 0.33536 0.83162 0.0
C384 C 0.23176 0.60745 0.52292 0.0
C385 C 0.24577 0.63536 0.49606 0.0
C386 C 0.1437 0.60809 0.5242 0.0
C387 C 1.06451 0.63651 0.49706 0.0
C388 C 1.07858 0.66445 0.46959 0.0
C389 C 0.16701 0.66384 0.46979 0.0
C390 C 0.13542 0.57842 0.55547 0.0
C391 C 1.00036 0.69452 0.43844 0.0
C392 C 0.84926 0.60898 0.47218 0.0
C393 C 0.78753 0.63721 0.49761 0.0
C394 C 0.93683 0.60893 0.47114 0.0
C395 C 0.9684 0.63682 0.49726 0.0
C396 C 0.90664 0.66519 0.5233 0.0
C397 C 0.81822 0.66547 0.52268 0.0
C398 C 0.99539 0.57918 0.44109 0.0
C399 C 0.93426 0.69552 0.5523 0.0
H400 H 0.29003 0.58527 0.54387 0.0
H401 H 0.17451 0.6856 0.44841 0.0
H402 H 0.08569 0.59645 0.57692 0.0
H403 H 0.10972 0.55625 0.53702 0.0
H404 H 0.20106 0.5599 0.57625 0.0
H405 H 1.01683 0.7198 0.42644 0.0
H406 H 0.98384 0.67686 0.40992 0.0
H407 H 0.93893 0.70919 0.4539 0.0
H408 H 0.8284 0.58704 0.4521 0.0
H409 H 0.77335 0.68765 0.5427 0.0
H410 H 1.059 0.55688 0.46042 0.0
H411 H 1.01432 0.59716 0.41879 0.0
H412 H 0.96096 0.56084 0.42117 0.0
H413 H 0.88264 0.71366 0.57284 0.0
H414 H 0.94499 0.71802 0.53199 0.0
H415 H 0.99942 0.67815 0.57395 0.0
C416 C 0.09886 1.06472 0.33966 0.0
C417 C 1.04606 0.09705 0.36472 0.0
C418 C 0.0882 1.06886 0.29389 0.0
C419 C 1.02258 0.10616 0.27209 0.0
C420 C 0.96681 0.13832 0.29695 0.0
C421 C 0.97938 0.13348 0.34282 0.0
C422 C 0.14968 1.03379 0.26903 0.0
C423 C 0.89546 0.17844 0.27523 0.0
C424 C 1.07215 0.13512 0.1651 0.0
C425 C 1.01972 0.12059 0.13316 0.0
C426 C 1.07214 0.1313 0.21 0.0
C427 C 1.0178 0.11274 0.224 0.0
C428 C 0.96255 0.09909 0.19203 0.0
C429 C 0.9644 0.10301 0.1471 0.0
C430 C 0.13256 0.14615 0.24259 0.0
C431 C 0.9029 1.07951 0.20536 0.0
H432 H 0.15045 1.03633 0.35591 0.0
H433 H 0.93774 0.15865 0.36157 0.0
H434 H 0.10914 1.02405 0.2418 0.0
H435 H 0.19368 1.04513 0.25443 0.0
H436 H 0.19343 1.00579 0.29023 0.0
H437 H 0.85224 0.19874 0.29832 0.0
H438 H 0.92837 0.19647 0.2616 0.0
H439 H 0.85165 0.17113 0.24756 0.0
H440 H 0.11532 0.14879 0.15513 0.0
H441 H 0.92361 0.09164 0.12297 0.0
H442 H 0.18348 0.11912 0.26311 0.0
H443 H 0.09206 0.16921 0.26477 0.0
H444 H 0.16873 0.16104 0.22652 0.0
H445 H 0.94544 1.04942 0.22341 0.0
H446 H 0.85937 1.07316 0.1768 0.0
H447 H 0.85905 0.10051 0.22777 0.0
C448 C 0.204 1.084 0.86025 0.0
C449 C 0.11726 0.10604 0.87093 0.0
C450 C 0.21751 1.07781 0.81625 0.0
C451 C 0.14264 0.09402 0.78192 0.0
C452 C 1.05512 0.11644 0.79261 0.0
C453 C 1.04358 0.12211 0.8367 0.0
C454 C 0.31193 1.05365 0.80654 0.0
C455 C 0.97313 0.13437 0.75738 0.0
C456 C 0.16918 0.11498 0.66634 0.0
C457 C 0.15739 1.08125 0.64311 0.0
C458 C 0.16814 0.11862 0.71168 0.0
C459 C 0.15477 0.08788 0.73477 0.0
C460 C 0.14596 1.05299 0.71182 0.0
C461 C 0.14744 1.05009 0.66645 0.0
C462 C 0.17805 0.15629 0.73458 0.0
C463 C 0.13159 1.01945 0.73493 0.0
H464 H 0.26141 1.07124 0.88627 0.0
H465 H 0.97606 0.13908 0.84426 0.0
H466 H 0.3147 1.02547 0.78733 0.0
H467 H 0.33073 1.07344 0.78641 0.0
H468 H 0.36278 1.04336 0.83682 0.0
H469 H 0.90973 0.15115 0.77101 0.0
H470 H 0.98201 0.15665 0.73599 0.0
H471 H 0.96552 0.10874 0.73652 0.0
H472 H 0.17715 0.13928 0.64892 0.0
H473 H 0.13824 1.02388 0.64906 0.0
H474 H 0.2318 0.14598 0.76375 0.0
H475 H 0.11395 0.17634 0.74615 0.0
H476 H 0.1948 0.1757 0.7129 0.0
H477 H 0.18448 1.00714 0.76418 0.0
H478 H 0.13285 0.99275 0.71341 0.0
H479 H 1.06527 1.03326 0.74642 0.0
C480 C 0.53292 0.59938 0.33684 0.0
C481 C 0.52722 0.63485 0.36188 0.0
C482 C 0.54115 0.59846 0.29251 0.0
C483 C 0.54371 0.63385 0.27274 0.0
C484 C 0.53875 0.6696 0.29789 0.0
C485 C 0.53051 0.66969 0.34212 0.0
C486 C 0.54623 0.55975 0.26668 0.0
C487 C 0.54115 0.70796 0.27799 0.0
C488 C 0.6344 0.61755 0.16534 0.0
C489 C 0.55414 0.63067 0.13484 0.0
C490 C 0.63217 0.61896 0.21045 0.0
C491 C 0.54772 0.63403 0.22529 0.0
C492 C 0.46657 0.64834 0.1947 0.0
C493 C 0.47076 0.64642 0.14992 0.0
C494 C 0.7201 0.60349 0.2422 0.0
C495 C 0.37517 0.66496 0.20925 0.0
H496 H 0.53081 0.57227 0.35183 0.0
H497 H 0.52663 0.6972 0.36118 0.0
H498 H 0.48769 0.56806 0.23972 0.0
H499 H 0.60846 0.54737 0.2516 0.0
H500 H 0.5463 0.53437 0.28722 0.0
H501 H 0.54001 0.73258 0.30244 0.0
H502 H 0.60295 0.69898 0.26292 0.0
H503 H 0.48213 0.72169 0.25161 0.0
H504 H 0.6991 0.60531 0.15402 0.0
H505 H 0.40826 0.65698 0.12668 0.0
H506 H 0.72613 0.57589 0.26115 0.0
H507 H 0.72113 0.62831 0.26595 0.0
H508 H 0.77994 0.59426 0.22549 0.0
H509 H 0.36828 0.63986 0.2273 0.0
H510 H 0.31843 0.67624 0.18134 0.0
H511 H 0.36889 0.69132 0.23196 0.0
C512 C 0.58578 0.59872 0.65747 0.0
C513 C 0.52392 0.63476 0.63324 0.0
C514 C 0.58783 0.59515 0.70243 0.0
C515 C 0.52654 0.62842 0.72375 0.0
C516 C 0.46329 0.6647 0.69952 0.0
C517 C 0.46272 0.66745 0.6545 0.0
C518 C 0.65637 0.55598 0.72719 0.0
C519 C 0.39692 0.70079 0.72126 0.0
C520 C 0.48775 0.60508 0.83514 0.0
C521 C 0.54399 0.62053 0.86313 0.0
C522 C 0.48065 0.60773 0.78958 0.0
C523 C 0.53155 0.62596 0.7718 0.0
C524 C 0.58885 0.64132 0.79995 0.0
C525 C 0.59417 0.63852 0.84525 0.0
C526 C 0.41875 0.59107 0.76051 0.0
C527 C 0.64494 0.66055 0.78223 0.0
H528 H 0.63294 0.5731 0.64133 0.0
H529 H 0.41441 0.69529 0.63601 0.0
H530 H 0.70278 0.5644 0.75249 0.0
H531 H 0.62164 0.54118 0.74434 0.0
H532 H 0.69738 0.5324 0.70548 0.0
H533 H 0.34995 0.72611 0.69755 0.0
H534 H 0.35651 0.68927 0.73844 0.0
H535 H 0.43411 0.71447 0.74623 0.0
H536 H 0.44862 0.59125 0.84879 0.0
H537 H 0.63828 0.65027 0.86669 0.0
H538 H 0.45833 0.56568 0.73997 0.0
H539 H 0.36781 0.61647 0.73806 0.0
H540 H 0.38276 0.57842 0.77951 0.0
H541 H 0.6915 0.63727 0.76238 0.0
H542 H 0.68572 0.67123 0.80858 0.0
H543 H 0.6003 0.68788 0.76042 0.0
loop_
_geom_bond_atom_site_label_1
_geom_bond_atom_site_label_2
_geom_bond_distance
_geom_bond_site_symmetry_2
_ccdc_geom_bond_type
Dy0 O3 2.307 1_455 S
Dy0 O5 2.395 1_554 S
Dy0 O6 2.379 . S
Dy0 O8 2.339 . S
Dy0 O10 2.298 1_545 S
Dy0 O14 2.275 1_554 S
Dy0 C22 2.738 . S
Dy1 O4 2.298 1_565 S
Dy1 O7 2.275 1_556 S
Dy1 O9 2.307 1_655 S
Dy1 O11 2.395 1_556 S
Dy1 O12 2.379 . S
Dy1 O15 2.339 . S
Dy1 C31 2.738 1_565 S
C2 O14 1.254 1_665 S
C2 O15 1.257 . S
O3 Dy0 2.307 1_655 S
O3 C13 1.270 . S
O4 Dy1 2.298 1_545 S
O4 C13 1.228 1_556 S
O5 Dy0 2.395 1_556 S
O5 C22 1.253 1_556 S
O6 Dy0 2.379 . S
O6 C22 1.252 . S
O7 Dy1 2.275 1_554 S
O7 C23 1.254 1_665 S
O8 Dy0 2.339 . S
O8 C23 1.257 . S
O9 Dy1 2.307 1_455 S
O9 C24 1.269 . S
O10 Dy0 2.298 1_565 S
O10 C24 1.230 1_554 S
O11 Dy1 2.395 1_554 S
O11 C31 1.257 1_564 S
O12 Dy1 2.379 . S
O12 C31 1.248 1_565 S
C13 O3 1.270 . S
C13 O4 1.228 1_554 S
O14 Dy0 2.275 1_556 S
O14 C2 1.254 1_445 S
O15 Dy1 2.339 . S
O15 C2 1.257 . S
C16 C19 1.344 1_554 S
C16 C20 1.328 . S
C16 C22 1.516 1_565 S
C17 C18 1.304 1_554 S
C17 C21 1.323 . S
C18 C17 1.304 1_556 S
C18 C19 1.371 . S
C18 H32 0.930 . S
C19 C16 1.344 1_556 S
C19 C18 1.371 . S
C19 H33 0.931 . S
C20 C16 1.328 . S
C20 C21 1.433 . S
C20 H34 0.931 1_565 S
C21 C17 1.323 . S
C21 C20 1.433 . S
C21 H35 0.933 . S
C22 Dy0 2.738 . S
C22 O5 1.253 1_554 S
C22 O6 1.252 . S
C22 C16 1.516 1_545 S
C23 O7 1.254 1_445 S
C23 O8 1.257 . S
C24 O9 1.269 . S
C24 O10 1.230 1_556 S
C25 C28 1.344 1_556 S
C25 C29 1.328 . S
C25 C31 1.515 . S
C26 C27 1.304 1_556 S
C26 C30 1.323 . S
C27 C26 1.304 1_554 S
C27 C28 1.371 . S
C27 H36 0.930 . S
C28 C25 1.344 1_554 S
C28 C27 1.371 . S
C28 H37 0.931 . S
C29 C25 1.328 . S
C29 C30 1.433 . S
C29 H38 0.931 1_545 S
C30 C26 1.323 . S
C30 C29 1.433 . S
C30 H39 0.933 . S
C31 Dy1 2.738 1_545 S
C31 O11 1.257 1_546 S
C31 O12 1.248 1_545 S
C31 C25 1.515 . S
H32 C18 0.930 . S
H33 C19 0.931 . S
H34 C20 0.931 1_545 S
H35 C21 0.933 . S
H36 C27 0.930 . S
H37 C28 0.931 . S
H38 C29 0.931 1_565 S
H39 C30 0.933 . S
Dy40 O43 2.307 . S
Dy40 O45 2.395 1_655 S
Dy40 O46 2.379 1_655 S
Dy40 O48 2.336 . S
Dy40 O50 2.298 1_655 S
Dy40 O54 2.275 . S
Dy40 C62 2.738 1_655 S
Dy41 O44 2.298 1_455 S
Dy41 O47 2.275 . S
Dy41 O49 2.307 . S
Dy41 O51 2.395 1_455 S
Dy41 O52 2.379 1_455 S
Dy41 O55 2.339 . S
Dy41 C71 2.738 1_455 S
C42 O54 1.254 1_565 S
C42 O55 1.257 1_655 S
O43 Dy40 2.307 . S
O43 C53 1.266 . S
O44 Dy41 2.298 1_655 S
O44 C53 1.236 1_565 S
O45 Dy40 2.395 1_455 S
O45 C62 1.255 . S
O46 Dy40 2.379 1_455 S
O46 C62 1.249 . S
O47 Dy41 2.275 . S
O47 C63 1.254 1_565 S
O48 Dy40 2.336 . S
O48 C63 1.261 1_655 S
O49 Dy41 2.307 . S
O49 C64 1.266 . S
O50 Dy40 2.298 1_455 S
O50 C64 1.236 1_545 S
O51 Dy41 2.395 1_655 S
O51 C71 1.255 . S
O52 Dy41 2.379 1_655 S
O52 C71 1.249 . S
C53 O43 1.266 . S
C53 O44 1.236 1_545 S
O54 Dy40 2.275 . S
O54 C42 1.254 1_545 S
O55 Dy41 2.339 . S
O55 C42 1.257 1_455 S
C56 C59 1.344 . S
C56 C60 1.328 . S
C56 C62 1.516 . S
C57 C58 1.304 . S
C57 C61 1.323 . S
C58 C57 1.304 . S
C58 C59 1.371 . S
C58 H72 0.930 . S
C59 C56 1.344 . S
C59 C58 1.371 . S
C59 H73 0.931 . S
C60 C56 1.328 . S
C60 C61 1.433 . S
C60 H74 0.931 . S
C61 C57 1.323 . S
C61 C60 1.433 . S
C61 H75 0.933 . S
C62 Dy40 2.738 1_455 S
C62 O45 1.255 . S
C62 O46 1.249 . S
C62 C56 1.516 . S
C63 O47 1.254 1_545 S
C63 O48 1.261 1_455 S
C64 O49 1.266 . S
C64 O50 1.236 1_565 S
C65 C68 1.344 . S
C65 C69 1.328 . S
C65 C71 1.516 . S
C66 C67 1.304 . S
C66 C70 1.323 . S
C67 C66 1.304 . S
C67 C68 1.371 . S
C67 H76 0.930 . S
C68 C65 1.344 . S
C68 C67 1.371 . S
C68 H77 0.931 . S
C69 C65 1.328 . S
C69 C70 1.433 . S
C69 H78 0.931 . S
C70 C66 1.323 . S
C70 C69 1.433 . S
C70 H79 0.933 . S
C71 Dy41 2.738 1_655 S
C71 O51 1.255 . S
C71 O52 1.249 . S
C71 C65 1.516 . S
H72 C58 0.930 . S
H73 C59 0.931 . S
H74 C60 0.931 . S
H75 C61 0.933 . S
H76 C67 0.930 . S
H77 C68 0.931 . S
H78 C69 0.931 . S
H79 C70 0.933 . S
Dy80 O83 2.307 . S
Dy80 O85 2.395 1_554 S
Dy80 O86 2.379 . S
Dy80 O88 2.339 . S
Dy80 O90 2.298 . S
Dy80 O94 2.275 1_554 S
Dy80 C102 2.738 . S
Dy81 O84 2.298 . S
Dy81 O87 2.275 1_556 S
Dy81 O89 2.307 . S
Dy81 O91 2.395 1_556 S
Dy81 O92 2.379 . S
Dy81 O95 2.339 . S
Dy81 C111 2.738 . S
C82 O94 1.254 . S
C82 O95 1.257 . S
O83 Dy80 2.307 . S
O83 C93 1.270 . S
O84 Dy81 2.298 . S
O84 C93 1.228 1_556 S
O85 Dy80 2.395 1_556 S
O85 C102 1.255 1_556 S
O86 Dy80 2.379 . S
O86 C102 1.249 . S
O87 Dy81 2.275 1_554 S
O87 C103 1.254 . S
O88 Dy80 2.339 . S
O88 C103 1.257 . S
O89 Dy81 2.307 . S
O89 C104 1.269 . S
O90 Dy80 2.298 . S
O90 C104 1.230 1_554 S
O91 Dy81 2.395 1_554 S
O91 C111 1.255 1_554 S
O92 Dy81 2.379 . S
O92 C111 1.249 . S
C93 O83 1.270 . S
C93 O84 1.228 1_554 S
O94 Dy80 2.275 1_556 S
O94 C82 1.254 . S
O95 Dy81 2.339 . S
O95 C82 1.257 . S
C96 C99 1.344 1_554 S
C96 C100 1.328 . S
C96 C102 1.516 . S
C97 C98 1.304 1_554 S
C97 C101 1.323 . S
C98 C97 1.304 1_556 S
C98 C99 1.371 . S
C98 H112 0.930 . S
C99 C96 1.344 1_556 S
C99 C98 1.371 . S
C99 H113 0.931 . S
C100 C96 1.328 . S
C100 C101 1.433 . S
C100 H114 0.931 . S
C101 C97 1.323 . S
C101 C100 1.433 . S
C101 H115 0.933 . S
C102 Dy80 2.738 . S
C102 O85 1.255 1_554 S
C102 O86 1.249 . S
C102 C96 1.516 . S
C103 O87 1.254 . S
C103 O88 1.257 . S
C104 O89 1.269 . S
C104 O90 1.230 1_556 S
C105 C108 1.344 1_556 S
C105 C109 1.328 . S
C105 C111 1.516 . S
C106 C107 1.304 1_556 S
C106 C110 1.323 . S
C107 C106 1.304 1_554 S
C107 C108 1.371 . S
C107 H116 0.930 . S
C108 C105 1.344 1_554 S
C108 C107 1.371 . S
C108 H117 0.931 . S
C109 C105 1.328 . S
C109 C110 1.433 . S
C109 H118 0.931 . S
C110 C106 1.323 . S
C110 C109 1.433 . S
C110 H119 0.933 . S
C111 Dy81 2.738 . S
C111 O91 1.255 1_556 S
C111 O92 1.249 . S
C111 C105 1.516 . S
H112 C98 0.930 . S
H113 C99 0.931 . S
H114 C100 0.931 . S
H115 C101 0.933 . S
H116 C107 0.930 . S
H117 C108 0.931 . S
H118 C109 0.931 . S
H119 C110 0.933 . S
Dy120 O123 2.307 . S
Dy120 O125 2.395 . S
Dy120 O126 2.379 . S
Dy120 O128 2.339 . S
Dy120 O130 2.298 . S
Dy120 O134 2.275 . S
Dy120 C142 2.738 . S
Dy121 O124 2.298 . S
Dy121 O127 2.275 . S
Dy121 O129 2.307 . S
Dy121 O131 2.395 . S
Dy121 O132 2.379 . S
Dy121 O135 2.339 . S
Dy121 C151 2.738 . S
C122 O134 1.254 . S
C122 O135 1.257 . S
O123 Dy120 2.307 . S
O123 C133 1.266 . S
O124 Dy121 2.298 . S
O124 C133 1.236 . S
O125 Dy120 2.395 . S
O125 C142 1.255 . S
O126 Dy120 2.379 . S
O126 C142 1.249 . S
O127 Dy121 2.275 . S
O127 C143 1.254 . S
O128 Dy120 2.339 . S
O128 C143 1.257 . S
O129 Dy121 2.307 . S
O129 C144 1.266 . S
O130 Dy120 2.298 . S
O130 C144 1.236 . S
O131 Dy121 2.395 . S
O131 C151 1.255 . S
O132 Dy121 2.379 . S
O132 C151 1.249 . S
C133 O123 1.266 . S
C133 O124 1.236 . S
O134 Dy120 2.275 . S
O134 C122 1.254 . S
O135 Dy121 2.339 . S
O135 C122 1.257 . S
C136 C139 1.344 . S
C136 C140 1.328 . S
C136 C142 1.516 . S
C137 C138 1.304 . S
C137 C141 1.323 . S
C138 C137 1.304 . S
C138 C139 1.371 . S
C138 H152 0.930 . S
C139 C136 1.344 . S
C139 C138 1.371 . S
C139 H153 0.931 . S
C140 C136 1.328 . S
C140 C141 1.433 . S
C140 H154 0.931 . S
C141 C137 1.323 . S
C141 C140 1.433 . S
C141 H155 0.933 . S
C142 Dy120 2.738 . S
C142 O125 1.255 . S
C142 O126 1.249 . S
C142 C136 1.516 . S
C143 O127 1.254 . S
C143 O128 1.257 . S
C144 O129 1.266 . S
C144 O130 1.236 . S
C145 C148 1.344 . S
C145 C149 1.328 . S
C145 C151 1.516 . S
C146 C147 1.304 . S
C146 C150 1.323 . S
C147 C146 1.304 . S
C147 C148 1.371 . S
C147 H156 0.930 . S
C148 C145 1.344 . S
C148 C147 1.371 . S
C148 H157 0.931 . S
C149 C145 1.328 . S
C149 C150 1.433 . S
C149 H158 0.931 . S
C150 C146 1.323 . S
C150 C149 1.433 . S
C150 H159 0.933 . S
C151 Dy121 2.738 . S
C151 O131 1.255 . S
C151 O132 1.249 . S
C151 C145 1.516 . S
H152 C138 0.930 . S
H153 C139 0.931 . S
H154 C140 0.931 . S
H155 C141 0.933 . S
H156 C147 0.930 . S
H157 C148 0.931 . S
H158 C149 0.931 . S
H159 C150 0.933 . S
C160 C161 1.391 . S
C160 C162 1.394 . S
C160 H176 0.931 . S
C161 C160 1.391 . S
C161 C165 1.376 1_554 S
C162 C160 1.394 . S
C162 C163 1.369 . S
C162 C166 1.531 . S
C163 C162 1.369 . S
C163 C164 1.410 1_554 S
C163 C171 1.503 . S
C164 C163 1.410 1_556 S
C164 C165 1.392 . S
C164 C167 1.511 . S
C165 C161 1.376 1_556 S
C165 C164 1.392 . S
C165 H177 0.929 . S
C166 C162 1.531 . S
C166 H178 0.960 . S
C166 H179 0.962 . S
C166 H180 0.960 . S
C167 C164 1.511 . S
C167 H181 0.961 . S
C167 H182 0.961 . S
C167 H183 0.961 1_556 S
C168 C169 1.370 . S
C168 C170 1.363 . S
C168 H184 0.931 . S
C169 C168 1.370 . S
C169 C173 1.408 1_556 S
C170 C168 1.363 . S
C170 C171 1.370 1_556 S
C170 C174 1.524 . S
C171 C163 1.503 . S
C171 C170 1.370 1_554 S
C171 C172 1.403 . S
C172 C171 1.403 . S
C172 C173 1.404 . S
C172 C175 1.539 . S
C173 C169 1.408 1_554 S
C173 C172 1.404 . S
C173 H185 0.930 . S
C174 C170 1.524 . S
C174 H186 0.956 . S
C174 H187 0.961 . S
C174 H188 0.961 . S
C175 C172 1.539 . S
C175 H189 0.958 . S
C175 H190 0.961 . S
C175 H191 0.960 . S
H176 C160 0.931 . S
H177 C165 0.929 . S
H178 C166 0.960 . S
H179 C166 0.962 . S
H180 C166 0.960 . S
H181 C167 0.961 . S
H182 C167 0.961 . S
H183 C167 0.961 1_554 S
H184 C168 0.931 . S
H185 C173 0.930 . S
H186 C174 0.956 . S
H187 C174 0.961 . S
H188 C174 0.961 . S
H189 C175 0.958 . S
H190 C175 0.961 . S
H191 C175 0.960 . S
C192 C193 1.391 . S
C192 C194 1.394 . S
C192 H208 0.927 1_556 S
C193 C192 1.391 . S
C193 C197 1.376 . S
C194 C192 1.394 . S
C194 C195 1.369 . S
C194 C198 1.534 . S
C195 C194 1.369 . S
C195 C196 1.410 . S
C195 C203 1.503 . S
C196 C195 1.410 . S
C196 C197 1.392 . S
C196 C199 1.511 . S
C197 C193 1.376 . S
C197 C196 1.392 . S
C197 H209 0.929 . S
C198 C194 1.534 . S
C198 H210 0.968 . S
C198 H211 0.948 1_556 S
C198 H212 0.964 . S
C199 C196 1.511 . S
C199 H213 0.961 . S
C199 H214 0.961 . S
C199 H215 0.961 . S
C200 C201 1.370 . S
C200 C202 1.363 . S
C200 H216 0.931 . S
C201 C200 1.370 . S
C201 C205 1.408 1_554 S
C202 C200 1.363 . S
C202 C203 1.370 1_554 S
C202 C206 1.524 . S
C203 C195 1.503 . S
C203 C202 1.370 1_556 S
C203 C204 1.403 . S
C204 C203 1.403 . S
C204 C205 1.404 . S
C204 C207 1.539 . S
C205 C201 1.408 1_556 S
C205 C204 1.404 . S
C205 H217 0.930 . S
C206 C202 1.524 . S
C206 H218 0.956 . S
C206 H219 0.961 . S
C206 H220 0.961 . S
C207 C204 1.539 . S
C207 H221 0.958 . S
C207 H222 0.961 . S
C207 H223 0.960 . S
H208 C192 0.927 1_554 S
H209 C197 0.929 . S
H210 C198 0.968 . S
H211 C198 0.948 1_554 S
H212 C198 0.964 . S
H213 C199 0.961 . S
H214 C199 0.961 . S
H215 C199 0.961 . S
H216 C200 0.931 . S
H217 C205 0.930 . S
H218 C206 0.956 . S
H219 C206 0.961 . S
H220 C206 0.961 . S
H221 C207 0.958 . S
H222 C207 0.961 . S
H223 C207 0.960 . S
C224 C225 1.391 . S
C224 C226 1.394 . S
C224 H240 0.931 . S
C225 C224 1.391 . S
C225 C229 1.376 . S
C226 C224 1.394 . S
C226 C227 1.369 . S
C226 C230 1.531 . S
C227 C226 1.369 . S
C227 C228 1.410 . S
C227 C235 1.503 . S
C228 C227 1.410 . S
C228 C229 1.392 . S
C228 C231 1.511 . S
C229 C225 1.376 . S
C229 C228 1.392 . S
C229 H241 0.929 . S
C230 C226 1.531 . S
C230 H242 0.960 . S
C230 H243 0.962 . S
C230 H244 0.960 . S
C231 C228 1.511 . S
C231 H245 0.961 . S
C231 H246 0.961 . S
C231 H247 0.961 . S
C232 C233 1.370 . S
C232 C234 1.363 . S
C232 H248 0.931 . S
C233 C232 1.370 . S
C233 C237 1.408 . S
C234 C232 1.363 . S
C234 C235 1.370 . S
C234 C238 1.524 . S
C235 C227 1.503 . S
C235 C234 1.370 . S
C235 C236 1.403 . S
C236 C235 1.403 . S
C236 C237 1.404 . S
C236 C239 1.539 . S
C237 C233 1.408 . S
C237 C236 1.404 . S
C237 H249 0.930 . S
C238 C234 1.524 . S
C238 H250 0.956 . S
C238 H251 0.961 . S
C238 H252 0.961 . S
C239 C236 1.539 . S
C239 H253 0.958 . S
C239 H254 0.961 . S
C239 H255 0.960 . S
H240 C224 0.931 . S
H241 C229 0.929 . S
H242 C230 0.960 . S
H243 C230 0.962 . S
H244 C230 0.960 . S
H245 C231 0.961 . S
H246 C231 0.961 . S
H247 C231 0.961 . S
H248 C232 0.931 . S
H249 C237 0.930 . S
H250 C238 0.956 . S
H251 C238 0.961 . S
H252 C238 0.961 . S
H253 C239 0.958 . S
H254 C239 0.961 . S
H255 C239 0.960 . S
C256 C257 1.391 . S
C256 C258 1.394 . S
C256 H272 0.931 . S
C257 C256 1.391 . S
C257 C261 1.376 . S
C258 C256 1.394 . S
C258 C259 1.369 . S
C258 C262 1.531 . S
C259 C258 1.369 . S
C259 C260 1.410 . S
C259 C267 1.503 . S
C260 C259 1.410 . S
C260 C261 1.392 . S
C260 C263 1.511 . S
C261 C257 1.376 . S
C261 C260 1.392 . S
C261 H273 0.929 . S
C262 C258 1.531 . S
C262 H274 0.960 . S
C262 H275 0.962 . S
C262 H276 0.960 . S
C263 C260 1.511 . S
C263 H277 0.961 . S
C263 H278 0.961 . S
C263 H279 0.961 . S
C264 C265 1.370 . S
C264 C266 1.363 . S
C264 H280 0.931 . S
C265 C264 1.370 . S
C265 C269 1.408 . S
C266 C264 1.363 . S
C266 C267 1.370 . S
C266 C270 1.524 . S
C267 C259 1.503 . S
C267 C266 1.370 . S
C267 C268 1.403 . S
C268 C267 1.403 . S
C268 C269 1.404 . S
C268 C271 1.539 . S
C269 C265 1.408 . S
C269 C268 1.404 . S
C269 H281 0.930 . S
C270 C266 1.524 . S
C270 H282 0.956 . S
C270 H283 0.961 . S
C270 H284 0.961 . S
C271 C268 1.539 . S
C271 H285 0.958 . S
C271 H286 0.961 . S
C271 H287 0.960 . S
H272 C256 0.931 . S
H273 C261 0.929 . S
H274 C262 0.960 . S
H275 C262 0.962 . S
H276 C262 0.960 . S
H277 C263 0.961 . S
H278 C263 0.961 . S
H279 C263 0.961 . S
H280 C264 0.931 . S
H281 C269 0.930 . S
H282 C270 0.956 . S
H283 C270 0.961 . S
H284 C270 0.961 . S
H285 C271 0.958 . S
H286 C271 0.961 . S
H287 C271 0.960 . S
C288 C289 1.391 . S
C288 C290 1.394 . S
C288 H304 0.931 . S
C289 C288 1.391 . S
C289 C293 1.376 1_554 S
C290 C288 1.394 . S
C290 C291 1.369 . S
C290 C294 1.531 . S
C291 C290 1.369 . S
C291 C292 1.410 1_554 S
C291 C299 1.503 1_564 S
C292 C291 1.410 1_556 S
C292 C293 1.392 . S
C292 C295 1.511 . S
C293 C289 1.376 1_556 S
C293 C292 1.392 . S
C293 H305 0.929 . S
C294 C290 1.531 . S
C294 H306 0.960 . S
C294 H307 0.962 1_565 S
C294 H308 0.960 . S
C295 C292 1.511 . S
C295 H309 0.961 . S
C295 H310 0.961 . S
C295 H311 0.961 . S
C296 C297 1.370 . S
C296 C298 1.363 . S
C296 H312 0.931 . S
C297 C296 1.370 . S
C297 C301 1.408 . S
C298 C296 1.363 . S
C298 C299 1.370 . S
C298 C302 1.524 . S
C299 C291 1.503 1_546 S
C299 C298 1.370 . S
C299 C300 1.403 1_546 S
C300 C299 1.403 1_564 S
C300 C301 1.402 1_564 S
C300 C303 1.540 . S
C301 C297 1.408 . S
C301 C300 1.402 1_546 S
C301 H313 0.930 . S
C302 C298 1.524 . S
C302 H314 0.956 1_556 S
C302 H315 0.961 . S
C302 H316 0.961 . S
C303 C300 1.540 . S
C303 H317 0.958 . S
C303 H318 0.961 1_554 S
C303 H319 0.960 1_554 S
H304 C288 0.931 . S
H305 C293 0.929 . S
H306 C294 0.960 . S
H307 C294 0.962 1_545 S
H308 C294 0.960 . S
H309 C295 0.961 . S
H310 C295 0.961 . S
H311 C295 0.961 . S
H312 C296 0.931 . S
H313 C301 0.930 . S
H314 C302 0.956 1_554 S
H315 C302 0.961 . S
H316 C302 0.961 . S
H317 C303 0.958 . S
H318 C303 0.961 1_556 S
H319 C303 0.960 1_556 S
C320 C321 1.391 . S
C320 C322 1.394 . S
C320 H336 0.931 . S
C321 C320 1.391 . S
C321 C325 1.376 1_565 S
C322 C320 1.394 . S
C322 C323 1.369 . S
C322 C326 1.531 . S
C323 C322 1.369 . S
C323 C324 1.410 1_565 S
C323 C331 1.503 . S
C324 C323 1.410 1_545 S
C324 C325 1.392 . S
C324 C327 1.511 . S
C325 C321 1.376 1_545 S
C325 C324 1.392 . S
C325 H337 0.929 . S
C326 C322 1.531 . S
C326 H338 0.960 . S
C326 H339 0.962 . S
C326 H340 0.960 . S
C327 C324 1.511 . S
C327 H341 0.961 . S
C327 H342 0.961 . S
C327 H343 0.961 . S
C328 C329 1.370 . S
C328 C330 1.363 . S
C328 H344 0.931 . S
C329 C328 1.370 . S
C329 C333 1.408 1_545 S
C330 C328 1.363 . S
C330 C331 1.370 1_545 S
C330 C334 1.524 . S
C331 C323 1.503 . S
C331 C330 1.370 1_565 S
C331 C332 1.403 . S
C332 C331 1.403 . S
C332 C333 1.404 . S
C332 C335 1.539 . S
C333 C329 1.408 1_565 S
C333 C332 1.404 . S
C333 H345 0.930 . S
C334 C330 1.524 . S
C334 H346 0.956 . S
C334 H347 0.961 . S
C334 H348 0.961 . S
C335 C332 1.539 . S
C335 H349 0.958 . S
C335 H350 0.961 . S
C335 H351 0.960 . S
H336 C320 0.931 . S
H337 C325 0.929 . S
H338 C326 0.960 . S
H339 C326 0.962 . S
H340 C326 0.960 . S
H341 C327 0.961 . S
H342 C327 0.961 . S
H343 C327 0.961 . S
H344 C328 0.931 . S
H345 C333 0.930 . S
H346 C334 0.956 . S
H347 C334 0.961 . S
H348 C334 0.961 . S
H349 C335 0.958 . S
H350 C335 0.961 . S
H351 C335 0.960 . S
C352 C353 1.391 . S
C352 C354 1.394 . S
C352 H368 0.931 . S
C353 C352 1.391 . S
C353 C357 1.376 1_554 S
C354 C352 1.394 . S
C354 C355 1.368 . S
C354 C358 1.531 1_655 S
C355 C354 1.368 . S
C355 C356 1.410 1_554 S
C355 C363 1.503 1_654 S
C356 C355 1.410 1_556 S
C356 C357 1.392 . S
C356 C359 1.511 . S
C357 C353 1.376 1_556 S
C357 C356 1.392 . S
C357 H369 0.929 . S
C358 C354 1.531 1_455 S
C358 H370 0.960 . S
C358 H371 0.962 . S
C358 H372 0.960 . S
C359 C356 1.511 . S
C359 H373 0.961 . S
C359 H374 0.961 . S
C359 H375 0.961 . S
C360 C361 1.370 1_554 S
C360 C362 1.363 . S
C360 H376 0.931 . S
C361 C360 1.370 1_556 S
C361 C365 1.408 . S
C362 C360 1.363 . S
C362 C363 1.370 1_554 S
C362 C366 1.524 1_455 S
C363 C355 1.503 1_456 S
C363 C362 1.370 1_556 S
C363 C364 1.403 . S
C364 C363 1.403 . S
C364 C365 1.404 . S
C364 C367 1.539 . S
C365 C361 1.408 . S
C365 C364 1.404 . S
C365 H377 0.930 . S
C366 C362 1.524 1_655 S
C366 H378 0.956 . S
C366 H379 0.961 1_554 S
C366 H380 0.961 . S
C367 C364 1.539 . S
C367 H381 0.958 . S
C367 H382 0.961 . S
C367 H383 0.960 . S
H368 C352 0.931 . S
H369 C357 0.929 . S
H370 C358 0.960 . S
H371 C358 0.962 . S
H372 C358 0.960 . S
H373 C359 0.961 . S
H374 C359 0.961 . S
H375 C359 0.961 . S
H376 C360 0.931 . S
H377 C365 0.930 . S
H378 C366 0.956 . S
H379 C366 0.961 1_556 S
H380 C366 0.961 . S
H381 C367 0.958 . S
H382 C367 0.961 . S
H383 C367 0.960 . S
C384 C385 1.391 . S
C384 C386 1.394 . S
C384 H400 0.931 . S
C385 C384 1.391 . S
C385 C389 1.376 . S
C386 C384 1.394 . S
C386 C387 1.369 . S
C386 C390 1.531 . S
C387 C386 1.369 . S
C387 C388 1.410 . S
C387 C395 1.503 1_455 S
C388 C387 1.410 . S
C388 C389 1.392 . S
C388 C391 1.511 1_455 S
C389 C385 1.376 . S
C389 C388 1.392 . S
C389 H401 0.929 . S
C390 C386 1.531 . S
C390 H402 0.960 . S
C390 H403 0.962 . S
C390 H404 0.960 . S
C391 C388 1.511 1_655 S
C391 H405 0.961 1_655 S
C391 H406 0.961 . S
C391 H407 0.961 . S
C392 C393 1.370 . S
C392 C394 1.363 . S
C392 H408 0.931 . S
C393 C392 1.370 . S
C393 C397 1.408 . S
C394 C392 1.363 . S
C394 C395 1.370 . S
C394 C398 1.524 . S
C395 C387 1.503 1_655 S
C395 C394 1.370 . S
C395 C396 1.403 . S
C396 C395 1.403 . S
C396 C397 1.404 . S
C396 C399 1.539 . S
C397 C393 1.408 . S
C397 C396 1.404 . S
C397 H409 0.930 . S
C398 C394 1.524 . S
C398 H410 0.956 1_655 S
C398 H411 0.961 . S
C398 H412 0.961 . S
C399 C396 1.539 . S
C399 H413 0.958 . S
C399 H414 0.961 . S
C399 H415 0.960 . S
H400 C384 0.931 . S
H401 C389 0.929 . S
H402 C390 0.960 . S
H403 C390 0.962 . S
H404 C390 0.960 . S
H405 C391 0.961 1_455 S
H406 C391 0.961 . S
H407 C391 0.961 . S
H408 C392 0.931 . S
H409 C397 0.930 . S
H410 C398 0.956 1_455 S
H411 C398 0.961 . S
H412 C398 0.961 . S
H413 C399 0.958 . S
H414 C399 0.961 . S
H415 C399 0.960 . S
C416 C417 1.391 1_455 S
C416 C418 1.394 . S
C416 H432 0.931 . S
C417 C416 1.391 1_655 S
C417 C421 1.376 1_565 S
C418 C416 1.394 . S
C418 C419 1.369 1_455 S
C418 C422 1.531 . S
C419 C418 1.369 1_655 S
C419 C420 1.410 1_565 S
C419 C427 1.503 . S
C420 C419 1.410 1_545 S
C420 C421 1.392 . S
C420 C423 1.511 . S
C421 C417 1.376 1_545 S
C421 C420 1.392 . S
C421 H433 0.929 . S
C422 C418 1.531 . S
C422 H434 0.960 . S
C422 H435 0.962 . S
C422 H436 0.960 . S
C423 C420 1.511 . S
C423 H437 0.961 . S
C423 H438 0.961 . S
C423 H439 0.961 1_545 S
C424 C425 1.370 1_455 S
C424 C426 1.363 . S
C424 H440 0.931 . S
C425 C424 1.370 1_655 S
C425 C429 1.408 1_545 S
C426 C424 1.363 . S
C426 C427 1.370 1_445 S
C426 C430 1.524 . S
C427 C419 1.503 . S
C427 C426 1.370 1_665 S
C427 C428 1.403 . S
C428 C427 1.403 . S
C428 C429 1.404 . S
C428 C431 1.539 . S
C429 C425 1.408 1_565 S
C429 C428 1.404 . S
C429 H441 0.930 . S
C430 C426 1.524 . S
C430 H442 0.956 . S
C430 H443 0.961 1_455 S
C430 H444 0.961 . S
C431 C428 1.539 . S
C431 H445 0.958 1_655 S
C431 H446 0.961 . S
C431 H447 0.960 . S
H432 C416 0.931 . S
H433 C421 0.929 . S
H434 C422 0.960 . S
H435 C422 0.962 . S
H436 C422 0.960 . S
H437 C423 0.961 . S
H438 C423 0.961 . S
H439 C423 0.961 1_565 S
H440 C424 0.931 . S
H441 C429 0.930 . S
H442 C430 0.956 . S
H443 C430 0.961 1_655 S
H444 C430 0.961 . S
H445 C431 0.958 1_455 S
H446 C431 0.961 . S
H447 C431 0.960 . S
C448 C449 1.391 . S
C448 C450 1.394 . S
C448 H464 0.931 . S
C449 C448 1.391 . S
C449 C453 1.376 1_465 S
C450 C448 1.394 . S
C450 C451 1.369 . S
C450 C454 1.531 . S
C451 C450 1.369 . S
C451 C452 1.409 1_465 S
C451 C459 1.503 . S
C452 C451 1.409 1_645 S
C452 C453 1.392 . S
C452 C455 1.512 . S
C453 C449 1.376 1_645 S
C453 C452 1.392 . S
C453 H465 0.929 . S
C454 C450 1.531 . S
C454 H466 0.960 . S
C454 H467 0.962 . S
C454 H468 0.960 . S
C455 C452 1.512 . S
C455 H469 0.961 . S
C455 H470 0.961 . S
C455 H471 0.961 1_545 S
C456 C457 1.370 1_545 S
C456 C458 1.363 . S
C456 H472 0.931 . S
C457 C456 1.370 1_565 S
C457 C461 1.408 1_455 S
C458 C456 1.363 . S
C458 C459 1.370 1_545 S
C458 C462 1.524 . S
C459 C451 1.503 . S
C459 C458 1.370 1_565 S
C459 C460 1.403 1_455 S
C460 C459 1.403 1_655 S
C460 C461 1.404 . S
C460 C463 1.539 . S
C461 C457 1.408 1_655 S
C461 C460 1.404 . S
C461 H473 0.930 . S
C462 C458 1.524 . S
C462 H474 0.956 . S
C462 H475 0.961 1_455 S
C462 H476 0.961 . S
C463 C460 1.539 . S
C463 H477 0.958 1_655 S
C463 H478 0.961 . S
C463 H479 0.960 . S
H464 C448 0.931 . S
H465 C453 0.929 . S
H466 C454 0.960 . S
H467 C454 0.962 . S
H468 C454 0.960 . S
H469 C455 0.961 . S
H470 C455 0.961 . S
H471 C455 0.961 1_565 S
H472 C456 0.931 . S
H473 C461 0.930 . S
H474 C462 0.956 . S
H475 C462 0.961 1_655 S
H476 C462 0.961 . S
H477 C463 0.958 1_455 S
H478 C463 0.961 . S
H479 C463 0.960 . S
C480 C481 1.391 . S
C480 C482 1.394 . S
C480 H496 0.931 . S
C481 C480 1.391 . S
C481 C485 1.376 . S
C482 C480 1.394 . S
C482 C483 1.369 . S
C482 C486 1.531 . S
C483 C482 1.369 . S
C483 C484 1.410 . S
C483 C491 1.503 . S
C484 C483 1.410 . S
C484 C485 1.392 . S
C484 C487 1.511 . S
C485 C481 1.376 . S
C485 C484 1.392 . S
C485 H497 0.929 . S
C486 C482 1.531 . S
C486 H498 0.960 . S
C486 H499 0.962 . S
C486 H500 0.960 . S
C487 C484 1.511 . S
C487 H501 0.961 . S
C487 H502 0.961 . S
C487 H503 0.961 . S
C488 C489 1.370 . S
C488 C490 1.363 . S
C488 H504 0.931 . S
C489 C488 1.370 . S
C489 C493 1.408 . S
C490 C488 1.363 . S
C490 C491 1.370 . S
C490 C494 1.524 . S
C491 C483 1.503 . S
C491 C490 1.370 . S
C491 C492 1.403 . S
C492 C491 1.403 . S
C492 C493 1.404 . S
C492 C495 1.539 . S
C493 C489 1.408 . S
C493 C492 1.404 . S
C493 H505 0.930 . S
C494 C490 1.524 . S
C494 H506 0.956 . S
C494 H507 0.961 . S
C494 H508 0.961 . S
C495 C492 1.539 . S
C495 H509 0.958 . S
C495 H510 0.961 . S
C495 H511 0.960 . S
H496 C480 0.931 . S
H497 C485 0.929 . S
H498 C486 0.960 . S
H499 C486 0.962 . S
H500 C486 0.960 . S
H501 C487 0.961 . S
H502 C487 0.961 . S
H503 C487 0.961 . S
H504 C488 0.931 . S
H505 C493 0.930 . S
H506 C494 0.956 . S
H507 C494 0.961 . S
H508 C494 0.961 . S
H509 C495 0.958 . S
H510 C495 0.961 . S
H511 C495 0.960 . S
C512 C513 1.391 . S
C512 C514 1.394 . S
C512 H528 0.931 . S
C513 C512 1.391 . S
C513 C517 1.376 . S
C514 C512 1.394 . S
C514 C515 1.369 . S
C514 C518 1.531 . S
C515 C514 1.369 . S
C515 C516 1.410 . S
C515 C523 1.503 . S
C516 C515 1.410 . S
C516 C517 1.392 . S
C516 C519 1.511 . S
C517 C513 1.376 . S
C517 C516 1.392 . S
C517 H529 0.929 . S
C518 C514 1.531 . S
C518 H530 0.960 . S
C518 H531 0.962 . S
C518 H532 0.960 . S
C519 C516 1.511 . S
C519 H533 0.961 . S
C519 H534 0.961 . S
C519 H535 0.961 . S
C520 C521 1.370 . S
C520 C522 1.363 . S
C520 H536 0.931 . S
C521 C520 1.370 . S
C521 C525 1.408 . S
C522 C520 1.363 . S
C522 C523 1.370 . S
C522 C526 1.524 . S
C523 C515 1.503 . S
C523 C522 1.370 . S
C523 C524 1.403 . S
C524 C523 1.403 . S
C524 C525 1.404 . S
C524 C527 1.539 . S
C525 C521 1.408 . S
C525 C524 1.404 . S
C525 H537 0.930 . S
C526 C522 1.524 . S
C526 H538 0.956 . S
C526 H539 0.961 . S
C526 H540 0.961 . S
C527 C524 1.539 . S
C527 H541 0.958 . S
C527 H542 0.961 . S
C527 H543 0.960 . S
H528 C512 0.931 . S
H529 C517 0.929 . S
H530 C518 0.960 . S
H531 C518 0.962 . S
H532 C518 0.960 . S
H533 C519 0.961 . S
H534 C519 0.961 . S
H535 C519 0.961 . S
H536 C520 0.931 . S
H537 C525 0.930 . S
H538 C526 0.956 . S
H539 C526 0.961 . S
H540 C526 0.961 . S
H541 C527 0.958 . S
H542 C527 0.961 . S
H543 C527 0.960 . S
C161 C93 3.615 . S
C169 C24 3.617 . S
C193 C104 3.616 . S
C201 C13 3.616 . S
C225 C57 0.384 . S
C233 C146 0.393 . S
C257 C66 0.487 . S
C265 C137 0.351 . S
C289 C17 1.289 . S
C297 C26 1.218 . S
C321 C64 4.701 . S
C329 C53 4.704 . S
C353 C97 1.284 . S
C361 C106 1.222 . S
C385 C133 4.701 . S
C393 C144 4.704 . S
C417 C42 1.437 . S
C425 C23 1.475 1_655 S
C449 C2 1.458 1_455 S
C457 C63 1.477 1_565 S
C481 C122 1.486 . S
C489 C103 1.469 . S
C513 C143 1.488 . S
C521 C82 1.470 . S
