# Generated by pormake.
# Topology uma, (4)-cn, num edge types: 1
# Building blocks:
#     Node 0, Type 0, BuildingBlock: CEKHIL_clean_sbu_0, # of connection points: 4
#     Node 1, Type 0, BuildingBlock: CEKHIL_clean_sbu_0, # of connection points: 4
#     Node 2, Type 0, BuildingBlock: CEKHIL_clean_sbu_0, # of connection points: 4
#     Node 3, Type 0, BuildingBlock: CEKHIL_clean_sbu_0, # of connection points: 4
#     Node 4, Type 0, BuildingBlock: CEKHIL_clean_sbu_0, # of connection points: 4
#     Node 5, Type 0, BuildingBlock: CEKHIL_clean_sbu_0, # of connection points: 4
#     Node 6, Type 0, BuildingBlock: CEKHIL_clean_sbu_0, # of connection points: 4
#     Node 7, Type 0, BuildingBlock: CEKHIL_clean_sbu_0, # of connection points: 4
#     Node 8, Type 0, BuildingBlock: CEKHIL_clean_sbu_0, # of connection points: 4
#     Node 9, Type 0, BuildingBlock: CEKHIL_clean_sbu_0, # of connection points: 4
#     Node 10, Type 0, BuildingBlock: CEKHIL_clean_sbu_0, # of connection points: 4
#     Node 11, Type 0, BuildingBlock: CEKHIL_clean_sbu_0, # of connection points: 4
#     Node 12, Type 0, BuildingBlock: CEKHIL_clean_sbu_0, # of connection points: 4
#     Node 13, Type 0, BuildingBlock: CEKHIL_clean_sbu_0, # of connection points: 4
#     Node 14, Type 0, BuildingBlock: CEKHIL_clean_sbu_0, # of connection points: 4
#     Node 15, Type 0, BuildingBlock: CEKHIL_clean_sbu_0, # of connection points: 4
#     Node 16, Type 0, BuildingBlock: CEKHIL_clean_sbu_0, # of connection points: 4
#     Node 17, Type 0, BuildingBlock: CEKHIL_clean_sbu_0, # of connection points: 4
#     Node 18, Type 0, BuildingBlock: CEKHIL_clean_sbu_0, # of connection points: 4
#     Node 19, Type 0, BuildingBlock: CEKHIL_clean_sbu_0, # of connection points: 4
#     Node 20, Type 0, BuildingBlock: CEKHIL_clean_sbu_0, # of connection points: 4
#     Node 21, Type 0, BuildingBlock: CEKHIL_clean_sbu_0, # of connection points: 4
#     Node 22, Type 0, BuildingBlock: CEKHIL_clean_sbu_0, # of connection points: 4
#     Node 23, Type 0, BuildingBlock: CEKHIL_clean_sbu_0, # of connection points: 4
#     Node 24, Type 0, BuildingBlock: CEKHIL_clean_sbu_0, # of connection points: 4
#     Node 25, Type 0, BuildingBlock: CEKHIL_clean_sbu_0, # of connection points: 4
#     Node 26, Type 0, BuildingBlock: CEKHIL_clean_sbu_0, # of connection points: 4
#     Node 27, Type 0, BuildingBlock: CEKHIL_clean_sbu_0, # of connection points: 4
#     Node 28, Type 0, BuildingBlock: CEKHIL_clean_sbu_0, # of connection points: 4
#     Node 29, Type 0, BuildingBlock: CEKHIL_clean_sbu_0, # of connection points: 4
#     Node 30, Type 0, BuildingBlock: CEKHIL_clean_sbu_0, # of connection points: 4
#     Node 31, Type 0, BuildingBlock: CEKHIL_clean_sbu_0, # of connection points: 4
#     Node 32, Type 0, BuildingBlock: CEKHIL_clean_sbu_0, # of connection points: 4
#     Node 33, Type 0, BuildingBlock: CEKHIL_clean_sbu_0, # of connection points: 4
#     Node 34, Type 0, BuildingBlock: CEKHIL_clean_sbu_0, # of connection points: 4
#     Node 35, Type 0, BuildingBlock: CEKHIL_clean_sbu_0, # of connection points: 4
#     Edge 36, Type (0, 0), BuildingBlock: MIFKUJ_clean_linker_0, # of connection points: 2
#     Edge 37, Type (0, 0), BuildingBlock: MIFKUJ_clean_linker_0, # of connection points: 2
#     Edge 38, Type (0, 0), BuildingBlock: MIFKUJ_clean_linker_0, # of connection points: 2
#     Edge 39, Type (0, 0), BuildingBlock: MIFKUJ_clean_linker_0, # of connection points: 2
#     Edge 40, Type (0, 0), BuildingBlock: MIFKUJ_clean_linker_0, # of connection points: 2
#     Edge 41, Type (0, 0), BuildingBlock: MIFKUJ_clean_linker_0, # of connection points: 2
#     Edge 42, Type (0, 0), BuildingBlock: MIFKUJ_clean_linker_0, # of connection points: 2
#     Edge 43, Type (0, 0), BuildingBlock: MIFKUJ_clean_linker_0, # of connection points: 2
#     Edge 44, Type (0, 0), BuildingBlock: MIFKUJ_clean_linker_0, # of connection points: 2
#     Edge 45, Type (0, 0), BuildingBlock: MIFKUJ_clean_linker_0, # of connection points: 2
#     Edge 46, Type (0, 0), BuildingBlock: MIFKUJ_clean_linker_0, # of connection points: 2
#     Edge 47, Type (0, 0), BuildingBlock: MIFKUJ_clean_linker_0, # of connection points: 2
#     Edge 48, Type (0, 0), BuildingBlock: MIFKUJ_clean_linker_0, # of connection points: 2
#     Edge 49, Type (0, 0), BuildingBlock: MIFKUJ_clean_linker_0, # of connection points: 2
#     Edge 50, Type (0, 0), BuildingBlock: MIFKUJ_clean_linker_0, # of connection points: 2
#     Edge 51, Type (0, 0), BuildingBlock: MIFKUJ_clean_linker_0, # of connection points: 2
#     Edge 52, Type (0, 0), BuildingBlock: MIFKUJ_clean_linker_0, # of connection points: 2
#     Edge 53, Type (0, 0), BuildingBlock: MIFKUJ_clean_linker_0, # of connection points: 2
#     Edge 54, Type (0, 0), BuildingBlock: MIFKUJ_clean_linker_0, # of connection points: 2
#     Edge 55, Type (0, 0), BuildingBlock: MIFKUJ_clean_linker_0, # of connection points: 2
#     Edge 56, Type (0, 0), BuildingBlock: MIFKUJ_clean_linker_0, # of connection points: 2
#     Edge 57, Type (0, 0), BuildingBlock: MIFKUJ_clean_linker_0, # of connection points: 2
#     Edge 58, Type (0, 0), BuildingBlock: MIFKUJ_clean_linker_0, # of connection points: 2
#     Edge 59, Type (0, 0), BuildingBlock: MIFKUJ_clean_linker_0, # of connection points: 2
#     Edge 60, Type (0, 0), BuildingBlock: MIFKUJ_clean_linker_0, # of connection points: 2
#     Edge 61, Type (0, 0), BuildingBlock: MIFKUJ_clean_linker_0, # of connection points: 2
#     Edge 62, Type (0, 0), BuildingBlock: MIFKUJ_clean_linker_0, # of connection points: 2
#     Edge 63, Type (0, 0), BuildingBlock: MIFKUJ_clean_linker_0, # of connection points: 2
#     Edge 64, Type (0, 0), BuildingBlock: MIFKUJ_clean_linker_0, # of connection points: 2
#     Edge 65, Type (0, 0), BuildingBlock: MIFKUJ_clean_linker_0, # of connection points: 2
#     Edge 66, Type (0, 0), BuildingBlock: MIFKUJ_clean_linker_0, # of connection points: 2
#     Edge 67, Type (0, 0), BuildingBlock: MIFKUJ_clean_linker_0, # of connection points: 2
#     Edge 68, Type (0, 0), BuildingBlock: MIFKUJ_clean_linker_0, # of connection points: 2
#     Edge 69, Type (0, 0), BuildingBlock: MIFKUJ_clean_linker_0, # of connection points: 2
#     Edge 70, Type (0, 0), BuildingBlock: MIFKUJ_clean_linker_0, # of connection points: 2
#     Edge 71, Type (0, 0), BuildingBlock: MIFKUJ_clean_linker_0, # of connection points: 2
#     Edge 72, Type (0, 0), BuildingBlock: MIFKUJ_clean_linker_0, # of connection points: 2
#     Edge 73, Type (0, 0), BuildingBlock: MIFKUJ_clean_linker_0, # of connection points: 2
#     Edge 74, Type (0, 0), BuildingBlock: MIFKUJ_clean_linker_0, # of connection points: 2
#     Edge 75, Type (0, 0), BuildingBlock: MIFKUJ_clean_linker_0, # of connection points: 2
#     Edge 76, Type (0, 0), BuildingBlock: MIFKUJ_clean_linker_0, # of connection points: 2
#     Edge 77, Type (0, 0), BuildingBlock: MIFKUJ_clean_linker_0, # of connection points: 2
#     Edge 78, Type (0, 0), BuildingBlock: MIFKUJ_clean_linker_0, # of connection points: 2
#     Edge 79, Type (0, 0), BuildingBlock: MIFKUJ_clean_linker_0, # of connection points: 2
#     Edge 80, Type (0, 0), BuildingBlock: MIFKUJ_clean_linker_0, # of connection points: 2
#     Edge 81, Type (0, 0), BuildingBlock: MIFKUJ_clean_linker_0, # of connection points: 2
#     Edge 82, Type (0, 0), BuildingBlock: MIFKUJ_clean_linker_0, # of connection points: 2
#     Edge 83, Type (0, 0), BuildingBlock: MIFKUJ_clean_linker_0, # of connection points: 2
#     Edge 84, Type (0, 0), BuildingBlock: MIFKUJ_clean_linker_0, # of connection points: 2
#     Edge 85, Type (0, 0), BuildingBlock: MIFKUJ_clean_linker_0, # of connection points: 2
#     Edge 86, Type (0, 0), BuildingBlock: MIFKUJ_clean_linker_0, # of connection points: 2
#     Edge 87, Type (0, 0), BuildingBlock: MIFKUJ_clean_linker_0, # of connection points: 2
#     Edge 88, Type (0, 0), BuildingBlock: MIFKUJ_clean_linker_0, # of connection points: 2
#     Edge 89, Type (0, 0), BuildingBlock: MIFKUJ_clean_linker_0, # of connection points: 2
#     Edge 90, Type (0, 0), BuildingBlock: MIFKUJ_clean_linker_0, # of connection points: 2
#     Edge 91, Type (0, 0), BuildingBlock: MIFKUJ_clean_linker_0, # of connection points: 2
#     Edge 92, Type (0, 0), BuildingBlock: MIFKUJ_clean_linker_0, # of connection points: 2
#     Edge 93, Type (0, 0), BuildingBlock: MIFKUJ_clean_linker_0, # of connection points: 2
#     Edge 94, Type (0, 0), BuildingBlock: MIFKUJ_clean_linker_0, # of connection points: 2
#     Edge 95, Type (0, 0), BuildingBlock: MIFKUJ_clean_linker_0, # of connection points: 2
#     Edge 96, Type (0, 0), BuildingBlock: MIFKUJ_clean_linker_0, # of connection points: 2
#     Edge 97, Type (0, 0), BuildingBlock: MIFKUJ_clean_linker_0, # of connection points: 2
#     Edge 98, Type (0, 0), BuildingBlock: MIFKUJ_clean_linker_0, # of connection points: 2
#     Edge 99, Type (0, 0), BuildingBlock: MIFKUJ_clean_linker_0, # of connection points: 2
#     Edge 100, Type (0, 0), BuildingBlock: MIFKUJ_clean_linker_0, # of connection points: 2
#     Edge 101, Type (0, 0), BuildingBlock: MIFKUJ_clean_linker_0, # of connection points: 2
#     Edge 102, Type (0, 0), BuildingBlock: MIFKUJ_clean_linker_0, # of connection points: 2
#     Edge 103, Type (0, 0), BuildingBlock: MIFKUJ_clean_linker_0, # of connection points: 2
#     Edge 104, Type (0, 0), BuildingBlock: MIFKUJ_clean_linker_0, # of connection points: 2
#     Edge 105, Type (0, 0), BuildingBlock: MIFKUJ_clean_linker_0, # of connection points: 2
#     Edge 106, Type (0, 0), BuildingBlock: MIFKUJ_clean_linker_0, # of connection points: 2
#     Edge 107, Type (0, 0), BuildingBlock: MIFKUJ_clean_linker_0, # of connection points: 2
# Relax obj value: 0.191
# Max RMSD: 0.425
# Mean RMSD: 0.421
data_MOF--net-uma--node1-CEKHIL_clean_sbu_0--edge1-MIFKUJ_clean_linker_0
_symmetry_space_group_name_H-M    P1
_symmetry_Int_Tables_number       1
_symmetry_cell_setting            triclinic
loop_
_symmetry_equiv_pos_as_xyz
'x, y, z'
_cell_length_a     98.873609
_cell_length_b     98.750686
_cell_length_c     47.777951
_cell_angle_alpha  89.998455
_cell_angle_beta   90.021701
_cell_angle_gamma 119.98513
loop_
_atom_site_label
_atom_site_type_symbol
_atom_site_fract_x
_atom_site_fract_y
_atom_site_fract_z
_atom_type_partial_charge
Co0 Co 0.0931 0.39088 0.00388 0.0
O1 O 0.11335 0.40253 0.98671 0.0
O2 O 0.10229 0.37793 1.00149 0.0
C3 C 0.09581 0.40934 0.03411 0.0
O4 O 0.07331 0.375 0.0233 0.0
Co5 Co 0.06785 0.39998 0.99859 0.0
O6 O 0.05618 0.38341 0.0268 0.0
C7 C 0.07216 0.38298 0.9521 0.0
C8 C 0.11424 0.38994 0.99037 0.0
C9 C 0.06036 0.37341 0.03214 0.0
O10 O 0.08302 0.38285 0.96655 0.0
O11 O 0.06485 0.3899 0.96042 0.0
O12 O 0.10183 0.40057 0.03926 0.0
O13 O 0.08957 0.4079 0.00954 0.0
Co14 Co 0.59987 0.70412 0.01748 0.0
O15 O 0.59056 0.71431 0.99724 0.0
O16 O 0.61496 0.72584 0.01249 0.0
C17 C 0.58027 0.69285 0.05176 0.0
O18 O 0.61216 0.69683 0.03793 0.0
Co19 Co 0.58689 0.68643 0.99293 0.0
O20 O 0.59833 0.67622 0.01167 0.0
C21 C 0.60597 0.7006 0.95706 0.0
C22 C 0.60403 0.72698 0.9996 0.0
C23 C 0.60911 0.68333 0.02991 0.0
O24 O 0.61084 0.70218 0.98216 0.0
O25 O 0.59147 0.6944 0.95369 0.0
O26 O 0.59105 0.7071 0.05108 0.0
O27 O 0.57987 0.68398 0.03151 0.0
Co28 Co 0.28705 0.89316 0.00944 0.0
O29 O 0.27822 0.87226 0.99526 0.0
O30 O 0.26526 0.88495 0.00274 0.0
C31 C 0.30044 0.89051 0.04486 0.0
O32 O 0.29148 0.91411 0.0245 0.0
Co33 Co 0.32155 0.91674 0.00747 0.0
O34 O 0.31666 0.92825 0.03585 0.0
C35 C 0.30249 0.91342 0.95802 0.0
C36 C 0.2651 0.87231 0.99468 0.0
C37 C 0.30287 0.92613 0.03602 0.0
O38 O 0.29124 0.9018 0.97057 0.0
O39 O 0.31607 0.9214 0.96901 0.0
O40 O 0.28564 0.88568 0.04686 0.0
O41 O 0.30673 0.89557 0.02032 0.0
Co42 Co 0.3962 0.1016 1.00037 0.0
O43 O 0.4046 0.12287 0.01217 0.0
O44 O 0.38003 0.10689 0.99922 0.0
C45 C 0.41527 0.1056 0.97047 0.0
O46 O 0.38326 0.07947 0.98597 0.0
Co47 Co 0.41206 0.08271 0.01436 0.0
O48 O 0.39697 0.06706 0.98781 0.0
C49 C 0.39262 0.08584 0.05741 0.0
C50 C 0.39066 0.12065 0.00769 0.0
C51 C 0.38491 0.06765 0.98047 0.0
O52 O 0.39016 0.09423 0.03994 0.0
O53 O 0.40141 0.08011 0.0518 0.0
O54 O 0.40428 0.10842 0.96331 0.0
O55 O 0.4156 0.10207 0.99663 0.0
Co56 Co 0.8942 0.29274 0.00613 0.0
O57 O 0.87383 0.28496 0.02233 0.0
O58 O 0.88555 0.27109 0.01507 0.0
C59 C 0.89098 0.30519 0.96967 0.0
O60 O 0.91451 0.29609 0.98955 0.0
Co61 Co 0.91822 0.3277 0.00324 0.0
O62 O 0.92981 0.32122 0.97792 0.0
C63 C 0.9161 0.3103 0.05477 0.0
C64 C 0.87334 0.27157 0.02366 0.0
C65 C 0.92694 0.30714 0.97832 0.0
O66 O 0.90431 0.29833 0.04398 0.0
O67 O 0.92338 0.3235 0.04218 0.0
O68 O 0.88546 0.29021 0.9692 0.0
O69 O 0.89688 0.31215 0.99336 0.0
Co70 Co 0.70154 0.59883 0.99038 0.0
O71 O 0.71269 0.58924 0.00529 0.0
O72 O 0.72345 0.61321 0.98742 0.0
C73 C 0.68467 0.57879 0.96389 0.0
O74 O 0.69417 0.61252 0.97247 0.0
Co75 Co 0.66721 0.58641 0.00612 0.0
O76 O 0.66818 0.60117 0.97694 0.0
C77 C 0.69147 0.60673 0.04601 0.0
C78 C 0.72522 0.60223 0.99872 0.0
C79 C 0.68116 0.61191 0.96727 0.0
O80 O 0.70156 0.60785 0.02794 0.0
O81 O 0.67675 0.59783 0.04244 0.0
O82 O 0.69877 0.58817 0.95532 0.0
O83 O 0.68159 0.58052 0.98966 0.0
Co84 Co 0.89091 0.60246 1.00258 0.0
O85 O 0.86954 0.59171 0.01445 0.0
O86 O 0.88352 0.61698 0.00374 0.0
C87 C 0.88911 0.58514 0.97031 0.0
O88 O 0.9126 0.61765 0.9888 0.0
Co89 Co 0.9125 0.58906 0.01308 0.0
O90 O 0.9262 0.60518 0.98574 0.0
C91 C 0.90839 0.60716 0.05789 0.0
C92 C 0.87028 0.60516 0.01148 0.0
C93 C 0.92472 0.61709 0.9812 0.0
O94 O 0.89826 0.60801 0.04233 0.0
O95 O 0.91548 0.59987 0.05043 0.0
O96 O 0.88476 0.59524 0.96477 0.0
O97 O 0.89268 0.58441 0.99626 0.0
Co98 Co 0.39092 0.28585 1.00136 0.0
O99 O 0.40009 0.27346 0.01129 0.0
O100 O 0.37472 0.26441 0.0047 0.0
C101 C 0.40751 0.29927 0.96645 0.0
O102 O 0.37718 0.29484 0.99077 0.0
Co103 Co 0.40919 0.32145 0.01029 0.0
O104 O 0.39156 0.32103 0.99017 0.0
C105 C 0.39059 0.30098 0.05691 0.0
C106 C 0.38595 0.26163 0.01051 0.0
C107 C 0.37869 0.30837 0.98674 0.0
O108 O 0.38797 0.28915 0.04188 0.0
O109 O 0.39898 0.3151 0.04843 0.0
O110 O 0.3959 0.28529 0.96252 0.0
O111 O 0.41 0.30424 0.99218 0.0
Co112 Co 0.71222 0.10464 1.00115 0.0
O113 O 0.71928 0.12451 0.01891 0.0
O114 O 0.73433 0.1147 0.00668 0.0
C115 C 0.69732 0.10704 0.96827 0.0
O116 O 0.70944 0.08504 0.98223 0.0
Co117 Co 0.67786 0.07883 0.00278 0.0
O118 O 0.68415 0.06978 0.9718 0.0
C119 C 0.69821 0.08199 0.05046 0.0
C120 C 0.73314 0.12613 0.01753 0.0
C121 C 0.69831 0.07305 0.97007 0.0
O122 O 0.70918 0.09408 0.03832 0.0
O123 O 0.68439 0.07428 0.04028 0.0
O124 O 0.71232 0.11363 0.96534 0.0
O125 O 0.69178 0.10057 0.99244 0.0
Co126 Co 0.59621 0.88726 0.01254 0.0
O127 O 0.58535 0.86504 0.00705 0.0
O128 O 0.611 0.88013 0.01241 0.0
C129 C 0.58047 0.888 0.04526 0.0
O130 O 0.61175 0.91018 0.01855 0.0
Co131 Co 0.58148 0.90709 0.99671 0.0
O132 O 0.60009 0.92457 0.0145 0.0
C133 C 0.5992 0.90068 0.95425 0.0
C134 C 0.59908 0.86631 0.00806 0.0
C135 C 0.61201 0.92327 0.01963 0.0
O136 O 0.59946 0.89082 0.97133 0.0
O137 O 0.59226 0.90837 0.95989 0.0
O138 O 0.59124 0.88473 0.05174 0.0
O139 O 0.57818 0.88907 0.01876 0.0
Co140 Co 0.10127 0.70629 0.01064 0.0
O141 O 0.12282 0.71625 1.00035 0.0
O142 O 0.10934 0.72839 0.00809 0.0
C143 C 0.1021 0.69085 0.04407 0.0
O144 O 0.07926 0.70011 0.02279 0.0
Co145 Co 0.07968 0.67143 0.9997 0.0
O146 O 0.06509 0.67398 0.02494 0.0
C147 C 0.08701 0.69328 0.95281 0.0
C148 C 0.1225 0.72922 1.00154 0.0
C149 C 0.0668 0.68745 0.02973 0.0
O150 O 0.09499 0.70437 0.97016 0.0
O151 O 0.08053 0.67886 0.95986 0.0
O152 O 0.10651 0.70535 0.04921 0.0
O153 O 0.09904 0.68643 0.01812 0.0
Co154 Co 0.28105 0.39256 0.00443 0.0
O155 O 0.27118 0.40373 0.9911 0.0
O156 O 0.25896 0.37847 1.002 0.0
C157 C 0.29612 0.40993 0.03694 0.0
O158 O 0.28727 0.37724 0.01949 0.0
Co159 Co 0.31592 0.40565 0.99435 0.0
O160 O 0.31339 0.3896 0.02214 0.0
C161 C 0.29418 0.38885 0.94847 0.0
C162 C 0.25818 0.39054 0.99333 0.0
C163 C 0.3 0.37783 0.02722 0.0
O164 O 0.2832 0.38676 0.96521 0.0
O165 O 0.30862 0.39699 0.95527 0.0
O166 O 0.28155 0.39999 0.0417 0.0
O167 O 0.30087 0.41047 0.01132 0.0
Co168 Co 0.77269 0.73001 0.32487 0.0
O169 O 0.79123 0.74131 0.30227 0.0
O170 O 0.78216 0.71735 0.31863 0.0
C171 C 0.77913 0.7495 0.35906 0.0
O172 O 0.75445 0.71622 0.34757 0.0
Co173 Co 0.76599 0.74103 0.30066 0.0
O174 O 0.74563 0.72908 0.32344 0.0
C175 C 0.76048 0.72138 0.26576 0.0
C176 C 0.79273 0.72903 0.30434 0.0
C177 C 0.74334 0.7187 0.34183 0.0
O178 O 0.75908 0.71724 0.29132 0.0
O179 O 0.76752 0.73582 0.26092 0.0
O180 O 0.78498 0.74058 0.35744 0.0
O181 O 0.76981 0.74839 0.33911 0.0
Co182 Co 0.26662 0.04344 0.33067 0.0
O183 O 0.25474 0.05062 0.30955 0.0
O184 O 0.27861 0.06569 0.32625 0.0
C185 C 0.24745 0.02944 0.36492 0.0
O186 O 0.28112 0.03937 0.35215 0.0
Co187 Co 0.25601 0.0248 0.30601 0.0
O188 O 0.26857 0.01729 0.32887 0.0
C189 C 0.27506 0.03992 0.27058 0.0
C190 C 0.26667 0.06454 0.31284 0.0
C191 C 0.27892 0.02584 0.34686 0.0
O192 O 0.27933 0.04383 0.29592 0.0
O193 O 0.26081 0.03071 0.26616 0.0
O194 O 0.25615 0.04423 0.3641 0.0
O195 O 0.24866 0.02164 0.34433 0.0
Co196 Co 0.95029 0.22949 0.32572 0.0
O197 O 0.94423 0.2096 0.30887 0.0
O198 O 0.92879 0.21972 0.31449 0.0
C199 C 0.96229 0.22675 0.36353 0.0
O200 O 0.95205 0.24912 0.34269 0.0
Co201 Co 0.98484 0.25471 0.33174 0.0
O202 O 0.97636 0.26358 0.3593 0.0
C203 C 0.96885 0.25218 0.27829 0.0
C204 C 0.93049 0.20814 0.30606 0.0
C205 C 0.96232 0.26066 0.3571 0.0
O206 O 0.95666 0.2403 0.28843 0.0
O207 O 0.98171 0.25955 0.29189 0.0
O208 O 0.94721 0.22033 0.36256 0.0
O209 O 0.96961 0.23309 0.34036 0.0
Co210 Co 0.06279 0.43802 0.34597 0.0
O211 O 0.07784 0.45769 0.36221 0.0
O212 O 0.05281 0.44991 0.35444 0.0
C213 C 0.07791 0.43853 0.31048 0.0
O214 O 0.04393 0.41927 0.329 0.0
Co215 Co 0.06847 0.41001 0.34373 0.0
O216 O 0.04983 0.40061 0.31913 0.0
C217 C 0.0546 0.41508 0.39458 0.0
C218 C 0.06644 0.46064 0.36318 0.0
C219 C 0.04056 0.40603 0.31826 0.0
O220 O 0.05632 0.42773 0.38364 0.0
O221 O 0.0593 0.40656 0.38262 0.0
O222 O 0.07053 0.44628 0.30899 0.0
O223 O 0.07726 0.43194 0.33429 0.0
Co224 Co 0.55294 0.62665 0.36212 0.0
O225 O 0.53176 0.61773 0.37461 0.0
O226 O 0.54381 0.60435 0.36512 0.0
C227 C 0.55182 0.64228 0.32912 0.0
O228 O 0.57431 0.63171 0.3479 0.0
Co229 Co 0.57598 0.66182 0.37082 0.0
O230 O 0.58926 0.65783 0.34499 0.0
C231 C 0.57145 0.6398 0.41644 0.0
C232 C 0.53119 0.60434 0.37284 0.0
C233 C 0.58689 0.6441 0.34046 0.0
O234 O 0.56083 0.62874 0.40163 0.0
O235 O 0.57855 0.6541 0.4085 0.0
O236 O 0.54655 0.62758 0.3242 0.0
O237 O 0.55597 0.64683 0.35475 0.0
Co238 Co 0.37386 0.93346 0.35042 0.0
O239 O 0.38365 0.92498 0.37384 0.0
O240 O 0.39547 0.94889 0.35613 0.0
C241 C 0.36355 0.91329 0.31697 0.0
O242 O 0.36641 0.94455 0.32678 0.0
Co243 Co 0.35629 0.92053 0.3749 0.0
O244 O 0.34523 0.92938 0.35087 0.0
C245 C 0.3686 0.94163 0.40872 0.0
C246 C 0.39634 0.93835 0.37099 0.0
C247 C 0.35215 0.93987 0.33207 0.0
O248 O 0.37088 0.94536 0.38297 0.0
O249 O 0.36244 0.92734 0.41445 0.0
O250 O 0.37779 0.92399 0.31876 0.0
O251 O 0.35435 0.91287 0.33663 0.0
Co252 Co 0.55583 0.93137 0.35192 0.0
O253 O 0.53528 0.91901 0.36781 0.0
O254 O 0.54603 0.94376 0.35404 0.0
C255 C 0.55463 0.91379 0.32073 0.0
O256 O 0.57593 0.94794 0.33425 0.0
Co257 Co 0.58133 0.9225 0.35927 0.0
O258 O 0.5932 0.93952 0.33205 0.0
C259 C 0.57619 0.93964 0.40458 0.0
C260 C 0.53413 0.93148 0.36464 0.0
C261 C 0.58897 0.94944 0.32627 0.0
O262 O 0.56503 0.93909 0.39001 0.0
O263 O 0.58405 0.93323 0.39661 0.0
O264 O 0.54818 0.92216 0.31554 0.0
O265 O 0.56009 0.91487 0.3459 0.0
Co266 Co 0.06612 0.62543 0.35521 0.0
O267 O 0.07928 0.61817 0.37071 0.0
O268 O 0.05405 0.6032 0.36069 0.0
C269 C 0.08262 0.64044 0.32125 0.0
O270 O 0.0491 0.62844 0.33766 0.0
Co271 Co 0.07596 0.66033 0.35931 0.0
O272 O 0.05808 0.65421 0.33378 0.0
C273 C 0.05997 0.63992 0.4073 0.0
C274 C 0.06699 0.60434 0.36965 0.0
C275 C 0.04782 0.64004 0.32889 0.0
O276 O 0.05967 0.62856 0.39363 0.0
O277 O 0.06651 0.6539 0.3978 0.0
O278 O 0.07411 0.62544 0.3182 0.0
O279 O 0.08241 0.64581 0.34598 0.0
Co280 Co 0.3743 0.43696 0.34641 0.0
O281 O 0.37813 0.45602 0.36421 0.0
O282 O 0.39502 0.44745 0.36157 0.0
C283 C 0.36387 0.44017 0.30692 0.0
O284 O 0.37499 0.41849 0.32931 0.0
Co285 Co 0.34156 0.41019 0.33206 0.0
O286 O 0.35289 0.40394 0.3056 0.0
C287 C 0.35587 0.41063 0.38679 0.0
C288 C 0.39198 0.45823 0.36951 0.0
C289 C 0.36668 0.40732 0.31225 0.0
O290 O 0.36646 0.42485 0.38222 0.0
O291 O 0.34493 0.40255 0.36931 0.0
O292 O 0.37888 0.44718 0.31044 0.0
O293 O 0.35545 0.4326 0.32843 0.0
Co294 Co 0.26974 0.22789 0.33093 0.0
O295 O 0.25624 0.20795 0.31367 0.0
O296 O 0.28096 0.21692 0.32598 0.0
C297 C 0.25306 0.22682 0.36406 0.0
O298 O 0.28722 0.2474 0.34913 0.0
Co299 Co 0.26213 0.25443 0.32721 0.0
O300 O 0.27897 0.26462 0.3554 0.0
C301 C 0.27795 0.24936 0.2796 0.0
C302 C 0.26814 0.20578 0.31518 0.0
C303 C 0.28905 0.26033 0.35889 0.0
O304 O 0.27725 0.23783 0.29324 0.0
O305 O 0.27198 0.2574 0.28886 0.0
O306 O 0.26086 0.21958 0.36719 0.0
O307 O 0.25403 0.23295 0.33952 0.0
Co308 Co 0.77113 0.04003 0.3249 0.0
O309 O 0.79227 0.04819 0.31221 0.0
O310 O 0.77998 0.06175 0.31606 0.0
C311 C 0.77265 0.02723 0.36264 0.0
O312 O 0.74992 0.03621 0.33748 0.0
Co313 Co 0.74729 0.00496 0.32566 0.0
O314 O 0.735 0.01113 0.34983 0.0
C315 C 0.7518 0.02282 0.27357 0.0
C316 C 0.7926 0.06146 0.30963 0.0
C317 C 0.73742 0.02503 0.34824 0.0
O318 O 0.76307 0.03474 0.28557 0.0
O319 O 0.74393 0.00956 0.28575 0.0
O320 O 0.77792 0.04217 0.3633 0.0
O321 O 0.76805 0.02057 0.33832 0.0
Co322 Co 0.95096 0.72408 0.33178 0.0
O323 O 0.94393 0.73809 0.31999 0.0
O324 O 0.92917 0.71225 0.32257 0.0
C325 C 0.96304 0.73823 0.37123 0.0
O326 O 0.95561 0.70739 0.3423 0.0
Co327 Co 0.98283 0.74076 0.31488 0.0
O328 O 0.981 0.72072 0.33018 0.0
C329 C 0.96375 0.72539 0.27072 0.0
C330 C 0.93041 0.72565 0.31639 0.0
C331 C 0.96899 0.70839 0.33957 0.0
O332 O 0.95426 0.72021 0.29131 0.0
O333 O 0.97767 0.73639 0.27433 0.0
O334 O 0.94835 0.72833 0.36995 0.0
O335 O 0.97096 0.73926 0.34878 0.0
Co336 Co 0.44236 0.07194 0.65191 0.0
O337 O 0.46283 0.08577 0.63696 0.0
O338 O 0.45102 0.05981 0.63806 0.0
C339 C 0.44488 0.08471 0.69206 0.0
O340 O 0.42203 0.05367 0.66575 0.0
Co341 Co 0.41759 0.08118 0.66156 0.0
O342 O 0.40766 0.06255 0.6861 0.0
C343 C 0.41864 0.06662 0.60816 0.0
C344 C 0.46311 0.07304 0.63111 0.0
C345 C 0.41021 0.05145 0.68038 0.0
O346 O 0.43259 0.07004 0.6143 0.0
O347 O 0.41029 0.06974 0.6245 0.0
O348 O 0.45057 0.07545 0.68937 0.0
O349 O 0.43929 0.08747 0.66951 0.0
Co350 Co 0.93337 0.37432 0.65146 0.0
O351 O 0.91889 0.37983 0.63539 0.0
O352 O 0.9446 0.3953 0.63766 0.0
C353 C 0.92014 0.36377 0.69128 0.0
O354 O 0.95204 0.37342 0.66681 0.0
Co355 Co 0.92515 0.34043 0.6618 0.0
O356 O 0.94357 0.35009 0.68692 0.0
C357 C 0.93713 0.35459 0.6064 0.0
C358 C 0.93108 0.39343 0.63058 0.0
C359 C 0.95434 0.36404 0.68202 0.0
O360 O 0.93637 0.36659 0.61446 0.0
O361 O 0.93308 0.34262 0.62205 0.0
O362 O 0.92876 0.37878 0.68839 0.0
O363 O 0.91833 0.3555 0.66895 0.0
Co364 Co 0.62737 0.55743 0.65574 0.0
O365 O 0.61955 0.53693 0.63996 0.0
O366 O 0.60526 0.5478 0.65098 0.0
C367 C 0.64253 0.55571 0.68875 0.0
O368 O 0.6307 0.57761 0.67288 0.0
Co369 Co 0.662 0.58266 0.65183 0.0
O370 O 0.65628 0.59438 0.67831 0.0
C371 C 0.64098 0.57896 0.60502 0.0
C372 C 0.60592 0.53589 0.64115 0.0
C373 C 0.64205 0.59058 0.68181 0.0
O374 O 0.63016 0.56695 0.61762 0.0
O375 O 0.65487 0.58691 0.61479 0.0
O376 O 0.62762 0.54951 0.69251 0.0
O377 O 0.64778 0.56131 0.66399 0.0
Co378 Co 0.72363 0.77037 0.67069 0.0
O379 O 0.73684 0.78947 0.69083 0.0
O380 O 0.71229 0.78105 0.67883 0.0
C381 C 0.74103 0.77507 0.63358 0.0
O382 O 0.70785 0.75173 0.65081 0.0
Co383 Co 0.73452 0.76117 0.69269 0.0
O384 O 0.71963 0.7408 0.67224 0.0
C385 C 0.71795 0.75977 0.73123 0.0
C386 C 0.72493 0.79163 0.69098 0.0
C387 C 0.70892 0.73966 0.65575 0.0
O388 O 0.71246 0.75855 0.70666 0.0
O389 O 0.73226 0.76429 0.73321 0.0
O390 O 0.73249 0.78126 0.63633 0.0
O391 O 0.74064 0.76607 0.65362 0.0
Co392 Co 0.22476 0.95545 0.67706 0.0
O393 O 0.20564 0.94845 0.69793 0.0
O394 O 0.2151 0.9334 0.68439 0.0
C395 C 0.21927 0.96823 0.64092 0.0
O396 O 0.2434 0.95942 0.65633 0.0
Co397 Co 0.23115 0.97348 0.70018 0.0
O398 O 0.25221 0.98133 0.67973 0.0
C399 C 0.2353 0.95976 0.73725 0.0
C400 C 0.20419 0.93465 0.69712 0.0
C401 C 0.25466 0.97287 0.6624 0.0
O402 O 0.23763 0.95686 0.71233 0.0
O403 O 0.22779 0.96684 0.74025 0.0
O404 O 0.21327 0.95345 0.64316 0.0
O405 O 0.22826 0.97664 0.66107 0.0
Co406 Co 0.0432 0.2719 0.67425 0.0
O407 O 0.04999 0.25836 0.69009 0.0
O408 O 0.06467 0.28412 0.68471 0.0
C409 C 0.03144 0.25758 0.636 0.0
O410 O 0.04077 0.28968 0.65863 0.0
Co411 Co 0.00848 0.26186 0.6681 0.0
O412 O 0.0164 0.28006 0.6425 0.0
C413 C 0.02454 0.27521 0.72179 0.0
C414 C 0.06352 0.27097 0.69243 0.0
C415 C 0.03038 0.29125 0.6452 0.0
O416 O 0.03678 0.27554 0.71204 0.0
O417 O 0.0118 0.2699 0.70789 0.0
O418 O 0.04646 0.26663 0.63704 0.0
O419 O 0.02401 0.25593 0.65934 0.0
Co420 Co 0.22579 0.26806 0.68088 0.0
O421 O 0.20419 0.25424 0.69006 0.0
O422 O 0.21597 0.28021 0.68791 0.0
C423 C 0.2269 0.25531 0.64286 0.0
O424 O 0.24745 0.28621 0.67219 0.0
Co425 Co 0.2501 0.25746 0.68379 0.0
O426 O 0.26368 0.27705 0.66328 0.0
C427 C 0.24388 0.27137 0.73354 0.0
C428 C 0.20338 0.26692 0.69245 0.0
C429 C 0.26073 0.2882 0.66428 0.0
O430 O 0.23166 0.26986 0.72142 0.0
O431 O 0.25302 0.26731 0.72207 0.0
O432 O 0.22137 0.26473 0.64142 0.0
O433 O 0.23001 0.25233 0.6678 0.0
Co434 Co 0.72076 0.94962 0.67635 0.0
O435 O 0.73407 0.94329 0.69472 0.0
O436 O 0.70912 0.92759 0.68482 0.0
C437 C 0.73714 0.96185 0.63781 0.0
O438 O 0.70497 0.95332 0.65887 0.0
Co439 Co 0.73337 0.96859 0.69856 0.0
O440 O 0.7187 0.97549 0.68148 0.0
C441 C 0.71623 0.95491 0.73755 0.0
C442 C 0.72196 0.92937 0.6956 0.0
C443 C 0.70702 0.96664 0.66593 0.0
O444 O 0.7106 0.95076 0.71311 0.0
O445 O 0.73078 0.96355 0.73944 0.0
O446 O 0.72843 0.94716 0.64096 0.0
O447 O 0.73766 0.97064 0.65837 0.0
Co448 Co 0.04606 0.77051 0.67726 0.0
O449 O 0.05263 0.79032 0.69492 0.0
O450 O 0.06814 0.78082 0.68443 0.0
C451 C 0.0316 0.77259 0.64285 0.0
O452 O 0.0436 0.75085 0.65885 0.0
Co453 Co 0.01156 0.74482 0.67799 0.0
O454 O 0.01839 0.7361 0.64722 0.0
C455 C 0.03095 0.74843 0.72727 0.0
C456 C 0.06655 0.79206 0.6951 0.0
C457 C 0.03248 0.73909 0.64611 0.0
O458 O 0.0423 0.76001 0.71471 0.0
O459 O 0.01721 0.74088 0.71675 0.0
O460 O 0.04668 0.77937 0.6409 0.0
O461 O 0.02581 0.76635 0.66704 0.0
Co462 Co 0.92985 0.55668 0.6616 0.0
O463 O 0.9162 0.53607 0.64693 0.0
O464 O 0.94141 0.54607 0.65635 0.0
C465 C 0.91381 0.55602 0.69545 0.0
O466 O 0.94771 0.57691 0.67695 0.0
Co467 Co 0.9218 0.58289 0.6581 0.0
O468 O 0.93985 0.59438 0.68354 0.0
C469 C 0.93732 0.57751 0.6101 0.0
C470 C 0.9284 0.53435 0.64742 0.0
C471 C 0.95007 0.5902 0.68569 0.0
O472 O 0.936 0.56551 0.62298 0.0
O473 O 0.93196 0.58595 0.62004 0.0
O474 O 0.92222 0.54944 0.69893 0.0
O475 O 0.91403 0.56151 0.67064 0.0
Co476 Co 0.43997 0.37396 0.65326 0.0
O477 O 0.46075 0.38095 0.63984 0.0
O478 O 0.44973 0.3957 0.6442 0.0
C479 C 0.44038 0.36082 0.69117 0.0
O480 O 0.41944 0.37133 0.66687 0.0
Co481 Co 0.41525 0.33902 0.65278 0.0
O482 O 0.40352 0.34599 0.67679 0.0
C483 C 0.41961 0.35761 0.60223 0.0
C484 C 0.46183 0.39457 0.63729 0.0
C485 C 0.40671 0.3602 0.67698 0.0
O486 O 0.43128 0.36905 0.61439 0.0
O487 O 0.41167 0.34407 0.61335 0.0
O488 O 0.44689 0.37593 0.69144 0.0
O489 O 0.43589 0.35418 0.66678 0.0
Co490 Co 0.62158 0.06867 0.65618 0.0
O491 O 0.61409 0.08182 0.64177 0.0
O492 O 0.60002 0.05597 0.64613 0.0
C493 C 0.63385 0.08258 0.69427 0.0
O494 O 0.62521 0.05141 0.67085 0.0
Co495 Co 0.65679 0.08036 0.65741 0.0
O496 O 0.65026 0.063 0.68438 0.0
C497 C 0.63842 0.06379 0.60776 0.0
C498 C 0.60082 0.069 0.63852 0.0
C499 C 0.63657 0.05114 0.68345 0.0
O500 O 0.62721 0.06528 0.6176 0.0
O501 O 0.65144 0.06879 0.62049 0.0
O502 O 0.61881 0.07351 0.69396 0.0
O503 O 0.64081 0.08497 0.67017 0.0
H504 H 0.95615 0.32813 0.95973 0.0
H505 H 0.97936 0.32661 0.96901 0.0
H506 H 0.95109 0.27816 0.99268 0.0
H507 H 0.92754 0.2798 0.9848 0.0
H508 H 0.96913 0.29502 0.03477 0.0
H509 H 0.97932 0.29017 0.93832 0.0
H510 H 0.97948 0.29714 0.88879 0.0
H511 H 0.01468 0.34454 0.90623 0.0
H512 H 0.01453 0.338 0.9559 0.0
H513 H 0.06139 0.34624 0.03133 0.0
H514 H 0.03843 0.32027 0.02891 0.0
H515 H 0.00953 0.33932 0.0547 0.0
H516 H 0.0323 0.3653 0.05669 0.0
H517 H 0.02041 0.32186 0.98687 0.0
H518 H 0.97776 0.31529 0.07508 0.0
H519 H 0.97698 0.31398 0.12664 0.0
H520 H 0.0071 0.29435 0.12614 0.0
H521 H 0.00841 0.2959 0.07457 0.0
C522 C 0.95475 0.31694 0.96588 0.0
C523 C 0.93997 0.30426 0.97243 0.0
C524 C 0.96814 0.31604 0.97098 0.0
C525 C 0.96701 0.30227 0.98176 0.0
C526 C 0.95222 0.28893 0.98464 0.0
C527 C 0.93876 0.28989 0.97993 0.0
C528 C 0.98094 0.30307 0.9951 0.0
C529 C 0.98031 0.30046 0.02412 0.0
C530 C 0.99554 0.30997 0.98128 0.0
C531 C 0.99692 0.31353 0.95089 0.0
C532 C 0.9872 0.30204 0.93154 0.0
C533 C 0.98725 0.30595 0.90343 0.0
C534 C -0.00295 0.32129 0.8944 0.0
C535 C 0.00709 0.33267 0.91328 0.0
C536 C 0.00707 0.32885 0.94141 0.0
C537 C 0.05026 0.34482 0.03784 0.0
C538 C 0.04852 0.35792 0.04296 0.0
C539 C 0.03714 0.32988 0.03663 0.0
C540 C 0.02225 0.32789 0.0411 0.0
C541 C 0.02091 0.34054 0.05119 0.0
C542 C 0.03397 0.3555 0.05203 0.0
C543 C 0.00857 0.31519 0.02659 0.0
C544 C 0.00918 0.31548 0.99725 0.0
C545 C 0.99402 0.3067 0.04011 0.0
C546 C 0.99304 0.30554 0.071 0.0
C547 C 0.9841 0.31056 0.08595 0.0
C548 C 0.9836 0.30983 0.11517 0.0
C549 C 0.99178 0.30389 0.12964 0.0
C550 C 0.00069 0.29887 0.11492 0.0
C551 C 0.00141 0.29977 0.08571 0.0
H552 H 0.99129 0.30326 0.15226 0.0
H553 H 0.99682 0.32443 0.87282 0.0
H554 H 0.65722 0.61353 0.94231 0.0
H555 H 0.65458 0.63664 0.94306 0.0
H556 H 0.70311 0.66489 0.96606 0.0
H557 H 0.70585 0.64171 0.96519 0.0
H558 H 0.68423 0.66074 0.00886 0.0
H559 H 0.68819 0.67961 0.91809 0.0
H560 H 0.68544 0.67971 0.86685 0.0
H561 H 0.63562 0.65742 0.87518 0.0
H562 H 0.63799 0.6569 0.9264 0.0
H563 H 0.63908 0.70063 0.04899 0.0
H564 H 0.66015 0.69572 0.03577 0.0
H565 H 0.6262 0.64975 0.00664 0.0
H566 H 0.60509 0.65446 0.01979 0.0
H567 H 0.64805 0.67548 0.96485 0.0
H568 H 0.64515 0.64852 0.05267 0.0
H569 H 0.64777 0.64704 0.10373 0.0
H570 H 0.69563 0.6837 0.09924 0.0
H571 H 0.69322 0.68561 0.04823 0.0
C572 C 0.66754 0.62478 0.94605 0.0
C573 C 0.68152 0.62575 0.95495 0.0
C574 C 0.66609 0.63809 0.94619 0.0
C575 C 0.67857 0.65243 0.95539 0.0
C576 C 0.6933 0.65389 0.9592 0.0
C577 C 0.69481 0.64057 0.95879 0.0
C578 C 0.67468 0.66329 0.9698 0.0
C579 C 0.6768 0.66455 0.999 0.0
C580 C 0.66494 0.66818 0.95711 0.0
C581 C 0.66331 0.66826 0.92621 0.0
C582 C 0.67663 0.67463 0.90902 0.0
C583 C 0.67513 0.67477 0.87995 0.0
C584 C 0.66036 0.66859 0.86777 0.0
C585 C 0.64705 0.66224 0.88465 0.0
C586 C 0.64848 0.66206 0.91373 0.0
C587 C 0.63606 0.68917 0.04109 0.0
C588 C 0.62047 0.67807 0.03458 0.0
C589 C 0.64813 0.68647 0.03339 0.0
C590 C 0.64462 0.67258 0.01965 0.0
C591 C 0.62904 0.66064 0.01694 0.0
C592 C 0.617 0.66331 0.02461 0.0
C593 C 0.65662 0.6714 0.00349 0.0
C594 C 0.65605 0.67227 0.97426 0.0
C595 C 0.66764 0.66828 0.01607 0.0
C596 C 0.66891 0.66744 0.04678 0.0
C597 C 0.65615 0.65647 0.06266 0.0
C598 C 0.65762 0.65549 0.09158 0.0
C599 C 0.67185 0.66534 0.10478 0.0
C600 C 0.68462 0.67615 0.08906 0.0
C601 C 0.6832 0.67719 0.06016 0.0
H602 H 0.673 0.66455 0.12716 0.0
H603 H 0.65923 0.66872 0.84526 0.0
H604 H 0.38261 0.03931 0.97047 0.0
H605 H 0.35852 0.01434 0.97008 0.0
H606 H 0.33183 0.03802 0.96682 0.0
H607 H 0.35596 0.06318 0.96765 0.0
H608 H 0.32619 0.02189 0.01347 0.0
H609 H 0.32748 0.01082 0.91797 0.0
H610 H 0.33739 0.00788 0.87249 0.0
H611 H 0.34605 0.97281 0.90707 0.0
H612 H 0.33655 0.97573 0.95294 0.0
H613 H 0.27851 0.9302 0.02051 0.0
H614 H 0.28185 0.95555 0.00757 0.0
H615 H 0.32634 0.97859 0.04951 0.0
H616 H 0.32327 0.95338 0.06248 0.0
H617 H 0.31236 0.97019 0.97373 0.0
H618 H 0.33027 0.00764 0.06701 0.0
H619 H 0.3205 0.00828 0.1143 0.0
H620 H 0.27412 0.98993 0.0815 0.0
H621 H 0.2836 0.98878 0.03419 0.0
C622 C 0.37166 0.03926 0.96861 0.0
C623 C 0.37118 0.05322 0.97017 0.0
C624 C 0.35784 0.02492 0.96812 0.0
C625 C 0.34336 0.02433 0.96881 0.0
C626 C 0.3429 0.03825 0.96652 0.0
C627 C 0.35673 0.05262 0.96706 0.0
C628 C 0.32946 0.00985 0.97853 0.0
C629 C 0.32281 0.01062 0.0041 0.0
C630 C 0.32509 0.99509 0.96662 0.0
C631 C 0.33122 0.99351 0.93908 0.0
C632 C 0.33163 0.00258 0.91604 0.0
C633 C 0.33716 0.0009 0.89012 0.0
C634 C 0.34234 0.99017 0.88688 0.0
C635 C 0.34202 0.98111 0.90958 0.0
C636 C 0.33651 0.98275 0.93557 0.0
C637 C 0.28866 0.94064 0.0283 0.0
C638 C 0.30103 0.93984 0.04133 0.0
C639 C 0.29052 0.95511 0.02074 0.0
C640 C 0.3045 0.96878 0.02686 0.0
C641 C 0.31547 0.96807 0.0445 0.0
C642 C 0.31373 0.95363 0.05182 0.0
C643 C 0.30996 0.98253 0.00866 0.0
C644 C 0.31523 0.98158 0.98192 0.0
C645 C 0.3132 0.99707 0.01932 0.0
C646 C 0.30763 0.99827 0.04727 0.0
C647 C 0.31801 0.00382 0.06998 0.0
C648 C 0.31251 0.00413 0.09676 0.0
C649 C 0.29672 -0.00078 0.10088 0.0
C650 C 0.28635 0.99378 0.07827 0.0
C651 C 0.29176 0.99319 0.05153 0.0
H652 H 0.29251 -0.0004 0.12161 0.0
H653 H 0.3466 0.98887 0.86677 0.0
H654 H 0.0389 0.66379 0.04922 0.0
H655 H 0.01404 0.66305 0.04451 0.0
H656 H 0.0381 0.71223 0.0252 0.0
H657 H 0.06313 0.71322 0.03025 0.0
H658 H -0.0009 0.68955 0.04977 0.0
H659 H 0.04061 0.69834 0.97588 0.0
H660 H 0.0592 0.69014 0.9632 0.0
H661 H 0.02275 0.64201 0.96355 0.0
H662 H 0.00389 0.65007 0.97785 0.0
H663 H 0.92856 0.64668 0.9776 0.0
H664 H 0.95373 0.67098 0.97981 0.0
H665 H 0.97715 0.64425 0.96903 0.0
H666 H 0.95254 0.62065 0.96461 0.0
H667 H 0.9951 0.67008 0.95265 0.0
H668 H 0.95915 0.65198 0.036 0.0
H669 H 0.93595 0.6496 0.06001 0.0
H670 H 0.95495 0.69922 0.05437 0.0
H671 H 0.97791 0.70181 0.02907 0.0
C672 C 0.03899 0.67465 0.04537 0.0
C673 C 0.05294 0.68839 0.03868 0.0
C674 C 0.02472 0.67424 0.04308 0.0
C675 C 0.02429 0.6875 0.03378 0.0
C676 C 0.03823 0.70187 0.03231 0.0
C677 C 0.05255 0.70234 0.03485 0.0
C678 C 0.01087 0.68496 0.01641 0.0
C679 C -0.0018 0.68545 0.02842 0.0
C680 C 0.00965 0.67942 0.98869 0.0
C681 C 0.02081 0.67489 0.97756 0.0
C682 C 0.03647 0.68605 0.97285 0.0
C683 C 0.04712 0.68136 0.96551 0.0
C684 C 0.04221 0.6655 0.9621 0.0
C685 C 0.02656 0.6543 0.96604 0.0
C686 C 0.01588 0.65894 0.97386 0.0
C687 C 0.93915 0.64616 0.97447 0.0
C688 C 0.93865 0.63168 0.97226 0.0
C689 C 0.95353 0.66007 0.97601 0.0
C690 C 0.96742 0.65947 0.97612 0.0
C691 C 0.96673 0.64522 0.96962 0.0
C692 C 0.95251 0.63153 0.96727 0.0
C693 C 0.98241 0.67238 0.98714 0.0
C694 C 0.99595 0.67467 0.97364 0.0
C695 C 0.98371 0.67865 0.01449 0.0
C696 C 0.97006 0.67705 0.03017 0.0
C697 C 0.95832 0.66236 0.03972 0.0
C698 C 0.94518 0.66096 0.05344 0.0
C699 C 0.94393 0.67422 0.05856 0.0
C700 C 0.95584 0.68893 0.05009 0.0
C701 C 0.96886 0.69036 0.03587 0.0
H702 H 0.93379 0.67311 0.06933 0.0
H703 H 0.05048 0.66181 0.95668 0.0
H704 H 0.37521 0.33212 0.00555 0.0
H705 H 0.35114 0.33249 0.0116 0.0
H706 H 0.32545 0.28773 0.97052 0.0
H707 H 0.34982 0.28678 0.96576 0.0
H708 H 0.33003 0.32839 0.96297 0.0
H709 H 0.30329 0.27565 0.00308 0.0
H710 H 0.30334 0.25442 0.0303 0.0
H711 H 0.32239 0.2851 0.10108 0.0
H712 H 0.32268 0.30646 0.07417 0.0
H713 H 0.27582 0.34776 0.02202 0.0
H714 H 0.2791 0.32492 0.01836 0.0
H715 H 0.32614 0.35204 0.04943 0.0
H716 H 0.32309 0.37496 0.05299 0.0
H717 H 0.29917 0.30923 0.05053 0.0
H718 H 0.3451 0.35721 0.98674 0.0
H719 H 0.35205 0.38289 0.96655 0.0
H720 H 0.3035 0.36675 0.95182 0.0
H721 H 0.2964 0.34115 0.97092 0.0
C722 C 0.36455 0.3224 0.99736 0.0
C723 C 0.36443 0.30948 0.98489 0.0
C724 C 0.35075 0.32254 1.00122 0.0
C725 C 0.33653 0.30999 0.99205 0.0
C726 C 0.33629 0.29731 0.9784 0.0
C727 C 0.3502 0.29693 0.97525 0.0
C728 C 0.32254 0.31143 0.99595 0.0
C729 C 0.32266 0.32373 0.98134 0.0
C730 C 0.31329 0.30551 0.02032 0.0
C731 C 0.31309 0.29266 0.03657 0.0
C732 C 0.30763 0.27787 0.02437 0.0
C733 C 0.30756 0.2658 0.03977 0.0
C734 C 0.31288 0.26838 0.06742 0.0
C735 C 0.31828 0.28304 0.0797 0.0
C736 C 0.31837 0.29514 0.0644 0.0
C737 C 0.28659 0.34868 0.02953 0.0
C738 C 0.29945 0.36331 0.03669 0.0
C739 C 0.28838 0.33553 0.0276 0.0
C740 C 0.30296 0.33696 0.03303 0.0
C741 C 0.31483 0.35079 0.045 0.0
C742 C 0.31311 0.36394 0.04675 0.0
C743 C 0.30753 0.32676 0.01824 0.0
C744 C 0.3056 0.31314 0.03103 0.0
C745 C 0.31601 0.33198 0.99292 0.0
C746 C 0.32019 0.34732 0.98049 0.0
C747 C 0.33594 0.35919 0.97896 0.0
C748 C 0.33992 0.37377 0.96764 0.0
C749 C 0.32824 0.37657 0.9578 0.0
C750 C 0.3126 0.36477 0.95929 0.0
C751 C 0.30857 0.35021 0.97045 0.0
H752 H 0.33131 0.38785 0.94902 0.0
H753 H 0.31275 0.25899 0.07932 0.0
H754 H 0.62544 0.93448 0.97071 0.0
H755 H 0.64873 0.95934 0.96105 0.0
H756 H 0.65627 0.9684 0.04982 0.0
H757 H 0.63223 0.94338 0.05944 0.0
H758 H 0.6546 0.9907 0.02369 0.0
H759 H 0.68446 0.96531 0.00621 0.0
H760 H 0.68769 0.94406 0.98622 0.0
H761 H 0.68154 0.95699 0.90351 0.0
H762 H 0.67843 0.97844 0.92285 0.0
H763 H 0.71649 0.06421 0.99745 0.0
H764 H 0.70952 0.03698 1.00223 0.0
H765 H 0.67868 0.02477 0.93134 0.0
H766 H 0.68482 0.05199 0.92747 0.0
H767 H 0.69612 0.00422 0.95277 0.0
H768 H 0.65985 0.02378 0.9689 0.0
H769 H 0.65057 0.04102 0.98697 0.0
H770 H 0.66118 0.03359 0.07069 0.0
H771 H 0.67211 0.01779 0.0528 0.0
C772 C 0.63228 0.94167 0.98815 0.0
C773 C 0.62715 0.93729 0.01573 0.0
C774 C 0.64573 0.95576 0.98265 0.0
C775 C 0.65447 0.96562 0.0047 0.0
C776 C 0.64976 0.96084 0.03252 0.0
C777 C 0.63608 0.94669 0.03805 0.0
C778 C 0.66648 0.98193 0.99823 0.0
C779 C 0.66401 0.99371 0.00889 0.0
C780 C 0.67831 0.9857 0.97794 0.0
C781 C 0.68126 0.97353 0.96602 0.0
C782 C 0.68391 0.9637 0.98372 0.0
C783 C 0.68573 0.95163 0.97249 0.0
C784 C 0.68489 0.94923 0.94357 0.0
C785 C 0.68235 0.95898 0.92583 0.0
C786 C 0.68065 0.97116 0.93691 0.0
C787 C 0.70889 0.05593 0.98183 0.0
C788 C 0.70082 0.06006 0.96256 0.0
C789 C 0.70487 0.04032 0.98474 0.0
C790 C 0.69321 0.02891 0.96776 0.0
C791 C 0.68757 0.03349 0.94485 0.0
C792 C 0.69112 0.04904 0.94257 0.0
C793 C 0.6841 0.0128 0.97838 0.0
C794 C 0.68707 0.0012 0.96833 0.0
C795 C 0.6724 0.00901 0.9989 0.0
C796 C 0.66773 0.02029 0.00923 0.0
C797 C 0.66117 0.02662 0.99094 0.0
C798 C 0.65551 0.03611 1.00121 0.0
C799 C 0.65572 0.03882 0.02993 0.0
C800 C 0.66164 0.03209 0.04836 0.0
C801 C 0.66779 0.02305 0.0381 0.0
H802 H 0.65103 0.04588 0.03794 0.0
H803 H 0.68616 0.9398 0.93491 0.0
H804 H 0.73178 0.69052 0.36871 0.0
H805 H 0.70407 0.67152 0.37626 0.0
H806 H 0.69192 0.70537 0.34648 0.0
H807 H 0.71927 0.72434 0.33998 0.0
H808 H 0.67245 0.68901 0.38343 0.0
H809 H 0.69412 0.67817 0.30083 0.0
H810 H 0.71214 0.67198 0.27588 0.0
H811 H 0.69597 0.63023 0.32484 0.0
H812 H 0.67774 0.63619 0.35009 0.0
H813 H 0.60938 0.66262 0.30339 0.0
H814 H 0.63629 0.66809 0.30553 0.0
H815 H 0.62245 0.62919 0.36171 0.0
H816 H 0.59537 0.6234 0.35911 0.0
H817 H 0.65371 0.64222 0.32258 0.0
H818 H 0.62577 0.65663 0.39421 0.0
H819 H 0.60834 0.66725 0.40314 0.0
H820 H 0.63932 0.70916 0.35865 0.0
H821 H 0.65674 0.69861 0.34847 0.0
C822 C 0.72317 0.69401 0.36469 0.0
C823 C 0.72758 0.70875 0.35316 0.0
C824 C 0.70737 0.68312 0.36879 0.0
C825 C 0.69591 0.68688 0.36124 0.0
C826 C 0.70051 0.70213 0.35232 0.0
C827 C 0.71618 0.71297 0.34844 0.0
C828 C 0.67918 0.67488 0.35939 0.0
C829 C 0.66837 0.67862 0.37057 0.0
C830 C 0.67381 0.66136 0.3424 0.0
C831 C 0.68474 0.65771 0.32753 0.0
C832 C 0.69448 0.66771 0.30637 0.0
C833 C 0.70472 0.66424 0.29216 0.0
C834 C 0.7053 0.65077 0.29886 0.0
C835 C 0.69555 0.64069 0.31973 0.0
C836 C 0.68523 0.64409 0.33397 0.0
C837 C 0.61192 0.65468 0.31486 0.0
C838 C 0.60046 0.64285 0.33164 0.0
C839 C 0.62728 0.65778 0.316 0.0
C840 C 0.63131 0.64927 0.33434 0.0
C841 C 0.6195 0.63589 0.34753 0.0
C842 C 0.60403 0.63261 0.34602 0.0
C843 C 0.64733 0.65692 0.34558 0.0
C844 C 0.6578 0.65221 0.33645 0.0
C845 C 0.65265 0.67022 0.36301 0.0
C846 C 0.64253 0.67679 0.37053 0.0
C847 C 0.62886 0.66809 0.38627 0.0
C848 C 0.61897 0.6741 0.39155 0.0
C849 C 0.62271 0.68887 0.38164 0.0
C850 C 0.63642 0.69772 0.36637 0.0
C851 C 0.6463 0.69173 0.36081 0.0
H852 H 0.61498 0.69345 0.38576 0.0
H853 H 0.71325 0.64811 0.28782 0.0
H854 H 0.3213 0.93037 0.33489 0.0
H855 H 0.31018 0.9473 0.3316 0.0
H856 H 0.35392 0.98456 0.29979 0.0
H857 H 0.36536 0.9677 0.30404 0.0
H858 H 0.3463 0.9929 0.34677 0.0
H859 H 0.31903 0.96985 0.26204 0.0
H860 H 0.30277 0.94826 0.2298 0.0
H861 H 0.26439 0.93111 0.28743 0.0
H862 H 0.28047 0.95245 0.32024 0.0
H863 H 0.31032 0.04104 0.34287 0.0
H864 H 0.32563 0.02786 0.34048 0.0
H865 H 0.28606 0.98542 0.37125 0.0
H866 H 0.27059 -0.00154 0.37252 0.0
H867 H 0.29363 0.98235 0.31891 0.0
H868 H 0.32118 0.00288 0.40546 0.0
H869 H 0.33735 0.02335 0.43963 0.0
H870 H 0.37481 0.04429 0.38013 0.0
H871 H 0.35878 0.02406 0.34539 0.0
C872 C 0.32842 0.942 0.32632 0.0
C873 C 0.34431 0.94792 0.32056 0.0
C874 C 0.32199 0.95165 0.32418 0.0
C875 C 0.33128 0.96726 0.31572 0.0
C876 C 0.34662 0.97257 0.30659 0.0
C877 C 0.35311 0.96292 0.30892 0.0
C878 C 0.32589 0.97845 0.32169 0.0
C879 C 0.33494 0.99086 0.34008 0.0
C880 C 0.31089 0.97543 0.31369 0.0
C881 C 0.30101 0.96277 0.29366 0.0
C882 C 0.30714 0.96145 0.2679 0.0
C883 C 0.29794 0.94926 0.2495 0.0
C884 C 0.28256 0.93832 0.25656 0.0
C885 C 0.27631 0.9396 0.28198 0.0
C886 C 0.28545 0.95178 0.30045 0.0
C887 C 0.30522 0.02916 0.35057 0.0
C888 C 0.28933 0.02061 0.35758 0.0
C889 C 0.31394 0.02162 0.3491 0.0
C890 C 0.30684 0.0056 0.35519 0.0
C891 C 0.29164 0.99775 0.36613 0.0
C892 C 0.28285 0.00519 0.36705 0.0
C893 C 0.3138 0.99641 0.34471 0.0
C894 C 0.30507 0.9845 0.32529 0.0
C895 C 0.32904 -0.00016 0.35189 0.0
C896 C 0.33869 0.01206 0.37268 0.0
C897 C 0.3328 0.01194 0.39954 0.0
C898 C 0.34196 0.02347 0.41904 0.0
C899 C 0.35706 0.03515 0.41199 0.0
C900 C 0.36309 0.03526 0.3855 0.0
C901 C 0.35397 0.02375 0.3659 0.0
H902 H 0.36408 0.0441 0.42706 0.0
H903 H 0.27549 0.92885 0.24234 0.0
H904 H 0.97603 0.28185 0.39883 0.0
H905 H 0.9797 0.30811 0.39832 0.0
H906 H 0.94662 0.2949 0.33053 0.0
H907 H 0.94229 0.2684 0.33215 0.0
H908 H 0.99394 0.32055 0.35207 0.0
H909 H 0.9401 0.32439 0.31363 0.0
H910 H 0.9124 0.31361 0.3264 0.0
H911 H 0.92259 0.30718 0.41112 0.0
H912 H 0.95033 0.31802 0.39895 0.0
H913 H 0.02931 0.3844 0.27629 0.0
H914 H 0.00524 0.35925 0.28041 0.0
H915 H 0.9916 0.37648 0.35164 0.0
H916 H 0.01505 0.4019 0.34641 0.0
H917 H 0.96632 0.34962 0.33039 0.0
H918 H 0.01954 0.36608 0.36442 0.0
H919 H 0.04794 0.37708 0.35834 0.0
H920 H 0.03951 0.34377 0.2933 0.0
H921 H 0.01104 0.33242 0.2993 0.0
C922 C 0.96879 0.28427 0.38516 0.0
C923 C 0.95921 0.27325 0.36513 0.0
C924 C 0.97092 0.29932 0.38474 0.0
C925 C 0.96388 0.30362 0.36366 0.0
C926 C 0.95232 0.29192 0.34678 0.0
C927 C 0.94988 0.27672 0.3477 0.0
C928 C 0.97187 0.32006 0.35392 0.0
C929 C 0.98782 0.32688 0.34774 0.0
C930 C 0.96395 0.32831 0.34776 0.0
C931 C 0.94729 0.32193 0.35529 0.0
C932 C 0.93644 0.32074 0.33501 0.0
C933 C 0.92072 0.31459 0.34213 0.0
C934 C 0.91573 0.30967 0.36953 0.0
C935 C 0.92645 0.31092 0.38987 0.0
C936 C 0.94217 0.31703 0.38285 0.0
C937 C 0.02066 0.38314 0.29157 0.0
C938 C 0.02417 0.39486 0.31153 0.0
C939 C 0.00692 0.36875 0.294 0.0
C940 C -0.00293 0.36585 0.31716 0.0
C941 C -0.00083 0.37842 0.33388 0.0
C942 C 0.01265 0.39298 0.33087 0.0
C943 C 0.98821 0.34984 0.32873 0.0
C944 C 0.97224 0.34314 0.335 0.0
C945 C 0.99613 0.3417 0.33588 0.0
C946 C 0.01322 0.34851 0.33215 0.0
C947 C 0.02377 0.36113 0.3488 0.0
C948 C 0.03986 0.3674 0.34542 0.0
C949 C 0.04552 0.36119 0.32535 0.0
C950 C 0.0351 0.34859 0.30879 0.0
C951 C 0.01899 0.34219 0.31226 0.0
H952 H 0.05799 0.36612 0.32267 0.0
H953 H 0.90356 0.30492 0.375 0.0
H954 H 0.60024 0.97715 0.35164 0.0
H955 H 0.62584 -0.00043 0.34353 0.0
H956 H 0.63001 0.97858 0.26716 0.0
H957 H 0.60482 0.95524 0.27702 0.0
H958 H 0.65048 0.9811 0.29794 0.0
H959 H 0.63737 0.01966 0.27453 0.0
H960 H 0.62272 0.03379 0.27703 0.0
H961 H 0.63872 0.04798 0.36122 0.0
H962 H 0.65332 0.03383 0.3594 0.0
H963 H 0.73156 0.0456 0.32032 0.0
H964 H 0.70546 0.04101 0.30985 0.0
H965 H 0.6861 0.00459 0.37217 0.0
H966 H 0.71211 0.0087 0.38209 0.0
H967 H 0.67614 0.03558 0.33333 0.0
H968 H 0.66126 0.97137 0.33774 0.0
H969 H 0.67451 0.95584 0.33754 0.0
H970 H 0.71262 0.99186 0.29119 0.0
H971 H 0.69941 0.00748 0.29017 0.0
C972 C 0.60634 0.97765 0.33248 0.0
C973 C 0.60084 0.96451 0.31514 0.0
C974 C 0.62098 0.99062 0.32763 0.0
C975 C 0.63009 0.99084 0.30489 0.0
C976 C 0.62336 0.97863 0.28513 0.0
C977 C 0.60898 0.96531 0.29066 0.0
C978 C 0.64737 0.00086 0.30664 0.0
C979 C 0.65604 0.99315 0.30495 0.0
C980 C 0.65486 0.01664 0.31587 0.0
C981 C 0.64652 0.02568 0.31676 0.0
C982 C 0.63777 0.02578 0.29359 0.0
C983 C 0.62946 0.0338 0.2949 0.0
C984 C 0.6298 0.04179 0.31926 0.0
C985 C 0.6385 0.04184 0.34233 0.0
C986 C 0.64686 0.03387 0.34112 0.0
C987 C 0.72187 0.03713 0.33282 0.0
C988 C 0.72377 0.02715 0.35145 0.0
C989 C 0.70693 0.03454 0.32675 0.0
C990 C 0.6939 0.02214 0.3396 0.0
C991 C 0.69608 0.01402 0.36167 0.0
C992 C 0.71094 0.01639 0.36736 0.0
C993 C 0.67843 0.01532 0.32606 0.0
C994 C 0.67041 0.0237 0.32541 0.0
C995 C 0.67139 8e-05 0.3146 0.0
C996 C 0.67936 0.99067 0.3141 0.0
C997 C 0.67241 0.97595 0.32724 0.0
C998 C 0.67991 0.96713 0.3273 0.0
C999 C 0.69441 0.9729 0.31432 0.0
C1000 C 0.70139 0.98746 0.30112 0.0
C1001 C 0.69389 0.99629 0.30077 0.0
H1002 H 0.70024 0.96609 0.31449 0.0
H1003 H 0.62332 0.04794 0.32026 0.0
H1004 H 0.99571 0.7072 0.34596 0.0
H1005 H -0.00142 0.68427 0.34006 0.0
H1006 H 0.94858 0.65478 0.33558 0.0
H1007 H 0.9455 0.67779 0.34139 0.0
H1008 H 0.97597 0.64713 0.36926 0.0
H1009 H 0.95623 0.65842 0.2792 0.0
H1010 H 0.95831 0.67862 0.2461 0.0
H1011 H 0.00779 0.69702 0.23967 0.0
H1012 H 0.00606 0.6772 0.27296 0.0
H1013 H 0.019 0.61336 0.33058 0.0
H1014 H 0.99407 0.61233 0.32202 0.0
H1015 H 0.01893 0.65942 0.28957 0.0
H1016 H 0.0435 0.66023 0.29687 0.0
H1017 H 0.99085 0.64602 0.27044 0.0
H1018 H 0.01606 0.65375 0.36171 0.0
H1019 H 0.02757 0.64363 0.3956 0.0
H1020 H 0.98309 0.60184 0.40566 0.0
H1021 H 0.97144 0.6116 0.37091 0.0
C1022 C 0.98527 0.69582 0.3445 0.0
C1023 C 0.97038 0.69433 0.34368 0.0
C1024 C 0.98695 0.68274 0.3412 0.0
C1025 C 0.97379 0.66797 0.33707 0.0
C1026 C 0.95883 0.66615 0.33873 0.0
C1027 C 0.95712 0.6793 0.34211 0.0
C1028 C 0.97619 0.65518 0.32735 0.0
C1029 C 0.97854 0.64625 0.34747 0.0
C1030 C 0.98029 0.65477 0.29914 0.0
C1031 C 0.98098 0.66626 0.27841 0.0
C1032 C 0.96753 0.66679 0.27073 0.0
C1033 C 0.96867 0.6782 0.25197 0.0
C1034 C 0.98319 0.68904 0.2408 0.0
C1035 C 0.99657 0.68857 0.2483 0.0
C1036 C 0.99551 0.67725 0.26703 0.0
C1037 C 0.01906 0.62319 0.32041 0.0
C1038 C 0.03317 0.63715 0.31551 0.0
C1039 C 0.0048 0.62258 0.31551 0.0
C1040 C 0.00464 0.63601 0.30619 0.0
C1041 C 0.01867 0.64895 0.29715 0.0
C1042 C 0.03281 0.64951 0.30172 0.0
C1043 C 0.9914 0.63858 0.31248 0.0
C1044 C 0.98697 0.64566 0.29182 0.0
C1045 C 0.9867 0.6385 0.34058 0.0
C1046 C 0.99295 0.63332 0.36372 0.0
C1047 C 0.00872 0.64248 0.37142 0.0
C1048 C 0.01529 0.63676 0.3906 0.0
C1049 C 0.0061 0.62205 0.40266 0.0
C1050 C 0.99022 0.61318 0.39607 0.0
C1051 C 0.98362 0.61877 0.37659 0.0
H1052 H 0.01134 0.6175 0.41697 0.0
H1053 H 0.9842 0.69786 0.22631 0.0
H1054 H 0.3577 0.38604 0.26961 0.0
H1055 H 0.35338 0.3596 0.27572 0.0
H1056 H 0.37882 0.37353 0.35361 0.0
H1057 H 0.38393 0.40003 0.34685 0.0
H1058 H 0.37739 0.34712 0.33456 0.0
H1059 H 0.34047 0.36601 0.35066 0.0
H1060 H 0.32442 0.37757 0.33638 0.0
H1061 H 0.30178 0.34179 0.27415 0.0
H1062 H 0.3178 0.33013 0.28814 0.0
H1063 H 0.29644 0.2831 0.39777 0.0
H1064 H 0.31939 0.30908 0.39435 0.0
H1065 H 0.33958 0.29188 0.33388 0.0
H1066 H 0.31685 0.2658 0.33787 0.0
H1067 H 0.31969 0.31963 0.34319 0.0
H1068 H 0.37775 0.32103 0.32036 0.0
H1069 H 0.3929 0.30919 0.33819 0.0
H1070 H 0.3722 0.30385 0.41937 0.0
H1071 H 0.35707 0.31582 0.40213 0.0
C1072 C 0.36319 0.38369 0.28711 0.0
C1073 C 0.37068 0.39492 0.30821 0.0
C1074 C 0.36066 0.36855 0.29069 0.0
C1075 C 0.36514 0.36448 0.31579 0.0
C1076 C 0.37503 0.37636 0.3343 0.0
C1077 C 0.37794 0.39158 0.33036 0.0
C1078 C 0.35651 0.34817 0.32617 0.0
C1079 C 0.36476 0.34098 0.33623 0.0
C1080 C 0.34003 0.34032 0.32893 0.0
C1081 C 0.33047 0.34736 0.32026 0.0
C1082 C 0.33214 0.36071 0.33389 0.0
C1083 C 0.32304 0.36726 0.32586 0.0
C1084 C 0.31213 0.36046 0.30431 0.0
C1085 C 0.31027 0.34708 0.2908 0.0
C1086 C 0.31935 0.34049 0.29879 0.0
C1087 C 0.3062 0.28465 0.3851 0.0
C1088 C 0.30474 0.27259 0.36756 0.0
C1089 C 0.31932 0.29952 0.3831 0.0
C1090 C 0.33101 0.30249 0.36334 0.0
C1091 C 0.33072 0.28988 0.34925 0.0
C1092 C 0.31767 0.27491 0.3516 0.0
C1093 C 0.34051 0.31852 0.35203 0.0
C1094 C 0.33233 0.32562 0.3415 0.0
C1095 C 0.35694 0.32618 0.34913 0.0
C1096 C 0.36616 0.31919 0.35985 0.0
C1097 C 0.37648 0.31739 0.34204 0.0
C1098 C 0.38505 0.31064 0.35204 0.0
C1099 C 0.38348 0.30573 0.37987 0.0
C1100 C 0.37336 0.3076 0.39778 0.0
C1101 C 0.36475 0.31433 0.38789 0.0
H1102 H 0.39012 0.3005 0.38757 0.0
H1103 H 0.30507 0.36552 0.29818 0.0
H1104 H 0.26539 0.95511 0.63738 0.0
H1105 H 0.29282 0.9624 0.63103 0.0
H1106 H 0.3071 0.00899 0.6604 0.0
H1107 H 0.27995 0.00192 0.66636 0.0
H1108 H 0.32549 0.00951 0.61916 0.0
H1109 H 0.30106 0.97838 0.70416 0.0
H1110 H 0.28267 0.95392 0.72831 0.0
H1111 H 0.30313 0.92986 0.68715 0.0
H1112 H 0.32139 0.95408 0.66216 0.0
H1113 H 0.38668 0.03969 0.71899 0.0
H1114 H 0.36019 0.01848 0.70922 0.0
H1115 H 0.37647 0.00707 0.63405 0.0
H1116 H 0.40311 0.02741 0.64469 0.0
H1117 H 0.3434 0.98378 0.68715 0.0
H1118 H 0.35095 0.01754 0.58445 0.0
H1119 H 0.36599 0.04364 0.56287 0.0
H1120 H 0.37783 0.0648 0.6443 0.0
H1121 H 0.36219 0.03898 0.66625 0.0
C1122 C 0.2744 0.96703 0.64171 0.0
C1123 C 0.2706 0.97792 0.65276 0.0
C1124 C 0.29003 0.97112 0.63821 0.0
C1125 C 0.30193 0.98613 0.64571 0.0
C1126 C 0.29806 0.99732 0.65456 0.0
C1127 C 0.28254 0.99325 0.65807 0.0
C1128 C 0.31843 0.99013 0.64729 0.0
C1129 C 0.32947 0.00367 0.63344 0.0
C1130 C 0.3235 0.98246 0.66601 0.0
C1131 C 0.31245 0.96797 0.68103 0.0
C1132 C 0.30154 0.96784 0.70007 0.0
C1133 C 0.29115 0.95403 0.71394 0.0
C1134 C 0.29174 0.94036 0.70929 0.0
C1135 C 0.30267 0.94045 0.69069 0.0
C1136 C 0.31302 0.9542 0.67661 0.0
C1137 C 0.38477 0.03205 0.70134 0.0
C1138 C 0.39682 0.03546 0.68219 0.0
C1139 C 0.36965 0.01998 0.6957 0.0
C1140 C 0.36645 0.01165 0.67049 0.0
C1141 C 0.37878 0.01356 0.65343 0.0
C1142 C 0.394 0.02518 0.65967 0.0
C1143 C 0.35035 0.0035 0.65982 0.0
C1144 C 0.33949 0.98921 0.67187 0.0
C1145 C 0.34535 0.01067 0.63982 0.0
C1146 C 0.35591 0.02618 0.62706 0.0
C1147 C 0.35688 0.02775 0.59776 0.0
C1148 C 0.36531 0.04253 0.58543 0.0
C1149 C 0.37296 0.05586 0.6022 0.0
C1150 C 0.37205 0.05444 0.63133 0.0
C1151 C 0.36342 0.03971 0.64373 0.0
H1152 H 0.37958 0.06728 0.59263 0.0
H1153 H 0.28379 0.9297 0.72015 0.0
H1154 H 0.96484 0.35394 0.72532 0.0
H1155 H 0.98825 0.35162 0.72432 0.0
H1156 H 0.00279 0.37862 0.64802 0.0
H1157 H 0.98 0.38186 0.6502 0.0
H1158 H 0.98646 0.33425 0.68335 0.0
H1159 H 0.03884 0.38632 0.62729 0.0
H1160 H 0.05358 0.41512 0.62977 0.0
H1161 H 0.04098 0.41329 0.71623 0.0
H1162 H 0.02633 0.38448 0.71441 0.0
H1163 H 0.01658 0.30023 0.6055 0.0
H1164 H 0.01293 0.32281 0.61011 0.0
H1165 H 0.04603 0.34021 0.67808 0.0
H1166 H 0.05024 0.31804 0.67286 0.0
H1167 H 0.04151 0.3641 0.65139 0.0
H1168 H 0.01118 0.31211 0.69514 0.0
H1169 H 0.99573 0.28328 0.69319 0.0
H1170 H 0.96393 0.28574 0.63517 0.0
H1171 H 0.97921 0.31458 0.63657 0.0
C1172 C 0.97354 0.36019 0.70941 0.0
C1173 C 0.9705 0.36784 0.68767 0.0
C1174 C 0.9869 0.35883 0.70871 0.0
C1175 C -0.00288 0.36463 0.68573 0.0
C1176 C 0.99519 0.3741 0.66608 0.0
C1177 C 0.98204 0.37588 0.66727 0.0
C1178 C 0.00657 0.35729 0.67826 0.0
C1179 C -0.00142 0.3409 0.67686 0.0
C1180 C 0.0223 0.36586 0.66914 0.0
C1181 C 0.03139 0.3832 0.67064 0.0
C1182 C 0.0393 0.39205 0.6469 0.0
C1183 C 0.04762 0.40838 0.64817 0.0
C1184 C 0.04819 0.41603 0.67312 0.0
C1185 C 0.04048 0.40735 0.69689 0.0
C1186 C 0.03214 0.39101 0.69573 0.0
C1187 C 0.02374 0.30932 0.62033 0.0
C1188 C 0.03332 0.30716 0.63938 0.0
C1189 C 0.02168 0.32224 0.62293 0.0
C1190 C 0.02881 0.33282 0.64509 0.0
C1191 C 0.04032 0.33208 0.66102 0.0
C1192 C 0.04266 0.31932 0.65803 0.0
C1193 C 0.02122 0.3413 0.65642 0.0
C1194 C 0.02948 0.35769 0.65838 0.0
C1195 C 0.00568 0.33283 0.66633 0.0
C1196 C 0.99641 0.31548 0.66577 0.0
C1197 C 0.00093 0.3065 0.68187 0.0
C1198 C 0.99221 0.29017 0.68088 0.0
C1199 C 0.97892 0.2827 0.66402 0.0
C1200 C 0.97425 0.29154 0.64819 0.0
C1201 C 0.98291 0.30787 0.64909 0.0
H1202 H 0.97222 0.27006 0.66329 0.0
H1203 H 0.05462 0.42867 0.67405 0.0
H1204 H 0.71188 0.71421 0.64556 0.0
H1205 H 0.69055 0.68708 0.64397 0.0
H1206 H 0.65699 0.70282 0.64617 0.0
H1207 H 0.67828 0.73003 0.64687 0.0
H1208 H 0.65929 0.68482 0.69468 0.0
H1209 H 0.65428 0.68334 0.59491 0.0
H1210 H 0.66397 0.68681 0.54645 0.0
H1211 H 0.67778 0.65243 0.55974 0.0
H1212 H 0.6688 0.64919 0.60858 0.0
H1213 H 0.61696 0.59346 0.66736 0.0
H1214 H 0.61747 0.61835 0.66374 0.0
H1215 H 0.66051 0.6408 0.71064 0.0
H1216 H 0.66017 0.61607 0.7141 0.0
H1217 H 0.64365 0.63906 0.63296 0.0
H1218 H 0.6676 0.67188 0.73549 0.0
H1219 H 0.66158 0.66881 0.78599 0.0
H1220 H 0.61274 0.64 0.76762 0.0
H1221 H 0.6185 0.64303 0.71699 0.0
C1222 C 0.69996 0.71188 0.6445 0.0
C1223 C 0.69667 0.72412 0.6466 0.0
C1224 C 0.68781 0.69642 0.64349 0.0
C1225 C 0.67227 0.69305 0.64501 0.0
C1226 C 0.66894 0.70528 0.64474 0.0
C1227 C 0.68111 0.72078 0.6451 0.0
C1228 C 0.6601 0.67716 0.65292 0.0
C1229 C 0.65536 0.6748 0.681 0.0
C1230 C 0.65549 0.66418 0.63507 0.0
C1231 C 0.66088 0.66607 0.60556 0.0
C1232 C 0.65956 0.67665 0.58765 0.0
C1233 C 0.66495 0.67859 0.56009 0.0
C1234 C 0.67147 0.66984 0.55002 0.0
C1235 C 0.67271 0.65919 0.56755 0.0
C1236 C 0.66749 0.65733 0.59521 0.0
C1237 C 0.62609 0.60352 0.67822 0.0
C1238 C 0.6388 0.60299 0.69033 0.0
C1239 C 0.62635 0.61774 0.67607 0.0
C1240 C 0.6391 0.63141 0.68661 0.0
C1241 C 0.65049 0.63037 0.70251 0.0
C1242 C 0.65035 0.61622 0.70434 0.0
C1243 C 0.64303 0.64677 0.67488 0.0
C1244 C 0.64662 0.64909 0.64622 0.0
C1245 C 0.64699 0.65973 0.69227 0.0
C1246 C 0.64346 0.6578 0.72257 0.0
C1247 C 0.65557 0.66497 0.74227 0.0
C1248 C 0.65222 0.66321 0.77089 0.0
C1249 C 0.63678 0.65425 0.78002 0.0
C1250 C 0.62469 0.64697 0.76053 0.0
C1251 C 0.62799 0.64869 0.73187 0.0
H1252 H 0.6342 0.65293 0.80219 0.0
H1253 H 0.67556 0.67131 0.52863 0.0
H1254 H 0.38109 0.34186 0.70825 0.0
H1255 H 0.35725 0.34294 0.70951 0.0
H1256 H 0.37977 0.38696 0.6651 0.0
H1257 H 0.4038 0.38555 0.66276 0.0
H1258 H 0.34569 0.35893 0.72641 0.0
H1259 H 0.35005 0.38527 0.61976 0.0
H1260 H 0.36431 0.39144 0.57487 0.0
H1261 H 0.37421 0.35426 0.58834 0.0
H1262 H 0.35983 0.34776 0.63313 0.0
H1263 H 0.2653 0.31416 0.69246 0.0
H1264 H 0.29015 0.33866 0.69763 0.0
H1265 H 0.31113 0.32239 0.6369 0.0
H1266 H 0.28648 0.29805 0.63177 0.0
H1267 H 0.32346 0.35211 0.6312 0.0
H1268 H 0.31249 0.31615 0.70403 0.0
H1269 H 0.30444 0.29974 0.74631 0.0
H1270 H 0.31248 0.33925 0.79616 0.0
H1271 H 0.3201 0.35582 0.75394 0.0
C1272 C 0.38114 0.35197 0.6993 0.0
C1273 C 0.39417 0.3634 0.68482 0.0
C1274 C 0.36748 0.35268 0.70019 0.0
C1275 C 0.36657 0.36493 0.68692 0.0
C1276 C 0.38011 0.37729 0.67506 0.0
C1277 C 0.39386 0.37651 0.67396 0.0
C1278 C 0.35087 0.36307 0.6827 0.0
C1279 C 0.34073 0.3578 0.70567 0.0
C1280 C 0.34453 0.36178 0.6556 0.0
C1281 C 0.35417 0.36628 0.62995 0.0
C1282 C 0.35543 0.37854 0.61324 0.0
C1283 C 0.36345 0.38203 0.58779 0.0
C1284 C 0.37017 0.37326 0.57882 0.0
C1285 C 0.36903 0.36106 0.59538 0.0
C1286 C 0.36096 0.35749 0.6208 0.0
C1287 C 0.27508 0.3161 0.67945 0.0
C1288 C 0.27403 0.30422 0.66173 0.0
C1289 C 0.28929 0.33004 0.68263 0.0
C1290 C 0.30253 0.33233 0.66784 0.0
C1291 C 0.30107 0.32097 0.64843 0.0
C1292 C 0.28698 0.30702 0.64552 0.0
C1293 C 0.31835 0.34543 0.67451 0.0
C1294 C 0.32827 0.35374 0.65216 0.0
C1295 C 0.32469 0.34772 0.70186 0.0
C1296 C 0.31644 0.33715 0.72565 0.0
C1297 C 0.31193 0.32122 0.72379 0.0
C1298 C 0.3077 0.31194 0.74784 0.0
C1299 C 0.30816 0.3185 0.77395 0.0
C1300 C 0.31228 0.33422 0.77595 0.0
C1301 C 0.31633 0.34351 0.75192 0.0
H1302 H 0.30507 0.31135 0.79262 0.0
H1303 H 0.37614 0.37587 0.55892 0.0
H1304 H 0.71017 0.99546 0.66838 0.0
H1305 H 0.6892 0.00123 0.67632 0.0
H1306 H 0.65496 0.95259 0.66456 0.0
H1307 H 0.67598 0.94664 0.6565 0.0
H1308 H 0.65064 0.97862 0.63791 0.0
H1309 H 0.66123 0.9621 0.7285 0.0
H1310 H 0.68162 0.96419 0.7608 0.0
H1311 H 0.70031 0.01367 0.76739 0.0
H1312 H 0.68009 0.01199 0.73509 0.0
H1313 H 0.6139 0.0215 0.66827 0.0
H1314 H 0.61643 0.9981 0.67098 0.0
H1315 H 0.65875 0.02405 0.71937 0.0
H1316 H 0.65572 0.04679 0.71809 0.0
H1317 H 0.64916 0.99769 0.73319 0.0
H1318 H 0.65785 0.02132 0.64398 0.0
H1319 H 0.65697 0.03007 0.59604 0.0
H1320 H 0.62055 0.98381 0.57468 0.0
H1321 H 0.62119 0.97479 0.62261 0.0
C1322 C 0.69818 0.98605 0.66675 0.0
C1323 C 0.69467 0.9706 0.66209 0.0
C1324 C 0.68625 0.98932 0.67158 0.0
C1325 C 0.67067 0.9772 0.67193 0.0
C1326 C 0.66699 0.96198 0.66483 0.0
C1327 C 0.67898 0.95867 0.65989 0.0
C1328 C 0.65846 0.98077 0.68022 0.0
C1329 C 0.64972 0.98231 0.65891 0.0
C1330 C 0.65818 0.98624 0.7074 0.0
C1331 C 0.66909 0.98688 0.72941 0.0
C1332 C 0.66961 0.97341 0.737 0.0
C1333 C 0.68122 0.97454 0.75513 0.0
C1334 C 0.69239 0.98904 0.76578 0.0
C1335 C 0.69173 0.00244 0.75893 0.0
C1336 C 0.68012 0.0014 0.74087 0.0
C1337 C 0.62335 0.02194 0.68048 0.0
C1338 C 0.63488 0.03608 0.69234 0.0
C1339 C 0.62489 0.00861 0.68172 0.0
C1340 C 0.63805 0.00937 0.69457 0.0
C1341 C 0.64848 0.02301 0.70918 0.0
C1342 C 0.64681 0.03615 0.70832 0.0
C1343 C 0.64238 0.99712 0.69001 0.0
C1344 C 0.64925 0.99341 0.71232 0.0
C1345 C 0.64261 0.99138 0.66286 0.0
C1346 C 0.63936 0.99745 0.63697 0.0
C1347 C 0.64931 0.01314 0.62933 0.0
C1348 C 0.64905 0.01808 0.60204 0.0
C1349 C 0.63896 0.0074 0.58221 0.0
C1350 C 0.62852 0.99198 0.58999 0.0
C1351 C 0.62875 0.98698 0.61725 0.0
H1352 H 0.63907 0.01114 0.56088 0.0
H1353 H 0.70144 0.98985 0.77962 0.0
H1354 H 0.01726 0.71801 0.60445 0.0
H1355 H 0.01155 0.69098 0.60649 0.0
H1356 H 0.04636 0.70338 0.67071 0.0
H1357 H 0.05245 0.73051 0.66836 0.0
H1358 H 0.03847 0.6747 0.64628 0.0
H1359 H 0.01149 0.69912 0.69249 0.0
H1360 H -0.00222 0.71426 0.69316 0.0
H1361 H 0.96487 0.68314 0.63259 0.0
H1362 H 0.97824 0.66766 0.63186 0.0
H1363 H 0.96079 0.61294 0.7257 0.0
H1364 H 0.9844 0.63848 0.72126 0.0
H1365 H -0.00188 0.62194 0.64899 0.0
H1366 H 0.97531 0.59619 0.65492 0.0
H1367 H 0.98407 0.65345 0.67973 0.0
H1368 H 0.03363 0.64832 0.62401 0.0
H1369 H 0.04719 0.63316 0.62816 0.0
H1370 H 0.03588 0.62583 0.71562 0.0
H1371 H 0.02242 0.6411 0.71212 0.0
C1372 C 0.02436 0.71517 0.6178 0.0
C1373 C 0.03487 0.72619 0.63697 0.0
C1374 C 0.02106 0.69969 0.61901 0.0
C1375 C 0.02795 0.69511 0.6399 0.0
C1376 C 0.0406 0.70664 0.6551 0.0
C1377 C 0.04411 0.72221 0.65359 0.0
C1378 C 0.01929 0.679 0.65121 0.0
C1379 C 0.02654 0.66991 0.6535 0.0
C1380 C 0.00395 0.67303 0.66161 0.0
C1381 C 0.99593 0.68235 0.66192 0.0
C1382 C 0.00136 0.69555 0.67926 0.0
C1383 C 0.99364 0.70416 0.67969 0.0
C1384 C 0.98055 0.69975 0.66279 0.0
C1385 C 0.97504 0.68658 0.64561 0.0
C1386 C 0.98263 0.67784 0.64526 0.0
C1387 C 0.96937 0.61454 0.71 0.0
C1388 C 0.96623 0.60271 0.69056 0.0
C1389 C 0.98282 0.62916 0.70728 0.0
C1390 C 0.99294 0.63231 0.6844 0.0
C1391 C 0.99071 0.61989 0.66701 0.0
C1392 C 0.97756 0.60511 0.67039 0.0
C1393 C 0.00307 0.64874 0.67494 0.0
C1394 C 0.99603 0.65801 0.67283 0.0
C1395 C 0.01862 0.6548 0.66532 0.0
C1396 C 0.0269 0.64578 0.66774 0.0
C1397 C 0.0341 0.64355 0.64418 0.0
C1398 C 0.04175 0.63491 0.6464 0.0
C1399 C 0.04236 0.6285 0.67211 0.0
C1400 C 0.03535 0.63075 0.69568 0.0
C1401 C 0.02768 0.63938 0.69358 0.0
H1402 H 0.04828 0.62181 0.67378 0.0
H1403 H 0.97465 0.70648 0.6631 0.0
H1404 H 0.22899 0.36547 1.00072 0.0
H1405 H 0.20413 0.36493 0.99504 0.0
H1406 H 0.22872 0.41291 0.96714 0.0
H1407 H 0.25358 0.41362 0.97306 0.0
H1408 H 0.20792 0.40756 0.00963 0.0
H1409 H 0.20845 0.38387 0.92113 0.0
H1410 H 0.21044 0.36434 0.89194 0.0
H1411 H 0.17043 0.32736 0.93324 0.0
H1412 H 0.16834 0.34667 0.96294 0.0
H1413 H 0.14236 0.414 0.97296 0.0
H1414 H 0.16688 0.41371 0.96866 0.0
H1415 H 0.143 0.36479 0.99081 0.0
H1416 H 0.11849 0.36491 0.99467 0.0
H1417 H 0.16357 0.37064 0.95009 0.0
H1418 H 0.16277 0.39174 0.03932 0.0
H1419 H 0.16061 0.40926 0.07348 0.0
H1420 H 0.20045 0.44875 0.03685 0.0
H1421 H 0.2027 0.43147 1.00214 0.0
C1422 C 0.22907 0.37583 0.99306 0.0
C1423 C 0.24317 0.38961 0.98747 0.0
C1424 C 0.21489 0.37549 0.98975 0.0
C1425 C 0.21468 0.38887 0.98059 0.0
C1426 C 0.22872 0.40249 0.97427 0.0
C1427 C 0.24287 0.40286 0.97763 0.0
C1428 C 0.19989 0.38903 0.9792 0.0
C1429 C 0.1983 0.39972 0.99621 0.0
C1430 C 0.18722 0.3783 0.96258 0.0
C1431 C 0.1883 0.36671 0.94437 0.0
C1432 C 0.20013 0.37157 0.92409 0.0
C1433 C 0.20127 0.36054 0.90744 0.0
C1434 C 0.19059 0.34462 0.91076 0.0
C1435 C 0.17871 0.3397 0.93069 0.0
C1436 C 0.17752 0.35068 0.94741 0.0
C1437 C 0.14231 0.40315 0.97647 0.0
C1438 C 0.12859 0.38951 0.98436 0.0
C1439 C 0.15631 0.40302 0.97417 0.0
C1440 C 0.15673 0.38928 0.97984 0.0
C1441 C 0.14289 0.3755 0.98641 0.0
C1442 C 0.12892 0.37561 0.98868 0.0
C1443 C 0.17167 0.38938 0.98017 0.0
C1444 C 0.17325 0.37865 0.9632 0.0
C1445 C 0.18424 0.39984 0.99734 0.0
C1446 C 0.18276 0.41033 0.01785 0.0
C1447 C 0.17095 0.40418 0.03831 0.0
C1448 C 0.16974 0.41406 0.05783 0.0
C1449 C 0.18035 0.43012 0.05727 0.0
C1450 C 0.19221 0.43631 0.03721 0.0
C1451 C 0.19346 0.42648 0.01759 0.0
H1452 H 0.17941 0.43774 0.07244 0.0
H1453 H 0.1915 0.3361 0.89787 0.0
H1454 H 0.58273 0.73315 0.97543 0.0
H1455 H 0.58553 0.75889 0.96803 0.0
H1456 H 0.63357 0.78081 0.99493 0.0
H1457 H 0.63086 0.75511 1.00256 0.0
H1458 H 0.61581 0.78909 0.02643 0.0
H1459 H 0.6257 0.78625 0.92971 0.0
H1460 H 0.62102 0.77409 0.88304 0.0
H1461 H 0.57677 0.77231 0.87846 0.0
H1462 H 0.58107 0.78422 0.92533 0.0
H1463 H 0.62574 0.86497 0.01423 0.0
H1464 H 0.62924 0.84251 0.00562 0.0
H1465 H 0.58081 0.81487 0.98176 0.0
H1466 H 0.57717 0.83727 0.99037 0.0
H1467 H 0.60165 0.81123 0.94584 0.0
H1468 H 0.58953 0.80994 0.04336 0.0
H1469 H 0.59258 0.82073 0.09096 0.0
H1470 H 0.63942 0.82873 0.09463 0.0
H1471 H 0.63672 0.81822 0.04681 0.0
C1472 C 0.59399 0.74345 0.97913 0.0
C1473 C 0.60649 0.74218 0.99008 0.0
C1474 C 0.5956 0.75813 0.97471 0.0
C1475 C 0.60974 0.77169 0.98103 0.0
C1476 C 0.62257 0.77044 0.99002 0.0
C1477 C 0.62098 0.75577 0.99441 0.0
C1478 C 0.61033 0.78687 0.98241 0.0
C1479 C 0.61312 0.79416 0.00862 0.0
C1480 C 0.60625 0.79308 0.95939 0.0
C1481 C 0.60367 0.78604 0.93111 0.0
C1482 C 0.61492 0.78316 0.91884 0.0
C1483 C 0.61234 0.77632 0.89234 0.0
C1484 C 0.5986 0.77241 0.87781 0.0
C1485 C 0.58741 0.77535 0.88974 0.0
C1486 C 0.58993 0.78216 0.91626 0.0
C1487 C 0.61584 0.85411 0.00713 0.0
C1488 C 0.60115 0.85278 0.00319 0.0
C1489 C 0.61788 0.84135 1.00215 0.0
C1490 C 0.60527 0.82712 0.99309 0.0
C1491 C 0.59066 0.82583 0.98861 0.0
C1492 C 0.58858 0.83856 0.99379 0.0
C1493 C 0.60711 0.81332 0.9898 0.0
C1494 C 0.60467 0.80629 0.96341 0.0
C1495 C 0.61134 0.80718 0.0127 0.0
C1496 C 0.613 0.8135 0.04141 0.0
C1497 C 0.60054 0.81416 0.05421 0.0
C1498 C 0.60219 0.82019 0.08124 0.0
C1499 C 0.61621 0.82546 0.09578 0.0
C1500 C 0.62859 0.82468 0.08332 0.0
C1501 C 0.627 0.81869 0.05626 0.0
H1502 H 0.61746 0.83012 0.11672 0.0
H1503 H 0.59662 0.76712 0.85728 0.0
H1504 H 0.12435 0.75692 0.98812 0.0
H1505 H 0.14824 0.78221 0.98125 0.0
H1506 H 0.17612 0.7606 0.99718 0.0
H1507 H 0.1524 0.73531 0.00348 0.0
H1508 H 0.18292 0.78857 0.03048 0.0
H1509 H 0.17585 0.76865 0.93623 0.0
H1510 H 0.16103 0.75761 0.89264 0.0
H1511 H 0.15626 0.79822 0.8821 0.0
H1512 H 0.17086 0.80939 0.92593 0.0
H1513 H 0.25942 0.84244 0.99302 0.0
H1514 H 0.23393 0.81875 0.98861 0.0
H1515 H 0.21221 0.84676 0.97536 0.0
H1516 H 0.23766 0.8706 0.98026 0.0
H1517 H 0.20105 0.81698 0.94018 0.0
H1518 H 0.20876 0.83727 0.03394 0.0
H1519 H 0.22357 0.8482 0.07758 0.0
H1520 H 0.22671 0.80675 0.08948 0.0
H1521 H 0.21216 0.7957 0.04557 0.0
C1522 C 0.13559 0.75759 0.98997 0.0
C1523 C 0.13662 0.74426 0.99637 0.0
C1524 C 0.14914 0.77196 0.98596 0.0
C1525 C 0.16379 0.77311 0.98875 0.0
C1526 C 0.16483 0.75981 0.99496 0.0
C1527 C 0.15132 0.74542 0.99847 0.0
C1528 C 0.17812 0.78832 0.98646 0.0
C1529 C 0.18695 0.79475 0.01074 0.0
C1530 C 0.18303 0.79643 0.96079 0.0
C1531 C 0.17426 0.78975 0.9345 0.0
C1532 C 0.17149 0.77514 0.92478 0.0
C1533 C 0.16316 0.76888 0.9 0.0
C1534 C 0.15765 0.77718 0.88466 0.0
C1535 C 0.1605 0.79179 0.89404 0.0
C1536 C 0.1688 0.79809 0.91884 0.0
C1537 C 0.24927 0.84356 0.98857 0.0
C1538 C 0.2504 0.85828 0.98731 0.0
C1539 C 0.23478 0.83006 0.98607 0.0
C1540 C 0.22133 0.83116 0.98188 0.0
C1541 C 0.22255 0.84581 0.97857 0.0
C1542 C 0.23703 0.85934 0.98152 0.0
C1543 C 0.20594 0.81706 0.98412 0.0
C1544 C 0.19691 0.81086 0.95994 0.0
C1545 C 0.20077 0.80915 0.00993 0.0
C1546 C 0.20954 0.81575 0.03631 0.0
C1547 C 0.21277 0.83057 0.04568 0.0
C1548 C 0.22109 0.83677 0.0705 0.0
C1549 C 0.22612 0.8282 0.08625 0.0
C1550 C 0.22283 0.81339 0.07723 0.0
C1551 C 0.21455 0.80715 0.05238 0.0
H1552 H 0.23254 0.83301 0.10549 0.0
H1553 H 0.15122 0.77232 0.86546 0.0
H1554 H 0.36071 0.23457 0.99264 0.0
H1555 H 0.35809 0.20856 0.99209 0.0
H1556 H 0.40202 0.22686 0.03582 0.0
H1557 H 0.40492 0.25287 0.03562 0.0
H1558 H 0.40142 0.21157 0.98929 0.0
H1559 H 0.36583 0.20247 0.06747 0.0
H1560 H 0.34255 0.20144 0.08846 0.0
H1561 H 0.31337 0.16782 0.02684 0.0
H1562 H 0.33652 0.16877 0.00529 0.0
H1563 H 0.40894 0.14893 0.03208 0.0
H1564 H 0.40463 0.17118 0.03251 0.0
H1565 H 0.36081 0.14379 0.98927 0.0
H1566 H 0.36485 0.12127 0.98944 0.0
H1567 H 0.35854 0.16213 0.02844 0.0
H1568 H 0.39237 0.16872 0.95274 0.0
H1569 H 0.41484 0.16961 0.92865 0.0
H1570 H 0.44639 0.20789 0.98078 0.0
H1571 H 0.42411 0.20708 0.00551 0.0
C1572 C 0.36964 0.23293 1.00257 0.0
C1573 C 0.38307 0.24567 0.01399 0.0
C1574 C 0.36812 0.2181 1.00227 0.0
C1575 C 0.37988 0.21585 0.01389 0.0
C1576 C 0.39289 0.22843 0.02657 0.0
C1577 C 0.39451 0.24324 0.02651 0.0
C1578 C 0.37942 0.20076 0.01118 0.0
C1579 C 0.39214 0.20079 0.99813 0.0
C1580 C 0.36685 0.18658 0.02132 0.0
C1581 C 0.35292 0.1858 0.03463 0.0
C1582 C 0.35446 0.19492 0.05831 0.0
C1583 C 0.34129 0.19434 0.07032 0.0
C1584 C 0.32649 0.1846 0.05895 0.0
C1585 C 0.32483 0.17537 0.03561 0.0
C1586 C 0.33798 0.17591 0.02352 0.0
C1587 C 0.39832 0.1476 0.02292 0.0
C1588 C 0.38731 0.13348 0.01045 0.0
C1589 C 0.39589 0.16031 0.02309 0.0
C1590 C 0.38258 0.15918 0.01034 0.0
C1591 C 0.3712 0.14488 0.99904 0.0
C1592 C 0.37354 0.13207 0.99913 0.0
C1593 C 0.38098 0.17319 0.00797 0.0
C1594 C 0.3678 0.17291 0.01955 0.0
C1595 C 0.39303 0.18715 0.99607 0.0
C1596 C 0.40653 0.18776 0.98115 0.0
C1597 C 0.40409 0.17726 0.95923 0.0
C1598 C 0.41681 0.17776 0.94543 0.0
C1599 C 0.43204 0.18878 0.95321 0.0
C1600 C 0.43459 0.19935 0.97478 0.0
C1601 C 0.42191 0.19889 0.98868 0.0
H1602 H 0.44186 0.18915 0.9425 0.0
H1603 H 0.31631 0.18419 0.06826 0.0
H1604 H 0.86908 0.24221 0.02627 0.0
H1605 H 0.8444 0.21787 0.03199 0.0
H1606 H 0.82056 0.2439 0.04491 0.0
H1607 H 0.8453 0.26845 0.03918 0.0
H1608 H 0.80952 0.21669 0.07945 0.0
H1609 H 0.81931 0.2319 0.98364 0.0
H1610 H 0.83442 0.24071 0.93983 0.0
H1611 H 0.83799 0.19913 0.93796 0.0
H1612 H 0.82315 0.1902 0.98209 0.0
H1613 H 0.73456 0.153 0.0358 0.0
H1614 H 0.75814 0.17822 0.044 0.0
H1615 H 0.78661 0.1574 0.02671 0.0
H1616 H 0.76317 0.13224 0.01822 0.0
H1617 H 0.79422 0.1832 0.99464 0.0
H1618 H 0.78397 0.16834 0.09198 0.0
H1619 H 0.76769 0.15978 0.13452 0.0
H1620 H 0.76349 0.20099 0.13173 0.0
H1621 H 0.77957 0.20969 0.08891 0.0
C1622 C 0.85866 0.2428 0.03083 0.0
C1623 C 0.85905 0.2572 0.03188 0.0
C1624 C 0.84459 0.22889 0.03408 0.0
C1625 C 0.83071 0.22918 0.03843 0.0
C1626 C 0.8312 0.24353 0.04148 0.0
C1627 C 0.8453 0.25749 0.03813 0.0
C1628 C 0.81564 0.21448 0.03712 0.0
C1629 C 0.80604 0.20941 0.06085 0.0
C1630 C 0.81122 0.20508 0.0128 0.0
C1631 C 0.82027 0.21047 0.98636 0.0
C1632 C 0.82347 0.22471 0.97407 0.0
C1633 C 0.83196 0.22972 0.94914 0.0
C1634 C 0.8372 0.2205 0.93616 0.0
C1635 C 0.83395 0.20627 0.94807 0.0
C1636 C 0.8255 0.20123 0.97304 0.0
C1637 C 0.74585 0.15375 0.03421 0.0
C1638 C 0.74708 0.14073 0.02612 0.0
C1639 C 0.75928 0.16814 0.03898 0.0
C1640 C 0.77406 0.16961 0.0359 0.0
C1641 C 0.77527 0.15645 0.02907 0.0
C1642 C 0.76188 0.14211 0.02426 0.0
C1643 C 0.7883 0.18509 0.03728 0.0
C1644 C 0.79769 0.19042 0.01332 0.0
C1645 C 0.79237 0.19474 0.06126 0.0
C1646 C 0.78285 0.1896 0.08713 0.0
C1647 C 0.77948 0.17552 0.10032 0.0
C1648 C 0.7703 0.17065 0.1245 0.0
C1649 C 0.76453 0.17982 0.13578 0.0
C1650 C 0.76796 0.1939 0.12295 0.0
C1651 C 0.77711 0.19881 0.09874 0.0
H1652 H 0.75743 0.17603 0.15451 0.0
H1653 H 0.84374 0.22438 0.91683 0.0
H1654 H 0.86644 0.62903 0.99316 0.0
H1655 H 0.84238 0.6302 0.99336 0.0
H1656 H 0.81889 0.58618 0.03748 0.0
H1657 H 0.84283 0.58467 0.03645 0.0
H1658 H 0.80291 0.5861 0.99255 0.0
H1659 H 0.82928 0.62195 0.06956 0.0
H1660 H 0.8514 0.6452 0.09098 0.0
H1661 H 0.84706 0.67464 0.02977 0.0
H1662 H 0.82502 0.65153 0.00776 0.0
H1663 H 0.73245 0.58248 0.02582 0.0
H1664 H 0.75814 0.58483 0.02988 0.0
H1665 H 0.77869 0.62847 0.98462 0.0
H1666 H 0.75303 0.62637 0.98093 0.0
H1667 H 0.79667 0.62988 0.02814 0.0
H1668 H 0.77135 0.59605 0.95105 0.0
H1669 H 0.75022 0.57379 0.92566 0.0
H1670 H 0.75365 0.54173 0.98191 0.0
H1671 H 0.77466 0.56382 0.00794 0.0
C1672 C 0.85621 0.61972 0.00328 0.0
C1673 C 0.85641 0.60673 0.01472 0.0
C1674 C 0.8425 0.62044 0.00346 0.0
C1675 C 0.82894 0.60833 0.01564 0.0
C1676 C 0.82928 0.59561 0.02797 0.0
C1677 C 0.84292 0.59478 0.02742 0.0
C1678 C 0.81408 0.60834 0.01379 0.0
C1679 C 0.80144 0.59553 1.00079 0.0
C1680 C 0.81251 0.62105 0.02328 0.0
C1681 C 0.82556 0.63498 0.03691 0.0
C1682 C 0.83308 0.63337 0.06059 0.0
C1683 C 0.84561 0.64652 0.07284 0.0
C1684 C 0.85065 0.66138 0.06171 0.0
C1685 C 0.84314 0.66312 0.03836 0.0
C1686 C 0.83062 0.65 0.02602 0.0
C1687 C 0.74246 0.59262 0.01691 0.0
C1688 C 0.74078 0.60418 0.00287 0.0
C1689 C 0.75708 0.59392 0.01917 0.0
C1690 C 0.77019 0.60669 0.00713 0.0
C1691 C 0.76865 0.61852 0.99394 0.0
C1692 C 0.75402 0.61728 0.99182 0.0
C1693 C 0.7854 0.6074 0.00773 0.0
C1694 C 0.79812 0.6204 0.02013 0.0
C1695 C 0.78716 0.59498 0.99724 0.0
C1696 C 0.77449 0.58162 0.98164 0.0
C1697 C 0.76751 0.58426 0.95818 0.0
C1698 C 0.75557 0.57167 0.94363 0.0
C1699 C 0.75057 0.55636 0.95221 0.0
C1700 C 0.75752 0.5536 0.97532 0.0
C1701 C 0.76946 0.56616 0.98996 0.0
H1702 H 0.74132 0.54663 0.94091 0.0
H1703 H 0.86036 0.67155 0.07121 0.0
H1704 H 0.80043 0.7064 0.3111 0.0
H1705 H 0.82534 0.70827 0.29959 0.0
H1706 H 0.84078 0.75282 0.25985 0.0
H1707 H 0.81587 0.75119 0.27161 0.0
H1708 H 0.84937 0.72503 0.23686 0.0
H1709 H 0.8558 0.76356 0.30836 0.0
H1710 H 0.8464 0.77165 0.34939 0.0
H1711 H 0.84273 0.73287 0.39635 0.0
H1712 H 0.85184 0.72441 0.35537 0.0
H1713 H 0.93121 0.75039 0.28967 0.0
H1714 H 0.9088 0.75284 0.27466 0.0
H1715 H 0.87747 0.7062 0.30452 0.0
H1716 H 0.89973 0.70348 0.31898 0.0
H1717 H 0.87975 0.74041 0.32546 0.0
H1718 H 0.87078 0.7008 0.2523 0.0
H1719 H 0.88009 0.69246 0.21151 0.0
H1720 H 0.8895 0.73422 0.16754 0.0
H1721 H 0.88052 0.74293 0.20839 0.0
C1722 C 0.80894 0.71642 0.29931 0.0
C1723 C 0.80637 0.7288 0.29273 0.0
C1724 C 0.8231 0.7174 0.29258 0.0
C1725 C 0.83478 0.73069 0.27899 0.0
C1726 C 0.83179 0.74246 0.27022 0.0
C1727 C 0.81764 0.74156 0.27717 0.0
C1728 C 0.85076 0.73331 0.27908 0.0
C1729 C 0.85623 0.72873 0.25594 0.0
C1730 C 0.85959 0.73811 0.30403 0.0
C1731 C 0.85434 0.74328 0.32878 0.0
C1732 C 0.85284 0.75669 0.32736 0.0
C1733 C 0.84759 0.76135 0.35061 0.0
C1734 C 0.84393 0.75275 0.37544 0.0
C1735 C 0.84555 0.7395 0.37709 0.0
C1736 C 0.85076 0.73477 0.35387 0.0
C1737 C 0.91954 0.74059 0.29264 0.0
C1738 C 0.91712 0.72677 0.30563 0.0
C1739 C 0.90682 0.74197 0.28388 0.0
C1740 C 0.89163 0.72961 0.28819 0.0
C1741 C 0.8892 0.71572 0.30061 0.0
C1742 C 0.90188 0.71422 0.30897 0.0
C1743 C 0.87822 0.73182 0.28349 0.0
C1744 C 0.8732 0.73723 0.306 0.0
C1745 C 0.86995 0.72791 0.25795 0.0
C1746 C 0.87522 0.72261 0.23348 0.0
C1747 C 0.87504 0.70829 0.23408 0.0
C1748 C 0.8802 0.70348 0.21093 0.0
C1749 C 0.88544 0.71283 0.18699 0.0
C1750 C 0.88548 0.727 0.18613 0.0
C1751 C 0.88036 0.73188 0.20927 0.0
H1752 H 0.88942 0.70908 0.16906 0.0
H1753 H 0.83987 0.75638 0.39342 0.0
H1754 H 0.24864 0.18525 0.27568 0.0
H1755 H 0.24735 0.16085 0.26059 0.0
H1756 H 0.28355 0.16887 0.32007 0.0
H1757 H 0.28543 0.19345 0.33383 0.0
H1758 H 0.28907 0.15918 0.27418 0.0
H1759 H 0.24127 0.14309 0.33046 0.0
H1760 H 0.21574 0.14117 0.33904 0.0
H1761 H 0.19918 0.11889 0.25928 0.0
H1762 H 0.22467 0.1208 0.25017 0.0
H1763 H 0.28373 0.09367 0.33377 0.0
H1764 H 0.28256 0.11683 0.32084 0.0
H1765 H 0.24816 0.09051 0.25747 0.0
H1766 H 0.2487 0.06683 0.27158 0.0
H1767 H 0.24014 0.10843 0.28589 0.0
H1768 H 0.28698 0.11803 0.23941 0.0
H1769 H 0.31224 0.11876 0.23607 0.0
H1770 H 0.33094 0.15309 0.30153 0.0
H1771 H 0.30578 0.15244 0.30555 0.0
C1772 C 0.25633 0.18175 0.28532 0.0
C1773 C 0.26714 0.19115 0.30585 0.0
C1774 C 0.25557 0.16783 0.27678 0.0
C1775 C 0.26528 0.16296 0.28932 0.0
C1776 C 0.27604 0.17243 0.30984 0.0
C1777 C 0.27708 0.18645 0.31781 0.0
C1778 C 0.26432 0.14791 0.28211 0.0
C1779 C 0.27836 0.14807 0.27662 0.0
C1780 C 0.25022 0.1334 0.28392 0.0
C1781 C 0.23493 0.13228 0.28949 0.0
C1782 C 0.23221 0.13787 0.3147 0.0
C1783 C 0.21775 0.13677 0.31967 0.0
C1784 C 0.20587 0.12997 0.29968 0.0
C1785 C 0.20841 0.1242 0.27472 0.0
C1786 C 0.22285 0.12529 0.26964 0.0
C1787 C 0.27604 0.09283 0.31687 0.0
C1788 C 0.26642 0.07855 0.30345 0.0
C1789 C 0.27544 0.10611 0.30935 0.0
C1790 C 0.26563 0.10553 0.28757 0.0
C1791 C 0.25595 0.09124 0.27409 0.0
C1792 C 0.25628 0.07778 0.2821 0.0
C1793 C 0.26511 0.11982 0.28037 0.0
C1794 C 0.25078 0.1195 0.28259 0.0
C1795 C 0.279 0.13424 0.276 0.0
C1796 C 0.29445 0.13521 0.27269 0.0
C1797 C 0.29648 0.12576 0.25306 0.0
C1798 C 0.31078 0.12614 0.25109 0.0
C1799 C 0.32319 0.13597 0.26855 0.0
C1800 C 0.32134 0.14551 0.28795 0.0
C1801 C 0.30707 0.14518 0.29001 0.0
H1802 H 0.33422 0.1362 0.26706 0.0
H1803 H 0.19469 0.12913 0.30356 0.0
H1804 H 0.79585 0.09004 0.29918 0.0
H1805 H 0.82002 0.11439 0.28964 0.0
H1806 H 0.84569 0.08964 0.29103 0.0
H1807 H 0.82154 0.0652 0.30088 0.0
H1808 H 0.85794 0.11509 0.32591 0.0
H1809 H 0.84087 0.10384 0.23031 0.0
H1810 H 0.82158 0.09666 0.19234 0.0
H1811 H 0.81909 0.13821 0.20768 0.0
H1812 H 0.83822 0.14554 0.24602 0.0
H1813 H 0.92984 0.18082 0.29444 0.0
H1814 H 0.90674 0.15531 0.28614 0.0
H1815 H 0.87773 0.1765 0.28776 0.0
H1816 H 0.9008 0.2021 0.2961 0.0
H1817 H 0.86787 0.15223 0.24808 0.0
H1818 H 0.8813 0.16224 0.34493 0.0
H1819 H 0.89838 0.16954 0.38638 0.0
H1820 H 0.90547 0.13059 0.37211 0.0
H1821 H 0.88864 0.12323 0.33021 0.0
C1822 C 0.80661 0.08974 0.29712 0.0
C1823 C 0.80686 0.07577 0.30099 0.0
C1824 C 0.82038 0.10364 0.29149 0.0
C1825 C 0.83459 0.10376 0.2895 0.0
C1826 C 0.8348 0.08974 0.29246 0.0
C1827 C 0.82102 0.07581 0.29804 0.0
C1828 C 0.84937 0.11874 0.28682 0.0
C1829 C 0.86029 0.12304 0.30853 0.0
C1830 C 0.85207 0.12933 0.26471 0.0
C1831 C 0.84092 0.1252 0.24113 0.0
C1832 C 0.83616 0.11142 0.22566 0.0
C1833 C 0.82525 0.10732 0.20408 0.0
C1834 C 0.81909 0.11696 0.19764 0.0
C1835 C 0.82387 0.13076 0.21269 0.0
C1836 C 0.83478 0.1349 0.23432 0.0
C1837 C 0.91859 0.18011 0.29244 0.0
C1838 C 0.91706 0.19339 0.29631 0.0
C1839 C 0.90542 0.16555 0.28771 0.0
C1840 C 0.89057 0.16406 0.28671 0.0
C1841 C 0.88913 0.17746 0.2885 0.0
C1842 C 0.90229 0.19203 0.29339 0.0
C1843 C 0.87646 0.14842 0.28699 0.0
C1844 C 0.86564 0.14409 0.26507 0.0
C1845 C 0.87366 0.13786 0.30918 0.0
C1846 C 0.88391 0.14232 0.3342 0.0
C1847 C 0.88666 0.15534 0.35042 0.0
C1848 C 0.89626 0.15947 0.37404 0.0
C1849 C 0.90305 0.15057 0.38182 0.0
C1850 C 0.90024 0.13751 0.36601 0.0
C1851 C 0.89067 0.13335 0.34231 0.0
H1852 H 0.91046 0.15377 0.40015 0.0
H1853 H 0.81061 0.11375 0.18096 0.0
H1854 H 0.08658 0.48804 0.33905 0.0
H1855 H 0.08806 0.51322 0.34632 0.0
H1856 H 0.05407 0.49308 0.41288 0.0
H1857 H 0.05164 0.46751 0.40367 0.0
H1858 H 0.04612 0.50815 0.38105 0.0
H1859 H 0.09661 0.52183 0.42162 0.0
H1860 H 0.12265 0.52416 0.42099 0.0
H1861 H 0.13523 0.55391 0.3488 0.0
H1862 H 0.10924 0.55165 0.34881 0.0
H1863 H 0.04988 0.58068 0.40611 0.0
H1864 H 0.05146 0.55687 0.41297 0.0
H1865 H 0.08728 0.57255 0.34937 0.0
H1866 H 0.08662 0.59682 0.34459 0.0
H1867 H 0.09459 0.55972 0.38596 0.0
H1868 H 0.04525 0.54396 0.33931 0.0
H1869 H 0.01905 0.54095 0.33399 0.0
H1870 H 0.0043 0.51476 0.41056 0.0
H1871 H 0.03046 0.51774 0.41646 0.0
C1872 C 0.07969 0.48916 0.35557 0.0
C1873 C 0.0691 0.47607 0.37102 0.0
C1874 C 0.08061 0.50356 0.3599 0.0
C1875 C 0.07144 0.50521 0.38063 0.0
C1876 C 0.0613 0.49214 0.39685 0.0
C1877 C 0.05996 0.47759 0.39175 0.0
C1878 C 0.07127 0.52009 0.38353 0.0
C1879 C 0.05673 0.51941 0.38275 0.0
C1880 C 0.08512 0.53485 0.38466 0.0
C1881 C 0.10093 0.53652 0.3852 0.0
C1882 C 0.10491 0.52885 0.40559 0.0
C1883 C 0.11967 0.53015 0.40533 0.0
C1884 C 0.13058 0.53916 0.38486 0.0
C1885 C 0.12678 0.54695 0.36466 0.0
C1886 C 0.11205 0.54569 0.36484 0.0
C1887 C 0.05819 0.579 0.394 0.0
C1888 C 0.06817 0.59041 0.37495 0.0
C1889 C 0.05901 0.56538 0.39766 0.0
C1890 C 0.06926 0.56269 0.38125 0.0
C1891 C 0.07932 0.57431 0.3624 0.0
C1892 C 0.07893 0.58814 0.35958 0.0
C1893 C 0.06945 0.54777 0.38305 0.0
C1894 C 0.08397 0.54844 0.38472 0.0
C1895 C 0.05561 0.533 0.38203 0.0
C1896 C 0.03988 0.53124 0.37848 0.0
C1897 C 0.03645 0.53765 0.3551 0.0
C1898 C 0.0216 0.53593 0.35197 0.0
C1899 C 0.01004 0.52771 0.37197 0.0
C1900 C 0.01328 0.52115 0.39511 0.0
C1901 C 0.02811 0.52284 0.39834 0.0
H1902 H -0.00144 0.5264 0.36951 0.0
H1903 H 0.14198 0.54012 0.38466 0.0
H1904 H 0.50186 0.59854 0.36251 0.0
H1905 H 0.47751 0.57383 0.36845 0.0
H1906 H 0.50328 0.55283 0.4022 0.0
H1907 H 0.52778 0.57733 0.39437 0.0
H1908 H 0.48328 0.53426 0.3665 0.0
H1909 H 0.47954 0.56465 0.44335 0.0
H1910 H 0.4797 0.58786 0.46289 0.0
H1911 H 0.44094 0.57929 0.41041 0.0
H1912 H 0.44067 0.55615 0.39034 0.0
H1913 H 0.41783 0.46335 0.39832 0.0
H1914 H 0.44081 0.48873 0.40839 0.0
H1915 H 0.41736 0.51198 0.37408 0.0
H1916 H 0.39409 0.48665 0.36549 0.0
H1917 H 0.43625 0.52938 0.41327 0.0
H1918 H 0.4406 0.5025 0.33315 0.0
H1919 H 0.44003 0.4805 0.30768 0.0
H1920 H 0.47702 0.48378 0.35957 0.0
H1921 H 0.47766 0.50569 0.38562 0.0
C1922 C 0.50227 0.58865 0.37141 0.0
C1923 C 0.51659 0.58974 0.37812 0.0
C1924 C 0.48835 0.57458 0.37502 0.0
C1925 C 0.4885 0.56156 0.38645 0.0
C1926 C 0.50286 0.56275 0.39349 0.0
C1927 C 0.51683 0.5767 0.38906 0.0
C1928 C 0.4738 0.54641 0.38946 0.0
C1929 C 0.47313 0.53315 0.37733 0.0
C1930 C 0.4603 0.54508 0.40245 0.0
C1931 C 0.46013 0.55869 0.41529 0.0
C1932 C 0.47107 0.56773 0.43597 0.0
C1933 C 0.47118 0.58088 0.44711 0.0
C1934 C 0.46035 0.58506 0.43788 0.0
C1935 C 0.44932 0.57604 0.41756 0.0
C1936 C 0.44916 0.56289 0.40634 0.0
C1937 C 0.41747 0.47391 0.39368 0.0
C1938 C 0.40436 0.47313 0.38078 0.0
C1939 C 0.4306 0.48838 0.3993 0.0
C1940 C 0.43097 0.50222 0.39112 0.0
C1941 C 0.41738 0.50145 0.38037 0.0
C1942 C 0.4041 0.48697 0.37543 0.0
C1943 C 0.44589 0.51726 0.39077 0.0
C1944 C 0.44655 0.53048 0.40305 0.0
C1945 C 0.45931 0.51869 0.37731 0.0
C1946 C 0.45906 0.50561 0.36153 0.0
C1947 C 0.44855 0.49847 0.33924 0.0
C1948 C 0.44822 0.48602 0.32469 0.0
C1949 C 0.45845 0.48072 0.33206 0.0
C1950 C 0.46908 0.48788 0.35393 0.0
C1951 C 0.46943 0.50032 0.36859 0.0
H1952 H 0.45818 0.47108 0.32077 0.0
H1953 H 0.46049 0.59526 0.44648 0.0
H1954 H 0.40096 0.92079 0.40952 0.0
H1955 H 0.42537 0.92074 0.41785 0.0
H1956 H 0.44968 0.96055 0.36324 0.0
H1957 H 0.42541 0.96084 0.35509 0.0
H1958 H 0.44842 0.93135 0.34674 0.0
H1959 H 0.4611 0.96667 0.42417 0.0
H1960 H 0.45612 0.97554 0.46922 0.0
H1961 H 0.45173 0.93472 0.50976 0.0
H1962 H 0.45644 0.92548 0.46481 0.0
H1963 H 0.52704 0.95368 0.3502 0.0
H1964 H 0.50297 0.95392 0.3597 0.0
H1965 H 0.48492 0.91057 0.40516 0.0
H1966 H 0.50909 0.91005 0.3953 0.0
H1967 H 0.48158 0.93858 0.42976 0.0
H1968 H 0.46947 0.90351 0.35206 0.0
H1969 H 0.47453 0.89493 0.30676 0.0
H1970 H 0.4774 0.93519 0.26662 0.0
H1971 H 0.47264 0.94417 0.31181 0.0
C1972 C 0.41161 0.92981 0.39997 0.0
C1973 C 0.41132 0.94064 0.38128 0.0
C1974 C 0.42551 0.9298 0.40484 0.0
C1975 C 0.43916 0.94055 0.39091 0.0
C1976 C 0.43916 0.95217 0.37408 0.0
C1977 C 0.42532 0.95232 0.36949 0.0
C1978 C 0.45263 0.93808 0.39016 0.0
C1979 C 0.45575 0.93305 0.36483 0.0
C1980 C 0.46171 0.93974 0.41408 0.0
C1981 C 0.45894 0.94529 0.44109 0.0
C1982 C 0.45891 0.9595 0.44263 0.0
C1983 C 0.45617 0.96462 0.46816 0.0
C1984 C 0.45356 0.95568 0.49232 0.0
C1985 C 0.45373 0.94162 0.49102 0.0
C1986 C 0.45644 0.93644 0.46553 0.0
C1987 C 0.51803 0.94423 0.36241 0.0
C1988 C 0.51986 0.93179 0.3719 0.0
C1989 C 0.50433 0.94442 0.36784 0.0
C1990 C 0.49231 0.93227 0.38306 0.0
C1991 C 0.4942 0.92005 0.39344 0.0
C1992 C 0.5079 0.91973 0.38767 0.0
C1993 C 0.47748 0.93215 0.38622 0.0
C1994 C 0.47407 0.93666 0.41186 0.0
C1995 C 0.46802 0.92995 0.3626 0.0
C1996 C 0.47086 0.92459 0.33537 0.0
C1997 C 0.47135 0.91063 0.33363 0.0
C1998 C 0.47413 0.90567 0.30796 0.0
C1999 C 0.47633 0.91453 0.28383 0.0
C2000 C 0.47572 0.92835 0.28533 0.0
C2001 C 0.47297 0.93337 0.31096 0.0
H2002 H 0.47847 0.91067 0.26397 0.0
H2003 H 0.45144 0.95966 0.51207 0.0
H2004 H 0.59737 0.09442 0.63154 0.0
H2005 H 0.57368 0.09461 0.61781 0.0
H2006 H 0.55009 0.04465 0.60518 0.0
H2007 H 0.57363 0.04432 0.61977 0.0
H2008 H 0.55423 0.08663 0.57431 0.0
H2009 H 0.51388 0.02872 0.63267 0.0
H2010 H 0.51516 0.013 0.67169 0.0
H2011 H 0.55325 0.05425 0.70799 0.0
H2012 H 0.55204 0.07021 0.66943 0.0
H2013 H 0.46427 0.04879 0.60713 0.0
H2014 H 0.48763 0.04792 0.59382 0.0
H2015 H 0.51609 0.09696 0.61342 0.0
H2016 H 0.49267 0.09797 0.62641 0.0
H2017 H 0.50869 0.05373 0.63495 0.0
H2018 H 0.55109 0.11149 0.57909 0.0
H2019 H 0.55008 0.12965 0.54484 0.0
H2020 H 0.50821 0.09205 0.50931 0.0
H2021 H 0.50907 0.07362 0.54309 0.0
C2022 C 0.58718 0.08351 0.62553 0.0
C2023 C 0.58718 0.06931 0.62724 0.0
C2024 C 0.57371 0.08365 0.61749 0.0
C2025 C 0.56011 0.06962 0.6109 0.0
C2026 C 0.56043 0.05557 0.61066 0.0
C2027 C 0.57384 0.05538 0.61907 0.0
C2028 C 0.54523 0.0695 0.60738 0.0
C2029 C 0.54424 0.07945 0.58751 0.0
C2030 C 0.53223 0.0601 0.62461 0.0
C2031 C 0.53301 0.05059 0.64795 0.0
C2032 C 0.52251 0.03442 0.649 0.0
C2033 C 0.52322 0.02547 0.67104 0.0
C2034 C 0.53432 0.03261 0.69223 0.0
C2035 C 0.5447 0.04872 0.6915 0.0
C2036 C 0.54402 0.05771 0.66954 0.0
C2037 C 0.47547 0.05947 0.60799 0.0
C2038 C 0.47676 0.07338 0.61832 0.0
C2039 C 0.48877 0.05897 0.60023 0.0
C2040 C 0.50353 0.07234 0.60275 0.0
C2041 C 0.50475 0.08655 0.61102 0.0
C2042 C 0.4914 0.0871 0.61863 0.0
C2043 C 0.51758 0.07077 0.60172 0.0
C2044 C 0.51849 0.0606 0.62111 0.0
C2045 C 0.53055 0.08028 0.58457 0.0
C2046 C 0.53011 0.09119 0.56375 0.0
C2047 C 0.54172 0.10707 0.56385 0.0
C2048 C 0.54116 0.11742 0.54456 0.0
C2049 C 0.52907 0.11201 0.52495 0.0
C2050 C 0.51754 0.09623 0.52456 0.0
C2051 C 0.51805 0.08584 0.54381 0.0
H2052 H 0.52864 0.12004 0.51005 0.0
H2053 H 0.53486 0.02567 0.70927 0.0
H2054 H 0.90429 0.39456 0.62212 0.0
H2055 H 0.90241 0.4182 0.61607 0.0
H2056 H 0.95262 0.44597 0.61139 0.0
H2057 H 0.95462 0.42252 0.61742 0.0
H2058 H 0.93915 0.4538 0.65534 0.0
H2059 H 0.93181 0.44363 0.55611 0.0
H2060 H 0.91887 0.42771 0.51436 0.0
H2061 H 0.8757 0.42486 0.53859 0.0
H2062 H 0.88834 0.44058 0.58075 0.0
H2063 H 0.95265 0.52925 0.63909 0.0
H2064 H 0.95136 0.50445 0.62887 0.0
H2065 H 0.90103 0.4813 0.62694 0.0
H2066 H 0.90224 0.50626 0.63664 0.0
H2067 H 0.91244 0.47005 0.58642 0.0
H2068 H 0.91818 0.47905 0.68454 0.0
H2069 H 0.92949 0.49382 0.72809 0.0
H2070 H 0.97343 0.49707 0.70878 0.0
H2071 H 0.96245 0.48252 0.66485 0.0
C2072 C 0.9149 0.40565 0.619 0.0
C2073 C 0.92962 0.40677 0.62073 0.0
C2074 C 0.91379 0.41912 0.61547 0.0
C2075 C 0.92739 0.43378 0.61352 0.0
C2076 C 0.94201 0.43473 0.613 0.0
C2077 C 0.94312 0.42132 0.61647 0.0
C2078 C 0.92661 0.44825 0.61629 0.0
C2079 C 0.93354 0.45749 0.64002 0.0
C2080 C 0.91857 0.45256 0.59704 0.0
C2081 C 0.91098 0.44314 0.57172 0.0
C2082 C 0.91952 0.43948 0.55268 0.0
C2083 C 0.91225 0.43052 0.52891 0.0
C2084 C 0.89646 0.42524 0.52387 0.0
C2085 C 0.88792 0.42894 0.54255 0.0
C2086 C 0.89514 0.43788 0.56637 0.0
C2087 C 0.9413 0.51892 0.63626 0.0
C2088 C 0.92753 0.51962 0.639 0.0
C2089 C 0.94059 0.50477 0.63043 0.0
C2090 C 0.92609 0.49103 0.62766 0.0
C2091 C 0.91232 0.49179 0.62911 0.0
C2092 C 0.91303 0.50602 0.63474 0.0
C2093 C 0.92547 0.47583 0.62498 0.0
C2094 C 0.91811 0.46637 0.60162 0.0
C2095 C 0.93287 0.47109 0.64486 0.0
C2096 C 0.93953 0.47982 0.67128 0.0
C2097 C 0.9303 0.48303 0.68946 0.0
C2098 C 0.93664 0.49134 0.71423 0.0
C2099 C 0.95218 0.49641 0.72117 0.0
C2100 C 0.9614 0.49315 0.70336 0.0
C2101 C 0.95512 0.48486 0.67853 0.0
H2102 H 0.95707 0.50284 0.74037 0.0
H2103 H 0.89086 0.41831 0.50544 0.0
H2104 H 0.60162 0.5065 0.63663 0.0
H2105 H 0.57701 0.48238 0.62791 0.0
H2106 H 0.55362 0.50908 0.61733 0.0
H2107 H 0.57806 0.53314 0.62716 0.0
H2108 H 0.53842 0.48637 0.65262 0.0
H2109 H 0.56078 0.49028 0.5615 0.0
H2110 H 0.5813 0.49332 0.52855 0.0
H2111 H 0.57839 0.45122 0.56008 0.0
H2112 H 0.55799 0.44804 0.59349 0.0
H2113 H 0.46569 0.42251 0.62008 0.0
H2114 H 0.49037 0.44658 0.61177 0.0
H2115 H 0.51554 0.42205 0.62718 0.0
H2116 H 0.49084 0.3978 0.63477 0.0
H2117 H 0.52946 0.44391 0.58653 0.0
H2118 H 0.50955 0.44111 0.6796 0.0
H2119 H 0.48985 0.43789 0.71464 0.0
H2120 H 0.48912 0.4779 0.68128 0.0
H2121 H 0.50867 0.48121 0.64577 0.0
C2122 C 0.59126 0.50721 0.63202 0.0
C2123 C 0.59165 0.52161 0.63272 0.0
C2124 C 0.57724 0.49345 0.62689 0.0
C2125 C 0.56351 0.49396 0.62173 0.0
C2126 C 0.56408 0.50844 0.62132 0.0
C2127 C 0.57802 0.52215 0.62693 0.0
C2128 C 0.54831 0.47936 0.61928 0.0
C2129 C 0.53637 0.47724 0.63772 0.0
C2130 C 0.54584 0.46724 0.60053 0.0
C2131 C 0.55791 0.46898 0.58011 0.0
C2132 C 0.56457 0.48171 0.5615 0.0
C2133 C 0.57618 0.48346 0.54274 0.0
C2134 C 0.58117 0.47248 0.54225 0.0
C2135 C 0.57452 0.45971 0.56048 0.0
C2136 C 0.56291 0.45792 0.5793 0.0
C2137 C 0.47647 0.4222 0.62125 0.0
C2138 C 0.47643 0.40841 0.62852 0.0
C2139 C 0.49054 0.43593 0.61649 0.0
C2140 C 0.50474 0.43612 0.61945 0.0
C2141 C 0.50468 0.42212 0.6249 0.0
C2142 C 0.49058 0.40832 0.62933 0.0
C2143 C 0.51962 0.4511 0.6196 0.0
C2144 C 0.53149 0.4532 0.60101 0.0
C2145 C 0.52213 0.46321 0.63838 0.0
C2146 C 0.51045 0.46131 0.65985 0.0
C2147 C 0.50511 0.44915 0.67961 0.0
C2148 C 0.49398 0.44732 0.69957 0.0
C2149 C 0.4882 0.45766 0.70014 0.0
C2150 C 0.49358 0.46988 0.68079 0.0
C2151 C 0.50469 0.47175 0.66075 0.0
H2152 H 0.47959 0.45623 0.71561 0.0
H2153 H 0.59016 0.47386 0.52772 0.0
H2154 H 0.74739 0.93005 0.71919 0.0
H2155 H 0.74997 0.90765 0.73325 0.0
H2156 H 0.70157 0.87653 0.71259 0.0
H2157 H 0.69883 0.89888 0.69877 0.0
H2158 H 0.71118 0.86654 0.75923 0.0
H2159 H 0.72825 0.88457 0.66431 0.0
H2160 H 0.74409 0.9043 0.6288 0.0
H2161 H 0.78609 0.91109 0.66819 0.0
H2162 H 0.77045 0.89154 0.70422 0.0
H2163 H 0.70126 0.79787 0.69752 0.0
H2164 H 0.70323 0.82222 0.7136 0.0
H2165 H 0.75245 0.84133 0.72941 0.0
H2166 H 0.75057 0.81695 0.71306 0.0
H2167 H 0.74689 0.8596 0.69553 0.0
H2168 H 0.72809 0.8356 0.78354 0.0
H2169 H 0.71117 0.81486 0.81665 0.0
H2170 H 0.67157 0.8181 0.78894 0.0
H2171 H 0.68818 0.83869 0.75531 0.0
C2172 C 0.73722 0.91845 0.71808 0.0
C2173 C 0.72298 0.91614 0.70739 0.0
C2174 C 0.73872 0.9057 0.72623 0.0
C2175 C 0.72601 0.89047 0.72362 0.0
C2176 C 0.7115 0.88822 0.71478 0.0
C2177 C 0.70999 0.90097 0.70666 0.0
C2178 C 0.72826 0.87684 0.72641 0.0
C2179 C 0.71899 0.86497 0.74543 0.0
C2180 C 0.73878 0.87507 0.70882 0.0
C2181 C 0.7482 0.88677 0.68715 0.0
C2182 C 0.74086 0.89037 0.66553 0.0
C2183 C 0.7498 0.9015 0.64529 0.0
C2184 C 0.76609 0.90899 0.64629 0.0
C2185 C 0.77347 0.90532 0.66749 0.0
C2186 C 0.76458 0.89422 0.68783 0.0
C2187 C 0.71245 0.80716 0.70483 0.0
C2188 C 0.72581 0.80562 0.7037 0.0
C2189 C 0.71353 0.82101 0.71431 0.0
C2190 C 0.72797 0.83352 0.72291 0.0
C2191 C 0.74119 0.83176 0.72298 0.0
C2192 C 0.74011 0.81786 0.71357 0.0
C2193 C 0.72949 0.849 0.72789 0.0
C2194 C 0.73945 0.86127 0.71013 0.0
C2195 C 0.7195 0.85102 0.74646 0.0
C2196 C 0.70941 0.83868 0.76678 0.0
C2197 C 0.71575 0.83183 0.78435 0.0
C2198 C 0.70622 0.8201 0.80324 0.0
C2199 C 0.6903 0.81516 0.80488 0.0
C2200 C 0.6839 0.82195 0.78766 0.0
C2201 C 0.69339 0.83368 0.7687 0.0
H2202 H 0.68294 0.80608 0.81952 0.0
H2203 H 0.77299 0.9176 0.63059 0.0
H2204 H 0.06627 0.81659 0.7208 0.0
H2205 H 0.08883 0.84141 0.73501 0.0
H2206 H 0.11967 0.82479 0.70834 0.0
H2207 H 0.09718 0.79985 0.69459 0.0
H2208 H 0.13066 0.8425 0.75517 0.0
H2209 H 0.11039 0.84573 0.66467 0.0
H2210 H 0.09028 0.84377 0.63174 0.0
H2211 H 0.085 0.8776 0.67976 0.0
H2212 H 0.10495 0.87958 0.71324 0.0
H2213 H 0.19828 0.90465 0.6975 0.0
H2214 H 0.17417 0.88139 0.71138 0.0
H2215 H 0.15494 0.91013 0.73752 0.0
H2216 H 0.17905 0.93356 0.72312 0.0
H2217 H 0.13621 0.88805 0.70158 0.0
H2218 H 0.16229 0.88883 0.78563 0.0
H2219 H 0.1843 0.89136 0.81389 0.0
H2220 H 0.1804 0.85045 0.77463 0.0
H2221 H 0.15852 0.84779 0.74578 0.0
C2222 C 0.07785 0.81815 0.71831 0.0
C2223 C 0.08 0.80639 0.70618 0.0
C2224 C 0.09071 0.83232 0.72649 0.0
C2225 C 0.10591 0.83499 0.72238 0.0
C2226 C 0.10803 0.82294 0.71171 0.0
C2227 C 0.09518 0.80875 0.70367 0.0
C2228 C 0.11962 0.85076 0.72635 0.0
C2229 C 0.13191 0.85251 0.74357 0.0
C2230 C 0.12105 0.86386 0.71165 0.0
C2231 C 0.10898 0.86262 0.69167 0.0
C2232 C 0.10483 0.85263 0.66835 0.0
C2233 C 0.09348 0.85154 0.64957 0.0
C2234 C 0.08632 0.86051 0.65372 0.0
C2235 C 0.09052 0.87062 0.67663 0.0
C2236 C 0.10185 0.87173 0.69552 0.0
C2237 C 0.18903 0.90606 0.70663 0.0
C2238 C 0.19045 0.92088 0.70893 0.0
C2239 C 0.1753 0.89275 0.71482 0.0
C2240 C 0.16281 0.89404 0.72572 0.0
C2241 C 0.16447 0.90891 0.72924 0.0
C2242 C 0.17823 0.92226 0.72098 0.0
C2243 C 0.14748 0.87977 0.72987 0.0
C2244 C 0.13485 0.87825 0.71404 0.0
C2245 C 0.14587 0.86689 0.74554 0.0
C2246 C 0.15875 0.86813 0.76347 0.0
C2247 C 0.16615 0.88039 0.78294 0.0
C2248 C 0.17862 0.88186 0.79906 0.0
C2249 C 0.18375 0.87108 0.79605 0.0
C2250 C 0.1764 0.85878 0.77696 0.0
C2251 C 0.16393 0.85727 0.76076 0.0
H2252 H 0.19343 0.87226 0.80851 0.0
H2253 H 0.07755 0.85966 0.63913 0.0
H2254 H 0.18309 0.25083 0.73456 0.0
H2255 H 0.1591 0.25122 0.74651 0.0
H2256 H 0.16657 0.28135 0.67555 0.0
H2257 H 0.19098 0.2819 0.66523 0.0
H2258 H 0.15859 0.29175 0.7166 0.0
H2259 H 0.13894 0.23835 0.67952 0.0
H2260 H 0.13601 0.21202 0.68114 0.0
H2261 H 0.11695 0.20521 0.76405 0.0
H2262 H 0.11989 0.23155 0.76299 0.0
H2263 H 0.09046 0.28408 0.66418 0.0
H2264 H 0.11363 0.28229 0.6742 0.0
H2265 H 0.09143 0.25496 0.74814 0.0
H2266 H 0.06751 0.2557 0.73657 0.0
H2267 H 0.10681 0.24353 0.72239 0.0
H2268 H 0.121 0.29576 0.75115 0.0
H2269 H 0.12292 0.32147 0.74488 0.0
H2270 H 0.15218 0.33038 0.6729 0.0
H2271 H 0.15031 0.30469 0.67853 0.0
C2272 C 0.17948 0.2575 0.72169 0.0
C2273 C 0.1887 0.26636 0.69907 0.0
C2274 C 0.1658 0.25767 0.72839 0.0
C2275 C 0.16092 0.26621 0.7118 0.0
C2276 C 0.17013 0.2748 0.68888 0.0
C2277 C 0.18401 0.27507 0.68286 0.0
C2278 C 0.14639 0.26656 0.71781 0.0
C2279 C 0.14726 0.28119 0.71782 0.0
C2280 C 0.13166 0.25283 0.72085 0.0
C2281 C 0.12981 0.23697 0.7213 0.0
C2282 C 0.1342 0.23126 0.69814 0.0
C2283 C 0.13253 0.21633 0.69895 0.0
C2284 C 0.12635 0.20697 0.72272 0.0
C2285 C 0.12177 0.21249 0.74568 0.0
C2286 C 0.12343 0.2274 0.74498 0.0
C2287 C 0.09059 0.27779 0.68268 0.0
C2288 C 0.07746 0.27025 0.69994 0.0
C2289 C 0.10386 0.27686 0.68853 0.0
C2290 C 0.10452 0.26902 0.71257 0.0
C2291 C 0.09125 0.26127 0.72973 0.0
C2292 C 0.07768 0.26173 0.72323 0.0
C2293 C 0.11901 0.26866 0.71878 0.0
C2294 C 0.11815 0.2541 0.72172 0.0
C2295 C 0.13381 0.28246 0.71792 0.0
C2296 C 0.13553 0.29827 0.71535 0.0
C2297 C 0.12787 0.30321 0.73403 0.0
C2298 C 0.12893 0.31778 0.73054 0.0
C2299 C 0.13767 0.32755 0.70851 0.0
C2300 C 0.14544 0.32282 0.69 0.0
C2301 C 0.14443 0.30828 0.6934 0.0
H2302 H 0.13842 0.33879 0.70579 0.0
H2303 H 0.12507 0.19543 0.72331 0.0
H2304 H 0.06591 0.41295 0.2773 0.0
H2305 H 0.0737 0.41163 0.2298 0.0
H2306 H 0.1133 0.45826 0.23797 0.0
H2307 H 0.10485 0.45978 0.28562 0.0
H2308 H 0.09973 0.45736 0.19317 0.0
H2309 H 0.11719 0.42423 0.22826 0.0
H2310 H 0.11719 0.403 0.25539 0.0
H2311 H 0.07732 0.36898 0.20928 0.0
H2312 H 0.07695 0.39001 0.18209 0.0
H2313 H 0.12106 0.4331 0.05838 0.0
H2314 H 0.12181 0.44314 0.10561 0.0
H2315 H 0.07154 0.41684 0.10901 0.0
H2316 H 0.07074 0.40721 0.06141 0.0
H2317 H 0.09586 0.41047 0.14745 0.0
H2318 H 0.07912 0.44748 0.11601 0.0
H2319 H 0.08287 0.47032 0.0888 0.0
H2320 H 0.12726 0.4989 0.12852 0.0
H2321 H 0.12386 0.47614 0.15566 0.0
C2322 C 0.0766 0.42265 0.26947 0.0
C2323 C 0.08499 0.4363 0.28528 0.0
C2324 C 0.0811 0.42192 0.24215 0.0
C2325 C 0.09427 0.43476 0.23028 0.0
C2326 C 0.10313 0.44818 0.24665 0.0
C2327 C 0.09842 0.44899 0.2739 0.0
C2328 C 0.09748 0.43467 0.19995 0.0
C2329 C 0.0992 0.4472 0.18333 0.0
C2330 C 0.09689 0.42151 0.18689 0.0
C2331 C 0.09699 0.40875 0.20324 0.0
C2332 C 0.10835 0.41224 0.22403 0.0
C2333 C 0.10843 0.40023 0.23939 0.0
C2334 C 0.09725 0.38465 0.23409 0.0
C2335 C 0.08598 0.38105 0.21336 0.0
C2336 C 0.08585 0.39302 0.19792 0.0
C2337 C 0.11016 0.4302 0.06865 0.0
C2338 C 0.09583 0.41957 0.05629 0.0
C2339 C 0.11062 0.43586 0.09561 0.0
C2340 C 0.09674 0.43072 0.11058 0.0
C2341 C 0.08235 0.42106 0.09748 0.0
C2342 C 0.08188 0.41565 0.07027 0.0
C2343 C 0.09735 0.43275 0.14116 0.0
C2344 C 0.09654 0.42062 0.15762 0.0
C2345 C 0.0993 0.44645 0.15402 0.0
C2346 C 0.10134 0.46005 0.13751 0.0
C2347 C 0.08977 0.45857 0.11865 0.0
C2348 C 0.09181 0.47152 0.10333 0.0
C2349 C 0.10532 0.48604 0.10684 0.0
C2350 C 0.11681 0.48764 0.12576 0.0
C2351 C 0.11483 0.47472 0.14112 0.0
H2352 H 0.10686 0.49605 0.09497 0.0
H2353 H 0.09733 0.37537 0.24602 0.0
H2354 H 0.53025 0.64803 0.30575 0.0
H2355 H 0.53178 0.65905 0.25899 0.0
H2356 H 0.57948 0.66927 0.25159 0.0
H2357 H 0.57796 0.65853 0.29801 0.0
H2358 H 0.57644 0.6911 0.22598 0.0
H2359 H 0.54877 0.63466 0.22812 0.0
H2360 H 0.52805 0.60869 0.24378 0.0
H2361 H 0.49309 0.61822 0.21168 0.0
H2362 H 0.51362 0.64436 0.19616 0.0
H2363 H 0.56988 0.66405 0.07502 0.0
H2364 H 0.56097 0.6566 0.12336 0.0
H2365 H 0.56103 0.69998 0.13488 0.0
H2366 H 0.57058 0.70772 0.08708 0.0
H2367 H 0.53839 0.65237 0.15891 0.0
H2368 H 0.57769 0.71599 0.19576 0.0
H2369 H 0.60059 0.74033 0.17914 0.0
H2370 H 0.61609 0.71356 0.13211 0.0
H2371 H 0.5934 0.68908 0.14873 0.0
C2372 C 0.54123 0.65328 0.29453 0.0
C2373 C 0.55413 0.65284 0.30573 0.0
C2374 C 0.54205 0.65938 0.26774 0.0
C2375 C 0.55568 0.66479 0.25164 0.0
C2376 C 0.56887 0.66527 0.26365 0.0
C2377 C 0.56806 0.65924 0.29039 0.0
C2378 C 0.55589 0.66841 0.22145 0.0
C2379 C 0.56798 0.68272 0.21139 0.0
C2380 C 0.54509 0.65731 0.20228 0.0
C2381 C 0.53272 0.64153 0.21128 0.0
C2382 C 0.53666 0.63126 0.22456 0.0
C2383 C 0.52495 0.6165 0.23339 0.0
C2384 C 0.50926 0.61182 0.22881 0.0
C2385 C 0.50525 0.62187 0.21528 0.0
C2386 C 0.51692 0.63666 0.20645 0.0
C2387 C 0.56755 0.67176 0.08765 0.0
C2388 C 0.5711 0.68654 0.07757 0.0
C2389 C 0.56246 0.66751 0.11526 0.0
C2390 C 0.56071 0.67791 0.13292 0.0
C2391 C 0.56265 0.69193 0.12181 0.0
C2392 C 0.56804 0.69632 0.0945 0.0
C2393 C 0.55889 0.67507 0.16354 0.0
C2394 C 0.54658 0.6609 0.17361 0.0
C2395 C 0.5698 0.68607 0.1827 0.0
C2396 C 0.58376 0.70073 0.17328 0.0
C2397 C 0.58603 0.71531 0.182 0.0
C2398 C 0.59897 0.72913 0.17255 0.0
C2399 C 0.60976 0.72849 0.15451 0.0
C2400 C 0.6077 0.71404 0.14602 0.0
C2401 C 0.5948 0.70019 0.15544 0.0
H2402 H 0.61974 0.7392 0.14716 0.0
H2403 H 0.50021 0.6004 0.23567 0.0
H2404 H 0.33221 0.90667 0.05608 0.0
H2405 H 0.34462 0.90726 0.10131 0.0
H2406 H 0.2998 0.87309 0.13446 0.0
H2407 H 0.28752 0.87236 0.09009 0.0
H2408 H 0.31525 0.90131 0.16487 0.0
H2409 H 0.32539 0.8624 0.12323 0.0
H2410 H 0.33675 0.85261 0.08823 0.0
H2411 H 0.38276 0.88979 0.10875 0.0
H2412 H 0.37164 0.89994 0.14362 0.0
H2413 H 0.33314 0.89272 0.30213 0.0
H2414 H 0.3232 0.88484 0.25445 0.0
H2415 H 0.37036 0.90915 0.22263 0.0
H2416 H 0.38033 0.91619 0.27002 0.0
H2417 H 0.35459 0.88625 0.19032 0.0
H2418 H 0.34652 0.92684 0.22741 0.0
H2419 H 0.33708 0.93934 0.2607 0.0
H2420 H 0.28982 0.90282 0.24688 0.0
H2421 H 0.29899 0.89006 0.21349 0.0
C2422 C 0.32514 0.89907 0.07288 0.0
C2423 C 0.30889 0.88964 0.0697 0.0
C2424 C 0.3322 0.89941 0.09863 0.0
C2425 C 0.32306 0.89027 0.1212 0.0
C2426 C 0.30703 0.88028 0.11738 0.0
C2427 C 0.30004 0.87993 0.09196 0.0
C2428 C 0.32956 0.8921 0.14976 0.0
C2429 C 0.32374 0.89786 0.17053 0.0
C2430 C 0.341 0.8881 0.15683 0.0
C2431 C 0.34766 0.88205 0.13575 0.0
C2432 C 0.33791 0.86859 0.12005 0.0
C2433 C 0.34431 0.86295 0.1003 0.0
C2434 C 0.36046 0.87061 0.0962 0.0
C2435 C 0.37025 0.8839 0.11191 0.0
C2436 C 0.3639 0.88959 0.13168 0.0
C2437 C 0.34139 0.89595 0.28505 0.0
C2438 C 0.3575 0.9053 0.28983 0.0
C2439 C 0.3357 0.8916 0.25775 0.0
C2440 C 0.346 0.8969 0.23481 0.0
C2441 C 0.36213 0.90505 0.23985 0.0
C2442 C 0.36782 0.90911 0.26708 0.0
C2443 C 0.3401 0.89526 0.20565 0.0
C2444 C 0.34607 0.88966 0.18474 0.0
C2445 C 0.32905 0.89979 0.19819 0.0
C2446 C 0.32347 0.90739 0.21826 0.0
C2447 C 0.33412 0.92142 0.23163 0.0
C2448 C 0.32882 0.92856 0.2505 0.0
C2449 C 0.31287 0.92182 0.25609 0.0
C2450 C 0.30217 0.90799 0.24262 0.0
C2451 C 0.30742 0.90081 0.22368 0.0
H2452 H 0.3088 0.92733 0.27079 0.0
H2453 H 0.36539 0.86622 0.0809 0.0
H2454 H 0.41784 0.08157 0.94853 0.0
H2455 H 0.42784 0.08149 0.90187 0.0
H2456 H 0.44641 0.13133 0.89576 0.0
H2457 H 0.43571 0.13118 0.94197 0.0
H2458 H 0.42888 0.11824 0.85365 0.0
H2459 H 0.47044 0.11368 0.89453 0.0
H2460 H 0.4829 0.10321 0.92572 0.0
H2461 H 0.45648 0.05804 0.88733 0.0
H2462 H 0.44371 0.06818 0.85613 0.0
H2463 H 0.45141 0.11359 0.71121 0.0
H2464 H 0.45085 0.12085 0.76031 0.0
H2465 H 0.43192 0.07259 0.78473 0.0
H2466 H 0.43333 0.06563 0.73636 0.0
H2467 H 0.45436 0.0895 0.81749 0.0
H2468 H 0.41029 0.09367 0.78134 0.0
H2469 H 0.39772 0.10435 0.75084 0.0
H2470 H 0.42925 0.15066 0.78089 0.0
H2471 H 0.44211 0.14026 0.81134 0.0
C2472 C 0.4247 0.09259 0.93779 0.0
C2473 C 0.42623 0.10642 0.94893 0.0
C2474 C 0.43039 0.09256 0.91098 0.0
C2475 C 0.43793 0.10643 0.89517 0.0
C2476 C 0.44062 0.12048 0.90744 0.0
C2477 C 0.4347 0.12044 0.93399 0.0
C2478 C 0.44096 0.10588 0.8648 0.0
C2479 C 0.43476 0.11223 0.84578 0.0
C2480 C 0.44839 0.09785 0.85437 0.0
C2481 C 0.45604 0.09169 0.87312 0.0
C2482 C 0.4672 0.10149 0.89287 0.0
C2483 C 0.47434 0.09562 0.91052 0.0
C2484 C 0.47046 0.07996 0.90854 0.0
C2485 C 0.45947 0.07016 0.88885 0.0
C2486 C 0.4523 0.07597 0.87114 0.0
C2487 C 0.44694 0.10459 0.72715 0.0
C2488 C 0.44247 0.08909 0.72024 0.0
C2489 C 0.4466 0.10871 0.75515 0.0
C2490 C 0.44133 0.09726 0.77634 0.0
C2491 C 0.43621 0.08168 0.76894 0.0
C2492 C 0.43692 0.07768 0.74128 0.0
C2493 C 0.44171 0.10128 0.80645 0.0
C2494 C 0.44865 0.09568 0.82541 0.0
C2495 C 0.43496 0.10999 0.8168 0.0
C2496 C 0.42729 0.11621 0.79831 0.0
C2497 C 0.41462 0.10614 0.78125 0.0
C2498 C 0.40743 0.11215 0.76402 0.0
C2499 C 0.41272 0.12818 0.76385 0.0
C2500 C 0.42519 0.13825 0.78098 0.0
C2501 C 0.43243 0.13231 0.79823 0.0
H2502 H 0.40713 0.1328 0.75051 0.0
H2503 H 0.47599 0.07544 0.92225 0.0
H2504 H 0.91203 0.33524 0.95328 0.0
H2505 H 0.9145 0.3461 0.90588 0.0
H2506 H 0.87295 0.30403 0.88025 0.0
H2507 H 0.8705 0.29311 0.92705 0.0
H2508 H 0.9125 0.32228 0.85415 0.0
H2509 H 0.85822 0.31863 0.85769 0.0
H2510 H 0.84032 0.3243 0.88479 0.0
H2511 H 0.87782 0.37089 0.90088 0.0
H2512 H 0.89588 0.36543 0.87386 0.0
H2513 H 0.90674 0.333 0.70802 0.0
H2514 H 0.89897 0.32286 0.75583 0.0
H2515 H 0.91256 0.36927 0.78512 0.0
H2516 H 0.92005 0.37934 0.7378 0.0
H2517 H 0.88618 0.34849 0.81005 0.0
H2518 H 0.93803 0.35451 0.79675 0.0
H2519 H 0.9577 0.35023 0.77296 0.0
H2520 H 0.92712 0.30053 0.77784 0.0
H2521 H 0.90744 0.30457 0.80245 0.0
C2522 C 0.90323 0.32853 0.93771 0.0
C2523 C 0.89115 0.31332 0.94368 0.0
C2524 C 0.90467 0.3347 0.91073 0.0
C2525 C 0.89388 0.32581 0.88977 0.0
C2526 C 0.88131 0.31105 0.89624 0.0
C2527 C 0.87998 0.30484 0.92294 0.0
C2528 C 0.89664 0.33098 0.86034 0.0
C2529 C 0.9067 0.32793 0.84439 0.0
C2530 C 0.88908 0.33833 0.84781 0.0
C2531 C 0.87833 0.34163 0.86392 0.0
C2532 C 0.8626 0.33007 0.86706 0.0
C2533 C 0.85244 0.33324 0.88237 0.0
C2534 C 0.85793 0.34794 0.89456 0.0
C2535 C 0.87358 0.35951 0.89143 0.0
C2536 C 0.88378 0.35639 0.87612 0.0
C2537 C 0.90788 0.34096 0.72464 0.0
C2538 C 0.91411 0.35697 0.7192 0.0
C2539 C 0.90354 0.33519 0.75194 0.0
C2540 C 0.90538 0.34536 0.77412 0.0
C2541 C 0.91104 0.36121 0.76841 0.0
C2542 C 0.91539 0.36695 0.7413 0.0
C2543 C 0.90213 0.33981 0.80352 0.0
C2544 C 0.89194 0.34274 0.81958 0.0
C2545 C 0.90962 0.33234 0.81619 0.0
C2546 C 0.92125 0.32984 0.80109 0.0
C2547 C 0.93549 0.34268 0.79258 0.0
C2548 C 0.94664 0.34029 0.77901 0.0
C2549 C 0.9436 0.32512 0.77353 0.0
C2550 C 0.92945 0.31228 0.78197 0.0
C2551 C 0.91833 0.31461 0.7959 0.0
H2552 H 0.95224 0.32331 0.76291 0.0
H2553 H 0.85006 0.35038 0.90641 0.0
H2554 H 0.68173 0.55184 0.94432 0.0
H2555 H 0.67232 0.54156 0.89732 0.0
H2556 H 0.6548 0.57354 0.8883 0.0
H2557 H 0.6635 0.58317 0.93544 0.0
H2558 H 0.63834 0.54955 0.85689 0.0
H2559 H 0.69356 0.58408 0.87292 0.0
H2560 H 0.71902 0.59191 0.89489 0.0
H2561 H 0.71813 0.55123 0.86084 0.0
H2562 H 0.69253 0.54305 0.83898 0.0
H2563 H 0.65555 0.58027 0.72408 0.0
H2564 H 0.663 0.57943 0.77238 0.0
H2565 H 0.65737 0.5338 0.75814 0.0
H2566 H 0.64977 0.53459 0.70942 0.0
H2567 H 0.68459 0.55982 0.80003 0.0
H2568 H 0.62825 0.52777 0.77998 0.0
H2569 H 0.60469 0.5245 0.75601 0.0
H2570 H 0.60995 0.56559 0.79688 0.0
H2571 H 0.63371 0.56924 0.82073 0.0
C2572 C 0.67499 0.55592 0.9329 0.0
C2573 C 0.67317 0.56816 0.94358 0.0
C2574 C 0.66986 0.55025 0.90587 0.0
C2575 C 0.66335 0.55717 0.88895 0.0
C2576 C 0.65989 0.56808 0.90087 0.0
C2577 C 0.66475 0.57352 0.92804 0.0
C2578 C 0.66235 0.55501 0.85813 0.0
C2579 C 0.64842 0.55162 0.84457 0.0
C2580 C 0.67555 0.55784 0.84186 0.0
C2581 C 0.69105 0.56285 0.85462 0.0
C2582 C 0.69876 0.57677 0.87024 0.0
C2583 C 0.71321 0.58127 0.88267 0.0
C2584 C 0.72016 0.57205 0.87933 0.0
C2585 C 0.7127 0.55834 0.86346 0.0
C2586 C 0.69822 0.55376 0.85105 0.0
C2587 C 0.65678 0.57047 0.73067 0.0
C2588 C 0.65248 0.55766 0.71289 0.0
C2589 C 0.6609 0.56994 0.75838 0.0
C2590 C 0.66066 0.55654 0.76869 0.0
C2591 C 0.65775 0.54429 0.75036 0.0
C2592 C 0.65351 0.54479 0.72258 0.0
C2593 C 0.66065 0.55438 0.79922 0.0
C2594 C 0.6744 0.55716 0.81256 0.0
C2595 C 0.64744 0.55138 0.81533 0.0
C2596 C 0.6328 0.54882 0.80197 0.0
C2597 C 0.62442 0.53614 0.78375 0.0
C2598 C 0.61103 0.53422 0.77019 0.0
C2599 C 0.60584 0.54485 0.77489 0.0
C2600 C 0.61399 0.55737 0.79326 0.0
C2601 C 0.6274 0.55936 0.80683 0.0
H2602 H 0.5955 0.54336 0.76432 0.0
H2603 H 0.73134 0.57556 0.88897 0.0
H2604 H 0.91163 0.59967 0.93204 0.0
H2605 H 0.91223 0.5901 0.88539 0.0
H2606 H 0.87342 0.54487 0.90678 0.0
H2607 H 0.87298 0.55447 0.95424 0.0
H2608 H 0.8987 0.5461 0.86742 0.0
H2609 H 0.86238 0.5649 0.87821 0.0
H2610 H 0.85482 0.58366 0.89583 0.0
H2611 H 0.89157 0.62035 0.84784 0.0
H2612 H 0.89951 0.60186 0.83027 0.0
H2613 H 0.89062 0.53199 0.72357 0.0
H2614 H 0.88125 0.53306 0.77047 0.0
H2615 H 0.90945 0.58341 0.76929 0.0
H2616 H 0.91797 0.58231 0.72169 0.0
H2617 H 0.88469 0.57537 0.79985 0.0
H2618 H 0.92327 0.55855 0.79449 0.0
H2619 H 0.93276 0.54113 0.77782 0.0
H2620 H 0.89343 0.50181 0.81602 0.0
H2621 H 0.88361 0.519 0.83263 0.0
C2622 C 0.90376 0.58746 0.92736 0.0
C2623 C 0.89248 0.5777 0.94685 0.0
C2624 C 0.904 0.58205 0.90058 0.0
C2625 C 0.89276 0.56686 0.89263 0.0
C2626 C 0.88223 0.55662 0.91267 0.0
C2627 C 0.88205 0.56205 0.93975 0.0
C2628 C 0.8909 0.56278 0.86255 0.0
C2629 C 0.89527 0.55217 0.85262 0.0
C2630 C 0.88668 0.57095 0.84335 0.0
C2631 C 0.88159 0.582 0.85303 0.0
C2632 C 0.86889 0.57699 0.8715 0.0
C2633 C 0.86454 0.58757 0.88148 0.0
C2634 C 0.87273 0.60319 0.87299 0.0
C2635 C 0.88524 0.60825 0.85439 0.0
C2636 C 0.88965 0.59771 0.84437 0.0
C2637 C 0.89426 0.54329 0.73296 0.0
C2638 C 0.90496 0.55708 0.71916 0.0
C2639 C 0.88907 0.5439 0.75985 0.0
C2640 C 0.89506 0.55828 0.7738 0.0
C2641 C 0.90474 0.57215 0.75905 0.0
C2642 C 0.9096 0.57155 0.73181 0.0
C2643 C 0.89278 0.55887 0.80443 0.0
C2644 C 0.88772 0.56893 0.81454 0.0
C2645 C 0.89648 0.55027 0.82377 0.0
C2646 C 0.90264 0.54003 0.81459 0.0
C2647 C 0.91664 0.54618 0.79929 0.0
C2648 C 0.92207 0.53635 0.78983 0.0
C2649 C 0.91368 0.52037 0.7958 0.0
C2650 C 0.8999 0.51419 0.81138 0.0
C2651 C 0.8944 0.52397 0.82084 0.0
H2652 H 0.91788 0.51277 0.7884 0.0
H2653 H 0.86936 0.61138 0.88079 0.0
H2654 H 0.42018 0.28982 0.92676 0.0
H2655 H 0.42833 0.30089 0.87991 0.0
H2656 H 0.4218 0.33947 0.90298 0.0
H2657 H 0.41399 0.32854 0.95036 0.0
H2658 H 0.40393 0.32177 0.85634 0.0
H2659 H 0.45717 0.34719 0.88772 0.0
H2660 H 0.48068 0.3491 0.90946 0.0
H2661 H 0.48054 0.31691 0.84891 0.0
H2662 H 0.45688 0.31464 0.827 0.0
H2663 H 0.43201 0.36963 0.7381 0.0
H2664 H 0.42739 0.35789 0.78437 0.0
H2665 H 0.43476 0.3213 0.75205 0.0
H2666 H 0.43927 0.33309 0.70488 0.0
H2667 H 0.45204 0.33617 0.80207 0.0
H2668 H 0.39972 0.31123 0.76944 0.0
H2669 H 0.37647 0.30932 0.7466 0.0
H2670 H 0.37444 0.33954 0.80896 0.0
H2671 H 0.39787 0.34188 0.83194 0.0
C2672 C 0.42111 0.301 0.92215 0.0
C2673 C 0.4166 0.30842 0.94213 0.0
C2674 C 0.4257 0.30728 0.89537 0.0
C2675 C 0.42561 0.32096 0.88795 0.0
C2676 C 0.42197 0.3289 0.90838 0.0
C2677 C 0.41766 0.32275 0.93547 0.0
C2678 C 0.42742 0.32576 0.85816 0.0
C2679 C 0.41453 0.32517 0.84458 0.0
C2680 C 0.441 0.32942 0.84257 0.0
C2681 C 0.45512 0.3306 0.85592 0.0
C2682 C 0.46203 0.34037 0.87922 0.0
C2683 C 0.47542 0.34156 0.89153 0.0
C2684 C 0.48207 0.33309 0.88063 0.0
C2685 C 0.47536 0.32344 0.85736 0.0
C2686 C 0.46197 0.32221 0.84498 0.0
C2687 C 0.43252 0.359 0.74071 0.0
C2688 C 0.43606 0.35228 0.71799 0.0
C2689 C 0.42983 0.35228 0.76717 0.0
C2690 C 0.43071 0.33873 0.77163 0.0
C2691 C 0.43402 0.33177 0.74893 0.0
C2692 C 0.43649 0.33842 0.72208 0.0
C2693 C 0.42864 0.33243 0.80044 0.0
C2694 C 0.44141 0.33268 0.81383 0.0
C2695 C 0.41489 0.32829 0.81586 0.0
C2696 C 0.40069 0.32685 0.80227 0.0
C2697 C 0.39442 0.31759 0.77816 0.0
C2698 C 0.38118 0.31641 0.76521 0.0
C2699 C 0.37401 0.32434 0.77627 0.0
C2700 C 0.38003 0.33342 0.80039 0.0
C2701 C 0.39328 0.33467 0.81341 0.0
H2702 H 0.36378 0.32343 0.76619 0.0
H2703 H 0.49244 0.33404 0.89018 0.0
H2704 H 0.70524 0.12915 0.92881 0.0
H2705 H 0.69314 0.12626 0.88308 0.0
H2706 H 0.65627 0.08022 0.90615 0.0
H2707 H 0.66823 0.08327 0.9526 0.0
H2708 H 0.67278 0.0811 0.85755 0.0
H2709 H 0.6469 0.10723 0.89397 0.0
H2710 H 0.64433 0.12787 0.91819 0.0
H2711 H 0.67528 0.16177 0.85863 0.0
H2712 H 0.6782 0.14137 0.83424 0.0
H2713 H 0.6246 0.06428 0.73987 0.0
H2714 H 0.63621 0.07007 0.78629 0.0
H2715 H 0.67301 0.11477 0.75717 0.0
H2716 H 0.66139 0.10884 0.70978 0.0
H2717 H 0.65743 0.11554 0.80805 0.0
H2718 H 0.68311 0.08957 0.77121 0.0
H2719 H 0.68566 0.06901 0.74662 0.0
H2720 H 0.65543 0.03507 0.80679 0.0
H2721 H 0.6525 0.05538 0.83156 0.0
C2722 C 0.69429 0.11858 0.92445 0.0
C2723 C 0.68773 0.10636 0.94408 0.0
C2724 C 0.68738 0.11697 0.89833 0.0
C2725 C 0.67386 0.10301 0.8912 0.0
C2726 C 0.66673 0.09109 0.91134 0.0
C2727 C 0.67352 0.09285 0.93785 0.0
C2728 C 0.66845 0.10033 0.86176 0.0
C2729 C 0.66914 0.08844 0.84685 0.0
C2730 C 0.66442 0.1104 0.84757 0.0
C2731 C 0.66291 0.12278 0.86246 0.0
C2732 C 0.65331 0.11912 0.88622 0.0
C2733 C 0.65174 0.13077 0.89992 0.0
C2734 C 0.65967 0.14613 0.89001 0.0
C2735 C 0.66916 0.14987 0.86632 0.0
C2736 C 0.67076 0.13826 0.85252 0.0
C2737 C 0.63522 0.07534 0.74322 0.0
C2738 C 0.64206 0.0862 0.72135 0.0
C2739 C 0.64187 0.07858 0.76974 0.0
C2740 C 0.65545 0.09281 0.77511 0.0
C2741 C 0.66251 0.1037 0.7533 0.0
C2742 C 0.65595 0.1003 0.72634 0.0
C2743 C 0.66163 0.09624 0.80401 0.0
C2744 C 0.66112 0.10825 0.81879 0.0
C2745 C 0.66591 0.08634 0.8181 0.0
C2746 C 0.66748 0.074 0.80312 0.0
C2747 C 0.67688 0.07769 0.77906 0.0
C2748 C 0.67843 0.06609 0.76514 0.0
C2749 C 0.67071 0.05074 0.77514 0.0
C2750 C 0.66141 0.04696 0.79908 0.0
C2751 C 0.65981 0.05853 0.81309 0.0
H2752 H 0.67194 0.04178 0.76434 0.0
H2753 H 0.65843 0.15513 0.90064 0.0
H2754 H 0.59083 0.91426 0.07551 0.0
H2755 H 0.5826 0.9154 0.12331 0.0
H2756 H 0.54419 0.86821 0.11536 0.0
H2757 H 0.55242 0.8671 0.06729 0.0
H2758 H 0.53855 0.88956 0.15163 0.0
H2759 H 0.57448 0.87023 0.1382 0.0
H2760 H 0.59807 0.87167 0.11778 0.0
H2761 H 0.62675 0.91566 0.15877 0.0
H2762 H 0.60329 0.91462 0.17905 0.0
H2763 H 0.53454 0.88524 0.2991 0.0
H2764 H 0.53598 0.8762 0.25186 0.0
H2765 H 0.58158 0.9169 0.241 0.0
H2766 H 0.58026 0.9255 0.28785 0.0
H2767 H 0.58079 0.89392 0.21389 0.0
H2768 H 0.5463 0.91564 0.2222 0.0
H2769 H 0.52349 0.91645 0.24108 0.0
H2770 H 0.49297 0.87029 0.2093 0.0
H2771 H 0.51565 0.86914 0.19053 0.0
C2772 C 0.58013 0.90447 0.08345 0.0
C2773 C 0.57206 0.8907 0.06775 0.0
C2774 C 0.57553 0.90507 0.1108 0.0
C2775 C 0.56293 0.8918 0.12289 0.0
C2776 C 0.5539 0.87856 0.1063 0.0
C2777 C 0.55853 0.87798 0.07884 0.0
C2778 C 0.56097 0.89099 0.15363 0.0
C2779 C 0.54761 0.89023 0.16534 0.0
C2780 C 0.57291 0.89199 0.17136 0.0
C2781 C 0.5871 0.89238 0.15999 0.0
C2782 C 0.58581 0.88024 0.14276 0.0
C2783 C 0.59916 0.88099 0.1312 0.0
C2784 C 0.6139 0.89376 0.13694 0.0
C2785 C 0.61532 0.90578 0.15434 0.0
C2786 C 0.602 0.90511 0.16589 0.0
C2787 C 0.54514 0.89179 0.28701 0.0
C2788 C 0.55748 0.90586 0.2974 0.0
C2789 C 0.54587 0.88677 0.25991 0.0
C2790 C 0.55876 0.89605 0.24263 0.0
C2791 C 0.57152 0.90949 0.25387 0.0
C2792 C 0.57085 0.91437 0.28093 0.0
C2793 C 0.55853 0.89294 0.21217 0.0
C2794 C 0.57152 0.89293 0.20036 0.0
C2795 C 0.54634 0.89145 0.1944 0.0
C2796 C 0.53268 0.89223 0.20526 0.0
C2797 C 0.53473 0.90564 0.21936 0.0
C2798 C 0.52183 0.90616 0.23004 0.0
C2799 C 0.5068 0.89341 0.22647 0.0
C2800 C 0.50463 0.88014 0.2121 0.0
C2801 C 0.5175 0.87955 0.20144 0.0
H2802 H 0.49683 0.89383 0.23477 0.0
H2803 H 0.62422 0.89433 0.12794 0.0
H2804 H 0.10644 0.64129 0.29213 0.0
H2805 H 0.11363 0.65032 0.24362 0.0
H2806 H 0.08194 0.66834 0.24485 0.0
H2807 H 0.07529 0.65999 0.29335 0.0
H2808 H 0.07822 0.64045 0.20363 0.0
H2809 H 0.11112 0.69405 0.2371 0.0
H2810 H 0.13299 0.71447 0.26436 0.0
H2811 H 0.16511 0.70456 0.22104 0.0
H2812 H 0.14336 0.68387 0.19384 0.0
H2813 H 0.07719 0.67669 0.07818 0.0
H2814 H 0.07679 0.6665 0.12482 0.0
H2815 H 0.12287 0.6731 0.1112 0.0
H2816 H 0.12325 0.68349 0.06426 0.0
H2817 H 0.12221 0.68662 0.15823 0.0
H2818 H 0.09113 0.63603 0.12031 0.0
H2819 H 0.07011 0.61485 0.09279 0.0
H2820 H 0.03565 0.61735 0.14371 0.0
H2821 H 0.05646 0.6387 0.17133 0.0
C2822 C 0.10162 0.64788 0.28244 0.0
C2823 C 0.0905 0.65019 0.29667 0.0
C2824 C 0.10564 0.65291 0.25474 0.0
C2825 C 0.09831 0.65999 0.24082 0.0
C2826 C 0.08784 0.66305 0.25544 0.0
C2827 C 0.08411 0.65835 0.28329 0.0
C2828 C 0.0997 0.66205 0.21016 0.0
C2829 C 0.08776 0.65058 0.1936 0.0
C2830 C 0.11253 0.6749 0.19728 0.0
C2831 C 0.12557 0.68721 0.21382 0.0
C2832 C 0.12281 0.69605 0.2337 0.0
C2833 C 0.13519 0.70772 0.24905 0.0
C2834 C 0.15042 0.71076 0.24454 0.0
C2835 C 0.1533 0.70216 0.22459 0.0
C2836 C 0.14094 0.69046 0.2092 0.0
C2837 C 0.0869 0.67525 0.08463 0.0
C2838 C 0.10004 0.68038 0.06743 0.0
C2839 C 0.08673 0.66952 0.11139 0.0
C2840 C 0.09975 0.6689 0.1215 0.0
C2841 C 0.11265 0.67338 0.10378 0.0
C2842 C 0.11279 0.6791 0.0769 0.0
C2843 C 0.1004 0.66523 0.15145 0.0
C2844 C 0.11274 0.67634 0.16802 0.0
C2845 C 0.08801 0.65189 0.16435 0.0
C2846 C 0.07539 0.63907 0.14777 0.0
C2847 C 0.07907 0.63216 0.12551 0.0
C2848 C 0.06719 0.6201 0.10992 0.0
C2849 C 0.05155 0.61478 0.11646 0.0
C2850 C 0.04777 0.62149 0.13866 0.0
C2851 C 0.05961 0.63356 0.15432 0.0
H2852 H 0.04237 0.60544 0.10436 0.0
H2853 H 0.15999 0.71981 0.25643 0.0
H2854 H 0.333 0.42742 0.29212 0.0
H2855 H 0.32254 0.42596 0.24494 0.0
H2856 H 0.3694 0.44994 0.21174 0.0
H2857 H 0.37985 0.45194 0.25859 0.0
H2858 H 0.3531 0.4602 0.18641 0.0
H2859 H 0.34504 0.40908 0.20984 0.0
H2860 H 0.33501 0.38486 0.23759 0.0
H2861 H 0.28801 0.37513 0.22458 0.0
H2862 H 0.29777 0.39941 0.19717 0.0
H2863 H 0.32765 0.42127 0.04574 0.0
H2864 H 0.34137 0.431 0.09083 0.0
H2865 H 0.30012 0.42855 0.12623 0.0
H2866 H 0.28658 0.41919 0.08178 0.0
H2867 H 0.31419 0.40817 0.14923 0.0
H2868 H 0.32248 0.45981 0.12761 0.0
H2869 H 0.33251 0.4839 0.0996 0.0
H2870 H 0.37925 0.49214 0.10847 0.0
H2871 H 0.36944 0.46794 0.13622 0.0
C2872 C 0.34103 0.43247 0.27475 0.0
C2873 C 0.35722 0.43969 0.27901 0.0
C2874 C 0.33506 0.43158 0.24781 0.0
C2875 C 0.34519 0.43761 0.2247 0.0
C2876 C 0.36135 0.4452 0.22916 0.0
C2877 C 0.3673 0.44625 0.25601 0.0
C2878 C 0.33909 0.43558 0.1957 0.0
C2879 C 0.34471 0.44878 0.17824 0.0
C2880 C 0.32801 0.42072 0.18503 0.0
C2881 C 0.32215 0.40615 0.20166 0.0
C2882 C 0.33258 0.40184 0.21309 0.0
C2883 C 0.32694 0.3881 0.22874 0.0
C2884 C 0.31089 0.37848 0.23284 0.0
C2885 C 0.30044 0.3826 0.22139 0.0
C2886 C 0.30602 0.39635 0.2058 0.0
C2887 C 0.32177 0.42338 0.06287 0.0
C2888 C 0.30603 0.41934 0.06044 0.0
C2889 C 0.32956 0.42887 0.08855 0.0
C2890 C 0.32167 0.43043 0.11172 0.0
C2891 C 0.30638 0.42746 0.10856 0.0
C2892 C 0.29868 0.42208 0.08315 0.0
C2893 C 0.32821 0.43273 0.14021 0.0
C2894 C 0.32265 0.41954 0.1575 0.0
C2895 C 0.33932 0.44755 0.15064 0.0
C2896 C 0.34519 0.46191 0.13353 0.0
C2897 C 0.33486 0.46662 0.12321 0.0
C2898 C 0.34051 0.48034 0.1075 0.0
C2899 C 0.35649 0.48951 0.10214 0.0
C2900 C 0.36686 0.485 0.11256 0.0
C2901 C 0.36127 0.47128 0.12828 0.0
H2902 H 0.36085 0.50014 0.09 0.0
H2903 H 0.30654 0.36779 0.24475 0.0
H2904 H 0.76104 0.76424 0.62021 0.0
H2905 H 0.77088 0.76326 0.57342 0.0
H2906 H 0.74719 0.78604 0.53861 0.0
H2907 H 0.73767 0.78743 0.58498 0.0
H2908 H 0.74039 0.75643 0.51282 0.0
H2909 H 0.78353 0.80654 0.54115 0.0
H2910 H 0.80517 0.82444 0.5719 0.0
H2911 H 0.82744 0.79704 0.56022 0.0
H2912 H 0.8058 0.77883 0.5297 0.0
H2913 H 0.7634 0.7648 0.37304 0.0
H2914 H 0.76022 0.77267 0.41998 0.0
H2915 H 0.79232 0.75904 0.4528 0.0
H2916 H 0.79585 0.7515 0.40589 0.0
H2917 H 0.79544 0.78401 0.48039 0.0
H2918 H 0.75362 0.73385 0.45386 0.0
H2919 H 0.73246 0.7148 0.42352 0.0
H2920 H 0.70767 0.73986 0.43365 0.0
H2921 H 0.72885 0.75926 0.46361 0.0
C2922 C 0.75816 0.76928 0.60265 0.0
C2923 C 0.74856 0.77589 0.60633 0.0
C2924 C 0.76378 0.7687 0.57599 0.0
C2925 C 0.75971 0.77455 0.55264 0.0
C2926 C 0.75044 0.78146 0.55639 0.0
C2927 C 0.74506 0.78228 0.58297 0.0
C2928 C 0.76424 0.77266 0.52399 0.0
C2929 C 0.75239 0.76261 0.50557 0.0
C2930 C 0.77996 0.78032 0.51498 0.0
C2931 C 0.79293 0.7912 0.53346 0.0
C2932 C 0.79295 0.80423 0.5454 0.0
C2933 C 0.80524 0.81446 0.56272 0.0
C2934 C 0.81765 0.81185 0.56809 0.0
C2935 C 0.81781 0.79903 0.55609 0.0
C2936 C 0.80553 0.78875 0.53877 0.0
C2937 C 0.7701 0.76386 0.3901 0.0
C2938 C 0.77973 0.75734 0.3858 0.0
C2939 C 0.76819 0.76827 0.41697 0.0
C2940 C 0.77573 0.76607 0.44 0.0
C2941 C 0.78629 0.76073 0.43539 0.0
C2942 C 0.78827 0.7564 0.40853 0.0
C2943 C 0.77155 0.76797 0.469 0.0
C2944 C 0.78342 0.77788 0.48756 0.0
C2945 C 0.75585 0.75993 0.47838 0.0
C2946 C 0.74293 0.74813 0.46072 0.0
C2947 C 0.74372 0.73537 0.44945 0.0
C2948 C 0.73172 0.7245 0.43233 0.0
C2949 C 0.71875 0.72614 0.4266 0.0
C2950 C 0.71774 0.73862 0.43806 0.0
C2951 C 0.72974 0.74957 0.45511 0.0
H2952 H 0.70947 0.71771 0.41335 0.0
H2953 H 0.82716 0.81979 0.5815 0.0
H2954 H 0.24257 0.04294 0.41064 0.0
H2955 H 0.23402 0.03138 0.45709 0.0
H2956 H 0.22611 0.98709 0.42573 0.0
H2957 H 0.23475 -0.00145 0.37909 0.0
H2958 H 0.20408 -0.00028 0.47641 0.0
H2959 H 0.24596 0.98243 0.45787 0.0
H2960 H 0.27066 0.98986 0.43308 0.0
H2961 H 0.29004 0.03705 0.46256 0.0
H2962 H 0.26537 0.02987 0.48724 0.0
H2963 H 0.19907 0.95406 0.59756 0.0
H2964 H 0.20075 0.9644 0.55034 0.0
H2965 H 0.24043 0.00827 0.57538 0.0
H2966 H 0.23875 0.99806 0.62274 0.0
H2967 H 0.24586 0.99585 0.52716 0.0
H2968 H 0.20697 0.00703 0.56309 0.0
H2969 H 0.18221 0.00099 0.58593 0.0
H2970 H 0.15643 0.96722 0.52205 0.0
H2971 H 0.18105 0.97293 0.49899 0.0
C2972 C 0.23868 0.03064 0.41343 0.0
C2973 C 0.23942 0.02168 0.39122 0.0
C2974 C 0.23378 0.02407 0.43997 0.0
C2975 C 0.22954 0.00845 0.44474 0.0
C2976 C 0.22937 -0.00081 0.42233 0.0
C2977 C 0.23425 0.00575 0.39571 0.0
C2978 C 0.22703 0.00244 0.4737 0.0
C2979 C 0.21307 -0.00136 0.48751 0.0
C2980 C 0.23893 0.00142 0.48815 0.0
C2981 C 0.25392 0.00562 0.47438 0.0
C2982 C 0.25555 0.99436 0.45914 0.0
C2983 C 0.26949 -0.00147 0.44504 0.0
C2984 C 0.28191 0.01391 0.44626 0.0
C2985 C 0.28041 0.02514 0.46164 0.0
C2986 C 0.26646 0.02103 0.47565 0.0
C2987 C 0.20797 0.96601 0.59315 0.0
C2988 C 0.21877 0.97525 0.61386 0.0
C2989 C 0.20891 0.9719 0.56617 0.0
C2990 C 0.22073 0.98708 0.55937 0.0
C2991 C 0.23124 0.99651 0.58023 0.0
C2992 C 0.23019 0.99069 0.60732 0.0
C2993 C 0.22269 0.99279 0.53013 0.0
C2994 C 0.23669 0.99668 0.5162 0.0
C2995 C 0.21072 0.99378 0.51562 0.0
C2996 C 0.19588 0.99029 0.52949 0.0
C2997 C 0.19603 0.99821 0.55405 0.0
C2998 C 0.18202 0.99488 0.567 0.0
C2999 C 0.16776 0.9837 0.55549 0.0
C3000 C 0.16748 0.97586 0.53096 0.0
C3001 C 0.18147 0.97916 0.51793 0.0
H3002 H 0.15692 0.98113 0.56555 0.0
H3003 H 0.29268 0.01713 0.43528 0.0
H3004 H 6e-05 0.23827 0.62466 0.0
H3005 H 0.98793 0.2303 0.57798 0.0
H3006 H 0.03334 0.256 0.53956 0.0
H3007 H 0.04545 0.26366 0.58539 0.0
H3008 H 0.00979 0.26347 0.52078 0.0
H3009 H 0.01832 0.21996 0.53747 0.0
H3010 H 0.01543 0.19716 0.56369 0.0
H3011 H 0.96563 0.17433 0.55419 0.0
H3012 H 0.96821 0.19713 0.52827 0.0
H3013 H 0.99333 0.24549 0.37716 0.0
H3014 H 0.00514 0.24875 0.4237 0.0
H3015 H 0.96061 0.21396 0.45707 0.0
H3016 H 0.94886 0.21057 0.41093 0.0
H3017 H 0.98314 0.21029 0.47931 0.0
H3018 H 0.97281 0.25261 0.46958 0.0
H3019 H 0.97324 0.27564 0.44867 0.0
H3020 H 0.02339 0.3001 0.44789 0.0
H3021 H 0.02322 0.27726 0.4694 0.0
C3022 C 0.00742 0.24202 0.60623 0.0
C3023 C 0.02369 0.25163 0.6087 0.0
C3024 C 0.0005 0.23746 0.57968 0.0
C3025 C 0.0098 0.24259 0.55547 0.0
C3026 C 0.026 0.25192 0.55802 0.0
C3027 C 0.03288 0.25628 0.58431 0.0
C3028 C 0.00279 0.23927 0.52722 0.0
C3029 C 0.00413 0.25188 0.51155 0.0
C3030 C 0.99502 0.22406 0.51568 0.0
C3031 C 0.99345 0.21036 0.53126 0.0
C3032 C 0.00674 0.21017 0.54125 0.0
C3033 C 0.00516 0.19722 0.55599 0.0
C3034 C 0.99035 0.18433 0.5607 0.0
C3035 C 0.97709 0.18434 0.55058 0.0
C3036 C 0.97861 0.19727 0.53586 0.0
C3037 C 0.98614 0.23842 0.39437 0.0
C3038 C 0.97016 0.22787 0.39045 0.0
C3039 C 0.99286 0.24035 0.42096 0.0
C3040 C 0.98369 0.23174 0.44395 0.0
C3041 C 0.96791 0.22074 0.43971 0.0
C3042 C 0.9612 0.21888 0.4133 0.0
C3043 C 0.99031 0.23457 0.47265 0.0
C3044 C 0.98886 0.2219 0.48846 0.0
C3045 C -0.00224 0.24969 0.48466 0.0
C3046 C -0.00201 0.26319 0.47069 0.0
C3047 C 0.98392 0.26285 0.46468 0.0
C3048 C 0.98412 0.2759 0.45287 0.0
C3049 C -0.00167 0.28929 0.4467 0.0
C3050 C 0.01239 0.2897 0.45258 0.0
C3051 C 0.01225 0.27674 0.46471 0.0
H3052 H -0.00154 0.29936 0.43749 0.0
H3053 H 0.98915 0.17432 0.5721 0.0
H3054 H 0.23534 0.20452 0.40132 0.0
H3055 H 0.22826 0.20849 0.44842 0.0
H3056 H 0.24702 0.25744 0.43058 0.0
H3057 H 0.25334 0.25333 0.38269 0.0
H3058 H 0.26104 0.24605 0.47823 0.0
H3059 H 0.21408 0.2435 0.44316 0.0
H3060 H 0.18909 0.23181 0.41759 0.0
H3061 H 0.17064 0.19121 0.47029 0.0
H3062 H 0.19563 0.20257 0.49594 0.0
H3063 H 0.24711 0.27445 0.60427 0.0
H3064 H 0.2504 0.26776 0.55651 0.0
H3065 H 0.21883 0.21897 0.574 0.0
H3066 H 0.2157 0.22574 0.62232 0.0
H3067 H 0.21064 0.22902 0.52649 0.0
H3068 H 0.25595 0.23033 0.56201 0.0
H3069 H 0.28072 0.24023 0.5878 0.0
H3070 H 0.30221 0.28071 0.53474 0.0
H3071 H 0.27749 0.27115 0.50884 0.0
C3072 C 0.23737 0.216 0.40707 0.0
C3073 C 0.24498 0.22865 0.38847 0.0
C3074 C 0.23337 0.21825 0.43398 0.0
C3075 C 0.23722 0.23325 0.44295 0.0
C3076 C 0.24394 0.24576 0.42391 0.0
C3077 C 0.24752 0.2434 0.39658 0.0
C3078 C 0.23623 0.23606 0.47308 0.0
C3079 C 0.25007 0.24262 0.48877 0.0
C3080 C 0.2218 0.23078 0.48684 0.0
C3081 C 0.20682 0.2238 0.47121 0.0
C3082 C 0.20478 0.23199 0.44906 0.0
C3083 C 0.19059 0.22545 0.43462 0.0
C3084 C 0.1783 0.21075 0.44224 0.0
C3085 C 0.18018 0.20258 0.46437 0.0
C3086 C 0.19435 0.20907 0.47888 0.0
C3087 C 0.24128 0.26225 0.59815 0.0
C3088 C 0.23136 0.25056 0.61691 0.0
C3089 C 0.24312 0.25844 0.57086 0.0
C3090 C 0.23489 0.24287 0.56169 0.0
C3091 C 0.22532 0.23106 0.58072 0.0
C3092 C 0.22367 0.23488 0.60831 0.0
C3093 C 0.23553 0.23931 0.53169 0.0
C3094 C 0.22163 0.2325 0.51602 0.0
C3095 C 0.2499 0.24414 0.51795 0.0
C3096 C 0.26478 0.2501 0.53368 0.0
C3097 C 0.2659 0.24143 0.55602 0.0
C3098 C 0.27995 0.24695 0.57061 0.0
C3099 C 0.29301 0.26111 0.56297 0.0
C3100 C 0.29206 0.26975 0.54067 0.0
C3101 C 0.27804 0.26428 0.526 0.0
H3102 H 0.30388 0.26536 0.57428 0.0
H3103 H 0.16732 0.20572 0.43105 0.0
H3104 H 0.72909 0.94625 0.58837 0.0
H3105 H 0.73723 0.95677 0.54162 0.0
H3106 H 0.76818 0.00239 0.57644 0.0
H3107 H 0.75923 0.99198 0.62369 0.0
H3108 H 0.75406 0.00593 0.53561 0.0
H3109 H 0.781 0.97721 0.54429 0.0
H3110 H 0.78401 0.95439 0.55459 0.0
H3111 H 0.75111 0.9282 0.48982 0.0
H3112 H 0.74775 0.9508 0.47933 0.0
H3113 H 0.79014 0.03934 0.40904 0.0
H3114 H 0.78652 0.02716 0.45482 0.0
H3115 H 0.7488 0.98406 0.42206 0.0
H3116 H 0.75269 0.99621 0.37551 0.0
H3117 H 0.76747 0.97946 0.46137 0.0
H3118 H 0.7405 0.00904 0.45488 0.0
H3119 H 0.73925 0.03283 0.44413 0.0
H3120 H 0.77467 0.05848 0.50561 0.0
H3121 H 0.77628 0.03489 0.51647 0.0
C3122 C 0.73779 0.9585 0.58621 0.0
C3123 C 0.74359 0.96827 0.60981 0.0
C3124 C 0.74254 0.9645 0.55932 0.0
C3125 C 0.75361 0.98034 0.55529 0.0
C3126 C 0.75966 0.99011 0.57891 0.0
C3127 C 0.75462 0.98415 0.60593 0.0
C3128 C 0.75804 0.98681 0.52641 0.0
C3129 C 0.75728 0.00026 0.51961 0.0
C3130 C 0.76191 0.97928 0.50513 0.0
C3131 C 0.76404 0.96569 0.51116 0.0
C3132 C 0.77434 0.96656 0.53234 0.0
C3133 C 0.77612 0.95366 0.53819 0.0
C3134 C 0.76773 0.93984 0.52291 0.0
C3135 C 0.75759 0.93891 0.50165 0.0
C3136 C 0.75576 0.95177 0.49571 0.0
C3137 C 0.78121 0.02719 0.41142 0.0
C3138 C 0.77156 0.01877 0.38882 0.0
C3139 C 0.77915 0.02025 0.43762 0.0
C3140 C 0.76717 0.00482 0.44201 0.0
C3141 C 0.75807 0.99602 0.41912 0.0
C3142 C 0.76028 0.00295 0.39259 0.0
C3143 C 0.76349 -0.00152 0.47093 0.0
C3144 C 0.76435 0.98509 0.47759 0.0
C3145 C 0.75991 0.00616 0.49224 0.0
C3146 C 0.75857 0.02022 0.48637 0.0
C3147 C 0.74805 0.01977 0.46605 0.0
C3148 C 0.74728 0.03321 0.45993 0.0
C3149 C 0.75689 0.04716 0.47415 0.0
C3150 C 0.76724 0.04767 0.49461 0.0
C3151 C 0.76806 0.03426 0.50079 0.0
H3152 H 0.7563 0.05757 0.46935 0.0
H3153 H 0.76911 0.92986 0.5275 0.0
H3154 H 0.04174 0.79017 0.59603 0.0
H3155 H 0.02801 0.78639 0.55198 0.0
H3156 H 0.98648 0.74807 0.58799 0.0
H3157 H 0.00038 0.7518 0.63264 0.0
H3158 H 0.99307 0.73985 0.53895 0.0
H3159 H 0.98732 0.78196 0.5702 0.0
H3160 H 0.99481 0.80771 0.59051 0.0
H3161 H 0.02655 0.83046 0.52245 0.0
H3162 H 0.01942 0.80482 0.50188 0.0
H3163 H 0.9476 0.73338 0.42024 0.0
H3164 H 0.95826 0.74163 0.46689 0.0
H3165 H 0.00469 0.76752 0.43263 0.0
H3166 H 0.99405 0.75885 0.38506 0.0
H3167 H 0.99345 0.78203 0.48177 0.0
H3168 H -0.00042 0.73775 0.45432 0.0
H3169 H 0.98964 0.71133 0.43477 0.0
H3170 H 0.95417 0.69215 0.4982 0.0
H3171 H 0.96372 0.71854 0.51779 0.0
C3172 C 0.0296 0.78106 0.59481 0.0
C3173 C 0.02217 0.77123 0.6178 0.0
C3174 C 0.02172 0.77898 0.56957 0.0
C3175 C 0.00616 0.76702 0.56662 0.0
C3176 C -0.00152 0.75741 0.58981 0.0
C3177 C 0.00639 0.75959 0.61532 0.0
C3178 C -0.00141 0.76391 0.53859 0.0
C3179 C 0.99294 0.74904 0.52671 0.0
C3180 C -0.00147 0.77592 0.52235 0.0
C3181 C 0.00292 0.79142 0.53461 0.0
C3182 C 0.996 0.79244 0.55966 0.0
C3183 C 0.00016 0.80702 0.57121 0.0
C3184 C 0.01117 0.82071 0.55782 0.0
C3185 C 0.01802 0.81984 0.53281 0.0
C3186 C 0.01391 0.80528 0.52117 0.0
C3187 C 0.9601 0.74098 0.42231 0.0
C3188 C 0.97 0.74531 0.39877 0.0
C3189 C 0.96614 0.74572 0.44914 0.0
C3190 C 0.98223 0.75511 0.45322 0.0
C3191 C 0.99219 0.76026 0.4298 0.0
C3192 C 0.98613 0.75528 0.4027 0.0
C3193 C 0.98847 0.75819 0.4822 0.0
C3194 C 0.99366 0.77294 0.4942 0.0
C3195 C 0.98788 0.74603 0.49879 0.0
C3196 C 0.98224 0.73014 0.48729 0.0
C3197 C 0.98956 0.72792 0.46392 0.0
C3198 C 0.98402 0.71295 0.45286 0.0
C3199 C 0.97125 0.70008 0.46518 0.0
C3200 C 0.96404 0.70214 0.48864 0.0
C3201 C 0.96951 0.7171 0.49973 0.0
H3202 H 0.96698 0.6885 0.45659 0.0
H3203 H 0.01438 0.83199 0.56679 0.0
H3204 H 0.08388 0.36527 0.9311 0.0
H3205 H 0.07458 0.34755 0.89164 0.0
H3206 H 0.04023 0.3611 0.87352 0.0
H3207 H 0.04912 0.37861 0.91426 0.0
H3208 H 0.02725 0.33067 0.86961 0.0
H3209 H 0.07428 0.3731 0.83211 0.0
H3210 H 0.10225 0.39303 0.83104 0.0
H3211 H 0.11447 0.35701 0.83438 0.0
H3212 H 0.08657 0.33686 0.83583 0.0
H3213 H 0.00888 0.29008 0.73864 0.0
H3214 H 0.01611 0.30889 0.77666 0.0
H3215 H 0.0517 0.29856 0.80326 0.0
H3216 H 0.04499 0.28025 0.76431 0.0
H3217 H 0.06355 0.32886 0.80015 0.0
H3218 H 0.01705 0.28786 0.84955 0.0
H3219 H 0.98918 0.26742 0.84971 0.0
H3220 H 0.97659 0.30085 0.82093 0.0
H3221 H 0.00439 0.32146 0.82076 0.0
C3222 C 0.07444 0.36471 0.91868 0.0
C3223 C 0.06732 0.37352 0.92593 0.0
C3224 C 0.06918 0.35455 0.89587 0.0
C3225 C 0.05687 0.35314 0.87914 0.0
C3226 C 0.04981 0.36204 0.886 0.0
C3227 C 0.05497 0.37213 0.9092 0.0
C3228 C 0.05111 0.34185 0.85533 0.0
C3229 C 0.03516 0.33049 0.85415 0.0
C3230 C 0.06145 0.34133 0.83533 0.0
C3231 C 0.07829 0.35345 0.83424 0.0
C3232 C 0.08292 0.36942 0.83278 0.0
C3233 C 0.09877 0.38076 0.83208 0.0
C3234 C 0.11012 0.37629 0.83269 0.0
C3235 C 0.10566 0.36046 0.83392 0.0
C3236 C 0.08982 0.34907 0.83462 0.0
C3237 C 0.01794 0.29146 0.75303 0.0
C3238 C 0.0263 0.28358 0.74849 0.0
C3239 C 0.02208 0.30226 0.77488 0.0
C3240 C 0.03438 0.30511 0.79314 0.0
C3241 C 0.04221 0.29664 0.78946 0.0
C3242 C 0.03827 0.28606 0.76732 0.0
C3243 C 0.03979 0.31758 0.81488 0.0
C3244 C 0.05565 0.32915 0.81557 0.0
C3245 C 0.02942 0.31835 0.83433 0.0
C3246 C 0.01272 0.30616 0.83527 0.0
C3247 C 0.0083 0.29082 0.84337 0.0
C3248 C 0.99254 0.27922 0.84343 0.0
C3249 C 0.98113 0.28283 0.83529 0.0
C3250 C 0.98545 0.29806 0.8272 0.0
C3251 C 0.00119 0.30972 0.82725 0.0
H3252 H 0.96894 0.27383 0.83531 0.0
H3253 H 0.12238 0.38509 0.83216 0.0
H3254 H 0.63642 0.70791 0.95886 0.0
H3255 H 0.65555 0.71776 0.92106 0.0
H3256 H 0.62038 0.71514 0.86423 0.0
H3257 H 0.60099 0.7048 0.902 0.0
H3258 H 0.63751 0.70567 0.83885 0.0
H3259 H 0.6487 0.75034 0.89357 0.0
H3260 H 0.65439 0.76607 0.93657 0.0
H3261 H 0.69671 0.76458 0.94814 0.0
H3262 H 0.69113 0.74861 0.90542 0.0
H3263 H 0.68814 0.75424 0.73256 0.0
H3264 H 0.66973 0.74459 0.77142 0.0
H3265 H 0.70478 0.74387 0.82416 0.0
H3266 H 0.72353 0.75398 0.78524 0.0
H3267 H 0.68801 0.75474 0.85204 0.0
H3268 H 0.67605 0.71162 0.78982 0.0
H3269 H 0.66911 0.69832 0.74417 0.0
H3270 H 0.62562 0.69819 0.74477 0.0
H3271 H 0.63276 0.71249 0.78949 0.0
C3272 C 0.63271 0.70936 0.93828 0.0
C3273 C 0.61718 0.70565 0.93344 0.0
C3274 C 0.64371 0.7151 0.9167 0.0
C3275 C 0.63955 0.71756 0.88988 0.0
C3276 C 0.62393 0.71345 0.88478 0.0
C3277 C 0.61284 0.70752 0.90635 0.0
C3278 C 0.65151 0.72442 0.86723 0.0
C3279 C 0.64847 0.71651 0.84162 0.0
C3280 C 0.66595 0.73845 0.87091 0.0
C3281 C 0.6694 0.74813 0.89649 0.0
C3282 C 0.65915 0.75326 0.90541 0.0
C3283 C 0.66237 0.76224 0.92971 0.0
C3284 C 0.67588 0.76629 0.94512 0.0
C3285 C 0.68623 0.76141 0.93621 0.0
C3286 C 0.68305 0.7524 0.91195 0.0
C3287 C 0.692 0.75208 0.75244 0.0
C3288 C 0.70727 0.75469 0.7557 0.0
C3289 C 0.68141 0.74652 0.77465 0.0
C3290 C 0.6857 0.74312 0.80058 0.0
C3291 C 0.70113 0.74626 0.80428 0.0
C3292 C 0.71184 0.75201 0.78203 0.0
C3293 C 0.67396 0.73605 0.82352 0.0
C3294 C 0.67708 0.74388 0.84927 0.0
C3295 C 0.65938 0.72216 0.81965 0.0
C3296 C 0.65504 0.7133 0.79294 0.0
C3297 C 0.66509 0.70894 0.78009 0.0
C3298 C 0.66112 0.70123 0.75431 0.0
C3299 C 0.64686 0.6973 0.74167 0.0
C3300 C 0.63664 0.70123 0.7546 0.0
C3301 C 0.64071 0.70926 0.78005 0.0
H3302 H 0.64368 0.6912 0.72187 0.0
H3303 H 0.67835 0.77324 0.96394 0.0
H3304 H 0.31759 0.94238 0.93229 0.0
H3305 H 0.30749 0.95126 0.89373 0.0
H3306 H 0.26747 0.90486 0.88686 0.0
H3307 H 0.27769 0.89591 0.92416 0.0
H3308 H 0.27308 0.91441 0.83899 0.0
H3309 H 0.266 0.9352 0.92043 0.0
H3310 H 0.26845 0.94918 0.96431 0.0
H3311 H 0.29825 0.99302 0.92381 0.0
H3312 H 0.2963 0.97922 0.87958 0.0
H3313 H 0.22257 0.94598 0.78751 0.0
H3314 H 0.23516 0.93861 0.82443 0.0
H3315 H 0.278 0.95978 0.77714 0.0
H3316 H 0.2653 0.9664 0.73972 0.0
H3317 H 0.27039 0.9629 0.8511 0.0
H3318 H 0.27147 0.93207 0.76552 0.0
H3319 H 0.2554 0.91374 0.72816 0.0
H3320 H 0.22331 0.8826 0.78971 0.0
H3321 H 0.23893 0.901 0.82726 0.0
C3322 C 0.30688 0.934 0.92197 0.0
C3323 C 0.29848 0.91842 0.93138 0.0
C3324 C 0.30097 0.93914 0.90019 0.0
C3325 C 0.28652 0.92883 0.88751 0.0
C3326 C 0.27861 0.91312 0.89604 0.0
C3327 C 0.28451 0.90799 0.91755 0.0
C3328 C 0.27932 0.93428 0.86593 0.0
C3329 C 0.27268 0.9251 0.84181 0.0
C3330 C 0.27804 0.94787 0.86963 0.0
C3331 C 0.28123 0.95614 0.89681 0.0
C3332 C 0.27347 0.94779 0.92103 0.0
C3333 C 0.27472 0.9557 0.94596 0.0
C3334 C 0.28361 0.97199 0.94693 0.0
C3335 C 0.29147 0.98039 0.92304 0.0
C3336 C 0.29035 0.97253 0.89806 0.0
C3337 C 0.2347 0.94912 0.78521 0.0
C3338 C 0.24298 0.95667 0.76086 0.0
C3339 C 0.24184 0.94489 0.80616 0.0
C3340 C 0.25742 0.94846 0.80318 0.0
C3341 C 0.26589 0.95668 0.7795 0.0
C3342 C 0.25865 0.96049 0.75826 0.0
C3343 C 0.2649 0.94336 0.8244 0.0
C3344 C 0.27138 0.95252 0.84833 0.0
C3345 C 0.26511 0.92925 0.82154 0.0
C3346 C 0.25625 0.91798 0.79904 0.0
C3347 C 0.26091 0.92139 0.77098 0.0
C3348 C 0.25191 0.91099 0.74981 0.0
C3349 C 0.23836 0.89703 0.75656 0.0
C3350 C 0.2338 0.89342 0.7845 0.0
C3351 C 0.24271 0.90384 0.80571 0.0
H3352 H 0.2314 0.889 0.74015 0.0
H3353 H 0.28435 0.97812 0.96616 0.0
H3354 H 0.38143 0.05896 0.08861 0.0
H3355 H 0.3623 0.05064 0.12697 0.0
H3356 H 0.36414 0.09514 0.12401 0.0
H3357 H 0.38285 0.10338 0.08545 0.0
H3358 H 0.36356 0.07071 0.18394 0.0
H3359 H 0.33673 0.08416 0.10355 0.0
H3360 H 0.33097 0.08144 0.05288 0.0
H3361 H 0.3147 0.03223 0.05785 0.0
H3362 H 0.32063 0.03484 0.10857 0.0
H3363 H 0.30333 0.06651 0.26844 0.0
H3364 H 0.32385 0.07402 0.23343 0.0
H3365 H 0.29467 0.03138 0.1879 0.0
H3366 H 0.27373 0.02431 0.22221 0.0
H3367 H 0.30936 0.05267 0.15201 0.0
H3368 H 0.32653 0.03724 0.23302 0.0
H3369 H 0.33263 0.03717 0.28307 0.0
H3370 H 0.36772 0.08571 0.27804 0.0
H3371 H 0.36167 0.08612 0.22805 0.0
C3372 C 0.37803 0.0671 0.09661 0.0
C3373 C 0.38363 0.08181 0.08396 0.0
C3374 C 0.36706 0.0623 0.11841 0.0
C3375 C 0.36169 0.07222 0.12806 0.0
C3376 C 0.36802 0.08726 0.11667 0.0
C3377 C 0.37875 0.09196 0.0947 0.0
C3378 C 0.34865 0.06662 0.14846 0.0
C3379 C 0.35171 0.06686 0.17711 0.0
C3380 C 0.33317 0.06117 0.13951 0.0
C3381 C 0.32922 0.05967 0.1095 0.0
C3382 C 0.33198 0.07279 0.09373 0.0
C3383 C 0.32871 0.07128 0.06507 0.0
C3384 C 0.32253 0.05667 0.05213 0.0
C3385 C 0.31955 0.04353 0.06787 0.0
C3386 C 0.32287 0.04502 0.09651 0.0
C3387 C 0.30126 0.0588 0.25083 0.0
C3388 C 0.28695 0.04479 0.24812 0.0
C3389 C 0.31307 0.06303 0.23092 0.0
C3390 C 0.31111 0.05308 0.20832 0.0
C3391 C 0.29661 0.03926 0.20517 0.0
C3392 C 0.28461 0.03521 0.22477 0.0
C3393 C 0.32416 0.05713 0.18809 0.0
C3394 C 0.32113 0.05652 0.15925 0.0
C3395 C 0.33966 0.06201 0.19703 0.0
C3396 C 0.34356 0.06173 0.22689 0.0
C3397 C 0.3355 0.04791 0.24264 0.0
C3398 C 0.33895 0.04781 0.27098 0.0
C3399 C 0.35054 0.06144 0.28373 0.0
C3400 C 0.35874 0.07517 0.26814 0.0
C3401 C 0.35532 0.07534 0.23979 0.0
H3402 H 0.35317 0.06135 0.3057 0.0
H3403 H 0.32002 0.05553 0.02993 0.0
H3404 H 0.98973 0.27962 0.25157 0.0
H3405 H 0.9844 0.29167 0.21132 0.0
H3406 H 0.93813 0.25156 0.20454 0.0
H3407 H 0.94349 0.23928 0.24365 0.0
H3408 H 0.94892 0.26129 0.15473 0.0
H3409 H 0.94707 0.28718 0.24089 0.0
H3410 H 0.95883 0.30247 0.28387 0.0
H3411 H 0.99467 0.33955 0.23511 0.0
H3412 H 0.9832 0.32439 0.19182 0.0
H3413 H 0.90168 0.28571 0.0909 0.0
H3414 H 0.91377 0.27826 0.12762 0.0
H3415 H 0.95738 0.32101 0.11482 0.0
H3416 H 0.94534 0.3286 0.07777 0.0
H3417 H 0.95236 0.31258 0.17067 0.0
H3418 H 0.9513 0.28828 0.08388 0.0
H3419 H 0.9395 0.27306 0.04105 0.0
H3420 H 0.90941 0.23277 0.09046 0.0
H3421 H 0.92086 0.24785 0.13371 0.0
C3422 C 0.97855 0.27322 0.24111 0.0
C3423 C 0.96701 0.25851 0.25114 0.0
C3424 C 0.97545 0.28021 0.21825 0.0
C3425 C 0.9607 0.27273 0.20525 0.0
C3426 C 0.94957 0.25767 0.21422 0.0
C3427 C 0.95268 0.25065 0.23676 0.0
C3428 C 0.95632 0.28059 0.18325 0.0
C3429 C 0.94961 0.27247 0.15833 0.0
C3430 C 0.95766 0.29545 0.18735 0.0
C3431 C 0.96438 0.30462 0.21323 0.0
C3432 C 0.95749 0.29857 0.23938 0.0
C3433 C 0.96409 0.3072 0.26377 0.0
C3434 C 0.9775 0.32194 0.26221 0.0
C3435 C 0.9843 0.32812 0.23626 0.0
C3436 C 0.97775 0.31953 0.2118 0.0
C3437 C 0.91378 0.29372 0.09616 0.0
C3438 C 0.92256 0.30771 0.08108 0.0
C3439 C 0.92071 0.28937 0.11712 0.0
C3440 C 0.93662 0.29883 0.12347 0.0
C3441 C 0.94514 0.31339 0.11005 0.0
C3442 C 0.9382 0.31777 0.08895 0.0
C3443 C 0.94437 0.29294 0.14277 0.0
C3444 C 0.95178 0.30146 0.167 0.0
C3445 C 0.9437 0.27843 0.13804 0.0
C3446 C 0.93691 0.26925 0.11206 0.0
C3447 C 0.94214 0.2762 0.08565 0.0
C3448 C 0.93551 0.26759 0.06128 0.0
C3449 C 0.92372 0.25195 0.06301 0.0
C3450 C 0.91855 0.24488 0.08915 0.0
C3451 C 0.92512 0.25346 0.11361 0.0
H3452 H 0.9186 0.24531 0.04409 0.0
H3453 H 0.98259 0.32857 0.2811 0.0
H3454 H 0.76203 0.7256 0.20868 0.0
H3455 H 0.74934 0.70545 0.17261 0.0
H3456 H 0.72881 0.67006 0.2367 0.0
H3457 H 0.74189 0.68997 0.27256 0.0
H3458 H 0.73779 0.65899 0.19806 0.0
H3459 H 0.70629 0.68356 0.19755 0.0
H3460 H 0.7012 0.7056 0.19537 0.0
H3461 H 0.72302 0.71845 0.11457 0.0
H3462 H 0.7283 0.69653 0.11636 0.0
H3463 H 0.67698 0.60469 0.09664 0.0
H3464 H 0.68753 0.62329 0.13601 0.0
H3465 H 0.72974 0.65169 0.08935 0.0
H3466 H 0.71968 0.63322 0.05066 0.0
H3467 H 0.70763 0.66481 0.12061 0.0
H3468 H 0.7413 0.64046 0.1267 0.0
H3469 H 0.74442 0.61726 0.13073 0.0
H3470 H 0.7157 0.60277 0.20438 0.0
H3471 H 0.71223 0.6258 0.20049 0.0
C3472 C 0.75479 0.71352 0.21502 0.0
C3473 C 0.75289 0.70943 0.24349 0.0
C3474 C 0.74743 0.702 0.1944 0.0
C3475 C 0.7378 0.68618 0.20186 0.0
C3476 C 0.73608 0.68213 0.2303 0.0
C3477 C 0.74356 0.69358 0.25083 0.0
C3478 C 0.72971 0.67379 0.18019 0.0
C3479 C 0.73107 0.66026 0.18139 0.0
C3480 C 0.72085 0.67525 0.15829 0.0
C3481 C 0.71774 0.68846 0.15714 0.0
C3482 C 0.71005 0.69113 0.17938 0.0
C3483 C 0.70712 0.70359 0.1782 0.0
C3484 C 0.7118 0.71343 0.15486 0.0
C3485 C 0.71942 0.71083 0.13265 0.0
C3486 C 0.72236 0.69838 0.13372 0.0
C3487 C 0.68854 0.61484 0.09492 0.0
C3488 C 0.6975 0.61736 0.07058 0.0
C3489 C 0.69453 0.62544 0.11735 0.0
C3490 C 0.70943 0.6388 0.11549 0.0
C3491 C 0.71827 0.6414 0.0912 0.0
C3492 C 0.71248 0.63075 0.06915 0.0
C3493 C 0.71593 0.65032 0.13859 0.0
C3494 C 0.71427 0.66361 0.13755 0.0
C3495 C 0.72431 0.64856 0.16086 0.0
C3496 C 0.7263 0.63469 0.16304 0.0
C3497 C 0.73548 0.63221 0.14352 0.0
C3498 C 0.73736 0.61913 0.14583 0.0
C3499 C 0.73021 0.60851 0.16772 0.0
C3500 C 0.72119 0.61098 0.18738 0.0
C3501 C 0.71926 0.62404 0.18512 0.0
H3502 H 0.73169 0.5984 0.16951 0.0
H3503 H 0.70951 0.72305 0.15398 0.0
H3504 H 0.98143 0.72367 0.22764 0.0
H3505 H 0.97212 0.70447 0.18974 0.0
H3506 H 0.92449 0.68817 0.21485 0.0
H3507 H 0.93378 0.7069 0.2531 0.0
H3508 H 0.92565 0.66456 0.21031 0.0
H3509 H 0.94388 0.70746 0.1476 0.0
H3510 H 0.96141 0.7325 0.1243 0.0
H3511 H 0.99267 0.71584 0.10241 0.0
H3512 H 0.97548 0.6908 0.12602 0.0
H3513 H 0.89193 0.61792 0.08711 0.0
H3514 H 0.90174 0.638 0.12344 0.0
H3515 H 0.94601 0.6394 0.12254 0.0
H3516 H 0.93621 0.61907 0.08626 0.0
H3517 H 0.94724 0.66938 0.11504 0.0
H3518 H 0.92498 0.625 0.17751 0.0
H3519 H 0.90367 0.59966 0.19439 0.0
H3520 H 0.87493 0.6202 0.20901 0.0
H3521 H 0.896 0.64563 0.19188 0.0
C3522 C 0.96897 0.71625 0.22463 0.0
C3523 C 0.95841 0.71666 0.24378 0.0
C3524 C 0.96358 0.7052 0.20282 0.0
C3525 C 0.94752 0.69443 0.19949 0.0
C3526 C 0.93696 0.69589 0.21719 0.0
C3527 C 0.94231 0.70676 0.23907 0.0
C3528 C 0.94174 0.68077 0.17971 0.0
C3529 C 0.93022 0.66586 0.18925 0.0
C3530 C 0.94778 0.68201 0.15226 0.0
C3531 C 0.95848 0.6973 0.13898 0.0
C3532 C 0.9546 0.7092 0.13818 0.0
C3533 C 0.96446 0.72339 0.12484 0.0
C3534 C 0.97818 0.72579 0.112 0.0
C3535 C 0.98207 0.714 0.11247 0.0
C3536 C 0.97228 0.69981 0.12585 0.0
C3537 C 0.90364 0.6222 0.09508 0.0
C3538 C 0.91327 0.61683 0.08377 0.0
C3539 C 0.90924 0.63373 0.11582 0.0
C3540 C 0.92463 0.64027 0.12561 0.0
C3541 C 0.93409 0.63451 0.11526 0.0
C3542 C 0.92841 0.62277 0.09473 0.0
C3543 C 0.931 0.65371 0.14541 0.0
C3544 C 0.94266 0.66841 0.13597 0.0
C3545 C 0.92461 0.65244 0.17235 0.0
C3546 C 0.91206 0.63722 0.18328 0.0
C3547 C 0.91409 0.6241 0.18419 0.0
C3548 C 0.90206 0.60972 0.19382 0.0
C3549 C 0.88795 0.60831 0.20273 0.0
C3550 C 0.88587 0.6213 0.20211 0.0
C3551 C 0.89787 0.63571 0.1925 0.0
H3552 H 0.87864 0.59717 0.21015 0.0
H3553 H 0.98577 0.73676 0.1016 0.0
H3554 H 0.28425 0.27387 0.24383 0.0
H3555 H 0.30312 0.28362 0.20502 0.0
H3556 H 0.31307 0.24637 0.21892 0.0
H3557 H 0.29425 0.2364 0.25698 0.0
H3558 H 0.33871 0.2897 0.2149 0.0
H3559 H 0.30683 0.23404 0.17098 0.0
H3560 H 0.28077 0.2127 0.15691 0.0
H3561 H 0.27125 0.2459 0.1165 0.0
H3562 H 0.29712 0.26743 0.13095 0.0
H3563 H 0.37918 0.27485 0.08965 0.0
H3564 H 0.36013 0.26721 0.12765 0.0
H3565 H 0.36117 0.31121 0.1202 0.0
H3566 H 0.38052 0.31912 0.08267 0.0
H3567 H 0.32981 0.26525 0.12098 0.0
H3568 H 0.36252 0.32176 0.16808 0.0
H3569 H 0.38905 0.34193 0.18267 0.0
H3570 H 0.39703 0.30636 0.21716 0.0
H3571 H 0.37066 0.28601 0.2022 0.0
C3572 C 0.29023 0.26758 0.23829 0.0
C3573 C 0.28764 0.25431 0.25365 0.0
C3574 C 0.30106 0.27321 0.2162 0.0
C3575 C 0.30946 0.26568 0.2091 0.0
C3576 C 0.3066 0.25226 0.22385 0.0
C3577 C 0.29578 0.24658 0.24569 0.0
C3578 C 0.3218 0.27211 0.18729 0.0
C3579 C 0.33666 0.2846 0.19414 0.0
C3580 C 0.31933 0.26516 0.16057 0.0
C3581 C 0.30381 0.25229 0.15209 0.0
C3582 C 0.29912 0.23676 0.15926 0.0
C3583 C 0.28438 0.22465 0.15125 0.0
C3584 C 0.27435 0.22794 0.13585 0.0
C3585 C 0.27901 0.24336 0.12848 0.0
C3586 C 0.29368 0.25552 0.13663 0.0
C3587 C 0.37569 0.2831 0.09663 0.0
C3588 C 0.38157 0.29771 0.08336 0.0
C3589 C 0.36472 0.27866 0.11824 0.0
C3590 C 0.35932 0.28868 0.12701 0.0
C3591 C 0.36545 0.30344 0.11433 0.0
C3592 C 0.37657 0.30797 0.09289 0.0
C3593 C 0.34658 0.28328 0.1481 0.0
C3594 C 0.33173 0.27072 0.14137 0.0
C3595 C 0.34904 0.29023 0.17484 0.0
C3596 C 0.36475 0.30243 0.18389 0.0
C3597 C 0.36999 0.31828 0.17865 0.0
C3598 C 0.38499 0.32972 0.18693 0.0
C3599 C 0.39473 0.32542 0.20078 0.0
C3600 C 0.3895 0.30967 0.20635 0.0
C3601 C 0.37457 0.29819 0.19789 0.0
H3602 H 0.40632 0.3343 0.20725 0.0
H3603 H 0.26297 0.21854 0.12959 0.0
H3604 H 0.76913 0.04507 0.23471 0.0
H3605 H 0.75939 0.05359 0.19546 0.0
H3606 H 0.71256 0.01634 0.21244 0.0
H3607 H 0.72235 0.00737 0.25097 0.0
H3608 H 0.71664 0.02109 0.1579 0.0
H3609 H 0.72734 0.05496 0.23814 0.0
H3610 H 0.74434 0.07233 0.27559 0.0
H3611 H 0.77655 0.10349 0.21411 0.0
H3612 H 0.75981 0.08621 0.17629 0.0
H3613 H 0.67921 0.05796 0.08617 0.0
H3614 H 0.68742 0.04572 0.12215 0.0
H3615 H 0.73552 0.08057 0.10755 0.0
H3616 H 0.72752 0.09234 0.07128 0.0
H3617 H 0.72969 0.07651 0.16196 0.0
H3618 H 0.72231 0.04372 0.08313 0.0
H3619 H 0.71023 0.02495 0.04437 0.0
H3620 H 0.67493 0.99223 0.09996 0.0
H3621 H 0.68692 0.01074 0.13922 0.0
C3622 C 0.75681 0.03844 0.22966 0.0
C3623 C 0.74651 0.02559 0.24617 0.0
C3624 C 0.75122 0.04344 0.20738 0.0
C3625 C 0.73514 0.03597 0.20156 0.0
C3626 C 0.72499 0.02244 0.21669 0.0
C3627 C 0.73062 0.01725 0.2387 0.0
C3628 C 0.72886 0.04268 0.18074 0.0
C3629 C 0.71923 0.03312 0.1591 0.0
C3630 C 0.73261 0.05854 0.18175 0.0
C3631 C 0.74237 0.06924 0.20442 0.0
C3632 C 0.73806 0.06551 0.23262 0.0
C3633 C 0.74765 0.07533 0.25391 0.0
C3634 C 0.76153 0.08899 0.24724 0.0
C3635 C 0.76579 0.09291 0.21925 0.0
C3636 C 0.75624 0.08312 0.19788 0.0
C3637 C 0.69151 0.06283 0.09042 0.0
C3638 C 0.70263 0.07589 0.07529 0.0
C3639 C 0.69621 0.05588 0.11102 0.0
C3640 C 0.71213 0.06205 0.11724 0.0
C3641 C 0.72318 0.0755 0.10306 0.0
C3642 C 0.71852 0.08229 0.08233 0.0
C3643 C 0.71745 0.0549 0.13898 0.0
C3644 C 0.72688 0.0644 0.16092 0.0
C3645 C 0.71369 0.03905 0.138 0.0
C3646 C 0.70537 0.02871 0.114 0.0
C3647 C 0.71179 0.03266 0.08697 0.0
C3648 C 0.70504 0.02201 0.06497 0.0
C3649 C 0.69185 0.00741 0.0697 0.0
C3650 C 0.6852 0.00352 0.09636 0.0
C3651 C 0.69197 0.01407 0.1185 0.0
H3652 H 0.68677 -0.00087 0.0527 0.0
H3653 H 0.76897 0.09655 0.26375 0.0
H3654 H 0.6848 0.93612 0.73626 0.0
H3655 H 0.66624 0.92878 0.77436 0.0
H3656 H 0.70393 0.9551 0.83215 0.0
H3657 H 0.7228 0.96322 0.79343 0.0
H3658 H 0.66618 0.9123 0.82186 0.0
H3659 H 0.69612 0.96875 0.86076 0.0
H3660 H 0.70741 0.99721 0.85554 0.0
H3661 H 0.66623 0.98981 0.81211 0.0
H3662 H 0.65493 0.96125 0.81632 0.0
H3663 H 0.62128 0.8925 0.9443 0.0
H3664 H 0.6416 0.90281 0.9093 0.0
H3665 H 0.62195 0.92908 0.87257 0.0
H3666 H 0.60185 0.91948 0.90921 0.0
H3667 H 0.65158 0.94668 0.87335 0.0
H3668 H 0.61899 0.89415 0.84212 0.0
H3669 H 0.60373 0.8654 0.84583 0.0
H3670 H 0.64522 0.86424 0.86805 0.0
H3671 H 0.66071 0.893 0.86482 0.0
C3672 C 0.68925 0.94058 0.75698 0.0
C3673 C 0.70536 0.95044 0.7617 0.0
C3674 C 0.67854 0.93636 0.7788 0.0
C3675 C 0.68355 0.94182 0.80603 0.0
C3676 C 0.69966 0.95138 0.81112 0.0
C3677 C 0.71048 0.95579 0.78906 0.0
C3678 C 0.67175 0.93607 0.82889 0.0
C3679 C 0.66317 0.91985 0.83352 0.0
C3680 C 0.66734 0.94581 0.84324 0.0
C3681 C 0.67489 0.96285 0.83812 0.0
C3682 C 0.68967 0.97316 0.84936 0.0
C3683 C 0.69602 0.98932 0.84681 0.0
C3684 C 0.68756 0.99532 0.83346 0.0
C3685 C 0.67277 0.98516 0.82246 0.0
C3686 C 0.66647 0.96898 0.8247 0.0
C3687 C 0.62098 0.90025 0.92857 0.0
C3688 C 0.60968 0.90498 0.92949 0.0
C3689 C 0.63271 0.90614 0.90838 0.0
C3690 C 0.63325 0.91652 0.88778 0.0
C3691 C 0.62181 0.92105 0.88816 0.0
C3692 C 0.6102 0.91541 0.90892 0.0
C3693 C 0.64605 0.92287 0.86652 0.0
C3694 C 0.65468 0.93911 0.86201 0.0
C3695 C 0.65027 0.9131 0.85166 0.0
C3696 C 0.64099 0.89576 0.85345 0.0
C3697 C 0.62485 0.88777 0.84797 0.0
C3698 C 0.61616 0.87147 0.84996 0.0
C3699 C 0.6235 0.86301 0.85724 0.0
C3700 C 0.63955 0.87082 0.86244 0.0
C3701 C 0.64829 0.88712 0.8605 0.0
H3702 H 0.61675 0.85039 0.85878 0.0
H3703 H 0.69245 0.00784 0.83161 0.0
H3704 H 0.05895 0.7616 0.75459 0.0
H3705 H 0.0668 0.75051 0.79237 0.0
H3706 H 0.01998 0.71131 0.79753 0.0
H3707 H 0.01191 0.72221 0.75893 0.0
H3708 H 0.03581 0.72469 0.85152 0.0
H3709 H 0.04278 0.70296 0.76736 0.0
H3710 H 0.05115 0.70385 0.71865 0.0
H3711 H 0.09873 0.73555 0.74207 0.0
H3712 H 0.09056 0.73482 0.79116 0.0
H3713 H 0.0648 0.67429 0.91414 0.0
H3714 H 0.05346 0.68274 0.87714 0.0
H3715 H 0.08847 0.73071 0.89201 0.0
H3716 H 0.09939 0.72256 0.92994 0.0
H3717 H 0.07606 0.71047 0.82803 0.0
H3718 H 0.06727 0.73435 0.91224 0.0
H3719 H 0.05693 0.73531 0.95866 0.0
H3720 H 0.01105 0.6998 0.93332 0.0
H3721 H 0.02128 0.69819 0.88713 0.0
C3722 C 0.05017 0.7507 0.76384 0.0
C3723 C 0.03476 0.74277 0.75343 0.0
C3724 C 0.05475 0.74436 0.78546 0.0
C3725 C 0.04406 0.72999 0.79749 0.0
C3726 C 0.02844 0.7224 0.78841 0.0
C3727 C 0.02384 0.72868 0.76641 0.0
C3728 C 0.04958 0.72279 0.81866 0.0
C3729 C 0.04443 0.72134 0.84634 0.0
C3730 C 0.06097 0.71861 0.81199 0.0
C3731 C 0.06605 0.71894 0.78278 0.0
C3732 C 0.05501 0.71019 0.76208 0.0
C3733 C 0.05973 0.71066 0.7344 0.0
C3734 C 0.07546 0.71983 0.72715 0.0
C3735 C 0.08654 0.72847 0.74769 0.0
C3736 C 0.08188 0.72799 0.77547 0.0
C3737 C 0.07019 0.68663 0.90949 0.0
C3738 C 0.08281 0.69773 0.92564 0.0
C3739 C 0.06359 0.69144 0.88845 0.0
C3740 C 0.06975 0.70739 0.88265 0.0
C3741 C 0.0832 0.71838 0.89685 0.0
C3742 C 0.08956 0.71364 0.91831 0.0
C3743 C 0.06248 0.7126 0.86112 0.0
C3744 C 0.06733 0.71365 0.83325 0.0
C3745 C 0.05078 0.71638 0.86768 0.0
C3746 C 0.04514 0.71585 0.89653 0.0
C3747 C 0.0551 0.72636 0.9169 0.0
C3748 C 0.04922 0.72715 0.94307 0.0
C3749 C 0.03333 0.71765 0.94892 0.0
C3750 C 0.02336 0.70711 0.92882 0.0
C3751 C 0.02922 0.70618 0.90273 0.0
H3752 H 0.02876 0.71835 0.96912 0.0
H3753 H 0.07907 0.72021 0.70565 0.0
H3754 H 0.22684 0.27135 0.77895 0.0
H3755 H 0.23536 0.29183 0.81505 0.0
H3756 H 0.28054 0.3166 0.77624 0.0
H3757 H 0.27277 0.29564 0.74201 0.0
H3758 H 0.28361 0.31649 0.83231 0.0
H3759 H 0.25367 0.32709 0.76514 0.0
H3760 H 0.23014 0.32061 0.73748 0.0
H3761 H 0.20409 0.31403 0.81308 0.0
H3762 H 0.22743 0.32023 0.84122 0.0
H3763 H 0.31258 0.38916 0.90443 0.0
H3764 H 0.30462 0.3701 0.86621 0.0
H3765 H 0.25724 0.34696 0.89681 0.0
H3766 H 0.26481 0.36621 0.93367 0.0
H3767 H 0.25598 0.34643 0.84382 0.0
H3768 H 0.28156 0.32303 0.90538 0.0
H3769 H 0.30331 0.32468 0.93328 0.0
H3770 H 0.33607 0.35446 0.87113 0.0
H3771 H 0.31433 0.35222 0.84214 0.0
C3772 C 0.23883 0.28084 0.77901 0.0
C3773 C 0.24935 0.28159 0.75842 0.0
C3774 C 0.24362 0.29264 0.79932 0.0
C3775 C 0.25881 0.30566 0.79863 0.0
C3776 C 0.26917 0.30633 0.77798 0.0
C3777 C 0.26464 0.29435 0.75842 0.0
C3778 C 0.26411 0.31886 0.8188 0.0
C3779 C 0.27763 0.32312 0.83459 0.0
C3780 C 0.25624 0.32743 0.82215 0.0
C3781 C 0.24226 0.32396 0.80528 0.0
C3782 C 0.2429 0.32415 0.77587 0.0
C3783 C 0.2296 0.32054 0.76011 0.0
C3784 C 0.21561 0.31687 0.77351 0.0
C3785 C 0.21492 0.31685 0.80273 0.0
C3786 C 0.22819 0.32042 0.81859 0.0
C3787 C 0.30042 0.38019 0.90264 0.0
C3788 C 0.28942 0.37927 0.92235 0.0
C3789 C 0.29592 0.36907 0.88109 0.0
C3790 C 0.28039 0.35666 0.87906 0.0
C3791 C 0.26931 0.35626 0.89787 0.0
C3792 C 0.27372 0.36742 0.91904 0.0
C3793 C 0.27545 0.344 0.85764 0.0
C3794 C 0.26199 0.33984 0.8415 0.0
C3795 C 0.28326 0.3354 0.85406 0.0
C3796 C 0.29642 0.33777 0.87201 0.0
C3797 C 0.29343 0.33005 0.89785 0.0
C3798 C 0.30573 0.33097 0.91372 0.0
C3799 C 0.32111 0.33992 0.90427 0.0
C3800 C 0.32417 0.34766 0.87857 0.0
C3801 C 0.31185 0.34642 0.86226 0.0
H3802 H 0.33064 0.34075 0.91672 0.0
H3803 H 0.20532 0.31406 0.76126 0.0
H3804 H 0.03697 0.42619 0.41821 0.0
H3805 H 0.01706 0.41392 0.45382 0.0
H3806 H 0.02924 0.37794 0.46474 0.0
H3807 H 0.04882 0.3898 0.42756 0.0
H3808 H -0.00077 0.36486 0.46277 0.0
H3809 H 0.03788 0.40851 0.51529 0.0
H3810 H 0.05698 0.43623 0.52448 0.0
H3811 H 0.02063 0.44784 0.51847 0.0
H3812 H 0.00133 0.42023 0.50892 0.0
H3813 H 0.95219 0.33889 0.58972 0.0
H3814 H 0.97168 0.34684 0.55235 0.0
H3815 H 0.96103 0.38226 0.52609 0.0
H3816 H 0.94165 0.37444 0.56321 0.0
H3817 H 0.9915 0.39458 0.53859 0.0
H3818 H 0.95324 0.35139 0.48401 0.0
H3819 H 0.93425 0.32398 0.47239 0.0
H3820 H 0.96987 0.31157 0.4821 0.0
H3821 H 0.98906 0.33889 0.49409 0.0
C3822 C 0.03572 0.41584 0.42847 0.0
C3823 C 0.04466 0.40907 0.42002 0.0
C3824 C 0.02427 0.40883 0.44906 0.0
C3825 C 0.02172 0.39509 0.46249 0.0
C3826 C 0.03096 0.38854 0.45479 0.0
C3827 C 0.04228 0.39542 0.43369 0.0
C3828 C 0.00881 0.38723 0.48332 0.0
C3829 C -0.00227 0.37129 0.47973 0.0
C3830 C 0.00657 0.39565 0.50513 0.0
C3831 C 0.01816 0.41227 0.51126 0.0
C3832 C 0.03397 0.41698 0.5158 0.0
C3833 C 0.04483 0.43268 0.52109 0.0
C3834 C 0.04003 0.44379 0.52202 0.0
C3835 C 0.02434 0.43922 0.51775 0.0
C3836 C 0.01342 0.42354 0.51246 0.0
C3837 C 0.95359 0.34798 0.57535 0.0
C3838 C 0.94543 0.35611 0.57964 0.0
C3839 C 0.96481 0.35257 0.55404 0.0
C3840 C 0.96797 0.36529 0.53659 0.0
C3841 C 0.95892 0.37253 0.53945 0.0
C3842 C 0.94777 0.36798 0.56065 0.0
C3843 C 0.98181 0.37232 0.5177 0.0
C3844 C 0.9931 0.38811 0.5218 0.0
C3845 C 0.98424 0.36373 0.49651 0.0
C3846 C 0.97256 0.34718 0.49031 0.0
C3847 C 0.95699 0.34279 0.48406 0.0
C3848 C 0.94619 0.32727 0.47729 0.0
C3849 C 0.95083 0.31603 0.47661 0.0
C3850 C 0.96628 0.32028 0.4827 0.0
C3851 C 0.97712 0.33579 0.48947 0.0
H3852 H 0.94247 0.30404 0.47127 0.0
H3853 H 0.04845 0.45594 0.52608 0.0
H3854 H 0.61332 0.56409 0.57671 0.0
H3855 H 0.60297 0.57549 0.54417 0.0
H3856 H 0.64695 0.61882 0.54506 0.0
H3857 H 0.65731 0.60758 0.57876 0.0
H3858 H 0.62378 0.62446 0.55263 0.0
H3859 H 0.63309 0.59345 0.48611 0.0
H3860 H 0.6316 0.56938 0.46779 0.0
H3861 H 0.58153 0.54655 0.46737 0.0
H3862 H 0.5827 0.5704 0.48602 0.0
H3863 H 0.59841 0.65777 0.44654 0.0
H3864 H 0.61155 0.64826 0.47706 0.0
H3865 H 0.5711 0.60198 0.47455 0.0
H3866 H 0.55842 0.61117 0.44208 0.0
H3867 H 0.5946 0.59901 0.46583 0.0
H3868 H 0.58422 0.62757 0.5359 0.0
H3869 H 0.58426 0.65061 0.55596 0.0
H3870 H 0.63427 0.67677 0.55146 0.0
H3871 H 0.63457 0.65385 0.53141 0.0
C3872 C 0.62098 0.57595 0.56962 0.0
C3873 C 0.6362 0.58489 0.58047 0.0
C3874 C 0.61502 0.58247 0.55081 0.0
C3875 C 0.62417 0.59802 0.54185 0.0
C3876 C 0.63963 0.60679 0.5516 0.0
C3877 C 0.64561 0.60028 0.57067 0.0
C3878 C 0.61714 0.6053 0.52394 0.0
C3879 C 0.61764 0.61904 0.53336 0.0
C3880 C 0.60869 0.59802 0.49922 0.0
C3881 C 0.60799 0.58372 0.48759 0.0
C3882 C 0.62176 0.58328 0.48224 0.0
C3883 C 0.62097 0.56967 0.47179 0.0
C3884 C 0.60648 0.55644 0.46646 0.0
C3885 C 0.59274 0.55681 0.4715 0.0
C3886 C 0.59347 0.57038 0.48196 0.0
C3887 C 0.59222 0.64559 0.45257 0.0
C3888 C 0.57747 0.6352 0.44115 0.0
C3889 C 0.59974 0.64016 0.4704 0.0
C3890 C 0.59242 0.62431 0.47823 0.0
C3891 C 0.57716 0.6142 0.4686 0.0
C3892 C 0.56982 0.61954 0.45021 0.0
C3893 C 0.60092 0.61801 0.49479 0.0
C3894 C 0.60077 0.60448 0.48504 0.0
C3895 C 0.60948 0.62534 0.51941 0.0
C3896 C 0.6094 0.63904 0.53198 0.0
C3897 C 0.59523 0.63825 0.53914 0.0
C3898 C 0.5952 0.65127 0.55057 0.0
C3899 C 0.60928 0.66513 0.55501 0.0
C3900 C 0.62341 0.66599 0.54813 0.0
C3901 C 0.62352 0.65298 0.53681 0.0
H3902 H 0.60923 0.67522 0.56377 0.0
H3903 H 0.60589 0.54592 0.45839 0.0
H3904 H 0.42988 0.06767 0.55532 0.0
H3905 H 0.4195 0.04622 0.52096 0.0
H3906 H 0.38109 0.01808 0.57628 0.0
H3907 H 0.39125 0.03957 0.6101 0.0
H3908 H 0.39832 0.00339 0.55662 0.0
H3909 H 0.3728 0.03071 0.52127 0.0
H3910 H 0.37246 0.05416 0.50448 0.0
H3911 H 0.40272 0.05852 0.4364 0.0
H3912 H 0.40346 0.03525 0.45309 0.0
H3913 H 0.35828 0.9386 0.46326 0.0
H3914 H 0.36491 0.95972 0.49716 0.0
H3915 H 0.3955 0.99353 0.43639 0.0
H3916 H 0.38842 0.97271 0.40241 0.0
H3917 H 0.3808 0.00514 0.4601 0.0
H3918 H 0.40878 0.98048 0.49459 0.0
H3919 H 0.41215 0.95871 0.51129 0.0
H3920 H 0.3808 0.95079 0.57955 0.0
H3921 H 0.37711 0.97242 0.56307 0.0
C3922 C 0.41895 0.05709 0.55962 0.0
C3923 C 0.41106 0.05544 0.58494 0.0
C3924 C 0.4131 0.04481 0.54015 0.0
C3925 C 0.3995 0.03055 0.54606 0.0
C3926 C 0.39155 0.02898 0.57121 0.0
C3927 C 0.39723 0.04134 0.59033 0.0
C3928 C 0.39394 0.01702 0.52664 0.0
C3929 C 0.39427 0.00364 0.53562 0.0
C3930 C 0.38907 0.01756 0.49906 0.0
C3931 C 0.38832 0.03133 0.48861 0.0
C3932 C 0.37948 0.03675 0.50286 0.0
C3933 C 0.37922 0.05001 0.49335 0.0
C3934 C 0.38766 0.05789 0.46951 0.0
C3935 C 0.39626 0.05245 0.45497 0.0
C3936 C 0.39659 0.03921 0.46441 0.0
C3937 C 0.36643 0.95055 0.45726 0.0
C3938 C 0.37278 0.95397 0.43016 0.0
C3939 C 0.37028 0.96263 0.47666 0.0
C3940 C 0.38085 0.97832 0.46952 0.0
C3941 C 0.38725 0.98162 0.44249 0.0
C3942 C 0.38321 0.96965 0.42306 0.0
C3943 C 0.3853 0.9914 0.48985 0.0
C3944 C 0.38477 0.00476 0.4811 0.0
C3945 C 0.39034 0.99098 0.51747 0.0
C3946 C 0.39254 0.97797 0.52743 0.0
C3947 C 0.40251 0.97403 0.51305 0.0
C3948 C 0.4045 0.96172 0.52249 0.0
C3949 C 0.39665 0.95334 0.54642 0.0
C3950 C 0.38684 0.95728 0.56099 0.0
C3951 C 0.38481 0.96957 0.55163 0.0
H3952 H 0.3982 0.94383 0.55371 0.0
H3953 H 0.38744 0.06815 0.46218 0.0
H3954 H 0.56082 0.95281 0.43018 0.0
H3955 H 0.57103 0.97347 0.46522 0.0
H3956 H 0.61308 0.97065 0.47141 0.0
H3957 H 0.60307 0.95014 0.43568 0.0
H3958 H 0.57973 0.97769 0.51673 0.0
H3959 H 0.64399 0.00594 0.47801 0.0
H3960 H 0.65802 0.00885 0.43361 0.0
H3961 H 0.61846 0.00376 0.38737 0.0
H3962 H 0.60428 0.00073 0.43125 0.0
H3963 H 0.62552 0.03333 0.61726 0.0
H3964 H 0.61345 0.01204 0.58379 0.0
H3965 H 0.62791 0.04539 0.51606 0.0
H3966 H 0.63978 0.06694 0.55029 0.0
H3967 H 0.63205 0.02375 0.49926 0.0
H3968 H 0.58795 0.02212 0.54214 0.0
H3969 H 0.57116 0.02168 0.58071 0.0
H3970 H 0.56562 0.97801 0.60963 0.0
H3971 H 0.58256 0.9783 0.57148 0.0
C3972 C 0.57216 0.95638 0.43923 0.0
C3973 C 0.58118 0.94986 0.42981 0.0
C3974 C 0.57799 0.96824 0.45937 0.0
C3975 C 0.59298 0.9739 0.47061 0.0
C3976 C 0.60161 0.96673 0.46261 0.0
C3977 C 0.5958 0.95486 0.44237 0.0
C3978 C 0.59979 0.98775 0.48963 0.0
C3979 C 0.5912 0.98774 0.513 0.0
C3980 C 0.61446 0.00118 0.48423 0.0
C3981 C 0.62303 0.00292 0.45785 0.0
C3982 C 0.63832 0.00542 0.45831 0.0
C3983 C 0.64629 0.00705 0.43321 0.0
C3984 C 0.63912 0.00637 0.40761 0.0
C3985 C 0.624 0.00411 0.40707 0.0
C3986 C 0.61597 0.00239 0.43204 0.0
C3987 C 0.62634 0.0361 0.59515 0.0
C3988 C 0.63389 0.05169 0.58618 0.0
C3989 C 0.61923 0.0239 0.57596 0.0
C3990 C 0.61964 0.02693 0.54718 0.0
C3991 C 0.6275 0.04264 0.53809 0.0
C3992 C 0.6344 0.05496 0.55752 0.0
C3993 C 0.61213 0.01365 0.52686 0.0
C3994 C 0.6206 0.01373 0.5032 0.0
C3995 C 0.59697 0.00061 0.53127 0.0
C3996 C 0.58662 0.00029 0.55405 0.0
C3997 C 0.58321 0.01246 0.55681 0.0
C3998 C 0.57366 0.01224 0.57859 0.0
C3999 C 0.56735 -0.00016 0.59762 0.0
C4000 C 0.57052 0.98761 0.59487 0.0
C4001 C 0.58008 0.98779 0.57315 0.0
H4002 H 0.55997 -0.0003 0.61449 0.0
H4003 H 0.6453 0.00764 0.38821 0.0
H4004 H 0.94372 0.60202 0.57431 0.0
H4005 H 0.96468 0.6135 0.53921 0.0
H4006 H 0.97613 0.57751 0.55585 0.0
H4007 H 0.95514 0.56571 0.58994 0.0
H4008 H 0.00179 0.60996 0.56176 0.0
H4009 H 0.96173 0.57472 0.50003 0.0
H4010 H 0.93669 0.56216 0.47469 0.0
H4011 H 0.9487 0.60586 0.4354 0.0
H4012 H 0.97368 0.6188 0.46108 0.0
H4013 H 0.04812 0.61309 0.43851 0.0
H4014 H 0.02817 0.60449 0.47503 0.0
H4015 H 0.02921 0.64856 0.47024 0.0
H4016 H 0.04959 0.65755 0.43437 0.0
H4017 H -0.00243 0.61382 0.45914 0.0
H4018 H 0.03826 0.64879 0.52305 0.0
H4019 H 0.06354 0.65979 0.54754 0.0
H4020 H 0.05048 0.61445 0.58065 0.0
H4021 H 0.0252 0.60313 0.55597 0.0
C4022 C 0.95043 0.59632 0.56998 0.0
C4023 C 0.9477 0.58295 0.58512 0.0
C4024 C 0.96245 0.60294 0.55002 0.0
C4025 C 0.97206 0.59644 0.54526 0.0
C4026 C 0.96892 0.58276 0.55939 0.0
C4027 C 0.95679 0.57598 0.57881 0.0
C4028 C 0.98601 0.60433 0.52692 0.0
C4029 C 0.00087 0.61077 0.53926 0.0
C4030 C 0.98479 0.60546 0.49764 0.0
C4031 C 0.96947 0.59783 0.48302 0.0
C4032 C 0.95892 0.58175 0.48648 0.0
C4033 C 0.94475 0.57453 0.47193 0.0
C4034 C 0.94105 0.58323 0.45359 0.0
C4035 C 0.95153 0.59916 0.44976 0.0
C4036 C 0.96568 0.60645 0.46436 0.0
C4037 C 0.04446 0.62116 0.44573 0.0
C4038 C 0.05045 0.63601 0.43331 0.0
C4039 C 0.03302 0.61619 0.46659 0.0
C4040 C 0.02719 0.62587 0.47522 0.0
C4041 C 0.03362 0.64095 0.46392 0.0
C4042 C 0.04534 0.64608 0.4435 0.0
C4043 C 0.01335 0.61956 0.49386 0.0
C4044 C -0.0015 0.61325 0.48159 0.0
C4045 C 0.01457 0.61839 0.5231 0.0
C4046 C 0.02993 0.62507 0.53729 0.0
C4047 C 0.04088 0.64111 0.53516 0.0
C4048 C 0.05518 0.64742 0.54919 0.0
C4049 C 0.05864 0.63781 0.56553 0.0
C4050 C 0.0478 0.62187 0.56789 0.0
C4051 C 0.03348 0.61551 0.5539 0.0
H4052 H 0.06969 0.64272 0.57647 0.0
H4053 H 0.93012 0.5776 0.44224 0.0
H4054 H 0.35382 0.38234 0.3859 0.0
H4055 H 0.36395 0.37149 0.42029 0.0
H4056 H 0.37488 0.41029 0.47543 0.0
H4057 H 0.36551 0.42158 0.43991 0.0
H4058 H 0.39865 0.40671 0.47194 0.0
H4059 H 0.34305 0.36843 0.4858 0.0
H4060 H 0.31707 0.34835 0.46876 0.0
H4061 H 0.33666 0.32117 0.43708 0.0
H4062 H 0.36273 0.34113 0.45365 0.0
H4063 H 0.41845 0.38391 0.59503 0.0
H4064 H 0.40688 0.39086 0.55725 0.0
H4065 H 0.39525 0.34782 0.51459 0.0
H4066 H 0.40595 0.34018 0.5543 0.0
H4067 H 0.37288 0.35223 0.50722 0.0
H4068 H 0.42729 0.3878 0.49427 0.0
H4069 H 0.4542 0.40738 0.50769 0.0
H4070 H 0.43875 0.43928 0.5321 0.0
H4071 H 0.41172 0.41984 0.51917 0.0
C4072 C 0.35779 0.3882 0.40578 0.0
C4073 C 0.35847 0.40257 0.4105 0.0
C4074 C 0.36368 0.38202 0.42551 0.0
C4075 C 0.36997 0.38985 0.4509 0.0
C4076 C 0.37006 0.40394 0.45611 0.0
C4077 C 0.36455 0.41033 0.43597 0.0
C4078 C 0.37769 0.38419 0.47092 0.0
C4079 C 0.3929 0.39486 0.47999 0.0
C4080 C 0.37064 0.36845 0.48019 0.0
C4081 C 0.35485 0.35632 0.47084 0.0
C4082 C 0.34181 0.35819 0.47513 0.0
C4083 C 0.32707 0.34683 0.46554 0.0
C4084 C 0.32522 0.33351 0.45177 0.0
C4085 C 0.33809 0.33149 0.44769 0.0
C4086 C 0.35284 0.3428 0.45724 0.0
C4087 C 0.41368 0.37599 0.5774 0.0
C4088 C 0.41346 0.36164 0.5773 0.0
C4089 C 0.40714 0.38006 0.55554 0.0
C4090 C 0.40068 0.37024 0.53223 0.0
C4091 C 0.40032 0.35576 0.53209 0.0
C4092 C 0.40649 0.3514 0.55466 0.0
C4093 C 0.39368 0.37493 0.50904 0.0
C4094 C 0.37868 0.36409 0.49918 0.0
C4095 C 0.40107 0.39045 0.49846 0.0
C4096 C 0.41743 0.4023 0.50583 0.0
C4097 C 0.42961 0.39897 0.50259 0.0
C4098 C 0.44489 0.41005 0.51012 0.0
C4099 C 0.44818 0.42456 0.52078 0.0
C4100 C 0.43619 0.42804 0.52384 0.0
C4101 C 0.42089 0.41701 0.51635 0.0
H4102 H 0.46001 0.4331 0.52664 0.0
H4103 H 0.31381 0.32475 0.44431 0.0
loop_
_geom_bond_atom_site_label_1
_geom_bond_atom_site_label_2
_geom_bond_distance
_geom_bond_site_symmetry_2
_ccdc_geom_bond_type
Co0 O1 2.222 . S
Co0 O2 2.091 . S
Co0 O4 2.004 . S
Co0 O10 2.021 1_554 S
Co0 O12 2.137 . S
Co0 O13 2.244 . S
O1 Co0 2.222 . S
O1 C8 1.260 . S
O2 Co0 2.091 . S
O2 C8 1.261 . S
C3 O12 1.247 . S
C3 O13 1.272 . S
O4 Co0 2.004 . S
O4 C9 1.259 . S
Co5 O6 2.061 . S
Co5 O11 2.052 . S
Co5 O13 2.135 1_556 S
O6 Co5 2.061 . S
O6 C9 1.235 1_556 S
C7 O10 1.238 . S
C7 O11 1.241 . S
C8 O1 1.260 . S
C8 O2 1.261 . S
C9 O4 1.259 . S
C9 O6 1.235 1_554 S
O10 Co0 2.021 1_556 S
O10 C7 1.238 . S
O11 Co5 2.052 . S
O11 C7 1.241 . S
O12 Co0 2.137 . S
O12 C3 1.247 . S
O13 Co0 2.244 . S
O13 C3 1.272 . S
O13 Co5 2.135 1_554 S
Co14 O15 2.222 . S
Co14 O16 2.091 . S
Co14 O18 2.004 . S
Co14 O24 2.021 1_554 S
Co14 O26 2.137 . S
Co14 O27 2.244 . S
O15 Co14 2.222 . S
O15 C22 1.260 . S
O16 Co14 2.091 . S
O16 C22 1.261 . S
C17 O26 1.247 . S
C17 O27 1.272 . S
O18 Co14 2.004 . S
O18 C23 1.259 . S
Co19 O20 2.061 . S
Co19 O25 2.052 . S
Co19 O27 2.135 1_556 S
O20 Co19 2.061 . S
O20 C23 1.235 1_556 S
C21 O24 1.238 . S
C21 O25 1.241 . S
C22 O15 1.260 . S
C22 O16 1.261 . S
C23 O18 1.259 . S
C23 O20 1.235 1_554 S
O24 Co14 2.021 1_556 S
O24 C21 1.238 . S
O25 Co19 2.052 . S
O25 C21 1.241 . S
O26 Co14 2.137 . S
O26 C17 1.247 . S
O27 Co14 2.244 . S
O27 C17 1.272 . S
O27 Co19 2.135 1_554 S
Co28 O29 2.222 . S
Co28 O30 2.091 . S
Co28 O32 2.004 . S
Co28 O38 2.021 1_554 S
Co28 O40 2.137 . S
Co28 O41 2.244 . S
O29 Co28 2.222 . S
O29 C36 1.260 . S
O30 Co28 2.091 . S
O30 C36 1.261 . S
C31 O40 1.247 . S
C31 O41 1.272 . S
O32 Co28 2.004 . S
O32 C37 1.259 . S
Co33 O34 2.061 . S
Co33 O39 2.052 . S
Co33 O41 2.135 1_556 S
O34 Co33 2.061 . S
O34 C37 1.235 1_556 S
C35 O38 1.238 . S
C35 O39 1.241 . S
C36 O29 1.260 . S
C36 O30 1.261 . S
C37 O32 1.259 . S
C37 O34 1.235 1_554 S
O38 Co28 2.021 1_556 S
O38 C35 1.238 . S
O39 Co33 2.052 . S
O39 C35 1.241 . S
O40 Co28 2.137 . S
O40 C31 1.247 . S
O41 Co28 2.244 . S
O41 C31 1.272 . S
O41 Co33 2.135 1_554 S
Co42 O43 2.222 . S
Co42 O44 2.091 . S
Co42 O46 2.004 . S
Co42 O52 2.021 1_556 S
Co42 O54 2.137 . S
Co42 O55 2.244 . S
O43 Co42 2.222 . S
O43 C50 1.260 . S
O44 Co42 2.091 . S
O44 C50 1.261 . S
C45 O54 1.247 . S
C45 O55 1.272 . S
O46 Co42 2.004 . S
O46 C51 1.259 . S
Co47 O48 2.061 . S
Co47 O53 2.052 . S
Co47 O55 2.135 1_554 S
O48 Co47 2.061 . S
O48 C51 1.235 1_554 S
C49 O52 1.238 . S
C49 O53 1.241 . S
C50 O43 1.260 . S
C50 O44 1.261 . S
C51 O46 1.259 . S
C51 O48 1.235 1_556 S
O52 Co42 2.021 1_554 S
O52 C49 1.238 . S
O53 Co47 2.052 . S
O53 C49 1.241 . S
O54 Co42 2.137 . S
O54 C45 1.247 . S
O55 Co42 2.244 . S
O55 C45 1.272 . S
O55 Co47 2.135 1_556 S
Co56 O57 2.222 . S
Co56 O58 2.091 . S
Co56 O60 2.004 . S
Co56 O66 2.021 1_556 S
Co56 O68 2.137 . S
Co56 O69 2.244 . S
O57 Co56 2.222 . S
O57 C64 1.260 . S
O58 Co56 2.091 . S
O58 C64 1.261 . S
C59 O68 1.247 . S
C59 O69 1.272 . S
O60 Co56 2.004 . S
O60 C65 1.259 . S
Co61 O62 2.061 . S
Co61 O67 2.052 . S
Co61 O69 2.135 1_554 S
O62 Co61 2.061 . S
O62 C65 1.235 1_554 S
C63 O66 1.238 . S
C63 O67 1.241 . S
C64 O57 1.260 . S
C64 O58 1.261 . S
C65 O60 1.259 . S
C65 O62 1.235 1_556 S
O66 Co56 2.021 1_554 S
O66 C63 1.238 . S
O67 Co61 2.052 . S
O67 C63 1.241 . S
O68 Co56 2.137 . S
O68 C59 1.247 . S
O69 Co56 2.244 . S
O69 C59 1.272 . S
O69 Co61 2.135 1_556 S
Co70 O71 2.222 . S
Co70 O72 2.091 . S
Co70 O74 2.004 . S
Co70 O80 2.021 1_556 S
Co70 O82 2.137 . S
Co70 O83 2.244 . S
O71 Co70 2.222 . S
O71 C78 1.260 . S
O72 Co70 2.091 . S
O72 C78 1.261 . S
C73 O82 1.247 . S
C73 O83 1.272 . S
O74 Co70 2.004 . S
O74 C79 1.259 . S
Co75 O76 2.061 . S
Co75 O81 2.052 . S
Co75 O83 2.135 1_554 S
O76 Co75 2.061 . S
O76 C79 1.235 1_554 S
C77 O80 1.238 . S
C77 O81 1.241 . S
C78 O71 1.260 . S
C78 O72 1.261 . S
C79 O74 1.259 . S
C79 O76 1.235 1_556 S
O80 Co70 2.021 1_554 S
O80 C77 1.238 . S
O81 Co75 2.052 . S
O81 C77 1.241 . S
O82 Co70 2.137 . S
O82 C73 1.247 . S
O83 Co70 2.244 . S
O83 C73 1.272 . S
O83 Co75 2.135 1_556 S
Co84 O85 2.222 . S
Co84 O86 2.091 . S
Co84 O88 2.004 . S
Co84 O94 2.021 1_556 S
Co84 O96 2.137 . S
Co84 O97 2.244 . S
O85 Co84 2.222 . S
O85 C92 1.260 . S
O86 Co84 2.091 . S
O86 C92 1.261 . S
C87 O96 1.247 . S
C87 O97 1.272 . S
O88 Co84 2.004 . S
O88 C93 1.259 . S
Co89 O90 2.061 . S
Co89 O95 2.052 . S
Co89 O97 2.135 1_554 S
O90 Co89 2.061 . S
O90 C93 1.235 1_554 S
C91 O94 1.238 . S
C91 O95 1.241 . S
C92 O85 1.260 . S
C92 O86 1.261 . S
C93 O88 1.259 . S
C93 O90 1.235 1_556 S
O94 Co84 2.021 1_554 S
O94 C91 1.238 . S
O95 Co89 2.052 . S
O95 C91 1.241 . S
O96 Co84 2.137 . S
O96 C87 1.247 . S
O97 Co84 2.244 . S
O97 C87 1.272 . S
O97 Co89 2.135 1_556 S
Co98 O99 2.222 . S
Co98 O100 2.091 . S
Co98 O102 2.004 . S
Co98 O108 2.021 1_556 S
Co98 O110 2.137 . S
Co98 O111 2.244 . S
O99 Co98 2.222 . S
O99 C106 1.260 . S
O100 Co98 2.091 . S
O100 C106 1.261 . S
C101 O110 1.247 . S
C101 O111 1.272 . S
O102 Co98 2.004 . S
O102 C107 1.259 . S
Co103 O104 2.061 . S
Co103 O109 2.052 . S
Co103 O111 2.135 1_554 S
O104 Co103 2.061 . S
O104 C107 1.235 1_554 S
C105 O108 1.238 . S
C105 O109 1.241 . S
C106 O99 1.260 . S
C106 O100 1.261 . S
C107 O102 1.259 . S
C107 O104 1.235 1_556 S
O108 Co98 2.021 1_554 S
O108 C105 1.238 . S
O109 Co103 2.052 . S
O109 C105 1.241 . S
O110 Co98 2.137 . S
O110 C101 1.247 . S
O111 Co98 2.244 . S
O111 C101 1.272 . S
O111 Co103 2.135 1_556 S
Co112 O113 2.222 . S
Co112 O114 2.091 . S
Co112 O116 2.004 . S
Co112 O122 2.021 1_556 S
Co112 O124 2.137 . S
Co112 O125 2.244 . S
O113 Co112 2.222 . S
O113 C120 1.260 . S
O114 Co112 2.091 . S
O114 C120 1.261 . S
C115 O124 1.247 . S
C115 O125 1.272 . S
O116 Co112 2.004 . S
O116 C121 1.259 . S
Co117 O118 2.061 . S
Co117 O123 2.052 . S
Co117 O125 2.135 1_554 S
O118 Co117 2.061 . S
O118 C121 1.235 1_554 S
C119 O122 1.238 . S
C119 O123 1.241 . S
C120 O113 1.260 . S
C120 O114 1.261 . S
C121 O116 1.259 . S
C121 O118 1.235 1_556 S
O122 Co112 2.021 1_554 S
O122 C119 1.238 . S
O123 Co117 2.052 . S
O123 C119 1.241 . S
O124 Co112 2.137 . S
O124 C115 1.247 . S
O125 Co112 2.244 . S
O125 C115 1.272 . S
O125 Co117 2.135 1_556 S
Co126 O127 2.222 . S
Co126 O128 2.091 . S
Co126 O130 2.004 . S
Co126 O136 2.021 1_554 S
Co126 O138 2.137 . S
Co126 O139 2.244 . S
O127 Co126 2.222 . S
O127 C134 1.260 . S
O128 Co126 2.091 . S
O128 C134 1.261 . S
C129 O138 1.247 . S
C129 O139 1.272 . S
O130 Co126 2.004 . S
O130 C135 1.259 . S
Co131 O132 2.061 . S
Co131 O137 2.052 . S
Co131 O139 2.135 1_556 S
O132 Co131 2.061 . S
O132 C135 1.235 1_556 S
C133 O136 1.238 . S
C133 O137 1.241 . S
C134 O127 1.260 . S
C134 O128 1.261 . S
C135 O130 1.259 . S
C135 O132 1.235 1_554 S
O136 Co126 2.021 1_556 S
O136 C133 1.238 . S
O137 Co131 2.052 . S
O137 C133 1.241 . S
O138 Co126 2.137 . S
O138 C129 1.247 . S
O139 Co126 2.244 . S
O139 C129 1.272 . S
O139 Co131 2.135 1_554 S
Co140 O141 2.222 . S
Co140 O142 2.091 . S
Co140 O144 2.004 . S
Co140 O150 2.021 1_554 S
Co140 O152 2.137 . S
Co140 O153 2.244 . S
O141 Co140 2.222 . S
O141 C148 1.260 . S
O142 Co140 2.091 . S
O142 C148 1.261 . S
C143 O152 1.247 . S
C143 O153 1.272 . S
O144 Co140 2.004 . S
O144 C149 1.259 . S
Co145 O146 2.061 . S
Co145 O151 2.052 . S
Co145 O153 2.135 1_556 S
O146 Co145 2.061 . S
O146 C149 1.235 1_556 S
C147 O150 1.238 . S
C147 O151 1.241 . S
C148 O141 1.260 . S
C148 O142 1.261 . S
C149 O144 1.259 . S
C149 O146 1.235 1_554 S
O150 Co140 2.021 1_556 S
O150 C147 1.238 . S
O151 Co145 2.052 . S
O151 C147 1.241 . S
O152 Co140 2.137 . S
O152 C143 1.247 . S
O153 Co140 2.244 . S
O153 C143 1.272 . S
O153 Co145 2.135 1_554 S
Co154 O155 2.222 . S
Co154 O156 2.091 . S
Co154 O158 2.004 . S
Co154 O164 2.021 1_554 S
Co154 O166 2.137 . S
Co154 O167 2.244 . S
O155 Co154 2.222 . S
O155 C162 1.260 . S
O156 Co154 2.091 . S
O156 C162 1.261 . S
C157 O166 1.247 . S
C157 O167 1.272 . S
O158 Co154 2.004 . S
O158 C163 1.259 . S
Co159 O160 2.061 . S
Co159 O165 2.052 . S
Co159 O167 2.135 1_556 S
O160 Co159 2.061 . S
O160 C163 1.235 1_556 S
C161 O164 1.238 . S
C161 O165 1.241 . S
C162 O155 1.260 . S
C162 O156 1.261 . S
C163 O158 1.259 . S
C163 O160 1.235 1_554 S
O164 Co154 2.021 1_556 S
O164 C161 1.238 . S
O165 Co159 2.052 . S
O165 C161 1.241 . S
O166 Co154 2.137 . S
O166 C157 1.247 . S
O167 Co154 2.244 . S
O167 C157 1.272 . S
O167 Co159 2.135 1_554 S
Co168 O169 2.216 . S
Co168 O170 2.091 . S
Co168 O172 2.004 . S
Co168 O178 2.021 . S
Co168 O180 2.137 . S
Co168 O181 2.244 . S
O169 Co168 2.216 . S
O169 C176 1.247 . S
O170 Co168 2.091 . S
O170 C176 1.261 . S
C171 O180 1.247 . S
C171 O181 1.272 . S
O172 Co168 2.004 . S
O172 C177 1.259 . S
Co173 O174 2.061 . S
Co173 O179 2.052 . S
Co173 O181 2.135 . S
O174 Co173 2.061 . S
O174 C177 1.235 . S
C175 O178 1.238 . S
C175 O179 1.241 . S
C176 O169 1.247 . S
C176 O170 1.261 . S
C177 O172 1.259 . S
C177 O174 1.235 . S
O178 Co168 2.021 . S
O178 C175 1.238 . S
O179 Co173 2.052 . S
O179 C175 1.241 . S
O180 Co168 2.137 . S
O180 C171 1.247 . S
O181 Co168 2.244 . S
O181 C171 1.272 . S
O181 Co173 2.135 . S
Co182 O183 2.216 . S
Co182 O184 2.091 . S
Co182 O186 2.004 . S
Co182 O192 2.021 . S
Co182 O194 2.137 . S
Co182 O195 2.244 . S
O183 Co182 2.216 . S
O183 C190 1.247 . S
O184 Co182 2.091 . S
O184 C190 1.261 . S
C185 O194 1.247 . S
C185 O195 1.272 . S
O186 Co182 2.004 . S
O186 C191 1.259 . S
Co187 O188 2.061 1_565 S
Co187 O193 2.052 1_565 S
Co187 O195 2.135 1_565 S
O188 Co187 2.061 1_545 S
O188 C191 1.235 . S
C189 O192 1.238 . S
C189 O193 1.241 . S
C190 O183 1.247 . S
C190 O184 1.261 . S
C191 O186 1.259 . S
C191 O188 1.235 . S
O192 Co182 2.021 . S
O192 C189 1.238 . S
O193 Co187 2.052 1_545 S
O193 C189 1.241 . S
O194 Co182 2.137 . S
O194 C185 1.247 . S
O195 Co182 2.244 . S
O195 C185 1.272 . S
O195 Co187 2.135 1_545 S
Co196 O197 2.216 . S
Co196 O198 2.091 . S
Co196 O200 2.004 . S
Co196 O206 2.021 . S
Co196 O208 2.137 . S
Co196 O209 2.244 . S
O197 Co196 2.216 . S
O197 C204 1.247 . S
O198 Co196 2.091 . S
O198 C204 1.261 . S
C199 O208 1.247 . S
C199 O209 1.272 . S
O200 Co196 2.004 . S
O200 C205 1.259 . S
Co201 O202 2.061 1_455 S
Co201 O207 2.052 1_455 S
Co201 O209 2.135 1_455 S
O202 Co201 2.061 1_655 S
O202 C205 1.235 . S
C203 O206 1.238 . S
C203 O207 1.241 . S
C204 O197 1.247 . S
C204 O198 1.261 . S
C205 O200 1.259 . S
C205 O202 1.235 . S
O206 Co196 2.021 . S
O206 C203 1.238 . S
O207 Co201 2.052 1_655 S
O207 C203 1.241 . S
O208 Co196 2.137 . S
O208 C199 1.247 . S
O209 Co196 2.244 . S
O209 C199 1.272 . S
O209 Co201 2.135 1_655 S
Co210 O211 2.216 . S
Co210 O212 2.091 . S
Co210 O214 2.004 . S
Co210 O220 2.021 . S
Co210 O222 2.137 . S
Co210 O223 2.244 . S
O211 Co210 2.216 . S
O211 C218 1.247 . S
O212 Co210 2.091 . S
O212 C218 1.261 . S
C213 O222 1.247 . S
C213 O223 1.272 . S
O214 Co210 2.004 . S
O214 C219 1.259 . S
Co215 O216 2.061 . S
Co215 O221 2.052 . S
Co215 O223 2.135 . S
O216 Co215 2.061 . S
O216 C219 1.235 . S
C217 O220 1.238 . S
C217 O221 1.241 . S
C218 O211 1.247 . S
C218 O212 1.261 . S
C219 O214 1.259 . S
C219 O216 1.235 . S
O220 Co210 2.021 . S
O220 C217 1.238 . S
O221 Co215 2.052 . S
O221 C217 1.241 . S
O222 Co210 2.137 . S
O222 C213 1.247 . S
O223 Co210 2.244 . S
O223 C213 1.272 . S
O223 Co215 2.135 . S
Co224 O225 2.216 . S
Co224 O226 2.091 . S
Co224 O228 2.004 . S
Co224 O234 2.021 . S
Co224 O236 2.137 . S
Co224 O237 2.244 . S
O225 Co224 2.216 . S
O225 C232 1.247 . S
O226 Co224 2.091 . S
O226 C232 1.261 . S
C227 O236 1.247 . S
C227 O237 1.272 . S
O228 Co224 2.004 . S
O228 C233 1.259 . S
Co229 O230 2.061 . S
Co229 O235 2.052 . S
Co229 O237 2.135 . S
O230 Co229 2.061 . S
O230 C233 1.235 . S
C231 O234 1.238 . S
C231 O235 1.241 . S
C232 O225 1.247 . S
C232 O226 1.261 . S
C233 O228 1.259 . S
C233 O230 1.235 . S
O234 Co224 2.021 . S
O234 C231 1.238 . S
O235 Co229 2.052 . S
O235 C231 1.241 . S
O236 Co224 2.137 . S
O236 C227 1.247 . S
O237 Co224 2.244 . S
O237 C227 1.272 . S
O237 Co229 2.135 . S
Co238 O239 2.216 . S
Co238 O240 2.091 . S
Co238 O242 2.004 . S
Co238 O248 2.021 . S
Co238 O250 2.137 . S
Co238 O251 2.244 . S
O239 Co238 2.216 . S
O239 C246 1.247 . S
O240 Co238 2.091 . S
O240 C246 1.261 . S
C241 O250 1.247 . S
C241 O251 1.272 . S
O242 Co238 2.004 . S
O242 C247 1.259 . S
Co243 O244 2.061 . S
Co243 O249 2.052 . S
Co243 O251 2.135 . S
O244 Co243 2.061 . S
O244 C247 1.235 . S
C245 O248 1.238 . S
C245 O249 1.241 . S
C246 O239 1.247 . S
C246 O240 1.261 . S
C247 O242 1.259 . S
C247 O244 1.235 . S
O248 Co238 2.021 . S
O248 C245 1.238 . S
O249 Co243 2.052 . S
O249 C245 1.241 . S
O250 Co238 2.137 . S
O250 C241 1.247 . S
O251 Co238 2.244 . S
O251 C241 1.272 . S
O251 Co243 2.135 . S
Co252 O253 2.216 . S
Co252 O254 2.091 . S
Co252 O256 2.004 . S
Co252 O262 2.021 . S
Co252 O264 2.137 . S
Co252 O265 2.244 . S
O253 Co252 2.216 . S
O253 C260 1.247 . S
O254 Co252 2.091 . S
O254 C260 1.261 . S
C255 O264 1.247 . S
C255 O265 1.272 . S
O256 Co252 2.004 . S
O256 C261 1.259 . S
Co257 O258 2.061 . S
Co257 O263 2.052 . S
Co257 O265 2.135 . S
O258 Co257 2.061 . S
O258 C261 1.235 . S
C259 O262 1.238 . S
C259 O263 1.241 . S
C260 O253 1.247 . S
C260 O254 1.261 . S
C261 O256 1.259 . S
C261 O258 1.235 . S
O262 Co252 2.021 . S
O262 C259 1.238 . S
O263 Co257 2.052 . S
O263 C259 1.241 . S
O264 Co252 2.137 . S
O264 C255 1.247 . S
O265 Co252 2.244 . S
O265 C255 1.272 . S
O265 Co257 2.135 . S
Co266 O267 2.216 . S
Co266 O268 2.091 . S
Co266 O270 2.004 . S
Co266 O276 2.021 . S
Co266 O278 2.137 . S
Co266 O279 2.244 . S
O267 Co266 2.216 . S
O267 C274 1.247 . S
O268 Co266 2.091 . S
O268 C274 1.261 . S
C269 O278 1.247 . S
C269 O279 1.272 . S
O270 Co266 2.004 . S
O270 C275 1.259 . S
Co271 O272 2.061 . S
Co271 O277 2.052 . S
Co271 O279 2.135 . S
O272 Co271 2.061 . S
O272 C275 1.235 . S
C273 O276 1.238 . S
C273 O277 1.241 . S
C274 O267 1.247 . S
C274 O268 1.261 . S
C275 O270 1.259 . S
C275 O272 1.235 . S
O276 Co266 2.021 . S
O276 C273 1.238 . S
O277 Co271 2.052 . S
O277 C273 1.241 . S
O278 Co266 2.137 . S
O278 C269 1.247 . S
O279 Co266 2.244 . S
O279 C269 1.272 . S
O279 Co271 2.135 . S
Co280 O281 2.216 . S
Co280 O282 2.091 . S
Co280 O284 2.004 . S
Co280 O290 2.021 . S
Co280 O292 2.137 . S
Co280 O293 2.244 . S
O281 Co280 2.216 . S
O281 C288 1.247 . S
O282 Co280 2.091 . S
O282 C288 1.261 . S
C283 O292 1.247 . S
C283 O293 1.272 . S
O284 Co280 2.004 . S
O284 C289 1.259 . S
Co285 O286 2.061 . S
Co285 O291 2.052 . S
Co285 O293 2.135 . S
O286 Co285 2.061 . S
O286 C289 1.235 . S
C287 O290 1.238 . S
C287 O291 1.241 . S
C288 O281 1.247 . S
C288 O282 1.261 . S
C289 O284 1.259 . S
C289 O286 1.235 . S
O290 Co280 2.021 . S
O290 C287 1.238 . S
O291 Co285 2.052 . S
O291 C287 1.241 . S
O292 Co280 2.137 . S
O292 C283 1.247 . S
O293 Co280 2.244 . S
O293 C283 1.272 . S
O293 Co285 2.135 . S
Co294 O295 2.216 . S
Co294 O296 2.091 . S
Co294 O298 2.004 . S
Co294 O304 2.021 . S
Co294 O306 2.137 . S
Co294 O307 2.244 . S
O295 Co294 2.216 . S
O295 C302 1.247 . S
O296 Co294 2.091 . S
O296 C302 1.261 . S
C297 O306 1.247 . S
C297 O307 1.272 . S
O298 Co294 2.004 . S
O298 C303 1.259 . S
Co299 O300 2.061 . S
Co299 O305 2.052 . S
Co299 O307 2.135 . S
O300 Co299 2.061 . S
O300 C303 1.235 . S
C301 O304 1.238 . S
C301 O305 1.241 . S
C302 O295 1.247 . S
C302 O296 1.261 . S
C303 O298 1.259 . S
C303 O300 1.235 . S
O304 Co294 2.021 . S
O304 C301 1.238 . S
O305 Co299 2.052 . S
O305 C301 1.241 . S
O306 Co294 2.137 . S
O306 C297 1.247 . S
O307 Co294 2.244 . S
O307 C297 1.272 . S
O307 Co299 2.135 . S
Co308 O309 2.216 . S
Co308 O310 2.091 . S
Co308 O312 2.004 . S
Co308 O318 2.021 . S
Co308 O320 2.137 . S
Co308 O321 2.244 . S
O309 Co308 2.216 . S
O309 C316 1.247 . S
O310 Co308 2.091 . S
O310 C316 1.261 . S
C311 O320 1.247 . S
C311 O321 1.272 . S
O312 Co308 2.004 . S
O312 C317 1.259 . S
Co313 O314 2.061 1_565 S
Co313 O319 2.052 1_565 S
Co313 O321 2.135 1_565 S
O314 Co313 2.061 1_545 S
O314 C317 1.235 . S
C315 O318 1.238 . S
C315 O319 1.241 . S
C316 O309 1.247 . S
C316 O310 1.261 . S
C317 O312 1.259 . S
C317 O314 1.235 . S
O318 Co308 2.021 . S
O318 C315 1.238 . S
O319 Co313 2.052 1_545 S
O319 C315 1.241 . S
O320 Co308 2.137 . S
O320 C311 1.247 . S
O321 Co308 2.244 . S
O321 C311 1.272 . S
O321 Co313 2.135 1_545 S
Co322 O323 2.216 . S
Co322 O324 2.091 . S
Co322 O326 2.004 . S
Co322 O332 2.021 . S
Co322 O334 2.137 . S
Co322 O335 2.244 . S
O323 Co322 2.216 . S
O323 C330 1.247 . S
O324 Co322 2.091 . S
O324 C330 1.261 . S
C325 O334 1.247 . S
C325 O335 1.272 . S
O326 Co322 2.004 . S
O326 C331 1.259 . S
Co327 O328 2.061 1_455 S
Co327 O333 2.052 1_455 S
Co327 O335 2.135 1_455 S
O328 Co327 2.061 1_655 S
O328 C331 1.235 . S
C329 O332 1.238 . S
C329 O333 1.241 . S
C330 O323 1.247 . S
C330 O324 1.261 . S
C331 O326 1.259 . S
C331 O328 1.235 . S
O332 Co322 2.021 . S
O332 C329 1.238 . S
O333 Co327 2.052 1_655 S
O333 C329 1.241 . S
O334 Co322 2.137 . S
O334 C325 1.247 . S
O335 Co322 2.244 . S
O335 C325 1.272 . S
O335 Co327 2.135 1_655 S
Co336 O337 2.216 . S
Co336 O338 2.091 . S
Co336 O340 2.004 . S
Co336 O346 2.021 . S
Co336 O348 2.137 . S
Co336 O349 2.244 . S
O337 Co336 2.216 . S
O337 C344 1.247 . S
O338 Co336 2.091 . S
O338 C344 1.261 . S
C339 O348 1.247 . S
C339 O349 1.272 . S
O340 Co336 2.004 . S
O340 C345 1.259 . S
Co341 O342 2.061 . S
Co341 O347 2.052 . S
Co341 O349 2.135 . S
O342 Co341 2.061 . S
O342 C345 1.235 . S
C343 O346 1.238 . S
C343 O347 1.241 . S
C344 O337 1.247 . S
C344 O338 1.261 . S
C345 O340 1.259 . S
C345 O342 1.235 . S
O346 Co336 2.021 . S
O346 C343 1.238 . S
O347 Co341 2.052 . S
O347 C343 1.241 . S
O348 Co336 2.137 . S
O348 C339 1.247 . S
O349 Co336 2.244 . S
O349 C339 1.272 . S
O349 Co341 2.135 . S
Co350 O351 2.216 . S
Co350 O352 2.091 . S
Co350 O354 2.004 . S
Co350 O360 2.021 . S
Co350 O362 2.137 . S
Co350 O363 2.244 . S
O351 Co350 2.216 . S
O351 C358 1.247 . S
O352 Co350 2.091 . S
O352 C358 1.261 . S
C353 O362 1.247 . S
C353 O363 1.272 . S
O354 Co350 2.004 . S
O354 C359 1.259 . S
Co355 O356 2.061 . S
Co355 O361 2.052 . S
Co355 O363 2.135 . S
O356 Co355 2.061 . S
O356 C359 1.235 . S
C357 O360 1.238 . S
C357 O361 1.241 . S
C358 O351 1.247 . S
C358 O352 1.261 . S
C359 O354 1.259 . S
C359 O356 1.235 . S
O360 Co350 2.021 . S
O360 C357 1.238 . S
O361 Co355 2.052 . S
O361 C357 1.241 . S
O362 Co350 2.137 . S
O362 C353 1.247 . S
O363 Co350 2.244 . S
O363 C353 1.272 . S
O363 Co355 2.135 . S
Co364 O365 2.216 . S
Co364 O366 2.091 . S
Co364 O368 2.004 . S
Co364 O374 2.021 . S
Co364 O376 2.137 . S
Co364 O377 2.244 . S
O365 Co364 2.216 . S
O365 C372 1.247 . S
O366 Co364 2.091 . S
O366 C372 1.261 . S
C367 O376 1.247 . S
C367 O377 1.272 . S
O368 Co364 2.004 . S
O368 C373 1.259 . S
Co369 O370 2.061 . S
Co369 O375 2.052 . S
Co369 O377 2.135 . S
O370 Co369 2.061 . S
O370 C373 1.235 . S
C371 O374 1.238 . S
C371 O375 1.241 . S
C372 O365 1.247 . S
C372 O366 1.261 . S
C373 O368 1.259 . S
C373 O370 1.235 . S
O374 Co364 2.021 . S
O374 C371 1.238 . S
O375 Co369 2.052 . S
O375 C371 1.241 . S
O376 Co364 2.137 . S
O376 C367 1.247 . S
O377 Co364 2.244 . S
O377 C367 1.272 . S
O377 Co369 2.135 . S
Co378 O379 2.216 . S
Co378 O380 2.091 . S
Co378 O382 2.004 . S
Co378 O388 2.021 . S
Co378 O390 2.137 . S
Co378 O391 2.244 . S
O379 Co378 2.216 . S
O379 C386 1.247 . S
O380 Co378 2.091 . S
O380 C386 1.261 . S
C381 O390 1.247 . S
C381 O391 1.272 . S
O382 Co378 2.004 . S
O382 C387 1.259 . S
Co383 O384 2.061 . S
Co383 O389 2.052 . S
Co383 O391 2.135 . S
O384 Co383 2.061 . S
O384 C387 1.235 . S
C385 O388 1.238 . S
C385 O389 1.241 . S
C386 O379 1.247 . S
C386 O380 1.261 . S
C387 O382 1.259 . S
C387 O384 1.235 . S
O388 Co378 2.021 . S
O388 C385 1.238 . S
O389 Co383 2.052 . S
O389 C385 1.241 . S
O390 Co378 2.137 . S
O390 C381 1.247 . S
O391 Co378 2.244 . S
O391 C381 1.272 . S
O391 Co383 2.135 . S
Co392 O393 2.216 . S
Co392 O394 2.091 . S
Co392 O396 2.004 . S
Co392 O402 2.021 . S
Co392 O404 2.137 . S
Co392 O405 2.244 . S
O393 Co392 2.216 . S
O393 C400 1.247 . S
O394 Co392 2.091 . S
O394 C400 1.261 . S
C395 O404 1.247 . S
C395 O405 1.272 . S
O396 Co392 2.004 . S
O396 C401 1.259 . S
Co397 O398 2.061 1_545 S
Co397 O403 2.052 1_545 S
Co397 O405 2.135 1_545 S
O398 Co397 2.061 1_565 S
O398 C401 1.235 . S
C399 O402 1.238 . S
C399 O403 1.241 . S
C400 O393 1.247 . S
C400 O394 1.261 . S
C401 O396 1.259 . S
C401 O398 1.235 . S
O402 Co392 2.021 . S
O402 C399 1.238 . S
O403 Co397 2.052 1_565 S
O403 C399 1.241 . S
O404 Co392 2.137 . S
O404 C395 1.247 . S
O405 Co392 2.244 . S
O405 C395 1.272 . S
O405 Co397 2.135 1_565 S
Co406 O407 2.216 . S
Co406 O408 2.091 . S
Co406 O410 2.004 . S
Co406 O416 2.021 . S
Co406 O418 2.137 . S
Co406 O419 2.244 . S
O407 Co406 2.216 . S
O407 C414 1.247 . S
O408 Co406 2.091 . S
O408 C414 1.261 . S
C409 O418 1.247 . S
C409 O419 1.272 . S
O410 Co406 2.004 . S
O410 C415 1.259 . S
Co411 O412 2.061 1_655 S
Co411 O417 2.052 1_655 S
Co411 O419 2.135 1_655 S
O412 Co411 2.061 1_455 S
O412 C415 1.235 . S
C413 O416 1.238 . S
C413 O417 1.241 . S
C414 O407 1.247 . S
C414 O408 1.261 . S
C415 O410 1.259 . S
C415 O412 1.235 . S
O416 Co406 2.021 . S
O416 C413 1.238 . S
O417 Co411 2.052 1_455 S
O417 C413 1.241 . S
O418 Co406 2.137 . S
O418 C409 1.247 . S
O419 Co406 2.244 . S
O419 C409 1.272 . S
O419 Co411 2.135 1_455 S
Co420 O421 2.216 . S
Co420 O422 2.091 . S
Co420 O424 2.004 . S
Co420 O430 2.021 . S
Co420 O432 2.137 . S
Co420 O433 2.244 . S
O421 Co420 2.216 . S
O421 C428 1.247 . S
O422 Co420 2.091 . S
O422 C428 1.261 . S
C423 O432 1.247 . S
C423 O433 1.272 . S
O424 Co420 2.004 . S
O424 C429 1.259 . S
Co425 O426 2.061 . S
Co425 O431 2.052 . S
Co425 O433 2.135 . S
O426 Co425 2.061 . S
O426 C429 1.235 . S
C427 O430 1.238 . S
C427 O431 1.241 . S
C428 O421 1.247 . S
C428 O422 1.261 . S
C429 O424 1.259 . S
C429 O426 1.235 . S
O430 Co420 2.021 . S
O430 C427 1.238 . S
O431 Co425 2.052 . S
O431 C427 1.241 . S
O432 Co420 2.137 . S
O432 C423 1.247 . S
O433 Co420 2.244 . S
O433 C423 1.272 . S
O433 Co425 2.135 . S
Co434 O435 2.216 . S
Co434 O436 2.091 . S
Co434 O438 2.004 . S
Co434 O444 2.021 . S
Co434 O446 2.137 . S
Co434 O447 2.244 . S
O435 Co434 2.216 . S
O435 C442 1.247 . S
O436 Co434 2.091 . S
O436 C442 1.261 . S
C437 O446 1.247 . S
C437 O447 1.272 . S
O438 Co434 2.004 . S
O438 C443 1.259 . S
Co439 O440 2.061 1_545 S
Co439 O445 2.052 1_545 S
Co439 O447 2.135 1_545 S
O440 Co439 2.061 1_565 S
O440 C443 1.235 . S
C441 O444 1.238 . S
C441 O445 1.241 . S
C442 O435 1.247 . S
C442 O436 1.261 . S
C443 O438 1.259 . S
C443 O440 1.235 . S
O444 Co434 2.021 . S
O444 C441 1.238 . S
O445 Co439 2.052 1_565 S
O445 C441 1.241 . S
O446 Co434 2.137 . S
O446 C437 1.247 . S
O447 Co434 2.244 . S
O447 C437 1.272 . S
O447 Co439 2.135 1_565 S
Co448 O449 2.216 . S
Co448 O450 2.091 . S
Co448 O452 2.004 . S
Co448 O458 2.021 . S
Co448 O460 2.137 . S
Co448 O461 2.244 . S
O449 Co448 2.216 . S
O449 C456 1.247 . S
O450 Co448 2.091 . S
O450 C456 1.261 . S
C451 O460 1.247 . S
C451 O461 1.272 . S
O452 Co448 2.004 . S
O452 C457 1.259 . S
Co453 O454 2.061 1_655 S
Co453 O459 2.052 1_655 S
Co453 O461 2.135 1_655 S
O454 Co453 2.061 1_455 S
O454 C457 1.235 . S
C455 O458 1.238 . S
C455 O459 1.241 . S
C456 O449 1.247 . S
C456 O450 1.261 . S
C457 O452 1.259 . S
C457 O454 1.235 . S
O458 Co448 2.021 . S
O458 C455 1.238 . S
O459 Co453 2.052 1_455 S
O459 C455 1.241 . S
O460 Co448 2.137 . S
O460 C451 1.247 . S
O461 Co448 2.244 . S
O461 C451 1.272 . S
O461 Co453 2.135 1_455 S
Co462 O463 2.216 . S
Co462 O464 2.091 . S
Co462 O466 2.004 . S
Co462 O472 2.021 . S
Co462 O474 2.137 . S
Co462 O475 2.244 . S
O463 Co462 2.216 . S
O463 C470 1.247 . S
O464 Co462 2.091 . S
O464 C470 1.261 . S
C465 O474 1.247 . S
C465 O475 1.272 . S
O466 Co462 2.004 . S
O466 C471 1.259 . S
Co467 O468 2.061 . S
Co467 O473 2.052 . S
Co467 O475 2.135 . S
O468 Co467 2.061 . S
O468 C471 1.235 . S
C469 O472 1.238 . S
C469 O473 1.241 . S
C470 O463 1.247 . S
C470 O464 1.261 . S
C471 O466 1.259 . S
C471 O468 1.235 . S
O472 Co462 2.021 . S
O472 C469 1.238 . S
O473 Co467 2.052 . S
O473 C469 1.241 . S
O474 Co462 2.137 . S
O474 C465 1.247 . S
O475 Co462 2.244 . S
O475 C465 1.272 . S
O475 Co467 2.135 . S
Co476 O477 2.216 . S
Co476 O478 2.091 . S
Co476 O480 2.004 . S
Co476 O486 2.021 . S
Co476 O488 2.137 . S
Co476 O489 2.244 . S
O477 Co476 2.216 . S
O477 C484 1.247 . S
O478 Co476 2.091 . S
O478 C484 1.261 . S
C479 O488 1.247 . S
C479 O489 1.272 . S
O480 Co476 2.004 . S
O480 C485 1.259 . S
Co481 O482 2.061 . S
Co481 O487 2.052 . S
Co481 O489 2.135 . S
O482 Co481 2.061 . S
O482 C485 1.235 . S
C483 O486 1.238 . S
C483 O487 1.241 . S
C484 O477 1.247 . S
C484 O478 1.261 . S
C485 O480 1.259 . S
C485 O482 1.235 . S
O486 Co476 2.021 . S
O486 C483 1.238 . S
O487 Co481 2.052 . S
O487 C483 1.241 . S
O488 Co476 2.137 . S
O488 C479 1.247 . S
O489 Co476 2.244 . S
O489 C479 1.272 . S
O489 Co481 2.135 . S
Co490 O491 2.216 . S
Co490 O492 2.091 . S
Co490 O494 2.004 . S
Co490 O500 2.021 . S
Co490 O502 2.137 . S
Co490 O503 2.244 . S
O491 Co490 2.216 . S
O491 C498 1.247 . S
O492 Co490 2.091 . S
O492 C498 1.261 . S
C493 O502 1.247 . S
C493 O503 1.272 . S
O494 Co490 2.004 . S
O494 C499 1.259 . S
Co495 O496 2.061 . S
Co495 O501 2.052 . S
Co495 O503 2.135 . S
O496 Co495 2.061 . S
O496 C499 1.235 . S
C497 O500 1.238 . S
C497 O501 1.241 . S
C498 O491 1.247 . S
C498 O492 1.261 . S
C499 O494 1.259 . S
C499 O496 1.235 . S
O500 Co490 2.021 . S
O500 C497 1.238 . S
O501 Co495 2.052 . S
O501 C497 1.241 . S
O502 Co490 2.137 . S
O502 C493 1.247 . S
O503 Co490 2.244 . S
O503 C493 1.272 . S
O503 Co495 2.135 . S
H504 C522 0.951 . S
H505 C524 0.951 . S
H506 C526 0.950 . S
H507 C527 0.950 1_554 S
H508 C529 0.950 . S
H509 C532 0.950 . S
H510 C533 0.950 . S
H511 C535 0.950 . S
H512 C536 0.948 1_455 S
H513 C537 0.951 . S
H514 C539 0.951 . S
H515 C541 0.950 . S
H516 C542 0.950 1_556 S
H517 C544 0.950 . S
H518 C547 0.950 . S
H519 C548 0.950 . S
H520 C550 0.950 . S
H521 C551 0.948 1_655 S
C522 H504 0.951 . S
C522 C523 1.366 . S
C522 C524 1.388 . S
C523 C522 1.366 . S
C523 C527 1.385 . S
C524 H505 0.951 . S
C524 C522 1.388 . S
C524 C525 1.366 . S
C525 C524 1.366 . S
C525 C526 1.414 1_556 S
C525 C528 1.499 . S
C526 H506 0.950 . S
C526 C525 1.414 1_554 S
C526 C527 1.374 1_554 S
C527 H507 0.950 1_556 S
C527 C523 1.385 . S
C527 C526 1.374 1_556 S
C528 C525 1.499 . S
C528 C529 1.373 1_556 S
C528 C530 1.389 . S
C529 H508 0.950 . S
C529 C528 1.373 1_554 S
C529 C545 1.377 1_655 S
C530 C528 1.389 . S
C530 C531 1.524 . S
C530 C544 1.377 1_655 S
C531 C530 1.524 . S
C531 C532 1.397 . S
C531 C536 1.363 . S
C532 H509 0.950 . S
C532 C531 1.397 . S
C532 C533 1.334 . S
C533 H510 0.950 . S
C533 C532 1.334 . S
C533 C534 1.287 . S
C534 C533 1.287 . S
C534 C535 1.524 . S
C534 H553 0.913 . S
C535 H511 0.950 . S
C535 C534 1.524 . S
C535 C536 1.415 . S
C536 H512 0.948 1_655 S
C536 C531 1.363 . S
C536 C535 1.415 . S
C537 H513 0.951 . S
C537 C538 1.366 . S
C537 C539 1.388 . S
C538 C537 1.366 . S
C538 C542 1.385 . S
C539 H514 0.951 . S
C539 C537 1.388 . S
C539 C540 1.366 . S
C540 C539 1.366 . S
C540 C541 1.414 1_554 S
C540 C543 1.499 . S
C541 H515 0.950 . S
C541 C540 1.414 1_556 S
C541 C542 1.374 1_556 S
C542 H516 0.950 1_554 S
C542 C538 1.385 . S
C542 C541 1.374 1_554 S
C543 C540 1.499 . S
C543 C544 1.373 1_554 S
C543 C545 1.389 . S
C544 H517 0.950 . S
C544 C530 1.377 1_455 S
C544 C543 1.373 1_556 S
C545 C529 1.377 1_455 S
C545 C543 1.389 . S
C545 C546 1.524 . S
C546 C545 1.524 . S
C546 C547 1.397 . S
C546 C551 1.363 . S
C547 H518 0.950 . S
C547 C546 1.397 . S
C547 C548 1.334 . S
C548 H519 0.950 . S
C548 C547 1.334 . S
C548 C549 1.287 . S
C549 C548 1.287 . S
C549 C550 1.524 . S
C549 H552 0.999 . S
C550 H520 0.950 . S
C550 C549 1.524 . S
C550 C551 1.415 . S
C551 H521 0.948 1_455 S
C551 C546 1.363 . S
C551 C550 1.415 . S
H552 C549 0.999 . S
H553 C534 0.913 . S
H554 C572 0.951 . S
H555 C574 0.951 . S
H556 C576 0.950 . S
H557 C577 0.949 . S
H558 C579 0.950 . S
H559 C582 0.950 . S
H560 C583 0.950 . S
H561 C585 0.950 . S
H562 C586 0.950 . S
H563 C587 0.951 . S
H564 C589 0.951 . S
H565 C591 0.950 . S
H566 C592 0.953 . S
H567 C594 0.950 . S
H568 C597 0.950 . S
H569 C598 0.950 . S
H570 C600 0.950 . S
H571 C601 0.950 . S
C572 H554 0.951 . S
C572 C573 1.366 . S
C572 C574 1.388 . S
C573 C572 1.366 . S
C573 C577 1.386 1_556 S
C574 H555 0.951 . S
C574 C572 1.388 . S
C574 C575 1.366 . S
C575 C574 1.366 . S
C575 C576 1.414 1_556 S
C575 C578 1.499 . S
C576 H556 0.950 . S
C576 C575 1.414 1_554 S
C576 C577 1.374 . S
C577 H557 0.949 . S
C577 C573 1.386 1_554 S
C577 C576 1.374 . S
C578 C575 1.499 . S
C578 C579 1.373 1_556 S
C578 C580 1.389 . S
C579 H558 0.950 . S
C579 C578 1.373 1_554 S
C579 C595 1.377 . S
C580 C578 1.389 . S
C580 C581 1.524 . S
C580 C594 1.377 . S
C581 C580 1.524 . S
C581 C582 1.397 . S
C581 C586 1.363 . S
C582 H559 0.950 . S
C582 C581 1.397 . S
C582 C583 1.334 . S
C583 H560 0.950 . S
C583 C582 1.334 . S
C583 C584 1.287 . S
C584 C583 1.287 . S
C584 C585 1.524 . S
C584 H603 0.913 . S
C585 H561 0.950 . S
C585 C584 1.524 . S
C585 C586 1.415 . S
C586 H562 0.950 . S
C586 C581 1.363 . S
C586 C585 1.415 . S
C587 H563 0.951 . S
C587 C588 1.366 . S
C587 C589 1.388 . S
C588 C587 1.366 . S
C588 C592 1.381 1_554 S
C589 H564 0.951 . S
C589 C587 1.388 . S
C589 C590 1.366 . S
C590 C589 1.366 . S
C590 C591 1.414 1_554 S
C590 C593 1.499 . S
C591 H565 0.950 . S
C591 C590 1.414 1_556 S
C591 C592 1.375 . S
C592 H566 0.953 . S
C592 C588 1.381 1_556 S
C592 C591 1.375 . S
C593 C590 1.499 . S
C593 C594 1.373 1_554 S
C593 C595 1.389 . S
C594 H567 0.950 . S
C594 C580 1.377 . S
C594 C593 1.373 1_556 S
C595 C579 1.377 . S
C595 C593 1.389 . S
C595 C596 1.524 . S
C596 C595 1.524 . S
C596 C597 1.397 . S
C596 C601 1.363 . S
C597 H568 0.950 . S
C597 C596 1.397 . S
C597 C598 1.334 . S
C598 H569 0.950 . S
C598 C597 1.334 . S
C598 C599 1.287 . S
C599 C598 1.287 . S
C599 C600 1.524 . S
C599 H602 0.999 . S
C600 H570 0.950 . S
C600 C599 1.524 . S
C600 C601 1.415 . S
C601 H571 0.950 . S
C601 C596 1.363 . S
C601 C600 1.415 . S
H602 C599 0.999 . S
H603 C584 0.913 . S
H604 C622 0.951 . S
H605 C624 0.951 1_554 S
H606 C626 0.950 . S
H607 C627 0.950 . S
H608 C629 0.950 . S
H609 C632 0.950 . S
H610 C633 0.950 . S
H611 C635 0.950 . S
H612 C636 0.950 . S
H613 C637 0.951 . S
H614 C639 0.951 1_556 S
H615 C641 0.950 . S
H616 C642 0.950 . S
H617 C644 0.950 . S
H618 C647 0.950 . S
H619 C648 0.950 . S
H620 C650 0.950 . S
H621 C651 0.950 . S
C622 H604 0.951 . S
C622 C623 1.366 . S
C622 C624 1.388 . S
C623 C622 1.366 . S
C623 C627 1.385 . S
C624 H605 0.951 1_556 S
C624 C622 1.388 . S
C624 C625 1.366 . S
C625 C624 1.366 . S
C625 C626 1.414 . S
C625 C628 1.499 . S
C626 H606 0.950 . S
C626 C625 1.414 . S
C626 C627 1.374 . S
C627 H607 0.950 . S
C627 C623 1.385 . S
C627 C626 1.374 . S
C628 C625 1.499 . S
C628 C629 1.373 1_556 S
C628 C630 1.389 . S
C629 H608 0.950 . S
C629 C628 1.373 1_554 S
C629 C645 1.377 1_545 S
C630 C628 1.389 . S
C630 C631 1.524 . S
C630 C644 1.377 1_545 S
C631 C630 1.524 . S
C631 C632 1.397 . S
C631 C636 1.363 . S
C632 H609 0.950 . S
C632 C631 1.397 . S
C632 C633 1.334 . S
C633 H610 0.950 . S
C633 C632 1.334 . S
C633 C634 1.287 . S
C634 C633 1.287 . S
C634 C635 1.524 . S
C634 H653 0.913 . S
C635 H611 0.950 . S
C635 C634 1.524 . S
C635 C636 1.415 . S
C636 H612 0.950 . S
C636 C631 1.363 . S
C636 C635 1.415 . S
C637 H613 0.951 . S
C637 C638 1.366 . S
C637 C639 1.388 . S
C638 C637 1.366 . S
C638 C642 1.385 . S
C639 H614 0.951 1_554 S
C639 C637 1.388 . S
C639 C640 1.366 . S
C640 C639 1.366 . S
C640 C641 1.414 . S
C640 C643 1.499 . S
C641 H615 0.950 . S
C641 C640 1.414 . S
C641 C642 1.374 . S
C642 H616 0.950 . S
C642 C638 1.385 . S
C642 C641 1.374 . S
C643 C640 1.499 . S
C643 C644 1.373 1_554 S
C643 C645 1.389 . S
C644 H617 0.950 . S
C644 C630 1.377 1_565 S
C644 C643 1.373 1_556 S
C645 C629 1.377 1_565 S
C645 C643 1.389 . S
C645 C646 1.524 . S
C646 C645 1.524 . S
C646 C647 1.397 . S
C646 C651 1.363 . S
C647 H618 0.950 . S
C647 C646 1.397 . S
C647 C648 1.334 . S
C648 H619 0.950 . S
C648 C647 1.334 . S
C648 C649 1.287 . S
C649 C648 1.287 . S
C649 C650 1.524 . S
C649 H652 0.999 . S
C650 H620 0.950 . S
C650 C649 1.524 . S
C650 C651 1.415 . S
C651 H621 0.950 . S
C651 C646 1.363 . S
C651 C650 1.415 . S
H652 C649 0.999 . S
H653 C634 0.913 . S
H654 C672 0.951 . S
H655 C674 0.951 . S
H656 C676 0.950 . S
H657 C677 0.950 1_556 S
H658 C679 0.950 . S
H659 C682 0.950 . S
H660 C683 0.950 . S
H661 C685 0.950 . S
H662 C686 0.950 . S
H663 C687 0.951 . S
H664 C689 0.951 . S
H665 C691 0.950 . S
H666 C692 0.950 1_554 S
H667 C694 0.950 . S
H668 C697 0.950 . S
H669 C698 0.950 . S
H670 C700 0.950 . S
H671 C701 0.950 . S
C672 H654 0.951 . S
C672 C673 1.366 . S
C672 C674 1.388 . S
C673 C672 1.366 . S
C673 C677 1.385 . S
C674 H655 0.951 . S
C674 C672 1.388 . S
C674 C675 1.366 . S
C675 C674 1.366 . S
C675 C676 1.414 1_554 S
C675 C678 1.499 . S
C676 H656 0.950 . S
C676 C675 1.414 1_556 S
C676 C677 1.374 1_556 S
C677 H657 0.950 1_554 S
C677 C673 1.385 . S
C677 C676 1.374 1_554 S
C678 C675 1.499 . S
C678 C679 1.373 . S
C678 C680 1.389 1_554 S
C679 H658 0.950 . S
C679 C678 1.373 . S
C679 C695 1.377 1_455 S
C680 C678 1.389 1_556 S
C680 C681 1.524 . S
C680 C694 1.377 1_455 S
C681 C680 1.524 . S
C681 C682 1.397 . S
C681 C686 1.363 . S
C682 H659 0.950 . S
C682 C681 1.397 . S
C682 C683 1.334 . S
C683 H660 0.950 . S
C683 C682 1.334 . S
C683 C684 1.287 . S
C684 C683 1.287 . S
C684 C685 1.524 . S
C684 H703 0.913 . S
C685 H661 0.950 . S
C685 C684 1.524 . S
C685 C686 1.415 . S
C686 H662 0.950 . S
C686 C681 1.363 . S
C686 C685 1.415 . S
C687 H663 0.951 . S
C687 C688 1.366 . S
C687 C689 1.388 . S
C688 C687 1.366 . S
C688 C692 1.385 . S
C689 H664 0.951 . S
C689 C687 1.388 . S
C689 C690 1.366 . S
C690 C689 1.366 . S
C690 C691 1.414 1_556 S
C690 C693 1.499 . S
C691 H665 0.950 . S
C691 C690 1.414 1_554 S
C691 C692 1.374 1_554 S
C692 H666 0.950 1_556 S
C692 C688 1.385 . S
C692 C691 1.374 1_556 S
C693 C690 1.499 . S
C693 C694 1.373 . S
C693 C695 1.389 1_556 S
C694 H667 0.950 . S
C694 C680 1.377 1_655 S
C694 C693 1.373 . S
C695 C679 1.377 1_655 S
C695 C693 1.389 1_554 S
C695 C696 1.524 . S
C696 C695 1.524 . S
C696 C697 1.397 . S
C696 C701 1.363 . S
C697 H668 0.950 . S
C697 C696 1.397 . S
C697 C698 1.334 . S
C698 H669 0.950 . S
C698 C697 1.334 . S
C698 C699 1.287 . S
C699 C698 1.287 . S
C699 C700 1.524 . S
C699 H702 0.999 . S
C700 H670 0.950 . S
C700 C699 1.524 . S
C700 C701 1.415 . S
C701 H671 0.950 . S
C701 C696 1.363 . S
C701 C700 1.415 . S
H702 C699 0.999 . S
H703 C684 0.913 . S
H704 C722 0.951 . S
H705 C724 0.951 . S
H706 C726 0.950 . S
H707 C727 0.950 . S
H708 C729 0.950 . S
H709 C732 0.935 1_556 S
H710 C733 0.950 . S
H711 C735 0.950 . S
H712 C736 0.950 . S
H713 C737 0.951 . S
H714 C739 0.951 . S
H715 C741 0.950 . S
H716 C742 0.950 . S
H717 C744 0.950 . S
H718 C747 0.944 1_554 S
H719 C748 0.950 . S
H720 C750 0.950 . S
H721 C751 0.950 . S
C722 H704 0.951 . S
C722 C723 1.366 1_554 S
C722 C724 1.388 . S
C723 C722 1.366 1_556 S
C723 C727 1.385 . S
C724 H705 0.951 . S
C724 C722 1.388 . S
C724 C725 1.366 1_554 S
C725 C724 1.366 1_556 S
C725 C726 1.414 . S
C725 C728 1.499 . S
C726 H706 0.950 . S
C726 C725 1.414 . S
C726 C727 1.374 . S
C727 H707 0.950 . S
C727 C723 1.385 . S
C727 C726 1.374 . S
C728 C725 1.499 . S
C728 C729 1.373 . S
C728 C730 1.389 1_556 S
C729 H708 0.950 . S
C729 C728 1.373 . S
C729 C745 1.377 . S
C730 C728 1.389 1_554 S
C730 C731 1.524 . S
C730 C744 1.377 . S
C731 C730 1.524 . S
C731 C732 1.397 . S
C731 C736 1.363 . S
C732 H709 0.935 1_554 S
C732 C731 1.397 . S
C732 C733 1.334 . S
C733 H710 0.950 . S
C733 C732 1.334 . S
C733 C734 1.287 . S
C734 C733 1.287 . S
C734 C735 1.524 . S
C734 H753 0.913 . S
C735 H711 0.950 . S
C735 C734 1.524 . S
C735 C736 1.415 . S
C736 H712 0.950 . S
C736 C731 1.363 . S
C736 C735 1.415 . S
C737 H713 0.951 . S
C737 C738 1.366 1_556 S
C737 C739 1.388 . S
C738 C737 1.366 1_554 S
C738 C742 1.385 . S
C739 H714 0.951 . S
C739 C737 1.388 . S
C739 C740 1.366 1_556 S
C740 C739 1.366 1_554 S
C740 C741 1.414 . S
C740 C743 1.499 . S
C741 H715 0.950 . S
C741 C740 1.414 . S
C741 C742 1.374 . S
C742 H716 0.950 . S
C742 C738 1.385 . S
C742 C741 1.374 . S
C743 C740 1.499 . S
C743 C744 1.373 . S
C743 C745 1.389 1_554 S
C744 H717 0.950 . S
C744 C730 1.377 . S
C744 C743 1.373 . S
C745 C729 1.377 . S
C745 C743 1.389 1_556 S
C745 C746 1.524 . S
C746 C745 1.524 . S
C746 C747 1.397 . S
C746 C751 1.363 . S
C747 H718 0.944 1_556 S
C747 C746 1.397 . S
C747 C748 1.334 . S
C748 H719 0.950 . S
C748 C747 1.334 . S
C748 C749 1.287 . S
C749 C748 1.287 . S
C749 C750 1.524 . S
C749 H752 0.999 . S
C750 H720 0.950 . S
C750 C749 1.524 . S
C750 C751 1.415 . S
C751 H721 0.950 . S
C751 C746 1.363 . S
C751 C750 1.415 . S
H752 C749 0.999 . S
H753 C734 0.913 . S
H754 C772 0.951 . S
H755 C774 0.951 . S
H756 C776 0.950 . S
H757 C777 0.950 . S
H758 C779 0.950 . S
H759 C782 0.950 . S
H760 C783 0.950 . S
H761 C785 0.950 . S
H762 C786 0.950 . S
H763 C787 0.951 . S
H764 C789 0.951 . S
H765 C791 0.950 . S
H766 C792 0.950 . S
H767 C794 0.950 . S
H768 C797 0.950 . S
H769 C798 0.950 . S
H770 C800 0.950 . S
H771 C801 0.950 . S
C772 H754 0.951 . S
C772 C773 1.366 1_556 S
C772 C774 1.388 . S
C773 C772 1.366 1_554 S
C773 C777 1.385 . S
C774 H755 0.951 . S
C774 C772 1.388 . S
C774 C775 1.366 1_556 S
C775 C774 1.366 1_554 S
C775 C776 1.414 . S
C775 C778 1.499 . S
C776 H756 0.950 . S
C776 C775 1.414 . S
C776 C777 1.374 . S
C777 H757 0.950 . S
C777 C773 1.385 . S
C777 C776 1.374 . S
C778 C775 1.499 . S
C778 C779 1.373 . S
C778 C780 1.389 1_554 S
C779 H758 0.950 . S
C779 C778 1.373 . S
C779 C795 1.377 1_565 S
C780 C778 1.389 1_556 S
C780 C781 1.524 . S
C780 C794 1.377 1_565 S
C781 C780 1.524 . S
C781 C782 1.397 . S
C781 C786 1.363 . S
C782 H759 0.950 . S
C782 C781 1.397 . S
C782 C783 1.334 . S
C783 H760 0.950 . S
C783 C782 1.334 . S
C783 C784 1.287 . S
C784 C783 1.287 . S
C784 C785 1.524 . S
C784 H803 0.913 . S
C785 H761 0.950 . S
C785 C784 1.524 . S
C785 C786 1.415 . S
C786 H762 0.950 . S
C786 C781 1.363 . S
C786 C785 1.415 . S
C787 H763 0.951 . S
C787 C788 1.366 1_554 S
C787 C789 1.388 . S
C788 C787 1.366 1_556 S
C788 C792 1.385 . S
C789 H764 0.951 . S
C789 C787 1.388 . S
C789 C790 1.366 1_554 S
C790 C789 1.366 1_556 S
C790 C791 1.414 . S
C790 C793 1.499 . S
C791 H765 0.950 . S
C791 C790 1.414 . S
C791 C792 1.374 . S
C792 H766 0.950 . S
C792 C788 1.385 . S
C792 C791 1.374 . S
C793 C790 1.499 . S
C793 C794 1.373 . S
C793 C795 1.389 1_556 S
C794 H767 0.950 . S
C794 C780 1.377 1_545 S
C794 C793 1.373 . S
C795 C779 1.377 1_545 S
C795 C793 1.389 1_554 S
C795 C796 1.524 . S
C796 C795 1.524 . S
C796 C797 1.397 . S
C796 C801 1.363 . S
C797 H768 0.950 . S
C797 C796 1.397 . S
C797 C798 1.334 . S
C798 H769 0.950 . S
C798 C797 1.334 . S
C798 C799 1.287 . S
C799 C798 1.287 . S
C799 C800 1.524 . S
C799 H802 0.999 . S
C800 H770 0.950 . S
C800 C799 1.524 . S
C800 C801 1.415 . S
C801 H771 0.950 . S
C801 C796 1.363 . S
C801 C800 1.415 . S
H802 C799 0.999 . S
H803 C784 0.913 . S
H804 C822 0.951 . S
H805 C824 0.951 . S
H806 C826 0.950 . S
H807 C827 0.950 . S
H808 C829 0.950 . S
H809 C832 0.950 . S
H810 C833 0.950 . S
H811 C835 0.950 . S
H812 C836 0.950 . S
H813 C837 0.951 . S
H814 C839 0.951 . S
H815 C841 0.950 . S
H816 C842 0.950 . S
H817 C844 0.950 . S
H818 C847 0.950 . S
H819 C848 0.950 . S
H820 C850 0.950 . S
H821 C851 0.950 . S
C822 H804 0.951 . S
C822 C823 1.366 . S
C822 C824 1.388 . S
C823 C822 1.366 . S
C823 C827 1.385 . S
C824 H805 0.951 . S
C824 C822 1.388 . S
C824 C825 1.366 . S
C825 C824 1.366 . S
C825 C826 1.414 . S
C825 C828 1.499 . S
C826 H806 0.950 . S
C826 C825 1.414 . S
C826 C827 1.374 . S
C827 H807 0.950 . S
C827 C823 1.385 . S
C827 C826 1.374 . S
C828 C825 1.499 . S
C828 C829 1.373 . S
C828 C830 1.389 . S
C829 H808 0.950 . S
C829 C828 1.373 . S
C829 C845 1.377 . S
C830 C828 1.389 . S
C830 C831 1.524 . S
C830 C844 1.377 . S
C831 C830 1.524 . S
C831 C832 1.397 . S
C831 C836 1.363 . S
C832 H809 0.950 . S
C832 C831 1.397 . S
C832 C833 1.334 . S
C833 H810 0.950 . S
C833 C832 1.334 . S
C833 C834 1.287 . S
C834 C833 1.287 . S
C834 C835 1.524 . S
C834 H853 0.913 . S
C835 H811 0.950 . S
C835 C834 1.524 . S
C835 C836 1.415 . S
C836 H812 0.950 . S
C836 C831 1.363 . S
C836 C835 1.415 . S
C837 H813 0.951 . S
C837 C838 1.366 . S
C837 C839 1.388 . S
C838 C837 1.366 . S
C838 C842 1.385 . S
C839 H814 0.951 . S
C839 C837 1.388 . S
C839 C840 1.366 . S
C840 C839 1.366 . S
C840 C841 1.414 . S
C840 C843 1.499 . S
C841 H815 0.950 . S
C841 C840 1.414 . S
C841 C842 1.374 . S
C842 H816 0.950 . S
C842 C838 1.385 . S
C842 C841 1.374 . S
C843 C840 1.499 . S
C843 C844 1.373 . S
C843 C845 1.389 . S
C844 H817 0.950 . S
C844 C830 1.377 . S
C844 C843 1.373 . S
C845 C829 1.377 . S
C845 C843 1.389 . S
C845 C846 1.524 . S
C846 C845 1.524 . S
C846 C847 1.397 . S
C846 C851 1.363 . S
C847 H818 0.950 . S
C847 C846 1.397 . S
C847 C848 1.334 . S
C848 H819 0.950 . S
C848 C847 1.334 . S
C848 C849 1.287 . S
C849 C848 1.287 . S
C849 C850 1.524 . S
C849 H852 0.999 . S
C850 H820 0.950 . S
C850 C849 1.524 . S
C850 C851 1.415 . S
C851 H821 0.950 . S
C851 C846 1.363 . S
C851 C850 1.415 . S
H852 C849 0.999 . S
H853 C834 0.913 . S
H854 C872 0.951 . S
H855 C874 0.951 . S
H856 C876 0.950 . S
H857 C877 0.950 . S
H858 C879 0.950 . S
H859 C882 0.950 . S
H860 C883 0.950 . S
H861 C885 0.950 . S
H862 C886 0.950 . S
H863 C887 0.951 . S
H864 C889 0.951 . S
H865 C891 0.950 . S
H866 C892 0.950 1_565 S
H867 C894 0.950 . S
H868 C897 0.950 . S
H869 C898 0.950 . S
H870 C900 0.950 . S
H871 C901 0.950 . S
C872 H854 0.951 . S
C872 C873 1.366 . S
C872 C874 1.388 . S
C873 C872 1.366 . S
C873 C877 1.385 . S
C874 H855 0.951 . S
C874 C872 1.388 . S
C874 C875 1.366 . S
C875 C874 1.366 . S
C875 C876 1.414 . S
C875 C878 1.499 . S
C876 H856 0.950 . S
C876 C875 1.414 . S
C876 C877 1.374 . S
C877 H857 0.950 . S
C877 C873 1.385 . S
C877 C876 1.374 . S
C878 C875 1.499 . S
C878 C879 1.373 . S
C878 C880 1.389 . S
C879 H858 0.950 . S
C879 C878 1.373 . S
C879 C895 1.377 . S
C880 C878 1.389 . S
C880 C881 1.524 . S
C880 C894 1.377 . S
C881 C880 1.524 . S
C881 C882 1.397 . S
C881 C886 1.363 . S
C882 H859 0.950 . S
C882 C881 1.397 . S
C882 C883 1.334 . S
C883 H860 0.950 . S
C883 C882 1.334 . S
C883 C884 1.287 . S
C884 C883 1.287 . S
C884 C885 1.524 . S
C884 H903 0.913 . S
C885 H861 0.950 . S
C885 C884 1.524 . S
C885 C886 1.415 . S
C886 H862 0.950 . S
C886 C881 1.363 . S
C886 C885 1.415 . S
C887 H863 0.951 . S
C887 C888 1.366 . S
C887 C889 1.388 . S
C888 C887 1.366 . S
C888 C892 1.385 . S
C889 H864 0.951 . S
C889 C887 1.388 . S
C889 C890 1.366 . S
C890 C889 1.366 . S
C890 C891 1.414 1_545 S
C890 C893 1.499 1_545 S
C891 H865 0.950 . S
C891 C890 1.414 1_565 S
C891 C892 1.374 1_565 S
C892 H866 0.950 1_545 S
C892 C888 1.385 . S
C892 C891 1.374 1_545 S
C893 C890 1.499 1_565 S
C893 C894 1.373 . S
C893 C895 1.389 . S
C894 H867 0.950 . S
C894 C880 1.377 . S
C894 C893 1.373 . S
C895 C879 1.377 . S
C895 C893 1.389 . S
C895 C896 1.524 1_565 S
C896 C895 1.524 1_545 S
C896 C897 1.397 . S
C896 C901 1.363 . S
C897 H868 0.950 . S
C897 C896 1.397 . S
C897 C898 1.334 . S
C898 H869 0.950 . S
C898 C897 1.334 . S
C898 C899 1.287 . S
C899 C898 1.287 . S
C899 C900 1.524 . S
C899 H902 0.999 . S
C900 H870 0.950 . S
C900 C899 1.524 . S
C900 C901 1.415 . S
C901 H871 0.950 . S
C901 C896 1.363 . S
C901 C900 1.415 . S
H902 C899 0.999 . S
H903 C884 0.913 . S
H904 C922 0.951 . S
H905 C924 0.951 . S
H906 C926 0.934 1_455 S
H907 C927 0.950 . S
H908 C929 0.950 . S
H909 C932 0.950 . S
H910 C933 0.950 . S
H911 C935 0.950 . S
H912 C936 0.950 . S
H913 C937 0.951 . S
H914 C939 0.951 . S
H915 C941 0.950 . S
H916 C942 0.950 . S
H917 C944 0.950 . S
H918 C947 0.950 . S
H919 C948 0.950 . S
H920 C950 0.950 . S
H921 C951 0.950 . S
C922 H904 0.951 . S
C922 C923 1.366 . S
C922 C924 1.388 . S
C923 C922 1.366 . S
C923 C927 1.385 . S
C924 H905 0.951 . S
C924 C922 1.388 . S
C924 C925 1.366 . S
C925 C924 1.366 . S
C925 C926 1.431 . S
C925 C928 1.499 1_655 S
C926 H906 0.934 1_655 S
C926 C925 1.431 . S
C926 C927 1.375 . S
C927 H907 0.950 . S
C927 C923 1.385 . S
C927 C926 1.375 . S
C928 C925 1.499 1_455 S
C928 C929 1.373 . S
C928 C930 1.401 . S
C929 H908 0.950 . S
C929 C928 1.373 . S
C929 C945 1.377 . S
C930 C928 1.401 . S
C930 C931 1.511 1_455 S
C930 C944 1.377 . S
C931 C930 1.511 1_655 S
C931 C932 1.397 . S
C931 C936 1.363 . S
C932 H909 0.950 . S
C932 C931 1.397 . S
C932 C933 1.334 . S
C933 H910 0.950 . S
C933 C932 1.334 . S
C933 C934 1.287 . S
C934 C933 1.287 . S
C934 C935 1.524 . S
C934 H953 0.913 . S
C935 H911 0.950 . S
C935 C934 1.524 . S
C935 C936 1.415 . S
C936 H912 0.950 . S
C936 C931 1.363 . S
C936 C935 1.415 . S
C937 H913 0.951 . S
C937 C938 1.366 . S
C937 C939 1.388 . S
C938 C937 1.366 . S
C938 C942 1.385 . S
C939 H914 0.951 . S
C939 C937 1.388 . S
C939 C940 1.366 . S
C940 C939 1.366 . S
C940 C941 1.414 . S
C940 C943 1.499 . S
C941 H915 0.950 . S
C941 C940 1.414 . S
C941 C942 1.374 . S
C942 H916 0.950 . S
C942 C938 1.385 . S
C942 C941 1.374 . S
C943 C940 1.499 . S
C943 C944 1.373 . S
C943 C945 1.389 . S
C944 H917 0.950 . S
C944 C930 1.377 . S
C944 C943 1.373 . S
C945 C929 1.377 . S
C945 C943 1.389 . S
C945 C946 1.524 . S
C946 C945 1.524 . S
C946 C947 1.397 . S
C946 C951 1.363 . S
C947 H918 0.950 . S
C947 C946 1.397 . S
C947 C948 1.334 . S
C948 H919 0.950 . S
C948 C947 1.334 . S
C948 C949 1.287 . S
C949 C948 1.287 . S
C949 C950 1.524 . S
C949 H952 0.999 . S
C950 H920 0.950 . S
C950 C949 1.524 . S
C950 C951 1.415 . S
C951 H921 0.950 . S
C951 C946 1.363 . S
C951 C950 1.415 . S
H952 C949 0.999 . S
H953 C934 0.913 . S
H954 C972 0.951 . S
H955 C974 0.951 . S
H956 C976 0.950 . S
H957 C977 0.950 . S
H958 C979 0.950 . S
H959 C982 0.950 1_565 S
H960 C983 0.950 . S
H961 C985 0.950 . S
H962 C986 0.950 . S
H963 C987 0.951 . S
H964 C989 0.930 1_565 S
H965 C991 0.950 . S
H966 C992 0.950 . S
H967 C994 0.907 1_545 S
H968 C997 0.950 . S
H969 C998 0.950 . S
H970 C1000 0.950 . S
H971 C1001 0.950 . S
C972 H954 0.951 . S
C972 C973 1.366 . S
C972 C974 1.388 . S
C973 C972 1.366 . S
C973 C977 1.385 . S
C974 H955 0.951 . S
C974 C972 1.388 . S
C974 C975 1.366 . S
C975 C974 1.366 . S
C975 C976 1.414 . S
C975 C978 1.499 . S
C976 H956 0.950 . S
C976 C975 1.414 . S
C976 C977 1.374 . S
C977 H957 0.950 . S
C977 C973 1.385 . S
C977 C976 1.374 . S
C978 C975 1.499 . S
C978 C979 1.373 . S
C978 C980 1.389 . S
C979 H958 0.950 . S
C979 C978 1.373 . S
C979 C995 1.377 . S
C980 C978 1.389 . S
C980 C981 1.524 1_565 S
C980 C994 1.376 . S
C981 C980 1.524 1_545 S
C981 C982 1.397 . S
C981 C986 1.363 . S
C982 H959 0.950 1_545 S
C982 C981 1.397 . S
C982 C983 1.334 . S
C983 H960 0.950 . S
C983 C982 1.334 . S
C983 C984 1.287 . S
C984 C983 1.287 . S
C984 C985 1.524 . S
C984 H1003 0.913 . S
C985 H961 0.950 . S
C985 C984 1.524 . S
C985 C986 1.415 . S
C986 H962 0.950 . S
C986 C981 1.363 . S
C986 C985 1.415 . S
C987 H963 0.951 . S
C987 C988 1.366 . S
C987 C989 1.394 . S
C988 C987 1.366 . S
C988 C992 1.385 . S
C989 H964 0.930 1_545 S
C989 C987 1.394 . S
C989 C990 1.372 . S
C990 C989 1.372 . S
C990 C991 1.434 . S
C990 C993 1.499 1_545 S
C991 H965 0.950 . S
C991 C990 1.434 . S
C991 C992 1.374 . S
C992 H966 0.950 . S
C992 C988 1.385 . S
C992 C991 1.374 . S
C993 C990 1.499 1_565 S
C993 C994 1.419 . S
C993 C995 1.389 . S
C994 H967 0.907 1_565 S
C994 C980 1.376 . S
C994 C993 1.419 . S
C995 C979 1.377 . S
C995 C993 1.389 . S
C995 C996 1.524 . S
C996 C995 1.524 . S
C996 C997 1.397 . S
C996 C1001 1.363 . S
C997 H968 0.950 . S
C997 C996 1.397 . S
C997 C998 1.334 . S
C998 H969 0.950 . S
C998 C997 1.334 . S
C998 C999 1.287 . S
C999 C998 1.287 . S
C999 C1000 1.524 . S
C999 H1002 0.999 . S
C1000 H970 0.950 . S
C1000 C999 1.524 . S
C1000 C1001 1.415 . S
C1001 H971 0.950 . S
C1001 C996 1.363 . S
C1001 C1000 1.415 . S
H1002 C999 0.999 . S
H1003 C984 0.913 . S
H1004 C1022 0.951 1_455 S
H1005 C1024 0.951 . S
H1006 C1026 0.950 . S
H1007 C1027 0.950 . S
H1008 C1029 0.950 1_655 S
H1009 C1032 0.950 . S
H1010 C1033 0.950 . S
H1011 C1035 0.950 . S
H1012 C1036 0.950 . S
H1013 C1037 0.951 . S
H1014 C1039 0.951 . S
H1015 C1041 0.950 . S
H1016 C1042 0.950 . S
H1017 C1044 0.950 . S
H1018 C1047 0.950 . S
H1019 C1048 0.950 . S
H1020 C1050 0.950 . S
H1021 C1051 0.950 . S
C1022 H1004 0.951 1_655 S
C1022 C1023 1.366 . S
C1022 C1024 1.388 1_655 S
C1023 C1022 1.366 . S
C1023 C1027 1.385 . S
C1024 H1005 0.951 . S
C1024 C1022 1.388 1_455 S
C1024 C1025 1.366 1_455 S
C1025 C1024 1.366 1_655 S
C1025 C1026 1.414 . S
C1025 C1028 1.499 1_655 S
C1026 H1006 0.950 . S
C1026 C1025 1.414 . S
C1026 C1027 1.374 . S
C1027 H1007 0.950 . S
C1027 C1023 1.385 . S
C1027 C1026 1.374 . S
C1028 C1025 1.499 1_455 S
C1028 C1029 1.373 . S
C1028 C1030 1.389 . S
C1029 H1008 0.950 1_455 S
C1029 C1028 1.373 . S
C1029 C1045 1.377 . S
C1030 C1028 1.389 . S
C1030 C1031 1.524 . S
C1030 C1044 1.377 . S
C1031 C1030 1.524 . S
C1031 C1032 1.397 . S
C1031 C1036 1.363 . S
C1032 H1009 0.950 . S
C1032 C1031 1.397 . S
C1032 C1033 1.334 . S
C1033 H1010 0.950 . S
C1033 C1032 1.334 . S
C1033 C1034 1.287 . S
C1034 C1033 1.287 . S
C1034 C1035 1.524 . S
C1034 H1053 0.913 . S
C1035 H1011 0.950 . S
C1035 C1034 1.524 . S
C1035 C1036 1.415 . S
C1036 H1012 0.950 . S
C1036 C1031 1.363 . S
C1036 C1035 1.415 . S
C1037 H1013 0.951 . S
C1037 C1038 1.366 . S
C1037 C1039 1.388 . S
C1038 C1037 1.366 . S
C1038 C1042 1.385 . S
C1039 H1014 0.951 . S
C1039 C1037 1.388 . S
C1039 C1040 1.366 . S
C1040 C1039 1.366 . S
C1040 C1041 1.414 . S
C1040 C1043 1.499 . S
C1041 H1015 0.950 . S
C1041 C1040 1.414 . S
C1041 C1042 1.374 . S
C1042 H1016 0.950 . S
C1042 C1038 1.385 . S
C1042 C1041 1.374 . S
C1043 C1040 1.499 . S
C1043 C1044 1.373 . S
C1043 C1045 1.389 . S
C1044 H1017 0.950 . S
C1044 C1030 1.377 . S
C1044 C1043 1.373 . S
C1045 C1029 1.377 . S
C1045 C1043 1.389 . S
C1045 C1046 1.524 . S
C1046 C1045 1.524 . S
C1046 C1047 1.397 . S
C1046 C1051 1.363 1_455 S
C1047 H1018 0.950 . S
C1047 C1046 1.397 . S
C1047 C1048 1.334 . S
C1048 H1019 0.950 . S
C1048 C1047 1.334 . S
C1048 C1049 1.287 1_455 S
C1049 C1048 1.287 1_655 S
C1049 C1050 1.524 . S
C1049 H1052 0.999 . S
C1050 H1020 0.950 . S
C1050 C1049 1.524 . S
C1050 C1051 1.415 . S
C1051 H1021 0.950 . S
C1051 C1046 1.363 1_655 S
C1051 C1050 1.415 . S
H1052 C1049 0.999 . S
H1053 C1034 0.913 . S
H1054 C1072 0.951 . S
H1055 C1074 0.951 . S
H1056 C1076 0.950 . S
H1057 C1077 0.950 . S
H1058 C1079 0.950 . S
H1059 C1082 0.950 . S
H1060 C1083 0.950 . S
H1061 C1085 0.950 . S
H1062 C1086 0.950 . S
H1063 C1087 0.951 . S
H1064 C1089 0.951 . S
H1065 C1091 0.950 . S
H1066 C1092 0.950 . S
H1067 C1094 0.950 . S
H1068 C1097 0.950 . S
H1069 C1098 0.950 . S
H1070 C1100 0.950 . S
H1071 C1101 0.950 . S
C1072 H1054 0.951 . S
C1072 C1073 1.366 . S
C1072 C1074 1.388 . S
C1073 C1072 1.366 . S
C1073 C1077 1.385 . S
C1074 H1055 0.951 . S
C1074 C1072 1.388 . S
C1074 C1075 1.366 . S
C1075 C1074 1.366 . S
C1075 C1076 1.414 . S
C1075 C1078 1.499 . S
C1076 H1056 0.950 . S
C1076 C1075 1.414 . S
C1076 C1077 1.374 . S
C1077 H1057 0.950 . S
C1077 C1073 1.385 . S
C1077 C1076 1.374 . S
C1078 C1075 1.499 . S
C1078 C1079 1.373 . S
C1078 C1080 1.389 . S
C1079 H1058 0.950 . S
C1079 C1078 1.373 . S
C1079 C1095 1.377 . S
C1080 C1078 1.389 . S
C1080 C1081 1.524 . S
C1080 C1094 1.377 . S
C1081 C1080 1.524 . S
C1081 C1082 1.397 . S
C1081 C1086 1.363 . S
C1082 H1059 0.950 . S
C1082 C1081 1.397 . S
C1082 C1083 1.334 . S
C1083 H1060 0.950 . S
C1083 C1082 1.334 . S
C1083 C1084 1.287 . S
C1084 C1083 1.287 . S
C1084 C1085 1.524 . S
C1084 H1103 0.913 . S
C1085 H1061 0.950 . S
C1085 C1084 1.524 . S
C1085 C1086 1.415 . S
C1086 H1062 0.950 . S
C1086 C1081 1.363 . S
C1086 C1085 1.415 . S
C1087 H1063 0.951 . S
C1087 C1088 1.366 . S
C1087 C1089 1.388 . S
C1088 C1087 1.366 . S
C1088 C1092 1.385 . S
C1089 H1064 0.951 . S
C1089 C1087 1.388 . S
C1089 C1090 1.366 . S
C1090 C1089 1.366 . S
C1090 C1091 1.414 . S
C1090 C1093 1.499 . S
C1091 H1065 0.950 . S
C1091 C1090 1.414 . S
C1091 C1092 1.374 . S
C1092 H1066 0.950 . S
C1092 C1088 1.385 . S
C1092 C1091 1.374 . S
C1093 C1090 1.499 . S
C1093 C1094 1.373 . S
C1093 C1095 1.389 . S
C1094 H1067 0.950 . S
C1094 C1080 1.377 . S
C1094 C1093 1.373 . S
C1095 C1079 1.377 . S
C1095 C1093 1.389 . S
C1095 C1096 1.524 . S
C1096 C1095 1.524 . S
C1096 C1097 1.397 . S
C1096 C1101 1.363 . S
C1097 H1068 0.950 . S
C1097 C1096 1.397 . S
C1097 C1098 1.334 . S
C1098 H1069 0.950 . S
C1098 C1097 1.334 . S
C1098 C1099 1.287 . S
C1099 C1098 1.287 . S
C1099 C1100 1.524 . S
C1099 H1102 0.999 . S
C1100 H1070 0.950 . S
C1100 C1099 1.524 . S
C1100 C1101 1.415 . S
C1101 H1071 0.950 . S
C1101 C1096 1.363 . S
C1101 C1100 1.415 . S
H1102 C1099 0.999 . S
H1103 C1084 0.913 . S
H1104 C1122 0.951 . S
H1105 C1124 0.951 . S
H1106 C1126 0.950 . S
H1107 C1127 0.950 1_545 S
H1108 C1129 0.950 . S
H1109 C1132 0.950 . S
H1110 C1133 0.950 . S
H1111 C1135 0.950 . S
H1112 C1136 0.950 . S
H1113 C1137 0.951 . S
H1114 C1139 0.951 . S
H1115 C1141 0.950 . S
H1116 C1142 0.950 . S
H1117 C1144 0.950 . S
H1118 C1147 0.950 . S
H1119 C1148 0.950 . S
H1120 C1150 0.950 . S
H1121 C1151 0.950 . S
C1122 H1104 0.951 . S
C1122 C1123 1.366 . S
C1122 C1124 1.388 . S
C1123 C1122 1.366 . S
C1123 C1127 1.385 . S
C1124 H1105 0.951 . S
C1124 C1122 1.388 . S
C1124 C1125 1.366 . S
C1125 C1124 1.366 . S
C1125 C1126 1.414 1_565 S
C1125 C1128 1.499 1_565 S
C1126 H1106 0.950 . S
C1126 C1125 1.414 1_545 S
C1126 C1127 1.374 1_545 S
C1127 H1107 0.950 1_565 S
C1127 C1123 1.385 . S
C1127 C1126 1.374 1_565 S
C1128 C1125 1.499 1_545 S
C1128 C1129 1.373 . S
C1128 C1130 1.389 . S
C1129 H1108 0.950 . S
C1129 C1128 1.373 . S
C1129 C1145 1.377 . S
C1130 C1128 1.389 . S
C1130 C1131 1.524 1_545 S
C1130 C1144 1.377 . S
C1131 C1130 1.524 1_565 S
C1131 C1132 1.397 . S
C1131 C1136 1.363 . S
C1132 H1109 0.950 . S
C1132 C1131 1.397 . S
C1132 C1133 1.334 . S
C1133 H1110 0.950 . S
C1133 C1132 1.334 . S
C1133 C1134 1.287 . S
C1134 C1133 1.287 . S
C1134 C1135 1.524 . S
C1134 H1153 0.913 . S
C1135 H1111 0.950 . S
C1135 C1134 1.524 . S
C1135 C1136 1.415 . S
C1136 H1112 0.950 . S
C1136 C1131 1.363 . S
C1136 C1135 1.415 . S
C1137 H1113 0.951 . S
C1137 C1138 1.366 . S
C1137 C1139 1.388 . S
C1138 C1137 1.366 . S
C1138 C1142 1.385 . S
C1139 H1114 0.951 . S
C1139 C1137 1.388 . S
C1139 C1140 1.366 . S
C1140 C1139 1.366 . S
C1140 C1141 1.414 . S
C1140 C1143 1.499 . S
C1141 H1115 0.950 . S
C1141 C1140 1.414 . S
C1141 C1142 1.374 . S
C1142 H1116 0.950 . S
C1142 C1138 1.385 . S
C1142 C1141 1.374 . S
C1143 C1140 1.499 . S
C1143 C1144 1.373 . S
C1143 C1145 1.389 . S
C1144 H1117 0.950 . S
C1144 C1130 1.377 . S
C1144 C1143 1.373 . S
C1145 C1129 1.377 . S
C1145 C1143 1.389 . S
C1145 C1146 1.524 . S
C1146 C1145 1.524 . S
C1146 C1147 1.397 . S
C1146 C1151 1.363 . S
C1147 H1118 0.950 . S
C1147 C1146 1.397 . S
C1147 C1148 1.334 . S
C1148 H1119 0.950 . S
C1148 C1147 1.334 . S
C1148 C1149 1.287 . S
C1149 C1148 1.287 . S
C1149 C1150 1.524 . S
C1149 H1152 0.999 . S
C1150 H1120 0.950 . S
C1150 C1149 1.524 . S
C1150 C1151 1.415 . S
C1151 H1121 0.950 . S
C1151 C1146 1.363 . S
C1151 C1150 1.415 . S
H1152 C1149 0.999 . S
H1153 C1134 0.913 . S
H1154 C1172 0.951 . S
H1155 C1174 0.951 . S
H1156 C1176 0.950 . S
H1157 C1177 0.950 . S
H1158 C1179 0.950 . S
H1159 C1182 0.950 1_655 S
H1160 C1183 0.950 . S
H1161 C1185 0.950 . S
H1162 C1186 0.950 . S
H1163 C1187 0.951 . S
H1164 C1189 1.001 . S
H1165 C1191 0.950 . S
H1166 C1192 0.950 . S
H1167 C1194 0.955 1_455 S
H1168 C1197 0.950 . S
H1169 C1198 0.950 . S
H1170 C1200 0.950 . S
H1171 C1201 0.950 . S
C1172 H1154 0.951 . S
C1172 C1173 1.366 . S
C1172 C1174 1.388 . S
C1173 C1172 1.366 . S
C1173 C1177 1.385 . S
C1174 H1155 0.951 . S
C1174 C1172 1.388 . S
C1174 C1175 1.366 . S
C1175 C1174 1.366 . S
C1175 C1176 1.414 . S
C1175 C1178 1.499 . S
C1176 H1156 0.950 . S
C1176 C1175 1.414 . S
C1176 C1177 1.374 . S
C1177 H1157 0.950 . S
C1177 C1173 1.385 . S
C1177 C1176 1.374 . S
C1178 C1175 1.499 . S
C1178 C1179 1.373 . S
C1178 C1180 1.389 . S
C1179 H1158 0.950 . S
C1179 C1178 1.373 . S
C1179 C1195 1.377 . S
C1180 C1178 1.389 . S
C1180 C1181 1.524 1_655 S
C1180 C1194 1.372 . S
C1181 C1180 1.524 1_455 S
C1181 C1182 1.397 . S
C1181 C1186 1.363 . S
C1182 H1159 0.950 1_455 S
C1182 C1181 1.397 . S
C1182 C1183 1.334 . S
C1183 H1160 0.950 . S
C1183 C1182 1.334 . S
C1183 C1184 1.287 . S
C1184 C1183 1.287 . S
C1184 C1185 1.524 . S
C1184 H1203 0.913 . S
C1185 H1161 0.950 . S
C1185 C1184 1.524 . S
C1185 C1186 1.415 . S
C1186 H1162 0.950 . S
C1186 C1181 1.363 . S
C1186 C1185 1.415 . S
C1187 H1163 0.951 . S
C1187 C1188 1.366 . S
C1187 C1189 1.320 1_455 S
C1188 C1187 1.366 . S
C1188 C1192 1.385 . S
C1189 H1164 1.001 . S
C1189 C1187 1.320 1_655 S
C1189 C1190 1.411 1_655 S
C1190 C1189 1.411 1_455 S
C1190 C1191 1.459 . S
C1190 C1193 1.440 1_455 S
C1191 H1165 0.950 . S
C1191 C1190 1.459 . S
C1191 C1192 1.374 . S
C1192 H1166 0.950 . S
C1192 C1188 1.385 . S
C1192 C1191 1.374 . S
C1193 C1190 1.440 1_655 S
C1193 C1194 1.373 . S
C1193 C1195 1.389 . S
C1194 H1167 0.955 1_655 S
C1194 C1180 1.372 . S
C1194 C1193 1.373 . S
C1195 C1179 1.377 . S
C1195 C1193 1.389 . S
C1195 C1196 1.524 . S
C1196 C1195 1.524 . S
C1196 C1197 1.397 . S
C1196 C1201 1.363 . S
C1197 H1168 0.950 . S
C1197 C1196 1.397 . S
C1197 C1198 1.334 . S
C1198 H1169 0.950 . S
C1198 C1197 1.334 . S
C1198 C1199 1.287 . S
C1199 C1198 1.287 . S
C1199 C1200 1.524 . S
C1199 H1202 0.999 . S
C1200 H1170 0.950 . S
C1200 C1199 1.524 . S
C1200 C1201 1.415 . S
C1201 H1171 0.950 . S
C1201 C1196 1.363 . S
C1201 C1200 1.415 . S
H1202 C1199 0.999 . S
H1203 C1184 0.913 . S
H1204 C1222 0.951 . S
H1205 C1224 0.951 . S
H1206 C1226 0.950 . S
H1207 C1227 0.950 . S
H1208 C1229 0.950 . S
H1209 C1232 0.950 . S
H1210 C1233 0.950 . S
H1211 C1235 0.950 . S
H1212 C1236 0.950 . S
H1213 C1237 0.951 . S
H1214 C1239 0.951 . S
H1215 C1241 0.950 . S
H1216 C1242 0.950 . S
H1217 C1244 0.950 . S
H1218 C1247 0.950 . S
H1219 C1248 0.950 . S
H1220 C1250 0.950 . S
H1221 C1251 0.950 . S
C1222 H1204 0.951 . S
C1222 C1223 1.366 . S
C1222 C1224 1.388 . S
C1223 C1222 1.366 . S
C1223 C1227 1.385 . S
C1224 H1205 0.951 . S
C1224 C1222 1.388 . S
C1224 C1225 1.366 . S
C1225 C1224 1.366 . S
C1225 C1226 1.414 . S
C1225 C1228 1.499 . S
C1226 H1206 0.950 . S
C1226 C1225 1.414 . S
C1226 C1227 1.374 . S
C1227 H1207 0.950 . S
C1227 C1223 1.385 . S
C1227 C1226 1.374 . S
C1228 C1225 1.499 . S
C1228 C1229 1.373 . S
C1228 C1230 1.389 . S
C1229 H1208 0.950 . S
C1229 C1228 1.373 . S
C1229 C1245 1.377 . S
C1230 C1228 1.389 . S
C1230 C1231 1.524 . S
C1230 C1244 1.377 . S
C1231 C1230 1.524 . S
C1231 C1232 1.397 . S
C1231 C1236 1.363 . S
C1232 H1209 0.950 . S
C1232 C1231 1.397 . S
C1232 C1233 1.334 . S
C1233 H1210 0.950 . S
C1233 C1232 1.334 . S
C1233 C1234 1.287 . S
C1234 C1233 1.287 . S
C1234 C1235 1.524 . S
C1234 H1253 0.913 . S
C1235 H1211 0.950 . S
C1235 C1234 1.524 . S
C1235 C1236 1.415 . S
C1236 H1212 0.950 . S
C1236 C1231 1.363 . S
C1236 C1235 1.415 . S
C1237 H1213 0.951 . S
C1237 C1238 1.366 . S
C1237 C1239 1.388 . S
C1238 C1237 1.366 . S
C1238 C1242 1.385 . S
C1239 H1214 0.951 . S
C1239 C1237 1.388 . S
C1239 C1240 1.366 . S
C1240 C1239 1.366 . S
C1240 C1241 1.414 . S
C1240 C1243 1.499 . S
C1241 H1215 0.950 . S
C1241 C1240 1.414 . S
C1241 C1242 1.374 . S
C1242 H1216 0.950 . S
C1242 C1238 1.385 . S
C1242 C1241 1.374 . S
C1243 C1240 1.499 . S
C1243 C1244 1.373 . S
C1243 C1245 1.389 . S
C1244 H1217 0.950 . S
C1244 C1230 1.377 . S
C1244 C1243 1.373 . S
C1245 C1229 1.377 . S
C1245 C1243 1.389 . S
C1245 C1246 1.524 . S
C1246 C1245 1.524 . S
C1246 C1247 1.397 . S
C1246 C1251 1.363 . S
C1247 H1218 0.950 . S
C1247 C1246 1.397 . S
C1247 C1248 1.334 . S
C1248 H1219 0.950 . S
C1248 C1247 1.334 . S
C1248 C1249 1.287 . S
C1249 C1248 1.287 . S
C1249 C1250 1.524 . S
C1249 H1252 0.999 . S
C1250 H1220 0.950 . S
C1250 C1249 1.524 . S
C1250 C1251 1.415 . S
C1251 H1221 0.950 . S
C1251 C1246 1.363 . S
C1251 C1250 1.415 . S
H1252 C1249 0.999 . S
H1253 C1234 0.913 . S
H1254 C1272 0.951 . S
H1255 C1274 0.951 . S
H1256 C1276 0.950 . S
H1257 C1277 0.950 . S
H1258 C1279 0.950 . S
H1259 C1282 0.950 . S
H1260 C1283 0.950 . S
H1261 C1285 0.950 . S
H1262 C1286 0.950 . S
H1263 C1287 0.951 . S
H1264 C1289 0.951 . S
H1265 C1291 0.950 . S
H1266 C1292 0.950 . S
H1267 C1294 0.950 . S
H1268 C1297 0.950 . S
H1269 C1298 0.950 . S
H1270 C1300 0.950 . S
H1271 C1301 0.950 . S
C1272 H1254 0.951 . S
C1272 C1273 1.366 . S
C1272 C1274 1.388 . S
C1273 C1272 1.366 . S
C1273 C1277 1.385 . S
C1274 H1255 0.951 . S
C1274 C1272 1.388 . S
C1274 C1275 1.366 . S
C1275 C1274 1.366 . S
C1275 C1276 1.414 . S
C1275 C1278 1.499 . S
C1276 H1256 0.950 . S
C1276 C1275 1.414 . S
C1276 C1277 1.374 . S
C1277 H1257 0.950 . S
C1277 C1273 1.385 . S
C1277 C1276 1.374 . S
C1278 C1275 1.499 . S
C1278 C1279 1.373 . S
C1278 C1280 1.389 . S
C1279 H1258 0.950 . S
C1279 C1278 1.373 . S
C1279 C1295 1.377 . S
C1280 C1278 1.389 . S
C1280 C1281 1.524 . S
C1280 C1294 1.377 . S
C1281 C1280 1.524 . S
C1281 C1282 1.397 . S
C1281 C1286 1.363 . S
C1282 H1259 0.950 . S
C1282 C1281 1.397 . S
C1282 C1283 1.334 . S
C1283 H1260 0.950 . S
C1283 C1282 1.334 . S
C1283 C1284 1.287 . S
C1284 C1283 1.287 . S
C1284 C1285 1.524 . S
C1284 H1303 0.913 . S
C1285 H1261 0.950 . S
C1285 C1284 1.524 . S
C1285 C1286 1.415 . S
C1286 H1262 0.950 . S
C1286 C1281 1.363 . S
C1286 C1285 1.415 . S
C1287 H1263 0.951 . S
C1287 C1288 1.366 . S
C1287 C1289 1.388 . S
C1288 C1287 1.366 . S
C1288 C1292 1.385 . S
C1289 H1264 0.951 . S
C1289 C1287 1.388 . S
C1289 C1290 1.366 . S
C1290 C1289 1.366 . S
C1290 C1291 1.414 . S
C1290 C1293 1.499 . S
C1291 H1265 0.950 . S
C1291 C1290 1.414 . S
C1291 C1292 1.374 . S
C1292 H1266 0.950 . S
C1292 C1288 1.385 . S
C1292 C1291 1.374 . S
C1293 C1290 1.499 . S
C1293 C1294 1.373 . S
C1293 C1295 1.389 . S
C1294 H1267 0.950 . S
C1294 C1280 1.377 . S
C1294 C1293 1.373 . S
C1295 C1279 1.377 . S
C1295 C1293 1.389 . S
C1295 C1296 1.524 . S
C1296 C1295 1.524 . S
C1296 C1297 1.397 . S
C1296 C1301 1.363 . S
C1297 H1268 0.950 . S
C1297 C1296 1.397 . S
C1297 C1298 1.334 . S
C1298 H1269 0.950 . S
C1298 C1297 1.334 . S
C1298 C1299 1.287 . S
C1299 C1298 1.287 . S
C1299 C1300 1.524 . S
C1299 H1302 0.999 . S
C1300 H1270 0.950 . S
C1300 C1299 1.524 . S
C1300 C1301 1.415 . S
C1301 H1271 0.950 . S
C1301 C1296 1.363 . S
C1301 C1300 1.415 . S
H1302 C1299 0.999 . S
H1303 C1284 0.913 . S
H1304 C1322 0.951 1_545 S
H1305 C1324 0.951 . S
H1306 C1326 0.950 . S
H1307 C1327 0.950 . S
H1308 C1329 0.950 1_565 S
H1309 C1332 0.950 1_565 S
H1310 C1333 0.950 1_565 S
H1311 C1335 0.950 . S
H1312 C1336 0.950 . S
H1313 C1337 0.951 . S
H1314 C1339 0.951 . S
H1315 C1341 0.950 . S
H1316 C1342 0.950 . S
H1317 C1344 0.950 . S
H1318 C1347 0.950 . S
H1319 C1348 0.950 . S
H1320 C1350 0.950 . S
H1321 C1351 0.950 . S
C1322 H1304 0.951 1_565 S
C1322 C1323 1.366 . S
C1322 C1324 1.388 1_565 S
C1323 C1322 1.366 . S
C1323 C1327 1.385 . S
C1324 H1305 0.951 . S
C1324 C1322 1.388 1_545 S
C1324 C1325 1.366 1_545 S
C1325 C1324 1.366 1_565 S
C1325 C1326 1.414 . S
C1325 C1328 1.499 1_565 S
C1326 H1306 0.950 . S
C1326 C1325 1.414 . S
C1326 C1327 1.374 . S
C1327 H1307 0.950 . S
C1327 C1323 1.385 . S
C1327 C1326 1.374 . S
C1328 C1325 1.499 1_545 S
C1328 C1329 1.373 . S
C1328 C1330 1.389 . S
C1329 H1308 0.950 1_545 S
C1329 C1328 1.373 . S
C1329 C1345 1.377 . S
C1330 C1328 1.389 . S
C1330 C1331 1.524 . S
C1330 C1344 1.377 . S
C1331 C1330 1.524 . S
C1331 C1332 1.397 . S
C1331 C1336 1.363 . S
C1332 H1309 0.950 1_545 S
C1332 C1331 1.397 . S
C1332 C1333 1.334 . S
C1333 H1310 0.950 1_545 S
C1333 C1332 1.334 . S
C1333 C1334 1.287 . S
C1334 C1333 1.287 . S
C1334 C1335 1.524 . S
C1334 H1353 0.913 . S
C1335 H1311 0.950 . S
C1335 C1334 1.524 . S
C1335 C1336 1.415 . S
C1336 H1312 0.950 . S
C1336 C1331 1.363 . S
C1336 C1335 1.415 . S
C1337 H1313 0.951 . S
C1337 C1338 1.366 . S
C1337 C1339 1.388 . S
C1338 C1337 1.366 . S
C1338 C1342 1.385 . S
C1339 H1314 0.951 . S
C1339 C1337 1.388 . S
C1339 C1340 1.366 . S
C1340 C1339 1.366 . S
C1340 C1341 1.414 . S
C1340 C1343 1.499 . S
C1341 H1315 0.950 . S
C1341 C1340 1.414 . S
C1341 C1342 1.374 . S
C1342 H1316 0.950 . S
C1342 C1338 1.385 . S
C1342 C1341 1.374 . S
C1343 C1340 1.499 . S
C1343 C1344 1.373 . S
C1343 C1345 1.389 . S
C1344 H1317 0.950 . S
C1344 C1330 1.377 . S
C1344 C1343 1.373 . S
C1345 C1329 1.377 . S
C1345 C1343 1.389 . S
C1345 C1346 1.524 . S
C1346 C1345 1.524 . S
C1346 C1347 1.397 . S
C1346 C1351 1.363 1_545 S
C1347 H1318 0.950 . S
C1347 C1346 1.397 . S
C1347 C1348 1.334 . S
C1348 H1319 0.950 . S
C1348 C1347 1.334 . S
C1348 C1349 1.287 . S
C1349 C1348 1.287 . S
C1349 C1350 1.524 1_545 S
C1349 H1352 0.999 . S
C1350 H1320 0.950 . S
C1350 C1349 1.524 1_565 S
C1350 C1351 1.415 . S
C1351 H1321 0.950 . S
C1351 C1346 1.363 1_565 S
C1351 C1350 1.415 . S
H1352 C1349 0.999 . S
H1353 C1334 0.913 . S
H1354 C1372 0.951 . S
H1355 C1374 0.934 1_655 S
H1356 C1376 0.950 . S
H1357 C1377 0.950 . S
H1358 C1379 0.918 1_455 S
H1359 C1382 0.950 . S
H1360 C1383 0.950 . S
H1361 C1385 0.950 . S
H1362 C1386 0.950 . S
H1363 C1387 0.951 . S
H1364 C1389 0.951 . S
H1365 C1391 0.950 . S
H1366 C1392 0.950 . S
H1367 C1394 0.950 . S
H1368 C1397 0.950 1_655 S
H1369 C1398 0.950 . S
H1370 C1400 0.950 . S
H1371 C1401 0.950 . S
C1372 H1354 0.951 . S
C1372 C1373 1.366 . S
C1372 C1374 1.390 . S
C1373 C1372 1.366 . S
C1373 C1377 1.385 . S
C1374 H1355 0.934 1_455 S
C1374 C1372 1.390 . S
C1374 C1375 1.360 . S
C1375 C1374 1.360 . S
C1375 C1376 1.440 . S
C1375 C1378 1.500 1_455 S
C1376 H1356 0.950 . S
C1376 C1375 1.440 . S
C1376 C1377 1.374 . S
C1377 H1357 0.950 . S
C1377 C1373 1.385 . S
C1377 C1376 1.374 . S
C1378 C1375 1.500 1_655 S
C1378 C1379 1.407 . S
C1378 C1380 1.389 . S
C1379 H1358 0.918 1_655 S
C1379 C1378 1.407 . S
C1379 C1395 1.376 . S
C1380 C1378 1.389 . S
C1380 C1381 1.524 . S
C1380 C1394 1.377 . S
C1381 C1380 1.524 . S
C1381 C1382 1.397 . S
C1381 C1386 1.363 . S
C1382 H1359 0.950 . S
C1382 C1381 1.397 . S
C1382 C1383 1.334 . S
C1383 H1360 0.950 . S
C1383 C1382 1.334 . S
C1383 C1384 1.287 . S
C1384 C1383 1.287 . S
C1384 C1385 1.524 . S
C1384 H1403 0.913 . S
C1385 H1361 0.950 . S
C1385 C1384 1.524 . S
C1385 C1386 1.415 . S
C1386 H1362 0.950 . S
C1386 C1381 1.363 . S
C1386 C1385 1.415 . S
C1387 H1363 0.951 . S
C1387 C1388 1.366 . S
C1387 C1389 1.388 . S
C1388 C1387 1.366 . S
C1388 C1392 1.385 . S
C1389 H1364 0.951 . S
C1389 C1387 1.388 . S
C1389 C1390 1.366 . S
C1390 C1389 1.366 . S
C1390 C1391 1.414 . S
C1390 C1393 1.499 . S
C1391 H1365 0.950 . S
C1391 C1390 1.414 . S
C1391 C1392 1.374 . S
C1392 H1366 0.950 . S
C1392 C1388 1.385 . S
C1392 C1391 1.374 . S
C1393 C1390 1.499 . S
C1393 C1394 1.373 . S
C1393 C1395 1.389 . S
C1394 H1367 0.950 . S
C1394 C1380 1.377 . S
C1394 C1393 1.373 . S
C1395 C1379 1.376 . S
C1395 C1393 1.389 . S
C1395 C1396 1.524 1_655 S
C1396 C1395 1.524 1_455 S
C1396 C1397 1.397 . S
C1396 C1401 1.363 . S
C1397 H1368 0.950 1_455 S
C1397 C1396 1.397 . S
C1397 C1398 1.334 . S
C1398 H1369 0.950 . S
C1398 C1397 1.334 . S
C1398 C1399 1.287 . S
C1399 C1398 1.287 . S
C1399 C1400 1.524 . S
C1399 H1402 0.999 . S
C1400 H1370 0.950 . S
C1400 C1399 1.524 . S
C1400 C1401 1.415 . S
C1401 H1371 0.950 . S
C1401 C1396 1.363 . S
C1401 C1400 1.415 . S
H1402 C1399 0.999 . S
H1403 C1384 0.913 . S
H1404 C1422 0.951 . S
H1405 C1424 0.951 . S
H1406 C1426 0.948 1_556 S
H1407 C1427 0.950 1_556 S
H1408 C1429 0.950 . S
H1409 C1432 0.950 . S
H1410 C1433 0.950 . S
H1411 C1435 0.950 . S
H1412 C1436 0.950 . S
H1413 C1437 0.952 . S
H1414 C1439 0.951 . S
H1415 C1441 0.950 . S
H1416 C1442 0.950 . S
H1417 C1444 0.950 . S
H1418 C1447 0.950 . S
H1419 C1448 0.950 . S
H1420 C1450 0.950 . S
H1421 C1451 0.950 . S
C1422 H1404 0.951 . S
C1422 C1423 1.366 . S
C1422 C1424 1.388 . S
C1423 C1422 1.366 . S
C1423 C1427 1.385 . S
C1424 H1405 0.951 . S
C1424 C1422 1.388 . S
C1424 C1425 1.366 . S
C1425 C1424 1.366 . S
C1425 C1426 1.414 . S
C1425 C1428 1.499 . S
C1426 H1406 0.948 1_554 S
C1426 C1425 1.414 . S
C1426 C1427 1.374 . S
C1427 H1407 0.950 1_554 S
C1427 C1423 1.385 . S
C1427 C1426 1.374 . S
C1428 C1425 1.499 . S
C1428 C1429 1.373 . S
C1428 C1430 1.389 1_554 S
C1429 H1408 0.950 . S
C1429 C1428 1.373 . S
C1429 C1445 1.377 . S
C1430 C1428 1.389 1_556 S
C1430 C1431 1.524 . S
C1430 C1444 1.377 . S
C1431 C1430 1.524 . S
C1431 C1432 1.397 . S
C1431 C1436 1.363 . S
C1432 H1409 0.950 . S
C1432 C1431 1.397 . S
C1432 C1433 1.334 . S
C1433 H1410 0.950 . S
C1433 C1432 1.334 . S
C1433 C1434 1.287 . S
C1434 C1433 1.287 . S
C1434 C1435 1.524 . S
C1434 H1453 0.913 . S
C1435 H1411 0.950 . S
C1435 C1434 1.524 . S
C1435 C1436 1.415 . S
C1436 H1412 0.950 . S
C1436 C1431 1.363 . S
C1436 C1435 1.415 . S
C1437 H1413 0.952 . S
C1437 C1438 1.366 . S
C1437 C1439 1.388 . S
C1438 C1437 1.366 . S
C1438 C1442 1.385 . S
C1439 H1414 0.951 . S
C1439 C1437 1.388 . S
C1439 C1440 1.366 . S
C1440 C1439 1.366 . S
C1440 C1441 1.414 . S
C1440 C1443 1.499 . S
C1441 H1415 0.950 . S
C1441 C1440 1.414 . S
C1441 C1442 1.374 . S
C1442 H1416 0.950 . S
C1442 C1438 1.385 . S
C1442 C1441 1.374 . S
C1443 C1440 1.499 . S
C1443 C1444 1.373 1_554 S
C1443 C1445 1.389 . S
C1444 H1417 0.950 . S
C1444 C1430 1.377 . S
C1444 C1443 1.373 1_556 S
C1445 C1429 1.377 . S
C1445 C1443 1.389 . S
C1445 C1446 1.524 . S
C1446 C1445 1.524 . S
C1446 C1447 1.397 . S
C1446 C1451 1.363 . S
C1447 H1418 0.950 . S
C1447 C1446 1.397 . S
C1447 C1448 1.334 . S
C1448 H1419 0.950 . S
C1448 C1447 1.334 . S
C1448 C1449 1.287 . S
C1449 C1448 1.287 . S
C1449 C1450 1.524 . S
C1449 H1452 0.999 . S
C1450 H1420 0.950 . S
C1450 C1449 1.524 . S
C1450 C1451 1.415 . S
C1451 H1421 0.950 . S
C1451 C1446 1.363 . S
C1451 C1450 1.415 . S
H1452 C1449 0.999 . S
H1453 C1434 0.913 . S
H1454 C1472 0.966 . S
H1455 C1474 0.951 . S
H1456 C1476 0.950 . S
H1457 C1477 0.950 . S
H1458 C1479 0.950 . S
H1459 C1482 0.950 . S
H1460 C1483 0.950 . S
H1461 C1485 0.950 . S
H1462 C1486 0.950 . S
H1463 C1487 0.951 . S
H1464 C1489 0.951 . S
H1465 C1491 0.959 . S
H1466 C1492 0.963 . S
H1467 C1494 0.950 . S
H1468 C1497 0.950 . S
H1469 C1498 0.950 . S
H1470 C1500 0.950 . S
H1471 C1501 0.950 . S
C1472 H1454 0.966 . S
C1472 C1473 1.351 1_556 S
C1472 C1474 1.389 . S
C1473 C1472 1.351 1_554 S
C1473 C1477 1.385 . S
C1474 H1455 0.951 . S
C1474 C1472 1.389 . S
C1474 C1475 1.366 1_556 S
C1475 C1474 1.366 1_554 S
C1475 C1476 1.414 . S
C1475 C1478 1.499 . S
C1476 H1456 0.950 . S
C1476 C1475 1.414 . S
C1476 C1477 1.374 . S
C1477 H1457 0.950 . S
C1477 C1473 1.385 . S
C1477 C1476 1.374 . S
C1478 C1475 1.499 . S
C1478 C1479 1.373 . S
C1478 C1480 1.389 1_554 S
C1479 H1458 0.950 . S
C1479 C1478 1.373 . S
C1479 C1495 1.377 . S
C1480 C1478 1.389 1_556 S
C1480 C1481 1.524 . S
C1480 C1494 1.377 . S
C1481 C1480 1.524 . S
C1481 C1482 1.397 . S
C1481 C1486 1.363 . S
C1482 H1459 0.950 . S
C1482 C1481 1.397 . S
C1482 C1483 1.334 . S
C1483 H1460 0.950 . S
C1483 C1482 1.334 . S
C1483 C1484 1.287 . S
C1484 C1483 1.287 . S
C1484 C1485 1.524 . S
C1484 H1503 0.913 . S
C1485 H1461 0.950 . S
C1485 C1484 1.524 . S
C1485 C1486 1.415 . S
C1486 H1462 0.950 . S
C1486 C1481 1.363 . S
C1486 C1485 1.415 . S
C1487 H1463 0.951 . S
C1487 C1488 1.366 . S
C1487 C1489 1.388 . S
C1488 C1487 1.366 . S
C1488 C1492 1.373 1_554 S
C1489 H1464 0.951 . S
C1489 C1487 1.388 . S
C1489 C1490 1.366 . S
C1490 C1489 1.366 . S
C1490 C1491 1.405 1_554 S
C1490 C1493 1.499 . S
C1491 H1465 0.959 . S
C1491 C1490 1.405 1_556 S
C1491 C1492 1.374 . S
C1492 H1466 0.963 . S
C1492 C1488 1.373 1_556 S
C1492 C1491 1.374 . S
C1493 C1490 1.499 . S
C1493 C1494 1.373 1_554 S
C1493 C1495 1.389 . S
C1494 H1467 0.950 . S
C1494 C1480 1.377 . S
C1494 C1493 1.373 1_556 S
C1495 C1479 1.377 . S
C1495 C1493 1.389 . S
C1495 C1496 1.524 . S
C1496 C1495 1.524 . S
C1496 C1497 1.397 . S
C1496 C1501 1.363 . S
C1497 H1468 0.950 . S
C1497 C1496 1.397 . S
C1497 C1498 1.334 . S
C1498 H1469 0.950 . S
C1498 C1497 1.334 . S
C1498 C1499 1.287 . S
C1499 C1498 1.287 . S
C1499 C1500 1.524 . S
C1499 H1502 0.999 . S
C1500 H1470 0.950 . S
C1500 C1499 1.524 . S
C1500 C1501 1.415 . S
C1501 H1471 0.950 . S
C1501 C1496 1.363 . S
C1501 C1500 1.415 . S
H1502 C1499 0.999 . S
H1503 C1484 0.913 . S
H1504 C1522 0.951 . S
H1505 C1524 0.951 . S
H1506 C1526 0.950 . S
H1507 C1527 0.950 . S
H1508 C1529 0.950 . S
H1509 C1532 0.950 . S
H1510 C1533 0.950 . S
H1511 C1535 0.950 . S
H1512 C1536 0.950 . S
H1513 C1537 0.951 . S
H1514 C1539 0.951 . S
H1515 C1541 0.950 . S
H1516 C1542 0.950 . S
H1517 C1544 0.950 . S
H1518 C1547 0.950 . S
H1519 C1548 0.950 . S
H1520 C1550 0.950 . S
H1521 C1551 0.950 . S
C1522 H1504 0.951 . S
C1522 C1523 1.366 1_556 S
C1522 C1524 1.388 . S
C1523 C1522 1.366 1_554 S
C1523 C1527 1.385 . S
C1524 H1505 0.951 . S
C1524 C1522 1.388 . S
C1524 C1525 1.366 1_556 S
C1525 C1524 1.366 1_554 S
C1525 C1526 1.414 . S
C1525 C1528 1.499 . S
C1526 H1506 0.950 . S
C1526 C1525 1.414 . S
C1526 C1527 1.374 . S
C1527 H1507 0.950 . S
C1527 C1523 1.385 . S
C1527 C1526 1.374 . S
C1528 C1525 1.499 . S
C1528 C1529 1.373 . S
C1528 C1530 1.389 1_554 S
C1529 H1508 0.950 . S
C1529 C1528 1.373 . S
C1529 C1545 1.377 . S
C1530 C1528 1.389 1_556 S
C1530 C1531 1.524 . S
C1530 C1544 1.377 . S
C1531 C1530 1.524 . S
C1531 C1532 1.397 . S
C1531 C1536 1.363 . S
C1532 H1509 0.950 . S
C1532 C1531 1.397 . S
C1532 C1533 1.334 . S
C1533 H1510 0.950 . S
C1533 C1532 1.334 . S
C1533 C1534 1.287 . S
C1534 C1533 1.287 . S
C1534 C1535 1.524 . S
C1534 H1553 0.913 . S
C1535 H1511 0.950 . S
C1535 C1534 1.524 . S
C1535 C1536 1.415 . S
C1536 H1512 0.950 . S
C1536 C1531 1.363 . S
C1536 C1535 1.415 . S
C1537 H1513 0.951 . S
C1537 C1538 1.366 . S
C1537 C1539 1.388 . S
C1538 C1537 1.366 . S
C1538 C1542 1.385 1_554 S
C1539 H1514 0.951 . S
C1539 C1537 1.388 . S
C1539 C1540 1.366 . S
C1540 C1539 1.366 . S
C1540 C1541 1.414 1_554 S
C1540 C1543 1.499 . S
C1541 H1515 0.950 . S
C1541 C1540 1.414 1_556 S
C1541 C1542 1.374 . S
C1542 H1516 0.950 . S
C1542 C1538 1.385 1_556 S
C1542 C1541 1.374 . S
C1543 C1540 1.499 . S
C1543 C1544 1.373 1_554 S
C1543 C1545 1.389 . S
C1544 H1517 0.950 . S
C1544 C1530 1.377 . S
C1544 C1543 1.373 1_556 S
C1545 C1529 1.377 . S
C1545 C1543 1.389 . S
C1545 C1546 1.524 . S
C1546 C1545 1.524 . S
C1546 C1547 1.397 . S
C1546 C1551 1.363 . S
C1547 H1518 0.950 . S
C1547 C1546 1.397 . S
C1547 C1548 1.334 . S
C1548 H1519 0.950 . S
C1548 C1547 1.334 . S
C1548 C1549 1.287 . S
C1549 C1548 1.287 . S
C1549 C1550 1.524 . S
C1549 H1552 0.999 . S
C1550 H1520 0.950 . S
C1550 C1549 1.524 . S
C1550 C1551 1.415 . S
C1551 H1521 0.950 . S
C1551 C1546 1.363 . S
C1551 C1550 1.415 . S
H1552 C1549 0.999 . S
H1553 C1534 0.913 . S
H1554 C1572 0.951 . S
H1555 C1574 0.951 . S
H1556 C1576 0.950 . S
H1557 C1577 0.950 . S
H1558 C1579 0.950 . S
H1559 C1582 0.950 . S
H1560 C1583 0.950 . S
H1561 C1585 0.950 1_556 S
H1562 C1586 0.950 . S
H1563 C1587 0.951 . S
H1564 C1589 0.951 . S
H1565 C1591 0.950 . S
H1566 C1592 0.950 . S
H1567 C1594 0.950 . S
H1568 C1597 0.950 . S
H1569 C1598 0.950 . S
H1570 C1600 0.950 . S
H1571 C1601 0.950 1_554 S
C1572 H1554 0.951 . S
C1572 C1573 1.366 . S
C1572 C1574 1.388 . S
C1573 C1572 1.366 . S
C1573 C1577 1.385 1_556 S
C1574 H1555 0.951 . S
C1574 C1572 1.388 . S
C1574 C1575 1.366 . S
C1575 C1574 1.366 . S
C1575 C1576 1.414 1_556 S
C1575 C1578 1.499 . S
C1576 H1556 0.950 . S
C1576 C1575 1.414 1_554 S
C1576 C1577 1.374 . S
C1577 H1557 0.950 . S
C1577 C1573 1.385 1_554 S
C1577 C1576 1.374 . S
C1578 C1575 1.499 . S
C1578 C1579 1.373 . S
C1578 C1580 1.389 . S
C1579 H1558 0.950 . S
C1579 C1578 1.373 . S
C1579 C1595 1.377 . S
C1580 C1578 1.389 . S
C1580 C1581 1.524 1_556 S
C1580 C1594 1.377 . S
C1581 C1580 1.524 1_554 S
C1581 C1582 1.397 . S
C1581 C1586 1.363 1_554 S
C1582 H1559 0.950 . S
C1582 C1581 1.397 . S
C1582 C1583 1.334 . S
C1583 H1560 0.950 . S
C1583 C1582 1.334 . S
C1583 C1584 1.287 . S
C1584 C1583 1.287 . S
C1584 C1585 1.524 . S
C1584 H1603 0.913 . S
C1585 H1561 0.950 1_554 S
C1585 C1584 1.524 . S
C1585 C1586 1.415 1_554 S
C1586 H1562 0.950 . S
C1586 C1581 1.363 1_556 S
C1586 C1585 1.415 1_556 S
C1587 H1563 0.951 . S
C1587 C1588 1.366 1_554 S
C1587 C1589 1.388 . S
C1588 C1587 1.366 1_556 S
C1588 C1592 1.385 . S
C1589 H1564 0.951 . S
C1589 C1587 1.388 . S
C1589 C1590 1.366 1_554 S
C1590 C1589 1.366 1_556 S
C1590 C1591 1.414 . S
C1590 C1593 1.499 . S
C1591 H1565 0.950 . S
C1591 C1590 1.414 . S
C1591 C1592 1.374 . S
C1592 H1566 0.950 . S
C1592 C1588 1.385 . S
C1592 C1591 1.374 . S
C1593 C1590 1.499 . S
C1593 C1594 1.373 . S
C1593 C1595 1.389 . S
C1594 H1567 0.950 . S
C1594 C1580 1.377 . S
C1594 C1593 1.373 . S
C1595 C1579 1.377 . S
C1595 C1593 1.389 . S
C1595 C1596 1.524 . S
C1596 C1595 1.524 . S
C1596 C1597 1.397 . S
C1596 C1601 1.363 . S
C1597 H1568 0.950 . S
C1597 C1596 1.397 . S
C1597 C1598 1.334 . S
C1598 H1569 0.950 . S
C1598 C1597 1.334 . S
C1598 C1599 1.287 . S
C1599 C1598 1.287 . S
C1599 C1600 1.524 . S
C1599 H1602 0.999 . S
C1600 H1570 0.950 . S
C1600 C1599 1.524 . S
C1600 C1601 1.415 . S
C1601 H1571 0.950 1_556 S
C1601 C1596 1.363 . S
C1601 C1600 1.415 . S
H1602 C1599 0.999 . S
H1603 C1584 0.913 . S
H1604 C1622 0.951 . S
H1605 C1624 0.951 . S
H1606 C1626 0.950 1_554 S
H1607 C1627 0.950 1_554 S
H1608 C1629 0.950 . S
H1609 C1632 0.950 . S
H1610 C1633 0.950 . S
H1611 C1635 0.950 . S
H1612 C1636 0.950 . S
H1613 C1637 0.951 1_554 S
H1614 C1639 0.951 1_554 S
H1615 C1641 0.950 . S
H1616 C1642 0.950 . S
H1617 C1644 0.950 . S
H1618 C1647 0.950 . S
H1619 C1648 0.950 . S
H1620 C1650 0.950 . S
H1621 C1651 0.950 . S
C1622 H1604 0.951 . S
C1622 C1623 1.366 . S
C1622 C1624 1.388 . S
C1623 C1622 1.366 . S
C1623 C1627 1.385 . S
C1624 H1605 0.951 . S
C1624 C1622 1.388 . S
C1624 C1625 1.366 . S
C1625 C1624 1.366 . S
C1625 C1626 1.414 . S
C1625 C1628 1.499 . S
C1626 H1606 0.950 1_556 S
C1626 C1625 1.414 . S
C1626 C1627 1.374 . S
C1627 H1607 0.950 1_556 S
C1627 C1623 1.385 . S
C1627 C1626 1.374 . S
C1628 C1625 1.499 . S
C1628 C1629 1.373 1_556 S
C1628 C1630 1.389 . S
C1629 H1608 0.950 . S
C1629 C1628 1.373 1_554 S
C1629 C1645 1.377 . S
C1630 C1628 1.389 . S
C1630 C1631 1.524 . S
C1630 C1644 1.377 . S
C1631 C1630 1.524 . S
C1631 C1632 1.397 . S
C1631 C1636 1.363 . S
C1632 H1609 0.950 . S
C1632 C1631 1.397 . S
C1632 C1633 1.334 . S
C1633 H1610 0.950 . S
C1633 C1632 1.334 . S
C1633 C1634 1.287 . S
C1634 C1633 1.287 . S
C1634 C1635 1.524 . S
C1634 H1653 0.913 . S
C1635 H1611 0.950 . S
C1635 C1634 1.524 . S
C1635 C1636 1.415 . S
C1636 H1612 0.950 . S
C1636 C1631 1.363 . S
C1636 C1635 1.415 . S
C1637 H1613 0.951 1_556 S
C1637 C1638 1.366 . S
C1637 C1639 1.388 . S
C1638 C1637 1.366 . S
C1638 C1642 1.385 . S
C1639 H1614 0.951 1_556 S
C1639 C1637 1.388 . S
C1639 C1640 1.366 . S
C1640 C1639 1.366 . S
C1640 C1641 1.414 . S
C1640 C1643 1.499 . S
C1641 H1615 0.950 . S
C1641 C1640 1.414 . S
C1641 C1642 1.374 . S
C1642 H1616 0.950 . S
C1642 C1638 1.385 . S
C1642 C1641 1.374 . S
C1643 C1640 1.499 . S
C1643 C1644 1.373 . S
C1643 C1645 1.389 1_556 S
C1644 H1617 0.950 . S
C1644 C1630 1.377 . S
C1644 C1643 1.373 . S
C1645 C1629 1.377 . S
C1645 C1643 1.389 1_554 S
C1645 C1646 1.524 . S
C1646 C1645 1.524 . S
C1646 C1647 1.397 . S
C1646 C1651 1.363 . S
C1647 H1618 0.950 . S
C1647 C1646 1.397 . S
C1647 C1648 1.334 . S
C1648 H1619 0.950 . S
C1648 C1647 1.334 . S
C1648 C1649 1.287 . S
C1649 C1648 1.287 . S
C1649 C1650 1.524 . S
C1649 H1652 0.999 . S
C1650 H1620 0.950 . S
C1650 C1649 1.524 . S
C1650 C1651 1.415 . S
C1651 H1621 0.950 . S
C1651 C1646 1.363 . S
C1651 C1650 1.415 . S
H1652 C1649 0.999 . S
H1653 C1634 0.913 . S
H1654 C1672 0.951 . S
H1655 C1674 0.951 . S
H1656 C1676 0.950 . S
H1657 C1677 0.950 . S
H1658 C1679 0.950 . S
H1659 C1682 0.950 . S
H1660 C1683 0.950 . S
H1661 C1685 0.950 1_556 S
H1662 C1686 0.950 . S
H1663 C1687 0.951 . S
H1664 C1689 0.951 . S
H1665 C1691 0.950 . S
H1666 C1692 0.950 . S
H1667 C1694 0.950 . S
H1668 C1697 0.950 . S
H1669 C1698 0.950 . S
H1670 C1700 0.950 . S
H1671 C1701 0.980 . S
C1672 H1654 0.951 . S
C1672 C1673 1.366 . S
C1672 C1674 1.388 . S
C1673 C1672 1.366 . S
C1673 C1677 1.385 1_556 S
C1674 H1655 0.951 . S
C1674 C1672 1.388 . S
C1674 C1675 1.366 . S
C1675 C1674 1.366 . S
C1675 C1676 1.414 1_556 S
C1675 C1678 1.499 . S
C1676 H1656 0.950 . S
C1676 C1675 1.414 1_554 S
C1676 C1677 1.374 . S
C1677 H1657 0.950 . S
C1677 C1673 1.385 1_554 S
C1677 C1676 1.374 . S
C1678 C1675 1.499 . S
C1678 C1679 1.373 . S
C1678 C1680 1.389 . S
C1679 H1658 0.950 . S
C1679 C1678 1.373 . S
C1679 C1695 1.377 . S
C1680 C1678 1.389 . S
C1680 C1681 1.524 1_556 S
C1680 C1694 1.377 . S
C1681 C1680 1.524 1_554 S
C1681 C1682 1.397 . S
C1681 C1686 1.363 1_554 S
C1682 H1659 0.950 . S
C1682 C1681 1.397 . S
C1682 C1683 1.334 . S
C1683 H1660 0.950 . S
C1683 C1682 1.334 . S
C1683 C1684 1.287 . S
C1684 C1683 1.287 . S
C1684 C1685 1.524 . S
C1684 H1703 0.913 . S
C1685 H1661 0.950 1_554 S
C1685 C1684 1.524 . S
C1685 C1686 1.415 1_554 S
C1686 H1662 0.950 . S
C1686 C1681 1.363 1_556 S
C1686 C1685 1.415 1_556 S
C1687 H1663 0.951 . S
C1687 C1688 1.366 1_554 S
C1687 C1689 1.388 . S
C1688 C1687 1.366 1_556 S
C1688 C1692 1.385 . S
C1689 H1664 0.951 . S
C1689 C1687 1.388 . S
C1689 C1690 1.366 1_554 S
C1690 C1689 1.366 1_556 S
C1690 C1691 1.414 . S
C1690 C1693 1.499 . S
C1691 H1665 0.950 . S
C1691 C1690 1.414 . S
C1691 C1692 1.374 . S
C1692 H1666 0.950 . S
C1692 C1688 1.385 . S
C1692 C1691 1.374 . S
C1693 C1690 1.499 . S
C1693 C1694 1.373 . S
C1693 C1695 1.389 . S
C1694 H1667 0.950 . S
C1694 C1680 1.377 . S
C1694 C1693 1.373 . S
C1695 C1679 1.377 . S
C1695 C1693 1.389 . S
C1695 C1696 1.524 . S
C1696 C1695 1.524 . S
C1696 C1697 1.397 . S
C1696 C1701 1.363 . S
C1697 H1668 0.950 . S
C1697 C1696 1.397 . S
C1697 C1698 1.334 . S
C1698 H1669 0.950 . S
C1698 C1697 1.334 . S
C1698 C1699 1.287 . S
C1699 C1698 1.287 . S
C1699 C1700 1.524 . S
C1699 H1702 0.999 . S
C1700 H1670 0.950 . S
C1700 C1699 1.524 . S
C1700 C1701 1.415 . S
C1701 H1671 0.980 . S
C1701 C1696 1.363 . S
C1701 C1700 1.415 . S
H1702 C1699 0.999 . S
H1703 C1684 0.913 . S
H1704 C1722 0.951 . S
H1705 C1724 0.951 . S
H1706 C1726 0.950 . S
H1707 C1727 0.950 . S
H1708 C1729 0.950 . S
H1709 C1732 0.950 . S
H1710 C1733 0.950 . S
H1711 C1735 0.950 . S
H1712 C1736 0.950 . S
H1713 C1737 0.951 . S
H1714 C1739 0.951 . S
H1715 C1741 0.950 . S
H1716 C1742 0.950 . S
H1717 C1744 0.950 . S
H1718 C1747 0.950 . S
H1719 C1748 0.950 . S
H1720 C1750 0.950 . S
H1721 C1751 0.950 . S
C1722 H1704 0.951 . S
C1722 C1723 1.366 . S
C1722 C1724 1.388 . S
C1723 C1722 1.366 . S
C1723 C1727 1.385 . S
C1724 H1705 0.951 . S
C1724 C1722 1.388 . S
C1724 C1725 1.366 . S
C1725 C1724 1.366 . S
C1725 C1726 1.414 . S
C1725 C1728 1.499 . S
C1726 H1706 0.950 . S
C1726 C1725 1.414 . S
C1726 C1727 1.374 . S
C1727 H1707 0.950 . S
C1727 C1723 1.385 . S
C1727 C1726 1.374 . S
C1728 C1725 1.499 . S
C1728 C1729 1.373 . S
C1728 C1730 1.389 . S
C1729 H1708 0.950 . S
C1729 C1728 1.373 . S
C1729 C1745 1.377 . S
C1730 C1728 1.389 . S
C1730 C1731 1.524 . S
C1730 C1744 1.377 . S
C1731 C1730 1.524 . S
C1731 C1732 1.397 . S
C1731 C1736 1.363 . S
C1732 H1709 0.950 . S
C1732 C1731 1.397 . S
C1732 C1733 1.334 . S
C1733 H1710 0.950 . S
C1733 C1732 1.334 . S
C1733 C1734 1.287 . S
C1734 C1733 1.287 . S
C1734 C1735 1.524 . S
C1734 H1753 0.913 . S
C1735 H1711 0.950 . S
C1735 C1734 1.524 . S
C1735 C1736 1.415 . S
C1736 H1712 0.950 . S
C1736 C1731 1.363 . S
C1736 C1735 1.415 . S
C1737 H1713 0.951 . S
C1737 C1738 1.366 . S
C1737 C1739 1.388 . S
C1738 C1737 1.366 . S
C1738 C1742 1.385 . S
C1739 H1714 0.951 . S
C1739 C1737 1.388 . S
C1739 C1740 1.366 . S
C1740 C1739 1.366 . S
C1740 C1741 1.414 . S
C1740 C1743 1.499 . S
C1741 H1715 0.950 . S
C1741 C1740 1.414 . S
C1741 C1742 1.374 . S
C1742 H1716 0.950 . S
C1742 C1738 1.385 . S
C1742 C1741 1.374 . S
C1743 C1740 1.499 . S
C1743 C1744 1.373 . S
C1743 C1745 1.389 . S
C1744 H1717 0.950 . S
C1744 C1730 1.377 . S
C1744 C1743 1.373 . S
C1745 C1729 1.377 . S
C1745 C1743 1.389 . S
C1745 C1746 1.524 . S
C1746 C1745 1.524 . S
C1746 C1747 1.397 . S
C1746 C1751 1.363 . S
C1747 H1718 0.950 . S
C1747 C1746 1.397 . S
C1747 C1748 1.334 . S
C1748 H1719 0.950 . S
C1748 C1747 1.334 . S
C1748 C1749 1.287 . S
C1749 C1748 1.287 . S
C1749 C1750 1.524 . S
C1749 H1752 0.999 . S
C1750 H1720 0.950 . S
C1750 C1749 1.524 . S
C1750 C1751 1.415 . S
C1751 H1721 0.950 . S
C1751 C1746 1.363 . S
C1751 C1750 1.415 . S
H1752 C1749 0.999 . S
H1753 C1734 0.913 . S
H1754 C1772 0.951 . S
H1755 C1774 0.951 . S
H1756 C1776 0.950 . S
H1757 C1777 0.950 . S
H1758 C1779 0.950 . S
H1759 C1782 0.950 . S
H1760 C1783 0.950 . S
H1761 C1785 0.950 . S
H1762 C1786 0.950 . S
H1763 C1787 0.951 . S
H1764 C1789 0.951 . S
H1765 C1791 0.950 . S
H1766 C1792 0.950 . S
H1767 C1794 0.950 . S
H1768 C1797 0.950 . S
H1769 C1798 0.950 . S
H1770 C1800 0.950 . S
H1771 C1801 0.950 . S
C1772 H1754 0.951 . S
C1772 C1773 1.366 . S
C1772 C1774 1.388 . S
C1773 C1772 1.366 . S
C1773 C1777 1.385 . S
C1774 H1755 0.951 . S
C1774 C1772 1.388 . S
C1774 C1775 1.366 . S
C1775 C1774 1.366 . S
C1775 C1776 1.414 . S
C1775 C1778 1.499 . S
C1776 H1756 0.950 . S
C1776 C1775 1.414 . S
C1776 C1777 1.374 . S
C1777 H1757 0.950 . S
C1777 C1773 1.385 . S
C1777 C1776 1.374 . S
C1778 C1775 1.499 . S
C1778 C1779 1.373 . S
C1778 C1780 1.389 . S
C1779 H1758 0.950 . S
C1779 C1778 1.373 . S
C1779 C1795 1.377 . S
C1780 C1778 1.389 . S
C1780 C1781 1.524 . S
C1780 C1794 1.377 . S
C1781 C1780 1.524 . S
C1781 C1782 1.397 . S
C1781 C1786 1.363 . S
C1782 H1759 0.950 . S
C1782 C1781 1.397 . S
C1782 C1783 1.334 . S
C1783 H1760 0.950 . S
C1783 C1782 1.334 . S
C1783 C1784 1.287 . S
C1784 C1783 1.287 . S
C1784 C1785 1.524 . S
C1784 H1803 0.913 . S
C1785 H1761 0.950 . S
C1785 C1784 1.524 . S
C1785 C1786 1.415 . S
C1786 H1762 0.950 . S
C1786 C1781 1.363 . S
C1786 C1785 1.415 . S
C1787 H1763 0.951 . S
C1787 C1788 1.366 . S
C1787 C1789 1.388 . S
C1788 C1787 1.366 . S
C1788 C1792 1.385 . S
C1789 H1764 0.951 . S
C1789 C1787 1.388 . S
C1789 C1790 1.366 . S
C1790 C1789 1.366 . S
C1790 C1791 1.414 . S
C1790 C1793 1.499 . S
C1791 H1765 0.950 . S
C1791 C1790 1.414 . S
C1791 C1792 1.374 . S
C1792 H1766 0.950 . S
C1792 C1788 1.385 . S
C1792 C1791 1.374 . S
C1793 C1790 1.499 . S
C1793 C1794 1.373 . S
C1793 C1795 1.389 . S
C1794 H1767 0.950 . S
C1794 C1780 1.377 . S
C1794 C1793 1.373 . S
C1795 C1779 1.377 . S
C1795 C1793 1.389 . S
C1795 C1796 1.524 . S
C1796 C1795 1.524 . S
C1796 C1797 1.397 . S
C1796 C1801 1.363 . S
C1797 H1768 0.950 . S
C1797 C1796 1.397 . S
C1797 C1798 1.334 . S
C1798 H1769 0.950 . S
C1798 C1797 1.334 . S
C1798 C1799 1.287 . S
C1799 C1798 1.287 . S
C1799 C1800 1.524 . S
C1799 H1802 0.999 . S
C1800 H1770 0.950 . S
C1800 C1799 1.524 . S
C1800 C1801 1.415 . S
C1801 H1771 0.950 . S
C1801 C1796 1.363 . S
C1801 C1800 1.415 . S
H1802 C1799 0.999 . S
H1803 C1784 0.913 . S
H1804 C1822 0.951 . S
H1805 C1824 0.951 . S
H1806 C1826 0.950 . S
H1807 C1827 0.950 . S
H1808 C1829 0.950 . S
H1809 C1832 0.950 . S
H1810 C1833 0.950 . S
H1811 C1835 0.950 . S
H1812 C1836 0.950 . S
H1813 C1837 0.951 . S
H1814 C1839 0.951 . S
H1815 C1841 0.950 . S
H1816 C1842 0.950 . S
H1817 C1844 0.950 . S
H1818 C1847 0.950 . S
H1819 C1848 0.950 . S
H1820 C1850 0.950 . S
H1821 C1851 0.950 . S
C1822 H1804 0.951 . S
C1822 C1823 1.366 . S
C1822 C1824 1.388 . S
C1823 C1822 1.366 . S
C1823 C1827 1.385 . S
C1824 H1805 0.951 . S
C1824 C1822 1.388 . S
C1824 C1825 1.366 . S
C1825 C1824 1.366 . S
C1825 C1826 1.414 . S
C1825 C1828 1.499 . S
C1826 H1806 0.950 . S
C1826 C1825 1.414 . S
C1826 C1827 1.374 . S
C1827 H1807 0.950 . S
C1827 C1823 1.385 . S
C1827 C1826 1.374 . S
C1828 C1825 1.499 . S
C1828 C1829 1.373 . S
C1828 C1830 1.389 . S
C1829 H1808 0.950 . S
C1829 C1828 1.373 . S
C1829 C1845 1.377 . S
C1830 C1828 1.389 . S
C1830 C1831 1.524 . S
C1830 C1844 1.377 . S
C1831 C1830 1.524 . S
C1831 C1832 1.397 . S
C1831 C1836 1.363 . S
C1832 H1809 0.950 . S
C1832 C1831 1.397 . S
C1832 C1833 1.334 . S
C1833 H1810 0.950 . S
C1833 C1832 1.334 . S
C1833 C1834 1.287 . S
C1834 C1833 1.287 . S
C1834 C1835 1.524 . S
C1834 H1853 0.913 . S
C1835 H1811 0.950 . S
C1835 C1834 1.524 . S
C1835 C1836 1.415 . S
C1836 H1812 0.950 . S
C1836 C1831 1.363 . S
C1836 C1835 1.415 . S
C1837 H1813 0.951 . S
C1837 C1838 1.366 . S
C1837 C1839 1.388 . S
C1838 C1837 1.366 . S
C1838 C1842 1.385 . S
C1839 H1814 0.951 . S
C1839 C1837 1.388 . S
C1839 C1840 1.366 . S
C1840 C1839 1.366 . S
C1840 C1841 1.414 . S
C1840 C1843 1.499 . S
C1841 H1815 0.950 . S
C1841 C1840 1.414 . S
C1841 C1842 1.374 . S
C1842 H1816 0.950 . S
C1842 C1838 1.385 . S
C1842 C1841 1.374 . S
C1843 C1840 1.499 . S
C1843 C1844 1.373 . S
C1843 C1845 1.389 . S
C1844 H1817 0.950 . S
C1844 C1830 1.377 . S
C1844 C1843 1.373 . S
C1845 C1829 1.377 . S
C1845 C1843 1.389 . S
C1845 C1846 1.524 . S
C1846 C1845 1.524 . S
C1846 C1847 1.397 . S
C1846 C1851 1.363 . S
C1847 H1818 0.950 . S
C1847 C1846 1.397 . S
C1847 C1848 1.334 . S
C1848 H1819 0.950 . S
C1848 C1847 1.334 . S
C1848 C1849 1.287 . S
C1849 C1848 1.287 . S
C1849 C1850 1.524 . S
C1849 H1852 0.999 . S
C1850 H1820 0.950 . S
C1850 C1849 1.524 . S
C1850 C1851 1.415 . S
C1851 H1821 0.950 . S
C1851 C1846 1.363 . S
C1851 C1850 1.415 . S
H1852 C1849 0.999 . S
H1853 C1834 0.913 . S
H1854 C1872 0.951 . S
H1855 C1874 0.951 . S
H1856 C1876 0.950 . S
H1857 C1877 0.950 . S
H1858 C1879 0.950 . S
H1859 C1882 0.950 . S
H1860 C1883 0.950 . S
H1861 C1885 0.950 . S
H1862 C1886 0.950 . S
H1863 C1887 0.951 . S
H1864 C1889 0.951 . S
H1865 C1891 0.950 . S
H1866 C1892 0.950 . S
H1867 C1894 0.950 . S
H1868 C1897 0.950 . S
H1869 C1898 0.950 . S
H1870 C1900 0.950 . S
H1871 C1901 0.950 . S
C1872 H1854 0.951 . S
C1872 C1873 1.366 . S
C1872 C1874 1.388 . S
C1873 C1872 1.366 . S
C1873 C1877 1.385 . S
C1874 H1855 0.951 . S
C1874 C1872 1.388 . S
C1874 C1875 1.366 . S
C1875 C1874 1.366 . S
C1875 C1876 1.414 . S
C1875 C1878 1.499 . S
C1876 H1856 0.950 . S
C1876 C1875 1.414 . S
C1876 C1877 1.374 . S
C1877 H1857 0.950 . S
C1877 C1873 1.385 . S
C1877 C1876 1.374 . S
C1878 C1875 1.499 . S
C1878 C1879 1.373 . S
C1878 C1880 1.389 . S
C1879 H1858 0.950 . S
C1879 C1878 1.373 . S
C1879 C1895 1.377 . S
C1880 C1878 1.389 . S
C1880 C1881 1.524 . S
C1880 C1894 1.377 . S
C1881 C1880 1.524 . S
C1881 C1882 1.397 . S
C1881 C1886 1.363 . S
C1882 H1859 0.950 . S
C1882 C1881 1.397 . S
C1882 C1883 1.334 . S
C1883 H1860 0.950 . S
C1883 C1882 1.334 . S
C1883 C1884 1.287 . S
C1884 C1883 1.287 . S
C1884 C1885 1.524 . S
C1884 H1903 0.913 . S
C1885 H1861 0.950 . S
C1885 C1884 1.524 . S
C1885 C1886 1.415 . S
C1886 H1862 0.950 . S
C1886 C1881 1.363 . S
C1886 C1885 1.415 . S
C1887 H1863 0.951 . S
C1887 C1888 1.366 . S
C1887 C1889 1.388 . S
C1888 C1887 1.366 . S
C1888 C1892 1.385 . S
C1889 H1864 0.951 . S
C1889 C1887 1.388 . S
C1889 C1890 1.366 . S
C1890 C1889 1.366 . S
C1890 C1891 1.414 . S
C1890 C1893 1.499 . S
C1891 H1865 0.950 . S
C1891 C1890 1.414 . S
C1891 C1892 1.374 . S
C1892 H1866 0.950 . S
C1892 C1888 1.385 . S
C1892 C1891 1.374 . S
C1893 C1890 1.499 . S
C1893 C1894 1.373 . S
C1893 C1895 1.389 . S
C1894 H1867 0.950 . S
C1894 C1880 1.377 . S
C1894 C1893 1.373 . S
C1895 C1879 1.377 . S
C1895 C1893 1.389 . S
C1895 C1896 1.524 . S
C1896 C1895 1.524 . S
C1896 C1897 1.397 . S
C1896 C1901 1.363 . S
C1897 H1868 0.950 . S
C1897 C1896 1.397 . S
C1897 C1898 1.334 . S
C1898 H1869 0.950 . S
C1898 C1897 1.334 . S
C1898 C1899 1.287 . S
C1899 C1898 1.287 . S
C1899 C1900 1.524 . S
C1899 H1902 0.999 . S
C1900 H1870 0.950 . S
C1900 C1899 1.524 . S
C1900 C1901 1.415 . S
C1901 H1871 0.950 . S
C1901 C1896 1.363 . S
C1901 C1900 1.415 . S
H1902 C1899 0.999 . S
H1903 C1884 0.913 . S
H1904 C1922 0.951 . S
H1905 C1924 0.951 . S
H1906 C1926 0.950 . S
H1907 C1927 0.950 . S
H1908 C1929 0.950 . S
H1909 C1932 0.950 . S
H1910 C1933 0.950 . S
H1911 C1935 0.950 . S
H1912 C1936 0.950 . S
H1913 C1937 0.951 . S
H1914 C1939 0.951 . S
H1915 C1941 0.950 . S
H1916 C1942 0.950 . S
H1917 C1944 0.950 . S
H1918 C1947 0.950 . S
H1919 C1948 0.950 . S
H1920 C1950 0.950 . S
H1921 C1951 0.950 . S
C1922 H1904 0.951 . S
C1922 C1923 1.366 . S
C1922 C1924 1.388 . S
C1923 C1922 1.366 . S
C1923 C1927 1.385 . S
C1924 H1905 0.951 . S
C1924 C1922 1.388 . S
C1924 C1925 1.366 . S
C1925 C1924 1.366 . S
C1925 C1926 1.414 . S
C1925 C1928 1.499 . S
C1926 H1906 0.950 . S
C1926 C1925 1.414 . S
C1926 C1927 1.374 . S
C1927 H1907 0.950 . S
C1927 C1923 1.385 . S
C1927 C1926 1.374 . S
C1928 C1925 1.499 . S
C1928 C1929 1.373 . S
C1928 C1930 1.389 . S
C1929 H1908 0.950 . S
C1929 C1928 1.373 . S
C1929 C1945 1.377 . S
C1930 C1928 1.389 . S
C1930 C1931 1.524 . S
C1930 C1944 1.377 . S
C1931 C1930 1.524 . S
C1931 C1932 1.397 . S
C1931 C1936 1.363 . S
C1932 H1909 0.950 . S
C1932 C1931 1.397 . S
C1932 C1933 1.334 . S
C1933 H1910 0.950 . S
C1933 C1932 1.334 . S
C1933 C1934 1.287 . S
C1934 C1933 1.287 . S
C1934 C1935 1.524 . S
C1934 H1953 0.913 . S
C1935 H1911 0.950 . S
C1935 C1934 1.524 . S
C1935 C1936 1.415 . S
C1936 H1912 0.950 . S
C1936 C1931 1.363 . S
C1936 C1935 1.415 . S
C1937 H1913 0.951 . S
C1937 C1938 1.366 . S
C1937 C1939 1.388 . S
C1938 C1937 1.366 . S
C1938 C1942 1.385 . S
C1939 H1914 0.951 . S
C1939 C1937 1.388 . S
C1939 C1940 1.366 . S
C1940 C1939 1.366 . S
C1940 C1941 1.414 . S
C1940 C1943 1.499 . S
C1941 H1915 0.950 . S
C1941 C1940 1.414 . S
C1941 C1942 1.374 . S
C1942 H1916 0.950 . S
C1942 C1938 1.385 . S
C1942 C1941 1.374 . S
C1943 C1940 1.499 . S
C1943 C1944 1.373 . S
C1943 C1945 1.389 . S
C1944 H1917 0.950 . S
C1944 C1930 1.377 . S
C1944 C1943 1.373 . S
C1945 C1929 1.377 . S
C1945 C1943 1.389 . S
C1945 C1946 1.524 . S
C1946 C1945 1.524 . S
C1946 C1947 1.397 . S
C1946 C1951 1.363 . S
C1947 H1918 0.950 . S
C1947 C1946 1.397 . S
C1947 C1948 1.334 . S
C1948 H1919 0.950 . S
C1948 C1947 1.334 . S
C1948 C1949 1.287 . S
C1949 C1948 1.287 . S
C1949 C1950 1.524 . S
C1949 H1952 0.999 . S
C1950 H1920 0.950 . S
C1950 C1949 1.524 . S
C1950 C1951 1.415 . S
C1951 H1921 0.950 . S
C1951 C1946 1.363 . S
C1951 C1950 1.415 . S
H1952 C1949 0.999 . S
H1953 C1934 0.913 . S
H1954 C1972 0.951 . S
H1955 C1974 0.951 . S
H1956 C1976 0.950 . S
H1957 C1977 0.950 . S
H1958 C1979 0.950 . S
H1959 C1982 0.950 . S
H1960 C1983 0.950 . S
H1961 C1985 0.950 . S
H1962 C1986 0.950 . S
H1963 C1987 0.951 . S
H1964 C1989 0.951 . S
H1965 C1991 0.950 . S
H1966 C1992 0.950 . S
H1967 C1994 0.950 . S
H1968 C1997 0.950 . S
H1969 C1998 0.950 . S
H1970 C2000 0.950 . S
H1971 C2001 0.950 . S
C1972 H1954 0.951 . S
C1972 C1973 1.366 . S
C1972 C1974 1.388 . S
C1973 C1972 1.366 . S
C1973 C1977 1.385 . S
C1974 H1955 0.951 . S
C1974 C1972 1.388 . S
C1974 C1975 1.366 . S
C1975 C1974 1.366 . S
C1975 C1976 1.414 . S
C1975 C1978 1.499 . S
C1976 H1956 0.950 . S
C1976 C1975 1.414 . S
C1976 C1977 1.374 . S
C1977 H1957 0.950 . S
C1977 C1973 1.385 . S
C1977 C1976 1.374 . S
C1978 C1975 1.499 . S
C1978 C1979 1.373 . S
C1978 C1980 1.389 . S
C1979 H1958 0.950 . S
C1979 C1978 1.373 . S
C1979 C1995 1.377 . S
C1980 C1978 1.389 . S
C1980 C1981 1.524 . S
C1980 C1994 1.377 . S
C1981 C1980 1.524 . S
C1981 C1982 1.397 . S
C1981 C1986 1.363 . S
C1982 H1959 0.950 . S
C1982 C1981 1.397 . S
C1982 C1983 1.334 . S
C1983 H1960 0.950 . S
C1983 C1982 1.334 . S
C1983 C1984 1.287 . S
C1984 C1983 1.287 . S
C1984 C1985 1.524 . S
C1984 H2003 0.913 . S
C1985 H1961 0.950 . S
C1985 C1984 1.524 . S
C1985 C1986 1.415 . S
C1986 H1962 0.950 . S
C1986 C1981 1.363 . S
C1986 C1985 1.415 . S
C1987 H1963 0.951 . S
C1987 C1988 1.366 . S
C1987 C1989 1.388 . S
C1988 C1987 1.366 . S
C1988 C1992 1.385 . S
C1989 H1964 0.951 . S
C1989 C1987 1.388 . S
C1989 C1990 1.366 . S
C1990 C1989 1.366 . S
C1990 C1991 1.414 . S
C1990 C1993 1.499 . S
C1991 H1965 0.950 . S
C1991 C1990 1.414 . S
C1991 C1992 1.374 . S
C1992 H1966 0.950 . S
C1992 C1988 1.385 . S
C1992 C1991 1.374 . S
C1993 C1990 1.499 . S
C1993 C1994 1.373 . S
C1993 C1995 1.389 . S
C1994 H1967 0.950 . S
C1994 C1980 1.377 . S
C1994 C1993 1.373 . S
C1995 C1979 1.377 . S
C1995 C1993 1.389 . S
C1995 C1996 1.524 . S
C1996 C1995 1.524 . S
C1996 C1997 1.397 . S
C1996 C2001 1.363 . S
C1997 H1968 0.950 . S
C1997 C1996 1.397 . S
C1997 C1998 1.334 . S
C1998 H1969 0.950 . S
C1998 C1997 1.334 . S
C1998 C1999 1.287 . S
C1999 C1998 1.287 . S
C1999 C2000 1.524 . S
C1999 H2002 0.999 . S
C2000 H1970 0.950 . S
C2000 C1999 1.524 . S
C2000 C2001 1.415 . S
C2001 H1971 0.950 . S
C2001 C1996 1.363 . S
C2001 C2000 1.415 . S
H2002 C1999 0.999 . S
H2003 C1984 0.913 . S
H2004 C2022 0.951 . S
H2005 C2024 0.951 . S
H2006 C2026 0.950 . S
H2007 C2027 0.950 . S
H2008 C2029 0.950 . S
H2009 C2032 0.950 . S
H2010 C2033 0.950 . S
H2011 C2035 0.950 . S
H2012 C2036 0.950 . S
H2013 C2037 0.951 . S
H2014 C2039 0.951 . S
H2015 C2041 0.950 . S
H2016 C2042 0.950 . S
H2017 C2044 0.950 . S
H2018 C2047 0.950 . S
H2019 C2048 0.950 . S
H2020 C2050 0.950 . S
H2021 C2051 0.950 . S
C2022 H2004 0.951 . S
C2022 C2023 1.366 . S
C2022 C2024 1.388 . S
C2023 C2022 1.366 . S
C2023 C2027 1.385 . S
C2024 H2005 0.951 . S
C2024 C2022 1.388 . S
C2024 C2025 1.366 . S
C2025 C2024 1.366 . S
C2025 C2026 1.414 . S
C2025 C2028 1.499 . S
C2026 H2006 0.950 . S
C2026 C2025 1.414 . S
C2026 C2027 1.374 . S
C2027 H2007 0.950 . S
C2027 C2023 1.385 . S
C2027 C2026 1.374 . S
C2028 C2025 1.499 . S
C2028 C2029 1.373 . S
C2028 C2030 1.389 . S
C2029 H2008 0.950 . S
C2029 C2028 1.373 . S
C2029 C2045 1.377 . S
C2030 C2028 1.389 . S
C2030 C2031 1.524 . S
C2030 C2044 1.377 . S
C2031 C2030 1.524 . S
C2031 C2032 1.397 . S
C2031 C2036 1.363 . S
C2032 H2009 0.950 . S
C2032 C2031 1.397 . S
C2032 C2033 1.334 . S
C2033 H2010 0.950 . S
C2033 C2032 1.334 . S
C2033 C2034 1.287 . S
C2034 C2033 1.287 . S
C2034 C2035 1.524 . S
C2034 H2053 0.913 . S
C2035 H2011 0.950 . S
C2035 C2034 1.524 . S
C2035 C2036 1.415 . S
C2036 H2012 0.950 . S
C2036 C2031 1.363 . S
C2036 C2035 1.415 . S
C2037 H2013 0.951 . S
C2037 C2038 1.366 . S
C2037 C2039 1.388 . S
C2038 C2037 1.366 . S
C2038 C2042 1.385 . S
C2039 H2014 0.951 . S
C2039 C2037 1.388 . S
C2039 C2040 1.366 . S
C2040 C2039 1.366 . S
C2040 C2041 1.414 . S
C2040 C2043 1.499 . S
C2041 H2015 0.950 . S
C2041 C2040 1.414 . S
C2041 C2042 1.374 . S
C2042 H2016 0.950 . S
C2042 C2038 1.385 . S
C2042 C2041 1.374 . S
C2043 C2040 1.499 . S
C2043 C2044 1.373 . S
C2043 C2045 1.389 . S
C2044 H2017 0.950 . S
C2044 C2030 1.377 . S
C2044 C2043 1.373 . S
C2045 C2029 1.377 . S
C2045 C2043 1.389 . S
C2045 C2046 1.524 . S
C2046 C2045 1.524 . S
C2046 C2047 1.397 . S
C2046 C2051 1.363 . S
C2047 H2018 0.950 . S
C2047 C2046 1.397 . S
C2047 C2048 1.334 . S
C2048 H2019 0.950 . S
C2048 C2047 1.334 . S
C2048 C2049 1.287 . S
C2049 C2048 1.287 . S
C2049 C2050 1.524 . S
C2049 H2052 0.999 . S
C2050 H2020 0.950 . S
C2050 C2049 1.524 . S
C2050 C2051 1.415 . S
C2051 H2021 0.950 . S
C2051 C2046 1.363 . S
C2051 C2050 1.415 . S
H2052 C2049 0.999 . S
H2053 C2034 0.913 . S
H2054 C2072 0.951 . S
H2055 C2074 0.951 . S
H2056 C2076 0.950 . S
H2057 C2077 0.950 . S
H2058 C2079 0.950 . S
H2059 C2082 0.950 . S
H2060 C2083 0.950 . S
H2061 C2085 0.950 . S
H2062 C2086 0.950 . S
H2063 C2087 0.951 . S
H2064 C2089 0.951 . S
H2065 C2091 0.950 . S
H2066 C2092 0.950 . S
H2067 C2094 0.950 . S
H2068 C2097 0.950 . S
H2069 C2098 0.950 . S
H2070 C2100 0.950 . S
H2071 C2101 0.950 . S
C2072 H2054 0.951 . S
C2072 C2073 1.366 . S
C2072 C2074 1.388 . S
C2073 C2072 1.366 . S
C2073 C2077 1.385 . S
C2074 H2055 0.951 . S
C2074 C2072 1.388 . S
C2074 C2075 1.366 . S
C2075 C2074 1.366 . S
C2075 C2076 1.414 . S
C2075 C2078 1.499 . S
C2076 H2056 0.950 . S
C2076 C2075 1.414 . S
C2076 C2077 1.374 . S
C2077 H2057 0.950 . S
C2077 C2073 1.385 . S
C2077 C2076 1.374 . S
C2078 C2075 1.499 . S
C2078 C2079 1.373 . S
C2078 C2080 1.389 . S
C2079 H2058 0.950 . S
C2079 C2078 1.373 . S
C2079 C2095 1.377 . S
C2080 C2078 1.389 . S
C2080 C2081 1.524 . S
C2080 C2094 1.377 . S
C2081 C2080 1.524 . S
C2081 C2082 1.397 . S
C2081 C2086 1.363 . S
C2082 H2059 0.950 . S
C2082 C2081 1.397 . S
C2082 C2083 1.334 . S
C2083 H2060 0.950 . S
C2083 C2082 1.334 . S
C2083 C2084 1.287 . S
C2084 C2083 1.287 . S
C2084 C2085 1.524 . S
C2084 H2103 0.913 . S
C2085 H2061 0.950 . S
C2085 C2084 1.524 . S
C2085 C2086 1.415 . S
C2086 H2062 0.950 . S
C2086 C2081 1.363 . S
C2086 C2085 1.415 . S
C2087 H2063 0.951 . S
C2087 C2088 1.366 . S
C2087 C2089 1.388 . S
C2088 C2087 1.366 . S
C2088 C2092 1.385 . S
C2089 H2064 0.951 . S
C2089 C2087 1.388 . S
C2089 C2090 1.366 . S
C2090 C2089 1.366 . S
C2090 C2091 1.414 . S
C2090 C2093 1.499 . S
C2091 H2065 0.950 . S
C2091 C2090 1.414 . S
C2091 C2092 1.374 . S
C2092 H2066 0.950 . S
C2092 C2088 1.385 . S
C2092 C2091 1.374 . S
C2093 C2090 1.499 . S
C2093 C2094 1.373 . S
C2093 C2095 1.389 . S
C2094 H2067 0.950 . S
C2094 C2080 1.377 . S
C2094 C2093 1.373 . S
C2095 C2079 1.377 . S
C2095 C2093 1.389 . S
C2095 C2096 1.524 . S
C2096 C2095 1.524 . S
C2096 C2097 1.397 . S
C2096 C2101 1.363 . S
C2097 H2068 0.950 . S
C2097 C2096 1.397 . S
C2097 C2098 1.334 . S
C2098 H2069 0.950 . S
C2098 C2097 1.334 . S
C2098 C2099 1.287 . S
C2099 C2098 1.287 . S
C2099 C2100 1.524 . S
C2099 H2102 0.999 . S
C2100 H2070 0.950 . S
C2100 C2099 1.524 . S
C2100 C2101 1.415 . S
C2101 H2071 0.950 . S
C2101 C2096 1.363 . S
C2101 C2100 1.415 . S
H2102 C2099 0.999 . S
H2103 C2084 0.913 . S
H2104 C2122 0.951 . S
H2105 C2124 0.951 . S
H2106 C2126 0.950 . S
H2107 C2127 0.950 . S
H2108 C2129 0.950 . S
H2109 C2132 0.950 . S
H2110 C2133 0.950 . S
H2111 C2135 0.950 . S
H2112 C2136 0.950 . S
H2113 C2137 0.951 . S
H2114 C2139 0.951 . S
H2115 C2141 0.950 . S
H2116 C2142 0.950 . S
H2117 C2144 0.950 . S
H2118 C2147 0.950 . S
H2119 C2148 0.950 . S
H2120 C2150 0.950 . S
H2121 C2151 0.950 . S
C2122 H2104 0.951 . S
C2122 C2123 1.366 . S
C2122 C2124 1.388 . S
C2123 C2122 1.366 . S
C2123 C2127 1.385 . S
C2124 H2105 0.951 . S
C2124 C2122 1.388 . S
C2124 C2125 1.366 . S
C2125 C2124 1.366 . S
C2125 C2126 1.414 . S
C2125 C2128 1.499 . S
C2126 H2106 0.950 . S
C2126 C2125 1.414 . S
C2126 C2127 1.374 . S
C2127 H2107 0.950 . S
C2127 C2123 1.385 . S
C2127 C2126 1.374 . S
C2128 C2125 1.499 . S
C2128 C2129 1.373 . S
C2128 C2130 1.389 . S
C2129 H2108 0.950 . S
C2129 C2128 1.373 . S
C2129 C2145 1.377 . S
C2130 C2128 1.389 . S
C2130 C2131 1.524 . S
C2130 C2144 1.377 . S
C2131 C2130 1.524 . S
C2131 C2132 1.397 . S
C2131 C2136 1.363 . S
C2132 H2109 0.950 . S
C2132 C2131 1.397 . S
C2132 C2133 1.334 . S
C2133 H2110 0.950 . S
C2133 C2132 1.334 . S
C2133 C2134 1.287 . S
C2134 C2133 1.287 . S
C2134 C2135 1.524 . S
C2134 H2153 0.913 . S
C2135 H2111 0.950 . S
C2135 C2134 1.524 . S
C2135 C2136 1.415 . S
C2136 H2112 0.950 . S
C2136 C2131 1.363 . S
C2136 C2135 1.415 . S
C2137 H2113 0.951 . S
C2137 C2138 1.366 . S
C2137 C2139 1.388 . S
C2138 C2137 1.366 . S
C2138 C2142 1.385 . S
C2139 H2114 0.951 . S
C2139 C2137 1.388 . S
C2139 C2140 1.366 . S
C2140 C2139 1.366 . S
C2140 C2141 1.414 . S
C2140 C2143 1.499 . S
C2141 H2115 0.950 . S
C2141 C2140 1.414 . S
C2141 C2142 1.374 . S
C2142 H2116 0.950 . S
C2142 C2138 1.385 . S
C2142 C2141 1.374 . S
C2143 C2140 1.499 . S
C2143 C2144 1.373 . S
C2143 C2145 1.389 . S
C2144 H2117 0.950 . S
C2144 C2130 1.377 . S
C2144 C2143 1.373 . S
C2145 C2129 1.377 . S
C2145 C2143 1.389 . S
C2145 C2146 1.524 . S
C2146 C2145 1.524 . S
C2146 C2147 1.397 . S
C2146 C2151 1.363 . S
C2147 H2118 0.950 . S
C2147 C2146 1.397 . S
C2147 C2148 1.334 . S
C2148 H2119 0.950 . S
C2148 C2147 1.334 . S
C2148 C2149 1.287 . S
C2149 C2148 1.287 . S
C2149 C2150 1.524 . S
C2149 H2152 0.999 . S
C2150 H2120 0.950 . S
C2150 C2149 1.524 . S
C2150 C2151 1.415 . S
C2151 H2121 0.950 . S
C2151 C2146 1.363 . S
C2151 C2150 1.415 . S
H2152 C2149 0.999 . S
H2153 C2134 0.913 . S
H2154 C2172 0.951 . S
H2155 C2174 0.951 . S
H2156 C2176 0.950 . S
H2157 C2177 0.950 . S
H2158 C2179 0.950 . S
H2159 C2182 0.950 . S
H2160 C2183 0.950 . S
H2161 C2185 0.950 . S
H2162 C2186 0.950 . S
H2163 C2187 0.951 . S
H2164 C2189 0.951 . S
H2165 C2191 0.950 . S
H2166 C2192 0.950 . S
H2167 C2194 0.950 . S
H2168 C2197 0.950 . S
H2169 C2198 0.950 . S
H2170 C2200 0.950 . S
H2171 C2201 0.950 . S
C2172 H2154 0.951 . S
C2172 C2173 1.366 . S
C2172 C2174 1.388 . S
C2173 C2172 1.366 . S
C2173 C2177 1.385 . S
C2174 H2155 0.951 . S
C2174 C2172 1.388 . S
C2174 C2175 1.366 . S
C2175 C2174 1.366 . S
C2175 C2176 1.414 . S
C2175 C2178 1.499 . S
C2176 H2156 0.950 . S
C2176 C2175 1.414 . S
C2176 C2177 1.374 . S
C2177 H2157 0.950 . S
C2177 C2173 1.385 . S
C2177 C2176 1.374 . S
C2178 C2175 1.499 . S
C2178 C2179 1.373 . S
C2178 C2180 1.389 . S
C2179 H2158 0.950 . S
C2179 C2178 1.373 . S
C2179 C2195 1.377 . S
C2180 C2178 1.389 . S
C2180 C2181 1.524 . S
C2180 C2194 1.377 . S
C2181 C2180 1.524 . S
C2181 C2182 1.397 . S
C2181 C2186 1.363 . S
C2182 H2159 0.950 . S
C2182 C2181 1.397 . S
C2182 C2183 1.334 . S
C2183 H2160 0.950 . S
C2183 C2182 1.334 . S
C2183 C2184 1.287 . S
C2184 C2183 1.287 . S
C2184 C2185 1.524 . S
C2184 H2203 0.913 . S
C2185 H2161 0.950 . S
C2185 C2184 1.524 . S
C2185 C2186 1.415 . S
C2186 H2162 0.950 . S
C2186 C2181 1.363 . S
C2186 C2185 1.415 . S
C2187 H2163 0.951 . S
C2187 C2188 1.366 . S
C2187 C2189 1.388 . S
C2188 C2187 1.366 . S
C2188 C2192 1.385 . S
C2189 H2164 0.951 . S
C2189 C2187 1.388 . S
C2189 C2190 1.366 . S
C2190 C2189 1.366 . S
C2190 C2191 1.414 . S
C2190 C2193 1.499 . S
C2191 H2165 0.950 . S
C2191 C2190 1.414 . S
C2191 C2192 1.374 . S
C2192 H2166 0.950 . S
C2192 C2188 1.385 . S
C2192 C2191 1.374 . S
C2193 C2190 1.499 . S
C2193 C2194 1.373 . S
C2193 C2195 1.389 . S
C2194 H2167 0.950 . S
C2194 C2180 1.377 . S
C2194 C2193 1.373 . S
C2195 C2179 1.377 . S
C2195 C2193 1.389 . S
C2195 C2196 1.524 . S
C2196 C2195 1.524 . S
C2196 C2197 1.397 . S
C2196 C2201 1.363 . S
C2197 H2168 0.950 . S
C2197 C2196 1.397 . S
C2197 C2198 1.334 . S
C2198 H2169 0.950 . S
C2198 C2197 1.334 . S
C2198 C2199 1.287 . S
C2199 C2198 1.287 . S
C2199 C2200 1.524 . S
C2199 H2202 0.999 . S
C2200 H2170 0.950 . S
C2200 C2199 1.524 . S
C2200 C2201 1.415 . S
C2201 H2171 0.950 . S
C2201 C2196 1.363 . S
C2201 C2200 1.415 . S
H2202 C2199 0.999 . S
H2203 C2184 0.913 . S
H2204 C2222 0.951 . S
H2205 C2224 0.951 . S
H2206 C2226 0.950 . S
H2207 C2227 0.950 . S
H2208 C2229 0.950 . S
H2209 C2232 0.950 . S
H2210 C2233 0.950 . S
H2211 C2235 0.950 . S
H2212 C2236 0.950 . S
H2213 C2237 0.951 . S
H2214 C2239 0.951 . S
H2215 C2241 0.950 . S
H2216 C2242 0.950 . S
H2217 C2244 0.950 . S
H2218 C2247 0.950 . S
H2219 C2248 0.950 . S
H2220 C2250 0.950 . S
H2221 C2251 0.950 . S
C2222 H2204 0.951 . S
C2222 C2223 1.366 . S
C2222 C2224 1.388 . S
C2223 C2222 1.366 . S
C2223 C2227 1.385 . S
C2224 H2205 0.951 . S
C2224 C2222 1.388 . S
C2224 C2225 1.366 . S
C2225 C2224 1.366 . S
C2225 C2226 1.414 . S
C2225 C2228 1.499 . S
C2226 H2206 0.950 . S
C2226 C2225 1.414 . S
C2226 C2227 1.374 . S
C2227 H2207 0.950 . S
C2227 C2223 1.385 . S
C2227 C2226 1.374 . S
C2228 C2225 1.499 . S
C2228 C2229 1.373 . S
C2228 C2230 1.389 . S
C2229 H2208 0.950 . S
C2229 C2228 1.373 . S
C2229 C2245 1.377 . S
C2230 C2228 1.389 . S
C2230 C2231 1.524 . S
C2230 C2244 1.377 . S
C2231 C2230 1.524 . S
C2231 C2232 1.397 . S
C2231 C2236 1.363 . S
C2232 H2209 0.950 . S
C2232 C2231 1.397 . S
C2232 C2233 1.334 . S
C2233 H2210 0.950 . S
C2233 C2232 1.334 . S
C2233 C2234 1.287 . S
C2234 C2233 1.287 . S
C2234 C2235 1.524 . S
C2234 H2253 0.913 . S
C2235 H2211 0.950 . S
C2235 C2234 1.524 . S
C2235 C2236 1.415 . S
C2236 H2212 0.950 . S
C2236 C2231 1.363 . S
C2236 C2235 1.415 . S
C2237 H2213 0.951 . S
C2237 C2238 1.366 . S
C2237 C2239 1.388 . S
C2238 C2237 1.366 . S
C2238 C2242 1.385 . S
C2239 H2214 0.951 . S
C2239 C2237 1.388 . S
C2239 C2240 1.366 . S
C2240 C2239 1.366 . S
C2240 C2241 1.414 . S
C2240 C2243 1.499 . S
C2241 H2215 0.950 . S
C2241 C2240 1.414 . S
C2241 C2242 1.374 . S
C2242 H2216 0.950 . S
C2242 C2238 1.385 . S
C2242 C2241 1.374 . S
C2243 C2240 1.499 . S
C2243 C2244 1.373 . S
C2243 C2245 1.389 . S
C2244 H2217 0.950 . S
C2244 C2230 1.377 . S
C2244 C2243 1.373 . S
C2245 C2229 1.377 . S
C2245 C2243 1.389 . S
C2245 C2246 1.524 . S
C2246 C2245 1.524 . S
C2246 C2247 1.397 . S
C2246 C2251 1.363 . S
C2247 H2218 0.950 . S
C2247 C2246 1.397 . S
C2247 C2248 1.334 . S
C2248 H2219 0.950 . S
C2248 C2247 1.334 . S
C2248 C2249 1.287 . S
C2249 C2248 1.287 . S
C2249 C2250 1.524 . S
C2249 H2252 0.999 . S
C2250 H2220 0.950 . S
C2250 C2249 1.524 . S
C2250 C2251 1.415 . S
C2251 H2221 0.950 . S
C2251 C2246 1.363 . S
C2251 C2250 1.415 . S
H2252 C2249 0.999 . S
H2253 C2234 0.913 . S
H2254 C2272 0.951 . S
H2255 C2274 0.951 . S
H2256 C2276 0.950 . S
H2257 C2277 0.950 . S
H2258 C2279 0.950 . S
H2259 C2282 0.950 . S
H2260 C2283 0.950 . S
H2261 C2285 0.950 . S
H2262 C2286 0.950 . S
H2263 C2287 0.951 . S
H2264 C2289 0.951 . S
H2265 C2291 0.950 . S
H2266 C2292 0.950 . S
H2267 C2294 0.950 . S
H2268 C2297 0.950 . S
H2269 C2298 0.950 . S
H2270 C2300 0.950 . S
H2271 C2301 0.950 . S
C2272 H2254 0.951 . S
C2272 C2273 1.366 . S
C2272 C2274 1.388 . S
C2273 C2272 1.366 . S
C2273 C2277 1.385 . S
C2274 H2255 0.951 . S
C2274 C2272 1.388 . S
C2274 C2275 1.366 . S
C2275 C2274 1.366 . S
C2275 C2276 1.414 . S
C2275 C2278 1.499 . S
C2276 H2256 0.950 . S
C2276 C2275 1.414 . S
C2276 C2277 1.374 . S
C2277 H2257 0.950 . S
C2277 C2273 1.385 . S
C2277 C2276 1.374 . S
C2278 C2275 1.499 . S
C2278 C2279 1.373 . S
C2278 C2280 1.389 . S
C2279 H2258 0.950 . S
C2279 C2278 1.373 . S
C2279 C2295 1.377 . S
C2280 C2278 1.389 . S
C2280 C2281 1.524 . S
C2280 C2294 1.377 . S
C2281 C2280 1.524 . S
C2281 C2282 1.397 . S
C2281 C2286 1.363 . S
C2282 H2259 0.950 . S
C2282 C2281 1.397 . S
C2282 C2283 1.334 . S
C2283 H2260 0.950 . S
C2283 C2282 1.334 . S
C2283 C2284 1.287 . S
C2284 C2283 1.287 . S
C2284 C2285 1.524 . S
C2284 H2303 0.913 . S
C2285 H2261 0.950 . S
C2285 C2284 1.524 . S
C2285 C2286 1.415 . S
C2286 H2262 0.950 . S
C2286 C2281 1.363 . S
C2286 C2285 1.415 . S
C2287 H2263 0.951 . S
C2287 C2288 1.366 . S
C2287 C2289 1.388 . S
C2288 C2287 1.366 . S
C2288 C2292 1.385 . S
C2289 H2264 0.951 . S
C2289 C2287 1.388 . S
C2289 C2290 1.366 . S
C2290 C2289 1.366 . S
C2290 C2291 1.414 . S
C2290 C2293 1.499 . S
C2291 H2265 0.950 . S
C2291 C2290 1.414 . S
C2291 C2292 1.374 . S
C2292 H2266 0.950 . S
C2292 C2288 1.385 . S
C2292 C2291 1.374 . S
C2293 C2290 1.499 . S
C2293 C2294 1.373 . S
C2293 C2295 1.389 . S
C2294 H2267 0.950 . S
C2294 C2280 1.377 . S
C2294 C2293 1.373 . S
C2295 C2279 1.377 . S
C2295 C2293 1.389 . S
C2295 C2296 1.524 . S
C2296 C2295 1.524 . S
C2296 C2297 1.397 . S
C2296 C2301 1.363 . S
C2297 H2268 0.950 . S
C2297 C2296 1.397 . S
C2297 C2298 1.334 . S
C2298 H2269 0.950 . S
C2298 C2297 1.334 . S
C2298 C2299 1.287 . S
C2299 C2298 1.287 . S
C2299 C2300 1.524 . S
C2299 H2302 0.999 . S
C2300 H2270 0.950 . S
C2300 C2299 1.524 . S
C2300 C2301 1.415 . S
C2301 H2271 0.950 . S
C2301 C2296 1.363 . S
C2301 C2300 1.415 . S
H2302 C2299 0.999 . S
H2303 C2284 0.913 . S
H2304 C2322 0.951 . S
H2305 C2324 0.951 . S
H2306 C2326 0.950 . S
H2307 C2327 0.950 . S
H2308 C2329 0.950 . S
H2309 C2332 0.950 . S
H2310 C2333 0.950 . S
H2311 C2335 0.950 . S
H2312 C2336 0.950 . S
H2313 C2337 0.951 . S
H2314 C2339 0.951 . S
H2315 C2341 0.950 . S
H2316 C2342 0.950 . S
H2317 C2344 0.950 . S
H2318 C2347 0.950 . S
H2319 C2348 0.950 . S
H2320 C2350 0.950 . S
H2321 C2351 0.950 . S
C2322 H2304 0.951 . S
C2322 C2323 1.366 . S
C2322 C2324 1.388 . S
C2323 C2322 1.366 . S
C2323 C2327 1.385 . S
C2324 H2305 0.951 . S
C2324 C2322 1.388 . S
C2324 C2325 1.366 . S
C2325 C2324 1.366 . S
C2325 C2326 1.414 . S
C2325 C2328 1.499 . S
C2326 H2306 0.950 . S
C2326 C2325 1.414 . S
C2326 C2327 1.374 . S
C2327 H2307 0.950 . S
C2327 C2323 1.385 . S
C2327 C2326 1.374 . S
C2328 C2325 1.499 . S
C2328 C2329 1.373 . S
C2328 C2330 1.389 . S
C2329 H2308 0.950 . S
C2329 C2328 1.373 . S
C2329 C2345 1.377 . S
C2330 C2328 1.389 . S
C2330 C2331 1.524 . S
C2330 C2344 1.377 . S
C2331 C2330 1.524 . S
C2331 C2332 1.397 . S
C2331 C2336 1.363 . S
C2332 H2309 0.950 . S
C2332 C2331 1.397 . S
C2332 C2333 1.334 . S
C2333 H2310 0.950 . S
C2333 C2332 1.334 . S
C2333 C2334 1.287 . S
C2334 C2333 1.287 . S
C2334 C2335 1.524 . S
C2334 H2353 0.913 . S
C2335 H2311 0.950 . S
C2335 C2334 1.524 . S
C2335 C2336 1.415 . S
C2336 H2312 0.950 . S
C2336 C2331 1.363 . S
C2336 C2335 1.415 . S
C2337 H2313 0.951 . S
C2337 C2338 1.366 . S
C2337 C2339 1.388 . S
C2338 C2337 1.366 . S
C2338 C2342 1.385 . S
C2339 H2314 0.951 . S
C2339 C2337 1.388 . S
C2339 C2340 1.366 . S
C2340 C2339 1.366 . S
C2340 C2341 1.414 . S
C2340 C2343 1.499 . S
C2341 H2315 0.950 . S
C2341 C2340 1.414 . S
C2341 C2342 1.374 . S
C2342 H2316 0.950 . S
C2342 C2338 1.385 . S
C2342 C2341 1.374 . S
C2343 C2340 1.499 . S
C2343 C2344 1.373 . S
C2343 C2345 1.389 . S
C2344 H2317 0.950 . S
C2344 C2330 1.377 . S
C2344 C2343 1.373 . S
C2345 C2329 1.377 . S
C2345 C2343 1.389 . S
C2345 C2346 1.524 . S
C2346 C2345 1.524 . S
C2346 C2347 1.397 . S
C2346 C2351 1.363 . S
C2347 H2318 0.950 . S
C2347 C2346 1.397 . S
C2347 C2348 1.334 . S
C2348 H2319 0.950 . S
C2348 C2347 1.334 . S
C2348 C2349 1.287 . S
C2349 C2348 1.287 . S
C2349 C2350 1.524 . S
C2349 H2352 0.999 . S
C2350 H2320 0.950 . S
C2350 C2349 1.524 . S
C2350 C2351 1.415 . S
C2351 H2321 0.950 . S
C2351 C2346 1.363 . S
C2351 C2350 1.415 . S
H2352 C2349 0.999 . S
H2353 C2334 0.913 . S
H2354 C2372 0.951 . S
H2355 C2374 0.951 . S
H2356 C2376 0.950 . S
H2357 C2377 0.950 . S
H2358 C2379 0.950 . S
H2359 C2382 0.950 . S
H2360 C2383 0.950 . S
H2361 C2385 0.950 . S
H2362 C2386 0.950 . S
H2363 C2387 0.951 . S
H2364 C2389 0.951 . S
H2365 C2391 0.950 . S
H2366 C2392 0.950 . S
H2367 C2394 0.950 . S
H2368 C2397 0.950 . S
H2369 C2398 0.950 . S
H2370 C2400 0.950 . S
H2371 C2401 0.950 . S
C2372 H2354 0.951 . S
C2372 C2373 1.366 . S
C2372 C2374 1.388 . S
C2373 C2372 1.366 . S
C2373 C2377 1.385 . S
C2374 H2355 0.951 . S
C2374 C2372 1.388 . S
C2374 C2375 1.366 . S
C2375 C2374 1.366 . S
C2375 C2376 1.414 . S
C2375 C2378 1.499 . S
C2376 H2356 0.950 . S
C2376 C2375 1.414 . S
C2376 C2377 1.374 . S
C2377 H2357 0.950 . S
C2377 C2373 1.385 . S
C2377 C2376 1.374 . S
C2378 C2375 1.499 . S
C2378 C2379 1.373 . S
C2378 C2380 1.389 . S
C2379 H2358 0.950 . S
C2379 C2378 1.373 . S
C2379 C2395 1.377 . S
C2380 C2378 1.389 . S
C2380 C2381 1.524 . S
C2380 C2394 1.377 . S
C2381 C2380 1.524 . S
C2381 C2382 1.397 . S
C2381 C2386 1.363 . S
C2382 H2359 0.950 . S
C2382 C2381 1.397 . S
C2382 C2383 1.334 . S
C2383 H2360 0.950 . S
C2383 C2382 1.334 . S
C2383 C2384 1.287 . S
C2384 C2383 1.287 . S
C2384 C2385 1.524 . S
C2384 H2403 0.913 . S
C2385 H2361 0.950 . S
C2385 C2384 1.524 . S
C2385 C2386 1.415 . S
C2386 H2362 0.950 . S
C2386 C2381 1.363 . S
C2386 C2385 1.415 . S
C2387 H2363 0.951 . S
C2387 C2388 1.366 . S
C2387 C2389 1.388 . S
C2388 C2387 1.366 . S
C2388 C2392 1.385 . S
C2389 H2364 0.951 . S
C2389 C2387 1.388 . S
C2389 C2390 1.366 . S
C2390 C2389 1.366 . S
C2390 C2391 1.414 . S
C2390 C2393 1.499 . S
C2391 H2365 0.950 . S
C2391 C2390 1.414 . S
C2391 C2392 1.374 . S
C2392 H2366 0.950 . S
C2392 C2388 1.385 . S
C2392 C2391 1.374 . S
C2393 C2390 1.499 . S
C2393 C2394 1.373 . S
C2393 C2395 1.389 . S
C2394 H2367 0.950 . S
C2394 C2380 1.377 . S
C2394 C2393 1.373 . S
C2395 C2379 1.377 . S
C2395 C2393 1.389 . S
C2395 C2396 1.524 . S
C2396 C2395 1.524 . S
C2396 C2397 1.397 . S
C2396 C2401 1.363 . S
C2397 H2368 0.950 . S
C2397 C2396 1.397 . S
C2397 C2398 1.334 . S
C2398 H2369 0.950 . S
C2398 C2397 1.334 . S
C2398 C2399 1.287 . S
C2399 C2398 1.287 . S
C2399 C2400 1.524 . S
C2399 H2402 0.999 . S
C2400 H2370 0.950 . S
C2400 C2399 1.524 . S
C2400 C2401 1.415 . S
C2401 H2371 0.950 . S
C2401 C2396 1.363 . S
C2401 C2400 1.415 . S
H2402 C2399 0.999 . S
H2403 C2384 0.913 . S
H2404 C2422 0.951 . S
H2405 C2424 0.951 . S
H2406 C2426 0.950 . S
H2407 C2427 0.950 . S
H2408 C2429 0.950 . S
H2409 C2432 0.950 . S
H2410 C2433 0.950 . S
H2411 C2435 0.950 . S
H2412 C2436 0.950 . S
H2413 C2437 0.951 . S
H2414 C2439 0.951 . S
H2415 C2441 0.950 . S
H2416 C2442 0.950 . S
H2417 C2444 0.950 . S
H2418 C2447 0.950 . S
H2419 C2448 0.950 . S
H2420 C2450 0.950 . S
H2421 C2451 0.950 . S
C2422 H2404 0.951 . S
C2422 C2423 1.366 . S
C2422 C2424 1.388 . S
C2423 C2422 1.366 . S
C2423 C2427 1.385 . S
C2424 H2405 0.951 . S
C2424 C2422 1.388 . S
C2424 C2425 1.366 . S
C2425 C2424 1.366 . S
C2425 C2426 1.414 . S
C2425 C2428 1.499 . S
C2426 H2406 0.950 . S
C2426 C2425 1.414 . S
C2426 C2427 1.374 . S
C2427 H2407 0.950 . S
C2427 C2423 1.385 . S
C2427 C2426 1.374 . S
C2428 C2425 1.499 . S
C2428 C2429 1.373 . S
C2428 C2430 1.389 . S
C2429 H2408 0.950 . S
C2429 C2428 1.373 . S
C2429 C2445 1.377 . S
C2430 C2428 1.389 . S
C2430 C2431 1.524 . S
C2430 C2444 1.377 . S
C2431 C2430 1.524 . S
C2431 C2432 1.397 . S
C2431 C2436 1.363 . S
C2432 H2409 0.950 . S
C2432 C2431 1.397 . S
C2432 C2433 1.334 . S
C2433 H2410 0.950 . S
C2433 C2432 1.334 . S
C2433 C2434 1.287 . S
C2434 C2433 1.287 . S
C2434 C2435 1.524 . S
C2434 H2453 0.913 . S
C2435 H2411 0.950 . S
C2435 C2434 1.524 . S
C2435 C2436 1.415 . S
C2436 H2412 0.950 . S
C2436 C2431 1.363 . S
C2436 C2435 1.415 . S
C2437 H2413 0.951 . S
C2437 C2438 1.366 . S
C2437 C2439 1.388 . S
C2438 C2437 1.366 . S
C2438 C2442 1.385 . S
C2439 H2414 0.951 . S
C2439 C2437 1.388 . S
C2439 C2440 1.366 . S
C2440 C2439 1.366 . S
C2440 C2441 1.414 . S
C2440 C2443 1.499 . S
C2441 H2415 0.950 . S
C2441 C2440 1.414 . S
C2441 C2442 1.374 . S
C2442 H2416 0.950 . S
C2442 C2438 1.385 . S
C2442 C2441 1.374 . S
C2443 C2440 1.499 . S
C2443 C2444 1.373 . S
C2443 C2445 1.389 . S
C2444 H2417 0.950 . S
C2444 C2430 1.377 . S
C2444 C2443 1.373 . S
C2445 C2429 1.377 . S
C2445 C2443 1.389 . S
C2445 C2446 1.524 . S
C2446 C2445 1.524 . S
C2446 C2447 1.397 . S
C2446 C2451 1.363 . S
C2447 H2418 0.950 . S
C2447 C2446 1.397 . S
C2447 C2448 1.334 . S
C2448 H2419 0.950 . S
C2448 C2447 1.334 . S
C2448 C2449 1.287 . S
C2449 C2448 1.287 . S
C2449 C2450 1.524 . S
C2449 H2452 0.999 . S
C2450 H2420 0.950 . S
C2450 C2449 1.524 . S
C2450 C2451 1.415 . S
C2451 H2421 0.950 . S
C2451 C2446 1.363 . S
C2451 C2450 1.415 . S
H2452 C2449 0.999 . S
H2453 C2434 0.913 . S
H2454 C2472 0.951 . S
H2455 C2474 0.951 . S
H2456 C2476 0.950 . S
H2457 C2477 0.950 . S
H2458 C2479 0.950 . S
H2459 C2482 0.950 . S
H2460 C2483 0.950 . S
H2461 C2485 0.950 . S
H2462 C2486 0.950 . S
H2463 C2487 0.951 . S
H2464 C2489 0.951 . S
H2465 C2491 0.950 . S
H2466 C2492 0.950 . S
H2467 C2494 0.950 . S
H2468 C2497 0.950 . S
H2469 C2498 0.950 . S
H2470 C2500 0.950 . S
H2471 C2501 0.950 . S
C2472 H2454 0.951 . S
C2472 C2473 1.366 . S
C2472 C2474 1.388 . S
C2473 C2472 1.366 . S
C2473 C2477 1.385 . S
C2474 H2455 0.951 . S
C2474 C2472 1.388 . S
C2474 C2475 1.366 . S
C2475 C2474 1.366 . S
C2475 C2476 1.414 . S
C2475 C2478 1.499 . S
C2476 H2456 0.950 . S
C2476 C2475 1.414 . S
C2476 C2477 1.374 . S
C2477 H2457 0.950 . S
C2477 C2473 1.385 . S
C2477 C2476 1.374 . S
C2478 C2475 1.499 . S
C2478 C2479 1.373 . S
C2478 C2480 1.389 . S
C2479 H2458 0.950 . S
C2479 C2478 1.373 . S
C2479 C2495 1.377 . S
C2480 C2478 1.389 . S
C2480 C2481 1.524 . S
C2480 C2494 1.377 . S
C2481 C2480 1.524 . S
C2481 C2482 1.397 . S
C2481 C2486 1.363 . S
C2482 H2459 0.950 . S
C2482 C2481 1.397 . S
C2482 C2483 1.334 . S
C2483 H2460 0.950 . S
C2483 C2482 1.334 . S
C2483 C2484 1.287 . S
C2484 C2483 1.287 . S
C2484 C2485 1.524 . S
C2484 H2503 0.913 . S
C2485 H2461 0.950 . S
C2485 C2484 1.524 . S
C2485 C2486 1.415 . S
C2486 H2462 0.950 . S
C2486 C2481 1.363 . S
C2486 C2485 1.415 . S
C2487 H2463 0.951 . S
C2487 C2488 1.366 . S
C2487 C2489 1.388 . S
C2488 C2487 1.366 . S
C2488 C2492 1.385 . S
C2489 H2464 0.951 . S
C2489 C2487 1.388 . S
C2489 C2490 1.366 . S
C2490 C2489 1.366 . S
C2490 C2491 1.414 . S
C2490 C2493 1.499 . S
C2491 H2465 0.950 . S
C2491 C2490 1.414 . S
C2491 C2492 1.374 . S
C2492 H2466 0.950 . S
C2492 C2488 1.385 . S
C2492 C2491 1.374 . S
C2493 C2490 1.499 . S
C2493 C2494 1.373 . S
C2493 C2495 1.389 . S
C2494 H2467 0.950 . S
C2494 C2480 1.377 . S
C2494 C2493 1.373 . S
C2495 C2479 1.377 . S
C2495 C2493 1.389 . S
C2495 C2496 1.524 . S
C2496 C2495 1.524 . S
C2496 C2497 1.397 . S
C2496 C2501 1.363 . S
C2497 H2468 0.950 . S
C2497 C2496 1.397 . S
C2497 C2498 1.334 . S
C2498 H2469 0.950 . S
C2498 C2497 1.334 . S
C2498 C2499 1.287 . S
C2499 C2498 1.287 . S
C2499 C2500 1.524 . S
C2499 H2502 0.999 . S
C2500 H2470 0.950 . S
C2500 C2499 1.524 . S
C2500 C2501 1.415 . S
C2501 H2471 0.950 . S
C2501 C2496 1.363 . S
C2501 C2500 1.415 . S
H2502 C2499 0.999 . S
H2503 C2484 0.913 . S
H2504 C2522 0.951 . S
H2505 C2524 0.951 . S
H2506 C2526 0.950 . S
H2507 C2527 0.950 . S
H2508 C2529 0.950 . S
H2509 C2532 0.950 . S
H2510 C2533 0.950 . S
H2511 C2535 0.950 . S
H2512 C2536 0.950 . S
H2513 C2537 0.951 . S
H2514 C2539 0.951 . S
H2515 C2541 0.950 . S
H2516 C2542 0.950 . S
H2517 C2544 0.950 . S
H2518 C2547 0.950 . S
H2519 C2548 0.950 . S
H2520 C2550 0.950 . S
H2521 C2551 0.950 . S
C2522 H2504 0.951 . S
C2522 C2523 1.366 . S
C2522 C2524 1.388 . S
C2523 C2522 1.366 . S
C2523 C2527 1.385 . S
C2524 H2505 0.951 . S
C2524 C2522 1.388 . S
C2524 C2525 1.366 . S
C2525 C2524 1.366 . S
C2525 C2526 1.414 . S
C2525 C2528 1.499 . S
C2526 H2506 0.950 . S
C2526 C2525 1.414 . S
C2526 C2527 1.374 . S
C2527 H2507 0.950 . S
C2527 C2523 1.385 . S
C2527 C2526 1.374 . S
C2528 C2525 1.499 . S
C2528 C2529 1.373 . S
C2528 C2530 1.389 . S
C2529 H2508 0.950 . S
C2529 C2528 1.373 . S
C2529 C2545 1.377 . S
C2530 C2528 1.389 . S
C2530 C2531 1.524 . S
C2530 C2544 1.377 . S
C2531 C2530 1.524 . S
C2531 C2532 1.397 . S
C2531 C2536 1.363 . S
C2532 H2509 0.950 . S
C2532 C2531 1.397 . S
C2532 C2533 1.334 . S
C2533 H2510 0.950 . S
C2533 C2532 1.334 . S
C2533 C2534 1.287 . S
C2534 C2533 1.287 . S
C2534 C2535 1.524 . S
C2534 H2553 0.913 . S
C2535 H2511 0.950 . S
C2535 C2534 1.524 . S
C2535 C2536 1.415 . S
C2536 H2512 0.950 . S
C2536 C2531 1.363 . S
C2536 C2535 1.415 . S
C2537 H2513 0.951 . S
C2537 C2538 1.366 . S
C2537 C2539 1.388 . S
C2538 C2537 1.366 . S
C2538 C2542 1.385 . S
C2539 H2514 0.951 . S
C2539 C2537 1.388 . S
C2539 C2540 1.366 . S
C2540 C2539 1.366 . S
C2540 C2541 1.414 . S
C2540 C2543 1.499 . S
C2541 H2515 0.950 . S
C2541 C2540 1.414 . S
C2541 C2542 1.374 . S
C2542 H2516 0.950 . S
C2542 C2538 1.385 . S
C2542 C2541 1.374 . S
C2543 C2540 1.499 . S
C2543 C2544 1.373 . S
C2543 C2545 1.389 . S
C2544 H2517 0.950 . S
C2544 C2530 1.377 . S
C2544 C2543 1.373 . S
C2545 C2529 1.377 . S
C2545 C2543 1.389 . S
C2545 C2546 1.524 . S
C2546 C2545 1.524 . S
C2546 C2547 1.397 . S
C2546 C2551 1.363 . S
C2547 H2518 0.950 . S
C2547 C2546 1.397 . S
C2547 C2548 1.334 . S
C2548 H2519 0.950 . S
C2548 C2547 1.334 . S
C2548 C2549 1.287 . S
C2549 C2548 1.287 . S
C2549 C2550 1.524 . S
C2549 H2552 0.999 . S
C2550 H2520 0.950 . S
C2550 C2549 1.524 . S
C2550 C2551 1.415 . S
C2551 H2521 0.950 . S
C2551 C2546 1.363 . S
C2551 C2550 1.415 . S
H2552 C2549 0.999 . S
H2553 C2534 0.913 . S
H2554 C2572 0.951 . S
H2555 C2574 0.951 . S
H2556 C2576 0.950 . S
H2557 C2577 0.950 . S
H2558 C2579 0.950 . S
H2559 C2582 0.950 . S
H2560 C2583 0.950 . S
H2561 C2585 0.950 . S
H2562 C2586 0.950 . S
H2563 C2587 0.951 . S
H2564 C2589 0.951 . S
H2565 C2591 0.950 . S
H2566 C2592 0.950 . S
H2567 C2594 0.950 . S
H2568 C2597 0.950 . S
H2569 C2598 0.950 . S
H2570 C2600 0.950 . S
H2571 C2601 0.950 . S
C2572 H2554 0.951 . S
C2572 C2573 1.366 . S
C2572 C2574 1.388 . S
C2573 C2572 1.366 . S
C2573 C2577 1.385 . S
C2574 H2555 0.951 . S
C2574 C2572 1.388 . S
C2574 C2575 1.366 . S
C2575 C2574 1.366 . S
C2575 C2576 1.414 . S
C2575 C2578 1.499 . S
C2576 H2556 0.950 . S
C2576 C2575 1.414 . S
C2576 C2577 1.374 . S
C2577 H2557 0.950 . S
C2577 C2573 1.385 . S
C2577 C2576 1.374 . S
C2578 C2575 1.499 . S
C2578 C2579 1.373 . S
C2578 C2580 1.389 . S
C2579 H2558 0.950 . S
C2579 C2578 1.373 . S
C2579 C2595 1.377 . S
C2580 C2578 1.389 . S
C2580 C2581 1.524 . S
C2580 C2594 1.377 . S
C2581 C2580 1.524 . S
C2581 C2582 1.397 . S
C2581 C2586 1.363 . S
C2582 H2559 0.950 . S
C2582 C2581 1.397 . S
C2582 C2583 1.334 . S
C2583 H2560 0.950 . S
C2583 C2582 1.334 . S
C2583 C2584 1.287 . S
C2584 C2583 1.287 . S
C2584 C2585 1.524 . S
C2584 H2603 0.913 . S
C2585 H2561 0.950 . S
C2585 C2584 1.524 . S
C2585 C2586 1.415 . S
C2586 H2562 0.950 . S
C2586 C2581 1.363 . S
C2586 C2585 1.415 . S
C2587 H2563 0.951 . S
C2587 C2588 1.366 . S
C2587 C2589 1.388 . S
C2588 C2587 1.366 . S
C2588 C2592 1.385 . S
C2589 H2564 0.951 . S
C2589 C2587 1.388 . S
C2589 C2590 1.366 . S
C2590 C2589 1.366 . S
C2590 C2591 1.414 . S
C2590 C2593 1.499 . S
C2591 H2565 0.950 . S
C2591 C2590 1.414 . S
C2591 C2592 1.374 . S
C2592 H2566 0.950 . S
C2592 C2588 1.385 . S
C2592 C2591 1.374 . S
C2593 C2590 1.499 . S
C2593 C2594 1.373 . S
C2593 C2595 1.389 . S
C2594 H2567 0.950 . S
C2594 C2580 1.377 . S
C2594 C2593 1.373 . S
C2595 C2579 1.377 . S
C2595 C2593 1.389 . S
C2595 C2596 1.524 . S
C2596 C2595 1.524 . S
C2596 C2597 1.397 . S
C2596 C2601 1.363 . S
C2597 H2568 0.950 . S
C2597 C2596 1.397 . S
C2597 C2598 1.334 . S
C2598 H2569 0.950 . S
C2598 C2597 1.334 . S
C2598 C2599 1.287 . S
C2599 C2598 1.287 . S
C2599 C2600 1.524 . S
C2599 H2602 0.999 . S
C2600 H2570 0.950 . S
C2600 C2599 1.524 . S
C2600 C2601 1.415 . S
C2601 H2571 0.950 . S
C2601 C2596 1.363 . S
C2601 C2600 1.415 . S
H2602 C2599 0.999 . S
H2603 C2584 0.913 . S
H2604 C2622 0.951 . S
H2605 C2624 0.951 . S
H2606 C2626 0.950 . S
H2607 C2627 0.950 . S
H2608 C2629 0.950 . S
H2609 C2632 0.950 . S
H2610 C2633 0.950 . S
H2611 C2635 0.950 . S
H2612 C2636 0.950 . S
H2613 C2637 0.951 . S
H2614 C2639 0.951 . S
H2615 C2641 0.950 . S
H2616 C2642 0.950 . S
H2617 C2644 0.950 . S
H2618 C2647 0.950 . S
H2619 C2648 0.950 . S
H2620 C2650 0.950 . S
H2621 C2651 0.950 . S
C2622 H2604 0.951 . S
C2622 C2623 1.366 . S
C2622 C2624 1.388 . S
C2623 C2622 1.366 . S
C2623 C2627 1.385 . S
C2624 H2605 0.951 . S
C2624 C2622 1.388 . S
C2624 C2625 1.366 . S
C2625 C2624 1.366 . S
C2625 C2626 1.414 . S
C2625 C2628 1.499 . S
C2626 H2606 0.950 . S
C2626 C2625 1.414 . S
C2626 C2627 1.374 . S
C2627 H2607 0.950 . S
C2627 C2623 1.385 . S
C2627 C2626 1.374 . S
C2628 C2625 1.499 . S
C2628 C2629 1.373 . S
C2628 C2630 1.389 . S
C2629 H2608 0.950 . S
C2629 C2628 1.373 . S
C2629 C2645 1.377 . S
C2630 C2628 1.389 . S
C2630 C2631 1.524 . S
C2630 C2644 1.377 . S
C2631 C2630 1.524 . S
C2631 C2632 1.397 . S
C2631 C2636 1.363 . S
C2632 H2609 0.950 . S
C2632 C2631 1.397 . S
C2632 C2633 1.334 . S
C2633 H2610 0.950 . S
C2633 C2632 1.334 . S
C2633 C2634 1.287 . S
C2634 C2633 1.287 . S
C2634 C2635 1.524 . S
C2634 H2653 0.913 . S
C2635 H2611 0.950 . S
C2635 C2634 1.524 . S
C2635 C2636 1.415 . S
C2636 H2612 0.950 . S
C2636 C2631 1.363 . S
C2636 C2635 1.415 . S
C2637 H2613 0.951 . S
C2637 C2638 1.366 . S
C2637 C2639 1.388 . S
C2638 C2637 1.366 . S
C2638 C2642 1.385 . S
C2639 H2614 0.951 . S
C2639 C2637 1.388 . S
C2639 C2640 1.366 . S
C2640 C2639 1.366 . S
C2640 C2641 1.414 . S
C2640 C2643 1.499 . S
C2641 H2615 0.950 . S
C2641 C2640 1.414 . S
C2641 C2642 1.374 . S
C2642 H2616 0.950 . S
C2642 C2638 1.385 . S
C2642 C2641 1.374 . S
C2643 C2640 1.499 . S
C2643 C2644 1.373 . S
C2643 C2645 1.389 . S
C2644 H2617 0.950 . S
C2644 C2630 1.377 . S
C2644 C2643 1.373 . S
C2645 C2629 1.377 . S
C2645 C2643 1.389 . S
C2645 C2646 1.524 . S
C2646 C2645 1.524 . S
C2646 C2647 1.397 . S
C2646 C2651 1.363 . S
C2647 H2618 0.950 . S
C2647 C2646 1.397 . S
C2647 C2648 1.334 . S
C2648 H2619 0.950 . S
C2648 C2647 1.334 . S
C2648 C2649 1.287 . S
C2649 C2648 1.287 . S
C2649 C2650 1.524 . S
C2649 H2652 0.999 . S
C2650 H2620 0.950 . S
C2650 C2649 1.524 . S
C2650 C2651 1.415 . S
C2651 H2621 0.950 . S
C2651 C2646 1.363 . S
C2651 C2650 1.415 . S
H2652 C2649 0.999 . S
H2653 C2634 0.913 . S
H2654 C2672 0.951 . S
H2655 C2674 0.951 . S
H2656 C2676 0.950 . S
H2657 C2677 0.950 . S
H2658 C2679 0.950 . S
H2659 C2682 0.950 . S
H2660 C2683 0.950 . S
H2661 C2685 0.950 . S
H2662 C2686 0.950 . S
H2663 C2687 0.951 . S
H2664 C2689 0.951 . S
H2665 C2691 0.950 . S
H2666 C2692 0.950 . S
H2667 C2694 0.950 . S
H2668 C2697 0.950 . S
H2669 C2698 0.950 . S
H2670 C2700 0.950 . S
H2671 C2701 0.950 . S
C2672 H2654 0.951 . S
C2672 C2673 1.366 . S
C2672 C2674 1.388 . S
C2673 C2672 1.366 . S
C2673 C2677 1.385 . S
C2674 H2655 0.951 . S
C2674 C2672 1.388 . S
C2674 C2675 1.366 . S
C2675 C2674 1.366 . S
C2675 C2676 1.414 . S
C2675 C2678 1.499 . S
C2676 H2656 0.950 . S
C2676 C2675 1.414 . S
C2676 C2677 1.374 . S
C2677 H2657 0.950 . S
C2677 C2673 1.385 . S
C2677 C2676 1.374 . S
C2678 C2675 1.499 . S
C2678 C2679 1.373 . S
C2678 C2680 1.389 . S
C2679 H2658 0.950 . S
C2679 C2678 1.373 . S
C2679 C2695 1.377 . S
C2680 C2678 1.389 . S
C2680 C2681 1.524 . S
C2680 C2694 1.377 . S
C2681 C2680 1.524 . S
C2681 C2682 1.397 . S
C2681 C2686 1.363 . S
C2682 H2659 0.950 . S
C2682 C2681 1.397 . S
C2682 C2683 1.334 . S
C2683 H2660 0.950 . S
C2683 C2682 1.334 . S
C2683 C2684 1.287 . S
C2684 C2683 1.287 . S
C2684 C2685 1.524 . S
C2684 H2703 0.913 . S
C2685 H2661 0.950 . S
C2685 C2684 1.524 . S
C2685 C2686 1.415 . S
C2686 H2662 0.950 . S
C2686 C2681 1.363 . S
C2686 C2685 1.415 . S
C2687 H2663 0.951 . S
C2687 C2688 1.366 . S
C2687 C2689 1.388 . S
C2688 C2687 1.366 . S
C2688 C2692 1.385 . S
C2689 H2664 0.951 . S
C2689 C2687 1.388 . S
C2689 C2690 1.366 . S
C2690 C2689 1.366 . S
C2690 C2691 1.414 . S
C2690 C2693 1.499 . S
C2691 H2665 0.950 . S
C2691 C2690 1.414 . S
C2691 C2692 1.374 . S
C2692 H2666 0.950 . S
C2692 C2688 1.385 . S
C2692 C2691 1.374 . S
C2693 C2690 1.499 . S
C2693 C2694 1.373 . S
C2693 C2695 1.389 . S
C2694 H2667 0.950 . S
C2694 C2680 1.377 . S
C2694 C2693 1.373 . S
C2695 C2679 1.377 . S
C2695 C2693 1.389 . S
C2695 C2696 1.524 . S
C2696 C2695 1.524 . S
C2696 C2697 1.397 . S
C2696 C2701 1.363 . S
C2697 H2668 0.950 . S
C2697 C2696 1.397 . S
C2697 C2698 1.334 . S
C2698 H2669 0.950 . S
C2698 C2697 1.334 . S
C2698 C2699 1.287 . S
C2699 C2698 1.287 . S
C2699 C2700 1.524 . S
C2699 H2702 0.999 . S
C2700 H2670 0.950 . S
C2700 C2699 1.524 . S
C2700 C2701 1.415 . S
C2701 H2671 0.950 . S
C2701 C2696 1.363 . S
C2701 C2700 1.415 . S
H2702 C2699 0.999 . S
H2703 C2684 0.913 . S
H2704 C2722 0.951 . S
H2705 C2724 0.951 . S
H2706 C2726 0.950 . S
H2707 C2727 0.950 . S
H2708 C2729 0.950 . S
H2709 C2732 0.950 . S
H2710 C2733 0.950 . S
H2711 C2735 0.950 . S
H2712 C2736 0.950 . S
H2713 C2737 0.951 . S
H2714 C2739 0.951 . S
H2715 C2741 0.950 . S
H2716 C2742 0.950 . S
H2717 C2744 0.950 . S
H2718 C2747 0.950 . S
H2719 C2748 0.950 . S
H2720 C2750 0.950 . S
H2721 C2751 0.950 . S
C2722 H2704 0.951 . S
C2722 C2723 1.366 . S
C2722 C2724 1.388 . S
C2723 C2722 1.366 . S
C2723 C2727 1.385 . S
C2724 H2705 0.951 . S
C2724 C2722 1.388 . S
C2724 C2725 1.366 . S
C2725 C2724 1.366 . S
C2725 C2726 1.414 . S
C2725 C2728 1.499 . S
C2726 H2706 0.950 . S
C2726 C2725 1.414 . S
C2726 C2727 1.374 . S
C2727 H2707 0.950 . S
C2727 C2723 1.385 . S
C2727 C2726 1.374 . S
C2728 C2725 1.499 . S
C2728 C2729 1.373 . S
C2728 C2730 1.389 . S
C2729 H2708 0.950 . S
C2729 C2728 1.373 . S
C2729 C2745 1.377 . S
C2730 C2728 1.389 . S
C2730 C2731 1.524 . S
C2730 C2744 1.377 . S
C2731 C2730 1.524 . S
C2731 C2732 1.397 . S
C2731 C2736 1.363 . S
C2732 H2709 0.950 . S
C2732 C2731 1.397 . S
C2732 C2733 1.334 . S
C2733 H2710 0.950 . S
C2733 C2732 1.334 . S
C2733 C2734 1.287 . S
C2734 C2733 1.287 . S
C2734 C2735 1.524 . S
C2734 H2753 0.913 . S
C2735 H2711 0.950 . S
C2735 C2734 1.524 . S
C2735 C2736 1.415 . S
C2736 H2712 0.950 . S
C2736 C2731 1.363 . S
C2736 C2735 1.415 . S
C2737 H2713 0.951 . S
C2737 C2738 1.366 . S
C2737 C2739 1.388 . S
C2738 C2737 1.366 . S
C2738 C2742 1.385 . S
C2739 H2714 0.951 . S
C2739 C2737 1.388 . S
C2739 C2740 1.366 . S
C2740 C2739 1.366 . S
C2740 C2741 1.414 . S
C2740 C2743 1.499 . S
C2741 H2715 0.950 . S
C2741 C2740 1.414 . S
C2741 C2742 1.374 . S
C2742 H2716 0.950 . S
C2742 C2738 1.385 . S
C2742 C2741 1.374 . S
C2743 C2740 1.499 . S
C2743 C2744 1.373 . S
C2743 C2745 1.389 . S
C2744 H2717 0.950 . S
C2744 C2730 1.377 . S
C2744 C2743 1.373 . S
C2745 C2729 1.377 . S
C2745 C2743 1.389 . S
C2745 C2746 1.524 . S
C2746 C2745 1.524 . S
C2746 C2747 1.397 . S
C2746 C2751 1.363 . S
C2747 H2718 0.950 . S
C2747 C2746 1.397 . S
C2747 C2748 1.334 . S
C2748 H2719 0.950 . S
C2748 C2747 1.334 . S
C2748 C2749 1.287 . S
C2749 C2748 1.287 . S
C2749 C2750 1.524 . S
C2749 H2752 0.999 . S
C2750 H2720 0.950 . S
C2750 C2749 1.524 . S
C2750 C2751 1.415 . S
C2751 H2721 0.950 . S
C2751 C2746 1.363 . S
C2751 C2750 1.415 . S
H2752 C2749 0.999 . S
H2753 C2734 0.913 . S
H2754 C2772 0.951 . S
H2755 C2774 0.951 . S
H2756 C2776 0.950 . S
H2757 C2777 0.950 . S
H2758 C2779 0.950 . S
H2759 C2782 0.950 . S
H2760 C2783 0.950 . S
H2761 C2785 0.950 . S
H2762 C2786 0.950 . S
H2763 C2787 0.951 . S
H2764 C2789 0.951 . S
H2765 C2791 0.950 . S
H2766 C2792 0.950 . S
H2767 C2794 0.950 . S
H2768 C2797 0.950 . S
H2769 C2798 0.950 . S
H2770 C2800 0.950 . S
H2771 C2801 0.950 . S
C2772 H2754 0.951 . S
C2772 C2773 1.366 . S
C2772 C2774 1.388 . S
C2773 C2772 1.366 . S
C2773 C2777 1.385 . S
C2774 H2755 0.951 . S
C2774 C2772 1.388 . S
C2774 C2775 1.366 . S
C2775 C2774 1.366 . S
C2775 C2776 1.414 . S
C2775 C2778 1.499 . S
C2776 H2756 0.950 . S
C2776 C2775 1.414 . S
C2776 C2777 1.374 . S
C2777 H2757 0.950 . S
C2777 C2773 1.385 . S
C2777 C2776 1.374 . S
C2778 C2775 1.499 . S
C2778 C2779 1.373 . S
C2778 C2780 1.389 . S
C2779 H2758 0.950 . S
C2779 C2778 1.373 . S
C2779 C2795 1.377 . S
C2780 C2778 1.389 . S
C2780 C2781 1.524 . S
C2780 C2794 1.377 . S
C2781 C2780 1.524 . S
C2781 C2782 1.397 . S
C2781 C2786 1.363 . S
C2782 H2759 0.950 . S
C2782 C2781 1.397 . S
C2782 C2783 1.334 . S
C2783 H2760 0.950 . S
C2783 C2782 1.334 . S
C2783 C2784 1.287 . S
C2784 C2783 1.287 . S
C2784 C2785 1.524 . S
C2784 H2803 0.913 . S
C2785 H2761 0.950 . S
C2785 C2784 1.524 . S
C2785 C2786 1.415 . S
C2786 H2762 0.950 . S
C2786 C2781 1.363 . S
C2786 C2785 1.415 . S
C2787 H2763 0.951 . S
C2787 C2788 1.366 . S
C2787 C2789 1.388 . S
C2788 C2787 1.366 . S
C2788 C2792 1.385 . S
C2789 H2764 0.951 . S
C2789 C2787 1.388 . S
C2789 C2790 1.366 . S
C2790 C2789 1.366 . S
C2790 C2791 1.414 . S
C2790 C2793 1.499 . S
C2791 H2765 0.950 . S
C2791 C2790 1.414 . S
C2791 C2792 1.374 . S
C2792 H2766 0.950 . S
C2792 C2788 1.385 . S
C2792 C2791 1.374 . S
C2793 C2790 1.499 . S
C2793 C2794 1.373 . S
C2793 C2795 1.389 . S
C2794 H2767 0.950 . S
C2794 C2780 1.377 . S
C2794 C2793 1.373 . S
C2795 C2779 1.377 . S
C2795 C2793 1.389 . S
C2795 C2796 1.524 . S
C2796 C2795 1.524 . S
C2796 C2797 1.397 . S
C2796 C2801 1.363 . S
C2797 H2768 0.950 . S
C2797 C2796 1.397 . S
C2797 C2798 1.334 . S
C2798 H2769 0.950 . S
C2798 C2797 1.334 . S
C2798 C2799 1.287 . S
C2799 C2798 1.287 . S
C2799 C2800 1.524 . S
C2799 H2802 0.999 . S
C2800 H2770 0.950 . S
C2800 C2799 1.524 . S
C2800 C2801 1.415 . S
C2801 H2771 0.950 . S
C2801 C2796 1.363 . S
C2801 C2800 1.415 . S
H2802 C2799 0.999 . S
H2803 C2784 0.913 . S
H2804 C2822 0.951 . S
H2805 C2824 0.951 . S
H2806 C2826 0.950 . S
H2807 C2827 0.950 . S
H2808 C2829 0.950 . S
H2809 C2832 0.950 . S
H2810 C2833 0.950 . S
H2811 C2835 0.950 . S
H2812 C2836 0.950 . S
H2813 C2837 0.951 . S
H2814 C2839 0.951 . S
H2815 C2841 0.950 . S
H2816 C2842 0.950 . S
H2817 C2844 0.950 . S
H2818 C2847 0.950 . S
H2819 C2848 0.950 . S
H2820 C2850 0.950 . S
H2821 C2851 0.950 . S
C2822 H2804 0.951 . S
C2822 C2823 1.366 . S
C2822 C2824 1.388 . S
C2823 C2822 1.366 . S
C2823 C2827 1.385 . S
C2824 H2805 0.951 . S
C2824 C2822 1.388 . S
C2824 C2825 1.366 . S
C2825 C2824 1.366 . S
C2825 C2826 1.414 . S
C2825 C2828 1.499 . S
C2826 H2806 0.950 . S
C2826 C2825 1.414 . S
C2826 C2827 1.374 . S
C2827 H2807 0.950 . S
C2827 C2823 1.385 . S
C2827 C2826 1.374 . S
C2828 C2825 1.499 . S
C2828 C2829 1.373 . S
C2828 C2830 1.389 . S
C2829 H2808 0.950 . S
C2829 C2828 1.373 . S
C2829 C2845 1.377 . S
C2830 C2828 1.389 . S
C2830 C2831 1.524 . S
C2830 C2844 1.377 . S
C2831 C2830 1.524 . S
C2831 C2832 1.397 . S
C2831 C2836 1.363 . S
C2832 H2809 0.950 . S
C2832 C2831 1.397 . S
C2832 C2833 1.334 . S
C2833 H2810 0.950 . S
C2833 C2832 1.334 . S
C2833 C2834 1.287 . S
C2834 C2833 1.287 . S
C2834 C2835 1.524 . S
C2834 H2853 0.913 . S
C2835 H2811 0.950 . S
C2835 C2834 1.524 . S
C2835 C2836 1.415 . S
C2836 H2812 0.950 . S
C2836 C2831 1.363 . S
C2836 C2835 1.415 . S
C2837 H2813 0.951 . S
C2837 C2838 1.366 . S
C2837 C2839 1.388 . S
C2838 C2837 1.366 . S
C2838 C2842 1.385 . S
C2839 H2814 0.951 . S
C2839 C2837 1.388 . S
C2839 C2840 1.366 . S
C2840 C2839 1.366 . S
C2840 C2841 1.414 . S
C2840 C2843 1.499 . S
C2841 H2815 0.950 . S
C2841 C2840 1.414 . S
C2841 C2842 1.374 . S
C2842 H2816 0.950 . S
C2842 C2838 1.385 . S
C2842 C2841 1.374 . S
C2843 C2840 1.499 . S
C2843 C2844 1.373 . S
C2843 C2845 1.389 . S
C2844 H2817 0.950 . S
C2844 C2830 1.377 . S
C2844 C2843 1.373 . S
C2845 C2829 1.377 . S
C2845 C2843 1.389 . S
C2845 C2846 1.524 . S
C2846 C2845 1.524 . S
C2846 C2847 1.397 . S
C2846 C2851 1.363 . S
C2847 H2818 0.950 . S
C2847 C2846 1.397 . S
C2847 C2848 1.334 . S
C2848 H2819 0.950 . S
C2848 C2847 1.334 . S
C2848 C2849 1.287 . S
C2849 C2848 1.287 . S
C2849 C2850 1.524 . S
C2849 H2852 0.999 . S
C2850 H2820 0.950 . S
C2850 C2849 1.524 . S
C2850 C2851 1.415 . S
C2851 H2821 0.950 . S
C2851 C2846 1.363 . S
C2851 C2850 1.415 . S
H2852 C2849 0.999 . S
H2853 C2834 0.913 . S
H2854 C2872 0.951 . S
H2855 C2874 0.951 . S
H2856 C2876 0.950 . S
H2857 C2877 0.950 . S
H2858 C2879 0.950 . S
H2859 C2882 0.950 . S
H2860 C2883 0.950 . S
H2861 C2885 0.950 . S
H2862 C2886 0.950 . S
H2863 C2887 0.951 . S
H2864 C2889 0.951 . S
H2865 C2891 0.950 . S
H2866 C2892 0.950 . S
H2867 C2894 0.950 . S
H2868 C2897 0.950 . S
H2869 C2898 0.950 . S
H2870 C2900 0.950 . S
H2871 C2901 0.950 . S
C2872 H2854 0.951 . S
C2872 C2873 1.366 . S
C2872 C2874 1.388 . S
C2873 C2872 1.366 . S
C2873 C2877 1.385 . S
C2874 H2855 0.951 . S
C2874 C2872 1.388 . S
C2874 C2875 1.366 . S
C2875 C2874 1.366 . S
C2875 C2876 1.414 . S
C2875 C2878 1.499 . S
C2876 H2856 0.950 . S
C2876 C2875 1.414 . S
C2876 C2877 1.374 . S
C2877 H2857 0.950 . S
C2877 C2873 1.385 . S
C2877 C2876 1.374 . S
C2878 C2875 1.499 . S
C2878 C2879 1.373 . S
C2878 C2880 1.389 . S
C2879 H2858 0.950 . S
C2879 C2878 1.373 . S
C2879 C2895 1.377 . S
C2880 C2878 1.389 . S
C2880 C2881 1.524 . S
C2880 C2894 1.377 . S
C2881 C2880 1.524 . S
C2881 C2882 1.397 . S
C2881 C2886 1.363 . S
C2882 H2859 0.950 . S
C2882 C2881 1.397 . S
C2882 C2883 1.334 . S
C2883 H2860 0.950 . S
C2883 C2882 1.334 . S
C2883 C2884 1.287 . S
C2884 C2883 1.287 . S
C2884 C2885 1.524 . S
C2884 H2903 0.913 . S
C2885 H2861 0.950 . S
C2885 C2884 1.524 . S
C2885 C2886 1.415 . S
C2886 H2862 0.950 . S
C2886 C2881 1.363 . S
C2886 C2885 1.415 . S
C2887 H2863 0.951 . S
C2887 C2888 1.366 . S
C2887 C2889 1.388 . S
C2888 C2887 1.366 . S
C2888 C2892 1.385 . S
C2889 H2864 0.951 . S
C2889 C2887 1.388 . S
C2889 C2890 1.366 . S
C2890 C2889 1.366 . S
C2890 C2891 1.414 . S
C2890 C2893 1.499 . S
C2891 H2865 0.950 . S
C2891 C2890 1.414 . S
C2891 C2892 1.374 . S
C2892 H2866 0.950 . S
C2892 C2888 1.385 . S
C2892 C2891 1.374 . S
C2893 C2890 1.499 . S
C2893 C2894 1.373 . S
C2893 C2895 1.389 . S
C2894 H2867 0.950 . S
C2894 C2880 1.377 . S
C2894 C2893 1.373 . S
C2895 C2879 1.377 . S
C2895 C2893 1.389 . S
C2895 C2896 1.524 . S
C2896 C2895 1.524 . S
C2896 C2897 1.397 . S
C2896 C2901 1.363 . S
C2897 H2868 0.950 . S
C2897 C2896 1.397 . S
C2897 C2898 1.334 . S
C2898 H2869 0.950 . S
C2898 C2897 1.334 . S
C2898 C2899 1.287 . S
C2899 C2898 1.287 . S
C2899 C2900 1.524 . S
C2899 H2902 0.999 . S
C2900 H2870 0.950 . S
C2900 C2899 1.524 . S
C2900 C2901 1.415 . S
C2901 H2871 0.950 . S
C2901 C2896 1.363 . S
C2901 C2900 1.415 . S
H2902 C2899 0.999 . S
H2903 C2884 0.913 . S
H2904 C2922 0.951 . S
H2905 C2924 0.951 . S
H2906 C2926 0.950 . S
H2907 C2927 0.950 . S
H2908 C2929 0.950 . S
H2909 C2932 0.950 . S
H2910 C2933 0.950 . S
H2911 C2935 0.950 . S
H2912 C2936 0.950 . S
H2913 C2937 0.951 . S
H2914 C2939 0.951 . S
H2915 C2941 0.950 . S
H2916 C2942 0.950 . S
H2917 C2944 0.950 . S
H2918 C2947 0.950 . S
H2919 C2948 0.950 . S
H2920 C2950 0.950 . S
H2921 C2951 0.950 . S
C2922 H2904 0.951 . S
C2922 C2923 1.366 . S
C2922 C2924 1.388 . S
C2923 C2922 1.366 . S
C2923 C2927 1.385 . S
C2924 H2905 0.951 . S
C2924 C2922 1.388 . S
C2924 C2925 1.366 . S
C2925 C2924 1.366 . S
C2925 C2926 1.414 . S
C2925 C2928 1.499 . S
C2926 H2906 0.950 . S
C2926 C2925 1.414 . S
C2926 C2927 1.374 . S
C2927 H2907 0.950 . S
C2927 C2923 1.385 . S
C2927 C2926 1.374 . S
C2928 C2925 1.499 . S
C2928 C2929 1.373 . S
C2928 C2930 1.389 . S
C2929 H2908 0.950 . S
C2929 C2928 1.373 . S
C2929 C2945 1.377 . S
C2930 C2928 1.389 . S
C2930 C2931 1.524 . S
C2930 C2944 1.377 . S
C2931 C2930 1.524 . S
C2931 C2932 1.397 . S
C2931 C2936 1.363 . S
C2932 H2909 0.950 . S
C2932 C2931 1.397 . S
C2932 C2933 1.334 . S
C2933 H2910 0.950 . S
C2933 C2932 1.334 . S
C2933 C2934 1.287 . S
C2934 C2933 1.287 . S
C2934 C2935 1.524 . S
C2934 H2953 0.913 . S
C2935 H2911 0.950 . S
C2935 C2934 1.524 . S
C2935 C2936 1.415 . S
C2936 H2912 0.950 . S
C2936 C2931 1.363 . S
C2936 C2935 1.415 . S
C2937 H2913 0.951 . S
C2937 C2938 1.366 . S
C2937 C2939 1.388 . S
C2938 C2937 1.366 . S
C2938 C2942 1.385 . S
C2939 H2914 0.951 . S
C2939 C2937 1.388 . S
C2939 C2940 1.366 . S
C2940 C2939 1.366 . S
C2940 C2941 1.414 . S
C2940 C2943 1.499 . S
C2941 H2915 0.950 . S
C2941 C2940 1.414 . S
C2941 C2942 1.374 . S
C2942 H2916 0.950 . S
C2942 C2938 1.385 . S
C2942 C2941 1.374 . S
C2943 C2940 1.499 . S
C2943 C2944 1.373 . S
C2943 C2945 1.389 . S
C2944 H2917 0.950 . S
C2944 C2930 1.377 . S
C2944 C2943 1.373 . S
C2945 C2929 1.377 . S
C2945 C2943 1.389 . S
C2945 C2946 1.524 . S
C2946 C2945 1.524 . S
C2946 C2947 1.397 . S
C2946 C2951 1.363 . S
C2947 H2918 0.950 . S
C2947 C2946 1.397 . S
C2947 C2948 1.334 . S
C2948 H2919 0.950 . S
C2948 C2947 1.334 . S
C2948 C2949 1.287 . S
C2949 C2948 1.287 . S
C2949 C2950 1.524 . S
C2949 H2952 0.999 . S
C2950 H2920 0.950 . S
C2950 C2949 1.524 . S
C2950 C2951 1.415 . S
C2951 H2921 0.950 . S
C2951 C2946 1.363 . S
C2951 C2950 1.415 . S
H2952 C2949 0.999 . S
H2953 C2934 0.913 . S
H2954 C2972 0.951 . S
H2955 C2974 0.951 . S
H2956 C2976 0.950 . S
H2957 C2977 0.950 . S
H2958 C2979 0.950 . S
H2959 C2982 0.950 . S
H2960 C2983 0.950 . S
H2961 C2985 0.950 . S
H2962 C2986 0.950 . S
H2963 C2987 0.951 . S
H2964 C2989 0.951 . S
H2965 C2991 0.950 . S
H2966 C2992 0.950 . S
H2967 C2994 0.950 . S
H2968 C2997 0.950 . S
H2969 C2998 0.950 . S
H2970 C3000 0.950 . S
H2971 C3001 0.950 . S
C2972 H2954 0.951 . S
C2972 C2973 1.366 . S
C2972 C2974 1.388 . S
C2973 C2972 1.366 . S
C2973 C2977 1.385 1_545 S
C2974 H2955 0.951 . S
C2974 C2972 1.388 . S
C2974 C2975 1.366 . S
C2975 C2974 1.366 . S
C2975 C2976 1.414 1_545 S
C2975 C2978 1.510 . S
C2976 H2956 0.950 . S
C2976 C2975 1.414 1_565 S
C2976 C2977 1.374 . S
C2977 H2957 0.950 . S
C2977 C2973 1.385 1_565 S
C2977 C2976 1.374 . S
C2978 C2975 1.510 . S
C2978 C2979 1.392 1_545 S
C2978 C2980 1.373 . S
C2979 H2958 0.950 . S
C2979 C2978 1.392 1_565 S
C2979 C2995 1.377 . S
C2980 C2978 1.373 . S
C2980 C2981 1.524 . S
C2980 C2994 1.377 . S
C2981 C2980 1.524 . S
C2981 C2982 1.397 1_545 S
C2981 C2986 1.363 . S
C2982 H2959 0.950 . S
C2982 C2981 1.397 1_565 S
C2982 C2983 1.334 . S
C2983 H2960 0.950 . S
C2983 C2982 1.334 . S
C2983 C2984 1.287 1_565 S
C2984 C2983 1.287 1_545 S
C2984 C2985 1.524 . S
C2984 H3003 0.913 . S
C2985 H2961 0.950 . S
C2985 C2984 1.524 . S
C2985 C2986 1.415 . S
C2986 H2962 0.950 . S
C2986 C2981 1.363 . S
C2986 C2985 1.415 . S
C2987 H2963 0.951 . S
C2987 C2988 1.366 . S
C2987 C2989 1.388 . S
C2988 C2987 1.366 . S
C2988 C2992 1.385 1_565 S
C2989 H2964 0.951 . S
C2989 C2987 1.388 . S
C2989 C2990 1.366 . S
C2990 C2989 1.366 . S
C2990 C2991 1.414 1_565 S
C2990 C2993 1.510 . S
C2991 H2965 0.950 . S
C2991 C2990 1.414 1_545 S
C2991 C2992 1.374 . S
C2992 H2966 0.950 . S
C2992 C2988 1.385 1_545 S
C2992 C2991 1.374 . S
C2993 C2990 1.510 . S
C2993 C2994 1.392 1_565 S
C2993 C2995 1.373 . S
C2994 H2967 0.950 . S
C2994 C2980 1.377 . S
C2994 C2993 1.392 1_545 S
C2995 C2979 1.377 . S
C2995 C2993 1.373 . S
C2995 C2996 1.524 . S
C2996 C2995 1.524 . S
C2996 C2997 1.397 1_565 S
C2996 C3001 1.363 . S
C2997 H2968 0.950 . S
C2997 C2996 1.397 1_545 S
C2997 C2998 1.334 . S
C2998 H2969 0.950 . S
C2998 C2997 1.334 . S
C2998 C2999 1.287 1_545 S
C2999 C2998 1.287 1_565 S
C2999 C3000 1.524 . S
C2999 H3002 0.999 . S
C3000 H2970 0.950 . S
C3000 C2999 1.524 . S
C3000 C3001 1.415 . S
C3001 H2971 0.950 . S
C3001 C2996 1.363 . S
C3001 C3000 1.415 . S
H3002 C2999 0.999 . S
H3003 C2984 0.913 . S
H3004 C3022 0.951 . S
H3005 C3024 0.951 . S
H3006 C3026 0.950 . S
H3007 C3027 0.950 . S
H3008 C3029 0.950 . S
H3009 C3032 0.950 . S
H3010 C3033 0.950 . S
H3011 C3035 0.950 . S
H3012 C3036 0.950 . S
H3013 C3037 0.951 . S
H3014 C3039 0.951 . S
H3015 C3041 0.950 . S
H3016 C3042 0.950 . S
H3017 C3044 0.950 . S
H3018 C3047 0.950 . S
H3019 C3048 0.950 . S
H3020 C3050 0.950 . S
H3021 C3051 0.950 . S
C3022 H3004 0.951 . S
C3022 C3023 1.366 1_655 S
C3022 C3024 1.388 . S
C3023 C3022 1.366 1_455 S
C3023 C3027 1.385 . S
C3024 H3005 0.951 . S
C3024 C3022 1.388 . S
C3024 C3025 1.366 1_655 S
C3025 C3024 1.366 1_455 S
C3025 C3026 1.414 . S
C3025 C3028 1.499 . S
C3026 H3006 0.950 . S
C3026 C3025 1.414 . S
C3026 C3027 1.374 . S
C3027 H3007 0.950 . S
C3027 C3023 1.385 . S
C3027 C3026 1.374 . S
C3028 C3025 1.499 . S
C3028 C3029 1.373 . S
C3028 C3030 1.389 1_455 S
C3029 H3008 0.950 . S
C3029 C3028 1.373 . S
C3029 C3045 1.377 . S
C3030 C3028 1.389 1_655 S
C3030 C3031 1.524 . S
C3030 C3044 1.377 . S
C3031 C3030 1.524 . S
C3031 C3032 1.397 1_655 S
C3031 C3036 1.363 . S
C3032 H3009 0.950 . S
C3032 C3031 1.397 1_455 S
C3032 C3033 1.334 . S
C3033 H3010 0.950 . S
C3033 C3032 1.334 . S
C3033 C3034 1.287 1_455 S
C3034 C3033 1.287 1_655 S
C3034 C3035 1.524 . S
C3034 H3053 0.913 . S
C3035 H3011 0.950 . S
C3035 C3034 1.524 . S
C3035 C3036 1.415 . S
C3036 H3012 0.950 . S
C3036 C3031 1.363 . S
C3036 C3035 1.415 . S
C3037 H3013 0.951 . S
C3037 C3038 1.366 1_455 S
C3037 C3039 1.388 . S
C3038 C3037 1.366 1_655 S
C3038 C3042 1.385 . S
C3039 H3014 0.951 . S
C3039 C3037 1.388 . S
C3039 C3040 1.366 1_455 S
C3040 C3039 1.366 1_655 S
C3040 C3041 1.414 . S
C3040 C3043 1.499 . S
C3041 H3015 0.950 . S
C3041 C3040 1.414 . S
C3041 C3042 1.374 . S
C3042 H3016 0.950 . S
C3042 C3038 1.385 . S
C3042 C3041 1.374 . S
C3043 C3040 1.499 . S
C3043 C3044 1.373 . S
C3043 C3045 1.389 1_655 S
C3044 H3017 0.950 . S
C3044 C3030 1.377 . S
C3044 C3043 1.373 . S
C3045 C3029 1.377 . S
C3045 C3043 1.389 1_455 S
C3045 C3046 1.524 . S
C3046 C3045 1.524 . S
C3046 C3047 1.397 1_455 S
C3046 C3051 1.363 . S
C3047 H3018 0.950 . S
C3047 C3046 1.397 1_655 S
C3047 C3048 1.334 . S
C3048 H3019 0.950 . S
C3048 C3047 1.334 . S
C3048 C3049 1.287 1_655 S
C3049 C3048 1.287 1_455 S
C3049 C3050 1.524 . S
C3049 H3052 0.999 . S
C3050 H3020 0.950 . S
C3050 C3049 1.524 . S
C3050 C3051 1.415 . S
C3051 H3021 0.950 . S
C3051 C3046 1.363 . S
C3051 C3050 1.415 . S
H3052 C3049 0.999 . S
H3053 C3034 0.913 . S
H3054 C3072 0.951 . S
H3055 C3074 0.951 . S
H3056 C3076 0.950 . S
H3057 C3077 0.950 . S
H3058 C3079 0.950 . S
H3059 C3082 0.950 . S
H3060 C3083 0.950 . S
H3061 C3085 0.950 . S
H3062 C3086 0.950 . S
H3063 C3087 0.951 . S
H3064 C3089 0.951 . S
H3065 C3091 0.950 . S
H3066 C3092 0.950 . S
H3067 C3094 0.950 . S
H3068 C3097 0.950 . S
H3069 C3098 0.950 . S
H3070 C3100 0.950 . S
H3071 C3101 0.950 . S
C3072 H3054 0.951 . S
C3072 C3073 1.366 . S
C3072 C3074 1.388 . S
C3073 C3072 1.366 . S
C3073 C3077 1.385 . S
C3074 H3055 0.951 . S
C3074 C3072 1.388 . S
C3074 C3075 1.366 . S
C3075 C3074 1.366 . S
C3075 C3076 1.414 . S
C3075 C3078 1.499 . S
C3076 H3056 0.950 . S
C3076 C3075 1.414 . S
C3076 C3077 1.374 . S
C3077 H3057 0.950 . S
C3077 C3073 1.385 . S
C3077 C3076 1.374 . S
C3078 C3075 1.499 . S
C3078 C3079 1.373 . S
C3078 C3080 1.389 . S
C3079 H3058 0.950 . S
C3079 C3078 1.373 . S
C3079 C3095 1.377 . S
C3080 C3078 1.389 . S
C3080 C3081 1.524 . S
C3080 C3094 1.377 . S
C3081 C3080 1.524 . S
C3081 C3082 1.397 . S
C3081 C3086 1.363 . S
C3082 H3059 0.950 . S
C3082 C3081 1.397 . S
C3082 C3083 1.334 . S
C3083 H3060 0.950 . S
C3083 C3082 1.334 . S
C3083 C3084 1.287 . S
C3084 C3083 1.287 . S
C3084 C3085 1.524 . S
C3084 H3103 0.913 . S
C3085 H3061 0.950 . S
C3085 C3084 1.524 . S
C3085 C3086 1.415 . S
C3086 H3062 0.950 . S
C3086 C3081 1.363 . S
C3086 C3085 1.415 . S
C3087 H3063 0.951 . S
C3087 C3088 1.366 . S
C3087 C3089 1.388 . S
C3088 C3087 1.366 . S
C3088 C3092 1.385 . S
C3089 H3064 0.951 . S
C3089 C3087 1.388 . S
C3089 C3090 1.366 . S
C3090 C3089 1.366 . S
C3090 C3091 1.414 . S
C3090 C3093 1.499 . S
C3091 H3065 0.950 . S
C3091 C3090 1.414 . S
C3091 C3092 1.374 . S
C3092 H3066 0.950 . S
C3092 C3088 1.385 . S
C3092 C3091 1.374 . S
C3093 C3090 1.499 . S
C3093 C3094 1.373 . S
C3093 C3095 1.389 . S
C3094 H3067 0.950 . S
C3094 C3080 1.377 . S
C3094 C3093 1.373 . S
C3095 C3079 1.377 . S
C3095 C3093 1.389 . S
C3095 C3096 1.524 . S
C3096 C3095 1.524 . S
C3096 C3097 1.397 . S
C3096 C3101 1.363 . S
C3097 H3068 0.950 . S
C3097 C3096 1.397 . S
C3097 C3098 1.334 . S
C3098 H3069 0.950 . S
C3098 C3097 1.334 . S
C3098 C3099 1.287 . S
C3099 C3098 1.287 . S
C3099 C3100 1.524 . S
C3099 H3102 0.999 . S
C3100 H3070 0.950 . S
C3100 C3099 1.524 . S
C3100 C3101 1.415 . S
C3101 H3071 0.950 . S
C3101 C3096 1.363 . S
C3101 C3100 1.415 . S
H3102 C3099 0.999 . S
H3103 C3084 0.913 . S
H3104 C3122 0.951 . S
H3105 C3124 0.951 . S
H3106 C3126 0.950 . S
H3107 C3127 0.950 . S
H3108 C3129 0.950 . S
H3109 C3132 0.950 . S
H3110 C3133 0.950 . S
H3111 C3135 0.950 . S
H3112 C3136 0.950 . S
H3113 C3137 0.951 . S
H3114 C3139 0.951 . S
H3115 C3141 0.950 . S
H3116 C3142 0.950 . S
H3117 C3144 0.950 . S
H3118 C3147 0.950 . S
H3119 C3148 0.950 . S
H3120 C3150 0.950 . S
H3121 C3151 0.950 . S
C3122 H3104 0.951 . S
C3122 C3123 1.366 . S
C3122 C3124 1.388 . S
C3123 C3122 1.366 . S
C3123 C3127 1.385 1_565 S
C3124 H3105 0.951 . S
C3124 C3122 1.388 . S
C3124 C3125 1.366 . S
C3125 C3124 1.366 . S
C3125 C3126 1.414 1_565 S
C3125 C3128 1.499 . S
C3126 H3106 0.950 . S
C3126 C3125 1.414 1_545 S
C3126 C3127 1.374 . S
C3127 H3107 0.950 . S
C3127 C3123 1.385 1_545 S
C3127 C3126 1.374 . S
C3128 C3125 1.499 . S
C3128 C3129 1.373 1_565 S
C3128 C3130 1.389 . S
C3129 H3108 0.950 . S
C3129 C3128 1.373 1_545 S
C3129 C3145 1.377 . S
C3130 C3128 1.389 . S
C3130 C3131 1.524 . S
C3130 C3144 1.377 . S
C3131 C3130 1.524 . S
C3131 C3132 1.397 . S
C3131 C3136 1.363 . S
C3132 H3109 0.950 . S
C3132 C3131 1.397 . S
C3132 C3133 1.334 . S
C3133 H3110 0.950 . S
C3133 C3132 1.334 . S
C3133 C3134 1.287 . S
C3134 C3133 1.287 . S
C3134 C3135 1.524 . S
C3134 H3153 0.913 . S
C3135 H3111 0.950 . S
C3135 C3134 1.524 . S
C3135 C3136 1.415 . S
C3136 H3112 0.950 . S
C3136 C3131 1.363 . S
C3136 C3135 1.415 . S
C3137 H3113 0.951 . S
C3137 C3138 1.366 . S
C3137 C3139 1.388 . S
C3138 C3137 1.366 . S
C3138 C3142 1.385 1_545 S
C3139 H3114 0.951 . S
C3139 C3137 1.388 . S
C3139 C3140 1.366 . S
C3140 C3139 1.366 . S
C3140 C3141 1.414 1_545 S
C3140 C3143 1.499 . S
C3141 H3115 0.950 . S
C3141 C3140 1.414 1_565 S
C3141 C3142 1.374 . S
C3142 H3116 0.950 . S
C3142 C3138 1.385 1_565 S
C3142 C3141 1.374 . S
C3143 C3140 1.499 . S
C3143 C3144 1.373 1_545 S
C3143 C3145 1.389 . S
C3144 H3117 0.950 . S
C3144 C3130 1.377 . S
C3144 C3143 1.373 1_565 S
C3145 C3129 1.377 . S
C3145 C3143 1.389 . S
C3145 C3146 1.524 . S
C3146 C3145 1.524 . S
C3146 C3147 1.397 . S
C3146 C3151 1.363 . S
C3147 H3118 0.950 . S
C3147 C3146 1.397 . S
C3147 C3148 1.334 . S
C3148 H3119 0.950 . S
C3148 C3147 1.334 . S
C3148 C3149 1.287 . S
C3149 C3148 1.287 . S
C3149 C3150 1.524 . S
C3149 H3152 0.999 . S
C3150 H3120 0.950 . S
C3150 C3149 1.524 . S
C3150 C3151 1.415 . S
C3151 H3121 0.950 . S
C3151 C3146 1.363 . S
C3151 C3150 1.415 . S
H3152 C3149 0.999 . S
H3153 C3134 0.913 . S
H3154 C3172 0.951 . S
H3155 C3174 0.951 . S
H3156 C3176 0.950 . S
H3157 C3177 0.950 . S
H3158 C3179 0.950 . S
H3159 C3182 0.975 . S
H3160 C3183 0.950 1_655 S
H3161 C3185 0.950 . S
H3162 C3186 0.950 . S
H3163 C3187 0.951 . S
H3164 C3189 0.951 . S
H3165 C3191 0.950 . S
H3166 C3192 0.950 . S
H3167 C3194 0.950 . S
H3168 C3197 0.974 . S
H3169 C3198 0.950 1_455 S
H3170 C3200 0.950 . S
H3171 C3201 0.950 . S
C3172 H3154 0.951 . S
C3172 C3173 1.366 . S
C3172 C3174 1.388 . S
C3173 C3172 1.366 . S
C3173 C3177 1.385 1_455 S
C3174 H3155 0.951 . S
C3174 C3172 1.388 . S
C3174 C3175 1.366 . S
C3175 C3174 1.366 . S
C3175 C3176 1.414 1_455 S
C3175 C3178 1.511 . S
C3176 H3156 0.950 . S
C3176 C3175 1.414 1_655 S
C3176 C3177 1.374 . S
C3177 H3157 0.950 . S
C3177 C3173 1.385 1_655 S
C3177 C3176 1.374 . S
C3178 C3175 1.511 . S
C3178 C3179 1.387 1_455 S
C3178 C3180 1.377 . S
C3179 H3158 0.950 . S
C3179 C3178 1.387 1_655 S
C3179 C3195 1.377 . S
C3180 C3178 1.377 . S
C3180 C3181 1.524 . S
C3180 C3194 1.377 . S
C3181 C3180 1.524 . S
C3181 C3182 1.358 1_455 S
C3181 C3186 1.363 . S
C3182 H3159 0.975 . S
C3182 C3181 1.358 1_655 S
C3182 C3183 1.350 1_655 S
C3183 H3160 0.950 1_455 S
C3183 C3182 1.350 1_455 S
C3183 C3184 1.287 . S
C3184 C3183 1.287 . S
C3184 C3185 1.524 . S
C3184 H3203 0.913 . S
C3185 H3161 0.950 . S
C3185 C3184 1.524 . S
C3185 C3186 1.415 . S
C3186 H3162 0.950 . S
C3186 C3181 1.363 . S
C3186 C3185 1.415 . S
C3187 H3163 0.951 . S
C3187 C3188 1.366 . S
C3187 C3189 1.388 . S
C3188 C3187 1.366 . S
C3188 C3192 1.385 1_655 S
C3189 H3164 0.951 . S
C3189 C3187 1.388 . S
C3189 C3190 1.366 . S
C3190 C3189 1.366 . S
C3190 C3191 1.414 1_655 S
C3190 C3193 1.511 . S
C3191 H3165 0.950 . S
C3191 C3190 1.414 1_455 S
C3191 C3192 1.374 . S
C3192 H3166 0.950 . S
C3192 C3188 1.385 1_455 S
C3192 C3191 1.374 . S
C3193 C3190 1.511 . S
C3193 C3194 1.387 1_655 S
C3193 C3195 1.377 . S
C3194 H3167 0.950 . S
C3194 C3180 1.377 . S
C3194 C3193 1.387 1_455 S
C3195 C3179 1.377 . S
C3195 C3193 1.377 . S
C3195 C3196 1.524 . S
C3196 C3195 1.524 . S
C3196 C3197 1.359 1_655 S
C3196 C3201 1.363 . S
C3197 H3168 0.974 . S
C3197 C3196 1.359 1_455 S
C3197 C3198 1.350 1_455 S
C3198 H3169 0.950 1_655 S
C3198 C3197 1.350 1_655 S
C3198 C3199 1.287 . S
C3199 C3198 1.287 . S
C3199 C3200 1.524 . S
C3199 H3202 0.999 . S
C3200 H3170 0.950 . S
C3200 C3199 1.524 . S
C3200 C3201 1.415 . S
C3201 H3171 0.950 . S
C3201 C3196 1.363 . S
C3201 C3200 1.415 . S
H3202 C3199 0.999 . S
H3203 C3184 0.913 . S
H3204 C3222 0.951 . S
H3205 C3224 0.951 . S
H3206 C3226 0.950 . S
H3207 C3227 0.950 . S
H3208 C3229 0.950 . S
H3209 C3232 0.950 . S
H3210 C3233 0.950 . S
H3211 C3235 0.950 . S
H3212 C3236 0.950 . S
H3213 C3237 0.951 . S
H3214 C3239 0.951 . S
H3215 C3241 0.950 . S
H3216 C3242 0.950 . S
H3217 C3244 0.950 . S
H3218 C3247 0.950 . S
H3219 C3248 0.950 . S
H3220 C3250 0.950 1_655 S
H3221 C3251 0.950 . S
C3222 H3204 0.951 . S
C3222 C3223 1.366 . S
C3222 C3224 1.388 . S
C3223 C3222 1.366 . S
C3223 C3227 1.385 . S
C3224 H3205 0.951 . S
C3224 C3222 1.388 . S
C3224 C3225 1.366 . S
C3225 C3224 1.366 . S
C3225 C3226 1.414 . S
C3225 C3228 1.499 . S
C3226 H3206 0.950 . S
C3226 C3225 1.414 . S
C3226 C3227 1.374 . S
C3227 H3207 0.950 . S
C3227 C3223 1.385 . S
C3227 C3226 1.374 . S
C3228 C3225 1.499 . S
C3228 C3229 1.373 . S
C3228 C3230 1.389 . S
C3229 H3208 0.950 . S
C3229 C3228 1.373 . S
C3229 C3245 1.377 . S
C3230 C3228 1.389 . S
C3230 C3231 1.524 . S
C3230 C3244 1.377 . S
C3231 C3230 1.524 . S
C3231 C3232 1.397 . S
C3231 C3236 1.363 . S
C3232 H3209 0.950 . S
C3232 C3231 1.397 . S
C3232 C3233 1.334 . S
C3233 H3210 0.950 . S
C3233 C3232 1.334 . S
C3233 C3234 1.287 . S
C3234 C3233 1.287 . S
C3234 C3235 1.524 . S
C3234 H3253 0.913 . S
C3235 H3211 0.950 . S
C3235 C3234 1.524 . S
C3235 C3236 1.415 . S
C3236 H3212 0.950 . S
C3236 C3231 1.363 . S
C3236 C3235 1.415 . S
C3237 H3213 0.951 . S
C3237 C3238 1.366 . S
C3237 C3239 1.388 . S
C3238 C3237 1.366 . S
C3238 C3242 1.385 . S
C3239 H3214 0.951 . S
C3239 C3237 1.388 . S
C3239 C3240 1.366 . S
C3240 C3239 1.366 . S
C3240 C3241 1.414 . S
C3240 C3243 1.499 . S
C3241 H3215 0.950 . S
C3241 C3240 1.414 . S
C3241 C3242 1.374 . S
C3242 H3216 0.950 . S
C3242 C3238 1.385 . S
C3242 C3241 1.374 . S
C3243 C3240 1.499 . S
C3243 C3244 1.373 . S
C3243 C3245 1.389 . S
C3244 H3217 0.950 . S
C3244 C3230 1.377 . S
C3244 C3243 1.373 . S
C3245 C3229 1.377 . S
C3245 C3243 1.389 . S
C3245 C3246 1.524 . S
C3246 C3245 1.524 . S
C3246 C3247 1.397 . S
C3246 C3251 1.363 . S
C3247 H3218 0.950 . S
C3247 C3246 1.397 . S
C3247 C3248 1.334 . S
C3248 H3219 0.950 . S
C3248 C3247 1.334 . S
C3248 C3249 1.287 . S
C3249 C3248 1.287 . S
C3249 C3250 1.524 . S
C3249 H3252 0.999 1_455 S
C3250 H3220 0.950 1_455 S
C3250 C3249 1.524 . S
C3250 C3251 1.415 . S
C3251 H3221 0.950 . S
C3251 C3246 1.363 . S
C3251 C3250 1.415 . S
H3252 C3249 0.999 1_655 S
H3253 C3234 0.913 . S
H3254 C3272 0.951 . S
H3255 C3274 0.951 . S
H3256 C3276 0.950 . S
H3257 C3277 0.950 . S
H3258 C3279 0.950 . S
H3259 C3282 0.950 . S
H3260 C3283 0.950 . S
H3261 C3285 0.950 . S
H3262 C3286 0.950 . S
H3263 C3287 0.951 . S
H3264 C3289 0.951 . S
H3265 C3291 0.950 . S
H3266 C3292 0.950 . S
H3267 C3294 0.950 . S
H3268 C3297 0.950 . S
H3269 C3298 0.950 . S
H3270 C3300 0.950 . S
H3271 C3301 0.950 . S
C3272 H3254 0.951 . S
C3272 C3273 1.366 . S
C3272 C3274 1.388 . S
C3273 C3272 1.366 . S
C3273 C3277 1.385 . S
C3274 H3255 0.951 . S
C3274 C3272 1.388 . S
C3274 C3275 1.366 . S
C3275 C3274 1.366 . S
C3275 C3276 1.414 . S
C3275 C3278 1.499 . S
C3276 H3256 0.950 . S
C3276 C3275 1.414 . S
C3276 C3277 1.374 . S
C3277 H3257 0.950 . S
C3277 C3273 1.385 . S
C3277 C3276 1.374 . S
C3278 C3275 1.499 . S
C3278 C3279 1.373 . S
C3278 C3280 1.389 . S
C3279 H3258 0.950 . S
C3279 C3278 1.373 . S
C3279 C3295 1.377 . S
C3280 C3278 1.389 . S
C3280 C3281 1.524 . S
C3280 C3294 1.377 . S
C3281 C3280 1.524 . S
C3281 C3282 1.397 . S
C3281 C3286 1.363 . S
C3282 H3259 0.950 . S
C3282 C3281 1.397 . S
C3282 C3283 1.334 . S
C3283 H3260 0.950 . S
C3283 C3282 1.334 . S
C3283 C3284 1.287 . S
C3284 C3283 1.287 . S
C3284 C3285 1.524 . S
C3284 H3303 0.913 . S
C3285 H3261 0.950 . S
C3285 C3284 1.524 . S
C3285 C3286 1.415 . S
C3286 H3262 0.950 . S
C3286 C3281 1.363 . S
C3286 C3285 1.415 . S
C3287 H3263 0.951 . S
C3287 C3288 1.366 . S
C3287 C3289 1.388 . S
C3288 C3287 1.366 . S
C3288 C3292 1.385 . S
C3289 H3264 0.951 . S
C3289 C3287 1.388 . S
C3289 C3290 1.366 . S
C3290 C3289 1.366 . S
C3290 C3291 1.414 . S
C3290 C3293 1.499 . S
C3291 H3265 0.950 . S
C3291 C3290 1.414 . S
C3291 C3292 1.374 . S
C3292 H3266 0.950 . S
C3292 C3288 1.385 . S
C3292 C3291 1.374 . S
C3293 C3290 1.499 . S
C3293 C3294 1.373 . S
C3293 C3295 1.389 . S
C3294 H3267 0.950 . S
C3294 C3280 1.377 . S
C3294 C3293 1.373 . S
C3295 C3279 1.377 . S
C3295 C3293 1.389 . S
C3295 C3296 1.524 . S
C3296 C3295 1.524 . S
C3296 C3297 1.397 . S
C3296 C3301 1.363 . S
C3297 H3268 0.950 . S
C3297 C3296 1.397 . S
C3297 C3298 1.334 . S
C3298 H3269 0.950 . S
C3298 C3297 1.334 . S
C3298 C3299 1.287 . S
C3299 C3298 1.287 . S
C3299 C3300 1.524 . S
C3299 H3302 0.999 . S
C3300 H3270 0.950 . S
C3300 C3299 1.524 . S
C3300 C3301 1.415 . S
C3301 H3271 0.950 . S
C3301 C3296 1.363 . S
C3301 C3300 1.415 . S
H3302 C3299 0.999 . S
H3303 C3284 0.913 . S
H3304 C3322 0.951 . S
H3305 C3324 0.951 . S
H3306 C3326 0.950 . S
H3307 C3327 0.950 . S
H3308 C3329 0.950 . S
H3309 C3332 0.950 . S
H3310 C3333 0.950 . S
H3311 C3335 0.950 . S
H3312 C3336 0.950 . S
H3313 C3337 0.951 . S
H3314 C3339 0.951 . S
H3315 C3341 0.950 . S
H3316 C3342 0.950 . S
H3317 C3344 0.950 . S
H3318 C3347 0.950 . S
H3319 C3348 0.950 . S
H3320 C3350 0.950 . S
H3321 C3351 0.950 . S
C3322 H3304 0.951 . S
C3322 C3323 1.366 . S
C3322 C3324 1.388 . S
C3323 C3322 1.366 . S
C3323 C3327 1.385 . S
C3324 H3305 0.951 . S
C3324 C3322 1.388 . S
C3324 C3325 1.366 . S
C3325 C3324 1.366 . S
C3325 C3326 1.414 . S
C3325 C3328 1.499 . S
C3326 H3306 0.950 . S
C3326 C3325 1.414 . S
C3326 C3327 1.374 . S
C3327 H3307 0.950 . S
C3327 C3323 1.385 . S
C3327 C3326 1.374 . S
C3328 C3325 1.499 . S
C3328 C3329 1.373 . S
C3328 C3330 1.389 . S
C3329 H3308 0.950 . S
C3329 C3328 1.373 . S
C3329 C3345 1.377 . S
C3330 C3328 1.389 . S
C3330 C3331 1.524 . S
C3330 C3344 1.377 . S
C3331 C3330 1.524 . S
C3331 C3332 1.397 . S
C3331 C3336 1.363 . S
C3332 H3309 0.950 . S
C3332 C3331 1.397 . S
C3332 C3333 1.334 . S
C3333 H3310 0.950 . S
C3333 C3332 1.334 . S
C3333 C3334 1.287 . S
C3334 C3333 1.287 . S
C3334 C3335 1.524 . S
C3334 H3353 0.913 . S
C3335 H3311 0.950 . S
C3335 C3334 1.524 . S
C3335 C3336 1.415 . S
C3336 H3312 0.950 . S
C3336 C3331 1.363 . S
C3336 C3335 1.415 . S
C3337 H3313 0.951 . S
C3337 C3338 1.366 . S
C3337 C3339 1.388 . S
C3338 C3337 1.366 . S
C3338 C3342 1.385 . S
C3339 H3314 0.951 . S
C3339 C3337 1.388 . S
C3339 C3340 1.366 . S
C3340 C3339 1.366 . S
C3340 C3341 1.414 . S
C3340 C3343 1.499 . S
C3341 H3315 0.950 . S
C3341 C3340 1.414 . S
C3341 C3342 1.374 . S
C3342 H3316 0.950 . S
C3342 C3338 1.385 . S
C3342 C3341 1.374 . S
C3343 C3340 1.499 . S
C3343 C3344 1.373 . S
C3343 C3345 1.389 . S
C3344 H3317 0.950 . S
C3344 C3330 1.377 . S
C3344 C3343 1.373 . S
C3345 C3329 1.377 . S
C3345 C3343 1.389 . S
C3345 C3346 1.524 . S
C3346 C3345 1.524 . S
C3346 C3347 1.397 . S
C3346 C3351 1.363 . S
C3347 H3318 0.950 . S
C3347 C3346 1.397 . S
C3347 C3348 1.334 . S
C3348 H3319 0.950 . S
C3348 C3347 1.334 . S
C3348 C3349 1.287 . S
C3349 C3348 1.287 . S
C3349 C3350 1.524 . S
C3349 H3352 0.999 . S
C3350 H3320 0.950 . S
C3350 C3349 1.524 . S
C3350 C3351 1.415 . S
C3351 H3321 0.950 . S
C3351 C3346 1.363 . S
C3351 C3350 1.415 . S
H3352 C3349 0.999 . S
H3353 C3334 0.913 . S
H3354 C3372 0.951 . S
H3355 C3374 0.951 . S
H3356 C3376 0.950 . S
H3357 C3377 0.950 . S
H3358 C3379 0.950 . S
H3359 C3382 0.950 . S
H3360 C3383 0.950 . S
H3361 C3385 0.950 . S
H3362 C3386 0.950 . S
H3363 C3387 0.951 . S
H3364 C3389 0.951 . S
H3365 C3391 0.950 . S
H3366 C3392 0.950 . S
H3367 C3394 0.950 . S
H3368 C3397 0.950 . S
H3369 C3398 0.950 . S
H3370 C3400 0.950 . S
H3371 C3401 0.950 . S
C3372 H3354 0.951 . S
C3372 C3373 1.366 . S
C3372 C3374 1.388 . S
C3373 C3372 1.366 . S
C3373 C3377 1.385 . S
C3374 H3355 0.951 . S
C3374 C3372 1.388 . S
C3374 C3375 1.366 . S
C3375 C3374 1.366 . S
C3375 C3376 1.414 . S
C3375 C3378 1.499 . S
C3376 H3356 0.950 . S
C3376 C3375 1.414 . S
C3376 C3377 1.374 . S
C3377 H3357 0.950 . S
C3377 C3373 1.385 . S
C3377 C3376 1.374 . S
C3378 C3375 1.499 . S
C3378 C3379 1.373 . S
C3378 C3380 1.389 . S
C3379 H3358 0.950 . S
C3379 C3378 1.373 . S
C3379 C3395 1.377 . S
C3380 C3378 1.389 . S
C3380 C3381 1.524 . S
C3380 C3394 1.377 . S
C3381 C3380 1.524 . S
C3381 C3382 1.397 . S
C3381 C3386 1.363 . S
C3382 H3359 0.950 . S
C3382 C3381 1.397 . S
C3382 C3383 1.334 . S
C3383 H3360 0.950 . S
C3383 C3382 1.334 . S
C3383 C3384 1.287 . S
C3384 C3383 1.287 . S
C3384 C3385 1.524 . S
C3384 H3403 0.913 . S
C3385 H3361 0.950 . S
C3385 C3384 1.524 . S
C3385 C3386 1.415 . S
C3386 H3362 0.950 . S
C3386 C3381 1.363 . S
C3386 C3385 1.415 . S
C3387 H3363 0.951 . S
C3387 C3388 1.366 . S
C3387 C3389 1.388 . S
C3388 C3387 1.366 . S
C3388 C3392 1.385 . S
C3389 H3364 0.951 . S
C3389 C3387 1.388 . S
C3389 C3390 1.366 . S
C3390 C3389 1.366 . S
C3390 C3391 1.414 . S
C3390 C3393 1.499 . S
C3391 H3365 0.950 . S
C3391 C3390 1.414 . S
C3391 C3392 1.374 . S
C3392 H3366 0.950 . S
C3392 C3388 1.385 . S
C3392 C3391 1.374 . S
C3393 C3390 1.499 . S
C3393 C3394 1.373 . S
C3393 C3395 1.389 . S
C3394 H3367 0.950 . S
C3394 C3380 1.377 . S
C3394 C3393 1.373 . S
C3395 C3379 1.377 . S
C3395 C3393 1.389 . S
C3395 C3396 1.524 . S
C3396 C3395 1.524 . S
C3396 C3397 1.397 . S
C3396 C3401 1.363 . S
C3397 H3368 0.950 . S
C3397 C3396 1.397 . S
C3397 C3398 1.334 . S
C3398 H3369 0.950 . S
C3398 C3397 1.334 . S
C3398 C3399 1.287 . S
C3399 C3398 1.287 . S
C3399 C3400 1.524 . S
C3399 H3402 0.999 . S
C3400 H3370 0.950 . S
C3400 C3399 1.524 . S
C3400 C3401 1.415 . S
C3401 H3371 0.950 . S
C3401 C3396 1.363 . S
C3401 C3400 1.415 . S
H3402 C3399 0.999 . S
H3403 C3384 0.913 . S
H3404 C3422 0.951 . S
H3405 C3424 0.951 . S
H3406 C3426 0.950 . S
H3407 C3427 0.950 . S
H3408 C3429 0.950 . S
H3409 C3432 0.950 . S
H3410 C3433 0.950 . S
H3411 C3435 0.950 . S
H3412 C3436 0.950 . S
H3413 C3437 0.951 . S
H3414 C3439 0.951 . S
H3415 C3441 0.950 . S
H3416 C3442 0.950 . S
H3417 C3444 0.950 . S
H3418 C3447 0.950 . S
H3419 C3448 0.950 . S
H3420 C3450 0.950 . S
H3421 C3451 0.950 . S
C3422 H3404 0.951 . S
C3422 C3423 1.366 . S
C3422 C3424 1.388 . S
C3423 C3422 1.366 . S
C3423 C3427 1.385 . S
C3424 H3405 0.951 . S
C3424 C3422 1.388 . S
C3424 C3425 1.366 . S
C3425 C3424 1.366 . S
C3425 C3426 1.414 . S
C3425 C3428 1.499 . S
C3426 H3406 0.950 . S
C3426 C3425 1.414 . S
C3426 C3427 1.374 . S
C3427 H3407 0.950 . S
C3427 C3423 1.385 . S
C3427 C3426 1.374 . S
C3428 C3425 1.499 . S
C3428 C3429 1.373 . S
C3428 C3430 1.389 . S
C3429 H3408 0.950 . S
C3429 C3428 1.373 . S
C3429 C3445 1.377 . S
C3430 C3428 1.389 . S
C3430 C3431 1.524 . S
C3430 C3444 1.377 . S
C3431 C3430 1.524 . S
C3431 C3432 1.397 . S
C3431 C3436 1.363 . S
C3432 H3409 0.950 . S
C3432 C3431 1.397 . S
C3432 C3433 1.334 . S
C3433 H3410 0.950 . S
C3433 C3432 1.334 . S
C3433 C3434 1.287 . S
C3434 C3433 1.287 . S
C3434 C3435 1.524 . S
C3434 H3453 0.913 . S
C3435 H3411 0.950 . S
C3435 C3434 1.524 . S
C3435 C3436 1.415 . S
C3436 H3412 0.950 . S
C3436 C3431 1.363 . S
C3436 C3435 1.415 . S
C3437 H3413 0.951 . S
C3437 C3438 1.366 . S
C3437 C3439 1.388 . S
C3438 C3437 1.366 . S
C3438 C3442 1.385 . S
C3439 H3414 0.951 . S
C3439 C3437 1.388 . S
C3439 C3440 1.366 . S
C3440 C3439 1.366 . S
C3440 C3441 1.414 . S
C3440 C3443 1.499 . S
C3441 H3415 0.950 . S
C3441 C3440 1.414 . S
C3441 C3442 1.374 . S
C3442 H3416 0.950 . S
C3442 C3438 1.385 . S
C3442 C3441 1.374 . S
C3443 C3440 1.499 . S
C3443 C3444 1.373 . S
C3443 C3445 1.389 . S
C3444 H3417 0.950 . S
C3444 C3430 1.377 . S
C3444 C3443 1.373 . S
C3445 C3429 1.377 . S
C3445 C3443 1.389 . S
C3445 C3446 1.524 . S
C3446 C3445 1.524 . S
C3446 C3447 1.397 . S
C3446 C3451 1.363 . S
C3447 H3418 0.950 . S
C3447 C3446 1.397 . S
C3447 C3448 1.334 . S
C3448 H3419 0.950 . S
C3448 C3447 1.334 . S
C3448 C3449 1.287 . S
C3449 C3448 1.287 . S
C3449 C3450 1.524 . S
C3449 H3452 0.999 . S
C3450 H3420 0.950 . S
C3450 C3449 1.524 . S
C3450 C3451 1.415 . S
C3451 H3421 0.950 . S
C3451 C3446 1.363 . S
C3451 C3450 1.415 . S
H3452 C3449 0.999 . S
H3453 C3434 0.913 . S
H3454 C3472 0.951 . S
H3455 C3474 0.951 . S
H3456 C3476 0.950 . S
H3457 C3477 0.950 . S
H3458 C3479 0.950 . S
H3459 C3482 0.950 . S
H3460 C3483 0.950 . S
H3461 C3485 0.950 . S
H3462 C3486 0.950 . S
H3463 C3487 0.951 . S
H3464 C3489 0.951 . S
H3465 C3491 0.950 . S
H3466 C3492 0.950 . S
H3467 C3494 0.950 . S
H3468 C3497 0.950 . S
H3469 C3498 0.950 . S
H3470 C3500 0.950 . S
H3471 C3501 0.950 . S
C3472 H3454 0.951 . S
C3472 C3473 1.366 . S
C3472 C3474 1.388 . S
C3473 C3472 1.366 . S
C3473 C3477 1.385 . S
C3474 H3455 0.951 . S
C3474 C3472 1.388 . S
C3474 C3475 1.366 . S
C3475 C3474 1.366 . S
C3475 C3476 1.414 . S
C3475 C3478 1.499 . S
C3476 H3456 0.950 . S
C3476 C3475 1.414 . S
C3476 C3477 1.374 . S
C3477 H3457 0.950 . S
C3477 C3473 1.385 . S
C3477 C3476 1.374 . S
C3478 C3475 1.499 . S
C3478 C3479 1.373 . S
C3478 C3480 1.389 . S
C3479 H3458 0.950 . S
C3479 C3478 1.373 . S
C3479 C3495 1.377 . S
C3480 C3478 1.389 . S
C3480 C3481 1.524 . S
C3480 C3494 1.377 . S
C3481 C3480 1.524 . S
C3481 C3482 1.397 . S
C3481 C3486 1.363 . S
C3482 H3459 0.950 . S
C3482 C3481 1.397 . S
C3482 C3483 1.334 . S
C3483 H3460 0.950 . S
C3483 C3482 1.334 . S
C3483 C3484 1.287 . S
C3484 C3483 1.287 . S
C3484 C3485 1.524 . S
C3484 H3503 0.913 . S
C3485 H3461 0.950 . S
C3485 C3484 1.524 . S
C3485 C3486 1.415 . S
C3486 H3462 0.950 . S
C3486 C3481 1.363 . S
C3486 C3485 1.415 . S
C3487 H3463 0.951 . S
C3487 C3488 1.366 . S
C3487 C3489 1.388 . S
C3488 C3487 1.366 . S
C3488 C3492 1.385 . S
C3489 H3464 0.951 . S
C3489 C3487 1.388 . S
C3489 C3490 1.366 . S
C3490 C3489 1.366 . S
C3490 C3491 1.414 . S
C3490 C3493 1.499 . S
C3491 H3465 0.950 . S
C3491 C3490 1.414 . S
C3491 C3492 1.374 . S
C3492 H3466 0.950 . S
C3492 C3488 1.385 . S
C3492 C3491 1.374 . S
C3493 C3490 1.499 . S
C3493 C3494 1.373 . S
C3493 C3495 1.389 . S
C3494 H3467 0.950 . S
C3494 C3480 1.377 . S
C3494 C3493 1.373 . S
C3495 C3479 1.377 . S
C3495 C3493 1.389 . S
C3495 C3496 1.524 . S
C3496 C3495 1.524 . S
C3496 C3497 1.397 . S
C3496 C3501 1.363 . S
C3497 H3468 0.950 . S
C3497 C3496 1.397 . S
C3497 C3498 1.334 . S
C3498 H3469 0.950 . S
C3498 C3497 1.334 . S
C3498 C3499 1.287 . S
C3499 C3498 1.287 . S
C3499 C3500 1.524 . S
C3499 H3502 0.999 . S
C3500 H3470 0.950 . S
C3500 C3499 1.524 . S
C3500 C3501 1.415 . S
C3501 H3471 0.950 . S
C3501 C3496 1.363 . S
C3501 C3500 1.415 . S
H3502 C3499 0.999 . S
H3503 C3484 0.913 . S
H3504 C3522 0.951 . S
H3505 C3524 0.951 . S
H3506 C3526 0.950 . S
H3507 C3527 0.950 . S
H3508 C3529 0.950 . S
H3509 C3532 0.950 . S
H3510 C3533 0.950 . S
H3511 C3535 0.950 . S
H3512 C3536 0.950 . S
H3513 C3537 0.951 . S
H3514 C3539 0.951 . S
H3515 C3541 0.950 . S
H3516 C3542 0.950 . S
H3517 C3544 0.950 . S
H3518 C3547 0.950 . S
H3519 C3548 0.950 . S
H3520 C3550 0.950 . S
H3521 C3551 0.950 . S
C3522 H3504 0.951 . S
C3522 C3523 1.366 . S
C3522 C3524 1.388 . S
C3523 C3522 1.366 . S
C3523 C3527 1.385 . S
C3524 H3505 0.951 . S
C3524 C3522 1.388 . S
C3524 C3525 1.366 . S
C3525 C3524 1.366 . S
C3525 C3526 1.414 . S
C3525 C3528 1.499 . S
C3526 H3506 0.950 . S
C3526 C3525 1.414 . S
C3526 C3527 1.374 . S
C3527 H3507 0.950 . S
C3527 C3523 1.385 . S
C3527 C3526 1.374 . S
C3528 C3525 1.499 . S
C3528 C3529 1.373 . S
C3528 C3530 1.389 . S
C3529 H3508 0.950 . S
C3529 C3528 1.373 . S
C3529 C3545 1.377 . S
C3530 C3528 1.389 . S
C3530 C3531 1.524 . S
C3530 C3544 1.377 . S
C3531 C3530 1.524 . S
C3531 C3532 1.397 . S
C3531 C3536 1.363 . S
C3532 H3509 0.950 . S
C3532 C3531 1.397 . S
C3532 C3533 1.334 . S
C3533 H3510 0.950 . S
C3533 C3532 1.334 . S
C3533 C3534 1.287 . S
C3534 C3533 1.287 . S
C3534 C3535 1.524 . S
C3534 H3553 0.913 . S
C3535 H3511 0.950 . S
C3535 C3534 1.524 . S
C3535 C3536 1.415 . S
C3536 H3512 0.950 . S
C3536 C3531 1.363 . S
C3536 C3535 1.415 . S
C3537 H3513 0.951 . S
C3537 C3538 1.366 . S
C3537 C3539 1.388 . S
C3538 C3537 1.366 . S
C3538 C3542 1.385 . S
C3539 H3514 0.951 . S
C3539 C3537 1.388 . S
C3539 C3540 1.366 . S
C3540 C3539 1.366 . S
C3540 C3541 1.414 . S
C3540 C3543 1.499 . S
C3541 H3515 0.950 . S
C3541 C3540 1.414 . S
C3541 C3542 1.374 . S
C3542 H3516 0.950 . S
C3542 C3538 1.385 . S
C3542 C3541 1.374 . S
C3543 C3540 1.499 . S
C3543 C3544 1.373 . S
C3543 C3545 1.389 . S
C3544 H3517 0.950 . S
C3544 C3530 1.377 . S
C3544 C3543 1.373 . S
C3545 C3529 1.377 . S
C3545 C3543 1.389 . S
C3545 C3546 1.524 . S
C3546 C3545 1.524 . S
C3546 C3547 1.397 . S
C3546 C3551 1.363 . S
C3547 H3518 0.950 . S
C3547 C3546 1.397 . S
C3547 C3548 1.334 . S
C3548 H3519 0.950 . S
C3548 C3547 1.334 . S
C3548 C3549 1.287 . S
C3549 C3548 1.287 . S
C3549 C3550 1.524 . S
C3549 H3552 0.999 . S
C3550 H3520 0.950 . S
C3550 C3549 1.524 . S
C3550 C3551 1.415 . S
C3551 H3521 0.950 . S
C3551 C3546 1.363 . S
C3551 C3550 1.415 . S
H3552 C3549 0.999 . S
H3553 C3534 0.913 . S
H3554 C3572 0.951 . S
H3555 C3574 0.951 . S
H3556 C3576 0.950 . S
H3557 C3577 0.950 . S
H3558 C3579 0.950 . S
H3559 C3582 0.950 . S
H3560 C3583 0.950 . S
H3561 C3585 0.950 . S
H3562 C3586 0.950 . S
H3563 C3587 0.951 . S
H3564 C3589 0.951 . S
H3565 C3591 0.950 . S
H3566 C3592 0.950 . S
H3567 C3594 0.950 . S
H3568 C3597 0.950 . S
H3569 C3598 0.950 . S
H3570 C3600 0.950 . S
H3571 C3601 0.950 . S
C3572 H3554 0.951 . S
C3572 C3573 1.366 . S
C3572 C3574 1.388 . S
C3573 C3572 1.366 . S
C3573 C3577 1.385 . S
C3574 H3555 0.951 . S
C3574 C3572 1.388 . S
C3574 C3575 1.366 . S
C3575 C3574 1.366 . S
C3575 C3576 1.414 . S
C3575 C3578 1.499 . S
C3576 H3556 0.950 . S
C3576 C3575 1.414 . S
C3576 C3577 1.374 . S
C3577 H3557 0.950 . S
C3577 C3573 1.385 . S
C3577 C3576 1.374 . S
C3578 C3575 1.499 . S
C3578 C3579 1.373 . S
C3578 C3580 1.389 . S
C3579 H3558 0.950 . S
C3579 C3578 1.373 . S
C3579 C3595 1.377 . S
C3580 C3578 1.389 . S
C3580 C3581 1.524 . S
C3580 C3594 1.377 . S
C3581 C3580 1.524 . S
C3581 C3582 1.397 . S
C3581 C3586 1.363 . S
C3582 H3559 0.950 . S
C3582 C3581 1.397 . S
C3582 C3583 1.334 . S
C3583 H3560 0.950 . S
C3583 C3582 1.334 . S
C3583 C3584 1.287 . S
C3584 C3583 1.287 . S
C3584 C3585 1.524 . S
C3584 H3603 0.913 . S
C3585 H3561 0.950 . S
C3585 C3584 1.524 . S
C3585 C3586 1.415 . S
C3586 H3562 0.950 . S
C3586 C3581 1.363 . S
C3586 C3585 1.415 . S
C3587 H3563 0.951 . S
C3587 C3588 1.366 . S
C3587 C3589 1.388 . S
C3588 C3587 1.366 . S
C3588 C3592 1.385 . S
C3589 H3564 0.951 . S
C3589 C3587 1.388 . S
C3589 C3590 1.366 . S
C3590 C3589 1.366 . S
C3590 C3591 1.414 . S
C3590 C3593 1.499 . S
C3591 H3565 0.950 . S
C3591 C3590 1.414 . S
C3591 C3592 1.374 . S
C3592 H3566 0.950 . S
C3592 C3588 1.385 . S
C3592 C3591 1.374 . S
C3593 C3590 1.499 . S
C3593 C3594 1.373 . S
C3593 C3595 1.389 . S
C3594 H3567 0.950 . S
C3594 C3580 1.377 . S
C3594 C3593 1.373 . S
C3595 C3579 1.377 . S
C3595 C3593 1.389 . S
C3595 C3596 1.524 . S
C3596 C3595 1.524 . S
C3596 C3597 1.397 . S
C3596 C3601 1.363 . S
C3597 H3568 0.950 . S
C3597 C3596 1.397 . S
C3597 C3598 1.334 . S
C3598 H3569 0.950 . S
C3598 C3597 1.334 . S
C3598 C3599 1.287 . S
C3599 C3598 1.287 . S
C3599 C3600 1.524 . S
C3599 H3602 0.999 . S
C3600 H3570 0.950 . S
C3600 C3599 1.524 . S
C3600 C3601 1.415 . S
C3601 H3571 0.950 . S
C3601 C3596 1.363 . S
C3601 C3600 1.415 . S
H3602 C3599 0.999 . S
H3603 C3584 0.913 . S
H3604 C3622 0.951 . S
H3605 C3624 0.951 . S
H3606 C3626 0.950 . S
H3607 C3627 0.950 . S
H3608 C3629 0.950 . S
H3609 C3632 0.950 . S
H3610 C3633 0.950 . S
H3611 C3635 0.950 . S
H3612 C3636 0.950 . S
H3613 C3637 0.951 . S
H3614 C3639 0.951 . S
H3615 C3641 0.950 . S
H3616 C3642 0.950 . S
H3617 C3644 0.950 . S
H3618 C3647 0.950 . S
H3619 C3648 0.950 . S
H3620 C3650 0.950 . S
H3621 C3651 0.950 . S
C3622 H3604 0.951 . S
C3622 C3623 1.366 . S
C3622 C3624 1.388 . S
C3623 C3622 1.366 . S
C3623 C3627 1.385 . S
C3624 H3605 0.951 . S
C3624 C3622 1.388 . S
C3624 C3625 1.366 . S
C3625 C3624 1.366 . S
C3625 C3626 1.414 . S
C3625 C3628 1.499 . S
C3626 H3606 0.950 . S
C3626 C3625 1.414 . S
C3626 C3627 1.374 . S
C3627 H3607 0.950 . S
C3627 C3623 1.385 . S
C3627 C3626 1.374 . S
C3628 C3625 1.499 . S
C3628 C3629 1.373 . S
C3628 C3630 1.389 . S
C3629 H3608 0.950 . S
C3629 C3628 1.373 . S
C3629 C3645 1.377 . S
C3630 C3628 1.389 . S
C3630 C3631 1.524 . S
C3630 C3644 1.377 . S
C3631 C3630 1.524 . S
C3631 C3632 1.397 . S
C3631 C3636 1.363 . S
C3632 H3609 0.950 . S
C3632 C3631 1.397 . S
C3632 C3633 1.334 . S
C3633 H3610 0.950 . S
C3633 C3632 1.334 . S
C3633 C3634 1.287 . S
C3634 C3633 1.287 . S
C3634 C3635 1.524 . S
C3634 H3653 0.913 . S
C3635 H3611 0.950 . S
C3635 C3634 1.524 . S
C3635 C3636 1.415 . S
C3636 H3612 0.950 . S
C3636 C3631 1.363 . S
C3636 C3635 1.415 . S
C3637 H3613 0.951 . S
C3637 C3638 1.366 . S
C3637 C3639 1.388 . S
C3638 C3637 1.366 . S
C3638 C3642 1.385 . S
C3639 H3614 0.951 . S
C3639 C3637 1.388 . S
C3639 C3640 1.366 . S
C3640 C3639 1.366 . S
C3640 C3641 1.414 . S
C3640 C3643 1.499 . S
C3641 H3615 0.950 . S
C3641 C3640 1.414 . S
C3641 C3642 1.374 . S
C3642 H3616 0.950 . S
C3642 C3638 1.385 . S
C3642 C3641 1.374 . S
C3643 C3640 1.499 . S
C3643 C3644 1.373 . S
C3643 C3645 1.389 . S
C3644 H3617 0.950 . S
C3644 C3630 1.377 . S
C3644 C3643 1.373 . S
C3645 C3629 1.377 . S
C3645 C3643 1.389 . S
C3645 C3646 1.524 . S
C3646 C3645 1.524 . S
C3646 C3647 1.397 . S
C3646 C3651 1.363 . S
C3647 H3618 0.950 . S
C3647 C3646 1.397 . S
C3647 C3648 1.334 . S
C3648 H3619 0.950 . S
C3648 C3647 1.334 . S
C3648 C3649 1.287 . S
C3649 C3648 1.287 . S
C3649 C3650 1.524 . S
C3649 H3652 0.999 . S
C3650 H3620 0.950 . S
C3650 C3649 1.524 . S
C3650 C3651 1.415 . S
C3651 H3621 0.950 . S
C3651 C3646 1.363 . S
C3651 C3650 1.415 . S
H3652 C3649 0.999 . S
H3653 C3634 0.913 . S
H3654 C3672 0.951 . S
H3655 C3674 0.951 . S
H3656 C3676 0.950 . S
H3657 C3677 0.950 . S
H3658 C3679 0.950 . S
H3659 C3682 0.950 . S
H3660 C3683 0.950 . S
H3661 C3685 0.950 . S
H3662 C3686 0.950 . S
H3663 C3687 0.951 . S
H3664 C3689 0.951 . S
H3665 C3691 0.950 . S
H3666 C3692 0.950 . S
H3667 C3694 0.950 . S
H3668 C3697 0.950 . S
H3669 C3698 0.950 . S
H3670 C3700 0.950 . S
H3671 C3701 0.950 . S
C3672 H3654 0.951 . S
C3672 C3673 1.366 . S
C3672 C3674 1.388 . S
C3673 C3672 1.366 . S
C3673 C3677 1.385 . S
C3674 H3655 0.951 . S
C3674 C3672 1.388 . S
C3674 C3675 1.366 . S
C3675 C3674 1.366 . S
C3675 C3676 1.414 . S
C3675 C3678 1.499 . S
C3676 H3656 0.950 . S
C3676 C3675 1.414 . S
C3676 C3677 1.374 . S
C3677 H3657 0.950 . S
C3677 C3673 1.385 . S
C3677 C3676 1.374 . S
C3678 C3675 1.499 . S
C3678 C3679 1.373 . S
C3678 C3680 1.389 . S
C3679 H3658 0.950 . S
C3679 C3678 1.373 . S
C3679 C3695 1.377 . S
C3680 C3678 1.389 . S
C3680 C3681 1.524 . S
C3680 C3694 1.377 . S
C3681 C3680 1.524 . S
C3681 C3682 1.397 . S
C3681 C3686 1.363 . S
C3682 H3659 0.950 . S
C3682 C3681 1.397 . S
C3682 C3683 1.334 . S
C3683 H3660 0.950 . S
C3683 C3682 1.334 . S
C3683 C3684 1.341 . S
C3684 C3683 1.341 . S
C3684 C3685 1.520 . S
C3684 H3703 0.859 1_565 S
C3685 H3661 0.950 . S
C3685 C3684 1.520 . S
C3685 C3686 1.415 . S
C3686 H3662 0.950 . S
C3686 C3681 1.363 . S
C3686 C3685 1.415 . S
C3687 H3663 0.951 . S
C3687 C3688 1.366 . S
C3687 C3689 1.388 . S
C3688 C3687 1.366 . S
C3688 C3692 1.385 . S
C3689 H3664 0.951 . S
C3689 C3687 1.388 . S
C3689 C3690 1.366 . S
C3690 C3689 1.366 . S
C3690 C3691 1.414 . S
C3690 C3693 1.499 . S
C3691 H3665 0.950 . S
C3691 C3690 1.414 . S
C3691 C3692 1.374 . S
C3692 H3666 0.950 . S
C3692 C3688 1.385 . S
C3692 C3691 1.374 . S
C3693 C3690 1.499 . S
C3693 C3694 1.373 . S
C3693 C3695 1.389 . S
C3694 H3667 0.950 . S
C3694 C3680 1.377 . S
C3694 C3693 1.373 . S
C3695 C3679 1.377 . S
C3695 C3693 1.389 . S
C3695 C3696 1.524 . S
C3696 C3695 1.524 . S
C3696 C3697 1.397 . S
C3696 C3701 1.363 . S
C3697 H3668 0.950 . S
C3697 C3696 1.397 . S
C3697 C3698 1.334 . S
C3698 H3669 0.950 . S
C3698 C3697 1.334 . S
C3698 C3699 1.287 . S
C3699 C3698 1.287 . S
C3699 C3700 1.524 . S
C3699 H3702 0.999 . S
C3700 H3670 0.950 . S
C3700 C3699 1.524 . S
C3700 C3701 1.415 . S
C3701 H3671 0.950 . S
C3701 C3696 1.363 . S
C3701 C3700 1.415 . S
H3702 C3699 0.999 . S
H3703 C3684 0.859 1_545 S
H3704 C3722 0.951 . S
H3705 C3724 0.951 . S
H3706 C3726 0.950 . S
H3707 C3727 0.950 . S
H3708 C3729 0.950 . S
H3709 C3732 0.950 . S
H3710 C3733 0.950 . S
H3711 C3735 0.950 . S
H3712 C3736 0.950 . S
H3713 C3737 0.951 . S
H3714 C3739 0.951 . S
H3715 C3741 0.950 . S
H3716 C3742 0.950 . S
H3717 C3744 0.950 . S
H3718 C3747 0.950 . S
H3719 C3748 0.950 . S
H3720 C3750 0.950 . S
H3721 C3751 0.950 . S
C3722 H3704 0.951 . S
C3722 C3723 1.366 . S
C3722 C3724 1.388 . S
C3723 C3722 1.366 . S
C3723 C3727 1.385 . S
C3724 H3705 0.951 . S
C3724 C3722 1.388 . S
C3724 C3725 1.366 . S
C3725 C3724 1.366 . S
C3725 C3726 1.414 . S
C3725 C3728 1.499 . S
C3726 H3706 0.950 . S
C3726 C3725 1.414 . S
C3726 C3727 1.374 . S
C3727 H3707 0.950 . S
C3727 C3723 1.385 . S
C3727 C3726 1.374 . S
C3728 C3725 1.499 . S
C3728 C3729 1.373 . S
C3728 C3730 1.389 . S
C3729 H3708 0.950 . S
C3729 C3728 1.373 . S
C3729 C3745 1.377 . S
C3730 C3728 1.389 . S
C3730 C3731 1.524 . S
C3730 C3744 1.377 . S
C3731 C3730 1.524 . S
C3731 C3732 1.397 . S
C3731 C3736 1.363 . S
C3732 H3709 0.950 . S
C3732 C3731 1.397 . S
C3732 C3733 1.334 . S
C3733 H3710 0.950 . S
C3733 C3732 1.334 . S
C3733 C3734 1.287 . S
C3734 C3733 1.287 . S
C3734 C3735 1.524 . S
C3734 H3753 0.913 . S
C3735 H3711 0.950 . S
C3735 C3734 1.524 . S
C3735 C3736 1.415 . S
C3736 H3712 0.950 . S
C3736 C3731 1.363 . S
C3736 C3735 1.415 . S
C3737 H3713 0.951 . S
C3737 C3738 1.366 . S
C3737 C3739 1.388 . S
C3738 C3737 1.366 . S
C3738 C3742 1.385 . S
C3739 H3714 0.951 . S
C3739 C3737 1.388 . S
C3739 C3740 1.366 . S
C3740 C3739 1.366 . S
C3740 C3741 1.414 . S
C3740 C3743 1.499 . S
C3741 H3715 0.950 . S
C3741 C3740 1.414 . S
C3741 C3742 1.374 . S
C3742 H3716 0.950 . S
C3742 C3738 1.385 . S
C3742 C3741 1.374 . S
C3743 C3740 1.499 . S
C3743 C3744 1.373 . S
C3743 C3745 1.389 . S
C3744 H3717 0.950 . S
C3744 C3730 1.377 . S
C3744 C3743 1.373 . S
C3745 C3729 1.377 . S
C3745 C3743 1.389 . S
C3745 C3746 1.524 . S
C3746 C3745 1.524 . S
C3746 C3747 1.397 . S
C3746 C3751 1.363 . S
C3747 H3718 0.950 . S
C3747 C3746 1.397 . S
C3747 C3748 1.334 . S
C3748 H3719 0.950 . S
C3748 C3747 1.334 . S
C3748 C3749 1.287 . S
C3749 C3748 1.287 . S
C3749 C3750 1.524 . S
C3749 H3752 0.999 . S
C3750 H3720 0.950 . S
C3750 C3749 1.524 . S
C3750 C3751 1.415 . S
C3751 H3721 0.950 . S
C3751 C3746 1.363 . S
C3751 C3750 1.415 . S
H3752 C3749 0.999 . S
H3753 C3734 0.913 . S
H3754 C3772 0.951 . S
H3755 C3774 0.951 . S
H3756 C3776 0.950 . S
H3757 C3777 0.950 . S
H3758 C3779 0.950 . S
H3759 C3782 0.950 . S
H3760 C3783 0.950 . S
H3761 C3785 0.950 . S
H3762 C3786 0.950 . S
H3763 C3787 0.951 . S
H3764 C3789 0.951 . S
H3765 C3791 0.950 . S
H3766 C3792 0.950 . S
H3767 C3794 0.950 . S
H3768 C3797 0.950 . S
H3769 C3798 0.950 . S
H3770 C3800 0.950 . S
H3771 C3801 0.950 . S
C3772 H3754 0.951 . S
C3772 C3773 1.366 . S
C3772 C3774 1.388 . S
C3773 C3772 1.366 . S
C3773 C3777 1.385 . S
C3774 H3755 0.951 . S
C3774 C3772 1.388 . S
C3774 C3775 1.366 . S
C3775 C3774 1.366 . S
C3775 C3776 1.414 . S
C3775 C3778 1.499 . S
C3776 H3756 0.950 . S
C3776 C3775 1.414 . S
C3776 C3777 1.374 . S
C3777 H3757 0.950 . S
C3777 C3773 1.385 . S
C3777 C3776 1.374 . S
C3778 C3775 1.499 . S
C3778 C3779 1.373 . S
C3778 C3780 1.389 . S
C3779 H3758 0.950 . S
C3779 C3778 1.373 . S
C3779 C3795 1.377 . S
C3780 C3778 1.389 . S
C3780 C3781 1.524 . S
C3780 C3794 1.377 . S
C3781 C3780 1.524 . S
C3781 C3782 1.397 . S
C3781 C3786 1.363 . S
C3782 H3759 0.950 . S
C3782 C3781 1.397 . S
C3782 C3783 1.334 . S
C3783 H3760 0.950 . S
C3783 C3782 1.334 . S
C3783 C3784 1.287 . S
C3784 C3783 1.287 . S
C3784 C3785 1.524 . S
C3784 H3803 0.913 . S
C3785 H3761 0.950 . S
C3785 C3784 1.524 . S
C3785 C3786 1.415 . S
C3786 H3762 0.950 . S
C3786 C3781 1.363 . S
C3786 C3785 1.415 . S
C3787 H3763 0.951 . S
C3787 C3788 1.366 . S
C3787 C3789 1.388 . S
C3788 C3787 1.366 . S
C3788 C3792 1.385 . S
C3789 H3764 0.951 . S
C3789 C3787 1.388 . S
C3789 C3790 1.366 . S
C3790 C3789 1.366 . S
C3790 C3791 1.414 . S
C3790 C3793 1.499 . S
C3791 H3765 0.950 . S
C3791 C3790 1.414 . S
C3791 C3792 1.374 . S
C3792 H3766 0.950 . S
C3792 C3788 1.385 . S
C3792 C3791 1.374 . S
C3793 C3790 1.499 . S
C3793 C3794 1.373 . S
C3793 C3795 1.389 . S
C3794 H3767 0.950 . S
C3794 C3780 1.377 . S
C3794 C3793 1.373 . S
C3795 C3779 1.377 . S
C3795 C3793 1.389 . S
C3795 C3796 1.524 . S
C3796 C3795 1.524 . S
C3796 C3797 1.397 . S
C3796 C3801 1.363 . S
C3797 H3768 0.950 . S
C3797 C3796 1.397 . S
C3797 C3798 1.334 . S
C3798 H3769 0.950 . S
C3798 C3797 1.334 . S
C3798 C3799 1.287 . S
C3799 C3798 1.287 . S
C3799 C3800 1.524 . S
C3799 H3802 0.999 . S
C3800 H3770 0.950 . S
C3800 C3799 1.524 . S
C3800 C3801 1.415 . S
C3801 H3771 0.950 . S
C3801 C3796 1.363 . S
C3801 C3800 1.415 . S
H3802 C3799 0.999 . S
H3803 C3784 0.913 . S
H3804 C3822 0.951 . S
H3805 C3824 0.951 . S
H3806 C3826 0.950 . S
H3807 C3827 0.950 . S
H3808 C3829 0.950 . S
H3809 C3832 0.950 . S
H3810 C3833 0.950 . S
H3811 C3835 0.950 . S
H3812 C3836 0.980 . S
H3813 C3837 0.951 . S
H3814 C3839 0.951 . S
H3815 C3841 0.950 . S
H3816 C3842 0.950 . S
H3817 C3844 0.950 . S
H3818 C3847 0.950 . S
H3819 C3848 0.950 . S
H3820 C3850 0.950 . S
H3821 C3851 0.981 . S
C3822 H3804 0.951 . S
C3822 C3823 1.366 . S
C3822 C3824 1.388 . S
C3823 C3822 1.366 . S
C3823 C3827 1.385 . S
C3824 H3805 0.951 . S
C3824 C3822 1.388 . S
C3824 C3825 1.366 . S
C3825 C3824 1.366 . S
C3825 C3826 1.414 . S
C3825 C3828 1.499 . S
C3826 H3806 0.950 . S
C3826 C3825 1.414 . S
C3826 C3827 1.374 . S
C3827 H3807 0.950 . S
C3827 C3823 1.385 . S
C3827 C3826 1.374 . S
C3828 C3825 1.499 . S
C3828 C3829 1.373 . S
C3828 C3830 1.389 . S
C3829 H3808 0.950 . S
C3829 C3828 1.373 . S
C3829 C3845 1.377 1_455 S
C3830 C3828 1.389 . S
C3830 C3831 1.524 . S
C3830 C3844 1.377 1_455 S
C3831 C3830 1.524 . S
C3831 C3832 1.397 . S
C3831 C3836 1.363 . S
C3832 H3809 0.950 . S
C3832 C3831 1.397 . S
C3832 C3833 1.334 . S
C3833 H3810 0.950 . S
C3833 C3832 1.334 . S
C3833 C3834 1.287 . S
C3834 C3833 1.287 . S
C3834 C3835 1.524 . S
C3834 H3853 0.913 . S
C3835 H3811 0.950 . S
C3835 C3834 1.524 . S
C3835 C3836 1.415 . S
C3836 H3812 0.980 . S
C3836 C3831 1.363 . S
C3836 C3835 1.415 . S
C3837 H3813 0.951 . S
C3837 C3838 1.366 . S
C3837 C3839 1.388 . S
C3838 C3837 1.366 . S
C3838 C3842 1.385 . S
C3839 H3814 0.951 . S
C3839 C3837 1.388 . S
C3839 C3840 1.366 . S
C3840 C3839 1.366 . S
C3840 C3841 1.414 . S
C3840 C3843 1.499 . S
C3841 H3815 0.950 . S
C3841 C3840 1.414 . S
C3841 C3842 1.374 . S
C3842 H3816 0.950 . S
C3842 C3838 1.385 . S
C3842 C3841 1.374 . S
C3843 C3840 1.499 . S
C3843 C3844 1.373 . S
C3843 C3845 1.389 . S
C3844 H3817 0.950 . S
C3844 C3830 1.377 1_655 S
C3844 C3843 1.373 . S
C3845 C3829 1.377 1_655 S
C3845 C3843 1.389 . S
C3845 C3846 1.524 . S
C3846 C3845 1.524 . S
C3846 C3847 1.397 . S
C3846 C3851 1.363 . S
C3847 H3818 0.950 . S
C3847 C3846 1.397 . S
C3847 C3848 1.334 . S
C3848 H3819 0.950 . S
C3848 C3847 1.334 . S
C3848 C3849 1.287 . S
C3849 C3848 1.287 . S
C3849 C3850 1.524 . S
C3849 H3852 0.999 . S
C3850 H3820 0.950 . S
C3850 C3849 1.524 . S
C3850 C3851 1.415 . S
C3851 H3821 0.981 . S
C3851 C3846 1.363 . S
C3851 C3850 1.415 . S
H3852 C3849 0.999 . S
H3853 C3834 0.913 . S
H3854 C3872 0.951 . S
H3855 C3874 0.951 . S
H3856 C3876 0.950 . S
H3857 C3877 0.950 . S
H3858 C3879 0.950 . S
H3859 C3882 0.950 . S
H3860 C3883 0.950 . S
H3861 C3885 0.950 . S
H3862 C3886 0.950 . S
H3863 C3887 0.951 . S
H3864 C3889 0.951 . S
H3865 C3891 0.950 . S
H3866 C3892 0.950 . S
H3867 C3894 0.950 . S
H3868 C3897 0.950 . S
H3869 C3898 0.950 . S
H3870 C3900 0.950 . S
H3871 C3901 0.950 . S
C3872 H3854 0.951 . S
C3872 C3873 1.366 . S
C3872 C3874 1.388 . S
C3873 C3872 1.366 . S
C3873 C3877 1.385 . S
C3874 H3855 0.951 . S
C3874 C3872 1.388 . S
C3874 C3875 1.366 . S
C3875 C3874 1.366 . S
C3875 C3876 1.414 . S
C3875 C3878 1.499 . S
C3876 H3856 0.950 . S
C3876 C3875 1.414 . S
C3876 C3877 1.374 . S
C3877 H3857 0.950 . S
C3877 C3873 1.385 . S
C3877 C3876 1.374 . S
C3878 C3875 1.499 . S
C3878 C3879 1.373 . S
C3878 C3880 1.389 . S
C3879 H3858 0.950 . S
C3879 C3878 1.373 . S
C3879 C3895 1.377 . S
C3880 C3878 1.389 . S
C3880 C3881 1.524 . S
C3880 C3894 1.377 . S
C3881 C3880 1.524 . S
C3881 C3882 1.397 . S
C3881 C3886 1.363 . S
C3882 H3859 0.950 . S
C3882 C3881 1.397 . S
C3882 C3883 1.334 . S
C3883 H3860 0.950 . S
C3883 C3882 1.334 . S
C3883 C3884 1.287 . S
C3884 C3883 1.287 . S
C3884 C3885 1.524 . S
C3884 H3903 0.913 . S
C3885 H3861 0.950 . S
C3885 C3884 1.524 . S
C3885 C3886 1.415 . S
C3886 H3862 0.950 . S
C3886 C3881 1.363 . S
C3886 C3885 1.415 . S
C3887 H3863 0.951 . S
C3887 C3888 1.366 . S
C3887 C3889 1.388 . S
C3888 C3887 1.366 . S
C3888 C3892 1.385 . S
C3889 H3864 0.951 . S
C3889 C3887 1.388 . S
C3889 C3890 1.366 . S
C3890 C3889 1.366 . S
C3890 C3891 1.414 . S
C3890 C3893 1.499 . S
C3891 H3865 0.950 . S
C3891 C3890 1.414 . S
C3891 C3892 1.374 . S
C3892 H3866 0.950 . S
C3892 C3888 1.385 . S
C3892 C3891 1.374 . S
C3893 C3890 1.499 . S
C3893 C3894 1.373 . S
C3893 C3895 1.389 . S
C3894 H3867 0.950 . S
C3894 C3880 1.377 . S
C3894 C3893 1.373 . S
C3895 C3879 1.377 . S
C3895 C3893 1.389 . S
C3895 C3896 1.524 . S
C3896 C3895 1.524 . S
C3896 C3897 1.397 . S
C3896 C3901 1.363 . S
C3897 H3868 0.950 . S
C3897 C3896 1.397 . S
C3897 C3898 1.334 . S
C3898 H3869 0.950 . S
C3898 C3897 1.334 . S
C3898 C3899 1.287 . S
C3899 C3898 1.287 . S
C3899 C3900 1.524 . S
C3899 H3902 0.999 . S
C3900 H3870 0.950 . S
C3900 C3899 1.524 . S
C3900 C3901 1.415 . S
C3901 H3871 0.950 . S
C3901 C3896 1.363 . S
C3901 C3900 1.415 . S
H3902 C3899 0.999 . S
H3903 C3884 0.913 . S
H3904 C3922 0.951 . S
H3905 C3924 0.951 . S
H3906 C3926 0.950 . S
H3907 C3927 0.950 . S
H3908 C3929 0.950 . S
H3909 C3932 0.950 . S
H3910 C3933 0.950 . S
H3911 C3935 0.950 . S
H3912 C3936 0.950 . S
H3913 C3937 0.951 . S
H3914 C3939 0.951 . S
H3915 C3941 0.950 . S
H3916 C3942 0.950 . S
H3917 C3944 0.950 . S
H3918 C3947 0.950 . S
H3919 C3948 0.950 . S
H3920 C3950 0.950 . S
H3921 C3951 0.950 . S
C3922 H3904 0.951 . S
C3922 C3923 1.366 . S
C3922 C3924 1.388 . S
C3923 C3922 1.366 . S
C3923 C3927 1.385 . S
C3924 H3905 0.951 . S
C3924 C3922 1.388 . S
C3924 C3925 1.366 . S
C3925 C3924 1.366 . S
C3925 C3926 1.414 . S
C3925 C3928 1.499 . S
C3926 H3906 0.950 . S
C3926 C3925 1.414 . S
C3926 C3927 1.374 . S
C3927 H3907 0.950 . S
C3927 C3923 1.385 . S
C3927 C3926 1.374 . S
C3928 C3925 1.499 . S
C3928 C3929 1.373 . S
C3928 C3930 1.389 . S
C3929 H3908 0.950 . S
C3929 C3928 1.373 . S
C3929 C3945 1.377 1_545 S
C3930 C3928 1.389 . S
C3930 C3931 1.524 . S
C3930 C3944 1.377 1_545 S
C3931 C3930 1.524 . S
C3931 C3932 1.397 . S
C3931 C3936 1.363 . S
C3932 H3909 0.950 . S
C3932 C3931 1.397 . S
C3932 C3933 1.334 . S
C3933 H3910 0.950 . S
C3933 C3932 1.334 . S
C3933 C3934 1.287 . S
C3934 C3933 1.287 . S
C3934 C3935 1.524 . S
C3934 H3953 0.913 . S
C3935 H3911 0.950 . S
C3935 C3934 1.524 . S
C3935 C3936 1.415 . S
C3936 H3912 0.950 . S
C3936 C3931 1.363 . S
C3936 C3935 1.415 . S
C3937 H3913 0.951 . S
C3937 C3938 1.366 . S
C3937 C3939 1.388 . S
C3938 C3937 1.366 . S
C3938 C3942 1.385 . S
C3939 H3914 0.951 . S
C3939 C3937 1.388 . S
C3939 C3940 1.366 . S
C3940 C3939 1.366 . S
C3940 C3941 1.414 . S
C3940 C3943 1.499 . S
C3941 H3915 0.950 . S
C3941 C3940 1.414 . S
C3941 C3942 1.374 . S
C3942 H3916 0.950 . S
C3942 C3938 1.385 . S
C3942 C3941 1.374 . S
C3943 C3940 1.499 . S
C3943 C3944 1.373 . S
C3943 C3945 1.389 . S
C3944 H3917 0.950 . S
C3944 C3930 1.377 1_565 S
C3944 C3943 1.373 . S
C3945 C3929 1.377 1_565 S
C3945 C3943 1.389 . S
C3945 C3946 1.524 . S
C3946 C3945 1.524 . S
C3946 C3947 1.397 . S
C3946 C3951 1.363 . S
C3947 H3918 0.950 . S
C3947 C3946 1.397 . S
C3947 C3948 1.334 . S
C3948 H3919 0.950 . S
C3948 C3947 1.334 . S
C3948 C3949 1.287 . S
C3949 C3948 1.287 . S
C3949 C3950 1.524 . S
C3949 H3952 0.999 . S
C3950 H3920 0.950 . S
C3950 C3949 1.524 . S
C3950 C3951 1.415 . S
C3951 H3921 0.950 . S
C3951 C3946 1.363 . S
C3951 C3950 1.415 . S
H3952 C3949 0.999 . S
H3953 C3934 0.913 . S
H3954 C3972 0.951 . S
H3955 C3974 0.951 . S
H3956 C3976 0.950 . S
H3957 C3977 0.950 . S
H3958 C3979 0.950 . S
H3959 C3982 0.950 . S
H3960 C3983 0.950 . S
H3961 C3985 0.950 . S
H3962 C3986 0.950 . S
H3963 C3987 0.951 . S
H3964 C3989 0.951 . S
H3965 C3991 0.950 . S
H3966 C3992 0.950 . S
H3967 C3994 0.950 . S
H3968 C3997 0.950 . S
H3969 C3998 0.950 . S
H3970 C4000 0.950 . S
H3971 C4001 0.950 . S
C3972 H3954 0.951 . S
C3972 C3973 1.366 . S
C3972 C3974 1.388 . S
C3973 C3972 1.366 . S
C3973 C3977 1.385 . S
C3974 H3955 0.951 . S
C3974 C3972 1.388 . S
C3974 C3975 1.366 . S
C3975 C3974 1.366 . S
C3975 C3976 1.414 . S
C3975 C3978 1.499 . S
C3976 H3956 0.950 . S
C3976 C3975 1.414 . S
C3976 C3977 1.374 . S
C3977 H3957 0.950 . S
C3977 C3973 1.385 . S
C3977 C3976 1.374 . S
C3978 C3975 1.499 . S
C3978 C3979 1.373 . S
C3978 C3980 1.389 . S
C3979 H3958 0.950 . S
C3979 C3978 1.373 . S
C3979 C3995 1.377 1_565 S
C3980 C3978 1.389 . S
C3980 C3981 1.524 . S
C3980 C3994 1.377 1_565 S
C3981 C3980 1.524 . S
C3981 C3982 1.397 . S
C3981 C3986 1.363 1_565 S
C3982 H3959 0.950 . S
C3982 C3981 1.397 . S
C3982 C3983 1.334 . S
C3983 H3960 0.950 . S
C3983 C3982 1.334 . S
C3983 C3984 1.287 . S
C3984 C3983 1.287 . S
C3984 C3985 1.524 1_565 S
C3984 H4003 0.913 . S
C3985 H3961 0.950 . S
C3985 C3984 1.524 1_545 S
C3985 C3986 1.415 . S
C3986 H3962 0.950 . S
C3986 C3981 1.363 1_545 S
C3986 C3985 1.415 . S
C3987 H3963 0.951 . S
C3987 C3988 1.366 . S
C3987 C3989 1.388 . S
C3988 C3987 1.366 . S
C3988 C3992 1.385 . S
C3989 H3964 0.951 . S
C3989 C3987 1.388 . S
C3989 C3990 1.366 . S
C3990 C3989 1.366 . S
C3990 C3991 1.414 . S
C3990 C3993 1.499 . S
C3991 H3965 0.950 . S
C3991 C3990 1.414 . S
C3991 C3992 1.374 . S
C3992 H3966 0.950 . S
C3992 C3988 1.385 . S
C3992 C3991 1.374 . S
C3993 C3990 1.499 . S
C3993 C3994 1.373 . S
C3993 C3995 1.389 . S
C3994 H3967 0.950 . S
C3994 C3980 1.377 1_545 S
C3994 C3993 1.373 . S
C3995 C3979 1.377 1_545 S
C3995 C3993 1.389 . S
C3995 C3996 1.524 . S
C3996 C3995 1.524 . S
C3996 C3997 1.397 . S
C3996 C4001 1.363 1_545 S
C3997 H3968 0.950 . S
C3997 C3996 1.397 . S
C3997 C3998 1.334 . S
C3998 H3969 0.950 . S
C3998 C3997 1.334 . S
C3998 C3999 1.287 . S
C3999 C3998 1.287 . S
C3999 C4000 1.524 1_545 S
C3999 H4002 0.999 . S
C4000 H3970 0.950 . S
C4000 C3999 1.524 1_565 S
C4000 C4001 1.415 . S
C4001 H3971 0.950 . S
C4001 C3996 1.363 1_565 S
C4001 C4000 1.415 . S
H4002 C3999 0.999 . S
H4003 C3984 0.913 . S
H4004 C4022 0.951 . S
H4005 C4024 0.951 . S
H4006 C4026 0.950 . S
H4007 C4027 0.950 . S
H4008 C4029 0.950 . S
H4009 C4032 0.950 . S
H4010 C4033 0.950 . S
H4011 C4035 0.950 . S
H4012 C4036 0.950 . S
H4013 C4037 0.951 . S
H4014 C4039 0.951 . S
H4015 C4041 0.950 . S
H4016 C4042 0.950 . S
H4017 C4044 0.950 . S
H4018 C4047 0.950 . S
H4019 C4048 0.950 . S
H4020 C4050 0.950 . S
H4021 C4051 0.950 . S
C4022 H4004 0.951 . S
C4022 C4023 1.366 . S
C4022 C4024 1.388 . S
C4023 C4022 1.366 . S
C4023 C4027 1.385 . S
C4024 H4005 0.951 . S
C4024 C4022 1.388 . S
C4024 C4025 1.366 . S
C4025 C4024 1.366 . S
C4025 C4026 1.414 . S
C4025 C4028 1.499 . S
C4026 H4006 0.950 . S
C4026 C4025 1.414 . S
C4026 C4027 1.374 . S
C4027 H4007 0.950 . S
C4027 C4023 1.385 . S
C4027 C4026 1.374 . S
C4028 C4025 1.499 . S
C4028 C4029 1.410 . S
C4028 C4030 1.389 . S
C4029 H4008 0.950 . S
C4029 C4028 1.410 . S
C4029 C4045 1.340 1_655 S
C4030 C4028 1.389 . S
C4030 C4031 1.524 . S
C4030 C4044 1.339 1_655 S
C4031 C4030 1.524 . S
C4031 C4032 1.397 . S
C4031 C4036 1.363 . S
C4032 H4009 0.950 . S
C4032 C4031 1.397 . S
C4032 C4033 1.334 . S
C4033 H4010 0.950 . S
C4033 C4032 1.334 . S
C4033 C4034 1.287 . S
C4034 C4033 1.287 . S
C4034 C4035 1.524 . S
C4034 H4053 0.913 . S
C4035 H4011 0.950 . S
C4035 C4034 1.524 . S
C4035 C4036 1.415 . S
C4036 H4012 0.950 . S
C4036 C4031 1.363 . S
C4036 C4035 1.415 . S
C4037 H4013 0.951 . S
C4037 C4038 1.366 . S
C4037 C4039 1.388 . S
C4038 C4037 1.366 . S
C4038 C4042 1.385 . S
C4039 H4014 0.951 . S
C4039 C4037 1.388 . S
C4039 C4040 1.366 . S
C4040 C4039 1.366 . S
C4040 C4041 1.414 . S
C4040 C4043 1.499 . S
C4041 H4015 0.950 . S
C4041 C4040 1.414 . S
C4041 C4042 1.374 . S
C4042 H4016 0.950 . S
C4042 C4038 1.385 . S
C4042 C4041 1.374 . S
C4043 C4040 1.499 . S
C4043 C4044 1.411 . S
C4043 C4045 1.389 . S
C4044 H4017 0.950 . S
C4044 C4030 1.339 1_455 S
C4044 C4043 1.411 . S
C4045 C4029 1.340 1_455 S
C4045 C4043 1.389 . S
C4045 C4046 1.524 . S
C4046 C4045 1.524 . S
C4046 C4047 1.397 . S
C4046 C4051 1.363 . S
C4047 H4018 0.950 . S
C4047 C4046 1.397 . S
C4047 C4048 1.334 . S
C4048 H4019 0.950 . S
C4048 C4047 1.334 . S
C4048 C4049 1.287 . S
C4049 C4048 1.287 . S
C4049 C4050 1.524 . S
C4049 H4052 0.999 . S
C4050 H4020 0.950 . S
C4050 C4049 1.524 . S
C4050 C4051 1.415 . S
C4051 H4021 0.950 . S
C4051 C4046 1.363 . S
C4051 C4050 1.415 . S
H4052 C4049 0.999 . S
H4053 C4034 0.913 . S
H4054 C4072 0.951 . S
H4055 C4074 0.951 . S
H4056 C4076 0.950 . S
H4057 C4077 0.950 . S
H4058 C4079 0.950 . S
H4059 C4082 0.950 . S
H4060 C4083 0.950 . S
H4061 C4085 0.950 . S
H4062 C4086 0.950 . S
H4063 C4087 0.951 . S
H4064 C4089 0.951 . S
H4065 C4091 0.950 . S
H4066 C4092 0.950 . S
H4067 C4094 0.950 . S
H4068 C4097 0.950 . S
H4069 C4098 0.950 . S
H4070 C4100 0.950 . S
H4071 C4101 0.950 . S
C4072 H4054 0.951 . S
C4072 C4073 1.366 . S
C4072 C4074 1.388 . S
C4073 C4072 1.366 . S
C4073 C4077 1.385 . S
C4074 H4055 0.951 . S
C4074 C4072 1.388 . S
C4074 C4075 1.366 . S
C4075 C4074 1.366 . S
C4075 C4076 1.414 . S
C4075 C4078 1.499 . S
C4076 H4056 0.950 . S
C4076 C4075 1.414 . S
C4076 C4077 1.374 . S
C4077 H4057 0.950 . S
C4077 C4073 1.385 . S
C4077 C4076 1.374 . S
C4078 C4075 1.499 . S
C4078 C4079 1.373 . S
C4078 C4080 1.389 . S
C4079 H4058 0.950 . S
C4079 C4078 1.373 . S
C4079 C4095 1.377 . S
C4080 C4078 1.389 . S
C4080 C4081 1.524 . S
C4080 C4094 1.377 . S
C4081 C4080 1.524 . S
C4081 C4082 1.397 . S
C4081 C4086 1.363 . S
C4082 H4059 0.950 . S
C4082 C4081 1.397 . S
C4082 C4083 1.334 . S
C4083 H4060 0.950 . S
C4083 C4082 1.334 . S
C4083 C4084 1.287 . S
C4084 C4083 1.287 . S
C4084 C4085 1.524 . S
C4084 H4103 0.913 . S
C4085 H4061 0.950 . S
C4085 C4084 1.524 . S
C4085 C4086 1.415 . S
C4086 H4062 0.950 . S
C4086 C4081 1.363 . S
C4086 C4085 1.415 . S
C4087 H4063 0.951 . S
C4087 C4088 1.366 . S
C4087 C4089 1.388 . S
C4088 C4087 1.366 . S
C4088 C4092 1.385 . S
C4089 H4064 0.951 . S
C4089 C4087 1.388 . S
C4089 C4090 1.366 . S
C4090 C4089 1.366 . S
C4090 C4091 1.414 . S
C4090 C4093 1.499 . S
C4091 H4065 0.950 . S
C4091 C4090 1.414 . S
C4091 C4092 1.374 . S
C4092 H4066 0.950 . S
C4092 C4088 1.385 . S
C4092 C4091 1.374 . S
C4093 C4090 1.499 . S
C4093 C4094 1.373 . S
C4093 C4095 1.389 . S
C4094 H4067 0.950 . S
C4094 C4080 1.377 . S
C4094 C4093 1.373 . S
C4095 C4079 1.377 . S
C4095 C4093 1.389 . S
C4095 C4096 1.524 . S
C4096 C4095 1.524 . S
C4096 C4097 1.397 . S
C4096 C4101 1.363 . S
C4097 H4068 0.950 . S
C4097 C4096 1.397 . S
C4097 C4098 1.334 . S
C4098 H4069 0.950 . S
C4098 C4097 1.334 . S
C4098 C4099 1.287 . S
C4099 C4098 1.287 . S
C4099 C4100 1.524 . S
C4099 H4102 0.999 . S
C4100 H4070 0.950 . S
C4100 C4099 1.524 . S
C4100 C4101 1.415 . S
C4101 H4071 0.950 . S
C4101 C4096 1.363 . S
C4101 C4100 1.415 . S
H4102 C4099 0.999 . S
H4103 C4084 0.913 . S
C523 C65 0.557 . S
C538 C9 0.554 . S
C573 C79 0.557 . S
C588 C23 0.554 . S
C623 C51 0.558 . S
C638 C37 0.553 . S
C673 C149 0.560 . S
C688 C93 0.555 . S
C723 C107 0.558 . S
C738 C163 0.556 . S
C773 C135 0.558 . S
C788 C121 0.556 . S
C823 C177 0.537 . S
C838 C233 0.538 . S
C873 C247 0.537 . S
C888 C191 0.536 . S
C923 C205 0.537 . S
C938 C219 0.538 . S
C973 C261 0.535 . S
C988 C317 0.539 . S
C1023 C331 0.539 . S
C1038 C275 0.537 . S
C1073 C289 0.538 . S
C1088 C303 0.536 . S
C1123 C401 0.537 . S
C1138 C345 0.538 . S
C1173 C359 0.535 . S
C1188 C415 0.539 . S
C1223 C387 0.537 . S
C1238 C373 0.535 . S
C1273 C485 0.537 . S
C1288 C429 0.539 . S
C1323 C443 0.539 . S
C1338 C499 0.537 . S
C1373 C457 0.539 . S
C1388 C471 0.535 . S
C1423 C162 1.360 . S
C1438 C8 1.360 . S
C1473 C22 1.360 . S
C1488 C134 1.360 . S
C1523 C148 1.361 . S
C1538 C36 1.360 . S
C1573 C106 1.360 . S
C1588 C50 1.360 . S
C1623 C64 1.360 . S
C1638 C120 1.361 . S
C1673 C92 1.360 . S
C1688 C78 1.360 . S
C1723 C176 1.418 . S
C1738 C330 1.418 . S
C1773 C302 1.418 . S
C1788 C190 1.418 . S
C1823 C316 1.418 . S
C1838 C204 1.418 . S
C1873 C218 1.392 . S
C1888 C274 1.392 . S
C1923 C232 1.392 . S
C1938 C288 1.392 . S
C1973 C246 1.392 . S
C1988 C260 1.392 . S
C2023 C498 1.392 . S
C2038 C344 1.392 . S
C2073 C358 1.393 . S
C2088 C470 1.393 . S
C2123 C372 1.392 . S
C2138 C484 1.392 . S
C2173 C442 1.418 . S
C2188 C386 1.418 . S
C2223 C456 1.418 . S
C2238 C400 1.418 . S
C2273 C428 1.418 . S
C2288 C414 1.418 . S
C2323 C213 1.540 . S
C2338 C3 1.556 . S
C2373 C227 1.541 . S
C2388 C17 1.557 . S
C2423 C31 1.560 . S
C2438 C241 1.536 . S
C2473 C45 1.560 . S
C2488 C339 1.536 . S
C2523 C59 1.560 . S
C2538 C353 1.537 . S
C2573 C73 1.562 . S
C2588 C367 1.537 . S
C2623 C87 1.562 . S
C2638 C465 1.537 . S
C2673 C101 1.560 . S
C2688 C479 1.537 . S
C2723 C115 1.560 . S
C2738 C493 1.536 . S
C2773 C129 1.562 . S
C2788 C255 1.537 . S
C2823 C269 1.540 . S
C2838 C143 1.556 . S
C2873 C283 1.541 . S
C2888 C157 1.556 . S
C2923 C381 1.946 . S
C2938 C171 1.947 . S
C2973 C185 1.947 . S
C2988 C395 1.946 . S
C3023 C409 1.946 . S
C3038 C199 1.947 . S
C3073 C297 1.946 . S
C3088 C423 1.946 . S
C3123 C437 1.947 . S
C3138 C311 1.947 . S
C3173 C451 1.946 . S
C3188 C325 1.947 . S
C3223 C7 2.283 . S
C3238 C413 2.299 . S
C3273 C21 2.284 . S
C3288 C385 2.300 . S
C3323 C35 2.284 . S
C3338 C399 2.300 . S
C3373 C49 2.284 . S
C3388 C189 2.300 . S
C3423 C203 2.297 . S
C3438 C63 2.288 . S
C3473 C175 2.296 . S
C3488 C77 2.287 . S
C3523 C329 2.296 . S
C3538 C91 2.287 . S
C3573 C301 2.296 . S
C3588 C105 2.287 . S
C3623 C315 2.296 . S
C3638 C119 2.288 . S
C3673 C441 2.296 . S
C3688 C133 2.287 . S
C3723 C455 2.297 . S
C3738 C147 2.288 . S
C3773 C427 2.296 . S
C3788 C161 2.288 . S
C3823 C217 1.938 . S
C3838 C357 1.939 . S
C3873 C371 1.938 . S
C3888 C231 1.938 . S
C3923 C343 1.939 . S
C3938 C245 1.938 . S
C3973 C259 1.940 . S
C3988 C497 1.939 . S
C4023 C469 1.938 . S
C4038 C273 1.939 . S
C4073 C287 1.939 . S
C4088 C483 1.939 . S
