# Generated by pormake.
# Topology wno, (7)-cn, num edge types: 1
# Building blocks:
#     Node 0, Type 0, BuildingBlock: OLANEW_clean_sbu_3, # of connection points: 7
#     Node 1, Type 0, BuildingBlock: OLANEW_clean_sbu_3, # of connection points: 7
#     Node 2, Type 0, BuildingBlock: OLANEW_clean_sbu_3, # of connection points: 7
#     Node 3, Type 0, BuildingBlock: OLANEW_clean_sbu_3, # of connection points: 7
#     Node 4, Type 0, BuildingBlock: OLANEW_clean_sbu_3, # of connection points: 7
#     Node 5, Type 0, BuildingBlock: OLANEW_clean_sbu_3, # of connection points: 7
#     Node 6, Type 0, BuildingBlock: OLANEW_clean_sbu_3, # of connection points: 7
#     Node 7, Type 0, BuildingBlock: OLANEW_clean_sbu_3, # of connection points: 7
#     Node 8, Type 0, BuildingBlock: OLANEW_clean_sbu_3, # of connection points: 7
#     Node 9, Type 0, BuildingBlock: OLANEW_clean_sbu_3, # of connection points: 7
#     Node 10, Type 0, BuildingBlock: OLANEW_clean_sbu_3, # of connection points: 7
#     Node 11, Type 0, BuildingBlock: OLANEW_clean_sbu_3, # of connection points: 7
#     Node 12, Type 0, BuildingBlock: OLANEW_clean_sbu_3, # of connection points: 7
#     Node 13, Type 0, BuildingBlock: OLANEW_clean_sbu_3, # of connection points: 7
#     Node 14, Type 0, BuildingBlock: OLANEW_clean_sbu_3, # of connection points: 7
#     Node 15, Type 0, BuildingBlock: OLANEW_clean_sbu_3, # of connection points: 7
#     Node 16, Type 0, BuildingBlock: OLANEW_clean_sbu_3, # of connection points: 7
#     Node 17, Type 0, BuildingBlock: OLANEW_clean_sbu_3, # of connection points: 7
#     Edge 18, Type (0, 0), BuildingBlock: UVAHIK_clean_linker_0, # of connection points: 2
#     Edge 19, Type (0, 0), BuildingBlock: UVAHIK_clean_linker_0, # of connection points: 2
#     Edge 20, Type (0, 0), BuildingBlock: UVAHIK_clean_linker_0, # of connection points: 2
#     Edge 21, Type (0, 0), BuildingBlock: UVAHIK_clean_linker_0, # of connection points: 2
#     Edge 22, Type (0, 0), BuildingBlock: UVAHIK_clean_linker_0, # of connection points: 2
#     Edge 23, Type (0, 0), BuildingBlock: UVAHIK_clean_linker_0, # of connection points: 2
#     Edge 24, Type (0, 0), BuildingBlock: UVAHIK_clean_linker_0, # of connection points: 2
#     Edge 25, Type (0, 0), BuildingBlock: UVAHIK_clean_linker_0, # of connection points: 2
#     Edge 26, Type (0, 0), BuildingBlock: UVAHIK_clean_linker_0, # of connection points: 2
#     Edge 27, Type (0, 0), BuildingBlock: UVAHIK_clean_linker_0, # of connection points: 2
#     Edge 28, Type (0, 0), BuildingBlock: UVAHIK_clean_linker_0, # of connection points: 2
#     Edge 29, Type (0, 0), BuildingBlock: UVAHIK_clean_linker_0, # of connection points: 2
#     Edge 30, Type (0, 0), BuildingBlock: UVAHIK_clean_linker_0, # of connection points: 2
#     Edge 31, Type (0, 0), BuildingBlock: UVAHIK_clean_linker_0, # of connection points: 2
#     Edge 32, Type (0, 0), BuildingBlock: UVAHIK_clean_linker_0, # of connection points: 2
#     Edge 33, Type (0, 0), BuildingBlock: UVAHIK_clean_linker_0, # of connection points: 2
#     Edge 34, Type (0, 0), BuildingBlock: UVAHIK_clean_linker_0, # of connection points: 2
#     Edge 35, Type (0, 0), BuildingBlock: UVAHIK_clean_linker_0, # of connection points: 2
#     Edge 36, Type (0, 0), BuildingBlock: UVAHIK_clean_linker_0, # of connection points: 2
#     Edge 37, Type (0, 0), BuildingBlock: UVAHIK_clean_linker_0, # of connection points: 2
#     Edge 38, Type (0, 0), BuildingBlock: UVAHIK_clean_linker_0, # of connection points: 2
#     Edge 39, Type (0, 0), BuildingBlock: UVAHIK_clean_linker_0, # of connection points: 2
#     Edge 40, Type (0, 0), BuildingBlock: UVAHIK_clean_linker_0, # of connection points: 2
#     Edge 41, Type (0, 0), BuildingBlock: UVAHIK_clean_linker_0, # of connection points: 2
#     Edge 42, Type (0, 0), BuildingBlock: UVAHIK_clean_linker_0, # of connection points: 2
#     Edge 43, Type (0, 0), BuildingBlock: UVAHIK_clean_linker_0, # of connection points: 2
#     Edge 44, Type (0, 0), BuildingBlock: UVAHIK_clean_linker_0, # of connection points: 2
#     Edge 45, Type (0, 0), BuildingBlock: UVAHIK_clean_linker_0, # of connection points: 2
#     Edge 46, Type (0, 0), BuildingBlock: UVAHIK_clean_linker_0, # of connection points: 2
#     Edge 47, Type (0, 0), BuildingBlock: UVAHIK_clean_linker_0, # of connection points: 2
#     Edge 48, Type (0, 0), BuildingBlock: UVAHIK_clean_linker_0, # of connection points: 2
#     Edge 49, Type (0, 0), BuildingBlock: UVAHIK_clean_linker_0, # of connection points: 2
#     Edge 50, Type (0, 0), BuildingBlock: UVAHIK_clean_linker_0, # of connection points: 2
#     Edge 51, Type (0, 0), BuildingBlock: UVAHIK_clean_linker_0, # of connection points: 2
#     Edge 52, Type (0, 0), BuildingBlock: UVAHIK_clean_linker_0, # of connection points: 2
#     Edge 53, Type (0, 0), BuildingBlock: UVAHIK_clean_linker_0, # of connection points: 2
#     Edge 54, Type (0, 0), BuildingBlock: UVAHIK_clean_linker_0, # of connection points: 2
#     Edge 55, Type (0, 0), BuildingBlock: UVAHIK_clean_linker_0, # of connection points: 2
#     Edge 56, Type (0, 0), BuildingBlock: UVAHIK_clean_linker_0, # of connection points: 2
#     Edge 57, Type (0, 0), BuildingBlock: UVAHIK_clean_linker_0, # of connection points: 2
#     Edge 58, Type (0, 0), BuildingBlock: UVAHIK_clean_linker_0, # of connection points: 2
#     Edge 59, Type (0, 0), BuildingBlock: UVAHIK_clean_linker_0, # of connection points: 2
#     Edge 60, Type (0, 0), BuildingBlock: UVAHIK_clean_linker_0, # of connection points: 2
#     Edge 61, Type (0, 0), BuildingBlock: UVAHIK_clean_linker_0, # of connection points: 2
#     Edge 62, Type (0, 0), BuildingBlock: UVAHIK_clean_linker_0, # of connection points: 2
#     Edge 63, Type (0, 0), BuildingBlock: UVAHIK_clean_linker_0, # of connection points: 2
#     Edge 64, Type (0, 0), BuildingBlock: UVAHIK_clean_linker_0, # of connection points: 2
#     Edge 65, Type (0, 0), BuildingBlock: UVAHIK_clean_linker_0, # of connection points: 2
#     Edge 66, Type (0, 0), BuildingBlock: UVAHIK_clean_linker_0, # of connection points: 2
#     Edge 67, Type (0, 0), BuildingBlock: UVAHIK_clean_linker_0, # of connection points: 2
#     Edge 68, Type (0, 0), BuildingBlock: UVAHIK_clean_linker_0, # of connection points: 2
#     Edge 69, Type (0, 0), BuildingBlock: UVAHIK_clean_linker_0, # of connection points: 2
#     Edge 70, Type (0, 0), BuildingBlock: UVAHIK_clean_linker_0, # of connection points: 2
#     Edge 71, Type (0, 0), BuildingBlock: UVAHIK_clean_linker_0, # of connection points: 2
#     Edge 72, Type (0, 0), BuildingBlock: UVAHIK_clean_linker_0, # of connection points: 2
#     Edge 73, Type (0, 0), BuildingBlock: UVAHIK_clean_linker_0, # of connection points: 2
#     Edge 74, Type (0, 0), BuildingBlock: UVAHIK_clean_linker_0, # of connection points: 2
#     Edge 75, Type (0, 0), BuildingBlock: UVAHIK_clean_linker_0, # of connection points: 2
#     Edge 76, Type (0, 0), BuildingBlock: UVAHIK_clean_linker_0, # of connection points: 2
#     Edge 77, Type (0, 0), BuildingBlock: UVAHIK_clean_linker_0, # of connection points: 2
#     Edge 78, Type (0, 0), BuildingBlock: UVAHIK_clean_linker_0, # of connection points: 2
#     Edge 79, Type (0, 0), BuildingBlock: UVAHIK_clean_linker_0, # of connection points: 2
#     Edge 80, Type (0, 0), BuildingBlock: UVAHIK_clean_linker_0, # of connection points: 2
# Relax obj value: 0.248
# Max RMSD: 0.259
# Mean RMSD: 0.259
data_MOF--net-wno--node1-OLANEW_clean_sbu_3--edge1-UVAHIK_clean_linker_0
_symmetry_space_group_name_H-M    P1
_symmetry_Int_Tables_number       1
_symmetry_cell_setting            triclinic
loop_
_symmetry_equiv_pos_as_xyz
'x, y, z'
_cell_length_a     80.199718
_cell_length_b     80.137859
_cell_length_c     56.535707
_cell_angle_alpha  89.837694
_cell_angle_beta   90.098033
_cell_angle_gamma 120.0068
loop_
_atom_site_label
_atom_site_type_symbol
_atom_site_fract_x
_atom_site_fract_y
_atom_site_fract_z
_atom_type_partial_charge
C0 C 0.16977 0.29231 0.12098 0.0
C1 C 0.16149 0.27458 0.10928 0.0
C2 C 0.1739 0.26962 0.0973 0.0
C3 C 0.19409 0.28222 0.09734 0.0
C4 C 0.20132 0.29968 0.10944 0.0
N5 N 0.1889 0.30345 0.12052 0.0
C6 C 0.22142 0.31547 0.11152 0.0
C7 C 0.24188 0.34845 0.12764 0.0
C8 C 0.25521 0.34669 0.14204 0.0
C9 C 0.27284 0.36294 0.14758 0.0
C10 C 0.27738 0.38098 0.1386 0.0
C11 C 0.26428 0.38279 0.12404 0.0
C12 C 0.24658 0.36659 0.11857 0.0
Cd13 Cd 0.25702 0.31783 0.0711 0.0
Cd14 Cd 0.23516 0.29673 0.03973 0.0
C15 C 0.16734 0.32545 0.16591 0.0
C16 C 0.15445 0.34553 0.17915 0.0
C17 C 0.15744 0.34215 0.20263 0.0
C18 C 0.16469 0.32995 0.20803 0.0
C19 C 0.16944 0.32138 0.18962 0.0
C20 C 0.15944 0.33719 0.16074 0.0
Co21 Co 0.19887 0.32673 0.13565 0.0
N22 N 0.20563 0.31831 0.16486 0.0
N23 N 0.20848 0.35026 0.15036 0.0
C24 C 0.21414 0.35122 0.1727 0.0
C25 C 0.21895 0.36786 0.18572 0.0
C26 C 0.2172 0.3827 0.17449 0.0
C27 C 0.21045 0.38055 0.15094 0.0
C28 C 0.20584 0.36346 0.13912 0.0
N29 N 0.19317 0.33899 0.10932 0.0
N30 N 0.22356 0.33194 0.12228 0.0
N31 N 0.17288 0.31736 0.147 0.0
O32 O 0.25554 0.31386 0.00771 0.0
O33 O 0.27633 0.33095 0.03533 0.0
C34 C 0.28847 0.34865 0.09568 0.0
O35 O 0.28045 0.35164 0.07807 0.0
O36 O 0.28164 0.33123 0.10219 0.0
C37 C 0.25054 0.27142 0.05365 0.0
O38 O 0.26083 0.2879 0.06349 0.0
O39 O 0.23472 0.26753 0.04404 0.0
C40 C 0.21287 0.33323 0.18086 0.0
O41 O 0.21702 0.33116 0.20282 0.0
O42 O 0.22847 0.32079 0.0582 0.0
O43 O 0.20697 0.29818 0.03507 0.0
C44 C 0.19736 0.35716 0.11546 0.0
O45 O 0.19545 0.36871 0.10055 0.0
C46 C 0.18879 0.33199 0.08559 0.0
C47 C 0.20326 0.33183 0.07268 0.0
C48 C 0.1989 0.32007 0.0529 0.0
C49 C 0.18045 0.31206 0.04279 0.0
C50 C 0.16606 0.31477 0.0536 0.0
C51 C 0.1702 0.32405 0.0759 0.0
C52 C 0.27217 0.327 0.01368 0.0
O53 O 0.23639 0.31249 0.10698 0.0
C54 C 0.21252 0.31348 0.04685 0.0
C55 C 0.20651 0.30099 0.16902 0.0
C56 C 0.19039 0.28273 0.16531 0.0
C57 C 0.19092 0.26609 0.1712 0.0
C58 C 0.20706 0.26747 0.18234 0.0
C59 C 0.2226 0.28562 0.1883 0.0
C60 C 0.22283 0.30221 0.18002 0.0
C61 C 0.16052 0.3002 0.13638 0.0
O62 O 0.14212 0.29039 0.14174 0.0
H63 H 0.14609 0.26481 0.10958 0.0
H64 H 0.1679 0.25601 0.08808 0.0
H65 H 0.20358 0.27852 0.08804 0.0
H66 H 0.25197 0.33282 0.149 0.0
H67 H 0.29108 0.39352 0.14281 0.0
H68 H 0.23669 0.36821 0.10709 0.0
H69 H 0.15331 0.34841 0.21687 0.0
H70 H 0.17454 0.31149 0.19369 0.0
H71 H 0.15708 0.33966 0.1425 0.0
H72 H 0.22349 0.36922 0.20399 0.0
H73 H 0.22068 0.39567 0.18418 0.0
H74 H 0.20857 0.39165 0.14255 0.0
H75 H 0.21768 0.33921 0.07984 0.0
H76 H 0.17746 0.30378 0.02668 0.0
H77 H 0.15906 0.32478 0.08589 0.0
H78 H 0.17695 0.28108 0.15939 0.0
H79 H 0.20673 0.25439 0.18802 0.0
H80 H 0.23496 0.3162 0.18428 0.0
C81 C 0.7125 0.88144 0.12139 0.0
C82 C 0.73136 0.89222 0.11288 0.0
C83 C 0.73677 0.90992 0.10136 0.0
C84 C 0.72351 0.91658 0.09882 0.0
C85 C 0.70492 0.90506 0.1078 0.0
N86 N 0.70063 0.8884 0.1182 0.0
C87 C 0.68867 0.90878 0.10773 0.0
C88 C 0.65408 0.89465 0.11848 0.0
C89 C 0.65395 0.91059 0.12867 0.0
C90 C 0.63674 0.91089 0.13077 0.0
C91 C 0.61957 0.89549 0.12235 0.0
C92 C 0.61968 0.87999 0.11132 0.0
C93 C 0.63685 0.87962 0.10925 0.0
Cd94 Cd 0.68949 0.94131 0.06358 0.0
Cd95 Cd 0.72064 0.93968 0.00107 0.0
C96 C 0.67642 0.84302 0.16166 0.0
C97 C 0.65739 0.80935 0.17341 0.0
C98 C 0.65951 0.81498 0.1971 0.0
C99 C 0.67073 0.83431 0.20356 0.0
C100 C 0.67934 0.84838 0.18577 0.0
C101 C 0.66583 0.82338 0.1556 0.0
Co102 Co 0.6764 0.87413 0.13083 0.0
N103 N 0.68292 0.88812 0.16049 0.0
N104 N 0.65214 0.85934 0.14342 0.0
C105 C 0.65003 0.86292 0.16589 0.0
C106 C 0.63326 0.84987 0.17792 0.0
C107 C 0.61963 0.83317 0.16572 0.0
C108 C 0.62316 0.82965 0.14226 0.0
C109 C 0.6403 0.84334 0.13144 0.0
N110 N 0.66616 0.85728 0.10339 0.0
N111 N 0.67162 0.89393 0.11681 0.0
N112 N 0.68543 0.85736 0.1434 0.0
O113 O 0.69563 0.94342 0.98258 0.0
O114 O 0.69094 0.94189 0.02055 0.0
C115 C 0.65686 0.94549 0.07525 0.0
O116 O 0.65444 0.9292 0.06895 0.0
O117 O 0.67403 0.95945 0.07511 0.0
C118 C 0.73166 0.97793 0.04512 0.0
O119 O 0.72024 0.97362 0.06271 0.0
O120 O 0.72818 0.96509 0.02975 0.0
C121 C 0.66732 0.87968 0.17539 0.0
O122 O 0.66774 0.88628 0.1968 0.0
O123 O 0.69152 0.91326 0.04997 0.0
O124 O 0.70598 0.90809 0.01982 0.0
C125 C 0.64819 0.84225 0.10834 0.0
O126 O 0.63802 0.82881 0.09274 0.0
C127 C 0.67491 0.86063 0.0805 0.0
C128 C 0.67742 0.87645 0.06759 0.0
C129 C 0.68919 0.88264 0.04763 0.0
C130 C 0.69601 0.87089 0.0384 0.0
C131 C 0.6914 0.85323 0.04944 0.0
C132 C 0.68127 0.84857 0.07116 0.0
C133 C 0.68705 0.94562 0.00012 0.0
O134 O 0.69133 0.92647 0.10207 0.0
C135 C 0.69546 0.90211 0.0382 0.0
C136 C 0.69815 0.90756 0.16398 0.0
C137 C 0.71751 0.91238 0.16432 0.0
C138 C 0.73184 0.9313 0.16923 0.0
C139 C 0.72689 0.94528 0.1747 0.0
C140 C 0.7074 0.94028 0.17556 0.0
C141 C 0.69336 0.92169 0.16895 0.0
C142 C 0.70384 0.86368 0.1358 0.0
O143 O 0.71382 0.85567 0.14299 0.0
H144 H 0.74165 0.88736 0.11535 0.0
H145 H 0.75127 0.91858 0.09467 0.0
H146 H 0.72766 0.93019 0.09021 0.0
H147 H 0.66706 0.92283 0.13498 0.0
H148 H 0.60627 0.89574 0.12398 0.0
H149 H 0.63668 0.86785 0.09989 0.0
H150 H 0.65325 0.80403 0.2108 0.0
H151 H 0.68868 0.86331 0.19062 0.0
H152 H 0.66453 0.81911 0.13722 0.0
H153 H 0.63103 0.85212 0.19624 0.0
H154 H 0.60664 0.82271 0.17467 0.0
H155 H 0.61312 0.81651 0.13325 0.0
H156 H 0.67066 0.88438 0.07366 0.0
H157 H 0.70517 0.87568 0.02292 0.0
H158 H 0.6781 0.83562 0.0808 0.0
H159 H 0.72155 0.90155 0.16163 0.0
H160 H 0.73819 0.9595 0.17978 0.0
H161 H 0.67833 0.91766 0.16932 0.0
C162 C 0.12526 0.83449 0.12011 0.0
C163 C 0.1146 0.84258 0.1111 0.0
C164 C 0.09703 0.83024 0.09945 0.0
C165 C 0.09038 0.8103 0.09729 0.0
C166 C 0.10178 0.80325 0.10679 0.0
N167 N 0.11832 0.81563 0.11728 0.0
C168 C 0.09793 0.78325 0.10728 0.0
C169 C 0.11164 0.76256 0.11891 0.0
C170 C 0.09531 0.74635 0.12833 0.0
C171 C 0.09461 0.72862 0.12996 0.0
C172 C 0.10997 0.72671 0.12177 0.0
C173 C 0.12591 0.74248 0.11157 0.0
C174 C 0.1267 0.76028 0.11003 0.0
Cd175 Cd 0.06454 0.74969 0.06447 0.0
Cd176 Cd 0.06731 0.78088 0.0004 0.0
C177 C 0.16229 0.83671 0.16223 0.0
C178 C 0.19483 0.84871 0.17724 0.0
C179 C 0.18772 0.84648 0.20034 0.0
C180 C 0.16829 0.83992 0.20468 0.0
C181 C 0.15556 0.83528 0.18559 0.0
C182 C 0.182 0.84379 0.1581 0.0
Co183 Co 0.13235 0.80566 0.13073 0.0
N184 N 0.11822 0.79877 0.16027 0.0
N185 N 0.14691 0.79619 0.14417 0.0
C186 C 0.14324 0.791 0.16683 0.0
C187 C 0.15616 0.78743 0.17944 0.0
C188 C 0.17286 0.79013 0.1676 0.0
C189 C 0.17651 0.79672 0.14391 0.0
C190 C 0.16295 0.80007 0.13252 0.0
N191 N 0.14935 0.81171 0.10361 0.0
N192 N 0.1125 0.78093 0.11712 0.0
N193 N 0.14916 0.83163 0.14267 0.0
O194 O 0.06311 0.75167 0.98342 0.0
O195 O 0.06263 0.74637 0.02134 0.0
C196 C 0.0611 0.71446 0.08207 0.0
O197 O 0.0745 0.72494 0.0677 0.0
O198 O 0.04941 0.72015 0.0874 0.0
C199 C 0.0284 0.75463 0.0436 0.0
O200 O 0.03214 0.74784 0.06199 0.0
O201 O 0.04177 0.76366 0.02873 0.0
C202 C 0.12657 0.7919 0.17581 0.0
O203 O 0.11971 0.78594 0.19721 0.0
O204 O 0.09341 0.77925 0.05109 0.0
O205 O 0.09851 0.79772 0.0195 0.0
C206 C 0.16427 0.80874 0.1091 0.0
O207 O 0.17772 0.81161 0.0937 0.0
C208 C 0.14595 0.81638 0.08035 0.0
C209 C 0.13039 0.80251 0.06768 0.0
C210 C 0.12393 0.80744 0.04739 0.0
C211 C 0.13535 0.82584 0.03748 0.0
C212 C 0.15274 0.83941 0.04841 0.0
C213 C 0.15755 0.83473 0.07054 0.0
C214 C 0.05959 0.7399 0.00034 0.0
O215 O 0.08027 0.7683 0.10156 0.0
C216 C 0.10448 0.79386 0.03843 0.0
C217 C 0.09863 0.79413 0.16318 0.0
C218 C 0.09338 0.80836 0.16369 0.0
C219 C 0.07443 0.80331 0.16922 0.0
C220 C 0.0609 0.78424 0.17498 0.0
C221 C 0.06634 0.77004 0.17527 0.0
C222 C 0.08488 0.77507 0.16798 0.0
C223 C 0.14288 0.84368 0.13463 0.0
O224 O 0.15064 0.86163 0.14181 0.0
H225 H 0.11946 0.85774 0.11326 0.0
H226 H 0.08847 0.83609 0.09236 0.0
H227 H 0.07686 0.80081 0.08859 0.0
H228 H 0.08299 0.74723 0.13429 0.0
H229 H 0.10937 0.71295 0.12298 0.0
H230 H 0.13878 0.77196 0.10116 0.0
H231 H 0.19753 0.85056 0.21525 0.0
H232 H 0.14056 0.83062 0.18884 0.0
H233 H 0.18726 0.84555 0.14011 0.0
H234 H 0.15382 0.78335 0.19792 0.0
H235 H 0.18323 0.78771 0.177 0.0
H236 H 0.18968 0.7996 0.13515 0.0
H237 H 0.12278 0.78792 0.07424 0.0
H238 H 0.13053 0.82972 0.02156 0.0
H239 H 0.17028 0.84506 0.08005 0.0
H240 H 0.10392 0.82332 0.16072 0.0
H241 H 0.04668 0.78097 0.18055 0.0
H242 H 0.08931 0.76438 0.16783 0.0
C243 C 0.83508 0.71314 0.87615 0.0
C244 C 0.84345 0.73082 0.88798 0.0
C245 C 0.83107 0.73592 0.89982 0.0
C246 C 0.81086 0.72348 0.89957 0.0
C247 C 0.80356 0.70609 0.8873 0.0
N248 N 0.81592 0.7022 0.8763 0.0
C249 C 0.78345 0.69036 0.88518 0.0
C250 C 0.76282 0.65734 0.86927 0.0
C251 C 0.74954 0.65911 0.85479 0.0
C252 C 0.73201 0.64283 0.84898 0.0
C253 C 0.72755 0.62475 0.85774 0.0
C254 C 0.74053 0.62296 0.87254 0.0
C255 C 0.7581 0.6392 0.87834 0.0
Cd256 Cd 0.75057 0.68663 0.92824 0.0
Cd257 Cd 0.76648 0.69666 0.9839 0.0
C258 C 0.83741 0.67985 0.83149 0.0
C259 C 0.84908 0.65891 0.81712 0.0
C260 C 0.84441 0.66156 0.79405 0.0
C261 C 0.83718 0.67387 0.78941 0.0
C262 C 0.83447 0.68367 0.80806 0.0
C263 C 0.84529 0.66793 0.836 0.0
Co264 Co 0.80584 0.67877 0.86153 0.0
N265 N 0.79925 0.68698 0.83199 0.0
N266 N 0.79615 0.65509 0.8472 0.0
C267 C 0.7904 0.65388 0.82486 0.0
C268 C 0.78541 0.63704 0.8122 0.0
C269 C 0.78706 0.62226 0.82378 0.0
C270 C 0.79383 0.62466 0.84735 0.0
C271 C 0.79863 0.64195 0.85879 0.0
N272 N 0.81114 0.66669 0.88824 0.0
N273 N 0.78118 0.67383 0.87455 0.0
N274 N 0.83197 0.6878 0.85066 0.0
O275 O 0.73833 0.66509 0.98207 0.0
O276 O 0.72681 0.67901 0.95933 0.0
C277 C 0.71937 0.6544 0.90624 0.0
O278 O 0.72884 0.65194 0.92268 0.0
O279 O 0.72519 0.67163 0.89959 0.0
C280 C 0.75494 0.72748 0.95387 0.0
O281 O 0.75007 0.71716 0.93517 0.0
O282 O 0.7614 0.72299 0.9719 0.0
C283 C 0.79175 0.67182 0.81632 0.0
O284 O 0.78765 0.67367 0.79427 0.0
O285 O 0.77905 0.68731 0.94532 0.0
O286 O 0.79545 0.69588 0.97833 0.0
C287 C 0.807 0.64847 0.88245 0.0
O288 O 0.80896 0.6371 0.89762 0.0
C289 C 0.81626 0.67427 0.91164 0.0
C290 C 0.80247 0.67533 0.92514 0.0
C291 C 0.80716 0.68474 0.94686 0.0
C292 C 0.8254 0.69084 0.95672 0.0
C293 C 0.8392 0.68837 0.94416 0.0
C294 C 0.83468 0.68054 0.92111 0.0
C295 C 0.72414 0.66652 0.97488 0.0
O296 O 0.76852 0.69317 0.89042 0.0
C297 C 0.79309 0.68901 0.95773 0.0
C298 C 0.79831 0.70424 0.82761 0.0
C299 C 0.8143 0.72254 0.83156 0.0
C300 C 0.81361 0.73913 0.82593 0.0
C301 C 0.79745 0.73771 0.81481 0.0
C302 C 0.78203 0.71957 0.80851 0.0
C303 C 0.78198 0.70296 0.81649 0.0
C304 C 0.84434 0.70501 0.86117 0.0
O305 O 0.86277 0.71469 0.85594 0.0
H306 H 0.85887 0.74042 0.88794 0.0
H307 H 0.83714 0.74948 0.90916 0.0
H308 H 0.80141 0.72724 0.90884 0.0
H309 H 0.75277 0.673 0.84789 0.0
H310 H 0.71395 0.61217 0.85327 0.0
H311 H 0.7679 0.63761 0.89001 0.0
H312 H 0.84732 0.65474 0.77931 0.0
H313 H 0.82956 0.69377 0.80442 0.0
H314 H 0.84835 0.66567 0.85403 0.0
H315 H 0.78081 0.63548 0.79394 0.0
H316 H 0.78344 0.60913 0.81438 0.0
H317 H 0.79558 0.61358 0.85604 0.0
H318 H 0.78801 0.66914 0.91826 0.0
H319 H 0.82903 0.69788 0.97381 0.0
H320 H 0.84521 0.67908 0.91073 0.0
H321 H 0.82774 0.72423 0.8376 0.0
H322 H 0.79764 0.7508 0.80951 0.0
H323 H 0.76993 0.68896 0.8121 0.0
C324 C 0.29216 0.12383 0.8715 0.0
C325 C 0.27396 0.11321 0.8819 0.0
C326 C 0.26956 0.09596 0.89394 0.0
C327 C 0.28315 0.08963 0.8952 0.0
C328 C 0.30104 0.10099 0.88436 0.0
N329 N 0.30433 0.11708 0.87329 0.0
C330 C 0.31759 0.0978 0.88333 0.0
C331 C 0.35125 0.11195 0.86891 0.0
C332 C 0.35061 0.09666 0.85605 0.0
C333 C 0.36749 0.09615 0.85169 0.0
C334 C 0.38508 0.11071 0.86041 0.0
C335 C 0.38578 0.12574 0.87363 0.0
C336 C 0.36894 0.12636 0.8779 0.0
Cd337 Cd 0.31977 0.06468 0.92462 0.0
Cd338 Cd 0.30191 0.06663 0.9606 0.0
C339 C 0.3258 0.16118 0.82861 0.0
C340 C 0.34689 0.19407 0.81512 0.0
C341 C 0.34379 0.18736 0.79173 0.0
C342 C 0.33145 0.16791 0.7866 0.0
C343 C 0.3219 0.1549 0.80503 0.0
C344 C 0.33798 0.18077 0.83362 0.0
Co345 Co 0.32804 0.1317 0.85945 0.0
N346 N 0.32132 0.11717 0.82983 0.0
N347 N 0.35193 0.14694 0.84592 0.0
C348 C 0.3538 0.1432 0.82348 0.0
C349 C 0.37052 0.15604 0.81121 0.0
C350 C 0.38443 0.1727 0.82319 0.0
C351 C 0.38122 0.17637 0.8467 0.0
C352 C 0.3641 0.16288 0.85774 0.0
N353 N 0.3387 0.14933 0.88631 0.0
N354 N 0.33403 0.11275 0.8732 0.0
N355 N 0.31781 0.14752 0.84755 0.0
O356 O 0.322 0.06467 0.98927 0.0
O357 O 0.3347 0.0582 0.95878 0.0
C358 C 0.34931 0.06264 0.89896 0.0
O359 O 0.35319 0.07471 0.91556 0.0
O360 O 0.33161 0.05185 0.89379 0.0
C361 C 0.27426 0.02602 0.9449 0.0
O362 O 0.28931 0.03174 0.93205 0.0
O363 O 0.27273 0.03793 0.95809 0.0
C364 C 0.33656 0.12626 0.81438 0.0
O365 O 0.3355 0.12073 0.79226 0.0
O366 O 0.32123 0.09557 0.93737 0.0
O367 O 0.30234 0.09572 0.96553 0.0
C368 C 0.3567 0.16412 0.88101 0.0
O369 O 0.36728 0.17752 0.89648 0.0
C370 C 0.33116 0.14594 0.90978 0.0
C371 C 0.33152 0.13151 0.92261 0.0
C372 C 0.32067 0.12443 0.94312 0.0
C373 C 0.31291 0.13491 0.95371 0.0
C374 C 0.31528 0.15188 0.94284 0.0
C375 C 0.32366 0.15676 0.92002 0.0
C376 C 0.33354 0.05979 0.98093 0.0
O377 O 0.31544 0.08018 0.88815 0.0
C378 C 0.31528 0.1047 0.95017 0.0
C379 C 0.30604 0.09774 0.82545 0.0
C380 C 0.2866 0.0924 0.8279 0.0
C381 C 0.27213 0.0742 0.82054 0.0
C382 C 0.27687 0.0615 0.80962 0.0
C383 C 0.29626 0.06715 0.80573 0.0
C384 C 0.31058 0.08458 0.81516 0.0
C385 C 0.29978 0.1412 0.85651 0.0
O386 O 0.28924 0.14878 0.85008 0.0
H387 H 0.26344 0.11787 0.88058 0.0
H388 H 0.25559 0.08745 0.90215 0.0
H389 H 0.27982 0.07646 0.90442 0.0
H390 H 0.33711 0.08511 0.84946 0.0
H391 H 0.39812 0.11024 0.85711 0.0
H392 H 0.36971 0.13789 0.88855 0.0
H393 H 0.35042 0.1974 0.77718 0.0
H394 H 0.312 0.13988 0.80112 0.0
H395 H 0.34051 0.18555 0.85185 0.0
H396 H 0.37262 0.15355 0.79293 0.0
H397 H 0.39743 0.18297 0.81408 0.0
H398 H 0.39152 0.18944 0.85563 0.0
H399 H 0.33914 0.12477 0.91539 0.0
H400 H 0.3048 0.12972 0.97 0.0
H401 H 0.32474 0.16899 0.91047 0.0
H402 H 0.28245 0.10247 0.83412 0.0
H403 H 0.26545 0.048 0.80272 0.0
H404 H 0.32552 0.08864 0.81254 0.0
C405 C 0.88406 0.17125 0.87117 0.0
C406 C 0.89495 0.16348 0.88031 0.0
C407 C 0.91281 0.17621 0.89114 0.0
C408 C 0.91945 0.1962 0.89248 0.0
C409 C 0.9078 0.20292 0.88292 0.0
N410 N 0.89113 0.19021 0.87296 0.0
C411 C 0.91126 0.22279 0.88216 0.0
C412 C 0.89662 0.24255 0.8702 0.0
C413 C 0.91125 0.25741 0.85676 0.0
C414 C 0.91135 0.27472 0.85323 0.0
C415 C 0.8971 0.2775 0.86348 0.0
C416 C 0.88283 0.26302 0.87745 0.0
C417 C 0.88259 0.24562 0.88084 0.0
Cd418 Cd 0.94276 0.2568 0.92407 0.0
Cd419 Cd 0.93713 0.24479 0.98065 0.0
C420 C 0.84495 0.16765 0.83154 0.0
C421 C 0.81154 0.15468 0.81956 0.0
C422 C 0.81734 0.15709 0.79588 0.0
C423 C 0.83656 0.16403 0.7898 0.0
C424 C 0.85037 0.16913 0.80764 0.0
C425 C 0.82543 0.15996 0.83752 0.0
Co426 Co 0.87617 0.19954 0.86069 0.0
N427 N 0.88917 0.20674 0.83007 0.0
N428 N 0.86061 0.2084 0.84868 0.0
C429 C 0.86314 0.21344 0.82594 0.0
C430 C 0.84963 0.21695 0.8147 0.0
C431 C 0.83361 0.21442 0.82798 0.0
C432 C 0.83118 0.20807 0.85174 0.0
C433 C 0.84526 0.20476 0.8617 0.0
N434 N 0.86016 0.19325 0.88892 0.0
N435 N 0.89605 0.22449 0.8733 0.0
N436 N 0.8593 0.17336 0.8497 0.0
O437 O 0.9344 0.27298 0.97267 0.0
O438 O 0.9612 0.28082 0.95439 0.0
C439 C 0.94093 0.28825 0.90301 0.0
O440 O 0.93028 0.27914 0.92058 0.0
O441 O 0.95164 0.28211 0.89475 0.0
C442 C 0.97904 0.2531 0.95146 0.0
O443 O 0.97378 0.25663 0.93154 0.0
O444 O 0.96808 0.24847 0.96946 0.0
C445 C 0.8795 0.21281 0.81546 0.0
O446 O 0.88446 0.21764 0.79324 0.0
O447 O 0.91527 0.2285 0.9426 0.0
O448 O 0.90787 0.21472 0.97743 0.0
C449 C 0.84513 0.19638 0.8849 0.0
O450 O 0.83244 0.19367 0.90135 0.0
C451 C 0.86438 0.18883 0.91188 0.0
C452 C 0.87953 0.20331 0.92427 0.0
C453 C 0.88515 0.19976 0.94609 0.0
C454 C 0.87377 0.18177 0.95711 0.0
C455 C 0.8572 0.16711 0.94563 0.0
C456 C 0.85291 0.17075 0.92254 0.0
C457 C 0.95143 0.28564 0.96727 0.0
O458 O 0.92899 0.23812 0.88672 0.0
C459 C 0.90335 0.21506 0.95611 0.0
C460 C 0.90854 0.21127 0.82466 0.0
C461 C 0.9142 0.19734 0.82603 0.0
C462 C 0.93234 0.20154 0.81783 0.0
C463 C 0.94463 0.21933 0.80722 0.0
C464 C 0.93867 0.23299 0.80454 0.0
C465 C 0.92129 0.22929 0.81471 0.0
C466 C 0.86591 0.16158 0.85765 0.0
O467 O 0.85784 0.14339 0.85139 0.0
H468 H 0.89002 0.14824 0.87894 0.0
H469 H 0.92154 0.1706 0.89836 0.0
H470 H 0.9331 0.20595 0.90075 0.0
H471 H 0.92262 0.2557 0.84909 0.0
H472 H 0.89726 0.29095 0.86085 0.0
H473 H 0.87168 0.23476 0.89209 0.0
H474 H 0.80664 0.15273 0.78193 0.0
H475 H 0.86523 0.17412 0.80301 0.0
H476 H 0.82113 0.15797 0.85593 0.0
H477 H 0.85108 0.22097 0.7962 0.0
H478 H 0.82283 0.21684 0.81969 0.0
H479 H 0.81854 0.20536 0.86166 0.0
H480 H 0.88699 0.21763 0.91681 0.0
H481 H 0.87773 0.17933 0.97456 0.0
H482 H 0.84079 0.15967 0.91282 0.0
H483 H 0.90443 0.18297 0.83221 0.0
H484 H 0.95808 0.22178 0.7997 0.0
H485 H 0.91689 0.24 0.81306 0.0
C486 C 0.83724 0.62652 0.45381 0.0
C487 C 0.8289 0.60887 0.44189 0.0
C488 C 0.84129 0.60385 0.42995 0.0
C489 C 0.86149 0.6163 0.43022 0.0
C490 C 0.86878 0.6337 0.4425 0.0
N491 N 0.85639 0.63754 0.45351 0.0
C492 C 0.88895 0.64931 0.44491 0.0
C493 C 0.90955 0.68215 0.46134 0.0
C494 C 0.92282 0.68022 0.47565 0.0
C495 C 0.94047 0.69638 0.48136 0.0
C496 C 0.94509 0.71452 0.47263 0.0
C497 C 0.93207 0.71649 0.45812 0.0
C498 C 0.91436 0.70038 0.45248 0.0
Cd499 Cd 0.92436 0.65192 0.4045 0.0
Cd500 Cd 0.90246 0.63133 0.37266 0.0
C501 C 0.8348 0.66029 0.49794 0.0
C502 C 0.82284 0.68172 0.50882 0.0
C503 C 0.82822 0.68128 0.53227 0.0
C504 C 0.83572 0.66956 0.53898 0.0
C505 C 0.8383 0.65846 0.52189 0.0
C506 C 0.82638 0.67136 0.49149 0.0
Co507 Co 0.86652 0.66065 0.46911 0.0
N508 N 0.87299 0.65168 0.49815 0.0
N509 N 0.87634 0.68401 0.4843 0.0
C510 C 0.88212 0.68468 0.50654 0.0
C511 C 0.88718 0.70123 0.51988 0.0
C512 C 0.88558 0.7163 0.50908 0.0
C513 C 0.8788 0.7145 0.48558 0.0
C514 C 0.87394 0.69749 0.47341 0.0
N515 N 0.8612 0.67345 0.44312 0.0
N516 N 0.8912 0.66574 0.45585 0.0
N517 N 0.84044 0.65143 0.48012 0.0
O518 O 0.92285 0.64815 0.34068 0.0
O519 O 0.94375 0.66435 0.36858 0.0
C520 C 0.9559 0.68326 0.42837 0.0
O521 O 0.94711 0.68586 0.41133 0.0
O522 O 0.94979 0.66592 0.43478 0.0
C523 C 0.91703 0.6053 0.38743 0.0
O524 O 0.92751 0.62159 0.39758 0.0
O525 O 0.90161 0.60202 0.37723 0.0
C526 C 0.8806 0.66649 0.5143 0.0
O527 O 0.88467 0.66411 0.53617 0.0
O528 O 0.89587 0.65499 0.39163 0.0
O529 O 0.8744 0.63295 0.3679 0.0
C530 C 0.86552 0.69158 0.44966 0.0
O531 O 0.86376 0.7034 0.43505 0.0
C532 C 0.85673 0.6667 0.41932 0.0
C533 C 0.87107 0.66644 0.40627 0.0
C534 C 0.86654 0.65475 0.3864 0.0
C535 C 0.84807 0.64691 0.37642 0.0
C536 C 0.83382 0.6497 0.38747 0.0
C537 C 0.83811 0.65892 0.4098 0.0
C538 C 0.93965 0.66076 0.34685 0.0
O539 O 0.90383 0.64619 0.44044 0.0
C540 C 0.88002 0.64804 0.38013 0.0
C541 C 0.87366 0.63419 0.50186 0.0
C542 C 0.85748 0.61607 0.4977 0.0
C543 C 0.85792 0.59925 0.50265 0.0
C544 C 0.87406 0.60024 0.51332 0.0
C545 C 0.88967 0.61817 0.5199 0.0
C546 C 0.88993 0.63503 0.51259 0.0
C547 C 0.82802 0.63444 0.4692 0.0
O548 O 0.8095 0.62495 0.47398 0.0
H549 H 0.81349 0.59921 0.44203 0.0
H550 H 0.83524 0.5903 0.42059 0.0
H551 H 0.87096 0.61255 0.42098 0.0
H552 H 0.9195 0.66628 0.48246 0.0
H553 H 0.95879 0.72699 0.47697 0.0
H554 H 0.90454 0.70214 0.44103 0.0
H555 H 0.82533 0.68911 0.54577 0.0
H556 H 0.84344 0.64882 0.5271 0.0
H557 H 0.82266 0.6719 0.47318 0.0
H558 H 0.89174 0.70232 0.53812 0.0
H559 H 0.88922 0.72919 0.51904 0.0
H560 H 0.87708 0.7258 0.47749 0.0
H561 H 0.88549 0.67362 0.41344 0.0
H562 H 0.84492 0.63865 0.36027 0.0
H563 H 0.82706 0.65968 0.41994 0.0
H564 H 0.84407 0.61467 0.49204 0.0
H565 H 0.87369 0.58696 0.51805 0.0
H566 H 0.90211 0.64888 0.51719 0.0
C567 C 0.37962 0.21516 0.45362 0.0
C568 C 0.39859 0.22656 0.44572 0.0
C569 C 0.40375 0.24444 0.43486 0.0
C570 C 0.39015 0.25068 0.43242 0.0
C571 C 0.37148 0.23854 0.44081 0.0
N572 N 0.36742 0.22173 0.45051 0.0
C573 C 0.35494 0.24179 0.44093 0.0
C574 C 0.32007 0.22674 0.45061 0.0
C575 C 0.31927 0.24239 0.46067 0.0
C576 C 0.30183 0.2423 0.46193 0.0
C577 C 0.28508 0.22681 0.45279 0.0
C578 C 0.28585 0.21163 0.44187 0.0
C579 C 0.30326 0.21165 0.44064 0.0
Cd580 Cd 0.35498 0.27419 0.39842 0.0
Cd581 Cd 0.38753 0.27496 0.33498 0.0
C582 C 0.34429 0.17683 0.49401 0.0
C583 C 0.32346 0.14415 0.50864 0.0
C584 C 0.32635 0.15143 0.53171 0.0
C585 C 0.33863 0.17096 0.53626 0.0
C586 C 0.3482 0.18357 0.51748 0.0
C587 C 0.33233 0.15702 0.48966 0.0
Co588 Co 0.34315 0.20687 0.46274 0.0
N589 N 0.34921 0.22025 0.49275 0.0
N590 N 0.31886 0.19154 0.47497 0.0
C591 C 0.31633 0.19488 0.49738 0.0
C592 C 0.29942 0.18161 0.50897 0.0
C593 C 0.28609 0.165 0.49638 0.0
C594 C 0.29003 0.16181 0.47295 0.0
C595 C 0.3073 0.17572 0.46259 0.0
N596 N 0.33332 0.19065 0.43485 0.0
N597 N 0.33794 0.22656 0.44946 0.0
N598 N 0.35254 0.19019 0.47466 0.0
O599 O 0.36223 0.27904 0.31744 0.0
O600 O 0.35604 0.2765 0.35515 0.0
C601 C 0.32235 0.27827 0.41047 0.0
O602 O 0.31988 0.26193 0.4043 0.0
O603 O 0.33951 0.29225 0.41002 0.0
C604 C 0.3956 0.3087 0.38207 0.0
O605 O 0.38591 0.30638 0.40079 0.0
O606 O 0.39019 0.29391 0.36938 0.0
C607 C 0.33337 0.21167 0.50726 0.0
O608 O 0.33344 0.21805 0.5287 0.0
O609 O 0.35814 0.24729 0.38138 0.0
O610 O 0.37224 0.24208 0.35083 0.0
C611 C 0.31549 0.17523 0.43946 0.0
O612 O 0.30562 0.16202 0.42349 0.0
C613 C 0.34225 0.19459 0.41204 0.0
C614 C 0.34444 0.21041 0.39925 0.0
C615 C 0.35559 0.21647 0.37868 0.0
C616 C 0.36212 0.20461 0.36893 0.0
C617 C 0.35844 0.18749 0.38054 0.0
C618 C 0.34898 0.18292 0.40259 0.0
C619 C 0.35257 0.28021 0.33451 0.0
O620 O 0.35724 0.25939 0.43608 0.0
C621 C 0.36176 0.236 0.3693 0.0
C622 C 0.36452 0.23948 0.49694 0.0
C623 C 0.38365 0.24385 0.49929 0.0
C624 C 0.39776 0.26236 0.50615 0.0
C625 C 0.3927 0.27631 0.51145 0.0
C626 C 0.37333 0.27175 0.50989 0.0
C627 C 0.35976 0.25368 0.5012 0.0
C628 C 0.37114 0.1971 0.46742 0.0
O629 O 0.38152 0.18965 0.47499 0.0
H630 H 0.40913 0.22203 0.44818 0.0
H631 H 0.41833 0.25358 0.42865 0.0
H632 H 0.39412 0.26444 0.42437 0.0
H633 H 0.33204 0.25477 0.46741 0.0
H634 H 0.27159 0.22677 0.45376 0.0
H635 H 0.30361 0.20017 0.43122 0.0
H636 H 0.31973 0.14169 0.54654 0.0
H637 H 0.3582 0.19862 0.52105 0.0
H638 H 0.33002 0.15171 0.47166 0.0
H639 H 0.29683 0.18366 0.52723 0.0
H640 H 0.27297 0.15438 0.50498 0.0
H641 H 0.28016 0.14879 0.46359 0.0
H642 H 0.3378 0.21834 0.40571 0.0
H643 H 0.37046 0.20888 0.35273 0.0
H644 H 0.34662 0.17023 0.41229 0.0
H645 H 0.38759 0.23291 0.49674 0.0
H646 H 0.40374 0.2901 0.51813 0.0
H647 H 0.34488 0.24985 0.49951 0.0
C648 C 0.78784 0.16647 0.45698 0.0
C649 C 0.77708 0.17409 0.44703 0.0
C650 C 0.75939 0.16119 0.43596 0.0
C651 C 0.7528 0.14118 0.43516 0.0
C652 C 0.76433 0.13463 0.44552 0.0
N653 N 0.7808 0.14748 0.45572 0.0
C654 C 0.76101 0.11483 0.4468 0.0
C655 C 0.77561 0.09534 0.46003 0.0
C656 C 0.76115 0.08092 0.47412 0.0
C657 C 0.76116 0.06378 0.47862 0.0
C658 C 0.77535 0.06073 0.46871 0.0
C659 C 0.78944 0.07476 0.4541 0.0
C660 C 0.78956 0.092 0.44974 0.0
Cd661 Cd 0.7306 0.08049 0.40533 0.0
Cd662 Cd 0.73485 0.09305 0.34872 0.0
C663 C 0.82686 0.17067 0.49733 0.0
C664 C 0.8603 0.18381 0.50918 0.0
C665 C 0.85455 0.18121 0.53288 0.0
C666 C 0.83532 0.1741 0.53903 0.0
C667 C 0.82148 0.16906 0.52125 0.0
C668 C 0.84639 0.17853 0.49127 0.0
Co669 Co 0.79577 0.13838 0.46856 0.0
N670 N 0.78254 0.13131 0.49911 0.0
N671 N 0.81137 0.12977 0.48106 0.0
C672 C 0.80872 0.12486 0.50383 0.0
C673 C 0.82216 0.1214 0.51535 0.0
C674 C 0.83823 0.12382 0.50226 0.0
C675 C 0.84076 0.12999 0.47842 0.0
C676 C 0.82675 0.13325 0.46819 0.0
N677 N 0.81192 0.14448 0.4405 0.0
N678 N 0.77617 0.11332 0.45612 0.0
N679 N 0.81244 0.16468 0.47924 0.0
O680 O 0.73719 0.06441 0.3554 0.0
O681 O 0.71119 0.05622 0.3758 0.0
C682 C 0.73213 0.0496 0.42808 0.0
O683 O 0.74273 0.05791 0.41014 0.0
O684 O 0.72171 0.05629 0.43564 0.0
C685 C 0.69423 0.08496 0.38035 0.0
O686 O 0.70002 0.08076 0.39933 0.0
O687 O 0.70442 0.08997 0.36164 0.0
C688 C 0.79226 0.12548 0.51401 0.0
O689 O 0.78738 0.12104 0.53632 0.0
O690 O 0.75751 0.1087 0.3862 0.0
O691 O 0.76458 0.12278 0.35158 0.0
C692 C 0.82692 0.14138 0.44481 0.0
O693 O 0.83967 0.14396 0.4285 0.0
C694 C 0.80781 0.14875 0.4174 0.0
C695 C 0.79294 0.13413 0.40482 0.0
C696 C 0.78743 0.1376 0.38285 0.0
C697 C 0.79869 0.15567 0.37192 0.0
C698 C 0.81503 0.17041 0.3836 0.0
C699 C 0.81913 0.16687 0.40683 0.0
C700 C 0.72061 0.05154 0.36208 0.0
O701 O 0.74339 0.0994 0.44235 0.0
C702 C 0.76933 0.12222 0.37274 0.0
C703 C 0.76308 0.1267 0.50436 0.0
C704 C 0.7571 0.14032 0.50174 0.0
C705 C 0.73887 0.13613 0.50959 0.0
C706 C 0.72681 0.11874 0.52114 0.0
C707 C 0.73311 0.1055 0.52517 0.0
C708 C 0.75055 0.10903 0.51531 0.0
C709 C 0.80587 0.17634 0.47071 0.0
O710 O 0.81391 0.19462 0.47653 0.0
H711 H 0.78199 0.18934 0.44793 0.0
H712 H 0.75077 0.16667 0.4281 0.0
H713 H 0.73932 0.13131 0.42665 0.0
H714 H 0.74985 0.08287 0.48157 0.0
H715 H 0.77528 0.04741 0.4721 0.0
H716 H 0.80038 0.10255 0.4381 0.0
H717 H 0.86529 0.18553 0.54677 0.0
H718 H 0.80661 0.16396 0.52595 0.0
H719 H 0.85066 0.1806 0.47284 0.0
H720 H 0.82061 0.11747 0.53388 0.0
H721 H 0.84895 0.12142 0.51076 0.0
H722 H 0.85343 0.13258 0.46864 0.0
H723 H 0.78555 0.11982 0.41233 0.0
H724 H 0.79486 0.15809 0.35438 0.0
H725 H 0.83107 0.17805 0.4167 0.0
H726 H 0.76667 0.1545 0.49489 0.0
H727 H 0.7133 0.11635 0.52837 0.0
H728 H 0.75508 0.0985 0.51799 0.0
C729 C 0.50127 0.04554 0.20693 0.0
C730 C 0.50899 0.06443 0.21518 0.0
C731 C 0.49662 0.06928 0.22744 0.0
C732 C 0.47698 0.05544 0.23095 0.0
C733 C 0.47028 0.03686 0.22219 0.0
N734 N 0.4827 0.03309 0.21109 0.0
C735 C 0.45056 0.02018 0.2229 0.0
C736 C 0.43045 0.98553 0.21226 0.0
C737 C 0.41372 0.98501 0.20361 0.0
C738 C 0.39626 0.96764 0.20269 0.0
C739 C 0.39517 0.95067 0.21079 0.0
C740 C 0.41148 0.95112 0.2202 0.0
C741 C 0.429 0.96846 0.22105 0.0
Cd742 Cd 0.41711 0.01862 0.26687 0.0
Cd743 Cd 0.44313 0.03858 0.33466 0.0
C744 C 0.50374 0.00961 0.16672 0.0
C745 C 0.51666 0.98907 0.15536 0.0
C746 C 0.51085 0.98919 0.13203 0.0
C747 C 0.50256 1.00027 0.12547 0.0
C748 C 0.49962 0.01105 0.14281 0.0
C749 C 0.51292 0.99918 0.17282 0.0
Co750 Co 0.47302 0.00893 0.1983 0.0
N751 N 0.4645 0.01517 0.16925 0.0
N752 N 0.46378 0.98476 0.18552 0.0
C753 C 0.45718 0.98244 0.16343 0.0
C754 C 0.4534 0.96577 0.15117 0.0
C755 C 0.4573 0.95243 0.16276 0.0
C756 C 0.46517 0.95613 0.18584 0.0
C757 C 0.46866 0.97317 0.1969 0.0
N758 N 0.48079 0.99896 0.225 0.0
N759 N 0.44855 0.00337 0.21331 0.0
N760 N 0.49858 0.01873 0.18483 0.0
O761 O 0.41353 0.01013 0.34647 0.0
O762 O 0.41597 0.01365 0.30848 0.0
C763 C 0.3814 0.98752 0.24946 0.0
O764 O 0.39131 0.98434 0.2645 0.0
O765 O 0.38783 0.00493 0.24338 0.0
C766 C 0.42105 0.0585 0.29444 0.0
O767 O 0.41565 0.04851 0.27546 0.0
O768 O 0.42904 0.05422 0.31102 0.0
C769 C 0.45695 0.99952 0.15443 0.0
O770 O 0.44996 0.99978 0.13345 0.0
O771 O 0.44705 0.01974 0.27852 0.0
O772 O 0.46343 0.02996 0.31218 0.0
C773 C 0.47818 0.98117 0.21972 0.0
O774 O 0.48194 0.97109 0.23501 0.0
C775 C 0.48557 0.00715 0.24814 0.0
C776 C 0.4714 0.00784 0.26129 0.0
C777 C 0.47598 0.01894 0.28172 0.0
C778 C 0.49462 0.02691 0.2912 0.0
C779 C 0.50862 0.02418 0.2796 0.0
C780 C 0.50416 0.01473 0.25754 0.0
C781 C 0.40549 0.00577 0.32637 0.0
O782 O 0.43539 0.02233 0.22927 0.0
C783 C 0.46132 0.02288 0.29158 0.0
C784 C 0.46021 0.03035 0.16612 0.0
C785 C 0.47475 0.04959 0.16366 0.0
C786 C 0.46997 0.06359 0.15753 0.0
C787 C 0.45079 0.05833 0.15303 0.0
C788 C 0.4362 0.03887 0.15465 0.0
C789 C 0.44109 0.02539 0.16269 0.0
C790 C 0.51041 0.03733 0.19194 0.0
O791 O 0.52812 0.04773 0.18401 0.0
H792 H 0.52388 0.07515 0.21195 0.0
H793 H 0.50218 0.08381 0.23393 0.0
H794 H 0.46745 0.0592 0.24005 0.0
H795 H 0.41395 0.99795 0.19775 0.0
H796 H 0.38163 0.93725 0.21011 0.0
H797 H 0.44114 0.96853 0.22931 0.0
H798 H 0.51406 0.98165 0.11848 0.0
H799 H 0.49375 0.02013 0.13783 0.0
H800 H 0.51715 0.99902 0.19099 0.0
H801 H 0.44827 0.96342 0.1331 0.0
H802 H 0.45474 0.93951 0.15361 0.0
H803 H 0.46884 0.94629 0.19439 0.0
H804 H 0.45671 1.00005 0.25519 0.0
H805 H 0.49817 0.035 0.30756 0.0
H806 H 0.51504 0.01346 0.24768 0.0
H807 H 0.48973 0.05369 0.16544 0.0
H808 H 0.44774 0.06931 0.14684 0.0
H809 H 0.43018 0.01042 0.16433 0.0
C810 C 0.95711 0.45599 0.20485 0.0
C811 C 0.9383 0.44445 0.21323 0.0
C812 C 0.93359 0.42678 0.22437 0.0
C813 C 0.94746 0.42087 0.2266 0.0
C814 C 0.96596 0.43313 0.2178 0.0
N815 N 0.9696 0.44977 0.20789 0.0
C816 C 0.98265 0.43009 0.2172 0.0
C817 C 0.01759 0.44611 0.20686 0.0
C818 C 0.0192 0.43163 0.19494 0.0
C819 C 0.03716 0.43302 0.19227 0.0
C820 C 0.05357 0.44846 0.20211 0.0
C821 C 0.05198 0.46246 0.2149 0.0
C822 C 0.03409 0.46127 0.21734 0.0
Cd823 Cd 0.98313 0.39633 0.25815 0.0
Cd824 Cd 0.9741 0.40112 0.30045 0.0
C825 C 0.99183 0.49425 0.16356 0.0
C826 C 0.01357 0.52705 0.15013 0.0
C827 C 0.01103 0.52025 0.12683 0.0
C828 C 0.99861 0.50086 0.12159 0.0
C829 C 0.98847 0.48792 0.13991 0.0
C830 C 0.00402 0.51387 0.16858 0.0
Co831 Co 0.99353 0.46466 0.19476 0.0
N832 N 0.98712 0.45046 0.16515 0.0
N833 N 0.01752 0.47997 0.18175 0.0
C834 C 0.01982 0.47608 0.1595 0.0
C835 C 0.03676 0.4889 0.14761 0.0
C836 C 0.05037 0.50566 0.15972 0.0
C837 C 0.04669 0.50943 0.183 0.0
C838 C 0.02939 0.49595 0.19369 0.0
N839 N 0.00369 0.48188 0.22195 0.0
N840 N 0.99941 0.44556 0.20843 0.0
N841 N 0.98349 0.48058 0.18253 0.0
O842 O 0.0049 0.40732 0.3131 0.0
O843 O 0.99298 0.38206 0.29024 0.0
C844 C 0.01531 0.39694 0.23643 0.0
O845 O 0.01704 0.40626 0.25533 0.0
O846 O 0.99866 0.38796 0.227 0.0
C847 C 0.94417 0.35736 0.28394 0.0
O848 O 0.95232 0.36398 0.26393 0.0
O849 O 0.94963 0.3681 0.30207 0.0
C850 C 0.00271 0.45901 0.15021 0.0
O851 O 1.00236 0.45235 0.12886 0.0
O852 O 0.98384 0.42641 0.2717 0.0
O853 O 0.97012 0.42843 0.30437 0.0
C854 C 0.02156 0.49703 0.21683 0.0
O855 O 0.03188 0.51033 0.23251 0.0
C856 C 0.99575 0.47798 0.24529 0.0
C857 C 0.99511 0.46279 0.25755 0.0
C858 C 0.98414 0.45561 0.27801 0.0
C859 C 0.97669 0.46627 0.28882 0.0
C860 C 0.97973 0.48368 0.27842 0.0
C861 C 0.98868 0.48899 0.25592 0.0
C862 C 0.00405 0.39175 0.30705 0.0
O863 O 0.98047 0.41235 0.22122 0.0
C864 C 0.97959 0.43621 0.28572 0.0
C865 C 0.97205 0.43092 0.16175 0.0
C866 C 0.95259 0.42577 0.16178 0.0
C867 C 0.9384 0.40666 0.1575 0.0
C868 C 0.94357 0.39279 0.15232 0.0
C869 C 0.96312 0.3981 0.15101 0.0
C870 C 0.97705 0.41696 0.15674 0.0
C871 C 0.96503 0.47365 0.19031 0.0
O872 O 0.95437 0.48085 0.18293 0.0
H873 H 0.92752 0.44867 0.21083 0.0
H874 H 0.91914 0.41753 0.23091 0.0
H875 H 0.9438 0.40722 0.23477 0.0
H876 H 0.0067 0.41921 0.18782 0.0
H877 H 0.06743 0.44941 0.20013 0.0
H878 H 0.03318 0.47201 0.22778 0.0
H879 H 0.01812 0.53024 0.11235 0.0
H880 H 0.97855 0.47293 0.1359 0.0
H881 H 0.00611 0.51876 0.18675 0.0
H882 H 0.03923 0.48634 0.1295 0.0
H883 H 0.06353 0.51592 0.1509 0.0
H884 H 0.05681 0.52253 0.19203 0.0
H885 H 0.00264 0.45596 0.25044 0.0
H886 H 0.96842 0.46093 0.30497 0.0
H887 H 0.99055 0.50172 0.24683 0.0
H888 H 0.94835 0.43646 0.16434 0.0
H889 H 0.93235 0.37835 0.14788 0.0
H890 H 0.99211 0.42124 0.15584 0.0
C891 C 0.54811 0.50358 0.2074 0.0
C892 C 0.55932 0.4959 0.21572 0.0
C893 C 0.57691 0.50848 0.22719 0.0
C894 C 0.58304 0.52828 0.22979 0.0
C895 C 0.5711 0.53492 0.22097 0.0
N896 N 0.55453 0.52229 0.21072 0.0
C897 C 0.57438 0.55473 0.22089 0.0
C898 C 0.55962 0.57472 0.21035 0.0
C899 C 0.57541 0.59126 0.20064 0.0
C900 C 0.5753 0.6086 0.19923 0.0
C901 C 0.55969 0.60981 0.20799 0.0
C902 C 0.54433 0.59374 0.21858 0.0
C903 C 0.54434 0.57633 0.21988 0.0
Cd904 Cd 0.60785 0.58786 0.26369 0.0
Cd905 Cd 0.60499 0.55707 0.32839 0.0
C906 C 0.51044 0.50093 0.16611 0.0
C907 C 0.47758 0.48833 0.15205 0.0
C908 C 0.48428 0.49041 0.12873 0.0
C909 C 0.50374 0.49739 0.12388 0.0
C910 C 0.51684 0.50251 0.14261 0.0
C911 C 0.49081 0.49364 0.17078 0.0
Co912 Co 0.54004 0.5319 0.19765 0.0
N913 N 0.55421 0.53942 0.16819 0.0
N914 N 0.52512 0.54107 0.18456 0.0
C915 C 0.52902 0.54701 0.16217 0.0
C916 C 0.51617 0.55093 0.14995 0.0
C917 C 0.49938 0.54785 0.16191 0.0
C918 C 0.49557 0.5406 0.18532 0.0
C919 C 0.50906 0.53693 0.19632 0.0
N920 N 0.52286 0.52508 0.2247 0.0
N921 N 0.55943 0.55665 0.21158 0.0
N922 N 0.52381 0.50605 0.18533 0.0
O923 O 0.60711 0.58584 0.3444 0.0
O924 O 0.60612 0.58637 0.30608 0.0
C925 C 0.61082 0.62354 0.24814 0.0
O926 O 0.6006 0.61468 0.26604 0.0
O927 O 0.61977 0.61614 0.2383 0.0
C928 C 0.64505 0.58399 0.28633 0.0
O929 O 0.64062 0.59073 0.26838 0.0
O930 O 0.63233 0.57459 0.30189 0.0
C931 C 0.54597 0.54667 0.15306 0.0
O932 O 0.553 0.55322 0.13187 0.0
O933 O 0.57878 0.5577 0.27611 0.0
O934 O 0.57442 0.53947 0.30785 0.0
C935 C 0.5078 0.52791 0.21949 0.0
O936 O 0.49432 0.52469 0.235 0.0
C937 C 0.52637 0.52017 0.24773 0.0
C938 C 0.54182 0.53403 0.26045 0.0
C939 C 0.54866 0.52904 0.28031 0.0
C940 C 0.5375 0.51049 0.29009 0.0
C941 C 0.52017 0.4968 0.27905 0.0
C942 C 0.51514 0.50161 0.25715 0.0
C943 C 0.60922 0.59526 0.32549 0.0
O944 O 0.59191 0.56991 0.22644 0.0
C945 C 0.56815 0.54296 0.28891 0.0
C946 C 0.57342 0.5431 0.16466 0.0
C947 C 0.57743 0.52811 0.16204 0.0
C948 C 0.59586 0.53227 0.15522 0.0
C949 C 0.61008 0.55126 0.15022 0.0
C950 C 0.60593 0.56635 0.1521 0.0
C951 C 0.58792 0.56203 0.16087 0.0
C952 C 0.53048 0.49422 0.19293 0.0
O953 O 0.52306 0.47639 0.18541 0.0
H954 H 0.55489 0.48087 0.21313 0.0
H955 H 0.5859 0.50295 0.23373 0.0
H956 H 0.5966 0.53797 0.23827 0.0
H957 H 0.58794 0.59096 0.1943 0.0
H958 H 0.55966 0.62328 0.20694 0.0
H959 H 0.5327 0.56441 0.22902 0.0
H960 H 0.47419 0.48598 0.1141 0.0
H961 H 0.53188 0.50753 0.13898 0.0
H962 H 0.48591 0.49197 0.18893 0.0
H963 H 0.51868 0.55563 0.13169 0.0
H964 H 0.48909 0.55057 0.15283 0.0
H965 H 0.48239 0.53755 0.19418 0.0
H966 H 0.5491 0.5487 0.25417 0.0
H967 H 0.54242 0.50658 0.3059 0.0
H968 H 0.5025 0.4912 0.24755 0.0
H969 H 0.56627 0.51327 0.16425 0.0
H970 H 0.62374 0.55374 0.14348 0.0
H971 H 0.58429 0.5732 0.1629 0.0
C972 C 0.50539 0.95908 0.78832 0.0
C973 C 0.49669 0.94113 0.77709 0.0
C974 C 0.50871 0.93582 0.7648 0.0
C975 C 0.5289 0.9483 0.764 0.0
C976 C 0.53657 0.96596 0.77574 0.0
N977 N 0.52452 0.97004 0.78724 0.0
C978 C 0.55668 0.98191 0.77644 0.0
C979 C 0.57767 0.01541 0.79035 0.0
C980 C 0.5919 0.01429 0.80362 0.0
C981 C 0.61001 0.03063 0.80667 0.0
C982 C 0.61406 0.04816 0.79645 0.0
C983 C 0.60002 0.04933 0.78308 0.0
C984 C 0.58188 0.03302 0.78001 0.0
Cd985 Cd 0.58872 0.9842 0.73144 0.0
Cd986 Cd 0.56263 0.9648 0.6625 0.0
C987 C 0.50398 0.9941 0.8313 0.0
C988 C 0.49091 0.01455 0.84271 0.0
C989 C 0.49569 0.01343 0.86629 0.0
C990 C 0.5038 0.00217 0.87279 0.0
C991 C 0.5073 0.99192 0.85528 0.0
C992 C 0.49534 0.00502 0.82514 0.0
Co993 Co 0.53493 0.99392 0.80094 0.0
N994 N 0.54254 0.98669 0.8304 0.0
N995 N 0.54495 0.01803 0.81419 0.0
C996 C 0.5511 0.01983 0.83643 0.0
C997 C 0.55577 0.03677 0.84868 0.0
C998 C 0.55341 0.05102 0.83684 0.0
C999 C 0.5462 0.04799 0.81345 0.0
C1000 C 0.54173 0.03063 0.80242 0.0
N1001 N 0.52858 0.00506 0.77407 0.0
N1002 N 0.55918 0.99863 0.78677 0.0
N1003 N 0.5092 0.98505 0.81317 0.0
O1004 O 0.59138 0.99469 0.65229 0.0
O1005 O 0.58852 0.9894 0.69002 0.0
C1006 C 0.62527 0.0158 0.74576 0.0
O1007 O 0.61235 0.01889 0.7373 0.0
O1008 O 0.62127 0.99836 0.74674 0.0
C1009 C 0.58612 0.94574 0.70219 0.0
O1010 O 0.59035 0.95467 0.72194 0.0
O1011 O 0.57806 0.95003 0.6857 0.0
C1012 C 0.55018 0.00222 0.8455 0.0
O1013 O 0.55474 1.00098 0.86754 0.0
O1014 O 0.55891 0.98214 0.71772 0.0
O1015 O 0.54137 0.97231 0.68503 0.0
C1016 C 0.53262 0.02335 0.77925 0.0
O1017 O 0.52985 0.03411 0.76394 0.0
C1018 C 0.52275 0.99671 0.75108 0.0
C1019 C 0.53601 0.99485 0.73741 0.0
C1020 C 0.53042 0.9839 0.71679 0.0
C1021 C 0.51171 0.97697 0.708 0.0
C1022 C 0.49854 0.98055 0.72034 0.0
C1023 C 0.50406 0.9901 0.74236 0.0
C1024 C 0.59899 0.99872 0.67266 0.0
O1025 O 0.57155 0.97932 0.77005 0.0
C1026 C 0.54425 0.97931 0.70575 0.0
C1027 C 0.54333 0.96946 0.83558 0.0
C1028 C 0.52703 0.95114 0.83301 0.0
C1029 C 0.52737 0.93467 0.84027 0.0
C1030 C 0.54353 0.93636 0.8517 0.0
C1031 C 0.55928 0.95467 0.85649 0.0
C1032 C 0.55975 0.97095 0.84666 0.0
C1033 C 0.49656 0.96758 0.80344 0.0
O1034 O 0.47823 0.95814 0.8092 0.0
H1035 H 0.48128 0.93152 0.77787 0.0
H1036 H 0.50238 0.92206 0.75587 0.0
H1037 H 0.53806 0.9444 0.75428 0.0
H1038 H 0.58898 1.00081 0.81159 0.0
H1039 H 0.6281 0.06078 0.79878 0.0
H1040 H 0.57131 0.03408 0.76922 0.0
H1041 H 0.49204 0.02048 0.88003 0.0
H1042 H 0.51287 0.98257 0.86022 0.0
H1043 H 0.49205 0.00599 0.80676 0.0
H1044 H 0.56057 0.03874 0.86689 0.0
H1045 H 0.55673 0.06418 0.84596 0.0
H1046 H 0.54378 0.0586 0.80463 0.0
H1047 H 0.55077 1.00165 0.74333 0.0
H1048 H 0.50748 0.96902 0.69152 0.0
H1049 H 0.49389 0.99214 0.75277 0.0
H1050 H 0.51355 0.94938 0.82706 0.0
H1051 H 0.54303 0.9235 0.85862 0.0
H1052 H 0.57212 0.98504 0.84991 0.0
C1053 C 0.04612 0.54984 0.78625 0.0
C1054 C 0.06431 0.56056 0.77586 0.0
C1055 C 0.06916 0.57853 0.76543 0.0
C1056 C 0.05601 0.58545 0.76572 0.0
C1057 C 0.03816 0.57401 0.77658 0.0
N1058 N 0.0345 0.55728 0.78616 0.0
C1059 C 0.0216 0.57721 0.77808 0.0
C1060 C 0.9877 0.56228 0.79215 0.0
C1061 C 0.98804 0.57585 0.80807 0.0
C1062 C 0.97086 0.57489 0.81502 0.0
C1063 C 0.9533 0.56055 0.80591 0.0
C1064 C 0.95294 0.54742 0.78943 0.0
C1065 C 0.97009 0.54834 0.78247 0.0
Cd1066 Cd 0.02172 0.60868 0.7345 0.0
Cd1067 Cd 0.05833 0.61175 0.67419 0.0
C1068 C 0.01285 0.51204 0.82881 0.0
C1069 C 0.99256 0.4795 0.84422 0.0
C1070 C 0.99666 0.48694 0.86723 0.0
C1071 C 0.00908 0.50651 0.87134 0.0
C1072 C 0.01775 0.51898 0.85214 0.0
C1073 C 1.00061 0.49219 0.82489 0.0
Co1074 Co 0.01051 0.54214 0.79889 0.0
N1075 N 0.01668 0.555 0.82961 0.0
N1076 N 0.98636 0.52637 0.81128 0.0
C1077 C 0.98391 0.52912 0.83393 0.0
C1078 C 0.96691 0.51568 0.84523 0.0
C1079 C 0.95334 0.49961 0.83203 0.0
C1080 C 0.95709 0.49715 0.80824 0.0
C1081 C 0.97445 0.51117 0.79819 0.0
N1082 N 1.00037 0.52655 0.77039 0.0
N1083 N 0.00495 0.56179 0.78698 0.0
N1084 N 0.02013 0.52526 0.80917 0.0
O1085 O 0.03283 0.61413 0.6541 0.0
O1086 O 0.02489 0.6105 0.69126 0.0
C1087 C 0.98661 0.60948 0.74158 0.0
O1088 O 0.98715 0.59399 0.74408 0.0
O1089 O 1.00202 0.62418 0.7347 0.0
C1090 C 0.0618 0.6436 0.72063 0.0
O1091 O 0.05151 0.64176 0.73864 0.0
O1092 O 0.05738 0.6282 0.70962 0.0
C1093 C 1.00092 0.54567 0.84422 0.0
O1094 O 1.00146 0.55021 0.86667 0.0
O1095 O 0.02722 0.5834 0.71659 0.0
O1096 O 0.04295 0.5783 0.68803 0.0
C1097 C 0.98235 0.51135 0.77465 0.0
O1098 O 0.97234 0.49852 0.75835 0.0
C1099 C 0.00963 0.53028 0.74777 0.0
C1100 C 0.01286 0.54652 0.73512 0.0
C1101 C 0.02444 0.55238 0.71491 0.0
C1102 C 0.03052 0.54006 0.70541 0.0
C1103 C 0.02569 0.52244 0.71666 0.0
C1104 C 0.01565 0.51797 0.73836 0.0
C1105 C 0.02181 0.61399 0.67033 0.0
O1106 O 0.02348 0.59469 0.77337 0.0
C1107 C 0.03137 0.57207 0.70551 0.0
C1108 C 0.0332 0.57317 0.83601 0.0
C1109 C 0.05196 0.57624 0.83389 0.0
C1110 C 0.06763 0.59294 0.84289 0.0
C1111 C 0.06468 0.60627 0.85523 0.0
C1112 C 0.04592 0.60278 0.85879 0.0
C1113 C 0.03047 0.587 0.84788 0.0
C1114 C 0.03804 0.5316 0.79973 0.0
O1115 O 0.04843 0.52365 0.8053 0.0
H1116 H 0.07446 0.55539 0.77591 0.0
H1117 H 0.08309 0.58708 0.75715 0.0
H1118 H 0.05959 0.59905 0.75746 0.0
H1119 H 1.00149 0.58692 0.81543 0.0
H1120 H 0.94002 0.55983 0.81128 0.0
H1121 H 0.96958 0.53812 0.76965 0.0
H1122 H 0.99055 0.47733 0.88228 0.0
H1123 H 0.02778 0.53409 0.85533 0.0
H1124 H 0.99728 0.48675 0.80697 0.0
H1125 H 0.96437 0.51724 0.86368 0.0
H1126 H 0.94015 0.48889 0.84038 0.0
H1127 H 0.94698 0.48458 0.79831 0.0
H1128 H 0.00674 0.55495 0.74155 0.0
H1129 H 0.03932 0.54433 0.68959 0.0
H1130 H 0.01228 0.50491 0.74789 0.0
H1131 H 0.0546 0.56533 0.82694 0.0
H1132 H 0.07683 0.61845 0.86353 0.0
H1133 H 0.01603 0.58441 0.85091 0.0
C1134 C 0.45843 0.50258 0.78955 0.0
C1135 C 0.44683 0.50963 0.78066 0.0
C1136 C 0.42943 0.4965 0.76922 0.0
C1137 C 0.42385 0.47679 0.76721 0.0
C1138 C 0.43617 0.47079 0.77653 0.0
N1139 N 0.45255 0.48392 0.7867 0.0
C1140 C 0.43331 0.45114 0.77756 0.0
C1141 C 0.44886 0.43217 0.78968 0.0
C1142 C 0.43354 0.4159 0.80049 0.0
C1143 C 0.43431 0.39899 0.80345 0.0
C1144 C 0.45008 0.3979 0.79506 0.0
C1145 C 0.46497 0.41365 0.78336 0.0
C1146 C 0.46433 0.43066 0.7806 0.0
Cd1147 Cd 0.40006 0.41639 0.73653 0.0
Cd1148 Cd 0.40307 0.43446 0.69776 0.0
C1149 C 0.49667 0.50688 0.83131 0.0
C1150 C 0.5295 0.51846 0.84433 0.0
C1151 C 0.52322 0.51553 0.86783 0.0
C1152 C 0.50395 0.50894 0.87334 0.0
C1153 C 0.49063 0.50476 0.85504 0.0
C1154 C 0.51619 0.51422 0.82601 0.0
Co1155 Co 0.46737 0.4751 0.80075 0.0
N1156 N 0.45287 0.46767 0.83008 0.0
N1157 N 0.4826 0.46666 0.81476 0.0
C1158 C 0.47853 0.46091 0.83718 0.0
C1159 C 0.49135 0.45723 0.84986 0.0
C1160 C 0.5083 0.46034 0.8383 0.0
C1161 C 0.51226 0.46734 0.81478 0.0
C1162 C 0.49878 0.47076 0.80331 0.0
N1163 N 0.48503 0.48201 0.77411 0.0
N1164 N 0.44857 0.44992 0.78723 0.0
N1165 N 0.48289 0.50117 0.81253 0.0
O1166 O 0.4028 0.41121 0.67238 0.0
O1167 O 0.39069 0.39319 0.70397 0.0
C1168 C 0.39911 0.38491 0.76106 0.0
O1169 O 0.41012 0.39281 0.7434 0.0
O1170 O 0.38898 0.39217 0.7679 0.0
C1171 C 0.36154 0.42187 0.71429 0.0
O1172 O 0.36725 0.41412 0.72976 0.0
O1173 O 0.37321 0.43308 0.69882 0.0
C1174 C 0.46132 0.461 0.84576 0.0
O1175 O 0.45425 0.45474 0.867 0.0
O1176 O 0.43085 0.44593 0.72343 0.0
O1177 O 0.43183 0.46384 0.69325 0.0
C1178 C 0.50012 0.47939 0.77987 0.0
O1179 O 0.51373 0.48243 0.76463 0.0
C1180 C 0.48159 0.48612 0.75062 0.0
C1181 C 0.46703 0.47139 0.73788 0.0
C1182 C 0.45989 0.47524 0.7174 0.0
C1183 C 0.47025 0.49362 0.70695 0.0
C1184 C 0.48699 0.50826 0.71806 0.0
C1185 C 0.49206 0.50457 0.74064 0.0
C1186 C 0.39447 0.39479 0.68207 0.0
O1187 O 0.41574 0.43554 0.77315 0.0
C1188 C 0.44032 0.46065 0.71004 0.0
C1189 C 0.43332 0.46315 0.83302 0.0
C1190 C 0.42821 0.47749 0.83364 0.0
C1191 C 0.40925 0.47254 0.83887 0.0
C1192 C 0.39551 0.45344 0.84421 0.0
C1193 C 0.40077 0.4391 0.84447 0.0
C1194 C 0.41944 0.44412 0.83772 0.0
C1195 C 0.47586 0.51253 0.80433 0.0
O1196 O 0.48288 0.53044 0.81131 0.0
H1197 H 0.4508 0.52458 0.78286 0.0
H1198 H 0.42013 0.50153 0.76229 0.0
H1199 H 0.41039 0.46667 0.75884 0.0
H1200 H 0.42085 0.41604 0.80644 0.0
H1201 H 0.4506 0.38476 0.79725 0.0
H1202 H 0.47569 0.44236 0.77081 0.0
H1203 H 0.53357 0.51913 0.88205 0.0
H1204 H 0.47568 0.49978 0.85918 0.0
H1205 H 0.52093 0.51653 0.80775 0.0
H1206 H 0.48868 0.45263 0.86816 0.0
H1207 H 0.51857 0.4578 0.84773 0.0
H1208 H 0.52554 0.47037 0.80619 0.0
H1209 H 0.46032 0.45698 0.74501 0.0
H1210 H 0.46511 0.49666 0.69068 0.0
H1211 H 0.50415 0.51577 0.75029 0.0
H1212 H 0.43887 0.49245 0.83101 0.0
H1213 H 0.38125 0.45026 0.84944 0.0
H1214 H 0.42383 0.43342 0.83773 0.0
C1215 C 0.16605 0.37925 0.54183 0.0
C1216 C 0.17354 0.39815 0.54995 0.0
C1217 C 0.16085 0.40301 0.56136 0.0
C1218 C 0.14112 0.38919 0.56414 0.0
C1219 C 0.13465 0.37061 0.55552 0.0
N1220 N 0.14739 0.36681 0.5453 0.0
C1221 C 0.11492 0.35393 0.55559 0.0
C1222 C 0.09521 0.31921 0.54503 0.0
C1223 C 0.07865 0.31851 0.53544 0.0
C1224 C 0.06135 0.30102 0.53391 0.0
C1225 C 0.06025 0.28411 0.54231 0.0
C1226 C 0.07634 0.28477 0.55276 0.0
C1227 C 0.09368 0.30223 0.55426 0.0
Cd1228 Cd 0.08273 0.35262 0.60006 0.0
Cd1229 Cd 0.10909 0.37326 0.66926 0.0
C1230 C 0.16921 0.3442 0.50103 0.0
C1231 C 0.18276 0.32466 0.48744 0.0
C1232 C 0.17912 0.32768 0.46408 0.0
C1233 C 0.17134 0.33943 0.45885 0.0
C1234 C 0.16657 0.34789 0.47733 0.0
C1235 C 0.1778 0.33297 0.50602 0.0
Co1236 Co 0.13802 0.34274 0.53242 0.0
N1237 N 0.13027 0.34922 0.50296 0.0
N1238 N 0.12906 0.31867 0.5195 0.0
C1239 C 0.12291 0.3165 0.4972 0.0
C1240 C 0.11921 0.2998 0.48505 0.0
C1241 C 0.12269 0.2863 0.49698 0.0
C1242 C 0.13009 0.28987 0.5203 0.0
C1243 C 0.13353 0.30694 0.53124 0.0
N1244 N 0.14507 0.33256 0.55954 0.0
N1245 N 0.11321 0.33712 0.54642 0.0
N1246 N 0.1639 0.35254 0.51997 0.0
O1247 O 0.08001 0.3437 0.67947 0.0
O1248 O 0.08345 0.348 0.64161 0.0
C1249 C 0.04581 0.32072 0.58706 0.0
O1250 O 0.05926 0.31786 0.59405 0.0
O1251 O 0.04947 0.33807 0.58694 0.0
C1252 C 0.08591 0.39166 0.62774 0.0
O1253 O 0.08108 0.38265 0.60804 0.0
O1254 O 0.09391 0.38675 0.64363 0.0
C1255 C 0.12293 0.33365 0.48803 0.0
O1256 O 0.11633 0.33406 0.46684 0.0
O1257 O 0.11279 0.35504 0.61429 0.0
O1258 O 0.13003 0.36519 0.64724 0.0
C1259 C 0.14255 0.31479 0.55434 0.0
O1260 O 0.14608 0.30466 0.56981 0.0
C1261 C 0.15024 0.34108 0.58251 0.0
C1262 C 0.13657 0.34282 0.59546 0.0
C1263 C 0.14156 0.35368 0.61611 0.0
C1264 C 0.16004 0.36064 0.62568 0.0
C1265 C 0.17357 0.357 0.61428 0.0
C1266 C 0.16864 0.34764 0.59207 0.0
C1267 C 0.07259 0.33946 0.65901 0.0
O1268 O 0.0996 0.35594 0.56151 0.0
C1269 C 0.1274 0.3581 0.62659 0.0
C1270 C 0.12674 0.36486 0.4992 0.0
C1271 C 0.14183 0.38379 0.49628 0.0
C1272 C 0.13782 0.39815 0.48928 0.0
C1273 C 0.11889 0.39354 0.48437 0.0
C1274 C 0.10369 0.37436 0.48651 0.0
C1275 C 0.10786 0.36058 0.49548 0.0
C1276 C 0.17556 0.37109 0.52742 0.0
O1277 O 0.19336 0.38164 0.51986 0.0
H1278 H 0.18851 0.40887 0.54722 0.0
H1279 H 0.16623 0.41754 0.56774 0.0
H1280 H 0.13134 0.39295 0.57257 0.0
H1281 H 0.0789 0.33138 0.52928 0.0
H1282 H 0.04685 0.27059 0.54112 0.0
H1283 H 0.10563 0.30247 0.56329 0.0
H1284 H 0.18326 0.32158 0.44966 0.0
H1285 H 0.16102 0.35743 0.47334 0.0
H1286 H 0.18073 0.33091 0.52418 0.0
H1287 H 0.11437 0.29752 0.46685 0.0
H1288 H 0.12014 0.27334 0.48794 0.0
H1289 H 0.13342 0.27989 0.52914 0.0
H1290 H 0.12191 0.3358 0.5892 0.0
H1291 H 0.1639 0.36902 0.6418 0.0
H1292 H 0.17877 0.34511 0.58233 0.0
H1293 H 0.15663 0.38733 0.49838 0.0
H1294 H 0.11653 0.40479 0.47748 0.0
H1295 H 0.0966 0.34584 0.49773 0.0
C1296 C 0.62404 0.78708 0.53887 0.0
C1297 C 0.6054 0.77595 0.54794 0.0
C1298 C 0.60055 0.75819 0.55894 0.0
C1299 C 0.61413 0.75184 0.56047 0.0
C1300 C 0.63243 0.7637 0.55092 0.0
N1301 N 0.63616 0.7803 0.5409 0.0
C1302 C 0.64912 0.76069 0.55049 0.0
C1303 C 0.68364 0.77583 0.5393 0.0
C1304 C 0.68419 0.76086 0.52707 0.0
C1305 C 0.70152 0.76083 0.52468 0.0
C1306 C 0.71838 0.77561 0.53466 0.0
C1307 C 0.71786 0.79024 0.5474 0.0
C1308 C 0.70056 0.79031 0.54981 0.0
Cd1309 Cd 0.64919 0.72909 0.59409 0.0
Cd1310 Cd 0.61544 0.72765 0.65659 0.0
C1311 C 0.65954 0.827 0.49963 0.0
C1312 C 0.67958 0.86101 0.49024 0.0
C1313 C 0.67831 0.85634 0.46624 0.0
C1314 C 0.66778 0.83726 0.45841 0.0
C1315 C 0.65775 0.82258 0.47523 0.0
C1316 C 0.67014 0.84629 0.507 0.0
Co1317 Co 0.66037 0.79546 0.52867 0.0
N1318 N 0.65465 0.78228 0.49837 0.0
N1319 N 0.68466 0.81118 0.51663 0.0
C1320 C 0.68728 0.80834 0.49406 0.0
C1321 C 0.70409 0.82202 0.48264 0.0
C1322 C 0.71727 0.83847 0.49561 0.0
C1323 C 0.71328 0.84108 0.51924 0.0
C1324 C 0.69611 0.8268 0.52941 0.0
N1325 N 0.6699 0.81147 0.55687 0.0
N1326 N 0.66591 0.77603 0.54173 0.0
N1327 N 0.65063 0.8119 0.51702 0.0
O1328 O 0.6406 0.72372 0.6749 0.0
O1329 O 0.64764 0.72645 0.63741 0.0
C1330 C 0.68265 0.72606 0.58468 0.0
O1331 O 0.68424 0.74248 0.588 0.0
O1332 O 0.66589 0.71154 0.58662 0.0
C1333 C 0.60877 0.69483 0.60949 0.0
O1334 O 0.61856 0.69676 0.59097 0.0
O1335 O 0.61405 0.70998 0.62143 0.0
C1336 C 0.67044 0.79154 0.48385 0.0
O1337 O 0.67035 0.78606 0.46191 0.0
O1338 O 0.6454 0.7553 0.61164 0.0
O1339 O 0.63112 0.76083 0.64161 0.0
C1340 C 0.68781 0.82687 0.5526 0.0
O1341 O 0.69752 0.83997 0.56876 0.0
C1342 C 0.66083 0.80752 0.57964 0.0
C1343 C 0.65875 0.79183 0.59259 0.0
C1344 C 0.6481 0.7862 0.61354 0.0
C1345 C 0.64211 0.7984 0.62349 0.0
C1346 C 0.64544 0.81539 0.61168 0.0
C1347 C 0.65429 0.81938 0.58915 0.0
C1348 C 0.65086 0.72296 0.65829 0.0
O1349 O 0.64721 0.74328 0.55565 0.0
C1350 C 0.64185 0.76677 0.62333 0.0
C1351 C 0.63928 0.76313 0.4934 0.0
C1352 C 0.61998 0.75852 0.49416 0.0
C1353 C 0.60537 0.74011 0.48788 0.0
C1354 C 0.60994 0.72647 0.47966 0.0
C1355 C 0.62931 0.7314 0.47719 0.0
C1356 C 0.64373 0.7493 0.48543 0.0
C1357 C 0.63225 0.80513 0.52505 0.0
O1358 O 0.62198 0.81305 0.51879 0.0
H1359 H 0.59491 0.78063 0.54637 0.0
H1360 H 0.58625 0.74929 0.56614 0.0
H1361 H 0.61045 0.73829 0.56891 0.0
H1362 H 0.67128 0.74919 0.51942 0.0
H1363 H 0.73177 0.77556 0.53282 0.0
H1364 H 0.70036 0.80142 0.56033 0.0
H1365 H 0.68537 0.86788 0.45338 0.0
H1366 H 0.64908 0.80779 0.46948 0.0
H1367 H 0.67118 0.84975 0.52565 0.0
H1368 H 0.70671 0.82041 0.46424 0.0
H1369 H 0.73029 0.84941 0.48715 0.0
H1370 H 0.72299 0.854 0.52889 0.0
H1371 H 0.66516 0.78371 0.58605 0.0
H1372 H 0.63496 0.79457 0.64048 0.0
H1373 H 0.65607 0.83154 0.57878 0.0
H1374 H 0.61613 0.76922 0.49853 0.0
H1375 H 0.5984 0.71274 0.47351 0.0
H1376 H 0.65866 0.75304 0.48397 0.0
C1377 C 0.21606 0.83751 0.53869 0.0
C1378 C 0.22662 0.82955 0.54835 0.0
C1379 C 0.24377 0.84195 0.56077 0.0
C1380 C 0.25004 0.8618 0.56315 0.0
C1381 C 0.23875 0.86871 0.55298 0.0
N1382 N 0.22277 0.85634 0.54147 0.0
C1383 C 0.24182 0.88843 0.55335 0.0
C1384 C 0.22791 0.9086 0.54073 0.0
C1385 C 0.24377 0.92414 0.52961 0.0
C1386 C 0.24476 0.94199 0.52757 0.0
C1387 C 0.23005 0.94455 0.53675 0.0
C1388 C 0.21441 0.92929 0.54818 0.0
C1389 C 0.21335 0.91139 0.55022 0.0
Cd1390 Cd 0.27289 0.92109 0.59833 0.0
Cd1391 Cd 0.27019 0.89195 0.66251 0.0
C1392 C 0.17836 0.8348 0.49718 0.0
C1393 C 0.14532 0.8223 0.4841 0.0
C1394 C 0.15155 0.82444 0.46059 0.0
C1395 C 0.17088 0.83128 0.45512 0.0
C1396 C 0.18434 0.83639 0.47346 0.0
C1397 C 0.1588 0.82739 0.50246 0.0
Co1398 Co 0.20805 0.86585 0.52885 0.0
N1399 N 0.22232 0.87442 0.49916 0.0
N1400 N 0.19269 0.87483 0.51644 0.0
C1401 C 0.19594 0.88045 0.49391 0.0
C1402 C 0.18257 0.88383 0.48206 0.0
C1403 C 0.16592 0.88055 0.4945 0.0
C1404 C 0.16274 0.87357 0.51801 0.0
C1405 C 0.17672 0.87044 0.52861 0.0
N1406 N 0.19073 0.85814 0.55604 0.0
N1407 N 0.22705 0.89035 0.54345 0.0
N1408 N 0.19213 0.84011 0.51597 0.0
O1409 O 0.27212 0.9209 0.67849 0.0
O1410 O 0.27127 0.92052 0.64028 0.0
C1411 C 0.27716 0.95708 0.58236 0.0
O1412 O 0.26362 0.9465 0.59657 0.0
O1413 O 0.28864 0.95119 0.57674 0.0
C1414 C 0.31101 0.91695 0.62229 0.0
O1415 O 0.30475 0.92344 0.60591 0.0
O1416 O 0.30039 0.90712 0.63955 0.0
C1417 C 0.21284 0.88045 0.48417 0.0
O1418 O 0.21837 0.88567 0.46217 0.0
O1419 O 0.24456 0.89075 0.61002 0.0
O1420 O 0.23991 0.87253 0.64173 0.0
C1421 C 0.17576 0.86125 0.55148 0.0
O1422 O 0.16228 0.8576 0.56717 0.0
C1423 C 0.19402 0.8527 0.5789 0.0
C1424 C 0.20883 0.86653 0.59232 0.0
C1425 C 0.21494 0.86158 0.61284 0.0
C1426 C 0.20358 0.84297 0.62239 0.0
C1427 C 0.18671 0.82917 0.61054 0.0
C1428 C 0.1825 0.83406 0.5881 0.0
C1429 C 0.27445 0.92993 0.65925 0.0
O1430 O 0.25904 0.90363 0.55996 0.0
C1431 C 0.23391 0.87583 0.62246 0.0
C1432 C 0.24196 0.87942 0.49461 0.0
C1433 C 0.24783 0.86565 0.49582 0.0
C1434 C 0.26614 0.8702 0.48791 0.0
C1435 C 0.2784 0.88817 0.47771 0.0
C1436 C 0.27225 0.9017 0.4752 0.0
C1437 C 0.25472 0.8977 0.48527 0.0
C1438 C 0.19863 0.82822 0.52385 0.0
O1439 O 0.19104 0.81029 0.51667 0.0
H1440 H 0.22196 0.81442 0.54625 0.0
H1441 H 0.25222 0.8362 0.56845 0.0
H1442 H 0.2631 0.87128 0.57273 0.0
H1443 H 0.25542 0.92253 0.52263 0.0
H1444 H 0.23086 0.95839 0.53522 0.0
H1445 H 0.20144 0.89996 0.55975 0.0
H1446 H 0.14115 0.82021 0.44631 0.0
H1447 H 0.19932 0.84148 0.46938 0.0
H1448 H 0.15415 0.8256 0.52073 0.0
H1449 H 0.1846 0.88829 0.4637 0.0
H1450 H 0.15523 0.88283 0.4857 0.0
H1451 H 0.1496 0.87021 0.5272 0.0
H1452 H 0.21607 0.88126 0.58618 0.0
H1453 H 0.20773 0.83941 0.63906 0.0
H1454 H 0.17044 0.82351 0.57778 0.0
H1455 H 0.2381 0.85113 0.5015 0.0
H1456 H 0.29195 0.89084 0.4703 0.0
H1457 H 0.2502 0.90834 0.48386 0.0
C1458 C 0.15157 0.33228 0.42225 0.0
C1459 C 0.16933 0.34306 0.43371 0.0
C1460 C 0.15072 0.3313 0.3975 0.0
C1461 C 0.17914 0.35283 0.34245 0.0
H1462 H 0.148 0.30105 0.31786 0.0
C1463 C 0.18425 0.33634 0.24468 0.0
C1464 C 0.16643 0.32613 0.23317 0.0
C1465 C 0.1851 0.33701 0.26944 0.0
C1466 C 0.15671 0.3156 0.32442 0.0
H1467 H 0.19991 0.36197 0.42873 0.0
H1468 H 0.19852 0.36053 0.38565 0.0
H1469 H 0.1473 0.30695 0.36005 0.0
H1470 H 0.13575 0.30781 0.23803 0.0
H1471 H 0.13716 0.30868 0.28117 0.0
H1472 H 0.18857 0.36147 0.30684 0.0
C1473 C 0.18519 0.35294 0.3955 0.0
C1474 C 0.15619 0.31903 0.3486 0.0
C1475 C 0.18602 0.35385 0.42016 0.0
C1476 C 0.14966 0.31553 0.24664 0.0
C1477 C 0.1505 0.3161 0.27133 0.0
C1478 C 0.17968 0.34939 0.3183 0.0
C1479 C 0.16764 0.34107 0.38387 0.0
C1480 C 0.16739 0.33769 0.35792 0.0
C1481 C 0.16813 0.32747 0.28302 0.0
C1482 C 0.16846 0.33075 0.30897 0.0
H1483 H 0.13859 0.3236 0.43243 0.0
H1484 H 0.13692 0.32229 0.38909 0.0
H1485 H 0.18781 0.3674 0.34897 0.0
H1486 H 0.1973 0.34483 0.23458 0.0
H1487 H 0.19894 0.34564 0.27792 0.0
C1488 C 0.66632 0.8483 0.24125 0.0
C1489 C 0.67437 0.83875 0.22913 0.0
C1490 C 0.66623 0.84851 0.26613 0.0
C1491 C 0.65634 0.83523 0.31776 0.0
H1492 H 0.69806 0.83585 0.35314 0.0
C1493 C 0.65119 0.82195 0.41969 0.0
C1494 C 0.66811 0.8335 0.43261 0.0
C1495 C 0.65171 0.82145 0.39481 0.0
C1496 C 0.68629 0.83583 0.34371 0.0
H1497 H 0.6891 0.82252 0.23322 0.0
H1498 H 0.68894 0.82275 0.27614 0.0
H1499 H 0.70086 0.84034 0.31073 0.0
H1500 H 0.69898 0.85237 0.42965 0.0
H1501 H 0.69982 0.85219 0.387 0.0
H1502 H 0.64218 0.83161 0.35109 0.0
C1503 C 0.68293 0.83037 0.26686 0.0
C1504 C 0.68781 0.83816 0.31916 0.0
C1505 C 0.68304 0.8302 0.24218 0.0
C1506 C 0.68561 0.84356 0.42024 0.0
C1507 C 0.68611 0.84326 0.39561 0.0
C1508 C 0.65493 0.83314 0.34248 0.0
C1509 C 0.67418 0.83917 0.27929 0.0
C1510 C 0.67285 0.83781 0.30573 0.0
C1511 C 0.66916 0.83249 0.38238 0.0
C1512 C 0.66993 0.83348 0.35587 0.0
H1513 H 0.65928 0.85472 0.23154 0.0
H1514 H 0.65961 0.85568 0.27502 0.0
H1515 H 0.64436 0.83455 0.30808 0.0
H1516 H 0.63748 0.81401 0.42869 0.0
H1517 H 0.63839 0.81266 0.38533 0.0
C1518 C 0.16883 0.81563 0.41659 0.0
C1519 C 0.17619 0.8326 0.42993 0.0
C1520 C 0.16868 0.81637 0.39191 0.0
C1521 C 0.18661 0.84892 0.33967 0.0
H1522 H 0.13754 0.81128 0.31255 0.0
C1523 C 0.16911 0.85527 0.24301 0.0
C1524 C 0.16216 0.8384 0.22957 0.0
C1525 C 0.16908 0.85444 0.2677 0.0
C1526 C 0.15136 0.8218 0.3198 0.0
H1527 H 0.18998 0.86365 0.42825 0.0
H1528 H 0.1899 0.86508 0.38498 0.0
H1529 H 0.14341 0.81007 0.35469 0.0
H1530 H 0.14884 0.80738 0.2311 0.0
H1531 H 0.1485 0.80576 0.27436 0.0
H1532 H 0.19454 0.86067 0.30479 0.0
C1533 C 0.18442 0.85119 0.39349 0.0
C1534 C 0.15479 0.82106 0.34395 0.0
C1535 C 0.18461 0.85043 0.41825 0.0
C1536 C 0.15386 0.82052 0.24115 0.0
C1537 C 0.15384 0.81966 0.26591 0.0
C1538 C 0.18316 0.84968 0.31553 0.0
C1539 C 0.17571 0.8341 0.38008 0.0
C1540 C 0.17247 0.8346 0.35419 0.0
C1541 C 0.16224 0.83669 0.27942 0.0
C1542 C 0.16548 0.83615 0.3053 0.0
H1543 H 0.16211 0.80172 0.42532 0.0
H1544 H 0.16229 0.80297 0.38213 0.0
H1545 H 0.20044 0.85944 0.34691 0.0
H1546 H 0.1758 0.86923 0.23438 0.0
H1547 H 0.17527 0.86778 0.27757 0.0
C1548 C 0.82803 0.65198 0.5774 0.0
C1549 C 0.83974 0.66865 0.56423 0.0
C1550 C 0.82831 0.65269 0.60213 0.0
C1551 C 0.8394 0.68833 0.64956 0.0
H1552 H 0.8308 0.64608 0.69082 0.0
C1553 C 0.84549 0.69284 0.752 0.0
C1554 C 0.83292 0.67617 0.76468 0.0
C1555 C 0.84497 0.69278 0.72725 0.0
C1556 C 0.83293 0.6579 0.67948 0.0
H1557 H 0.86192 0.69865 0.56607 0.0
H1558 H 0.86306 0.69978 0.60924 0.0
H1559 H 0.83487 0.64368 0.64851 0.0
H1560 H 0.80904 0.647 0.76206 0.0
H1561 H 0.80773 0.64699 0.71888 0.0
H1562 H 0.83768 0.70262 0.68068 0.0
C1563 C 0.85321 0.68631 0.60066 0.0
C1564 C 0.83534 0.65655 0.65524 0.0
C1565 C 0.85279 0.68562 0.576 0.0
C1566 C 0.8188 0.66003 0.75252 0.0
C1567 C 0.81824 0.65996 0.72787 0.0
C1568 C 0.83709 0.68972 0.67385 0.0
C1569 C 0.84039 0.67009 0.61401 0.0
C1570 C 0.8386 0.67174 0.63996 0.0
C1571 C 0.8319 0.676 0.71496 0.0
C1572 C 0.83375 0.67449 0.68905 0.0
H1573 H 0.81769 0.63882 0.5686 0.0
H1574 H 0.8182 0.63994 0.61184 0.0
H1575 H 0.84147 0.70015 0.63826 0.0
H1576 H 0.85664 0.70533 0.76112 0.0
H1577 H 0.85569 0.70535 0.71778 0.0
C1578 C 0.34466 0.16194 0.7501 0.0
C1579 C 0.32918 0.16184 0.7617 0.0
C1580 C 0.34529 0.16176 0.72543 0.0
C1581 C 0.31725 0.15526 0.67047 0.0
H1582 H 0.36684 0.19408 0.64575 0.0
C1583 C 0.32557 0.17706 0.57282 0.0
C1584 C 0.3411 0.17735 0.56108 0.0
C1585 C 0.32489 0.17693 0.5975 0.0
C1586 C 0.35295 0.1831 0.65233 0.0
H1587 H 0.30173 0.1604 0.75709 0.0
H1588 H 0.30269 0.16004 0.71381 0.0
H1589 H 0.36301 0.18731 0.68807 0.0
H1590 H 0.36854 0.17876 0.56555 0.0
H1591 H 0.36754 0.1787 0.60883 0.0
H1592 H 0.3072 0.15107 0.63473 0.0
C1593 C 0.31428 0.16006 0.72367 0.0
C1594 C 0.35076 0.17912 0.67658 0.0
C1595 C 0.31365 0.16018 0.74841 0.0
C1596 C 0.35662 0.17892 0.57431 0.0
C1597 C 0.35594 0.17875 0.59906 0.0
C1598 C 0.31945 0.15925 0.64622 0.0
C1599 C 0.33051 0.16169 0.71192 0.0
C1600 C 0.33289 0.16515 0.68595 0.0
C1601 C 0.33966 0.1769 0.61091 0.0
C1602 C 0.33731 0.17326 0.63685 0.0
H1603 H 0.35685 0.16339 0.76011 0.0
H1604 H 0.35777 0.16258 0.71694 0.0
H1605 H 0.30336 0.14431 0.67707 0.0
H1606 H 0.31335 0.1756 0.56288 0.0
H1607 H 0.31236 0.17594 0.60608 0.0
C1608 C 0.83375 0.14828 0.75118 0.0
C1609 C 0.84144 0.16526 0.76454 0.0
C1610 C 0.83386 0.1491 0.72652 0.0
C1611 C 0.85367 0.18159 0.67471 0.0
H1612 H 0.80445 0.14564 0.64641 0.0
C1613 C 0.8379 0.18944 0.57789 0.0
C1614 C 0.83044 0.17259 0.56432 0.0
C1615 C 0.83781 0.18842 0.60253 0.0
C1616 C 0.8183 0.15567 0.65403 0.0
H1617 H 0.85584 0.19634 0.76299 0.0
H1618 H 0.8563 0.19793 0.71975 0.0
H1619 H 0.80932 0.14401 0.68877 0.0
H1620 H 0.81653 0.14152 0.56548 0.0
H1621 H 0.81603 0.13958 0.60871 0.0
H1622 H 0.86263 0.19328 0.63997 0.0
C1623 C 0.85039 0.18398 0.72824 0.0
C1624 C 0.82116 0.15469 0.67826 0.0
C1625 C 0.85028 0.18313 0.75296 0.0
C1626 C 0.82186 0.15463 0.57567 0.0
C1627 C 0.82175 0.15358 0.60038 0.0
C1628 C 0.85081 0.18258 0.65049 0.0
C1629 C 0.84153 0.16693 0.71479 0.0
C1630 C 0.83888 0.16763 0.68888 0.0
C1631 C 0.83038 0.17052 0.61402 0.0
C1632 C 0.83308 0.16967 0.63989 0.0
H1633 H 0.8267 0.13435 0.75986 0.0
H1634 H 0.82728 0.13574 0.71666 0.0
H1635 H 0.86753 0.19163 0.68231 0.0
H1636 H 0.84476 0.20344 0.56938 0.0
H1637 H 0.84423 0.20169 0.61256 0.0
C1638 C 0.51833 0.01805 0.91112 0.0
C1639 C 0.50762 1.00097 0.8982 0.0
C1640 C 0.5183 0.01772 0.93581 0.0
C1641 C 0.50525 0.98621 0.98876 0.0
H1642 H 0.49746 0.02589 0.01699 0.0
C1643 C 0.48771 0.9837 0.08753 0.0
C1644 C 0.4983 1.00099 0.1001 0.0
C1645 C 0.48749 0.9837 0.06283 0.0
C1646 C 0.49979 0.01482 0.00945 0.0
H1647 H 0.48953 0.97002 0.9008 0.0
H1648 H 0.48944 0.96934 0.94416 0.0
H1649 H 0.50168 0.02564 0.97434 0.0
H1650 H 0.51591 0.03195 0.09686 0.0
H1651 H 0.51556 0.03206 0.05355 0.0
H1652 H 0.50342 0.97542 0.02389 0.0
C1653 C 0.49792 0.98301 0.9352 0.0
C1654 C 0.50228 0.01469 0.98498 0.0
C1655 C 0.49802 0.98335 0.91039 0.0
C1656 C 0.5075 0.01845 0.08756 0.0
C1657 C 0.50735 0.01847 0.06276 0.0
C1658 C 0.50278 0.98635 0.01326 0.0
C1659 C 0.50746 1.0003 0.94818 0.0
C1660 C 0.50511 1.00043 0.97432 0.0
C1661 C 0.49793 1.001 0.05011 0.0
C1662 C 0.50001 1.00065 0.02392 0.0
H1663 H 0.52597 0.0318 0.90207 0.0
H1664 H 0.52623 0.03123 0.94522 0.0
H1665 H 0.50757 0.97514 0.98119 0.0
H1666 H 0.48039 0.97005 0.09685 0.0
H1667 H 0.47966 0.97005 0.0537 0.0
C1668 C 0.98152 0.49356 0.0829 0.0
C1669 C 0.99674 0.49494 0.0966 0.0
C1670 C 0.98273 0.49407 0.05816 0.0
C1671 C 0.02027 0.51366 0.01189 0.0
H1672 H 0.97715 0.48729 0.96898 0.0
C1673 C 0.02693 0.51362 0.90948 0.0
C1674 C 0.01197 0.51316 0.8961 0.0
C1675 C 0.02614 0.51345 0.93425 0.0
C1676 C 0.98929 0.49499 0.98077 0.0
H1677 H 0.02452 0.49671 0.09559 0.0
H1678 H 0.0264 0.49686 0.05246 0.0
H1679 H 0.97252 0.47987 0.01113 0.0
H1680 H 0.98512 0.5133 0.8977 0.0
H1681 H 0.98389 0.51348 0.9409 0.0
H1682 H 0.03706 0.52866 0.98143 0.0
C1683 C 0.01371 0.49582 0.06063 0.0
C1684 C 0.98665 0.49066 0.00494 0.0
C1685 C 0.01252 0.4954 0.0853 0.0
C1686 C 0.99695 0.51395 0.90773 0.0
C1687 C 0.99611 0.51373 0.93242 0.0
C1688 C 0.02293 0.51794 0.9877 0.0
C1689 C 0.99923 0.49603 0.04676 0.0
C1690 C 1.0021 0.49994 0.02084 0.0
C1691 C 0.01025 0.51261 0.94596 0.0
C1692 C 0.00746 0.5087 0.97185 0.0
H1693 H 0.9694 0.49358 0.0913 0.0
H1694 H 0.97133 0.49426 0.04809 0.0
H1695 H 0.03243 0.52143 0.02365 0.0
H1696 H 0.03843 0.51259 0.90083 0.0
H1697 H 0.03724 0.51255 0.94414 0.0
C1698 C 0.50249 0.4819 0.08548 0.0
C1699 C 0.50959 0.4988 0.09891 0.0
C1700 C 0.50298 0.48279 0.06081 0.0
C1701 C 0.52221 0.51566 0.00898 0.0
H1702 H 0.47351 0.47858 0.98053 0.0
C1703 C 0.50576 0.52367 0.9124 0.0
C1704 C 0.49857 0.50701 0.89851 0.0
C1705 C 0.50577 0.52239 0.93703 0.0
C1706 C 0.48724 0.48893 0.98815 0.0
H1707 H 0.52367 0.52988 0.09746 0.0
H1708 H 0.52465 0.53157 0.05419 0.0
H1709 H 0.4786 0.47687 0.02278 0.0
H1710 H 0.48503 0.47595 0.89912 0.0
H1711 H 0.48484 0.47357 0.94234 0.0
H1712 H 0.53081 0.52776 0.97434 0.0
C1713 C 0.51887 0.51762 0.06263 0.0
C1714 C 0.49022 0.48791 0.01236 0.0
C1715 C 0.51844 0.51671 0.08739 0.0
C1716 C 0.49026 0.48893 0.90957 0.0
C1717 C 0.4903 0.48763 0.93428 0.0
C1718 C 0.51922 0.51669 0.98477 0.0
C1719 C 0.51041 0.5006 0.04908 0.0
C1720 C 0.50774 0.50127 0.02309 0.0
C1721 C 0.49876 0.50442 0.94823 0.0
C1722 C 0.50166 0.5034 0.97408 0.0
H1723 H 0.49548 0.46793 0.09409 0.0
H1724 H 0.49677 0.46945 0.05092 0.0
H1725 H 0.53593 0.52604 0.0166 0.0
H1726 H 0.51243 0.53776 0.90414 0.0
H1727 H 0.51201 0.53556 0.94727 0.0
C1728 C 0.32292 0.28176 0.34363 0.0
C1729 C 0.33993 0.28827 0.33062 0.0
C1730 C 0.30961 0.28732 0.33694 0.0
C1731 C 0.30006 0.31616 0.29234 0.0
H1732 H 0.25645 0.26611 0.27738 0.0
C1733 C 0.25564 0.30109 0.20659 0.0
C1734 C 0.23589 0.28744 0.20755 0.0
C1735 C 0.26731 0.30433 0.22645 0.0
C1736 C 0.2682 0.28032 0.28172 0.0
H1737 H 0.35791 0.30772 0.303 0.0
H1738 H 0.33475 0.31718 0.29107 0.0
H1739 H 0.27847 0.2687 0.30807 0.0
H1740 H 0.21275 0.26719 0.23022 0.0
H1741 H 0.23285 0.27293 0.26462 0.0
H1742 H 0.29003 0.32754 0.26497 0.0
C1743 C 0.33141 0.30777 0.30627 0.0
C1744 C 0.28081 0.28183 0.29955 0.0
C1745 C 0.34453 0.30206 0.31277 0.0
C1746 C 0.22804 0.27728 0.22867 0.0
C1747 C 0.23956 0.2807 0.24848 0.0
C1748 C 0.28728 0.31467 0.27452 0.0
C1749 C 0.31332 0.29949 0.31725 0.0
C1750 C 0.29733 0.29958 0.30434 0.0
C1751 C 0.25934 0.29416 0.24764 0.0
C1752 C 0.27161 0.29658 0.26845 0.0
H1753 H 0.31927 0.27132 0.35771 0.0
H1754 H 0.29584 0.28092 0.3459 0.0
H1755 H 0.31266 0.33005 0.2958 0.0
H1756 H 0.26197 0.30931 0.19059 0.0
H1757 H 0.28257 0.3146 0.22512 0.0
C1758 C 0.69372 0.02953 0.33616 0.0
C1759 C 0.71077 0.03395 0.34815 0.0
C1760 C 0.68792 0.01716 0.31675 0.0
C1761 C 0.71388 0.00707 0.27202 0.0
H1762 H 0.66387 0.97253 0.24488 0.0
C1763 C 0.71194 0.97293 0.18526 0.0
C1764 C 0.70131 0.9528 0.18743 0.0
C1765 C 0.70834 0.98445 0.20053 0.0
C1766 C 0.67792 0.98232 0.2522 0.0
H1767 H 0.73341 0.027 0.3523 0.0
H1768 H 0.72269 0.00448 0.31925 0.0
H1769 H 0.66595 0.98514 0.28484 0.0
H1770 H 0.67742 0.92901 0.20599 0.0
H1771 H 0.67144 0.94881 0.23222 0.0
H1772 H 0.72606 0.00364 0.24039 0.0
C1773 C 0.71433 0.01121 0.32395 0.0
C1774 C 0.67909 0.98945 0.27505 0.0
C1775 C 0.72039 0.02391 0.3429 0.0
C1776 C 0.68584 0.94446 0.2035 0.0
C1777 C 0.68229 0.9559 0.21865 0.0
C1778 C 0.71274 0.99991 0.24942 0.0
C1779 C 0.69904 0.00901 0.30956 0.0
C1780 C 0.69715 1.00141 0.28538 0.0
C1781 C 0.69424 0.97595 0.21833 0.0
C1782 C 0.6948 0.98702 0.23947 0.0
H1783 H 0.6861 0.03717 0.34013 0.0
H1784 H 0.67596 0.01555 0.30612 0.0
H1785 H 0.72801 0.01688 0.27916 0.0
H1786 H 0.72365 0.97974 0.17268 0.0
H1787 H 0.71751 0.99995 0.19954 0.0
C1788 C 0.97356 0.67385 0.33412 0.0
C1789 C 0.95476 0.6698 0.32902 0.0
C1790 C 0.98727 0.67991 0.31617 0.0
C1791 C 0.99076 0.68127 0.25075 0.0
H1792 H 0.04183 0.72461 0.26168 0.0
C1793 C 0.03412 0.74145 0.18541 0.0
C1794 C 0.05428 0.75103 0.18669 0.0
C1795 C 0.0231 0.72539 0.1997 0.0
C1796 C 0.0278 0.71215 0.25841 0.0
H1797 H 0.93573 0.67004 0.30201 0.0
H1798 H 0.95991 0.68167 0.27091 0.0
H1799 H 0.02049 0.70945 0.29501 0.0
H1800 H 0.07862 0.75027 0.20296 0.0
H1801 H 0.05942 0.72214 0.22681 0.0
H1802 H 0.99772 0.68508 0.21385 0.0
C1803 C 0.96385 0.6792 0.28836 0.0
C1804 C 0.01556 0.70349 0.27753 0.0
C1805 C 0.95009 0.67281 0.30616 0.0
C1806 C 0.06314 0.74322 0.20102 0.0
C1807 C 0.05217 0.72712 0.21496 0.0
C1808 C 0.00294 0.69009 0.23157 0.0
C1809 C 0.98239 0.68226 0.29301 0.0
C1810 C 0.99662 0.68861 0.27371 0.0
C1811 C 0.03215 0.71872 0.21536 0.0
C1812 C 0.02121 0.70614 0.23522 0.0
H1813 H 0.97739 0.6715 0.35171 0.0
H1814 H 1.00149 0.68227 0.32027 0.0
H1815 H 0.97639 0.66937 0.24745 0.0
H1816 H 0.02688 0.74687 0.17428 0.0
H1817 H 0.00761 0.71917 0.19983 0.0
C1818 C 0.74894 0.70364 0.79014 0.0
C1819 C 0.76853 0.71788 0.78955 0.0
C1820 C 0.73714 0.70074 0.77048 0.0
C1821 C 0.73516 0.72617 0.71703 0.0
H1822 H 0.69313 0.67589 0.69929 0.0
C1823 C 0.68179 0.72332 0.65129 0.0
C1824 C 0.66405 0.71566 0.66298 0.0
C1825 C 0.6955 0.71864 0.65911 0.0
C1826 C 0.70505 0.68997 0.70381 0.0
H1827 H 0.7912 0.73967 0.76766 0.0
H1828 H 0.77089 0.7346 0.73371 0.0
H1829 H 0.7154 0.67849 0.73073 0.0
H1830 H 0.64541 0.69507 0.68926 0.0
H1831 H 0.66922 0.68701 0.70301 0.0
H1832 H 0.7246 0.73778 0.69099 0.0
C1833 C 0.7644 0.72603 0.74942 0.0
C1834 C 0.71761 0.69149 0.72198 0.0
C1835 C 0.77604 0.72905 0.76902 0.0
C1836 C 0.65928 0.70159 0.68052 0.0
C1837 C 0.67281 0.69671 0.68808 0.0
C1838 C 0.7228 0.72463 0.69884 0.0
C1839 C 0.74482 0.71192 0.74988 0.0
C1840 C 0.73246 0.7097 0.72922 0.0
C1841 C 0.69145 0.70614 0.67852 0.0
C1842 C 0.70723 0.70662 0.69259 0.0
H1843 H 0.74281 0.69468 0.80568 0.0
H1844 H 0.72203 0.68992 0.77151 0.0
H1845 H 0.74621 0.74045 0.72234 0.0
H1846 H 0.68559 0.73399 0.63745 0.0
H1847 H 0.70972 0.72592 0.65125 0.0
C1848 C 0.27347 0.96025 0.66163 0.0
C1849 C 0.28416 0.9509 0.65943 0.0
C1850 C 0.2824 0.9792 0.66982 0.0
C1851 C 0.31585 0.00261 0.71541 0.0
H1852 H 0.30344 0.04307 0.70578 0.0
C1853 C 0.29382 0.03706 0.78872 0.0
C1854 C 0.30178 0.05711 0.78824 0.0
C1855 C 0.29813 0.02789 0.77071 0.0
C1856 C 0.30734 0.03207 0.70853 0.0
H1857 H 0.31254 0.95403 0.66128 0.0
H1858 H 0.32815 0.98713 0.67607 0.0
H1859 H 0.30027 0.02189 0.67284 0.0
H1860 H 0.32055 0.08334 0.76879 0.0
H1861 H 0.32774 0.06723 0.73727 0.0
H1862 H 0.32134 0.01172 0.75156 0.0
C1863 C 0.31304 0.98002 0.67133 0.0
C1864 C 0.30555 0.02003 0.68972 0.0
C1865 C 0.30414 0.96117 0.66292 0.0
C1866 C 0.31441 0.06786 0.76978 0.0
C1867 C 0.31847 0.0587 0.75168 0.0
C1868 C 0.3173 0.0144 0.73428 0.0
C1869 C 0.30197 0.9887 0.67627 0.0
C1870 C 0.30908 0.00474 0.69328 0.0
C1871 C 0.31016 0.03864 0.75182 0.0
C1872 C 0.31234 0.02872 0.73117 0.0
H1873 H 0.25801 0.9524 0.6591 0.0
H1874 H 0.27353 0.98555 0.67361 0.0
H1875 H 0.31846 0.99078 0.7187 0.0
H1876 H 0.28406 0.02851 0.80275 0.0
H1877 H 0.29139 0.01232 0.77098 0.0
C1878 C 0.96854 0.2606 0.7868 0.0
C1879 C 0.94841 0.24925 0.7877 0.0
C1880 C 0.97734 0.27431 0.76885 0.0
C1881 C 0.97003 0.2792 0.7077 0.0
H1882 H 0.01531 0.3297 0.71432 0.0
C1883 C 0.04115 0.30948 0.66123 0.0
C1884 C 0.0517 0.32928 0.65678 0.0
C1885 C 0.02209 0.30112 0.66879 0.0
C1886 C 1.00233 0.31587 0.71205 0.0
H1887 H 0.9217 0.2437 0.77089 0.0
H1888 H 0.93712 0.26744 0.73965 0.0
H1889 H 0.99532 0.31388 0.7489 0.0
H1890 H 0.05058 0.35564 0.65399 0.0
H1891 H 0.01743 0.34118 0.66831 0.0
H1892 H 0.97824 0.28037 0.67138 0.0
C1893 C 0.94603 0.26591 0.75294 0.0
C1894 C 0.99107 0.30678 0.73188 0.0
C1895 C 0.93726 0.2524 0.77092 0.0
C1896 C 0.04248 0.34024 0.65719 0.0
C1897 C 0.02359 0.33202 0.66535 0.0
C1898 C 0.98153 0.28813 0.68797 0.0
C1899 C 0.96611 0.27662 0.75141 0.0
C1900 C 0.97533 0.28806 0.73001 0.0
C1901 C 0.01376 0.31271 0.67269 0.0
C1902 C 0.99822 0.30616 0.69027 0.0
H1903 H 0.97744 0.2585 0.79954 0.0
H1904 H 0.99291 0.28231 0.76782 0.0
H1905 H 0.95794 0.26471 0.7059 0.0
H1906 H 0.04816 0.30091 0.66118 0.0
H1907 H 0.0148 0.28621 0.6745 0.0
C1908 C 0.9901 0.6122 0.67621 0.0
C1909 C 0.00821 0.62072 0.6653 0.0
C1910 C 0.97617 0.61645 0.66804 0.0
C1911 C 0.96666 0.64563 0.62409 0.0
H1912 H 0.92627 0.59533 0.60374 0.0
C1913 C 0.92287 0.63358 0.53798 0.0
C1914 C 0.90328 0.61932 0.53845 0.0
C1915 C 0.93475 0.63601 0.55738 0.0
C1916 C 0.93713 0.60954 0.60955 0.0
H1917 H 0.0271 0.64222 0.64001 0.0
H1918 H 0.00291 0.64952 0.62562 0.0
H1919 H 0.9478 0.59762 0.63506 0.0
H1920 H 0.88075 0.59691 0.55989 0.0
H1921 H 0.90124 0.60112 0.59337 0.0
H1922 H 0.95621 0.65744 0.59775 0.0
C1923 C 0.99922 0.6395 0.64023 0.0
C1924 C 0.94942 0.61085 0.62772 0.0
C1925 C 0.01298 0.63508 0.64816 0.0
C1926 C 0.89589 0.60758 0.55859 0.0
C1927 C 0.90764 0.61011 0.57793 0.0
C1928 C 0.95418 0.64433 0.60594 0.0
C1929 C 0.98035 0.62935 0.64903 0.0
C1930 C 0.96468 0.62884 0.63468 0.0
C1931 C 0.92719 0.62431 0.57761 0.0
C1932 C 0.9396 0.6262 0.59807 0.0
H1933 H 0.98627 0.60126 0.68971 0.0
H1934 H 0.96177 0.60862 0.67533 0.0
H1935 H 0.97833 0.65969 0.62917 0.0
H1936 H 0.92893 0.64294 0.52274 0.0
H1937 H 0.94984 0.6469 0.55647 0.0
C1938 C 0.39821 0.37786 0.64807 0.0
C1939 C 0.38724 0.37766 0.66736 0.0
C1940 C 0.38986 0.36382 0.63078 0.0
C1941 C 0.35363 0.31739 0.61358 0.0
H1942 H 0.36227 0.34242 0.55223 0.0
C1943 C 0.34859 0.27536 0.5327 0.0
C1944 C 0.36649 0.28407 0.52084 0.0
C1945 C 0.34344 0.28617 0.54683 0.0
C1946 C 0.35943 0.33519 0.5692 0.0
H1947 H 0.35967 0.362 0.68522 0.0
H1948 H 0.34484 0.33722 0.65437 0.0
H1949 H 0.36858 0.36133 0.5883 0.0
H1950 H 0.39195 0.31141 0.51271 0.0
H1951 H 0.38353 0.33015 0.53885 0.0
H1952 H 0.34597 0.29156 0.59471 0.0
C1953 C 0.35983 0.3483 0.65277 0.0
C1954 C 0.36301 0.34595 0.58974 0.0
C1955 C 0.36832 0.36232 0.67033 0.0
C1956 C 0.37833 0.30416 0.522 0.0
C1957 C 0.37331 0.31495 0.53663 0.0
C1958 C 0.35005 0.3066 0.59301 0.0
C1959 C 0.37038 0.34962 0.63242 0.0
C1960 C 0.36123 0.3373 0.61192 0.0
C1961 C 0.35626 0.3058 0.55007 0.0
C1962 C 0.35404 0.31569 0.57069 0.0
H1963 H 0.41294 0.38941 0.6458 0.0
H1964 H 0.39834 0.3646 0.61547 0.0
H1965 H 0.35214 0.31053 0.6306 0.0
H1966 H 0.33904 0.25992 0.5328 0.0
H1967 H 0.33013 0.27885 0.55679 0.0
C1968 C 0.62895 0.02994 0.66833 0.0
C1969 C 0.61985 0.01049 0.67475 0.0
C1970 C 0.64814 0.03933 0.66113 0.0
C1971 C 0.67161 0.02551 0.62188 0.0
H1972 H 0.71253 0.07874 0.62579 0.0
C1973 C 0.70378 0.07789 0.54381 0.0
C1974 C 0.7238 0.09015 0.54321 0.0
C1975 C 0.69529 0.065 0.56264 0.0
C1976 C 0.70144 0.06372 0.62468 0.0
H1977 H 0.62362 0.98593 0.68113 0.0
H1978 H 0.65705 0.00214 0.66734 0.0
H1979 H 0.69186 0.06342 0.66015 0.0
H1980 H 0.75067 0.09831 0.56148 0.0
H1981 H 0.73573 0.0761 0.59441 0.0
H1982 H 0.67988 0.02644 0.58564 0.0
C1983 C 0.64963 0.01028 0.66856 0.0
C1984 C 0.68973 0.05499 0.64432 0.0
C1985 C 0.63058 1.00107 0.67644 0.0
C1986 C 0.7352 0.08885 0.5613 0.0
C1987 C 0.72671 0.07622 0.58019 0.0
C1988 C 0.68305 0.03437 0.60209 0.0
C1989 C 0.6581 0.02909 0.65952 0.0
C1990 C 0.67423 0.03609 0.64271 0.0
C1991 C 0.70669 0.0645 0.58127 0.0
C1992 C 0.69751 0.05377 0.6031 0.0
H1993 H 0.62076 0.0373 0.66672 0.0
H1994 H 0.65434 0.0538 0.65404 0.0
H1995 H 0.65956 0.01098 0.62014 0.0
H1996 H 0.69473 0.07862 0.53008 0.0
H1997 H 0.67974 0.05619 0.56331 0.0
C1998 C 0.34372 0.03649 0.9932 0.0
C1999 C 0.34372 0.0538 0.99711 0.0
C2000 C 0.34926 0.02842 0.01132 0.0
C2001 C 0.35138 0.02923 0.07589 0.0
H2002 H 0.38991 0.01389 0.06984 0.0
C2003 C 0.40834 0.0435 0.14368 0.0
C2004 C 0.41687 0.03189 0.14409 0.0
C2005 C 0.39249 0.03861 0.12914 0.0
C2006 C 0.37866 0.01753 0.0718 0.0
H2007 H 0.35125 0.07732 0.02142 0.0
H2008 H 0.36177 0.0637 0.0527 0.0
H2009 H 0.37735 0.02105 0.03442 0.0
H2010 H 0.41396 0.00489 0.13105 0.0
H2011 H 0.38611 0.99626 0.10701 0.0
H2012 H 0.35367 0.02703 0.11332 0.0
C2013 C 0.35664 0.05591 0.0362 0.0
C2014 C 0.37158 0.0217 0.05149 0.0
C2015 C 0.35088 0.06379 0.01832 0.0
C2016 C 0.40787 0.01426 0.13166 0.0
C2017 C 0.3919 0.00926 0.11755 0.0
C2018 C 0.35849 0.02513 0.09618 0.0
C2019 C 0.35495 0.03773 0.03327 0.0
C2020 C 0.35877 0.02869 0.05358 0.0
C2021 C 0.38486 0.02197 0.115 0.0
C2022 C 0.37297 0.0203 0.09432 0.0
H2023 H 0.33816 0.02858 0.97685 0.0
H2024 H 0.34815 0.01451 0.00863 0.0
H2025 H 0.34103 0.03409 0.07774 0.0
H2026 H 0.41458 0.0569 0.15343 0.0
H2027 H 0.38732 0.04873 0.12746 0.0
C2028 C 0.98455 0.39333 0.12349 0.0
C2029 C 0.96933 0.38538 0.13991 0.0
C2030 C 0.9884 0.38152 0.10942 0.0
C2031 C 0.9587 0.33597 0.08155 0.0
H2032 H 0.00537 0.35143 0.04551 0.0
C2033 C 0.95106 0.31251 0.98773 0.0
C2034 C 0.96097 0.30287 0.9819 0.0
C2035 C 0.95686 0.32475 0.00713 0.0
C2036 C 0.99228 0.34689 0.05551 0.0
H2037 H 0.94769 0.35888 0.15635 0.0
H2038 H 0.9543 0.33799 0.13132 0.0
H2039 H 0.0075 0.36473 0.08506 0.0
H2040 H 0.98593 0.29999 0.98942 0.0
H2041 H 0.99569 0.3209 0.0241 0.0
H2042 H 0.94346 0.31818 0.05232 0.0
C2043 C 0.96308 0.35347 0.12927 0.0
C2044 C 0.99347 0.35441 0.07812 0.0
C2045 C 0.95919 0.36537 0.14346 0.0
C2046 C 0.97806 0.3073 0.99382 0.0
C2047 C 0.98364 0.31924 0.01363 0.0
C2048 C 0.95755 0.3284 0.05919 0.0
C2049 C 0.97697 0.36145 0.11117 0.0
C2050 C 0.9766 0.34961 0.09094 0.0
C2051 C 0.97225 0.32695 0.0213 0.0
C2052 C 0.97422 0.33439 0.04556 0.0
H2053 H 0.99255 0.40866 0.11993 0.0
H2054 H 0.99904 0.38823 0.09555 0.0
H2055 H 0.94539 0.33206 0.09069 0.0
H2056 H 0.93803 0.30946 0.97838 0.0
H2057 H 0.9483 0.33117 0.01222 0.0
C2058 C 0.61019 0.59558 0.13037 0.0
C2059 C 0.61855 0.58559 0.14119 0.0
C2060 C 0.62094 0.61124 0.11568 0.0
C2061 C 0.66897 0.64166 0.08882 0.0
H2062 H 0.63989 0.62542 0.0301 0.0
C2063 C 0.70217 0.64132 0.00279 0.0
C2064 C 0.70635 0.65737 0.98872 0.0
C2065 C 0.68831 0.63549 0.02039 0.0
C2066 C 0.64797 0.63046 0.04643 0.0
H2067 H 0.64556 0.58614 0.1472 0.0
H2068 H 0.66399 0.61258 0.11988 0.0
H2069 H 0.62337 0.61296 0.06767 0.0
H2070 H 0.69792 0.67854 0.97991 0.0
H2071 H 0.67358 0.66824 0.01122 0.0
H2072 H 0.69381 0.65789 0.06708 0.0
C2073 C 0.64913 0.60842 0.12332 0.0
C2074 C 0.63861 0.62345 0.06796 0.0
C2075 C 0.63845 0.59298 0.13862 0.0
C2076 C 0.69503 0.6662 0.99073 0.0
C2077 C 0.68119 0.6604 0.00854 0.0
C2078 C 0.6783 0.64864 0.06729 0.0
C2079 C 0.6401 0.61689 0.11071 0.0
C2080 C 0.64919 0.62832 0.08925 0.0
C2081 C 0.67854 0.64564 0.02405 0.0
C2082 C 0.66793 0.6424 0.04606 0.0
H2083 H 0.59494 0.59053 0.13132 0.0
H2084 H 0.61377 0.61779 0.10652 0.0
H2085 H 0.67738 0.64574 0.10496 0.0
H2086 H 0.71047 0.63408 0.00122 0.0
H2087 H 0.68614 0.62388 0.03219 0.0
C2088 C 0.67983 0.96815 0.97865 0.0
C2089 C 0.67506 0.95449 0.99671 0.0
C2090 C 0.66727 0.9747 0.97261 0.0
C2091 C 0.61615 0.95181 0.96897 0.0
H2092 H 0.62833 0.9974 0.93207 0.0
C2093 C 0.56416 0.94889 0.89823 0.0
C2094 C 0.57233 0.95723 0.87633 0.0
C2095 C 0.57565 0.95276 0.91818 0.0
C2096 C 0.62472 0.98459 0.94233 0.0
H2097 H 0.65459 0.93837 0.02426 0.0
H2098 H 0.63228 0.94971 0.01365 0.0
H2099 H 0.65101 0.99885 0.96214 0.0
H2100 H 0.59884 0.97667 0.85816 0.0
H2101 H 0.61935 0.98262 0.893 0.0
H2102 H 0.59066 0.93712 0.94836 0.0
C2103 C 0.64573 0.95532 0.00409 0.0
C2104 C 0.63758 0.98547 0.95968 0.0
C2105 C 0.65844 0.94884 0.01021 0.0
C2106 C 0.59229 0.96977 0.87478 0.0
C2107 C 0.60392 0.97342 0.89479 0.0
C2108 C 0.6034 0.95093 0.95169 0.0
C2109 C 0.64955 0.96747 0.98433 0.0
C2110 C 0.63384 0.9688 0.97232 0.0
C2111 C 0.59568 0.96484 0.91669 0.0
C2112 C 0.60789 0.96705 0.93749 0.0
H2113 H 0.69288 0.9731 0.96839 0.0
H2114 H 0.67071 0.984 0.95729 0.0
H2115 H 0.61288 0.93861 0.97807 0.0
H2116 H 0.54872 0.93978 0.90013 0.0
H2117 H 0.56878 0.94629 0.93483 0.0
C2118 C 0.04425 0.60675 0.90167 0.0
C2119 C 0.04177 0.61181 0.87872 0.0
C2120 C 0.0391 0.6137 0.92118 0.0
C2121 C 0.01321 0.63867 0.94041 0.0
H2122 H 0.05637 0.66453 0.98349 0.0
C2123 C 0.03796 0.71207 0.97549 0.0
C2124 C 0.04976 0.71913 0.99553 0.0
C2125 C 0.02963 0.69278 0.96931 0.0
C2126 C 0.04379 0.65689 0.97233 0.0
H2127 H 0.03108 0.62706 0.85772 0.0
H2128 H 0.02298 0.64033 0.89214 0.0
H2129 H 0.05608 0.64203 0.955 0.0
H2130 H 0.06071 0.71139 0.0261 0.0
H2131 H 0.04638 0.6774 0.01507 0.0
H2132 H 1.00143 0.65441 0.95713 0.0
C2133 C 0.02856 0.63066 0.89501 0.0
C2134 C 0.0437 0.64404 0.95579 0.0
C2135 C 0.03349 0.62343 0.87539 0.0
C2136 C 0.0519 0.70628 0.01038 0.0
C2137 C 0.04365 0.68686 0.00408 0.0
C2138 C 0.01318 0.6514 0.95721 0.0
C2139 C 0.03154 0.626 0.9181 0.0
C2140 C 0.02899 0.63571 0.9388 0.0
C2141 C 0.03307 0.68011 0.98292 0.0
C2142 C 0.02916 0.66166 0.9722 0.0
H2143 H 0.04998 0.59719 0.90448 0.0
H2144 H 0.04128 0.60965 0.93872 0.0
H2145 H 1.00144 0.632 0.92788 0.0
H2146 H 0.03561 0.7216 0.9641 0.0
H2147 H 0.02174 0.68826 0.95281 0.0
C2148 C 0.30583 0.33983 0.00028 0.0
C2149 C 0.28712 0.33626 0.99572 0.0
C2150 C 0.3194 0.34616 0.98214 0.0
C2151 C 0.32259 0.34956 0.91667 0.0
H2152 H 0.37444 0.3911 0.92872 0.0
C2153 C 0.36805 0.41071 0.85329 0.0
C2154 C 0.38818 0.41981 0.85502 0.0
C2155 C 0.35649 0.39438 0.86692 0.0
C2156 C 0.36017 0.37913 0.92508 0.0
H2157 H 0.26807 0.33756 0.96959 0.0
H2158 H 0.29207 0.34978 0.9382 0.0
H2159 H 0.35288 0.37557 0.9617 0.0
H2160 H 0.41183 0.41774 0.87125 0.0
H2161 H 0.39171 0.38908 0.89372 0.0
H2162 H 0.32963 0.35425 0.87982 0.0
C2163 C 0.29603 0.34671 0.95531 0.0
C2164 C 0.34779 0.37026 0.94403 0.0
C2165 C 0.28238 0.33999 0.97327 0.0
C2166 C 0.39642 0.41115 0.86896 0.0
C2167 C 0.38491 0.39473 0.88214 0.0
C2168 C 0.33492 0.3586 0.89768 0.0
C2169 C 0.31449 0.34933 0.95936 0.0
C2170 C 0.32862 0.35602 0.93991 0.0
C2171 C 0.36494 0.38688 0.8823 0.0
C2172 C 0.35353 0.374 0.90173 0.0
H2173 H 0.30968 0.33689 0.01755 0.0
H2174 H 0.33352 0.3481 0.98581 0.0
H2175 H 0.30803 0.33815 0.91308 0.0
H2176 H 0.36124 0.41672 0.84238 0.0
H2177 H 0.34105 0.38858 0.8668 0.0
C2178 C 0.02859 0.39579 0.33649 0.0
C2179 C 0.0132 0.38359 0.32181 0.0
C2180 C 0.03438 0.38805 0.35454 0.0
C2181 C 0.03959 0.35237 0.38083 0.0
H2182 H 0.02495 0.36742 0.43905 0.0
C2183 C 0.07436 0.34949 0.465 0.0
C2184 C 0.08449 0.36787 0.47562 0.0
C2185 C 0.05878 0.34471 0.45026 0.0
C2186 C 0.02887 0.36286 0.423 0.0
H2187 H 0.99315 0.35382 0.31254 0.0
H2188 H 0.00336 0.34026 0.34467 0.0
H2189 H 0.01297 0.37179 0.40107 0.0
H2190 H 0.08424 0.39454 0.48125 0.0
H2191 H 0.05794 0.38672 0.45387 0.0
H2192 H 0.05678 0.34494 0.40224 0.0
C2193 C 0.01073 0.35573 0.34209 0.0
C2194 C 0.02199 0.36527 0.40141 0.0
C2195 C 0.00499 0.36349 0.32383 0.0
C2196 C 0.0773 0.38055 0.47282 0.0
C2197 C 0.06193 0.3759 0.45747 0.0
C2198 C 0.04653 0.35 0.40241 0.0
C2199 C 0.02481 0.36808 0.3581 0.0
C2200 C 0.02801 0.3608 0.38028 0.0
C2201 C 0.05333 0.35835 0.44505 0.0
C2202 C 0.04192 0.35606 0.42359 0.0
H2203 H 0.03537 0.41132 0.33491 0.0
H2204 H 0.0455 0.39768 0.36668 0.0
H2205 H 0.04442 0.34902 0.36456 0.0
H2206 H 0.07926 0.33916 0.46615 0.0
H2207 H 0.05211 0.33093 0.44127 0.0
C2208 C 0.64862 0.72937 0.44409 0.0
C2209 C 0.63461 0.71992 0.46178 0.0
C2210 C 0.65056 0.71897 0.42571 0.0
C2211 C 0.61874 0.6754 0.39373 0.0
H2212 H 0.66443 0.68473 0.3594 0.0
C2213 C 0.60774 0.62533 0.32105 0.0
C2214 C 0.61822 0.61615 0.32647 0.0
C2215 C 0.61427 0.64405 0.32912 0.0
C2216 C 0.65154 0.68217 0.36866 0.0
H2217 H 0.61339 0.69209 0.47573 0.0
H2218 H 0.61695 0.67376 0.44359 0.0
H2219 H 0.66771 0.70273 0.39566 0.0
H2220 H 0.64469 0.61961 0.34106 0.0
H2221 H 0.6558 0.65181 0.35587 0.0
H2222 H 0.60251 0.65424 0.36793 0.0
C2223 C 0.626 0.6893 0.44367 0.0
C2224 C 0.65343 0.69238 0.38944 0.0
C2225 C 0.62398 0.69973 0.46205 0.0
C2226 C 0.63634 0.62652 0.33712 0.0
C2227 C 0.64279 0.64508 0.34533 0.0
C2228 C 0.61685 0.66521 0.37315 0.0
C2229 C 0.63852 0.69896 0.42467 0.0
C2230 C 0.63702 0.68861 0.40252 0.0
C2231 C 0.631 0.65335 0.3432 0.0
C2232 C 0.63322 0.668 0.36074 0.0
H2233 H 0.65698 0.74494 0.44323 0.0
H2234 H 0.66033 0.72678 0.41135 0.0
H2235 H 0.6058 0.67269 0.40298 0.0
H2236 H 0.59373 0.61747 0.31271 0.0
H2237 H 0.60519 0.65035 0.32662 0.0
C2238 C 0.27066 0.9209 0.44142 0.0
C2239 C 0.28188 0.91798 0.45835 0.0
C2240 C 0.27936 0.93415 0.42315 0.0
C2241 C 0.32438 0.97474 0.40142 0.0
H2242 H 0.31144 0.9475 0.3415 0.0
C2243 C 0.37564 0.00714 0.32604 0.0
C2244 C 0.38453 0.9959 0.32505 0.0
C2245 C 0.35693 0.99922 0.3348 0.0
C2246 C 0.31479 0.95548 0.35792 0.0
H2247 H 0.31095 0.92744 0.47015 0.0
H2248 H 0.32629 0.95084 0.43801 0.0
H2249 H 0.2912 0.93232 0.37619 0.0
H2250 H 0.38059 0.96735 0.32925 0.0
H2251 H 0.34756 0.95318 0.34367 0.0
H2252 H 0.34861 0.99741 0.38355 0.0
C2253 C 0.31072 0.94284 0.43912 0.0
C2254 C 0.3033 0.94684 0.37775 0.0
C2255 C 0.302 0.92937 0.45733 0.0
C2256 C 0.37381 0.97613 0.32971 0.0
C2257 C 0.35494 0.96808 0.33791 0.0
C2258 C 0.33564 0.98354 0.38149 0.0
C2259 C 0.29944 0.94486 0.4215 0.0
C2260 C 0.30862 0.956 0.39988 0.0
C2261 C 0.34696 0.97992 0.3422 0.0
C2262 C 0.3315 0.97354 0.35992 0.0
H2263 H 0.25511 0.91215 0.44146 0.0
H2264 H 0.27041 0.93546 0.40974 0.0
H2265 H 0.32864 0.98208 0.41829 0.0
H2266 H 0.38387 0.02252 0.32271 0.0
H2267 H 0.35105 0.00858 0.33802 0.0
C2268 C 0.30026 0.17312 0.94313 0.0
C2269 C 0.30902 0.16422 0.95537 0.0
C2270 C 0.29465 0.18482 0.9551 0.0
C2271 C 0.30244 0.21247 0.01105 0.0
H2272 H 0.2544 0.20962 0.99335 0.0
C2273 C 0.27803 0.26524 0.04696 0.0
C2274 C 0.25814 0.25814 0.0494 0.0
C2275 C 0.28484 0.25358 0.03744 0.0
C2276 C 0.26776 0.21048 -0.0012 0.0
H2277 H 0.31905 0.16106 0.98985 0.0
H2278 H 0.30891 0.18102 0.01072 0.0
H2279 H 0.26484 0.18993 0.97267 0.0
H2280 H 0.22995 0.23284 0.04534 0.0
H2281 H 0.24174 0.21238 0.02981 0.0
H2282 H 0.30508 0.23274 0.03759 0.0
C2283 C 0.30652 0.17914 0.99182 0.0
C2284 C 0.27392 0.19936 0.9866 0.0
C2285 C 0.31211 0.16744 0.97986 0.0
C2286 C 0.24535 0.23879 0.04361 0.0
C2287 C 0.25214 0.22712 0.03437 0.0
C2288 C 0.29624 0.2236 0.02332 0.0
C2289 C 0.29768 0.18799 0.97964 0.0
C2290 C 0.29133 0.20015 0.99254 0.0
C2291 C 0.27192 0.23451 0.0303 0.0
C2292 C 0.27874 0.22269 0.01745 0.0
H2293 H 0.29751 0.17087 0.92431 0.0
H2294 H 0.28808 0.19153 0.94503 0.0
H2295 H 0.31605 0.21367 0.01597 0.0
H2296 H 0.28827 0.28016 0.05094 0.0
H2297 H 0.30017 0.25986 0.03453 0.0
C2298 C 0.85241 0.13978 0.97249 0.0
C2299 C 0.84453 0.14821 0.95766 0.0
C2300 C 0.84057 0.12226 0.984 0.0
C2301 C 0.78937 0.08788 0.00093 0.0
H2302 H 0.80862 0.05234 0.00729 0.0
C2303 C 0.74632 0.01401 0.05024 0.0
C2304 C 0.74651 0.99825 0.03959 0.0
C2305 C 0.75862 0.03292 0.04209 0.0
C2306 C 0.80289 0.06198 0.00558 0.0
H2307 H 0.81769 0.14463 0.94376 0.0
H2308 H 0.79715 0.11375 0.96304 0.0
H2309 H 0.82854 0.0834 0.98865 0.0
H2310 H 0.76011 0.9902 0.01226 0.0
H2311 H 0.7812 0.02269 -0.00181 0.0
H2312 H 0.76333 0.06593 0.01705 0.0
C2313 C 0.81253 0.12088 0.96614 0.0
C2314 C 0.8145 0.08002 0.99513 0.0
C2315 C 0.82438 0.13852 0.95473 0.0
C2316 C 0.75963 1.00194 0.02109 0.0
C2317 C 0.77185 0.0207 0.01302 0.0
C2318 C 0.77767 0.0697 0.01132 0.0
C2319 C 0.82045 0.11243 0.9809 0.0
C2320 C 0.80795 0.09327 0.99253 0.0
C2321 C 0.77146 0.0365 0.02319 0.0
C2322 C 0.78421 0.05641 0.0136 0.0
H2323 H 0.86782 0.14659 0.97505 0.0
H2324 H 0.84728 0.11647 0.99547 0.0
H2325 H 0.78385 0.09771 -0.00044 0.0
H2326 H 0.73623 0.01171 0.0643 0.0
H2327 H 0.75799 0.0447 0.05052 0.0
C2328 C 0.85944 0.68923 0.97864 0.0
C2329 C 0.85827 0.69432 0.9551 0.0
C2330 C 0.87734 0.6953 0.98934 0.0
C2331 C 0.92786 0.73365 0.98633 0.0
H2332 H 0.93877 0.6989 0.02221 0.0
C2333 C 0.00502 0.75625 0.01562 0.0
C2334 C 0.0083 0.74917 0.03688 0.0
C2335 C 0.98636 0.7496 0.0072 0.0
C2336 C 0.93591 0.70892 0.01263 0.0
H2337 H 0.875 0.70974 0.92433 0.0
H2338 H 0.9063 0.72057 0.94311 0.0
H2339 H 0.90705 0.68685 0.00417 0.0
H2340 H 0.99419 0.72958 0.06615 0.0
H2341 H 0.96141 0.71836 0.05182 0.0
H2342 H 0.95635 0.75582 0.99505 0.0
C2343 C 0.89333 0.71181 0.95326 0.0
C2344 C 0.91772 0.70195 0.00216 0.0
C2345 C 0.87542 0.70549 0.94244 0.0
C2346 C 0.99224 0.73551 0.04983 0.0
C2347 C 0.97342 0.72889 0.04142 0.0
C2348 C 0.94589 0.74067 0.99701 0.0
C2349 C 0.89451 0.70686 0.97688 0.0
C2350 C 0.91359 0.7142 0.98861 0.0
C2351 C 0.97022 0.73575 0.01984 0.0
C2352 C 0.95035 0.72837 0.01003 0.0
H2353 H 0.84647 0.6805 0.9888 0.0
H2354 H 0.87774 0.69132 0.00757 0.0
H2355 H 0.92501 0.74356 0.97643 0.0
H2356 H 0.01695 0.76662 0.00496 0.0
H2357 H 0.98469 0.75499 0.99031 0.0
C2358 C 0.70193 0.82825 0.0522 0.0
C2359 C 0.6974 0.84007 0.03835 0.0
C2360 C 0.70755 0.81604 0.04162 0.0
C2361 C 0.70998 0.7953 0.98279 0.0
H2362 H 0.74593 0.78522 0.01689 0.0
C2363 C 0.73244 0.74052 0.94959 0.0
C2364 C 0.75038 0.74314 0.95675 0.0
C2365 C 0.7261 0.75296 0.95768 0.0
C2366 C 0.73617 0.78811 0.00678 0.0
H2367 H 0.69484 0.84763 0.00209 0.0
H2368 H 0.70595 0.82767 0.98395 0.0
H2369 H 0.73494 0.80536 0.03461 0.0
H2370 H 0.77628 0.76153 0.97654 0.0
H2371 H 0.76599 0.78395 0.98919 0.0
H2372 H 0.71214 0.77887 0.95438 0.0
C2373 C 0.70464 0.82731 0.00301 0.0
C2374 C 0.72945 0.7994 0.01729 0.0
C2375 C 0.69861 0.83918 0.01356 0.0
C2376 C 0.76238 0.75917 0.97074 0.0
C2377 C 0.75627 0.77183 0.97835 0.0
C2378 C 0.71701 0.78428 0.97206 0.0
C2379 C 0.70925 0.81554 0.01684 0.0
C2380 C 0.71621 0.80319 0.00554 0.0
C2381 C 0.73771 0.7685 0.9728 0.0
C2382 C 0.73027 0.78052 0.98387 0.0
H2383 H 0.70143 0.82854 0.07131 0.0
H2384 H 0.71052 0.80697 0.05302 0.0
H2385 H 0.69954 0.79748 0.97319 0.0
H2386 H 0.72273 0.72806 0.93917 0.0
H2387 H 0.71168 0.74971 0.95306 0.0
C2388 C 0.24171 0.99978 0.95697 0.0
C2389 C 0.26009 0.00528 0.94805 0.0
C2390 C 0.22976 0.98115 0.96552 0.0
C2391 C 0.22324 0.93171 0.9693 0.0
H2392 H 0.19525 0.92954 0.02618 0.0
C2393 C 0.16762 0.85939 0.01194 0.0
C2394 C 0.16556 0.85829 0.03671 0.0
C2395 C 0.17941 0.877 0.00069 0.0
C2396 C 0.20313 0.92984 0.0105 0.0
H2397 H 0.27999 0.99523 0.94005 0.0
H2398 H 0.25924 0.96267 0.95532 0.0
H2399 H 0.21496 0.96018 0.00653 0.0
H2400 H 0.17459 0.8751 0.06902 0.0
H2401 H 0.1958 0.90562 0.04954 0.0
H2402 H 0.21201 0.90143 0.97393 0.0
C2403 C 0.2539 0.97269 0.9554 0.0
C2404 C 0.21421 0.94744 -0.00109 0.0
C2405 C 0.2658 0.99135 0.94652 0.0
C2406 C 0.17591 0.87529 0.04996 0.0
C2407 C 0.1879 0.8929 0.0387 0.0
C2408 C 0.21228 0.91409 0.98105 0.0
C2409 C 0.23598 0.96755 0.96575 0.0
C2410 C 0.22427 0.94863 0.978 0.0
C2411 C 0.18972 0.89403 0.01388 0.0
C2412 C 0.20196 0.91289 0.00174 0.0
H2413 H 0.23687 0.01018 0.9583 0.0
H2414 H 0.21584 0.9776 0.97264 0.0
H2415 H 0.23071 0.932 0.95324 0.0
H2416 H 0.16017 0.84659 0.00113 0.0
H2417 H 0.18018 0.87725 0.98157 0.0
C2418 C 0.01496 0.27171 0.94403 0.0
C2419 C 0.99891 0.25664 0.95551 0.0
C2420 C 0.03377 0.27758 0.95195 0.0
C2421 C 0.06178 0.26223 0.99068 0.0
H2422 H 0.09768 0.317 0.99604 0.0
C2423 C 0.1385 0.29069 0.02815 0.0
C2424 C 0.14686 0.30759 0.04189 0.0
C2425 C 0.12118 0.28466 0.016 0.0
C2426 C 0.0878 0.30164 0.99488 0.0
H2427 H 0.99015 0.23543 0.98358 0.0
H2428 H 0.02248 0.2454 0.99712 0.0
H2429 H 0.06657 0.30581 0.97688 0.0
H2430 H 0.14309 0.33124 0.05362 0.0
H2431 H 0.11251 0.3203 0.03335 0.0
H2432 H 0.08245 0.25795 0.00954 0.0
C2433 C 0.02081 0.25273 0.98197 0.0
C2434 C 0.07002 0.29521 0.9835 0.0
C2435 C 1.00216 0.247 0.9742 0.0
C2436 C 0.13709 0.31806 0.04345 0.0
C2437 C 0.11964 0.31193 0.03144 0.0
C2438 C 0.07944 0.26864 0.00214 0.0
C2439 C 0.03692 0.26837 0.97136 0.0
C2440 C 0.05664 0.27538 0.98148 0.0
C2441 C 0.11144 0.29517 0.01741 0.0
C2442 C 0.09271 0.28845 0.00461 0.0
H2443 H 0.01297 0.27964 0.92983 0.0
H2444 H 0.0458 0.28955 0.94315 0.0
H2445 H 0.05205 0.24686 0.98924 0.0
H2446 H 0.14527 0.28196 0.02675 0.0
H2447 H 0.11558 0.27182 0.00524 0.0
C2448 C 0.97507 0.49794 0.31585 0.0
C2449 C 0.97369 0.49619 0.29104 0.0
C2450 C 0.96978 0.5099 0.32775 0.0
C2451 C 0.94119 0.53447 0.31971 0.0
H2452 H 0.96805 0.56207 0.37637 0.0
C2453 C 0.91109 0.57278 0.37552 0.0
C2454 C 0.92404 0.59149 0.38354 0.0
C2455 C 0.91776 0.56097 0.36652 0.0
C2456 C 0.96047 0.55457 0.3605 0.0
H2457 H 0.96548 0.50579 0.25944 0.0
H2458 H 0.9571 0.52715 0.27998 0.0
H2459 H 0.97898 0.54278 0.35516 0.0
H2460 H 0.95421 0.61202 0.38958 0.0
H2461 H 0.96593 0.59135 0.37375 0.0
H2462 H 0.92309 0.54666 0.3245 0.0
C2463 C 0.96189 0.51896 0.29037 0.0
C2464 C 0.9666 0.5433 0.34844 0.0
C2465 C 0.96699 0.50687 0.27849 0.0
C2466 C 0.94383 0.59763 0.38375 0.0
C2467 C 0.95055 0.58578 0.37457 0.0
C2468 C 0.93515 0.54576 0.33166 0.0
C2469 C 0.9631 0.52059 0.3152 0.0
C2470 C 0.95698 0.533 0.32792 0.0
C2471 C 0.9376 0.56755 0.36506 0.0
C2472 C 0.94454 0.55582 0.35236 0.0
H2473 H 0.98046 0.49024 0.32617 0.0
H2474 H 0.97071 0.51053 0.34687 0.0
H2475 H 0.93322 0.52664 0.30419 0.0
H2476 H 0.89575 0.56752 0.37522 0.0
H2477 H 0.90731 0.54683 0.36003 0.0
C2478 C 0.41445 0.33095 0.34872 0.0
C2479 C 0.40928 0.32831 0.37279 0.0
C2480 C 0.42594 0.34946 0.33931 0.0
C2481 C 0.46162 0.3994 0.35544 0.0
H2482 H 0.44834 0.41194 0.29454 0.0
C2483 C 0.50429 0.47615 0.31486 0.0
C2484 C 0.50751 0.47764 0.29028 0.0
C2485 C 0.49194 0.45832 0.32544 0.0
C2486 C 0.45243 0.40864 0.31143 0.0
H2487 H 0.41229 0.3432 0.40583 0.0
H2488 H 0.43275 0.37556 0.3895 0.0
H2489 H 0.42764 0.3803 0.31208 0.0
H2490 H 0.50047 0.4613 0.25768 0.0
H2491 H 0.4791 0.43025 0.27607 0.0
H2492 H 0.48659 0.42757 0.35465 0.0
C2493 C 0.42786 0.36323 0.37792 0.0
C2494 C 0.4405 0.39048 0.32152 0.0
C2495 C 0.41613 0.34469 0.38728 0.0
C2496 C 0.49812 0.46078 0.27659 0.0
C2497 C 0.4858 0.44294 0.28717 0.0
C2498 C 0.47363 0.41753 0.34528 0.0
C2499 C 0.43277 0.36586 0.35375 0.0
C2500 C 0.44503 0.38555 0.34356 0.0
C2501 C 0.48247 0.44144 0.31175 0.0
C2502 C 0.46931 0.42235 0.32301 0.0
H2503 H 0.40927 0.3187 0.33694 0.0
H2504 H 0.42959 0.35092 0.3207 0.0
H2505 H 0.46563 0.39603 0.37233 0.0
H2506 H 0.51102 0.48887 0.32591 0.0
H2507 H 0.48955 0.45785 0.34433 0.0
C2508 C 0.53877 0.05018 0.29842 0.0
C2509 C 0.5277 0.03104 0.29068 0.0
C2510 C 0.55642 0.05638 0.30977 0.0
C2511 C 0.5828 0.04043 0.34659 0.0
H2512 H 0.62892 0.08399 0.32119 0.0
C2513 C 0.65906 0.06158 0.38114 0.0
C2514 C 0.67412 0.08057 0.37796 0.0
C2515 C 0.64054 0.05589 0.37266 0.0
C2516 C 0.61621 0.0721 0.32903 0.0
H2517 H 0.52616 0.00332 0.28895 0.0
H2518 H 0.5569 0.01407 0.3094 0.0
H2519 H 0.59812 0.07346 0.302 0.0
H2520 H 0.68157 0.10876 0.36468 0.0
H2521 H 0.64905 0.09946 0.35183 0.0
H2522 H 0.60053 0.03935 0.37414 0.0
C2523 C 0.55199 0.02428 0.30642 0.0
C2524 C 0.59856 0.06597 0.31777 0.0
C2525 C 0.53454 0.01819 0.29459 0.0
C2526 C 0.67011 0.09407 0.36755 0.0
C2527 C 0.6515 0.08856 0.35973 0.0
C2528 C 0.60041 0.04684 0.35824 0.0
C2529 C 0.5631 0.04344 0.31407 0.0
C2530 C 0.58172 0.05001 0.32633 0.0
C2531 C 0.63657 0.06919 0.36122 0.0
C2532 C 0.61747 0.06275 0.34958 0.0
H2533 H 0.53378 0.06034 0.29561 0.0
H2534 H 0.56473 0.07122 0.31556 0.0
H2535 H 0.56995 0.02815 0.35364 0.0
H2536 H 0.66193 0.05077 0.38852 0.0
H2537 H 0.62971 0.0408 0.37395 0.0
C2538 C 0.40319 0.07627 0.28441 0.0
C2539 C 0.41565 0.07345 0.29935 0.0
C2540 C 0.39629 0.0886 0.29119 0.0
C2541 C 0.38647 0.10796 0.34491 0.0
H2542 H 0.38808 0.14807 0.30489 0.0
C2543 C 0.37418 0.16724 0.38367 0.0
C2544 C 0.36468 0.17455 0.36991 0.0
C2545 C 0.37956 0.15462 0.37385 0.0
C2546 C 0.38721 0.13675 0.31622 0.0
H2547 H 0.43115 0.08212 0.33272 0.0
H2548 H 0.41914 0.10326 0.34435 0.0
H2549 H 0.39862 0.12644 0.2892 0.0
H2550 H 0.35322 0.17427 0.33511 0.0
H2551 H 0.36217 0.15187 0.31803 0.0
H2552 H 0.37488 0.11787 0.37182 0.0
C2553 C 0.41452 0.09584 0.32756 0.0
C2554 C 0.3933 0.12439 0.30719 0.0
C2555 C 0.42152 0.08376 0.32075 0.0
C2556 C 0.36073 0.16902 0.34607 0.0
C2557 C 0.36591 0.15621 0.33628 0.0
C2558 C 0.3802 0.12013 0.35383 0.0
C2559 C 0.40156 0.09814 0.31314 0.0
C2560 C 0.39339 0.11013 0.32162 0.0
C2561 C 0.37536 0.14876 0.35006 0.0
C2562 C 0.38085 0.13499 0.33982 0.0
H2563 H 0.39828 0.06849 0.26788 0.0
H2564 H 0.38631 0.09013 0.2797 0.0
H2565 H 0.38601 0.09686 0.35633 0.0
H2566 H 0.37764 0.17144 0.40202 0.0
H2567 H 0.38721 0.14963 0.38493 0.0
C2568 C 0.82048 0.19789 0.35645 0.0
C2569 C 0.82794 0.18921 0.37157 0.0
C2570 C 0.83274 0.21542 0.34506 0.0
C2571 C 0.88138 0.25833 0.34988 0.0
H2572 H 0.87365 0.2675 0.28444 0.0
C2573 C 0.93764 0.3267 0.30243 0.0
C2574 C 0.93116 0.33652 0.28788 0.0
C2575 C 0.92496 0.30805 0.31042 0.0
C2576 C 0.87591 0.26526 0.30279 0.0
H2577 H 0.85439 0.19211 0.38588 0.0
H2578 H 0.87561 0.22263 0.3664 0.0
H2579 H 0.8516 0.23653 0.30304 0.0
H2580 H 0.90644 0.33446 0.26977 0.0
H2581 H 0.88395 0.30167 0.28397 0.0
H2582 H 0.90542 0.28697 0.34994 0.0
C2583 C 0.86024 0.21604 0.36358 0.0
C2584 C 0.86326 0.24749 0.31347 0.0
C2585 C 0.84802 0.19851 0.37485 0.0
C2586 C 0.91182 0.32704 0.28069 0.0
C2587 C 0.89898 0.30829 0.28889 0.0
C2588 C 0.89393 0.27605 0.33929 0.0
C2589 C 0.85279 0.22478 0.34859 0.0
C2590 C 0.86592 0.24375 0.33712 0.0
C2591 C 0.90531 0.29876 0.30444 0.0
C2592 C 0.89152 0.27977 0.31553 0.0
H2593 H 0.80511 0.19134 0.35367 0.0
H2594 H 0.82647 0.22183 0.33388 0.0
H2595 H 0.88367 0.25616 0.36825 0.0
H2596 H 0.9525 0.33377 0.30829 0.0
H2597 H 0.93054 0.30108 0.3218 0.0
C2598 C 0.68116 0.6051 0.28061 0.0
C2599 C 0.66537 0.58954 0.29188 0.0
C2600 C 0.70007 0.61169 0.28871 0.0
C2601 C 0.72876 0.59702 0.32713 0.0
H2602 H 0.76485 0.65183 0.33095 0.0
C2603 C 0.80595 0.62558 0.36253 0.0
C2604 C 0.81457 0.64261 0.37602 0.0
C2605 C 0.7885 0.61956 0.35072 0.0
C2606 C 0.75491 0.63647 0.33023 0.0
H2607 H 0.65732 0.56856 0.32021 0.0
H2608 H 0.6897 0.58003 0.33427 0.0
H2609 H 0.73337 0.64042 0.31267 0.0
H2610 H 0.81119 0.66652 0.38765 0.0
H2611 H 0.78038 0.65559 0.36796 0.0
H2612 H 0.74971 0.59295 0.34559 0.0
C2613 C 0.68777 0.58704 0.31897 0.0
C2614 C 0.73691 0.6299 0.31937 0.0
C2615 C 0.66904 0.58049 0.31092 0.0
C2616 C 0.80496 0.65324 0.37766 0.0
C2617 C 0.78738 0.64711 0.36599 0.0
C2618 C 0.74661 0.60356 0.33811 0.0
C2619 C 0.7036 0.60284 0.30819 0.0
C2620 C 0.72347 0.61005 0.31791 0.0
C2621 C 0.77889 0.63019 0.35225 0.0
C2622 C 0.75996 0.62338 0.33999 0.0
H2623 H 0.67889 0.61256 0.26607 0.0
H2624 H 0.71189 0.6238 0.27981 0.0
H2625 H 0.71902 0.58163 0.32606 0.0
H2626 H 0.81261 0.61676 0.36108 0.0
H2627 H 0.78267 0.6066 0.34015 0.0
C2628 C 0.62425 0.82195 0.63889 0.0
C2629 C 0.63967 0.82878 0.62275 0.0
C2630 C 0.61947 0.83456 0.65003 0.0
C2631 C 0.63769 0.88748 0.65993 0.0
H2632 H 0.58462 0.86863 0.67819 0.0
C2633 C 0.60135 0.93361 0.67401 0.0
C2634 C 0.59333 0.93244 0.69648 0.0
C2635 C 0.6083 0.92135 0.66784 0.0
C2636 C 0.59954 0.87399 0.67344 0.0
H2637 H 0.662 0.85478 0.6058 0.0
H2638 H 0.65257 0.87626 0.62331 0.0
H2639 H 0.59361 0.84658 0.6606 0.0
H2640 H 0.58651 0.91769 0.73025 0.0
H2641 H 0.59786 0.89532 0.71888 0.0
H2642 H 0.64301 0.91529 0.67127 0.0
C2643 C 0.64466 0.86122 0.62834 0.0
C2644 C 0.60481 0.86135 0.66342 0.0
C2645 C 0.64983 0.84868 0.61774 0.0
C2646 C 0.59254 0.91881 0.7128 0.0
C2647 C 0.59901 0.90608 0.70632 0.0
C2648 C 0.63227 0.9002 0.66937 0.0
C2649 C 0.62949 0.85443 0.64486 0.0
C2650 C 0.62398 0.86787 0.65633 0.0
C2651 C 0.60696 0.90731 0.68378 0.0
C2652 C 0.61314 0.89357 0.67613 0.0
H2653 H 0.61562 0.80677 0.643 0.0
H2654 H 0.60793 0.8286 0.66287 0.0
H2655 H 0.65268 0.89314 0.65541 0.0
H2656 H 0.60242 0.94419 0.6612 0.0
H2657 H 0.61431 0.92253 0.65036 0.0
C2658 C 0.08056 0.66456 0.6862 0.0
C2659 C 0.075 0.66289 0.71009 0.0
C2660 C 0.09196 0.68269 0.67571 0.0
C2661 C 0.12682 0.73355 0.68966 0.0
H2662 H 0.11544 0.7433 0.62611 0.0
C2663 C 0.18085 0.80029 0.63518 0.0
C2664 C 0.17354 0.80995 0.62156 0.0
C2665 C 0.16843 0.78268 0.64623 0.0
C2666 C 0.11877 0.74089 0.64393 0.0
H2667 H 0.07713 0.67915 0.74161 0.0
H2668 H 0.09738 0.71082 0.72346 0.0
H2669 H 0.09441 0.71225 0.64502 0.0
H2670 H 0.14718 0.80843 0.60923 0.0
H2671 H 0.12561 0.77764 0.62818 0.0
H2672 H 0.15118 0.76217 0.68859 0.0
C2673 C 0.0929 0.69804 0.71283 0.0
C2674 C 0.1068 0.723 0.6547 0.0
C2675 C 0.08127 0.67988 0.72325 0.0
C2676 C 0.15342 0.80132 0.61918 0.0
C2677 C 0.141 0.78365 0.63014 0.0
C2678 C 0.13889 0.75138 0.67881 0.0
C2679 C 0.09833 0.6997 0.68888 0.0
C2680 C 0.11072 0.71903 0.67767 0.0
C2681 C 0.14832 0.77411 0.64392 0.0
C2682 C 0.13512 0.75527 0.65573 0.0
H2683 H 0.07583 0.65182 0.67541 0.0
H2684 H 0.09597 0.68338 0.6573 0.0
H2685 H 0.13036 0.731 0.70731 0.0
H2686 H 0.19623 0.80622 0.63713 0.0
H2687 H 0.17463 0.77562 0.65634 0.0
C2688 C 0.32646 0.39663 0.71532 0.0
C2689 C 0.3409 0.41584 0.7114 0.0
C2690 C 0.3077 0.38985 0.70677 0.0
C2691 C 0.28243 0.40251 0.66072 0.0
H2692 H 0.23636 0.36126 0.68946 0.0
C2693 C 0.20931 0.36885 0.61213 0.0
C2694 C 0.19257 0.3629 0.6257 0.0
C2695 C 0.227 0.37432 0.62305 0.0
C2696 C 0.24902 0.37296 0.68126 0.0
H2697 H 0.34667 0.44332 0.69712 0.0
H2698 H 0.31399 0.43194 0.68351 0.0
H2699 H 0.26721 0.37345 0.70938 0.0
H2700 H 0.18151 0.35763 0.66165 0.0
H2701 H 0.21231 0.36829 0.68055 0.0
H2702 H 0.26429 0.40272 0.6332 0.0
C2703 C 0.31715 0.42178 0.6922 0.0
C2704 C 0.26683 0.37979 0.69259 0.0
C2705 C 0.33587 0.42843 0.70036 0.0
C2706 C 0.19407 0.36251 0.6505 0.0
C2707 C 0.21179 0.36829 0.66142 0.0
C2708 C 0.26464 0.39589 0.64959 0.0
C2709 C 0.30296 0.40222 0.69437 0.0
C2710 C 0.2838 0.39476 0.68255 0.0
C2711 C 0.22857 0.37432 0.64789 0.0
C2712 C 0.24763 0.38102 0.65966 0.0
H2713 H 0.32997 0.38651 0.72345 0.0
H2714 H 0.29726 0.3747 0.70877 0.0
H2715 H 0.29514 0.4137 0.65201 0.0
H2716 H 0.2089 0.36956 0.59303 0.0
H2717 H 0.23944 0.3785 0.6119 0.0
C2718 C 0.02996 0.5057 0.68137 0.0
C2719 C 0.03131 0.50891 0.70596 0.0
C2720 C 0.03481 0.4927 0.67134 0.0
C2721 C 0.04173 0.45137 0.68695 0.0
H2722 H 0.07006 0.4636 0.62791 0.0
C2723 C 0.08131 0.41191 0.65775 0.0
C2724 C 0.07986 0.40592 0.63406 0.0
C2725 C 0.07427 0.4239 0.66482 0.0
C2726 C 0.06192 0.45985 0.64423 0.0
H2727 H 0.03931 0.50116 0.73913 0.0
H2728 H 0.04777 0.47862 0.72173 0.0
H2729 H 0.06009 0.48565 0.64373 0.0
H2730 H 0.06998 0.40828 0.59916 0.0
H2731 H 0.05799 0.42978 0.61154 0.0
H2732 H 0.0439 0.42581 0.68772 0.0
C2733 C 0.04259 0.48586 0.71018 0.0
C2734 C 0.05619 0.47249 0.65334 0.0
C2735 C 0.03775 0.49884 0.7202 0.0
C2736 C 0.07145 0.41267 0.6175 0.0
C2737 C 0.06458 0.42497 0.62459 0.0
C2738 C 0.04752 0.43883 0.67792 0.0
C2739 C 0.04113 0.48253 0.68561 0.0
C2740 C 0.04629 0.46858 0.67505 0.0
C2741 C 0.06567 0.43049 0.64845 0.0
C2742 C 0.05799 0.44305 0.65667 0.0
H2743 H 0.02479 0.51296 0.66987 0.0
H2744 H 0.03325 0.49037 0.65242 0.0
H2745 H 0.0337 0.44758 0.70337 0.0
H2746 H 0.08756 0.407 0.67114 0.0
H2747 H 0.07564 0.42808 0.68324 0.0
C2748 C 0.50355 0.52824 0.68211 0.0
C2749 C 0.49898 0.52728 0.70627 0.0
C2750 C 0.51552 0.54601 0.67114 0.0
C2751 C 0.55144 0.59732 0.68484 0.0
H2752 H 0.54163 0.60612 0.62013 0.0
C2753 C 0.5884 0.67345 0.64275 0.0
C2754 C 0.5952 0.67541 0.6194 0.0
C2755 C 0.57696 0.65519 0.65287 0.0
C2756 C 0.54469 0.60385 0.63814 0.0
H2757 H 0.50302 0.54433 0.73766 0.0
H2758 H 0.52351 0.57529 0.71854 0.0
H2759 H 0.52109 0.57485 0.63861 0.0
H2760 H 0.59512 0.65953 0.58838 0.0
H2761 H 0.57494 0.62766 0.60593 0.0
H2762 H 0.57484 0.62647 0.68444 0.0
C2763 C 0.51831 0.56231 0.70812 0.0
C2764 C 0.53292 0.58586 0.64877 0.0
C2765 C 0.50647 0.54454 0.71911 0.0
C2766 C 0.59001 0.65858 0.60632 0.0
C2767 C 0.57842 0.64029 0.61639 0.0
C2768 C 0.5631 0.61534 0.67427 0.0
C2769 C 0.52314 0.56333 0.68399 0.0
C2770 C 0.53602 0.58236 0.67236 0.0
C2771 C 0.57187 0.63835 0.63987 0.0
C2772 C 0.5598 0.61891 0.65084 0.0
H2773 H 0.49823 0.51519 0.67178 0.0
H2774 H 0.51909 0.54609 0.65267 0.0
H2775 H 0.55464 0.59511 0.70281 0.0
H2776 H 0.59221 0.68606 0.65344 0.0
H2777 H 0.572 0.65425 0.67089 0.0
C2778 C 0.33822 0.91141 0.63215 0.0
C2779 C 0.33188 0.92401 0.62455 0.0
C2780 C 0.35729 0.91856 0.63946 0.0
C2781 C 0.39585 0.95954 0.6692 0.0
H2782 H 0.42827 0.93923 0.64862 0.0
C2783 C 0.47239 0.98741 0.70821 0.0
C2784 C 0.47925 0.97439 0.71 0.0
C2785 C 0.45498 0.98214 0.69661 0.0
C2786 C 0.41934 0.94487 0.65494 0.0
H2787 H 0.3405 0.95397 0.61859 0.0
H2788 H 0.37382 0.96654 0.63198 0.0
H2789 H 0.39733 0.92851 0.62938 0.0
H2790 H 0.47287 0.9454 0.70194 0.0
H2791 H 0.44222 0.93587 0.68271 0.0
H2792 H 0.41721 0.97516 0.69553 0.0
C2793 C 0.36411 0.9511 0.63175 0.0
C2794 C 0.40166 0.93884 0.64367 0.0
C2795 C 0.34514 0.9439 0.6238 0.0
C2796 C 0.46806 0.95582 0.70058 0.0
C2797 C 0.45053 0.95044 0.68933 0.0
C2798 C 0.41337 0.96532 0.68079 0.0
C2799 C 0.37027 0.93851 0.64003 0.0
C2800 C 0.38969 0.94602 0.65075 0.0
C2801 C 0.44382 0.9636 0.68681 0.0
C2802 C 0.42535 0.95795 0.67399 0.0
H2803 H 0.32821 0.89606 0.6333 0.0
H2804 H 0.3616 0.90853 0.6459 0.0
H2805 H 0.38679 0.96513 0.67523 0.0
H2806 H 0.48083 1.0019 0.71508 0.0
H2807 H 0.45058 0.99283 0.69485 0.0
C2808 C 0.31354 0.36127 0.12757 0.0
C2809 C 0.30548 0.36465 0.10732 0.0
C2810 C 0.33038 0.37612 0.13757 0.0
C2811 C 0.36337 0.42928 0.1375 0.0
H2812 H 0.40171 0.4152 0.15369 0.0
C2813 C 0.44497 0.48299 0.1414 0.0
C2814 C 0.45653 0.47878 0.15616 0.0
C2815 C 0.42506 0.47071 0.14065 0.0
C2816 C 0.39108 0.41939 0.14983 0.0
H2817 H 0.30838 0.38645 0.08219 0.0
H2818 H 0.338 0.41223 0.09927 0.0
H2819 H 0.36973 0.39037 0.14199 0.0
H2820 H 0.45611 0.45962 0.18356 0.0
H2821 H 0.42124 0.43854 0.18292 0.0
H2822 H 0.38508 0.45847 0.14468 0.0
C2823 C 0.33118 0.39819 0.10768 0.0
C2824 C 0.37269 0.4051 0.14303 0.0
C2825 C 0.31427 0.38336 0.09776 0.0
C2826 C 0.4476 0.46321 0.17196 0.0
C2827 C 0.42764 0.45099 0.17134 0.0
C2828 C 0.38183 0.44363 0.14434 0.0
C2829 C 0.33963 0.39466 0.12746 0.0
C2830 C 0.35866 0.40986 0.13649 0.0
C2831 C 0.41627 0.45405 0.15483 0.0
C2832 C 0.39598 0.43886 0.15031 0.0
H2833 H 0.30698 0.34707 0.13553 0.0
H2834 H 0.33631 0.37299 0.15307 0.0
H2835 H 0.35284 0.43342 0.13282 0.0
H2836 H 0.45147 0.49511 0.1293 0.0
H2837 H 0.41681 0.47357 0.12773 0.0
C2838 C 0.52274 0.96156 0.15275 0.0
C2839 C 0.52905 0.98063 0.15969 0.0
C2840 C 0.53608 0.95564 0.14786 0.0
C2841 C 0.5829 0.97754 0.12144 0.0
H2842 H 0.5835 0.93049 0.13568 0.0
C2843 C 0.64471 0.96658 0.09063 0.0
C2844 C 0.64086 0.94818 0.08366 0.0
C2845 C 0.6303 0.96926 0.10049 0.0
C2846 C 0.58332 0.94356 0.13127 0.0
H2847 H 0.55389 0.0079 0.16912 0.0
H2848 H 0.57725 0.99759 0.16059 0.0
H2849 H 0.56012 0.93703 0.15541 0.0
H2850 H 0.6186 0.91819 0.0809 0.0
H2851 H 0.5932 0.92289 0.0981 0.0
H2852 H 0.60547 0.98393 0.09682 0.0
C2853 C 0.56204 0.98724 0.15891 0.0
C2854 C 0.57007 0.94735 0.14273 0.0
C2855 C 0.54869 0.99306 0.16408 0.0
C2856 C 0.62204 0.93253 0.08622 0.0
C2857 C 0.60754 0.93521 0.09622 0.0
C2858 C 0.5959 0.97366 0.10982 0.0
C2859 C 0.5559 0.96881 0.14956 0.0
C2860 C 0.56999 0.96455 0.13817 0.0
C2861 C 0.61155 0.95363 0.10361 0.0
C2862 C 0.59654 0.95679 0.11482 0.0
H2863 H 0.50764 0.95182 0.14903 0.0
H2864 H 0.53098 0.94137 0.14068 0.0
H2865 H 0.58274 0.99063 0.11705 0.0
H2866 H 0.65903 0.97896 0.08893 0.0
H2867 H 0.63405 0.98359 0.10625 0.0
C2868 C 0.04661 0.68799 0.11193 0.0
C2869 C 0.05924 0.69672 0.09282 0.0
C2870 C 0.04448 0.67123 0.1223 0.0
C2871 C 0.06645 0.64021 0.12775 0.0
H2872 H 0.01393 0.60086 0.14178 0.0
C2873 C 0.04156 0.55964 0.14097 0.0
C2874 C 0.02471 0.54816 0.15409 0.0
C2875 C 0.04871 0.57941 0.13853 0.0
C2876 C 0.02876 0.61179 0.13857 0.0
H2877 H 0.07992 0.69491 0.06992 0.0
H2878 H 0.07584 0.66516 0.08773 0.0
H2879 H 0.02033 0.63171 0.12634 0.0
H2880 H 0.00368 0.54876 0.17752 0.0
H2881 H 0.01668 0.58345 0.17422 0.0
H2882 H 0.07475 0.61996 0.13961 0.0
C2883 C 0.06778 0.67152 0.09489 0.0
C2884 C 0.03243 0.62952 0.12954 0.0
C2885 C 0.07001 0.68846 0.08456 0.0
C2886 C 0.01661 0.5572 0.16717 0.0
C2887 C 0.0239 0.57705 0.16494 0.0
C2888 C 0.06277 0.6224 0.13689 0.0
C2889 C 0.0548 0.66259 0.11373 0.0
C2890 C 0.05128 0.64393 0.12388 0.0
C2891 C 0.03931 0.58817 0.14947 0.0
C2892 C 0.04383 0.60791 0.14226 0.0
H2893 H 0.03834 0.69415 0.11901 0.0
H2894 H 0.03469 0.665 0.13709 0.0
H2895 H 0.08117 0.65108 0.12382 0.0
H2896 H 0.04833 0.55307 0.13107 0.0
H2897 H 0.06065 0.58745 0.12657 0.0
C2898 C 0.68905 0.64229 0.88322 0.0
C2899 C 0.70145 0.63827 0.89649 0.0
C2900 C 0.67132 0.62744 0.87551 0.0
C2901 C 0.64348 0.5764 0.86109 0.0
H2902 H 0.60008 0.58393 0.87307 0.0
C2903 C 0.56132 0.52064 0.84963 0.0
C2904 C 0.55036 0.52823 0.83997 0.0
C2905 C 0.58113 0.5325 0.85302 0.0
C2906 C 0.6121 0.58175 0.86936 0.0
H2907 H 0.70526 0.61545 0.91142 0.0
H2908 H 0.67413 0.58921 0.89731 0.0
H2909 H 0.63184 0.60734 0.88783 0.0
H2910 H 0.55141 0.55344 0.82445 0.0
H2911 H 0.58604 0.57423 0.83038 0.0
H2912 H 0.6234 0.55058 0.84269 0.0
C2913 C 0.67823 0.60398 0.89316 0.0
C2914 C 0.63024 0.59508 0.87789 0.0
C2915 C 0.69596 0.61896 0.90128 0.0
C2916 C 0.55966 0.54726 0.83166 0.0
C2917 C 0.57938 0.55916 0.83531 0.0
C2918 C 0.62519 0.56293 0.85257 0.0
C2919 C 0.66561 0.60816 0.88061 0.0
C2920 C 0.64619 0.59279 0.87341 0.0
C2921 C 0.59006 0.55212 0.84708 0.0
C2922 C 0.60947 0.56578 0.85621 0.0
H2923 H 0.69279 0.657 0.8793 0.0
H2924 H 0.66195 0.63105 0.86565 0.0
H2925 H 0.65558 0.57434 0.85742 0.0
H2926 H 0.55431 0.50598 0.85629 0.0
H2927 H 0.58908 0.52676 0.86212 0.0
C2928 C 0.38399 0.07205 0.89395 0.0
C2929 C 0.36463 0.06057 0.8871 0.0
C2930 C 0.39828 0.06909 0.88407 0.0
C2931 C 0.40419 0.03103 0.85619 0.0
H2932 H 0.45554 0.0727 0.84156 0.0
C2933 C 0.46198 0.01405 0.82533 0.0
C2934 C 0.4795 0.02407 0.83758 0.0
C2935 C 0.44866 0.02047 0.82608 0.0
C2936 C 0.44128 0.0609 0.8456 0.0
H2937 H 0.34523 0.03749 0.86383 0.0
H2938 H 0.37017 0.03237 0.84655 0.0
H2939 H 0.43073 0.08006 0.85384 0.0
H2940 H 0.49772 0.04966 0.85807 0.0
H2941 H 0.47447 0.06071 0.85972 0.0
H2942 H 0.41476 0.01186 0.84884 0.0
C2943 C 0.37426 0.04349 0.85979 0.0
C2944 C 0.42708 0.06512 0.85267 0.0
C2945 C 0.35998 0.04648 0.86961 0.0
C2946 C 0.4842 0.04156 0.84867 0.0
C2947 C 0.47089 0.04793 0.8495 0.0
C2948 C 0.41838 0.02681 0.84924 0.0
C2949 C 0.39353 0.05455 0.86717 0.0
C2950 C 0.40841 0.05023 0.85825 0.0
C2951 C 0.45261 0.03701 0.8391 0.0
C2952 C 0.43716 0.04168 0.84406 0.0
H2953 H 0.38806 0.08306 0.90734 0.0
H2954 H 0.41295 0.07775 0.89031 0.0
H2955 H 0.39007 0.01922 0.86079 0.0
H2956 H 0.45795 1.0005 0.81669 0.0
H2957 H 0.43488 0.01195 0.8174 0.0
C2958 C 0.93176 0.31399 0.90437 0.0
C2959 C 0.94172 0.30586 0.89334 0.0
C2960 C 0.93373 0.33141 0.89618 0.0
C2961 C 0.95125 0.36554 0.84493 0.0
H2962 H 0.95749 0.40307 0.89235 0.0
C2963 C 0.98819 0.44821 0.82912 0.0
C2964 C 0.98082 0.45829 0.84146 0.0
C2965 C 0.98004 0.42827 0.83225 0.0
C2966 C 0.95547 0.39266 0.87884 0.0
H2967 H 0.96112 0.30939 0.86463 0.0
H2968 H 0.96475 0.33975 0.85058 0.0
H2969 H 0.9498 0.37087 0.9046 0.0
H2970 H 0.95802 0.45527 0.86474 0.0
H2971 H 0.94382 0.42056 0.87017 0.0
H2972 H 0.95769 0.38775 0.81927 0.0
C2973 C 0.95522 0.33264 0.86538 0.0
C2974 C 0.95102 0.37414 0.88587 0.0
C2975 C 0.95326 0.31527 0.87357 0.0
C2976 C 0.96411 0.44785 0.85521 0.0
C2977 C 0.95607 0.42802 0.85846 0.0
C2978 C 0.95586 0.38414 0.83791 0.0
C2979 C 0.94569 0.3411 0.87675 0.0
C2980 C 0.94904 0.36037 0.86904 0.0
C2981 C 0.96443 0.41815 0.84781 0.0
C2982 C 0.95816 0.39795 0.85481 0.0
H2983 H 0.92271 0.3071 0.91962 0.0
H2984 H 0.92595 0.33733 0.90519 0.0
H2985 H 0.94953 0.35523 0.83144 0.0
H2986 H 1.00115 0.45592 0.8186 0.0
H2987 H 0.9868 0.42106 0.82381 0.0
C2988 C 0.98307 0.69665 0.45771 0.0
C2989 C 0.97301 0.69966 0.43936 0.0
C2990 C 1.00006 0.71205 0.46673 0.0
C2991 C 0.03945 0.75961 0.44846 0.0
H2992 H 0.0549 0.76428 0.51427 0.0
C2993 C 0.11354 0.81966 0.47614 0.0
C2994 C 0.12441 0.81319 0.48859 0.0
C2995 C 0.09358 0.80809 0.47448 0.0
C2996 C 0.05076 0.76315 0.49584 0.0
H2997 H 0.9724 0.72133 0.41688 0.0
H2998 H 1.00189 0.74813 0.43268 0.0
H2999 H 0.02251 0.73928 0.50255 0.0
H3000 H 0.12295 0.7905 0.51087 0.0
H3001 H 0.08796 0.77018 0.50806 0.0
H3002 H 0.06771 0.78304 0.44154 0.0
C3003 C 0.99686 0.73385 0.43985 0.0
C3004 C 0.03225 0.74882 0.48911 0.0
C3005 C 0.97991 0.71848 0.43085 0.0
C3006 C 0.11484 0.79584 0.50131 0.0
C3007 C 0.09482 0.7842 0.49961 0.0
C3008 C 0.05787 0.77391 0.45517 0.0
C3009 C 0.00737 0.73077 0.45757 0.0
C3010 C 0.02646 0.74676 0.46528 0.0
C3011 C 0.08411 0.7898 0.48521 0.0
C3012 C 0.06383 0.77575 0.47889 0.0
H3013 H 0.97807 0.68233 0.46473 0.0
H3014 H 0.00786 0.70914 0.48025 0.0
H3015 H 0.03566 0.75822 0.42988 0.0
H3016 H 0.12064 0.8331 0.46635 0.0
H3017 H 0.08569 0.813 0.46371 0.0
C3018 C 0.31069 0.29906 0.42817 0.0
C3019 C 0.30644 0.28106 0.41906 0.0
C3020 C 0.29625 0.30184 0.43771 0.0
C3021 C 0.2466 0.27587 0.46226 0.0
H3022 H 0.25076 0.32585 0.45379 0.0
C3023 C 0.18756 0.29659 0.48131 0.0
C3024 C 0.19409 0.31495 0.49108 0.0
C3025 C 0.20054 0.29018 0.47647 0.0
C3026 C 0.24955 0.31191 0.45659 0.0
H3027 H 0.28347 0.25188 0.41248 0.0
H3028 H 0.25796 0.25683 0.42879 0.0
H3029 H 0.27396 0.31922 0.43483 0.0
H3030 H 0.21881 0.34031 0.50524 0.0
H3031 H 0.24153 0.32912 0.49686 0.0
H3032 H 0.22153 0.26851 0.48335 0.0
C3033 C 0.27264 0.26873 0.42891 0.0
C3034 C 0.26286 0.30806 0.44571 0.0
C3035 C 0.28722 0.26592 0.4194 0.0
C3036 C 0.2134 0.326 0.49803 0.0
C3037 C 0.22642 0.3197 0.49293 0.0
C3038 C 0.23304 0.27966 0.47291 0.0
C3039 C 0.277 0.28676 0.43825 0.0
C3040 C 0.26181 0.29012 0.44866 0.0
C3041 C 0.22026 0.30216 0.48106 0.0
C3042 C 0.2346 0.29784 0.47046 0.0
H3043 H 0.32534 0.31103 0.42837 0.0
H3044 H 0.30032 0.31581 0.44514 0.0
H3045 H 0.24539 0.26194 0.46509 0.0
H3046 H 0.17275 0.28795 0.47553 0.0
H3047 H 0.19541 0.27663 0.46729 0.0
C3048 C 0.71853 0.02321 0.45823 0.0
C3049 C 0.73112 0.03234 0.43918 0.0
C3050 C 0.71645 0.00623 0.46792 0.0
C3051 C 0.72358 0.9653 0.45279 0.0
H3052 H 0.71041 0.95201 0.51886 0.0
C3053 C 0.70941 0.89288 0.48822 0.0
C3054 C 0.69048 0.88163 0.49661 0.0
C3055 C 0.71767 0.91281 0.4861 0.0
C3056 C 0.71416 0.9556 0.50042 0.0
H3057 H 0.75189 0.03113 0.41585 0.0
H3058 H 0.74863 1.00167 0.43313 0.0
H3059 H 0.71929 0.98431 0.5048 0.0
H3060 H 0.66606 0.88237 0.51159 0.0
H3061 H 0.68077 0.9175 0.50847 0.0
H3062 H 0.7185 0.93661 0.4485 0.0
C3063 C 0.74002 0.00741 0.44028 0.0
C3064 C 0.71912 0.97404 0.49227 0.0
C3065 C 0.742 0.02438 0.43045 0.0
C3066 C 0.68076 0.8908 0.50534 0.0
C3067 C 0.68913 0.91085 0.50339 0.0
C3068 C 0.71892 0.94703 0.46102 0.0
C3069 C 0.727 0.99795 0.45895 0.0
C3070 C 0.72356 0.97902 0.46823 0.0
C3071 C 0.70723 0.92185 0.49256 0.0
C3072 C 0.71392 0.94191 0.48482 0.0
H3073 H 0.70992 0.02895 0.4654 0.0
H3074 H 0.70605 0.99928 0.48197 0.0
H3075 H 0.72649 0.96836 0.43411 0.0
H3076 H 0.71714 0.88605 0.48137 0.0
H3077 H 0.73174 0.921 0.47798 0.0
C3078 C 0.2268 0.85296 0.18879 0.0
C3079 C 0.21598 0.85817 0.17406 0.0
C3080 C 0.24651 0.86545 0.19195 0.0
C3081 C 0.27949 0.91763 0.19051 0.0
H3082 H 0.31777 0.90409 0.20917 0.0
C3083 C 0.35534 0.97574 0.21906 0.0
C3084 C 0.36357 0.97181 0.23873 0.0
C3085 C 0.33862 0.96117 0.20856 0.0
C3086 C 0.30719 0.90807 0.20416 0.0
H3087 H 0.21768 0.87934 0.14885 0.0
H3088 H 0.25231 0.90085 0.15356 0.0
H3089 H 0.28699 0.87938 0.19282 0.0
H3090 H 0.36085 0.94937 0.26258 0.0
H3091 H 0.33123 0.92388 0.24457 0.0
H3092 H 0.29932 0.94611 0.20228 0.0
C3093 C 0.24543 0.88743 0.16337 0.0
C3094 C 0.28957 0.89393 0.19469 0.0
C3095 C 0.22564 0.87497 0.16035 0.0
C3096 C 0.35481 0.95285 0.24749 0.0
C3097 C 0.33793 0.93823 0.23704 0.0
C3098 C 0.29703 0.93171 0.19992 0.0
C3099 C 0.25586 0.88333 0.18023 0.0
C3100 C 0.27544 0.89852 0.18789 0.0
C3101 C 0.32955 0.94227 0.21755 0.0
C3102 C 0.31108 0.92713 0.20701 0.0
H3103 H 0.2197 0.83994 0.19937 0.0
H3104 H 0.25401 0.86173 0.20501 0.0
H3105 H 0.26881 0.92165 0.18615 0.0
H3106 H 0.36188 0.99011 0.2116 0.0
H3107 H 0.33284 0.96474 0.19329 0.0
C3108 C 0.15143 0.37493 0.18187 0.0
C3109 C 0.14379 0.35574 0.17471 0.0
C3110 C 0.1396 0.38308 0.18329 0.0
C3111 C 0.08878 0.37228 0.17167 0.0
H3112 H 0.09988 0.40666 0.22476 0.0
C3113 C 0.0322 0.39172 0.20253 0.0
C3114 C 0.03176 0.39584 0.22653 0.0
C3115 C 0.04765 0.39036 0.19335 0.0
C3116 C 0.09626 0.39678 0.21012 0.0
H3117 H 0.11824 0.3301 0.16283 0.0
H3118 H 0.09734 0.3437 0.16631 0.0
H3119 H 0.12307 0.39745 0.21326 0.0
H3120 H 0.04675 0.40116 0.25997 0.0
H3121 H 0.07263 0.39698 0.24473 0.0
H3122 H 0.06119 0.36983 0.17007 0.0
C3123 C 0.11251 0.35301 0.16991 0.0
C3124 C 0.10994 0.39185 0.20305 0.0
C3125 C 0.12446 0.34508 0.16791 0.0
C3126 C 0.04688 0.39826 0.24128 0.0
C3127 C 0.06191 0.39606 0.23236 0.0
C3128 C 0.07484 0.37663 0.17927 0.0
C3129 C 0.11974 0.37195 0.17832 0.0
C3130 C 0.10627 0.37921 0.18397 0.0
C3131 C 0.06259 0.39206 0.2082 0.0
C3132 C 0.07818 0.38872 0.19888 0.0
H3133 H 0.16634 0.38329 0.18738 0.0
H3134 H 0.14592 0.39785 0.18918 0.0
H3135 H 0.08551 0.36299 0.15645 0.0
H3136 H 0.02075 0.38988 0.19073 0.0
H3137 H 0.04771 0.3879 0.17457 0.0
C3138 C 0.61737 0.64651 0.2148 0.0
C3139 C 0.61207 0.64136 0.23856 0.0
C3140 C 0.61892 0.66338 0.20542 0.0
C3141 C 0.63255 0.71172 0.22131 0.0
H3142 H 0.60862 0.71374 0.1624 0.0
C3143 C 0.66111 0.78094 0.16707 0.0
C3144 C 0.64877 0.78856 0.16877 0.0
C3145 C 0.65434 0.76154 0.17233 0.0
C3146 C 0.61535 0.7133 0.17884 0.0
H3147 H 0.60421 0.64987 0.27113 0.0
H3148 H 0.60786 0.68004 0.25491 0.0
H3149 H 0.60035 0.68234 0.1799 0.0
H3150 H 0.61952 0.78187 0.17553 0.0
H3151 H 0.60739 0.74753 0.1836 0.0
H3152 H 0.64813 0.7426 0.21979 0.0
C3153 C 0.61036 0.67067 0.2435 0.0
C3154 C 0.61064 0.69544 0.18884 0.0
C3155 C 0.60828 0.65346 0.25276 0.0
C3156 C 0.62915 0.77614 0.17356 0.0
C3157 C 0.62228 0.75661 0.17839 0.0
C3158 C 0.63757 0.7295 0.21106 0.0
C3159 C 0.61571 0.67576 0.21974 0.0
C3160 C 0.61929 0.69451 0.21011 0.0
C3161 C 0.63506 0.74944 0.17895 0.0
C3162 C 0.62915 0.73043 0.18966 0.0
H3163 H 0.62026 0.63743 0.20336 0.0
H3164 H 0.62323 0.66705 0.18712 0.0
H3165 H 0.63954 0.7114 0.23759 0.0
H3166 H 0.67637 0.79037 0.16401 0.0
H3167 H 0.66442 0.75627 0.17271 0.0
C3168 C 0.7821 0.12535 0.83321 0.0
C3169 C 0.79064 0.1442 0.82432 0.0
C3170 C 0.7626 0.11242 0.82905 0.0
C3171 C 0.71622 0.10581 0.80715 0.0
H3172 H 0.71367 0.06223 0.77414 0.0
C3173 C 0.6486 0.0509 0.75385 0.0
C3174 C 0.64382 0.03147 0.75504 0.0
C3175 C 0.66595 0.0654 0.76354 0.0
C3176 C 0.71394 0.07408 0.78363 0.0
H3177 H 0.78528 0.16503 0.80657 0.0
H3178 H 0.75103 0.14254 0.79981 0.0
H3179 H 0.74363 0.08582 0.79252 0.0
H3180 H 0.65346 0.01207 0.7675 0.0
H3181 H 0.6832 0.03702 0.78467 0.0
H3182 H 0.68637 0.0939 0.7984 0.0
C3183 C 0.75937 0.13768 0.80978 0.0
C3184 C 0.73116 0.08761 0.7942 0.0
C3185 C 0.77892 0.15057 0.81375 0.0
C3186 C 0.65673 0.02689 0.76607 0.0
C3187 C 0.67391 0.04128 0.77584 0.0
C3188 C 0.6988 0.09205 0.79681 0.0
C3189 C 0.75133 0.11821 0.81615 0.0
C3190 C 0.7325 0.10355 0.80621 0.0
C3191 C 0.67884 0.06075 0.77466 0.0
C3192 C 0.69742 0.07593 0.78502 0.0
H3193 H 0.79088 0.12006 0.84115 0.0
H3194 H 0.75666 0.09752 0.83442 0.0
H3195 H 0.71693 0.11807 0.81612 0.0
H3196 H 0.63892 0.05489 0.74552 0.0
H3197 H 0.66933 0.08024 0.76208 0.0
C3198 C 0.956 0.59752 0.76441 0.0
C3199 C 0.96964 0.61098 0.74868 0.0
C3200 C 0.94179 0.6006 0.77435 0.0
C3201 C 0.93147 0.64041 0.78527 0.0
H3202 H 0.88104 0.59867 0.80302 0.0
C3203 C 0.85341 0.6309 0.80797 0.0
C3204 C 0.85964 0.64829 0.82017 0.0
C3205 C 0.8661 0.62409 0.80365 0.0
C3206 C 0.89505 0.61052 0.79815 0.0
H3207 H 0.97814 0.63743 0.7294 0.0
H3208 H 0.95275 0.64231 0.74554 0.0
H3209 H 0.90375 0.59145 0.78354 0.0
H3210 H 0.88325 0.67102 0.83973 0.0
H3211 H 0.90526 0.65871 0.83312 0.0
H3212 H 0.92247 0.65953 0.79864 0.0
C3213 C 0.95355 0.62983 0.7513 0.0
C3214 C 0.90819 0.60637 0.78714 0.0
C3215 C 0.968 0.62694 0.74179 0.0
C3216 C 0.87807 0.65755 0.83032 0.0
C3217 C 0.89077 0.65067 0.82613 0.0
C3218 C 0.9183 0.64456 0.79604 0.0
C3219 C 0.94062 0.61705 0.76833 0.0
C3220 C 0.92654 0.62128 0.78032 0.0
C3221 C 0.88526 0.63444 0.81164 0.0
C3222 C 0.89985 0.6297 0.80249 0.0
H3223 H 0.95687 0.58505 0.76985 0.0
H3224 H 0.93225 0.59045 0.78745 0.0
H3225 H 0.94557 0.65231 0.78083 0.0
H3226 H 0.83921 0.62344 0.80005 0.0
H3227 H 0.86126 0.61157 0.79245 0.0
C3228 C 0.37441 0.22691 0.80562 0.0
C3229 C 0.3581 0.21513 0.81945 0.0
C3230 C 0.38202 0.24683 0.80505 0.0
C3231 C 0.36469 0.28103 0.8134 0.0
H3232 H 0.4174 0.31904 0.79793 0.0
C3233 C 0.38607 0.35951 0.79263 0.0
C3234 C 0.39755 0.36753 0.77243 0.0
C3235 C 0.38353 0.34232 0.80233 0.0
C3236 C 0.40261 0.30857 0.8022 0.0
H3237 H 0.33837 0.21518 0.84555 0.0
H3238 H 0.3522 0.25005 0.8454 0.0
H3239 H 0.40962 0.28656 0.8096 0.0
H3240 H 0.41591 0.36418 0.74704 0.0
H3241 H 0.41122 0.33405 0.76373 0.0
H3242 H 0.35758 0.30281 0.80555 0.0
C3243 C 0.35863 0.24382 0.83426 0.0
C3244 C 0.39815 0.28996 0.8089 0.0
C3245 C 0.35088 0.22385 0.83463 0.0
C3246 C 0.40695 0.35835 0.7626 0.0
C3247 C 0.40437 0.34114 0.77227 0.0
C3248 C 0.36916 0.29961 0.80684 0.0
C3249 C 0.37367 0.25544 0.81858 0.0
C3250 C 0.37907 0.27587 0.81426 0.0
C3251 C 0.39237 0.33276 0.79201 0.0
C3252 C 0.38811 0.31353 0.80084 0.0
H3253 H 0.38056 0.22061 0.79411 0.0
H3254 H 0.3936 0.25525 0.79277 0.0
H3255 H 0.34976 0.27049 0.8168 0.0
H3256 H 0.3788 0.36635 0.80077 0.0
H3257 H 0.37444 0.3364 0.81778 0.0
C3258 C 0.01308 0.30922 0.57011 0.0
C3259 C 0.0271 0.30496 0.57823 0.0
C3260 C 0.99587 0.29488 0.56032 0.0
C3261 C 0.97298 0.24637 0.53274 0.0
H3262 H 0.92652 0.24875 0.54389 0.0
C3263 C 0.89283 0.1875 0.51363 0.0
C3264 C 0.88118 0.19448 0.50443 0.0
C3265 C 0.91234 0.20016 0.51828 0.0
C3266 C 0.93944 0.24806 0.54037 0.0
H3267 H 0.03383 0.28211 0.58281 0.0
H3268 H 0.0035 0.25686 0.56593 0.0
H3269 H 0.95625 0.27158 0.5635 0.0
H3270 H 0.88095 0.21961 0.49084 0.0
H3271 H 0.91504 0.24178 0.49896 0.0
H3272 H 0.95556 0.22214 0.51023 0.0
C3273 C 0.00601 0.27143 0.56683 0.0
C3274 C 0.95652 0.26115 0.55161 0.0
C3275 C 0.02333 0.28586 0.57668 0.0
C3276 C 0.88972 0.21386 0.4976 0.0
C3277 C 0.90914 0.22656 0.50253 0.0
C3278 C 0.9557 0.23301 0.52172 0.0
C3279 C 0.99206 0.27579 0.55846 0.0
C3280 C 0.97363 0.26075 0.54766 0.0
C3281 C 0.92033 0.21998 0.51406 0.0
C3282 C 0.93888 0.23399 0.52514 0.0
H3283 H 0.0155 0.32377 0.57094 0.0
H3284 H 0.98571 0.29894 0.55371 0.0
H3285 H 0.98588 0.24569 0.52915 0.0
H3286 H 0.88643 0.17262 0.51933 0.0
H3287 H 0.92065 0.19474 0.5272 0.0
C3288 C 0.69597 0.70516 0.57266 0.0
C3289 C 0.69905 0.7237 0.57732 0.0
C3290 C 0.71066 0.70263 0.56348 0.0
C3291 C 0.75672 0.72815 0.53062 0.0
H3292 H 0.75933 0.68269 0.54813 0.0
C3293 C 0.81762 0.70977 0.51139 0.0
C3294 C 0.81099 0.69069 0.50416 0.0
C3295 C 0.80454 0.71606 0.51604 0.0
C3296 C 0.75862 0.69534 0.5429 0.0
H3297 H 0.72029 0.75414 0.5769 0.0
H3298 H 0.74625 0.74971 0.56111 0.0
H3299 H 0.73663 0.68954 0.56813 0.0
H3300 H 0.78592 0.66383 0.49401 0.0
H3301 H 0.76301 0.67478 0.50228 0.0
H3302 H 0.77946 0.73414 0.50594 0.0
C3303 C 0.73226 0.73714 0.56413 0.0
C3304 C 0.74561 0.69929 0.55434 0.0
C3305 C 0.71744 0.73967 0.57332 0.0
C3306 C 0.79137 0.67867 0.49924 0.0
C3307 C 0.77828 0.68486 0.50423 0.0
C3308 C 0.77004 0.72433 0.51941 0.0
C3309 C 0.72896 0.71856 0.55886 0.0
C3310 C 0.74418 0.71553 0.54806 0.0
C3311 C 0.7847 0.70324 0.51381 0.0
C3312 C 0.77078 0.70767 0.52517 0.0
H3313 H 0.68198 0.69252 0.57551 0.0
H3314 H 0.70742 0.68813 0.55933 0.0
H3315 H 0.75593 0.7407 0.52519 0.0
H3316 H 0.83271 0.71918 0.51554 0.0
H3317 H 0.80979 0.73027 0.52347 0.0
C3318 C 0.29598 0.11155 0.51876 0.0
C3319 C 0.31285 0.12293 0.50563 0.0
C3320 C 0.28938 0.09199 0.52257 0.0
C3321 C 0.31036 0.06052 0.52659 0.0
H3322 H 0.25783 0.02048 0.53928 0.0
C3323 C 0.29288 0.98445 0.55379 0.0
C3324 C 0.27939 0.97512 0.57197 0.0
C3325 C 0.29528 1.00139 0.5436 0.0
C3326 C 0.27258 0.03157 0.53598 0.0
H3327 H 0.33472 0.1223 0.4839 0.0
H3328 H 0.32276 0.08793 0.48966 0.0
H3329 H 0.26409 0.05126 0.52249 0.0
H3330 H 0.25752 0.97612 0.59337 0.0
H3331 H 0.26201 0.00613 0.57582 0.0
H3332 H 0.31895 0.04113 0.54037 0.0
C3333 C 0.31501 0.09427 0.49777 0.0
C3334 C 0.27618 0.04919 0.52627 0.0
C3335 C 0.32169 0.1139 0.4941 0.0
C3336 C 0.2681 0.98302 0.57949 0.0
C3337 C 0.27058 1.00012 0.5693 0.0
C3338 C 0.30678 0.04297 0.53622 0.0
C3339 C 0.29942 0.08334 0.51311 0.0
C3340 C 0.29515 0.06392 0.52149 0.0
C3341 C 0.28435 0.0096 0.55136 0.0
C3342 C 0.28787 0.02826 0.54109 0.0
H3343 H 0.28877 0.11814 0.52767 0.0
H3344 H 0.27733 0.0841 0.53442 0.0
H3345 H 0.32519 0.07166 0.52385 0.0
H3346 H 0.30162 0.97863 0.54728 0.0
H3347 H 0.30571 0.00802 0.5295 0.0
loop_
_geom_bond_atom_site_label_1
_geom_bond_atom_site_label_2
_geom_bond_distance
_geom_bond_site_symmetry_2
_ccdc_geom_bond_type
C0 C1 1.359 . S
C0 N5 1.330 . S
C0 C61 1.504 . S
C1 C0 1.359 . S
C1 C2 1.366 . S
C1 H63 0.929 . S
C2 C1 1.366 . S
C2 C3 1.415 . S
C2 H64 0.932 . S
C3 C2 1.415 . S
C3 C4 1.366 . S
C3 H65 0.931 . S
C4 C3 1.366 . S
C4 N5 1.325 . S
C4 C6 1.516 . S
N5 C0 1.330 . S
N5 C4 1.325 . S
N5 Co21 1.869 . S
C6 C4 1.516 . S
C6 N30 1.316 . S
C6 O53 1.263 . S
C7 C8 1.421 . S
C7 C12 1.360 . S
C7 N30 1.436 . S
C8 C7 1.421 . S
C8 C9 1.379 . S
C8 H66 0.929 . S
C9 C8 1.379 . S
C9 C10 1.417 . S
C10 C9 1.417 . S
C10 C11 1.352 . S
C10 H67 0.929 . S
C11 C10 1.352 . S
C11 C12 1.393 . S
C12 C7 1.360 . S
C12 C11 1.393 . S
C12 H68 0.931 . S
Cd13 O33 2.329 . S
Cd13 O35 2.350 . S
Cd13 O36 2.277 . S
Cd13 O38 2.173 . S
Cd13 O42 2.263 . S
Cd13 O53 2.366 . S
Cd14 O32 2.352 . S
Cd14 O39 2.250 . S
Cd14 O43 2.308 . S
C15 C19 1.403 . S
C15 C20 1.370 . S
C15 N31 1.423 . S
C16 C17 1.389 . S
C16 C20 1.389 . S
C17 C16 1.389 . S
C17 C18 1.379 . S
C17 H69 0.929 . S
C18 C17 1.379 . S
C18 C19 1.405 . S
C19 C15 1.403 . S
C19 C18 1.405 . S
C19 H70 0.932 . S
C20 C15 1.370 . S
C20 C16 1.389 . S
C20 H71 0.931 . S
Co21 N5 1.869 . S
Co21 N22 1.955 . S
Co21 N23 1.864 . S
Co21 N29 1.958 . S
Co21 N30 1.953 . S
Co21 N31 1.974 . S
N22 Co21 1.955 . S
N22 C40 1.329 . S
N22 C55 1.432 . S
N23 Co21 1.864 . S
N23 C24 1.327 . S
N23 C28 1.342 . S
C24 N23 1.327 . S
C24 C25 1.407 . S
C24 C40 1.481 . S
C25 C24 1.407 . S
C25 C26 1.364 . S
C25 H72 0.930 . S
C26 C25 1.364 . S
C26 C27 1.390 . S
C26 H73 0.931 . S
C27 C26 1.390 . S
C27 C28 1.346 . S
C27 H74 0.930 . S
C28 N23 1.342 . S
C28 C27 1.346 . S
C28 C44 1.516 . S
N29 Co21 1.958 . S
N29 C44 1.324 . S
N29 C46 1.427 . S
N30 C6 1.316 . S
N30 C7 1.436 . S
N30 Co21 1.953 . S
N31 C15 1.423 . S
N31 Co21 1.974 . S
N31 C61 1.309 . S
O32 Cd14 2.352 . S
O32 C52 1.235 . S
O33 Cd13 2.329 . S
O33 C52 1.270 . S
C34 O35 1.270 . S
C34 O36 1.248 . S
O35 Cd13 2.350 . S
O35 C34 1.270 . S
O36 Cd13 2.277 . S
O36 C34 1.248 . S
C37 O38 1.277 . S
C37 O39 1.230 . S
O38 Cd13 2.173 . S
O38 C37 1.277 . S
O39 Cd14 2.250 . S
O39 C37 1.230 . S
C40 N22 1.329 . S
C40 C24 1.481 . S
C40 O41 1.246 . S
O41 C40 1.246 . S
O42 Cd13 2.263 . S
O42 C54 1.258 . S
O43 Cd14 2.308 . S
O43 C54 1.274 . S
C44 C28 1.516 . S
C44 N29 1.324 . S
C44 O45 1.238 . S
O45 C44 1.238 . S
C46 N29 1.427 . S
C46 C47 1.394 . S
C46 C51 1.395 . S
C47 C46 1.394 . S
C47 C48 1.380 . S
C47 H75 0.929 . S
C48 C47 1.380 . S
C48 C49 1.384 . S
C48 C54 1.495 . S
C49 C48 1.384 . S
C49 C50 1.382 . S
C49 H76 0.930 . S
C50 C49 1.382 . S
C50 C51 1.398 . S
C51 C46 1.395 . S
C51 C50 1.398 . S
C51 H77 0.930 . S
C52 O32 1.235 . S
C52 O33 1.270 . S
O53 C6 1.263 . S
O53 Cd13 2.366 . S
C54 O42 1.258 . S
C54 O43 1.274 . S
C54 C48 1.495 . S
C55 N22 1.432 . S
C55 C56 1.381 . S
C55 C60 1.385 . S
C56 C55 1.381 . S
C56 C57 1.371 . S
C56 H78 0.932 . S
C57 C56 1.371 . S
C57 C58 1.400 . S
C58 C57 1.400 . S
C58 C59 1.351 . S
C58 H79 0.930 . S
C59 C58 1.351 . S
C59 C60 1.388 . S
C60 C55 1.385 . S
C60 C59 1.388 . S
C60 H80 0.929 . S
C61 C0 1.504 . S
C61 N31 1.309 . S
C61 O62 1.258 . S
O62 C61 1.258 . S
H63 C1 0.929 . S
H64 C2 0.932 . S
H65 C3 0.931 . S
H66 C8 0.929 . S
H67 C10 0.929 . S
H68 C12 0.931 . S
H69 C17 0.929 . S
H70 C19 0.932 . S
H71 C20 0.931 . S
H72 C25 0.930 . S
H73 C26 0.931 . S
H74 C27 0.930 . S
H75 C47 0.929 . S
H76 C49 0.930 . S
H77 C51 0.930 . S
H78 C56 0.932 . S
H79 C58 0.930 . S
H80 C60 0.929 . S
C81 C82 1.359 . S
C81 N86 1.330 . S
C81 C142 1.504 . S
C82 C81 1.359 . S
C82 C83 1.366 . S
C82 H144 0.929 . S
C83 C82 1.366 . S
C83 C84 1.415 . S
C83 H145 0.932 . S
C84 C83 1.415 . S
C84 C85 1.366 . S
C84 H146 0.931 . S
C85 C84 1.366 . S
C85 N86 1.325 . S
C85 C87 1.516 . S
N86 C81 1.330 . S
N86 C85 1.325 . S
N86 Co102 1.869 . S
C87 C85 1.516 . S
C87 N111 1.316 . S
C87 O134 1.263 . S
C88 C89 1.421 . S
C88 C93 1.360 . S
C88 N111 1.436 . S
C89 C88 1.421 . S
C89 C90 1.379 . S
C89 H147 0.929 . S
C90 C89 1.379 . S
C90 C91 1.417 . S
C91 C90 1.417 . S
C91 C92 1.352 . S
C91 H148 0.929 . S
C92 C91 1.352 . S
C92 C93 1.393 . S
C93 C88 1.360 . S
C93 C92 1.393 . S
C93 H149 0.931 . S
Cd94 O114 2.329 . S
Cd94 O116 2.350 . S
Cd94 O117 2.277 . S
Cd94 O119 2.173 . S
Cd94 O123 2.263 . S
Cd94 O134 2.366 . S
Cd95 O113 2.352 . S
Cd95 O120 2.250 . S
Cd95 O124 2.308 . S
C96 C100 1.403 . S
C96 C101 1.370 . S
C96 N112 1.423 . S
C97 C98 1.389 . S
C97 C101 1.389 . S
C98 C97 1.389 . S
C98 C99 1.379 . S
C98 H150 0.929 . S
C99 C98 1.379 . S
C99 C100 1.405 . S
C100 C96 1.403 . S
C100 C99 1.405 . S
C100 H151 0.932 . S
C101 C96 1.370 . S
C101 C97 1.389 . S
C101 H152 0.931 . S
Co102 N86 1.869 . S
Co102 N103 1.955 . S
Co102 N104 1.864 . S
Co102 N110 1.958 . S
Co102 N111 1.953 . S
Co102 N112 1.974 . S
N103 Co102 1.955 . S
N103 C121 1.329 . S
N103 C136 1.432 . S
N104 Co102 1.864 . S
N104 C105 1.327 . S
N104 C109 1.342 . S
C105 N104 1.327 . S
C105 C106 1.407 . S
C105 C121 1.481 . S
C106 C105 1.407 . S
C106 C107 1.364 . S
C106 H153 0.930 . S
C107 C106 1.364 . S
C107 C108 1.390 . S
C107 H154 0.931 . S
C108 C107 1.390 . S
C108 C109 1.346 . S
C108 H155 0.930 . S
C109 N104 1.342 . S
C109 C108 1.346 . S
C109 C125 1.516 . S
N110 Co102 1.958 . S
N110 C125 1.324 . S
N110 C127 1.427 . S
N111 C87 1.316 . S
N111 C88 1.436 . S
N111 Co102 1.953 . S
N112 C96 1.423 . S
N112 Co102 1.974 . S
N112 C142 1.309 . S
O113 Cd95 2.352 . S
O113 C133 1.235 . S
O114 Cd94 2.329 . S
O114 C133 1.270 . S
C115 O116 1.270 . S
C115 O117 1.248 . S
O116 Cd94 2.350 . S
O116 C115 1.270 . S
O117 Cd94 2.277 . S
O117 C115 1.248 . S
C118 O119 1.277 . S
C118 O120 1.230 . S
O119 Cd94 2.173 . S
O119 C118 1.277 . S
O120 Cd95 2.250 . S
O120 C118 1.230 . S
C121 N103 1.329 . S
C121 C105 1.481 . S
C121 O122 1.246 . S
O122 C121 1.246 . S
O123 Cd94 2.263 . S
O123 C135 1.258 . S
O124 Cd95 2.308 . S
O124 C135 1.274 . S
C125 C109 1.516 . S
C125 N110 1.324 . S
C125 O126 1.238 . S
O126 C125 1.238 . S
C127 N110 1.427 . S
C127 C128 1.394 . S
C127 C132 1.395 . S
C128 C127 1.394 . S
C128 C129 1.380 . S
C128 H156 0.929 . S
C129 C128 1.380 . S
C129 C130 1.384 . S
C129 C135 1.495 . S
C130 C129 1.384 . S
C130 C131 1.382 . S
C130 H157 0.930 . S
C131 C130 1.382 . S
C131 C132 1.398 . S
C132 C127 1.395 . S
C132 C131 1.398 . S
C132 H158 0.930 . S
C133 O113 1.235 . S
C133 O114 1.270 . S
O134 C87 1.263 . S
O134 Cd94 2.366 . S
C135 O123 1.258 . S
C135 O124 1.274 . S
C135 C129 1.495 . S
C136 N103 1.432 . S
C136 C137 1.381 . S
C136 C141 1.385 . S
C137 C136 1.381 . S
C137 C138 1.371 . S
C137 H159 0.932 . S
C138 C137 1.371 . S
C138 C139 1.400 . S
C139 C138 1.400 . S
C139 C140 1.351 . S
C139 H160 0.930 . S
C140 C139 1.351 . S
C140 C141 1.388 . S
C141 C136 1.385 . S
C141 C140 1.388 . S
C141 H161 0.929 . S
C142 C81 1.504 . S
C142 N112 1.309 . S
C142 O143 1.258 . S
O143 C142 1.258 . S
H144 C82 0.929 . S
H145 C83 0.932 . S
H146 C84 0.931 . S
H147 C89 0.929 . S
H148 C91 0.929 . S
H149 C93 0.931 . S
H150 C98 0.929 . S
H151 C100 0.932 . S
H152 C101 0.931 . S
H153 C106 0.930 . S
H154 C107 0.931 . S
H155 C108 0.930 . S
H156 C128 0.929 . S
H157 C130 0.930 . S
H158 C132 0.930 . S
H159 C137 0.932 . S
H160 C139 0.930 . S
H161 C141 0.929 . S
C162 C163 1.359 . S
C162 N167 1.330 . S
C162 C223 1.504 . S
C163 C162 1.359 . S
C163 C164 1.366 . S
C163 H225 0.929 . S
C164 C163 1.366 . S
C164 C165 1.415 . S
C164 H226 0.932 . S
C165 C164 1.415 . S
C165 C166 1.366 . S
C165 H227 0.931 . S
C166 C165 1.366 . S
C166 N167 1.325 . S
C166 C168 1.516 . S
N167 C162 1.330 . S
N167 C166 1.325 . S
N167 Co183 1.869 . S
C168 C166 1.516 . S
C168 N192 1.316 . S
C168 O215 1.263 . S
C169 C170 1.421 . S
C169 C174 1.360 . S
C169 N192 1.436 . S
C170 C169 1.421 . S
C170 C171 1.379 . S
C170 H228 0.929 . S
C171 C170 1.379 . S
C171 C172 1.417 . S
C172 C171 1.417 . S
C172 C173 1.352 . S
C172 H229 0.929 . S
C173 C172 1.352 . S
C173 C174 1.393 . S
C174 C169 1.360 . S
C174 C173 1.393 . S
C174 H230 0.931 . S
Cd175 O195 2.329 . S
Cd175 O197 2.350 . S
Cd175 O198 2.277 . S
Cd175 O200 2.173 . S
Cd175 O204 2.263 . S
Cd175 O215 2.366 . S
Cd176 O194 2.352 . S
Cd176 O201 2.250 . S
Cd176 O205 2.308 . S
C177 C181 1.403 . S
C177 C182 1.370 . S
C177 N193 1.423 . S
C178 C179 1.389 . S
C178 C182 1.389 . S
C179 C178 1.389 . S
C179 C180 1.379 . S
C179 H231 0.929 . S
C180 C179 1.379 . S
C180 C181 1.405 . S
C181 C177 1.403 . S
C181 C180 1.405 . S
C181 H232 0.932 . S
C182 C177 1.370 . S
C182 C178 1.389 . S
C182 H233 0.931 . S
Co183 N167 1.869 . S
Co183 N184 1.955 . S
Co183 N185 1.864 . S
Co183 N191 1.958 . S
Co183 N192 1.953 . S
Co183 N193 1.974 . S
N184 Co183 1.955 . S
N184 C202 1.329 . S
N184 C217 1.432 . S
N185 Co183 1.864 . S
N185 C186 1.327 . S
N185 C190 1.342 . S
C186 N185 1.327 . S
C186 C187 1.407 . S
C186 C202 1.481 . S
C187 C186 1.407 . S
C187 C188 1.364 . S
C187 H234 0.930 . S
C188 C187 1.364 . S
C188 C189 1.390 . S
C188 H235 0.931 . S
C189 C188 1.390 . S
C189 C190 1.346 . S
C189 H236 0.930 . S
C190 N185 1.342 . S
C190 C189 1.346 . S
C190 C206 1.516 . S
N191 Co183 1.958 . S
N191 C206 1.324 . S
N191 C208 1.427 . S
N192 C168 1.316 . S
N192 C169 1.436 . S
N192 Co183 1.953 . S
N193 C177 1.423 . S
N193 Co183 1.974 . S
N193 C223 1.309 . S
O194 Cd176 2.352 . S
O194 C214 1.235 . S
O195 Cd175 2.329 . S
O195 C214 1.270 . S
C196 O197 1.270 . S
C196 O198 1.248 . S
O197 Cd175 2.350 . S
O197 C196 1.270 . S
O198 Cd175 2.277 . S
O198 C196 1.248 . S
C199 O200 1.277 . S
C199 O201 1.230 . S
O200 Cd175 2.173 . S
O200 C199 1.277 . S
O201 Cd176 2.250 . S
O201 C199 1.230 . S
C202 N184 1.329 . S
C202 C186 1.481 . S
C202 O203 1.246 . S
O203 C202 1.246 . S
O204 Cd175 2.263 . S
O204 C216 1.258 . S
O205 Cd176 2.308 . S
O205 C216 1.274 . S
C206 C190 1.516 . S
C206 N191 1.324 . S
C206 O207 1.238 . S
O207 C206 1.238 . S
C208 N191 1.427 . S
C208 C209 1.394 . S
C208 C213 1.395 . S
C209 C208 1.394 . S
C209 C210 1.380 . S
C209 H237 0.929 . S
C210 C209 1.380 . S
C210 C211 1.384 . S
C210 C216 1.495 . S
C211 C210 1.384 . S
C211 C212 1.382 . S
C211 H238 0.930 . S
C212 C211 1.382 . S
C212 C213 1.398 . S
C213 C208 1.395 . S
C213 C212 1.398 . S
C213 H239 0.930 . S
C214 O194 1.235 . S
C214 O195 1.270 . S
O215 C168 1.263 . S
O215 Cd175 2.366 . S
C216 O204 1.258 . S
C216 O205 1.274 . S
C216 C210 1.495 . S
C217 N184 1.432 . S
C217 C218 1.381 . S
C217 C222 1.385 . S
C218 C217 1.381 . S
C218 C219 1.371 . S
C218 H240 0.932 . S
C219 C218 1.371 . S
C219 C220 1.400 . S
C220 C219 1.400 . S
C220 C221 1.351 . S
C220 H241 0.930 . S
C221 C220 1.351 . S
C221 C222 1.388 . S
C222 C217 1.385 . S
C222 C221 1.388 . S
C222 H242 0.929 . S
C223 C162 1.504 . S
C223 N193 1.309 . S
C223 O224 1.258 . S
O224 C223 1.258 . S
H225 C163 0.929 . S
H226 C164 0.932 . S
H227 C165 0.931 . S
H228 C170 0.929 . S
H229 C172 0.929 . S
H230 C174 0.931 . S
H231 C179 0.929 . S
H232 C181 0.932 . S
H233 C182 0.931 . S
H234 C187 0.930 . S
H235 C188 0.931 . S
H236 C189 0.930 . S
H237 C209 0.929 . S
H238 C211 0.930 . S
H239 C213 0.930 . S
H240 C218 0.932 . S
H241 C220 0.930 . S
H242 C222 0.929 . S
C243 C244 1.359 . S
C243 N248 1.330 . S
C243 C304 1.504 . S
C244 C243 1.359 . S
C244 C245 1.366 . S
C244 H306 0.929 . S
C245 C244 1.366 . S
C245 C246 1.415 . S
C245 H307 0.932 . S
C246 C245 1.415 . S
C246 C247 1.366 . S
C246 H308 0.931 . S
C247 C246 1.366 . S
C247 N248 1.325 . S
C247 C249 1.516 . S
N248 C243 1.330 . S
N248 C247 1.325 . S
N248 Co264 1.869 . S
C249 C247 1.516 . S
C249 N273 1.316 . S
C249 O296 1.263 . S
C250 C251 1.421 . S
C250 C255 1.360 . S
C250 N273 1.436 . S
C251 C250 1.421 . S
C251 C252 1.379 . S
C251 H309 0.929 . S
C252 C251 1.379 . S
C252 C253 1.417 . S
C253 C252 1.417 . S
C253 C254 1.352 . S
C253 H310 0.929 . S
C254 C253 1.352 . S
C254 C255 1.393 . S
C255 C250 1.360 . S
C255 C254 1.393 . S
C255 H311 0.931 . S
Cd256 O276 2.329 . S
Cd256 O278 2.350 . S
Cd256 O279 2.277 . S
Cd256 O281 2.173 . S
Cd256 O285 2.263 . S
Cd256 O296 2.366 . S
Cd257 O275 2.352 . S
Cd257 O282 2.250 . S
Cd257 O286 2.308 . S
C258 C262 1.403 . S
C258 C263 1.370 . S
C258 N274 1.423 . S
C259 C260 1.389 . S
C259 C263 1.389 . S
C260 C259 1.389 . S
C260 C261 1.379 . S
C260 H312 0.929 . S
C261 C260 1.379 . S
C261 C262 1.405 . S
C262 C258 1.403 . S
C262 C261 1.405 . S
C262 H313 0.932 . S
C263 C258 1.370 . S
C263 C259 1.389 . S
C263 H314 0.931 . S
Co264 N248 1.869 . S
Co264 N265 1.955 . S
Co264 N266 1.864 . S
Co264 N272 1.958 . S
Co264 N273 1.953 . S
Co264 N274 1.974 . S
N265 Co264 1.955 . S
N265 C283 1.329 . S
N265 C298 1.432 . S
N266 Co264 1.864 . S
N266 C267 1.327 . S
N266 C271 1.342 . S
C267 N266 1.327 . S
C267 C268 1.407 . S
C267 C283 1.481 . S
C268 C267 1.407 . S
C268 C269 1.364 . S
C268 H315 0.930 . S
C269 C268 1.364 . S
C269 C270 1.390 . S
C269 H316 0.931 . S
C270 C269 1.390 . S
C270 C271 1.346 . S
C270 H317 0.930 . S
C271 N266 1.342 . S
C271 C270 1.346 . S
C271 C287 1.516 . S
N272 Co264 1.958 . S
N272 C287 1.324 . S
N272 C289 1.427 . S
N273 C249 1.316 . S
N273 C250 1.436 . S
N273 Co264 1.953 . S
N274 C258 1.423 . S
N274 Co264 1.974 . S
N274 C304 1.309 . S
O275 Cd257 2.352 . S
O275 C295 1.235 . S
O276 Cd256 2.329 . S
O276 C295 1.270 . S
C277 O278 1.270 . S
C277 O279 1.248 . S
O278 Cd256 2.350 . S
O278 C277 1.270 . S
O279 Cd256 2.277 . S
O279 C277 1.248 . S
C280 O281 1.277 . S
C280 O282 1.230 . S
O281 Cd256 2.173 . S
O281 C280 1.277 . S
O282 Cd257 2.250 . S
O282 C280 1.230 . S
C283 N265 1.329 . S
C283 C267 1.481 . S
C283 O284 1.246 . S
O284 C283 1.246 . S
O285 Cd256 2.263 . S
O285 C297 1.258 . S
O286 Cd257 2.308 . S
O286 C297 1.274 . S
C287 C271 1.516 . S
C287 N272 1.324 . S
C287 O288 1.238 . S
O288 C287 1.238 . S
C289 N272 1.427 . S
C289 C290 1.394 . S
C289 C294 1.395 . S
C290 C289 1.394 . S
C290 C291 1.380 . S
C290 H318 0.929 . S
C291 C290 1.380 . S
C291 C292 1.384 . S
C291 C297 1.495 . S
C292 C291 1.384 . S
C292 C293 1.382 . S
C292 H319 0.930 . S
C293 C292 1.382 . S
C293 C294 1.398 . S
C294 C289 1.395 . S
C294 C293 1.398 . S
C294 H320 0.930 . S
C295 O275 1.235 . S
C295 O276 1.270 . S
O296 C249 1.263 . S
O296 Cd256 2.366 . S
C297 O285 1.258 . S
C297 O286 1.274 . S
C297 C291 1.495 . S
C298 N265 1.432 . S
C298 C299 1.381 . S
C298 C303 1.385 . S
C299 C298 1.381 . S
C299 C300 1.371 . S
C299 H321 0.932 . S
C300 C299 1.371 . S
C300 C301 1.400 . S
C301 C300 1.400 . S
C301 C302 1.351 . S
C301 H322 0.930 . S
C302 C301 1.351 . S
C302 C303 1.388 . S
C303 C298 1.385 . S
C303 C302 1.388 . S
C303 H323 0.929 . S
C304 C243 1.504 . S
C304 N274 1.309 . S
C304 O305 1.258 . S
O305 C304 1.258 . S
H306 C244 0.929 . S
H307 C245 0.932 . S
H308 C246 0.931 . S
H309 C251 0.929 . S
H310 C253 0.929 . S
H311 C255 0.931 . S
H312 C260 0.929 . S
H313 C262 0.932 . S
H314 C263 0.931 . S
H315 C268 0.930 . S
H316 C269 0.931 . S
H317 C270 0.930 . S
H318 C290 0.929 . S
H319 C292 0.930 . S
H320 C294 0.930 . S
H321 C299 0.932 . S
H322 C301 0.930 . S
H323 C303 0.929 . S
C324 C325 1.359 . S
C324 N329 1.330 . S
C324 C385 1.504 . S
C325 C324 1.359 . S
C325 C326 1.366 . S
C325 H387 0.929 . S
C326 C325 1.366 . S
C326 C327 1.415 . S
C326 H388 0.932 . S
C327 C326 1.415 . S
C327 C328 1.366 . S
C327 H389 0.931 . S
C328 C327 1.366 . S
C328 N329 1.325 . S
C328 C330 1.516 . S
N329 C324 1.330 . S
N329 C328 1.325 . S
N329 Co345 1.869 . S
C330 C328 1.516 . S
C330 N354 1.316 . S
C330 O377 1.263 . S
C331 C332 1.421 . S
C331 C336 1.360 . S
C331 N354 1.436 . S
C332 C331 1.421 . S
C332 C333 1.379 . S
C332 H390 0.929 . S
C333 C332 1.379 . S
C333 C334 1.417 . S
C334 C333 1.417 . S
C334 C335 1.352 . S
C334 H391 0.929 . S
C335 C334 1.352 . S
C335 C336 1.393 . S
C336 C331 1.360 . S
C336 C335 1.393 . S
C336 H392 0.931 . S
Cd337 O357 2.329 . S
Cd337 O359 2.350 . S
Cd337 O360 2.277 . S
Cd337 O362 2.173 . S
Cd337 O366 2.263 . S
Cd337 O377 2.366 . S
Cd338 O356 2.352 . S
Cd338 O363 2.250 . S
Cd338 O367 2.308 . S
C339 C343 1.403 . S
C339 C344 1.370 . S
C339 N355 1.423 . S
C340 C341 1.389 . S
C340 C344 1.389 . S
C341 C340 1.389 . S
C341 C342 1.379 . S
C341 H393 0.929 . S
C342 C341 1.379 . S
C342 C343 1.405 . S
C343 C339 1.403 . S
C343 C342 1.405 . S
C343 H394 0.932 . S
C344 C339 1.370 . S
C344 C340 1.389 . S
C344 H395 0.931 . S
Co345 N329 1.869 . S
Co345 N346 1.955 . S
Co345 N347 1.864 . S
Co345 N353 1.958 . S
Co345 N354 1.953 . S
Co345 N355 1.974 . S
N346 Co345 1.955 . S
N346 C364 1.329 . S
N346 C379 1.432 . S
N347 Co345 1.864 . S
N347 C348 1.327 . S
N347 C352 1.342 . S
C348 N347 1.327 . S
C348 C349 1.407 . S
C348 C364 1.481 . S
C349 C348 1.407 . S
C349 C350 1.364 . S
C349 H396 0.930 . S
C350 C349 1.364 . S
C350 C351 1.390 . S
C350 H397 0.931 . S
C351 C350 1.390 . S
C351 C352 1.346 . S
C351 H398 0.930 . S
C352 N347 1.342 . S
C352 C351 1.346 . S
C352 C368 1.516 . S
N353 Co345 1.958 . S
N353 C368 1.324 . S
N353 C370 1.427 . S
N354 C330 1.316 . S
N354 C331 1.436 . S
N354 Co345 1.953 . S
N355 C339 1.423 . S
N355 Co345 1.974 . S
N355 C385 1.309 . S
O356 Cd338 2.352 . S
O356 C376 1.235 . S
O357 Cd337 2.329 . S
O357 C376 1.270 . S
C358 O359 1.270 . S
C358 O360 1.248 . S
O359 Cd337 2.350 . S
O359 C358 1.270 . S
O360 Cd337 2.277 . S
O360 C358 1.248 . S
C361 O362 1.277 . S
C361 O363 1.230 . S
O362 Cd337 2.173 . S
O362 C361 1.277 . S
O363 Cd338 2.250 . S
O363 C361 1.230 . S
C364 N346 1.329 . S
C364 C348 1.481 . S
C364 O365 1.246 . S
O365 C364 1.246 . S
O366 Cd337 2.263 . S
O366 C378 1.258 . S
O367 Cd338 2.308 . S
O367 C378 1.274 . S
C368 C352 1.516 . S
C368 N353 1.324 . S
C368 O369 1.238 . S
O369 C368 1.238 . S
C370 N353 1.427 . S
C370 C371 1.394 . S
C370 C375 1.395 . S
C371 C370 1.394 . S
C371 C372 1.380 . S
C371 H399 0.929 . S
C372 C371 1.380 . S
C372 C373 1.384 . S
C372 C378 1.495 . S
C373 C372 1.384 . S
C373 C374 1.382 . S
C373 H400 0.930 . S
C374 C373 1.382 . S
C374 C375 1.398 . S
C375 C370 1.395 . S
C375 C374 1.398 . S
C375 H401 0.930 . S
C376 O356 1.235 . S
C376 O357 1.270 . S
O377 C330 1.263 . S
O377 Cd337 2.366 . S
C378 O366 1.258 . S
C378 O367 1.274 . S
C378 C372 1.495 . S
C379 N346 1.432 . S
C379 C380 1.381 . S
C379 C384 1.385 . S
C380 C379 1.381 . S
C380 C381 1.371 . S
C380 H402 0.932 . S
C381 C380 1.371 . S
C381 C382 1.400 . S
C382 C381 1.400 . S
C382 C383 1.351 . S
C382 H403 0.930 . S
C383 C382 1.351 . S
C383 C384 1.388 . S
C384 C379 1.385 . S
C384 C383 1.388 . S
C384 H404 0.929 . S
C385 C324 1.504 . S
C385 N355 1.309 . S
C385 O386 1.258 . S
O386 C385 1.258 . S
H387 C325 0.929 . S
H388 C326 0.932 . S
H389 C327 0.931 . S
H390 C332 0.929 . S
H391 C334 0.929 . S
H392 C336 0.931 . S
H393 C341 0.929 . S
H394 C343 0.932 . S
H395 C344 0.931 . S
H396 C349 0.930 . S
H397 C350 0.931 . S
H398 C351 0.930 . S
H399 C371 0.929 . S
H400 C373 0.930 . S
H401 C375 0.930 . S
H402 C380 0.932 . S
H403 C382 0.930 . S
H404 C384 0.929 . S
C405 C406 1.359 . S
C405 N410 1.330 . S
C405 C466 1.504 . S
C406 C405 1.359 . S
C406 C407 1.366 . S
C406 H468 0.929 . S
C407 C406 1.366 . S
C407 C408 1.415 . S
C407 H469 0.932 . S
C408 C407 1.415 . S
C408 C409 1.366 . S
C408 H470 0.931 . S
C409 C408 1.366 . S
C409 N410 1.325 . S
C409 C411 1.516 . S
N410 C405 1.330 . S
N410 C409 1.325 . S
N410 Co426 1.869 . S
C411 C409 1.516 . S
C411 N435 1.316 . S
C411 O458 1.263 . S
C412 C413 1.421 . S
C412 C417 1.360 . S
C412 N435 1.436 . S
C413 C412 1.421 . S
C413 C414 1.379 . S
C413 H471 0.929 . S
C414 C413 1.379 . S
C414 C415 1.417 . S
C415 C414 1.417 . S
C415 C416 1.352 . S
C415 H472 0.929 . S
C416 C415 1.352 . S
C416 C417 1.393 . S
C417 C412 1.360 . S
C417 C416 1.393 . S
C417 H473 0.931 . S
Cd418 O438 2.329 . S
Cd418 O440 2.350 . S
Cd418 O441 2.277 . S
Cd418 O443 2.173 . S
Cd418 O447 2.263 . S
Cd418 O458 2.366 . S
Cd419 O437 2.352 . S
Cd419 O444 2.250 . S
Cd419 O448 2.308 . S
C420 C424 1.403 . S
C420 C425 1.370 . S
C420 N436 1.423 . S
C421 C422 1.389 . S
C421 C425 1.389 . S
C422 C421 1.389 . S
C422 C423 1.379 . S
C422 H474 0.929 . S
C423 C422 1.379 . S
C423 C424 1.405 . S
C424 C420 1.403 . S
C424 C423 1.405 . S
C424 H475 0.932 . S
C425 C420 1.370 . S
C425 C421 1.389 . S
C425 H476 0.931 . S
Co426 N410 1.869 . S
Co426 N427 1.955 . S
Co426 N428 1.864 . S
Co426 N434 1.958 . S
Co426 N435 1.953 . S
Co426 N436 1.974 . S
N427 Co426 1.955 . S
N427 C445 1.329 . S
N427 C460 1.432 . S
N428 Co426 1.864 . S
N428 C429 1.327 . S
N428 C433 1.342 . S
C429 N428 1.327 . S
C429 C430 1.407 . S
C429 C445 1.481 . S
C430 C429 1.407 . S
C430 C431 1.364 . S
C430 H477 0.930 . S
C431 C430 1.364 . S
C431 C432 1.390 . S
C431 H478 0.931 . S
C432 C431 1.390 . S
C432 C433 1.346 . S
C432 H479 0.930 . S
C433 N428 1.342 . S
C433 C432 1.346 . S
C433 C449 1.516 . S
N434 Co426 1.958 . S
N434 C449 1.324 . S
N434 C451 1.427 . S
N435 C411 1.316 . S
N435 C412 1.436 . S
N435 Co426 1.953 . S
N436 C420 1.423 . S
N436 Co426 1.974 . S
N436 C466 1.309 . S
O437 Cd419 2.352 . S
O437 C457 1.235 . S
O438 Cd418 2.329 . S
O438 C457 1.270 . S
C439 O440 1.270 . S
C439 O441 1.248 . S
O440 Cd418 2.350 . S
O440 C439 1.270 . S
O441 Cd418 2.277 . S
O441 C439 1.248 . S
C442 O443 1.277 . S
C442 O444 1.230 . S
O443 Cd418 2.173 . S
O443 C442 1.277 . S
O444 Cd419 2.250 . S
O444 C442 1.230 . S
C445 N427 1.329 . S
C445 C429 1.481 . S
C445 O446 1.246 . S
O446 C445 1.246 . S
O447 Cd418 2.263 . S
O447 C459 1.258 . S
O448 Cd419 2.308 . S
O448 C459 1.274 . S
C449 C433 1.516 . S
C449 N434 1.324 . S
C449 O450 1.238 . S
O450 C449 1.238 . S
C451 N434 1.427 . S
C451 C452 1.394 . S
C451 C456 1.395 . S
C452 C451 1.394 . S
C452 C453 1.380 . S
C452 H480 0.929 . S
C453 C452 1.380 . S
C453 C454 1.384 . S
C453 C459 1.495 . S
C454 C453 1.384 . S
C454 C455 1.382 . S
C454 H481 0.930 . S
C455 C454 1.382 . S
C455 C456 1.398 . S
C456 C451 1.395 . S
C456 C455 1.398 . S
C456 H482 0.930 . S
C457 O437 1.235 . S
C457 O438 1.270 . S
O458 C411 1.263 . S
O458 Cd418 2.366 . S
C459 O447 1.258 . S
C459 O448 1.274 . S
C459 C453 1.495 . S
C460 N427 1.432 . S
C460 C461 1.381 . S
C460 C465 1.385 . S
C461 C460 1.381 . S
C461 C462 1.371 . S
C461 H483 0.932 . S
C462 C461 1.371 . S
C462 C463 1.400 . S
C463 C462 1.400 . S
C463 C464 1.351 . S
C463 H484 0.930 . S
C464 C463 1.351 . S
C464 C465 1.388 . S
C465 C460 1.385 . S
C465 C464 1.388 . S
C465 H485 0.929 . S
C466 C405 1.504 . S
C466 N436 1.309 . S
C466 O467 1.258 . S
O467 C466 1.258 . S
H468 C406 0.929 . S
H469 C407 0.932 . S
H470 C408 0.931 . S
H471 C413 0.929 . S
H472 C415 0.929 . S
H473 C417 0.931 . S
H474 C422 0.929 . S
H475 C424 0.932 . S
H476 C425 0.931 . S
H477 C430 0.930 . S
H478 C431 0.931 . S
H479 C432 0.930 . S
H480 C452 0.929 . S
H481 C454 0.930 . S
H482 C456 0.930 . S
H483 C461 0.932 . S
H484 C463 0.930 . S
H485 C465 0.929 . S
C486 C487 1.359 . S
C486 N491 1.330 . S
C486 C547 1.504 . S
C487 C486 1.359 . S
C487 C488 1.366 . S
C487 H549 0.929 . S
C488 C487 1.366 . S
C488 C489 1.415 . S
C488 H550 0.932 . S
C489 C488 1.415 . S
C489 C490 1.366 . S
C489 H551 0.931 . S
C490 C489 1.366 . S
C490 N491 1.325 . S
C490 C492 1.516 . S
N491 C486 1.330 . S
N491 C490 1.325 . S
N491 Co507 1.869 . S
C492 C490 1.516 . S
C492 N516 1.316 . S
C492 O539 1.263 . S
C493 C494 1.421 . S
C493 C498 1.360 . S
C493 N516 1.436 . S
C494 C493 1.421 . S
C494 C495 1.379 . S
C494 H552 0.929 . S
C495 C494 1.379 . S
C495 C496 1.417 . S
C496 C495 1.417 . S
C496 C497 1.352 . S
C496 H553 0.929 . S
C497 C496 1.352 . S
C497 C498 1.393 . S
C498 C493 1.360 . S
C498 C497 1.393 . S
C498 H554 0.931 . S
Cd499 O519 2.329 . S
Cd499 O521 2.350 . S
Cd499 O522 2.277 . S
Cd499 O524 2.173 . S
Cd499 O528 2.263 . S
Cd499 O539 2.366 . S
Cd500 O518 2.352 . S
Cd500 O525 2.250 . S
Cd500 O529 2.308 . S
C501 C505 1.403 . S
C501 C506 1.370 . S
C501 N517 1.423 . S
C502 C503 1.389 . S
C502 C506 1.389 . S
C503 C502 1.389 . S
C503 C504 1.379 . S
C503 H555 0.929 . S
C504 C503 1.379 . S
C504 C505 1.405 . S
C505 C501 1.403 . S
C505 C504 1.405 . S
C505 H556 0.932 . S
C506 C501 1.370 . S
C506 C502 1.389 . S
C506 H557 0.931 . S
Co507 N491 1.869 . S
Co507 N508 1.955 . S
Co507 N509 1.864 . S
Co507 N515 1.958 . S
Co507 N516 1.953 . S
Co507 N517 1.974 . S
N508 Co507 1.955 . S
N508 C526 1.329 . S
N508 C541 1.432 . S
N509 Co507 1.864 . S
N509 C510 1.327 . S
N509 C514 1.342 . S
C510 N509 1.327 . S
C510 C511 1.407 . S
C510 C526 1.481 . S
C511 C510 1.407 . S
C511 C512 1.364 . S
C511 H558 0.930 . S
C512 C511 1.364 . S
C512 C513 1.390 . S
C512 H559 0.931 . S
C513 C512 1.390 . S
C513 C514 1.346 . S
C513 H560 0.930 . S
C514 N509 1.342 . S
C514 C513 1.346 . S
C514 C530 1.516 . S
N515 Co507 1.958 . S
N515 C530 1.324 . S
N515 C532 1.427 . S
N516 C492 1.316 . S
N516 C493 1.436 . S
N516 Co507 1.953 . S
N517 C501 1.423 . S
N517 Co507 1.974 . S
N517 C547 1.309 . S
O518 Cd500 2.352 . S
O518 C538 1.235 . S
O519 Cd499 2.329 . S
O519 C538 1.270 . S
C520 O521 1.270 . S
C520 O522 1.248 . S
O521 Cd499 2.350 . S
O521 C520 1.270 . S
O522 Cd499 2.277 . S
O522 C520 1.248 . S
C523 O524 1.277 . S
C523 O525 1.230 . S
O524 Cd499 2.173 . S
O524 C523 1.277 . S
O525 Cd500 2.250 . S
O525 C523 1.230 . S
C526 N508 1.329 . S
C526 C510 1.481 . S
C526 O527 1.246 . S
O527 C526 1.246 . S
O528 Cd499 2.263 . S
O528 C540 1.258 . S
O529 Cd500 2.308 . S
O529 C540 1.274 . S
C530 C514 1.516 . S
C530 N515 1.324 . S
C530 O531 1.238 . S
O531 C530 1.238 . S
C532 N515 1.427 . S
C532 C533 1.394 . S
C532 C537 1.395 . S
C533 C532 1.394 . S
C533 C534 1.380 . S
C533 H561 0.929 . S
C534 C533 1.380 . S
C534 C535 1.384 . S
C534 C540 1.495 . S
C535 C534 1.384 . S
C535 C536 1.382 . S
C535 H562 0.930 . S
C536 C535 1.382 . S
C536 C537 1.398 . S
C537 C532 1.395 . S
C537 C536 1.398 . S
C537 H563 0.930 . S
C538 O518 1.235 . S
C538 O519 1.270 . S
O539 C492 1.263 . S
O539 Cd499 2.366 . S
C540 O528 1.258 . S
C540 O529 1.274 . S
C540 C534 1.495 . S
C541 N508 1.432 . S
C541 C542 1.381 . S
C541 C546 1.385 . S
C542 C541 1.381 . S
C542 C543 1.371 . S
C542 H564 0.932 . S
C543 C542 1.371 . S
C543 C544 1.400 . S
C544 C543 1.400 . S
C544 C545 1.351 . S
C544 H565 0.930 . S
C545 C544 1.351 . S
C545 C546 1.388 . S
C546 C541 1.385 . S
C546 C545 1.388 . S
C546 H566 0.929 . S
C547 C486 1.504 . S
C547 N517 1.309 . S
C547 O548 1.258 . S
O548 C547 1.258 . S
H549 C487 0.929 . S
H550 C488 0.932 . S
H551 C489 0.931 . S
H552 C494 0.929 . S
H553 C496 0.929 . S
H554 C498 0.931 . S
H555 C503 0.929 . S
H556 C505 0.932 . S
H557 C506 0.931 . S
H558 C511 0.930 . S
H559 C512 0.931 . S
H560 C513 0.930 . S
H561 C533 0.929 . S
H562 C535 0.930 . S
H563 C537 0.930 . S
H564 C542 0.932 . S
H565 C544 0.930 . S
H566 C546 0.929 . S
C567 C568 1.359 . S
C567 N572 1.330 . S
C567 C628 1.504 . S
C568 C567 1.359 . S
C568 C569 1.366 . S
C568 H630 0.929 . S
C569 C568 1.366 . S
C569 C570 1.415 . S
C569 H631 0.932 . S
C570 C569 1.415 . S
C570 C571 1.366 . S
C570 H632 0.931 . S
C571 C570 1.366 . S
C571 N572 1.325 . S
C571 C573 1.516 . S
N572 C567 1.330 . S
N572 C571 1.325 . S
N572 Co588 1.869 . S
C573 C571 1.516 . S
C573 N597 1.316 . S
C573 O620 1.263 . S
C574 C575 1.421 . S
C574 C579 1.360 . S
C574 N597 1.436 . S
C575 C574 1.421 . S
C575 C576 1.379 . S
C575 H633 0.929 . S
C576 C575 1.379 . S
C576 C577 1.417 . S
C577 C576 1.417 . S
C577 C578 1.352 . S
C577 H634 0.929 . S
C578 C577 1.352 . S
C578 C579 1.393 . S
C579 C574 1.360 . S
C579 C578 1.393 . S
C579 H635 0.931 . S
Cd580 O600 2.329 . S
Cd580 O602 2.350 . S
Cd580 O603 2.277 . S
Cd580 O605 2.173 . S
Cd580 O609 2.263 . S
Cd580 O620 2.366 . S
Cd581 O599 2.352 . S
Cd581 O606 2.250 . S
Cd581 O610 2.308 . S
C582 C586 1.403 . S
C582 C587 1.370 . S
C582 N598 1.423 . S
C583 C584 1.389 . S
C583 C587 1.389 . S
C584 C583 1.389 . S
C584 C585 1.379 . S
C584 H636 0.929 . S
C585 C584 1.379 . S
C585 C586 1.405 . S
C586 C582 1.403 . S
C586 C585 1.405 . S
C586 H637 0.932 . S
C587 C582 1.370 . S
C587 C583 1.389 . S
C587 H638 0.931 . S
Co588 N572 1.869 . S
Co588 N589 1.955 . S
Co588 N590 1.864 . S
Co588 N596 1.958 . S
Co588 N597 1.953 . S
Co588 N598 1.974 . S
N589 Co588 1.955 . S
N589 C607 1.329 . S
N589 C622 1.432 . S
N590 Co588 1.864 . S
N590 C591 1.327 . S
N590 C595 1.342 . S
C591 N590 1.327 . S
C591 C592 1.407 . S
C591 C607 1.481 . S
C592 C591 1.407 . S
C592 C593 1.364 . S
C592 H639 0.930 . S
C593 C592 1.364 . S
C593 C594 1.390 . S
C593 H640 0.931 . S
C594 C593 1.390 . S
C594 C595 1.346 . S
C594 H641 0.930 . S
C595 N590 1.342 . S
C595 C594 1.346 . S
C595 C611 1.516 . S
N596 Co588 1.958 . S
N596 C611 1.324 . S
N596 C613 1.427 . S
N597 C573 1.316 . S
N597 C574 1.436 . S
N597 Co588 1.953 . S
N598 C582 1.423 . S
N598 Co588 1.974 . S
N598 C628 1.309 . S
O599 Cd581 2.352 . S
O599 C619 1.235 . S
O600 Cd580 2.329 . S
O600 C619 1.270 . S
C601 O602 1.270 . S
C601 O603 1.248 . S
O602 Cd580 2.350 . S
O602 C601 1.270 . S
O603 Cd580 2.277 . S
O603 C601 1.248 . S
C604 O605 1.277 . S
C604 O606 1.230 . S
O605 Cd580 2.173 . S
O605 C604 1.277 . S
O606 Cd581 2.250 . S
O606 C604 1.230 . S
C607 N589 1.329 . S
C607 C591 1.481 . S
C607 O608 1.246 . S
O608 C607 1.246 . S
O609 Cd580 2.263 . S
O609 C621 1.258 . S
O610 Cd581 2.308 . S
O610 C621 1.274 . S
C611 C595 1.516 . S
C611 N596 1.324 . S
C611 O612 1.238 . S
O612 C611 1.238 . S
C613 N596 1.427 . S
C613 C614 1.394 . S
C613 C618 1.395 . S
C614 C613 1.394 . S
C614 C615 1.380 . S
C614 H642 0.929 . S
C615 C614 1.380 . S
C615 C616 1.384 . S
C615 C621 1.495 . S
C616 C615 1.384 . S
C616 C617 1.382 . S
C616 H643 0.930 . S
C617 C616 1.382 . S
C617 C618 1.398 . S
C618 C613 1.395 . S
C618 C617 1.398 . S
C618 H644 0.930 . S
C619 O599 1.235 . S
C619 O600 1.270 . S
O620 C573 1.263 . S
O620 Cd580 2.366 . S
C621 O609 1.258 . S
C621 O610 1.274 . S
C621 C615 1.495 . S
C622 N589 1.432 . S
C622 C623 1.381 . S
C622 C627 1.385 . S
C623 C622 1.381 . S
C623 C624 1.371 . S
C623 H645 0.932 . S
C624 C623 1.371 . S
C624 C625 1.400 . S
C625 C624 1.400 . S
C625 C626 1.351 . S
C625 H646 0.930 . S
C626 C625 1.351 . S
C626 C627 1.388 . S
C627 C622 1.385 . S
C627 C626 1.388 . S
C627 H647 0.929 . S
C628 C567 1.504 . S
C628 N598 1.309 . S
C628 O629 1.258 . S
O629 C628 1.258 . S
H630 C568 0.929 . S
H631 C569 0.932 . S
H632 C570 0.931 . S
H633 C575 0.929 . S
H634 C577 0.929 . S
H635 C579 0.931 . S
H636 C584 0.929 . S
H637 C586 0.932 . S
H638 C587 0.931 . S
H639 C592 0.930 . S
H640 C593 0.931 . S
H641 C594 0.930 . S
H642 C614 0.929 . S
H643 C616 0.930 . S
H644 C618 0.930 . S
H645 C623 0.932 . S
H646 C625 0.930 . S
H647 C627 0.929 . S
C648 C649 1.359 . S
C648 N653 1.330 . S
C648 C709 1.504 . S
C649 C648 1.359 . S
C649 C650 1.366 . S
C649 H711 0.929 . S
C650 C649 1.366 . S
C650 C651 1.415 . S
C650 H712 0.932 . S
C651 C650 1.415 . S
C651 C652 1.366 . S
C651 H713 0.931 . S
C652 C651 1.366 . S
C652 N653 1.325 . S
C652 C654 1.516 . S
N653 C648 1.330 . S
N653 C652 1.325 . S
N653 Co669 1.869 . S
C654 C652 1.516 . S
C654 N678 1.316 . S
C654 O701 1.263 . S
C655 C656 1.421 . S
C655 C660 1.360 . S
C655 N678 1.436 . S
C656 C655 1.421 . S
C656 C657 1.379 . S
C656 H714 0.929 . S
C657 C656 1.379 . S
C657 C658 1.417 . S
C658 C657 1.417 . S
C658 C659 1.352 . S
C658 H715 0.929 . S
C659 C658 1.352 . S
C659 C660 1.393 . S
C660 C655 1.360 . S
C660 C659 1.393 . S
C660 H716 0.931 . S
Cd661 O681 2.329 . S
Cd661 O683 2.350 . S
Cd661 O684 2.277 . S
Cd661 O686 2.173 . S
Cd661 O690 2.263 . S
Cd661 O701 2.366 . S
Cd662 O680 2.352 . S
Cd662 O687 2.250 . S
Cd662 O691 2.308 . S
C663 C667 1.403 . S
C663 C668 1.370 . S
C663 N679 1.423 . S
C664 C665 1.389 . S
C664 C668 1.389 . S
C665 C664 1.389 . S
C665 C666 1.379 . S
C665 H717 0.929 . S
C666 C665 1.379 . S
C666 C667 1.405 . S
C667 C663 1.403 . S
C667 C666 1.405 . S
C667 H718 0.932 . S
C668 C663 1.370 . S
C668 C664 1.389 . S
C668 H719 0.931 . S
Co669 N653 1.869 . S
Co669 N670 1.955 . S
Co669 N671 1.864 . S
Co669 N677 1.958 . S
Co669 N678 1.953 . S
Co669 N679 1.974 . S
N670 Co669 1.955 . S
N670 C688 1.329 . S
N670 C703 1.432 . S
N671 Co669 1.864 . S
N671 C672 1.327 . S
N671 C676 1.342 . S
C672 N671 1.327 . S
C672 C673 1.407 . S
C672 C688 1.481 . S
C673 C672 1.407 . S
C673 C674 1.364 . S
C673 H720 0.930 . S
C674 C673 1.364 . S
C674 C675 1.390 . S
C674 H721 0.931 . S
C675 C674 1.390 . S
C675 C676 1.346 . S
C675 H722 0.930 . S
C676 N671 1.342 . S
C676 C675 1.346 . S
C676 C692 1.516 . S
N677 Co669 1.958 . S
N677 C692 1.324 . S
N677 C694 1.427 . S
N678 C654 1.316 . S
N678 C655 1.436 . S
N678 Co669 1.953 . S
N679 C663 1.423 . S
N679 Co669 1.974 . S
N679 C709 1.309 . S
O680 Cd662 2.352 . S
O680 C700 1.235 . S
O681 Cd661 2.329 . S
O681 C700 1.270 . S
C682 O683 1.270 . S
C682 O684 1.248 . S
O683 Cd661 2.350 . S
O683 C682 1.270 . S
O684 Cd661 2.277 . S
O684 C682 1.248 . S
C685 O686 1.277 . S
C685 O687 1.230 . S
O686 Cd661 2.173 . S
O686 C685 1.277 . S
O687 Cd662 2.250 . S
O687 C685 1.230 . S
C688 N670 1.329 . S
C688 C672 1.481 . S
C688 O689 1.246 . S
O689 C688 1.246 . S
O690 Cd661 2.263 . S
O690 C702 1.258 . S
O691 Cd662 2.308 . S
O691 C702 1.274 . S
C692 C676 1.516 . S
C692 N677 1.324 . S
C692 O693 1.238 . S
O693 C692 1.238 . S
C694 N677 1.427 . S
C694 C695 1.394 . S
C694 C699 1.395 . S
C695 C694 1.394 . S
C695 C696 1.380 . S
C695 H723 0.929 . S
C696 C695 1.380 . S
C696 C697 1.384 . S
C696 C702 1.495 . S
C697 C696 1.384 . S
C697 C698 1.382 . S
C697 H724 0.930 . S
C698 C697 1.382 . S
C698 C699 1.398 . S
C699 C694 1.395 . S
C699 C698 1.398 . S
C699 H725 0.930 . S
C700 O680 1.235 . S
C700 O681 1.270 . S
O701 C654 1.263 . S
O701 Cd661 2.366 . S
C702 O690 1.258 . S
C702 O691 1.274 . S
C702 C696 1.495 . S
C703 N670 1.432 . S
C703 C704 1.381 . S
C703 C708 1.385 . S
C704 C703 1.381 . S
C704 C705 1.371 . S
C704 H726 0.932 . S
C705 C704 1.371 . S
C705 C706 1.400 . S
C706 C705 1.400 . S
C706 C707 1.351 . S
C706 H727 0.930 . S
C707 C706 1.351 . S
C707 C708 1.388 . S
C708 C703 1.385 . S
C708 C707 1.388 . S
C708 H728 0.929 . S
C709 C648 1.504 . S
C709 N679 1.309 . S
C709 O710 1.258 . S
O710 C709 1.258 . S
H711 C649 0.929 . S
H712 C650 0.932 . S
H713 C651 0.931 . S
H714 C656 0.929 . S
H715 C658 0.929 . S
H716 C660 0.931 . S
H717 C665 0.929 . S
H718 C667 0.932 . S
H719 C668 0.931 . S
H720 C673 0.930 . S
H721 C674 0.931 . S
H722 C675 0.930 . S
H723 C695 0.929 . S
H724 C697 0.930 . S
H725 C699 0.930 . S
H726 C704 0.932 . S
H727 C706 0.930 . S
H728 C708 0.929 . S
C729 C730 1.359 . S
C729 N734 1.330 . S
C729 C790 1.504 . S
C730 C729 1.359 . S
C730 C731 1.366 . S
C730 H792 0.929 . S
C731 C730 1.366 . S
C731 C732 1.415 . S
C731 H793 0.932 . S
C732 C731 1.415 . S
C732 C733 1.366 . S
C732 H794 0.931 . S
C733 C732 1.366 . S
C733 N734 1.325 . S
C733 C735 1.558 . S
N734 C729 1.330 . S
N734 C733 1.325 . S
N734 Co750 1.844 1_545 S
C735 C733 1.558 . S
C735 N759 1.257 1_545 S
C735 O782 1.286 1_545 S
C736 C737 1.421 . S
C736 C741 1.360 . S
C736 N759 1.436 . S
C737 C736 1.421 . S
C737 C738 1.379 . S
C737 H795 0.929 . S
C738 C737 1.379 . S
C738 C739 1.417 . S
C739 C738 1.417 . S
C739 C740 1.352 . S
C739 H796 0.929 . S
C740 C739 1.352 . S
C740 C741 1.393 . S
C741 C736 1.360 . S
C741 C740 1.393 . S
C741 H797 0.931 . S
Cd742 O762 2.329 . S
Cd742 O764 2.350 . S
Cd742 O765 2.277 . S
Cd742 O767 2.173 1_565 S
Cd742 O771 2.263 . S
Cd742 O782 2.366 . S
Cd743 O761 2.352 . S
Cd743 O768 2.250 . S
Cd743 O772 2.308 . S
C744 C748 1.403 . S
C744 C749 1.367 . S
C744 N760 1.423 . S
C745 C746 1.389 1_565 S
C745 C749 1.390 1_565 S
C746 C745 1.389 1_545 S
C746 C747 1.379 . S
C746 H798 0.929 1_545 S
C747 C746 1.379 . S
C747 C748 1.405 . S
C748 C744 1.403 . S
C748 C747 1.405 . S
C748 H799 0.932 . S
C749 C744 1.367 . S
C749 C745 1.390 1_545 S
C749 H800 0.932 1_545 S
Co750 N734 1.844 1_565 S
Co750 N751 1.946 1_565 S
Co750 N752 1.890 . S
Co750 N758 1.975 . S
Co750 N759 1.950 . S
Co750 N760 1.969 1_565 S
N751 Co750 1.946 1_545 S
N751 C769 1.329 1_545 S
N751 C784 1.432 . S
N752 Co750 1.890 . S
N752 C753 1.327 . S
N752 C757 1.342 . S
C753 N752 1.327 . S
C753 C754 1.407 . S
C753 C769 1.481 . S
C754 C753 1.407 . S
C754 C755 1.364 . S
C754 H801 0.930 . S
C755 C754 1.364 . S
C755 C756 1.390 . S
C755 H802 0.931 . S
C756 C755 1.390 . S
C756 C757 1.346 . S
C756 H803 0.930 . S
C757 N752 1.342 . S
C757 C756 1.346 . S
C757 C773 1.516 . S
N758 Co750 1.975 . S
N758 C773 1.324 . S
N758 C775 1.427 . S
N759 C735 1.257 1_565 S
N759 C736 1.436 . S
N759 Co750 1.950 . S
N760 C744 1.423 . S
N760 Co750 1.969 1_545 S
N760 C790 1.309 . S
O761 Cd743 2.352 . S
O761 C781 1.235 1_545 S
O762 Cd742 2.329 . S
O762 C781 1.270 . S
C763 O764 1.270 . S
C763 O765 1.248 . S
O764 Cd742 2.350 . S
O764 C763 1.270 . S
O765 Cd742 2.277 . S
O765 C763 1.248 . S
C766 O767 1.277 . S
C766 O768 1.230 . S
O767 Cd742 2.173 1_545 S
O767 C766 1.277 . S
O768 Cd743 2.250 . S
O768 C766 1.230 . S
C769 N751 1.329 1_565 S
C769 C753 1.481 . S
C769 O770 1.246 . S
O770 C769 1.246 . S
O771 Cd742 2.263 . S
O771 C783 1.258 1_565 S
O772 Cd743 2.308 . S
O772 C783 1.274 . S
C773 C757 1.516 . S
C773 N758 1.324 . S
C773 O774 1.238 . S
O774 C773 1.238 . S
C775 N758 1.427 . S
C775 C776 1.394 . S
C775 C780 1.395 1_565 S
C776 C775 1.394 . S
C776 C777 1.380 1_565 S
C776 H804 0.929 . S
C777 C776 1.380 1_545 S
C777 C778 1.384 . S
C777 C783 1.495 . S
C778 C777 1.384 . S
C778 C779 1.382 . S
C778 H805 0.930 . S
C779 C778 1.382 . S
C779 C780 1.398 . S
C780 C775 1.395 1_545 S
C780 C779 1.398 . S
C780 H806 0.930 . S
C781 O761 1.235 1_565 S
C781 O762 1.270 . S
O782 C735 1.286 1_565 S
O782 Cd742 2.366 . S
C783 O771 1.258 1_545 S
C783 O772 1.274 . S
C783 C777 1.495 . S
C784 N751 1.432 . S
C784 C785 1.381 . S
C784 C789 1.385 . S
C785 C784 1.381 . S
C785 C786 1.371 . S
C785 H807 0.932 . S
C786 C785 1.371 . S
C786 C787 1.400 . S
C787 C786 1.400 . S
C787 C788 1.351 . S
C787 H808 0.930 . S
C788 C787 1.351 . S
C788 C789 1.388 . S
C789 C784 1.385 . S
C789 C788 1.388 . S
C789 H809 0.929 . S
C790 C729 1.504 . S
C790 N760 1.309 . S
C790 O791 1.258 . S
O791 C790 1.258 . S
H792 C730 0.929 . S
H793 C731 0.932 . S
H794 C732 0.931 . S
H795 C737 0.929 . S
H796 C739 0.929 . S
H797 C741 0.931 . S
H798 C746 0.929 1_565 S
H799 C748 0.932 . S
H800 C749 0.932 1_565 S
H801 C754 0.930 . S
H802 C755 0.931 . S
H803 C756 0.930 . S
H804 C776 0.929 . S
H805 C778 0.930 . S
H806 C780 0.930 . S
H807 C785 0.932 . S
H808 C787 0.930 . S
H809 C789 0.929 . S
C810 C811 1.359 . S
C810 N815 1.330 . S
C810 C871 1.504 . S
C811 C810 1.359 . S
C811 C812 1.366 . S
C811 H873 0.929 . S
C812 C811 1.366 . S
C812 C813 1.415 . S
C812 H874 0.932 . S
C813 C812 1.415 . S
C813 C814 1.366 . S
C813 H875 0.931 . S
C814 C813 1.366 . S
C814 N815 1.325 . S
C814 C816 1.584 . S
N815 C810 1.330 . S
N815 C814 1.325 . S
N815 Co831 1.854 1_655 S
C816 C814 1.584 . S
C816 N840 1.300 1_655 S
C816 O863 1.223 1_655 S
C817 C818 1.421 . S
C817 C822 1.360 . S
C817 N840 1.436 . S
C818 C817 1.421 . S
C818 C819 1.379 . S
C818 H876 0.929 . S
C819 C818 1.379 . S
C819 C820 1.417 . S
C820 C819 1.417 . S
C820 C821 1.352 . S
C820 H877 0.929 . S
C821 C820 1.352 . S
C821 C822 1.393 . S
C822 C817 1.360 . S
C822 C821 1.393 . S
C822 H878 0.931 . S
Cd823 O843 2.329 . S
Cd823 O845 2.350 . S
Cd823 O846 2.277 . S
Cd823 O848 2.173 1_455 S
Cd823 O852 2.263 . S
Cd823 O863 2.366 . S
Cd824 O842 2.352 . S
Cd824 O849 2.250 . S
Cd824 O853 2.308 . S
C825 C829 1.403 . S
C825 C830 1.369 . S
C825 N841 1.423 . S
C826 C827 1.389 1_455 S
C826 C830 1.388 1_455 S
C827 C826 1.389 1_655 S
C827 C828 1.379 . S
C827 H879 0.929 1_655 S
C828 C827 1.379 . S
C828 C829 1.405 . S
C829 C825 1.403 . S
C829 C828 1.405 . S
C829 H880 0.932 . S
C830 C825 1.369 . S
C830 C826 1.388 1_655 S
C830 H881 0.932 1_655 S
Co831 N815 1.854 1_455 S
Co831 N832 1.958 1_455 S
Co831 N833 1.880 . S
Co831 N839 1.961 . S
Co831 N840 1.976 . S
Co831 N841 1.946 1_455 S
N832 Co831 1.958 1_655 S
N832 C850 1.329 1_655 S
N832 C865 1.432 . S
N833 Co831 1.880 . S
N833 C834 1.327 . S
N833 C838 1.342 . S
C834 N833 1.327 . S
C834 C835 1.407 . S
C834 C850 1.481 . S
C835 C834 1.407 . S
C835 C836 1.364 . S
C835 H882 0.930 . S
C836 C835 1.364 . S
C836 C837 1.390 . S
C836 H883 0.931 . S
C837 C836 1.390 . S
C837 C838 1.346 . S
C837 H884 0.930 . S
C838 N833 1.342 . S
C838 C837 1.346 . S
C838 C854 1.516 . S
N839 Co831 1.961 . S
N839 C854 1.324 . S
N839 C856 1.427 . S
N840 C816 1.300 1_455 S
N840 C817 1.436 . S
N840 Co831 1.976 . S
N841 C825 1.423 . S
N841 Co831 1.946 1_655 S
N841 C871 1.309 . S
O842 Cd824 2.352 . S
O842 C862 1.235 1_655 S
O843 Cd823 2.329 . S
O843 C862 1.270 . S
C844 O845 1.270 . S
C844 O846 1.248 . S
O845 Cd823 2.350 . S
O845 C844 1.270 . S
O846 Cd823 2.277 . S
O846 C844 1.248 . S
C847 O848 1.277 . S
C847 O849 1.230 . S
O848 Cd823 2.173 1_655 S
O848 C847 1.277 . S
O849 Cd824 2.250 . S
O849 C847 1.230 . S
C850 N832 1.329 1_455 S
C850 C834 1.481 . S
C850 O851 1.246 . S
O851 C850 1.246 . S
O852 Cd823 2.263 . S
O852 C864 1.258 1_455 S
O853 Cd824 2.308 . S
O853 C864 1.274 . S
C854 C838 1.516 . S
C854 N839 1.324 . S
C854 O855 1.238 . S
O855 C854 1.238 . S
C856 N839 1.427 . S
C856 C857 1.394 . S
C856 C861 1.395 1_455 S
C857 C856 1.394 . S
C857 C858 1.380 1_455 S
C857 H885 0.929 . S
C858 C857 1.380 1_655 S
C858 C859 1.384 . S
C858 C864 1.495 . S
C859 C858 1.384 . S
C859 C860 1.382 . S
C859 H886 0.930 . S
C860 C859 1.382 . S
C860 C861 1.398 . S
C861 C856 1.395 1_655 S
C861 C860 1.398 . S
C861 H887 0.930 . S
C862 O842 1.235 1_455 S
C862 O843 1.270 . S
O863 C816 1.223 1_455 S
O863 Cd823 2.366 . S
C864 O852 1.258 1_655 S
C864 O853 1.274 . S
C864 C858 1.495 . S
C865 N832 1.432 . S
C865 C866 1.381 . S
C865 C870 1.385 . S
C866 C865 1.381 . S
C866 C867 1.371 . S
C866 H888 0.932 . S
C867 C866 1.371 . S
C867 C868 1.400 . S
C868 C867 1.400 . S
C868 C869 1.351 . S
C868 H889 0.930 . S
C869 C868 1.351 . S
C869 C870 1.388 . S
C870 C865 1.385 . S
C870 C869 1.388 . S
C870 H890 0.929 . S
C871 C810 1.504 . S
C871 N841 1.309 . S
C871 O872 1.258 . S
O872 C871 1.258 . S
H873 C811 0.929 . S
H874 C812 0.932 . S
H875 C813 0.931 . S
H876 C818 0.929 . S
H877 C820 0.929 . S
H878 C822 0.931 . S
H879 C827 0.929 1_455 S
H880 C829 0.932 . S
H881 C830 0.932 1_455 S
H882 C835 0.930 . S
H883 C836 0.931 . S
H884 C837 0.930 . S
H885 C857 0.929 . S
H886 C859 0.930 . S
H887 C861 0.930 . S
H888 C866 0.932 . S
H889 C868 0.930 . S
H890 C870 0.929 . S
C891 C892 1.359 . S
C891 N896 1.330 . S
C891 C952 1.504 . S
C892 C891 1.359 . S
C892 C893 1.366 . S
C892 H954 0.929 . S
C893 C892 1.366 . S
C893 C894 1.415 . S
C893 H955 0.932 . S
C894 C893 1.415 . S
C894 C895 1.366 . S
C894 H956 0.931 . S
C895 C894 1.366 . S
C895 N896 1.325 . S
C895 C897 1.516 . S
N896 C891 1.330 . S
N896 C895 1.325 . S
N896 Co912 1.869 . S
C897 C895 1.516 . S
C897 N921 1.316 . S
C897 O944 1.263 . S
C898 C899 1.421 . S
C898 C903 1.360 . S
C898 N921 1.436 . S
C899 C898 1.421 . S
C899 C900 1.379 . S
C899 H957 0.929 . S
C900 C899 1.379 . S
C900 C901 1.417 . S
C901 C900 1.417 . S
C901 C902 1.352 . S
C901 H958 0.929 . S
C902 C901 1.352 . S
C902 C903 1.393 . S
C903 C898 1.360 . S
C903 C902 1.393 . S
C903 H959 0.931 . S
Cd904 O924 2.329 . S
Cd904 O926 2.350 . S
Cd904 O927 2.277 . S
Cd904 O929 2.173 . S
Cd904 O933 2.263 . S
Cd904 O944 2.366 . S
Cd905 O923 2.352 . S
Cd905 O930 2.250 . S
Cd905 O934 2.308 . S
C906 C910 1.403 . S
C906 C911 1.370 . S
C906 N922 1.423 . S
C907 C908 1.389 . S
C907 C911 1.389 . S
C908 C907 1.389 . S
C908 C909 1.379 . S
C908 H960 0.929 . S
C909 C908 1.379 . S
C909 C910 1.405 . S
C910 C906 1.403 . S
C910 C909 1.405 . S
C910 H961 0.932 . S
C911 C906 1.370 . S
C911 C907 1.389 . S
C911 H962 0.931 . S
Co912 N896 1.869 . S
Co912 N913 1.955 . S
Co912 N914 1.864 . S
Co912 N920 1.958 . S
Co912 N921 1.953 . S
Co912 N922 1.974 . S
N913 Co912 1.955 . S
N913 C931 1.329 . S
N913 C946 1.432 . S
N914 Co912 1.864 . S
N914 C915 1.327 . S
N914 C919 1.342 . S
C915 N914 1.327 . S
C915 C916 1.407 . S
C915 C931 1.481 . S
C916 C915 1.407 . S
C916 C917 1.364 . S
C916 H963 0.930 . S
C917 C916 1.364 . S
C917 C918 1.390 . S
C917 H964 0.931 . S
C918 C917 1.390 . S
C918 C919 1.346 . S
C918 H965 0.930 . S
C919 N914 1.342 . S
C919 C918 1.346 . S
C919 C935 1.516 . S
N920 Co912 1.958 . S
N920 C935 1.324 . S
N920 C937 1.427 . S
N921 C897 1.316 . S
N921 C898 1.436 . S
N921 Co912 1.953 . S
N922 C906 1.423 . S
N922 Co912 1.974 . S
N922 C952 1.309 . S
O923 Cd905 2.352 . S
O923 C943 1.235 . S
O924 Cd904 2.329 . S
O924 C943 1.270 . S
C925 O926 1.270 . S
C925 O927 1.248 . S
O926 Cd904 2.350 . S
O926 C925 1.270 . S
O927 Cd904 2.277 . S
O927 C925 1.248 . S
C928 O929 1.277 . S
C928 O930 1.230 . S
O929 Cd904 2.173 . S
O929 C928 1.277 . S
O930 Cd905 2.250 . S
O930 C928 1.230 . S
C931 N913 1.329 . S
C931 C915 1.481 . S
C931 O932 1.246 . S
O932 C931 1.246 . S
O933 Cd904 2.263 . S
O933 C945 1.258 . S
O934 Cd905 2.308 . S
O934 C945 1.274 . S
C935 C919 1.516 . S
C935 N920 1.324 . S
C935 O936 1.238 . S
O936 C935 1.238 . S
C937 N920 1.427 . S
C937 C938 1.394 . S
C937 C942 1.395 . S
C938 C937 1.394 . S
C938 C939 1.380 . S
C938 H966 0.929 . S
C939 C938 1.380 . S
C939 C940 1.384 . S
C939 C945 1.495 . S
C940 C939 1.384 . S
C940 C941 1.382 . S
C940 H967 0.930 . S
C941 C940 1.382 . S
C941 C942 1.398 . S
C942 C937 1.395 . S
C942 C941 1.398 . S
C942 H968 0.930 . S
C943 O923 1.235 . S
C943 O924 1.270 . S
O944 C897 1.263 . S
O944 Cd904 2.366 . S
C945 O933 1.258 . S
C945 O934 1.274 . S
C945 C939 1.495 . S
C946 N913 1.432 . S
C946 C947 1.381 . S
C946 C951 1.385 . S
C947 C946 1.381 . S
C947 C948 1.371 . S
C947 H969 0.932 . S
C948 C947 1.371 . S
C948 C949 1.400 . S
C949 C948 1.400 . S
C949 C950 1.351 . S
C949 H970 0.930 . S
C950 C949 1.351 . S
C950 C951 1.388 . S
C951 C946 1.385 . S
C951 C950 1.388 . S
C951 H971 0.929 . S
C952 C891 1.504 . S
C952 N922 1.309 . S
C952 O953 1.258 . S
O953 C952 1.258 . S
H954 C892 0.929 . S
H955 C893 0.932 . S
H956 C894 0.931 . S
H957 C899 0.929 . S
H958 C901 0.929 . S
H959 C903 0.931 . S
H960 C908 0.929 . S
H961 C910 0.932 . S
H962 C911 0.931 . S
H963 C916 0.930 . S
H964 C917 0.931 . S
H965 C918 0.930 . S
H966 C938 0.929 . S
H967 C940 0.930 . S
H968 C942 0.930 . S
H969 C947 0.932 . S
H970 C949 0.930 . S
H971 C951 0.929 . S
C972 C973 1.359 . S
C972 N977 1.330 . S
C972 C1033 1.504 . S
C973 C972 1.359 . S
C973 C974 1.366 . S
C973 H1035 0.929 . S
C974 C973 1.366 . S
C974 C975 1.415 . S
C974 H1036 0.932 . S
C975 C974 1.415 . S
C975 C976 1.366 . S
C975 H1037 0.931 . S
C976 C975 1.366 . S
C976 N977 1.325 . S
C976 C978 1.558 . S
N977 C972 1.330 . S
N977 C976 1.325 . S
N977 Co993 1.844 1_565 S
C978 C976 1.558 . S
C978 N1002 1.257 1_565 S
C978 O1025 1.286 1_565 S
C979 C980 1.421 . S
C979 C984 1.360 . S
C979 N1002 1.436 . S
C980 C979 1.421 . S
C980 C981 1.379 . S
C980 H1038 0.929 . S
C981 C980 1.379 . S
C981 C982 1.417 . S
C982 C981 1.417 . S
C982 C983 1.352 . S
C982 H1039 0.929 . S
C983 C982 1.352 . S
C983 C984 1.393 . S
C984 C979 1.360 . S
C984 C983 1.393 . S
C984 H1040 0.931 . S
Cd985 O1005 2.329 . S
Cd985 O1007 2.350 . S
Cd985 O1008 2.277 . S
Cd985 O1010 2.173 1_545 S
Cd985 O1014 2.263 . S
Cd985 O1025 2.366 . S
Cd986 O1004 2.352 . S
Cd986 O1011 2.250 . S
Cd986 O1015 2.308 . S
C987 C991 1.403 . S
C987 C992 1.367 . S
C987 N1003 1.423 . S
C988 C989 1.389 1_545 S
C988 C992 1.390 1_545 S
C989 C988 1.389 1_565 S
C989 C990 1.379 . S
C989 H1041 0.929 1_565 S
C990 C989 1.379 . S
C990 C991 1.405 . S
C991 C987 1.403 . S
C991 C990 1.405 . S
C991 H1042 0.932 . S
C992 C987 1.367 . S
C992 C988 1.390 1_565 S
C992 H1043 0.932 1_565 S
Co993 N977 1.844 1_545 S
Co993 N994 1.946 1_545 S
Co993 N995 1.890 . S
Co993 N1001 1.975 . S
Co993 N1002 1.950 . S
Co993 N1003 1.969 1_545 S
N994 Co993 1.946 1_565 S
N994 C1012 1.329 1_565 S
N994 C1027 1.432 . S
N995 Co993 1.890 . S
N995 C996 1.327 . S
N995 C1000 1.342 . S
C996 N995 1.327 . S
C996 C997 1.407 . S
C996 C1012 1.481 . S
C997 C996 1.407 . S
C997 C998 1.364 . S
C997 H1044 0.930 . S
C998 C997 1.364 . S
C998 C999 1.390 . S
C998 H1045 0.931 . S
C999 C998 1.390 . S
C999 C1000 1.346 . S
C999 H1046 0.930 . S
C1000 N995 1.342 . S
C1000 C999 1.346 . S
C1000 C1016 1.516 . S
N1001 Co993 1.975 . S
N1001 C1016 1.324 . S
N1001 C1018 1.427 . S
N1002 C978 1.257 1_545 S
N1002 C979 1.436 . S
N1002 Co993 1.950 . S
N1003 C987 1.423 . S
N1003 Co993 1.969 1_565 S
N1003 C1033 1.309 . S
O1004 Cd986 2.352 . S
O1004 C1024 1.235 1_565 S
O1005 Cd985 2.329 . S
O1005 C1024 1.270 . S
C1006 O1007 1.270 . S
C1006 O1008 1.248 . S
O1007 Cd985 2.350 . S
O1007 C1006 1.270 . S
O1008 Cd985 2.277 . S
O1008 C1006 1.248 . S
C1009 O1010 1.277 . S
C1009 O1011 1.230 . S
O1010 Cd985 2.173 1_565 S
O1010 C1009 1.277 . S
O1011 Cd986 2.250 . S
O1011 C1009 1.230 . S
C1012 N994 1.329 1_545 S
C1012 C996 1.481 . S
C1012 O1013 1.246 . S
O1013 C1012 1.246 . S
O1014 Cd985 2.263 . S
O1014 C1026 1.258 1_545 S
O1015 Cd986 2.308 . S
O1015 C1026 1.274 . S
C1016 C1000 1.516 . S
C1016 N1001 1.324 . S
C1016 O1017 1.238 . S
O1017 C1016 1.238 . S
C1018 N1001 1.427 . S
C1018 C1019 1.394 . S
C1018 C1023 1.395 1_545 S
C1019 C1018 1.394 . S
C1019 C1020 1.380 1_545 S
C1019 H1047 0.929 . S
C1020 C1019 1.380 1_565 S
C1020 C1021 1.384 . S
C1020 C1026 1.495 . S
C1021 C1020 1.384 . S
C1021 C1022 1.382 . S
C1021 H1048 0.930 . S
C1022 C1021 1.382 . S
C1022 C1023 1.398 . S
C1023 C1018 1.395 1_565 S
C1023 C1022 1.398 . S
C1023 H1049 0.930 . S
C1024 O1004 1.235 1_545 S
C1024 O1005 1.270 . S
O1025 C978 1.286 1_545 S
O1025 Cd985 2.366 . S
C1026 O1014 1.258 1_565 S
C1026 O1015 1.274 . S
C1026 C1020 1.495 . S
C1027 N994 1.432 . S
C1027 C1028 1.381 . S
C1027 C1032 1.385 . S
C1028 C1027 1.381 . S
C1028 C1029 1.371 . S
C1028 H1050 0.932 . S
C1029 C1028 1.371 . S
C1029 C1030 1.400 . S
C1030 C1029 1.400 . S
C1030 C1031 1.351 . S
C1030 H1051 0.930 . S
C1031 C1030 1.351 . S
C1031 C1032 1.388 . S
C1032 C1027 1.385 . S
C1032 C1031 1.388 . S
C1032 H1052 0.929 . S
C1033 C972 1.504 . S
C1033 N1003 1.309 . S
C1033 O1034 1.258 . S
O1034 C1033 1.258 . S
H1035 C973 0.929 . S
H1036 C974 0.932 . S
H1037 C975 0.931 . S
H1038 C980 0.929 . S
H1039 C982 0.929 . S
H1040 C984 0.931 . S
H1041 C989 0.929 1_545 S
H1042 C991 0.932 . S
H1043 C992 0.932 1_545 S
H1044 C997 0.930 . S
H1045 C998 0.931 . S
H1046 C999 0.930 . S
H1047 C1019 0.929 . S
H1048 C1021 0.930 . S
H1049 C1023 0.930 . S
H1050 C1028 0.932 . S
H1051 C1030 0.930 . S
H1052 C1032 0.929 . S
C1053 C1054 1.359 . S
C1053 N1058 1.330 . S
C1053 C1114 1.504 . S
C1054 C1053 1.359 . S
C1054 C1055 1.366 . S
C1054 H1116 0.929 . S
C1055 C1054 1.366 . S
C1055 C1056 1.415 . S
C1055 H1117 0.932 . S
C1056 C1055 1.415 . S
C1056 C1057 1.366 . S
C1056 H1118 0.931 . S
C1057 C1056 1.366 . S
C1057 N1058 1.325 . S
C1057 C1059 1.584 . S
N1058 C1053 1.330 . S
N1058 C1057 1.325 . S
N1058 Co1074 1.854 1_455 S
C1059 C1057 1.584 . S
C1059 N1083 1.300 1_455 S
C1059 O1106 1.223 1_455 S
C1060 C1061 1.421 . S
C1060 C1065 1.360 . S
C1060 N1083 1.436 . S
C1061 C1060 1.421 . S
C1061 C1062 1.379 . S
C1061 H1119 0.929 . S
C1062 C1061 1.379 . S
C1062 C1063 1.417 . S
C1063 C1062 1.417 . S
C1063 C1064 1.352 . S
C1063 H1120 0.929 . S
C1064 C1063 1.352 . S
C1064 C1065 1.393 . S
C1065 C1060 1.360 . S
C1065 C1064 1.393 . S
C1065 H1121 0.931 . S
Cd1066 O1086 2.329 . S
Cd1066 O1088 2.350 . S
Cd1066 O1089 2.277 . S
Cd1066 O1091 2.173 1_655 S
Cd1066 O1095 2.263 . S
Cd1066 O1106 2.366 . S
Cd1067 O1085 2.352 . S
Cd1067 O1092 2.250 . S
Cd1067 O1096 2.308 . S
C1068 C1072 1.403 . S
C1068 C1073 1.369 . S
C1068 N1084 1.423 . S
C1069 C1070 1.389 1_655 S
C1069 C1073 1.388 1_655 S
C1070 C1069 1.389 1_455 S
C1070 C1071 1.379 . S
C1070 H1122 0.929 1_455 S
C1071 C1070 1.379 . S
C1071 C1072 1.405 . S
C1072 C1068 1.403 . S
C1072 C1071 1.405 . S
C1072 H1123 0.932 . S
C1073 C1068 1.369 . S
C1073 C1069 1.388 1_455 S
C1073 H1124 0.932 1_455 S
Co1074 N1058 1.854 1_655 S
Co1074 N1075 1.958 1_655 S
Co1074 N1076 1.880 . S
Co1074 N1082 1.961 . S
Co1074 N1083 1.976 . S
Co1074 N1084 1.946 1_655 S
N1075 Co1074 1.958 1_455 S
N1075 C1093 1.329 1_455 S
N1075 C1108 1.432 . S
N1076 Co1074 1.880 . S
N1076 C1077 1.327 . S
N1076 C1081 1.342 . S
C1077 N1076 1.327 . S
C1077 C1078 1.407 . S
C1077 C1093 1.481 . S
C1078 C1077 1.407 . S
C1078 C1079 1.364 . S
C1078 H1125 0.930 . S
C1079 C1078 1.364 . S
C1079 C1080 1.390 . S
C1079 H1126 0.931 . S
C1080 C1079 1.390 . S
C1080 C1081 1.346 . S
C1080 H1127 0.930 . S
C1081 N1076 1.342 . S
C1081 C1080 1.346 . S
C1081 C1097 1.516 . S
N1082 Co1074 1.961 . S
N1082 C1097 1.324 . S
N1082 C1099 1.427 . S
N1083 C1059 1.300 1_655 S
N1083 C1060 1.436 . S
N1083 Co1074 1.976 . S
N1084 C1068 1.423 . S
N1084 Co1074 1.946 1_455 S
N1084 C1114 1.309 . S
O1085 Cd1067 2.352 . S
O1085 C1105 1.235 1_455 S
O1086 Cd1066 2.329 . S
O1086 C1105 1.270 . S
C1087 O1088 1.270 . S
C1087 O1089 1.248 . S
O1088 Cd1066 2.350 . S
O1088 C1087 1.270 . S
O1089 Cd1066 2.277 . S
O1089 C1087 1.248 . S
C1090 O1091 1.277 . S
C1090 O1092 1.230 . S
O1091 Cd1066 2.173 1_455 S
O1091 C1090 1.277 . S
O1092 Cd1067 2.250 . S
O1092 C1090 1.230 . S
C1093 N1075 1.329 1_655 S
C1093 C1077 1.481 . S
C1093 O1094 1.246 . S
O1094 C1093 1.246 . S
O1095 Cd1066 2.263 . S
O1095 C1107 1.258 1_655 S
O1096 Cd1067 2.308 . S
O1096 C1107 1.274 . S
C1097 C1081 1.516 . S
C1097 N1082 1.324 . S
C1097 O1098 1.238 . S
O1098 C1097 1.238 . S
C1099 N1082 1.427 . S
C1099 C1100 1.394 . S
C1099 C1104 1.395 1_655 S
C1100 C1099 1.394 . S
C1100 C1101 1.380 1_655 S
C1100 H1128 0.929 . S
C1101 C1100 1.380 1_455 S
C1101 C1102 1.384 . S
C1101 C1107 1.495 . S
C1102 C1101 1.384 . S
C1102 C1103 1.382 . S
C1102 H1129 0.930 . S
C1103 C1102 1.382 . S
C1103 C1104 1.398 . S
C1104 C1099 1.395 1_455 S
C1104 C1103 1.398 . S
C1104 H1130 0.930 . S
C1105 O1085 1.235 1_655 S
C1105 O1086 1.270 . S
O1106 C1059 1.223 1_655 S
O1106 Cd1066 2.366 . S
C1107 O1095 1.258 1_455 S
C1107 O1096 1.274 . S
C1107 C1101 1.495 . S
C1108 N1075 1.432 . S
C1108 C1109 1.381 . S
C1108 C1113 1.385 . S
C1109 C1108 1.381 . S
C1109 C1110 1.371 . S
C1109 H1131 0.932 . S
C1110 C1109 1.371 . S
C1110 C1111 1.400 . S
C1111 C1110 1.400 . S
C1111 C1112 1.351 . S
C1111 H1132 0.930 . S
C1112 C1111 1.351 . S
C1112 C1113 1.388 . S
C1113 C1108 1.385 . S
C1113 C1112 1.388 . S
C1113 H1133 0.929 . S
C1114 C1053 1.504 . S
C1114 N1084 1.309 . S
C1114 O1115 1.258 . S
O1115 C1114 1.258 . S
H1116 C1054 0.929 . S
H1117 C1055 0.932 . S
H1118 C1056 0.931 . S
H1119 C1061 0.929 . S
H1120 C1063 0.929 . S
H1121 C1065 0.931 . S
H1122 C1070 0.929 1_655 S
H1123 C1072 0.932 . S
H1124 C1073 0.932 1_655 S
H1125 C1078 0.930 . S
H1126 C1079 0.931 . S
H1127 C1080 0.930 . S
H1128 C1100 0.929 . S
H1129 C1102 0.930 . S
H1130 C1104 0.930 . S
H1131 C1109 0.932 . S
H1132 C1111 0.930 . S
H1133 C1113 0.929 . S
C1134 C1135 1.359 . S
C1134 N1139 1.330 . S
C1134 C1195 1.504 . S
C1135 C1134 1.359 . S
C1135 C1136 1.366 . S
C1135 H1197 0.929 . S
C1136 C1135 1.366 . S
C1136 C1137 1.415 . S
C1136 H1198 0.932 . S
C1137 C1136 1.415 . S
C1137 C1138 1.366 . S
C1137 H1199 0.931 . S
C1138 C1137 1.366 . S
C1138 N1139 1.325 . S
C1138 C1140 1.516 . S
N1139 C1134 1.330 . S
N1139 C1138 1.325 . S
N1139 Co1155 1.869 . S
C1140 C1138 1.516 . S
C1140 N1164 1.316 . S
C1140 O1187 1.263 . S
C1141 C1142 1.421 . S
C1141 C1146 1.360 . S
C1141 N1164 1.436 . S
C1142 C1141 1.421 . S
C1142 C1143 1.379 . S
C1142 H1200 0.929 . S
C1143 C1142 1.379 . S
C1143 C1144 1.417 . S
C1144 C1143 1.417 . S
C1144 C1145 1.352 . S
C1144 H1201 0.929 . S
C1145 C1144 1.352 . S
C1145 C1146 1.393 . S
C1146 C1141 1.360 . S
C1146 C1145 1.393 . S
C1146 H1202 0.931 . S
Cd1147 O1167 2.329 . S
Cd1147 O1169 2.350 . S
Cd1147 O1170 2.277 . S
Cd1147 O1172 2.173 . S
Cd1147 O1176 2.263 . S
Cd1147 O1187 2.366 . S
Cd1148 O1166 2.352 . S
Cd1148 O1173 2.250 . S
Cd1148 O1177 2.308 . S
C1149 C1153 1.403 . S
C1149 C1154 1.370 . S
C1149 N1165 1.423 . S
C1150 C1151 1.389 . S
C1150 C1154 1.389 . S
C1151 C1150 1.389 . S
C1151 C1152 1.379 . S
C1151 H1203 0.929 . S
C1152 C1151 1.379 . S
C1152 C1153 1.405 . S
C1153 C1149 1.403 . S
C1153 C1152 1.405 . S
C1153 H1204 0.932 . S
C1154 C1149 1.370 . S
C1154 C1150 1.389 . S
C1154 H1205 0.931 . S
Co1155 N1139 1.869 . S
Co1155 N1156 1.955 . S
Co1155 N1157 1.864 . S
Co1155 N1163 1.958 . S
Co1155 N1164 1.953 . S
Co1155 N1165 1.974 . S
N1156 Co1155 1.955 . S
N1156 C1174 1.329 . S
N1156 C1189 1.432 . S
N1157 Co1155 1.864 . S
N1157 C1158 1.327 . S
N1157 C1162 1.342 . S
C1158 N1157 1.327 . S
C1158 C1159 1.407 . S
C1158 C1174 1.481 . S
C1159 C1158 1.407 . S
C1159 C1160 1.364 . S
C1159 H1206 0.930 . S
C1160 C1159 1.364 . S
C1160 C1161 1.390 . S
C1160 H1207 0.931 . S
C1161 C1160 1.390 . S
C1161 C1162 1.346 . S
C1161 H1208 0.930 . S
C1162 N1157 1.342 . S
C1162 C1161 1.346 . S
C1162 C1178 1.516 . S
N1163 Co1155 1.958 . S
N1163 C1178 1.324 . S
N1163 C1180 1.427 . S
N1164 C1140 1.316 . S
N1164 C1141 1.436 . S
N1164 Co1155 1.953 . S
N1165 C1149 1.423 . S
N1165 Co1155 1.974 . S
N1165 C1195 1.309 . S
O1166 Cd1148 2.352 . S
O1166 C1186 1.235 . S
O1167 Cd1147 2.329 . S
O1167 C1186 1.270 . S
C1168 O1169 1.270 . S
C1168 O1170 1.248 . S
O1169 Cd1147 2.350 . S
O1169 C1168 1.270 . S
O1170 Cd1147 2.277 . S
O1170 C1168 1.248 . S
C1171 O1172 1.277 . S
C1171 O1173 1.230 . S
O1172 Cd1147 2.173 . S
O1172 C1171 1.277 . S
O1173 Cd1148 2.250 . S
O1173 C1171 1.230 . S
C1174 N1156 1.329 . S
C1174 C1158 1.481 . S
C1174 O1175 1.246 . S
O1175 C1174 1.246 . S
O1176 Cd1147 2.263 . S
O1176 C1188 1.258 . S
O1177 Cd1148 2.308 . S
O1177 C1188 1.274 . S
C1178 C1162 1.516 . S
C1178 N1163 1.324 . S
C1178 O1179 1.238 . S
O1179 C1178 1.238 . S
C1180 N1163 1.427 . S
C1180 C1181 1.394 . S
C1180 C1185 1.395 . S
C1181 C1180 1.394 . S
C1181 C1182 1.380 . S
C1181 H1209 0.929 . S
C1182 C1181 1.380 . S
C1182 C1183 1.384 . S
C1182 C1188 1.495 . S
C1183 C1182 1.384 . S
C1183 C1184 1.382 . S
C1183 H1210 0.930 . S
C1184 C1183 1.382 . S
C1184 C1185 1.398 . S
C1185 C1180 1.395 . S
C1185 C1184 1.398 . S
C1185 H1211 0.930 . S
C1186 O1166 1.235 . S
C1186 O1167 1.270 . S
O1187 C1140 1.263 . S
O1187 Cd1147 2.366 . S
C1188 O1176 1.258 . S
C1188 O1177 1.274 . S
C1188 C1182 1.495 . S
C1189 N1156 1.432 . S
C1189 C1190 1.381 . S
C1189 C1194 1.385 . S
C1190 C1189 1.381 . S
C1190 C1191 1.371 . S
C1190 H1212 0.932 . S
C1191 C1190 1.371 . S
C1191 C1192 1.400 . S
C1192 C1191 1.400 . S
C1192 C1193 1.351 . S
C1192 H1213 0.930 . S
C1193 C1192 1.351 . S
C1193 C1194 1.388 . S
C1194 C1189 1.385 . S
C1194 C1193 1.388 . S
C1194 H1214 0.929 . S
C1195 C1134 1.504 . S
C1195 N1165 1.309 . S
C1195 O1196 1.258 . S
O1196 C1195 1.258 . S
H1197 C1135 0.929 . S
H1198 C1136 0.932 . S
H1199 C1137 0.931 . S
H1200 C1142 0.929 . S
H1201 C1144 0.929 . S
H1202 C1146 0.931 . S
H1203 C1151 0.929 . S
H1204 C1153 0.932 . S
H1205 C1154 0.931 . S
H1206 C1159 0.930 . S
H1207 C1160 0.931 . S
H1208 C1161 0.930 . S
H1209 C1181 0.929 . S
H1210 C1183 0.930 . S
H1211 C1185 0.930 . S
H1212 C1190 0.932 . S
H1213 C1192 0.930 . S
H1214 C1194 0.929 . S
C1215 C1216 1.359 . S
C1215 N1220 1.330 . S
C1215 C1276 1.504 . S
C1216 C1215 1.359 . S
C1216 C1217 1.366 . S
C1216 H1278 0.929 . S
C1217 C1216 1.366 . S
C1217 C1218 1.415 . S
C1217 H1279 0.932 . S
C1218 C1217 1.415 . S
C1218 C1219 1.366 . S
C1218 H1280 0.931 . S
C1219 C1218 1.366 . S
C1219 N1220 1.325 . S
C1219 C1221 1.516 . S
N1220 C1215 1.330 . S
N1220 C1219 1.325 . S
N1220 Co1236 1.869 . S
C1221 C1219 1.516 . S
C1221 N1245 1.316 . S
C1221 O1268 1.263 . S
C1222 C1223 1.421 . S
C1222 C1227 1.360 . S
C1222 N1245 1.436 . S
C1223 C1222 1.421 . S
C1223 C1224 1.379 . S
C1223 H1281 0.929 . S
C1224 C1223 1.379 . S
C1224 C1225 1.417 . S
C1225 C1224 1.417 . S
C1225 C1226 1.352 . S
C1225 H1282 0.929 . S
C1226 C1225 1.352 . S
C1226 C1227 1.393 . S
C1227 C1222 1.360 . S
C1227 C1226 1.393 . S
C1227 H1283 0.931 . S
Cd1228 O1248 2.329 . S
Cd1228 O1250 2.350 . S
Cd1228 O1251 2.277 . S
Cd1228 O1253 2.173 . S
Cd1228 O1257 2.263 . S
Cd1228 O1268 2.366 . S
Cd1229 O1247 2.352 . S
Cd1229 O1254 2.250 . S
Cd1229 O1258 2.308 . S
C1230 C1234 1.403 . S
C1230 C1235 1.370 . S
C1230 N1246 1.423 . S
C1231 C1232 1.389 . S
C1231 C1235 1.389 . S
C1232 C1231 1.389 . S
C1232 C1233 1.379 . S
C1232 H1284 0.929 . S
C1233 C1232 1.379 . S
C1233 C1234 1.405 . S
C1234 C1230 1.403 . S
C1234 C1233 1.405 . S
C1234 H1285 0.932 . S
C1235 C1230 1.370 . S
C1235 C1231 1.389 . S
C1235 H1286 0.931 . S
Co1236 N1220 1.869 . S
Co1236 N1237 1.955 . S
Co1236 N1238 1.864 . S
Co1236 N1244 1.958 . S
Co1236 N1245 1.953 . S
Co1236 N1246 1.974 . S
N1237 Co1236 1.955 . S
N1237 C1255 1.329 . S
N1237 C1270 1.432 . S
N1238 Co1236 1.864 . S
N1238 C1239 1.327 . S
N1238 C1243 1.342 . S
C1239 N1238 1.327 . S
C1239 C1240 1.407 . S
C1239 C1255 1.481 . S
C1240 C1239 1.407 . S
C1240 C1241 1.364 . S
C1240 H1287 0.930 . S
C1241 C1240 1.364 . S
C1241 C1242 1.390 . S
C1241 H1288 0.931 . S
C1242 C1241 1.390 . S
C1242 C1243 1.346 . S
C1242 H1289 0.930 . S
C1243 N1238 1.342 . S
C1243 C1242 1.346 . S
C1243 C1259 1.516 . S
N1244 Co1236 1.958 . S
N1244 C1259 1.324 . S
N1244 C1261 1.427 . S
N1245 C1221 1.316 . S
N1245 C1222 1.436 . S
N1245 Co1236 1.953 . S
N1246 C1230 1.423 . S
N1246 Co1236 1.974 . S
N1246 C1276 1.309 . S
O1247 Cd1229 2.352 . S
O1247 C1267 1.235 . S
O1248 Cd1228 2.329 . S
O1248 C1267 1.270 . S
C1249 O1250 1.270 . S
C1249 O1251 1.248 . S
O1250 Cd1228 2.350 . S
O1250 C1249 1.270 . S
O1251 Cd1228 2.277 . S
O1251 C1249 1.248 . S
C1252 O1253 1.277 . S
C1252 O1254 1.230 . S
O1253 Cd1228 2.173 . S
O1253 C1252 1.277 . S
O1254 Cd1229 2.250 . S
O1254 C1252 1.230 . S
C1255 N1237 1.329 . S
C1255 C1239 1.481 . S
C1255 O1256 1.246 . S
O1256 C1255 1.246 . S
O1257 Cd1228 2.263 . S
O1257 C1269 1.258 . S
O1258 Cd1229 2.308 . S
O1258 C1269 1.274 . S
C1259 C1243 1.516 . S
C1259 N1244 1.324 . S
C1259 O1260 1.238 . S
O1260 C1259 1.238 . S
C1261 N1244 1.427 . S
C1261 C1262 1.394 . S
C1261 C1266 1.395 . S
C1262 C1261 1.394 . S
C1262 C1263 1.380 . S
C1262 H1290 0.929 . S
C1263 C1262 1.380 . S
C1263 C1264 1.384 . S
C1263 C1269 1.495 . S
C1264 C1263 1.384 . S
C1264 C1265 1.382 . S
C1264 H1291 0.930 . S
C1265 C1264 1.382 . S
C1265 C1266 1.398 . S
C1266 C1261 1.395 . S
C1266 C1265 1.398 . S
C1266 H1292 0.930 . S
C1267 O1247 1.235 . S
C1267 O1248 1.270 . S
O1268 C1221 1.263 . S
O1268 Cd1228 2.366 . S
C1269 O1257 1.258 . S
C1269 O1258 1.274 . S
C1269 C1263 1.495 . S
C1270 N1237 1.432 . S
C1270 C1271 1.381 . S
C1270 C1275 1.385 . S
C1271 C1270 1.381 . S
C1271 C1272 1.371 . S
C1271 H1293 0.932 . S
C1272 C1271 1.371 . S
C1272 C1273 1.400 . S
C1273 C1272 1.400 . S
C1273 C1274 1.351 . S
C1273 H1294 0.930 . S
C1274 C1273 1.351 . S
C1274 C1275 1.388 . S
C1275 C1270 1.385 . S
C1275 C1274 1.388 . S
C1275 H1295 0.929 . S
C1276 C1215 1.504 . S
C1276 N1246 1.309 . S
C1276 O1277 1.258 . S
O1277 C1276 1.258 . S
H1278 C1216 0.929 . S
H1279 C1217 0.932 . S
H1280 C1218 0.931 . S
H1281 C1223 0.929 . S
H1282 C1225 0.929 . S
H1283 C1227 0.931 . S
H1284 C1232 0.929 . S
H1285 C1234 0.932 . S
H1286 C1235 0.931 . S
H1287 C1240 0.930 . S
H1288 C1241 0.931 . S
H1289 C1242 0.930 . S
H1290 C1262 0.929 . S
H1291 C1264 0.930 . S
H1292 C1266 0.930 . S
H1293 C1271 0.932 . S
H1294 C1273 0.930 . S
H1295 C1275 0.929 . S
C1296 C1297 1.359 . S
C1296 N1301 1.330 . S
C1296 C1357 1.504 . S
C1297 C1296 1.359 . S
C1297 C1298 1.366 . S
C1297 H1359 0.929 . S
C1298 C1297 1.366 . S
C1298 C1299 1.415 . S
C1298 H1360 0.932 . S
C1299 C1298 1.415 . S
C1299 C1300 1.366 . S
C1299 H1361 0.931 . S
C1300 C1299 1.366 . S
C1300 N1301 1.325 . S
C1300 C1302 1.516 . S
N1301 C1296 1.330 . S
N1301 C1300 1.325 . S
N1301 Co1317 1.869 . S
C1302 C1300 1.516 . S
C1302 N1326 1.316 . S
C1302 O1349 1.263 . S
C1303 C1304 1.421 . S
C1303 C1308 1.360 . S
C1303 N1326 1.436 . S
C1304 C1303 1.421 . S
C1304 C1305 1.379 . S
C1304 H1362 0.929 . S
C1305 C1304 1.379 . S
C1305 C1306 1.417 . S
C1306 C1305 1.417 . S
C1306 C1307 1.352 . S
C1306 H1363 0.929 . S
C1307 C1306 1.352 . S
C1307 C1308 1.393 . S
C1308 C1303 1.360 . S
C1308 C1307 1.393 . S
C1308 H1364 0.931 . S
Cd1309 O1329 2.329 . S
Cd1309 O1331 2.350 . S
Cd1309 O1332 2.277 . S
Cd1309 O1334 2.173 . S
Cd1309 O1338 2.263 . S
Cd1309 O1349 2.366 . S
Cd1310 O1328 2.352 . S
Cd1310 O1335 2.250 . S
Cd1310 O1339 2.308 . S
C1311 C1315 1.403 . S
C1311 C1316 1.370 . S
C1311 N1327 1.423 . S
C1312 C1313 1.389 . S
C1312 C1316 1.389 . S
C1313 C1312 1.389 . S
C1313 C1314 1.379 . S
C1313 H1365 0.929 . S
C1314 C1313 1.379 . S
C1314 C1315 1.405 . S
C1315 C1311 1.403 . S
C1315 C1314 1.405 . S
C1315 H1366 0.932 . S
C1316 C1311 1.370 . S
C1316 C1312 1.389 . S
C1316 H1367 0.931 . S
Co1317 N1301 1.869 . S
Co1317 N1318 1.955 . S
Co1317 N1319 1.864 . S
Co1317 N1325 1.958 . S
Co1317 N1326 1.953 . S
Co1317 N1327 1.974 . S
N1318 Co1317 1.955 . S
N1318 C1336 1.329 . S
N1318 C1351 1.432 . S
N1319 Co1317 1.864 . S
N1319 C1320 1.327 . S
N1319 C1324 1.342 . S
C1320 N1319 1.327 . S
C1320 C1321 1.407 . S
C1320 C1336 1.481 . S
C1321 C1320 1.407 . S
C1321 C1322 1.364 . S
C1321 H1368 0.930 . S
C1322 C1321 1.364 . S
C1322 C1323 1.390 . S
C1322 H1369 0.931 . S
C1323 C1322 1.390 . S
C1323 C1324 1.346 . S
C1323 H1370 0.930 . S
C1324 N1319 1.342 . S
C1324 C1323 1.346 . S
C1324 C1340 1.516 . S
N1325 Co1317 1.958 . S
N1325 C1340 1.324 . S
N1325 C1342 1.427 . S
N1326 C1302 1.316 . S
N1326 C1303 1.436 . S
N1326 Co1317 1.953 . S
N1327 C1311 1.423 . S
N1327 Co1317 1.974 . S
N1327 C1357 1.309 . S
O1328 Cd1310 2.352 . S
O1328 C1348 1.235 . S
O1329 Cd1309 2.329 . S
O1329 C1348 1.270 . S
C1330 O1331 1.270 . S
C1330 O1332 1.248 . S
O1331 Cd1309 2.350 . S
O1331 C1330 1.270 . S
O1332 Cd1309 2.277 . S
O1332 C1330 1.248 . S
C1333 O1334 1.277 . S
C1333 O1335 1.230 . S
O1334 Cd1309 2.173 . S
O1334 C1333 1.277 . S
O1335 Cd1310 2.250 . S
O1335 C1333 1.230 . S
C1336 N1318 1.329 . S
C1336 C1320 1.481 . S
C1336 O1337 1.246 . S
O1337 C1336 1.246 . S
O1338 Cd1309 2.263 . S
O1338 C1350 1.258 . S
O1339 Cd1310 2.308 . S
O1339 C1350 1.274 . S
C1340 C1324 1.516 . S
C1340 N1325 1.324 . S
C1340 O1341 1.238 . S
O1341 C1340 1.238 . S
C1342 N1325 1.427 . S
C1342 C1343 1.394 . S
C1342 C1347 1.395 . S
C1343 C1342 1.394 . S
C1343 C1344 1.380 . S
C1343 H1371 0.929 . S
C1344 C1343 1.380 . S
C1344 C1345 1.384 . S
C1344 C1350 1.495 . S
C1345 C1344 1.384 . S
C1345 C1346 1.382 . S
C1345 H1372 0.930 . S
C1346 C1345 1.382 . S
C1346 C1347 1.398 . S
C1347 C1342 1.395 . S
C1347 C1346 1.398 . S
C1347 H1373 0.930 . S
C1348 O1328 1.235 . S
C1348 O1329 1.270 . S
O1349 C1302 1.263 . S
O1349 Cd1309 2.366 . S
C1350 O1338 1.258 . S
C1350 O1339 1.274 . S
C1350 C1344 1.495 . S
C1351 N1318 1.432 . S
C1351 C1352 1.381 . S
C1351 C1356 1.385 . S
C1352 C1351 1.381 . S
C1352 C1353 1.371 . S
C1352 H1374 0.932 . S
C1353 C1352 1.371 . S
C1353 C1354 1.400 . S
C1354 C1353 1.400 . S
C1354 C1355 1.351 . S
C1354 H1375 0.930 . S
C1355 C1354 1.351 . S
C1355 C1356 1.388 . S
C1356 C1351 1.385 . S
C1356 C1355 1.388 . S
C1356 H1376 0.929 . S
C1357 C1296 1.504 . S
C1357 N1327 1.309 . S
C1357 O1358 1.258 . S
O1358 C1357 1.258 . S
H1359 C1297 0.929 . S
H1360 C1298 0.932 . S
H1361 C1299 0.931 . S
H1362 C1304 0.929 . S
H1363 C1306 0.929 . S
H1364 C1308 0.931 . S
H1365 C1313 0.929 . S
H1366 C1315 0.932 . S
H1367 C1316 0.931 . S
H1368 C1321 0.930 . S
H1369 C1322 0.931 . S
H1370 C1323 0.930 . S
H1371 C1343 0.929 . S
H1372 C1345 0.930 . S
H1373 C1347 0.930 . S
H1374 C1352 0.932 . S
H1375 C1354 0.930 . S
H1376 C1356 0.929 . S
C1377 C1378 1.359 . S
C1377 N1382 1.330 . S
C1377 C1438 1.504 . S
C1378 C1377 1.359 . S
C1378 C1379 1.366 . S
C1378 H1440 0.929 . S
C1379 C1378 1.366 . S
C1379 C1380 1.415 . S
C1379 H1441 0.932 . S
C1380 C1379 1.415 . S
C1380 C1381 1.366 . S
C1380 H1442 0.931 . S
C1381 C1380 1.366 . S
C1381 N1382 1.325 . S
C1381 C1383 1.516 . S
N1382 C1377 1.330 . S
N1382 C1381 1.325 . S
N1382 Co1398 1.869 . S
C1383 C1381 1.516 . S
C1383 N1407 1.316 . S
C1383 O1430 1.263 . S
C1384 C1385 1.421 . S
C1384 C1389 1.360 . S
C1384 N1407 1.436 . S
C1385 C1384 1.421 . S
C1385 C1386 1.379 . S
C1385 H1443 0.929 . S
C1386 C1385 1.379 . S
C1386 C1387 1.417 . S
C1387 C1386 1.417 . S
C1387 C1388 1.352 . S
C1387 H1444 0.929 . S
C1388 C1387 1.352 . S
C1388 C1389 1.393 . S
C1389 C1384 1.360 . S
C1389 C1388 1.393 . S
C1389 H1445 0.931 . S
Cd1390 O1410 2.329 . S
Cd1390 O1412 2.350 . S
Cd1390 O1413 2.277 . S
Cd1390 O1415 2.173 . S
Cd1390 O1419 2.263 . S
Cd1390 O1430 2.366 . S
Cd1391 O1409 2.352 . S
Cd1391 O1416 2.250 . S
Cd1391 O1420 2.308 . S
C1392 C1396 1.403 . S
C1392 C1397 1.370 . S
C1392 N1408 1.423 . S
C1393 C1394 1.389 . S
C1393 C1397 1.389 . S
C1394 C1393 1.389 . S
C1394 C1395 1.379 . S
C1394 H1446 0.929 . S
C1395 C1394 1.379 . S
C1395 C1396 1.405 . S
C1396 C1392 1.403 . S
C1396 C1395 1.405 . S
C1396 H1447 0.932 . S
C1397 C1392 1.370 . S
C1397 C1393 1.389 . S
C1397 H1448 0.931 . S
Co1398 N1382 1.869 . S
Co1398 N1399 1.955 . S
Co1398 N1400 1.864 . S
Co1398 N1406 1.958 . S
Co1398 N1407 1.953 . S
Co1398 N1408 1.974 . S
N1399 Co1398 1.955 . S
N1399 C1417 1.329 . S
N1399 C1432 1.432 . S
N1400 Co1398 1.864 . S
N1400 C1401 1.327 . S
N1400 C1405 1.342 . S
C1401 N1400 1.327 . S
C1401 C1402 1.407 . S
C1401 C1417 1.481 . S
C1402 C1401 1.407 . S
C1402 C1403 1.364 . S
C1402 H1449 0.930 . S
C1403 C1402 1.364 . S
C1403 C1404 1.390 . S
C1403 H1450 0.931 . S
C1404 C1403 1.390 . S
C1404 C1405 1.346 . S
C1404 H1451 0.930 . S
C1405 N1400 1.342 . S
C1405 C1404 1.346 . S
C1405 C1421 1.516 . S
N1406 Co1398 1.958 . S
N1406 C1421 1.324 . S
N1406 C1423 1.427 . S
N1407 C1383 1.316 . S
N1407 C1384 1.436 . S
N1407 Co1398 1.953 . S
N1408 C1392 1.423 . S
N1408 Co1398 1.974 . S
N1408 C1438 1.309 . S
O1409 Cd1391 2.352 . S
O1409 C1429 1.235 . S
O1410 Cd1390 2.329 . S
O1410 C1429 1.270 . S
C1411 O1412 1.270 . S
C1411 O1413 1.248 . S
O1412 Cd1390 2.350 . S
O1412 C1411 1.270 . S
O1413 Cd1390 2.277 . S
O1413 C1411 1.248 . S
C1414 O1415 1.277 . S
C1414 O1416 1.230 . S
O1415 Cd1390 2.173 . S
O1415 C1414 1.277 . S
O1416 Cd1391 2.250 . S
O1416 C1414 1.230 . S
C1417 N1399 1.329 . S
C1417 C1401 1.481 . S
C1417 O1418 1.246 . S
O1418 C1417 1.246 . S
O1419 Cd1390 2.263 . S
O1419 C1431 1.258 . S
O1420 Cd1391 2.308 . S
O1420 C1431 1.274 . S
C1421 C1405 1.516 . S
C1421 N1406 1.324 . S
C1421 O1422 1.238 . S
O1422 C1421 1.238 . S
C1423 N1406 1.427 . S
C1423 C1424 1.394 . S
C1423 C1428 1.395 . S
C1424 C1423 1.394 . S
C1424 C1425 1.380 . S
C1424 H1452 0.929 . S
C1425 C1424 1.380 . S
C1425 C1426 1.384 . S
C1425 C1431 1.495 . S
C1426 C1425 1.384 . S
C1426 C1427 1.382 . S
C1426 H1453 0.930 . S
C1427 C1426 1.382 . S
C1427 C1428 1.398 . S
C1428 C1423 1.395 . S
C1428 C1427 1.398 . S
C1428 H1454 0.930 . S
C1429 O1409 1.235 . S
C1429 O1410 1.270 . S
O1430 C1383 1.263 . S
O1430 Cd1390 2.366 . S
C1431 O1419 1.258 . S
C1431 O1420 1.274 . S
C1431 C1425 1.495 . S
C1432 N1399 1.432 . S
C1432 C1433 1.381 . S
C1432 C1437 1.385 . S
C1433 C1432 1.381 . S
C1433 C1434 1.371 . S
C1433 H1455 0.932 . S
C1434 C1433 1.371 . S
C1434 C1435 1.400 . S
C1435 C1434 1.400 . S
C1435 C1436 1.351 . S
C1435 H1456 0.930 . S
C1436 C1435 1.351 . S
C1436 C1437 1.388 . S
C1437 C1432 1.385 . S
C1437 C1436 1.388 . S
C1437 H1457 0.929 . S
C1438 C1377 1.504 . S
C1438 N1408 1.309 . S
C1438 O1439 1.258 . S
O1439 C1438 1.258 . S
H1440 C1378 0.929 . S
H1441 C1379 0.932 . S
H1442 C1380 0.931 . S
H1443 C1385 0.929 . S
H1444 C1387 0.929 . S
H1445 C1389 0.931 . S
H1446 C1394 0.929 . S
H1447 C1396 0.932 . S
H1448 C1397 0.931 . S
H1449 C1402 0.930 . S
H1450 C1403 0.931 . S
H1451 C1404 0.930 . S
H1452 C1424 0.929 . S
H1453 C1426 0.930 . S
H1454 C1428 0.930 . S
H1455 C1433 0.932 . S
H1456 C1435 0.930 . S
H1457 C1437 0.929 . S
C1458 C1459 1.349 . S
C1458 C1460 1.327 . S
C1458 H1483 0.950 . S
C1459 C1458 1.349 . S
C1459 C1475 1.349 . S
C1460 C1458 1.327 . S
C1460 C1479 1.429 . S
C1460 H1484 0.950 . S
C1461 C1478 1.574 . S
C1461 C1480 1.368 . S
C1461 H1485 0.949 . S
H1462 C1466 0.949 . S
C1463 C1464 1.349 . S
C1463 C1465 1.327 . S
C1463 H1486 0.950 . S
C1464 C1463 1.349 . S
C1464 C1476 1.349 . S
C1465 C1463 1.327 . S
C1465 C1481 1.429 . S
C1465 H1487 0.950 . S
C1466 H1462 0.949 . S
C1466 C1474 1.574 . S
C1466 C1482 1.368 . S
H1467 C1475 0.950 . S
H1468 C1473 0.950 . S
H1469 C1474 0.949 . S
H1470 C1476 0.950 . S
H1471 C1477 0.950 . S
H1472 C1478 0.949 . S
C1473 H1468 0.950 . S
C1473 C1475 1.327 . S
C1473 C1479 1.429 . S
C1474 C1466 1.574 . S
C1474 H1469 0.949 . S
C1474 C1480 1.368 . S
C1475 C1459 1.349 . S
C1475 H1467 0.950 . S
C1475 C1473 1.327 . S
C1476 C1464 1.349 . S
C1476 H1470 0.950 . S
C1476 C1477 1.327 . S
C1477 H1471 0.950 . S
C1477 C1476 1.327 . S
C1477 C1481 1.429 . S
C1478 C1461 1.574 . S
C1478 H1472 0.949 . S
C1478 C1482 1.368 . S
C1479 C1460 1.429 . S
C1479 C1473 1.429 . S
C1479 C1480 1.523 . S
C1480 C1461 1.368 . S
C1480 C1474 1.368 . S
C1480 C1479 1.523 . S
C1481 C1465 1.429 . S
C1481 C1477 1.429 . S
C1481 C1482 1.523 . S
C1482 C1466 1.368 . S
C1482 C1478 1.368 . S
C1482 C1481 1.523 . S
H1483 C1458 0.950 . S
H1484 C1460 0.950 . S
H1485 C1461 0.949 . S
H1486 C1463 0.950 . S
H1487 C1465 0.950 . S
C1488 C1489 1.349 . S
C1488 C1490 1.327 . S
C1488 H1513 0.950 . S
C1489 C1488 1.349 . S
C1489 C1505 1.349 . S
C1490 C1488 1.327 . S
C1490 C1509 1.429 . S
C1490 H1514 0.950 . S
C1491 C1508 1.574 . S
C1491 C1510 1.368 . S
C1491 H1515 0.949 . S
H1492 C1496 0.949 . S
C1493 C1494 1.349 . S
C1493 C1495 1.327 . S
C1493 H1516 0.950 . S
C1494 C1493 1.349 . S
C1494 C1506 1.349 . S
C1495 C1493 1.327 . S
C1495 C1511 1.429 . S
C1495 H1517 0.950 . S
C1496 H1492 0.949 . S
C1496 C1504 1.574 . S
C1496 C1512 1.368 . S
H1497 C1505 0.950 . S
H1498 C1503 0.950 . S
H1499 C1504 0.949 . S
H1500 C1506 0.950 . S
H1501 C1507 0.950 . S
H1502 C1508 0.949 . S
C1503 H1498 0.950 . S
C1503 C1505 1.327 . S
C1503 C1509 1.429 . S
C1504 C1496 1.574 . S
C1504 H1499 0.949 . S
C1504 C1510 1.368 . S
C1505 C1489 1.349 . S
C1505 H1497 0.950 . S
C1505 C1503 1.327 . S
C1506 C1494 1.349 . S
C1506 H1500 0.950 . S
C1506 C1507 1.327 . S
C1507 H1501 0.950 . S
C1507 C1506 1.327 . S
C1507 C1511 1.429 . S
C1508 C1491 1.574 . S
C1508 H1502 0.949 . S
C1508 C1512 1.368 . S
C1509 C1490 1.429 . S
C1509 C1503 1.429 . S
C1509 C1510 1.523 . S
C1510 C1491 1.368 . S
C1510 C1504 1.368 . S
C1510 C1509 1.523 . S
C1511 C1495 1.429 . S
C1511 C1507 1.429 . S
C1511 C1512 1.523 . S
C1512 C1496 1.368 . S
C1512 C1508 1.368 . S
C1512 C1511 1.523 . S
H1513 C1488 0.950 . S
H1514 C1490 0.950 . S
H1515 C1491 0.949 . S
H1516 C1493 0.950 . S
H1517 C1495 0.950 . S
C1518 C1519 1.349 . S
C1518 C1520 1.327 . S
C1518 H1543 0.950 . S
C1519 C1518 1.349 . S
C1519 C1535 1.349 . S
C1520 C1518 1.327 . S
C1520 C1539 1.429 . S
C1520 H1544 0.950 . S
C1521 C1538 1.574 . S
C1521 C1540 1.368 . S
C1521 H1545 0.949 . S
H1522 C1526 0.949 . S
C1523 C1524 1.349 . S
C1523 C1525 1.327 . S
C1523 H1546 0.950 . S
C1524 C1523 1.349 . S
C1524 C1536 1.349 . S
C1525 C1523 1.327 . S
C1525 C1541 1.429 . S
C1525 H1547 0.950 . S
C1526 H1522 0.949 . S
C1526 C1534 1.574 . S
C1526 C1542 1.368 . S
H1527 C1535 0.950 . S
H1528 C1533 0.950 . S
H1529 C1534 0.949 . S
H1530 C1536 0.950 . S
H1531 C1537 0.950 . S
H1532 C1538 0.949 . S
C1533 H1528 0.950 . S
C1533 C1535 1.327 . S
C1533 C1539 1.429 . S
C1534 C1526 1.574 . S
C1534 H1529 0.949 . S
C1534 C1540 1.368 . S
C1535 C1519 1.349 . S
C1535 H1527 0.950 . S
C1535 C1533 1.327 . S
C1536 C1524 1.349 . S
C1536 H1530 0.950 . S
C1536 C1537 1.327 . S
C1537 H1531 0.950 . S
C1537 C1536 1.327 . S
C1537 C1541 1.429 . S
C1538 C1521 1.574 . S
C1538 H1532 0.949 . S
C1538 C1542 1.368 . S
C1539 C1520 1.429 . S
C1539 C1533 1.429 . S
C1539 C1540 1.523 . S
C1540 C1521 1.368 . S
C1540 C1534 1.368 . S
C1540 C1539 1.523 . S
C1541 C1525 1.429 . S
C1541 C1537 1.429 . S
C1541 C1542 1.523 . S
C1542 C1526 1.368 . S
C1542 C1538 1.368 . S
C1542 C1541 1.523 . S
H1543 C1518 0.950 . S
H1544 C1520 0.950 . S
H1545 C1521 0.949 . S
H1546 C1523 0.950 . S
H1547 C1525 0.950 . S
C1548 C1549 1.349 . S
C1548 C1550 1.327 . S
C1548 H1573 0.950 . S
C1549 C1548 1.349 . S
C1549 C1565 1.349 . S
C1550 C1548 1.327 . S
C1550 C1569 1.429 . S
C1550 H1574 0.950 . S
C1551 C1568 1.574 . S
C1551 C1570 1.368 . S
C1551 H1575 0.949 . S
H1552 C1556 0.949 . S
C1553 C1554 1.349 . S
C1553 C1555 1.327 . S
C1553 H1576 0.950 . S
C1554 C1553 1.349 . S
C1554 C1566 1.349 . S
C1555 C1553 1.327 . S
C1555 C1571 1.429 . S
C1555 H1577 0.950 . S
C1556 H1552 0.949 . S
C1556 C1564 1.574 . S
C1556 C1572 1.368 . S
H1557 C1565 0.950 . S
H1558 C1563 0.950 . S
H1559 C1564 0.949 . S
H1560 C1566 0.950 . S
H1561 C1567 0.950 . S
H1562 C1568 0.949 . S
C1563 H1558 0.950 . S
C1563 C1565 1.327 . S
C1563 C1569 1.429 . S
C1564 C1556 1.574 . S
C1564 H1559 0.949 . S
C1564 C1570 1.368 . S
C1565 C1549 1.349 . S
C1565 H1557 0.950 . S
C1565 C1563 1.327 . S
C1566 C1554 1.349 . S
C1566 H1560 0.950 . S
C1566 C1567 1.327 . S
C1567 H1561 0.950 . S
C1567 C1566 1.327 . S
C1567 C1571 1.429 . S
C1568 C1551 1.574 . S
C1568 H1562 0.949 . S
C1568 C1572 1.368 . S
C1569 C1550 1.429 . S
C1569 C1563 1.429 . S
C1569 C1570 1.523 . S
C1570 C1551 1.368 . S
C1570 C1564 1.368 . S
C1570 C1569 1.523 . S
C1571 C1555 1.429 . S
C1571 C1567 1.429 . S
C1571 C1572 1.523 . S
C1572 C1556 1.368 . S
C1572 C1568 1.368 . S
C1572 C1571 1.523 . S
H1573 C1548 0.950 . S
H1574 C1550 0.950 . S
H1575 C1551 0.949 . S
H1576 C1553 0.950 . S
H1577 C1555 0.950 . S
C1578 C1579 1.349 . S
C1578 C1580 1.327 . S
C1578 H1603 0.950 . S
C1579 C1578 1.349 . S
C1579 C1595 1.349 . S
C1580 C1578 1.327 . S
C1580 C1599 1.429 . S
C1580 H1604 0.950 . S
C1581 C1598 1.574 . S
C1581 C1600 1.368 . S
C1581 H1605 0.949 . S
H1582 C1586 0.949 . S
C1583 C1584 1.349 . S
C1583 C1585 1.327 . S
C1583 H1606 0.950 . S
C1584 C1583 1.349 . S
C1584 C1596 1.349 . S
C1585 C1583 1.327 . S
C1585 C1601 1.429 . S
C1585 H1607 0.950 . S
C1586 H1582 0.949 . S
C1586 C1594 1.574 . S
C1586 C1602 1.368 . S
H1587 C1595 0.950 . S
H1588 C1593 0.950 . S
H1589 C1594 0.949 . S
H1590 C1596 0.950 . S
H1591 C1597 0.950 . S
H1592 C1598 0.949 . S
C1593 H1588 0.950 . S
C1593 C1595 1.327 . S
C1593 C1599 1.429 . S
C1594 C1586 1.574 . S
C1594 H1589 0.949 . S
C1594 C1600 1.368 . S
C1595 C1579 1.349 . S
C1595 H1587 0.950 . S
C1595 C1593 1.327 . S
C1596 C1584 1.349 . S
C1596 H1590 0.950 . S
C1596 C1597 1.327 . S
C1597 H1591 0.950 . S
C1597 C1596 1.327 . S
C1597 C1601 1.429 . S
C1598 C1581 1.574 . S
C1598 H1592 0.949 . S
C1598 C1602 1.368 . S
C1599 C1580 1.429 . S
C1599 C1593 1.429 . S
C1599 C1600 1.523 . S
C1600 C1581 1.368 . S
C1600 C1594 1.368 . S
C1600 C1599 1.523 . S
C1601 C1585 1.429 . S
C1601 C1597 1.429 . S
C1601 C1602 1.523 . S
C1602 C1586 1.368 . S
C1602 C1598 1.368 . S
C1602 C1601 1.523 . S
H1603 C1578 0.950 . S
H1604 C1580 0.950 . S
H1605 C1581 0.949 . S
H1606 C1583 0.950 . S
H1607 C1585 0.950 . S
C1608 C1609 1.349 . S
C1608 C1610 1.327 . S
C1608 H1633 0.950 . S
C1609 C1608 1.349 . S
C1609 C1625 1.349 . S
C1610 C1608 1.327 . S
C1610 C1629 1.429 . S
C1610 H1634 0.950 . S
C1611 C1628 1.574 . S
C1611 C1630 1.368 . S
C1611 H1635 0.949 . S
H1612 C1616 0.949 . S
C1613 C1614 1.349 . S
C1613 C1615 1.327 . S
C1613 H1636 0.950 . S
C1614 C1613 1.349 . S
C1614 C1626 1.349 . S
C1615 C1613 1.327 . S
C1615 C1631 1.429 . S
C1615 H1637 0.950 . S
C1616 H1612 0.949 . S
C1616 C1624 1.574 . S
C1616 C1632 1.368 . S
H1617 C1625 0.950 . S
H1618 C1623 0.950 . S
H1619 C1624 0.949 . S
H1620 C1626 0.950 . S
H1621 C1627 0.950 . S
H1622 C1628 0.949 . S
C1623 H1618 0.950 . S
C1623 C1625 1.327 . S
C1623 C1629 1.429 . S
C1624 C1616 1.574 . S
C1624 H1619 0.949 . S
C1624 C1630 1.368 . S
C1625 C1609 1.349 . S
C1625 H1617 0.950 . S
C1625 C1623 1.327 . S
C1626 C1614 1.349 . S
C1626 H1620 0.950 . S
C1626 C1627 1.327 . S
C1627 H1621 0.950 . S
C1627 C1626 1.327 . S
C1627 C1631 1.429 . S
C1628 C1611 1.574 . S
C1628 H1622 0.949 . S
C1628 C1632 1.368 . S
C1629 C1610 1.429 . S
C1629 C1623 1.429 . S
C1629 C1630 1.523 . S
C1630 C1611 1.368 . S
C1630 C1624 1.368 . S
C1630 C1629 1.523 . S
C1631 C1615 1.429 . S
C1631 C1627 1.429 . S
C1631 C1632 1.523 . S
C1632 C1616 1.368 . S
C1632 C1628 1.368 . S
C1632 C1631 1.523 . S
H1633 C1608 0.950 . S
H1634 C1610 0.950 . S
H1635 C1611 0.949 . S
H1636 C1613 0.950 . S
H1637 C1615 0.950 . S
C1638 C1639 1.349 . S
C1638 C1640 1.327 1_565 S
C1638 H1663 0.950 1_565 S
C1639 C1638 1.349 . S
C1639 C1655 1.349 . S
C1640 C1638 1.327 1_545 S
C1640 C1659 1.429 1_545 S
C1640 H1664 0.950 . S
C1641 C1658 1.574 1_556 S
C1641 C1660 1.368 . S
C1641 H1665 0.949 . S
H1642 C1646 0.949 . S
C1643 C1644 1.349 . S
C1643 C1645 1.327 1_545 S
C1643 H1666 0.950 1_545 S
C1644 C1643 1.349 . S
C1644 C1656 1.349 . S
C1645 C1643 1.327 1_565 S
C1645 C1661 1.429 1_565 S
C1645 H1667 0.950 . S
C1646 H1642 0.949 . S
C1646 C1654 1.574 1_554 S
C1646 C1662 1.368 . S
H1647 C1655 0.950 . S
H1648 C1653 0.950 . S
H1649 C1654 0.949 . S
H1650 C1656 0.950 . S
H1651 C1657 0.950 . S
H1652 C1658 0.949 . S
C1653 H1648 0.950 . S
C1653 C1655 1.327 . S
C1653 C1659 1.429 . S
C1654 C1646 1.574 1_556 S
C1654 H1649 0.949 . S
C1654 C1660 1.368 1_545 S
C1655 C1639 1.349 . S
C1655 H1647 0.950 . S
C1655 C1653 1.327 . S
C1656 C1644 1.349 . S
C1656 H1650 0.950 . S
C1656 C1657 1.327 . S
C1657 H1651 0.950 . S
C1657 C1656 1.327 . S
C1657 C1661 1.429 . S
C1658 C1641 1.574 1_554 S
C1658 H1652 0.949 . S
C1658 C1662 1.368 1_565 S
C1659 C1640 1.429 1_565 S
C1659 C1653 1.429 . S
C1659 C1660 1.523 . S
C1660 C1641 1.368 . S
C1660 C1654 1.368 1_565 S
C1660 C1659 1.523 . S
C1661 C1645 1.429 1_545 S
C1661 C1657 1.429 . S
C1661 C1662 1.523 . S
C1662 C1646 1.368 . S
C1662 C1658 1.368 1_545 S
C1662 C1661 1.523 . S
H1663 C1638 0.950 1_545 S
H1664 C1640 0.950 . S
H1665 C1641 0.949 . S
H1666 C1643 0.950 1_565 S
H1667 C1645 0.950 . S
C1668 C1669 1.349 . S
C1668 C1670 1.327 . S
C1668 H1693 0.950 . S
C1669 C1668 1.349 . S
C1669 C1685 1.349 . S
C1670 C1668 1.327 . S
C1670 C1689 1.429 . S
C1670 H1694 0.950 . S
C1671 C1688 1.574 1_554 S
C1671 C1690 1.368 1_455 S
C1671 H1695 0.949 . S
H1672 C1676 0.949 . S
C1673 C1674 1.349 . S
C1673 C1675 1.327 . S
C1673 H1696 0.950 . S
C1674 C1673 1.349 . S
C1674 C1686 1.349 . S
C1675 C1673 1.327 . S
C1675 C1691 1.429 . S
C1675 H1697 0.950 . S
C1676 H1672 0.949 . S
C1676 C1684 1.574 1_556 S
C1676 C1692 1.368 1_655 S
H1677 C1685 0.950 1_455 S
H1678 C1683 0.950 . S
H1679 C1684 0.949 . S
H1680 C1686 0.950 1_655 S
H1681 C1687 0.950 . S
H1682 C1688 0.949 . S
C1683 H1678 0.950 . S
C1683 C1685 1.327 1_455 S
C1683 C1689 1.429 1_455 S
C1684 C1676 1.574 1_554 S
C1684 H1679 0.949 . S
C1684 C1690 1.368 . S
C1685 C1669 1.349 . S
C1685 H1677 0.950 1_655 S
C1685 C1683 1.327 1_655 S
C1686 C1674 1.349 . S
C1686 H1680 0.950 1_455 S
C1686 C1687 1.327 1_455 S
C1687 H1681 0.950 . S
C1687 C1686 1.327 1_655 S
C1687 C1691 1.429 1_655 S
C1688 C1671 1.574 1_556 S
C1688 H1682 0.949 . S
C1688 C1692 1.368 . S
C1689 C1670 1.429 . S
C1689 C1683 1.429 1_655 S
C1689 C1690 1.523 . S
C1690 C1671 1.368 1_655 S
C1690 C1684 1.368 . S
C1690 C1689 1.523 . S
C1691 C1675 1.429 . S
C1691 C1687 1.429 1_455 S
C1691 C1692 1.523 . S
C1692 C1676 1.368 1_455 S
C1692 C1688 1.368 . S
C1692 C1691 1.523 . S
H1693 C1668 0.950 . S
H1694 C1670 0.950 . S
H1695 C1671 0.949 . S
H1696 C1673 0.950 . S
H1697 C1675 0.950 . S
C1698 C1699 1.349 . S
C1698 C1700 1.327 . S
C1698 H1723 0.950 . S
C1699 C1698 1.349 . S
C1699 C1715 1.349 . S
C1700 C1698 1.327 . S
C1700 C1719 1.429 . S
C1700 H1724 0.950 . S
C1701 C1718 1.574 1_554 S
C1701 C1720 1.368 . S
C1701 H1725 0.949 . S
H1702 C1706 0.949 . S
C1703 C1704 1.349 . S
C1703 C1705 1.327 . S
C1703 H1726 0.950 . S
C1704 C1703 1.349 . S
C1704 C1716 1.349 . S
C1705 C1703 1.327 . S
C1705 C1721 1.429 . S
C1705 H1727 0.950 . S
C1706 H1702 0.949 . S
C1706 C1714 1.574 1_556 S
C1706 C1722 1.368 . S
H1707 C1715 0.950 . S
H1708 C1713 0.950 . S
H1709 C1714 0.949 . S
H1710 C1716 0.950 . S
H1711 C1717 0.950 . S
H1712 C1718 0.949 . S
C1713 H1708 0.950 . S
C1713 C1715 1.327 . S
C1713 C1719 1.429 . S
C1714 C1706 1.574 1_554 S
C1714 H1709 0.949 . S
C1714 C1720 1.368 . S
C1715 C1699 1.349 . S
C1715 H1707 0.950 . S
C1715 C1713 1.327 . S
C1716 C1704 1.349 . S
C1716 H1710 0.950 . S
C1716 C1717 1.327 . S
C1717 H1711 0.950 . S
C1717 C1716 1.327 . S
C1717 C1721 1.429 . S
C1718 C1701 1.574 1_556 S
C1718 H1712 0.949 . S
C1718 C1722 1.368 . S
C1719 C1700 1.429 . S
C1719 C1713 1.429 . S
C1719 C1720 1.523 . S
C1720 C1701 1.368 . S
C1720 C1714 1.368 . S
C1720 C1719 1.523 . S
C1721 C1705 1.429 . S
C1721 C1717 1.429 . S
C1721 C1722 1.523 . S
C1722 C1706 1.368 . S
C1722 C1718 1.368 . S
C1722 C1721 1.523 . S
H1723 C1698 0.950 . S
H1724 C1700 0.950 . S
H1725 C1701 0.949 . S
H1726 C1703 0.950 . S
H1727 C1705 0.950 . S
C1728 C1729 1.349 . S
C1728 C1730 1.327 . S
C1728 H1753 0.950 . S
C1729 C1728 1.349 . S
C1729 C1745 1.349 . S
C1730 C1728 1.327 . S
C1730 C1749 1.429 . S
C1730 H1754 0.950 . S
C1731 C1748 1.574 . S
C1731 C1750 1.368 . S
C1731 H1755 0.949 . S
H1732 C1736 0.949 . S
C1733 C1734 1.349 . S
C1733 C1735 1.327 . S
C1733 H1756 0.950 . S
C1734 C1733 1.349 . S
C1734 C1746 1.349 . S
C1735 C1733 1.327 . S
C1735 C1751 1.429 . S
C1735 H1757 0.950 . S
C1736 H1732 0.949 . S
C1736 C1744 1.574 . S
C1736 C1752 1.368 . S
H1737 C1745 0.950 . S
H1738 C1743 0.950 . S
H1739 C1744 0.949 . S
H1740 C1746 0.950 . S
H1741 C1747 0.950 . S
H1742 C1748 0.949 . S
C1743 H1738 0.950 . S
C1743 C1745 1.327 . S
C1743 C1749 1.429 . S
C1744 C1736 1.574 . S
C1744 H1739 0.949 . S
C1744 C1750 1.368 . S
C1745 C1729 1.349 . S
C1745 H1737 0.950 . S
C1745 C1743 1.327 . S
C1746 C1734 1.349 . S
C1746 H1740 0.950 . S
C1746 C1747 1.327 . S
C1747 H1741 0.950 . S
C1747 C1746 1.327 . S
C1747 C1751 1.429 . S
C1748 C1731 1.574 . S
C1748 H1742 0.949 . S
C1748 C1752 1.368 . S
C1749 C1730 1.429 . S
C1749 C1743 1.429 . S
C1749 C1750 1.523 . S
C1750 C1731 1.368 . S
C1750 C1744 1.368 . S
C1750 C1749 1.523 . S
C1751 C1735 1.429 . S
C1751 C1747 1.429 . S
C1751 C1752 1.523 . S
C1752 C1736 1.368 . S
C1752 C1748 1.368 . S
C1752 C1751 1.523 . S
H1753 C1728 0.950 . S
H1754 C1730 0.950 . S
H1755 C1731 0.949 . S
H1756 C1733 0.950 . S
H1757 C1735 0.950 . S
C1758 C1759 1.349 . S
C1758 C1760 1.327 . S
C1758 H1783 0.950 . S
C1759 C1758 1.349 . S
C1759 C1775 1.349 . S
C1760 C1758 1.327 . S
C1760 C1779 1.429 . S
C1760 H1784 0.950 1_545 S
C1761 C1778 1.574 1_545 S
C1761 C1780 1.370 1_545 S
C1761 H1785 0.949 . S
H1762 C1766 0.949 . S
C1763 C1764 1.349 . S
C1763 C1765 1.327 . S
C1763 H1786 0.950 . S
C1764 C1763 1.349 . S
C1764 C1776 1.349 . S
C1765 C1763 1.327 . S
C1765 C1781 1.429 . S
C1765 H1787 0.950 . S
C1766 H1762 0.949 . S
C1766 C1774 1.574 . S
C1766 C1782 1.368 . S
H1767 C1775 0.950 . S
H1768 C1773 0.950 . S
H1769 C1774 0.949 . S
H1770 C1776 0.950 . S
H1771 C1777 0.950 . S
H1772 C1778 0.950 1_545 S
C1773 H1768 0.950 . S
C1773 C1775 1.327 . S
C1773 C1779 1.429 . S
C1774 C1766 1.574 . S
C1774 H1769 0.949 . S
C1774 C1780 1.382 . S
C1775 C1759 1.349 . S
C1775 H1767 0.950 . S
C1775 C1773 1.327 . S
C1776 C1764 1.349 . S
C1776 H1770 0.950 . S
C1776 C1777 1.327 . S
C1777 H1771 0.950 . S
C1777 C1776 1.327 . S
C1777 C1781 1.429 . S
C1778 C1761 1.574 1_565 S
C1778 H1772 0.950 1_565 S
C1778 C1782 1.368 . S
C1779 C1760 1.429 . S
C1779 C1773 1.429 . S
C1779 C1780 1.503 1_545 S
C1780 C1761 1.370 1_565 S
C1780 C1774 1.382 . S
C1780 C1779 1.503 1_565 S
C1781 C1765 1.429 . S
C1781 C1777 1.429 . S
C1781 C1782 1.523 . S
C1782 C1766 1.368 . S
C1782 C1778 1.368 . S
C1782 C1781 1.523 . S
H1783 C1758 0.950 . S
H1784 C1760 0.950 1_565 S
H1785 C1761 0.949 . S
H1786 C1763 0.950 . S
H1787 C1765 0.950 . S
C1788 C1789 1.349 . S
C1788 C1790 1.329 . S
C1788 H1813 0.950 . S
C1789 C1788 1.349 . S
C1789 C1805 1.349 . S
C1790 C1788 1.329 . S
C1790 C1809 1.431 . S
C1790 H1814 0.945 1_655 S
C1791 C1808 1.591 . S
C1791 C1810 1.348 1_655 S
C1791 H1815 0.949 . S
H1792 C1796 0.949 . S
C1793 C1794 1.349 . S
C1793 C1795 1.327 . S
C1793 H1816 0.950 . S
C1794 C1793 1.349 . S
C1794 C1806 1.349 . S
C1795 C1793 1.327 . S
C1795 C1811 1.429 . S
C1795 H1817 0.950 . S
C1796 H1792 0.949 . S
C1796 C1804 1.574 . S
C1796 C1812 1.368 . S
H1797 C1805 0.950 . S
H1798 C1803 0.950 . S
H1799 C1804 0.949 . S
H1800 C1806 0.950 . S
H1801 C1807 0.950 . S
H1802 C1808 0.974 . S
C1803 H1798 0.950 . S
C1803 C1805 1.327 . S
C1803 C1809 1.429 . S
C1804 C1796 1.574 . S
C1804 H1799 0.949 . S
C1804 C1810 1.399 . S
C1805 C1789 1.349 . S
C1805 H1797 0.950 . S
C1805 C1803 1.327 . S
C1806 C1794 1.349 . S
C1806 H1800 0.950 . S
C1806 C1807 1.327 . S
C1807 H1801 0.950 . S
C1807 C1806 1.327 . S
C1807 C1811 1.429 . S
C1808 C1791 1.591 . S
C1808 H1802 0.974 . S
C1808 C1812 1.326 1_655 S
C1809 C1790 1.431 . S
C1809 C1803 1.429 . S
C1809 C1810 1.512 1_655 S
C1810 C1791 1.348 1_455 S
C1810 C1804 1.399 . S
C1810 C1809 1.512 1_455 S
C1811 C1795 1.429 . S
C1811 C1807 1.429 . S
C1811 C1812 1.523 . S
C1812 C1796 1.368 . S
C1812 C1808 1.326 1_455 S
C1812 C1811 1.523 . S
H1813 C1788 0.950 . S
H1814 C1790 0.945 1_455 S
H1815 C1791 0.949 . S
H1816 C1793 0.950 . S
H1817 C1795 0.950 . S
C1818 C1819 1.349 . S
C1818 C1820 1.327 . S
C1818 H1843 0.950 . S
C1819 C1818 1.349 . S
C1819 C1835 1.349 . S
C1820 C1818 1.327 . S
C1820 C1839 1.429 . S
C1820 H1844 0.950 . S
C1821 C1838 1.574 . S
C1821 C1840 1.368 . S
C1821 H1845 0.949 . S
H1822 C1826 0.949 . S
C1823 C1824 1.349 . S
C1823 C1825 1.327 . S
C1823 H1846 0.950 . S
C1824 C1823 1.349 . S
C1824 C1836 1.349 . S
C1825 C1823 1.327 . S
C1825 C1841 1.429 . S
C1825 H1847 0.950 . S
C1826 H1822 0.949 . S
C1826 C1834 1.574 . S
C1826 C1842 1.368 . S
H1827 C1835 0.950 . S
H1828 C1833 0.950 . S
H1829 C1834 0.949 . S
H1830 C1836 0.950 . S
H1831 C1837 0.950 . S
H1832 C1838 0.949 . S
C1833 H1828 0.950 . S
C1833 C1835 1.327 . S
C1833 C1839 1.429 . S
C1834 C1826 1.574 . S
C1834 H1829 0.949 . S
C1834 C1840 1.368 . S
C1835 C1819 1.349 . S
C1835 H1827 0.950 . S
C1835 C1833 1.327 . S
C1836 C1824 1.349 . S
C1836 H1830 0.950 . S
C1836 C1837 1.327 . S
C1837 H1831 0.950 . S
C1837 C1836 1.327 . S
C1837 C1841 1.429 . S
C1838 C1821 1.574 . S
C1838 H1832 0.949 . S
C1838 C1842 1.368 . S
C1839 C1820 1.429 . S
C1839 C1833 1.429 . S
C1839 C1840 1.523 . S
C1840 C1821 1.368 . S
C1840 C1834 1.368 . S
C1840 C1839 1.523 . S
C1841 C1825 1.429 . S
C1841 C1837 1.429 . S
C1841 C1842 1.523 . S
C1842 C1826 1.368 . S
C1842 C1838 1.368 . S
C1842 C1841 1.523 . S
H1843 C1818 0.950 . S
H1844 C1820 0.950 . S
H1845 C1821 0.949 . S
H1846 C1823 0.950 . S
H1847 C1825 0.950 . S
C1848 C1849 1.349 . S
C1848 C1850 1.327 . S
C1848 H1873 0.950 . S
C1849 C1848 1.349 . S
C1849 C1865 1.349 . S
C1850 C1848 1.327 . S
C1850 C1869 1.429 . S
C1850 H1874 0.950 1_565 S
C1851 C1868 1.574 1_565 S
C1851 C1870 1.347 1_565 S
C1851 H1875 0.949 . S
H1852 C1856 0.949 . S
C1853 C1854 1.349 . S
C1853 C1855 1.327 . S
C1853 H1876 0.950 . S
C1854 C1853 1.349 . S
C1854 C1866 1.349 . S
C1855 C1853 1.327 . S
C1855 C1871 1.429 . S
C1855 H1877 0.950 . S
C1856 H1852 0.949 . S
C1856 C1864 1.574 . S
C1856 C1872 1.368 . S
H1857 C1865 0.950 . S
H1858 C1863 0.950 . S
H1859 C1864 0.949 . S
H1860 C1866 0.950 . S
H1861 C1867 0.950 . S
H1862 C1868 0.936 1_565 S
C1863 H1858 0.950 . S
C1863 C1865 1.327 . S
C1863 C1869 1.429 . S
C1864 C1856 1.574 . S
C1864 H1859 0.949 . S
C1864 C1870 1.406 . S
C1865 C1849 1.349 . S
C1865 H1857 0.950 . S
C1865 C1863 1.327 . S
C1866 C1854 1.349 . S
C1866 H1860 0.950 . S
C1866 C1867 1.327 . S
C1867 H1861 0.950 . S
C1867 C1866 1.327 . S
C1867 C1871 1.429 . S
C1868 C1851 1.574 1_545 S
C1868 H1862 0.936 1_545 S
C1868 C1872 1.368 . S
C1869 C1850 1.429 . S
C1869 C1863 1.429 . S
C1869 C1870 1.503 1_565 S
C1870 C1851 1.347 1_545 S
C1870 C1864 1.406 . S
C1870 C1869 1.503 1_545 S
C1871 C1855 1.429 . S
C1871 C1867 1.429 . S
C1871 C1872 1.523 . S
C1872 C1856 1.368 . S
C1872 C1868 1.368 . S
C1872 C1871 1.523 . S
H1873 C1848 0.950 . S
H1874 C1850 0.950 1_545 S
H1875 C1851 0.949 . S
H1876 C1853 0.950 . S
H1877 C1855 0.950 . S
C1878 C1879 1.349 . S
C1878 C1880 1.327 . S
C1878 H1903 0.950 . S
C1879 C1878 1.349 . S
C1879 C1895 1.349 . S
C1880 C1878 1.327 . S
C1880 C1899 1.429 . S
C1880 H1904 0.950 . S
C1881 C1898 1.574 . S
C1881 C1900 1.368 . S
C1881 H1905 0.949 . S
H1882 C1886 0.949 . S
C1883 C1884 1.349 . S
C1883 C1885 1.344 . S
C1883 H1906 0.950 . S
C1884 C1883 1.349 . S
C1884 C1896 1.349 . S
C1885 C1883 1.344 . S
C1885 C1901 1.447 . S
C1885 H1907 0.915 1_455 S
C1886 H1882 0.949 . S
C1886 C1894 1.576 . S
C1886 C1902 1.351 1_455 S
H1887 C1895 0.950 . S
H1888 C1893 0.950 . S
H1889 C1894 0.952 . S
H1890 C1896 0.950 . S
H1891 C1897 0.950 . S
H1892 C1898 0.949 . S
C1893 H1888 0.950 . S
C1893 C1895 1.327 . S
C1893 C1899 1.429 . S
C1894 C1886 1.576 . S
C1894 H1889 0.952 . S
C1894 C1900 1.363 1_455 S
C1895 C1879 1.349 . S
C1895 H1887 0.950 . S
C1895 C1893 1.327 . S
C1896 C1884 1.349 . S
C1896 H1890 0.950 . S
C1896 C1897 1.327 . S
C1897 H1891 0.950 . S
C1897 C1896 1.327 . S
C1897 C1901 1.429 . S
C1898 C1881 1.574 . S
C1898 H1892 0.949 . S
C1898 C1902 1.395 . S
C1899 C1880 1.429 . S
C1899 C1893 1.429 . S
C1899 C1900 1.523 . S
C1900 C1881 1.368 . S
C1900 C1894 1.363 1_655 S
C1900 C1899 1.523 . S
C1901 C1885 1.447 . S
C1901 C1897 1.429 . S
C1901 C1902 1.512 1_455 S
C1902 C1886 1.351 1_655 S
C1902 C1898 1.395 . S
C1902 C1901 1.512 1_655 S
H1903 C1878 0.950 . S
H1904 C1880 0.950 . S
H1905 C1881 0.949 . S
H1906 C1883 0.950 . S
H1907 C1885 0.915 1_655 S
C1908 C1909 1.349 . S
C1908 C1910 1.327 . S
C1908 H1933 0.950 . S
C1909 C1908 1.349 . S
C1909 C1925 1.349 1_655 S
C1910 C1908 1.327 . S
C1910 C1929 1.429 . S
C1910 H1934 0.950 . S
C1911 C1928 1.574 . S
C1911 C1930 1.368 . S
C1911 H1935 0.949 . S
H1912 C1916 0.949 . S
C1913 C1914 1.349 . S
C1913 C1915 1.327 . S
C1913 H1936 0.950 . S
C1914 C1913 1.349 . S
C1914 C1926 1.349 . S
C1915 C1913 1.327 . S
C1915 C1931 1.429 . S
C1915 H1937 0.950 . S
C1916 H1912 0.949 . S
C1916 C1924 1.574 . S
C1916 C1932 1.368 . S
H1917 C1925 0.950 . S
H1918 C1923 0.950 1_455 S
H1919 C1924 0.949 . S
H1920 C1926 0.950 . S
H1921 C1927 0.950 . S
H1922 C1928 0.949 . S
C1923 H1918 0.950 1_655 S
C1923 C1925 1.327 1_655 S
C1923 C1929 1.429 . S
C1924 C1916 1.574 . S
C1924 H1919 0.949 . S
C1924 C1930 1.368 . S
C1925 C1909 1.349 1_455 S
C1925 H1917 0.950 . S
C1925 C1923 1.327 1_455 S
C1926 C1914 1.349 . S
C1926 H1920 0.950 . S
C1926 C1927 1.327 . S
C1927 H1921 0.950 . S
C1927 C1926 1.327 . S
C1927 C1931 1.429 . S
C1928 C1911 1.574 . S
C1928 H1922 0.949 . S
C1928 C1932 1.368 . S
C1929 C1910 1.429 . S
C1929 C1923 1.429 . S
C1929 C1930 1.523 . S
C1930 C1911 1.368 . S
C1930 C1924 1.368 . S
C1930 C1929 1.523 . S
C1931 C1915 1.429 . S
C1931 C1927 1.429 . S
C1931 C1932 1.523 . S
C1932 C1916 1.368 . S
C1932 C1928 1.368 . S
C1932 C1931 1.523 . S
H1933 C1908 0.950 . S
H1934 C1910 0.950 . S
H1935 C1911 0.949 . S
H1936 C1913 0.950 . S
H1937 C1915 0.950 . S
C1938 C1939 1.349 . S
C1938 C1940 1.327 . S
C1938 H1963 0.950 . S
C1939 C1938 1.349 . S
C1939 C1955 1.349 . S
C1940 C1938 1.327 . S
C1940 C1959 1.429 . S
C1940 H1964 0.950 . S
C1941 C1958 1.574 . S
C1941 C1960 1.368 . S
C1941 H1965 0.949 . S
H1942 C1946 0.949 . S
C1943 C1944 1.349 . S
C1943 C1945 1.327 . S
C1943 H1966 0.950 . S
C1944 C1943 1.349 . S
C1944 C1956 1.349 . S
C1945 C1943 1.327 . S
C1945 C1961 1.429 . S
C1945 H1967 0.950 . S
C1946 H1942 0.949 . S
C1946 C1954 1.574 . S
C1946 C1962 1.368 . S
H1947 C1955 0.950 . S
H1948 C1953 0.950 . S
H1949 C1954 0.949 . S
H1950 C1956 0.950 . S
H1951 C1957 0.950 . S
H1952 C1958 0.949 . S
C1953 H1948 0.950 . S
C1953 C1955 1.327 . S
C1953 C1959 1.429 . S
C1954 C1946 1.574 . S
C1954 H1949 0.949 . S
C1954 C1960 1.368 . S
C1955 C1939 1.349 . S
C1955 H1947 0.950 . S
C1955 C1953 1.327 . S
C1956 C1944 1.349 . S
C1956 H1950 0.950 . S
C1956 C1957 1.327 . S
C1957 H1951 0.950 . S
C1957 C1956 1.327 . S
C1957 C1961 1.429 . S
C1958 C1941 1.574 . S
C1958 H1952 0.949 . S
C1958 C1962 1.368 . S
C1959 C1940 1.429 . S
C1959 C1953 1.429 . S
C1959 C1960 1.523 . S
C1960 C1941 1.368 . S
C1960 C1954 1.368 . S
C1960 C1959 1.523 . S
C1961 C1945 1.429 . S
C1961 C1957 1.429 . S
C1961 C1962 1.523 . S
C1962 C1946 1.368 . S
C1962 C1958 1.368 . S
C1962 C1961 1.523 . S
H1963 C1938 0.950 . S
H1964 C1940 0.950 . S
H1965 C1941 0.949 . S
H1966 C1943 0.950 . S
H1967 C1945 0.950 . S
C1968 C1969 1.349 . S
C1968 C1970 1.327 . S
C1968 H1993 0.950 . S
C1969 C1968 1.349 . S
C1969 C1985 1.349 1_545 S
C1970 C1968 1.327 . S
C1970 C1989 1.429 . S
C1970 H1994 0.950 . S
C1971 C1988 1.574 . S
C1971 C1990 1.368 . S
C1971 H1995 0.949 . S
H1972 C1976 0.949 . S
C1973 C1974 1.349 . S
C1973 C1975 1.327 . S
C1973 H1996 0.950 . S
C1974 C1973 1.349 . S
C1974 C1986 1.349 . S
C1975 C1973 1.327 . S
C1975 C1991 1.429 . S
C1975 H1997 0.950 . S
C1976 H1972 0.949 . S
C1976 C1984 1.574 . S
C1976 C1992 1.368 . S
H1977 C1985 0.950 . S
H1978 C1983 0.950 1_565 S
H1979 C1984 0.949 . S
H1980 C1986 0.950 . S
H1981 C1987 0.950 . S
H1982 C1988 0.949 . S
C1983 H1978 0.950 1_545 S
C1983 C1985 1.327 1_545 S
C1983 C1989 1.429 . S
C1984 C1976 1.574 . S
C1984 H1979 0.949 . S
C1984 C1990 1.368 . S
C1985 C1969 1.349 1_565 S
C1985 H1977 0.950 . S
C1985 C1983 1.327 1_565 S
C1986 C1974 1.349 . S
C1986 H1980 0.950 . S
C1986 C1987 1.327 . S
C1987 H1981 0.950 . S
C1987 C1986 1.327 . S
C1987 C1991 1.429 . S
C1988 C1971 1.574 . S
C1988 H1982 0.949 . S
C1988 C1992 1.368 . S
C1989 C1970 1.429 . S
C1989 C1983 1.429 . S
C1989 C1990 1.523 . S
C1990 C1971 1.368 . S
C1990 C1984 1.368 . S
C1990 C1989 1.523 . S
C1991 C1975 1.429 . S
C1991 C1987 1.429 . S
C1991 C1992 1.523 . S
C1992 C1976 1.368 . S
C1992 C1988 1.368 . S
C1992 C1991 1.523 . S
H1993 C1968 0.950 . S
H1994 C1970 0.950 . S
H1995 C1971 0.949 . S
H1996 C1973 0.950 . S
H1997 C1975 0.950 . S
C1998 C1999 1.349 . S
C1998 C2000 1.327 . S
C1998 H2023 0.950 . S
C1999 C1998 1.349 . S
C1999 C2015 1.349 . S
C2000 C1998 1.327 . S
C2000 C2019 1.429 1_556 S
C2000 H2024 0.950 . S
C2001 C2018 1.574 . S
C2001 C2020 1.368 . S
C2001 H2025 0.949 . S
H2002 C2006 0.949 . S
C2003 C2004 1.349 . S
C2003 C2005 1.327 . S
C2003 H2026 0.950 . S
C2004 C2003 1.349 . S
C2004 C2016 1.349 . S
C2005 C2003 1.327 . S
C2005 C2021 1.429 . S
C2005 H2027 0.950 . S
C2006 H2002 0.949 . S
C2006 C2014 1.574 . S
C2006 C2022 1.368 . S
H2007 C2015 0.950 . S
H2008 C2013 0.950 . S
H2009 C2014 0.949 . S
H2010 C2016 0.950 . S
H2011 C2017 0.950 . S
H2012 C2018 0.949 . S
C2013 H2008 0.950 . S
C2013 C2015 1.327 1_554 S
C2013 C2019 1.429 . S
C2014 C2006 1.574 . S
C2014 H2009 0.949 . S
C2014 C2020 1.368 . S
C2015 C1999 1.349 . S
C2015 H2007 0.950 . S
C2015 C2013 1.327 1_556 S
C2016 C2004 1.349 . S
C2016 H2010 0.950 . S
C2016 C2017 1.327 . S
C2017 H2011 0.950 . S
C2017 C2016 1.327 . S
C2017 C2021 1.429 . S
C2018 C2001 1.574 . S
C2018 H2012 0.949 . S
C2018 C2022 1.368 . S
C2019 C2000 1.429 1_554 S
C2019 C2013 1.429 . S
C2019 C2020 1.523 . S
C2020 C2001 1.368 . S
C2020 C2014 1.368 . S
C2020 C2019 1.523 . S
C2021 C2005 1.429 . S
C2021 C2017 1.429 . S
C2021 C2022 1.523 . S
C2022 C2006 1.368 . S
C2022 C2018 1.368 . S
C2022 C2021 1.523 . S
H2023 C1998 0.950 . S
H2024 C2000 0.950 . S
H2025 C2001 0.949 . S
H2026 C2003 0.950 . S
H2027 C2005 0.950 . S
C2028 C2029 1.349 . S
C2028 C2030 1.327 . S
C2028 H2053 0.950 1_655 S
C2029 C2028 1.349 . S
C2029 C2045 1.349 . S
C2030 C2028 1.327 . S
C2030 C2049 1.429 . S
C2030 H2054 0.916 1_655 S
C2031 C2048 1.574 . S
C2031 C2050 1.368 . S
C2031 H2055 0.949 . S
H2032 C2036 0.949 . S
C2033 C2034 1.349 . S
C2033 C2035 1.327 1_556 S
C2033 H2056 0.950 . S
C2034 C2033 1.349 . S
C2034 C2046 1.349 . S
C2035 C2033 1.327 1_554 S
C2035 C2051 1.429 . S
C2035 H2057 0.950 . S
C2036 H2032 0.949 . S
C2036 C2044 1.574 . S
C2036 C2052 1.368 . S
H2037 C2045 0.950 . S
H2038 C2043 0.950 . S
H2039 C2044 0.967 . S
H2040 C2046 0.950 . S
H2041 C2047 0.949 1_554 S
H2042 C2048 0.949 . S
C2043 H2038 0.950 . S
C2043 C2045 1.327 . S
C2043 C2049 1.429 . S
C2044 C2036 1.574 . S
C2044 H2039 0.967 . S
C2044 C2050 1.368 . S
C2045 C2029 1.349 . S
C2045 H2037 0.950 . S
C2045 C2043 1.327 . S
C2046 C2034 1.349 . S
C2046 H2040 0.950 . S
C2046 C2047 1.327 . S
C2047 H2041 0.949 1_556 S
C2047 C2046 1.327 . S
C2047 C2051 1.429 1_556 S
C2048 C2031 1.574 . S
C2048 H2042 0.949 . S
C2048 C2052 1.368 . S
C2049 C2030 1.429 . S
C2049 C2043 1.429 . S
C2049 C2050 1.523 . S
C2050 C2031 1.368 . S
C2050 C2044 1.368 . S
C2050 C2049 1.523 . S
C2051 C2035 1.429 . S
C2051 C2047 1.429 1_554 S
C2051 C2052 1.523 . S
C2052 C2036 1.368 . S
C2052 C2048 1.368 . S
C2052 C2051 1.523 . S
H2053 C2028 0.950 1_455 S
H2054 C2030 0.916 1_455 S
H2055 C2031 0.949 . S
H2056 C2033 0.950 . S
H2057 C2035 0.950 . S
C2058 C2059 1.349 . S
C2058 C2060 1.327 . S
C2058 H2083 0.950 . S
C2059 C2058 1.349 . S
C2059 C2075 1.349 . S
C2060 C2058 1.327 . S
C2060 C2079 1.429 . S
C2060 H2084 0.950 . S
C2061 C2078 1.574 . S
C2061 C2080 1.368 . S
C2061 H2085 0.949 . S
H2062 C2066 0.949 . S
C2063 C2064 1.349 . S
C2063 C2065 1.327 1_556 S
C2063 H2086 0.950 . S
C2064 C2063 1.349 . S
C2064 C2076 1.349 . S
C2065 C2063 1.327 1_554 S
C2065 C2081 1.429 . S
C2065 H2087 0.950 . S
C2066 H2062 0.949 . S
C2066 C2074 1.574 . S
C2066 C2082 1.368 . S
H2067 C2075 0.950 . S
H2068 C2073 0.950 . S
H2069 C2074 0.949 . S
H2070 C2076 0.950 . S
H2071 C2077 0.950 . S
H2072 C2078 0.949 . S
C2073 H2068 0.950 . S
C2073 C2075 1.327 . S
C2073 C2079 1.429 . S
C2074 C2066 1.574 . S
C2074 H2069 0.949 . S
C2074 C2080 1.368 . S
C2075 C2059 1.349 . S
C2075 H2067 0.950 . S
C2075 C2073 1.327 . S
C2076 C2064 1.349 . S
C2076 H2070 0.950 . S
C2076 C2077 1.327 . S
C2077 H2071 0.950 . S
C2077 C2076 1.327 . S
C2077 C2081 1.429 1_556 S
C2078 C2061 1.574 . S
C2078 H2072 0.949 . S
C2078 C2082 1.368 . S
C2079 C2060 1.429 . S
C2079 C2073 1.429 . S
C2079 C2080 1.523 . S
C2080 C2061 1.368 . S
C2080 C2074 1.368 . S
C2080 C2079 1.523 . S
C2081 C2065 1.429 . S
C2081 C2077 1.429 1_554 S
C2081 C2082 1.523 . S
C2082 C2066 1.368 . S
C2082 C2078 1.368 . S
C2082 C2081 1.523 . S
H2083 C2058 0.950 . S
H2084 C2060 0.950 . S
H2085 C2061 0.949 . S
H2086 C2063 0.950 . S
H2087 C2065 0.950 . S
C2088 C2089 1.349 . S
C2088 C2090 1.327 1_554 S
C2088 H2113 0.950 . S
C2089 C2088 1.349 . S
C2089 C2105 1.349 . S
C2090 C2088 1.327 1_556 S
C2090 C2109 1.429 . S
C2090 H2114 0.950 . S
C2091 C2108 1.574 . S
C2091 C2110 1.368 . S
C2091 H2115 0.949 . S
H2092 C2096 0.949 . S
C2093 C2094 1.349 . S
C2093 C2095 1.327 . S
C2093 H2116 0.950 . S
C2094 C2093 1.349 . S
C2094 C2106 1.349 . S
C2095 C2093 1.327 . S
C2095 C2111 1.429 . S
C2095 H2117 0.950 . S
C2096 H2092 0.949 . S
C2096 C2104 1.574 . S
C2096 C2112 1.368 . S
H2097 C2105 0.950 . S
H2098 C2103 0.950 . S
H2099 C2104 0.949 . S
H2100 C2106 0.950 . S
H2101 C2107 0.950 . S
H2102 C2108 0.949 . S
C2103 H2098 0.950 . S
C2103 C2105 1.327 . S
C2103 C2109 1.429 1_554 S
C2104 C2096 1.574 . S
C2104 H2099 0.949 . S
C2104 C2110 1.368 . S
C2105 C2089 1.349 . S
C2105 H2097 0.950 . S
C2105 C2103 1.327 . S
C2106 C2094 1.349 . S
C2106 H2100 0.950 . S
C2106 C2107 1.327 . S
C2107 H2101 0.950 . S
C2107 C2106 1.327 . S
C2107 C2111 1.429 . S
C2108 C2091 1.574 . S
C2108 H2102 0.949 . S
C2108 C2112 1.368 . S
C2109 C2090 1.429 . S
C2109 C2103 1.429 1_556 S
C2109 C2110 1.523 . S
C2110 C2091 1.368 . S
C2110 C2104 1.368 . S
C2110 C2109 1.523 . S
C2111 C2095 1.429 . S
C2111 C2107 1.429 . S
C2111 C2112 1.523 . S
C2112 C2096 1.368 . S
C2112 C2108 1.368 . S
C2112 C2111 1.523 . S
H2113 C2088 0.950 . S
H2114 C2090 0.950 . S
H2115 C2091 0.949 . S
H2116 C2093 0.950 . S
H2117 C2095 0.950 . S
C2118 C2119 1.349 . S
C2118 C2120 1.327 . S
C2118 H2143 0.950 . S
C2119 C2118 1.349 . S
C2119 C2135 1.349 . S
C2120 C2118 1.327 . S
C2120 C2139 1.429 . S
C2120 H2144 0.950 . S
C2121 C2138 1.574 . S
C2121 C2140 1.368 . S
C2121 H2145 0.949 . S
H2122 C2126 0.949 . S
C2123 C2124 1.349 . S
C2123 C2125 1.327 1_554 S
C2123 H2146 0.950 . S
C2124 C2123 1.349 . S
C2124 C2136 1.349 . S
C2125 C2123 1.327 1_556 S
C2125 C2141 1.429 . S
C2125 H2147 0.950 . S
C2126 H2122 0.949 . S
C2126 C2134 1.574 . S
C2126 C2142 1.368 . S
H2127 C2135 0.950 . S
H2128 C2133 0.950 . S
H2129 C2134 0.949 . S
H2130 C2136 0.950 . S
H2131 C2137 0.950 . S
H2132 C2138 0.949 . S
C2133 H2128 0.950 . S
C2133 C2135 1.327 . S
C2133 C2139 1.429 . S
C2134 C2126 1.574 . S
C2134 H2129 0.949 . S
C2134 C2140 1.368 . S
C2135 C2119 1.349 . S
C2135 H2127 0.950 . S
C2135 C2133 1.327 . S
C2136 C2124 1.349 . S
C2136 H2130 0.950 . S
C2136 C2137 1.327 . S
C2137 H2131 0.950 . S
C2137 C2136 1.327 . S
C2137 C2141 1.429 1_554 S
C2138 C2121 1.574 . S
C2138 H2132 0.949 . S
C2138 C2142 1.368 . S
C2139 C2120 1.429 . S
C2139 C2133 1.429 . S
C2139 C2140 1.523 . S
C2140 C2121 1.368 . S
C2140 C2134 1.368 . S
C2140 C2139 1.523 . S
C2141 C2125 1.429 . S
C2141 C2137 1.429 1_556 S
C2141 C2142 1.523 . S
C2142 C2126 1.368 . S
C2142 C2138 1.368 . S
C2142 C2141 1.523 . S
H2143 C2118 0.950 . S
H2144 C2120 0.950 . S
H2145 C2121 0.949 . S
H2146 C2123 0.950 . S
H2147 C2125 0.950 . S
C2148 C2149 1.349 . S
C2148 C2150 1.327 . S
C2148 H2173 0.950 . S
C2149 C2148 1.349 . S
C2149 C2165 1.349 . S
C2150 C2148 1.327 . S
C2150 C2169 1.429 1_554 S
C2150 H2174 0.950 . S
C2151 C2168 1.574 . S
C2151 C2170 1.368 . S
C2151 H2175 0.949 . S
H2152 C2156 0.949 . S
C2153 C2154 1.349 . S
C2153 C2155 1.327 . S
C2153 H2176 0.950 . S
C2154 C2153 1.349 . S
C2154 C2166 1.349 . S
C2155 C2153 1.327 . S
C2155 C2171 1.429 . S
C2155 H2177 0.950 . S
C2156 H2152 0.949 . S
C2156 C2164 1.574 . S
C2156 C2172 1.368 . S
H2157 C2165 0.950 . S
H2158 C2163 0.950 . S
H2159 C2164 0.949 . S
H2160 C2166 0.950 . S
H2161 C2167 0.950 . S
H2162 C2168 0.949 . S
C2163 H2158 0.950 . S
C2163 C2165 1.327 1_556 S
C2163 C2169 1.429 . S
C2164 C2156 1.574 . S
C2164 H2159 0.949 . S
C2164 C2170 1.368 . S
C2165 C2149 1.349 . S
C2165 H2157 0.950 . S
C2165 C2163 1.327 1_554 S
C2166 C2154 1.349 . S
C2166 H2160 0.950 . S
C2166 C2167 1.327 . S
C2167 H2161 0.950 . S
C2167 C2166 1.327 . S
C2167 C2171 1.429 . S
C2168 C2151 1.574 . S
C2168 H2162 0.949 . S
C2168 C2172 1.368 . S
C2169 C2150 1.429 1_556 S
C2169 C2163 1.429 . S
C2169 C2170 1.523 . S
C2170 C2151 1.368 . S
C2170 C2164 1.368 . S
C2170 C2169 1.523 . S
C2171 C2155 1.429 . S
C2171 C2167 1.429 . S
C2171 C2172 1.523 . S
C2172 C2156 1.368 . S
C2172 C2168 1.368 . S
C2172 C2171 1.523 . S
H2173 C2148 0.950 . S
H2174 C2150 0.950 . S
H2175 C2151 0.949 . S
H2176 C2153 0.950 . S
H2177 C2155 0.950 . S
C2178 C2179 1.349 . S
C2178 C2180 1.327 . S
C2178 H2203 0.950 . S
C2179 C2178 1.349 . S
C2179 C2195 1.349 . S
C2180 C2178 1.327 . S
C2180 C2199 1.429 . S
C2180 H2204 0.950 . S
C2181 C2198 1.574 . S
C2181 C2200 1.368 . S
C2181 H2205 0.949 . S
H2182 C2186 0.949 . S
C2183 C2184 1.349 . S
C2183 C2185 1.327 . S
C2183 H2206 0.950 . S
C2184 C2183 1.349 . S
C2184 C2196 1.349 . S
C2185 C2183 1.327 . S
C2185 C2201 1.429 . S
C2185 H2207 0.950 . S
C2186 H2182 0.949 . S
C2186 C2194 1.574 . S
C2186 C2202 1.368 . S
H2187 C2195 0.950 . S
H2188 C2193 0.950 . S
H2189 C2194 0.949 . S
H2190 C2196 0.950 . S
H2191 C2197 0.950 . S
H2192 C2198 0.949 . S
C2193 H2188 0.950 . S
C2193 C2195 1.327 . S
C2193 C2199 1.429 . S
C2194 C2186 1.574 . S
C2194 H2189 0.949 . S
C2194 C2200 1.368 . S
C2195 C2179 1.349 . S
C2195 H2187 0.950 . S
C2195 C2193 1.327 . S
C2196 C2184 1.349 . S
C2196 H2190 0.950 . S
C2196 C2197 1.327 . S
C2197 H2191 0.950 . S
C2197 C2196 1.327 . S
C2197 C2201 1.429 . S
C2198 C2181 1.574 . S
C2198 H2192 0.949 . S
C2198 C2202 1.368 . S
C2199 C2180 1.429 . S
C2199 C2193 1.429 . S
C2199 C2200 1.523 . S
C2200 C2181 1.368 . S
C2200 C2194 1.368 . S
C2200 C2199 1.523 . S
C2201 C2185 1.429 . S
C2201 C2197 1.429 . S
C2201 C2202 1.523 . S
C2202 C2186 1.368 . S
C2202 C2198 1.368 . S
C2202 C2201 1.523 . S
H2203 C2178 0.950 . S
H2204 C2180 0.950 . S
H2205 C2181 0.949 . S
H2206 C2183 0.950 . S
H2207 C2185 0.950 . S
C2208 C2209 1.349 . S
C2208 C2210 1.327 . S
C2208 H2233 0.950 . S
C2209 C2208 1.349 . S
C2209 C2225 1.349 . S
C2210 C2208 1.327 . S
C2210 C2229 1.429 . S
C2210 H2234 0.950 . S
C2211 C2228 1.574 . S
C2211 C2230 1.368 . S
C2211 H2235 0.949 . S
H2212 C2216 0.949 . S
C2213 C2214 1.349 . S
C2213 C2215 1.327 . S
C2213 H2236 0.950 . S
C2214 C2213 1.349 . S
C2214 C2226 1.349 . S
C2215 C2213 1.327 . S
C2215 C2231 1.429 . S
C2215 H2237 0.950 . S
C2216 H2212 0.949 . S
C2216 C2224 1.574 . S
C2216 C2232 1.368 . S
H2217 C2225 0.950 . S
H2218 C2223 0.950 . S
H2219 C2224 0.949 . S
H2220 C2226 0.950 . S
H2221 C2227 0.950 . S
H2222 C2228 0.949 . S
C2223 H2218 0.950 . S
C2223 C2225 1.327 . S
C2223 C2229 1.429 . S
C2224 C2216 1.574 . S
C2224 H2219 0.949 . S
C2224 C2230 1.368 . S
C2225 C2209 1.349 . S
C2225 H2217 0.950 . S
C2225 C2223 1.327 . S
C2226 C2214 1.349 . S
C2226 H2220 0.950 . S
C2226 C2227 1.327 . S
C2227 H2221 0.950 . S
C2227 C2226 1.327 . S
C2227 C2231 1.429 . S
C2228 C2211 1.574 . S
C2228 H2222 0.949 . S
C2228 C2232 1.368 . S
C2229 C2210 1.429 . S
C2229 C2223 1.429 . S
C2229 C2230 1.523 . S
C2230 C2211 1.368 . S
C2230 C2224 1.368 . S
C2230 C2229 1.523 . S
C2231 C2215 1.429 . S
C2231 C2227 1.429 . S
C2231 C2232 1.523 . S
C2232 C2216 1.368 . S
C2232 C2228 1.368 . S
C2232 C2231 1.523 . S
H2233 C2208 0.950 . S
H2234 C2210 0.950 . S
H2235 C2211 0.949 . S
H2236 C2213 0.950 . S
H2237 C2215 0.950 . S
C2238 C2239 1.349 . S
C2238 C2240 1.327 . S
C2238 H2263 0.950 . S
C2239 C2238 1.349 . S
C2239 C2255 1.349 . S
C2240 C2238 1.327 . S
C2240 C2259 1.429 . S
C2240 H2264 0.950 . S
C2241 C2258 1.574 . S
C2241 C2260 1.368 . S
C2241 H2265 0.949 . S
H2242 C2246 0.949 . S
C2243 C2244 1.343 1_545 S
C2243 C2245 1.314 1_545 S
C2243 H2266 0.975 . S
C2244 C2243 1.343 1_565 S
C2244 C2256 1.349 . S
C2245 C2243 1.314 1_565 S
C2245 C2261 1.429 . S
C2245 H2267 0.950 . S
C2246 H2242 0.949 . S
C2246 C2254 1.574 . S
C2246 C2262 1.368 . S
H2247 C2255 0.950 . S
H2248 C2253 0.950 . S
H2249 C2254 0.949 . S
H2250 C2256 0.950 . S
H2251 C2257 0.950 . S
H2252 C2258 0.949 . S
C2253 H2248 0.950 . S
C2253 C2255 1.327 . S
C2253 C2259 1.429 . S
C2254 C2246 1.574 . S
C2254 H2249 0.949 . S
C2254 C2260 1.368 . S
C2255 C2239 1.349 . S
C2255 H2247 0.950 . S
C2255 C2253 1.327 . S
C2256 C2244 1.349 . S
C2256 H2250 0.950 . S
C2256 C2257 1.327 . S
C2257 H2251 0.950 . S
C2257 C2256 1.327 . S
C2257 C2261 1.429 . S
C2258 C2241 1.574 . S
C2258 H2252 0.949 . S
C2258 C2262 1.368 . S
C2259 C2240 1.429 . S
C2259 C2253 1.429 . S
C2259 C2260 1.523 . S
C2260 C2241 1.368 . S
C2260 C2254 1.368 . S
C2260 C2259 1.523 . S
C2261 C2245 1.429 . S
C2261 C2257 1.429 . S
C2261 C2262 1.523 . S
C2262 C2246 1.368 . S
C2262 C2258 1.368 . S
C2262 C2261 1.523 . S
H2263 C2238 0.950 . S
H2264 C2240 0.950 . S
H2265 C2241 0.949 . S
H2266 C2243 0.975 . S
H2267 C2245 0.950 . S
C2268 C2269 1.349 . S
C2268 C2270 1.327 . S
C2268 H2293 0.950 . S
C2269 C2268 1.349 . S
C2269 C2285 1.349 . S
C2270 C2268 1.327 . S
C2270 C2289 1.429 . S
C2270 H2294 0.950 . S
C2271 C2288 1.574 . S
C2271 C2290 1.368 1_554 S
C2271 H2295 0.949 . S
H2272 C2276 0.949 . S
C2273 C2274 1.349 . S
C2273 C2275 1.327 . S
C2273 H2296 0.950 . S
C2274 C2273 1.349 . S
C2274 C2286 1.349 . S
C2275 C2273 1.327 . S
C2275 C2291 1.429 . S
C2275 H2297 0.950 . S
C2276 H2272 0.949 . S
C2276 C2284 1.574 . S
C2276 C2292 1.368 1_556 S
H2277 C2285 0.950 . S
H2278 C2283 0.950 . S
H2279 C2284 0.949 . S
H2280 C2286 0.950 . S
H2281 C2287 0.950 . S
H2282 C2288 0.949 . S
C2283 H2278 0.950 . S
C2283 C2285 1.327 . S
C2283 C2289 1.429 . S
C2284 C2276 1.574 . S
C2284 H2279 0.949 . S
C2284 C2290 1.368 . S
C2285 C2269 1.349 . S
C2285 H2277 0.950 . S
C2285 C2283 1.327 . S
C2286 C2274 1.349 . S
C2286 H2280 0.950 . S
C2286 C2287 1.327 . S
C2287 H2281 0.950 . S
C2287 C2286 1.327 . S
C2287 C2291 1.429 . S
C2288 C2271 1.574 . S
C2288 H2282 0.949 . S
C2288 C2292 1.368 . S
C2289 C2270 1.429 . S
C2289 C2283 1.429 . S
C2289 C2290 1.523 . S
C2290 C2271 1.368 1_556 S
C2290 C2284 1.368 . S
C2290 C2289 1.523 . S
C2291 C2275 1.429 . S
C2291 C2287 1.429 . S
C2291 C2292 1.523 . S
C2292 C2276 1.368 1_554 S
C2292 C2288 1.368 . S
C2292 C2291 1.523 . S
H2293 C2268 0.950 . S
H2294 C2270 0.950 . S
H2295 C2271 0.949 . S
H2296 C2273 0.950 . S
H2297 C2275 0.950 . S
C2298 C2299 1.349 . S
C2298 C2300 1.327 . S
C2298 H2323 0.950 . S
C2299 C2298 1.349 . S
C2299 C2315 1.349 . S
C2300 C2298 1.327 . S
C2300 C2319 1.429 . S
C2300 H2324 0.950 . S
C2301 C2318 1.575 . S
C2301 C2320 1.367 1_554 S
C2301 H2325 0.949 . S
H2302 C2306 0.949 . S
C2303 C2304 1.349 1_545 S
C2303 C2305 1.327 . S
C2303 H2326 0.950 . S
C2304 C2303 1.349 1_565 S
C2304 C2316 1.347 . S
C2305 C2303 1.327 . S
C2305 C2321 1.429 . S
C2305 H2327 0.950 . S
C2306 H2302 0.949 . S
C2306 C2314 1.579 . S
C2306 C2322 1.363 1_556 S
H2307 C2315 0.950 . S
H2308 C2313 0.950 . S
H2309 C2314 0.949 . S
H2310 C2316 0.957 . S
H2311 C2317 0.950 . S
H2312 C2318 0.949 . S
C2313 H2308 0.950 . S
C2313 C2315 1.327 . S
C2313 C2319 1.429 . S
C2314 C2306 1.579 . S
C2314 H2309 0.949 . S
C2314 C2320 1.368 . S
C2315 C2299 1.349 . S
C2315 H2307 0.950 . S
C2315 C2313 1.327 . S
C2316 C2304 1.347 . S
C2316 H2310 0.957 . S
C2316 C2317 1.322 1_565 S
C2317 H2311 0.950 . S
C2317 C2316 1.322 1_545 S
C2317 C2321 1.429 . S
C2318 C2301 1.575 . S
C2318 H2312 0.949 . S
C2318 C2322 1.368 . S
C2319 C2300 1.429 . S
C2319 C2313 1.429 . S
C2319 C2320 1.523 . S
C2320 C2301 1.367 1_556 S
C2320 C2314 1.368 . S
C2320 C2319 1.523 . S
C2321 C2305 1.429 . S
C2321 C2317 1.429 . S
C2321 C2322 1.523 . S
C2322 C2306 1.363 1_554 S
C2322 C2318 1.368 . S
C2322 C2321 1.523 . S
H2323 C2298 0.950 . S
H2324 C2300 0.950 . S
H2325 C2301 0.949 . S
H2326 C2303 0.950 . S
H2327 C2305 0.950 . S
C2328 C2329 1.349 . S
C2328 C2330 1.327 . S
C2328 H2353 0.950 . S
C2329 C2328 1.349 . S
C2329 C2345 1.349 . S
C2330 C2328 1.327 . S
C2330 C2349 1.429 . S
C2330 H2354 0.950 . S
C2331 C2348 1.574 . S
C2331 C2350 1.368 . S
C2331 H2355 0.949 . S
H2332 C2336 0.949 . S
C2333 C2334 1.349 . S
C2333 C2335 1.327 1_455 S
C2333 H2356 0.950 . S
C2334 C2333 1.349 . S
C2334 C2346 1.349 1_455 S
C2335 C2333 1.327 1_655 S
C2335 C2351 1.429 . S
C2335 H2357 0.950 . S
C2336 H2332 0.949 . S
C2336 C2344 1.574 . S
C2336 C2352 1.368 . S
H2337 C2345 0.950 . S
H2338 C2343 0.950 . S
H2339 C2344 0.949 . S
H2340 C2346 0.950 . S
H2341 C2347 0.950 . S
H2342 C2348 0.949 . S
C2343 H2338 0.950 . S
C2343 C2345 1.327 . S
C2343 C2349 1.429 . S
C2344 C2336 1.574 . S
C2344 H2339 0.949 . S
C2344 C2350 1.368 1_554 S
C2345 C2329 1.349 . S
C2345 H2337 0.950 . S
C2345 C2343 1.327 . S
C2346 C2334 1.349 1_655 S
C2346 H2340 0.950 . S
C2346 C2347 1.327 . S
C2347 H2341 0.950 . S
C2347 C2346 1.327 . S
C2347 C2351 1.429 . S
C2348 C2331 1.574 . S
C2348 H2342 0.949 . S
C2348 C2352 1.368 1_556 S
C2349 C2330 1.429 . S
C2349 C2343 1.429 . S
C2349 C2350 1.523 . S
C2350 C2331 1.368 . S
C2350 C2344 1.368 1_556 S
C2350 C2349 1.523 . S
C2351 C2335 1.429 . S
C2351 C2347 1.429 . S
C2351 C2352 1.523 . S
C2352 C2336 1.368 . S
C2352 C2348 1.368 1_554 S
C2352 C2351 1.523 . S
H2353 C2328 0.950 . S
H2354 C2330 0.950 . S
H2355 C2331 0.949 . S
H2356 C2333 0.950 . S
H2357 C2335 0.950 . S
C2358 C2359 1.349 . S
C2358 C2360 1.327 . S
C2358 H2383 0.950 . S
C2359 C2358 1.349 . S
C2359 C2375 1.349 . S
C2360 C2358 1.327 . S
C2360 C2379 1.429 . S
C2360 H2384 0.950 . S
C2361 C2378 1.574 . S
C2361 C2380 1.368 1_556 S
C2361 H2385 0.949 . S
H2362 C2366 0.949 . S
C2363 C2364 1.349 . S
C2363 C2365 1.327 . S
C2363 H2386 0.950 . S
C2364 C2363 1.349 . S
C2364 C2376 1.349 . S
C2365 C2363 1.327 . S
C2365 C2381 1.429 . S
C2365 H2387 0.950 . S
C2366 H2362 0.949 . S
C2366 C2374 1.574 . S
C2366 C2382 1.368 1_554 S
H2367 C2375 0.950 . S
H2368 C2373 0.950 1_556 S
H2369 C2374 0.949 . S
H2370 C2376 0.950 . S
H2371 C2377 0.950 1_554 S
H2372 C2378 0.949 . S
C2373 H2368 0.950 1_554 S
C2373 C2375 1.327 . S
C2373 C2379 1.429 . S
C2374 C2366 1.574 . S
C2374 H2369 0.949 . S
C2374 C2380 1.368 . S
C2375 C2359 1.349 . S
C2375 H2367 0.950 . S
C2375 C2373 1.327 . S
C2376 C2364 1.349 . S
C2376 H2370 0.950 . S
C2376 C2377 1.327 . S
C2377 H2371 0.950 1_556 S
C2377 C2376 1.327 . S
C2377 C2381 1.429 . S
C2378 C2361 1.574 . S
C2378 H2372 0.949 . S
C2378 C2382 1.368 . S
C2379 C2360 1.429 . S
C2379 C2373 1.429 . S
C2379 C2380 1.523 . S
C2380 C2361 1.368 1_554 S
C2380 C2374 1.368 . S
C2380 C2379 1.523 . S
C2381 C2365 1.429 . S
C2381 C2377 1.429 . S
C2381 C2382 1.523 . S
C2382 C2366 1.368 1_556 S
C2382 C2378 1.368 . S
C2382 C2381 1.523 . S
H2383 C2358 0.950 . S
H2384 C2360 0.950 . S
H2385 C2361 0.949 . S
H2386 C2363 0.950 . S
H2387 C2365 0.950 . S
C2388 C2389 1.349 . S
C2388 C2390 1.327 1_545 S
C2388 H2413 0.950 . S
C2389 C2388 1.349 . S
C2389 C2405 1.349 1_545 S
C2390 C2388 1.327 1_565 S
C2390 C2409 1.429 . S
C2390 H2414 0.946 1_556 S
C2391 C2408 1.574 . S
C2391 C2410 1.368 . S
C2391 H2415 0.949 . S
H2392 C2396 0.949 . S
C2393 C2394 1.349 . S
C2393 C2395 1.327 . S
C2393 H2416 0.950 . S
C2394 C2393 1.349 . S
C2394 C2406 1.349 . S
C2395 C2393 1.327 . S
C2395 C2411 1.429 . S
C2395 H2417 0.954 1_554 S
C2396 H2392 0.949 . S
C2396 C2404 1.574 . S
C2396 C2412 1.368 . S
H2397 C2405 0.950 . S
H2398 C2403 0.950 . S
H2399 C2404 0.949 . S
H2400 C2406 0.950 . S
H2401 C2407 0.950 . S
H2402 C2408 0.949 . S
C2403 H2398 0.950 . S
C2403 C2405 1.327 . S
C2403 C2409 1.429 . S
C2404 C2396 1.574 . S
C2404 H2399 0.949 . S
C2404 C2410 1.368 1_554 S
C2405 C2389 1.349 1_565 S
C2405 H2397 0.950 . S
C2405 C2403 1.327 . S
C2406 C2394 1.349 . S
C2406 H2400 0.950 . S
C2406 C2407 1.327 . S
C2407 H2401 0.950 . S
C2407 C2406 1.327 . S
C2407 C2411 1.429 . S
C2408 C2391 1.574 . S
C2408 H2402 0.949 . S
C2408 C2412 1.368 1_556 S
C2409 C2390 1.429 . S
C2409 C2403 1.429 . S
C2409 C2410 1.523 . S
C2410 C2391 1.368 . S
C2410 C2404 1.368 1_556 S
C2410 C2409 1.523 . S
C2411 C2395 1.429 . S
C2411 C2407 1.429 . S
C2411 C2412 1.523 . S
C2412 C2396 1.368 . S
C2412 C2408 1.368 1_554 S
C2412 C2411 1.523 . S
H2413 C2388 0.950 . S
H2414 C2390 0.946 1_554 S
H2415 C2391 0.949 . S
H2416 C2393 0.950 . S
H2417 C2395 0.954 1_556 S
C2418 C2419 1.349 1_455 S
C2418 C2420 1.327 . S
C2418 H2443 0.950 . S
C2419 C2418 1.349 1_655 S
C2419 C2435 1.315 1_655 S
C2420 C2418 1.327 . S
C2420 C2439 1.429 . S
C2420 H2444 0.950 . S
C2421 C2438 1.574 1_556 S
C2421 C2440 1.368 . S
C2421 H2445 0.949 . S
H2422 C2426 0.949 . S
C2423 C2424 1.349 . S
C2423 C2425 1.327 . S
C2423 H2446 0.950 . S
C2424 C2423 1.349 . S
C2424 C2436 1.349 . S
C2425 C2423 1.327 . S
C2425 C2441 1.429 . S
C2425 H2447 0.950 . S
C2426 H2422 0.949 . S
C2426 C2434 1.574 1_554 S
C2426 C2442 1.368 . S
H2427 C2435 0.939 1_655 S
H2428 C2433 0.950 . S
H2429 C2434 0.949 . S
H2430 C2436 0.950 . S
H2431 C2437 0.950 . S
H2432 C2438 0.949 . S
C2433 H2428 0.950 . S
C2433 C2435 1.374 . S
C2433 C2439 1.429 . S
C2434 C2426 1.574 1_556 S
C2434 H2429 0.949 . S
C2434 C2440 1.368 . S
C2435 C2419 1.315 1_455 S
C2435 H2427 0.939 1_455 S
C2435 C2433 1.374 . S
C2436 C2424 1.349 . S
C2436 H2430 0.950 . S
C2436 C2437 1.327 . S
C2437 H2431 0.950 . S
C2437 C2436 1.327 . S
C2437 C2441 1.429 . S
C2438 C2421 1.574 1_554 S
C2438 H2432 0.949 . S
C2438 C2442 1.368 . S
C2439 C2420 1.429 . S
C2439 C2433 1.429 . S
C2439 C2440 1.523 . S
C2440 C2421 1.368 . S
C2440 C2434 1.368 . S
C2440 C2439 1.523 . S
C2441 C2425 1.429 . S
C2441 C2437 1.429 . S
C2441 C2442 1.523 . S
C2442 C2426 1.368 . S
C2442 C2438 1.368 . S
C2442 C2441 1.523 . S
H2443 C2418 0.950 . S
H2444 C2420 0.950 . S
H2445 C2421 0.949 . S
H2446 C2423 0.950 . S
H2447 C2425 0.950 . S
C2448 C2449 1.349 . S
C2448 C2450 1.327 . S
C2448 H2473 0.950 . S
C2449 C2448 1.349 . S
C2449 C2465 1.349 . S
C2450 C2448 1.327 . S
C2450 C2469 1.429 . S
C2450 H2474 0.950 . S
C2451 C2468 1.574 . S
C2451 C2470 1.368 . S
C2451 H2475 0.949 . S
H2452 C2456 0.949 . S
C2453 C2454 1.349 . S
C2453 C2455 1.327 . S
C2453 H2476 0.950 . S
C2454 C2453 1.349 . S
C2454 C2466 1.349 . S
C2455 C2453 1.327 . S
C2455 C2471 1.429 . S
C2455 H2477 0.950 . S
C2456 H2452 0.949 . S
C2456 C2464 1.574 . S
C2456 C2472 1.368 . S
H2457 C2465 0.950 . S
H2458 C2463 0.950 . S
H2459 C2464 0.949 . S
H2460 C2466 0.950 . S
H2461 C2467 0.950 . S
H2462 C2468 0.949 . S
C2463 H2458 0.950 . S
C2463 C2465 1.327 . S
C2463 C2469 1.429 . S
C2464 C2456 1.574 . S
C2464 H2459 0.949 . S
C2464 C2470 1.368 . S
C2465 C2449 1.349 . S
C2465 H2457 0.950 . S
C2465 C2463 1.327 . S
C2466 C2454 1.349 . S
C2466 H2460 0.950 . S
C2466 C2467 1.327 . S
C2467 H2461 0.950 . S
C2467 C2466 1.327 . S
C2467 C2471 1.429 . S
C2468 C2451 1.574 . S
C2468 H2462 0.949 . S
C2468 C2472 1.368 . S
C2469 C2450 1.429 . S
C2469 C2463 1.429 . S
C2469 C2470 1.523 . S
C2470 C2451 1.368 . S
C2470 C2464 1.368 . S
C2470 C2469 1.523 . S
C2471 C2455 1.429 . S
C2471 C2467 1.429 . S
C2471 C2472 1.523 . S
C2472 C2456 1.368 . S
C2472 C2468 1.368 . S
C2472 C2471 1.523 . S
H2473 C2448 0.950 . S
H2474 C2450 0.950 . S
H2475 C2451 0.949 . S
H2476 C2453 0.950 . S
H2477 C2455 0.950 . S
C2478 C2479 1.349 . S
C2478 C2480 1.327 . S
C2478 H2503 0.950 . S
C2479 C2478 1.349 . S
C2479 C2495 1.349 . S
C2480 C2478 1.327 . S
C2480 C2499 1.429 . S
C2480 H2504 0.950 . S
C2481 C2498 1.574 . S
C2481 C2500 1.368 . S
C2481 H2505 0.949 . S
H2482 C2486 0.949 . S
C2483 C2484 1.349 . S
C2483 C2485 1.327 . S
C2483 H2506 0.950 . S
C2484 C2483 1.349 . S
C2484 C2496 1.349 . S
C2485 C2483 1.327 . S
C2485 C2501 1.429 . S
C2485 H2507 0.950 . S
C2486 H2482 0.949 . S
C2486 C2494 1.574 . S
C2486 C2502 1.368 . S
H2487 C2495 0.950 . S
H2488 C2493 0.950 . S
H2489 C2494 0.949 . S
H2490 C2496 0.950 . S
H2491 C2497 0.950 . S
H2492 C2498 0.949 . S
C2493 H2488 0.950 . S
C2493 C2495 1.327 . S
C2493 C2499 1.429 . S
C2494 C2486 1.574 . S
C2494 H2489 0.949 . S
C2494 C2500 1.368 . S
C2495 C2479 1.349 . S
C2495 H2487 0.950 . S
C2495 C2493 1.327 . S
C2496 C2484 1.349 . S
C2496 H2490 0.950 . S
C2496 C2497 1.327 . S
C2497 H2491 0.950 . S
C2497 C2496 1.327 . S
C2497 C2501 1.429 . S
C2498 C2481 1.574 . S
C2498 H2492 0.949 . S
C2498 C2502 1.368 . S
C2499 C2480 1.429 . S
C2499 C2493 1.429 . S
C2499 C2500 1.523 . S
C2500 C2481 1.368 . S
C2500 C2494 1.368 . S
C2500 C2499 1.523 . S
C2501 C2485 1.429 . S
C2501 C2497 1.429 . S
C2501 C2502 1.523 . S
C2502 C2486 1.368 . S
C2502 C2498 1.368 . S
C2502 C2501 1.523 . S
H2503 C2478 0.950 . S
H2504 C2480 0.950 . S
H2505 C2481 0.949 . S
H2506 C2483 0.950 . S
H2507 C2485 0.950 . S
C2508 C2509 1.349 . S
C2508 C2510 1.327 . S
C2508 H2533 0.950 . S
C2509 C2508 1.349 . S
C2509 C2525 1.349 . S
C2510 C2508 1.327 . S
C2510 C2529 1.429 . S
C2510 H2534 0.950 . S
C2511 C2528 1.574 . S
C2511 C2530 1.368 . S
C2511 H2535 0.949 . S
H2512 C2516 0.949 . S
C2513 C2514 1.349 . S
C2513 C2515 1.327 . S
C2513 H2536 0.950 . S
C2514 C2513 1.349 . S
C2514 C2526 1.349 . S
C2515 C2513 1.327 . S
C2515 C2531 1.429 . S
C2515 H2537 0.950 . S
C2516 H2512 0.949 . S
C2516 C2524 1.574 . S
C2516 C2532 1.368 . S
H2517 C2525 0.950 . S
H2518 C2523 0.950 . S
H2519 C2524 0.949 . S
H2520 C2526 0.950 . S
H2521 C2527 0.950 . S
H2522 C2528 0.949 . S
C2523 H2518 0.950 . S
C2523 C2525 1.327 . S
C2523 C2529 1.429 . S
C2524 C2516 1.574 . S
C2524 H2519 0.949 . S
C2524 C2530 1.368 . S
C2525 C2509 1.349 . S
C2525 H2517 0.950 . S
C2525 C2523 1.327 . S
C2526 C2514 1.349 . S
C2526 H2520 0.950 . S
C2526 C2527 1.327 . S
C2527 H2521 0.950 . S
C2527 C2526 1.327 . S
C2527 C2531 1.429 . S
C2528 C2511 1.574 . S
C2528 H2522 0.949 . S
C2528 C2532 1.368 . S
C2529 C2510 1.429 . S
C2529 C2523 1.429 . S
C2529 C2530 1.523 . S
C2530 C2511 1.368 . S
C2530 C2524 1.368 . S
C2530 C2529 1.523 . S
C2531 C2515 1.429 . S
C2531 C2527 1.429 . S
C2531 C2532 1.523 . S
C2532 C2516 1.368 . S
C2532 C2528 1.368 . S
C2532 C2531 1.523 . S
H2533 C2508 0.950 . S
H2534 C2510 0.950 . S
H2535 C2511 0.949 . S
H2536 C2513 0.950 . S
H2537 C2515 0.950 . S
C2538 C2539 1.349 . S
C2538 C2540 1.327 . S
C2538 H2563 0.950 . S
C2539 C2538 1.349 . S
C2539 C2555 1.349 . S
C2540 C2538 1.327 . S
C2540 C2559 1.429 . S
C2540 H2564 0.950 . S
C2541 C2558 1.574 . S
C2541 C2560 1.368 . S
C2541 H2565 0.949 . S
H2542 C2546 0.949 . S
C2543 C2544 1.349 . S
C2543 C2545 1.327 . S
C2543 H2566 0.950 . S
C2544 C2543 1.349 . S
C2544 C2556 1.349 . S
C2545 C2543 1.327 . S
C2545 C2561 1.429 . S
C2545 H2567 0.950 . S
C2546 H2542 0.949 . S
C2546 C2554 1.574 . S
C2546 C2562 1.368 . S
H2547 C2555 0.950 . S
H2548 C2553 0.950 . S
H2549 C2554 0.949 . S
H2550 C2556 0.950 . S
H2551 C2557 0.950 . S
H2552 C2558 0.949 . S
C2553 H2548 0.950 . S
C2553 C2555 1.327 . S
C2553 C2559 1.429 . S
C2554 C2546 1.574 . S
C2554 H2549 0.949 . S
C2554 C2560 1.368 . S
C2555 C2539 1.349 . S
C2555 H2547 0.950 . S
C2555 C2553 1.327 . S
C2556 C2544 1.349 . S
C2556 H2550 0.950 . S
C2556 C2557 1.327 . S
C2557 H2551 0.950 . S
C2557 C2556 1.327 . S
C2557 C2561 1.429 . S
C2558 C2541 1.574 . S
C2558 H2552 0.949 . S
C2558 C2562 1.368 . S
C2559 C2540 1.429 . S
C2559 C2553 1.429 . S
C2559 C2560 1.523 . S
C2560 C2541 1.368 . S
C2560 C2554 1.368 . S
C2560 C2559 1.523 . S
C2561 C2545 1.429 . S
C2561 C2557 1.429 . S
C2561 C2562 1.523 . S
C2562 C2546 1.368 . S
C2562 C2558 1.368 . S
C2562 C2561 1.523 . S
H2563 C2538 0.950 . S
H2564 C2540 0.950 . S
H2565 C2541 0.949 . S
H2566 C2543 0.950 . S
H2567 C2545 0.950 . S
C2568 C2569 1.349 . S
C2568 C2570 1.327 . S
C2568 H2593 0.950 . S
C2569 C2568 1.349 . S
C2569 C2585 1.349 . S
C2570 C2568 1.327 . S
C2570 C2589 1.429 . S
C2570 H2594 0.950 . S
C2571 C2588 1.574 . S
C2571 C2590 1.368 . S
C2571 H2595 0.949 . S
H2572 C2576 0.949 . S
C2573 C2574 1.349 . S
C2573 C2575 1.327 . S
C2573 H2596 0.950 . S
C2574 C2573 1.349 . S
C2574 C2586 1.349 . S
C2575 C2573 1.327 . S
C2575 C2591 1.429 . S
C2575 H2597 0.950 . S
C2576 H2572 0.949 . S
C2576 C2584 1.574 . S
C2576 C2592 1.368 . S
H2577 C2585 0.950 . S
H2578 C2583 0.950 . S
H2579 C2584 0.949 . S
H2580 C2586 0.950 . S
H2581 C2587 0.950 . S
H2582 C2588 0.949 . S
C2583 H2578 0.950 . S
C2583 C2585 1.327 . S
C2583 C2589 1.429 . S
C2584 C2576 1.574 . S
C2584 H2579 0.949 . S
C2584 C2590 1.368 . S
C2585 C2569 1.349 . S
C2585 H2577 0.950 . S
C2585 C2583 1.327 . S
C2586 C2574 1.349 . S
C2586 H2580 0.950 . S
C2586 C2587 1.327 . S
C2587 H2581 0.950 . S
C2587 C2586 1.327 . S
C2587 C2591 1.429 . S
C2588 C2571 1.574 . S
C2588 H2582 0.949 . S
C2588 C2592 1.368 . S
C2589 C2570 1.429 . S
C2589 C2583 1.429 . S
C2589 C2590 1.523 . S
C2590 C2571 1.368 . S
C2590 C2584 1.368 . S
C2590 C2589 1.523 . S
C2591 C2575 1.429 . S
C2591 C2587 1.429 . S
C2591 C2592 1.523 . S
C2592 C2576 1.368 . S
C2592 C2588 1.368 . S
C2592 C2591 1.523 . S
H2593 C2568 0.950 . S
H2594 C2570 0.950 . S
H2595 C2571 0.949 . S
H2596 C2573 0.950 . S
H2597 C2575 0.950 . S
C2598 C2599 1.349 . S
C2598 C2600 1.327 . S
C2598 H2623 0.950 . S
C2599 C2598 1.349 . S
C2599 C2615 1.349 . S
C2600 C2598 1.327 . S
C2600 C2619 1.429 . S
C2600 H2624 0.950 . S
C2601 C2618 1.574 . S
C2601 C2620 1.368 . S
C2601 H2625 0.949 . S
H2602 C2606 0.949 . S
C2603 C2604 1.349 . S
C2603 C2605 1.327 . S
C2603 H2626 0.950 . S
C2604 C2603 1.349 . S
C2604 C2616 1.349 . S
C2605 C2603 1.327 . S
C2605 C2621 1.429 . S
C2605 H2627 0.950 . S
C2606 H2602 0.949 . S
C2606 C2614 1.574 . S
C2606 C2622 1.368 . S
H2607 C2615 0.950 . S
H2608 C2613 0.950 . S
H2609 C2614 0.949 . S
H2610 C2616 0.950 . S
H2611 C2617 0.950 . S
H2612 C2618 0.949 . S
C2613 H2608 0.950 . S
C2613 C2615 1.327 . S
C2613 C2619 1.429 . S
C2614 C2606 1.574 . S
C2614 H2609 0.949 . S
C2614 C2620 1.368 . S
C2615 C2599 1.349 . S
C2615 H2607 0.950 . S
C2615 C2613 1.327 . S
C2616 C2604 1.349 . S
C2616 H2610 0.950 . S
C2616 C2617 1.327 . S
C2617 H2611 0.950 . S
C2617 C2616 1.327 . S
C2617 C2621 1.429 . S
C2618 C2601 1.574 . S
C2618 H2612 0.949 . S
C2618 C2622 1.368 . S
C2619 C2600 1.429 . S
C2619 C2613 1.429 . S
C2619 C2620 1.523 . S
C2620 C2601 1.368 . S
C2620 C2614 1.368 . S
C2620 C2619 1.523 . S
C2621 C2605 1.429 . S
C2621 C2617 1.429 . S
C2621 C2622 1.523 . S
C2622 C2606 1.368 . S
C2622 C2618 1.368 . S
C2622 C2621 1.523 . S
H2623 C2598 0.950 . S
H2624 C2600 0.950 . S
H2625 C2601 0.949 . S
H2626 C2603 0.950 . S
H2627 C2605 0.950 . S
C2628 C2629 1.349 . S
C2628 C2630 1.327 . S
C2628 H2653 0.950 . S
C2629 C2628 1.349 . S
C2629 C2645 1.349 . S
C2630 C2628 1.327 . S
C2630 C2649 1.429 . S
C2630 H2654 0.950 . S
C2631 C2648 1.574 . S
C2631 C2650 1.368 . S
C2631 H2655 0.949 . S
H2632 C2636 0.949 . S
C2633 C2634 1.349 . S
C2633 C2635 1.327 . S
C2633 H2656 0.950 . S
C2634 C2633 1.349 . S
C2634 C2646 1.349 . S
C2635 C2633 1.327 . S
C2635 C2651 1.429 . S
C2635 H2657 0.950 . S
C2636 H2632 0.949 . S
C2636 C2644 1.574 . S
C2636 C2652 1.368 . S
H2637 C2645 0.950 . S
H2638 C2643 0.950 . S
H2639 C2644 0.949 . S
H2640 C2646 0.950 . S
H2641 C2647 0.950 . S
H2642 C2648 0.949 . S
C2643 H2638 0.950 . S
C2643 C2645 1.327 . S
C2643 C2649 1.429 . S
C2644 C2636 1.574 . S
C2644 H2639 0.949 . S
C2644 C2650 1.368 . S
C2645 C2629 1.349 . S
C2645 H2637 0.950 . S
C2645 C2643 1.327 . S
C2646 C2634 1.349 . S
C2646 H2640 0.950 . S
C2646 C2647 1.327 . S
C2647 H2641 0.950 . S
C2647 C2646 1.327 . S
C2647 C2651 1.429 . S
C2648 C2631 1.574 . S
C2648 H2642 0.949 . S
C2648 C2652 1.368 . S
C2649 C2630 1.429 . S
C2649 C2643 1.429 . S
C2649 C2650 1.523 . S
C2650 C2631 1.368 . S
C2650 C2644 1.368 . S
C2650 C2649 1.523 . S
C2651 C2635 1.429 . S
C2651 C2647 1.429 . S
C2651 C2652 1.523 . S
C2652 C2636 1.368 . S
C2652 C2648 1.368 . S
C2652 C2651 1.523 . S
H2653 C2628 0.950 . S
H2654 C2630 0.950 . S
H2655 C2631 0.949 . S
H2656 C2633 0.950 . S
H2657 C2635 0.950 . S
C2658 C2659 1.349 . S
C2658 C2660 1.327 . S
C2658 H2683 0.950 . S
C2659 C2658 1.349 . S
C2659 C2675 1.349 . S
C2660 C2658 1.327 . S
C2660 C2679 1.429 . S
C2660 H2684 0.950 . S
C2661 C2678 1.574 . S
C2661 C2680 1.368 . S
C2661 H2685 0.949 . S
H2662 C2666 0.949 . S
C2663 C2664 1.349 . S
C2663 C2665 1.327 . S
C2663 H2686 0.950 . S
C2664 C2663 1.349 . S
C2664 C2676 1.349 . S
C2665 C2663 1.327 . S
C2665 C2681 1.429 . S
C2665 H2687 0.950 . S
C2666 H2662 0.949 . S
C2666 C2674 1.574 . S
C2666 C2682 1.368 . S
H2667 C2675 0.950 . S
H2668 C2673 0.950 . S
H2669 C2674 0.949 . S
H2670 C2676 0.950 . S
H2671 C2677 0.950 . S
H2672 C2678 0.949 . S
C2673 H2668 0.950 . S
C2673 C2675 1.327 . S
C2673 C2679 1.429 . S
C2674 C2666 1.574 . S
C2674 H2669 0.949 . S
C2674 C2680 1.368 . S
C2675 C2659 1.349 . S
C2675 H2667 0.950 . S
C2675 C2673 1.327 . S
C2676 C2664 1.349 . S
C2676 H2670 0.950 . S
C2676 C2677 1.327 . S
C2677 H2671 0.950 . S
C2677 C2676 1.327 . S
C2677 C2681 1.429 . S
C2678 C2661 1.574 . S
C2678 H2672 0.949 . S
C2678 C2682 1.368 . S
C2679 C2660 1.429 . S
C2679 C2673 1.429 . S
C2679 C2680 1.523 . S
C2680 C2661 1.368 . S
C2680 C2674 1.368 . S
C2680 C2679 1.523 . S
C2681 C2665 1.429 . S
C2681 C2677 1.429 . S
C2681 C2682 1.523 . S
C2682 C2666 1.368 . S
C2682 C2678 1.368 . S
C2682 C2681 1.523 . S
H2683 C2658 0.950 . S
H2684 C2660 0.950 . S
H2685 C2661 0.949 . S
H2686 C2663 0.950 . S
H2687 C2665 0.950 . S
C2688 C2689 1.349 . S
C2688 C2690 1.327 . S
C2688 H2713 0.950 . S
C2689 C2688 1.349 . S
C2689 C2705 1.349 . S
C2690 C2688 1.327 . S
C2690 C2709 1.429 . S
C2690 H2714 0.950 . S
C2691 C2708 1.574 . S
C2691 C2710 1.368 . S
C2691 H2715 0.949 . S
H2692 C2696 0.949 . S
C2693 C2694 1.349 . S
C2693 C2695 1.327 . S
C2693 H2716 0.950 . S
C2694 C2693 1.349 . S
C2694 C2706 1.349 . S
C2695 C2693 1.327 . S
C2695 C2711 1.429 . S
C2695 H2717 0.950 . S
C2696 H2692 0.949 . S
C2696 C2704 1.574 . S
C2696 C2712 1.368 . S
H2697 C2705 0.950 . S
H2698 C2703 0.950 . S
H2699 C2704 0.949 . S
H2700 C2706 0.950 . S
H2701 C2707 0.950 . S
H2702 C2708 0.949 . S
C2703 H2698 0.950 . S
C2703 C2705 1.327 . S
C2703 C2709 1.429 . S
C2704 C2696 1.574 . S
C2704 H2699 0.949 . S
C2704 C2710 1.368 . S
C2705 C2689 1.349 . S
C2705 H2697 0.950 . S
C2705 C2703 1.327 . S
C2706 C2694 1.349 . S
C2706 H2700 0.950 . S
C2706 C2707 1.327 . S
C2707 H2701 0.950 . S
C2707 C2706 1.327 . S
C2707 C2711 1.429 . S
C2708 C2691 1.574 . S
C2708 H2702 0.949 . S
C2708 C2712 1.368 . S
C2709 C2690 1.429 . S
C2709 C2703 1.429 . S
C2709 C2710 1.523 . S
C2710 C2691 1.368 . S
C2710 C2704 1.368 . S
C2710 C2709 1.523 . S
C2711 C2695 1.429 . S
C2711 C2707 1.429 . S
C2711 C2712 1.523 . S
C2712 C2696 1.368 . S
C2712 C2708 1.368 . S
C2712 C2711 1.523 . S
H2713 C2688 0.950 . S
H2714 C2690 0.950 . S
H2715 C2691 0.949 . S
H2716 C2693 0.950 . S
H2717 C2695 0.950 . S
C2718 C2719 1.349 . S
C2718 C2720 1.327 . S
C2718 H2743 0.950 . S
C2719 C2718 1.349 . S
C2719 C2735 1.349 . S
C2720 C2718 1.327 . S
C2720 C2739 1.429 . S
C2720 H2744 0.950 . S
C2721 C2738 1.574 . S
C2721 C2740 1.368 . S
C2721 H2745 0.949 . S
H2722 C2726 0.949 . S
C2723 C2724 1.349 . S
C2723 C2725 1.327 . S
C2723 H2746 0.950 . S
C2724 C2723 1.349 . S
C2724 C2736 1.349 . S
C2725 C2723 1.327 . S
C2725 C2741 1.429 . S
C2725 H2747 0.950 . S
C2726 H2722 0.949 . S
C2726 C2734 1.574 . S
C2726 C2742 1.368 . S
H2727 C2735 0.950 . S
H2728 C2733 0.950 . S
H2729 C2734 0.949 . S
H2730 C2736 0.950 . S
H2731 C2737 0.950 . S
H2732 C2738 0.949 . S
C2733 H2728 0.950 . S
C2733 C2735 1.327 . S
C2733 C2739 1.429 . S
C2734 C2726 1.574 . S
C2734 H2729 0.949 . S
C2734 C2740 1.368 . S
C2735 C2719 1.349 . S
C2735 H2727 0.950 . S
C2735 C2733 1.327 . S
C2736 C2724 1.349 . S
C2736 H2730 0.950 . S
C2736 C2737 1.327 . S
C2737 H2731 0.950 . S
C2737 C2736 1.327 . S
C2737 C2741 1.429 . S
C2738 C2721 1.574 . S
C2738 H2732 0.949 . S
C2738 C2742 1.368 . S
C2739 C2720 1.429 . S
C2739 C2733 1.429 . S
C2739 C2740 1.523 . S
C2740 C2721 1.368 . S
C2740 C2734 1.368 . S
C2740 C2739 1.523 . S
C2741 C2725 1.429 . S
C2741 C2737 1.429 . S
C2741 C2742 1.523 . S
C2742 C2726 1.368 . S
C2742 C2738 1.368 . S
C2742 C2741 1.523 . S
H2743 C2718 0.950 . S
H2744 C2720 0.950 . S
H2745 C2721 0.949 . S
H2746 C2723 0.950 . S
H2747 C2725 0.950 . S
C2748 C2749 1.349 . S
C2748 C2750 1.327 . S
C2748 H2773 0.950 . S
C2749 C2748 1.349 . S
C2749 C2765 1.349 . S
C2750 C2748 1.327 . S
C2750 C2769 1.429 . S
C2750 H2774 0.950 . S
C2751 C2768 1.574 . S
C2751 C2770 1.368 . S
C2751 H2775 0.949 . S
H2752 C2756 0.949 . S
C2753 C2754 1.349 . S
C2753 C2755 1.327 . S
C2753 H2776 0.950 . S
C2754 C2753 1.349 . S
C2754 C2766 1.349 . S
C2755 C2753 1.327 . S
C2755 C2771 1.429 . S
C2755 H2777 0.950 . S
C2756 H2752 0.949 . S
C2756 C2764 1.574 . S
C2756 C2772 1.368 . S
H2757 C2765 0.950 . S
H2758 C2763 0.950 . S
H2759 C2764 0.949 . S
H2760 C2766 0.950 . S
H2761 C2767 0.950 . S
H2762 C2768 0.949 . S
C2763 H2758 0.950 . S
C2763 C2765 1.327 . S
C2763 C2769 1.429 . S
C2764 C2756 1.574 . S
C2764 H2759 0.949 . S
C2764 C2770 1.368 . S
C2765 C2749 1.349 . S
C2765 H2757 0.950 . S
C2765 C2763 1.327 . S
C2766 C2754 1.349 . S
C2766 H2760 0.950 . S
C2766 C2767 1.327 . S
C2767 H2761 0.950 . S
C2767 C2766 1.327 . S
C2767 C2771 1.429 . S
C2768 C2751 1.574 . S
C2768 H2762 0.949 . S
C2768 C2772 1.368 . S
C2769 C2750 1.429 . S
C2769 C2763 1.429 . S
C2769 C2770 1.523 . S
C2770 C2751 1.368 . S
C2770 C2764 1.368 . S
C2770 C2769 1.523 . S
C2771 C2755 1.429 . S
C2771 C2767 1.429 . S
C2771 C2772 1.523 . S
C2772 C2756 1.368 . S
C2772 C2768 1.368 . S
C2772 C2771 1.523 . S
H2773 C2748 0.950 . S
H2774 C2750 0.950 . S
H2775 C2751 0.949 . S
H2776 C2753 0.950 . S
H2777 C2755 0.950 . S
C2778 C2779 1.349 . S
C2778 C2780 1.327 . S
C2778 H2803 0.950 . S
C2779 C2778 1.349 . S
C2779 C2795 1.349 . S
C2780 C2778 1.327 . S
C2780 C2799 1.429 . S
C2780 H2804 0.950 . S
C2781 C2798 1.574 . S
C2781 C2800 1.368 . S
C2781 H2805 0.949 . S
H2782 C2786 0.949 . S
C2783 C2784 1.349 . S
C2783 C2785 1.327 . S
C2783 H2806 0.950 . S
C2784 C2783 1.349 . S
C2784 C2796 1.349 . S
C2785 C2783 1.327 . S
C2785 C2801 1.429 . S
C2785 H2807 0.950 . S
C2786 H2782 0.949 . S
C2786 C2794 1.574 . S
C2786 C2802 1.368 . S
H2787 C2795 0.950 . S
H2788 C2793 0.950 . S
H2789 C2794 0.949 . S
H2790 C2796 0.950 . S
H2791 C2797 0.950 . S
H2792 C2798 0.949 . S
C2793 H2788 0.950 . S
C2793 C2795 1.327 . S
C2793 C2799 1.429 . S
C2794 C2786 1.574 . S
C2794 H2789 0.949 . S
C2794 C2800 1.368 . S
C2795 C2779 1.349 . S
C2795 H2787 0.950 . S
C2795 C2793 1.327 . S
C2796 C2784 1.349 . S
C2796 H2790 0.950 . S
C2796 C2797 1.327 . S
C2797 H2791 0.950 . S
C2797 C2796 1.327 . S
C2797 C2801 1.429 . S
C2798 C2781 1.574 . S
C2798 H2792 0.949 . S
C2798 C2802 1.368 . S
C2799 C2780 1.429 . S
C2799 C2793 1.429 . S
C2799 C2800 1.523 . S
C2800 C2781 1.368 . S
C2800 C2794 1.368 . S
C2800 C2799 1.523 . S
C2801 C2785 1.429 . S
C2801 C2797 1.429 . S
C2801 C2802 1.523 . S
C2802 C2786 1.368 . S
C2802 C2798 1.368 . S
C2802 C2801 1.523 . S
H2803 C2778 0.950 . S
H2804 C2780 0.950 . S
H2805 C2781 0.949 . S
H2806 C2783 0.950 . S
H2807 C2785 0.950 . S
C2808 C2809 1.349 . S
C2808 C2810 1.327 . S
C2808 H2833 0.950 . S
C2809 C2808 1.349 . S
C2809 C2825 1.349 . S
C2810 C2808 1.327 . S
C2810 C2829 1.429 . S
C2810 H2834 0.950 . S
C2811 C2828 1.574 . S
C2811 C2830 1.368 . S
C2811 H2835 0.949 . S
H2812 C2816 0.949 . S
C2813 C2814 1.349 . S
C2813 C2815 1.327 . S
C2813 H2836 0.950 . S
C2814 C2813 1.349 . S
C2814 C2826 1.349 . S
C2815 C2813 1.327 . S
C2815 C2831 1.429 . S
C2815 H2837 0.950 . S
C2816 H2812 0.949 . S
C2816 C2824 1.574 . S
C2816 C2832 1.368 . S
H2817 C2825 0.950 . S
H2818 C2823 0.950 . S
H2819 C2824 0.949 . S
H2820 C2826 0.950 . S
H2821 C2827 0.950 . S
H2822 C2828 0.949 . S
C2823 H2818 0.950 . S
C2823 C2825 1.327 . S
C2823 C2829 1.429 . S
C2824 C2816 1.574 . S
C2824 H2819 0.949 . S
C2824 C2830 1.368 . S
C2825 C2809 1.349 . S
C2825 H2817 0.950 . S
C2825 C2823 1.327 . S
C2826 C2814 1.349 . S
C2826 H2820 0.950 . S
C2826 C2827 1.327 . S
C2827 H2821 0.950 . S
C2827 C2826 1.327 . S
C2827 C2831 1.429 . S
C2828 C2811 1.574 . S
C2828 H2822 0.949 . S
C2828 C2832 1.368 . S
C2829 C2810 1.429 . S
C2829 C2823 1.429 . S
C2829 C2830 1.523 . S
C2830 C2811 1.368 . S
C2830 C2824 1.368 . S
C2830 C2829 1.523 . S
C2831 C2815 1.429 . S
C2831 C2827 1.429 . S
C2831 C2832 1.523 . S
C2832 C2816 1.368 . S
C2832 C2828 1.368 . S
C2832 C2831 1.523 . S
H2833 C2808 0.950 . S
H2834 C2810 0.950 . S
H2835 C2811 0.949 . S
H2836 C2813 0.950 . S
H2837 C2815 0.950 . S
C2838 C2839 1.349 . S
C2838 C2840 1.327 . S
C2838 H2863 0.950 . S
C2839 C2838 1.349 . S
C2839 C2855 1.349 . S
C2840 C2838 1.327 . S
C2840 C2859 1.429 . S
C2840 H2864 0.950 . S
C2841 C2858 1.574 . S
C2841 C2860 1.368 . S
C2841 H2865 0.949 . S
H2842 C2846 0.949 . S
C2843 C2844 1.349 . S
C2843 C2845 1.327 . S
C2843 H2866 0.950 . S
C2844 C2843 1.349 . S
C2844 C2856 1.349 . S
C2845 C2843 1.327 . S
C2845 C2861 1.429 . S
C2845 H2867 0.950 . S
C2846 H2842 0.949 . S
C2846 C2854 1.574 . S
C2846 C2862 1.368 . S
H2847 C2855 0.950 1_545 S
H2848 C2853 0.950 . S
H2849 C2854 0.949 . S
H2850 C2856 0.950 . S
H2851 C2857 0.950 . S
H2852 C2858 0.949 . S
C2853 H2848 0.950 . S
C2853 C2855 1.327 . S
C2853 C2859 1.429 . S
C2854 C2846 1.574 . S
C2854 H2849 0.949 . S
C2854 C2860 1.368 . S
C2855 C2839 1.349 . S
C2855 H2847 0.950 1_565 S
C2855 C2853 1.327 . S
C2856 C2844 1.349 . S
C2856 H2850 0.950 . S
C2856 C2857 1.327 . S
C2857 H2851 0.950 . S
C2857 C2856 1.327 . S
C2857 C2861 1.429 . S
C2858 C2841 1.574 . S
C2858 H2852 0.949 . S
C2858 C2862 1.368 . S
C2859 C2840 1.429 . S
C2859 C2853 1.429 . S
C2859 C2860 1.523 . S
C2860 C2841 1.368 . S
C2860 C2854 1.368 . S
C2860 C2859 1.523 . S
C2861 C2845 1.429 . S
C2861 C2857 1.429 . S
C2861 C2862 1.523 . S
C2862 C2846 1.368 . S
C2862 C2858 1.368 . S
C2862 C2861 1.523 . S
H2863 C2838 0.950 . S
H2864 C2840 0.950 . S
H2865 C2841 0.949 . S
H2866 C2843 0.950 . S
H2867 C2845 0.950 . S
C2868 C2869 1.349 . S
C2868 C2870 1.327 . S
C2868 H2893 0.950 . S
C2869 C2868 1.349 . S
C2869 C2885 1.349 . S
C2870 C2868 1.327 . S
C2870 C2889 1.429 . S
C2870 H2894 0.950 . S
C2871 C2888 1.574 . S
C2871 C2890 1.368 . S
C2871 H2895 0.949 . S
H2872 C2876 0.949 . S
C2873 C2874 1.349 . S
C2873 C2875 1.327 . S
C2873 H2896 0.950 . S
C2874 C2873 1.349 . S
C2874 C2886 1.349 . S
C2875 C2873 1.327 . S
C2875 C2891 1.429 . S
C2875 H2897 0.950 . S
C2876 H2872 0.949 . S
C2876 C2884 1.574 . S
C2876 C2892 1.368 . S
H2877 C2885 0.950 . S
H2878 C2883 0.950 . S
H2879 C2884 0.949 . S
H2880 C2886 0.948 . S
H2881 C2887 0.950 . S
H2882 C2888 0.949 . S
C2883 H2878 0.950 . S
C2883 C2885 1.327 . S
C2883 C2889 1.429 . S
C2884 C2876 1.574 . S
C2884 H2879 0.949 . S
C2884 C2890 1.368 . S
C2885 C2869 1.349 . S
C2885 H2877 0.950 . S
C2885 C2883 1.327 . S
C2886 C2874 1.349 . S
C2886 H2880 0.948 . S
C2886 C2887 1.327 . S
C2887 H2881 0.950 . S
C2887 C2886 1.327 . S
C2887 C2891 1.429 . S
C2888 C2871 1.574 . S
C2888 H2882 0.949 . S
C2888 C2892 1.368 . S
C2889 C2870 1.429 . S
C2889 C2883 1.429 . S
C2889 C2890 1.523 . S
C2890 C2871 1.368 . S
C2890 C2884 1.368 . S
C2890 C2889 1.523 . S
C2891 C2875 1.429 . S
C2891 C2887 1.429 . S
C2891 C2892 1.523 . S
C2892 C2876 1.368 . S
C2892 C2888 1.368 . S
C2892 C2891 1.523 . S
H2893 C2868 0.950 . S
H2894 C2870 0.950 . S
H2895 C2871 0.949 . S
H2896 C2873 0.950 . S
H2897 C2875 0.950 . S
C2898 C2899 1.349 . S
C2898 C2900 1.327 . S
C2898 H2923 0.950 . S
C2899 C2898 1.349 . S
C2899 C2915 1.349 . S
C2900 C2898 1.327 . S
C2900 C2919 1.429 . S
C2900 H2924 0.950 . S
C2901 C2918 1.574 . S
C2901 C2920 1.368 . S
C2901 H2925 0.949 . S
H2902 C2906 0.949 . S
C2903 C2904 1.349 . S
C2903 C2905 1.327 . S
C2903 H2926 0.950 . S
C2904 C2903 1.349 . S
C2904 C2916 1.349 . S
C2905 C2903 1.327 . S
C2905 C2921 1.429 . S
C2905 H2927 0.950 . S
C2906 H2902 0.949 . S
C2906 C2914 1.574 . S
C2906 C2922 1.368 . S
H2907 C2915 0.950 . S
H2908 C2913 0.950 . S
H2909 C2914 0.949 . S
H2910 C2916 0.950 . S
H2911 C2917 0.950 . S
H2912 C2918 0.949 . S
C2913 H2908 0.950 . S
C2913 C2915 1.327 . S
C2913 C2919 1.429 . S
C2914 C2906 1.574 . S
C2914 H2909 0.949 . S
C2914 C2920 1.368 . S
C2915 C2899 1.349 . S
C2915 H2907 0.950 . S
C2915 C2913 1.327 . S
C2916 C2904 1.349 . S
C2916 H2910 0.950 . S
C2916 C2917 1.327 . S
C2917 H2911 0.950 . S
C2917 C2916 1.327 . S
C2917 C2921 1.429 . S
C2918 C2901 1.574 . S
C2918 H2912 0.949 . S
C2918 C2922 1.368 . S
C2919 C2900 1.429 . S
C2919 C2913 1.429 . S
C2919 C2920 1.523 . S
C2920 C2901 1.368 . S
C2920 C2914 1.368 . S
C2920 C2919 1.523 . S
C2921 C2905 1.429 . S
C2921 C2917 1.429 . S
C2921 C2922 1.523 . S
C2922 C2906 1.368 . S
C2922 C2918 1.368 . S
C2922 C2921 1.523 . S
H2923 C2898 0.950 . S
H2924 C2900 0.950 . S
H2925 C2901 0.949 . S
H2926 C2903 0.950 . S
H2927 C2905 0.950 . S
C2928 C2929 1.349 . S
C2928 C2930 1.327 . S
C2928 H2953 0.950 . S
C2929 C2928 1.349 . S
C2929 C2945 1.349 . S
C2930 C2928 1.327 . S
C2930 C2949 1.429 . S
C2930 H2954 0.950 . S
C2931 C2948 1.574 . S
C2931 C2950 1.368 . S
C2931 H2955 0.949 . S
H2932 C2936 0.949 . S
C2933 C2934 1.349 . S
C2933 C2935 1.327 . S
C2933 H2956 0.950 1_545 S
C2934 C2933 1.349 . S
C2934 C2946 1.349 . S
C2935 C2933 1.327 . S
C2935 C2951 1.429 . S
C2935 H2957 0.950 . S
C2936 H2932 0.949 . S
C2936 C2944 1.574 . S
C2936 C2952 1.368 . S
H2937 C2945 0.950 . S
H2938 C2943 0.950 . S
H2939 C2944 0.949 . S
H2940 C2946 0.950 . S
H2941 C2947 0.950 . S
H2942 C2948 0.949 . S
C2943 H2938 0.950 . S
C2943 C2945 1.327 . S
C2943 C2949 1.429 . S
C2944 C2936 1.574 . S
C2944 H2939 0.949 . S
C2944 C2950 1.368 . S
C2945 C2929 1.349 . S
C2945 H2937 0.950 . S
C2945 C2943 1.327 . S
C2946 C2934 1.349 . S
C2946 H2940 0.950 . S
C2946 C2947 1.327 . S
C2947 H2941 0.950 . S
C2947 C2946 1.327 . S
C2947 C2951 1.429 . S
C2948 C2931 1.574 . S
C2948 H2942 0.949 . S
C2948 C2952 1.368 . S
C2949 C2930 1.429 . S
C2949 C2943 1.429 . S
C2949 C2950 1.523 . S
C2950 C2931 1.368 . S
C2950 C2944 1.368 . S
C2950 C2949 1.523 . S
C2951 C2935 1.429 . S
C2951 C2947 1.429 . S
C2951 C2952 1.523 . S
C2952 C2936 1.368 . S
C2952 C2948 1.368 . S
C2952 C2951 1.523 . S
H2953 C2928 0.950 . S
H2954 C2930 0.950 . S
H2955 C2931 0.949 . S
H2956 C2933 0.950 1_565 S
H2957 C2935 0.950 . S
C2958 C2959 1.349 . S
C2958 C2960 1.327 . S
C2958 H2983 0.950 . S
C2959 C2958 1.349 . S
C2959 C2975 1.349 . S
C2960 C2958 1.327 . S
C2960 C2979 1.429 . S
C2960 H2984 0.950 . S
C2961 C2978 1.574 . S
C2961 C2980 1.368 . S
C2961 H2985 0.949 . S
H2962 C2966 0.949 . S
C2963 C2964 1.349 . S
C2963 C2965 1.327 . S
C2963 H2986 0.950 . S
C2964 C2963 1.349 . S
C2964 C2976 1.349 . S
C2965 C2963 1.327 . S
C2965 C2981 1.429 . S
C2965 H2987 0.950 . S
C2966 H2962 0.949 . S
C2966 C2974 1.574 . S
C2966 C2982 1.368 . S
H2967 C2975 0.950 . S
H2968 C2973 0.950 . S
H2969 C2974 0.949 . S
H2970 C2976 0.950 . S
H2971 C2977 0.950 . S
H2972 C2978 0.949 . S
C2973 H2968 0.950 . S
C2973 C2975 1.327 . S
C2973 C2979 1.429 . S
C2974 C2966 1.574 . S
C2974 H2969 0.949 . S
C2974 C2980 1.368 . S
C2975 C2959 1.349 . S
C2975 H2967 0.950 . S
C2975 C2973 1.327 . S
C2976 C2964 1.349 . S
C2976 H2970 0.950 . S
C2976 C2977 1.327 . S
C2977 H2971 0.950 . S
C2977 C2976 1.327 . S
C2977 C2981 1.429 . S
C2978 C2961 1.574 . S
C2978 H2972 0.949 . S
C2978 C2982 1.368 . S
C2979 C2960 1.429 . S
C2979 C2973 1.429 . S
C2979 C2980 1.523 . S
C2980 C2961 1.368 . S
C2980 C2974 1.368 . S
C2980 C2979 1.523 . S
C2981 C2965 1.429 . S
C2981 C2977 1.429 . S
C2981 C2982 1.523 . S
C2982 C2966 1.368 . S
C2982 C2978 1.368 . S
C2982 C2981 1.523 . S
H2983 C2958 0.950 . S
H2984 C2960 0.950 . S
H2985 C2961 0.949 . S
H2986 C2963 0.950 . S
H2987 C2965 0.950 . S
C2988 C2989 1.349 . S
C2988 C2990 1.327 1_655 S
C2988 H3013 0.950 . S
C2989 C2988 1.349 . S
C2989 C3005 1.349 . S
C2990 C2988 1.327 1_455 S
C2990 C3009 1.429 . S
C2990 H3014 0.950 . S
C2991 C3008 1.574 . S
C2991 C3010 1.368 . S
C2991 H3015 0.949 . S
H2992 C2996 0.949 . S
C2993 C2994 1.349 . S
C2993 C2995 1.327 . S
C2993 H3016 0.950 . S
C2994 C2993 1.349 . S
C2994 C3006 1.349 . S
C2995 C2993 1.327 . S
C2995 C3011 1.429 . S
C2995 H3017 0.950 . S
C2996 H2992 0.949 . S
C2996 C3004 1.574 . S
C2996 C3012 1.368 . S
H2997 C3005 0.950 . S
H2998 C3003 0.950 . S
H2999 C3004 0.949 . S
H3000 C3006 0.950 . S
H3001 C3007 0.950 . S
H3002 C3008 0.949 . S
C3003 H2998 0.950 . S
C3003 C3005 1.327 1_455 S
C3003 C3009 1.429 . S
C3004 C2996 1.574 . S
C3004 H2999 0.949 . S
C3004 C3010 1.368 . S
C3005 C2989 1.349 . S
C3005 H2997 0.950 . S
C3005 C3003 1.327 1_655 S
C3006 C2994 1.349 . S
C3006 H3000 0.950 . S
C3006 C3007 1.327 . S
C3007 H3001 0.950 . S
C3007 C3006 1.327 . S
C3007 C3011 1.429 . S
C3008 C2991 1.574 . S
C3008 H3002 0.949 . S
C3008 C3012 1.368 . S
C3009 C2990 1.429 . S
C3009 C3003 1.429 . S
C3009 C3010 1.523 . S
C3010 C2991 1.368 . S
C3010 C3004 1.368 . S
C3010 C3009 1.523 . S
C3011 C2995 1.429 . S
C3011 C3007 1.429 . S
C3011 C3012 1.523 . S
C3012 C2996 1.368 . S
C3012 C3008 1.368 . S
C3012 C3011 1.523 . S
H3013 C2988 0.950 . S
H3014 C2990 0.950 . S
H3015 C2991 0.949 . S
H3016 C2993 0.950 . S
H3017 C2995 0.950 . S
C3018 C3019 1.349 . S
C3018 C3020 1.327 . S
C3018 H3043 0.950 . S
C3019 C3018 1.349 . S
C3019 C3035 1.349 . S
C3020 C3018 1.327 . S
C3020 C3039 1.429 . S
C3020 H3044 0.950 . S
C3021 C3038 1.574 . S
C3021 C3040 1.368 . S
C3021 H3045 0.949 . S
H3022 C3026 0.949 . S
C3023 C3024 1.349 . S
C3023 C3025 1.327 . S
C3023 H3046 0.950 . S
C3024 C3023 1.349 . S
C3024 C3036 1.349 . S
C3025 C3023 1.327 . S
C3025 C3041 1.429 . S
C3025 H3047 0.950 . S
C3026 H3022 0.949 . S
C3026 C3034 1.574 . S
C3026 C3042 1.368 . S
H3027 C3035 0.950 . S
H3028 C3033 0.950 . S
H3029 C3034 0.949 . S
H3030 C3036 0.950 . S
H3031 C3037 0.950 . S
H3032 C3038 0.949 . S
C3033 H3028 0.950 . S
C3033 C3035 1.327 . S
C3033 C3039 1.429 . S
C3034 C3026 1.574 . S
C3034 H3029 0.949 . S
C3034 C3040 1.368 . S
C3035 C3019 1.349 . S
C3035 H3027 0.950 . S
C3035 C3033 1.327 . S
C3036 C3024 1.349 . S
C3036 H3030 0.950 . S
C3036 C3037 1.327 . S
C3037 H3031 0.950 . S
C3037 C3036 1.327 . S
C3037 C3041 1.429 . S
C3038 C3021 1.574 . S
C3038 H3032 0.949 . S
C3038 C3042 1.368 . S
C3039 C3020 1.429 . S
C3039 C3033 1.429 . S
C3039 C3040 1.523 . S
C3040 C3021 1.368 . S
C3040 C3034 1.368 . S
C3040 C3039 1.523 . S
C3041 C3025 1.429 . S
C3041 C3037 1.429 . S
C3041 C3042 1.523 . S
C3042 C3026 1.368 . S
C3042 C3038 1.368 . S
C3042 C3041 1.523 . S
H3043 C3018 0.950 . S
H3044 C3020 0.950 . S
H3045 C3021 0.949 . S
H3046 C3023 0.950 . S
H3047 C3025 0.950 . S
C3048 C3049 1.349 . S
C3048 C3050 1.327 1_545 S
C3048 H3073 0.950 . S
C3049 C3048 1.349 . S
C3049 C3065 1.349 . S
C3050 C3048 1.327 1_565 S
C3050 C3069 1.429 . S
C3050 H3074 0.950 . S
C3051 C3068 1.574 . S
C3051 C3070 1.368 . S
C3051 H3075 0.949 . S
H3052 C3056 0.949 . S
C3053 C3054 1.349 . S
C3053 C3055 1.327 . S
C3053 H3076 0.950 . S
C3054 C3053 1.349 . S
C3054 C3066 1.349 . S
C3055 C3053 1.327 . S
C3055 C3071 1.429 . S
C3055 H3077 0.950 . S
C3056 H3052 0.949 . S
C3056 C3064 1.574 . S
C3056 C3072 1.368 . S
H3057 C3065 0.950 . S
H3058 C3063 0.950 . S
H3059 C3064 0.949 . S
H3060 C3066 0.950 . S
H3061 C3067 0.950 . S
H3062 C3068 0.949 . S
C3063 H3058 0.950 . S
C3063 C3065 1.327 1_565 S
C3063 C3069 1.429 . S
C3064 C3056 1.574 . S
C3064 H3059 0.949 . S
C3064 C3070 1.368 . S
C3065 C3049 1.349 . S
C3065 H3057 0.950 . S
C3065 C3063 1.327 1_545 S
C3066 C3054 1.349 . S
C3066 H3060 0.950 . S
C3066 C3067 1.327 . S
C3067 H3061 0.950 . S
C3067 C3066 1.327 . S
C3067 C3071 1.429 . S
C3068 C3051 1.574 . S
C3068 H3062 0.949 . S
C3068 C3072 1.368 . S
C3069 C3050 1.429 . S
C3069 C3063 1.429 . S
C3069 C3070 1.523 . S
C3070 C3051 1.368 . S
C3070 C3064 1.368 . S
C3070 C3069 1.523 . S
C3071 C3055 1.429 . S
C3071 C3067 1.429 . S
C3071 C3072 1.523 . S
C3072 C3056 1.368 . S
C3072 C3068 1.368 . S
C3072 C3071 1.523 . S
H3073 C3048 0.950 . S
H3074 C3050 0.950 . S
H3075 C3051 0.949 . S
H3076 C3053 0.950 . S
H3077 C3055 0.950 . S
C3078 C3079 1.349 . S
C3078 C3080 1.327 . S
C3078 H3103 0.950 . S
C3079 C3078 1.349 . S
C3079 C3095 1.349 . S
C3080 C3078 1.327 . S
C3080 C3099 1.429 . S
C3080 H3104 0.950 . S
C3081 C3098 1.574 . S
C3081 C3100 1.368 . S
C3081 H3105 0.949 . S
H3082 C3086 0.949 . S
C3083 C3084 1.349 . S
C3083 C3085 1.327 . S
C3083 H3106 0.950 . S
C3084 C3083 1.349 . S
C3084 C3096 1.349 . S
C3085 C3083 1.327 . S
C3085 C3101 1.429 . S
C3085 H3107 0.950 . S
C3086 H3082 0.949 . S
C3086 C3094 1.574 . S
C3086 C3102 1.368 . S
H3087 C3095 0.950 . S
H3088 C3093 0.950 . S
H3089 C3094 0.949 . S
H3090 C3096 0.950 . S
H3091 C3097 0.950 . S
H3092 C3098 0.949 . S
C3093 H3088 0.950 . S
C3093 C3095 1.327 . S
C3093 C3099 1.429 . S
C3094 C3086 1.574 . S
C3094 H3089 0.949 . S
C3094 C3100 1.368 . S
C3095 C3079 1.349 . S
C3095 H3087 0.950 . S
C3095 C3093 1.327 . S
C3096 C3084 1.349 . S
C3096 H3090 0.950 . S
C3096 C3097 1.327 . S
C3097 H3091 0.950 . S
C3097 C3096 1.327 . S
C3097 C3101 1.429 . S
C3098 C3081 1.574 . S
C3098 H3092 0.949 . S
C3098 C3102 1.368 . S
C3099 C3080 1.429 . S
C3099 C3093 1.429 . S
C3099 C3100 1.523 . S
C3100 C3081 1.368 . S
C3100 C3094 1.368 . S
C3100 C3099 1.523 . S
C3101 C3085 1.429 . S
C3101 C3097 1.429 . S
C3101 C3102 1.523 . S
C3102 C3086 1.368 . S
C3102 C3098 1.368 . S
C3102 C3101 1.523 . S
H3103 C3078 0.950 . S
H3104 C3080 0.950 . S
H3105 C3081 0.949 . S
H3106 C3083 0.950 . S
H3107 C3085 0.950 . S
C3108 C3109 1.349 . S
C3108 C3110 1.327 . S
C3108 H3133 0.950 . S
C3109 C3108 1.349 . S
C3109 C3125 1.349 . S
C3110 C3108 1.327 . S
C3110 C3129 1.429 . S
C3110 H3134 0.950 . S
C3111 C3128 1.574 . S
C3111 C3130 1.368 . S
C3111 H3135 0.949 . S
H3112 C3116 0.949 . S
C3113 C3114 1.349 . S
C3113 C3115 1.327 . S
C3113 H3136 0.950 . S
C3114 C3113 1.349 . S
C3114 C3126 1.349 . S
C3115 C3113 1.327 . S
C3115 C3131 1.429 . S
C3115 H3137 0.950 . S
C3116 H3112 0.949 . S
C3116 C3124 1.574 . S
C3116 C3132 1.368 . S
H3117 C3125 0.950 . S
H3118 C3123 0.950 . S
H3119 C3124 0.949 . S
H3120 C3126 0.950 . S
H3121 C3127 0.950 . S
H3122 C3128 0.949 . S
C3123 H3118 0.950 . S
C3123 C3125 1.327 . S
C3123 C3129 1.429 . S
C3124 C3116 1.574 . S
C3124 H3119 0.949 . S
C3124 C3130 1.368 . S
C3125 C3109 1.349 . S
C3125 H3117 0.950 . S
C3125 C3123 1.327 . S
C3126 C3114 1.349 . S
C3126 H3120 0.950 . S
C3126 C3127 1.327 . S
C3127 H3121 0.950 . S
C3127 C3126 1.327 . S
C3127 C3131 1.429 . S
C3128 C3111 1.574 . S
C3128 H3122 0.949 . S
C3128 C3132 1.368 . S
C3129 C3110 1.429 . S
C3129 C3123 1.429 . S
C3129 C3130 1.523 . S
C3130 C3111 1.368 . S
C3130 C3124 1.368 . S
C3130 C3129 1.523 . S
C3131 C3115 1.429 . S
C3131 C3127 1.429 . S
C3131 C3132 1.523 . S
C3132 C3116 1.368 . S
C3132 C3128 1.368 . S
C3132 C3131 1.523 . S
H3133 C3108 0.950 . S
H3134 C3110 0.950 . S
H3135 C3111 0.949 . S
H3136 C3113 0.950 . S
H3137 C3115 0.950 . S
C3138 C3139 1.349 . S
C3138 C3140 1.327 . S
C3138 H3163 0.950 . S
C3139 C3138 1.349 . S
C3139 C3155 1.349 . S
C3140 C3138 1.327 . S
C3140 C3159 1.429 . S
C3140 H3164 0.950 . S
C3141 C3158 1.574 . S
C3141 C3160 1.368 . S
C3141 H3165 0.949 . S
H3142 C3146 0.949 . S
C3143 C3144 1.349 . S
C3143 C3145 1.327 . S
C3143 H3166 0.950 . S
C3144 C3143 1.349 . S
C3144 C3156 1.349 . S
C3145 C3143 1.327 . S
C3145 C3161 1.429 . S
C3145 H3167 0.950 . S
C3146 H3142 0.949 . S
C3146 C3154 1.574 . S
C3146 C3162 1.368 . S
H3147 C3155 0.950 . S
H3148 C3153 0.950 . S
H3149 C3154 0.949 . S
H3150 C3156 0.950 . S
H3151 C3157 0.950 . S
H3152 C3158 0.949 . S
C3153 H3148 0.950 . S
C3153 C3155 1.327 . S
C3153 C3159 1.429 . S
C3154 C3146 1.574 . S
C3154 H3149 0.949 . S
C3154 C3160 1.368 . S
C3155 C3139 1.349 . S
C3155 H3147 0.950 . S
C3155 C3153 1.327 . S
C3156 C3144 1.349 . S
C3156 H3150 0.950 . S
C3156 C3157 1.327 . S
C3157 H3151 0.950 . S
C3157 C3156 1.327 . S
C3157 C3161 1.429 . S
C3158 C3141 1.574 . S
C3158 H3152 0.949 . S
C3158 C3162 1.368 . S
C3159 C3140 1.429 . S
C3159 C3153 1.429 . S
C3159 C3160 1.523 . S
C3160 C3141 1.368 . S
C3160 C3154 1.368 . S
C3160 C3159 1.523 . S
C3161 C3145 1.429 . S
C3161 C3157 1.429 . S
C3161 C3162 1.523 . S
C3162 C3146 1.368 . S
C3162 C3158 1.368 . S
C3162 C3161 1.523 . S
H3163 C3138 0.950 . S
H3164 C3140 0.950 . S
H3165 C3141 0.949 . S
H3166 C3143 0.950 . S
H3167 C3145 0.950 . S
C3168 C3169 1.349 . S
C3168 C3170 1.327 . S
C3168 H3193 0.950 . S
C3169 C3168 1.349 . S
C3169 C3185 1.349 . S
C3170 C3168 1.327 . S
C3170 C3189 1.429 . S
C3170 H3194 0.950 . S
C3171 C3188 1.574 . S
C3171 C3190 1.368 . S
C3171 H3195 0.949 . S
H3172 C3176 0.949 . S
C3173 C3174 1.349 . S
C3173 C3175 1.327 . S
C3173 H3196 0.950 . S
C3174 C3173 1.349 . S
C3174 C3186 1.349 . S
C3175 C3173 1.327 . S
C3175 C3191 1.429 . S
C3175 H3197 0.950 . S
C3176 H3172 0.949 . S
C3176 C3184 1.574 . S
C3176 C3192 1.368 . S
H3177 C3185 0.950 . S
H3178 C3183 0.950 . S
H3179 C3184 0.949 . S
H3180 C3186 0.950 . S
H3181 C3187 0.950 . S
H3182 C3188 0.949 . S
C3183 H3178 0.950 . S
C3183 C3185 1.327 . S
C3183 C3189 1.429 . S
C3184 C3176 1.574 . S
C3184 H3179 0.949 . S
C3184 C3190 1.368 . S
C3185 C3169 1.349 . S
C3185 H3177 0.950 . S
C3185 C3183 1.327 . S
C3186 C3174 1.349 . S
C3186 H3180 0.950 . S
C3186 C3187 1.327 . S
C3187 H3181 0.950 . S
C3187 C3186 1.327 . S
C3187 C3191 1.429 . S
C3188 C3171 1.574 . S
C3188 H3182 0.949 . S
C3188 C3192 1.368 . S
C3189 C3170 1.429 . S
C3189 C3183 1.429 . S
C3189 C3190 1.523 . S
C3190 C3171 1.368 . S
C3190 C3184 1.368 . S
C3190 C3189 1.523 . S
C3191 C3175 1.429 . S
C3191 C3187 1.429 . S
C3191 C3192 1.523 . S
C3192 C3176 1.368 . S
C3192 C3188 1.368 . S
C3192 C3191 1.523 . S
H3193 C3168 0.950 . S
H3194 C3170 0.950 . S
H3195 C3171 0.949 . S
H3196 C3173 0.950 . S
H3197 C3175 0.950 . S
C3198 C3199 1.349 . S
C3198 C3200 1.327 . S
C3198 H3223 0.950 . S
C3199 C3198 1.349 . S
C3199 C3215 1.349 . S
C3200 C3198 1.327 . S
C3200 C3219 1.429 . S
C3200 H3224 0.950 . S
C3201 C3218 1.574 . S
C3201 C3220 1.368 . S
C3201 H3225 0.949 . S
H3202 C3206 0.949 . S
C3203 C3204 1.349 . S
C3203 C3205 1.327 . S
C3203 H3226 0.950 . S
C3204 C3203 1.349 . S
C3204 C3216 1.349 . S
C3205 C3203 1.327 . S
C3205 C3221 1.429 . S
C3205 H3227 0.950 . S
C3206 H3202 0.949 . S
C3206 C3214 1.574 . S
C3206 C3222 1.368 . S
H3207 C3215 0.950 . S
H3208 C3213 0.950 . S
H3209 C3214 0.949 . S
H3210 C3216 0.950 . S
H3211 C3217 0.950 . S
H3212 C3218 0.949 . S
C3213 H3208 0.950 . S
C3213 C3215 1.327 . S
C3213 C3219 1.429 . S
C3214 C3206 1.574 . S
C3214 H3209 0.949 . S
C3214 C3220 1.368 . S
C3215 C3199 1.349 . S
C3215 H3207 0.950 . S
C3215 C3213 1.327 . S
C3216 C3204 1.349 . S
C3216 H3210 0.950 . S
C3216 C3217 1.327 . S
C3217 H3211 0.950 . S
C3217 C3216 1.327 . S
C3217 C3221 1.429 . S
C3218 C3201 1.574 . S
C3218 H3212 0.949 . S
C3218 C3222 1.368 . S
C3219 C3200 1.429 . S
C3219 C3213 1.429 . S
C3219 C3220 1.523 . S
C3220 C3201 1.368 . S
C3220 C3214 1.368 . S
C3220 C3219 1.523 . S
C3221 C3205 1.429 . S
C3221 C3217 1.429 . S
C3221 C3222 1.523 . S
C3222 C3206 1.368 . S
C3222 C3218 1.368 . S
C3222 C3221 1.523 . S
H3223 C3198 0.950 . S
H3224 C3200 0.950 . S
H3225 C3201 0.949 . S
H3226 C3203 0.950 . S
H3227 C3205 0.950 . S
C3228 C3229 1.349 . S
C3228 C3230 1.327 . S
C3228 H3253 0.950 . S
C3229 C3228 1.349 . S
C3229 C3245 1.349 . S
C3230 C3228 1.327 . S
C3230 C3249 1.429 . S
C3230 H3254 0.950 . S
C3231 C3248 1.574 . S
C3231 C3250 1.368 . S
C3231 H3255 0.949 . S
H3232 C3236 0.949 . S
C3233 C3234 1.349 . S
C3233 C3235 1.327 . S
C3233 H3256 0.950 . S
C3234 C3233 1.349 . S
C3234 C3246 1.349 . S
C3235 C3233 1.327 . S
C3235 C3251 1.429 . S
C3235 H3257 0.950 . S
C3236 H3232 0.949 . S
C3236 C3244 1.574 . S
C3236 C3252 1.368 . S
H3237 C3245 0.950 . S
H3238 C3243 0.950 . S
H3239 C3244 0.949 . S
H3240 C3246 0.950 . S
H3241 C3247 0.950 . S
H3242 C3248 0.949 . S
C3243 H3238 0.950 . S
C3243 C3245 1.327 . S
C3243 C3249 1.429 . S
C3244 C3236 1.574 . S
C3244 H3239 0.949 . S
C3244 C3250 1.368 . S
C3245 C3229 1.349 . S
C3245 H3237 0.950 . S
C3245 C3243 1.327 . S
C3246 C3234 1.349 . S
C3246 H3240 0.950 . S
C3246 C3247 1.327 . S
C3247 H3241 0.950 . S
C3247 C3246 1.327 . S
C3247 C3251 1.429 . S
C3248 C3231 1.574 . S
C3248 H3242 0.949 . S
C3248 C3252 1.368 . S
C3249 C3230 1.429 . S
C3249 C3243 1.429 . S
C3249 C3250 1.523 . S
C3250 C3231 1.368 . S
C3250 C3244 1.368 . S
C3250 C3249 1.523 . S
C3251 C3235 1.429 . S
C3251 C3247 1.429 . S
C3251 C3252 1.523 . S
C3252 C3236 1.368 . S
C3252 C3248 1.368 . S
C3252 C3251 1.523 . S
H3253 C3228 0.950 . S
H3254 C3230 0.950 . S
H3255 C3231 0.949 . S
H3256 C3233 0.950 . S
H3257 C3235 0.950 . S
C3258 C3259 1.349 . S
C3258 C3260 1.327 1_455 S
C3258 H3283 0.950 . S
C3259 C3258 1.349 . S
C3259 C3275 1.349 . S
C3260 C3258 1.327 1_655 S
C3260 C3279 1.429 . S
C3260 H3284 0.950 . S
C3261 C3278 1.574 . S
C3261 C3280 1.368 . S
C3261 H3285 0.949 . S
H3262 C3266 0.949 . S
C3263 C3264 1.349 . S
C3263 C3265 1.327 . S
C3263 H3286 0.950 . S
C3264 C3263 1.349 . S
C3264 C3276 1.349 . S
C3265 C3263 1.327 . S
C3265 C3281 1.429 . S
C3265 H3287 0.950 . S
C3266 H3262 0.949 . S
C3266 C3274 1.574 . S
C3266 C3282 1.368 . S
H3267 C3275 0.950 . S
H3268 C3273 0.950 . S
H3269 C3274 0.949 . S
H3270 C3276 0.950 . S
H3271 C3277 0.950 . S
H3272 C3278 0.949 . S
C3273 H3268 0.950 . S
C3273 C3275 1.327 1_655 S
C3273 C3279 1.429 . S
C3274 C3266 1.574 . S
C3274 H3269 0.949 . S
C3274 C3280 1.368 . S
C3275 C3259 1.349 . S
C3275 H3267 0.950 . S
C3275 C3273 1.327 1_455 S
C3276 C3264 1.349 . S
C3276 H3270 0.950 . S
C3276 C3277 1.327 . S
C3277 H3271 0.950 . S
C3277 C3276 1.327 . S
C3277 C3281 1.429 . S
C3278 C3261 1.574 . S
C3278 H3272 0.949 . S
C3278 C3282 1.368 . S
C3279 C3260 1.429 . S
C3279 C3273 1.429 . S
C3279 C3280 1.523 . S
C3280 C3261 1.368 . S
C3280 C3274 1.368 . S
C3280 C3279 1.523 . S
C3281 C3265 1.429 . S
C3281 C3277 1.429 . S
C3281 C3282 1.523 . S
C3282 C3266 1.368 . S
C3282 C3278 1.368 . S
C3282 C3281 1.523 . S
H3283 C3258 0.950 . S
H3284 C3260 0.950 . S
H3285 C3261 0.949 . S
H3286 C3263 0.950 . S
H3287 C3265 0.950 . S
C3288 C3289 1.349 . S
C3288 C3290 1.327 . S
C3288 H3313 0.950 . S
C3289 C3288 1.349 . S
C3289 C3305 1.349 . S
C3290 C3288 1.327 . S
C3290 C3309 1.429 . S
C3290 H3314 0.950 . S
C3291 C3308 1.574 . S
C3291 C3310 1.368 . S
C3291 H3315 0.949 . S
H3292 C3296 0.949 . S
C3293 C3294 1.349 . S
C3293 C3295 1.327 . S
C3293 H3316 0.950 . S
C3294 C3293 1.349 . S
C3294 C3306 1.349 . S
C3295 C3293 1.327 . S
C3295 C3311 1.429 . S
C3295 H3317 0.950 . S
C3296 H3292 0.949 . S
C3296 C3304 1.574 . S
C3296 C3312 1.368 . S
H3297 C3305 0.950 . S
H3298 C3303 0.950 . S
H3299 C3304 0.949 . S
H3300 C3306 0.950 . S
H3301 C3307 0.950 . S
H3302 C3308 0.949 . S
C3303 H3298 0.950 . S
C3303 C3305 1.327 . S
C3303 C3309 1.429 . S
C3304 C3296 1.574 . S
C3304 H3299 0.949 . S
C3304 C3310 1.368 . S
C3305 C3289 1.349 . S
C3305 H3297 0.950 . S
C3305 C3303 1.327 . S
C3306 C3294 1.349 . S
C3306 H3300 0.950 . S
C3306 C3307 1.327 . S
C3307 H3301 0.950 . S
C3307 C3306 1.327 . S
C3307 C3311 1.429 . S
C3308 C3291 1.574 . S
C3308 H3302 0.949 . S
C3308 C3312 1.368 . S
C3309 C3290 1.429 . S
C3309 C3303 1.429 . S
C3309 C3310 1.523 . S
C3310 C3291 1.368 . S
C3310 C3304 1.368 . S
C3310 C3309 1.523 . S
C3311 C3295 1.429 . S
C3311 C3307 1.429 . S
C3311 C3312 1.523 . S
C3312 C3296 1.368 . S
C3312 C3308 1.368 . S
C3312 C3311 1.523 . S
H3313 C3288 0.950 . S
H3314 C3290 0.950 . S
H3315 C3291 0.949 . S
H3316 C3293 0.950 . S
H3317 C3295 0.950 . S
C3318 C3319 1.349 . S
C3318 C3320 1.327 . S
C3318 H3343 0.950 . S
C3319 C3318 1.349 . S
C3319 C3335 1.349 . S
C3320 C3318 1.327 . S
C3320 C3339 1.429 . S
C3320 H3344 0.950 . S
C3321 C3338 1.574 . S
C3321 C3340 1.368 . S
C3321 H3345 0.949 . S
H3322 C3326 0.949 . S
C3323 C3324 1.349 . S
C3323 C3325 1.327 1_565 S
C3323 H3346 0.950 . S
C3324 C3323 1.349 . S
C3324 C3336 1.349 . S
C3325 C3323 1.327 1_545 S
C3325 C3341 1.429 . S
C3325 H3347 0.950 . S
C3326 H3322 0.949 . S
C3326 C3334 1.574 . S
C3326 C3342 1.368 . S
H3327 C3335 0.950 . S
H3328 C3333 0.950 . S
H3329 C3334 0.949 . S
H3330 C3336 0.950 . S
H3331 C3337 0.950 . S
H3332 C3338 0.949 . S
C3333 H3328 0.950 . S
C3333 C3335 1.327 . S
C3333 C3339 1.429 . S
C3334 C3326 1.574 . S
C3334 H3329 0.949 . S
C3334 C3340 1.368 . S
C3335 C3319 1.349 . S
C3335 H3327 0.950 . S
C3335 C3333 1.327 . S
C3336 C3324 1.349 . S
C3336 H3330 0.950 . S
C3336 C3337 1.327 1_565 S
C3337 H3331 0.950 . S
C3337 C3336 1.327 1_545 S
C3337 C3341 1.429 . S
C3338 C3321 1.574 . S
C3338 H3332 0.949 . S
C3338 C3342 1.368 . S
C3339 C3320 1.429 . S
C3339 C3333 1.429 . S
C3339 C3340 1.523 . S
C3340 C3321 1.368 . S
C3340 C3334 1.368 . S
C3340 C3339 1.523 . S
C3341 C3325 1.429 . S
C3341 C3337 1.429 . S
C3341 C3342 1.523 . S
C3342 C3326 1.368 . S
C3342 C3338 1.368 . S
C3342 C3341 1.523 . S
H3343 C3318 0.950 . S
H3344 C3320 0.950 . S
H3345 C3321 0.949 . S
H3346 C3323 0.950 . S
H3347 C3325 0.950 . S
C1459 C1233 1.556 . S
C1464 C18 1.556 . S
C1489 C99 1.556 . S
C1494 C1314 1.556 . S
C1519 C1395 1.556 . S
C1524 C180 1.556 . S
C1549 C504 1.556 . S
C1554 C261 1.556 . S
C1579 C342 1.556 . S
C1584 C585 1.556 . S
C1609 C423 1.556 . S
C1614 C666 1.556 . S
C1639 C990 1.556 . S
C1644 C747 1.556 . S
C1669 C828 1.556 . S
C1674 C1071 1.556 . S
C1699 C909 1.556 . S
C1704 C1152 1.556 . S
C1729 C619 0.724 . S
C1734 C59 0.616 . S
C1759 C700 0.724 . S
C1764 C140 0.616 . S
C1789 C538 0.724 . S
C1794 C221 0.616 . S
C1819 C302 0.616 . S
C1824 C1348 0.724 . S
C1849 C1429 0.724 . S
C1854 C383 0.616 . S
C1879 C464 0.616 . S
C1884 C1267 0.724 . S
C1909 C1105 0.724 . S
C1914 C545 0.616 . S
C1939 C1186 0.724 . S
C1944 C626 0.616 . S
C1969 C1024 0.724 . S
C1974 C707 0.617 . S
C1999 C376 0.724 . S
C2004 C788 0.616 . S
C2029 C869 0.617 . S
C2034 C457 0.724 . S
C2059 C950 0.616 . S
C2064 C295 0.724 . S
C2089 C133 0.724 . S
C2094 C1031 0.616 . S
C2119 C1112 0.617 . S
C2124 C214 0.724 . S
C2149 C52 0.724 . S
C2154 C1193 0.616 . S
C2179 C862 0.724 . S
C2184 C1274 0.616 . S
C2209 C1355 0.616 . S
C2214 C943 0.724 . S
C2239 C1436 0.617 . S
C2244 C781 0.724 . S
C2269 C374 3.356 . S
C2274 C37 3.137 . S
C2299 C455 3.356 . S
C2304 C118 3.136 . S
C2329 C293 3.355 . S
C2334 C199 3.136 . S
C2359 C131 3.356 . S
C2364 C280 3.137 . S
C2389 C361 3.136 . S
C2394 C212 3.356 . S
C2419 C442 3.136 . S
C2424 C50 3.355 . S
C2449 C860 3.356 . S
C2454 C523 3.137 . S
C2479 C604 3.137 . S
C2484 C941 3.356 . S
C2509 C779 3.355 . S
C2514 C685 3.136 . S
C2539 C766 3.137 . S
C2544 C617 3.356 . S
C2569 C698 3.356 . S
C2574 C847 3.136 . S
C2599 C928 3.136 . S
C2604 C536 3.355 . S
C2629 C1346 3.356 . S
C2634 C1009 3.137 . S
C2659 C1090 3.136 . S
C2664 C1427 3.356 . S
C2689 C1171 3.136 . S
C2694 C1265 3.355 . S
C2719 C1103 3.356 . S
C2724 C1252 3.137 . S
C2749 C1184 3.356 . S
C2754 C1333 3.137 . S
C2779 C1414 3.136 . S
C2784 C1022 3.355 . S
C2809 C34 1.477 . S
C2814 C907 1.455 . S
C2839 C745 1.455 . S
C2844 C115 1.477 . S
C2869 C196 1.477 . S
C2874 C826 1.455 . S
C2899 C277 1.477 . S
C2904 C1150 1.455 . S
C2929 C358 1.477 . S
C2934 C988 1.455 . S
C2959 C439 1.477 . S
C2964 C1069 1.455 . S
C2989 C520 1.476 . S
C2994 C1393 1.455 . S
C3019 C601 1.477 . S
C3024 C1231 1.455 . S
C3049 C682 1.477 . S
C3054 C1312 1.456 . S
C3079 C178 1.455 . S
C3084 C763 1.477 . S
C3109 C16 1.455 . S
C3114 C844 1.477 . S
C3139 C925 1.477 . S
C3144 C97 1.456 . S
C3169 C421 1.455 . S
C3174 C1006 1.477 . S
C3199 C1087 1.477 . S
C3204 C259 1.455 . S
C3229 C340 1.456 . S
C3234 C1168 1.477 . S
C3259 C1249 1.476 . S
C3264 C664 1.455 . S
C3289 C1330 1.477 . S
C3294 C502 1.455 . S
C3319 C583 1.456 . S
C3324 C1411 1.477 . S
