# Generated by pormake.
# Topology vbf, (5)-cn, num edge types: 1
# Building blocks:
#     Node 0, Type 0, BuildingBlock: XOMCOT_clean_sbu_0, # of connection points: 5
#     Node 1, Type 0, BuildingBlock: XOMCOT_clean_sbu_0, # of connection points: 5
#     Node 2, Type 0, BuildingBlock: XOMCOT_clean_sbu_0, # of connection points: 5
#     Node 3, Type 0, BuildingBlock: XOMCOT_clean_sbu_0, # of connection points: 5
#     Node 4, Type 0, BuildingBlock: XOMCOT_clean_sbu_0, # of connection points: 5
#     Node 5, Type 0, BuildingBlock: XOMCOT_clean_sbu_0, # of connection points: 5
#     Node 6, Type 0, BuildingBlock: XOMCOT_clean_sbu_0, # of connection points: 5
#     Node 7, Type 0, BuildingBlock: XOMCOT_clean_sbu_0, # of connection points: 5
#     Node 8, Type 0, BuildingBlock: XOMCOT_clean_sbu_0, # of connection points: 5
#     Node 9, Type 0, BuildingBlock: XOMCOT_clean_sbu_0, # of connection points: 5
#     Node 10, Type 0, BuildingBlock: XOMCOT_clean_sbu_0, # of connection points: 5
#     Node 11, Type 0, BuildingBlock: XOMCOT_clean_sbu_0, # of connection points: 5
#     Node 12, Type 0, BuildingBlock: XOMCOT_clean_sbu_0, # of connection points: 5
#     Node 13, Type 0, BuildingBlock: XOMCOT_clean_sbu_0, # of connection points: 5
#     Node 14, Type 0, BuildingBlock: XOMCOT_clean_sbu_0, # of connection points: 5
#     Node 15, Type 0, BuildingBlock: XOMCOT_clean_sbu_0, # of connection points: 5
#     Edge 16, Type (0, 0), None
#     Edge 17, Type (0, 0), None
#     Edge 18, Type (0, 0), None
#     Edge 19, Type (0, 0), None
#     Edge 20, Type (0, 0), None
#     Edge 21, Type (0, 0), None
#     Edge 22, Type (0, 0), None
#     Edge 23, Type (0, 0), None
#     Edge 24, Type (0, 0), None
#     Edge 25, Type (0, 0), None
#     Edge 26, Type (0, 0), None
#     Edge 27, Type (0, 0), None
#     Edge 28, Type (0, 0), None
#     Edge 29, Type (0, 0), None
#     Edge 30, Type (0, 0), None
#     Edge 31, Type (0, 0), None
#     Edge 32, Type (0, 0), None
#     Edge 33, Type (0, 0), None
#     Edge 34, Type (0, 0), None
#     Edge 35, Type (0, 0), None
#     Edge 36, Type (0, 0), None
#     Edge 37, Type (0, 0), None
#     Edge 38, Type (0, 0), None
#     Edge 39, Type (0, 0), None
#     Edge 40, Type (0, 0), None
#     Edge 41, Type (0, 0), None
#     Edge 42, Type (0, 0), None
#     Edge 43, Type (0, 0), None
#     Edge 44, Type (0, 0), None
#     Edge 45, Type (0, 0), None
#     Edge 46, Type (0, 0), None
#     Edge 47, Type (0, 0), None
#     Edge 48, Type (0, 0), None
#     Edge 49, Type (0, 0), None
#     Edge 50, Type (0, 0), None
#     Edge 51, Type (0, 0), None
#     Edge 52, Type (0, 0), None
#     Edge 53, Type (0, 0), None
#     Edge 54, Type (0, 0), None
#     Edge 55, Type (0, 0), None
# Relax obj value: 0.130
# Max RMSD: 0.205
# Mean RMSD: 0.205
data_MOF--net-vbf--node1-XOMCOT_clean_sbu_0--edge1-none
_symmetry_space_group_name_H-M    P1
_symmetry_Int_Tables_number       1
_symmetry_cell_setting            triclinic
loop_
_symmetry_equiv_pos_as_xyz
'x, y, z'
_cell_length_a     21.887025
_cell_length_b     38.77529
_cell_length_c     12.577971
_cell_angle_alpha  90.002734
_cell_angle_beta   90.000609
_cell_angle_gamma 89.998185
loop_
_atom_site_label
_atom_site_type_symbol
_atom_site_fract_x
_atom_site_fract_y
_atom_site_fract_z
_atom_type_partial_charge
Co0 Co 0.12039 0.31101 0.04059 0.0
C1 C 0.22936 0.27273 0.95062 0.0
C2 C 0.18663 0.24554 0.07715 0.0
C3 C 0.23539 0.2267 0.04366 0.0
N4 N 0.18076 0.27422 1.01733 0.0
N5 N 0.2643 0.24451 0.96721 0.0
H6 H 0.24384 0.29332 0.89918 0.0
H7 H 0.16211 0.24012 0.1487 0.0
C8 C 0.06429 0.2822 0.23875 0.0
O9 O 1.0108 0.28414 0.19184 0.0
N10 N 0.0593 0.34797 0.06742 0.0
C11 C 1.03451 0.36794 0.99096 0.0
C12 C 0.98492 0.38513 0.03078 0.0
C13 C 1.02685 0.3566 0.15706 0.0
N14 N 0.97947 0.37818 0.13538 0.0
C15 C 1.0313 0.29028 0.89058 0.0
C16 C 1.03918 0.22067 0.93223 0.0
C17 C 1.02246 0.23148 0.83063 0.0
C18 C 1.01432 0.26673 0.81308 0.0
C19 C 0.05442 0.24544 1.00894 0.0
N20 N 0.05696 0.27983 0.984 0.0
H21 H 1.03243 0.31666 0.86633 0.0
H22 H 0.06995 0.23622 0.08374 0.0
H23 H 0.05047 0.36986 0.90995 0.0
H24 H 1.03666 0.34722 0.23599 0.0
O25 O 0.14161 0.33044 0.90468 0.0
O26 O 0.18862 0.34512 0.05236 0.0
O27 O 0.11202 0.2939 0.19265 0.0
C28 C 0.18517 0.34778 0.94868 0.0
H29 H 0.2552 0.20531 0.08706 0.0
H30 H 0.95596 0.40254 0.98602 0.0
H31 H 1.04525 0.19353 0.94972 0.0
H32 H 1.00215 0.27692 0.73647 0.0
Co33 Co 0.97211 0.67942 0.04058 0.0
C34 C 0.86315 0.71771 0.95061 0.0
C35 C 0.90587 0.74489 0.07716 0.0
C36 C 0.85711 0.76374 0.04366 0.0
N37 N 0.91174 0.71621 1.01733 0.0
N38 N 0.82821 0.74592 0.96721 0.0
H39 H 0.84866 0.69712 0.89916 0.0
H40 H 0.9304 0.75031 0.14871 0.0
C41 C 1.02823 0.70823 0.23874 0.0
O42 O 0.08172 0.70628 0.19183 0.0
N43 N 1.0332 0.64245 0.06741 0.0
C44 C 0.05799 0.62249 0.99094 0.0
C45 C 0.10758 0.6053 0.03076 0.0
C46 C 0.06564 0.63382 0.15705 0.0
N47 N 0.11302 0.61225 0.13536 0.0
C48 C 0.0612 0.70015 0.89055 0.0
C49 C 0.05334 0.76975 0.93224 0.0
C50 C 0.07006 0.75895 0.83064 0.0
C51 C 0.07819 0.7237 0.81307 0.0
C52 C 1.03809 0.74499 1.00894 0.0
N53 N 1.03554 0.71059 0.98399 0.0
H54 H 0.06005 0.67376 0.86629 0.0
H55 H 1.02256 0.75421 0.08374 0.0
H56 H 1.04203 0.62057 0.90993 0.0
H57 H 0.05583 0.64321 0.23599 0.0
O58 O 0.95088 0.65999 0.90469 0.0
O59 O 0.90388 0.64532 0.05237 0.0
O60 O 0.98049 0.69653 0.19264 0.0
C61 C 0.90732 0.64265 0.94869 0.0
H62 H 0.83731 0.78512 0.08707 0.0
H63 H 0.13654 0.58789 0.986 0.0
H64 H 0.04727 0.7969 0.94973 0.0
H65 H 0.09035 0.71351 0.73646 0.0
Co66 Co 0.22208 0.56102 0.29082 0.0
C67 C 0.11321 0.52267 0.20074 0.0
C68 C 0.15573 0.49561 0.32774 0.0
C69 C 0.10702 0.47674 0.29419 0.0
N70 N 0.1617 0.52423 0.26768 0.0
N71 N 0.07825 0.49448 0.21741 0.0
H72 H 0.09883 0.54321 0.14899 0.0
H73 H 0.18018 0.49025 0.39941 0.0
C74 C 0.27826 0.53224 0.48894 0.0
O75 O 0.33172 0.53416 0.44193 0.0
N76 N 0.28318 0.59799 0.31757 0.0
C77 C 0.30794 0.61796 0.2411 0.0
C78 C 0.35752 0.63516 0.2809 0.0
C79 C 0.31563 0.60663 0.4072 0.0
N80 N 0.36299 0.62822 0.3855 0.0
C81 C 0.31122 0.54026 0.14089 0.0
C82 C 0.30316 0.47065 0.18242 0.0
C83 C 0.31997 0.48146 0.08087 0.0
C84 C 0.3282 0.51671 0.06339 0.0
C85 C 0.28793 0.49542 0.25915 0.0
N86 N 0.28549 0.52982 0.23427 0.0
H87 H 0.31015 0.56665 0.11669 0.0
H88 H 0.27232 0.4862 0.33392 0.0
H89 H 0.29197 0.61986 0.16009 0.0
H90 H 0.30584 0.59725 0.48614 0.0
O91 O 0.20085 0.58042 0.15487 0.0
O92 O 0.15385 0.59513 0.30253 0.0
O93 O 0.23051 0.54395 0.44291 0.0
C94 C 0.15728 0.59776 0.19883 0.0
H95 H 0.08715 0.45539 0.33767 0.0
H96 H 0.38646 0.65258 0.23613 0.0
H97 H 0.29701 0.44351 0.19984 0.0
H98 H 0.34046 0.5269 0.98682 0.0
Co99 Co 0.87042 0.4294 0.29086 0.0
C100 C 0.97926 0.46775 0.20076 0.0
C101 C 0.93694 0.49474 0.32818 0.0
C102 C 0.98569 0.5136 0.29471 0.0
N103 N 0.93084 0.46618 0.26784 0.0
N104 N 1.0143 0.49589 0.21771 0.0
H105 H 0.99353 0.44726 0.14873 0.0
H106 H 0.91253 0.50007 0.39992 0.0
C107 C 0.81424 0.4582 0.48893 0.0
O108 O 0.76079 0.45632 0.44185 0.0
N109 N 0.80929 0.39245 0.31754 0.0
C110 C 0.78453 0.37247 0.24107 0.0
C111 C 0.73496 0.35527 0.28087 0.0
C112 C 0.77684 0.38381 0.40716 0.0
N113 N 0.72949 0.36222 0.38548 0.0
C114 C 0.78127 0.45019 0.14097 0.0
C115 C 0.78947 0.5198 0.18241 0.0
C116 C 0.77255 0.50898 0.08091 0.0
C117 C 0.76428 0.47374 0.06347 0.0
C118 C 0.80473 0.49504 0.25913 0.0
N119 N 0.80706 0.46063 0.2343 0.0
H120 H 0.7823 0.4238 0.11678 0.0
H121 H 0.82044 0.50425 0.33382 0.0
H122 H 0.8005 0.37057 0.16006 0.0
H123 H 0.78663 0.3932 0.48611 0.0
O124 O 0.89165 0.41002 0.15489 0.0
O125 O 0.93862 0.39527 0.30255 0.0
O126 O 0.86198 0.44645 0.44297 0.0
C127 C 0.93521 0.39267 0.19885 0.0
H128 H 1.00567 0.5349 0.33831 0.0
H129 H 0.70602 0.33785 0.23611 0.0
H130 H 0.79568 0.54694 0.19979 0.0
H131 H 0.75199 0.46355 0.98692 0.0
Co132 Co 0.12039 0.81101 0.54058 0.0
C133 C 0.22936 0.77273 0.45062 0.0
C134 C 0.18662 0.74554 0.57711 0.0
C135 C 0.23538 0.72669 0.54362 0.0
N136 N 0.18075 0.77422 0.51732 0.0
N137 N 0.26429 0.74451 0.46719 0.0
H138 H 0.24385 0.79332 0.3992 0.0
H139 H 0.16209 0.74011 0.64865 0.0
C140 C 0.06428 0.7822 0.73875 0.0
O141 O 1.01079 0.78414 0.69186 0.0
N142 N 0.0593 0.84797 0.56742 0.0
C143 C 1.03451 0.86794 0.49096 0.0
C144 C 0.98492 0.88513 0.53078 0.0
C145 C 1.02685 0.8566 0.65706 0.0
N146 N 0.97947 0.87818 0.63538 0.0
C147 C 1.03129 0.79028 0.39057 0.0
C148 C 1.03917 0.72067 0.43223 0.0
C149 C 1.02246 0.73149 0.33063 0.0
C150 C 1.01432 0.76673 0.31306 0.0
C151 C 0.05441 0.74544 0.50894 0.0
N152 N 0.05696 0.77984 0.484 0.0
H153 H 1.03243 0.81667 0.36633 0.0
H154 H 0.06992 0.73622 0.58375 0.0
H155 H 0.05047 0.86986 0.40996 0.0
H156 H 1.03666 0.84722 0.736 0.0
O157 O 0.14161 0.83044 0.40468 0.0
O158 O 0.18861 0.84511 0.55235 0.0
O159 O 0.11202 0.7939 0.69264 0.0
C160 C 0.18516 0.84778 0.44867 0.0
H161 H 0.25518 0.7053 0.58701 0.0
H162 H 0.95596 0.90254 0.48603 0.0
H163 H 1.04524 0.69353 0.44971 0.0
H164 H 1.00215 0.77692 0.23646 0.0
Co165 Co 0.97211 0.17942 0.54057 0.0
C166 C 0.86315 0.21771 0.45061 0.0
C167 C 0.90589 0.2449 0.57712 0.0
C168 C 0.85713 0.26374 0.54363 0.0
N169 N 0.91175 0.21622 0.51732 0.0
N170 N 0.82821 0.24592 0.46719 0.0
H171 H 0.84865 0.19711 0.39918 0.0
H172 H 0.93042 0.25032 0.64866 0.0
C173 C 1.02823 0.20822 0.73874 0.0
O174 O 0.08173 0.20628 0.69185 0.0
N175 N 1.0332 0.14245 0.56741 0.0
C176 C 0.05799 0.12249 0.49094 0.0
C177 C 0.10758 0.1053 0.53076 0.0
C178 C 0.06564 0.13382 0.65705 0.0
N179 N 0.11302 0.11225 0.63537 0.0
C180 C 0.0612 0.20014 0.39055 0.0
C181 C 0.05335 0.26975 0.43224 0.0
C182 C 0.07005 0.25894 0.33064 0.0
C183 C 0.07819 0.2237 0.31306 0.0
C184 C 1.0381 0.24499 0.50894 0.0
N185 N 1.03555 0.21059 0.48398 0.0
H186 H 0.06005 0.17376 0.36629 0.0
H187 H 1.02259 0.25421 0.58375 0.0
H188 H 1.04203 0.12057 0.40994 0.0
H189 H 0.05583 0.14321 0.73599 0.0
O190 O 0.95088 0.15999 0.40468 0.0
O191 O 0.90388 0.14532 0.55237 0.0
O192 O 0.98049 0.19653 0.69263 0.0
C193 C 0.90732 0.14265 0.44869 0.0
H194 H 0.83733 0.28513 0.58703 0.0
H195 H 0.13654 0.08789 0.486 0.0
H196 H 0.04729 0.2969 0.44973 0.0
H197 H 0.09035 0.2135 0.23645 0.0
Co198 Co 0.22208 0.06102 0.79082 0.0
C199 C 0.11321 0.02267 0.70075 0.0
C200 C 0.15573 -0.00439 0.82775 0.0
C201 C 0.10702 0.97674 0.7942 0.0
N202 N 0.1617 0.02423 0.76769 0.0
N203 N 0.07825 0.99448 0.71742 0.0
H204 H 0.09883 0.04321 0.649 0.0
H205 H 0.18018 0.99025 0.89942 0.0
C206 C 0.27826 0.03224 0.98895 0.0
O207 O 0.33172 0.03416 0.94194 0.0
N208 N 0.28318 0.09799 0.81757 0.0
C209 C 0.30794 0.11796 0.7411 0.0
C210 C 0.35752 0.13516 0.7809 0.0
C211 C 0.31563 0.10663 0.9072 0.0
N212 N 0.36299 0.12822 0.8855 0.0
C213 C 0.31122 0.04026 0.6409 0.0
C214 C 0.30316 0.97065 0.68242 0.0
C215 C 0.31997 0.98146 0.58087 0.0
C216 C 0.3282 0.01671 0.56339 0.0
C217 C 0.28793 -0.00458 0.75916 0.0
N218 N 0.28549 0.02982 0.73427 0.0
H219 H 0.31015 0.06665 0.61669 0.0
H220 H 0.27232 0.9862 0.83392 0.0
H221 H 0.29197 0.11986 0.66009 0.0
H222 H 0.30584 0.09725 0.98614 0.0
O223 O 0.20085 0.08042 0.65488 0.0
O224 O 0.15385 0.09513 0.80253 0.0
O225 O 0.23051 0.04395 0.94292 0.0
C226 C 0.15728 0.09776 0.69884 0.0
H227 H 0.08715 0.95539 0.83768 0.0
H228 H 0.38646 0.15257 0.73613 0.0
H229 H 0.29701 0.94351 0.69985 0.0
H230 H 0.34046 0.0269 0.48683 0.0
Co231 Co 0.87042 0.9294 0.79086 0.0
C232 C 0.97926 0.96775 0.70077 0.0
C233 C 0.93694 0.99474 0.82819 0.0
C234 C 0.98569 0.0136 0.79472 0.0
N235 N 0.93084 0.96618 0.76785 0.0
N236 N 1.0143 -0.00411 0.71773 0.0
H237 H 0.99353 0.94726 0.64874 0.0
H238 H 0.91253 7e-05 0.89993 0.0
C239 C 0.81424 0.9582 0.98893 0.0
O240 O 0.76079 0.95632 0.94185 0.0
N241 N 0.80928 0.89245 0.81754 0.0
C242 C 0.78453 0.87247 0.74106 0.0
C243 C 0.73495 0.85527 0.78087 0.0
C244 C 0.77684 0.88381 0.90716 0.0
N245 N 0.72948 0.86222 0.88547 0.0
C246 C 0.78127 0.95019 0.64098 0.0
C247 C 0.78947 0.0198 0.68241 0.0
C248 C 0.77255 0.00898 0.58091 0.0
C249 C 0.76428 0.97374 0.56347 0.0
C250 C 0.80473 0.99504 0.75914 0.0
N251 N 0.80706 0.96063 0.73431 0.0
H252 H 0.7823 0.9238 0.61679 0.0
H253 H 0.82044 0.00425 0.83383 0.0
H254 H 0.8005 0.87057 0.66006 0.0
H255 H 0.78662 0.8932 0.98611 0.0
O256 O 0.89165 0.91002 0.6549 0.0
O257 O 0.93862 0.89527 0.80255 0.0
O258 O 0.86198 0.94645 0.94297 0.0
C259 C 0.93521 0.89267 0.69885 0.0
H260 H 1.00567 0.0349 0.83832 0.0
H261 H 0.70602 0.83785 0.7361 0.0
H262 H 0.79568 0.04694 0.69979 0.0
H263 H 0.75199 0.96355 0.48692 0.0
Co264 Co 0.62044 0.31101 0.54102 0.0
C265 C 0.72917 0.27261 0.45084 0.0
C266 C 0.68712 0.24575 0.57879 0.0
C267 C 0.73583 0.22687 0.54526 0.0
N268 N 0.68088 0.27424 0.51817 0.0
N269 N 0.76427 0.2445 0.46791 0.0
H270 H 0.7433 0.29304 0.39847 0.0
H271 H 0.66278 0.24047 0.65066 0.0
C272 C 0.56417 0.28223 0.73906 0.0
O273 O 0.51076 0.28408 0.69186 0.0
N274 N 0.55928 0.34796 0.56756 0.0
C275 C 0.53457 0.36794 0.49104 0.0
C276 C 0.48497 0.38514 0.53078 0.0
C277 C 0.5268 0.3566 0.65713 0.0
N278 N 0.47946 0.37819 0.63538 0.0
C279 C 0.53125 0.29019 0.39123 0.0
C280 C 0.53966 0.22058 0.43254 0.0
C281 C 0.52263 0.23139 0.3311 0.0
C282 C 0.51426 0.26663 0.31373 0.0
C283 C 0.55491 0.24534 0.50928 0.0
N284 N 0.55712 0.27975 0.4845 0.0
H285 H 0.53221 0.31658 0.36707 0.0
H286 H 0.57072 0.23612 0.58392 0.0
H287 H 0.55058 0.36983 0.41006 0.0
H288 H 0.53656 0.34722 0.73609 0.0
O289 O 0.64169 0.33035 0.40501 0.0
O290 O 0.68862 0.34515 0.55266 0.0
O291 O 0.61193 0.294 0.69318 0.0
C292 C 0.68524 0.34772 0.44895 0.0
H293 H 0.7559 0.20562 0.58895 0.0
H294 H 0.45605 0.40256 0.48598 0.0
H295 H 0.54596 0.19344 0.44985 0.0
H296 H 0.50188 0.27682 0.23722 0.0
Co297 Co 0.47206 0.67942 0.54102 0.0
C298 C 0.36333 0.71783 0.45083 0.0
C299 C 0.40539 0.74468 0.5788 0.0
C300 C 0.35668 0.76357 0.54527 0.0
N301 N 0.41163 0.71619 0.51817 0.0
N302 N 0.32824 0.74594 0.46791 0.0
H303 H 0.34921 0.6974 0.39846 0.0
H304 H 0.42973 0.74996 0.65066 0.0
C305 C 0.52834 0.7082 0.73905 0.0
O306 O 0.58176 0.70635 0.69185 0.0
N307 N 0.53321 0.64247 0.56755 0.0
C308 C 0.55793 0.62249 0.49103 0.0
C309 C 0.60753 0.60529 0.53076 0.0
C310 C 0.56569 0.63382 0.65712 0.0
N311 N 0.61303 0.61223 0.63536 0.0
C312 C 0.56125 0.70024 0.39121 0.0
C313 C 0.55286 0.76985 0.43255 0.0
C314 C 0.56988 0.75903 0.33111 0.0
C315 C 0.57825 0.7238 0.31372 0.0
C316 C 0.5376 0.74509 0.50928 0.0
N317 N 0.53538 0.71067 0.48448 0.0
H318 H 0.56027 0.67385 0.36703 0.0
H319 H 0.52179 0.7543 0.58392 0.0
H320 H 0.54193 0.6206 0.41004 0.0
H321 H 0.55593 0.6432 0.73609 0.0
O322 O 0.4508 0.66007 0.40502 0.0
O323 O 0.40387 0.64529 0.55268 0.0
O324 O 0.48058 0.69643 0.69317 0.0
C325 C 0.40725 0.64271 0.44897 0.0
H326 H 0.33661 0.78481 0.58896 0.0
H327 H 0.63645 0.58787 0.48596 0.0
H328 H 0.54656 0.79699 0.44987 0.0
H329 H 0.59063 0.7136 0.23721 0.0
Co330 Co 0.72209 0.56099 0.79078 0.0
C331 C 0.61323 0.52264 0.70073 0.0
C332 C 0.65571 0.4956 0.8278 0.0
C333 C 0.60699 0.47673 0.79425 0.0
N334 N 0.66171 0.5242 0.7677 0.0
N335 N 0.57824 0.49446 0.71744 0.0
H336 H 0.59888 0.54318 0.64893 0.0
H337 H 0.68016 0.49024 0.89948 0.0
C338 C 0.77828 0.53221 0.98892 0.0
O339 O 0.83175 0.53411 0.94191 0.0
N340 N 0.78319 0.59795 0.81745 0.0
C341 C 0.80793 0.61792 0.74095 0.0
C342 C 0.85754 0.63511 0.78068 0.0
C343 C 0.81567 0.60659 0.90704 0.0
N344 N 0.86302 0.62817 0.88528 0.0
C345 C 0.81124 0.54022 0.64089 0.0
C346 C 0.80315 0.47061 0.68242 0.0
C347 C 0.81998 0.48143 0.58089 0.0
C348 C 0.82823 0.51667 0.56339 0.0
C349 C 0.78791 0.49538 0.75914 0.0
N350 N 0.78549 0.52978 0.73425 0.0
H351 H 0.81016 0.56661 0.61666 0.0
H352 H 0.77229 0.48616 0.8339 0.0
H353 H 0.79193 0.61983 0.65996 0.0
H354 H 0.80591 0.59721 0.98599 0.0
O355 O 0.70084 0.58037 0.65482 0.0
O356 O 0.65388 0.5951 0.80249 0.0
O357 O 0.73053 0.54392 0.9429 0.0
C358 C 0.65729 0.59773 0.6988 0.0
H359 H 0.5871 0.45539 0.83776 0.0
H360 H 0.88647 0.65252 0.73588 0.0
H361 H 0.797 0.44347 0.69984 0.0
H362 H 0.84049 0.52686 0.48683 0.0
Co363 Co 0.37041 0.42943 0.79082 0.0
C364 C 0.47924 0.46778 0.70075 0.0
C365 C 0.43696 0.49476 0.82823 0.0
C366 C 0.48572 0.51361 0.79477 0.0
N367 N 0.43083 0.46621 0.76785 0.0
N368 N 0.5143 0.4959 0.71774 0.0
H369 H 0.49348 0.44729 0.64868 0.0
H370 H 0.41255 0.50009 0.89998 0.0
C371 C 0.31421 0.45823 0.98891 0.0
O372 O 0.26076 0.45637 0.94182 0.0
N373 N 0.30928 0.39248 0.81742 0.0
C374 C 0.28455 0.37251 0.74092 0.0
C375 C 0.23494 0.35532 0.78065 0.0
C376 C 0.2768 0.38385 0.90701 0.0
N377 N 0.22945 0.36226 0.88525 0.0
C378 C 0.28125 0.45023 0.64096 0.0
C379 C 0.28947 0.51984 0.68241 0.0
C380 C 0.27254 0.50902 0.58093 0.0
C381 C 0.26426 0.47378 0.56347 0.0
C382 C 0.30474 0.49507 0.75912 0.0
N383 N 0.30706 0.46066 0.73428 0.0
H384 H 0.28229 0.42384 0.61676 0.0
H385 H 0.32047 0.50429 0.8338 0.0
H386 H 0.30055 0.37061 0.65993 0.0
H387 H 0.28655 0.39324 0.98596 0.0
O388 O 0.39166 0.41006 0.65484 0.0
O389 O 0.4386 0.3953 0.80252 0.0
O390 O 0.36195 0.44647 0.94295 0.0
C391 C 0.4352 0.3927 0.69881 0.0
H392 H 0.50572 0.5349 0.83839 0.0
H393 H 0.20601 0.33791 0.73585 0.0
H394 H 0.2957 0.54698 0.69978 0.0
H395 H 0.25197 0.46358 0.48692 0.0
Co396 Co 0.62043 0.81101 0.04102 0.0
C397 C 0.72918 0.77261 0.95083 0.0
C398 C 0.6871 0.74574 0.07875 0.0
C399 C 0.73582 0.72686 0.04523 0.0
N400 N 0.68087 0.77424 1.01816 0.0
N401 N 0.76427 0.7445 0.9679 0.0
H402 H 0.74331 0.79304 0.89849 0.0
H403 H 0.66276 0.74046 0.15061 0.0
C404 C 0.56417 0.78223 0.23906 0.0
O405 O 0.51075 0.78407 0.19188 0.0
N406 N 0.55928 0.84796 0.06756 0.0
C407 C 0.53457 0.86794 0.99105 0.0
C408 C 0.48497 0.88514 0.03078 0.0
C409 C 0.5268 0.8566 0.15714 0.0
N410 N 0.47946 0.87819 0.13538 0.0
C411 C 0.53124 0.79019 0.89122 0.0
C412 C 0.53965 0.72058 0.93254 0.0
C413 C 0.52264 0.7314 0.8311 0.0
C414 C 0.51426 0.76663 0.81372 0.0
C415 C 0.5549 0.74534 1.00928 0.0
N416 N 0.55711 0.77975 0.9845 0.0
H417 H 0.53221 0.81658 0.86706 0.0
H418 H 0.5707 0.73613 0.08393 0.0
H419 H 0.55057 0.86983 0.91006 0.0
H420 H 0.53655 0.84722 0.2361 0.0
O421 O 0.64169 0.83035 0.90501 0.0
O422 O 0.68862 0.84515 0.05266 0.0
O423 O 0.61193 0.794 0.19318 0.0
C424 C 0.68523 0.84772 0.94895 0.0
H425 H 0.75588 0.70561 0.0889 0.0
H426 H 0.45605 0.90256 0.98598 0.0
H427 H 0.54595 0.69344 0.94985 0.0
H428 H 0.50188 0.77682 0.73721 0.0
Co429 Co 0.47207 0.17942 0.04101 0.0
C430 C 0.36333 0.21783 0.95083 0.0
C431 C 0.40541 0.24469 0.07876 0.0
C432 C 0.35669 0.26357 0.04523 0.0
N433 N 0.41163 0.2162 1.01816 0.0
N434 N 0.32824 0.24594 0.9679 0.0
H435 H 0.3492 0.19739 0.89848 0.0
H436 H 0.42975 0.24997 0.15062 0.0
C437 C 0.52834 0.20819 0.23905 0.0
O438 O 0.58176 0.20635 0.19187 0.0
N439 N 0.53321 0.14247 0.06755 0.0
C440 C 0.55793 0.12249 0.99103 0.0
C441 C 0.60753 0.10529 0.03076 0.0
C442 C 0.56569 0.13382 0.15713 0.0
N443 N 0.61303 0.11223 0.13537 0.0
C444 C 0.56125 0.20024 0.8912 0.0
C445 C 0.55286 0.26985 0.93255 0.0
C446 C 0.56988 0.25903 0.8311 0.0
C447 C 0.57825 0.22379 0.81371 0.0
C448 C 0.53761 0.24509 1.00928 0.0
N449 N 0.53539 0.21067 0.98448 0.0
H450 H 0.56027 0.17384 0.86703 0.0
H451 H 0.52181 0.2543 0.08393 0.0
H452 H 0.54193 0.1206 0.91004 0.0
H453 H 0.55593 0.1432 0.23609 0.0
O454 O 0.4508 0.16007 0.90501 0.0
O455 O 0.40388 0.14529 0.05268 0.0
O456 O 0.48058 0.19644 0.19316 0.0
C457 C 0.40725 0.14271 0.94896 0.0
H458 H 0.33663 0.28482 0.08892 0.0
H459 H 0.63645 0.08787 0.98596 0.0
H460 H 0.54657 0.29699 0.94987 0.0
H461 H 0.59063 0.2136 0.73719 0.0
Co462 Co 0.72209 0.06099 0.29078 0.0
C463 C 0.61323 0.02264 0.20074 0.0
C464 C 0.65571 -0.0044 0.32781 0.0
C465 C 0.60699 0.97673 0.29426 0.0
N466 N 0.66171 0.0242 0.2677 0.0
N467 N 0.57824 0.99446 0.21745 0.0
H468 H 0.59888 0.04318 0.14894 0.0
H469 H 0.68016 0.99024 0.3995 0.0
C470 C 0.77829 0.03221 0.48893 0.0
O471 O 0.83175 0.03411 0.44191 0.0
N472 N 0.78319 0.09795 0.31746 0.0
C473 C 0.80793 0.11792 0.24095 0.0
C474 C 0.85754 0.13511 0.28068 0.0
C475 C 0.81567 0.10659 0.40704 0.0
N476 N 0.86303 0.12817 0.38528 0.0
C477 C 0.81124 0.04022 0.14089 0.0
C478 C 0.80315 0.97061 0.18243 0.0
C479 C 0.81998 0.98143 0.08089 0.0
C480 C 0.82822 0.01667 0.0634 0.0
C481 C 0.78791 -0.00462 0.25915 0.0
N482 N 0.78549 0.02978 0.23425 0.0
H483 H 0.81016 0.06661 0.11667 0.0
H484 H 0.77229 0.98616 0.3339 0.0
H485 H 0.79193 0.11982 0.15996 0.0
H486 H 0.80591 0.09721 0.48599 0.0
O487 O 0.70084 0.08037 0.15482 0.0
O488 O 0.65388 0.0951 0.3025 0.0
O489 O 0.73054 0.04393 0.4429 0.0
C490 C 0.65729 0.09773 0.1988 0.0
H491 H 0.5871 0.95539 0.33777 0.0
H492 H 0.88647 0.15252 0.23587 0.0
H493 H 0.79699 0.94347 0.19984 0.0
H494 H 0.84049 0.02686 0.98683 0.0
Co495 Co 0.37041 0.92943 0.29082 0.0
C496 C 0.47924 0.96778 0.20076 0.0
C497 C 0.43696 0.99476 0.32824 0.0
C498 C 0.48572 0.01361 0.29478 0.0
N499 N 0.43083 0.96621 0.26786 0.0
N500 N 0.5143 -0.0041 0.21775 0.0
H501 H 0.49348 0.94729 0.14868 0.0
H502 H 0.41255 9e-05 0.39999 0.0
C503 C 0.31421 0.95823 0.48891 0.0
O504 O 0.26076 0.95637 0.44183 0.0
N505 N 0.30928 0.89248 0.31743 0.0
C506 C 0.28455 0.87251 0.24091 0.0
C507 C 0.23494 0.85532 0.28065 0.0
C508 C 0.27679 0.88385 0.40701 0.0
N509 N 0.22945 0.86227 0.38525 0.0
C510 C 0.28125 0.95023 0.14097 0.0
C511 C 0.28948 0.01984 0.18242 0.0
C512 C 0.27255 0.00902 0.08093 0.0
C513 C 0.26426 0.97378 0.06348 0.0
C514 C 0.30474 0.99507 0.25912 0.0
N515 N 0.30706 0.96067 0.23428 0.0
H516 H 0.28229 0.92384 0.11676 0.0
H517 H 0.32047 0.00429 0.33381 0.0
H518 H 0.30055 0.87061 0.15993 0.0
H519 H 0.28655 0.89324 0.48596 0.0
O520 O 0.39166 0.91006 0.15484 0.0
O521 O 0.4386 0.8953 0.30252 0.0
O522 O 0.36195 0.94647 0.44295 0.0
C523 C 0.4352 0.8927 0.19882 0.0
H524 H 0.50572 0.0349 0.3384 0.0
H525 H 0.20601 0.83791 0.23585 0.0
H526 H 0.2957 0.04698 0.19979 0.0
H527 H 0.25197 0.96359 0.98693 0.0
loop_
_geom_bond_atom_site_label_1
_geom_bond_atom_site_label_2
_geom_bond_distance
_geom_bond_site_symmetry_2
_ccdc_geom_bond_type
Co0 N4 2.148 . S
Co0 N10 2.128 . S
Co0 N20 2.194 1_554 S
Co0 O25 2.351 1_554 S
Co0 O26 2.155 . S
Co0 O27 2.096 . S
C1 N4 1.301 1_556 S
C1 N5 1.328 . S
C1 H6 0.930 . S
C2 C3 1.333 . S
C2 N4 1.317 . S
C2 H7 0.930 . S
C3 C2 1.333 . S
C3 N5 1.350 1_554 S
C3 H29 0.931 . S
N4 Co0 2.148 . S
N4 C1 1.301 1_554 S
N4 C2 1.317 . S
N5 C1 1.328 . S
N5 C3 1.350 1_556 S
H6 C1 0.930 . S
H7 C2 0.930 . S
C8 O9 1.224 . S
C8 O27 1.247 . S
O9 C8 1.224 . S
N10 Co0 2.128 . S
N10 C11 1.355 1_454 S
N10 C13 1.311 1_455 S
C11 N10 1.355 1_656 S
C11 C12 1.363 . S
C11 H23 0.929 . S
C12 C11 1.363 . S
C12 N14 1.375 1_556 S
C12 H30 0.931 . S
C13 N10 1.311 1_655 S
C13 N14 1.347 . S
C13 H24 0.929 . S
N14 C12 1.375 1_554 S
N14 C13 1.347 . S
C15 C18 1.365 . S
C15 N20 1.328 . S
C15 H21 0.929 . S
C16 C17 1.362 . S
C16 C19 1.378 1_655 S
C16 H31 0.929 . S
C17 C16 1.362 . S
C17 C18 1.366 1_655 S
C18 C15 1.365 . S
C18 C17 1.366 1_455 S
C18 H32 0.930 . S
C19 C16 1.378 1_455 S
C19 N20 1.315 . S
C19 H22 0.930 1_455 S
N20 Co0 2.194 1_556 S
N20 C15 1.328 . S
N20 C19 1.315 . S
H21 C15 0.929 . S
H22 C19 0.930 1_655 S
H23 C11 0.929 . S
H24 C13 0.929 . S
O25 Co0 2.351 1_556 S
O25 C28 1.244 . S
O26 Co0 2.155 . S
O26 C28 1.240 1_554 S
O27 Co0 2.096 . S
O27 C8 1.247 . S
C28 O25 1.244 . S
C28 O26 1.240 1_556 S
H29 C3 0.931 . S
H30 C12 0.931 . S
H31 C16 0.929 . S
H32 C18 0.930 . S
Co33 N37 2.148 . S
Co33 N43 2.128 . S
Co33 N53 2.194 1_554 S
Co33 O58 2.351 1_554 S
Co33 O59 2.155 . S
Co33 O60 2.096 . S
C34 N37 1.301 1_556 S
C34 N38 1.328 . S
C34 H39 0.930 . S
C35 C36 1.333 . S
C35 N37 1.317 . S
C35 H40 0.930 . S
C36 C35 1.333 . S
C36 N38 1.350 1_554 S
C36 H62 0.931 . S
N37 Co33 2.148 . S
N37 C34 1.301 1_554 S
N37 C35 1.317 . S
N38 C34 1.328 . S
N38 C36 1.350 1_556 S
H39 C34 0.930 . S
H40 C35 0.930 . S
C41 O42 1.224 . S
C41 O60 1.247 . S
O42 C41 1.224 . S
N43 Co33 2.128 . S
N43 C44 1.355 1_654 S
N43 C46 1.311 1_655 S
C44 N43 1.355 1_456 S
C44 C45 1.363 . S
C44 H56 0.929 . S
C45 C44 1.363 . S
C45 N47 1.375 1_556 S
C45 H63 0.931 . S
C46 N43 1.311 1_455 S
C46 N47 1.347 . S
C46 H57 0.929 . S
N47 C45 1.375 1_554 S
N47 C46 1.347 . S
C48 C51 1.365 . S
C48 N53 1.328 . S
C48 H54 0.929 . S
C49 C50 1.362 . S
C49 C52 1.378 1_455 S
C49 H64 0.929 . S
C50 C49 1.362 . S
C50 C51 1.366 1_455 S
C51 C48 1.365 . S
C51 C50 1.366 1_655 S
C51 H65 0.930 . S
C52 C49 1.378 1_655 S
C52 N53 1.315 . S
C52 H55 0.930 1_655 S
N53 Co33 2.194 1_556 S
N53 C48 1.328 . S
N53 C52 1.315 . S
H54 C48 0.929 . S
H55 C52 0.930 1_455 S
H56 C44 0.929 . S
H57 C46 0.929 . S
O58 Co33 2.351 1_556 S
O58 C61 1.244 . S
O59 Co33 2.155 . S
O59 C61 1.240 1_554 S
O60 Co33 2.096 . S
O60 C41 1.247 . S
C61 O58 1.244 . S
C61 O59 1.240 1_556 S
H62 C36 0.931 . S
H63 C45 0.931 . S
H64 C49 0.929 . S
H65 C51 0.930 . S
Co66 N70 2.148 . S
Co66 N76 2.128 . S
Co66 N86 2.194 . S
Co66 O91 2.351 . S
Co66 O92 2.155 . S
Co66 O93 2.096 . S
C67 N70 1.301 . S
C67 N71 1.328 . S
C67 H72 0.930 . S
C68 C69 1.333 . S
C68 N70 1.317 . S
C68 H73 0.930 . S
C69 C68 1.333 . S
C69 N71 1.350 . S
C69 H95 0.931 . S
N70 Co66 2.148 . S
N70 C67 1.301 . S
N70 C68 1.317 . S
N71 C67 1.328 . S
N71 C69 1.350 . S
H72 C67 0.930 . S
H73 C68 0.930 . S
C74 O75 1.224 . S
C74 O93 1.247 . S
O75 C74 1.224 . S
N76 Co66 2.128 . S
N76 C77 1.355 . S
N76 C79 1.311 . S
C77 N76 1.355 . S
C77 C78 1.363 . S
C77 H89 0.929 . S
C78 C77 1.363 . S
C78 N80 1.375 . S
C78 H96 0.931 . S
C79 N76 1.311 . S
C79 N80 1.347 . S
C79 H90 0.929 . S
N80 C78 1.375 . S
N80 C79 1.347 . S
C81 C84 1.365 1_554 S
C81 N86 1.328 . S
C81 H87 0.929 . S
C82 C83 1.362 1_554 S
C82 C85 1.378 . S
C82 H97 0.929 . S
C83 C82 1.362 1_556 S
C83 C84 1.366 . S
C84 C81 1.365 1_556 S
C84 C83 1.366 . S
C84 H98 0.930 . S
C85 C82 1.378 . S
C85 N86 1.315 . S
C85 H88 0.930 . S
N86 Co66 2.194 . S
N86 C81 1.328 . S
N86 C85 1.315 . S
H87 C81 0.929 . S
H88 C85 0.930 . S
H89 C77 0.929 . S
H90 C79 0.929 . S
O91 Co66 2.351 . S
O91 C94 1.244 . S
O92 Co66 2.155 . S
O92 C94 1.240 . S
O93 Co66 2.096 . S
O93 C74 1.247 . S
C94 O91 1.244 . S
C94 O92 1.240 . S
H95 C69 0.931 . S
H96 C78 0.931 . S
H97 C82 0.929 . S
H98 C84 0.930 . S
Co99 N103 2.148 . S
Co99 N109 2.128 . S
Co99 N119 2.194 . S
Co99 O124 2.351 . S
Co99 O125 2.155 . S
Co99 O126 2.096 . S
C100 N103 1.301 . S
C100 N104 1.328 . S
C100 H105 0.930 . S
C101 C102 1.333 . S
C101 N103 1.317 . S
C101 H106 0.930 . S
C102 C101 1.333 . S
C102 N104 1.350 . S
C102 H128 0.931 . S
N103 Co99 2.148 . S
N103 C100 1.301 . S
N103 C101 1.317 . S
N104 C100 1.328 . S
N104 C102 1.350 . S
H105 C100 0.930 . S
H106 C101 0.930 . S
C107 O108 1.224 . S
C107 O126 1.247 . S
O108 C107 1.224 . S
N109 Co99 2.128 . S
N109 C110 1.355 . S
N109 C112 1.311 . S
C110 N109 1.355 . S
C110 C111 1.363 . S
C110 H122 0.929 . S
C111 C110 1.363 . S
C111 N113 1.375 . S
C111 H129 0.931 . S
C112 N109 1.311 . S
C112 N113 1.347 . S
C112 H123 0.929 . S
N113 C111 1.375 . S
N113 C112 1.347 . S
C114 C117 1.365 1_554 S
C114 N119 1.328 . S
C114 H120 0.929 . S
C115 C116 1.362 1_554 S
C115 C118 1.378 . S
C115 H130 0.929 . S
C116 C115 1.362 1_556 S
C116 C117 1.366 . S
C117 C114 1.365 1_556 S
C117 C116 1.366 . S
C117 H131 0.930 . S
C118 C115 1.378 . S
C118 N119 1.315 . S
C118 H121 0.930 . S
N119 Co99 2.194 . S
N119 C114 1.328 . S
N119 C118 1.315 . S
H120 C114 0.929 . S
H121 C118 0.930 . S
H122 C110 0.929 . S
H123 C112 0.929 . S
O124 Co99 2.351 . S
O124 C127 1.244 . S
O125 Co99 2.155 . S
O125 C127 1.240 . S
O126 Co99 2.096 . S
O126 C107 1.247 . S
C127 O124 1.244 . S
C127 O125 1.240 . S
H128 C102 0.931 . S
H129 C111 0.931 . S
H130 C115 0.929 . S
H131 C117 0.930 . S
Co132 N136 2.148 . S
Co132 N142 2.128 . S
Co132 N152 2.194 . S
Co132 O157 2.351 . S
Co132 O158 2.155 . S
Co132 O159 2.096 . S
C133 N136 1.301 . S
C133 N137 1.328 . S
C133 H138 0.930 . S
C134 C135 1.333 . S
C134 N136 1.317 . S
C134 H139 0.930 . S
C135 C134 1.333 . S
C135 N137 1.350 . S
C135 H161 0.931 . S
N136 Co132 2.148 . S
N136 C133 1.301 . S
N136 C134 1.317 . S
N137 C133 1.328 . S
N137 C135 1.350 . S
H138 C133 0.930 . S
H139 C134 0.930 . S
C140 O141 1.224 . S
C140 O159 1.247 . S
O141 C140 1.224 . S
N142 Co132 2.128 . S
N142 C143 1.355 1_455 S
N142 C145 1.311 1_455 S
C143 N142 1.355 1_655 S
C143 C144 1.363 . S
C143 H155 0.929 . S
C144 C143 1.363 . S
C144 N146 1.375 . S
C144 H162 0.931 . S
C145 N142 1.311 1_655 S
C145 N146 1.347 . S
C145 H156 0.929 . S
N146 C144 1.375 . S
N146 C145 1.347 . S
C147 C150 1.365 . S
C147 N152 1.328 . S
C147 H153 0.929 . S
C148 C149 1.362 . S
C148 C151 1.378 1_655 S
C148 H163 0.929 . S
C149 C148 1.362 . S
C149 C150 1.366 1_655 S
C150 C147 1.365 . S
C150 C149 1.366 1_455 S
C150 H164 0.930 . S
C151 C148 1.378 1_455 S
C151 N152 1.315 . S
C151 H154 0.930 1_455 S
N152 Co132 2.194 . S
N152 C147 1.328 . S
N152 C151 1.315 . S
H153 C147 0.929 . S
H154 C151 0.930 1_655 S
H155 C143 0.929 . S
H156 C145 0.929 . S
O157 Co132 2.351 . S
O157 C160 1.244 . S
O158 Co132 2.155 . S
O158 C160 1.240 . S
O159 Co132 2.096 . S
O159 C140 1.247 . S
C160 O157 1.244 . S
C160 O158 1.240 . S
H161 C135 0.931 . S
H162 C144 0.931 . S
H163 C148 0.929 . S
H164 C150 0.930 . S
Co165 N169 2.148 . S
Co165 N175 2.128 . S
Co165 N185 2.194 . S
Co165 O190 2.351 . S
Co165 O191 2.155 . S
Co165 O192 2.096 . S
C166 N169 1.301 . S
C166 N170 1.328 . S
C166 H171 0.930 . S
C167 C168 1.333 . S
C167 N169 1.317 . S
C167 H172 0.930 . S
C168 C167 1.333 . S
C168 N170 1.350 . S
C168 H194 0.931 . S
N169 Co165 2.148 . S
N169 C166 1.301 . S
N169 C167 1.317 . S
N170 C166 1.328 . S
N170 C168 1.350 . S
H171 C166 0.930 . S
H172 C167 0.930 . S
C173 O174 1.224 . S
C173 O192 1.247 . S
O174 C173 1.224 . S
N175 Co165 2.128 . S
N175 C176 1.355 1_655 S
N175 C178 1.311 1_655 S
C176 N175 1.355 1_455 S
C176 C177 1.363 . S
C176 H188 0.929 . S
C177 C176 1.363 . S
C177 N179 1.375 . S
C177 H195 0.931 . S
C178 N175 1.311 1_455 S
C178 N179 1.347 . S
C178 H189 0.929 . S
N179 C177 1.375 . S
N179 C178 1.347 . S
C180 C183 1.365 . S
C180 N185 1.328 . S
C180 H186 0.929 . S
C181 C182 1.362 . S
C181 C184 1.378 1_455 S
C181 H196 0.929 . S
C182 C181 1.362 . S
C182 C183 1.366 1_455 S
C183 C180 1.365 . S
C183 C182 1.366 1_655 S
C183 H197 0.930 . S
C184 C181 1.378 1_655 S
C184 N185 1.315 . S
C184 H187 0.930 1_655 S
N185 Co165 2.194 . S
N185 C180 1.328 . S
N185 C184 1.315 . S
H186 C180 0.929 . S
H187 C184 0.930 1_455 S
H188 C176 0.929 . S
H189 C178 0.929 . S
O190 Co165 2.351 . S
O190 C193 1.244 . S
O191 Co165 2.155 . S
O191 C193 1.240 . S
O192 Co165 2.096 . S
O192 C173 1.247 . S
C193 O190 1.244 . S
C193 O191 1.240 . S
H194 C168 0.931 . S
H195 C177 0.931 . S
H196 C181 0.929 . S
H197 C183 0.930 . S
Co198 N202 2.148 . S
Co198 N208 2.128 . S
Co198 N218 2.194 . S
Co198 O223 2.351 . S
Co198 O224 2.155 . S
Co198 O225 2.096 . S
C199 N202 1.301 . S
C199 N203 1.328 1_545 S
C199 H204 0.930 . S
C200 C201 1.333 1_545 S
C200 N202 1.317 . S
C200 H205 0.930 1_545 S
C201 C200 1.333 1_565 S
C201 N203 1.350 . S
C201 H227 0.931 . S
N202 Co198 2.148 . S
N202 C199 1.301 . S
N202 C200 1.317 . S
N203 C199 1.328 1_565 S
N203 C201 1.350 . S
H204 C199 0.930 . S
H205 C200 0.930 1_565 S
C206 O207 1.224 . S
C206 O225 1.247 . S
O207 C206 1.224 . S
N208 Co198 2.128 . S
N208 C209 1.355 . S
N208 C211 1.311 . S
C209 N208 1.355 . S
C209 C210 1.363 . S
C209 H221 0.929 . S
C210 C209 1.363 . S
C210 N212 1.375 . S
C210 H228 0.931 . S
C211 N208 1.311 . S
C211 N212 1.347 . S
C211 H222 0.929 . S
N212 C210 1.375 . S
N212 C211 1.347 . S
C213 C216 1.365 . S
C213 N218 1.328 . S
C213 H219 0.929 . S
C214 C215 1.363 . S
C214 C217 1.378 1_565 S
C214 H229 0.929 . S
C215 C214 1.363 . S
C215 C216 1.363 1_565 S
C216 C213 1.365 . S
C216 C215 1.363 1_545 S
C216 H230 0.930 . S
C217 C214 1.378 1_545 S
C217 N218 1.315 . S
C217 H220 0.930 . S
N218 Co198 2.194 . S
N218 C213 1.328 . S
N218 C217 1.315 . S
H219 C213 0.929 . S
H220 C217 0.930 . S
H221 C209 0.929 . S
H222 C211 0.929 . S
O223 Co198 2.351 . S
O223 C226 1.244 . S
O224 Co198 2.155 . S
O224 C226 1.240 . S
O225 Co198 2.096 . S
O225 C206 1.247 . S
C226 O223 1.244 . S
C226 O224 1.240 . S
H227 C201 0.931 . S
H228 C210 0.931 . S
H229 C214 0.929 . S
H230 C216 0.930 . S
Co231 N235 2.148 . S
Co231 N241 2.128 . S
Co231 N251 2.194 . S
Co231 O256 2.351 . S
Co231 O257 2.155 . S
Co231 O258 2.096 . S
C232 N235 1.301 . S
C232 N236 1.328 1_565 S
C232 H237 0.930 . S
C233 C234 1.333 1_565 S
C233 N235 1.317 . S
C233 H238 0.930 1_565 S
C234 C233 1.333 1_545 S
C234 N236 1.350 . S
C234 H260 0.931 . S
N235 Co231 2.148 . S
N235 C232 1.301 . S
N235 C233 1.317 . S
N236 C232 1.328 1_545 S
N236 C234 1.350 . S
H237 C232 0.930 . S
H238 C233 0.930 1_545 S
C239 O240 1.224 . S
C239 O258 1.247 . S
O240 C239 1.224 . S
N241 Co231 2.128 . S
N241 C242 1.355 . S
N241 C244 1.311 . S
C242 N241 1.355 . S
C242 C243 1.363 . S
C242 H254 0.929 . S
C243 C242 1.363 . S
C243 N245 1.375 . S
C243 H261 0.931 . S
C244 N241 1.311 . S
C244 N245 1.347 . S
C244 H255 0.929 . S
N245 C243 1.375 . S
N245 C244 1.347 . S
C246 C249 1.365 . S
C246 N251 1.328 . S
C246 H252 0.929 . S
C247 C248 1.363 . S
C247 C250 1.378 1_545 S
C247 H262 0.929 . S
C248 C247 1.363 . S
C248 C249 1.363 1_545 S
C249 C246 1.365 . S
C249 C248 1.363 1_565 S
C249 H263 0.930 . S
C250 C247 1.378 1_565 S
C250 N251 1.315 . S
C250 H253 0.930 . S
N251 Co231 2.194 . S
N251 C246 1.328 . S
N251 C250 1.315 . S
H252 C246 0.929 . S
H253 C250 0.930 . S
H254 C242 0.929 . S
H255 C244 0.929 . S
O256 Co231 2.351 . S
O256 C259 1.244 . S
O257 Co231 2.155 . S
O257 C259 1.240 . S
O258 Co231 2.096 . S
O258 C239 1.247 . S
C259 O256 1.244 . S
C259 O257 1.240 . S
H260 C234 0.931 . S
H261 C243 0.931 . S
H262 C247 0.929 . S
H263 C249 0.930 . S
Co264 N268 2.148 . S
Co264 N274 2.128 . S
Co264 N284 2.194 . S
Co264 O289 2.351 . S
Co264 O290 2.155 . S
Co264 O291 2.096 . S
C265 N268 1.301 . S
C265 N269 1.328 . S
C265 H270 0.930 . S
C266 C267 1.333 . S
C266 N268 1.317 . S
C266 H271 0.930 . S
C267 C266 1.333 . S
C267 N269 1.350 . S
C267 H293 0.931 . S
N268 Co264 2.148 . S
N268 C265 1.301 . S
N268 C266 1.317 . S
N269 C265 1.328 . S
N269 C267 1.350 . S
H270 C265 0.930 . S
H271 C266 0.930 . S
C272 O273 1.224 . S
C272 O291 1.247 . S
O273 C272 1.224 . S
N274 Co264 2.128 . S
N274 C275 1.355 . S
N274 C277 1.311 . S
C275 N274 1.355 . S
C275 C276 1.363 . S
C275 H287 0.929 . S
C276 C275 1.363 . S
C276 N278 1.375 . S
C276 H294 0.931 . S
C277 N274 1.311 . S
C277 N278 1.347 . S
C277 H288 0.929 . S
N278 C276 1.375 . S
N278 C277 1.347 . S
C279 C282 1.365 . S
C279 N284 1.328 . S
C279 H285 0.929 . S
C280 C281 1.362 . S
C280 C283 1.378 . S
C280 H295 0.929 . S
C281 C280 1.362 . S
C281 C282 1.366 . S
C282 C279 1.365 . S
C282 C281 1.366 . S
C282 H296 0.930 . S
C283 C280 1.378 . S
C283 N284 1.315 . S
C283 H286 0.930 . S
N284 Co264 2.194 . S
N284 C279 1.328 . S
N284 C283 1.315 . S
H285 C279 0.929 . S
H286 C283 0.930 . S
H287 C275 0.929 . S
H288 C277 0.929 . S
O289 Co264 2.351 . S
O289 C292 1.244 . S
O290 Co264 2.155 . S
O290 C292 1.240 . S
O291 Co264 2.096 . S
O291 C272 1.247 . S
C292 O289 1.244 . S
C292 O290 1.240 . S
H293 C267 0.931 . S
H294 C276 0.931 . S
H295 C280 0.929 . S
H296 C282 0.930 . S
Co297 N301 2.148 . S
Co297 N307 2.128 . S
Co297 N317 2.194 . S
Co297 O322 2.351 . S
Co297 O323 2.155 . S
Co297 O324 2.096 . S
C298 N301 1.301 . S
C298 N302 1.328 . S
C298 H303 0.930 . S
C299 C300 1.333 . S
C299 N301 1.317 . S
C299 H304 0.930 . S
C300 C299 1.333 . S
C300 N302 1.350 . S
C300 H326 0.931 . S
N301 Co297 2.148 . S
N301 C298 1.301 . S
N301 C299 1.317 . S
N302 C298 1.328 . S
N302 C300 1.350 . S
H303 C298 0.930 . S
H304 C299 0.930 . S
C305 O306 1.224 . S
C305 O324 1.247 . S
O306 C305 1.224 . S
N307 Co297 2.128 . S
N307 C308 1.355 . S
N307 C310 1.311 . S
C308 N307 1.355 . S
C308 C309 1.363 . S
C308 H320 0.929 . S
C309 C308 1.363 . S
C309 N311 1.375 . S
C309 H327 0.931 . S
C310 N307 1.311 . S
C310 N311 1.347 . S
C310 H321 0.929 . S
N311 C309 1.375 . S
N311 C310 1.347 . S
C312 C315 1.365 . S
C312 N317 1.328 . S
C312 H318 0.929 . S
C313 C314 1.362 . S
C313 C316 1.378 . S
C313 H328 0.929 . S
C314 C313 1.362 . S
C314 C315 1.366 . S
C315 C312 1.365 . S
C315 C314 1.366 . S
C315 H329 0.930 . S
C316 C313 1.378 . S
C316 N317 1.315 . S
C316 H319 0.930 . S
N317 Co297 2.194 . S
N317 C312 1.328 . S
N317 C316 1.315 . S
H318 C312 0.929 . S
H319 C316 0.930 . S
H320 C308 0.929 . S
H321 C310 0.929 . S
O322 Co297 2.351 . S
O322 C325 1.244 . S
O323 Co297 2.155 . S
O323 C325 1.240 . S
O324 Co297 2.096 . S
O324 C305 1.247 . S
C325 O322 1.244 . S
C325 O323 1.240 . S
H326 C300 0.931 . S
H327 C309 0.931 . S
H328 C313 0.929 . S
H329 C315 0.930 . S
Co330 N334 2.148 . S
Co330 N340 2.128 . S
Co330 N350 2.194 . S
Co330 O355 2.351 . S
Co330 O356 2.155 . S
Co330 O357 2.096 . S
C331 N334 1.301 . S
C331 N335 1.328 . S
C331 H336 0.930 . S
C332 C333 1.333 . S
C332 N334 1.317 . S
C332 H337 0.930 . S
C333 C332 1.333 . S
C333 N335 1.350 . S
C333 H359 0.931 . S
N334 Co330 2.148 . S
N334 C331 1.301 . S
N334 C332 1.317 . S
N335 C331 1.328 . S
N335 C333 1.350 . S
H336 C331 0.930 . S
H337 C332 0.930 . S
C338 O339 1.224 . S
C338 O357 1.247 . S
O339 C338 1.224 . S
N340 Co330 2.128 . S
N340 C341 1.355 . S
N340 C343 1.311 . S
C341 N340 1.355 . S
C341 C342 1.363 . S
C341 H353 0.929 . S
C342 C341 1.363 . S
C342 N344 1.375 . S
C342 H360 0.931 . S
C343 N340 1.311 . S
C343 N344 1.347 . S
C343 H354 0.929 . S
N344 C342 1.375 . S
N344 C343 1.347 . S
C345 C348 1.365 . S
C345 N350 1.328 . S
C345 H351 0.929 . S
C346 C347 1.362 . S
C346 C349 1.378 . S
C346 H361 0.929 . S
C347 C346 1.362 . S
C347 C348 1.366 . S
C348 C345 1.365 . S
C348 C347 1.366 . S
C348 H362 0.930 . S
C349 C346 1.378 . S
C349 N350 1.315 . S
C349 H352 0.930 . S
N350 Co330 2.194 . S
N350 C345 1.328 . S
N350 C349 1.315 . S
H351 C345 0.929 . S
H352 C349 0.930 . S
H353 C341 0.929 . S
H354 C343 0.929 . S
O355 Co330 2.351 . S
O355 C358 1.244 . S
O356 Co330 2.155 . S
O356 C358 1.240 . S
O357 Co330 2.096 . S
O357 C338 1.247 . S
C358 O355 1.244 . S
C358 O356 1.240 . S
H359 C333 0.931 . S
H360 C342 0.931 . S
H361 C346 0.929 . S
H362 C348 0.930 . S
Co363 N367 2.148 . S
Co363 N373 2.128 . S
Co363 N383 2.194 . S
Co363 O388 2.351 . S
Co363 O389 2.155 . S
Co363 O390 2.096 . S
C364 N367 1.301 . S
C364 N368 1.328 . S
C364 H369 0.930 . S
C365 C366 1.333 . S
C365 N367 1.317 . S
C365 H370 0.930 . S
C366 C365 1.333 . S
C366 N368 1.350 . S
C366 H392 0.931 . S
N367 Co363 2.148 . S
N367 C364 1.301 . S
N367 C365 1.317 . S
N368 C364 1.328 . S
N368 C366 1.350 . S
H369 C364 0.930 . S
H370 C365 0.930 . S
C371 O372 1.224 . S
C371 O390 1.247 . S
O372 C371 1.224 . S
N373 Co363 2.128 . S
N373 C374 1.355 . S
N373 C376 1.311 . S
C374 N373 1.355 . S
C374 C375 1.363 . S
C374 H386 0.929 . S
C375 C374 1.363 . S
C375 N377 1.375 . S
C375 H393 0.931 . S
C376 N373 1.311 . S
C376 N377 1.347 . S
C376 H387 0.929 . S
N377 C375 1.375 . S
N377 C376 1.347 . S
C378 C381 1.365 . S
C378 N383 1.328 . S
C378 H384 0.929 . S
C379 C380 1.362 . S
C379 C382 1.378 . S
C379 H394 0.929 . S
C380 C379 1.362 . S
C380 C381 1.366 . S
C381 C378 1.365 . S
C381 C380 1.366 . S
C381 H395 0.930 . S
C382 C379 1.378 . S
C382 N383 1.315 . S
C382 H385 0.930 . S
N383 Co363 2.194 . S
N383 C378 1.328 . S
N383 C382 1.315 . S
H384 C378 0.929 . S
H385 C382 0.930 . S
H386 C374 0.929 . S
H387 C376 0.929 . S
O388 Co363 2.351 . S
O388 C391 1.244 . S
O389 Co363 2.155 . S
O389 C391 1.240 . S
O390 Co363 2.096 . S
O390 C371 1.247 . S
C391 O388 1.244 . S
C391 O389 1.240 . S
H392 C366 0.931 . S
H393 C375 0.931 . S
H394 C379 0.929 . S
H395 C381 0.930 . S
Co396 N400 2.148 . S
Co396 N406 2.128 . S
Co396 N416 2.194 1_554 S
Co396 O421 2.351 1_554 S
Co396 O422 2.155 . S
Co396 O423 2.096 . S
C397 N400 1.301 1_556 S
C397 N401 1.328 . S
C397 H402 0.930 . S
C398 C399 1.333 . S
C398 N400 1.317 . S
C398 H403 0.930 . S
C399 C398 1.333 . S
C399 N401 1.350 1_554 S
C399 H425 0.931 . S
N400 Co396 2.148 . S
N400 C397 1.301 1_554 S
N400 C398 1.317 . S
N401 C397 1.328 . S
N401 C399 1.350 1_556 S
H402 C397 0.930 . S
H403 C398 0.930 . S
C404 O405 1.224 . S
C404 O423 1.247 . S
O405 C404 1.224 . S
N406 Co396 2.128 . S
N406 C407 1.355 1_554 S
N406 C409 1.311 . S
C407 N406 1.355 1_556 S
C407 C408 1.363 . S
C407 H419 0.929 . S
C408 C407 1.363 . S
C408 N410 1.375 1_556 S
C408 H426 0.931 . S
C409 N406 1.311 . S
C409 N410 1.347 . S
C409 H420 0.929 . S
N410 C408 1.375 1_554 S
N410 C409 1.347 . S
C411 C414 1.365 . S
C411 N416 1.328 . S
C411 H417 0.929 . S
C412 C413 1.362 . S
C412 C415 1.378 . S
C412 H427 0.929 . S
C413 C412 1.362 . S
C413 C414 1.366 . S
C414 C411 1.365 . S
C414 C413 1.366 . S
C414 H428 0.930 . S
C415 C412 1.378 . S
C415 N416 1.315 . S
C415 H418 0.930 . S
N416 Co396 2.194 1_556 S
N416 C411 1.328 . S
N416 C415 1.315 . S
H417 C411 0.929 . S
H418 C415 0.930 . S
H419 C407 0.929 . S
H420 C409 0.929 . S
O421 Co396 2.351 1_556 S
O421 C424 1.244 . S
O422 Co396 2.155 . S
O422 C424 1.240 1_554 S
O423 Co396 2.096 . S
O423 C404 1.247 . S
C424 O421 1.244 . S
C424 O422 1.240 1_556 S
H425 C399 0.931 . S
H426 C408 0.931 . S
H427 C412 0.929 . S
H428 C414 0.930 . S
Co429 N433 2.148 . S
Co429 N439 2.128 . S
Co429 N449 2.194 1_554 S
Co429 O454 2.351 1_554 S
Co429 O455 2.155 . S
Co429 O456 2.096 . S
C430 N433 1.301 1_556 S
C430 N434 1.328 . S
C430 H435 0.930 . S
C431 C432 1.333 . S
C431 N433 1.317 . S
C431 H436 0.930 . S
C432 C431 1.333 . S
C432 N434 1.350 1_554 S
C432 H458 0.931 . S
N433 Co429 2.148 . S
N433 C430 1.301 1_554 S
N433 C431 1.317 . S
N434 C430 1.328 . S
N434 C432 1.350 1_556 S
H435 C430 0.930 . S
H436 C431 0.930 . S
C437 O438 1.224 . S
C437 O456 1.247 . S
O438 C437 1.224 . S
N439 Co429 2.128 . S
N439 C440 1.355 1_554 S
N439 C442 1.311 . S
C440 N439 1.355 1_556 S
C440 C441 1.363 . S
C440 H452 0.929 . S
C441 C440 1.363 . S
C441 N443 1.375 1_556 S
C441 H459 0.931 . S
C442 N439 1.311 . S
C442 N443 1.347 . S
C442 H453 0.929 . S
N443 C441 1.375 1_554 S
N443 C442 1.347 . S
C444 C447 1.365 . S
C444 N449 1.328 . S
C444 H450 0.929 . S
C445 C446 1.362 . S
C445 C448 1.378 . S
C445 H460 0.929 . S
C446 C445 1.362 . S
C446 C447 1.366 . S
C447 C444 1.365 . S
C447 C446 1.366 . S
C447 H461 0.930 . S
C448 C445 1.378 . S
C448 N449 1.315 . S
C448 H451 0.930 . S
N449 Co429 2.194 1_556 S
N449 C444 1.328 . S
N449 C448 1.315 . S
H450 C444 0.929 . S
H451 C448 0.930 . S
H452 C440 0.929 . S
H453 C442 0.929 . S
O454 Co429 2.351 1_556 S
O454 C457 1.244 . S
O455 Co429 2.155 . S
O455 C457 1.240 1_554 S
O456 Co429 2.096 . S
O456 C437 1.247 . S
C457 O454 1.244 . S
C457 O455 1.240 1_556 S
H458 C432 0.931 . S
H459 C441 0.931 . S
H460 C445 0.929 . S
H461 C447 0.930 . S
Co462 N466 2.148 . S
Co462 N472 2.128 . S
Co462 N482 2.194 . S
Co462 O487 2.351 . S
Co462 O488 2.155 . S
Co462 O489 2.096 . S
C463 N466 1.301 . S
C463 N467 1.328 1_545 S
C463 H468 0.930 . S
C464 C465 1.333 1_545 S
C464 N466 1.317 . S
C464 H469 0.930 1_545 S
C465 C464 1.333 1_565 S
C465 N467 1.350 . S
C465 H491 0.931 . S
N466 Co462 2.148 . S
N466 C463 1.301 . S
N466 C464 1.317 . S
N467 C463 1.328 1_565 S
N467 C465 1.350 . S
H468 C463 0.930 . S
H469 C464 0.930 1_565 S
C470 O471 1.224 . S
C470 O489 1.247 . S
O471 C470 1.224 . S
N472 Co462 2.128 . S
N472 C473 1.355 . S
N472 C475 1.311 . S
C473 N472 1.355 . S
C473 C474 1.363 . S
C473 H485 0.929 . S
C474 C473 1.363 . S
C474 N476 1.375 . S
C474 H492 0.931 . S
C475 N472 1.311 . S
C475 N476 1.347 . S
C475 H486 0.929 . S
N476 C474 1.375 . S
N476 C475 1.347 . S
C477 C480 1.365 1_554 S
C477 N482 1.328 . S
C477 H483 0.929 . S
C478 C479 1.363 1_554 S
C478 C481 1.378 1_565 S
C478 H493 0.929 . S
C479 C478 1.363 1_556 S
C479 C480 1.363 1_565 S
C480 C477 1.365 1_556 S
C480 C479 1.363 1_545 S
C480 H494 0.930 . S
C481 C478 1.378 1_545 S
C481 N482 1.315 . S
C481 H484 0.930 . S
N482 Co462 2.194 . S
N482 C477 1.328 . S
N482 C481 1.315 . S
H483 C477 0.929 . S
H484 C481 0.930 . S
H485 C473 0.929 . S
H486 C475 0.929 . S
O487 Co462 2.351 . S
O487 C490 1.244 . S
O488 Co462 2.155 . S
O488 C490 1.240 . S
O489 Co462 2.096 . S
O489 C470 1.247 . S
C490 O487 1.244 . S
C490 O488 1.240 . S
H491 C465 0.931 . S
H492 C474 0.931 . S
H493 C478 0.929 . S
H494 C480 0.930 . S
Co495 N499 2.148 . S
Co495 N505 2.128 . S
Co495 N515 2.194 . S
Co495 O520 2.351 . S
Co495 O521 2.155 . S
Co495 O522 2.096 . S
C496 N499 1.301 . S
C496 N500 1.328 1_565 S
C496 H501 0.930 . S
C497 C498 1.333 1_565 S
C497 N499 1.317 . S
C497 H502 0.930 1_565 S
C498 C497 1.333 1_545 S
C498 N500 1.350 . S
C498 H524 0.931 . S
N499 Co495 2.148 . S
N499 C496 1.301 . S
N499 C497 1.317 . S
N500 C496 1.328 1_545 S
N500 C498 1.350 . S
H501 C496 0.930 . S
H502 C497 0.930 1_545 S
C503 O504 1.224 . S
C503 O522 1.247 . S
O504 C503 1.224 . S
N505 Co495 2.128 . S
N505 C506 1.355 . S
N505 C508 1.311 . S
C506 N505 1.355 . S
C506 C507 1.363 . S
C506 H518 0.929 . S
C507 C506 1.363 . S
C507 N509 1.375 . S
C507 H525 0.931 . S
C508 N505 1.311 . S
C508 N509 1.347 . S
C508 H519 0.929 . S
N509 C507 1.375 . S
N509 C508 1.347 . S
C510 C513 1.365 1_554 S
C510 N515 1.328 . S
C510 H516 0.929 . S
C511 C512 1.363 1_554 S
C511 C514 1.378 1_545 S
C511 H526 0.929 . S
C512 C511 1.363 1_556 S
C512 C513 1.363 1_545 S
C513 C510 1.365 1_556 S
C513 C512 1.363 1_565 S
C513 H527 0.930 . S
C514 C511 1.378 1_565 S
C514 N515 1.315 . S
C514 H517 0.930 . S
N515 Co495 2.194 . S
N515 C510 1.328 . S
N515 C514 1.315 . S
H516 C510 0.929 . S
H517 C514 0.930 . S
H518 C506 0.929 . S
H519 C508 0.929 . S
O520 Co495 2.351 . S
O520 C523 1.244 . S
O521 Co495 2.155 . S
O521 C523 1.240 . S
O522 Co495 2.096 . S
O522 C503 1.247 . S
C523 O520 1.244 . S
C523 O521 1.240 . S
H524 C498 0.931 . S
H525 C507 0.931 . S
H526 C511 0.929 . S
H527 C513 0.930 . S
C28 N377 2.455 . S
C61 N344 2.455 . S
N47 C94 2.454 . S
N14 C127 2.454 . S
C160 N509 2.454 . S
C193 N476 2.454 . S
N179 C226 2.455 . S
C259 N146 2.455 . S
N113 C292 2.455 . S
N80 C325 2.455 . S
N311 C358 2.454 . S
N278 C391 2.454 . S
C424 N245 2.454 . S
C457 N212 2.454 . S
C490 N443 2.455 . S
N410 C523 2.455 . S
C182 C8 1.376 . S
C149 C41 1.376 . S
C74 C380 1.375 . S
C347 C107 1.375 . S
C50 C140 1.375 . S
C17 C173 1.375 . S
C206 C512 1.379 . S
C239 C479 1.379 . S
C272 C446 1.376 . S
C413 C305 1.376 . S
C116 C338 1.375 . S
C83 C371 1.375 . S
C314 C404 1.375 . S
C281 C437 1.375 . S
C248 C470 1.379 . S
C215 C503 1.379 . S
N434 N5 1.569 . S
N38 N401 1.569 . S
N71 N104 1.569 1_455 S
N302 N137 1.569 . S
N170 N269 1.569 . S
N203 N236 1.569 1_465 S
N368 N335 1.569 . S
N500 N467 1.569 1_545 S
