# Generated by pormake.
# Topology qtz-g, (3)-cn, num edge types: 1
# Building blocks:
#     Node 0, Type 0, BuildingBlock: WUSLED_clean_sbu_0, # of connection points: 3
#     Node 1, Type 0, BuildingBlock: WUSLED_clean_sbu_0, # of connection points: 3
#     Node 2, Type 0, BuildingBlock: WUSLED_clean_sbu_0, # of connection points: 3
#     Node 3, Type 0, BuildingBlock: WUSLED_clean_sbu_0, # of connection points: 3
#     Node 4, Type 0, BuildingBlock: WUSLED_clean_sbu_0, # of connection points: 3
#     Node 5, Type 0, BuildingBlock: WUSLED_clean_sbu_0, # of connection points: 3
#     Node 6, Type 0, BuildingBlock: WUSLED_clean_sbu_0, # of connection points: 3
#     Node 7, Type 0, BuildingBlock: WUSLED_clean_sbu_0, # of connection points: 3
#     Node 8, Type 0, BuildingBlock: WUSLED_clean_sbu_0, # of connection points: 3
#     Node 9, Type 0, BuildingBlock: WUSLED_clean_sbu_0, # of connection points: 3
#     Node 10, Type 0, BuildingBlock: WUSLED_clean_sbu_0, # of connection points: 3
#     Node 11, Type 0, BuildingBlock: WUSLED_clean_sbu_0, # of connection points: 3
#     Edge 12, Type (0, 0), BuildingBlock: KIFKEQ_clean_linker_1, # of connection points: 2
#     Edge 13, Type (0, 0), BuildingBlock: KIFKEQ_clean_linker_1, # of connection points: 2
#     Edge 14, Type (0, 0), BuildingBlock: KIFKEQ_clean_linker_1, # of connection points: 2
#     Edge 15, Type (0, 0), BuildingBlock: KIFKEQ_clean_linker_1, # of connection points: 2
#     Edge 16, Type (0, 0), BuildingBlock: KIFKEQ_clean_linker_1, # of connection points: 2
#     Edge 17, Type (0, 0), BuildingBlock: KIFKEQ_clean_linker_1, # of connection points: 2
#     Edge 18, Type (0, 0), BuildingBlock: KIFKEQ_clean_linker_1, # of connection points: 2
#     Edge 19, Type (0, 0), BuildingBlock: KIFKEQ_clean_linker_1, # of connection points: 2
#     Edge 20, Type (0, 0), BuildingBlock: KIFKEQ_clean_linker_1, # of connection points: 2
#     Edge 21, Type (0, 0), BuildingBlock: KIFKEQ_clean_linker_1, # of connection points: 2
#     Edge 22, Type (0, 0), BuildingBlock: KIFKEQ_clean_linker_1, # of connection points: 2
#     Edge 23, Type (0, 0), BuildingBlock: KIFKEQ_clean_linker_1, # of connection points: 2
#     Edge 24, Type (0, 0), BuildingBlock: KIFKEQ_clean_linker_1, # of connection points: 2
#     Edge 25, Type (0, 0), BuildingBlock: KIFKEQ_clean_linker_1, # of connection points: 2
#     Edge 26, Type (0, 0), BuildingBlock: KIFKEQ_clean_linker_1, # of connection points: 2
#     Edge 27, Type (0, 0), BuildingBlock: KIFKEQ_clean_linker_1, # of connection points: 2
#     Edge 28, Type (0, 0), BuildingBlock: KIFKEQ_clean_linker_1, # of connection points: 2
#     Edge 29, Type (0, 0), BuildingBlock: KIFKEQ_clean_linker_1, # of connection points: 2
# Relax obj value: 0.110
# Max RMSD: 0.087
# Mean RMSD: 0.086
data_MOF--net-qtz-g--node1-WUSLED_clean_sbu_0--edge1-KIFKEQ_clean_linker_1
_symmetry_space_group_name_H-M    P1
_symmetry_Int_Tables_number       1
_symmetry_cell_setting            triclinic
loop_
_symmetry_equiv_pos_as_xyz
'x, y, z'
_cell_length_a     67.841374
_cell_length_b     68.640686
_cell_length_c     107.45874
_cell_angle_alpha  90.209903
_cell_angle_beta   90.001041
_cell_angle_gamma 119.60537
loop_
_atom_site_label
_atom_site_type_symbol
_atom_site_fract_x
_atom_site_fract_y
_atom_site_fract_z
_atom_type_partial_charge
C0 C 0.05087 0.33134 0.10218 0.0
C1 C 0.03868 0.34074 0.10763 0.0
C2 C 0.03409 0.31977 0.12666 0.0
C3 C 0.03039 0.33503 0.11974 0.0
C4 C 0.046 0.31008 0.12107 0.0
C5 C 0.05438 0.31588 0.10893 0.0
U6 U 0.05708 0.36587 0.07402 0.0
O7 O 0.08634 0.38755 0.06233 0.0
O8 O 0.05628 0.35928 0.0539 0.0
C9 C 0.07717 0.37561 0.05222 0.0
C10 C 0.0602 0.33818 0.08958 0.0
C11 C 0.09197 0.37006 0.04483 0.0
C12 C 0.11554 0.35273 0.04259 0.0
C13 C 0.1006 0.35683 0.04967 0.0
C14 C 0.113 0.37478 0.02575 0.0
C15 C 0.12204 0.36179 0.03056 0.0
C16 C 0.09813 0.37885 0.03282 0.0
C17 C 0.02715 0.40099 0.07649 0.0
C18 C 0.03011 0.42841 0.06127 0.0
C19 C 0.00779 0.42222 0.07995 0.0
C20 C 0.01317 0.40602 0.08379 0.0
C21 C 0.01627 0.43373 0.06867 0.0
C22 C 0.03551 0.41213 0.06515 0.0
C23 C 0.03336 0.38469 0.08117 0.0
O24 O 0.04502 0.33147 0.08062 0.0
O25 O 0.07581 0.35937 0.08861 0.0
O26 O 0.05489 0.3928 0.08391 0.0
O27 O 0.02445 0.36538 0.07526 0.0
H28 H 0.03572 0.35265 0.10253 0.0
H29 H 0.02099 0.34253 0.12368 0.0
H30 H 0.04927 0.2984 0.12619 0.0
H31 H 0.06379 0.30849 0.10486 0.0
H32 H 0.12199 0.34247 0.04652 0.0
H33 H 0.09598 0.34989 0.05894 0.0
H34 H 0.1179 0.38235 0.01664 0.0
H35 H 0.0917 0.3892 0.02898 0.0
H36 H 0.03678 0.43684 0.0525 0.0
H37 H 0.99748 0.42617 0.08601 0.0
H38 H 0.00671 0.39765 0.09261 0.0
H39 H 0.04636 0.4084 0.0594 0.0
C40 C 0.72166 0.05102 0.43441 0.0
C41 C 0.70002 0.03903 0.43973 0.0
C42 C 0.71634 0.03411 0.45883 0.0
C43 C 0.69739 0.03068 0.45181 0.0
C44 C 0.738 0.04584 0.45339 0.0
C45 C 0.74064 0.05429 0.44127 0.0
U46 U 0.69316 0.05627 0.40583 0.0
O47 O 0.69947 0.08488 0.39408 0.0
O48 O 0.69973 0.05571 0.38577 0.0
C49 C 0.70297 0.07603 0.38403 0.0
C50 C 0.72416 0.06027 0.42181 0.0
C51 C 0.72268 0.09115 0.37644 0.0
C52 C 0.76207 0.1203 0.37432 0.0
C53 C 0.74421 0.10469 0.38169 0.0
C54 C 0.73717 0.10843 0.35636 0.0
C55 C 0.75861 0.12263 0.36161 0.0
C56 C 0.71942 0.09288 0.36371 0.0
C57 C 0.6278 0.02478 0.40753 0.0
C58 C 0.60123 0.03282 0.39663 0.0
C59 C 0.58757 0.99769 0.40757 0.0
C60 C 0.60976 0.00395 0.41106 0.0
C61 C 0.58298 0.0122 0.4005 0.0
C62 C 0.62348 0.03904 0.40008 0.0
C63 C 0.65058 0.0317 0.41244 0.0
O64 O 0.71665 0.04531 0.41279 0.0
O65 O 0.7176 0.07527 0.42066 0.0
O66 O 0.66308 0.05299 0.41537 0.0
O67 O 0.66197 0.02339 0.40677 0.0
H68 H 0.68515 0.03623 0.43453 0.0
H69 H 0.68045 0.02142 0.45563 0.0
H70 H 0.75295 0.04889 0.45859 0.0
H71 H 0.75746 0.06352 0.43731 0.0
H72 H 0.77834 0.13107 0.37866 0.0
H73 H 0.74703 0.10358 0.39152 0.0
H74 H 0.73403 0.10951 0.34657 0.0
H75 H 0.70293 0.0825 0.35949 0.0
H76 H 0.59827 0.04426 0.39107 0.0
H77 H 0.57393 0.98184 0.41086 0.0
H78 H 0.61275 0.99276 0.41683 0.0
H79 H 0.63722 0.05517 0.3972 0.0
C80 C 0.66803 0.71878 0.76846 0.0
C81 C 0.67099 0.70042 0.77125 0.0
C82 C 0.68102 0.71346 0.79266 0.0
C83 C 0.67755 0.69787 0.78318 0.0
C84 C 0.67835 0.73203 0.78977 0.0
C85 C 0.67191 0.73465 0.77777 0.0
U86 U 0.63285 0.68977 0.7402 0.0
O87 O 0.60843 0.69523 0.72938 0.0
O88 O 0.63815 0.69694 0.72017 0.0
C89 C 0.62035 0.69967 0.7191 0.0
C90 C 0.65941 0.72056 0.75617 0.0
C91 C 0.62371 0.71958 0.7122 0.0
C92 C 0.64582 0.75912 0.70699 0.0
C93 C 0.64304 0.74066 0.71392 0.0
C94 C 0.60989 0.73561 0.6967 0.0
C95 C 0.62923 0.7568 0.69831 0.0
C96 C 0.60719 0.71722 0.70357 0.0
C97 C 0.603 0.62535 0.74096 0.0
C98 C 0.57399 0.60059 0.72633 0.0
C99 C 0.58711 0.58509 0.74245 0.0
C100 C 0.60207 0.60669 0.74675 0.0
C101 C 0.57276 0.58174 0.73225 0.0
C102 C 0.58903 0.62225 0.73065 0.0
C103 C 0.618 0.64772 0.74616 0.0
O104 O 0.66712 0.7143 0.74661 0.0
O105 O 0.63742 0.71277 0.75568 0.0
O106 O 0.60799 0.65905 0.74964 0.0
O107 O 0.63714 0.65999 0.74022 0.0
H108 H 0.66789 0.68783 0.76424 0.0
H109 H 0.6798 0.68357 0.78498 0.0
H110 H 0.68056 0.74421 0.79685 0.0
H111 H 0.66948 0.7488 0.77584 0.0
H112 H 0.6608 0.77525 0.70853 0.0
H113 H 0.65596 0.74284 0.72059 0.0
H114 H 0.59695 0.73314 0.68998 0.0
H115 H 0.5922 0.70106 0.70208 0.0
H116 H 0.56334 0.5986 0.71838 0.0
H117 H 0.58636 0.571 0.74736 0.0
H118 H 0.61266 0.6088 0.75476 0.0
H119 H 0.58959 0.63654 0.72606 0.0
C120 C 0.94734 0.66025 0.10289 0.0
C121 C 0.95069 0.6448 0.10981 0.0
C122 C 0.96109 0.66902 0.12804 0.0
C123 C 0.95735 0.64907 0.12226 0.0
C124 C 0.95827 0.68475 0.12103 0.0
C125 C 0.95133 0.68033 0.10855 0.0
U126 U 0.94563 0.63002 0.0735 0.0
O127 O 0.91795 0.60914 0.06057 0.0
O128 O 0.94846 0.63882 0.05366 0.0
C129 C 0.92799 0.62234 0.05106 0.0
C130 C 0.94008 0.65539 0.08978 0.0
C131 C 0.91345 0.62784 0.04337 0.0
C132 C 0.89858 0.65231 0.03747 0.0
C133 C 0.91271 0.64777 0.04501 0.0
C134 C 0.88573 0.61696 0.02673 0.0
C135 C 0.88495 0.63695 0.02821 0.0
C136 C 0.89986 0.61252 0.03421 0.0
C137 C 0.97586 0.59514 0.07597 0.0
C138 C 0.97358 0.56793 0.06068 0.0
C139 C 0.99614 0.5748 0.07936 0.0
C140 C 0.99026 0.59067 0.08324 0.0
C141 C 0.98773 0.56306 0.06808 0.0
C142 C 0.96769 0.58388 0.06459 0.0
C143 C 0.96886 0.61082 0.08079 0.0
O144 O 0.95658 0.66344 0.08157 0.0
O145 O 0.92459 0.6345 0.08749 0.0
O146 O 0.94703 0.60227 0.08278 0.0
O147 O 0.97825 0.63067 0.07556 0.0
H148 H 0.9481 0.62935 0.10558 0.0
H149 H 0.95976 0.63682 0.12736 0.0
H150 H 0.96102 0.70024 0.12526 0.0
H151 H 0.94901 0.69253 0.10333 0.0
H152 H 0.89852 0.66791 0.03882 0.0
H153 H 0.92303 0.6598 0.05208 0.0
H154 H 0.87514 0.60451 0.01991 0.0
H155 H 0.90008 0.59697 0.03287 0.0
H156 H 0.96697 0.55933 0.0519 0.0
H157 H 0.00668 0.57121 0.08542 0.0
H158 H 0.9966 0.59914 0.09208 0.0
H159 H 0.95653 0.58719 0.05887 0.0
C160 C 0.28338 0.95047 0.43565 0.0
C161 C 0.30265 0.97115 0.43838 0.0
C162 C 0.28969 0.96963 0.45969 0.0
C163 C 0.30568 0.98069 0.45022 0.0
C164 C 0.2702 0.94907 0.45686 0.0
C165 C 0.26709 0.93961 0.44495 0.0
U166 U 0.31137 0.93806 0.40897 0.0
O167 O 0.30221 0.90728 0.3984 0.0
O168 O 0.30688 0.93734 0.38863 0.0
C169 C 0.30091 0.91602 0.38777 0.0
C170 C 0.28107 0.93946 0.42349 0.0
C171 C 0.28103 0.902 0.37992 0.0
C172 C 0.24115 0.8744 0.37729 0.0
C173 C 0.25929 0.88882 0.38497 0.0
C174 C 0.26618 0.88674 0.35944 0.0
C175 C 0.24449 0.87294 0.36445 0.0
C176 C 0.28424 0.90107 0.36711 0.0
C177 C 0.37601 0.96277 0.41225 0.0
C178 C 0.40528 0.97305 0.39652 0.0
C179 C 0.41156 0.96425 0.41745 0.0
C180 C 0.3901 0.96037 0.42091 0.0
C181 C 0.41946 0.97073 0.40523 0.0
C182 C 0.38367 0.96899 0.39998 0.0
C183 C 0.35376 0.95915 0.41645 0.0
O184 O 0.29022 0.95296 0.41396 0.0
O185 O 0.28547 0.92284 0.42362 0.0
O186 O 0.33916 0.93859 0.41981 0.0
O187 O 0.34453 0.96883 0.40999 0.0
H188 H 0.31561 0.9798 0.43141 0.0
H189 H 0.32069 0.9967 0.45196 0.0
H190 H 0.25766 0.93992 0.46394 0.0
H191 H 0.25222 0.92353 0.44308 0.0
H192 H 0.22469 0.86394 0.38145 0.0
H193 H 0.25646 0.88934 0.39486 0.0
H194 H 0.26927 0.88638 0.34958 0.0
H195 H 0.30086 0.91119 0.36304 0.0
H196 H 0.41085 0.97786 0.38702 0.0
H197 H 0.42218 0.96265 0.42443 0.0
H198 H 0.38456 0.95569 0.43044 0.0
H199 H 0.37306 0.97085 0.3931 0.0
C200 C 0.42595 0.37265 0.71854 0.0
C201 C 0.42834 0.38554 0.72918 0.0
C202 C 0.45664 0.41918 0.71865 0.0
C203 C 0.44357 0.40856 0.72925 0.0
C204 C 0.45402 0.40615 0.70797 0.0
C205 C 0.43879 0.38307 0.70793 0.0
U206 U 0.37879 0.32215 0.73438 0.0
O207 O 0.3481 0.29316 0.72675 0.0
O208 O 0.37304 0.28804 0.73713 0.0
C209 C 0.35477 0.27892 0.73009 0.0
C210 C 0.41003 0.34841 0.71854 0.0
C211 C 0.35443 0.26385 0.72019 0.0
C212 C 0.37346 0.25474 0.70389 0.0
C213 C 0.37378 0.26954 0.71298 0.0
C214 C 0.33425 0.22866 0.70884 0.0
C215 C 0.35373 0.23402 0.70175 0.0
C216 C 0.33464 0.24343 0.71798 0.0
C217 C 0.35919 0.33506 0.76584 0.0
C218 C 0.34031 0.31076 0.78347 0.0
C219 C 0.344 0.34768 0.78252 0.0
C220 C 0.35512 0.35142 0.77112 0.0
C221 C 0.33666 0.32741 0.78893 0.0
C222 C 0.35146 0.31454 0.772 0.0
C223 C 0.37283 0.34067 0.7544 0.0
O224 O 0.41364 0.33714 0.72726 0.0
O225 O 0.38856 0.34272 0.71742 0.0
O226 O 0.3621 0.33863 0.74388 0.0
O227 O 0.38771 0.33371 0.75371 0.0
H228 H 0.41852 0.37774 0.73747 0.0
H229 H 0.44538 0.41795 0.7377 0.0
H230 H 0.4636 0.41382 0.6996 0.0
H231 H 0.43704 0.37336 0.69961 0.0
H232 H 0.38887 0.25935 0.69875 0.0
H233 H 0.38923 0.2853 0.7145 0.0
H234 H 0.31865 0.21306 0.70732 0.0
H235 H 0.31948 0.23883 0.72338 0.0
H236 H 0.33468 0.29489 0.78809 0.0
H237 H 0.34188 0.36104 0.78651 0.0
H238 H 0.3611 0.36742 0.76655 0.0
H239 H 0.35441 0.30166 0.76806 0.0
C240 C 0.67265 0.95271 0.5702 0.0
C241 C 0.66349 0.96531 0.56511 0.0
C242 C 0.68576 0.97161 0.54626 0.0
C243 C 0.66994 0.97463 0.55327 0.0
C244 C 0.69487 0.95889 0.5514 0.0
C245 C 0.68836 0.94954 0.56329 0.0
U246 U 0.63851 0.94651 0.5988 0.0
O247 O 0.61661 0.9177 0.61054 0.0
O248 O 0.64585 0.94709 0.61884 0.0
C249 C 0.62915 0.92655 0.62053 0.0
C250 C 0.66568 0.94305 0.58271 0.0
C251 C 0.6343 0.9117 0.62811 0.0
C252 C 0.63617 0.87746 0.63087 0.0
C253 C 0.63374 0.8925 0.62309 0.0
C254 C 0.64066 0.90108 0.64865 0.0
C255 C 0.63919 0.88135 0.64379 0.0
C256 C 0.63818 0.91604 0.64089 0.0
C257 C 0.60441 0.97786 0.59748 0.0
C258 C 0.56985 0.96973 0.60847 0.0
C259 C 0.59141 0.00506 0.59772 0.0
C260 C 0.60726 0.99878 0.59411 0.0
C261 C 0.5723 0.99046 0.60476 0.0
C262 C 0.58582 0.96349 0.60489 0.0
C263 C 0.62024 0.97099 0.59246 0.0
O264 O 0.67299 0.95775 0.59185 0.0
O265 O 0.64411 0.92799 0.58374 0.0
O266 O 0.61147 0.94971 0.58947 0.0
O267 O 0.64001 0.97931 0.59804 0.0
H268 H 0.65126 0.96788 0.57031 0.0
H269 H 0.66227 0.98396 0.54954 0.0
H270 H 0.70723 0.95641 0.54631 0.0
H271 H 0.69564 0.9399 0.5671 0.0
H272 H 0.6348 0.86237 0.62682 0.0
H273 H 0.6308 0.88877 0.61324 0.0
H274 H 0.64339 0.90484 0.6585 0.0
H275 H 0.63872 0.93077 0.64496 0.0
H276 H 0.55544 0.95822 0.614 0.0
H277 H 0.59368 0.021 0.59455 0.0
H278 H 0.62146 0.01005 0.58837 0.0
H279 H 0.58337 0.94728 0.60766 0.0
C280 C 0.72119 0.67429 0.90512 0.0
C281 C 0.70128 0.67486 0.90227 0.0
C282 C 0.71421 0.68608 0.88098 0.0
C283 C 0.69791 0.68085 0.89038 0.0
C284 C 0.73434 0.68589 0.88395 0.0
C285 C 0.73778 0.68005 0.89591 0.0
U286 U 0.6939 0.63473 0.93178 0.0
O287 O 0.70358 0.6132 0.94218 0.0
O288 O 0.6985 0.63841 0.95209 0.0
C289 C 0.7047 0.62308 0.95287 0.0
C290 C 0.72382 0.66594 0.91729 0.0
C291 C 0.72478 0.62879 0.96054 0.0
C292 C 0.76487 0.65196 0.96534 0.0
C293 C 0.74605 0.64729 0.95789 0.0
C294 C 0.74121 0.61971 0.9781 0.0
C295 C 0.76266 0.63818 0.97555 0.0
C296 C 0.7225 0.61511 0.97069 0.0
C297 C 0.62951 0.59514 0.92837 0.0
C298 C 0.60072 0.57556 0.94416 0.0
C299 C 0.5943 0.56166 0.92294 0.0
C300 C 0.61548 0.57925 0.91954 0.0
C301 C 0.58662 0.55963 0.93528 0.0
C302 C 0.62206 0.59313 0.94075 0.0
C303 C 0.65154 0.61366 0.92426 0.0
O304 O 0.71444 0.67033 0.92682 0.0
O305 O 0.7199 0.64517 0.91717 0.0
O306 O 0.66652 0.60787 0.92082 0.0
O307 O 0.66034 0.63227 0.93086 0.0
H308 H 0.68809 0.67027 0.90918 0.0
H309 H 0.68239 0.68118 0.88852 0.0
H310 H 0.74715 0.68954 0.87693 0.0
H311 H 0.75314 0.67946 0.89788 0.0
H312 H 0.78109 0.66641 0.96316 0.0
H313 H 0.74809 0.65803 0.95006 0.0
H314 H 0.73891 0.60846 0.9857 0.0
H315 H 0.70621 0.60069 0.97283 0.0
H316 H 0.5953 0.57433 0.95374 0.0
H317 H 0.58372 0.54988 0.91584 0.0
H318 H 0.62087 0.58054 0.90993 0.0
H319 H 0.63265 0.60514 0.94776 0.0
C320 C 0.05015 0.62945 0.2876 0.0
C321 C 0.0364 0.6167 0.27765 0.0
C322 C 0.03243 0.58263 0.28693 0.0
C323 C 0.02762 0.59353 0.27731 0.0
C324 C 0.04614 0.59551 0.29694 0.0
C325 C 0.05492 0.61876 0.29726 0.0
U326 U 0.05672 0.6812 0.27182 0.0
O327 O 0.05669 0.71111 0.27923 0.0
O328 O 0.08645 0.7146 0.26922 0.0
C329 C 0.07792 0.72454 0.27606 0.0
C330 C 0.05978 0.65389 0.28771 0.0
C331 C 0.09279 0.73892 0.28609 0.0
C332 C 0.11156 0.74332 0.306 0.0
C333 C 0.09676 0.72951 0.29671 0.0
C334 C 0.11843 0.7761 0.29422 0.0
C335 C 0.12272 0.7668 0.30484 0.0
C336 C 0.10361 0.76227 0.28494 0.0
C337 C 0.02466 0.66957 0.24022 0.0
C338 C 0.03135 0.69382 0.2224 0.0
C339 C 0.99687 0.65792 0.22359 0.0
C340 C 0.00382 0.65389 0.23504 0.0
C341 C 0.01063 0.67782 0.21703 0.0
C342 C 0.03832 0.68974 0.23393 0.0
C343 C 0.03213 0.66353 0.25172 0.0
O344 O 0.07497 0.66458 0.27904 0.0
O345 O 0.04488 0.66076 0.28878 0.0
O346 O 0.02369 0.66613 0.2622 0.0
O347 O 0.05374 0.66951 0.25249 0.0
H348 H 0.03264 0.62474 0.27007 0.0
H349 H 0.01746 0.58422 0.26937 0.0
H350 H 0.04999 0.58762 0.30454 0.0
H351 H 0.0655 0.62838 0.30502 0.0
H352 H 0.11423 0.73558 0.31412 0.0
H353 H 0.08852 0.71148 0.29775 0.0
H354 H 0.12695 0.79408 0.29293 0.0
H355 H 0.1008 0.76981 0.27677 0.0
H356 H 0.04226 0.7094 0.21766 0.0
H357 H 0.98102 0.64504 0.21967 0.0
H358 H 0.99313 0.63816 0.23972 0.0
H359 H 0.05449 0.70211 0.23779 0.0
C360 C 0.33388 0.05207 0.57154 0.0
C361 C 0.3323 0.03129 0.56889 0.0
C362 C 0.32096 0.03273 0.54754 0.0
C363 C 0.32575 0.02166 0.55707 0.0
C364 C 0.32217 0.05338 0.55031 0.0
C365 C 0.32856 0.06293 0.5622 0.0
U366 U 0.37486 0.06508 0.59799 0.0
O367 O 0.39639 0.0961 0.60844 0.0
O368 O 0.37155 0.06594 0.61833 0.0
C369 C 0.38674 0.08732 0.61914 0.0
C370 C 0.34273 0.06323 0.58366 0.0
C371 C 0.38065 0.10113 0.62697 0.0
C372 C 0.35892 0.11996 0.63103 0.0
C373 C 0.36411 0.10659 0.62332 0.0
C374 C 0.38673 0.12243 0.64604 0.0
C375 C 0.37015 0.128 0.64252 0.0
C376 C 0.39188 0.10912 0.63835 0.0
C377 C 0.41509 0.04073 0.59444 0.0
C378 C 0.43423 0.0302 0.60997 0.0
C379 C 0.44918 0.03944 0.58903 0.0
C380 C 0.43155 0.04335 0.58571 0.0
C381 C 0.45067 0.0327 0.60117 0.0
C382 C 0.41662 0.03428 0.60665 0.0
C383 C 0.39631 0.04422 0.59037 0.0
O384 O 0.33868 0.04985 0.59322 0.0
O385 O 0.36367 0.07998 0.58341 0.0
O386 O 0.40207 0.06474 0.58701 0.0
O387 O 0.37752 0.03446 0.59693 0.0
H388 H 0.33652 0.02263 0.5759 0.0
H389 H 0.32464 0.00559 0.55538 0.0
H390 H 0.31889 0.06254 0.54318 0.0
H391 H 0.3299 0.07908 0.564 0.0
H392 H 0.34596 0.12379 0.62808 0.0
H393 H 0.35527 0.10051 0.61454 0.0
H394 H 0.39601 0.12863 0.65469 0.0
H395 H 0.40477 0.10515 0.64128 0.0
H396 H 0.43503 0.02519 0.61941 0.0
H397 H 0.46136 0.04118 0.58198 0.0
H398 H 0.43063 0.04819 0.57623 0.0
H399 H 0.40417 0.03224 0.61359 0.0
C400 C 0.28772 0.3425 0.90295 0.0
C401 C 0.30693 0.35813 0.89638 0.0
C402 C 0.29372 0.33489 0.87775 0.0
C403 C 0.30983 0.35443 0.8839 0.0
C404 C 0.2747 0.319 0.88441 0.0
C405 C 0.27169 0.32284 0.89692 0.0
U406 U 0.31495 0.37103 0.933 0.0
O407 O 0.30724 0.39044 0.94645 0.0
O408 O 0.30813 0.3604 0.95262 0.0
C409 C 0.30376 0.37647 0.95562 0.0
C410 C 0.28484 0.34662 0.91612 0.0
C411 C 0.28328 0.36994 0.96312 0.0
C412 C 0.24411 0.36142 0.96514 0.0
C413 C 0.26263 0.36537 0.95765 0.0
C414 C 0.26647 0.36573 0.98358 0.0
C415 C 0.24597 0.36198 0.97821 0.0
C416 C 0.28493 0.3697 0.97611 0.0
C417 C 0.38028 0.40641 0.93167 0.0
C418 C 0.406 0.43981 0.94339 0.0
C419 C 0.42072 0.41961 0.93164 0.0
C420 C 0.39876 0.40406 0.92788 0.0
C421 C 0.42467 0.43791 0.93925 0.0
C422 C 0.38396 0.42414 0.93966 0.0
C423 C 0.35776 0.39109 0.92642 0.0
O424 O 0.29306 0.33814 0.9242 0.0
O425 O 0.29005 0.36734 0.91878 0.0
O426 O 0.3444 0.39958 0.92449 0.0
O427 O 0.34715 0.37073 0.93103 0.0
H428 H 0.31973 0.37326 0.90091 0.0
H429 H 0.32483 0.36679 0.87909 0.0
H430 H 0.262 0.30382 0.8799 0.0
H431 H 0.25686 0.31051 0.90186 0.0
H432 H 0.22864 0.35874 0.9607 0.0
H433 H 0.26101 0.36546 0.94763 0.0
H434 H 0.26837 0.36587 0.9936 0.0
H435 H 0.30071 0.37311 0.98049 0.0
H436 H 0.40847 0.45359 0.94936 0.0
H437 H 0.43471 0.4178 0.92814 0.0
H438 H 0.39626 0.39053 0.92168 0.0
H439 H 0.3699 0.42619 0.94277 0.0
C440 C 0.9534 0.28421 0.23836 0.0
C441 C 0.96612 0.30553 0.23308 0.0
C442 C 0.97257 0.28916 0.21445 0.0
C443 C 0.97558 0.30799 0.22126 0.0
C444 C 0.95975 0.26776 0.21979 0.0
C445 C 0.95026 0.26532 0.23167 0.0
U446 U 0.94511 0.31295 0.26582 0.0
O447 O 0.91535 0.30579 0.27716 0.0
O448 O 0.94562 0.3082 0.28606 0.0
C449 C 0.92456 0.30378 0.28749 0.0
C450 C 0.94337 0.28199 0.25078 0.0
C451 C 0.90995 0.28433 0.29525 0.0
C452 C 0.88555 0.24424 0.29818 0.0
C453 C 0.90062 0.26228 0.29077 0.0
C454 C 0.88948 0.27016 0.31463 0.0
C455 C 0.87954 0.24803 0.31013 0.0
C456 C 0.90451 0.28809 0.30726 0.0
C457 C 0.97357 0.3771 0.26262 0.0
C458 C 0.97419 0.40253 0.27861 0.0
C459 C 0.98822 0.4164 0.25792 0.0
C460 C 0.98321 0.39493 0.25422 0.0
C461 C 0.98367 0.42046 0.27014 0.0
C462 C 0.96908 0.38095 0.27486 0.0
C463 C 0.96806 0.35467 0.25826 0.0
O464 O 0.95812 0.29067 0.25992 0.0
O465 O 0.92733 0.28742 0.25133 0.0
O466 O 0.94668 0.34121 0.25543 0.0
O467 O 0.97727 0.34474 0.2645 0.0
H468 H 0.96861 0.32031 0.2381 0.0
H469 H 0.98497 0.32467 0.21738 0.0
H470 H 0.95726 0.25294 0.21484 0.0
H471 H 0.94049 0.24873 0.23561 0.0
H472 H 0.87808 0.22742 0.29441 0.0
H473 H 0.90464 0.25909 0.2815 0.0
H474 H 0.88552 0.27364 0.32386 0.0
H475 H 0.91163 0.305 0.31088 0.0
H476 H 0.97036 0.40511 0.28806 0.0
H477 H 0.99584 0.42989 0.25124 0.0
H478 H 0.98682 0.39223 0.24474 0.0
H479 H 0.96153 0.36729 0.28145 0.0
H480 H 0.95893 0.522 0.05777 0.0
H481 H 0.0279 0.56304 0.07056 0.0
H482 H 0.96584 0.49071 0.05463 0.0
H483 H 0.03444 0.5315 0.06809 0.0
H484 H 0.04529 0.47452 0.05831 0.0
H485 H 0.03852 0.50582 0.05485 0.0
H486 H 0.96991 0.46567 0.06823 0.0
H487 H 0.9763 0.43413 0.07102 0.0
C488 C 0.97567 0.52448 0.05973 0.0
C489 C 0.99277 0.54497 0.06458 0.0
C490 C 0.97956 0.50643 0.05807 0.0
C491 C 1.0006 0.50842 0.06127 0.0
C492 C 0.01806 0.52931 0.06544 0.0
C493 C 0.01421 0.54736 0.06703 0.0
C494 C 0.02858 0.47219 0.0602 0.0
C495 C 0.01143 0.45188 0.0651 0.0
C496 C 0.02478 0.49024 0.05836 0.0
C497 C 0.00376 0.48842 0.06141 0.0
C498 C 0.98626 0.46771 0.06568 0.0
C499 C 0.99003 0.44967 0.06746 0.0
H500 H 0.56447 0.03961 0.40213 0.0
H501 H 0.54743 0.97155 0.39347 0.0
H502 H 0.52455 0.02897 0.40091 0.0
H503 H 0.50742 0.96089 0.39222 0.0
H504 H 0.4401 0.94649 0.41119 0.0
H505 H 0.47944 0.95649 0.40773 0.0
H506 H 0.49069 0.01575 0.3879 0.0
H507 H 0.45133 0.00602 0.3917 0.0
C508 C 0.55227 0.02249 0.39967 0.0
C509 C 0.55912 0.00638 0.39802 0.0
C510 C 0.52934 0.01638 0.39896 0.0
C511 C 0.51275 0.99402 0.39659 0.0
C512 C 0.51973 0.97816 0.3943 0.0
C513 C 0.54265 0.98427 0.39501 0.0
C514 C 0.45094 0.9616 0.40604 0.0
C515 C 0.44267 0.97557 0.40183 0.0
C516 C 0.47344 0.96722 0.40393 0.0
C517 C 0.48825 0.98697 0.39756 0.0
C518 C 0.47977 1.00054 0.39294 0.0
C519 C 0.45718 0.99486 0.39502 0.0
H520 H 0.45145 0.45276 0.72922 0.0
H521 H 0.49938 0.44106 0.70866 0.0
H522 H 0.47956 0.49228 0.73111 0.0
H523 H 0.52715 0.48084 0.71002 0.0
H524 H 0.57908 0.54541 0.7303 0.0
H525 H 0.55079 0.50674 0.7258 0.0
H526 H 0.50045 0.52698 0.72002 0.0
H527 H 0.52857 0.56557 0.72508 0.0
C528 C 0.46795 0.45864 0.72503 0.0
C529 C 0.4732 0.44365 0.71889 0.0
C530 C 0.48398 0.48139 0.72596 0.0
C531 C 0.50568 0.48978 0.72074 0.0
C532 C 0.51072 0.47491 0.71429 0.0
C533 C 0.49468 0.45212 0.71338 0.0
C534 C 0.56197 0.54162 0.72808 0.0
C535 C 0.55606 0.55858 0.72818 0.0
C536 C 0.54579 0.51946 0.72535 0.0
C537 C 0.52328 0.51368 0.7226 0.0
C538 C 0.51755 0.53078 0.72226 0.0
C539 C 0.53375 0.55296 0.72502 0.0
H540 H 0.52636 0.96325 0.60316 0.0
H541 H 0.57761 0.03107 0.61209 0.0
H542 H 0.4972 0.97404 0.60464 0.0
H543 H 0.5484 0.04188 0.61359 0.0
H544 H 0.49552 0.05691 0.59512 0.0
H545 H 0.52477 0.04669 0.59828 0.0
H546 H 0.47677 0.98715 0.61791 0.0
H547 H 0.44723 0.99711 0.6144 0.0
C548 C 0.53135 0.98034 0.60574 0.0
C549 C 0.55435 0.99635 0.60739 0.0
C550 C 0.51462 0.98654 0.60659 0.0
C551 C 0.52049 0.00888 0.60912 0.0
C552 C 0.54336 0.02463 0.6114 0.0
C553 C 0.56009 0.01844 0.61054 0.0
C554 C 0.49123 0.04168 0.60016 0.0
C555 C 0.46901 0.02771 0.6044 0.0
C556 C 0.50807 0.03594 0.6021 0.0
C557 C 0.50311 0.01605 0.60832 0.0
C558 C 0.48108 0.00246 0.61297 0.0
C559 C 0.46422 0.00827 0.61107 0.0
H560 H 0.44193 0.48329 0.93875 0.0
H561 H 0.46095 0.43283 0.94571 0.0
H562 H 0.48154 0.51238 0.94024 0.0
H563 H 0.50065 0.46198 0.94723 0.0
H564 H 0.56708 0.5156 0.92852 0.0
H565 H 0.52814 0.4862 0.93191 0.0
H566 H 0.51542 0.53232 0.95325 0.0
H567 H 0.55438 0.56202 0.94953 0.0
C568 C 0.4545 0.47844 0.94091 0.0
C569 C 0.4483 0.45571 0.94199 0.0
C570 C 0.47724 0.49514 0.94177 0.0
C571 C 0.4943 0.4895 0.94373 0.0
C572 C 0.48796 0.46685 0.94548 0.0
C573 C 0.46522 0.45016 0.94461 0.0
C574 C 0.556 0.51944 0.93399 0.0
C575 C 0.56373 0.54118 0.93864 0.0
C576 C 0.53374 0.50251 0.93606 0.0
C577 C 0.51862 0.50691 0.94283 0.0
C578 C 0.52659 0.52845 0.9479 0.0
C579 C 0.54894 0.5454 0.94586 0.0
H580 H 0.99029 0.54992 0.27951 0.0
H581 H 0.05466 0.55965 0.2928 0.0
H582 H 0.97694 0.51007 0.27668 0.0
H583 H 0.04125 0.51975 0.29001 0.0
H584 H 0.00372 0.44322 0.2917 0.0
H585 H 0.01386 0.48169 0.29719 0.0
H586 H 0.98586 0.48794 0.2623 0.0
H587 H 0.97522 0.44948 0.25701 0.0
C588 C 0.00159 0.54356 0.28184 0.0
C589 C 0.02363 0.55804 0.28626 0.0
C590 C 0.99393 0.52071 0.28023 0.0
C591 C 0.00809 0.51176 0.28302 0.0
C592 C 0.02983 0.52607 0.28789 0.0
C593 C 0.03751 0.54895 0.28948 0.0
C594 C 0.99946 0.45274 0.2853 0.0
C595 C 0.98879 0.44336 0.27388 0.0
C596 C 0.00545 0.47483 0.28839 0.0
C597 C 1.00071 0.4879 0.28018 0.0
C598 C 0.98955 0.47829 0.26891 0.0
C599 C 0.98368 0.45631 0.2658 0.0
H600 H 0.01446 0.32151 0.20665 0.0
H601 H 0.95346 0.26338 0.19358 0.0
H602 H 0.02992 0.32803 0.18567 0.0
H603 H 0.96905 0.26986 0.17255 0.0
H604 H 0.01327 0.27871 0.13812 0.0
H605 H 0.99933 0.27022 0.15952 0.0
H606 H 0.02197 0.34031 0.16595 0.0
H607 H 0.03639 0.34883 0.14477 0.0
C608 C 0.00431 0.31013 0.1993 0.0
C609 C 0.9826 0.29204 0.2018 0.0
C610 C 0.0132 0.31387 0.18726 0.0
C611 C 1.00065 0.29959 0.1774 0.0
C612 C 0.97924 0.28107 0.17995 0.0
C613 C 0.97031 0.27734 0.19202 0.0
C614 C 0.01546 0.29231 0.14415 0.0
C615 C 0.02588 0.31444 0.13972 0.0
C616 C 0.00729 0.28742 0.15637 0.0
C617 C 0.00955 0.30459 0.16445 0.0
C618 C 0.02018 0.32672 0.16003 0.0
C619 C 0.02822 0.33157 0.14783 0.0
H620 H 0.7369 0.01305 0.47026 0.0
H621 H 0.68904 0.0362 0.47684 0.0
H622 H 0.73127 0.99876 0.49155 0.0
H623 H 0.68298 0.02145 0.49791 0.0
H624 H 0.69419 0.01306 0.53867 0.0
H625 H 0.70288 0.02868 0.51778 0.0
H626 H 0.70146 0.96867 0.50426 0.0
H627 H 0.6926 0.95292 0.5252 0.0
C628 C 0.72527 0.01518 0.47626 0.0
C629 C 0.71338 0.02572 0.47184 0.0
C630 C 0.72188 0.0068 0.48841 0.0
C631 C 0.70668 0.00896 0.49644 0.0
C632 C 0.69499 0.01971 0.49204 0.0
C633 C 0.69828 0.02795 0.4799 0.0
C634 C 0.69561 0.00312 0.53124 0.0
C635 C 0.69248 0.98163 0.53362 0.0
C636 C 0.70062 0.0121 0.51926 0.0
C637 C 0.7027 0.99987 0.50932 0.0
C638 C 0.7002 0.97863 0.51173 0.0
C639 C 0.69512 0.9696 0.52374 0.0
H640 H 0.66438 0.67381 0.80525 0.0
H641 H 0.71013 0.74492 0.80946 0.0
H642 H 0.67332 0.66766 0.82624 0.0
H643 H 0.71812 0.73887 0.83079 0.0
H644 H 0.74425 0.71688 0.86437 0.0
H645 H 0.73686 0.72351 0.84302 0.0
H646 H 0.66639 0.67328 0.84721 0.0
H647 H 0.674 0.6658 0.8682 0.0
C648 C 0.67643 0.68817 0.81062 0.0
C649 C 0.68659 0.70988 0.80559 0.0
C650 C 0.68131 0.68466 0.82277 0.0
C651 C 0.69635 0.70277 0.83029 0.0
C652 C 0.70661 0.72449 0.82525 0.0
C653 C 0.7018 0.728 0.81305 0.0
C654 C 0.72723 0.7071 0.86069 0.0
C655 C 0.70974 0.6908 0.86806 0.0
C656 C 0.72292 0.7111 0.84848 0.0
C657 C 0.70102 0.69892 0.84335 0.0
C658 C 0.68353 0.68277 0.85076 0.0
C659 C 0.68785 0.67871 0.86291 0.0
H660 H 0.03736 0.69542 0.19636 0.0
H661 H 0.96815 0.66725 0.20898 0.0
H662 H 0.02508 0.69608 0.17507 0.0
H663 H 0.95591 0.66759 0.18769 0.0
H664 H 0.94186 0.64002 0.14728 0.0
H665 H 0.95395 0.64525 0.16897 0.0
H666 H 0.00737 0.71231 0.16074 0.0
H667 H 0.99529 0.70695 0.13887 0.0
C668 C 0.01961 0.6898 0.19465 0.0
C669 C 0.00371 0.68102 0.20438 0.0
C670 C 0.01258 0.69015 0.18244 0.0
C671 C 0.98949 0.68164 0.17969 0.0
C672 C 0.97377 0.67389 0.18949 0.0
C673 C 0.98079 0.67366 0.20168 0.0
C674 C 0.95614 0.65591 0.1501 0.0
C675 C 0.9677 0.67303 0.14138 0.0
C676 C 0.96294 0.65899 0.16255 0.0
C677 C 0.98159 0.67922 0.16657 0.0
C678 C 0.993 0.69651 0.15789 0.0
C679 C 0.986 0.6935 0.14542 0.0
H680 H 0.33002 0.99111 0.47232 0.0
H681 H 0.25878 0.9696 0.47632 0.0
H682 H 0.3371 0.0068 0.49317 0.0
H683 H 0.26571 0.98421 0.49756 0.0
H684 H 0.29032 0.03291 0.5308 0.0
H685 H 0.28275 0.01826 0.50957 0.0
H686 H 0.33118 0.99524 0.51422 0.0
H687 H 0.33967 0.01097 0.53507 0.0
C688 C 0.31583 0.98977 0.47762 0.0
C689 C 0.29382 0.97914 0.47255 0.0
C690 C 0.31986 0.9985 0.4897 0.0
C691 C 0.30197 0.99667 0.49713 0.0
C692 C 0.27994 0.98612 0.49207 0.0
C693 C 0.27592 0.97747 0.47993 0.0
C694 C 0.29952 0.02493 0.52724 0.0
C695 C 0.31562 0.02316 0.5347 0.0
C696 C 0.29497 0.01626 0.51511 0.0
C697 C 0.30637 0.00557 0.51013 0.0
C698 C 0.32229 0.00364 0.51764 0.0
C699 C 0.32692 0.01239 0.52971 0.0
H700 H 0.2892 0.29694 0.8665 0.0
H701 H 0.30556 0.36502 0.8589 0.0
H702 H 0.29656 0.2922 0.84467 0.0
H703 H 0.31314 0.36042 0.83724 0.0
H704 H 0.30622 0.34 0.79694 0.0
H705 H 0.29329 0.3396 0.81815 0.0
H706 H 0.33071 0.30757 0.83072 0.0
H707 H 0.34396 0.30824 0.80952 0.0
C708 C 0.29415 0.31079 0.86014 0.0
C709 C 0.29689 0.33138 0.86441 0.0
C710 C 0.29852 0.30814 0.84769 0.0
C711 C 0.3054 0.32593 0.83923 0.0
C712 C 0.30762 0.34631 0.84347 0.0
C713 C 0.30349 0.34902 0.85591 0.0
C714 C 0.31167 0.33281 0.80421 0.0
C715 C 0.32638 0.32441 0.80153 0.0
C716 C 0.30422 0.33256 0.81636 0.0
C717 C 0.31117 0.32377 0.82613 0.0
C718 C 0.32492 0.31431 0.82338 0.0
C719 C 0.33249 0.31466 0.81121 0.0
H720 H 0.24894 0.38616 0.99908 0.0
H721 H 0.20022 0.33316 0.97545 0.0
H722 H 0.21833 0.38374 0.01192 0.0
H723 H 0.16943 0.33068 0.98838 0.0
H724 H 0.12159 0.35381 0.0055 0.0
H725 H 0.15094 0.35232 0.99316 0.0
H726 H 0.18955 0.36021 0.02661 0.0
H727 H 0.16067 0.36269 0.03889 0.0
C728 C 0.2317 0.37372 0.99673 0.0
C729 C 0.22707 0.3598 0.98624 0.0
C730 C 0.21411 0.37232 0.00412 0.0
C731 C 0.19138 0.35695 1.00123 0.0
C732 C 0.18672 0.34289 0.99079 0.0
C733 C 0.20436 0.34431 0.98338 0.0
C734 C 0.13636 0.35527 0.01023 0.0
C735 C 0.13884 0.35859 0.02319 0.0
C736 C 0.15309 0.35415 0.00316 0.0
C737 C 0.17271 0.35629 0.00887 0.0
C738 C 0.17482 0.35884 0.02188 0.0
C739 C 0.1581 0.35998 0.02895 0.0
H740 H 0.87496 0.20638 0.31392 0.0
H741 H 0.8449 0.24715 0.32346 0.0
H742 H 0.84606 0.1756 0.32631 0.0
H743 H 0.81655 0.21678 0.33599 0.0
H744 H 0.75434 0.15022 0.34497 0.0
H745 H 0.7837 0.17964 0.3324 0.0
H746 H 0.83368 0.16561 0.34849 0.0
H747 H 0.804 0.1356 0.36093 0.0
C748 C 0.8622 0.20876 0.31865 0.0
C749 C 0.86226 0.22923 0.31771 0.0
C750 C 0.8458 0.19123 0.32583 0.0
C751 C 0.82898 0.19373 0.33211 0.0
C752 C 0.82911 0.21421 0.33117 0.0
C753 C 0.84552 0.23171 0.32408 0.0
C754 C 0.77153 0.1532 0.34574 0.0
C755 C 0.7768 0.14048 0.35393 0.0
C756 C 0.78842 0.17024 0.33862 0.0
C757 C 0.81105 0.17505 0.33948 0.0
C758 C 0.81636 0.16222 0.34756 0.0
C759 C 0.79942 0.14518 0.35477 0.0
H760 H 0.59692 0.7683 0.69304 0.0
H761 H 0.6675 0.78926 0.68679 0.0
H762 H 0.60047 0.79888 0.68009 0.0
H763 H 0.67126 0.82042 0.67409 0.0
H764 H 0.66005 0.85609 0.64028 0.0
H765 H 0.65854 0.82681 0.6538 0.0
H766 H 0.61797 0.83936 0.68014 0.0
H767 H 0.61876 0.86791 0.66648 0.0
C768 C 0.61323 0.77948 0.68891 0.0
C769 C 0.6319 0.77625 0.69091 0.0
C770 C 0.61533 0.79718 0.68159 0.0
C771 C 0.63617 0.81215 0.67605 0.0
C772 C 0.65493 0.80908 0.67813 0.0
C773 C 0.65284 0.79137 0.68551 0.0
C774 C 0.65075 0.85253 0.64894 0.0
C775 C 0.6395 0.86436 0.65227 0.0
C776 C 0.65009 0.83592 0.65675 0.0
C777 C 0.63806 0.83067 0.66804 0.0
C778 C 0.62716 0.84277 0.67145 0.0
C779 C 0.62785 0.85936 0.66367 0.0
H780 H 0.87599 0.62789 0.00335 0.0
H781 H 0.85901 0.65587 0.03492 0.0
H782 H 0.84804 0.63122 0.9908 0.0
H783 H 0.83185 0.66039 0.02214 0.0
H784 H 0.76427 0.63419 1.00084 0.0
H785 H 0.7954 0.63682 0.01329 0.0
H786 H 0.83785 0.65566 0.98058 0.0
H787 H 0.80622 0.6518 0.96798 0.0
C788 C 0.86642 0.63493 0.0076 0.0
C789 C 0.86957 0.64131 0.02022 0.0
C790 C 0.85058 0.63716 1.00033 0.0
C791 C 0.83754 0.64599 0.00544 0.0
C792 C 0.84133 0.6532 0.01793 0.0
C793 C 0.85712 0.65086 0.02524 0.0
C794 C 0.78022 0.63883 0.99628 0.0
C795 C 0.78259 0.64246 0.98336 0.0
C796 C 0.79823 0.64067 0.00347 0.0
C797 C 0.81918 0.64632 0.99796 0.0
C798 C 0.82186 0.65091 0.98512 0.0
C799 C 0.80378 0.64897 0.9779 0.0
H800 H 0.19976 0.86244 0.3644 0.0
H801 H 0.24676 0.84649 0.3461 0.0
H802 H 0.16933 0.83589 0.35079 0.0
H803 H 0.21671 0.82073 0.33227 0.0
H804 H 0.15429 0.76032 0.3172 0.0
H805 H 0.18233 0.78492 0.33235 0.0
H806 H 0.15756 0.8318 0.32901 0.0
H807 H 0.12884 0.80671 0.3142 0.0
C808 C 0.20359 0.85324 0.3575 0.0
C809 C 0.22574 0.85668 0.35631 0.0
C810 C 0.18621 0.8382 0.34963 0.0
C811 C 0.19056 0.82616 0.34043 0.0
C812 C 0.21266 0.82949 0.33934 0.0
C813 C 0.22999 0.84451 0.34717 0.0
C814 C 0.15455 0.77569 0.31984 0.0
C815 C 0.1393 0.78153 0.31444 0.0
C816 C 0.17083 0.78994 0.32842 0.0
C817 C 0.17233 0.81043 0.33184 0.0
C818 C 0.15679 0.81608 0.32666 0.0
C819 C 0.14049 0.80181 0.31805 0.0
H820 H 0.37442 0.24302 0.67886 0.0
H821 H 0.33308 0.18824 0.70352 0.0
H822 H 0.37661 0.21678 0.66438 0.0
H823 H 0.33423 0.16192 0.68873 0.0
H824 H 0.36635 0.12628 0.66788 0.0
H825 H 0.36101 0.15146 0.68164 0.0
H826 H 0.3558 0.18686 0.64976 0.0
H827 H 0.36224 0.1622 0.63597 0.0
C828 C 0.36569 0.22538 0.68118 0.0
C829 C 0.35372 0.21783 0.69244 0.0
C830 C 0.36668 0.21026 0.67277 0.0
C831 C 0.35566 0.18719 0.67538 0.0
C832 C 0.3432 0.17959 0.68648 0.0
C833 C 0.34229 0.1947 0.69491 0.0
C834 C 0.36418 0.13949 0.66379 0.0
C835 C 0.36495 0.14232 0.65081 0.0
C836 C 0.36081 0.15379 0.67169 0.0
C837 C 0.358 0.17126 0.66684 0.0
C838 C 0.3582 0.17376 0.65384 0.0
C839 C 0.36161 0.15945 0.64592 0.0
loop_
_geom_bond_atom_site_label_1
_geom_bond_atom_site_label_2
_geom_bond_distance
_geom_bond_site_symmetry_2
_ccdc_geom_bond_type
C0 C1 1.236 1_455 S
C0 C5 1.503 . S
C0 C10 1.474 . S
C1 C0 1.236 1_655 S
C1 C3 1.339 . S
C1 H28 0.931 . S
C2 C3 1.395 . S
C2 C4 1.320 . S
C3 C1 1.339 . S
C3 C2 1.395 . S
C3 H29 0.929 . S
C4 C2 1.320 . S
C4 C5 1.405 1_655 S
C4 H30 0.930 . S
C5 C0 1.503 . S
C5 C4 1.405 1_455 S
C5 H31 0.931 . S
U6 O7 2.454 . S
U6 O8 2.458 . S
U6 C9 2.984 . S
U6 C10 2.847 . S
U6 C23 2.882 . S
U6 O24 2.441 . S
U6 O25 2.420 . S
U6 O26 2.455 . S
U6 O27 2.449 . S
O7 U6 2.454 . S
O7 C9 1.353 . S
O8 U6 2.458 . S
O8 C9 1.286 . S
C9 U6 2.984 . S
C9 O7 1.353 . S
C9 O8 1.286 . S
C9 C11 1.363 . S
C10 C0 1.474 . S
C10 U6 2.847 . S
C10 O24 1.249 . S
C10 O25 1.202 . S
C11 C9 1.363 . S
C11 C13 1.408 . S
C11 C16 1.342 . S
C12 C13 1.310 . S
C12 C15 1.461 . S
C12 H32 0.932 . S
C13 C11 1.408 . S
C13 C12 1.310 . S
C13 H33 0.930 . S
C14 C15 1.474 . S
C14 C16 1.285 . S
C14 H34 0.929 . S
C15 C12 1.461 . S
C15 C14 1.474 . S
C16 C11 1.342 . S
C16 C14 1.285 . S
C16 H35 0.930 . S
C17 C20 1.424 1_455 S
C17 C22 1.245 . S
C17 C23 1.428 . S
C18 C21 1.260 . S
C18 C22 1.477 1_655 S
C18 H36 0.931 1_655 S
C19 C20 1.384 . S
C19 C21 1.479 . S
C19 H37 0.929 . S
C20 C17 1.424 1_655 S
C20 C19 1.384 . S
C20 H38 0.928 . S
C21 C18 1.260 . S
C21 C19 1.479 . S
C22 C17 1.245 . S
C22 C18 1.477 1_455 S
C22 H39 0.932 . S
C23 U6 2.882 . S
C23 C17 1.428 . S
C23 O26 1.301 . S
C23 O27 1.282 . S
O24 U6 2.441 . S
O24 C10 1.249 . S
O25 U6 2.420 . S
O25 C10 1.202 . S
O26 U6 2.455 . S
O26 C23 1.301 . S
O27 U6 2.449 . S
O27 C23 1.282 . S
H28 C1 0.931 . S
H29 C3 0.929 . S
H30 C4 0.930 . S
H31 C5 0.931 . S
H32 C12 0.932 . S
H33 C13 0.930 . S
H34 C14 0.929 . S
H35 C16 0.930 . S
H36 C18 0.931 1_455 S
H37 C19 0.929 . S
H38 C20 0.928 . S
H39 C22 0.932 . S
C40 C41 1.264 . S
C40 C45 1.479 1_565 S
C40 C50 1.465 1_565 S
C41 C40 1.264 . S
C41 C43 1.339 . S
C41 H68 0.931 . S
C42 C43 1.395 . S
C42 C44 1.320 . S
C43 C41 1.339 . S
C43 C42 1.395 . S
C43 H69 0.929 . S
C44 C42 1.320 . S
C44 C45 1.405 1_565 S
C44 H70 0.930 . S
C45 C40 1.479 1_545 S
C45 C44 1.405 1_545 S
C45 H71 0.931 . S
U46 O47 2.454 . S
U46 O48 2.458 . S
U46 C49 2.984 . S
U46 C50 2.847 . S
U46 C63 2.882 . S
U46 O64 2.441 . S
U46 O65 2.420 . S
U46 O66 2.455 . S
U46 O67 2.449 . S
O47 U46 2.454 . S
O47 C49 1.353 . S
O48 U46 2.458 . S
O48 C49 1.286 . S
C49 U46 2.984 . S
C49 O47 1.353 . S
C49 O48 1.286 . S
C49 C51 1.363 . S
C50 C40 1.465 1_545 S
C50 U46 2.847 . S
C50 O64 1.249 . S
C50 O65 1.202 . S
C51 C49 1.363 . S
C51 C53 1.408 . S
C51 C56 1.342 . S
C52 C53 1.310 . S
C52 C55 1.461 . S
C52 H72 0.932 . S
C53 C51 1.408 . S
C53 C52 1.310 . S
C53 H73 0.930 . S
C54 C55 1.474 . S
C54 C56 1.285 . S
C54 H74 0.929 . S
C55 C52 1.461 . S
C55 C54 1.474 . S
C56 C51 1.342 . S
C56 C54 1.285 . S
C56 H75 0.930 . S
C57 C60 1.424 . S
C57 C62 1.239 1_565 S
C57 C63 1.428 1_565 S
C58 C61 1.260 . S
C58 C62 1.480 1_565 S
C58 H76 0.932 . S
C59 C60 1.384 . S
C59 C61 1.479 . S
C59 H77 0.929 . S
C60 C57 1.424 . S
C60 C59 1.384 . S
C60 H78 0.928 . S
C61 C58 1.260 . S
C61 C59 1.479 . S
C62 C57 1.239 1_545 S
C62 C58 1.480 1_545 S
C62 H79 0.936 . S
C63 U46 2.882 . S
C63 C57 1.428 1_545 S
C63 O66 1.301 . S
C63 O67 1.282 . S
O64 U46 2.441 . S
O64 C50 1.249 . S
O65 U46 2.420 . S
O65 C50 1.202 . S
O66 U46 2.455 . S
O66 C63 1.301 . S
O67 U46 2.449 . S
O67 C63 1.282 . S
H68 C41 0.931 . S
H69 C43 0.929 . S
H70 C44 0.930 . S
H71 C45 0.931 . S
H72 C52 0.932 . S
H73 C53 0.930 . S
H74 C54 0.929 . S
H75 C56 0.930 . S
H76 C58 0.932 . S
H77 C59 0.929 . S
H78 C60 0.928 . S
H79 C62 0.936 . S
C80 C81 1.264 . S
C80 C85 1.479 . S
C80 C90 1.465 . S
C81 C80 1.264 . S
C81 C83 1.339 . S
C81 H108 0.931 . S
C82 C83 1.395 . S
C82 C84 1.320 . S
C83 C81 1.339 . S
C83 C82 1.395 . S
C83 H109 0.929 . S
C84 C82 1.320 . S
C84 C85 1.405 . S
C84 H110 0.930 . S
C85 C80 1.479 . S
C85 C84 1.405 . S
C85 H111 0.931 . S
U86 O87 2.454 . S
U86 O88 2.458 . S
U86 C89 2.984 . S
U86 C90 2.847 . S
U86 C103 2.882 . S
U86 O104 2.441 . S
U86 O105 2.420 . S
U86 O106 2.455 . S
U86 O107 2.449 . S
O87 U86 2.454 . S
O87 C89 1.353 . S
O88 U86 2.458 . S
O88 C89 1.286 . S
C89 U86 2.984 . S
C89 O87 1.353 . S
C89 O88 1.286 . S
C89 C91 1.363 . S
C90 C80 1.465 . S
C90 U86 2.847 . S
C90 O104 1.249 . S
C90 O105 1.202 . S
C91 C89 1.363 . S
C91 C93 1.408 . S
C91 C96 1.342 . S
C92 C93 1.310 . S
C92 C95 1.461 . S
C92 H112 0.932 . S
C93 C91 1.408 . S
C93 C92 1.310 . S
C93 H113 0.930 . S
C94 C95 1.474 . S
C94 C96 1.285 . S
C94 H114 0.929 . S
C95 C92 1.461 . S
C95 C94 1.474 . S
C96 C91 1.342 . S
C96 C94 1.285 . S
C96 H115 0.930 . S
C97 C100 1.424 . S
C97 C102 1.245 . S
C97 C103 1.428 . S
C98 C101 1.260 . S
C98 C102 1.477 . S
C98 H116 0.932 . S
C99 C100 1.384 . S
C99 C101 1.479 . S
C99 H117 0.929 . S
C100 C97 1.424 . S
C100 C99 1.384 . S
C100 H118 0.928 . S
C101 C98 1.260 . S
C101 C99 1.479 . S
C102 C97 1.245 . S
C102 C98 1.477 . S
C102 H119 0.932 . S
C103 U86 2.882 . S
C103 C97 1.428 . S
C103 O106 1.301 . S
C103 O107 1.282 . S
O104 U86 2.441 . S
O104 C90 1.249 . S
O105 U86 2.420 . S
O105 C90 1.202 . S
O106 U86 2.455 . S
O106 C103 1.301 . S
O107 U86 2.449 . S
O107 C103 1.282 . S
H108 C81 0.931 . S
H109 C83 0.929 . S
H110 C84 0.930 . S
H111 C85 0.931 . S
H112 C92 0.932 . S
H113 C93 0.930 . S
H114 C94 0.929 . S
H115 C96 0.930 . S
H116 C98 0.932 . S
H117 C99 0.929 . S
H118 C100 0.928 . S
H119 C102 0.932 . S
C120 C121 1.264 . S
C120 C125 1.487 . S
C120 C130 1.465 1_455 S
C121 C120 1.264 . S
C121 C123 1.339 . S
C121 H148 0.931 . S
C122 C123 1.395 . S
C122 C124 1.320 . S
C123 C121 1.339 . S
C123 C122 1.395 . S
C123 H149 0.929 . S
C124 C122 1.320 . S
C124 C125 1.409 . S
C124 H150 0.930 . S
C125 C120 1.487 . S
C125 C124 1.409 . S
C125 H151 0.920 1_455 S
U126 O127 2.454 . S
U126 O128 2.458 . S
U126 C129 2.984 . S
U126 C130 2.847 . S
U126 C143 2.882 . S
U126 O144 2.441 . S
U126 O145 2.420 . S
U126 O146 2.455 . S
U126 O147 2.449 . S
O127 U126 2.454 . S
O127 C129 1.353 . S
O128 U126 2.458 . S
O128 C129 1.286 . S
C129 U126 2.984 . S
C129 O127 1.353 . S
C129 O128 1.286 . S
C129 C131 1.363 . S
C130 C120 1.465 1_655 S
C130 U126 2.847 . S
C130 O144 1.249 . S
C130 O145 1.202 . S
C131 C129 1.363 . S
C131 C133 1.408 . S
C131 C136 1.342 . S
C132 C133 1.310 . S
C132 C135 1.461 . S
C132 H152 0.932 . S
C133 C131 1.408 . S
C133 C132 1.310 . S
C133 H153 0.930 . S
C134 C135 1.474 . S
C134 C136 1.285 . S
C134 H154 0.929 . S
C135 C132 1.461 . S
C135 C134 1.474 . S
C136 C131 1.342 . S
C136 C134 1.285 . S
C136 H155 0.930 . S
C137 C140 1.424 . S
C137 C142 1.244 . S
C137 C143 1.428 1_455 S
C138 C141 1.260 . S
C138 C142 1.494 . S
C138 H156 0.932 . S
C139 C140 1.384 . S
C139 C141 1.479 . S
C139 H157 0.929 . S
C140 C137 1.424 . S
C140 C139 1.384 . S
C140 H158 0.928 . S
C141 C138 1.260 . S
C141 C139 1.479 . S
C142 C137 1.244 . S
C142 C138 1.494 . S
C142 H159 0.917 1_455 S
C143 U126 2.882 . S
C143 C137 1.428 1_655 S
C143 O146 1.301 . S
C143 O147 1.282 . S
O144 U126 2.441 . S
O144 C130 1.249 . S
O145 U126 2.420 . S
O145 C130 1.202 . S
O146 U126 2.455 . S
O146 C143 1.301 . S
O147 U126 2.449 . S
O147 C143 1.282 . S
H148 C121 0.931 . S
H149 C123 0.929 . S
H150 C124 0.930 . S
H151 C125 0.920 1_655 S
H152 C132 0.932 . S
H153 C133 0.930 . S
H154 C134 0.929 . S
H155 C136 0.930 . S
H156 C138 0.932 . S
H157 C139 0.929 . S
H158 C140 0.928 . S
H159 C142 0.917 1_655 S
C160 C161 1.262 1_565 S
C160 C165 1.472 . S
C160 C170 1.475 . S
C161 C160 1.262 1_545 S
C161 C163 1.339 . S
C161 H188 0.931 . S
C162 C163 1.395 . S
C162 C164 1.320 . S
C163 C161 1.339 . S
C163 C162 1.395 . S
C163 H189 0.929 . S
C164 C162 1.320 . S
C164 C165 1.405 1_545 S
C164 H190 0.930 . S
C165 C160 1.472 . S
C165 C164 1.405 1_565 S
C165 H191 0.931 . S
U166 O167 2.454 . S
U166 O168 2.458 . S
U166 C169 2.984 . S
U166 C170 2.847 . S
U166 C183 2.882 . S
U166 O184 2.441 . S
U166 O185 2.420 . S
U166 O186 2.455 . S
U166 O187 2.449 . S
O167 U166 2.454 . S
O167 C169 1.353 . S
O168 U166 2.458 . S
O168 C169 1.286 . S
C169 U166 2.984 . S
C169 O167 1.353 . S
C169 O168 1.286 . S
C169 C171 1.363 . S
C170 C160 1.475 . S
C170 U166 2.847 . S
C170 O184 1.249 . S
C170 O185 1.202 . S
C171 C169 1.363 . S
C171 C173 1.408 . S
C171 C176 1.342 . S
C172 C173 1.310 . S
C172 C175 1.461 . S
C172 H192 0.932 . S
C173 C171 1.408 . S
C173 C172 1.310 . S
C173 H193 0.930 . S
C174 C175 1.474 . S
C174 C176 1.285 . S
C174 H194 0.929 . S
C175 C172 1.461 . S
C175 C174 1.474 . S
C176 C171 1.342 . S
C176 C174 1.285 . S
C176 H195 0.930 . S
C177 C180 1.424 1_565 S
C177 C182 1.245 . S
C177 C183 1.428 . S
C178 C181 1.260 . S
C178 C182 1.477 1_545 S
C178 H196 0.932 1_545 S
C179 C180 1.384 . S
C179 C181 1.479 . S
C179 H197 0.929 . S
C180 C177 1.424 1_545 S
C180 C179 1.384 . S
C180 H198 0.928 . S
C181 C178 1.260 . S
C181 C179 1.479 . S
C182 C177 1.245 . S
C182 C178 1.477 1_565 S
C182 H199 0.932 . S
C183 U166 2.882 . S
C183 C177 1.428 . S
C183 O186 1.301 . S
C183 O187 1.282 . S
O184 U166 2.441 . S
O184 C170 1.249 . S
O185 U166 2.420 . S
O185 C170 1.202 . S
O186 U166 2.455 . S
O186 C183 1.301 . S
O187 U166 2.449 . S
O187 C183 1.282 . S
H188 C161 0.931 . S
H189 C163 0.929 . S
H190 C164 0.930 . S
H191 C165 0.931 . S
H192 C172 0.932 . S
H193 C173 0.930 . S
H194 C174 0.929 . S
H195 C176 0.930 . S
H196 C178 0.932 1_565 S
H197 C179 0.929 . S
H198 C180 0.928 . S
H199 C182 0.932 . S
C200 C201 1.264 . S
C200 C205 1.479 . S
C200 C210 1.465 . S
C201 C200 1.264 . S
C201 C203 1.339 . S
C201 H228 0.931 . S
C202 C203 1.395 . S
C202 C204 1.320 . S
C203 C201 1.339 . S
C203 C202 1.395 . S
C203 H229 0.929 . S
C204 C202 1.320 . S
C204 C205 1.405 . S
C204 H230 0.930 . S
C205 C200 1.479 . S
C205 C204 1.405 . S
C205 H231 0.931 . S
U206 O207 2.454 . S
U206 O208 2.458 . S
U206 C209 2.984 . S
U206 C210 2.847 . S
U206 C223 2.882 . S
U206 O224 2.441 . S
U206 O225 2.420 . S
U206 O226 2.455 . S
U206 O227 2.449 . S
O207 U206 2.454 . S
O207 C209 1.353 . S
O208 U206 2.458 . S
O208 C209 1.286 . S
C209 U206 2.984 . S
C209 O207 1.353 . S
C209 O208 1.286 . S
C209 C211 1.363 . S
C210 C200 1.465 . S
C210 U206 2.847 . S
C210 O224 1.249 . S
C210 O225 1.202 . S
C211 C209 1.363 . S
C211 C213 1.408 . S
C211 C216 1.342 . S
C212 C213 1.310 . S
C212 C215 1.461 . S
C212 H232 0.932 . S
C213 C211 1.408 . S
C213 C212 1.310 . S
C213 H233 0.930 . S
C214 C215 1.474 . S
C214 C216 1.285 . S
C214 H234 0.929 . S
C215 C212 1.461 . S
C215 C214 1.474 . S
C216 C211 1.342 . S
C216 C214 1.285 . S
C216 H235 0.930 . S
C217 C220 1.424 . S
C217 C222 1.245 . S
C217 C223 1.428 . S
C218 C221 1.260 . S
C218 C222 1.477 . S
C218 H236 0.932 . S
C219 C220 1.384 . S
C219 C221 1.479 . S
C219 H237 0.929 . S
C220 C217 1.424 . S
C220 C219 1.384 . S
C220 H238 0.928 . S
C221 C218 1.260 . S
C221 C219 1.479 . S
C222 C217 1.245 . S
C222 C218 1.477 . S
C222 H239 0.932 . S
C223 U206 2.882 . S
C223 C217 1.428 . S
C223 O226 1.301 . S
C223 O227 1.282 . S
O224 U206 2.441 . S
O224 C210 1.249 . S
O225 U206 2.420 . S
O225 C210 1.202 . S
O226 U206 2.455 . S
O226 C223 1.301 . S
O227 U206 2.449 . S
O227 C223 1.282 . S
H228 C201 0.931 . S
H229 C203 0.929 . S
H230 C204 0.930 . S
H231 C205 0.931 . S
H232 C212 0.932 . S
H233 C213 0.930 . S
H234 C214 0.929 . S
H235 C216 0.930 . S
H236 C218 0.932 . S
H237 C219 0.929 . S
H238 C220 0.928 . S
H239 C222 0.932 . S
C240 C241 1.264 . S
C240 C245 1.479 1_545 S
C240 C250 1.465 1_545 S
C241 C240 1.264 . S
C241 C243 1.339 . S
C241 H268 0.931 . S
C242 C243 1.395 . S
C242 C244 1.320 . S
C243 C241 1.339 . S
C243 C242 1.395 . S
C243 H269 0.929 . S
C244 C242 1.320 . S
C244 C245 1.405 1_545 S
C244 H270 0.930 . S
C245 C240 1.479 1_565 S
C245 C244 1.405 1_565 S
C245 H271 0.931 . S
U246 O247 2.454 . S
U246 O248 2.458 . S
U246 C249 2.984 . S
U246 C250 2.847 . S
U246 C263 2.882 . S
U246 O264 2.441 . S
U246 O265 2.420 . S
U246 O266 2.455 . S
U246 O267 2.449 . S
O247 U246 2.454 . S
O247 C249 1.353 . S
O248 U246 2.458 . S
O248 C249 1.286 . S
C249 U246 2.984 . S
C249 O247 1.353 . S
C249 O248 1.286 . S
C249 C251 1.363 . S
C250 C240 1.465 1_565 S
C250 U246 2.847 . S
C250 O264 1.249 . S
C250 O265 1.202 . S
C251 C249 1.363 . S
C251 C253 1.408 . S
C251 C256 1.342 . S
C252 C253 1.310 . S
C252 C255 1.461 . S
C252 H272 0.932 . S
C253 C251 1.408 . S
C253 C252 1.310 . S
C253 H273 0.930 . S
C254 C255 1.474 . S
C254 C256 1.285 . S
C254 H274 0.929 . S
C255 C252 1.461 . S
C255 C254 1.474 . S
C256 C251 1.342 . S
C256 C254 1.285 . S
C256 H275 0.930 . S
C257 C260 1.424 . S
C257 C262 1.246 1_545 S
C257 C263 1.428 1_545 S
C258 C261 1.260 . S
C258 C262 1.465 1_545 S
C258 H276 0.932 . S
C259 C260 1.384 . S
C259 C261 1.479 . S
C259 H277 0.929 . S
C260 C257 1.424 . S
C260 C259 1.384 . S
C260 H278 0.928 . S
C261 C258 1.260 . S
C261 C259 1.479 . S
C262 C257 1.246 1_565 S
C262 C258 1.465 1_565 S
C262 H279 0.943 . S
C263 U246 2.882 . S
C263 C257 1.428 1_565 S
C263 O266 1.301 . S
C263 O267 1.282 . S
O264 U246 2.441 . S
O264 C250 1.249 . S
O265 U246 2.420 . S
O265 C250 1.202 . S
O266 U246 2.455 . S
O266 C263 1.301 . S
O267 U246 2.449 . S
O267 C263 1.282 . S
H268 C241 0.931 . S
H269 C243 0.929 . S
H270 C244 0.930 . S
H271 C245 0.931 . S
H272 C252 0.932 . S
H273 C253 0.930 . S
H274 C254 0.929 . S
H275 C256 0.930 . S
H276 C258 0.932 . S
H277 C259 0.929 . S
H278 C260 0.928 . S
H279 C262 0.943 . S
C280 C281 1.264 . S
C280 C285 1.479 . S
C280 C290 1.465 . S
C281 C280 1.264 . S
C281 C283 1.339 . S
C281 H308 0.931 . S
C282 C283 1.395 . S
C282 C284 1.320 . S
C283 C281 1.339 . S
C283 C282 1.395 . S
C283 H309 0.929 . S
C284 C282 1.320 . S
C284 C285 1.405 . S
C284 H310 0.930 . S
C285 C280 1.479 . S
C285 C284 1.405 . S
C285 H311 0.931 . S
U286 O287 2.454 . S
U286 O288 2.458 . S
U286 C289 2.984 . S
U286 C290 2.847 . S
U286 C303 2.882 . S
U286 O304 2.441 . S
U286 O305 2.420 . S
U286 O306 2.455 . S
U286 O307 2.449 . S
O287 U286 2.454 . S
O287 C289 1.353 . S
O288 U286 2.458 . S
O288 C289 1.286 . S
C289 U286 2.984 . S
C289 O287 1.353 . S
C289 O288 1.286 . S
C289 C291 1.363 . S
C290 C280 1.465 . S
C290 U286 2.847 . S
C290 O304 1.249 . S
C290 O305 1.202 . S
C291 C289 1.363 . S
C291 C293 1.408 . S
C291 C296 1.342 . S
C292 C293 1.310 . S
C292 C295 1.461 . S
C292 H312 0.932 . S
C293 C291 1.408 . S
C293 C292 1.310 . S
C293 H313 0.930 . S
C294 C295 1.474 . S
C294 C296 1.285 . S
C294 H314 0.929 . S
C295 C292 1.461 . S
C295 C294 1.474 . S
C296 C291 1.342 . S
C296 C294 1.285 . S
C296 H315 0.930 . S
C297 C300 1.424 . S
C297 C302 1.245 . S
C297 C303 1.428 . S
C298 C301 1.260 . S
C298 C302 1.477 . S
C298 H316 0.932 . S
C299 C300 1.384 . S
C299 C301 1.479 . S
C299 H317 0.929 . S
C300 C297 1.424 . S
C300 C299 1.384 . S
C300 H318 0.928 . S
C301 C298 1.260 . S
C301 C299 1.479 . S
C302 C297 1.245 . S
C302 C298 1.477 . S
C302 H319 0.932 . S
C303 U286 2.882 . S
C303 C297 1.428 . S
C303 O306 1.301 . S
C303 O307 1.282 . S
O304 U286 2.441 . S
O304 C290 1.249 . S
O305 U286 2.420 . S
O305 C290 1.202 . S
O306 U286 2.455 . S
O306 C303 1.301 . S
O307 U286 2.449 . S
O307 C303 1.282 . S
H308 C281 0.931 . S
H309 C283 0.929 . S
H310 C284 0.930 . S
H311 C285 0.931 . S
H312 C292 0.932 . S
H313 C293 0.930 . S
H314 C294 0.929 . S
H315 C296 0.930 . S
H316 C298 0.932 . S
H317 C299 0.929 . S
H318 C300 0.928 . S
H319 C302 0.932 . S
C320 C321 1.264 . S
C320 C325 1.479 . S
C320 C330 1.465 . S
C321 C320 1.264 . S
C321 C323 1.339 . S
C321 H348 0.931 . S
C322 C323 1.395 . S
C322 C324 1.320 . S
C323 C321 1.339 . S
C323 C322 1.395 . S
C323 H349 0.929 . S
C324 C322 1.320 . S
C324 C325 1.405 . S
C324 H350 0.930 . S
C325 C320 1.479 . S
C325 C324 1.405 . S
C325 H351 0.931 . S
U326 O327 2.454 1_655 S
U326 O328 2.458 1_655 S
U326 C329 2.984 1_655 S
U326 C330 2.847 . S
U326 C343 2.882 . S
U326 O344 2.441 . S
U326 O345 2.420 . S
U326 O346 2.455 . S
U326 O347 2.449 . S
O327 U326 2.454 1_455 S
O327 C329 1.353 . S
O328 U326 2.458 1_455 S
O328 C329 1.286 . S
C329 U326 2.984 1_455 S
C329 O327 1.353 . S
C329 O328 1.286 . S
C329 C331 1.363 . S
C330 C320 1.465 . S
C330 U326 2.847 . S
C330 O344 1.249 . S
C330 O345 1.202 . S
C331 C329 1.363 . S
C331 C333 1.408 . S
C331 C336 1.342 . S
C332 C333 1.310 . S
C332 C335 1.461 . S
C332 H352 0.932 . S
C333 C331 1.408 . S
C333 C332 1.310 . S
C333 H353 0.930 . S
C334 C335 1.474 . S
C334 C336 1.285 . S
C334 H354 0.929 . S
C335 C332 1.461 . S
C335 C334 1.474 . S
C336 C331 1.342 . S
C336 C334 1.285 . S
C336 H355 0.930 . S
C337 C340 1.424 . S
C337 C342 1.245 . S
C337 C343 1.428 . S
C338 C341 1.260 . S
C338 C342 1.477 . S
C338 H356 0.932 . S
C339 C340 1.384 . S
C339 C341 1.479 . S
C339 H357 0.929 . S
C340 C337 1.424 . S
C340 C339 1.384 . S
C340 H358 0.928 . S
C341 C338 1.260 . S
C341 C339 1.479 . S
C342 C337 1.245 . S
C342 C338 1.477 . S
C342 H359 0.932 . S
C343 U326 2.882 . S
C343 C337 1.428 . S
C343 O346 1.301 . S
C343 O347 1.282 . S
O344 U326 2.441 . S
O344 C330 1.249 . S
O345 U326 2.420 . S
O345 C330 1.202 . S
O346 U326 2.455 . S
O346 C343 1.301 . S
O347 U326 2.449 . S
O347 C343 1.282 . S
H348 C321 0.931 . S
H349 C323 0.929 . S
H350 C324 0.930 . S
H351 C325 0.931 . S
H352 C332 0.932 . S
H353 C333 0.930 . S
H354 C334 0.929 . S
H355 C336 0.930 . S
H356 C338 0.932 . S
H357 C339 0.929 . S
H358 C340 0.928 . S
H359 C342 0.932 . S
C360 C361 1.238 1_545 S
C360 C365 1.501 . S
C360 C370 1.474 . S
C361 C360 1.238 1_565 S
C361 C363 1.339 . S
C361 H388 0.931 . S
C362 C363 1.395 . S
C362 C364 1.320 . S
C363 C361 1.339 . S
C363 C362 1.395 . S
C363 H389 0.929 . S
C364 C362 1.320 . S
C364 C365 1.405 1_565 S
C364 H390 0.930 . S
C365 C360 1.501 . S
C365 C364 1.405 1_545 S
C365 H391 0.931 . S
U366 O367 2.454 . S
U366 O368 2.458 . S
U366 C369 2.984 . S
U366 C370 2.847 . S
U366 C383 2.882 . S
U366 O384 2.441 . S
U366 O385 2.420 . S
U366 O386 2.455 . S
U366 O387 2.449 . S
O367 U366 2.454 . S
O367 C369 1.353 . S
O368 U366 2.458 . S
O368 C369 1.286 . S
C369 U366 2.984 . S
C369 O367 1.353 . S
C369 O368 1.286 . S
C369 C371 1.363 . S
C370 C360 1.474 . S
C370 U366 2.847 . S
C370 O384 1.249 . S
C370 O385 1.202 . S
C371 C369 1.363 . S
C371 C373 1.408 . S
C371 C376 1.342 . S
C372 C373 1.310 . S
C372 C375 1.461 . S
C372 H392 0.932 . S
C373 C371 1.408 . S
C373 C372 1.310 . S
C373 H393 0.930 . S
C374 C375 1.474 . S
C374 C376 1.285 . S
C374 H394 0.929 . S
C375 C372 1.461 . S
C375 C374 1.474 . S
C376 C371 1.342 . S
C376 C374 1.285 . S
C376 H395 0.930 . S
C377 C380 1.424 1_545 S
C377 C382 1.245 . S
C377 C383 1.428 . S
C378 C381 1.260 . S
C378 C382 1.477 1_565 S
C378 H396 0.932 1_565 S
C379 C380 1.384 . S
C379 C381 1.479 . S
C379 H397 0.929 . S
C380 C377 1.424 1_565 S
C380 C379 1.384 . S
C380 H398 0.928 . S
C381 C378 1.260 . S
C381 C379 1.479 . S
C382 C377 1.245 . S
C382 C378 1.477 1_545 S
C382 H399 0.932 . S
C383 U366 2.882 . S
C383 C377 1.428 . S
C383 O386 1.301 . S
C383 O387 1.282 . S
O384 U366 2.441 . S
O384 C370 1.249 . S
O385 U366 2.420 . S
O385 C370 1.202 . S
O386 U366 2.455 . S
O386 C383 1.301 . S
O387 U366 2.449 . S
O387 C383 1.282 . S
H388 C361 0.931 . S
H389 C363 0.929 . S
H390 C364 0.930 . S
H391 C365 0.931 . S
H392 C372 0.932 . S
H393 C373 0.930 . S
H394 C374 0.929 . S
H395 C376 0.930 . S
H396 C378 0.932 1_545 S
H397 C379 0.929 . S
H398 C380 0.928 . S
H399 C382 0.932 . S
C400 C401 1.264 . S
C400 C405 1.479 . S
C400 C410 1.465 . S
C401 C400 1.264 . S
C401 C403 1.339 . S
C401 H428 0.931 . S
C402 C403 1.395 . S
C402 C404 1.320 . S
C403 C401 1.339 . S
C403 C402 1.395 . S
C403 H429 0.929 . S
C404 C402 1.320 . S
C404 C405 1.405 . S
C404 H430 0.930 . S
C405 C400 1.479 . S
C405 C404 1.405 . S
C405 H431 0.931 . S
U406 O407 2.454 . S
U406 O408 2.458 . S
U406 C409 2.984 . S
U406 C410 2.847 . S
U406 C423 2.882 . S
U406 O424 2.441 . S
U406 O425 2.420 . S
U406 O426 2.455 . S
U406 O427 2.449 . S
O407 U406 2.454 . S
O407 C409 1.353 . S
O408 U406 2.458 . S
O408 C409 1.286 . S
C409 U406 2.984 . S
C409 O407 1.353 . S
C409 O408 1.286 . S
C409 C411 1.363 . S
C410 C400 1.465 . S
C410 U406 2.847 . S
C410 O424 1.249 . S
C410 O425 1.202 . S
C411 C409 1.363 . S
C411 C413 1.408 . S
C411 C416 1.342 . S
C412 C413 1.310 . S
C412 C415 1.461 . S
C412 H432 0.932 . S
C413 C411 1.408 . S
C413 C412 1.310 . S
C413 H433 0.930 . S
C414 C415 1.474 . S
C414 C416 1.285 . S
C414 H434 0.929 . S
C415 C412 1.461 . S
C415 C414 1.474 . S
C416 C411 1.342 . S
C416 C414 1.285 . S
C416 H435 0.930 . S
C417 C420 1.424 . S
C417 C422 1.245 . S
C417 C423 1.428 . S
C418 C421 1.260 . S
C418 C422 1.477 . S
C418 H436 0.932 . S
C419 C420 1.384 . S
C419 C421 1.479 . S
C419 H437 0.929 . S
C420 C417 1.424 . S
C420 C419 1.384 . S
C420 H438 0.928 . S
C421 C418 1.260 . S
C421 C419 1.479 . S
C422 C417 1.245 . S
C422 C418 1.477 . S
C422 H439 0.932 . S
C423 U406 2.882 . S
C423 C417 1.428 . S
C423 O426 1.301 . S
C423 O427 1.282 . S
O424 U406 2.441 . S
O424 C410 1.249 . S
O425 U406 2.420 . S
O425 C410 1.202 . S
O426 U406 2.455 . S
O426 C423 1.301 . S
O427 U406 2.449 . S
O427 C423 1.282 . S
H428 C401 0.931 . S
H429 C403 0.929 . S
H430 C404 0.930 . S
H431 C405 0.931 . S
H432 C412 0.932 . S
H433 C413 0.930 . S
H434 C414 0.929 . S
H435 C416 0.930 . S
H436 C418 0.932 . S
H437 C419 0.929 . S
H438 C420 0.928 . S
H439 C422 0.932 . S
C440 C441 1.264 . S
C440 C445 1.479 1_455 S
C440 C450 1.465 1_455 S
C441 C440 1.264 . S
C441 C443 1.339 . S
C441 H468 0.931 . S
C442 C443 1.395 . S
C442 C444 1.320 . S
C443 C441 1.339 . S
C443 C442 1.395 . S
C443 H469 0.929 . S
C444 C442 1.320 . S
C444 C445 1.405 1_455 S
C444 H470 0.930 . S
C445 C440 1.479 1_655 S
C445 C444 1.405 1_655 S
C445 H471 0.931 . S
U446 O447 2.454 . S
U446 O448 2.458 . S
U446 C449 2.984 . S
U446 C450 2.847 . S
U446 C463 2.882 . S
U446 O464 2.441 . S
U446 O465 2.420 . S
U446 O466 2.455 . S
U446 O467 2.449 . S
O447 U446 2.454 . S
O447 C449 1.353 . S
O448 U446 2.458 . S
O448 C449 1.286 . S
C449 U446 2.984 . S
C449 O447 1.353 . S
C449 O448 1.286 . S
C449 C451 1.363 . S
C450 C440 1.465 1_655 S
C450 U446 2.847 . S
C450 O464 1.249 . S
C450 O465 1.202 . S
C451 C449 1.363 . S
C451 C453 1.408 . S
C451 C456 1.342 . S
C452 C453 1.310 . S
C452 C455 1.461 . S
C452 H472 0.932 . S
C453 C451 1.408 . S
C453 C452 1.310 . S
C453 H473 0.930 . S
C454 C455 1.474 . S
C454 C456 1.285 . S
C454 H474 0.929 . S
C455 C452 1.461 . S
C455 C454 1.474 . S
C456 C451 1.342 . S
C456 C454 1.285 . S
C456 H475 0.930 . S
C457 C460 1.424 . S
C457 C462 1.245 1_455 S
C457 C463 1.428 1_455 S
C458 C461 1.260 . S
C458 C462 1.477 1_455 S
C458 H476 0.932 . S
C459 C460 1.384 . S
C459 C461 1.479 . S
C459 H477 0.929 . S
C460 C457 1.424 . S
C460 C459 1.384 . S
C460 H478 0.928 . S
C461 C458 1.260 . S
C461 C459 1.479 . S
C462 C457 1.245 1_655 S
C462 C458 1.477 1_655 S
C462 H479 0.932 . S
C463 U446 2.882 . S
C463 C457 1.428 1_655 S
C463 O466 1.301 . S
C463 O467 1.282 . S
O464 U446 2.441 . S
O464 C450 1.249 . S
O465 U446 2.420 . S
O465 C450 1.202 . S
O466 U446 2.455 . S
O466 C463 1.301 . S
O467 U446 2.449 . S
O467 C463 1.282 . S
H468 C441 0.931 . S
H469 C443 0.929 . S
H470 C444 0.930 . S
H471 C445 0.931 . S
H472 C452 0.932 . S
H473 C453 0.930 . S
H474 C454 0.929 . S
H475 C456 0.930 . S
H476 C458 0.932 . S
H477 C459 0.929 . S
H478 C460 0.928 . S
H479 C462 0.932 . S
H480 C488 0.950 . S
H481 C493 0.950 . S
H482 C490 0.950 . S
H483 C492 0.950 . S
H484 C494 0.950 . S
H485 C496 0.950 . S
H486 C498 0.950 . S
H487 C499 0.950 . S
C488 H480 0.950 . S
C488 C489 1.386 1_655 S
C488 C490 1.391 . S
C489 C488 1.386 1_455 S
C489 C493 1.393 . S
C490 H482 0.950 . S
C490 C488 1.391 . S
C490 C491 1.400 1_655 S
C491 C490 1.400 1_455 S
C491 C492 1.398 . S
C491 C497 1.503 1_455 S
C492 H483 0.950 . S
C492 C491 1.398 . S
C492 C493 1.391 . S
C493 H481 0.950 . S
C493 C489 1.393 . S
C493 C492 1.391 . S
C494 H484 0.950 . S
C494 C495 1.386 1_455 S
C494 C496 1.391 . S
C495 C494 1.386 1_655 S
C495 C499 1.393 . S
C496 H485 0.950 . S
C496 C494 1.391 . S
C496 C497 1.348 1_455 S
C497 C491 1.503 1_655 S
C497 C496 1.348 1_655 S
C497 C498 1.439 . S
C498 H486 0.950 . S
C498 C497 1.439 . S
C498 C499 1.391 . S
C499 H487 0.950 . S
C499 C495 1.393 . S
C499 C498 1.391 . S
H500 C508 0.950 1_545 S
H501 C513 0.950 . S
H502 C510 0.950 . S
H503 C512 0.950 . S
H504 C514 0.950 . S
H505 C516 0.950 . S
H506 C518 0.950 . S
H507 C519 0.950 . S
C508 H500 0.950 1_565 S
C508 C509 1.386 . S
C508 C510 1.391 1_565 S
C509 C508 1.386 . S
C509 C513 1.393 . S
C510 H502 0.950 . S
C510 C508 1.391 1_545 S
C510 C511 1.400 1_545 S
C511 C510 1.400 1_565 S
C511 C512 1.398 . S
C511 C517 1.491 1_565 S
C512 H503 0.950 . S
C512 C511 1.398 . S
C512 C513 1.391 . S
C513 H501 0.950 . S
C513 C509 1.393 . S
C513 C512 1.391 . S
C514 H504 0.950 . S
C514 C515 1.386 1_565 S
C514 C516 1.391 . S
C515 C514 1.386 1_545 S
C515 C519 1.393 . S
C516 H505 0.950 . S
C516 C514 1.391 . S
C516 C517 1.400 1_565 S
C517 C511 1.491 1_545 S
C517 C516 1.400 1_545 S
C517 C518 1.398 . S
C518 H506 0.950 . S
C518 C517 1.398 . S
C518 C519 1.391 . S
C519 H507 0.950 . S
C519 C515 1.393 . S
C519 C518 1.391 . S
H520 C528 0.950 . S
H521 C533 0.950 . S
H522 C530 0.950 . S
H523 C532 0.950 . S
H524 C534 0.950 . S
H525 C536 0.950 . S
H526 C538 0.950 . S
H527 C539 0.950 . S
C528 H520 0.950 . S
C528 C529 1.386 . S
C528 C530 1.391 . S
C529 C528 1.386 . S
C529 C533 1.393 . S
C530 H522 0.950 . S
C530 C528 1.391 . S
C530 C531 1.400 . S
C531 C530 1.400 . S
C531 C532 1.398 . S
C531 C537 1.491 . S
C532 H523 0.950 . S
C532 C531 1.398 . S
C532 C533 1.391 . S
C533 H521 0.950 . S
C533 C529 1.393 . S
C533 C532 1.391 . S
C534 H524 0.950 . S
C534 C535 1.386 . S
C534 C536 1.391 . S
C535 C534 1.386 . S
C535 C539 1.393 . S
C536 H525 0.950 . S
C536 C534 1.391 . S
C536 C537 1.400 . S
C537 C531 1.491 . S
C537 C536 1.400 . S
C537 C538 1.398 . S
C538 H526 0.950 . S
C538 C537 1.398 . S
C538 C539 1.391 . S
C539 H527 0.950 . S
C539 C535 1.393 . S
C539 C538 1.391 . S
H540 C548 0.947 . S
H541 C553 0.950 . S
H542 C550 0.950 . S
H543 C552 0.950 . S
H544 C554 0.947 1_545 S
H545 C556 0.950 . S
H546 C558 0.950 . S
H547 C559 0.950 . S
C548 H540 0.947 . S
C548 C549 1.386 . S
C548 C550 1.391 1_545 S
C549 C548 1.386 . S
C549 C553 1.393 . S
C550 H542 0.950 . S
C550 C548 1.391 1_565 S
C550 C551 1.400 1_565 S
C551 C550 1.400 1_545 S
C551 C552 1.398 . S
C551 C557 1.491 1_545 S
C552 H543 0.950 . S
C552 C551 1.398 . S
C552 C553 1.391 . S
C553 H541 0.950 . S
C553 C549 1.393 . S
C553 C552 1.391 . S
C554 H544 0.947 1_565 S
C554 C555 1.387 . S
C554 C556 1.392 1_565 S
C555 C554 1.387 . S
C555 C559 1.393 . S
C556 H545 0.950 . S
C556 C554 1.392 1_545 S
C556 C557 1.400 1_545 S
C557 C551 1.491 1_565 S
C557 C556 1.400 1_565 S
C557 C558 1.398 . S
C558 H546 0.950 . S
C558 C557 1.398 . S
C558 C559 1.391 . S
C559 H547 0.950 . S
C559 C555 1.393 . S
C559 C558 1.391 . S
H560 C568 0.950 . S
H561 C573 0.950 . S
H562 C570 0.950 . S
H563 C572 0.950 . S
H564 C574 0.950 . S
H565 C576 0.950 . S
H566 C578 0.950 . S
H567 C579 0.950 . S
C568 H560 0.950 . S
C568 C569 1.386 . S
C568 C570 1.391 . S
C569 C568 1.386 . S
C569 C573 1.393 . S
C570 H562 0.950 . S
C570 C568 1.391 . S
C570 C571 1.400 . S
C571 C570 1.400 . S
C571 C572 1.398 . S
C571 C577 1.491 . S
C572 H563 0.950 . S
C572 C571 1.398 . S
C572 C573 1.391 . S
C573 H561 0.950 . S
C573 C569 1.393 . S
C573 C572 1.391 . S
C574 H564 0.950 . S
C574 C575 1.386 . S
C574 C576 1.391 . S
C575 C574 1.386 . S
C575 C579 1.393 . S
C576 H565 0.950 . S
C576 C574 1.391 . S
C576 C577 1.400 . S
C577 C571 1.491 . S
C577 C576 1.400 . S
C577 C578 1.398 . S
C578 H566 0.950 . S
C578 C577 1.398 . S
C578 C579 1.391 . S
C579 H567 0.950 . S
C579 C575 1.393 . S
C579 C578 1.391 . S
H580 C588 0.950 . S
H581 C593 0.952 1_455 S
H582 C590 0.950 . S
H583 C592 0.950 . S
H584 C594 0.950 . S
H585 C596 0.950 . S
H586 C598 0.950 . S
H587 C599 0.953 1_655 S
C588 H580 0.950 . S
C588 C589 1.386 . S
C588 C590 1.391 . S
C589 C588 1.386 . S
C589 C593 1.393 . S
C590 H582 0.950 . S
C590 C588 1.391 . S
C590 C591 1.400 . S
C591 C590 1.400 . S
C591 C592 1.398 1_655 S
C591 C597 1.491 1_655 S
C592 H583 0.950 . S
C592 C591 1.398 1_455 S
C592 C593 1.391 1_455 S
C593 H581 0.952 1_655 S
C593 C589 1.393 . S
C593 C592 1.391 1_655 S
C594 H584 0.950 . S
C594 C595 1.386 . S
C594 C596 1.391 . S
C595 C594 1.386 . S
C595 C599 1.393 . S
C596 H585 0.950 . S
C596 C594 1.391 . S
C596 C597 1.400 . S
C597 C591 1.491 1_455 S
C597 C596 1.400 . S
C597 C598 1.398 1_455 S
C598 H586 0.950 . S
C598 C597 1.398 1_655 S
C598 C599 1.391 1_655 S
C599 H587 0.953 1_455 S
C599 C595 1.393 . S
C599 C598 1.391 1_455 S
H600 C608 0.950 . S
H601 C613 0.950 . S
H602 C610 0.950 . S
H603 C612 0.950 . S
H604 C614 0.950 . S
H605 C616 0.950 . S
H606 C618 0.944 . S
H607 C619 0.950 . S
C608 H600 0.950 . S
C608 C609 1.386 . S
C608 C610 1.391 . S
C609 C608 1.386 . S
C609 C613 1.393 . S
C610 H602 0.950 . S
C610 C608 1.391 . S
C610 C611 1.400 . S
C611 C610 1.400 . S
C611 C612 1.398 . S
C611 C617 1.491 1_455 S
C612 H603 0.950 . S
C612 C611 1.398 . S
C612 C613 1.391 . S
C613 H601 0.950 . S
C613 C609 1.393 . S
C613 C612 1.391 . S
C614 H604 0.950 . S
C614 C615 1.386 . S
C614 C616 1.391 . S
C615 C614 1.386 . S
C615 C619 1.393 . S
C616 H605 0.950 . S
C616 C614 1.391 . S
C616 C617 1.400 . S
C617 C611 1.491 1_655 S
C617 C616 1.400 . S
C617 C618 1.398 . S
C618 H606 0.944 . S
C618 C617 1.398 . S
C618 C619 1.391 . S
C619 H607 0.950 . S
C619 C615 1.393 . S
C619 C618 1.391 . S
H620 C628 0.950 . S
H621 C633 0.950 . S
H622 C630 0.950 . S
H623 C632 0.950 . S
H624 C634 0.950 . S
H625 C636 0.950 . S
H626 C638 0.950 . S
H627 C639 0.991 . S
C628 H620 0.950 . S
C628 C629 1.386 . S
C628 C630 1.391 . S
C629 C628 1.386 . S
C629 C633 1.393 1_565 S
C630 H622 0.950 . S
C630 C628 1.391 . S
C630 C631 1.400 . S
C631 C630 1.400 . S
C631 C632 1.398 1_565 S
C631 C637 1.491 1_565 S
C632 H623 0.950 . S
C632 C631 1.398 1_545 S
C632 C633 1.391 . S
C633 H621 0.950 . S
C633 C629 1.393 1_545 S
C633 C632 1.391 . S
C634 H624 0.950 . S
C634 C635 1.386 . S
C634 C636 1.391 . S
C635 C634 1.386 . S
C635 C639 1.338 1_545 S
C636 H625 0.950 . S
C636 C634 1.391 . S
C636 C637 1.400 . S
C637 C631 1.491 1_545 S
C637 C636 1.400 . S
C637 C638 1.398 1_545 S
C638 H626 0.950 . S
C638 C637 1.398 1_565 S
C638 C639 1.406 . S
C639 H627 0.991 . S
C639 C635 1.338 1_565 S
C639 C638 1.406 . S
H640 C648 0.950 . S
H641 C653 0.950 . S
H642 C650 0.950 . S
H643 C652 0.950 . S
H644 C654 0.950 . S
H645 C656 0.950 . S
H646 C658 0.950 . S
H647 C659 0.950 . S
C648 H640 0.950 . S
C648 C649 1.386 . S
C648 C650 1.391 . S
C649 C648 1.386 . S
C649 C653 1.393 . S
C650 H642 0.950 . S
C650 C648 1.391 . S
C650 C651 1.400 . S
C651 C650 1.400 . S
C651 C652 1.398 . S
C651 C657 1.491 . S
C652 H643 0.950 . S
C652 C651 1.398 . S
C652 C653 1.391 . S
C653 H641 0.950 . S
C653 C649 1.393 . S
C653 C652 1.391 . S
C654 H644 0.950 . S
C654 C655 1.386 . S
C654 C656 1.391 . S
C655 C654 1.386 . S
C655 C659 1.393 . S
C656 H645 0.950 . S
C656 C654 1.391 . S
C656 C657 1.400 . S
C657 C651 1.491 . S
C657 C656 1.400 . S
C657 C658 1.398 . S
C658 H646 0.950 . S
C658 C657 1.398 . S
C658 C659 1.391 . S
C659 H647 0.950 . S
C659 C655 1.393 . S
C659 C658 1.391 . S
H660 C668 0.950 . S
H661 C673 0.950 . S
H662 C670 0.950 . S
H663 C672 0.950 . S
H664 C674 0.950 1_655 S
H665 C676 0.950 . S
H666 C678 0.950 . S
H667 C679 0.950 . S
C668 H660 0.950 . S
C668 C669 1.386 1_455 S
C668 C670 1.391 . S
C669 C668 1.386 1_655 S
C669 C673 1.393 . S
C670 H662 0.950 . S
C670 C668 1.391 . S
C670 C671 1.400 1_455 S
C671 C670 1.400 1_655 S
C671 C672 1.398 . S
C671 C677 1.491 1_655 S
C672 H663 0.950 . S
C672 C671 1.398 . S
C672 C673 1.391 . S
C673 H661 0.950 . S
C673 C669 1.393 . S
C673 C672 1.391 . S
C674 H664 0.950 1_455 S
C674 C675 1.386 . S
C674 C676 1.391 1_455 S
C675 C674 1.386 . S
C675 C679 1.393 . S
C676 H665 0.950 . S
C676 C674 1.391 1_655 S
C676 C677 1.400 1_655 S
C677 C671 1.491 1_455 S
C677 C676 1.400 1_455 S
C677 C678 1.398 . S
C678 H666 0.950 . S
C678 C677 1.398 . S
C678 C679 1.391 . S
C679 H667 0.950 . S
C679 C675 1.393 . S
C679 C678 1.391 . S
H680 C688 0.950 . S
H681 C693 0.950 . S
H682 C690 0.950 . S
H683 C692 0.950 . S
H684 C694 0.950 . S
H685 C696 0.950 . S
H686 C698 0.950 . S
H687 C699 0.950 . S
C688 H680 0.950 . S
C688 C689 1.386 . S
C688 C690 1.391 . S
C689 C688 1.386 . S
C689 C693 1.393 . S
C690 H682 0.950 . S
C690 C688 1.391 . S
C690 C691 1.400 . S
C691 C690 1.400 . S
C691 C692 1.398 . S
C691 C697 1.491 1_545 S
C692 H683 0.950 . S
C692 C691 1.398 . S
C692 C693 1.391 . S
C693 H681 0.950 . S
C693 C689 1.393 . S
C693 C692 1.391 . S
C694 H684 0.950 . S
C694 C695 1.386 . S
C694 C696 1.391 . S
C695 C694 1.386 . S
C695 C699 1.393 . S
C696 H685 0.950 . S
C696 C694 1.391 . S
C696 C697 1.400 . S
C697 C691 1.491 1_565 S
C697 C696 1.400 . S
C697 C698 1.398 . S
C698 H686 0.950 . S
C698 C697 1.398 . S
C698 C699 1.391 . S
C699 H687 0.950 . S
C699 C695 1.393 . S
C699 C698 1.391 . S
H700 C708 0.950 . S
H701 C713 0.950 . S
H702 C710 0.950 . S
H703 C712 0.950 . S
H704 C714 0.950 . S
H705 C716 0.950 . S
H706 C718 0.950 . S
H707 C719 0.950 . S
C708 H700 0.950 . S
C708 C709 1.386 . S
C708 C710 1.391 . S
C709 C708 1.386 . S
C709 C713 1.393 . S
C710 H702 0.950 . S
C710 C708 1.391 . S
C710 C711 1.400 . S
C711 C710 1.400 . S
C711 C712 1.398 . S
C711 C717 1.491 . S
C712 H703 0.950 . S
C712 C711 1.398 . S
C712 C713 1.391 . S
C713 H701 0.950 . S
C713 C709 1.393 . S
C713 C712 1.391 . S
C714 H704 0.950 . S
C714 C715 1.386 . S
C714 C716 1.391 . S
C715 C714 1.386 . S
C715 C719 1.393 . S
C716 H705 0.950 . S
C716 C714 1.391 . S
C716 C717 1.400 . S
C717 C711 1.491 . S
C717 C716 1.400 . S
C717 C718 1.398 . S
C718 H706 0.950 . S
C718 C717 1.398 . S
C718 C719 1.391 . S
C719 H707 0.950 . S
C719 C715 1.393 . S
C719 C718 1.391 . S
H720 C728 0.953 1_554 S
H721 C733 0.950 . S
H722 C730 0.950 . S
H723 C732 0.950 . S
H724 C734 0.950 . S
H725 C736 0.950 . S
H726 C738 0.950 . S
H727 C739 0.950 . S
C728 H720 0.953 1_556 S
C728 C729 1.381 . S
C728 C730 1.393 1_556 S
C729 C728 1.381 . S
C729 C733 1.393 . S
C730 H722 0.950 . S
C730 C728 1.393 1_554 S
C730 C731 1.400 1_554 S
C731 C730 1.400 1_556 S
C731 C732 1.398 . S
C731 C737 1.500 . S
C732 H723 0.950 . S
C732 C731 1.398 . S
C732 C733 1.391 . S
C733 H721 0.950 . S
C733 C729 1.393 . S
C733 C732 1.391 . S
C734 H724 0.950 . S
C734 C735 1.386 1_556 S
C734 C736 1.391 . S
C735 C734 1.386 1_554 S
C735 C739 1.393 . S
C736 H725 0.950 . S
C736 C734 1.391 . S
C736 C737 1.420 . S
C737 C731 1.500 . S
C737 C736 1.420 . S
C737 C738 1.369 1_556 S
C738 H726 0.950 . S
C738 C737 1.369 1_554 S
C738 C739 1.391 . S
C739 H727 0.950 . S
C739 C735 1.393 . S
C739 C738 1.391 . S
H740 C748 0.950 . S
H741 C753 0.950 . S
H742 C750 0.950 . S
H743 C752 0.950 . S
H744 C754 0.950 . S
H745 C756 0.950 . S
H746 C758 0.950 . S
H747 C759 0.950 . S
C748 H740 0.950 . S
C748 C749 1.386 . S
C748 C750 1.391 . S
C749 C748 1.386 . S
C749 C753 1.393 . S
C750 H742 0.950 . S
C750 C748 1.391 . S
C750 C751 1.400 . S
C751 C750 1.400 . S
C751 C752 1.398 . S
C751 C757 1.491 . S
C752 H743 0.950 . S
C752 C751 1.398 . S
C752 C753 1.391 . S
C753 H741 0.950 . S
C753 C749 1.393 . S
C753 C752 1.391 . S
C754 H744 0.950 . S
C754 C755 1.386 . S
C754 C756 1.391 . S
C755 C754 1.386 . S
C755 C759 1.393 . S
C756 H745 0.950 . S
C756 C754 1.391 . S
C756 C757 1.400 . S
C757 C751 1.491 . S
C757 C756 1.400 . S
C757 C758 1.398 . S
C758 H746 0.950 . S
C758 C757 1.398 . S
C758 C759 1.391 . S
C759 H747 0.950 . S
C759 C755 1.393 . S
C759 C758 1.391 . S
H760 C768 0.950 . S
H761 C773 0.950 . S
H762 C770 0.950 . S
H763 C772 0.950 . S
H764 C774 0.950 . S
H765 C776 0.950 . S
H766 C778 0.950 . S
H767 C779 0.950 . S
C768 H760 0.950 . S
C768 C769 1.386 . S
C768 C770 1.391 . S
C769 C768 1.386 . S
C769 C773 1.393 . S
C770 H762 0.950 . S
C770 C768 1.391 . S
C770 C771 1.400 . S
C771 C770 1.400 . S
C771 C772 1.398 . S
C771 C777 1.491 . S
C772 H763 0.950 . S
C772 C771 1.398 . S
C772 C773 1.391 . S
C773 H761 0.950 . S
C773 C769 1.393 . S
C773 C772 1.391 . S
C774 H764 0.950 . S
C774 C775 1.386 . S
C774 C776 1.391 . S
C775 C774 1.386 . S
C775 C779 1.393 . S
C776 H765 0.950 . S
C776 C774 1.391 . S
C776 C777 1.400 . S
C777 C771 1.491 . S
C777 C776 1.400 . S
C777 C778 1.398 . S
C778 H766 0.950 . S
C778 C777 1.398 . S
C778 C779 1.391 . S
C779 H767 0.950 . S
C779 C775 1.393 . S
C779 C778 1.391 . S
H780 C788 0.950 . S
H781 C793 0.950 . S
H782 C790 0.950 . S
H783 C792 0.950 . S
H784 C794 0.950 . S
H785 C796 0.950 . S
H786 C798 0.950 . S
H787 C799 0.950 . S
C788 H780 0.950 . S
C788 C789 1.386 1_556 S
C788 C790 1.391 . S
C789 C788 1.386 1_554 S
C789 C793 1.393 . S
C790 H782 0.950 . S
C790 C788 1.391 . S
C790 C791 1.400 1_556 S
C791 C790 1.400 1_554 S
C791 C792 1.398 . S
C791 C797 1.502 . S
C792 H783 0.950 . S
C792 C791 1.398 . S
C792 C793 1.391 . S
C793 H781 0.950 . S
C793 C789 1.393 . S
C793 C792 1.391 . S
C794 H784 0.950 . S
C794 C795 1.386 1_554 S
C794 C796 1.391 . S
C795 C794 1.386 1_556 S
C795 C799 1.393 . S
C796 H785 0.950 . S
C796 C794 1.391 . S
C796 C797 1.433 . S
C797 C791 1.502 . S
C797 C796 1.433 . S
C797 C798 1.355 1_554 S
C798 H786 0.950 . S
C798 C797 1.355 1_556 S
C798 C799 1.391 . S
C799 H787 0.950 . S
C799 C795 1.393 . S
C799 C798 1.391 . S
H800 C808 0.950 . S
H801 C813 0.950 . S
H802 C810 0.950 . S
H803 C812 0.950 . S
H804 C814 0.950 . S
H805 C816 0.950 . S
H806 C818 0.950 . S
H807 C819 0.950 . S
C808 H800 0.950 . S
C808 C809 1.386 . S
C808 C810 1.391 . S
C809 C808 1.386 . S
C809 C813 1.393 . S
C810 H802 0.950 . S
C810 C808 1.391 . S
C810 C811 1.400 . S
C811 C810 1.400 . S
C811 C812 1.398 . S
C811 C817 1.491 . S
C812 H803 0.950 . S
C812 C811 1.398 . S
C812 C813 1.391 . S
C813 H801 0.950 . S
C813 C809 1.393 . S
C813 C812 1.391 . S
C814 H804 0.950 . S
C814 C815 1.386 . S
C814 C816 1.391 . S
C815 C814 1.386 . S
C815 C819 1.393 . S
C816 H805 0.950 . S
C816 C814 1.391 . S
C816 C817 1.400 . S
C817 C811 1.491 . S
C817 C816 1.400 . S
C817 C818 1.398 . S
C818 H806 0.950 . S
C818 C817 1.398 . S
C818 C819 1.391 . S
C819 H807 0.950 . S
C819 C815 1.393 . S
C819 C818 1.391 . S
H820 C828 0.950 . S
H821 C833 0.950 . S
H822 C830 0.950 . S
H823 C832 0.950 . S
H824 C834 0.950 . S
H825 C836 0.950 . S
H826 C838 0.950 . S
H827 C839 0.950 . S
C828 H820 0.950 . S
C828 C829 1.386 . S
C828 C830 1.391 . S
C829 C828 1.386 . S
C829 C833 1.393 . S
C830 H822 0.950 . S
C830 C828 1.391 . S
C830 C831 1.400 . S
C831 C830 1.400 . S
C831 C832 1.398 . S
C831 C837 1.491 . S
C832 H823 0.950 . S
C832 C831 1.398 . S
C832 C833 1.391 . S
C833 H821 0.950 . S
C833 C829 1.393 . S
C833 C832 1.391 . S
C834 H824 0.950 . S
C834 C835 1.386 . S
C834 C836 1.391 . S
C835 C834 1.386 . S
C835 C839 1.393 . S
C836 H825 0.950 . S
C836 C834 1.391 . S
C836 C837 1.400 . S
C837 C831 1.491 . S
C837 C836 1.400 . S
C837 C838 1.398 . S
C838 H826 0.950 . S
C838 C837 1.398 . S
C838 C839 1.391 . S
C839 H827 0.950 . S
C839 C835 1.393 . S
C839 C838 1.391 . S
C489 C141 2.217 . S
C495 C21 2.202 . S
C509 C61 2.212 . S
C515 C181 2.203 . S
C529 C202 2.322 . S
C535 C101 2.175 . S
C549 C261 2.212 . S
C555 C381 2.204 . S
C569 C421 2.225 . S
C575 C301 2.216 . S
C589 C322 2.320 . S
C595 C461 2.168 . S
C609 C442 2.177 . S
C615 C2 2.173 . S
C629 C42 2.179 . S
C635 C242 2.173 . S
C649 C82 2.177 . S
C655 C282 2.174 . S
C669 C341 2.336 . S
C675 C122 2.187 . S
C689 C162 2.210 . S
C695 C362 2.209 . S
C709 C402 2.180 . S
C715 C221 2.336 . S
C729 C415 2.117 . S
C735 C15 2.122 . S
C749 C455 2.121 . S
C755 C55 2.122 . S
C769 C95 2.110 . S
C775 C255 2.103 . S
C789 C135 2.118 . S
C795 C295 2.125 . S
C809 C175 2.140 . S
C815 C335 2.157 . S
C829 C215 2.140 . S
C835 C375 2.135 . S
