# Generated by pormake.
# Topology uke, (4)-cn, num edge types: 1
# Building blocks:
#     Node 0, Type 0, BuildingBlock: QUQFOY_clean_sbu_3, # of connection points: 4
#     Node 1, Type 0, BuildingBlock: QUQFOY_clean_sbu_3, # of connection points: 4
#     Node 2, Type 0, BuildingBlock: QUQFOY_clean_sbu_3, # of connection points: 4
#     Node 3, Type 0, BuildingBlock: QUQFOY_clean_sbu_3, # of connection points: 4
#     Node 4, Type 0, BuildingBlock: QUQFOY_clean_sbu_3, # of connection points: 4
#     Node 5, Type 0, BuildingBlock: QUQFOY_clean_sbu_3, # of connection points: 4
#     Node 6, Type 0, BuildingBlock: QUQFOY_clean_sbu_3, # of connection points: 4
#     Node 7, Type 0, BuildingBlock: QUQFOY_clean_sbu_3, # of connection points: 4
#     Node 8, Type 0, BuildingBlock: QUQFOY_clean_sbu_3, # of connection points: 4
#     Node 9, Type 0, BuildingBlock: QUQFOY_clean_sbu_3, # of connection points: 4
#     Node 10, Type 0, BuildingBlock: QUQFOY_clean_sbu_3, # of connection points: 4
#     Node 11, Type 0, BuildingBlock: QUQFOY_clean_sbu_3, # of connection points: 4
#     Node 12, Type 0, BuildingBlock: QUQFOY_clean_sbu_3, # of connection points: 4
#     Node 13, Type 0, BuildingBlock: QUQFOY_clean_sbu_3, # of connection points: 4
#     Node 14, Type 0, BuildingBlock: QUQFOY_clean_sbu_3, # of connection points: 4
#     Node 15, Type 0, BuildingBlock: QUQFOY_clean_sbu_3, # of connection points: 4
#     Node 16, Type 0, BuildingBlock: QUQFOY_clean_sbu_3, # of connection points: 4
#     Node 17, Type 0, BuildingBlock: QUQFOY_clean_sbu_3, # of connection points: 4
#     Node 18, Type 0, BuildingBlock: QUQFOY_clean_sbu_3, # of connection points: 4
#     Node 19, Type 0, BuildingBlock: QUQFOY_clean_sbu_3, # of connection points: 4
#     Node 20, Type 0, BuildingBlock: QUQFOY_clean_sbu_3, # of connection points: 4
#     Node 21, Type 0, BuildingBlock: QUQFOY_clean_sbu_3, # of connection points: 4
#     Node 22, Type 0, BuildingBlock: QUQFOY_clean_sbu_3, # of connection points: 4
#     Node 23, Type 0, BuildingBlock: QUQFOY_clean_sbu_3, # of connection points: 4
#     Node 24, Type 0, BuildingBlock: QUQFOY_clean_sbu_3, # of connection points: 4
#     Node 25, Type 0, BuildingBlock: QUQFOY_clean_sbu_3, # of connection points: 4
#     Node 26, Type 0, BuildingBlock: QUQFOY_clean_sbu_3, # of connection points: 4
#     Node 27, Type 0, BuildingBlock: QUQFOY_clean_sbu_3, # of connection points: 4
#     Node 28, Type 0, BuildingBlock: QUQFOY_clean_sbu_3, # of connection points: 4
#     Node 29, Type 0, BuildingBlock: QUQFOY_clean_sbu_3, # of connection points: 4
#     Node 30, Type 0, BuildingBlock: QUQFOY_clean_sbu_3, # of connection points: 4
#     Node 31, Type 0, BuildingBlock: QUQFOY_clean_sbu_3, # of connection points: 4
#     Edge 32, Type (0, 0), None
#     Edge 33, Type (0, 0), None
#     Edge 34, Type (0, 0), None
#     Edge 35, Type (0, 0), None
#     Edge 36, Type (0, 0), None
#     Edge 37, Type (0, 0), None
#     Edge 38, Type (0, 0), None
#     Edge 39, Type (0, 0), None
#     Edge 40, Type (0, 0), None
#     Edge 41, Type (0, 0), None
#     Edge 42, Type (0, 0), None
#     Edge 43, Type (0, 0), None
#     Edge 44, Type (0, 0), None
#     Edge 45, Type (0, 0), None
#     Edge 46, Type (0, 0), None
#     Edge 47, Type (0, 0), None
#     Edge 48, Type (0, 0), None
#     Edge 49, Type (0, 0), None
#     Edge 50, Type (0, 0), None
#     Edge 51, Type (0, 0), None
#     Edge 52, Type (0, 0), None
#     Edge 53, Type (0, 0), None
#     Edge 54, Type (0, 0), None
#     Edge 55, Type (0, 0), None
#     Edge 56, Type (0, 0), None
#     Edge 57, Type (0, 0), None
#     Edge 58, Type (0, 0), None
#     Edge 59, Type (0, 0), None
#     Edge 60, Type (0, 0), None
#     Edge 61, Type (0, 0), None
#     Edge 62, Type (0, 0), None
#     Edge 63, Type (0, 0), None
#     Edge 64, Type (0, 0), None
#     Edge 65, Type (0, 0), None
#     Edge 66, Type (0, 0), None
#     Edge 67, Type (0, 0), None
#     Edge 68, Type (0, 0), None
#     Edge 69, Type (0, 0), None
#     Edge 70, Type (0, 0), None
#     Edge 71, Type (0, 0), None
#     Edge 72, Type (0, 0), None
#     Edge 73, Type (0, 0), None
#     Edge 74, Type (0, 0), None
#     Edge 75, Type (0, 0), None
#     Edge 76, Type (0, 0), None
#     Edge 77, Type (0, 0), None
#     Edge 78, Type (0, 0), None
#     Edge 79, Type (0, 0), None
#     Edge 80, Type (0, 0), None
#     Edge 81, Type (0, 0), None
#     Edge 82, Type (0, 0), None
#     Edge 83, Type (0, 0), None
#     Edge 84, Type (0, 0), None
#     Edge 85, Type (0, 0), None
#     Edge 86, Type (0, 0), None
#     Edge 87, Type (0, 0), None
#     Edge 88, Type (0, 0), None
#     Edge 89, Type (0, 0), None
#     Edge 90, Type (0, 0), None
#     Edge 91, Type (0, 0), None
#     Edge 92, Type (0, 0), None
#     Edge 93, Type (0, 0), None
#     Edge 94, Type (0, 0), None
#     Edge 95, Type (0, 0), None
# Relax obj value: 0.075
# Max RMSD: 0.173
# Mean RMSD: 0.173
data_MOF--net-uke--node1-QUQFOY_clean_sbu_3--edge1-none
_symmetry_space_group_name_H-M    P1
_symmetry_Int_Tables_number       1
_symmetry_cell_setting            triclinic
loop_
_symmetry_equiv_pos_as_xyz
'x, y, z'
_cell_length_a     10.394534
_cell_length_b     54.365769
_cell_length_c     28.437864
_cell_angle_alpha  89.98692
_cell_angle_beta   89.993438
_cell_angle_gamma 90.032487
loop_
_atom_site_label
_atom_site_type_symbol
_atom_site_fract_x
_atom_site_fract_y
_atom_site_fract_z
_atom_type_partial_charge
C0 C 0.22129 -0.03858 0.1929 0.0
O1 O 0.31995 -0.02479 0.19522 0.0
Cd2 Cd 0.3149 0.01951 0.18281 0.0
O3 O 0.10914 -0.02957 0.19431 0.0
Cd4 Cd 0.02396 0.01101 0.20912 0.0
C5 C 0.11644 0.01403 0.09111 0.0
O6 O 0.1675 0.04369 0.22924 0.0
O7 O -0.02112 0.05322 0.19922 0.0
O8 O 0.00989 0.00175 0.29191 0.0
C9 C 0.08716 0.06007 0.21541 0.0
O10 O 0.23009 0.01885 0.10469 0.0
C11 C 0.88757 0.00151 0.29311 0.0
O12 O 0.02491 0.01007 0.12056 0.0
O13 O 0.82715 0.00422 0.25419 0.0
C14 C -0.01376 0.18474 0.19288 0.0
O15 O 0.88755 0.17096 0.19526 0.0
Cd16 Cd 0.8923 0.12665 0.18289 0.0
O17 O 0.09837 0.17572 0.19425 0.0
Cd18 Cd 0.1832 0.13511 0.20909 0.0
C19 C 0.09043 0.1321 0.0911 0.0
O20 O 0.03969 0.10243 0.22925 0.0
O21 O 0.22827 0.0929 0.19918 0.0
O22 O 0.1972 0.14436 0.29188 0.0
C23 C 0.12 0.08605 0.2154 0.0
O24 O 0.97679 0.12729 0.10472 0.0
C25 C 0.31952 0.14459 0.29308 0.0
O26 O 0.18201 0.13604 0.12052 0.0
O27 O 0.37998 0.14188 0.25417 0.0
C28 C 0.22116 0.18472 0.93861 0.0
O29 O 0.31978 0.17095 0.93631 0.0
Cd30 Cd 0.31471 0.12664 -0.0513 0.0
O31 O 0.10898 0.1757 0.93718 0.0
Cd32 Cd 0.02367 0.1351 0.92242 0.0
C33 C 0.1162 0.1321 0.04041 0.0
O34 O 0.16725 0.10246 0.90226 0.0
O35 O -0.02137 0.09287 0.93226 0.0
O36 O 0.00961 0.14439 0.83964 0.0
C37 C 0.08696 0.08606 0.91607 0.0
O38 O 0.22983 0.12729 0.02682 0.0
C39 C 0.88729 0.14461 0.83844 0.0
O40 O 0.02466 0.13604 0.01098 0.0
O41 O 0.82685 0.14187 0.87735 0.0
C42 C -0.01391 -0.03862 0.93862 0.0
O43 O 0.88741 -0.02486 0.9363 0.0
Cd44 Cd 0.89229 0.01944 -0.0513 0.0
O45 O 0.09822 -0.02959 0.93722 0.0
Cd46 Cd 0.18324 0.01104 0.92243 0.0
C47 C 0.09064 0.01402 0.04043 0.0
O48 O 0.03963 0.04368 0.90226 0.0
O49 O 0.22821 0.05327 0.93228 0.0
O50 O 0.19737 0.00177 0.83966 0.0
C51 C 0.11989 0.06008 0.91608 0.0
O52 O 0.97699 0.01881 0.02684 0.0
C53 C 0.31969 0.00155 0.83846 0.0
O54 O 0.1822 0.0101 0.01099 0.0
O55 O 0.3801 0.0043 0.87738 0.0
C56 C 0.73574 0.93473 0.68867 0.0
O57 O 0.63705 0.92096 0.68633 0.0
Cd58 Cd 0.64201 0.87666 0.69878 0.0
O59 O 0.84786 0.92572 0.68728 0.0
Cd60 Cd 0.93263 0.88511 0.67245 0.0
C61 C 0.84039 0.88211 0.79047 0.0
O62 O 0.78917 0.85239 0.6524 0.0
O63 O 0.97786 0.84291 0.68245 0.0
O64 O 0.94652 0.89433 0.58963 0.0
C65 C 0.86961 0.83604 0.66626 0.0
O66 O 0.72671 0.87731 0.77691 0.0
C67 C 0.06884 0.89457 0.58839 0.0
O68 O 0.93189 0.88606 0.76101 0.0
O69 O 0.12933 0.89187 0.6273 0.0
C70 C 0.97096 0.71135 0.68877 0.0
O71 O 0.06964 0.72514 0.68637 0.0
Cd72 Cd 0.06467 0.76944 0.69882 0.0
O73 O 0.85885 0.72036 0.68743 0.0
Cd74 Cd 0.77404 0.76097 0.67255 0.0
C75 C 0.86642 0.76397 0.79056 0.0
O76 O 0.91743 0.79369 0.65244 0.0
O77 O 0.72872 0.80317 0.68248 0.0
O78 O 0.76039 0.75172 0.58974 0.0
C79 C 0.83698 0.81004 0.66628 0.0
O80 O -0.01992 0.76878 0.77697 0.0
C81 C 0.63808 0.75147 0.58847 0.0
O82 O 0.77489 0.76003 0.76112 0.0
O83 O 0.57747 0.75418 0.62736 0.0
C84 C 0.73583 0.71136 -0.05696 0.0
O85 O 0.63722 0.72513 -0.05464 0.0
Cd86 Cd 0.64225 0.76944 0.93298 0.0
O87 O 0.84802 0.72038 -0.05553 0.0
Cd88 Cd 0.93317 0.76099 -0.04076 0.0
C89 C 0.8406 0.76398 0.84124 0.0
O90 O 0.78968 0.79365 -0.02062 0.0
O91 O 0.97829 0.80322 -0.05067 0.0
O92 O 0.94741 0.75173 0.04203 0.0
C93 C 0.87001 0.81005 -0.03446 0.0
O94 O 0.72697 0.76879 0.85483 0.0
C95 C 0.06973 0.75151 0.04319 0.0
O96 O 0.93213 0.76004 0.87068 0.0
O97 O 0.13008 0.75424 0.00425 0.0
C98 C 0.97136 0.93471 -0.05705 0.0
O99 O 0.07002 0.92095 -0.05474 0.0
Cd100 Cd 0.06484 0.87664 0.93283 0.0
O101 O 0.85922 0.92568 -0.05563 0.0
Cd102 Cd 0.77397 0.88508 -0.04084 0.0
C103 C 0.86628 0.88211 0.84115 0.0
O104 O 0.91752 0.85242 -0.02069 0.0
O105 O 0.72888 0.84285 -0.05067 0.0
O106 O 0.75978 0.89436 0.04193 0.0
C107 C 0.83718 0.83603 -0.03448 0.0
O108 O -0.02006 0.87731 0.85471 0.0
C109 C 0.63746 0.89459 0.04311 0.0
O110 O 0.77478 0.88604 0.87061 0.0
O111 O 0.57709 0.89184 0.00419 0.0
C112 C 0.2211 0.46127 0.69298 0.0
O113 O 0.31976 0.47506 0.69529 0.0
Cd114 Cd 0.3149 0.51936 0.68285 0.0
O115 O 0.10897 0.47028 0.69435 0.0
Cd116 Cd 0.02431 0.51092 0.70908 0.0
C117 C 0.11684 0.51396 0.59108 0.0
O118 O 0.16774 0.54364 0.7292 0.0
O119 O -0.02084 0.55312 0.69907 0.0
O120 O 0.01008 0.50172 0.79189 0.0
C121 C 0.08733 0.55999 0.71532 0.0
O122 O 0.2305 0.51876 0.60468 0.0
C123 C 0.88776 0.50149 0.79307 0.0
O124 O 0.0253 0.51 0.62052 0.0
O125 O 0.8274 0.50419 0.75413 0.0
C126 C -0.01427 0.68469 0.69308 0.0
O127 O 0.88706 0.67091 0.69549 0.0
Cd128 Cd 0.89213 0.62662 0.68292 0.0
O129 O 0.09784 0.67568 0.69434 0.0
Cd130 Cd 0.1828 0.63507 0.70908 0.0
C131 C 0.09005 0.63217 0.5911 0.0
O132 O 0.0395 0.60234 0.72921 0.0
O133 O 0.22813 0.59288 0.69909 0.0
O134 O 0.1968 0.64432 0.79187 0.0
C135 C 0.11994 0.58599 0.71533 0.0
O136 O 0.97644 0.62734 0.60472 0.0
C137 C 0.31912 0.64458 0.79307 0.0
O138 O 0.18164 0.63609 0.62052 0.0
O139 O 0.37957 0.64187 0.75416 0.0
C140 C 0.22047 0.68487 0.43852 0.0
O141 O 0.3191 0.67109 0.43627 0.0
Cd142 Cd 0.31424 0.62679 0.44868 0.0
O143 O 0.10831 0.67585 0.43709 0.0
Cd144 Cd 0.02321 0.63521 0.42241 0.0
C145 C 0.11579 0.6322 0.54041 0.0
O146 O 0.16693 0.60258 0.40225 0.0
O147 O 0.97841 0.59296 0.43229 0.0
O148 O 0.00907 0.64445 0.33963 0.0
C149 C 0.08673 0.58616 0.41608 0.0
O150 O 0.22943 0.62741 0.5268 0.0
C151 C 0.88676 0.64465 0.33842 0.0
O152 O 0.02422 0.63613 0.51099 0.0
O153 O 0.82632 0.64191 0.37734 0.0
C154 C -0.01401 0.46148 0.43851 0.0
O155 O 0.8873 0.47523 0.43619 0.0
Cd156 Cd 0.89234 0.51952 0.44874 0.0
O157 O 0.09811 0.47052 0.43714 0.0
Cd158 Cd 0.18327 0.51114 0.42238 0.0
C159 C 0.091 0.514 0.5404 0.0
O160 O 0.03952 0.54377 0.40227 0.0
O161 O 0.22813 0.55339 0.43223 0.0
O162 O 0.19728 0.50183 0.33962 0.0
C163 C 0.11975 0.56019 0.41607 0.0
O164 O 0.97734 0.5188 0.52684 0.0
C165 C 0.31959 0.5016 0.3384 0.0
O166 O 0.18253 0.51011 0.51093 0.0
O167 O 0.38005 0.50437 0.37729 0.0
C168 C 0.73575 0.43472 0.1885 0.0
O169 O 0.63715 0.42093 0.1862 0.0
Cd170 Cd 0.64236 0.37662 0.19865 0.0
O171 O 0.84794 0.42572 0.18708 0.0
Cd172 Cd 0.93316 0.38514 0.17232 0.0
C173 C 0.8408 0.38215 0.29033 0.0
O174 O 0.78975 0.35243 0.15223 0.0
O175 O 0.9784 0.34294 0.18227 0.0
O176 O 0.94729 0.39438 0.08952 0.0
C177 C 0.87016 0.33607 0.16606 0.0
O178 O 0.72716 0.37731 0.27677 0.0
C179 C 0.06961 0.39463 0.08833 0.0
O180 O 0.93229 0.38611 0.26087 0.0
O181 O 0.13 0.39193 0.12726 0.0
C182 C 0.97156 0.2114 0.18852 0.0
O183 O 0.07023 0.22518 0.18615 0.0
Cd184 Cd 0.06522 0.26948 0.19858 0.0
O185 O 0.85943 0.22041 0.18714 0.0
Cd186 Cd 0.77446 0.26101 0.17233 0.0
C187 C 0.86698 0.26399 0.29034 0.0
O188 O 0.91788 0.29372 0.15221 0.0
O189 O 0.72924 0.30321 0.18228 0.0
O190 O 0.76034 0.25177 0.08954 0.0
C191 C 0.83748 0.31008 0.16607 0.0
O192 O -0.01936 0.26881 0.27675 0.0
C193 C 0.63802 0.25152 0.08836 0.0
O194 O 0.77546 0.26005 0.2609 0.0
O195 O 0.57763 0.25423 0.12729 0.0
C196 C 0.73611 0.21137 0.44285 0.0
O197 O 0.63746 0.22514 0.44517 0.0
Cd198 Cd 0.64263 0.26945 0.43271 0.0
O199 O 0.84825 0.2204 0.44425 0.0
Cd200 Cd 0.93334 0.26102 0.45904 0.0
C201 C 0.84113 0.26399 0.34102 0.0
O202 O 0.78986 0.2937 0.47913 0.0
O203 O -0.02145 0.30324 0.44911 0.0
O204 O 0.94724 0.25176 0.54184 0.0
C205 C 0.87027 0.31008 0.4653 0.0
O206 O 0.72747 0.26879 0.35459 0.0
C207 C 0.06956 0.25153 0.54307 0.0
O208 O 0.93262 0.26006 0.37047 0.0
O209 O 0.13006 0.25426 0.50416 0.0
C210 C 0.97135 0.43481 0.44282 0.0
O211 O 0.07004 0.42106 0.44517 0.0
Cd212 Cd 0.06508 0.37675 0.43271 0.0
O213 O 0.85924 0.42576 0.44418 0.0
Cd214 Cd 0.77446 0.38513 0.45903 0.0
C215 C 0.86668 0.38217 0.34101 0.0
O216 O 0.91797 0.35245 0.47912 0.0
O217 O 0.72927 0.34291 0.44913 0.0
O218 O 0.76062 0.39439 0.54183 0.0
C219 C 0.83756 0.33607 0.4653 0.0
O220 O -0.01964 0.37739 0.35458 0.0
C221 C 0.63831 0.39462 0.54307 0.0
O222 O 0.77517 0.38608 0.37047 0.0
O223 O 0.57779 0.39188 0.50417 0.0
C224 C 0.72108 -0.0386 0.693 0.0
O225 O 0.81977 -0.02483 0.69535 0.0
Cd226 Cd 0.81481 0.01947 0.68286 0.0
O227 O 0.60896 -0.02959 0.69436 0.0
Cd228 Cd 0.5241 0.01103 0.70913 0.0
C229 C 0.6166 0.01398 0.59112 0.0
O230 O 0.66757 0.04373 0.72922 0.0
O231 O 0.47896 0.05323 0.69915 0.0
O232 O 0.51003 0.00179 0.79193 0.0
C233 C 0.58719 0.06009 0.71536 0.0
O234 O 0.73025 0.0188 0.6047 0.0
C235 C 0.38771 0.00155 0.79313 0.0
O236 O 0.52506 0.01005 0.62057 0.0
O237 O 0.32728 0.00426 0.75421 0.0
C238 C 0.48597 0.18478 0.69294 0.0
O239 O 0.38729 0.171 0.69528 0.0
Cd240 Cd 0.39221 0.12669 0.68286 0.0
O241 O 0.59809 0.17576 0.69432 0.0
Cd242 Cd 0.68298 0.13515 0.7091 0.0
C243 C 0.59042 0.13215 0.5911 0.0
O244 O 0.53952 0.10244 0.72922 0.0
O245 O 0.72816 0.09295 0.69916 0.0
O246 O 0.69699 0.14438 0.7919 0.0
C247 C 0.6199 0.08608 0.71537 0.0
O248 O 0.47677 0.12734 0.6047 0.0
C249 C 0.8193 0.14462 0.7931 0.0
O250 O 0.68196 0.1361 0.62053 0.0
O251 O 0.87976 0.14192 0.75418 0.0
C252 C 0.72131 0.18471 0.43854 0.0
O253 O 0.81995 0.17094 0.43623 0.0
Cd254 Cd 0.81474 0.12664 0.44871 0.0
O255 O 0.60916 0.17569 0.43715 0.0
Cd256 Cd 0.52384 0.13508 0.42241 0.0
C257 C 0.61624 0.13213 0.54042 0.0
O258 O 0.66737 0.10242 0.40229 0.0
O259 O 0.47874 0.09285 0.4323 0.0
O260 O 0.50981 0.14435 0.33962 0.0
C261 C 0.58703 0.08602 0.41611 0.0
O262 O 0.72988 0.12732 0.52684 0.0
C263 C 0.3875 0.14458 0.33842 0.0
O264 O 0.52472 0.13606 0.51097 0.0
O265 O 0.32704 0.14185 0.37734 0.0
C266 C 0.48572 -0.03865 0.43859 0.0
O267 O 0.38707 -0.02488 0.43633 0.0
Cd268 Cd 0.39221 0.01942 0.44876 0.0
O269 O 0.59787 -0.02962 0.43717 0.0
Cd270 Cd 0.68313 0.01099 0.42243 0.0
C271 C 0.59077 0.01397 0.54044 0.0
O272 O 0.53956 0.04365 0.4023 0.0
O273 O 0.72819 0.05322 0.43229 0.0
O274 O 0.69724 0.00173 0.33965 0.0
C275 C 0.61988 0.06004 0.41611 0.0
O276 O 0.47712 0.01877 0.52686 0.0
C277 C 0.81955 0.00151 0.33845 0.0
O278 O 0.68229 0.01004 0.51099 0.0
O279 O 0.87998 0.00424 0.37737 0.0
C280 C 0.236 0.93476 0.18855 0.0
O281 O 0.13733 0.92098 0.18617 0.0
Cd282 Cd 0.14215 0.87667 0.19857 0.0
O283 O 0.34813 0.92575 0.1872 0.0
Cd284 Cd 0.43289 0.88513 0.1724 0.0
C285 C 0.34003 0.8821 0.29039 0.0
O286 O 0.28953 0.85243 0.15224 0.0
O287 O 0.47811 0.84294 0.18237 0.0
O288 O 0.44707 0.89437 0.08961 0.0
C289 C 0.36993 0.83607 0.16612 0.0
O290 O 0.22641 0.87729 0.27677 0.0
C291 C 0.56939 0.8946 0.08843 0.0
O292 O 0.43162 0.88606 0.26097 0.0
O293 O 0.62977 0.8919 0.12736 0.0
C294 C 0.47099 0.71136 0.18849 0.0
O295 O 0.5697 0.72513 0.18601 0.0
Cd296 Cd 0.56512 0.76944 0.19845 0.0
O297 O 0.3589 0.72039 0.18724 0.0
Cd298 Cd 0.27438 0.76102 0.17243 0.0
C299 C 0.3677 0.76403 0.29038 0.0
O300 O 0.41767 0.79373 0.15221 0.0
O301 O 0.22912 0.8032 0.1824 0.0
O302 O 0.26016 0.75176 0.08965 0.0
C303 C 0.33728 0.81008 0.16612 0.0
O304 O 0.48132 0.76882 0.27673 0.0
C305 C 0.13783 0.75152 0.0885 0.0
O306 O 0.27605 0.76009 0.26099 0.0
O307 O 0.07748 0.75424 0.12744 0.0
C308 C 0.23537 0.71153 0.44282 0.0
O309 O 0.1368 0.72533 0.44497 0.0
Cd310 Cd 0.14246 0.76964 0.43261 0.0
O311 O 0.34759 0.72052 0.4444 0.0
Cd312 Cd 0.43407 0.76104 0.45909 0.0
C313 C 0.34195 0.76406 0.34107 0.0
O314 O 0.29024 0.79363 0.47923 0.0
O315 O 0.4789 0.80332 0.44944 0.0
O316 O 0.44795 0.75172 0.54186 0.0
C317 C 0.37039 0.81008 0.46553 0.0
O318 O 0.22833 0.76891 0.35464 0.0
C319 C 0.57025 0.75148 0.54311 0.0
O320 O 0.43343 0.7601 0.37052 0.0
O321 O 0.63081 0.75422 0.50421 0.0
C322 C 0.47096 0.93468 0.4429 0.0
O323 O 0.56962 0.92092 0.44512 0.0
Cd324 Cd 0.56465 0.87661 0.43273 0.0
O325 O 0.3588 0.92566 0.44437 0.0
Cd326 Cd 0.27324 0.88506 0.45908 0.0
C327 C 0.36578 0.88208 0.34107 0.0
O328 O 0.41715 0.85249 0.47926 0.0
O329 O 0.22863 0.84279 0.44935 0.0
O330 O 0.25911 0.89435 0.54184 0.0
C331 C 0.33708 0.83604 0.4655 0.0
O332 O 0.47943 0.87729 0.35466 0.0
C333 C 0.1368 0.89456 0.54305 0.0
O334 O 0.27423 0.88601 0.37051 0.0
O335 O 0.07636 0.89181 0.50414 0.0
C336 C 0.72101 0.46138 0.19284 0.0
O337 O 0.81964 0.47517 0.19515 0.0
Cd338 Cd 0.81469 0.51947 0.18274 0.0
O339 O 0.60884 0.47038 0.19425 0.0
Cd340 Cd 0.52387 0.51099 0.20902 0.0
C341 C 0.6164 0.514 0.09101 0.0
O342 O 0.66734 0.54368 0.22913 0.0
O343 O 0.47874 0.55319 0.19905 0.0
O344 O 0.50987 0.50178 0.29183 0.0
C345 C 0.58696 0.56004 0.21528 0.0
O346 O 0.73004 0.51882 0.1046 0.0
C347 C 0.38755 0.50156 0.29305 0.0
O348 O 0.52486 0.51005 0.12046 0.0
O349 O 0.32708 0.50424 0.25413 0.0
C350 C 0.48565 0.6847 0.19284 0.0
O351 O 0.38696 0.67093 0.19526 0.0
Cd352 Cd 0.39185 0.62662 0.18283 0.0
O353 O 0.59777 0.67569 0.19417 0.0
Cd354 Cd 0.68265 0.6351 0.20906 0.0
C355 C 0.59004 0.63209 0.09107 0.0
O356 O 0.53926 0.60239 0.22917 0.0
O357 O 0.72795 0.5929 0.19912 0.0
O358 O 0.69649 0.64435 0.29186 0.0
C359 C 0.61967 0.58603 0.21531 0.0
O360 O 0.47638 0.62728 0.10467 0.0
C361 C 0.8188 0.64461 0.29308 0.0
O362 O 0.68158 0.63604 0.1205 0.0
O363 O 0.87932 0.64191 0.25417 0.0
C364 C 0.72111 0.6847 0.93867 0.0
O365 O 0.81971 0.67093 0.93638 0.0
Cd366 Cd 0.81459 0.62662 -0.05128 0.0
O367 O 0.60891 0.67568 0.93719 0.0
Cd368 Cd 0.5235 0.63509 0.92238 0.0
C369 C 0.61586 0.63208 0.04039 0.0
O370 O 0.66713 0.60247 0.90222 0.0
O371 O 0.47852 0.59285 0.9322 0.0
O372 O 0.50942 0.64438 0.8396 0.0
C373 C 0.58686 0.58605 0.91601 0.0
O374 O 0.72951 0.62727 0.02681 0.0
C375 C 0.38711 0.64459 0.83841 0.0
O376 O 0.52436 0.63603 0.01094 0.0
O377 O 0.32667 0.64185 0.87732 0.0
C378 C 0.48577 0.46141 0.93854 0.0
O379 O 0.38711 0.47517 0.9362 0.0
Cd380 Cd 0.39212 0.51947 -0.05138 0.0
O381 O 0.59792 0.47044 0.93714 0.0
Cd382 Cd 0.68318 0.51104 0.92234 0.0
C383 C 0.5906 0.514 0.04033 0.0
O384 O 0.53957 0.54367 0.90218 0.0
O385 O 0.72817 0.55327 0.93218 0.0
O386 O 0.69736 0.50175 0.83957 0.0
C387 C 0.61983 0.56008 0.916 0.0
O388 O 0.47696 0.5188 0.02674 0.0
C389 C 0.81968 0.50153 0.83839 0.0
O390 O 0.68216 0.51008 0.01089 0.0
O391 O 0.88006 0.50427 0.87731 0.0
C392 C 0.23592 0.43461 0.68866 0.0
O393 O 0.1373 0.42081 0.68645 0.0
Cd394 Cd 0.14264 0.37649 0.6988 0.0
O395 O 0.3481 0.42563 0.68714 0.0
Cd396 Cd 0.43405 0.38509 0.67242 0.0
C397 C 0.34162 0.38203 0.79043 0.0
O398 O 0.29035 0.35246 0.65226 0.0
O399 O 0.47896 0.34284 0.68217 0.0
O400 O 0.44807 0.39437 0.58965 0.0
C401 C 0.37055 0.33604 0.66602 0.0
O402 O 0.228 0.37719 0.77684 0.0
C403 C 0.57038 0.39462 0.58842 0.0
O404 O 0.43315 0.38601 0.76099 0.0
O405 O 0.63086 0.39191 0.62733 0.0
C406 C 0.47126 0.21144 0.68861 0.0
O407 O 0.56994 0.22522 0.68632 0.0
Cd408 Cd 0.56508 0.26953 0.6987 0.0
O409 O 0.35912 0.22044 0.68717 0.0
Cd410 Cd 0.27383 0.26103 0.67241 0.0
C411 C 0.3665 0.26405 0.79041 0.0
O412 O 0.41758 0.29366 0.65224 0.0
O413 O 0.22901 0.30327 0.68221 0.0
O414 O 0.25981 0.25176 0.58963 0.0
C415 C 0.33741 0.31007 0.66603 0.0
O416 O 0.48015 0.26886 0.77681 0.0
C417 C 0.13749 0.25153 0.58841 0.0
O418 O 0.27495 0.2601 0.76098 0.0
O419 O 0.07702 0.25426 0.62732 0.0
C420 C 0.23593 0.21139 -0.05706 0.0
O421 O 0.13731 0.22516 -0.05476 0.0
Cd422 Cd 0.14238 0.26947 0.93285 0.0
O423 O 0.34811 0.22041 -0.05564 0.0
Cd424 Cd 0.4334 0.26101 -0.0409 0.0
C425 C 0.34073 0.26404 0.8411 0.0
O426 O 0.28986 0.29366 -0.02071 0.0
O427 O 0.47845 0.30324 -0.05075 0.0
O428 O 0.44763 0.25174 0.04187 0.0
C429 C 0.37017 0.31006 -0.03453 0.0
O430 O 0.2271 0.26884 0.85471 0.0
C431 C 0.56995 0.25152 0.04304 0.0
O432 O 0.43228 0.26009 0.87053 0.0
O433 O 0.63032 0.25426 0.00411 0.0
C434 C 0.47111 0.43474 -0.05711 0.0
O435 O 0.56977 0.42099 -0.05469 0.0
Cd436 Cd 0.56512 0.37668 0.93297 0.0
O437 O 0.35896 0.4257 -0.05577 0.0
Cd438 Cd 0.27414 0.38508 -0.04092 0.0
C439 C 0.36733 0.38205 0.84111 0.0
O440 O 0.41758 0.35243 -0.02069 0.0
O441 O 0.22902 0.34285 -0.05076 0.0
O442 O 0.25998 0.39439 0.04183 0.0
C443 C 0.33728 0.33603 -0.03453 0.0
O444 O 0.48094 0.37727 0.85475 0.0
C445 C 0.13766 0.3946 0.04301 0.0
O446 O 0.27569 0.38599 0.87051 0.0
O447 O 0.07727 0.39184 0.00409 0.0
loop_
_geom_bond_atom_site_label_1
_geom_bond_atom_site_label_2
_geom_bond_distance
_geom_bond_site_symmetry_2
_ccdc_geom_bond_type
C0 O1 1.306 . S
C0 O3 1.160 . S
O1 C0 1.306 . S
O1 Cd2 2.228 . S
Cd2 O1 2.228 . S
Cd2 O6 2.273 . S
Cd2 O10 2.277 . S
O3 C0 1.160 . S
O3 Cd4 2.203 . S
Cd4 O3 2.203 . S
Cd4 O6 2.411 . S
Cd4 O7 2.333 . S
Cd4 O8 2.352 . S
Cd4 O12 2.277 1_455 S
Cd4 O13 2.356 1_455 S
C5 O10 1.209 . S
C5 O12 1.226 1_455 S
O6 Cd2 2.273 . S
O6 Cd4 2.411 . S
O6 C9 1.320 . S
O7 Cd4 2.333 . S
O7 C9 1.214 . S
O8 Cd4 2.352 . S
O8 C11 1.258 1_455 S
C9 O6 1.320 . S
C9 O7 1.214 . S
O10 Cd2 2.277 . S
O10 C5 1.209 . S
C11 O8 1.258 1_655 S
C11 O13 1.282 . S
O12 Cd4 2.277 1_655 S
O12 C5 1.226 1_655 S
O13 Cd4 2.356 1_655 S
O13 C11 1.282 . S
C14 O15 1.306 . S
C14 O17 1.160 1_655 S
O15 C14 1.306 . S
O15 Cd16 2.228 . S
Cd16 O15 2.228 . S
Cd16 O20 2.273 1_655 S
Cd16 O24 2.277 1_655 S
O17 C14 1.160 1_455 S
O17 Cd18 2.203 . S
Cd18 O17 2.203 . S
Cd18 O20 2.411 . S
Cd18 O21 2.333 . S
Cd18 O22 2.352 . S
Cd18 O26 2.277 . S
Cd18 O27 2.356 . S
C19 O24 1.209 . S
C19 O26 1.226 . S
O20 Cd16 2.273 1_455 S
O20 Cd18 2.411 . S
O20 C23 1.320 . S
O21 Cd18 2.333 . S
O21 C23 1.214 . S
O22 Cd18 2.352 . S
O22 C25 1.258 . S
C23 O20 1.320 . S
C23 O21 1.214 . S
O24 Cd16 2.277 1_455 S
O24 C19 1.209 . S
C25 O22 1.258 . S
C25 O27 1.282 . S
O26 Cd18 2.277 . S
O26 C19 1.226 . S
O27 Cd18 2.356 . S
O27 C25 1.282 . S
C28 O29 1.306 . S
C28 O31 1.160 . S
O29 C28 1.306 . S
O29 Cd30 2.228 1_556 S
Cd30 O29 2.228 1_554 S
Cd30 O34 2.273 1_554 S
Cd30 O38 2.277 . S
O31 C28 1.160 . S
O31 Cd32 2.203 . S
Cd32 O31 2.203 . S
Cd32 O34 2.411 . S
Cd32 O35 2.333 . S
Cd32 O36 2.352 . S
Cd32 O40 2.277 1_456 S
Cd32 O41 2.356 1_455 S
C33 O38 1.209 . S
C33 O40 1.226 1_455 S
O34 Cd30 2.273 1_556 S
O34 Cd32 2.411 . S
O34 C37 1.320 . S
O35 Cd32 2.333 . S
O35 C37 1.214 . S
O36 Cd32 2.352 . S
O36 C39 1.258 1_455 S
C37 O34 1.320 . S
C37 O35 1.214 . S
O38 Cd30 2.277 . S
O38 C33 1.209 . S
C39 O36 1.258 1_655 S
C39 O41 1.282 . S
O40 Cd32 2.277 1_654 S
O40 C33 1.226 1_655 S
O41 Cd32 2.356 1_655 S
O41 C39 1.282 . S
C42 O43 1.306 . S
C42 O45 1.160 1_655 S
O43 C42 1.306 . S
O43 Cd44 2.228 1_556 S
Cd44 O43 2.228 1_554 S
Cd44 O48 2.273 1_654 S
Cd44 O52 2.277 1_655 S
O45 C42 1.160 1_455 S
O45 Cd46 2.203 . S
Cd46 O45 2.203 . S
Cd46 O48 2.411 . S
Cd46 O49 2.333 . S
Cd46 O50 2.352 . S
Cd46 O54 2.277 1_556 S
Cd46 O55 2.356 . S
C47 O52 1.209 . S
C47 O54 1.226 . S
O48 Cd44 2.273 1_456 S
O48 Cd46 2.411 . S
O48 C51 1.320 . S
O49 Cd46 2.333 . S
O49 C51 1.214 . S
O50 Cd46 2.352 . S
O50 C53 1.258 . S
C51 O48 1.320 . S
C51 O49 1.214 . S
O52 Cd44 2.277 1_455 S
O52 C47 1.209 . S
C53 O50 1.258 . S
C53 O55 1.282 . S
O54 Cd46 2.277 1_554 S
O54 C47 1.226 . S
O55 Cd46 2.356 . S
O55 C53 1.282 . S
C56 O57 1.306 . S
C56 O59 1.160 . S
O57 C56 1.306 . S
O57 Cd58 2.228 . S
Cd58 O57 2.228 . S
Cd58 O62 2.273 . S
Cd58 O66 2.277 . S
O59 C56 1.160 . S
O59 Cd60 2.203 . S
Cd60 O59 2.203 . S
Cd60 O62 2.411 . S
Cd60 O63 2.333 . S
Cd60 O64 2.352 . S
Cd60 O68 2.277 1_655 S
Cd60 O69 2.356 1_655 S
C61 O66 1.209 . S
C61 O68 1.226 1_655 S
O62 Cd58 2.273 . S
O62 Cd60 2.411 . S
O62 C65 1.320 . S
O63 Cd60 2.333 . S
O63 C65 1.214 . S
O64 Cd60 2.352 . S
O64 C67 1.258 1_655 S
C65 O62 1.320 . S
C65 O63 1.214 . S
O66 Cd58 2.277 . S
O66 C61 1.209 . S
C67 O64 1.258 1_455 S
C67 O69 1.282 . S
O68 Cd60 2.277 1_455 S
O68 C61 1.226 1_455 S
O69 Cd60 2.356 1_455 S
O69 C67 1.282 . S
C70 O71 1.306 . S
C70 O73 1.160 1_455 S
O71 C70 1.306 . S
O71 Cd72 2.228 . S
Cd72 O71 2.228 . S
Cd72 O76 2.273 1_455 S
Cd72 O80 2.277 1_455 S
O73 C70 1.160 1_655 S
O73 Cd74 2.203 . S
Cd74 O73 2.203 . S
Cd74 O76 2.411 . S
Cd74 O77 2.333 . S
Cd74 O78 2.352 . S
Cd74 O82 2.277 . S
Cd74 O83 2.356 . S
C75 O80 1.209 . S
C75 O82 1.226 . S
O76 Cd72 2.273 1_655 S
O76 Cd74 2.411 . S
O76 C79 1.320 . S
O77 Cd74 2.333 . S
O77 C79 1.214 . S
O78 Cd74 2.352 . S
O78 C81 1.258 . S
C79 O76 1.320 . S
C79 O77 1.214 . S
O80 Cd72 2.277 1_655 S
O80 C75 1.209 . S
C81 O78 1.258 . S
C81 O83 1.282 . S
O82 Cd74 2.277 . S
O82 C75 1.226 . S
O83 Cd74 2.356 . S
O83 C81 1.282 . S
C84 O85 1.306 . S
C84 O87 1.160 . S
O85 C84 1.306 . S
O85 Cd86 2.228 1_554 S
Cd86 O85 2.228 1_556 S
Cd86 O90 2.273 1_556 S
Cd86 O94 2.277 . S
O87 C84 1.160 . S
O87 Cd88 2.203 . S
Cd88 O87 2.203 . S
Cd88 O90 2.411 . S
Cd88 O91 2.333 . S
Cd88 O92 2.352 . S
Cd88 O96 2.277 1_654 S
Cd88 O97 2.356 1_655 S
C89 O94 1.209 . S
C89 O96 1.226 1_655 S
O90 Cd86 2.273 1_554 S
O90 Cd88 2.411 . S
O90 C93 1.320 . S
O91 Cd88 2.333 . S
O91 C93 1.214 . S
O92 Cd88 2.352 . S
O92 C95 1.258 1_655 S
C93 O90 1.320 . S
C93 O91 1.214 . S
O94 Cd86 2.277 . S
O94 C89 1.209 . S
C95 O92 1.258 1_455 S
C95 O97 1.282 . S
O96 Cd88 2.277 1_456 S
O96 C89 1.226 1_455 S
O97 Cd88 2.356 1_455 S
O97 C95 1.282 . S
C98 O99 1.306 . S
C98 O101 1.160 1_455 S
O99 C98 1.306 . S
O99 Cd100 2.228 1_554 S
Cd100 O99 2.228 1_556 S
Cd100 O104 2.273 1_456 S
Cd100 O108 2.277 1_455 S
O101 C98 1.160 1_655 S
O101 Cd102 2.203 . S
Cd102 O101 2.203 . S
Cd102 O104 2.411 . S
Cd102 O105 2.333 . S
Cd102 O106 2.352 . S
Cd102 O110 2.277 1_554 S
Cd102 O111 2.356 . S
C103 O108 1.209 . S
C103 O110 1.226 . S
O104 Cd100 2.273 1_654 S
O104 Cd102 2.411 . S
O104 C107 1.320 . S
O105 Cd102 2.333 . S
O105 C107 1.214 . S
O106 Cd102 2.352 . S
O106 C109 1.258 . S
C107 O104 1.320 . S
C107 O105 1.214 . S
O108 Cd100 2.277 1_655 S
O108 C103 1.209 . S
C109 O106 1.258 . S
C109 O111 1.282 . S
O110 Cd102 2.277 1_556 S
O110 C103 1.226 . S
O111 Cd102 2.356 . S
O111 C109 1.282 . S
C112 O113 1.306 . S
C112 O115 1.160 . S
O113 C112 1.306 . S
O113 Cd114 2.228 . S
Cd114 O113 2.228 . S
Cd114 O118 2.273 . S
Cd114 O122 2.277 . S
O115 C112 1.160 . S
O115 Cd116 2.203 . S
Cd116 O115 2.203 . S
Cd116 O118 2.411 . S
Cd116 O119 2.333 . S
Cd116 O120 2.352 . S
Cd116 O124 2.277 1_455 S
Cd116 O125 2.356 1_455 S
C117 O122 1.209 . S
C117 O124 1.226 1_455 S
O118 Cd114 2.273 . S
O118 Cd116 2.411 . S
O118 C121 1.320 . S
O119 Cd116 2.333 . S
O119 C121 1.214 . S
O120 Cd116 2.352 . S
O120 C123 1.258 1_455 S
C121 O118 1.320 . S
C121 O119 1.214 . S
O122 Cd114 2.277 . S
O122 C117 1.209 . S
C123 O120 1.258 1_655 S
C123 O125 1.282 . S
O124 Cd116 2.277 1_655 S
O124 C117 1.226 1_655 S
O125 Cd116 2.356 1_655 S
O125 C123 1.282 . S
C126 O127 1.306 . S
C126 O129 1.160 1_655 S
O127 C126 1.306 . S
O127 Cd128 2.228 . S
Cd128 O127 2.228 . S
Cd128 O132 2.273 1_655 S
Cd128 O136 2.277 1_655 S
O129 C126 1.160 1_455 S
O129 Cd130 2.203 . S
Cd130 O129 2.203 . S
Cd130 O132 2.411 . S
Cd130 O133 2.333 . S
Cd130 O134 2.352 . S
Cd130 O138 2.277 . S
Cd130 O139 2.356 . S
C131 O136 1.209 . S
C131 O138 1.226 . S
O132 Cd128 2.273 1_455 S
O132 Cd130 2.411 . S
O132 C135 1.320 . S
O133 Cd130 2.333 . S
O133 C135 1.214 . S
O134 Cd130 2.352 . S
O134 C137 1.258 . S
C135 O132 1.320 . S
C135 O133 1.214 . S
O136 Cd128 2.277 1_455 S
O136 C131 1.209 . S
C137 O134 1.258 . S
C137 O139 1.282 . S
O138 Cd130 2.277 . S
O138 C131 1.226 . S
O139 Cd130 2.356 . S
O139 C137 1.282 . S
C140 O141 1.306 . S
C140 O143 1.160 . S
O141 C140 1.306 . S
O141 Cd142 2.228 . S
Cd142 O141 2.228 . S
Cd142 O146 2.273 . S
Cd142 O150 2.277 . S
O143 C140 1.160 . S
O143 Cd144 2.203 . S
Cd144 O143 2.203 . S
Cd144 O146 2.411 . S
Cd144 O147 2.333 . S
Cd144 O148 2.352 . S
Cd144 O152 2.277 1_455 S
Cd144 O153 2.356 1_455 S
C145 O150 1.209 . S
C145 O152 1.226 1_455 S
O146 Cd142 2.273 . S
O146 Cd144 2.411 . S
O146 C149 1.320 . S
O147 Cd144 2.333 . S
O147 C149 1.214 . S
O148 Cd144 2.352 . S
O148 C151 1.258 1_455 S
C149 O146 1.320 . S
C149 O147 1.214 . S
O150 Cd142 2.277 . S
O150 C145 1.209 . S
C151 O148 1.258 1_655 S
C151 O153 1.282 . S
O152 Cd144 2.277 1_655 S
O152 C145 1.226 1_655 S
O153 Cd144 2.356 1_655 S
O153 C151 1.282 . S
C154 O155 1.306 . S
C154 O157 1.160 1_655 S
O155 C154 1.306 . S
O155 Cd156 2.228 . S
Cd156 O155 2.228 . S
Cd156 O160 2.273 1_655 S
Cd156 O164 2.277 1_655 S
O157 C154 1.160 1_455 S
O157 Cd158 2.203 . S
Cd158 O157 2.203 . S
Cd158 O160 2.411 . S
Cd158 O161 2.333 . S
Cd158 O162 2.352 . S
Cd158 O166 2.277 . S
Cd158 O167 2.356 . S
C159 O164 1.209 . S
C159 O166 1.226 . S
O160 Cd156 2.273 1_455 S
O160 Cd158 2.411 . S
O160 C163 1.320 . S
O161 Cd158 2.333 . S
O161 C163 1.214 . S
O162 Cd158 2.352 . S
O162 C165 1.258 . S
C163 O160 1.320 . S
C163 O161 1.214 . S
O164 Cd156 2.277 1_455 S
O164 C159 1.209 . S
C165 O162 1.258 . S
C165 O167 1.282 . S
O166 Cd158 2.277 . S
O166 C159 1.226 . S
O167 Cd158 2.356 . S
O167 C165 1.282 . S
C168 O169 1.306 . S
C168 O171 1.160 . S
O169 C168 1.306 . S
O169 Cd170 2.228 . S
Cd170 O169 2.228 . S
Cd170 O174 2.273 . S
Cd170 O178 2.277 . S
O171 C168 1.160 . S
O171 Cd172 2.203 . S
Cd172 O171 2.203 . S
Cd172 O174 2.411 . S
Cd172 O175 2.333 . S
Cd172 O176 2.352 . S
Cd172 O180 2.277 1_655 S
Cd172 O181 2.356 1_655 S
C173 O178 1.209 . S
C173 O180 1.226 1_655 S
O174 Cd170 2.273 . S
O174 Cd172 2.411 . S
O174 C177 1.320 . S
O175 Cd172 2.333 . S
O175 C177 1.214 . S
O176 Cd172 2.352 . S
O176 C179 1.258 1_655 S
C177 O174 1.320 . S
C177 O175 1.214 . S
O178 Cd170 2.277 . S
O178 C173 1.209 . S
C179 O176 1.258 1_455 S
C179 O181 1.282 . S
O180 Cd172 2.277 1_455 S
O180 C173 1.226 1_455 S
O181 Cd172 2.356 1_455 S
O181 C179 1.282 . S
C182 O183 1.306 . S
C182 O185 1.160 1_455 S
O183 C182 1.306 . S
O183 Cd184 2.228 . S
Cd184 O183 2.228 . S
Cd184 O188 2.273 1_455 S
Cd184 O192 2.277 1_455 S
O185 C182 1.160 1_655 S
O185 Cd186 2.203 . S
Cd186 O185 2.203 . S
Cd186 O188 2.411 . S
Cd186 O189 2.333 . S
Cd186 O190 2.352 . S
Cd186 O194 2.277 . S
Cd186 O195 2.356 . S
C187 O192 1.209 . S
C187 O194 1.226 . S
O188 Cd184 2.273 1_655 S
O188 Cd186 2.411 . S
O188 C191 1.320 . S
O189 Cd186 2.333 . S
O189 C191 1.214 . S
O190 Cd186 2.352 . S
O190 C193 1.258 . S
C191 O188 1.320 . S
C191 O189 1.214 . S
O192 Cd184 2.277 1_655 S
O192 C187 1.209 . S
C193 O190 1.258 . S
C193 O195 1.282 . S
O194 Cd186 2.277 . S
O194 C187 1.226 . S
O195 Cd186 2.356 . S
O195 C193 1.282 . S
C196 O197 1.306 . S
C196 O199 1.160 . S
O197 C196 1.306 . S
O197 Cd198 2.228 . S
Cd198 O197 2.228 . S
Cd198 O202 2.273 . S
Cd198 O206 2.277 . S
O199 C196 1.160 . S
O199 Cd200 2.203 . S
Cd200 O199 2.203 . S
Cd200 O202 2.411 . S
Cd200 O203 2.333 . S
Cd200 O204 2.352 . S
Cd200 O208 2.277 1_655 S
Cd200 O209 2.356 1_655 S
C201 O206 1.209 . S
C201 O208 1.226 1_655 S
O202 Cd198 2.273 . S
O202 Cd200 2.411 . S
O202 C205 1.320 . S
O203 Cd200 2.333 . S
O203 C205 1.214 . S
O204 Cd200 2.352 . S
O204 C207 1.258 1_655 S
C205 O202 1.320 . S
C205 O203 1.214 . S
O206 Cd198 2.277 . S
O206 C201 1.209 . S
C207 O204 1.258 1_455 S
C207 O209 1.282 . S
O208 Cd200 2.277 1_455 S
O208 C201 1.226 1_455 S
O209 Cd200 2.356 1_455 S
O209 C207 1.282 . S
C210 O211 1.306 . S
C210 O213 1.160 1_455 S
O211 C210 1.306 . S
O211 Cd212 2.228 . S
Cd212 O211 2.228 . S
Cd212 O216 2.273 1_455 S
Cd212 O220 2.277 1_455 S
O213 C210 1.160 1_655 S
O213 Cd214 2.203 . S
Cd214 O213 2.203 . S
Cd214 O216 2.411 . S
Cd214 O217 2.333 . S
Cd214 O218 2.352 . S
Cd214 O222 2.277 . S
Cd214 O223 2.356 . S
C215 O220 1.209 . S
C215 O222 1.226 . S
O216 Cd212 2.273 1_655 S
O216 Cd214 2.411 . S
O216 C219 1.320 . S
O217 Cd214 2.333 . S
O217 C219 1.214 . S
O218 Cd214 2.352 . S
O218 C221 1.258 . S
C219 O216 1.320 . S
C219 O217 1.214 . S
O220 Cd212 2.277 1_655 S
O220 C215 1.209 . S
C221 O218 1.258 . S
C221 O223 1.282 . S
O222 Cd214 2.277 . S
O222 C215 1.226 . S
O223 Cd214 2.356 . S
O223 C221 1.282 . S
C224 O225 1.306 . S
C224 O227 1.160 . S
O225 C224 1.306 . S
O225 Cd226 2.228 . S
Cd226 O225 2.228 . S
Cd226 O230 2.273 . S
Cd226 O234 2.277 . S
O227 C224 1.160 . S
O227 Cd228 2.203 . S
Cd228 O227 2.203 . S
Cd228 O230 2.411 . S
Cd228 O231 2.333 . S
Cd228 O232 2.352 . S
Cd228 O236 2.277 . S
Cd228 O237 2.356 . S
C229 O234 1.209 . S
C229 O236 1.226 . S
O230 Cd226 2.273 . S
O230 Cd228 2.411 . S
O230 C233 1.320 . S
O231 Cd228 2.333 . S
O231 C233 1.214 . S
O232 Cd228 2.352 . S
O232 C235 1.258 . S
C233 O230 1.320 . S
C233 O231 1.214 . S
O234 Cd226 2.277 . S
O234 C229 1.209 . S
C235 O232 1.258 . S
C235 O237 1.282 . S
O236 Cd228 2.277 . S
O236 C229 1.226 . S
O237 Cd228 2.356 . S
O237 C235 1.282 . S
C238 O239 1.306 . S
C238 O241 1.160 . S
O239 C238 1.306 . S
O239 Cd240 2.228 . S
Cd240 O239 2.228 . S
Cd240 O244 2.273 . S
Cd240 O248 2.277 . S
O241 C238 1.160 . S
O241 Cd242 2.203 . S
Cd242 O241 2.203 . S
Cd242 O244 2.411 . S
Cd242 O245 2.333 . S
Cd242 O246 2.352 . S
Cd242 O250 2.277 . S
Cd242 O251 2.356 . S
C243 O248 1.209 . S
C243 O250 1.226 . S
O244 Cd240 2.273 . S
O244 Cd242 2.411 . S
O244 C247 1.320 . S
O245 Cd242 2.333 . S
O245 C247 1.214 . S
O246 Cd242 2.352 . S
O246 C249 1.258 . S
C247 O244 1.320 . S
C247 O245 1.214 . S
O248 Cd240 2.277 . S
O248 C243 1.209 . S
C249 O246 1.258 . S
C249 O251 1.282 . S
O250 Cd242 2.277 . S
O250 C243 1.226 . S
O251 Cd242 2.356 . S
O251 C249 1.282 . S
C252 O253 1.306 . S
C252 O255 1.160 . S
O253 C252 1.306 . S
O253 Cd254 2.228 . S
Cd254 O253 2.228 . S
Cd254 O258 2.273 . S
Cd254 O262 2.277 . S
O255 C252 1.160 . S
O255 Cd256 2.203 . S
Cd256 O255 2.203 . S
Cd256 O258 2.411 . S
Cd256 O259 2.333 . S
Cd256 O260 2.352 . S
Cd256 O264 2.277 . S
Cd256 O265 2.356 . S
C257 O262 1.209 . S
C257 O264 1.226 . S
O258 Cd254 2.273 . S
O258 Cd256 2.411 . S
O258 C261 1.320 . S
O259 Cd256 2.333 . S
O259 C261 1.214 . S
O260 Cd256 2.352 . S
O260 C263 1.258 . S
C261 O258 1.320 . S
C261 O259 1.214 . S
O262 Cd254 2.277 . S
O262 C257 1.209 . S
C263 O260 1.258 . S
C263 O265 1.282 . S
O264 Cd256 2.277 . S
O264 C257 1.226 . S
O265 Cd256 2.356 . S
O265 C263 1.282 . S
C266 O267 1.306 . S
C266 O269 1.160 . S
O267 C266 1.306 . S
O267 Cd268 2.228 . S
Cd268 O267 2.228 . S
Cd268 O272 2.273 . S
Cd268 O276 2.277 . S
O269 C266 1.160 . S
O269 Cd270 2.203 . S
Cd270 O269 2.203 . S
Cd270 O272 2.411 . S
Cd270 O273 2.333 . S
Cd270 O274 2.352 . S
Cd270 O278 2.277 . S
Cd270 O279 2.356 . S
C271 O276 1.209 . S
C271 O278 1.226 . S
O272 Cd268 2.273 . S
O272 Cd270 2.411 . S
O272 C275 1.320 . S
O273 Cd270 2.333 . S
O273 C275 1.214 . S
O274 Cd270 2.352 . S
O274 C277 1.258 . S
C275 O272 1.320 . S
C275 O273 1.214 . S
O276 Cd268 2.277 . S
O276 C271 1.209 . S
C277 O274 1.258 . S
C277 O279 1.282 . S
O278 Cd270 2.277 . S
O278 C271 1.226 . S
O279 Cd270 2.356 . S
O279 C277 1.282 . S
C280 O281 1.306 . S
C280 O283 1.160 . S
O281 C280 1.306 . S
O281 Cd282 2.228 . S
Cd282 O281 2.228 . S
Cd282 O286 2.273 . S
Cd282 O290 2.277 . S
O283 C280 1.160 . S
O283 Cd284 2.203 . S
Cd284 O283 2.203 . S
Cd284 O286 2.411 . S
Cd284 O287 2.333 . S
Cd284 O288 2.352 . S
Cd284 O292 2.277 . S
Cd284 O293 2.356 . S
C285 O290 1.209 . S
C285 O292 1.226 . S
O286 Cd282 2.273 . S
O286 Cd284 2.411 . S
O286 C289 1.320 . S
O287 Cd284 2.333 . S
O287 C289 1.214 . S
O288 Cd284 2.352 . S
O288 C291 1.258 . S
C289 O286 1.320 . S
C289 O287 1.214 . S
O290 Cd282 2.277 . S
O290 C285 1.209 . S
C291 O288 1.258 . S
C291 O293 1.282 . S
O292 Cd284 2.277 . S
O292 C285 1.226 . S
O293 Cd284 2.356 . S
O293 C291 1.282 . S
C294 O295 1.306 . S
C294 O297 1.160 . S
O295 C294 1.306 . S
O295 Cd296 2.228 . S
Cd296 O295 2.228 . S
Cd296 O300 2.273 . S
Cd296 O304 2.277 . S
O297 C294 1.160 . S
O297 Cd298 2.203 . S
Cd298 O297 2.203 . S
Cd298 O300 2.411 . S
Cd298 O301 2.333 . S
Cd298 O302 2.352 . S
Cd298 O306 2.277 . S
Cd298 O307 2.356 . S
C299 O304 1.209 . S
C299 O306 1.226 . S
O300 Cd296 2.273 . S
O300 Cd298 2.411 . S
O300 C303 1.320 . S
O301 Cd298 2.333 . S
O301 C303 1.214 . S
O302 Cd298 2.352 . S
O302 C305 1.258 . S
C303 O300 1.320 . S
C303 O301 1.214 . S
O304 Cd296 2.277 . S
O304 C299 1.209 . S
C305 O302 1.258 . S
C305 O307 1.282 . S
O306 Cd298 2.277 . S
O306 C299 1.226 . S
O307 Cd298 2.356 . S
O307 C305 1.282 . S
C308 O309 1.306 . S
C308 O311 1.160 . S
O309 C308 1.306 . S
O309 Cd310 2.228 . S
Cd310 O309 2.228 . S
Cd310 O314 2.273 . S
Cd310 O318 2.277 . S
O311 C308 1.160 . S
O311 Cd312 2.203 . S
Cd312 O311 2.203 . S
Cd312 O314 2.411 . S
Cd312 O315 2.333 . S
Cd312 O316 2.352 . S
Cd312 O320 2.277 . S
Cd312 O321 2.356 . S
C313 O318 1.209 . S
C313 O320 1.226 . S
O314 Cd310 2.273 . S
O314 Cd312 2.411 . S
O314 C317 1.320 . S
O315 Cd312 2.333 . S
O315 C317 1.214 . S
O316 Cd312 2.352 . S
O316 C319 1.258 . S
C317 O314 1.320 . S
C317 O315 1.214 . S
O318 Cd310 2.277 . S
O318 C313 1.209 . S
C319 O316 1.258 . S
C319 O321 1.282 . S
O320 Cd312 2.277 . S
O320 C313 1.226 . S
O321 Cd312 2.356 . S
O321 C319 1.282 . S
C322 O323 1.306 . S
C322 O325 1.160 . S
O323 C322 1.306 . S
O323 Cd324 2.228 . S
Cd324 O323 2.228 . S
Cd324 O328 2.273 . S
Cd324 O332 2.277 . S
O325 C322 1.160 . S
O325 Cd326 2.203 . S
Cd326 O325 2.203 . S
Cd326 O328 2.411 . S
Cd326 O329 2.333 . S
Cd326 O330 2.352 . S
Cd326 O334 2.277 . S
Cd326 O335 2.356 . S
C327 O332 1.209 . S
C327 O334 1.226 . S
O328 Cd324 2.273 . S
O328 Cd326 2.411 . S
O328 C331 1.320 . S
O329 Cd326 2.333 . S
O329 C331 1.214 . S
O330 Cd326 2.352 . S
O330 C333 1.258 . S
C331 O328 1.320 . S
C331 O329 1.214 . S
O332 Cd324 2.277 . S
O332 C327 1.209 . S
C333 O330 1.258 . S
C333 O335 1.282 . S
O334 Cd326 2.277 . S
O334 C327 1.226 . S
O335 Cd326 2.356 . S
O335 C333 1.282 . S
C336 O337 1.306 . S
C336 O339 1.160 . S
O337 C336 1.306 . S
O337 Cd338 2.228 . S
Cd338 O337 2.228 . S
Cd338 O342 2.273 . S
Cd338 O346 2.277 . S
O339 C336 1.160 . S
O339 Cd340 2.203 . S
Cd340 O339 2.203 . S
Cd340 O342 2.411 . S
Cd340 O343 2.333 . S
Cd340 O344 2.352 . S
Cd340 O348 2.277 . S
Cd340 O349 2.356 . S
C341 O346 1.209 . S
C341 O348 1.226 . S
O342 Cd338 2.273 . S
O342 Cd340 2.411 . S
O342 C345 1.320 . S
O343 Cd340 2.333 . S
O343 C345 1.214 . S
O344 Cd340 2.352 . S
O344 C347 1.258 . S
C345 O342 1.320 . S
C345 O343 1.214 . S
O346 Cd338 2.277 . S
O346 C341 1.209 . S
C347 O344 1.258 . S
C347 O349 1.282 . S
O348 Cd340 2.277 . S
O348 C341 1.226 . S
O349 Cd340 2.356 . S
O349 C347 1.282 . S
C350 O351 1.306 . S
C350 O353 1.160 . S
O351 C350 1.306 . S
O351 Cd352 2.228 . S
Cd352 O351 2.228 . S
Cd352 O356 2.273 . S
Cd352 O360 2.277 . S
O353 C350 1.160 . S
O353 Cd354 2.203 . S
Cd354 O353 2.203 . S
Cd354 O356 2.411 . S
Cd354 O357 2.333 . S
Cd354 O358 2.352 . S
Cd354 O362 2.277 . S
Cd354 O363 2.356 . S
C355 O360 1.209 . S
C355 O362 1.226 . S
O356 Cd352 2.273 . S
O356 Cd354 2.411 . S
O356 C359 1.320 . S
O357 Cd354 2.333 . S
O357 C359 1.214 . S
O358 Cd354 2.352 . S
O358 C361 1.258 . S
C359 O356 1.320 . S
C359 O357 1.214 . S
O360 Cd352 2.277 . S
O360 C355 1.209 . S
C361 O358 1.258 . S
C361 O363 1.282 . S
O362 Cd354 2.277 . S
O362 C355 1.226 . S
O363 Cd354 2.356 . S
O363 C361 1.282 . S
C364 O365 1.306 . S
C364 O367 1.160 . S
O365 C364 1.306 . S
O365 Cd366 2.228 1_556 S
Cd366 O365 2.228 1_554 S
Cd366 O370 2.273 1_554 S
Cd366 O374 2.277 . S
O367 C364 1.160 . S
O367 Cd368 2.203 . S
Cd368 O367 2.203 . S
Cd368 O370 2.411 . S
Cd368 O371 2.333 . S
Cd368 O372 2.352 . S
Cd368 O376 2.277 1_556 S
Cd368 O377 2.356 . S
C369 O374 1.209 . S
C369 O376 1.226 . S
O370 Cd366 2.273 1_556 S
O370 Cd368 2.411 . S
O370 C373 1.320 . S
O371 Cd368 2.333 . S
O371 C373 1.214 . S
O372 Cd368 2.352 . S
O372 C375 1.258 . S
C373 O370 1.320 . S
C373 O371 1.214 . S
O374 Cd366 2.277 . S
O374 C369 1.209 . S
C375 O372 1.258 . S
C375 O377 1.282 . S
O376 Cd368 2.277 1_554 S
O376 C369 1.226 . S
O377 Cd368 2.356 . S
O377 C375 1.282 . S
C378 O379 1.306 . S
C378 O381 1.160 . S
O379 C378 1.306 . S
O379 Cd380 2.228 1_556 S
Cd380 O379 2.228 1_554 S
Cd380 O384 2.273 1_554 S
Cd380 O388 2.277 . S
O381 C378 1.160 . S
O381 Cd382 2.203 . S
Cd382 O381 2.203 . S
Cd382 O384 2.411 . S
Cd382 O385 2.333 . S
Cd382 O386 2.352 . S
Cd382 O390 2.277 1_556 S
Cd382 O391 2.356 . S
C383 O388 1.209 . S
C383 O390 1.226 . S
O384 Cd380 2.273 1_556 S
O384 Cd382 2.411 . S
O384 C387 1.320 . S
O385 Cd382 2.333 . S
O385 C387 1.214 . S
O386 Cd382 2.352 . S
O386 C389 1.258 . S
C387 O384 1.320 . S
C387 O385 1.214 . S
O388 Cd380 2.277 . S
O388 C383 1.209 . S
C389 O386 1.258 . S
C389 O391 1.282 . S
O390 Cd382 2.277 1_554 S
O390 C383 1.226 . S
O391 Cd382 2.356 . S
O391 C389 1.282 . S
C392 O393 1.306 . S
C392 O395 1.160 . S
O393 C392 1.306 . S
O393 Cd394 2.228 . S
Cd394 O393 2.228 . S
Cd394 O398 2.273 . S
Cd394 O402 2.277 . S
O395 C392 1.160 . S
O395 Cd396 2.203 . S
Cd396 O395 2.203 . S
Cd396 O398 2.411 . S
Cd396 O399 2.333 . S
Cd396 O400 2.352 . S
Cd396 O404 2.277 . S
Cd396 O405 2.356 . S
C397 O402 1.209 . S
C397 O404 1.226 . S
O398 Cd394 2.273 . S
O398 Cd396 2.411 . S
O398 C401 1.320 . S
O399 Cd396 2.333 . S
O399 C401 1.214 . S
O400 Cd396 2.352 . S
O400 C403 1.258 . S
C401 O398 1.320 . S
C401 O399 1.214 . S
O402 Cd394 2.277 . S
O402 C397 1.209 . S
C403 O400 1.258 . S
C403 O405 1.282 . S
O404 Cd396 2.277 . S
O404 C397 1.226 . S
O405 Cd396 2.356 . S
O405 C403 1.282 . S
C406 O407 1.306 . S
C406 O409 1.160 . S
O407 C406 1.306 . S
O407 Cd408 2.228 . S
Cd408 O407 2.228 . S
Cd408 O412 2.273 . S
Cd408 O416 2.277 . S
O409 C406 1.160 . S
O409 Cd410 2.203 . S
Cd410 O409 2.203 . S
Cd410 O412 2.411 . S
Cd410 O413 2.333 . S
Cd410 O414 2.352 . S
Cd410 O418 2.277 . S
Cd410 O419 2.356 . S
C411 O416 1.209 . S
C411 O418 1.226 . S
O412 Cd408 2.273 . S
O412 Cd410 2.411 . S
O412 C415 1.320 . S
O413 Cd410 2.333 . S
O413 C415 1.214 . S
O414 Cd410 2.352 . S
O414 C417 1.258 . S
C415 O412 1.320 . S
C415 O413 1.214 . S
O416 Cd408 2.277 . S
O416 C411 1.209 . S
C417 O414 1.258 . S
C417 O419 1.282 . S
O418 Cd410 2.277 . S
O418 C411 1.226 . S
O419 Cd410 2.356 . S
O419 C417 1.282 . S
C420 O421 1.306 . S
C420 O423 1.160 . S
O421 C420 1.306 . S
O421 Cd422 2.228 1_554 S
Cd422 O421 2.228 1_556 S
Cd422 O426 2.273 1_556 S
Cd422 O430 2.277 . S
O423 C420 1.160 . S
O423 Cd424 2.203 . S
Cd424 O423 2.203 . S
Cd424 O426 2.411 . S
Cd424 O427 2.333 . S
Cd424 O428 2.352 . S
Cd424 O432 2.277 1_554 S
Cd424 O433 2.356 . S
C425 O430 1.209 . S
C425 O432 1.226 . S
O426 Cd422 2.273 1_554 S
O426 Cd424 2.411 . S
O426 C429 1.320 . S
O427 Cd424 2.333 . S
O427 C429 1.214 . S
O428 Cd424 2.352 . S
O428 C431 1.258 . S
C429 O426 1.320 . S
C429 O427 1.214 . S
O430 Cd422 2.277 . S
O430 C425 1.209 . S
C431 O428 1.258 . S
C431 O433 1.282 . S
O432 Cd424 2.277 1_556 S
O432 C425 1.226 . S
O433 Cd424 2.356 . S
O433 C431 1.282 . S
C434 O435 1.306 . S
C434 O437 1.160 . S
O435 C434 1.306 . S
O435 Cd436 2.228 1_554 S
Cd436 O435 2.228 1_556 S
Cd436 O440 2.273 1_556 S
Cd436 O444 2.277 . S
O437 C434 1.160 . S
O437 Cd438 2.203 . S
Cd438 O437 2.203 . S
Cd438 O440 2.411 . S
Cd438 O441 2.333 . S
Cd438 O442 2.352 . S
Cd438 O446 2.277 1_554 S
Cd438 O447 2.356 . S
C439 O444 1.209 . S
C439 O446 1.226 . S
O440 Cd436 2.273 1_554 S
O440 Cd438 2.411 . S
O440 C443 1.320 . S
O441 Cd438 2.333 . S
O441 C443 1.214 . S
O442 Cd438 2.352 . S
O442 C445 1.258 . S
C443 O440 1.320 . S
C443 O441 1.214 . S
O444 Cd436 2.277 . S
O444 C439 1.209 . S
C445 O442 1.258 . S
C445 O447 1.282 . S
O446 Cd438 2.277 1_556 S
O446 C439 1.226 . S
O447 Cd438 2.356 . S
O447 C445 1.282 . S
C47 C5 1.495 . S
C33 C19 1.495 . S
C103 C61 1.495 . S
C89 C75 1.495 . S
C117 C159 1.495 . S
C131 C145 1.495 . S
C215 C173 1.495 . S
C187 C201 1.495 . S
C229 C271 1.495 . S
C243 C257 1.496 . S
C327 C285 1.495 . S
C313 C299 1.496 . S
C383 C341 1.495 . S
C355 C369 1.495 . S
C397 C439 1.495 . S
C411 C425 1.495 . S
C280 C0 1.631 1_565 S
C182 C14 1.632 1_455 S
C28 C420 1.631 1_556 S
C42 C98 1.632 1_646 S
C224 C56 1.631 1_545 S
C126 C70 1.632 1_655 S
C364 C84 1.632 1_556 S
C112 C392 1.631 . S
C308 C140 1.631 . S
C210 C154 1.631 1_455 S
C336 C168 1.631 . S
C196 C252 1.631 . S
C406 C238 1.632 . S
C266 C322 1.632 1_545 S
C350 C294 1.632 . S
C434 C378 1.632 1_554 S
C23 C9 1.438 . S
C37 C51 1.439 . S
C65 C79 1.439 . S
C107 C93 1.439 . S
C121 C135 1.439 . S
C149 C163 1.438 . S
C191 C177 1.438 . S
C205 C219 1.439 . S
C233 C247 1.439 . S
C261 C275 1.439 . S
C289 C303 1.439 . S
C331 C317 1.439 . S
C359 C345 1.439 . S
C373 C387 1.439 . S
C401 C415 1.439 . S
C443 C429 1.439 . S
C11 C277 1.766 . S
C25 C263 1.766 . S
C249 C39 1.766 . S
C53 C235 1.765 . S
C333 C67 1.766 . S
C81 C319 1.766 . S
C305 C95 1.766 . S
C109 C291 1.765 . S
C123 C389 1.766 . S
C137 C375 1.766 . S
C151 C361 1.766 . S
C347 C165 1.766 . S
C179 C445 1.766 . S
C193 C431 1.766 . S
C207 C417 1.766 . S
C403 C221 1.766 . S
