# Generated by pormake.
# Topology sxb, (6)-cn, num edge types: 1
# Building blocks:
#     Node 0, Type 0, BuildingBlock: MIFKUJ_clean_sbu_0, # of connection points: 6
#     Node 1, Type 0, BuildingBlock: MIFKUJ_clean_sbu_0, # of connection points: 6
#     Node 2, Type 0, BuildingBlock: MIFKUJ_clean_sbu_0, # of connection points: 6
#     Node 3, Type 0, BuildingBlock: MIFKUJ_clean_sbu_0, # of connection points: 6
#     Edge 4, Type (0, 0), BuildingBlock: ZUJKAS_clean_linker_0, # of connection points: 2
#     Edge 5, Type (0, 0), BuildingBlock: ZUJKAS_clean_linker_0, # of connection points: 2
#     Edge 6, Type (0, 0), BuildingBlock: ZUJKAS_clean_linker_0, # of connection points: 2
#     Edge 7, Type (0, 0), BuildingBlock: ZUJKAS_clean_linker_0, # of connection points: 2
#     Edge 8, Type (0, 0), BuildingBlock: ZUJKAS_clean_linker_0, # of connection points: 2
#     Edge 9, Type (0, 0), BuildingBlock: ZUJKAS_clean_linker_0, # of connection points: 2
#     Edge 10, Type (0, 0), BuildingBlock: ZUJKAS_clean_linker_0, # of connection points: 2
#     Edge 11, Type (0, 0), BuildingBlock: ZUJKAS_clean_linker_0, # of connection points: 2
#     Edge 12, Type (0, 0), BuildingBlock: ZUJKAS_clean_linker_0, # of connection points: 2
#     Edge 13, Type (0, 0), BuildingBlock: ZUJKAS_clean_linker_0, # of connection points: 2
#     Edge 14, Type (0, 0), BuildingBlock: ZUJKAS_clean_linker_0, # of connection points: 2
#     Edge 15, Type (0, 0), BuildingBlock: ZUJKAS_clean_linker_0, # of connection points: 2
# Relax obj value: 0.017
# Max RMSD: 0.062
# Mean RMSD: 0.050
data_MOF--net-sxb--node1-MIFKUJ_clean_sbu_0--edge1-ZUJKAS_clean_linker_0
_symmetry_space_group_name_H-M    P1
_symmetry_Int_Tables_number       1
_symmetry_cell_setting            triclinic
loop_
_symmetry_equiv_pos_as_xyz
'x, y, z'
_cell_length_a     22.313137
_cell_length_b     39.438161
_cell_length_c     37.259803
_cell_angle_alpha  96.21981
_cell_angle_beta   96.747319
_cell_angle_gamma 87.642755
loop_
_atom_site_label
_atom_site_type_symbol
_atom_site_fract_x
_atom_site_fract_y
_atom_site_fract_z
_atom_type_partial_charge
Zn0 Zn 0.06366 0.00207 0.99341 0.0
Zn1 Zn 0.92683 0.9949 0.98796 0.0
C2 C 0.09182 0.93175 0.01264 0.0
O3 O 0.09521 0.94569 0.04643 0.0
C4 C 0.87341 0.05862 0.97177 0.0
O5 O 0.84157 0.03698 0.94855 0.0
O6 O 0.1473 0.01806 -0.00347 0.0
O7 O 0.0215 0.0173 0.94681 0.0
O8 O 0.95595 0.97659 0.94103 0.0
C9 C 0.17576 0.00721 0.96983 0.0
O10 O 0.14715 0.98906 0.94183 0.0
O11 O 0.07641 0.95017 0.98686 0.0
C12 C 0.81702 0.99172 0.01471 0.0
O13 O 0.84722 0.01141 0.04078 0.0
O14 O 0.84307 0.97968 0.98738 0.0
O15 O 0.96821 0.97831 0.03298 0.0
O16 O 0.03306 0.01921 0.0412 0.0
O17 O 0.918 0.04707 0.99195 0.0
C18 C 0.98817 0.9959 0.92668 0.0
C19 C -0.00128 4e-05 0.05418 0.0
Zn20 Zn 0.06948 0.03358 0.49997 0.0
Zn21 Zn 0.94051 0.96305 0.49646 0.0
C22 C 0.19245 0.02622 0.52706 0.0
O23 O 0.17482 0.0493 0.5521 0.0
C24 C 0.81995 0.97767 0.48343 0.0
O25 O 0.83242 0.95576 0.45597 0.0
O26 O 0.07511 0.08263 0.49418 0.0
O27 O 0.01858 0.00903 0.45682 0.0
O28 O 0.94904 0.96954 0.44505 0.0
C29 C 0.09744 0.0925 0.46748 0.0
O30 O 0.11164 0.06987 0.4411 0.0
O31 O 0.15373 0.01414 0.50168 0.0
C32 C 0.89626 0.90671 0.52406 0.0
O33 O 0.87566 0.93148 0.54625 0.0
O34 O 0.93023 0.91379 0.50101 0.0
O35 O 0.01426 0.9812 0.525 0.0
O36 O 0.03935 0.03189 0.54804 0.0
O37 O 0.86287 0.98764 0.50734 0.0
C38 C 0.98273 0.9907 0.43431 0.0
C39 C 0.01314 0.00473 0.55078 0.0
Zn40 Zn 0.57139 0.46577 0.99168 0.0
Zn41 Zn 0.41006 0.52855 -0.00617 0.0
C42 C 0.63793 0.40581 0.00067 0.0
O43 O 0.66941 0.42953 0.02122 0.0
C44 C 0.37206 0.59601 0.97625 0.0
O45 O 0.36382 0.57969 0.9435 0.0
O46 O 0.64378 0.48898 0.98153 0.0
O47 O 0.49943 0.48609 0.96624 0.0
O48 O 0.42651 0.51571 0.94107 0.0
C49 C 0.66993 0.47719 0.95419 0.0
O50 O 0.64504 0.45241 0.93165 0.0
O51 O 0.58783 0.41452 0.98344 0.0
C52 C 0.30196 0.52252 0.02411 0.0
O53 O 0.3246 0.54822 0.04624 0.0
O54 O 0.33218 0.50855 -0.00058 0.0
O55 O 0.47406 0.50874 0.0315 0.0
O56 O 0.55824 0.47824 0.0437 0.0
O57 O 0.39484 0.58 0.00275 0.0
C58 C 0.4719 0.49587 0.93755 0.0
C59 C 0.51383 0.49639 0.05452 0.0
Zn60 Zn 0.54935 0.53527 0.49916 0.0
Zn61 Zn 0.43266 0.46638 0.49234 0.0
C62 C 0.67411 0.52491 0.51141 0.0
O63 O 0.66101 0.54657 0.53894 0.0
C64 C 0.30512 0.46743 0.4684 0.0
O65 O 0.32181 0.4394 0.44928 0.0
O66 O 0.56483 0.58466 0.50001 0.0
O67 O 0.48193 0.5268 0.45845 0.0
O68 O 0.47255 0.47148 0.44755 0.0
C69 C 0.58844 0.59228 0.47263 0.0
O70 O 0.596 0.56843 0.44592 0.0
O71 O 0.63077 0.51301 0.48874 0.0
C72 C 0.4 0.40672 0.51905 0.0
O73 O 0.386 0.42934 0.54554 0.0
O74 O 0.42427 0.41657 0.493 0.0
O75 O 0.47371 0.48265 0.54179 0.0
O76 O 0.53533 0.5262 0.54956 0.0
O77 O 0.3456 0.48531 0.48785 0.0
C78 C 0.48281 0.49982 0.43672 0.0
C79 C 0.50777 0.50345 0.56229 0.0
H80 H 0.38984 0.64904 0.93833 0.0
H81 H 0.34326 0.70652 0.94452 0.0
H82 H 0.2483 0.6785 0.03087 0.0
H83 H 0.29773 0.62176 0.02606 0.0
H84 H 0.22821 0.72559 0.93392 0.0
H85 H 0.31176 0.76752 0.07711 0.0
H86 H 0.34207 0.72994 0.05267 0.0
H87 H 0.27229 0.72834 0.07223 0.0
C88 C 0.36004 0.65555 0.95915 0.0
C89 C 0.34834 0.6314 0.98227 0.0
C90 C 0.33316 0.68827 0.96255 0.0
C91 C 0.29299 0.69724 0.98863 0.0
C92 C 0.28072 0.6728 0.01145 0.0
H93 H 0.07718 0.8778 0.05026 0.0
H94 H 0.12198 0.82021 0.04122 0.0
C95 C 0.30886 0.64034 0.00867 0.0
C96 C 0.26201 0.73154 0.99074 0.0
H97 H 0.23394 0.80181 0.04906 0.0
C98 C 0.22967 0.74234 0.95908 0.0
C99 C 0.26378 0.75349 0.02352 0.0
C100 C 0.29983 0.7444 0.05821 0.0
C101 C 0.19782 0.77392 0.95945 0.0
C102 C 0.19923 0.79579 0.99234 0.0
C103 C 0.23217 0.78508 0.02388 0.0
C104 C 0.16715 0.82985 -0.00491 0.0
C105 C 0.16172 0.78287 0.92473 0.0
C106 C 0.17651 0.85454 0.97188 0.0
C107 C 0.1492 0.88714 0.97634 0.0
C108 C 0.11373 0.8961 0.00487 0.0
C109 C 0.10419 0.8715 0.02799 0.0
C110 C 0.13003 0.83864 0.0229 0.0
H111 H 0.1494 0.75966 0.90607 0.0
H112 H 0.11969 0.79758 0.93019 0.0
H113 H 0.18947 0.79857 0.91042 0.0
H114 H 0.20649 0.84907 0.95104 0.0
H115 H 0.15833 0.90587 0.95859 0.0
H116 H 0.75114 0.38348 0.02454 0.0
H117 H 0.79307 0.32533 0.01968 0.0
H118 H 0.62276 0.2889 0.96549 0.0
H119 H 0.58059 0.34749 0.96954 0.0
H120 H 0.75901 0.26878 0.04729 0.0
H121 H 0.74028 0.24707 0.89686 0.0
H122 H 0.73091 0.28887 0.92087 0.0
H123 H 0.67015 0.25944 0.91438 0.0
C124 C 0.72243 0.36317 0.01148 0.0
C125 C 0.66242 0.37018 -0.00267 0.0
C126 C 0.7466 0.32987 0.00876 0.0
C127 C 0.71145 0.30273 0.99183 0.0
C128 C 0.65123 0.30952 0.97798 0.0
H129 H 0.76438 0.08565 0.94712 0.0
H130 H 0.72866 0.14485 0.95421 0.0
C131 C 0.62704 0.34299 0.98046 0.0
C132 C 0.73791 0.26739 0.98927 0.0
H133 H 0.76827 0.1991 0.92896 0.0
C134 C 0.76126 0.25354 0.02141 0.0
C135 C 0.7413 0.24763 0.95551 0.0
C136 C 0.71988 0.26156 0.9199 0.0
C137 C 0.78607 0.22011 0.02081 0.0
C138 C 0.78869 0.20015 0.98702 0.0
C139 C 0.76618 0.21428 0.95488 0.0
C140 C 0.81153 0.16399 0.98415 0.0
C141 C 0.80742 0.20622 0.05644 0.0
C142 C 0.87036 0.15474 -0.00141 0.0
C143 C 0.8909 0.12051 -0.00508 0.0
C144 C 0.85335 0.09507 0.97609 0.0
C145 C 0.79482 0.10456 0.96148 0.0
C146 C 0.77418 0.13849 0.96556 0.0
H147 H 0.78795 0.22115 0.07956 0.0
H148 H 0.79531 0.17912 0.05575 0.0
H149 H 0.85729 0.20772 0.06163 0.0
H150 H 0.90066 0.17399 0.01231 0.0
H151 H 0.93628 0.11404 0.00636 0.0
H152 H 0.1026 0.13977 0.5266 0.0
H153 H 0.15281 0.19428 0.53436 0.0
H154 H 0.19078 0.1795 0.42286 0.0
H155 H 0.14109 0.12439 0.41472 0.0
H156 H 0.28753 0.19399 0.51173 0.0
H157 H 0.11276 0.2834 0.452 0.0
H158 H 0.09278 0.24667 0.4727 0.0
H159 H 0.12147 0.24089 0.42947 0.0
C160 C 0.12048 0.14832 0.50343 0.0
C161 C 0.11832 0.1277 0.47006 0.0
C162 C 0.14924 0.1794 0.50802 0.0
C163 C 0.17534 0.19053 0.47921 0.0
C164 C 0.17062 0.17105 0.4453 0.0
H165 H 0.39896 0.35852 0.46076 0.0
H166 H 0.34827 0.30403 0.45256 0.0
C167 C 0.1423 0.1397 0.44074 0.0
C168 C 0.2118 0.22115 0.48561 0.0
H169 H 0.20837 0.30567 0.47386 0.0
C170 C 0.27045 0.21845 0.5035 0.0
C171 C 0.18874 0.25274 0.47483 0.0
C172 C 0.12541 0.25646 0.45626 0.0
C173 C 0.30714 0.2469 0.51072 0.0
C174 C 0.28412 0.27846 0.49986 0.0
C175 C 0.22547 0.28118 0.48201 0.0
C176 C 0.32042 0.30912 0.50655 0.0
C177 C 0.37029 0.24328 0.5296 0.0
C178 C 0.3222 0.3293 0.53995 0.0
C179 C 0.35085 0.36051 0.54476 0.0
C180 C 0.378 0.37176 0.51616 0.0
C181 C 0.37853 0.35053 0.48333 0.0
C182 C 0.34955 0.31949 0.47851 0.0
H183 H 0.38246 0.21649 0.53474 0.0
H184 H 0.40321 0.25232 0.51286 0.0
H185 H 0.3743 0.25956 0.55597 0.0
H186 H 0.29968 0.32143 0.56178 0.0
H187 H 0.34994 0.37629 0.57037 0.0
H188 H 0.93591 0.84836 0.48656 0.0
H189 H 0.88669 0.79321 0.47637 0.0
H190 H 0.75055 0.83294 0.54407 0.0
H191 H 0.79962 0.8879 0.55482 0.0
H192 H 0.80146 0.76556 0.55652 0.0
H193 H 0.72254 0.77891 0.41105 0.0
H194 H 0.80121 0.78562 0.42585 0.0
H195 H 0.74536 0.815 0.44315 0.0
C196 C 0.89586 0.8452 0.49957 0.0
C197 C 0.87151 0.87241 0.52142 0.0
C198 C 0.86769 0.81383 0.49354 0.0
C199 C 0.81462 0.80942 0.509 0.0
C200 C 0.79145 0.83608 0.53185 0.0
H201 H 0.56293 0.65092 0.5144 0.0
H202 H 0.61755 0.70419 0.52133 0.0
C203 C 0.8197 0.86736 0.53806 0.0
C204 C 0.7825 0.77716 0.50114 0.0
H205 H 0.69816 0.72851 0.43401 0.0
C206 C 0.77893 0.75734 0.52976 0.0
C207 C 0.75363 0.76668 0.46611 0.0
C208 C 0.75531 0.78767 0.43471 0.0
C209 C 0.74703 0.72705 0.5243 0.0
C210 C 0.71668 0.71701 0.48949 0.0
C211 C 0.72118 0.73653 0.46068 0.0
C212 C 0.67992 0.68628 0.48261 0.0
C213 C 0.7469 0.70587 0.5557 0.0
C214 C 0.69488 0.65948 0.45703 0.0
C215 C 0.66301 0.62934 0.45249 0.0
C216 C 0.61606 0.6256 0.47368 0.0
C217 C 0.5994 0.65306 0.49806 0.0
C218 C 0.63076 0.68334 0.50221 0.0
H219 H 0.78531 0.71192 0.57695 0.0
H220 H 0.70451 0.71139 0.56838 0.0
H221 H 0.7493 0.67818 0.54639 0.0
H222 H 0.73246 0.66145 0.44148 0.0
H223 H 0.67691 0.60851 0.43357 0.0
H224 H 0.24878 0.04107 0.02493 0.0
H225 H 0.35914 0.03944 0.03336 0.0
H226 H 0.36195 0.97774 0.93063 0.0
H227 H 0.25178 0.97949 0.92167 0.0
H228 H 0.4287 0.97784 0.03629 0.0
H229 H 0.48476 0.05191 0.92665 0.0
H230 H 0.41143 0.05474 0.94296 0.0
H231 H 0.43124 0.01903 0.91196 0.0
C232 C 0.27288 0.02767 0.00382 0.0
C233 C 0.24169 0.01029 0.97269 0.0
C234 C 0.33579 0.02672 0.00874 0.0
C235 C 0.3683 0.00862 0.98253 0.0
C236 C 0.33743 0.99226 0.95086 0.0
H237 H 0.74107 0.95462 0.96404 0.0
H238 H 0.63088 0.95554 0.95916 0.0
C239 C 0.27453 0.99322 0.94587 0.0
C240 C 0.43434 0.0047 0.98947 0.0
H241 H 0.56515 0.02024 0.95619 0.0
C242 C 0.45872 0.98729 0.019 0.0
C243 C 0.47288 0.01701 0.96667 0.0
C244 C 0.44893 0.03699 0.93545 0.0
C245 C 0.52108 0.98128 0.02595 0.0
C246 C 0.55946 0.99328 0.00291 0.0
C247 C 0.53513 0.01088 0.97355 0.0
C248 C 0.62538 0.98861 0.00897 0.0
C249 C 0.54547 0.96162 0.05732 0.0
C250 C 0.65821 0.00634 0.03906 0.0
C251 C 0.72108 0.00591 0.04196 0.0
C252 C 0.75172 0.98794 0.0146 0.0
C253 C 0.71865 0.96884 0.98543 0.0
C254 C 0.65584 0.9693 0.98258 0.0
H255 H 0.50932 0.94837 0.06793 0.0
H256 H 0.58042 0.94244 0.049 0.0
H257 H 0.56698 0.9795 0.07973 0.0
H258 H 0.63517 0.02174 0.0594 0.0
H259 H 0.74538 0.02085 0.06477 0.0
H260 H 0.28718 0.05004 0.57507 0.0
H261 H 0.39479 0.04126 0.56892 0.0
H262 H 0.35223 0.97448 0.47047 0.0
H263 H 0.24446 0.98322 0.47614 0.0
H264 H 0.46922 0.979 0.56119 0.0
H265 H 0.45092 0.05227 0.44069 0.0
H266 H 0.39279 0.05415 0.47078 0.0
H267 H 0.39988 0.01776 0.43799 0.0
C268 C 0.30065 0.0332 0.55229 0.0
C269 C 0.25729 0.01766 0.52584 0.0
C270 C 0.36211 0.02822 0.54887 0.0
C271 C 0.3811 0.00776 0.51892 0.0
C272 C 0.33819 0.99086 0.49343 0.0
H273 H 0.72115 0.95984 0.43641 0.0
H274 H 0.6155 0.96876 0.44629 0.0
C275 C 0.27671 0.99578 0.49682 0.0
C276 C 0.4457 0.00529 0.51361 0.0
H277 H 0.54596 0.02659 0.45794 0.0
C278 C 0.48622 0.98948 0.53875 0.0
C279 C 0.46732 0.01901 0.48423 0.0
C280 C 0.42568 0.03701 0.45697 0.0
C281 C 0.54804 0.98636 0.53483 0.0
C282 C 0.56978 0.00028 0.50555 0.0
C283 C 0.52914 0.0162 0.48051 0.0
C284 C 0.63406 0.997 0.49928 0.0
C285 C 0.58916 0.96725 0.56136 0.0
C286 C 0.67952 0.01085 0.52541 0.0
C287 C 0.74033 0.00565 0.51993 0.0
C288 C 0.75631 0.98674 0.48811 0.0
C289 C 0.71043 0.97431 0.46136 0.0
C290 C 0.64994 0.97939 0.46691 0.0
H291 H 0.56344 0.95113 0.57648 0.0
H292 H 0.62241 0.9507 0.54717 0.0
H293 H 0.61443 0.98583 0.58144 0.0
H294 H 0.66801 0.02524 0.55022 0.0
H295 H 0.77467 0.0157 0.54092 0.0
H296 H 0.75639 0.43657 0.92417 0.0
H297 H 0.86548 0.44341 0.93657 0.0
H298 H 0.83654 0.54171 -0.004 0.0
H299 H 0.72734 0.53454 0.98473 0.0
H300 H 0.94478 0.49055 0.92423 0.0
H301 H 0.93418 0.48974 0.07221 0.0
H302 H 0.87068 0.47908 0.0388 0.0
H303 H 0.88837 0.52301 0.05269 0.0
C304 C 0.77326 0.45998 0.93917 0.0
C305 C 0.73367 0.48488 0.95391 0.0
C306 C 0.83552 0.46374 0.94641 0.0
C307 C 0.85876 0.49255 0.96817 0.0
C308 C 0.81926 0.51879 0.98017 0.0
H309 H 0.21175 0.56283 0.05043 0.0
H310 H 0.10352 0.55266 0.03879 0.0
C311 C 0.75706 0.51484 0.9734 0.0
C312 C 0.92416 0.49445 0.97954 0.0
H313 H 0.02888 0.50224 0.05423 0.0
C314 C 0.96331 0.49293 0.95261 0.0
C315 C 0.9479 0.49723 0.01665 0.0
C316 C 0.90817 0.49702 0.04676 0.0
C317 C 0.02577 0.49521 0.9618 0.0
C318 C 0.04939 0.49855 -0.00108 0.0
C319 C 0.01034 0.49967 0.02585 0.0
C320 C 0.11443 0.5024 0.0102 0.0
C321 C 0.06567 0.49502 0.93173 0.0
C322 C 0.15602 0.47681 -0.00059 0.0
C323 C 0.21769 0.48269 0.00565 0.0
C324 C 0.23844 0.51396 0.02338 0.0
C325 C 0.19689 0.53847 0.03673 0.0
C326 C 0.13516 0.53276 0.03003 0.0
H327 H 0.03946 0.50037 0.9056 0.0
H328 H 0.10136 0.51419 0.93889 0.0
H329 H 0.08799 0.46946 0.92747 0.0
H330 H 0.14069 0.45286 0.98495 0.0
H331 H 0.249 0.46324 -0.00448 0.0
H332 H 0.25185 0.52542 0.50052 0.0
H333 H 0.1439 0.5362 0.50642 0.0
H334 H 0.10315 0.43836 0.44722 0.0
H335 H 0.21017 0.42743 0.44085 0.0
H336 H 0.03196 0.52152 0.43591 0.0
H337 H 0.04124 0.45404 0.5605 0.0
H338 H 0.10537 0.47625 0.55022 0.0
H339 H 0.08403 0.43688 0.52414 0.0
C340 C 0.21986 0.50634 0.48847 0.0
C341 C 0.23979 0.47558 0.47017 0.0
C342 C 0.15827 0.51255 0.49186 0.0
C343 C 0.11575 0.48802 0.47727 0.0
C344 C 0.13531 0.45761 0.45856 0.0
H345 H 0.7211 0.48308 0.4566 0.0
H346 H 0.82814 0.47383 0.4473 0.0
C347 C 0.19659 0.45149 0.45493 0.0
C348 C 0.05103 0.49341 0.48248 0.0
H349 H 0.94583 0.47437 0.53632 0.0
C350 C 0.01298 0.51125 0.45781 0.0
C351 C 0.02668 0.48001 0.51113 0.0
C352 C 0.06613 0.46074 0.53823 0.0
C353 C 0.95087 0.51591 0.46104 0.0
C354 C 0.92634 0.50214 0.48947 0.0
C355 C 0.96465 0.48461 0.51434 0.0
C356 C 0.86151 0.50706 0.49489 0.0
C357 C 0.91193 0.53609 0.43456 0.0
C358 C 0.84499 0.52825 0.525 0.0
C359 C 0.78426 0.53347 0.53042 0.0
C360 C 0.73846 0.51746 0.50592 0.0
C361 C 0.75514 0.49579 0.47596 0.0
C362 C 0.81622 0.49063 0.47052 0.0
H363 H 0.9391 0.54877 0.41701 0.0
H364 H 0.88032 0.51876 0.41687 0.0
H365 H 0.88446 0.55581 0.4494 0.0
H366 H 0.87917 0.54113 0.54414 0.0
H367 H 0.7733 0.55044 0.55373 0.0
H368 H 0.89311 0.97114 0.38062 0.0
H369 H 0.89145 0.97535 0.31534 0.0
H370 H 0.06625 0.02091 0.33456 0.0
H371 H 0.06871 0.01641 0.39961 0.0
H372 H 0.90828 0.03819 0.27872 0.0
H373 H 0.0801 0.93362 0.25893 0.0
H374 H 0.03689 0.93857 0.29732 0.0
H375 H 0.09931 0.96562 0.29628 0.0
C376 C 0.93119 0.98202 0.3709 0.0
C377 C 0.98105 0.99356 0.39515 0.0
C378 C 0.92997 0.98457 0.33375 0.0
C379 C 0.97883 0.99831 0.32045 0.0
C380 C 0.02829 0.01014 0.34454 0.0
H381 H 0.06855 0.0365 0.10929 0.0
H382 H 0.06032 0.03888 0.17466 0.0
C383 C 0.02944 0.00777 0.38164 0.0
C384 C 0.97922 -0.0005 0.2812 0.0
H385 H 0.0519 0.96599 0.20938 0.0
C386 C 0.93944 0.0224 0.26343 0.0
C387 C 0.01974 0.97858 0.2616 0.0
C388 C 0.06118 0.95247 0.27932 0.0
C389 C 0.9402 0.02539 0.22633 0.0
C390 C 0.98171 0.00503 0.20706 0.0
C391 C 0.02086 0.98187 0.2247 0.0
C392 C 0.98358 0.00612 0.16801 0.0
C393 C 0.89723 0.0503 0.20783 0.0
C394 C 0.9432 0.9868 0.14323 0.0
C395 C 0.94822 0.98499 0.1062 0.0
C396 C 0.99353 0.0027 0.09341 0.0
C397 C 0.03326 0.02262 0.11839 0.0
C398 C 0.02853 0.02411 0.15557 0.0
H399 H 0.87063 0.06604 0.22726 0.0
H400 H 0.92273 0.06746 0.19379 0.0
H401 H 0.86553 0.03611 0.18685 0.0
H402 H 0.90864 0.97256 0.15263 0.0
H403 H 0.91679 0.9695 0.08764 0.0
H404 H 0.92138 0.95314 0.87647 0.0
H405 H 0.91929 0.94865 0.81047 0.0
H406 H 0.04987 0.02777 0.82069 0.0
H407 H 0.05289 0.03228 0.88687 0.0
H408 H 0.88756 0.00204 0.76625 0.0
H409 H 0.1201 0.95012 0.75283 0.0
H410 H 0.08424 0.94899 0.79369 0.0
H411 H 0.11587 0.9878 0.78428 0.0
C412 C 0.94989 0.96951 0.86474 0.0
C413 C 0.98722 0.99313 0.88686 0.0
C414 C 0.94864 0.96685 0.82706 0.0
C415 C 0.9849 0.98759 0.81091 0.0
C416 C 0.02235 0.01115 0.83281 0.0
H417 H 0.97975 0.0535 0.60229 0.0
H418 H 0.96327 0.04552 0.66445 0.0
C419 C 0.02366 0.01385 0.87055 0.0
C420 C 0.98125 0.98572 0.77101 0.0
H421 H 0.06507 0.96984 0.69992 0.0
C422 C 0.92613 0.99466 0.75164 0.0
C423 C 0.0316 0.97579 0.75222 0.0
C424 C 0.09121 0.96482 0.77172 0.0
C425 C 0.92064 0.99512 0.71386 0.0
C426 C 0.97155 0.98644 0.69527 0.0
C427 C 0.02611 0.97638 0.71445 0.0
C428 C 0.97088 0.99044 0.65641 0.0
C429 C 0.86085 0.00531 0.69408 0.0
C430 C 0.97925 0.96197 0.63132 0.0
C431 C 0.98836 0.96645 0.5957 0.0
C432 C 0.99003 -0.00054 0.58505 0.0
C433 C 0.97847 0.02778 0.60979 0.0
C434 C 0.96892 0.02328 0.64523 0.0
H435 H 0.82317 0.00401 0.71085 0.0
H436 H 0.86287 0.03194 0.68733 0.0
H437 H 0.85104 0.98864 0.66822 0.0
H438 H 0.98125 0.93646 0.63972 0.0
H439 H -0.00201 0.94423 0.57729 0.0
H440 H 0.50222 0.44783 0.38436 0.0
H441 H 0.50346 0.45135 0.31932 0.0
H442 H 0.46657 0.55985 0.33519 0.0
H443 H 0.46745 0.55675 0.40037 0.0
H444 H 0.41529 0.47091 0.26958 0.0
H445 H 0.60878 0.55668 0.27811 0.0
H446 H 0.59085 0.5366 0.31662 0.0
H447 H 0.54914 0.57416 0.30345 0.0
C448 C 0.49478 0.47248 0.37402 0.0
C449 C 0.4849 0.50202 0.39752 0.0
C450 C 0.49539 0.47445 0.33685 0.0
C451 C 0.48587 0.50593 0.32244 0.0
C452 C 0.4755 0.53542 0.3458 0.0
H453 H 0.43641 0.54 0.09075 0.0
H454 H 0.4236 0.54423 0.1558 0.0
C455 C 0.47569 0.53356 0.38305 0.0
C456 C 0.48555 0.50762 0.28284 0.0
H457 H 0.55483 0.54376 0.21991 0.0
C458 C 0.44563 0.48696 0.25876 0.0
C459 C 0.52537 0.5285 0.26873 0.0
C460 C 0.57136 0.54999 0.29303 0.0
C461 C 0.44488 0.48643 0.221 0.0
C462 C 0.48465 0.50721 0.20709 0.0
C463 C 0.52386 0.52825 0.23095 0.0
C464 C 0.49073 0.50472 0.16793 0.0
C465 C 0.40295 0.46301 0.19602 0.0
C466 C 0.53281 0.4813 0.1537 0.0
C467 C 0.54053 0.47899 0.11694 0.0
C468 C 0.50604 0.50002 0.09364 0.0
C469 C 0.46356 0.52347 0.10801 0.0
C470 C 0.45615 0.5259 0.14503 0.0
H471 H 0.37178 0.45017 0.21102 0.0
H472 H 0.37593 0.47765 0.17563 0.0
H473 H 0.42996 0.4432 0.18099 0.0
H474 H 0.55976 0.46477 0.17111 0.0
H475 H 0.57321 0.46041 0.10676 0.0
H476 H 0.48082 0.44965 0.59726 0.0
H477 H 0.4893 0.44587 0.6627 0.0
H478 H 0.56025 0.54705 0.68265 0.0
H479 H 0.55196 0.55117 0.61704 0.0
H480 H 0.59698 0.45604 0.71856 0.0
H481 H 0.40389 0.54774 0.73715 0.0
H482 H 0.41627 0.52572 0.69346 0.0
H483 H 0.4618 0.56116 0.71244 0.0
C484 C 0.49816 0.47117 0.6155 0.0
C485 C 0.515 0.50091 0.60193 0.0
C486 C 0.50342 0.46881 0.65286 0.0
C487 C 0.52507 0.49623 0.67736 0.0
C488 C 0.54316 0.52569 0.66404 0.0
H489 H 0.54437 0.53776 0.91095 0.0
H490 H 0.56816 0.535 0.84794 0.0
C491 C 0.5384 0.52798 0.6266 0.0
C492 C 0.52578 0.4946 0.71685 0.0
H493 H 0.45545 0.52762 0.78991 0.0
C494 C 0.56621 0.47169 0.73426 0.0
C495 C 0.48511 0.51486 0.73701 0.0
C496 C 0.43888 0.53862 0.71918 0.0
C497 C 0.56736 0.46887 0.77164 0.0
C498 C 0.52701 0.48936 0.79172 0.0
C499 C 0.48668 0.5122 0.7743 0.0
C500 C 0.52413 0.48716 0.83077 0.0
C501 C 0.61173 0.44437 0.78967 0.0
C502 C 0.49284 0.46072 0.84193 0.0
C503 C 0.47916 0.46234 0.87778 0.0
C504 C 0.49683 0.49035 0.90269 0.0
C505 C 0.53094 0.51581 0.89206 0.0
C506 C 0.54447 0.51425 0.85624 0.0
H507 H 0.64381 0.43249 0.77101 0.0
H508 H 0.63769 0.45785 0.81394 0.0
H509 H 0.58683 0.42386 0.79914 0.0
H510 H 0.47603 0.43991 0.82244 0.0
H511 H 0.45205 0.44274 0.88551 0.0
loop_
_geom_bond_atom_site_label_1
_geom_bond_atom_site_label_2
_geom_bond_distance
_geom_bond_site_symmetry_2
_ccdc_geom_bond_type
Zn0 O6 1.969 1_565 S
Zn0 O7 1.965 1_564 S
Zn0 O11 2.024 1_554 S
Zn0 O16 1.969 . S
Zn1 O8 1.969 . S
Zn1 O14 1.969 1_545 S
Zn1 O15 1.965 1_546 S
Zn1 O17 2.024 1_556 S
C2 O3 1.229 . S
C2 O11 1.058 1_554 S
O3 C2 1.229 . S
C4 O5 1.229 . S
C4 O17 1.058 1_556 S
O5 C4 1.229 . S
O6 Zn0 1.969 1_545 S
O6 C9 1.267 1_544 S
O7 Zn0 1.965 1_546 S
O7 C18 1.260 1_455 S
O8 Zn1 1.969 . S
O8 C18 1.258 . S
C9 O6 1.267 1_566 S
C9 O10 1.228 . S
O10 C9 1.228 . S
O11 Zn0 2.024 1_556 S
O11 C2 1.058 1_556 S
C12 O13 1.228 . S
C12 O14 1.267 1_544 S
O13 C12 1.228 . S
O14 Zn1 1.969 1_565 S
O14 C12 1.267 1_566 S
O15 Zn1 1.965 1_564 S
O15 C19 1.260 1_655 S
O16 Zn0 1.969 . S
O16 C19 1.258 . S
O17 Zn1 2.024 1_554 S
O17 C4 1.058 1_554 S
C18 O7 1.260 1_655 S
C18 O8 1.258 . S
C19 O15 1.260 1_455 S
C19 O16 1.258 . S
Zn20 O26 1.969 . S
Zn20 O27 1.965 . S
Zn20 O31 2.024 1_545 S
Zn20 O36 1.969 . S
Zn21 O28 1.969 . S
Zn21 O34 1.969 . S
Zn21 O35 1.965 . S
Zn21 O37 2.024 1_565 S
C22 O23 1.229 . S
C22 O31 1.058 1_545 S
O23 C22 1.229 . S
C24 O25 1.229 . S
C24 O37 1.058 1_565 S
O25 C24 1.229 . S
O26 Zn20 1.969 . S
O26 C29 1.267 . S
O27 Zn20 1.965 . S
O27 C38 1.260 1_455 S
O28 Zn21 1.969 . S
O28 C38 1.258 1_565 S
C29 O26 1.267 . S
C29 O30 1.228 . S
O30 C29 1.228 . S
O31 Zn20 2.024 1_565 S
O31 C22 1.058 1_565 S
C32 O33 1.228 . S
C32 O34 1.267 . S
O33 C32 1.228 . S
O34 Zn21 1.969 . S
O34 C32 1.267 . S
O35 Zn21 1.965 . S
O35 C39 1.260 1_655 S
O36 Zn20 1.969 . S
O36 C39 1.258 1_545 S
O37 Zn21 2.024 1_545 S
O37 C24 1.058 1_545 S
C38 O27 1.260 1_655 S
C38 O28 1.258 1_545 S
C39 O35 1.260 1_455 S
C39 O36 1.258 1_565 S
Zn40 O46 1.969 . S
Zn40 O47 1.965 1_554 S
Zn40 O51 2.024 1_554 S
Zn40 O56 1.969 . S
Zn41 O48 1.969 . S
Zn41 O54 1.969 . S
Zn41 O55 1.965 1_556 S
Zn41 O57 2.024 1_556 S
C42 O43 1.229 . S
C42 O51 1.058 1_554 S
O43 C42 1.229 . S
C44 O45 1.229 . S
C44 O57 1.058 1_556 S
O45 C44 1.229 . S
O46 Zn40 1.969 . S
O46 C49 1.267 1_554 S
O47 Zn40 1.965 1_556 S
O47 C58 1.260 . S
O48 Zn41 1.969 . S
O48 C58 1.258 . S
C49 O46 1.267 1_556 S
C49 O50 1.228 . S
O50 C49 1.228 . S
O51 Zn40 2.024 1_556 S
O51 C42 1.058 1_556 S
C52 O53 1.228 . S
C52 O54 1.267 1_554 S
O53 C52 1.228 . S
O54 Zn41 1.969 . S
O54 C52 1.267 1_556 S
O55 Zn41 1.965 1_554 S
O55 C59 1.260 . S
O56 Zn40 1.969 . S
O56 C59 1.258 . S
O57 Zn41 2.024 1_554 S
O57 C44 1.058 1_554 S
C58 O47 1.260 . S
C58 O48 1.258 . S
C59 O55 1.260 . S
C59 O56 1.258 . S
Zn60 O66 1.969 . S
Zn60 O67 1.965 . S
Zn60 O71 2.024 . S
Zn60 O76 1.969 . S
Zn61 O68 1.969 . S
Zn61 O74 1.969 . S
Zn61 O75 1.965 . S
Zn61 O77 2.024 . S
C62 O63 1.229 . S
C62 O71 1.058 . S
O63 C62 1.229 . S
C64 O65 1.229 . S
C64 O77 1.058 . S
O65 C64 1.229 . S
O66 Zn60 1.969 . S
O66 C69 1.267 . S
O67 Zn60 1.965 . S
O67 C78 1.260 . S
O68 Zn61 1.969 . S
O68 C78 1.258 . S
C69 O66 1.267 . S
C69 O70 1.228 . S
O70 C69 1.228 . S
O71 Zn60 2.024 . S
O71 C62 1.058 . S
C72 O73 1.228 . S
C72 O74 1.267 . S
O73 C72 1.228 . S
O74 Zn61 1.969 . S
O74 C72 1.267 . S
O75 Zn61 1.965 . S
O75 C79 1.260 . S
O76 Zn60 1.969 . S
O76 C79 1.258 . S
O77 Zn61 2.024 . S
O77 C64 1.058 . S
C78 O67 1.260 . S
C78 O68 1.258 . S
C79 O75 1.260 . S
C79 O76 1.258 . S
H80 C88 0.929 . S
H81 C90 0.930 . S
H82 C92 0.930 . S
H83 C95 0.929 . S
H84 C98 0.930 . S
H85 C100 0.960 . S
H86 C100 0.960 . S
H87 C100 0.960 . S
C88 H80 0.929 . S
C88 C89 1.377 1_556 S
C88 C90 1.384 . S
C89 C88 1.377 1_554 S
C89 C95 1.390 . S
C90 H81 0.930 . S
C90 C88 1.384 . S
C90 C91 1.371 1_556 S
C91 C90 1.371 1_554 S
C91 C92 1.401 . S
C91 C96 1.490 1_554 S
C92 H82 0.930 . S
C92 C91 1.401 . S
C92 C95 1.386 . S
H93 C109 0.930 . S
H94 C110 0.931 . S
C95 H83 0.929 . S
C95 C89 1.390 . S
C95 C92 1.386 . S
C96 C91 1.490 1_556 S
C96 C98 1.395 . S
C96 C99 1.403 1_556 S
H97 C103 0.930 . S
C98 H84 0.930 . S
C98 C96 1.395 . S
C98 C101 1.403 . S
C99 C96 1.403 1_554 S
C99 C100 1.524 . S
C99 C103 1.400 . S
C100 H85 0.960 . S
C100 H86 0.960 . S
C100 H87 0.960 . S
C100 C99 1.524 . S
C101 C98 1.403 . S
C101 C102 1.392 . S
C101 C105 1.495 . S
C102 C101 1.392 . S
C102 C103 1.385 1_556 S
C102 C104 1.478 . S
C103 H97 0.930 . S
C103 C99 1.400 . S
C103 C102 1.385 1_554 S
C104 C102 1.478 . S
C104 C106 1.381 . S
C104 C110 1.383 1_556 S
C105 C101 1.495 . S
C105 H111 0.959 . S
C105 H112 0.961 . S
C105 H113 0.960 . S
C106 C104 1.381 . S
C106 C107 1.394 . S
C106 H114 0.930 . S
C107 C106 1.394 . S
C107 C108 1.383 . S
C107 H115 0.929 . S
C108 C107 1.383 . S
C108 C109 1.377 1_556 S
C109 H93 0.930 . S
C109 C108 1.377 1_554 S
C109 C110 1.379 . S
C110 H94 0.931 . S
C110 C104 1.383 1_554 S
C110 C109 1.379 . S
H111 C105 0.959 . S
H112 C105 0.961 . S
H113 C105 0.960 . S
H114 C106 0.930 . S
H115 C107 0.929 . S
H116 C124 0.929 . S
H117 C126 0.930 . S
H118 C128 0.930 . S
H119 C131 0.929 . S
H120 C134 0.930 . S
H121 C136 0.960 . S
H122 C136 0.960 . S
H123 C136 0.960 . S
C124 H116 0.929 . S
C124 C125 1.377 1_554 S
C124 C126 1.384 . S
C125 C124 1.377 1_556 S
C125 C131 1.390 . S
C126 H117 0.930 . S
C126 C124 1.384 . S
C126 C127 1.371 1_554 S
C127 C126 1.371 1_556 S
C127 C128 1.401 . S
C127 C132 1.489 1_556 S
C128 H118 0.930 . S
C128 C127 1.401 . S
C128 C131 1.386 . S
H129 C145 0.930 . S
H130 C146 0.931 1_556 S
C131 H119 0.929 . S
C131 C125 1.390 . S
C131 C128 1.386 . S
C132 C127 1.489 1_554 S
C132 C134 1.395 . S
C132 C135 1.403 1_554 S
H133 C139 0.930 . S
C134 H120 0.930 . S
C134 C132 1.395 . S
C134 C137 1.403 . S
C135 C132 1.403 1_556 S
C135 C136 1.524 . S
C135 C139 1.400 . S
C136 H121 0.960 . S
C136 H122 0.960 . S
C136 H123 0.960 . S
C136 C135 1.524 . S
C137 C134 1.403 . S
C137 C138 1.392 . S
C137 C141 1.495 . S
C138 C137 1.392 . S
C138 C139 1.385 1_554 S
C138 C140 1.478 . S
C139 H133 0.930 . S
C139 C135 1.400 . S
C139 C138 1.385 1_556 S
C140 C138 1.478 . S
C140 C142 1.381 . S
C140 C146 1.383 . S
C141 C137 1.495 . S
C141 H147 0.959 . S
C141 H148 0.961 . S
C141 H149 0.960 . S
C142 C140 1.381 . S
C142 C143 1.394 . S
C142 H150 0.930 . S
C143 C142 1.394 . S
C143 C144 1.383 . S
C143 H151 0.929 . S
C144 C143 1.383 . S
C144 C145 1.377 1_554 S
C145 H129 0.930 . S
C145 C144 1.377 1_556 S
C145 C146 1.379 1_556 S
C146 H130 0.931 1_554 S
C146 C140 1.383 . S
C146 C145 1.379 1_554 S
H147 C141 0.959 . S
H148 C141 0.961 . S
H149 C141 0.960 . S
H150 C142 0.930 . S
H151 C143 0.929 . S
H152 C160 0.929 . S
H153 C162 0.930 . S
H154 C164 0.930 . S
H155 C167 0.929 . S
H156 C170 0.930 . S
H157 C172 0.960 . S
H158 C172 0.960 . S
H159 C172 0.960 . S
C160 H152 0.929 . S
C160 C161 1.377 . S
C160 C162 1.384 . S
C161 C160 1.377 . S
C161 C167 1.390 . S
C162 H153 0.930 . S
C162 C160 1.384 . S
C162 C163 1.372 . S
C163 C162 1.372 . S
C163 C164 1.400 . S
C163 C168 1.490 . S
C164 H154 0.930 . S
C164 C163 1.400 . S
C164 C167 1.386 . S
H165 C181 0.930 . S
H166 C182 0.931 . S
C167 H155 0.929 . S
C167 C161 1.390 . S
C167 C164 1.386 . S
C168 C163 1.490 . S
C168 C170 1.395 . S
C168 C171 1.403 . S
H169 C175 0.930 . S
C170 H156 0.930 . S
C170 C168 1.395 . S
C170 C173 1.403 . S
C171 C168 1.403 . S
C171 C172 1.524 . S
C171 C175 1.400 . S
C172 H157 0.960 . S
C172 H158 0.960 . S
C172 H159 0.960 . S
C172 C171 1.524 . S
C173 C170 1.403 . S
C173 C174 1.392 . S
C173 C177 1.495 . S
C174 C173 1.392 . S
C174 C175 1.385 . S
C174 C176 1.478 . S
C175 H169 0.930 . S
C175 C171 1.400 . S
C175 C174 1.385 . S
C176 C174 1.478 . S
C176 C178 1.381 . S
C176 C182 1.383 . S
C177 C173 1.495 . S
C177 H183 0.959 . S
C177 H184 0.961 . S
C177 H185 0.960 . S
C178 C176 1.381 . S
C178 C179 1.394 . S
C178 H186 0.930 . S
C179 C178 1.394 . S
C179 C180 1.383 . S
C179 H187 0.929 . S
C180 C179 1.383 . S
C180 C181 1.377 . S
C181 H165 0.930 . S
C181 C180 1.377 . S
C181 C182 1.379 . S
C182 H166 0.931 . S
C182 C176 1.383 . S
C182 C181 1.379 . S
H183 C177 0.959 . S
H184 C177 0.961 . S
H185 C177 0.960 . S
H186 C178 0.930 . S
H187 C179 0.929 . S
H188 C196 0.929 . S
H189 C198 0.930 . S
H190 C200 0.930 . S
H191 C203 0.929 . S
H192 C206 0.930 . S
H193 C208 0.960 . S
H194 C208 0.960 . S
H195 C208 0.960 . S
C196 H188 0.929 . S
C196 C197 1.377 . S
C196 C198 1.384 . S
C197 C196 1.377 . S
C197 C203 1.390 . S
C198 H189 0.930 . S
C198 C196 1.384 . S
C198 C199 1.372 . S
C199 C198 1.372 . S
C199 C200 1.400 . S
C199 C204 1.490 . S
C200 H190 0.930 . S
C200 C199 1.400 . S
C200 C203 1.386 . S
H201 C217 0.930 . S
H202 C218 0.931 . S
C203 H191 0.929 . S
C203 C197 1.390 . S
C203 C200 1.386 . S
C204 C199 1.490 . S
C204 C206 1.395 . S
C204 C207 1.403 . S
H205 C211 0.930 . S
C206 H192 0.930 . S
C206 C204 1.395 . S
C206 C209 1.403 . S
C207 C204 1.403 . S
C207 C208 1.524 . S
C207 C211 1.400 . S
C208 H193 0.960 . S
C208 H194 0.960 . S
C208 H195 0.960 . S
C208 C207 1.524 . S
C209 C206 1.403 . S
C209 C210 1.392 . S
C209 C213 1.495 . S
C210 C209 1.392 . S
C210 C211 1.385 . S
C210 C212 1.478 . S
C211 H205 0.930 . S
C211 C207 1.400 . S
C211 C210 1.385 . S
C212 C210 1.478 . S
C212 C214 1.381 . S
C212 C218 1.383 . S
C213 C209 1.495 . S
C213 H219 0.959 . S
C213 H220 0.961 . S
C213 H221 0.960 . S
C214 C212 1.381 . S
C214 C215 1.394 . S
C214 H222 0.930 . S
C215 C214 1.394 . S
C215 C216 1.383 . S
C215 H223 0.929 . S
C216 C215 1.383 . S
C216 C217 1.377 . S
C217 H201 0.930 . S
C217 C216 1.377 . S
C217 C218 1.379 . S
C218 H202 0.931 . S
C218 C212 1.383 . S
C218 C217 1.379 . S
H219 C213 0.959 . S
H220 C213 0.961 . S
H221 C213 0.960 . S
H222 C214 0.930 . S
H223 C215 0.929 . S
H224 C232 0.929 . S
H225 C234 0.930 . S
H226 C236 0.930 . S
H227 C239 0.929 . S
H228 C242 0.930 . S
H229 C244 0.960 . S
H230 C244 0.960 . S
H231 C244 0.960 . S
C232 H224 0.929 . S
C232 C233 1.377 1_554 S
C232 C234 1.384 . S
C233 C232 1.377 1_556 S
C233 C239 1.390 1_545 S
C234 H225 0.930 . S
C234 C232 1.384 . S
C234 C235 1.370 1_554 S
C235 C234 1.370 1_556 S
C235 C236 1.402 1_545 S
C235 C240 1.490 1_556 S
C236 H226 0.930 . S
C236 C235 1.402 1_565 S
C236 C239 1.386 . S
H237 C253 0.930 . S
H238 C254 0.931 . S
C239 H227 0.929 . S
C239 C233 1.390 1_565 S
C239 C236 1.386 . S
C240 C235 1.490 1_554 S
C240 C242 1.395 1_545 S
C240 C243 1.403 1_554 S
H241 C247 0.930 . S
C242 H228 0.930 . S
C242 C240 1.395 1_565 S
C242 C245 1.403 . S
C243 C240 1.403 1_556 S
C243 C244 1.524 . S
C243 C247 1.400 . S
C244 H229 0.960 . S
C244 H230 0.960 . S
C244 H231 0.960 . S
C244 C243 1.524 . S
C245 C242 1.403 . S
C245 C246 1.392 . S
C245 C249 1.495 . S
C246 C245 1.392 . S
C246 C247 1.385 1_564 S
C246 C248 1.478 . S
C247 H241 0.930 . S
C247 C243 1.400 . S
C247 C246 1.385 1_546 S
C248 C246 1.478 . S
C248 C250 1.381 1_565 S
C248 C254 1.383 1_554 S
C249 C245 1.495 . S
C249 H255 0.959 . S
C249 H256 0.961 . S
C249 H257 0.960 . S
C250 C248 1.381 1_545 S
C250 C251 1.394 . S
C250 H258 0.930 . S
C251 C250 1.394 . S
C251 C252 1.383 1_545 S
C251 H259 0.929 . S
C252 C251 1.383 1_565 S
C252 C253 1.377 1_554 S
C253 H237 0.930 . S
C253 C252 1.377 1_556 S
C253 C254 1.379 . S
C254 H238 0.931 . S
C254 C248 1.383 1_556 S
C254 C253 1.379 . S
H255 C249 0.959 . S
H256 C249 0.961 . S
H257 C249 0.960 . S
H258 C250 0.930 . S
H259 C251 0.929 . S
H260 C268 0.929 . S
H261 C270 0.930 . S
H262 C272 0.930 . S
H263 C275 0.929 . S
H264 C278 0.930 . S
H265 C280 0.960 . S
H266 C280 0.960 . S
H267 C280 0.960 . S
C268 H260 0.929 . S
C268 C269 1.377 1_545 S
C268 C270 1.384 . S
C269 C268 1.377 1_565 S
C269 C275 1.390 . S
C270 H261 0.930 . S
C270 C268 1.384 . S
C270 C271 1.362 1_545 S
C271 C270 1.362 1_565 S
C271 C272 1.411 . S
C271 C276 1.489 . S
C272 H262 0.930 . S
C272 C271 1.411 . S
C272 C275 1.386 . S
H273 C289 0.930 . S
H274 C290 0.931 . S
C275 H263 0.929 . S
C275 C269 1.390 . S
C275 C272 1.386 . S
C276 C271 1.489 . S
C276 C278 1.395 . S
C276 C279 1.402 1_565 S
H277 C283 0.930 . S
C278 H264 0.930 . S
C278 C276 1.395 . S
C278 C281 1.403 . S
C279 C276 1.402 1_545 S
C279 C280 1.524 . S
C279 C283 1.400 . S
C280 H265 0.960 . S
C280 H266 0.960 . S
C280 H267 0.960 . S
C280 C279 1.524 . S
C281 C278 1.403 . S
C281 C282 1.407 . S
C281 C285 1.495 . S
C282 C281 1.407 . S
C282 C283 1.372 1_565 S
C282 C284 1.477 . S
C283 H277 0.930 . S
C283 C279 1.400 . S
C283 C282 1.372 1_545 S
C284 C282 1.477 . S
C284 C286 1.370 1_565 S
C284 C290 1.392 . S
C285 C281 1.495 . S
C285 H291 0.959 . S
C285 H292 0.961 . S
C285 H293 0.960 . S
C286 C284 1.370 1_545 S
C286 C287 1.394 . S
C286 H294 0.930 . S
C287 C286 1.394 . S
C287 C288 1.383 . S
C287 H295 0.929 . S
C288 C287 1.383 . S
C288 C289 1.377 1_545 S
C289 H273 0.930 . S
C289 C288 1.377 1_565 S
C289 C290 1.379 . S
C290 H274 0.931 . S
C290 C284 1.392 . S
C290 C289 1.379 . S
H291 C285 0.959 . S
H292 C285 0.961 . S
H293 C285 0.960 . S
H294 C286 0.930 . S
H295 C287 0.929 . S
H296 C304 0.929 . S
H297 C306 0.930 . S
H298 C308 0.930 . S
H299 C311 0.929 . S
H300 C314 0.930 . S
H301 C316 0.960 . S
H302 C316 0.960 . S
H303 C316 0.960 . S
C304 H296 0.929 . S
C304 C305 1.377 . S
C304 C306 1.384 . S
C305 C304 1.377 . S
C305 C311 1.390 1_556 S
C306 H297 0.930 . S
C306 C304 1.384 . S
C306 C307 1.372 . S
C307 C306 1.372 . S
C307 C308 1.400 1_556 S
C307 C312 1.490 . S
C308 H298 0.930 . S
C308 C307 1.400 1_554 S
C308 C311 1.386 . S
H309 C325 0.930 . S
H310 C326 0.931 . S
C311 H299 0.929 . S
C311 C305 1.390 1_554 S
C311 C308 1.386 . S
C312 C307 1.490 . S
C312 C314 1.395 . S
C312 C315 1.403 1_556 S
H313 C319 0.930 . S
C314 H300 0.930 . S
C314 C312 1.395 . S
C314 C317 1.403 1_655 S
C315 C312 1.403 1_554 S
C315 C316 1.524 . S
C315 C319 1.400 1_655 S
C316 H301 0.960 . S
C316 H302 0.960 . S
C316 H303 0.960 . S
C316 C315 1.524 . S
C317 C314 1.403 1_455 S
C317 C318 1.392 . S
C317 C321 1.495 . S
C318 C317 1.392 . S
C318 C319 1.385 1_556 S
C318 C320 1.478 . S
C319 H313 0.930 . S
C319 C315 1.400 1_455 S
C319 C318 1.385 1_554 S
C320 C318 1.478 . S
C320 C322 1.381 . S
C320 C326 1.383 1_556 S
C321 C317 1.495 . S
C321 H327 0.959 . S
C321 H328 0.961 . S
C321 H329 0.960 . S
C322 C320 1.381 . S
C322 C323 1.394 . S
C322 H330 0.930 . S
C323 C322 1.394 . S
C323 C324 1.383 1_556 S
C323 H331 0.929 . S
C324 C323 1.383 1_554 S
C324 C325 1.377 . S
C325 H309 0.930 . S
C325 C324 1.377 . S
C325 C326 1.379 . S
C326 H310 0.931 . S
C326 C320 1.383 1_554 S
C326 C325 1.379 . S
H327 C321 0.959 . S
H328 C321 0.961 . S
H329 C321 0.960 . S
H330 C322 0.930 . S
H331 C323 0.929 . S
H332 C340 0.929 . S
H333 C342 0.930 . S
H334 C344 0.930 . S
H335 C347 0.929 . S
H336 C350 0.930 . S
H337 C352 0.960 . S
H338 C352 0.960 . S
H339 C352 0.960 . S
C340 H332 0.929 . S
C340 C341 1.377 . S
C340 C342 1.384 . S
C341 C340 1.377 . S
C341 C347 1.390 . S
C342 H333 0.930 . S
C342 C340 1.384 . S
C342 C343 1.372 . S
C343 C342 1.372 . S
C343 C344 1.400 . S
C343 C348 1.490 . S
C344 H334 0.930 . S
C344 C343 1.400 . S
C344 C347 1.386 . S
H345 C361 0.930 . S
H346 C362 0.931 . S
C347 H335 0.929 . S
C347 C341 1.390 . S
C347 C344 1.386 . S
C348 C343 1.490 . S
C348 C350 1.395 . S
C348 C351 1.403 . S
H349 C355 0.930 . S
C350 H336 0.930 . S
C350 C348 1.395 . S
C350 C353 1.403 1_455 S
C351 C348 1.403 . S
C351 C352 1.524 . S
C351 C355 1.400 1_455 S
C352 H337 0.960 . S
C352 H338 0.960 . S
C352 H339 0.960 . S
C352 C351 1.524 . S
C353 C350 1.403 1_655 S
C353 C354 1.392 . S
C353 C357 1.495 . S
C354 C353 1.392 . S
C354 C355 1.385 . S
C354 C356 1.478 . S
C355 H349 0.930 . S
C355 C351 1.400 1_655 S
C355 C354 1.385 . S
C356 C354 1.478 . S
C356 C358 1.381 . S
C356 C362 1.383 . S
C357 C353 1.495 . S
C357 H363 0.959 . S
C357 H364 0.961 . S
C357 H365 0.960 . S
C358 C356 1.381 . S
C358 C359 1.394 . S
C358 H366 0.930 . S
C359 C358 1.394 . S
C359 C360 1.383 . S
C359 H367 0.929 . S
C360 C359 1.383 . S
C360 C361 1.377 . S
C361 H345 0.930 . S
C361 C360 1.377 . S
C361 C362 1.379 . S
C362 H346 0.931 . S
C362 C356 1.383 . S
C362 C361 1.379 . S
H363 C357 0.959 . S
H364 C357 0.961 . S
H365 C357 0.960 . S
H366 C358 0.930 . S
H367 C359 0.929 . S
H368 C376 0.929 . S
H369 C378 0.930 . S
H370 C380 0.930 . S
H371 C383 0.929 . S
H372 C386 0.930 . S
H373 C388 0.960 . S
H374 C388 0.960 . S
H375 C388 0.960 . S
C376 H368 0.929 . S
C376 C377 1.377 1_565 S
C376 C378 1.384 . S
C377 C376 1.377 1_545 S
C377 C383 1.390 1_655 S
C378 H369 0.930 . S
C378 C376 1.384 . S
C378 C379 1.363 1_565 S
C379 C378 1.363 1_545 S
C379 C380 1.405 1_655 S
C379 C384 1.494 . S
C380 H370 0.930 . S
C380 C379 1.405 1_455 S
C380 C383 1.386 . S
H381 C397 0.930 . S
H382 C398 0.931 . S
C383 H371 0.929 . S
C383 C377 1.390 1_455 S
C383 C380 1.386 . S
C384 C379 1.494 . S
C384 C386 1.395 . S
C384 C387 1.403 1_645 S
H385 C391 0.930 . S
C386 H372 0.930 . S
C386 C384 1.395 . S
C386 C389 1.403 . S
C387 C384 1.403 1_465 S
C387 C388 1.524 . S
C387 C391 1.400 . S
C388 H373 0.960 . S
C388 H374 0.960 . S
C388 H375 0.960 . S
C388 C387 1.524 . S
C389 C386 1.403 . S
C389 C390 1.392 . S
C389 C393 1.495 . S
C390 C389 1.392 . S
C390 C391 1.385 1_645 S
C390 C392 1.478 . S
C391 H385 0.930 . S
C391 C387 1.400 . S
C391 C390 1.385 1_465 S
C392 C390 1.478 . S
C392 C394 1.381 1_545 S
C392 C398 1.383 1_655 S
C393 C389 1.495 . S
C393 H399 0.959 . S
C393 H400 0.961 . S
C393 H401 0.960 . S
C394 C392 1.381 1_565 S
C394 C395 1.394 . S
C394 H402 0.930 . S
C395 C394 1.394 . S
C395 C396 1.383 1_565 S
C395 H403 0.929 . S
C396 C395 1.383 1_545 S
C396 C397 1.377 1_655 S
C397 H381 0.930 . S
C397 C396 1.377 1_455 S
C397 C398 1.379 . S
C398 H382 0.931 . S
C398 C392 1.383 1_455 S
C398 C397 1.379 . S
H399 C393 0.959 . S
H400 C393 0.961 . S
H401 C393 0.960 . S
H402 C394 0.930 . S
H403 C395 0.929 . S
H404 C412 0.929 . S
H405 C414 0.930 . S
H406 C416 0.930 . S
H407 C419 0.929 . S
H408 C422 0.930 . S
H409 C424 0.960 . S
H410 C424 0.960 . S
H411 C424 0.953 1_545 S
C412 H404 0.929 . S
C412 C413 1.377 1_655 S
C412 C414 1.384 . S
C413 C412 1.377 1_455 S
C413 C419 1.390 1_565 S
C414 H405 0.930 . S
C414 C412 1.384 . S
C414 C415 1.372 1_655 S
C415 C414 1.372 1_455 S
C415 C416 1.400 1_565 S
C415 C420 1.490 . S
C416 H406 0.930 . S
C416 C415 1.400 1_545 S
C416 C419 1.386 . S
H417 C433 0.930 . S
H418 C434 0.931 . S
C419 H407 0.929 . S
C419 C413 1.390 1_545 S
C419 C416 1.386 . S
C420 C415 1.490 . S
C420 C422 1.395 1_465 S
C420 C423 1.403 . S
H421 C427 0.930 . S
C422 H408 0.930 . S
C422 C420 1.395 1_645 S
C422 C425 1.403 . S
C423 C420 1.403 . S
C423 C424 1.524 . S
C423 C427 1.400 . S
C424 H409 0.960 . S
C424 H410 0.960 . S
C424 H411 0.953 1_565 S
C424 C423 1.524 . S
C425 C422 1.403 . S
C425 C426 1.392 1_545 S
C425 C429 1.495 . S
C426 C425 1.392 1_565 S
C426 C427 1.385 1_655 S
C426 C428 1.478 . S
C427 H421 0.930 . S
C427 C423 1.400 . S
C427 C426 1.385 1_455 S
C428 C426 1.478 . S
C428 C430 1.384 . S
C428 C434 1.379 1_665 S
C429 C425 1.495 . S
C429 H435 0.959 . S
C429 H436 0.961 . S
C429 H437 0.960 1_545 S
C430 C428 1.384 . S
C430 C431 1.394 . S
C430 H438 0.930 . S
C431 C430 1.394 . S
C431 C432 1.383 1_655 S
C431 H439 0.929 . S
C432 C431 1.383 1_455 S
C432 C433 1.377 1_565 S
C433 H417 0.930 . S
C433 C432 1.377 1_545 S
C433 C434 1.379 . S
C434 H418 0.931 . S
C434 C428 1.379 1_445 S
C434 C433 1.379 . S
H435 C429 0.959 . S
H436 C429 0.961 . S
H437 C429 0.960 1_565 S
H438 C430 0.930 . S
H439 C431 0.929 . S
H440 C448 0.929 . S
H441 C450 0.930 . S
H442 C452 0.930 . S
H443 C455 0.929 . S
H444 C458 0.930 . S
H445 C460 0.960 . S
H446 C460 0.960 . S
H447 C460 0.960 . S
C448 H440 0.929 . S
C448 C449 1.377 . S
C448 C450 1.384 . S
C449 C448 1.377 . S
C449 C455 1.390 . S
C450 H441 0.930 . S
C450 C448 1.384 . S
C450 C451 1.372 . S
C451 C450 1.372 . S
C451 C452 1.400 . S
C451 C456 1.490 . S
C452 H442 0.930 . S
C452 C451 1.400 . S
C452 C455 1.386 . S
H453 C469 0.930 . S
H454 C470 0.931 . S
C455 H443 0.929 . S
C455 C449 1.390 . S
C455 C452 1.386 . S
C456 C451 1.490 . S
C456 C458 1.395 . S
C456 C459 1.403 . S
H457 C463 0.930 . S
C458 H444 0.930 . S
C458 C456 1.395 . S
C458 C461 1.403 . S
C459 C456 1.403 . S
C459 C460 1.524 . S
C459 C463 1.400 . S
C460 H445 0.960 . S
C460 H446 0.960 . S
C460 H447 0.960 . S
C460 C459 1.524 . S
C461 C458 1.403 . S
C461 C462 1.392 . S
C461 C465 1.495 . S
C462 C461 1.392 . S
C462 C463 1.385 . S
C462 C464 1.478 . S
C463 H457 0.930 . S
C463 C459 1.400 . S
C463 C462 1.385 . S
C464 C462 1.478 . S
C464 C466 1.381 . S
C464 C470 1.383 . S
C465 C461 1.495 . S
C465 H471 0.959 . S
C465 H472 0.961 . S
C465 H473 0.960 . S
C466 C464 1.381 . S
C466 C467 1.394 . S
C466 H474 0.930 . S
C467 C466 1.394 . S
C467 C468 1.383 . S
C467 H475 0.929 . S
C468 C467 1.383 . S
C468 C469 1.377 . S
C469 H453 0.930 . S
C469 C468 1.377 . S
C469 C470 1.379 . S
C470 H454 0.931 . S
C470 C464 1.383 . S
C470 C469 1.379 . S
H471 C465 0.959 . S
H472 C465 0.961 . S
H473 C465 0.960 . S
H474 C466 0.930 . S
H475 C467 0.929 . S
H476 C484 0.929 . S
H477 C486 0.930 . S
H478 C488 0.930 . S
H479 C491 0.929 . S
H480 C494 0.930 . S
H481 C496 0.960 . S
H482 C496 0.960 . S
H483 C496 0.960 . S
C484 H476 0.929 . S
C484 C485 1.377 . S
C484 C486 1.384 . S
C485 C484 1.377 . S
C485 C491 1.390 . S
C486 H477 0.930 . S
C486 C484 1.384 . S
C486 C487 1.372 . S
C487 C486 1.372 . S
C487 C488 1.400 . S
C487 C492 1.490 . S
C488 H478 0.930 . S
C488 C487 1.400 . S
C488 C491 1.386 . S
H489 C505 0.930 . S
H490 C506 0.931 . S
C491 H479 0.929 . S
C491 C485 1.390 . S
C491 C488 1.386 . S
C492 C487 1.490 . S
C492 C494 1.395 . S
C492 C495 1.403 . S
H493 C499 0.930 . S
C494 H480 0.930 . S
C494 C492 1.395 . S
C494 C497 1.403 . S
C495 C492 1.403 . S
C495 C496 1.524 . S
C495 C499 1.400 . S
C496 H481 0.960 . S
C496 H482 0.960 . S
C496 H483 0.960 . S
C496 C495 1.524 . S
C497 C494 1.403 . S
C497 C498 1.392 . S
C497 C501 1.495 . S
C498 C497 1.392 . S
C498 C499 1.385 . S
C498 C500 1.478 . S
C499 H493 0.930 . S
C499 C495 1.400 . S
C499 C498 1.385 . S
C500 C498 1.478 . S
C500 C502 1.381 . S
C500 C506 1.383 . S
C501 C497 1.495 . S
C501 H507 0.959 . S
C501 H508 0.961 . S
C501 H509 0.960 . S
C502 C500 1.381 . S
C502 C503 1.394 . S
C502 H510 0.930 . S
C503 C502 1.394 . S
C503 C504 1.383 . S
C503 H511 0.929 . S
C504 C503 1.383 . S
C504 C505 1.377 . S
C505 H489 0.930 . S
C505 C504 1.377 . S
C505 C506 1.379 . S
C506 H490 0.931 . S
C506 C500 1.383 . S
C506 C505 1.379 . S
H507 C501 0.959 . S
H508 C501 0.961 . S
H509 C501 0.960 . S
H510 C502 0.930 . S
H511 C503 0.929 . S
C89 C44 1.557 1_554 S
C108 C2 1.561 1_556 S
C125 C42 1.546 1_556 S
C144 C4 1.557 1_554 S
C161 C29 1.321 . S
C180 C72 1.336 . S
C197 C32 1.321 . S
C216 C69 1.316 . S
C233 C9 1.005 1_545 S
C252 C12 1.012 1_565 S
C269 C22 1.456 1_565 S
C288 C24 1.442 1_545 S
C305 C49 0.993 . S
C324 C52 1.012 . S
C341 C64 1.467 . S
C360 C62 1.444 . S
C377 C38 1.487 . S
C396 C19 1.490 1_645 S
C413 C18 1.483 1_465 S
C432 C39 1.501 . S
C449 C78 1.491 . S
C468 C59 1.469 . S
C485 C79 1.490 . S
C504 C58 1.495 . S
