# Generated by pormake.
# Topology pem, (4)-cn, num edge types: 1
# Building blocks:
#     Node 0, Type 0, BuildingBlock: NAHDIM_clean_sbu_0, # of connection points: 4
#     Node 1, Type 0, BuildingBlock: NAHDIM_clean_sbu_0, # of connection points: 4
#     Node 2, Type 0, BuildingBlock: NAHDIM_clean_sbu_0, # of connection points: 4
#     Node 3, Type 0, BuildingBlock: NAHDIM_clean_sbu_0, # of connection points: 4
#     Node 4, Type 0, BuildingBlock: NAHDIM_clean_sbu_0, # of connection points: 4
#     Node 5, Type 0, BuildingBlock: NAHDIM_clean_sbu_0, # of connection points: 4
#     Node 6, Type 0, BuildingBlock: NAHDIM_clean_sbu_0, # of connection points: 4
#     Node 7, Type 0, BuildingBlock: NAHDIM_clean_sbu_0, # of connection points: 4
#     Node 8, Type 0, BuildingBlock: NAHDIM_clean_sbu_0, # of connection points: 4
#     Node 9, Type 0, BuildingBlock: NAHDIM_clean_sbu_0, # of connection points: 4
#     Node 10, Type 0, BuildingBlock: NAHDIM_clean_sbu_0, # of connection points: 4
#     Node 11, Type 0, BuildingBlock: NAHDIM_clean_sbu_0, # of connection points: 4
#     Node 12, Type 0, BuildingBlock: NAHDIM_clean_sbu_0, # of connection points: 4
#     Node 13, Type 0, BuildingBlock: NAHDIM_clean_sbu_0, # of connection points: 4
#     Node 14, Type 0, BuildingBlock: NAHDIM_clean_sbu_0, # of connection points: 4
#     Node 15, Type 0, BuildingBlock: NAHDIM_clean_sbu_0, # of connection points: 4
#     Node 16, Type 0, BuildingBlock: NAHDIM_clean_sbu_0, # of connection points: 4
#     Node 17, Type 0, BuildingBlock: NAHDIM_clean_sbu_0, # of connection points: 4
#     Node 18, Type 0, BuildingBlock: NAHDIM_clean_sbu_0, # of connection points: 4
#     Node 19, Type 0, BuildingBlock: NAHDIM_clean_sbu_0, # of connection points: 4
#     Node 20, Type 0, BuildingBlock: NAHDIM_clean_sbu_0, # of connection points: 4
#     Node 21, Type 0, BuildingBlock: NAHDIM_clean_sbu_0, # of connection points: 4
#     Node 22, Type 0, BuildingBlock: NAHDIM_clean_sbu_0, # of connection points: 4
#     Node 23, Type 0, BuildingBlock: NAHDIM_clean_sbu_0, # of connection points: 4
#     Node 24, Type 0, BuildingBlock: NAHDIM_clean_sbu_0, # of connection points: 4
#     Node 25, Type 0, BuildingBlock: NAHDIM_clean_sbu_0, # of connection points: 4
#     Node 26, Type 0, BuildingBlock: NAHDIM_clean_sbu_0, # of connection points: 4
#     Node 27, Type 0, BuildingBlock: NAHDIM_clean_sbu_0, # of connection points: 4
#     Node 28, Type 0, BuildingBlock: NAHDIM_clean_sbu_0, # of connection points: 4
#     Node 29, Type 0, BuildingBlock: NAHDIM_clean_sbu_0, # of connection points: 4
#     Node 30, Type 0, BuildingBlock: NAHDIM_clean_sbu_0, # of connection points: 4
#     Node 31, Type 0, BuildingBlock: NAHDIM_clean_sbu_0, # of connection points: 4
#     Edge 32, Type (0, 0), None
#     Edge 33, Type (0, 0), None
#     Edge 34, Type (0, 0), None
#     Edge 35, Type (0, 0), None
#     Edge 36, Type (0, 0), None
#     Edge 37, Type (0, 0), None
#     Edge 38, Type (0, 0), None
#     Edge 39, Type (0, 0), None
#     Edge 40, Type (0, 0), None
#     Edge 41, Type (0, 0), None
#     Edge 42, Type (0, 0), None
#     Edge 43, Type (0, 0), None
#     Edge 44, Type (0, 0), None
#     Edge 45, Type (0, 0), None
#     Edge 46, Type (0, 0), None
#     Edge 47, Type (0, 0), None
#     Edge 48, Type (0, 0), None
#     Edge 49, Type (0, 0), None
#     Edge 50, Type (0, 0), None
#     Edge 51, Type (0, 0), None
#     Edge 52, Type (0, 0), None
#     Edge 53, Type (0, 0), None
#     Edge 54, Type (0, 0), None
#     Edge 55, Type (0, 0), None
#     Edge 56, Type (0, 0), None
#     Edge 57, Type (0, 0), None
#     Edge 58, Type (0, 0), None
#     Edge 59, Type (0, 0), None
#     Edge 60, Type (0, 0), None
#     Edge 61, Type (0, 0), None
#     Edge 62, Type (0, 0), None
#     Edge 63, Type (0, 0), None
#     Edge 64, Type (0, 0), None
#     Edge 65, Type (0, 0), None
#     Edge 66, Type (0, 0), None
#     Edge 67, Type (0, 0), None
#     Edge 68, Type (0, 0), None
#     Edge 69, Type (0, 0), None
#     Edge 70, Type (0, 0), None
#     Edge 71, Type (0, 0), None
#     Edge 72, Type (0, 0), None
#     Edge 73, Type (0, 0), None
#     Edge 74, Type (0, 0), None
#     Edge 75, Type (0, 0), None
#     Edge 76, Type (0, 0), None
#     Edge 77, Type (0, 0), None
#     Edge 78, Type (0, 0), None
#     Edge 79, Type (0, 0), None
#     Edge 80, Type (0, 0), None
#     Edge 81, Type (0, 0), None
#     Edge 82, Type (0, 0), None
#     Edge 83, Type (0, 0), None
#     Edge 84, Type (0, 0), None
#     Edge 85, Type (0, 0), None
#     Edge 86, Type (0, 0), None
#     Edge 87, Type (0, 0), None
#     Edge 88, Type (0, 0), None
#     Edge 89, Type (0, 0), None
#     Edge 90, Type (0, 0), None
#     Edge 91, Type (0, 0), None
#     Edge 92, Type (0, 0), None
#     Edge 93, Type (0, 0), None
#     Edge 94, Type (0, 0), None
#     Edge 95, Type (0, 0), None
# Relax obj value: 0.099
# Max RMSD: 0.082
# Mean RMSD: 0.076
data_MOF--net-pem--node1-NAHDIM_clean_sbu_0--edge1-none
_symmetry_space_group_name_H-M    P1
_symmetry_Int_Tables_number       1
_symmetry_cell_setting            triclinic
loop_
_symmetry_equiv_pos_as_xyz
'x, y, z'
_cell_length_a     19.713429
_cell_length_b     19.715264
_cell_length_c     19.483514
_cell_angle_alpha  89.871066
_cell_angle_beta   90.627977
_cell_angle_gamma 95.468686
loop_
_atom_site_label
_atom_site_type_symbol
_atom_site_fract_x
_atom_site_fract_y
_atom_site_fract_z
_atom_type_partial_charge
C0 C 0.94647 0.15167 0.06095 0.0
O1 O 0.92138 0.08848 0.05259 0.0
O2 O 0.15817 0.06022 0.10859 0.0
Zn3 Zn 0.0674 0.07694 0.05957 0.0
O4 O 0.0117 0.00699 0.11845 0.0
C5 C 0.13516 0.0398 0.92579 0.0
O6 O 0.17861 0.00942 0.96355 0.0
O7 O 0.01131 0.16364 0.06827 0.0
C8 C 0.99677 0.94953 0.09187 0.0
O9 O 0.96961 0.89818 0.12856 0.0
C10 C 0.17078 -0.00191 0.11472 0.0
O11 O 0.13599 0.95117 0.07795 0.0
O12 O 0.08576 0.06604 0.95442 0.0
C13 C 0.32963 0.9511 0.36805 0.0
O14 O 0.37185 0.92707 0.32469 0.0
O15 O 0.17993 0.92224 0.20623 0.0
Zn16 Zn 0.22046 0.87515 0.28588 0.0
O17 O 0.29486 0.83182 0.24901 0.0
C18 C 0.11569 0.74089 0.30374 0.0
O19 O 0.09788 0.73955 0.23864 0.0
O20 O 0.26543 0.94128 0.35706 0.0
C21 C 0.26538 0.78541 0.21231 0.0
O22 O 0.21586 0.79953 0.17063 0.0
C23 C 0.2067 0.97468 0.17487 0.0
O24 O 0.26431 0.00649 0.19679 0.0
O25 O 0.15791 0.78973 0.32682 0.0
C26 C 0.55533 0.84174 0.56104 0.0
O27 O 0.58118 0.9012 0.58366 0.0
O28 O 0.34261 0.93093 0.61258 0.0
Zn29 Zn 0.43137 0.91702 0.56164 0.0
O30 O 0.489 0.97809 0.6284 0.0
C31 C 0.35281 0.96674 0.43864 0.0
O32 O 0.3074 0.98417 0.48216 0.0
O33 O 0.49039 0.83169 0.55179 0.0
C34 C 0.51619 0.03115 0.60113 0.0
O35 O 0.54648 0.08082 0.63835 0.0
C36 C 0.33838 0.99436 0.62321 0.0
O37 O 0.37758 0.03974 0.58917 0.0
O38 O 0.40768 0.94399 0.46079 0.0
C39 C 0.15623 0.06199 0.85628 0.0
O40 O 0.11666 0.09772 0.81902 0.0
O41 O 0.32639 0.07149 0.71245 0.0
Zn42 Zn 0.27043 0.12511 0.77108 0.0
O43 O 0.20754 0.14051 0.69446 0.0
C44 C 0.37779 0.25772 0.79162 0.0
O45 O 0.40128 0.25021 0.72959 0.0
O46 O 0.21925 0.06308 0.84168 0.0
C47 C 0.21698 0.19917 0.66919 0.0
O48 O 0.20659 0.20784 0.60325 0.0
C49 C 0.30009 0.01925 0.67974 0.0
O50 O 0.23794 0.9928 0.69284 0.0
O51 O 0.32965 0.21462 0.81386 0.0
C52 C 0.25411 0.82577 0.45457 0.0
O53 O 0.28644 0.80161 0.40285 0.0
O54 O 0.0374 0.83629 0.35297 0.0
Zn55 Zn 0.11905 0.89966 0.39227 0.0
O56 O 0.07843 0.9372 0.47127 0.0
C57 C 0.10341 0.01618 0.28632 0.0
O58 O 0.05156 0.9783 0.25933 0.0
O59 O 0.2002 0.85648 0.44412 0.0
C60 C 0.02831 0.96737 0.45128 0.0
O61 O 0.00657 0.96218 0.38765 0.0
C62 C 0.99237 0.79967 0.38704 0.0
O63 O 0.99636 0.79848 0.4543 0.0
O64 O 0.13935 0.99132 0.33412 0.0
C65 C 0.46145 0.68492 0.60805 0.0
O66 O 0.41803 0.67799 0.55641 0.0
O67 O 0.34455 0.81324 0.53867 0.0
Zn68 Zn 0.38913 0.8027 0.63915 0.0
O69 O 0.32367 0.73871 0.67639 0.0
C70 C 0.38084 0.90474 0.76461 0.0
O71 O 0.33715 0.8619 0.79676 0.0
O72 O 0.46318 0.73743 0.64628 0.0
C73 C 0.26589 0.74925 0.69701 0.0
O74 O 0.24785 0.81121 0.70409 0.0
C75 C 0.28175 0.82198 0.52536 0.0
O76 O 0.24045 0.83201 0.57555 0.0
O77 O 0.40747 0.88715 0.70812 0.0
C78 C 0.23864 0.1732 0.94581 0.0
O79 O 0.20416 0.20811 0.9027 0.0
O80 O 0.45131 0.15847 0.84698 0.0
Zn81 Zn 0.3736 0.09503 0.88926 0.0
O82 O 0.41444 0.06429 0.97288 0.0
C83 C 0.39588 0.97525 0.79169 0.0
O84 O 0.44736 0.01413 0.76624 0.0
O85 O 0.28977 0.14352 0.92462 0.0
C86 C 0.46693 0.03706 0.95522 0.0
O87 O 0.48838 0.04125 0.89199 0.0
C88 C 0.49675 0.19516 0.88119 0.0
O89 O 0.49385 0.19677 0.94843 0.0
O90 O 0.3568 0.00035 0.83567 0.0
C91 C 0.04689 0.31383 0.10488 0.0
O92 O 0.07071 0.30908 0.04259 0.0
O93 O 0.15774 0.18227 0.03681 0.0
Zn94 Zn 0.12352 0.19322 0.13899 0.0
O95 O 0.206 0.23947 0.17275 0.0
C96 C 0.12067 0.08676 0.2598 0.0
O97 O 0.16505 0.12819 0.29363 0.0
O98 O 0.05953 0.26975 0.15023 0.0
C99 C 0.25991 0.21232 0.1857 0.0
O100 O 0.25913 0.14643 0.19493 0.0
C101 C 0.21671 0.16662 0.01756 0.0
O102 O 0.26003 0.14528 0.06198 0.0
O103 O 0.09536 0.10622 0.20269 0.0
C104 C 0.6368 0.35256 0.00705 0.0
O105 O 0.61577 0.28742 0.00555 0.0
O106 O 0.47278 0.33944 0.82518 0.0
Zn107 Zn 0.53754 0.41362 0.88104 0.0
O108 O 0.46793 0.47868 0.89796 0.0
C109 C 0.58877 0.50364 0.75811 0.0
O110 O 0.53317 0.48161 0.72435 0.0
O111 O 0.608 0.39502 0.96773 0.0
C112 C 0.49302 0.54 0.90171 0.0
O113 O 0.47249 0.58528 0.85868 0.0
C114 C 0.41229 0.31171 0.83792 0.0
O115 O 0.38285 0.32671 0.89534 0.0
O116 O 0.60083 0.47719 0.81648 0.0
C117 C 0.89609 0.20296 0.06941 0.0
O118 O 0.83157 0.18015 0.07495 0.0
O119 O 0.74796 0.33581 0.05743 0.0
Zn120 Zn 0.84069 0.32719 0.11838 0.0
O121 O 0.80862 0.26209 0.18381 0.0
C122 C 0.89035 0.41661 0.2538 0.0
O123 O 0.87054 0.36777 0.29704 0.0
O124 O 0.91231 0.2668 0.07626 0.0
C125 C 0.76479 0.284 0.22167 0.0
O126 O 0.7432 0.34412 0.21058 0.0
C127 C 0.69891 0.37461 0.05036 0.0
O128 O 0.70043 0.43126 0.08573 0.0
O129 O 0.88262 0.4065 0.18849 0.0
C130 C 0.86422 0.6448 0.51019 0.0
O131 O 0.89514 0.70614 0.51886 0.0
O132 O 0.02563 0.65384 0.33722 0.0
Zn133 Zn 0.97182 0.58223 0.40423 0.0
O134 O 0.05238 0.56878 0.46796 0.0
C135 C 0.92463 0.48248 0.2813 0.0
O136 O 0.95367 0.52756 0.23852 0.0
O137 O 0.89051 0.60182 0.47139 0.0
C138 C 0.09086 0.52485 0.44904 0.0
O139 O 0.1498 0.51982 0.4796 0.0
C140 C 0.08223 0.68942 0.35219 0.0
O141 O 0.10795 0.68581 0.41434 0.0
O142 O 0.92816 0.49487 0.34622 0.0
C143 C 0.71623 0.54084 0.39905 0.0
O144 O 0.68065 0.57193 0.35347 0.0
O145 O 0.83988 0.60402 0.25008 0.0
Zn146 Zn 0.82391 0.63573 0.34667 0.0
O147 O 0.75017 0.69434 0.34294 0.0
C148 C 0.94006 0.75407 0.35028 0.0
O149 O 0.93718 0.75767 0.28311 0.0
O150 O 0.78054 0.55635 0.40406 0.0
C151 C 0.76068 0.73163 0.29118 0.0
O152 O 0.81322 0.72518 0.25225 0.0
C153 C 0.80119 0.56498 0.21153 0.0
O154 O 0.7466 0.53039 0.23594 0.0
O155 O 0.90417 0.70626 0.38194 0.0
C156 C 0.77907 0.44664 0.8933 0.0
O157 O 0.81639 0.41485 0.85082 0.0
O158 O 0.65969 0.36463 0.7431 0.0
Zn159 Zn 0.67547 0.3449 0.84294 0.0
O160 O 0.75146 0.28812 0.84921 0.0
C161 C 0.55029 0.2381 0.84488 0.0
O162 O 0.54954 0.23803 0.77743 0.0
O163 O 0.71494 0.42985 0.89554 0.0
C164 C 0.73556 0.23951 0.809 0.0
O165 O 0.67657 0.23523 0.77761 0.0
C166 C 0.69556 0.40406 0.70332 0.0
O167 O 0.74847 0.44243 0.72737 0.0
O168 O 0.59165 0.28085 0.87776 0.0
C169 C 0.02355 0.77042 0.87045 0.0
O170 O 0.06098 0.78744 0.92491 0.0
O171 O 0.86438 0.87008 0.97675 0.0
Zn172 Zn 0.94987 0.88732 0.91209 0.0
O173 O 0.01381 0.89163 -0.01052 0.0
C174 C 0.91335 0.01752 0.84535 0.0
O175 O 0.85487 0.00405 0.87623 0.0
O176 O 0.97531 0.80607 0.85317 0.0
C177 C 0.001 0.94569 0.01854 0.0
O178 O 0.97419 0.99258 0.9828 0.0
C179 C 0.83482 0.90644 0.01977 0.0
O180 O 0.84599 0.97291 0.01871 0.0
O181 O 0.95962 0.97704 0.85304 0.0
C182 C 0.71922 0.10812 0.57523 0.0
O183 O 0.72463 0.17462 0.58256 0.0
O184 O 0.87984 0.20168 0.61226 0.0
Zn185 Zn 0.82855 0.12762 0.67152 0.0
O186 O 0.77096 0.17518 0.72336 0.0
C187 C 0.91912 0.07084 0.79228 0.0
O188 O 0.97226 0.11615 0.79074 0.0
O189 O 0.75742 0.0728 0.61133 0.0
C190 C 0.78612 0.20162 0.78078 0.0
O191 O 0.84794 0.20318 0.80678 0.0
C192 C 0.90776 0.26119 0.62537 0.0
O193 O 0.91395 0.2822 0.68919 0.0
O194 O 0.86939 0.07412 0.75033 0.0
C195 C 0.4755 0.2058 0.38581 0.0
O196 O 0.44571 0.18975 0.44424 0.0
O197 O 0.64226 0.11396 0.48024 0.0
Zn198 Zn 0.55566 0.09238 0.41905 0.0
O199 O 0.49632 0.0857 0.49743 0.0
C200 C 0.60091 0.97239 0.34442 0.0
O201 O 0.6611 0.99361 0.3695 0.0
O202 O 0.5223 0.17136 0.36398 0.0
C203 C 0.51376 0.03401 0.52771 0.0
O204 O 0.53642 0.98487 0.49213 0.0
C205 C 0.67344 0.07638 0.52159 0.0
O206 O 0.66523 0.00981 0.51665 0.0
O207 O 0.54971 0.00415 0.35948 0.0
C208 C 0.78611 0.87384 0.06996 0.0
O209 O 0.77881 0.80714 0.0753 0.0
O210 O 0.60273 0.7961 0.11359 0.0
Zn211 Zn 0.67176 0.86218 0.16604 0.0
O212 O 0.72398 0.80244 0.21081 0.0
C213 C 0.59597 0.92034 0.29017 0.0
O214 O 0.54324 0.87455 0.28664 0.0
O215 O 0.74719 0.90926 0.10428 0.0
C216 C 0.71309 0.77664 0.26898 0.0
O217 O 0.65959 0.78813 0.30506 0.0
C218 C 0.56756 0.74253 0.13467 0.0
O219 O 0.56856 0.72634 0.2 0.0
O220 O 0.64431 0.92033 0.24704 0.0
C221 C 0.91517 0.92736 0.70641 0.0
O222 O 0.97984 0.92637 0.69151 0.0
O223 O 0.98506 0.13038 0.65263 0.0
Zn224 Zn 0.92576 0.04791 0.60737 0.0
O225 O 0.98949 -0.00342 0.55823 0.0
C226 C 0.85541 0.12596 0.48671 0.0
O227 O 0.90608 0.17405 0.48415 0.0
O228 O 0.88111 0.97166 0.6766 0.0
C229 C 0.99845 0.01236 0.49605 0.0
O230 O 0.9746 0.06625 0.46993 0.0
C231 C 0.02861 0.17229 0.62224 0.0
O232 O 0.03886 0.16534 0.55634 0.0
O233 O 0.85686 0.0764 0.52962 0.0
C234 C 0.60025 0.31471 0.43808 0.0
O235 O 0.6432 0.35204 0.39941 0.0
O236 O 0.63642 0.11926 0.31723 0.0
Zn237 Zn 0.67441 0.19953 0.38556 0.0
O238 O 0.70396 0.26832 0.32164 0.0
C239 C 0.79722 0.12953 0.43913 0.0
O240 O 0.77626 0.0764 0.40157 0.0
O241 O 0.6057 0.25048 0.44377 0.0
C242 C 0.74437 0.24511 0.28058 0.0
O243 O 0.76492 0.18429 0.28994 0.0
C244 C 0.61205 0.12835 0.2567 0.0
O245 O 0.60381 0.19064 0.2366 0.0
O246 O 0.7634 0.18176 0.43928 0.0
C247 C 0.58003 0.0711 0.21381 0.0
O248 O 0.51517 0.07096 0.19785 0.0
O249 O 0.50645 0.87596 0.15196 0.0
Zn250 Zn 0.57107 0.9563 0.11085 0.0
O251 O 0.50976 0.01151 0.06242 0.0
C252 C 0.6433 0.88056 -0.01067 0.0
O253 O 0.5934 0.83174 0.9853 0.0
O254 O 0.61512 0.02855 0.18373 0.0
C255 C 0.49861 0.99388 0.00106 0.0
O256 O 0.52138 0.93896 0.97667 0.0
C257 C 0.45618 0.84063 0.12279 0.0
O258 O 0.44061 0.8529 0.05865 0.0
O259 O 0.64118 0.92896 0.03355 0.0
C260 C 0.88953 0.6832 0.93335 0.0
O261 O 0.84558 0.64568 0.89503 0.0
O262 O 0.85814 0.8805 0.80954 0.0
Zn263 Zn 0.81749 0.8023 0.87895 0.0
O264 O 0.78634 0.73464 0.81493 0.0
C265 C 0.70111 0.87922 0.94131 0.0
O266 O 0.72758 0.93612 0.91331 0.0
O267 O 0.88551 0.74772 0.9371 0.0
C268 C 0.74747 0.75861 0.7718 0.0
O269 O 0.72528 0.81861 0.78125 0.0
C270 C 0.88244 0.87068 0.74959 0.0
O271 O 0.8894 0.80805 0.73015 0.0
O272 O 0.72947 0.82401 0.93258 0.0
C273 C 0.46557 0.47606 0.16614 0.0
O274 O 0.52943 0.50146 0.16174 0.0
O275 O 0.4812 0.65277 0.10571 0.0
Zn276 Zn 0.45087 0.5681 0.04876 0.0
O277 O 0.54443 0.55658 0.00927 0.0
C278 C 0.34384 0.61123 0.93156 0.0
O279 O 0.3574 0.67693 0.94199 0.0
O280 O 0.42251 0.49388 0.12175 0.0
C281 C 0.55238 0.5558 0.94496 0.0
O282 O 0.61313 0.56981 0.91879 0.0
C283 C 0.52805 0.69717 0.08519 0.0
O284 O 0.54635 0.69747 0.02066 0.0
O285 O 0.37396 0.56873 0.96865 0.0
C286 C 0.04072 0.71247 0.82855 0.0
O287 O 0.03604 0.71698 0.76148 0.0
O288 O 0.12063 0.55096 0.72315 0.0
Zn289 Zn 0.14721 0.62149 0.80384 0.0
O290 O 0.1713 0.701 0.75212 0.0
C291 C 0.29169 0.58646 0.87816 0.0
O292 O 0.29731 0.52822 0.84723 0.0
O293 O 0.07437 0.66678 0.85599 0.0
C294 C 0.2236 0.69146 0.71951 0.0
O295 O 0.24595 0.63075 0.7182 0.0
C296 C 0.06283 0.54542 0.69196 0.0
O297 O 0.01445 0.58045 0.71481 0.0
O298 O 0.2401 0.62005 0.86468 0.0
C299 C 0.04605 0.49636 0.63442 0.0
O300 O 0.98165 0.47702 0.6212 0.0
O301 O 0.99993 0.33001 0.57564 0.0
Zn302 Zn 0.063 0.39813 0.52102 0.0
O303 O 0.02032 0.42633 0.43218 0.0
C304 C 0.14199 0.33654 0.41128 0.0
O305 O 0.08121 0.31671 0.38628 0.0
O306 O 0.09132 0.47343 0.59653 0.0
C307 C 0.06099 0.47199 0.40458 0.0
O308 O 0.0602 0.48211 0.33807 0.0
C309 C 0.93865 0.30406 0.56943 0.0
O310 O 0.90283 0.31667 0.51447 0.0
O311 O 0.14682 0.36333 0.47117 0.0
C312 C 0.26365 0.38743 0.54296 0.0
O313 O 0.27371 0.32308 0.55064 0.0
O314 O 0.10255 0.27627 0.62604 0.0
Zn315 Zn 0.17452 0.35543 0.65726 0.0
O316 O 0.25498 0.3128 0.68796 0.0
C317 C 0.09895 0.41129 0.77964 0.0
O318 O 0.04289 0.37222 0.76551 0.0
O319 O 0.21947 0.41343 0.57985 0.0
C320 C 0.23762 0.25598 0.71465 0.0
O321 O 0.20773 0.25577 0.7744 0.0
C322 C 0.06627 0.23016 0.65953 0.0
O323 O 0.06627 0.23161 0.72685 0.0
O324 O 0.15076 0.41082 0.74105 0.0
C325 C 0.23388 0.6228 0.0378 0.0
O326 O 0.22307 0.68621 0.05059 0.0
O327 O 0.38367 0.73546 0.12368 0.0
Zn328 Zn 0.32558 0.6443 0.1515 0.0
O329 O 0.24473 0.67101 0.19481 0.0
C330 C 0.40152 0.5849 0.27248 0.0
O331 O 0.44764 0.63747 0.27397 0.0
O332 O 0.28009 0.59508 0.07104 0.0
C333 C 0.26611 0.71642 0.23666 0.0
O334 O 0.3121 0.70306 0.2827 0.0
C335 C 0.41979 0.78128 0.15823 0.0
O336 O 0.42864 0.77332 0.22448 0.0
O337 O 0.35638 0.57951 0.22511 0.0
C338 C 0.502 0.62859 0.62644 0.0
O339 O 0.49892 0.60616 0.68979 0.0
O340 O 0.65827 0.48031 0.62255 0.0
Zn341 Zn 0.5785 0.50383 0.56343 0.0
O342 O 0.51077 0.42077 0.5837 0.0
C343 C 0.68004 0.5022 0.45401 0.0
O344 O 0.71452 0.4674 0.4973 0.0
O345 O 0.53112 0.59615 0.57956 0.0
C346 C 0.44936 0.42491 0.60004 0.0
O347 O 0.41219 0.37164 0.62429 0.0
C348 C 0.66614 0.41869 0.63677 0.0
O349 O 0.6294 0.3696 0.60429 0.0
O350 O 0.6195 0.51503 0.46809 0.0
C351 C 0.00677 0.37089 0.12261 0.0
O352 O 0.01425 0.39744 0.18414 0.0
O353 O 0.83538 0.49497 0.12419 0.0
Zn354 Zn 0.91524 0.48527 0.06203 0.0
O355 O 0.97392 0.57483 0.08281 0.0
C356 C 0.81324 0.48581 0.94989 0.0
O357 O 0.77691 0.51788 -0.00703 0.0
O358 O 0.97056 0.39807 0.07662 0.0
C359 C 0.03622 0.57825 0.1 0.0
O360 O 0.06751 0.63524 0.12381 0.0
C361 C 0.82308 0.55444 0.14163 0.0
O362 O 0.85087 0.60718 0.10746 0.0
O363 O 0.87405 0.47453 0.96593 0.0
C364 C 0.60469 0.78963 0.55192 0.0
O365 O 0.66981 0.81103 0.55565 0.0
O366 O 0.75351 0.66914 0.54956 0.0
Zn367 Zn 0.66144 0.67049 0.60469 0.0
O368 O 0.68368 0.73673 0.67369 0.0
C369 C 0.63384 0.56349 0.73195 0.0
O370 O 0.6789 0.59456 0.774 0.0
O371 O 0.58802 0.72583 0.55762 0.0
C372 C 0.73316 0.72227 0.70964 0.0
O373 O 0.76713 0.67051 0.69353 0.0
C374 C 0.79815 0.62614 0.54527 0.0
O375 O 0.78799 0.56725 0.57677 0.0
O376 O 0.62615 0.58682 0.6706 0.0
C377 C 0.54027 0.34589 0.46509 0.0
O378 O 0.49629 0.30975 0.50378 0.0
O379 O 0.35693 0.40338 0.46731 0.0
Zn380 Zn 0.44352 0.46397 0.45239 0.0
O381 O 0.43045 0.52133 0.53626 0.0
C382 C 0.3953 0.53647 0.33042 0.0
O383 O 0.33685 0.50062 0.34144 0.0
O384 O 0.52737 0.40519 0.44427 0.0
C385 C 0.42227 0.48984 0.59293 0.0
O386 O 0.38992 0.51586 0.64362 0.0
C387 C 0.3067 0.42909 0.49502 0.0
O388 O 0.30253 0.49513 0.49239 0.0
O389 O 0.44566 0.52905 0.37003 0.0
C390 C 0.94946 0.65213 0.962 0.0
O391 O 0.99349 0.68865 0.00109 0.0
O392 O 0.13445 0.6051 0.9668 0.0
Zn393 Zn 0.04982 0.53926 0.95205 0.0
O394 O 0.06585 0.48492 0.03817 0.0
C395 C 0.10279 0.45773 0.83925 0.0
O396 O 0.16212 0.48714 0.85851 0.0
O397 O 0.96278 0.593 0.9418 0.0
C398 C 0.07099 0.51772 0.09429 0.0
O399 O 0.10821 0.49757 0.14534 0.0
C400 C 0.18589 0.58044 -0.00568 0.0
O401 O 0.18989 0.51434 -0.00625 0.0
O402 O 0.0496 0.47273 0.86993 0.0
C403 C 0.45298 0.26232 0.34567 0.0
O404 O 0.45713 0.2607 0.27853 0.0
O405 O 0.3833 0.41619 0.2414 0.0
Zn406 Zn 0.34766 0.34678 0.31824 0.0
O407 O 0.31738 0.26331 0.27303 0.0
C408 C 0.20221 0.32789 0.36761 0.0
O409 O 0.19375 0.28538 0.31594 0.0
O410 O 0.41787 0.30509 0.3746 0.0
C411 C 0.31562 0.257 0.20914 0.0
O412 O 0.33731 0.30854 0.16997 0.0
C413 C 0.44544 0.42852 0.22332 0.0
O414 O 0.49325 0.40167 0.2587 0.0
O415 O 0.25973 0.36352 0.37509 0.0
loop_
_geom_bond_atom_site_label_1
_geom_bond_atom_site_label_2
_geom_bond_distance
_geom_bond_site_symmetry_2
_ccdc_geom_bond_type
C0 O1 1.160 1_455 S
C0 O7 1.185 . S
O1 C0 1.160 1_655 S
O2 Zn3 1.899 . S
O2 C10 1.284 . S
Zn3 O2 1.899 . S
Zn3 O4 2.032 . S
Zn3 O7 2.086 . S
Zn3 O12 1.977 . S
O4 Zn3 2.032 . S
O4 C8 1.278 . S
C5 O6 1.203 . S
C5 O12 1.267 . S
O6 C5 1.203 . S
O7 C0 1.185 . S
O7 Zn3 2.086 . S
C8 O4 1.278 . S
C8 O9 1.211 1_544 S
O9 C8 1.211 1_566 S
C10 O2 1.284 . S
C10 O11 1.273 1_545 S
O11 C10 1.273 1_565 S
O12 Zn3 1.977 . S
O12 C5 1.267 . S
C13 O14 1.160 . S
C13 O20 1.185 . S
O14 C13 1.160 . S
O15 Zn16 1.899 . S
O15 C23 1.284 . S
Zn16 O15 1.899 . S
Zn16 O17 2.032 . S
Zn16 O20 2.086 . S
Zn16 O25 1.977 . S
O17 Zn16 2.032 . S
O17 C21 1.278 . S
C18 O19 1.203 . S
C18 O25 1.267 . S
O19 C18 1.203 . S
O20 C13 1.185 . S
O20 Zn16 2.086 . S
C21 O17 1.278 . S
C21 O22 1.211 . S
O22 C21 1.211 . S
C23 O15 1.284 . S
C23 O24 1.273 . S
O24 C23 1.273 . S
O25 Zn16 1.977 . S
O25 C18 1.267 . S
C26 O27 1.160 . S
C26 O33 1.185 . S
O27 C26 1.160 . S
O28 Zn29 1.899 . S
O28 C36 1.284 . S
Zn29 O28 1.899 . S
Zn29 O30 2.032 . S
Zn29 O33 2.086 . S
Zn29 O38 1.977 . S
O30 Zn29 2.032 . S
O30 C34 1.278 . S
C31 O32 1.203 . S
C31 O38 1.267 . S
O32 C31 1.203 . S
O33 C26 1.185 . S
O33 Zn29 2.086 . S
C34 O30 1.278 . S
C34 O35 1.211 1_565 S
O35 C34 1.211 1_545 S
C36 O28 1.284 . S
C36 O37 1.273 1_565 S
O37 C36 1.273 1_545 S
O38 Zn29 1.977 . S
O38 C31 1.267 . S
C39 O40 1.160 . S
C39 O46 1.185 . S
O40 C39 1.160 . S
O41 Zn42 1.899 . S
O41 C49 1.284 . S
Zn42 O41 1.899 . S
Zn42 O43 2.032 . S
Zn42 O46 2.086 . S
Zn42 O51 1.977 . S
O43 Zn42 2.032 . S
O43 C47 1.278 . S
C44 O45 1.203 . S
C44 O51 1.267 . S
O45 C44 1.203 . S
O46 C39 1.185 . S
O46 Zn42 2.086 . S
C47 O43 1.278 . S
C47 O48 1.211 . S
O48 C47 1.211 . S
C49 O41 1.284 . S
C49 O50 1.273 . S
O50 C49 1.273 . S
O51 Zn42 1.977 . S
O51 C44 1.267 . S
C52 O53 1.160 . S
C52 O59 1.185 . S
O53 C52 1.160 . S
O54 Zn55 1.899 . S
O54 C62 1.284 . S
Zn55 O54 1.899 . S
Zn55 O56 2.032 . S
Zn55 O59 2.086 . S
Zn55 O64 1.977 . S
O56 Zn55 2.032 . S
O56 C60 1.278 . S
C57 O58 1.203 . S
C57 O64 1.267 . S
O58 C57 1.203 . S
O59 C52 1.185 . S
O59 Zn55 2.086 . S
C60 O56 1.278 . S
C60 O61 1.211 1_565 S
O61 C60 1.211 1_545 S
C62 O54 1.284 . S
C62 O63 1.273 1_455 S
O63 C62 1.273 1_655 S
O64 Zn55 1.977 . S
O64 C57 1.267 . S
C65 O66 1.160 . S
C65 O72 1.185 . S
O66 C65 1.160 . S
O67 Zn68 1.899 . S
O67 C75 1.284 . S
Zn68 O67 1.899 . S
Zn68 O69 2.032 . S
Zn68 O72 2.086 . S
Zn68 O77 1.977 . S
O69 Zn68 2.032 . S
O69 C73 1.278 . S
C70 O71 1.203 . S
C70 O77 1.267 . S
O71 C70 1.203 . S
O72 C65 1.185 . S
O72 Zn68 2.086 . S
C73 O69 1.278 . S
C73 O74 1.211 . S
O74 C73 1.211 . S
C75 O67 1.284 . S
C75 O76 1.273 . S
O76 C75 1.273 . S
O77 Zn68 1.977 . S
O77 C70 1.267 . S
C78 O79 1.160 1_556 S
C78 O85 1.185 . S
O79 C78 1.160 1_554 S
O80 Zn81 1.899 . S
O80 C88 1.284 . S
Zn81 O80 1.899 . S
Zn81 O82 2.032 . S
Zn81 O85 2.086 . S
Zn81 O90 1.977 . S
O82 Zn81 2.032 . S
O82 C86 1.278 . S
C83 O84 1.203 . S
C83 O90 1.267 . S
O84 C83 1.203 . S
O85 C78 1.185 . S
O85 Zn81 2.086 . S
C86 O82 1.278 . S
C86 O87 1.211 1_545 S
O87 C86 1.211 1_565 S
C88 O80 1.284 . S
C88 O89 1.273 . S
O89 C88 1.273 . S
O90 Zn81 1.977 . S
O90 C83 1.267 . S
C91 O92 1.160 . S
C91 O98 1.185 . S
O92 C91 1.160 . S
O93 Zn94 1.899 . S
O93 C101 1.284 . S
Zn94 O93 1.899 . S
Zn94 O95 2.032 . S
Zn94 O98 2.086 . S
Zn94 O103 1.977 . S
O95 Zn94 2.032 . S
O95 C99 1.278 . S
C96 O97 1.203 . S
C96 O103 1.267 . S
O97 C96 1.203 . S
O98 C91 1.185 . S
O98 Zn94 2.086 . S
C99 O95 1.278 . S
C99 O100 1.211 . S
O100 C99 1.211 . S
C101 O93 1.284 . S
C101 O102 1.273 . S
O102 C101 1.273 . S
O103 Zn94 1.977 . S
O103 C96 1.267 . S
C104 O105 1.160 1_556 S
C104 O111 1.185 . S
O105 C104 1.160 1_554 S
O106 Zn107 1.899 . S
O106 C114 1.284 . S
Zn107 O106 1.899 . S
Zn107 O108 2.032 . S
Zn107 O111 2.086 . S
Zn107 O116 1.977 . S
O108 Zn107 2.032 . S
O108 C112 1.278 . S
C109 O110 1.203 . S
C109 O116 1.267 . S
O110 C109 1.203 . S
O111 C104 1.185 . S
O111 Zn107 2.086 . S
C112 O108 1.278 . S
C112 O113 1.211 . S
O113 C112 1.211 . S
C114 O106 1.284 . S
C114 O115 1.273 . S
O115 C114 1.273 . S
O116 Zn107 1.977 . S
O116 C109 1.267 . S
C117 O118 1.160 . S
C117 O124 1.185 . S
O118 C117 1.160 . S
O119 Zn120 1.899 . S
O119 C127 1.284 . S
Zn120 O119 1.899 . S
Zn120 O121 2.032 . S
Zn120 O124 2.086 . S
Zn120 O129 1.977 . S
O121 Zn120 2.032 . S
O121 C125 1.278 . S
C122 O123 1.203 . S
C122 O129 1.267 . S
O123 C122 1.203 . S
O124 C117 1.185 . S
O124 Zn120 2.086 . S
C125 O121 1.278 . S
C125 O126 1.211 . S
O126 C125 1.211 . S
C127 O119 1.284 . S
C127 O128 1.273 . S
O128 C127 1.273 . S
O129 Zn120 1.977 . S
O129 C122 1.267 . S
C130 O131 1.160 . S
C130 O137 1.185 . S
O131 C130 1.160 . S
O132 Zn133 1.899 . S
O132 C140 1.284 . S
Zn133 O132 1.899 . S
Zn133 O134 2.032 . S
Zn133 O137 2.086 . S
Zn133 O142 1.977 . S
O134 Zn133 2.032 . S
O134 C138 1.278 . S
C135 O136 1.203 . S
C135 O142 1.267 . S
O136 C135 1.203 . S
O137 C130 1.185 . S
O137 Zn133 2.086 . S
C138 O134 1.278 . S
C138 O139 1.211 . S
O139 C138 1.211 . S
C140 O132 1.284 . S
C140 O141 1.273 1_655 S
O141 C140 1.273 1_455 S
O142 Zn133 1.977 . S
O142 C135 1.267 . S
C143 O144 1.160 . S
C143 O150 1.185 . S
O144 C143 1.160 . S
O145 Zn146 1.899 . S
O145 C153 1.284 . S
Zn146 O145 1.899 . S
Zn146 O147 2.032 . S
Zn146 O150 2.086 . S
Zn146 O155 1.977 . S
O147 Zn146 2.032 . S
O147 C151 1.278 . S
C148 O149 1.203 . S
C148 O155 1.267 . S
O149 C148 1.203 . S
O150 C143 1.185 . S
O150 Zn146 2.086 . S
C151 O147 1.278 . S
C151 O152 1.211 . S
O152 C151 1.211 . S
C153 O145 1.284 . S
C153 O154 1.273 . S
O154 C153 1.273 . S
O155 Zn146 1.977 . S
O155 C148 1.267 . S
C156 O157 1.160 . S
C156 O163 1.185 . S
O157 C156 1.160 . S
O158 Zn159 1.899 . S
O158 C166 1.284 . S
Zn159 O158 1.899 . S
Zn159 O160 2.032 . S
Zn159 O163 2.086 . S
Zn159 O168 1.977 . S
O160 Zn159 2.032 . S
O160 C164 1.278 . S
C161 O162 1.203 . S
C161 O168 1.267 . S
O162 C161 1.203 . S
O163 C156 1.185 . S
O163 Zn159 2.086 . S
C164 O160 1.278 . S
C164 O165 1.211 . S
O165 C164 1.211 . S
C166 O158 1.284 . S
C166 O167 1.273 . S
O167 C166 1.273 . S
O168 Zn159 1.977 . S
O168 C161 1.267 . S
C169 O170 1.160 . S
C169 O176 1.185 . S
O170 C169 1.160 . S
O171 Zn172 1.899 . S
O171 C179 1.284 . S
Zn172 O171 1.899 . S
Zn172 O173 2.032 . S
Zn172 O176 2.086 . S
Zn172 O181 1.977 . S
O173 Zn172 2.032 . S
O173 C177 1.278 . S
C174 O175 1.205 . S
C174 O181 1.267 . S
O175 C174 1.205 . S
O176 C169 1.185 . S
O176 Zn172 2.086 . S
C177 O173 1.278 . S
C177 O178 1.211 1_565 S
O178 C177 1.211 1_545 S
C179 O171 1.284 . S
C179 O180 1.273 1_556 S
O180 C179 1.273 1_554 S
O181 Zn172 1.977 . S
O181 C174 1.267 . S
C182 O183 1.160 . S
C182 O189 1.185 . S
O183 C182 1.160 . S
O184 Zn185 1.899 . S
O184 C192 1.284 . S
Zn185 O184 1.899 . S
Zn185 O186 2.032 . S
Zn185 O189 2.086 . S
Zn185 O194 1.977 . S
O186 Zn185 2.032 . S
O186 C190 1.278 . S
C187 O188 1.203 . S
C187 O194 1.267 . S
O188 C187 1.203 . S
O189 C182 1.185 . S
O189 Zn185 2.086 . S
C190 O186 1.278 . S
C190 O191 1.211 . S
O191 C190 1.211 . S
C192 O184 1.284 . S
C192 O193 1.273 . S
O193 C192 1.273 . S
O194 Zn185 1.977 . S
O194 C187 1.267 . S
C195 O196 1.160 . S
C195 O202 1.185 . S
O196 C195 1.160 . S
O197 Zn198 1.899 . S
O197 C205 1.284 . S
Zn198 O197 1.899 . S
Zn198 O199 2.032 . S
Zn198 O202 2.086 . S
Zn198 O207 1.977 . S
O199 Zn198 2.032 . S
O199 C203 1.278 . S
C200 O201 1.205 . S
C200 O207 1.267 . S
O201 C200 1.205 . S
O202 C195 1.185 . S
O202 Zn198 2.086 . S
C203 O199 1.278 . S
C203 O204 1.211 1_545 S
O204 C203 1.211 1_565 S
C205 O197 1.284 . S
C205 O206 1.273 . S
O206 C205 1.273 . S
O207 Zn198 1.977 . S
O207 C200 1.267 . S
C208 O209 1.160 1_554 S
C208 O215 1.185 . S
O209 C208 1.160 1_556 S
O210 Zn211 1.899 . S
O210 C218 1.284 . S
Zn211 O210 1.899 . S
Zn211 O212 2.032 . S
Zn211 O215 2.086 . S
Zn211 O220 1.977 . S
O212 Zn211 2.032 . S
O212 C216 1.278 . S
C213 O214 1.203 . S
C213 O220 1.267 . S
O214 C213 1.203 . S
O215 C208 1.185 . S
O215 Zn211 2.086 . S
C216 O212 1.278 . S
C216 O217 1.211 . S
O217 C216 1.211 . S
C218 O210 1.284 . S
C218 O219 1.273 . S
O219 C218 1.273 . S
O220 Zn211 1.977 . S
O220 C213 1.267 . S
C221 O222 1.160 . S
C221 O228 1.185 . S
O222 C221 1.160 . S
O223 Zn224 1.899 . S
O223 C231 1.284 . S
Zn224 O223 1.899 . S
Zn224 O225 2.032 . S
Zn224 O228 2.086 . S
Zn224 O233 1.977 . S
O225 Zn224 2.032 . S
O225 C229 1.278 . S
C226 O227 1.203 . S
C226 O233 1.267 . S
O227 C226 1.203 . S
O228 C221 1.185 . S
O228 Zn224 2.086 . S
C229 O225 1.278 . S
C229 O230 1.211 . S
O230 C229 1.211 . S
C231 O223 1.284 . S
C231 O232 1.273 1_655 S
O232 C231 1.273 1_455 S
O233 Zn224 1.977 . S
O233 C226 1.267 . S
C234 O235 1.160 . S
C234 O241 1.185 . S
O235 C234 1.160 . S
O236 Zn237 1.899 . S
O236 C244 1.284 . S
Zn237 O236 1.899 . S
Zn237 O238 2.032 . S
Zn237 O241 2.086 . S
Zn237 O246 1.977 . S
O238 Zn237 2.032 . S
O238 C242 1.278 . S
C239 O240 1.203 . S
C239 O246 1.267 . S
O240 C239 1.203 . S
O241 C234 1.185 . S
O241 Zn237 2.086 . S
C242 O238 1.278 . S
C242 O243 1.211 . S
O243 C242 1.211 . S
C244 O236 1.284 . S
C244 O245 1.273 . S
O245 C244 1.273 . S
O246 Zn237 1.977 . S
O246 C239 1.267 . S
C247 O248 1.160 . S
C247 O254 1.185 . S
O248 C247 1.160 . S
O249 Zn250 1.899 . S
O249 C257 1.284 . S
Zn250 O249 1.899 . S
Zn250 O251 2.032 . S
Zn250 O254 2.086 . S
Zn250 O259 1.977 . S
O251 Zn250 2.032 . S
O251 C255 1.278 . S
C252 O253 1.203 . S
C252 O259 1.267 . S
O253 C252 1.203 . S
O254 C247 1.185 . S
O254 Zn250 2.086 . S
C255 O251 1.278 . S
C255 O256 1.211 1_554 S
O256 C255 1.211 1_556 S
C257 O249 1.284 . S
C257 O258 1.273 . S
O258 C257 1.273 . S
O259 Zn250 1.977 . S
O259 C252 1.267 . S
C260 O261 1.160 . S
C260 O267 1.185 . S
O261 C260 1.160 . S
O262 Zn263 1.899 . S
O262 C270 1.284 . S
Zn263 O262 1.899 . S
Zn263 O264 2.032 . S
Zn263 O267 2.086 . S
Zn263 O272 1.977 . S
O264 Zn263 2.032 . S
O264 C268 1.278 . S
C265 O266 1.203 . S
C265 O272 1.267 . S
O266 C265 1.203 . S
O267 C260 1.185 . S
O267 Zn263 2.086 . S
C268 O264 1.278 . S
C268 O269 1.211 . S
O269 C268 1.211 . S
C270 O262 1.284 . S
C270 O271 1.273 . S
O271 C270 1.273 . S
O272 Zn263 1.977 . S
O272 C265 1.267 . S
C273 O274 1.160 . S
C273 O280 1.185 . S
O274 C273 1.160 . S
O275 Zn276 1.899 . S
O275 C283 1.284 . S
Zn276 O275 1.899 . S
Zn276 O277 2.032 . S
Zn276 O280 2.086 . S
Zn276 O285 1.977 . S
O277 Zn276 2.032 . S
O277 C281 1.278 . S
C278 O279 1.203 . S
C278 O285 1.267 . S
O279 C278 1.203 . S
O280 C273 1.185 . S
O280 Zn276 2.086 . S
C281 O277 1.278 . S
C281 O282 1.211 1_554 S
O282 C281 1.211 1_556 S
C283 O275 1.284 . S
C283 O284 1.273 . S
O284 C283 1.273 . S
O285 Zn276 1.977 . S
O285 C278 1.267 . S
C286 O287 1.160 . S
C286 O293 1.185 . S
O287 C286 1.160 . S
O288 Zn289 1.899 . S
O288 C296 1.284 . S
Zn289 O288 1.899 . S
Zn289 O290 2.032 . S
Zn289 O293 2.086 . S
Zn289 O298 1.977 . S
O290 Zn289 2.032 . S
O290 C294 1.278 . S
C291 O292 1.203 . S
C291 O298 1.267 . S
O292 C291 1.203 . S
O293 C286 1.185 . S
O293 Zn289 2.086 . S
C294 O290 1.278 . S
C294 O295 1.211 . S
O295 C294 1.211 . S
C296 O288 1.284 . S
C296 O297 1.273 . S
O297 C296 1.273 . S
O298 Zn289 1.977 . S
O298 C291 1.267 . S
C299 O300 1.160 . S
C299 O306 1.185 . S
O300 C299 1.160 . S
O301 Zn302 1.899 . S
O301 C309 1.284 . S
Zn302 O301 1.899 . S
Zn302 O303 2.032 . S
Zn302 O306 2.086 . S
Zn302 O311 1.977 . S
O303 Zn302 2.032 . S
O303 C307 1.278 . S
C304 O305 1.203 . S
C304 O311 1.267 . S
O305 C304 1.203 . S
O306 C299 1.185 . S
O306 Zn302 2.086 . S
C307 O303 1.278 . S
C307 O308 1.211 . S
O308 C307 1.211 . S
C309 O301 1.284 . S
C309 O310 1.273 1_455 S
O310 C309 1.273 1_655 S
O311 Zn302 1.977 . S
O311 C304 1.267 . S
C312 O313 1.160 . S
C312 O319 1.185 . S
O313 C312 1.160 . S
O314 Zn315 1.899 . S
O314 C322 1.284 . S
Zn315 O314 1.899 . S
Zn315 O316 2.032 . S
Zn315 O319 2.086 . S
Zn315 O324 1.977 . S
O316 Zn315 2.032 . S
O316 C320 1.278 . S
C317 O318 1.203 . S
C317 O324 1.267 . S
O318 C317 1.203 . S
O319 C312 1.185 . S
O319 Zn315 2.086 . S
C320 O316 1.278 . S
C320 O321 1.211 . S
O321 C320 1.211 . S
C322 O314 1.284 . S
C322 O323 1.273 . S
O323 C322 1.273 . S
O324 Zn315 1.977 . S
O324 C317 1.267 . S
C325 O326 1.160 1_554 S
C325 O332 1.185 . S
O326 C325 1.160 1_556 S
O327 Zn328 1.899 . S
O327 C335 1.284 . S
Zn328 O327 1.899 . S
Zn328 O329 2.032 . S
Zn328 O332 2.086 . S
Zn328 O337 1.977 . S
O329 Zn328 2.032 . S
O329 C333 1.278 . S
C330 O331 1.203 . S
C330 O337 1.267 . S
O331 C330 1.203 . S
O332 C325 1.185 . S
O332 Zn328 2.086 . S
C333 O329 1.278 . S
C333 O334 1.211 . S
O334 C333 1.211 . S
C335 O327 1.284 . S
C335 O336 1.273 . S
O336 C335 1.273 . S
O337 Zn328 1.977 . S
O337 C330 1.267 . S
C338 O339 1.160 . S
C338 O345 1.185 . S
O339 C338 1.160 . S
O340 Zn341 1.899 . S
O340 C348 1.284 . S
Zn341 O340 1.899 . S
Zn341 O342 2.032 . S
Zn341 O345 2.086 . S
Zn341 O350 1.977 . S
O342 Zn341 2.032 . S
O342 C346 1.278 . S
C343 O344 1.203 . S
C343 O350 1.267 . S
O344 C343 1.203 . S
O345 C338 1.185 . S
O345 Zn341 2.086 . S
C346 O342 1.278 . S
C346 O347 1.211 . S
O347 C346 1.211 . S
C348 O340 1.284 . S
C348 O349 1.273 . S
O349 C348 1.273 . S
O350 Zn341 1.977 . S
O350 C343 1.267 . S
C351 O352 1.160 1_655 S
C351 O358 1.185 . S
O352 C351 1.160 1_455 S
O353 Zn354 1.899 . S
O353 C361 1.284 . S
Zn354 O353 1.899 . S
Zn354 O355 2.032 . S
Zn354 O358 2.086 . S
Zn354 O363 1.977 . S
O355 Zn354 2.032 . S
O355 C359 1.278 . S
C356 O357 1.203 . S
C356 O363 1.267 . S
O357 C356 1.203 . S
O358 C351 1.185 . S
O358 Zn354 2.086 . S
C359 O355 1.278 . S
C359 O360 1.211 1_554 S
O360 C359 1.211 1_556 S
C361 O353 1.284 . S
C361 O362 1.273 . S
O362 C361 1.273 . S
O363 Zn354 1.977 . S
O363 C356 1.267 . S
C364 O365 1.160 . S
C364 O371 1.185 . S
O365 C364 1.160 . S
O366 Zn367 1.899 . S
O366 C374 1.284 . S
Zn367 O366 1.899 . S
Zn367 O368 2.032 . S
Zn367 O371 2.086 . S
Zn367 O376 1.977 . S
O368 Zn367 2.032 . S
O368 C372 1.278 . S
C369 O370 1.203 . S
C369 O376 1.267 . S
O370 C369 1.203 . S
O371 C364 1.185 . S
O371 Zn367 2.086 . S
C372 O368 1.278 . S
C372 O373 1.211 . S
O373 C372 1.211 . S
C374 O366 1.284 . S
C374 O375 1.273 . S
O375 C374 1.273 . S
O376 Zn367 1.977 . S
O376 C369 1.267 . S
C377 O378 1.160 . S
C377 O384 1.185 . S
O378 C377 1.160 . S
O379 Zn380 1.899 . S
O379 C387 1.284 . S
Zn380 O379 1.899 . S
Zn380 O381 2.032 . S
Zn380 O384 2.086 . S
Zn380 O389 1.977 . S
O381 Zn380 2.032 . S
O381 C385 1.278 . S
C382 O383 1.203 . S
C382 O389 1.267 . S
O383 C382 1.203 . S
O384 C377 1.185 . S
O384 Zn380 2.086 . S
C385 O381 1.278 . S
C385 O386 1.211 . S
O386 C385 1.211 . S
C387 O379 1.284 . S
C387 O388 1.273 . S
O388 C387 1.273 . S
O389 Zn380 1.977 . S
O389 C382 1.267 . S
C390 O391 1.160 . S
C390 O397 1.185 . S
O391 C390 1.160 . S
O392 Zn393 1.899 . S
O392 C400 1.284 . S
Zn393 O392 1.899 . S
Zn393 O394 2.032 . S
Zn393 O397 2.086 . S
Zn393 O402 1.977 . S
O394 Zn393 2.032 . S
O394 C398 1.278 . S
C395 O396 1.203 . S
C395 O402 1.267 . S
O396 C395 1.203 . S
O397 C390 1.185 . S
O397 Zn393 2.086 . S
C398 O394 1.278 . S
C398 O399 1.211 . S
O399 C398 1.211 . S
C400 O392 1.284 . S
C400 O401 1.273 1_556 S
O401 C400 1.273 1_554 S
O402 Zn393 1.977 . S
O402 C395 1.267 . S
C403 O404 1.160 . S
C403 O410 1.185 . S
O404 C403 1.160 . S
O405 Zn406 1.899 . S
O405 C413 1.284 . S
Zn406 O405 1.899 . S
Zn406 O407 2.032 . S
Zn406 O410 2.086 . S
Zn406 O415 1.977 . S
O407 Zn406 2.032 . S
O407 C411 1.278 . S
C408 O409 1.203 . S
C408 O415 1.267 . S
O409 C408 1.203 . S
O410 C403 1.185 . S
O410 Zn406 2.086 . S
C411 O407 1.278 . S
C411 O412 1.211 . S
O412 C411 1.211 . S
C413 O405 1.284 . S
C413 O414 1.273 . S
O414 C413 1.273 . S
O415 Zn406 1.977 . S
O415 C408 1.267 . S
C8 C177 0.955 1_444 S
C333 C21 1.397 . S
C34 C203 0.955 1_565 S
C47 C320 1.397 . S
C60 C229 1.411 1_465 S
C73 C294 1.002 . S
C86 C255 1.411 1_546 S
C411 C99 1.002 . S
C281 C112 1.411 1_554 S
C125 C242 1.002 . S
C307 C138 1.411 1_455 S
C151 C216 1.397 . S
C190 C164 1.397 . S
C268 C372 1.002 . S
C385 C346 0.955 . S
C398 C359 0.955 1_456 S
C10 C23 1.645 1_545 S
C31 C13 1.667 . S
C49 C36 1.645 1_545 S
C39 C5 1.667 1_556 S
C96 C57 1.371 1_545 S
C75 C52 1.754 . S
C83 C70 1.371 1_545 S
C78 C101 1.754 1_556 S
C117 C0 2.039 1_655 S
C114 C44 1.553 . S
C140 C18 1.553 1_655 S
C351 C91 2.039 1_655 S
C364 C26 2.039 . S
C148 C62 1.553 1_655 S
C88 C161 1.553 . S
C187 C174 1.996 1_545 S
C205 C182 1.486 . S
C213 C200 1.996 1_565 S
C179 C208 1.486 1_556 S
C221 C270 1.461 1_545 S
C226 C239 2.035 . S
C247 C244 1.461 1_565 S
C252 C265 2.035 1_554 S
C169 C286 1.523 1_655 S
C283 C218 1.552 . S
C309 C192 1.552 1_455 S
C390 C260 1.523 1_455 S
C403 C195 1.523 . S
C231 C322 1.552 1_655 S
C335 C257 1.552 . S
C166 C348 1.645 . S
C356 C156 1.667 1_554 S
C153 C361 1.645 . S
C143 C343 1.667 . S
C109 C369 1.371 . S
C127 C104 1.754 1_554 S
C135 C122 1.371 . S
C130 C374 1.754 . S
C338 C65 2.039 . S
C330 C382 1.996 . S
C325 C400 1.486 1_554 S
C395 C317 1.996 . S
C312 C387 1.486 . S
C413 C273 1.461 . S
C278 C291 2.035 1_554 S
C299 C296 1.461 . S
C304 C408 2.035 . S
C377 C234 1.523 . S
