# Generated by pormake.
# Topology unl, (4)-cn, num edge types: 1
# Building blocks:
#     Node 0, Type 0, BuildingBlock: UXUYUI_clean_sbu_0, # of connection points: 4
#     Node 1, Type 0, BuildingBlock: UXUYUI_clean_sbu_0, # of connection points: 4
#     Node 2, Type 0, BuildingBlock: UXUYUI_clean_sbu_0, # of connection points: 4
#     Node 3, Type 0, BuildingBlock: UXUYUI_clean_sbu_0, # of connection points: 4
#     Node 4, Type 0, BuildingBlock: UXUYUI_clean_sbu_0, # of connection points: 4
#     Node 5, Type 0, BuildingBlock: UXUYUI_clean_sbu_0, # of connection points: 4
#     Node 6, Type 0, BuildingBlock: UXUYUI_clean_sbu_0, # of connection points: 4
#     Node 7, Type 0, BuildingBlock: UXUYUI_clean_sbu_0, # of connection points: 4
#     Node 8, Type 0, BuildingBlock: UXUYUI_clean_sbu_0, # of connection points: 4
#     Node 9, Type 0, BuildingBlock: UXUYUI_clean_sbu_0, # of connection points: 4
#     Node 10, Type 0, BuildingBlock: UXUYUI_clean_sbu_0, # of connection points: 4
#     Node 11, Type 0, BuildingBlock: UXUYUI_clean_sbu_0, # of connection points: 4
#     Node 12, Type 0, BuildingBlock: UXUYUI_clean_sbu_0, # of connection points: 4
#     Node 13, Type 0, BuildingBlock: UXUYUI_clean_sbu_0, # of connection points: 4
#     Node 14, Type 0, BuildingBlock: UXUYUI_clean_sbu_0, # of connection points: 4
#     Node 15, Type 0, BuildingBlock: UXUYUI_clean_sbu_0, # of connection points: 4
#     Node 16, Type 0, BuildingBlock: UXUYUI_clean_sbu_0, # of connection points: 4
#     Node 17, Type 0, BuildingBlock: UXUYUI_clean_sbu_0, # of connection points: 4
#     Node 18, Type 0, BuildingBlock: UXUYUI_clean_sbu_0, # of connection points: 4
#     Node 19, Type 0, BuildingBlock: UXUYUI_clean_sbu_0, # of connection points: 4
#     Node 20, Type 0, BuildingBlock: UXUYUI_clean_sbu_0, # of connection points: 4
#     Node 21, Type 0, BuildingBlock: UXUYUI_clean_sbu_0, # of connection points: 4
#     Node 22, Type 0, BuildingBlock: UXUYUI_clean_sbu_0, # of connection points: 4
#     Node 23, Type 0, BuildingBlock: UXUYUI_clean_sbu_0, # of connection points: 4
#     Node 24, Type 0, BuildingBlock: UXUYUI_clean_sbu_0, # of connection points: 4
#     Node 25, Type 0, BuildingBlock: UXUYUI_clean_sbu_0, # of connection points: 4
#     Node 26, Type 0, BuildingBlock: UXUYUI_clean_sbu_0, # of connection points: 4
#     Node 27, Type 0, BuildingBlock: UXUYUI_clean_sbu_0, # of connection points: 4
#     Node 28, Type 0, BuildingBlock: UXUYUI_clean_sbu_0, # of connection points: 4
#     Node 29, Type 0, BuildingBlock: UXUYUI_clean_sbu_0, # of connection points: 4
#     Node 30, Type 0, BuildingBlock: UXUYUI_clean_sbu_0, # of connection points: 4
#     Node 31, Type 0, BuildingBlock: UXUYUI_clean_sbu_0, # of connection points: 4
#     Node 32, Type 0, BuildingBlock: UXUYUI_clean_sbu_0, # of connection points: 4
#     Node 33, Type 0, BuildingBlock: UXUYUI_clean_sbu_0, # of connection points: 4
#     Node 34, Type 0, BuildingBlock: UXUYUI_clean_sbu_0, # of connection points: 4
#     Node 35, Type 0, BuildingBlock: UXUYUI_clean_sbu_0, # of connection points: 4
#     Edge 36, Type (0, 0), BuildingBlock: KIFKEQ_clean_linker_1, # of connection points: 2
#     Edge 37, Type (0, 0), BuildingBlock: KIFKEQ_clean_linker_1, # of connection points: 2
#     Edge 38, Type (0, 0), BuildingBlock: KIFKEQ_clean_linker_1, # of connection points: 2
#     Edge 39, Type (0, 0), BuildingBlock: KIFKEQ_clean_linker_1, # of connection points: 2
#     Edge 40, Type (0, 0), BuildingBlock: KIFKEQ_clean_linker_1, # of connection points: 2
#     Edge 41, Type (0, 0), BuildingBlock: KIFKEQ_clean_linker_1, # of connection points: 2
#     Edge 42, Type (0, 0), BuildingBlock: KIFKEQ_clean_linker_1, # of connection points: 2
#     Edge 43, Type (0, 0), BuildingBlock: KIFKEQ_clean_linker_1, # of connection points: 2
#     Edge 44, Type (0, 0), BuildingBlock: KIFKEQ_clean_linker_1, # of connection points: 2
#     Edge 45, Type (0, 0), BuildingBlock: KIFKEQ_clean_linker_1, # of connection points: 2
#     Edge 46, Type (0, 0), BuildingBlock: KIFKEQ_clean_linker_1, # of connection points: 2
#     Edge 47, Type (0, 0), BuildingBlock: KIFKEQ_clean_linker_1, # of connection points: 2
#     Edge 48, Type (0, 0), BuildingBlock: KIFKEQ_clean_linker_1, # of connection points: 2
#     Edge 49, Type (0, 0), BuildingBlock: KIFKEQ_clean_linker_1, # of connection points: 2
#     Edge 50, Type (0, 0), BuildingBlock: KIFKEQ_clean_linker_1, # of connection points: 2
#     Edge 51, Type (0, 0), BuildingBlock: KIFKEQ_clean_linker_1, # of connection points: 2
#     Edge 52, Type (0, 0), BuildingBlock: KIFKEQ_clean_linker_1, # of connection points: 2
#     Edge 53, Type (0, 0), BuildingBlock: KIFKEQ_clean_linker_1, # of connection points: 2
#     Edge 54, Type (0, 0), BuildingBlock: KIFKEQ_clean_linker_1, # of connection points: 2
#     Edge 55, Type (0, 0), BuildingBlock: KIFKEQ_clean_linker_1, # of connection points: 2
#     Edge 56, Type (0, 0), BuildingBlock: KIFKEQ_clean_linker_1, # of connection points: 2
#     Edge 57, Type (0, 0), BuildingBlock: KIFKEQ_clean_linker_1, # of connection points: 2
#     Edge 58, Type (0, 0), BuildingBlock: KIFKEQ_clean_linker_1, # of connection points: 2
#     Edge 59, Type (0, 0), BuildingBlock: KIFKEQ_clean_linker_1, # of connection points: 2
#     Edge 60, Type (0, 0), BuildingBlock: KIFKEQ_clean_linker_1, # of connection points: 2
#     Edge 61, Type (0, 0), BuildingBlock: KIFKEQ_clean_linker_1, # of connection points: 2
#     Edge 62, Type (0, 0), BuildingBlock: KIFKEQ_clean_linker_1, # of connection points: 2
#     Edge 63, Type (0, 0), BuildingBlock: KIFKEQ_clean_linker_1, # of connection points: 2
#     Edge 64, Type (0, 0), BuildingBlock: KIFKEQ_clean_linker_1, # of connection points: 2
#     Edge 65, Type (0, 0), BuildingBlock: KIFKEQ_clean_linker_1, # of connection points: 2
#     Edge 66, Type (0, 0), BuildingBlock: KIFKEQ_clean_linker_1, # of connection points: 2
#     Edge 67, Type (0, 0), BuildingBlock: KIFKEQ_clean_linker_1, # of connection points: 2
#     Edge 68, Type (0, 0), BuildingBlock: KIFKEQ_clean_linker_1, # of connection points: 2
#     Edge 69, Type (0, 0), BuildingBlock: KIFKEQ_clean_linker_1, # of connection points: 2
#     Edge 70, Type (0, 0), BuildingBlock: KIFKEQ_clean_linker_1, # of connection points: 2
#     Edge 71, Type (0, 0), BuildingBlock: KIFKEQ_clean_linker_1, # of connection points: 2
#     Edge 72, Type (0, 0), BuildingBlock: KIFKEQ_clean_linker_1, # of connection points: 2
#     Edge 73, Type (0, 0), BuildingBlock: KIFKEQ_clean_linker_1, # of connection points: 2
#     Edge 74, Type (0, 0), BuildingBlock: KIFKEQ_clean_linker_1, # of connection points: 2
#     Edge 75, Type (0, 0), BuildingBlock: KIFKEQ_clean_linker_1, # of connection points: 2
#     Edge 76, Type (0, 0), BuildingBlock: KIFKEQ_clean_linker_1, # of connection points: 2
#     Edge 77, Type (0, 0), BuildingBlock: KIFKEQ_clean_linker_1, # of connection points: 2
#     Edge 78, Type (0, 0), BuildingBlock: KIFKEQ_clean_linker_1, # of connection points: 2
#     Edge 79, Type (0, 0), BuildingBlock: KIFKEQ_clean_linker_1, # of connection points: 2
#     Edge 80, Type (0, 0), BuildingBlock: KIFKEQ_clean_linker_1, # of connection points: 2
#     Edge 81, Type (0, 0), BuildingBlock: KIFKEQ_clean_linker_1, # of connection points: 2
#     Edge 82, Type (0, 0), BuildingBlock: KIFKEQ_clean_linker_1, # of connection points: 2
#     Edge 83, Type (0, 0), BuildingBlock: KIFKEQ_clean_linker_1, # of connection points: 2
#     Edge 84, Type (0, 0), BuildingBlock: KIFKEQ_clean_linker_1, # of connection points: 2
#     Edge 85, Type (0, 0), BuildingBlock: KIFKEQ_clean_linker_1, # of connection points: 2
#     Edge 86, Type (0, 0), BuildingBlock: KIFKEQ_clean_linker_1, # of connection points: 2
#     Edge 87, Type (0, 0), BuildingBlock: KIFKEQ_clean_linker_1, # of connection points: 2
#     Edge 88, Type (0, 0), BuildingBlock: KIFKEQ_clean_linker_1, # of connection points: 2
#     Edge 89, Type (0, 0), BuildingBlock: KIFKEQ_clean_linker_1, # of connection points: 2
#     Edge 90, Type (0, 0), BuildingBlock: KIFKEQ_clean_linker_1, # of connection points: 2
#     Edge 91, Type (0, 0), BuildingBlock: KIFKEQ_clean_linker_1, # of connection points: 2
#     Edge 92, Type (0, 0), BuildingBlock: KIFKEQ_clean_linker_1, # of connection points: 2
#     Edge 93, Type (0, 0), BuildingBlock: KIFKEQ_clean_linker_1, # of connection points: 2
#     Edge 94, Type (0, 0), BuildingBlock: KIFKEQ_clean_linker_1, # of connection points: 2
#     Edge 95, Type (0, 0), BuildingBlock: KIFKEQ_clean_linker_1, # of connection points: 2
#     Edge 96, Type (0, 0), BuildingBlock: KIFKEQ_clean_linker_1, # of connection points: 2
#     Edge 97, Type (0, 0), BuildingBlock: KIFKEQ_clean_linker_1, # of connection points: 2
#     Edge 98, Type (0, 0), BuildingBlock: KIFKEQ_clean_linker_1, # of connection points: 2
#     Edge 99, Type (0, 0), BuildingBlock: KIFKEQ_clean_linker_1, # of connection points: 2
#     Edge 100, Type (0, 0), BuildingBlock: KIFKEQ_clean_linker_1, # of connection points: 2
#     Edge 101, Type (0, 0), BuildingBlock: KIFKEQ_clean_linker_1, # of connection points: 2
#     Edge 102, Type (0, 0), BuildingBlock: KIFKEQ_clean_linker_1, # of connection points: 2
#     Edge 103, Type (0, 0), BuildingBlock: KIFKEQ_clean_linker_1, # of connection points: 2
#     Edge 104, Type (0, 0), BuildingBlock: KIFKEQ_clean_linker_1, # of connection points: 2
#     Edge 105, Type (0, 0), BuildingBlock: KIFKEQ_clean_linker_1, # of connection points: 2
#     Edge 106, Type (0, 0), BuildingBlock: KIFKEQ_clean_linker_1, # of connection points: 2
#     Edge 107, Type (0, 0), BuildingBlock: KIFKEQ_clean_linker_1, # of connection points: 2
# Relax obj value: 0.279
# Max RMSD: 0.258
# Mean RMSD: 0.258
data_MOF--net-unl--node1-UXUYUI_clean_sbu_0--edge1-KIFKEQ_clean_linker_1
_symmetry_space_group_name_H-M    P1
_symmetry_Int_Tables_number       1
_symmetry_cell_setting            triclinic
loop_
_symmetry_equiv_pos_as_xyz
'x, y, z'
_cell_length_a     95.661118
_cell_length_b     95.648629
_cell_length_c     57.433536
_cell_angle_alpha  89.98823
_cell_angle_beta   89.997376
_cell_angle_gamma 120.00698
loop_
_atom_site_label
_atom_site_type_symbol
_atom_site_fract_x
_atom_site_fract_y
_atom_site_fract_z
_atom_type_partial_charge
Li0 Li 0.19562 0.09044 0.11126 0.0
Li1 Li 0.2191 0.11421 0.1246 0.0
Li2 Li 0.19279 0.10836 0.13778 0.0
Li3 Li 0.2011 0.11681 0.09827 0.0
C4 C 0.19408 0.08306 0.15846 0.0
N5 N 0.17477 0.05787 0.18796 0.0
C6 C 0.20081 0.07968 0.17774 0.0
C7 C 0.17752 0.07361 0.15418 0.0
C8 C 0.19085 0.06689 0.19245 0.0
C9 C 0.16796 0.06094 0.1693 0.0
C10 C 0.22293 0.09951 0.08514 0.0
C11 C 0.23692 0.09369 0.05515 0.0
N12 N 0.24065 0.08544 0.07091 0.0
C13 C 0.22688 0.09095 0.10104 0.0
C14 C 0.22796 0.10088 0.062 0.0
C15 C 0.23585 0.08394 0.09351 0.0
C16 C 0.18139 0.06669 0.07822 0.0
N17 N 0.18763 0.06914 0.10005 0.0
C18 C 0.18455 0.04275 0.10066 0.0
C19 C 0.1893 0.05757 0.11142 0.0
C20 C 0.17845 0.0401 0.07788 0.0
C21 C 0.17675 0.05221 0.06671 0.0
H22 H 0.18047 0.07624 0.06953 0.0
H23 H 0.19475 0.05999 0.12851 0.0
C24 C 0.24443 0.12398 0.15665 0.0
N25 N 0.24103 0.1234 0.13358 0.0
C26 C 0.26043 0.13092 0.16413 0.0
C27 C 0.26904 0.13644 0.12395 0.0
C28 C 0.25292 0.12947 0.11727 0.0
C29 C 0.27296 0.13723 0.14765 0.0
H30 H 0.2347 0.1191 0.16921 0.0
H31 H 0.24991 0.12904 0.09905 0.0
C32 C 0.16816 0.10183 0.10508 0.0
N33 N 0.14385 0.10876 0.09646 0.0
C34 C 0.16963 0.11635 0.11284 0.0
C35 C 0.15435 0.09084 0.09289 0.0
C36 C 0.15721 0.11963 0.10833 0.0
C37 C 0.14218 0.09456 0.08872 0.0
C38 C 0.22291 0.1447 0.12202 0.0
C39 C 0.22626 0.15744 0.13715 0.0
C40 C 0.2321 0.14766 0.10177 0.0
C41 C 0.23879 0.17294 0.13181 0.0
C42 C 0.24453 0.16333 0.09706 0.0
N43 N 0.24759 0.17555 0.11205 0.0
C44 C 0.19007 0.12238 0.17863 0.0
C45 C 0.16494 0.10104 0.16532 0.0
C46 C 0.18243 0.12596 0.1964 0.0
N47 N 0.18125 0.11031 0.16332 0.0
C48 C 0.15678 0.10426 0.1828 0.0
C49 C 0.16553 0.11705 0.19838 0.0
H50 H 0.20302 0.12954 0.17656 0.0
H51 H 0.15821 0.09148 0.15293 0.0
C52 C 0.19589 0.12104 0.0513 0.0
N53 N 0.19847 0.1279 0.07274 0.0
C54 C 0.19161 0.12753 0.03267 0.0
C55 C 0.19326 0.14828 0.05847 0.0
C56 C 0.19755 0.14144 0.07653 0.0
C57 C 0.18985 0.14109 0.03633 0.0
H58 H 0.19652 0.11015 0.04893 0.0
H59 H 0.19948 0.14656 0.09381 0.0
O60 O 0.20377 0.09563 0.14406 0.0
O61 O 0.21397 0.10633 0.09193 0.0
O62 O 0.18025 0.0984 0.10893 0.0
O63 O 0.21072 0.12945 0.12718 0.0
H64 H 0.21361 0.08689 0.18129 0.0
H65 H 0.17207 0.07594 0.13931 0.0
H66 H 0.1959 0.06415 0.20744 0.0
H67 H 0.15514 0.05353 0.16618 0.0
H68 H 0.2409 0.09466 0.03729 0.0
H69 H 0.22306 0.08971 0.11901 0.0
H70 H 0.22495 0.10742 0.04947 0.0
H71 H 0.23899 0.07729 0.10562 0.0
H72 H 0.18618 0.03371 0.10966 0.0
H73 H 0.17202 0.05053 0.04916 0.0
H74 H 0.26294 0.13119 0.18256 0.0
H75 H 0.27836 0.14139 0.11072 0.0
H76 H 0.18027 0.12505 0.1222 0.0
H77 H 0.15307 0.07957 0.08668 0.0
H78 H 0.1582 0.13083 0.11422 0.0
H79 H 0.13142 0.08617 0.0793 0.0
H80 H 0.21925 0.15536 0.15287 0.0
H81 H 0.22969 0.138 0.08979 0.0
H82 H 0.24152 0.18291 0.14339 0.0
H83 H 0.25174 0.16578 0.08147 0.0
H84 H 0.18964 0.13604 0.20785 0.0
H85 H 0.14375 0.09699 0.18388 0.0
H86 H 0.18891 0.12153 0.01593 0.0
H87 H 0.19216 0.15883 0.06195 0.0
Li88 Li 0.88468 0.10665 0.12238 0.0
Li89 Li 0.91056 0.10877 0.11315 0.0
Li90 Li 0.88563 0.08895 0.09365 0.0
Li91 Li 0.89062 0.08578 0.13467 0.0
C92 C 0.89616 0.1159 0.06942 0.0
N93 N 0.89561 0.12103 0.02214 0.0
C94 C 0.91055 0.12339 0.05669 0.0
C95 C 0.88151 0.11111 0.0581 0.0
C96 C 0.91001 0.12586 0.0328 0.0
C97 C 0.88148 0.11377 0.03418 0.0
C98 C 0.91467 0.12034 0.15582 0.0
C99 C 0.94074 0.13001 0.17365 0.0
N100 N 0.94181 0.14455 0.17745 0.0
C101 C 0.91601 0.13536 0.15993 0.0
C102 C 0.92711 0.1176 0.16279 0.0
C103 C 0.92983 0.14745 0.1709 0.0
C104 C 0.8721 0.12011 0.15412 0.0
N105 N 0.87422 0.11828 0.13116 0.0
C106 C 0.86093 0.13279 0.12035 0.0
C107 C 0.86886 0.12443 0.11434 0.0
C108 C 0.8587 0.13509 0.14394 0.0
C109 C 0.86441 0.12859 0.16095 0.0
H110 H 0.87648 0.11505 0.16712 0.0
H111 H 0.87065 0.12276 0.09625 0.0
C112 C 0.94097 0.11639 0.09668 0.0
N113 N 0.93283 0.12294 0.10709 0.0
C114 C 0.95642 0.12631 0.08781 0.0
C115 C 0.95521 0.14955 0.10161 0.0
C116 C 0.93963 0.13916 0.10984 0.0
C117 C 0.96368 0.14319 0.08976 0.0
H118 H 0.9351 0.10349 0.09407 0.0
H119 H 0.9327 0.1441 0.11744 0.0
C120 C 0.85658 0.08116 0.12834 0.0
N121 N 0.82896 0.07949 0.14614 0.0
C122 C 0.85318 0.07853 0.15212 0.0
C123 C 0.84591 0.08286 0.11358 0.0
C124 C 0.83915 0.07773 0.16079 0.0
C125 C 0.83202 0.08201 0.12293 0.0
C126 C 0.90488 0.07295 0.11095 0.0
C127 C 0.89415 0.05799 0.10108 0.0
C128 C 0.91717 0.07437 0.12564 0.0
C129 C 0.89581 0.04462 0.10629 0.0
C130 C 0.91841 0.06071 0.13044 0.0
N131 N 0.90779 0.04625 0.12077 0.0
C132 C 0.88819 0.08016 0.04803 0.0
C133 C 0.86179 0.06559 0.06379 0.0
C134 C 0.8832 0.07085 0.02783 0.0
N135 N 0.87751 0.07736 0.06547 0.0
C136 C 0.85633 0.05579 0.04404 0.0
C137 C 0.86716 0.05817 0.02584 0.0
H138 H 0.9007 0.08939 0.05008 0.0
H139 H 0.85367 0.06339 0.07819 0.0
C140 C 0.89431 0.0734 0.17827 0.0
N141 N 0.88648 0.06976 0.15748 0.0
C142 C 0.89057 0.06126 0.19473 0.0
C143 C 0.87087 0.04193 0.16798 0.0
C144 C 0.87491 0.05443 0.15215 0.0
C145 C 0.87868 0.04527 0.18966 0.0
H146 H 0.90332 0.08572 0.18217 0.0
H147 H 0.86872 0.05196 0.1356 0.0
O148 O 0.89643 0.11328 0.09281 0.0
O149 O 0.90127 0.10836 0.14504 0.0
O150 O 0.87049 0.08249 0.11965 0.0
O151 O 0.90323 0.0861 0.10652 0.0
H152 H 0.92201 0.12722 0.06508 0.0
H153 H 0.87023 0.10506 0.06755 0.0
H154 H 0.92105 0.13161 0.02274 0.0
H155 H 0.87021 0.10999 0.02518 0.0
H156 H 0.95049 0.12808 0.17903 0.0
H157 H 0.90658 0.13775 0.1545 0.0
H158 H 0.9263 0.10608 0.15963 0.0
H159 H 0.93106 0.15916 0.17411 0.0
H160 H 0.85647 0.13728 0.1066 0.0
H161 H 0.86319 0.13022 0.17934 0.0
H162 H 0.96216 0.12075 0.07835 0.0
H163 H 0.96031 0.16243 0.10381 0.0
H164 H 0.86139 0.07733 0.16381 0.0
H165 H 0.84844 0.08504 0.09515 0.0
H166 H 0.8364 0.07578 0.17918 0.0
H167 H 0.8237 0.08341 0.11174 0.0
H168 H 0.88453 0.05664 0.08976 0.0
H169 H 0.92559 0.08587 0.13335 0.0
H170 H 0.88754 0.03295 0.0989 0.0
H171 H 0.92781 0.06162 0.14189 0.0
H172 H 0.89195 0.07332 0.01419 0.0
H173 H 0.84395 0.04598 0.04357 0.0
H174 H 0.89692 0.06433 0.21121 0.0
H175 H 0.86143 0.02984 0.16352 0.0
Li176 Li 0.91632 0.7944 0.09452 0.0
Li177 Li 0.91632 0.80338 0.1367 0.0
Li178 Li 0.89598 0.77722 0.12282 0.0
Li179 Li 0.89558 0.80025 0.10907 0.0
C180 C 0.92004 0.7722 0.13061 0.0
N181 N 0.9192 0.74396 0.14349 0.0
C182 C 0.91868 0.76785 0.15408 0.0
C183 C 0.92111 0.76227 0.1137 0.0
C184 C 0.91823 0.7535 0.16024 0.0
C185 C 0.92064 0.74803 0.12057 0.0
C186 C 0.91973 0.82931 0.10159 0.0
C187 C 0.9168 0.85197 0.11301 0.0
N188 N 0.91906 0.85707 0.09049 0.0
C189 C 0.9221 0.8348 0.07859 0.0
C190 C 0.9171 0.83796 0.11897 0.0
C191 C 0.92169 0.84885 0.07333 0.0
C192 C 0.9257 0.80004 0.04765 0.0
N193 N 0.92972 0.79697 0.06897 0.0
C194 C 0.95491 0.80117 0.05459 0.0
C195 C 0.94384 0.79719 0.07269 0.0
C196 C 0.95146 0.80515 0.03258 0.0
C197 C 0.93645 0.80416 0.02906 0.0
H198 H 0.91442 0.79993 0.04537 0.0
H199 H 0.94673 0.79483 0.08993 0.0
C200 C 0.92894 0.80974 0.18266 0.0
N201 N 0.93076 0.81577 0.16076 0.0
C202 C 0.94085 0.81807 0.19945 0.0
C203 C 0.95575 0.83905 0.17113 0.0
C204 C 0.94371 0.8302 0.15482 0.0
C205 C 0.95466 0.83284 0.19367 0.0
H206 H 0.91852 0.79821 0.18686 0.0
H207 H 0.94492 0.83465 0.13721 0.0
C208 C 0.88437 0.7704 0.07424 0.0
N209 N 0.86714 0.74745 0.04063 0.0
C210 C 0.86842 0.76618 0.06926 0.0
C211 C 0.89163 0.76315 0.0618 0.0
C212 C 0.85989 0.7545 0.0523 0.0
C213 C 0.88269 0.75151 0.04499 0.0
C214 C 0.87713 0.78722 0.14874 0.0
C215 C 0.86447 0.77626 0.13466 0.0
C216 C 0.87373 0.79242 0.1696 0.0
C217 C 0.84856 0.77066 0.1417 0.0
C218 C 0.85766 0.78654 0.17605 0.0
N219 N 0.84551 0.77588 0.16208 0.0
C220 C 0.87737 0.75177 0.15461 0.0
C221 C 0.88058 0.74309 0.11739 0.0
C222 C 0.86824 0.73579 0.16215 0.0
N223 N 0.88315 0.75511 0.13245 0.0
C224 C 0.87162 0.72698 0.12421 0.0
C225 C 0.86527 0.72316 0.14683 0.0
H226 H 0.88001 0.76151 0.16655 0.0
H227 H 0.88574 0.74595 0.10022 0.0
C228 C 0.88188 0.80848 0.07387 0.0
N229 N 0.88298 0.80895 0.09744 0.0
C230 C 0.87373 0.81511 0.06251 0.0
C231 C 0.86787 0.82263 0.09991 0.0
C232 C 0.87617 0.81577 0.11063 0.0
C233 C 0.86673 0.82248 0.07548 0.0
H234 H 0.88759 0.80315 0.06385 0.0
H235 H 0.87744 0.81617 0.12936 0.0
O236 O 0.91998 0.78594 0.12417 0.0
O237 O 0.91952 0.81529 0.107 0.0
O238 O 0.89309 0.7822 0.09028 0.0
O239 O 0.89283 0.793 0.14215 0.0
H240 H 0.91774 0.77534 0.16736 0.0
H241 H 0.92209 0.76542 0.09545 0.0
H242 H 0.91705 0.74991 0.17832 0.0
H243 H 0.92134 0.74017 0.10766 0.0
H244 H 0.91468 0.85874 0.12625 0.0
H245 H 0.92408 0.8282 0.06493 0.0
H246 H 0.91509 0.83376 0.13683 0.0
H247 H 0.92342 0.8532 0.05558 0.0
H248 H 0.96626 0.80161 0.05797 0.0
H249 H 0.93339 0.80734 0.0125 0.0
H250 H 0.93951 0.81264 0.21644 0.0
H251 H 0.96593 0.85052 0.16593 0.0
H252 H 0.86271 0.77195 0.07821 0.0
H253 H 0.90397 0.76632 0.06526 0.0
H254 H 0.84754 0.75109 0.04833 0.0
H255 H 0.88813 0.74572 0.03538 0.0
H256 H 0.8669 0.77203 0.11861 0.0
H257 H 0.88343 0.80093 0.18068 0.0
H258 H 0.83864 0.76214 0.13097 0.0
H259 H 0.85485 0.79047 0.19216 0.0
H260 H 0.86382 0.73336 0.1799 0.0
H261 H 0.8696 0.71762 0.11182 0.0
H262 H 0.87292 0.81444 0.04369 0.0
H263 H 0.86273 0.82829 0.11053 0.0
Li264 Li 0.08995 0.19754 0.38917 0.0
Li265 Li 0.11415 0.22209 0.37413 0.0
Li266 Li 0.10845 0.19466 0.36339 0.0
Li267 Li 0.11647 0.20475 0.40239 0.0
C268 C 0.08283 0.19509 0.34163 0.0
N269 N 0.0577 0.17508 0.31254 0.0
C270 C 0.07928 0.20142 0.32205 0.0
C271 C 0.0736 0.17858 0.34643 0.0
C272 C 0.06652 0.1911 0.30755 0.0
C273 C 0.06095 0.16866 0.3315 0.0
C274 C 0.10792 0.22152 0.42905 0.0
C275 C 0.12529 0.23834 0.4599 0.0
N276 N 0.1137 0.22924 0.47574 0.0
C277 C 0.09612 0.21242 0.44562 0.0
C278 C 0.12258 0.23467 0.4362 0.0
C279 C 0.09929 0.21649 0.46915 0.0
C280 C 0.0614 0.1753 0.41148 0.0
N281 N 0.06822 0.18898 0.39846 0.0
C282 C 0.04475 0.19152 0.40255 0.0
C283 C 0.06022 0.19703 0.3936 0.0
C284 C 0.03753 0.17762 0.4166 0.0
C285 C 0.04598 0.16935 0.42072 0.0
H286 H 0.0682 0.16935 0.4154 0.0
H287 H 0.06605 0.20795 0.38327 0.0
C288 C 0.13081 0.24774 0.34283 0.0
N289 N 0.12263 0.24345 0.36332 0.0
C290 C 0.13819 0.26373 0.3352 0.0
C291 C 0.12832 0.27044 0.36978 0.0
C292 C 0.12115 0.25433 0.37674 0.0
C293 C 0.1371 0.27535 0.34883 0.0
H294 H 0.13181 0.23877 0.33263 0.0
H295 H 0.11466 0.25054 0.39306 0.0
C296 C 0.10342 0.1716 0.39637 0.0
N297 N 0.1126 0.14869 0.4031 0.0
C298 C 0.11945 0.17557 0.39282 0.0
C299 C 0.09206 0.15594 0.4033 0.0
C300 C 0.12386 0.16384 0.39634 0.0
C301 C 0.09693 0.14454 0.40661 0.0
C302 C 0.14534 0.22271 0.37379 0.0
C303 C 0.15485 0.21652 0.36527 0.0
C304 C 0.15278 0.23847 0.38247 0.0
C305 C 0.17165 0.22618 0.36573 0.0
C306 C 0.16962 0.24775 0.3826 0.0
N307 N 0.17862 0.24146 0.37431 0.0
C308 C 0.12325 0.19153 0.32371 0.0
C309 C 0.10261 0.1664 0.33817 0.0
C310 C 0.12775 0.18375 0.30735 0.0
N311 N 0.11119 0.1828 0.33907 0.0
C312 C 0.10671 0.15809 0.32207 0.0
C313 C 0.11973 0.16679 0.3068 0.0
H314 H 0.12976 0.20457 0.32474 0.0
H315 H 0.09299 0.15973 0.3505 0.0
C316 C 0.11764 0.19309 0.44623 0.0
N317 N 0.12748 0.20337 0.42949 0.0
C318 C 0.12413 0.18942 0.46544 0.0
C319 C 0.15082 0.20722 0.45018 0.0
C320 C 0.14382 0.2107 0.43138 0.0
C321 C 0.14091 0.1962 0.46723 0.0
H322 H 0.10469 0.18722 0.44414 0.0
H323 H 0.15148 0.21876 0.41801 0.0
O324 O 0.0953 0.20509 0.35592 0.0
O325 O 0.10515 0.21752 0.40598 0.0
O326 O 0.09876 0.18287 0.39306 0.0
O327 O 0.12886 0.21345 0.37318 0.0
H328 H 0.08632 0.21419 0.3181 0.0
H329 H 0.07614 0.17344 0.36149 0.0
H330 H 0.06364 0.19584 0.29233 0.0
H331 H 0.05372 0.15587 0.33501 0.0
H332 H 0.13663 0.24843 0.46569 0.0
H333 H 0.0847 0.20222 0.44042 0.0
H334 H 0.13179 0.24191 0.42363 0.0
H335 H 0.09031 0.20948 0.48217 0.0
H336 H 0.03861 0.1982 0.39884 0.0
H337 H 0.04103 0.15877 0.4318 0.0
H338 H 0.14469 0.26696 0.31883 0.0
H339 H 0.12736 0.27902 0.38097 0.0
H340 H 0.12842 0.18756 0.38747 0.0
H341 H 0.07957 0.15259 0.40599 0.0
H342 H 0.13623 0.16678 0.39368 0.0
H343 H 0.08825 0.13238 0.41195 0.0
H344 H 0.14933 0.20438 0.3584 0.0
H345 H 0.14569 0.24349 0.38917 0.0
H346 H 0.17914 0.22152 0.35925 0.0
H347 H 0.17552 0.25995 0.38932 0.0
H348 H 0.13764 0.19093 0.29559 0.0
H349 H 0.10024 0.14502 0.3223 0.0
H350 H 0.11607 0.18067 0.47804 0.0
H351 H 0.16383 0.21272 0.45102 0.0
Li352 Li 0.80512 0.91529 0.36363 0.0
Li353 Li 0.79769 0.91298 0.40476 0.0
Li354 Li 0.80218 0.89271 0.38576 0.0
Li355 Li 0.77842 0.89476 0.37703 0.0
C356 C 0.83256 0.92853 0.38619 0.0
N357 N 0.86177 0.95522 0.37453 0.0
C358 C 0.8373 0.94348 0.39653 0.0
C359 C 0.84272 0.92714 0.37003 0.0
C360 C 0.85211 0.95683 0.39039 0.0
C361 C 0.85742 0.94078 0.36432 0.0
C362 C 0.77591 0.92014 0.36989 0.0
C363 C 0.75025 0.91882 0.37488 0.0
N364 N 0.74988 0.92148 0.35169 0.0
C365 C 0.7753 0.92289 0.34611 0.0
C366 C 0.76332 0.91813 0.38443 0.0
C367 C 0.76203 0.92353 0.33724 0.0
C368 C 0.82027 0.92686 0.31918 0.0
N369 N 0.81667 0.93087 0.34014 0.0
C370 C 0.82931 0.95864 0.32915 0.0
C371 C 0.82091 0.94636 0.3453 0.0
C372 C 0.83324 0.95493 0.30732 0.0
C373 C 0.8286 0.93878 0.30239 0.0
H374 H 0.81659 0.91442 0.31545 0.0
H375 H 0.81764 0.94913 0.36199 0.0
C376 C 0.81062 0.92347 0.44934 0.0
N377 N 0.80142 0.925 0.43262 0.0
C378 C 0.81458 0.93276 0.46955 0.0
C379 C 0.79963 0.94513 0.45487 0.0
C380 C 0.79585 0.93549 0.435 0.0
C381 C 0.80928 0.94397 0.47238 0.0
H382 H 0.8151 0.91521 0.44676 0.0
H383 H 0.78884 0.93669 0.4212 0.0
C384 C 0.79365 0.87986 0.34466 0.0
N385 N 0.7954 0.85407 0.32633 0.0
C386 C 0.77984 0.86458 0.34358 0.0
C387 C 0.80834 0.88203 0.33635 0.0
C388 C 0.78097 0.8517 0.33424 0.0
C389 C 0.80899 0.86884 0.32718 0.0
C390 C 0.78181 0.88709 0.43034 0.0
C391 C 0.78997 0.88118 0.44366 0.0
C392 C 0.77156 0.89151 0.44135 0.0
C393 C 0.78773 0.8798 0.46776 0.0
C394 C 0.76968 0.88999 0.46551 0.0
N395 N 0.77773 0.8842 0.4781 0.0
C396 C 0.82555 0.88382 0.39616 0.0
C397 C 0.79863 0.86207 0.39372 0.0
C398 C 0.83081 0.87347 0.40425 0.0
N399 N 0.80967 0.87802 0.39149 0.0
C400 C 0.80336 0.85129 0.40173 0.0
C401 C 0.81958 0.85704 0.40774 0.0
H402 H 0.83399 0.89661 0.39476 0.0
H403 H 0.78601 0.85787 0.3904 0.0
C404 C 0.75224 0.8812 0.34577 0.0
N405 N 0.75623 0.88293 0.36871 0.0
C406 C 0.73608 0.87252 0.33898 0.0
C407 C 0.72845 0.86779 0.37957 0.0
C408 C 0.74476 0.8764 0.38555 0.0
C409 C 0.72389 0.86566 0.35599 0.0
H410 H 0.76166 0.88648 0.33276 0.0
H411 H 0.74825 0.8779 0.40364 0.0
O412 O 0.81794 0.91539 0.39154 0.0
O413 O 0.78855 0.91898 0.37878 0.0
O414 O 0.79285 0.89257 0.35407 0.0
O415 O 0.78398 0.88872 0.40672 0.0
H416 H 0.82956 0.94483 0.40895 0.0
H417 H 0.83921 0.91569 0.36176 0.0
H418 H 0.85589 0.96848 0.39816 0.0
H419 H 0.86535 0.93989 0.35172 0.0
H420 H 0.74037 0.91718 0.3859 0.0
H421 H 0.78486 0.92431 0.33456 0.0
H422 H 0.76351 0.9158 0.40283 0.0
H423 H 0.76136 0.92557 0.31885 0.0
H424 H 0.83238 0.97087 0.33352 0.0
H425 H 0.83143 0.93542 0.28579 0.0
H426 H 0.8219 0.93133 0.48266 0.0
H427 H 0.79554 0.95381 0.45606 0.0
H428 H 0.7684 0.86263 0.35013 0.0
H429 H 0.81917 0.89374 0.33723 0.0
H430 H 0.7704 0.8398 0.33339 0.0
H431 H 0.82029 0.87033 0.32081 0.0
H432 H 0.79807 0.87783 0.43556 0.0
H433 H 0.7654 0.89643 0.43144 0.0
H434 H 0.79401 0.87528 0.47827 0.0
H435 H 0.76188 0.89349 0.47425 0.0
H436 H 0.84337 0.87849 0.40904 0.0
H437 H 0.79432 0.8387 0.40401 0.0
H438 H 0.73322 0.871 0.32059 0.0
H439 H 0.71952 0.86298 0.39333 0.0
Li440 Li 0.10432 0.88166 0.38125 0.0
Li441 Li 0.10605 0.90699 0.39199 0.0
Li442 Li 0.08541 0.88142 0.40883 0.0
Li443 Li 0.08395 0.88823 0.3682 0.0
C444 C 0.11045 0.89059 0.43558 0.0
N445 N 0.11172 0.88766 0.48331 0.0
C446 C 0.11553 0.9041 0.44992 0.0
C447 C 0.10601 0.8756 0.44555 0.0
C448 C 0.11611 0.90237 0.474 0.0
C449 C 0.10672 0.87436 0.46971 0.0
C450 C 0.1197 0.91287 0.3512 0.0
C451 C 0.13077 0.93935 0.33412 0.0
N452 N 0.14576 0.94106 0.33496 0.0
C453 C 0.13519 0.91486 0.35183 0.0
C454 C 0.11743 0.92517 0.34221 0.0
C455 C 0.14822 0.92921 0.34355 0.0
C456 C 0.11885 0.8708 0.34894 0.0
N457 N 0.11635 0.87172 0.37205 0.0
C458 C 0.13051 0.85783 0.38159 0.0
C459 C 0.12206 0.86555 0.38835 0.0
C460 C 0.1333 0.85672 0.35786 0.0
C461 C 0.12743 0.86339 0.34141 0.0
H462 H 0.11412 0.8758 0.33638 0.0
H463 H 0.12001 0.86656 0.40658 0.0
C464 C 0.11524 0.93958 0.40158 0.0
N465 N 0.1207 0.92902 0.39885 0.0
C466 C 0.12567 0.95527 0.40932 0.0
C467 C 0.14721 0.949 0.41071 0.0
C468 C 0.13638 0.93346 0.40289 0.0
C469 C 0.1418 0.96003 0.4145 0.0
H470 H 0.10266 0.93565 0.39867 0.0
H471 H 0.14031 0.92471 0.40089 0.0
C472 C 0.07922 0.85414 0.37125 0.0
N473 N 0.07844 0.82776 0.35028 0.0
C474 C 0.07687 0.85185 0.34723 0.0
C475 C 0.08113 0.84299 0.38462 0.0
C476 C 0.0765 0.83843 0.33695 0.0
C477 C 0.08072 0.82975 0.37368 0.0
C478 C 0.07057 0.90211 0.39214 0.0
C479 C 0.05568 0.89279 0.40319 0.0
C480 C 0.07239 0.91372 0.37577 0.0
C481 C 0.04282 0.89518 0.39752 0.0
C482 C 0.05924 0.91572 0.37054 0.0
N483 N 0.04485 0.90648 0.38143 0.0
C484 C 0.07279 0.88078 0.4535 0.0
C485 C 0.06178 0.85529 0.43492 0.0
C486 C 0.062 0.87394 0.47201 0.0
N487 N 0.07236 0.87143 0.43538 0.0
C488 C 0.05073 0.84797 0.453 0.0
C489 C 0.05055 0.85739 0.47162 0.0
H490 H 0.08108 0.89365 0.4531 0.0
H491 H 0.06152 0.84821 0.4201 0.0
C492 C 0.07358 0.89138 0.3227 0.0
N493 N 0.06887 0.88498 0.34436 0.0
C494 C 0.06203 0.888 0.30539 0.0
C495 C 0.04112 0.87178 0.33318 0.0
C496 C 0.05304 0.87521 0.34976 0.0
C497 C 0.04558 0.87811 0.31064 0.0
H498 H 0.08628 0.89886 0.31878 0.0
H499 H 0.04971 0.86992 0.36694 0.0
O500 O 0.10963 0.89199 0.41196 0.0
O501 O 0.10684 0.89905 0.35966 0.0
O502 O 0.08013 0.86747 0.38153 0.0
O503 O 0.08324 0.89979 0.39719 0.0
H504 H 0.11884 0.91576 0.44263 0.0
H505 H 0.1017 0.86494 0.43482 0.0
H506 H 0.11998 0.91271 0.4853 0.0
H507 H 0.1032 0.86281 0.47765 0.0
H508 H 0.12921 0.949 0.32722 0.0
H509 H 0.13719 0.90552 0.35893 0.0
H510 H 0.10552 0.92384 0.34165 0.0
H511 H 0.16029 0.93095 0.34404 0.0
H512 H 0.135 0.85298 0.39478 0.0
H513 H 0.12927 0.86266 0.32294 0.0
H514 H 0.12094 0.9633 0.41236 0.0
H515 H 0.15957 0.95222 0.41438 0.0
H516 H 0.07552 0.86042 0.33657 0.0
H517 H 0.08318 0.84469 0.40319 0.0
H518 H 0.07476 0.83654 0.31836 0.0
H519 H 0.08231 0.82109 0.38379 0.0
H520 H 0.05399 0.88369 0.41581 0.0
H521 H 0.08379 0.92096 0.36694 0.0
H522 H 0.03122 0.88801 0.40585 0.0
H523 H 0.06045 0.92458 0.35778 0.0
H524 H 0.06207 0.88167 0.48584 0.0
H525 H 0.04212 0.83516 0.45209 0.0
H526 H 0.06589 0.89302 0.28812 0.0
H527 H 0.02857 0.86386 0.33773 0.0
Li528 Li 0.80388 0.91083 0.89151 0.0
Li529 Li 0.79763 0.88525 0.90948 0.0
Li530 Li 0.80497 0.89066 0.86828 0.0
Li531 Li 0.77896 0.8861 0.88241 0.0
C532 C 0.83246 0.90264 0.89042 0.0
N533 N 0.86047 0.90293 0.8777 0.0
C534 C 0.83652 0.89193 0.90082 0.0
C535 C 0.84269 0.91355 0.87362 0.0
C536 C 0.85073 0.89227 0.89415 0.0
C537 C 0.85677 0.91348 0.86739 0.0
C538 C 0.78308 0.89617 0.93602 0.0
C539 C 0.76923 0.88077 0.97017 0.0
N540 N 0.7787 0.8938 0.98372 0.0
C541 C 0.79265 0.90942 0.95028 0.0
C542 C 0.77124 0.88174 0.94602 0.0
C543 C 0.79025 0.90798 0.97435 0.0
C544 C 0.8035 0.9394 0.90296 0.0
N545 N 0.81321 0.93317 0.89811 0.0
C546 C 0.83658 0.95773 0.9094 0.0
C547 C 0.82947 0.94207 0.90068 0.0
C548 C 0.82681 0.96421 0.91584 0.0
C549 C 0.81011 0.95504 0.91183 0.0
H550 H 0.79056 0.93191 0.90117 0.0
H551 H 0.83687 0.93674 0.89704 0.0
C552 C 0.79434 0.85944 0.93731 0.0
N553 N 0.8006 0.87568 0.93655 0.0
C554 C 0.79844 0.85247 0.95547 0.0
C555 C 0.81481 0.87903 0.97218 0.0
C556 C 0.8105 0.8855 0.9536 0.0
C557 C 0.8091 0.86237 0.9729 0.0
H558 H 0.78677 0.85197 0.92328 0.0
H559 H 0.81567 0.89843 0.95216 0.0
C560 C 0.795 0.91657 0.85182 0.0
N561 N 0.7973 0.94504 0.83658 0.0
C562 C 0.78151 0.91858 0.85259 0.0
C563 C 0.80964 0.929 0.84321 0.0
C564 C 0.78292 0.93307 0.84481 0.0
C565 C 0.81056 0.94332 0.83563 0.0
C566 C 0.77469 0.85696 0.87488 0.0
C567 C 0.77428 0.85231 0.8517 0.0
C568 C 0.76166 0.84751 0.88957 0.0
C569 C 0.76075 0.83832 0.84355 0.0
C570 C 0.74834 0.83364 0.88074 0.0
N571 N 0.74816 0.82937 0.8581 0.0
C572 C 0.81939 0.87448 0.84828 0.0
C573 C 0.81939 0.8943 0.82347 0.0
C574 C 0.82751 0.87066 0.83157 0.0
N575 N 0.81563 0.88618 0.84403 0.0
C576 C 0.82743 0.89078 0.80615 0.0
C577 C 0.83164 0.87885 0.81017 0.0
H578 H 0.81606 0.86811 0.86472 0.0
H579 H 0.81616 0.90349 0.82054 0.0
C580 C 0.74592 0.87559 0.89073 0.0
N581 N 0.75686 0.87694 0.87448 0.0
C582 C 0.72954 0.86803 0.88512 0.0
C583 C 0.73609 0.86368 0.84608 0.0
C584 C 0.75234 0.8715 0.85236 0.0
C585 C 0.72446 0.86177 0.86263 0.0
H586 H 0.74989 0.88024 0.90808 0.0
H587 H 0.76137 0.87304 0.83971 0.0
O588 O 0.81841 0.90227 0.89634 0.0
O589 O 0.78538 0.89726 0.91243 0.0
O590 O 0.79395 0.90261 0.85977 0.0
O591 O 0.78769 0.87078 0.88307 0.0
H592 H 0.82872 0.88332 0.91371 0.0
H593 H 0.83964 0.92177 0.86515 0.0
H594 H 0.85399 0.88401 0.90199 0.0
H595 H 0.86472 0.92176 0.85428 0.0
H596 H 0.76018 0.86965 0.97815 0.0
H597 H 0.80197 0.92064 0.94291 0.0
H598 H 0.76381 0.87133 0.93529 0.0
H599 H 0.79761 0.91811 0.9856 0.0
H600 H 0.84953 0.96447 0.91196 0.0
H601 H 0.80213 0.9595 0.91682 0.0
H602 H 0.79379 0.83956 0.95545 0.0
H603 H 0.82329 0.88709 0.98506 0.0
H604 H 0.77011 0.90911 0.85931 0.0
H605 H 0.82023 0.92768 0.84267 0.0
H606 H 0.77259 0.93482 0.84538 0.0
H607 H 0.82184 0.95308 0.82906 0.0
H608 H 0.78419 0.85952 0.84003 0.0
H609 H 0.76176 0.85097 0.90752 0.0
H610 H 0.76023 0.83463 0.82562 0.0
H611 H 0.73813 0.82628 0.89186 0.0
H612 H 0.83028 0.86119 0.83522 0.0
H613 H 0.83045 0.8974 0.78989 0.0
H614 H 0.72091 0.86676 0.89834 0.0
H615 H 0.73265 0.85923 0.82847 0.0
Li616 Li 0.09191 0.89544 0.8869 0.0
Li617 Li 0.11765 0.91509 0.90475 0.0
Li618 Li 0.11118 0.9169 0.86458 0.0
Li619 Li 0.1162 0.89523 0.87667 0.0
C620 C 0.1 0.93259 0.88866 0.0
N621 N 0.10029 0.96109 0.87912 0.0
C622 C 0.11145 0.94703 0.8991 0.0
C623 C 0.08853 0.93265 0.87362 0.0
C624 C 0.11144 0.9613 0.89401 0.0
C625 C 0.08893 0.94718 0.86893 0.0
C626 C 0.1138 0.88643 0.92277 0.0
C627 C 0.13839 0.88957 0.93927 0.0
N628 N 0.12954 0.8766 0.95326 0.0
C629 C 0.10495 0.87313 0.93727 0.0
C630 C 0.13067 0.89473 0.92374 0.0
C631 C 0.11312 0.86835 0.95258 0.0
C632 C 0.06492 0.866 0.89945 0.0
N633 N 0.06998 0.88173 0.89463 0.0
C634 C 0.04504 0.87879 0.90796 0.0
C635 C 0.0603 0.88815 0.89813 0.0
C636 C 0.03986 0.86278 0.91458 0.0
C637 C 0.04978 0.85622 0.90946 0.0
H638 H 0.07302 0.86134 0.89668 0.0
H639 H 0.06472 0.90074 0.89437 0.0
C640 C 0.14236 0.94036 0.93038 0.0
N641 N 0.12782 0.92664 0.93221 0.0
C642 C 0.14929 0.9502 0.94978 0.0
C643 C 0.12656 0.93111 0.97287 0.0
C644 C 0.11998 0.92171 0.95292 0.0
C645 C 0.14123 0.9458 0.97134 0.0
H646 H 0.14815 0.94407 0.91359 0.0
H647 H 0.10841 0.9107 0.95379 0.0
C648 C 0.08489 0.88313 0.84501 0.0
N649 N 0.05551 0.86123 0.82553 0.0
C650 C 0.08193 0.86788 0.83811 0.0
C651 C 0.07303 0.88736 0.84146 0.0
C652 C 0.06698 0.85695 0.82842 0.0
C653 C 0.05822 0.8761 0.83177 0.0
C654 C 0.14303 0.92379 0.86026 0.0
C655 C 0.13865 0.91709 0.83796 0.0
C656 C 0.15908 0.93542 0.86477 0.0
C657 C 0.15041 0.92214 0.82059 0.0
C658 C 0.17049 0.94013 0.84693 0.0
N659 N 0.16595 0.93346 0.82539 0.0
C660 C 0.12773 0.94767 0.84549 0.0
C661 C 0.10702 0.92879 0.82077 0.0
C662 C 0.1322 0.95984 0.82899 0.0
N663 N 0.1154 0.93252 0.8411 0.0
C664 C 0.11109 0.94065 0.80371 0.0
C665 C 0.12396 0.95637 0.80766 0.0
H666 H 0.1342 0.95024 0.86181 0.0
H667 H 0.09739 0.9166 0.81763 0.0
C668 C 0.11423 0.86525 0.87076 0.0
N669 N 0.12482 0.8814 0.87047 0.0
C670 C 0.11955 0.8543 0.86648 0.0
C671 C 0.14678 0.87677 0.86319 0.0
C672 C 0.14091 0.88727 0.86736 0.0
C673 C 0.13602 0.86006 0.86245 0.0
H674 H 0.10164 0.86088 0.87453 0.0
H675 H 0.14928 0.90006 0.86834 0.0
O676 O 0.10003 0.91851 0.8931 0.0
O677 O 0.10592 0.89111 0.90753 0.0
O678 O 0.09941 0.89397 0.85475 0.0
O679 O 0.1317 0.91927 0.87753 0.0
H680 H 0.12035 0.94729 0.91089 0.0
H681 H 0.07947 0.92167 0.86548 0.0
H682 H 0.12032 0.97256 0.90188 0.0
H683 H 0.0802 0.94739 0.85718 0.0
H684 H 0.15143 0.89586 0.94019 0.0
H685 H 0.09188 0.86656 0.93667 0.0
H686 H 0.13774 0.90501 0.91258 0.0
H687 H 0.10642 0.85808 0.96392 0.0
H688 H 0.03769 0.88425 0.91133 0.0
H689 H 0.04636 0.84401 0.91451 0.0
H690 H 0.16045 0.96153 0.94757 0.0
H691 H 0.12003 0.92711 0.98915 0.0
H692 H 0.09113 0.86455 0.83988 0.0
H693 H 0.07517 0.89915 0.84635 0.0
H694 H 0.06453 0.84508 0.82311 0.0
H695 H 0.04888 0.87918 0.82918 0.0
H696 H 0.12633 0.9081 0.83402 0.0
H697 H 0.16272 0.94074 0.88189 0.0
H698 H 0.14718 0.91705 0.80328 0.0
H699 H 0.18295 0.94911 0.85021 0.0
H700 H 0.14206 0.97183 0.83286 0.0
H701 H 0.10456 0.93744 0.78738 0.0
H702 H 0.11092 0.84148 0.8666 0.0
H703 H 0.15958 0.88171 0.86025 0.0
Li704 Li 0.0822 0.19991 0.90452 0.0
Li705 Li 0.10285 0.1944 0.88787 0.0
Li706 Li 0.10212 0.21793 0.87421 0.0
Li707 Li 0.08082 0.19023 0.86542 0.0
C708 C 0.11093 0.22678 0.92014 0.0
N709 N 0.12013 0.25373 0.94757 0.0
C710 C 0.12418 0.2322 0.93506 0.0
C711 C 0.10237 0.23509 0.91914 0.0
C712 C 0.12863 0.24584 0.9488 0.0
C713 C 0.10721 0.24868 0.93315 0.0
C714 C 0.06766 0.16363 0.89202 0.0
C715 C 0.05563 0.13811 0.87175 0.0
N716 N 0.04243 0.13243 0.88573 0.0
C717 C 0.05407 0.15743 0.90641 0.0
C718 C 0.06854 0.15378 0.87477 0.0
C719 C 0.04141 0.14168 0.90289 0.0
C720 C 0.05411 0.19283 0.92882 0.0
N721 N 0.07021 0.19885 0.93155 0.0
C722 C 0.0679 0.20084 0.97272 0.0
C723 C 0.07723 0.20287 0.95293 0.0
C724 C 0.0511 0.19421 0.97054 0.0
C725 C 0.04428 0.1903 0.94812 0.0
H726 H 0.04877 0.18918 0.91174 0.0
H727 H 0.09001 0.20733 0.95476 0.0
C728 C 0.13198 0.19778 0.90507 0.0
N729 N 0.1171 0.18694 0.89687 0.0
C730 C 0.14164 0.19244 0.91558 0.0
C731 C 0.12083 0.16494 0.90774 0.0
C732 C 0.11158 0.17081 0.89746 0.0
C733 C 0.13583 0.17578 0.9177 0.0
H734 H 0.13602 0.21054 0.9044 0.0
H735 H 0.09971 0.16246 0.8909 0.0
C736 C 0.06858 0.20979 0.8593 0.0
N737 N 0.0486 0.21053 0.82514 0.0
C738 C 0.07333 0.21184 0.83593 0.0
C739 C 0.05375 0.20835 0.8653 0.0
C740 C 0.06303 0.21211 0.81892 0.0
C741 C 0.04381 0.20871 0.84777 0.0
C742 C 0.11551 0.19854 0.84743 0.0
C743 C 0.13167 0.21076 0.84843 0.0
C744 C 0.11165 0.18323 0.83934 0.0
C745 C 0.14373 0.2074 0.84171 0.0
C746 C 0.12404 0.18034 0.83279 0.0
N747 N 0.1397 0.19238 0.83413 0.0
C748 C 0.13066 0.24827 0.87104 0.0
C749 C 0.10758 0.24774 0.85505 0.0
C750 C 0.1402 0.26463 0.86558 0.0
N751 N 0.11472 0.24012 0.86539 0.0
C752 C 0.11664 0.26406 0.84929 0.0
C753 C 0.13321 0.27272 0.85443 0.0
H754 H 0.13594 0.24211 0.88007 0.0
H755 H 0.0948 0.2413 0.85165 0.0
C756 C 0.04917 0.17062 0.84872 0.0
N757 N 0.06497 0.17719 0.84273 0.0
C758 C 0.03708 0.16217 0.83232 0.0
C759 C 0.05773 0.16725 0.80388 0.0
C760 C 0.06944 0.17562 0.82086 0.0
C761 C 0.04129 0.16055 0.80947 0.0
H762 H 0.04598 0.17236 0.86612 0.0
H763 H 0.08209 0.18125 0.81643 0.0
O764 O 0.10658 0.21355 0.90637 0.0
O765 O 0.08013 0.17911 0.89516 0.0
O766 O 0.07831 0.209 0.87613 0.0
O767 O 0.10356 0.2015 0.85454 0.0
H768 H 0.13094 0.22592 0.93603 0.0
H769 H 0.09211 0.23113 0.90768 0.0
H770 H 0.13886 0.25017 0.96044 0.0
H771 H 0.1007 0.25523 0.93254 0.0
H772 H 0.05611 0.13046 0.85826 0.0
H773 H 0.05332 0.16461 0.92032 0.0
H774 H 0.07895 0.15827 0.86356 0.0
H775 H 0.0308 0.13678 0.91385 0.0
H776 H 0.07377 0.20421 0.98953 0.0
H777 H 0.03138 0.18472 0.94548 0.0
H778 H 0.15306 0.20121 0.9232 0.0
H779 H 0.11601 0.15202 0.90871 0.0
H780 H 0.08479 0.21301 0.83098 0.0
H781 H 0.04997 0.20704 0.88327 0.0
H782 H 0.0665 0.21352 0.80077 0.0
H783 H 0.03228 0.20755 0.85217 0.0
H784 H 0.1349 0.22268 0.85443 0.0
H785 H 0.09925 0.17366 0.83816 0.0
H786 H 0.15629 0.21673 0.84256 0.0
H787 H 0.12121 0.16852 0.82663 0.0
H788 H 0.15292 0.27083 0.86992 0.0
H789 H 0.11065 0.26991 0.8413 0.0
H790 H 0.0246 0.15749 0.8373 0.0
H791 H 0.0615 0.16621 0.7865 0.0
Li792 Li 0.8805 0.78013 0.62008 0.0
Li793 Li 0.88638 0.80717 0.63146 0.0
Li794 Li 0.87992 0.79852 0.59125 0.0
Li795 Li 0.90532 0.80403 0.60941 0.0
C796 C 0.8543 0.78344 0.63587 0.0
N797 N 0.83156 0.77209 0.67111 0.0
C798 C 0.85827 0.78034 0.65799 0.0
C799 C 0.83877 0.78084 0.63176 0.0
C800 C 0.8466 0.77459 0.67554 0.0
C801 C 0.82744 0.77507 0.64978 0.0
C802 C 0.91218 0.79949 0.65151 0.0
C803 C 0.93895 0.81949 0.66386 0.0
N804 N 0.94171 0.80751 0.67091 0.0
C805 C 0.9152 0.78739 0.65919 0.0
C806 C 0.92406 0.81567 0.65416 0.0
C807 C 0.93023 0.79168 0.66884 0.0
C808 C 0.88101 0.75146 0.62822 0.0
N809 N 0.87098 0.75767 0.62714 0.0
C810 C 0.8481 0.73169 0.63468 0.0
C811 C 0.85475 0.74807 0.62967 0.0
C812 C 0.85823 0.72504 0.63672 0.0
C813 C 0.87489 0.73513 0.63322 0.0
H814 H 0.89376 0.75918 0.62492 0.0
H815 H 0.84685 0.75299 0.62761 0.0
C816 C 0.87124 0.82309 0.65042 0.0
N817 N 0.88282 0.81916 0.65481 0.0
C818 C 0.8676 0.83147 0.66692 0.0
C819 C 0.88766 0.83138 0.69243 0.0
C820 C 0.891 0.82308 0.67532 0.0
C821 C 0.8758 0.83566 0.6883 0.0
H822 H 0.86468 0.81951 0.63416 0.0
H823 H 0.89995 0.81957 0.67853 0.0
C824 C 0.88281 0.77289 0.57437 0.0
N825 N 0.86652 0.74705 0.54449 0.0
C826 C 0.89138 0.76784 0.56032 0.0
C827 C 0.86596 0.7648 0.57325 0.0
C828 C 0.88292 0.75475 0.54531 0.0
C829 C 0.85794 0.75176 0.55803 0.0
C830 C 0.8979 0.83361 0.6061 0.0
C831 C 0.88595 0.83601 0.59603 0.0
C832 C 0.90993 0.84585 0.61969 0.0
C833 C 0.88613 0.85052 0.59994 0.0
C834 C 0.90967 0.86017 0.62322 0.0
N835 N 0.89787 0.86218 0.61338 0.0
C836 C 0.85507 0.79627 0.56166 0.0
C837 C 0.88093 0.8066 0.54447 0.0
C838 C 0.84905 0.79924 0.54125 0.0
N839 N 0.87081 0.80025 0.56295 0.0
C840 C 0.87543 0.80975 0.52372 0.0
C841 C 0.85937 0.80637 0.52208 0.0
H842 H 0.84736 0.79131 0.57671 0.0
H843 H 0.89339 0.80962 0.54612 0.0
C844 C 0.93317 0.80175 0.60004 0.0
N845 N 0.92723 0.812 0.60151 0.0
C846 C 0.94834 0.80697 0.5901 0.0
C847 C 0.9511 0.8333 0.58434 0.0
C848 C 0.93596 0.8276 0.59442 0.0
C849 C 0.95722 0.82279 0.5814 0.0
H850 H 0.92579 0.78932 0.60549 0.0
H851 H 0.93083 0.83539 0.5955 0.0
O852 O 0.86561 0.78944 0.61849 0.0
O853 O 0.8976 0.79554 0.64174 0.0
O854 O 0.89097 0.7856 0.58927 0.0
O855 O 0.89777 0.81936 0.6028 0.0
H856 H 0.8702 0.78232 0.66163 0.0
H857 H 0.83551 0.78329 0.61485 0.0
H858 H 0.84951 0.77212 0.6927 0.0
H859 H 0.81538 0.77299 0.64681 0.0
H860 H 0.9483 0.83198 0.66578 0.0
H861 H 0.90602 0.77482 0.65794 0.0
H862 H 0.92187 0.82518 0.64855 0.0
H863 H 0.93275 0.78243 0.67476 0.0
H864 H 0.83519 0.72437 0.63721 0.0
H865 H 0.88308 0.73041 0.63402 0.0
H866 H 0.85815 0.83425 0.66321 0.0
H867 H 0.89427 0.83441 0.70869 0.0
H868 H 0.90443 0.77397 0.56105 0.0
H869 H 0.85911 0.76848 0.58407 0.0
H870 H 0.88939 0.75071 0.53433 0.0
H871 H 0.84491 0.74538 0.55701 0.0
H872 H 0.87649 0.82672 0.58557 0.0
H873 H 0.91935 0.84433 0.6275 0.0
H874 H 0.87689 0.85247 0.59238 0.0
H875 H 0.91886 0.86968 0.63381 0.0
H876 H 0.83666 0.79663 0.54086 0.0
H877 H 0.88373 0.81506 0.50929 0.0
H878 H 0.95259 0.79847 0.58791 0.0
H879 H 0.95765 0.8456 0.57799 0.0
Li880 Li 0.21823 0.10495 0.61716 0.0
Li881 Li 0.19104 0.0828 0.62785 0.0
Li882 Li 0.20023 0.08539 0.58739 0.0
Li883 Li 0.19401 0.10494 0.60594 0.0
C884 C 0.2176 0.07473 0.62627 0.0
N885 N 0.23364 0.06135 0.64892 0.0
C886 C 0.21602 0.07229 0.65037 0.0
C887 C 0.22735 0.07035 0.61373 0.0
C888 C 0.22421 0.0655 0.66148 0.0
C889 C 0.23537 0.06363 0.62549 0.0
C890 C 0.20015 0.11779 0.64687 0.0
C891 C 0.18298 0.12759 0.66143 0.0
N892 N 0.19603 0.1427 0.66302 0.0
C893 C 0.2134 0.13338 0.6488 0.0
C894 C 0.18482 0.11483 0.65338 0.0
C895 C 0.21107 0.14582 0.65696 0.0
C896 C 0.24923 0.13296 0.61539 0.0
N897 N 0.2404 0.11835 0.62595 0.0
C898 C 0.26346 0.12253 0.64774 0.0
C899 C 0.24711 0.11326 0.64233 0.0
C900 C 0.27299 0.13736 0.63649 0.0
C901 C 0.26564 0.1427 0.62038 0.0
H902 H 0.24356 0.13704 0.60295 0.0
H903 H 0.23985 0.10205 0.65132 0.0
C904 C 0.17557 0.05134 0.64454 0.0
N905 N 0.17898 0.06651 0.6502 0.0
C906 C 0.16793 0.0388 0.66052 0.0
C907 C 0.16712 0.05765 0.68778 0.0
C908 C 0.1748 0.06988 0.67119 0.0
C909 C 0.16386 0.04193 0.68264 0.0
H910 H 0.17918 0.04909 0.62775 0.0
H911 H 0.17783 0.08211 0.67528 0.0
C912 C 0.22486 0.11412 0.56987 0.0
N913 N 0.24935 0.12345 0.5376 0.0
C914 C 0.22743 0.12577 0.55314 0.0
C915 C 0.23469 0.10717 0.57017 0.0
C916 C 0.23989 0.13034 0.53697 0.0
C917 C 0.24703 0.11206 0.55373 0.0
C918 C 0.16453 0.06863 0.60281 0.0
C919 C 0.1603 0.05416 0.59133 0.0
C920 C 0.15375 0.06924 0.61864 0.0
C921 C 0.14542 0.04047 0.59613 0.0
C922 C 0.13899 0.05529 0.62299 0.0
N923 N 0.13517 0.04131 0.61175 0.0
C924 C 0.19971 0.06018 0.56175 0.0
C925 C 0.19592 0.07884 0.53931 0.0
C926 C 0.19718 0.05056 0.5422 0.0
N927 N 0.19893 0.07392 0.55997 0.0
C928 C 0.19315 0.0695 0.51932 0.0
C929 C 0.19357 0.05505 0.52072 0.0
H930 H 0.20164 0.05634 0.57855 0.0
H931 H 0.19519 0.08976 0.53855 0.0
C932 C 0.19621 0.1348 0.59553 0.0
N933 N 0.18578 0.11871 0.59815 0.0
C934 C 0.19092 0.14471 0.58575 0.0
C935 C 0.16422 0.12135 0.58208 0.0
C936 C 0.16998 0.11194 0.59214 0.0
C937 C 0.17486 0.13786 0.57821 0.0
H938 H 0.20882 0.13975 0.5999 0.0
H939 H 0.16204 0.09908 0.59396 0.0
O940 O 0.20934 0.08098 0.6149 0.0
O941 O 0.20216 0.10552 0.63856 0.0
O942 O 0.21263 0.10948 0.58569 0.0
O943 O 0.17918 0.08209 0.59867 0.0
H944 H 0.20889 0.07595 0.66052 0.0
H945 H 0.22874 0.07212 0.59509 0.0
H946 H 0.22315 0.06363 0.68012 0.0
H947 H 0.24295 0.0602 0.61599 0.0
H948 H 0.17117 0.1255 0.66638 0.0
H949 H 0.22535 0.13587 0.64391 0.0
H950 H 0.17445 0.10283 0.65203 0.0
H951 H 0.2212 0.15797 0.65843 0.0
H952 H 0.26858 0.11818 0.66075 0.0
H953 H 0.27255 0.15412 0.61141 0.0
H954 H 0.16546 0.02682 0.65573 0.0
H955 H 0.16433 0.0606 0.70473 0.0
H956 H 0.21988 0.13122 0.55267 0.0
H957 H 0.23288 0.09818 0.58302 0.0
H958 H 0.24204 0.13935 0.52392 0.0
H959 H 0.25475 0.10681 0.55379 0.0
H960 H 0.16844 0.05346 0.57897 0.0
H961 H 0.15681 0.08033 0.62768 0.0
H962 H 0.14203 0.02917 0.58746 0.0
H963 H 0.13059 0.05556 0.63533 0.0
H964 H 0.19727 0.03934 0.54412 0.0
H965 H 0.19041 0.07335 0.50306 0.0
H966 H 0.19952 0.15735 0.58272 0.0
H967 H 0.15175 0.11567 0.57647 0.0
Li968 Li 0.89239 0.1136 0.61965 0.0
Li969 Li 0.91375 0.10852 0.63265 0.0
Li970 Li 0.91155 0.11438 0.59186 0.0
Li971 Li 0.89202 0.08868 0.6096 0.0
C972 C 0.91757 0.1426 0.62703 0.0
N973 N 0.91928 0.17038 0.64428 0.0
C974 C 0.92297 0.14767 0.64975 0.0
C975 C 0.91311 0.1517 0.61305 0.0
C976 C 0.92375 0.16176 0.65814 0.0
C977 C 0.91402 0.16568 0.62212 0.0
C978 C 0.87804 0.08309 0.65034 0.0
C979 C 0.86669 0.05619 0.66606 0.0
N980 N 0.852 0.05515 0.66725 0.0
C981 C 0.86285 0.08178 0.6518 0.0
C982 C 0.88002 0.07024 0.65763 0.0
C983 C 0.84983 0.06754 0.66038 0.0
C984 C 0.8685 0.12233 0.6126 0.0
N985 N 0.87936 0.12259 0.62812 0.0
C986 C 0.87218 0.13644 0.65599 0.0
C987 C 0.8811 0.12913 0.64968 0.0
C988 C 0.86107 0.13657 0.64018 0.0
C989 C 0.8591 0.12923 0.61835 0.0
H990 H 0.86718 0.11679 0.59574 0.0
H991 H 0.88953 0.12879 0.66187 0.0
C992 C 0.94444 0.12451 0.65235 0.0
N993 N 0.92911 0.11242 0.65636 0.0
C994 C 0.95655 0.128 0.66864 0.0
C995 C 0.93682 0.10665 0.69309 0.0
C996 C 0.92507 0.10353 0.67624 0.0
C997 C 0.95282 0.11902 0.68935 0.0
H998 H 0.94724 0.13145 0.63644 0.0
H999 H 0.91276 0.09402 0.67898 0.0
C1000 C 0.8861 0.10374 0.56583 0.0
N1001 N 0.88446 0.10618 0.51809 0.0
C1002 C 0.8834 0.09081 0.55152 0.0
C1003 C 0.8879 0.11789 0.55587 0.0
C1004 C 0.88261 0.09228 0.52742 0.0
C1005 C 0.88706 0.11889 0.5317 0.0
C1006 C 0.9283 0.09588 0.60984 0.0
C1007 C 0.94342 0.10697 0.60077 0.0
C1008 C 0.92692 0.08392 0.62522 0.0
C1009 C 0.95695 0.10595 0.60734 0.0
C1010 C 0.94074 0.08333 0.63139 0.0
N1011 N 0.95534 0.09426 0.6224 0.0
C1012 C 0.93173 0.14023 0.56163 0.0
C1013 C 0.92506 0.11409 0.54867 0.0
C1014 C 0.94189 0.14727 0.54251 0.0
N1015 N 0.92372 0.12395 0.56443 0.0
C1016 C 0.93512 0.1206 0.52934 0.0
C1017 C 0.94393 0.13743 0.52627 0.0
H1018 H 0.9306 0.1478 0.57456 0.0
H1019 H 0.91872 0.10119 0.55157 0.0
C1020 C 0.86217 0.06079 0.60066 0.0
N1021 N 0.87829 0.06651 0.60267 0.0
C1022 C 0.85201 0.04521 0.59229 0.0
C1023 C 0.87522 0.04165 0.58862 0.0
C1024 C 0.88491 0.05726 0.59716 0.0
C1025 C 0.85857 0.03555 0.58559 0.0
H1026 H 0.85731 0.06856 0.60467 0.0
H1027 H 0.89782 0.06227 0.59831 0.0
O1028 O 0.91652 0.12873 0.61859 0.0
O1029 O 0.8909 0.09683 0.6417 0.0
O1030 O 0.8873 0.1027 0.58942 0.0
O1031 O 0.91498 0.09693 0.6041 0.0
H1032 H 0.92635 0.14073 0.66089 0.0
H1033 H 0.90872 0.14786 0.59554 0.0
H1034 H 0.92784 0.16579 0.67572 0.0
H1035 H 0.91048 0.17277 0.61156 0.0
H1036 H 0.86802 0.04611 0.67162 0.0
H1037 H 0.86109 0.09159 0.6462 0.0
H1038 H 0.89168 0.07102 0.65649 0.0
H1039 H 0.83798 0.06633 0.66152 0.0
H1040 H 0.87383 0.1418 0.67311 0.0
H1041 H 0.85062 0.12911 0.60575 0.0
H1042 H 0.96864 0.13783 0.66522 0.0
H1043 H 0.93346 0.09938 0.70876 0.0
H1044 H 0.8821 0.07982 0.55888 0.0
H1045 H 0.89011 0.12805 0.56668 0.0
H1046 H 0.8806 0.08239 0.51613 0.0
H1047 H 0.88853 0.1298 0.52375 0.0
H1048 H 0.94476 0.11641 0.58905 0.0
H1049 H 0.91534 0.07534 0.63258 0.0
H1050 H 0.96873 0.11451 0.60055 0.0
H1051 H 0.93986 0.07421 0.6434 0.0
H1052 H 0.94831 0.16028 0.54071 0.0
H1053 H 0.93651 0.11256 0.51752 0.0
H1054 H 0.83924 0.04097 0.59042 0.0
H1055 H 0.88088 0.03479 0.58325 0.0
Li1056 Li 0.86128 0.42306 0.44148 0.0
Li1057 Li 0.88635 0.44736 0.45497 0.0
Li1058 Li 0.85925 0.44196 0.46749 0.0
Li1059 Li 0.86816 0.44942 0.42796 0.0
C1060 C 0.86037 0.41669 0.48923 0.0
N1061 N 0.84145 0.39222 0.51997 0.0
C1062 C 0.86741 0.41357 0.50838 0.0
C1063 C 0.84371 0.40737 0.48571 0.0
C1064 C 0.85764 0.40114 0.52372 0.0
C1065 C 0.83436 0.39505 0.50145 0.0
C1066 C 0.88366 0.44026 0.39993 0.0
C1067 C 0.89797 0.45746 0.36738 0.0
N1068 N 0.88897 0.44508 0.35256 0.0
C1069 C 0.87461 0.42768 0.38438 0.0
C1070 C 0.89551 0.45525 0.39139 0.0
C1071 C 0.87746 0.43036 0.36049 0.0
C1072 C 0.83857 0.39414 0.4204 0.0
N1073 N 0.85246 0.4012 0.43294 0.0
C1074 C 0.85515 0.3778 0.4291 0.0
C1075 C 0.86067 0.39335 0.43773 0.0
C1076 C 0.84109 0.37036 0.41542 0.0
C1077 C 0.83261 0.37863 0.41147 0.0
H1078 H 0.8325 0.40082 0.41655 0.0
H1079 H 0.87175 0.39937 0.44767 0.0
C1080 C 0.91126 0.45818 0.48793 0.0
N1081 N 0.90789 0.45556 0.46482 0.0
C1082 C 0.92718 0.46502 0.49571 0.0
C1083 C 0.93577 0.46633 0.45575 0.0
C1084 C 0.91967 0.45918 0.44879 0.0
C1085 C 0.93964 0.46939 0.47945 0.0
H1086 H 0.90159 0.45515 0.50023 0.0
H1087 H 0.9166 0.45681 0.43057 0.0
C1088 C 0.83517 0.43643 0.43601 0.0
N1089 N 0.81199 0.44542 0.43096 0.0
C1090 C 0.83924 0.45253 0.4391 0.0
C1091 C 0.81929 0.42491 0.43036 0.0
C1092 C 0.82737 0.45683 0.43647 0.0
C1093 C 0.80775 0.42968 0.42789 0.0
C1094 C 0.88674 0.47867 0.45588 0.0
C1095 C 0.88038 0.48791 0.4649 0.0
C1096 C 0.90235 0.48641 0.44663 0.0
C1097 C 0.88971 0.50473 0.46433 0.0
C1098 C 0.9113 0.50327 0.4464 0.0
N1099 N 0.90484 0.512 0.45517 0.0
C1100 C 0.85755 0.45701 0.50787 0.0
C1101 C 0.83189 0.43664 0.49462 0.0
C1102 C 0.8504 0.46164 0.52507 0.0
N1103 N 0.84825 0.44502 0.49273 0.0
C1104 C 0.8242 0.44089 0.51158 0.0
C1105 C 0.83349 0.45383 0.5267 0.0
H1106 H 0.87055 0.46334 0.50605 0.0
H1107 H 0.82476 0.42704 0.4825 0.0
C1108 C 0.85556 0.45018 0.38464 0.0
N1109 N 0.8662 0.46014 0.40092 0.0
C1110 C 0.8525 0.45652 0.36468 0.0
C1111 C 0.87149 0.48331 0.37846 0.0
C1112 C 0.87426 0.47644 0.39808 0.0
C1113 C 0.86035 0.47331 0.36158 0.0
H1114 H 0.84923 0.43726 0.38738 0.0
H1115 H 0.88267 0.4842 0.41105 0.0
O1116 O 0.86981 0.42886 0.47414 0.0
O1117 O 0.88079 0.43797 0.42336 0.0
O1118 O 0.84656 0.43186 0.43858 0.0
O1119 O 0.87783 0.46216 0.45662 0.0
H1120 H 0.88029 0.4207 0.51134 0.0
H1121 H 0.83803 0.40959 0.471 0.0
H1122 H 0.86292 0.39859 0.53863 0.0
H1123 H 0.82145 0.38775 0.49894 0.0
H1124 H 0.907 0.46904 0.36053 0.0
H1125 H 0.86542 0.416 0.39063 0.0
H1126 H 0.90254 0.46517 0.40312 0.0
H1127 H 0.87049 0.42076 0.34826 0.0
H1128 H 0.86198 0.3718 0.43269 0.0
H1129 H 0.8219 0.3735 0.40067 0.0
H1130 H 0.92979 0.46728 0.51413 0.0
H1131 H 0.94509 0.46943 0.44278 0.0
H1132 H 0.85142 0.46162 0.44343 0.0
H1133 H 0.81588 0.41237 0.42804 0.0
H1134 H 0.83038 0.46926 0.4388 0.0
H1135 H 0.79541 0.42087 0.42355 0.0
H1136 H 0.86836 0.48216 0.47224 0.0
H1137 H 0.90745 0.47953 0.43944 0.0
H1138 H 0.88492 0.51202 0.47119 0.0
H1139 H 0.92337 0.5094 0.43919 0.0
H1140 H 0.85803 0.47146 0.53666 0.0
H1141 H 0.81114 0.43457 0.51218 0.0
H1142 H 0.84365 0.44839 0.35224 0.0
H1143 H 0.87787 0.49633 0.37661 0.0
Li1144 Li 0.57264 0.43827 0.44099 0.0
Li1145 Li 0.54825 0.43734 0.45515 0.0
Li1146 Li 0.55425 0.41692 0.46705 0.0
Li1147 Li 0.54617 0.41837 0.42684 0.0
C1148 C 0.57628 0.45595 0.48133 0.0
N1149 N 0.59461 0.48762 0.49592 0.0
C1150 C 0.57864 0.4686 0.46659 0.0
C1151 C 0.58323 0.45944 0.5035 0.0
C1152 C 0.58794 0.48452 0.47429 0.0
C1153 C 0.59247 0.47553 0.51055 0.0
C1154 C 0.55305 0.44436 0.4013 0.0
C1155 C 0.53283 0.43939 0.37229 0.0
N1156 N 0.5447 0.44833 0.35671 0.0
C1157 C 0.56503 0.45366 0.38507 0.0
C1158 C 0.53681 0.43733 0.39494 0.0
C1159 C 0.56057 0.45547 0.3626 0.0
C1160 C 0.59642 0.44728 0.40831 0.0
N1161 N 0.59441 0.4502 0.43083 0.0
C1162 C 0.62281 0.46798 0.43515 0.0
C1163 C 0.60721 0.46014 0.44445 0.0
C1164 C 0.6252 0.46537 0.41175 0.0
C1165 C 0.61172 0.45486 0.39832 0.0
H1166 H 0.58604 0.439 0.39811 0.0
H1167 H 0.60541 0.46186 0.46255 0.0
C1168 C 0.53945 0.45314 0.48891 0.0
N1169 N 0.53915 0.44996 0.46579 0.0
C1170 C 0.53269 0.46219 0.49713 0.0
C1171 C 0.52531 0.46436 0.45761 0.0
C1172 C 0.53232 0.45541 0.45017 0.0
C1173 C 0.52547 0.46793 0.48138 0.0
H1174 H 0.54492 0.44861 0.50099 0.0
H1175 H 0.5322 0.45272 0.43193 0.0
C1176 C 0.57556 0.41101 0.44171 0.0
N1177 N 0.59941 0.40337 0.4499 0.0
C1178 C 0.57738 0.40052 0.42675 0.0
C1179 C 0.58588 0.41765 0.46081 0.0
C1180 C 0.58952 0.3968 0.4312 0.0
C1181 C 0.59786 0.41363 0.46466 0.0
C1182 C 0.52066 0.41292 0.46738 0.0
C1183 C 0.52039 0.41238 0.4917 0.0
C1184 C 0.50814 0.41327 0.45533 0.0
C1185 C 0.50765 0.41237 0.5036 0.0
C1186 C 0.49562 0.41326 0.46788 0.0
N1187 N 0.49564 0.41283 0.49155 0.0
C1188 C 0.55808 0.40686 0.51215 0.0
C1189 C 0.54398 0.38621 0.48425 0.0
C1190 C 0.55547 0.39538 0.5292 0.0
N1191 N 0.55219 0.40205 0.49029 0.0
C1192 C 0.54111 0.37434 0.5007 0.0
C1193 C 0.54672 0.37885 0.52361 0.0
H1194 H 0.56455 0.41957 0.5164 0.0
H1195 H 0.5394 0.38282 0.4667 0.0
C1196 C 0.54414 0.40759 0.3808 0.0
N1197 N 0.53555 0.40524 0.40071 0.0
C1198 C 0.53724 0.3971 0.362 0.0
C1199 C 0.51281 0.38201 0.38459 0.0
C1200 C 0.52011 0.39291 0.40286 0.0
C1201 C 0.52151 0.38391 0.36399 0.0
H1202 H 0.55651 0.41735 0.37981 0.0
H1203 H 0.51368 0.39124 0.41904 0.0
O1204 O 0.56714 0.44021 0.47439 0.0
O1205 O 0.55723 0.44238 0.42336 0.0
O1206 O 0.56383 0.41487 0.4374 0.0
O1207 O 0.53328 0.41343 0.45546 0.0
H1208 H 0.57339 0.46623 0.44939 0.0
H1209 H 0.58153 0.44982 0.51514 0.0
H1210 H 0.58986 0.4944 0.46306 0.0
H1211 H 0.59793 0.47839 0.52766 0.0
H1212 H 0.52031 0.43387 0.36709 0.0
H1213 H 0.57765 0.45956 0.38981 0.0
H1214 H 0.52737 0.43012 0.40726 0.0
H1215 H 0.56973 0.46259 0.34986 0.0
H1216 H 0.6329 0.47576 0.44623 0.0
H1217 H 0.61291 0.45261 0.38015 0.0
H1218 H 0.53328 0.46478 0.51556 0.0
H1219 H 0.51964 0.46826 0.44486 0.0
H1220 H 0.56952 0.39534 0.41184 0.0
H1221 H 0.58471 0.42587 0.47251 0.0
H1222 H 0.59107 0.38869 0.41976 0.0
H1223 H 0.60593 0.41869 0.47936 0.0
H1224 H 0.53003 0.41222 0.5013 0.0
H1225 H 0.50814 0.41365 0.43651 0.0
H1226 H 0.50734 0.41207 0.52243 0.0
H1227 H 0.48591 0.41363 0.45879 0.0
H1228 H 0.56014 0.39938 0.54659 0.0
H1229 H 0.5341 0.36177 0.49569 0.0
H1230 H 0.54441 0.39881 0.34654 0.0
H1231 H 0.50065 0.37197 0.38673 0.0
Li1232 Li 0.58142 0.12966 0.43189 0.0
Li1233 Li 0.58177 0.13843 0.47115 0.0
Li1234 Li 0.56037 0.11141 0.45774 0.0
Li1235 Li 0.56161 0.13666 0.44358 0.0
C1236 C 0.59158 0.11123 0.46034 0.0
N1237 N 0.60749 0.09379 0.45953 0.0
C1238 C 0.60722 0.11792 0.4693 0.0
C1239 C 0.58398 0.09559 0.45121 0.0
C1240 C 0.61508 0.10894 0.46865 0.0
C1241 C 0.59223 0.08698 0.4509 0.0
C1242 C 0.60099 0.16286 0.44025 0.0
C1243 C 0.6212 0.19054 0.43269 0.0
N1244 N 0.63296 0.18678 0.43653 0.0
C1245 C 0.61328 0.15928 0.44414 0.0
C1246 C 0.60496 0.17862 0.43448 0.0
C1247 C 0.62936 0.17153 0.44217 0.0
C1248 C 0.59522 0.14237 0.38912 0.0
N1249 N 0.59481 0.13198 0.40563 0.0
C1250 C 0.61368 0.12768 0.38403 0.0
C1251 C 0.60368 0.12453 0.40335 0.0
C1252 C 0.61448 0.13853 0.36688 0.0
C1253 C 0.60493 0.14577 0.36946 0.0
H1254 H 0.58814 0.14823 0.39145 0.0
H1255 H 0.60324 0.11632 0.41652 0.0
C1256 C 0.59837 0.141 0.51239 0.0
N1257 N 0.59514 0.14972 0.49686 0.0
C1258 C 0.60946 0.14875 0.53029 0.0
C1259 C 0.61323 0.17428 0.5164 0.0
C1260 C 0.60203 0.16602 0.49879 0.0
C1261 C 0.61727 0.16565 0.53221 0.0
H1262 H 0.59267 0.12804 0.51041 0.0
H1263 H 0.59914 0.17267 0.48635 0.0
C1264 C 0.55743 0.1139 0.40253 0.0
N1265 N 0.55793 0.10773 0.35561 0.0
C1266 C 0.55354 0.12214 0.38601 0.0
C1267 C 0.56137 0.10236 0.39517 0.0
C1268 C 0.5539 0.11888 0.36238 0.0
C1269 C 0.56162 0.09947 0.37138 0.0
C1270 C 0.55478 0.13722 0.49113 0.0
C1271 C 0.54461 0.13006 0.51022 0.0
C1272 C 0.56177 0.15383 0.48744 0.0
C1273 C 0.54156 0.13967 0.52535 0.0
C1274 C 0.55843 0.16303 0.50296 0.0
N1275 N 0.54848 0.15582 0.52144 0.0
C1276 C 0.54524 0.08599 0.48991 0.0
C1277 C 0.53865 0.07835 0.45041 0.0
C1278 C 0.53571 0.06997 0.49706 0.0
N1279 N 0.5466 0.08979 0.46693 0.0
C1280 C 0.52922 0.06217 0.45672 0.0
C1281 C 0.52769 0.05774 0.48034 0.0
H1282 H 0.55166 0.09541 0.50264 0.0
H1283 H 0.53992 0.08175 0.43226 0.0
C1284 C 0.557 0.15843 0.41786 0.0
N1285 N 0.54954 0.1462 0.43343 0.0
C1286 C 0.54871 0.16546 0.40799 0.0
C1287 C 0.52529 0.14748 0.43088 0.0
C1288 C 0.53406 0.14072 0.44027 0.0
C1289 C 0.53257 0.15991 0.41428 0.0
H1290 H 0.56924 0.16231 0.4125 0.0
H1291 H 0.52846 0.13093 0.45268 0.0
O1292 O 0.58365 0.11982 0.46108 0.0
O1293 O 0.58512 0.15109 0.44217 0.0
O1294 O 0.55747 0.11719 0.42575 0.0
O1295 O 0.5579 0.12794 0.47626 0.0
H1296 H 0.61325 0.12994 0.47669 0.0
H1297 H 0.5719 0.09016 0.4443 0.0
H1298 H 0.6272 0.114 0.47544 0.0
H1299 H 0.58651 0.0749 0.44377 0.0
H1300 H 0.62444 0.20279 0.42826 0.0
H1301 H 0.61044 0.14718 0.44856 0.0
H1302 H 0.5956 0.18162 0.43153 0.0
H1303 H 0.63898 0.1689 0.44512 0.0
H1304 H 0.6208 0.12179 0.38258 0.0
H1305 H 0.60537 0.15438 0.35682 0.0
H1306 H 0.61232 0.14164 0.54194 0.0
H1307 H 0.6188 0.18729 0.51747 0.0
H1308 H 0.55031 0.13099 0.39134 0.0
H1309 H 0.56448 0.0959 0.40765 0.0
H1310 H 0.55099 0.12524 0.34942 0.0
H1311 H 0.56481 0.09069 0.36545 0.0
H1312 H 0.53913 0.11721 0.51332 0.0
H1313 H 0.56969 0.15959 0.47278 0.0
H1314 H 0.53371 0.1343 0.54021 0.0
H1315 H 0.56376 0.17589 0.50032 0.0
H1316 H 0.53467 0.06723 0.51549 0.0
H1317 H 0.52354 0.05323 0.44313 0.0
H1318 H 0.55473 0.17472 0.39488 0.0
H1319 H 0.51292 0.14292 0.43636 0.0
Li1320 Li 0.75705 0.53024 0.72299 0.0
Li1321 Li 0.78242 0.55464 0.70999 0.0
Li1322 Li 0.77603 0.5271 0.69839 0.0
Li1323 Li 0.78282 0.53613 0.738 0.0
C1324 C 0.75184 0.52928 0.6749 0.0
N1325 N 0.72766 0.5108 0.64354 0.0
C1326 C 0.74954 0.53644 0.65518 0.0
C1327 C 0.74186 0.51272 0.67868 0.0
C1328 C 0.73723 0.52689 0.63952 0.0
C1329 C 0.7297 0.50359 0.66262 0.0
C1330 C 0.77498 0.55391 0.76404 0.0
C1331 C 0.79281 0.57023 0.79485 0.0
N1332 N 0.78076 0.56218 0.81057 0.0
C1333 C 0.76271 0.54591 0.78046 0.0
C1334 C 0.79011 0.56628 0.77124 0.0
C1335 C 0.76589 0.55023 0.80391 0.0
C1336 C 0.72935 0.50992 0.74741 0.0
N1337 N 0.73516 0.52178 0.73111 0.0
C1338 C 0.7102 0.52181 0.73047 0.0
C1339 C 0.72596 0.52771 0.72236 0.0
C1340 C 0.70399 0.50979 0.74779 0.0
C1341 C 0.71378 0.50375 0.75607 0.0
H1342 H 0.73709 0.50568 0.7543 0.0
H1343 H 0.73096 0.53721 0.70943 0.0
C1344 C 0.80058 0.58047 0.67978 0.0
N1345 N 0.79193 0.57624 0.69987 0.0
C1346 C 0.80822 0.59645 0.67208 0.0
C1347 C 0.79779 0.60332 0.70589 0.0
C1348 C 0.79036 0.58721 0.71292 0.0
C1349 C 0.80691 0.60813 0.68525 0.0
H1350 H 0.80167 0.57143 0.66989 0.0
H1351 H 0.78337 0.58344 0.72883 0.0
C1352 C 0.76817 0.5027 0.73076 0.0
N1353 N 0.77447 0.47784 0.73827 0.0
C1354 C 0.78391 0.50545 0.72879 0.0
C1355 C 0.75562 0.48729 0.73654 0.0
C1356 C 0.78686 0.49274 0.73266 0.0
C1357 C 0.75906 0.47488 0.74026 0.0
C1358 C 0.81286 0.5531 0.71182 0.0
C1359 C 0.8215 0.54565 0.70455 0.0
C1360 C 0.82118 0.56886 0.72051 0.0
C1361 C 0.83831 0.554 0.70647 0.0
C1362 C 0.83799 0.57681 0.72213 0.0
N1363 N 0.84614 0.56927 0.71517 0.0
C1364 C 0.79109 0.52442 0.65878 0.0
C1365 C 0.7698 0.49918 0.67186 0.0
C1366 C 0.79499 0.51688 0.64126 0.0
N1367 N 0.77886 0.51551 0.67382 0.0
C1368 C 0.77334 0.49111 0.65461 0.0
C1369 C 0.78621 0.49998 0.6392 0.0
H1370 H 0.79806 0.5374 0.6608 0.0
H1371 H 0.76001 0.49238 0.68388 0.0
C1372 C 0.78112 0.52357 0.78188 0.0
N1373 N 0.79216 0.53344 0.76594 0.0
C1374 C 0.78605 0.51926 0.80214 0.0
C1375 C 0.81372 0.53547 0.78945 0.0
C1376 C 0.80824 0.53962 0.7695 0.0
C1377 C 0.80253 0.52492 0.80592 0.0
H1378 H 0.76839 0.5187 0.77852 0.0
H1379 H 0.81685 0.54734 0.75665 0.0
O1380 O 0.76388 0.5385 0.6903 0.0
O1381 O 0.77219 0.54963 0.74105 0.0
O1382 O 0.76494 0.51495 0.72708 0.0
O1383 O 0.7964 0.54513 0.70983 0.0
H1384 H 0.75719 0.54924 0.65201 0.0
H1385 H 0.74345 0.50694 0.69382 0.0
H1386 H 0.73531 0.53227 0.62418 0.0
H1387 H 0.72189 0.49076 0.66533 0.0
H1388 H 0.80451 0.5797 0.80068 0.0
H1389 H 0.7509 0.5364 0.77521 0.0
H1390 H 0.79969 0.57269 0.75878 0.0
H1391 H 0.75654 0.54406 0.81682 0.0
H1392 H 0.70304 0.52672 0.72348 0.0
H1393 H 0.70971 0.49479 0.76977 0.0
H1394 H 0.81529 0.59967 0.65623 0.0
H1395 H 0.79629 0.61188 0.7164 0.0
H1396 H 0.79374 0.51727 0.72441 0.0
H1397 H 0.74335 0.48492 0.73804 0.0
H1398 H 0.79899 0.49473 0.73122 0.0
H1399 H 0.74946 0.46289 0.74473 0.0
H1400 H 0.81531 0.53355 0.69747 0.0
H1401 H 0.81476 0.57492 0.72594 0.0
H1402 H 0.84514 0.54835 0.701 0.0
H1403 H 0.84457 0.58898 0.7289 0.0
H1404 H 0.80513 0.52418 0.62994 0.0
H1405 H 0.76615 0.47808 0.65343 0.0
H1406 H 0.77699 0.51132 0.81448 0.0
H1407 H 0.82652 0.53997 0.79141 0.0
Li1408 Li 0.47064 0.24961 0.69671 0.0
Li1409 Li 0.4609 0.24747 0.73666 0.0
Li1410 Li 0.46764 0.22784 0.72082 0.0
Li1411 Li 0.44373 0.22842 0.70795 0.0
C1412 C 0.49673 0.26427 0.722 0.0
N1413 N 0.52581 0.29156 0.71174 0.0
C1414 C 0.50028 0.27925 0.73108 0.0
C1415 C 0.50801 0.26315 0.70781 0.0
C1416 C 0.51505 0.29291 0.72568 0.0
C1417 C 0.52262 0.27709 0.70278 0.0
C1418 C 0.44035 0.25317 0.69794 0.0
C1419 C 0.41402 0.25072 0.69945 0.0
N1420 N 0.41482 0.2536 0.67615 0.0
C1421 C 0.44094 0.25614 0.67403 0.0
C1422 C 0.42683 0.2505 0.71079 0.0
C1423 C 0.4279 0.25631 0.66334 0.0
C1424 C 0.48892 0.26152 0.65448 0.0
N1425 N 0.48302 0.26514 0.67365 0.0
C1426 C 0.49478 0.29265 0.66178 0.0
C1427 C 0.4857 0.2803 0.67749 0.0
C1428 C 0.50109 0.28936 0.64178 0.0
C1429 C 0.49805 0.27354 0.63818 0.0
H1430 H 0.48653 0.24933 0.65183 0.0
H1431 H 0.48071 0.28275 0.69283 0.0
C1432 C 0.47146 0.25951 0.78168 0.0
N1433 N 0.46273 0.25998 0.76333 0.0
C1434 C 0.47488 0.26997 0.80046 0.0
C1435 C 0.46011 0.28108 0.78119 0.0
C1436 C 0.45687 0.27031 0.76285 0.0
C1437 C 0.4695 0.2812 0.80009 0.0
H1438 H 0.47632 0.25145 0.78127 0.0
H1439 H 0.45026 0.27065 0.74782 0.0
C1440 C 0.46129 0.21406 0.68 0.0
N1441 N 0.46439 0.18833 0.66488 0.0
C1442 C 0.44767 0.19869 0.67814 0.0
C1443 C 0.47647 0.21636 0.67406 0.0
C1444 C 0.4495 0.18583 0.67046 0.0
C1445 C 0.47779 0.20319 0.66651 0.0
C1446 C 0.44489 0.22184 0.76255 0.0
C1447 C 0.453 0.21684 0.77765 0.0
C1448 C 0.4336 0.22565 0.77151 0.0
C1449 C 0.44971 0.21577 0.80149 0.0
C1450 C 0.43068 0.22446 0.79546 0.0
N1451 N 0.43872 0.21958 0.80983 0.0
C1452 C 0.4917 0.22168 0.73704 0.0
C1453 C 0.46629 0.19815 0.73093 0.0
C1454 C 0.49773 0.21255 0.74722 0.0
N1455 N 0.47617 0.21442 0.72952 0.0
C1456 C 0.47187 0.18852 0.7409 0.0
C1457 C 0.48764 0.19581 0.7498 0.0
H1458 H 0.49918 0.23465 0.73618 0.0
H1459 H 0.45385 0.19277 0.72543 0.0
C1460 C 0.41906 0.215 0.67422 0.0
N1461 N 0.42207 0.21601 0.69747 0.0
C1462 C 0.4032 0.20686 0.66603 0.0
C1463 C 0.39389 0.20079 0.70588 0.0
C1464 C 0.40992 0.20895 0.71327 0.0
C1465 C 0.39038 0.19977 0.68199 0.0
H1466 H 0.42901 0.22076 0.66207 0.0
H1467 H 0.41267 0.2098 0.73161 0.0
O1468 O 0.48216 0.25082 0.72657 0.0
O1469 O 0.45279 0.2525 0.70861 0.0
O1470 O 0.45978 0.22676 0.68773 0.0
O1471 O 0.44807 0.22315 0.73916 0.0
H1472 H 0.49167 0.28039 0.74194 0.0
H1473 H 0.5054 0.25168 0.70048 0.0
H1474 H 0.51792 0.30459 0.73249 0.0
H1475 H 0.53141 0.27642 0.69169 0.0
H1476 H 0.40342 0.24854 0.70914 0.0
H1477 H 0.45123 0.25807 0.66376 0.0
H1478 H 0.4261 0.24801 0.72927 0.0
H1479 H 0.42815 0.25851 0.64483 0.0
H1480 H 0.49656 0.30459 0.66503 0.0
H1481 H 0.50275 0.27052 0.62303 0.0
H1482 H 0.48241 0.26989 0.81447 0.0
H1483 H 0.45574 0.28956 0.78028 0.0
H1484 H 0.43584 0.19667 0.68278 0.0
H1485 H 0.48714 0.22815 0.67556 0.0
H1486 H 0.43908 0.17386 0.66902 0.0
H1487 H 0.48948 0.20477 0.66199 0.0
H1488 H 0.46183 0.21393 0.77113 0.0
H1489 H 0.4274 0.22979 0.76016 0.0
H1490 H 0.45593 0.21196 0.81338 0.0
H1491 H 0.42207 0.22748 0.80263 0.0
H1492 H 0.50999 0.21859 0.7538 0.0
H1493 H 0.46365 0.17569 0.74288 0.0
H1494 H 0.40098 0.20643 0.64748 0.0
H1495 H 0.38435 0.19526 0.71871 0.0
Li1496 Li 0.77091 0.21694 0.71208 0.0
Li1497 Li 0.77299 0.24259 0.72229 0.0
Li1498 Li 0.75333 0.2175 0.74133 0.0
Li1499 Li 0.74997 0.22301 0.70077 0.0
C1500 C 0.77975 0.22772 0.76552 0.0
N1501 N 0.78353 0.22652 0.81306 0.0
C1502 C 0.78592 0.24179 0.77887 0.0
C1503 C 0.77554 0.21304 0.77637 0.0
C1504 C 0.78775 0.24094 0.80288 0.0
C1505 C 0.77752 0.21268 0.80042 0.0
C1506 C 0.78463 0.24747 0.68009 0.0
C1507 C 0.79462 0.27398 0.66358 0.0
N1508 N 0.80931 0.27526 0.66044 0.0
C1509 C 0.79983 0.24904 0.67669 0.0
C1510 C 0.78199 0.26001 0.67344 0.0
C1511 C 0.81214 0.26319 0.66672 0.0
C1512 C 0.78425 0.20526 0.67891 0.0
N1513 N 0.78243 0.2066 0.70213 0.0
C1514 C 0.79631 0.19232 0.71096 0.0
C1515 C 0.78833 0.20042 0.71814 0.0
C1516 C 0.79847 0.19086 0.68711 0.0
C1517 C 0.79241 0.1975 0.67095 0.0
H1518 H 0.77931 0.2102 0.66658 0.0
H1519 H 0.78676 0.20169 0.73646 0.0
C1520 C 0.78124 0.27399 0.73606 0.0
N1521 N 0.78743 0.26479 0.72829 0.0
C1522 C 0.79147 0.28957 0.74431 0.0
C1523 C 0.81431 0.28617 0.73549 0.0
C1524 C 0.80361 0.27059 0.72762 0.0
C1525 C 0.80826 0.29574 0.74462 0.0
H1526 H 0.76832 0.26892 0.73702 0.0
H1527 H 0.80818 0.26284 0.72197 0.0
C1528 C 0.74547 0.18902 0.70519 0.0
N1529 N 0.74386 0.16198 0.68518 0.0
C1530 C 0.74252 0.18616 0.68134 0.0
C1531 C 0.74757 0.17812 0.71888 0.0
C1532 C 0.74173 0.17241 0.67156 0.0
C1533 C 0.74673 0.16453 0.70843 0.0
C1534 C 0.73707 0.2367 0.72519 0.0
C1535 C 0.72222 0.22577 0.73518 0.0
C1536 C 0.73816 0.24885 0.71048 0.0
C1537 C 0.70866 0.22714 0.73016 0.0
C1538 C 0.72432 0.2498 0.70587 0.0
N1539 N 0.70998 0.23902 0.71571 0.0
C1540 C 0.74326 0.21983 0.78603 0.0
C1541 C 0.73176 0.1929 0.77241 0.0
C1542 C 0.73396 0.21459 0.80623 0.0
N1543 N 0.74189 0.20901 0.76958 0.0
C1544 C 0.7222 0.18711 0.79238 0.0
C1545 C 0.72301 0.19806 0.80939 0.0
H1546 H 0.75126 0.2326 0.78311 0.0
H1547 H 0.73068 0.18462 0.75882 0.0
C1548 C 0.73701 0.22763 0.65827 0.0
N1549 N 0.73378 0.21913 0.67845 0.0
C1550 C 0.72462 0.22412 0.64237 0.0
C1551 C 0.70592 0.20322 0.66836 0.0
C1552 C 0.71864 0.2071 0.68367 0.0
C1553 C 0.70882 0.21174 0.64734 0.0
H1554 H 0.74919 0.23704 0.65445 0.0
H1555 H 0.71649 0.20043 0.69975 0.0
O1556 O 0.77766 0.22826 0.74202 0.0
O1557 O 0.77245 0.23377 0.69002 0.0
O1558 O 0.74678 0.20267 0.71495 0.0
O1559 O 0.7504 0.23531 0.72939 0.0
H1560 H 0.78918 0.25325 0.77089 0.0
H1561 H 0.77043 0.20196 0.76643 0.0
H1562 H 0.79247 0.25173 0.81342 0.0
H1563 H 0.77418 0.20138 0.80905 0.0
H1564 H 0.79276 0.28382 0.65847 0.0
H1565 H 0.80216 0.23955 0.68195 0.0
H1566 H 0.77036 0.25907 0.67615 0.0
H1567 H 0.82398 0.2646 0.66407 0.0
H1568 H 0.80096 0.18745 0.7239 0.0
H1569 H 0.79379 0.19651 0.65241 0.0
H1570 H 0.78619 0.2963 0.75162 0.0
H1571 H 0.82714 0.29045 0.73519 0.0
H1572 H 0.74106 0.19456 0.67043 0.0
H1573 H 0.75011 0.18028 0.73729 0.0
H1574 H 0.73953 0.17008 0.65311 0.0
H1575 H 0.74845 0.15606 0.71877 0.0
H1576 H 0.72109 0.2162 0.74642 0.0
H1577 H 0.74954 0.25736 0.70253 0.0
H1578 H 0.69708 0.21872 0.73766 0.0
H1579 H 0.72497 0.25909 0.69441 0.0
H1580 H 0.73505 0.22342 0.81899 0.0
H1581 H 0.71373 0.1743 0.79394 0.0
H1582 H 0.72736 0.23104 0.62641 0.0
H1583 H 0.69401 0.19339 0.67271 0.0
Li1584 Li 0.46979 0.24365 0.21791 0.0
Li1585 Li 0.46655 0.21886 0.23626 0.0
Li1586 Li 0.47343 0.2253 0.19485 0.0
Li1587 Li 0.44619 0.21849 0.20856 0.0
C1588 C 0.50158 0.24105 0.21698 0.0
N1589 N 0.53236 0.24811 0.20461 0.0
C1590 C 0.50945 0.23452 0.22962 0.0
C1591 C 0.50949 0.25138 0.19827 0.0
C1592 C 0.52498 0.23819 0.22304 0.0
C1593 C 0.525 0.25474 0.19222 0.0
C1594 C 0.44093 0.22034 0.25628 0.0
C1595 C 0.42087 0.19507 0.27309 0.0
N1596 N 0.41767 0.20331 0.28955 0.0
C1597 C 0.43745 0.22856 0.27335 0.0
C1598 C 0.43259 0.20347 0.25612 0.0
C1599 C 0.42564 0.21973 0.29003 0.0
C1600 C 0.46579 0.26932 0.23317 0.0
N1601 N 0.47691 0.2655 0.22546 0.0
C1602 C 0.4985 0.29138 0.23666 0.0
C1603 C 0.49298 0.27628 0.22645 0.0
C1604 C 0.48733 0.29533 0.24594 0.0
C1605 C 0.47077 0.28434 0.24336 0.0
H1606 H 0.45309 0.26036 0.23258 0.0
H1607 H 0.50156 0.27285 0.22057 0.0
C1608 C 0.47583 0.19889 0.25807 0.0
N1609 N 0.47036 0.20928 0.26246 0.0
C1610 C 0.48077 0.19278 0.27632 0.0
C1611 C 0.4736 0.20754 0.30342 0.0
C1612 C 0.46903 0.21359 0.28456 0.0
C1613 C 0.4799 0.1973 0.29928 0.0
H1614 H 0.47698 0.1959 0.24027 0.0
H1615 H 0.46494 0.22213 0.28752 0.0
C1616 C 0.46101 0.2492 0.17835 0.0
N1617 N 0.46228 0.27734 0.16378 0.0
C1618 C 0.44775 0.25137 0.18168 0.0
C1619 C 0.47486 0.26126 0.16739 0.0
C1620 C 0.44864 0.2657 0.17424 0.0
C1621 C 0.47529 0.27542 0.16021 0.0
C1622 C 0.45032 0.18986 0.20024 0.0
C1623 C 0.44978 0.18763 0.17614 0.0
C1624 C 0.44463 0.17649 0.21501 0.0
C1625 C 0.44349 0.17205 0.16719 0.0
C1626 C 0.43842 0.16109 0.20539 0.0
N1627 N 0.43799 0.15921 0.18188 0.0
C1628 C 0.49202 0.21281 0.17687 0.0
C1629 C 0.48453 0.2259 0.14852 0.0
C1630 C 0.49972 0.20859 0.16 0.0
N1631 N 0.4847 0.22135 0.17089 0.0
C1632 C 0.49183 0.22165 0.13097 0.0
C1633 C 0.4995 0.21285 0.1367 0.0
H1634 H 0.4916 0.20902 0.19472 0.0
H1635 H 0.47837 0.23246 0.14425 0.0
C1636 C 0.41398 0.21202 0.21327 0.0
N1637 N 0.42371 0.20796 0.20131 0.0
C1638 C 0.39747 0.20432 0.20853 0.0
C1639 C 0.40134 0.18881 0.17863 0.0
C1640 C 0.41776 0.1968 0.18399 0.0
C1641 C 0.39093 0.19246 0.19109 0.0
H1642 H 0.41903 0.22131 0.22646 0.0
H1643 H 0.42577 0.1942 0.17412 0.0
O1644 O 0.48626 0.23741 0.22296 0.0
O1645 O 0.45252 0.22888 0.23992 0.0
O1646 O 0.46049 0.2354 0.18599 0.0
O1647 O 0.45676 0.20506 0.20943 0.0
H1648 H 0.50366 0.22674 0.24438 0.0
H1649 H 0.50361 0.25658 0.18834 0.0
H1650 H 0.53117 0.23315 0.23261 0.0
H1651 H 0.53119 0.26259 0.17764 0.0
H1652 H 0.41431 0.18201 0.27315 0.0
H1653 H 0.44382 0.24162 0.27371 0.0
H1654 H 0.43507 0.19691 0.24301 0.0
H1655 H 0.42282 0.22592 0.30335 0.0
H1656 H 0.51136 0.29957 0.23827 0.0
H1657 H 0.46181 0.28687 0.25058 0.0
H1658 H 0.48557 0.18489 0.27253 0.0
H1659 H 0.47295 0.2114 0.32091 0.0
H1660 H 0.43695 0.24216 0.19016 0.0
H1661 H 0.48518 0.25972 0.1645 0.0
H1662 H 0.43851 0.26759 0.17685 0.0
H1663 H 0.48595 0.28489 0.15181 0.0
H1664 H 0.45395 0.19779 0.16441 0.0
H1665 H 0.44499 0.17797 0.23372 0.0
H1666 H 0.44296 0.17016 0.14857 0.0
H1667 H 0.43396 0.15064 0.21662 0.0
H1668 H 0.5053 0.20158 0.16499 0.0
H1669 H 0.49141 0.22509 0.11313 0.0
H1670 H 0.38991 0.20751 0.21861 0.0
H1671 H 0.3969 0.18006 0.16462 0.0
Li1672 Li 0.7536 0.22607 0.22038 0.0
Li1673 Li 0.77913 0.24619 0.23792 0.0
Li1674 Li 0.77273 0.24845 0.19746 0.0
Li1675 Li 0.77902 0.2277 0.20955 0.0
C1676 C 0.75889 0.26157 0.22132 0.0
N1677 N 0.75498 0.2875 0.21013 0.0
C1678 C 0.76939 0.27685 0.23048 0.0
C1679 C 0.74635 0.25945 0.20659 0.0
C1680 C 0.76722 0.28982 0.22459 0.0
C1681 C 0.7446 0.27272 0.20109 0.0
C1682 C 0.76974 0.2207 0.26341 0.0
C1683 C 0.78565 0.22226 0.29693 0.0
N1684 N 0.77289 0.2189 0.31097 0.0
C1685 C 0.75678 0.21723 0.27816 0.0
C1686 C 0.78428 0.22319 0.27284 0.0
C1687 C 0.75861 0.21637 0.30216 0.0
C1688 C 0.72644 0.19547 0.22809 0.0
N1689 N 0.73171 0.21156 0.22783 0.0
C1690 C 0.70737 0.20719 0.24585 0.0
C1691 C 0.72244 0.21754 0.23606 0.0
C1692 C 0.70181 0.19053 0.24718 0.0
C1693 C 0.71136 0.18467 0.23744 0.0
H1694 H 0.73428 0.19111 0.22205 0.0
H1695 H 0.72714 0.23042 0.23628 0.0
C1696 C 0.80485 0.26645 0.26816 0.0
N1697 N 0.78856 0.25822 0.26544 0.0
C1698 C 0.81177 0.27638 0.28751 0.0
C1699 C 0.785 0.26895 0.30105 0.0
C1700 C 0.7786 0.25911 0.28149 0.0
C1701 C 0.80183 0.27797 0.30406 0.0
H1702 H 0.81248 0.26564 0.25503 0.0
H1703 H 0.76569 0.25256 0.27867 0.0
C1704 C 0.74835 0.21275 0.17885 0.0
N1705 N 0.72109 0.18656 0.16071 0.0
C1706 C 0.74776 0.19795 0.17617 0.0
C1707 C 0.73514 0.21429 0.17214 0.0
C1708 C 0.73385 0.18484 0.16699 0.0
C1709 C 0.72144 0.20089 0.16307 0.0
C1710 C 0.80734 0.25367 0.20166 0.0
C1711 C 0.81185 0.25934 0.1789 0.0
C1712 C 0.81712 0.24967 0.21485 0.0
C1713 C 0.82606 0.26085 0.16968 0.0
C1714 C 0.83121 0.2513 0.20498 0.0
N1715 N 0.83535 0.25682 0.18279 0.0
C1716 C 0.78705 0.27941 0.17858 0.0
C1717 C 0.76751 0.25937 0.15374 0.0
C1718 C 0.79026 0.2914 0.1622 0.0
N1719 N 0.77584 0.26379 0.17412 0.0
C1720 C 0.77043 0.27097 0.13673 0.0
C1721 C 0.78197 0.28723 0.14088 0.0
H1722 H 0.79365 0.28251 0.19483 0.0
H1723 H 0.75874 0.24683 0.15061 0.0
C1724 C 0.78864 0.20454 0.21594 0.0
N1725 N 0.78862 0.21532 0.20056 0.0
C1726 C 0.79585 0.19545 0.21002 0.0
C1727 C 0.80276 0.20867 0.17246 0.0
C1728 C 0.79517 0.2173 0.17897 0.0
C1729 C 0.80317 0.19762 0.18813 0.0
H1730 H 0.78307 0.20299 0.23282 0.0
H1731 H 0.7946 0.22567 0.16689 0.0
O1732 O 0.76103 0.2488 0.22644 0.0
O1733 O 0.76833 0.22199 0.23991 0.0
O1734 O 0.76179 0.22569 0.18801 0.0
O1735 O 0.79338 0.25194 0.21091 0.0
H1736 H 0.77925 0.27875 0.24174 0.0
H1737 H 0.73815 0.24772 0.1993 0.0
H1738 H 0.7753 0.30173 0.23144 0.0
H1739 H 0.735 0.27128 0.18961 0.0
H1740 H 0.79686 0.22425 0.30447 0.0
H1741 H 0.74547 0.21537 0.27122 0.0
H1742 H 0.79448 0.226 0.26169 0.0
H1743 H 0.7487 0.21376 0.31379 0.0
H1744 H 0.70064 0.21236 0.25353 0.0
H1745 H 0.70753 0.17193 0.23784 0.0
H1746 H 0.82479 0.28297 0.28926 0.0
H1747 H 0.77687 0.26998 0.31312 0.0
H1748 H 0.75788 0.19654 0.18128 0.0
H1749 H 0.7354 0.22566 0.17412 0.0
H1750 H 0.7332 0.17328 0.16491 0.0
H1751 H 0.71109 0.20187 0.15793 0.0
H1752 H 0.80439 0.2624 0.16835 0.0
H1753 H 0.81373 0.24508 0.23238 0.0
H1754 H 0.82966 0.26517 0.15207 0.0
H1755 H 0.83882 0.24813 0.21493 0.0
H1756 H 0.79945 0.30373 0.16593 0.0
H1757 H 0.76374 0.26729 0.12054 0.0
H1758 H 0.79596 0.18704 0.22254 0.0
H1759 H 0.80808 0.21047 0.15529 0.0
Li1760 Li 0.75409 0.53225 0.24272 0.0
Li1761 Li 0.77373 0.52758 0.22185 0.0
Li1762 Li 0.77122 0.55125 0.21376 0.0
Li1763 Li 0.75037 0.52434 0.20169 0.0
C1764 C 0.7813 0.54897 0.26603 0.0
N1765 N 0.78704 0.55484 0.31316 0.0
C1766 C 0.78806 0.54134 0.27875 0.0
C1767 C 0.77756 0.55965 0.27726 0.0
C1768 C 0.79086 0.54446 0.30257 0.0
C1769 C 0.78051 0.56243 0.3011 0.0
C1770 C 0.73823 0.49715 0.22458 0.0
C1771 C 0.72593 0.47204 0.20335 0.0
N1772 N 0.71163 0.46762 0.21406 0.0
C1773 C 0.72344 0.49233 0.23547 0.0
C1774 C 0.73953 0.4869 0.20848 0.0
C1775 C 0.71012 0.47736 0.22989 0.0
C1776 C 0.73091 0.53251 0.27268 0.0
N1777 N 0.74282 0.52876 0.27122 0.0
C1778 C 0.73625 0.51662 0.30892 0.0
C1779 C 0.74569 0.52102 0.28881 0.0
C1780 C 0.72341 0.51977 0.31065 0.0
C1781 C 0.721 0.52809 0.2923 0.0
H1782 H 0.72863 0.53828 0.25816 0.0
H1783 H 0.75497 0.51782 0.28691 0.0
C1784 C 0.80461 0.53057 0.22555 0.0
N1785 N 0.78846 0.52006 0.22666 0.0
C1786 C 0.8155 0.52595 0.23347 0.0
C1787 C 0.79293 0.49971 0.24306 0.0
C1788 C 0.7825 0.50477 0.23472 0.0
C1789 C 0.80968 0.5105 0.24314 0.0
H1790 H 0.80899 0.54281 0.2197 0.0
H1791 H 0.7696 0.49682 0.23602 0.0
C1792 C 0.74495 0.55331 0.20996 0.0
N1793 N 0.74114 0.5786 0.1947 0.0
C1794 C 0.74008 0.55353 0.18708 0.0
C1795 C 0.74778 0.56589 0.22512 0.0
C1796 C 0.73823 0.56643 0.1797 0.0
C1797 C 0.74583 0.57859 0.21705 0.0
C1798 C 0.78532 0.53641 0.17957 0.0
C1799 C 0.79994 0.55077 0.17637 0.0
C1800 C 0.78366 0.52184 0.17165 0.0
C1801 C 0.81272 0.55028 0.16541 0.0
C1802 C 0.79674 0.52186 0.16081 0.0
N1803 N 0.81088 0.53595 0.15794 0.0
C1804 C 0.79239 0.58451 0.22122 0.0
C1805 C 0.78108 0.57772 0.18336 0.0
C1806 C 0.80095 0.60084 0.21535 0.0
N1807 N 0.78265 0.57338 0.20532 0.0
C1808 C 0.78937 0.59393 0.17675 0.0
C1809 C 0.79949 0.60575 0.19285 0.0
H1810 H 0.79366 0.5807 0.2384 0.0
H1811 H 0.7734 0.56855 0.17099 0.0
C1812 C 0.71884 0.50872 0.18515 0.0
N1813 N 0.73408 0.51247 0.17932 0.0
C1814 C 0.70616 0.50042 0.16955 0.0
C1815 C 0.7251 0.49991 0.14215 0.0
C1816 C 0.73744 0.50823 0.15836 0.0
C1817 C 0.70923 0.49603 0.14761 0.0
H1818 H 0.71657 0.51232 0.20195 0.0
H1819 H 0.74971 0.5115 0.15412 0.0
O1820 O 0.77835 0.54598 0.24272 0.0
O1821 O 0.75131 0.51192 0.22937 0.0
O1822 O 0.74712 0.54095 0.21741 0.0
O1823 O 0.7727 0.53662 0.19041 0.0
H1824 H 0.79101 0.53302 0.27042 0.0
H1825 H 0.77226 0.5656 0.26771 0.0
H1826 H 0.79602 0.5386 0.31264 0.0
H1827 H 0.77758 0.57059 0.31003 0.0
H1828 H 0.72673 0.46403 0.1908 0.0
H1829 H 0.72219 0.50013 0.2479 0.0
H1830 H 0.75089 0.49047 0.19986 0.0
H1831 H 0.69858 0.47351 0.23809 0.0
H1832 H 0.73873 0.51042 0.32267 0.0
H1833 H 0.71107 0.53047 0.2925 0.0
H1834 H 0.8283 0.53463 0.23294 0.0
H1835 H 0.78781 0.48782 0.25076 0.0
H1836 H 0.73794 0.54395 0.17507 0.0
H1837 H 0.75158 0.56591 0.24286 0.0
H1838 H 0.73454 0.5668 0.16201 0.0
H1839 H 0.74808 0.58846 0.22855 0.0
H1840 H 0.80145 0.56215 0.18244 0.0
H1841 H 0.77245 0.51063 0.17407 0.0
H1842 H 0.82413 0.56128 0.16289 0.0
H1843 H 0.79566 0.51066 0.15471 0.0
H1844 H 0.80886 0.60949 0.22817 0.0
H1845 H 0.78777 0.59716 0.15929 0.0
H1846 H 0.69409 0.49749 0.17461 0.0
H1847 H 0.72803 0.49692 0.12534 0.0
Li1848 Li 0.55395 0.13661 0.96265 0.0
Li1849 Li 0.54937 0.11032 0.94999 0.0
Li1850 Li 0.57463 0.13559 0.93763 0.0
Li1851 Li 0.54794 0.12774 0.92105 0.0
C1852 C 0.5755 0.13102 0.99024 0.0
N1853 N 0.59203 0.13978 0.03205 0.0
C1854 C 0.56888 0.12139 0.01001 0.0
C1855 C 0.59072 0.14489 0.99163 0.0
C1856 C 0.57736 0.12609 0.03102 0.0
C1857 C 0.59883 0.14917 0.01294 0.0
C1858 C 0.51964 0.10593 0.9557 0.0
C1859 C 0.49683 0.07941 0.94873 0.0
N1860 N 0.4908 0.0798 0.97001 0.0
C1861 C 0.51314 0.10613 0.9774 0.0
C1862 C 0.51136 0.09254 0.94114 0.0
C1863 C 0.49856 0.09279 0.98435 0.0
C1864 C 0.54835 0.16096 0.97925 0.0
N1865 N 0.54982 0.14817 0.9862 0.0
C1866 C 0.54284 0.15097 0.02522 0.0
C1867 C 0.54712 0.14305 0.00868 0.0
C1868 C 0.54137 0.16435 0.01858 0.0
C1869 C 0.54443 0.16942 0.99524 0.0
H1870 H 0.54994 0.16447 0.96114 0.0
H1871 H 0.54764 0.13244 0.01363 0.0
C1872 C 0.54275 0.07814 0.94536 0.0
N1873 N 0.54092 0.08852 0.95949 0.0
C1874 C 0.53613 0.06194 0.95166 0.0
C1875 C 0.52598 0.06749 0.98695 0.0
C1876 C 0.53296 0.08359 0.98012 0.0
C1877 C 0.52747 0.05643 0.97259 0.0
H1878 H 0.54924 0.08242 0.92912 0.0
H1879 H 0.53184 0.09213 0.99114 0.0
C1880 C 0.57391 0.16541 0.93384 0.0
N1881 N 0.59332 0.19862 0.9341 0.0
C1882 C 0.57412 0.17451 0.91464 0.0
C1883 C 0.58345 0.17323 0.95325 0.0
C1884 C 0.58405 0.19128 0.91508 0.0
C1885 C 0.5932 0.19002 0.95303 0.0
C1886 C 0.55906 0.11232 0.89585 0.0
C1887 C 0.57198 0.1217 0.88097 0.0
C1888 C 0.54499 0.09929 0.88686 0.0
C1889 C 0.57051 0.11803 0.85724 0.0
C1890 C 0.54399 0.09602 0.86302 0.0
N1891 N 0.55666 0.10539 0.84883 0.0
C1892 C 0.6044 0.13624 0.93585 0.0
C1893 C 0.60469 0.15879 0.91821 0.0
C1894 C 0.62032 0.14178 0.92878 0.0
N1895 N 0.59692 0.14472 0.93034 0.0
C1896 C 0.62063 0.1649 0.91119 0.0
C1897 C 0.62857 0.15627 0.9162 0.0
H1898 H 0.59784 0.12495 0.94522 0.0
H1899 H 0.59841 0.16501 0.91315 0.0
C1900 C 0.52144 0.12378 0.89441 0.0
N1901 N 0.53763 0.12961 0.89398 0.0
C1902 C 0.51395 0.1272 0.87621 0.0
C1903 C 0.53984 0.14202 0.85701 0.0
C1904 C 0.54683 0.13835 0.87563 0.0
C1905 C 0.52327 0.13681 0.8575 0.0
H1906 H 0.51444 0.11711 0.90937 0.0
H1907 H 0.55974 0.14317 0.87601 0.0
O1908 O 0.56744 0.12646 0.96944 0.0
O1909 O 0.53402 0.1188 0.94874 0.0
O1910 O 0.56429 0.14896 0.9336 0.0
O1911 O 0.56019 0.11583 0.9191 0.0
H1912 H 0.55726 0.11048 0.0092 0.0
H1913 H 0.59631 0.15222 0.9764 0.0
H1914 H 0.57229 0.11883 0.04649 0.0
H1915 H 0.61058 0.15993 0.01427 0.0
H1916 H 0.49037 0.06892 0.93771 0.0
H1917 H 0.5193 0.11644 0.98882 0.0
H1918 H 0.51616 0.09223 0.92424 0.0
H1919 H 0.49344 0.09274 0.00116 0.0
H1920 H 0.5402 0.1463 0.04281 0.0
H1921 H 0.54366 0.17974 0.98922 0.0
H1922 H 0.53748 0.05375 0.9401 0.0
H1923 H 0.51957 0.06373 0.00337 0.0
H1924 H 0.56672 0.16868 0.89954 0.0
H1925 H 0.58311 0.16645 0.96846 0.0
H1926 H 0.58438 0.19845 0.90031 0.0
H1927 H 0.60063 0.19622 0.96796 0.0
H1928 H 0.58297 0.1318 0.88761 0.0
H1929 H 0.53495 0.09181 0.89815 0.0
H1930 H 0.58038 0.12526 0.8455 0.0
H1931 H 0.53314 0.08603 0.85581 0.0
H1932 H 0.62605 0.13476 0.93282 0.0
H1933 H 0.62645 0.1759 0.90101 0.0
H1934 H 0.50112 0.12288 0.87718 0.0
H1935 H 0.5475 0.14969 0.84313 0.0
Li1936 Li 0.85659 0.4149 0.96488 0.0
Li1937 Li 0.88369 0.43617 0.95383 0.0
Li1938 Li 0.85977 0.43734 0.94234 0.0
Li1939 Li 0.86598 0.41785 0.92464 0.0
C1940 C 0.867 0.45035 0.98376 0.0
N1941 N 0.86507 0.47631 0.00092 0.0
C1942 C 0.88097 0.46541 0.98613 0.0
C1943 C 0.85207 0.44846 0.99026 0.0
C1944 C 0.87974 0.47839 0.99483 0.0
C1945 C 0.85134 0.46175 0.99883 0.0
C1946 C 0.88639 0.4102 0.96107 0.0
C1947 C 0.91276 0.41284 0.95791 0.0
N1948 N 0.91117 0.40687 0.97985 0.0
C1949 C 0.885 0.40406 0.98357 0.0
C1950 C 0.90035 0.41457 0.94808 0.0
C1951 C 0.89766 0.40247 0.99275 0.0
C1952 C 0.84007 0.38367 0.98317 0.0
N1953 N 0.84425 0.39921 0.98781 0.0
C1954 C 0.8312 0.39163 0.02485 0.0
C1955 C 0.84002 0.4034 0.00811 0.0
C1956 C 0.82671 0.37545 0.02053 0.0
C1957 C 0.83118 0.37152 0.9993 0.0
H1958 H 0.84382 0.38076 0.96698 0.0
H1959 H 0.84361 0.41588 0.01138 0.0
C1960 C 0.91641 0.45984 0.94867 0.0
N1961 N 0.90552 0.4486 0.96351 0.0
C1962 C 0.93267 0.46873 0.95485 0.0
C1963 C 0.92615 0.45442 0.99156 0.0
C1964 C 0.90996 0.44604 0.98486 0.0
C1965 C 0.93769 0.46586 0.97639 0.0
H1966 H 0.91249 0.46183 0.93198 0.0
H1967 H 0.90096 0.43732 0.99653 0.0
C1968 C 0.83018 0.40127 0.93993 0.0
N1969 N 0.80078 0.37423 0.94963 0.0
C1970 C 0.82608 0.38645 0.92967 0.0
C1971 C 0.81929 0.40236 0.95501 0.0
C1972 C 0.81116 0.37292 0.93481 0.0
C1973 C 0.80451 0.38854 0.95974 0.0
C1974 C 0.88226 0.44398 0.90006 0.0
C1975 C 0.87302 0.44769 0.88514 0.0
C1976 C 0.89466 0.44192 0.89095 0.0
C1977 C 0.87632 0.4492 0.86128 0.0
C1978 C 0.89756 0.4435 0.86699 0.0
N1979 N 0.8884 0.44708 0.85278 0.0
C1980 C 0.86258 0.46767 0.93398 0.0
C1981 C 0.83624 0.4453 0.92894 0.0
C1982 C 0.85761 0.4782 0.92567 0.0
N1983 N 0.85193 0.45156 0.93522 0.0
C1984 C 0.83077 0.45537 0.92041 0.0
C1985 C 0.84159 0.47203 0.91822 0.0
H1986 H 0.87509 0.47225 0.93863 0.0
H1987 H 0.82815 0.4324 0.92952 0.0
C1988 C 0.87176 0.39739 0.89563 0.0
N1989 N 0.86427 0.40624 0.89699 0.0
C1990 C 0.86934 0.38758 0.87633 0.0
C1991 C 0.8518 0.39647 0.85995 0.0
C1992 C 0.85456 0.4061 0.8796 0.0
C1993 C 0.859 0.38681 0.85836 0.0
H1994 H 0.87921 0.39754 0.90984 0.0
H1995 H 0.84852 0.41305 0.88139 0.0
O1996 O 0.86792 0.43756 0.97497 0.0
O1997 O 0.8742 0.41201 0.95185 0.0
O1998 O 0.84487 0.41459 0.93552 0.0
O1999 O 0.87902 0.44211 0.92341 0.0
H2000 H 0.89262 0.46709 0.98116 0.0
H2001 H 0.84114 0.4369 0.98843 0.0
H2002 H 0.89044 0.49013 0.99667 0.0
H2003 H 0.83986 0.46049 0.00379 0.0
H2004 H 0.92367 0.41629 0.94813 0.0
H2005 H 0.87435 0.4007 0.99394 0.0
H2006 H 0.9017 0.41949 0.93073 0.0
H2007 H 0.89678 0.39779 0.01017 0.0
H2008 H 0.82792 0.39513 0.04096 0.0
H2009 H 0.82822 0.35926 0.99544 0.0
H2010 H 0.94128 0.4775 0.94275 0.0
H2011 H 0.9296 0.45207 0.00844 0.0
H2012 H 0.83439 0.38535 0.9181 0.0
H2013 H 0.82232 0.4137 0.96323 0.0
H2014 H 0.80786 0.36135 0.92709 0.0
H2015 H 0.79601 0.38918 0.97151 0.0
H2016 H 0.86331 0.44921 0.89184 0.0
H2017 H 0.90187 0.43896 0.90224 0.0
H2018 H 0.86923 0.452 0.84952 0.0
H2019 H 0.90706 0.44185 0.85969 0.0
H2020 H 0.86634 0.49097 0.92447 0.0
H2021 H 0.81841 0.45 0.91445 0.0
H2022 H 0.87521 0.38041 0.87571 0.0
H2023 H 0.84355 0.39604 0.8467 0.0
Li2024 Li 0.58434 0.44115 0.96696 0.0
Li2025 Li 0.56345 0.44778 0.95725 0.0
Li2026 Li 0.5626 0.42322 0.94408 0.0
Li2027 Li 0.58365 0.44962 0.92782 0.0
C2028 C 0.54927 0.41534 0.98523 0.0
N2029 N 0.52459 0.38605 0.00121 0.0
C2030 C 0.53404 0.41336 0.98981 0.0
C2031 C 0.55204 0.40252 0.98933 0.0
C2032 C 0.52169 0.39844 0.99774 0.0
C2033 C 0.53939 0.38778 0.99724 0.0
C2034 C 0.59566 0.47274 0.9742 0.0
C2035 C 0.61922 0.49633 0.98913 0.0
N2036 N 0.6128 0.49266 0.01092 0.0
C2037 C 0.58925 0.46928 0.99673 0.0
C2038 C 0.61073 0.48643 0.97034 0.0
C2039 C 0.59812 0.47947 0.01506 0.0
C2040 C 0.61544 0.45384 0.98599 0.0
N2041 N 0.59955 0.44352 0.99038 0.0
C2042 C 0.60568 0.43885 0.02894 0.0
C2043 C 0.5945 0.43592 0.01126 0.0
C2044 C 0.62217 0.44972 0.02504 0.0
C2045 C 0.627 0.4571 0.00311 0.0
H2046 H 0.61908 0.45992 0.96937 0.0
H2047 H 0.58178 0.4279 0.01437 0.0
C2048 C 0.53456 0.44877 0.96093 0.0
N2049 N 0.55075 0.45742 0.96475 0.0
C2050 C 0.5249 0.4556 0.96532 0.0
C2051 C 0.54882 0.48034 0.97657 0.0
C2052 C 0.558 0.47302 0.97205 0.0
C2053 C 0.53203 0.4716 0.9733 0.0
H2054 H 0.5292 0.43661 0.95415 0.0
H2055 H 0.57093 0.47992 0.97405 0.0
C2056 C 0.59832 0.42844 0.94165 0.0
N2057 N 0.62427 0.42399 0.95044 0.0
C2058 C 0.61324 0.43841 0.93107 0.0
C2059 C 0.59654 0.41599 0.95634 0.0
C2060 C 0.62622 0.43602 0.93581 0.0
C2061 C 0.60981 0.414 0.96068 0.0
C2062 C 0.55418 0.44681 0.91151 0.0
C2063 C 0.53987 0.43814 0.8989 0.0
C2064 C 0.56281 0.46367 0.91028 0.0
C2065 C 0.53444 0.44651 0.88511 0.0
C2066 C 0.55697 0.47158 0.89631 0.0
N2067 N 0.54303 0.46291 0.88412 0.0
C2068 C 0.53221 0.39645 0.9326 0.0
C2069 C 0.55471 0.39276 0.92678 0.0
C2070 C 0.52198 0.3817 0.92178 0.0
N2071 N 0.54827 0.40175 0.93448 0.0
C2072 C 0.54497 0.37803 0.91575 0.0
C2073 C 0.52848 0.37258 0.91255 0.0
H2074 H 0.52751 0.40404 0.93849 0.0
H2075 H 0.56755 0.39739 0.92815 0.0
C2076 C 0.61082 0.47236 0.90256 0.0
N2077 N 0.59529 0.46024 0.9005 0.0
C2078 C 0.62022 0.47928 0.88275 0.0
C2079 C 0.59721 0.46161 0.85899 0.0
C2080 C 0.58833 0.45488 0.8793 0.0
C2081 C 0.61351 0.47378 0.86053 0.0
H2082 H 0.61615 0.47608 0.91962 0.0
H2083 H 0.57598 0.4451 0.87816 0.0
O2084 O 0.56146 0.4298 0.97713 0.0
O2085 O 0.58731 0.46261 0.95617 0.0
O2086 O 0.58552 0.43076 0.93744 0.0
O2087 O 0.5595 0.43881 0.92538 0.0
H2088 H 0.53176 0.42323 0.98743 0.0
H2089 H 0.5638 0.40391 0.98637 0.0
H2090 H 0.50982 0.39673 0.0012 0.0
H2091 H 0.54135 0.37773 0.00026 0.0
H2092 H 0.63092 0.50693 0.98639 0.0
H2093 H 0.57759 0.45875 6e-05 0.0
H2094 H 0.61585 0.48942 0.95305 0.0
H2095 H 0.59334 0.47686 0.03259 0.0
H2096 H 0.60145 0.43282 0.04555 0.0
H2097 H 0.63951 0.46579 -0.00055 0.0
H2098 H 0.51203 0.44855 0.9621 0.0
H2099 H 0.55481 0.4927 0.98272 0.0
H2100 H 0.61484 0.44792 0.91938 0.0
H2101 H 0.58507 0.40798 0.96438 0.0
H2102 H 0.63786 0.44373 0.92786 0.0
H2103 H 0.60861 0.4045 0.97218 0.0
H2104 H 0.53303 0.42509 0.8998 0.0
H2105 H 0.57384 0.47058 0.92009 0.0
H2106 H 0.52339 0.43996 0.87524 0.0
H2107 H 0.5635 0.48462 0.8952 0.0
H2108 H 0.50936 0.37797 0.9194 0.0
H2109 H 0.5504 0.37128 0.90897 0.0
H2110 H 0.6328 0.48832 0.88495 0.0
H2111 H 0.59145 0.4571 0.84229 0.0
Li2112 Li 0.53624 0.78538 0.76337 0.0
Li2113 Li 0.52725 0.77687 0.80469 0.0
Li2114 Li 0.55329 0.78257 0.79102 0.0
Li2115 Li 0.52955 0.75868 0.7769 0.0
C2116 C 0.55798 0.81096 0.80194 0.0
N2117 N 0.58514 0.83676 0.82109 0.0
C2118 C 0.56012 0.8122 0.82607 0.0
C2119 C 0.56956 0.82295 0.78756 0.0
C2120 C 0.57396 0.8253 0.83541 0.0
C2121 C 0.58324 0.83587 0.79757 0.0
C2122 C 0.49979 0.75552 0.77519 0.0
C2123 C 0.47803 0.73217 0.79377 0.0
N2124 N 0.46859 0.72977 0.77477 0.0
C2125 C 0.48992 0.75283 0.75583 0.0
C2126 C 0.49384 0.74513 0.79432 0.0
C2127 C 0.47416 0.73974 0.75597 0.0
C2128 C 0.52694 0.78728 0.71784 0.0
N2129 N 0.53336 0.79599 0.73759 0.0
C2130 C 0.53248 0.81854 0.72151 0.0
C2131 C 0.53634 0.81138 0.73969 0.0
C2132 C 0.52541 0.80968 0.7011 0.0
C2133 C 0.52295 0.79397 0.6992 0.0
H2134 H 0.52445 0.77495 0.71687 0.0
H2135 H 0.54121 0.8179 0.75578 0.0
C2136 C 0.51971 0.77946 0.85161 0.0
N2137 N 0.51508 0.77886 0.82909 0.0
C2138 C 0.51191 0.78295 0.86932 0.0
C2139 C 0.49409 0.78406 0.84043 0.0
C2140 C 0.50244 0.7809 0.82325 0.0
C2141 C 0.49906 0.78547 0.8637 0.0
H2142 H 0.52982 0.77778 0.85569 0.0
H2143 H 0.49916 0.78054 0.80515 0.0
C2144 C 0.55497 0.77765 0.73692 0.0
N2145 N 0.56728 0.78476 0.69219 0.0
C2146 C 0.55258 0.76525 0.72169 0.0
C2147 C 0.56391 0.79369 0.7295 0.0
C2148 C 0.55883 0.76908 0.69912 0.0
C2149 C 0.56995 0.79704 0.7068 0.0
C2150 C 0.5436 0.75391 0.81635 0.0
C2151 C 0.55345 0.75136 0.80099 0.0
C2152 C 0.54022 0.74672 0.83835 0.0
C2153 C 0.55973 0.7416 0.80795 0.0
C2154 C 0.54673 0.73704 0.84464 0.0
N2155 N 0.55627 0.73471 0.82944 0.0
C2156 C 0.57839 0.79022 0.8235 0.0
C2157 C 0.58718 0.79907 0.78495 0.0
C2158 C 0.59433 0.79709 0.83115 0.0
N2159 N 0.57515 0.79135 0.80075 0.0
C2160 C 0.60328 0.80622 0.79184 0.0
C2161 C 0.60706 0.8053 0.81524 0.0
H2162 H 0.56858 0.78414 0.83577 0.0
H2163 H 0.58431 0.79993 0.76705 0.0
C2164 C 0.51463 0.73625 0.74289 0.0
N2165 N 0.5193 0.73719 0.76541 0.0
C2166 C 0.507 0.72148 0.73143 0.0
C2167 C 0.50853 0.70862 0.76682 0.0
C2168 C 0.51623 0.72377 0.77765 0.0
C2169 C 0.50386 0.70737 0.74334 0.0
H2170 H 0.51702 0.74711 0.73374 0.0
H2171 H 0.51968 0.72476 0.79575 0.0
O2172 O 0.54474 0.79794 0.79246 0.0
O2173 O 0.51535 0.76807 0.7752 0.0
O2174 O 0.5488 0.77407 0.75904 0.0
O2175 O 0.53733 0.76348 0.81014 0.0
H2176 H 0.55134 0.80301 0.83745 0.0
H2177 H 0.56809 0.82227 0.76887 0.0
H2178 H 0.57583 0.82633 0.85405 0.0
H2179 H 0.59235 0.84517 0.78663 0.0
H2180 H 0.47326 0.724 0.80843 0.0
H2181 H 0.49441 0.76073 0.74084 0.0
H2182 H 0.50142 0.74696 0.80933 0.0
H2183 H 0.46637 0.73749 0.74111 0.0
H2184 H 0.53462 0.8307 0.72361 0.0
H2185 H 0.51728 0.78664 0.68395 0.0
H2186 H 0.51602 0.78393 0.88713 0.0
H2187 H 0.48434 0.78612 0.83547 0.0
H2188 H 0.54614 0.75279 0.72729 0.0
H2189 H 0.56599 0.80345 0.74105 0.0
H2190 H 0.55701 0.75958 0.68715 0.0
H2191 H 0.57673 0.8094 0.70079 0.0
H2192 H 0.55626 0.75681 0.78391 0.0
H2193 H 0.53264 0.74862 0.85044 0.0
H2194 H 0.56737 0.73952 0.79625 0.0
H2195 H 0.5442 0.7314 0.86162 0.0
H2196 H 0.59664 0.79591 0.84929 0.0
H2197 H 0.61265 0.81267 0.77903 0.0
H2198 H 0.50389 0.72121 0.71324 0.0
H2199 H 0.50616 0.69803 0.77674 0.0
Li2200 Li 0.21466 0.7691 0.78766 0.0
Li2201 Li 0.2401 0.7733 0.7744 0.0
Li2202 Li 0.21559 0.7508 0.75979 0.0
Li2203 Li 0.2238 0.7508 0.79937 0.0
C2204 C 0.21249 0.77556 0.74117 0.0
N2205 N 0.19106 0.77882 0.71254 0.0
C2206 C 0.21821 0.78722 0.72358 0.0
C2207 C 0.19585 0.76558 0.74423 0.0
C2208 C 0.20719 0.78868 0.70928 0.0
C2209 C 0.18522 0.76741 0.72957 0.0
C2210 C 0.24088 0.78973 0.81472 0.0
C2211 C 0.25206 0.80938 0.84562 0.0
N2212 N 0.25494 0.82127 0.8301 0.0
C2213 C 0.24396 0.80215 0.79908 0.0
C2214 C 0.24496 0.79335 0.83817 0.0
C2215 C 0.25107 0.81801 0.8072 0.0
C2216 C 0.19263 0.77266 0.81586 0.0
N2217 N 0.20316 0.77937 0.79787 0.0
C2218 C 0.19717 0.80072 0.79486 0.0
C2219 C 0.20564 0.79318 0.78743 0.0
C2220 C 0.18617 0.79406 0.81335 0.0
C2221 C 0.18398 0.77988 0.824 0.0
H2222 H 0.19099 0.7617 0.82388 0.0
H2223 H 0.21425 0.79842 0.77339 0.0
C2224 C 0.2622 0.79286 0.74177 0.0
N2225 N 0.26119 0.78879 0.76459 0.0
C2226 C 0.27699 0.80387 0.73201 0.0
C2227 C 0.28965 0.80609 0.76935 0.0
C2228 C 0.27447 0.79521 0.77855 0.0
C2229 C 0.29095 0.81053 0.7458 0.0
H2230 H 0.25148 0.78736 0.73105 0.0
H2231 H 0.2733 0.79178 0.7967 0.0
C2232 C 0.19183 0.72898 0.79014 0.0
N2233 N 0.17145 0.69611 0.79506 0.0
C2234 C 0.1966 0.71817 0.78224 0.0
C2235 C 0.17671 0.72307 0.80056 0.0
C2236 C 0.18612 0.7016 0.78488 0.0
C2237 C 0.16657 0.70641 0.80288 0.0
C2238 C 0.24872 0.74979 0.7753 0.0
C2239 C 0.25415 0.74252 0.75938 0.0
C2240 C 0.25727 0.75626 0.79596 0.0
C2241 C 0.26808 0.74183 0.76439 0.0
C2242 C 0.27115 0.75533 0.80034 0.0
N2243 N 0.27622 0.7482 0.7846 0.0
C2244 C 0.21735 0.73952 0.71622 0.0
C2245 C 0.1904 0.72815 0.72966 0.0
C2246 C 0.21215 0.73005 0.69617 0.0
N2247 N 0.20652 0.7382 0.7326 0.0
C2248 C 0.18467 0.71833 0.70994 0.0
C2249 C 0.19563 0.719 0.69304 0.0
H2250 H 0.23008 0.74778 0.71896 0.0
H2251 H 0.18201 0.72746 0.74284 0.0
C2252 C 0.2153 0.73833 0.84394 0.0
N2253 N 0.22216 0.73684 0.82409 0.0
C2254 C 0.21067 0.7268 0.86153 0.0
C2255 C 0.22097 0.7128 0.83839 0.0
C2256 C 0.22525 0.72453 0.82111 0.0
C2257 C 0.21319 0.71364 0.85863 0.0
H2258 H 0.21271 0.74808 0.84557 0.0
H2259 H 0.23021 0.72328 0.80486 0.0
O2260 O 0.22323 0.7741 0.7553 0.0
O2261 O 0.23388 0.77405 0.80733 0.0
O2262 O 0.20197 0.74529 0.78824 0.0
O2263 O 0.23517 0.75066 0.77043 0.0
H2264 H 0.23104 0.79512 0.72104 0.0
H2265 H 0.19112 0.75658 0.75781 0.0
H2266 H 0.21146 0.79766 0.69561 0.0
H2267 H 0.17232 0.75977 0.73176 0.0
H2268 H 0.25527 0.81235 0.86373 0.0
H2269 H 0.24091 0.79962 0.78087 0.0
H2270 H 0.24264 0.78386 0.85049 0.0
H2271 H 0.25351 0.82773 0.79528 0.0
H2272 H 0.1994 0.81179 0.78646 0.0
H2273 H 0.17556 0.77434 0.83825 0.0
H2274 H 0.27758 0.80679 0.71368 0.0
H2275 H 0.30021 0.81099 0.78044 0.0
H2276 H 0.20827 0.72249 0.77421 0.0
H2277 H 0.17288 0.7313 0.80685 0.0
H2278 H 0.18966 0.6931 0.77887 0.0
H2279 H 0.15484 0.70167 0.81093 0.0
H2280 H 0.24766 0.73748 0.74329 0.0
H2281 H 0.25328 0.76194 0.8085 0.0
H2282 H 0.27242 0.73623 0.75222 0.0
H2283 H 0.27789 0.7603 0.81625 0.0
H2284 H 0.22102 0.73124 0.68341 0.0
H2285 H 0.17185 0.70991 0.70841 0.0
H2286 H 0.20476 0.72789 0.87694 0.0
H2287 H 0.22288 0.7027 0.83538 0.0
Li2288 Li 0.2462 0.46466 0.76484 0.0
Li2289 Li 0.24783 0.47263 0.8048 0.0
Li2290 Li 0.22689 0.44539 0.79183 0.0
Li2291 Li 0.22609 0.47007 0.78008 0.0
C2292 C 0.25836 0.44644 0.78957 0.0
N2293 N 0.2744 0.42931 0.78444 0.0
C2294 C 0.27434 0.45307 0.7971 0.0
C2295 C 0.2505 0.43103 0.77966 0.0
C2296 C 0.28225 0.44424 0.79427 0.0
C2297 C 0.25882 0.42258 0.77717 0.0
C2298 C 0.26511 0.49767 0.77417 0.0
C2299 C 0.28472 0.52566 0.76727 0.0
N2300 N 0.29678 0.52209 0.76904 0.0
C2301 C 0.2777 0.4943 0.77595 0.0
C2302 C 0.26864 0.51349 0.76982 0.0
C2303 C 0.29362 0.5068 0.77329 0.0
C2304 C 0.25807 0.47854 0.72181 0.0
N2305 N 0.25846 0.4678 0.73691 0.0
C2306 C 0.27681 0.46467 0.71215 0.0
C2307 C 0.26745 0.46072 0.73235 0.0
C2308 C 0.27688 0.47599 0.69646 0.0
C2309 C 0.2671 0.48273 0.70135 0.0
H2310 H 0.25087 0.48405 0.72587 0.0
H2311 H 0.26771 0.45228 0.74449 0.0
C2312 C 0.26579 0.47462 0.84391 0.0
N2313 N 0.26194 0.48365 0.82994 0.0
C2314 C 0.27716 0.48192 0.86159 0.0
C2315 C 0.28004 0.50765 0.85067 0.0
C2316 C 0.26857 0.49983 0.83318 0.0
C2317 C 0.28462 0.49869 0.86497 0.0
H2318 H 0.2603 0.46178 0.8409 0.0
H2319 H 0.26519 0.50671 0.82193 0.0
C2320 C 0.22096 0.44818 0.73764 0.0
N2321 N 0.21912 0.44248 0.69026 0.0
C2322 C 0.21749 0.45744 0.72241 0.0
C2323 C 0.22329 0.43588 0.72879 0.0
C2324 C 0.21666 0.4544 0.69851 0.0
C2325 C 0.22238 0.43323 0.70478 0.0
C2326 C 0.22118 0.46976 0.82821 0.0
C2327 C 0.2118 0.46211 0.84782 0.0
C2328 C 0.22744 0.48634 0.82511 0.0
C2329 C 0.20883 0.4712 0.86406 0.0
C2330 C 0.22421 0.495 0.84174 0.0
N2331 N 0.21505 0.48731 0.86071 0.0
C2332 C 0.21799 0.41876 0.82114 0.0
C2333 C 0.20258 0.41293 0.78648 0.0
C2334 C 0.20935 0.40258 0.82786 0.0
N2335 N 0.21449 0.42354 0.80075 0.0
C2336 C 0.19364 0.39663 0.79249 0.0
C2337 C 0.197 0.39125 0.81341 0.0
H2338 H 0.22758 0.42754 0.83208 0.0
H2339 H 0.20014 0.41712 0.77032 0.0
C2340 C 0.21853 0.49213 0.76035 0.0
N2341 N 0.21222 0.47813 0.77259 0.0
C2342 C 0.2085 0.49763 0.75183 0.0
C2343 C 0.18569 0.47442 0.76931 0.0
C2344 C 0.1962 0.46937 0.77752 0.0
C2345 C 0.19179 0.48858 0.75588 0.0
H2346 H 0.23127 0.49863 0.75632 0.0
H2347 H 0.19155 0.45821 0.78719 0.0
O2348 O 0.25039 0.45487 0.79252 0.0
O2349 O 0.24939 0.48566 0.77682 0.0
O2350 O 0.22216 0.4512 0.76105 0.0
O2351 O 0.22422 0.461 0.81226 0.0
H2352 H 0.28058 0.4649 0.80505 0.0
H2353 H 0.23815 0.42565 0.77385 0.0
H2354 H 0.29463 0.44925 0.79994 0.0
H2355 H 0.2529 0.41067 0.76944 0.0
H2356 H 0.28762 0.53796 0.76392 0.0
H2357 H 0.27524 0.48219 0.77929 0.0
H2358 H 0.25907 0.51636 0.76855 0.0
H2359 H 0.30346 0.50433 0.7746 0.0
H2360 H 0.28431 0.45932 0.7093 0.0
H2361 H 0.26654 0.4913 0.68962 0.0
H2362 H 0.28046 0.47456 0.87197 0.0
H2363 H 0.28534 0.52056 0.85287 0.0
H2364 H 0.21562 0.46698 0.72892 0.0
H2365 H 0.22588 0.42853 0.7403 0.0
H2366 H 0.21409 0.46156 0.68652 0.0
H2367 H 0.22427 0.42383 0.69769 0.0
H2368 H 0.20689 0.44928 0.85047 0.0
H2369 H 0.23474 0.49249 0.81007 0.0
H2370 H 0.2016 0.46544 0.87933 0.0
H2371 H 0.22899 0.50783 0.83957 0.0
H2372 H 0.21221 0.399 0.84425 0.0
H2373 H 0.1844 0.3883 0.78067 0.0
H2374 H 0.21371 0.50842 0.74119 0.0
H2375 H 0.1729 0.46715 0.77296 0.0
Li2376 Li 0.42278 0.86278 0.05714 0.0
Li2377 Li 0.44907 0.8859 0.04784 0.0
Li2378 Li 0.44217 0.85867 0.03592 0.0
Li2379 Li 0.44735 0.86709 0.07682 0.0
C2380 C 0.41931 0.87062 0.01445 0.0
N2381 N 0.39287 0.86925 0.9928 0.0
C2382 C 0.41812 0.88455 0.01239 0.0
C2383 C 0.40712 0.85602 0.00537 0.0
C2384 C 0.40464 0.8836 0.0014 0.0
C2385 C 0.39382 0.85557 0.99454 0.0
C2386 C 0.43767 0.88394 0.10087 0.0
C2387 C 0.45245 0.89645 0.13606 0.0
N2388 N 0.43844 0.88889 0.14838 0.0
C2389 C 0.42342 0.87632 0.11389 0.0
C2390 C 0.45231 0.89413 0.11203 0.0
C2391 C 0.42406 0.87898 0.13789 0.0
C2392 C 0.39085 0.84023 0.06944 0.0
N2393 N 0.40063 0.85569 0.06233 0.0
C2394 C 0.37983 0.86207 0.06937 0.0
C2395 C 0.3954 0.86655 0.06189 0.0
C2396 C 0.36967 0.84636 0.07786 0.0
C2397 C 0.37527 0.83528 0.07728 0.0
H2398 H 0.39545 0.83198 0.07024 0.0
H2399 H 0.40359 0.8789 0.05681 0.0
C2400 C 0.46242 0.91126 0.0152 0.0
N2401 N 0.45994 0.90786 0.03831 0.0
C2402 C 0.47016 0.92725 0.00752 0.0
C2403 C 0.4729 0.93592 0.04763 0.0
C2404 C 0.46497 0.91976 0.05449 0.0
C2405 C 0.47548 0.93986 0.02383 0.0
H2406 H 0.45821 0.9015 0.00272 0.0
H2407 H 0.46282 0.91673 0.07272 0.0
C2408 C 0.42622 0.83145 0.06044 0.0
N2409 N 0.42032 0.80049 0.0524 0.0
C2410 C 0.43464 0.82547 0.07295 0.0
C2411 C 0.41469 0.82164 0.04399 0.0
C2412 C 0.4315 0.80979 0.0686 0.0
C2413 C 0.41192 0.80604 0.04013 0.0
C2414 C 0.47661 0.88739 0.04164 0.0
C2415 C 0.48021 0.88719 0.0181 0.0
C2416 C 0.4872 0.90032 0.05568 0.0
C2417 C 0.49436 0.90002 0.00895 0.0
C2418 C 0.50121 0.91293 0.04586 0.0
N2419 N 0.50447 0.91252 0.0229 0.0
C2420 C 0.44119 0.84649 0.99046 0.0
C2421 C 0.45376 0.8388 0.01937 0.0
C2422 C 0.44497 0.83853 0.97333 0.0
N2423 N 0.44566 0.84649 0.01293 0.0
C2424 C 0.45744 0.83039 0.00295 0.0
C2425 C 0.4532 0.83038 0.97959 0.0
H2426 H 0.43509 0.85301 0.98575 0.0
H2427 H 0.45767 0.8395 0.0372 0.0
C2428 C 0.4448 0.85523 0.12234 0.0
N2429 N 0.45546 0.86375 0.10516 0.0
C2430 C 0.45013 0.85154 0.14281 0.0
C2431 C 0.47732 0.86549 0.12749 0.0
C2432 C 0.47147 0.86898 0.10736 0.0
C2433 C 0.46657 0.85647 0.14545 0.0
H2434 H 0.4321 0.85101 0.11991 0.0
H2435 H 0.47962 0.87545 0.09322 0.0
O2436 O 0.43231 0.87125 0.02536 0.0
O2437 O 0.43733 0.88134 0.07739 0.0
O2438 O 0.42924 0.84684 0.06425 0.0
O2439 O 0.46258 0.87519 0.05076 0.0
H2440 H 0.4274 0.89592 0.01944 0.0
H2441 H 0.40788 0.84515 0.00676 0.0
H2442 H 0.40352 0.89427 -0.00022 0.0
H2443 H 0.38426 0.84434 0.98752 0.0
H2444 H 0.4637 0.90419 0.14493 0.0
H2445 H 0.41199 0.86834 0.10565 0.0
H2446 H 0.46349 0.89991 0.10233 0.0
H2447 H 0.41313 0.87312 0.14818 0.0
H2448 H 0.37602 0.87099 0.0693 0.0
H2449 H 0.36807 0.82317 0.08411 0.0
H2450 H 0.47165 0.92966 0.989 0.0
H2451 H 0.47702 0.9452 0.06087 0.0
H2452 H 0.44363 0.8329 0.0857 0.0
H2453 H 0.40804 0.82607 0.03421 0.0
H2454 H 0.43799 0.80503 0.07807 0.0
H2455 H 0.40311 0.79834 0.02736 0.0
H2456 H 0.4721 0.87734 0.00695 0.0
H2457 H 0.4845 0.90075 0.07387 0.0
H2458 H 0.49728 0.90006 0.99074 0.0
H2459 H 0.50946 0.92307 0.05647 0.0
H2460 H 0.44165 0.83885 0.95539 0.0
H2461 H 0.46407 0.82449 0.00828 0.0
H2462 H 0.44143 0.8447 0.15625 0.0
H2463 H 0.49003 0.86926 0.12854 0.0
Li2464 Li 0.1368 0.58049 0.02758 0.0
Li2465 Li 0.12888 0.57902 0.06751 0.0
Li2466 Li 0.1354 0.55941 0.05308 0.0
Li2467 Li 0.10997 0.55873 0.04119 0.0
C2468 C 0.16216 0.59851 0.05774 0.0
N2469 N 0.1868 0.63014 0.06189 0.0
C2470 C 0.15885 0.61114 0.05608 0.0
C2471 C 0.178 0.60196 0.06151 0.0
C2472 C 0.17146 0.62705 0.05823 0.0
C2473 C 0.19029 0.61803 0.06355 0.0
C2474 C 0.11003 0.59013 0.04218 0.0
C2475 C 0.08583 0.59047 0.05302 0.0
N2476 N 0.09291 0.60625 0.04658 0.0
C2477 C 0.11701 0.60632 0.03549 0.0
C2478 C 0.09426 0.58211 0.05087 0.0
C2479 C 0.10818 0.61426 0.03793 0.0
C2480 C 0.13853 0.59936 0.98966 0.0
N2481 N 0.14754 0.59483 0.00247 0.0
C2482 C 0.17149 0.61363 0.98221 0.0
C2483 C 0.16367 0.60142 0.99876 0.0
C2484 C 0.1626 0.61914 0.96964 0.0
C2485 C 0.14586 0.61163 0.97317 0.0
H2486 H 0.1257 0.59381 0.99286 0.0
H2487 H 0.17057 0.5976 0.0092 0.0
C2488 C 0.14337 0.59311 0.10976 0.0
N2489 N 0.13177 0.59184 0.09479 0.0
C2490 C 0.14739 0.60301 0.12935 0.0
C2491 C 0.12716 0.6098 0.11818 0.0
C2492 C 0.12346 0.59969 0.09888 0.0
C2493 C 0.13945 0.61176 0.13348 0.0
H2494 H 0.14976 0.58669 0.10616 0.0
H2495 H 0.11412 0.59838 0.08716 0.0
C2496 C 0.135 0.55411 0.00473 0.0
N2497 N 0.15286 0.5487 0.97187 0.0
C2498 C 0.12744 0.54471 0.9851 0.0
C2499 C 0.15165 0.56076 0.00766 0.0
C2500 C 0.13668 0.54211 0.96868 0.0
C2501 C 0.16046 0.55789 0.99085 0.0
C2502 C 0.11352 0.55468 0.09572 0.0
C2503 C 0.12253 0.55127 0.11151 0.0
C2504 C 0.10178 0.55806 0.10401 0.0
C2505 C 0.11977 0.55147 0.13536 0.0
C2506 C 0.0994 0.55817 0.12799 0.0
N2507 N 0.10838 0.55492 0.14304 0.0
C2508 C 0.15712 0.55302 0.07617 0.0
C2509 C 0.13828 0.53126 0.05286 0.0
C2510 C 0.16344 0.54368 0.08466 0.0
N2511 N 0.14462 0.5466 0.06091 0.0
C2512 C 0.14433 0.52149 0.06077 0.0
C2513 C 0.15689 0.52759 0.07725 0.0
H2514 H 0.16172 0.5652 0.08248 0.0
H2515 H 0.12829 0.5265 0.04073 0.0
C2516 C 0.08423 0.54474 0.00956 0.0
N2517 N 0.08823 0.54523 0.03234 0.0
C2518 C 0.06817 0.53544 0.00251 0.0
C2519 C 0.06071 0.52737 0.04257 0.0
C2520 C 0.07694 0.53659 0.04875 0.0
C2521 C 0.05608 0.52674 0.01916 0.0
H2522 H 0.09355 0.55168 0.9969 0.0
H2523 H 0.08049 0.53714 0.06673 0.0
O2524 O 0.15004 0.58282 0.05553 0.0
O2525 O 0.11843 0.58209 0.03963 0.0
O2526 O 0.1261 0.5568 0.02087 0.0
O2527 O 0.11633 0.55492 0.07231 0.0
H2528 H 0.14669 0.60869 0.05323 0.0
H2529 H 0.18078 0.59231 0.06272 0.0
H2530 H 0.16906 0.63694 0.05699 0.0
H2531 H 0.20262 0.62088 0.06644 0.0
H2532 H 0.07365 0.58443 0.05985 0.0
H2533 H 0.12912 0.61272 0.02846 0.0
H2534 H 0.08862 0.56964 0.05614 0.0
H2535 H 0.11347 0.6268 0.03289 0.0
H2536 H 0.18443 0.61918 0.98 0.0
H2537 H 0.13858 0.61542 0.96357 0.0
H2538 H 0.15704 0.60429 0.14061 0.0
H2539 H 0.12061 0.61618 0.12094 0.0
H2540 H 0.11457 0.5395 0.98259 0.0
H2541 H 0.15772 0.56808 0.02272 0.0
H2542 H 0.13099 0.53487 0.9534 0.0
H2543 H 0.17335 0.56297 0.99289 0.0
H2544 H 0.1316 0.54855 0.10545 0.0
H2545 H 0.09478 0.56086 0.09209 0.0
H2546 H 0.12672 0.54893 0.14777 0.0
H2547 H 0.09046 0.56092 0.13464 0.0
H2548 H 0.17287 0.54884 0.09769 0.0
H2549 H 0.13903 0.50923 0.05437 0.0
H2550 H 0.0653 0.5351 0.98421 0.0
H2551 H 0.05188 0.52112 0.05613 0.0
Li2552 Li 0.43912 0.54951 0.04437 0.0
Li2553 Li 0.44009 0.57484 0.05879 0.0
Li2554 Li 0.42001 0.54877 0.07273 0.0
Li2555 Li 0.41731 0.55552 0.03334 0.0
C2556 C 0.44689 0.55279 0.09532 0.0
N2557 N 0.45257 0.5399 0.13483 0.0
C2558 C 0.45619 0.56291 0.11347 0.0
C2559 C 0.44062 0.53614 0.09718 0.0
C2560 C 0.45889 0.55615 0.13332 0.0
C2561 C 0.44358 0.52984 0.11731 0.0
C2562 C 0.44383 0.57967 0.00928 0.0
C2563 C 0.43912 0.6005 0.99425 0.0
N2564 N 0.44907 0.60265 0.97601 0.0
C2565 C 0.45394 0.58201 0.99035 0.0
C2566 C 0.43629 0.58892 0.01124 0.0
C2567 C 0.45647 0.59372 0.97373 0.0
C2568 C 0.44626 0.53089 0.01428 0.0
N2569 N 0.45125 0.54017 0.03377 0.0
C2570 C 0.4733 0.53539 0.03839 0.0
C2571 C 0.46452 0.54262 0.04578 0.0
C2572 C 0.4684 0.5256 0.01838 0.0
C2573 C 0.4547 0.52343 0.00623 0.0
H2574 H 0.43567 0.52923 0.00509 0.0
H2575 H 0.46823 0.55011 0.0612 0.0
C2576 C 0.45339 0.59861 0.09173 0.0
N2577 N 0.4541 0.59643 0.06849 0.0
C2578 C 0.4634 0.6136 0.10184 0.0
C2579 C 0.47457 0.62409 0.0638 0.0
C2580 C 0.46449 0.60874 0.05444 0.0
C2581 C 0.47415 0.62655 0.08782 0.0
H2582 H 0.44512 0.58856 0.10247 0.0
H2583 H 0.46516 0.60668 0.0361 0.0
C2584 C 0.40465 0.51935 0.04284 0.0
N2585 N 0.38245 0.48681 0.03863 0.0
C2586 C 0.3887 0.51428 0.03653 0.0
C2587 C 0.40935 0.50785 0.04667 0.0
C2588 C 0.37765 0.49779 0.03458 0.0
C2589 C 0.39794 0.49147 0.04456 0.0
C2590 C 0.40418 0.5649 0.0755 0.0
C2591 C 0.38864 0.55193 0.07166 0.0
C2592 C 0.40688 0.57561 0.09377 0.0
C2593 C 0.3761 0.5497 0.08647 0.0
C2594 C 0.39402 0.57298 0.10819 0.0
N2595 N 0.37903 0.56016 0.1043 0.0
C2596 C 0.41301 0.54777 0.12028 0.0
C2597 C 0.39442 0.52401 0.10024 0.0
C2598 C 0.40364 0.54249 0.14044 0.0
N2599 N 0.40813 0.53868 0.10057 0.0
C2600 C 0.38464 0.51829 0.11997 0.0
C2601 C 0.389 0.52775 0.14027 0.0
H2602 H 0.42382 0.5595 0.12001 0.0
H2603 H 0.39058 0.51706 0.08443 0.0
C2604 C 0.40118 0.54238 0.99173 0.0
N2605 N 0.40276 0.55269 0.00912 0.0
C2606 C 0.38915 0.53799 0.97497 0.0
C2607 C 0.38117 0.55558 0.99366 0.0
C2608 C 0.39334 0.55959 0.01014 0.0
C2609 C 0.37871 0.54433 0.97612 0.0
H2610 H 0.40888 0.5371 0.99144 0.0
H2611 H 0.3949 0.56776 0.02421 0.0
O2612 O 0.44387 0.55913 0.07588 0.0
O2613 O 0.44104 0.56808 0.02547 0.0
O2614 O 0.41572 0.53547 0.04453 0.0
O2615 O 0.41671 0.56693 0.06166 0.0
H2616 H 0.4613 0.57584 0.11225 0.0
H2617 H 0.43339 0.52817 0.08334 0.0
H2618 H 0.46603 0.56383 0.14753 0.0
H2619 H 0.4387 0.51696 0.11903 0.0
H2620 H 0.4334 0.60778 0.99557 0.0
H2621 H 0.45977 0.57485 0.98852 0.0
H2622 H 0.42839 0.58724 0.02575 0.0
H2623 H 0.46429 0.5957 0.95899 0.0
H2624 H 0.48366 0.53723 0.04845 0.0
H2625 H 0.45061 0.51617 0.99058 0.0
H2626 H 0.46266 0.61509 0.12041 0.0
H2627 H 0.48282 0.63383 0.05253 0.0
H2628 H 0.38484 0.52296 0.03322 0.0
H2629 H 0.4217 0.5115 0.05107 0.0
H2630 H 0.36525 0.49371 0.02982 0.0
H2631 H 0.40142 0.48245 0.04755 0.0
H2632 H 0.38634 0.54355 0.05762 0.0
H2633 H 0.41877 0.58581 0.09687 0.0
H2634 H 0.36406 0.53961 0.08383 0.0
H2635 H 0.39596 0.5811 0.1225 0.0
H2636 H 0.40758 0.55011 0.15575 0.0
H2637 H 0.37334 0.50699 0.11886 0.0
H2638 H 0.38781 0.52946 0.96153 0.0
H2639 H 0.37333 0.56067 0.99524 0.0
Li2640 Li 0.13509 0.57342 0.5581 0.0
Li2641 Li 0.1288 0.54792 0.57658 0.0
Li2642 Li 0.13709 0.55336 0.53583 0.0
Li2643 Li 0.11058 0.54843 0.54821 0.0
C2644 C 0.16404 0.56592 0.55889 0.0
N2645 N 0.19246 0.56684 0.54692 0.0
C2646 C 0.16764 0.55457 0.56812 0.0
C2647 C 0.1749 0.57777 0.54363 0.0
C2648 C 0.18208 0.55524 0.56186 0.0
C2649 C 0.1892 0.57801 0.53776 0.0
C2650 C 0.1138 0.5589 0.60175 0.0
C2651 C 0.09931 0.54422 0.63601 0.0
N2652 N 0.10933 0.55711 0.64942 0.0
C2653 C 0.12394 0.57201 0.61585 0.0
C2654 C 0.10135 0.5449 0.61187 0.0
C2655 C 0.12148 0.57087 0.63992 0.0
C2656 C 0.13308 0.60138 0.56599 0.0
N2657 N 0.1435 0.59565 0.56456 0.0
C2658 C 0.16513 0.62058 0.57869 0.0
C2659 C 0.1593 0.60493 0.57038 0.0
C2660 C 0.15454 0.62669 0.58113 0.0
C2661 C 0.1384 0.617 0.57409 0.0
H2662 H 0.12048 0.59357 0.56174 0.0
H2663 H 0.16721 0.59991 0.56968 0.0
C2664 C 0.12303 0.52238 0.60754 0.0
N2665 N 0.13117 0.53864 0.60447 0.0
C2666 C 0.12594 0.5156 0.62716 0.0
C2667 C 0.14539 0.54247 0.64023 0.0
C2668 C 0.14208 0.54871 0.62038 0.0
C2669 C 0.13747 0.52567 0.64363 0.0
H2670 H 0.11461 0.51464 0.59447 0.0
H2671 H 0.14857 0.56159 0.61724 0.0
C2672 C 0.12695 0.57865 0.51698 0.0
N2673 N 0.12895 0.60644 0.49922 0.0
C2674 C 0.11305 0.57986 0.51481 0.0
C2675 C 0.14186 0.59151 0.50998 0.0
C2676 C 0.11431 0.59403 0.50581 0.0
C2677 C 0.14262 0.60548 0.50111 0.0
C2678 C 0.10667 0.51927 0.54218 0.0
C2679 C 0.10686 0.51372 0.51973 0.0
C2680 C 0.09318 0.51047 0.55641 0.0
C2681 C 0.0935 0.49948 0.51186 0.0
C2682 C 0.08004 0.49631 0.54787 0.0
N2683 N 0.08048 0.49115 0.52596 0.0
C2684 C 0.15091 0.53645 0.51621 0.0
C2685 C 0.15377 0.55811 0.49268 0.0
C2686 C 0.15869 0.5322 0.49952 0.0
N2687 N 0.1485 0.54911 0.51243 0.0
C2688 C 0.16174 0.55434 0.47555 0.0
C2689 C 0.16409 0.5411 0.47878 0.0
H2690 H 0.14657 0.52953 0.53212 0.0
H2691 H 0.15162 0.56807 0.49011 0.0
C2692 C 0.07791 0.5397 0.5546 0.0
N2693 N 0.0886 0.53928 0.53943 0.0
C2694 C 0.0616 0.53251 0.54871 0.0
C2695 C 0.06769 0.52472 0.51168 0.0
C2696 C 0.08391 0.53235 0.51808 0.0
C2697 C 0.05634 0.52471 0.52716 0.0
H2698 H 0.08204 0.54555 0.57129 0.0
H2699 H 0.09277 0.53258 0.50615 0.0
O2700 O 0.14978 0.56522 0.56433 0.0
O2701 O 0.11623 0.55962 0.5782 0.0
O2702 O 0.12599 0.56497 0.52604 0.0
O2703 O 0.11955 0.53331 0.55011 0.0
H2704 H 0.15931 0.54521 0.57976 0.0
H2705 H 0.17222 0.58655 0.53615 0.0
H2706 H 0.185 0.54649 0.56878 0.0
H2707 H 0.19767 0.58705 0.52586 0.0
H2708 H 0.08978 0.53344 0.64409 0.0
H2709 H 0.13372 0.58289 0.60838 0.0
H2710 H 0.09345 0.53461 0.60124 0.0
H2711 H 0.12928 0.5809 0.65105 0.0
H2712 H 0.17757 0.62746 0.58434 0.0
H2713 H 0.12985 0.62124 0.5755 0.0
H2714 H 0.11946 0.5026 0.62918 0.0
H2715 H 0.15457 0.55067 0.65222 0.0
H2716 H 0.10141 0.57004 0.52017 0.0
H2717 H 0.15275 0.59081 0.5117 0.0
H2718 H 0.10367 0.59517 0.50411 0.0
H2719 H 0.15409 0.61557 0.49578 0.0
H2720 H 0.1171 0.52043 0.50836 0.0
H2721 H 0.09273 0.51467 0.57372 0.0
H2722 H 0.09345 0.49509 0.49449 0.0
H2723 H 0.06948 0.48946 0.55864 0.0
H2724 H 0.16043 0.52201 0.50278 0.0
H2725 H 0.1656 0.56141 0.45969 0.0
H2726 H 0.05315 0.53275 0.56102 0.0
H2727 H 0.06404 0.519 0.49477 0.0
Li2728 Li 0.41775 0.55774 0.55279 0.0
Li2729 Li 0.44395 0.57875 0.5704 0.0
Li2730 Li 0.43842 0.57955 0.52939 0.0
Li2731 Li 0.44456 0.55984 0.54346 0.0
C2732 C 0.42399 0.59338 0.55 0.0
N2733 N 0.42025 0.61871 0.5348 0.0
C2734 C 0.43525 0.60921 0.55626 0.0
C2735 C 0.41078 0.5904 0.53612 0.0
C2736 C 0.43316 0.62186 0.54836 0.0
C2737 C 0.40911 0.60338 0.52859 0.0
C2738 C 0.43361 0.55272 0.5971 0.0
C2739 C 0.4488 0.5547 0.63168 0.0
N2740 N 0.43515 0.54921 0.64463 0.0
C2741 C 0.4197 0.547 0.61074 0.0
C2742 C 0.44826 0.5565 0.60762 0.0
C2743 C 0.42073 0.54534 0.63474 0.0
C2744 C 0.38893 0.52774 0.55848 0.0
N2745 N 0.39573 0.54404 0.55995 0.0
C2746 C 0.37216 0.54144 0.57824 0.0
C2747 C 0.38764 0.551 0.56928 0.0
C2748 C 0.36499 0.52454 0.57782 0.0
C2749 C 0.37344 0.51768 0.56736 0.0
H2750 H 0.3958 0.52258 0.55127 0.0
H2751 H 0.39353 0.56399 0.57078 0.0
C2752 C 0.46846 0.60398 0.59646 0.0
N2753 N 0.45286 0.59182 0.59721 0.0
C2754 C 0.47481 0.61513 0.6146 0.0
C2755 C 0.44907 0.60072 0.63434 0.0
C2756 C 0.44314 0.58999 0.61562 0.0
C2757 C 0.46499 0.61368 0.63367 0.0
H2758 H 0.47577 0.60542 0.58133 0.0
H2759 H 0.43062 0.58056 0.61538 0.0
C2760 C 0.42042 0.55446 0.50018 0.0
N2761 N 0.40811 0.55115 0.45572 0.0
C2762 C 0.43059 0.55829 0.48087 0.0
C2763 C 0.40397 0.54888 0.49688 0.0
C2764 C 0.42414 0.55657 0.45853 0.0
C2765 C 0.39799 0.54729 0.47426 0.0
C2766 C 0.4732 0.58531 0.53774 0.0
C2767 C 0.47842 0.58873 0.51463 0.0
C2768 C 0.48283 0.58338 0.55427 0.0
C2769 C 0.49314 0.59002 0.50841 0.0
C2770 C 0.49746 0.58473 0.54735 0.0
N2771 N 0.50227 0.588 0.52475 0.0
C2772 C 0.45633 0.60937 0.50802 0.0
C2773 C 0.43167 0.59317 0.48818 0.0
C2774 C 0.46055 0.622 0.49237 0.0
N2775 N 0.44223 0.5952 0.50551 0.0
C2776 C 0.43552 0.60543 0.47186 0.0
C2777 C 0.45015 0.62004 0.47388 0.0
H2778 H 0.4643 0.61093 0.52236 0.0
H2779 H 0.42014 0.58221 0.48714 0.0
C2780 C 0.45509 0.53757 0.55361 0.0
N2781 N 0.45459 0.54736 0.53686 0.0
C2782 C 0.46294 0.52883 0.54939 0.0
C2783 C 0.46949 0.54032 0.51071 0.0
C2784 C 0.46132 0.54864 0.51557 0.0
C2785 C 0.47043 0.53033 0.52779 0.0
H2786 H 0.44945 0.5366 0.57029 0.0
H2787 H 0.46055 0.55627 0.50243 0.0
O2788 O 0.4261 0.58089 0.55695 0.0
O2789 O 0.43287 0.55458 0.57359 0.0
O2790 O 0.42641 0.55581 0.52218 0.0
O2791 O 0.45872 0.58378 0.54413 0.0
H2792 H 0.4456 0.61172 0.56687 0.0
H2793 H 0.40205 0.57821 0.53092 0.0
H2794 H 0.44183 0.6342 0.55295 0.0
H2795 H 0.39901 0.60127 0.51771 0.0
H2796 H 0.46009 0.55767 0.64006 0.0
H2797 H 0.40824 0.54398 0.60294 0.0
H2798 H 0.45912 0.56089 0.59733 0.0
H2799 H 0.41008 0.541 0.64552 0.0
H2800 H 0.36626 0.54727 0.58657 0.0
H2801 H 0.36832 0.50471 0.56663 0.0
H2802 H 0.48712 0.62504 0.61348 0.0
H2803 H 0.44107 0.59941 0.64856 0.0
H2804 H 0.44335 0.5628 0.48308 0.0
H2805 H 0.39592 0.54584 0.51162 0.0
H2806 H 0.43188 0.55959 0.44343 0.0
H2807 H 0.3853 0.54302 0.47145 0.0
H2808 H 0.47105 0.59008 0.50153 0.0
H2809 H 0.47901 0.58078 0.57224 0.0
H2810 H 0.49727 0.59255 0.49055 0.0
H2811 H 0.50498 0.58318 0.55994 0.0
H2812 H 0.47194 0.6331 0.49451 0.0
H2813 H 0.42706 0.6036 0.45806 0.0
H2814 H 0.46342 0.52123 0.56298 0.0
H2815 H 0.47491 0.54159 0.49371 0.0
Li2816 Li 0.41603 0.86698 0.57093 0.0
Li2817 Li 0.43569 0.86056 0.55441 0.0
Li2818 Li 0.43541 0.88492 0.54289 0.0
Li2819 Li 0.41419 0.85818 0.5305 0.0
C2820 C 0.44145 0.88261 0.59707 0.0
N2821 N 0.4432 0.88821 0.64446 0.0
C2822 C 0.44438 0.87297 0.61234 0.0
C2823 C 0.43946 0.89512 0.6059 0.0
C2824 C 0.44523 0.876 0.63624 0.0
C2825 C 0.44036 0.89774 0.62992 0.0
C2826 C 0.39936 0.83139 0.55462 0.0
C2827 C 0.38679 0.8061 0.5338 0.0
N2828 N 0.37232 0.80236 0.54335 0.0
C2829 C 0.38438 0.82728 0.56428 0.0
C2830 C 0.40061 0.82069 0.53932 0.0
C2831 C 0.37085 0.81255 0.55836 0.0
C2832 C 0.3953 0.87299 0.59903 0.0
N2833 N 0.40379 0.86511 0.59794 0.0
C2834 C 0.39312 0.85238 0.63457 0.0
C2835 C 0.40301 0.85505 0.61526 0.0
C2836 C 0.38386 0.86002 0.6359 0.0
C2837 C 0.38525 0.87066 0.61799 0.0
H2838 H 0.39597 0.88074 0.58489 0.0
H2839 H 0.4097 0.84874 0.61369 0.0
C2840 C 0.46521 0.86272 0.5664 0.0
N2841 N 0.44925 0.85222 0.56278 0.0
C2842 C 0.47488 0.85745 0.57702 0.0
C2843 C 0.45162 0.83057 0.57908 0.0
C2844 C 0.44243 0.83635 0.56838 0.0
C2845 C 0.46794 0.84129 0.58422 0.0
H2846 H 0.47018 0.87537 0.56232 0.0
H2847 H 0.42965 0.82836 0.56576 0.0
C2848 C 0.40999 0.88829 0.53404 0.0
N2849 N 0.40776 0.91364 0.515 0.0
C2850 C 0.40458 0.88733 0.51116 0.0
C2851 C 0.41418 0.90211 0.54726 0.0
C2852 C 0.40354 0.90028 0.50186 0.0
C2853 C 0.41301 0.91481 0.5373 0.0
C2854 C 0.45013 0.86822 0.51429 0.0
C2855 C 0.46545 0.88198 0.51361 0.0
C2856 C 0.44816 0.85332 0.50743 0.0
C2857 C 0.47861 0.88057 0.50622 0.0
C2858 C 0.46162 0.85241 0.50019 0.0
N2859 N 0.47644 0.86594 0.49975 0.0
C2860 C 0.45911 0.91754 0.5495 0.0
C2861 C 0.44654 0.91158 0.51241 0.0
C2862 C 0.46818 0.93389 0.54385 0.0
N2863 N 0.44837 0.90685 0.53397 0.0
C2864 C 0.45512 0.92786 0.50619 0.0
C2865 C 0.46601 0.93921 0.5221 0.0
H2866 H 0.46054 0.91339 0.56636 0.0
H2867 H 0.4382 0.90274 0.5002 0.0
C2868 C 0.3835 0.84225 0.51064 0.0
N2869 N 0.39911 0.8464 0.50667 0.0
C2870 C 0.37168 0.83356 0.49402 0.0
C2871 C 0.39226 0.83383 0.46925 0.0
C2872 C 0.4037 0.84242 0.4865 0.0
C2873 C 0.37601 0.82928 0.47296 0.0
H2874 H 0.38028 0.84581 0.52673 0.0
H2875 H 0.41622 0.84597 0.48377 0.0
O2876 O 0.44024 0.87963 0.57365 0.0
O2877 O 0.41269 0.8459 0.55981 0.0
O2878 O 0.41127 0.87581 0.54337 0.0
O2879 O 0.43715 0.8693 0.52183 0.0
H2880 H 0.44579 0.86314 0.60588 0.0
H2881 H 0.43708 0.90262 0.59436 0.0
H2882 H 0.44742 0.8686 0.64826 0.0
H2883 H 0.43876 0.90733 0.637 0.0
H2884 H 0.38756 0.79776 0.52185 0.0
H2885 H 0.38315 0.83545 0.576 0.0
H2886 H 0.41208 0.82374 0.53152 0.0
H2887 H 0.35916 0.80925 0.56562 0.0
H2888 H 0.39221 0.84389 0.64779 0.0
H2889 H 0.3784 0.87687 0.61841 0.0
H2890 H 0.48734 0.86614 0.58097 0.0
H2891 H 0.44586 0.81801 0.58424 0.0
H2892 H 0.40137 0.87679 0.50061 0.0
H2893 H 0.41853 0.90313 0.56491 0.0
H2894 H 0.39943 0.89973 0.48415 0.0
H2895 H 0.41634 0.92563 0.54727 0.0
H2896 H 0.46719 0.8936 0.5189 0.0
H2897 H 0.43638 0.84254 0.50796 0.0
H2898 H 0.49055 0.89111 0.50569 0.0
H2899 H 0.46029 0.84094 0.49497 0.0
H2900 H 0.47651 0.94233 0.55652 0.0
H2901 H 0.45332 0.93154 0.48913 0.0
H2902 H 0.35935 0.83055 0.4974 0.0
H2903 H 0.39606 0.83071 0.45326 0.0
Li2904 Li 0.22411 0.47633 0.2969 0.0
Li2905 Li 0.21799 0.44872 0.28772 0.0
Li2906 Li 0.24247 0.47248 0.27523 0.0
Li2907 Li 0.21669 0.46698 0.25748 0.0
C2908 C 0.25018 0.46811 0.31615 0.0
N2909 N 0.28035 0.47464 0.33102 0.0
C2910 C 0.25421 0.45594 0.31618 0.0
C2911 C 0.26143 0.48355 0.32402 0.0
C2912 C 0.26953 0.45948 0.32367 0.0
C2913 C 0.27664 0.48663 0.33137 0.0
C2914 C 0.19229 0.45605 0.3022 0.0
C2915 C 0.16795 0.45577 0.31404 0.0
N2916 N 0.17102 0.45382 0.33656 0.0
C2917 C 0.19509 0.45385 0.32547 0.0
C2918 C 0.17852 0.45687 0.29641 0.0
C2919 C 0.18424 0.45283 0.34258 0.0
C2920 C 0.21066 0.4947 0.31302 0.0
N2921 N 0.22054 0.48896 0.31942 0.0
C2922 C 0.22182 0.4983 0.35837 0.0
C2923 C 0.2263 0.49075 0.34151 0.0
C2924 C 0.21117 0.50384 0.35241 0.0
C2925 C 0.20581 0.50222 0.3293 0.0
H2926 H 0.20607 0.49289 0.29542 0.0
H2927 H 0.23381 0.48572 0.34627 0.0
C2928 C 0.21628 0.41838 0.29171 0.0
N2929 N 0.20816 0.42641 0.29605 0.0
C2930 C 0.20928 0.40197 0.29704 0.0
C2931 C 0.18548 0.40225 0.3104 0.0
C2932 C 0.19291 0.41859 0.30477 0.0
C2933 C 0.19371 0.39374 0.30673 0.0
H2934 H 0.22812 0.42467 0.28383 0.0
H2935 H 0.1863 0.42488 0.307 0.0
C2936 C 0.23736 0.50299 0.27081 0.0
N2937 N 0.24178 0.53361 0.27726 0.0
C2938 C 0.22942 0.50863 0.25648 0.0
C2939 C 0.24782 0.5131 0.2881 0.0
C2940 C 0.23174 0.52409 0.26009 0.0
C2941 C 0.24981 0.52848 0.29119 0.0
C2942 C 0.21903 0.44044 0.24185 0.0
C2943 C 0.2272 0.43512 0.22747 0.0
C2944 C 0.20214 0.43221 0.24189 0.0
C2945 C 0.21834 0.42163 0.21329 0.0
C2946 C 0.19372 0.41877 0.22747 0.0
N2947 N 0.20193 0.41381 0.21359 0.0
C2948 C 0.2689 0.46945 0.26006 0.0
C2949 C 0.27489 0.49632 0.26698 0.0
C2950 C 0.28435 0.47496 0.25101 0.0
N2951 N 0.26442 0.48016 0.26734 0.0
C2952 C 0.29043 0.50235 0.25816 0.0
C2953 C 0.29519 0.49165 0.24939 0.0
H2954 H 0.26026 0.45665 0.26048 0.0
H2955 H 0.271 0.50456 0.27277 0.0
C2956 C 0.19499 0.4726 0.23222 0.0
N2957 N 0.20632 0.46811 0.22994 0.0
C2958 C 0.18805 0.47519 0.21256 0.0
C2959 C 0.20422 0.46801 0.18846 0.0
C2960 C 0.21098 0.46571 0.20866 0.0
C2961 C 0.19277 0.47309 0.19025 0.0
H2962 H 0.19199 0.47502 0.24931 0.0
H2963 H 0.22022 0.4624 0.20731 0.0
O2964 O 0.23537 0.46497 0.30826 0.0
O2965 O 0.20312 0.45765 0.28531 0.0
O2966 O 0.23512 0.4878 0.26759 0.0
O2967 O 0.22759 0.45352 0.25602 0.0
H2968 H 0.24565 0.44391 0.3104 0.0
H2969 H 0.25852 0.49308 0.32438 0.0
H2970 H 0.27283 0.45019 0.32363 0.0
H2971 H 0.28549 0.49855 0.33734 0.0
H2972 H 0.15729 0.45646 0.3098 0.0
H2973 H 0.20564 0.45313 0.33028 0.0
H2974 H 0.17596 0.45828 0.27853 0.0
H2975 H 0.18636 0.45129 0.36065 0.0
H2976 H 0.22603 0.49913 0.37609 0.0
H2977 H 0.19768 0.50642 0.32398 0.0
H2978 H 0.21603 0.39585 0.2938 0.0
H2979 H 0.17327 0.39627 0.31716 0.0
H2980 H 0.22164 0.50123 0.2426 0.0
H2981 H 0.25416 0.50906 0.29926 0.0
H2982 H 0.22559 0.52855 0.24918 0.0
H2983 H 0.25773 0.53633 0.3047 0.0
H2984 H 0.24026 0.44134 0.22726 0.0
H2985 H 0.19558 0.43609 0.25292 0.0
H2986 H 0.22451 0.41738 0.20206 0.0
H2987 H 0.18067 0.41229 0.22733 0.0
H2988 H 0.28744 0.46629 0.24427 0.0
H2989 H 0.29849 0.5153 0.25756 0.0
H2990 H 0.17964 0.47953 0.21488 0.0
H2991 H 0.20815 0.46612 0.17167 0.0
Li2992 Li 0.55204 0.77088 0.28808 0.0
Li2993 Li 0.52509 0.74955 0.29975 0.0
Li2994 Li 0.5337 0.75303 0.25893 0.0
Li2995 Li 0.52797 0.77236 0.27846 0.0
C2996 C 0.55458 0.74466 0.29345 0.0
N2997 N 0.57948 0.74077 0.31026 0.0
C2998 C 0.55385 0.73888 0.31603 0.0
C2999 C 0.56789 0.74834 0.27935 0.0
C3000 C 0.56658 0.73702 0.32421 0.0
C3001 C 0.58038 0.74634 0.28819 0.0
C3002 C 0.53598 0.78474 0.32006 0.0
C3003 C 0.52063 0.79579 0.33736 0.0
N3004 N 0.53432 0.81044 0.3389 0.0
C3005 C 0.54991 0.79987 0.32189 0.0
C3006 C 0.52122 0.78263 0.32794 0.0
C3007 C 0.54882 0.81272 0.33145 0.0
C3008 C 0.58483 0.79435 0.28221 0.0
N3009 N 0.57404 0.78311 0.29713 0.0
C3010 C 0.59479 0.78942 0.32519 0.0
C3011 C 0.57862 0.78069 0.31844 0.0
C3012 C 0.6063 0.80102 0.31005 0.0
C3013 C 0.60108 0.8035 0.28835 0.0
H3014 H 0.58079 0.79632 0.2656 0.0
H3015 H 0.56971 0.77191 0.33016 0.0
C3016 C 0.5078 0.71798 0.3171 0.0
N3017 N 0.51326 0.73367 0.32271 0.0
C3018 C 0.49921 0.7058 0.33334 0.0
C3019 C 0.50239 0.72621 0.36109 0.0
C3020 C 0.51075 0.738 0.34417 0.0
C3021 C 0.49651 0.70987 0.35571 0.0
H3022 H 0.51027 0.71495 0.30002 0.0
H3023 H 0.51538 0.75059 0.34821 0.0
C3024 C 0.55038 0.78011 0.23529 0.0
N3025 N 0.55734 0.78542 0.18834 0.0
C3026 C 0.54213 0.78555 0.22125 0.0
C3027 C 0.56223 0.77746 0.22548 0.0
C3028 C 0.54582 0.78815 0.19754 0.0
C3029 C 0.56554 0.78018 0.2017 0.0
C3030 C 0.49818 0.73635 0.2754 0.0
C3031 C 0.49359 0.72198 0.2634 0.0
C3032 C 0.48773 0.73696 0.29187 0.0
C3033 C 0.47865 0.70838 0.26825 0.0
C3034 C 0.47291 0.72309 0.29625 0.0
N3035 N 0.46872 0.70921 0.28445 0.0
C3036 C 0.53643 0.73076 0.22993 0.0
C3037 C 0.52357 0.74382 0.2125 0.0
C3038 C 0.53338 0.72108 0.21028 0.0
N3039 N 0.53139 0.74174 0.23074 0.0
C3040 C 0.52046 0.73456 0.19236 0.0
C3041 C 0.52509 0.72274 0.19121 0.0
H3042 H 0.54228 0.72908 0.2449 0.0
H3043 H 0.51934 0.75237 0.21385 0.0
C3044 C 0.5305 0.80273 0.27138 0.0
N3045 N 0.51995 0.78661 0.27288 0.0
C3046 C 0.52522 0.81318 0.26379 0.0
C3047 C 0.49826 0.79027 0.26009 0.0
C3048 C 0.50405 0.78029 0.2678 0.0
C3049 C 0.50897 0.80692 0.25745 0.0
H3050 H 0.54315 0.80737 0.27509 0.0
H3051 H 0.49601 0.76739 0.26864 0.0
O3052 O 0.54234 0.74676 0.2852 0.0
O3053 O 0.53675 0.77208 0.31041 0.0
O3054 O 0.54683 0.77732 0.25849 0.0
O3055 O 0.51287 0.74972 0.27121 0.0
H3056 H 0.54366 0.73602 0.3272 0.0
H3057 H 0.56863 0.75281 0.26183 0.0
H3058 H 0.56623 0.73263 0.34169 0.0
H3059 H 0.59081 0.74923 0.27753 0.0
H3060 H 0.50928 0.79437 0.3434 0.0
H3061 H 0.56142 0.80171 0.31583 0.0
H3062 H 0.51032 0.77101 0.32657 0.0
H3063 H 0.55948 0.82452 0.33289 0.0
H3064 H 0.59822 0.78695 0.34199 0.0
H3065 H 0.60939 0.81257 0.27631 0.0
H3066 H 0.4951 0.69337 0.32866 0.0
H3067 H 0.50052 0.72981 0.37815 0.0
H3068 H 0.53286 0.78759 0.22849 0.0
H3069 H 0.5687 0.77322 0.23609 0.0
H3070 H 0.53949 0.7923 0.18645 0.0
H3071 H 0.57462 0.77809 0.19385 0.0
H3072 H 0.50152 0.72126 0.25065 0.0
H3073 H 0.49113 0.74796 0.30139 0.0
H3074 H 0.47497 0.69716 0.25918 0.0
H3075 H 0.46476 0.72335 0.30907 0.0
H3076 H 0.53686 0.71191 0.21052 0.0
H3077 H 0.51419 0.73642 0.17807 0.0
H3078 H 0.53387 0.82594 0.26217 0.0
H3079 H 0.48571 0.78485 0.255 0.0
Li3080 Li 0.24934 0.77506 0.29554 0.0
Li3081 Li 0.22777 0.78048 0.28471 0.0
Li3082 Li 0.22706 0.75565 0.27277 0.0
Li3083 Li 0.24629 0.7817 0.25549 0.0
C3084 C 0.21424 0.74957 0.31484 0.0
N3085 N 0.18903 0.7217 0.33344 0.0
C3086 C 0.19924 0.74838 0.3185 0.0
C3087 C 0.21647 0.73665 0.32081 0.0
C3088 C 0.18664 0.73418 0.32789 0.0
C3089 C 0.20355 0.72264 0.33012 0.0
C3090 C 0.25315 0.80915 0.29279 0.0
C3091 C 0.24999 0.83261 0.29055 0.0
N3092 N 0.25535 0.83644 0.31285 0.0
C3093 C 0.25867 0.81334 0.31566 0.0
C3094 C 0.24884 0.81889 0.28007 0.0
C3095 C 0.25969 0.82719 0.32549 0.0
C3096 C 0.28052 0.79001 0.31398 0.0
N3097 N 0.26502 0.77844 0.31842 0.0
C3098 C 0.27257 0.77296 0.35548 0.0
C3099 C 0.26084 0.7699 0.33863 0.0
C3100 C 0.2887 0.78488 0.35137 0.0
C3101 C 0.29262 0.79338 0.33022 0.0
H3102 H 0.28341 0.79677 0.29788 0.0
H3103 H 0.2484 0.76086 0.34176 0.0
C3104 C 0.20424 0.78972 0.27957 0.0
N3105 N 0.21497 0.78938 0.29471 0.0
C3106 C 0.19495 0.79656 0.28618 0.0
C3107 C 0.2078 0.8024 0.32396 0.0
C3108 C 0.21669 0.79525 0.3167 0.0
C3109 C 0.19677 0.8032 0.30857 0.0
H3110 H 0.20287 0.78463 0.26236 0.0
H3111 H 0.22512 0.79455 0.3285 0.0
C3112 C 0.2632 0.76261 0.27022 0.0
N3113 N 0.29021 0.76015 0.27962 0.0
C3114 C 0.27811 0.77366 0.26053 0.0
C3115 C 0.26199 0.75024 0.28456 0.0
C3116 C 0.29163 0.77222 0.26551 0.0
C3117 C 0.2758 0.74923 0.28915 0.0
C3118 C 0.22019 0.77155 0.23078 0.0
C3119 C 0.21624 0.75858 0.2158 0.0
C3120 C 0.22251 0.78614 0.22175 0.0
C3121 C 0.21477 0.76046 0.19196 0.0
C3122 C 0.22097 0.78754 0.1978 0.0
N3123 N 0.21716 0.77478 0.18353 0.0
C3124 C 0.19701 0.72733 0.26627 0.0
C3125 C 0.21984 0.72506 0.25634 0.0
C3126 C 0.18663 0.71188 0.25766 0.0
N3127 N 0.21326 0.7336 0.26529 0.0
C3128 C 0.20993 0.70966 0.24722 0.0
C3129 C 0.19307 0.70298 0.24734 0.0
H3130 H 0.19212 0.73458 0.27289 0.0
H3131 H 0.2328 0.73052 0.25519 0.0
C3132 C 0.26691 0.8083 0.22711 0.0
N3133 N 0.25799 0.79193 0.22804 0.0
C3134 C 0.27686 0.81589 0.208 0.0
C3135 C 0.26794 0.78965 0.19094 0.0
C3136 C 0.25819 0.78256 0.21041 0.0
C3137 C 0.2777 0.80652 0.1898 0.0
H3138 H 0.2667 0.81544 0.24152 0.0
H3139 H 0.25118 0.76956 0.21187 0.0
O3140 O 0.22669 0.76332 0.3055 0.0
O3141 O 0.25187 0.79554 0.28294 0.0
O3142 O 0.24989 0.76401 0.26598 0.0
O3143 O 0.222 0.77007 0.25412 0.0
H3144 H 0.19731 0.75827 0.31398 0.0
H3145 H 0.22799 0.73736 0.31805 0.0
H3146 H 0.17494 0.73306 0.33073 0.0
H3147 H 0.20507 0.7125 0.33468 0.0
H3148 H 0.24658 0.84018 0.28097 0.0
H3149 H 0.26197 0.80591 0.32582 0.0
H3150 H 0.24442 0.81575 0.26242 0.0
H3151 H 0.26388 0.83054 0.34321 0.0
H3152 H 0.26907 0.7661 0.37154 0.0
H3153 H 0.30485 0.80285 0.32654 0.0
H3154 H 0.18633 0.79651 0.2739 0.0
H3155 H 0.20975 0.80748 0.3413 0.0
H3156 H 0.27928 0.78337 0.24952 0.0
H3157 H 0.25055 0.74162 0.29224 0.0
H3158 H 0.30327 0.78074 0.25824 0.0
H3159 H 0.27507 0.73979 0.30034 0.0
H3160 H 0.21446 0.74723 0.22244 0.0
H3161 H 0.22567 0.79632 0.23308 0.0
H3162 H 0.21179 0.75054 0.18015 0.0
H3163 H 0.22283 0.79879 0.19056 0.0
H3164 H 0.17374 0.7072 0.25841 0.0
H3165 H 0.21551 0.70348 0.23902 0.0
H3166 H 0.28411 0.82894 0.20773 0.0
H3167 H 0.26842 0.78197 0.17748 0.0
H3168 H 0.15898 0.00898 0.09235 0.0
H3169 H 0.18885 0.03748 0.03505 0.0
H3170 H 0.15081 0.98423 0.06984 0.0
H3171 H 0.18082 0.01291 0.0127 0.0
H3172 H 0.17275 0.96558 0.98461 0.0
H3173 H 0.18288 0.98731 0.01329 0.0
H3174 H 0.13398 0.97342 0.03235 0.0
H3175 H 0.12378 0.95206 0.00327 0.0
C3176 C 0.16394 0.0099 0.07509 0.0
C3177 C 0.17442 0.02507 0.06529 0.0
C3178 C 0.15925 0.9958 0.06223 0.0
C3179 C 0.16522 0.99669 0.03958 0.0
C3180 C 0.17617 0.01186 0.03021 0.0
C3181 C 0.18064 0.02591 0.04288 0.0
C3182 C 0.16414 0.96709 0.99498 0.0
C3183 C 0.14744 0.95718 0.99136 0.0
C3184 C 0.16996 0.97948 0.01146 0.0
C3185 C 0.1592 0.98209 0.02488 0.0
C3186 C 0.14254 0.97157 0.02238 0.0
C3187 C 0.13671 0.95929 0.00572 0.0
H3188 H 0.98951 0.13853 0.08275 0.0
H3189 H 0.97298 0.17228 0.06839 0.0
H3190 H 0.012 0.15321 0.05646 0.0
H3191 H 0.99637 0.18788 0.04395 0.0
H3192 H 0.02325 0.19561 0.97504 0.0
H3193 H 0.00407 0.18551 0.00678 0.0
H3194 H 0.03646 0.17538 0.04639 0.0
H3195 H 0.05495 0.18405 0.01367 0.0
C3196 C 0.99079 0.14924 0.07432 0.0
C3197 C 0.97913 0.15394 0.0774 0.0
C3198 C 0.00393 0.15788 0.05948 0.0
C3199 C 0.00598 0.17168 0.04767 0.0
C3200 C 0.995 0.17708 0.05219 0.0
C3201 C 0.98167 0.16825 0.06665 0.0
C3202 C 0.02627 0.19112 0.99042 0.0
C3203 C 0.04057 0.19039 0.99146 0.0
C3204 C 0.01535 0.18558 0.00893 0.0
C3205 C 0.01857 0.17945 0.02926 0.0
C3206 C 0.03335 0.17966 0.03087 0.0
C3207 C 0.04414 0.18492 0.01216 0.0
H3208 H 0.81312 0.86796 0.01999 0.0
H3209 H 0.82059 0.84208 0.96423 0.0
H3210 H 0.82686 0.85891 0.04711 0.0
H3211 H 0.83418 0.83312 0.99116 0.0
H3212 H 0.87654 0.8407 0.03604 0.0
H3213 H 0.86152 0.85006 0.01288 0.0
H3214 H 0.82338 0.83112 0.06406 0.0
H3215 H 0.83825 0.82124 0.08718 0.0
C3216 C 0.81754 0.86022 0.01363 0.0
C3217 C 0.81577 0.85568 0.99004 0.0
C3218 C 0.82532 0.85502 0.02911 0.0
C3219 C 0.83167 0.84547 0.02109 0.0
C3220 C 0.82951 0.84061 0.99769 0.0
C3221 C 0.82159 0.8456 0.98235 0.0
C3222 C 0.86493 0.83846 0.04238 0.0
C3223 C 0.85843 0.82993 0.06321 0.0
C3224 C 0.85638 0.84387 0.02915 0.0
C3225 C 0.84122 0.84106 0.03655 0.0
C3226 C 0.83506 0.83339 0.05802 0.0
C3227 C 0.84359 0.8278 0.07123 0.0
H3228 H 0.94155 0.12703 0.4811 0.0
H3229 H 0.97402 0.16406 0.52873 0.0
H3230 H 0.9627 0.13746 0.45143 0.0
H3231 H 0.99498 0.17449 0.49916 0.0
H3232 H 0.01239 0.14679 0.42243 0.0
H3233 H 0.98847 0.13801 0.44657 0.0
H3234 H 0.00313 0.18778 0.46128 0.0
H3235 H 0.02735 0.19655 0.43779 0.0
C3236 C 0.95315 0.13744 0.4852 0.0
C3237 C 0.95609 0.14467 0.50733 0.0
C3238 C 0.96524 0.14342 0.4682 0.0
C3239 C 0.98052 0.15679 0.47295 0.0
C3240 C 0.98326 0.16434 0.49479 0.0
C3241 C 0.97121 0.15835 0.51177 0.0
C3242 C 0.01045 0.15586 0.43069 0.0
C3243 C 0.02185 0.17236 0.42838 0.0
C3244 C 0.99665 0.15083 0.44432 0.0
C3245 C 0.99396 0.1622 0.45598 0.0
C3246 C 0.00497 0.17872 0.45275 0.0
C3247 C 0.01876 0.18375 0.43908 0.0
H3248 H 0.80313 0.835 0.44186 0.0
H3249 H 0.84724 0.85549 0.4018 0.0
H3250 H 0.81262 0.82055 0.46589 0.0
H3251 H 0.8568 0.84095 0.42599 0.0
H3252 H 0.87588 0.83443 0.49752 0.0
H3253 H 0.86589 0.84417 0.46624 0.0
H3254 H 0.82008 0.79971 0.46838 0.0
H3255 H 0.83012 0.7899 0.49984 0.0
C3256 C 0.81467 0.83607 0.43775 0.0
C3257 C 0.82447 0.84647 0.41997 0.0
C3258 C 0.82013 0.82777 0.45157 0.0
C3259 C 0.83552 0.82968 0.44796 0.0
C3260 C 0.84499 0.83944 0.42944 0.0
C3261 C 0.83952 0.84776 0.41559 0.0
C3262 C 0.86381 0.82655 0.49097 0.0
C3263 C 0.85377 0.81141 0.50127 0.0
C3264 C 0.85808 0.83214 0.47298 0.0
C3265 C 0.84216 0.82274 0.46485 0.0
C3266 C 0.83232 0.80732 0.47449 0.0
C3267 C 0.83807 0.80172 0.49251 0.0
H3268 H 0.16172 0.96587 0.45155 0.0
H3269 H 0.14549 0.98963 0.40371 0.0
H3270 H 0.17654 0.99073 0.47352 0.0
H3271 H 0.16062 0.01477 0.42558 0.0
H3272 H 0.16785 0.04581 0.49179 0.0
H3273 H 0.1577 0.02451 0.46265 0.0
H3274 H 0.19854 0.01779 0.47497 0.0
H3275 H 0.20847 0.03892 0.50459 0.0
C3276 C 0.16168 0.97655 0.44536 0.0
C3277 C 0.1524 0.97577 0.42593 0.0
C3278 C 0.17022 0.99085 0.45795 0.0
C3279 C 0.16976 0.00478 0.45138 0.0
C3280 C 0.16102 0.0042 0.43133 0.0
C3281 C 0.15239 0.98982 0.41878 0.0
C3282 C 0.17485 0.04003 0.48788 0.0
C3283 C 0.18888 0.04392 0.50059 0.0
C3284 C 0.16905 0.02783 0.47112 0.0
C3285 C 0.17722 0.01931 0.46659 0.0
C3286 C 0.19177 0.02388 0.47837 0.0
C3287 C 0.1975 0.036 0.49527 0.0
H3288 H 0.83787 0.04287 0.00319 0.0
H3289 H 0.88505 0.0471 0.00366 0.0
H3290 H 0.82883 0.02137 0.97432 0.0
H3291 H 0.87634 0.02651 0.97386 0.0
H3292 H 0.84868 0.97386 0.95098 0.0
H3293 H 0.85903 0.99798 0.97462 0.0
H3294 H 0.83093 0.01354 0.93476 0.0
H3295 H 0.82034 0.98904 0.91103 0.0
C3296 C 0.84638 0.03939 0.99695 0.0
C3297 C 0.86215 0.04664 0.00601 0.0
C3298 C 0.84125 0.02721 0.98015 0.0
C3299 C 0.85181 0.02209 0.97197 0.0
C3300 C 0.86781 0.02995 0.98011 0.0
C3301 C 0.87288 0.04197 0.997 0.0
C3302 C 0.84494 0.98256 0.9469 0.0
C3303 C 0.8338 0.97961 0.92898 0.0
C3304 C 0.85089 0.99643 0.96048 0.0
C3305 C 0.84593 0.00779 0.95649 0.0
C3306 C 0.8349 0.00496 0.9384 0.0
C3307 C 0.82887 0.99097 0.92479 0.0
H3308 H 0.98346 0.82666 0.03814 0.0
H3309 H 0.9479 0.79922 0.98547 0.0
H3310 H 0.00388 0.83959 0.00816 0.0
H3311 H 0.96844 0.81266 0.9552 0.0
H3312 H 0.01677 0.83056 0.91256 0.0
H3313 H 0.99481 0.81546 0.94035 0.0
H3314 H 0.0083 0.85963 0.97763 0.0
H3315 H 0.03035 0.87453 0.95059 0.0
C3316 C 0.98003 0.82321 0.02017 0.0
C3317 C 0.96404 0.81189 0.0142 0.0
C3318 C 0.9917 0.83079 0.00297 0.0
C3319 C 0.98769 0.82729 0.97935 0.0
C3320 C 0.97185 0.81558 0.9733 0.0
C3321 C 0.9601 0.80799 0.99058 0.0
C3322 C 0.01496 0.83702 0.92664 0.0
C3323 C 0.02531 0.85374 0.92937 0.0
C3324 C 0.00235 0.8284 0.94242 0.0
C3325 C 0.0 0.83636 0.96129 0.0
C3326 C 0.00998 0.85314 0.96347 0.0
C3327 C 0.02249 0.86172 0.94774 0.0
H3328 H 0.16842 0.18671 0.92005 0.0
H3329 H 0.12254 0.15146 0.94945 0.0
H3330 H 0.18232 0.17838 0.94788 0.0
H3331 H 0.13634 0.14301 0.97666 0.0
H3332 H 0.16634 0.14892 0.04108 0.0
H3333 H 0.15407 0.1571 0.01088 0.0
H3334 H 0.18525 0.15389 0.95941 0.0
H3335 H 0.19782 0.14587 0.98991 0.0
C3336 C 0.16132 0.17709 0.93225 0.0
C3337 C 0.14439 0.16975 0.93255 0.0
C3338 C 0.16926 0.17227 0.94803 0.0
C3339 C 0.1604 0.16017 0.96453 0.0
C3340 C 0.14348 0.15251 0.96431 0.0
C3341 C 0.13557 0.15723 0.94851 0.0
C3342 C 0.17076 0.15017 0.02339 0.0
C3343 C 0.18309 0.14682 0.01787 0.0
C3344 C 0.1636 0.15468 0.00607 0.0
C3345 C 0.16862 0.15599 0.9828 0.0
C3346 C 0.18119 0.15299 0.97724 0.0
C3347 C 0.18829 0.14832 0.99463 0.0
H3348 H 0.96374 0.83766 0.53943 0.0
H3349 H 0.98321 0.81873 0.59029 0.0
H3350 H 0.98677 0.84487 0.51415 0.0
H3351 H 0.00647 0.82599 0.56468 0.0
H3352 H 0.05292 0.86184 0.51899 0.0
H3353 H 0.03065 0.85266 0.54698 0.0
H3354 H 0.99645 0.82824 0.4916 0.0
H3355 H 0.01851 0.83746 0.46374 0.0
C3356 C 0.97306 0.83521 0.54531 0.0
C3357 C 0.97175 0.82774 0.56689 0.0
C3358 C 0.98615 0.83918 0.53073 0.0
C3359 C 0.9983 0.83586 0.53742 0.0
C3360 C 0.99723 0.82867 0.55918 0.0
C3361 C 0.98395 0.82448 0.57373 0.0
C3362 C 0.04064 0.85437 0.51291 0.0
C3363 C 0.03745 0.8504 0.48919 0.0
C3364 C 0.02795 0.84905 0.52891 0.0
C3365 C 0.01188 0.83987 0.52135 0.0
C3366 C 0.00875 0.83543 0.49782 0.0
C3367 C 0.02138 0.84059 0.48192 0.0
H3368 H 0.16265 0.1862 0.46092 0.0
H3369 H 0.13436 0.19262 0.51401 0.0
H3370 H 0.17149 0.17326 0.48934 0.0
H3371 H 0.14337 0.17968 0.5426 0.0
H3372 H 0.17879 0.16781 0.58716 0.0
H3373 H 0.17157 0.18383 0.56145 0.0
H3374 H 0.15291 0.14533 0.51085 0.0
H3375 H 0.15987 0.12936 0.5364 0.0
C3376 C 0.15862 0.18518 0.47879 0.0
C3377 C 0.14782 0.19039 0.4853 0.0
C3378 C 0.16358 0.17768 0.49498 0.0
C3379 C 0.15801 0.17543 0.51803 0.0
C3380 C 0.14785 0.18135 0.5249 0.0
C3381 C 0.14266 0.18865 0.50858 0.0
C3382 C 0.17304 0.1628 0.5706 0.0
C3383 C 0.16977 0.14734 0.56378 0.0
C3384 C 0.1689 0.1719 0.556 0.0
C3385 C 0.16182 0.1658 0.5342 0.0
C3386 C 0.15849 0.15032 0.52751 0.0
C3387 C 0.16233 0.14115 0.54221 0.0
H3388 H 0.83513 0.02842 0.553 0.0
H3389 H 0.85954 0.00747 0.59007 0.0
H3390 H 0.82132 0.00429 0.5291 0.0
H3391 H 0.84581 0.98333 0.56581 0.0
H3392 H 0.839 0.95884 0.49307 0.0
H3393 H 0.84866 0.9788 0.52404 0.0
H3394 H 0.80175 0.97487 0.52829 0.0
H3395 H 0.7919 0.95459 0.49741 0.0
C3396 C 0.83725 0.01851 0.55648 0.0
C3397 C 0.84854 0.01994 0.57338 0.0
C3398 C 0.82934 0.00467 0.54273 0.0
C3399 C 0.83258 0.99197 0.54546 0.0
C3400 C 0.84326 0.99304 0.56308 0.0
C3401 C 0.85114 0.00687 0.57694 0.0
C3402 C 0.83058 0.96189 0.50095 0.0
C3403 C 0.81467 0.95512 0.49266 0.0
C3404 C 0.83615 0.97336 0.51873 0.0
C3405 C 0.82597 0.97842 0.52858 0.0
C3406 C 0.80992 0.97132 0.52083 0.0
C3407 C 0.80431 0.95976 0.5031 0.0
H3408 H 0.79145 0.27483 0.34937 0.0
H3409 H 0.82811 0.30829 0.30211 0.0
H3410 H 0.80166 0.29559 0.3796 0.0
H3411 H 0.83833 0.32885 0.33222 0.0
H3412 H 0.81038 0.34492 0.40984 0.0
H3413 H 0.80182 0.32117 0.38535 0.0
H3414 H 0.85168 0.33657 0.37009 0.0
H3415 H 0.86022 0.3606 0.39388 0.0
C3416 C 0.80173 0.28656 0.34547 0.0
C3417 C 0.80893 0.2899 0.32329 0.0
C3418 C 0.80759 0.29843 0.36279 0.0
C3419 C 0.8208 0.31386 0.35831 0.0
C3420 C 0.82831 0.317 0.33639 0.0
C3421 C 0.82244 0.30518 0.3191 0.0
C3422 C 0.81951 0.34316 0.4014 0.0
C3423 C 0.83597 0.35472 0.40361 0.0
C3424 C 0.81462 0.32947 0.38757 0.0
C3425 C 0.82608 0.32707 0.37563 0.0
C3426 C 0.84256 0.3382 0.37884 0.0
C3427 C 0.84746 0.35187 0.39268 0.0
H3428 H 0.64963 0.49662 0.41807 0.0
H3429 H 0.63779 0.45261 0.3814 0.0
H3430 H 0.6756 0.51047 0.39801 0.0
H3431 H 0.66313 0.46659 0.36043 0.0
H3432 H 0.71267 0.49099 0.33346 0.0
H3433 H 0.69139 0.47871 0.36226 0.0
H3434 H 0.68517 0.52044 0.35983 0.0
H3435 H 0.70738 0.53332 0.3323 0.0
C3436 C 0.65262 0.48986 0.4059 0.0
C3437 C 0.64155 0.47355 0.40114 0.0
C3438 C 0.66743 0.49785 0.3942 0.0
C3439 C 0.67145 0.4897 0.37747 0.0
C3440 C 0.66059 0.47324 0.37338 0.0
C3441 C 0.6459 0.46526 0.38516 0.0
C3442 C 0.70717 0.49782 0.33955 0.0
C3443 C 0.7117 0.51313 0.33029 0.0
C3444 C 0.69473 0.49063 0.35586 0.0
C3445 C 0.68632 0.49842 0.36308 0.0
C3446 C 0.69139 0.51408 0.35477 0.0
C3447 C 0.704 0.52138 0.33867 0.0
H3448 H 0.5011 0.1433 0.39945 0.0
H3449 H 0.543 0.19119 0.40156 0.0
H3450 H 0.48735 0.15328 0.37439 0.0
H3451 H 0.52938 0.20092 0.3759 0.0
H3452 H 0.50975 0.20081 0.30127 0.0
H3453 H 0.52145 0.19273 0.3326 0.0
H3454 H 0.4773 0.1746 0.37202 0.0
H3455 H 0.46558 0.18293 0.34054 0.0
C3456 C 0.50725 0.15601 0.39505 0.0
C3457 C 0.52326 0.1664 0.40223 0.0
C3458 C 0.49937 0.16169 0.38065 0.0
C3459 C 0.50742 0.17779 0.37304 0.0
C3460 C 0.52303 0.18839 0.3813 0.0
C3461 C 0.53083 0.18278 0.39587 0.0
C3462 C 0.50255 0.1951 0.31663 0.0
C3463 C 0.48676 0.19238 0.31851 0.0
C3464 C 0.50928 0.19062 0.33461 0.0
C3465 C 0.50028 0.18314 0.35472 0.0
C3466 C 0.48445 0.18036 0.35666 0.0
C3467 C 0.47779 0.18513 0.33876 0.0
H3468 H 0.63832 0.50447 0.85162 0.0
H3469 H 0.61234 0.45672 0.82142 0.0
H3470 H 0.65801 0.51303 0.82042 0.0
H3471 H 0.63131 0.46566 0.78923 0.0
H3472 H 0.68171 0.47917 0.76138 0.0
H3473 H 0.65789 0.471 0.78506 0.0
H3474 H 0.66528 0.51939 0.78102 0.0
H3475 H 0.68984 0.52783 0.75861 0.0
C3476 C 0.63664 0.49585 0.83814 0.0
C3477 C 0.62388 0.4798 0.83938 0.0
C3478 C 0.64782 0.50086 0.81996 0.0
C3479 C 0.6464 0.48999 0.80236 0.0
C3480 C 0.63299 0.47427 0.80273 0.0
C3481 C 0.62194 0.4692 0.82109 0.0
C3482 C 0.67825 0.48808 0.76549 0.0
C3483 C 0.68789 0.50423 0.75847 0.0
C3484 C 0.6644 0.48333 0.77882 0.0
C3485 C 0.65968 0.49456 0.78522 0.0
C3486 C 0.66871 0.51048 0.77683 0.0
C3487 C 0.6827 0.51528 0.76368 0.0
H3488 H 0.48444 0.16623 0.73999 0.0
H3489 H 0.5025 0.20399 0.79184 0.0
H3490 H 0.49206 0.15028 0.76503 0.0
H3491 H 0.51011 0.1882 0.81656 0.0
H3492 H 0.50315 0.14862 0.86588 0.0
H3493 H 0.4939 0.16169 0.8385 0.0
H3494 H 0.51857 0.15274 0.7826 0.0
H3495 H 0.52776 0.13938 0.8101 0.0
C3496 C 0.49009 0.17112 0.75664 0.0
C3497 C 0.49296 0.18637 0.76394 0.0
C3498 C 0.49449 0.16205 0.77087 0.0
C3499 C 0.50154 0.16798 0.79275 0.0
C3500 C 0.50453 0.18328 0.79987 0.0
C3501 C 0.50034 0.19238 0.78561 0.0
C3502 C 0.50632 0.14909 0.84768 0.0
C3503 C 0.51619 0.14297 0.84014 0.0
C3504 C 0.50116 0.15672 0.83206 0.0
C3505 C 0.50567 0.15834 0.80853 0.0
C3506 C 0.51492 0.1516 0.80068 0.0
C3507 C 0.52024 0.14407 0.8164 0.0
H3508 H 0.85562 0.39109 0.81185 0.0
H3509 H 0.85213 0.35561 0.86161 0.0
H3510 H 0.84618 0.37069 0.78109 0.0
H3511 H 0.84262 0.33533 0.83121 0.0
H3512 H 0.83432 0.30285 0.77218 0.0
H3513 H 0.84957 0.3265 0.79646 0.0
H3514 H 0.82117 0.34683 0.77048 0.0
H3515 H 0.80654 0.32358 0.74504 0.0
C3516 C 0.85292 0.37897 0.81618 0.0
C3517 C 0.85465 0.37497 0.83915 0.0
C3518 C 0.8475 0.36729 0.79859 0.0
C3519 C 0.84367 0.35137 0.80365 0.0
C3520 C 0.84579 0.34753 0.82653 0.0
C3521 C 0.85123 0.35918 0.84403 0.0
C3522 C 0.83164 0.31257 0.77102 0.0
C3523 C 0.81906 0.3112 0.75677 0.0
C3524 C 0.84025 0.32605 0.78524 0.0
C3525 C 0.83641 0.33844 0.78576 0.0
C3526 C 0.8245 0.33755 0.7705 0.0
C3527 C 0.81595 0.3241 0.75611 0.0
H3528 H 0.50734 0.35149 0.36985 0.0
H3529 H 0.52115 0.3881 0.31681 0.0
H3530 H 0.49889 0.33081 0.33976 0.0
H3531 H 0.51254 0.36724 0.28656 0.0
H3532 H 0.47753 0.31786 0.24548 0.0
H3533 H 0.48513 0.34008 0.27327 0.0
H3534 H 0.51673 0.32687 0.3084 0.0
H3535 H 0.5093 0.3049 0.28082 0.0
C3536 C 0.50828 0.35507 0.35176 0.0
C3537 C 0.51489 0.37138 0.34563 0.0
C3538 C 0.50357 0.34326 0.33457 0.0
C3539 C 0.50519 0.3475 0.31093 0.0
C3540 C 0.51117 0.36371 0.30471 0.0
C3541 C 0.51614 0.3756 0.32196 0.0
C3542 C 0.48622 0.31987 0.25902 0.0
C3543 C 0.49289 0.30973 0.26096 0.0
C3544 C 0.49058 0.33256 0.2748 0.0
C3545 C 0.50139 0.33503 0.293 0.0
C3546 C 0.50827 0.3251 0.29461 0.0
C3547 C 0.50413 0.31265 0.27869 0.0
H3548 H 0.69682 0.16551 0.27572 0.0
H3549 H 0.67349 0.19124 0.25013 0.0
H3550 H 0.67427 0.15006 0.30176 0.0
H3551 H 0.6514 0.17652 0.27739 0.0
H3552 H 0.60897 0.14166 0.32091 0.0
H3553 H 0.62861 0.1515 0.28916 0.0
H3554 H 0.66556 0.15613 0.33708 0.0
H3555 H 0.6459 0.14601 0.36846 0.0
C3556 C 0.68677 0.16772 0.27532 0.0
C3557 C 0.68707 0.17975 0.26087 0.0
C3558 C 0.67393 0.15901 0.29057 0.0
C3559 C 0.66113 0.16221 0.29199 0.0
C3560 C 0.66101 0.17366 0.27672 0.0
C3561 C 0.6738 0.18227 0.26128 0.0
C3562 C 0.62128 0.14467 0.32452 0.0
C3563 C 0.62592 0.14309 0.34715 0.0
C3564 C 0.63254 0.15034 0.30638 0.0
C3565 C 0.6487 0.15465 0.31054 0.0
C3566 C 0.65318 0.15264 0.33308 0.0
C3567 C 0.64191 0.14687 0.35114 0.0
H3568 H 0.8565 0.46403 0.31581 0.0
H3569 H 0.85433 0.49825 0.36255 0.0
H3570 H 0.84732 0.47429 0.28381 0.0
H3571 H 0.84487 0.50825 0.33095 0.0
H3572 H 0.83587 0.53031 0.27002 0.0
H3573 H 0.85121 0.52267 0.29537 0.0
H3574 H 0.82286 0.47323 0.27208 0.0
H3575 H 0.80824 0.4811 0.24543 0.0
C3576 C 0.85412 0.47378 0.31919 0.0
C3577 C 0.85612 0.48034 0.34166 0.0
C3578 C 0.84883 0.47964 0.3009 0.0
C3579 C 0.84534 0.4921 0.30476 0.0
C3580 C 0.84776 0.49889 0.32716 0.0
C3581 C 0.85314 0.49312 0.34534 0.0
C3582 C 0.83323 0.51791 0.26964 0.0
C3583 C 0.82066 0.50629 0.25579 0.0
C3584 C 0.84189 0.51347 0.28452 0.0
C3585 C 0.83807 0.49727 0.28616 0.0
C3586 C 0.82618 0.48583 0.27127 0.0
C3587 C 0.81763 0.4903 0.25618 0.0
H3588 H 0.6388 0.13873 0.89152 0.0
H3589 H 0.65481 0.1865 0.91848 0.0
H3590 H 0.66371 0.14909 0.86915 0.0
H3591 H 0.67998 0.19686 0.89671 0.0
H3592 H 0.70634 0.21203 0.82629 0.0
H3593 H 0.68572 0.20191 0.85621 0.0
H3594 H 0.69265 0.16108 0.86723 0.0
H3595 H 0.71334 0.17123 0.83683 0.0
C3596 C 0.6479 0.15136 0.89321 0.0
C3597 C 0.64485 0.16187 0.90648 0.0
C3598 C 0.6622 0.15731 0.88042 0.0
C3599 C 0.67375 0.17387 0.88084 0.0
C3600 C 0.67116 0.18412 0.89554 0.0
C3601 C 0.65681 0.1782 0.90811 0.0
C3602 C 0.70375 0.20108 0.83542 0.0
C3603 C 0.7115 0.19244 0.8292 0.0
C3604 C 0.69191 0.19527 0.85267 0.0
C3605 C 0.68753 0.18069 0.86423 0.0
C3606 C 0.6956 0.17225 0.85848 0.0
C3607 C 0.70745 0.17806 0.8411 0.0
H3608 H 0.85894 0.49633 0.88713 0.0
H3609 H 0.81263 0.47133 0.9217 0.0
H3610 H 0.84944 0.51098 0.86344 0.0
H3611 H 0.80305 0.48586 0.89759 0.0
H3612 H 0.78751 0.49447 0.82428 0.0
H3613 H 0.79702 0.48393 0.85507 0.0
H3614 H 0.83955 0.53081 0.86335 0.0
H3615 H 0.82984 0.5416 0.83274 0.0
C3616 C 0.84687 0.49424 0.89012 0.0
C3617 C 0.83651 0.48254 0.90622 0.0
C3618 C 0.84142 0.50264 0.87648 0.0
C3619 C 0.82547 0.49947 0.87853 0.0
C3620 C 0.81534 0.48837 0.89541 0.0
C3621 C 0.82082 0.48003 0.90916 0.0
C3622 C 0.79868 0.5027 0.83301 0.0
C3623 C 0.80789 0.51892 0.82598 0.0
C3624 C 0.80415 0.49662 0.85068 0.0
C3625 C 0.81902 0.50655 0.86164 0.0
C3626 C 0.82809 0.52285 0.85505 0.0
C3627 C 0.82256 0.529 0.83746 0.0
H3628 H 0.49806 0.347 0.92067 0.0
H3629 H 0.53662 0.36661 0.87005 0.0
H3630 H 0.48171 0.32434 0.8943 0.0
H3631 H 0.52043 0.34417 0.84397 0.0
H3632 H 0.48147 0.31331 0.79293 0.0
H3633 H 0.49421 0.33506 0.82133 0.0
H3634 H 0.48384 0.30018 0.87593 0.0
H3635 H 0.47088 0.27825 0.84744 0.0
C3636 C 0.50302 0.34643 0.90398 0.0
C3637 C 0.51863 0.35847 0.89744 0.0
C3638 C 0.49372 0.33349 0.88899 0.0
C3639 C 0.4998 0.33262 0.86708 0.0
C3640 C 0.5154 0.34465 0.86065 0.0
C3641 C 0.52472 0.35739 0.87568 0.0
C3642 C 0.48155 0.31023 0.81107 0.0
C3643 C 0.47521 0.29408 0.81797 0.0
C3644 C 0.48897 0.32269 0.82726 0.0
C3645 C 0.49011 0.31927 0.85073 0.0
C3646 C 0.48306 0.30311 0.85793 0.0
C3647 C 0.47576 0.29061 0.84164 0.0
H3648 H 0.46375 0.61031 0.68114 0.0
H3649 H 0.47891 0.64587 0.62632 0.0
H3650 H 0.4722 0.63186 0.71038 0.0
H3651 H 0.48709 0.6672 0.65534 0.0
H3652 H 0.47934 0.69625 0.71158 0.0
H3653 H 0.4697 0.67266 0.6865 0.0
H3654 H 0.50076 0.65892 0.72192 0.0
H3655 H 0.511 0.68295 0.74663 0.0
C3656 C 0.46894 0.62272 0.67541 0.0
C3657 C 0.47078 0.62649 0.65155 0.0
C3658 C 0.47378 0.63498 0.69206 0.0
C3659 C 0.48016 0.6511 0.685 0.0
C3660 C 0.48207 0.65483 0.66117 0.0
C3661 C 0.47753 0.64267 0.64461 0.0
C3662 C 0.48416 0.68824 0.71407 0.0
C3663 C 0.49619 0.69168 0.7308 0.0
C3664 C 0.47856 0.67471 0.69979 0.0
C3665 C 0.48466 0.66416 0.70217 0.0
C3666 C 0.49588 0.66691 0.71984 0.0
C3667 C 0.50168 0.68062 0.734 0.0
H3668 H 0.35304 0.8541 0.63179 0.0
H3669 H 0.38735 0.85616 0.68253 0.0
H3670 H 0.3324 0.845 0.66164 0.0
H3671 H 0.36659 0.84715 0.71276 0.0
H3672 H 0.31806 0.80796 0.74713 0.0
H3673 H 0.34216 0.82258 0.72298 0.0
H3674 H 0.3235 0.85223 0.69596 0.0
H3675 H 0.29923 0.83721 0.71954 0.0
C3676 C 0.35628 0.85298 0.64948 0.0
C3677 C 0.37184 0.85588 0.6548 0.0
C3678 C 0.34443 0.84778 0.66667 0.0
C3679 C 0.34783 0.8454 0.68968 0.0
C3680 C 0.36353 0.8487 0.69517 0.0
C3681 C 0.37541 0.85386 0.67788 0.0
C3682 C 0.31934 0.81786 0.73641 0.0
C3683 C 0.30677 0.82137 0.73492 0.0
C3684 C 0.33314 0.82627 0.7226 0.0
C3685 C 0.33464 0.83841 0.70722 0.0
C3686 C 0.32254 0.84267 0.70716 0.0
C3687 C 0.3087 0.83416 0.72074 0.0
H3688 H 0.14164 0.49947 0.64246 0.0
H3689 H 0.14433 0.53631 0.68884 0.0
H3690 H 0.15206 0.48964 0.673 0.0
H3691 H 0.15486 0.52643 0.71957 0.0
H3692 H 0.19593 0.51889 0.75061 0.0
H3693 H 0.18027 0.52679 0.72605 0.0
H3694 H 0.14692 0.47661 0.71078 0.0
H3695 H 0.16295 0.46875 0.73457 0.0
C3696 C 0.14409 0.50524 0.65937 0.0
C3697 C 0.14218 0.51871 0.66317 0.0
C3698 C 0.15007 0.49959 0.67692 0.0
C3699 C 0.15432 0.50727 0.69874 0.0
C3700 C 0.15189 0.52039 0.70285 0.0
C3701 C 0.14588 0.52605 0.68526 0.0
C3702 C 0.18518 0.50954 0.74216 0.0
C3703 C 0.18081 0.49321 0.74432 0.0
C3704 C 0.17609 0.51405 0.72828 0.0
C3705 C 0.16243 0.50233 0.71627 0.0
C3706 C 0.15752 0.48594 0.71954 0.0
C3707 C 0.16661 0.48143 0.73341 0.0
H3708 H 0.34124 0.81734 0.0771 0.0
H3709 H 0.36304 0.86551 0.10583 0.0
H3710 H 0.31783 0.80901 0.1021 0.0
H3711 H 0.33924 0.85745 0.12962 0.0
H3712 H 0.30899 0.83048 0.19381 0.0
H3713 H 0.32957 0.84133 0.16381 0.0
H3714 H 0.29437 0.81066 0.11269 0.0
H3715 H 0.27368 0.79959 0.14306 0.0
C3716 C 0.34093 0.82623 0.08842 0.0
C3717 C 0.35417 0.84203 0.08967 0.0
C3718 C 0.32739 0.8215 0.10255 0.0
C3719 C 0.32674 0.83251 0.11813 0.0
C3720 C 0.33949 0.84858 0.11817 0.0
C3721 C 0.35307 0.85327 0.10422 0.0
C3722 C 0.30553 0.82629 0.17609 0.0
C3723 C 0.2897 0.81418 0.17082 0.0
C3724 C 0.31735 0.83254 0.15882 0.0
C3725 C 0.31365 0.8269 0.13578 0.0
C3726 C 0.29768 0.81513 0.13032 0.0
C3727 C 0.28583 0.8088 0.14768 0.0
H3728 H 0.13855 0.49568 0.08945 0.0
H3729 H 0.18762 0.53557 0.08994 0.0
H3730 H 0.14689 0.47956 0.11193 0.0
H3731 H 0.19573 0.5199 0.11378 0.0
H3732 H 0.20941 0.48799 0.1504 0.0
H3733 H 0.20046 0.49815 0.1183 0.0
H3734 H 0.15381 0.47932 0.15123 0.0
H3735 H 0.16237 0.46817 0.1824 0.0
C3736 C 0.15117 0.50096 0.09402 0.0
C3737 C 0.16237 0.51703 0.08812 0.0
C3738 C 0.15592 0.49177 0.10723 0.0
C3739 C 0.17194 0.49847 0.11505 0.0
C3740 C 0.18331 0.51423 0.10799 0.0
C3741 C 0.1786 0.52335 0.09458 0.0
C3742 C 0.19708 0.48557 0.15046 0.0
C3743 C 0.18668 0.47742 0.1692 0.0
C3744 C 0.19201 0.49161 0.13217 0.0
C3745 C 0.17649 0.48981 0.13229 0.0
C3746 C 0.16581 0.48088 0.15038 0.0
C3747 C 0.17081 0.47468 0.16851 0.0
H3748 H 0.54191 0.70954 0.17095 0.0
H3749 H 0.49688 0.70975 0.16634 0.0
H3750 H 0.53196 0.68787 0.14216 0.0
H3751 H 0.48733 0.68862 0.13706 0.0
H3752 H 0.47781 0.65568 0.07505 0.0
H3753 H 0.49262 0.68133 0.0962 0.0
H3754 H 0.50888 0.65866 0.14592 0.0
H3755 H 0.49406 0.63313 0.12493 0.0
C3756 C 0.52999 0.70514 0.16367 0.0
C3757 C 0.52015 0.71132 0.17124 0.0
C3758 C 0.52436 0.69281 0.14708 0.0
C3759 C 0.50888 0.68658 0.13746 0.0
C3760 C 0.4994 0.69336 0.14397 0.0
C3761 C 0.50493 0.70552 0.16076 0.0
C3762 C 0.48483 0.65633 0.09024 0.0
C3763 C 0.48474 0.64248 0.09853 0.0
C3764 C 0.49321 0.67093 0.10236 0.0
C3765 C 0.50186 0.67194 0.12268 0.0
C3766 C 0.50245 0.65827 0.13019 0.0
C3767 C 0.49388 0.64365 0.11831 0.0
H3768 H 0.18367 0.65473 0.57707 0.0
H3769 H 0.1378 0.63398 0.6128 0.0
H3770 H 0.19378 0.67897 0.60105 0.0
H3771 H 0.14783 0.65823 0.63638 0.0
H3772 H 0.16797 0.70832 0.66711 0.0
H3773 H 0.15783 0.68779 0.63657 0.0
H3774 H 0.20048 0.68348 0.64317 0.0
H3775 H 0.21046 0.70364 0.67384 0.0
C3776 C 0.17569 0.6554 0.58984 0.0
C3777 C 0.15997 0.64235 0.59312 0.0
C3778 C 0.18147 0.66928 0.60353 0.0
C3779 C 0.17163 0.67044 0.62069 0.0
C3780 C 0.15564 0.65777 0.62311 0.0
C3781 C 0.14989 0.64387 0.60953 0.0
C3782 C 0.17518 0.703 0.66203 0.0
C3783 C 0.19001 0.70762 0.67302 0.0
C3784 C 0.1694 0.6913 0.64448 0.0
C3785 C 0.17837 0.68405 0.63745 0.0
C3786 C 0.19342 0.68904 0.6479 0.0
C3787 C 0.19914 0.70064 0.66551 0.0
H3788 H 0.2941 0.50657 0.67894 0.0
H3789 H 0.28459 0.4579 0.66755 0.0
H3790 H 0.31301 0.51601 0.64669 0.0
H3791 H 0.30391 0.46753 0.63534 0.0
H3792 H 0.35709 0.49868 0.60618 0.0
H3793 H 0.33377 0.48513 0.63186 0.0
H3794 H 0.31481 0.51423 0.60397 0.0
H3795 H 0.33811 0.52775 0.57814 0.0
C3796 C 0.29579 0.4978 0.66929 0.0
C3797 C 0.28776 0.48145 0.67586 0.0
C3798 C 0.30667 0.50324 0.65076 0.0
C3799 C 0.3099 0.4925 0.6384 0.0
C3800 C 0.30174 0.4761 0.64467 0.0
C3801 C 0.29073 0.47061 0.66316 0.0
C3802 C 0.34772 0.50187 0.60502 0.0
C3803 C 0.34954 0.51442 0.5903 0.0
C3804 C 0.33436 0.49411 0.61978 0.0
C3805 C 0.32257 0.49877 0.62014 0.0
C3806 C 0.32387 0.5106 0.60438 0.0
C3807 C 0.3372 0.51833 0.5896 0.0
H3808 H 0.50861 0.82541 0.70751 0.0
H3809 H 0.52772 0.80813 0.65364 0.0
H3810 H 0.49577 0.8335 0.67803 0.0
H3811 H 0.51454 0.81604 0.62402 0.0
H3812 H 0.49922 0.84781 0.57952 0.0
H3813 H 0.51461 0.84115 0.60715 0.0
H3814 H 0.47248 0.81686 0.65109 0.0
H3815 H 0.45727 0.82363 0.62391 0.0
C3816 C 0.5103 0.82359 0.68935 0.0
C3817 C 0.51915 0.81611 0.68289 0.0
C3818 C 0.5028 0.82806 0.67249 0.0
C3819 C 0.50402 0.82521 0.64879 0.0
C3820 C 0.51343 0.81837 0.64218 0.0
C3821 C 0.52086 0.81377 0.65911 0.0
C3822 C 0.49328 0.84098 0.59504 0.0
C3823 C 0.47704 0.83618 0.59952 0.0
C3824 C 0.50204 0.83712 0.61075 0.0
C3825 C 0.49475 0.82864 0.63132 0.0
C3826 C 0.47845 0.82359 0.63551 0.0
C3827 C 0.46969 0.82729 0.61978 0.0
H3828 H 0.31677 0.48062 0.25109 0.0
H3829 H 0.30847 0.51654 0.21847 0.0
H3830 H 0.34128 0.48994 0.22781 0.0
H3831 H 0.3327 0.52572 0.19531 0.0
H3832 H 0.38228 0.54727 0.16709 0.0
H3833 H 0.36161 0.53928 0.19684 0.0
H3834 H 0.34833 0.48933 0.18728 0.0
H3835 H 0.36966 0.49742 0.15834 0.0
C3836 C 0.32021 0.49053 0.23904 0.0
C3837 C 0.31072 0.49789 0.23672 0.0
C3838 C 0.33423 0.49585 0.2257 0.0
C3839 C 0.339 0.50862 0.20976 0.0
C3840 C 0.32962 0.51611 0.20778 0.0
C3841 C 0.31568 0.51083 0.22109 0.0
C3842 C 0.37529 0.53462 0.17176 0.0
C3843 C 0.3776 0.52297 0.16021 0.0
C3844 C 0.36326 0.53002 0.18862 0.0
C3845 C 0.35316 0.51365 0.19423 0.0
C3846 C 0.35595 0.50206 0.18348 0.0
C3847 C 0.36805 0.50667 0.16667 0.0
H3848 H 0.48026 0.80647 0.26314 0.0
H3849 H 0.52519 0.83045 0.22496 0.0
H3850 H 0.46983 0.82047 0.23949 0.0
H3851 H 0.51484 0.84447 0.20161 0.0
H3852 H 0.49482 0.87388 0.16984 0.0
H3853 H 0.50535 0.86416 0.20078 0.0
H3854 H 0.4618 0.81759 0.19822 0.0
H3855 H 0.45139 0.82716 0.16727 0.0
C3856 C 0.48797 0.81486 0.2499 0.0
C3857 C 0.50351 0.81724 0.24583 0.0
C3858 C 0.48201 0.82288 0.23639 0.0
C3859 C 0.49147 0.83348 0.21858 0.0
C3860 C 0.50732 0.83654 0.21538 0.0
C3861 C 0.51326 0.82849 0.22882 0.0
C3862 C 0.48748 0.86159 0.17597 0.0
C3863 C 0.4723 0.85128 0.16597 0.0
C3864 C 0.49349 0.85605 0.19372 0.0
C3865 C 0.48442 0.84011 0.20191 0.0
C3866 C 0.46898 0.83002 0.19257 0.0
C3867 C 0.46301 0.83552 0.17479 0.0
H3868 H 0.19616 0.67597 0.24408 0.0
H3869 H 0.16603 0.69526 0.22162 0.0
H3870 H 0.1814 0.6529 0.21842 0.0
H3871 H 0.15059 0.67169 0.19737 0.0
H3872 H 0.14479 0.64243 0.13136 0.0
H3873 H 0.15563 0.66296 0.16149 0.0
H3874 H 0.15695 0.62867 0.20923 0.0
H3875 H 0.14639 0.60815 0.17863 0.0
C3876 C 0.18625 0.67519 0.23396 0.0
C3877 C 0.18248 0.68764 0.23474 0.0
C3878 C 0.17762 0.66183 0.21947 0.0
C3879 C 0.16491 0.66051 0.20558 0.0
C3880 C 0.16052 0.67247 0.20745 0.0
C3881 C 0.16925 0.6859 0.22171 0.0
C3882 C 0.14713 0.63919 0.14841 0.0
C3883 C 0.14474 0.62369 0.15265 0.0
C3884 C 0.15331 0.65096 0.16575 0.0
C3885 C 0.15715 0.64749 0.18787 0.0
C3886 C 0.15434 0.63182 0.19231 0.0
C3887 C 0.14826 0.62006 0.17483 0.0
H3888 H 0.10177 0.13939 0.28081 0.0
H3889 H 0.15091 0.17496 0.29816 0.0
H3890 H 0.1117 0.12542 0.25599 0.0
H3891 H 0.16078 0.1614 0.27289 0.0
H3892 H 0.17393 0.12593 0.24377 0.0
H3893 H 0.16191 0.13659 0.27081 0.0
H3894 H 0.1263 0.12984 0.21902 0.0
H3895 H 0.1383 0.11913 0.19201 0.0
C3896 C 0.11467 0.14421 0.27933 0.0
C3897 C 0.12555 0.15833 0.29134 0.0
C3898 C 0.12035 0.13629 0.265 0.0
C3899 C 0.13703 0.14227 0.26254 0.0
C3900 C 0.14786 0.15634 0.27465 0.0
C3901 C 0.1422 0.16426 0.28887 0.0
C3902 C 0.16349 0.12665 0.23821 0.0
C3903 C 0.15715 0.1218 0.2157 0.0
C3904 C 0.15662 0.13278 0.25367 0.0
C3905 C 0.14326 0.13423 0.24697 0.0
C3906 C 0.1365 0.12875 0.2248 0.0
C3907 C 0.14337 0.1226 0.20932 0.0
H3908 H 0.85883 0.98534 0.31392 0.0
H3909 H 0.82652 0.9537 0.26086 0.0
H3910 H 0.87136 0.00716 0.28551 0.0
H3911 H 0.8389 0.97552 0.23249 0.0
H3912 H 0.87389 0.0465 0.23635 0.0
H3913 H 0.86428 0.02456 0.26451 0.0
H3914 H 0.86314 0.9925 0.21059 0.0
H3915 H 0.87262 0.01446 0.18237 0.0
C3916 C 0.8544 0.98306 0.29617 0.0
C3917 C 0.84163 0.96782 0.28965 0.0
C3918 C 0.86156 0.99556 0.2799 0.0
C3919 C 0.85608 0.99313 0.25674 0.0
C3920 C 0.84358 0.97776 0.25009 0.0
C3921 C 0.83646 0.96524 0.26636 0.0
C3922 C 0.87182 0.03484 0.23059 0.0
C3923 C 0.87395 0.0322 0.20711 0.0
C3924 C 0.86632 0.02225 0.24673 0.0
C3925 C 0.86288 0.00673 0.23981 0.0
C3926 C 0.8654 0.00422 0.21643 0.0
C3927 C 0.87086 0.0168 0.20027 0.0
H3928 H 0.95307 0.83485 0.24131 0.0
H3929 H 0.98715 0.84984 0.18437 0.0
H3930 H 0.97533 0.84672 0.26882 0.0
H3931 H 0.0093 0.86287 0.21168 0.0
H3932 H 0.04486 0.86613 0.26743 0.0
H3933 H 0.02307 0.85625 0.23904 0.0
H3934 H 0.9964 0.8706 0.28453 0.0
H3935 H 0.018 0.87977 0.31332 0.0
C3936 C 0.96528 0.84077 0.2346 0.0
C3937 C 0.96822 0.84125 0.21053 0.0
C3938 C 0.9781 0.84784 0.2504 0.0
C3939 C 0.9942 0.85577 0.24256 0.0
C3940 C 0.99711 0.85665 0.21846 0.0
C3941 C 0.98432 0.84938 0.2027 0.0
C3942 C 0.0344 0.86732 0.27117 0.0
C3943 C 0.03306 0.87366 0.29253 0.0
C3944 C 0.0219 0.86171 0.25488 0.0
C3945 C 0.00787 0.86255 0.25944 0.0
C3946 C 0.00683 0.86942 0.28058 0.0
C3947 C 0.01923 0.87479 0.29702 0.0
H3948 H 0.87133 0.82879 0.73476 0.0
H3949 H 0.87027 0.86088 0.68278 0.0
H3950 H 0.86209 0.84074 0.76406 0.0
H3951 H 0.86121 0.87302 0.71215 0.0
H3952 H 0.85695 0.87351 0.81573 0.0
H3953 H 0.86935 0.86474 0.78635 0.0
H3954 H 0.83708 0.86548 0.73433 0.0
H3955 H 0.82487 0.87445 0.76365 0.0
C3956 C 0.86941 0.83861 0.7297 0.0
C3957 C 0.87146 0.84385 0.70646 0.0
C3958 C 0.86412 0.84548 0.7465 0.0
C3959 C 0.86084 0.85781 0.74045 0.0
C3960 C 0.86335 0.86336 0.71731 0.0
C3961 C 0.86856 0.85643 0.7005 0.0
C3962 C 0.85255 0.87182 0.79799 0.0
C3963 C 0.83989 0.87459 0.792 0.0
C3964 C 0.85963 0.86678 0.78117 0.0
C3965 C 0.85416 0.86432 0.758 0.0
C3966 C 0.84175 0.86748 0.75193 0.0
C3967 C 0.83473 0.8726 0.76873 0.0
H3968 H 0.13934 0.03472 0.71368 0.0
H3969 H 0.17351 0.02018 0.69235 0.0
H3970 H 0.12922 0.01398 0.74408 0.0
H3971 H 0.16312 0.99928 0.72208 0.0
H3972 H 0.1548 0.97773 0.79458 0.0
H3973 H 0.16383 0.99845 0.76465 0.0
H3974 H 0.11426 0.98393 0.74876 0.0
H3975 H 0.10518 0.96338 0.77935 0.0
C3976 C 0.14464 0.02708 0.71544 0.0
C3977 C 0.1572 0.02907 0.70061 0.0
C3978 C 0.13875 0.01513 0.73267 0.0
C3979 C 0.14542 0.00505 0.73549 0.0
C3980 C 0.15787 0.00697 0.72051 0.0
C3981 C 0.16369 0.01883 0.70329 0.0
C3982 C 0.14582 0.97906 0.7849 0.0
C3983 C 0.12928 0.96895 0.78936 0.0
C3984 C 0.15099 0.99082 0.76757 0.0
C3985 C 0.13975 0.99276 0.75427 0.0
C3986 C 0.1232 0.98277 0.75884 0.0
C3987 C 0.118 0.97092 0.77616 0.0
H3988 H 0.95042 0.1206 0.73664 0.0
H3989 H 0.98401 0.12632 0.68213 0.0
H3990 H 0.9719 0.12907 0.76543 0.0
H3991 H 0.00549 0.13481 0.71092 0.0
H3992 H 0.01165 0.13322 0.81353 0.0
H3993 H 0.99016 0.12153 0.78447 0.0
H3994 H 0.0208 0.15857 0.7355 0.0
H3995 H 0.04219 0.17027 0.76449 0.0
C3996 C 0.96232 0.1234 0.73086 0.0
C3997 C 0.96554 0.12291 0.70709 0.0
C3998 C 0.97463 0.12826 0.74735 0.0
C3999 C 0.99042 0.13271 0.74044 0.0
C4000 C 0.99352 0.13173 0.71675 0.0
C4001 C 0.98122 0.12687 0.70027 0.0
C4002 C 0.01378 0.13885 0.79655 0.0
C4003 C 0.02863 0.15269 0.79134 0.0
C4004 C 0.00148 0.13215 0.77992 0.0
C4005 C 0.00377 0.13913 0.7577 0.0
C4006 C 0.01874 0.15275 0.75233 0.0
C4007 C 0.03101 0.15945 0.76896 0.0
H4008 H 0.79492 0.50865 0.59387 0.0
H4009 H 0.78845 0.47278 0.64501 0.0
H4010 H 0.80521 0.49666 0.56621 0.0
H4011 H 0.79881 0.46079 0.61735 0.0
H4012 H 0.80673 0.43609 0.55402 0.0
H4013 H 0.79364 0.44625 0.58019 0.0
H4014 H 0.82977 0.4952 0.56287 0.0
H4015 H 0.84243 0.48511 0.53625 0.0
C4016 C 0.79568 0.49819 0.59918 0.0
C4017 C 0.79099 0.49174 0.62168 0.0
C4018 C 0.80159 0.49133 0.58336 0.0
C4019 C 0.80299 0.47788 0.58967 0.0
C4020 C 0.79775 0.47106 0.61188 0.0
C4021 C 0.7918 0.47792 0.62772 0.0
C4022 C 0.81178 0.44901 0.55571 0.0
C4023 C 0.82566 0.45979 0.54314 0.0
C4024 C 0.80437 0.45482 0.57082 0.0
C4025 C 0.81063 0.47152 0.57353 0.0
C4026 C 0.8245 0.48226 0.56094 0.0
C4027 C 0.8319 0.47647 0.54593 0.0
H4028 H 0.49879 0.28735 0.59429 0.0
H4029 H 0.52408 0.32073 0.65026 0.0
H4030 H 0.51193 0.30926 0.56618 0.0
H4031 H 0.53723 0.34266 0.62214 0.0
H4032 H 0.54675 0.3503 0.51963 0.0
H4033 H 0.53773 0.3287 0.54841 0.0
H4034 H 0.52837 0.35742 0.5972 0.0
H4035 H 0.5373 0.37893 0.5685 0.0
C4036 C 0.50738 0.2993 0.60055 0.0
C4037 C 0.51028 0.30233 0.62452 0.0
C4038 C 0.51492 0.31187 0.58444 0.0
C4039 C 0.52554 0.32773 0.59195 0.0
C4040 C 0.5289 0.33063 0.61585 0.0
C4041 C 0.52136 0.31808 0.63194 0.0
C4042 C 0.54279 0.352 0.53653 0.0
C4043 C 0.54268 0.36631 0.54174 0.0
C4044 C 0.53764 0.33963 0.553 0.0
C4045 C 0.53229 0.34131 0.57506 0.0
C4046 C 0.53265 0.35582 0.5805 0.0
C4047 C 0.53778 0.36817 0.56403 0.0
H4048 H 0.61741 0.15728 0.57775 0.0
H4049 H 0.64633 0.19327 0.52641 0.0
H4050 H 0.63956 0.16998 0.60557 0.0
H4051 H 0.66829 0.20629 0.5545 0.0
H4052 H 0.70981 0.20923 0.6 0.0
H4053 H 0.68744 0.19969 0.57261 0.0
H4054 H 0.65523 0.19432 0.62901 0.0
H4055 H 0.67764 0.20391 0.65644 0.0
C4056 C 0.62845 0.16798 0.57248 0.0
C4057 C 0.63014 0.17421 0.54985 0.0
C4058 C 0.64108 0.17536 0.58849 0.0
C4059 C 0.6557 0.18912 0.58222 0.0
C4060 C 0.65724 0.19561 0.55978 0.0
C4061 C 0.64459 0.18825 0.54378 0.0
C4062 C 0.69803 0.2063 0.60651 0.0
C4063 C 0.69549 0.20724 0.63042 0.0
C4064 C 0.68519 0.20083 0.5908 0.0
C4065 C 0.66954 0.19617 0.59866 0.0
C4066 C 0.6671 0.19756 0.62248 0.0
C4067 C 0.67993 0.20305 0.63818 0.0
H4068 H 0.54824 0.16949 0.06537 0.0
H4069 H 0.52228 0.17777 0.01046 0.0
H4070 H 0.53836 0.1816 0.09326 0.0
H4071 H 0.51364 0.19113 0.03789 0.0
H4072 H 0.48507 0.19675 0.09687 0.0
H4073 H 0.49557 0.18554 0.06832 0.0
H4074 H 0.54049 0.2057 0.10657 0.0
H4075 H 0.52952 0.21619 0.13569 0.0
C4076 C 0.54051 0.17396 0.05916 0.0
C4077 C 0.53606 0.17255 0.03557 0.0
C4078 C 0.53505 0.18118 0.07515 0.0
C4079 C 0.52518 0.18741 0.06792 0.0
C4080 C 0.521 0.18627 0.04425 0.0
C4081 C 0.52623 0.17882 0.02836 0.0
C4082 C 0.49724 0.19889 0.09897 0.0
C4083 C 0.5065 0.20731 0.11841 0.0
C4084 C 0.50332 0.19252 0.08258 0.0
C4085 C 0.51893 0.19467 0.08505 0.0
C4086 C 0.52832 0.2035 0.10428 0.0
C4087 C 0.52211 0.20963 0.12089 0.0
H4088 H 0.83257 0.37735 0.06728 0.0
H4089 H 0.80133 0.34487 0.01404 0.0
H4090 H 0.81988 0.35591 0.0961 0.0
H4091 H 0.78846 0.3234 0.04295 0.0
H4092 H 0.78664 0.31765 0.14665 0.0
H4093 H 0.79551 0.33901 0.11754 0.0
H4094 H 0.79552 0.3065 0.06529 0.0
H4095 H 0.78646 0.28514 0.09433 0.0
C4096 C 0.82277 0.36571 0.06183 0.0
C4097 C 0.81801 0.36278 0.03838 0.0
C4098 C 0.81547 0.3534 0.07835 0.0
C4099 C 0.80318 0.3379 0.07183 0.0
C4100 C 0.79808 0.33512 0.04848 0.0
C4101 C 0.80543 0.34741 0.03193 0.0
C4102 C 0.78847 0.31508 0.12891 0.0
C4103 C 0.78594 0.29975 0.1228 0.0
C4104 C 0.79358 0.32731 0.11224 0.0
C4105 C 0.79634 0.32452 0.0891 0.0
C4106 C 0.79331 0.30902 0.08286 0.0
C4107 C 0.78813 0.29677 0.09951 0.0
H4108 H 0.65283 0.45444 0.02217 0.0
H4109 H 0.6188 0.45526 0.07084 0.0
H4110 H 0.6735 0.46463 0.0524 0.0
H4111 H 0.63925 0.4648 0.10128 0.0
H4112 H 0.68535 0.50285 0.13784 0.0
H4113 H 0.66383 0.49003 0.10927 0.0
H4114 H 0.68164 0.45819 0.08936 0.0
H4115 H 0.70327 0.47109 0.11809 0.0
C4116 C 0.64972 0.45665 0.03938 0.0
C4117 C 0.6342 0.45416 0.04404 0.0
C4118 C 0.66151 0.46232 0.05677 0.0
C4119 C 0.65806 0.46563 0.07921 0.0
C4120 C 0.64237 0.46259 0.08408 0.0
C4121 C 0.63058 0.45692 0.0667 0.0
C4122 C 0.68457 0.49297 0.12761 0.0
C4123 C 0.696 0.48795 0.13031 0.0
C4124 C 0.67221 0.4856 0.11123 0.0
C4125 C 0.67096 0.47302 0.09712 0.0
C4126 C 0.68237 0.46796 0.09982 0.0
C4127 C 0.69476 0.47535 0.11624 0.0
H4128 H 0.47089 0.84446 0.94077 0.0
H4129 H 0.44744 0.79943 0.97859 0.0
H4130 H 0.48158 0.83275 0.9129 0.0
H4131 H 0.45784 0.78758 0.95031 0.0
H4132 H 0.46706 0.77233 0.87418 0.0
H4133 H 0.45491 0.7825 0.90234 0.0
H4134 H 0.50234 0.82124 0.92075 0.0
H4135 H 0.51448 0.8109 0.8931 0.0
C4136 C 0.46783 0.83198 0.94285 0.0
C4137 C 0.45836 0.8228 0.96172 0.0
C4138 C 0.474 0.82535 0.92705 0.0
C4139 C 0.47053 0.80933 0.92961 0.0
C4140 C 0.46062 0.79995 0.94802 0.0
C4141 C 0.45473 0.80671 0.96414 0.0
C4142 C 0.47484 0.78291 0.88446 0.0
C4143 C 0.49168 0.79082 0.88164 0.0
C4144 C 0.46792 0.78868 0.9005 0.0
C4145 C 0.47774 0.80265 0.9135 0.0
C4146 C 0.49456 0.81048 0.91079 0.0
C4147 C 0.50148 0.80452 0.89515 0.0
H4148 H 0.22808 0.69832 0.87805 0.0
H4149 H 0.18301 0.69841 0.87705 0.0
H4150 H 0.21655 0.67578 0.9056 0.0
H4151 H 0.1713 0.67568 0.90379 0.0
H4152 H 0.15896 0.64551 0.96859 0.0
H4153 H 0.17202 0.66875 0.94281 0.0
H4154 H 0.19753 0.64769 0.90898 0.0
H4155 H 0.1848 0.62466 0.93556 0.0
C4156 C 0.21569 0.69346 0.88369 0.0
C4157 C 0.20649 0.70021 0.87566 0.0
C4158 C 0.20905 0.68051 0.89935 0.0
C4159 C 0.193 0.67392 0.90706 0.0
C4160 C 0.18381 0.68065 0.89874 0.0
C4161 C 0.1905 0.69367 0.88336 0.0
C4162 C 0.16733 0.64585 0.95557 0.0
C4163 C 0.17076 0.63324 0.95389 0.0
C4164 C 0.17479 0.65915 0.94073 0.0
C4165 C 0.18573 0.66007 0.92359 0.0
C4166 C 0.18933 0.6475 0.92212 0.0
C4167 C 0.18199 0.63426 0.93724 0.0
H4168 H 0.36755 0.56199 0.95318 0.0
H4169 H 0.35819 0.51328 0.96306 0.0
H4170 H 0.34405 0.55185 0.92744 0.0
H4171 H 0.33509 0.50325 0.93704 0.0
H4172 H 0.28553 0.48835 0.90906 0.0
H4173 H 0.30796 0.50015 0.93651 0.0
H4174 H 0.33553 0.53907 0.88832 0.0
H4175 H 0.31313 0.52721 0.86073 0.0
C4176 C 0.36048 0.54914 0.94985 0.0
C4177 C 0.36476 0.53844 0.96004 0.0
C4178 C 0.34712 0.54336 0.93501 0.0
C4179 C 0.33769 0.52675 0.9303 0.0
C4180 C 0.34198 0.51609 0.94056 0.0
C4181 C 0.35535 0.52186 0.95522 0.0
C4182 C 0.29637 0.49943 0.90432 0.0
C4183 C 0.2976 0.50676 0.88262 0.0
C4184 C 0.30921 0.50618 0.92004 0.0
C4185 C 0.32356 0.52044 0.91447 0.0
C4186 C 0.32457 0.52814 0.89318 0.0
C4187 C 0.31173 0.52136 0.8774 0.0
H4188 H 0.15371 0.51069 0.46272 0.0
H4189 H 0.19116 0.5603 0.45302 0.0
H4190 H 0.16562 0.5023 0.43215 0.0
H4191 H 0.203 0.55189 0.42206 0.0
H4192 H 0.17995 0.49615 0.35883 0.0
H4193 H 0.16903 0.50583 0.38909 0.0
H4194 H 0.21686 0.53526 0.41753 0.0
H4195 H 0.22789 0.52571 0.38689 0.0
C4196 C 0.16455 0.51979 0.45412 0.0
C4197 C 0.17153 0.53615 0.46028 0.0
C4198 C 0.17128 0.51501 0.43648 0.0
C4199 C 0.1852 0.52645 0.42467 0.0
C4200 C 0.19232 0.5428 0.43096 0.0
C4201 C 0.18548 0.54762 0.44852 0.0
C4202 C 0.18817 0.50484 0.37136 0.0
C4203 C 0.20478 0.51023 0.37047 0.0
C4204 C 0.18189 0.51025 0.38881 0.0
C4205 C 0.19209 0.52124 0.40571 0.0
C4206 C 0.20875 0.52686 0.40463 0.0
C4207 C 0.21503 0.52132 0.38725 0.0
H4208 H 0.46154 0.65198 0.48247 0.0
H4209 H 0.44936 0.61768 0.42655 0.0
H4210 H 0.47108 0.67392 0.45426 0.0
H4211 H 0.45942 0.6396 0.39825 0.0
H4212 H 0.50579 0.70997 0.40058 0.0
H4213 H 0.49325 0.68835 0.42914 0.0
H4214 H 0.45558 0.6595 0.37975 0.0
H4215 H 0.46854 0.68103 0.35094 0.0
C4216 C 0.46094 0.64917 0.4641 0.0
C4217 C 0.45479 0.63317 0.45666 0.0
C4218 C 0.46647 0.66173 0.44791 0.0
C4219 C 0.46619 0.6586 0.42393 0.0
C4220 C 0.45963 0.64249 0.41652 0.0
C4221 C 0.45391 0.6299 0.43272 0.0
C4222 C 0.49472 0.69907 0.39596 0.0
C4223 C 0.48816 0.69715 0.37355 0.0
C4224 C 0.48748 0.68667 0.41235 0.0
C4225 C 0.47337 0.67211 0.40681 0.0
C4226 C 0.46658 0.6704 0.38452 0.0
C4227 C 0.47395 0.68274 0.36803 0.0
H4228 H 0.34564 0.80348 0.47848 0.0
H4229 H 0.37845 0.83576 0.42638 0.0
H4230 H 0.32453 0.79076 0.44907 0.0
H4231 H 0.35733 0.82329 0.39702 0.0
H4232 H 0.28638 0.7888 0.398 0.0
H4233 H 0.30764 0.79785 0.42713 0.0
H4234 H 0.34075 0.79936 0.37463 0.0
H4235 H 0.31946 0.79052 0.3454 0.0
C4236 C 0.34832 0.80784 0.46071 0.0
C4237 C 0.36365 0.82067 0.45474 0.0
C4238 C 0.33624 0.80058 0.44387 0.0
C4239 C 0.33918 0.80607 0.4207 0.0
C4240 C 0.35469 0.8186 0.41462 0.0
C4241 C 0.3668 0.82578 0.43144 0.0
C4242 C 0.29812 0.79081 0.39276 0.0
C4243 C 0.30127 0.78902 0.3694 0.0
C4244 C 0.31032 0.79598 0.40947 0.0
C4245 C 0.32594 0.79939 0.40322 0.0
C4246 C 0.32894 0.79712 0.37996 0.0
C4247 C 0.31675 0.79203 0.36322 0.0
H4248 H 0.29689 0.13343 0.12815 0.0
H4249 H 0.28767 0.15812 0.18383 0.0
H4250 H 0.32527 0.14666 0.13931 0.0
H4251 H 0.316 0.17103 0.1954 0.0
H4252 H 0.37109 0.20541 0.18897 0.0
H4253 H 0.3424 0.19164 0.17953 0.0
H4254 H 0.34244 0.14677 0.1714 0.0
H4255 H 0.3711 0.16048 0.18105 0.0
C4256 C 0.30093 0.14167 0.1428 0.0
C4257 C 0.29007 0.14478 0.15507 0.0
C4258 C 0.31714 0.14912 0.14933 0.0
C4259 C 0.32286 0.15989 0.16823 0.0
C4260 C 0.31197 0.1629 0.18063 0.0
C4261 C 0.29573 0.15539 0.17416 0.0
C4262 C 0.36494 0.19257 0.18546 0.0
C4263 C 0.3734 0.18405 0.18572 0.0
C4264 C 0.34851 0.18469 0.18004 0.0
C4265 C 0.34018 0.16814 0.17469 0.0
C4266 C 0.34859 0.15959 0.17511 0.0
C4267 C 0.36501 0.16745 0.1806 0.0
H4268 H 0.79133 0.16522 0.19206 0.0
H4269 H 0.83326 0.20942 0.16991 0.0
H4270 H 0.80461 0.15005 0.18124 0.0
H4271 H 0.8469 0.19447 0.15995 0.0
H4272 H 0.86081 0.16169 0.12248 0.0
H4273 H 0.84699 0.17627 0.13266 0.0
H4274 H 0.82534 0.14486 0.19199 0.0
H4275 H 0.83819 0.12947 0.18072 0.0
C4276 C 0.80347 0.17168 0.18508 0.0
C4277 C 0.81127 0.18845 0.18172 0.0
C4278 C 0.81114 0.16303 0.17899 0.0
C4279 C 0.82687 0.17101 0.16972 0.0
C4280 C 0.83468 0.18785 0.16659 0.0
C4281 C 0.82692 0.19645 0.17237 0.0
C4282 C 0.8529 0.15769 0.13748 0.0
C4283 C 0.85058 0.14431 0.15068 0.0
C4284 C 0.84515 0.16625 0.14357 0.0
C4285 C 0.83506 0.16181 0.16322 0.0
C4286 C 0.83284 0.14852 0.17656 0.0
C4287 C 0.84043 0.13982 0.17029 0.0
H4288 H 0.80515 0.63204 0.21893 0.0
H4289 H 0.81485 0.6186 0.15156 0.0
H4290 H 0.82129 0.66047 0.20841 0.0
H4291 H 0.83032 0.64696 0.14066 0.0
H4292 H 0.87181 0.69889 0.13876 0.0
H4293 H 0.85576 0.67062 0.15005 0.0
H4294 H 0.82101 0.68053 0.18299 0.0
H4295 H 0.83719 0.70888 0.17184 0.0
C4296 C 0.81071 0.63515 0.20186 0.0
C4297 C 0.80876 0.62304 0.18612 0.0
C4298 C 0.8198 0.65144 0.19574 0.0
C4299 C 0.82713 0.65599 0.17372 0.0
C4300 C 0.82502 0.64388 0.15788 0.0
C4301 C 0.81597 0.6276 0.16402 0.0
C4302 C 0.86069 0.695 0.14831 0.0
C4303 C 0.85572 0.70608 0.15434 0.0
C4304 C 0.85148 0.67881 0.15474 0.0
C4305 C 0.83705 0.6733 0.1673 0.0
C4306 C 0.83216 0.68442 0.17356 0.0
C4307 C 0.84142 0.70065 0.16718 0.0
H4308 H 0.1939 0.3694 0.28175 0.0
H4309 H 0.17592 0.37874 0.34543 0.0
H4310 H 0.18024 0.34067 0.29128 0.0
H4311 H 0.1623 0.3501 0.35491 0.0
H4312 H 0.12561 0.29636 0.35146 0.0
H4313 H 0.13952 0.32487 0.34096 0.0
H4314 H 0.18116 0.32179 0.31936 0.0
H4315 H 0.16725 0.29326 0.3299 0.0
C4316 C 0.18718 0.36535 0.29789 0.0
C4317 C 0.18593 0.37634 0.31278 0.0
C4318 C 0.17934 0.3489 0.30333 0.0
C4319 C 0.17009 0.3431 0.32377 0.0
C4320 C 0.16905 0.35413 0.3388 0.0
C4321 C 0.17688 0.37055 0.33338 0.0
C4322 C 0.13776 0.30178 0.34459 0.0
C4323 C 0.14534 0.29255 0.34159 0.0
C4324 C 0.14574 0.31812 0.33858 0.0
C4325 C 0.16148 0.32561 0.32945 0.0
C4326 C 0.16897 0.31633 0.32611 0.0
C4327 C 0.16099 0.29998 0.33213 0.0
H4328 H 0.63295 0.811 0.2822 0.0
H4329 H 0.61899 0.81269 0.35332 0.0
H4330 H 0.66129 0.82693 0.29326 0.0
H4331 H 0.64737 0.8281 0.36439 0.0
H4332 H 0.69975 0.83846 0.37687 0.0
H4333 H 0.67135 0.82314 0.366 0.0
H4334 H 0.68037 0.85559 0.30844 0.0
H4335 H 0.7087 0.87135 0.3197 0.0
C4336 C 0.63587 0.81483 0.30014 0.0
C4337 C 0.62362 0.81055 0.31684 0.0
C4338 C 0.65212 0.82391 0.30646 0.0
C4339 C 0.65648 0.82872 0.32966 0.0
C4340 C 0.64431 0.82438 0.34641 0.0
C4341 C 0.62805 0.81548 0.34006 0.0
C4342 C 0.69569 0.84253 0.36211 0.0
C4343 C 0.70657 0.85621 0.34922 0.0
C4344 C 0.67942 0.83369 0.35585 0.0
C4345 C 0.6737 0.83819 0.33639 0.0
C4346 C 0.68453 0.85177 0.32338 0.0
C4347 C 0.70077 0.86074 0.3298 0.0
H4348 H 0.18378 0.80245 0.35149 0.0
H4349 H 0.18828 0.82158 0.28195 0.0
H4350 H 0.16889 0.8157 0.36338 0.0
H4351 H 0.17237 0.83381 0.29338 0.0
H4352 H 0.15836 0.86804 0.3272 0.0
H4353 H 0.1738 0.85522 0.31552 0.0
H4354 H 0.14366 0.81427 0.35942 0.0
H4355 H 0.12867 0.82746 0.37166 0.0
C4356 C 0.18159 0.80946 0.3387 0.0
C4357 C 0.18729 0.81095 0.31575 0.0
C4358 C 0.17282 0.81686 0.34544 0.0
C4359 C 0.16936 0.82581 0.32934 0.0
C4360 C 0.17498 0.82721 0.30636 0.0
C4361 C 0.1839 0.81996 0.29969 0.0
C4362 C 0.15504 0.85627 0.33424 0.0
C4363 C 0.14237 0.84874 0.35034 0.0
C4364 C 0.16382 0.84888 0.3275 0.0
C4365 C 0.15999 0.83368 0.33651 0.0
C4366 C 0.14717 0.8261 0.35246 0.0
C4367 C 0.13852 0.8336 0.35941 0.0
H4368 H 0.70758 0.83296 0.8402 0.0
H4369 H 0.70229 0.87113 0.8713 0.0
H4370 H 0.67906 0.81873 0.82976 0.0
H4371 H 0.67385 0.85721 0.86029 0.0
H4372 H 0.62021 0.82142 0.85607 0.0
H4373 H 0.64826 0.83425 0.86847 0.0
H4374 H 0.66086 0.82044 0.80355 0.0
H4375 H 0.63269 0.80673 0.79185 0.0
C4376 C 0.70031 0.83836 0.8446 0.0
C4377 C 0.70712 0.85315 0.85648 0.0
C4378 C 0.68398 0.83025 0.83858 0.0
C4379 C 0.67413 0.83684 0.84409 0.0
C4380 C 0.68099 0.85164 0.85609 0.0
C4381 C 0.69729 0.85966 0.86233 0.0
C4382 C 0.62891 0.82088 0.84461 0.0
C4383 C 0.62416 0.81303 0.82295 0.0
C4384 C 0.64506 0.82845 0.85158 0.0
C4385 C 0.65687 0.82845 0.83699 0.0
C4386 C 0.65209 0.82052 0.81538 0.0
C4387 C 0.63594 0.81285 0.80851 0.0
H4388 H 0.17095 0.80612 0.78694 0.0
H4389 H 0.18126 0.80008 0.85826 0.0
H4390 H 0.15767 0.82082 0.80018 0.0
H4391 H 0.1677 0.81456 0.87156 0.0
H4392 H 0.16274 0.86043 0.88001 0.0
H4393 H 0.17362 0.84308 0.86907 0.0
H4394 H 0.1335 0.81675 0.82219 0.0
H4395 H 0.12277 0.83431 0.83281 0.0
C4396 C 0.1703 0.80788 0.80546 0.0
C4397 C 0.17721 0.80204 0.82156 0.0
C4398 C 0.16256 0.81614 0.81305 0.0
C4399 C 0.16166 0.81884 0.83691 0.0
C4400 C 0.16832 0.81276 0.85306 0.0
C4401 C 0.17596 0.80437 0.84546 0.0
C4402 C 0.15624 0.85091 0.8674 0.0
C4403 C 0.14197 0.84878 0.85715 0.0
C4404 C 0.16238 0.84089 0.86131 0.0
C4405 C 0.15443 0.82859 0.84473 0.0
C4406 C 0.13995 0.82622 0.83487 0.0
C4407 C 0.13375 0.83618 0.84109 0.0
H4408 H 0.16459 0.37039 0.80854 0.0
H4409 H 0.20846 0.37288 0.83319 0.0
H4410 H 0.14948 0.34181 0.81852 0.0
H4411 H 0.19329 0.34429 0.84333 0.0
H4412 H 0.15682 0.29709 0.88052 0.0
H4413 H 0.1724 0.32576 0.87089 0.0
H4414 H 0.14724 0.31635 0.80524 0.0
H4415 H 0.13176 0.28772 0.81474 0.0
C4416 C 0.17103 0.36482 0.81594 0.0
C4417 C 0.18775 0.37392 0.82 0.0
C4418 C 0.16237 0.34845 0.82167 0.0
C4419 C 0.17021 0.34079 0.83164 0.0
C4420 C 0.18688 0.3499 0.83592 0.0
C4421 C 0.19556 0.36628 0.83014 0.0
C4422 C 0.15475 0.30111 0.86392 0.0
C4423 C 0.14301 0.29012 0.84843 0.0
C4424 C 0.16366 0.31754 0.85842 0.0
C4425 C 0.16099 0.32332 0.83736 0.0
C4426 C 0.14937 0.31231 0.82179 0.0
C4427 C 0.1405 0.2959 0.82724 0.0
H4428 H 0.87057 0.71169 0.66663 0.0
H4429 H 0.83044 0.69922 0.62028 0.0
H4430 H 0.85889 0.68336 0.67742 0.0
H4431 H 0.81846 0.671 0.63175 0.0
H4432 H 0.80908 0.61971 0.64101 0.0
H4433 H 0.82237 0.64783 0.62842 0.0
H4434 H 0.83586 0.66333 0.69961 0.0
H4435 H 0.82314 0.63524 0.71205 0.0
C4436 C 0.85931 0.70289 0.65864 0.0
C4437 C 0.85141 0.70772 0.64265 0.0
C4438 C 0.85252 0.68669 0.66502 0.0
C4439 C 0.8377 0.67494 0.65553 0.0
C4440 C 0.82995 0.67973 0.63923 0.0
C4441 C 0.83673 0.69593 0.63287 0.0
C4442 C 0.81505 0.62912 0.65392 0.0
C4443 C 0.81503 0.62524 0.67754 0.0
C4444 C 0.82252 0.64523 0.64675 0.0
C4445 C 0.83015 0.65781 0.66301 0.0
C4446 C 0.83024 0.65392 0.6866 0.0
C4447 C 0.82277 0.63783 0.69377 0.0
H4448 H 0.29458 0.12678 0.64009 0.0
H4449 H 0.29087 0.1699 0.64431 0.0
H4450 H 0.32318 0.14249 0.64993 0.0
H4451 H 0.31962 0.1857 0.65375 0.0
H4452 H 0.36522 0.20223 0.69967 0.0
H4453 H 0.33702 0.18762 0.68735 0.0
H4454 H 0.34909 0.16404 0.63332 0.0
H4455 H 0.37726 0.17842 0.64595 0.0
C4456 C 0.2999 0.13963 0.6431 0.0
C4457 C 0.29049 0.14711 0.64156 0.0
C4458 C 0.3163 0.14864 0.64849 0.0
C4459 C 0.32362 0.16532 0.6526 0.0
C4460 C 0.31425 0.17284 0.65083 0.0
C4461 C 0.29785 0.16383 0.64526 0.0
C4462 C 0.36182 0.19389 0.68521 0.0
C4463 C 0.3734 0.19139 0.67386 0.0
C4464 C 0.34573 0.18566 0.678 0.0
C4465 C 0.34086 0.17468 0.65939 0.0
C4466 C 0.35248 0.17233 0.64785 0.0
C4467 C 0.3686 0.18065 0.65495 0.0
H4468 H 0.87251 0.16695 0.65701 0.0
H4469 H 0.82849 0.12388 0.6373 0.0
H4470 H 0.85696 0.18004 0.66747 0.0
H4471 H 0.8129 0.1369 0.64804 0.0
H4472 H 0.79288 0.16107 0.69978 0.0
H4473 H 0.80782 0.14769 0.68754 0.0
H4474 H 0.83873 0.18883 0.64472 0.0
H4475 H 0.82366 0.20213 0.65675 0.0
C4476 C 0.8595 0.1603 0.65501 0.0
C4477 C 0.85165 0.14444 0.64641 0.0
C4478 C 0.85065 0.1678 0.66082 0.0
C4479 C 0.83377 0.15945 0.65852 0.0
C4480 C 0.82591 0.14354 0.65004 0.0
C4481 C 0.8348 0.13615 0.64382 0.0
C4482 C 0.80284 0.16719 0.68771 0.0
C4483 C 0.80717 0.1826 0.67919 0.0
C4484 C 0.8113 0.15953 0.68063 0.0
C4485 C 0.82441 0.16728 0.66525 0.0
C4486 C 0.82871 0.18267 0.65669 0.0
C4487 C 0.82007 0.19021 0.66344 0.0
H4488 H 0.03753 0.49369 0.51274 0.0
H4489 H 0.03642 0.53738 0.52742 0.0
H4490 H 0.0089 0.4801 0.50198 0.0
H4491 H 0.00785 0.52388 0.51624 0.0
H4492 H 0.96441 0.49773 0.4635 0.0
H4493 H 0.99269 0.51125 0.47594 0.0
H4494 H 0.98145 0.47265 0.52462 0.0
H4495 H 0.95305 0.45925 0.51247 0.0
C4496 C 0.03113 0.50035 0.51358 0.0
C4497 C 0.03908 0.51654 0.52084 0.0
C4498 C 0.0148 0.49259 0.50758 0.0
C4499 C 0.00627 0.50099 0.50831 0.0
C4500 C 0.01424 0.5172 0.51548 0.0
C4501 C 0.03049 0.52487 0.52194 0.0
C4502 C 0.96802 0.49217 0.47686 0.0
C4503 C 0.95665 0.47748 0.48705 0.0
C4504 C 0.98412 0.49993 0.48403 0.0
C4505 C 0.98916 0.49295 0.50119 0.0
C4506 C 0.97781 0.4782 0.51129 0.0
C4507 C 0.96163 0.4706 0.50444 0.0
H4508 H 0.5004 0.54238 0.50902 0.0
H4509 H 0.46012 0.49848 0.53562 0.0
H4510 H 0.51449 0.5278 0.49953 0.0
H4511 H 0.47391 0.48367 0.52545 0.0
H4512 H 0.50812 0.46389 0.52137 0.0
H4513 H 0.49587 0.47956 0.53438 0.0
H4514 H 0.51307 0.50874 0.47211 0.0
H4515 H 0.52619 0.49384 0.45993 0.0
C4516 C 0.49455 0.52957 0.5127 0.0
C4517 C 0.47916 0.52152 0.52292 0.0
C4518 C 0.50257 0.52118 0.50719 0.0
C4519 C 0.4953 0.50451 0.51153 0.0
C4520 C 0.47999 0.49654 0.52215 0.0
C4521 C 0.47204 0.50499 0.5279 0.0
C4522 C 0.50953 0.47384 0.51066 0.0
C4523 C 0.51813 0.47757 0.48956 0.0
C4524 C 0.50231 0.48268 0.51797 0.0
C4525 C 0.50342 0.4954 0.50429 0.0
C4526 C 0.51213 0.49918 0.48329 0.0
C4527 C 0.51945 0.49045 0.47609 0.0
H4528 H 0.53386 0.0424 0.51591 0.0
H4529 H 0.49978 0.03377 0.46064 0.0
H4530 H 0.51851 0.01415 0.5269 0.0
H4531 H 0.48525 0.00528 0.47032 0.0
H4532 H 0.45353 0.95744 0.50615 0.0
H4533 H 0.46798 0.98622 0.49727 0.0
H4534 H 0.51307 0.98857 0.51499 0.0
H4535 H 0.49838 0.95995 0.52495 0.0
C4536 C 0.52308 0.03452 0.5061 0.0
C4537 C 0.51811 0.04046 0.48734 0.0
C4538 C 0.51441 0.0182 0.51217 0.0
C4539 C 0.50067 0.00731 0.49942 0.0
C4540 C 0.49564 0.01328 0.48076 0.0
C4541 C 0.50416 0.02964 0.47493 0.0
C4542 C 0.46654 0.96418 0.50808 0.0
C4543 C 0.47488 0.95656 0.51619 0.0
C4544 C 0.47485 0.98065 0.5029 0.0
C4545 C 0.49174 0.98981 0.50535 0.0
C4546 C 0.50006 0.98205 0.51333 0.0
C4547 C 0.49169 0.96563 0.51889 0.0
H4548 H 0.49686 0.03699 0.98838 0.0
H4549 H 0.54096 0.03712 0.97203 0.0
H4550 H 0.48431 0.00878 6e-05 0.0
H4551 H 0.52864 0.00899 0.98439 0.0
H4552 H 0.49672 0.95425 0.98763 0.0
H4553 H 0.50888 0.98209 0.97438 0.0
H4554 H 0.48504 0.99235 0.03021 0.0
H4555 H 0.47206 0.96434 0.04245 0.0
C4556 C 0.5039 0.03098 0.98751 0.0
C4557 C 0.51989 0.03923 0.97939 0.0
C4558 C 0.49675 0.01483 0.99427 0.0
C4559 C 0.50548 0.00659 0.99333 0.0
C4560 C 0.52147 0.01486 0.98504 0.0
C4561 C 0.52857 0.03099 0.97803 0.0
C4562 C 0.4939 0.96239 0.99689 0.0
C4563 C 0.48336 0.95699 0.0161 0.0
C4564 C 0.50106 0.97844 0.98948 0.0
C4565 C 0.49796 0.98951 0.0012 0.0
C4566 C 0.48754 0.98413 0.02053 0.0
C4567 C 0.48027 0.96808 0.0278 0.0
H4568 H 0.95598 0.45308 0.9909 0.0
H4569 H 0.95815 0.49834 0.97621 0.0
H4570 H 0.98469 0.46743 0.00032 0.0
H4571 H 0.98665 0.5129 0.98677 0.0
H4572 H 0.0405 0.53414 0.98538 0.0
H4573 H 0.01228 0.51905 0.97439 0.0
H4574 H 0.0037 0.48381 0.02789 0.0
H4575 H 0.03221 0.49812 0.03744 0.0
C4576 C 0.96262 0.46615 0.99002 0.0
C4577 C 0.95495 0.47465 0.98284 0.0
C4578 C 0.97905 0.47441 0.99551 0.0
C4579 C 0.98808 0.49138 0.99433 0.0
C4580 C 0.98023 0.49984 0.9874 0.0
C4581 C 0.96388 0.49154 0.98151 0.0
C4582 C 0.0327 0.52299 0.9945 0.0
C4583 C 0.03875 0.51739 0.01232 0.0
C4584 C 0.01638 0.51446 0.98846 0.0
C4585 C 0.00558 0.50023 0.00034 0.0
C4586 C 0.01163 0.4946 0.01812 0.0
C4587 C 0.02801 0.50299 0.02389 0.0
H4588 H 0.53865 0.50203 0.96186 0.0
H4589 H 0.50298 0.4583 0.99578 0.0
H4590 H 0.52295 0.51495 0.97142 0.0
H4591 H 0.48731 0.47125 0.00553 0.0
H4592 H 0.45622 0.49493 0.00139 0.0
H4593 H 0.47117 0.4818 0.98871 0.0
H4594 H 0.51602 0.52494 0.00563 0.0
H4595 H 0.50113 0.53828 0.01731 0.0
C4596 C 0.52748 0.49521 0.97146 0.0
C4597 C 0.52209 0.47918 0.9782 0.0
C4598 C 0.51849 0.50261 0.97695 0.0
C4599 C 0.50392 0.49417 0.98936 0.0
C4600 C 0.49838 0.47803 0.9957 0.0
C4601 C 0.50736 0.47061 0.99015 0.0
C4602 C 0.46928 0.50168 0.00209 0.0
C4603 C 0.47748 0.51765 0.01038 0.0
C4604 C 0.47784 0.49409 0.99508 0.0
C4605 C 0.49478 0.50231 0.99619 0.0
C4606 C 0.50298 0.51832 0.0043 0.0
C4607 C 0.49443 0.52591 0.01128 0.0
loop_
_geom_bond_atom_site_label_1
_geom_bond_atom_site_label_2
_geom_bond_distance
_geom_bond_site_symmetry_2
_ccdc_geom_bond_type
Li0 N17 1.990 . S
Li0 O60 1.956 . S
Li0 O61 1.970 . S
Li0 O62 1.961 . S
Li1 N25 1.990 . S
Li1 O60 1.970 . S
Li1 O61 1.956 . S
Li1 O63 1.961 . S
Li2 N47 1.990 . S
Li2 O60 1.961 . S
Li2 O62 1.956 . S
Li2 O63 1.970 . S
Li3 N53 1.990 . S
Li3 O61 1.961 . S
Li3 O62 1.970 . S
Li3 O63 1.956 . S
C4 C6 1.348 . S
C4 C7 1.356 . S
C4 O60 1.325 . S
N5 C8 1.314 . S
N5 C9 1.279 . S
C6 C4 1.348 . S
C6 C8 1.353 . S
C6 H64 0.929 . S
C7 C4 1.356 . S
C7 C9 1.358 . S
C7 H65 0.930 . S
C8 N5 1.314 . S
C8 C6 1.353 . S
C8 H66 0.930 . S
C9 N5 1.279 . S
C9 C7 1.358 . S
C9 H67 0.930 . S
C10 C13 1.348 . S
C10 C14 1.356 . S
C10 O61 1.325 . S
C11 N12 1.279 . S
C11 C14 1.358 . S
C11 H68 0.930 . S
N12 C11 1.279 . S
N12 C15 1.314 . S
C13 C10 1.348 . S
C13 C15 1.353 . S
C13 H69 0.929 . S
C14 C10 1.356 . S
C14 C11 1.358 . S
C14 H70 0.930 . S
C15 N12 1.314 . S
C15 C13 1.353 . S
C15 H71 0.930 . S
C16 N17 1.314 . S
C16 C21 1.353 . S
C16 H22 0.930 . S
N17 Li0 1.990 . S
N17 C16 1.314 . S
N17 C19 1.279 . S
C18 C19 1.358 . S
C18 C20 1.356 . S
C18 H72 0.930 . S
C19 N17 1.279 . S
C19 C18 1.358 . S
C19 H23 0.930 . S
C20 C18 1.356 . S
C20 C21 1.348 . S
C21 C16 1.353 . S
C21 C20 1.348 . S
C21 H73 0.929 . S
H22 C16 0.930 . S
H23 C19 0.930 . S
C24 N25 1.314 . S
C24 C26 1.353 . S
C24 H30 0.930 . S
N25 Li1 1.990 . S
N25 C24 1.314 . S
N25 C28 1.279 . S
C26 C24 1.353 . S
C26 C29 1.348 . S
C26 H74 0.929 . S
C27 C28 1.358 . S
C27 C29 1.356 . S
C27 H75 0.930 . S
C28 N25 1.279 . S
C28 C27 1.358 . S
C28 H31 0.930 . S
C29 C26 1.348 . S
C29 C27 1.356 . S
H30 C24 0.930 . S
H31 C28 0.930 . S
C32 C34 1.348 . S
C32 C35 1.356 . S
C32 O62 1.325 . S
N33 C36 1.314 . S
N33 C37 1.279 . S
C34 C32 1.348 . S
C34 C36 1.353 . S
C34 H76 0.929 . S
C35 C32 1.356 . S
C35 C37 1.358 . S
C35 H77 0.930 . S
C36 N33 1.314 . S
C36 C34 1.353 . S
C36 H78 0.930 . S
C37 N33 1.279 . S
C37 C35 1.358 . S
C37 H79 0.930 . S
C38 C39 1.348 . S
C38 C40 1.356 . S
C38 O63 1.325 . S
C39 C38 1.348 . S
C39 C41 1.353 . S
C39 H80 0.929 . S
C40 C38 1.356 . S
C40 C42 1.358 . S
C40 H81 0.930 . S
C41 C39 1.353 . S
C41 N43 1.314 . S
C41 H82 0.930 . S
C42 C40 1.358 . S
C42 N43 1.279 . S
C42 H83 0.930 . S
N43 C41 1.314 . S
N43 C42 1.279 . S
C44 C46 1.353 . S
C44 N47 1.314 . S
C44 H50 0.930 . S
C45 N47 1.279 . S
C45 C48 1.358 . S
C45 H51 0.930 . S
C46 C44 1.353 . S
C46 C49 1.348 . S
C46 H84 0.929 . S
N47 Li2 1.990 . S
N47 C44 1.314 . S
N47 C45 1.279 . S
C48 C45 1.358 . S
C48 C49 1.356 . S
C48 H85 0.930 . S
C49 C46 1.348 . S
C49 C48 1.356 . S
H50 C44 0.930 . S
H51 C45 0.930 . S
C52 N53 1.314 . S
C52 C54 1.353 . S
C52 H58 0.930 . S
N53 Li3 1.990 . S
N53 C52 1.314 . S
N53 C56 1.279 . S
C54 C52 1.353 . S
C54 C57 1.348 . S
C54 H86 0.929 . S
C55 C56 1.358 . S
C55 C57 1.356 . S
C55 H87 0.930 . S
C56 N53 1.279 . S
C56 C55 1.358 . S
C56 H59 0.930 . S
C57 C54 1.348 . S
C57 C55 1.356 . S
H58 C52 0.930 . S
H59 C56 0.930 . S
O60 Li0 1.956 . S
O60 Li1 1.970 . S
O60 Li2 1.961 . S
O60 C4 1.325 . S
O61 Li0 1.970 . S
O61 Li1 1.956 . S
O61 Li3 1.961 . S
O61 C10 1.325 . S
O62 Li0 1.961 . S
O62 Li2 1.956 . S
O62 Li3 1.970 . S
O62 C32 1.325 . S
O63 Li1 1.961 . S
O63 Li2 1.970 . S
O63 Li3 1.956 . S
O63 C38 1.325 . S
H64 C6 0.929 . S
H65 C7 0.930 . S
H66 C8 0.930 . S
H67 C9 0.930 . S
H68 C11 0.930 . S
H69 C13 0.929 . S
H70 C14 0.930 . S
H71 C15 0.930 . S
H72 C18 0.930 . S
H73 C21 0.929 . S
H74 C26 0.929 . S
H75 C27 0.930 . S
H76 C34 0.929 . S
H77 C35 0.930 . S
H78 C36 0.930 . S
H79 C37 0.930 . S
H80 C39 0.929 . S
H81 C40 0.930 . S
H82 C41 0.930 . S
H83 C42 0.930 . S
H84 C46 0.929 . S
H85 C48 0.930 . S
H86 C54 0.929 . S
H87 C55 0.930 . S
Li88 N105 1.990 . S
Li88 O148 1.956 . S
Li88 O149 1.970 . S
Li88 O150 1.961 . S
Li89 N113 1.990 . S
Li89 O148 1.970 . S
Li89 O149 1.956 . S
Li89 O151 1.961 . S
Li90 N135 1.990 . S
Li90 O148 1.961 . S
Li90 O150 1.956 . S
Li90 O151 1.970 . S
Li91 N141 1.990 . S
Li91 O149 1.961 . S
Li91 O150 1.970 . S
Li91 O151 1.956 . S
C92 C94 1.348 . S
C92 C95 1.356 . S
C92 O148 1.325 . S
N93 C96 1.314 . S
N93 C97 1.279 . S
C94 C92 1.348 . S
C94 C96 1.353 . S
C94 H152 0.929 . S
C95 C92 1.356 . S
C95 C97 1.358 . S
C95 H153 0.930 . S
C96 N93 1.314 . S
C96 C94 1.353 . S
C96 H154 0.930 . S
C97 N93 1.279 . S
C97 C95 1.358 . S
C97 H155 0.930 . S
C98 C101 1.348 . S
C98 C102 1.356 . S
C98 O149 1.325 . S
C99 N100 1.279 . S
C99 C102 1.358 . S
C99 H156 0.930 . S
N100 C99 1.279 . S
N100 C103 1.314 . S
C101 C98 1.348 . S
C101 C103 1.353 . S
C101 H157 0.929 . S
C102 C98 1.356 . S
C102 C99 1.358 . S
C102 H158 0.930 . S
C103 N100 1.314 . S
C103 C101 1.353 . S
C103 H159 0.930 . S
C104 N105 1.314 . S
C104 C109 1.353 . S
C104 H110 0.930 . S
N105 Li88 1.990 . S
N105 C104 1.314 . S
N105 C107 1.279 . S
C106 C107 1.358 . S
C106 C108 1.356 . S
C106 H160 0.930 . S
C107 N105 1.279 . S
C107 C106 1.358 . S
C107 H111 0.930 . S
C108 C106 1.356 . S
C108 C109 1.348 . S
C109 C104 1.353 . S
C109 C108 1.348 . S
C109 H161 0.929 . S
H110 C104 0.930 . S
H111 C107 0.930 . S
C112 N113 1.314 . S
C112 C114 1.353 . S
C112 H118 0.930 . S
N113 Li89 1.990 . S
N113 C112 1.314 . S
N113 C116 1.279 . S
C114 C112 1.353 . S
C114 C117 1.348 . S
C114 H162 0.929 . S
C115 C116 1.358 . S
C115 C117 1.356 . S
C115 H163 0.930 . S
C116 N113 1.279 . S
C116 C115 1.358 . S
C116 H119 0.930 . S
C117 C114 1.348 . S
C117 C115 1.356 . S
H118 C112 0.930 . S
H119 C116 0.930 . S
C120 C122 1.348 . S
C120 C123 1.356 . S
C120 O150 1.325 . S
N121 C124 1.314 . S
N121 C125 1.279 . S
C122 C120 1.348 . S
C122 C124 1.353 . S
C122 H164 0.929 . S
C123 C120 1.356 . S
C123 C125 1.358 . S
C123 H165 0.930 . S
C124 N121 1.314 . S
C124 C122 1.353 . S
C124 H166 0.930 . S
C125 N121 1.279 . S
C125 C123 1.358 . S
C125 H167 0.930 . S
C126 C127 1.348 . S
C126 C128 1.356 . S
C126 O151 1.325 . S
C127 C126 1.348 . S
C127 C129 1.353 . S
C127 H168 0.929 . S
C128 C126 1.356 . S
C128 C130 1.358 . S
C128 H169 0.930 . S
C129 C127 1.353 . S
C129 N131 1.314 . S
C129 H170 0.930 . S
C130 C128 1.358 . S
C130 N131 1.279 . S
C130 H171 0.930 . S
N131 C129 1.314 . S
N131 C130 1.279 . S
C132 C134 1.353 . S
C132 N135 1.314 . S
C132 H138 0.930 . S
C133 N135 1.279 . S
C133 C136 1.358 . S
C133 H139 0.930 . S
C134 C132 1.353 . S
C134 C137 1.348 . S
C134 H172 0.929 . S
N135 Li90 1.990 . S
N135 C132 1.314 . S
N135 C133 1.279 . S
C136 C133 1.358 . S
C136 C137 1.356 . S
C136 H173 0.930 . S
C137 C134 1.348 . S
C137 C136 1.356 . S
H138 C132 0.930 . S
H139 C133 0.930 . S
C140 N141 1.314 . S
C140 C142 1.353 . S
C140 H146 0.930 . S
N141 Li91 1.990 . S
N141 C140 1.314 . S
N141 C144 1.279 . S
C142 C140 1.353 . S
C142 C145 1.348 . S
C142 H174 0.929 . S
C143 C144 1.358 . S
C143 C145 1.356 . S
C143 H175 0.930 . S
C144 N141 1.279 . S
C144 C143 1.358 . S
C144 H147 0.930 . S
C145 C142 1.348 . S
C145 C143 1.356 . S
H146 C140 0.930 . S
H147 C144 0.930 . S
O148 Li88 1.956 . S
O148 Li89 1.970 . S
O148 Li90 1.961 . S
O148 C92 1.325 . S
O149 Li88 1.970 . S
O149 Li89 1.956 . S
O149 Li91 1.961 . S
O149 C98 1.325 . S
O150 Li88 1.961 . S
O150 Li90 1.956 . S
O150 Li91 1.970 . S
O150 C120 1.325 . S
O151 Li89 1.961 . S
O151 Li90 1.970 . S
O151 Li91 1.956 . S
O151 C126 1.325 . S
H152 C94 0.929 . S
H153 C95 0.930 . S
H154 C96 0.930 . S
H155 C97 0.930 . S
H156 C99 0.930 . S
H157 C101 0.929 . S
H158 C102 0.930 . S
H159 C103 0.930 . S
H160 C106 0.930 . S
H161 C109 0.929 . S
H162 C114 0.929 . S
H163 C115 0.930 . S
H164 C122 0.929 . S
H165 C123 0.930 . S
H166 C124 0.930 . S
H167 C125 0.930 . S
H168 C127 0.929 . S
H169 C128 0.930 . S
H170 C129 0.930 . S
H171 C130 0.930 . S
H172 C134 0.929 . S
H173 C136 0.930 . S
H174 C142 0.929 . S
H175 C143 0.930 . S
Li176 N193 1.990 . S
Li176 O236 1.956 . S
Li176 O237 1.970 . S
Li176 O238 1.961 . S
Li177 N201 1.990 . S
Li177 O236 1.970 . S
Li177 O237 1.956 . S
Li177 O239 1.961 . S
Li178 N223 1.990 . S
Li178 O236 1.961 . S
Li178 O238 1.956 . S
Li178 O239 1.970 . S
Li179 N229 1.990 . S
Li179 O237 1.961 . S
Li179 O238 1.970 . S
Li179 O239 1.956 . S
C180 C182 1.348 . S
C180 C183 1.356 . S
C180 O236 1.325 . S
N181 C184 1.314 . S
N181 C185 1.279 . S
C182 C180 1.348 . S
C182 C184 1.353 . S
C182 H240 0.929 . S
C183 C180 1.356 . S
C183 C185 1.358 . S
C183 H241 0.930 . S
C184 N181 1.314 . S
C184 C182 1.353 . S
C184 H242 0.930 . S
C185 N181 1.279 . S
C185 C183 1.358 . S
C185 H243 0.930 . S
C186 C189 1.348 . S
C186 C190 1.356 . S
C186 O237 1.325 . S
C187 N188 1.279 . S
C187 C190 1.358 . S
C187 H244 0.930 . S
N188 C187 1.279 . S
N188 C191 1.314 . S
C189 C186 1.348 . S
C189 C191 1.353 . S
C189 H245 0.929 . S
C190 C186 1.356 . S
C190 C187 1.358 . S
C190 H246 0.930 . S
C191 N188 1.314 . S
C191 C189 1.353 . S
C191 H247 0.930 . S
C192 N193 1.314 . S
C192 C197 1.353 . S
C192 H198 0.930 . S
N193 Li176 1.990 . S
N193 C192 1.314 . S
N193 C195 1.279 . S
C194 C195 1.358 . S
C194 C196 1.356 . S
C194 H248 0.930 . S
C195 N193 1.279 . S
C195 C194 1.358 . S
C195 H199 0.930 . S
C196 C194 1.356 . S
C196 C197 1.348 . S
C197 C192 1.353 . S
C197 C196 1.348 . S
C197 H249 0.929 . S
H198 C192 0.930 . S
H199 C195 0.930 . S
C200 N201 1.314 . S
C200 C202 1.353 . S
C200 H206 0.930 . S
N201 Li177 1.990 . S
N201 C200 1.314 . S
N201 C204 1.279 . S
C202 C200 1.353 . S
C202 C205 1.348 . S
C202 H250 0.929 . S
C203 C204 1.358 . S
C203 C205 1.356 . S
C203 H251 0.930 . S
C204 N201 1.279 . S
C204 C203 1.358 . S
C204 H207 0.930 . S
C205 C202 1.348 . S
C205 C203 1.356 . S
H206 C200 0.930 . S
H207 C204 0.930 . S
C208 C210 1.348 . S
C208 C211 1.356 . S
C208 O238 1.325 . S
N209 C212 1.314 . S
N209 C213 1.279 . S
C210 C208 1.348 . S
C210 C212 1.353 . S
C210 H252 0.929 . S
C211 C208 1.356 . S
C211 C213 1.358 . S
C211 H253 0.930 . S
C212 N209 1.314 . S
C212 C210 1.353 . S
C212 H254 0.930 . S
C213 N209 1.279 . S
C213 C211 1.358 . S
C213 H255 0.930 . S
C214 C215 1.348 . S
C214 C216 1.356 . S
C214 O239 1.325 . S
C215 C214 1.348 . S
C215 C217 1.353 . S
C215 H256 0.929 . S
C216 C214 1.356 . S
C216 C218 1.358 . S
C216 H257 0.930 . S
C217 C215 1.353 . S
C217 N219 1.314 . S
C217 H258 0.930 . S
C218 C216 1.358 . S
C218 N219 1.279 . S
C218 H259 0.930 . S
N219 C217 1.314 . S
N219 C218 1.279 . S
C220 C222 1.353 . S
C220 N223 1.314 . S
C220 H226 0.930 . S
C221 N223 1.279 . S
C221 C224 1.358 . S
C221 H227 0.930 . S
C222 C220 1.353 . S
C222 C225 1.348 . S
C222 H260 0.929 . S
N223 Li178 1.990 . S
N223 C220 1.314 . S
N223 C221 1.279 . S
C224 C221 1.358 . S
C224 C225 1.356 . S
C224 H261 0.930 . S
C225 C222 1.348 . S
C225 C224 1.356 . S
H226 C220 0.930 . S
H227 C221 0.930 . S
C228 N229 1.314 . S
C228 C230 1.353 . S
C228 H234 0.930 . S
N229 Li179 1.990 . S
N229 C228 1.314 . S
N229 C232 1.279 . S
C230 C228 1.353 . S
C230 C233 1.348 . S
C230 H262 0.929 . S
C231 C232 1.358 . S
C231 C233 1.356 . S
C231 H263 0.930 . S
C232 N229 1.279 . S
C232 C231 1.358 . S
C232 H235 0.930 . S
C233 C230 1.348 . S
C233 C231 1.356 . S
H234 C228 0.930 . S
H235 C232 0.930 . S
O236 Li176 1.956 . S
O236 Li177 1.970 . S
O236 Li178 1.961 . S
O236 C180 1.325 . S
O237 Li176 1.970 . S
O237 Li177 1.956 . S
O237 Li179 1.961 . S
O237 C186 1.325 . S
O238 Li176 1.961 . S
O238 Li178 1.956 . S
O238 Li179 1.970 . S
O238 C208 1.325 . S
O239 Li177 1.961 . S
O239 Li178 1.970 . S
O239 Li179 1.956 . S
O239 C214 1.325 . S
H240 C182 0.929 . S
H241 C183 0.930 . S
H242 C184 0.930 . S
H243 C185 0.930 . S
H244 C187 0.930 . S
H245 C189 0.929 . S
H246 C190 0.930 . S
H247 C191 0.930 . S
H248 C194 0.930 . S
H249 C197 0.929 . S
H250 C202 0.929 . S
H251 C203 0.930 . S
H252 C210 0.929 . S
H253 C211 0.930 . S
H254 C212 0.930 . S
H255 C213 0.930 . S
H256 C215 0.929 . S
H257 C216 0.930 . S
H258 C217 0.930 . S
H259 C218 0.930 . S
H260 C222 0.929 . S
H261 C224 0.930 . S
H262 C230 0.929 . S
H263 C231 0.930 . S
Li264 N281 1.990 . S
Li264 O324 1.956 . S
Li264 O325 1.970 . S
Li264 O326 1.961 . S
Li265 N289 1.990 . S
Li265 O324 1.970 . S
Li265 O325 1.956 . S
Li265 O327 1.961 . S
Li266 N311 1.990 . S
Li266 O324 1.961 . S
Li266 O326 1.956 . S
Li266 O327 1.970 . S
Li267 N317 1.990 . S
Li267 O325 1.961 . S
Li267 O326 1.970 . S
Li267 O327 1.956 . S
C268 C270 1.348 . S
C268 C271 1.356 . S
C268 O324 1.325 . S
N269 C272 1.314 . S
N269 C273 1.279 . S
C270 C268 1.348 . S
C270 C272 1.353 . S
C270 H328 0.929 . S
C271 C268 1.356 . S
C271 C273 1.358 . S
C271 H329 0.930 . S
C272 N269 1.314 . S
C272 C270 1.353 . S
C272 H330 0.930 . S
C273 N269 1.279 . S
C273 C271 1.358 . S
C273 H331 0.930 . S
C274 C277 1.348 . S
C274 C278 1.356 . S
C274 O325 1.325 . S
C275 N276 1.279 . S
C275 C278 1.358 . S
C275 H332 0.930 . S
N276 C275 1.279 . S
N276 C279 1.314 . S
C277 C274 1.348 . S
C277 C279 1.353 . S
C277 H333 0.929 . S
C278 C274 1.356 . S
C278 C275 1.358 . S
C278 H334 0.930 . S
C279 N276 1.314 . S
C279 C277 1.353 . S
C279 H335 0.930 . S
C280 N281 1.314 . S
C280 C285 1.353 . S
C280 H286 0.930 . S
N281 Li264 1.990 . S
N281 C280 1.314 . S
N281 C283 1.279 . S
C282 C283 1.358 . S
C282 C284 1.356 . S
C282 H336 0.930 . S
C283 N281 1.279 . S
C283 C282 1.358 . S
C283 H287 0.930 . S
C284 C282 1.356 . S
C284 C285 1.348 . S
C285 C280 1.353 . S
C285 C284 1.348 . S
C285 H337 0.929 . S
H286 C280 0.930 . S
H287 C283 0.930 . S
C288 N289 1.314 . S
C288 C290 1.353 . S
C288 H294 0.930 . S
N289 Li265 1.990 . S
N289 C288 1.314 . S
N289 C292 1.279 . S
C290 C288 1.353 . S
C290 C293 1.348 . S
C290 H338 0.929 . S
C291 C292 1.358 . S
C291 C293 1.356 . S
C291 H339 0.930 . S
C292 N289 1.279 . S
C292 C291 1.358 . S
C292 H295 0.930 . S
C293 C290 1.348 . S
C293 C291 1.356 . S
H294 C288 0.930 . S
H295 C292 0.930 . S
C296 C298 1.348 . S
C296 C299 1.356 . S
C296 O326 1.325 . S
N297 C300 1.314 . S
N297 C301 1.279 . S
C298 C296 1.348 . S
C298 C300 1.353 . S
C298 H340 0.929 . S
C299 C296 1.356 . S
C299 C301 1.358 . S
C299 H341 0.930 . S
C300 N297 1.314 . S
C300 C298 1.353 . S
C300 H342 0.930 . S
C301 N297 1.279 . S
C301 C299 1.358 . S
C301 H343 0.930 . S
C302 C303 1.348 . S
C302 C304 1.356 . S
C302 O327 1.325 . S
C303 C302 1.348 . S
C303 C305 1.353 . S
C303 H344 0.929 . S
C304 C302 1.356 . S
C304 C306 1.358 . S
C304 H345 0.930 . S
C305 C303 1.353 . S
C305 N307 1.314 . S
C305 H346 0.930 . S
C306 C304 1.358 . S
C306 N307 1.279 . S
C306 H347 0.930 . S
N307 C305 1.314 . S
N307 C306 1.279 . S
C308 C310 1.353 . S
C308 N311 1.314 . S
C308 H314 0.930 . S
C309 N311 1.279 . S
C309 C312 1.358 . S
C309 H315 0.930 . S
C310 C308 1.353 . S
C310 C313 1.348 . S
C310 H348 0.929 . S
N311 Li266 1.990 . S
N311 C308 1.314 . S
N311 C309 1.279 . S
C312 C309 1.358 . S
C312 C313 1.356 . S
C312 H349 0.930 . S
C313 C310 1.348 . S
C313 C312 1.356 . S
H314 C308 0.930 . S
H315 C309 0.930 . S
C316 N317 1.314 . S
C316 C318 1.353 . S
C316 H322 0.930 . S
N317 Li267 1.990 . S
N317 C316 1.314 . S
N317 C320 1.279 . S
C318 C316 1.353 . S
C318 C321 1.348 . S
C318 H350 0.929 . S
C319 C320 1.358 . S
C319 C321 1.356 . S
C319 H351 0.930 . S
C320 N317 1.279 . S
C320 C319 1.358 . S
C320 H323 0.930 . S
C321 C318 1.348 . S
C321 C319 1.356 . S
H322 C316 0.930 . S
H323 C320 0.930 . S
O324 Li264 1.956 . S
O324 Li265 1.970 . S
O324 Li266 1.961 . S
O324 C268 1.325 . S
O325 Li264 1.970 . S
O325 Li265 1.956 . S
O325 Li267 1.961 . S
O325 C274 1.325 . S
O326 Li264 1.961 . S
O326 Li266 1.956 . S
O326 Li267 1.970 . S
O326 C296 1.325 . S
O327 Li265 1.961 . S
O327 Li266 1.970 . S
O327 Li267 1.956 . S
O327 C302 1.325 . S
H328 C270 0.929 . S
H329 C271 0.930 . S
H330 C272 0.930 . S
H331 C273 0.930 . S
H332 C275 0.930 . S
H333 C277 0.929 . S
H334 C278 0.930 . S
H335 C279 0.930 . S
H336 C282 0.930 . S
H337 C285 0.929 . S
H338 C290 0.929 . S
H339 C291 0.930 . S
H340 C298 0.929 . S
H341 C299 0.930 . S
H342 C300 0.930 . S
H343 C301 0.930 . S
H344 C303 0.929 . S
H345 C304 0.930 . S
H346 C305 0.930 . S
H347 C306 0.930 . S
H348 C310 0.929 . S
H349 C312 0.930 . S
H350 C318 0.929 . S
H351 C319 0.930 . S
Li352 N369 1.990 . S
Li352 O412 1.956 . S
Li352 O413 1.970 . S
Li352 O414 1.961 . S
Li353 N377 1.990 . S
Li353 O412 1.970 . S
Li353 O413 1.956 . S
Li353 O415 1.961 . S
Li354 N399 1.990 . S
Li354 O412 1.961 . S
Li354 O414 1.956 . S
Li354 O415 1.970 . S
Li355 N405 1.990 . S
Li355 O413 1.961 . S
Li355 O414 1.970 . S
Li355 O415 1.956 . S
C356 C358 1.348 . S
C356 C359 1.356 . S
C356 O412 1.325 . S
N357 C360 1.314 . S
N357 C361 1.279 . S
C358 C356 1.348 . S
C358 C360 1.353 . S
C358 H416 0.929 . S
C359 C356 1.356 . S
C359 C361 1.358 . S
C359 H417 0.930 . S
C360 N357 1.314 . S
C360 C358 1.353 . S
C360 H418 0.930 . S
C361 N357 1.279 . S
C361 C359 1.358 . S
C361 H419 0.930 . S
C362 C365 1.348 . S
C362 C366 1.356 . S
C362 O413 1.325 . S
C363 N364 1.279 . S
C363 C366 1.358 . S
C363 H420 0.930 . S
N364 C363 1.279 . S
N364 C367 1.314 . S
C365 C362 1.348 . S
C365 C367 1.353 . S
C365 H421 0.929 . S
C366 C362 1.356 . S
C366 C363 1.358 . S
C366 H422 0.930 . S
C367 N364 1.314 . S
C367 C365 1.353 . S
C367 H423 0.930 . S
C368 N369 1.314 . S
C368 C373 1.353 . S
C368 H374 0.930 . S
N369 Li352 1.990 . S
N369 C368 1.314 . S
N369 C371 1.279 . S
C370 C371 1.358 . S
C370 C372 1.356 . S
C370 H424 0.930 . S
C371 N369 1.279 . S
C371 C370 1.358 . S
C371 H375 0.930 . S
C372 C370 1.356 . S
C372 C373 1.348 . S
C373 C368 1.353 . S
C373 C372 1.348 . S
C373 H425 0.929 . S
H374 C368 0.930 . S
H375 C371 0.930 . S
C376 N377 1.314 . S
C376 C378 1.353 . S
C376 H382 0.930 . S
N377 Li353 1.990 . S
N377 C376 1.314 . S
N377 C380 1.279 . S
C378 C376 1.353 . S
C378 C381 1.348 . S
C378 H426 0.929 . S
C379 C380 1.358 . S
C379 C381 1.356 . S
C379 H427 0.930 . S
C380 N377 1.279 . S
C380 C379 1.358 . S
C380 H383 0.930 . S
C381 C378 1.348 . S
C381 C379 1.356 . S
H382 C376 0.930 . S
H383 C380 0.930 . S
C384 C386 1.348 . S
C384 C387 1.356 . S
C384 O414 1.325 . S
N385 C388 1.314 . S
N385 C389 1.279 . S
C386 C384 1.348 . S
C386 C388 1.353 . S
C386 H428 0.929 . S
C387 C384 1.356 . S
C387 C389 1.358 . S
C387 H429 0.930 . S
C388 N385 1.314 . S
C388 C386 1.353 . S
C388 H430 0.930 . S
C389 N385 1.279 . S
C389 C387 1.358 . S
C389 H431 0.930 . S
C390 C391 1.348 . S
C390 C392 1.356 . S
C390 O415 1.325 . S
C391 C390 1.348 . S
C391 C393 1.353 . S
C391 H432 0.929 . S
C392 C390 1.356 . S
C392 C394 1.358 . S
C392 H433 0.930 . S
C393 C391 1.353 . S
C393 N395 1.314 . S
C393 H434 0.930 . S
C394 C392 1.358 . S
C394 N395 1.279 . S
C394 H435 0.930 . S
N395 C393 1.314 . S
N395 C394 1.279 . S
C396 C398 1.353 . S
C396 N399 1.314 . S
C396 H402 0.930 . S
C397 N399 1.279 . S
C397 C400 1.358 . S
C397 H403 0.930 . S
C398 C396 1.353 . S
C398 C401 1.348 . S
C398 H436 0.929 . S
N399 Li354 1.990 . S
N399 C396 1.314 . S
N399 C397 1.279 . S
C400 C397 1.358 . S
C400 C401 1.356 . S
C400 H437 0.930 . S
C401 C398 1.348 . S
C401 C400 1.356 . S
H402 C396 0.930 . S
H403 C397 0.930 . S
C404 N405 1.314 . S
C404 C406 1.353 . S
C404 H410 0.930 . S
N405 Li355 1.990 . S
N405 C404 1.314 . S
N405 C408 1.279 . S
C406 C404 1.353 . S
C406 C409 1.348 . S
C406 H438 0.929 . S
C407 C408 1.358 . S
C407 C409 1.356 . S
C407 H439 0.930 . S
C408 N405 1.279 . S
C408 C407 1.358 . S
C408 H411 0.930 . S
C409 C406 1.348 . S
C409 C407 1.356 . S
H410 C404 0.930 . S
H411 C408 0.930 . S
O412 Li352 1.956 . S
O412 Li353 1.970 . S
O412 Li354 1.961 . S
O412 C356 1.325 . S
O413 Li352 1.970 . S
O413 Li353 1.956 . S
O413 Li355 1.961 . S
O413 C362 1.325 . S
O414 Li352 1.961 . S
O414 Li354 1.956 . S
O414 Li355 1.970 . S
O414 C384 1.325 . S
O415 Li353 1.961 . S
O415 Li354 1.970 . S
O415 Li355 1.956 . S
O415 C390 1.325 . S
H416 C358 0.929 . S
H417 C359 0.930 . S
H418 C360 0.930 . S
H419 C361 0.930 . S
H420 C363 0.930 . S
H421 C365 0.929 . S
H422 C366 0.930 . S
H423 C367 0.930 . S
H424 C370 0.930 . S
H425 C373 0.929 . S
H426 C378 0.929 . S
H427 C379 0.930 . S
H428 C386 0.929 . S
H429 C387 0.930 . S
H430 C388 0.930 . S
H431 C389 0.930 . S
H432 C391 0.929 . S
H433 C392 0.930 . S
H434 C393 0.930 . S
H435 C394 0.930 . S
H436 C398 0.929 . S
H437 C400 0.930 . S
H438 C406 0.929 . S
H439 C407 0.930 . S
Li440 N457 1.990 . S
Li440 O500 1.956 . S
Li440 O501 1.970 . S
Li440 O502 1.961 . S
Li441 N465 1.990 . S
Li441 O500 1.970 . S
Li441 O501 1.956 . S
Li441 O503 1.961 . S
Li442 N487 1.990 . S
Li442 O500 1.961 . S
Li442 O502 1.956 . S
Li442 O503 1.970 . S
Li443 N493 1.990 . S
Li443 O501 1.961 . S
Li443 O502 1.970 . S
Li443 O503 1.956 . S
C444 C446 1.348 . S
C444 C447 1.356 . S
C444 O500 1.325 . S
N445 C448 1.314 . S
N445 C449 1.279 . S
C446 C444 1.348 . S
C446 C448 1.353 . S
C446 H504 0.929 . S
C447 C444 1.356 . S
C447 C449 1.358 . S
C447 H505 0.930 . S
C448 N445 1.314 . S
C448 C446 1.353 . S
C448 H506 0.930 . S
C449 N445 1.279 . S
C449 C447 1.358 . S
C449 H507 0.930 . S
C450 C453 1.348 . S
C450 C454 1.356 . S
C450 O501 1.325 . S
C451 N452 1.279 . S
C451 C454 1.358 . S
C451 H508 0.930 . S
N452 C451 1.279 . S
N452 C455 1.314 . S
C453 C450 1.348 . S
C453 C455 1.353 . S
C453 H509 0.929 . S
C454 C450 1.356 . S
C454 C451 1.358 . S
C454 H510 0.930 . S
C455 N452 1.314 . S
C455 C453 1.353 . S
C455 H511 0.930 . S
C456 N457 1.314 . S
C456 C461 1.353 . S
C456 H462 0.930 . S
N457 Li440 1.990 . S
N457 C456 1.314 . S
N457 C459 1.279 . S
C458 C459 1.358 . S
C458 C460 1.356 . S
C458 H512 0.930 . S
C459 N457 1.279 . S
C459 C458 1.358 . S
C459 H463 0.930 . S
C460 C458 1.356 . S
C460 C461 1.348 . S
C461 C456 1.353 . S
C461 C460 1.348 . S
C461 H513 0.929 . S
H462 C456 0.930 . S
H463 C459 0.930 . S
C464 N465 1.314 . S
C464 C466 1.353 . S
C464 H470 0.930 . S
N465 Li441 1.990 . S
N465 C464 1.314 . S
N465 C468 1.279 . S
C466 C464 1.353 . S
C466 C469 1.348 . S
C466 H514 0.929 . S
C467 C468 1.358 . S
C467 C469 1.356 . S
C467 H515 0.930 . S
C468 N465 1.279 . S
C468 C467 1.358 . S
C468 H471 0.930 . S
C469 C466 1.348 . S
C469 C467 1.356 . S
H470 C464 0.930 . S
H471 C468 0.930 . S
C472 C474 1.348 . S
C472 C475 1.356 . S
C472 O502 1.325 . S
N473 C476 1.314 . S
N473 C477 1.279 . S
C474 C472 1.348 . S
C474 C476 1.353 . S
C474 H516 0.929 . S
C475 C472 1.356 . S
C475 C477 1.358 . S
C475 H517 0.930 . S
C476 N473 1.314 . S
C476 C474 1.353 . S
C476 H518 0.930 . S
C477 N473 1.279 . S
C477 C475 1.358 . S
C477 H519 0.930 . S
C478 C479 1.348 . S
C478 C480 1.356 . S
C478 O503 1.325 . S
C479 C478 1.348 . S
C479 C481 1.353 . S
C479 H520 0.929 . S
C480 C478 1.356 . S
C480 C482 1.358 . S
C480 H521 0.930 . S
C481 C479 1.353 . S
C481 N483 1.314 . S
C481 H522 0.930 . S
C482 C480 1.358 . S
C482 N483 1.279 . S
C482 H523 0.930 . S
N483 C481 1.314 . S
N483 C482 1.279 . S
C484 C486 1.353 . S
C484 N487 1.314 . S
C484 H490 0.930 . S
C485 N487 1.279 . S
C485 C488 1.358 . S
C485 H491 0.930 . S
C486 C484 1.353 . S
C486 C489 1.348 . S
C486 H524 0.929 . S
N487 Li442 1.990 . S
N487 C484 1.314 . S
N487 C485 1.279 . S
C488 C485 1.358 . S
C488 C489 1.356 . S
C488 H525 0.930 . S
C489 C486 1.348 . S
C489 C488 1.356 . S
H490 C484 0.930 . S
H491 C485 0.930 . S
C492 N493 1.314 . S
C492 C494 1.353 . S
C492 H498 0.930 . S
N493 Li443 1.990 . S
N493 C492 1.314 . S
N493 C496 1.279 . S
C494 C492 1.353 . S
C494 C497 1.348 . S
C494 H526 0.929 . S
C495 C496 1.358 . S
C495 C497 1.356 . S
C495 H527 0.930 . S
C496 N493 1.279 . S
C496 C495 1.358 . S
C496 H499 0.930 . S
C497 C494 1.348 . S
C497 C495 1.356 . S
H498 C492 0.930 . S
H499 C496 0.930 . S
O500 Li440 1.956 . S
O500 Li441 1.970 . S
O500 Li442 1.961 . S
O500 C444 1.325 . S
O501 Li440 1.970 . S
O501 Li441 1.956 . S
O501 Li443 1.961 . S
O501 C450 1.325 . S
O502 Li440 1.961 . S
O502 Li442 1.956 . S
O502 Li443 1.970 . S
O502 C472 1.325 . S
O503 Li441 1.961 . S
O503 Li442 1.970 . S
O503 Li443 1.956 . S
O503 C478 1.325 . S
H504 C446 0.929 . S
H505 C447 0.930 . S
H506 C448 0.930 . S
H507 C449 0.930 . S
H508 C451 0.930 . S
H509 C453 0.929 . S
H510 C454 0.930 . S
H511 C455 0.930 . S
H512 C458 0.930 . S
H513 C461 0.929 . S
H514 C466 0.929 . S
H515 C467 0.930 . S
H516 C474 0.929 . S
H517 C475 0.930 . S
H518 C476 0.930 . S
H519 C477 0.930 . S
H520 C479 0.929 . S
H521 C480 0.930 . S
H522 C481 0.930 . S
H523 C482 0.930 . S
H524 C486 0.929 . S
H525 C488 0.930 . S
H526 C494 0.929 . S
H527 C495 0.930 . S
Li528 N545 1.990 . S
Li528 O588 1.956 . S
Li528 O589 1.970 . S
Li528 O590 1.961 . S
Li529 N553 1.990 . S
Li529 O588 1.970 . S
Li529 O589 1.956 . S
Li529 O591 1.961 . S
Li530 N575 1.990 . S
Li530 O588 1.961 . S
Li530 O590 1.956 . S
Li530 O591 1.970 . S
Li531 N581 1.990 . S
Li531 O589 1.961 . S
Li531 O590 1.970 . S
Li531 O591 1.956 . S
C532 C534 1.348 . S
C532 C535 1.356 . S
C532 O588 1.325 . S
N533 C536 1.314 . S
N533 C537 1.279 . S
C534 C532 1.348 . S
C534 C536 1.353 . S
C534 H592 0.929 . S
C535 C532 1.356 . S
C535 C537 1.358 . S
C535 H593 0.930 . S
C536 N533 1.314 . S
C536 C534 1.353 . S
C536 H594 0.930 . S
C537 N533 1.279 . S
C537 C535 1.358 . S
C537 H595 0.930 . S
C538 C541 1.348 . S
C538 C542 1.356 . S
C538 O589 1.325 . S
C539 N540 1.279 . S
C539 C542 1.358 . S
C539 H596 0.930 . S
N540 C539 1.279 . S
N540 C543 1.314 . S
C541 C538 1.348 . S
C541 C543 1.353 . S
C541 H597 0.929 . S
C542 C538 1.356 . S
C542 C539 1.358 . S
C542 H598 0.930 . S
C543 N540 1.314 . S
C543 C541 1.353 . S
C543 H599 0.930 . S
C544 N545 1.314 . S
C544 C549 1.353 . S
C544 H550 0.930 . S
N545 Li528 1.990 . S
N545 C544 1.314 . S
N545 C547 1.279 . S
C546 C547 1.358 . S
C546 C548 1.356 . S
C546 H600 0.930 . S
C547 N545 1.279 . S
C547 C546 1.358 . S
C547 H551 0.930 . S
C548 C546 1.356 . S
C548 C549 1.348 . S
C549 C544 1.353 . S
C549 C548 1.348 . S
C549 H601 0.929 . S
H550 C544 0.930 . S
H551 C547 0.930 . S
C552 N553 1.314 . S
C552 C554 1.353 . S
C552 H558 0.930 . S
N553 Li529 1.990 . S
N553 C552 1.314 . S
N553 C556 1.279 . S
C554 C552 1.353 . S
C554 C557 1.348 . S
C554 H602 0.929 . S
C555 C556 1.358 . S
C555 C557 1.356 . S
C555 H603 0.930 . S
C556 N553 1.279 . S
C556 C555 1.358 . S
C556 H559 0.930 . S
C557 C554 1.348 . S
C557 C555 1.356 . S
H558 C552 0.930 . S
H559 C556 0.930 . S
C560 C562 1.348 . S
C560 C563 1.356 . S
C560 O590 1.325 . S
N561 C564 1.314 . S
N561 C565 1.279 . S
C562 C560 1.348 . S
C562 C564 1.353 . S
C562 H604 0.929 . S
C563 C560 1.356 . S
C563 C565 1.358 . S
C563 H605 0.930 . S
C564 N561 1.314 . S
C564 C562 1.353 . S
C564 H606 0.930 . S
C565 N561 1.279 . S
C565 C563 1.358 . S
C565 H607 0.930 . S
C566 C567 1.348 . S
C566 C568 1.356 . S
C566 O591 1.325 . S
C567 C566 1.348 . S
C567 C569 1.353 . S
C567 H608 0.929 . S
C568 C566 1.356 . S
C568 C570 1.358 . S
C568 H609 0.930 . S
C569 C567 1.353 . S
C569 N571 1.314 . S
C569 H610 0.930 . S
C570 C568 1.358 . S
C570 N571 1.279 . S
C570 H611 0.930 . S
N571 C569 1.314 . S
N571 C570 1.279 . S
C572 C574 1.353 . S
C572 N575 1.314 . S
C572 H578 0.930 . S
C573 N575 1.279 . S
C573 C576 1.358 . S
C573 H579 0.930 . S
C574 C572 1.353 . S
C574 C577 1.348 . S
C574 H612 0.929 . S
N575 Li530 1.990 . S
N575 C572 1.314 . S
N575 C573 1.279 . S
C576 C573 1.358 . S
C576 C577 1.356 . S
C576 H613 0.930 . S
C577 C574 1.348 . S
C577 C576 1.356 . S
H578 C572 0.930 . S
H579 C573 0.930 . S
C580 N581 1.314 . S
C580 C582 1.353 . S
C580 H586 0.930 . S
N581 Li531 1.990 . S
N581 C580 1.314 . S
N581 C584 1.279 . S
C582 C580 1.353 . S
C582 C585 1.348 . S
C582 H614 0.929 . S
C583 C584 1.358 . S
C583 C585 1.356 . S
C583 H615 0.930 . S
C584 N581 1.279 . S
C584 C583 1.358 . S
C584 H587 0.930 . S
C585 C582 1.348 . S
C585 C583 1.356 . S
H586 C580 0.930 . S
H587 C584 0.930 . S
O588 Li528 1.956 . S
O588 Li529 1.970 . S
O588 Li530 1.961 . S
O588 C532 1.325 . S
O589 Li528 1.970 . S
O589 Li529 1.956 . S
O589 Li531 1.961 . S
O589 C538 1.325 . S
O590 Li528 1.961 . S
O590 Li530 1.956 . S
O590 Li531 1.970 . S
O590 C560 1.325 . S
O591 Li529 1.961 . S
O591 Li530 1.970 . S
O591 Li531 1.956 . S
O591 C566 1.325 . S
H592 C534 0.929 . S
H593 C535 0.930 . S
H594 C536 0.930 . S
H595 C537 0.930 . S
H596 C539 0.930 . S
H597 C541 0.929 . S
H598 C542 0.930 . S
H599 C543 0.930 . S
H600 C546 0.930 . S
H601 C549 0.929 . S
H602 C554 0.929 . S
H603 C555 0.930 . S
H604 C562 0.929 . S
H605 C563 0.930 . S
H606 C564 0.930 . S
H607 C565 0.930 . S
H608 C567 0.929 . S
H609 C568 0.930 . S
H610 C569 0.930 . S
H611 C570 0.930 . S
H612 C574 0.929 . S
H613 C576 0.930 . S
H614 C582 0.929 . S
H615 C583 0.930 . S
Li616 N633 1.990 . S
Li616 O676 1.956 . S
Li616 O677 1.970 . S
Li616 O678 1.961 . S
Li617 N641 1.990 . S
Li617 O676 1.970 . S
Li617 O677 1.956 . S
Li617 O679 1.961 . S
Li618 N663 1.990 . S
Li618 O676 1.961 . S
Li618 O678 1.956 . S
Li618 O679 1.970 . S
Li619 N669 1.990 . S
Li619 O677 1.961 . S
Li619 O678 1.970 . S
Li619 O679 1.956 . S
C620 C622 1.348 . S
C620 C623 1.356 . S
C620 O676 1.325 . S
N621 C624 1.314 . S
N621 C625 1.279 . S
C622 C620 1.348 . S
C622 C624 1.353 . S
C622 H680 0.929 . S
C623 C620 1.356 . S
C623 C625 1.358 . S
C623 H681 0.930 . S
C624 N621 1.314 . S
C624 C622 1.353 . S
C624 H682 0.930 . S
C625 N621 1.279 . S
C625 C623 1.358 . S
C625 H683 0.930 . S
C626 C629 1.348 . S
C626 C630 1.356 . S
C626 O677 1.325 . S
C627 N628 1.279 . S
C627 C630 1.358 . S
C627 H684 0.930 . S
N628 C627 1.279 . S
N628 C631 1.314 . S
C629 C626 1.348 . S
C629 C631 1.353 . S
C629 H685 0.929 . S
C630 C626 1.356 . S
C630 C627 1.358 . S
C630 H686 0.930 . S
C631 N628 1.314 . S
C631 C629 1.353 . S
C631 H687 0.930 . S
C632 N633 1.314 . S
C632 C637 1.353 . S
C632 H638 0.930 . S
N633 Li616 1.990 . S
N633 C632 1.314 . S
N633 C635 1.279 . S
C634 C635 1.358 . S
C634 C636 1.356 . S
C634 H688 0.930 . S
C635 N633 1.279 . S
C635 C634 1.358 . S
C635 H639 0.930 . S
C636 C634 1.356 . S
C636 C637 1.348 . S
C637 C632 1.353 . S
C637 C636 1.348 . S
C637 H689 0.929 . S
H638 C632 0.930 . S
H639 C635 0.930 . S
C640 N641 1.314 . S
C640 C642 1.353 . S
C640 H646 0.930 . S
N641 Li617 1.990 . S
N641 C640 1.314 . S
N641 C644 1.279 . S
C642 C640 1.353 . S
C642 C645 1.348 . S
C642 H690 0.929 . S
C643 C644 1.358 . S
C643 C645 1.356 . S
C643 H691 0.930 . S
C644 N641 1.279 . S
C644 C643 1.358 . S
C644 H647 0.930 . S
C645 C642 1.348 . S
C645 C643 1.356 . S
H646 C640 0.930 . S
H647 C644 0.930 . S
C648 C650 1.348 . S
C648 C651 1.356 . S
C648 O678 1.325 . S
N649 C652 1.314 . S
N649 C653 1.279 . S
C650 C648 1.348 . S
C650 C652 1.353 . S
C650 H692 0.929 . S
C651 C648 1.356 . S
C651 C653 1.358 . S
C651 H693 0.930 . S
C652 N649 1.314 . S
C652 C650 1.353 . S
C652 H694 0.930 . S
C653 N649 1.279 . S
C653 C651 1.358 . S
C653 H695 0.930 . S
C654 C655 1.348 . S
C654 C656 1.356 . S
C654 O679 1.325 . S
C655 C654 1.348 . S
C655 C657 1.353 . S
C655 H696 0.929 . S
C656 C654 1.356 . S
C656 C658 1.358 . S
C656 H697 0.930 . S
C657 C655 1.353 . S
C657 N659 1.314 . S
C657 H698 0.930 . S
C658 C656 1.358 . S
C658 N659 1.279 . S
C658 H699 0.930 . S
N659 C657 1.314 . S
N659 C658 1.279 . S
C660 C662 1.353 . S
C660 N663 1.314 . S
C660 H666 0.930 . S
C661 N663 1.279 . S
C661 C664 1.358 . S
C661 H667 0.930 . S
C662 C660 1.353 . S
C662 C665 1.348 . S
C662 H700 0.929 . S
N663 Li618 1.990 . S
N663 C660 1.314 . S
N663 C661 1.279 . S
C664 C661 1.358 . S
C664 C665 1.356 . S
C664 H701 0.930 . S
C665 C662 1.348 . S
C665 C664 1.356 . S
H666 C660 0.930 . S
H667 C661 0.930 . S
C668 N669 1.314 . S
C668 C670 1.353 . S
C668 H674 0.930 . S
N669 Li619 1.990 . S
N669 C668 1.314 . S
N669 C672 1.279 . S
C670 C668 1.353 . S
C670 C673 1.348 . S
C670 H702 0.929 . S
C671 C672 1.358 . S
C671 C673 1.356 . S
C671 H703 0.930 . S
C672 N669 1.279 . S
C672 C671 1.358 . S
C672 H675 0.930 . S
C673 C670 1.348 . S
C673 C671 1.356 . S
H674 C668 0.930 . S
H675 C672 0.930 . S
O676 Li616 1.956 . S
O676 Li617 1.970 . S
O676 Li618 1.961 . S
O676 C620 1.325 . S
O677 Li616 1.970 . S
O677 Li617 1.956 . S
O677 Li619 1.961 . S
O677 C626 1.325 . S
O678 Li616 1.961 . S
O678 Li618 1.956 . S
O678 Li619 1.970 . S
O678 C648 1.325 . S
O679 Li617 1.961 . S
O679 Li618 1.970 . S
O679 Li619 1.956 . S
O679 C654 1.325 . S
H680 C622 0.929 . S
H681 C623 0.930 . S
H682 C624 0.930 . S
H683 C625 0.930 . S
H684 C627 0.930 . S
H685 C629 0.929 . S
H686 C630 0.930 . S
H687 C631 0.930 . S
H688 C634 0.930 . S
H689 C637 0.929 . S
H690 C642 0.929 . S
H691 C643 0.930 . S
H692 C650 0.929 . S
H693 C651 0.930 . S
H694 C652 0.930 . S
H695 C653 0.930 . S
H696 C655 0.929 . S
H697 C656 0.930 . S
H698 C657 0.930 . S
H699 C658 0.930 . S
H700 C662 0.929 . S
H701 C664 0.930 . S
H702 C670 0.929 . S
H703 C671 0.930 . S
Li704 N721 1.990 . S
Li704 O764 1.956 . S
Li704 O765 1.970 . S
Li704 O766 1.961 . S
Li705 N729 1.990 . S
Li705 O764 1.970 . S
Li705 O765 1.956 . S
Li705 O767 1.961 . S
Li706 N751 1.990 . S
Li706 O764 1.961 . S
Li706 O766 1.956 . S
Li706 O767 1.970 . S
Li707 N757 1.990 . S
Li707 O765 1.961 . S
Li707 O766 1.970 . S
Li707 O767 1.956 . S
C708 C710 1.348 . S
C708 C711 1.356 . S
C708 O764 1.325 . S
N709 C712 1.314 . S
N709 C713 1.279 . S
C710 C708 1.348 . S
C710 C712 1.353 . S
C710 H768 0.929 . S
C711 C708 1.356 . S
C711 C713 1.358 . S
C711 H769 0.930 . S
C712 N709 1.314 . S
C712 C710 1.353 . S
C712 H770 0.930 . S
C713 N709 1.279 . S
C713 C711 1.358 . S
C713 H771 0.930 . S
C714 C717 1.348 . S
C714 C718 1.356 . S
C714 O765 1.325 . S
C715 N716 1.279 . S
C715 C718 1.358 . S
C715 H772 0.930 . S
N716 C715 1.279 . S
N716 C719 1.314 . S
C717 C714 1.348 . S
C717 C719 1.353 . S
C717 H773 0.929 . S
C718 C714 1.356 . S
C718 C715 1.358 . S
C718 H774 0.930 . S
C719 N716 1.314 . S
C719 C717 1.353 . S
C719 H775 0.930 . S
C720 N721 1.314 . S
C720 C725 1.353 . S
C720 H726 0.930 . S
N721 Li704 1.990 . S
N721 C720 1.314 . S
N721 C723 1.279 . S
C722 C723 1.358 . S
C722 C724 1.356 . S
C722 H776 0.930 . S
C723 N721 1.279 . S
C723 C722 1.358 . S
C723 H727 0.930 . S
C724 C722 1.356 . S
C724 C725 1.348 . S
C725 C720 1.353 . S
C725 C724 1.348 . S
C725 H777 0.929 . S
H726 C720 0.930 . S
H727 C723 0.930 . S
C728 N729 1.314 . S
C728 C730 1.353 . S
C728 H734 0.930 . S
N729 Li705 1.990 . S
N729 C728 1.314 . S
N729 C732 1.279 . S
C730 C728 1.353 . S
C730 C733 1.348 . S
C730 H778 0.929 . S
C731 C732 1.358 . S
C731 C733 1.356 . S
C731 H779 0.930 . S
C732 N729 1.279 . S
C732 C731 1.358 . S
C732 H735 0.930 . S
C733 C730 1.348 . S
C733 C731 1.356 . S
H734 C728 0.930 . S
H735 C732 0.930 . S
C736 C738 1.348 . S
C736 C739 1.356 . S
C736 O766 1.325 . S
N737 C740 1.314 . S
N737 C741 1.279 . S
C738 C736 1.348 . S
C738 C740 1.353 . S
C738 H780 0.929 . S
C739 C736 1.356 . S
C739 C741 1.358 . S
C739 H781 0.930 . S
C740 N737 1.314 . S
C740 C738 1.353 . S
C740 H782 0.930 . S
C741 N737 1.279 . S
C741 C739 1.358 . S
C741 H783 0.930 . S
C742 C743 1.348 . S
C742 C744 1.356 . S
C742 O767 1.325 . S
C743 C742 1.348 . S
C743 C745 1.353 . S
C743 H784 0.929 . S
C744 C742 1.356 . S
C744 C746 1.358 . S
C744 H785 0.930 . S
C745 C743 1.353 . S
C745 N747 1.314 . S
C745 H786 0.930 . S
C746 C744 1.358 . S
C746 N747 1.279 . S
C746 H787 0.930 . S
N747 C745 1.314 . S
N747 C746 1.279 . S
C748 C750 1.353 . S
C748 N751 1.314 . S
C748 H754 0.930 . S
C749 N751 1.279 . S
C749 C752 1.358 . S
C749 H755 0.930 . S
C750 C748 1.353 . S
C750 C753 1.348 . S
C750 H788 0.929 . S
N751 Li706 1.990 . S
N751 C748 1.314 . S
N751 C749 1.279 . S
C752 C749 1.358 . S
C752 C753 1.356 . S
C752 H789 0.930 . S
C753 C750 1.348 . S
C753 C752 1.356 . S
H754 C748 0.930 . S
H755 C749 0.930 . S
C756 N757 1.314 . S
C756 C758 1.353 . S
C756 H762 0.930 . S
N757 Li707 1.990 . S
N757 C756 1.314 . S
N757 C760 1.279 . S
C758 C756 1.353 . S
C758 C761 1.348 . S
C758 H790 0.929 . S
C759 C760 1.358 . S
C759 C761 1.356 . S
C759 H791 0.930 . S
C760 N757 1.279 . S
C760 C759 1.358 . S
C760 H763 0.930 . S
C761 C758 1.348 . S
C761 C759 1.356 . S
H762 C756 0.930 . S
H763 C760 0.930 . S
O764 Li704 1.956 . S
O764 Li705 1.970 . S
O764 Li706 1.961 . S
O764 C708 1.325 . S
O765 Li704 1.970 . S
O765 Li705 1.956 . S
O765 Li707 1.961 . S
O765 C714 1.325 . S
O766 Li704 1.961 . S
O766 Li706 1.956 . S
O766 Li707 1.970 . S
O766 C736 1.325 . S
O767 Li705 1.961 . S
O767 Li706 1.970 . S
O767 Li707 1.956 . S
O767 C742 1.325 . S
H768 C710 0.929 . S
H769 C711 0.930 . S
H770 C712 0.930 . S
H771 C713 0.930 . S
H772 C715 0.930 . S
H773 C717 0.929 . S
H774 C718 0.930 . S
H775 C719 0.930 . S
H776 C722 0.930 . S
H777 C725 0.929 . S
H778 C730 0.929 . S
H779 C731 0.930 . S
H780 C738 0.929 . S
H781 C739 0.930 . S
H782 C740 0.930 . S
H783 C741 0.930 . S
H784 C743 0.929 . S
H785 C744 0.930 . S
H786 C745 0.930 . S
H787 C746 0.930 . S
H788 C750 0.929 . S
H789 C752 0.930 . S
H790 C758 0.929 . S
H791 C759 0.930 . S
Li792 N809 1.990 . S
Li792 O852 1.956 . S
Li792 O853 1.970 . S
Li792 O854 1.961 . S
Li793 N817 1.990 . S
Li793 O852 1.970 . S
Li793 O853 1.956 . S
Li793 O855 1.961 . S
Li794 N839 1.990 . S
Li794 O852 1.961 . S
Li794 O854 1.956 . S
Li794 O855 1.970 . S
Li795 N845 1.990 . S
Li795 O853 1.961 . S
Li795 O854 1.970 . S
Li795 O855 1.956 . S
C796 C798 1.348 . S
C796 C799 1.356 . S
C796 O852 1.325 . S
N797 C800 1.314 . S
N797 C801 1.279 . S
C798 C796 1.348 . S
C798 C800 1.353 . S
C798 H856 0.929 . S
C799 C796 1.356 . S
C799 C801 1.358 . S
C799 H857 0.930 . S
C800 N797 1.314 . S
C800 C798 1.353 . S
C800 H858 0.930 . S
C801 N797 1.279 . S
C801 C799 1.358 . S
C801 H859 0.930 . S
C802 C805 1.348 . S
C802 C806 1.356 . S
C802 O853 1.325 . S
C803 N804 1.279 . S
C803 C806 1.358 . S
C803 H860 0.930 . S
N804 C803 1.279 . S
N804 C807 1.314 . S
C805 C802 1.348 . S
C805 C807 1.353 . S
C805 H861 0.929 . S
C806 C802 1.356 . S
C806 C803 1.358 . S
C806 H862 0.930 . S
C807 N804 1.314 . S
C807 C805 1.353 . S
C807 H863 0.930 . S
C808 N809 1.314 . S
C808 C813 1.353 . S
C808 H814 0.930 . S
N809 Li792 1.990 . S
N809 C808 1.314 . S
N809 C811 1.279 . S
C810 C811 1.358 . S
C810 C812 1.356 . S
C810 H864 0.930 . S
C811 N809 1.279 . S
C811 C810 1.358 . S
C811 H815 0.930 . S
C812 C810 1.356 . S
C812 C813 1.348 . S
C813 C808 1.353 . S
C813 C812 1.348 . S
C813 H865 0.929 . S
H814 C808 0.930 . S
H815 C811 0.930 . S
C816 N817 1.314 . S
C816 C818 1.353 . S
C816 H822 0.930 . S
N817 Li793 1.990 . S
N817 C816 1.314 . S
N817 C820 1.279 . S
C818 C816 1.353 . S
C818 C821 1.348 . S
C818 H866 0.929 . S
C819 C820 1.358 . S
C819 C821 1.356 . S
C819 H867 0.930 . S
C820 N817 1.279 . S
C820 C819 1.358 . S
C820 H823 0.930 . S
C821 C818 1.348 . S
C821 C819 1.356 . S
H822 C816 0.930 . S
H823 C820 0.930 . S
C824 C826 1.348 . S
C824 C827 1.356 . S
C824 O854 1.325 . S
N825 C828 1.314 . S
N825 C829 1.279 . S
C826 C824 1.348 . S
C826 C828 1.353 . S
C826 H868 0.929 . S
C827 C824 1.356 . S
C827 C829 1.358 . S
C827 H869 0.930 . S
C828 N825 1.314 . S
C828 C826 1.353 . S
C828 H870 0.930 . S
C829 N825 1.279 . S
C829 C827 1.358 . S
C829 H871 0.930 . S
C830 C831 1.348 . S
C830 C832 1.356 . S
C830 O855 1.325 . S
C831 C830 1.348 . S
C831 C833 1.353 . S
C831 H872 0.929 . S
C832 C830 1.356 . S
C832 C834 1.358 . S
C832 H873 0.930 . S
C833 C831 1.353 . S
C833 N835 1.314 . S
C833 H874 0.930 . S
C834 C832 1.358 . S
C834 N835 1.279 . S
C834 H875 0.930 . S
N835 C833 1.314 . S
N835 C834 1.279 . S
C836 C838 1.353 . S
C836 N839 1.314 . S
C836 H842 0.930 . S
C837 N839 1.279 . S
C837 C840 1.358 . S
C837 H843 0.930 . S
C838 C836 1.353 . S
C838 C841 1.348 . S
C838 H876 0.929 . S
N839 Li794 1.990 . S
N839 C836 1.314 . S
N839 C837 1.279 . S
C840 C837 1.358 . S
C840 C841 1.356 . S
C840 H877 0.930 . S
C841 C838 1.348 . S
C841 C840 1.356 . S
H842 C836 0.930 . S
H843 C837 0.930 . S
C844 N845 1.314 . S
C844 C846 1.353 . S
C844 H850 0.930 . S
N845 Li795 1.990 . S
N845 C844 1.314 . S
N845 C848 1.279 . S
C846 C844 1.353 . S
C846 C849 1.348 . S
C846 H878 0.929 . S
C847 C848 1.358 . S
C847 C849 1.356 . S
C847 H879 0.930 . S
C848 N845 1.279 . S
C848 C847 1.358 . S
C848 H851 0.930 . S
C849 C846 1.348 . S
C849 C847 1.356 . S
H850 C844 0.930 . S
H851 C848 0.930 . S
O852 Li792 1.956 . S
O852 Li793 1.970 . S
O852 Li794 1.961 . S
O852 C796 1.325 . S
O853 Li792 1.970 . S
O853 Li793 1.956 . S
O853 Li795 1.961 . S
O853 C802 1.325 . S
O854 Li792 1.961 . S
O854 Li794 1.956 . S
O854 Li795 1.970 . S
O854 C824 1.325 . S
O855 Li793 1.961 . S
O855 Li794 1.970 . S
O855 Li795 1.956 . S
O855 C830 1.325 . S
H856 C798 0.929 . S
H857 C799 0.930 . S
H858 C800 0.930 . S
H859 C801 0.930 . S
H860 C803 0.930 . S
H861 C805 0.929 . S
H862 C806 0.930 . S
H863 C807 0.930 . S
H864 C810 0.930 . S
H865 C813 0.929 . S
H866 C818 0.929 . S
H867 C819 0.930 . S
H868 C826 0.929 . S
H869 C827 0.930 . S
H870 C828 0.930 . S
H871 C829 0.930 . S
H872 C831 0.929 . S
H873 C832 0.930 . S
H874 C833 0.930 . S
H875 C834 0.930 . S
H876 C838 0.929 . S
H877 C840 0.930 . S
H878 C846 0.929 . S
H879 C847 0.930 . S
Li880 N897 1.990 . S
Li880 O940 1.956 . S
Li880 O941 1.970 . S
Li880 O942 1.961 . S
Li881 N905 1.990 . S
Li881 O940 1.970 . S
Li881 O941 1.956 . S
Li881 O943 1.961 . S
Li882 N927 1.990 . S
Li882 O940 1.961 . S
Li882 O942 1.956 . S
Li882 O943 1.970 . S
Li883 N933 1.990 . S
Li883 O941 1.961 . S
Li883 O942 1.970 . S
Li883 O943 1.956 . S
C884 C886 1.348 . S
C884 C887 1.356 . S
C884 O940 1.325 . S
N885 C888 1.314 . S
N885 C889 1.279 . S
C886 C884 1.348 . S
C886 C888 1.353 . S
C886 H944 0.929 . S
C887 C884 1.356 . S
C887 C889 1.358 . S
C887 H945 0.930 . S
C888 N885 1.314 . S
C888 C886 1.353 . S
C888 H946 0.930 . S
C889 N885 1.279 . S
C889 C887 1.358 . S
C889 H947 0.930 . S
C890 C893 1.348 . S
C890 C894 1.356 . S
C890 O941 1.325 . S
C891 N892 1.279 . S
C891 C894 1.358 . S
C891 H948 0.930 . S
N892 C891 1.279 . S
N892 C895 1.314 . S
C893 C890 1.348 . S
C893 C895 1.353 . S
C893 H949 0.929 . S
C894 C890 1.356 . S
C894 C891 1.358 . S
C894 H950 0.930 . S
C895 N892 1.314 . S
C895 C893 1.353 . S
C895 H951 0.930 . S
C896 N897 1.314 . S
C896 C901 1.353 . S
C896 H902 0.930 . S
N897 Li880 1.990 . S
N897 C896 1.314 . S
N897 C899 1.279 . S
C898 C899 1.358 . S
C898 C900 1.356 . S
C898 H952 0.930 . S
C899 N897 1.279 . S
C899 C898 1.358 . S
C899 H903 0.930 . S
C900 C898 1.356 . S
C900 C901 1.348 . S
C901 C896 1.353 . S
C901 C900 1.348 . S
C901 H953 0.929 . S
H902 C896 0.930 . S
H903 C899 0.930 . S
C904 N905 1.314 . S
C904 C906 1.353 . S
C904 H910 0.930 . S
N905 Li881 1.990 . S
N905 C904 1.314 . S
N905 C908 1.279 . S
C906 C904 1.353 . S
C906 C909 1.348 . S
C906 H954 0.929 . S
C907 C908 1.358 . S
C907 C909 1.356 . S
C907 H955 0.930 . S
C908 N905 1.279 . S
C908 C907 1.358 . S
C908 H911 0.930 . S
C909 C906 1.348 . S
C909 C907 1.356 . S
H910 C904 0.930 . S
H911 C908 0.930 . S
C912 C914 1.348 . S
C912 C915 1.356 . S
C912 O942 1.325 . S
N913 C916 1.314 . S
N913 C917 1.279 . S
C914 C912 1.348 . S
C914 C916 1.353 . S
C914 H956 0.929 . S
C915 C912 1.356 . S
C915 C917 1.358 . S
C915 H957 0.930 . S
C916 N913 1.314 . S
C916 C914 1.353 . S
C916 H958 0.930 . S
C917 N913 1.279 . S
C917 C915 1.358 . S
C917 H959 0.930 . S
C918 C919 1.348 . S
C918 C920 1.356 . S
C918 O943 1.325 . S
C919 C918 1.348 . S
C919 C921 1.353 . S
C919 H960 0.929 . S
C920 C918 1.356 . S
C920 C922 1.358 . S
C920 H961 0.930 . S
C921 C919 1.353 . S
C921 N923 1.314 . S
C921 H962 0.930 . S
C922 C920 1.358 . S
C922 N923 1.279 . S
C922 H963 0.930 . S
N923 C921 1.314 . S
N923 C922 1.279 . S
C924 C926 1.353 . S
C924 N927 1.314 . S
C924 H930 0.930 . S
C925 N927 1.279 . S
C925 C928 1.358 . S
C925 H931 0.930 . S
C926 C924 1.353 . S
C926 C929 1.348 . S
C926 H964 0.929 . S
N927 Li882 1.990 . S
N927 C924 1.314 . S
N927 C925 1.279 . S
C928 C925 1.358 . S
C928 C929 1.356 . S
C928 H965 0.930 . S
C929 C926 1.348 . S
C929 C928 1.356 . S
H930 C924 0.930 . S
H931 C925 0.930 . S
C932 N933 1.314 . S
C932 C934 1.353 . S
C932 H938 0.930 . S
N933 Li883 1.990 . S
N933 C932 1.314 . S
N933 C936 1.279 . S
C934 C932 1.353 . S
C934 C937 1.348 . S
C934 H966 0.929 . S
C935 C936 1.358 . S
C935 C937 1.356 . S
C935 H967 0.930 . S
C936 N933 1.279 . S
C936 C935 1.358 . S
C936 H939 0.930 . S
C937 C934 1.348 . S
C937 C935 1.356 . S
H938 C932 0.930 . S
H939 C936 0.930 . S
O940 Li880 1.956 . S
O940 Li881 1.970 . S
O940 Li882 1.961 . S
O940 C884 1.325 . S
O941 Li880 1.970 . S
O941 Li881 1.956 . S
O941 Li883 1.961 . S
O941 C890 1.325 . S
O942 Li880 1.961 . S
O942 Li882 1.956 . S
O942 Li883 1.970 . S
O942 C912 1.325 . S
O943 Li881 1.961 . S
O943 Li882 1.970 . S
O943 Li883 1.956 . S
O943 C918 1.325 . S
H944 C886 0.929 . S
H945 C887 0.930 . S
H946 C888 0.930 . S
H947 C889 0.930 . S
H948 C891 0.930 . S
H949 C893 0.929 . S
H950 C894 0.930 . S
H951 C895 0.930 . S
H952 C898 0.930 . S
H953 C901 0.929 . S
H954 C906 0.929 . S
H955 C907 0.930 . S
H956 C914 0.929 . S
H957 C915 0.930 . S
H958 C916 0.930 . S
H959 C917 0.930 . S
H960 C919 0.929 . S
H961 C920 0.930 . S
H962 C921 0.930 . S
H963 C922 0.930 . S
H964 C926 0.929 . S
H965 C928 0.930 . S
H966 C934 0.929 . S
H967 C935 0.930 . S
Li968 N985 1.990 . S
Li968 O1028 1.956 . S
Li968 O1029 1.970 . S
Li968 O1030 1.961 . S
Li969 N993 1.990 . S
Li969 O1028 1.970 . S
Li969 O1029 1.956 . S
Li969 O1031 1.961 . S
Li970 N1015 1.990 . S
Li970 O1028 1.961 . S
Li970 O1030 1.956 . S
Li970 O1031 1.970 . S
Li971 N1021 1.990 . S
Li971 O1029 1.961 . S
Li971 O1030 1.970 . S
Li971 O1031 1.956 . S
C972 C974 1.348 . S
C972 C975 1.356 . S
C972 O1028 1.325 . S
N973 C976 1.314 . S
N973 C977 1.279 . S
C974 C972 1.348 . S
C974 C976 1.353 . S
C974 H1032 0.929 . S
C975 C972 1.356 . S
C975 C977 1.358 . S
C975 H1033 0.930 . S
C976 N973 1.314 . S
C976 C974 1.353 . S
C976 H1034 0.930 . S
C977 N973 1.279 . S
C977 C975 1.358 . S
C977 H1035 0.930 . S
C978 C981 1.348 . S
C978 C982 1.356 . S
C978 O1029 1.325 . S
C979 N980 1.279 . S
C979 C982 1.358 . S
C979 H1036 0.930 . S
N980 C979 1.279 . S
N980 C983 1.314 . S
C981 C978 1.348 . S
C981 C983 1.353 . S
C981 H1037 0.929 . S
C982 C978 1.356 . S
C982 C979 1.358 . S
C982 H1038 0.930 . S
C983 N980 1.314 . S
C983 C981 1.353 . S
C983 H1039 0.930 . S
C984 N985 1.314 . S
C984 C989 1.353 . S
C984 H990 0.930 . S
N985 Li968 1.990 . S
N985 C984 1.314 . S
N985 C987 1.279 . S
C986 C987 1.358 . S
C986 C988 1.356 . S
C986 H1040 0.930 . S
C987 N985 1.279 . S
C987 C986 1.358 . S
C987 H991 0.930 . S
C988 C986 1.356 . S
C988 C989 1.348 . S
C989 C984 1.353 . S
C989 C988 1.348 . S
C989 H1041 0.929 . S
H990 C984 0.930 . S
H991 C987 0.930 . S
C992 N993 1.314 . S
C992 C994 1.353 . S
C992 H998 0.930 . S
N993 Li969 1.990 . S
N993 C992 1.314 . S
N993 C996 1.279 . S
C994 C992 1.353 . S
C994 C997 1.348 . S
C994 H1042 0.929 . S
C995 C996 1.358 . S
C995 C997 1.356 . S
C995 H1043 0.930 . S
C996 N993 1.279 . S
C996 C995 1.358 . S
C996 H999 0.930 . S
C997 C994 1.348 . S
C997 C995 1.356 . S
H998 C992 0.930 . S
H999 C996 0.930 . S
C1000 C1002 1.348 . S
C1000 C1003 1.356 . S
C1000 O1030 1.325 . S
N1001 C1004 1.314 . S
N1001 C1005 1.279 . S
C1002 C1000 1.348 . S
C1002 C1004 1.353 . S
C1002 H1044 0.929 . S
C1003 C1000 1.356 . S
C1003 C1005 1.358 . S
C1003 H1045 0.930 . S
C1004 N1001 1.314 . S
C1004 C1002 1.353 . S
C1004 H1046 0.930 . S
C1005 N1001 1.279 . S
C1005 C1003 1.358 . S
C1005 H1047 0.930 . S
C1006 C1007 1.348 . S
C1006 C1008 1.356 . S
C1006 O1031 1.325 . S
C1007 C1006 1.348 . S
C1007 C1009 1.353 . S
C1007 H1048 0.929 . S
C1008 C1006 1.356 . S
C1008 C1010 1.358 . S
C1008 H1049 0.930 . S
C1009 C1007 1.353 . S
C1009 N1011 1.314 . S
C1009 H1050 0.930 . S
C1010 C1008 1.358 . S
C1010 N1011 1.279 . S
C1010 H1051 0.930 . S
N1011 C1009 1.314 . S
N1011 C1010 1.279 . S
C1012 C1014 1.353 . S
C1012 N1015 1.314 . S
C1012 H1018 0.930 . S
C1013 N1015 1.279 . S
C1013 C1016 1.358 . S
C1013 H1019 0.930 . S
C1014 C1012 1.353 . S
C1014 C1017 1.348 . S
C1014 H1052 0.929 . S
N1015 Li970 1.990 . S
N1015 C1012 1.314 . S
N1015 C1013 1.279 . S
C1016 C1013 1.358 . S
C1016 C1017 1.356 . S
C1016 H1053 0.930 . S
C1017 C1014 1.348 . S
C1017 C1016 1.356 . S
H1018 C1012 0.930 . S
H1019 C1013 0.930 . S
C1020 N1021 1.314 . S
C1020 C1022 1.353 . S
C1020 H1026 0.930 . S
N1021 Li971 1.990 . S
N1021 C1020 1.314 . S
N1021 C1024 1.279 . S
C1022 C1020 1.353 . S
C1022 C1025 1.348 . S
C1022 H1054 0.929 . S
C1023 C1024 1.358 . S
C1023 C1025 1.356 . S
C1023 H1055 0.930 . S
C1024 N1021 1.279 . S
C1024 C1023 1.358 . S
C1024 H1027 0.930 . S
C1025 C1022 1.348 . S
C1025 C1023 1.356 . S
H1026 C1020 0.930 . S
H1027 C1024 0.930 . S
O1028 Li968 1.956 . S
O1028 Li969 1.970 . S
O1028 Li970 1.961 . S
O1028 C972 1.325 . S
O1029 Li968 1.970 . S
O1029 Li969 1.956 . S
O1029 Li971 1.961 . S
O1029 C978 1.325 . S
O1030 Li968 1.961 . S
O1030 Li970 1.956 . S
O1030 Li971 1.970 . S
O1030 C1000 1.325 . S
O1031 Li969 1.961 . S
O1031 Li970 1.970 . S
O1031 Li971 1.956 . S
O1031 C1006 1.325 . S
H1032 C974 0.929 . S
H1033 C975 0.930 . S
H1034 C976 0.930 . S
H1035 C977 0.930 . S
H1036 C979 0.930 . S
H1037 C981 0.929 . S
H1038 C982 0.930 . S
H1039 C983 0.930 . S
H1040 C986 0.930 . S
H1041 C989 0.929 . S
H1042 C994 0.929 . S
H1043 C995 0.930 . S
H1044 C1002 0.929 . S
H1045 C1003 0.930 . S
H1046 C1004 0.930 . S
H1047 C1005 0.930 . S
H1048 C1007 0.929 . S
H1049 C1008 0.930 . S
H1050 C1009 0.930 . S
H1051 C1010 0.930 . S
H1052 C1014 0.929 . S
H1053 C1016 0.930 . S
H1054 C1022 0.929 . S
H1055 C1023 0.930 . S
Li1056 N1073 1.990 . S
Li1056 O1116 1.956 . S
Li1056 O1117 1.970 . S
Li1056 O1118 1.961 . S
Li1057 N1081 1.990 . S
Li1057 O1116 1.970 . S
Li1057 O1117 1.956 . S
Li1057 O1119 1.961 . S
Li1058 N1103 1.990 . S
Li1058 O1116 1.961 . S
Li1058 O1118 1.956 . S
Li1058 O1119 1.970 . S
Li1059 N1109 1.990 . S
Li1059 O1117 1.961 . S
Li1059 O1118 1.970 . S
Li1059 O1119 1.956 . S
C1060 C1062 1.348 . S
C1060 C1063 1.356 . S
C1060 O1116 1.325 . S
N1061 C1064 1.314 . S
N1061 C1065 1.279 . S
C1062 C1060 1.348 . S
C1062 C1064 1.353 . S
C1062 H1120 0.929 . S
C1063 C1060 1.356 . S
C1063 C1065 1.358 . S
C1063 H1121 0.930 . S
C1064 N1061 1.314 . S
C1064 C1062 1.353 . S
C1064 H1122 0.930 . S
C1065 N1061 1.279 . S
C1065 C1063 1.358 . S
C1065 H1123 0.930 . S
C1066 C1069 1.348 . S
C1066 C1070 1.356 . S
C1066 O1117 1.325 . S
C1067 N1068 1.279 . S
C1067 C1070 1.358 . S
C1067 H1124 0.930 . S
N1068 C1067 1.279 . S
N1068 C1071 1.314 . S
C1069 C1066 1.348 . S
C1069 C1071 1.353 . S
C1069 H1125 0.929 . S
C1070 C1066 1.356 . S
C1070 C1067 1.358 . S
C1070 H1126 0.930 . S
C1071 N1068 1.314 . S
C1071 C1069 1.353 . S
C1071 H1127 0.930 . S
C1072 N1073 1.314 . S
C1072 C1077 1.353 . S
C1072 H1078 0.930 . S
N1073 Li1056 1.990 . S
N1073 C1072 1.314 . S
N1073 C1075 1.279 . S
C1074 C1075 1.358 . S
C1074 C1076 1.356 . S
C1074 H1128 0.930 . S
C1075 N1073 1.279 . S
C1075 C1074 1.358 . S
C1075 H1079 0.930 . S
C1076 C1074 1.356 . S
C1076 C1077 1.348 . S
C1077 C1072 1.353 . S
C1077 C1076 1.348 . S
C1077 H1129 0.929 . S
H1078 C1072 0.930 . S
H1079 C1075 0.930 . S
C1080 N1081 1.314 . S
C1080 C1082 1.353 . S
C1080 H1086 0.930 . S
N1081 Li1057 1.990 . S
N1081 C1080 1.314 . S
N1081 C1084 1.279 . S
C1082 C1080 1.353 . S
C1082 C1085 1.348 . S
C1082 H1130 0.929 . S
C1083 C1084 1.358 . S
C1083 C1085 1.356 . S
C1083 H1131 0.930 . S
C1084 N1081 1.279 . S
C1084 C1083 1.358 . S
C1084 H1087 0.930 . S
C1085 C1082 1.348 . S
C1085 C1083 1.356 . S
H1086 C1080 0.930 . S
H1087 C1084 0.930 . S
C1088 C1090 1.348 . S
C1088 C1091 1.356 . S
C1088 O1118 1.325 . S
N1089 C1092 1.314 . S
N1089 C1093 1.279 . S
C1090 C1088 1.348 . S
C1090 C1092 1.353 . S
C1090 H1132 0.929 . S
C1091 C1088 1.356 . S
C1091 C1093 1.358 . S
C1091 H1133 0.930 . S
C1092 N1089 1.314 . S
C1092 C1090 1.353 . S
C1092 H1134 0.930 . S
C1093 N1089 1.279 . S
C1093 C1091 1.358 . S
C1093 H1135 0.930 . S
C1094 C1095 1.348 . S
C1094 C1096 1.356 . S
C1094 O1119 1.325 . S
C1095 C1094 1.348 . S
C1095 C1097 1.353 . S
C1095 H1136 0.929 . S
C1096 C1094 1.356 . S
C1096 C1098 1.358 . S
C1096 H1137 0.930 . S
C1097 C1095 1.353 . S
C1097 N1099 1.314 . S
C1097 H1138 0.930 . S
C1098 C1096 1.358 . S
C1098 N1099 1.279 . S
C1098 H1139 0.930 . S
N1099 C1097 1.314 . S
N1099 C1098 1.279 . S
C1100 C1102 1.353 . S
C1100 N1103 1.314 . S
C1100 H1106 0.930 . S
C1101 N1103 1.279 . S
C1101 C1104 1.358 . S
C1101 H1107 0.930 . S
C1102 C1100 1.353 . S
C1102 C1105 1.348 . S
C1102 H1140 0.929 . S
N1103 Li1058 1.990 . S
N1103 C1100 1.314 . S
N1103 C1101 1.279 . S
C1104 C1101 1.358 . S
C1104 C1105 1.356 . S
C1104 H1141 0.930 . S
C1105 C1102 1.348 . S
C1105 C1104 1.356 . S
H1106 C1100 0.930 . S
H1107 C1101 0.930 . S
C1108 N1109 1.314 . S
C1108 C1110 1.353 . S
C1108 H1114 0.930 . S
N1109 Li1059 1.990 . S
N1109 C1108 1.314 . S
N1109 C1112 1.279 . S
C1110 C1108 1.353 . S
C1110 C1113 1.348 . S
C1110 H1142 0.929 . S
C1111 C1112 1.358 . S
C1111 C1113 1.356 . S
C1111 H1143 0.930 . S
C1112 N1109 1.279 . S
C1112 C1111 1.358 . S
C1112 H1115 0.930 . S
C1113 C1110 1.348 . S
C1113 C1111 1.356 . S
H1114 C1108 0.930 . S
H1115 C1112 0.930 . S
O1116 Li1056 1.956 . S
O1116 Li1057 1.970 . S
O1116 Li1058 1.961 . S
O1116 C1060 1.325 . S
O1117 Li1056 1.970 . S
O1117 Li1057 1.956 . S
O1117 Li1059 1.961 . S
O1117 C1066 1.325 . S
O1118 Li1056 1.961 . S
O1118 Li1058 1.956 . S
O1118 Li1059 1.970 . S
O1118 C1088 1.325 . S
O1119 Li1057 1.961 . S
O1119 Li1058 1.970 . S
O1119 Li1059 1.956 . S
O1119 C1094 1.325 . S
H1120 C1062 0.929 . S
H1121 C1063 0.930 . S
H1122 C1064 0.930 . S
H1123 C1065 0.930 . S
H1124 C1067 0.930 . S
H1125 C1069 0.929 . S
H1126 C1070 0.930 . S
H1127 C1071 0.930 . S
H1128 C1074 0.930 . S
H1129 C1077 0.929 . S
H1130 C1082 0.929 . S
H1131 C1083 0.930 . S
H1132 C1090 0.929 . S
H1133 C1091 0.930 . S
H1134 C1092 0.930 . S
H1135 C1093 0.930 . S
H1136 C1095 0.929 . S
H1137 C1096 0.930 . S
H1138 C1097 0.930 . S
H1139 C1098 0.930 . S
H1140 C1102 0.929 . S
H1141 C1104 0.930 . S
H1142 C1110 0.929 . S
H1143 C1111 0.930 . S
Li1144 N1161 1.990 . S
Li1144 O1204 1.956 . S
Li1144 O1205 1.970 . S
Li1144 O1206 1.961 . S
Li1145 N1169 1.990 . S
Li1145 O1204 1.970 . S
Li1145 O1205 1.956 . S
Li1145 O1207 1.961 . S
Li1146 N1191 1.990 . S
Li1146 O1204 1.961 . S
Li1146 O1206 1.956 . S
Li1146 O1207 1.970 . S
Li1147 N1197 1.990 . S
Li1147 O1205 1.961 . S
Li1147 O1206 1.970 . S
Li1147 O1207 1.956 . S
C1148 C1150 1.348 . S
C1148 C1151 1.356 . S
C1148 O1204 1.325 . S
N1149 C1152 1.314 . S
N1149 C1153 1.279 . S
C1150 C1148 1.348 . S
C1150 C1152 1.353 . S
C1150 H1208 0.929 . S
C1151 C1148 1.356 . S
C1151 C1153 1.358 . S
C1151 H1209 0.930 . S
C1152 N1149 1.314 . S
C1152 C1150 1.353 . S
C1152 H1210 0.930 . S
C1153 N1149 1.279 . S
C1153 C1151 1.358 . S
C1153 H1211 0.930 . S
C1154 C1157 1.348 . S
C1154 C1158 1.356 . S
C1154 O1205 1.325 . S
C1155 N1156 1.279 . S
C1155 C1158 1.358 . S
C1155 H1212 0.930 . S
N1156 C1155 1.279 . S
N1156 C1159 1.314 . S
C1157 C1154 1.348 . S
C1157 C1159 1.353 . S
C1157 H1213 0.929 . S
C1158 C1154 1.356 . S
C1158 C1155 1.358 . S
C1158 H1214 0.930 . S
C1159 N1156 1.314 . S
C1159 C1157 1.353 . S
C1159 H1215 0.930 . S
C1160 N1161 1.314 . S
C1160 C1165 1.353 . S
C1160 H1166 0.930 . S
N1161 Li1144 1.990 . S
N1161 C1160 1.314 . S
N1161 C1163 1.279 . S
C1162 C1163 1.358 . S
C1162 C1164 1.356 . S
C1162 H1216 0.930 . S
C1163 N1161 1.279 . S
C1163 C1162 1.358 . S
C1163 H1167 0.930 . S
C1164 C1162 1.356 . S
C1164 C1165 1.348 . S
C1165 C1160 1.353 . S
C1165 C1164 1.348 . S
C1165 H1217 0.929 . S
H1166 C1160 0.930 . S
H1167 C1163 0.930 . S
C1168 N1169 1.314 . S
C1168 C1170 1.353 . S
C1168 H1174 0.930 . S
N1169 Li1145 1.990 . S
N1169 C1168 1.314 . S
N1169 C1172 1.279 . S
C1170 C1168 1.353 . S
C1170 C1173 1.348 . S
C1170 H1218 0.929 . S
C1171 C1172 1.358 . S
C1171 C1173 1.356 . S
C1171 H1219 0.930 . S
C1172 N1169 1.279 . S
C1172 C1171 1.358 . S
C1172 H1175 0.930 . S
C1173 C1170 1.348 . S
C1173 C1171 1.356 . S
H1174 C1168 0.930 . S
H1175 C1172 0.930 . S
C1176 C1178 1.348 . S
C1176 C1179 1.356 . S
C1176 O1206 1.325 . S
N1177 C1180 1.314 . S
N1177 C1181 1.279 . S
C1178 C1176 1.348 . S
C1178 C1180 1.353 . S
C1178 H1220 0.929 . S
C1179 C1176 1.356 . S
C1179 C1181 1.358 . S
C1179 H1221 0.930 . S
C1180 N1177 1.314 . S
C1180 C1178 1.353 . S
C1180 H1222 0.930 . S
C1181 N1177 1.279 . S
C1181 C1179 1.358 . S
C1181 H1223 0.930 . S
C1182 C1183 1.348 . S
C1182 C1184 1.356 . S
C1182 O1207 1.325 . S
C1183 C1182 1.348 . S
C1183 C1185 1.353 . S
C1183 H1224 0.929 . S
C1184 C1182 1.356 . S
C1184 C1186 1.358 . S
C1184 H1225 0.930 . S
C1185 C1183 1.353 . S
C1185 N1187 1.314 . S
C1185 H1226 0.930 . S
C1186 C1184 1.358 . S
C1186 N1187 1.279 . S
C1186 H1227 0.930 . S
N1187 C1185 1.314 . S
N1187 C1186 1.279 . S
C1188 C1190 1.353 . S
C1188 N1191 1.314 . S
C1188 H1194 0.930 . S
C1189 N1191 1.279 . S
C1189 C1192 1.358 . S
C1189 H1195 0.930 . S
C1190 C1188 1.353 . S
C1190 C1193 1.348 . S
C1190 H1228 0.929 . S
N1191 Li1146 1.990 . S
N1191 C1188 1.314 . S
N1191 C1189 1.279 . S
C1192 C1189 1.358 . S
C1192 C1193 1.356 . S
C1192 H1229 0.930 . S
C1193 C1190 1.348 . S
C1193 C1192 1.356 . S
H1194 C1188 0.930 . S
H1195 C1189 0.930 . S
C1196 N1197 1.314 . S
C1196 C1198 1.353 . S
C1196 H1202 0.930 . S
N1197 Li1147 1.990 . S
N1197 C1196 1.314 . S
N1197 C1200 1.279 . S
C1198 C1196 1.353 . S
C1198 C1201 1.348 . S
C1198 H1230 0.929 . S
C1199 C1200 1.358 . S
C1199 C1201 1.356 . S
C1199 H1231 0.930 . S
C1200 N1197 1.279 . S
C1200 C1199 1.358 . S
C1200 H1203 0.930 . S
C1201 C1198 1.348 . S
C1201 C1199 1.356 . S
H1202 C1196 0.930 . S
H1203 C1200 0.930 . S
O1204 Li1144 1.956 . S
O1204 Li1145 1.970 . S
O1204 Li1146 1.961 . S
O1204 C1148 1.325 . S
O1205 Li1144 1.970 . S
O1205 Li1145 1.956 . S
O1205 Li1147 1.961 . S
O1205 C1154 1.325 . S
O1206 Li1144 1.961 . S
O1206 Li1146 1.956 . S
O1206 Li1147 1.970 . S
O1206 C1176 1.325 . S
O1207 Li1145 1.961 . S
O1207 Li1146 1.970 . S
O1207 Li1147 1.956 . S
O1207 C1182 1.325 . S
H1208 C1150 0.929 . S
H1209 C1151 0.930 . S
H1210 C1152 0.930 . S
H1211 C1153 0.930 . S
H1212 C1155 0.930 . S
H1213 C1157 0.929 . S
H1214 C1158 0.930 . S
H1215 C1159 0.930 . S
H1216 C1162 0.930 . S
H1217 C1165 0.929 . S
H1218 C1170 0.929 . S
H1219 C1171 0.930 . S
H1220 C1178 0.929 . S
H1221 C1179 0.930 . S
H1222 C1180 0.930 . S
H1223 C1181 0.930 . S
H1224 C1183 0.929 . S
H1225 C1184 0.930 . S
H1226 C1185 0.930 . S
H1227 C1186 0.930 . S
H1228 C1190 0.929 . S
H1229 C1192 0.930 . S
H1230 C1198 0.929 . S
H1231 C1199 0.930 . S
Li1232 N1249 1.990 . S
Li1232 O1292 1.956 . S
Li1232 O1293 1.970 . S
Li1232 O1294 1.961 . S
Li1233 N1257 1.990 . S
Li1233 O1292 1.970 . S
Li1233 O1293 1.956 . S
Li1233 O1295 1.961 . S
Li1234 N1279 1.990 . S
Li1234 O1292 1.961 . S
Li1234 O1294 1.956 . S
Li1234 O1295 1.970 . S
Li1235 N1285 1.990 . S
Li1235 O1293 1.961 . S
Li1235 O1294 1.970 . S
Li1235 O1295 1.956 . S
C1236 C1238 1.348 . S
C1236 C1239 1.356 . S
C1236 O1292 1.325 . S
N1237 C1240 1.314 . S
N1237 C1241 1.279 . S
C1238 C1236 1.348 . S
C1238 C1240 1.353 . S
C1238 H1296 0.929 . S
C1239 C1236 1.356 . S
C1239 C1241 1.358 . S
C1239 H1297 0.930 . S
C1240 N1237 1.314 . S
C1240 C1238 1.353 . S
C1240 H1298 0.930 . S
C1241 N1237 1.279 . S
C1241 C1239 1.358 . S
C1241 H1299 0.930 . S
C1242 C1245 1.348 . S
C1242 C1246 1.356 . S
C1242 O1293 1.325 . S
C1243 N1244 1.279 . S
C1243 C1246 1.358 . S
C1243 H1300 0.930 . S
N1244 C1243 1.279 . S
N1244 C1247 1.314 . S
C1245 C1242 1.348 . S
C1245 C1247 1.353 . S
C1245 H1301 0.929 . S
C1246 C1242 1.356 . S
C1246 C1243 1.358 . S
C1246 H1302 0.930 . S
C1247 N1244 1.314 . S
C1247 C1245 1.353 . S
C1247 H1303 0.930 . S
C1248 N1249 1.314 . S
C1248 C1253 1.353 . S
C1248 H1254 0.930 . S
N1249 Li1232 1.990 . S
N1249 C1248 1.314 . S
N1249 C1251 1.279 . S
C1250 C1251 1.358 . S
C1250 C1252 1.356 . S
C1250 H1304 0.930 . S
C1251 N1249 1.279 . S
C1251 C1250 1.358 . S
C1251 H1255 0.930 . S
C1252 C1250 1.356 . S
C1252 C1253 1.348 . S
C1253 C1248 1.353 . S
C1253 C1252 1.348 . S
C1253 H1305 0.929 . S
H1254 C1248 0.930 . S
H1255 C1251 0.930 . S
C1256 N1257 1.314 . S
C1256 C1258 1.353 . S
C1256 H1262 0.930 . S
N1257 Li1233 1.990 . S
N1257 C1256 1.314 . S
N1257 C1260 1.279 . S
C1258 C1256 1.353 . S
C1258 C1261 1.348 . S
C1258 H1306 0.929 . S
C1259 C1260 1.358 . S
C1259 C1261 1.356 . S
C1259 H1307 0.930 . S
C1260 N1257 1.279 . S
C1260 C1259 1.358 . S
C1260 H1263 0.930 . S
C1261 C1258 1.348 . S
C1261 C1259 1.356 . S
H1262 C1256 0.930 . S
H1263 C1260 0.930 . S
C1264 C1266 1.348 . S
C1264 C1267 1.356 . S
C1264 O1294 1.325 . S
N1265 C1268 1.314 . S
N1265 C1269 1.279 . S
C1266 C1264 1.348 . S
C1266 C1268 1.353 . S
C1266 H1308 0.929 . S
C1267 C1264 1.356 . S
C1267 C1269 1.358 . S
C1267 H1309 0.930 . S
C1268 N1265 1.314 . S
C1268 C1266 1.353 . S
C1268 H1310 0.930 . S
C1269 N1265 1.279 . S
C1269 C1267 1.358 . S
C1269 H1311 0.930 . S
C1270 C1271 1.348 . S
C1270 C1272 1.356 . S
C1270 O1295 1.325 . S
C1271 C1270 1.348 . S
C1271 C1273 1.353 . S
C1271 H1312 0.929 . S
C1272 C1270 1.356 . S
C1272 C1274 1.358 . S
C1272 H1313 0.930 . S
C1273 C1271 1.353 . S
C1273 N1275 1.314 . S
C1273 H1314 0.930 . S
C1274 C1272 1.358 . S
C1274 N1275 1.279 . S
C1274 H1315 0.930 . S
N1275 C1273 1.314 . S
N1275 C1274 1.279 . S
C1276 C1278 1.353 . S
C1276 N1279 1.314 . S
C1276 H1282 0.930 . S
C1277 N1279 1.279 . S
C1277 C1280 1.358 . S
C1277 H1283 0.930 . S
C1278 C1276 1.353 . S
C1278 C1281 1.348 . S
C1278 H1316 0.929 . S
N1279 Li1234 1.990 . S
N1279 C1276 1.314 . S
N1279 C1277 1.279 . S
C1280 C1277 1.358 . S
C1280 C1281 1.356 . S
C1280 H1317 0.930 . S
C1281 C1278 1.348 . S
C1281 C1280 1.356 . S
H1282 C1276 0.930 . S
H1283 C1277 0.930 . S
C1284 N1285 1.314 . S
C1284 C1286 1.353 . S
C1284 H1290 0.930 . S
N1285 Li1235 1.990 . S
N1285 C1284 1.314 . S
N1285 C1288 1.279 . S
C1286 C1284 1.353 . S
C1286 C1289 1.348 . S
C1286 H1318 0.929 . S
C1287 C1288 1.358 . S
C1287 C1289 1.356 . S
C1287 H1319 0.930 . S
C1288 N1285 1.279 . S
C1288 C1287 1.358 . S
C1288 H1291 0.930 . S
C1289 C1286 1.348 . S
C1289 C1287 1.356 . S
H1290 C1284 0.930 . S
H1291 C1288 0.930 . S
O1292 Li1232 1.956 . S
O1292 Li1233 1.970 . S
O1292 Li1234 1.961 . S
O1292 C1236 1.325 . S
O1293 Li1232 1.970 . S
O1293 Li1233 1.956 . S
O1293 Li1235 1.961 . S
O1293 C1242 1.325 . S
O1294 Li1232 1.961 . S
O1294 Li1234 1.956 . S
O1294 Li1235 1.970 . S
O1294 C1264 1.325 . S
O1295 Li1233 1.961 . S
O1295 Li1234 1.970 . S
O1295 Li1235 1.956 . S
O1295 C1270 1.325 . S
H1296 C1238 0.929 . S
H1297 C1239 0.930 . S
H1298 C1240 0.930 . S
H1299 C1241 0.930 . S
H1300 C1243 0.930 . S
H1301 C1245 0.929 . S
H1302 C1246 0.930 . S
H1303 C1247 0.930 . S
H1304 C1250 0.930 . S
H1305 C1253 0.929 . S
H1306 C1258 0.929 . S
H1307 C1259 0.930 . S
H1308 C1266 0.929 . S
H1309 C1267 0.930 . S
H1310 C1268 0.930 . S
H1311 C1269 0.930 . S
H1312 C1271 0.929 . S
H1313 C1272 0.930 . S
H1314 C1273 0.930 . S
H1315 C1274 0.930 . S
H1316 C1278 0.929 . S
H1317 C1280 0.930 . S
H1318 C1286 0.929 . S
H1319 C1287 0.930 . S
Li1320 N1337 1.990 . S
Li1320 O1380 1.956 . S
Li1320 O1381 1.970 . S
Li1320 O1382 1.961 . S
Li1321 N1345 1.990 . S
Li1321 O1380 1.970 . S
Li1321 O1381 1.956 . S
Li1321 O1383 1.961 . S
Li1322 N1367 1.990 . S
Li1322 O1380 1.961 . S
Li1322 O1382 1.956 . S
Li1322 O1383 1.970 . S
Li1323 N1373 1.990 . S
Li1323 O1381 1.961 . S
Li1323 O1382 1.970 . S
Li1323 O1383 1.956 . S
C1324 C1326 1.348 . S
C1324 C1327 1.356 . S
C1324 O1380 1.325 . S
N1325 C1328 1.314 . S
N1325 C1329 1.279 . S
C1326 C1324 1.348 . S
C1326 C1328 1.353 . S
C1326 H1384 0.929 . S
C1327 C1324 1.356 . S
C1327 C1329 1.358 . S
C1327 H1385 0.930 . S
C1328 N1325 1.314 . S
C1328 C1326 1.353 . S
C1328 H1386 0.930 . S
C1329 N1325 1.279 . S
C1329 C1327 1.358 . S
C1329 H1387 0.930 . S
C1330 C1333 1.348 . S
C1330 C1334 1.356 . S
C1330 O1381 1.325 . S
C1331 N1332 1.279 . S
C1331 C1334 1.358 . S
C1331 H1388 0.930 . S
N1332 C1331 1.279 . S
N1332 C1335 1.314 . S
C1333 C1330 1.348 . S
C1333 C1335 1.353 . S
C1333 H1389 0.929 . S
C1334 C1330 1.356 . S
C1334 C1331 1.358 . S
C1334 H1390 0.930 . S
C1335 N1332 1.314 . S
C1335 C1333 1.353 . S
C1335 H1391 0.930 . S
C1336 N1337 1.314 . S
C1336 C1341 1.353 . S
C1336 H1342 0.930 . S
N1337 Li1320 1.990 . S
N1337 C1336 1.314 . S
N1337 C1339 1.279 . S
C1338 C1339 1.358 . S
C1338 C1340 1.356 . S
C1338 H1392 0.930 . S
C1339 N1337 1.279 . S
C1339 C1338 1.358 . S
C1339 H1343 0.930 . S
C1340 C1338 1.356 . S
C1340 C1341 1.348 . S
C1341 C1336 1.353 . S
C1341 C1340 1.348 . S
C1341 H1393 0.929 . S
H1342 C1336 0.930 . S
H1343 C1339 0.930 . S
C1344 N1345 1.314 . S
C1344 C1346 1.353 . S
C1344 H1350 0.930 . S
N1345 Li1321 1.990 . S
N1345 C1344 1.314 . S
N1345 C1348 1.279 . S
C1346 C1344 1.353 . S
C1346 C1349 1.348 . S
C1346 H1394 0.929 . S
C1347 C1348 1.358 . S
C1347 C1349 1.356 . S
C1347 H1395 0.930 . S
C1348 N1345 1.279 . S
C1348 C1347 1.358 . S
C1348 H1351 0.930 . S
C1349 C1346 1.348 . S
C1349 C1347 1.356 . S
H1350 C1344 0.930 . S
H1351 C1348 0.930 . S
C1352 C1354 1.348 . S
C1352 C1355 1.356 . S
C1352 O1382 1.325 . S
N1353 C1356 1.314 . S
N1353 C1357 1.279 . S
C1354 C1352 1.348 . S
C1354 C1356 1.353 . S
C1354 H1396 0.929 . S
C1355 C1352 1.356 . S
C1355 C1357 1.358 . S
C1355 H1397 0.930 . S
C1356 N1353 1.314 . S
C1356 C1354 1.353 . S
C1356 H1398 0.930 . S
C1357 N1353 1.279 . S
C1357 C1355 1.358 . S
C1357 H1399 0.930 . S
C1358 C1359 1.348 . S
C1358 C1360 1.356 . S
C1358 O1383 1.325 . S
C1359 C1358 1.348 . S
C1359 C1361 1.353 . S
C1359 H1400 0.929 . S
C1360 C1358 1.356 . S
C1360 C1362 1.358 . S
C1360 H1401 0.930 . S
C1361 C1359 1.353 . S
C1361 N1363 1.314 . S
C1361 H1402 0.930 . S
C1362 C1360 1.358 . S
C1362 N1363 1.279 . S
C1362 H1403 0.930 . S
N1363 C1361 1.314 . S
N1363 C1362 1.279 . S
C1364 C1366 1.353 . S
C1364 N1367 1.314 . S
C1364 H1370 0.930 . S
C1365 N1367 1.279 . S
C1365 C1368 1.358 . S
C1365 H1371 0.930 . S
C1366 C1364 1.353 . S
C1366 C1369 1.348 . S
C1366 H1404 0.929 . S
N1367 Li1322 1.990 . S
N1367 C1364 1.314 . S
N1367 C1365 1.279 . S
C1368 C1365 1.358 . S
C1368 C1369 1.356 . S
C1368 H1405 0.930 . S
C1369 C1366 1.348 . S
C1369 C1368 1.356 . S
H1370 C1364 0.930 . S
H1371 C1365 0.930 . S
C1372 N1373 1.314 . S
C1372 C1374 1.353 . S
C1372 H1378 0.930 . S
N1373 Li1323 1.990 . S
N1373 C1372 1.314 . S
N1373 C1376 1.279 . S
C1374 C1372 1.353 . S
C1374 C1377 1.348 . S
C1374 H1406 0.929 . S
C1375 C1376 1.358 . S
C1375 C1377 1.356 . S
C1375 H1407 0.930 . S
C1376 N1373 1.279 . S
C1376 C1375 1.358 . S
C1376 H1379 0.930 . S
C1377 C1374 1.348 . S
C1377 C1375 1.356 . S
H1378 C1372 0.930 . S
H1379 C1376 0.930 . S
O1380 Li1320 1.956 . S
O1380 Li1321 1.970 . S
O1380 Li1322 1.961 . S
O1380 C1324 1.325 . S
O1381 Li1320 1.970 . S
O1381 Li1321 1.956 . S
O1381 Li1323 1.961 . S
O1381 C1330 1.325 . S
O1382 Li1320 1.961 . S
O1382 Li1322 1.956 . S
O1382 Li1323 1.970 . S
O1382 C1352 1.325 . S
O1383 Li1321 1.961 . S
O1383 Li1322 1.970 . S
O1383 Li1323 1.956 . S
O1383 C1358 1.325 . S
H1384 C1326 0.929 . S
H1385 C1327 0.930 . S
H1386 C1328 0.930 . S
H1387 C1329 0.930 . S
H1388 C1331 0.930 . S
H1389 C1333 0.929 . S
H1390 C1334 0.930 . S
H1391 C1335 0.930 . S
H1392 C1338 0.930 . S
H1393 C1341 0.929 . S
H1394 C1346 0.929 . S
H1395 C1347 0.930 . S
H1396 C1354 0.929 . S
H1397 C1355 0.930 . S
H1398 C1356 0.930 . S
H1399 C1357 0.930 . S
H1400 C1359 0.929 . S
H1401 C1360 0.930 . S
H1402 C1361 0.930 . S
H1403 C1362 0.930 . S
H1404 C1366 0.929 . S
H1405 C1368 0.930 . S
H1406 C1374 0.929 . S
H1407 C1375 0.930 . S
Li1408 N1425 1.990 . S
Li1408 O1468 1.956 . S
Li1408 O1469 1.970 . S
Li1408 O1470 1.961 . S
Li1409 N1433 1.990 . S
Li1409 O1468 1.970 . S
Li1409 O1469 1.956 . S
Li1409 O1471 1.961 . S
Li1410 N1455 1.990 . S
Li1410 O1468 1.961 . S
Li1410 O1470 1.956 . S
Li1410 O1471 1.970 . S
Li1411 N1461 1.990 . S
Li1411 O1469 1.961 . S
Li1411 O1470 1.970 . S
Li1411 O1471 1.956 . S
C1412 C1414 1.348 . S
C1412 C1415 1.356 . S
C1412 O1468 1.325 . S
N1413 C1416 1.314 . S
N1413 C1417 1.279 . S
C1414 C1412 1.348 . S
C1414 C1416 1.353 . S
C1414 H1472 0.929 . S
C1415 C1412 1.356 . S
C1415 C1417 1.358 . S
C1415 H1473 0.930 . S
C1416 N1413 1.314 . S
C1416 C1414 1.353 . S
C1416 H1474 0.930 . S
C1417 N1413 1.279 . S
C1417 C1415 1.358 . S
C1417 H1475 0.930 . S
C1418 C1421 1.348 . S
C1418 C1422 1.356 . S
C1418 O1469 1.325 . S
C1419 N1420 1.279 . S
C1419 C1422 1.358 . S
C1419 H1476 0.930 . S
N1420 C1419 1.279 . S
N1420 C1423 1.314 . S
C1421 C1418 1.348 . S
C1421 C1423 1.353 . S
C1421 H1477 0.929 . S
C1422 C1418 1.356 . S
C1422 C1419 1.358 . S
C1422 H1478 0.930 . S
C1423 N1420 1.314 . S
C1423 C1421 1.353 . S
C1423 H1479 0.930 . S
C1424 N1425 1.314 . S
C1424 C1429 1.353 . S
C1424 H1430 0.930 . S
N1425 Li1408 1.990 . S
N1425 C1424 1.314 . S
N1425 C1427 1.279 . S
C1426 C1427 1.358 . S
C1426 C1428 1.356 . S
C1426 H1480 0.930 . S
C1427 N1425 1.279 . S
C1427 C1426 1.358 . S
C1427 H1431 0.930 . S
C1428 C1426 1.356 . S
C1428 C1429 1.348 . S
C1429 C1424 1.353 . S
C1429 C1428 1.348 . S
C1429 H1481 0.929 . S
H1430 C1424 0.930 . S
H1431 C1427 0.930 . S
C1432 N1433 1.314 . S
C1432 C1434 1.353 . S
C1432 H1438 0.930 . S
N1433 Li1409 1.990 . S
N1433 C1432 1.314 . S
N1433 C1436 1.279 . S
C1434 C1432 1.353 . S
C1434 C1437 1.348 . S
C1434 H1482 0.929 . S
C1435 C1436 1.358 . S
C1435 C1437 1.356 . S
C1435 H1483 0.930 . S
C1436 N1433 1.279 . S
C1436 C1435 1.358 . S
C1436 H1439 0.930 . S
C1437 C1434 1.348 . S
C1437 C1435 1.356 . S
H1438 C1432 0.930 . S
H1439 C1436 0.930 . S
C1440 C1442 1.348 . S
C1440 C1443 1.356 . S
C1440 O1470 1.325 . S
N1441 C1444 1.314 . S
N1441 C1445 1.279 . S
C1442 C1440 1.348 . S
C1442 C1444 1.353 . S
C1442 H1484 0.929 . S
C1443 C1440 1.356 . S
C1443 C1445 1.358 . S
C1443 H1485 0.930 . S
C1444 N1441 1.314 . S
C1444 C1442 1.353 . S
C1444 H1486 0.930 . S
C1445 N1441 1.279 . S
C1445 C1443 1.358 . S
C1445 H1487 0.930 . S
C1446 C1447 1.348 . S
C1446 C1448 1.356 . S
C1446 O1471 1.325 . S
C1447 C1446 1.348 . S
C1447 C1449 1.353 . S
C1447 H1488 0.929 . S
C1448 C1446 1.356 . S
C1448 C1450 1.358 . S
C1448 H1489 0.930 . S
C1449 C1447 1.353 . S
C1449 N1451 1.314 . S
C1449 H1490 0.930 . S
C1450 C1448 1.358 . S
C1450 N1451 1.279 . S
C1450 H1491 0.930 . S
N1451 C1449 1.314 . S
N1451 C1450 1.279 . S
C1452 C1454 1.353 . S
C1452 N1455 1.314 . S
C1452 H1458 0.930 . S
C1453 N1455 1.279 . S
C1453 C1456 1.358 . S
C1453 H1459 0.930 . S
C1454 C1452 1.353 . S
C1454 C1457 1.348 . S
C1454 H1492 0.929 . S
N1455 Li1410 1.990 . S
N1455 C1452 1.314 . S
N1455 C1453 1.279 . S
C1456 C1453 1.358 . S
C1456 C1457 1.356 . S
C1456 H1493 0.930 . S
C1457 C1454 1.348 . S
C1457 C1456 1.356 . S
H1458 C1452 0.930 . S
H1459 C1453 0.930 . S
C1460 N1461 1.314 . S
C1460 C1462 1.353 . S
C1460 H1466 0.930 . S
N1461 Li1411 1.990 . S
N1461 C1460 1.314 . S
N1461 C1464 1.279 . S
C1462 C1460 1.353 . S
C1462 C1465 1.348 . S
C1462 H1494 0.929 . S
C1463 C1464 1.358 . S
C1463 C1465 1.356 . S
C1463 H1495 0.930 . S
C1464 N1461 1.279 . S
C1464 C1463 1.358 . S
C1464 H1467 0.930 . S
C1465 C1462 1.348 . S
C1465 C1463 1.356 . S
H1466 C1460 0.930 . S
H1467 C1464 0.930 . S
O1468 Li1408 1.956 . S
O1468 Li1409 1.970 . S
O1468 Li1410 1.961 . S
O1468 C1412 1.325 . S
O1469 Li1408 1.970 . S
O1469 Li1409 1.956 . S
O1469 Li1411 1.961 . S
O1469 C1418 1.325 . S
O1470 Li1408 1.961 . S
O1470 Li1410 1.956 . S
O1470 Li1411 1.970 . S
O1470 C1440 1.325 . S
O1471 Li1409 1.961 . S
O1471 Li1410 1.970 . S
O1471 Li1411 1.956 . S
O1471 C1446 1.325 . S
H1472 C1414 0.929 . S
H1473 C1415 0.930 . S
H1474 C1416 0.930 . S
H1475 C1417 0.930 . S
H1476 C1419 0.930 . S
H1477 C1421 0.929 . S
H1478 C1422 0.930 . S
H1479 C1423 0.930 . S
H1480 C1426 0.930 . S
H1481 C1429 0.929 . S
H1482 C1434 0.929 . S
H1483 C1435 0.930 . S
H1484 C1442 0.929 . S
H1485 C1443 0.930 . S
H1486 C1444 0.930 . S
H1487 C1445 0.930 . S
H1488 C1447 0.929 . S
H1489 C1448 0.930 . S
H1490 C1449 0.930 . S
H1491 C1450 0.930 . S
H1492 C1454 0.929 . S
H1493 C1456 0.930 . S
H1494 C1462 0.929 . S
H1495 C1463 0.930 . S
Li1496 N1513 1.990 . S
Li1496 O1556 1.956 . S
Li1496 O1557 1.970 . S
Li1496 O1558 1.961 . S
Li1497 N1521 1.990 . S
Li1497 O1556 1.970 . S
Li1497 O1557 1.956 . S
Li1497 O1559 1.961 . S
Li1498 N1543 1.990 . S
Li1498 O1556 1.961 . S
Li1498 O1558 1.956 . S
Li1498 O1559 1.970 . S
Li1499 N1549 1.990 . S
Li1499 O1557 1.961 . S
Li1499 O1558 1.970 . S
Li1499 O1559 1.956 . S
C1500 C1502 1.348 . S
C1500 C1503 1.356 . S
C1500 O1556 1.325 . S
N1501 C1504 1.314 . S
N1501 C1505 1.279 . S
C1502 C1500 1.348 . S
C1502 C1504 1.353 . S
C1502 H1560 0.929 . S
C1503 C1500 1.356 . S
C1503 C1505 1.358 . S
C1503 H1561 0.930 . S
C1504 N1501 1.314 . S
C1504 C1502 1.353 . S
C1504 H1562 0.930 . S
C1505 N1501 1.279 . S
C1505 C1503 1.358 . S
C1505 H1563 0.930 . S
C1506 C1509 1.348 . S
C1506 C1510 1.356 . S
C1506 O1557 1.325 . S
C1507 N1508 1.279 . S
C1507 C1510 1.358 . S
C1507 H1564 0.930 . S
N1508 C1507 1.279 . S
N1508 C1511 1.314 . S
C1509 C1506 1.348 . S
C1509 C1511 1.353 . S
C1509 H1565 0.929 . S
C1510 C1506 1.356 . S
C1510 C1507 1.358 . S
C1510 H1566 0.930 . S
C1511 N1508 1.314 . S
C1511 C1509 1.353 . S
C1511 H1567 0.930 . S
C1512 N1513 1.314 . S
C1512 C1517 1.353 . S
C1512 H1518 0.930 . S
N1513 Li1496 1.990 . S
N1513 C1512 1.314 . S
N1513 C1515 1.279 . S
C1514 C1515 1.358 . S
C1514 C1516 1.356 . S
C1514 H1568 0.930 . S
C1515 N1513 1.279 . S
C1515 C1514 1.358 . S
C1515 H1519 0.930 . S
C1516 C1514 1.356 . S
C1516 C1517 1.348 . S
C1517 C1512 1.353 . S
C1517 C1516 1.348 . S
C1517 H1569 0.929 . S
H1518 C1512 0.930 . S
H1519 C1515 0.930 . S
C1520 N1521 1.314 . S
C1520 C1522 1.353 . S
C1520 H1526 0.930 . S
N1521 Li1497 1.990 . S
N1521 C1520 1.314 . S
N1521 C1524 1.279 . S
C1522 C1520 1.353 . S
C1522 C1525 1.348 . S
C1522 H1570 0.929 . S
C1523 C1524 1.358 . S
C1523 C1525 1.356 . S
C1523 H1571 0.930 . S
C1524 N1521 1.279 . S
C1524 C1523 1.358 . S
C1524 H1527 0.930 . S
C1525 C1522 1.348 . S
C1525 C1523 1.356 . S
H1526 C1520 0.930 . S
H1527 C1524 0.930 . S
C1528 C1530 1.348 . S
C1528 C1531 1.356 . S
C1528 O1558 1.325 . S
N1529 C1532 1.314 . S
N1529 C1533 1.279 . S
C1530 C1528 1.348 . S
C1530 C1532 1.353 . S
C1530 H1572 0.929 . S
C1531 C1528 1.356 . S
C1531 C1533 1.358 . S
C1531 H1573 0.930 . S
C1532 N1529 1.314 . S
C1532 C1530 1.353 . S
C1532 H1574 0.930 . S
C1533 N1529 1.279 . S
C1533 C1531 1.358 . S
C1533 H1575 0.930 . S
C1534 C1535 1.348 . S
C1534 C1536 1.356 . S
C1534 O1559 1.325 . S
C1535 C1534 1.348 . S
C1535 C1537 1.353 . S
C1535 H1576 0.929 . S
C1536 C1534 1.356 . S
C1536 C1538 1.358 . S
C1536 H1577 0.930 . S
C1537 C1535 1.353 . S
C1537 N1539 1.314 . S
C1537 H1578 0.930 . S
C1538 C1536 1.358 . S
C1538 N1539 1.279 . S
C1538 H1579 0.930 . S
N1539 C1537 1.314 . S
N1539 C1538 1.279 . S
C1540 C1542 1.353 . S
C1540 N1543 1.314 . S
C1540 H1546 0.930 . S
C1541 N1543 1.279 . S
C1541 C1544 1.358 . S
C1541 H1547 0.930 . S
C1542 C1540 1.353 . S
C1542 C1545 1.348 . S
C1542 H1580 0.929 . S
N1543 Li1498 1.990 . S
N1543 C1540 1.314 . S
N1543 C1541 1.279 . S
C1544 C1541 1.358 . S
C1544 C1545 1.356 . S
C1544 H1581 0.930 . S
C1545 C1542 1.348 . S
C1545 C1544 1.356 . S
H1546 C1540 0.930 . S
H1547 C1541 0.930 . S
C1548 N1549 1.314 . S
C1548 C1550 1.353 . S
C1548 H1554 0.930 . S
N1549 Li1499 1.990 . S
N1549 C1548 1.314 . S
N1549 C1552 1.279 . S
C1550 C1548 1.353 . S
C1550 C1553 1.348 . S
C1550 H1582 0.929 . S
C1551 C1552 1.358 . S
C1551 C1553 1.356 . S
C1551 H1583 0.930 . S
C1552 N1549 1.279 . S
C1552 C1551 1.358 . S
C1552 H1555 0.930 . S
C1553 C1550 1.348 . S
C1553 C1551 1.356 . S
H1554 C1548 0.930 . S
H1555 C1552 0.930 . S
O1556 Li1496 1.956 . S
O1556 Li1497 1.970 . S
O1556 Li1498 1.961 . S
O1556 C1500 1.325 . S
O1557 Li1496 1.970 . S
O1557 Li1497 1.956 . S
O1557 Li1499 1.961 . S
O1557 C1506 1.325 . S
O1558 Li1496 1.961 . S
O1558 Li1498 1.956 . S
O1558 Li1499 1.970 . S
O1558 C1528 1.325 . S
O1559 Li1497 1.961 . S
O1559 Li1498 1.970 . S
O1559 Li1499 1.956 . S
O1559 C1534 1.325 . S
H1560 C1502 0.929 . S
H1561 C1503 0.930 . S
H1562 C1504 0.930 . S
H1563 C1505 0.930 . S
H1564 C1507 0.930 . S
H1565 C1509 0.929 . S
H1566 C1510 0.930 . S
H1567 C1511 0.930 . S
H1568 C1514 0.930 . S
H1569 C1517 0.929 . S
H1570 C1522 0.929 . S
H1571 C1523 0.930 . S
H1572 C1530 0.929 . S
H1573 C1531 0.930 . S
H1574 C1532 0.930 . S
H1575 C1533 0.930 . S
H1576 C1535 0.929 . S
H1577 C1536 0.930 . S
H1578 C1537 0.930 . S
H1579 C1538 0.930 . S
H1580 C1542 0.929 . S
H1581 C1544 0.930 . S
H1582 C1550 0.929 . S
H1583 C1551 0.930 . S
Li1584 N1601 1.990 . S
Li1584 O1644 1.956 . S
Li1584 O1645 1.970 . S
Li1584 O1646 1.961 . S
Li1585 N1609 1.990 . S
Li1585 O1644 1.970 . S
Li1585 O1645 1.956 . S
Li1585 O1647 1.961 . S
Li1586 N1631 1.990 . S
Li1586 O1644 1.961 . S
Li1586 O1646 1.956 . S
Li1586 O1647 1.970 . S
Li1587 N1637 1.990 . S
Li1587 O1645 1.961 . S
Li1587 O1646 1.970 . S
Li1587 O1647 1.956 . S
C1588 C1590 1.348 . S
C1588 C1591 1.356 . S
C1588 O1644 1.325 . S
N1589 C1592 1.314 . S
N1589 C1593 1.279 . S
C1590 C1588 1.348 . S
C1590 C1592 1.353 . S
C1590 H1648 0.929 . S
C1591 C1588 1.356 . S
C1591 C1593 1.358 . S
C1591 H1649 0.930 . S
C1592 N1589 1.314 . S
C1592 C1590 1.353 . S
C1592 H1650 0.930 . S
C1593 N1589 1.279 . S
C1593 C1591 1.358 . S
C1593 H1651 0.930 . S
C1594 C1597 1.348 . S
C1594 C1598 1.356 . S
C1594 O1645 1.325 . S
C1595 N1596 1.279 . S
C1595 C1598 1.358 . S
C1595 H1652 0.930 . S
N1596 C1595 1.279 . S
N1596 C1599 1.314 . S
C1597 C1594 1.348 . S
C1597 C1599 1.353 . S
C1597 H1653 0.929 . S
C1598 C1594 1.356 . S
C1598 C1595 1.358 . S
C1598 H1654 0.930 . S
C1599 N1596 1.314 . S
C1599 C1597 1.353 . S
C1599 H1655 0.930 . S
C1600 N1601 1.314 . S
C1600 C1605 1.353 . S
C1600 H1606 0.930 . S
N1601 Li1584 1.990 . S
N1601 C1600 1.314 . S
N1601 C1603 1.279 . S
C1602 C1603 1.358 . S
C1602 C1604 1.356 . S
C1602 H1656 0.930 . S
C1603 N1601 1.279 . S
C1603 C1602 1.358 . S
C1603 H1607 0.930 . S
C1604 C1602 1.356 . S
C1604 C1605 1.348 . S
C1605 C1600 1.353 . S
C1605 C1604 1.348 . S
C1605 H1657 0.929 . S
H1606 C1600 0.930 . S
H1607 C1603 0.930 . S
C1608 N1609 1.314 . S
C1608 C1610 1.353 . S
C1608 H1614 0.930 . S
N1609 Li1585 1.990 . S
N1609 C1608 1.314 . S
N1609 C1612 1.279 . S
C1610 C1608 1.353 . S
C1610 C1613 1.348 . S
C1610 H1658 0.929 . S
C1611 C1612 1.358 . S
C1611 C1613 1.356 . S
C1611 H1659 0.930 . S
C1612 N1609 1.279 . S
C1612 C1611 1.358 . S
C1612 H1615 0.930 . S
C1613 C1610 1.348 . S
C1613 C1611 1.356 . S
H1614 C1608 0.930 . S
H1615 C1612 0.930 . S
C1616 C1618 1.348 . S
C1616 C1619 1.356 . S
C1616 O1646 1.325 . S
N1617 C1620 1.314 . S
N1617 C1621 1.279 . S
C1618 C1616 1.348 . S
C1618 C1620 1.353 . S
C1618 H1660 0.929 . S
C1619 C1616 1.356 . S
C1619 C1621 1.358 . S
C1619 H1661 0.930 . S
C1620 N1617 1.314 . S
C1620 C1618 1.353 . S
C1620 H1662 0.930 . S
C1621 N1617 1.279 . S
C1621 C1619 1.358 . S
C1621 H1663 0.930 . S
C1622 C1623 1.348 . S
C1622 C1624 1.356 . S
C1622 O1647 1.325 . S
C1623 C1622 1.348 . S
C1623 C1625 1.353 . S
C1623 H1664 0.929 . S
C1624 C1622 1.356 . S
C1624 C1626 1.358 . S
C1624 H1665 0.930 . S
C1625 C1623 1.353 . S
C1625 N1627 1.314 . S
C1625 H1666 0.930 . S
C1626 C1624 1.358 . S
C1626 N1627 1.279 . S
C1626 H1667 0.930 . S
N1627 C1625 1.314 . S
N1627 C1626 1.279 . S
C1628 C1630 1.353 . S
C1628 N1631 1.314 . S
C1628 H1634 0.930 . S
C1629 N1631 1.279 . S
C1629 C1632 1.358 . S
C1629 H1635 0.930 . S
C1630 C1628 1.353 . S
C1630 C1633 1.348 . S
C1630 H1668 0.929 . S
N1631 Li1586 1.990 . S
N1631 C1628 1.314 . S
N1631 C1629 1.279 . S
C1632 C1629 1.358 . S
C1632 C1633 1.356 . S
C1632 H1669 0.930 . S
C1633 C1630 1.348 . S
C1633 C1632 1.356 . S
H1634 C1628 0.930 . S
H1635 C1629 0.930 . S
C1636 N1637 1.314 . S
C1636 C1638 1.353 . S
C1636 H1642 0.930 . S
N1637 Li1587 1.990 . S
N1637 C1636 1.314 . S
N1637 C1640 1.279 . S
C1638 C1636 1.353 . S
C1638 C1641 1.348 . S
C1638 H1670 0.929 . S
C1639 C1640 1.358 . S
C1639 C1641 1.356 . S
C1639 H1671 0.930 . S
C1640 N1637 1.279 . S
C1640 C1639 1.358 . S
C1640 H1643 0.930 . S
C1641 C1638 1.348 . S
C1641 C1639 1.356 . S
H1642 C1636 0.930 . S
H1643 C1640 0.930 . S
O1644 Li1584 1.956 . S
O1644 Li1585 1.970 . S
O1644 Li1586 1.961 . S
O1644 C1588 1.325 . S
O1645 Li1584 1.970 . S
O1645 Li1585 1.956 . S
O1645 Li1587 1.961 . S
O1645 C1594 1.325 . S
O1646 Li1584 1.961 . S
O1646 Li1586 1.956 . S
O1646 Li1587 1.970 . S
O1646 C1616 1.325 . S
O1647 Li1585 1.961 . S
O1647 Li1586 1.970 . S
O1647 Li1587 1.956 . S
O1647 C1622 1.325 . S
H1648 C1590 0.929 . S
H1649 C1591 0.930 . S
H1650 C1592 0.930 . S
H1651 C1593 0.930 . S
H1652 C1595 0.930 . S
H1653 C1597 0.929 . S
H1654 C1598 0.930 . S
H1655 C1599 0.930 . S
H1656 C1602 0.930 . S
H1657 C1605 0.929 . S
H1658 C1610 0.929 . S
H1659 C1611 0.930 . S
H1660 C1618 0.929 . S
H1661 C1619 0.930 . S
H1662 C1620 0.930 . S
H1663 C1621 0.930 . S
H1664 C1623 0.929 . S
H1665 C1624 0.930 . S
H1666 C1625 0.930 . S
H1667 C1626 0.930 . S
H1668 C1630 0.929 . S
H1669 C1632 0.930 . S
H1670 C1638 0.929 . S
H1671 C1639 0.930 . S
Li1672 N1689 1.990 . S
Li1672 O1732 1.956 . S
Li1672 O1733 1.970 . S
Li1672 O1734 1.961 . S
Li1673 N1697 1.990 . S
Li1673 O1732 1.970 . S
Li1673 O1733 1.956 . S
Li1673 O1735 1.961 . S
Li1674 N1719 1.990 . S
Li1674 O1732 1.961 . S
Li1674 O1734 1.956 . S
Li1674 O1735 1.970 . S
Li1675 N1725 1.990 . S
Li1675 O1733 1.961 . S
Li1675 O1734 1.970 . S
Li1675 O1735 1.956 . S
C1676 C1678 1.348 . S
C1676 C1679 1.356 . S
C1676 O1732 1.325 . S
N1677 C1680 1.314 . S
N1677 C1681 1.279 . S
C1678 C1676 1.348 . S
C1678 C1680 1.353 . S
C1678 H1736 0.929 . S
C1679 C1676 1.356 . S
C1679 C1681 1.358 . S
C1679 H1737 0.930 . S
C1680 N1677 1.314 . S
C1680 C1678 1.353 . S
C1680 H1738 0.930 . S
C1681 N1677 1.279 . S
C1681 C1679 1.358 . S
C1681 H1739 0.930 . S
C1682 C1685 1.348 . S
C1682 C1686 1.356 . S
C1682 O1733 1.325 . S
C1683 N1684 1.279 . S
C1683 C1686 1.358 . S
C1683 H1740 0.930 . S
N1684 C1683 1.279 . S
N1684 C1687 1.314 . S
C1685 C1682 1.348 . S
C1685 C1687 1.353 . S
C1685 H1741 0.929 . S
C1686 C1682 1.356 . S
C1686 C1683 1.358 . S
C1686 H1742 0.930 . S
C1687 N1684 1.314 . S
C1687 C1685 1.353 . S
C1687 H1743 0.930 . S
C1688 N1689 1.314 . S
C1688 C1693 1.353 . S
C1688 H1694 0.930 . S
N1689 Li1672 1.990 . S
N1689 C1688 1.314 . S
N1689 C1691 1.279 . S
C1690 C1691 1.358 . S
C1690 C1692 1.356 . S
C1690 H1744 0.930 . S
C1691 N1689 1.279 . S
C1691 C1690 1.358 . S
C1691 H1695 0.930 . S
C1692 C1690 1.356 . S
C1692 C1693 1.348 . S
C1693 C1688 1.353 . S
C1693 C1692 1.348 . S
C1693 H1745 0.929 . S
H1694 C1688 0.930 . S
H1695 C1691 0.930 . S
C1696 N1697 1.314 . S
C1696 C1698 1.353 . S
C1696 H1702 0.930 . S
N1697 Li1673 1.990 . S
N1697 C1696 1.314 . S
N1697 C1700 1.279 . S
C1698 C1696 1.353 . S
C1698 C1701 1.348 . S
C1698 H1746 0.929 . S
C1699 C1700 1.358 . S
C1699 C1701 1.356 . S
C1699 H1747 0.930 . S
C1700 N1697 1.279 . S
C1700 C1699 1.358 . S
C1700 H1703 0.930 . S
C1701 C1698 1.348 . S
C1701 C1699 1.356 . S
H1702 C1696 0.930 . S
H1703 C1700 0.930 . S
C1704 C1706 1.348 . S
C1704 C1707 1.356 . S
C1704 O1734 1.325 . S
N1705 C1708 1.314 . S
N1705 C1709 1.279 . S
C1706 C1704 1.348 . S
C1706 C1708 1.353 . S
C1706 H1748 0.929 . S
C1707 C1704 1.356 . S
C1707 C1709 1.358 . S
C1707 H1749 0.930 . S
C1708 N1705 1.314 . S
C1708 C1706 1.353 . S
C1708 H1750 0.930 . S
C1709 N1705 1.279 . S
C1709 C1707 1.358 . S
C1709 H1751 0.930 . S
C1710 C1711 1.348 . S
C1710 C1712 1.356 . S
C1710 O1735 1.325 . S
C1711 C1710 1.348 . S
C1711 C1713 1.353 . S
C1711 H1752 0.929 . S
C1712 C1710 1.356 . S
C1712 C1714 1.358 . S
C1712 H1753 0.930 . S
C1713 C1711 1.353 . S
C1713 N1715 1.314 . S
C1713 H1754 0.930 . S
C1714 C1712 1.358 . S
C1714 N1715 1.279 . S
C1714 H1755 0.930 . S
N1715 C1713 1.314 . S
N1715 C1714 1.279 . S
C1716 C1718 1.353 . S
C1716 N1719 1.314 . S
C1716 H1722 0.930 . S
C1717 N1719 1.279 . S
C1717 C1720 1.358 . S
C1717 H1723 0.930 . S
C1718 C1716 1.353 . S
C1718 C1721 1.348 . S
C1718 H1756 0.929 . S
N1719 Li1674 1.990 . S
N1719 C1716 1.314 . S
N1719 C1717 1.279 . S
C1720 C1717 1.358 . S
C1720 C1721 1.356 . S
C1720 H1757 0.930 . S
C1721 C1718 1.348 . S
C1721 C1720 1.356 . S
H1722 C1716 0.930 . S
H1723 C1717 0.930 . S
C1724 N1725 1.314 . S
C1724 C1726 1.353 . S
C1724 H1730 0.930 . S
N1725 Li1675 1.990 . S
N1725 C1724 1.314 . S
N1725 C1728 1.279 . S
C1726 C1724 1.353 . S
C1726 C1729 1.348 . S
C1726 H1758 0.929 . S
C1727 C1728 1.358 . S
C1727 C1729 1.356 . S
C1727 H1759 0.930 . S
C1728 N1725 1.279 . S
C1728 C1727 1.358 . S
C1728 H1731 0.930 . S
C1729 C1726 1.348 . S
C1729 C1727 1.356 . S
H1730 C1724 0.930 . S
H1731 C1728 0.930 . S
O1732 Li1672 1.956 . S
O1732 Li1673 1.970 . S
O1732 Li1674 1.961 . S
O1732 C1676 1.325 . S
O1733 Li1672 1.970 . S
O1733 Li1673 1.956 . S
O1733 Li1675 1.961 . S
O1733 C1682 1.325 . S
O1734 Li1672 1.961 . S
O1734 Li1674 1.956 . S
O1734 Li1675 1.970 . S
O1734 C1704 1.325 . S
O1735 Li1673 1.961 . S
O1735 Li1674 1.970 . S
O1735 Li1675 1.956 . S
O1735 C1710 1.325 . S
H1736 C1678 0.929 . S
H1737 C1679 0.930 . S
H1738 C1680 0.930 . S
H1739 C1681 0.930 . S
H1740 C1683 0.930 . S
H1741 C1685 0.929 . S
H1742 C1686 0.930 . S
H1743 C1687 0.930 . S
H1744 C1690 0.930 . S
H1745 C1693 0.929 . S
H1746 C1698 0.929 . S
H1747 C1699 0.930 . S
H1748 C1706 0.929 . S
H1749 C1707 0.930 . S
H1750 C1708 0.930 . S
H1751 C1709 0.930 . S
H1752 C1711 0.929 . S
H1753 C1712 0.930 . S
H1754 C1713 0.930 . S
H1755 C1714 0.930 . S
H1756 C1718 0.929 . S
H1757 C1720 0.930 . S
H1758 C1726 0.929 . S
H1759 C1727 0.930 . S
Li1760 N1777 1.990 . S
Li1760 O1820 1.956 . S
Li1760 O1821 1.970 . S
Li1760 O1822 1.961 . S
Li1761 N1785 1.990 . S
Li1761 O1820 1.970 . S
Li1761 O1821 1.956 . S
Li1761 O1823 1.961 . S
Li1762 N1807 1.990 . S
Li1762 O1820 1.961 . S
Li1762 O1822 1.956 . S
Li1762 O1823 1.970 . S
Li1763 N1813 1.990 . S
Li1763 O1821 1.961 . S
Li1763 O1822 1.970 . S
Li1763 O1823 1.956 . S
C1764 C1766 1.348 . S
C1764 C1767 1.356 . S
C1764 O1820 1.325 . S
N1765 C1768 1.314 . S
N1765 C1769 1.279 . S
C1766 C1764 1.348 . S
C1766 C1768 1.353 . S
C1766 H1824 0.929 . S
C1767 C1764 1.356 . S
C1767 C1769 1.358 . S
C1767 H1825 0.930 . S
C1768 N1765 1.314 . S
C1768 C1766 1.353 . S
C1768 H1826 0.930 . S
C1769 N1765 1.279 . S
C1769 C1767 1.358 . S
C1769 H1827 0.930 . S
C1770 C1773 1.348 . S
C1770 C1774 1.356 . S
C1770 O1821 1.325 . S
C1771 N1772 1.279 . S
C1771 C1774 1.358 . S
C1771 H1828 0.930 . S
N1772 C1771 1.279 . S
N1772 C1775 1.314 . S
C1773 C1770 1.348 . S
C1773 C1775 1.353 . S
C1773 H1829 0.929 . S
C1774 C1770 1.356 . S
C1774 C1771 1.358 . S
C1774 H1830 0.930 . S
C1775 N1772 1.314 . S
C1775 C1773 1.353 . S
C1775 H1831 0.930 . S
C1776 N1777 1.314 . S
C1776 C1781 1.353 . S
C1776 H1782 0.930 . S
N1777 Li1760 1.990 . S
N1777 C1776 1.314 . S
N1777 C1779 1.279 . S
C1778 C1779 1.358 . S
C1778 C1780 1.356 . S
C1778 H1832 0.930 . S
C1779 N1777 1.279 . S
C1779 C1778 1.358 . S
C1779 H1783 0.930 . S
C1780 C1778 1.356 . S
C1780 C1781 1.348 . S
C1781 C1776 1.353 . S
C1781 C1780 1.348 . S
C1781 H1833 0.929 . S
H1782 C1776 0.930 . S
H1783 C1779 0.930 . S
C1784 N1785 1.314 . S
C1784 C1786 1.353 . S
C1784 H1790 0.930 . S
N1785 Li1761 1.990 . S
N1785 C1784 1.314 . S
N1785 C1788 1.279 . S
C1786 C1784 1.353 . S
C1786 C1789 1.348 . S
C1786 H1834 0.929 . S
C1787 C1788 1.358 . S
C1787 C1789 1.356 . S
C1787 H1835 0.930 . S
C1788 N1785 1.279 . S
C1788 C1787 1.358 . S
C1788 H1791 0.930 . S
C1789 C1786 1.348 . S
C1789 C1787 1.356 . S
H1790 C1784 0.930 . S
H1791 C1788 0.930 . S
C1792 C1794 1.348 . S
C1792 C1795 1.356 . S
C1792 O1822 1.325 . S
N1793 C1796 1.314 . S
N1793 C1797 1.279 . S
C1794 C1792 1.348 . S
C1794 C1796 1.353 . S
C1794 H1836 0.929 . S
C1795 C1792 1.356 . S
C1795 C1797 1.358 . S
C1795 H1837 0.930 . S
C1796 N1793 1.314 . S
C1796 C1794 1.353 . S
C1796 H1838 0.930 . S
C1797 N1793 1.279 . S
C1797 C1795 1.358 . S
C1797 H1839 0.930 . S
C1798 C1799 1.348 . S
C1798 C1800 1.356 . S
C1798 O1823 1.325 . S
C1799 C1798 1.348 . S
C1799 C1801 1.353 . S
C1799 H1840 0.929 . S
C1800 C1798 1.356 . S
C1800 C1802 1.358 . S
C1800 H1841 0.930 . S
C1801 C1799 1.353 . S
C1801 N1803 1.314 . S
C1801 H1842 0.930 . S
C1802 C1800 1.358 . S
C1802 N1803 1.279 . S
C1802 H1843 0.930 . S
N1803 C1801 1.314 . S
N1803 C1802 1.279 . S
C1804 C1806 1.353 . S
C1804 N1807 1.314 . S
C1804 H1810 0.930 . S
C1805 N1807 1.279 . S
C1805 C1808 1.358 . S
C1805 H1811 0.930 . S
C1806 C1804 1.353 . S
C1806 C1809 1.348 . S
C1806 H1844 0.929 . S
N1807 Li1762 1.990 . S
N1807 C1804 1.314 . S
N1807 C1805 1.279 . S
C1808 C1805 1.358 . S
C1808 C1809 1.356 . S
C1808 H1845 0.930 . S
C1809 C1806 1.348 . S
C1809 C1808 1.356 . S
H1810 C1804 0.930 . S
H1811 C1805 0.930 . S
C1812 N1813 1.314 . S
C1812 C1814 1.353 . S
C1812 H1818 0.930 . S
N1813 Li1763 1.990 . S
N1813 C1812 1.314 . S
N1813 C1816 1.279 . S
C1814 C1812 1.353 . S
C1814 C1817 1.348 . S
C1814 H1846 0.929 . S
C1815 C1816 1.358 . S
C1815 C1817 1.356 . S
C1815 H1847 0.930 . S
C1816 N1813 1.279 . S
C1816 C1815 1.358 . S
C1816 H1819 0.930 . S
C1817 C1814 1.348 . S
C1817 C1815 1.356 . S
H1818 C1812 0.930 . S
H1819 C1816 0.930 . S
O1820 Li1760 1.956 . S
O1820 Li1761 1.970 . S
O1820 Li1762 1.961 . S
O1820 C1764 1.325 . S
O1821 Li1760 1.970 . S
O1821 Li1761 1.956 . S
O1821 Li1763 1.961 . S
O1821 C1770 1.325 . S
O1822 Li1760 1.961 . S
O1822 Li1762 1.956 . S
O1822 Li1763 1.970 . S
O1822 C1792 1.325 . S
O1823 Li1761 1.961 . S
O1823 Li1762 1.970 . S
O1823 Li1763 1.956 . S
O1823 C1798 1.325 . S
H1824 C1766 0.929 . S
H1825 C1767 0.930 . S
H1826 C1768 0.930 . S
H1827 C1769 0.930 . S
H1828 C1771 0.930 . S
H1829 C1773 0.929 . S
H1830 C1774 0.930 . S
H1831 C1775 0.930 . S
H1832 C1778 0.930 . S
H1833 C1781 0.929 . S
H1834 C1786 0.929 . S
H1835 C1787 0.930 . S
H1836 C1794 0.929 . S
H1837 C1795 0.930 . S
H1838 C1796 0.930 . S
H1839 C1797 0.930 . S
H1840 C1799 0.929 . S
H1841 C1800 0.930 . S
H1842 C1801 0.930 . S
H1843 C1802 0.930 . S
H1844 C1806 0.929 . S
H1845 C1808 0.930 . S
H1846 C1814 0.929 . S
H1847 C1815 0.930 . S
Li1848 N1865 1.985 . S
Li1848 O1908 1.956 . S
Li1848 O1909 1.970 . S
Li1848 O1910 1.961 . S
Li1849 N1873 1.990 . S
Li1849 O1908 1.970 . S
Li1849 O1909 1.956 . S
Li1849 O1911 1.961 . S
Li1850 N1895 1.990 . S
Li1850 O1908 1.961 . S
Li1850 O1910 1.956 . S
Li1850 O1911 1.970 . S
Li1851 N1901 1.990 . S
Li1851 O1909 1.961 . S
Li1851 O1910 1.970 . S
Li1851 O1911 1.956 . S
C1852 C1854 1.348 . S
C1852 C1855 1.356 . S
C1852 O1908 1.325 . S
N1853 C1856 1.314 . S
N1853 C1857 1.279 . S
C1854 C1852 1.348 . S
C1854 C1856 1.353 1_556 S
C1854 H1912 0.929 . S
C1855 C1852 1.356 . S
C1855 C1857 1.358 1_556 S
C1855 H1913 0.930 . S
C1856 N1853 1.314 . S
C1856 C1854 1.353 1_554 S
C1856 H1914 0.930 . S
C1857 N1853 1.279 . S
C1857 C1855 1.358 1_554 S
C1857 H1915 0.930 . S
C1858 C1861 1.348 . S
C1858 C1862 1.356 . S
C1858 O1909 1.325 . S
C1859 N1860 1.279 . S
C1859 C1862 1.358 . S
C1859 H1916 0.930 . S
N1860 C1859 1.279 . S
N1860 C1863 1.314 . S
C1861 C1858 1.348 . S
C1861 C1863 1.353 . S
C1861 H1917 0.929 . S
C1862 C1858 1.356 . S
C1862 C1859 1.358 . S
C1862 H1918 0.930 . S
C1863 N1860 1.314 . S
C1863 C1861 1.353 . S
C1863 H1919 0.930 1_556 S
C1864 N1865 1.315 1_554 S
C1864 C1869 1.353 . S
C1864 H1870 0.930 1_554 S
N1865 Li1848 1.985 . S
N1865 C1864 1.315 1_556 S
N1865 C1867 1.284 1_556 S
C1866 C1867 1.358 . S
C1866 C1868 1.356 . S
C1866 H1920 0.930 . S
C1867 N1865 1.284 1_554 S
C1867 C1866 1.358 . S
C1867 H1871 0.930 . S
C1868 C1866 1.356 . S
C1868 C1869 1.348 . S
C1869 C1864 1.353 . S
C1869 C1868 1.348 . S
C1869 H1921 0.929 . S
H1870 C1864 0.930 1_556 S
H1871 C1867 0.930 . S
C1872 N1873 1.314 . S
C1872 C1874 1.353 . S
C1872 H1878 0.930 . S
N1873 Li1849 1.990 . S
N1873 C1872 1.314 . S
N1873 C1876 1.279 . S
C1874 C1872 1.353 . S
C1874 C1877 1.348 . S
C1874 H1922 0.929 . S
C1875 C1876 1.358 . S
C1875 C1877 1.356 . S
C1875 H1923 0.930 . S
C1876 N1873 1.279 . S
C1876 C1875 1.358 . S
C1876 H1879 0.930 . S
C1877 C1874 1.348 . S
C1877 C1875 1.356 . S
H1878 C1872 0.930 . S
H1879 C1876 0.930 . S
C1880 C1882 1.348 . S
C1880 C1883 1.356 . S
C1880 O1910 1.325 . S
N1881 C1884 1.314 . S
N1881 C1885 1.279 . S
C1882 C1880 1.348 . S
C1882 C1884 1.353 . S
C1882 H1924 0.929 . S
C1883 C1880 1.356 . S
C1883 C1885 1.358 . S
C1883 H1925 0.930 . S
C1884 N1881 1.314 . S
C1884 C1882 1.353 . S
C1884 H1926 0.930 . S
C1885 N1881 1.279 . S
C1885 C1883 1.358 . S
C1885 H1927 0.930 . S
C1886 C1887 1.348 . S
C1886 C1888 1.356 . S
C1886 O1911 1.325 . S
C1887 C1886 1.348 . S
C1887 C1889 1.353 . S
C1887 H1928 0.929 . S
C1888 C1886 1.356 . S
C1888 C1890 1.358 . S
C1888 H1929 0.930 . S
C1889 C1887 1.353 . S
C1889 N1891 1.314 . S
C1889 H1930 0.930 . S
C1890 C1888 1.358 . S
C1890 N1891 1.279 . S
C1890 H1931 0.930 . S
N1891 C1889 1.314 . S
N1891 C1890 1.279 . S
C1892 C1894 1.353 . S
C1892 N1895 1.314 . S
C1892 H1898 0.930 . S
C1893 N1895 1.279 . S
C1893 C1896 1.358 . S
C1893 H1899 0.930 . S
C1894 C1892 1.353 . S
C1894 C1897 1.348 . S
C1894 H1932 0.929 . S
N1895 Li1850 1.990 . S
N1895 C1892 1.314 . S
N1895 C1893 1.279 . S
C1896 C1893 1.358 . S
C1896 C1897 1.356 . S
C1896 H1933 0.930 . S
C1897 C1894 1.348 . S
C1897 C1896 1.356 . S
H1898 C1892 0.930 . S
H1899 C1893 0.930 . S
C1900 N1901 1.314 . S
C1900 C1902 1.353 . S
C1900 H1906 0.930 . S
N1901 Li1851 1.990 . S
N1901 C1900 1.314 . S
N1901 C1904 1.279 . S
C1902 C1900 1.353 . S
C1902 C1905 1.348 . S
C1902 H1934 0.929 . S
C1903 C1904 1.358 . S
C1903 C1905 1.356 . S
C1903 H1935 0.930 . S
C1904 N1901 1.279 . S
C1904 C1903 1.358 . S
C1904 H1907 0.930 . S
C1905 C1902 1.348 . S
C1905 C1903 1.356 . S
H1906 C1900 0.930 . S
H1907 C1904 0.930 . S
O1908 Li1848 1.956 . S
O1908 Li1849 1.970 . S
O1908 Li1850 1.961 . S
O1908 C1852 1.325 . S
O1909 Li1848 1.970 . S
O1909 Li1849 1.956 . S
O1909 Li1851 1.961 . S
O1909 C1858 1.325 . S
O1910 Li1848 1.961 . S
O1910 Li1850 1.956 . S
O1910 Li1851 1.970 . S
O1910 C1880 1.325 . S
O1911 Li1849 1.961 . S
O1911 Li1850 1.970 . S
O1911 Li1851 1.956 . S
O1911 C1886 1.325 . S
H1912 C1854 0.929 . S
H1913 C1855 0.930 . S
H1914 C1856 0.930 . S
H1915 C1857 0.930 . S
H1916 C1859 0.930 . S
H1917 C1861 0.929 . S
H1918 C1862 0.930 . S
H1919 C1863 0.930 1_554 S
H1920 C1866 0.930 . S
H1921 C1869 0.929 . S
H1922 C1874 0.929 . S
H1923 C1875 0.930 . S
H1924 C1882 0.929 . S
H1925 C1883 0.930 . S
H1926 C1884 0.930 . S
H1927 C1885 0.930 . S
H1928 C1887 0.929 . S
H1929 C1888 0.930 . S
H1930 C1889 0.930 . S
H1931 C1890 0.930 . S
H1932 C1894 0.929 . S
H1933 C1896 0.930 . S
H1934 C1902 0.929 . S
H1935 C1903 0.930 . S
Li1936 N1953 1.985 . S
Li1936 O1996 1.956 . S
Li1936 O1997 1.970 . S
Li1936 O1998 1.961 . S
Li1937 N1961 1.990 . S
Li1937 O1996 1.970 . S
Li1937 O1997 1.956 . S
Li1937 O1999 1.961 . S
Li1938 N1983 1.990 . S
Li1938 O1996 1.961 . S
Li1938 O1998 1.956 . S
Li1938 O1999 1.970 . S
Li1939 N1989 1.990 . S
Li1939 O1997 1.961 . S
Li1939 O1998 1.970 . S
Li1939 O1999 1.956 . S
C1940 C1942 1.348 . S
C1940 C1943 1.356 . S
C1940 O1996 1.325 . S
N1941 C1944 1.314 . S
N1941 C1945 1.279 . S
C1942 C1940 1.348 . S
C1942 C1944 1.353 1_556 S
C1942 H2000 0.929 . S
C1943 C1940 1.356 . S
C1943 C1945 1.358 1_556 S
C1943 H2001 0.930 . S
C1944 N1941 1.314 . S
C1944 C1942 1.353 1_554 S
C1944 H2002 0.930 . S
C1945 N1941 1.279 . S
C1945 C1943 1.358 1_554 S
C1945 H2003 0.930 . S
C1946 C1949 1.348 . S
C1946 C1950 1.356 . S
C1946 O1997 1.325 . S
C1947 N1948 1.279 . S
C1947 C1950 1.358 . S
C1947 H2004 0.930 . S
N1948 C1947 1.279 . S
N1948 C1951 1.314 . S
C1949 C1946 1.348 . S
C1949 C1951 1.353 . S
C1949 H2005 0.929 . S
C1950 C1946 1.356 . S
C1950 C1947 1.358 . S
C1950 H2006 0.930 . S
C1951 N1948 1.314 . S
C1951 C1949 1.353 . S
C1951 H2007 0.930 1_556 S
C1952 N1953 1.315 1_554 S
C1952 C1957 1.353 . S
C1952 H1958 0.930 1_554 S
N1953 Li1936 1.985 . S
N1953 C1952 1.315 1_556 S
N1953 C1955 1.284 1_556 S
C1954 C1955 1.358 . S
C1954 C1956 1.356 . S
C1954 H2008 0.930 . S
C1955 N1953 1.284 1_554 S
C1955 C1954 1.358 . S
C1955 H1959 0.930 . S
C1956 C1954 1.356 . S
C1956 C1957 1.348 . S
C1957 C1952 1.353 . S
C1957 C1956 1.348 . S
C1957 H2009 0.929 . S
H1958 C1952 0.930 1_556 S
H1959 C1955 0.930 . S
C1960 N1961 1.314 . S
C1960 C1962 1.353 . S
C1960 H1966 0.930 . S
N1961 Li1937 1.990 . S
N1961 C1960 1.314 . S
N1961 C1964 1.279 . S
C1962 C1960 1.353 . S
C1962 C1965 1.348 . S
C1962 H2010 0.929 . S
C1963 C1964 1.358 . S
C1963 C1965 1.356 . S
C1963 H2011 0.930 . S
C1964 N1961 1.279 . S
C1964 C1963 1.358 . S
C1964 H1967 0.930 . S
C1965 C1962 1.348 . S
C1965 C1963 1.356 . S
H1966 C1960 0.930 . S
H1967 C1964 0.930 . S
C1968 C1970 1.348 . S
C1968 C1971 1.356 . S
C1968 O1998 1.325 . S
N1969 C1972 1.314 . S
N1969 C1973 1.279 . S
C1970 C1968 1.348 . S
C1970 C1972 1.353 . S
C1970 H2012 0.929 . S
C1971 C1968 1.356 . S
C1971 C1973 1.358 . S
C1971 H2013 0.930 . S
C1972 N1969 1.314 . S
C1972 C1970 1.353 . S
C1972 H2014 0.930 . S
C1973 N1969 1.279 . S
C1973 C1971 1.358 . S
C1973 H2015 0.930 . S
C1974 C1975 1.348 . S
C1974 C1976 1.356 . S
C1974 O1999 1.325 . S
C1975 C1974 1.348 . S
C1975 C1977 1.353 . S
C1975 H2016 0.929 . S
C1976 C1974 1.356 . S
C1976 C1978 1.358 . S
C1976 H2017 0.930 . S
C1977 C1975 1.353 . S
C1977 N1979 1.314 . S
C1977 H2018 0.930 . S
C1978 C1976 1.358 . S
C1978 N1979 1.279 . S
C1978 H2019 0.930 . S
N1979 C1977 1.314 . S
N1979 C1978 1.279 . S
C1980 C1982 1.353 . S
C1980 N1983 1.314 . S
C1980 H1986 0.930 . S
C1981 N1983 1.279 . S
C1981 C1984 1.358 . S
C1981 H1987 0.930 . S
C1982 C1980 1.353 . S
C1982 C1985 1.348 . S
C1982 H2020 0.929 . S
N1983 Li1938 1.990 . S
N1983 C1980 1.314 . S
N1983 C1981 1.279 . S
C1984 C1981 1.358 . S
C1984 C1985 1.356 . S
C1984 H2021 0.930 . S
C1985 C1982 1.348 . S
C1985 C1984 1.356 . S
H1986 C1980 0.930 . S
H1987 C1981 0.930 . S
C1988 N1989 1.314 . S
C1988 C1990 1.353 . S
C1988 H1994 0.930 . S
N1989 Li1939 1.990 . S
N1989 C1988 1.314 . S
N1989 C1992 1.279 . S
C1990 C1988 1.353 . S
C1990 C1993 1.348 . S
C1990 H2022 0.929 . S
C1991 C1992 1.358 . S
C1991 C1993 1.356 . S
C1991 H2023 0.930 . S
C1992 N1989 1.279 . S
C1992 C1991 1.358 . S
C1992 H1995 0.930 . S
C1993 C1990 1.348 . S
C1993 C1991 1.356 . S
H1994 C1988 0.930 . S
H1995 C1992 0.930 . S
O1996 Li1936 1.956 . S
O1996 Li1937 1.970 . S
O1996 Li1938 1.961 . S
O1996 C1940 1.325 . S
O1997 Li1936 1.970 . S
O1997 Li1937 1.956 . S
O1997 Li1939 1.961 . S
O1997 C1946 1.325 . S
O1998 Li1936 1.961 . S
O1998 Li1938 1.956 . S
O1998 Li1939 1.970 . S
O1998 C1968 1.325 . S
O1999 Li1937 1.961 . S
O1999 Li1938 1.970 . S
O1999 Li1939 1.956 . S
O1999 C1974 1.325 . S
H2000 C1942 0.929 . S
H2001 C1943 0.930 . S
H2002 C1944 0.930 . S
H2003 C1945 0.930 . S
H2004 C1947 0.930 . S
H2005 C1949 0.929 . S
H2006 C1950 0.930 . S
H2007 C1951 0.930 1_554 S
H2008 C1954 0.930 . S
H2009 C1957 0.929 . S
H2010 C1962 0.929 . S
H2011 C1963 0.930 . S
H2012 C1970 0.929 . S
H2013 C1971 0.930 . S
H2014 C1972 0.930 . S
H2015 C1973 0.930 . S
H2016 C1975 0.929 . S
H2017 C1976 0.930 . S
H2018 C1977 0.930 . S
H2019 C1978 0.930 . S
H2020 C1982 0.929 . S
H2021 C1984 0.930 . S
H2022 C1990 0.929 . S
H2023 C1991 0.930 . S
Li2024 N2041 1.995 1_556 S
Li2024 O2084 1.956 . S
Li2024 O2085 1.970 . S
Li2024 O2086 1.961 . S
Li2025 N2049 1.990 . S
Li2025 O2084 1.970 . S
Li2025 O2085 1.956 . S
Li2025 O2087 1.961 . S
Li2026 N2071 1.990 . S
Li2026 O2084 1.961 . S
Li2026 O2086 1.956 . S
Li2026 O2087 1.970 . S
Li2027 N2077 1.990 . S
Li2027 O2085 1.961 . S
Li2027 O2086 1.970 . S
Li2027 O2087 1.956 . S
C2028 C2030 1.348 . S
C2028 C2031 1.356 . S
C2028 O2084 1.325 . S
N2029 C2032 1.314 . S
N2029 C2033 1.279 . S
C2030 C2028 1.348 . S
C2030 C2032 1.353 1_556 S
C2030 H2088 0.929 . S
C2031 C2028 1.356 . S
C2031 C2033 1.358 1_556 S
C2031 H2089 0.930 . S
C2032 N2029 1.314 . S
C2032 C2030 1.353 1_554 S
C2032 H2090 0.930 . S
C2033 N2029 1.279 . S
C2033 C2031 1.358 1_554 S
C2033 H2091 0.930 . S
C2034 C2037 1.348 . S
C2034 C2038 1.356 . S
C2034 O2085 1.325 . S
C2035 N2036 1.279 . S
C2035 C2038 1.358 . S
C2035 H2092 0.930 . S
N2036 C2035 1.279 . S
N2036 C2039 1.314 . S
C2037 C2034 1.348 . S
C2037 C2039 1.353 . S
C2037 H2093 0.929 . S
C2038 C2034 1.356 . S
C2038 C2035 1.358 . S
C2038 H2094 0.930 . S
C2039 N2036 1.314 . S
C2039 C2037 1.353 . S
C2039 H2095 0.930 1_556 S
C2040 N2041 1.314 . S
C2040 C2045 1.353 . S
C2040 H2046 0.930 1_554 S
N2041 Li2024 1.995 1_554 S
N2041 C2040 1.314 . S
N2041 C2043 1.274 . S
C2042 C2043 1.358 . S
C2042 C2044 1.356 . S
C2042 H2096 0.930 . S
C2043 N2041 1.274 . S
C2043 C2042 1.358 . S
C2043 H2047 0.930 . S
C2044 C2042 1.356 . S
C2044 C2045 1.348 . S
C2045 C2040 1.353 . S
C2045 C2044 1.348 . S
C2045 H2097 0.929 . S
H2046 C2040 0.930 1_556 S
H2047 C2043 0.930 . S
C2048 N2049 1.314 . S
C2048 C2050 1.353 . S
C2048 H2054 0.930 . S
N2049 Li2025 1.990 . S
N2049 C2048 1.314 . S
N2049 C2052 1.279 . S
C2050 C2048 1.353 . S
C2050 C2053 1.348 . S
C2050 H2098 0.929 . S
C2051 C2052 1.358 . S
C2051 C2053 1.356 . S
C2051 H2099 0.930 . S
C2052 N2049 1.279 . S
C2052 C2051 1.358 . S
C2052 H2055 0.930 . S
C2053 C2050 1.348 . S
C2053 C2051 1.356 . S
H2054 C2048 0.930 . S
H2055 C2052 0.930 . S
C2056 C2058 1.348 . S
C2056 C2059 1.356 . S
C2056 O2086 1.325 . S
N2057 C2060 1.314 . S
N2057 C2061 1.279 . S
C2058 C2056 1.348 . S
C2058 C2060 1.353 . S
C2058 H2100 0.929 . S
C2059 C2056 1.356 . S
C2059 C2061 1.358 . S
C2059 H2101 0.930 . S
C2060 N2057 1.314 . S
C2060 C2058 1.353 . S
C2060 H2102 0.930 . S
C2061 N2057 1.279 . S
C2061 C2059 1.358 . S
C2061 H2103 0.930 . S
C2062 C2063 1.348 . S
C2062 C2064 1.356 . S
C2062 O2087 1.325 . S
C2063 C2062 1.348 . S
C2063 C2065 1.353 . S
C2063 H2104 0.929 . S
C2064 C2062 1.356 . S
C2064 C2066 1.358 . S
C2064 H2105 0.930 . S
C2065 C2063 1.353 . S
C2065 N2067 1.314 . S
C2065 H2106 0.930 . S
C2066 C2064 1.358 . S
C2066 N2067 1.279 . S
C2066 H2107 0.930 . S
N2067 C2065 1.314 . S
N2067 C2066 1.279 . S
C2068 C2070 1.353 . S
C2068 N2071 1.314 . S
C2068 H2074 0.930 . S
C2069 N2071 1.279 . S
C2069 C2072 1.358 . S
C2069 H2075 0.930 . S
C2070 C2068 1.353 . S
C2070 C2073 1.348 . S
C2070 H2108 0.929 . S
N2071 Li2026 1.990 . S
N2071 C2068 1.314 . S
N2071 C2069 1.279 . S
C2072 C2069 1.358 . S
C2072 C2073 1.356 . S
C2072 H2109 0.930 . S
C2073 C2070 1.348 . S
C2073 C2072 1.356 . S
H2074 C2068 0.930 . S
H2075 C2069 0.930 . S
C2076 N2077 1.314 . S
C2076 C2078 1.353 . S
C2076 H2082 0.930 . S
N2077 Li2027 1.990 . S
N2077 C2076 1.314 . S
N2077 C2080 1.279 . S
C2078 C2076 1.353 . S
C2078 C2081 1.348 . S
C2078 H2110 0.929 . S
C2079 C2080 1.358 . S
C2079 C2081 1.356 . S
C2079 H2111 0.930 . S
C2080 N2077 1.279 . S
C2080 C2079 1.358 . S
C2080 H2083 0.930 . S
C2081 C2078 1.348 . S
C2081 C2079 1.356 . S
H2082 C2076 0.930 . S
H2083 C2080 0.930 . S
O2084 Li2024 1.956 . S
O2084 Li2025 1.970 . S
O2084 Li2026 1.961 . S
O2084 C2028 1.325 . S
O2085 Li2024 1.970 . S
O2085 Li2025 1.956 . S
O2085 Li2027 1.961 . S
O2085 C2034 1.325 . S
O2086 Li2024 1.961 . S
O2086 Li2026 1.956 . S
O2086 Li2027 1.970 . S
O2086 C2056 1.325 . S
O2087 Li2025 1.961 . S
O2087 Li2026 1.970 . S
O2087 Li2027 1.956 . S
O2087 C2062 1.325 . S
H2088 C2030 0.929 . S
H2089 C2031 0.930 . S
H2090 C2032 0.930 . S
H2091 C2033 0.930 . S
H2092 C2035 0.930 . S
H2093 C2037 0.929 . S
H2094 C2038 0.930 . S
H2095 C2039 0.930 1_554 S
H2096 C2042 0.930 . S
H2097 C2045 0.929 . S
H2098 C2050 0.929 . S
H2099 C2051 0.930 . S
H2100 C2058 0.929 . S
H2101 C2059 0.930 . S
H2102 C2060 0.930 . S
H2103 C2061 0.930 . S
H2104 C2063 0.929 . S
H2105 C2064 0.930 . S
H2106 C2065 0.930 . S
H2107 C2066 0.930 . S
H2108 C2070 0.929 . S
H2109 C2072 0.930 . S
H2110 C2078 0.929 . S
H2111 C2079 0.930 . S
Li2112 N2129 1.990 . S
Li2112 O2172 1.956 . S
Li2112 O2173 1.970 . S
Li2112 O2174 1.961 . S
Li2113 N2137 1.990 . S
Li2113 O2172 1.970 . S
Li2113 O2173 1.956 . S
Li2113 O2175 1.961 . S
Li2114 N2159 1.990 . S
Li2114 O2172 1.961 . S
Li2114 O2174 1.956 . S
Li2114 O2175 1.970 . S
Li2115 N2165 1.990 . S
Li2115 O2173 1.961 . S
Li2115 O2174 1.970 . S
Li2115 O2175 1.956 . S
C2116 C2118 1.348 . S
C2116 C2119 1.356 . S
C2116 O2172 1.325 . S
N2117 C2120 1.314 . S
N2117 C2121 1.279 . S
C2118 C2116 1.348 . S
C2118 C2120 1.353 . S
C2118 H2176 0.929 . S
C2119 C2116 1.356 . S
C2119 C2121 1.358 . S
C2119 H2177 0.930 . S
C2120 N2117 1.314 . S
C2120 C2118 1.353 . S
C2120 H2178 0.930 . S
C2121 N2117 1.279 . S
C2121 C2119 1.358 . S
C2121 H2179 0.930 . S
C2122 C2125 1.348 . S
C2122 C2126 1.356 . S
C2122 O2173 1.325 . S
C2123 N2124 1.279 . S
C2123 C2126 1.358 . S
C2123 H2180 0.930 . S
N2124 C2123 1.279 . S
N2124 C2127 1.314 . S
C2125 C2122 1.348 . S
C2125 C2127 1.353 . S
C2125 H2181 0.929 . S
C2126 C2122 1.356 . S
C2126 C2123 1.358 . S
C2126 H2182 0.930 . S
C2127 N2124 1.314 . S
C2127 C2125 1.353 . S
C2127 H2183 0.930 . S
C2128 N2129 1.314 . S
C2128 C2133 1.353 . S
C2128 H2134 0.930 . S
N2129 Li2112 1.990 . S
N2129 C2128 1.314 . S
N2129 C2131 1.279 . S
C2130 C2131 1.358 . S
C2130 C2132 1.356 . S
C2130 H2184 0.930 . S
C2131 N2129 1.279 . S
C2131 C2130 1.358 . S
C2131 H2135 0.930 . S
C2132 C2130 1.356 . S
C2132 C2133 1.348 . S
C2133 C2128 1.353 . S
C2133 C2132 1.348 . S
C2133 H2185 0.929 . S
H2134 C2128 0.930 . S
H2135 C2131 0.930 . S
C2136 N2137 1.314 . S
C2136 C2138 1.353 . S
C2136 H2142 0.930 . S
N2137 Li2113 1.990 . S
N2137 C2136 1.314 . S
N2137 C2140 1.279 . S
C2138 C2136 1.353 . S
C2138 C2141 1.348 . S
C2138 H2186 0.929 . S
C2139 C2140 1.358 . S
C2139 C2141 1.356 . S
C2139 H2187 0.930 . S
C2140 N2137 1.279 . S
C2140 C2139 1.358 . S
C2140 H2143 0.930 . S
C2141 C2138 1.348 . S
C2141 C2139 1.356 . S
H2142 C2136 0.930 . S
H2143 C2140 0.930 . S
C2144 C2146 1.348 . S
C2144 C2147 1.356 . S
C2144 O2174 1.325 . S
N2145 C2148 1.314 . S
N2145 C2149 1.279 . S
C2146 C2144 1.348 . S
C2146 C2148 1.353 . S
C2146 H2188 0.929 . S
C2147 C2144 1.356 . S
C2147 C2149 1.358 . S
C2147 H2189 0.930 . S
C2148 N2145 1.314 . S
C2148 C2146 1.353 . S
C2148 H2190 0.930 . S
C2149 N2145 1.279 . S
C2149 C2147 1.358 . S
C2149 H2191 0.930 . S
C2150 C2151 1.348 . S
C2150 C2152 1.356 . S
C2150 O2175 1.325 . S
C2151 C2150 1.348 . S
C2151 C2153 1.353 . S
C2151 H2192 0.929 . S
C2152 C2150 1.356 . S
C2152 C2154 1.358 . S
C2152 H2193 0.930 . S
C2153 C2151 1.353 . S
C2153 N2155 1.314 . S
C2153 H2194 0.930 . S
C2154 C2152 1.358 . S
C2154 N2155 1.279 . S
C2154 H2195 0.930 . S
N2155 C2153 1.314 . S
N2155 C2154 1.279 . S
C2156 C2158 1.353 . S
C2156 N2159 1.314 . S
C2156 H2162 0.930 . S
C2157 N2159 1.279 . S
C2157 C2160 1.358 . S
C2157 H2163 0.930 . S
C2158 C2156 1.353 . S
C2158 C2161 1.348 . S
C2158 H2196 0.929 . S
N2159 Li2114 1.990 . S
N2159 C2156 1.314 . S
N2159 C2157 1.279 . S
C2160 C2157 1.358 . S
C2160 C2161 1.356 . S
C2160 H2197 0.930 . S
C2161 C2158 1.348 . S
C2161 C2160 1.356 . S
H2162 C2156 0.930 . S
H2163 C2157 0.930 . S
C2164 N2165 1.314 . S
C2164 C2166 1.353 . S
C2164 H2170 0.930 . S
N2165 Li2115 1.990 . S
N2165 C2164 1.314 . S
N2165 C2168 1.279 . S
C2166 C2164 1.353 . S
C2166 C2169 1.348 . S
C2166 H2198 0.929 . S
C2167 C2168 1.358 . S
C2167 C2169 1.356 . S
C2167 H2199 0.930 . S
C2168 N2165 1.279 . S
C2168 C2167 1.358 . S
C2168 H2171 0.930 . S
C2169 C2166 1.348 . S
C2169 C2167 1.356 . S
H2170 C2164 0.930 . S
H2171 C2168 0.930 . S
O2172 Li2112 1.956 . S
O2172 Li2113 1.970 . S
O2172 Li2114 1.961 . S
O2172 C2116 1.325 . S
O2173 Li2112 1.970 . S
O2173 Li2113 1.956 . S
O2173 Li2115 1.961 . S
O2173 C2122 1.325 . S
O2174 Li2112 1.961 . S
O2174 Li2114 1.956 . S
O2174 Li2115 1.970 . S
O2174 C2144 1.325 . S
O2175 Li2113 1.961 . S
O2175 Li2114 1.970 . S
O2175 Li2115 1.956 . S
O2175 C2150 1.325 . S
H2176 C2118 0.929 . S
H2177 C2119 0.930 . S
H2178 C2120 0.930 . S
H2179 C2121 0.930 . S
H2180 C2123 0.930 . S
H2181 C2125 0.929 . S
H2182 C2126 0.930 . S
H2183 C2127 0.930 . S
H2184 C2130 0.930 . S
H2185 C2133 0.929 . S
H2186 C2138 0.929 . S
H2187 C2139 0.930 . S
H2188 C2146 0.929 . S
H2189 C2147 0.930 . S
H2190 C2148 0.930 . S
H2191 C2149 0.930 . S
H2192 C2151 0.929 . S
H2193 C2152 0.930 . S
H2194 C2153 0.930 . S
H2195 C2154 0.930 . S
H2196 C2158 0.929 . S
H2197 C2160 0.930 . S
H2198 C2166 0.929 . S
H2199 C2167 0.930 . S
Li2200 N2217 1.990 . S
Li2200 O2260 1.956 . S
Li2200 O2261 1.970 . S
Li2200 O2262 1.961 . S
Li2201 N2225 1.990 . S
Li2201 O2260 1.970 . S
Li2201 O2261 1.956 . S
Li2201 O2263 1.961 . S
Li2202 N2247 1.990 . S
Li2202 O2260 1.961 . S
Li2202 O2262 1.956 . S
Li2202 O2263 1.970 . S
Li2203 N2253 1.990 . S
Li2203 O2261 1.961 . S
Li2203 O2262 1.970 . S
Li2203 O2263 1.956 . S
C2204 C2206 1.348 . S
C2204 C2207 1.356 . S
C2204 O2260 1.325 . S
N2205 C2208 1.314 . S
N2205 C2209 1.279 . S
C2206 C2204 1.348 . S
C2206 C2208 1.353 . S
C2206 H2264 0.929 . S
C2207 C2204 1.356 . S
C2207 C2209 1.358 . S
C2207 H2265 0.930 . S
C2208 N2205 1.314 . S
C2208 C2206 1.353 . S
C2208 H2266 0.930 . S
C2209 N2205 1.279 . S
C2209 C2207 1.358 . S
C2209 H2267 0.930 . S
C2210 C2213 1.348 . S
C2210 C2214 1.356 . S
C2210 O2261 1.325 . S
C2211 N2212 1.279 . S
C2211 C2214 1.358 . S
C2211 H2268 0.930 . S
N2212 C2211 1.279 . S
N2212 C2215 1.314 . S
C2213 C2210 1.348 . S
C2213 C2215 1.353 . S
C2213 H2269 0.929 . S
C2214 C2210 1.356 . S
C2214 C2211 1.358 . S
C2214 H2270 0.930 . S
C2215 N2212 1.314 . S
C2215 C2213 1.353 . S
C2215 H2271 0.930 . S
C2216 N2217 1.314 . S
C2216 C2221 1.353 . S
C2216 H2222 0.930 . S
N2217 Li2200 1.990 . S
N2217 C2216 1.314 . S
N2217 C2219 1.279 . S
C2218 C2219 1.358 . S
C2218 C2220 1.356 . S
C2218 H2272 0.930 . S
C2219 N2217 1.279 . S
C2219 C2218 1.358 . S
C2219 H2223 0.930 . S
C2220 C2218 1.356 . S
C2220 C2221 1.348 . S
C2221 C2216 1.353 . S
C2221 C2220 1.348 . S
C2221 H2273 0.929 . S
H2222 C2216 0.930 . S
H2223 C2219 0.930 . S
C2224 N2225 1.314 . S
C2224 C2226 1.353 . S
C2224 H2230 0.930 . S
N2225 Li2201 1.990 . S
N2225 C2224 1.314 . S
N2225 C2228 1.279 . S
C2226 C2224 1.353 . S
C2226 C2229 1.348 . S
C2226 H2274 0.929 . S
C2227 C2228 1.358 . S
C2227 C2229 1.356 . S
C2227 H2275 0.930 . S
C2228 N2225 1.279 . S
C2228 C2227 1.358 . S
C2228 H2231 0.930 . S
C2229 C2226 1.348 . S
C2229 C2227 1.356 . S
H2230 C2224 0.930 . S
H2231 C2228 0.930 . S
C2232 C2234 1.348 . S
C2232 C2235 1.356 . S
C2232 O2262 1.325 . S
N2233 C2236 1.314 . S
N2233 C2237 1.279 . S
C2234 C2232 1.348 . S
C2234 C2236 1.353 . S
C2234 H2276 0.929 . S
C2235 C2232 1.356 . S
C2235 C2237 1.358 . S
C2235 H2277 0.930 . S
C2236 N2233 1.314 . S
C2236 C2234 1.353 . S
C2236 H2278 0.930 . S
C2237 N2233 1.279 . S
C2237 C2235 1.358 . S
C2237 H2279 0.930 . S
C2238 C2239 1.348 . S
C2238 C2240 1.356 . S
C2238 O2263 1.325 . S
C2239 C2238 1.348 . S
C2239 C2241 1.353 . S
C2239 H2280 0.929 . S
C2240 C2238 1.356 . S
C2240 C2242 1.358 . S
C2240 H2281 0.930 . S
C2241 C2239 1.353 . S
C2241 N2243 1.314 . S
C2241 H2282 0.930 . S
C2242 C2240 1.358 . S
C2242 N2243 1.279 . S
C2242 H2283 0.930 . S
N2243 C2241 1.314 . S
N2243 C2242 1.279 . S
C2244 C2246 1.353 . S
C2244 N2247 1.314 . S
C2244 H2250 0.930 . S
C2245 N2247 1.279 . S
C2245 C2248 1.358 . S
C2245 H2251 0.930 . S
C2246 C2244 1.353 . S
C2246 C2249 1.348 . S
C2246 H2284 0.929 . S
N2247 Li2202 1.990 . S
N2247 C2244 1.314 . S
N2247 C2245 1.279 . S
C2248 C2245 1.358 . S
C2248 C2249 1.356 . S
C2248 H2285 0.930 . S
C2249 C2246 1.348 . S
C2249 C2248 1.356 . S
H2250 C2244 0.930 . S
H2251 C2245 0.930 . S
C2252 N2253 1.314 . S
C2252 C2254 1.353 . S
C2252 H2258 0.930 . S
N2253 Li2203 1.990 . S
N2253 C2252 1.314 . S
N2253 C2256 1.279 . S
C2254 C2252 1.353 . S
C2254 C2257 1.348 . S
C2254 H2286 0.929 . S
C2255 C2256 1.358 . S
C2255 C2257 1.356 . S
C2255 H2287 0.930 . S
C2256 N2253 1.279 . S
C2256 C2255 1.358 . S
C2256 H2259 0.930 . S
C2257 C2254 1.348 . S
C2257 C2255 1.356 . S
H2258 C2252 0.930 . S
H2259 C2256 0.930 . S
O2260 Li2200 1.956 . S
O2260 Li2201 1.970 . S
O2260 Li2202 1.961 . S
O2260 C2204 1.325 . S
O2261 Li2200 1.970 . S
O2261 Li2201 1.956 . S
O2261 Li2203 1.961 . S
O2261 C2210 1.325 . S
O2262 Li2200 1.961 . S
O2262 Li2202 1.956 . S
O2262 Li2203 1.970 . S
O2262 C2232 1.325 . S
O2263 Li2201 1.961 . S
O2263 Li2202 1.970 . S
O2263 Li2203 1.956 . S
O2263 C2238 1.325 . S
H2264 C2206 0.929 . S
H2265 C2207 0.930 . S
H2266 C2208 0.930 . S
H2267 C2209 0.930 . S
H2268 C2211 0.930 . S
H2269 C2213 0.929 . S
H2270 C2214 0.930 . S
H2271 C2215 0.930 . S
H2272 C2218 0.930 . S
H2273 C2221 0.929 . S
H2274 C2226 0.929 . S
H2275 C2227 0.930 . S
H2276 C2234 0.929 . S
H2277 C2235 0.930 . S
H2278 C2236 0.930 . S
H2279 C2237 0.930 . S
H2280 C2239 0.929 . S
H2281 C2240 0.930 . S
H2282 C2241 0.930 . S
H2283 C2242 0.930 . S
H2284 C2246 0.929 . S
H2285 C2248 0.930 . S
H2286 C2254 0.929 . S
H2287 C2255 0.930 . S
Li2288 N2305 1.990 . S
Li2288 O2348 1.956 . S
Li2288 O2349 1.970 . S
Li2288 O2350 1.961 . S
Li2289 N2313 1.990 . S
Li2289 O2348 1.970 . S
Li2289 O2349 1.956 . S
Li2289 O2351 1.961 . S
Li2290 N2335 1.990 . S
Li2290 O2348 1.961 . S
Li2290 O2350 1.956 . S
Li2290 O2351 1.970 . S
Li2291 N2341 1.990 . S
Li2291 O2349 1.961 . S
Li2291 O2350 1.970 . S
Li2291 O2351 1.956 . S
C2292 C2294 1.348 . S
C2292 C2295 1.356 . S
C2292 O2348 1.325 . S
N2293 C2296 1.314 . S
N2293 C2297 1.279 . S
C2294 C2292 1.348 . S
C2294 C2296 1.353 . S
C2294 H2352 0.929 . S
C2295 C2292 1.356 . S
C2295 C2297 1.358 . S
C2295 H2353 0.930 . S
C2296 N2293 1.314 . S
C2296 C2294 1.353 . S
C2296 H2354 0.930 . S
C2297 N2293 1.279 . S
C2297 C2295 1.358 . S
C2297 H2355 0.930 . S
C2298 C2301 1.348 . S
C2298 C2302 1.356 . S
C2298 O2349 1.325 . S
C2299 N2300 1.279 . S
C2299 C2302 1.358 . S
C2299 H2356 0.930 . S
N2300 C2299 1.279 . S
N2300 C2303 1.314 . S
C2301 C2298 1.348 . S
C2301 C2303 1.353 . S
C2301 H2357 0.929 . S
C2302 C2298 1.356 . S
C2302 C2299 1.358 . S
C2302 H2358 0.930 . S
C2303 N2300 1.314 . S
C2303 C2301 1.353 . S
C2303 H2359 0.930 . S
C2304 N2305 1.314 . S
C2304 C2309 1.353 . S
C2304 H2310 0.930 . S
N2305 Li2288 1.990 . S
N2305 C2304 1.314 . S
N2305 C2307 1.279 . S
C2306 C2307 1.358 . S
C2306 C2308 1.356 . S
C2306 H2360 0.930 . S
C2307 N2305 1.279 . S
C2307 C2306 1.358 . S
C2307 H2311 0.930 . S
C2308 C2306 1.356 . S
C2308 C2309 1.348 . S
C2309 C2304 1.353 . S
C2309 C2308 1.348 . S
C2309 H2361 0.929 . S
H2310 C2304 0.930 . S
H2311 C2307 0.930 . S
C2312 N2313 1.314 . S
C2312 C2314 1.353 . S
C2312 H2318 0.930 . S
N2313 Li2289 1.990 . S
N2313 C2312 1.314 . S
N2313 C2316 1.279 . S
C2314 C2312 1.353 . S
C2314 C2317 1.348 . S
C2314 H2362 0.929 . S
C2315 C2316 1.358 . S
C2315 C2317 1.356 . S
C2315 H2363 0.930 . S
C2316 N2313 1.279 . S
C2316 C2315 1.358 . S
C2316 H2319 0.930 . S
C2317 C2314 1.348 . S
C2317 C2315 1.356 . S
H2318 C2312 0.930 . S
H2319 C2316 0.930 . S
C2320 C2322 1.348 . S
C2320 C2323 1.356 . S
C2320 O2350 1.325 . S
N2321 C2324 1.314 . S
N2321 C2325 1.279 . S
C2322 C2320 1.348 . S
C2322 C2324 1.353 . S
C2322 H2364 0.929 . S
C2323 C2320 1.356 . S
C2323 C2325 1.358 . S
C2323 H2365 0.930 . S
C2324 N2321 1.314 . S
C2324 C2322 1.353 . S
C2324 H2366 0.930 . S
C2325 N2321 1.279 . S
C2325 C2323 1.358 . S
C2325 H2367 0.930 . S
C2326 C2327 1.348 . S
C2326 C2328 1.356 . S
C2326 O2351 1.325 . S
C2327 C2326 1.348 . S
C2327 C2329 1.353 . S
C2327 H2368 0.929 . S
C2328 C2326 1.356 . S
C2328 C2330 1.358 . S
C2328 H2369 0.930 . S
C2329 C2327 1.353 . S
C2329 N2331 1.314 . S
C2329 H2370 0.930 . S
C2330 C2328 1.358 . S
C2330 N2331 1.279 . S
C2330 H2371 0.930 . S
N2331 C2329 1.314 . S
N2331 C2330 1.279 . S
C2332 C2334 1.353 . S
C2332 N2335 1.314 . S
C2332 H2338 0.930 . S
C2333 N2335 1.279 . S
C2333 C2336 1.358 . S
C2333 H2339 0.930 . S
C2334 C2332 1.353 . S
C2334 C2337 1.348 . S
C2334 H2372 0.929 . S
N2335 Li2290 1.990 . S
N2335 C2332 1.314 . S
N2335 C2333 1.279 . S
C2336 C2333 1.358 . S
C2336 C2337 1.356 . S
C2336 H2373 0.930 . S
C2337 C2334 1.348 . S
C2337 C2336 1.356 . S
H2338 C2332 0.930 . S
H2339 C2333 0.930 . S
C2340 N2341 1.314 . S
C2340 C2342 1.353 . S
C2340 H2346 0.930 . S
N2341 Li2291 1.990 . S
N2341 C2340 1.314 . S
N2341 C2344 1.279 . S
C2342 C2340 1.353 . S
C2342 C2345 1.348 . S
C2342 H2374 0.929 . S
C2343 C2344 1.358 . S
C2343 C2345 1.356 . S
C2343 H2375 0.930 . S
C2344 N2341 1.279 . S
C2344 C2343 1.358 . S
C2344 H2347 0.930 . S
C2345 C2342 1.348 . S
C2345 C2343 1.356 . S
H2346 C2340 0.930 . S
H2347 C2344 0.930 . S
O2348 Li2288 1.956 . S
O2348 Li2289 1.970 . S
O2348 Li2290 1.961 . S
O2348 C2292 1.325 . S
O2349 Li2288 1.970 . S
O2349 Li2289 1.956 . S
O2349 Li2291 1.961 . S
O2349 C2298 1.325 . S
O2350 Li2288 1.961 . S
O2350 Li2290 1.956 . S
O2350 Li2291 1.970 . S
O2350 C2320 1.325 . S
O2351 Li2289 1.961 . S
O2351 Li2290 1.970 . S
O2351 Li2291 1.956 . S
O2351 C2326 1.325 . S
H2352 C2294 0.929 . S
H2353 C2295 0.930 . S
H2354 C2296 0.930 . S
H2355 C2297 0.930 . S
H2356 C2299 0.930 . S
H2357 C2301 0.929 . S
H2358 C2302 0.930 . S
H2359 C2303 0.930 . S
H2360 C2306 0.930 . S
H2361 C2309 0.929 . S
H2362 C2314 0.929 . S
H2363 C2315 0.930 . S
H2364 C2322 0.929 . S
H2365 C2323 0.930 . S
H2366 C2324 0.930 . S
H2367 C2325 0.930 . S
H2368 C2327 0.929 . S
H2369 C2328 0.930 . S
H2370 C2329 0.930 . S
H2371 C2330 0.930 . S
H2372 C2334 0.929 . S
H2373 C2336 0.930 . S
H2374 C2342 0.929 . S
H2375 C2343 0.930 . S
Li2376 N2393 1.990 . S
Li2376 O2436 1.956 . S
Li2376 O2437 1.970 . S
Li2376 O2438 1.961 . S
Li2377 N2401 1.990 . S
Li2377 O2436 1.970 . S
Li2377 O2437 1.956 . S
Li2377 O2439 1.961 . S
Li2378 N2423 1.990 . S
Li2378 O2436 1.961 . S
Li2378 O2438 1.956 . S
Li2378 O2439 1.970 . S
Li2379 N2429 1.990 . S
Li2379 O2437 1.961 . S
Li2379 O2438 1.970 . S
Li2379 O2439 1.956 . S
C2380 C2382 1.348 . S
C2380 C2383 1.356 . S
C2380 O2436 1.325 . S
N2381 C2384 1.314 . S
N2381 C2385 1.279 . S
C2382 C2380 1.348 . S
C2382 C2384 1.353 1_554 S
C2382 H2440 0.929 . S
C2383 C2380 1.356 . S
C2383 C2385 1.358 1_554 S
C2383 H2441 0.930 . S
C2384 N2381 1.314 . S
C2384 C2382 1.353 1_556 S
C2384 H2442 0.930 . S
C2385 N2381 1.279 . S
C2385 C2383 1.358 1_556 S
C2385 H2443 0.930 . S
C2386 C2389 1.348 . S
C2386 C2390 1.356 . S
C2386 O2437 1.325 . S
C2387 N2388 1.279 . S
C2387 C2390 1.358 . S
C2387 H2444 0.930 . S
N2388 C2387 1.279 . S
N2388 C2391 1.314 . S
C2389 C2386 1.348 . S
C2389 C2391 1.353 . S
C2389 H2445 0.929 . S
C2390 C2386 1.356 . S
C2390 C2387 1.358 . S
C2390 H2446 0.930 . S
C2391 N2388 1.314 . S
C2391 C2389 1.353 . S
C2391 H2447 0.930 . S
C2392 N2393 1.314 . S
C2392 C2397 1.353 . S
C2392 H2398 0.930 . S
N2393 Li2376 1.990 . S
N2393 C2392 1.314 . S
N2393 C2395 1.279 . S
C2394 C2395 1.358 . S
C2394 C2396 1.356 . S
C2394 H2448 0.930 . S
C2395 N2393 1.279 . S
C2395 C2394 1.358 . S
C2395 H2399 0.930 . S
C2396 C2394 1.356 . S
C2396 C2397 1.348 . S
C2397 C2392 1.353 . S
C2397 C2396 1.348 . S
C2397 H2449 0.929 . S
H2398 C2392 0.930 . S
H2399 C2395 0.930 . S
C2400 N2401 1.314 . S
C2400 C2402 1.353 . S
C2400 H2406 0.930 . S
N2401 Li2377 1.990 . S
N2401 C2400 1.314 . S
N2401 C2404 1.279 . S
C2402 C2400 1.353 . S
C2402 C2405 1.348 . S
C2402 H2450 0.929 . S
C2403 C2404 1.358 . S
C2403 C2405 1.356 . S
C2403 H2451 0.930 . S
C2404 N2401 1.279 . S
C2404 C2403 1.358 . S
C2404 H2407 0.930 . S
C2405 C2402 1.348 . S
C2405 C2403 1.356 . S
H2406 C2400 0.930 . S
H2407 C2404 0.930 . S
C2408 C2410 1.348 . S
C2408 C2411 1.356 . S
C2408 O2438 1.325 . S
N2409 C2412 1.314 . S
N2409 C2413 1.279 . S
C2410 C2408 1.348 . S
C2410 C2412 1.353 . S
C2410 H2452 0.929 . S
C2411 C2408 1.356 . S
C2411 C2413 1.358 . S
C2411 H2453 0.930 . S
C2412 N2409 1.314 . S
C2412 C2410 1.353 . S
C2412 H2454 0.930 . S
C2413 N2409 1.279 . S
C2413 C2411 1.358 . S
C2413 H2455 0.930 . S
C2414 C2415 1.348 . S
C2414 C2416 1.356 . S
C2414 O2439 1.325 . S
C2415 C2414 1.348 . S
C2415 C2417 1.353 . S
C2415 H2456 0.929 . S
C2416 C2414 1.356 . S
C2416 C2418 1.358 . S
C2416 H2457 0.930 . S
C2417 C2415 1.353 . S
C2417 N2419 1.314 . S
C2417 H2458 0.930 . S
C2418 C2416 1.358 . S
C2418 N2419 1.279 . S
C2418 H2459 0.930 . S
N2419 C2417 1.314 . S
N2419 C2418 1.279 . S
C2420 C2422 1.353 . S
C2420 N2423 1.314 1_556 S
C2420 H2426 0.930 . S
C2421 N2423 1.276 1_556 S
C2421 C2424 1.398 . S
C2421 H2427 0.892 1_556 S
C2422 C2420 1.353 . S
C2422 C2425 1.348 . S
C2422 H2460 0.929 . S
N2423 Li2378 1.990 . S
N2423 C2420 1.314 1_554 S
N2423 C2421 1.276 1_554 S
C2424 C2421 1.398 . S
C2424 C2425 1.356 . S
C2424 H2461 0.930 . S
C2425 C2422 1.348 . S
C2425 C2424 1.356 . S
H2426 C2420 0.930 . S
H2427 C2421 0.892 1_554 S
C2428 N2429 1.314 . S
C2428 C2430 1.353 . S
C2428 H2434 0.930 . S
N2429 Li2379 1.990 . S
N2429 C2428 1.314 . S
N2429 C2432 1.279 . S
C2430 C2428 1.353 . S
C2430 C2433 1.348 . S
C2430 H2462 0.929 . S
C2431 C2432 1.358 . S
C2431 C2433 1.356 . S
C2431 H2463 0.930 . S
C2432 N2429 1.279 . S
C2432 C2431 1.358 . S
C2432 H2435 0.930 . S
C2433 C2430 1.348 . S
C2433 C2431 1.356 . S
H2434 C2428 0.930 . S
H2435 C2432 0.930 . S
O2436 Li2376 1.956 . S
O2436 Li2377 1.970 . S
O2436 Li2378 1.961 . S
O2436 C2380 1.325 . S
O2437 Li2376 1.970 . S
O2437 Li2377 1.956 . S
O2437 Li2379 1.961 . S
O2437 C2386 1.325 . S
O2438 Li2376 1.961 . S
O2438 Li2378 1.956 . S
O2438 Li2379 1.970 . S
O2438 C2408 1.325 . S
O2439 Li2377 1.961 . S
O2439 Li2378 1.970 . S
O2439 Li2379 1.956 . S
O2439 C2414 1.325 . S
H2440 C2382 0.929 . S
H2441 C2383 0.930 . S
H2442 C2384 0.930 . S
H2443 C2385 0.930 . S
H2444 C2387 0.930 . S
H2445 C2389 0.929 . S
H2446 C2390 0.930 . S
H2447 C2391 0.930 . S
H2448 C2394 0.930 . S
H2449 C2397 0.929 . S
H2450 C2402 0.929 . S
H2451 C2403 0.930 . S
H2452 C2410 0.929 . S
H2453 C2411 0.930 . S
H2454 C2412 0.930 . S
H2455 C2413 0.930 . S
H2456 C2415 0.929 . S
H2457 C2416 0.930 . S
H2458 C2417 0.930 . S
H2459 C2418 0.930 . S
H2460 C2422 0.929 . S
H2461 C2424 0.930 . S
H2462 C2430 0.929 . S
H2463 C2431 0.930 . S
Li2464 N2481 1.990 . S
Li2464 O2524 1.956 . S
Li2464 O2525 1.970 . S
Li2464 O2526 1.961 . S
Li2465 N2489 1.990 . S
Li2465 O2524 1.970 . S
Li2465 O2525 1.956 . S
Li2465 O2527 1.961 . S
Li2466 N2511 1.990 . S
Li2466 O2524 1.961 . S
Li2466 O2526 1.956 . S
Li2466 O2527 1.970 . S
Li2467 N2517 1.990 . S
Li2467 O2525 1.961 . S
Li2467 O2526 1.970 . S
Li2467 O2527 1.956 . S
C2468 C2470 1.348 . S
C2468 C2471 1.356 . S
C2468 O2524 1.325 . S
N2469 C2472 1.314 . S
N2469 C2473 1.279 . S
C2470 C2468 1.348 . S
C2470 C2472 1.353 . S
C2470 H2528 0.929 . S
C2471 C2468 1.356 . S
C2471 C2473 1.358 . S
C2471 H2529 0.930 . S
C2472 N2469 1.314 . S
C2472 C2470 1.353 . S
C2472 H2530 0.930 . S
C2473 N2469 1.279 . S
C2473 C2471 1.358 . S
C2473 H2531 0.930 . S
C2474 C2477 1.348 . S
C2474 C2478 1.356 . S
C2474 O2525 1.325 . S
C2475 N2476 1.279 . S
C2475 C2478 1.358 . S
C2475 H2532 0.930 . S
N2476 C2475 1.279 . S
N2476 C2479 1.314 . S
C2477 C2474 1.348 . S
C2477 C2479 1.353 . S
C2477 H2533 0.929 . S
C2478 C2474 1.356 . S
C2478 C2475 1.358 . S
C2478 H2534 0.930 . S
C2479 N2476 1.314 . S
C2479 C2477 1.353 . S
C2479 H2535 0.930 . S
C2480 N2481 1.314 1_556 S
C2480 C2485 1.353 . S
C2480 H2486 0.930 . S
N2481 Li2464 1.990 . S
N2481 C2480 1.314 1_554 S
N2481 C2483 1.276 1_554 S
C2482 C2483 1.398 . S
C2482 C2484 1.356 . S
C2482 H2536 0.930 . S
C2483 N2481 1.276 1_556 S
C2483 C2482 1.398 . S
C2483 H2487 0.892 1_556 S
C2484 C2482 1.356 . S
C2484 C2485 1.348 . S
C2485 C2480 1.353 . S
C2485 C2484 1.348 . S
C2485 H2537 0.929 . S
H2486 C2480 0.930 . S
H2487 C2483 0.892 1_554 S
C2488 N2489 1.314 . S
C2488 C2490 1.353 . S
C2488 H2494 0.930 . S
N2489 Li2465 1.990 . S
N2489 C2488 1.314 . S
N2489 C2492 1.279 . S
C2490 C2488 1.353 . S
C2490 C2493 1.348 . S
C2490 H2538 0.929 . S
C2491 C2492 1.358 . S
C2491 C2493 1.356 . S
C2491 H2539 0.930 . S
C2492 N2489 1.279 . S
C2492 C2491 1.358 . S
C2492 H2495 0.930 . S
C2493 C2490 1.348 . S
C2493 C2491 1.356 . S
H2494 C2488 0.930 . S
H2495 C2492 0.930 . S
C2496 C2498 1.348 . S
C2496 C2499 1.356 . S
C2496 O2526 1.325 . S
N2497 C2500 1.314 . S
N2497 C2501 1.279 . S
C2498 C2496 1.348 . S
C2498 C2500 1.353 1_554 S
C2498 H2540 0.929 . S
C2499 C2496 1.356 . S
C2499 C2501 1.358 1_554 S
C2499 H2541 0.930 . S
C2500 N2497 1.314 . S
C2500 C2498 1.353 1_556 S
C2500 H2542 0.930 . S
C2501 N2497 1.279 . S
C2501 C2499 1.358 1_556 S
C2501 H2543 0.930 . S
C2502 C2503 1.348 . S
C2502 C2504 1.356 . S
C2502 O2527 1.325 . S
C2503 C2502 1.348 . S
C2503 C2505 1.353 . S
C2503 H2544 0.929 . S
C2504 C2502 1.356 . S
C2504 C2506 1.358 . S
C2504 H2545 0.930 . S
C2505 C2503 1.353 . S
C2505 N2507 1.314 . S
C2505 H2546 0.930 . S
C2506 C2504 1.358 . S
C2506 N2507 1.279 . S
C2506 H2547 0.930 . S
N2507 C2505 1.314 . S
N2507 C2506 1.279 . S
C2508 C2510 1.353 . S
C2508 N2511 1.314 . S
C2508 H2514 0.930 . S
C2509 N2511 1.279 . S
C2509 C2512 1.358 . S
C2509 H2515 0.930 . S
C2510 C2508 1.353 . S
C2510 C2513 1.348 . S
C2510 H2548 0.929 . S
N2511 Li2466 1.990 . S
N2511 C2508 1.314 . S
N2511 C2509 1.279 . S
C2512 C2509 1.358 . S
C2512 C2513 1.356 . S
C2512 H2549 0.930 . S
C2513 C2510 1.348 . S
C2513 C2512 1.356 . S
H2514 C2508 0.930 . S
H2515 C2509 0.930 . S
C2516 N2517 1.314 . S
C2516 C2518 1.353 . S
C2516 H2522 0.930 . S
N2517 Li2467 1.990 . S
N2517 C2516 1.314 . S
N2517 C2520 1.279 . S
C2518 C2516 1.353 . S
C2518 C2521 1.348 . S
C2518 H2550 0.929 . S
C2519 C2520 1.358 . S
C2519 C2521 1.356 . S
C2519 H2551 0.930 . S
C2520 N2517 1.279 . S
C2520 C2519 1.358 . S
C2520 H2523 0.930 . S
C2521 C2518 1.348 . S
C2521 C2519 1.356 . S
H2522 C2516 0.930 . S
H2523 C2520 0.930 . S
O2524 Li2464 1.956 . S
O2524 Li2465 1.970 . S
O2524 Li2466 1.961 . S
O2524 C2468 1.325 . S
O2525 Li2464 1.970 . S
O2525 Li2465 1.956 . S
O2525 Li2467 1.961 . S
O2525 C2474 1.325 . S
O2526 Li2464 1.961 . S
O2526 Li2466 1.956 . S
O2526 Li2467 1.970 . S
O2526 C2496 1.325 . S
O2527 Li2465 1.961 . S
O2527 Li2466 1.970 . S
O2527 Li2467 1.956 . S
O2527 C2502 1.325 . S
H2528 C2470 0.929 . S
H2529 C2471 0.930 . S
H2530 C2472 0.930 . S
H2531 C2473 0.930 . S
H2532 C2475 0.930 . S
H2533 C2477 0.929 . S
H2534 C2478 0.930 . S
H2535 C2479 0.930 . S
H2536 C2482 0.930 . S
H2537 C2485 0.929 . S
H2538 C2490 0.929 . S
H2539 C2491 0.930 . S
H2540 C2498 0.929 . S
H2541 C2499 0.930 . S
H2542 C2500 0.930 . S
H2543 C2501 0.930 . S
H2544 C2503 0.929 . S
H2545 C2504 0.930 . S
H2546 C2505 0.930 . S
H2547 C2506 0.930 . S
H2548 C2510 0.929 . S
H2549 C2512 0.930 . S
H2550 C2518 0.929 . S
H2551 C2519 0.930 . S
Li2552 N2569 1.990 . S
Li2552 O2612 1.956 . S
Li2552 O2613 1.970 . S
Li2552 O2614 1.961 . S
Li2553 N2577 1.990 . S
Li2553 O2612 1.970 . S
Li2553 O2613 1.956 . S
Li2553 O2615 1.961 . S
Li2554 N2599 1.990 . S
Li2554 O2612 1.961 . S
Li2554 O2614 1.956 . S
Li2554 O2615 1.970 . S
Li2555 N2605 1.990 . S
Li2555 O2613 1.961 . S
Li2555 O2614 1.970 . S
Li2555 O2615 1.956 . S
C2556 C2558 1.348 . S
C2556 C2559 1.356 . S
C2556 O2612 1.325 . S
N2557 C2560 1.314 . S
N2557 C2561 1.279 . S
C2558 C2556 1.348 . S
C2558 C2560 1.353 . S
C2558 H2616 0.929 . S
C2559 C2556 1.356 . S
C2559 C2561 1.358 . S
C2559 H2617 0.930 . S
C2560 N2557 1.314 . S
C2560 C2558 1.353 . S
C2560 H2618 0.930 . S
C2561 N2557 1.279 . S
C2561 C2559 1.358 . S
C2561 H2619 0.930 . S
C2562 C2565 1.348 . S
C2562 C2566 1.356 . S
C2562 O2613 1.325 . S
C2563 N2564 1.279 . S
C2563 C2566 1.358 1_556 S
C2563 H2620 0.930 . S
N2564 C2563 1.279 . S
N2564 C2567 1.314 . S
C2565 C2562 1.348 . S
C2565 C2567 1.353 1_554 S
C2565 H2621 0.929 . S
C2566 C2562 1.356 . S
C2566 C2563 1.358 1_554 S
C2566 H2622 0.930 . S
C2567 N2564 1.314 . S
C2567 C2565 1.353 1_556 S
C2567 H2623 0.930 . S
C2568 N2569 1.314 . S
C2568 C2573 1.353 . S
C2568 H2574 0.930 . S
N2569 Li2552 1.990 . S
N2569 C2568 1.314 . S
N2569 C2571 1.279 . S
C2570 C2571 1.358 . S
C2570 C2572 1.356 . S
C2570 H2624 0.930 . S
C2571 N2569 1.279 . S
C2571 C2570 1.358 . S
C2571 H2575 0.930 . S
C2572 C2570 1.356 . S
C2572 C2573 1.348 . S
C2573 C2568 1.353 . S
C2573 C2572 1.348 . S
C2573 H2625 0.929 . S
H2574 C2568 0.930 . S
H2575 C2571 0.930 . S
C2576 N2577 1.314 . S
C2576 C2578 1.353 . S
C2576 H2582 0.930 . S
N2577 Li2553 1.990 . S
N2577 C2576 1.314 . S
N2577 C2580 1.279 . S
C2578 C2576 1.353 . S
C2578 C2581 1.348 . S
C2578 H2626 0.929 . S
C2579 C2580 1.358 . S
C2579 C2581 1.356 . S
C2579 H2627 0.930 . S
C2580 N2577 1.279 . S
C2580 C2579 1.358 . S
C2580 H2583 0.930 . S
C2581 C2578 1.348 . S
C2581 C2579 1.356 . S
H2582 C2576 0.930 . S
H2583 C2580 0.930 . S
C2584 C2586 1.348 . S
C2584 C2587 1.356 . S
C2584 O2614 1.325 . S
N2585 C2588 1.314 . S
N2585 C2589 1.279 . S
C2586 C2584 1.348 . S
C2586 C2588 1.353 . S
C2586 H2628 0.929 . S
C2587 C2584 1.356 . S
C2587 C2589 1.358 . S
C2587 H2629 0.930 . S
C2588 N2585 1.314 . S
C2588 C2586 1.353 . S
C2588 H2630 0.930 . S
C2589 N2585 1.279 . S
C2589 C2587 1.358 . S
C2589 H2631 0.930 . S
C2590 C2591 1.348 . S
C2590 C2592 1.356 . S
C2590 O2615 1.325 . S
C2591 C2590 1.348 . S
C2591 C2593 1.353 . S
C2591 H2632 0.929 . S
C2592 C2590 1.356 . S
C2592 C2594 1.358 . S
C2592 H2633 0.930 . S
C2593 C2591 1.353 . S
C2593 N2595 1.314 . S
C2593 H2634 0.930 . S
C2594 C2592 1.358 . S
C2594 N2595 1.279 . S
C2594 H2635 0.930 . S
N2595 C2593 1.314 . S
N2595 C2594 1.279 . S
C2596 C2598 1.353 . S
C2596 N2599 1.314 . S
C2596 H2602 0.930 . S
C2597 N2599 1.279 . S
C2597 C2600 1.358 . S
C2597 H2603 0.930 . S
C2598 C2596 1.353 . S
C2598 C2601 1.348 . S
C2598 H2636 0.929 . S
N2599 Li2554 1.990 . S
N2599 C2596 1.314 . S
N2599 C2597 1.279 . S
C2600 C2597 1.358 . S
C2600 C2601 1.356 . S
C2600 H2637 0.930 . S
C2601 C2598 1.348 . S
C2601 C2600 1.356 . S
H2602 C2596 0.930 . S
H2603 C2597 0.930 . S
C2604 N2605 1.314 1_556 S
C2604 C2606 1.353 . S
C2604 H2610 0.930 . S
N2605 Li2555 1.990 . S
N2605 C2604 1.314 1_554 S
N2605 C2608 1.276 1_554 S
C2606 C2604 1.353 . S
C2606 C2609 1.348 . S
C2606 H2638 0.929 . S
C2607 C2608 1.398 . S
C2607 C2609 1.356 . S
C2607 H2639 0.930 . S
C2608 N2605 1.276 1_556 S
C2608 C2607 1.398 . S
C2608 H2611 0.892 1_556 S
C2609 C2606 1.348 . S
C2609 C2607 1.356 . S
H2610 C2604 0.930 . S
H2611 C2608 0.892 1_554 S
O2612 Li2552 1.956 . S
O2612 Li2553 1.970 . S
O2612 Li2554 1.961 . S
O2612 C2556 1.325 . S
O2613 Li2552 1.970 . S
O2613 Li2553 1.956 . S
O2613 Li2555 1.961 . S
O2613 C2562 1.325 . S
O2614 Li2552 1.961 . S
O2614 Li2554 1.956 . S
O2614 Li2555 1.970 . S
O2614 C2584 1.325 . S
O2615 Li2553 1.961 . S
O2615 Li2554 1.970 . S
O2615 Li2555 1.956 . S
O2615 C2590 1.325 . S
H2616 C2558 0.929 . S
H2617 C2559 0.930 . S
H2618 C2560 0.930 . S
H2619 C2561 0.930 . S
H2620 C2563 0.930 . S
H2621 C2565 0.929 . S
H2622 C2566 0.930 . S
H2623 C2567 0.930 . S
H2624 C2570 0.930 . S
H2625 C2573 0.929 . S
H2626 C2578 0.929 . S
H2627 C2579 0.930 . S
H2628 C2586 0.929 . S
H2629 C2587 0.930 . S
H2630 C2588 0.930 . S
H2631 C2589 0.930 . S
H2632 C2591 0.929 . S
H2633 C2592 0.930 . S
H2634 C2593 0.930 . S
H2635 C2594 0.930 . S
H2636 C2598 0.929 . S
H2637 C2600 0.930 . S
H2638 C2606 0.929 . S
H2639 C2607 0.930 . S
Li2640 N2657 1.990 . S
Li2640 O2700 1.956 . S
Li2640 O2701 1.970 . S
Li2640 O2702 1.961 . S
Li2641 N2665 1.990 . S
Li2641 O2700 1.970 . S
Li2641 O2701 1.956 . S
Li2641 O2703 1.961 . S
Li2642 N2687 1.990 . S
Li2642 O2700 1.961 . S
Li2642 O2702 1.956 . S
Li2642 O2703 1.970 . S
Li2643 N2693 1.990 . S
Li2643 O2701 1.961 . S
Li2643 O2702 1.970 . S
Li2643 O2703 1.956 . S
C2644 C2646 1.348 . S
C2644 C2647 1.356 . S
C2644 O2700 1.325 . S
N2645 C2648 1.314 . S
N2645 C2649 1.279 . S
C2646 C2644 1.348 . S
C2646 C2648 1.353 . S
C2646 H2704 0.929 . S
C2647 C2644 1.356 . S
C2647 C2649 1.358 . S
C2647 H2705 0.930 . S
C2648 N2645 1.314 . S
C2648 C2646 1.353 . S
C2648 H2706 0.930 . S
C2649 N2645 1.279 . S
C2649 C2647 1.358 . S
C2649 H2707 0.930 . S
C2650 C2653 1.348 . S
C2650 C2654 1.356 . S
C2650 O2701 1.325 . S
C2651 N2652 1.279 . S
C2651 C2654 1.358 . S
C2651 H2708 0.930 . S
N2652 C2651 1.279 . S
N2652 C2655 1.314 . S
C2653 C2650 1.348 . S
C2653 C2655 1.353 . S
C2653 H2709 0.929 . S
C2654 C2650 1.356 . S
C2654 C2651 1.358 . S
C2654 H2710 0.930 . S
C2655 N2652 1.314 . S
C2655 C2653 1.353 . S
C2655 H2711 0.930 . S
C2656 N2657 1.314 . S
C2656 C2661 1.353 . S
C2656 H2662 0.930 . S
N2657 Li2640 1.990 . S
N2657 C2656 1.314 . S
N2657 C2659 1.279 . S
C2658 C2659 1.358 . S
C2658 C2660 1.356 . S
C2658 H2712 0.930 . S
C2659 N2657 1.279 . S
C2659 C2658 1.358 . S
C2659 H2663 0.930 . S
C2660 C2658 1.356 . S
C2660 C2661 1.348 . S
C2661 C2656 1.353 . S
C2661 C2660 1.348 . S
C2661 H2713 0.929 . S
H2662 C2656 0.930 . S
H2663 C2659 0.930 . S
C2664 N2665 1.314 . S
C2664 C2666 1.353 . S
C2664 H2670 0.930 . S
N2665 Li2641 1.990 . S
N2665 C2664 1.314 . S
N2665 C2668 1.279 . S
C2666 C2664 1.353 . S
C2666 C2669 1.348 . S
C2666 H2714 0.929 . S
C2667 C2668 1.358 . S
C2667 C2669 1.356 . S
C2667 H2715 0.930 . S
C2668 N2665 1.279 . S
C2668 C2667 1.358 . S
C2668 H2671 0.930 . S
C2669 C2666 1.348 . S
C2669 C2667 1.356 . S
H2670 C2664 0.930 . S
H2671 C2668 0.930 . S
C2672 C2674 1.348 . S
C2672 C2675 1.356 . S
C2672 O2702 1.325 . S
N2673 C2676 1.314 . S
N2673 C2677 1.279 . S
C2674 C2672 1.348 . S
C2674 C2676 1.353 . S
C2674 H2716 0.929 . S
C2675 C2672 1.356 . S
C2675 C2677 1.358 . S
C2675 H2717 0.930 . S
C2676 N2673 1.314 . S
C2676 C2674 1.353 . S
C2676 H2718 0.930 . S
C2677 N2673 1.279 . S
C2677 C2675 1.358 . S
C2677 H2719 0.930 . S
C2678 C2679 1.348 . S
C2678 C2680 1.356 . S
C2678 O2703 1.325 . S
C2679 C2678 1.348 . S
C2679 C2681 1.353 . S
C2679 H2720 0.929 . S
C2680 C2678 1.356 . S
C2680 C2682 1.358 . S
C2680 H2721 0.930 . S
C2681 C2679 1.353 . S
C2681 N2683 1.314 . S
C2681 H2722 0.930 . S
C2682 C2680 1.358 . S
C2682 N2683 1.279 . S
C2682 H2723 0.930 . S
N2683 C2681 1.314 . S
N2683 C2682 1.279 . S
C2684 C2686 1.353 . S
C2684 N2687 1.314 . S
C2684 H2690 0.930 . S
C2685 N2687 1.279 . S
C2685 C2688 1.358 . S
C2685 H2691 0.930 . S
C2686 C2684 1.353 . S
C2686 C2689 1.348 . S
C2686 H2724 0.929 . S
N2687 Li2642 1.990 . S
N2687 C2684 1.314 . S
N2687 C2685 1.279 . S
C2688 C2685 1.358 . S
C2688 C2689 1.356 . S
C2688 H2725 0.930 . S
C2689 C2686 1.348 . S
C2689 C2688 1.356 . S
H2690 C2684 0.930 . S
H2691 C2685 0.930 . S
C2692 N2693 1.314 . S
C2692 C2694 1.353 . S
C2692 H2698 0.930 . S
N2693 Li2643 1.990 . S
N2693 C2692 1.314 . S
N2693 C2696 1.279 . S
C2694 C2692 1.353 . S
C2694 C2697 1.348 . S
C2694 H2726 0.929 . S
C2695 C2696 1.358 . S
C2695 C2697 1.356 . S
C2695 H2727 0.930 . S
C2696 N2693 1.279 . S
C2696 C2695 1.358 . S
C2696 H2699 0.930 . S
C2697 C2694 1.348 . S
C2697 C2695 1.356 . S
H2698 C2692 0.930 . S
H2699 C2696 0.930 . S
O2700 Li2640 1.956 . S
O2700 Li2641 1.970 . S
O2700 Li2642 1.961 . S
O2700 C2644 1.325 . S
O2701 Li2640 1.970 . S
O2701 Li2641 1.956 . S
O2701 Li2643 1.961 . S
O2701 C2650 1.325 . S
O2702 Li2640 1.961 . S
O2702 Li2642 1.956 . S
O2702 Li2643 1.970 . S
O2702 C2672 1.325 . S
O2703 Li2641 1.961 . S
O2703 Li2642 1.970 . S
O2703 Li2643 1.956 . S
O2703 C2678 1.325 . S
H2704 C2646 0.929 . S
H2705 C2647 0.930 . S
H2706 C2648 0.930 . S
H2707 C2649 0.930 . S
H2708 C2651 0.930 . S
H2709 C2653 0.929 . S
H2710 C2654 0.930 . S
H2711 C2655 0.930 . S
H2712 C2658 0.930 . S
H2713 C2661 0.929 . S
H2714 C2666 0.929 . S
H2715 C2667 0.930 . S
H2716 C2674 0.929 . S
H2717 C2675 0.930 . S
H2718 C2676 0.930 . S
H2719 C2677 0.930 . S
H2720 C2679 0.929 . S
H2721 C2680 0.930 . S
H2722 C2681 0.930 . S
H2723 C2682 0.930 . S
H2724 C2686 0.929 . S
H2725 C2688 0.930 . S
H2726 C2694 0.929 . S
H2727 C2695 0.930 . S
Li2728 N2745 1.990 . S
Li2728 O2788 1.956 . S
Li2728 O2789 1.970 . S
Li2728 O2790 1.961 . S
Li2729 N2753 1.990 . S
Li2729 O2788 1.970 . S
Li2729 O2789 1.956 . S
Li2729 O2791 1.961 . S
Li2730 N2775 1.990 . S
Li2730 O2788 1.961 . S
Li2730 O2790 1.956 . S
Li2730 O2791 1.970 . S
Li2731 N2781 1.990 . S
Li2731 O2789 1.961 . S
Li2731 O2790 1.970 . S
Li2731 O2791 1.956 . S
C2732 C2734 1.348 . S
C2732 C2735 1.356 . S
C2732 O2788 1.325 . S
N2733 C2736 1.314 . S
N2733 C2737 1.279 . S
C2734 C2732 1.348 . S
C2734 C2736 1.353 . S
C2734 H2792 0.929 . S
C2735 C2732 1.356 . S
C2735 C2737 1.358 . S
C2735 H2793 0.930 . S
C2736 N2733 1.314 . S
C2736 C2734 1.353 . S
C2736 H2794 0.930 . S
C2737 N2733 1.279 . S
C2737 C2735 1.358 . S
C2737 H2795 0.930 . S
C2738 C2741 1.348 . S
C2738 C2742 1.356 . S
C2738 O2789 1.325 . S
C2739 N2740 1.279 . S
C2739 C2742 1.358 . S
C2739 H2796 0.930 . S
N2740 C2739 1.279 . S
N2740 C2743 1.314 . S
C2741 C2738 1.348 . S
C2741 C2743 1.353 . S
C2741 H2797 0.929 . S
C2742 C2738 1.356 . S
C2742 C2739 1.358 . S
C2742 H2798 0.930 . S
C2743 N2740 1.314 . S
C2743 C2741 1.353 . S
C2743 H2799 0.930 . S
C2744 N2745 1.314 . S
C2744 C2749 1.353 . S
C2744 H2750 0.930 . S
N2745 Li2728 1.990 . S
N2745 C2744 1.314 . S
N2745 C2747 1.279 . S
C2746 C2747 1.358 . S
C2746 C2748 1.356 . S
C2746 H2800 0.930 . S
C2747 N2745 1.279 . S
C2747 C2746 1.358 . S
C2747 H2751 0.930 . S
C2748 C2746 1.356 . S
C2748 C2749 1.348 . S
C2749 C2744 1.353 . S
C2749 C2748 1.348 . S
C2749 H2801 0.929 . S
H2750 C2744 0.930 . S
H2751 C2747 0.930 . S
C2752 N2753 1.314 . S
C2752 C2754 1.353 . S
C2752 H2758 0.930 . S
N2753 Li2729 1.990 . S
N2753 C2752 1.314 . S
N2753 C2756 1.279 . S
C2754 C2752 1.353 . S
C2754 C2757 1.348 . S
C2754 H2802 0.929 . S
C2755 C2756 1.358 . S
C2755 C2757 1.356 . S
C2755 H2803 0.930 . S
C2756 N2753 1.279 . S
C2756 C2755 1.358 . S
C2756 H2759 0.930 . S
C2757 C2754 1.348 . S
C2757 C2755 1.356 . S
H2758 C2752 0.930 . S
H2759 C2756 0.930 . S
C2760 C2762 1.348 . S
C2760 C2763 1.356 . S
C2760 O2790 1.325 . S
N2761 C2764 1.314 . S
N2761 C2765 1.279 . S
C2762 C2760 1.348 . S
C2762 C2764 1.353 . S
C2762 H2804 0.929 . S
C2763 C2760 1.356 . S
C2763 C2765 1.358 . S
C2763 H2805 0.930 . S
C2764 N2761 1.314 . S
C2764 C2762 1.353 . S
C2764 H2806 0.930 . S
C2765 N2761 1.279 . S
C2765 C2763 1.358 . S
C2765 H2807 0.930 . S
C2766 C2767 1.348 . S
C2766 C2768 1.356 . S
C2766 O2791 1.325 . S
C2767 C2766 1.348 . S
C2767 C2769 1.353 . S
C2767 H2808 0.929 . S
C2768 C2766 1.356 . S
C2768 C2770 1.358 . S
C2768 H2809 0.930 . S
C2769 C2767 1.353 . S
C2769 N2771 1.314 . S
C2769 H2810 0.930 . S
C2770 C2768 1.358 . S
C2770 N2771 1.279 . S
C2770 H2811 0.930 . S
N2771 C2769 1.314 . S
N2771 C2770 1.279 . S
C2772 C2774 1.353 . S
C2772 N2775 1.314 . S
C2772 H2778 0.930 . S
C2773 N2775 1.279 . S
C2773 C2776 1.358 . S
C2773 H2779 0.930 . S
C2774 C2772 1.353 . S
C2774 C2777 1.348 . S
C2774 H2812 0.929 . S
N2775 Li2730 1.990 . S
N2775 C2772 1.314 . S
N2775 C2773 1.279 . S
C2776 C2773 1.358 . S
C2776 C2777 1.356 . S
C2776 H2813 0.930 . S
C2777 C2774 1.348 . S
C2777 C2776 1.356 . S
H2778 C2772 0.930 . S
H2779 C2773 0.930 . S
C2780 N2781 1.314 . S
C2780 C2782 1.353 . S
C2780 H2786 0.930 . S
N2781 Li2731 1.990 . S
N2781 C2780 1.314 . S
N2781 C2784 1.279 . S
C2782 C2780 1.353 . S
C2782 C2785 1.348 . S
C2782 H2814 0.929 . S
C2783 C2784 1.358 . S
C2783 C2785 1.356 . S
C2783 H2815 0.930 . S
C2784 N2781 1.279 . S
C2784 C2783 1.358 . S
C2784 H2787 0.930 . S
C2785 C2782 1.348 . S
C2785 C2783 1.356 . S
H2786 C2780 0.930 . S
H2787 C2784 0.930 . S
O2788 Li2728 1.956 . S
O2788 Li2729 1.970 . S
O2788 Li2730 1.961 . S
O2788 C2732 1.325 . S
O2789 Li2728 1.970 . S
O2789 Li2729 1.956 . S
O2789 Li2731 1.961 . S
O2789 C2738 1.325 . S
O2790 Li2728 1.961 . S
O2790 Li2730 1.956 . S
O2790 Li2731 1.970 . S
O2790 C2760 1.325 . S
O2791 Li2729 1.961 . S
O2791 Li2730 1.970 . S
O2791 Li2731 1.956 . S
O2791 C2766 1.325 . S
H2792 C2734 0.929 . S
H2793 C2735 0.930 . S
H2794 C2736 0.930 . S
H2795 C2737 0.930 . S
H2796 C2739 0.930 . S
H2797 C2741 0.929 . S
H2798 C2742 0.930 . S
H2799 C2743 0.930 . S
H2800 C2746 0.930 . S
H2801 C2749 0.929 . S
H2802 C2754 0.929 . S
H2803 C2755 0.930 . S
H2804 C2762 0.929 . S
H2805 C2763 0.930 . S
H2806 C2764 0.930 . S
H2807 C2765 0.930 . S
H2808 C2767 0.929 . S
H2809 C2768 0.930 . S
H2810 C2769 0.930 . S
H2811 C2770 0.930 . S
H2812 C2774 0.929 . S
H2813 C2776 0.930 . S
H2814 C2782 0.929 . S
H2815 C2783 0.930 . S
Li2816 N2833 1.990 . S
Li2816 O2876 1.956 . S
Li2816 O2877 1.970 . S
Li2816 O2878 1.961 . S
Li2817 N2841 1.990 . S
Li2817 O2876 1.970 . S
Li2817 O2877 1.956 . S
Li2817 O2879 1.961 . S
Li2818 N2863 1.990 . S
Li2818 O2876 1.961 . S
Li2818 O2878 1.956 . S
Li2818 O2879 1.970 . S
Li2819 N2869 1.990 . S
Li2819 O2877 1.961 . S
Li2819 O2878 1.970 . S
Li2819 O2879 1.956 . S
C2820 C2822 1.348 . S
C2820 C2823 1.356 . S
C2820 O2876 1.325 . S
N2821 C2824 1.314 . S
N2821 C2825 1.279 . S
C2822 C2820 1.348 . S
C2822 C2824 1.353 . S
C2822 H2880 0.929 . S
C2823 C2820 1.356 . S
C2823 C2825 1.358 . S
C2823 H2881 0.930 . S
C2824 N2821 1.314 . S
C2824 C2822 1.353 . S
C2824 H2882 0.930 . S
C2825 N2821 1.279 . S
C2825 C2823 1.358 . S
C2825 H2883 0.930 . S
C2826 C2829 1.348 . S
C2826 C2830 1.356 . S
C2826 O2877 1.325 . S
C2827 N2828 1.279 . S
C2827 C2830 1.358 . S
C2827 H2884 0.930 . S
N2828 C2827 1.279 . S
N2828 C2831 1.314 . S
C2829 C2826 1.348 . S
C2829 C2831 1.353 . S
C2829 H2885 0.929 . S
C2830 C2826 1.356 . S
C2830 C2827 1.358 . S
C2830 H2886 0.930 . S
C2831 N2828 1.314 . S
C2831 C2829 1.353 . S
C2831 H2887 0.930 . S
C2832 N2833 1.314 . S
C2832 C2837 1.353 . S
C2832 H2838 0.930 . S
N2833 Li2816 1.990 . S
N2833 C2832 1.314 . S
N2833 C2835 1.279 . S
C2834 C2835 1.358 . S
C2834 C2836 1.356 . S
C2834 H2888 0.930 . S
C2835 N2833 1.279 . S
C2835 C2834 1.358 . S
C2835 H2839 0.930 . S
C2836 C2834 1.356 . S
C2836 C2837 1.348 . S
C2837 C2832 1.353 . S
C2837 C2836 1.348 . S
C2837 H2889 0.929 . S
H2838 C2832 0.930 . S
H2839 C2835 0.930 . S
C2840 N2841 1.314 . S
C2840 C2842 1.353 . S
C2840 H2846 0.930 . S
N2841 Li2817 1.990 . S
N2841 C2840 1.314 . S
N2841 C2844 1.279 . S
C2842 C2840 1.353 . S
C2842 C2845 1.348 . S
C2842 H2890 0.929 . S
C2843 C2844 1.358 . S
C2843 C2845 1.356 . S
C2843 H2891 0.930 . S
C2844 N2841 1.279 . S
C2844 C2843 1.358 . S
C2844 H2847 0.930 . S
C2845 C2842 1.348 . S
C2845 C2843 1.356 . S
H2846 C2840 0.930 . S
H2847 C2844 0.930 . S
C2848 C2850 1.348 . S
C2848 C2851 1.356 . S
C2848 O2878 1.325 . S
N2849 C2852 1.314 . S
N2849 C2853 1.279 . S
C2850 C2848 1.348 . S
C2850 C2852 1.353 . S
C2850 H2892 0.929 . S
C2851 C2848 1.356 . S
C2851 C2853 1.358 . S
C2851 H2893 0.930 . S
C2852 N2849 1.314 . S
C2852 C2850 1.353 . S
C2852 H2894 0.930 . S
C2853 N2849 1.279 . S
C2853 C2851 1.358 . S
C2853 H2895 0.930 . S
C2854 C2855 1.348 . S
C2854 C2856 1.356 . S
C2854 O2879 1.325 . S
C2855 C2854 1.348 . S
C2855 C2857 1.353 . S
C2855 H2896 0.929 . S
C2856 C2854 1.356 . S
C2856 C2858 1.358 . S
C2856 H2897 0.930 . S
C2857 C2855 1.353 . S
C2857 N2859 1.314 . S
C2857 H2898 0.930 . S
C2858 C2856 1.358 . S
C2858 N2859 1.279 . S
C2858 H2899 0.930 . S
N2859 C2857 1.314 . S
N2859 C2858 1.279 . S
C2860 C2862 1.353 . S
C2860 N2863 1.314 . S
C2860 H2866 0.930 . S
C2861 N2863 1.279 . S
C2861 C2864 1.358 . S
C2861 H2867 0.930 . S
C2862 C2860 1.353 . S
C2862 C2865 1.348 . S
C2862 H2900 0.929 . S
N2863 Li2818 1.990 . S
N2863 C2860 1.314 . S
N2863 C2861 1.279 . S
C2864 C2861 1.358 . S
C2864 C2865 1.356 . S
C2864 H2901 0.930 . S
C2865 C2862 1.348 . S
C2865 C2864 1.356 . S
H2866 C2860 0.930 . S
H2867 C2861 0.930 . S
C2868 N2869 1.314 . S
C2868 C2870 1.353 . S
C2868 H2874 0.930 . S
N2869 Li2819 1.990 . S
N2869 C2868 1.314 . S
N2869 C2872 1.279 . S
C2870 C2868 1.353 . S
C2870 C2873 1.348 . S
C2870 H2902 0.929 . S
C2871 C2872 1.358 . S
C2871 C2873 1.356 . S
C2871 H2903 0.930 . S
C2872 N2869 1.279 . S
C2872 C2871 1.358 . S
C2872 H2875 0.930 . S
C2873 C2870 1.348 . S
C2873 C2871 1.356 . S
H2874 C2868 0.930 . S
H2875 C2872 0.930 . S
O2876 Li2816 1.956 . S
O2876 Li2817 1.970 . S
O2876 Li2818 1.961 . S
O2876 C2820 1.325 . S
O2877 Li2816 1.970 . S
O2877 Li2817 1.956 . S
O2877 Li2819 1.961 . S
O2877 C2826 1.325 . S
O2878 Li2816 1.961 . S
O2878 Li2818 1.956 . S
O2878 Li2819 1.970 . S
O2878 C2848 1.325 . S
O2879 Li2817 1.961 . S
O2879 Li2818 1.970 . S
O2879 Li2819 1.956 . S
O2879 C2854 1.325 . S
H2880 C2822 0.929 . S
H2881 C2823 0.930 . S
H2882 C2824 0.930 . S
H2883 C2825 0.930 . S
H2884 C2827 0.930 . S
H2885 C2829 0.929 . S
H2886 C2830 0.930 . S
H2887 C2831 0.930 . S
H2888 C2834 0.930 . S
H2889 C2837 0.929 . S
H2890 C2842 0.929 . S
H2891 C2843 0.930 . S
H2892 C2850 0.929 . S
H2893 C2851 0.930 . S
H2894 C2852 0.930 . S
H2895 C2853 0.930 . S
H2896 C2855 0.929 . S
H2897 C2856 0.930 . S
H2898 C2857 0.930 . S
H2899 C2858 0.930 . S
H2900 C2862 0.929 . S
H2901 C2864 0.930 . S
H2902 C2870 0.929 . S
H2903 C2871 0.930 . S
Li2904 N2921 1.990 . S
Li2904 O2964 1.956 . S
Li2904 O2965 1.970 . S
Li2904 O2966 1.961 . S
Li2905 N2929 1.990 . S
Li2905 O2964 1.970 . S
Li2905 O2965 1.956 . S
Li2905 O2967 1.961 . S
Li2906 N2951 1.990 . S
Li2906 O2964 1.961 . S
Li2906 O2966 1.956 . S
Li2906 O2967 1.970 . S
Li2907 N2957 1.990 . S
Li2907 O2965 1.961 . S
Li2907 O2966 1.970 . S
Li2907 O2967 1.956 . S
C2908 C2910 1.348 . S
C2908 C2911 1.356 . S
C2908 O2964 1.325 . S
N2909 C2912 1.314 . S
N2909 C2913 1.279 . S
C2910 C2908 1.348 . S
C2910 C2912 1.353 . S
C2910 H2968 0.929 . S
C2911 C2908 1.356 . S
C2911 C2913 1.358 . S
C2911 H2969 0.930 . S
C2912 N2909 1.314 . S
C2912 C2910 1.353 . S
C2912 H2970 0.930 . S
C2913 N2909 1.279 . S
C2913 C2911 1.358 . S
C2913 H2971 0.930 . S
C2914 C2917 1.348 . S
C2914 C2918 1.356 . S
C2914 O2965 1.325 . S
C2915 N2916 1.279 . S
C2915 C2918 1.358 . S
C2915 H2972 0.930 . S
N2916 C2915 1.279 . S
N2916 C2919 1.314 . S
C2917 C2914 1.348 . S
C2917 C2919 1.353 . S
C2917 H2973 0.929 . S
C2918 C2914 1.356 . S
C2918 C2915 1.358 . S
C2918 H2974 0.930 . S
C2919 N2916 1.314 . S
C2919 C2917 1.353 . S
C2919 H2975 0.930 . S
C2920 N2921 1.314 . S
C2920 C2925 1.353 . S
C2920 H2926 0.930 . S
N2921 Li2904 1.990 . S
N2921 C2920 1.314 . S
N2921 C2923 1.279 . S
C2922 C2923 1.358 . S
C2922 C2924 1.356 . S
C2922 H2976 0.930 . S
C2923 N2921 1.279 . S
C2923 C2922 1.358 . S
C2923 H2927 0.930 . S
C2924 C2922 1.356 . S
C2924 C2925 1.348 . S
C2925 C2920 1.353 . S
C2925 C2924 1.348 . S
C2925 H2977 0.929 . S
H2926 C2920 0.930 . S
H2927 C2923 0.930 . S
C2928 N2929 1.314 . S
C2928 C2930 1.353 . S
C2928 H2934 0.930 . S
N2929 Li2905 1.990 . S
N2929 C2928 1.314 . S
N2929 C2932 1.279 . S
C2930 C2928 1.353 . S
C2930 C2933 1.348 . S
C2930 H2978 0.929 . S
C2931 C2932 1.358 . S
C2931 C2933 1.356 . S
C2931 H2979 0.930 . S
C2932 N2929 1.279 . S
C2932 C2931 1.358 . S
C2932 H2935 0.930 . S
C2933 C2930 1.348 . S
C2933 C2931 1.356 . S
H2934 C2928 0.930 . S
H2935 C2932 0.930 . S
C2936 C2938 1.348 . S
C2936 C2939 1.356 . S
C2936 O2966 1.325 . S
N2937 C2940 1.314 . S
N2937 C2941 1.279 . S
C2938 C2936 1.348 . S
C2938 C2940 1.353 . S
C2938 H2980 0.929 . S
C2939 C2936 1.356 . S
C2939 C2941 1.358 . S
C2939 H2981 0.930 . S
C2940 N2937 1.314 . S
C2940 C2938 1.353 . S
C2940 H2982 0.930 . S
C2941 N2937 1.279 . S
C2941 C2939 1.358 . S
C2941 H2983 0.930 . S
C2942 C2943 1.348 . S
C2942 C2944 1.356 . S
C2942 O2967 1.325 . S
C2943 C2942 1.348 . S
C2943 C2945 1.353 . S
C2943 H2984 0.929 . S
C2944 C2942 1.356 . S
C2944 C2946 1.358 . S
C2944 H2985 0.930 . S
C2945 C2943 1.353 . S
C2945 N2947 1.314 . S
C2945 H2986 0.930 . S
C2946 C2944 1.358 . S
C2946 N2947 1.279 . S
C2946 H2987 0.930 . S
N2947 C2945 1.314 . S
N2947 C2946 1.279 . S
C2948 C2950 1.353 . S
C2948 N2951 1.314 . S
C2948 H2954 0.930 . S
C2949 N2951 1.279 . S
C2949 C2952 1.358 . S
C2949 H2955 0.930 . S
C2950 C2948 1.353 . S
C2950 C2953 1.348 . S
C2950 H2988 0.929 . S
N2951 Li2906 1.990 . S
N2951 C2948 1.314 . S
N2951 C2949 1.279 . S
C2952 C2949 1.358 . S
C2952 C2953 1.356 . S
C2952 H2989 0.930 . S
C2953 C2950 1.348 . S
C2953 C2952 1.356 . S
H2954 C2948 0.930 . S
H2955 C2949 0.930 . S
C2956 N2957 1.314 . S
C2956 C2958 1.353 . S
C2956 H2962 0.930 . S
N2957 Li2907 1.990 . S
N2957 C2956 1.314 . S
N2957 C2960 1.279 . S
C2958 C2956 1.353 . S
C2958 C2961 1.348 . S
C2958 H2990 0.929 . S
C2959 C2960 1.358 . S
C2959 C2961 1.356 . S
C2959 H2991 0.930 . S
C2960 N2957 1.279 . S
C2960 C2959 1.358 . S
C2960 H2963 0.930 . S
C2961 C2958 1.348 . S
C2961 C2959 1.356 . S
H2962 C2956 0.930 . S
H2963 C2960 0.930 . S
O2964 Li2904 1.956 . S
O2964 Li2905 1.970 . S
O2964 Li2906 1.961 . S
O2964 C2908 1.325 . S
O2965 Li2904 1.970 . S
O2965 Li2905 1.956 . S
O2965 Li2907 1.961 . S
O2965 C2914 1.325 . S
O2966 Li2904 1.961 . S
O2966 Li2906 1.956 . S
O2966 Li2907 1.970 . S
O2966 C2936 1.325 . S
O2967 Li2905 1.961 . S
O2967 Li2906 1.970 . S
O2967 Li2907 1.956 . S
O2967 C2942 1.325 . S
H2968 C2910 0.929 . S
H2969 C2911 0.930 . S
H2970 C2912 0.930 . S
H2971 C2913 0.930 . S
H2972 C2915 0.930 . S
H2973 C2917 0.929 . S
H2974 C2918 0.930 . S
H2975 C2919 0.930 . S
H2976 C2922 0.930 . S
H2977 C2925 0.929 . S
H2978 C2930 0.929 . S
H2979 C2931 0.930 . S
H2980 C2938 0.929 . S
H2981 C2939 0.930 . S
H2982 C2940 0.930 . S
H2983 C2941 0.930 . S
H2984 C2943 0.929 . S
H2985 C2944 0.930 . S
H2986 C2945 0.930 . S
H2987 C2946 0.930 . S
H2988 C2950 0.929 . S
H2989 C2952 0.930 . S
H2990 C2958 0.929 . S
H2991 C2959 0.930 . S
Li2992 N3009 1.990 . S
Li2992 O3052 1.956 . S
Li2992 O3053 1.970 . S
Li2992 O3054 1.961 . S
Li2993 N3017 1.990 . S
Li2993 O3052 1.970 . S
Li2993 O3053 1.956 . S
Li2993 O3055 1.961 . S
Li2994 N3039 1.990 . S
Li2994 O3052 1.961 . S
Li2994 O3054 1.956 . S
Li2994 O3055 1.970 . S
Li2995 N3045 1.990 . S
Li2995 O3053 1.961 . S
Li2995 O3054 1.970 . S
Li2995 O3055 1.956 . S
C2996 C2998 1.348 . S
C2996 C2999 1.356 . S
C2996 O3052 1.325 . S
N2997 C3000 1.314 . S
N2997 C3001 1.279 . S
C2998 C2996 1.348 . S
C2998 C3000 1.353 . S
C2998 H3056 0.929 . S
C2999 C2996 1.356 . S
C2999 C3001 1.358 . S
C2999 H3057 0.930 . S
C3000 N2997 1.314 . S
C3000 C2998 1.353 . S
C3000 H3058 0.930 . S
C3001 N2997 1.279 . S
C3001 C2999 1.358 . S
C3001 H3059 0.930 . S
C3002 C3005 1.348 . S
C3002 C3006 1.356 . S
C3002 O3053 1.325 . S
C3003 N3004 1.279 . S
C3003 C3006 1.358 . S
C3003 H3060 0.930 . S
N3004 C3003 1.279 . S
N3004 C3007 1.314 . S
C3005 C3002 1.348 . S
C3005 C3007 1.353 . S
C3005 H3061 0.929 . S
C3006 C3002 1.356 . S
C3006 C3003 1.358 . S
C3006 H3062 0.930 . S
C3007 N3004 1.314 . S
C3007 C3005 1.353 . S
C3007 H3063 0.930 . S
C3008 N3009 1.314 . S
C3008 C3013 1.353 . S
C3008 H3014 0.930 . S
N3009 Li2992 1.990 . S
N3009 C3008 1.314 . S
N3009 C3011 1.279 . S
C3010 C3011 1.358 . S
C3010 C3012 1.356 . S
C3010 H3064 0.930 . S
C3011 N3009 1.279 . S
C3011 C3010 1.358 . S
C3011 H3015 0.930 . S
C3012 C3010 1.356 . S
C3012 C3013 1.348 . S
C3013 C3008 1.353 . S
C3013 C3012 1.348 . S
C3013 H3065 0.929 . S
H3014 C3008 0.930 . S
H3015 C3011 0.930 . S
C3016 N3017 1.314 . S
C3016 C3018 1.353 . S
C3016 H3022 0.930 . S
N3017 Li2993 1.990 . S
N3017 C3016 1.314 . S
N3017 C3020 1.279 . S
C3018 C3016 1.353 . S
C3018 C3021 1.348 . S
C3018 H3066 0.929 . S
C3019 C3020 1.358 . S
C3019 C3021 1.356 . S
C3019 H3067 0.930 . S
C3020 N3017 1.279 . S
C3020 C3019 1.358 . S
C3020 H3023 0.930 . S
C3021 C3018 1.348 . S
C3021 C3019 1.356 . S
H3022 C3016 0.930 . S
H3023 C3020 0.930 . S
C3024 C3026 1.348 . S
C3024 C3027 1.356 . S
C3024 O3054 1.325 . S
N3025 C3028 1.314 . S
N3025 C3029 1.279 . S
C3026 C3024 1.348 . S
C3026 C3028 1.353 . S
C3026 H3068 0.929 . S
C3027 C3024 1.356 . S
C3027 C3029 1.358 . S
C3027 H3069 0.930 . S
C3028 N3025 1.314 . S
C3028 C3026 1.353 . S
C3028 H3070 0.930 . S
C3029 N3025 1.279 . S
C3029 C3027 1.358 . S
C3029 H3071 0.930 . S
C3030 C3031 1.348 . S
C3030 C3032 1.356 . S
C3030 O3055 1.325 . S
C3031 C3030 1.348 . S
C3031 C3033 1.353 . S
C3031 H3072 0.929 . S
C3032 C3030 1.356 . S
C3032 C3034 1.358 . S
C3032 H3073 0.930 . S
C3033 C3031 1.353 . S
C3033 N3035 1.314 . S
C3033 H3074 0.930 . S
C3034 C3032 1.358 . S
C3034 N3035 1.279 . S
C3034 H3075 0.930 . S
N3035 C3033 1.314 . S
N3035 C3034 1.279 . S
C3036 C3038 1.353 . S
C3036 N3039 1.314 . S
C3036 H3042 0.930 . S
C3037 N3039 1.279 . S
C3037 C3040 1.358 . S
C3037 H3043 0.930 . S
C3038 C3036 1.353 . S
C3038 C3041 1.348 . S
C3038 H3076 0.929 . S
N3039 Li2994 1.990 . S
N3039 C3036 1.314 . S
N3039 C3037 1.279 . S
C3040 C3037 1.358 . S
C3040 C3041 1.356 . S
C3040 H3077 0.930 . S
C3041 C3038 1.348 . S
C3041 C3040 1.356 . S
H3042 C3036 0.930 . S
H3043 C3037 0.930 . S
C3044 N3045 1.314 . S
C3044 C3046 1.353 . S
C3044 H3050 0.930 . S
N3045 Li2995 1.990 . S
N3045 C3044 1.314 . S
N3045 C3048 1.279 . S
C3046 C3044 1.353 . S
C3046 C3049 1.348 . S
C3046 H3078 0.929 . S
C3047 C3048 1.358 . S
C3047 C3049 1.356 . S
C3047 H3079 0.930 . S
C3048 N3045 1.279 . S
C3048 C3047 1.358 . S
C3048 H3051 0.930 . S
C3049 C3046 1.348 . S
C3049 C3047 1.356 . S
H3050 C3044 0.930 . S
H3051 C3048 0.930 . S
O3052 Li2992 1.956 . S
O3052 Li2993 1.970 . S
O3052 Li2994 1.961 . S
O3052 C2996 1.325 . S
O3053 Li2992 1.970 . S
O3053 Li2993 1.956 . S
O3053 Li2995 1.961 . S
O3053 C3002 1.325 . S
O3054 Li2992 1.961 . S
O3054 Li2994 1.956 . S
O3054 Li2995 1.970 . S
O3054 C3024 1.325 . S
O3055 Li2993 1.961 . S
O3055 Li2994 1.970 . S
O3055 Li2995 1.956 . S
O3055 C3030 1.325 . S
H3056 C2998 0.929 . S
H3057 C2999 0.930 . S
H3058 C3000 0.930 . S
H3059 C3001 0.930 . S
H3060 C3003 0.930 . S
H3061 C3005 0.929 . S
H3062 C3006 0.930 . S
H3063 C3007 0.930 . S
H3064 C3010 0.930 . S
H3065 C3013 0.929 . S
H3066 C3018 0.929 . S
H3067 C3019 0.930 . S
H3068 C3026 0.929 . S
H3069 C3027 0.930 . S
H3070 C3028 0.930 . S
H3071 C3029 0.930 . S
H3072 C3031 0.929 . S
H3073 C3032 0.930 . S
H3074 C3033 0.930 . S
H3075 C3034 0.930 . S
H3076 C3038 0.929 . S
H3077 C3040 0.930 . S
H3078 C3046 0.929 . S
H3079 C3047 0.930 . S
Li3080 N3097 1.990 . S
Li3080 O3140 1.956 . S
Li3080 O3141 1.970 . S
Li3080 O3142 1.961 . S
Li3081 N3105 1.990 . S
Li3081 O3140 1.970 . S
Li3081 O3141 1.956 . S
Li3081 O3143 1.961 . S
Li3082 N3127 1.990 . S
Li3082 O3140 1.961 . S
Li3082 O3142 1.956 . S
Li3082 O3143 1.970 . S
Li3083 N3133 1.990 . S
Li3083 O3141 1.961 . S
Li3083 O3142 1.970 . S
Li3083 O3143 1.956 . S
C3084 C3086 1.348 . S
C3084 C3087 1.356 . S
C3084 O3140 1.325 . S
N3085 C3088 1.314 . S
N3085 C3089 1.279 . S
C3086 C3084 1.348 . S
C3086 C3088 1.353 . S
C3086 H3144 0.929 . S
C3087 C3084 1.356 . S
C3087 C3089 1.358 . S
C3087 H3145 0.930 . S
C3088 N3085 1.314 . S
C3088 C3086 1.353 . S
C3088 H3146 0.930 . S
C3089 N3085 1.279 . S
C3089 C3087 1.358 . S
C3089 H3147 0.930 . S
C3090 C3093 1.348 . S
C3090 C3094 1.356 . S
C3090 O3141 1.325 . S
C3091 N3092 1.279 . S
C3091 C3094 1.358 . S
C3091 H3148 0.930 . S
N3092 C3091 1.279 . S
N3092 C3095 1.314 . S
C3093 C3090 1.348 . S
C3093 C3095 1.353 . S
C3093 H3149 0.929 . S
C3094 C3090 1.356 . S
C3094 C3091 1.358 . S
C3094 H3150 0.930 . S
C3095 N3092 1.314 . S
C3095 C3093 1.353 . S
C3095 H3151 0.930 . S
C3096 N3097 1.314 . S
C3096 C3101 1.353 . S
C3096 H3102 0.930 . S
N3097 Li3080 1.990 . S
N3097 C3096 1.314 . S
N3097 C3099 1.279 . S
C3098 C3099 1.358 . S
C3098 C3100 1.356 . S
C3098 H3152 0.930 . S
C3099 N3097 1.279 . S
C3099 C3098 1.358 . S
C3099 H3103 0.930 . S
C3100 C3098 1.356 . S
C3100 C3101 1.348 . S
C3101 C3096 1.353 . S
C3101 C3100 1.348 . S
C3101 H3153 0.929 . S
H3102 C3096 0.930 . S
H3103 C3099 0.930 . S
C3104 N3105 1.314 . S
C3104 C3106 1.353 . S
C3104 H3110 0.930 . S
N3105 Li3081 1.990 . S
N3105 C3104 1.314 . S
N3105 C3108 1.279 . S
C3106 C3104 1.353 . S
C3106 C3109 1.348 . S
C3106 H3154 0.929 . S
C3107 C3108 1.358 . S
C3107 C3109 1.356 . S
C3107 H3155 0.930 . S
C3108 N3105 1.279 . S
C3108 C3107 1.358 . S
C3108 H3111 0.930 . S
C3109 C3106 1.348 . S
C3109 C3107 1.356 . S
H3110 C3104 0.930 . S
H3111 C3108 0.930 . S
C3112 C3114 1.348 . S
C3112 C3115 1.356 . S
C3112 O3142 1.325 . S
N3113 C3116 1.314 . S
N3113 C3117 1.279 . S
C3114 C3112 1.348 . S
C3114 C3116 1.353 . S
C3114 H3156 0.929 . S
C3115 C3112 1.356 . S
C3115 C3117 1.358 . S
C3115 H3157 0.930 . S
C3116 N3113 1.314 . S
C3116 C3114 1.353 . S
C3116 H3158 0.930 . S
C3117 N3113 1.279 . S
C3117 C3115 1.358 . S
C3117 H3159 0.930 . S
C3118 C3119 1.348 . S
C3118 C3120 1.356 . S
C3118 O3143 1.325 . S
C3119 C3118 1.348 . S
C3119 C3121 1.353 . S
C3119 H3160 0.929 . S
C3120 C3118 1.356 . S
C3120 C3122 1.358 . S
C3120 H3161 0.930 . S
C3121 C3119 1.353 . S
C3121 N3123 1.314 . S
C3121 H3162 0.930 . S
C3122 C3120 1.358 . S
C3122 N3123 1.279 . S
C3122 H3163 0.930 . S
N3123 C3121 1.314 . S
N3123 C3122 1.279 . S
C3124 C3126 1.353 . S
C3124 N3127 1.314 . S
C3124 H3130 0.930 . S
C3125 N3127 1.279 . S
C3125 C3128 1.358 . S
C3125 H3131 0.930 . S
C3126 C3124 1.353 . S
C3126 C3129 1.348 . S
C3126 H3164 0.929 . S
N3127 Li3082 1.990 . S
N3127 C3124 1.314 . S
N3127 C3125 1.279 . S
C3128 C3125 1.358 . S
C3128 C3129 1.356 . S
C3128 H3165 0.930 . S
C3129 C3126 1.348 . S
C3129 C3128 1.356 . S
H3130 C3124 0.930 . S
H3131 C3125 0.930 . S
C3132 N3133 1.314 . S
C3132 C3134 1.353 . S
C3132 H3138 0.930 . S
N3133 Li3083 1.990 . S
N3133 C3132 1.314 . S
N3133 C3136 1.279 . S
C3134 C3132 1.353 . S
C3134 C3137 1.348 . S
C3134 H3166 0.929 . S
C3135 C3136 1.358 . S
C3135 C3137 1.356 . S
C3135 H3167 0.930 . S
C3136 N3133 1.279 . S
C3136 C3135 1.358 . S
C3136 H3139 0.930 . S
C3137 C3134 1.348 . S
C3137 C3135 1.356 . S
H3138 C3132 0.930 . S
H3139 C3136 0.930 . S
O3140 Li3080 1.956 . S
O3140 Li3081 1.970 . S
O3140 Li3082 1.961 . S
O3140 C3084 1.325 . S
O3141 Li3080 1.970 . S
O3141 Li3081 1.956 . S
O3141 Li3083 1.961 . S
O3141 C3090 1.325 . S
O3142 Li3080 1.961 . S
O3142 Li3082 1.956 . S
O3142 Li3083 1.970 . S
O3142 C3112 1.325 . S
O3143 Li3081 1.961 . S
O3143 Li3082 1.970 . S
O3143 Li3083 1.956 . S
O3143 C3118 1.325 . S
H3144 C3086 0.929 . S
H3145 C3087 0.930 . S
H3146 C3088 0.930 . S
H3147 C3089 0.930 . S
H3148 C3091 0.930 . S
H3149 C3093 0.929 . S
H3150 C3094 0.930 . S
H3151 C3095 0.930 . S
H3152 C3098 0.930 . S
H3153 C3101 0.929 . S
H3154 C3106 0.929 . S
H3155 C3107 0.930 . S
H3156 C3114 0.929 . S
H3157 C3115 0.930 . S
H3158 C3116 0.930 . S
H3159 C3117 0.930 . S
H3160 C3119 0.929 . S
H3161 C3120 0.930 . S
H3162 C3121 0.930 . S
H3163 C3122 0.930 . S
H3164 C3126 0.929 . S
H3165 C3128 0.930 . S
H3166 C3134 0.929 . S
H3167 C3135 0.930 . S
H3168 C3176 0.950 . S
H3169 C3181 0.950 . S
H3170 C3178 0.950 1_565 S
H3171 C3180 0.950 . S
H3172 C3182 0.950 . S
H3173 C3184 0.950 . S
H3174 C3186 0.950 . S
H3175 C3187 0.954 . S
C3176 H3168 0.950 . S
C3176 C3177 1.386 . S
C3176 C3178 1.391 . S
C3177 C3176 1.386 . S
C3177 C3181 1.393 . S
C3178 H3170 0.950 1_545 S
C3178 C3176 1.391 . S
C3178 C3179 1.400 . S
C3179 C3178 1.400 . S
C3179 C3180 1.398 . S
C3179 C3185 1.491 1_545 S
C3180 H3171 0.950 . S
C3180 C3179 1.398 . S
C3180 C3181 1.391 . S
C3181 H3169 0.950 . S
C3181 C3177 1.393 . S
C3181 C3180 1.391 . S
C3182 H3172 0.950 . S
C3182 C3183 1.386 . S
C3182 C3184 1.391 1_565 S
C3183 C3182 1.386 . S
C3183 C3187 1.370 1_556 S
C3184 H3173 0.950 . S
C3184 C3182 1.391 1_545 S
C3184 C3185 1.400 1_546 S
C3185 C3179 1.491 1_565 S
C3185 C3184 1.400 1_564 S
C3185 C3186 1.398 . S
C3186 H3174 0.950 . S
C3186 C3185 1.398 . S
C3186 C3187 1.409 . S
C3187 H3175 0.954 . S
C3187 C3183 1.370 1_554 S
C3187 C3186 1.409 . S
H3188 C3196 0.950 . S
H3189 C3201 0.950 . S
H3190 C3198 0.950 1_455 S
H3191 C3200 0.950 . S
H3192 C3202 0.950 . S
H3193 C3204 0.946 . S
H3194 C3206 0.950 . S
H3195 C3207 0.950 . S
C3196 H3188 0.950 . S
C3196 C3197 1.386 . S
C3196 C3198 1.391 . S
C3197 C3196 1.386 . S
C3197 C3201 1.393 . S
C3198 H3190 0.950 1_655 S
C3198 C3196 1.391 . S
C3198 C3199 1.400 . S
C3199 C3198 1.400 . S
C3199 C3200 1.398 . S
C3199 C3205 1.491 1_655 S
C3200 H3191 0.950 . S
C3200 C3199 1.398 . S
C3200 C3201 1.391 . S
C3201 H3189 0.950 . S
C3201 C3197 1.393 . S
C3201 C3200 1.391 . S
C3202 H3192 0.950 . S
C3202 C3203 1.386 . S
C3202 C3204 1.393 1_455 S
C3203 C3202 1.386 . S
C3203 C3207 1.393 . S
C3204 H3193 0.946 . S
C3204 C3202 1.393 1_655 S
C3204 C3205 1.402 1_656 S
C3205 C3199 1.491 1_455 S
C3205 C3204 1.402 1_454 S
C3205 C3206 1.398 . S
C3206 H3194 0.950 . S
C3206 C3205 1.398 . S
C3206 C3207 1.391 1_554 S
C3207 H3195 0.950 . S
C3207 C3203 1.393 . S
C3207 C3206 1.391 1_556 S
H3208 C3216 0.950 . S
H3209 C3221 0.950 . S
H3210 C3218 0.950 . S
H3211 C3220 0.950 . S
H3212 C3222 0.950 . S
H3213 C3224 0.950 . S
H3214 C3226 0.950 . S
H3215 C3227 0.950 . S
C3216 H3208 0.950 . S
C3216 C3217 1.386 . S
C3216 C3218 1.391 1_556 S
C3217 C3216 1.386 . S
C3217 C3221 1.393 . S
C3218 H3210 0.950 . S
C3218 C3216 1.391 1_554 S
C3218 C3219 1.400 . S
C3219 C3218 1.400 . S
C3219 C3220 1.398 1_554 S
C3219 C3225 1.491 . S
C3220 H3211 0.950 . S
C3220 C3219 1.398 1_556 S
C3220 C3221 1.391 . S
C3221 H3209 0.950 . S
C3221 C3217 1.393 . S
C3221 C3220 1.391 . S
C3222 H3212 0.950 . S
C3222 C3223 1.386 . S
C3222 C3224 1.391 . S
C3223 C3222 1.386 . S
C3223 C3227 1.393 . S
C3224 H3213 0.950 . S
C3224 C3222 1.391 . S
C3224 C3225 1.400 . S
C3225 C3219 1.491 . S
C3225 C3224 1.400 . S
C3225 C3226 1.398 . S
C3226 H3214 0.950 . S
C3226 C3225 1.398 . S
C3226 C3227 1.391 . S
C3227 H3215 0.950 . S
C3227 C3223 1.393 . S
C3227 C3226 1.391 . S
H3228 C3236 0.950 . S
H3229 C3241 0.950 . S
H3230 C3238 0.950 . S
H3231 C3240 0.950 . S
H3232 C3242 0.950 . S
H3233 C3244 0.950 . S
H3234 C3246 0.950 . S
H3235 C3247 0.950 . S
C3236 H3228 0.950 . S
C3236 C3237 1.386 . S
C3236 C3238 1.391 . S
C3237 C3236 1.386 . S
C3237 C3241 1.393 . S
C3238 H3230 0.950 . S
C3238 C3236 1.391 . S
C3238 C3239 1.400 . S
C3239 C3238 1.400 . S
C3239 C3240 1.398 . S
C3239 C3245 1.491 1_655 S
C3240 H3231 0.950 . S
C3240 C3239 1.398 . S
C3240 C3241 1.391 . S
C3241 H3229 0.950 . S
C3241 C3237 1.393 . S
C3241 C3240 1.391 . S
C3242 H3232 0.950 . S
C3242 C3243 1.386 . S
C3242 C3244 1.391 . S
C3243 C3242 1.386 . S
C3243 C3247 1.393 . S
C3244 H3233 0.950 . S
C3244 C3242 1.391 . S
C3244 C3245 1.400 . S
C3245 C3239 1.491 1_455 S
C3245 C3244 1.400 . S
C3245 C3246 1.398 . S
C3246 H3234 0.950 . S
C3246 C3245 1.398 . S
C3246 C3247 1.391 . S
C3247 H3235 0.950 . S
C3247 C3243 1.393 . S
C3247 C3246 1.391 . S
H3248 C3256 0.950 . S
H3249 C3261 0.950 . S
H3250 C3258 0.950 . S
H3251 C3260 0.950 . S
H3252 C3262 0.950 . S
H3253 C3264 0.950 . S
H3254 C3266 0.950 . S
H3255 C3267 0.950 . S
C3256 H3248 0.950 . S
C3256 C3257 1.386 . S
C3256 C3258 1.391 . S
C3257 C3256 1.386 . S
C3257 C3261 1.393 . S
C3258 H3250 0.950 . S
C3258 C3256 1.391 . S
C3258 C3259 1.400 . S
C3259 C3258 1.400 . S
C3259 C3260 1.398 . S
C3259 C3265 1.491 . S
C3260 H3251 0.950 . S
C3260 C3259 1.398 . S
C3260 C3261 1.391 . S
C3261 H3249 0.950 . S
C3261 C3257 1.393 . S
C3261 C3260 1.391 . S
C3262 H3252 0.950 . S
C3262 C3263 1.386 . S
C3262 C3264 1.391 . S
C3263 C3262 1.386 . S
C3263 C3267 1.393 . S
C3264 H3253 0.950 . S
C3264 C3262 1.391 . S
C3264 C3265 1.400 . S
C3265 C3259 1.491 . S
C3265 C3264 1.400 . S
C3265 C3266 1.398 . S
C3266 H3254 0.950 . S
C3266 C3265 1.398 . S
C3266 C3267 1.391 . S
C3267 H3255 0.950 . S
C3267 C3263 1.393 . S
C3267 C3266 1.391 . S
H3268 C3276 0.950 . S
H3269 C3281 0.950 . S
H3270 C3278 0.950 . S
H3271 C3280 0.950 . S
H3272 C3282 0.950 . S
H3273 C3284 0.950 . S
H3274 C3286 0.950 . S
H3275 C3287 0.950 . S
C3276 H3268 0.950 . S
C3276 C3277 1.386 . S
C3276 C3278 1.391 . S
C3277 C3276 1.386 . S
C3277 C3281 1.393 . S
C3278 H3270 0.950 . S
C3278 C3276 1.391 . S
C3278 C3279 1.400 . S
C3279 C3278 1.400 . S
C3279 C3280 1.398 . S
C3279 C3285 1.491 1_565 S
C3280 H3271 0.950 . S
C3280 C3279 1.398 . S
C3280 C3281 1.391 . S
C3281 H3269 0.950 . S
C3281 C3277 1.393 . S
C3281 C3280 1.391 . S
C3282 H3272 0.950 . S
C3282 C3283 1.386 . S
C3282 C3284 1.391 . S
C3283 C3282 1.386 . S
C3283 C3287 1.393 . S
C3284 H3273 0.950 . S
C3284 C3282 1.391 . S
C3284 C3285 1.400 . S
C3285 C3279 1.491 1_545 S
C3285 C3284 1.400 . S
C3285 C3286 1.398 . S
C3286 H3274 0.950 . S
C3286 C3285 1.398 . S
C3286 C3287 1.391 . S
C3287 H3275 0.950 . S
C3287 C3283 1.393 . S
C3287 C3286 1.391 . S
H3288 C3296 0.953 . S
H3289 C3301 0.950 . S
H3290 C3298 0.950 . S
H3291 C3300 0.950 . S
H3292 C3302 0.950 . S
H3293 C3304 0.950 . S
H3294 C3306 0.950 . S
H3295 C3307 0.950 . S
C3296 H3288 0.953 . S
C3296 C3297 1.386 . S
C3296 C3298 1.391 1_554 S
C3297 C3296 1.386 . S
C3297 C3301 1.393 . S
C3298 H3290 0.950 . S
C3298 C3296 1.391 1_556 S
C3298 C3299 1.400 . S
C3299 C3298 1.400 . S
C3299 C3300 1.398 1_556 S
C3299 C3305 1.491 1_545 S
C3300 H3291 0.950 . S
C3300 C3299 1.398 1_554 S
C3300 C3301 1.391 . S
C3301 H3289 0.950 . S
C3301 C3297 1.393 . S
C3301 C3300 1.391 . S
C3302 H3292 0.950 . S
C3302 C3303 1.386 . S
C3302 C3304 1.391 . S
C3303 C3302 1.386 . S
C3303 C3307 1.393 . S
C3304 H3293 0.950 . S
C3304 C3302 1.391 . S
C3304 C3305 1.400 . S
C3305 C3299 1.491 1_565 S
C3305 C3304 1.400 . S
C3305 C3306 1.398 . S
C3306 H3294 0.950 . S
C3306 C3305 1.398 . S
C3306 C3307 1.391 . S
C3307 H3295 0.950 . S
C3307 C3303 1.393 . S
C3307 C3306 1.391 . S
H3308 C3316 0.950 . S
H3309 C3321 0.950 . S
H3310 C3318 0.950 1_455 S
H3311 C3320 0.950 . S
H3312 C3322 0.950 . S
H3313 C3324 0.950 . S
H3314 C3326 0.950 . S
H3315 C3327 0.950 . S
C3316 H3308 0.950 . S
C3316 C3317 1.386 . S
C3316 C3318 1.391 . S
C3317 C3316 1.386 . S
C3317 C3321 1.393 . S
C3318 H3310 0.950 1_655 S
C3318 C3316 1.391 . S
C3318 C3319 1.400 1_554 S
C3319 C3318 1.400 1_556 S
C3319 C3320 1.398 . S
C3319 C3325 1.491 1_655 S
C3320 H3311 0.950 . S
C3320 C3319 1.398 . S
C3320 C3321 1.391 1_556 S
C3321 H3309 0.950 . S
C3321 C3317 1.393 . S
C3321 C3320 1.391 1_554 S
C3322 H3312 0.950 . S
C3322 C3323 1.386 . S
C3322 C3324 1.391 . S
C3323 C3322 1.386 . S
C3323 C3327 1.393 . S
C3324 H3313 0.950 . S
C3324 C3322 1.391 . S
C3324 C3325 1.400 . S
C3325 C3319 1.491 1_455 S
C3325 C3324 1.400 . S
C3325 C3326 1.398 . S
C3326 H3314 0.950 . S
C3326 C3325 1.398 . S
C3326 C3327 1.391 . S
C3327 H3315 0.950 . S
C3327 C3323 1.393 . S
C3327 C3326 1.391 . S
H3328 C3336 0.950 . S
H3329 C3341 0.950 . S
H3330 C3338 0.950 . S
H3331 C3340 0.950 . S
H3332 C3342 0.950 . S
H3333 C3344 0.950 . S
H3334 C3346 0.950 . S
H3335 C3347 0.950 . S
C3336 H3328 0.950 . S
C3336 C3337 1.386 . S
C3336 C3338 1.391 . S
C3337 C3336 1.386 . S
C3337 C3341 1.393 . S
C3338 H3330 0.950 . S
C3338 C3336 1.391 . S
C3338 C3339 1.400 . S
C3339 C3338 1.400 . S
C3339 C3340 1.398 . S
C3339 C3345 1.491 . S
C3340 H3331 0.950 . S
C3340 C3339 1.398 . S
C3340 C3341 1.391 . S
C3341 H3329 0.950 . S
C3341 C3337 1.393 . S
C3341 C3340 1.391 . S
C3342 H3332 0.950 . S
C3342 C3343 1.386 . S
C3342 C3344 1.391 . S
C3343 C3342 1.386 . S
C3343 C3347 1.393 1_554 S
C3344 H3333 0.950 . S
C3344 C3342 1.391 . S
C3344 C3345 1.400 1_554 S
C3345 C3339 1.491 . S
C3345 C3344 1.400 1_556 S
C3345 C3346 1.398 . S
C3346 H3334 0.950 . S
C3346 C3345 1.398 . S
C3346 C3347 1.391 . S
C3347 H3335 0.950 . S
C3347 C3343 1.393 1_556 S
C3347 C3346 1.391 . S
H3348 C3356 0.950 . S
H3349 C3361 0.950 . S
H3350 C3358 0.950 . S
H3351 C3360 0.950 . S
H3352 C3362 0.950 . S
H3353 C3364 0.950 . S
H3354 C3366 0.950 . S
H3355 C3367 0.950 . S
C3356 H3348 0.950 . S
C3356 C3357 1.386 . S
C3356 C3358 1.391 . S
C3357 C3356 1.386 . S
C3357 C3361 1.393 . S
C3358 H3350 0.950 . S
C3358 C3356 1.391 . S
C3358 C3359 1.400 . S
C3359 C3358 1.400 . S
C3359 C3360 1.398 . S
C3359 C3365 1.491 1_655 S
C3360 H3351 0.950 . S
C3360 C3359 1.398 . S
C3360 C3361 1.391 . S
C3361 H3349 0.950 . S
C3361 C3357 1.393 . S
C3361 C3360 1.391 . S
C3362 H3352 0.950 . S
C3362 C3363 1.386 . S
C3362 C3364 1.391 . S
C3363 C3362 1.386 . S
C3363 C3367 1.393 . S
C3364 H3353 0.950 . S
C3364 C3362 1.391 . S
C3364 C3365 1.400 . S
C3365 C3359 1.491 1_455 S
C3365 C3364 1.400 . S
C3365 C3366 1.398 . S
C3366 H3354 0.950 . S
C3366 C3365 1.398 . S
C3366 C3367 1.391 . S
C3367 H3355 0.950 . S
C3367 C3363 1.393 . S
C3367 C3366 1.391 . S
H3368 C3376 0.950 . S
H3369 C3381 0.950 . S
H3370 C3378 0.950 . S
H3371 C3380 0.950 . S
H3372 C3382 0.950 . S
H3373 C3384 0.950 . S
H3374 C3386 0.950 . S
H3375 C3387 0.950 . S
C3376 H3368 0.950 . S
C3376 C3377 1.386 . S
C3376 C3378 1.391 . S
C3377 C3376 1.386 . S
C3377 C3381 1.393 . S
C3378 H3370 0.950 . S
C3378 C3376 1.391 . S
C3378 C3379 1.400 . S
C3379 C3378 1.400 . S
C3379 C3380 1.398 . S
C3379 C3385 1.491 . S
C3380 H3371 0.950 . S
C3380 C3379 1.398 . S
C3380 C3381 1.391 . S
C3381 H3369 0.950 . S
C3381 C3377 1.393 . S
C3381 C3380 1.391 . S
C3382 H3372 0.950 . S
C3382 C3383 1.386 . S
C3382 C3384 1.391 . S
C3383 C3382 1.386 . S
C3383 C3387 1.393 . S
C3384 H3373 0.950 . S
C3384 C3382 1.391 . S
C3384 C3385 1.400 . S
C3385 C3379 1.491 . S
C3385 C3384 1.400 . S
C3385 C3386 1.398 . S
C3386 H3374 0.950 . S
C3386 C3385 1.398 . S
C3386 C3387 1.391 . S
C3387 H3375 0.950 . S
C3387 C3383 1.393 . S
C3387 C3386 1.391 . S
H3388 C3396 0.950 . S
H3389 C3401 0.950 . S
H3390 C3398 0.950 . S
H3391 C3400 0.950 . S
H3392 C3402 0.950 . S
H3393 C3404 0.950 . S
H3394 C3406 0.950 1_545 S
H3395 C3407 0.950 . S
C3396 H3388 0.950 . S
C3396 C3397 1.386 . S
C3396 C3398 1.391 . S
C3397 C3396 1.386 . S
C3397 C3401 1.393 . S
C3398 H3390 0.950 . S
C3398 C3396 1.391 . S
C3398 C3399 1.400 . S
C3399 C3398 1.400 . S
C3399 C3400 1.398 . S
C3399 C3405 1.491 1_545 S
C3400 H3391 0.950 . S
C3400 C3399 1.398 . S
C3400 C3401 1.391 . S
C3401 H3389 0.950 . S
C3401 C3397 1.393 . S
C3401 C3400 1.391 . S
C3402 H3392 0.950 . S
C3402 C3403 1.386 . S
C3402 C3404 1.391 . S
C3403 C3402 1.386 . S
C3403 C3407 1.393 . S
C3404 H3393 0.950 . S
C3404 C3402 1.391 . S
C3404 C3405 1.400 . S
C3405 C3399 1.491 1_565 S
C3405 C3404 1.400 . S
C3405 C3406 1.398 . S
C3406 H3394 0.950 1_565 S
C3406 C3405 1.398 . S
C3406 C3407 1.391 . S
C3407 H3395 0.950 . S
C3407 C3403 1.393 . S
C3407 C3406 1.391 . S
H3408 C3416 0.950 . S
H3409 C3421 0.950 . S
H3410 C3418 0.950 . S
H3411 C3420 0.950 . S
H3412 C3422 0.950 . S
H3413 C3424 0.950 . S
H3414 C3426 0.950 . S
H3415 C3427 0.950 . S
C3416 H3408 0.950 . S
C3416 C3417 1.386 . S
C3416 C3418 1.391 . S
C3417 C3416 1.386 . S
C3417 C3421 1.393 . S
C3418 H3410 0.950 . S
C3418 C3416 1.391 . S
C3418 C3419 1.400 . S
C3419 C3418 1.400 . S
C3419 C3420 1.398 . S
C3419 C3425 1.491 . S
C3420 H3411 0.950 . S
C3420 C3419 1.398 . S
C3420 C3421 1.391 . S
C3421 H3409 0.950 . S
C3421 C3417 1.393 . S
C3421 C3420 1.391 . S
C3422 H3412 0.950 . S
C3422 C3423 1.386 . S
C3422 C3424 1.391 . S
C3423 C3422 1.386 . S
C3423 C3427 1.393 . S
C3424 H3413 0.950 . S
C3424 C3422 1.391 . S
C3424 C3425 1.400 . S
C3425 C3419 1.491 . S
C3425 C3424 1.400 . S
C3425 C3426 1.398 . S
C3426 H3414 0.950 . S
C3426 C3425 1.398 . S
C3426 C3427 1.391 . S
C3427 H3415 0.950 . S
C3427 C3423 1.393 . S
C3427 C3426 1.391 . S
H3428 C3436 0.950 . S
H3429 C3441 0.950 . S
H3430 C3438 0.950 . S
H3431 C3440 0.950 . S
H3432 C3442 0.950 . S
H3433 C3444 0.950 . S
H3434 C3446 0.950 . S
H3435 C3447 0.950 . S
C3436 H3428 0.950 . S
C3436 C3437 1.386 . S
C3436 C3438 1.391 . S
C3437 C3436 1.386 . S
C3437 C3441 1.393 . S
C3438 H3430 0.950 . S
C3438 C3436 1.391 . S
C3438 C3439 1.400 . S
C3439 C3438 1.400 . S
C3439 C3440 1.398 . S
C3439 C3445 1.491 . S
C3440 H3431 0.950 . S
C3440 C3439 1.398 . S
C3440 C3441 1.391 . S
C3441 H3429 0.950 . S
C3441 C3437 1.393 . S
C3441 C3440 1.391 . S
C3442 H3432 0.950 . S
C3442 C3443 1.386 . S
C3442 C3444 1.391 . S
C3443 C3442 1.386 . S
C3443 C3447 1.393 . S
C3444 H3433 0.950 . S
C3444 C3442 1.391 . S
C3444 C3445 1.400 . S
C3445 C3439 1.491 . S
C3445 C3444 1.400 . S
C3445 C3446 1.398 . S
C3446 H3434 0.950 . S
C3446 C3445 1.398 . S
C3446 C3447 1.391 . S
C3447 H3435 0.950 . S
C3447 C3443 1.393 . S
C3447 C3446 1.391 . S
H3448 C3456 0.950 . S
H3449 C3461 0.950 . S
H3450 C3458 0.950 . S
H3451 C3460 0.950 . S
H3452 C3462 0.950 . S
H3453 C3464 0.950 . S
H3454 C3466 0.950 . S
H3455 C3467 0.950 . S
C3456 H3448 0.950 . S
C3456 C3457 1.386 . S
C3456 C3458 1.391 . S
C3457 C3456 1.386 . S
C3457 C3461 1.393 . S
C3458 H3450 0.950 . S
C3458 C3456 1.391 . S
C3458 C3459 1.400 . S
C3459 C3458 1.400 . S
C3459 C3460 1.398 . S
C3459 C3465 1.491 . S
C3460 H3451 0.950 . S
C3460 C3459 1.398 . S
C3460 C3461 1.391 . S
C3461 H3449 0.950 . S
C3461 C3457 1.393 . S
C3461 C3460 1.391 . S
C3462 H3452 0.950 . S
C3462 C3463 1.386 . S
C3462 C3464 1.391 . S
C3463 C3462 1.386 . S
C3463 C3467 1.393 . S
C3464 H3453 0.950 . S
C3464 C3462 1.391 . S
C3464 C3465 1.400 . S
C3465 C3459 1.491 . S
C3465 C3464 1.400 . S
C3465 C3466 1.398 . S
C3466 H3454 0.950 . S
C3466 C3465 1.398 . S
C3466 C3467 1.391 . S
C3467 H3455 0.950 . S
C3467 C3463 1.393 . S
C3467 C3466 1.391 . S
H3468 C3476 0.950 . S
H3469 C3481 0.950 . S
H3470 C3478 0.950 . S
H3471 C3480 0.950 . S
H3472 C3482 0.950 . S
H3473 C3484 0.950 . S
H3474 C3486 0.950 . S
H3475 C3487 0.950 . S
C3476 H3468 0.950 . S
C3476 C3477 1.386 . S
C3476 C3478 1.391 . S
C3477 C3476 1.386 . S
C3477 C3481 1.393 . S
C3478 H3470 0.950 . S
C3478 C3476 1.391 . S
C3478 C3479 1.400 . S
C3479 C3478 1.400 . S
C3479 C3480 1.398 . S
C3479 C3485 1.491 . S
C3480 H3471 0.950 . S
C3480 C3479 1.398 . S
C3480 C3481 1.391 . S
C3481 H3469 0.950 . S
C3481 C3477 1.393 . S
C3481 C3480 1.391 . S
C3482 H3472 0.950 . S
C3482 C3483 1.386 . S
C3482 C3484 1.391 . S
C3483 C3482 1.386 . S
C3483 C3487 1.393 . S
C3484 H3473 0.950 . S
C3484 C3482 1.391 . S
C3484 C3485 1.400 . S
C3485 C3479 1.491 . S
C3485 C3484 1.400 . S
C3485 C3486 1.398 . S
C3486 H3474 0.950 . S
C3486 C3485 1.398 . S
C3486 C3487 1.391 . S
C3487 H3475 0.950 . S
C3487 C3483 1.393 . S
C3487 C3486 1.391 . S
H3488 C3496 0.950 . S
H3489 C3501 0.950 . S
H3490 C3498 0.950 . S
H3491 C3500 0.950 . S
H3492 C3502 0.950 . S
H3493 C3504 0.950 . S
H3494 C3506 0.950 . S
H3495 C3507 0.950 . S
C3496 H3488 0.950 . S
C3496 C3497 1.386 . S
C3496 C3498 1.391 . S
C3497 C3496 1.386 . S
C3497 C3501 1.393 . S
C3498 H3490 0.950 . S
C3498 C3496 1.391 . S
C3498 C3499 1.400 . S
C3499 C3498 1.400 . S
C3499 C3500 1.398 . S
C3499 C3505 1.491 . S
C3500 H3491 0.950 . S
C3500 C3499 1.398 . S
C3500 C3501 1.391 . S
C3501 H3489 0.950 . S
C3501 C3497 1.393 . S
C3501 C3500 1.391 . S
C3502 H3492 0.950 . S
C3502 C3503 1.386 . S
C3502 C3504 1.391 . S
C3503 C3502 1.386 . S
C3503 C3507 1.393 . S
C3504 H3493 0.950 . S
C3504 C3502 1.391 . S
C3504 C3505 1.400 . S
C3505 C3499 1.491 . S
C3505 C3504 1.400 . S
C3505 C3506 1.398 . S
C3506 H3494 0.950 . S
C3506 C3505 1.398 . S
C3506 C3507 1.391 . S
C3507 H3495 0.950 . S
C3507 C3503 1.393 . S
C3507 C3506 1.391 . S
H3508 C3516 0.950 . S
H3509 C3521 0.950 . S
H3510 C3518 0.950 . S
H3511 C3520 0.950 . S
H3512 C3522 0.950 . S
H3513 C3524 0.950 . S
H3514 C3526 0.950 . S
H3515 C3527 0.950 . S
C3516 H3508 0.950 . S
C3516 C3517 1.386 . S
C3516 C3518 1.391 . S
C3517 C3516 1.386 . S
C3517 C3521 1.393 . S
C3518 H3510 0.950 . S
C3518 C3516 1.391 . S
C3518 C3519 1.400 . S
C3519 C3518 1.400 . S
C3519 C3520 1.398 . S
C3519 C3525 1.491 . S
C3520 H3511 0.950 . S
C3520 C3519 1.398 . S
C3520 C3521 1.391 . S
C3521 H3509 0.950 . S
C3521 C3517 1.393 . S
C3521 C3520 1.391 . S
C3522 H3512 0.950 . S
C3522 C3523 1.386 . S
C3522 C3524 1.391 . S
C3523 C3522 1.386 . S
C3523 C3527 1.393 . S
C3524 H3513 0.950 . S
C3524 C3522 1.391 . S
C3524 C3525 1.400 . S
C3525 C3519 1.491 . S
C3525 C3524 1.400 . S
C3525 C3526 1.398 . S
C3526 H3514 0.950 . S
C3526 C3525 1.398 . S
C3526 C3527 1.391 . S
C3527 H3515 0.950 . S
C3527 C3523 1.393 . S
C3527 C3526 1.391 . S
H3528 C3536 0.950 . S
H3529 C3541 0.950 . S
H3530 C3538 0.950 . S
H3531 C3540 0.950 . S
H3532 C3542 0.950 . S
H3533 C3544 0.950 . S
H3534 C3546 0.950 . S
H3535 C3547 0.950 . S
C3536 H3528 0.950 . S
C3536 C3537 1.386 . S
C3536 C3538 1.391 . S
C3537 C3536 1.386 . S
C3537 C3541 1.393 . S
C3538 H3530 0.950 . S
C3538 C3536 1.391 . S
C3538 C3539 1.400 . S
C3539 C3538 1.400 . S
C3539 C3540 1.398 . S
C3539 C3545 1.491 . S
C3540 H3531 0.950 . S
C3540 C3539 1.398 . S
C3540 C3541 1.391 . S
C3541 H3529 0.950 . S
C3541 C3537 1.393 . S
C3541 C3540 1.391 . S
C3542 H3532 0.950 . S
C3542 C3543 1.386 . S
C3542 C3544 1.391 . S
C3543 C3542 1.386 . S
C3543 C3547 1.393 . S
C3544 H3533 0.950 . S
C3544 C3542 1.391 . S
C3544 C3545 1.400 . S
C3545 C3539 1.491 . S
C3545 C3544 1.400 . S
C3545 C3546 1.398 . S
C3546 H3534 0.950 . S
C3546 C3545 1.398 . S
C3546 C3547 1.391 . S
C3547 H3535 0.950 . S
C3547 C3543 1.393 . S
C3547 C3546 1.391 . S
H3548 C3556 0.950 . S
H3549 C3561 0.950 . S
H3550 C3558 0.950 . S
H3551 C3560 0.950 . S
H3552 C3562 0.950 . S
H3553 C3564 0.950 . S
H3554 C3566 0.950 . S
H3555 C3567 0.950 . S
C3556 H3548 0.950 . S
C3556 C3557 1.386 . S
C3556 C3558 1.391 . S
C3557 C3556 1.386 . S
C3557 C3561 1.393 . S
C3558 H3550 0.950 . S
C3558 C3556 1.391 . S
C3558 C3559 1.400 . S
C3559 C3558 1.400 . S
C3559 C3560 1.398 . S
C3559 C3565 1.491 . S
C3560 H3551 0.950 . S
C3560 C3559 1.398 . S
C3560 C3561 1.391 . S
C3561 H3549 0.950 . S
C3561 C3557 1.393 . S
C3561 C3560 1.391 . S
C3562 H3552 0.950 . S
C3562 C3563 1.386 . S
C3562 C3564 1.391 . S
C3563 C3562 1.386 . S
C3563 C3567 1.393 . S
C3564 H3553 0.950 . S
C3564 C3562 1.391 . S
C3564 C3565 1.400 . S
C3565 C3559 1.491 . S
C3565 C3564 1.400 . S
C3565 C3566 1.398 . S
C3566 H3554 0.950 . S
C3566 C3565 1.398 . S
C3566 C3567 1.391 . S
C3567 H3555 0.950 . S
C3567 C3563 1.393 . S
C3567 C3566 1.391 . S
H3568 C3576 0.950 . S
H3569 C3581 0.950 . S
H3570 C3578 0.950 . S
H3571 C3580 0.950 . S
H3572 C3582 0.950 . S
H3573 C3584 0.950 . S
H3574 C3586 0.950 . S
H3575 C3587 0.950 . S
C3576 H3568 0.950 . S
C3576 C3577 1.386 . S
C3576 C3578 1.391 . S
C3577 C3576 1.386 . S
C3577 C3581 1.393 . S
C3578 H3570 0.950 . S
C3578 C3576 1.391 . S
C3578 C3579 1.400 . S
C3579 C3578 1.400 . S
C3579 C3580 1.398 . S
C3579 C3585 1.491 . S
C3580 H3571 0.950 . S
C3580 C3579 1.398 . S
C3580 C3581 1.391 . S
C3581 H3569 0.950 . S
C3581 C3577 1.393 . S
C3581 C3580 1.391 . S
C3582 H3572 0.950 . S
C3582 C3583 1.386 . S
C3582 C3584 1.391 . S
C3583 C3582 1.386 . S
C3583 C3587 1.393 . S
C3584 H3573 0.950 . S
C3584 C3582 1.391 . S
C3584 C3585 1.400 . S
C3585 C3579 1.491 . S
C3585 C3584 1.400 . S
C3585 C3586 1.398 . S
C3586 H3574 0.950 . S
C3586 C3585 1.398 . S
C3586 C3587 1.391 . S
C3587 H3575 0.950 . S
C3587 C3583 1.393 . S
C3587 C3586 1.391 . S
H3588 C3596 0.950 . S
H3589 C3601 0.950 . S
H3590 C3598 0.950 . S
H3591 C3600 0.950 . S
H3592 C3602 0.950 . S
H3593 C3604 0.950 . S
H3594 C3606 0.950 . S
H3595 C3607 0.950 . S
C3596 H3588 0.950 . S
C3596 C3597 1.386 . S
C3596 C3598 1.391 . S
C3597 C3596 1.386 . S
C3597 C3601 1.393 . S
C3598 H3590 0.950 . S
C3598 C3596 1.391 . S
C3598 C3599 1.400 . S
C3599 C3598 1.400 . S
C3599 C3600 1.398 . S
C3599 C3605 1.491 . S
C3600 H3591 0.950 . S
C3600 C3599 1.398 . S
C3600 C3601 1.391 . S
C3601 H3589 0.950 . S
C3601 C3597 1.393 . S
C3601 C3600 1.391 . S
C3602 H3592 0.950 . S
C3602 C3603 1.386 . S
C3602 C3604 1.391 . S
C3603 C3602 1.386 . S
C3603 C3607 1.393 . S
C3604 H3593 0.950 . S
C3604 C3602 1.391 . S
C3604 C3605 1.400 . S
C3605 C3599 1.491 . S
C3605 C3604 1.400 . S
C3605 C3606 1.398 . S
C3606 H3594 0.950 . S
C3606 C3605 1.398 . S
C3606 C3607 1.391 . S
C3607 H3595 0.950 . S
C3607 C3603 1.393 . S
C3607 C3606 1.391 . S
H3608 C3616 0.950 . S
H3609 C3621 0.950 . S
H3610 C3618 0.950 . S
H3611 C3620 0.950 . S
H3612 C3622 0.950 . S
H3613 C3624 0.950 . S
H3614 C3626 0.950 . S
H3615 C3627 0.950 . S
C3616 H3608 0.950 . S
C3616 C3617 1.386 . S
C3616 C3618 1.391 . S
C3617 C3616 1.386 . S
C3617 C3621 1.393 . S
C3618 H3610 0.950 . S
C3618 C3616 1.391 . S
C3618 C3619 1.400 . S
C3619 C3618 1.400 . S
C3619 C3620 1.398 . S
C3619 C3625 1.491 . S
C3620 H3611 0.950 . S
C3620 C3619 1.398 . S
C3620 C3621 1.391 . S
C3621 H3609 0.950 . S
C3621 C3617 1.393 . S
C3621 C3620 1.391 . S
C3622 H3612 0.950 . S
C3622 C3623 1.386 . S
C3622 C3624 1.391 . S
C3623 C3622 1.386 . S
C3623 C3627 1.393 . S
C3624 H3613 0.950 . S
C3624 C3622 1.391 . S
C3624 C3625 1.400 . S
C3625 C3619 1.491 . S
C3625 C3624 1.400 . S
C3625 C3626 1.398 . S
C3626 H3614 0.950 . S
C3626 C3625 1.398 . S
C3626 C3627 1.391 . S
C3627 H3615 0.950 . S
C3627 C3623 1.393 . S
C3627 C3626 1.391 . S
H3628 C3636 0.950 . S
H3629 C3641 0.950 . S
H3630 C3638 0.950 . S
H3631 C3640 0.950 . S
H3632 C3642 0.950 . S
H3633 C3644 0.950 . S
H3634 C3646 0.950 . S
H3635 C3647 0.950 . S
C3636 H3628 0.950 . S
C3636 C3637 1.386 . S
C3636 C3638 1.391 . S
C3637 C3636 1.386 . S
C3637 C3641 1.393 . S
C3638 H3630 0.950 . S
C3638 C3636 1.391 . S
C3638 C3639 1.400 . S
C3639 C3638 1.400 . S
C3639 C3640 1.398 . S
C3639 C3645 1.491 . S
C3640 H3631 0.950 . S
C3640 C3639 1.398 . S
C3640 C3641 1.391 . S
C3641 H3629 0.950 . S
C3641 C3637 1.393 . S
C3641 C3640 1.391 . S
C3642 H3632 0.950 . S
C3642 C3643 1.386 . S
C3642 C3644 1.391 . S
C3643 C3642 1.386 . S
C3643 C3647 1.393 . S
C3644 H3633 0.950 . S
C3644 C3642 1.391 . S
C3644 C3645 1.400 . S
C3645 C3639 1.491 . S
C3645 C3644 1.400 . S
C3645 C3646 1.398 . S
C3646 H3634 0.950 . S
C3646 C3645 1.398 . S
C3646 C3647 1.391 . S
C3647 H3635 0.950 . S
C3647 C3643 1.393 . S
C3647 C3646 1.391 . S
H3648 C3656 0.950 . S
H3649 C3661 0.950 . S
H3650 C3658 0.950 . S
H3651 C3660 0.950 . S
H3652 C3662 0.950 . S
H3653 C3664 0.950 . S
H3654 C3666 0.950 . S
H3655 C3667 0.950 . S
C3656 H3648 0.950 . S
C3656 C3657 1.386 . S
C3656 C3658 1.391 . S
C3657 C3656 1.386 . S
C3657 C3661 1.393 . S
C3658 H3650 0.950 . S
C3658 C3656 1.391 . S
C3658 C3659 1.400 . S
C3659 C3658 1.400 . S
C3659 C3660 1.398 . S
C3659 C3665 1.491 . S
C3660 H3651 0.950 . S
C3660 C3659 1.398 . S
C3660 C3661 1.391 . S
C3661 H3649 0.950 . S
C3661 C3657 1.393 . S
C3661 C3660 1.391 . S
C3662 H3652 0.950 . S
C3662 C3663 1.386 . S
C3662 C3664 1.391 . S
C3663 C3662 1.386 . S
C3663 C3667 1.393 . S
C3664 H3653 0.950 . S
C3664 C3662 1.391 . S
C3664 C3665 1.400 . S
C3665 C3659 1.491 . S
C3665 C3664 1.400 . S
C3665 C3666 1.398 . S
C3666 H3654 0.950 . S
C3666 C3665 1.398 . S
C3666 C3667 1.391 . S
C3667 H3655 0.950 . S
C3667 C3663 1.393 . S
C3667 C3666 1.391 . S
H3668 C3676 0.950 . S
H3669 C3681 0.950 . S
H3670 C3678 0.950 . S
H3671 C3680 0.950 . S
H3672 C3682 0.950 . S
H3673 C3684 0.950 . S
H3674 C3686 0.950 . S
H3675 C3687 0.950 . S
C3676 H3668 0.950 . S
C3676 C3677 1.386 . S
C3676 C3678 1.391 . S
C3677 C3676 1.386 . S
C3677 C3681 1.393 . S
C3678 H3670 0.950 . S
C3678 C3676 1.391 . S
C3678 C3679 1.400 . S
C3679 C3678 1.400 . S
C3679 C3680 1.398 . S
C3679 C3685 1.491 . S
C3680 H3671 0.950 . S
C3680 C3679 1.398 . S
C3680 C3681 1.391 . S
C3681 H3669 0.950 . S
C3681 C3677 1.393 . S
C3681 C3680 1.391 . S
C3682 H3672 0.950 . S
C3682 C3683 1.386 . S
C3682 C3684 1.391 . S
C3683 C3682 1.386 . S
C3683 C3687 1.393 . S
C3684 H3673 0.950 . S
C3684 C3682 1.391 . S
C3684 C3685 1.400 . S
C3685 C3679 1.491 . S
C3685 C3684 1.400 . S
C3685 C3686 1.398 . S
C3686 H3674 0.950 . S
C3686 C3685 1.398 . S
C3686 C3687 1.391 . S
C3687 H3675 0.950 . S
C3687 C3683 1.393 . S
C3687 C3686 1.391 . S
H3688 C3696 0.950 . S
H3689 C3701 0.950 . S
H3690 C3698 0.950 . S
H3691 C3700 0.950 . S
H3692 C3702 0.950 . S
H3693 C3704 0.950 . S
H3694 C3706 0.950 . S
H3695 C3707 0.950 . S
C3696 H3688 0.950 . S
C3696 C3697 1.386 . S
C3696 C3698 1.391 . S
C3697 C3696 1.386 . S
C3697 C3701 1.393 . S
C3698 H3690 0.950 . S
C3698 C3696 1.391 . S
C3698 C3699 1.400 . S
C3699 C3698 1.400 . S
C3699 C3700 1.398 . S
C3699 C3705 1.491 . S
C3700 H3691 0.950 . S
C3700 C3699 1.398 . S
C3700 C3701 1.391 . S
C3701 H3689 0.950 . S
C3701 C3697 1.393 . S
C3701 C3700 1.391 . S
C3702 H3692 0.950 . S
C3702 C3703 1.386 . S
C3702 C3704 1.391 . S
C3703 C3702 1.386 . S
C3703 C3707 1.393 . S
C3704 H3693 0.950 . S
C3704 C3702 1.391 . S
C3704 C3705 1.400 . S
C3705 C3699 1.491 . S
C3705 C3704 1.400 . S
C3705 C3706 1.398 . S
C3706 H3694 0.950 . S
C3706 C3705 1.398 . S
C3706 C3707 1.391 . S
C3707 H3695 0.950 . S
C3707 C3703 1.393 . S
C3707 C3706 1.391 . S
H3708 C3716 0.950 . S
H3709 C3721 0.950 . S
H3710 C3718 0.950 . S
H3711 C3720 0.950 . S
H3712 C3722 0.950 . S
H3713 C3724 0.950 . S
H3714 C3726 0.950 . S
H3715 C3727 0.950 . S
C3716 H3708 0.950 . S
C3716 C3717 1.386 . S
C3716 C3718 1.391 . S
C3717 C3716 1.386 . S
C3717 C3721 1.393 . S
C3718 H3710 0.950 . S
C3718 C3716 1.391 . S
C3718 C3719 1.400 . S
C3719 C3718 1.400 . S
C3719 C3720 1.398 . S
C3719 C3725 1.491 . S
C3720 H3711 0.950 . S
C3720 C3719 1.398 . S
C3720 C3721 1.391 . S
C3721 H3709 0.950 . S
C3721 C3717 1.393 . S
C3721 C3720 1.391 . S
C3722 H3712 0.950 . S
C3722 C3723 1.386 . S
C3722 C3724 1.391 . S
C3723 C3722 1.386 . S
C3723 C3727 1.393 . S
C3724 H3713 0.950 . S
C3724 C3722 1.391 . S
C3724 C3725 1.400 . S
C3725 C3719 1.491 . S
C3725 C3724 1.400 . S
C3725 C3726 1.398 . S
C3726 H3714 0.950 . S
C3726 C3725 1.398 . S
C3726 C3727 1.391 . S
C3727 H3715 0.950 . S
C3727 C3723 1.393 . S
C3727 C3726 1.391 . S
H3728 C3736 0.950 . S
H3729 C3741 0.950 . S
H3730 C3738 0.950 . S
H3731 C3740 0.950 . S
H3732 C3742 0.950 . S
H3733 C3744 0.950 . S
H3734 C3746 0.950 . S
H3735 C3747 0.950 . S
C3736 H3728 0.950 . S
C3736 C3737 1.386 . S
C3736 C3738 1.391 . S
C3737 C3736 1.386 . S
C3737 C3741 1.393 . S
C3738 H3730 0.950 . S
C3738 C3736 1.391 . S
C3738 C3739 1.400 . S
C3739 C3738 1.400 . S
C3739 C3740 1.398 . S
C3739 C3745 1.491 . S
C3740 H3731 0.950 . S
C3740 C3739 1.398 . S
C3740 C3741 1.391 . S
C3741 H3729 0.950 . S
C3741 C3737 1.393 . S
C3741 C3740 1.391 . S
C3742 H3732 0.950 . S
C3742 C3743 1.386 . S
C3742 C3744 1.391 . S
C3743 C3742 1.386 . S
C3743 C3747 1.393 . S
C3744 H3733 0.950 . S
C3744 C3742 1.391 . S
C3744 C3745 1.400 . S
C3745 C3739 1.491 . S
C3745 C3744 1.400 . S
C3745 C3746 1.398 . S
C3746 H3734 0.950 . S
C3746 C3745 1.398 . S
C3746 C3747 1.391 . S
C3747 H3735 0.950 . S
C3747 C3743 1.393 . S
C3747 C3746 1.391 . S
H3748 C3756 0.950 . S
H3749 C3761 0.950 . S
H3750 C3758 0.950 . S
H3751 C3760 0.950 . S
H3752 C3762 0.950 . S
H3753 C3764 0.950 . S
H3754 C3766 0.950 . S
H3755 C3767 0.950 . S
C3756 H3748 0.950 . S
C3756 C3757 1.386 . S
C3756 C3758 1.391 . S
C3757 C3756 1.386 . S
C3757 C3761 1.393 . S
C3758 H3750 0.950 . S
C3758 C3756 1.391 . S
C3758 C3759 1.400 . S
C3759 C3758 1.400 . S
C3759 C3760 1.398 . S
C3759 C3765 1.491 . S
C3760 H3751 0.950 . S
C3760 C3759 1.398 . S
C3760 C3761 1.391 . S
C3761 H3749 0.950 . S
C3761 C3757 1.393 . S
C3761 C3760 1.391 . S
C3762 H3752 0.950 . S
C3762 C3763 1.386 . S
C3762 C3764 1.391 . S
C3763 C3762 1.386 . S
C3763 C3767 1.393 . S
C3764 H3753 0.950 . S
C3764 C3762 1.391 . S
C3764 C3765 1.400 . S
C3765 C3759 1.491 . S
C3765 C3764 1.400 . S
C3765 C3766 1.398 . S
C3766 H3754 0.950 . S
C3766 C3765 1.398 . S
C3766 C3767 1.391 . S
C3767 H3755 0.950 . S
C3767 C3763 1.393 . S
C3767 C3766 1.391 . S
H3768 C3776 0.950 . S
H3769 C3781 0.950 . S
H3770 C3778 0.950 . S
H3771 C3780 0.950 . S
H3772 C3782 0.950 . S
H3773 C3784 0.950 . S
H3774 C3786 0.950 . S
H3775 C3787 0.950 . S
C3776 H3768 0.950 . S
C3776 C3777 1.386 . S
C3776 C3778 1.391 . S
C3777 C3776 1.386 . S
C3777 C3781 1.393 . S
C3778 H3770 0.950 . S
C3778 C3776 1.391 . S
C3778 C3779 1.400 . S
C3779 C3778 1.400 . S
C3779 C3780 1.398 . S
C3779 C3785 1.491 . S
C3780 H3771 0.950 . S
C3780 C3779 1.398 . S
C3780 C3781 1.391 . S
C3781 H3769 0.950 . S
C3781 C3777 1.393 . S
C3781 C3780 1.391 . S
C3782 H3772 0.950 . S
C3782 C3783 1.386 . S
C3782 C3784 1.391 . S
C3783 C3782 1.386 . S
C3783 C3787 1.393 . S
C3784 H3773 0.950 . S
C3784 C3782 1.391 . S
C3784 C3785 1.400 . S
C3785 C3779 1.491 . S
C3785 C3784 1.400 . S
C3785 C3786 1.398 . S
C3786 H3774 0.950 . S
C3786 C3785 1.398 . S
C3786 C3787 1.391 . S
C3787 H3775 0.950 . S
C3787 C3783 1.393 . S
C3787 C3786 1.391 . S
H3788 C3796 0.950 . S
H3789 C3801 0.950 . S
H3790 C3798 0.950 . S
H3791 C3800 0.950 . S
H3792 C3802 0.950 . S
H3793 C3804 0.950 . S
H3794 C3806 0.950 . S
H3795 C3807 0.950 . S
C3796 H3788 0.950 . S
C3796 C3797 1.386 . S
C3796 C3798 1.391 . S
C3797 C3796 1.386 . S
C3797 C3801 1.393 . S
C3798 H3790 0.950 . S
C3798 C3796 1.391 . S
C3798 C3799 1.400 . S
C3799 C3798 1.400 . S
C3799 C3800 1.398 . S
C3799 C3805 1.491 . S
C3800 H3791 0.950 . S
C3800 C3799 1.398 . S
C3800 C3801 1.391 . S
C3801 H3789 0.950 . S
C3801 C3797 1.393 . S
C3801 C3800 1.391 . S
C3802 H3792 0.950 . S
C3802 C3803 1.386 . S
C3802 C3804 1.391 . S
C3803 C3802 1.386 . S
C3803 C3807 1.393 . S
C3804 H3793 0.950 . S
C3804 C3802 1.391 . S
C3804 C3805 1.400 . S
C3805 C3799 1.491 . S
C3805 C3804 1.400 . S
C3805 C3806 1.398 . S
C3806 H3794 0.950 . S
C3806 C3805 1.398 . S
C3806 C3807 1.391 . S
C3807 H3795 0.950 . S
C3807 C3803 1.393 . S
C3807 C3806 1.391 . S
H3808 C3816 0.950 . S
H3809 C3821 0.950 . S
H3810 C3818 0.950 . S
H3811 C3820 0.950 . S
H3812 C3822 0.950 . S
H3813 C3824 0.950 . S
H3814 C3826 0.950 . S
H3815 C3827 0.950 . S
C3816 H3808 0.950 . S
C3816 C3817 1.386 . S
C3816 C3818 1.391 . S
C3817 C3816 1.386 . S
C3817 C3821 1.393 . S
C3818 H3810 0.950 . S
C3818 C3816 1.391 . S
C3818 C3819 1.400 . S
C3819 C3818 1.400 . S
C3819 C3820 1.398 . S
C3819 C3825 1.491 . S
C3820 H3811 0.950 . S
C3820 C3819 1.398 . S
C3820 C3821 1.391 . S
C3821 H3809 0.950 . S
C3821 C3817 1.393 . S
C3821 C3820 1.391 . S
C3822 H3812 0.950 . S
C3822 C3823 1.386 . S
C3822 C3824 1.391 . S
C3823 C3822 1.386 . S
C3823 C3827 1.393 . S
C3824 H3813 0.950 . S
C3824 C3822 1.391 . S
C3824 C3825 1.400 . S
C3825 C3819 1.491 . S
C3825 C3824 1.400 . S
C3825 C3826 1.398 . S
C3826 H3814 0.950 . S
C3826 C3825 1.398 . S
C3826 C3827 1.391 . S
C3827 H3815 0.950 . S
C3827 C3823 1.393 . S
C3827 C3826 1.391 . S
H3828 C3836 0.950 . S
H3829 C3841 0.950 . S
H3830 C3838 0.950 . S
H3831 C3840 0.950 . S
H3832 C3842 0.950 . S
H3833 C3844 0.950 . S
H3834 C3846 0.950 . S
H3835 C3847 0.950 . S
C3836 H3828 0.950 . S
C3836 C3837 1.386 . S
C3836 C3838 1.391 . S
C3837 C3836 1.386 . S
C3837 C3841 1.393 . S
C3838 H3830 0.950 . S
C3838 C3836 1.391 . S
C3838 C3839 1.400 . S
C3839 C3838 1.400 . S
C3839 C3840 1.398 . S
C3839 C3845 1.491 . S
C3840 H3831 0.950 . S
C3840 C3839 1.398 . S
C3840 C3841 1.391 . S
C3841 H3829 0.950 . S
C3841 C3837 1.393 . S
C3841 C3840 1.391 . S
C3842 H3832 0.950 . S
C3842 C3843 1.386 . S
C3842 C3844 1.391 . S
C3843 C3842 1.386 . S
C3843 C3847 1.393 . S
C3844 H3833 0.950 . S
C3844 C3842 1.391 . S
C3844 C3845 1.400 . S
C3845 C3839 1.491 . S
C3845 C3844 1.400 . S
C3845 C3846 1.398 . S
C3846 H3834 0.950 . S
C3846 C3845 1.398 . S
C3846 C3847 1.391 . S
C3847 H3835 0.950 . S
C3847 C3843 1.393 . S
C3847 C3846 1.391 . S
H3848 C3856 0.950 . S
H3849 C3861 0.950 . S
H3850 C3858 0.950 . S
H3851 C3860 0.950 . S
H3852 C3862 0.950 . S
H3853 C3864 0.950 . S
H3854 C3866 0.950 . S
H3855 C3867 0.950 . S
C3856 H3848 0.950 . S
C3856 C3857 1.386 . S
C3856 C3858 1.391 . S
C3857 C3856 1.386 . S
C3857 C3861 1.393 . S
C3858 H3850 0.950 . S
C3858 C3856 1.391 . S
C3858 C3859 1.400 . S
C3859 C3858 1.400 . S
C3859 C3860 1.398 . S
C3859 C3865 1.491 . S
C3860 H3851 0.950 . S
C3860 C3859 1.398 . S
C3860 C3861 1.391 . S
C3861 H3849 0.950 . S
C3861 C3857 1.393 . S
C3861 C3860 1.391 . S
C3862 H3852 0.950 . S
C3862 C3863 1.386 . S
C3862 C3864 1.391 . S
C3863 C3862 1.386 . S
C3863 C3867 1.393 . S
C3864 H3853 0.950 . S
C3864 C3862 1.391 . S
C3864 C3865 1.400 . S
C3865 C3859 1.491 . S
C3865 C3864 1.400 . S
C3865 C3866 1.398 . S
C3866 H3854 0.950 . S
C3866 C3865 1.398 . S
C3866 C3867 1.391 . S
C3867 H3855 0.950 . S
C3867 C3863 1.393 . S
C3867 C3866 1.391 . S
H3868 C3876 0.950 . S
H3869 C3881 0.950 . S
H3870 C3878 0.950 . S
H3871 C3880 0.950 . S
H3872 C3882 0.950 . S
H3873 C3884 0.950 . S
H3874 C3886 0.950 . S
H3875 C3887 0.950 . S
C3876 H3868 0.950 . S
C3876 C3877 1.386 . S
C3876 C3878 1.391 . S
C3877 C3876 1.386 . S
C3877 C3881 1.393 . S
C3878 H3870 0.950 . S
C3878 C3876 1.391 . S
C3878 C3879 1.400 . S
C3879 C3878 1.400 . S
C3879 C3880 1.398 . S
C3879 C3885 1.491 . S
C3880 H3871 0.950 . S
C3880 C3879 1.398 . S
C3880 C3881 1.391 . S
C3881 H3869 0.950 . S
C3881 C3877 1.393 . S
C3881 C3880 1.391 . S
C3882 H3872 0.950 . S
C3882 C3883 1.386 . S
C3882 C3884 1.391 . S
C3883 C3882 1.386 . S
C3883 C3887 1.393 . S
C3884 H3873 0.950 . S
C3884 C3882 1.391 . S
C3884 C3885 1.400 . S
C3885 C3879 1.491 . S
C3885 C3884 1.400 . S
C3885 C3886 1.398 . S
C3886 H3874 0.950 . S
C3886 C3885 1.398 . S
C3886 C3887 1.391 . S
C3887 H3875 0.950 . S
C3887 C3883 1.393 . S
C3887 C3886 1.391 . S
H3888 C3896 0.950 . S
H3889 C3901 0.950 . S
H3890 C3898 0.950 . S
H3891 C3900 0.950 . S
H3892 C3902 0.950 . S
H3893 C3904 0.950 . S
H3894 C3906 0.950 . S
H3895 C3907 0.950 . S
C3896 H3888 0.950 . S
C3896 C3897 1.386 . S
C3896 C3898 1.391 . S
C3897 C3896 1.386 . S
C3897 C3901 1.393 . S
C3898 H3890 0.950 . S
C3898 C3896 1.391 . S
C3898 C3899 1.400 . S
C3899 C3898 1.400 . S
C3899 C3900 1.398 . S
C3899 C3905 1.491 . S
C3900 H3891 0.950 . S
C3900 C3899 1.398 . S
C3900 C3901 1.391 . S
C3901 H3889 0.950 . S
C3901 C3897 1.393 . S
C3901 C3900 1.391 . S
C3902 H3892 0.950 . S
C3902 C3903 1.386 . S
C3902 C3904 1.391 . S
C3903 C3902 1.386 . S
C3903 C3907 1.393 . S
C3904 H3893 0.950 . S
C3904 C3902 1.391 . S
C3904 C3905 1.400 . S
C3905 C3899 1.491 . S
C3905 C3904 1.400 . S
C3905 C3906 1.398 . S
C3906 H3894 0.950 . S
C3906 C3905 1.398 . S
C3906 C3907 1.391 . S
C3907 H3895 0.950 . S
C3907 C3903 1.393 . S
C3907 C3906 1.391 . S
H3908 C3916 0.950 . S
H3909 C3921 0.950 . S
H3910 C3918 0.950 . S
H3911 C3920 0.950 . S
H3912 C3922 0.950 . S
H3913 C3924 0.950 . S
H3914 C3926 0.950 . S
H3915 C3927 0.950 . S
C3916 H3908 0.950 . S
C3916 C3917 1.386 . S
C3916 C3918 1.391 . S
C3917 C3916 1.386 . S
C3917 C3921 1.393 . S
C3918 H3910 0.950 . S
C3918 C3916 1.391 . S
C3918 C3919 1.400 . S
C3919 C3918 1.400 . S
C3919 C3920 1.398 . S
C3919 C3925 1.491 1_565 S
C3920 H3911 0.950 . S
C3920 C3919 1.398 . S
C3920 C3921 1.391 . S
C3921 H3909 0.950 . S
C3921 C3917 1.393 . S
C3921 C3920 1.391 . S
C3922 H3912 0.950 . S
C3922 C3923 1.386 . S
C3922 C3924 1.391 . S
C3923 C3922 1.386 . S
C3923 C3927 1.393 . S
C3924 H3913 0.950 . S
C3924 C3922 1.391 . S
C3924 C3925 1.400 . S
C3925 C3919 1.491 1_545 S
C3925 C3924 1.400 . S
C3925 C3926 1.398 . S
C3926 H3914 0.950 . S
C3926 C3925 1.398 . S
C3926 C3927 1.391 . S
C3927 H3915 0.950 . S
C3927 C3923 1.393 . S
C3927 C3926 1.391 . S
H3928 C3936 0.950 . S
H3929 C3941 0.950 . S
H3930 C3938 0.950 . S
H3931 C3940 0.950 . S
H3932 C3942 0.950 . S
H3933 C3944 0.950 . S
H3934 C3946 0.950 . S
H3935 C3947 0.950 . S
C3936 H3928 0.950 . S
C3936 C3937 1.386 . S
C3936 C3938 1.391 . S
C3937 C3936 1.386 . S
C3937 C3941 1.393 . S
C3938 H3930 0.950 . S
C3938 C3936 1.391 . S
C3938 C3939 1.400 . S
C3939 C3938 1.400 . S
C3939 C3940 1.398 . S
C3939 C3945 1.491 1_655 S
C3940 H3931 0.950 . S
C3940 C3939 1.398 . S
C3940 C3941 1.391 . S
C3941 H3929 0.950 . S
C3941 C3937 1.393 . S
C3941 C3940 1.391 . S
C3942 H3932 0.950 . S
C3942 C3943 1.386 . S
C3942 C3944 1.391 . S
C3943 C3942 1.386 . S
C3943 C3947 1.393 . S
C3944 H3933 0.950 . S
C3944 C3942 1.391 . S
C3944 C3945 1.400 . S
C3945 C3939 1.491 1_455 S
C3945 C3944 1.400 . S
C3945 C3946 1.398 . S
C3946 H3934 0.950 . S
C3946 C3945 1.398 . S
C3946 C3947 1.391 . S
C3947 H3935 0.950 . S
C3947 C3943 1.393 . S
C3947 C3946 1.391 . S
H3948 C3956 0.950 . S
H3949 C3961 0.950 . S
H3950 C3958 0.950 . S
H3951 C3960 0.950 . S
H3952 C3962 0.950 . S
H3953 C3964 0.950 . S
H3954 C3966 0.950 . S
H3955 C3967 0.950 . S
C3956 H3948 0.950 . S
C3956 C3957 1.386 . S
C3956 C3958 1.391 . S
C3957 C3956 1.386 . S
C3957 C3961 1.393 . S
C3958 H3950 0.950 . S
C3958 C3956 1.391 . S
C3958 C3959 1.400 . S
C3959 C3958 1.400 . S
C3959 C3960 1.398 . S
C3959 C3965 1.491 . S
C3960 H3951 0.950 . S
C3960 C3959 1.398 . S
C3960 C3961 1.391 . S
C3961 H3949 0.950 . S
C3961 C3957 1.393 . S
C3961 C3960 1.391 . S
C3962 H3952 0.950 . S
C3962 C3963 1.386 . S
C3962 C3964 1.391 . S
C3963 C3962 1.386 . S
C3963 C3967 1.393 . S
C3964 H3953 0.950 . S
C3964 C3962 1.391 . S
C3964 C3965 1.400 . S
C3965 C3959 1.491 . S
C3965 C3964 1.400 . S
C3965 C3966 1.398 . S
C3966 H3954 0.950 . S
C3966 C3965 1.398 . S
C3966 C3967 1.391 . S
C3967 H3955 0.950 . S
C3967 C3963 1.393 . S
C3967 C3966 1.391 . S
H3968 C3976 0.950 . S
H3969 C3981 0.950 . S
H3970 C3978 0.950 . S
H3971 C3980 0.950 . S
H3972 C3982 0.950 . S
H3973 C3984 0.950 . S
H3974 C3986 0.950 . S
H3975 C3987 0.950 . S
C3976 H3968 0.950 . S
C3976 C3977 1.386 . S
C3976 C3978 1.391 . S
C3977 C3976 1.386 . S
C3977 C3981 1.393 . S
C3978 H3970 0.950 . S
C3978 C3976 1.391 . S
C3978 C3979 1.400 . S
C3979 C3978 1.400 . S
C3979 C3980 1.398 . S
C3979 C3985 1.491 1_545 S
C3980 H3971 0.950 . S
C3980 C3979 1.398 . S
C3980 C3981 1.391 . S
C3981 H3969 0.950 . S
C3981 C3977 1.393 . S
C3981 C3980 1.391 . S
C3982 H3972 0.950 . S
C3982 C3983 1.386 . S
C3982 C3984 1.391 . S
C3983 C3982 1.386 . S
C3983 C3987 1.393 . S
C3984 H3973 0.950 . S
C3984 C3982 1.391 . S
C3984 C3985 1.400 . S
C3985 C3979 1.491 1_565 S
C3985 C3984 1.400 . S
C3985 C3986 1.398 . S
C3986 H3974 0.950 . S
C3986 C3985 1.398 . S
C3986 C3987 1.391 . S
C3987 H3975 0.950 . S
C3987 C3983 1.393 . S
C3987 C3986 1.391 . S
H3988 C3996 0.950 . S
H3989 C4001 0.950 . S
H3990 C3998 0.950 . S
H3991 C4000 0.950 . S
H3992 C4002 0.950 . S
H3993 C4004 0.950 . S
H3994 C4006 0.950 . S
H3995 C4007 0.950 . S
C3996 H3988 0.950 . S
C3996 C3997 1.386 . S
C3996 C3998 1.391 . S
C3997 C3996 1.386 . S
C3997 C4001 1.393 . S
C3998 H3990 0.950 . S
C3998 C3996 1.391 . S
C3998 C3999 1.400 . S
C3999 C3998 1.400 . S
C3999 C4000 1.398 . S
C3999 C4005 1.491 1_655 S
C4000 H3991 0.950 . S
C4000 C3999 1.398 . S
C4000 C4001 1.391 . S
C4001 H3989 0.950 . S
C4001 C3997 1.393 . S
C4001 C4000 1.391 . S
C4002 H3992 0.950 . S
C4002 C4003 1.386 . S
C4002 C4004 1.391 . S
C4003 C4002 1.386 . S
C4003 C4007 1.393 . S
C4004 H3993 0.950 . S
C4004 C4002 1.391 . S
C4004 C4005 1.400 . S
C4005 C3999 1.491 1_455 S
C4005 C4004 1.400 . S
C4005 C4006 1.398 . S
C4006 H3994 0.950 . S
C4006 C4005 1.398 . S
C4006 C4007 1.391 . S
C4007 H3995 0.950 . S
C4007 C4003 1.393 . S
C4007 C4006 1.391 . S
H4008 C4016 0.950 . S
H4009 C4021 0.950 . S
H4010 C4018 0.950 . S
H4011 C4020 0.950 . S
H4012 C4022 0.950 . S
H4013 C4024 0.950 . S
H4014 C4026 0.950 . S
H4015 C4027 0.950 . S
C4016 H4008 0.950 . S
C4016 C4017 1.386 . S
C4016 C4018 1.391 . S
C4017 C4016 1.386 . S
C4017 C4021 1.393 . S
C4018 H4010 0.950 . S
C4018 C4016 1.391 . S
C4018 C4019 1.400 . S
C4019 C4018 1.400 . S
C4019 C4020 1.398 . S
C4019 C4025 1.491 . S
C4020 H4011 0.950 . S
C4020 C4019 1.398 . S
C4020 C4021 1.391 . S
C4021 H4009 0.950 . S
C4021 C4017 1.393 . S
C4021 C4020 1.391 . S
C4022 H4012 0.950 . S
C4022 C4023 1.386 . S
C4022 C4024 1.391 . S
C4023 C4022 1.386 . S
C4023 C4027 1.393 . S
C4024 H4013 0.950 . S
C4024 C4022 1.391 . S
C4024 C4025 1.400 . S
C4025 C4019 1.491 . S
C4025 C4024 1.400 . S
C4025 C4026 1.398 . S
C4026 H4014 0.950 . S
C4026 C4025 1.398 . S
C4026 C4027 1.391 . S
C4027 H4015 0.950 . S
C4027 C4023 1.393 . S
C4027 C4026 1.391 . S
H4028 C4036 0.950 . S
H4029 C4041 0.950 . S
H4030 C4038 0.950 . S
H4031 C4040 0.950 . S
H4032 C4042 0.950 . S
H4033 C4044 0.950 . S
H4034 C4046 0.950 . S
H4035 C4047 0.950 . S
C4036 H4028 0.950 . S
C4036 C4037 1.386 . S
C4036 C4038 1.391 . S
C4037 C4036 1.386 . S
C4037 C4041 1.393 . S
C4038 H4030 0.950 . S
C4038 C4036 1.391 . S
C4038 C4039 1.400 . S
C4039 C4038 1.400 . S
C4039 C4040 1.398 . S
C4039 C4045 1.491 . S
C4040 H4031 0.950 . S
C4040 C4039 1.398 . S
C4040 C4041 1.391 . S
C4041 H4029 0.950 . S
C4041 C4037 1.393 . S
C4041 C4040 1.391 . S
C4042 H4032 0.950 . S
C4042 C4043 1.386 . S
C4042 C4044 1.391 . S
C4043 C4042 1.386 . S
C4043 C4047 1.393 . S
C4044 H4033 0.950 . S
C4044 C4042 1.391 . S
C4044 C4045 1.400 . S
C4045 C4039 1.491 . S
C4045 C4044 1.400 . S
C4045 C4046 1.398 . S
C4046 H4034 0.950 . S
C4046 C4045 1.398 . S
C4046 C4047 1.391 . S
C4047 H4035 0.950 . S
C4047 C4043 1.393 . S
C4047 C4046 1.391 . S
H4048 C4056 0.950 . S
H4049 C4061 0.950 . S
H4050 C4058 0.950 . S
H4051 C4060 0.950 . S
H4052 C4062 0.950 . S
H4053 C4064 0.950 . S
H4054 C4066 0.950 . S
H4055 C4067 0.950 . S
C4056 H4048 0.950 . S
C4056 C4057 1.386 . S
C4056 C4058 1.391 . S
C4057 C4056 1.386 . S
C4057 C4061 1.393 . S
C4058 H4050 0.950 . S
C4058 C4056 1.391 . S
C4058 C4059 1.400 . S
C4059 C4058 1.400 . S
C4059 C4060 1.398 . S
C4059 C4065 1.491 . S
C4060 H4051 0.950 . S
C4060 C4059 1.398 . S
C4060 C4061 1.391 . S
C4061 H4049 0.950 . S
C4061 C4057 1.393 . S
C4061 C4060 1.391 . S
C4062 H4052 0.950 . S
C4062 C4063 1.386 . S
C4062 C4064 1.391 . S
C4063 C4062 1.386 . S
C4063 C4067 1.393 . S
C4064 H4053 0.950 . S
C4064 C4062 1.391 . S
C4064 C4065 1.400 . S
C4065 C4059 1.491 . S
C4065 C4064 1.400 . S
C4065 C4066 1.398 . S
C4066 H4054 0.950 . S
C4066 C4065 1.398 . S
C4066 C4067 1.391 . S
C4067 H4055 0.950 . S
C4067 C4063 1.393 . S
C4067 C4066 1.391 . S
H4068 C4076 0.950 . S
H4069 C4081 0.950 . S
H4070 C4078 0.950 . S
H4071 C4080 0.950 . S
H4072 C4082 0.950 . S
H4073 C4084 0.950 . S
H4074 C4086 0.950 . S
H4075 C4087 0.950 . S
C4076 H4068 0.950 . S
C4076 C4077 1.386 . S
C4076 C4078 1.391 . S
C4077 C4076 1.386 . S
C4077 C4081 1.393 . S
C4078 H4070 0.950 . S
C4078 C4076 1.391 . S
C4078 C4079 1.400 . S
C4079 C4078 1.400 . S
C4079 C4080 1.398 . S
C4079 C4085 1.491 . S
C4080 H4071 0.950 . S
C4080 C4079 1.398 . S
C4080 C4081 1.391 . S
C4081 H4069 0.950 . S
C4081 C4077 1.393 . S
C4081 C4080 1.391 . S
C4082 H4072 0.950 . S
C4082 C4083 1.386 . S
C4082 C4084 1.391 . S
C4083 C4082 1.386 . S
C4083 C4087 1.393 . S
C4084 H4073 0.950 . S
C4084 C4082 1.391 . S
C4084 C4085 1.400 . S
C4085 C4079 1.491 . S
C4085 C4084 1.400 . S
C4085 C4086 1.398 . S
C4086 H4074 0.950 . S
C4086 C4085 1.398 . S
C4086 C4087 1.391 . S
C4087 H4075 0.950 . S
C4087 C4083 1.393 . S
C4087 C4086 1.391 . S
H4088 C4096 0.950 . S
H4089 C4101 0.950 . S
H4090 C4098 0.950 . S
H4091 C4100 0.950 . S
H4092 C4102 0.950 . S
H4093 C4104 0.950 . S
H4094 C4106 0.950 . S
H4095 C4107 0.950 . S
C4096 H4088 0.950 . S
C4096 C4097 1.386 . S
C4096 C4098 1.391 . S
C4097 C4096 1.386 . S
C4097 C4101 1.393 . S
C4098 H4090 0.950 . S
C4098 C4096 1.391 . S
C4098 C4099 1.400 . S
C4099 C4098 1.400 . S
C4099 C4100 1.398 . S
C4099 C4105 1.491 . S
C4100 H4091 0.950 . S
C4100 C4099 1.398 . S
C4100 C4101 1.391 . S
C4101 H4089 0.950 . S
C4101 C4097 1.393 . S
C4101 C4100 1.391 . S
C4102 H4092 0.950 . S
C4102 C4103 1.386 . S
C4102 C4104 1.391 . S
C4103 C4102 1.386 . S
C4103 C4107 1.393 . S
C4104 H4093 0.950 . S
C4104 C4102 1.391 . S
C4104 C4105 1.400 . S
C4105 C4099 1.491 . S
C4105 C4104 1.400 . S
C4105 C4106 1.398 . S
C4106 H4094 0.950 . S
C4106 C4105 1.398 . S
C4106 C4107 1.391 . S
C4107 H4095 0.950 . S
C4107 C4103 1.393 . S
C4107 C4106 1.391 . S
H4108 C4116 0.950 . S
H4109 C4121 0.950 . S
H4110 C4118 0.950 . S
H4111 C4120 0.950 . S
H4112 C4122 0.950 . S
H4113 C4124 0.950 . S
H4114 C4126 0.950 . S
H4115 C4127 0.950 . S
C4116 H4108 0.950 . S
C4116 C4117 1.386 . S
C4116 C4118 1.391 . S
C4117 C4116 1.386 . S
C4117 C4121 1.393 . S
C4118 H4110 0.950 . S
C4118 C4116 1.391 . S
C4118 C4119 1.400 . S
C4119 C4118 1.400 . S
C4119 C4120 1.398 . S
C4119 C4125 1.491 . S
C4120 H4111 0.950 . S
C4120 C4119 1.398 . S
C4120 C4121 1.391 . S
C4121 H4109 0.950 . S
C4121 C4117 1.393 . S
C4121 C4120 1.391 . S
C4122 H4112 0.950 . S
C4122 C4123 1.386 . S
C4122 C4124 1.391 . S
C4123 C4122 1.386 . S
C4123 C4127 1.393 . S
C4124 H4113 0.950 . S
C4124 C4122 1.391 . S
C4124 C4125 1.400 . S
C4125 C4119 1.491 . S
C4125 C4124 1.400 . S
C4125 C4126 1.398 . S
C4126 H4114 0.950 . S
C4126 C4125 1.398 . S
C4126 C4127 1.391 . S
C4127 H4115 0.950 . S
C4127 C4123 1.393 . S
C4127 C4126 1.391 . S
H4128 C4136 0.950 . S
H4129 C4141 0.950 . S
H4130 C4138 0.950 . S
H4131 C4140 0.950 . S
H4132 C4142 0.950 . S
H4133 C4144 0.950 . S
H4134 C4146 0.950 . S
H4135 C4147 0.950 . S
C4136 H4128 0.950 . S
C4136 C4137 1.386 . S
C4136 C4138 1.391 . S
C4137 C4136 1.386 . S
C4137 C4141 1.393 . S
C4138 H4130 0.950 . S
C4138 C4136 1.391 . S
C4138 C4139 1.400 . S
C4139 C4138 1.400 . S
C4139 C4140 1.398 . S
C4139 C4145 1.491 . S
C4140 H4131 0.950 . S
C4140 C4139 1.398 . S
C4140 C4141 1.391 . S
C4141 H4129 0.950 . S
C4141 C4137 1.393 . S
C4141 C4140 1.391 . S
C4142 H4132 0.950 . S
C4142 C4143 1.386 . S
C4142 C4144 1.391 . S
C4143 C4142 1.386 . S
C4143 C4147 1.393 . S
C4144 H4133 0.950 . S
C4144 C4142 1.391 . S
C4144 C4145 1.400 . S
C4145 C4139 1.491 . S
C4145 C4144 1.400 . S
C4145 C4146 1.398 . S
C4146 H4134 0.950 . S
C4146 C4145 1.398 . S
C4146 C4147 1.391 . S
C4147 H4135 0.950 . S
C4147 C4143 1.393 . S
C4147 C4146 1.391 . S
H4148 C4156 0.950 . S
H4149 C4161 0.950 . S
H4150 C4158 0.950 . S
H4151 C4160 0.950 . S
H4152 C4162 0.950 . S
H4153 C4164 0.950 . S
H4154 C4166 0.950 . S
H4155 C4167 0.950 . S
C4156 H4148 0.950 . S
C4156 C4157 1.386 . S
C4156 C4158 1.391 . S
C4157 C4156 1.386 . S
C4157 C4161 1.393 . S
C4158 H4150 0.950 . S
C4158 C4156 1.391 . S
C4158 C4159 1.400 . S
C4159 C4158 1.400 . S
C4159 C4160 1.398 . S
C4159 C4165 1.491 . S
C4160 H4151 0.950 . S
C4160 C4159 1.398 . S
C4160 C4161 1.391 . S
C4161 H4149 0.950 . S
C4161 C4157 1.393 . S
C4161 C4160 1.391 . S
C4162 H4152 0.950 . S
C4162 C4163 1.386 . S
C4162 C4164 1.391 . S
C4163 C4162 1.386 . S
C4163 C4167 1.393 . S
C4164 H4153 0.950 . S
C4164 C4162 1.391 . S
C4164 C4165 1.400 . S
C4165 C4159 1.491 . S
C4165 C4164 1.400 . S
C4165 C4166 1.398 . S
C4166 H4154 0.950 . S
C4166 C4165 1.398 . S
C4166 C4167 1.391 . S
C4167 H4155 0.950 . S
C4167 C4163 1.393 . S
C4167 C4166 1.391 . S
H4168 C4176 0.950 . S
H4169 C4181 0.950 . S
H4170 C4178 0.950 . S
H4171 C4180 0.950 . S
H4172 C4182 0.950 . S
H4173 C4184 0.950 . S
H4174 C4186 0.950 . S
H4175 C4187 0.950 . S
C4176 H4168 0.950 . S
C4176 C4177 1.386 . S
C4176 C4178 1.391 . S
C4177 C4176 1.386 . S
C4177 C4181 1.393 . S
C4178 H4170 0.950 . S
C4178 C4176 1.391 . S
C4178 C4179 1.400 . S
C4179 C4178 1.400 . S
C4179 C4180 1.398 . S
C4179 C4185 1.491 . S
C4180 H4171 0.950 . S
C4180 C4179 1.398 . S
C4180 C4181 1.391 . S
C4181 H4169 0.950 . S
C4181 C4177 1.393 . S
C4181 C4180 1.391 . S
C4182 H4172 0.950 . S
C4182 C4183 1.386 . S
C4182 C4184 1.391 . S
C4183 C4182 1.386 . S
C4183 C4187 1.393 . S
C4184 H4173 0.950 . S
C4184 C4182 1.391 . S
C4184 C4185 1.400 . S
C4185 C4179 1.491 . S
C4185 C4184 1.400 . S
C4185 C4186 1.398 . S
C4186 H4174 0.950 . S
C4186 C4185 1.398 . S
C4186 C4187 1.391 . S
C4187 H4175 0.950 . S
C4187 C4183 1.393 . S
C4187 C4186 1.391 . S
H4188 C4196 0.950 . S
H4189 C4201 0.950 . S
H4190 C4198 0.950 . S
H4191 C4200 0.950 . S
H4192 C4202 0.950 . S
H4193 C4204 0.950 . S
H4194 C4206 0.950 . S
H4195 C4207 0.950 . S
C4196 H4188 0.950 . S
C4196 C4197 1.386 . S
C4196 C4198 1.391 . S
C4197 C4196 1.386 . S
C4197 C4201 1.393 . S
C4198 H4190 0.950 . S
C4198 C4196 1.391 . S
C4198 C4199 1.400 . S
C4199 C4198 1.400 . S
C4199 C4200 1.398 . S
C4199 C4205 1.491 . S
C4200 H4191 0.950 . S
C4200 C4199 1.398 . S
C4200 C4201 1.391 . S
C4201 H4189 0.950 . S
C4201 C4197 1.393 . S
C4201 C4200 1.391 . S
C4202 H4192 0.950 . S
C4202 C4203 1.386 . S
C4202 C4204 1.391 . S
C4203 C4202 1.386 . S
C4203 C4207 1.393 . S
C4204 H4193 0.950 . S
C4204 C4202 1.391 . S
C4204 C4205 1.400 . S
C4205 C4199 1.491 . S
C4205 C4204 1.400 . S
C4205 C4206 1.398 . S
C4206 H4194 0.950 . S
C4206 C4205 1.398 . S
C4206 C4207 1.391 . S
C4207 H4195 0.950 . S
C4207 C4203 1.393 . S
C4207 C4206 1.391 . S
H4208 C4216 0.950 . S
H4209 C4221 0.950 . S
H4210 C4218 0.950 . S
H4211 C4220 0.950 . S
H4212 C4222 0.950 . S
H4213 C4224 0.950 . S
H4214 C4226 0.950 . S
H4215 C4227 0.950 . S
C4216 H4208 0.950 . S
C4216 C4217 1.386 . S
C4216 C4218 1.391 . S
C4217 C4216 1.386 . S
C4217 C4221 1.393 . S
C4218 H4210 0.950 . S
C4218 C4216 1.391 . S
C4218 C4219 1.400 . S
C4219 C4218 1.400 . S
C4219 C4220 1.398 . S
C4219 C4225 1.491 . S
C4220 H4211 0.950 . S
C4220 C4219 1.398 . S
C4220 C4221 1.391 . S
C4221 H4209 0.950 . S
C4221 C4217 1.393 . S
C4221 C4220 1.391 . S
C4222 H4212 0.950 . S
C4222 C4223 1.386 . S
C4222 C4224 1.391 . S
C4223 C4222 1.386 . S
C4223 C4227 1.393 . S
C4224 H4213 0.950 . S
C4224 C4222 1.391 . S
C4224 C4225 1.400 . S
C4225 C4219 1.491 . S
C4225 C4224 1.400 . S
C4225 C4226 1.398 . S
C4226 H4214 0.950 . S
C4226 C4225 1.398 . S
C4226 C4227 1.391 . S
C4227 H4215 0.950 . S
C4227 C4223 1.393 . S
C4227 C4226 1.391 . S
H4228 C4236 0.950 . S
H4229 C4241 0.950 . S
H4230 C4238 0.950 . S
H4231 C4240 0.950 . S
H4232 C4242 0.950 . S
H4233 C4244 0.950 . S
H4234 C4246 0.950 . S
H4235 C4247 0.950 . S
C4236 H4228 0.950 . S
C4236 C4237 1.386 . S
C4236 C4238 1.391 . S
C4237 C4236 1.386 . S
C4237 C4241 1.393 . S
C4238 H4230 0.950 . S
C4238 C4236 1.391 . S
C4238 C4239 1.400 . S
C4239 C4238 1.400 . S
C4239 C4240 1.398 . S
C4239 C4245 1.491 . S
C4240 H4231 0.950 . S
C4240 C4239 1.398 . S
C4240 C4241 1.391 . S
C4241 H4229 0.950 . S
C4241 C4237 1.393 . S
C4241 C4240 1.391 . S
C4242 H4232 0.950 . S
C4242 C4243 1.386 . S
C4242 C4244 1.391 . S
C4243 C4242 1.386 . S
C4243 C4247 1.393 . S
C4244 H4233 0.950 . S
C4244 C4242 1.391 . S
C4244 C4245 1.400 . S
C4245 C4239 1.491 . S
C4245 C4244 1.400 . S
C4245 C4246 1.398 . S
C4246 H4234 0.950 . S
C4246 C4245 1.398 . S
C4246 C4247 1.391 . S
C4247 H4235 0.950 . S
C4247 C4243 1.393 . S
C4247 C4246 1.391 . S
H4248 C4256 0.950 . S
H4249 C4261 0.950 . S
H4250 C4258 0.950 . S
H4251 C4260 0.950 . S
H4252 C4262 0.950 . S
H4253 C4264 0.950 . S
H4254 C4266 0.950 . S
H4255 C4267 0.950 . S
C4256 H4248 0.950 . S
C4256 C4257 1.386 . S
C4256 C4258 1.391 . S
C4257 C4256 1.386 . S
C4257 C4261 1.393 . S
C4258 H4250 0.950 . S
C4258 C4256 1.391 . S
C4258 C4259 1.400 . S
C4259 C4258 1.400 . S
C4259 C4260 1.398 . S
C4259 C4265 1.491 . S
C4260 H4251 0.950 . S
C4260 C4259 1.398 . S
C4260 C4261 1.391 . S
C4261 H4249 0.950 . S
C4261 C4257 1.393 . S
C4261 C4260 1.391 . S
C4262 H4252 0.950 . S
C4262 C4263 1.386 . S
C4262 C4264 1.391 . S
C4263 C4262 1.386 . S
C4263 C4267 1.393 . S
C4264 H4253 0.950 . S
C4264 C4262 1.391 . S
C4264 C4265 1.400 . S
C4265 C4259 1.491 . S
C4265 C4264 1.400 . S
C4265 C4266 1.398 . S
C4266 H4254 0.950 . S
C4266 C4265 1.398 . S
C4266 C4267 1.391 . S
C4267 H4255 0.950 . S
C4267 C4263 1.393 . S
C4267 C4266 1.391 . S
H4268 C4276 0.950 . S
H4269 C4281 0.950 . S
H4270 C4278 0.950 . S
H4271 C4280 0.950 . S
H4272 C4282 0.950 . S
H4273 C4284 0.950 . S
H4274 C4286 0.950 . S
H4275 C4287 0.950 . S
C4276 H4268 0.950 . S
C4276 C4277 1.386 . S
C4276 C4278 1.391 . S
C4277 C4276 1.386 . S
C4277 C4281 1.393 . S
C4278 H4270 0.950 . S
C4278 C4276 1.391 . S
C4278 C4279 1.400 . S
C4279 C4278 1.400 . S
C4279 C4280 1.398 . S
C4279 C4285 1.491 . S
C4280 H4271 0.950 . S
C4280 C4279 1.398 . S
C4280 C4281 1.391 . S
C4281 H4269 0.950 . S
C4281 C4277 1.393 . S
C4281 C4280 1.391 . S
C4282 H4272 0.950 . S
C4282 C4283 1.386 . S
C4282 C4284 1.391 . S
C4283 C4282 1.386 . S
C4283 C4287 1.393 . S
C4284 H4273 0.950 . S
C4284 C4282 1.391 . S
C4284 C4285 1.400 . S
C4285 C4279 1.491 . S
C4285 C4284 1.400 . S
C4285 C4286 1.398 . S
C4286 H4274 0.950 . S
C4286 C4285 1.398 . S
C4286 C4287 1.391 . S
C4287 H4275 0.950 . S
C4287 C4283 1.393 . S
C4287 C4286 1.391 . S
H4288 C4296 0.950 . S
H4289 C4301 0.950 . S
H4290 C4298 0.950 . S
H4291 C4300 0.950 . S
H4292 C4302 0.950 . S
H4293 C4304 0.950 . S
H4294 C4306 0.950 . S
H4295 C4307 0.950 . S
C4296 H4288 0.950 . S
C4296 C4297 1.386 . S
C4296 C4298 1.391 . S
C4297 C4296 1.386 . S
C4297 C4301 1.393 . S
C4298 H4290 0.950 . S
C4298 C4296 1.391 . S
C4298 C4299 1.400 . S
C4299 C4298 1.400 . S
C4299 C4300 1.398 . S
C4299 C4305 1.491 . S
C4300 H4291 0.950 . S
C4300 C4299 1.398 . S
C4300 C4301 1.391 . S
C4301 H4289 0.950 . S
C4301 C4297 1.393 . S
C4301 C4300 1.391 . S
C4302 H4292 0.950 . S
C4302 C4303 1.386 . S
C4302 C4304 1.391 . S
C4303 C4302 1.386 . S
C4303 C4307 1.393 . S
C4304 H4293 0.950 . S
C4304 C4302 1.391 . S
C4304 C4305 1.400 . S
C4305 C4299 1.491 . S
C4305 C4304 1.400 . S
C4305 C4306 1.398 . S
C4306 H4294 0.950 . S
C4306 C4305 1.398 . S
C4306 C4307 1.391 . S
C4307 H4295 0.950 . S
C4307 C4303 1.393 . S
C4307 C4306 1.391 . S
H4308 C4316 0.950 . S
H4309 C4321 0.950 . S
H4310 C4318 0.950 . S
H4311 C4320 0.950 . S
H4312 C4322 0.950 . S
H4313 C4324 0.950 . S
H4314 C4326 0.950 . S
H4315 C4327 0.950 . S
C4316 H4308 0.950 . S
C4316 C4317 1.386 . S
C4316 C4318 1.391 . S
C4317 C4316 1.386 . S
C4317 C4321 1.393 . S
C4318 H4310 0.950 . S
C4318 C4316 1.391 . S
C4318 C4319 1.400 . S
C4319 C4318 1.400 . S
C4319 C4320 1.398 . S
C4319 C4325 1.491 . S
C4320 H4311 0.950 . S
C4320 C4319 1.398 . S
C4320 C4321 1.391 . S
C4321 H4309 0.950 . S
C4321 C4317 1.393 . S
C4321 C4320 1.391 . S
C4322 H4312 0.950 . S
C4322 C4323 1.386 . S
C4322 C4324 1.391 . S
C4323 C4322 1.386 . S
C4323 C4327 1.393 . S
C4324 H4313 0.950 . S
C4324 C4322 1.391 . S
C4324 C4325 1.400 . S
C4325 C4319 1.491 . S
C4325 C4324 1.400 . S
C4325 C4326 1.398 . S
C4326 H4314 0.950 . S
C4326 C4325 1.398 . S
C4326 C4327 1.391 . S
C4327 H4315 0.950 . S
C4327 C4323 1.393 . S
C4327 C4326 1.391 . S
H4328 C4336 0.950 . S
H4329 C4341 0.950 . S
H4330 C4338 0.950 . S
H4331 C4340 0.950 . S
H4332 C4342 0.950 . S
H4333 C4344 0.950 . S
H4334 C4346 0.950 . S
H4335 C4347 0.950 . S
C4336 H4328 0.950 . S
C4336 C4337 1.386 . S
C4336 C4338 1.391 . S
C4337 C4336 1.386 . S
C4337 C4341 1.393 . S
C4338 H4330 0.950 . S
C4338 C4336 1.391 . S
C4338 C4339 1.400 . S
C4339 C4338 1.400 . S
C4339 C4340 1.398 . S
C4339 C4345 1.491 . S
C4340 H4331 0.950 . S
C4340 C4339 1.398 . S
C4340 C4341 1.391 . S
C4341 H4329 0.950 . S
C4341 C4337 1.393 . S
C4341 C4340 1.391 . S
C4342 H4332 0.950 . S
C4342 C4343 1.386 . S
C4342 C4344 1.391 . S
C4343 C4342 1.386 . S
C4343 C4347 1.393 . S
C4344 H4333 0.950 . S
C4344 C4342 1.391 . S
C4344 C4345 1.400 . S
C4345 C4339 1.491 . S
C4345 C4344 1.400 . S
C4345 C4346 1.398 . S
C4346 H4334 0.950 . S
C4346 C4345 1.398 . S
C4346 C4347 1.391 . S
C4347 H4335 0.950 . S
C4347 C4343 1.393 . S
C4347 C4346 1.391 . S
H4348 C4356 0.950 . S
H4349 C4361 0.950 . S
H4350 C4358 0.950 . S
H4351 C4360 0.950 . S
H4352 C4362 0.950 . S
H4353 C4364 0.950 . S
H4354 C4366 0.950 . S
H4355 C4367 0.950 . S
C4356 H4348 0.950 . S
C4356 C4357 1.386 . S
C4356 C4358 1.391 . S
C4357 C4356 1.386 . S
C4357 C4361 1.393 . S
C4358 H4350 0.950 . S
C4358 C4356 1.391 . S
C4358 C4359 1.400 . S
C4359 C4358 1.400 . S
C4359 C4360 1.398 . S
C4359 C4365 1.491 . S
C4360 H4351 0.950 . S
C4360 C4359 1.398 . S
C4360 C4361 1.391 . S
C4361 H4349 0.950 . S
C4361 C4357 1.393 . S
C4361 C4360 1.391 . S
C4362 H4352 0.950 . S
C4362 C4363 1.386 . S
C4362 C4364 1.391 . S
C4363 C4362 1.386 . S
C4363 C4367 1.393 . S
C4364 H4353 0.950 . S
C4364 C4362 1.391 . S
C4364 C4365 1.400 . S
C4365 C4359 1.491 . S
C4365 C4364 1.400 . S
C4365 C4366 1.398 . S
C4366 H4354 0.950 . S
C4366 C4365 1.398 . S
C4366 C4367 1.391 . S
C4367 H4355 0.950 . S
C4367 C4363 1.393 . S
C4367 C4366 1.391 . S
H4368 C4376 0.950 . S
H4369 C4381 0.950 . S
H4370 C4378 0.950 . S
H4371 C4380 0.950 . S
H4372 C4382 0.950 . S
H4373 C4384 0.950 . S
H4374 C4386 0.950 . S
H4375 C4387 0.950 . S
C4376 H4368 0.950 . S
C4376 C4377 1.386 . S
C4376 C4378 1.391 . S
C4377 C4376 1.386 . S
C4377 C4381 1.393 . S
C4378 H4370 0.950 . S
C4378 C4376 1.391 . S
C4378 C4379 1.400 . S
C4379 C4378 1.400 . S
C4379 C4380 1.398 . S
C4379 C4385 1.491 . S
C4380 H4371 0.950 . S
C4380 C4379 1.398 . S
C4380 C4381 1.391 . S
C4381 H4369 0.950 . S
C4381 C4377 1.393 . S
C4381 C4380 1.391 . S
C4382 H4372 0.950 . S
C4382 C4383 1.386 . S
C4382 C4384 1.391 . S
C4383 C4382 1.386 . S
C4383 C4387 1.393 . S
C4384 H4373 0.950 . S
C4384 C4382 1.391 . S
C4384 C4385 1.400 . S
C4385 C4379 1.491 . S
C4385 C4384 1.400 . S
C4385 C4386 1.398 . S
C4386 H4374 0.950 . S
C4386 C4385 1.398 . S
C4386 C4387 1.391 . S
C4387 H4375 0.950 . S
C4387 C4383 1.393 . S
C4387 C4386 1.391 . S
H4388 C4396 0.950 . S
H4389 C4401 0.950 . S
H4390 C4398 0.950 . S
H4391 C4400 0.950 . S
H4392 C4402 0.950 . S
H4393 C4404 0.950 . S
H4394 C4406 0.950 . S
H4395 C4407 0.950 . S
C4396 H4388 0.950 . S
C4396 C4397 1.386 . S
C4396 C4398 1.391 . S
C4397 C4396 1.386 . S
C4397 C4401 1.393 . S
C4398 H4390 0.950 . S
C4398 C4396 1.391 . S
C4398 C4399 1.400 . S
C4399 C4398 1.400 . S
C4399 C4400 1.398 . S
C4399 C4405 1.491 . S
C4400 H4391 0.950 . S
C4400 C4399 1.398 . S
C4400 C4401 1.391 . S
C4401 H4389 0.950 . S
C4401 C4397 1.393 . S
C4401 C4400 1.391 . S
C4402 H4392 0.950 . S
C4402 C4403 1.386 . S
C4402 C4404 1.391 . S
C4403 C4402 1.386 . S
C4403 C4407 1.393 . S
C4404 H4393 0.950 . S
C4404 C4402 1.391 . S
C4404 C4405 1.400 . S
C4405 C4399 1.491 . S
C4405 C4404 1.400 . S
C4405 C4406 1.398 . S
C4406 H4394 0.950 . S
C4406 C4405 1.398 . S
C4406 C4407 1.391 . S
C4407 H4395 0.950 . S
C4407 C4403 1.393 . S
C4407 C4406 1.391 . S
H4408 C4416 0.950 . S
H4409 C4421 0.950 . S
H4410 C4418 0.950 . S
H4411 C4420 0.950 . S
H4412 C4422 0.950 . S
H4413 C4424 0.950 . S
H4414 C4426 0.950 . S
H4415 C4427 0.950 . S
C4416 H4408 0.950 . S
C4416 C4417 1.386 . S
C4416 C4418 1.391 . S
C4417 C4416 1.386 . S
C4417 C4421 1.393 . S
C4418 H4410 0.950 . S
C4418 C4416 1.391 . S
C4418 C4419 1.400 . S
C4419 C4418 1.400 . S
C4419 C4420 1.398 . S
C4419 C4425 1.491 . S
C4420 H4411 0.950 . S
C4420 C4419 1.398 . S
C4420 C4421 1.391 . S
C4421 H4409 0.950 . S
C4421 C4417 1.393 . S
C4421 C4420 1.391 . S
C4422 H4412 0.950 . S
C4422 C4423 1.386 . S
C4422 C4424 1.391 . S
C4423 C4422 1.386 . S
C4423 C4427 1.393 . S
C4424 H4413 0.950 . S
C4424 C4422 1.391 . S
C4424 C4425 1.400 . S
C4425 C4419 1.491 . S
C4425 C4424 1.400 . S
C4425 C4426 1.398 . S
C4426 H4414 0.950 . S
C4426 C4425 1.398 . S
C4426 C4427 1.391 . S
C4427 H4415 0.950 . S
C4427 C4423 1.393 . S
C4427 C4426 1.391 . S
H4428 C4436 0.950 . S
H4429 C4441 0.950 . S
H4430 C4438 0.950 . S
H4431 C4440 0.950 . S
H4432 C4442 0.950 . S
H4433 C4444 0.950 . S
H4434 C4446 0.950 . S
H4435 C4447 0.950 . S
C4436 H4428 0.950 . S
C4436 C4437 1.386 . S
C4436 C4438 1.391 . S
C4437 C4436 1.386 . S
C4437 C4441 1.393 . S
C4438 H4430 0.950 . S
C4438 C4436 1.391 . S
C4438 C4439 1.400 . S
C4439 C4438 1.400 . S
C4439 C4440 1.398 . S
C4439 C4445 1.491 . S
C4440 H4431 0.950 . S
C4440 C4439 1.398 . S
C4440 C4441 1.391 . S
C4441 H4429 0.950 . S
C4441 C4437 1.393 . S
C4441 C4440 1.391 . S
C4442 H4432 0.950 . S
C4442 C4443 1.386 . S
C4442 C4444 1.391 . S
C4443 C4442 1.386 . S
C4443 C4447 1.393 . S
C4444 H4433 0.950 . S
C4444 C4442 1.391 . S
C4444 C4445 1.400 . S
C4445 C4439 1.491 . S
C4445 C4444 1.400 . S
C4445 C4446 1.398 . S
C4446 H4434 0.950 . S
C4446 C4445 1.398 . S
C4446 C4447 1.391 . S
C4447 H4435 0.950 . S
C4447 C4443 1.393 . S
C4447 C4446 1.391 . S
H4448 C4456 0.950 . S
H4449 C4461 0.950 . S
H4450 C4458 0.950 . S
H4451 C4460 0.950 . S
H4452 C4462 0.950 . S
H4453 C4464 0.950 . S
H4454 C4466 0.950 . S
H4455 C4467 0.950 . S
C4456 H4448 0.950 . S
C4456 C4457 1.386 . S
C4456 C4458 1.391 . S
C4457 C4456 1.386 . S
C4457 C4461 1.393 . S
C4458 H4450 0.950 . S
C4458 C4456 1.391 . S
C4458 C4459 1.400 . S
C4459 C4458 1.400 . S
C4459 C4460 1.398 . S
C4459 C4465 1.491 . S
C4460 H4451 0.950 . S
C4460 C4459 1.398 . S
C4460 C4461 1.391 . S
C4461 H4449 0.950 . S
C4461 C4457 1.393 . S
C4461 C4460 1.391 . S
C4462 H4452 0.950 . S
C4462 C4463 1.386 . S
C4462 C4464 1.391 . S
C4463 C4462 1.386 . S
C4463 C4467 1.393 . S
C4464 H4453 0.950 . S
C4464 C4462 1.391 . S
C4464 C4465 1.400 . S
C4465 C4459 1.491 . S
C4465 C4464 1.400 . S
C4465 C4466 1.398 . S
C4466 H4454 0.950 . S
C4466 C4465 1.398 . S
C4466 C4467 1.391 . S
C4467 H4455 0.950 . S
C4467 C4463 1.393 . S
C4467 C4466 1.391 . S
H4468 C4476 0.950 . S
H4469 C4481 0.950 . S
H4470 C4478 0.950 . S
H4471 C4480 0.950 . S
H4472 C4482 0.950 . S
H4473 C4484 0.950 . S
H4474 C4486 0.950 . S
H4475 C4487 0.950 . S
C4476 H4468 0.950 . S
C4476 C4477 1.386 . S
C4476 C4478 1.391 . S
C4477 C4476 1.386 . S
C4477 C4481 1.393 . S
C4478 H4470 0.950 . S
C4478 C4476 1.391 . S
C4478 C4479 1.400 . S
C4479 C4478 1.400 . S
C4479 C4480 1.398 . S
C4479 C4485 1.491 . S
C4480 H4471 0.950 . S
C4480 C4479 1.398 . S
C4480 C4481 1.391 . S
C4481 H4469 0.950 . S
C4481 C4477 1.393 . S
C4481 C4480 1.391 . S
C4482 H4472 0.950 . S
C4482 C4483 1.386 . S
C4482 C4484 1.391 . S
C4483 C4482 1.386 . S
C4483 C4487 1.393 . S
C4484 H4473 0.950 . S
C4484 C4482 1.391 . S
C4484 C4485 1.400 . S
C4485 C4479 1.491 . S
C4485 C4484 1.400 . S
C4485 C4486 1.398 . S
C4486 H4474 0.950 . S
C4486 C4485 1.398 . S
C4486 C4487 1.391 . S
C4487 H4475 0.950 . S
C4487 C4483 1.393 . S
C4487 C4486 1.391 . S
H4488 C4496 0.950 . S
H4489 C4501 0.950 . S
H4490 C4498 0.960 . S
H4491 C4500 0.950 . S
H4492 C4502 0.950 . S
H4493 C4504 0.948 . S
H4494 C4506 0.950 . S
H4495 C4507 0.950 . S
C4496 H4488 0.950 . S
C4496 C4497 1.386 . S
C4496 C4498 1.391 . S
C4497 C4496 1.386 . S
C4497 C4501 1.393 . S
C4498 H4490 0.960 . S
C4498 C4496 1.391 . S
C4498 C4499 1.400 . S
C4499 C4498 1.400 . S
C4499 C4500 1.398 . S
C4499 C4505 1.491 1_455 S
C4500 H4491 0.950 . S
C4500 C4499 1.398 . S
C4500 C4501 1.391 . S
C4501 H4489 0.950 . S
C4501 C4497 1.393 . S
C4501 C4500 1.391 . S
C4502 H4492 0.950 . S
C4502 C4503 1.386 . S
C4502 C4504 1.391 . S
C4503 C4502 1.386 . S
C4503 C4507 1.393 . S
C4504 H4493 0.948 . S
C4504 C4502 1.391 . S
C4504 C4505 1.400 . S
C4505 C4499 1.491 1_655 S
C4505 C4504 1.400 . S
C4505 C4506 1.398 . S
C4506 H4494 0.950 . S
C4506 C4505 1.398 . S
C4506 C4507 1.391 . S
C4507 H4495 0.950 . S
C4507 C4503 1.393 . S
C4507 C4506 1.391 . S
H4508 C4516 0.950 . S
H4509 C4521 0.950 . S
H4510 C4518 0.950 . S
H4511 C4520 0.950 . S
H4512 C4522 0.950 . S
H4513 C4524 0.950 . S
H4514 C4526 0.950 . S
H4515 C4527 0.950 . S
C4516 H4508 0.950 . S
C4516 C4517 1.386 . S
C4516 C4518 1.391 . S
C4517 C4516 1.386 . S
C4517 C4521 1.393 . S
C4518 H4510 0.950 . S
C4518 C4516 1.391 . S
C4518 C4519 1.400 . S
C4519 C4518 1.400 . S
C4519 C4520 1.398 . S
C4519 C4525 1.491 . S
C4520 H4511 0.950 . S
C4520 C4519 1.398 . S
C4520 C4521 1.391 . S
C4521 H4509 0.950 . S
C4521 C4517 1.393 . S
C4521 C4520 1.391 . S
C4522 H4512 0.950 . S
C4522 C4523 1.386 . S
C4522 C4524 1.391 . S
C4523 C4522 1.386 . S
C4523 C4527 1.393 . S
C4524 H4513 0.950 . S
C4524 C4522 1.391 . S
C4524 C4525 1.400 . S
C4525 C4519 1.491 . S
C4525 C4524 1.400 . S
C4525 C4526 1.398 . S
C4526 H4514 0.950 . S
C4526 C4525 1.398 . S
C4526 C4527 1.391 . S
C4527 H4515 0.950 . S
C4527 C4523 1.393 . S
C4527 C4526 1.391 . S
H4528 C4536 0.950 . S
H4529 C4541 0.950 . S
H4530 C4538 0.950 . S
H4531 C4540 0.950 . S
H4532 C4542 0.950 . S
H4533 C4544 0.950 . S
H4534 C4546 0.950 . S
H4535 C4547 0.950 . S
C4536 H4528 0.950 . S
C4536 C4537 1.386 . S
C4536 C4538 1.391 . S
C4537 C4536 1.386 . S
C4537 C4541 1.393 . S
C4538 H4530 0.950 . S
C4538 C4536 1.391 . S
C4538 C4539 1.400 . S
C4539 C4538 1.400 . S
C4539 C4540 1.398 . S
C4539 C4545 1.491 1_545 S
C4540 H4531 0.950 . S
C4540 C4539 1.398 . S
C4540 C4541 1.391 . S
C4541 H4529 0.950 . S
C4541 C4537 1.393 . S
C4541 C4540 1.391 . S
C4542 H4532 0.950 . S
C4542 C4543 1.386 . S
C4542 C4544 1.391 . S
C4543 C4542 1.386 . S
C4543 C4547 1.393 . S
C4544 H4533 0.950 . S
C4544 C4542 1.391 . S
C4544 C4545 1.400 . S
C4545 C4539 1.491 1_565 S
C4545 C4544 1.400 . S
C4545 C4546 1.398 . S
C4546 H4534 0.950 . S
C4546 C4545 1.398 . S
C4546 C4547 1.391 . S
C4547 H4535 0.950 . S
C4547 C4543 1.393 . S
C4547 C4546 1.391 . S
H4548 C4556 0.950 . S
H4549 C4561 0.950 . S
H4550 C4558 0.950 . S
H4551 C4560 0.950 . S
H4552 C4562 0.950 . S
H4553 C4564 0.950 . S
H4554 C4566 0.950 . S
H4555 C4567 0.950 . S
C4556 H4548 0.950 . S
C4556 C4557 1.386 . S
C4556 C4558 1.391 . S
C4557 C4556 1.386 . S
C4557 C4561 1.393 . S
C4558 H4550 0.950 . S
C4558 C4556 1.391 . S
C4558 C4559 1.400 . S
C4559 C4558 1.400 . S
C4559 C4560 1.398 . S
C4559 C4565 1.491 1_546 S
C4560 H4551 0.950 . S
C4560 C4559 1.398 . S
C4560 C4561 1.391 . S
C4561 H4549 0.950 . S
C4561 C4557 1.393 . S
C4561 C4560 1.391 . S
C4562 H4552 0.950 . S
C4562 C4563 1.386 . S
C4562 C4564 1.391 . S
C4563 C4562 1.386 . S
C4563 C4567 1.393 . S
C4564 H4553 0.950 . S
C4564 C4562 1.391 . S
C4564 C4565 1.400 . S
C4565 C4559 1.491 1_564 S
C4565 C4564 1.400 . S
C4565 C4566 1.398 . S
C4566 H4554 0.950 . S
C4566 C4565 1.398 . S
C4566 C4567 1.391 . S
C4567 H4555 0.950 . S
C4567 C4563 1.393 . S
C4567 C4566 1.391 . S
H4568 C4576 0.950 . S
H4569 C4581 0.950 . S
H4570 C4578 0.950 . S
H4571 C4580 0.950 . S
H4572 C4582 0.950 . S
H4573 C4584 0.950 . S
H4574 C4586 0.950 . S
H4575 C4587 0.950 . S
C4576 H4568 0.950 . S
C4576 C4577 1.386 . S
C4576 C4578 1.391 . S
C4577 C4576 1.386 . S
C4577 C4581 1.393 . S
C4578 H4570 0.950 . S
C4578 C4576 1.391 . S
C4578 C4579 1.400 . S
C4579 C4578 1.400 . S
C4579 C4580 1.398 . S
C4579 C4585 1.491 1_656 S
C4580 H4571 0.950 . S
C4580 C4579 1.398 . S
C4580 C4581 1.391 . S
C4581 H4569 0.950 . S
C4581 C4577 1.393 . S
C4581 C4580 1.391 . S
C4582 H4572 0.950 . S
C4582 C4583 1.386 . S
C4582 C4584 1.391 . S
C4583 C4582 1.386 . S
C4583 C4587 1.393 . S
C4584 H4573 0.950 . S
C4584 C4582 1.391 . S
C4584 C4585 1.400 . S
C4585 C4579 1.491 1_454 S
C4585 C4584 1.400 . S
C4585 C4586 1.398 . S
C4586 H4574 0.950 . S
C4586 C4585 1.398 . S
C4586 C4587 1.391 . S
C4587 H4575 0.950 . S
C4587 C4583 1.393 . S
C4587 C4586 1.391 . S
H4588 C4596 0.950 . S
H4589 C4601 0.950 . S
H4590 C4598 0.940 1_554 S
H4591 C4600 0.950 . S
H4592 C4602 0.950 . S
H4593 C4604 0.946 1_556 S
H4594 C4606 0.950 . S
H4595 C4607 0.950 . S
C4596 H4588 0.950 . S
C4596 C4597 1.386 . S
C4596 C4598 1.391 . S
C4597 C4596 1.386 . S
C4597 C4601 1.393 . S
C4598 H4590 0.940 1_556 S
C4598 C4596 1.391 . S
C4598 C4599 1.400 . S
C4599 C4598 1.400 . S
C4599 C4600 1.398 . S
C4599 C4605 1.491 1_556 S
C4600 H4591 0.950 . S
C4600 C4599 1.398 . S
C4600 C4601 1.391 . S
C4601 H4589 0.950 . S
C4601 C4597 1.393 . S
C4601 C4600 1.391 . S
C4602 H4592 0.950 . S
C4602 C4603 1.386 . S
C4602 C4604 1.391 . S
C4603 C4602 1.386 . S
C4603 C4607 1.393 . S
C4604 H4593 0.946 1_554 S
C4604 C4602 1.391 . S
C4604 C4605 1.400 . S
C4605 C4599 1.491 1_554 S
C4605 C4604 1.400 . S
C4605 C4606 1.398 . S
C4606 H4594 0.950 . S
C4606 C4605 1.398 . S
C4606 C4607 1.391 . S
C4607 H4595 0.950 . S
C4607 C4603 1.393 . S
C4607 C4606 1.391 . S
C3177 C20 1.036 . S
C3183 C645 1.060 . S
C3197 C117 1.029 . S
C3203 C724 1.055 . S
C3217 C557 1.053 . S
C3223 C233 1.056 . S
C3237 C1017 1.054 . S
C3243 C284 1.056 . S
C3257 C401 1.056 . S
C3263 C841 1.054 . S
C3277 C469 1.056 . S
C3283 C929 1.053 . S
C3297 C137 1.031 . S
C3303 C548 1.015 . S
C3317 C196 1.050 . S
C3323 C636 1.045 . S
C3337 C733 1.017 . S
C3343 C57 1.030 . S
C3357 C849 1.047 . S
C3363 C489 1.045 . S
C3377 C321 1.054 . S
C3383 C937 1.038 . S
C3397 C1025 1.015 . S
C3403 C381 1.045 . S
C3417 C1701 1.046 . S
C3423 C1076 1.054 . S
C3437 C1164 1.053 . S
C3443 C1780 1.045 . S
C3457 C1289 1.056 . S
C3463 C1613 1.057 . S
C3477 C2081 1.043 . S
C3483 C1340 1.051 . S
C3497 C1457 1.049 . S
C3503 C1905 1.062 . S
C3517 C1993 1.062 . S
C3523 C1525 1.045 . S
C3537 C1201 1.048 . S
C3543 C1604 1.046 . S
C3557 C1692 1.034 . S
C3563 C1252 1.054 . S
C3577 C1113 1.030 . S
C3583 C1789 1.037 . S
C3597 C1897 1.014 . S
C3603 C1545 1.042 . S
C3617 C1985 1.018 . S
C3623 C1377 1.048 . S
C3637 C2073 1.020 . S
C3643 C1437 1.028 . S
C3657 C2757 1.059 . S
C3663 C2169 1.055 . S
C3677 C2836 1.035 . S
C3683 C2229 1.031 . S
C3697 C2669 1.037 . S
C3703 C2345 1.025 . S
C3717 C2396 1.039 . S
C3723 C3137 1.061 . S
C3737 C2513 1.053 . S
C3743 C2961 1.046 . S
C3757 C3041 1.038 . S
C3763 C2581 1.045 . S
C3777 C2660 1.037 . S
C3783 C2249 1.030 . S
C3797 C2308 1.043 . S
C3803 C2748 1.047 . S
C3817 C2132 1.054 . S
C3823 C2845 1.038 . S
C3837 C2953 1.013 . S
C3843 C2601 1.034 . S
C3857 C3049 1.045 . S
C3863 C2433 1.038 . S
C3877 C3129 1.025 . S
C3883 C2493 1.027 . S
C3897 C313 1.558 . S
C3903 C49 1.567 . S
C3917 C372 1.574 . S
C3923 C145 1.573 . S
C3937 C205 1.561 . S
C3943 C497 1.569 . S
C3957 C821 1.571 . S
C3963 C577 1.568 . S
C3977 C909 1.547 . S
C3983 C665 1.556 . S
C3997 C997 1.571 . S
C4003 C761 1.566 . S
C4017 C1369 1.548 . S
C4023 C1105 1.556 . S
C4037 C1428 1.543 . S
C4043 C1193 1.544 . S
C4057 C1261 1.564 . S
C4063 C1553 1.571 . S
C4077 C1868 1.552 . S
C4083 C1633 1.544 . S
C4097 C1956 1.571 . S
C4103 C1721 1.569 . S
C4117 C2044 1.544 . S
C4123 C1817 1.552 . S
C4137 C2425 1.543 . S
C4143 C2141 1.545 . S
C4157 C2257 1.574 . S
C4163 C2484 1.569 . S
C4177 C2609 1.558 . S
C4183 C2317 1.567 . S
C4197 C2689 1.554 . S
C4203 C2924 1.564 . S
C4217 C2777 1.544 . S
C4223 C3021 1.541 . S
C4237 C2873 1.541 . S
C4243 C3100 1.545 . S
C4257 C29 1.463 . S
C4263 C1641 1.461 . S
C4277 C1729 1.443 . S
C4283 C108 1.445 . S
C4297 C1809 1.451 . S
C4303 C225 1.453 . S
C4317 C2933 1.443 . S
C4323 C293 1.446 . S
C4337 C3012 1.444 . S
C4343 C409 1.446 . S
C4357 C3109 1.452 . S
C4363 C460 1.455 . S
C4377 C585 1.460 . S
C4383 C2161 1.462 . S
C4397 C2220 1.447 . S
C4403 C673 1.444 . S
C4417 C2337 1.460 . S
C4423 C753 1.458 . S
C4437 C812 1.448 . S
C4443 C1349 1.451 . S
C4457 C900 1.457 . S
C4463 C1465 1.458 . S
C4477 C988 1.457 . S
C4483 C1516 1.459 . S
C4497 C2697 1.458 . S
C4503 C1085 1.460 . S
C4517 C2785 1.461 . S
C4523 C1173 1.463 . S
C4537 C1281 1.446 . S
C4543 C2865 1.443 . S
C4557 C1877 1.461 . S
C4563 C2405 1.463 . S
C4577 C1965 1.461 . S
C4583 C2521 1.463 . S
C4597 C2053 1.461 . S
C4603 C2572 1.463 . S
