# Generated by pormake.
# Topology swl, (7)-cn, num edge types: 1
# Building blocks:
#     Node 0, Type 0, BuildingBlock: HICVOG_clean_sbu_0, # of connection points: 7
#     Node 1, Type 0, BuildingBlock: HICVOG_clean_sbu_0, # of connection points: 7
#     Node 2, Type 0, BuildingBlock: HICVOG_clean_sbu_0, # of connection points: 7
#     Node 3, Type 0, BuildingBlock: HICVOG_clean_sbu_0, # of connection points: 7
#     Node 4, Type 0, BuildingBlock: HICVOG_clean_sbu_0, # of connection points: 7
#     Node 5, Type 0, BuildingBlock: HICVOG_clean_sbu_0, # of connection points: 7
#     Node 6, Type 0, BuildingBlock: HICVOG_clean_sbu_0, # of connection points: 7
#     Node 7, Type 0, BuildingBlock: HICVOG_clean_sbu_0, # of connection points: 7
#     Node 8, Type 0, BuildingBlock: HICVOG_clean_sbu_0, # of connection points: 7
#     Node 9, Type 0, BuildingBlock: HICVOG_clean_sbu_0, # of connection points: 7
#     Node 10, Type 0, BuildingBlock: HICVOG_clean_sbu_0, # of connection points: 7
#     Node 11, Type 0, BuildingBlock: HICVOG_clean_sbu_0, # of connection points: 7
#     Node 12, Type 0, BuildingBlock: HICVOG_clean_sbu_0, # of connection points: 7
#     Node 13, Type 0, BuildingBlock: HICVOG_clean_sbu_0, # of connection points: 7
#     Node 14, Type 0, BuildingBlock: HICVOG_clean_sbu_0, # of connection points: 7
#     Node 15, Type 0, BuildingBlock: HICVOG_clean_sbu_0, # of connection points: 7
#     Edge 16, Type (0, 0), BuildingBlock: XIVTED_clean_linker_0, # of connection points: 2
#     Edge 17, Type (0, 0), BuildingBlock: XIVTED_clean_linker_0, # of connection points: 2
#     Edge 18, Type (0, 0), BuildingBlock: XIVTED_clean_linker_0, # of connection points: 2
#     Edge 19, Type (0, 0), BuildingBlock: XIVTED_clean_linker_0, # of connection points: 2
#     Edge 20, Type (0, 0), BuildingBlock: XIVTED_clean_linker_0, # of connection points: 2
#     Edge 21, Type (0, 0), BuildingBlock: XIVTED_clean_linker_0, # of connection points: 2
#     Edge 22, Type (0, 0), BuildingBlock: XIVTED_clean_linker_0, # of connection points: 2
#     Edge 23, Type (0, 0), BuildingBlock: XIVTED_clean_linker_0, # of connection points: 2
#     Edge 24, Type (0, 0), BuildingBlock: XIVTED_clean_linker_0, # of connection points: 2
#     Edge 25, Type (0, 0), BuildingBlock: XIVTED_clean_linker_0, # of connection points: 2
#     Edge 26, Type (0, 0), BuildingBlock: XIVTED_clean_linker_0, # of connection points: 2
#     Edge 27, Type (0, 0), BuildingBlock: XIVTED_clean_linker_0, # of connection points: 2
#     Edge 28, Type (0, 0), BuildingBlock: XIVTED_clean_linker_0, # of connection points: 2
#     Edge 29, Type (0, 0), BuildingBlock: XIVTED_clean_linker_0, # of connection points: 2
#     Edge 30, Type (0, 0), BuildingBlock: XIVTED_clean_linker_0, # of connection points: 2
#     Edge 31, Type (0, 0), BuildingBlock: XIVTED_clean_linker_0, # of connection points: 2
#     Edge 32, Type (0, 0), BuildingBlock: XIVTED_clean_linker_0, # of connection points: 2
#     Edge 33, Type (0, 0), BuildingBlock: XIVTED_clean_linker_0, # of connection points: 2
#     Edge 34, Type (0, 0), BuildingBlock: XIVTED_clean_linker_0, # of connection points: 2
#     Edge 35, Type (0, 0), BuildingBlock: XIVTED_clean_linker_0, # of connection points: 2
#     Edge 36, Type (0, 0), BuildingBlock: XIVTED_clean_linker_0, # of connection points: 2
#     Edge 37, Type (0, 0), BuildingBlock: XIVTED_clean_linker_0, # of connection points: 2
#     Edge 38, Type (0, 0), BuildingBlock: XIVTED_clean_linker_0, # of connection points: 2
#     Edge 39, Type (0, 0), BuildingBlock: XIVTED_clean_linker_0, # of connection points: 2
#     Edge 40, Type (0, 0), BuildingBlock: XIVTED_clean_linker_0, # of connection points: 2
#     Edge 41, Type (0, 0), BuildingBlock: XIVTED_clean_linker_0, # of connection points: 2
#     Edge 42, Type (0, 0), BuildingBlock: XIVTED_clean_linker_0, # of connection points: 2
#     Edge 43, Type (0, 0), BuildingBlock: XIVTED_clean_linker_0, # of connection points: 2
#     Edge 44, Type (0, 0), BuildingBlock: XIVTED_clean_linker_0, # of connection points: 2
#     Edge 45, Type (0, 0), BuildingBlock: XIVTED_clean_linker_0, # of connection points: 2
#     Edge 46, Type (0, 0), BuildingBlock: XIVTED_clean_linker_0, # of connection points: 2
#     Edge 47, Type (0, 0), BuildingBlock: XIVTED_clean_linker_0, # of connection points: 2
#     Edge 48, Type (0, 0), BuildingBlock: XIVTED_clean_linker_0, # of connection points: 2
#     Edge 49, Type (0, 0), BuildingBlock: XIVTED_clean_linker_0, # of connection points: 2
#     Edge 50, Type (0, 0), BuildingBlock: XIVTED_clean_linker_0, # of connection points: 2
#     Edge 51, Type (0, 0), BuildingBlock: XIVTED_clean_linker_0, # of connection points: 2
#     Edge 52, Type (0, 0), BuildingBlock: XIVTED_clean_linker_0, # of connection points: 2
#     Edge 53, Type (0, 0), BuildingBlock: XIVTED_clean_linker_0, # of connection points: 2
#     Edge 54, Type (0, 0), BuildingBlock: XIVTED_clean_linker_0, # of connection points: 2
#     Edge 55, Type (0, 0), BuildingBlock: XIVTED_clean_linker_0, # of connection points: 2
#     Edge 56, Type (0, 0), BuildingBlock: XIVTED_clean_linker_0, # of connection points: 2
#     Edge 57, Type (0, 0), BuildingBlock: XIVTED_clean_linker_0, # of connection points: 2
#     Edge 58, Type (0, 0), BuildingBlock: XIVTED_clean_linker_0, # of connection points: 2
#     Edge 59, Type (0, 0), BuildingBlock: XIVTED_clean_linker_0, # of connection points: 2
#     Edge 60, Type (0, 0), BuildingBlock: XIVTED_clean_linker_0, # of connection points: 2
#     Edge 61, Type (0, 0), BuildingBlock: XIVTED_clean_linker_0, # of connection points: 2
#     Edge 62, Type (0, 0), BuildingBlock: XIVTED_clean_linker_0, # of connection points: 2
#     Edge 63, Type (0, 0), BuildingBlock: XIVTED_clean_linker_0, # of connection points: 2
#     Edge 64, Type (0, 0), BuildingBlock: XIVTED_clean_linker_0, # of connection points: 2
#     Edge 65, Type (0, 0), BuildingBlock: XIVTED_clean_linker_0, # of connection points: 2
#     Edge 66, Type (0, 0), BuildingBlock: XIVTED_clean_linker_0, # of connection points: 2
#     Edge 67, Type (0, 0), BuildingBlock: XIVTED_clean_linker_0, # of connection points: 2
#     Edge 68, Type (0, 0), BuildingBlock: XIVTED_clean_linker_0, # of connection points: 2
#     Edge 69, Type (0, 0), BuildingBlock: XIVTED_clean_linker_0, # of connection points: 2
#     Edge 70, Type (0, 0), BuildingBlock: XIVTED_clean_linker_0, # of connection points: 2
#     Edge 71, Type (0, 0), BuildingBlock: XIVTED_clean_linker_0, # of connection points: 2
# Relax obj value: 0.082
# Max RMSD: 0.176
# Mean RMSD: 0.176
data_MOF--net-swl--node1-HICVOG_clean_sbu_0--edge1-XIVTED_clean_linker_0
_symmetry_space_group_name_H-M    P1
_symmetry_Int_Tables_number       1
_symmetry_cell_setting            triclinic
loop_
_symmetry_equiv_pos_as_xyz
'x, y, z'
_cell_length_a     18.301106
_cell_length_b     79.392237
_cell_length_c     52.507624
_cell_angle_alpha  89.949268
_cell_angle_beta   90.044776
_cell_angle_gamma 89.986652
loop_
_atom_site_label
_atom_site_type_symbol
_atom_site_fract_x
_atom_site_fract_y
_atom_site_fract_z
_atom_type_partial_charge
Zn0 Zn 0.04216 0.11413 0.50652 0.0
C1 C 0.16225 0.14607 0.46381 0.0
N2 N 0.10431 0.14571 0.44825 0.0
C3 C 0.05545 0.13653 0.46128 0.0
N4 N 0.08216 0.13132 0.48398 0.0
N5 N 0.14908 0.1376 0.48561 0.0
C6 C 0.34641 0.13157 0.51467 0.0
O7 O 0.31179 0.11758 0.52041 0.0
O8 O 0.93088 0.11456 0.50475 0.0
Zn9 Zn 0.19902 0.14392 0.51648 0.0
N10 N 0.0787 0.09237 0.49466 0.0
C11 C 0.16119 0.07749 0.46782 0.0
C12 C 0.13282 0.09257 0.47692 0.0
C13 C 0.05244 0.07751 0.50399 0.0
N14 N 0.13509 0.06272 0.47703 0.0
C15 C 0.0816 0.06212 0.49503 0.0
O16 O 0.17732 0.12985 0.54758 0.0
C17 C 0.12609 0.12104 0.55715 0.0
O18 O 0.07166 0.11608 0.54394 0.0
H19 H 0.1538 0.10435 0.46973 0.0
H20 H 0.00907 0.07778 0.51795 0.0
C21 C 0.19349 0.18093 0.52279 0.0
C22 C 0.15464 0.19587 0.52839 0.0
C23 C 0.04888 0.1795 0.53727 0.0
C24 C 0.08739 0.16487 0.53183 0.0
N25 N 0.15858 0.1658 0.5247 0.0
N26 N 0.08321 0.19456 0.53541 0.0
H27 H 0.24976 0.18126 0.51654 0.0
C28 C 0.89564 0.12838 0.50575 0.0
O29 O 0.93214 0.14256 0.5078 0.0
O30 O 0.30941 0.14502 0.51164 0.0
H31 H 0.0606 0.15276 0.533 0.0
H32 H 0.20391 0.0775 0.45359 0.0
H33 H 0.99205 0.17892 0.54285 0.0
Zn34 Zn 0.04962 0.14704 0.78686 0.0
C35 C 0.19138 0.14105 0.84339 0.0
N36 N 0.14063 0.1498 0.85623 0.0
C37 C 0.0835 0.14995 0.84026 0.0
N38 N 0.09931 0.14188 0.81833 0.0
N39 N 0.16668 0.13595 0.82038 0.0
C40 C 0.35324 0.13306 0.79942 0.0
O41 O 0.31582 0.14708 0.79682 0.0
O42 O 0.9391 0.14846 0.79165 0.0
Zn43 Zn 0.20769 0.11873 0.79834 0.0
N44 N 0.09106 0.16843 0.77635 0.0
C45 C 0.19842 0.18126 0.75978 0.0
C46 C 0.16011 0.16696 0.76713 0.0
C47 C 0.05855 0.1838 0.7788 0.0
N48 N 0.16637 0.19655 0.76214 0.0
C49 C 0.09738 0.19841 0.77144 0.0
O50 O 0.18035 0.12022 0.76073 0.0
C51 C 0.12369 0.12369 0.74757 0.0
O52 O 0.06956 0.13162 0.75697 0.0
H53 H 0.18565 0.15473 0.76585 0.0
H54 H 1.00439 0.18456 0.78694 0.0
C55 C 0.19484 0.08231 0.80059 0.0
C56 C 0.16297 0.06701 0.80865 0.0
C57 C 0.08144 0.08245 0.83498 0.0
C58 C 0.11313 0.09747 0.827 0.0
N59 N 0.16922 0.09717 0.81002 0.0
N60 N 0.1069 0.06767 0.82566 0.0
H61 H 0.2382 0.08256 0.78663 0.0
C62 C 0.90238 0.13495 0.78889 0.0
O63 O 0.93738 0.12095 0.78346 0.0
O64 O 0.31885 0.11914 0.80073 0.0
H65 H 0.09265 0.10926 0.83425 0.0
H66 H 0.25347 0.18025 0.75246 0.0
H67 H 0.03672 0.08253 0.84845 0.0
Zn68 Zn 0.9608 0.89514 0.54889 0.0
C69 C 0.83447 0.86489 0.59234 0.0
N70 N 0.89189 0.86514 0.60814 0.0
C71 C 0.94262 0.87366 0.59495 0.0
N72 N 0.91741 0.8786 0.57188 0.0
N73 N 0.84971 0.87275 0.57018 0.0
C74 C 0.6464 0.86234 0.52594 0.0
O75 O 0.67493 0.85825 0.50383 0.0
O76 O 0.07235 0.89261 0.55007 0.0
Zn77 Zn 0.79975 0.86599 0.53941 0.0
N78 N 0.92968 0.91745 0.56064 0.0
C79 C 0.84971 0.93307 0.58745 0.0
C80 C 0.87517 0.91776 0.57824 0.0
C81 C 0.9589 0.93206 0.55144 0.0
N82 N 0.87878 0.94758 0.57841 0.0
C83 C 0.93256 0.9477 0.5605 0.0
O84 O 0.82165 0.87993 0.50816 0.0
C85 C 0.87298 0.88872 0.49858 0.0
O86 O 0.92766 0.89357 0.51177 0.0
H87 H 0.85161 0.9062 0.58526 0.0
H88 H 1.00223 0.9314 0.53749 0.0
C89 C 0.80654 0.82879 0.53031 0.0
C90 C 0.848 0.81417 0.52465 0.0
C91 C 0.95492 0.83115 0.52193 0.0
C92 C 0.91402 0.84538 0.52746 0.0
N93 N 0.84104 0.84403 0.53156 0.0
N94 N 0.92115 0.81602 0.52067 0.0
H95 H 0.74825 0.82824 0.53343 0.0
C96 C 0.10289 0.8826 0.5344 0.0
O97 O 0.06187 0.87465 0.51777 0.0
O98 O 0.68905 0.86554 0.54446 0.0
H99 H 0.94015 0.85755 0.52859 0.0
H100 H 0.8068 0.93346 0.60159 0.0
H101 H 0.01314 0.83209 0.51866 0.0
Zn102 Zn 0.79243 0.89637 0.25723 0.0
C103 C 0.91506 0.86534 0.21435 0.0
N104 N 0.85743 0.8656 0.1986 0.0
C105 C 0.80729 0.87434 0.21173 0.0
N106 N 0.83285 0.87936 0.23466 0.0
N107 N 0.90017 0.87336 0.2364 0.0
C108 C 0.09747 0.87965 0.26567 0.0
O109 O 0.0633 0.89368 0.27152 0.0
O110 O 0.68151 0.89626 0.25463 0.0
Zn111 Zn 0.94989 0.86767 0.26764 0.0
N112 N 0.83127 0.91808 0.24623 0.0
C113 C 0.91969 0.93297 0.22179 0.0
C114 C 0.88783 0.9179 0.22944 0.0
C115 C 0.80528 0.93288 0.25577 0.0
N116 N 0.89388 0.94769 0.23122 0.0
C117 C 0.8373 0.94825 0.24804 0.0
O118 O 0.92989 0.88251 0.29818 0.0
C119 C 0.87568 0.89024 0.3079 0.0
O120 O 0.81928 0.89408 0.29482 0.0
H121 H 0.90855 0.90616 0.22209 0.0
H122 H 0.76144 0.93254 0.26955 0.0
C123 C 0.94369 0.8309 0.27558 0.0
C124 C 0.90627 0.81611 0.28302 0.0
C125 C 0.80248 0.83272 0.29354 0.0
C126 C 0.83934 0.84718 0.28602 0.0
N127 N 0.90912 0.84607 0.27739 0.0
N128 N 0.83663 0.81762 0.29188 0.0
H129 H 0.99935 0.83049 0.26872 0.0
C130 C 0.64619 0.88246 0.2558 0.0
O131 O 0.68257 0.86829 0.25841 0.0
O132 O 0.06009 0.86627 0.26266 0.0
H133 H 0.81246 0.85928 0.28695 0.0
H134 H 0.96478 0.93298 0.20848 0.0
H135 H 0.74698 0.83345 0.30053 0.0
Zn136 Zn 0.22558 0.64557 1.01443 0.0
C137 C 0.09649 0.62878 0.95756 0.0
N138 N 0.14507 0.63716 0.94329 0.0
C139 C 0.19385 0.64238 0.96057 0.0
N140 N 0.17709 0.63709 0.98428 0.0
N141 N 0.11461 0.62867 0.9825 0.0
C142 C 0.92291 0.62604 1.01701 0.0
O143 O 0.95917 0.63763 0.02959 0.0
O144 O 0.33736 0.64611 1.0105 0.0
Zn145 Zn 0.0711 0.61326 1.00721 0.0
N146 N 0.18374 0.66781 1.01888 0.0
C147 C 0.06925 0.68158 1.02379 0.0
C148 C 0.11002 0.66692 1.02146 0.0
C149 C 0.2191 0.68295 1.01873 0.0
N150 N 0.10394 0.69664 1.02363 0.0
C151 C 0.17786 0.69793 1.02125 0.0
O152 O 0.10328 0.61679 0.04375 0.0
C153 C 0.15358 0.6236 0.057 0.0
O154 O 0.20149 0.63326 0.04715 0.0
H155 H 0.08322 0.6548 1.02142 0.0
H156 H 0.27775 0.68325 1.01625 0.0
C157 C 0.07083 0.57646 1.00549 0.0
C158 C 0.09879 0.56066 0.99787 0.0
C159 C 0.19157 0.57467 0.97436 0.0
C160 C 0.16453 0.59017 0.98225 0.0
N161 N 0.10433 0.59085 0.9974 0.0
N162 N 0.15831 0.56037 0.98233 0.0
H163 H 0.02303 0.57742 1.0175 0.0
C164 C 0.37211 0.63225 1.00833 0.0
O165 O 0.33474 0.61813 1.00777 0.0
O166 O 0.95861 0.61425 1.00616 0.0
H167 H 0.19181 0.60157 0.97632 0.0
H168 H 0.01045 0.68103 1.02571 0.0
H169 H 0.23909 0.57398 0.96216 0.0
Zn170 Zn 0.05773 0.64589 0.28693 0.0
C171 C 0.19958 0.63964 0.34368 0.0
N172 N 0.14999 0.64892 0.35621 0.0
C173 C 0.09325 0.64941 0.3401 0.0
N174 N 0.10815 0.64099 0.31839 0.0
N175 N 0.17462 0.63456 0.32071 0.0
C176 C 0.36161 0.6314 0.29982 0.0
O177 O 0.32441 0.64543 0.29692 0.0
O178 O 0.94712 0.64682 0.29171 0.0
Zn179 Zn 0.21578 0.61738 0.29858 0.0
N180 N 0.0966 0.66756 0.27654 0.0
C181 C 0.20211 0.68111 0.25985 0.0
C182 C 0.16628 0.6666 0.26776 0.0
C183 C 0.06122 0.68264 0.27819 0.0
N184 N 0.16716 0.69611 0.26136 0.0
C185 C 0.09767 0.69748 0.2704 0.0
O186 O 0.19105 0.61978 0.26107 0.0
C187 C 0.13523 0.62335 0.24757 0.0
O188 O 0.07955 0.63077 0.25682 0.0
H189 H 0.19395 0.65459 0.26704 0.0
H190 H 0.00576 0.68295 0.28526 0.0
C191 C 0.20076 0.5808 0.29962 0.0
C192 C 0.16747 0.56552 0.30715 0.0
C193 C 0.08582 0.58103 0.33339 0.0
C194 C 0.11884 0.59601 0.32592 0.0
N195 N 0.17565 0.59568 0.30924 0.0
N196 N 0.11069 0.56625 0.32387 0.0
H197 H 0.24483 0.58103 0.28593 0.0
C198 C 0.91079 0.63324 0.28917 0.0
O199 O 0.94614 0.61926 0.28392 0.0
O200 O 0.32696 0.61752 0.30132 0.0
H201 H 0.0988 0.60781 0.33331 0.0
H202 H 0.25749 0.68049 0.25273 0.0
H203 H 0.04051 0.58114 0.34661 0.0
Zn204 Zn 0.80588 0.36614 0.0355 0.0
C205 C 0.95219 0.37165 0.09066 0.0
N206 N 0.90174 0.36294 0.10372 0.0
C207 C 0.84362 0.36314 0.08821 0.0
N208 N 0.85831 0.37141 0.06636 0.0
N209 N 0.92621 0.3771 0.06797 0.0
C210 C 0.1093 0.38122 0.0329 0.0
O211 O 0.06747 0.3722 1.01785 0.0
O212 O 0.69575 0.36622 0.04097 0.0
Zn213 Zn 0.96824 0.39421 0.04591 0.0
N214 N 0.84243 0.34408 1.02609 0.0
C215 C 0.94938 0.33025 1.01116 0.0
C216 C 0.91209 0.34492 1.01729 0.0
C217 C 0.80783 0.32897 0.02901 0.0
N218 N 0.91548 0.31522 1.0141 0.0
C219 C 0.8456 0.314 1.02281 0.0
O220 O 0.93647 0.3933 1.00864 0.0
C221 C 0.88074 0.38918 0.99543 0.0
O222 O 0.82816 0.3807 1.00483 0.0
H223 H 0.93876 0.35698 1.01548 0.0
H224 H 0.75289 0.32865 0.03658 0.0
C225 C 0.96289 0.43077 0.0492 0.0
C226 C 0.93544 0.44629 0.05827 0.0
C227 C 0.85521 0.43132 0.08575 0.0
C228 C 0.88171 0.41611 0.07647 0.0
N229 N 0.93537 0.41606 0.05855 0.0
N230 N 0.88246 0.44595 0.07647 0.0
H231 H 0.00571 0.43026 0.03506 0.0
C232 C 0.6527 0.36205 1.02303 0.0
O233 O 0.68066 0.35684 1.00138 0.0
O234 O 0.07948 0.39216 0.04724 0.0
H235 H 0.8596 0.40442 0.08362 0.0
H236 H 1.00502 0.33077 1.00426 0.0
H237 H 0.8129 0.43152 0.10013 0.0
Zn238 Zn 0.79843 0.3978 0.75433 0.0
C239 C 0.9178 0.36545 0.71245 0.0
N240 N 0.85897 0.36543 0.69722 0.0
C241 C 0.81037 0.37467 0.71026 0.0
N242 N 0.83797 0.38028 0.73255 0.0
N243 N 0.9052 0.37421 0.73404 0.0
C244 C 0.10286 0.38161 0.76103 0.0
O245 O 0.06719 0.39572 0.76513 0.0
O246 O 0.68718 0.39744 0.75212 0.0
Zn247 Zn 0.95657 0.3691 0.76514 0.0
N248 N 0.83634 0.41926 0.74182 0.0
C249 C 0.91974 0.43364 0.71466 0.0
C250 C 0.8899 0.41873 0.72389 0.0
C251 C 0.8121 0.43427 0.75121 0.0
N252 N 0.89569 0.44856 0.72396 0.0
C253 C 0.84282 0.44946 0.74215 0.0
O254 O 0.93682 0.3843 0.79533 0.0
C255 C 0.8834 0.39239 0.80493 0.0
O256 O 0.82699 0.39626 0.79187 0.0
H257 H 0.90932 0.40683 0.71664 0.0
H258 H 0.7692 0.43423 0.76535 0.0
C259 C 0.94889 0.33225 0.77281 0.0
C260 C 0.9106 0.31758 0.78024 0.0
C261 C 0.81006 0.33461 0.79279 0.0
C262 C 0.84782 0.34897 0.78538 0.0
N263 N 0.91636 0.34759 0.77567 0.0
N264 N 0.84211 0.31935 0.79003 0.0
H265 H 1.0026 0.33156 0.76431 0.0
C266 C 0.65266 0.3836 0.75449 0.0
O267 O 0.68998 0.36967 0.75826 0.0
O268 O 0.06685 0.36791 0.75977 0.0
H269 H 0.82225 0.36118 0.78698 0.0
H270 H 0.96203 0.43337 0.70029 0.0
H271 H 0.75541 0.33556 0.8005 0.0
Zn272 Zn 0.70695 0.14561 1.00516 0.0
C273 C 0.58346 0.11415 0.96319 0.0
N274 N 0.64035 0.11446 0.94715 0.0
C275 C 0.69074 0.12342 0.95986 0.0
N276 N 0.66606 0.12847 0.98288 0.0
N277 N 0.59904 0.12235 0.98504 0.0
C278 C 0.40283 0.12845 1.01393 0.0
O279 O 0.43716 0.14261 1.0189 0.0
O280 O 0.81824 0.14549 1.00262 0.0
Zn281 Zn 0.55066 0.11679 1.01654 0.0
N282 N 0.66694 0.16723 0.99413 0.0
C283 C 0.57744 0.18181 0.96966 0.0
C284 C 0.61061 0.16686 0.97722 0.0
C285 C 0.69152 0.18211 1.00384 0.0
N286 N 0.60178 0.19661 0.9793 0.0
C287 C 0.65814 0.19735 0.99621 0.0
O288 O 0.56997 0.13212 0.04664 0.0
C289 C 0.62464 0.13987 0.05605 0.0
O290 O 0.68073 0.14353 0.04274 0.0
H291 H 0.59103 0.15506 0.9697 0.0
H292 H 0.73525 0.18193 1.0177 0.0
C293 C 0.56289 0.08 1.02493 0.0
C294 C 0.60368 0.0656 0.0321 0.0
C295 C 0.7044 0.08329 0.04222 0.0
C296 C 0.6642 0.09735 0.03506 0.0
N297 N 0.59438 0.09552 0.0267 0.0
N298 N 0.67341 0.06785 0.04054 0.0
H299 H 0.50799 0.07895 1.01749 0.0
C300 C 0.8535 0.13167 1.00385 0.0
O301 O 0.81696 0.11753 1.00641 0.0
O302 O 0.4402 0.11499 1.01173 0.0
H303 H 0.68882 0.10969 0.03583 0.0
H304 H 0.53249 0.18167 0.95627 0.0
H305 H 0.76007 0.08459 0.04887 0.0
Zn306 Zn 0.69671 0.11751 0.28796 0.0
C307 C 0.55324 0.12624 0.34282 0.0
N308 N 0.60136 0.11728 0.35655 0.0
C309 C 0.65936 0.11633 0.34104 0.0
N310 N 0.64677 0.12426 0.31869 0.0
N311 N 0.58023 0.13077 0.31993 0.0
C312 C 0.39331 0.13343 0.29834 0.0
O313 O 0.42974 0.11924 0.29638 0.0
O314 O 0.80718 0.1166 0.29277 0.0
Zn315 Zn 0.53989 0.14766 0.29715 0.0
N316 N 0.65659 0.09546 0.28059 0.0
C317 C 0.5461 0.08154 0.26946 0.0
C318 C 0.58474 0.09626 0.27422 0.0
C319 C 0.6921 0.08038 0.2823 0.0
N320 N 0.581 0.06654 0.27113 0.0
C321 C 0.65312 0.06536 0.27734 0.0
O322 O 0.56927 0.14532 0.25994 0.0
C323 C 0.62285 0.14 0.24666 0.0
O324 O 0.67387 0.13111 0.25629 0.0
H325 H 0.5576 0.10833 0.27312 0.0
H326 H 0.74899 0.08016 0.28787 0.0
C327 C 0.54838 0.18426 0.29918 0.0
C328 C 0.57794 0.19977 0.30744 0.0
C329 C 0.66098 0.18479 0.33394 0.0
C330 C 0.63232 0.16958 0.32546 0.0
N331 N 0.57624 0.16953 0.30845 0.0
N332 N 0.63334 0.19943 0.32477 0.0
H333 H 0.50363 0.18377 0.28575 0.0
C334 C 0.84404 0.13002 0.28933 0.0
O335 O 0.80926 0.14392 0.28315 0.0
O336 O 0.42861 0.14725 0.29916 0.0
H337 H 0.65467 0.15789 0.33253 0.0
H338 H 0.48875 0.08201 0.2645 0.0
H339 H 0.70524 0.18499 0.3476 0.0
Zn340 Zn 0.45508 0.89501 0.03841 0.0
C341 C 0.30861 0.89039 0.09397 0.0
N342 N 0.35881 0.89946 0.1066 0.0
C343 C 0.4166 0.89929 0.09097 0.0
N344 N 0.4019 0.89068 0.06943 0.0
N345 N 0.33442 0.88478 0.07137 0.0
C346 C 0.15264 0.88122 0.03913 0.0
O347 O 0.19521 0.8917 0.02671 0.0
O348 O 0.5651 0.89509 0.04456 0.0
Zn349 Zn 0.29334 0.86739 0.04957 0.0
N350 N 0.41871 0.91677 0.02694 0.0
C351 C 0.31673 0.92995 1.00707 0.0
C352 C 0.35277 0.91553 1.01518 0.0
C353 C 0.45032 0.93208 0.03114 0.0
N354 N 0.34774 0.94517 1.01123 0.0
C355 C 0.41361 0.94683 1.02305 0.0
O356 O 0.32305 0.86864 1.01217 0.0
C357 C 0.37994 0.87191 0.99903 0.0
O358 O 0.43491 0.87949 1.00854 0.0
H359 H 0.32767 0.90338 1.01252 0.0
H360 H 0.50185 0.93273 0.0412 0.0
C361 C 0.30821 0.83084 0.0513 0.0
C362 C 0.33863 0.81556 0.06021 0.0
C363 C 0.40949 0.83104 0.09007 0.0
C364 C 0.37945 0.84602 0.08118 0.0
N365 N 0.32921 0.8457 0.06207 0.0
N366 N 0.38857 0.81627 0.07943 0.0
H367 H 0.26975 0.83108 0.03566 0.0
C368 C 0.60898 0.89976 0.02716 0.0
O369 O 0.582 0.90542 1.00558 0.0
O370 O 0.18189 0.86897 0.05104 0.0
H371 H 0.39652 0.85781 0.08947 0.0
H372 H 0.26411 0.92909 0.99776 0.0
H373 H 0.44943 0.83114 0.10527 0.0
Zn374 Zn 0.30109 0.89793 0.76828 0.0
C375 C 0.4421 0.89133 0.7118 0.0
N376 N 0.39106 0.90005 0.69901 0.0
C377 C 0.33416 0.9002 0.71502 0.0
N378 N 0.35023 0.89215 0.73696 0.0
N379 N 0.41775 0.88629 0.73492 0.0
C380 C 0.60491 0.88354 0.75584 0.0
O381 O 0.56769 0.89765 0.75758 0.0
O382 O 0.1905 0.89893 0.76365 0.0
Zn383 Zn 0.45899 0.86926 0.75732 0.0
N384 N 0.34141 0.91973 0.7769 0.0
C385 C 0.45124 0.9334 0.78943 0.0
C386 C 0.41272 0.91878 0.78395 0.0
C387 C 0.30645 0.93485 0.77508 0.0
N388 N 0.41685 0.94846 0.78765 0.0
C389 C 0.34535 0.94977 0.78068 0.0
O390 O 0.43201 0.87113 0.79485 0.0
C391 C 0.37723 0.87534 0.80842 0.0
O392 O 0.32356 0.88355 0.7992 0.0
H393 H 0.43967 0.90668 0.78494 0.0
H394 H 0.25013 0.9352 0.76884 0.0
C395 C 0.4432 0.83292 0.75701 0.0
C396 C 0.41238 0.81749 0.74902 0.0
C397 C 0.33703 0.83249 0.71988 0.0
C398 C 0.36782 0.84761 0.72778 0.0
N399 N 0.42044 0.84759 0.74609 0.0
N400 N 0.3599 0.81788 0.73061 0.0
H401 H 0.48363 0.83348 0.77199 0.0
C402 C 0.15412 0.88541 0.76681 0.0
O403 O 0.18944 0.87152 0.77265 0.0
O404 O 0.5703 0.86963 0.75516 0.0
H405 H 0.34953 0.85927 0.71934 0.0
H406 H 0.50815 0.93282 0.79495 0.0
H407 H 0.29513 0.83234 0.70534 0.0
Zn408 Zn 0.56132 0.61531 0.5151 0.0
C409 C 0.70283 0.62494 0.45951 0.0
N410 N 0.65367 0.6165 0.44548 0.0
C411 C 0.59716 0.61475 0.46146 0.0
N412 N 0.61171 0.62167 0.48436 0.0
N413 N 0.67775 0.6284 0.48311 0.0
C414 C 0.86517 0.63119 0.50343 0.0
O415 O 0.8297 0.61683 0.5046 0.0
O416 O 0.45086 0.61427 0.50983 0.0
Zn417 Zn 0.71852 0.6433 0.50873 0.0
N418 N 0.60162 0.59339 0.52361 0.0
C419 C 0.71099 0.5792 0.53547 0.0
C420 C 0.67417 0.5939 0.52905 0.0
C421 C 0.5642 0.57854 0.52378 0.0
N422 N 0.67404 0.56443 0.53578 0.0
C423 C 0.6016 0.5635 0.52999 0.0
O424 O 0.69946 0.63602 0.54536 0.0
C425 C 0.64035 0.63336 0.55758 0.0
O426 O 0.58089 0.62971 0.54622 0.0
H427 H 0.70334 0.60568 0.52824 0.0
H428 H 0.5065 0.57854 0.51933 0.0
C429 C 0.70351 0.68027 0.50881 0.0
C430 C 0.66156 0.69521 0.50728 0.0
C431 C 0.55658 0.6788 0.49765 0.0
C432 C 0.59795 0.66417 0.49937 0.0
N433 N 0.67044 0.66509 0.50484 0.0
N434 N 0.5891 0.69388 0.50172 0.0
H435 H 0.76083 0.6806 0.51381 0.0
C436 C 0.41339 0.62743 0.5146 0.0
O437 O 0.44738 0.64101 0.52258 0.0
O438 O 0.82891 0.64488 0.50437 0.0
H439 H 0.57201 0.65209 0.49683 0.0
H440 H 0.76867 0.57948 0.53998 0.0
H441 H 0.49879 0.67818 0.49339 0.0
Zn442 Zn 0.55947 0.64884 0.79419 0.0
C443 C 0.69738 0.6311 0.84785 0.0
N444 N 0.65141 0.63938 0.86325 0.0
C445 C 0.60009 0.64487 0.84707 0.0
N446 N 0.61301 0.63986 0.82294 0.0
N447 N 0.6755 0.63136 0.8233 0.0
C448 C 0.8603 0.62996 0.78446 0.0
O449 O 0.81919 0.64019 0.77096 0.0
O450 O 0.448 0.6472 0.79909 0.0
Zn451 Zn 0.71681 0.6167 0.79717 0.0
N452 N 0.59532 0.67171 0.79151 0.0
C453 C 0.70652 0.68704 0.78836 0.0
C454 C 0.66938 0.67184 0.78975 0.0
C455 C 0.55612 0.68633 0.79161 0.0
N456 N 0.66801 0.7016 0.78849 0.0
C457 C 0.5937 0.70185 0.78997 0.0
O458 O 0.68263 0.6217 0.76109 0.0
C459 C 0.63226 0.62939 0.74899 0.0
O460 O 0.58525 0.63854 0.76028 0.0
H461 H 0.69937 0.66011 0.78959 0.0
H462 H 0.49726 0.68582 0.79327 0.0
C463 C 0.71794 0.57958 0.79794 0.0
C464 C 0.68971 0.56378 0.80555 0.0
C465 C 0.59622 0.5778 0.82866 0.0
C466 C 0.62355 0.59328 0.82085 0.0
N467 N 0.68426 0.59398 0.80594 0.0
N468 N 0.62973 0.56351 0.82087 0.0
H469 H 0.76612 0.58049 0.78611 0.0
C470 C 0.40471 0.65174 0.78135 0.0
O471 O 0.43265 0.65828 0.76052 0.0
O472 O 0.8293 0.61835 0.79732 0.0
H473 H 0.59613 0.60467 0.82671 0.0
H474 H 0.76551 0.68731 0.7871 0.0
H475 H 0.54835 0.57712 0.84069 0.0
Zn476 Zn 0.45334 0.39369 0.5357 0.0
C477 C 0.3103 0.38696 0.59121 0.0
N478 N 0.35981 0.39578 0.60451 0.0
C479 C 0.4178 0.3961 0.58894 0.0
N480 N 0.40375 0.38797 0.56689 0.0
N481 N 0.33649 0.38194 0.56842 0.0
C482 C 0.14972 0.37884 0.54722 0.0
O483 O 0.18602 0.39299 0.54439 0.0
O484 O 0.56355 0.39519 0.54069 0.0
Zn485 Zn 0.29607 0.36497 0.54586 0.0
N486 N 0.41161 0.41521 0.52612 0.0
C487 C 0.30355 0.42835 0.51066 0.0
C488 C 0.34153 0.41396 0.5178 0.0
C489 C 0.44545 0.43046 0.52796 0.0
N490 N 0.33695 0.44353 0.51238 0.0
C491 C 0.40689 0.44518 0.52092 0.0
O492 O 0.3227 0.36739 0.50833 0.0
C493 C 0.37898 0.37128 0.49526 0.0
O494 O 0.43341 0.37891 0.50503 0.0
H495 H 0.31524 0.40179 0.51687 0.0
H496 H 0.50135 0.43097 0.53459 0.0
C497 C 0.30816 0.32845 0.5477 0.0
C498 C 0.34059 0.3131 0.55531 0.0
C499 C 0.42525 0.32843 0.58062 0.0
C500 C 0.39302 0.34349 0.57308 0.0
N501 N 0.33515 0.34328 0.55682 0.0
N502 N 0.3985 0.31369 0.57159 0.0
H503 H 0.26325 0.32876 0.53432 0.0
C504 C 0.60085 0.38176 0.53792 0.0
O505 O 0.56656 0.3677 0.53232 0.0
O506 O 0.18512 0.36505 0.54854 0.0
H507 H 0.41458 0.35525 0.58008 0.0
H508 H 0.24779 0.42751 0.50394 0.0
H509 H 0.47141 0.32844 0.59351 0.0
Zn510 Zn 0.30963 0.39681 0.26367 0.0
C511 C 0.45119 0.3888 0.20796 0.0
N512 N 0.40108 0.39759 0.19485 0.0
C513 C 0.34382 0.39805 0.21068 0.0
N514 N 0.35874 0.39008 0.23278 0.0
N515 N 0.42592 0.38394 0.23103 0.0
C516 C 0.61339 0.3818 0.25223 0.0
O517 O 0.57601 0.39591 0.25314 0.0
O518 O 0.19904 0.39766 0.25892 0.0
Zn519 Zn 0.46749 0.36711 0.2539 0.0
N520 N 0.35013 0.41886 0.27111 0.0
C521 C 0.46166 0.43253 0.28169 0.0
C522 C 0.42227 0.41791 0.27702 0.0
C523 C 0.31502 0.43402 0.26984 0.0
N524 N 0.42722 0.44761 0.2804 0.0
C525 C 0.35483 0.44895 0.27468 0.0
O526 O 0.43788 0.36923 0.2912 0.0
C527 C 0.38401 0.37427 0.30459 0.0
O528 O 0.33244 0.38306 0.29513 0.0
H529 H 0.44907 0.40579 0.2778 0.0
H530 H 0.25783 0.43439 0.26466 0.0
C531 C 0.45945 0.33042 0.25227 0.0
C532 C 0.43055 0.31486 0.24392 0.0
C533 C 0.34852 0.32971 0.21687 0.0
C534 C 0.37664 0.34496 0.22539 0.0
N535 N 0.43182 0.3451 0.24275 0.0
N536 N 0.37593 0.31511 0.22629 0.0
H537 H 0.50361 0.33098 0.26593 0.0
C538 C 0.16304 0.38407 0.26191 0.0
O539 O 0.19877 0.37021 0.26761 0.0
O540 O 0.57896 0.36786 0.2522 0.0
H541 H 0.35463 0.35661 0.21805 0.0
H542 H 0.51925 0.43193 0.28627 0.0
H543 H 0.30493 0.32944 0.20295 0.0
H544 H 0.20214 0.30367 0.53882 0.0
H545 H 0.29959 0.20541 0.53501 0.0
H546 H 0.41876 0.28391 0.55229 0.0
H547 H 0.08471 0.22561 0.51984 0.0
H548 H 0.34696 0.23415 0.53746 0.0
H549 H 0.16095 0.27537 0.52799 0.0
C550 C 0.24155 0.29352 0.53909 0.0
C551 C 0.31436 0.29632 0.54647 0.0
C552 C 0.28956 0.23227 0.53333 0.0
C553 C 0.26672 0.26364 0.53456 0.0
C554 C 0.26249 0.21581 0.53172 0.0
C555 C 0.18779 0.21298 0.52724 0.0
C556 C 0.24168 0.24601 0.53054 0.0
C557 C 0.1425 0.2271 0.52362 0.0
C558 C 0.21771 0.27726 0.53308 0.0
C559 C 0.362 0.28241 0.54695 0.0
N560 N 0.16998 0.24294 0.5255 0.0
N561 N 0.33732 0.26671 0.54124 0.0
H562 H 0.92983 0.97764 0.58578 0.0
H563 H 0.0895 0.03203 0.47012 0.0
H564 H 0.99547 0.95602 0.51388 0.0
H565 H 0.01997 0.05351 0.54167 0.0
H566 H 0.05676 1.00416 0.48592 0.0
H567 H 0.96468 1.00536 0.5701 0.0
C568 C 0.95198 0.97866 0.56672 0.0
C569 C 0.95991 0.96431 0.55127 0.0
C570 C 0.04831 0.01497 0.49812 0.0
C571 C 0.99984 0.9963 0.53306 0.0
C572 C 0.06702 0.03095 0.48913 0.0
C573 C 0.05704 0.04531 0.50442 0.0
C574 C 0.0196 0.01318 0.52274 0.0
C575 C 0.02747 0.04299 0.52888 0.0
C576 C 0.97188 0.99456 0.55778 0.0
C577 C 0.98933 0.96655 0.52676 0.0
N578 N 0.01001 0.02725 0.53725 0.0
N579 N 0.00794 0.98223 0.51842 0.0
H580 H 0.29939 0.0575 0.79045 0.0
H581 H 0.20095 0.95932 0.78817 0.0
H582 H 0.08415 0.03788 0.80666 0.0
H583 H 0.41477 0.9794 0.7712 0.0
H584 H 0.15377 0.98808 0.79072 0.0
H585 H 0.33912 0.02918 0.77916 0.0
C586 C 0.25992 0.04737 0.79123 0.0
C587 C 0.18799 0.05021 0.79952 0.0
C588 C 0.21086 0.98617 0.78617 0.0
C589 C 0.23403 0.01752 0.78708 0.0
C590 C 0.23778 0.9697 0.7845 0.0
C591 C 0.31218 0.96686 0.77951 0.0
C592 C 0.25861 0.99989 0.7829 0.0
C593 C 0.35725 0.98094 0.77539 0.0
C594 C 0.28296 0.03111 0.78495 0.0
C595 C 0.14029 0.03633 0.80061 0.0
N596 N 0.32993 0.99678 0.77733 0.0
N597 N 0.1642 0.02062 0.79463 0.0
H598 H 0.95248 0.209 0.77127 0.0
H599 H 0.05554 0.30706 0.77976 0.0
H600 H 0.17382 0.22768 0.77609 0.0
H601 H 0.83421 0.28834 0.77539 0.0
H602 H 0.10004 0.27808 0.77769 0.0
H603 H 0.90808 0.23798 0.77304 0.0
C604 C 0.99185 0.2191 0.77305 0.0
C605 C 0.06722 0.21576 0.77373 0.0
C606 C 0.04172 0.28035 0.77707 0.0
C607 C 0.01649 0.24911 0.77523 0.0
C608 C 0.0162 0.29695 0.778 0.0
C609 C 0.9408 0.30026 0.77758 0.0
C610 C 0.99163 0.26694 0.77573 0.0
C611 C 0.89278 0.28647 0.77592 0.0
C612 C 0.96638 0.23571 0.77382 0.0
C613 C 0.11527 0.22956 0.77539 0.0
N614 N 0.91893 0.27047 0.77507 0.0
N615 N 0.08916 0.24556 0.77607 0.0
H616 H 0.71356 0.8016 0.54194 0.0
H617 H 0.80222 0.70687 0.49866 0.0
H618 H 0.91151 0.78658 0.50313 0.0
H619 H 0.59036 0.7228 0.52563 0.0
H620 H 0.84648 0.73571 0.50383 0.0
H621 H 0.66972 0.77263 0.5388 0.0
C622 C 0.74773 0.79241 0.53253 0.0
C623 C 0.81656 0.79683 0.52263 0.0
C624 C 0.79036 0.73287 0.50874 0.0
C625 C 0.76678 0.76336 0.51954 0.0
C626 C 0.76522 0.71632 0.50602 0.0
C627 C 0.69239 0.7123 0.51181 0.0
C628 C 0.74256 0.74552 0.51739 0.0
C629 C 0.6468 0.72529 0.52077 0.0
C630 C 0.72269 0.77576 0.53094 0.0
C631 C 0.8583 0.78397 0.51119 0.0
N632 N 0.67255 0.74127 0.52327 0.0
N633 N 0.8329 0.76793 0.51003 0.0
H634 H 0.70075 0.95765 0.26643 0.0
H635 H 0.79734 0.05595 0.26874 0.0
H636 H 0.91555 0.97748 0.25008 0.0
H637 H 0.58507 0.03561 0.28731 0.0
H638 H 0.8449 0.02724 0.26573 0.0
H639 H 0.66073 0.98591 0.27789 0.0
C640 C 0.74007 0.96781 0.26564 0.0
C641 C 0.81198 0.96502 0.25727 0.0
C642 C 0.78808 0.02908 0.27073 0.0
C643 C 0.76556 0.99768 0.26993 0.0
C644 C 0.76094 0.04553 0.27267 0.0
C645 C 0.68683 0.0483 0.27825 0.0
C646 C 0.74084 0.0153 0.27431 0.0
C647 C 0.64234 0.03415 0.28267 0.0
C648 C 0.71686 0.98405 0.27203 0.0
C649 C 0.85944 0.97895 0.25619 0.0
N650 N 0.66983 0.01833 0.28044 0.0
N651 N 0.83535 0.99464 0.26228 0.0
H652 H 0.01516 0.8042 0.25082 0.0
H653 H 0.98886 0.70934 0.30273 0.0
H654 H 0.86979 0.78853 0.31116 0.0
H655 H 0.13245 0.72499 0.24186 0.0
H656 H 0.94341 0.73818 0.30575 0.0
H657 H 0.06007 0.77533 0.24772 0.0
C658 C 0.99334 0.79483 0.2637 0.0
C659 C 0.93883 0.79896 0.28146 0.0
C660 C 0.98462 0.73526 0.29164 0.0
C661 C 0.9891 0.76565 0.27754 0.0
C662 C 0.01015 0.71869 0.28971 0.0
C663 C 0.06439 0.71457 0.27184 0.0
C664 C 0.01354 0.74783 0.27568 0.0
C665 C 0.0909 0.72751 0.25601 0.0
C666 C 0.01857 0.77824 0.26172 0.0
C667 C 0.91162 0.786 0.29711 0.0
N668 N 0.06536 0.74349 0.25832 0.0
N669 N 0.93693 0.76999 0.29477 0.0
H670 H 0.31593 0.70779 0.03755 0.0
H671 H 0.21174 0.80565 0.03509 0.0
H672 H 0.11376 0.72741 1.0071 0.0
H673 H 0.41947 0.78669 0.06185 0.0
H674 H 0.17951 0.77729 1.02143 0.0
H675 H 0.35961 0.73667 0.04308 0.0
C676 C 0.2812 0.71809 0.03154 0.0
C677 C 0.21079 0.71507 1.02189 0.0
C678 C 0.23248 0.77937 0.03007 0.0
C679 C 0.26006 0.74825 0.0287 0.0
C680 C 0.25129 0.79567 0.03774 0.0
C681 C 0.31876 0.79873 0.04968 0.0
C682 C 0.28108 0.76595 0.03446 0.0
C683 C 0.36657 0.785 0.05298 0.0
C684 C 0.306 0.73463 0.03492 0.0
C685 C 0.16806 0.72906 1.0149 0.0
N686 N 0.3467 0.76926 0.04558 0.0
N687 N 0.19307 0.74497 1.01861 0.0
H688 H 0.02332 0.55318 0.04234 0.0
H689 H 0.99934 0.4544 1.01176 0.0
H690 H 0.10478 0.53054 0.97318 0.0
H691 H 0.92791 0.47657 0.08265 0.0
H692 H 0.03549 0.48227 0.99693 0.0
H693 H 0.98235 0.52544 0.05653 0.0
C694 C 0.03159 0.54249 0.0299 0.0
C695 C 0.06731 0.54431 1.00638 0.0
C696 C 0.01217 0.48101 1.01578 0.0
C697 C 0.02181 0.51236 1.02288 0.0
C698 C 0.99212 0.465 1.02443 0.0
C699 C 0.96121 0.46295 0.04874 0.0
C700 C 1.00107 0.49514 0.03143 0.0
C701 C 0.95141 0.47744 0.06378 0.0
C702 C 0.0088 0.52658 0.03817 0.0
C703 C 0.07787 0.52979 0.9915 0.0
N704 N 0.97125 0.49286 0.05491 0.0
N705 N 0.05541 0.51448 0.99999 0.0
H706 H 0.0868 0.53666 0.30469 0.0
H707 H 0.42315 0.47849 0.26362 0.0
H708 H 0.30336 0.55556 0.28877 0.0
H709 H 0.21217 0.45877 0.28517 0.0
H710 H 0.37543 0.50697 0.26783 0.0
H711 H 0.12752 0.50846 0.29304 0.0
C712 C 0.14283 0.53497 0.29857 0.0
C713 C 0.19148 0.54868 0.29776 0.0
C714 C 0.33928 0.49644 0.27142 0.0
C715 C 0.23854 0.51618 0.28434 0.0
C716 C 0.36647 0.48011 0.26903 0.0
C717 C 0.32185 0.4661 0.27413 0.0
C718 C 0.26675 0.49893 0.27915 0.0
C719 C 0.24864 0.4691 0.28079 0.0
C720 C 0.16593 0.51881 0.29187 0.0
C721 C 0.26324 0.54558 0.28944 0.0
N722 N 0.22361 0.48518 0.28333 0.0
N723 N 0.28457 0.52968 0.28323 0.0
H724 H 0.91653 0.28479 0.03359 0.0
H725 H 0.57637 0.22599 0.99962 0.0
H726 H 0.70133 0.30408 1.01668 0.0
H727 H 0.79467 0.20742 1.01357 0.0
H728 H 0.61725 0.25428 1.0107 0.0
H729 H 0.86858 0.25622 0.03161 0.0
C730 C 0.85888 0.28304 0.02971 0.0
C731 C 0.81306 0.29692 1.02516 0.0
C732 C 0.656 0.24399 1.01161 0.0
C733 C 0.75771 0.26405 1.02264 0.0
C734 C 0.6328 0.22779 1.00523 0.0
C735 C 0.68198 0.21417 1.0056 0.0
C736 C 0.72923 0.24673 1.0183 0.0
C737 C 0.75425 0.21736 1.01325 0.0
C738 C 0.83154 0.26668 0.02859 0.0
C739 C 0.73869 0.29382 1.0205 0.0
N740 N 0.7757 0.23331 1.01909 0.0
N741 N 0.71351 0.2777 1.01908 0.0
H742 H 0.68562 0.53402 0.83117 0.0
H743 H 0.85549 0.47962 0.71755 0.0
H744 H 0.76314 0.55585 0.76086 0.0
H745 H 0.78148 0.4583 0.78874 0.0
H746 H 0.82459 0.50759 0.73331 0.0
H747 H 0.72402 0.50636 0.81629 0.0
C748 C 0.71131 0.53304 0.81265 0.0
C749 C 0.72119 0.54739 0.79732 0.0
C750 C 0.81488 0.49679 0.74544 0.0
C751 C 0.76496 0.51552 0.77999 0.0
C752 C 0.83248 0.48075 0.73647 0.0
C753 C 0.82042 0.4664 0.75163 0.0
C754 C 0.78508 0.49863 0.76988 0.0
C755 C 0.79039 0.4688 0.77599 0.0
C756 C 0.7332 0.5172 0.80416 0.0
C757 C 0.75521 0.54527 0.77356 0.0
N758 N 0.77383 0.48458 0.78431 0.0
N759 N 0.77542 0.52962 0.76557 0.0
H760 H 0.68236 0.03663 0.02761 0.0
H761 H 0.33513 0.97562 0.02895 0.0
H762 H 0.45976 0.05432 0.03367 0.0
H763 H 0.55766 0.95768 1.02546 0.0
H764 H 0.38018 1.00442 0.03142 0.0
H765 H 0.63783 0.00775 0.02713 0.0
C766 C 0.624 0.0345 0.02877 0.0
C767 C 0.5749 0.04809 0.0305 0.0
C768 C 0.41927 0.9942 0.03027 0.0
C769 C 0.52346 0.01479 0.03001 0.0
C770 C 0.39363 0.97771 0.02885 0.0
C771 C 0.44258 0.96411 0.02702 0.0
C772 C 0.49467 0.99728 0.0297 0.0
C773 C 0.51775 0.96767 0.02718 0.0
C774 C 0.59868 0.01794 0.02849 0.0
C775 C 0.4999 0.0444 0.03182 0.0
N776 N 0.54143 0.98392 0.02833 0.0
N777 N 0.4766 0.02812 0.03157 0.0
H778 H 0.51039 0.20774 0.26147 0.0
H779 H 0.49732 0.30694 0.29009 0.0
H780 H 0.58861 0.2302 0.33128 0.0
H781 H 0.42075 0.28442 0.2201 0.0
H782 H 0.53213 0.27902 0.30533 0.0
H783 H 0.4756 0.23567 0.24632 0.0
C784 C 0.51935 0.21843 0.27385 0.0
C785 C 0.552 0.21645 0.29791 0.0
C786 C 0.50802 0.28022 0.28658 0.0
C787 C 0.51356 0.24869 0.28025 0.0
C788 C 0.4887 0.29625 0.2777 0.0
C789 C 0.45649 0.29821 0.25356 0.0
C790 C 0.49495 0.26598 0.27131 0.0
C791 C 0.44514 0.28362 0.23885 0.0
C792 C 0.50006 0.23447 0.26502 0.0
C793 C 0.56383 0.23102 0.31259 0.0
N794 N 0.46425 0.2682 0.24794 0.0
N795 N 0.5447 0.24646 0.30356 0.0
H796 H 0.54153 0.80856 0.77368 0.0
H797 H 0.45566 0.71003 0.77163 0.0
H798 H 0.33552 0.788 0.74801 0.0
H799 H 0.64838 0.73189 0.80575 0.0
H800 H 0.40629 0.7384 0.76549 0.0
H801 H 0.57761 0.78065 0.78788 0.0
C802 C 0.50306 0.79834 0.77138 0.0
C803 C 0.43486 0.80084 0.75964 0.0
C804 C 0.459 0.73694 0.77461 0.0
C805 C 0.47727 0.76849 0.77545 0.0
C806 C 0.48702 0.72071 0.77833 0.0
C807 C 0.5566 0.7185 0.78915 0.0
C808 C 0.50098 0.75105 0.78163 0.0
C809 C 0.59496 0.73293 0.79702 0.0
C810 C 0.52414 0.78227 0.77938 0.0
C811 C 0.38884 0.78676 0.75674 0.0
N812 N 0.56701 0.74853 0.79291 0.0
N813 N 0.41102 0.77122 0.76441 0.0
H814 H 0.48341 0.55216 0.50163 0.0
H815 H 0.51838 0.45713 0.55211 0.0
H816 H 0.64121 0.53605 0.55783 0.0
H817 H 0.36595 0.47292 0.49388 0.0
H818 H 0.56274 0.48604 0.555 0.0
H819 H 0.43588 0.52344 0.49996 0.0
C820 C 0.50735 0.54272 0.51395 0.0
C821 C 0.56632 0.54664 0.53002 0.0
C822 C 0.51975 0.48314 0.54152 0.0
C823 C 0.51306 0.51355 0.52772 0.0
C824 C 0.49481 0.46654 0.53965 0.0
C825 C 0.43862 0.46241 0.5225 0.0
C826 C 0.48825 0.49576 0.52623 0.0
C827 C 0.40918 0.47542 0.50744 0.0
C828 C 0.48062 0.52623 0.51278 0.0
C829 C 0.59598 0.53364 0.54504 0.0
N830 N 0.43427 0.49145 0.50965 0.0
N831 N 0.56922 0.51773 0.54349 0.0
H832 H 0.24393 0.12224 0.58925 0.0
H833 H 0.00546 0.12271 0.71551 0.0
H834 H 0.01163 0.11291 0.58879 0.0
H835 H 0.23959 0.11617 0.71629 0.0
H836 H 0.00614 0.11925 0.66924 0.0
H837 H 0.2436 0.12013 0.63568 0.0
C838 C 0.19289 0.1196 0.59889 0.0
C839 C 0.1276 0.11784 0.58504 0.0
C840 C 0.05727 0.11839 0.67956 0.0
C841 C 0.12678 0.11562 0.63839 0.0
C842 C 0.05701 0.1204 0.706 0.0
C843 C 0.12266 0.11983 0.71988 0.0
C844 C 0.1238 0.11604 0.66673 0.0
C845 C 0.18765 0.11671 0.70645 0.0
C846 C 0.19281 0.11836 0.62543 0.0
C847 C 0.06326 0.11433 0.59863 0.0
N848 N 0.18667 0.11514 0.68062 0.0
N849 N 0.06431 0.11356 0.62455 0.0
H850 H 0.99367 0.89085 0.34007 0.0
H851 H 0.75536 0.88713 0.46633 0.0
H852 H 0.75911 0.89647 0.33954 0.0
H853 H 0.98654 0.89786 0.46721 0.0
H854 H 0.75547 0.89012 0.41998 0.0
H855 H 0.99258 0.89305 0.38651 0.0
C856 C 0.94193 0.89269 0.34968 0.0
C857 C 0.87631 0.8934 0.3358 0.0
C858 C 0.80603 0.892 0.43032 0.0
C859 C 0.8747 0.89572 0.38916 0.0
C860 C 0.80609 0.89026 0.45681 0.0
C861 C 0.87114 0.89219 0.47076 0.0
C862 C 0.8717 0.89542 0.41751 0.0
C863 C 0.93508 0.8963 0.45731 0.0
C864 C 0.94143 0.89398 0.37623 0.0
C865 C 0.81104 0.89589 0.34938 0.0
N866 N 0.93392 0.89757 0.43144 0.0
N867 N 0.81181 0.89674 0.37529 0.0
H868 H 0.26635 0.62893 0.09047 0.0
H869 H 0.02011 0.6216 0.21427 0.0
H870 H 0.04144 0.61268 0.08746 0.0
H871 H 0.25545 0.6186 0.21723 0.0
H872 H 0.02575 0.61953 0.16781 0.0
H873 H 0.263 0.62654 0.13693 0.0
C874 C 0.21638 0.62477 0.09955 0.0
C875 C 0.15401 0.62104 0.085 0.0
C876 C 0.07609 0.61914 0.17865 0.0
C877 C 0.14966 0.61847 0.13823 0.0
C878 C 0.07295 0.62036 0.20517 0.0
C879 C 0.13743 0.62032 0.2197 0.0
C880 C 0.14424 0.6182 0.16647 0.0
C881 C 0.20433 0.61863 0.20684 0.0
C882 C 0.21462 0.62335 0.12607 0.0
C883 C 0.09089 0.61564 0.09786 0.0
N884 N 0.20606 0.61786 0.18095 0.0
N885 N 0.09007 0.6147 0.12374 0.0
H886 H 0.76286 0.38868 0.96316 0.0
H887 H 1.00158 0.39273 0.83702 0.0
H888 H 0.99506 0.39816 0.96428 0.0
H889 H 0.76736 0.39903 0.83661 0.0
H890 H 1.00068 0.39465 0.88349 0.0
H891 H 0.76317 0.3923 0.91692 0.0
C892 C 0.81387 0.39167 0.95373 0.0
C893 C 0.87913 0.39305 0.96771 0.0
C894 C 0.94957 0.39582 0.87324 0.0
C895 C 0.8799 0.39701 0.91455 0.0
C896 C 0.94998 0.3947 0.84667 0.0
C897 C 0.88437 0.39565 0.83281 0.0
C898 C 0.88294 0.39762 0.88621 0.0
C899 C 0.81928 0.39826 0.84644 0.0
C900 C 0.81393 0.39377 0.9273 0.0
C901 C 0.94343 0.397 0.95436 0.0
N902 N 0.8201 0.39893 0.87236 0.0
N903 N 0.94234 0.39864 0.92853 0.0
H904 H 0.74254 0.14645 0.08688 0.0
H905 H 0.50877 0.14954 0.2158 0.0
H906 H 0.50809 0.14066 0.08884 0.0
H907 H 0.7386 0.13739 0.21375 0.0
H908 H 0.50932 0.15201 0.16928 0.0
H909 H 0.74309 0.14888 0.1334 0.0
C910 C 0.69107 0.14592 0.09702 0.0
C911 C 0.62519 0.14324 0.08388 0.0
C912 C 0.55969 0.14892 0.17907 0.0
C913 C 0.62557 0.14605 0.13716 0.0
C914 C 0.55955 0.14759 0.20564 0.0
C915 C 0.62365 0.14314 0.21876 0.0
C916 C 0.62458 0.14601 0.16548 0.0
C917 C 0.68774 0.14071 0.20447 0.0
C918 C 0.69152 0.14721 0.12359 0.0
C919 C 0.56024 0.14259 0.09814 0.0
N920 N 0.68656 0.14216 0.17865 0.0
N921 N 0.56208 0.14395 0.12396 0.0
H922 H 0.2621 0.86523 0.96818 0.0
H923 H 0.49377 0.86636 0.83861 0.0
H924 H 0.49615 0.87179 0.966 0.0
H925 H 0.26193 0.87614 0.84178 0.0
H926 H 0.49472 0.86288 0.88499 0.0
H927 H 0.26088 0.86363 0.9216 0.0
C928 C 0.31339 0.86607 0.95798 0.0
C929 C 0.37931 0.86874 0.97111 0.0
C930 C 0.4436 0.86567 0.87548 0.0
C931 C 0.37814 0.86695 0.9177 0.0
C932 C 0.4429 0.86759 0.84898 0.0
C933 C 0.37774 0.87167 0.83621 0.0
C934 C 0.37853 0.86763 0.88936 0.0
C935 C 0.31358 0.87314 0.85077 0.0
C936 C 0.31254 0.86527 0.93136 0.0
C937 C 0.44396 0.86983 0.95674 0.0
N938 N 0.31563 0.87115 0.87651 0.0
N939 N 0.44172 0.86898 0.93086 0.0
H940 H 0.75858 0.63188 0.58984 0.0
H941 H 0.52019 0.63804 0.71698 0.0
H942 H 0.52303 0.63483 0.58981 0.0
H943 H 0.74277 0.62002 0.71654 0.0
H944 H 0.52258 0.63926 0.6705 0.0
H945 H 0.75661 0.63028 0.63647 0.0
C946 C 0.70651 0.63234 0.59961 0.0
C947 C 0.64086 0.6335 0.58584 0.0
C948 C 0.57078 0.63495 0.68055 0.0
C949 C 0.63831 0.63162 0.63918 0.0
C950 C 0.56948 0.63425 0.70712 0.0
C951 C 0.63134 0.62888 0.72074 0.0
C952 C 0.63472 0.6305 0.66741 0.0
C953 C 0.69364 0.62412 0.70685 0.0
C954 C 0.70544 0.63129 0.62621 0.0
C955 C 0.575 0.6339 0.59957 0.0
N956 N 0.69393 0.62517 0.68097 0.0
N957 N 0.57545 0.63301 0.62543 0.0
H958 H 0.49818 0.36462 0.33539 0.0
H959 H 0.26174 0.36515 0.46387 0.0
H960 H 0.26776 0.37617 0.33739 0.0
H961 H 0.49616 0.37108 0.46273 0.0
H962 H 0.26217 0.36356 0.41726 0.0
H963 H 0.49694 0.36142 0.38182 0.0
C964 C 0.44715 0.3663 0.34551 0.0
C965 C 0.38307 0.37079 0.33242 0.0
C966 C 0.31352 0.36507 0.42726 0.0
C967 C 0.38132 0.36707 0.38559 0.0
C968 C 0.31341 0.36588 0.45389 0.0
C969 C 0.37899 0.36836 0.46729 0.0
C970 C 0.37974 0.36652 0.41391 0.0
C971 C 0.44422 0.36929 0.45323 0.0
C972 C 0.4466 0.36454 0.37204 0.0
C973 C 0.31863 0.37284 0.34665 0.0
N974 N 0.44293 0.3684 0.42735 0.0
N975 N 0.31942 0.37098 0.37241 0.0
H976 H 0.44543 0.10633 0.35913 0.0
H977 H 0.2766 0.12481 0.46816 0.0
H978 H 0.51069 0.15838 0.35508 0.0
H979 H 0.20816 0.17072 0.43136 0.0
H980 H 0.37362 0.1218 0.4368 0.0
H981 H 0.3567 0.11361 0.39204 0.0
C982 C 0.43916 0.11941 0.36464 0.0
C983 C 0.48467 0.13181 0.35438 0.0
C984 C 0.33835 0.13275 0.43593 0.0
C985 C 0.38696 0.14006 0.39293 0.0
C986 C 0.28454 0.13477 0.45435 0.0
C987 C 0.23521 0.14819 0.45262 0.0
C988 C 0.3418 0.14404 0.41537 0.0
C989 C 0.24574 0.16026 0.43337 0.0
C990 C 0.38994 0.12349 0.38377 0.0
C991 C 0.47558 0.14855 0.36235 0.0
N992 N 0.29743 0.15779 0.41512 0.0
N993 N 0.42778 0.15224 0.38145 0.0
H994 H 0.99582 0.10462 0.45659 0.0
H995 H 0.77533 0.13696 0.33587 0.0
H996 H 0.96499 0.15659 0.43548 0.0
H997 H 0.70322 0.09206 0.37452 0.0
H998 H 0.87396 0.13983 0.36663 0.0
H999 H 0.90585 0.09641 0.42388 0.0
C1000 C 0.96841 0.1143 0.44574 0.0
C1001 C 0.98726 0.13131 0.44879 0.0
C1002 C 0.83777 0.12907 0.36802 0.0
C1003 C 0.88893 0.12203 0.4107 0.0
C1004 C 0.78283 0.12714 0.34995 0.0
C1005 C 0.73219 0.11404 0.3523 0.0
C1006 C 0.84144 0.11796 0.38881 0.0
C1007 C 0.74201 0.10222 0.37196 0.0
C1008 C 0.91822 0.1096 0.42682 0.0
C1009 C 0.95169 0.14335 0.43374 0.0
N1010 N 0.79506 0.10457 0.3898 0.0
N1011 N 0.90518 0.13847 0.41512 0.0
H1012 H 0.28045 0.16083 0.87033 0.0
H1013 H 0.53059 0.09032 0.93068 0.0
H1014 H 0.24985 0.10908 0.84824 0.0
H1015 H 0.47477 0.13691 0.96788 0.0
H1016 H 0.43405 0.09563 0.89908 0.0
H1017 H 0.36702 0.15183 0.9028 0.0
C1018 C 0.29369 0.14756 0.87188 0.0
C1019 C 0.25851 0.13569 0.85648 0.0
C1020 C 0.4414 0.10436 0.91471 0.0
C1021 C 0.3555 0.12517 0.89429 0.0
C1022 C 0.49551 0.10122 0.93295 0.0
C1023 C 0.50966 0.11304 0.95223 0.0
C1024 C 0.40279 0.11961 0.91558 0.0
C1025 C 0.46435 0.12721 0.95389 0.0
C1026 C 0.34202 0.1424 0.89072 0.0
C1027 C 0.27673 0.11863 0.85945 0.0
N1028 N 0.41398 0.13026 0.93551 0.0
N1029 N 0.32399 0.11381 0.87819 0.0
H1030 H 0.97469 0.1274 0.83425 0.0
H1031 H 0.75036 0.15541 0.95696 0.0
H1032 H 0.0306 0.1731 0.87391 0.0
H1033 H 0.77659 0.10443 0.93046 0.0
H1034 H 0.83807 0.16484 0.92439 0.0
H1035 H 0.87606 0.12261 0.8643 0.0
C1036 C 0.96354 0.13696 0.84841 0.0
C1037 C 0.00965 0.15089 0.85117 0.0
C1038 C 0.82517 0.15158 0.92605 0.0
C1039 C 0.90062 0.14476 0.88707 0.0
C1040 C 0.77625 0.14616 0.94491 0.0
C1041 C 0.75697 0.1291 0.94654 0.0
C1042 C 0.85303 0.13982 0.90857 0.0
C1043 C 0.79037 0.11769 0.92989 0.0
C1044 C 0.90864 0.13394 0.86612 0.0
C1045 C 0.99533 0.16232 0.87098 0.0
N1046 N 0.83598 0.12327 0.91145 0.0
N1047 N 0.94259 0.15889 0.88851 0.0
H1048 H 0.50622 0.85969 0.71036 0.0
H1049 H 0.7195 0.88575 0.58415 0.0
H1050 H 0.5239 0.91015 0.6807 0.0
H1051 H 0.78648 0.8423 0.6276 0.0
H1052 H 0.62136 0.89065 0.61454 0.0
H1053 H 0.59329 0.85009 0.67779 0.0
C1054 C 0.52997 0.86881 0.69759 0.0
C1055 C 0.5084 0.88576 0.69837 0.0
C1056 C 0.65645 0.87979 0.61713 0.0
C1057 C 0.60381 0.87478 0.66036 0.0
C1058 C 0.71132 0.87673 0.59937 0.0
C1059 C 0.76074 0.86351 0.60326 0.0
C1060 C 0.65134 0.86963 0.63898 0.0
C1061 C 0.74901 0.85258 0.62393 0.0
C1062 C 0.57856 0.86329 0.67873 0.0
C1063 C 0.53937 0.89697 0.68081 0.0
N1064 N 0.69608 0.85602 0.64135 0.0
N1065 N 0.58468 0.89127 0.66237 0.0
H1066 H 0.22562 0.87756 0.72109 0.0
H1067 H 0.0101 0.90496 0.59587 0.0
H1068 H 0.28112 0.92326 0.68127 0.0
H1069 H 0.02507 0.85441 0.62526 0.0
H1070 H 0.09704 0.91428 0.6286 0.0
H1071 H 0.12851 0.87243 0.69052 0.0
C1072 C 0.21463 0.88704 0.70676 0.0
C1073 C 0.26033 0.90106 0.70408 0.0
C1074 C 0.08185 0.90111 0.62757 0.0
C1075 C 0.15317 0.89455 0.66762 0.0
C1076 C 0.03322 0.89575 0.6086 0.0
C1077 C 0.01044 0.87889 0.6078 0.0
C1078 C 0.10638 0.88952 0.64593 0.0
C1079 C 0.04125 0.86754 0.62521 0.0
C1080 C 0.16067 0.88383 0.68875 0.0
C1081 C 0.24621 0.91241 0.68412 0.0
N1082 N 0.08675 0.87308 0.64372 0.0
N1083 N 0.19447 0.90879 0.66632 0.0
H1084 H 0.46595 0.9235 0.12344 0.0
H1085 H 0.71487 0.85433 0.18669 0.0
H1086 H 0.5287 0.87723 0.08657 0.0
H1087 H 0.75121 0.90641 0.20579 0.0
H1088 H 0.62837 0.863 0.15395 0.0
H1089 H 0.56188 0.91885 0.15549 0.0
C1090 C 0.50226 0.91281 0.12139 0.0
C1091 C 0.48999 0.90082 0.10218 0.0
C1092 C 0.65454 0.87257 0.16547 0.0
C1093 C 0.59622 0.89502 0.1393 0.0
C1094 C 0.70274 0.86762 0.18447 0.0
C1095 C 0.73958 0.87968 0.19905 0.0
C1096 C 0.64283 0.88976 0.16093 0.0
C1097 C 0.7229 0.89675 0.19521 0.0
C1098 C 0.55607 0.91005 0.13987 0.0
C1099 C 0.53712 0.88696 0.10071 0.0
N1100 N 0.67571 0.90135 0.17632 0.0
N1101 N 0.58706 0.88425 0.11937 0.0
H1102 H 0.24274 0.85892 0.09616 0.0
H1103 H 0.0255 0.88754 0.22016 0.0
H1104 H 0.2259 0.90983 0.12389 0.0
H1105 H 0.96562 0.84217 0.18035 0.0
H1106 H 0.12345 0.89212 0.18975 0.0
H1107 H 0.15484 0.84994 0.12883 0.0
C1108 C 0.21908 0.86827 0.10852 0.0
C1109 C 0.24138 0.88515 0.10722 0.0
C1110 C 0.09011 0.88092 0.18795 0.0
C1111 C 0.14453 0.8749 0.14531 0.0
C1112 C 0.03559 0.87801 0.20586 0.0
C1113 C 0.98854 0.86423 0.20316 0.0
C1114 C 0.09688 0.87013 0.1669 0.0
C1115 C 1.00159 0.85283 0.18322 0.0
C1116 C 0.16989 0.8631 0.12744 0.0
C1117 C 0.21007 0.89668 0.12421 0.0
N1118 N 0.05402 0.85614 0.16553 0.0
N1119 N 0.16411 0.89132 0.1427 0.0
H1120 H 0.22816 0.67351 0.94243 0.0
H1121 H 0.46884 0.62982 0.84327 0.0
H1122 H 0.31481 0.62384 0.95561 0.0
H1123 H 0.57812 0.67262 0.87626 0.0
H1124 H 0.37057 0.63303 0.87455 0.0
H1125 H 0.32621 0.67859 0.91105 0.0
C1126 C 0.27015 0.66406 0.9397 0.0
C1127 C 0.26519 0.64843 0.95208 0.0
C1128 C 0.41482 0.64209 0.87423 0.0
C1129 C 0.37248 0.65366 0.91543 0.0
C1130 C 0.46988 0.6405 0.8561 0.0
C1131 C 0.53054 0.6512 0.85696 0.0
C1132 C 0.42067 0.65448 0.89314 0.0
C1133 C 0.53126 0.66434 0.87485 0.0
C1134 C 0.32492 0.66686 0.92158 0.0
C1135 C 0.31851 0.63625 0.9471 0.0
N1136 N 0.47738 0.66553 0.89261 0.0
N1137 N 0.36899 0.63895 0.92867 0.0
H1138 H 0.95209 0.63313 0.96669 0.0
H1139 H 0.84178 0.63542 0.83818 0.0
H1140 H 0.10412 0.60664 0.91878 0.0
H1141 H 0.69034 0.60729 0.88426 0.0
H1142 H 0.94175 0.62595 0.86569 0.0
H1143 H 0.85245 0.62465 0.93839 0.0
C1144 C 0.96359 0.62455 0.95123 0.0
C1145 C 0.03538 0.61985 0.94571 0.0
C1146 C 0.88706 0.6212 0.86902 0.0
C1147 C 0.92393 0.61168 0.91196 0.0
C1148 C 0.83041 0.62634 0.85304 0.0
C1149 C 0.75864 0.62151 0.85839 0.0
C1150 C 0.87063 0.61202 0.89113 0.0
C1151 C 0.74556 0.61097 0.87937 0.0
C1152 C 0.90718 0.62003 0.93476 0.0
C1153 C 0.04884 0.61018 0.92384 0.0
N1154 N 0.80081 0.60699 0.89555 0.0
N1155 N 0.99384 0.60683 0.90723 0.0
H1156 H 0.48288 0.63546 0.46906 0.0
H1157 H 0.25877 0.60759 0.34647 0.0
H1158 H 0.54975 0.59159 0.42687 0.0
H1159 H 0.28571 0.65854 0.37311 0.0
H1160 H 0.34784 0.59812 0.37865 0.0
H1161 H 0.3817 0.63941 0.43969 0.0
C1162 C 0.47366 0.62606 0.4545 0.0
C1163 C 0.52343 0.61292 0.45081 0.0
C1164 C 0.33468 0.61138 0.3771 0.0
C1165 C 0.41153 0.61819 0.41572 0.0
C1166 C 0.28502 0.61681 0.35848 0.0
C1167 C 0.26569 0.63389 0.35698 0.0
C1168 C 0.36299 0.62311 0.39452 0.0
C1169 C 0.29948 0.64527 0.37358 0.0
C1170 C 0.41725 0.62862 0.4372 0.0
C1171 C 0.51159 0.60173 0.43049 0.0
N1172 N 0.34571 0.63966 0.39182 0.0
N1173 N 0.45729 0.60476 0.41335 0.0
H1174 H 0.7541 0.65746 0.45538 0.0
H1175 H 0.98193 0.62751 0.33513 0.0
H1176 H 0.79933 0.60601 0.43468 0.0
H1177 H 0.04318 0.67368 0.37251 0.0
H1178 H 0.88423 0.62373 0.36584 0.0
H1179 H 0.84209 0.6669 0.42255 0.0
C1180 C 0.78461 0.6482 0.44461 0.0
C1181 C 0.77048 0.63095 0.44773 0.0
C1182 C 0.9177 0.63496 0.36697 0.0
C1183 C 0.86602 0.64152 0.40964 0.0
C1184 C 0.972 0.63741 0.34885 0.0
C1185 C 0.01951 0.65114 0.35086 0.0
C1186 C 0.91169 0.64616 0.38754 0.0
C1187 C 0.00682 0.66303 0.3702 0.0
C1188 C 0.83345 0.65356 0.42565 0.0
C1189 C 0.8093 0.6194 0.43288 0.0
N1190 N 0.95467 0.66014 0.38818 0.0
N1191 N 0.85439 0.62489 0.41425 0.0
H1192 H 0.51349 0.35701 0.2059 0.0
H1193 H 0.73008 0.38456 0.08134 0.0
H1194 H 0.53686 0.40794 0.17873 0.0
H1195 H 0.79535 0.34019 0.12295 0.0
H1196 H 0.63268 0.3892 0.11203 0.0
H1197 H 0.60141 0.34767 0.1734 0.0
C1198 C 0.53875 0.36627 0.19372 0.0
C1199 C 0.51837 0.38328 0.19508 0.0
C1200 C 0.66722 0.37821 0.11415 0.0
C1201 C 0.61473 0.37265 0.1572 0.0
C1202 C 0.72161 0.37529 0.0962 0.0
C1203 C 0.77026 0.36185 0.09945 0.0
C1204 C 0.66189 0.36771 0.13562 0.0
C1205 C 0.7584 0.35064 0.11976 0.0
C1206 C 0.58782 0.36091 0.1749 0.0
C1207 C 0.55133 0.39471 0.17833 0.0
N1208 N 0.70593 0.35395 0.13741 0.0
N1209 N 0.59701 0.38917 0.1599 0.0
H1210 H 0.03899 0.35155 0.11809 0.0
H1211 H 0.29247 0.42177 0.17772 0.0
H1212 H 0.01593 0.40319 0.09426 0.0
H1213 H 0.23446 0.37547 0.21546 0.0
H1214 H 0.19693 0.4164 0.14583 0.0
H1215 H 0.12574 0.36037 0.15058 0.0
C1216 C 0.05391 0.36474 0.11924 0.0
C1217 C 0.02042 0.37666 0.1034 0.0
C1218 C 0.20359 0.40774 0.16161 0.0
C1219 C 0.1177 0.38698 0.14122 0.0
C1220 C 0.2571 0.41093 0.18002 0.0
C1221 C 0.27035 0.39919 0.19951 0.0
C1222 C 0.16466 0.39254 0.16256 0.0
C1223 C 0.2247 0.3851 0.20125 0.0
C1224 C 0.10233 0.36981 0.1381 0.0
C1225 C 0.04102 0.3936 0.10584 0.0
N1226 N 0.1749 0.382 0.18271 0.0
N1227 N 0.08824 0.39833 0.12462 0.0
H1228 H 0.70875 0.35415 0.69101 0.0
H1229 H 0.5309 0.3745 0.58381 0.0
H1230 H 0.76121 0.40671 0.69966 0.0
H1231 H 0.46548 0.41992 0.62243 0.0
H1232 H 0.62857 0.37072 0.61477 0.0
H1233 H 0.62005 0.36148 0.65812 0.0
C1234 C 0.69992 0.36731 0.68642 0.0
C1235 C 0.74187 0.37986 0.69804 0.0
C1236 C 0.59366 0.38169 0.61623 0.0
C1237 C 0.64412 0.38827 0.6594 0.0
C1238 C 0.53954 0.38418 0.59799 0.0
C1239 C 0.49099 0.39771 0.60025 0.0
C1240 C 0.59805 0.3926 0.63723 0.0
C1241 C 0.50243 0.40939 0.61998 0.0
C1242 C 0.65073 0.37145 0.66727 0.0
C1243 C 0.72918 0.39672 0.6913 0.0
N1244 N 0.55431 0.40645 0.63804 0.0
N1245 N 0.68146 0.40049 0.67216 0.0
H1246 H 0.96555 0.34035 0.68114 0.0
H1247 H 0.21334 0.40748 0.6129 0.0
H1248 H 0.02865 0.38777 0.71433 0.0
H1249 H 0.25692 0.35493 0.59931 0.0
H1250 H 0.12463 0.39969 0.6454 0.0
H1251 H 0.06117 0.34395 0.64864 0.0
C1252 C 1.00193 0.35108 0.68233 0.0
C1253 C 0.99033 0.36363 0.70076 0.0
C1254 C 0.1528 0.38981 0.6351 0.0
C1255 C 0.09589 0.36823 0.6631 0.0
C1256 C 0.20226 0.39425 0.61625 0.0
C1257 C 0.24172 0.38182 0.60336 0.0
C1258 C 0.14268 0.37278 0.64122 0.0
C1259 C 0.22647 0.36485 0.6086 0.0
C1260 C 0.05554 0.35323 0.66361 0.0
C1261 C 0.0372 0.37755 0.70105 0.0
N1262 N 0.17813 0.36075 0.62739 0.0
N1263 N 0.08688 0.37964 0.68218 0.0
H1264 H 0.43846 0.15834 0.50561 0.0
H1265 H 0.8014 0.10144 0.50497 0.0
H1266 H 0.43843 0.10443 0.5163 0.0
H1267 H 0.8046 0.1558 0.5049 0.0
H1268 H 0.66774 0.10222 0.50547 0.0
H1269 H 0.57191 0.1576 0.50173 0.0
C1270 C 0.4664 0.14635 0.50709 0.0
C1271 C 0.42705 0.13144 0.51147 0.0
C1272 C 0.69767 0.11399 0.5053 0.0
C1273 C 0.57989 0.13049 0.50695 0.0
C1274 C 0.77408 0.11354 0.50498 0.0
C1275 C 0.81449 0.12857 0.50507 0.0
C1276 C 0.66112 0.12957 0.5056 0.0
C1277 C 0.77587 0.14388 0.50499 0.0
C1278 C 0.54263 0.14593 0.50489 0.0
C1279 C 0.46632 0.11626 0.51309 0.0
N1280 N 0.7015 0.14399 0.5053 0.0
N1281 N 0.54035 0.11619 0.51087 0.0
H1282 H 0.44227 0.16081 0.8 0.0
H1283 H 0.81223 0.10752 0.78887 0.0
H1284 H 0.44951 0.10647 0.80027 0.0
H1285 H 0.80855 0.16161 0.7968 0.0
H1286 H 0.67964 0.10701 0.79325 0.0
H1287 H 0.57579 0.16145 0.79917 0.0
C1288 C 0.47187 0.14899 0.79995 0.0
C1289 C 0.43437 0.13355 0.80006 0.0
C1290 C 0.70767 0.119 0.79411 0.0
C1291 C 0.58777 0.13422 0.79902 0.0
C1292 C 0.78359 0.11932 0.79155 0.0
C1293 C 0.82181 0.13466 0.79229 0.0
C1294 C 0.66908 0.13414 0.79732 0.0
C1295 C 0.78145 0.14951 0.79601 0.0
C1296 C 0.54824 0.14939 0.7995 0.0
C1297 C 0.47591 0.11867 0.80012 0.0
N1298 N 0.7073 0.14888 0.79824 0.0
N1299 N 0.55021 0.11939 0.79946 0.0
H1300 H 0.54091 0.8533 0.49175 0.0
H1301 H 0.20604 0.89384 0.56898 0.0
H1302 H 0.56797 0.87612 0.56572 0.0
H1303 H 0.18317 0.86451 0.50027 0.0
H1304 H 0.33836 0.88837 0.56821 0.0
H1305 H 0.40963 0.85801 0.49468 0.0
C1306 C 0.51926 0.85925 0.5087 0.0
C1307 C 0.56587 0.86432 0.5285 0.0
C1308 C 0.30421 0.88314 0.55335 0.0
C1309 C 0.41452 0.86992 0.53193 0.0
C1310 C 0.22872 0.8863 0.55373 0.0
C1311 C 0.18323 0.87968 0.53461 0.0
C1312 C 0.33446 0.87338 0.53363 0.0
C1313 C 0.21575 0.86991 0.51541 0.0
C1314 C 0.44403 0.86195 0.51037 0.0
C1315 C 0.53421 0.87195 0.55001 0.0
N1316 N 0.28901 0.86712 0.51539 0.0
N1317 N 0.4606 0.87461 0.5511 0.0
H1318 H 0.55225 0.90944 0.25449 0.0
H1319 H 0.18885 0.85279 0.25646 0.0
H1320 H 0.55502 0.85508 0.25517 0.0
H1321 H 0.18979 0.90671 0.26682 0.0
H1322 H 0.3222 0.85342 0.25212 0.0
H1323 H 0.41863 0.90873 0.25507 0.0
C1324 C 0.52484 0.89735 0.25467 0.0
C1325 C 0.5651 0.8823 0.25497 0.0
C1326 C 0.29314 0.86511 0.25531 0.0
C1327 C 0.41179 0.88139 0.25561 0.0
C1328 C 0.21698 0.86476 0.25777 0.0
C1329 C 0.17798 0.8797 0.26221 0.0
C1330 C 0.33062 0.88053 0.25716 0.0
C1331 C 0.21745 0.89485 0.2636 0.0
C1332 C 0.44845 0.89695 0.25504 0.0
C1333 C 0.52638 0.86701 0.2551 0.0
N1334 N 0.29139 0.89487 0.26112 0.0
N1335 N 0.45202 0.86695 0.25547 0.0
H1336 H 0.83368 0.65158 0.03326 0.0
H1337 H 0.45975 0.60557 0.99573 0.0
H1338 H 0.82674 0.60351 0.99505 0.0
H1339 H 0.47054 0.65766 1.01872 0.0
H1340 H 0.59322 0.60424 0.99647 0.0
H1341 H 0.7009 0.6536 0.02948 0.0
C1342 C 0.80433 0.6414 1.02409 0.0
C1343 C 0.84183 0.62728 1.01461 0.0
C1344 C 0.56653 0.61599 1.00125 0.0
C1345 C 0.68874 0.62956 1.01024 0.0
C1346 C 0.49013 0.61677 1.00087 0.0
C1347 C 0.4535 0.63175 1.00729 0.0
C1348 C 0.6072 0.63023 1.00837 0.0
C1349 C 0.49619 0.64585 1.01364 0.0
C1350 C 0.72831 0.64262 1.02186 0.0
C1351 C 0.80039 0.61459 1.00277 0.0
N1352 N 0.57057 0.64471 1.01421 0.0
N1353 N 0.72622 0.61599 1.00106 0.0
H1354 H 0.45086 0.6591 0.30011 0.0
H1355 H 0.82078 0.60575 0.2893 0.0
H1356 H 0.45769 0.60476 0.30106 0.0
H1357 H 0.8168 0.65986 0.29698 0.0
H1358 H 0.68811 0.60522 0.29375 0.0
H1359 H 0.58434 0.65969 0.29924 0.0
C1360 C 0.48036 0.64727 0.30021 0.0
C1361 C 0.44275 0.63184 0.3005 0.0
C1362 C 0.71613 0.61722 0.29454 0.0
C1363 C 0.59616 0.63245 0.29942 0.0
C1364 C 0.79207 0.61755 0.29194 0.0
C1365 C 0.83021 0.6329 0.29259 0.0
C1366 C 0.67748 0.63235 0.29769 0.0
C1367 C 0.78978 0.64774 0.29625 0.0
C1368 C 0.55673 0.64763 0.29974 0.0
C1369 C 0.48419 0.61695 0.30075 0.0
N1370 N 0.71566 0.64711 0.29852 0.0
N1371 N 0.55852 0.61763 0.30006 0.0
H1372 H 0.21358 0.39435 0.06538 0.0
H1373 H 0.54639 0.35144 0.99022 0.0
H1374 H 0.18832 0.3617 1.00028 0.0
H1375 H 0.5755 0.37726 0.06181 0.0
H1376 H 0.415 0.35592 0.99346 0.0
H1377 H 0.34606 0.38923 0.06422 0.0
C1378 C 0.23579 0.38615 0.05083 0.0
C1379 C 0.18964 0.3785 0.03284 0.0
C1380 C 0.44991 0.36057 1.00856 0.0
C1381 C 0.34096 0.37259 0.03142 0.0
C1382 C 0.52517 0.35801 1.00671 0.0
C1383 C 0.57231 0.36399 1.02574 0.0
C1384 C 0.421 0.36931 0.02953 0.0
C1385 C 0.54128 0.3724 0.04669 0.0
C1386 C 0.31136 0.38319 0.05024 0.0
C1387 C 0.2215 0.3679 1.01454 0.0
N1388 N 0.46764 0.37489 0.04796 0.0
N1389 N 0.29488 0.36533 1.01427 0.0
H1390 H 0.5638 0.35584 0.75559 0.0
H1391 H 0.19241 0.40914 0.7589 0.0
H1392 H 0.55626 0.41008 0.75092 0.0
H1393 H 0.19771 0.35483 0.75627 0.0
H1394 H 0.32533 0.40964 0.75557 0.0
H1395 H 0.43029 0.35514 0.75542 0.0
C1396 C 0.53414 0.36762 0.75449 0.0
C1397 C 0.57155 0.38306 0.75343 0.0
C1398 C 0.29756 0.3976 0.75563 0.0
C1399 C 0.4181 0.38233 0.75328 0.0
C1400 C 0.22146 0.39729 0.75758 0.0
C1401 C 0.18359 0.3819 0.75802 0.0
C1402 C 0.33665 0.38241 0.75424 0.0
C1403 C 0.22449 0.36698 0.75609 0.0
C1404 C 0.45776 0.3672 0.75435 0.0
C1405 C 0.52992 0.39789 0.75186 0.0
N1406 N 0.29876 0.36761 0.75442 0.0
N1407 N 0.45558 0.39716 0.75196 0.0
H1408 H 0.94811 0.15855 1.00204 0.0
H1409 H 0.31063 0.10147 1.00627 0.0
H1410 H 0.9443 0.10421 1.0041 0.0
H1411 H 0.31089 0.1556 1.01383 0.0
H1412 H 0.17716 0.10218 1.00203 0.0
H1413 H 0.08177 0.15769 1.00281 0.0
C1414 C 0.97529 0.14643 1.00256 0.0
C1415 C 0.93469 0.13144 1.00317 0.0
C1416 C 0.20651 0.1139 1.00458 0.0
C1417 C 0.0881 0.13035 1.00405 0.0
C1418 C 0.28275 0.1135 1.00699 0.0
C1419 C 0.32217 0.12848 1.01059 0.0
C1420 C 0.16935 0.1294 1.00565 0.0
C1421 C 0.28296 0.14371 1.01125 0.0
C1422 C 0.05171 0.14595 1.00305 0.0
C1423 C 0.97317 0.1161 1.00375 0.0
N1424 N 0.20897 0.14376 1.00885 0.0
N1425 N 0.04753 0.11596 1.00423 0.0
H1426 H 0.93626 0.10344 0.29953 0.0
H1427 H 0.29898 0.16038 0.29803 0.0
H1428 H 0.93595 0.15713 0.28664 0.0
H1429 H 0.30236 0.10604 0.30042 0.0
H1430 H 0.16531 0.15957 0.29752 0.0
H1431 H 0.06969 0.10427 0.30349 0.0
C1432 C 0.96413 0.1154 0.29758 0.0
C1433 C 0.9247 0.13022 0.29256 0.0
C1434 C 0.19528 0.14782 0.2982 0.0
C1435 C 0.07754 0.13128 0.29717 0.0
C1436 C 0.2717 0.14827 0.29853 0.0
C1437 C 0.31216 0.13325 0.29908 0.0
C1438 C 0.15878 0.13224 0.29854 0.0
C1439 C 0.27358 0.11795 0.29981 0.0
C1440 C 0.04036 0.11587 0.29983 0.0
C1441 C 0.9639 0.14537 0.29035 0.0
N1442 N 0.19922 0.11783 0.29947 0.0
N1443 N 0.03793 0.1455 0.29263 0.0
H1444 H 0.71667 0.9118 0.9961 0.0
H1445 H 0.04678 0.86566 0.06837 0.0
H1446 H 0.68468 0.88324 0.06517 0.0
H1447 H 0.07496 0.90281 1.00913 0.0
H1448 H 0.91411 0.87059 0.0668 0.0
H1449 H 0.84806 0.90742 0.9999 0.0
C1450 C 0.73725 0.90465 1.01215 0.0
C1451 C 0.68931 0.89787 0.03031 0.0
C1452 C 0.94951 0.87766 0.0542 0.0
C1453 C 0.84061 0.89266 0.03471 0.0
C1454 C 0.02516 0.87481 0.05501 0.0
C1455 C 0.07219 0.88379 0.03879 0.0
C1456 C 0.92069 0.88946 0.03688 0.0
C1457 C 0.04109 0.89557 1.02201 0.0
C1458 C 0.81251 0.90215 1.01433 0.0
C1459 C 0.71954 0.88873 0.05073 0.0
N1460 N 0.96761 0.89799 1.02143 0.0
N1461 N 0.7932 0.8863 0.0523 0.0
H1462 H 0.06391 0.85798 0.76812 0.0
H1463 H 0.69432 0.91119 0.7542 0.0
H1464 H 0.06027 0.91191 0.7578 0.0
H1465 H 0.70084 0.85687 0.75645 0.0
H1466 H 0.82781 0.91177 0.75525 0.0
H1467 H 0.93122 0.85741 0.76373 0.0
C1468 C 0.03527 0.86973 0.76491 0.0
C1469 C 0.07351 0.88504 0.76349 0.0
C1470 C 0.80012 0.89972 0.75543 0.0
C1471 C 0.92076 0.88445 0.75846 0.0
C1472 C 0.72376 0.89936 0.75485 0.0
C1473 C 0.68606 0.88395 0.75538 0.0
C1474 C 0.83945 0.88454 0.75668 0.0
C1475 C 0.7274 0.86905 0.75609 0.0
C1476 C 0.95931 0.86937 0.76236 0.0
C1477 C 0.03316 0.89982 0.75913 0.0
N1478 N 0.80172 0.86973 0.75686 0.0
N1479 N 0.95903 0.89917 0.7569 0.0
H1480 H 0.95886 0.65822 0.50635 0.0
H1481 H 0.32213 0.60151 0.50033 0.0
H1482 H 0.9565 0.60416 0.49773 0.0
H1483 H 0.32132 0.65434 0.51964 0.0
H1484 H 0.18903 0.60264 0.49522 0.0
H1485 H 0.09265 0.65747 0.50699 0.0
C1486 C 0.98639 0.64621 0.50444 0.0
C1487 C 0.94623 0.63122 0.50219 0.0
C1488 C 0.21806 0.61399 0.50054 0.0
C1489 C 0.09955 0.63026 0.50291 0.0
C1490 C 0.29408 0.61335 0.50345 0.0
C1491 C 0.33304 0.62781 0.51065 0.0
C1492 C 0.18068 0.62922 0.50471 0.0
C1493 C 0.29369 0.64283 0.51427 0.0
C1494 C 0.06283 0.64578 0.50487 0.0
C1495 C 0.98505 0.61603 0.4997 0.0
N1496 N 0.21988 0.64313 0.51132 0.0
N1497 N 0.05937 0.61594 0.50021 0.0
H1498 H 0.9641 0.61472 0.81533 0.0
H1499 H 0.29879 0.66327 0.7491 0.0
H1500 H 0.94121 0.6513 0.75503 0.0
H1501 H 0.32646 0.63384 0.81754 0.0
H1502 H 0.16797 0.65781 0.75055 0.0
H1503 H 0.09655 0.62019 0.81595 0.0
C1504 C 0.98676 0.62384 0.80218 0.0
C1505 C 0.94109 0.63254 0.78508 0.0
C1506 C 0.20234 0.65256 0.76536 0.0
C1507 C 0.09271 0.63882 0.78565 0.0
C1508 C 0.27741 0.65568 0.76453 0.0
C1509 C 0.32419 0.64901 0.7832 0.0
C1510 C 0.17291 0.64254 0.7849 0.0
C1511 C 0.29263 0.63927 0.80275 0.0
C1512 C 0.06238 0.627 0.80261 0.0
C1513 C 0.97379 0.64427 0.76858 0.0
N1514 N 0.2191 0.63626 0.80302 0.0
N1515 N 0.04713 0.647 0.76924 0.0
H1516 H 0.05574 0.35188 0.54885 0.0
H1517 H 0.69247 0.40864 0.54681 0.0
H1518 H 0.05862 0.40623 0.54785 0.0
H1519 H 0.69305 0.35467 0.53702 0.0
H1520 H 0.82588 0.40797 0.55106 0.0
H1521 H 0.92209 0.35262 0.54846 0.0
C1522 C 0.02834 0.36397 0.54865 0.0
C1523 C 0.06864 0.37901 0.54819 0.0
C1524 C 0.79673 0.39628 0.54801 0.0
C1525 C 0.91532 0.37996 0.54777 0.0
C1526 C 0.72054 0.39665 0.5456 0.0
C1527 C 0.6814 0.38171 0.54135 0.0
C1528 C 0.83411 0.38084 0.5463 0.0
C1529 C 0.72079 0.36653 0.5401 0.0
C1530 C 0.95195 0.36439 0.54838 0.0
C1531 C 0.02995 0.39431 0.54803 0.0
N1532 N 0.79477 0.3665 0.54251 0.0
N1533 N 0.95559 0.39439 0.54777 0.0
H1534 H 0.07316 0.35658 0.26382 0.0
H1535 H 0.70256 0.40947 0.24961 0.0
H1536 H 0.06855 0.41045 0.25293 0.0
H1537 H 0.70966 0.35521 0.25381 0.0
H1538 H 0.83605 0.41013 0.25045 0.0
H1539 H 0.94035 0.3559 0.25991 0.0
C1540 C 0.04428 0.36829 0.26058 0.0
C1541 C 0.08232 0.38362 0.25885 0.0
C1542 C 0.80849 0.39807 0.25111 0.0
C1543 C 0.92939 0.38292 0.25437 0.0
C1544 C 0.73211 0.39767 0.25066 0.0
C1545 C 0.69457 0.38225 0.25178 0.0
C1546 C 0.84801 0.38294 0.25281 0.0
C1547 C 0.73609 0.36739 0.25299 0.0
C1548 C 0.96825 0.36788 0.25831 0.0
C1549 C 0.04164 0.39836 0.25449 0.0
N1550 N 0.81042 0.36812 0.25359 0.0
N1551 N 0.96744 0.39765 0.25252 0.0
loop_
_geom_bond_atom_site_label_1
_geom_bond_atom_site_label_2
_geom_bond_distance
_geom_bond_site_symmetry_2
_ccdc_geom_bond_type
Zn0 N4 2.020 . S
Zn0 O8 2.019 1_455 S
Zn0 N10 2.119 . S
Zn0 O18 1.975 . S
C1 N2 1.334 . S
C1 N5 1.336 . S
N2 C1 1.334 . S
N2 C3 1.334 . S
C3 N2 1.334 . S
C3 N4 1.336 . S
N4 Zn0 2.020 . S
N4 C3 1.336 . S
N4 N5 1.354 . S
N5 C1 1.336 . S
N5 N4 1.354 . S
N5 Zn9 2.020 . S
C6 O7 1.244 . S
C6 O30 1.257 . S
O7 C6 1.244 . S
O8 Zn0 2.019 1_655 S
O8 C28 1.257 . S
Zn9 N5 2.020 . S
Zn9 O16 1.975 . S
Zn9 N25 2.119 . S
Zn9 O30 2.019 . S
N10 Zn0 2.119 . S
N10 C12 1.334 . S
N10 C13 1.328 . S
C11 C12 1.391 . S
C11 N14 1.329 . S
C11 H32 0.930 . S
C12 N10 1.334 . S
C12 C11 1.391 . S
C12 H19 0.930 . S
C13 N10 1.328 . S
C13 C15 1.392 . S
C13 H20 0.930 1_455 S
N14 C11 1.329 . S
N14 C15 1.331 . S
C15 C13 1.392 . S
C15 N14 1.331 . S
O16 Zn9 1.975 . S
O16 C17 1.252 . S
C17 O16 1.252 . S
C17 O18 1.252 . S
O18 Zn0 1.975 . S
O18 C17 1.252 . S
H19 C12 0.930 . S
H20 C13 0.930 1_655 S
C21 C22 1.392 . S
C21 N25 1.328 . S
C21 H27 0.930 . S
C22 C21 1.392 . S
C22 N26 1.331 . S
C23 C24 1.391 . S
C23 N26 1.329 . S
C23 H33 0.930 . S
C24 C23 1.391 . S
C24 N25 1.334 . S
C24 H31 0.930 . S
N25 Zn9 2.119 . S
N25 C21 1.328 . S
N25 C24 1.334 . S
N26 C22 1.331 . S
N26 C23 1.329 . S
H27 C21 0.930 . S
C28 O8 1.257 . S
C28 O29 1.244 . S
O29 C28 1.244 . S
O30 C6 1.257 . S
O30 Zn9 2.019 . S
H31 C24 0.930 . S
H32 C11 0.930 . S
H33 C23 0.930 . S
Zn34 N38 2.020 . S
Zn34 O42 2.019 1_455 S
Zn34 N44 2.119 . S
Zn34 O52 1.975 . S
C35 N36 1.334 . S
C35 N39 1.336 . S
N36 C35 1.334 . S
N36 C37 1.334 . S
C37 N36 1.334 . S
C37 N38 1.336 . S
N38 Zn34 2.020 . S
N38 C37 1.336 . S
N38 N39 1.354 . S
N39 C35 1.336 . S
N39 N38 1.354 . S
N39 Zn43 2.020 . S
C40 O41 1.244 . S
C40 O64 1.257 . S
O41 C40 1.244 . S
O42 Zn34 2.019 1_655 S
O42 C62 1.257 . S
Zn43 N39 2.020 . S
Zn43 O50 1.975 . S
Zn43 N59 2.119 . S
Zn43 O64 2.019 . S
N44 Zn34 2.119 . S
N44 C46 1.334 . S
N44 C47 1.328 . S
C45 C46 1.391 . S
C45 N48 1.329 . S
C45 H66 0.930 . S
C46 N44 1.334 . S
C46 C45 1.391 . S
C46 H53 0.930 . S
C47 N44 1.328 . S
C47 C49 1.392 . S
C47 H54 0.930 1_455 S
N48 C45 1.329 . S
N48 C49 1.331 . S
C49 C47 1.392 . S
C49 N48 1.331 . S
O50 Zn43 1.975 . S
O50 C51 1.252 . S
C51 O50 1.252 . S
C51 O52 1.252 . S
O52 Zn34 1.975 . S
O52 C51 1.252 . S
H53 C46 0.930 . S
H54 C47 0.930 1_655 S
C55 C56 1.392 . S
C55 N59 1.328 . S
C55 H61 0.930 . S
C56 C55 1.392 . S
C56 N60 1.331 . S
C57 C58 1.391 . S
C57 N60 1.329 . S
C57 H67 0.930 . S
C58 C57 1.391 . S
C58 N59 1.334 . S
C58 H65 0.930 . S
N59 Zn43 2.119 . S
N59 C55 1.328 . S
N59 C58 1.334 . S
N60 C56 1.331 . S
N60 C57 1.329 . S
H61 C55 0.930 . S
C62 O42 1.257 . S
C62 O63 1.244 . S
O63 C62 1.244 . S
O64 C40 1.257 . S
O64 Zn43 2.019 . S
H65 C58 0.930 . S
H66 C45 0.930 . S
H67 C57 0.930 . S
Zn68 N72 2.020 . S
Zn68 O76 2.019 1_655 S
Zn68 N78 2.119 . S
Zn68 O86 1.975 . S
C69 N70 1.334 . S
C69 N73 1.336 . S
N70 C69 1.334 . S
N70 C71 1.334 . S
C71 N70 1.334 . S
C71 N72 1.336 . S
N72 Zn68 2.020 . S
N72 C71 1.336 . S
N72 N73 1.354 . S
N73 C69 1.336 . S
N73 N72 1.354 . S
N73 Zn77 2.020 . S
C74 O75 1.244 . S
C74 O98 1.257 . S
O75 C74 1.244 . S
O76 Zn68 2.019 1_455 S
O76 C96 1.257 . S
Zn77 N73 2.020 . S
Zn77 O84 1.975 . S
Zn77 N93 2.119 . S
Zn77 O98 2.019 . S
N78 Zn68 2.119 . S
N78 C80 1.334 . S
N78 C81 1.328 . S
C79 C80 1.391 . S
C79 N82 1.329 . S
C79 H100 0.930 . S
C80 N78 1.334 . S
C80 C79 1.391 . S
C80 H87 0.930 . S
C81 N78 1.328 . S
C81 C83 1.392 . S
C81 H88 0.930 1_655 S
N82 C79 1.329 . S
N82 C83 1.331 . S
C83 C81 1.392 . S
C83 N82 1.331 . S
O84 Zn77 1.975 . S
O84 C85 1.252 . S
C85 O84 1.252 . S
C85 O86 1.252 . S
O86 Zn68 1.975 . S
O86 C85 1.252 . S
H87 C80 0.930 . S
H88 C81 0.930 1_455 S
C89 C90 1.392 . S
C89 N93 1.328 . S
C89 H95 0.930 . S
C90 C89 1.392 . S
C90 N94 1.331 . S
C91 C92 1.391 . S
C91 N94 1.329 . S
C91 H101 0.930 . S
C92 C91 1.391 . S
C92 N93 1.334 . S
C92 H99 0.930 . S
N93 Zn77 2.119 . S
N93 C89 1.328 . S
N93 C92 1.334 . S
N94 C90 1.331 . S
N94 C91 1.329 . S
H95 C89 0.930 . S
C96 O76 1.257 . S
C96 O97 1.244 . S
O97 C96 1.244 . S
O98 C74 1.257 . S
O98 Zn77 2.019 . S
H99 C92 0.930 . S
H100 C79 0.930 . S
H101 C91 0.930 . S
Zn102 N106 2.020 . S
Zn102 O110 2.019 . S
Zn102 N112 2.119 . S
Zn102 O120 1.975 . S
C103 N104 1.334 . S
C103 N107 1.336 . S
N104 C103 1.334 . S
N104 C105 1.334 . S
C105 N104 1.334 . S
C105 N106 1.336 . S
N106 Zn102 2.020 . S
N106 C105 1.336 . S
N106 N107 1.354 . S
N107 C103 1.336 . S
N107 N106 1.354 . S
N107 Zn111 2.020 . S
C108 O109 1.244 . S
C108 O132 1.257 . S
O109 C108 1.244 . S
O110 Zn102 2.019 . S
O110 C130 1.257 . S
Zn111 N107 2.020 . S
Zn111 O118 1.975 . S
Zn111 N127 2.119 . S
Zn111 O132 2.019 1_655 S
N112 Zn102 2.119 . S
N112 C114 1.334 . S
N112 C115 1.328 . S
C113 C114 1.391 . S
C113 N116 1.329 . S
C113 H134 0.930 . S
C114 N112 1.334 . S
C114 C113 1.391 . S
C114 H121 0.930 . S
C115 N112 1.328 . S
C115 C117 1.392 . S
C115 H122 0.930 . S
N116 C113 1.329 . S
N116 C117 1.331 . S
C117 C115 1.392 . S
C117 N116 1.331 . S
O118 Zn111 1.975 . S
O118 C119 1.252 . S
C119 O118 1.252 . S
C119 O120 1.252 . S
O120 Zn102 1.975 . S
O120 C119 1.252 . S
H121 C114 0.930 . S
H122 C115 0.930 . S
C123 C124 1.392 . S
C123 N127 1.328 . S
C123 H129 0.930 1_655 S
C124 C123 1.392 . S
C124 N128 1.331 . S
C125 C126 1.391 . S
C125 N128 1.329 . S
C125 H135 0.930 . S
C126 C125 1.391 . S
C126 N127 1.334 . S
C126 H133 0.930 . S
N127 Zn111 2.119 . S
N127 C123 1.328 . S
N127 C126 1.334 . S
N128 C124 1.331 . S
N128 C125 1.329 . S
H129 C123 0.930 1_455 S
C130 O110 1.257 . S
C130 O131 1.244 . S
O131 C130 1.244 . S
O132 C108 1.257 . S
O132 Zn111 2.019 1_455 S
H133 C126 0.930 . S
H134 C113 0.930 . S
H135 C125 0.930 . S
Zn136 N140 2.020 . S
Zn136 O144 2.006 1_556 S
Zn136 N146 2.119 . S
Zn136 O154 1.975 1_556 S
C137 N138 1.334 . S
C137 N141 1.336 . S
N138 C137 1.334 . S
N138 C139 1.334 . S
C139 N138 1.334 . S
C139 N140 1.336 . S
N140 Zn136 2.020 . S
N140 C139 1.336 . S
N140 N141 1.354 . S
N141 C137 1.336 . S
N141 N140 1.354 . S
N141 Zn145 2.020 . S
C142 O143 1.244 . S
C142 O166 1.247 1_556 S
O143 C142 1.244 . S
O144 Zn136 2.006 1_554 S
O144 C164 1.247 1_554 S
Zn145 N141 2.020 . S
Zn145 O152 1.975 1_556 S
Zn145 N161 2.119 . S
Zn145 O166 2.006 1_456 S
N146 Zn136 2.119 . S
N146 C148 1.334 . S
N146 C149 1.328 . S
C147 C148 1.384 1_554 S
C147 N150 1.331 . S
C147 H168 0.937 . S
C148 N146 1.334 . S
C148 C147 1.384 1_556 S
C148 H155 0.930 . S
C149 N146 1.328 . S
C149 C151 1.396 . S
C149 H156 0.930 . S
N150 C147 1.331 . S
N150 C151 1.328 1_554 S
C151 C149 1.396 . S
C151 N150 1.328 1_556 S
O152 Zn145 1.975 1_554 S
O152 C153 1.252 . S
C153 O152 1.252 . S
C153 O154 1.252 . S
O154 Zn136 1.975 1_554 S
O154 C153 1.252 . S
H155 C148 0.930 . S
H156 C149 0.930 . S
C157 C158 1.396 . S
C157 N161 1.328 . S
C157 H163 0.930 1_455 S
C158 C157 1.396 . S
C158 N162 1.328 1_556 S
C159 C160 1.384 1_554 S
C159 N162 1.331 . S
C159 H169 0.937 . S
C160 C159 1.384 1_556 S
C160 N161 1.334 . S
C160 H167 0.930 . S
N161 Zn145 2.119 . S
N161 C157 1.328 . S
N161 C160 1.334 . S
N162 C158 1.328 1_554 S
N162 C159 1.331 . S
H163 C157 0.930 1_655 S
C164 O144 1.247 1_556 S
C164 O165 1.244 . S
O165 C164 1.244 . S
O166 C142 1.247 1_554 S
O166 Zn145 2.006 1_654 S
H167 C160 0.930 . S
H168 C147 0.937 . S
H169 C159 0.937 . S
Zn170 N174 2.020 . S
Zn170 O178 2.019 1_455 S
Zn170 N180 2.119 . S
Zn170 O188 1.975 . S
C171 N172 1.334 . S
C171 N175 1.336 . S
N172 C171 1.334 . S
N172 C173 1.334 . S
C173 N172 1.334 . S
C173 N174 1.336 . S
N174 Zn170 2.020 . S
N174 C173 1.336 . S
N174 N175 1.354 . S
N175 C171 1.336 . S
N175 N174 1.354 . S
N175 Zn179 2.020 . S
C176 O177 1.244 . S
C176 O200 1.257 . S
O177 C176 1.244 . S
O178 Zn170 2.019 1_655 S
O178 C198 1.257 . S
Zn179 N175 2.020 . S
Zn179 O186 1.975 . S
Zn179 N195 2.119 . S
Zn179 O200 2.019 . S
N180 Zn170 2.119 . S
N180 C182 1.334 . S
N180 C183 1.328 . S
C181 C182 1.391 . S
C181 N184 1.329 . S
C181 H202 0.930 . S
C182 N180 1.334 . S
C182 C181 1.391 . S
C182 H189 0.930 . S
C183 N180 1.328 . S
C183 C185 1.392 . S
C183 H190 0.930 1_455 S
N184 C181 1.329 . S
N184 C185 1.331 . S
C185 C183 1.392 . S
C185 N184 1.331 . S
O186 Zn179 1.975 . S
O186 C187 1.252 . S
C187 O186 1.252 . S
C187 O188 1.252 . S
O188 Zn170 1.975 . S
O188 C187 1.252 . S
H189 C182 0.930 . S
H190 C183 0.930 1_655 S
C191 C192 1.392 . S
C191 N195 1.328 . S
C191 H197 0.930 . S
C192 C191 1.392 . S
C192 N196 1.331 . S
C193 C194 1.391 . S
C193 N196 1.329 . S
C193 H203 0.930 . S
C194 C193 1.391 . S
C194 N195 1.334 . S
C194 H201 0.930 . S
N195 Zn179 2.119 . S
N195 C191 1.328 . S
N195 C194 1.334 . S
N196 C192 1.331 . S
N196 C193 1.329 . S
H197 C191 0.930 . S
C198 O178 1.257 . S
C198 O199 1.244 . S
O199 C198 1.244 . S
O200 C176 1.257 . S
O200 Zn179 2.019 . S
H201 C194 0.930 . S
H202 C181 0.930 . S
H203 C193 0.930 . S
Zn204 N208 2.020 . S
Zn204 O212 2.006 1_554 S
Zn204 N214 2.119 . S
Zn204 O222 1.975 1_554 S
C205 N206 1.334 . S
C205 N209 1.336 . S
N206 C205 1.334 . S
N206 C207 1.334 . S
C207 N206 1.334 . S
C207 N208 1.336 . S
N208 Zn204 2.020 . S
N208 C207 1.336 . S
N208 N209 1.354 . S
N209 C205 1.336 . S
N209 N208 1.354 . S
N209 Zn213 2.020 . S
C210 O211 1.244 . S
C210 O234 1.247 1_554 S
O211 C210 1.244 . S
O212 Zn204 2.006 1_556 S
O212 C232 1.247 1_556 S
Zn213 N209 2.020 . S
Zn213 O220 1.975 1_554 S
Zn213 N229 2.119 . S
Zn213 O234 2.006 1_654 S
N214 Zn204 2.119 . S
N214 C216 1.334 . S
N214 C217 1.328 . S
C215 C216 1.384 1_556 S
C215 N218 1.331 . S
C215 H236 0.937 . S
C216 N214 1.334 . S
C216 C215 1.384 1_554 S
C216 H223 0.930 . S
C217 N214 1.328 . S
C217 C219 1.396 . S
C217 H224 0.930 . S
N218 C215 1.331 . S
N218 C219 1.328 1_556 S
C219 C217 1.396 . S
C219 N218 1.328 1_554 S
O220 Zn213 1.975 1_556 S
O220 C221 1.252 . S
C221 O220 1.252 . S
C221 O222 1.252 . S
O222 Zn204 1.975 1_556 S
O222 C221 1.252 . S
H223 C216 0.930 . S
H224 C217 0.930 . S
C225 C226 1.396 . S
C225 N229 1.328 . S
C225 H231 0.930 1_655 S
C226 C225 1.396 . S
C226 N230 1.328 1_554 S
C227 C228 1.384 1_556 S
C227 N230 1.331 . S
C227 H237 0.937 . S
C228 C227 1.384 1_554 S
C228 N229 1.334 . S
C228 H235 0.930 . S
N229 Zn213 2.119 . S
N229 C225 1.328 . S
N229 C228 1.334 . S
N230 C226 1.328 1_556 S
N230 C227 1.331 . S
H231 C225 0.930 1_455 S
C232 O212 1.247 1_554 S
C232 O233 1.244 . S
O233 C232 1.244 . S
O234 C210 1.247 1_556 S
O234 Zn213 2.006 1_456 S
H235 C228 0.930 . S
H236 C215 0.937 . S
H237 C227 0.937 . S
Zn238 N242 2.020 . S
Zn238 O246 2.019 . S
Zn238 N248 2.119 . S
Zn238 O256 1.975 . S
C239 N240 1.334 . S
C239 N243 1.336 . S
N240 C239 1.334 . S
N240 C241 1.334 . S
C241 N240 1.334 . S
C241 N242 1.336 . S
N242 Zn238 2.020 . S
N242 C241 1.336 . S
N242 N243 1.354 . S
N243 C239 1.336 . S
N243 N242 1.354 . S
N243 Zn247 2.020 . S
C244 O245 1.244 . S
C244 O268 1.257 . S
O245 C244 1.244 . S
O246 Zn238 2.019 . S
O246 C266 1.257 . S
Zn247 N243 2.020 . S
Zn247 O254 1.975 . S
Zn247 N263 2.119 . S
Zn247 O268 2.019 1_655 S
N248 Zn238 2.119 . S
N248 C250 1.334 . S
N248 C251 1.328 . S
C249 C250 1.391 . S
C249 N252 1.329 . S
C249 H270 0.930 . S
C250 N248 1.334 . S
C250 C249 1.391 . S
C250 H257 0.930 . S
C251 N248 1.328 . S
C251 C253 1.392 . S
C251 H258 0.930 . S
N252 C249 1.329 . S
N252 C253 1.331 . S
C253 C251 1.392 . S
C253 N252 1.331 . S
O254 Zn247 1.975 . S
O254 C255 1.252 . S
C255 O254 1.252 . S
C255 O256 1.252 . S
O256 Zn238 1.975 . S
O256 C255 1.252 . S
H257 C250 0.930 . S
H258 C251 0.930 . S
C259 C260 1.392 . S
C259 N263 1.328 . S
C259 H265 0.930 1_655 S
C260 C259 1.392 . S
C260 N264 1.331 . S
C261 C262 1.391 . S
C261 N264 1.329 . S
C261 H271 0.930 . S
C262 C261 1.391 . S
C262 N263 1.334 . S
C262 H269 0.930 . S
N263 Zn247 2.119 . S
N263 C259 1.328 . S
N263 C262 1.334 . S
N264 C260 1.331 . S
N264 C261 1.329 . S
H265 C259 0.930 1_455 S
C266 O246 1.257 . S
C266 O267 1.244 . S
O267 C266 1.244 . S
O268 C244 1.257 . S
O268 Zn247 2.019 1_455 S
H269 C262 0.930 . S
H270 C249 0.930 . S
H271 C261 0.930 . S
Zn272 N276 2.020 . S
Zn272 O280 2.006 1_556 S
Zn272 N282 2.119 . S
Zn272 O290 1.975 1_556 S
C273 N274 1.334 . S
C273 N277 1.336 . S
N274 C273 1.334 . S
N274 C275 1.334 . S
C275 N274 1.334 . S
C275 N276 1.336 . S
N276 Zn272 2.020 . S
N276 C275 1.336 . S
N276 N277 1.354 . S
N277 C273 1.336 . S
N277 N276 1.354 . S
N277 Zn281 2.020 . S
C278 O279 1.244 . S
C278 O302 1.247 1_556 S
O279 C278 1.244 . S
O280 Zn272 2.006 1_554 S
O280 C300 1.247 1_554 S
Zn281 N277 2.020 . S
Zn281 O288 1.975 1_556 S
Zn281 N297 2.119 . S
Zn281 O302 2.006 1_556 S
N282 Zn272 2.119 . S
N282 C284 1.334 . S
N282 C285 1.328 . S
C283 C284 1.384 1_554 S
C283 N286 1.331 . S
C283 H304 0.937 . S
C284 N282 1.334 . S
C284 C283 1.384 1_556 S
C284 H291 0.930 . S
C285 N282 1.328 . S
C285 C287 1.396 . S
C285 H292 0.930 . S
N286 C283 1.331 . S
N286 C287 1.328 1_554 S
C287 C285 1.396 . S
C287 N286 1.328 1_556 S
O288 Zn281 1.975 1_554 S
O288 C289 1.252 . S
C289 O288 1.252 . S
C289 O290 1.252 . S
O290 Zn272 1.975 1_554 S
O290 C289 1.252 . S
H291 C284 0.930 . S
H292 C285 0.930 . S
C293 C294 1.396 . S
C293 N297 1.328 . S
C293 H299 0.930 . S
C294 C293 1.396 . S
C294 N298 1.328 1_556 S
C295 C296 1.384 1_554 S
C295 N298 1.331 . S
C295 H305 0.937 . S
C296 C295 1.384 1_556 S
C296 N297 1.334 . S
C296 H303 0.930 . S
N297 Zn281 2.119 . S
N297 C293 1.328 . S
N297 C296 1.334 . S
N298 C294 1.328 1_554 S
N298 C295 1.331 . S
H299 C293 0.930 . S
C300 O280 1.247 1_556 S
C300 O301 1.244 . S
O301 C300 1.244 . S
O302 C278 1.247 1_554 S
O302 Zn281 2.006 1_554 S
H303 C296 0.930 . S
H304 C283 0.937 . S
H305 C295 0.937 . S
Zn306 N310 2.020 . S
Zn306 O314 2.019 . S
Zn306 N316 2.119 . S
Zn306 O324 1.975 . S
C307 N308 1.334 . S
C307 N311 1.336 . S
N308 C307 1.334 . S
N308 C309 1.334 . S
C309 N308 1.334 . S
C309 N310 1.336 . S
N310 Zn306 2.020 . S
N310 C309 1.336 . S
N310 N311 1.354 . S
N311 C307 1.336 . S
N311 N310 1.354 . S
N311 Zn315 2.020 . S
C312 O313 1.244 . S
C312 O336 1.257 . S
O313 C312 1.244 . S
O314 Zn306 2.019 . S
O314 C334 1.257 . S
Zn315 N311 2.020 . S
Zn315 O322 1.975 . S
Zn315 N331 2.119 . S
Zn315 O336 2.019 . S
N316 Zn306 2.119 . S
N316 C318 1.334 . S
N316 C319 1.328 . S
C317 C318 1.391 . S
C317 N320 1.329 . S
C317 H338 0.930 . S
C318 N316 1.334 . S
C318 C317 1.391 . S
C318 H325 0.930 . S
C319 N316 1.328 . S
C319 C321 1.392 . S
C319 H326 0.930 . S
N320 C317 1.329 . S
N320 C321 1.331 . S
C321 C319 1.392 . S
C321 N320 1.331 . S
O322 Zn315 1.975 . S
O322 C323 1.252 . S
C323 O322 1.252 . S
C323 O324 1.252 . S
O324 Zn306 1.975 . S
O324 C323 1.252 . S
H325 C318 0.930 . S
H326 C319 0.930 . S
C327 C328 1.392 . S
C327 N331 1.328 . S
C327 H333 0.930 . S
C328 C327 1.392 . S
C328 N332 1.331 . S
C329 C330 1.391 . S
C329 N332 1.329 . S
C329 H339 0.930 . S
C330 C329 1.391 . S
C330 N331 1.334 . S
C330 H337 0.930 . S
N331 Zn315 2.119 . S
N331 C327 1.328 . S
N331 C330 1.334 . S
N332 C328 1.331 . S
N332 C329 1.329 . S
H333 C327 0.930 . S
C334 O314 1.257 . S
C334 O335 1.244 . S
O335 C334 1.244 . S
O336 C312 1.257 . S
O336 Zn315 2.019 . S
H337 C330 0.930 . S
H338 C317 0.930 . S
H339 C329 0.930 . S
Zn340 N344 2.020 . S
Zn340 O348 2.006 1_554 S
Zn340 N350 2.119 . S
Zn340 O358 1.975 1_554 S
C341 N342 1.334 . S
C341 N345 1.336 . S
N342 C341 1.334 . S
N342 C343 1.334 . S
C343 N342 1.334 . S
C343 N344 1.336 . S
N344 Zn340 2.020 . S
N344 C343 1.336 . S
N344 N345 1.354 . S
N345 C341 1.336 . S
N345 N344 1.354 . S
N345 Zn349 2.020 . S
C346 O347 1.244 . S
C346 O370 1.247 1_554 S
O347 C346 1.244 . S
O348 Zn340 2.006 1_556 S
O348 C368 1.247 1_556 S
Zn349 N345 2.020 . S
Zn349 O356 1.975 1_554 S
Zn349 N365 2.119 . S
Zn349 O370 2.006 1_554 S
N350 Zn340 2.119 . S
N350 C352 1.334 . S
N350 C353 1.328 . S
C351 C352 1.384 1_556 S
C351 N354 1.331 . S
C351 H372 0.937 . S
C352 N350 1.334 . S
C352 C351 1.384 1_554 S
C352 H359 0.930 . S
C353 N350 1.328 . S
C353 C355 1.396 . S
C353 H360 0.930 . S
N354 C351 1.331 . S
N354 C355 1.328 1_556 S
C355 C353 1.396 . S
C355 N354 1.328 1_554 S
O356 Zn349 1.975 1_556 S
O356 C357 1.252 . S
C357 O356 1.252 . S
C357 O358 1.252 . S
O358 Zn340 1.975 1_556 S
O358 C357 1.252 . S
H359 C352 0.930 . S
H360 C353 0.930 . S
C361 C362 1.396 . S
C361 N365 1.328 . S
C361 H367 0.930 . S
C362 C361 1.396 . S
C362 N366 1.328 1_554 S
C363 C364 1.384 1_556 S
C363 N366 1.331 . S
C363 H373 0.937 . S
C364 C363 1.384 1_554 S
C364 N365 1.334 . S
C364 H371 0.930 . S
N365 Zn349 2.119 . S
N365 C361 1.328 . S
N365 C364 1.334 . S
N366 C362 1.328 1_556 S
N366 C363 1.331 . S
H367 C361 0.930 . S
C368 O348 1.247 1_554 S
C368 O369 1.244 . S
O369 C368 1.244 . S
O370 C346 1.247 1_556 S
O370 Zn349 2.006 1_556 S
H371 C364 0.930 . S
H372 C351 0.937 . S
H373 C363 0.937 . S
Zn374 N378 2.020 . S
Zn374 O382 2.019 . S
Zn374 N384 2.119 . S
Zn374 O392 1.975 . S
C375 N376 1.334 . S
C375 N379 1.336 . S
N376 C375 1.334 . S
N376 C377 1.334 . S
C377 N376 1.334 . S
C377 N378 1.336 . S
N378 Zn374 2.020 . S
N378 C377 1.336 . S
N378 N379 1.354 . S
N379 C375 1.336 . S
N379 N378 1.354 . S
N379 Zn383 2.020 . S
C380 O381 1.244 . S
C380 O404 1.257 . S
O381 C380 1.244 . S
O382 Zn374 2.019 . S
O382 C402 1.257 . S
Zn383 N379 2.020 . S
Zn383 O390 1.975 . S
Zn383 N399 2.119 . S
Zn383 O404 2.019 . S
N384 Zn374 2.119 . S
N384 C386 1.334 . S
N384 C387 1.328 . S
C385 C386 1.391 . S
C385 N388 1.329 . S
C385 H406 0.930 . S
C386 N384 1.334 . S
C386 C385 1.391 . S
C386 H393 0.930 . S
C387 N384 1.328 . S
C387 C389 1.392 . S
C387 H394 0.930 . S
N388 C385 1.329 . S
N388 C389 1.331 . S
C389 C387 1.392 . S
C389 N388 1.331 . S
O390 Zn383 1.975 . S
O390 C391 1.252 . S
C391 O390 1.252 . S
C391 O392 1.252 . S
O392 Zn374 1.975 . S
O392 C391 1.252 . S
H393 C386 0.930 . S
H394 C387 0.930 . S
C395 C396 1.392 . S
C395 N399 1.328 . S
C395 H401 0.930 . S
C396 C395 1.392 . S
C396 N400 1.331 . S
C397 C398 1.391 . S
C397 N400 1.329 . S
C397 H407 0.930 . S
C398 C397 1.391 . S
C398 N399 1.334 . S
C398 H405 0.930 . S
N399 Zn383 2.119 . S
N399 C395 1.328 . S
N399 C398 1.334 . S
N400 C396 1.331 . S
N400 C397 1.329 . S
H401 C395 0.930 . S
C402 O382 1.257 . S
C402 O403 1.244 . S
O403 C402 1.244 . S
O404 C380 1.257 . S
O404 Zn383 2.019 . S
H405 C398 0.930 . S
H406 C385 0.930 . S
H407 C397 0.930 . S
Zn408 N412 2.020 . S
Zn408 O416 2.019 . S
Zn408 N418 2.119 . S
Zn408 O426 1.975 . S
C409 N410 1.334 . S
C409 N413 1.336 . S
N410 C409 1.334 . S
N410 C411 1.334 . S
C411 N410 1.334 . S
C411 N412 1.336 . S
N412 Zn408 2.020 . S
N412 C411 1.336 . S
N412 N413 1.354 . S
N413 C409 1.336 . S
N413 N412 1.354 . S
N413 Zn417 2.020 . S
C414 O415 1.244 . S
C414 O438 1.257 . S
O415 C414 1.244 . S
O416 Zn408 2.019 . S
O416 C436 1.257 . S
Zn417 N413 2.020 . S
Zn417 O424 1.975 . S
Zn417 N433 2.119 . S
Zn417 O438 2.019 . S
N418 Zn408 2.119 . S
N418 C420 1.334 . S
N418 C421 1.328 . S
C419 C420 1.391 . S
C419 N422 1.329 . S
C419 H440 0.930 . S
C420 N418 1.334 . S
C420 C419 1.391 . S
C420 H427 0.930 . S
C421 N418 1.328 . S
C421 C423 1.392 . S
C421 H428 0.930 . S
N422 C419 1.329 . S
N422 C423 1.331 . S
C423 C421 1.392 . S
C423 N422 1.331 . S
O424 Zn417 1.975 . S
O424 C425 1.252 . S
C425 O424 1.252 . S
C425 O426 1.252 . S
O426 Zn408 1.975 . S
O426 C425 1.252 . S
H427 C420 0.930 . S
H428 C421 0.930 . S
C429 C430 1.392 . S
C429 N433 1.328 . S
C429 H435 0.930 . S
C430 C429 1.392 . S
C430 N434 1.331 . S
C431 C432 1.391 . S
C431 N434 1.329 . S
C431 H441 0.930 . S
C432 C431 1.391 . S
C432 N433 1.334 . S
C432 H439 0.930 . S
N433 Zn417 2.119 . S
N433 C429 1.328 . S
N433 C432 1.334 . S
N434 C430 1.331 . S
N434 C431 1.329 . S
H435 C429 0.930 . S
C436 O416 1.257 . S
C436 O437 1.244 . S
O437 C436 1.244 . S
O438 C414 1.257 . S
O438 Zn417 2.019 . S
H439 C432 0.930 . S
H440 C419 0.930 . S
H441 C431 0.930 . S
Zn442 N446 2.020 . S
Zn442 O450 2.019 . S
Zn442 N452 2.119 . S
Zn442 O460 1.975 . S
C443 N444 1.334 . S
C443 N447 1.336 . S
N444 C443 1.334 . S
N444 C445 1.334 . S
C445 N444 1.334 . S
C445 N446 1.336 . S
N446 Zn442 2.020 . S
N446 C445 1.336 . S
N446 N447 1.354 . S
N447 C443 1.336 . S
N447 N446 1.354 . S
N447 Zn451 2.020 . S
C448 O449 1.244 . S
C448 O472 1.257 . S
O449 C448 1.244 . S
O450 Zn442 2.019 . S
O450 C470 1.257 . S
Zn451 N447 2.020 . S
Zn451 O458 1.975 . S
Zn451 N467 2.119 . S
Zn451 O472 2.019 . S
N452 Zn442 2.119 . S
N452 C454 1.334 . S
N452 C455 1.328 . S
C453 C454 1.391 . S
C453 N456 1.329 . S
C453 H474 0.930 . S
C454 N452 1.334 . S
C454 C453 1.391 . S
C454 H461 0.930 . S
C455 N452 1.328 . S
C455 C457 1.392 . S
C455 H462 0.930 . S
N456 C453 1.329 . S
N456 C457 1.331 . S
C457 C455 1.392 . S
C457 N456 1.331 . S
O458 Zn451 1.975 . S
O458 C459 1.252 . S
C459 O458 1.252 . S
C459 O460 1.252 . S
O460 Zn442 1.975 . S
O460 C459 1.252 . S
H461 C454 0.930 . S
H462 C455 0.930 . S
C463 C464 1.392 . S
C463 N467 1.328 . S
C463 H469 0.930 . S
C464 C463 1.392 . S
C464 N468 1.331 . S
C465 C466 1.391 . S
C465 N468 1.329 . S
C465 H475 0.930 . S
C466 C465 1.391 . S
C466 N467 1.334 . S
C466 H473 0.930 . S
N467 Zn451 2.119 . S
N467 C463 1.328 . S
N467 C466 1.334 . S
N468 C464 1.331 . S
N468 C465 1.329 . S
H469 C463 0.930 . S
C470 O450 1.257 . S
C470 O471 1.244 . S
O471 C470 1.244 . S
O472 C448 1.257 . S
O472 Zn451 2.019 . S
H473 C466 0.930 . S
H474 C453 0.930 . S
H475 C465 0.930 . S
Zn476 N480 2.020 . S
Zn476 O484 2.019 . S
Zn476 N486 2.119 . S
Zn476 O494 1.975 . S
C477 N478 1.334 . S
C477 N481 1.336 . S
N478 C477 1.334 . S
N478 C479 1.334 . S
C479 N478 1.334 . S
C479 N480 1.336 . S
N480 Zn476 2.020 . S
N480 C479 1.336 . S
N480 N481 1.354 . S
N481 C477 1.336 . S
N481 N480 1.354 . S
N481 Zn485 2.020 . S
C482 O483 1.244 . S
C482 O506 1.257 . S
O483 C482 1.244 . S
O484 Zn476 2.019 . S
O484 C504 1.257 . S
Zn485 N481 2.020 . S
Zn485 O492 1.975 . S
Zn485 N501 2.119 . S
Zn485 O506 2.019 . S
N486 Zn476 2.119 . S
N486 C488 1.334 . S
N486 C489 1.328 . S
C487 C488 1.391 . S
C487 N490 1.329 . S
C487 H508 0.930 . S
C488 N486 1.334 . S
C488 C487 1.391 . S
C488 H495 0.930 . S
C489 N486 1.328 . S
C489 C491 1.392 . S
C489 H496 0.930 . S
N490 C487 1.329 . S
N490 C491 1.331 . S
C491 C489 1.392 . S
C491 N490 1.331 . S
O492 Zn485 1.975 . S
O492 C493 1.252 . S
C493 O492 1.252 . S
C493 O494 1.252 . S
O494 Zn476 1.975 . S
O494 C493 1.252 . S
H495 C488 0.930 . S
H496 C489 0.930 . S
C497 C498 1.392 . S
C497 N501 1.328 . S
C497 H503 0.930 . S
C498 C497 1.392 . S
C498 N502 1.331 . S
C499 C500 1.391 . S
C499 N502 1.329 . S
C499 H509 0.930 . S
C500 C499 1.391 . S
C500 N501 1.334 . S
C500 H507 0.930 . S
N501 Zn485 2.119 . S
N501 C497 1.328 . S
N501 C500 1.334 . S
N502 C498 1.331 . S
N502 C499 1.329 . S
H503 C497 0.930 . S
C504 O484 1.257 . S
C504 O505 1.244 . S
O505 C504 1.244 . S
O506 C482 1.257 . S
O506 Zn485 2.019 . S
H507 C500 0.930 . S
H508 C487 0.930 . S
H509 C499 0.930 . S
Zn510 N514 2.020 . S
Zn510 O518 2.019 . S
Zn510 N520 2.119 . S
Zn510 O528 1.975 . S
C511 N512 1.334 . S
C511 N515 1.336 . S
N512 C511 1.334 . S
N512 C513 1.334 . S
C513 N512 1.334 . S
C513 N514 1.336 . S
N514 Zn510 2.020 . S
N514 C513 1.336 . S
N514 N515 1.354 . S
N515 C511 1.336 . S
N515 N514 1.354 . S
N515 Zn519 2.020 . S
C516 O517 1.244 . S
C516 O540 1.257 . S
O517 C516 1.244 . S
O518 Zn510 2.019 . S
O518 C538 1.257 . S
Zn519 N515 2.020 . S
Zn519 O526 1.975 . S
Zn519 N535 2.119 . S
Zn519 O540 2.019 . S
N520 Zn510 2.119 . S
N520 C522 1.334 . S
N520 C523 1.328 . S
C521 C522 1.391 . S
C521 N524 1.329 . S
C521 H542 0.930 . S
C522 N520 1.334 . S
C522 C521 1.391 . S
C522 H529 0.930 . S
C523 N520 1.328 . S
C523 C525 1.392 . S
C523 H530 0.930 . S
N524 C521 1.329 . S
N524 C525 1.331 . S
C525 C523 1.392 . S
C525 N524 1.331 . S
O526 Zn519 1.975 . S
O526 C527 1.252 . S
C527 O526 1.252 . S
C527 O528 1.252 . S
O528 Zn510 1.975 . S
O528 C527 1.252 . S
H529 C522 0.930 . S
H530 C523 0.930 . S
C531 C532 1.392 . S
C531 N535 1.328 . S
C531 H537 0.930 . S
C532 C531 1.392 . S
C532 N536 1.331 . S
C533 C534 1.391 . S
C533 N536 1.329 . S
C533 H543 0.930 . S
C534 C533 1.391 . S
C534 N535 1.334 . S
C534 H541 0.930 . S
N535 Zn519 2.119 . S
N535 C531 1.328 . S
N535 C534 1.334 . S
N536 C532 1.331 . S
N536 C533 1.329 . S
H537 C531 0.930 . S
C538 O518 1.257 . S
C538 O539 1.244 . S
O539 C538 1.244 . S
O540 C516 1.257 . S
O540 Zn519 2.019 . S
H541 C534 0.930 . S
H542 C521 0.930 . S
H543 C533 0.930 . S
H544 C550 0.930 . S
H545 C554 0.930 . S
H546 C559 0.929 . S
H547 C557 0.929 . S
H548 C552 0.929 . S
H549 C558 0.929 . S
C550 H544 0.930 . S
C550 C551 1.367 . S
C550 C558 1.378 . S
C551 C550 1.367 . S
C551 C559 1.433 . S
C552 H548 0.929 . S
C552 C554 1.378 . S
C552 C556 1.350 . S
C553 C556 1.463 . S
C553 C558 1.350 . S
C553 N561 1.427 . S
C554 H545 0.930 . S
C554 C552 1.378 . S
C554 C555 1.367 . S
C555 C554 1.367 . S
C555 C557 1.433 . S
C556 C552 1.350 . S
C556 C553 1.463 . S
C556 N560 1.427 . S
C557 H547 0.929 . S
C557 C555 1.433 . S
C557 N560 1.384 . S
C558 H549 0.929 . S
C558 C550 1.378 . S
C558 C553 1.350 . S
C559 H546 0.929 . S
C559 C551 1.433 . S
C559 N561 1.384 . S
N560 C556 1.427 . S
N560 C557 1.384 . S
N561 C553 1.427 . S
N561 C559 1.384 . S
H562 C568 0.930 . S
H563 C572 0.930 . S
H564 C577 0.929 . S
H565 C575 0.929 . S
H566 C570 0.929 . S
H567 C576 0.929 . S
C568 H562 0.930 . S
C568 C569 1.359 1_655 S
C568 C576 1.378 . S
C569 C568 1.359 1_455 S
C569 C577 1.441 . S
C570 H566 0.929 . S
C570 C572 1.378 . S
C570 C574 1.350 . S
C571 C574 1.463 1_665 S
C571 C576 1.350 . S
C571 N579 1.427 1_655 S
C572 H563 0.930 . S
C572 C570 1.378 . S
C572 C573 1.359 1_455 S
C573 C572 1.359 1_655 S
C573 C575 1.441 . S
C574 C570 1.350 . S
C574 C571 1.463 1_445 S
C574 N578 1.427 1_455 S
C575 H565 0.929 . S
C575 C573 1.441 . S
C575 N578 1.384 . S
C576 H567 0.929 . S
C576 C568 1.378 . S
C576 C571 1.350 . S
C577 H564 0.929 . S
C577 C569 1.441 . S
C577 N579 1.384 . S
N578 C574 1.427 1_655 S
N578 C575 1.384 . S
N579 C571 1.427 1_455 S
N579 C577 1.384 . S
H580 C586 0.930 . S
H581 C590 0.930 . S
H582 C595 0.929 . S
H583 C593 0.929 . S
H584 C588 0.929 . S
H585 C594 0.929 . S
C586 H580 0.930 . S
C586 C587 1.367 . S
C586 C594 1.378 . S
C587 C586 1.367 . S
C587 C595 1.433 . S
C588 H584 0.929 . S
C588 C590 1.378 . S
C588 C592 1.350 . S
C589 C592 1.463 1_545 S
C589 C594 1.350 . S
C589 N597 1.427 . S
C590 H581 0.930 . S
C590 C588 1.378 . S
C590 C591 1.367 . S
C591 C590 1.367 . S
C591 C593 1.433 . S
C592 C588 1.350 . S
C592 C589 1.463 1_565 S
C592 N596 1.427 . S
C593 H583 0.929 . S
C593 C591 1.433 . S
C593 N596 1.384 . S
C594 H585 0.929 . S
C594 C586 1.378 . S
C594 C589 1.350 . S
C595 H582 0.929 . S
C595 C587 1.433 . S
C595 N597 1.384 . S
N596 C592 1.427 . S
N596 C593 1.384 . S
N597 C589 1.427 . S
N597 C595 1.384 . S
H598 C604 0.930 . S
H599 C608 0.930 . S
H600 C613 0.929 . S
H601 C611 0.929 . S
H602 C606 0.929 . S
H603 C612 0.929 . S
C604 H598 0.930 . S
C604 C605 1.367 . S
C604 C612 1.378 . S
C605 C604 1.367 . S
C605 C613 1.433 1_655 S
C606 H602 0.929 . S
C606 C608 1.378 . S
C606 C610 1.350 . S
C607 C610 1.463 1_655 S
C607 C612 1.350 . S
C607 N615 1.427 1_655 S
C608 H599 0.930 . S
C608 C606 1.378 . S
C608 C609 1.367 . S
C609 C608 1.367 . S
C609 C611 1.433 1_455 S
C610 C606 1.350 . S
C610 C607 1.463 1_455 S
C610 N614 1.427 1_455 S
C611 H601 0.929 . S
C611 C609 1.433 1_655 S
C611 N614 1.384 . S
C612 H603 0.929 . S
C612 C604 1.378 . S
C612 C607 1.350 . S
C613 H600 0.929 . S
C613 C605 1.433 1_455 S
C613 N615 1.384 . S
N614 C610 1.427 1_655 S
N614 C611 1.384 . S
N615 C607 1.427 1_455 S
N615 C613 1.384 . S
H616 C622 0.930 . S
H617 C626 0.930 . S
H618 C631 0.929 . S
H619 C629 0.929 . S
H620 C624 0.929 . S
H621 C630 0.929 . S
C622 H616 0.930 . S
C622 C623 1.367 . S
C622 C630 1.378 . S
C623 C622 1.367 . S
C623 C631 1.433 . S
C624 H620 0.929 . S
C624 C626 1.378 . S
C624 C628 1.350 . S
C625 C628 1.463 . S
C625 C630 1.350 . S
C625 N633 1.427 . S
C626 H617 0.930 . S
C626 C624 1.378 . S
C626 C627 1.367 . S
C627 C626 1.367 . S
C627 C629 1.433 . S
C628 C624 1.350 . S
C628 C625 1.463 . S
C628 N632 1.427 . S
C629 H619 0.929 . S
C629 C627 1.433 . S
C629 N632 1.384 . S
C630 H621 0.929 . S
C630 C622 1.378 . S
C630 C625 1.350 . S
C631 H618 0.929 . S
C631 C623 1.433 . S
C631 N633 1.384 . S
N632 C628 1.427 . S
N632 C629 1.384 . S
N633 C625 1.427 . S
N633 C631 1.384 . S
H634 C640 0.930 . S
H635 C644 0.930 . S
H636 C649 0.929 . S
H637 C647 0.929 . S
H638 C642 0.929 . S
H639 C648 0.929 . S
C640 H634 0.930 . S
C640 C641 1.367 . S
C640 C648 1.378 . S
C641 C640 1.367 . S
C641 C649 1.433 . S
C642 H638 0.929 . S
C642 C644 1.378 . S
C642 C646 1.350 . S
C643 C646 1.463 1_565 S
C643 C648 1.350 . S
C643 N651 1.427 . S
C644 H635 0.930 . S
C644 C642 1.378 . S
C644 C645 1.367 . S
C645 C644 1.367 . S
C645 C647 1.433 . S
C646 C642 1.350 . S
C646 C643 1.463 1_545 S
C646 N650 1.427 . S
C647 H637 0.929 . S
C647 C645 1.433 . S
C647 N650 1.384 . S
C648 H639 0.929 . S
C648 C640 1.378 . S
C648 C643 1.350 . S
C649 H636 0.929 . S
C649 C641 1.433 . S
C649 N651 1.384 . S
N650 C646 1.427 . S
N650 C647 1.384 . S
N651 C643 1.427 . S
N651 C649 1.384 . S
H652 C658 0.930 . S
H653 C662 0.930 . S
H654 C667 0.929 . S
H655 C665 0.929 . S
H656 C660 0.929 . S
H657 C666 0.929 . S
C658 H652 0.930 . S
C658 C659 1.367 . S
C658 C666 1.378 . S
C659 C658 1.367 . S
C659 C667 1.433 1_455 S
C660 H656 0.929 . S
C660 C662 1.378 . S
C660 C664 1.351 . S
C661 C664 1.462 1_455 S
C661 C666 1.351 . S
C661 N669 1.426 1_455 S
C662 H653 0.930 . S
C662 C660 1.378 . S
C662 C663 1.367 . S
C663 C662 1.367 . S
C663 C665 1.433 1_655 S
C664 C660 1.351 . S
C664 C661 1.462 1_655 S
C664 N668 1.426 1_655 S
C665 H655 0.929 . S
C665 C663 1.433 1_455 S
C665 N668 1.384 . S
C666 H657 0.929 . S
C666 C658 1.378 . S
C666 C661 1.351 . S
C667 H654 0.929 . S
C667 C659 1.433 1_655 S
C667 N669 1.384 . S
N668 C664 1.426 1_455 S
N668 C665 1.384 . S
N669 C661 1.426 1_655 S
N669 C667 1.384 . S
H670 C676 0.930 . S
H671 C680 0.930 . S
H672 C685 0.929 . S
H673 C683 0.929 . S
H674 C678 0.929 . S
H675 C684 0.929 . S
C676 H670 0.930 . S
C676 C677 1.391 . S
C676 C684 1.378 . S
C677 C676 1.391 . S
C677 C685 1.409 1_556 S
C678 H674 0.929 . S
C678 C680 1.378 . S
C678 C682 1.377 . S
C679 C682 1.460 1_556 S
C679 C684 1.377 . S
C679 N687 1.400 1_556 S
C680 H671 0.930 . S
C680 C678 1.378 . S
C680 C681 1.391 . S
C681 C680 1.391 . S
C681 C683 1.409 1_554 S
C682 C678 1.377 . S
C682 C679 1.460 1_554 S
C682 N686 1.400 1_554 S
C683 H673 0.929 . S
C683 C681 1.409 1_556 S
C683 N686 1.384 . S
C684 H675 0.929 . S
C684 C676 1.378 . S
C684 C679 1.377 . S
C685 H672 0.929 . S
C685 C677 1.409 1_554 S
C685 N687 1.384 . S
N686 C682 1.400 1_556 S
N686 C683 1.384 . S
N687 C679 1.400 1_554 S
N687 C685 1.384 . S
H688 C694 0.934 . S
H689 C698 0.934 . S
H690 C703 0.929 . S
H691 C701 0.929 . S
H692 C696 0.929 . S
H693 C702 0.929 . S
C694 H688 0.934 . S
C694 C695 1.365 1_554 S
C694 C702 1.379 . S
C695 C694 1.365 1_556 S
C695 C703 1.433 1_655 S
C696 H692 0.929 . S
C696 C698 1.379 . S
C696 C700 1.350 1_556 S
C697 C700 1.463 1_656 S
C697 C702 1.350 1_556 S
C697 N705 1.427 1_655 S
C698 H689 0.934 . S
C698 C696 1.379 . S
C698 C699 1.365 1_556 S
C699 C698 1.365 1_554 S
C699 C701 1.433 1_455 S
C700 C696 1.350 1_554 S
C700 C697 1.463 1_454 S
C700 N704 1.427 1_455 S
C701 H691 0.929 . S
C701 C699 1.433 1_655 S
C701 N704 1.384 . S
C702 H693 0.929 . S
C702 C694 1.379 . S
C702 C697 1.350 1_554 S
C703 H690 0.929 . S
C703 C695 1.433 1_455 S
C703 N705 1.384 . S
N704 C700 1.427 1_655 S
N704 C701 1.384 . S
N705 C697 1.427 1_455 S
N705 C703 1.384 . S
H706 C712 0.930 . S
H707 C716 0.930 . S
H708 C721 0.929 . S
H709 C719 0.929 . S
H710 C714 0.929 . S
H711 C720 0.929 . S
C712 H706 0.930 . S
C712 C713 1.367 . S
C712 C720 1.378 . S
C713 C712 1.367 . S
C713 C721 1.433 . S
C714 H710 0.929 . S
C714 C716 1.378 . S
C714 C718 1.350 . S
C715 C718 1.463 . S
C715 C720 1.350 . S
C715 N723 1.427 . S
C716 H707 0.930 . S
C716 C714 1.378 . S
C716 C717 1.367 . S
C717 C716 1.367 . S
C717 C719 1.433 . S
C718 C714 1.350 . S
C718 C715 1.463 . S
C718 N722 1.427 . S
C719 H709 0.929 . S
C719 C717 1.433 . S
C719 N722 1.384 . S
C720 H711 0.929 . S
C720 C712 1.378 . S
C720 C715 1.350 . S
C721 H708 0.929 . S
C721 C713 1.433 . S
C721 N723 1.384 . S
N722 C718 1.427 . S
N722 C719 1.384 . S
N723 C715 1.427 . S
N723 C721 1.384 . S
H724 C730 0.930 . S
H725 C734 0.930 . S
H726 C739 0.929 . S
H727 C737 0.929 . S
H728 C732 0.929 . S
H729 C738 0.929 . S
C730 H724 0.930 . S
C730 C731 1.369 . S
C730 C738 1.378 . S
C731 C730 1.369 . S
C731 C739 1.431 1_556 S
C732 H728 0.929 . S
C732 C734 1.378 . S
C732 C736 1.363 . S
C733 C736 1.462 1_556 S
C733 C738 1.363 . S
C733 N741 1.414 1_556 S
C734 H725 0.930 . S
C734 C732 1.378 . S
C734 C735 1.369 . S
C735 C734 1.369 . S
C735 C737 1.431 1_554 S
C736 C732 1.363 . S
C736 C733 1.462 1_554 S
C736 N740 1.414 1_554 S
C737 H727 0.929 . S
C737 C735 1.431 1_556 S
C737 N740 1.384 . S
C738 H729 0.929 . S
C738 C730 1.378 . S
C738 C733 1.363 . S
C739 H726 0.929 . S
C739 C731 1.431 1_554 S
C739 N741 1.384 . S
N740 C736 1.414 1_556 S
N740 C737 1.384 . S
N741 C733 1.414 1_554 S
N741 C739 1.384 . S
H742 C748 0.930 . S
H743 C752 0.930 . S
H744 C757 0.929 . S
H745 C755 0.929 . S
H746 C750 0.929 . S
H747 C756 0.929 . S
C748 H742 0.930 . S
C748 C749 1.367 . S
C748 C756 1.378 . S
C749 C748 1.367 . S
C749 C757 1.433 . S
C750 H746 0.929 . S
C750 C752 1.378 . S
C750 C754 1.350 . S
C751 C754 1.463 . S
C751 C756 1.350 . S
C751 N759 1.427 . S
C752 H743 0.930 . S
C752 C750 1.378 . S
C752 C753 1.367 . S
C753 C752 1.367 . S
C753 C755 1.433 . S
C754 C750 1.350 . S
C754 C751 1.463 . S
C754 N758 1.427 . S
C755 H745 0.929 . S
C755 C753 1.433 . S
C755 N758 1.384 . S
C756 H747 0.929 . S
C756 C748 1.378 . S
C756 C751 1.350 . S
C757 H744 0.929 . S
C757 C749 1.433 . S
C757 N759 1.384 . S
N758 C754 1.427 . S
N758 C755 1.384 . S
N759 C751 1.427 . S
N759 C757 1.384 . S
H760 C766 0.930 . S
H761 C770 0.930 . S
H762 C775 0.929 . S
H763 C773 0.929 . S
H764 C768 0.929 . S
H765 C774 0.929 . S
C766 H760 0.930 . S
C766 C767 1.380 . S
C766 C774 1.378 . S
C767 C766 1.380 . S
C767 C775 1.420 1_556 S
C768 H764 0.929 . S
C768 C770 1.378 . S
C768 C772 1.363 . S
C769 C772 1.461 1_546 S
C769 C774 1.363 . S
C769 N777 1.414 1_556 S
C770 H761 0.930 . S
C770 C768 1.378 . S
C770 C771 1.380 . S
C771 C770 1.380 . S
C771 C773 1.420 1_554 S
C772 C768 1.363 . S
C772 C769 1.461 1_564 S
C772 N776 1.414 1_554 S
C773 H763 0.929 . S
C773 C771 1.420 1_556 S
C773 N776 1.384 . S
C774 H765 0.929 . S
C774 C766 1.378 . S
C774 C769 1.363 . S
C775 H762 0.929 . S
C775 C767 1.420 1_554 S
C775 N777 1.384 . S
N776 C772 1.414 1_556 S
N776 C773 1.384 . S
N777 C769 1.414 1_554 S
N777 C775 1.384 . S
H778 C784 0.930 . S
H779 C788 0.930 . S
H780 C793 0.929 . S
H781 C791 0.929 . S
H782 C786 0.929 . S
H783 C792 0.929 . S
C784 H778 0.930 . S
C784 C785 1.367 . S
C784 C792 1.378 . S
C785 C784 1.367 . S
C785 C793 1.433 . S
C786 H782 0.929 . S
C786 C788 1.378 . S
C786 C790 1.350 . S
C787 C790 1.463 . S
C787 C792 1.350 . S
C787 N795 1.427 . S
C788 H779 0.930 . S
C788 C786 1.378 . S
C788 C789 1.367 . S
C789 C788 1.367 . S
C789 C791 1.433 . S
C790 C786 1.350 . S
C790 C787 1.463 . S
C790 N794 1.427 . S
C791 H781 0.929 . S
C791 C789 1.433 . S
C791 N794 1.384 . S
C792 H783 0.929 . S
C792 C784 1.378 . S
C792 C787 1.350 . S
C793 H780 0.929 . S
C793 C785 1.433 . S
C793 N795 1.384 . S
N794 C790 1.427 . S
N794 C791 1.384 . S
N795 C787 1.427 . S
N795 C793 1.384 . S
H796 C802 0.930 . S
H797 C806 0.930 . S
H798 C811 0.929 . S
H799 C809 0.929 . S
H800 C804 0.929 . S
H801 C810 0.929 . S
C802 H796 0.930 . S
C802 C803 1.367 . S
C802 C810 1.378 . S
C803 C802 1.367 . S
C803 C811 1.433 . S
C804 H800 0.929 . S
C804 C806 1.378 . S
C804 C808 1.350 . S
C805 C808 1.463 . S
C805 C810 1.350 . S
C805 N813 1.427 . S
C806 H797 0.930 . S
C806 C804 1.378 . S
C806 C807 1.367 . S
C807 C806 1.367 . S
C807 C809 1.433 . S
C808 C804 1.350 . S
C808 C805 1.463 . S
C808 N812 1.427 . S
C809 H799 0.929 . S
C809 C807 1.433 . S
C809 N812 1.384 . S
C810 H801 0.929 . S
C810 C802 1.378 . S
C810 C805 1.350 . S
C811 H798 0.929 . S
C811 C803 1.433 . S
C811 N813 1.384 . S
N812 C808 1.427 . S
N812 C809 1.384 . S
N813 C805 1.427 . S
N813 C811 1.384 . S
H814 C820 0.930 . S
H815 C824 0.930 . S
H816 C829 0.929 . S
H817 C827 0.929 . S
H818 C822 0.929 . S
H819 C828 0.929 . S
C820 H814 0.930 . S
C820 C821 1.367 . S
C820 C828 1.378 . S
C821 C820 1.367 . S
C821 C829 1.433 . S
C822 H818 0.929 . S
C822 C824 1.378 . S
C822 C826 1.350 . S
C823 C826 1.463 . S
C823 C828 1.350 . S
C823 N831 1.427 . S
C824 H815 0.930 . S
C824 C822 1.378 . S
C824 C825 1.367 . S
C825 C824 1.367 . S
C825 C827 1.433 . S
C826 C822 1.350 . S
C826 C823 1.463 . S
C826 N830 1.427 . S
C827 H817 0.929 . S
C827 C825 1.433 . S
C827 N830 1.384 . S
C828 H819 0.929 . S
C828 C820 1.378 . S
C828 C823 1.350 . S
C829 H816 0.929 . S
C829 C821 1.433 . S
C829 N831 1.384 . S
N830 C826 1.427 . S
N830 C827 1.384 . S
N831 C823 1.427 . S
N831 C829 1.384 . S
H832 C838 0.930 . S
H833 C842 0.930 . S
H834 C847 0.929 . S
H835 C845 0.929 . S
H836 C840 0.929 . S
H837 C846 0.929 . S
C838 H832 0.930 . S
C838 C839 1.367 . S
C838 C846 1.378 . S
C839 C838 1.367 . S
C839 C847 1.433 . S
C840 H836 0.929 . S
C840 C842 1.378 . S
C840 C844 1.350 . S
C841 C844 1.463 . S
C841 C846 1.350 . S
C841 N849 1.427 . S
C842 H833 0.930 . S
C842 C840 1.378 . S
C842 C843 1.367 . S
C843 C842 1.367 . S
C843 C845 1.433 . S
C844 C840 1.350 . S
C844 C841 1.463 . S
C844 N848 1.427 . S
C845 H835 0.929 . S
C845 C843 1.433 . S
C845 N848 1.384 . S
C846 H837 0.929 . S
C846 C838 1.378 . S
C846 C841 1.350 . S
C847 H834 0.929 . S
C847 C839 1.433 . S
C847 N849 1.384 . S
N848 C844 1.427 . S
N848 C845 1.384 . S
N849 C841 1.427 . S
N849 C847 1.384 . S
H850 C856 0.930 . S
H851 C860 0.930 . S
H852 C865 0.929 . S
H853 C863 0.929 . S
H854 C858 0.929 . S
H855 C864 0.929 . S
C856 H850 0.930 . S
C856 C857 1.367 . S
C856 C864 1.378 . S
C857 C856 1.367 . S
C857 C865 1.433 . S
C858 H854 0.929 . S
C858 C860 1.378 . S
C858 C862 1.350 . S
C859 C862 1.463 . S
C859 C864 1.350 . S
C859 N867 1.427 . S
C860 H851 0.930 . S
C860 C858 1.378 . S
C860 C861 1.367 . S
C861 C860 1.367 . S
C861 C863 1.433 . S
C862 C858 1.350 . S
C862 C859 1.463 . S
C862 N866 1.427 . S
C863 H853 0.929 . S
C863 C861 1.433 . S
C863 N866 1.384 . S
C864 H855 0.929 . S
C864 C856 1.378 . S
C864 C859 1.350 . S
C865 H852 0.929 . S
C865 C857 1.433 . S
C865 N867 1.384 . S
N866 C862 1.427 . S
N866 C863 1.384 . S
N867 C859 1.427 . S
N867 C865 1.384 . S
H868 C874 0.930 . S
H869 C878 0.930 . S
H870 C883 0.929 . S
H871 C881 0.929 . S
H872 C876 0.929 . S
H873 C882 0.929 . S
C874 H868 0.930 . S
C874 C875 1.367 . S
C874 C882 1.378 . S
C875 C874 1.367 . S
C875 C883 1.433 . S
C876 H872 0.929 . S
C876 C878 1.378 . S
C876 C880 1.350 . S
C877 C880 1.463 . S
C877 C882 1.350 . S
C877 N885 1.427 . S
C878 H869 0.930 . S
C878 C876 1.378 . S
C878 C879 1.367 . S
C879 C878 1.367 . S
C879 C881 1.433 . S
C880 C876 1.350 . S
C880 C877 1.463 . S
C880 N884 1.427 . S
C881 H871 0.929 . S
C881 C879 1.433 . S
C881 N884 1.384 . S
C882 H873 0.929 . S
C882 C874 1.378 . S
C882 C877 1.350 . S
C883 H870 0.929 . S
C883 C875 1.433 . S
C883 N885 1.384 . S
N884 C880 1.427 . S
N884 C881 1.384 . S
N885 C877 1.427 . S
N885 C883 1.384 . S
H886 C892 0.930 . S
H887 C896 0.930 . S
H888 C901 0.929 . S
H889 C899 0.929 . S
H890 C894 0.929 . S
H891 C900 0.929 . S
C892 H886 0.930 . S
C892 C893 1.367 . S
C892 C900 1.378 . S
C893 C892 1.367 . S
C893 C901 1.433 . S
C894 H890 0.929 . S
C894 C896 1.378 . S
C894 C898 1.350 . S
C895 C898 1.463 . S
C895 C900 1.350 . S
C895 N903 1.427 . S
C896 H887 0.930 . S
C896 C894 1.378 . S
C896 C897 1.367 . S
C897 C896 1.367 . S
C897 C899 1.433 . S
C898 C894 1.350 . S
C898 C895 1.463 . S
C898 N902 1.427 . S
C899 H889 0.929 . S
C899 C897 1.433 . S
C899 N902 1.384 . S
C900 H891 0.929 . S
C900 C892 1.378 . S
C900 C895 1.350 . S
C901 H888 0.929 . S
C901 C893 1.433 . S
C901 N903 1.384 . S
N902 C898 1.427 . S
N902 C899 1.384 . S
N903 C895 1.427 . S
N903 C901 1.384 . S
H904 C910 0.930 . S
H905 C914 0.930 . S
H906 C919 0.929 . S
H907 C917 0.929 . S
H908 C912 0.929 . S
H909 C918 0.929 . S
C910 H904 0.930 . S
C910 C911 1.367 . S
C910 C918 1.378 . S
C911 C910 1.367 . S
C911 C919 1.433 . S
C912 H908 0.929 . S
C912 C914 1.378 . S
C912 C916 1.350 . S
C913 C916 1.463 . S
C913 C918 1.350 . S
C913 N921 1.427 . S
C914 H905 0.930 . S
C914 C912 1.378 . S
C914 C915 1.367 . S
C915 C914 1.367 . S
C915 C917 1.433 . S
C916 C912 1.350 . S
C916 C913 1.463 . S
C916 N920 1.427 . S
C917 H907 0.929 . S
C917 C915 1.433 . S
C917 N920 1.384 . S
C918 H909 0.929 . S
C918 C910 1.378 . S
C918 C913 1.350 . S
C919 H906 0.929 . S
C919 C911 1.433 . S
C919 N921 1.384 . S
N920 C916 1.427 . S
N920 C917 1.384 . S
N921 C913 1.427 . S
N921 C919 1.384 . S
H922 C928 0.930 . S
H923 C932 0.930 . S
H924 C937 0.929 . S
H925 C935 0.929 . S
H926 C930 0.929 . S
H927 C936 0.929 . S
C928 H922 0.930 . S
C928 C929 1.367 . S
C928 C936 1.378 . S
C929 C928 1.367 . S
C929 C937 1.433 . S
C930 H926 0.929 . S
C930 C932 1.378 . S
C930 C934 1.350 . S
C931 C934 1.463 . S
C931 C936 1.350 . S
C931 N939 1.427 . S
C932 H923 0.930 . S
C932 C930 1.378 . S
C932 C933 1.367 . S
C933 C932 1.367 . S
C933 C935 1.433 . S
C934 C930 1.350 . S
C934 C931 1.463 . S
C934 N938 1.427 . S
C935 H925 0.929 . S
C935 C933 1.433 . S
C935 N938 1.384 . S
C936 H927 0.929 . S
C936 C928 1.378 . S
C936 C931 1.350 . S
C937 H924 0.929 . S
C937 C929 1.433 . S
C937 N939 1.384 . S
N938 C934 1.427 . S
N938 C935 1.384 . S
N939 C931 1.427 . S
N939 C937 1.384 . S
H940 C946 0.930 . S
H941 C950 0.930 . S
H942 C955 0.929 . S
H943 C953 0.929 . S
H944 C948 0.929 . S
H945 C954 0.929 . S
C946 H940 0.930 . S
C946 C947 1.367 . S
C946 C954 1.378 . S
C947 C946 1.367 . S
C947 C955 1.433 . S
C948 H944 0.929 . S
C948 C950 1.378 . S
C948 C952 1.350 . S
C949 C952 1.463 . S
C949 C954 1.350 . S
C949 N957 1.427 . S
C950 H941 0.930 . S
C950 C948 1.378 . S
C950 C951 1.367 . S
C951 C950 1.367 . S
C951 C953 1.433 . S
C952 C948 1.350 . S
C952 C949 1.463 . S
C952 N956 1.427 . S
C953 H943 0.929 . S
C953 C951 1.433 . S
C953 N956 1.384 . S
C954 H945 0.929 . S
C954 C946 1.378 . S
C954 C949 1.350 . S
C955 H942 0.929 . S
C955 C947 1.433 . S
C955 N957 1.384 . S
N956 C952 1.427 . S
N956 C953 1.384 . S
N957 C949 1.427 . S
N957 C955 1.384 . S
H958 C964 0.930 . S
H959 C968 0.930 . S
H960 C973 0.929 . S
H961 C971 0.929 . S
H962 C966 0.929 . S
H963 C972 0.929 . S
C964 H958 0.930 . S
C964 C965 1.367 . S
C964 C972 1.378 . S
C965 C964 1.367 . S
C965 C973 1.433 . S
C966 H962 0.929 . S
C966 C968 1.378 . S
C966 C970 1.350 . S
C967 C970 1.463 . S
C967 C972 1.350 . S
C967 N975 1.427 . S
C968 H959 0.930 . S
C968 C966 1.378 . S
C968 C969 1.367 . S
C969 C968 1.367 . S
C969 C971 1.433 . S
C970 C966 1.350 . S
C970 C967 1.463 . S
C970 N974 1.427 . S
C971 H961 0.929 . S
C971 C969 1.433 . S
C971 N974 1.384 . S
C972 H963 0.929 . S
C972 C964 1.378 . S
C972 C967 1.350 . S
C973 H960 0.929 . S
C973 C965 1.433 . S
C973 N975 1.384 . S
N974 C970 1.427 . S
N974 C971 1.384 . S
N975 C967 1.427 . S
N975 C973 1.384 . S
H976 C982 0.930 . S
H977 C986 0.930 . S
H978 C991 0.929 . S
H979 C989 0.929 . S
H980 C984 0.929 . S
H981 C990 0.929 . S
C982 H976 0.930 . S
C982 C983 1.367 . S
C982 C990 1.378 . S
C983 C982 1.367 . S
C983 C991 1.433 . S
C984 H980 0.929 . S
C984 C986 1.378 . S
C984 C988 1.350 . S
C985 C988 1.463 . S
C985 C990 1.350 . S
C985 N993 1.427 . S
C986 H977 0.930 . S
C986 C984 1.378 . S
C986 C987 1.367 . S
C987 C986 1.367 . S
C987 C989 1.433 . S
C988 C984 1.350 . S
C988 C985 1.463 . S
C988 N992 1.427 . S
C989 H979 0.929 . S
C989 C987 1.433 . S
C989 N992 1.384 . S
C990 H981 0.929 . S
C990 C982 1.378 . S
C990 C985 1.350 . S
C991 H978 0.929 . S
C991 C983 1.433 . S
C991 N993 1.384 . S
N992 C988 1.427 . S
N992 C989 1.384 . S
N993 C985 1.427 . S
N993 C991 1.384 . S
H994 C1000 0.930 . S
H995 C1004 0.930 . S
H996 C1009 0.929 1_455 S
H997 C1007 0.929 . S
H998 C1002 0.929 . S
H999 C1008 0.929 . S
C1000 H994 0.930 . S
C1000 C1001 1.362 1_655 S
C1000 C1008 1.378 . S
C1001 C1000 1.362 1_455 S
C1001 C1009 1.432 1_455 S
C1002 H998 0.929 . S
C1002 C1004 1.378 . S
C1002 C1006 1.350 . S
C1003 C1006 1.463 . S
C1003 C1008 1.350 . S
C1003 N1011 1.427 . S
C1004 H995 0.930 . S
C1004 C1002 1.378 . S
C1004 C1005 1.367 . S
C1005 C1004 1.367 . S
C1005 C1007 1.433 . S
C1006 C1002 1.350 . S
C1006 C1003 1.463 . S
C1006 N1010 1.427 . S
C1007 H997 0.929 . S
C1007 C1005 1.433 . S
C1007 N1010 1.384 . S
C1008 H999 0.929 . S
C1008 C1000 1.378 . S
C1008 C1003 1.350 . S
C1009 H996 0.929 1_655 S
C1009 C1001 1.432 1_655 S
C1009 N1011 1.384 . S
N1010 C1006 1.427 . S
N1010 C1007 1.384 . S
N1011 C1003 1.427 . S
N1011 C1009 1.384 . S
H1012 C1018 0.930 . S
H1013 C1022 0.930 . S
H1014 C1027 0.929 . S
H1015 C1025 0.929 . S
H1016 C1020 0.929 . S
H1017 C1026 0.929 . S
C1018 H1012 0.930 . S
C1018 C1019 1.367 . S
C1018 C1026 1.378 . S
C1019 C1018 1.367 . S
C1019 C1027 1.433 . S
C1020 H1016 0.929 . S
C1020 C1022 1.378 . S
C1020 C1024 1.350 . S
C1021 C1024 1.463 . S
C1021 C1026 1.350 . S
C1021 N1029 1.427 . S
C1022 H1013 0.930 . S
C1022 C1020 1.378 . S
C1022 C1023 1.367 . S
C1023 C1022 1.367 . S
C1023 C1025 1.433 . S
C1024 C1020 1.350 . S
C1024 C1021 1.463 . S
C1024 N1028 1.427 . S
C1025 H1015 0.929 . S
C1025 C1023 1.433 . S
C1025 N1028 1.384 . S
C1026 H1017 0.929 . S
C1026 C1018 1.378 . S
C1026 C1021 1.350 . S
C1027 H1014 0.929 . S
C1027 C1019 1.433 . S
C1027 N1029 1.384 . S
N1028 C1024 1.427 . S
N1028 C1025 1.384 . S
N1029 C1021 1.427 . S
N1029 C1027 1.384 . S
H1030 C1036 0.930 . S
H1031 C1040 0.930 . S
H1032 C1045 0.929 1_455 S
H1033 C1043 0.929 . S
H1034 C1038 0.929 . S
H1035 C1044 0.929 . S
C1036 H1030 0.930 . S
C1036 C1037 1.362 1_655 S
C1036 C1044 1.378 . S
C1037 C1036 1.362 1_455 S
C1037 C1045 1.432 1_455 S
C1038 H1034 0.929 . S
C1038 C1040 1.378 . S
C1038 C1042 1.350 . S
C1039 C1042 1.463 . S
C1039 C1044 1.350 . S
C1039 N1047 1.427 . S
C1040 H1031 0.930 . S
C1040 C1038 1.378 . S
C1040 C1041 1.367 . S
C1041 C1040 1.367 . S
C1041 C1043 1.433 . S
C1042 C1038 1.350 . S
C1042 C1039 1.463 . S
C1042 N1046 1.427 . S
C1043 H1033 0.929 . S
C1043 C1041 1.433 . S
C1043 N1046 1.384 . S
C1044 H1035 0.929 . S
C1044 C1036 1.378 . S
C1044 C1039 1.350 . S
C1045 H1032 0.929 1_655 S
C1045 C1037 1.432 1_655 S
C1045 N1047 1.384 . S
N1046 C1042 1.427 . S
N1046 C1043 1.384 . S
N1047 C1039 1.427 . S
N1047 C1045 1.384 . S
H1048 C1054 0.930 . S
H1049 C1058 0.930 . S
H1050 C1063 0.929 . S
H1051 C1061 0.929 . S
H1052 C1056 0.929 . S
H1053 C1062 0.929 . S
C1054 H1048 0.930 . S
C1054 C1055 1.367 . S
C1054 C1062 1.378 . S
C1055 C1054 1.367 . S
C1055 C1063 1.433 . S
C1056 H1052 0.929 . S
C1056 C1058 1.378 . S
C1056 C1060 1.350 . S
C1057 C1060 1.463 . S
C1057 C1062 1.350 . S
C1057 N1065 1.427 . S
C1058 H1049 0.930 . S
C1058 C1056 1.378 . S
C1058 C1059 1.367 . S
C1059 C1058 1.367 . S
C1059 C1061 1.433 . S
C1060 C1056 1.350 . S
C1060 C1057 1.463 . S
C1060 N1064 1.427 . S
C1061 H1051 0.929 . S
C1061 C1059 1.433 . S
C1061 N1064 1.384 . S
C1062 H1053 0.929 . S
C1062 C1054 1.378 . S
C1062 C1057 1.350 . S
C1063 H1050 0.929 . S
C1063 C1055 1.433 . S
C1063 N1065 1.384 . S
N1064 C1060 1.427 . S
N1064 C1061 1.384 . S
N1065 C1057 1.427 . S
N1065 C1063 1.384 . S
H1066 C1072 0.930 . S
H1067 C1076 0.930 . S
H1068 C1081 0.929 . S
H1069 C1079 0.929 . S
H1070 C1074 0.929 . S
H1071 C1080 0.929 . S
C1072 H1066 0.930 . S
C1072 C1073 1.367 . S
C1072 C1080 1.378 . S
C1073 C1072 1.367 . S
C1073 C1081 1.433 . S
C1074 H1070 0.929 . S
C1074 C1076 1.378 . S
C1074 C1078 1.350 . S
C1075 C1078 1.463 . S
C1075 C1080 1.350 . S
C1075 N1083 1.427 . S
C1076 H1067 0.930 . S
C1076 C1074 1.378 . S
C1076 C1077 1.367 1_455 S
C1077 C1076 1.367 1_655 S
C1077 C1079 1.433 . S
C1078 C1074 1.350 . S
C1078 C1075 1.463 . S
C1078 N1082 1.427 . S
C1079 H1069 0.929 . S
C1079 C1077 1.433 . S
C1079 N1082 1.384 1_655 S
C1080 H1071 0.929 . S
C1080 C1072 1.378 . S
C1080 C1075 1.350 . S
C1081 H1068 0.929 . S
C1081 C1073 1.433 . S
C1081 N1083 1.384 . S
N1082 C1078 1.427 . S
N1082 C1079 1.384 1_455 S
N1083 C1075 1.427 . S
N1083 C1081 1.384 . S
H1084 C1090 0.930 . S
H1085 C1094 0.930 . S
H1086 C1099 0.929 . S
H1087 C1097 0.929 . S
H1088 C1092 0.929 . S
H1089 C1098 0.929 . S
C1090 H1084 0.930 . S
C1090 C1091 1.367 . S
C1090 C1098 1.378 . S
C1091 C1090 1.367 . S
C1091 C1099 1.433 . S
C1092 H1088 0.929 . S
C1092 C1094 1.378 . S
C1092 C1096 1.350 . S
C1093 C1096 1.463 . S
C1093 C1098 1.350 . S
C1093 N1101 1.427 . S
C1094 H1085 0.930 . S
C1094 C1092 1.378 . S
C1094 C1095 1.367 . S
C1095 C1094 1.367 . S
C1095 C1097 1.433 . S
C1096 C1092 1.350 . S
C1096 C1093 1.463 . S
C1096 N1100 1.427 . S
C1097 H1087 0.929 . S
C1097 C1095 1.433 . S
C1097 N1100 1.384 . S
C1098 H1089 0.929 . S
C1098 C1090 1.378 . S
C1098 C1093 1.350 . S
C1099 H1086 0.929 . S
C1099 C1091 1.433 . S
C1099 N1101 1.384 . S
N1100 C1096 1.427 . S
N1100 C1097 1.384 . S
N1101 C1093 1.427 . S
N1101 C1099 1.384 . S
H1102 C1108 0.930 . S
H1103 C1112 0.930 1_655 S
H1104 C1117 0.929 . S
H1105 C1115 0.929 . S
H1106 C1110 0.929 . S
H1107 C1116 0.929 . S
C1108 H1102 0.930 . S
C1108 C1109 1.367 . S
C1108 C1116 1.378 . S
C1109 C1108 1.367 . S
C1109 C1117 1.433 . S
C1110 H1106 0.929 . S
C1110 C1112 1.378 . S
C1110 C1114 1.350 . S
C1111 C1114 1.463 . S
C1111 C1116 1.350 . S
C1111 N1119 1.427 . S
C1112 H1103 0.930 1_455 S
C1112 C1110 1.378 . S
C1112 C1113 1.367 1_455 S
C1113 C1112 1.367 1_655 S
C1113 C1115 1.433 1_655 S
C1114 C1110 1.350 . S
C1114 C1111 1.463 . S
C1114 N1118 1.427 . S
C1115 H1105 0.929 . S
C1115 C1113 1.433 1_455 S
C1115 N1118 1.384 . S
C1116 H1107 0.929 . S
C1116 C1108 1.378 . S
C1116 C1111 1.350 . S
C1117 H1104 0.929 . S
C1117 C1109 1.433 . S
C1117 N1119 1.384 . S
N1118 C1114 1.427 . S
N1118 C1115 1.384 . S
N1119 C1111 1.427 . S
N1119 C1117 1.384 . S
H1120 C1126 0.930 . S
H1121 C1130 0.930 . S
H1122 C1135 0.929 . S
H1123 C1133 0.929 . S
H1124 C1128 0.929 . S
H1125 C1134 0.929 . S
C1126 H1120 0.930 . S
C1126 C1127 1.367 . S
C1126 C1134 1.378 . S
C1127 C1126 1.367 . S
C1127 C1135 1.433 . S
C1128 H1124 0.929 . S
C1128 C1130 1.378 . S
C1128 C1132 1.350 . S
C1129 C1132 1.463 . S
C1129 C1134 1.350 . S
C1129 N1137 1.427 . S
C1130 H1121 0.930 . S
C1130 C1128 1.378 . S
C1130 C1131 1.367 . S
C1131 C1130 1.367 . S
C1131 C1133 1.433 . S
C1132 C1128 1.350 . S
C1132 C1129 1.463 . S
C1132 N1136 1.427 . S
C1133 H1123 0.929 . S
C1133 C1131 1.433 . S
C1133 N1136 1.384 . S
C1134 H1125 0.929 . S
C1134 C1126 1.378 . S
C1134 C1129 1.350 . S
C1135 H1122 0.929 . S
C1135 C1127 1.433 . S
C1135 N1137 1.384 . S
N1136 C1132 1.427 . S
N1136 C1133 1.384 . S
N1137 C1129 1.427 . S
N1137 C1135 1.384 . S
H1138 C1144 0.930 . S
H1139 C1148 0.930 . S
H1140 C1153 0.929 . S
H1141 C1151 0.929 . S
H1142 C1146 0.929 . S
H1143 C1152 0.929 . S
C1144 H1138 0.930 . S
C1144 C1145 1.368 . S
C1144 C1152 1.378 . S
C1145 C1144 1.368 . S
C1145 C1153 1.433 1_655 S
C1146 H1142 0.929 . S
C1146 C1148 1.378 . S
C1146 C1150 1.350 . S
C1147 C1150 1.463 . S
C1147 C1152 1.350 . S
C1147 N1155 1.427 . S
C1148 H1139 0.930 . S
C1148 C1146 1.378 . S
C1148 C1149 1.367 . S
C1149 C1148 1.367 . S
C1149 C1151 1.433 . S
C1150 C1146 1.350 . S
C1150 C1147 1.463 . S
C1150 N1154 1.427 . S
C1151 H1141 0.929 . S
C1151 C1149 1.433 . S
C1151 N1154 1.384 . S
C1152 H1143 0.929 . S
C1152 C1144 1.378 . S
C1152 C1147 1.350 . S
C1153 H1140 0.929 . S
C1153 C1145 1.433 1_455 S
C1153 N1155 1.384 1_455 S
N1154 C1150 1.427 . S
N1154 C1151 1.384 . S
N1155 C1147 1.427 . S
N1155 C1153 1.384 1_655 S
H1156 C1162 0.930 . S
H1157 C1166 0.930 . S
H1158 C1171 0.929 . S
H1159 C1169 0.929 . S
H1160 C1164 0.929 . S
H1161 C1170 0.929 . S
C1162 H1156 0.930 . S
C1162 C1163 1.367 . S
C1162 C1170 1.378 . S
C1163 C1162 1.367 . S
C1163 C1171 1.433 . S
C1164 H1160 0.929 . S
C1164 C1166 1.378 . S
C1164 C1168 1.350 . S
C1165 C1168 1.463 . S
C1165 C1170 1.350 . S
C1165 N1173 1.427 . S
C1166 H1157 0.930 . S
C1166 C1164 1.378 . S
C1166 C1167 1.367 . S
C1167 C1166 1.367 . S
C1167 C1169 1.433 . S
C1168 C1164 1.350 . S
C1168 C1165 1.463 . S
C1168 N1172 1.427 . S
C1169 H1159 0.929 . S
C1169 C1167 1.433 . S
C1169 N1172 1.384 . S
C1170 H1161 0.929 . S
C1170 C1162 1.378 . S
C1170 C1165 1.350 . S
C1171 H1158 0.929 . S
C1171 C1163 1.433 . S
C1171 N1173 1.384 . S
N1172 C1168 1.427 . S
N1172 C1169 1.384 . S
N1173 C1165 1.427 . S
N1173 C1171 1.384 . S
H1174 C1180 0.930 . S
H1175 C1184 0.930 . S
H1176 C1189 0.929 . S
H1177 C1187 0.929 1_455 S
H1178 C1182 0.929 . S
H1179 C1188 0.929 . S
C1180 H1174 0.930 . S
C1180 C1181 1.367 . S
C1180 C1188 1.378 . S
C1181 C1180 1.367 . S
C1181 C1189 1.433 . S
C1182 H1178 0.929 . S
C1182 C1184 1.378 . S
C1182 C1186 1.350 . S
C1183 C1186 1.463 . S
C1183 C1188 1.350 . S
C1183 N1191 1.427 . S
C1184 H1175 0.930 . S
C1184 C1182 1.378 . S
C1184 C1185 1.361 1_655 S
C1185 C1184 1.361 1_455 S
C1185 C1187 1.431 1_455 S
C1186 C1182 1.350 . S
C1186 C1183 1.463 . S
C1186 N1190 1.427 . S
C1187 H1177 0.929 1_655 S
C1187 C1185 1.431 1_655 S
C1187 N1190 1.384 . S
C1188 H1179 0.929 . S
C1188 C1180 1.378 . S
C1188 C1183 1.350 . S
C1189 H1176 0.929 . S
C1189 C1181 1.433 . S
C1189 N1191 1.384 . S
N1190 C1186 1.427 . S
N1190 C1187 1.384 . S
N1191 C1183 1.427 . S
N1191 C1189 1.384 . S
H1192 C1198 0.930 . S
H1193 C1202 0.930 . S
H1194 C1207 0.929 . S
H1195 C1205 0.929 . S
H1196 C1200 0.929 . S
H1197 C1206 0.929 . S
C1198 H1192 0.930 . S
C1198 C1199 1.367 . S
C1198 C1206 1.378 . S
C1199 C1198 1.367 . S
C1199 C1207 1.433 . S
C1200 H1196 0.929 . S
C1200 C1202 1.378 . S
C1200 C1204 1.350 . S
C1201 C1204 1.463 . S
C1201 C1206 1.350 . S
C1201 N1209 1.427 . S
C1202 H1193 0.930 . S
C1202 C1200 1.378 . S
C1202 C1203 1.367 . S
C1203 C1202 1.367 . S
C1203 C1205 1.433 . S
C1204 C1200 1.350 . S
C1204 C1201 1.463 . S
C1204 N1208 1.427 . S
C1205 H1195 0.929 . S
C1205 C1203 1.433 . S
C1205 N1208 1.384 . S
C1206 H1197 0.929 . S
C1206 C1198 1.378 . S
C1206 C1201 1.350 . S
C1207 H1194 0.929 . S
C1207 C1199 1.433 . S
C1207 N1209 1.384 . S
N1208 C1204 1.427 . S
N1208 C1205 1.384 . S
N1209 C1201 1.427 . S
N1209 C1207 1.384 . S
H1210 C1216 0.930 . S
H1211 C1220 0.930 . S
H1212 C1225 0.929 1_655 S
H1213 C1223 0.929 . S
H1214 C1218 0.929 . S
H1215 C1224 0.929 . S
C1216 H1210 0.930 . S
C1216 C1217 1.361 1_455 S
C1216 C1224 1.378 . S
C1217 C1216 1.361 1_655 S
C1217 C1225 1.431 1_655 S
C1218 H1214 0.929 . S
C1218 C1220 1.378 . S
C1218 C1222 1.350 . S
C1219 C1222 1.463 . S
C1219 C1224 1.350 . S
C1219 N1227 1.427 . S
C1220 H1211 0.930 . S
C1220 C1218 1.378 . S
C1220 C1221 1.367 . S
C1221 C1220 1.367 . S
C1221 C1223 1.433 . S
C1222 C1218 1.350 . S
C1222 C1219 1.463 . S
C1222 N1226 1.427 . S
C1223 H1213 0.929 . S
C1223 C1221 1.433 . S
C1223 N1226 1.384 . S
C1224 H1215 0.929 . S
C1224 C1216 1.378 . S
C1224 C1219 1.350 . S
C1225 H1212 0.929 1_455 S
C1225 C1217 1.431 1_455 S
C1225 N1227 1.384 . S
N1226 C1222 1.427 . S
N1226 C1223 1.384 . S
N1227 C1219 1.427 . S
N1227 C1225 1.384 . S
H1228 C1234 0.930 . S
H1229 C1238 0.930 . S
H1230 C1243 0.929 . S
H1231 C1241 0.929 . S
H1232 C1236 0.929 . S
H1233 C1242 0.929 . S
C1234 H1228 0.930 . S
C1234 C1235 1.367 . S
C1234 C1242 1.378 . S
C1235 C1234 1.367 . S
C1235 C1243 1.433 . S
C1236 H1232 0.929 . S
C1236 C1238 1.378 . S
C1236 C1240 1.350 . S
C1237 C1240 1.463 . S
C1237 C1242 1.350 . S
C1237 N1245 1.427 . S
C1238 H1229 0.930 . S
C1238 C1236 1.378 . S
C1238 C1239 1.367 . S
C1239 C1238 1.367 . S
C1239 C1241 1.433 . S
C1240 C1236 1.350 . S
C1240 C1237 1.463 . S
C1240 N1244 1.427 . S
C1241 H1231 0.929 . S
C1241 C1239 1.433 . S
C1241 N1244 1.384 . S
C1242 H1233 0.929 . S
C1242 C1234 1.378 . S
C1242 C1237 1.350 . S
C1243 H1230 0.929 . S
C1243 C1235 1.433 . S
C1243 N1245 1.384 . S
N1244 C1240 1.427 . S
N1244 C1241 1.384 . S
N1245 C1237 1.427 . S
N1245 C1243 1.384 . S
H1246 C1252 0.930 . S
H1247 C1256 0.930 . S
H1248 C1261 0.929 . S
H1249 C1259 0.929 . S
H1250 C1254 0.929 . S
H1251 C1260 0.929 . S
C1252 H1246 0.930 . S
C1252 C1253 1.367 . S
C1252 C1260 1.378 1_655 S
C1253 C1252 1.367 . S
C1253 C1261 1.433 1_655 S
C1254 H1250 0.929 . S
C1254 C1256 1.378 . S
C1254 C1258 1.350 . S
C1255 C1258 1.463 . S
C1255 C1260 1.350 . S
C1255 N1263 1.427 . S
C1256 H1247 0.930 . S
C1256 C1254 1.378 . S
C1256 C1257 1.367 . S
C1257 C1256 1.367 . S
C1257 C1259 1.433 . S
C1258 C1254 1.350 . S
C1258 C1255 1.463 . S
C1258 N1262 1.427 . S
C1259 H1249 0.929 . S
C1259 C1257 1.433 . S
C1259 N1262 1.384 . S
C1260 H1251 0.929 . S
C1260 C1252 1.378 1_455 S
C1260 C1255 1.350 . S
C1261 H1248 0.929 . S
C1261 C1253 1.433 1_455 S
C1261 N1263 1.384 . S
N1262 C1258 1.427 . S
N1262 C1259 1.384 . S
N1263 C1255 1.427 . S
N1263 C1261 1.384 . S
H1264 C1270 0.930 . S
H1265 C1274 0.930 . S
H1266 C1279 0.929 . S
H1267 C1277 0.929 . S
H1268 C1272 0.929 . S
H1269 C1278 0.929 . S
C1270 H1264 0.930 . S
C1270 C1271 1.367 . S
C1270 C1278 1.378 . S
C1271 C1270 1.367 . S
C1271 C1279 1.433 . S
C1272 H1268 0.929 . S
C1272 C1274 1.378 . S
C1272 C1276 1.350 . S
C1273 C1276 1.463 . S
C1273 C1278 1.350 . S
C1273 N1281 1.427 . S
C1274 H1265 0.930 . S
C1274 C1272 1.378 . S
C1274 C1275 1.367 . S
C1275 C1274 1.367 . S
C1275 C1277 1.433 . S
C1276 C1272 1.350 . S
C1276 C1273 1.463 . S
C1276 N1280 1.427 . S
C1277 H1267 0.929 . S
C1277 C1275 1.433 . S
C1277 N1280 1.384 . S
C1278 H1269 0.929 . S
C1278 C1270 1.378 . S
C1278 C1273 1.350 . S
C1279 H1266 0.929 . S
C1279 C1271 1.433 . S
C1279 N1281 1.384 . S
N1280 C1276 1.427 . S
N1280 C1277 1.384 . S
N1281 C1273 1.427 . S
N1281 C1279 1.384 . S
H1282 C1288 0.930 . S
H1283 C1292 0.930 . S
H1284 C1297 0.929 . S
H1285 C1295 0.929 . S
H1286 C1290 0.929 . S
H1287 C1296 0.929 . S
C1288 H1282 0.930 . S
C1288 C1289 1.367 . S
C1288 C1296 1.378 . S
C1289 C1288 1.367 . S
C1289 C1297 1.433 . S
C1290 H1286 0.929 . S
C1290 C1292 1.378 . S
C1290 C1294 1.350 . S
C1291 C1294 1.463 . S
C1291 C1296 1.350 . S
C1291 N1299 1.427 . S
C1292 H1283 0.930 . S
C1292 C1290 1.378 . S
C1292 C1293 1.367 . S
C1293 C1292 1.367 . S
C1293 C1295 1.433 . S
C1294 C1290 1.350 . S
C1294 C1291 1.463 . S
C1294 N1298 1.427 . S
C1295 H1285 0.929 . S
C1295 C1293 1.433 . S
C1295 N1298 1.384 . S
C1296 H1287 0.929 . S
C1296 C1288 1.378 . S
C1296 C1291 1.350 . S
C1297 H1284 0.929 . S
C1297 C1289 1.433 . S
C1297 N1299 1.384 . S
N1298 C1294 1.427 . S
N1298 C1295 1.384 . S
N1299 C1291 1.427 . S
N1299 C1297 1.384 . S
H1300 C1306 0.930 . S
H1301 C1310 0.930 . S
H1302 C1315 0.929 . S
H1303 C1313 0.929 . S
H1304 C1308 0.929 . S
H1305 C1314 0.929 . S
C1306 H1300 0.930 . S
C1306 C1307 1.367 . S
C1306 C1314 1.378 . S
C1307 C1306 1.367 . S
C1307 C1315 1.433 . S
C1308 H1304 0.929 . S
C1308 C1310 1.378 . S
C1308 C1312 1.350 . S
C1309 C1312 1.463 . S
C1309 C1314 1.350 . S
C1309 N1317 1.427 . S
C1310 H1301 0.930 . S
C1310 C1308 1.378 . S
C1310 C1311 1.367 . S
C1311 C1310 1.367 . S
C1311 C1313 1.433 . S
C1312 C1308 1.350 . S
C1312 C1309 1.463 . S
C1312 N1316 1.427 . S
C1313 H1303 0.929 . S
C1313 C1311 1.433 . S
C1313 N1316 1.384 . S
C1314 H1305 0.929 . S
C1314 C1306 1.378 . S
C1314 C1309 1.350 . S
C1315 H1302 0.929 . S
C1315 C1307 1.433 . S
C1315 N1317 1.384 . S
N1316 C1312 1.427 . S
N1316 C1313 1.384 . S
N1317 C1309 1.427 . S
N1317 C1315 1.384 . S
H1318 C1324 0.930 . S
H1319 C1328 0.930 . S
H1320 C1333 0.929 . S
H1321 C1331 0.929 . S
H1322 C1326 0.929 . S
H1323 C1332 0.929 . S
C1324 H1318 0.930 . S
C1324 C1325 1.367 . S
C1324 C1332 1.378 . S
C1325 C1324 1.367 . S
C1325 C1333 1.433 . S
C1326 H1322 0.929 . S
C1326 C1328 1.378 . S
C1326 C1330 1.350 . S
C1327 C1330 1.463 . S
C1327 C1332 1.350 . S
C1327 N1335 1.427 . S
C1328 H1319 0.930 . S
C1328 C1326 1.378 . S
C1328 C1329 1.367 . S
C1329 C1328 1.367 . S
C1329 C1331 1.433 . S
C1330 C1326 1.350 . S
C1330 C1327 1.463 . S
C1330 N1334 1.427 . S
C1331 H1321 0.929 . S
C1331 C1329 1.433 . S
C1331 N1334 1.384 . S
C1332 H1323 0.929 . S
C1332 C1324 1.378 . S
C1332 C1327 1.350 . S
C1333 H1320 0.929 . S
C1333 C1325 1.433 . S
C1333 N1335 1.384 . S
N1334 C1330 1.427 . S
N1334 C1331 1.384 . S
N1335 C1327 1.427 . S
N1335 C1333 1.384 . S
H1336 C1342 0.930 . S
H1337 C1346 0.930 . S
H1338 C1351 0.929 . S
H1339 C1349 0.929 . S
H1340 C1344 0.929 . S
H1341 C1350 0.929 . S
C1342 H1336 0.930 . S
C1342 C1343 1.367 . S
C1342 C1350 1.378 . S
C1343 C1342 1.367 . S
C1343 C1351 1.433 1_556 S
C1344 H1340 0.929 . S
C1344 C1346 1.378 . S
C1344 C1348 1.350 1_554 S
C1345 C1348 1.463 . S
C1345 C1350 1.350 . S
C1345 N1353 1.427 1_556 S
C1346 H1337 0.930 . S
C1346 C1344 1.378 . S
C1346 C1347 1.367 1_554 S
C1347 C1346 1.367 1_556 S
C1347 C1349 1.433 . S
C1348 C1344 1.350 1_556 S
C1348 C1345 1.463 . S
C1348 N1352 1.427 . S
C1349 H1339 0.929 . S
C1349 C1347 1.433 . S
C1349 N1352 1.384 . S
C1350 H1341 0.929 . S
C1350 C1342 1.378 . S
C1350 C1345 1.350 . S
C1351 H1338 0.929 . S
C1351 C1343 1.433 1_554 S
C1351 N1353 1.384 . S
N1352 C1348 1.427 . S
N1352 C1349 1.384 . S
N1353 C1345 1.427 1_554 S
N1353 C1351 1.384 . S
H1354 C1360 0.930 . S
H1355 C1364 0.930 . S
H1356 C1369 0.929 . S
H1357 C1367 0.929 . S
H1358 C1362 0.929 . S
H1359 C1368 0.929 . S
C1360 H1354 0.930 . S
C1360 C1361 1.367 . S
C1360 C1368 1.378 . S
C1361 C1360 1.367 . S
C1361 C1369 1.433 . S
C1362 H1358 0.929 . S
C1362 C1364 1.378 . S
C1362 C1366 1.350 . S
C1363 C1366 1.463 . S
C1363 C1368 1.350 . S
C1363 N1371 1.427 . S
C1364 H1355 0.930 . S
C1364 C1362 1.378 . S
C1364 C1365 1.367 . S
C1365 C1364 1.367 . S
C1365 C1367 1.433 . S
C1366 C1362 1.350 . S
C1366 C1363 1.463 . S
C1366 N1370 1.427 . S
C1367 H1357 0.929 . S
C1367 C1365 1.433 . S
C1367 N1370 1.384 . S
C1368 H1359 0.929 . S
C1368 C1360 1.378 . S
C1368 C1363 1.350 . S
C1369 H1356 0.929 . S
C1369 C1361 1.433 . S
C1369 N1371 1.384 . S
N1370 C1366 1.427 . S
N1370 C1367 1.384 . S
N1371 C1363 1.427 . S
N1371 C1369 1.384 . S
H1372 C1378 0.930 . S
H1373 C1382 0.930 . S
H1374 C1387 0.929 . S
H1375 C1385 0.929 . S
H1376 C1380 0.929 . S
H1377 C1386 0.929 . S
C1378 H1372 0.930 . S
C1378 C1379 1.367 . S
C1378 C1386 1.378 . S
C1379 C1378 1.367 . S
C1379 C1387 1.433 1_554 S
C1380 H1376 0.929 . S
C1380 C1382 1.378 . S
C1380 C1384 1.350 1_556 S
C1381 C1384 1.463 . S
C1381 C1386 1.350 . S
C1381 N1389 1.427 1_554 S
C1382 H1373 0.930 . S
C1382 C1380 1.378 . S
C1382 C1383 1.367 1_556 S
C1383 C1382 1.367 1_554 S
C1383 C1385 1.433 . S
C1384 C1380 1.350 1_554 S
C1384 C1381 1.463 . S
C1384 N1388 1.427 . S
C1385 H1375 0.929 . S
C1385 C1383 1.433 . S
C1385 N1388 1.384 . S
C1386 H1377 0.929 . S
C1386 C1378 1.378 . S
C1386 C1381 1.350 . S
C1387 H1374 0.929 . S
C1387 C1379 1.433 1_556 S
C1387 N1389 1.384 . S
N1388 C1384 1.427 . S
N1388 C1385 1.384 . S
N1389 C1381 1.427 1_556 S
N1389 C1387 1.384 . S
H1390 C1396 0.930 . S
H1391 C1400 0.930 . S
H1392 C1405 0.929 . S
H1393 C1403 0.929 . S
H1394 C1398 0.929 . S
H1395 C1404 0.929 . S
C1396 H1390 0.930 . S
C1396 C1397 1.367 . S
C1396 C1404 1.378 . S
C1397 C1396 1.367 . S
C1397 C1405 1.433 . S
C1398 H1394 0.929 . S
C1398 C1400 1.378 . S
C1398 C1402 1.350 . S
C1399 C1402 1.463 . S
C1399 C1404 1.350 . S
C1399 N1407 1.427 . S
C1400 H1391 0.930 . S
C1400 C1398 1.378 . S
C1400 C1401 1.367 . S
C1401 C1400 1.367 . S
C1401 C1403 1.433 . S
C1402 C1398 1.350 . S
C1402 C1399 1.463 . S
C1402 N1406 1.427 . S
C1403 H1393 0.929 . S
C1403 C1401 1.433 . S
C1403 N1406 1.384 . S
C1404 H1395 0.929 . S
C1404 C1396 1.378 . S
C1404 C1399 1.350 . S
C1405 H1392 0.929 . S
C1405 C1397 1.433 . S
C1405 N1407 1.384 . S
N1406 C1402 1.427 . S
N1406 C1403 1.384 . S
N1407 C1399 1.427 . S
N1407 C1405 1.384 . S
H1408 C1414 0.930 . S
H1409 C1418 0.930 . S
H1410 C1423 0.929 . S
H1411 C1421 0.929 . S
H1412 C1416 0.929 . S
H1413 C1422 0.929 . S
C1414 H1408 0.930 . S
C1414 C1415 1.367 . S
C1414 C1422 1.378 1_655 S
C1415 C1414 1.367 . S
C1415 C1423 1.433 1_556 S
C1416 H1412 0.929 . S
C1416 C1418 1.378 . S
C1416 C1420 1.350 1_554 S
C1417 C1420 1.463 . S
C1417 C1422 1.350 . S
C1417 N1425 1.427 1_556 S
C1418 H1409 0.930 . S
C1418 C1416 1.378 . S
C1418 C1419 1.367 1_554 S
C1419 C1418 1.367 1_556 S
C1419 C1421 1.433 . S
C1420 C1416 1.350 1_556 S
C1420 C1417 1.463 . S
C1420 N1424 1.427 . S
C1421 H1411 0.929 . S
C1421 C1419 1.433 . S
C1421 N1424 1.384 . S
C1422 H1413 0.929 . S
C1422 C1414 1.378 1_455 S
C1422 C1417 1.350 . S
C1423 H1410 0.929 . S
C1423 C1415 1.433 1_554 S
C1423 N1425 1.384 1_655 S
N1424 C1420 1.427 . S
N1424 C1421 1.384 . S
N1425 C1417 1.427 1_554 S
N1425 C1423 1.384 1_455 S
H1426 C1432 0.930 . S
H1427 C1436 0.930 . S
H1428 C1441 0.929 . S
H1429 C1439 0.929 . S
H1430 C1434 0.929 . S
H1431 C1440 0.929 . S
C1432 H1426 0.930 . S
C1432 C1433 1.367 . S
C1432 C1440 1.378 1_655 S
C1433 C1432 1.367 . S
C1433 C1441 1.433 . S
C1434 H1430 0.929 . S
C1434 C1436 1.378 . S
C1434 C1438 1.350 . S
C1435 C1438 1.463 . S
C1435 C1440 1.350 . S
C1435 N1443 1.427 . S
C1436 H1427 0.930 . S
C1436 C1434 1.378 . S
C1436 C1437 1.367 . S
C1437 C1436 1.367 . S
C1437 C1439 1.433 . S
C1438 C1434 1.350 . S
C1438 C1435 1.463 . S
C1438 N1442 1.427 . S
C1439 H1429 0.929 . S
C1439 C1437 1.433 . S
C1439 N1442 1.384 . S
C1440 H1431 0.929 . S
C1440 C1432 1.378 1_455 S
C1440 C1435 1.350 . S
C1441 H1428 0.929 . S
C1441 C1433 1.433 . S
C1441 N1443 1.384 1_655 S
N1442 C1438 1.427 . S
N1442 C1439 1.384 . S
N1443 C1435 1.427 . S
N1443 C1441 1.384 1_455 S
H1444 C1450 0.930 . S
H1445 C1454 0.930 . S
H1446 C1459 0.929 . S
H1447 C1457 0.929 . S
H1448 C1452 0.929 . S
H1449 C1458 0.929 . S
C1450 H1444 0.930 . S
C1450 C1451 1.367 1_556 S
C1450 C1458 1.378 . S
C1451 C1450 1.367 1_554 S
C1451 C1459 1.433 . S
C1452 H1448 0.929 . S
C1452 C1454 1.378 1_655 S
C1452 C1456 1.350 . S
C1453 C1456 1.463 . S
C1453 C1458 1.350 1_554 S
C1453 N1461 1.427 . S
C1454 H1445 0.930 . S
C1454 C1452 1.378 1_455 S
C1454 C1455 1.367 . S
C1455 C1454 1.367 . S
C1455 C1457 1.433 1_554 S
C1456 C1452 1.350 . S
C1456 C1453 1.463 . S
C1456 N1460 1.427 1_554 S
C1457 H1447 0.929 . S
C1457 C1455 1.433 1_556 S
C1457 N1460 1.384 1_455 S
C1458 H1449 0.929 . S
C1458 C1450 1.378 . S
C1458 C1453 1.350 1_556 S
C1459 H1446 0.929 . S
C1459 C1451 1.433 . S
C1459 N1461 1.384 . S
N1460 C1456 1.427 1_556 S
N1460 C1457 1.384 1_655 S
N1461 C1453 1.427 . S
N1461 C1459 1.384 . S
H1462 C1468 0.930 . S
H1463 C1472 0.930 . S
H1464 C1477 0.929 . S
H1465 C1475 0.929 . S
H1466 C1470 0.929 . S
H1467 C1476 0.929 . S
C1468 H1462 0.930 . S
C1468 C1469 1.367 . S
C1468 C1476 1.378 1_455 S
C1469 C1468 1.367 . S
C1469 C1477 1.433 . S
C1470 H1466 0.929 . S
C1470 C1472 1.378 . S
C1470 C1474 1.350 . S
C1471 C1474 1.463 . S
C1471 C1476 1.350 . S
C1471 N1479 1.427 . S
C1472 H1463 0.930 . S
C1472 C1470 1.378 . S
C1472 C1473 1.367 . S
C1473 C1472 1.367 . S
C1473 C1475 1.433 . S
C1474 C1470 1.350 . S
C1474 C1471 1.463 . S
C1474 N1478 1.427 . S
C1475 H1465 0.929 . S
C1475 C1473 1.433 . S
C1475 N1478 1.384 . S
C1476 H1467 0.929 . S
C1476 C1468 1.378 1_655 S
C1476 C1471 1.350 . S
C1477 H1464 0.929 . S
C1477 C1469 1.433 . S
C1477 N1479 1.384 1_455 S
N1478 C1474 1.427 . S
N1478 C1475 1.384 . S
N1479 C1471 1.427 . S
N1479 C1477 1.384 1_655 S
H1480 C1486 0.930 . S
H1481 C1490 0.930 . S
H1482 C1495 0.929 . S
H1483 C1493 0.929 . S
H1484 C1488 0.929 . S
H1485 C1494 0.929 . S
C1486 H1480 0.930 . S
C1486 C1487 1.367 . S
C1486 C1494 1.378 1_655 S
C1487 C1486 1.367 . S
C1487 C1495 1.433 . S
C1488 H1484 0.929 . S
C1488 C1490 1.378 . S
C1488 C1492 1.350 . S
C1489 C1492 1.463 . S
C1489 C1494 1.350 . S
C1489 N1497 1.427 . S
C1490 H1481 0.930 . S
C1490 C1488 1.378 . S
C1490 C1491 1.367 . S
C1491 C1490 1.367 . S
C1491 C1493 1.433 . S
C1492 C1488 1.350 . S
C1492 C1489 1.463 . S
C1492 N1496 1.427 . S
C1493 H1483 0.929 . S
C1493 C1491 1.433 . S
C1493 N1496 1.384 . S
C1494 H1485 0.929 . S
C1494 C1486 1.378 1_455 S
C1494 C1489 1.350 . S
C1495 H1482 0.929 . S
C1495 C1487 1.433 . S
C1495 N1497 1.384 1_655 S
N1496 C1492 1.427 . S
N1496 C1493 1.384 . S
N1497 C1489 1.427 . S
N1497 C1495 1.384 1_455 S
H1498 C1504 0.930 . S
H1499 C1508 0.930 . S
H1500 C1513 0.929 . S
H1501 C1511 0.929 . S
H1502 C1506 0.929 . S
H1503 C1512 0.929 . S
C1504 H1498 0.930 . S
C1504 C1505 1.367 . S
C1504 C1512 1.378 1_655 S
C1505 C1504 1.367 . S
C1505 C1513 1.433 . S
C1506 H1502 0.929 . S
C1506 C1508 1.378 . S
C1506 C1510 1.350 . S
C1507 C1510 1.463 . S
C1507 C1512 1.350 . S
C1507 N1515 1.427 . S
C1508 H1499 0.930 . S
C1508 C1506 1.378 . S
C1508 C1509 1.367 . S
C1509 C1508 1.367 . S
C1509 C1511 1.433 . S
C1510 C1506 1.350 . S
C1510 C1507 1.463 . S
C1510 N1514 1.427 . S
C1511 H1501 0.929 . S
C1511 C1509 1.433 . S
C1511 N1514 1.384 . S
C1512 H1503 0.929 . S
C1512 C1504 1.378 1_455 S
C1512 C1507 1.350 . S
C1513 H1500 0.929 . S
C1513 C1505 1.433 . S
C1513 N1515 1.384 1_655 S
N1514 C1510 1.427 . S
N1514 C1511 1.384 . S
N1515 C1507 1.427 . S
N1515 C1513 1.384 1_455 S
H1516 C1522 0.930 . S
H1517 C1526 0.930 . S
H1518 C1531 0.929 . S
H1519 C1529 0.929 . S
H1520 C1524 0.929 . S
H1521 C1530 0.929 . S
C1522 H1516 0.930 . S
C1522 C1523 1.367 . S
C1522 C1530 1.378 1_455 S
C1523 C1522 1.367 . S
C1523 C1531 1.433 . S
C1524 H1520 0.929 . S
C1524 C1526 1.378 . S
C1524 C1528 1.350 . S
C1525 C1528 1.463 . S
C1525 C1530 1.350 . S
C1525 N1533 1.427 . S
C1526 H1517 0.930 . S
C1526 C1524 1.378 . S
C1526 C1527 1.367 . S
C1527 C1526 1.367 . S
C1527 C1529 1.433 . S
C1528 C1524 1.350 . S
C1528 C1525 1.463 . S
C1528 N1532 1.427 . S
C1529 H1519 0.929 . S
C1529 C1527 1.433 . S
C1529 N1532 1.384 . S
C1530 H1521 0.929 . S
C1530 C1522 1.378 1_655 S
C1530 C1525 1.350 . S
C1531 H1518 0.929 . S
C1531 C1523 1.433 . S
C1531 N1533 1.384 1_455 S
N1532 C1528 1.427 . S
N1532 C1529 1.384 . S
N1533 C1525 1.427 . S
N1533 C1531 1.384 1_655 S
H1534 C1540 0.930 . S
H1535 C1544 0.930 . S
H1536 C1549 0.929 . S
H1537 C1547 0.929 . S
H1538 C1542 0.929 . S
H1539 C1548 0.929 . S
C1540 H1534 0.930 . S
C1540 C1541 1.367 . S
C1540 C1548 1.378 1_455 S
C1541 C1540 1.367 . S
C1541 C1549 1.433 . S
C1542 H1538 0.929 . S
C1542 C1544 1.378 . S
C1542 C1546 1.350 . S
C1543 C1546 1.463 . S
C1543 C1548 1.350 . S
C1543 N1551 1.427 . S
C1544 H1535 0.930 . S
C1544 C1542 1.378 . S
C1544 C1545 1.367 . S
C1545 C1544 1.367 . S
C1545 C1547 1.433 . S
C1546 C1542 1.350 . S
C1546 C1543 1.463 . S
C1546 N1550 1.427 . S
C1547 H1537 0.929 . S
C1547 C1545 1.433 . S
C1547 N1550 1.384 . S
C1548 H1539 0.929 . S
C1548 C1540 1.378 1_655 S
C1548 C1543 1.350 . S
C1549 H1536 0.929 . S
C1549 C1541 1.433 . S
C1549 N1551 1.384 1_455 S
N1550 C1546 1.427 . S
N1550 C1547 1.384 . S
N1551 C1543 1.427 . S
N1551 C1549 1.384 1_655 S
C551 C498 1.557 . S
C555 C22 1.557 . S
C569 C83 1.542 1_455 S
C573 C15 1.542 1_655 S
C587 C56 1.556 . S
C591 C389 1.556 . S
C605 C49 1.562 1_655 S
C609 C260 1.562 1_455 S
C623 C90 1.555 . S
C627 C430 1.555 . S
C641 C117 1.556 . S
C645 C321 1.556 . S
C659 C124 1.555 1_455 S
C663 C185 1.555 1_655 S
C677 C151 1.558 . S
C681 C362 1.558 . S
C695 C158 1.564 1_655 S
C699 C226 1.564 1_455 S
C713 C192 1.548 . S
C717 C525 1.548 . S
C731 C219 1.547 1_556 S
C735 C287 1.547 1_554 S
C749 C464 1.548 . S
C753 C253 1.548 . S
C767 C294 1.546 . S
C771 C355 1.546 . S
C785 C328 1.563 . S
C789 C532 1.563 . S
C803 C396 1.559 . S
C807 C457 1.559 . S
C821 C423 1.558 . S
C825 C491 1.558 . S
C839 C17 1.821 . S
C843 C51 1.821 . S
C857 C119 1.821 . S
C861 C85 1.821 . S
C875 C153 1.821 . S
C879 C187 1.821 . S
C893 C221 1.821 . S
C897 C255 1.821 . S
C911 C289 1.821 . S
C915 C323 1.821 . S
C929 C357 1.821 . S
C933 C391 1.821 . S
C947 C425 1.821 . S
C951 C459 1.821 . S
C965 C527 1.821 . S
C969 C493 1.821 . S
C983 C307 1.699 . S
C987 C1 1.701 . S
C1001 C3 1.709 . S
C1005 C309 1.691 . S
C1019 C35 1.688 . S
C1023 C273 1.697 . S
C1037 C37 1.699 . S
C1041 C275 1.701 . S
C1055 C375 1.697 . S
C1059 C69 1.687 . S
C1073 C377 1.695 . S
C1077 C71 1.702 . S
C1091 C343 1.702 . S
C1095 C105 1.696 . S
C1109 C341 1.698 . S
C1113 C103 1.688 . S
C1127 C139 1.700 . S
C1131 C445 1.690 . S
C1145 C137 1.699 1_655 S
C1149 C443 1.699 . S
C1163 C411 1.687 . S
C1167 C171 1.693 . S
C1181 C409 1.700 . S
C1185 C173 1.700 . S
C1199 C511 1.701 . S
C1203 C207 1.697 . S
C1217 C205 1.700 . S
C1221 C513 1.700 . S
C1235 C241 1.698 . S
C1239 C479 1.701 . S
C1253 C239 1.695 . S
C1257 C477 1.687 . S
C1271 C6 1.573 . S
C1275 C28 1.575 . S
C1289 C40 1.574 . S
C1293 C62 1.576 . S
C1307 C74 1.576 . S
C1311 C96 1.573 . S
C1325 C130 1.575 . S
C1329 C108 1.573 . S
C1343 C142 1.575 . S
C1347 C164 1.575 . S
C1361 C176 1.576 . S
C1365 C198 1.574 . S
C1379 C210 1.573 . S
C1383 C232 1.576 . S
C1397 C266 1.574 . S
C1401 C244 1.576 . S
C1415 C300 1.573 . S
C1419 C278 1.575 . S
C1433 C334 1.573 . S
C1437 C312 1.575 . S
C1451 C368 1.576 . S
C1455 C346 1.573 . S
C1469 C402 1.575 . S
C1473 C380 1.575 . S
C1487 C414 1.574 . S
C1491 C436 1.574 . S
C1505 C448 1.573 . S
C1509 C470 1.576 . S
C1523 C482 1.575 . S
C1527 C504 1.574 . S
C1541 C538 1.576 . S
C1545 C516 1.574 . S
