# Generated by pormake.
# Topology acs-g, (3)-cn, num edge types: 1
# Building blocks:
#     Node 0, Type 0, BuildingBlock: OLANEW_clean_sbu_2, # of connection points: 3
#     Node 1, Type 0, BuildingBlock: OLANEW_clean_sbu_2, # of connection points: 3
#     Node 2, Type 0, BuildingBlock: OLANEW_clean_sbu_2, # of connection points: 3
#     Node 3, Type 0, BuildingBlock: OLANEW_clean_sbu_2, # of connection points: 3
#     Node 4, Type 0, BuildingBlock: OLANEW_clean_sbu_2, # of connection points: 3
#     Node 5, Type 0, BuildingBlock: OLANEW_clean_sbu_2, # of connection points: 3
#     Node 6, Type 0, BuildingBlock: OLANEW_clean_sbu_2, # of connection points: 3
#     Node 7, Type 0, BuildingBlock: OLANEW_clean_sbu_2, # of connection points: 3
#     Node 8, Type 0, BuildingBlock: OLANEW_clean_sbu_2, # of connection points: 3
#     Node 9, Type 0, BuildingBlock: OLANEW_clean_sbu_2, # of connection points: 3
#     Node 10, Type 0, BuildingBlock: OLANEW_clean_sbu_2, # of connection points: 3
#     Node 11, Type 0, BuildingBlock: OLANEW_clean_sbu_2, # of connection points: 3
#     Edge 12, Type (0, 0), BuildingBlock: UVAHIK_clean_linker_0, # of connection points: 2
#     Edge 13, Type (0, 0), BuildingBlock: UVAHIK_clean_linker_0, # of connection points: 2
#     Edge 14, Type (0, 0), BuildingBlock: UVAHIK_clean_linker_0, # of connection points: 2
#     Edge 15, Type (0, 0), BuildingBlock: UVAHIK_clean_linker_0, # of connection points: 2
#     Edge 16, Type (0, 0), BuildingBlock: UVAHIK_clean_linker_0, # of connection points: 2
#     Edge 17, Type (0, 0), BuildingBlock: UVAHIK_clean_linker_0, # of connection points: 2
#     Edge 18, Type (0, 0), BuildingBlock: UVAHIK_clean_linker_0, # of connection points: 2
#     Edge 19, Type (0, 0), BuildingBlock: UVAHIK_clean_linker_0, # of connection points: 2
#     Edge 20, Type (0, 0), BuildingBlock: UVAHIK_clean_linker_0, # of connection points: 2
#     Edge 21, Type (0, 0), BuildingBlock: UVAHIK_clean_linker_0, # of connection points: 2
#     Edge 22, Type (0, 0), BuildingBlock: UVAHIK_clean_linker_0, # of connection points: 2
#     Edge 23, Type (0, 0), BuildingBlock: UVAHIK_clean_linker_0, # of connection points: 2
#     Edge 24, Type (0, 0), BuildingBlock: UVAHIK_clean_linker_0, # of connection points: 2
#     Edge 25, Type (0, 0), BuildingBlock: UVAHIK_clean_linker_0, # of connection points: 2
#     Edge 26, Type (0, 0), BuildingBlock: UVAHIK_clean_linker_0, # of connection points: 2
#     Edge 27, Type (0, 0), BuildingBlock: UVAHIK_clean_linker_0, # of connection points: 2
#     Edge 28, Type (0, 0), BuildingBlock: UVAHIK_clean_linker_0, # of connection points: 2
#     Edge 29, Type (0, 0), BuildingBlock: UVAHIK_clean_linker_0, # of connection points: 2
# Relax obj value: 0.001
# Max RMSD: 0.052
# Mean RMSD: 0.052
data_MOF--net-acs-g--node1-OLANEW_clean_sbu_2--edge1-UVAHIK_clean_linker_0
_symmetry_space_group_name_H-M    P1
_symmetry_Int_Tables_number       1
_symmetry_cell_setting            triclinic
loop_
_symmetry_equiv_pos_as_xyz
'x, y, z'
_cell_length_a     68.364422
_cell_length_b     68.354711
_cell_length_c     59.719849
_cell_angle_alpha  89.996142
_cell_angle_beta   90.009147
_cell_angle_gamma 120.06049
loop_
_atom_site_label
_atom_site_type_symbol
_atom_site_fract_x
_atom_site_fract_y
_atom_site_fract_z
_atom_type_partial_charge
O0 O 0.38651 0.42181 0.18334 0.0
Cd1 Cd 0.35001 0.3994 0.16463 0.0
O2 O 0.37293 0.4115 0.21742 0.0
Cd3 Cd 0.33748 0.39242 0.2074 0.0
O4 O 0.30245 0.38459 0.21058 0.0
C5 C 0.2986 0.40069 0.20707 0.0
O6 O 0.31538 0.42033 0.20054 0.0
C7 C 0.38964 0.42255 0.20439 0.0
C8 C 0.35567 0.39161 0.11978 0.0
O9 O 0.35562 0.4096 0.12575 0.0
O10 O 0.35293 0.37723 0.13501 0.0
O11 O 0.96488 0.38724 0.68298 0.0
Cd12 Cd 0.95101 0.35078 0.66429 0.0
O13 O 0.96054 0.37347 0.7171 0.0
Cd14 Cd 0.94452 0.33804 0.70706 0.0
O15 O 0.91826 0.30259 0.71026 0.0
C16 C 0.89853 0.29681 0.70328 0.0
O17 O 0.89519 0.31197 0.69319 0.0
C18 C 0.96667 0.39027 0.70407 0.0
C19 C 0.96466 0.35656 0.6195 0.0
O20 O 0.94654 0.35637 0.62538 0.0
O21 O 0.97629 0.35389 0.63479 0.0
O22 O 0.57551 0.96091 0.18428 0.0
Cd23 Cd 0.59768 0.94707 0.16476 0.0
O24 O 0.59102 0.96319 0.21718 0.0
Cd25 Cd 0.60966 0.94654 0.20664 0.0
O26 O 0.61751 0.91937 0.21 0.0
C27 C 0.6019 0.89942 0.20541 0.0
O28 O 0.58262 0.89642 0.19759 0.0
C29 C 0.57747 0.9661 0.20494 0.0
C30 C 0.60588 0.96174 0.12026 0.0
O31 O 0.58794 0.9434 0.12577 0.0
O32 O 0.61999 0.97311 0.13579 0.0
O33 O 0.61418 0.57439 0.68295 0.0
Cd34 Cd 0.65011 0.59563 0.66299 0.0
O35 O 0.62765 0.59065 0.71553 0.0
Cd36 Cd 0.66291 0.60871 0.70476 0.0
O37 O 0.69771 0.61584 0.7082 0.0
C38 C 0.70087 0.5991 0.70643 0.0
O39 O 0.68358 0.5792 0.7014 0.0
C40 C 0.61106 0.5769 0.70351 0.0
C41 C 0.64333 0.60396 0.61865 0.0
O42 O 0.64288 0.58561 0.62413 0.0
O43 O 0.64709 0.61844 0.63411 0.0
O44 O 0.0377 0.61382 0.18244 0.0
Cd45 Cd 0.05174 0.64972 0.16257 0.0
O46 O 0.03556 0.62743 0.21517 0.0
Cd47 Cd 0.05259 0.66267 0.20432 0.0
O48 O 0.08059 0.69735 0.20765 0.0
C49 C 0.10037 0.70007 0.20652 0.0
O50 O 0.10259 0.68243 0.20217 0.0
C51 C 0.0325 0.6108 0.20311 0.0
C52 C 0.03677 0.64293 0.11817 0.0
O53 O 0.05508 0.64327 0.12361 0.0
O54 O 0.02556 0.64586 0.13372 0.0
O55 O 0.42216 0.03749 0.68437 0.0
Cd56 Cd 0.40008 0.05129 0.66455 0.0
O57 O 0.40626 0.03504 0.71707 0.0
Cd58 Cd 0.3877 0.05166 0.70617 0.0
O59 O 0.38053 0.07931 0.70915 0.0
C60 C 0.39684 0.09917 0.70555 0.0
O61 O 0.41632 0.1017 0.69898 0.0
C62 C 0.41999 0.03224 0.70502 0.0
C63 C 0.39233 0.03687 0.61997 0.0
O64 O 0.4102 0.05518 0.62565 0.0
O65 O 0.37809 0.02538 0.63536 0.0
O66 O 0.57247 0.61432 0.32688 0.0
Cd67 Cd 0.59341 0.65034 0.34673 0.0
O68 O 0.58741 0.62823 0.29394 0.0
Cd69 Cd 0.6049 0.66369 0.30412 0.0
O70 O 0.61131 0.69771 0.29653 0.0
C71 C 0.59631 0.69816 0.28432 0.0
O72 O 0.57872 0.67888 0.27823 0.0
C73 C 0.5745 0.61141 0.30616 0.0
C74 C 0.60212 0.64376 0.39101 0.0
O75 O 0.58362 0.64303 0.38563 0.0
O76 O 0.61658 0.64771 0.37547 0.0
O77 O 0.95856 0.57412 0.82517 0.0
Cd78 Cd 0.94401 0.59573 0.84458 0.0
O79 O 0.96089 0.58969 0.79228 0.0
Cd80 Cd 0.94315 0.60743 0.80222 0.0
O81 O 0.9151 0.61329 0.79518 0.0
C82 C 0.89808 0.59671 0.78603 0.0
O83 O 0.89855 0.57795 0.78261 0.0
C84 C 0.96403 0.57632 0.80458 0.0
C85 C 0.95861 0.604 0.88909 0.0
O86 O 0.9404 0.58594 0.88355 0.0
O87 O 0.96986 0.61821 0.8736 0.0
O88 O 0.386 0.96285 0.32631 0.0
Cd89 Cd 0.34946 0.94905 0.34477 0.0
O90 O 0.37231 0.95797 0.2921 0.0
Cd91 Cd 0.33665 0.94108 0.30147 0.0
O92 O 0.30247 0.91352 0.2943 0.0
C93 C 0.30161 0.89607 0.28578 0.0
O94 O 0.32059 0.89588 0.28301 0.0
C95 C 0.38909 0.9645 0.30524 0.0
C96 C 0.3551 0.9627 0.38957 0.0
O97 O 0.35441 0.94431 0.3838 0.0
O98 O 0.35299 0.97459 0.37418 0.0
O99 O 0.42353 0.3866 0.82642 0.0
Cd100 Cd 0.40151 0.35002 0.84505 0.0
O101 O 0.415 0.37269 0.79226 0.0
Cd102 Cd 0.39652 0.33704 0.80171 0.0
O103 O 0.38952 0.3028 0.79423 0.0
C104 C 0.40504 0.302 0.78326 0.0
O105 O 0.42344 0.32108 0.77829 0.0
C106 C 0.42498 0.38958 0.80532 0.0
C107 C 0.39323 0.35558 0.88978 0.0
O108 O 0.41142 0.35586 0.884 0.0
O109 O 0.37887 0.35254 0.87443 0.0
O110 O 0.03658 0.42406 0.32606 0.0
Cd111 Cd 0.05131 0.40214 0.34454 0.0
O112 O 0.04062 0.4145 0.2919 0.0
Cd113 Cd 0.0578 0.39606 0.30133 0.0
O114 O 0.08528 0.38941 0.29413 0.0
C115 C 0.1017 0.40515 0.28343 0.0
O116 O 0.10092 0.4235 0.27857 0.0
C117 C 0.03436 0.42499 0.305 0.0
C118 C 0.03786 0.39397 0.38937 0.0
O119 O 0.05573 0.41217 0.38345 0.0
O120 O 0.02639 0.37955 0.3741 0.0
O121 O 0.61228 0.03825 0.82765 0.0
Cd122 Cd 0.64892 0.05225 0.84597 0.0
O123 O 0.62589 0.04309 0.79341 0.0
Cd124 Cd 0.66162 0.05997 0.80251 0.0
O125 O 0.6959 0.08662 0.79416 0.0
C126 C 0.6967 0.1005 0.7795 0.0
O127 O 0.6776 0.09776 0.77142 0.0
C128 C 0.60914 0.03655 0.80658 0.0
C129 C 0.64353 0.03824 0.89064 0.0
O130 O 0.64399 0.05658 0.8851 0.0
O131 O 0.64574 0.02657 0.87508 0.0
C132 C 0.25905 0.37826 0.22209 0.0
C133 C 0.27625 0.39815 0.21222 0.0
C134 C 0.23864 0.37671 0.22855 0.0
C135 C 0.20332 0.40317 0.22002 0.0
H136 H 0.17994 0.37941 0.27911 0.0
C137 C 0.13875 0.42041 0.26372 0.0
C138 C 0.12093 0.4027 0.27559 0.0
C139 C 0.15656 0.41807 0.25546 0.0
C140 C 0.18606 0.3858 0.26245 0.0
H141 H 0.28523 0.43178 0.20084 0.0
H142 H 0.24981 0.42912 0.21215 0.0
H143 H 0.21274 0.37809 0.26487 0.0
H144 H 0.10799 0.3687 0.28833 0.0
H145 H 0.13918 0.36458 0.27377 0.0
H146 H 0.17689 0.41116 0.21769 0.0
C147 C 0.25197 0.41463 0.21476 0.0
C148 C 0.20484 0.38502 0.25427 0.0
C149 C 0.27235 0.4162 0.20838 0.0
C150 C 0.12148 0.38267 0.27928 0.0
C151 C 0.13938 0.38033 0.271 0.0
C152 C 0.18458 0.40394 0.22818 0.0
C153 C 0.23496 0.39498 0.22516 0.0
C154 C 0.2139 0.39403 0.2331 0.0
C155 C 0.15702 0.39796 0.25882 0.0
C156 C 0.17595 0.39561 0.24964 0.0
H157 H 0.2615 0.36403 0.22525 0.0
H158 H 0.22577 0.36125 0.23628 0.0
H159 H 0.20962 0.40986 0.20348 0.0
H160 H 0.13895 0.43613 0.26068 0.0
H161 H 0.17009 0.43215 0.24655 0.0
C162 C 0.73923 0.12194 0.77885 0.0
C163 C 0.71853 0.11918 0.77122 0.0
C164 C 0.7597 0.13953 0.77061 0.0
C165 C 0.78364 0.17959 0.72302 0.0
H166 H 0.833 0.21504 0.76392 0.0
C167 C 0.85737 0.268 0.70089 0.0
C168 C 0.87917 0.27413 0.70844 0.0
C169 C 0.83873 0.24745 0.70732 0.0
C170 C 0.81952 0.20509 0.75221 0.0
H171 H 0.70317 0.13288 0.74909 0.0
H172 H 0.73869 0.16356 0.73503 0.0
H173 H 0.79865 0.18231 0.77789 0.0
H174 H 0.89857 0.2631 0.72813 0.0
H175 H 0.86597 0.22713 0.73927 0.0
H176 H 0.80432 0.20262 0.69744 0.0
C177 C 0.73917 0.15194 0.74706 0.0
C178 C 0.79982 0.18633 0.76022 0.0
C179 C 0.71877 0.13442 0.75527 0.0
C180 C 0.88199 0.25893 0.72205 0.0
C181 C 0.86331 0.23838 0.72856 0.0
C182 C 0.8033 0.19834 0.71503 0.0
C183 C 0.75989 0.15469 0.75455 0.0
C184 C 0.78151 0.17358 0.74579 0.0
C185 C 0.84143 0.23255 0.7215 0.0
C186 C 0.82133 0.21152 0.72959 0.0
H187 H 0.73962 0.11045 0.7911 0.0
H188 H 0.77537 0.14109 0.7766 0.0
H189 H 0.77004 0.16985 0.71136 0.0
H190 H 0.85458 0.2793 0.6904 0.0
H191 H 0.82209 0.24359 0.70177 0.0
C192 C 0.61818 0.74058 0.2812 0.0
C193 C 0.59882 0.71978 0.27618 0.0
C194 C 0.62061 0.7608 0.27274 0.0
C195 C 0.5994 0.78258 0.22768 0.0
H196 H 0.62148 0.83559 0.26549 0.0
C197 C 0.587 0.85769 0.20583 0.0
C198 C 0.60447 0.87967 0.21083 0.0
C199 C 0.58846 0.83889 0.21253 0.0
C200 C 0.61561 0.82105 0.2546 0.0
H201 H 0.56669 0.70398 0.25864 0.0
H202 H 0.57081 0.73908 0.2442 0.0
H203 H 0.61987 0.80147 0.28014 0.0
H204 H 0.6375 0.89913 0.22626 0.0
H205 H 0.64008 0.86622 0.23785 0.0
H206 H 0.59481 0.80199 0.20227 0.0
C207 C 0.58432 0.73981 0.25431 0.0
C208 C 0.61468 0.80148 0.263 0.0
C209 C 0.58188 0.71967 0.26275 0.0
C210 C 0.62372 0.88243 0.22218 0.0
C211 C 0.62515 0.86358 0.22896 0.0
C212 C 0.60032 0.8021 0.2193 0.0
C213 C 0.60377 0.7606 0.25905 0.0
C214 C 0.60623 0.78191 0.24974 0.0
C215 C 0.60741 0.84159 0.22442 0.0
C216 C 0.60813 0.82146 0.23276 0.0
H217 H 0.63155 0.74124 0.29147 0.0
H218 H 0.63587 0.77652 0.27658 0.0
H219 H 0.59325 0.76795 0.21686 0.0
H220 H 0.57193 0.85495 0.19714 0.0
H221 H 0.57438 0.82219 0.20898 0.0
C222 C 0.7262 0.58265 0.71 0.0
C223 C 0.72306 0.60139 0.71193 0.0
C224 C 0.74646 0.58414 0.71672 0.0
C225 C 0.79497 0.61615 0.75422 0.0
H226 H 0.82061 0.58568 0.72088 0.0
C227 C 0.87845 0.61909 0.77994 0.0
C228 C 0.87858 0.59865 0.77812 0.0
C229 C 0.86037 0.62095 0.77139 0.0
C230 C 0.81356 0.59413 0.73048 0.0
H231 H 0.73901 0.63659 0.72194 0.0
H232 H 0.77453 0.63921 0.73356 0.0
H233 H 0.78789 0.58658 0.706 0.0
H234 H 0.85957 0.56399 0.76634 0.0
H235 H 0.82809 0.56716 0.75175 0.0
H236 H 0.82052 0.62344 0.77885 0.0
C237 C 0.76116 0.62329 0.72706 0.0
C238 C 0.79482 0.59466 0.72194 0.0
C239 C 0.74087 0.62183 0.72026 0.0
C240 C 0.8601 0.58004 0.76792 0.0
C241 C 0.8421 0.58189 0.75939 0.0
C242 C 0.81375 0.61561 0.76279 0.0
C243 C 0.7641 0.60439 0.72556 0.0
C244 C 0.78509 0.60539 0.73385 0.0
C245 C 0.84209 0.60241 0.76081 0.0
C246 C 0.82304 0.60429 0.75117 0.0
H247 H 0.71283 0.56664 0.70369 0.0
H248 H 0.74804 0.56917 0.71559 0.0
H249 H 0.78773 0.62434 0.76393 0.0
H250 H 0.89245 0.63376 0.78768 0.0
H251 H 0.86092 0.63702 0.77264 0.0
C252 C 0.27968 0.85779 0.26837 0.0
C253 C 0.28 0.87677 0.27784 0.0
C254 C 0.25969 0.83995 0.25981 0.0
C255 C 0.19764 0.81312 0.26201 0.0
H256 H 0.20091 0.78564 0.20636 0.0
C257 C 0.11824 0.7404 0.21949 0.0
C258 C 0.1205 0.72214 0.21193 0.0
C259 C 0.13726 0.76062 0.22619 0.0
C260 C 0.19973 0.79304 0.22198 0.0
H261 H 0.25942 0.89171 0.28609 0.0
H262 H 0.22438 0.86046 0.271 0.0
H263 H 0.23478 0.81819 0.22119 0.0
H264 H 0.14457 0.71103 0.20497 0.0
H265 H 0.17756 0.74611 0.21671 0.0
H266 H 0.1626 0.78772 0.26291 0.0
C267 C 0.23965 0.85939 0.27034 0.0
C268 C 0.21914 0.81167 0.2305 0.0
C269 C 0.25973 0.87731 0.27892 0.0
C270 C 0.14221 0.72475 0.21068 0.0
C271 C 0.16117 0.74494 0.2173 0.0
C272 C 0.17818 0.79444 0.25347 0.0
C273 C 0.23948 0.84061 0.26047 0.0
C274 C 0.21842 0.82172 0.2508 0.0
C275 C 0.15892 0.76303 0.22536 0.0
C276 C 0.17909 0.78397 0.23353 0.0
H277 H 0.29494 0.85673 0.26739 0.0
H278 H 0.26005 0.82555 0.25274 0.0
H279 H 0.19656 0.82036 0.27778 0.0
H280 H 0.10176 0.73895 0.22063 0.0
H281 H 0.13499 0.77434 0.23208 0.0
C282 C 0.41979 0.27997 0.76316 0.0
C283 C 0.40229 0.28025 0.77525 0.0
C284 C 0.41715 0.25974 0.75476 0.0
C285 C 0.38429 0.19789 0.76163 0.0
H286 H 0.40784 0.1982 0.70246 0.0
C287 C 0.37504 0.11685 0.72076 0.0
C288 C 0.39473 0.11922 0.71075 0.0
C289 C 0.37392 0.13592 0.72733 0.0
C290 C 0.40128 0.19786 0.71905 0.0
H291 H 0.36834 0.25937 0.78822 0.0
H292 H 0.3637 0.22393 0.7734 0.0
H293 H 0.40978 0.23247 0.71691 0.0
H294 H 0.42844 0.14352 0.69922 0.0
H295 H 0.42652 0.17664 0.71073 0.0
H296 H 0.37606 0.16331 0.76385 0.0
C297 C 0.37952 0.23942 0.77058 0.0
C298 C 0.40242 0.2175 0.72736 0.0
C299 C 0.38216 0.25973 0.779 0.0
C300 C 0.413 0.14106 0.70687 0.0
C301 C 0.41186 0.16009 0.71337 0.0
C302 C 0.38314 0.1782 0.75331 0.0
C303 C 0.39694 0.23924 0.7582 0.0
C304 C 0.39427 0.21786 0.74888 0.0
C305 C 0.39242 0.15776 0.72393 0.0
C306 C 0.39194 0.17807 0.73205 0.0
H307 H 0.43557 0.29543 0.76006 0.0
H308 H 0.43108 0.26016 0.74569 0.0
H309 H 0.37804 0.19765 0.77835 0.0
H310 H 0.36064 0.10026 0.72395 0.0
H311 H 0.35861 0.13357 0.73519 0.0
C312 C 0.43076 0.45138 0.19994 0.0
C313 C 0.41237 0.43771 0.21394 0.0
C314 C 0.45143 0.46764 0.20907 0.0
C315 C 0.48425 0.48725 0.26222 0.0
H316 H 0.50968 0.54629 0.23445 0.0
C317 C 0.54348 0.57087 0.30815 0.0
C318 C 0.56041 0.58889 0.29575 0.0
C319 C 0.5283 0.55058 0.2976 0.0
C320 C 0.50312 0.52985 0.24221 0.0
H321 H 0.40169 0.42965 0.24858 0.0
H322 H 0.43752 0.45813 0.26441 0.0
H323 H 0.47803 0.5139 0.21679 0.0
H324 H 0.57552 0.59916 0.26278 0.0
H325 H 0.54925 0.56371 0.24449 0.0
H326 H 0.50902 0.5035 0.28804 0.0
C327 C 0.43611 0.45618 0.24639 0.0
C328 C 0.48494 0.51123 0.23205 0.0
C329 C 0.41547 0.43992 0.23727 0.0
C330 C 0.56255 0.58572 0.27281 0.0
C331 C 0.54741 0.56543 0.26228 0.0
C332 C 0.50247 0.50593 0.27242 0.0
C333 C 0.45417 0.47061 0.2324 0.0
C334 C 0.47503 0.48977 0.2421 0.0
C335 C 0.52975 0.54784 0.27442 0.0
C336 C 0.51188 0.52751 0.2627 0.0
H337 H 0.42902 0.45002 0.18189 0.0
H338 H 0.46514 0.47823 0.19783 0.0
H339 H 0.47721 0.47089 0.27024 0.0
H340 H 0.54135 0.57272 0.32585 0.0
H341 H 0.51478 0.53744 0.30742 0.0
C342 C 0.97459 0.41598 0.73692 0.0
C343 C 0.97418 0.41298 0.7136 0.0
C344 C 0.97905 0.43666 0.74597 0.0
C345 C 0.97407 0.48606 0.73115 0.0
H346 H 0.00501 0.50957 0.78766 0.0
C347 C 0.97796 0.56415 0.77155 0.0
C348 C 0.97222 0.56196 0.79439 0.0
C349 C 0.98292 0.54882 0.7612 0.0
C350 C 0.99628 0.50318 0.7719 0.0
H351 H 0.97938 0.42981 0.68153 0.0
H352 H 0.98742 0.46599 0.69736 0.0
H353 H 0.00553 0.47755 0.77009 0.0
H354 H 0.96838 0.54259 0.82451 0.0
H355 H 0.97678 0.51571 0.80639 0.0
H356 H 0.96429 0.5112 0.73317 0.0
C357 C 0.98389 0.45219 0.70863 0.0
C358 C 0.99657 0.48484 0.76183 0.0
C359 C 0.9794 0.43148 0.69956 0.0
C360 C 0.97269 0.54476 0.80689 0.0
C361 C 0.97763 0.5294 0.79651 0.0
C362 C 0.97379 0.50437 0.74119 0.0
C363 C 0.98324 0.45486 0.73193 0.0
C364 C 0.98514 0.47583 0.74152 0.0
C365 C 0.98226 0.53092 0.77343 0.0
C366 C 0.98458 0.51292 0.76186 0.0
H367 H 0.97069 0.40212 0.74825 0.0
H368 H 0.97818 0.43802 0.76397 0.0
H369 H 0.96475 0.47933 0.71572 0.0
H370 H 0.97797 0.57732 0.76145 0.0
H371 H 0.98682 0.55071 0.74348 0.0
C372 C 0.56461 0.97914 0.23814 0.0
C373 C 0.56269 0.97373 0.21523 0.0
C374 C 0.54896 0.98362 0.24853 0.0
C375 C 0.50278 0.9962 0.23788 0.0
H376 H 0.47893 0.96398 0.29373 0.0
C377 C 0.41504 0.97292 0.2725 0.0
C378 C 0.4119 0.97232 0.29582 0.0
C379 C 0.43585 0.97773 0.26353 0.0
C380 C 0.48565 0.97348 0.2784 0.0
H381 H 0.54343 0.96993 0.18504 0.0
H382 H 0.51599 0.97749 0.20322 0.0
H383 H 0.51116 0.96422 0.27633 0.0
H384 H 0.42861 0.97753 0.32796 0.0
H385 H 0.46502 0.98616 0.31227 0.0
H386 H 0.47678 0.00494 0.23973 0.0
C387 C 0.52972 0.97846 0.21313 0.0
C388 C 0.50417 0.97361 0.26838 0.0
C389 C 0.5454 0.974 0.20272 0.0
C390 C 0.43039 0.9777 0.30993 0.0
C391 C 0.45123 0.98252 0.30094 0.0
C392 C 0.48423 0.99609 0.24792 0.0
C393 C 0.531 0.98278 0.23627 0.0
C394 C 0.51273 0.98465 0.24783 0.0
C395 C 0.45406 0.98209 0.27765 0.0
C396 C 0.47521 0.9844 0.26811 0.0
H397 H 0.57783 0.97928 0.24826 0.0
H398 H 0.55066 0.9873 0.2663 0.0
H399 H 0.50918 0.00513 0.22221 0.0
H400 H 0.4012 0.96892 0.26112 0.0
H401 H 0.43734 0.97702 0.24554 0.0
C402 C 0.4527 0.43103 0.80984 0.0
C403 C 0.43972 0.41242 0.79581 0.0
C404 C 0.46857 0.45191 0.80075 0.0
C405 C 0.48779 0.48464 0.74754 0.0
H406 H 0.54674 0.51202 0.77578 0.0
C407 C 0.57092 0.54505 0.70169 0.0
C408 C 0.58864 0.56246 0.71396 0.0
C409 C 0.55077 0.52962 0.7123 0.0
C410 C 0.53031 0.50491 0.76788 0.0
H411 H 0.43245 0.40152 0.76115 0.0
H412 H 0.46022 0.43772 0.74542 0.0
H413 H 0.5148 0.4799 0.79346 0.0
H414 H 0.59851 0.57813 0.74675 0.0
H415 H 0.5633 0.55139 0.76514 0.0
H416 H 0.50359 0.50933 0.72158 0.0
C417 C 0.45805 0.43631 0.76342 0.0
C418 C 0.51195 0.48646 0.77805 0.0
C419 C 0.4422 0.41547 0.77248 0.0
C420 C 0.5853 0.5648 0.73682 0.0
C421 C 0.56515 0.5494 0.74741 0.0
C422 C 0.50619 0.50313 0.73734 0.0
C423 C 0.47179 0.45464 0.77745 0.0
C424 C 0.49056 0.47583 0.76782 0.0
C425 C 0.54787 0.53129 0.73541 0.0
C426 C 0.52775 0.51322 0.74721 0.0
H427 H 0.45113 0.42932 0.82788 0.0
H428 H 0.47865 0.4658 0.81202 0.0
H429 H 0.47146 0.47705 0.73938 0.0
H430 H 0.5729 0.54276 0.68406 0.0
H431 H 0.5379 0.51577 0.70259 0.0
C432 C 0.02423 0.57067 0.20129 0.0
C433 C 0.02474 0.58845 0.21362 0.0
C434 C 0.0197 0.55059 0.21192 0.0
C435 C 0.02491 0.53048 0.26734 0.0
H436 H 0.99301 0.47136 0.23943 0.0
C437 C 0.02114 0.45306 0.30959 0.0
C438 C 0.02628 0.43974 0.29554 0.0
C439 C 0.01619 0.46895 0.3005 0.0
C440 C 0.00202 0.48777 0.24742 0.0
H441 H 0.01953 0.59849 0.24656 0.0
H442 H 0.0114 0.56341 0.26497 0.0
H443 H 0.99282 0.50344 0.2216 0.0
H444 H 0.0291 0.43191 0.26087 0.0
H445 H 0.02079 0.45973 0.24512 0.0
H446 H 0.03471 0.5151 0.29276 0.0
C447 C 0.01493 0.56516 0.24718 0.0
C448 C 0.00191 0.50614 0.2372 0.0
C449 C 0.01948 0.58523 0.23658 0.0
C450 C 0.02528 0.44192 0.27221 0.0
C451 C 0.02035 0.4578 0.26314 0.0
C452 C 0.02504 0.51216 0.27752 0.0
C453 C 0.01555 0.54783 0.2351 0.0
C454 C 0.01366 0.52778 0.24687 0.0
C455 C 0.01627 0.47188 0.27718 0.0
C456 C 0.01392 0.49066 0.2675 0.0
H457 H 0.02818 0.57256 0.18359 0.0
H458 H 0.02049 0.53766 0.20214 0.0
H459 H 0.03446 0.54697 0.27507 0.0
H460 H 0.02161 0.45172 0.32763 0.0
H461 H 0.01276 0.47928 0.31178 0.0
C462 C 0.43283 0.01954 0.7385 0.0
C463 C 0.4348 0.02476 0.71554 0.0
C464 C 0.44854 0.01529 0.74911 0.0
C465 C 0.49507 0.0031 0.73911 0.0
H466 H 0.51874 0.03611 0.79461 0.0
C467 C 0.58307 0.02767 0.77387 0.0
C468 C 0.58628 0.02856 0.79719 0.0
C469 C 0.56218 0.02258 0.76487 0.0
C470 C 0.51207 0.02639 0.77938 0.0
H471 H 0.45421 0.02845 0.6855 0.0
H472 H 0.48174 0.02128 0.70405 0.0
H473 H 0.48632 0.03529 0.77697 0.0
H474 H 0.56965 0.02362 0.82933 0.0
H475 H 0.5331 0.01452 0.81359 0.0
H476 H 0.52131 0.99473 0.74129 0.0
C477 C 0.46793 0.02029 0.71384 0.0
C478 C 0.49345 0.02593 0.76923 0.0
C479 C 0.45219 0.02452 0.70321 0.0
C480 C 0.56781 0.02323 0.8113 0.0
C481 C 0.54689 0.01813 0.80228 0.0
C482 C 0.51372 0.00354 0.74929 0.0
C483 C 0.46661 0.01618 0.73702 0.0
C484 C 0.48495 0.01461 0.74878 0.0
C485 C 0.54397 0.01822 0.77897 0.0
C486 C 0.52269 0.01554 0.76935 0.0
H487 H 0.41953 0.01939 0.74848 0.0
H488 H 0.44682 0.01178 0.76691 0.0
H489 H 0.48873 0.99396 0.72353 0.0
H490 H 0.5969 0.03163 0.76248 0.0
H491 H 0.56063 0.02305 0.74686 0.0
C492 C 0.3556 0.36654 0.08908 0.0
C493 C 0.35898 0.38766 0.09605 0.0
C494 C 0.35888 0.36288 0.0667 0.0
C495 C 0.38922 0.3926 0.01581 0.0
H496 H 0.34531 0.33809 0.98513 0.0
C497 C 0.40636 0.36591 0.92946 0.0
C498 C 0.38904 0.35885 0.91344 0.0
C499 C 0.40254 0.36938 0.95172 0.0
C500 C 0.35767 0.35343 0.99346 0.0
H501 H 0.36847 0.4215 0.08497 0.0
H502 H 0.37441 0.41514 0.04594 0.0
H503 H 0.33875 0.34434 0.02407 0.0
H504 H 0.35405 0.34968 0.90832 0.0
H505 H 0.34734 0.35552 0.94729 0.0
H506 H 0.40816 0.40168 0.98524 0.0
C507 C 0.36924 0.40144 0.05782 0.0
C508 C 0.35401 0.35691 0.01579 0.0
C509 C 0.36572 0.40503 0.08015 0.0
C510 C 0.36775 0.35514 0.92024 0.0
C511 C 0.36387 0.35837 0.94257 0.0
C512 C 0.39301 0.389 0.99358 0.0
C513 C 0.36585 0.38032 0.05086 0.0
C514 C 0.36972 0.37657 0.02717 0.0
C515 C 0.38125 0.36563 0.95852 0.0
C516 C 0.37725 0.36939 0.98216 0.0
H517 H 0.35039 0.3528 0.10091 0.0
H518 H 0.35632 0.34648 0.06184 0.0
H519 H 0.40171 0.40783 0.02422 0.0
H520 H 0.42295 0.36894 0.92477 0.0
H521 H 0.4162 0.37478 0.96369 0.0
C522 C 0.04097 0.40721 0.42904 0.0
C523 C 0.03058 0.38983 0.41309 0.0
C524 C 0.03383 0.40345 0.45136 0.0
C525 C 0.00512 0.3587 0.49329 0.0
H526 H 0.99474 0.40271 0.52397 0.0
C527 C 0.98984 0.35666 0.5889 0.0
C528 C 0.97202 0.35993 0.5958 0.0
C529 C 0.99685 0.35997 0.56654 0.0
C530 C 0.99749 0.39024 0.51559 0.0
H531 H 0.00472 0.3548 0.40814 0.0
H532 H 0.99244 0.3482 0.4472 0.0
H533 H 0.00729 0.40911 0.48497 0.0
H534 H 0.94762 0.3693 0.58462 0.0
H535 H 0.96005 0.37531 0.54563 0.0
H536 H 0.99534 0.33984 0.52394 0.0
C537 C 0.0061 0.36472 0.44239 0.0
C538 C 0.00485 0.39399 0.49335 0.0
C539 C 0.01306 0.36855 0.42001 0.0
C540 C 0.96139 0.36662 0.57985 0.0
C541 C 0.96858 0.37019 0.55755 0.0
C542 C 0.99801 0.35507 0.51563 0.0
C543 C 0.01633 0.38216 0.45827 0.0
C544 C 0.00868 0.37823 0.48194 0.0
C545 C 0.98637 0.36688 0.55065 0.0
C546 C 0.99405 0.37077 0.52698 0.0
H547 H 0.05451 0.42381 0.42426 0.0
H548 H 0.04217 0.41715 0.46327 0.0
H549 H 0.00808 0.34634 0.48497 0.0
H550 H 0.99836 0.35148 0.60077 0.0
H551 H 0.01073 0.35748 0.56174 0.0
C552 C 0.63549 0.04222 0.93084 0.0
C553 C 0.64033 0.03065 0.91428 0.0
C554 C 0.63211 0.03485 0.95309 0.0
C555 C 0.63779 0.02338 1.00085 0.0
H556 H 0.60548 0.95909 0.01339 0.0
C557 C 0.63076 0.98849 0.09045 0.0
C558 C 0.61011 0.96957 0.0967 0.0
C559 C 0.63473 0.99591 0.06821 0.0
C560 C 0.61436 0.97711 0.01021 0.0
H561 H 0.64571 0.00242 0.90818 0.0
H562 H 0.64029 0.98984 0.94702 0.0
H563 H 0.61143 0.97213 0.97475 0.0
H564 H 0.57736 0.9437 0.08449 0.0
H565 H 0.58408 0.95688 0.04586 0.0
H566 H 0.64009 0.02837 0.03632 0.0
C567 C 0.63864 0.00435 0.94277 0.0
C568 C 0.61806 0.9846 0.98801 0.0
C569 C 0.64189 0.01165 0.9205 0.0
C570 C 0.59351 0.95826 0.08022 0.0
C571 C 0.59742 0.96575 0.05801 0.0
C572 C 0.634 0.01589 0.02305 0.0
C573 C 0.63362 0.01581 0.95935 0.0
C574 C 0.62981 0.00784 0.98302 0.0
C575 C 0.61809 0.98467 0.0517 0.0
C576 C 0.62223 0.99265 0.02804 0.0
H577 H 0.63406 0.05686 0.9266 0.0
H578 H 0.62794 0.0439 0.96531 0.0
H579 H 0.64714 0.0414 0.99767 0.0
H580 H 0.64396 0.99752 0.10271 0.0
H581 H 0.65097 0.01031 0.06392 0.0
C582 C 0.63213 0.59101 0.57903 0.0
C583 C 0.63949 0.60824 0.59518 0.0
C584 C 0.6282 0.59494 0.55695 0.0
C585 C 0.64305 0.64019 0.51577 0.0
H586 H 0.58839 0.59596 0.48552 0.0
C587 C 0.62802 0.64378 0.42079 0.0
C588 C 0.60659 0.64 0.41443 0.0
C589 C 0.63218 0.64014 0.44289 0.0
C590 C 0.60368 0.60851 0.49378 0.0
H591 H 0.64867 0.64317 0.60074 0.0
H592 H 0.64196 0.65006 0.56212 0.0
H593 H 0.5954 0.58921 0.5241 0.0
H594 H 0.57272 0.62935 0.42631 0.0
H595 H 0.57998 0.62283 0.46484 0.0
H596 H 0.65131 0.6595 0.48545 0.0
C597 C 0.63927 0.63353 0.56657 0.0
C598 C 0.60779 0.60455 0.51579 0.0
C599 C 0.643 0.62954 0.58871 0.0
C600 C 0.58942 0.63243 0.43065 0.0
C601 C 0.59352 0.62857 0.4527 0.0
C602 C 0.63905 0.64404 0.49368 0.0
C603 C 0.63174 0.61624 0.55048 0.0
C604 C 0.62748 0.62038 0.52704 0.0
C605 C 0.61496 0.63241 0.45906 0.0
C606 C 0.61929 0.62827 0.48247 0.0
H607 H 0.62927 0.57441 0.58346 0.0
H608 H 0.6226 0.58135 0.54487 0.0
H609 H 0.65846 0.65261 0.52396 0.0
H610 H 0.64162 0.64961 0.4087 0.0
H611 H 0.64881 0.64304 0.44726 0.0
C612 C 0.04005 0.63394 0.07811 0.0
C613 C 0.02878 0.63919 0.09465 0.0
C614 C 0.03243 0.63026 0.05594 0.0
C615 C 0.98202 0.61623 0.02128 0.0
H616 H 0.02549 0.63796 0.97271 0.0
C617 C 0.9552 0.59163 0.92913 0.0
C618 C 0.96646 0.60824 0.91265 0.0
C619 C 0.96277 0.59552 0.95131 0.0
C620 C 0.0131 0.63195 0.98606 0.0
H621 H 0.00076 0.64487 0.10082 0.0
H622 H 0.98772 0.63889 0.06212 0.0
H623 H 0.03876 0.64504 0.01129 0.0
H624 H 0.9944 0.64209 0.90662 0.0
H625 H 0.00733 0.64906 0.94536 0.0
H626 H 0.95636 0.60369 0.99605 0.0
C627 C 0.00221 0.63719 0.06632 0.0
C628 C 0.02073 0.63575 0.00822 0.0
C629 C 0.00977 0.64076 0.08851 0.0
C630 C 0.98539 0.62889 0.91888 0.0
C631 C 0.9929 0.63283 0.94109 0.0
C632 C 0.9744 0.6125 0.99912 0.0
C633 C 0.01342 0.63185 0.04975 0.0
C634 C 0.00529 0.62791 0.02613 0.0
C635 C 0.98172 0.61617 0.95759 0.0
C636 C 0.98984 0.62028 0.98121 0.0
H637 H 0.05469 0.63249 0.08229 0.0
H638 H 0.04128 0.62585 0.04372 0.0
H639 H 0.96964 0.60971 0.03462 0.0
H640 H 0.94062 0.57549 0.92487 0.0
H641 H 0.95394 0.58217 0.96348 0.0
C642 C 0.35703 0.98911 0.41977 0.0
C643 C 0.35841 0.97008 0.41328 0.0
C644 C 0.36035 0.99619 0.44211 0.0
C645 C 0.36098 0.97642 0.49991 0.0
H646 H 0.39352 0.04057 0.51317 0.0
C647 C 0.36766 0.01037 0.58988 0.0
C648 C 0.38828 0.02921 0.59634 0.0
C649 C 0.36384 0.00317 0.56757 0.0
C650 C 0.38458 0.02258 0.5098 0.0
H651 H 0.36444 0.94358 0.42519 0.0
H652 H 0.37068 0.95616 0.46403 0.0
H653 H 0.38765 0.02797 0.47439 0.0
H654 H 0.42114 0.05514 0.58445 0.0
H655 H 0.41468 0.04233 0.54569 0.0
H656 H 0.35853 0.97103 0.53533 0.0
C657 C 0.3666 0.9654 0.45197 0.0
C658 C 0.38093 0.01535 0.48751 0.0
C659 C 0.36315 0.95826 0.42964 0.0
C660 C 0.40502 0.04064 0.58001 0.0
C661 C 0.40125 0.03336 0.55773 0.0
C662 C 0.36473 0.98365 0.5222 0.0
C663 C 0.36526 0.98447 0.4585 0.0
C664 C 0.36907 0.99217 0.48226 0.0
C665 C 0.38059 0.01455 0.5512 0.0
C666 C 0.37657 0.00683 0.52745 0.0
H667 H 0.35329 0.99854 0.4076 0.0
H668 H 0.35883 0.01072 0.44657 0.0
H669 H 0.35156 0.95844 0.49653 0.0
H670 H 0.35437 0.00125 0.60202 0.0
H671 H 0.34761 0.98884 0.56312 0.0
loop_
_geom_bond_atom_site_label_1
_geom_bond_atom_site_label_2
_geom_bond_distance
_geom_bond_site_symmetry_2
_ccdc_geom_bond_type
O0 Cd1 2.300 . S
O0 C7 1.275 . S
Cd1 O0 2.300 . S
Cd1 O9 2.381 . S
Cd1 O10 2.378 . S
O2 Cd3 2.385 . S
O2 C7 1.255 . S
Cd3 O2 2.385 . S
Cd3 O4 2.317 . S
O4 Cd3 2.317 . S
O4 C5 1.232 . S
C5 O4 1.232 . S
C5 O6 1.218 . S
O6 C5 1.218 . S
C7 O0 1.275 . S
C7 O2 1.255 . S
C8 O9 1.258 . S
C8 O10 1.256 . S
O9 Cd1 2.381 . S
O9 C8 1.258 . S
O10 Cd1 2.378 . S
O10 C8 1.256 . S
O11 Cd12 2.300 . S
O11 C18 1.275 . S
Cd12 O11 2.300 . S
Cd12 O20 2.381 . S
Cd12 O21 2.378 . S
O13 Cd14 2.385 . S
O13 C18 1.255 . S
Cd14 O13 2.385 . S
Cd14 O15 2.317 . S
O15 Cd14 2.317 . S
O15 C16 1.232 . S
C16 O15 1.232 . S
C16 O17 1.218 . S
O17 C16 1.218 . S
C18 O11 1.275 . S
C18 O13 1.255 . S
C19 O20 1.258 . S
C19 O21 1.256 . S
O20 Cd12 2.381 . S
O20 C19 1.258 . S
O21 Cd12 2.378 . S
O21 C19 1.256 . S
O22 Cd23 2.300 . S
O22 C29 1.275 . S
Cd23 O22 2.300 . S
Cd23 O31 2.381 . S
Cd23 O32 2.378 . S
O24 Cd25 2.385 . S
O24 C29 1.255 . S
Cd25 O24 2.385 . S
Cd25 O26 2.317 . S
O26 Cd25 2.317 . S
O26 C27 1.232 . S
C27 O26 1.232 . S
C27 O28 1.218 . S
O28 C27 1.218 . S
C29 O22 1.275 . S
C29 O24 1.255 . S
C30 O31 1.258 . S
C30 O32 1.256 . S
O31 Cd23 2.381 . S
O31 C30 1.258 . S
O32 Cd23 2.378 . S
O32 C30 1.256 . S
O33 Cd34 2.300 . S
O33 C40 1.275 . S
Cd34 O33 2.300 . S
Cd34 O42 2.381 . S
Cd34 O43 2.378 . S
O35 Cd36 2.385 . S
O35 C40 1.255 . S
Cd36 O35 2.385 . S
Cd36 O37 2.317 . S
O37 Cd36 2.317 . S
O37 C38 1.232 . S
C38 O37 1.232 . S
C38 O39 1.218 . S
O39 C38 1.218 . S
C40 O33 1.275 . S
C40 O35 1.255 . S
C41 O42 1.258 . S
C41 O43 1.256 . S
O42 Cd34 2.381 . S
O42 C41 1.258 . S
O43 Cd34 2.378 . S
O43 C41 1.256 . S
O44 Cd45 2.300 . S
O44 C51 1.275 . S
Cd45 O44 2.300 . S
Cd45 O53 2.381 . S
Cd45 O54 2.378 . S
O46 Cd47 2.385 . S
O46 C51 1.255 . S
Cd47 O46 2.385 . S
Cd47 O48 2.317 . S
O48 Cd47 2.317 . S
O48 C49 1.232 . S
C49 O48 1.232 . S
C49 O50 1.218 . S
O50 C49 1.218 . S
C51 O44 1.275 . S
C51 O46 1.255 . S
C52 O53 1.258 . S
C52 O54 1.256 . S
O53 Cd45 2.381 . S
O53 C52 1.258 . S
O54 Cd45 2.378 . S
O54 C52 1.256 . S
O55 Cd56 2.300 . S
O55 C62 1.275 . S
Cd56 O55 2.300 . S
Cd56 O64 2.381 . S
Cd56 O65 2.378 . S
O57 Cd58 2.385 . S
O57 C62 1.255 . S
Cd58 O57 2.385 . S
Cd58 O59 2.317 . S
O59 Cd58 2.317 . S
O59 C60 1.232 . S
C60 O59 1.232 . S
C60 O61 1.218 . S
O61 C60 1.218 . S
C62 O55 1.275 . S
C62 O57 1.255 . S
C63 O64 1.258 . S
C63 O65 1.256 . S
O64 Cd56 2.381 . S
O64 C63 1.258 . S
O65 Cd56 2.378 . S
O65 C63 1.256 . S
O66 Cd67 2.300 . S
O66 C73 1.275 . S
Cd67 O66 2.300 . S
Cd67 O75 2.381 . S
Cd67 O76 2.378 . S
O68 Cd69 2.385 . S
O68 C73 1.255 . S
Cd69 O68 2.385 . S
Cd69 O70 2.317 . S
O70 Cd69 2.317 . S
O70 C71 1.232 . S
C71 O70 1.232 . S
C71 O72 1.218 . S
O72 C71 1.218 . S
C73 O66 1.275 . S
C73 O68 1.255 . S
C74 O75 1.258 . S
C74 O76 1.256 . S
O75 Cd67 2.381 . S
O75 C74 1.258 . S
O76 Cd67 2.378 . S
O76 C74 1.256 . S
O77 Cd78 2.300 . S
O77 C84 1.275 . S
Cd78 O77 2.300 . S
Cd78 O86 2.381 . S
Cd78 O87 2.378 . S
O79 Cd80 2.385 . S
O79 C84 1.255 . S
Cd80 O79 2.385 . S
Cd80 O81 2.317 . S
O81 Cd80 2.317 . S
O81 C82 1.232 . S
C82 O81 1.232 . S
C82 O83 1.218 . S
O83 C82 1.218 . S
C84 O77 1.275 . S
C84 O79 1.255 . S
C85 O86 1.258 . S
C85 O87 1.256 . S
O86 Cd78 2.381 . S
O86 C85 1.258 . S
O87 Cd78 2.378 . S
O87 C85 1.256 . S
O88 Cd89 2.300 . S
O88 C95 1.275 . S
Cd89 O88 2.300 . S
Cd89 O97 2.381 . S
Cd89 O98 2.378 . S
O90 Cd91 2.385 . S
O90 C95 1.255 . S
Cd91 O90 2.385 . S
Cd91 O92 2.317 . S
O92 Cd91 2.317 . S
O92 C93 1.232 . S
C93 O92 1.232 . S
C93 O94 1.218 . S
O94 C93 1.218 . S
C95 O88 1.275 . S
C95 O90 1.255 . S
C96 O97 1.258 . S
C96 O98 1.256 . S
O97 Cd89 2.381 . S
O97 C96 1.258 . S
O98 Cd89 2.378 . S
O98 C96 1.256 . S
O99 Cd100 2.300 . S
O99 C106 1.275 . S
Cd100 O99 2.300 . S
Cd100 O108 2.381 . S
Cd100 O109 2.378 . S
O101 Cd102 2.385 . S
O101 C106 1.255 . S
Cd102 O101 2.385 . S
Cd102 O103 2.317 . S
O103 Cd102 2.317 . S
O103 C104 1.232 . S
C104 O103 1.232 . S
C104 O105 1.218 . S
O105 C104 1.218 . S
C106 O99 1.275 . S
C106 O101 1.255 . S
C107 O108 1.258 . S
C107 O109 1.256 . S
O108 Cd100 2.381 . S
O108 C107 1.258 . S
O109 Cd100 2.378 . S
O109 C107 1.256 . S
O110 Cd111 2.300 . S
O110 C117 1.275 . S
Cd111 O110 2.300 . S
Cd111 O119 2.381 . S
Cd111 O120 2.378 . S
O112 Cd113 2.385 . S
O112 C117 1.255 . S
Cd113 O112 2.385 . S
Cd113 O114 2.317 . S
O114 Cd113 2.317 . S
O114 C115 1.232 . S
C115 O114 1.232 . S
C115 O116 1.218 . S
O116 C115 1.218 . S
C117 O110 1.275 . S
C117 O112 1.255 . S
C118 O119 1.258 . S
C118 O120 1.256 . S
O119 Cd111 2.381 . S
O119 C118 1.258 . S
O120 Cd111 2.378 . S
O120 C118 1.256 . S
O121 Cd122 2.300 . S
O121 C128 1.275 . S
Cd122 O121 2.300 . S
Cd122 O130 2.381 . S
Cd122 O131 2.378 . S
O123 Cd124 2.385 . S
O123 C128 1.255 . S
Cd124 O123 2.385 . S
Cd124 O125 2.317 . S
O125 Cd124 2.317 . S
O125 C126 1.232 . S
C126 O125 1.232 . S
C126 O127 1.218 . S
O127 C126 1.218 . S
C128 O121 1.275 . S
C128 O123 1.255 . S
C129 O130 1.258 . S
C129 O131 1.256 . S
O130 Cd122 2.381 . S
O130 C129 1.258 . S
O131 Cd122 2.378 . S
O131 C129 1.256 . S
C132 C133 1.349 . S
C132 C134 1.327 . S
C132 H157 0.950 . S
C133 C132 1.349 . S
C133 C149 1.349 . S
C134 C132 1.327 . S
C134 C153 1.429 . S
C134 H158 0.950 . S
C135 C152 1.574 . S
C135 C154 1.368 . S
C135 H159 0.949 . S
H136 C140 0.949 . S
C137 C138 1.349 . S
C137 C139 1.327 . S
C137 H160 0.950 . S
C138 C137 1.349 . S
C138 C150 1.349 . S
C139 C137 1.327 . S
C139 C155 1.429 . S
C139 H161 0.950 . S
C140 H136 0.949 . S
C140 C148 1.574 . S
C140 C156 1.368 . S
H141 C149 0.950 . S
H142 C147 0.950 . S
H143 C148 0.949 . S
H144 C150 0.950 . S
H145 C151 0.950 . S
H146 C152 0.949 . S
C147 H142 0.950 . S
C147 C149 1.327 . S
C147 C153 1.429 . S
C148 C140 1.574 . S
C148 H143 0.949 . S
C148 C154 1.368 . S
C149 C133 1.349 . S
C149 H141 0.950 . S
C149 C147 1.327 . S
C150 C138 1.349 . S
C150 H144 0.950 . S
C150 C151 1.327 . S
C151 H145 0.950 . S
C151 C150 1.327 . S
C151 C155 1.429 . S
C152 C135 1.574 . S
C152 H146 0.949 . S
C152 C156 1.368 . S
C153 C134 1.429 . S
C153 C147 1.429 . S
C153 C154 1.523 . S
C154 C135 1.368 . S
C154 C148 1.368 . S
C154 C153 1.523 . S
C155 C139 1.429 . S
C155 C151 1.429 . S
C155 C156 1.523 . S
C156 C140 1.368 . S
C156 C152 1.368 . S
C156 C155 1.523 . S
H157 C132 0.950 . S
H158 C134 0.950 . S
H159 C135 0.949 . S
H160 C137 0.950 . S
H161 C139 0.950 . S
C162 C163 1.349 . S
C162 C164 1.327 . S
C162 H187 0.950 . S
C163 C162 1.349 . S
C163 C179 1.349 . S
C164 C162 1.327 . S
C164 C183 1.429 . S
C164 H188 0.950 . S
C165 C182 1.574 . S
C165 C184 1.368 . S
C165 H189 0.949 . S
H166 C170 0.949 . S
C167 C168 1.349 . S
C167 C169 1.327 . S
C167 H190 0.950 . S
C168 C167 1.349 . S
C168 C180 1.349 . S
C169 C167 1.327 . S
C169 C185 1.429 . S
C169 H191 0.950 . S
C170 H166 0.949 . S
C170 C178 1.574 . S
C170 C186 1.368 . S
H171 C179 0.950 . S
H172 C177 0.950 . S
H173 C178 0.949 . S
H174 C180 0.950 . S
H175 C181 0.950 . S
H176 C182 0.949 . S
C177 H172 0.950 . S
C177 C179 1.327 . S
C177 C183 1.429 . S
C178 C170 1.574 . S
C178 H173 0.949 . S
C178 C184 1.368 . S
C179 C163 1.349 . S
C179 H171 0.950 . S
C179 C177 1.327 . S
C180 C168 1.349 . S
C180 H174 0.950 . S
C180 C181 1.327 . S
C181 H175 0.950 . S
C181 C180 1.327 . S
C181 C185 1.429 . S
C182 C165 1.574 . S
C182 H176 0.949 . S
C182 C186 1.368 . S
C183 C164 1.429 . S
C183 C177 1.429 . S
C183 C184 1.523 . S
C184 C165 1.368 . S
C184 C178 1.368 . S
C184 C183 1.523 . S
C185 C169 1.429 . S
C185 C181 1.429 . S
C185 C186 1.523 . S
C186 C170 1.368 . S
C186 C182 1.368 . S
C186 C185 1.523 . S
H187 C162 0.950 . S
H188 C164 0.950 . S
H189 C165 0.949 . S
H190 C167 0.950 . S
H191 C169 0.950 . S
C192 C193 1.349 . S
C192 C194 1.327 . S
C192 H217 0.950 . S
C193 C192 1.349 . S
C193 C209 1.349 . S
C194 C192 1.327 . S
C194 C213 1.429 . S
C194 H218 0.950 . S
C195 C212 1.574 . S
C195 C214 1.368 . S
C195 H219 0.949 . S
H196 C200 0.949 . S
C197 C198 1.349 . S
C197 C199 1.327 . S
C197 H220 0.950 . S
C198 C197 1.349 . S
C198 C210 1.349 . S
C199 C197 1.327 . S
C199 C215 1.429 . S
C199 H221 0.950 . S
C200 H196 0.949 . S
C200 C208 1.574 . S
C200 C216 1.368 . S
H201 C209 0.950 . S
H202 C207 0.950 . S
H203 C208 0.949 . S
H204 C210 0.950 . S
H205 C211 0.950 . S
H206 C212 0.949 . S
C207 H202 0.950 . S
C207 C209 1.327 . S
C207 C213 1.429 . S
C208 C200 1.574 . S
C208 H203 0.949 . S
C208 C214 1.368 . S
C209 C193 1.349 . S
C209 H201 0.950 . S
C209 C207 1.327 . S
C210 C198 1.349 . S
C210 H204 0.950 . S
C210 C211 1.327 . S
C211 H205 0.950 . S
C211 C210 1.327 . S
C211 C215 1.429 . S
C212 C195 1.574 . S
C212 H206 0.949 . S
C212 C216 1.368 . S
C213 C194 1.429 . S
C213 C207 1.429 . S
C213 C214 1.523 . S
C214 C195 1.368 . S
C214 C208 1.368 . S
C214 C213 1.523 . S
C215 C199 1.429 . S
C215 C211 1.429 . S
C215 C216 1.523 . S
C216 C200 1.368 . S
C216 C212 1.368 . S
C216 C215 1.523 . S
H217 C192 0.950 . S
H218 C194 0.950 . S
H219 C195 0.949 . S
H220 C197 0.950 . S
H221 C199 0.950 . S
C222 C223 1.349 . S
C222 C224 1.327 . S
C222 H247 0.950 . S
C223 C222 1.349 . S
C223 C239 1.349 . S
C224 C222 1.327 . S
C224 C243 1.429 . S
C224 H248 0.950 . S
C225 C242 1.574 . S
C225 C244 1.368 . S
C225 H249 0.949 . S
H226 C230 0.949 . S
C227 C228 1.349 . S
C227 C229 1.327 . S
C227 H250 0.950 . S
C228 C227 1.349 . S
C228 C240 1.349 . S
C229 C227 1.327 . S
C229 C245 1.429 . S
C229 H251 0.950 . S
C230 H226 0.949 . S
C230 C238 1.574 . S
C230 C246 1.368 . S
H231 C239 0.950 . S
H232 C237 0.950 . S
H233 C238 0.949 . S
H234 C240 0.950 . S
H235 C241 0.950 . S
H236 C242 0.949 . S
C237 H232 0.950 . S
C237 C239 1.327 . S
C237 C243 1.429 . S
C238 C230 1.574 . S
C238 H233 0.949 . S
C238 C244 1.368 . S
C239 C223 1.349 . S
C239 H231 0.950 . S
C239 C237 1.327 . S
C240 C228 1.349 . S
C240 H234 0.950 . S
C240 C241 1.327 . S
C241 H235 0.950 . S
C241 C240 1.327 . S
C241 C245 1.429 . S
C242 C225 1.574 . S
C242 H236 0.949 . S
C242 C246 1.368 . S
C243 C224 1.429 . S
C243 C237 1.429 . S
C243 C244 1.523 . S
C244 C225 1.368 . S
C244 C238 1.368 . S
C244 C243 1.523 . S
C245 C229 1.429 . S
C245 C241 1.429 . S
C245 C246 1.523 . S
C246 C230 1.368 . S
C246 C242 1.368 . S
C246 C245 1.523 . S
H247 C222 0.950 . S
H248 C224 0.950 . S
H249 C225 0.949 . S
H250 C227 0.950 . S
H251 C229 0.950 . S
C252 C253 1.349 . S
C252 C254 1.327 . S
C252 H277 0.950 . S
C253 C252 1.349 . S
C253 C269 1.349 . S
C254 C252 1.327 . S
C254 C273 1.429 . S
C254 H278 0.950 . S
C255 C272 1.574 . S
C255 C274 1.368 . S
C255 H279 0.949 . S
H256 C260 0.949 . S
C257 C258 1.349 . S
C257 C259 1.327 . S
C257 H280 0.950 . S
C258 C257 1.349 . S
C258 C270 1.349 . S
C259 C257 1.327 . S
C259 C275 1.429 . S
C259 H281 0.950 . S
C260 H256 0.949 . S
C260 C268 1.574 . S
C260 C276 1.368 . S
H261 C269 0.950 . S
H262 C267 0.950 . S
H263 C268 0.949 . S
H264 C270 0.950 . S
H265 C271 0.950 . S
H266 C272 0.949 . S
C267 H262 0.950 . S
C267 C269 1.327 . S
C267 C273 1.429 . S
C268 C260 1.574 . S
C268 H263 0.949 . S
C268 C274 1.368 . S
C269 C253 1.349 . S
C269 H261 0.950 . S
C269 C267 1.327 . S
C270 C258 1.349 . S
C270 H264 0.950 . S
C270 C271 1.327 . S
C271 H265 0.950 . S
C271 C270 1.327 . S
C271 C275 1.429 . S
C272 C255 1.574 . S
C272 H266 0.949 . S
C272 C276 1.368 . S
C273 C254 1.429 . S
C273 C267 1.429 . S
C273 C274 1.523 . S
C274 C255 1.368 . S
C274 C268 1.368 . S
C274 C273 1.523 . S
C275 C259 1.429 . S
C275 C271 1.429 . S
C275 C276 1.523 . S
C276 C260 1.368 . S
C276 C272 1.368 . S
C276 C275 1.523 . S
H277 C252 0.950 . S
H278 C254 0.950 . S
H279 C255 0.949 . S
H280 C257 0.950 . S
H281 C259 0.950 . S
C282 C283 1.349 . S
C282 C284 1.327 . S
C282 H307 0.950 . S
C283 C282 1.349 . S
C283 C299 1.349 . S
C284 C282 1.327 . S
C284 C303 1.429 . S
C284 H308 0.950 . S
C285 C302 1.574 . S
C285 C304 1.368 . S
C285 H309 0.949 . S
H286 C290 0.949 . S
C287 C288 1.349 . S
C287 C289 1.327 . S
C287 H310 0.950 . S
C288 C287 1.349 . S
C288 C300 1.349 . S
C289 C287 1.327 . S
C289 C305 1.429 . S
C289 H311 0.950 . S
C290 H286 0.949 . S
C290 C298 1.574 . S
C290 C306 1.368 . S
H291 C299 0.950 . S
H292 C297 0.950 . S
H293 C298 0.949 . S
H294 C300 0.950 . S
H295 C301 0.950 . S
H296 C302 0.949 . S
C297 H292 0.950 . S
C297 C299 1.327 . S
C297 C303 1.429 . S
C298 C290 1.574 . S
C298 H293 0.949 . S
C298 C304 1.368 . S
C299 C283 1.349 . S
C299 H291 0.950 . S
C299 C297 1.327 . S
C300 C288 1.349 . S
C300 H294 0.950 . S
C300 C301 1.327 . S
C301 H295 0.950 . S
C301 C300 1.327 . S
C301 C305 1.429 . S
C302 C285 1.574 . S
C302 H296 0.949 . S
C302 C306 1.368 . S
C303 C284 1.429 . S
C303 C297 1.429 . S
C303 C304 1.523 . S
C304 C285 1.368 . S
C304 C298 1.368 . S
C304 C303 1.523 . S
C305 C289 1.429 . S
C305 C301 1.429 . S
C305 C306 1.523 . S
C306 C290 1.368 . S
C306 C302 1.368 . S
C306 C305 1.523 . S
H307 C282 0.950 . S
H308 C284 0.950 . S
H309 C285 0.949 . S
H310 C287 0.950 . S
H311 C289 0.950 . S
C312 C313 1.349 . S
C312 C314 1.327 . S
C312 H337 0.950 . S
C313 C312 1.349 . S
C313 C329 1.349 . S
C314 C312 1.327 . S
C314 C333 1.429 . S
C314 H338 0.950 . S
C315 C332 1.574 . S
C315 C334 1.368 . S
C315 H339 0.949 . S
H316 C320 0.949 . S
C317 C318 1.349 . S
C317 C319 1.327 . S
C317 H340 0.950 . S
C318 C317 1.349 . S
C318 C330 1.349 . S
C319 C317 1.327 . S
C319 C335 1.429 . S
C319 H341 0.950 . S
C320 H316 0.949 . S
C320 C328 1.574 . S
C320 C336 1.368 . S
H321 C329 0.950 . S
H322 C327 0.950 . S
H323 C328 0.949 . S
H324 C330 0.950 . S
H325 C331 0.950 . S
H326 C332 0.949 . S
C327 H322 0.950 . S
C327 C329 1.327 . S
C327 C333 1.429 . S
C328 C320 1.574 . S
C328 H323 0.949 . S
C328 C334 1.368 . S
C329 C313 1.349 . S
C329 H321 0.950 . S
C329 C327 1.327 . S
C330 C318 1.349 . S
C330 H324 0.950 . S
C330 C331 1.327 . S
C331 H325 0.950 . S
C331 C330 1.327 . S
C331 C335 1.429 . S
C332 C315 1.574 . S
C332 H326 0.949 . S
C332 C336 1.368 . S
C333 C314 1.429 . S
C333 C327 1.429 . S
C333 C334 1.523 . S
C334 C315 1.368 . S
C334 C328 1.368 . S
C334 C333 1.523 . S
C335 C319 1.429 . S
C335 C331 1.429 . S
C335 C336 1.523 . S
C336 C320 1.368 . S
C336 C332 1.368 . S
C336 C335 1.523 . S
H337 C312 0.950 . S
H338 C314 0.950 . S
H339 C315 0.949 . S
H340 C317 0.950 . S
H341 C319 0.950 . S
C342 C343 1.349 . S
C342 C344 1.327 . S
C342 H367 0.950 . S
C343 C342 1.349 . S
C343 C359 1.349 . S
C344 C342 1.327 . S
C344 C363 1.429 . S
C344 H368 0.950 . S
C345 C362 1.574 . S
C345 C364 1.368 . S
C345 H369 0.949 . S
H346 C350 0.949 . S
C347 C348 1.349 . S
C347 C349 1.327 . S
C347 H370 0.950 . S
C348 C347 1.349 . S
C348 C360 1.349 . S
C349 C347 1.327 . S
C349 C365 1.429 . S
C349 H371 0.950 . S
C350 H346 0.949 . S
C350 C358 1.574 . S
C350 C366 1.368 . S
H351 C359 0.950 . S
H352 C357 0.950 . S
H353 C358 0.949 . S
H354 C360 0.950 . S
H355 C361 0.950 . S
H356 C362 0.949 . S
C357 H352 0.950 . S
C357 C359 1.327 . S
C357 C363 1.429 . S
C358 C350 1.574 . S
C358 H353 0.949 . S
C358 C364 1.368 . S
C359 C343 1.349 . S
C359 H351 0.950 . S
C359 C357 1.327 . S
C360 C348 1.349 . S
C360 H354 0.950 . S
C360 C361 1.327 . S
C361 H355 0.950 . S
C361 C360 1.327 . S
C361 C365 1.429 . S
C362 C345 1.574 . S
C362 H356 0.949 . S
C362 C366 1.368 . S
C363 C344 1.429 . S
C363 C357 1.429 . S
C363 C364 1.523 . S
C364 C345 1.368 . S
C364 C358 1.368 . S
C364 C363 1.523 . S
C365 C349 1.429 . S
C365 C361 1.429 . S
C365 C366 1.523 . S
C366 C350 1.368 . S
C366 C362 1.368 . S
C366 C365 1.523 . S
H367 C342 0.950 . S
H368 C344 0.950 . S
H369 C345 0.949 . S
H370 C347 0.950 . S
H371 C349 0.950 . S
C372 C373 1.349 . S
C372 C374 1.327 . S
C372 H397 0.950 . S
C373 C372 1.349 . S
C373 C389 1.349 . S
C374 C372 1.327 . S
C374 C393 1.429 . S
C374 H398 0.950 . S
C375 C392 1.574 . S
C375 C394 1.368 . S
C375 H399 0.949 . S
H376 C380 0.949 . S
C377 C378 1.349 . S
C377 C379 1.327 . S
C377 H400 0.950 . S
C378 C377 1.349 . S
C378 C390 1.349 . S
C379 C377 1.327 . S
C379 C395 1.429 . S
C379 H401 0.950 . S
C380 H376 0.949 . S
C380 C388 1.574 . S
C380 C396 1.368 . S
H381 C389 0.950 . S
H382 C387 0.950 . S
H383 C388 0.949 . S
H384 C390 0.950 . S
H385 C391 0.950 . S
H386 C392 0.949 . S
C387 H382 0.950 . S
C387 C389 1.327 . S
C387 C393 1.429 . S
C388 C380 1.574 . S
C388 H383 0.949 . S
C388 C394 1.368 . S
C389 C373 1.349 . S
C389 H381 0.950 . S
C389 C387 1.327 . S
C390 C378 1.349 . S
C390 H384 0.950 . S
C390 C391 1.327 . S
C391 H385 0.950 . S
C391 C390 1.327 . S
C391 C395 1.429 . S
C392 C375 1.574 . S
C392 H386 0.949 . S
C392 C396 1.368 . S
C393 C374 1.429 . S
C393 C387 1.429 . S
C393 C394 1.523 . S
C394 C375 1.368 . S
C394 C388 1.368 . S
C394 C393 1.523 . S
C395 C379 1.429 . S
C395 C391 1.429 . S
C395 C396 1.523 . S
C396 C380 1.368 . S
C396 C392 1.368 . S
C396 C395 1.523 . S
H397 C372 0.950 . S
H398 C374 0.950 . S
H399 C375 0.949 . S
H400 C377 0.950 . S
H401 C379 0.950 . S
C402 C403 1.349 . S
C402 C404 1.327 . S
C402 H427 0.950 . S
C403 C402 1.349 . S
C403 C419 1.349 . S
C404 C402 1.327 . S
C404 C423 1.429 . S
C404 H428 0.950 . S
C405 C422 1.574 . S
C405 C424 1.368 . S
C405 H429 0.949 . S
H406 C410 0.949 . S
C407 C408 1.349 . S
C407 C409 1.327 . S
C407 H430 0.950 . S
C408 C407 1.349 . S
C408 C420 1.349 . S
C409 C407 1.327 . S
C409 C425 1.429 . S
C409 H431 0.950 . S
C410 H406 0.949 . S
C410 C418 1.574 . S
C410 C426 1.368 . S
H411 C419 0.950 . S
H412 C417 0.950 . S
H413 C418 0.949 . S
H414 C420 0.950 . S
H415 C421 0.950 . S
H416 C422 0.949 . S
C417 H412 0.950 . S
C417 C419 1.327 . S
C417 C423 1.429 . S
C418 C410 1.574 . S
C418 H413 0.949 . S
C418 C424 1.368 . S
C419 C403 1.349 . S
C419 H411 0.950 . S
C419 C417 1.327 . S
C420 C408 1.349 . S
C420 H414 0.950 . S
C420 C421 1.327 . S
C421 H415 0.950 . S
C421 C420 1.327 . S
C421 C425 1.429 . S
C422 C405 1.574 . S
C422 H416 0.949 . S
C422 C426 1.368 . S
C423 C404 1.429 . S
C423 C417 1.429 . S
C423 C424 1.523 . S
C424 C405 1.368 . S
C424 C418 1.368 . S
C424 C423 1.523 . S
C425 C409 1.429 . S
C425 C421 1.429 . S
C425 C426 1.523 . S
C426 C410 1.368 . S
C426 C422 1.368 . S
C426 C425 1.523 . S
H427 C402 0.950 . S
H428 C404 0.950 . S
H429 C405 0.949 . S
H430 C407 0.950 . S
H431 C409 0.950 . S
C432 C433 1.349 . S
C432 C434 1.327 . S
C432 H457 0.950 . S
C433 C432 1.349 . S
C433 C449 1.349 . S
C434 C432 1.327 . S
C434 C453 1.429 . S
C434 H458 0.950 . S
C435 C452 1.574 . S
C435 C454 1.368 . S
C435 H459 0.949 . S
H436 C440 0.949 . S
C437 C438 1.349 . S
C437 C439 1.327 . S
C437 H460 0.950 . S
C438 C437 1.349 . S
C438 C450 1.349 . S
C439 C437 1.327 . S
C439 C455 1.429 . S
C439 H461 0.950 . S
C440 H436 0.949 . S
C440 C448 1.574 . S
C440 C456 1.368 . S
H441 C449 0.950 . S
H442 C447 0.950 . S
H443 C448 0.949 . S
H444 C450 0.950 . S
H445 C451 0.950 . S
H446 C452 0.949 . S
C447 H442 0.950 . S
C447 C449 1.327 . S
C447 C453 1.429 . S
C448 C440 1.574 . S
C448 H443 0.949 . S
C448 C454 1.368 . S
C449 C433 1.349 . S
C449 H441 0.950 . S
C449 C447 1.327 . S
C450 C438 1.349 . S
C450 H444 0.950 . S
C450 C451 1.327 . S
C451 H445 0.950 . S
C451 C450 1.327 . S
C451 C455 1.429 . S
C452 C435 1.574 . S
C452 H446 0.949 . S
C452 C456 1.368 . S
C453 C434 1.429 . S
C453 C447 1.429 . S
C453 C454 1.523 . S
C454 C435 1.368 . S
C454 C448 1.368 . S
C454 C453 1.523 . S
C455 C439 1.429 . S
C455 C451 1.429 . S
C455 C456 1.523 . S
C456 C440 1.368 . S
C456 C452 1.368 . S
C456 C455 1.523 . S
H457 C432 0.950 . S
H458 C434 0.950 . S
H459 C435 0.949 . S
H460 C437 0.950 . S
H461 C439 0.950 . S
C462 C463 1.349 . S
C462 C464 1.327 . S
C462 H487 0.950 . S
C463 C462 1.349 . S
C463 C479 1.349 . S
C464 C462 1.327 . S
C464 C483 1.429 . S
C464 H488 0.950 . S
C465 C482 1.574 . S
C465 C484 1.368 . S
C465 H489 0.949 . S
H466 C470 0.949 . S
C467 C468 1.349 . S
C467 C469 1.327 . S
C467 H490 0.950 . S
C468 C467 1.349 . S
C468 C480 1.349 . S
C469 C467 1.327 . S
C469 C485 1.429 . S
C469 H491 0.950 . S
C470 H466 0.949 . S
C470 C478 1.574 . S
C470 C486 1.368 . S
H471 C479 0.950 . S
H472 C477 0.950 . S
H473 C478 0.949 . S
H474 C480 0.950 . S
H475 C481 0.950 . S
H476 C482 0.949 . S
C477 H472 0.950 . S
C477 C479 1.327 . S
C477 C483 1.429 . S
C478 C470 1.574 . S
C478 H473 0.949 . S
C478 C484 1.368 . S
C479 C463 1.349 . S
C479 H471 0.950 . S
C479 C477 1.327 . S
C480 C468 1.349 . S
C480 H474 0.950 . S
C480 C481 1.327 . S
C481 H475 0.950 . S
C481 C480 1.327 . S
C481 C485 1.429 . S
C482 C465 1.574 . S
C482 H476 0.949 . S
C482 C486 1.368 . S
C483 C464 1.429 . S
C483 C477 1.429 . S
C483 C484 1.523 . S
C484 C465 1.368 . S
C484 C478 1.368 . S
C484 C483 1.523 . S
C485 C469 1.429 . S
C485 C481 1.429 . S
C485 C486 1.523 . S
C486 C470 1.368 . S
C486 C482 1.368 . S
C486 C485 1.523 . S
H487 C462 0.950 . S
H488 C464 0.950 . S
H489 C465 0.949 . S
H490 C467 0.950 . S
H491 C469 0.950 . S
C492 C493 1.349 . S
C492 C494 1.327 . S
C492 H517 0.950 . S
C493 C492 1.349 . S
C493 C509 1.349 . S
C494 C492 1.327 . S
C494 C513 1.429 . S
C494 H518 0.950 . S
C495 C512 1.574 1_554 S
C495 C514 1.368 . S
C495 H519 0.949 . S
H496 C500 0.949 . S
C497 C498 1.349 . S
C497 C499 1.327 . S
C497 H520 0.950 . S
C498 C497 1.349 . S
C498 C510 1.349 . S
C499 C497 1.327 . S
C499 C515 1.429 . S
C499 H521 0.950 . S
C500 H496 0.949 . S
C500 C508 1.574 1_556 S
C500 C516 1.368 . S
H501 C509 0.950 . S
H502 C507 0.950 . S
H503 C508 0.949 . S
H504 C510 0.950 . S
H505 C511 0.950 . S
H506 C512 0.949 . S
C507 H502 0.950 . S
C507 C509 1.327 . S
C507 C513 1.429 . S
C508 C500 1.574 1_554 S
C508 H503 0.949 . S
C508 C514 1.368 . S
C509 C493 1.349 . S
C509 H501 0.950 . S
C509 C507 1.327 . S
C510 C498 1.349 . S
C510 H504 0.950 . S
C510 C511 1.327 . S
C511 H505 0.950 . S
C511 C510 1.327 . S
C511 C515 1.429 . S
C512 C495 1.574 1_556 S
C512 H506 0.949 . S
C512 C516 1.368 . S
C513 C494 1.429 . S
C513 C507 1.429 . S
C513 C514 1.523 . S
C514 C495 1.368 . S
C514 C508 1.368 . S
C514 C513 1.523 . S
C515 C499 1.429 . S
C515 C511 1.429 . S
C515 C516 1.523 . S
C516 C500 1.368 . S
C516 C512 1.368 . S
C516 C515 1.523 . S
H517 C492 0.950 . S
H518 C494 0.950 . S
H519 C495 0.949 . S
H520 C497 0.950 . S
H521 C499 0.950 . S
C522 C523 1.349 . S
C522 C524 1.327 . S
C522 H547 0.950 . S
C523 C522 1.349 . S
C523 C539 1.349 . S
C524 C522 1.327 . S
C524 C543 1.429 . S
C524 H548 0.950 . S
C525 C542 1.574 1_455 S
C525 C544 1.368 . S
C525 H549 0.949 . S
H526 C530 0.949 . S
C527 C528 1.349 . S
C527 C529 1.327 . S
C527 H550 0.950 . S
C528 C527 1.349 . S
C528 C540 1.349 . S
C529 C527 1.327 . S
C529 C545 1.429 . S
C529 H551 0.950 . S
C530 H526 0.949 . S
C530 C538 1.574 1_655 S
C530 C546 1.368 . S
H531 C539 0.950 . S
H532 C537 0.950 . S
H533 C538 0.949 . S
H534 C540 0.950 . S
H535 C541 0.950 . S
H536 C542 0.949 . S
C537 H532 0.950 . S
C537 C539 1.327 . S
C537 C543 1.429 . S
C538 C530 1.574 1_455 S
C538 H533 0.949 . S
C538 C544 1.368 . S
C539 C523 1.349 . S
C539 H531 0.950 . S
C539 C537 1.327 . S
C540 C528 1.349 . S
C540 H534 0.950 . S
C540 C541 1.327 . S
C541 H535 0.950 . S
C541 C540 1.327 . S
C541 C545 1.429 . S
C542 C525 1.574 1_655 S
C542 H536 0.949 . S
C542 C546 1.368 . S
C543 C524 1.429 . S
C543 C537 1.429 . S
C543 C544 1.523 . S
C544 C525 1.368 . S
C544 C538 1.368 . S
C544 C543 1.523 . S
C545 C529 1.429 . S
C545 C541 1.429 . S
C545 C546 1.523 . S
C546 C530 1.368 . S
C546 C542 1.368 . S
C546 C545 1.523 . S
H547 C522 0.950 . S
H548 C524 0.950 . S
H549 C525 0.949 . S
H550 C527 0.950 . S
H551 C529 0.950 . S
C552 C553 1.349 . S
C552 C554 1.327 . S
C552 H577 0.950 . S
C553 C552 1.349 . S
C553 C569 1.349 . S
C554 C552 1.327 . S
C554 C573 1.429 . S
C554 H578 0.950 . S
C555 C572 1.574 1_556 S
C555 C574 1.368 . S
C555 H579 0.949 . S
H556 C560 0.949 . S
C557 C558 1.349 . S
C557 C559 1.327 . S
C557 H580 0.950 . S
C558 C557 1.349 . S
C558 C570 1.349 . S
C559 C557 1.327 . S
C559 C575 1.429 . S
C559 H581 0.950 . S
C560 H556 0.949 . S
C560 C568 1.574 1_554 S
C560 C576 1.368 . S
H561 C569 0.950 . S
H562 C567 0.950 . S
H563 C568 0.949 . S
H564 C570 0.950 . S
H565 C571 0.950 . S
H566 C572 0.949 . S
C567 H562 0.950 . S
C567 C569 1.327 . S
C567 C573 1.429 . S
C568 C560 1.574 1_556 S
C568 H563 0.949 . S
C568 C574 1.368 1_565 S
C569 C553 1.349 . S
C569 H561 0.950 . S
C569 C567 1.327 . S
C570 C558 1.349 . S
C570 H564 0.950 . S
C570 C571 1.327 . S
C571 H565 0.950 . S
C571 C570 1.327 . S
C571 C575 1.429 . S
C572 C555 1.574 1_554 S
C572 H566 0.949 . S
C572 C576 1.368 1_545 S
C573 C554 1.429 . S
C573 C567 1.429 . S
C573 C574 1.523 . S
C574 C555 1.368 . S
C574 C568 1.368 1_545 S
C574 C573 1.523 . S
C575 C559 1.429 . S
C575 C571 1.429 . S
C575 C576 1.523 . S
C576 C560 1.368 . S
C576 C572 1.368 1_565 S
C576 C575 1.523 . S
H577 C552 0.950 . S
H578 C554 0.950 . S
H579 C555 0.949 . S
H580 C557 0.950 . S
H581 C559 0.950 . S
C582 C583 1.349 . S
C582 C584 1.327 . S
C582 H607 0.950 . S
C583 C582 1.349 . S
C583 C599 1.349 . S
C584 C582 1.327 . S
C584 C603 1.429 . S
C584 H608 0.950 . S
C585 C602 1.574 . S
C585 C604 1.368 . S
C585 H609 0.949 . S
H586 C590 0.949 . S
C587 C588 1.349 . S
C587 C589 1.327 . S
C587 H610 0.950 . S
C588 C587 1.349 . S
C588 C600 1.349 . S
C589 C587 1.327 . S
C589 C605 1.429 . S
C589 H611 0.950 . S
C590 H586 0.949 . S
C590 C598 1.574 . S
C590 C606 1.368 . S
H591 C599 0.950 . S
H592 C597 0.950 . S
H593 C598 0.949 . S
H594 C600 0.950 . S
H595 C601 0.950 . S
H596 C602 0.949 . S
C597 H592 0.950 . S
C597 C599 1.327 . S
C597 C603 1.429 . S
C598 C590 1.574 . S
C598 H593 0.949 . S
C598 C604 1.368 . S
C599 C583 1.349 . S
C599 H591 0.950 . S
C599 C597 1.327 . S
C600 C588 1.349 . S
C600 H594 0.950 . S
C600 C601 1.327 . S
C601 H595 0.950 . S
C601 C600 1.327 . S
C601 C605 1.429 . S
C602 C585 1.574 . S
C602 H596 0.949 . S
C602 C606 1.368 . S
C603 C584 1.429 . S
C603 C597 1.429 . S
C603 C604 1.523 . S
C604 C585 1.368 . S
C604 C598 1.368 . S
C604 C603 1.523 . S
C605 C589 1.429 . S
C605 C601 1.429 . S
C605 C606 1.523 . S
C606 C590 1.368 . S
C606 C602 1.368 . S
C606 C605 1.523 . S
H607 C582 0.950 . S
H608 C584 0.950 . S
H609 C585 0.949 . S
H610 C587 0.950 . S
H611 C589 0.950 . S
C612 C613 1.349 . S
C612 C614 1.327 . S
C612 H637 0.950 . S
C613 C612 1.349 . S
C613 C629 1.349 . S
C614 C612 1.327 . S
C614 C633 1.429 . S
C614 H638 0.950 . S
C615 C632 1.574 1_554 S
C615 C634 1.368 1_655 S
C615 H639 0.949 . S
H616 C620 0.949 . S
C617 C618 1.349 . S
C617 C619 1.327 . S
C617 H640 0.950 . S
C618 C617 1.349 . S
C618 C630 1.349 . S
C619 C617 1.327 . S
C619 C635 1.429 . S
C619 H641 0.950 . S
C620 H616 0.949 . S
C620 C628 1.574 1_556 S
C620 C636 1.368 1_455 S
H621 C629 0.950 . S
H622 C627 0.950 1_655 S
H623 C628 0.949 . S
H624 C630 0.950 . S
H625 C631 0.950 1_455 S
H626 C632 0.949 . S
C627 H622 0.950 1_455 S
C627 C629 1.327 . S
C627 C633 1.429 . S
C628 C620 1.574 1_554 S
C628 H623 0.949 . S
C628 C634 1.368 . S
C629 C613 1.349 . S
C629 H621 0.950 . S
C629 C627 1.327 . S
C630 C618 1.349 . S
C630 H624 0.950 . S
C630 C631 1.327 . S
C631 H625 0.950 1_655 S
C631 C630 1.327 . S
C631 C635 1.429 . S
C632 C615 1.574 1_556 S
C632 H626 0.949 . S
C632 C636 1.368 . S
C633 C614 1.429 . S
C633 C627 1.429 . S
C633 C634 1.523 . S
C634 C615 1.368 1_455 S
C634 C628 1.368 . S
C634 C633 1.523 . S
C635 C619 1.429 . S
C635 C631 1.429 . S
C635 C636 1.523 . S
C636 C620 1.368 1_655 S
C636 C632 1.368 . S
C636 C635 1.523 . S
H637 C612 0.950 . S
H638 C614 0.950 . S
H639 C615 0.949 . S
H640 C617 0.950 . S
H641 C619 0.950 . S
C642 C643 1.349 . S
C642 C644 1.327 . S
C642 H667 0.950 . S
C643 C642 1.349 . S
C643 C659 1.349 . S
C644 C642 1.327 . S
C644 C663 1.429 . S
C644 H668 0.950 1_565 S
C645 C662 1.574 . S
C645 C664 1.368 . S
C645 H669 0.949 . S
H646 C650 0.949 . S
C647 C648 1.349 . S
C647 C649 1.327 . S
C647 H670 0.950 . S
C648 C647 1.349 . S
C648 C660 1.349 . S
C649 C647 1.327 . S
C649 C665 1.429 . S
C649 H671 0.950 1_545 S
C650 H646 0.949 . S
C650 C658 1.574 . S
C650 C666 1.368 . S
H651 C659 0.950 . S
H652 C657 0.950 . S
H653 C658 0.949 . S
H654 C660 0.950 . S
H655 C661 0.950 . S
H656 C662 0.949 . S
C657 H652 0.950 . S
C657 C659 1.327 . S
C657 C663 1.429 . S
C658 C650 1.574 . S
C658 H653 0.949 . S
C658 C664 1.368 1_545 S
C659 C643 1.349 . S
C659 H651 0.950 . S
C659 C657 1.327 . S
C660 C648 1.349 . S
C660 H654 0.950 . S
C660 C661 1.327 . S
C661 H655 0.950 . S
C661 C660 1.327 . S
C661 C665 1.429 . S
C662 C645 1.574 . S
C662 H656 0.949 . S
C662 C666 1.368 1_565 S
C663 C644 1.429 . S
C663 C657 1.429 . S
C663 C664 1.523 . S
C664 C645 1.368 . S
C664 C658 1.368 1_565 S
C664 C663 1.523 . S
C665 C649 1.429 . S
C665 C661 1.429 . S
C665 C666 1.523 . S
C666 C650 1.368 . S
C666 C662 1.368 1_545 S
C666 C665 1.523 . S
H667 C642 0.950 . S
H668 C644 0.950 1_545 S
H669 C645 0.949 . S
H670 C647 0.950 . S
H671 C649 0.950 1_565 S
C133 C5 1.415 . S
C138 C115 1.415 . S
C163 C126 1.413 . S
C168 C16 1.413 . S
C193 C71 1.415 . S
C198 C27 1.415 . S
C223 C38 1.415 . S
C228 C82 1.415 . S
C253 C93 1.414 . S
C258 C49 1.414 . S
C283 C104 1.415 . S
C288 C60 1.415 . S
C313 C7 1.537 . S
C318 C73 1.537 . S
C343 C18 1.537 . S
C348 C84 1.537 . S
C373 C29 1.537 . S
C378 C95 1.537 . S
C403 C106 1.537 . S
C408 C40 1.537 . S
C433 C51 1.537 . S
C438 C117 1.537 . S
C463 C62 1.537 . S
C468 C128 1.537 . S
C493 C8 1.588 . S
C498 C107 1.588 . S
C523 C118 1.588 . S
C528 C19 1.588 . S
C553 C129 1.588 . S
C558 C30 1.588 . S
C583 C41 1.588 . S
C588 C74 1.588 . S
C613 C52 1.588 . S
C618 C85 1.588 . S
C643 C96 1.588 . S
C648 C63 1.588 . S
