# Generated by pormake.
# Topology lcy, (6)-cn, num edge types: 1
# Building blocks:
#     Node 0, Type 0, BuildingBlock: VOLQOD_clean_sbu_1, # of connection points: 6
#     Node 1, Type 0, BuildingBlock: VOLQOD_clean_sbu_1, # of connection points: 6
#     Node 2, Type 0, BuildingBlock: VOLQOD_clean_sbu_1, # of connection points: 6
#     Node 3, Type 0, BuildingBlock: VOLQOD_clean_sbu_1, # of connection points: 6
#     Edge 4, Type (0, 0), BuildingBlock: TEMPAE_clean_linker_10, # of connection points: 2
#     Edge 5, Type (0, 0), BuildingBlock: TEMPAE_clean_linker_10, # of connection points: 2
#     Edge 6, Type (0, 0), BuildingBlock: TEMPAE_clean_linker_10, # of connection points: 2
#     Edge 7, Type (0, 0), BuildingBlock: TEMPAE_clean_linker_10, # of connection points: 2
#     Edge 8, Type (0, 0), BuildingBlock: TEMPAE_clean_linker_10, # of connection points: 2
#     Edge 9, Type (0, 0), BuildingBlock: TEMPAE_clean_linker_10, # of connection points: 2
#     Edge 10, Type (0, 0), BuildingBlock: TEMPAE_clean_linker_10, # of connection points: 2
#     Edge 11, Type (0, 0), BuildingBlock: TEMPAE_clean_linker_10, # of connection points: 2
#     Edge 12, Type (0, 0), BuildingBlock: TEMPAE_clean_linker_10, # of connection points: 2
#     Edge 13, Type (0, 0), BuildingBlock: TEMPAE_clean_linker_10, # of connection points: 2
#     Edge 14, Type (0, 0), BuildingBlock: TEMPAE_clean_linker_10, # of connection points: 2
#     Edge 15, Type (0, 0), BuildingBlock: TEMPAE_clean_linker_10, # of connection points: 2
# Relax obj value: 0.278
# Max RMSD: 0.253
# Mean RMSD: 0.248
data_MOF--net-lcy--node1-VOLQOD_clean_sbu_1--edge1-TEMPAE_clean_linker_10
_symmetry_space_group_name_H-M    P1
_symmetry_Int_Tables_number       1
_symmetry_cell_setting            triclinic
loop_
_symmetry_equiv_pos_as_xyz
'x, y, z'
_cell_length_a     27.287078
_cell_length_b     27.154142
_cell_length_c     27.176103
_cell_angle_alpha  91.275352
_cell_angle_beta   88.201032
_cell_angle_gamma 93.180002
loop_
_atom_site_label
_atom_site_type_symbol
_atom_site_fract_x
_atom_site_fract_y
_atom_site_fract_z
_atom_type_partial_charge
O0 O 0.38639 0.26877 0.43675 0.0
Zn1 Zn 0.33757 0.27651 0.38263 0.0
O2 O 0.35002 0.33837 0.34928 0.0
Zn3 Zn 0.29144 0.37476 0.35031 0.0
Zn4 Zn 0.4004 0.3773 0.38277 0.0
Zn5 Zn 0.36936 0.32734 0.28083 0.0
O6 O 0.28304 0.40494 0.28425 0.0
O7 O 0.3183 0.34963 0.23517 0.0
O8 O 0.2665 0.2686 0.40588 0.0
O9 O 0.23315 0.32893 0.3664 0.0
O10 O 0.29352 0.42742 0.40386 0.0
O11 O 0.37109 0.42904 0.42602 0.0
O12 O 0.44707 0.41001 0.33406 0.0
O13 O 0.34955 0.22059 0.33536 0.0
O14 O 0.42872 0.37177 0.26326 0.0
O15 O 0.38192 0.25557 0.2676 0.0
C16 C 0.42513 0.29471 0.44764 0.0
C17 C 0.29194 0.38665 0.24154 0.0
C18 C 0.32808 0.44464 0.43079 0.0
C19 C 0.22899 0.29007 0.39201 0.0
C20 C 0.45432 0.40368 0.28791 0.0
C21 C 0.36928 0.21737 0.29244 0.0
O22 O 0.43629 0.33578 0.4274 0.0
O23 O 0.92516 0.08336 0.70606 0.0
Zn24 Zn 0.8734 0.13422 0.70407 0.0
O25 O 0.8347 0.12694 0.64564 0.0
Zn26 Zn 0.83127 0.1904 0.61547 0.0
Zn27 Zn 0.86775 0.08389 0.59994 0.0
Zn28 Zn 0.76865 0.09963 0.66159 0.0
O29 O 0.76197 0.20223 0.59705 0.0
O30 O 0.71833 0.14615 0.64094 0.0
O31 O 0.9014 0.20365 0.71226 0.0
O32 O 0.8568 0.24418 0.66099 0.0
O33 O 0.87762 0.19639 0.55684 0.0
O34 O 0.90603 0.1217 0.5476 0.0
O35 O 0.81979 0.03549 0.57054 0.0
O36 O 0.83005 0.12189 0.76292 0.0
O37 O 0.75342 0.03779 0.62027 0.0
O38 O 0.75979 0.08811 0.73515 0.0
C39 C 0.93529 0.04881 0.67551 0.0
C40 C 0.72082 0.18298 0.61255 0.0
C41 C 0.90589 0.16657 0.53511 0.0
C42 C 0.88775 0.24381 0.69508 0.0
C43 C 0.77698 0.01905 0.58382 0.0
C44 C 0.78728 0.10208 0.77058 0.0
O45 O 0.91477 0.04463 0.63422 0.0
O46 O 0.07171 0.71509 0.80236 0.0
Zn47 Zn 0.08542 0.65644 0.84345 0.0
O48 O 0.15481 0.65381 0.85251 0.0
Zn49 Zn 0.17675 0.58793 0.84206 0.0
Zn50 Zn 0.18959 0.69562 0.80576 0.0
Zn51 Zn 0.16829 0.67733 0.91838 0.0
O52 O 0.20305 0.56109 0.90448 0.0
O53 O 0.18302 0.61947 0.95921 0.0
O54 O 0.05705 0.59254 0.81512 0.0
O55 O 0.11937 0.54385 0.82195 0.0
O56 O 0.22408 0.58409 0.78372 0.0
O57 O 0.215 0.65593 0.74855 0.0
O58 O 0.24753 0.72898 0.83728 0.0
O59 O 0.05116 0.66835 0.90828 0.0
O60 O 0.22947 0.72259 0.91727 0.0
O61 O 0.1095 0.70855 0.95119 0.0
C62 C 0.09986 0.74883 0.78287 0.0
C63 C 0.19888 0.57711 0.94882 0.0
C64 C 0.23069 0.61261 0.74715 0.0
C65 C 0.07523 0.55039 0.81089 0.0
C66 C 0.25796 0.73779 0.88201 0.0
C67 C 0.06466 0.69447 0.94537 0.0
O68 O 0.14635 0.74674 0.78259 0.0
O69 O 0.5368 0.87611 0.21014 0.0
Zn70 Zn 0.59625 0.83491 0.19939 0.0
O71 O 0.63459 0.85345 0.1405 0.0
Zn72 Zn 0.64316 0.79654 0.09703 0.0
Zn73 Zn 0.60011 0.9017 0.10655 0.0
Zn74 Zn 0.69878 0.88209 0.15766 0.0
O75 O 0.71467 0.7901 0.07867 0.0
O76 O 0.75171 0.83697 0.1362 0.0
O77 O 0.57732 0.76219 0.19759 0.0
O78 O 0.61877 0.73485 0.1316 0.0
O79 O 0.60265 0.79956 0.03615 0.0
O80 O 0.57147 0.8729 0.046 0.0
O81 O 0.64436 0.95806 0.0861 0.0
O82 O 0.63607 0.84962 0.25898 0.0
O83 O 0.71525 0.94475 0.11994 0.0
O84 O 0.70172 0.89396 0.23099 0.0
C85 C 0.52258 0.91214 0.18605 0.0
C86 C 0.75325 0.80552 0.1008 0.0
C87 C 0.57556 0.8328 0.02172 0.0
C88 C 0.59132 0.72694 0.1697 0.0
C89 C 0.6892 0.97025 0.09317 0.0
C90 C 0.67531 0.8759 0.26647 0.0
O91 O 0.54481 0.92653 0.1468 0.0
C92 C 0.25296 0.51766 0.98618 0.0
C93 C 0.21142 0.54572 0.98962 0.0
C94 C 0.26649 0.49012 0.02629 0.0
C95 C 0.23666 0.48936 0.06994 0.0
C96 C 0.19366 0.51627 0.07274 0.0
C97 C 0.18206 0.54485 0.03284 0.0
C98 C 0.31347 0.46324 0.02257 0.0
C99 C 0.16013 0.51528 0.11804 0.0
C100 C 0.25093 0.38697 0.16083 0.0
C101 C 0.27661 0.41243 0.19814 0.0
C102 C 0.23716 0.41163 0.11894 0.0
C103 C 0.25136 0.46229 0.11361 0.0
C104 C 0.27856 0.48766 0.1508 0.0
C105 C 0.29001 0.46259 0.19311 0.0
C106 C 0.20683 0.38379 0.08084 0.0
C107 C 0.2959 0.54116 0.14576 0.0
H108 H 0.27579 0.51869 0.9528 0.0
H109 H 0.14963 0.56623 0.03522 0.0
H110 H 0.33892 0.47789 0.05113 0.0
H111 H 0.30582 0.42345 0.02961 0.0
H112 H 0.33224 0.46711 0.98587 0.0
H113 H 0.12614 0.53498 0.11274 0.0
H114 H 0.1497 0.47659 0.12794 0.0
H115 H 0.1796 0.53278 0.14969 0.0
H116 H 0.24085 0.34805 0.16495 0.0
H117 H 0.31071 0.48187 0.22179 0.0
H118 H 0.22668 0.38433 0.04461 0.0
H119 H 0.17191 0.40207 0.07633 0.0
H120 H 0.19811 0.34479 0.09093 0.0
H121 H 0.31695 0.54639 0.11048 0.0
H122 H 0.31952 0.55444 0.17643 0.0
H123 H 0.26387 0.56452 0.14502 0.0
C124 C 0.66866 0.85936 0.35662 0.0
C125 C 0.68855 0.88802 0.31772 0.0
C126 C 0.67868 0.87228 0.4057 0.0
C127 C 0.70846 0.91531 0.4159 0.0
C128 C 0.7289 0.94415 0.37674 0.0
C129 C 0.71907 0.92985 0.32809 0.0
C130 C 0.65726 0.84016 0.44653 0.0
C131 C 0.76055 0.99065 0.3862 0.0
C132 C 0.70587 0.98983 0.53455 0.0
C133 C 0.75265 0.98199 0.55145 0.0
C134 C 0.68871 0.96494 0.49217 0.0
C135 C 0.71882 0.93091 0.46729 0.0
C136 C 0.7634 0.91866 0.48791 0.0
C137 C 0.78017 0.94497 0.5295 0.0
C138 C 0.64111 0.97929 0.4711 0.0
C139 C 0.79582 0.88151 0.46332 0.0
H140 H 0.64521 0.82679 0.34872 0.0
H141 H 0.7342 0.95231 0.2982 0.0
H142 H 0.68696 0.82847 0.46991 0.0
H143 H 0.63213 0.86145 0.47057 0.0
H144 H 0.63659 0.80674 0.43224 0.0
H145 H 0.77254 0.00949 0.35165 0.0
H146 H 0.74 0.01675 0.40989 0.0
H147 H 0.79369 0.98178 0.40614 0.0
H148 H 0.68484 0.01881 0.55144 0.0
H149 H 0.8163 0.93886 0.54296 0.0
H150 H 0.61927 0.94631 0.45773 0.0
H151 H 0.64935 0.00341 0.43911 0.0
H152 H 0.61846 -0.00035 0.49855 0.0
H153 H 0.77365 0.84873 0.44992 0.0
H154 H 0.82368 0.86922 0.48865 0.0
H155 H 0.81538 0.89844 0.43095 0.0
C156 C 0.262 0.54333 0.6952 0.0
C157 C 0.25292 0.59352 0.70064 0.0
C158 C 0.27735 0.52346 0.64963 0.0
C159 C 0.28411 0.55459 0.60859 0.0
C160 C 0.27721 0.60566 0.61427 0.0
C161 C 0.26155 0.62453 0.66024 0.0
C162 C 0.28446 0.46875 0.64497 0.0
C163 C 0.28465 0.64001 0.57142 0.0
C164 C 0.35531 0.49981 0.5008 0.0
C165 C 0.31719 0.47936 0.47195 0.0
C166 C 0.34519 0.52661 0.54428 0.0
C167 C 0.29581 0.53287 0.55932 0.0
C168 C 0.25728 0.51473 0.52903 0.0
C169 C 0.26845 0.48832 0.48557 0.0
C170 C 0.38725 0.54595 0.57536 0.0
C171 C 0.20411 0.52081 0.54387 0.0
H172 H 0.2555 0.51908 0.72614 0.0
H173 H 0.25492 0.66343 0.66415 0.0
H174 H 0.25735 0.45137 0.6194 0.0
H175 H 0.32156 0.46219 0.62918 0.0
H176 H 0.27999 0.45009 0.68093 0.0
H177 H 0.28204 0.67932 0.58293 0.0
H178 H 0.32105 0.6354 0.55308 0.0
H179 H 0.25643 0.63074 0.54369 0.0
H180 H 0.39314 0.49346 0.49035 0.0
H181 H 0.23877 0.47279 0.4635 0.0
H182 H 0.38742 0.52459 0.60968 0.0
H183 H 0.38274 0.58509 0.58626 0.0
H184 H 0.42338 0.54306 0.55581 0.0
H185 H 0.19461 0.49936 0.57746 0.0
H186 H 0.17875 0.50799 0.51447 0.0
H187 H 0.19795 0.56005 0.55296 0.0
C188 C 0.68476 0.04504 0.04315 0.0
C189 C 0.71271 0.00765 0.0605 0.0
C190 C 0.69899 0.06981 -0.0001 0.0
C191 C 0.7415 0.05592 0.97316 0.0
C192 C 0.77251 0.02192 0.99335 0.0
C193 C 0.75795 -0.00146 0.03732 0.0
C194 C 0.66594 0.10721 0.98048 0.0
C195 C 0.81814 0.00606 0.96588 0.0
C196 C 0.7381 0.05391 0.83384 0.0
C197 C 0.77105 0.09349 0.82209 0.0
C198 C 0.72748 0.04192 0.8831 0.0
C199 C 0.74959 0.07095 0.92129 0.0
C200 C 0.78085 0.11252 0.90961 0.0
C201 C 0.79164 0.123 0.86007 0.0
C202 C 0.69411 -0.00298 0.89421 0.0
C203 C 0.80397 0.14503 0.94931 0.0
H204 H 0.64987 0.0523 0.06134 0.0
H205 H 0.77946 0.96941 0.05053 0.0
H206 H 0.68782 0.13908 0.96477 0.0
H207 H 0.64373 0.08991 0.95057 0.0
H208 H 0.64042 0.12093 0.00969 0.0
H209 H 0.84143 0.98453 0.98932 0.0
H210 H 0.80734 0.9827 0.93354 0.0
H211 H 0.84037 0.03849 0.95191 0.0
H212 H 0.72233 0.03099 0.80456 0.0
H213 H 0.81677 0.15404 0.85104 0.0
H214 H 0.66274 0.00751 0.91841 0.0
H215 H 0.71451 0.96987 0.91426 0.0
H216 H 0.67945 0.97878 0.86032 0.0
H217 H 0.77575 0.15582 0.97717 0.0
H218 H 0.82281 0.17899 0.93418 0.0
H219 H 0.83128 0.12437 0.96864 0.0
C220 C 0.96226 0.23582 0.50625 0.0
C221 C 0.94528 0.18629 0.50131 0.0
C222 C 0.00642 0.25289 0.48323 0.0
C223 C 0.03352 0.21994 0.45352 0.0
C224 C 0.01443 0.17106 0.44499 0.0
C225 C 0.97077 0.15457 0.46957 0.0
C226 C 0.0259 0.30508 0.49391 0.0
C227 C 0.04155 0.13534 0.41228 0.0
C228 C 0.13925 0.27815 0.37712 0.0
C229 C 0.17937 0.27 0.40637 0.0
C230 C 0.09165 0.26045 0.391 0.0
C231 C 0.08397 0.23526 0.43582 0.0
C232 C 0.12444 0.2266 0.46527 0.0
C233 C 0.17179 0.24353 0.44982 0.0
C234 C 0.04957 0.26916 0.35806 0.0
C235 C 0.11758 0.20072 0.51384 0.0
H236 H 0.94293 0.26049 0.53098 0.0
H237 H 0.95759 0.11634 0.46539 0.0
H238 H 0.05929 0.3043 0.51611 0.0
H239 H 0.03666 0.32409 0.45922 0.0
H240 H -0.00139 0.3271 0.51454 0.0
H241 H 0.01838 0.10157 0.40343 0.0
H242 H 0.05422 0.15306 0.37739 0.0
H243 H 0.07459 0.12421 0.43106 0.0
H244 H 0.14513 0.29815 0.34317 0.0
H245 H 0.20272 0.23739 0.47258 0.0
H246 H 0.02383 0.29403 0.37705 0.0
H247 H 0.02863 0.23383 0.35007 0.0
H248 H 0.06226 0.28593 0.32266 0.0
H249 H 0.09307 0.22167 0.53892 0.0
H250 H 0.1529 0.19682 0.53226 0.0
H251 H 0.09968 0.16345 0.50812 0.0
C252 C 0.02747 0.79759 0.76498 0.0
C253 C 0.07847 0.79322 0.76357 0.0
C254 C 0.00705 0.84096 0.7502 0.0
C255 C 0.03839 0.88093 0.7337 0.0
C256 C 0.08981 0.87661 0.73155 0.0
C257 C 0.10924 0.83277 0.7464 0.0
C258 C 0.95193 0.84414 0.75257 0.0
C259 C 0.1243 0.91848 0.71408 0.0
C260 C 0.9795 0.97275 0.6547 0.0
C261 C 0.9676 0.00965 0.6894 0.0
C262 C 0.00392 0.93141 0.66834 0.0
C263 C 0.01707 0.9269 0.71786 0.0
C264 C 0.00746 0.96508 0.75261 0.0
C265 C 0.98277 0.0061 0.73796 0.0
C266 C 0.01366 0.89152 0.63019 0.0
C267 C 0.02143 0.96162 0.80569 0.0
H268 H 0.0034 0.76733 0.77823 0.0
H269 H 0.14872 0.82988 0.74527 0.0
H270 H 0.94177 0.8752 0.77736 0.0
H271 H 0.9385 0.85171 0.71552 0.0
H272 H 0.9327 0.80969 0.76609 0.0
H273 H 0.16341 0.90915 0.71448 0.0
H274 H 0.11557 0.92835 0.67607 0.0
H275 H 0.11943 0.95171 0.73786 0.0
H276 H 0.96829 0.97528 0.61696 0.0
H277 H 0.97379 0.03441 0.76498 0.0
H278 H 0.9918 0.85722 0.63984 0.0
H279 H 0.05292 0.88284 0.62962 0.0
H280 H 0.00404 0.90218 0.59261 0.0
H281 H -0.00031 0.93064 0.82323 0.0
H282 H 0.01486 -0.00396 0.82716 0.0
H283 H 0.06074 0.95369 0.80786 0.0
C284 C 0.34263 0.76792 0.85527 0.0
C285 C 0.30673 0.76096 0.89307 0.0
C286 C 0.39119 0.78281 0.86598 0.0
C287 C 0.40392 0.79101 0.91558 0.0
C288 C 0.36733 0.78668 0.95364 0.0
C289 C 0.31916 0.77165 0.9419 0.0
C290 C 0.42919 0.78738 0.8245 0.0
C291 C 0.37944 0.79599 0.00705 0.0
C292 C 0.52723 0.7734 0.96859 0.0
C293 C 0.5415 0.82225 0.98131 0.0
C294 C 0.48435 0.76265 0.94244 0.0
C295 C 0.45567 0.80176 0.92879 0.0
C296 C 0.47332 0.85119 0.93608 0.0
C297 C 0.51623 0.86088 0.96226 0.0
C298 C 0.46709 0.7094 0.93428 0.0
C299 C 0.44428 0.89389 0.92117 0.0
H300 H 0.33336 0.7598 0.81734 0.0
H301 H 0.29159 0.76676 0.97124 0.0
H302 H 0.45283 0.82167 0.82889 0.0
H303 H 0.45336 0.75589 0.82526 0.0
H304 H 0.41214 0.78733 0.78791 0.0
H305 H 0.34629 0.7933 0.03185 0.0
H306 H 0.40538 0.76872 0.01866 0.0
H307 H 0.39774 0.83322 0.01194 0.0
H308 H 0.54691 0.74341 0.98274 0.0
H309 H 0.5278 0.89882 0.97109 0.0
H310 H 0.45291 0.70339 0.8967 0.0
H311 H 0.43655 0.69978 0.96089 0.0
H312 H 0.49691 0.68393 0.9395 0.0
H313 H 0.42834 0.88688 0.88447 0.0
H314 H 0.46724 0.92898 0.92027 0.0
H315 H 0.4134 0.89853 0.94814 0.0
C316 C 0.42387 0.16276 0.24405 0.0
C317 C 0.38138 0.16816 0.27338 0.0
C318 C 0.43966 0.11581 0.2313 0.0
C319 C 0.41138 0.07337 0.24709 0.0
C320 C 0.367 0.07866 0.27447 0.0
C321 C 0.3529 0.12611 0.28802 0.0
C322 C 0.48767 0.11169 0.20264 0.0
C323 C 0.33509 0.03432 0.29041 0.0
C324 C 0.45 0.9611 0.17505 0.0
C325 C 0.48404 0.94285 0.20653 0.0
C326 C 0.42203 0.00086 0.18981 0.0
C327 C 0.4299 0.02381 0.23635 0.0
C328 C 0.46149 0.00298 0.26969 0.0
C329 C 0.48778 0.96208 0.25451 0.0
C330 C 0.38726 0.02079 0.154 0.0
C331 C 0.47149 0.02684 0.31935 0.0
H332 H 0.44612 0.19523 0.2331 0.0
H333 H 0.31979 0.13033 0.31047 0.0
H334 H 0.51348 0.09138 0.22436 0.0
H335 H 0.48155 0.09043 0.16785 0.0
H336 H 0.50535 0.14833 0.1935 0.0
H337 H 0.29911 0.04484 0.30645 0.0
H338 H 0.3285 0.00864 0.25867 0.0
H339 H 0.35409 0.01392 0.3184 0.0
H340 H 0.44723 0.94598 0.1379 0.0
H341 H 0.51464 0.9482 0.27851 0.0
H342 H 0.40452 0.05449 0.13697 0.0
H343 H 0.35275 0.03118 0.1732 0.0
H344 H 0.37811 -0.00644 0.1241 0.0
H345 H 0.49326 0.0622 0.31411 0.0
H346 H 0.49232 0.00303 0.34295 0.0
H347 H 0.4367 0.03548 0.33899 0.0
C348 C 0.67481 0.22362 0.54834 0.0
C349 C 0.67482 0.20118 0.59426 0.0
C350 C 0.63095 0.23733 0.52836 0.0
C351 C 0.58614 0.22957 0.55554 0.0
C352 C 0.58606 0.20818 0.60256 0.0
C353 C 0.63037 0.19361 0.62111 0.0
C354 C 0.63247 0.25926 0.47768 0.0
C355 C 0.53921 0.20061 0.63314 0.0
C356 C 0.48684 0.30899 0.51249 0.0
C357 C 0.46027 0.2759 0.48175 0.0
C358 C 0.52591 0.2935 0.5395 0.0
C359 C 0.53962 0.24411 0.53434 0.0
C360 C 0.51151 0.21 0.50498 0.0
C361 C 0.4716 0.22623 0.47949 0.0
C362 C 0.55402 0.33063 0.57153 0.0
C363 C 0.52556 0.15726 0.49778 0.0
H364 H 0.70897 0.22904 0.5272 0.0
H365 H 0.63028 0.17642 0.65674 0.0
H366 H 0.60821 0.23658 0.453 0.0
H367 H 0.61852 0.29687 0.47973 0.0
H368 H 0.67014 0.26161 0.46086 0.0
H369 H 0.54571 0.18533 0.66981 0.0
H370 H 0.52141 0.23618 0.63855 0.0
H371 H 0.51299 0.17502 0.61356 0.0
H372 H 0.47781 0.34739 0.51444 0.0
H373 H 0.45131 0.20078 0.45531 0.0
H374 H 0.59072 0.3396 0.55428 0.0
H375 H 0.55989 0.31506 0.60816 0.0
H376 H 0.53473 0.36541 0.57683 0.0
H377 H 0.56122 0.15659 0.47703 0.0
H378 H 0.4977 0.13448 0.47715 0.0
H379 H 0.53047 0.14011 0.53381 0.0
C380 C -0.00634 0.50584 0.80004 0.0
C381 C 0.04479 0.50775 0.79278 0.0
C382 C 0.96485 0.46415 0.78501 0.0
C383 C 0.98781 0.42422 0.76127 0.0
C384 C 0.03929 0.42659 0.75273 0.0
C385 C 0.06723 0.46816 0.7691 0.0
C386 C 0.91011 0.46236 0.79541 0.0
C387 C 0.06491 0.38511 0.72657 0.0
C388 C 0.92916 0.29466 0.76072 0.0
C389 C 0.91004 0.29102 0.71347 0.0
C390 C 0.95281 0.33866 0.77757 0.0
C391 C 0.95835 0.3794 0.7459 0.0
C392 C 0.9384 0.37618 0.69844 0.0
C393 C 0.91397 0.33209 0.68296 0.0
C394 C 0.97291 0.34115 0.82878 0.0
C395 C 0.94456 0.41858 0.66333 0.0
H396 H 0.97634 0.53635 0.81865 0.0
H397 H 0.10675 0.46982 0.76302 0.0
H398 H 0.89022 0.45654 0.76061 0.0
H399 H 0.89932 0.43068 0.81926 0.0
H400 H 0.89794 0.49668 0.81389 0.0
H401 H 0.10493 0.3938 0.72088 0.0
H402 H 0.05975 0.35098 0.74826 0.0
H403 H 0.04856 0.37716 0.69018 0.0
H404 H 0.92575 0.26303 0.78449 0.0
H405 H 0.89951 0.32921 0.64624 0.0
H406 H 0.95988 0.37399 0.84923 0.0
H407 H 0.01359 0.3451 0.82646 0.0
H408 H 0.96193 0.30771 0.85015 0.0
H409 H 0.9308 0.4526 0.68089 0.0
H410 H 0.92489 0.41087 0.62858 0.0
H411 H 0.98414 0.42612 0.65412 0.0
C412 C 0.98983 0.67612 -0.00314 0.0
C413 C 0.02629 0.71056 0.98016 0.0
C414 C 0.94808 0.69138 0.02292 0.0
C415 C 0.94201 0.74241 0.03071 0.0
C416 C 0.9799 0.77724 0.01581 0.0
C417 C 0.02213 0.76073 0.9912 0.0
C418 C 0.90921 0.65303 0.0395 0.0
C419 C 0.97424 0.83199 0.02243 0.0
C420 C 0.80982 0.7784 0.0333 0.0
C421 C 0.80127 0.78857 0.08345 0.0
C422 C 0.85593 0.76455 0.01563 0.0
C423 C 0.89387 0.75924 0.04921 0.0
C424 C 0.8852 0.76873 0.10006 0.0
C425 C 0.8391 0.7841 0.11653 0.0
C426 C 0.86411 0.75586 0.96094 0.0
C427 C 0.92431 0.76199 0.13703 0.0
H428 H 0.99337 0.63726 0.98823 0.0
H429 H 0.05024 0.78724 0.9776 0.0
H430 H 0.89679 0.66079 0.07803 0.0
H431 H 0.87678 0.65426 0.01604 0.0
H432 H 0.92265 0.61515 0.03708 0.0
H433 H 0.00889 0.85385 0.01354 0.0
H434 H 0.9454 0.84352 -0.00212 0.0
H435 H 0.96223 0.84106 0.06076 0.0
H436 H 0.78074 0.78249 0.00765 0.0
H437 H 0.83235 0.79182 0.15539 0.0
H438 H 0.87234 0.71681 0.95346 0.0
H439 H 0.89624 0.7791 0.94736 0.0
H440 H 0.83165 0.7643 0.93959 0.0
H441 H 0.93549 0.7233 0.13525 0.0
H442 H 0.9116 0.77074 0.1753 0.0
H443 H 0.95746 0.78597 0.12803 0.0
C444 C 0.53481 0.66614 0.21365 0.0
C445 C 0.57557 0.67563 0.18197 0.0
C446 C 0.51958 0.61778 0.22604 0.0
C447 C 0.54629 0.57799 0.20696 0.0
C448 C 0.58741 0.58722 0.17487 0.0
C449 C 0.60136 0.636 0.16241 0.0
C450 C 0.47496 0.60933 0.25979 0.0
C451 C 0.61704 0.5457 0.1544 0.0
C452 C 0.52452 0.46627 0.28645 0.0
C453 C 0.48663 0.44032 0.26164 0.0
C454 C 0.54748 0.5092 0.26677 0.0
C455 C 0.53125 0.527 0.22185 0.0
C456 C 0.49564 0.49888 0.19484 0.0
C457 C 0.47408 0.45544 0.21489 0.0
C458 C 0.58623 0.53757 0.29604 0.0
C459 C 0.47686 0.51691 0.14715 0.0
H460 H 0.5145 0.69657 0.22852 0.0
H461 H 0.63306 0.64315 0.13806 0.0
H462 H 0.44756 0.58371 0.24182 0.0
H463 H 0.4856 0.59186 0.2941 0.0
H464 H 0.4572 0.64413 0.26985 0.0
H465 H 0.64745 0.55902 0.1291 0.0
H466 H 0.63283 0.52605 0.18504 0.0
H467 H 0.59299 0.51842 0.13422 0.0
H468 H 0.53447 0.45441 0.32247 0.0
H469 H 0.4445 0.43568 0.19575 0.0
H470 H 0.57046 0.57089 0.31312 0.0
H471 H 0.61764 0.55014 0.2717 0.0
H472 H 0.60012 0.51514 0.32578 0.0
H473 H 0.45308 0.54815 0.15516 0.0
H474 H 0.455 0.48755 0.12716 0.0
H475 H 0.50765 0.53067 0.12266 0.0
loop_
_geom_bond_atom_site_label_1
_geom_bond_atom_site_label_2
_geom_bond_distance
_geom_bond_site_symmetry_2
_ccdc_geom_bond_type
O0 Zn1 1.953 . S
O0 C16 1.225 . S
Zn1 O0 1.953 . S
Zn1 O2 1.949 . S
Zn1 O8 1.919 . S
Zn1 O13 1.924 . S
O2 Zn1 1.949 . S
O2 Zn3 1.923 . S
O2 Zn4 1.950 . S
O2 Zn5 1.945 . S
Zn3 O2 1.923 . S
Zn3 O6 1.933 . S
Zn3 O9 1.941 . S
Zn3 O10 1.965 . S
Zn4 O2 1.950 . S
Zn4 O11 1.938 . S
Zn4 O12 1.906 . S
Zn4 O22 1.953 . S
Zn5 O2 1.945 . S
Zn5 O7 1.932 . S
Zn5 O14 1.977 . S
Zn5 O15 1.910 . S
O6 Zn3 1.933 . S
O6 C17 1.226 . S
O7 Zn5 1.932 . S
O7 C17 1.307 . S
O8 Zn1 1.919 . S
O8 C19 1.253 . S
O9 Zn3 1.941 . S
O9 C19 1.283 . S
O10 Zn3 1.965 . S
O10 C18 1.303 . S
O11 Zn4 1.938 . S
O11 C18 1.247 . S
O12 Zn4 1.906 . S
O12 C20 1.304 . S
O13 Zn1 1.924 . S
O13 C21 1.311 . S
O14 Zn5 1.977 . S
O14 C20 1.272 . S
O15 Zn5 1.910 . S
O15 C21 1.231 . S
C16 O0 1.225 . S
C16 O22 1.298 . S
C17 O6 1.226 . S
C17 O7 1.307 . S
C18 O10 1.303 . S
C18 O11 1.247 . S
C19 O8 1.253 . S
C19 O9 1.283 . S
C20 O12 1.304 . S
C20 O14 1.272 . S
C21 O13 1.311 . S
C21 O15 1.231 . S
O22 Zn4 1.953 . S
O22 C16 1.298 . S
O23 Zn24 1.953 . S
O23 C39 1.225 . S
Zn24 O23 1.953 . S
Zn24 O25 1.949 . S
Zn24 O31 1.919 . S
Zn24 O36 1.924 . S
O25 Zn24 1.949 . S
O25 Zn26 1.923 . S
O25 Zn27 1.950 . S
O25 Zn28 1.945 . S
Zn26 O25 1.923 . S
Zn26 O29 1.933 . S
Zn26 O32 1.941 . S
Zn26 O33 1.965 . S
Zn27 O25 1.950 . S
Zn27 O34 1.938 . S
Zn27 O35 1.906 . S
Zn27 O45 1.953 . S
Zn28 O25 1.945 . S
Zn28 O30 1.932 . S
Zn28 O37 1.977 . S
Zn28 O38 1.910 . S
O29 Zn26 1.933 . S
O29 C40 1.226 . S
O30 Zn28 1.932 . S
O30 C40 1.307 . S
O31 Zn24 1.919 . S
O31 C42 1.253 . S
O32 Zn26 1.941 . S
O32 C42 1.283 . S
O33 Zn26 1.965 . S
O33 C41 1.303 . S
O34 Zn27 1.938 . S
O34 C41 1.247 . S
O35 Zn27 1.906 . S
O35 C43 1.304 . S
O36 Zn24 1.924 . S
O36 C44 1.311 . S
O37 Zn28 1.977 . S
O37 C43 1.272 . S
O38 Zn28 1.910 . S
O38 C44 1.231 . S
C39 O23 1.225 . S
C39 O45 1.298 . S
C40 O29 1.226 . S
C40 O30 1.307 . S
C41 O33 1.303 . S
C41 O34 1.247 . S
C42 O31 1.253 . S
C42 O32 1.283 . S
C43 O35 1.304 . S
C43 O37 1.272 . S
C44 O36 1.311 . S
C44 O38 1.231 . S
O45 Zn27 1.953 . S
O45 C39 1.298 . S
O46 Zn47 1.953 . S
O46 C62 1.225 . S
Zn47 O46 1.953 . S
Zn47 O48 1.949 . S
Zn47 O54 1.919 . S
Zn47 O59 1.924 . S
O48 Zn47 1.949 . S
O48 Zn49 1.923 . S
O48 Zn50 1.950 . S
O48 Zn51 1.945 . S
Zn49 O48 1.923 . S
Zn49 O52 1.933 . S
Zn49 O55 1.941 . S
Zn49 O56 1.965 . S
Zn50 O48 1.950 . S
Zn50 O57 1.938 . S
Zn50 O58 1.906 . S
Zn50 O68 1.953 . S
Zn51 O48 1.945 . S
Zn51 O53 1.932 . S
Zn51 O60 1.977 . S
Zn51 O61 1.910 . S
O52 Zn49 1.933 . S
O52 C63 1.226 . S
O53 Zn51 1.932 . S
O53 C63 1.307 . S
O54 Zn47 1.919 . S
O54 C65 1.253 . S
O55 Zn49 1.941 . S
O55 C65 1.283 . S
O56 Zn49 1.965 . S
O56 C64 1.303 . S
O57 Zn50 1.938 . S
O57 C64 1.247 . S
O58 Zn50 1.906 . S
O58 C66 1.304 . S
O59 Zn47 1.924 . S
O59 C67 1.311 . S
O60 Zn51 1.977 . S
O60 C66 1.272 . S
O61 Zn51 1.910 . S
O61 C67 1.231 . S
C62 O46 1.225 . S
C62 O68 1.298 . S
C63 O52 1.226 . S
C63 O53 1.307 . S
C64 O56 1.303 . S
C64 O57 1.247 . S
C65 O54 1.253 . S
C65 O55 1.283 . S
C66 O58 1.304 . S
C66 O60 1.272 . S
C67 O59 1.311 . S
C67 O61 1.231 . S
O68 Zn50 1.953 . S
O68 C62 1.298 . S
O69 Zn70 1.953 . S
O69 C85 1.225 . S
Zn70 O69 1.953 . S
Zn70 O71 1.949 . S
Zn70 O77 1.919 . S
Zn70 O82 1.924 . S
O71 Zn70 1.949 . S
O71 Zn72 1.923 . S
O71 Zn73 1.950 . S
O71 Zn74 1.945 . S
Zn72 O71 1.923 . S
Zn72 O75 1.933 . S
Zn72 O78 1.941 . S
Zn72 O79 1.965 . S
Zn73 O71 1.950 . S
Zn73 O80 1.938 . S
Zn73 O81 1.906 . S
Zn73 O91 1.953 . S
Zn74 O71 1.945 . S
Zn74 O76 1.932 . S
Zn74 O83 1.977 . S
Zn74 O84 1.910 . S
O75 Zn72 1.933 . S
O75 C86 1.226 . S
O76 Zn74 1.932 . S
O76 C86 1.307 . S
O77 Zn70 1.919 . S
O77 C88 1.253 . S
O78 Zn72 1.941 . S
O78 C88 1.283 . S
O79 Zn72 1.965 . S
O79 C87 1.303 . S
O80 Zn73 1.938 . S
O80 C87 1.247 . S
O81 Zn73 1.906 . S
O81 C89 1.304 . S
O82 Zn70 1.924 . S
O82 C90 1.311 . S
O83 Zn74 1.977 . S
O83 C89 1.272 . S
O84 Zn74 1.910 . S
O84 C90 1.231 . S
C85 O69 1.225 . S
C85 O91 1.298 . S
C86 O75 1.226 . S
C86 O76 1.307 . S
C87 O79 1.303 . S
C87 O80 1.247 . S
C88 O77 1.253 . S
C88 O78 1.283 . S
C89 O81 1.304 . S
C89 O83 1.272 . S
C90 O82 1.311 . S
C90 O84 1.231 . S
O91 Zn73 1.953 . S
O91 C85 1.298 . S
C92 C93 1.391 . S
C92 C94 1.394 . S
C92 H108 0.931 . S
C93 C92 1.391 . S
C93 C97 1.376 . S
C94 C92 1.394 . S
C94 C95 1.369 . S
C94 C98 1.531 . S
C95 C94 1.369 . S
C95 C96 1.410 . S
C95 C103 1.503 . S
C96 C95 1.410 . S
C96 C97 1.392 . S
C96 C99 1.511 . S
C97 C93 1.376 . S
C97 C96 1.392 . S
C97 H109 0.929 . S
C98 C94 1.531 . S
C98 H110 0.960 . S
C98 H111 0.962 . S
C98 H112 0.960 . S
C99 C96 1.511 . S
C99 H113 0.961 . S
C99 H114 0.961 . S
C99 H115 0.961 . S
C100 C101 1.370 . S
C100 C102 1.363 . S
C100 H116 0.931 . S
C101 C100 1.370 . S
C101 C105 1.408 . S
C102 C100 1.363 . S
C102 C103 1.370 . S
C102 C106 1.524 . S
C103 C95 1.503 . S
C103 C102 1.370 . S
C103 C104 1.403 . S
C104 C103 1.403 . S
C104 C105 1.404 . S
C104 C107 1.539 . S
C105 C101 1.408 . S
C105 C104 1.404 . S
C105 H117 0.930 . S
C106 C102 1.524 . S
C106 H118 0.956 . S
C106 H119 0.961 . S
C106 H120 0.961 . S
C107 C104 1.539 . S
C107 H121 0.958 . S
C107 H122 0.961 . S
C107 H123 0.960 . S
H108 C92 0.931 . S
H109 C97 0.929 . S
H110 C98 0.960 . S
H111 C98 0.962 . S
H112 C98 0.960 . S
H113 C99 0.961 . S
H114 C99 0.961 . S
H115 C99 0.961 . S
H116 C100 0.931 . S
H117 C105 0.930 . S
H118 C106 0.956 . S
H119 C106 0.961 . S
H120 C106 0.961 . S
H121 C107 0.958 . S
H122 C107 0.961 . S
H123 C107 0.960 . S
C124 C125 1.391 . S
C124 C126 1.394 . S
C124 H140 0.931 . S
C125 C124 1.391 . S
C125 C129 1.376 . S
C126 C124 1.394 . S
C126 C127 1.369 . S
C126 C130 1.531 . S
C127 C126 1.369 . S
C127 C128 1.410 . S
C127 C135 1.503 . S
C128 C127 1.410 . S
C128 C129 1.392 . S
C128 C131 1.511 1_565 S
C129 C125 1.376 . S
C129 C128 1.392 . S
C129 H141 0.929 . S
C130 C126 1.531 . S
C130 H142 0.960 . S
C130 H143 0.962 . S
C130 H144 0.960 . S
C131 C128 1.511 1_545 S
C131 H145 0.961 . S
C131 H146 0.961 . S
C131 H147 0.961 1_545 S
C132 C133 1.370 . S
C132 C134 1.363 . S
C132 H148 0.931 . S
C133 C132 1.370 . S
C133 C137 1.408 1_545 S
C134 C132 1.363 . S
C134 C135 1.370 1_545 S
C134 C138 1.524 . S
C135 C127 1.503 . S
C135 C134 1.370 1_565 S
C135 C136 1.403 . S
C136 C135 1.403 . S
C136 C137 1.404 . S
C136 C139 1.539 . S
C137 C133 1.408 1_565 S
C137 C136 1.404 . S
C137 H149 0.930 . S
C138 C134 1.524 . S
C138 H150 0.956 . S
C138 H151 0.961 . S
C138 H152 0.961 . S
C139 C136 1.539 . S
C139 H153 0.958 . S
C139 H154 0.961 . S
C139 H155 0.960 . S
H140 C124 0.931 . S
H141 C129 0.929 . S
H142 C130 0.960 . S
H143 C130 0.962 . S
H144 C130 0.960 . S
H145 C131 0.961 . S
H146 C131 0.961 . S
H147 C131 0.961 1_565 S
H148 C132 0.931 . S
H149 C137 0.930 . S
H150 C138 0.956 . S
H151 C138 0.961 . S
H152 C138 0.961 . S
H153 C139 0.958 . S
H154 C139 0.961 . S
H155 C139 0.960 . S
C156 C157 1.391 . S
C156 C158 1.394 . S
C156 H172 0.931 . S
C157 C156 1.391 . S
C157 C161 1.376 . S
C158 C156 1.394 . S
C158 C159 1.369 . S
C158 C162 1.531 . S
C159 C158 1.369 . S
C159 C160 1.410 . S
C159 C167 1.503 . S
C160 C159 1.410 . S
C160 C161 1.392 . S
C160 C163 1.511 . S
C161 C157 1.376 . S
C161 C160 1.392 . S
C161 H173 0.929 . S
C162 C158 1.531 . S
C162 H174 0.960 . S
C162 H175 0.962 . S
C162 H176 0.960 . S
C163 C160 1.511 . S
C163 H177 0.961 . S
C163 H178 0.961 . S
C163 H179 0.961 . S
C164 C165 1.370 . S
C164 C166 1.363 . S
C164 H180 0.931 . S
C165 C164 1.370 . S
C165 C169 1.408 . S
C166 C164 1.363 . S
C166 C167 1.370 . S
C166 C170 1.524 . S
C167 C159 1.503 . S
C167 C166 1.370 . S
C167 C168 1.403 . S
C168 C167 1.403 . S
C168 C169 1.404 . S
C168 C171 1.539 . S
C169 C165 1.408 . S
C169 C168 1.404 . S
C169 H181 0.930 . S
C170 C166 1.524 . S
C170 H182 0.956 . S
C170 H183 0.961 . S
C170 H184 0.961 . S
C171 C168 1.539 . S
C171 H185 0.958 . S
C171 H186 0.961 . S
C171 H187 0.960 . S
H172 C156 0.931 . S
H173 C161 0.929 . S
H174 C162 0.960 . S
H175 C162 0.962 . S
H176 C162 0.960 . S
H177 C163 0.961 . S
H178 C163 0.961 . S
H179 C163 0.961 . S
H180 C164 0.931 . S
H181 C169 0.930 . S
H182 C170 0.956 . S
H183 C170 0.961 . S
H184 C170 0.961 . S
H185 C171 0.958 . S
H186 C171 0.961 . S
H187 C171 0.960 . S
C188 C189 1.391 1_545 S
C188 C190 1.394 . S
C188 H204 0.931 . S
C189 C188 1.391 1_565 S
C189 C193 1.376 . S
C190 C188 1.394 . S
C190 C191 1.369 . S
C190 C194 1.531 . S
C191 C190 1.369 . S
C191 C192 1.410 1_545 S
C191 C199 1.503 . S
C192 C191 1.410 1_565 S
C192 C193 1.392 . S
C192 C195 1.511 . S
C193 C189 1.376 . S
C193 C192 1.392 . S
C193 H205 0.929 . S
C194 C190 1.531 . S
C194 H206 0.960 . S
C194 H207 0.962 . S
C194 H208 0.960 . S
C195 C192 1.511 . S
C195 H209 0.961 . S
C195 H210 0.961 . S
C195 H211 0.961 1_565 S
C196 C197 1.370 . S
C196 C198 1.363 1_545 S
C196 H212 0.931 1_545 S
C197 C196 1.370 . S
C197 C201 1.408 . S
C198 C196 1.363 1_565 S
C198 C199 1.370 1_565 S
C198 C202 1.524 . S
C199 C191 1.503 . S
C199 C198 1.370 1_545 S
C199 C200 1.403 . S
C200 C199 1.403 . S
C200 C201 1.404 . S
C200 C203 1.539 . S
C201 C197 1.408 . S
C201 C200 1.404 . S
C201 H213 0.930 . S
C202 C198 1.524 . S
C202 H214 0.956 . S
C202 H215 0.961 . S
C202 H216 0.961 . S
C203 C200 1.539 . S
C203 H217 0.958 . S
C203 H218 0.961 . S
C203 H219 0.960 . S
H204 C188 0.931 . S
H205 C193 0.929 . S
H206 C194 0.960 . S
H207 C194 0.962 . S
H208 C194 0.960 . S
H209 C195 0.961 . S
H210 C195 0.961 . S
H211 C195 0.961 1_545 S
H212 C196 0.931 1_565 S
H213 C201 0.930 . S
H214 C202 0.956 . S
H215 C202 0.961 . S
H216 C202 0.961 . S
H217 C203 0.958 . S
H218 C203 0.961 . S
H219 C203 0.960 . S
C220 C221 1.391 . S
C220 C222 1.394 . S
C220 H236 0.931 1_455 S
C221 C220 1.391 . S
C221 C225 1.376 . S
C222 C220 1.394 . S
C222 C223 1.369 . S
C222 C226 1.531 . S
C223 C222 1.369 . S
C223 C224 1.410 . S
C223 C231 1.503 . S
C224 C223 1.410 . S
C224 C225 1.392 . S
C224 C227 1.511 . S
C225 C221 1.376 . S
C225 C224 1.392 . S
C225 H237 0.929 . S
C226 C222 1.531 . S
C226 H238 0.960 . S
C226 H239 0.962 . S
C226 H240 0.960 . S
C227 C224 1.511 . S
C227 H241 0.961 . S
C227 H242 0.961 . S
C227 H243 0.961 . S
C228 C229 1.370 . S
C228 C230 1.363 . S
C228 H244 0.931 . S
C229 C228 1.370 . S
C229 C233 1.408 . S
C230 C228 1.363 . S
C230 C231 1.370 . S
C230 C234 1.524 . S
C231 C223 1.503 . S
C231 C230 1.370 . S
C231 C232 1.403 . S
C232 C231 1.403 . S
C232 C233 1.404 . S
C232 C235 1.539 . S
C233 C229 1.408 . S
C233 C232 1.404 . S
C233 H245 0.930 . S
C234 C230 1.524 . S
C234 H246 0.956 . S
C234 H247 0.961 . S
C234 H248 0.961 . S
C235 C232 1.539 . S
C235 H249 0.958 . S
C235 H250 0.961 . S
C235 H251 0.960 . S
H236 C220 0.931 1_655 S
H237 C225 0.929 . S
H238 C226 0.960 . S
H239 C226 0.962 . S
H240 C226 0.960 . S
H241 C227 0.961 . S
H242 C227 0.961 . S
H243 C227 0.961 . S
H244 C228 0.931 . S
H245 C233 0.930 . S
H246 C234 0.956 . S
H247 C234 0.961 . S
H248 C234 0.961 . S
H249 C235 0.958 . S
H250 C235 0.961 . S
H251 C235 0.960 . S
C252 C253 1.391 . S
C252 C254 1.394 . S
C252 H268 0.931 1_455 S
C253 C252 1.391 . S
C253 C257 1.376 . S
C254 C252 1.394 . S
C254 C255 1.369 . S
C254 C258 1.531 1_455 S
C255 C254 1.369 . S
C255 C256 1.410 . S
C255 C263 1.503 . S
C256 C255 1.410 . S
C256 C257 1.392 . S
C256 C259 1.511 . S
C257 C253 1.376 . S
C257 C256 1.392 . S
C257 H269 0.929 . S
C258 C254 1.531 1_655 S
C258 H270 0.960 . S
C258 H271 0.962 . S
C258 H272 0.960 . S
C259 C256 1.511 . S
C259 H273 0.961 . S
C259 H274 0.961 . S
C259 H275 0.961 . S
C260 C261 1.370 . S
C260 C262 1.363 . S
C260 H276 0.931 . S
C261 C260 1.370 . S
C261 C265 1.408 1_655 S
C262 C260 1.363 . S
C262 C263 1.370 1_655 S
C262 C266 1.524 . S
C263 C255 1.503 . S
C263 C262 1.370 1_455 S
C263 C264 1.403 . S
C264 C263 1.403 . S
C264 C265 1.404 . S
C264 C267 1.539 . S
C265 C261 1.408 1_455 S
C265 C264 1.404 . S
C265 H277 0.930 1_565 S
C266 C262 1.524 . S
C266 H278 0.956 . S
C266 H279 0.961 1_655 S
C266 H280 0.961 . S
C267 C264 1.539 . S
C267 H281 0.958 . S
C267 H282 0.961 . S
C267 H283 0.960 . S
H268 C252 0.931 1_655 S
H269 C257 0.929 . S
H270 C258 0.960 . S
H271 C258 0.962 . S
H272 C258 0.960 . S
H273 C259 0.961 . S
H274 C259 0.961 . S
H275 C259 0.961 . S
H276 C260 0.931 . S
H277 C265 0.930 1_545 S
H278 C266 0.956 . S
H279 C266 0.961 1_455 S
H280 C266 0.961 . S
H281 C267 0.958 . S
H282 C267 0.961 . S
H283 C267 0.960 . S
C284 C285 1.391 . S
C284 C286 1.394 . S
C284 H300 0.931 . S
C285 C284 1.391 . S
C285 C289 1.376 1_556 S
C286 C284 1.394 . S
C286 C287 1.369 . S
C286 C290 1.531 . S
C287 C286 1.369 . S
C287 C288 1.410 1_556 S
C287 C295 1.500 1_556 S
C288 C287 1.410 1_554 S
C288 C289 1.392 . S
C288 C291 1.511 . S
C289 C285 1.376 1_554 S
C289 C288 1.392 . S
C289 H301 0.929 . S
C290 C286 1.531 . S
C290 H302 0.960 . S
C290 H303 0.962 . S
C290 H304 0.960 . S
C291 C288 1.511 . S
C291 H305 0.961 . S
C291 H306 0.961 . S
C291 H307 0.961 . S
C292 C293 1.370 . S
C292 C294 1.363 . S
C292 H308 0.931 . S
C293 C292 1.370 . S
C293 C297 1.408 . S
C294 C292 1.363 . S
C294 C295 1.371 . S
C294 C298 1.524 1_554 S
C295 C287 1.500 1_554 S
C295 C294 1.371 . S
C295 C296 1.405 . S
C296 C295 1.405 . S
C296 C297 1.404 . S
C296 C299 1.539 . S
C297 C293 1.408 . S
C297 C296 1.404 . S
C297 H309 0.930 . S
C298 C294 1.524 1_556 S
C298 H310 0.956 . S
C298 H311 0.961 1_556 S
C298 H312 0.961 . S
C299 C296 1.539 . S
C299 H313 0.958 1_554 S
C299 H314 0.961 . S
C299 H315 0.960 . S
H300 C284 0.931 . S
H301 C289 0.929 . S
H302 C290 0.960 . S
H303 C290 0.962 . S
H304 C290 0.960 . S
H305 C291 0.961 . S
H306 C291 0.961 . S
H307 C291 0.961 . S
H308 C292 0.931 . S
H309 C297 0.930 . S
H310 C298 0.956 . S
H311 C298 0.961 1_554 S
H312 C298 0.961 . S
H313 C299 0.958 1_556 S
H314 C299 0.961 . S
H315 C299 0.960 . S
C316 C317 1.391 . S
C316 C318 1.394 . S
C316 H332 0.931 . S
C317 C316 1.391 . S
C317 C321 1.376 . S
C318 C316 1.394 . S
C318 C319 1.369 . S
C318 C322 1.531 . S
C319 C318 1.369 . S
C319 C320 1.410 . S
C319 C327 1.503 . S
C320 C319 1.410 . S
C320 C321 1.392 . S
C320 C323 1.511 . S
C321 C317 1.376 . S
C321 C320 1.392 . S
C321 H333 0.929 . S
C322 C318 1.531 . S
C322 H334 0.960 . S
C322 H335 0.962 . S
C322 H336 0.960 . S
C323 C320 1.511 . S
C323 H337 0.961 . S
C323 H338 0.961 . S
C323 H339 0.961 . S
C324 C325 1.370 . S
C324 C326 1.363 . S
C324 H340 0.931 . S
C325 C324 1.370 . S
C325 C329 1.408 . S
C326 C324 1.363 . S
C326 C327 1.370 . S
C326 C330 1.524 . S
C327 C319 1.503 . S
C327 C326 1.370 . S
C327 C328 1.403 . S
C328 C327 1.403 . S
C328 C329 1.404 . S
C328 C331 1.539 . S
C329 C325 1.408 . S
C329 C328 1.404 . S
C329 H341 0.930 1_545 S
C330 C326 1.524 . S
C330 H342 0.956 . S
C330 H343 0.961 . S
C330 H344 0.961 . S
C331 C328 1.539 . S
C331 H345 0.958 . S
C331 H346 0.961 . S
C331 H347 0.960 . S
H332 C316 0.931 . S
H333 C321 0.929 . S
H334 C322 0.960 . S
H335 C322 0.962 . S
H336 C322 0.960 . S
H337 C323 0.961 . S
H338 C323 0.961 . S
H339 C323 0.961 . S
H340 C324 0.931 . S
H341 C329 0.930 1_565 S
H342 C330 0.956 . S
H343 C330 0.961 . S
H344 C330 0.961 . S
H345 C331 0.958 . S
H346 C331 0.961 . S
H347 C331 0.960 . S
C348 C349 1.391 . S
C348 C350 1.394 . S
C348 H364 0.931 . S
C349 C348 1.391 . S
C349 C353 1.376 . S
C350 C348 1.394 . S
C350 C351 1.369 . S
C350 C354 1.531 . S
C351 C350 1.369 . S
C351 C352 1.410 . S
C351 C359 1.503 . S
C352 C351 1.410 . S
C352 C353 1.392 . S
C352 C355 1.511 . S
C353 C349 1.376 . S
C353 C352 1.392 . S
C353 H365 0.929 . S
C354 C350 1.531 . S
C354 H366 0.960 . S
C354 H367 0.962 . S
C354 H368 0.960 . S
C355 C352 1.511 . S
C355 H369 0.961 . S
C355 H370 0.961 . S
C355 H371 0.961 . S
C356 C357 1.370 . S
C356 C358 1.363 . S
C356 H372 0.931 . S
C357 C356 1.370 . S
C357 C361 1.408 . S
C358 C356 1.363 . S
C358 C359 1.370 . S
C358 C362 1.524 . S
C359 C351 1.503 . S
C359 C358 1.370 . S
C359 C360 1.403 . S
C360 C359 1.403 . S
C360 C361 1.404 . S
C360 C363 1.539 . S
C361 C357 1.408 . S
C361 C360 1.404 . S
C361 H373 0.930 . S
C362 C358 1.524 . S
C362 H374 0.956 . S
C362 H375 0.961 . S
C362 H376 0.961 . S
C363 C360 1.539 . S
C363 H377 0.958 . S
C363 H378 0.961 . S
C363 H379 0.960 . S
H364 C348 0.931 . S
H365 C353 0.929 . S
H366 C354 0.960 . S
H367 C354 0.962 . S
H368 C354 0.960 . S
H369 C355 0.961 . S
H370 C355 0.961 . S
H371 C355 0.961 . S
H372 C356 0.931 . S
H373 C361 0.930 . S
H374 C362 0.956 . S
H375 C362 0.961 . S
H376 C362 0.961 . S
H377 C363 0.958 . S
H378 C363 0.961 . S
H379 C363 0.960 . S
C380 C381 1.391 1_655 S
C380 C382 1.394 . S
C380 H396 0.931 . S
C381 C380 1.391 1_455 S
C381 C385 1.376 . S
C382 C380 1.394 . S
C382 C383 1.369 . S
C382 C386 1.531 . S
C383 C382 1.369 . S
C383 C384 1.410 1_655 S
C383 C391 1.503 . S
C384 C383 1.410 1_455 S
C384 C385 1.392 . S
C384 C387 1.511 . S
C385 C381 1.376 . S
C385 C384 1.392 . S
C385 H397 0.929 . S
C386 C382 1.531 . S
C386 H398 0.960 . S
C386 H399 0.962 . S
C386 H400 0.960 . S
C387 C384 1.511 . S
C387 H401 0.961 . S
C387 H402 0.961 . S
C387 H403 0.961 . S
C388 C389 1.370 . S
C388 C390 1.363 . S
C388 H404 0.931 . S
C389 C388 1.370 . S
C389 C393 1.408 . S
C390 C388 1.363 . S
C390 C391 1.370 . S
C390 C394 1.524 . S
C391 C383 1.503 . S
C391 C390 1.370 . S
C391 C392 1.403 . S
C392 C391 1.403 . S
C392 C393 1.404 . S
C392 C395 1.539 . S
C393 C389 1.408 . S
C393 C392 1.404 . S
C393 H405 0.930 . S
C394 C390 1.524 . S
C394 H406 0.956 . S
C394 H407 0.961 . S
C394 H408 0.961 . S
C395 C392 1.539 . S
C395 H409 0.958 . S
C395 H410 0.961 . S
C395 H411 0.960 1_655 S
H396 C380 0.931 . S
H397 C385 0.929 . S
H398 C386 0.960 . S
H399 C386 0.962 . S
H400 C386 0.960 . S
H401 C387 0.961 . S
H402 C387 0.961 . S
H403 C387 0.961 . S
H404 C388 0.931 . S
H405 C393 0.930 . S
H406 C394 0.956 . S
H407 C394 0.961 . S
H408 C394 0.961 . S
H409 C395 0.958 . S
H410 C395 0.961 . S
H411 C395 0.960 1_455 S
C412 C413 1.391 . S
C412 C414 1.394 . S
C412 H428 0.931 . S
C413 C412 1.391 . S
C413 C417 1.376 1_556 S
C414 C412 1.394 . S
C414 C415 1.369 1_556 S
C414 C418 1.531 . S
C415 C414 1.369 1_554 S
C415 C416 1.410 . S
C415 C423 1.503 . S
C416 C415 1.410 . S
C416 C417 1.392 . S
C416 C419 1.511 . S
C417 C413 1.376 1_554 S
C417 C416 1.392 . S
C417 H429 0.929 1_655 S
C418 C414 1.531 . S
C418 H430 0.960 . S
C418 H431 0.962 . S
C418 H432 0.960 . S
C419 C416 1.511 . S
C419 H433 0.961 . S
C419 H434 0.961 . S
C419 H435 0.961 . S
C420 C421 1.370 . S
C420 C422 1.363 . S
C420 H436 0.931 . S
C421 C420 1.370 . S
C421 C425 1.408 . S
C422 C420 1.363 . S
C422 C423 1.370 . S
C422 C426 1.524 1_554 S
C423 C415 1.503 . S
C423 C422 1.370 . S
C423 C424 1.403 . S
C424 C423 1.403 . S
C424 C425 1.404 . S
C424 C427 1.539 . S
C425 C421 1.408 . S
C425 C424 1.404 . S
C425 H437 0.930 . S
C426 C422 1.524 1_556 S
C426 H438 0.956 . S
C426 H439 0.961 . S
C426 H440 0.961 . S
C427 C424 1.539 . S
C427 H441 0.958 . S
C427 H442 0.961 . S
C427 H443 0.960 . S
H428 C412 0.931 . S
H429 C417 0.929 1_455 S
H430 C418 0.960 . S
H431 C418 0.962 . S
H432 C418 0.960 . S
H433 C419 0.961 . S
H434 C419 0.961 . S
H435 C419 0.961 . S
H436 C420 0.931 . S
H437 C425 0.930 . S
H438 C426 0.956 . S
H439 C426 0.961 . S
H440 C426 0.961 . S
H441 C427 0.958 . S
H442 C427 0.961 . S
H443 C427 0.960 . S
C444 C445 1.391 . S
C444 C446 1.394 . S
C444 H460 0.931 . S
C445 C444 1.391 . S
C445 C449 1.376 . S
C446 C444 1.394 . S
C446 C447 1.369 . S
C446 C450 1.531 . S
C447 C446 1.369 . S
C447 C448 1.410 . S
C447 C455 1.503 . S
C448 C447 1.410 . S
C448 C449 1.392 . S
C448 C451 1.511 . S
C449 C445 1.376 . S
C449 C448 1.392 . S
C449 H461 0.929 . S
C450 C446 1.531 . S
C450 H462 0.960 . S
C450 H463 0.962 . S
C450 H464 0.960 . S
C451 C448 1.511 . S
C451 H465 0.961 . S
C451 H466 0.961 . S
C451 H467 0.961 . S
C452 C453 1.370 . S
C452 C454 1.363 . S
C452 H468 0.931 . S
C453 C452 1.370 . S
C453 C457 1.408 . S
C454 C452 1.363 . S
C454 C455 1.370 . S
C454 C458 1.524 . S
C455 C447 1.503 . S
C455 C454 1.370 . S
C455 C456 1.403 . S
C456 C455 1.403 . S
C456 C457 1.404 . S
C456 C459 1.539 . S
C457 C453 1.408 . S
C457 C456 1.404 . S
C457 H469 0.930 . S
C458 C454 1.524 . S
C458 H470 0.956 . S
C458 H471 0.961 . S
C458 H472 0.961 . S
C459 C456 1.539 . S
C459 H473 0.958 . S
C459 H474 0.961 . S
C459 H475 0.960 . S
H460 C444 0.931 . S
H461 C449 0.929 . S
H462 C450 0.960 . S
H463 C450 0.962 . S
H464 C450 0.960 . S
H465 C451 0.961 . S
H466 C451 0.961 . S
H467 C451 0.961 . S
H468 C452 0.931 . S
H469 C457 0.930 . S
H470 C458 0.956 . S
H471 C458 0.961 . S
H472 C458 0.961 . S
H473 C459 0.958 . S
H474 C459 0.961 . S
H475 C459 0.960 . S
C93 C63 1.527 1_554 S
C101 C17 1.556 . S
C125 C90 1.209 . S
C133 C43 1.272 . S
C157 C64 1.393 . S
C165 C18 1.411 . S
C189 C89 1.272 1_556 S
C197 C44 1.224 . S
C221 C41 1.255 1_455 S
C229 C19 1.209 . S
C253 C62 1.602 . S
C261 C39 1.635 1_565 S
C285 C66 1.248 . S
C293 C87 1.255 . S
C317 C21 1.344 . S
C325 C85 1.375 1_545 S
C349 C40 1.591 . S
C357 C16 1.623 . S
C381 C65 1.190 . S
C389 C42 1.228 . S
C413 C67 1.338 1_655 S
C421 C86 1.364 . S
C445 C88 1.196 . S
C453 C20 1.259 . S
