# Generated by pormake.
# Topology snk, (6)-cn, num edge types: 1
# Building blocks:
#     Node 0, Type 0, BuildingBlock: MIFKUJ_clean_sbu_0, # of connection points: 6
#     Node 1, Type 0, BuildingBlock: MIFKUJ_clean_sbu_0, # of connection points: 6
#     Node 2, Type 0, BuildingBlock: MIFKUJ_clean_sbu_0, # of connection points: 6
#     Node 3, Type 0, BuildingBlock: MIFKUJ_clean_sbu_0, # of connection points: 6
#     Node 4, Type 0, BuildingBlock: MIFKUJ_clean_sbu_0, # of connection points: 6
#     Node 5, Type 0, BuildingBlock: MIFKUJ_clean_sbu_0, # of connection points: 6
#     Node 6, Type 0, BuildingBlock: MIFKUJ_clean_sbu_0, # of connection points: 6
#     Node 7, Type 0, BuildingBlock: MIFKUJ_clean_sbu_0, # of connection points: 6
#     Edge 8, Type (0, 0), BuildingBlock: KIFKEQ_clean_linker_1, # of connection points: 2
#     Edge 9, Type (0, 0), BuildingBlock: KIFKEQ_clean_linker_1, # of connection points: 2
#     Edge 10, Type (0, 0), BuildingBlock: KIFKEQ_clean_linker_1, # of connection points: 2
#     Edge 11, Type (0, 0), BuildingBlock: KIFKEQ_clean_linker_1, # of connection points: 2
#     Edge 12, Type (0, 0), BuildingBlock: KIFKEQ_clean_linker_1, # of connection points: 2
#     Edge 13, Type (0, 0), BuildingBlock: KIFKEQ_clean_linker_1, # of connection points: 2
#     Edge 14, Type (0, 0), BuildingBlock: KIFKEQ_clean_linker_1, # of connection points: 2
#     Edge 15, Type (0, 0), BuildingBlock: KIFKEQ_clean_linker_1, # of connection points: 2
#     Edge 16, Type (0, 0), BuildingBlock: KIFKEQ_clean_linker_1, # of connection points: 2
#     Edge 17, Type (0, 0), BuildingBlock: KIFKEQ_clean_linker_1, # of connection points: 2
#     Edge 18, Type (0, 0), BuildingBlock: KIFKEQ_clean_linker_1, # of connection points: 2
#     Edge 19, Type (0, 0), BuildingBlock: KIFKEQ_clean_linker_1, # of connection points: 2
#     Edge 20, Type (0, 0), BuildingBlock: KIFKEQ_clean_linker_1, # of connection points: 2
#     Edge 21, Type (0, 0), BuildingBlock: KIFKEQ_clean_linker_1, # of connection points: 2
#     Edge 22, Type (0, 0), BuildingBlock: KIFKEQ_clean_linker_1, # of connection points: 2
#     Edge 23, Type (0, 0), BuildingBlock: KIFKEQ_clean_linker_1, # of connection points: 2
#     Edge 24, Type (0, 0), BuildingBlock: KIFKEQ_clean_linker_1, # of connection points: 2
#     Edge 25, Type (0, 0), BuildingBlock: KIFKEQ_clean_linker_1, # of connection points: 2
#     Edge 26, Type (0, 0), BuildingBlock: KIFKEQ_clean_linker_1, # of connection points: 2
#     Edge 27, Type (0, 0), BuildingBlock: KIFKEQ_clean_linker_1, # of connection points: 2
#     Edge 28, Type (0, 0), BuildingBlock: KIFKEQ_clean_linker_1, # of connection points: 2
#     Edge 29, Type (0, 0), BuildingBlock: KIFKEQ_clean_linker_1, # of connection points: 2
#     Edge 30, Type (0, 0), BuildingBlock: KIFKEQ_clean_linker_1, # of connection points: 2
#     Edge 31, Type (0, 0), BuildingBlock: KIFKEQ_clean_linker_1, # of connection points: 2
# Relax obj value: 0.034
# Max RMSD: 0.068
# Mean RMSD: 0.067
data_MOF--net-snk--node1-MIFKUJ_clean_sbu_0--edge1-KIFKEQ_clean_linker_1
_symmetry_space_group_name_H-M    P1
_symmetry_Int_Tables_number       1
_symmetry_cell_setting            triclinic
loop_
_symmetry_equiv_pos_as_xyz
'x, y, z'
_cell_length_a     42.807736
_cell_length_b     42.889717
_cell_length_c     18.768189
_cell_angle_alpha  98.45537
_cell_angle_beta   82.809716
_cell_angle_gamma 89.430731
loop_
_atom_site_label
_atom_site_type_symbol
_atom_site_fract_x
_atom_site_fract_y
_atom_site_fract_z
_atom_type_partial_charge
Zn0 Zn 0.01117 1.00499 0.40316 0.0
Zn1 Zn 0.02017 0.01417 0.57583 0.0
C2 C 0.95316 0.0333 0.39737 0.0
O3 O 0.95 1.00393 0.36799 0.0
C4 C 0.07909 0.9863 0.58067 0.0
O5 O 0.08249 0.01556 0.61057 0.0
O6 O 0.01537 0.99414 0.29362 0.0
O7 O 0.05346 0.01991 0.42724 0.0
O8 O 0.03652 0.05127 0.5287 0.0
C9 C 0.02554 0.01571 0.25756 0.0
O10 O 0.03464 0.04215 0.29273 0.0
O11 O 0.9787 0.0408 0.42282 0.0
C12 C 0.01262 1.00113 0.71876 0.0
O13 O 0.00955 0.97337 0.68047 0.0
O14 O 0.01654 0.02497 0.68565 0.0
O15 O 0.97827 0.99695 0.55536 0.0
O16 O 0.99253 0.96845 0.44808 0.0
O17 O 0.05361 0.97919 0.55457 0.0
C18 C 0.0556 0.04528 0.47047 0.0
C19 C 0.97462 0.97325 0.50823 0.0
Zn20 Zn 0.25477 0.7527 0.82874 0.0
Zn21 Zn 0.264 0.76184 0.6573 0.0
C22 C 0.2814 0.69196 0.82485 0.0
O23 O 0.25152 0.68709 0.84468 0.0
C24 C 0.23724 0.82053 0.65079 0.0
O25 O 0.26681 0.82314 0.62402 0.0
O26 O 0.24407 0.7559 0.93812 0.0
O27 O 0.27386 0.79447 0.81293 0.0
O28 O 0.30122 0.77974 0.70528 0.0
C29 C 0.26801 0.75891 0.97238 0.0
O30 O 0.29584 0.76135 0.9355 0.0
O31 O 0.28917 0.71874 0.80802 0.0
C32 C 0.25315 0.74796 0.51074 0.0
O33 O 0.22636 0.73994 0.54461 0.0
O34 O 0.27507 0.75737 0.54803 0.0
O35 O 0.24698 0.71967 0.67689 0.0
O36 O 0.21692 0.73676 0.77932 0.0
O37 O 0.22912 0.79529 0.67538 0.0
C38 C 0.2976 0.79742 0.76663 0.0
C39 C 0.22189 0.7178 0.71989 0.0
Zn40 Zn 0.51214 0.00904 0.09551 0.0
Zn41 Zn 0.50025 0.00801 0.92355 0.0
C42 C 0.57064 0.03794 0.1184 0.0
O43 O 0.57397 0.01167 0.14529 0.0
C44 C 0.44674 0.97386 0.88402 0.0
O45 O 0.44337 0.99957 0.85501 0.0
O46 O 0.50966 1.00027 0.19847 0.0
O47 O 0.46966 0.02866 0.09024 0.0
O48 O 0.47911 0.04684 0.98577 0.0
C49 C 0.5068 0.02402 0.24833 0.0
O50 O 0.5044 0.05235 0.2304 0.0
O51 O 0.5461 0.04203 0.08841 0.0
C52 C 0.51761 0.99699 0.76995 0.0
O53 O 0.52786 0.97007 0.78524 0.0
O54 O 0.50562 0.01791 0.82147 0.0
O55 O 0.54345 0.99273 0.93925 0.0
O56 O 0.52658 0.96822 0.03078 0.0
O57 O 0.46952 0.9718 0.92096 0.0
C58 C 0.46345 0.04796 0.04833 0.0
C59 C 0.54558 0.96963 0.97379 0.0
Zn60 Zn 0.24723 0.25685 0.17625 0.0
Zn61 Zn 0.25485 0.25425 0.34152 0.0
C62 C 0.27535 0.31462 0.15878 0.0
O63 O 0.24788 0.31909 0.1369 0.0
C64 C 0.22685 0.19558 0.35198 0.0
O65 O 0.25552 0.18892 0.36443 0.0
O66 O 0.23852 0.25299 0.07106 0.0
O67 O 0.2666 0.21515 0.18846 0.0
O68 O 0.2936 0.23568 0.2755 0.0
C69 C 0.26246 0.25028 0.02259 0.0
O70 O 0.29062 0.24829 0.04284 0.0
O71 O 0.28071 0.28915 0.18278 0.0
C72 C 0.24185 0.26636 0.49673 0.0
O73 O 0.21454 0.27507 0.47978 0.0
O74 O 0.26408 0.25745 0.44584 0.0
O75 O 0.23626 0.29608 0.32858 0.0
O76 O 0.20857 0.27578 0.24248 0.0
O77 O 0.2207 0.22268 0.33669 0.0
C78 C 0.29087 0.2148 0.22116 0.0
C79 C 0.21202 0.29693 0.29592 0.0
Zn80 Zn 0.75407 0.25 0.34517 0.0
Zn81 Zn 0.76294 0.25983 0.17442 0.0
C82 C 0.78443 0.19285 0.35078 0.0
O83 O 0.75545 0.18868 0.37954 0.0
C84 C 0.73602 0.31981 0.17474 0.0
O85 O 0.76528 0.32336 0.14698 0.0
O86 O 0.74338 0.2541 0.45448 0.0
O87 O 0.76882 0.29282 0.32519 0.0
O88 O 0.80041 0.27584 0.2251 0.0
C89 C 0.76491 0.26448 0.49199 0.0
O90 O 0.79126 0.27362 0.45841 0.0
O91 O 0.79058 0.2184 0.32564 0.0
C92 C 0.74989 0.25408 0.03067 0.0
O93 O 0.72206 0.25141 0.06736 0.0
O94 O 0.77378 0.25718 0.06511 0.0
O95 O 0.74383 0.2178 0.18831 0.0
O96 O 0.71745 0.23028 0.29794 0.0
O97 O 0.7287 0.2939 0.19705 0.0
C98 C 0.79432 0.29508 0.28387 0.0
C99 C 0.72089 0.21346 0.23552 0.0
Zn100 Zn 0.76552 0.77587 0.66184 0.0
Zn101 Zn 0.73371 0.73343 0.8414 0.0
C102 C 0.79584 0.82979 0.6166 0.0
O103 O 0.76974 0.83187 0.58726 0.0
C104 C 0.7052 0.67501 0.85786 0.0
O105 O 0.73455 0.66681 0.86148 0.0
O106 O 0.75215 0.76622 0.5624 0.0
O107 O 0.78659 0.73619 0.68004 0.0
O108 O 0.77048 0.71196 0.77393 0.0
C109 C 0.77404 0.75958 0.50977 0.0
O110 O 0.80332 0.75799 0.52358 0.0
O111 O 0.79926 0.8078 0.65382 0.0
C112 C 0.72632 0.75028 0.99453 0.0
O113 O 0.69794 0.7581 0.98226 0.0
O114 O 0.74672 0.73967 0.94113 0.0
O115 O 0.71422 0.77451 0.82632 0.0
O116 O 0.72918 0.79776 0.73005 0.0
O117 O 0.69893 0.70273 0.8466 0.0
C118 C 0.78906 0.71379 0.71651 0.0
C119 C 0.71169 0.7968 0.78954 0.0
Zn120 Zn 0.48741 0.49294 0.92929 0.0
Zn121 Zn 0.50538 0.49653 0.10474 0.0
C122 C 0.4306 0.53196 0.95339 0.0
O123 O 0.41752 0.50516 0.96374 0.0
C124 C 0.56784 0.47543 0.10621 0.0
O125 O 0.56893 0.50502 0.13614 0.0
O126 O 0.49271 0.48109 0.82125 0.0
O127 O 0.53083 0.50211 0.9554 0.0
O128 O 0.51586 0.53453 0.05566 0.0
C129 C 0.50522 0.50179 0.78565 0.0
O130 O 0.51516 0.52771 0.82128 0.0
O131 O 0.46048 0.5331 0.94328 0.0
C132 C 0.50122 0.48425 0.24544 0.0
O133 O 0.50062 0.45617 0.20669 0.0
O134 O 0.50252 0.50835 0.21304 0.0
O135 O 0.46602 0.47287 0.09028 0.0
O136 O 0.46305 0.45909 0.97287 0.0
O137 O 0.54264 0.46581 0.08192 0.0
C138 C 0.53348 0.52822 0.99545 0.0
C139 C 0.45375 0.45698 0.03892 0.0
Zn140 Zn 0.01247 0.51176 0.59312 0.0
Zn141 Zn 0.99735 0.50627 0.4206 0.0
C142 C 0.07127 0.54282 0.59986 0.0
O143 O 0.08014 0.51423 0.60767 0.0
C144 C 0.93914 0.47412 0.41296 0.0
O145 O 0.92985 0.50242 0.40402 0.0
O146 O 0.01109 0.5029 0.69511 0.0
O147 O 0.96845 0.52744 0.58643 0.0
O148 O 0.978 0.54598 0.48264 0.0
C149 C 1.00057 0.52435 0.74689 0.0
O150 O 0.99041 0.55134 0.73186 0.0
O151 O 0.04305 0.54767 0.58848 0.0
C152 C 1.00227 0.4913 0.26735 0.0
O153 O 1.00451 0.4627 0.28384 0.0
O154 O 0.99931 0.5147 0.31803 0.0
O155 O 0.0414 0.49106 0.42822 0.0
O156 O 0.03058 0.47173 0.53055 0.0
O157 O 0.96729 0.46995 0.42563 0.0
C158 C 0.96212 0.54681 0.54481 0.0
C159 C 0.04667 0.47082 0.46862 0.0
H160 H 0.06216 0.10593 0.53585 0.0
H161 H 0.10551 0.03465 0.36385 0.0
H162 H 0.10337 0.14239 0.5036 0.0
H163 H 0.14649 0.07101 0.33214 0.0
H164 H 0.23314 0.13336 0.36405 0.0
H165 H 0.19133 0.09713 0.39217 0.0
H166 H 0.1215 0.17083 0.39533 0.0
H167 H 0.16329 0.20717 0.36695 0.0
C168 C 0.08047 0.09803 0.49139 0.0
C169 C 0.08061 0.06741 0.45254 0.0
C170 C 0.10389 0.11894 0.47267 0.0
C171 C 0.12805 0.10946 0.41538 0.0
C172 C 0.12827 0.07882 0.37688 0.0
C173 C 0.10472 0.05807 0.39498 0.0
C174 C 0.20887 0.14177 0.37018 0.0
C175 C 0.20149 0.17308 0.36328 0.0
C176 C 0.18496 0.12102 0.38611 0.0
C177 C 0.15324 0.13127 0.39626 0.0
C178 C 0.14581 0.16246 0.3885 0.0
C179 C 0.16971 0.18313 0.37166 0.0
H180 H 0.07598 0.92205 0.5445 0.0
H181 H 0.13561 0.99494 0.63183 0.0
H182 H 0.11384 0.88185 0.56327 0.0
H183 H 0.17285 0.95501 0.65182 0.0
H184 H 0.24853 0.87695 0.6041 0.0
H185 H 0.21048 0.91607 0.58409 0.0
H186 H 0.13441 0.85958 0.66283 0.0
H187 H 0.17275 0.8198 0.68162 0.0
C188 C 0.09722 0.9295 0.56722 0.0
C189 C 0.10283 0.96171 0.58636 0.0
C190 C 0.11873 0.90647 0.57871 0.0
C191 C 0.14634 0.9152 0.60926 0.0
C192 C 0.15204 0.94743 0.62741 0.0
C193 C 0.13059 0.97036 0.61609 0.0
C194 C 0.22371 0.87286 0.61762 0.0
C195 C 0.2137 0.84523 0.64462 0.0
C196 C 0.20186 0.8954 0.60633 0.0
C197 C 0.16937 0.89099 0.62177 0.0
C198 C 0.15928 0.86351 0.64953 0.0
C199 C 0.18123 0.84088 0.661 0.0
H200 H 0.30648 0.82802 0.90074 0.0
H201 H 0.34122 0.82246 0.67285 0.0
H202 H 0.34367 0.8694 0.9301 0.0
H203 H 0.37822 0.86407 0.7024 0.0
H204 H 0.40682 0.9661 0.78119 0.0
H205 H 0.3723 0.92244 0.75323 0.0
H206 H 0.4035 0.87735 0.92389 0.0
H207 H 0.4386 0.92119 0.95178 0.0
C208 C 0.32207 0.83559 0.85689 0.0
C209 C 0.32078 0.822 0.78435 0.0
C210 C 0.34352 0.85914 0.87385 0.0
C211 C 0.36383 0.87002 0.8186 0.0
C212 C 0.3627 0.85631 0.74612 0.0
C213 C 0.3416 0.8324 0.72923 0.0
C214 C 0.40638 0.94695 0.813 0.0
C215 C 0.42546 0.94721 0.86892 0.0
C216 C 0.38673 0.9218 0.79651 0.0
C217 C 0.38527 0.8964 0.8361 0.0
C218 C 0.40406 0.89669 0.89261 0.0
C219 C 0.42419 0.92172 0.90845 0.0
H220 H 0.43154 0.06333 0.18499 0.0
H221 H 0.43741 0.08754 0.96824 0.0
H222 H 0.3897 0.10327 0.22632 0.0
H223 H 0.39568 0.12771 0.00998 0.0
H224 H 0.29705 0.17199 0.09639 0.0
H225 H 0.33847 0.13155 0.05457 0.0
H226 H 0.38306 0.16142 0.2463 0.0
H227 H 0.34155 0.2017 0.28855 0.0
C228 C 0.42391 0.07714 0.14609 0.0
C229 C 0.43787 0.07219 0.07322 0.0
C230 C 0.40006 0.10018 0.16996 0.0
C231 C 0.38939 0.1187 0.12149 0.0
C232 C 0.40317 0.11363 0.04853 0.0
C233 C 0.42722 0.09073 0.02472 0.0
C234 C 0.31563 0.1699 0.12977 0.0
C235 C 0.31594 0.19008 0.19591 0.0
C236 C 0.33948 0.14685 0.10552 0.0
C237 C 0.36406 0.14327 0.14709 0.0
C238 C 0.36428 0.16335 0.21337 0.0
C239 C 0.34057 0.18656 0.23737 0.0
H240 H 0.94832 0.93058 0.41145 0.0
H241 H 0.94264 0.96728 0.64005 0.0
H242 H 0.90482 0.89574 0.4381 0.0
H243 H 0.89941 0.93245 0.66633 0.0
H244 H 0.8483 0.83874 0.68544 0.0
H245 H 0.89203 0.8731 0.65835 0.0
H246 H 0.84602 0.90327 0.48711 0.0
H247 H 0.80218 0.86908 0.5142 0.0
C248 C 0.9379 0.9311 0.46728 0.0
C249 C 0.94885 0.95166 0.52364 0.0
C250 C 0.91293 0.91134 0.48242 0.0
C251 C 0.89884 0.91148 0.55424 0.0
C252 C 0.91004 0.93174 0.61058 0.0
C253 C 0.93466 0.95177 0.59541 0.0
C254 C 0.84747 0.85278 0.64219 0.0
C255 C 0.82179 0.8513 0.60207 0.0
C256 C 0.87243 0.87247 0.62686 0.0
C257 C 0.87237 0.8907 0.57054 0.0
C258 C 0.84674 0.8892 0.53036 0.0
C259 C 0.82158 0.86983 0.54629 0.0
H260 H 0.89578 0.023 0.35198 0.0
H261 H 0.95459 0.09773 0.43426 0.0
H262 H 0.85605 0.06171 0.33849 0.0
H263 H 0.9142 0.13676 0.42189 0.0
H264 H 0.84831 0.19668 0.31305 0.0
H265 H 0.88946 0.15866 0.32634 0.0
H266 H 0.81835 0.09886 0.41341 0.0
H267 H 0.77748 0.13623 0.39899 0.0
C268 C 0.90014 0.04772 0.36785 0.0
C269 C 0.92837 0.05725 0.39438 0.0
C270 C 0.87725 0.06995 0.36032 0.0
C271 C 0.88191 0.10235 0.37914 0.0
C272 C 0.91006 0.11198 0.40616 0.0
C273 C 0.93304 0.08963 0.41391 0.0
C274 C 0.84151 0.17527 0.33444 0.0
C275 C 0.8096 0.16942 0.35459 0.0
C276 C 0.86509 0.15366 0.34272 0.0
C277 C 0.85719 0.12573 0.37097 0.0
C278 C 0.82526 0.11991 0.39062 0.0
C279 C 0.80179 0.14144 0.38251 0.0
H280 H 0.68022 0.18497 0.32897 0.0
H281 H 0.7103 0.18521 0.10059 0.0
H282 H 0.64384 0.14289 0.29834 0.0
H283 H 0.67364 0.14341 0.07021 0.0
H284 H 0.57735 0.09206 0.05575 0.0
H285 H 0.61337 0.13512 0.08299 0.0
H286 H 0.65031 0.08507 0.23899 0.0
H287 H 0.6149 0.0421 0.21147 0.0
C288 C 0.67896 0.17619 0.27229 0.0
C289 C 0.69826 0.18839 0.21729 0.0
C290 C 0.65823 0.152 0.25477 0.0
C291 C 0.65592 0.13984 0.18185 0.0
C292 C 0.67475 0.15244 0.12682 0.0
C293 C 0.69588 0.17624 0.14433 0.0
C294 C 0.59331 0.09019 0.09547 0.0
C295 C 0.59327 0.06358 0.13125 0.0
C296 C 0.61394 0.1148 0.11097 0.0
C297 C 0.6345 0.11354 0.1635 0.0
C298 C 0.63451 0.08688 0.19887 0.0
C299 C 0.61434 0.06214 0.18259 0.0
H300 H 0.68775 0.83915 0.71324 0.0
H301 H 0.68106 0.81227 0.92742 0.0
H302 H 0.64747 0.8803 0.75728 0.0
H303 H 0.64184 0.85426 0.97244 0.0
H304 H 0.54981 0.91154 0.01624 0.0
H305 H 0.58938 0.86983 0.97096 0.0
H306 H 0.63728 0.92976 0.82859 0.0
H307 H 0.59683 0.97081 0.87156 0.0
C308 C 0.67788 0.84221 0.76995 0.0
C309 C 0.68756 0.8223 0.81669 0.0
C310 C 0.65487 0.866 0.79544 0.0
C311 C 0.64124 0.8708 0.86864 0.0
C312 C 0.65122 0.85099 0.91545 0.0
C313 C 0.67392 0.82695 0.88971 0.0
C314 C 0.5688 0.91579 0.97526 0.0
C315 C 0.57012 0.94451 0.94751 0.0
C316 C 0.59168 0.89191 0.94952 0.0
C317 C 0.61673 0.89627 0.89599 0.0
C318 C 0.61811 0.92518 0.86877 0.0
C319 C 0.595 0.94889 0.89384 0.0
H320 H 0.58021 0.51729 0.88126 0.0
H321 H 0.54237 0.58849 0.05964 0.0
H322 H 0.62122 0.55286 0.84496 0.0
H323 H 0.58359 0.6241 0.02298 0.0
H324 H 0.64197 0.68861 0.88434 0.0
H325 H 0.59989 0.6532 0.91626 0.0
H326 H 0.66838 0.57693 0.89807 0.0
H327 H 0.71053 0.61224 0.86615 0.0
C328 C 0.58061 0.54053 0.91274 0.0
C329 C 0.55809 0.55006 0.97351 0.0
C330 C 0.60419 0.56082 0.89204 0.0
C331 C 0.60557 0.59116 0.93122 0.0
C332 C 0.58287 0.60089 0.99149 0.0
C333 C 0.55942 0.58046 0.01268 0.0
C334 C 0.64804 0.66423 0.88662 0.0
C335 C 0.67957 0.65319 0.87277 0.0
C336 C 0.62397 0.64407 0.9054 0.0
C337 C 0.63093 0.61241 0.90986 0.0
C338 C 0.66236 0.6012 0.89453 0.0
C339 C 0.68647 0.62143 0.87652 0.0
H340 H 0.67194 0.3163 0.20626 0.0
H341 H 0.74466 0.37731 0.13109 0.0
H342 H 0.63176 0.3541 0.18776 0.0
H343 H 0.70462 0.41465 0.11136 0.0
H344 H 0.62392 0.48874 0.15698 0.0
H345 H 0.6642 0.45168 0.17688 0.0
H346 H 0.61075 0.37402 0.08661 0.0
H347 H 0.57001 0.41116 0.0679 0.0
C348 C 0.67936 0.33785 0.18634 0.0
C349 C 0.71151 0.34379 0.17022 0.0
C350 C 0.65634 0.35936 0.17499 0.0
C351 C 0.66498 0.38729 0.14755 0.0
C352 C 0.69714 0.39351 0.1331 0.0
C353 C 0.72011 0.37202 0.14427 0.0
C354 C 0.62083 0.46378 0.14077 0.0
C355 C 0.59371 0.45292 0.11087 0.0
C356 C 0.64399 0.44252 0.15207 0.0
C357 C 0.64062 0.40987 0.13379 0.0
C358 C 0.61381 0.39901 0.10241 0.0
C359 C 0.59063 0.42031 0.09096 0.0
H360 H 0.95485 0.41087 0.38817 0.0
H361 H 0.87582 0.47629 0.40742 0.0
H362 H 0.92044 0.3669 0.35775 0.0
H363 H 0.84161 0.4325 0.37722 0.0
H364 H 0.78402 0.34408 0.39541 0.0
H365 H 0.81933 0.38622 0.42988 0.0
H366 H 0.88973 0.3464 0.25412 0.0
H367 H 0.85426 0.30395 0.2192 0.0
C368 C 0.93011 0.41585 0.38668 0.0
C369 C 0.91807 0.44711 0.40042 0.0
C370 C 0.91047 0.3907 0.3686 0.0
C371 C 0.87831 0.39621 0.36488 0.0
C372 C 0.86621 0.42741 0.38018 0.0
C373 C 0.88586 0.45253 0.39732 0.0
C374 C 0.80701 0.34421 0.3639 0.0
C375 C 0.81621 0.32063 0.30422 0.0
C376 C 0.82722 0.36848 0.38364 0.0
C377 C 0.85731 0.36972 0.34471 0.0
C378 C 0.86677 0.34595 0.28558 0.0
C379 C 0.84637 0.32176 0.26528 0.0
H380 H 0.79538 0.65673 0.76318 0.0
H381 H 0.83961 0.71478 0.61194 0.0
H382 H 0.83617 0.61598 0.72041 0.0
H383 H 0.8811 0.67462 0.57115 0.0
H384 H 0.93455 0.58454 0.46329 0.0
H385 H 0.89227 0.62398 0.50378 0.0
H386 H 0.8897 0.60353 0.7232 0.0
H387 H 0.93103 0.56325 0.68202 0.0
C388 C 0.81395 0.66093 0.7212 0.0
C389 C 0.81416 0.68907 0.69105 0.0
C390 C 0.83751 0.63759 0.69688 0.0
C391 C 0.86211 0.64189 0.64227 0.0
C392 C 0.86231 0.67013 0.61234 0.0
C393 C 0.83858 0.69333 0.63613 0.0
C394 C 0.92492 0.58844 0.52016 0.0
C395 C 0.93625 0.57074 0.56938 0.0
C396 C 0.90075 0.61123 0.54356 0.0
C397 C 0.8875 0.61716 0.61696 0.0
C398 C 0.89888 0.59936 0.66609 0.0
C399 C 0.9228 0.57634 0.64253 0.0
H400 H 0.27427 0.36587 0.08859 0.0
H401 H 0.33412 0.3136 0.20122 0.0
H402 H 0.3176 0.40032 0.06034 0.0
H403 H 0.37749 0.34809 0.17255 0.0
H404 H 0.43538 0.43826 0.17024 0.0
H405 H 0.39185 0.40464 0.20193 0.0
H406 H 0.3699 0.39423 0.98141 0.0
H407 H 0.41342 0.42806 0.9494 0.0
C408 C 0.29658 0.36187 0.10781 0.0
C409 C 0.3008 0.33699 0.14707 0.0
C410 C 0.32144 0.38145 0.09109 0.0
C411 C 0.35092 0.37671 0.11379 0.0
C412 C 0.35493 0.35236 0.1547 0.0
C413 C 0.33014 0.3326 0.17097 0.0
C414 C 0.42132 0.4288 0.12838 0.0
C415 C 0.42785 0.43585 0.05723 0.0
C416 C 0.3965 0.40943 0.14656 0.0
C417 C 0.3775 0.39692 0.0942 0.0
C418 C 0.38401 0.40386 0.02303 0.0
C419 C 0.40904 0.42303 0.00461 0.0
H420 H 0.44791 0.58048 0.87833 0.0
H421 H 0.36813 0.54303 0.9993 0.0
H422 H 0.41322 0.61929 0.84255 0.0
H423 H 0.33365 0.58256 0.9665 0.0
H424 H 0.27384 0.62959 0.83187 0.0
H425 H 0.31118 0.59252 0.86382 0.0
H426 H 0.38035 0.66523 0.87796 0.0
H427 H 0.34321 0.70194 0.84286 0.0
C428 C 0.42306 0.58104 0.89869 0.0
C429 C 0.41069 0.55859 0.94128 0.0
C430 C 0.40313 0.6033 0.87815 0.0
C431 C 0.37045 0.6038 0.90048 0.0
C432 C 0.35849 0.58232 0.94629 0.0
C433 C 0.37831 0.55985 0.96589 0.0
C434 C 0.29718 0.63752 0.84082 0.0
C435 C 0.30556 0.66866 0.83489 0.0
C436 C 0.31852 0.61638 0.86005 0.0
C437 C 0.34868 0.62596 0.87502 0.0
C438 C 0.35745 0.65689 0.86653 0.0
C439 C 0.33616 0.67797 0.84632 0.0
H440 H 0.22992 0.66886 0.60775 0.0
H441 H 0.1623 0.71024 0.78819 0.0
H442 H 0.1932 0.62772 0.57558 0.0
H443 H 0.12541 0.66882 0.75554 0.0
H444 H 0.05715 0.60644 0.62592 0.0
H445 H 0.09297 0.64943 0.65414 0.0
H446 H 0.1704 0.58184 0.62947 0.0
H447 H 0.1348 0.53902 0.60154 0.0
C448 C 0.20721 0.66923 0.64066 0.0
C449 C 0.19916 0.69286 0.70086 0.0
C450 C 0.18619 0.64553 0.62224 0.0
C451 C 0.1564 0.64494 0.66302 0.0
C452 C 0.1481 0.66877 0.72267 0.0
C453 C 0.16931 0.69237 0.74166 0.0
C454 C 0.08188 0.6008 0.62584 0.0
C455 C 0.09311 0.56928 0.61132 0.0
C456 C 0.10233 0.62541 0.64264 0.0
C457 C 0.13452 0.61905 0.64422 0.0
C458 C 0.1458 0.58758 0.62815 0.0
C459 C 0.12535 0.56301 0.61233 0.0
H460 H 0.16215 0.3121 0.22775 0.0
H461 H 0.20731 0.34 0.41976 0.0
H462 H 0.12242 0.35434 0.26915 0.0
H463 H 0.16777 0.38223 0.46066 0.0
H464 H 0.07082 0.42976 0.5476 0.0
H465 H 0.11066 0.38787 0.50512 0.0
H466 H 0.11831 0.41314 0.28936 0.0
H467 H 0.07827 0.45497 0.33159 0.0
C468 C 0.16363 0.32722 0.27871 0.0
C469 C 0.1879 0.32262 0.32044 0.0
C470 C 0.14098 0.35154 0.30219 0.0
C471 C 0.14194 0.37161 0.36822 0.0
C472 C 0.16619 0.36697 0.40992 0.0
C473 C 0.18896 0.34286 0.38621 0.0
C474 C 0.08098 0.42643 0.4911 0.0
C475 C 0.07135 0.44576 0.44304 0.0
C476 C 0.10395 0.40252 0.46686 0.0
C477 C 0.11764 0.39719 0.39387 0.0
C478 C 0.10799 0.41646 0.34575 0.0
C479 C 0.0852 0.44057 0.37012 0.0
H480 H 0.01267 0.05474 0.81906 0.0
H481 H 0.01536 0.95306 0.79785 0.0
H482 H 0.01539 0.05801 0.94919 0.0
H483 H 0.01931 0.95622 0.92651 0.0
H484 H 0.99523 0.97164 0.17223 0.0
H485 H 0.99089 0.9689 0.04325 0.0
H486 H 0.05017 0.04961 0.03401 0.0
H487 H 0.05346 0.05298 0.16346 0.0
C488 C 0.01393 0.03311 0.8421 0.0
C489 C 0.01367 1.00367 0.79808 0.0
C490 C 0.01574 0.03494 0.91665 0.0
C491 C 0.01762 0.00736 0.94872 0.0
C492 C 0.01733 0.97798 0.90434 0.0
C493 C 0.01523 0.97617 0.8302 0.0
C494 C 0.00749 0.98866 0.14251 0.0
C495 C 0.02471 0.01249 0.17812 0.0
C496 C 1.00508 0.98707 0.06839 0.0
C497 C 0.02011 0.00909 0.02784 0.0
C498 C 0.03775 0.03262 0.0635 0.0
C499 C 0.03989 0.03438 0.13772 0.0
H500 H 0.21477 0.72121 0.41464 0.0
H501 H 0.29844 0.77614 0.42747 0.0
H502 H 0.21824 0.72386 0.28525 0.0
H503 H 0.30132 0.77984 0.29847 0.0
H504 H 0.31597 0.75402 0.0529 0.0
H505 H 0.31274 0.75046 0.18141 0.0
H506 H 0.21119 0.75865 0.20083 0.0
H507 H 0.21448 0.761 0.07081 0.0
C508 C 0.23391 0.73392 0.38981 0.0
C509 C 0.25641 0.74837 0.43134 0.0
C510 C 0.23573 0.7357 0.31561 0.0
C511 C 0.25995 0.75222 0.28108 0.0
C512 C 0.28258 0.76651 0.32274 0.0
C513 C 0.28092 0.76447 0.39687 0.0
C514 C 0.2929 0.75516 0.0845 0.0
C515 C 0.26546 0.75784 0.0515 0.0
C516 C 0.29106 0.75329 0.15856 0.0
C517 C 0.26172 0.75436 0.20199 0.0
C518 C 0.23421 0.75727 0.16902 0.0
C519 C 0.23605 0.75885 0.09454 0.0
H520 H 0.54632 0.96007 0.64776 0.0
H521 H 0.48834 0.04462 0.71951 0.0
H522 H 0.54426 0.96686 0.52173 0.0
H523 H 0.48538 0.05084 0.59377 0.0
H524 H 0.51173 0.07012 0.36262 0.0
H525 H 0.51585 0.06394 0.48786 0.0
H526 H 0.50835 0.96305 0.43297 0.0
H527 H 0.50531 0.96919 0.30689 0.0
C528 C 0.53311 0.98009 0.63662 0.0
C529 C 0.51756 1.00184 0.6936 0.0
C530 C 0.53172 0.98385 0.56436 0.0
C531 C 0.51454 0.00932 0.54749 0.0
C532 C 0.49921 0.03121 0.60467 0.0
C533 C 0.50081 0.02758 0.67686 0.0
C534 C 0.51088 0.04661 0.37727 0.0
C535 C 0.50815 0.02014 0.32485 0.0
C536 C 0.51311 0.04307 0.44924 0.0
C537 C 0.51241 0.013 0.47066 0.0
C538 C 0.50948 0.98652 0.41818 0.0
C539 C 0.50749 0.99004 0.346 0.0
H540 H 0.20843 0.24827 0.95706 0.0
H541 H 0.30932 0.25579 0.91297 0.0
H542 H 0.20374 0.25166 0.83008 0.0
H543 H 0.30462 0.26041 0.78733 0.0
H544 H 0.2897 0.2377 0.54965 0.0
H545 H 0.29413 0.23256 0.6756 0.0
H546 H 0.20732 0.28713 0.74419 0.0
H547 H 0.20237 0.29118 0.61805 0.0
C548 C 0.22959 0.25073 0.92035 0.0
C549 C 0.25924 0.25163 0.94523 0.0
C550 C 0.22691 0.25294 0.84755 0.0
C551 C 0.2538 0.25639 0.79798 0.0
C552 C 0.28342 0.25722 0.8232 0.0
C553 C 0.2861 0.25473 0.89564 0.0
C554 C 0.27165 0.24872 0.59168 0.0
C555 C 0.2457 0.26486 0.57369 0.0
C556 C 0.27422 0.24587 0.66412 0.0
C557 C 0.25105 0.25936 0.72058 0.0
C558 C 0.22532 0.27588 0.70239 0.0
C559 C 0.22262 0.27846 0.62993 0.0
H560 H 0.80352 0.25313 0.93288 0.0
H561 H 0.70197 0.25783 0.94944 0.0
H562 H 0.8069 0.25537 0.8028 0.0
H563 H 0.70528 0.26125 0.82084 0.0
H564 H 0.72044 0.23519 0.57491 0.0
H565 H 0.71755 0.23172 0.70401 0.0
H566 H 0.79909 0.2899 0.71803 0.0
H567 H 0.80256 0.29238 0.58854 0.0
C568 C 0.78195 0.25476 0.90885 0.0
C569 C 0.75251 0.25516 0.95153 0.0
C570 C 0.78385 0.25627 0.83434 0.0
C571 C 0.75634 0.25849 0.80096 0.0
C572 C 0.72696 0.25897 0.84403 0.0
C573 C 0.72508 0.25719 0.91814 0.0
C574 C 0.73762 0.24738 0.60568 0.0
C575 C 0.7617 0.26406 0.57141 0.0
C576 C 0.73595 0.24548 0.67988 0.0
C577 C 0.75815 0.26047 0.72179 0.0
C578 C 0.78194 0.27754 0.68746 0.0
C579 C 0.78377 0.27921 0.6132 0.0
H580 H 0.81586 0.75934 0.38773 0.0
H581 H 0.71658 0.75346 0.46078 0.0
H582 H 0.80448 0.75772 0.26361 0.0
H583 H 0.70521 0.75053 0.33595 0.0
H584 H 0.69246 0.78062 0.11862 0.0
H585 H 0.70417 0.78243 0.24284 0.0
H586 H 0.78803 0.72425 0.16433 0.0
H587 H 0.77693 0.72355 0.04011 0.0
C588 C 0.79161 0.75725 0.37711 0.0
C589 C 0.7671 0.75655 0.43402 0.0
C590 C 0.78509 0.75618 0.3058 0.0
C591 C 0.75391 0.75403 0.28962 0.0
C592 C 0.72944 0.75277 0.34656 0.0
C593 C 0.73595 0.75419 0.41805 0.0
C594 C 0.71346 0.76834 0.12797 0.0
C595 C 0.73382 0.75203 0.06964 0.0
C596 C 0.72005 0.76915 0.19923 0.0
C597 C 0.74699 0.75337 0.21376 0.0
C598 C 0.76734 0.73709 0.15518 0.0
C599 C 0.76093 0.73657 0.08391 0.0
H600 H 0.47755 0.45671 0.69767 0.0
H601 H 0.53471 0.53909 0.69369 0.0
H602 H 0.47618 0.45309 0.56744 0.0
H603 H 0.53415 0.53491 0.56301 0.0
H604 H 0.4974 0.53813 0.34523 0.0
H605 H 0.49873 0.54205 0.47598 0.0
H606 H 0.50912 0.4406 0.45392 0.0
H607 H 0.5068 0.43665 0.32437 0.0
C608 C 0.49016 0.47381 0.66883 0.0
C609 C 0.50621 0.49819 0.70595 0.0
C610 C 0.48946 0.47169 0.59411 0.0
C611 C 0.505 0.49377 0.55479 0.0
C612 C 0.52148 0.51786 0.59185 0.0
C613 C 0.52202 0.52009 0.66665 0.0
C614 C 0.49987 0.51671 0.3685 0.0
C615 C 0.50184 0.48711 0.32459 0.0
C616 C 0.50085 0.51894 0.44327 0.0
C617 C 0.50401 0.49161 0.47543 0.0
C618 C 0.50612 0.46207 0.43121 0.0
C619 C 0.50494 0.45984 0.35677 0.0
H620 H 0.97213 0.56127 0.86912 0.0
H621 H 0.02893 0.47598 0.79663 0.0
H622 H 0.97219 0.55302 0.99476 0.0
H623 H 0.02993 0.46829 0.92225 0.0
H624 H 0.99823 0.44654 0.14983 0.0
H625 H 0.99706 0.45445 0.0244 0.0
H626 H 0.00631 0.55473 0.08659 0.0
H627 H 0.00636 0.5469 0.2125 0.0
C628 C 0.98477 0.54085 0.88006 0.0
C629 C 1.00048 0.51926 0.82301 0.0
C630 C 0.98498 0.53622 0.9521 0.0
C631 C 1.00113 0.51002 0.96868 0.0
C632 C 0.01685 0.48845 0.91144 0.0
C633 C 0.01641 0.49294 0.83941 0.0
C634 C 1.00005 0.47027 0.13669 0.0
C635 C 1.00237 0.4961 0.19103 0.0
C636 C 0.99954 0.47479 0.06469 0.0
C637 C 1.00161 0.50523 0.04532 0.0
C638 C 1.00415 0.53103 0.09975 0.0
C639 C 1.00439 0.52653 0.17187 0.0
loop_
_geom_bond_atom_site_label_1
_geom_bond_atom_site_label_2
_geom_bond_distance
_geom_bond_site_symmetry_2
_ccdc_geom_bond_type
Zn0 O6 1.969 1_545 S
Zn0 O7 1.965 1_655 S
Zn0 O11 2.024 . S
Zn0 O16 1.969 1_545 S
Zn1 O8 1.969 1_565 S
Zn1 O14 1.969 1_565 S
Zn1 O15 1.965 1_455 S
Zn1 O17 2.024 . S
C2 O3 1.229 . S
C2 O11 1.058 . S
O3 C2 1.229 . S
C4 O5 1.229 . S
C4 O17 1.058 . S
O5 C4 1.229 . S
O6 Zn0 1.969 1_565 S
O6 C9 1.267 1_565 S
O7 Zn0 1.965 1_455 S
O7 C18 1.260 . S
O8 Zn1 1.969 1_545 S
O8 C18 1.258 . S
C9 O6 1.267 1_545 S
C9 O10 1.235 . S
O10 C9 1.235 . S
O11 Zn0 2.024 . S
O11 C2 1.058 . S
C12 O13 1.228 . S
C12 O14 1.267 1_565 S
O13 C12 1.228 . S
O14 Zn1 1.969 1_545 S
O14 C12 1.267 1_545 S
O15 Zn1 1.965 1_655 S
O15 C19 1.260 . S
O16 Zn0 1.969 1_565 S
O16 C19 1.258 . S
O17 Zn1 2.024 . S
O17 C4 1.058 . S
C18 O7 1.260 . S
C18 O8 1.258 . S
C19 O15 1.260 . S
C19 O16 1.258 . S
Zn20 O26 1.969 . S
Zn20 O27 1.965 . S
Zn20 O31 2.024 . S
Zn20 O36 1.969 . S
Zn21 O28 1.969 . S
Zn21 O34 1.969 . S
Zn21 O35 1.965 . S
Zn21 O37 2.024 . S
C22 O23 1.229 . S
C22 O31 1.058 . S
O23 C22 1.229 . S
C24 O25 1.229 . S
C24 O37 1.058 . S
O25 C24 1.229 . S
O26 Zn20 1.969 . S
O26 C29 1.267 . S
O27 Zn20 1.965 . S
O27 C38 1.260 . S
O28 Zn21 1.969 . S
O28 C38 1.258 . S
C29 O26 1.267 . S
C29 O30 1.228 . S
O30 C29 1.228 . S
O31 Zn20 2.024 . S
O31 C22 1.058 . S
C32 O33 1.228 . S
C32 O34 1.267 . S
O33 C32 1.228 . S
O34 Zn21 1.969 . S
O34 C32 1.267 . S
O35 Zn21 1.965 . S
O35 C39 1.260 . S
O36 Zn20 1.969 . S
O36 C39 1.258 . S
O37 Zn21 2.024 . S
O37 C24 1.058 . S
C38 O27 1.260 . S
C38 O28 1.258 . S
C39 O35 1.260 . S
C39 O36 1.258 . S
Zn40 O46 1.969 1_545 S
Zn40 O47 1.965 . S
Zn40 O51 2.024 . S
Zn40 O56 1.969 1_545 S
Zn41 O48 1.969 1_565 S
Zn41 O54 1.969 1_565 S
Zn41 O55 1.965 . S
Zn41 O57 2.024 . S
C42 O43 1.229 . S
C42 O51 1.058 . S
O43 C42 1.229 . S
C44 O45 1.229 . S
C44 O57 1.058 . S
O45 C44 1.229 . S
O46 Zn40 1.969 1_565 S
O46 C49 1.267 1_565 S
O47 Zn40 1.965 . S
O47 C58 1.260 . S
O48 Zn41 1.969 1_545 S
O48 C58 1.258 1_556 S
C49 O46 1.267 1_545 S
C49 O50 1.228 . S
O50 C49 1.228 . S
O51 Zn40 2.024 . S
O51 C42 1.058 . S
C52 O53 1.228 . S
C52 O54 1.267 1_565 S
O53 C52 1.228 . S
O54 Zn41 1.969 1_545 S
O54 C52 1.267 1_545 S
O55 Zn41 1.965 . S
O55 C59 1.260 . S
O56 Zn40 1.969 1_565 S
O56 C59 1.258 1_554 S
O57 Zn41 2.024 . S
O57 C44 1.058 . S
C58 O47 1.260 . S
C58 O48 1.258 1_554 S
C59 O55 1.260 . S
C59 O56 1.258 1_556 S
Zn60 O66 1.969 . S
Zn60 O67 1.965 . S
Zn60 O71 2.024 . S
Zn60 O76 1.969 . S
Zn61 O68 1.969 . S
Zn61 O74 1.969 . S
Zn61 O75 1.965 . S
Zn61 O77 2.024 . S
C62 O63 1.229 . S
C62 O71 1.058 . S
O63 C62 1.229 . S
C64 O65 1.229 . S
C64 O77 1.058 . S
O65 C64 1.229 . S
O66 Zn60 1.969 . S
O66 C69 1.267 . S
O67 Zn60 1.965 . S
O67 C78 1.260 . S
O68 Zn61 1.969 . S
O68 C78 1.258 . S
C69 O66 1.267 . S
C69 O70 1.228 . S
O70 C69 1.228 . S
O71 Zn60 2.024 . S
O71 C62 1.058 . S
C72 O73 1.228 . S
C72 O74 1.267 . S
O73 C72 1.228 . S
O74 Zn61 1.969 . S
O74 C72 1.267 . S
O75 Zn61 1.965 . S
O75 C79 1.260 . S
O76 Zn60 1.969 . S
O76 C79 1.258 . S
O77 Zn61 2.024 . S
O77 C64 1.058 . S
C78 O67 1.260 . S
C78 O68 1.258 . S
C79 O75 1.260 . S
C79 O76 1.258 . S
Zn80 O86 1.969 . S
Zn80 O87 1.965 . S
Zn80 O91 2.024 . S
Zn80 O96 1.969 . S
Zn81 O88 1.969 . S
Zn81 O94 1.969 . S
Zn81 O95 1.965 . S
Zn81 O97 2.024 . S
C82 O83 1.229 . S
C82 O91 1.058 . S
O83 C82 1.229 . S
C84 O85 1.229 . S
C84 O97 1.058 . S
O85 C84 1.229 . S
O86 Zn80 1.969 . S
O86 C89 1.267 . S
O87 Zn80 1.965 . S
O87 C98 1.260 . S
O88 Zn81 1.969 . S
O88 C98 1.258 . S
C89 O86 1.267 . S
C89 O90 1.228 . S
O90 C89 1.228 . S
O91 Zn80 2.024 . S
O91 C82 1.058 . S
C92 O93 1.228 . S
C92 O94 1.267 . S
O93 C92 1.228 . S
O94 Zn81 1.969 . S
O94 C92 1.267 . S
O95 Zn81 1.965 . S
O95 C99 1.260 . S
O96 Zn80 1.969 . S
O96 C99 1.258 . S
O97 Zn81 2.024 . S
O97 C84 1.058 . S
C98 O87 1.260 . S
C98 O88 1.258 . S
C99 O95 1.260 . S
C99 O96 1.258 . S
Zn100 O106 1.969 . S
Zn100 O107 1.965 . S
Zn100 O111 2.024 . S
Zn100 O116 1.969 . S
Zn101 O108 1.969 . S
Zn101 O114 1.969 . S
Zn101 O115 1.965 . S
Zn101 O117 2.024 . S
C102 O103 1.229 . S
C102 O111 1.058 . S
O103 C102 1.229 . S
C104 O105 1.229 . S
C104 O117 1.058 . S
O105 C104 1.229 . S
O106 Zn100 1.969 . S
O106 C109 1.267 . S
O107 Zn100 1.965 . S
O107 C118 1.260 . S
O108 Zn101 1.969 . S
O108 C118 1.258 . S
C109 O106 1.267 . S
C109 O110 1.228 . S
O110 C109 1.228 . S
O111 Zn100 2.024 . S
O111 C102 1.058 . S
C112 O113 1.228 . S
C112 O114 1.267 . S
O113 C112 1.228 . S
O114 Zn101 1.969 . S
O114 C112 1.267 . S
O115 Zn101 1.965 . S
O115 C119 1.260 . S
O116 Zn100 1.969 . S
O116 C119 1.258 . S
O117 Zn101 2.024 . S
O117 C104 1.058 . S
C118 O107 1.260 . S
C118 O108 1.258 . S
C119 O115 1.260 . S
C119 O116 1.258 . S
Zn120 O126 1.969 . S
Zn120 O127 1.965 . S
Zn120 O131 2.024 . S
Zn120 O136 1.969 . S
Zn121 O128 1.969 . S
Zn121 O134 1.969 . S
Zn121 O135 1.965 . S
Zn121 O137 2.024 . S
C122 O123 1.229 . S
C122 O131 1.058 . S
O123 C122 1.229 . S
C124 O125 1.229 . S
C124 O137 1.058 . S
O125 C124 1.229 . S
O126 Zn120 1.969 . S
O126 C129 1.267 . S
O127 Zn120 1.965 . S
O127 C138 1.260 . S
O128 Zn121 1.969 . S
O128 C138 1.258 1_554 S
C129 O126 1.267 . S
C129 O130 1.228 . S
O130 C129 1.228 . S
O131 Zn120 2.024 . S
O131 C122 1.058 . S
C132 O133 1.228 . S
C132 O134 1.267 . S
O133 C132 1.228 . S
O134 Zn121 1.969 . S
O134 C132 1.267 . S
O135 Zn121 1.965 . S
O135 C139 1.260 . S
O136 Zn120 1.969 . S
O136 C139 1.258 1_556 S
O137 Zn121 2.024 . S
O137 C124 1.058 . S
C138 O127 1.260 . S
C138 O128 1.258 1_556 S
C139 O135 1.260 . S
C139 O136 1.258 1_554 S
Zn140 O146 1.969 . S
Zn140 O147 1.965 1_455 S
Zn140 O151 2.024 . S
Zn140 O156 1.969 . S
Zn141 O148 1.969 . S
Zn141 O154 1.969 . S
Zn141 O155 1.965 1_655 S
Zn141 O157 2.024 . S
C142 O143 1.229 . S
C142 O151 1.058 . S
O143 C142 1.229 . S
C144 O145 1.229 . S
C144 O157 1.058 . S
O145 C144 1.229 . S
O146 Zn140 1.969 . S
O146 C149 1.267 . S
O147 Zn140 1.965 1_655 S
O147 C158 1.260 . S
O148 Zn141 1.969 . S
O148 C158 1.258 . S
C149 O146 1.267 . S
C149 O150 1.233 . S
O150 C149 1.233 . S
O151 Zn140 2.024 . S
O151 C142 1.058 . S
C152 O153 1.231 . S
C152 O154 1.267 . S
O153 C152 1.231 . S
O154 Zn141 1.969 . S
O154 C152 1.267 . S
O155 Zn141 1.965 1_455 S
O155 C159 1.260 . S
O156 Zn140 1.969 . S
O156 C159 1.258 . S
O157 Zn141 2.024 . S
O157 C144 1.058 . S
C158 O147 1.260 . S
C158 O148 1.258 . S
C159 O155 1.260 . S
C159 O156 1.258 . S
H160 C168 0.950 . S
H161 C173 0.950 . S
H162 C170 0.950 . S
H163 C172 0.950 . S
H164 C174 0.950 . S
H165 C176 0.950 . S
H166 C178 0.950 . S
H167 C179 0.950 . S
C168 H160 0.950 . S
C168 C169 1.386 . S
C168 C170 1.391 . S
C169 C168 1.386 . S
C169 C173 1.393 . S
C170 H162 0.950 . S
C170 C168 1.391 . S
C170 C171 1.400 . S
C171 C170 1.400 . S
C171 C172 1.398 . S
C171 C177 1.491 . S
C172 H163 0.950 . S
C172 C171 1.398 . S
C172 C173 1.391 . S
C173 H161 0.950 . S
C173 C169 1.393 . S
C173 C172 1.391 . S
C174 H164 0.950 . S
C174 C175 1.386 . S
C174 C176 1.391 . S
C175 C174 1.386 . S
C175 C179 1.393 . S
C176 H165 0.950 . S
C176 C174 1.391 . S
C176 C177 1.400 . S
C177 C171 1.491 . S
C177 C176 1.400 . S
C177 C178 1.398 . S
C178 H166 0.950 . S
C178 C177 1.398 . S
C178 C179 1.391 . S
C179 H167 0.950 . S
C179 C175 1.393 . S
C179 C178 1.391 . S
H180 C188 0.950 . S
H181 C193 0.950 . S
H182 C190 0.950 . S
H183 C192 0.950 . S
H184 C194 0.950 . S
H185 C196 0.950 . S
H186 C198 0.950 . S
H187 C199 0.950 . S
C188 H180 0.950 . S
C188 C189 1.386 . S
C188 C190 1.391 . S
C189 C188 1.386 . S
C189 C193 1.393 . S
C190 H182 0.950 . S
C190 C188 1.391 . S
C190 C191 1.400 . S
C191 C190 1.400 . S
C191 C192 1.398 . S
C191 C197 1.491 . S
C192 H183 0.950 . S
C192 C191 1.398 . S
C192 C193 1.391 . S
C193 H181 0.950 . S
C193 C189 1.393 . S
C193 C192 1.391 . S
C194 H184 0.950 . S
C194 C195 1.386 . S
C194 C196 1.391 . S
C195 C194 1.386 . S
C195 C199 1.393 . S
C196 H185 0.950 . S
C196 C194 1.391 . S
C196 C197 1.400 . S
C197 C191 1.491 . S
C197 C196 1.400 . S
C197 C198 1.398 . S
C198 H186 0.950 . S
C198 C197 1.398 . S
C198 C199 1.391 . S
C199 H187 0.950 . S
C199 C195 1.393 . S
C199 C198 1.391 . S
H200 C208 0.950 . S
H201 C213 0.950 . S
H202 C210 0.950 . S
H203 C212 0.950 . S
H204 C214 0.950 . S
H205 C216 0.950 . S
H206 C218 0.950 . S
H207 C219 0.950 . S
C208 H200 0.950 . S
C208 C209 1.386 . S
C208 C210 1.391 . S
C209 C208 1.386 . S
C209 C213 1.393 . S
C210 H202 0.950 . S
C210 C208 1.391 . S
C210 C211 1.400 . S
C211 C210 1.400 . S
C211 C212 1.398 . S
C211 C217 1.491 . S
C212 H203 0.950 . S
C212 C211 1.398 . S
C212 C213 1.391 . S
C213 H201 0.950 . S
C213 C209 1.393 . S
C213 C212 1.391 . S
C214 H204 0.950 . S
C214 C215 1.386 . S
C214 C216 1.391 . S
C215 C214 1.386 . S
C215 C219 1.393 . S
C216 H205 0.950 . S
C216 C214 1.391 . S
C216 C217 1.400 . S
C217 C211 1.491 . S
C217 C216 1.400 . S
C217 C218 1.398 . S
C218 H206 0.950 . S
C218 C217 1.398 . S
C218 C219 1.391 . S
C219 H207 0.950 . S
C219 C215 1.393 . S
C219 C218 1.391 . S
H220 C228 0.950 . S
H221 C233 0.950 . S
H222 C230 0.950 . S
H223 C232 0.950 . S
H224 C234 0.950 . S
H225 C236 0.950 . S
H226 C238 0.950 . S
H227 C239 0.950 . S
C228 H220 0.950 . S
C228 C229 1.386 . S
C228 C230 1.391 . S
C229 C228 1.386 . S
C229 C233 1.393 . S
C230 H222 0.950 . S
C230 C228 1.391 . S
C230 C231 1.400 . S
C231 C230 1.400 . S
C231 C232 1.398 . S
C231 C237 1.491 . S
C232 H223 0.950 . S
C232 C231 1.398 . S
C232 C233 1.391 . S
C233 H221 0.950 . S
C233 C229 1.393 . S
C233 C232 1.391 . S
C234 H224 0.950 . S
C234 C235 1.386 . S
C234 C236 1.391 . S
C235 C234 1.386 . S
C235 C239 1.393 . S
C236 H225 0.950 . S
C236 C234 1.391 . S
C236 C237 1.400 . S
C237 C231 1.491 . S
C237 C236 1.400 . S
C237 C238 1.398 . S
C238 H226 0.950 . S
C238 C237 1.398 . S
C238 C239 1.391 . S
C239 H227 0.950 . S
C239 C235 1.393 . S
C239 C238 1.391 . S
H240 C248 0.950 . S
H241 C253 0.950 . S
H242 C250 0.950 . S
H243 C252 0.950 . S
H244 C254 0.950 . S
H245 C256 0.950 . S
H246 C258 0.950 . S
H247 C259 0.950 . S
C248 H240 0.950 . S
C248 C249 1.386 . S
C248 C250 1.391 . S
C249 C248 1.386 . S
C249 C253 1.393 . S
C250 H242 0.950 . S
C250 C248 1.391 . S
C250 C251 1.400 . S
C251 C250 1.400 . S
C251 C252 1.398 . S
C251 C257 1.491 . S
C252 H243 0.950 . S
C252 C251 1.398 . S
C252 C253 1.391 . S
C253 H241 0.950 . S
C253 C249 1.393 . S
C253 C252 1.391 . S
C254 H244 0.950 . S
C254 C255 1.386 . S
C254 C256 1.391 . S
C255 C254 1.386 . S
C255 C259 1.393 . S
C256 H245 0.950 . S
C256 C254 1.391 . S
C256 C257 1.400 . S
C257 C251 1.491 . S
C257 C256 1.400 . S
C257 C258 1.398 . S
C258 H246 0.950 . S
C258 C257 1.398 . S
C258 C259 1.391 . S
C259 H247 0.950 . S
C259 C255 1.393 . S
C259 C258 1.391 . S
H260 C268 0.950 . S
H261 C273 0.950 . S
H262 C270 0.950 . S
H263 C272 0.950 . S
H264 C274 0.950 . S
H265 C276 0.950 . S
H266 C278 0.950 . S
H267 C279 0.950 . S
C268 H260 0.950 . S
C268 C269 1.386 . S
C268 C270 1.391 . S
C269 C268 1.386 . S
C269 C273 1.393 . S
C270 H262 0.950 . S
C270 C268 1.391 . S
C270 C271 1.400 . S
C271 C270 1.400 . S
C271 C272 1.398 . S
C271 C277 1.491 . S
C272 H263 0.950 . S
C272 C271 1.398 . S
C272 C273 1.391 . S
C273 H261 0.950 . S
C273 C269 1.393 . S
C273 C272 1.391 . S
C274 H264 0.950 . S
C274 C275 1.386 . S
C274 C276 1.391 . S
C275 C274 1.386 . S
C275 C279 1.393 . S
C276 H265 0.950 . S
C276 C274 1.391 . S
C276 C277 1.400 . S
C277 C271 1.491 . S
C277 C276 1.400 . S
C277 C278 1.398 . S
C278 H266 0.950 . S
C278 C277 1.398 . S
C278 C279 1.391 . S
C279 H267 0.950 . S
C279 C275 1.393 . S
C279 C278 1.391 . S
H280 C288 0.950 . S
H281 C293 0.950 . S
H282 C290 0.950 . S
H283 C292 0.950 . S
H284 C294 0.950 1_556 S
H285 C296 0.950 . S
H286 C298 0.950 . S
H287 C299 0.950 . S
C288 H280 0.950 . S
C288 C289 1.386 . S
C288 C290 1.391 . S
C289 C288 1.386 . S
C289 C293 1.393 . S
C290 H282 0.950 . S
C290 C288 1.391 . S
C290 C291 1.400 . S
C291 C290 1.400 . S
C291 C292 1.398 . S
C291 C297 1.491 . S
C292 H283 0.950 . S
C292 C291 1.398 . S
C292 C293 1.391 . S
C293 H281 0.950 . S
C293 C289 1.393 . S
C293 C292 1.391 . S
C294 H284 0.950 1_554 S
C294 C295 1.386 . S
C294 C296 1.391 . S
C295 C294 1.386 . S
C295 C299 1.393 . S
C296 H285 0.950 . S
C296 C294 1.391 . S
C296 C297 1.400 . S
C297 C291 1.491 . S
C297 C296 1.400 . S
C297 C298 1.398 . S
C298 H286 0.950 . S
C298 C297 1.398 . S
C298 C299 1.391 . S
C299 H287 0.950 . S
C299 C295 1.393 . S
C299 C298 1.391 . S
H300 C308 0.950 . S
H301 C313 0.950 . S
H302 C310 0.950 . S
H303 C312 0.950 . S
H304 C314 0.950 1_554 S
H305 C316 0.950 . S
H306 C318 0.950 . S
H307 C319 0.950 . S
C308 H300 0.950 . S
C308 C309 1.386 . S
C308 C310 1.391 . S
C309 C308 1.386 . S
C309 C313 1.393 . S
C310 H302 0.950 . S
C310 C308 1.391 . S
C310 C311 1.400 . S
C311 C310 1.400 . S
C311 C312 1.398 . S
C311 C317 1.491 . S
C312 H303 0.950 . S
C312 C311 1.398 . S
C312 C313 1.391 . S
C313 H301 0.950 . S
C313 C309 1.393 . S
C313 C312 1.391 . S
C314 H304 0.950 1_556 S
C314 C315 1.386 . S
C314 C316 1.391 . S
C315 C314 1.386 . S
C315 C319 1.393 . S
C316 H305 0.950 . S
C316 C314 1.391 . S
C316 C317 1.400 . S
C317 C311 1.491 . S
C317 C316 1.400 . S
C317 C318 1.398 . S
C318 H306 0.950 . S
C318 C317 1.398 . S
C318 C319 1.391 . S
C319 H307 0.950 . S
C319 C315 1.393 . S
C319 C318 1.391 . S
H320 C328 0.950 . S
H321 C333 0.950 . S
H322 C330 0.950 . S
H323 C332 0.950 . S
H324 C334 0.950 . S
H325 C336 0.950 . S
H326 C338 0.950 . S
H327 C339 0.950 . S
C328 H320 0.950 . S
C328 C329 1.386 . S
C328 C330 1.391 . S
C329 C328 1.386 . S
C329 C333 1.393 . S
C330 H322 0.950 . S
C330 C328 1.391 . S
C330 C331 1.400 . S
C331 C330 1.400 . S
C331 C332 1.398 . S
C331 C337 1.491 . S
C332 H323 0.950 . S
C332 C331 1.398 . S
C332 C333 1.391 . S
C333 H321 0.950 . S
C333 C329 1.393 . S
C333 C332 1.391 . S
C334 H324 0.950 . S
C334 C335 1.386 . S
C334 C336 1.391 . S
C335 C334 1.386 . S
C335 C339 1.393 . S
C336 H325 0.950 . S
C336 C334 1.391 . S
C336 C337 1.400 . S
C337 C331 1.491 . S
C337 C336 1.400 . S
C337 C338 1.398 . S
C338 H326 0.950 . S
C338 C337 1.398 . S
C338 C339 1.391 . S
C339 H327 0.950 . S
C339 C335 1.393 . S
C339 C338 1.391 . S
H340 C348 0.950 . S
H341 C353 0.950 . S
H342 C350 0.950 . S
H343 C352 0.950 . S
H344 C354 0.950 . S
H345 C356 0.950 . S
H346 C358 0.950 . S
H347 C359 0.950 1_556 S
C348 H340 0.950 . S
C348 C349 1.386 . S
C348 C350 1.391 . S
C349 C348 1.386 . S
C349 C353 1.393 . S
C350 H342 0.950 . S
C350 C348 1.391 . S
C350 C351 1.400 . S
C351 C350 1.400 . S
C351 C352 1.398 . S
C351 C357 1.491 . S
C352 H343 0.950 . S
C352 C351 1.398 . S
C352 C353 1.391 . S
C353 H341 0.950 . S
C353 C349 1.393 . S
C353 C352 1.391 . S
C354 H344 0.950 . S
C354 C355 1.386 . S
C354 C356 1.391 . S
C355 C354 1.386 . S
C355 C359 1.393 . S
C356 H345 0.950 . S
C356 C354 1.391 . S
C356 C357 1.400 . S
C357 C351 1.491 . S
C357 C356 1.400 . S
C357 C358 1.398 . S
C358 H346 0.950 . S
C358 C357 1.398 . S
C358 C359 1.391 . S
C359 H347 0.950 1_554 S
C359 C355 1.393 . S
C359 C358 1.391 . S
H360 C368 0.950 . S
H361 C373 0.950 . S
H362 C370 0.950 . S
H363 C372 0.950 . S
H364 C374 0.950 . S
H365 C376 0.950 . S
H366 C378 0.950 . S
H367 C379 0.950 . S
C368 H360 0.950 . S
C368 C369 1.386 . S
C368 C370 1.391 . S
C369 C368 1.386 . S
C369 C373 1.393 . S
C370 H362 0.950 . S
C370 C368 1.391 . S
C370 C371 1.400 . S
C371 C370 1.400 . S
C371 C372 1.398 . S
C371 C377 1.491 . S
C372 H363 0.950 . S
C372 C371 1.398 . S
C372 C373 1.391 . S
C373 H361 0.950 . S
C373 C369 1.393 . S
C373 C372 1.391 . S
C374 H364 0.950 . S
C374 C375 1.386 . S
C374 C376 1.391 . S
C375 C374 1.386 . S
C375 C379 1.393 . S
C376 H365 0.950 . S
C376 C374 1.391 . S
C376 C377 1.400 . S
C377 C371 1.491 . S
C377 C376 1.400 . S
C377 C378 1.398 . S
C378 H366 0.950 . S
C378 C377 1.398 . S
C378 C379 1.391 . S
C379 H367 0.950 . S
C379 C375 1.393 . S
C379 C378 1.391 . S
H380 C388 0.950 . S
H381 C393 0.950 . S
H382 C390 0.950 . S
H383 C392 0.950 . S
H384 C394 0.950 . S
H385 C396 0.950 . S
H386 C398 0.950 . S
H387 C399 0.950 . S
C388 H380 0.950 . S
C388 C389 1.386 . S
C388 C390 1.391 . S
C389 C388 1.386 . S
C389 C393 1.393 . S
C390 H382 0.950 . S
C390 C388 1.391 . S
C390 C391 1.400 . S
C391 C390 1.400 . S
C391 C392 1.398 . S
C391 C397 1.491 . S
C392 H383 0.950 . S
C392 C391 1.398 . S
C392 C393 1.391 . S
C393 H381 0.950 . S
C393 C389 1.393 . S
C393 C392 1.391 . S
C394 H384 0.950 . S
C394 C395 1.386 . S
C394 C396 1.391 . S
C395 C394 1.386 . S
C395 C399 1.393 . S
C396 H385 0.950 . S
C396 C394 1.391 . S
C396 C397 1.400 . S
C397 C391 1.491 . S
C397 C396 1.400 . S
C397 C398 1.398 . S
C398 H386 0.950 . S
C398 C397 1.398 . S
C398 C399 1.391 . S
C399 H387 0.950 . S
C399 C395 1.393 . S
C399 C398 1.391 . S
H400 C408 0.950 . S
H401 C413 0.950 . S
H402 C410 0.950 . S
H403 C412 0.950 . S
H404 C414 0.950 . S
H405 C416 0.950 . S
H406 C418 0.950 . S
H407 C419 0.950 1_556 S
C408 H400 0.950 . S
C408 C409 1.386 . S
C408 C410 1.391 . S
C409 C408 1.386 . S
C409 C413 1.393 . S
C410 H402 0.950 . S
C410 C408 1.391 . S
C410 C411 1.400 . S
C411 C410 1.400 . S
C411 C412 1.398 . S
C411 C417 1.491 . S
C412 H403 0.950 . S
C412 C411 1.398 . S
C412 C413 1.391 . S
C413 H401 0.950 . S
C413 C409 1.393 . S
C413 C412 1.391 . S
C414 H404 0.950 . S
C414 C415 1.386 . S
C414 C416 1.391 . S
C415 C414 1.386 . S
C415 C419 1.393 . S
C416 H405 0.950 . S
C416 C414 1.391 . S
C416 C417 1.400 . S
C417 C411 1.491 . S
C417 C416 1.400 . S
C417 C418 1.398 . S
C418 H406 0.950 . S
C418 C417 1.398 . S
C418 C419 1.391 . S
C419 H407 0.950 1_554 S
C419 C415 1.393 . S
C419 C418 1.391 . S
H420 C428 0.950 . S
H421 C433 0.950 . S
H422 C430 0.950 . S
H423 C432 0.950 . S
H424 C434 0.950 . S
H425 C436 0.950 . S
H426 C438 0.950 . S
H427 C439 0.950 . S
C428 H420 0.950 . S
C428 C429 1.386 . S
C428 C430 1.391 . S
C429 C428 1.386 . S
C429 C433 1.393 . S
C430 H422 0.950 . S
C430 C428 1.391 . S
C430 C431 1.400 . S
C431 C430 1.400 . S
C431 C432 1.398 . S
C431 C437 1.491 . S
C432 H423 0.950 . S
C432 C431 1.398 . S
C432 C433 1.391 . S
C433 H421 0.950 . S
C433 C429 1.393 . S
C433 C432 1.391 . S
C434 H424 0.950 . S
C434 C435 1.386 . S
C434 C436 1.391 . S
C435 C434 1.386 . S
C435 C439 1.393 . S
C436 H425 0.950 . S
C436 C434 1.391 . S
C436 C437 1.400 . S
C437 C431 1.491 . S
C437 C436 1.400 . S
C437 C438 1.398 . S
C438 H426 0.950 . S
C438 C437 1.398 . S
C438 C439 1.391 . S
C439 H427 0.950 . S
C439 C435 1.393 . S
C439 C438 1.391 . S
H440 C448 0.950 . S
H441 C453 0.950 . S
H442 C450 0.950 . S
H443 C452 0.950 . S
H444 C454 0.950 . S
H445 C456 0.950 . S
H446 C458 0.950 . S
H447 C459 0.950 . S
C448 H440 0.950 . S
C448 C449 1.386 . S
C448 C450 1.391 . S
C449 C448 1.386 . S
C449 C453 1.393 . S
C450 H442 0.950 . S
C450 C448 1.391 . S
C450 C451 1.400 . S
C451 C450 1.400 . S
C451 C452 1.398 . S
C451 C457 1.491 . S
C452 H443 0.950 . S
C452 C451 1.398 . S
C452 C453 1.391 . S
C453 H441 0.950 . S
C453 C449 1.393 . S
C453 C452 1.391 . S
C454 H444 0.950 . S
C454 C455 1.386 . S
C454 C456 1.391 . S
C455 C454 1.386 . S
C455 C459 1.393 . S
C456 H445 0.950 . S
C456 C454 1.391 . S
C456 C457 1.400 . S
C457 C451 1.491 . S
C457 C456 1.400 . S
C457 C458 1.398 . S
C458 H446 0.950 . S
C458 C457 1.398 . S
C458 C459 1.391 . S
C459 H447 0.950 . S
C459 C455 1.393 . S
C459 C458 1.391 . S
H460 C468 0.950 . S
H461 C473 0.950 . S
H462 C470 0.950 . S
H463 C472 0.950 . S
H464 C474 0.950 . S
H465 C476 0.950 . S
H466 C478 0.950 . S
H467 C479 0.950 . S
C468 H460 0.950 . S
C468 C469 1.386 . S
C468 C470 1.391 . S
C469 C468 1.386 . S
C469 C473 1.393 . S
C470 H462 0.950 . S
C470 C468 1.391 . S
C470 C471 1.400 . S
C471 C470 1.400 . S
C471 C472 1.398 . S
C471 C477 1.491 . S
C472 H463 0.950 . S
C472 C471 1.398 . S
C472 C473 1.391 . S
C473 H461 0.950 . S
C473 C469 1.393 . S
C473 C472 1.391 . S
C474 H464 0.950 . S
C474 C475 1.386 . S
C474 C476 1.391 . S
C475 C474 1.386 . S
C475 C479 1.393 . S
C476 H465 0.950 . S
C476 C474 1.391 . S
C476 C477 1.400 . S
C477 C471 1.491 . S
C477 C476 1.400 . S
C477 C478 1.398 . S
C478 H466 0.950 . S
C478 C477 1.398 . S
C478 C479 1.391 . S
C479 H467 0.950 . S
C479 C475 1.393 . S
C479 C478 1.391 . S
H480 C488 0.950 . S
H481 C493 0.950 . S
H482 C490 0.950 . S
H483 C492 0.950 . S
H484 C494 0.950 . S
H485 C496 0.950 . S
H486 C498 0.950 . S
H487 C499 0.950 . S
C488 H480 0.950 . S
C488 C489 1.386 1_655 S
C488 C490 1.391 . S
C489 C488 1.386 1_455 S
C489 C493 1.393 1_545 S
C490 H482 0.950 . S
C490 C488 1.391 . S
C490 C491 1.431 1_655 S
C491 C490 1.431 1_455 S
C491 C492 1.374 1_545 S
C491 C497 1.481 1_546 S
C492 H483 0.950 . S
C492 C491 1.374 1_565 S
C492 C493 1.391 . S
C493 H481 0.950 . S
C493 C489 1.393 1_565 S
C493 C492 1.391 . S
C494 H484 0.950 . S
C494 C495 1.386 1_455 S
C494 C496 1.391 . S
C495 C494 1.386 1_655 S
C495 C499 1.393 1_565 S
C496 H485 0.950 . S
C496 C494 1.391 . S
C496 C497 1.423 . S
C497 C491 1.481 1_564 S
C497 C496 1.423 . S
C497 C498 1.381 1_465 S
C498 H486 0.950 . S
C498 C497 1.381 1_645 S
C498 C499 1.391 . S
C499 H487 0.950 . S
C499 C495 1.393 1_545 S
C499 C498 1.391 . S
H500 C508 0.950 . S
H501 C513 0.950 . S
H502 C510 0.950 . S
H503 C512 0.950 . S
H504 C514 0.950 . S
H505 C516 0.950 . S
H506 C518 0.950 . S
H507 C519 0.950 . S
C508 H500 0.950 . S
C508 C509 1.386 . S
C508 C510 1.391 . S
C509 C508 1.386 . S
C509 C513 1.393 . S
C510 H502 0.950 . S
C510 C508 1.391 . S
C510 C511 1.400 . S
C511 C510 1.400 . S
C511 C512 1.398 . S
C511 C517 1.491 . S
C512 H503 0.950 . S
C512 C511 1.398 . S
C512 C513 1.391 . S
C513 H501 0.950 . S
C513 C509 1.393 . S
C513 C512 1.391 . S
C514 H504 0.950 . S
C514 C515 1.386 . S
C514 C516 1.391 . S
C515 C514 1.386 . S
C515 C519 1.393 . S
C516 H505 0.950 . S
C516 C514 1.391 . S
C516 C517 1.400 . S
C517 C511 1.491 . S
C517 C516 1.400 . S
C517 C518 1.398 . S
C518 H506 0.950 . S
C518 C517 1.398 . S
C518 C519 1.391 . S
C519 H507 0.950 . S
C519 C515 1.393 . S
C519 C518 1.391 . S
H520 C528 0.950 . S
H521 C533 0.950 . S
H522 C530 0.950 . S
H523 C532 0.950 . S
H524 C534 0.950 . S
H525 C536 0.950 . S
H526 C538 0.950 . S
H527 C539 0.950 . S
C528 H520 0.950 . S
C528 C529 1.386 . S
C528 C530 1.391 . S
C529 C528 1.386 . S
C529 C533 1.393 1_565 S
C530 H522 0.950 . S
C530 C528 1.391 . S
C530 C531 1.417 . S
C531 C530 1.417 . S
C531 C532 1.389 1_565 S
C531 C537 1.485 1_565 S
C532 H523 0.950 . S
C532 C531 1.389 1_545 S
C532 C533 1.391 . S
C533 H521 0.950 . S
C533 C529 1.393 1_545 S
C533 C532 1.391 . S
C534 H524 0.950 . S
C534 C535 1.386 . S
C534 C536 1.391 . S
C535 C534 1.386 . S
C535 C539 1.393 1_545 S
C536 H525 0.950 . S
C536 C534 1.391 . S
C536 C537 1.400 . S
C537 C531 1.485 1_545 S
C537 C536 1.400 . S
C537 C538 1.398 1_545 S
C538 H526 0.950 . S
C538 C537 1.398 1_565 S
C538 C539 1.391 . S
C539 H527 0.950 . S
C539 C535 1.393 1_565 S
C539 C538 1.391 . S
H540 C548 0.950 . S
H541 C553 0.950 . S
H542 C550 0.950 . S
H543 C552 0.950 . S
H544 C554 0.950 . S
H545 C556 0.950 . S
H546 C558 0.950 . S
H547 C559 0.950 . S
C548 H540 0.950 . S
C548 C549 1.386 . S
C548 C550 1.391 . S
C549 C548 1.386 . S
C549 C553 1.393 . S
C550 H542 0.950 . S
C550 C548 1.391 . S
C550 C551 1.400 . S
C551 C550 1.400 . S
C551 C552 1.398 . S
C551 C557 1.491 . S
C552 H543 0.950 . S
C552 C551 1.398 . S
C552 C553 1.391 . S
C553 H541 0.950 . S
C553 C549 1.393 . S
C553 C552 1.391 . S
C554 H544 0.950 . S
C554 C555 1.386 . S
C554 C556 1.391 . S
C555 C554 1.386 . S
C555 C559 1.393 . S
C556 H545 0.950 . S
C556 C554 1.391 . S
C556 C557 1.400 . S
C557 C551 1.491 . S
C557 C556 1.400 . S
C557 C558 1.398 . S
C558 H546 0.950 . S
C558 C557 1.398 . S
C558 C559 1.391 . S
C559 H547 0.950 . S
C559 C555 1.393 . S
C559 C558 1.391 . S
H560 C568 0.950 . S
H561 C573 0.950 . S
H562 C570 0.950 . S
H563 C572 0.950 . S
H564 C574 0.950 . S
H565 C576 0.950 . S
H566 C578 0.950 . S
H567 C579 0.950 . S
C568 H560 0.950 . S
C568 C569 1.386 . S
C568 C570 1.391 . S
C569 C568 1.386 . S
C569 C573 1.393 . S
C570 H562 0.950 . S
C570 C568 1.391 . S
C570 C571 1.400 . S
C571 C570 1.400 . S
C571 C572 1.398 . S
C571 C577 1.491 . S
C572 H563 0.950 . S
C572 C571 1.398 . S
C572 C573 1.391 . S
C573 H561 0.950 . S
C573 C569 1.393 . S
C573 C572 1.391 . S
C574 H564 0.950 . S
C574 C575 1.386 . S
C574 C576 1.391 . S
C575 C574 1.386 . S
C575 C579 1.393 . S
C576 H565 0.950 . S
C576 C574 1.391 . S
C576 C577 1.400 . S
C577 C571 1.491 . S
C577 C576 1.400 . S
C577 C578 1.398 . S
C578 H566 0.950 . S
C578 C577 1.398 . S
C578 C579 1.391 . S
C579 H567 0.950 . S
C579 C575 1.393 . S
C579 C578 1.391 . S
H580 C588 0.950 . S
H581 C593 0.950 . S
H582 C590 0.950 . S
H583 C592 0.950 . S
H584 C594 0.950 . S
H585 C596 0.950 . S
H586 C598 0.950 . S
H587 C599 0.950 . S
C588 H580 0.950 . S
C588 C589 1.386 . S
C588 C590 1.391 . S
C589 C588 1.386 . S
C589 C593 1.393 . S
C590 H582 0.950 . S
C590 C588 1.391 . S
C590 C591 1.400 . S
C591 C590 1.400 . S
C591 C592 1.398 . S
C591 C597 1.491 . S
C592 H583 0.950 . S
C592 C591 1.398 . S
C592 C593 1.391 . S
C593 H581 0.950 . S
C593 C589 1.393 . S
C593 C592 1.391 . S
C594 H584 0.950 . S
C594 C595 1.386 . S
C594 C596 1.391 . S
C595 C594 1.386 . S
C595 C599 1.393 . S
C596 H585 0.950 . S
C596 C594 1.391 . S
C596 C597 1.400 . S
C597 C591 1.491 . S
C597 C596 1.400 . S
C597 C598 1.398 . S
C598 H586 0.950 . S
C598 C597 1.398 . S
C598 C599 1.391 . S
C599 H587 0.950 . S
C599 C595 1.393 . S
C599 C598 1.391 . S
H600 C608 0.950 . S
H601 C613 0.950 . S
H602 C610 0.950 . S
H603 C612 0.950 . S
H604 C614 0.950 . S
H605 C616 0.950 . S
H606 C618 0.950 . S
H607 C619 0.950 . S
C608 H600 0.950 . S
C608 C609 1.386 . S
C608 C610 1.391 . S
C609 C608 1.386 . S
C609 C613 1.393 . S
C610 H602 0.950 . S
C610 C608 1.391 . S
C610 C611 1.400 . S
C611 C610 1.400 . S
C611 C612 1.398 . S
C611 C617 1.491 . S
C612 H603 0.950 . S
C612 C611 1.398 . S
C612 C613 1.391 . S
C613 H601 0.950 . S
C613 C609 1.393 . S
C613 C612 1.391 . S
C614 H604 0.950 . S
C614 C615 1.386 . S
C614 C616 1.391 . S
C615 C614 1.386 . S
C615 C619 1.393 . S
C616 H605 0.950 . S
C616 C614 1.391 . S
C616 C617 1.400 . S
C617 C611 1.491 . S
C617 C616 1.400 . S
C617 C618 1.398 . S
C618 H606 0.950 . S
C618 C617 1.398 . S
C618 C619 1.391 . S
C619 H607 0.950 . S
C619 C615 1.393 . S
C619 C618 1.391 . S
H620 C628 0.950 . S
H621 C633 0.950 . S
H622 C630 0.950 . S
H623 C632 0.950 . S
H624 C634 0.950 . S
H625 C636 0.950 . S
H626 C638 0.950 . S
H627 C639 0.950 . S
C628 H620 0.950 . S
C628 C629 1.386 1_655 S
C628 C630 1.391 . S
C629 C628 1.386 1_455 S
C629 C633 1.393 . S
C630 H622 0.950 . S
C630 C628 1.391 . S
C630 C631 1.380 1_655 S
C631 C630 1.380 1_455 S
C631 C632 1.416 . S
C631 C637 1.495 1_456 S
C632 H623 0.950 . S
C632 C631 1.416 . S
C632 C633 1.391 . S
C633 H621 0.950 . S
C633 C629 1.393 . S
C633 C632 1.391 . S
C634 H624 0.950 . S
C634 C635 1.386 1_455 S
C634 C636 1.391 . S
C635 C634 1.386 1_655 S
C635 C639 1.393 . S
C636 H625 0.950 . S
C636 C634 1.391 . S
C636 C637 1.388 1_455 S
C637 C631 1.495 1_654 S
C637 C636 1.388 1_655 S
C637 C638 1.409 . S
C638 H626 0.950 . S
C638 C637 1.409 . S
C638 C639 1.391 . S
C639 H627 0.950 . S
C639 C635 1.393 . S
C639 C638 1.391 . S
C169 C18 1.492 . S
C175 C64 1.450 . S
C189 C4 1.006 . S
C195 C24 1.015 . S
C209 C38 1.497 . S
C215 C44 1.458 . S
C229 C58 2.002 . S
C235 C78 1.998 . S
C249 C19 1.504 . S
C255 C102 1.443 . S
C269 C2 1.020 . S
C275 C82 1.012 . S
C289 C99 1.504 . S
C295 C42 1.436 . S
C309 C119 2.008 . S
C315 C59 1.999 . S
C329 C138 1.501 . S
C335 C104 1.430 . S
C349 C84 1.024 . S
C355 C124 1.013 . S
C369 C144 1.459 . S
C375 C98 1.497 . S
C389 C118 2.005 . S
C395 C158 2.008 . S
C409 C62 1.451 . S
C415 C139 1.501 . S
C429 C122 0.989 . S
C435 C22 0.998 . S
C449 C39 1.495 . S
C455 C142 1.456 . S
C469 C79 2.006 . S
C475 C159 1.995 . S
C489 C12 1.462 1_545 S
C495 C9 1.462 1_565 S
C509 C32 1.462 . S
C515 C29 1.462 1_554 S
C529 C52 1.525 . S
C535 C49 1.525 . S
C549 C69 1.515 1_556 S
C555 C72 1.515 . S
C569 C92 1.465 1_556 S
C575 C89 1.465 . S
C589 C109 1.526 . S
C595 C112 1.526 1_554 S
C609 C129 1.467 . S
C615 C132 1.467 . S
C629 C149 1.526 . S
C635 C152 1.526 . S
