# Generated by pormake.
# Topology pcu-g, (3)-cn, num edge types: 1
# Building blocks:
#     Node 0, Type 0, BuildingBlock: WUSLED_clean_sbu_0, # of connection points: 3
#     Node 1, Type 0, BuildingBlock: WUSLED_clean_sbu_0, # of connection points: 3
#     Node 2, Type 0, BuildingBlock: WUSLED_clean_sbu_0, # of connection points: 3
#     Node 3, Type 0, BuildingBlock: WUSLED_clean_sbu_0, # of connection points: 3
#     Node 4, Type 0, BuildingBlock: WUSLED_clean_sbu_0, # of connection points: 3
#     Node 5, Type 0, BuildingBlock: WUSLED_clean_sbu_0, # of connection points: 3
#     Node 6, Type 0, BuildingBlock: WUSLED_clean_sbu_0, # of connection points: 3
#     Node 7, Type 0, BuildingBlock: WUSLED_clean_sbu_0, # of connection points: 3
#     Node 8, Type 0, BuildingBlock: WUSLED_clean_sbu_0, # of connection points: 3
#     Node 9, Type 0, BuildingBlock: WUSLED_clean_sbu_0, # of connection points: 3
#     Node 10, Type 0, BuildingBlock: WUSLED_clean_sbu_0, # of connection points: 3
#     Node 11, Type 0, BuildingBlock: WUSLED_clean_sbu_0, # of connection points: 3
#     Node 12, Type 0, BuildingBlock: WUSLED_clean_sbu_0, # of connection points: 3
#     Node 13, Type 0, BuildingBlock: WUSLED_clean_sbu_0, # of connection points: 3
#     Node 14, Type 0, BuildingBlock: WUSLED_clean_sbu_0, # of connection points: 3
#     Node 15, Type 0, BuildingBlock: WUSLED_clean_sbu_0, # of connection points: 3
#     Node 16, Type 0, BuildingBlock: WUSLED_clean_sbu_0, # of connection points: 3
#     Node 17, Type 0, BuildingBlock: WUSLED_clean_sbu_0, # of connection points: 3
#     Node 18, Type 0, BuildingBlock: WUSLED_clean_sbu_0, # of connection points: 3
#     Node 19, Type 0, BuildingBlock: WUSLED_clean_sbu_0, # of connection points: 3
#     Node 20, Type 0, BuildingBlock: WUSLED_clean_sbu_0, # of connection points: 3
#     Node 21, Type 0, BuildingBlock: WUSLED_clean_sbu_0, # of connection points: 3
#     Node 22, Type 0, BuildingBlock: WUSLED_clean_sbu_0, # of connection points: 3
#     Node 23, Type 0, BuildingBlock: WUSLED_clean_sbu_0, # of connection points: 3
#     Node 24, Type 0, BuildingBlock: WUSLED_clean_sbu_0, # of connection points: 3
#     Node 25, Type 0, BuildingBlock: WUSLED_clean_sbu_0, # of connection points: 3
#     Node 26, Type 0, BuildingBlock: WUSLED_clean_sbu_0, # of connection points: 3
#     Node 27, Type 0, BuildingBlock: WUSLED_clean_sbu_0, # of connection points: 3
#     Node 28, Type 0, BuildingBlock: WUSLED_clean_sbu_0, # of connection points: 3
#     Node 29, Type 0, BuildingBlock: WUSLED_clean_sbu_0, # of connection points: 3
#     Node 30, Type 0, BuildingBlock: WUSLED_clean_sbu_0, # of connection points: 3
#     Node 31, Type 0, BuildingBlock: WUSLED_clean_sbu_0, # of connection points: 3
#     Node 32, Type 0, BuildingBlock: WUSLED_clean_sbu_0, # of connection points: 3
#     Node 33, Type 0, BuildingBlock: WUSLED_clean_sbu_0, # of connection points: 3
#     Node 34, Type 0, BuildingBlock: WUSLED_clean_sbu_0, # of connection points: 3
#     Node 35, Type 0, BuildingBlock: WUSLED_clean_sbu_0, # of connection points: 3
#     Node 36, Type 0, BuildingBlock: WUSLED_clean_sbu_0, # of connection points: 3
#     Node 37, Type 0, BuildingBlock: WUSLED_clean_sbu_0, # of connection points: 3
#     Node 38, Type 0, BuildingBlock: WUSLED_clean_sbu_0, # of connection points: 3
#     Node 39, Type 0, BuildingBlock: WUSLED_clean_sbu_0, # of connection points: 3
#     Node 40, Type 0, BuildingBlock: WUSLED_clean_sbu_0, # of connection points: 3
#     Node 41, Type 0, BuildingBlock: WUSLED_clean_sbu_0, # of connection points: 3
#     Node 42, Type 0, BuildingBlock: WUSLED_clean_sbu_0, # of connection points: 3
#     Node 43, Type 0, BuildingBlock: WUSLED_clean_sbu_0, # of connection points: 3
#     Node 44, Type 0, BuildingBlock: WUSLED_clean_sbu_0, # of connection points: 3
#     Node 45, Type 0, BuildingBlock: WUSLED_clean_sbu_0, # of connection points: 3
#     Node 46, Type 0, BuildingBlock: WUSLED_clean_sbu_0, # of connection points: 3
#     Node 47, Type 0, BuildingBlock: WUSLED_clean_sbu_0, # of connection points: 3
#     Edge 48, Type (0, 0), BuildingBlock: XIVTED_clean_linker_0, # of connection points: 2
#     Edge 49, Type (0, 0), BuildingBlock: XIVTED_clean_linker_0, # of connection points: 2
#     Edge 50, Type (0, 0), BuildingBlock: XIVTED_clean_linker_0, # of connection points: 2
#     Edge 51, Type (0, 0), BuildingBlock: XIVTED_clean_linker_0, # of connection points: 2
#     Edge 52, Type (0, 0), BuildingBlock: XIVTED_clean_linker_0, # of connection points: 2
#     Edge 53, Type (0, 0), BuildingBlock: XIVTED_clean_linker_0, # of connection points: 2
#     Edge 54, Type (0, 0), BuildingBlock: XIVTED_clean_linker_0, # of connection points: 2
#     Edge 55, Type (0, 0), BuildingBlock: XIVTED_clean_linker_0, # of connection points: 2
#     Edge 56, Type (0, 0), BuildingBlock: XIVTED_clean_linker_0, # of connection points: 2
#     Edge 57, Type (0, 0), BuildingBlock: XIVTED_clean_linker_0, # of connection points: 2
#     Edge 58, Type (0, 0), BuildingBlock: XIVTED_clean_linker_0, # of connection points: 2
#     Edge 59, Type (0, 0), BuildingBlock: XIVTED_clean_linker_0, # of connection points: 2
#     Edge 60, Type (0, 0), BuildingBlock: XIVTED_clean_linker_0, # of connection points: 2
#     Edge 61, Type (0, 0), BuildingBlock: XIVTED_clean_linker_0, # of connection points: 2
#     Edge 62, Type (0, 0), BuildingBlock: XIVTED_clean_linker_0, # of connection points: 2
#     Edge 63, Type (0, 0), BuildingBlock: XIVTED_clean_linker_0, # of connection points: 2
#     Edge 64, Type (0, 0), BuildingBlock: XIVTED_clean_linker_0, # of connection points: 2
#     Edge 65, Type (0, 0), BuildingBlock: XIVTED_clean_linker_0, # of connection points: 2
#     Edge 66, Type (0, 0), BuildingBlock: XIVTED_clean_linker_0, # of connection points: 2
#     Edge 67, Type (0, 0), BuildingBlock: XIVTED_clean_linker_0, # of connection points: 2
#     Edge 68, Type (0, 0), BuildingBlock: XIVTED_clean_linker_0, # of connection points: 2
#     Edge 69, Type (0, 0), BuildingBlock: XIVTED_clean_linker_0, # of connection points: 2
#     Edge 70, Type (0, 0), BuildingBlock: XIVTED_clean_linker_0, # of connection points: 2
#     Edge 71, Type (0, 0), BuildingBlock: XIVTED_clean_linker_0, # of connection points: 2
#     Edge 72, Type (0, 0), BuildingBlock: XIVTED_clean_linker_0, # of connection points: 2
#     Edge 73, Type (0, 0), BuildingBlock: XIVTED_clean_linker_0, # of connection points: 2
#     Edge 74, Type (0, 0), BuildingBlock: XIVTED_clean_linker_0, # of connection points: 2
#     Edge 75, Type (0, 0), BuildingBlock: XIVTED_clean_linker_0, # of connection points: 2
#     Edge 76, Type (0, 0), BuildingBlock: XIVTED_clean_linker_0, # of connection points: 2
#     Edge 77, Type (0, 0), BuildingBlock: XIVTED_clean_linker_0, # of connection points: 2
#     Edge 78, Type (0, 0), BuildingBlock: XIVTED_clean_linker_0, # of connection points: 2
#     Edge 79, Type (0, 0), BuildingBlock: XIVTED_clean_linker_0, # of connection points: 2
#     Edge 80, Type (0, 0), BuildingBlock: XIVTED_clean_linker_0, # of connection points: 2
#     Edge 81, Type (0, 0), BuildingBlock: XIVTED_clean_linker_0, # of connection points: 2
#     Edge 82, Type (0, 0), BuildingBlock: XIVTED_clean_linker_0, # of connection points: 2
#     Edge 83, Type (0, 0), BuildingBlock: XIVTED_clean_linker_0, # of connection points: 2
#     Edge 84, Type (0, 0), BuildingBlock: XIVTED_clean_linker_0, # of connection points: 2
#     Edge 85, Type (0, 0), BuildingBlock: XIVTED_clean_linker_0, # of connection points: 2
#     Edge 86, Type (0, 0), BuildingBlock: XIVTED_clean_linker_0, # of connection points: 2
#     Edge 87, Type (0, 0), BuildingBlock: XIVTED_clean_linker_0, # of connection points: 2
#     Edge 88, Type (0, 0), BuildingBlock: XIVTED_clean_linker_0, # of connection points: 2
#     Edge 89, Type (0, 0), BuildingBlock: XIVTED_clean_linker_0, # of connection points: 2
#     Edge 90, Type (0, 0), BuildingBlock: XIVTED_clean_linker_0, # of connection points: 2
#     Edge 91, Type (0, 0), BuildingBlock: XIVTED_clean_linker_0, # of connection points: 2
#     Edge 92, Type (0, 0), BuildingBlock: XIVTED_clean_linker_0, # of connection points: 2
#     Edge 93, Type (0, 0), BuildingBlock: XIVTED_clean_linker_0, # of connection points: 2
#     Edge 94, Type (0, 0), BuildingBlock: XIVTED_clean_linker_0, # of connection points: 2
#     Edge 95, Type (0, 0), BuildingBlock: XIVTED_clean_linker_0, # of connection points: 2
#     Edge 96, Type (0, 0), BuildingBlock: XIVTED_clean_linker_0, # of connection points: 2
#     Edge 97, Type (0, 0), BuildingBlock: XIVTED_clean_linker_0, # of connection points: 2
#     Edge 98, Type (0, 0), BuildingBlock: XIVTED_clean_linker_0, # of connection points: 2
#     Edge 99, Type (0, 0), BuildingBlock: XIVTED_clean_linker_0, # of connection points: 2
#     Edge 100, Type (0, 0), BuildingBlock: XIVTED_clean_linker_0, # of connection points: 2
#     Edge 101, Type (0, 0), BuildingBlock: XIVTED_clean_linker_0, # of connection points: 2
#     Edge 102, Type (0, 0), BuildingBlock: XIVTED_clean_linker_0, # of connection points: 2
#     Edge 103, Type (0, 0), BuildingBlock: XIVTED_clean_linker_0, # of connection points: 2
#     Edge 104, Type (0, 0), BuildingBlock: XIVTED_clean_linker_0, # of connection points: 2
#     Edge 105, Type (0, 0), BuildingBlock: XIVTED_clean_linker_0, # of connection points: 2
#     Edge 106, Type (0, 0), BuildingBlock: XIVTED_clean_linker_0, # of connection points: 2
#     Edge 107, Type (0, 0), BuildingBlock: XIVTED_clean_linker_0, # of connection points: 2
#     Edge 108, Type (0, 0), BuildingBlock: XIVTED_clean_linker_0, # of connection points: 2
#     Edge 109, Type (0, 0), BuildingBlock: XIVTED_clean_linker_0, # of connection points: 2
#     Edge 110, Type (0, 0), BuildingBlock: XIVTED_clean_linker_0, # of connection points: 2
#     Edge 111, Type (0, 0), BuildingBlock: XIVTED_clean_linker_0, # of connection points: 2
#     Edge 112, Type (0, 0), BuildingBlock: XIVTED_clean_linker_0, # of connection points: 2
#     Edge 113, Type (0, 0), BuildingBlock: XIVTED_clean_linker_0, # of connection points: 2
#     Edge 114, Type (0, 0), BuildingBlock: XIVTED_clean_linker_0, # of connection points: 2
#     Edge 115, Type (0, 0), BuildingBlock: XIVTED_clean_linker_0, # of connection points: 2
#     Edge 116, Type (0, 0), BuildingBlock: XIVTED_clean_linker_0, # of connection points: 2
#     Edge 117, Type (0, 0), BuildingBlock: XIVTED_clean_linker_0, # of connection points: 2
#     Edge 118, Type (0, 0), BuildingBlock: XIVTED_clean_linker_0, # of connection points: 2
#     Edge 119, Type (0, 0), BuildingBlock: XIVTED_clean_linker_0, # of connection points: 2
# Relax obj value: 0.001
# Max RMSD: 0.008
# Mean RMSD: 0.005
data_MOF--net-pcu-g--node1-WUSLED_clean_sbu_0--edge1-XIVTED_clean_linker_0
_symmetry_space_group_name_H-M    P1
_symmetry_Int_Tables_number       1
_symmetry_cell_setting            triclinic
loop_
_symmetry_equiv_pos_as_xyz
'x, y, z'
_cell_length_a     123.05338
_cell_length_b     123.4749
_cell_length_c     124.13693
_cell_angle_alpha  89.895378
_cell_angle_beta   90.072956
_cell_angle_gamma 89.973536
loop_
_atom_site_label
_atom_site_type_symbol
_atom_site_fract_x
_atom_site_fract_y
_atom_site_fract_z
_atom_type_partial_charge
C0 C 1.00905 0.15319 0.41529 0.0
C1 C 1.01035 0.14306 0.42028 0.0
C2 C 0.999 0.13454 0.40652 0.0
C3 C 1.00535 0.13383 0.41595 0.0
C4 C 0.99788 0.14471 0.40149 0.0
C5 C 1.00284 0.15393 0.40584 0.0
U6 U 0.03002 0.16766 0.43311 0.0
O7 O 0.03919 0.18275 0.43022 0.0
O8 O 0.02805 0.18158 0.44397 0.0
C9 C 0.03453 0.18784 0.43829 0.0
C10 C 0.01395 0.16309 0.41988 0.0
C11 C 0.03087 0.19911 0.43625 0.0
C12 C 0.01685 0.21308 0.43569 0.0
C13 C 0.01986 0.20214 0.4366 0.0
C14 C 0.03576 0.21807 0.43379 0.0
C15 C 0.02478 0.22122 0.43447 0.0
C16 C 0.03875 0.20717 0.43469 0.0
C17 C 0.05096 0.14959 0.44857 0.0
C18 C 0.07041 0.14945 0.45245 0.0
C19 C 0.05797 0.14031 0.46448 0.0
C20 C 0.04924 0.14346 0.45796 0.0
C21 C 0.0687 0.14314 0.46176 0.0
C22 C 0.06165 0.15265 0.44594 0.0
C23 C 0.04166 0.15169 0.44121 0.0
O24 O 0.01266 0.16447 0.43031 0.0
O25 O 0.02382 0.16541 0.41659 0.0
O26 O 0.04377 0.15632 0.43189 0.0
O27 O 0.03262 0.15521 0.44563 0.0
H28 H 0.01517 0.14229 0.42755 0.0
H29 H 1.00651 0.12612 0.41997 0.0
H30 H 0.99297 0.14561 0.3943 0.0
H31 H 1.00173 0.16167 0.40187 0.0
H32 H 1.00833 0.21519 0.43631 0.0
H33 H 0.0136 0.1961 0.43781 0.0
H34 H 0.04209 0.22405 0.43264 0.0
H35 H 0.04729 0.20505 0.43439 0.0
H36 H 0.07854 0.15189 0.45017 0.0
H37 H 0.05633 0.13532 0.47148 0.0
H38 H 0.04112 0.14084 0.46011 0.0
H39 H 0.0633 0.15732 0.43873 0.0
C40 C 0.96486 0.35596 0.4525 0.0
C41 C 0.96604 0.36722 0.45354 0.0
C42 C 0.94862 0.36838 0.46294 0.0
C43 C 0.95801 0.37337 0.45872 0.0
C44 C 0.94746 0.3571 0.46171 0.0
C45 C 0.95549 0.35098 0.45656 0.0
U46 U 0.99033 0.3523 0.43489 0.0
O47 O 1.00443 0.34158 0.43722 0.0
O48 O 0.99405 0.33957 0.42299 0.0
C49 C 1.00215 0.33565 0.42872 0.0
C50 C 0.97329 0.34924 0.44733 0.0
C51 C 1.00262 0.32367 0.43004 0.0
C52 C 1.007 0.30759 0.44067 0.0
C53 C 1.00549 0.31882 0.43991 0.0
C54 C 1.00257 0.30572 0.42179 0.0
C55 C 1.00569 0.30089 0.43159 0.0
C56 C 1.0011 0.31696 0.42102 0.0
C57 C 1.00345 0.37838 0.42249 0.0
C58 C 1.01038 0.38506 0.40531 0.0
C59 C 0.01697 0.3928 0.42196 0.0
C60 C 1.01027 0.38577 0.4278 0.0
C61 C 0.01698 0.3927 0.41062 0.0
C62 C 1.00368 0.37801 0.41116 0.0
C63 C 0.99536 0.37213 0.42886 0.0
O64 O 0.97289 0.34869 0.43677 0.0
O65 O 0.98323 0.35042 0.45105 0.0
O66 O 0.99877 0.36775 0.43792 0.0
O67 O 0.98851 0.36592 0.42356 0.0
H68 H 0.97322 0.37123 0.45044 0.0
H69 H 0.95926 0.382 0.45959 0.0
H70 H 0.94029 0.35298 0.46466 0.0
H71 H 0.95439 0.34231 0.45578 0.0
H72 H 1.00926 0.30415 0.44839 0.0
H73 H 1.00678 0.32371 0.44703 0.0
H74 H 1.00161 0.30087 0.41459 0.0
H75 H 0.99904 0.32045 0.41327 0.0
H76 H 1.01007 0.3848 0.39659 0.0
H77 H 0.02206 0.39843 0.42635 0.0
H78 H 1.01021 0.38633 0.43651 0.0
H79 H 0.99845 0.3725 0.40679 0.0
C80 C 1.00769 0.86705 0.10437 0.0
C81 C 1.0092 0.87744 0.1 0.0
C82 C 0.99764 0.8853 0.11396 0.0
C83 C 1.00422 0.88647 0.10474 0.0
C84 C 0.99637 0.87487 0.1184 0.0
C85 C 1.00132 0.86587 0.11365 0.0
U86 U 0.02855 0.85271 0.08618 0.0
O87 O 0.03687 0.83708 0.08843 0.0
O88 O 0.02607 0.83945 0.07454 0.0
C89 C 0.0321 0.83261 0.08005 0.0
C90 C 0.01241 0.85731 0.09928 0.0
C91 C 0.02765 0.82155 0.08153 0.0
C92 C 0.02055 0.80697 0.09278 0.0
C93 C 0.02398 0.81775 0.09157 0.0
C94 C 0.02416 0.80371 0.07391 0.0
C95 C 0.02068 0.79976 0.08398 0.0
C96 C 0.02761 0.81445 0.07272 0.0
C97 C 0.05064 0.87049 0.07201 0.0
C98 C 0.07019 0.87295 0.06975 0.0
C99 C 0.05798 0.87773 0.05522 0.0
C100 C 0.04911 0.87449 0.0615 0.0
C101 C 0.06864 0.87716 0.05931 0.0
C102 C 0.06131 0.86968 0.07602 0.0
C103 C 0.04109 0.86847 0.0791 0.0
O104 O 0.0113 0.8566 0.08877 0.0
O105 O 0.02211 0.85442 0.10267 0.0
O106 O 0.04282 0.86328 0.08821 0.0
O107 O 0.03195 0.86563 0.07439 0.0
H108 H 0.01411 0.87854 0.09284 0.0
H109 H 1.00532 0.89434 0.10102 0.0
H110 H 0.99155 0.87365 0.1256 0.0
H111 H 1.0001 0.85793 0.11719 0.0
H112 H 0.0178 0.80428 0.10062 0.0
H113 H 0.02389 0.82307 0.0985 0.0
H114 H 0.02454 0.79841 0.06698 0.0
H115 H 0.03046 0.81716 0.06491 0.0
H116 H 0.07828 0.87226 0.07313 0.0
H117 H 0.05643 0.88108 0.0473 0.0
H118 H 0.041 0.87543 0.05822 0.0
H119 H 0.06282 0.86677 0.08412 0.0
C120 C 0.96526 0.66567 0.06842 0.0
C121 C 0.96661 0.65444 0.06734 0.0
C122 C 0.94934 0.65311 0.05768 0.0
C123 C 0.95875 0.64822 0.06199 0.0
C124 C 0.94798 0.66436 0.05895 0.0
C125 C 0.95587 0.67056 0.06425 0.0
U126 U 0.98984 0.66887 0.08712 0.0
O127 O 1.0045 0.679 0.08543 0.0
O128 O 0.99352 0.68148 0.09911 0.0
C129 C 1.00218 0.68489 0.09393 0.0
C130 C 0.97358 0.67241 0.07378 0.0
C131 C 1.00332 0.69675 0.09266 0.0
C132 C 0.99642 0.71444 0.08719 0.0
C133 C 0.99513 0.70315 0.08799 0.0
C134 C 0.01412 0.71299 0.09561 0.0
C135 C 1.00592 0.71952 0.09106 0.0
C136 C 0.01282 0.70176 0.0964 0.0
C137 C 1.00058 0.6422 0.10054 0.0
C138 C 0.01847 0.63632 0.10671 0.0
C139 C 1.00242 0.62644 0.1122 0.0
C140 C 0.99591 0.63367 0.10639 0.0
C141 C 0.0138 0.62754 0.1123 0.0
C142 C 0.01192 0.64358 0.10085 0.0
C143 C 0.99342 0.64888 0.0936 0.0
O144 O 0.97269 0.67327 0.08429 0.0
O145 O 0.98365 0.67087 0.0706 0.0
O146 O 0.99769 0.65303 0.08481 0.0
O147 O 0.98669 0.6555 0.09851 0.0
H148 H 0.97377 0.65048 0.07057 0.0
H149 H 0.96001 0.63957 0.0613 0.0
H150 H 0.94093 0.66842 0.05564 0.0
H151 H 0.95467 0.67922 0.06501 0.0
H152 H 0.9899 0.71919 0.08372 0.0
H153 H 0.98772 0.69944 0.08506 0.0
H154 H 0.02162 0.71653 0.09849 0.0
H155 H 0.01926 0.69696 0.09998 0.0
H156 H 0.0272 0.63739 0.10656 0.0
H157 H 0.99851 0.61992 0.11657 0.0
H158 H 0.98719 0.63245 0.10627 0.0
H159 H 0.01574 0.65009 0.09639 0.0
C160 C 0.4163 1.00748 0.15482 0.0
C161 C 0.41663 0.01285 0.14484 0.0
C162 C 0.40679 0.99794 0.13633 0.0
C163 C 0.4119 1.00813 0.13569 0.0
C164 C 0.40658 0.99259 0.14636 0.0
C165 C 0.41128 0.99732 0.15549 0.0
U166 U 0.43292 0.02958 0.16884 0.0
O167 O 0.42984 0.03819 0.1841 0.0
O168 O 0.44465 0.02848 0.1822 0.0
C169 C 0.4386 0.03426 0.18876 0.0
C170 C 0.42102 0.01241 0.16459 0.0
C171 C 0.43723 0.03003 0.19984 0.0
C172 C 0.43465 0.01523 0.21261 0.0
C173 C 0.43543 0.019 0.20195 0.0
C174 C 0.43728 0.0335 0.21915 0.0
C175 C 0.43562 0.02243 0.22137 0.0
C176 C 0.43808 0.03723 0.20853 0.0
C177 C 0.44491 0.05207 0.15003 0.0
C178 C 0.46045 0.06413 0.15203 0.0
C179 C 0.44732 0.06733 0.13784 0.0
C180 C 0.44135 0.05835 0.14129 0.0
C181 C 0.45705 0.07026 0.14304 0.0
C182 C 0.45445 0.05509 0.15548 0.0
C183 C 0.43883 0.04208 0.15267 0.0
O184 O 0.43167 0.01214 0.1653 0.0
O185 O 0.4169 0.02181 0.16741 0.0
O186 O 0.42961 0.04328 0.15787 0.0
O187 O 0.44451 0.03368 0.15598 0.0
H188 H 0.4205 0.0207 0.14414 0.0
H189 H 0.41234 0.01244 0.1281 0.0
H190 H 0.4026 0.98481 0.14722 0.0
H191 H 0.41092 0.99306 0.16313 0.0
H192 H 0.43324 1.00669 0.21398 0.0
H193 H 0.4347 0.01329 0.19537 0.0
H194 H 0.43823 0.03927 0.22564 0.0
H195 H 0.43952 0.04577 0.20709 0.0
H196 H 0.46793 0.06612 0.15619 0.0
H197 H 0.44432 0.07196 0.13104 0.0
H198 H 0.434 0.05618 0.13698 0.0
H199 H 0.45737 0.05036 0.16224 0.0
C200 C 0.56845 0.46516 0.16672 0.0
C201 C 0.56831 0.46564 0.15542 0.0
C202 C 0.55761 0.44897 0.15464 0.0
C203 C 0.56294 0.45763 0.14944 0.0
C204 C 0.5579 0.44852 0.16598 0.0
C205 C 0.56325 0.45653 0.17194 0.0
U206 U 0.58735 0.48973 0.16951 0.0
O207 O 0.58583 0.50422 0.1797 0.0
O208 O 0.5997 0.49328 0.1819 0.0
C209 C 0.59448 0.50183 0.18547 0.0
C210 C 0.57396 0.47354 0.1732 0.0
C211 C 0.5934 0.50276 0.19731 0.0
C212 C 0.5833 0.50038 0.21404 0.0
C213 C 0.5842 0.49896 0.20284 0.0
C214 C 0.60083 0.50926 0.2143 0.0
C215 C 0.59158 0.50564 0.21991 0.0
C216 C 0.60171 0.50784 0.20315 0.0
C217 C 0.60065 0.50053 0.14293 0.0
C218 C 0.60657 0.51836 0.13681 0.0
C219 C 0.6127 0.50228 0.12749 0.0
C220 C 0.60683 0.49583 0.13469 0.0
C221 C 0.61251 0.51365 0.12832 0.0
C222 C 0.60067 0.51187 0.14404 0.0
C223 C 0.59366 0.4934 0.14957 0.0
O224 O 0.58458 0.47266 0.1739 0.0
O225 O 0.5707 0.48356 0.17159 0.0
O226 O 0.58486 0.49767 0.1538 0.0
O227 O 0.59864 0.48659 0.15607 0.0
H228 H 0.5723 0.47224 0.15123 0.0
H229 H 0.5628 0.45832 0.14074 0.0
H230 H 0.55408 0.44191 0.17029 0.0
H231 H 0.56333 0.45598 0.18065 0.0
H232 H 0.57602 0.49755 0.21804 0.0
H233 H 0.57768 0.495 0.1985 0.0
H234 H 0.60747 0.51314 0.21852 0.0
H235 H 0.6089 0.5108 0.19905 0.0
H236 H 0.6062 0.52708 0.13767 0.0
H237 H 0.61733 0.49835 0.1212 0.0
H238 H 0.60694 0.48712 0.13367 0.0
H239 H 0.59594 0.51572 0.15031 0.0
C240 C 0.41617 0.01427 0.36575 0.0
C241 C 0.41608 1.00904 0.3758 0.0
C242 C 0.40628 0.02427 0.38379 0.0
C243 C 0.41119 0.01399 0.38474 0.0
C244 C 0.40656 0.02951 0.3737 0.0
C245 C 0.41144 0.02456 0.36479 0.0
U246 U 0.43283 0.99185 0.35211 0.0
O247 O 0.42968 0.98312 0.33692 0.0
O248 O 0.44451 0.99281 0.33872 0.0
C249 C 0.4384 0.98702 0.3322 0.0
C250 C 0.42095 1.0091 0.35615 0.0
C251 C 0.43697 0.99114 0.32106 0.0
C252 C 0.4365 1.00577 0.30784 0.0
C253 C 0.4372 1.00225 0.31859 0.0
C254 C 0.43509 0.98717 0.30193 0.0
C255 C 0.43555 0.99827 0.29934 0.0
C256 C 0.43581 0.98367 0.31264 0.0
C257 C 0.4449 0.96946 0.37095 0.0
C258 C 0.46017 0.95713 0.36847 0.0
C259 C 0.44766 0.95435 0.38325 0.0
C260 C 0.44166 0.96337 0.37993 0.0
C261 C 0.45709 0.95118 0.37768 0.0
C262 C 0.45414 0.96622 0.36515 0.0
C263 C 0.4388 0.97945 0.36835 0.0
O264 O 0.43161 1.00933 0.3555 0.0
O265 O 0.41682 0.99967 0.35347 0.0
O266 O 0.42955 0.97825 0.36318 0.0
O267 O 0.44446 0.98783 0.36498 0.0
H268 H 0.41969 1.00109 0.37671 0.0
H269 H 0.41105 1.00966 0.39233 0.0
H270 H 0.40305 0.03749 0.37267 0.0
H271 H 0.41147 0.02875 0.35712 0.0
H272 H 0.43698 0.01437 0.30619 0.0
H273 H 0.43808 1.0082 0.32493 0.0
H274 H 0.43415 0.98114 0.29567 0.0
H275 H 0.43558 0.97506 0.31434 0.0
H276 H 0.46741 0.95497 0.36402 0.0
H277 H 0.44491 0.94986 0.39024 0.0
H278 H 0.43455 0.96572 0.38451 0.0
H279 H 0.45681 0.9708 0.35819 0.0
C280 C 0.56726 0.5557 0.35463 0.0
C281 C 0.56834 0.55562 0.36589 0.0
C282 C 0.55695 0.57179 0.36726 0.0
C283 C 0.56322 0.56357 0.37214 0.0
C284 C 0.55598 0.57183 0.35595 0.0
C285 C 0.56108 0.56387 0.34972 0.0
U286 U 0.58582 0.53102 0.35131 0.0
O287 O 0.58381 0.51645 0.34123 0.0
O288 O 0.59774 0.52723 0.33867 0.0
C289 C 0.59232 0.51873 0.33524 0.0
C290 C 0.57248 0.54734 0.34791 0.0
C291 C 0.59083 0.51776 0.32345 0.0
C292 C 0.5875 0.5256 0.30571 0.0
C293 C 0.58831 0.52674 0.31694 0.0
C294 C 0.59152 0.50649 0.30738 0.0
C295 C 0.58915 0.51546 0.30076 0.0
C296 C 0.59235 0.50764 0.31857 0.0
C297 C 0.59947 0.52017 0.37773 0.0
C298 C 0.60603 0.50231 0.38309 0.0
C299 C 0.61087 0.51806 0.39363 0.0
C300 C 0.60501 0.52465 0.38653 0.0
C301 C 0.61133 0.50678 0.39213 0.0
C302 C 0.60013 0.50894 0.37597 0.0
C303 C 0.59251 0.52737 0.37114 0.0
O304 O 0.58309 0.54811 0.34694 0.0
O305 O 0.56918 0.53736 0.34956 0.0
O306 O 0.58357 0.52319 0.36709 0.0
O307 O 0.59748 0.53402 0.3645 0.0
H308 H 0.57313 0.54939 0.36983 0.0
H309 H 0.56428 0.56334 0.3808 0.0
H310 H 0.55111 0.57791 0.35191 0.0
H311 H 0.56013 0.56406 0.34104 0.0
H312 H 0.58552 0.53267 0.30091 0.0
H313 H 0.58706 0.53463 0.32052 0.0
H314 H 0.593 0.49859 0.3039 0.0
H315 H 0.59435 0.50061 0.32343 0.0
H316 H 0.60617 0.49365 0.3817 0.0
H317 H 0.615 0.52182 0.40036 0.0
H318 H 0.60463 0.53328 0.38805 0.0
H319 H 0.5959 0.50528 0.36924 0.0
C320 C 0.16624 0.45319 0.05628 0.0
C321 C 0.15486 0.45247 0.05601 0.0
C322 C 0.15358 0.4633 0.07244 0.0
C323 C 0.14859 0.45749 0.06401 0.0
C324 C 0.16501 0.46394 0.07264 0.0
C325 C 0.17126 0.45893 0.06465 0.0
U326 U 0.16968 0.43585 0.03087 0.0
O327 O 0.18053 0.43813 0.01698 0.0
O328 O 0.1821 0.42356 0.027 0.0
C329 C 0.18608 0.42924 0.01896 0.0
C330 C 0.17302 0.44805 0.04792 0.0
C331 C 0.19806 0.43008 0.01838 0.0
C332 C 0.21508 0.43975 0.0213 0.0
C333 C 0.20375 0.43901 0.02253 0.0
C334 C 0.21516 0.42259 0.01193 0.0
C335 C 0.22093 0.43159 0.01588 0.0
C336 C 0.20388 0.42186 0.01316 0.0
C337 C 0.14337 0.424 0.01768 0.0
C338 C 0.135 0.4071 0.01174 0.0
C339 C 0.13046 0.42389 1.00273 0.0
C340 C 0.13753 0.42949 1.0096 0.0
C341 C 0.12897 0.41264 1.00381 0.0
C342 C 0.14209 0.4127 0.0186 0.0
C343 C 0.14966 0.43026 0.02581 0.0
O344 O 0.17341 0.43741 0.04816 0.0
O345 O 0.17191 0.45196 0.03812 0.0
O346 O 0.15423 0.43931 0.02254 0.0
O347 O 0.15577 0.42477 0.03259 0.0
H348 H 0.15084 0.44804 0.04963 0.0
H349 H 0.13983 0.45672 0.06365 0.0
H350 H 0.16915 0.46846 0.07888 0.0
H351 H 0.18003 0.4596 0.06497 0.0
H352 H 0.21921 0.44684 0.02439 0.0
H353 H 0.19943 0.44546 0.02659 0.0
H354 H 0.21937 0.41604 1.0079 0.0
H355 H 0.19967 0.41488 1.00992 0.0
H356 H 0.13416 0.39842 0.01273 0.0
H357 H 0.12586 0.42846 0.99684 0.0
H358 H 0.13814 0.4382 1.0088 0.0
H359 H 0.14635 0.4082 0.0248 0.0
C360 C 0.16564 0.56773 0.46471 0.0
C361 C 0.15461 0.56526 0.4662 0.0
C362 C 0.15361 0.55752 0.4481 0.0
C363 C 0.14865 0.56019 0.45798 0.0
C364 C 0.16462 0.56025 0.44662 0.0
C365 C 0.17056 0.56527 0.45483 0.0
U366 U 0.1689 0.58451 0.49062 0.0
O367 O 0.17938 0.58153 0.50475 0.0
O368 O 0.18157 0.59626 0.49509 0.0
C369 C 0.18525 0.59026 0.50306 0.0
C370 C 0.17225 0.57262 0.47337 0.0
C371 C 0.19719 0.58895 0.50387 0.0
C372 C 0.21525 0.58789 0.49587 0.0
C373 C 0.2039 0.5885 0.49473 0.0
C374 C 0.21329 0.58792 0.51526 0.0
C375 C 0.22011 0.5877 0.50616 0.0
C376 C 0.20199 0.58855 0.51412 0.0
C377 C 0.14267 0.59673 0.50358 0.0
C378 C 0.13427 0.6136 0.50956 0.0
C379 C 0.12981 0.59679 0.51854 0.0
C380 C 0.13686 0.59121 0.51166 0.0
C381 C 0.12828 0.60804 0.51748 0.0
C382 C 0.14135 0.60802 0.50268 0.0
C383 C 0.14894 0.59052 0.49541 0.0
O384 O 0.17289 0.58325 0.47334 0.0
O385 O 0.17091 0.56854 0.48307 0.0
O386 O 0.15321 0.58125 0.4985 0.0
O387 O 0.15533 0.59603 0.48891 0.0
H388 H 0.15063 0.56711 0.47376 0.0
H389 H 0.14023 0.55814 0.45948 0.0
H390 H 0.16868 0.55853 0.43907 0.0
H391 H 0.17905 0.56717 0.45349 0.0
H392 H 0.2202 0.58782 0.48867 0.0
H393 H 0.2004 0.58879 0.48673 0.0
H394 H 0.21667 0.58758 0.52331 0.0
H395 H 0.19698 0.58885 0.52128 0.0
H396 H 0.13342 0.62228 0.50858 0.0
H397 H 0.12523 0.5922 0.52442 0.0
H398 H 0.1375 0.5825 0.51245 0.0
H399 H 0.14557 0.61254 0.49649 0.0
C400 C 0.85484 0.95201 0.46337 0.0
C401 C 0.86534 0.95613 0.46513 0.0
C402 C 0.86667 0.96159 0.44624 0.0
C403 C 0.87117 0.96092 0.45666 0.0
C404 C 0.85619 0.95736 0.44453 0.0
C405 C 0.85034 0.95266 0.453 0.0
U406 U 0.85202 0.93443 0.48885 0.0
O407 O 0.84198 0.93686 0.50335 0.0
O408 O 0.83936 0.92261 0.49317 0.0
C409 C 0.83599 0.92825 0.50149 0.0
C410 C 0.84837 0.94709 0.47217 0.0
C411 C 0.8241 0.92966 0.50249 0.0
C412 C 0.80657 0.9356 0.4955 0.0
C413 C 0.81789 0.93466 0.49439 0.0
C414 C 0.80757 0.92665 0.51283 0.0
C415 C 0.80124 0.93158 0.50474 0.0
C416 C 0.81886 0.92571 0.51171 0.0
C417 C 0.87879 0.92111 0.49968 0.0
C418 C 0.88418 0.91475 0.51752 0.0
C419 C 0.8949 0.90989 0.50192 0.0
C420 C 0.88772 0.91562 0.49529 0.0
C421 C 0.89335 0.90951 0.51314 0.0
C422 C 0.87698 0.92053 0.51085 0.0
C423 C 0.87206 0.92786 0.49242 0.0
O424 O 0.84732 0.9365 0.47182 0.0
O425 O 0.85016 0.95076 0.48195 0.0
O426 O 0.86804 0.93689 0.49638 0.0
O427 O 0.86527 0.92274 0.48604 0.0
H428 H 0.86904 0.95567 0.47304 0.0
H429 H 0.87927 0.96397 0.45824 0.0
H430 H 0.8524 0.95785 0.43666 0.0
H431 H 0.84226 0.94955 0.45146 0.0
H432 H 0.802 0.93955 0.48915 0.0
H433 H 0.82179 0.93779 0.48721 0.0
H434 H 0.8038 0.92329 0.51997 0.0
H435 H 0.82349 0.92178 0.51804 0.0
H436 H 0.88276 0.91466 0.52612 0.0
H437 H 0.90173 0.9058 0.49823 0.0
H438 H 0.88927 0.91594 0.48671 0.0
H439 H 0.87014 0.92471 0.51444 0.0
C440 C 0.35672 0.56886 0.55683 0.0
C441 C 0.36691 0.56409 0.5549 0.0
C442 C 0.36869 0.55935 0.57394 0.0
C443 C 0.37281 0.55934 0.56336 0.0
C444 C 0.35855 0.56427 0.57584 0.0
C445 C 0.35264 0.56894 0.56738 0.0
U446 U 0.35314 0.5853 0.53061 0.0
O447 O 0.34258 0.58211 0.51659 0.0
O448 O 0.34034 0.59691 0.52608 0.0
C449 C 0.33665 0.59081 0.51821 0.0
C450 C 0.35006 0.57354 0.54803 0.0
C451 C 0.32472 0.58938 0.51758 0.0
C452 C 0.30691 0.58747 0.52593 0.0
C453 C 0.31826 0.58823 0.52683 0.0
C454 C 0.30836 0.58879 0.50654 0.0
C455 C 0.30179 0.58781 0.51576 0.0
C456 C 0.31967 0.58958 0.50745 0.0
C457 C 0.3792 0.59776 0.51749 0.0
C458 C 0.38531 0.61494 0.50985 0.0
C459 C 0.39394 0.59823 0.50439 0.0
C460 C 0.38699 0.59241 0.51119 0.0
C461 C 0.39335 0.6096 0.50377 0.0
C462 C 0.37834 0.6091 0.51665 0.0
C463 C 0.373 0.59151 0.52569 0.0
O464 O 0.3492 0.58415 0.54791 0.0
O465 O 0.35141 0.56937 0.53838 0.0
O466 O 0.36884 0.5822 0.52262 0.0
O467 O 0.36657 0.59696 0.53218 0.0
H468 H 0.37029 0.56397 0.54685 0.0
H469 H 0.38064 0.55574 0.56163 0.0
H470 H 0.35506 0.56432 0.58384 0.0
H471 H 0.34479 0.57254 0.56906 0.0
H472 H 0.30214 0.58658 0.53321 0.0
H473 H 0.32197 0.58801 0.53475 0.0
H474 H 0.30475 0.58924 0.49859 0.0
H475 H 0.32449 0.59051 0.50021 0.0
H476 H 0.38466 0.62368 0.50969 0.0
H477 H 0.39988 0.5938 0.49971 0.0
H478 H 0.38792 0.58369 0.51173 0.0
H479 H 0.3725 0.61352 0.52146 0.0
C480 C 0.96457 0.85601 0.56833 0.0
C481 C 0.96623 0.86709 0.56639 0.0
C482 C 0.94845 0.86847 0.5577 0.0
C483 C 0.95826 0.87325 0.56109 0.0
C484 C 0.94676 0.8574 0.55986 0.0
C485 C 0.95475 0.85124 0.5651 0.0
U486 U 0.98931 0.85243 0.58688 0.0
O487 O 0.99318 0.83937 0.59837 0.0
O488 O 1.00409 0.84253 0.58475 0.0
C489 C 1.00181 0.83621 0.59298 0.0
C490 C 0.973 0.84925 0.57353 0.0
C491 C 1.00312 0.82442 0.59121 0.0
C492 C 0.99583 0.80619 0.58891 0.0
C493 C 0.9942 0.81739 0.5901 0.0
C494 C 0.01528 0.80892 0.58978 0.0
C495 C 1.00641 0.8018 0.58874 0.0
C496 C 0.01365 0.82007 0.591 0.0
C497 C 1.00012 0.87868 0.60098 0.0
C498 C 0.01801 0.88549 0.60609 0.0
C499 C 1.00185 0.89341 0.61389 0.0
C500 C 0.9954 0.8862 0.60802 0.0
C501 C 0.01324 0.8933 0.61287 0.0
C502 C 0.01152 0.87826 0.60018 0.0
C503 C 0.99289 0.8722 0.59394 0.0
O504 O 0.98305 0.85094 0.57034 0.0
O505 O 0.97216 0.84807 0.58402 0.0
O506 O 0.98625 0.86538 0.59872 0.0
O507 O 0.99702 0.86839 0.58495 0.0
H508 H 0.97371 0.87097 0.56889 0.0
H509 H 0.95978 0.88178 0.55969 0.0
H510 H 0.93938 0.85341 0.55727 0.0
H511 H 0.9533 0.8427 0.56652 0.0
H512 H 0.98881 0.80098 0.58802 0.0
H513 H 0.98599 0.82054 0.5902 0.0
H514 H 0.02353 0.80587 0.58986 0.0
H515 H 0.02065 0.82531 0.59191 0.0
H516 H 0.02674 0.8852 0.60506 0.0
H517 H 0.99789 0.89915 0.61917 0.0
H518 H 0.98664 0.88671 0.60876 0.0
H519 H 0.0154 0.87257 0.59479 0.0
C520 C 1.00717 0.65373 0.60451 0.0
C521 C 0.01129 0.64344 0.60197 0.0
C522 C 0.99752 0.63486 0.61331 0.0
C523 C 1.00651 0.6341 0.60632 0.0
C524 C 0.99347 0.64523 0.61583 0.0
C525 C 0.99825 0.65454 0.61147 0.0
U526 U 0.02865 0.66821 0.58742 0.0
O527 O 0.02703 0.68204 0.57633 0.0
O528 O 0.0376 0.68339 0.59052 0.0
C529 C 0.03326 0.68837 0.58219 0.0
C530 C 0.01205 0.66365 0.59997 0.0
C531 C 0.0295 0.69964 0.58395 0.0
C532 C 0.01529 0.71341 0.58473 0.0
C533 C 0.01843 0.70249 0.58396 0.0
C534 C 0.03419 0.71871 0.58575 0.0
C535 C 0.02315 0.72169 0.58546 0.0
C536 C 0.03731 0.70784 0.58499 0.0
C537 C 0.05059 0.65017 0.5734 0.0
C538 C 0.05848 0.64479 0.55618 0.0
C539 C 0.06981 0.64541 0.5721 0.0
C540 C 0.06087 0.64881 0.5782 0.0
C541 C 0.0687 0.64318 0.56103 0.0
C542 C 0.04954 0.64819 0.56229 0.0
C543 C 0.04085 0.65227 0.58018 0.0
O544 O 0.02174 0.66617 0.60366 0.0
O545 O 0.01121 0.6648 0.58948 0.0
O546 O 0.03199 0.65566 0.57528 0.0
O547 O 0.04244 0.65702 0.58953 0.0
H548 H 0.01821 0.64265 0.59664 0.0
H549 H 1.00993 0.62629 0.6043 0.0
H550 H 0.98649 0.64615 0.62104 0.0
H551 H 0.99494 0.66241 0.6135 0.0
H552 H 1.00672 0.71538 0.58443 0.0
H553 H 0.01223 0.69632 0.58316 0.0
H554 H 0.04047 0.72479 0.58653 0.0
H555 H 0.04589 0.70585 0.58502 0.0
H556 H 0.05726 0.64302 0.54773 0.0
H557 H 0.07757 0.6444 0.57609 0.0
H558 H 0.06197 0.6501 0.58676 0.0
H559 H 0.04172 0.64894 0.55834 0.0
C560 C 0.96438 0.16592 0.95262 0.0
C561 C 0.96542 0.15466 0.95385 0.0
C562 C 0.94827 0.15395 0.96377 0.0
C563 C 0.95744 0.14873 0.95937 0.0
C564 C 0.94725 0.16522 0.96235 0.0
C565 C 0.95522 0.17113 0.95685 0.0
U566 U 0.98898 0.16886 0.93374 0.0
O567 O 0.99228 0.18136 0.92143 0.0
O568 O 1.00339 0.17932 0.93513 0.0
C569 C 1.00078 0.18515 0.92663 0.0
C570 C 0.97274 0.17241 0.94705 0.0
C571 C 1.00149 0.19711 0.92768 0.0
C572 C 1.00331 0.21355 0.93844 0.0
C573 C 1.00177 0.2023 0.93776 0.0
C574 C 1.00404 0.21465 0.919 0.0
C575 C 1.0046 0.21988 0.92906 0.0
C576 C 1.00253 0.20343 0.91833 0.0
C577 C 1.00009 0.14224 0.92064 0.0
C578 C 0.018 0.13675 0.91426 0.0
C579 C 1.00211 0.12637 0.90921 0.0
C580 C 0.99554 0.13351 0.91502 0.0
C581 C 0.01346 0.12777 0.90889 0.0
C582 C 0.01138 0.14391 0.92011 0.0
C583 C 0.99288 0.14886 0.92754 0.0
O584 O 0.98282 0.17093 0.95025 0.0
O585 O 0.97179 0.17304 0.93652 0.0
O586 O 0.98596 0.15528 0.9226 0.0
O587 O 0.99717 0.15321 0.93623 0.0
H588 H 0.97243 0.15047 0.95061 0.0
H589 H 0.95858 0.14009 0.96038 0.0
H590 H 0.94023 0.16951 0.96542 0.0
H591 H 0.95423 0.1798 0.95592 0.0
H592 H 1.00379 0.21723 0.94633 0.0
H593 H 1.00101 0.19766 0.94513 0.0
H594 H 1.00478 0.21923 0.91159 0.0
H595 H 1.00234 0.19965 0.91047 0.0
H596 H 0.0267 0.13805 0.91423 0.0
H597 H 0.9983 0.1197 0.90501 0.0
H598 H 0.98685 0.13206 0.9153 0.0
H599 H 0.0151 0.15058 0.9244 0.0
C600 C 1.00765 0.36788 0.91649 0.0
C601 C 0.01155 0.37815 0.9194 0.0
C602 C 0.998 0.38682 0.90781 0.0
C603 C 1.00676 0.38753 0.91511 0.0
C604 C 0.99418 0.37647 0.90492 0.0
C605 C 0.99896 0.36712 0.90923 0.0
U606 U 0.02907 0.353 0.93347 0.0
O607 O 0.02733 0.33896 0.9443 0.0
O608 O 0.03792 0.33782 0.93013 0.0
C609 C 0.03345 0.33267 0.93827 0.0
C610 C 0.01251 0.35789 0.92094 0.0
C611 C 0.02947 0.32153 0.93612 0.0
C612 C 0.01534 0.30766 0.93644 0.0
C613 C 0.01857 0.31849 0.93776 0.0
C614 C 0.03375 0.30279 0.93165 0.0
C615 C 0.0229 0.29964 0.93343 0.0
C616 C 0.03697 0.31358 0.933 0.0
C617 C 0.05115 0.37068 0.94782 0.0
C618 C 0.05906 0.37605 0.96506 0.0
C619 C 0.07042 0.37522 0.9492 0.0
C620 C 0.06146 0.37188 0.94307 0.0
C621 C 0.06931 0.37752 0.96024 0.0
C622 C 0.0501 0.37272 0.95892 0.0
C623 C 0.04138 0.36871 0.94101 0.0
O624 O 0.02219 0.35538 0.91725 0.0
O625 O 0.01167 0.35662 0.93142 0.0
O626 O 0.03252 0.36529 0.94586 0.0
O627 O 0.04294 0.36412 0.93159 0.0
H628 H 0.01829 0.3789 0.92497 0.0
H629 H 1.01001 0.39534 0.91742 0.0
H630 H 0.98737 0.37558 0.89947 0.0
H631 H 0.99582 0.35926 0.9069 0.0
H632 H 1.0069 0.30557 0.93776 0.0
H633 H 0.01258 0.32443 0.94017 0.0
H634 H 0.03985 0.29687 0.92949 0.0
H635 H 0.04544 0.31567 0.93179 0.0
H636 H 0.05784 0.37788 0.9735 0.0
H637 H 0.0782 0.37612 0.94523 0.0
H638 H 0.06257 0.37054 0.93452 0.0
H639 H 0.04226 0.37209 0.96283 0.0
C640 C 0.5691 0.96454 0.85525 0.0
C641 C 0.5669 0.96651 0.86617 0.0
C642 C 0.55837 0.94872 0.86793 0.0
C643 C 0.56156 0.9587 0.87244 0.0
C644 C 0.56077 0.94674 0.85702 0.0
C645 C 0.56606 0.95458 0.85076 0.0
U646 U 0.58748 0.98938 0.85126 0.0
O647 O 0.59971 0.99266 0.83867 0.0
O648 O 0.58562 1.0034 0.84044 0.0
C649 C 0.5943 1.00097 0.83476 0.0
C650 C 0.57443 0.97275 0.84838 0.0
C651 C 0.59327 1.00157 0.82288 0.0
C652 C 0.58273 1.00041 0.80627 0.0
C653 C 0.58354 0.99907 0.81749 0.0
C654 C 0.60139 1.00654 0.80568 0.0
C655 C 0.59162 1.00428 0.80022 0.0
C656 C 0.60219 1.00521 0.81686 0.0
C657 C 0.60091 1.00178 0.87704 0.0
C658 C 0.60418 0.01945 0.88522 0.0
C659 C 0.61611 1.00444 0.88938 0.0
C660 C 0.61003 0.99775 0.88256 0.0
C661 C 0.61321 0.01535 0.89091 0.0
C662 C 0.5981 0.01274 0.87837 0.0
C663 C 0.59391 0.99412 0.87094 0.0
O664 O 0.57097 0.98277 0.84947 0.0
O665 O 0.58507 0.97206 0.84768 0.0
O666 O 0.59889 0.98705 0.86476 0.0
O667 O 0.58492 0.99793 0.86661 0.0
H668 H 0.56926 0.97411 0.86983 0.0
H669 H 0.55999 0.96045 0.88084 0.0
H670 H 0.55834 0.93923 0.85324 0.0
H671 H 0.56768 0.95289 0.84235 0.0
H672 H 0.57505 0.99865 0.80239 0.0
H673 H 0.57654 0.99625 0.82195 0.0
H674 H 0.60848 1.00932 0.80132 0.0
H675 H 0.60979 1.00716 0.82083 0.0
H676 H 0.60177 0.02783 0.8861 0.0
H677 H 0.62288 1.00092 0.89373 0.0
H678 H 0.6123 0.9893 0.88186 0.0
H679 H 0.59107 0.01611 0.87431 0.0
C680 C 0.41531 0.50874 0.86524 0.0
C681 C 0.42016 0.5095 0.87547 0.0
C682 C 0.40522 0.49923 0.88346 0.0
C683 C 0.41518 0.50474 0.88448 0.0
C684 C 0.40039 0.49855 0.87319 0.0
C685 C 0.4054 0.50324 0.8642 0.0
U686 U 0.43286 0.53039 0.85139 0.0
O687 O 0.44461 0.52894 0.83811 0.0
O688 O 0.43011 0.53909 0.83608 0.0
C689 C 0.43874 0.53487 0.83148 0.0
C690 C 0.42036 0.51362 0.85558 0.0
C691 C 0.43729 0.53073 0.82036 0.0
C692 C 0.43677 0.51607 0.80722 0.0
C693 C 0.43744 0.51961 0.81795 0.0
C694 C 0.43555 0.53467 0.8012 0.0
C695 C 0.43595 0.52357 0.79867 0.0
C696 C 0.43623 0.53819 0.81189 0.0
C697 C 0.44527 0.5526 0.87018 0.0
C698 C 0.46093 0.56449 0.86801 0.0
C699 C 0.448 0.56782 0.8823 0.0
C700 C 0.44189 0.55891 0.87893 0.0
C701 C 0.45769 0.57066 0.877 0.0
C702 C 0.45479 0.55552 0.86465 0.0
C703 C 0.43898 0.54275 0.86755 0.0
O704 O 0.41654 0.52313 0.85269 0.0
O705 O 0.43102 0.51301 0.85495 0.0
O706 O 0.44447 0.53421 0.86433 0.0
O707 O 0.42983 0.54417 0.86226 0.0
H708 H 0.42777 0.51378 0.8765 0.0
H709 H 0.41906 0.50553 0.89227 0.0
H710 H 0.3928 0.49427 0.87207 0.0
H711 H 0.40152 0.50255 0.85639 0.0
H712 H 0.43719 0.50746 0.80562 0.0
H713 H 0.43825 0.51367 0.82433 0.0
H714 H 0.4347 0.5407 0.7949 0.0
H715 H 0.43607 0.54681 0.81354 0.0
H716 H 0.46837 0.56641 0.86377 0.0
H717 H 0.44512 0.57249 0.88911 0.0
H718 H 0.43456 0.55682 0.88331 0.0
H719 H 0.45758 0.55076 0.85787 0.0
C720 C 0.56895 0.05592 0.66451 0.0
C721 C 0.56563 0.05377 0.65389 0.0
C722 C 0.55837 0.07212 0.65213 0.0
C723 C 0.56036 0.06177 0.64778 0.0
C724 C 0.56191 0.07428 0.66269 0.0
C725 C 0.56711 0.06626 0.66881 0.0
U726 U 0.58721 0.03091 0.66856 0.0
O727 O 0.59886 0.02722 0.68152 0.0
O728 O 0.58484 0.01657 0.67894 0.0
C729 C 0.59327 0.01885 0.68502 0.0
C730 C 0.57408 0.04749 0.67132 0.0
C731 C 0.59165 0.01803 0.69682 0.0
C732 C 0.58944 0.02614 0.71458 0.0
C733 C 0.59026 0.02721 0.70334 0.0
C734 C 0.59114 1.00669 0.7129 0.0
C735 C 0.58996 0.01586 0.71953 0.0
C736 C 0.59199 1.00778 0.7017 0.0
C737 C 0.60149 0.01915 0.64296 0.0
C738 C 0.60562 1.00133 0.63552 0.0
C739 C 0.61628 0.01687 0.63012 0.0
C740 C 0.61005 0.02348 0.63686 0.0
C741 C 0.61408 1.00572 0.62925 0.0
C742 C 0.59938 1.00796 0.6423 0.0
C743 C 0.59433 0.02666 0.64902 0.0
O744 O 0.57066 0.03751 0.66989 0.0
O745 O 0.58468 0.04816 0.67245 0.0
O746 O 0.59914 0.03351 0.65557 0.0
O747 O 0.58518 0.02278 0.65291 0.0
H748 H 0.56703 0.04588 0.65035 0.0
H749 H 0.55788 0.05986 0.63963 0.0
H750 H 0.56043 0.08209 0.66635 0.0
H751 H 0.5696 0.0681 0.67698 0.0
H752 H 0.58839 0.03337 0.71939 0.0
H753 H 0.58993 0.03522 0.69977 0.0
H754 H 0.59173 0.99866 0.71638 0.0
H755 H 0.59311 1.00058 0.69684 0.0
H756 H 0.60376 0.99277 0.63516 0.0
H757 H 0.6226 0.02059 0.62532 0.0
H758 H 0.61176 0.03208 0.63709 0.0
H759 H 0.59281 1.00436 0.64685 0.0
C760 C 0.41571 0.5131 0.65518 0.0
C761 C 0.41973 0.51118 0.64477 0.0
C762 C 0.40611 0.5234 0.63708 0.0
C763 C 0.41499 0.51629 0.63581 0.0
C764 C 0.40208 0.52517 0.64755 0.0
C765 C 0.40683 0.52009 0.65648 0.0
U766 U 0.43271 0.49083 0.66881 0.0
O767 O 0.44452 0.49191 0.6821 0.0
O768 O 0.42979 0.4821 0.68406 0.0
C769 C 0.43853 0.48608 0.68869 0.0
C770 C 0.42061 0.50795 0.66477 0.0
C771 C 0.43715 0.49029 0.69977 0.0
C772 C 0.43474 0.50511 0.7125 0.0
C773 C 0.43553 0.50136 0.70185 0.0
C774 C 0.43699 0.48678 0.71908 0.0
C775 C 0.43551 0.49787 0.72128 0.0
C776 C 0.43781 0.48306 0.70846 0.0
C777 C 0.44472 0.46855 0.64989 0.0
C778 C 0.45995 0.45616 0.65236 0.0
C779 C 0.44748 0.45356 0.63749 0.0
C780 C 0.44149 0.46256 0.64086 0.0
C781 C 0.45688 0.45031 0.64309 0.0
C782 C 0.45394 0.46522 0.65572 0.0
C783 C 0.43859 0.47849 0.65256 0.0
O784 O 0.41657 0.49848 0.6675 0.0
O785 O 0.43127 0.50828 0.66542 0.0
O786 O 0.44424 0.48689 0.65586 0.0
O787 O 0.42942 0.4772 0.65782 0.0
H788 H 0.42656 0.50578 0.64358 0.0
H789 H 0.4184 0.51479 0.62792 0.0
H790 H 0.39514 0.5304 0.64886 0.0
H791 H 0.40356 0.52163 0.66443 0.0
H792 H 0.43346 0.51367 0.71386 0.0
H793 H 0.43495 0.5071 0.69527 0.0
H794 H 0.43777 0.48097 0.72558 0.0
H795 H 0.4391 0.4745 0.70705 0.0
H796 H 0.46717 0.45392 0.65683 0.0
H797 H 0.44473 0.44915 0.63047 0.0
H798 H 0.43439 0.46497 0.63626 0.0
H799 H 0.45659 0.46972 0.66272 0.0
C800 C 0.85486 0.56958 0.96466 0.0
C801 C 0.86579 0.5666 0.9661 0.0
C802 C 0.86664 0.55982 0.94764 0.0
C803 C 0.87161 0.56172 0.95769 0.0
C804 C 0.85571 0.5629 0.94624 0.0
C805 C 0.84989 0.5677 0.95466 0.0
U806 U 0.85242 0.58728 0.98996 0.0
O807 O 0.83992 0.59922 0.99436 0.0
O808 O 0.84256 0.58497 1.00462 0.0
C809 C 0.83662 0.59364 1.00277 0.0
C810 C 0.84847 0.57459 0.97342 0.0
C811 C 0.82474 0.5924 1.00405 0.0
C812 C 0.80669 0.58845 0.99693 0.0
C813 C 0.81801 0.58902 0.99554 0.0
C814 C 0.80874 0.59447 0.01537 0.0
C815 C 0.80188 0.59129 1.00685 0.0
C816 C 0.82001 0.59502 0.01397 0.0
C817 C 0.87936 0.60032 1.00049 0.0
C818 C 0.88403 0.60763 0.01812 0.0
C819 C 0.89601 0.61064 1.00296 0.0
C820 C 0.8889 0.60488 0.99631 0.0
C821 C 0.89377 0.61198 0.01399 0.0
C822 C 0.8769 0.60182 0.01143 0.0
C823 C 0.87257 0.59364 0.99327 0.0
O824 O 0.85032 0.57095 0.98321 0.0
O825 O 0.84753 0.58519 0.97299 0.0
O826 O 0.86575 0.59884 0.98696 0.0
O827 O 0.8685 0.58466 0.9973 0.0
H828 H 0.86983 0.56804 0.97372 0.0
H829 H 0.88004 0.55958 0.95901 0.0
H830 H 0.85158 0.56144 0.93867 0.0
H831 H 0.84147 0.56992 0.95337 0.0
H832 H 0.80169 0.58605 0.99017 0.0
H833 H 0.8215 0.58696 0.9878 0.0
H834 H 0.8054 0.59651 0.02317 0.0
H835 H 0.82504 0.5976 0.02066 0.0
H836 H 0.88206 0.60846 0.02658 0.0
H837 H 0.9033 0.61404 0.99944 0.0
H838 H 0.89095 0.60385 0.98789 0.0
H839 H 0.86957 0.59836 0.01483 0.0
C840 C 0.85539 0.4536 0.5552 0.0
C841 C 0.86603 0.45014 0.55747 0.0
C842 C 0.86765 0.46374 0.57168 0.0
C843 C 0.87208 0.45514 0.56565 0.0
C844 C 0.85702 0.46721 0.56926 0.0
C845 C 0.85097 0.46219 0.56112 0.0
U846 U 0.85214 0.43575 0.53006 0.0
O847 O 0.83981 0.4233 0.5264 0.0
O848 O 0.84127 0.43768 0.5161 0.0
C849 C 0.83577 0.42881 0.51826 0.0
C850 C 0.84872 0.44828 0.54684 0.0
C851 C 0.82377 0.42958 0.51768 0.0
C852 C 0.80677 0.43952 0.51972 0.0
C853 C 0.8181 0.43888 0.52097 0.0
C854 C 0.80662 0.42151 0.51208 0.0
C855 C 0.80088 0.43087 0.51515 0.0
C856 C 0.81792 0.42089 0.51332 0.0
C857 C 0.87855 0.42383 0.51733 0.0
C858 C 0.88283 0.40689 0.50819 0.0
C859 C 0.89475 0.42234 0.50617 0.0
C860 C 0.88792 0.42843 0.51282 0.0
C861 C 0.89239 0.41143 0.50388 0.0
C862 C 0.87597 0.41302 0.51484 0.0
C863 C 0.87221 0.43022 0.52523 0.0
O864 O 0.84986 0.45202 0.53699 0.0
O865 O 0.84832 0.43765 0.54726 0.0
O866 O 0.86612 0.42482 0.53208 0.0
O867 O 0.86757 0.43912 0.52166 0.0
H868 H 0.86962 0.44356 0.55295 0.0
H869 H 0.88028 0.45234 0.56719 0.0
H870 H 0.85327 0.47369 0.5738 0.0
H871 H 0.84277 0.46496 0.55951 0.0
H872 H 0.80267 0.44689 0.52211 0.0
H873 H 0.82244 0.44571 0.52436 0.0
H874 H 0.80239 0.4146 0.50873 0.0
H875 H 0.82211 0.41362 0.51076 0.0
H876 H 0.88067 0.39857 0.50649 0.0
H877 H 0.90209 0.42608 0.50313 0.0
H878 H 0.89014 0.43671 0.51469 0.0
H879 H 0.86878 0.40924 0.51818 0.0
C880 C 0.16707 0.06854 0.55745 0.0
C881 C 0.15605 0.06605 0.55583 0.0
C882 C 0.15503 0.05779 0.57373 0.0
C883 C 0.15009 0.06072 0.56388 0.0
C884 C 0.16603 0.06051 0.57533 0.0
C885 C 0.17197 0.0658 0.56729 0.0
U886 U 0.17041 0.08632 0.53212 0.0
O887 O 0.18285 0.09866 0.5285 0.0
O888 O 0.18136 0.08428 0.51825 0.0
C889 C 0.18698 0.09306 0.52049 0.0
C890 C 0.17368 0.07382 0.54901 0.0
C891 C 0.19901 0.09223 0.52012 0.0
C892 C 0.21582 0.08176 0.51916 0.0
C893 C 0.20447 0.08221 0.52025 0.0
C894 C 0.21648 0.1013 0.51799 0.0
C895 C 0.22198 0.0913 0.51798 0.0
C896 C 0.20516 0.10174 0.51903 0.0
C897 C 0.14409 0.09887 0.51943 0.0
C898 C 0.13442 0.10071 0.50233 0.0
C899 C 0.13203 0.11423 0.5162 0.0
C900 C 0.13927 0.10859 0.52287 0.0
C901 C 0.12933 0.11026 0.50591 0.0
C902 C 0.14168 0.09506 0.50901 0.0
C903 C 0.15044 0.09224 0.52724 0.0
O904 O 0.17251 0.07008 0.53917 0.0
O905 O 0.17415 0.08445 0.54941 0.0
O906 O 0.15661 0.0975 0.53412 0.0
O907 O 0.15494 0.08326 0.52372 0.0
H908 H 0.15209 0.06812 0.54831 0.0
H909 H 0.14169 0.05869 0.5623 0.0
H910 H 0.17007 0.05859 0.58285 0.0
H911 H 0.18044 0.06771 0.56873 0.0
H912 H 0.21978 0.07392 0.51931 0.0
H913 H 0.19997 0.07472 0.52108 0.0
H914 H 0.22089 0.10882 0.51694 0.0
H915 H 0.20116 0.10956 0.5188 0.0
H916 H 0.13247 0.09733 0.49452 0.0
H917 H 0.12842 0.12164 0.51918 0.0
H918 H 0.14084 0.11169 0.53088 0.0
H919 H 0.14511 0.08753 0.50613 0.0
C920 C 0.66471 0.45259 0.46397 0.0
C921 C 0.65357 0.45444 0.46562 0.0
C922 C 0.65211 0.4632 0.44801 0.0
C923 C 0.64735 0.45972 0.45774 0.0
C924 C 0.66323 0.46113 0.44634 0.0
C925 C 0.66945 0.4559 0.45425 0.0
U926 U 0.66827 0.43453 0.48892 0.0
O927 O 0.68105 0.4227 0.49287 0.0
O928 O 0.67859 0.43682 0.50329 0.0
C929 C 0.6846 0.42828 0.50118 0.0
C930 C 0.67153 0.44741 0.47234 0.0
C931 C 0.69651 0.42975 0.50203 0.0
C932 C 0.71434 0.43279 0.49405 0.0
C933 C 0.703 0.43195 0.49299 0.0
C934 C 0.71279 0.42946 0.5132 0.0
C935 C 0.7194 0.43151 0.50417 0.0
C936 C 0.7015 0.42859 0.51213 0.0
C937 C 0.64185 0.42136 0.50047 0.0
C938 C 0.63806 0.41407 0.51832 0.0
C939 C 0.62534 0.41104 0.50374 0.0
C940 C 0.63211 0.41681 0.49676 0.0
C941 C 0.62815 0.40966 0.51466 0.0
C942 C 0.64485 0.41987 0.51129 0.0
C943 C 0.64829 0.42808 0.49295 0.0
O944 O 0.67011 0.45093 0.48223 0.0
O945 O 0.67239 0.43682 0.47178 0.0
O946 O 0.65489 0.42291 0.48642 0.0
O947 O 0.65246 0.43707 0.4968 0.0
H948 H 0.64972 0.45187 0.47304 0.0
H949 H 0.63878 0.46105 0.45925 0.0
H950 H 0.6672 0.46379 0.43902 0.0
H951 H 0.67803 0.45454 0.45281 0.0
H952 H 0.71913 0.43451 0.48694 0.0
H953 H 0.69933 0.43292 0.48511 0.0
H954 H 0.71636 0.42827 0.52109 0.0
H955 H 0.69665 0.42686 0.51921 0.0
H956 H 0.64056 0.41307 0.52663 0.0
H957 H 0.61773 0.40795 0.50063 0.0
H958 H 0.62961 0.41793 0.48846 0.0
H959 H 0.65236 0.42329 0.51433 0.0
C960 C 0.50914 0.65342 0.91521 0.0
C961 C 0.51128 0.64316 0.91964 0.0
C962 C 0.4991 0.63469 0.90656 0.0
C963 C 0.50629 0.6339 0.91538 0.0
C964 C 0.49712 0.645 0.90208 0.0
C965 C 0.50208 0.65424 0.90638 0.0
U966 U 0.53093 0.66784 0.93202 0.0
O967 O 0.53977 0.68305 0.92882 0.0
O968 O 0.52951 0.6816 0.94319 0.0
C969 C 0.53547 0.68802 0.93714 0.0
C970 C 0.51411 0.66332 0.91971 0.0
C971 C 0.53139 0.69919 0.93525 0.0
C972 C 0.51726 0.71305 0.93632 0.0
C973 C 0.52059 0.70222 0.93745 0.0
C974 C 0.53538 0.71797 0.93059 0.0
C975 C 0.52464 0.72109 0.93293 0.0
C976 C 0.5387 0.70718 0.93176 0.0
C977 C 0.55292 0.64925 0.94529 0.0
C978 C 0.56599 0.65347 0.95942 0.0
C979 C 0.56706 0.63632 0.95006 0.0
C980 C 0.55809 0.63925 0.94378 0.0
C981 C 0.57113 0.64335 0.95802 0.0
C982 C 0.55697 0.6564 0.9531 0.0
C983 C 0.54314 0.65168 0.93882 0.0
O984 O 0.51347 0.66443 0.93023 0.0
O985 O 0.52372 0.66589 0.91587 0.0
O986 O 0.54471 0.65668 0.9296 0.0
O987 O 0.53457 0.65522 0.94406 0.0
H988 H 0.51678 0.64233 0.92641 0.0
H989 H 0.50813 0.6261 0.91895 0.0
H990 H 0.49155 0.64595 0.89539 0.0
H991 H 0.50032 0.66208 0.90284 0.0
H992 H 0.5089 0.71511 0.93807 0.0
H993 H 0.51474 0.69626 0.94016 0.0
H994 H 0.54135 0.72392 0.92812 0.0
H995 H 0.5471 0.7051 0.93012 0.0
H996 H 0.56896 0.65914 0.96538 0.0
H997 H 0.57063 0.6284 0.94885 0.0
H998 H 0.55505 0.63359 0.93784 0.0
H999 H 0.55311 0.66418 0.95438 0.0
C1000 C 0.46547 0.8556 0.95274 0.0
C1001 C 0.46761 0.8664 0.95558 0.0
C1002 C 0.44959 0.86805 0.96367 0.0
C1003 C 0.45977 0.87255 0.96102 0.0
C1004 C 0.44744 0.85728 0.96064 0.0
C1005 C 0.45531 0.85113 0.95526 0.0
U1006 U 0.49 0.85197 0.93394 0.0
O1007 O 0.50428 0.84132 0.93542 0.0
O1008 O 0.49313 0.83936 0.92175 0.0
C1009 C 0.5016 0.83549 0.92696 0.0
C1010 C 0.47369 0.84883 0.94727 0.0
C1011 C 0.50226 0.82351 0.92804 0.0
C1012 C 0.50492 0.8071 0.93873 0.0
C1013 C 0.50332 0.81835 0.9381 0.0
C1014 C 0.50414 0.80594 0.9193 0.0
C1015 C 0.5055 0.80075 0.92932 0.0
C1016 C 0.50257 0.81716 0.91868 0.0
C1017 C 0.5014 0.87843 0.92062 0.0
C1018 C 0.51935 0.88394 0.91434 0.0
C1019 C 0.50346 0.89419 0.90898 0.0
C1020 C 0.49686 0.88708 0.91482 0.0
C1021 C 0.51481 0.89284 0.90879 0.0
C1022 C 0.51271 0.87682 0.92023 0.0
C1023 C 0.49416 0.87189 0.92757 0.0
O1024 O 0.47274 0.84809 0.93675 0.0
O1025 O 0.48381 0.85006 0.95046 0.0
O1026 O 0.49841 0.86752 0.93628 0.0
O1027 O 0.48716 0.86553 0.92268 0.0
H1028 H 0.47537 0.87006 0.95364 0.0
H1029 H 0.46165 0.88085 0.9631 0.0
H1030 H 0.43976 0.8535 0.96264 0.0
H1031 H 0.45348 0.84282 0.95314 0.0
H1032 H 0.50602 0.80344 0.94659 0.0
H1033 H 0.50315 0.82301 0.94548 0.0
H1034 H 0.50433 0.80134 0.91188 0.0
H1035 H 0.50179 0.82092 0.91082 0.0
H1036 H 0.52806 0.88268 0.91441 0.0
H1037 H 0.49965 0.9008 0.90465 0.0
H1038 H 0.48817 0.8885 0.915 0.0
H1039 H 0.51643 0.87022 0.92465 0.0
C1040 C 0.50798 0.36734 0.60485 0.0
C1041 C 0.51042 0.37766 0.60076 0.0
C1042 C 0.49785 0.38598 0.61355 0.0
C1043 C 0.50538 0.38689 0.60504 0.0
C1044 C 0.49556 0.37561 0.61768 0.0
C1045 C 0.50056 0.36639 0.61336 0.0
U1046 U 0.52994 0.35348 0.58797 0.0
O1047 O 0.53917 0.33844 0.59097 0.0
O1048 O 0.52883 0.33986 0.57661 0.0
C1049 C 0.53505 0.33352 0.58252 0.0
C1050 C 0.51306 0.35751 0.60032 0.0
C1051 C 0.53139 0.32218 0.58409 0.0
C1052 C 0.51738 0.30818 0.5841 0.0
C1053 C 0.52039 0.31915 0.58348 0.0
C1054 C 0.53628 0.30318 0.58623 0.0
C1055 C 0.52532 0.30002 0.58531 0.0
C1056 C 0.53925 0.3141 0.5856 0.0
C1057 C 0.55138 0.37279 0.57496 0.0
C1058 C 0.56598 0.36822 0.56253 0.0
C1059 C 0.56419 0.38658 0.56911 0.0
C1060 C 0.55513 0.3835 0.57515 0.0
C1061 C 0.56977 0.379 0.56271 0.0
C1062 C 0.55686 0.36513 0.56862 0.0
C1063 C 0.54169 0.37003 0.58138 0.0
O1064 O 0.5124 0.35646 0.5898 0.0
O1065 O 0.52272 0.35507 0.60414 0.0
O1066 O 0.54342 0.36493 0.59052 0.0
O1067 O 0.53322 0.36634 0.57609 0.0
H1068 H 0.51619 0.37858 0.59424 0.0
H1069 H 0.50746 0.39474 0.60175 0.0
H1070 H 0.48972 0.37457 0.62412 0.0
H1071 H 0.49858 0.3585 0.61664 0.0
H1072 H 0.50888 0.30608 0.58331 0.0
H1073 H 0.51413 0.32522 0.58232 0.0
H1074 H 0.5426 0.29719 0.58738 0.0
H1075 H 0.54778 0.31622 0.58611 0.0
H1076 H 0.57011 0.36214 0.55777 0.0
H1077 H 0.5667 0.39498 0.56931 0.0
H1078 H 0.55098 0.38954 0.57995 0.0
H1079 H 0.5541 0.35681 0.56838 0.0
C1080 C 0.46607 0.16603 0.56732 0.0
C1081 C 0.46768 0.15492 0.56554 0.0
C1082 C 0.45002 0.15358 0.55662 0.0
C1083 C 0.45976 0.14876 0.56021 0.0
C1084 C 0.44838 0.16469 0.55861 0.0
C1085 C 0.45634 0.17084 0.56388 0.0
U1086 U 0.49071 0.16946 0.58599 0.0
O1087 O 0.50548 0.17938 0.58402 0.0
O1088 O 0.4945 0.18239 0.5976 0.0
C1089 C 0.50317 0.18559 0.59229 0.0
C1090 C 0.47447 0.17277 0.57258 0.0
C1091 C 0.50451 0.1974 0.59066 0.0
C1092 C 0.49725 0.21556 0.58774 0.0
C1093 C 0.49564 0.20434 0.5888 0.0
C1094 C 0.51659 0.21301 0.59023 0.0
C1095 C 0.50776 0.22005 0.58845 0.0
C1096 C 0.51497 0.20184 0.59132 0.0
C1097 C 0.5014 0.14303 0.59998 0.0
C1098 C 0.51927 0.13642 0.60543 0.0
C1099 C 0.50306 0.12792 0.61251 0.0
C1100 C 0.49663 0.13518 0.60665 0.0
C1101 C 0.51447 0.12829 0.61183 0.0
C1102 C 0.5128 0.1437 0.59953 0.0
C1103 C 0.49423 0.1496 0.59294 0.0
O1104 O 0.47357 0.17386 0.58307 0.0
O1105 O 0.48453 0.1711 0.56943 0.0
O1106 O 0.49843 0.15351 0.58401 0.0
O1107 O 0.48756 0.15638 0.59773 0.0
H1108 H 0.4751 0.15101 0.56821 0.0
H1109 H 0.46123 0.14021 0.55896 0.0
H1110 H 0.44106 0.16871 0.55586 0.0
H1111 H 0.45492 0.1794 0.56517 0.0
H1112 H 0.49027 0.2207 0.58626 0.0
H1113 H 0.48748 0.2011 0.58823 0.0
H1114 H 0.52477 0.21614 0.59101 0.0
H1115 H 0.52192 0.19667 0.59282 0.0
H1116 H 0.52803 0.13691 0.60467 0.0
H1117 H 0.49907 0.12193 0.6175 0.0
H1118 H 0.48787 0.13449 0.60713 0.0
H1119 H 0.51671 0.14965 0.59442 0.0
C1120 C 0.91609 0.50704 0.65341 0.0
C1121 C 0.91662 0.51236 0.64342 0.0
C1122 C 0.90665 0.49756 0.63487 0.0
C1123 C 0.91192 0.50768 0.63424 0.0
C1124 C 0.90622 0.49227 0.64492 0.0
C1125 C 0.91088 0.49697 0.65408 0.0
U1126 U 0.93346 0.52834 0.66805 0.0
O1127 O 0.93047 0.53668 0.68347 0.0
O1128 O 0.94485 0.52636 0.68161 0.0
C1129 C 0.93884 0.5321 0.68825 0.0
C1130 C 0.92084 0.51184 0.66323 0.0
C1131 C 0.93704 0.52762 0.69927 0.0
C1132 C 0.92911 0.52956 0.7172 0.0
C1133 C 0.93005 0.53298 0.70646 0.0
C1134 C 0.94207 0.51525 0.71383 0.0
C1135 C 0.93521 0.52072 0.72109 0.0
C1136 C 0.943 0.51866 0.70309 0.0
C1137 C 0.94761 0.55051 0.6504 0.0
C1138 C 0.95052 0.57007 0.65049 0.0
C1139 C 0.96292 0.55846 0.64076 0.0
C1140 C 0.95694 0.54938 0.64399 0.0
C1141 C 0.95969 0.56896 0.6438 0.0
C1142 C 0.94453 0.56096 0.65373 0.0
C1143 C 0.94068 0.54087 0.65244 0.0
O1144 O 0.93144 0.51104 0.66419 0.0
O1145 O 0.91711 0.52143 0.66595 0.0
O1146 O 0.93133 0.5424 0.65733 0.0
O1147 O 0.94565 0.53197 0.65555 0.0
H1148 H 0.92065 0.52013 0.64273 0.0
H1149 H 0.91252 0.51192 0.62662 0.0
H1150 H 0.9021 0.48457 0.64577 0.0
H1151 H 0.91037 0.49275 0.66172 0.0
H1152 H 0.92363 0.5339 0.72246 0.0
H1153 H 0.92544 0.53999 0.70385 0.0
H1154 H 0.94703 0.50851 0.71652 0.0
H1155 H 0.94859 0.51442 0.69786 0.0
H1156 H 0.94771 0.57801 0.65291 0.0
H1157 H 0.97003 0.55725 0.63578 0.0
H1158 H 0.95947 0.54146 0.64122 0.0
H1159 H 0.93733 0.56215 0.65859 0.0
C1160 C 0.06826 0.96516 0.66538 0.0
C1161 C 0.06444 0.96756 0.65497 0.0
C1162 C 0.05742 0.94915 0.65305 0.0
C1163 C 0.05904 0.95966 0.64889 0.0
C1164 C 0.06144 0.94675 0.66341 0.0
C1165 C 0.06678 0.95468 0.6695 0.0
U1166 U 0.08679 0.98998 0.66924 0.0
O1167 O 0.08498 1.00406 0.67994 0.0
O1168 O 0.09899 0.99322 0.68188 0.0
C1169 C 0.09361 1.00157 0.6857 0.0
C1170 C 0.07364 0.97344 0.67215 0.0
C1171 C 0.09251 1.00217 0.69757 0.0
C1172 C 0.08181 1.00111 0.71407 0.0
C1173 C 0.0827 0.99981 0.70286 0.0
C1174 C 0.10057 1.00694 0.71485 0.0
C1175 C 0.09072 1.00481 0.72022 0.0
C1176 C 0.10143 1.00565 0.70368 0.0
C1177 C 0.10042 1.00209 0.64342 0.0
C1178 C 0.10448 0.01996 0.63603 0.0
C1179 C 0.11501 1.00444 0.63036 0.0
C1180 C 0.10887 0.99779 0.63716 0.0
C1181 C 0.11284 0.01561 0.6296 0.0
C1182 C 0.09834 0.01329 0.64286 0.0
C1183 C 0.09334 0.99455 0.64956 0.0
O1184 O 0.08426 0.97268 0.67296 0.0
O1185 O 0.07024 0.98348 0.67098 0.0
O1186 O 0.08437 0.99847 0.6538 0.0
O1187 O 0.09825 0.98749 0.65583 0.0
H1188 H 0.06556 0.97557 0.65157 0.0
H1189 H 0.05618 0.96175 0.6409 0.0
H1190 H 0.06025 0.93881 0.66692 0.0
H1191 H 0.06966 0.95264 0.6775 0.0
H1192 H 0.07408 0.99946 0.71788 0.0
H1193 H 0.07568 0.99711 0.69833 0.0
H1194 H 0.10767 1.00959 0.71929 0.0
H1195 H 0.10909 1.00749 0.69979 0.0
H1196 H 0.10265 0.02854 0.63575 0.0
H1197 H 0.12124 1.00074 0.62543 0.0
H1198 H 0.11055 0.98917 0.63729 0.0
H1199 H 0.09185 0.01687 0.64754 0.0
C1200 C 0.91455 0.51364 0.86713 0.0
C1201 C 0.91959 0.51343 0.87729 0.0
C1202 C 0.90456 0.52375 0.88507 0.0
C1203 C 0.91466 0.51844 0.88617 0.0
C1204 C 0.89949 0.52374 0.87489 0.0
C1205 C 0.90444 0.51877 0.86604 0.0
U1206 U 0.93288 0.49265 0.85301 0.0
O1207 O 0.93025 0.48405 0.83766 0.0
O1208 O 0.9443 0.49481 0.83954 0.0
C1209 C 0.93853 0.48881 0.83292 0.0
C1210 C 0.91968 0.50879 0.85751 0.0
C1211 C 0.93667 0.49306 0.82183 0.0
C1212 C 0.93996 0.50644 0.80769 0.0
C1213 C 0.94085 0.50312 0.81847 0.0
C1214 C 0.9305 0.48983 0.80342 0.0
C1215 C 0.93489 0.49977 0.79996 0.0
C1216 C 0.93142 0.48651 0.81419 0.0
C1217 C 0.94736 0.47092 0.87093 0.0
C1218 C 0.95091 0.45148 0.87041 0.0
C1219 C 0.96247 0.46315 0.88106 0.0
C1220 C 0.95634 0.47214 0.87781 0.0
C1221 C 0.95973 0.45266 0.87756 0.0
C1222 C 0.94479 0.4605 0.86714 0.0
C1223 C 0.94025 0.48042 0.8688 0.0
O1224 O 0.93027 0.50989 0.85666 0.0
O1225 O 0.91625 0.49909 0.85481 0.0
O1226 O 0.93097 0.47866 0.86383 0.0
O1227 O 0.94505 0.4894 0.86568 0.0
H1228 H 0.92739 0.50948 0.87833 0.0
H1229 H 0.91887 0.51834 0.89383 0.0
H1230 H 0.89164 0.52752 0.87375 0.0
H1231 H 0.90037 0.51898 0.8583 0.0
H1232 H 0.94356 0.51408 0.80535 0.0
H1233 H 0.94505 0.50835 0.8241 0.0
H1234 H 0.92638 0.48454 0.79779 0.0
H1235 H 0.92819 0.47868 0.81649 0.0
H1236 H 0.94848 0.44354 0.86762 0.0
H1237 H 0.9693 0.46442 0.88641 0.0
H1238 H 0.95848 0.48005 0.88092 0.0
H1239 H 0.93787 0.45924 0.86189 0.0
C1240 C 0.06751 0.05572 0.8558 0.0
C1241 C 0.0654 0.05383 0.86676 0.0
C1242 C 0.05695 0.07168 0.8684 0.0
C1243 C 0.06014 0.06172 0.87299 0.0
C1244 C 0.05929 0.07358 0.85746 0.0
C1245 C 0.0645 0.06567 0.85124 0.0
U1246 U 0.08505 0.03027 0.85195 0.0
O1247 O 0.08248 0.01619 0.84132 0.0
O1248 O 0.09697 0.02635 0.83932 0.0
C1249 C 0.09119 0.01824 0.83554 0.0
C1250 C 0.07262 0.04736 0.84896 0.0
C1251 C 0.08989 0.01762 0.82369 0.0
C1252 C 0.08824 0.02599 0.80596 0.0
C1253 C 0.08889 0.02691 0.81722 0.0
C1254 C 0.08938 1.00648 0.80752 0.0
C1255 C 0.08855 0.01575 0.80094 0.0
C1256 C 0.09005 1.00742 0.81874 0.0
C1257 C 0.09757 0.01723 0.87788 0.0
C1258 C 0.11465 1.00814 0.88213 0.0
C1259 C 0.09915 1.00589 0.89389 0.0
C1260 C 0.09297 0.01258 0.88713 0.0
C1261 C 0.11013 1.0037 0.89158 0.0
C1262 C 0.10844 0.01482 0.87534 0.0
C1263 C 0.09113 0.02528 0.87169 0.0
O1264 O 0.08327 0.04768 0.84832 0.0
O1265 O 0.06881 0.03747 0.85006 0.0
O1266 O 0.082 0.02187 0.86737 0.0
O1267 O 0.0965 0.03203 0.86545 0.0
H1268 H 0.06772 0.04623 0.87048 0.0
H1269 H 0.05861 0.06003 0.88141 0.0
H1270 H 0.05686 0.08107 0.85361 0.0
H1271 H 0.06605 0.06728 0.84279 0.0
H1272 H 0.08747 0.0333 0.80119 0.0
H1273 H 0.08869 0.03488 0.82085 0.0
H1274 H 0.08981 0.99848 0.80399 0.0
H1275 H 0.09087 1.00014 0.82356 0.0
H1276 H 0.12302 1.00652 0.88001 0.0
H1277 H 0.09541 1.00275 0.90115 0.0
H1278 H 0.08465 0.01439 0.88933 0.0
H1279 H 0.11222 0.01828 0.86825 0.0
C1280 C 0.66684 0.95302 0.55608 0.0
C1281 C 0.65573 0.95525 0.55474 0.0
C1282 C 0.65497 0.96346 0.57264 0.0
C1283 C 0.64986 0.96044 0.56293 0.0
C1284 C 0.66608 0.96102 0.57396 0.0
C1285 C 0.67194 0.95588 0.56576 0.0
U1286 U 0.66902 0.93582 0.53049 0.0
O1287 O 0.67929 0.93799 0.51613 0.0
O1288 O 0.68103 0.92335 0.52601 0.0
C1289 C 0.68479 0.92902 0.51786 0.0
C1290 C 0.67326 0.94783 0.54746 0.0
C1291 C 0.69675 0.92986 0.51703 0.0
C1292 C 0.71405 0.93813 0.52191 0.0
C1293 C 0.70272 0.9374 0.52308 0.0
C1294 C 0.71357 0.92374 0.50871 0.0
C1295 C 0.71964 0.93133 0.51465 0.0
C1296 C 0.70227 0.92302 0.50988 0.0
C1297 C 0.64139 0.9249 0.51916 0.0
C1298 C 0.63806 0.91162 0.50504 0.0
C1299 C 0.62293 0.92078 0.51351 0.0
C1300 C 0.63017 0.92658 0.51998 0.0
C1301 C 0.62675 0.91313 0.50603 0.0
C1302 C 0.64534 0.91743 0.51159 0.0
C1303 C 0.64858 0.93084 0.52661 0.0
O1304 O 0.67352 0.93719 0.54763 0.0
O1305 O 0.67193 0.95181 0.53772 0.0
O1306 O 0.65327 0.93964 0.52288 0.0
O1307 O 0.65501 0.92499 0.53277 0.0
H1308 H 0.65161 0.95308 0.54733 0.0
H1309 H 0.64136 0.96226 0.56155 0.0
H1310 H 0.67028 0.96302 0.58137 0.0
H1311 H 0.68049 0.95417 0.56698 0.0
H1312 H 0.7184 0.94414 0.52656 0.0
H1313 H 0.69861 0.94276 0.52865 0.0
H1314 H 0.71755 0.91823 0.5032 0.0
H1315 H 0.69783 0.91712 0.50517 0.0
H1316 H 0.64128 0.90577 0.49939 0.0
H1317 H 0.61431 0.92234 0.51436 0.0
H1318 H 0.62696 0.93233 0.52575 0.0
H1319 H 0.65399 0.91602 0.51084 0.0
C1320 C 0.66578 0.06851 0.964 0.0
C1321 C 0.65498 0.06535 0.96582 0.0
C1322 C 0.65375 0.05798 0.94758 0.0
C1323 C 0.64902 0.06012 0.9577 0.0
C1324 C 0.66452 0.06137 0.94578 0.0
C1325 C 0.67046 0.06655 0.95389 0.0
U1326 U 0.6691 0.08554 0.98976 0.0
O1327 O 0.68003 0.08309 1.00359 0.0
O1328 O 0.6815 0.0978 0.99378 0.0
C1329 C 0.68555 0.09202 1.00172 0.0
C1330 C 0.67242 0.07364 0.97252 0.0
C1331 C 0.69754 0.09116 1.00222 0.0
C1332 C 0.71453 0.0816 0.99886 0.0
C1333 C 0.7032 0.08238 0.99773 0.0
C1334 C 0.71468 0.09843 1.00882 0.0
C1335 C 0.72043 0.08957 1.00452 0.0
C1336 C 0.70339 0.0992 1.00768 0.0
C1337 C 0.64284 0.09712 1.00322 0.0
C1338 C 0.63507 0.11403 1.00988 0.0
C1339 C 0.62954 0.09699 0.01778 0.0
C1340 C 0.63653 0.09146 0.01079 0.0
C1341 C 0.62859 0.10834 0.01732 0.0
C1342 C 0.6421 0.10849 1.00291 0.0
C1343 C 0.64909 0.091 0.99497 0.0
O1344 O 0.67273 0.08427 0.97241 0.0
O1345 O 0.67141 0.06958 0.98226 0.0
O1346 O 0.65371 0.0819 0.99808 0.0
O1347 O 0.65514 0.0966 0.98824 0.0
H1348 H 0.65118 0.0668 0.97355 0.0
H1349 H 0.6408 0.05756 0.95945 0.0
H1350 H 0.66838 0.06007 0.93805 0.0
H1351 H 0.67876 0.06898 0.95229 0.0
H1352 H 0.71864 0.07462 0.99551 0.0
H1353 H 0.69884 0.07607 0.99348 0.0
H1354 H 0.71892 0.10484 0.01303 0.0
H1355 H 0.6992 0.10606 0.01118 0.0
H1356 H 0.63466 0.12277 1.00938 0.0
H1357 H 0.62457 0.0923 0.02327 0.0
H1358 H 0.63674 0.08269 0.01111 0.0
H1359 H 0.64675 0.11313 0.99712 0.0
C1360 C 0.35537 0.45317 0.96303 0.0
C1361 C 0.36618 0.45657 0.9644 0.0
C1362 C 0.36667 0.46334 0.94588 0.0
C1363 C 0.37177 0.46163 0.95592 0.0
C1364 C 0.3559 0.45971 0.94454 0.0
C1365 C 0.35033 0.45471 0.95302 0.0
U1366 U 0.35302 0.43557 0.98859 0.0
O1367 O 0.34313 0.43808 1.00319 0.0
O1368 O 0.34042 0.42377 0.99311 0.0
C1369 C 0.3371 0.42948 1.0014 0.0
C1370 C 0.34912 0.44816 0.97191 0.0
C1371 C 0.32522 0.43095 1.00245 0.0
C1372 C 0.30738 0.43495 0.99486 0.0
C1373 C 0.3187 0.43409 0.99369 0.0
C1374 C 0.30899 0.4297 0.01359 0.0
C1375 C 0.30235 0.4327 1.00483 0.0
C1376 C 0.32027 0.42883 0.0124 0.0
C1377 C 0.3798 0.4223 0.99937 0.0
C1378 C 0.38564 0.41657 0.01728 0.0
C1379 C 0.39549 0.41049 1.00154 0.0
C1380 C 0.3883 0.41622 0.99492 0.0
C1381 C 0.39438 0.41072 0.01282 0.0
C1382 C 0.37842 0.42234 0.01061 0.0
C1383 C 0.37309 0.42904 0.99206 0.0
O1384 O 0.34817 0.43757 0.97159 0.0
O1385 O 0.35104 0.45187 0.98166 0.0
O1386 O 0.3691 0.43811 0.99595 0.0
O1387 O 0.36627 0.42388 0.98573 0.0
H1388 H 0.37028 0.45543 0.97205 0.0
H1389 H 0.38 0.46438 0.95732 0.0
H1390 H 0.35176 0.46066 0.93689 0.0
H1391 H 0.34203 0.45209 0.95176 0.0
H1392 H 0.30258 0.43741 0.98797 0.0
H1393 H 0.32236 0.43581 0.98594 0.0
H1394 H 0.30544 0.42775 0.02133 0.0
H1395 H 0.32514 0.42635 0.01926 0.0
H1396 H 0.38457 0.41698 0.02592 0.0
H1397 H 0.40197 0.40591 0.9978 0.0
H1398 H 0.38951 0.41606 0.98628 0.0
H1399 H 0.37193 0.42699 0.01425 0.0
C1400 C 0.85549 0.06659 0.05575 0.0
C1401 C 0.86642 0.06925 0.05763 0.0
C1402 C 0.86702 0.05683 0.073 0.0
C1403 C 0.87214 0.0644 0.06617 0.0
C1404 C 0.85609 0.05413 0.07093 0.0
C1405 C 0.85041 0.05896 0.06241 0.0
U1406 U 0.85284 0.08492 0.03074 0.0
O1407 O 0.8428 0.08273 0.01616 0.0
O1408 O 0.84009 0.09673 0.02666 0.0
C1409 C 0.83672 0.09124 0.01823 0.0
C1410 C 0.84916 0.07177 0.04705 0.0
C1411 C 0.82484 0.08974 0.01722 0.0
C1412 C 0.80709 0.08552 0.02482 0.0
C1413 C 0.81842 0.08634 0.02593 0.0
C1414 C 0.8085 0.09129 1.00623 0.0
C1415 C 0.80196 0.08804 0.01496 0.0
C1416 C 0.81979 0.09213 1.00736 0.0
C1417 C 0.87909 0.0989 0.01989 0.0
C1418 C 0.88518 0.10438 1.002 0.0
C1419 C 0.89344 0.11232 0.01782 0.0
C1420 C 0.88664 0.1061 0.0244 0.0
C1421 C 0.89288 0.11149 1.00652 0.0
C1422 C 0.87834 0.09815 1.00861 0.0
C1423 C 0.87277 0.0918 0.0272 0.0
O1424 O 0.84816 0.08235 0.04766 0.0
O1425 O 0.85118 0.06837 0.03723 0.0
O1426 O 0.86886 0.08275 0.02318 0.0
O1427 O 0.866 0.09664 0.03382 0.0
H1428 H 0.87049 0.07514 0.05257 0.0
H1429 H 0.8805 0.06676 0.06756 0.0
H1430 H 0.85192 0.04821 0.07587 0.0
H1431 H 0.84199 0.05676 0.06106 0.0
H1432 H 0.80235 0.08286 0.03168 0.0
H1433 H 0.82215 0.08442 0.03361 0.0
H1434 H 0.80488 0.09346 0.99857 0.0
H1435 H 0.82459 0.09481 1.00055 0.0
H1436 H 0.88442 0.10361 0.99334 0.0
H1437 H 0.89935 0.11757 0.02162 0.0
H1438 H 0.88746 0.10674 0.03307 0.0
H1439 H 0.87259 0.09266 1.0049 0.0
C1440 C 0.46505 0.35707 0.0686 0.0
C1441 C 0.46731 0.36784 0.0657 0.0
C1442 C 0.44923 0.36972 0.05772 0.0
C1443 C 0.4595 0.37408 0.06028 0.0
C1444 C 0.44698 0.35898 0.06082 0.0
C1445 C 0.45481 0.35274 0.06618 0.0
U1446 U 0.49023 0.35301 0.08657 0.0
O1447 O 0.49351 0.34047 0.09886 0.0
O1448 O 0.50407 0.34188 0.0847 0.0
C1449 C 0.50161 0.33627 0.09337 0.0
C1450 C 0.47326 0.35018 0.07398 0.0
C1451 C 0.50189 0.32427 0.0925 0.0
C1452 C 0.50367 0.30766 0.08199 0.0
C1453 C 0.50232 0.31895 0.08249 0.0
C1454 C 0.50387 0.30679 0.10145 0.0
C1455 C 0.50463 0.30144 0.09147 0.0
C1456 C 0.50255 0.31804 0.10194 0.0
C1457 C 0.50368 0.37895 0.09873 0.0
C1458 C 0.51183 0.38395 0.11594 0.0
C1459 C 0.51603 0.39434 0.09994 0.0
C1460 C 0.50931 0.38754 0.09385 0.0
C1461 C 0.51725 0.39276 0.11111 0.0
C1462 C 0.50512 0.37712 0.10983 0.0
C1463 C 0.4956 0.37283 0.09228 0.0
O1464 O 0.48326 0.35099 0.07037 0.0
O1465 O 0.47272 0.34976 0.08454 0.0
O1466 O 0.48852 0.36687 0.09754 0.0
O1467 O 0.49913 0.36821 0.08341 0.0
H1468 H 0.47514 0.37139 0.06756 0.0
H1469 H 0.46147 0.38236 0.05815 0.0
H1470 H 0.43923 0.3553 0.05889 0.0
H1471 H 0.45289 0.34445 0.06835 0.0
H1472 H 0.50431 0.30388 0.07416 0.0
H1473 H 0.50187 0.32351 0.07504 0.0
H1474 H 0.50436 0.30229 0.10893 0.0
H1475 H 0.50226 0.32192 0.10976 0.0
H1476 H 0.51269 0.38239 0.12449 0.0
H1477 H 0.51994 0.40109 0.09594 0.0
H1478 H 0.50825 0.38922 0.08535 0.0
H1479 H 0.5009 0.37058 0.11385 0.0
C1480 C 0.50823 0.15358 0.10558 0.0
C1481 C 0.51021 0.14335 0.10107 0.0
C1482 C 0.49835 0.13484 0.1144 0.0
C1483 C 0.50529 0.13408 0.10541 0.0
C1484 C 0.49653 0.14512 0.11896 0.0
C1485 C 0.50141 0.15437 0.11458 0.0
U1486 U 0.52951 0.16834 0.08831 0.0
O1487 O 0.52763 0.18227 0.07737 0.0
O1488 O 0.53831 0.18358 0.09149 0.0
C1489 C 0.53375 0.18864 0.08332 0.0
C1490 C 0.51308 0.16351 0.101 0.0
C1491 C 0.5297 0.19978 0.08541 0.0
C1492 C 0.51553 0.21361 0.08486 0.0
C1493 C 0.51882 0.20279 0.08362 0.0
C1494 C 0.53386 0.21854 0.08989 0.0
C1495 C 0.52303 0.22165 0.08795 0.0
C1496 C 0.53715 0.20776 0.08861 0.0
C1497 C 0.55156 0.15058 0.07404 0.0
C1498 C 0.55951 0.1459 0.05664 0.0
C1499 C 0.57061 0.14522 0.07271 0.0
C1500 C 0.56172 0.14861 0.07888 0.0
C1501 C 0.56959 0.14363 0.06153 0.0
C1502 C 0.55061 0.14928 0.06282 0.0
C1503 C 0.54182 0.1526 0.08086 0.0
O1504 O 0.52279 0.16606 0.10462 0.0
O1505 O 0.51214 0.16473 0.09052 0.0
O1506 O 0.53291 0.15594 0.07602 0.0
O1507 O 0.54343 0.15729 0.09023 0.0
H1508 H 0.51552 0.14255 0.09416 0.0
H1509 H 0.507 0.1263 0.10178 0.0
H1510 H 0.49114 0.14605 0.12578 0.0
H1511 H 0.49977 0.16219 0.11818 0.0
H1512 H 0.50709 0.21566 0.08343 0.0
H1513 H 0.51287 0.19683 0.08114 0.0
H1514 H 0.53992 0.22449 0.09211 0.0
H1515 H 0.5456 0.20569 0.08993 0.0
H1516 H 0.55836 0.14464 0.04809 0.0
H1517 H 0.57827 0.14371 0.07675 0.0
H1518 H 0.56273 0.14937 0.08751 0.0
H1519 H 0.54288 0.15054 0.05882 0.0
C1520 C 0.46537 0.66559 0.45221 0.0
C1521 C 0.46571 0.65426 0.45147 0.0
C1522 C 0.44941 0.65279 0.46261 0.0
C1523 C 0.45782 0.64791 0.45662 0.0
C1524 C 0.4491 0.66417 0.46325 0.0
C1525 C 0.457 0.67049 0.45811 0.0
U1526 U 0.49055 0.66909 0.43441 0.0
O1527 O 0.49438 0.6816 0.42233 0.0
O1528 O 0.50482 0.67966 0.43652 0.0
C1529 C 0.50274 0.68532 0.42779 0.0
C1530 C 0.47369 0.67241 0.447 0.0
C1531 C 0.50356 0.69722 0.42882 0.0
C1532 C 0.49642 0.71477 0.43433 0.0
C1533 C 0.49535 0.70345 0.43362 0.0
C1534 C 0.51391 0.71368 0.42551 0.0
C1535 C 0.50571 0.72004 0.43024 0.0
C1536 C 0.51284 0.70242 0.42481 0.0
C1537 C 0.50321 0.64278 0.42217 0.0
C1538 C 0.51024 0.63635 0.40495 0.0
C1539 C 0.51635 0.62801 0.42152 0.0
C1540 C 0.50975 0.63507 0.42741 0.0
C1541 C 0.51655 0.62841 0.41019 0.0
C1542 C 0.50363 0.64344 0.41085 0.0
C1543 C 0.49525 0.64914 0.42857 0.0
O1544 O 0.48366 0.6712 0.45063 0.0
O1545 O 0.4732 0.67297 0.43643 0.0
O1546 O 0.48842 0.65539 0.42328 0.0
O1547 O 0.49882 0.65354 0.43754 0.0
H1548 H 0.4721 0.65032 0.44692 0.0
H1549 H 0.45825 0.63919 0.45583 0.0
H1550 H 0.44287 0.66821 0.46789 0.0
H1551 H 0.45662 0.67923 0.45881 0.0
H1552 H 0.48989 0.71938 0.43795 0.0
H1553 H 0.48811 0.69959 0.43677 0.0
H1554 H 0.52127 0.71738 0.42245 0.0
H1555 H 0.51929 0.69776 0.42113 0.0
H1556 H 0.51008 0.63685 0.39624 0.0
H1557 H 0.52123 0.62215 0.42587 0.0
H1558 H 0.50954 0.6343 0.43611 0.0
H1559 H 0.49863 0.64921 0.40653 0.0
C1560 C 0.50794 0.86794 0.416 0.0
C1561 C 0.51039 0.87821 0.42019 0.0
C1562 C 0.49823 0.88676 0.40712 0.0
C1563 C 0.50557 0.88752 0.41582 0.0
C1564 C 0.49598 0.87645 0.40284 0.0
C1565 C 0.50077 0.86715 0.40725 0.0
U1566 U 0.52855 0.85325 0.43407 0.0
O1567 O 0.52602 0.83987 0.44561 0.0
O1568 O 0.53696 0.83768 0.43184 0.0
C1569 C 0.53215 0.83312 0.44015 0.0
C1570 C 0.51254 0.85799 0.4208 0.0
C1571 C 0.52778 0.82204 0.4386 0.0
C1572 C 0.52037 0.80766 0.42734 0.0
C1573 C 0.52379 0.81844 0.42862 0.0
C1574 C 0.52466 0.80404 0.44602 0.0
C1575 C 0.52083 0.80028 0.43601 0.0
C1576 C 0.52809 0.81477 0.44728 0.0
C1577 C 0.55006 0.87118 0.44891 0.0
C1578 C 0.56949 0.87115 0.45293 0.0
C1579 C 0.55707 0.88074 0.46462 0.0
C1580 C 0.54835 0.87756 0.45812 0.0
C1581 C 0.56779 0.87769 0.46206 0.0
C1582 C 0.56073 0.86793 0.44643 0.0
C1583 C 0.54077 0.86906 0.44154 0.0
O1584 O 0.52231 0.85524 0.41752 0.0
O1585 O 0.5113 0.85697 0.43127 0.0
O1586 O 0.53157 0.86608 0.44604 0.0
O1587 O 0.54279 0.86394 0.43248 0.0
H1588 H 0.51595 0.879 0.42692 0.0
H1589 H 0.50761 0.89532 0.41923 0.0
H1590 H 0.49029 0.87552 0.39625 0.0
H1591 H 0.49876 0.8593 0.4039 0.0
H1592 H 0.51734 0.80512 0.41955 0.0
H1593 H 0.52342 0.8239 0.42179 0.0
H1594 H 0.5253 0.7986 0.45285 0.0
H1595 H 0.53119 0.81734 0.45504 0.0
H1596 H 0.57761 0.86855 0.45078 0.0
H1597 H 0.55544 0.88592 0.47146 0.0
H1598 H 0.54026 0.88036 0.46014 0.0
H1599 H 0.56237 0.86309 0.43935 0.0
C1600 C 0.0677 0.46572 0.35531 0.0
C1601 C 0.06896 0.46567 0.36655 0.0
C1602 C 0.05753 0.44954 0.36797 0.0
C1603 C 0.06391 0.45766 0.37282 0.0
C1604 C 0.05637 0.44964 0.35668 0.0
C1605 C 0.0614 0.45764 0.35044 0.0
U1606 U 0.08604 0.4906 0.35162 0.0
O1607 O 0.09779 0.49435 0.3388 0.0
O1608 O 0.08376 0.50502 0.34132 0.0
C1609 C 0.09222 0.50273 0.33528 0.0
C1610 C 0.07283 0.47412 0.34856 0.0
C1611 C 0.09062 0.50355 0.32347 0.0
C1612 C 0.0886 0.49541 0.3057 0.0
C1613 C 0.08942 0.49434 0.31694 0.0
C1614 C 0.08993 0.51488 0.3074 0.0
C1615 C 0.08893 0.5057 0.30076 0.0
C1616 C 0.09078 0.5138 0.3186 0.0
C1617 C 0.10017 0.50215 0.3774 0.0
C1618 C 0.1042 0.5199 0.38505 0.0
C1619 C 0.11499 0.50436 0.39026 0.0
C1620 C 0.10879 0.4978 0.38344 0.0
C1621 C 0.11271 0.51549 0.39127 0.0
C1622 C 0.098 0.51331 0.37819 0.0
C1623 C 0.09304 0.49468 0.37125 0.0
O1624 O 0.06945 0.48408 0.35017 0.0
O1625 O 0.08344 0.47343 0.34754 0.0
O1626 O 0.09788 0.48786 0.3647 0.0
O1627 O 0.08393 0.49861 0.36731 0.0
H1628 H 0.07383 0.47182 0.37047 0.0
H1629 H 0.0651 0.45778 0.38147 0.0
H1630 H 0.05141 0.44364 0.35266 0.0
H1631 H 0.06031 0.45756 0.34177 0.0
H1632 H 0.08769 0.48816 0.30088 0.0
H1633 H 0.08922 0.48633 0.3205 0.0
H1634 H 0.09036 0.52292 0.30392 0.0
H1635 H 0.09176 0.52102 0.32347 0.0
H1636 H 0.10229 0.52845 0.38552 0.0
H1637 H 0.12134 0.50062 0.39502 0.0
H1638 H 0.11055 0.48921 0.38312 0.0
H1639 H 0.09139 0.51694 0.37369 0.0
C1640 C 0.91557 1.00779 0.36618 0.0
C1641 C 0.91985 1.00922 0.37658 0.0
C1642 C 0.90543 0.99796 0.38423 0.0
C1643 C 0.91484 1.00434 0.3855 0.0
C1644 C 0.90112 0.99672 0.37378 0.0
C1645 C 0.90615 1.00155 0.36488 0.0
U1646 U 0.93323 0.02942 0.35235 0.0
O1647 O 0.94556 0.02768 0.33957 0.0
O1648 O 0.93102 0.03758 0.33672 0.0
C1649 C 0.93985 0.03329 0.33255 0.0
C1650 C 0.92082 0.01259 0.35658 0.0
C1651 C 0.939 0.02874 0.3215 0.0
C1652 C 0.92844 0.0232 0.30579 0.0
C1653 C 0.92893 0.02657 0.31658 0.0
C1654 C 0.94806 0.02387 0.30474 0.0
C1655 C 0.938 0.02194 0.29966 0.0
C1656 C 0.94854 0.02724 0.31549 0.0
C1657 C 0.94494 0.0522 0.37091 0.0
C1658 C 0.96101 0.06366 0.3695 0.0
C1659 C 0.94699 0.06798 0.38245 0.0
C1660 C 0.94097 0.05903 0.37901 0.0
C1661 C 0.95717 0.07034 0.37787 0.0
C1662 C 0.95497 0.05465 0.36607 0.0
C1663 C 0.93875 0.04226 0.36835 0.0
O1664 O 0.91696 0.02199 0.3534 0.0
O1665 O 0.93149 0.01212 0.35628 0.0
O1666 O 0.94436 0.03364 0.36558 0.0
O1667 O 0.92978 0.0435 0.36272 0.0
H1668 H 0.9271 0.01404 0.37779 0.0
H1669 H 0.91847 1.00542 0.39338 0.0
H1670 H 0.89378 0.99207 0.37246 0.0
H1671 H 0.90267 1.0004 0.35694 0.0
H1672 H 0.92055 0.02189 0.30216 0.0
H1673 H 0.92142 0.02768 0.32098 0.0
H1674 H 0.9556 0.02279 0.30039 0.0
H1675 H 0.9564 0.02887 0.31907 0.0
H1676 H 0.96884 0.0652 0.36583 0.0
H1677 H 0.94366 0.07304 0.38875 0.0
H1678 H 0.93326 0.05731 0.38286 0.0
H1679 H 0.95823 0.04949 0.3598 0.0
C1680 C 0.06852 0.55565 0.1653 0.0
C1681 C 0.06605 0.55382 0.1544 0.0
C1682 C 0.058 0.57186 0.15291 0.0
C1683 C 0.06081 0.56183 0.14829 0.0
C1684 C 0.0607 0.57371 0.16378 0.0
C1685 C 0.06588 0.56568 0.1699 0.0
U1686 U 0.08584 0.53 0.16887 0.0
O1687 O 0.09776 0.52578 0.18144 0.0
O1688 O 0.08316 0.51579 0.17934 0.0
C1689 C 0.09191 0.51767 0.18513 0.0
C1690 C 0.0736 0.54717 0.17205 0.0
C1691 C 0.09065 0.51684 0.19697 0.0
C1692 C 0.08968 0.52484 0.21489 0.0
C1693 C 0.09023 0.52601 0.20365 0.0
C1694 C 0.08971 0.50535 0.21291 0.0
C1695 C 0.08953 0.51448 0.21969 0.0
C1696 C 0.09028 0.50653 0.20171 0.0
C1697 C 0.09804 0.51709 0.14274 0.0
C1698 C 0.11525 0.50986 0.13613 0.0
C1699 C 0.09835 0.504 0.12806 0.0
C1700 C 0.09257 0.51066 0.13515 0.0
C1701 C 0.10978 0.50366 0.1283 0.0
C1702 C 0.10945 0.51652 0.14325 0.0
C1703 C 0.09177 0.52518 0.14907 0.0
O1704 O 0.06968 0.53733 0.17089 0.0
O1705 O 0.08426 0.54738 0.17266 0.0
O1706 O 0.09726 0.53179 0.15534 0.0
O1707 O 0.08259 0.52189 0.15337 0.0
H1708 H 0.06809 0.54617 0.15066 0.0
H1709 H 0.05899 0.56018 0.13991 0.0
H1710 H 0.05856 0.58126 0.16766 0.0
H1711 H 0.06771 0.56725 0.17829 0.0
H1712 H 0.08963 0.53206 0.21983 0.0
H1713 H 0.0905 0.53407 0.20019 0.0
H1714 H 0.0894 0.49725 0.21624 0.0
H1715 H 0.09056 0.49934 0.19673 0.0
H1716 H 0.12404 0.5099 0.13651 0.0
H1717 H 0.09384 0.49922 0.12228 0.0
H1718 H 0.0838 0.51099 0.13449 0.0
H1719 H 0.11395 0.52144 0.14892 0.0
C1720 C 0.91652 0.0134 0.15436 0.0
C1721 C 0.91862 1.00934 0.14401 0.0
C1722 C 0.90636 0.02276 0.13608 0.0
C1723 C 0.91361 0.01399 0.13495 0.0
C1724 C 0.90438 0.02681 0.14649 0.0
C1725 C 0.9094 0.02218 0.15551 0.0
U1726 U 0.93374 0.99166 0.16864 0.0
O1727 O 0.94535 0.99324 0.18205 0.0
O1728 O 0.93072 0.9833 0.18408 0.0
C1729 C 0.93932 0.98753 0.18872 0.0
C1730 C 0.92149 1.00854 0.16405 0.0
C1731 C 0.93778 0.99189 0.19975 0.0
C1732 C 0.93845 1.00658 0.21287 0.0
C1733 C 0.9392 1.00292 0.20218 0.0
C1734 C 0.9346 0.98831 0.21881 0.0
C1735 C 0.93623 0.9993 0.22135 0.0
C1736 C 0.93538 0.98467 0.20817 0.0
C1737 C 0.94624 0.96872 0.15086 0.0
C1738 C 0.96321 0.9585 0.15044 0.0
C1739 C 0.94707 0.9511 0.14209 0.0
C1740 C 0.9412 0.96029 0.14517 0.0
C1741 C 0.9582 0.95011 0.14457 0.0
C1742 C 0.95731 0.9677 0.15355 0.0
C1743 C 0.93999 0.97879 0.15294 0.0
O1744 O 0.91755 0.9991 0.16699 0.0
O1745 O 0.93214 1.00899 0.16466 0.0
O1746 O 0.94545 0.98744 0.15593 0.0
O1747 O 0.93069 0.97769 0.15801 0.0
H1748 H 0.92407 1.00253 0.14295 0.0
H1749 H 0.91525 1.01059 0.12708 0.0
H1750 H 0.899 0.03365 0.14769 0.0
H1751 H 0.90769 0.02545 0.16343 0.0
H1752 H 0.93962 0.01511 0.21447 0.0
H1753 H 0.94103 1.0087 0.19587 0.0
H1754 H 0.93302 0.98243 0.2251 0.0
H1755 H 0.93432 0.97612 0.20652 0.0
H1756 H 0.97172 0.95797 0.1526 0.0
H1757 H 0.94295 0.94492 0.13745 0.0
H1758 H 0.93273 0.96092 0.14286 0.0
H1759 H 0.96145 0.97408 0.1579 0.0
C1760 C 0.35576 0.06937 0.46336 0.0
C1761 C 0.36716 0.06976 0.46303 0.0
C1762 C 0.36722 0.05976 0.44605 0.0
C1763 C 0.37284 0.06498 0.45447 0.0
C1764 C 0.35578 0.05939 0.44648 0.0
C1765 C 0.35014 0.06415 0.45504 0.0
U1766 U 0.35372 0.08718 0.48866 0.0
O1767 O 0.34115 0.09898 0.49322 0.0
O1768 O 0.34407 0.08477 0.50345 0.0
C1769 C 0.338 0.09335 0.50166 0.0
C1770 C 0.34956 0.07438 0.47223 0.0
C1771 C 0.32614 0.09195 0.50304 0.0
C1772 C 0.30799 0.08849 0.49594 0.0
C1773 C 0.31929 0.08916 0.49442 0.0
C1774 C 0.31031 0.09318 0.51472 0.0
C1775 C 0.30333 0.09062 0.50609 0.0
C1776 C 0.32156 0.09385 0.5132 0.0
C1777 C 0.38061 0.10055 0.49888 0.0
C1778 C 0.38583 0.10731 0.51659 0.0
C1779 C 0.39689 0.11152 0.50103 0.0
C1780 C 0.38971 0.10574 0.49447 0.0
C1781 C 0.39515 0.11225 0.51221 0.0
C1782 C 0.37862 0.10148 0.50999 0.0
C1783 C 0.37383 0.09378 0.49172 0.0
O1784 O 0.35175 0.07079 0.48196 0.0
O1785 O 0.34859 0.08497 0.47179 0.0
O1786 O 0.36688 0.09888 0.48546 0.0
O1787 O 0.36992 0.08474 0.49578 0.0
H1788 H 0.37165 0.0738 0.46937 0.0
H1789 H 0.38162 0.06552 0.45436 0.0
H1790 H 0.35117 0.05532 0.44026 0.0
H1791 H 0.34134 0.06373 0.45516 0.0
H1792 H 0.3029 0.08657 0.48909 0.0
H1793 H 0.32265 0.08766 0.4865 0.0
H1794 H 0.30709 0.09467 0.52269 0.0
H1795 H 0.3267 0.09597 0.51997 0.0
H1796 H 0.38426 0.10766 0.52516 0.0
H1797 H 0.40384 0.11539 0.49733 0.0
H1798 H 0.39139 0.10516 0.48592 0.0
H1799 H 0.37165 0.09754 0.51358 0.0
C1800 C 0.35631 0.95273 0.05682 0.0
C1801 C 0.36701 0.94942 0.05899 0.0
C1802 C 0.36843 0.96275 0.07346 0.0
C1803 C 0.37301 0.95436 0.06725 0.0
C1804 C 0.35773 0.96608 0.07115 0.0
C1805 C 0.35175 0.96111 0.06293 0.0
U1806 U 0.3533 0.93422 0.03217 0.0
O1807 O 0.3407 0.92206 0.0285 0.0
O1808 O 0.343 0.93599 0.01776 0.0
C1809 C 0.33711 0.9274 0.02005 0.0
C1810 C 0.34972 0.94745 0.04838 0.0
C1811 C 0.32517 0.92857 0.01912 0.0
C1812 C 0.30844 0.93904 0.0207 0.0
C1813 C 0.31972 0.93809 0.02215 0.0
C1814 C 0.30788 0.92092 0.01334 0.0
C1815 C 0.30236 0.93048 0.01618 0.0
C1816 C 0.31913 0.91999 0.01478 0.0
C1817 C 0.37996 0.9208 0.02133 0.0
C1818 C 0.38585 0.91487 1.00354 0.0
C1819 C 0.39555 0.90882 0.01941 0.0
C1820 C 0.38837 0.91466 0.02591 0.0
C1821 C 0.39452 0.90898 1.00813 0.0
C1822 C 0.37865 0.92075 1.01008 0.0
C1823 C 0.37334 0.92774 0.0285 0.0
O1824 O 0.35142 0.9508 0.03847 0.0
O1825 O 0.34885 0.93686 0.04912 0.0
O1826 O 0.36675 0.92278 0.03521 0.0
O1827 O 0.36915 0.93661 0.02432 0.0
H1828 H 0.3707 0.94298 0.05433 0.0
H1829 H 0.38126 0.95167 0.0687 0.0
H1830 H 0.35388 0.97239 0.07583 0.0
H1831 H 0.34349 0.96376 0.06139 0.0
H1832 H 0.30451 0.94656 0.02291 0.0
H1833 H 0.3242 0.94483 0.02553 0.0
H1834 H 0.30351 0.91407 1.01005 0.0
H1835 H 0.32315 0.91255 0.01242 0.0
H1836 H 0.38484 0.91523 0.99488 0.0
H1837 H 0.40198 0.90422 0.02326 0.0
H1838 H 0.38955 0.91457 0.03457 0.0
H1839 H 0.37223 0.92544 1.00632 0.0
C1840 C 0.66578 0.56866 0.05713 0.0
C1841 C 0.65496 0.56572 0.05506 0.0
C1842 C 0.6534 0.55779 0.07305 0.0
C1843 C 0.64884 0.5603 0.06293 0.0
C1844 C 0.6642 0.56092 0.07511 0.0
C1845 C 0.67032 0.56628 0.06722 0.0
U1846 U 0.66907 0.5869 0.03224 0.0
O1847 O 0.68135 0.59945 0.02876 0.0
O1848 O 0.6799 0.58526 0.01823 0.0
C1849 C 0.68545 0.59405 0.0206 0.0
C1850 C 0.67251 0.57411 0.04887 0.0
C1851 C 0.69748 0.59328 0.02016 0.0
C1852 C 0.71437 0.58291 0.02007 0.0
C1853 C 0.70301 0.58336 0.02114 0.0
C1854 C 0.71484 0.60229 0.01721 0.0
C1855 C 0.72044 0.59238 0.01806 0.0
C1856 C 0.70352 0.60272 0.01823 0.0
C1857 C 0.64228 0.59905 0.0203 0.0
C1858 C 0.63943 0.60839 1.00322 0.0
C1859 C 0.62485 0.60744 0.01627 0.0
C1860 C 0.6316 0.6016 0.02325 0.0
C1861 C 0.62863 0.6109 1.00614 0.0
C1862 C 0.6462 0.60252 1.01025 0.0
C1863 C 0.6489 0.59251 0.02781 0.0
O1864 O 0.67145 0.57056 0.03895 0.0
O1865 O 0.67293 0.58473 0.04947 0.0
O1866 O 0.65512 0.59787 0.03455 0.0
O1867 O 0.65359 0.58381 0.02388 0.0
H1868 H 0.65124 0.56756 0.04736 0.0
H1869 H 0.64051 0.55815 0.06111 0.0
H1870 H 0.66803 0.55903 0.08275 0.0
H1871 H 0.67866 0.56848 0.06899 0.0
H1872 H 0.7184 0.57515 0.0209 0.0
H1873 H 0.69857 0.57594 0.02265 0.0
H1874 H 0.71918 0.60972 0.01551 0.0
H1875 H 0.69945 0.61046 0.01736 0.0
H1876 H 0.64266 0.611 0.99554 0.0
H1877 H 0.61657 0.60901 0.01875 0.0
H1878 H 0.6284 0.59895 0.03094 0.0
H1879 H 0.65444 0.60065 1.00783 0.0
C1880 C 0.16614 0.95297 0.96409 0.0
C1881 C 0.15481 0.95386 0.96513 0.0
C1882 C 0.15367 0.96313 0.94773 0.0
C1883 C 0.14864 0.9589 0.95703 0.0
C1884 C 0.16502 0.96205 0.94671 0.0
C1885 C 0.17117 0.95703 0.9548 0.0
U1886 U 0.16968 0.93569 0.98966 0.0
O1887 O 0.18247 0.92396 0.99388 0.0
O1888 O 0.18018 0.93845 1.00382 0.0
C1889 C 0.1861 0.92979 1.00197 0.0
C1890 C 0.17287 0.948 0.97263 0.0
C1891 C 0.19803 0.93117 1.00276 0.0
C1892 C 0.21591 0.93358 0.99466 0.0
C1893 C 0.20456 0.93288 0.99364 0.0
C1894 C 0.21431 0.93108 0.01394 0.0
C1895 C 0.22096 0.93263 1.00484 0.0
C1896 C 0.20301 0.93036 0.01289 0.0
C1897 C 0.14352 0.92287 1.0023 0.0
C1898 C 0.13227 0.92197 0.01846 0.0
C1899 C 0.13328 0.90649 1.0066 0.0
C1900 C 0.14043 0.91218 0.99988 0.0
C1901 C 0.12894 0.91137 0.01589 0.0
C1902 C 0.13942 0.92765 0.01174 0.0
C1903 C 0.14978 0.92937 0.99432 0.0
O1904 O 0.17147 0.95186 0.98239 0.0
O1905 O 0.17364 0.93739 0.97242 0.0
O1906 O 0.15624 0.92407 0.98773 0.0
O1907 O 0.15395 0.9386 0.99761 0.0
H1908 H 0.15077 0.95076 0.97224 0.0
H1909 H 0.13995 0.95967 0.95818 0.0
H1910 H 0.16917 0.96501 0.93961 0.0
H1911 H 0.17989 0.95637 0.95382 0.0
H1912 H 0.22073 0.93491 0.98749 0.0
H1913 H 0.20091 0.93357 0.98572 0.0
H1914 H 0.21786 0.93015 0.02187 0.0
H1915 H 0.19813 0.929 0.02004 0.0
H1916 H 0.129 0.92606 0.02546 0.0
H1917 H 0.13103 0.89831 1.00443 0.0
H1918 H 0.14329 0.90827 0.99261 0.0
H1919 H 0.14144 0.93594 0.01377 0.0
H1920 H 0.12896 0.11344 0.48389 0.0
H1921 H 0.07014 0.14159 0.48382 0.0
H1922 H 0.11022 0.11959 0.51261 0.0
H1923 H 0.08856 0.13552 0.45489 0.0
H1924 H 0.08505 0.13408 0.49448 0.0
H1925 H 0.11458 0.12193 0.47314 0.0
C1926 C 0.12184 0.11656 0.48795 0.0
C1927 C 0.12086 0.11578 0.49921 0.0
C1928 C 0.08586 0.13442 0.4858 0.0
C1929 C 0.10434 0.1256 0.48691 0.0
C1930 C 0.07731 0.13867 0.47969 0.0
C1931 C 0.07803 0.13917 0.4684 0.0
C1932 C 0.09526 0.13057 0.48064 0.0
C1933 C 0.08765 0.13542 0.46356 0.0
C1934 C 0.11364 0.12146 0.4818 0.0
C1935 C 0.11146 0.12012 0.50399 0.0
N1936 N 0.09584 0.13124 0.46969 0.0
N1937 N 0.10359 0.12479 0.49783 0.0
H1938 H 0.89856 0.39028 0.50721 0.0
H1939 H 0.94101 0.38886 0.45818 0.0
H1940 H 0.90403 0.41733 0.48584 0.0
H1941 H 0.9368 0.36267 0.48088 0.0
H1942 H 0.92713 0.39922 0.4678 0.0
H1943 H 0.91189 0.37976 0.49708 0.0
C1944 C 0.90247 0.39399 0.50032 0.0
C1945 C 0.90013 0.40475 0.49741 0.0
C1946 C 0.92924 0.3912 0.47067 0.0
C1947 C 0.9156 0.39273 0.4858 0.0
C1948 C 0.93723 0.38529 0.46521 0.0
C1949 C 0.94013 0.37483 0.46868 0.0
C1950 C 0.92407 0.38665 0.4797 0.0
C1951 C 0.93476 0.37061 0.47776 0.0
C1952 C 0.91016 0.38799 0.49458 0.0
C1953 C 0.90564 0.40913 0.48849 0.0
N1954 N 0.92703 0.37652 0.48293 0.0
N1955 N 0.9131 0.40312 0.48303 0.0
H1956 H 0.12663 0.91131 0.03799 0.0
H1957 H 0.07232 0.87532 0.0375 0.0
H1958 H 0.11209 0.89844 1.00906 0.0
H1959 H 0.08635 0.88877 0.06641 0.0
H1960 H 0.08722 0.88313 0.02706 0.0
H1961 H 0.11237 0.90256 0.04861 0.0
C1962 C 0.12045 0.90666 0.03385 0.0
C1963 C 0.12061 0.90565 0.02258 0.0
C1964 C 0.08707 0.88434 0.0357 0.0
C1965 C 0.10423 0.89551 0.03475 0.0
C1966 C 0.07852 0.87991 0.04167 0.0
C1967 C 0.07801 0.88138 0.05289 0.0
C1968 C 0.09522 0.89033 0.04093 0.0
C1969 C 0.08642 0.88729 0.05782 0.0
C1970 C 0.11233 0.90162 0.03994 0.0
C1971 C 0.11244 0.89935 0.01773 0.0
N1972 N 0.09463 0.89157 0.05182 0.0
N1973 N 0.10459 0.89458 0.02382 0.0
H1974 H 0.88971 0.62654 0.03035 0.0
H1975 H 0.95288 0.63662 0.04327 0.0
H1976 H 0.91601 0.61047 0.01387 0.0
H1977 H 0.927 0.65468 0.05832 0.0
H1978 H 0.93935 0.62628 0.03321 0.0
H1979 H 0.90307 0.6362 0.04142 0.0
C1980 C 0.89828 0.62499 0.0291 0.0
C1981 C 0.90171 0.61772 0.02109 0.0
C1982 C 0.93661 0.63248 0.03872 0.0
C1983 C 0.91708 0.62881 0.03372 0.0
C1984 C 0.94435 0.63836 0.04454 0.0
C1985 C 0.94111 0.64656 0.05168 0.0
C1986 C 0.9255 0.63476 0.04003 0.0
C1987 C 0.92991 0.64854 0.05282 0.0
C1988 C 0.90591 0.63055 0.03538 0.0
C1989 C 0.91295 0.61612 0.0198 0.0
N1990 N 0.92252 0.64269 0.04707 0.0
N1991 N 0.9202 0.62161 0.02601 0.0
H1992 H 0.49482 0.12949 0.13567 0.0
H1993 H 0.46132 0.07553 0.12199 0.0
H1994 H 0.48924 0.11779 0.1034 0.0
H1995 H 0.46798 0.08604 0.15447 0.0
H1996 H 0.47163 0.09093 0.11515 0.0
H1997 H 0.48518 0.11368 0.14277 0.0
C1998 C 0.49155 0.12362 0.13006 0.0
C1999 C 0.49285 0.12503 0.11889 0.0
C2000 C 0.47087 0.08988 0.12377 0.0
C2001 C 0.48182 0.10682 0.12701 0.0
C2002 C 0.46491 0.0811 0.12771 0.0
C2003 C 0.46367 0.07949 0.13885 0.0
C2004 C 0.47567 0.0972 0.131 0.0
C2005 C 0.46875 0.0869 0.14582 0.0
C2006 C 0.48609 0.11455 0.13414 0.0
C2007 C 0.48858 0.11702 0.11206 0.0
N2008 N 0.47447 0.09544 0.14179 0.0
N2009 N 0.48323 0.10832 0.11622 0.0
H2010 H 0.53669 0.40259 0.10604 0.0
H2011 H 0.53829 0.4389 0.15955 0.0
H2012 H 0.51257 0.40087 0.13119 0.0
H2013 H 0.56338 0.43963 0.13529 0.0
H2014 H 0.52887 0.42491 0.14929 0.0
H2015 H 0.5466 0.4161 0.11658 0.0
C2016 C 0.53346 0.40504 0.11377 0.0
C2017 C 0.52374 0.40055 0.1177 0.0
C2018 C 0.53644 0.42811 0.1462 0.0
C2019 C 0.53512 0.41605 0.12986 0.0
C2020 C 0.54188 0.43608 0.1521 0.0
C2021 C 0.55171 0.44048 0.14834 0.0
C2022 C 0.5408 0.42447 0.1364 0.0
C2023 C 0.55579 0.43661 0.13848 0.0
C2024 C 0.53916 0.41274 0.11981 0.0
C2025 C 0.52008 0.40397 0.12787 0.0
N2026 N 0.55033 0.42884 0.13288 0.0
N2027 N 0.52573 0.41152 0.13355 0.0
H2028 H 0.49004 0.90415 0.41827 0.0
H2029 H 0.46724 0.93512 0.36596 0.0
H2030 H 0.49373 0.89189 0.38594 0.0
H2031 H 0.4622 0.946 0.39859 0.0
H2032 H 0.47772 0.91973 0.37292 0.0
H2033 H 0.48062 0.91998 0.41102 0.0
C2034 C 0.48896 0.90482 0.40963 0.0
C2035 C 0.49272 0.89663 0.40273 0.0
C2036 C 0.47432 0.92549 0.37855 0.0
C2037 C 0.48175 0.91478 0.39434 0.0
C2038 C 0.46838 0.93432 0.37457 0.0
C2039 C 0.46374 0.94187 0.38168 0.0
C2040 C 0.4757 0.92419 0.38973 0.0
C2041 C 0.46543 0.94032 0.39279 0.0
C2042 C 0.4835 0.91385 0.4055 0.0
C2043 C 0.49088 0.89791 0.39161 0.0
N2044 N 0.47125 0.93169 0.39644 0.0
N2045 N 0.48554 0.90679 0.38777 0.0
H2046 H 0.5465 0.56922 0.38668 0.0
H2047 H 0.52829 0.63148 0.39149 0.0
H2048 H 0.55454 0.59357 0.36301 0.0
H2049 H 0.5194 0.60672 0.41444 0.0
H2050 H 0.53829 0.61787 0.38116 0.0
H2051 H 0.53711 0.58302 0.39725 0.0
C2052 C 0.54638 0.57748 0.38373 0.0
C2053 C 0.55135 0.58019 0.3739 0.0
C2054 C 0.53417 0.61543 0.38848 0.0
C2055 C 0.54043 0.59608 0.38597 0.0
C2056 C 0.5284 0.62319 0.39436 0.0
C2057 C 0.52297 0.6203 0.4039 0.0
C2058 C 0.53453 0.60464 0.3921 0.0
C2059 C 0.52358 0.60942 0.40725 0.0
C2060 C 0.54093 0.58536 0.38975 0.0
C2061 C 0.55072 0.59103 0.37045 0.0
N2062 N 0.52921 0.60202 0.40137 0.0
N2063 N 0.54538 0.59856 0.37646 0.0
H2064 H 0.15775 0.46484 0.09419 0.0
H2065 H 0.10519 0.5011 0.10677 0.0
H2066 H 0.13425 0.47432 0.07011 0.0
H2067 H 0.12856 0.4917 0.13101 0.0
H2068 H 0.11549 0.49093 0.0934 0.0
H2069 H 0.14707 0.47434 0.10782 0.0
C2070 C 0.15037 0.46894 0.09174 0.0
C2071 C 0.14695 0.46878 0.08092 0.0
C2072 C 0.11836 0.49106 0.10164 0.0
C2073 C 0.13458 0.47964 0.0966 0.0
C2074 C 0.11243 0.49682 0.10933 0.0
C2075 C 0.11595 0.49727 0.12011 0.0
C2076 C 0.12795 0.48567 0.10467 0.0
C2077 C 0.12556 0.49171 0.12281 0.0
C2078 C 0.14424 0.47433 0.09956 0.0
C2079 C 0.13718 0.4741 0.07833 0.0
N2080 N 0.13121 0.48616 0.11516 0.0
N2081 N 0.13138 0.47932 0.08608 0.0
H2082 H 0.13459 0.51484 0.39581 0.0
H2083 H 0.1322 0.56023 0.44195 0.0
H2084 H 0.10516 0.53165 0.40461 0.0
H2085 H 0.16086 0.54154 0.43447 0.0
H2086 H 0.1223 0.55045 0.4279 0.0
H2087 H 0.14448 0.52523 0.40936 0.0
C2088 C 0.13019 0.52071 0.40059 0.0
C2089 C 0.11898 0.5223 0.39906 0.0
C2090 C 0.13076 0.54851 0.42932 0.0
C2091 C 0.13034 0.53435 0.41463 0.0
C2092 C 0.13642 0.55406 0.4374 0.0
C2093 C 0.14742 0.55175 0.43945 0.0
C2094 C 0.13611 0.54057 0.42319 0.0
C2095 C 0.15245 0.54375 0.43312 0.0
C2096 C 0.13587 0.52668 0.40832 0.0
C2097 C 0.1138 0.53019 0.4054 0.0
N2098 N 0.14677 0.53847 0.42532 0.0
N2099 N 0.1195 0.53588 0.41291 0.0
H2100 H 0.86828 0.95465 0.4253 0.0
H2101 H 0.903 1.00566 0.40496 0.0
H2102 H 0.87908 0.98015 0.44646 0.0
H2103 H 0.89574 0.97788 0.38516 0.0
H2104 H 0.89409 0.99671 0.42017 0.0
H2105 H 0.87789 0.96335 0.41042 0.0
C2106 C 0.87264 0.9621 0.42682 0.0
C2107 C 0.87281 0.96668 0.43718 0.0
C2108 C 0.89446 0.99257 0.4125 0.0
C2109 C 0.88395 0.97671 0.4201 0.0
C2110 C 0.89961 0.99766 0.4038 0.0
C2111 C 0.90013 0.99258 0.39368 0.0
C2112 C 0.88973 0.98231 0.41111 0.0
C2113 C 0.8954 0.98225 0.3927 0.0
C2114 C 0.87819 0.96705 0.41832 0.0
C2115 C 0.87878 0.97627 0.43866 0.0
N2116 N 0.8904 0.9775 0.40126 0.0
N2117 N 0.88405 0.98099 0.43022 0.0
H2118 H 0.39803 0.54416 0.63584 0.0
H2119 H 0.37989 0.54004 0.57388 0.0
H2120 H 0.40268 0.51546 0.61656 0.0
H2121 H 0.37148 0.56674 0.59464 0.0
H2122 H 0.38943 0.53144 0.58897 0.0
H2123 H 0.3893 0.55295 0.62048 0.0
C2124 C 0.39718 0.53966 0.62841 0.0
C2125 C 0.40107 0.52898 0.62759 0.0
C2126 C 0.38551 0.53919 0.59022 0.0
C2127 C 0.39116 0.53915 0.6098 0.0
C2128 C 0.38011 0.54415 0.58158 0.0
C2129 C 0.37483 0.55414 0.58296 0.0
C2130 C 0.3857 0.54427 0.60034 0.0
C2131 C 0.37529 0.55898 0.5932 0.0
C2132 C 0.39223 0.54473 0.6196 0.0
C2133 C 0.39993 0.52372 0.6176 0.0
N2134 N 0.38062 0.55402 0.60146 0.0
N2135 N 0.39507 0.52884 0.60913 0.0
H2136 H 0.92615 0.86792 0.55977 0.0
H2137 H 0.91556 0.90988 0.51151 0.0
H2138 H 0.95168 0.88368 0.54184 0.0
H2139 H 0.88975 0.8964 0.53083 0.0
H2140 H 0.92881 0.90024 0.52256 0.0
H2141 H 0.91268 0.87812 0.54934 0.0
C2142 C 0.92894 0.8735 0.55363 0.0
C2143 C 0.94011 0.87491 0.55169 0.0
C2144 C 0.92026 0.89938 0.52442 0.0
C2145 C 0.92467 0.88668 0.53972 0.0
C2146 C 0.91266 0.90485 0.51805 0.0
C2147 C 0.90148 0.9039 0.52016 0.0
C2148 C 0.91672 0.89284 0.533 0.0
C2149 C 0.89827 0.89743 0.52893 0.0
C2150 C 0.92123 0.87937 0.54771 0.0
C2151 C 0.9432 0.8824 0.54373 0.0
N2152 N 0.90584 0.89211 0.53498 0.0
N2153 N 0.93554 0.88794 0.53803 0.0
H2154 H 0.07465 0.64785 0.54013 0.0
H2155 H 0.12373 0.60502 0.539 0.0
H2156 H 0.084 0.62823 0.56741 0.0
H2157 H 0.1141 0.62423 0.51152 0.0
H2158 H 0.10967 0.61392 0.54971 0.0
H2159 H 0.08944 0.63979 0.52971 0.0
C2160 C 0.07979 0.64185 0.54394 0.0
C2161 C 0.07802 0.63873 0.5547 0.0
C2162 C 0.11065 0.61623 0.54134 0.0
C2163 C 0.09509 0.62949 0.54279 0.0
C2164 C 0.11867 0.6111 0.5352 0.0
C2165 C 0.12013 0.61383 0.5243 0.0
C2166 C 0.10398 0.62415 0.53659 0.0
C2167 C 0.1134 0.62193 0.51991 0.0
C2168 C 0.08829 0.63728 0.53799 0.0
C2169 C 0.0851 0.63102 0.55922 0.0
N2170 N 0.10562 0.62675 0.52604 0.0
N2171 N 0.09327 0.62665 0.55324 0.0
H2172 H 0.93725 0.1602 0.98198 0.0
H2173 H 0.90341 0.10501 0.98803 0.0
H2174 H 0.94011 0.13351 0.95975 0.0
H2175 H 0.8999 0.13247 1.00921 0.0
H2176 H 0.91658 0.1153 0.97737 0.0
H2177 H 0.92344 0.15014 0.99188 0.0
C2178 C 0.93494 0.15225 0.97911 0.0
C2179 C 0.93988 0.14775 0.96994 0.0
C2180 C 0.9129 0.11908 0.98434 0.0
C2181 C 0.92405 0.13605 0.98142 0.0
C2182 C 0.90531 0.11323 0.9904 0.0
C2183 C 0.90052 0.11783 0.9996 0.0
C2184 C 0.91576 0.12964 0.98746 0.0
C2185 C 0.90347 0.12848 1.00231 0.0
C2186 C 0.92707 0.14647 0.98483 0.0
C2187 C 0.93665 0.13729 0.96681 0.0
N2188 N 0.91089 0.13399 0.99631 0.0
N2189 N 0.92895 0.13181 0.97252 0.0
H2190 H 0.12439 0.41561 0.98228 0.0
H2191 H 0.0752 0.37294 0.9812 0.0
H2192 H 0.11482 0.39646 1.00979 0.0
H2193 H 0.08471 0.39233 0.95383 0.0
H2194 H 0.09003 0.38098 0.99162 0.0
H2195 H 0.11032 0.40669 0.97158 0.0
C2196 C 0.11934 0.40953 0.98609 0.0
C2197 C 0.12082 0.40683 0.99699 0.0
C2198 C 0.0889 0.38344 0.98332 0.0
C2199 C 0.10465 0.39649 0.98471 0.0
C2200 C 0.08039 0.37889 0.97737 0.0
C2201 C 0.07864 0.38194 0.96659 0.0
C2202 C 0.09575 0.39116 0.97851 0.0
C2203 C 0.08578 0.38959 0.96205 0.0
C2204 C 0.11132 0.4044 0.97994 0.0
C2205 C 0.1141 0.39874 1.0014 0.0
N2206 N 0.09396 0.39394 0.96802 0.0
N2207 N 0.1063 0.39392 0.99527 0.0
H2208 H 0.54213 0.95215 0.8827 0.0
H2209 H 0.53294 0.88918 0.89623 0.0
H2210 H 0.5608 0.92652 0.86808 0.0
H2211 H 0.51271 0.91495 0.90837 0.0
H2212 H 0.54395 0.90267 0.88668 0.0
H2213 H 0.53202 0.93862 0.89298 0.0
C2214 C 0.54418 0.94369 0.88171 0.0
C2215 C 0.55236 0.94051 0.87448 0.0
C2216 C 0.5371 0.90537 0.89143 0.0
C2217 C 0.54067 0.92487 0.8862 0.0
C2218 C 0.53084 0.89766 0.89694 0.0
C2219 C 0.52181 0.90089 0.90307 0.0
C2220 C 0.53438 0.91641 0.89211 0.0
C2221 C 0.51946 0.91203 0.90361 0.0
C2222 C 0.53834 0.93594 0.88754 0.0
C2223 C 0.55449 0.92937 0.87344 0.0
N2224 N 0.52568 0.91934 0.89821 0.0
N2225 N 0.5487 0.92197 0.87922 0.0
H2226 H 0.46856 0.58631 0.86533 0.0
H2227 H 0.49036 0.61757 0.91776 0.0
H2228 H 0.46223 0.57604 0.89797 0.0
H2229 H 0.49502 0.62941 0.88537 0.0
H2230 H 0.48088 0.60181 0.91052 0.0
H2231 H 0.47911 0.6016 0.87235 0.0
C2232 C 0.46943 0.58722 0.87396 0.0
C2233 C 0.46441 0.57988 0.88105 0.0
C2234 C 0.48399 0.60784 0.90498 0.0
C2235 C 0.47645 0.59744 0.88916 0.0
C2236 C 0.48948 0.61683 0.90912 0.0
C2237 C 0.49352 0.62488 0.90219 0.0
C2238 C 0.48251 0.60681 0.89379 0.0
C2239 C 0.49194 0.62351 0.89104 0.0
C2240 C 0.47541 0.59599 0.87797 0.0
C2241 C 0.46577 0.58157 0.89218 0.0
N2242 N 0.48658 0.61466 0.8872 0.0
N2243 N 0.47163 0.59013 0.89586 0.0
H2244 H 0.5625 0.09401 0.65077 0.0
H2245 H 0.51056 0.10651 0.61368 0.0
H2246 H 0.54052 0.06947 0.63908 0.0
H2247 H 0.53384 0.13097 0.62278 0.0
H2248 H 0.52137 0.09296 0.62318 0.0
H2249 H 0.55212 0.10771 0.64083 0.0
C2250 C 0.55548 0.09149 0.64613 0.0
C2251 C 0.55239 0.08054 0.6458 0.0
C2252 C 0.52415 0.10128 0.62311 0.0
C2253 C 0.54047 0.09623 0.63433 0.0
C2254 C 0.51792 0.10906 0.61774 0.0
C2255 C 0.52122 0.11996 0.61748 0.0
C2256 C 0.53379 0.10435 0.62834 0.0
C2257 C 0.53099 0.12268 0.6227 0.0
C2258 C 0.54959 0.09933 0.64041 0.0
C2259 C 0.54331 0.07777 0.6395 0.0
N2260 N 0.53689 0.11495 0.62795 0.0
N2261 N 0.53766 0.08555 0.63408 0.0
H2262 H 0.46688 0.43407 0.65478 0.0
H2263 H 0.48982 0.40353 0.60245 0.0
H2264 H 0.46204 0.4453 0.62219 0.0
H2265 H 0.49305 0.39081 0.63469 0.0
H2266 H 0.48041 0.41932 0.60972 0.0
H2267 H 0.47726 0.41866 0.64778 0.0
C2268 C 0.46804 0.43334 0.64617 0.0
C2269 C 0.46349 0.44099 0.63908 0.0
C2270 C 0.48319 0.41309 0.61522 0.0
C2271 C 0.47534 0.4233 0.63099 0.0
C2272 C 0.48864 0.40408 0.61107 0.0
C2273 C 0.49226 0.39578 0.61794 0.0
C2274 C 0.48134 0.41389 0.62636 0.0
C2275 C 0.4903 0.39692 0.62905 0.0
C2276 C 0.47392 0.4245 0.64217 0.0
C2277 C 0.46521 0.43954 0.62797 0.0
N2278 N 0.48499 0.40578 0.6329 0.0
N2279 N 0.47097 0.4309 0.6243 0.0
H2280 H 0.89308 0.54287 0.88508 0.0
H2281 H 0.88089 0.54263 0.94856 0.0
H2282 H 0.90417 0.51756 0.90648 0.0
H2283 H 0.86639 0.56515 0.92614 0.0
H2284 H 0.8905 0.53404 0.93356 0.0
H2285 H 0.88417 0.55168 0.90026 0.0
C2286 C 0.8936 0.5391 0.89295 0.0
C2287 C 0.89935 0.52936 0.89442 0.0
C2288 C 0.88522 0.54086 0.93192 0.0
C2289 C 0.88924 0.5396 0.91199 0.0
C2290 C 0.87978 0.54582 0.9405 0.0
C2291 C 0.87277 0.55463 0.93863 0.0
C2292 C 0.88373 0.54476 0.92138 0.0
C2293 C 0.87157 0.5583 0.92797 0.0
C2294 C 0.88855 0.5442 0.90165 0.0
C2295 C 0.89993 0.52509 0.90492 0.0
N2296 N 0.87699 0.55338 0.91978 0.0
N2297 N 0.89494 0.53021 0.91328 0.0
H2298 H 0.86873 0.48535 0.57695 0.0
H2299 H 0.90658 0.47612 0.62884 0.0
H2300 H 0.88096 0.45408 0.58673 0.0
H2301 H 0.89497 0.50751 0.61868 0.0
H2302 H 0.89752 0.46798 0.61332 0.0
H2303 H 0.87853 0.49364 0.59197 0.0
C2304 C 0.87345 0.48021 0.58226 0.0
C2305 C 0.87396 0.46897 0.58056 0.0
C2306 C 0.89698 0.47665 0.61446 0.0
C2307 C 0.88531 0.47847 0.5978 0.0
C2308 C 0.9021 0.48132 0.62337 0.0
C2309 C 0.90152 0.49254 0.62515 0.0
C2310 C 0.89116 0.48322 0.60721 0.0
C2311 C 0.89575 0.49885 0.61762 0.0
C2312 C 0.8791 0.48497 0.59082 0.0
C2313 C 0.88039 0.46278 0.58763 0.0
N2314 N 0.89077 0.4941 0.60904 0.0
N2315 N 0.88576 0.46759 0.59595 0.0
H2316 H 0.16232 0.04143 0.58696 0.0
H2317 H 0.10524 0.03219 0.61672 0.0
H2318 H 0.13361 0.06027 0.5799 0.0
H2319 H 0.13463 0.0148 0.62466 0.0
H2320 H 0.11543 0.04275 0.60343 0.0
H2321 H 0.15225 0.03176 0.60087 0.0
C2322 C 0.15392 0.04362 0.58837 0.0
C2323 C 0.14886 0.05176 0.58222 0.0
C2324 C 0.11965 0.03665 0.60811 0.0
C2325 C 0.13716 0.04051 0.59815 0.0
C2326 C 0.11385 0.03065 0.61577 0.0
C2327 C 0.11904 0.02253 0.62185 0.0
C2328 C 0.13075 0.03454 0.60647 0.0
C2329 C 0.1302 0.02083 0.62008 0.0
C2330 C 0.14814 0.03802 0.5963 0.0
C2331 C 0.13785 0.054 0.58432 0.0
N2332 N 0.13565 0.02675 0.61257 0.0
N2333 N 0.13239 0.04842 0.5921 0.0
H2334 H 0.63673 0.47898 0.4513 0.0
H2335 H 0.62449 0.48904 0.38851 0.0
H2336 H 0.65265 0.46124 0.4259 0.0
H2337 H 0.61116 0.50847 0.41415 0.0
H2338 H 0.63405 0.47802 0.40198 0.0
H2339 H 0.62649 0.48908 0.43774 0.0
C2340 C 0.63801 0.47713 0.44287 0.0
C2341 C 0.64559 0.46922 0.43977 0.0
C2342 C 0.62903 0.4847 0.40465 0.0
C2343 C 0.63391 0.4809 0.42411 0.0
C2344 C 0.62352 0.49097 0.39696 0.0
C2345 C 0.61705 0.49977 0.40016 0.0
C2346 C 0.62802 0.4872 0.41565 0.0
C2347 C 0.61619 0.5019 0.41125 0.0
C2348 C 0.6322 0.48297 0.43511 0.0
C2349 C 0.647 0.46734 0.42869 0.0
N2350 N 0.62159 0.49569 0.41856 0.0
N2351 N 0.64123 0.47312 0.42127 0.0
H2352 H 0.5742 0.64695 0.97972 0.0
H2353 H 0.62685 0.60894 0.98408 0.0
H2354 H 0.58936 0.63174 0.95229 0.0
H2355 H 0.61328 0.62636 0.01101 0.0
H2356 H 0.61369 0.61779 0.9722 0.0
H2357 H 0.58887 0.64011 0.99115 0.0
C2358 C 0.58066 0.64229 0.97605 0.0
C2359 C 0.58044 0.63989 0.96499 0.0
C2360 C 0.61362 0.61972 0.9807 0.0
C2361 C 0.59726 0.63185 0.97814 0.0
C2362 C 0.6212 0.61471 0.9875 0.0
C2363 C 0.62117 0.61681 0.99863 0.0
C2364 C 0.6059 0.6269 0.98502 0.0
C2365 C 0.61351 0.62429 1.00255 0.0
C2366 C 0.58902 0.63832 0.98262 0.0
C2367 C 0.58902 0.63365 0.96079 0.0
N2368 N 0.60618 0.629 0.99579 0.0
N2369 N 0.59702 0.62981 0.96736 0.0
H2370 H 0.41662 0.90802 0.01087 0.0
H2371 H 0.42742 0.86881 0.96057 0.0
H2372 H 0.39114 0.89704 0.98963 0.0
H2373 H 0.45283 0.88191 0.98068 0.0
H2374 H 0.41399 0.87893 0.97106 0.0
H2375 H 0.4299 0.89837 0.99992 0.0
C2376 C 0.41379 0.90353 1.00393 0.0
C2377 C 0.40269 0.9033 1.00125 0.0
C2378 C 0.42251 0.87962 0.97316 0.0
C2379 C 0.41798 0.89226 0.98852 0.0
C2380 C 0.43019 0.87379 0.9672 0.0
C2381 C 0.44131 0.87447 0.96973 0.0
C2382 C 0.42593 0.88615 0.98178 0.0
C2383 C 0.44439 0.8812 0.97833 0.0
C2384 C 0.42141 0.89807 0.99762 0.0
C2385 C 0.3996 0.89751 0.992 0.0
N2386 N 0.43675 0.88672 0.98405 0.0
N2387 N 0.40718 0.89219 0.986 0.0
H2388 H 0.58598 0.39325 0.56832 0.0
H2389 H 0.61543 0.39171 0.51075 0.0
H2390 H 0.5755 0.37279 0.54214 0.0
H2391 H 0.62333 0.41468 0.53574 0.0
H2392 H 0.60191 0.38354 0.52266 0.0
H2393 H 0.60078 0.39997 0.55707 0.0
C2394 C 0.58677 0.39016 0.5602 0.0
C2395 C 0.57935 0.3825 0.55617 0.0
C2396 C 0.60664 0.39033 0.52556 0.0
C2397 C 0.59646 0.39013 0.54321 0.0
C2398 C 0.61434 0.39505 0.51874 0.0
C2399 C 0.62052 0.404 0.52217 0.0
C2400 C 0.60505 0.39453 0.53595 0.0
C2401 C 0.61887 0.40777 0.53273 0.0
C2402 C 0.59527 0.39398 0.55378 0.0
C2403 C 0.58101 0.37864 0.54565 0.0
N2404 N 0.61128 0.40306 0.53919 0.0
N2405 N 0.58933 0.38253 0.53953 0.0
H2406 H 0.41739 0.11158 0.51093 0.0
H2407 H 0.4277 0.15436 0.55839 0.0
H2408 H 0.39145 0.12584 0.52947 0.0
H2409 H 0.45334 0.13812 0.54107 0.0
H2410 H 0.41428 0.14412 0.54797 0.0
H2411 H 0.43058 0.12132 0.52193 0.0
C2412 C 0.41444 0.1168 0.51729 0.0
C2413 C 0.40324 0.11794 0.51919 0.0
C2414 C 0.42284 0.14277 0.54648 0.0
C2415 C 0.41842 0.1291 0.53197 0.0
C2416 C 0.43052 0.14866 0.55239 0.0
C2417 C 0.44171 0.14714 0.55062 0.0
C2418 C 0.42633 0.13532 0.53867 0.0
C2419 C 0.44484 0.13951 0.54283 0.0
C2420 C 0.42201 0.12232 0.52363 0.0
C2421 C 0.39998 0.12466 0.52773 0.0
N2422 N 0.43721 0.13394 0.53713 0.0
N2423 N 0.40752 0.13002 0.53375 0.0
H2424 H 0.9937 0.61535 0.60331 0.0
H2425 H 0.96449 0.58802 0.65437 0.0
H2426 H 0.98936 0.63164 0.63373 0.0
H2427 H 0.96832 0.5722 0.62363 0.0
H2428 H 0.97382 0.60394 0.64712 0.0
H2429 H 0.9849 0.59931 0.61083 0.0
C2430 C 0.99098 0.61555 0.6116 0.0
C2431 C 0.9923 0.62493 0.61787 0.0
C2432 C 0.97264 0.59697 0.64197 0.0
C2433 C 0.98204 0.60652 0.62654 0.0
C2434 C 0.96726 0.58788 0.64609 0.0
C2435 C 0.9656 0.57868 0.63963 0.0
C2436 C 0.97641 0.59693 0.63128 0.0
C2437 C 0.96954 0.57899 0.629 0.0
C2438 C 0.98587 0.60639 0.61587 0.0
C2439 C 0.98841 0.62469 0.62852 0.0
N2440 N 0.97472 0.58793 0.62517 0.0
N2441 N 0.98347 0.61567 0.6325 0.0
H2442 H 0.06193 0.9274 0.65097 0.0
H2443 H 1.0089 0.91492 0.61549 0.0
H2444 H 0.03899 0.95181 0.6408 0.0
H2445 H 0.03302 0.8907 0.6231 0.0
H2446 H 0.01975 0.9284 0.62498 0.0
H2447 H 0.05146 0.91379 0.64107 0.0
C2448 C 0.05468 0.92991 0.64668 0.0
C2449 C 0.05135 0.9408 0.64675 0.0
C2450 C 0.0227 0.92015 0.62458 0.0
C2451 C 0.03932 0.92521 0.63534 0.0
C2452 C 0.01645 0.9124 0.61921 0.0
C2453 C 0.01998 0.9016 0.61854 0.0
C2454 C 0.03259 0.91713 0.62939 0.0
C2455 C 0.02999 0.89893 0.62334 0.0
C2456 C 0.04874 0.92213 0.64098 0.0
C2457 C 0.04196 0.94356 0.64089 0.0
N2458 N 0.03591 0.90662 0.6286 0.0
N2459 N 0.03628 0.93583 0.63548 0.0
H2460 H 0.96556 0.43407 0.86667 0.0
H2461 H 0.99354 0.40603 0.91812 0.0
H2462 H 0.96764 0.44906 0.89799 0.0
H2463 H 0.99049 0.39041 0.88719 0.0
H2464 H 0.98467 0.4221 0.91067 0.0
H2465 H 0.97504 0.4182 0.87386 0.0
C2466 C 0.96797 0.43404 0.87506 0.0
C2467 C 0.96577 0.44299 0.8817 0.0
C2468 C 0.98595 0.41516 0.9055 0.0
C2469 C 0.97676 0.4248 0.88999 0.0
C2470 C 0.99109 0.40599 0.90974 0.0
C2471 C 0.99278 0.39679 0.9033 0.0
C2472 C 0.98246 0.41522 0.89471 0.0
C2473 C 0.98924 0.39721 0.89252 0.0
C2474 C 0.97345 0.42498 0.87915 0.0
C2475 C 0.96928 0.44248 0.89249 0.0
N2476 N 0.98426 0.40624 0.88858 0.0
N2477 N 0.97456 0.43356 0.89628 0.0
H2478 H 0.04078 0.06833 0.88327 0.0
H2479 H 0.03145 0.13139 0.89612 0.0
H2480 H 0.05934 0.09388 0.8683 0.0
H2481 H 0.01146 0.10565 0.90877 0.0
H2482 H 0.04245 0.11785 0.88665 0.0
H2483 H 0.03069 0.08193 0.89345 0.0
C2484 C 0.04282 0.0768 0.88218 0.0
C2485 C 0.05096 0.07993 0.87489 0.0
C2486 C 0.03566 0.11517 0.8915 0.0
C2487 C 0.03929 0.09564 0.88649 0.0
C2488 C 0.0294 0.1229 0.89696 0.0
C2489 C 0.02044 0.11969 0.90321 0.0
C2490 C 0.033 0.10413 0.89234 0.0
C2491 C 0.01815 0.10855 0.9039 0.0
C2492 C 0.03699 0.08458 0.88795 0.0
C2493 C 0.05307 0.09107 0.87372 0.0
N2494 N 0.02436 0.10121 0.89855 0.0
N2495 N 0.04728 0.0985 0.87945 0.0
H2496 H 0.63376 0.96038 0.5792 0.0
H2497 H 0.63594 1.00649 0.62463 0.0
H2498 H 0.6621 0.97985 0.58589 0.0
H2499 H 0.60663 0.98929 0.61615 0.0
H2500 H 0.64585 0.99604 0.61116 0.0
H2501 H 0.62389 0.9702 0.59322 0.0
C2502 C 0.63792 0.96674 0.58356 0.0
C2503 C 0.64883 0.96925 0.58129 0.0
C2504 C 0.63725 0.99453 0.61225 0.0
C2505 C 0.63755 0.98047 0.59753 0.0
C2506 C 0.63156 1.00053 0.61994 0.0
C2507 C 0.62038 0.99886 0.62154 0.0
C2508 C 0.63177 0.98673 0.60606 0.0
C2509 C 0.61525 0.99083 0.61532 0.0
C2510 C 0.63228 0.9723 0.59163 0.0
C2511 C 0.65378 0.97747 0.58741 0.0
N2512 N 0.62096 0.98511 0.60784 0.0
N2513 N 0.64812 0.98276 0.5952 0.0
H2514 H 0.632 0.05958 0.9423 0.0
H2515 H 0.63526 0.01589 0.89461 0.0
H2516 H 0.66138 0.04281 0.93324 0.0
H2517 H 0.60525 0.03053 0.90512 0.0
H2518 H 0.64504 0.0264 0.90815 0.0
H2519 H 0.62215 0.04965 0.92832 0.0
C2520 C 0.63639 0.05379 0.93742 0.0
C2521 C 0.64758 0.05208 0.939 0.0
C2522 C 0.63631 0.02734 0.90749 0.0
C2523 C 0.63632 0.04073 0.92283 0.0
C2524 C 0.6307 0.0213 0.89977 0.0
C2525 C 0.61936 0.02224 0.89871 0.0
C2526 C 0.6306 0.03444 0.91427 0.0
C2527 C 0.61398 0.02958 0.90553 0.0
C2528 C 0.63076 0.04816 0.92938 0.0
C2529 C 0.65282 0.04457 0.93226 0.0
N2530 N 0.61963 0.03535 0.91303 0.0
N2531 N 0.64716 0.0392 0.92451 0.0
H2532 H 0.41457 0.48766 0.90005 0.0
H2533 H 0.35829 0.4777 0.93106 0.0
H2534 H 0.38354 0.49931 0.8887 0.0
H2535 H 0.38831 0.46199 0.94008 0.0
H2536 H 0.36768 0.4865 0.91614 0.0
H2537 H 0.40543 0.47921 0.91545 0.0
C2538 C 0.40585 0.48851 0.90082 0.0
C2539 C 0.39983 0.4942 0.89302 0.0
C2540 C 0.37223 0.48112 0.92137 0.0
C2541 C 0.38928 0.48447 0.91063 0.0
C2542 C 0.36684 0.47602 0.92989 0.0
C2543 C 0.37246 0.46898 0.93686 0.0
C2544 C 0.38337 0.47927 0.91977 0.0
C2545 C 0.38363 0.46741 0.93502 0.0
C2546 C 0.40062 0.48362 0.90959 0.0
C2547 C 0.38851 0.49489 0.89441 0.0
N2548 N 0.3887 0.47248 0.92666 0.0
N2549 N 0.38363 0.49012 0.90302 0.0
H2550 H 0.85918 0.05254 0.09326 0.0
H2551 H 0.91465 0.02679 0.11581 0.0
H2552 H 0.88832 0.04986 0.07414 0.0
H2553 H 0.88524 0.02982 0.13447 0.0
H2554 H 0.90526 0.035 0.10041 0.0
H2555 H 0.8687 0.04412 0.10834 0.0
C2556 C 0.86757 0.05012 0.09219 0.0
C2557 C 0.8729 0.05188 0.08234 0.0
C2558 C 0.90087 0.03387 0.10788 0.0
C2559 C 0.88397 0.04229 0.09975 0.0
C2560 C 0.90621 0.02912 0.11667 0.0
C2561 C 0.90076 0.02762 0.12652 0.0
C2562 C 0.88997 0.03714 0.10888 0.0
C2563 C 0.88985 0.03095 0.12714 0.0
C2564 C 0.87303 0.04536 0.10086 0.0
C2565 C 0.88388 0.04877 0.08158 0.0
N2566 N 0.88485 0.03552 0.11848 0.0
N2567 N 0.88903 0.04411 0.09015 0.0
H2568 H 0.4165 0.40984 1.01028 0.0
H2569 H 0.42709 0.37072 0.06085 0.0
H2570 H 0.39093 0.39883 0.03137 0.0
H2571 H 0.45255 0.38351 0.04063 0.0
H2572 H 0.41372 0.3809 0.05029 0.0
H2573 H 0.42974 0.40023 0.02138 0.0
C2574 C 0.41364 0.40536 0.01722 0.0
C2575 C 0.40253 0.4051 0.01981 0.0
C2576 C 0.42223 0.38151 0.04819 0.0
C2577 C 0.41777 0.3941 0.03271 0.0
C2578 C 0.42988 0.37565 0.05418 0.0
C2579 C 0.441 0.37621 0.05164 0.0
C2580 C 0.42568 0.38797 0.03951 0.0
C2581 C 0.44411 0.38289 0.04299 0.0
C2582 C 0.42124 0.39991 0.02361 0.0
C2583 C 0.3994 0.39933 0.02908 0.0
N2584 N 0.43651 0.38845 0.03724 0.0
N2585 N 0.40696 0.39402 0.03515 0.0
H2586 H 0.57608 0.1491 0.04097 0.0
H2587 H 0.62337 0.10436 0.03852 0.0
H2588 H 0.58415 0.12776 0.06737 0.0
H2589 H 0.61532 0.12548 0.01195 0.0
H2590 H 0.60945 0.11328 0.04938 0.0
H2591 H 0.59075 0.141 0.0304 0.0
C2592 C 0.58092 0.14271 0.04456 0.0
C2593 C 0.57882 0.13913 0.05511 0.0
C2594 C 0.61075 0.116 0.04119 0.0
C2595 C 0.59574 0.12983 0.04303 0.0
C2596 C 0.61868 0.11087 0.03495 0.0
C2597 C 0.62054 0.11412 0.02425 0.0
C2598 C 0.60455 0.12447 0.03673 0.0
C2599 C 0.61429 0.12275 0.02017 0.0
C2600 C 0.58934 0.13812 0.03852 0.0
C2601 C 0.58551 0.13091 0.05934 0.0
N2602 N 0.60657 0.12757 0.02638 0.0
N2603 N 0.59361 0.12653 0.05329 0.0
H2604 H 0.38992 0.62796 0.4915 0.0
H2605 H 0.45232 0.63358 0.47353 0.0
H2606 H 0.41517 0.60563 0.50106 0.0
H2607 H 0.42745 0.65662 0.46471 0.0
H2608 H 0.43866 0.62291 0.48306 0.0
H2609 H 0.40338 0.63831 0.48127 0.0
C2610 C 0.39828 0.62523 0.49148 0.0
C2611 C 0.40136 0.61586 0.49718 0.0
C2612 C 0.43617 0.63029 0.47903 0.0
C2613 C 0.41685 0.62768 0.48537 0.0
C2614 C 0.44398 0.63637 0.47351 0.0
C2615 C 0.44108 0.64606 0.46828 0.0
C2616 C 0.42533 0.63387 0.47936 0.0
C2617 C 0.43013 0.6493 0.46873 0.0
C2618 C 0.40596 0.63113 0.48559 0.0
C2619 C 0.41233 0.61268 0.49669 0.0
N2620 N 0.42268 0.64324 0.47416 0.0
N2621 N 0.41965 0.61857 0.49093 0.0
H2622 H 0.56892 0.87975 0.48408 0.0
H2623 H 0.62784 0.90768 0.4845 0.0
H2624 H 0.58792 0.88477 0.4553 0.0
H2625 H 0.60756 0.904 0.51259 0.0
H2626 H 0.61409 0.89809 0.47382 0.0
H2627 H 0.58365 0.8875 0.49474 0.0
C2628 C 0.57619 0.88248 0.47998 0.0
C2629 C 0.57709 0.88166 0.46873 0.0
C2630 C 0.61267 0.89936 0.48233 0.0
C2631 C 0.59414 0.89053 0.48098 0.0
C2632 C 0.62055 0.90478 0.48845 0.0
C2633 C 0.61883 0.90677 0.49946 0.0
C2634 C 0.60301 0.89583 0.48726 0.0
C2635 C 0.60918 0.90287 0.5041 0.0
C2636 C 0.58464 0.88687 0.4861 0.0
C2637 C 0.58685 0.88515 0.46394 0.0
N2638 N 0.60166 0.89764 0.49799 0.0
N2639 N 0.59495 0.88948 0.47007 0.0
H2640 H 0.04743 0.45188 0.3876 0.0
H2641 H 0.02836 0.38983 0.39169 0.0
H2642 H 0.0549 0.42784 0.36353 0.0
H2643 H 0.02037 0.4142 0.41527 0.0
H2644 H 0.03845 0.40347 0.38146 0.0
H2645 H 0.03805 0.43801 0.39813 0.0
C2646 C 0.04718 0.44368 0.38455 0.0
C2647 C 0.05198 0.44108 0.37462 0.0
C2648 C 0.03452 0.40583 0.38889 0.0
C2649 C 0.04108 0.4251 0.38664 0.0
C2650 C 0.02869 0.39804 0.39472 0.0
C2651 C 0.02348 0.40082 0.4044 0.0
C2652 C 0.03514 0.41652 0.39272 0.0
C2653 C 0.02437 0.41159 0.40797 0.0
C2654 C 0.04175 0.43576 0.39055 0.0
C2655 C 0.05121 0.43029 0.37105 0.0
N2656 N 0.03005 0.41902 0.40213 0.0
N2657 N 0.04587 0.42273 0.37703 0.0
H2658 H 0.96006 0.07648 0.3989 0.0
H2659 H 0.99657 0.12851 0.38529 0.0
H2660 H 0.96951 0.08517 0.36656 0.0
H2661 H 0.9885 0.11832 0.41757 0.0
H2662 H 0.98676 0.1128 0.37821 0.0
H2663 H 0.97045 0.09181 0.40577 0.0
C2664 C 0.96427 0.08164 0.39322 0.0
C2665 C 0.96381 0.07954 0.3821 0.0
C2666 C 0.98717 0.11398 0.38684 0.0
C2667 C 0.9759 0.09716 0.38999 0.0
C2668 C 0.99272 0.123 0.3909 0.0
C2669 C 0.99338 0.12479 0.40206 0.0
C2670 C 0.98215 0.1067 0.39398 0.0
C2671 C 0.98835 0.11723 0.40892 0.0
C2672 C 0.97028 0.09038 0.39717 0.0
C2673 C 0.96967 0.08642 0.37519 0.0
N2674 N 0.98293 0.10858 0.40477 0.0
N2675 N 0.97542 0.09493 0.37923 0.0
H2676 H 0.0112 0.60549 0.11264 0.0
H2677 H 0.06099 0.59398 0.15281 0.0
H2678 H 0.03216 0.63072 0.12472 0.0
H2679 H 0.04128 0.56893 0.13852 0.0
H2680 H 0.05059 0.60759 0.14276 0.0
H2681 H 0.02214 0.59209 0.12221 0.0
C2682 C 0.01808 0.60824 0.11736 0.0
C2683 C 0.02068 0.6193 0.11792 0.0
C2684 C 0.04857 0.59911 0.1418 0.0
C2685 C 0.03339 0.60387 0.12888 0.0
C2686 C 0.05447 0.59133 0.14758 0.0
C2687 C 0.05202 0.58025 0.14655 0.0
C2688 C 0.04009 0.59584 0.13495 0.0
C2689 C 0.04357 0.57733 0.13951 0.0
C2690 C 0.02438 0.60054 0.12277 0.0
C2691 C 0.02986 0.6223 0.12399 0.0
N2692 N 0.0379 0.58505 0.13404 0.0
N2693 N 0.03584 0.61464 0.12927 0.0
H2694 H 0.9771 0.88614 0.1226 0.0
H2695 H 0.97905 0.94953 0.13651 0.0
H2696 H 1.00507 0.90627 0.11638 0.0
H2697 H 0.9518 0.92877 0.14373 0.0
H2698 H 0.98888 0.93384 0.12945 0.0
H2699 H 0.96789 0.90167 0.13056 0.0
C2700 C 0.98136 0.8938 0.12297 0.0
C2701 C 0.99194 0.89482 0.11882 0.0
C2702 C 0.98076 0.93271 0.13261 0.0
C2703 C 0.98128 0.91281 0.12785 0.0
C2704 C 0.97516 0.94167 0.13672 0.0
C2705 C 0.96453 0.94053 0.14072 0.0
C2706 C 0.97573 0.92249 0.13247 0.0
C2707 C 0.95989 0.93012 0.1406 0.0
C2708 C 0.97605 0.9027 0.12748 0.0
C2709 C 0.99689 0.90508 0.11935 0.0
N2710 N 0.96549 0.92156 0.13653 0.0
N2711 N 0.99154 0.91364 0.12378 0.0
H2712 H 0.41252 0.02434 0.40516 0.0
H2713 H 0.36166 0.06 0.42461 0.0
H2714 H 0.38733 0.03609 0.38392 0.0
H2715 H 0.38638 0.04814 0.44632 0.0
H2716 H 0.37114 0.05139 0.40965 0.0
H2717 H 0.40323 0.03297 0.42032 0.0
C2718 C 0.40502 0.02868 0.40367 0.0
C2719 C 0.40075 0.02948 0.39318 0.0
C2720 C 0.37451 0.05066 0.41767 0.0
C2721 C 0.3901 0.0395 0.41056 0.0
C2722 C 0.36906 0.05554 0.42626 0.0
C2723 C 0.37317 0.05477 0.4368 0.0
C2724 C 0.38419 0.04491 0.41957 0.0
C2725 C 0.38294 0.04904 0.43834 0.0
C2726 C 0.39975 0.03367 0.41234 0.0
C2727 C 0.39106 0.03536 0.39178 0.0
N2728 N 0.38808 0.04432 0.42984 0.0
N2729 N 0.38609 0.04012 0.40034 0.0
H2730 H 0.38205 0.95304 0.08822 0.0
H2731 H 0.3948 1.00792 0.12042 0.0
H2732 H 0.3691 0.98426 0.07923 0.0
H2733 H 0.4068 0.97653 0.13011 0.0
H2734 H 0.38599 0.99952 0.10488 0.0
H2735 H 0.3918 0.9616 0.10312 0.0
C2736 C 0.38132 0.96171 0.08931 0.0
C2737 C 0.37469 0.96791 0.08242 0.0
C2738 C 0.39056 0.99447 0.11039 0.0
C2739 C 0.3858 0.97778 0.09962 0.0
C2740 C 0.39567 0.99928 0.11925 0.0
C2741 C 0.40157 0.99295 0.12665 0.0
C2742 C 0.39135 0.98322 0.10884 0.0
C2743 C 0.40223 0.98174 0.12474 0.0
C2744 C 0.38684 0.96659 0.09788 0.0
C2745 C 0.37396 0.9791 0.08439 0.0
N2746 N 0.3972 0.97725 0.11606 0.0
N2747 N 0.37942 0.98366 0.09278 0.0
H2748 H 0.6135 0.51057 0.10647 0.0
H2749 H 0.65269 0.56116 0.09498 0.0
H2750 H 0.62445 0.53233 0.13138 0.0
H2751 H 0.63957 0.54058 0.07011 0.0
H2752 H 0.6426 0.55074 0.10845 0.0
H2753 H 0.62316 0.52144 0.09314 0.0
C2754 C 0.61799 0.51761 0.10917 0.0
C2755 C 0.61821 0.52046 0.12012 0.0
C2756 C 0.6419 0.54852 0.10005 0.0
C2757 C 0.62926 0.53309 0.10478 0.0
C2758 C 0.64771 0.55444 0.09234 0.0
C2759 C 0.64702 0.55176 0.08135 0.0
C2760 C 0.63537 0.53979 0.0968 0.0
C2761 C 0.64028 0.54304 0.07844 0.0
C2762 C 0.62346 0.52387 0.10152 0.0
C2763 C 0.62399 0.52983 0.12304 0.0
N2764 N 0.63478 0.53737 0.0861 0.0
N2765 N 0.62932 0.53577 0.11544 0.0
H2766 H 0.13323 0.95806 0.94007 0.0
H2767 H 0.1313 1.00726 0.89774 0.0
H2768 H 0.15922 0.98115 0.93587 0.0
H2769 H 0.10442 0.98549 0.90314 0.0
H2770 H 0.14196 0.99718 0.911 0.0
H2771 H 0.12278 0.96756 0.92618 0.0
C2772 C 0.13674 0.96515 0.93628 0.0
C2773 C 0.14717 0.96877 0.9392 0.0
C2774 C 0.13374 0.99458 0.90928 0.0
C2775 C 0.13524 0.97965 0.92313 0.0
C2776 C 0.12766 1.00029 0.90162 0.0
C2777 C 0.11691 0.99725 0.89928 0.0
C2778 C 0.12908 0.98571 0.91468 0.0
C2779 C 0.11261 0.98824 0.90475 0.0
C2780 C 0.13078 0.97054 0.92829 0.0
C2781 C 0.15131 0.97792 0.93382 0.0
N2782 N 0.11869 0.98281 0.91218 0.0
N2783 N 0.14535 0.98303 0.92609 0.0
H2784 H 0.9946 0.28403 0.422 0.0
H2785 H 0.03539 0.23828 0.44397 0.0
H2786 H 0.02213 0.29054 0.44255 0.0
H2787 H 1.0072 0.23105 0.42456 0.0
H2788 H 0.0306 0.25744 0.44339 0.0
H2789 H 0.99898 0.26468 0.42273 0.0
C2790 C 1.00157 0.28142 0.42666 0.0
C2791 C 1.00799 0.289 0.43223 0.0
C2792 C 0.02544 0.25168 0.43925 0.0
C2793 C 0.01303 0.26676 0.43313 0.0
C2794 C 0.02822 0.24071 0.43951 0.0
C2795 C 0.02175 0.23297 0.43424 0.0
C2796 C 0.0161 0.25506 0.43366 0.0
C2797 C 0.01241 0.23667 0.42881 0.0
C2798 C 1.00404 0.27034 0.42711 0.0
C2799 C 0.01684 0.28505 0.43824 0.0
N2800 N 1.00989 0.24743 0.42863 0.0
N2801 N 0.01911 0.27426 0.43849 0.0
H2802 H 1.00919 0.78679 0.06995 0.0
H2803 H 0.01512 0.73312 0.10605 0.0
H2804 H 0.02504 0.78604 0.10097 0.0
H2805 H 0.99998 0.73349 0.07467 0.0
H2806 H 0.01815 0.75261 0.10459 0.0
H2807 H 1.00508 0.7675 0.07181 0.0
C2808 C 0.01183 0.78259 0.07716 0.0
C2809 C 0.01753 0.78812 0.08529 0.0
C2810 C 0.01414 0.74844 0.09802 0.0
C2811 C 0.01275 0.76592 0.08751 0.0
C2812 C 0.01246 0.73727 0.09882 0.0
C2813 C 1.00735 0.73155 0.09043 0.0
C2814 C 0.01072 0.75405 0.08877 0.0
C2815 C 1.00388 0.7375 0.08138 0.0
C2816 C 1.00942 0.77156 0.07823 0.0
C2817 C 0.02054 0.78221 0.09453 0.0
N2818 N 1.00566 0.74838 0.08077 0.0
N2819 N 0.01816 0.77147 0.09535 0.0
H2820 H 0.44425 1.0037 0.22993 0.0
H2821 H 0.42549 0.01627 0.29061 0.0
H2822 H 0.42599 0.03212 0.23894 0.0
H2823 H 0.44497 0.98864 0.28165 0.0
H2824 H 0.42523 0.02202 0.27173 0.0
H2825 H 0.44396 0.99773 0.24872 0.0
C2826 C 0.44009 1.00865 0.23582 0.0
C2827 C 0.43515 0.01846 0.23277 0.0
C2828 C 0.42955 0.01469 0.2739 0.0
C2829 C 0.43491 0.01169 0.25445 0.0
C2830 C 0.42976 0.01142 0.28471 0.0
C2831 C 0.43525 1.00192 0.28782 0.0
C2832 C 0.43487 1.00843 0.26605 0.0
C2833 C 0.44048 0.99592 0.2797 0.0
C2834 C 0.44 1.00526 0.24659 0.0
C2835 C 0.43004 0.02458 0.24087 0.0
N2836 N 0.44016 0.99927 0.26924 0.0
N2837 N 0.43006 0.02111 0.2513 0.0
H2838 H 0.59785 0.52346 0.23167 0.0
H2839 H 0.58067 0.49857 0.28893 0.0
H2840 H 0.58306 0.49199 0.23541 0.0
H2841 H 0.59659 0.52948 0.28511 0.0
H2842 H 0.58083 0.4963 0.26937 0.0
H2843 H 0.59684 0.52603 0.25113 0.0
C2844 C 0.59443 0.51705 0.23657 0.0
C2845 C 0.59061 0.50744 0.23181 0.0
C2846 C 0.58426 0.5036 0.2728 0.0
C2847 C 0.5893 0.51044 0.25426 0.0
C2848 C 0.58423 0.50488 0.28401 0.0
C2849 C 0.58867 0.51422 0.28877 0.0
C2850 C 0.58879 0.51169 0.26622 0.0
C2851 C 0.59296 0.52219 0.28187 0.0
C2852 C 0.5938 0.51857 0.24771 0.0
C2853 C 0.58604 0.49956 0.23864 0.0
N2854 N 0.59295 0.52072 0.271 0.0
N2855 N 0.58555 0.50122 0.24948 0.0
H2856 H 0.28656 0.42637 0.99041 0.0
H2857 H 0.23655 0.43932 0.02989 0.0
H2858 H 0.29045 0.44015 0.02211 0.0
H2859 H 0.23285 0.42584 0.99804 0.0
H2860 H 0.25621 0.44021 0.02703 0.0
H2861 H 0.26686 0.42666 0.99288 0.0
C2862 C 0.28329 0.42956 0.99786 0.0
C2863 C 0.29026 0.43322 1.00606 0.0
C2864 C 0.25109 0.43707 0.02066 0.0
C2865 C 0.26757 0.43345 1.00901 0.0
C2866 C 0.23983 0.43661 0.02227 0.0
C2867 C 0.23296 0.43244 0.01422 0.0
C2868 C 0.25558 0.43336 0.01093 0.0
C2869 C 0.23779 0.42894 1.00457 0.0
C2870 C 0.27201 0.42965 0.99929 0.0
C2871 C 0.28546 0.43709 0.01561 0.0
N2872 N 0.24875 0.42946 1.00321 0.0
N2873 N 0.27446 0.43708 0.01681 0.0
H2874 H 0.23532 0.57666 0.49406 0.0
H2875 H 0.28641 0.59753 0.52862 0.0
H2876 H 0.23264 0.59824 0.52125 0.0
H2877 H 0.28943 0.57725 0.5005 0.0
H2878 H 0.26666 0.59729 0.52642 0.0
H2879 H 0.25507 0.57645 0.49646 0.0
C2880 C 0.23886 0.5814 0.50051 0.0
C2881 C 0.23222 0.58746 0.50747 0.0
C2882 C 0.27164 0.59288 0.52073 0.0
C2883 C 0.25493 0.58715 0.51034 0.0
C2884 C 0.28294 0.59294 0.52203 0.0
C2885 C 0.28967 0.58741 0.51474 0.0
C2886 C 0.26694 0.58722 0.51208 0.0
C2887 C 0.28463 0.58176 0.50626 0.0
C2888 C 0.25016 0.58122 0.50191 0.0
C2889 C 0.23734 0.5933 0.51577 0.0
N2890 N 0.27361 0.58181 0.50517 0.0
N2891 N 0.24834 0.593 0.51696 0.0
H2892 H 0.73536 0.93498 0.5301 0.0
H2893 H 0.78547 0.92904 0.48914 0.0
H2894 H 0.73158 0.92943 0.49598 0.0
H2895 H 0.78928 0.93575 0.52304 0.0
H2896 H 0.76574 0.9296 0.49141 0.0
H2897 H 0.75507 0.93571 0.52762 0.0
C2898 C 0.73863 0.93399 0.52207 0.0
C2899 C 0.73171 0.93209 0.51326 0.0
C2900 C 0.77089 0.93098 0.49836 0.0
C2901 C 0.7544 0.93281 0.51037 0.0
C2902 C 0.78219 0.93073 0.49705 0.0
C2903 C 0.78914 0.93231 0.50591 0.0
C2904 C 0.76642 0.93283 0.50861 0.0
C2905 C 0.78432 0.9343 0.51599 0.0
C2906 C 0.74992 0.93435 0.52067 0.0
C2907 C 0.73653 0.93073 0.50307 0.0
N2908 N 0.7733 0.93448 0.51706 0.0
N2909 N 0.74753 0.9311 0.50192 0.0
H2910 H 0.02218 0.79145 0.57697 0.0
H2911 H 1.00589 0.7314 0.59595 0.0
H2912 H 0.99498 0.78486 0.59787 0.0
H2913 H 0.0331 0.73878 0.5753 0.0
H2914 H 1.00124 0.75072 0.5963 0.0
H2915 H 0.02583 0.77207 0.57592 0.0
C2916 C 0.01698 0.78594 0.58137 0.0
C2917 C 1.0083 0.78988 0.58759 0.0
C2918 C 1.00822 0.7481 0.59169 0.0
C2919 C 0.01241 0.76748 0.58634 0.0
C2920 C 0.01086 0.73705 0.59144 0.0
C2921 C 0.01997 0.7334 0.58565 0.0
C2922 C 0.0147 0.7556 0.58608 0.0
C2923 C 0.02613 0.74117 0.58005 0.0
C2924 C 0.01904 0.77483 0.58072 0.0
C2925 C 1.00171 0.78224 0.59291 0.0
N2926 N 0.0234 0.75184 0.58042 0.0
N2927 N 1.00393 0.77144 0.59221 0.0
H2928 H 0.99615 0.23491 0.94326 0.0
H2929 H 0.02957 0.28483 0.91828 0.0
H2930 H 0.01824 0.23214 0.91641 0.0
H2931 H 1.0088 0.28781 0.9461 0.0
H2932 H 0.02494 0.26565 0.91717 0.0
H2933 H 1.0002 0.25431 0.94421 0.0
C2934 C 1.00188 0.23834 0.93758 0.0
C2935 C 1.00683 0.23179 0.92972 0.0
C2936 C 0.02136 0.27048 0.92352 0.0
C2937 C 0.01142 0.25412 0.93071 0.0
C2938 C 0.02405 0.28147 0.92419 0.0
C2939 C 0.01964 0.28801 0.93234 0.0
C2940 C 0.01419 0.2659 0.93105 0.0
C2941 C 0.01234 0.28315 0.93961 0.0
C2942 C 1.00413 0.24945 0.93809 0.0
C2943 C 0.01406 0.23682 0.9225 0.0
N2944 N 1.00989 0.27241 0.93882 0.0
N2945 N 0.01613 0.24762 0.92318 0.0
H2946 H 0.5809 0.99192 0.78503 0.0
H2947 H 0.59935 0.02886 0.73495 0.0
H2948 H 0.60028 0.02088 0.78815 0.0
H2949 H 0.57979 1.00006 0.7316 0.0
H2950 H 0.59925 0.02635 0.75448 0.0
H2951 H 0.57991 0.99502 0.76556 0.0
C2952 C 0.5849 0.99897 0.78166 0.0
C2953 C 0.59073 1.00611 0.78832 0.0
C2954 C 0.59495 0.02059 0.74949 0.0
C2955 C 0.58971 1.00965 0.76591 0.0
C2956 C 0.59494 0.02206 0.7383 0.0
C2957 C 0.58958 0.01466 0.73154 0.0
C2958 C 0.58957 0.01164 0.75403 0.0
C2959 C 0.58417 1.0059 0.73643 0.0
C2960 C 0.58438 1.0007 0.77051 0.0
C2961 C 0.59584 0.01503 0.78339 0.0
N2962 N 0.58432 1.00463 0.74734 0.0
N2963 N 0.59522 0.01652 0.77253 0.0
H2964 H 0.44565 0.53308 0.78107 0.0
H2965 H 0.42549 0.48833 0.73873 0.0
H2966 H 0.42583 0.50564 0.78989 0.0
H2967 H 0.44441 0.5164 0.72993 0.0
H2968 H 0.42547 0.49451 0.75743 0.0
H2969 H 0.44513 0.52714 0.76234 0.0
C2970 C 0.44111 0.52584 0.77909 0.0
C2971 C 0.43573 0.5199 0.78716 0.0
C2972 C 0.42961 0.49934 0.75141 0.0
C2973 C 0.43524 0.51293 0.76557 0.0
C2974 C 0.42967 0.49578 0.74071 0.0
C2975 C 0.435 0.50181 0.73267 0.0
C2976 C 0.43493 0.50901 0.75419 0.0
C2977 C 0.44009 0.51152 0.73577 0.0
C2978 C 0.44088 0.52242 0.76836 0.0
C2979 C 0.4302 0.51045 0.78403 0.0
N2980 N 0.43997 0.51477 0.74625 0.0
N2981 N 0.4301 0.50727 0.77351 0.0
H2982 H 0.73568 0.60679 0.02557 0.0
H2983 H 0.78691 0.57651 0.99917 0.0
H2984 H 0.73286 0.5771 1.0075 0.0
H2985 H 0.78919 0.60586 0.01786 0.0
H2986 H 0.76718 0.57654 1.00192 0.0
H2987 H 0.7553 0.60646 0.02276 0.0
C2988 C 0.73917 0.6002 0.02097 0.0
C2989 C 0.73253 0.59198 0.01674 0.0
C2990 C 0.77201 0.58296 1.00543 0.0
C2991 C 0.75517 0.59152 0.01352 0.0
C2992 C 0.78329 0.58299 1.00381 0.0
C2993 C 0.7898 0.59117 1.00832 0.0
C2994 C 0.76715 0.5912 0.01159 0.0
C2995 C 0.78459 0.59928 0.01436 0.0
C2996 C 0.75041 0.6 0.01941 0.0
C2997 C 0.73762 0.58356 0.01101 0.0
N2998 N 0.77363 0.59908 0.0158 0.0
N2999 N 0.7486 0.58357 1.00955 0.0
H3000 H 0.73507 0.42356 0.49046 0.0
H3001 H 0.78537 0.44005 0.52834 0.0
H3002 H 0.73146 0.44057 0.52059 0.0
H3003 H 0.78883 0.42335 0.49803 0.0
H3004 H 0.7657 0.44079 0.52544 0.0
H3005 H 0.75479 0.4239 0.49287 0.0
C3006 C 0.7384 0.42746 0.49754 0.0
C3007 C 0.73151 0.43203 0.50534 0.0
C3008 C 0.77076 0.43697 0.51942 0.0
C3009 C 0.75421 0.43232 0.50822 0.0
C3010 C 0.78203 0.4366 0.52104 0.0
C3011 C 0.78884 0.43158 0.51345 0.0
C3012 C 0.76621 0.43232 0.51012 0.0
C3013 C 0.78394 0.42713 0.50421 0.0
C3014 C 0.74969 0.42759 0.49895 0.0
C3015 C 0.73638 0.4368 0.51443 0.0
N3016 N 0.77298 0.4276 0.50283 0.0
N3017 N 0.74739 0.43681 0.51562 0.0
H3018 H 0.23739 0.10488 0.52663 0.0
H3019 H 0.28821 0.0765 0.49752 0.0
H3020 H 0.23423 0.07687 0.50612 0.0
H3021 H 0.29082 0.10434 0.51833 0.0
H3022 H 0.26851 0.07641 0.50046 0.0
H3023 H 0.25699 0.10463 0.52369 0.0
C3024 C 0.24079 0.09869 0.52147 0.0
C3025 C 0.23406 0.09092 0.51659 0.0
C3026 C 0.27341 0.08253 0.5044 0.0
C3027 C 0.25669 0.09054 0.51323 0.0
C3028 C 0.28467 0.08262 0.50267 0.0
C3029 C 0.29127 0.09042 0.50771 0.0
C3030 C 0.26865 0.0903 0.51119 0.0
C3031 C 0.28616 0.09806 0.5144 0.0
C3032 C 0.25203 0.09852 0.51984 0.0
C3033 C 0.23905 0.08297 0.51015 0.0
N3034 N 0.27521 0.09781 0.51592 0.0
N3035 N 0.25003 0.08301 0.50863 0.0
H3036 H 0.5304 0.73596 0.91743 0.0
H3037 H 0.49823 0.78571 0.94419 0.0
H3038 H 0.51121 0.73285 0.94633 0.0
H3039 H 0.51824 0.78852 0.91579 0.0
H3040 H 0.5025 0.76635 0.94499 0.0
H3041 H 0.52556 0.75512 0.91651 0.0
C3042 C 0.52519 0.7393 0.92361 0.0
C3043 C 0.52127 0.73272 0.93201 0.0
C3044 C 0.50593 0.7712 0.93856 0.0
C3045 C 0.51559 0.75479 0.93095 0.0
C3046 C 0.50355 0.7823 0.93813 0.0
C3047 C 0.50785 0.78884 0.92989 0.0
C3048 C 0.5127 0.76655 0.93071 0.0
C3049 C 0.51457 0.78384 0.9222 0.0
C3050 C 0.52238 0.75026 0.92305 0.0
C3051 C 0.51436 0.73753 0.93965 0.0
N3052 N 0.51678 0.77306 0.92281 0.0
N3053 N 0.51178 0.74825 0.93897 0.0
H3054 H 0.53617 0.28311 0.57584 0.0
H3055 H 0.49536 0.23683 0.59652 0.0
H3056 H 0.50756 0.29001 0.59469 0.0
H3057 H 0.52443 0.23063 0.57811 0.0
H3058 H 0.49912 0.2563 0.5954 0.0
H3059 H 0.53157 0.26392 0.57626 0.0
C3060 C 0.52894 0.28061 0.58014 0.0
C3061 C 0.52232 0.28827 0.58533 0.0
C3062 C 0.50466 0.25068 0.59159 0.0
C3063 C 0.51688 0.26611 0.58571 0.0
C3064 C 0.50248 0.23954 0.59216 0.0
C3065 C 0.50961 0.232 0.58746 0.0
C3066 C 0.51403 0.25436 0.58624 0.0
C3067 C 0.51878 0.23606 0.58204 0.0
C3068 C 0.52628 0.26961 0.58031 0.0
C3069 C 0.5129 0.28446 0.59052 0.0
N3070 N 0.52071 0.24691 0.5816 0.0
N3071 N 0.51049 0.27367 0.59061 0.0
H3072 H 0.93181 0.52013 0.79121 0.0
H3073 H 0.93577 0.50015 0.72981 0.0
H3074 H 0.93709 0.48684 0.78202 0.0
H3075 H 0.9335 0.53378 0.73901 0.0
H3076 H 0.93548 0.49507 0.74885 0.0
H3077 H 0.93165 0.52521 0.77216 0.0
C3078 C 0.93297 0.51387 0.78522 0.0
C3079 C 0.93447 0.50301 0.78833 0.0
C3080 C 0.93503 0.50357 0.7467 0.0
C3081 C 0.93417 0.5088 0.76636 0.0
C3082 C 0.93525 0.50649 0.7358 0.0
C3083 C 0.93468 0.51744 0.7327 0.0
C3084 C 0.93422 0.51162 0.75465 0.0
C3085 C 0.93381 0.52523 0.74093 0.0
C3086 C 0.93282 0.51679 0.77431 0.0
C3087 C 0.93574 0.49528 0.7801 0.0
N3088 N 0.93363 0.52218 0.75148 0.0
N3089 N 0.93558 0.49832 0.76955 0.0
H3090 H 0.09846 0.02865 0.78572 0.0
H3091 H 0.07965 0.99256 0.73525 0.0
H3092 H 0.07809 1.00036 0.78864 0.0
H3093 H 0.09961 0.02115 0.73245 0.0
H3094 H 0.07855 0.99552 0.75471 0.0
H3095 H 0.09851 0.02631 0.76617 0.0
C3096 C 0.0939 0.022 0.78227 0.0
C3097 C 0.08828 0.01468 0.78892 0.0
C3098 C 0.08317 1.00115 0.74984 0.0
C3099 C 0.08842 0.01186 0.76641 0.0
C3100 C 0.08375 0.9995 0.73869 0.0
C3101 C 0.08978 1.00657 0.73212 0.0
C3102 C 0.08863 1.00997 0.75452 0.0
C3103 C 0.09502 0.01535 0.73714 0.0
C3104 C 0.094 0.02062 0.77108 0.0
C3105 C 0.08268 1.00612 0.78391 0.0
N3106 N 0.09434 0.01678 0.74799 0.0
N3107 N 0.08291 1.00495 0.773 0.0
H3108 H 0.73591 0.08232 0.99016 0.0
H3109 H 0.78631 0.09397 0.02966 0.0
H3110 H 0.73252 0.09474 0.02246 0.0
H3111 H 0.78988 0.08111 0.99755 0.0
H3112 H 0.76658 0.09378 0.02733 0.0
H3113 H 0.7556 0.08131 0.99285 0.0
C3114 C 0.73927 0.08477 0.99784 0.0
C3115 C 0.73247 0.08867 1.00607 0.0
C3116 C 0.77167 0.09097 0.02079 0.0
C3117 C 0.75513 0.08763 1.00917 0.0
C3118 C 0.78297 0.091 0.02215 0.0
C3119 C 0.78985 0.08757 0.01379 0.0
C3120 C 0.76713 0.08747 0.011 0.0
C3121 C 0.78496 0.08399 1.00418 0.0
C3122 C 0.75055 0.08425 0.99935 0.0
C3123 C 0.73739 0.09185 0.0158 0.0
N3124 N 0.77395 0.08405 1.00305 0.0
N3125 N 0.74837 0.09128 0.01706 0.0
H3126 H 0.49642 0.28631 0.07722 0.0
H3127 H 0.52944 0.23654 0.10315 0.0
H3128 H 0.51788 0.28921 0.1046 0.0
H3129 H 0.50906 0.23339 0.07501 0.0
H3130 H 0.52472 0.25572 0.1041 0.0
H3131 H 0.50045 0.2669 0.07651 0.0
C3132 C 0.502 0.28291 0.08307 0.0
C3133 C 0.50678 0.2895 0.091 0.0
C3134 C 0.52125 0.25085 0.09772 0.0
C3135 C 0.51137 0.26715 0.09028 0.0
C3136 C 0.52398 0.23987 0.09714 0.0
C3137 C 0.51971 0.23328 0.08895 0.0
C3138 C 0.51416 0.25538 0.09005 0.0
C3139 C 0.5125 0.23809 0.08153 0.0
C3140 C 0.50425 0.27179 0.08269 0.0
C3141 C 0.51383 0.28451 0.09844 0.0
N3142 N 0.51 0.24882 0.08224 0.0
N3143 N 0.51591 0.27369 0.09788 0.0
H3144 H 0.5246 0.78692 0.41866 0.0
H3145 H 0.49995 0.73374 0.44682 0.0
H3146 H 0.50993 0.78697 0.45022 0.0
H3147 H 0.51436 0.73394 0.41515 0.0
H3148 H 0.50279 0.75333 0.44793 0.0
H3149 H 0.52018 0.76771 0.41694 0.0
C3150 C 0.52035 0.78295 0.4252 0.0
C3151 C 0.51768 0.78865 0.43462 0.0
C3152 C 0.50531 0.74909 0.44072 0.0
C3153 C 0.5127 0.76647 0.43275 0.0
C3154 C 0.50362 0.73789 0.44005 0.0
C3155 C 0.50696 0.73209 0.4309 0.0
C3156 C 0.51037 0.75461 0.43217 0.0
C3157 C 0.51181 0.73797 0.42245 0.0
C3158 C 0.51789 0.77192 0.42423 0.0
C3159 C 0.51231 0.78293 0.44287 0.0
N3160 N 0.51338 0.74885 0.42331 0.0
N3161 N 0.51004 0.77219 0.44175 0.0
H3162 H 0.10027 0.49928 0.23197 0.0
H3163 H 0.07826 0.52118 0.28871 0.0
H3164 H 0.07856 0.52657 0.23492 0.0
H3165 H 0.0987 0.49299 0.28535 0.0
H3166 H 0.07833 0.52339 0.26912 0.0
H3167 H 0.09978 0.49694 0.25148 0.0
C3168 C 0.09532 0.50475 0.23669 0.0
C3169 C 0.08939 0.51311 0.23169 0.0
C3170 C 0.08278 0.51671 0.27267 0.0
C3171 C 0.08892 0.51054 0.25423 0.0
C3172 C 0.08279 0.51546 0.28388 0.0
C3173 C 0.0885 0.50688 0.28877 0.0
C3174 C 0.08856 0.50936 0.26621 0.0
C3175 C 0.09407 0.49964 0.282 0.0
C3176 C 0.0951 0.50343 0.24787 0.0
C3177 C 0.08335 0.52008 0.23836 0.0
N3178 N 0.09399 0.50107 0.27111 0.0
N3179 N 0.08326 0.51862 0.24925 0.0
H3180 H 0.9507 0.02945 0.28301 0.0
H3181 H 0.92237 0.99284 0.23758 0.0
H3182 H 0.92419 1.00752 0.28953 0.0
H3183 H 0.94937 0.01426 0.23142 0.0
H3184 H 0.92258 0.99841 0.25648 0.0
H3185 H 0.95005 0.02423 0.26406 0.0
C3186 C 0.94477 0.02348 0.2805 0.0
C3187 C 0.93753 0.01888 0.28799 0.0
C3188 C 0.92845 1.00192 0.25099 0.0
C3189 C 0.93664 0.01296 0.2661 0.0
C3190 C 0.92837 0.9987 0.24018 0.0
C3191 C 0.93589 1.00304 0.23282 0.0
C3192 C 0.93612 1.00954 0.25456 0.0
C3193 C 0.94333 0.01076 0.2367 0.0
C3194 C 0.94436 0.02055 0.26963 0.0
C3195 C 0.92988 0.01137 0.2841 0.0
N3196 N 0.94327 0.01371 0.24727 0.0
N3197 N 0.92966 1.00863 0.27347 0.0
H3198 H 0.28699 0.94034 0.02905 0.0
H3199 H 0.23649 0.92389 0.99144 0.0
H3200 H 0.29023 0.92292 0.99912 0.0
H3201 H 0.23318 0.94207 0.02092 0.0
H3202 H 0.2562 0.9239 0.99389 0.0
H3203 H 0.26737 0.94148 0.02601 0.0
C3204 C 0.28362 0.93682 0.0218 0.0
C3205 C 0.29036 0.93148 0.01437 0.0
C3206 C 0.25117 0.92792 0.99981 0.0
C3207 C 0.26776 0.93266 0.01088 0.0
C3208 C 0.23988 0.92798 0.99838 0.0
C3209 C 0.23307 0.93297 1.00599 0.0
C3210 C 0.25577 0.93288 1.00893 0.0
C3211 C 0.23803 0.93798 0.01491 0.0
C3212 C 0.27238 0.93742 0.0201 0.0
C3213 C 0.28541 0.92695 1.00519 0.0
N3214 N 0.24903 0.93779 0.01613 0.0
N3215 N 0.27446 0.92763 1.00373 0.0
loop_
_geom_bond_atom_site_label_1
_geom_bond_atom_site_label_2
_geom_bond_distance
_geom_bond_site_symmetry_2
_ccdc_geom_bond_type
C0 C1 1.264 . S
C0 C5 1.483 1_455 S
C0 C10 1.465 . S
C1 C0 1.264 . S
C1 C3 1.339 . S
C1 H28 0.931 . S
C2 C3 1.395 1_655 S
C2 C4 1.320 . S
C3 C1 1.339 . S
C3 C2 1.395 1_455 S
C3 H29 0.929 . S
C4 C2 1.320 . S
C4 C5 1.402 . S
C4 H30 0.930 . S
C5 C0 1.483 1_655 S
C5 C4 1.402 . S
C5 H31 0.930 . S
U6 O7 2.454 . S
U6 O8 2.458 . S
U6 C9 2.984 . S
U6 C10 2.847 . S
U6 C23 2.882 . S
U6 O24 2.441 . S
U6 O25 2.420 . S
U6 O26 2.455 . S
U6 O27 2.449 . S
O7 U6 2.454 . S
O7 C9 1.353 . S
O8 U6 2.458 . S
O8 C9 1.286 . S
C9 U6 2.984 . S
C9 O7 1.353 . S
C9 O8 1.286 . S
C9 C11 1.363 . S
C10 C0 1.465 . S
C10 U6 2.847 . S
C10 O24 1.249 . S
C10 O25 1.202 . S
C11 C9 1.363 . S
C11 C13 1.408 . S
C11 C16 1.342 . S
C12 C13 1.310 . S
C12 C15 1.461 . S
C12 H32 0.932 . S
C13 C11 1.408 . S
C13 C12 1.310 . S
C13 H33 0.930 . S
C14 C15 1.474 . S
C14 C16 1.285 . S
C14 H34 0.929 . S
C15 C12 1.461 . S
C15 C14 1.474 . S
C16 C11 1.342 . S
C16 C14 1.285 . S
C16 H35 0.930 . S
C17 C20 1.424 . S
C17 C22 1.245 . S
C17 C23 1.428 . S
C18 C21 1.260 . S
C18 C22 1.477 . S
C18 H36 0.932 . S
C19 C20 1.384 . S
C19 C21 1.479 . S
C19 H37 0.929 . S
C20 C17 1.424 . S
C20 C19 1.384 . S
C20 H38 0.928 . S
C21 C18 1.260 . S
C21 C19 1.479 . S
C22 C17 1.245 . S
C22 C18 1.477 . S
C22 H39 0.932 . S
C23 U6 2.882 . S
C23 C17 1.428 . S
C23 O26 1.301 . S
C23 O27 1.282 . S
O24 U6 2.441 . S
O24 C10 1.249 . S
O25 U6 2.420 . S
O25 C10 1.202 . S
O26 U6 2.455 . S
O26 C23 1.301 . S
O27 U6 2.449 . S
O27 C23 1.282 . S
H28 C1 0.931 . S
H29 C3 0.929 . S
H30 C4 0.930 . S
H31 C5 0.930 . S
H32 C12 0.932 . S
H33 C13 0.930 . S
H34 C14 0.929 . S
H35 C16 0.930 . S
H36 C18 0.932 . S
H37 C19 0.929 . S
H38 C20 0.928 . S
H39 C22 0.932 . S
C40 C41 1.264 . S
C40 C45 1.479 . S
C40 C50 1.465 . S
C41 C40 1.264 . S
C41 C43 1.339 . S
C41 H68 0.931 . S
C42 C43 1.395 . S
C42 C44 1.320 . S
C43 C41 1.339 . S
C43 C42 1.395 . S
C43 H69 0.929 . S
C44 C42 1.320 . S
C44 C45 1.405 . S
C44 H70 0.930 . S
C45 C40 1.479 . S
C45 C44 1.405 . S
C45 H71 0.931 . S
U46 O47 2.454 . S
U46 O48 2.458 . S
U46 C49 2.984 . S
U46 C50 2.847 . S
U46 C63 2.882 . S
U46 O64 2.441 . S
U46 O65 2.420 . S
U46 O66 2.455 . S
U46 O67 2.449 . S
O47 U46 2.454 . S
O47 C49 1.353 . S
O48 U46 2.458 . S
O48 C49 1.286 . S
C49 U46 2.984 . S
C49 O47 1.353 . S
C49 O48 1.286 . S
C49 C51 1.363 . S
C50 C40 1.465 . S
C50 U46 2.847 . S
C50 O64 1.249 . S
C50 O65 1.202 . S
C51 C49 1.363 . S
C51 C53 1.408 . S
C51 C56 1.342 . S
C52 C53 1.310 . S
C52 C55 1.461 . S
C52 H72 0.932 . S
C53 C51 1.408 . S
C53 C52 1.310 . S
C53 H73 0.930 . S
C54 C55 1.474 . S
C54 C56 1.285 . S
C54 H74 0.929 . S
C55 C52 1.461 . S
C55 C54 1.474 . S
C56 C51 1.342 . S
C56 C54 1.285 . S
C56 H75 0.930 . S
C57 C60 1.424 . S
C57 C62 1.245 1_655 S
C57 C63 1.428 . S
C58 C61 1.260 . S
C58 C62 1.477 . S
C58 H76 0.932 . S
C59 C60 1.384 . S
C59 C61 1.479 1_655 S
C59 H77 0.929 . S
C60 C57 1.424 . S
C60 C59 1.384 . S
C60 H78 0.928 . S
C61 C58 1.260 . S
C61 C59 1.479 1_455 S
C62 C57 1.245 1_455 S
C62 C58 1.477 . S
C62 H79 0.932 . S
C63 U46 2.882 . S
C63 C57 1.428 . S
C63 O66 1.301 . S
C63 O67 1.282 . S
O64 U46 2.441 . S
O64 C50 1.249 . S
O65 U46 2.420 . S
O65 C50 1.202 . S
O66 U46 2.455 . S
O66 C63 1.301 . S
O67 U46 2.449 . S
O67 C63 1.282 . S
H68 C41 0.931 . S
H69 C43 0.929 . S
H70 C44 0.930 . S
H71 C45 0.931 . S
H72 C52 0.932 . S
H73 C53 0.930 . S
H74 C54 0.929 . S
H75 C56 0.930 . S
H76 C58 0.932 . S
H77 C59 0.929 . S
H78 C60 0.928 . S
H79 C62 0.932 . S
C80 C81 1.264 . S
C80 C85 1.483 1_455 S
C80 C90 1.465 . S
C81 C80 1.264 . S
C81 C83 1.339 . S
C81 H108 0.931 . S
C82 C83 1.395 1_655 S
C82 C84 1.320 . S
C83 C81 1.339 . S
C83 C82 1.395 1_455 S
C83 H109 0.929 . S
C84 C82 1.320 . S
C84 C85 1.402 . S
C84 H110 0.930 . S
C85 C80 1.483 1_655 S
C85 C84 1.402 . S
C85 H111 0.930 . S
U86 O87 2.454 . S
U86 O88 2.458 . S
U86 C89 2.984 . S
U86 C90 2.847 . S
U86 C103 2.882 . S
U86 O104 2.441 . S
U86 O105 2.420 . S
U86 O106 2.455 . S
U86 O107 2.449 . S
O87 U86 2.454 . S
O87 C89 1.353 . S
O88 U86 2.458 . S
O88 C89 1.286 . S
C89 U86 2.984 . S
C89 O87 1.353 . S
C89 O88 1.286 . S
C89 C91 1.363 . S
C90 C80 1.465 . S
C90 U86 2.847 . S
C90 O104 1.249 . S
C90 O105 1.202 . S
C91 C89 1.363 . S
C91 C93 1.408 . S
C91 C96 1.342 . S
C92 C93 1.310 . S
C92 C95 1.461 . S
C92 H112 0.932 . S
C93 C91 1.408 . S
C93 C92 1.310 . S
C93 H113 0.930 . S
C94 C95 1.474 . S
C94 C96 1.285 . S
C94 H114 0.929 . S
C95 C92 1.461 . S
C95 C94 1.474 . S
C96 C91 1.342 . S
C96 C94 1.285 . S
C96 H115 0.930 . S
C97 C100 1.424 . S
C97 C102 1.245 . S
C97 C103 1.428 . S
C98 C101 1.260 . S
C98 C102 1.477 . S
C98 H116 0.932 . S
C99 C100 1.384 . S
C99 C101 1.479 . S
C99 H117 0.929 . S
C100 C97 1.424 . S
C100 C99 1.384 . S
C100 H118 0.928 . S
C101 C98 1.260 . S
C101 C99 1.479 . S
C102 C97 1.245 . S
C102 C98 1.477 . S
C102 H119 0.932 . S
C103 U86 2.882 . S
C103 C97 1.428 . S
C103 O106 1.301 . S
C103 O107 1.282 . S
O104 U86 2.441 . S
O104 C90 1.249 . S
O105 U86 2.420 . S
O105 C90 1.202 . S
O106 U86 2.455 . S
O106 C103 1.301 . S
O107 U86 2.449 . S
O107 C103 1.282 . S
H108 C81 0.931 . S
H109 C83 0.929 . S
H110 C84 0.930 . S
H111 C85 0.930 . S
H112 C92 0.932 . S
H113 C93 0.930 . S
H114 C94 0.929 . S
H115 C96 0.930 . S
H116 C98 0.932 . S
H117 C99 0.929 . S
H118 C100 0.928 . S
H119 C102 0.932 . S
C120 C121 1.264 . S
C120 C125 1.479 . S
C120 C130 1.465 . S
C121 C120 1.264 . S
C121 C123 1.339 . S
C121 H148 0.931 . S
C122 C123 1.395 . S
C122 C124 1.320 . S
C123 C121 1.339 . S
C123 C122 1.395 . S
C123 H149 0.929 . S
C124 C122 1.320 . S
C124 C125 1.405 . S
C124 H150 0.930 . S
C125 C120 1.479 . S
C125 C124 1.405 . S
C125 H151 0.931 . S
U126 O127 2.454 . S
U126 O128 2.458 . S
U126 C129 2.984 . S
U126 C130 2.847 . S
U126 C143 2.882 . S
U126 O144 2.441 . S
U126 O145 2.420 . S
U126 O146 2.455 . S
U126 O147 2.449 . S
O127 U126 2.454 . S
O127 C129 1.353 . S
O128 U126 2.458 . S
O128 C129 1.286 . S
C129 U126 2.984 . S
C129 O127 1.353 . S
C129 O128 1.286 . S
C129 C131 1.363 . S
C130 C120 1.465 . S
C130 U126 2.847 . S
C130 O144 1.249 . S
C130 O145 1.202 . S
C131 C129 1.363 . S
C131 C133 1.408 . S
C131 C136 1.342 . S
C132 C133 1.310 . S
C132 C135 1.461 . S
C132 H152 0.932 . S
C133 C131 1.408 . S
C133 C132 1.310 . S
C133 H153 0.930 . S
C134 C135 1.474 . S
C134 C136 1.285 . S
C134 H154 0.929 . S
C135 C132 1.461 . S
C135 C134 1.474 . S
C136 C131 1.342 . S
C136 C134 1.285 . S
C136 H155 0.930 . S
C137 C140 1.424 . S
C137 C142 1.245 1_655 S
C137 C143 1.428 . S
C138 C141 1.260 . S
C138 C142 1.477 . S
C138 H156 0.932 . S
C139 C140 1.384 . S
C139 C141 1.479 1_655 S
C139 H157 0.929 . S
C140 C137 1.424 . S
C140 C139 1.384 . S
C140 H158 0.928 . S
C141 C138 1.260 . S
C141 C139 1.479 1_455 S
C142 C137 1.245 1_455 S
C142 C138 1.477 . S
C142 H159 0.932 . S
C143 U126 2.882 . S
C143 C137 1.428 . S
C143 O146 1.301 . S
C143 O147 1.282 . S
O144 U126 2.441 . S
O144 C130 1.249 . S
O145 U126 2.420 . S
O145 C130 1.202 . S
O146 U126 2.455 . S
O146 C143 1.301 . S
O147 U126 2.449 . S
O147 C143 1.282 . S
H148 C121 0.931 . S
H149 C123 0.929 . S
H150 C124 0.930 . S
H151 C125 0.931 . S
H152 C132 0.932 . S
H153 C133 0.930 . S
H154 C134 0.929 . S
H155 C136 0.930 . S
H156 C138 0.932 . S
H157 C139 0.929 . S
H158 C140 0.928 . S
H159 C142 0.932 . S
C160 C161 1.264 . S
C160 C165 1.479 1_545 S
C160 C170 1.465 . S
C161 C160 1.264 . S
C161 C163 1.339 . S
C161 H188 0.931 . S
C162 C163 1.395 1_565 S
C162 C164 1.320 . S
C163 C161 1.339 . S
C163 C162 1.395 1_545 S
C163 H189 0.929 . S
C164 C162 1.320 . S
C164 C165 1.405 . S
C164 H190 0.930 . S
C165 C160 1.479 1_565 S
C165 C164 1.405 . S
C165 H191 0.931 . S
U166 O167 2.454 . S
U166 O168 2.458 . S
U166 C169 2.984 . S
U166 C170 2.847 . S
U166 C183 2.882 . S
U166 O184 2.441 . S
U166 O185 2.420 . S
U166 O186 2.455 . S
U166 O187 2.449 . S
O167 U166 2.454 . S
O167 C169 1.353 . S
O168 U166 2.458 . S
O168 C169 1.286 . S
C169 U166 2.984 . S
C169 O167 1.353 . S
C169 O168 1.286 . S
C169 C171 1.363 . S
C170 C160 1.465 . S
C170 U166 2.847 . S
C170 O184 1.249 . S
C170 O185 1.202 . S
C171 C169 1.363 . S
C171 C173 1.408 . S
C171 C176 1.342 . S
C172 C173 1.310 . S
C172 C175 1.461 . S
C172 H192 0.932 . S
C173 C171 1.408 . S
C173 C172 1.310 . S
C173 H193 0.930 . S
C174 C175 1.474 . S
C174 C176 1.285 . S
C174 H194 0.929 . S
C175 C172 1.461 . S
C175 C174 1.474 . S
C176 C171 1.342 . S
C176 C174 1.285 . S
C176 H195 0.930 . S
C177 C180 1.424 . S
C177 C182 1.245 . S
C177 C183 1.428 . S
C178 C181 1.260 . S
C178 C182 1.477 . S
C178 H196 0.932 . S
C179 C180 1.384 . S
C179 C181 1.479 . S
C179 H197 0.929 . S
C180 C177 1.424 . S
C180 C179 1.384 . S
C180 H198 0.928 . S
C181 C178 1.260 . S
C181 C179 1.479 . S
C182 C177 1.245 . S
C182 C178 1.477 . S
C182 H199 0.932 . S
C183 U166 2.882 . S
C183 C177 1.428 . S
C183 O186 1.301 . S
C183 O187 1.282 . S
O184 U166 2.441 . S
O184 C170 1.249 . S
O185 U166 2.420 . S
O185 C170 1.202 . S
O186 U166 2.455 . S
O186 C183 1.301 . S
O187 U166 2.449 . S
O187 C183 1.282 . S
H188 C161 0.931 . S
H189 C163 0.929 . S
H190 C164 0.930 . S
H191 C165 0.931 . S
H192 C172 0.932 . S
H193 C173 0.930 . S
H194 C174 0.929 . S
H195 C176 0.930 . S
H196 C178 0.932 . S
H197 C179 0.929 . S
H198 C180 0.928 . S
H199 C182 0.932 . S
C200 C201 1.264 . S
C200 C205 1.479 . S
C200 C210 1.465 . S
C201 C200 1.264 . S
C201 C203 1.339 . S
C201 H228 0.931 . S
C202 C203 1.395 . S
C202 C204 1.320 . S
C203 C201 1.339 . S
C203 C202 1.395 . S
C203 H229 0.929 . S
C204 C202 1.320 . S
C204 C205 1.405 . S
C204 H230 0.930 . S
C205 C200 1.479 . S
C205 C204 1.405 . S
C205 H231 0.931 . S
U206 O207 2.454 . S
U206 O208 2.458 . S
U206 C209 2.984 . S
U206 C210 2.847 . S
U206 C223 2.882 . S
U206 O224 2.441 . S
U206 O225 2.420 . S
U206 O226 2.455 . S
U206 O227 2.449 . S
O207 U206 2.454 . S
O207 C209 1.353 . S
O208 U206 2.458 . S
O208 C209 1.286 . S
C209 U206 2.984 . S
C209 O207 1.353 . S
C209 O208 1.286 . S
C209 C211 1.363 . S
C210 C200 1.465 . S
C210 U206 2.847 . S
C210 O224 1.249 . S
C210 O225 1.202 . S
C211 C209 1.363 . S
C211 C213 1.408 . S
C211 C216 1.342 . S
C212 C213 1.310 . S
C212 C215 1.461 . S
C212 H232 0.932 . S
C213 C211 1.408 . S
C213 C212 1.310 . S
C213 H233 0.930 . S
C214 C215 1.474 . S
C214 C216 1.285 . S
C214 H234 0.929 . S
C215 C212 1.461 . S
C215 C214 1.474 . S
C216 C211 1.342 . S
C216 C214 1.285 . S
C216 H235 0.930 . S
C217 C220 1.424 . S
C217 C222 1.245 . S
C217 C223 1.428 . S
C218 C221 1.260 . S
C218 C222 1.477 . S
C218 H236 0.932 . S
C219 C220 1.384 . S
C219 C221 1.479 . S
C219 H237 0.929 . S
C220 C217 1.424 . S
C220 C219 1.384 . S
C220 H238 0.928 . S
C221 C218 1.260 . S
C221 C219 1.479 . S
C222 C217 1.245 . S
C222 C218 1.477 . S
C222 H239 0.932 . S
C223 U206 2.882 . S
C223 C217 1.428 . S
C223 O226 1.301 . S
C223 O227 1.282 . S
O224 U206 2.441 . S
O224 C210 1.249 . S
O225 U206 2.420 . S
O225 C210 1.202 . S
O226 U206 2.455 . S
O226 C223 1.301 . S
O227 U206 2.449 . S
O227 C223 1.282 . S
H228 C201 0.931 . S
H229 C203 0.929 . S
H230 C204 0.930 . S
H231 C205 0.931 . S
H232 C212 0.932 . S
H233 C213 0.930 . S
H234 C214 0.929 . S
H235 C216 0.930 . S
H236 C218 0.932 . S
H237 C219 0.929 . S
H238 C220 0.928 . S
H239 C222 0.932 . S
C240 C241 1.264 . S
C240 C245 1.479 1_565 S
C240 C250 1.465 . S
C241 C240 1.264 . S
C241 C243 1.339 . S
C241 H268 0.931 . S
C242 C243 1.395 1_545 S
C242 C244 1.320 . S
C243 C241 1.339 . S
C243 C242 1.395 1_565 S
C243 H269 0.929 . S
C244 C242 1.320 . S
C244 C245 1.405 . S
C244 H270 0.930 . S
C245 C240 1.479 1_545 S
C245 C244 1.405 . S
C245 H271 0.931 . S
U246 O247 2.454 . S
U246 O248 2.458 . S
U246 C249 2.984 . S
U246 C250 2.847 . S
U246 C263 2.882 . S
U246 O264 2.441 . S
U246 O265 2.420 . S
U246 O266 2.455 . S
U246 O267 2.449 . S
O247 U246 2.454 . S
O247 C249 1.353 . S
O248 U246 2.458 . S
O248 C249 1.286 . S
C249 U246 2.984 . S
C249 O247 1.353 . S
C249 O248 1.286 . S
C249 C251 1.363 . S
C250 C240 1.465 . S
C250 U246 2.847 . S
C250 O264 1.249 . S
C250 O265 1.202 . S
C251 C249 1.363 . S
C251 C253 1.408 . S
C251 C256 1.342 . S
C252 C253 1.310 . S
C252 C255 1.461 . S
C252 H272 0.932 . S
C253 C251 1.408 . S
C253 C252 1.310 . S
C253 H273 0.930 . S
C254 C255 1.474 . S
C254 C256 1.285 . S
C254 H274 0.929 . S
C255 C252 1.461 . S
C255 C254 1.474 . S
C256 C251 1.342 . S
C256 C254 1.285 . S
C256 H275 0.930 . S
C257 C260 1.424 . S
C257 C262 1.245 . S
C257 C263 1.428 . S
C258 C261 1.260 . S
C258 C262 1.477 . S
C258 H276 0.932 . S
C259 C260 1.384 . S
C259 C261 1.479 . S
C259 H277 0.929 . S
C260 C257 1.424 . S
C260 C259 1.384 . S
C260 H278 0.928 . S
C261 C258 1.260 . S
C261 C259 1.479 . S
C262 C257 1.245 . S
C262 C258 1.477 . S
C262 H279 0.932 . S
C263 U246 2.882 . S
C263 C257 1.428 . S
C263 O266 1.301 . S
C263 O267 1.282 . S
O264 U246 2.441 . S
O264 C250 1.249 . S
O265 U246 2.420 . S
O265 C250 1.202 . S
O266 U246 2.455 . S
O266 C263 1.301 . S
O267 U246 2.449 . S
O267 C263 1.282 . S
H268 C241 0.931 . S
H269 C243 0.929 . S
H270 C244 0.930 . S
H271 C245 0.931 . S
H272 C252 0.932 . S
H273 C253 0.930 . S
H274 C254 0.929 . S
H275 C256 0.930 . S
H276 C258 0.932 . S
H277 C259 0.929 . S
H278 C260 0.928 . S
H279 C262 0.932 . S
C280 C281 1.264 . S
C280 C285 1.479 . S
C280 C290 1.465 . S
C281 C280 1.264 . S
C281 C283 1.339 . S
C281 H308 0.931 . S
C282 C283 1.395 . S
C282 C284 1.320 . S
C283 C281 1.339 . S
C283 C282 1.395 . S
C283 H309 0.929 . S
C284 C282 1.320 . S
C284 C285 1.405 . S
C284 H310 0.930 . S
C285 C280 1.479 . S
C285 C284 1.405 . S
C285 H311 0.931 . S
U286 O287 2.454 . S
U286 O288 2.458 . S
U286 C289 2.984 . S
U286 C290 2.847 . S
U286 C303 2.882 . S
U286 O304 2.441 . S
U286 O305 2.420 . S
U286 O306 2.455 . S
U286 O307 2.449 . S
O287 U286 2.454 . S
O287 C289 1.353 . S
O288 U286 2.458 . S
O288 C289 1.286 . S
C289 U286 2.984 . S
C289 O287 1.353 . S
C289 O288 1.286 . S
C289 C291 1.363 . S
C290 C280 1.465 . S
C290 U286 2.847 . S
C290 O304 1.249 . S
C290 O305 1.202 . S
C291 C289 1.363 . S
C291 C293 1.408 . S
C291 C296 1.342 . S
C292 C293 1.310 . S
C292 C295 1.461 . S
C292 H312 0.932 . S
C293 C291 1.408 . S
C293 C292 1.310 . S
C293 H313 0.930 . S
C294 C295 1.474 . S
C294 C296 1.285 . S
C294 H314 0.929 . S
C295 C292 1.461 . S
C295 C294 1.474 . S
C296 C291 1.342 . S
C296 C294 1.285 . S
C296 H315 0.930 . S
C297 C300 1.424 . S
C297 C302 1.245 . S
C297 C303 1.428 . S
C298 C301 1.260 . S
C298 C302 1.477 . S
C298 H316 0.932 . S
C299 C300 1.384 . S
C299 C301 1.479 . S
C299 H317 0.929 . S
C300 C297 1.424 . S
C300 C299 1.384 . S
C300 H318 0.928 . S
C301 C298 1.260 . S
C301 C299 1.479 . S
C302 C297 1.245 . S
C302 C298 1.477 . S
C302 H319 0.932 . S
C303 U286 2.882 . S
C303 C297 1.428 . S
C303 O306 1.301 . S
C303 O307 1.282 . S
O304 U286 2.441 . S
O304 C290 1.249 . S
O305 U286 2.420 . S
O305 C290 1.202 . S
O306 U286 2.455 . S
O306 C303 1.301 . S
O307 U286 2.449 . S
O307 C303 1.282 . S
H308 C281 0.931 . S
H309 C283 0.929 . S
H310 C284 0.930 . S
H311 C285 0.931 . S
H312 C292 0.932 . S
H313 C293 0.930 . S
H314 C294 0.929 . S
H315 C296 0.930 . S
H316 C298 0.932 . S
H317 C299 0.929 . S
H318 C300 0.928 . S
H319 C302 0.932 . S
C320 C321 1.264 . S
C320 C325 1.479 . S
C320 C330 1.465 . S
C321 C320 1.264 . S
C321 C323 1.339 . S
C321 H348 0.931 . S
C322 C323 1.395 . S
C322 C324 1.320 . S
C323 C321 1.339 . S
C323 C322 1.395 . S
C323 H349 0.929 . S
C324 C322 1.320 . S
C324 C325 1.405 . S
C324 H350 0.930 . S
C325 C320 1.479 . S
C325 C324 1.405 . S
C325 H351 0.931 . S
U326 O327 2.454 . S
U326 O328 2.458 . S
U326 C329 2.984 . S
U326 C330 2.847 . S
U326 C343 2.882 . S
U326 O344 2.441 . S
U326 O345 2.420 . S
U326 O346 2.455 . S
U326 O347 2.449 . S
O327 U326 2.454 . S
O327 C329 1.353 . S
O328 U326 2.458 . S
O328 C329 1.286 . S
C329 U326 2.984 . S
C329 O327 1.353 . S
C329 O328 1.286 . S
C329 C331 1.363 . S
C330 C320 1.465 . S
C330 U326 2.847 . S
C330 O344 1.249 . S
C330 O345 1.202 . S
C331 C329 1.363 . S
C331 C333 1.408 . S
C331 C336 1.342 . S
C332 C333 1.310 . S
C332 C335 1.461 . S
C332 H352 0.932 . S
C333 C331 1.408 . S
C333 C332 1.310 . S
C333 H353 0.930 . S
C334 C335 1.474 . S
C334 C336 1.285 . S
C334 H354 0.929 . S
C335 C332 1.461 . S
C335 C334 1.474 . S
C336 C331 1.342 . S
C336 C334 1.285 . S
C336 H355 0.930 . S
C337 C340 1.424 . S
C337 C342 1.245 1_554 S
C337 C343 1.428 . S
C338 C341 1.260 . S
C338 C342 1.477 . S
C338 H356 0.932 . S
C339 C340 1.384 . S
C339 C341 1.479 1_554 S
C339 H357 0.929 . S
C340 C337 1.424 . S
C340 C339 1.384 . S
C340 H358 0.928 . S
C341 C338 1.260 . S
C341 C339 1.479 1_556 S
C342 C337 1.245 1_556 S
C342 C338 1.477 . S
C342 H359 0.932 . S
C343 U326 2.882 . S
C343 C337 1.428 . S
C343 O346 1.301 . S
C343 O347 1.282 . S
O344 U326 2.441 . S
O344 C330 1.249 . S
O345 U326 2.420 . S
O345 C330 1.202 . S
O346 U326 2.455 . S
O346 C343 1.301 . S
O347 U326 2.449 . S
O347 C343 1.282 . S
H348 C321 0.931 . S
H349 C323 0.929 . S
H350 C324 0.930 . S
H351 C325 0.931 . S
H352 C332 0.932 . S
H353 C333 0.930 . S
H354 C334 0.929 . S
H355 C336 0.930 . S
H356 C338 0.932 . S
H357 C339 0.929 . S
H358 C340 0.928 . S
H359 C342 0.932 . S
C360 C361 1.264 . S
C360 C365 1.479 . S
C360 C370 1.465 . S
C361 C360 1.264 . S
C361 C363 1.339 . S
C361 H388 0.931 . S
C362 C363 1.395 . S
C362 C364 1.320 . S
C363 C361 1.339 . S
C363 C362 1.395 . S
C363 H389 0.929 . S
C364 C362 1.320 . S
C364 C365 1.405 . S
C364 H390 0.930 . S
C365 C360 1.479 . S
C365 C364 1.405 . S
C365 H391 0.931 . S
U366 O367 2.454 . S
U366 O368 2.458 . S
U366 C369 2.984 . S
U366 C370 2.847 . S
U366 C383 2.882 . S
U366 O384 2.441 . S
U366 O385 2.420 . S
U366 O386 2.455 . S
U366 O387 2.449 . S
O367 U366 2.454 . S
O367 C369 1.353 . S
O368 U366 2.458 . S
O368 C369 1.286 . S
C369 U366 2.984 . S
C369 O367 1.353 . S
C369 O368 1.286 . S
C369 C371 1.363 . S
C370 C360 1.465 . S
C370 U366 2.847 . S
C370 O384 1.249 . S
C370 O385 1.202 . S
C371 C369 1.363 . S
C371 C373 1.408 . S
C371 C376 1.342 . S
C372 C373 1.310 . S
C372 C375 1.461 . S
C372 H392 0.932 . S
C373 C371 1.408 . S
C373 C372 1.310 . S
C373 H393 0.930 . S
C374 C375 1.474 . S
C374 C376 1.285 . S
C374 H394 0.929 . S
C375 C372 1.461 . S
C375 C374 1.474 . S
C376 C371 1.342 . S
C376 C374 1.285 . S
C376 H395 0.930 . S
C377 C380 1.424 . S
C377 C382 1.245 . S
C377 C383 1.428 . S
C378 C381 1.260 . S
C378 C382 1.477 . S
C378 H396 0.932 . S
C379 C380 1.384 . S
C379 C381 1.479 . S
C379 H397 0.929 . S
C380 C377 1.424 . S
C380 C379 1.384 . S
C380 H398 0.928 . S
C381 C378 1.260 . S
C381 C379 1.479 . S
C382 C377 1.245 . S
C382 C378 1.477 . S
C382 H399 0.932 . S
C383 U366 2.882 . S
C383 C377 1.428 . S
C383 O386 1.301 . S
C383 O387 1.282 . S
O384 U366 2.441 . S
O384 C370 1.249 . S
O385 U366 2.420 . S
O385 C370 1.202 . S
O386 U366 2.455 . S
O386 C383 1.301 . S
O387 U366 2.449 . S
O387 C383 1.282 . S
H388 C361 0.931 . S
H389 C363 0.929 . S
H390 C364 0.930 . S
H391 C365 0.931 . S
H392 C372 0.932 . S
H393 C373 0.930 . S
H394 C374 0.929 . S
H395 C376 0.930 . S
H396 C378 0.932 . S
H397 C379 0.929 . S
H398 C380 0.928 . S
H399 C382 0.932 . S
C400 C401 1.264 . S
C400 C405 1.479 . S
C400 C410 1.465 . S
C401 C400 1.264 . S
C401 C403 1.339 . S
C401 H428 0.931 . S
C402 C403 1.395 . S
C402 C404 1.320 . S
C403 C401 1.339 . S
C403 C402 1.395 . S
C403 H429 0.929 . S
C404 C402 1.320 . S
C404 C405 1.405 . S
C404 H430 0.930 . S
C405 C400 1.479 . S
C405 C404 1.405 . S
C405 H431 0.931 . S
U406 O407 2.454 . S
U406 O408 2.458 . S
U406 C409 2.984 . S
U406 C410 2.847 . S
U406 C423 2.882 . S
U406 O424 2.441 . S
U406 O425 2.420 . S
U406 O426 2.455 . S
U406 O427 2.449 . S
O407 U406 2.454 . S
O407 C409 1.353 . S
O408 U406 2.458 . S
O408 C409 1.286 . S
C409 U406 2.984 . S
C409 O407 1.353 . S
C409 O408 1.286 . S
C409 C411 1.363 . S
C410 C400 1.465 . S
C410 U406 2.847 . S
C410 O424 1.249 . S
C410 O425 1.202 . S
C411 C409 1.363 . S
C411 C413 1.408 . S
C411 C416 1.342 . S
C412 C413 1.310 . S
C412 C415 1.461 . S
C412 H432 0.932 . S
C413 C411 1.408 . S
C413 C412 1.310 . S
C413 H433 0.930 . S
C414 C415 1.474 . S
C414 C416 1.285 . S
C414 H434 0.929 . S
C415 C412 1.461 . S
C415 C414 1.474 . S
C416 C411 1.342 . S
C416 C414 1.285 . S
C416 H435 0.930 . S
C417 C420 1.424 . S
C417 C422 1.245 . S
C417 C423 1.428 . S
C418 C421 1.260 . S
C418 C422 1.477 . S
C418 H436 0.932 . S
C419 C420 1.384 . S
C419 C421 1.479 . S
C419 H437 0.929 . S
C420 C417 1.424 . S
C420 C419 1.384 . S
C420 H438 0.928 . S
C421 C418 1.260 . S
C421 C419 1.479 . S
C422 C417 1.245 . S
C422 C418 1.477 . S
C422 H439 0.932 . S
C423 U406 2.882 . S
C423 C417 1.428 . S
C423 O426 1.301 . S
C423 O427 1.282 . S
O424 U406 2.441 . S
O424 C410 1.249 . S
O425 U406 2.420 . S
O425 C410 1.202 . S
O426 U406 2.455 . S
O426 C423 1.301 . S
O427 U406 2.449 . S
O427 C423 1.282 . S
H428 C401 0.931 . S
H429 C403 0.929 . S
H430 C404 0.930 . S
H431 C405 0.931 . S
H432 C412 0.932 . S
H433 C413 0.930 . S
H434 C414 0.929 . S
H435 C416 0.930 . S
H436 C418 0.932 . S
H437 C419 0.929 . S
H438 C420 0.928 . S
H439 C422 0.932 . S
C440 C441 1.264 . S
C440 C445 1.479 . S
C440 C450 1.465 . S
C441 C440 1.264 . S
C441 C443 1.339 . S
C441 H468 0.931 . S
C442 C443 1.395 . S
C442 C444 1.320 . S
C443 C441 1.339 . S
C443 C442 1.395 . S
C443 H469 0.929 . S
C444 C442 1.320 . S
C444 C445 1.405 . S
C444 H470 0.930 . S
C445 C440 1.479 . S
C445 C444 1.405 . S
C445 H471 0.931 . S
U446 O447 2.454 . S
U446 O448 2.458 . S
U446 C449 2.984 . S
U446 C450 2.847 . S
U446 C463 2.882 . S
U446 O464 2.441 . S
U446 O465 2.420 . S
U446 O466 2.455 . S
U446 O467 2.449 . S
O447 U446 2.454 . S
O447 C449 1.353 . S
O448 U446 2.458 . S
O448 C449 1.286 . S
C449 U446 2.984 . S
C449 O447 1.353 . S
C449 O448 1.286 . S
C449 C451 1.363 . S
C450 C440 1.465 . S
C450 U446 2.847 . S
C450 O464 1.249 . S
C450 O465 1.202 . S
C451 C449 1.363 . S
C451 C453 1.408 . S
C451 C456 1.342 . S
C452 C453 1.310 . S
C452 C455 1.461 . S
C452 H472 0.932 . S
C453 C451 1.408 . S
C453 C452 1.310 . S
C453 H473 0.930 . S
C454 C455 1.474 . S
C454 C456 1.285 . S
C454 H474 0.929 . S
C455 C452 1.461 . S
C455 C454 1.474 . S
C456 C451 1.342 . S
C456 C454 1.285 . S
C456 H475 0.930 . S
C457 C460 1.424 . S
C457 C462 1.245 . S
C457 C463 1.428 . S
C458 C461 1.260 . S
C458 C462 1.477 . S
C458 H476 0.932 . S
C459 C460 1.384 . S
C459 C461 1.479 . S
C459 H477 0.929 . S
C460 C457 1.424 . S
C460 C459 1.384 . S
C460 H478 0.928 . S
C461 C458 1.260 . S
C461 C459 1.479 . S
C462 C457 1.245 . S
C462 C458 1.477 . S
C462 H479 0.932 . S
C463 U446 2.882 . S
C463 C457 1.428 . S
C463 O466 1.301 . S
C463 O467 1.282 . S
O464 U446 2.441 . S
O464 C450 1.249 . S
O465 U446 2.420 . S
O465 C450 1.202 . S
O466 U446 2.455 . S
O466 C463 1.301 . S
O467 U446 2.449 . S
O467 C463 1.282 . S
H468 C441 0.931 . S
H469 C443 0.929 . S
H470 C444 0.930 . S
H471 C445 0.931 . S
H472 C452 0.932 . S
H473 C453 0.930 . S
H474 C454 0.929 . S
H475 C456 0.930 . S
H476 C458 0.932 . S
H477 C459 0.929 . S
H478 C460 0.928 . S
H479 C462 0.932 . S
C480 C481 1.264 . S
C480 C485 1.479 . S
C480 C490 1.465 . S
C481 C480 1.264 . S
C481 C483 1.339 . S
C481 H508 0.931 . S
C482 C483 1.395 . S
C482 C484 1.320 . S
C483 C481 1.339 . S
C483 C482 1.395 . S
C483 H509 0.929 . S
C484 C482 1.320 . S
C484 C485 1.405 . S
C484 H510 0.930 . S
C485 C480 1.479 . S
C485 C484 1.405 . S
C485 H511 0.931 . S
U486 O487 2.454 . S
U486 O488 2.458 . S
U486 C489 2.984 . S
U486 C490 2.847 . S
U486 C503 2.882 . S
U486 O504 2.441 . S
U486 O505 2.420 . S
U486 O506 2.455 . S
U486 O507 2.449 . S
O487 U486 2.454 . S
O487 C489 1.353 . S
O488 U486 2.458 . S
O488 C489 1.286 . S
C489 U486 2.984 . S
C489 O487 1.353 . S
C489 O488 1.286 . S
C489 C491 1.363 . S
C490 C480 1.465 . S
C490 U486 2.847 . S
C490 O504 1.249 . S
C490 O505 1.202 . S
C491 C489 1.363 . S
C491 C493 1.408 . S
C491 C496 1.342 . S
C492 C493 1.310 . S
C492 C495 1.461 . S
C492 H512 0.932 . S
C493 C491 1.408 . S
C493 C492 1.310 . S
C493 H513 0.930 . S
C494 C495 1.474 . S
C494 C496 1.285 . S
C494 H514 0.929 . S
C495 C492 1.461 . S
C495 C494 1.474 . S
C496 C491 1.342 . S
C496 C494 1.285 . S
C496 H515 0.930 . S
C497 C500 1.424 . S
C497 C502 1.245 . S
C497 C503 1.428 . S
C498 C501 1.260 . S
C498 C502 1.477 1_455 S
C498 H516 0.932 . S
C499 C500 1.384 . S
C499 C501 1.479 1_655 S
C499 H517 0.929 . S
C500 C497 1.424 . S
C500 C499 1.384 . S
C500 H518 0.928 . S
C501 C498 1.260 . S
C501 C499 1.479 1_455 S
C502 C497 1.245 . S
C502 C498 1.477 1_655 S
C502 H519 0.930 1_655 S
C503 U486 2.882 . S
C503 C497 1.428 . S
C503 O506 1.301 . S
C503 O507 1.282 . S
O504 U486 2.441 . S
O504 C490 1.249 . S
O505 U486 2.420 . S
O505 C490 1.202 . S
O506 U486 2.455 . S
O506 C503 1.301 . S
O507 U486 2.449 . S
O507 C503 1.282 . S
H508 C481 0.931 . S
H509 C483 0.929 . S
H510 C484 0.930 . S
H511 C485 0.931 . S
H512 C492 0.932 . S
H513 C493 0.930 . S
H514 C494 0.929 . S
H515 C496 0.930 . S
H516 C498 0.932 . S
H517 C499 0.929 . S
H518 C500 0.928 . S
H519 C502 0.930 1_455 S
C520 C521 1.264 . S
C520 C525 1.479 1_455 S
C520 C530 1.465 . S
C521 C520 1.264 . S
C521 C523 1.339 . S
C521 H548 0.931 . S
C522 C523 1.395 1_655 S
C522 C524 1.320 . S
C523 C521 1.339 . S
C523 C522 1.395 1_455 S
C523 H549 0.929 . S
C524 C522 1.320 . S
C524 C525 1.405 . S
C524 H550 0.930 . S
C525 C520 1.479 1_655 S
C525 C524 1.405 . S
C525 H551 0.931 . S
U526 O527 2.454 . S
U526 O528 2.458 . S
U526 C529 2.984 . S
U526 C530 2.847 . S
U526 C543 2.882 . S
U526 O544 2.441 . S
U526 O545 2.420 . S
U526 O546 2.455 . S
U526 O547 2.449 . S
O527 U526 2.454 . S
O527 C529 1.353 . S
O528 U526 2.458 . S
O528 C529 1.286 . S
C529 U526 2.984 . S
C529 O527 1.353 . S
C529 O528 1.286 . S
C529 C531 1.363 . S
C530 C520 1.465 . S
C530 U526 2.847 . S
C530 O544 1.249 . S
C530 O545 1.202 . S
C531 C529 1.363 . S
C531 C533 1.408 . S
C531 C536 1.342 . S
C532 C533 1.310 . S
C532 C535 1.461 . S
C532 H552 0.932 . S
C533 C531 1.408 . S
C533 C532 1.310 . S
C533 H553 0.930 . S
C534 C535 1.474 . S
C534 C536 1.285 . S
C534 H554 0.929 . S
C535 C532 1.461 . S
C535 C534 1.474 . S
C536 C531 1.342 . S
C536 C534 1.285 . S
C536 H555 0.930 . S
C537 C540 1.424 . S
C537 C542 1.245 . S
C537 C543 1.428 . S
C538 C541 1.260 . S
C538 C542 1.477 . S
C538 H556 0.932 . S
C539 C540 1.384 . S
C539 C541 1.479 . S
C539 H557 0.929 . S
C540 C537 1.424 . S
C540 C539 1.384 . S
C540 H558 0.928 . S
C541 C538 1.260 . S
C541 C539 1.479 . S
C542 C537 1.245 . S
C542 C538 1.477 . S
C542 H559 0.932 . S
C543 U526 2.882 . S
C543 C537 1.428 . S
C543 O546 1.301 . S
C543 O547 1.282 . S
O544 U526 2.441 . S
O544 C530 1.249 . S
O545 U526 2.420 . S
O545 C530 1.202 . S
O546 U526 2.455 . S
O546 C543 1.301 . S
O547 U526 2.449 . S
O547 C543 1.282 . S
H548 C521 0.931 . S
H549 C523 0.929 . S
H550 C524 0.930 . S
H551 C525 0.931 . S
H552 C532 0.932 . S
H553 C533 0.930 . S
H554 C534 0.929 . S
H555 C536 0.930 . S
H556 C538 0.932 . S
H557 C539 0.929 . S
H558 C540 0.928 . S
H559 C542 0.932 . S
C560 C561 1.264 . S
C560 C565 1.479 . S
C560 C570 1.465 . S
C561 C560 1.264 . S
C561 C563 1.339 . S
C561 H588 0.931 . S
C562 C563 1.395 . S
C562 C564 1.320 . S
C563 C561 1.339 . S
C563 C562 1.395 . S
C563 H589 0.929 . S
C564 C562 1.320 . S
C564 C565 1.405 . S
C564 H590 0.930 . S
C565 C560 1.479 . S
C565 C564 1.405 . S
C565 H591 0.931 . S
U566 O567 2.454 . S
U566 O568 2.458 . S
U566 C569 2.984 . S
U566 C570 2.847 . S
U566 C583 2.882 . S
U566 O584 2.441 . S
U566 O585 2.420 . S
U566 O586 2.455 . S
U566 O587 2.449 . S
O567 U566 2.454 . S
O567 C569 1.353 . S
O568 U566 2.458 . S
O568 C569 1.286 . S
C569 U566 2.984 . S
C569 O567 1.353 . S
C569 O568 1.286 . S
C569 C571 1.363 . S
C570 C560 1.465 . S
C570 U566 2.847 . S
C570 O584 1.249 . S
C570 O585 1.202 . S
C571 C569 1.363 . S
C571 C573 1.408 . S
C571 C576 1.342 . S
C572 C573 1.310 . S
C572 C575 1.461 . S
C572 H592 0.932 . S
C573 C571 1.408 . S
C573 C572 1.310 . S
C573 H593 0.930 . S
C574 C575 1.474 . S
C574 C576 1.285 . S
C574 H594 0.929 . S
C575 C572 1.461 . S
C575 C574 1.474 . S
C576 C571 1.342 . S
C576 C574 1.285 . S
C576 H595 0.930 . S
C577 C580 1.424 . S
C577 C582 1.245 . S
C577 C583 1.428 . S
C578 C581 1.260 . S
C578 C582 1.477 1_455 S
C578 H596 0.932 . S
C579 C580 1.384 . S
C579 C581 1.479 1_655 S
C579 H597 0.929 . S
C580 C577 1.424 . S
C580 C579 1.384 . S
C580 H598 0.928 . S
C581 C578 1.260 . S
C581 C579 1.479 1_455 S
C582 C577 1.245 . S
C582 C578 1.477 1_655 S
C582 H599 0.930 1_655 S
C583 U566 2.882 . S
C583 C577 1.428 . S
C583 O586 1.301 . S
C583 O587 1.282 . S
O584 U566 2.441 . S
O584 C570 1.249 . S
O585 U566 2.420 . S
O585 C570 1.202 . S
O586 U566 2.455 . S
O586 C583 1.301 . S
O587 U566 2.449 . S
O587 C583 1.282 . S
H588 C561 0.931 . S
H589 C563 0.929 . S
H590 C564 0.930 . S
H591 C565 0.931 . S
H592 C572 0.932 . S
H593 C573 0.930 . S
H594 C574 0.929 . S
H595 C576 0.930 . S
H596 C578 0.932 . S
H597 C579 0.929 . S
H598 C580 0.928 . S
H599 C582 0.930 1_455 S
C600 C601 1.264 . S
C600 C605 1.479 1_455 S
C600 C610 1.465 . S
C601 C600 1.264 . S
C601 C603 1.339 . S
C601 H628 0.931 . S
C602 C603 1.395 1_655 S
C602 C604 1.320 . S
C603 C601 1.339 . S
C603 C602 1.395 1_455 S
C603 H629 0.929 . S
C604 C602 1.320 . S
C604 C605 1.405 . S
C604 H630 0.930 . S
C605 C600 1.479 1_655 S
C605 C604 1.405 . S
C605 H631 0.931 . S
U606 O607 2.454 . S
U606 O608 2.458 . S
U606 C609 2.984 . S
U606 C610 2.847 . S
U606 C623 2.882 . S
U606 O624 2.441 . S
U606 O625 2.420 . S
U606 O626 2.455 . S
U606 O627 2.449 . S
O607 U606 2.454 . S
O607 C609 1.353 . S
O608 U606 2.458 . S
O608 C609 1.286 . S
C609 U606 2.984 . S
C609 O607 1.353 . S
C609 O608 1.286 . S
C609 C611 1.363 . S
C610 C600 1.465 . S
C610 U606 2.847 . S
C610 O624 1.249 . S
C610 O625 1.202 . S
C611 C609 1.363 . S
C611 C613 1.408 . S
C611 C616 1.342 . S
C612 C613 1.310 . S
C612 C615 1.461 . S
C612 H632 0.932 . S
C613 C611 1.408 . S
C613 C612 1.310 . S
C613 H633 0.930 . S
C614 C615 1.474 . S
C614 C616 1.285 . S
C614 H634 0.929 . S
C615 C612 1.461 . S
C615 C614 1.474 . S
C616 C611 1.342 . S
C616 C614 1.285 . S
C616 H635 0.930 . S
C617 C620 1.424 . S
C617 C622 1.245 . S
C617 C623 1.428 . S
C618 C621 1.260 . S
C618 C622 1.477 . S
C618 H636 0.932 . S
C619 C620 1.384 . S
C619 C621 1.479 . S
C619 H637 0.929 . S
C620 C617 1.424 . S
C620 C619 1.384 . S
C620 H638 0.928 . S
C621 C618 1.260 . S
C621 C619 1.479 . S
C622 C617 1.245 . S
C622 C618 1.477 . S
C622 H639 0.932 . S
C623 U606 2.882 . S
C623 C617 1.428 . S
C623 O626 1.301 . S
C623 O627 1.282 . S
O624 U606 2.441 . S
O624 C610 1.249 . S
O625 U606 2.420 . S
O625 C610 1.202 . S
O626 U606 2.455 . S
O626 C623 1.301 . S
O627 U606 2.449 . S
O627 C623 1.282 . S
H628 C601 0.931 . S
H629 C603 0.929 . S
H630 C604 0.930 . S
H631 C605 0.931 . S
H632 C612 0.932 . S
H633 C613 0.930 . S
H634 C614 0.929 . S
H635 C616 0.930 . S
H636 C618 0.932 . S
H637 C619 0.929 . S
H638 C620 0.928 . S
H639 C622 0.932 . S
C640 C641 1.264 . S
C640 C645 1.479 . S
C640 C650 1.465 . S
C641 C640 1.264 . S
C641 C643 1.339 . S
C641 H668 0.931 . S
C642 C643 1.395 . S
C642 C644 1.320 . S
C643 C641 1.339 . S
C643 C642 1.395 . S
C643 H669 0.929 . S
C644 C642 1.320 . S
C644 C645 1.405 . S
C644 H670 0.930 . S
C645 C640 1.479 . S
C645 C644 1.405 . S
C645 H671 0.931 . S
U646 O647 2.454 . S
U646 O648 2.458 . S
U646 C649 2.984 . S
U646 C650 2.847 . S
U646 C663 2.882 . S
U646 O664 2.441 . S
U646 O665 2.420 . S
U646 O666 2.455 . S
U646 O667 2.449 . S
O647 U646 2.454 . S
O647 C649 1.353 . S
O648 U646 2.458 . S
O648 C649 1.286 . S
C649 U646 2.984 . S
C649 O647 1.353 . S
C649 O648 1.286 . S
C649 C651 1.363 . S
C650 C640 1.465 . S
C650 U646 2.847 . S
C650 O664 1.249 . S
C650 O665 1.202 . S
C651 C649 1.363 . S
C651 C653 1.408 . S
C651 C656 1.342 . S
C652 C653 1.310 . S
C652 C655 1.461 . S
C652 H672 0.932 . S
C653 C651 1.408 . S
C653 C652 1.310 . S
C653 H673 0.930 . S
C654 C655 1.474 . S
C654 C656 1.285 . S
C654 H674 0.929 . S
C655 C652 1.461 . S
C655 C654 1.474 . S
C656 C651 1.342 . S
C656 C654 1.285 . S
C656 H675 0.930 . S
C657 C660 1.424 . S
C657 C662 1.245 . S
C657 C663 1.428 . S
C658 C661 1.260 . S
C658 C662 1.477 1_545 S
C658 H676 0.932 . S
C659 C660 1.384 . S
C659 C661 1.479 1_565 S
C659 H677 0.929 . S
C660 C657 1.424 . S
C660 C659 1.384 . S
C660 H678 0.928 . S
C661 C658 1.260 . S
C661 C659 1.479 1_545 S
C662 C657 1.245 . S
C662 C658 1.477 1_565 S
C662 H679 0.932 1_565 S
C663 U646 2.882 . S
C663 C657 1.428 . S
C663 O666 1.301 . S
C663 O667 1.282 . S
O664 U646 2.441 . S
O664 C650 1.249 . S
O665 U646 2.420 . S
O665 C650 1.202 . S
O666 U646 2.455 . S
O666 C663 1.301 . S
O667 U646 2.449 . S
O667 C663 1.282 . S
H668 C641 0.931 . S
H669 C643 0.929 . S
H670 C644 0.930 . S
H671 C645 0.931 . S
H672 C652 0.932 . S
H673 C653 0.930 . S
H674 C654 0.929 . S
H675 C656 0.930 . S
H676 C658 0.932 . S
H677 C659 0.929 . S
H678 C660 0.928 . S
H679 C662 0.932 1_545 S
C680 C681 1.264 . S
C680 C685 1.479 . S
C680 C690 1.465 . S
C681 C680 1.264 . S
C681 C683 1.339 . S
C681 H708 0.931 . S
C682 C683 1.395 . S
C682 C684 1.320 . S
C683 C681 1.339 . S
C683 C682 1.395 . S
C683 H709 0.929 . S
C684 C682 1.320 . S
C684 C685 1.405 . S
C684 H710 0.930 . S
C685 C680 1.479 . S
C685 C684 1.405 . S
C685 H711 0.931 . S
U686 O687 2.454 . S
U686 O688 2.458 . S
U686 C689 2.984 . S
U686 C690 2.847 . S
U686 C703 2.882 . S
U686 O704 2.441 . S
U686 O705 2.420 . S
U686 O706 2.455 . S
U686 O707 2.449 . S
O687 U686 2.454 . S
O687 C689 1.353 . S
O688 U686 2.458 . S
O688 C689 1.286 . S
C689 U686 2.984 . S
C689 O687 1.353 . S
C689 O688 1.286 . S
C689 C691 1.363 . S
C690 C680 1.465 . S
C690 U686 2.847 . S
C690 O704 1.249 . S
C690 O705 1.202 . S
C691 C689 1.363 . S
C691 C693 1.408 . S
C691 C696 1.342 . S
C692 C693 1.310 . S
C692 C695 1.461 . S
C692 H712 0.932 . S
C693 C691 1.408 . S
C693 C692 1.310 . S
C693 H713 0.930 . S
C694 C695 1.474 . S
C694 C696 1.285 . S
C694 H714 0.929 . S
C695 C692 1.461 . S
C695 C694 1.474 . S
C696 C691 1.342 . S
C696 C694 1.285 . S
C696 H715 0.930 . S
C697 C700 1.424 . S
C697 C702 1.245 . S
C697 C703 1.428 . S
C698 C701 1.260 . S
C698 C702 1.477 . S
C698 H716 0.932 . S
C699 C700 1.384 . S
C699 C701 1.479 . S
C699 H717 0.929 . S
C700 C697 1.424 . S
C700 C699 1.384 . S
C700 H718 0.928 . S
C701 C698 1.260 . S
C701 C699 1.479 . S
C702 C697 1.245 . S
C702 C698 1.477 . S
C702 H719 0.932 . S
C703 U686 2.882 . S
C703 C697 1.428 . S
C703 O706 1.301 . S
C703 O707 1.282 . S
O704 U686 2.441 . S
O704 C690 1.249 . S
O705 U686 2.420 . S
O705 C690 1.202 . S
O706 U686 2.455 . S
O706 C703 1.301 . S
O707 U686 2.449 . S
O707 C703 1.282 . S
H708 C681 0.931 . S
H709 C683 0.929 . S
H710 C684 0.930 . S
H711 C685 0.931 . S
H712 C692 0.932 . S
H713 C693 0.930 . S
H714 C694 0.929 . S
H715 C696 0.930 . S
H716 C698 0.932 . S
H717 C699 0.929 . S
H718 C700 0.928 . S
H719 C702 0.932 . S
C720 C721 1.264 . S
C720 C725 1.479 . S
C720 C730 1.465 . S
C721 C720 1.264 . S
C721 C723 1.339 . S
C721 H748 0.931 . S
C722 C723 1.395 . S
C722 C724 1.320 . S
C723 C721 1.339 . S
C723 C722 1.395 . S
C723 H749 0.929 . S
C724 C722 1.320 . S
C724 C725 1.405 . S
C724 H750 0.930 . S
C725 C720 1.479 . S
C725 C724 1.405 . S
C725 H751 0.931 . S
U726 O727 2.454 . S
U726 O728 2.458 . S
U726 C729 2.984 . S
U726 C730 2.847 . S
U726 C743 2.882 . S
U726 O744 2.441 . S
U726 O745 2.420 . S
U726 O746 2.455 . S
U726 O747 2.449 . S
O727 U726 2.454 . S
O727 C729 1.353 . S
O728 U726 2.458 . S
O728 C729 1.286 . S
C729 U726 2.984 . S
C729 O727 1.353 . S
C729 O728 1.286 . S
C729 C731 1.363 . S
C730 C720 1.465 . S
C730 U726 2.847 . S
C730 O744 1.249 . S
C730 O745 1.202 . S
C731 C729 1.363 . S
C731 C733 1.408 . S
C731 C736 1.342 . S
C732 C733 1.310 . S
C732 C735 1.461 . S
C732 H752 0.932 . S
C733 C731 1.408 . S
C733 C732 1.310 . S
C733 H753 0.930 . S
C734 C735 1.474 . S
C734 C736 1.285 . S
C734 H754 0.929 . S
C735 C732 1.461 . S
C735 C734 1.474 . S
C736 C731 1.342 . S
C736 C734 1.285 . S
C736 H755 0.930 . S
C737 C740 1.424 . S
C737 C742 1.245 . S
C737 C743 1.428 . S
C738 C741 1.260 . S
C738 C742 1.477 1_565 S
C738 H756 0.932 . S
C739 C740 1.384 . S
C739 C741 1.479 1_545 S
C739 H757 0.929 . S
C740 C737 1.424 . S
C740 C739 1.384 . S
C740 H758 0.928 . S
C741 C738 1.260 . S
C741 C739 1.479 1_565 S
C742 C737 1.245 . S
C742 C738 1.477 1_545 S
C742 H759 0.932 1_545 S
C743 U726 2.882 . S
C743 C737 1.428 . S
C743 O746 1.301 . S
C743 O747 1.282 . S
O744 U726 2.441 . S
O744 C730 1.249 . S
O745 U726 2.420 . S
O745 C730 1.202 . S
O746 U726 2.455 . S
O746 C743 1.301 . S
O747 U726 2.449 . S
O747 C743 1.282 . S
H748 C721 0.931 . S
H749 C723 0.929 . S
H750 C724 0.930 . S
H751 C725 0.931 . S
H752 C732 0.932 . S
H753 C733 0.930 . S
H754 C734 0.929 . S
H755 C736 0.930 . S
H756 C738 0.932 . S
H757 C739 0.929 . S
H758 C740 0.928 . S
H759 C742 0.932 1_565 S
C760 C761 1.264 . S
C760 C765 1.479 . S
C760 C770 1.465 . S
C761 C760 1.264 . S
C761 C763 1.339 . S
C761 H788 0.931 . S
C762 C763 1.395 . S
C762 C764 1.320 . S
C763 C761 1.339 . S
C763 C762 1.395 . S
C763 H789 0.929 . S
C764 C762 1.320 . S
C764 C765 1.405 . S
C764 H790 0.930 . S
C765 C760 1.479 . S
C765 C764 1.405 . S
C765 H791 0.931 . S
U766 O767 2.454 . S
U766 O768 2.458 . S
U766 C769 2.984 . S
U766 C770 2.847 . S
U766 C783 2.882 . S
U766 O784 2.441 . S
U766 O785 2.420 . S
U766 O786 2.455 . S
U766 O787 2.449 . S
O767 U766 2.454 . S
O767 C769 1.353 . S
O768 U766 2.458 . S
O768 C769 1.286 . S
C769 U766 2.984 . S
C769 O767 1.353 . S
C769 O768 1.286 . S
C769 C771 1.363 . S
C770 C760 1.465 . S
C770 U766 2.847 . S
C770 O784 1.249 . S
C770 O785 1.202 . S
C771 C769 1.363 . S
C771 C773 1.408 . S
C771 C776 1.342 . S
C772 C773 1.310 . S
C772 C775 1.461 . S
C772 H792 0.932 . S
C773 C771 1.408 . S
C773 C772 1.310 . S
C773 H793 0.930 . S
C774 C775 1.474 . S
C774 C776 1.285 . S
C774 H794 0.929 . S
C775 C772 1.461 . S
C775 C774 1.474 . S
C776 C771 1.342 . S
C776 C774 1.285 . S
C776 H795 0.930 . S
C777 C780 1.424 . S
C777 C782 1.245 . S
C777 C783 1.428 . S
C778 C781 1.260 . S
C778 C782 1.477 . S
C778 H796 0.932 . S
C779 C780 1.384 . S
C779 C781 1.479 . S
C779 H797 0.929 . S
C780 C777 1.424 . S
C780 C779 1.384 . S
C780 H798 0.928 . S
C781 C778 1.260 . S
C781 C779 1.479 . S
C782 C777 1.245 . S
C782 C778 1.477 . S
C782 H799 0.932 . S
C783 U766 2.882 . S
C783 C777 1.428 . S
C783 O786 1.301 . S
C783 O787 1.282 . S
O784 U766 2.441 . S
O784 C770 1.249 . S
O785 U766 2.420 . S
O785 C770 1.202 . S
O786 U766 2.455 . S
O786 C783 1.301 . S
O787 U766 2.449 . S
O787 C783 1.282 . S
H788 C761 0.931 . S
H789 C763 0.929 . S
H790 C764 0.930 . S
H791 C765 0.931 . S
H792 C772 0.932 . S
H793 C773 0.930 . S
H794 C774 0.929 . S
H795 C776 0.930 . S
H796 C778 0.932 . S
H797 C779 0.929 . S
H798 C780 0.928 . S
H799 C782 0.932 . S
C800 C801 1.264 . S
C800 C805 1.479 . S
C800 C810 1.465 . S
C801 C800 1.264 . S
C801 C803 1.339 . S
C801 H828 0.931 . S
C802 C803 1.395 . S
C802 C804 1.320 . S
C803 C801 1.339 . S
C803 C802 1.395 . S
C803 H829 0.929 . S
C804 C802 1.320 . S
C804 C805 1.405 . S
C804 H830 0.930 . S
C805 C800 1.479 . S
C805 C804 1.405 . S
C805 H831 0.931 . S
U806 O807 2.454 . S
U806 O808 2.458 . S
U806 C809 2.984 . S
U806 C810 2.847 . S
U806 C823 2.882 . S
U806 O824 2.441 . S
U806 O825 2.420 . S
U806 O826 2.455 . S
U806 O827 2.449 . S
O807 U806 2.454 . S
O807 C809 1.353 . S
O808 U806 2.458 . S
O808 C809 1.286 . S
C809 U806 2.984 . S
C809 O807 1.353 . S
C809 O808 1.286 . S
C809 C811 1.363 . S
C810 C800 1.465 . S
C810 U806 2.847 . S
C810 O824 1.249 . S
C810 O825 1.202 . S
C811 C809 1.363 . S
C811 C813 1.408 . S
C811 C816 1.342 . S
C812 C813 1.310 . S
C812 C815 1.461 . S
C812 H832 0.932 . S
C813 C811 1.408 . S
C813 C812 1.310 . S
C813 H833 0.930 . S
C814 C815 1.474 . S
C814 C816 1.285 . S
C814 H834 0.929 . S
C815 C812 1.461 . S
C815 C814 1.474 . S
C816 C811 1.342 . S
C816 C814 1.285 . S
C816 H835 0.930 . S
C817 C820 1.424 . S
C817 C822 1.245 . S
C817 C823 1.428 . S
C818 C821 1.260 . S
C818 C822 1.477 1_554 S
C818 H836 0.932 . S
C819 C820 1.384 . S
C819 C821 1.479 1_556 S
C819 H837 0.929 . S
C820 C817 1.424 . S
C820 C819 1.384 . S
C820 H838 0.928 . S
C821 C818 1.260 . S
C821 C819 1.479 1_554 S
C822 C817 1.245 . S
C822 C818 1.477 1_556 S
C822 H839 0.919 1_556 S
C823 U806 2.882 . S
C823 C817 1.428 . S
C823 O826 1.301 . S
C823 O827 1.282 . S
O824 U806 2.441 . S
O824 C810 1.249 . S
O825 U806 2.420 . S
O825 C810 1.202 . S
O826 U806 2.455 . S
O826 C823 1.301 . S
O827 U806 2.449 . S
O827 C823 1.282 . S
H828 C801 0.931 . S
H829 C803 0.929 . S
H830 C804 0.930 . S
H831 C805 0.931 . S
H832 C812 0.932 . S
H833 C813 0.930 . S
H834 C814 0.929 . S
H835 C816 0.930 . S
H836 C818 0.932 . S
H837 C819 0.929 . S
H838 C820 0.928 . S
H839 C822 0.919 1_554 S
C840 C841 1.264 . S
C840 C845 1.479 . S
C840 C850 1.465 . S
C841 C840 1.264 . S
C841 C843 1.339 . S
C841 H868 0.931 . S
C842 C843 1.395 . S
C842 C844 1.320 . S
C843 C841 1.339 . S
C843 C842 1.395 . S
C843 H869 0.929 . S
C844 C842 1.320 . S
C844 C845 1.405 . S
C844 H870 0.930 . S
C845 C840 1.479 . S
C845 C844 1.405 . S
C845 H871 0.931 . S
U846 O847 2.454 . S
U846 O848 2.458 . S
U846 C849 2.984 . S
U846 C850 2.847 . S
U846 C863 2.882 . S
U846 O864 2.441 . S
U846 O865 2.420 . S
U846 O866 2.455 . S
U846 O867 2.449 . S
O847 U846 2.454 . S
O847 C849 1.353 . S
O848 U846 2.458 . S
O848 C849 1.286 . S
C849 U846 2.984 . S
C849 O847 1.353 . S
C849 O848 1.286 . S
C849 C851 1.363 . S
C850 C840 1.465 . S
C850 U846 2.847 . S
C850 O864 1.249 . S
C850 O865 1.202 . S
C851 C849 1.363 . S
C851 C853 1.408 . S
C851 C856 1.342 . S
C852 C853 1.310 . S
C852 C855 1.461 . S
C852 H872 0.932 . S
C853 C851 1.408 . S
C853 C852 1.310 . S
C853 H873 0.930 . S
C854 C855 1.474 . S
C854 C856 1.285 . S
C854 H874 0.929 . S
C855 C852 1.461 . S
C855 C854 1.474 . S
C856 C851 1.342 . S
C856 C854 1.285 . S
C856 H875 0.930 . S
C857 C860 1.424 . S
C857 C862 1.245 . S
C857 C863 1.428 . S
C858 C861 1.260 . S
C858 C862 1.477 . S
C858 H876 0.932 . S
C859 C860 1.384 . S
C859 C861 1.479 . S
C859 H877 0.929 . S
C860 C857 1.424 . S
C860 C859 1.384 . S
C860 H878 0.928 . S
C861 C858 1.260 . S
C861 C859 1.479 . S
C862 C857 1.245 . S
C862 C858 1.477 . S
C862 H879 0.932 . S
C863 U846 2.882 . S
C863 C857 1.428 . S
C863 O866 1.301 . S
C863 O867 1.282 . S
O864 U846 2.441 . S
O864 C850 1.249 . S
O865 U846 2.420 . S
O865 C850 1.202 . S
O866 U846 2.455 . S
O866 C863 1.301 . S
O867 U846 2.449 . S
O867 C863 1.282 . S
H868 C841 0.931 . S
H869 C843 0.929 . S
H870 C844 0.930 . S
H871 C845 0.931 . S
H872 C852 0.932 . S
H873 C853 0.930 . S
H874 C854 0.929 . S
H875 C856 0.930 . S
H876 C858 0.932 . S
H877 C859 0.929 . S
H878 C860 0.928 . S
H879 C862 0.932 . S
C880 C881 1.264 . S
C880 C885 1.479 . S
C880 C890 1.465 . S
C881 C880 1.264 . S
C881 C883 1.339 . S
C881 H908 0.931 . S
C882 C883 1.395 . S
C882 C884 1.320 . S
C883 C881 1.339 . S
C883 C882 1.395 . S
C883 H909 0.929 . S
C884 C882 1.320 . S
C884 C885 1.405 . S
C884 H910 0.930 . S
C885 C880 1.479 . S
C885 C884 1.405 . S
C885 H911 0.931 . S
U886 O887 2.454 . S
U886 O888 2.458 . S
U886 C889 2.984 . S
U886 C890 2.847 . S
U886 C903 2.882 . S
U886 O904 2.441 . S
U886 O905 2.420 . S
U886 O906 2.455 . S
U886 O907 2.449 . S
O887 U886 2.454 . S
O887 C889 1.353 . S
O888 U886 2.458 . S
O888 C889 1.286 . S
C889 U886 2.984 . S
C889 O887 1.353 . S
C889 O888 1.286 . S
C889 C891 1.363 . S
C890 C880 1.465 . S
C890 U886 2.847 . S
C890 O904 1.249 . S
C890 O905 1.202 . S
C891 C889 1.363 . S
C891 C893 1.408 . S
C891 C896 1.342 . S
C892 C893 1.310 . S
C892 C895 1.461 . S
C892 H912 0.932 . S
C893 C891 1.408 . S
C893 C892 1.310 . S
C893 H913 0.930 . S
C894 C895 1.474 . S
C894 C896 1.285 . S
C894 H914 0.929 . S
C895 C892 1.461 . S
C895 C894 1.474 . S
C896 C891 1.342 . S
C896 C894 1.285 . S
C896 H915 0.930 . S
C897 C900 1.424 . S
C897 C902 1.245 . S
C897 C903 1.428 . S
C898 C901 1.260 . S
C898 C902 1.477 . S
C898 H916 0.932 . S
C899 C900 1.384 . S
C899 C901 1.479 . S
C899 H917 0.929 . S
C900 C897 1.424 . S
C900 C899 1.384 . S
C900 H918 0.928 . S
C901 C898 1.260 . S
C901 C899 1.479 . S
C902 C897 1.245 . S
C902 C898 1.477 . S
C902 H919 0.932 . S
C903 U886 2.882 . S
C903 C897 1.428 . S
C903 O906 1.301 . S
C903 O907 1.282 . S
O904 U886 2.441 . S
O904 C890 1.249 . S
O905 U886 2.420 . S
O905 C890 1.202 . S
O906 U886 2.455 . S
O906 C903 1.301 . S
O907 U886 2.449 . S
O907 C903 1.282 . S
H908 C881 0.931 . S
H909 C883 0.929 . S
H910 C884 0.930 . S
H911 C885 0.931 . S
H912 C892 0.932 . S
H913 C893 0.930 . S
H914 C894 0.929 . S
H915 C896 0.930 . S
H916 C898 0.932 . S
H917 C899 0.929 . S
H918 C900 0.928 . S
H919 C902 0.932 . S
C920 C921 1.264 . S
C920 C925 1.479 . S
C920 C930 1.465 . S
C921 C920 1.264 . S
C921 C923 1.339 . S
C921 H948 0.931 . S
C922 C923 1.395 . S
C922 C924 1.320 . S
C923 C921 1.339 . S
C923 C922 1.395 . S
C923 H949 0.929 . S
C924 C922 1.320 . S
C924 C925 1.405 . S
C924 H950 0.930 . S
C925 C920 1.479 . S
C925 C924 1.405 . S
C925 H951 0.931 . S
U926 O927 2.454 . S
U926 O928 2.458 . S
U926 C929 2.984 . S
U926 C930 2.847 . S
U926 C943 2.882 . S
U926 O944 2.441 . S
U926 O945 2.420 . S
U926 O946 2.455 . S
U926 O947 2.449 . S
O927 U926 2.454 . S
O927 C929 1.353 . S
O928 U926 2.458 . S
O928 C929 1.286 . S
C929 U926 2.984 . S
C929 O927 1.353 . S
C929 O928 1.286 . S
C929 C931 1.363 . S
C930 C920 1.465 . S
C930 U926 2.847 . S
C930 O944 1.249 . S
C930 O945 1.202 . S
C931 C929 1.363 . S
C931 C933 1.408 . S
C931 C936 1.342 . S
C932 C933 1.310 . S
C932 C935 1.461 . S
C932 H952 0.932 . S
C933 C931 1.408 . S
C933 C932 1.310 . S
C933 H953 0.930 . S
C934 C935 1.474 . S
C934 C936 1.285 . S
C934 H954 0.929 . S
C935 C932 1.461 . S
C935 C934 1.474 . S
C936 C931 1.342 . S
C936 C934 1.285 . S
C936 H955 0.930 . S
C937 C940 1.424 . S
C937 C942 1.245 . S
C937 C943 1.428 . S
C938 C941 1.260 . S
C938 C942 1.477 . S
C938 H956 0.932 . S
C939 C940 1.384 . S
C939 C941 1.479 . S
C939 H957 0.929 . S
C940 C937 1.424 . S
C940 C939 1.384 . S
C940 H958 0.928 . S
C941 C938 1.260 . S
C941 C939 1.479 . S
C942 C937 1.245 . S
C942 C938 1.477 . S
C942 H959 0.932 . S
C943 U926 2.882 . S
C943 C937 1.428 . S
C943 O946 1.301 . S
C943 O947 1.282 . S
O944 U926 2.441 . S
O944 C930 1.249 . S
O945 U926 2.420 . S
O945 C930 1.202 . S
O946 U926 2.455 . S
O946 C943 1.301 . S
O947 U926 2.449 . S
O947 C943 1.282 . S
H948 C921 0.931 . S
H949 C923 0.929 . S
H950 C924 0.930 . S
H951 C925 0.931 . S
H952 C932 0.932 . S
H953 C933 0.930 . S
H954 C934 0.929 . S
H955 C936 0.930 . S
H956 C938 0.932 . S
H957 C939 0.929 . S
H958 C940 0.928 . S
H959 C942 0.932 . S
C960 C961 1.264 . S
C960 C965 1.479 . S
C960 C970 1.465 . S
C961 C960 1.264 . S
C961 C963 1.339 . S
C961 H988 0.931 . S
C962 C963 1.395 . S
C962 C964 1.320 . S
C963 C961 1.339 . S
C963 C962 1.395 . S
C963 H989 0.929 . S
C964 C962 1.320 . S
C964 C965 1.405 . S
C964 H990 0.930 . S
C965 C960 1.479 . S
C965 C964 1.405 . S
C965 H991 0.931 . S
U966 O967 2.454 . S
U966 O968 2.458 . S
U966 C969 2.984 . S
U966 C970 2.847 . S
U966 C983 2.882 . S
U966 O984 2.441 . S
U966 O985 2.420 . S
U966 O986 2.455 . S
U966 O987 2.449 . S
O967 U966 2.454 . S
O967 C969 1.353 . S
O968 U966 2.458 . S
O968 C969 1.286 . S
C969 U966 2.984 . S
C969 O967 1.353 . S
C969 O968 1.286 . S
C969 C971 1.363 . S
C970 C960 1.465 . S
C970 U966 2.847 . S
C970 O984 1.249 . S
C970 O985 1.202 . S
C971 C969 1.363 . S
C971 C973 1.408 . S
C971 C976 1.342 . S
C972 C973 1.310 . S
C972 C975 1.461 . S
C972 H992 0.932 . S
C973 C971 1.408 . S
C973 C972 1.310 . S
C973 H993 0.930 . S
C974 C975 1.474 . S
C974 C976 1.285 . S
C974 H994 0.929 . S
C975 C972 1.461 . S
C975 C974 1.474 . S
C976 C971 1.342 . S
C976 C974 1.285 . S
C976 H995 0.930 . S
C977 C980 1.424 . S
C977 C982 1.245 . S
C977 C983 1.428 . S
C978 C981 1.260 . S
C978 C982 1.477 . S
C978 H996 0.932 . S
C979 C980 1.384 . S
C979 C981 1.479 . S
C979 H997 0.929 . S
C980 C977 1.424 . S
C980 C979 1.384 . S
C980 H998 0.928 . S
C981 C978 1.260 . S
C981 C979 1.479 . S
C982 C977 1.245 . S
C982 C978 1.477 . S
C982 H999 0.932 . S
C983 U966 2.882 . S
C983 C977 1.428 . S
C983 O986 1.301 . S
C983 O987 1.282 . S
O984 U966 2.441 . S
O984 C970 1.249 . S
O985 U966 2.420 . S
O985 C970 1.202 . S
O986 U966 2.455 . S
O986 C983 1.301 . S
O987 U966 2.449 . S
O987 C983 1.282 . S
H988 C961 0.931 . S
H989 C963 0.929 . S
H990 C964 0.930 . S
H991 C965 0.931 . S
H992 C972 0.932 . S
H993 C973 0.930 . S
H994 C974 0.929 . S
H995 C976 0.930 . S
H996 C978 0.932 . S
H997 C979 0.929 . S
H998 C980 0.928 . S
H999 C982 0.932 . S
C1000 C1001 1.264 . S
C1000 C1005 1.479 . S
C1000 C1010 1.465 . S
C1001 C1000 1.264 . S
C1001 C1003 1.339 . S
C1001 H1028 0.931 . S
C1002 C1003 1.395 . S
C1002 C1004 1.320 . S
C1003 C1001 1.339 . S
C1003 C1002 1.395 . S
C1003 H1029 0.929 . S
C1004 C1002 1.320 . S
C1004 C1005 1.405 . S
C1004 H1030 0.930 . S
C1005 C1000 1.479 . S
C1005 C1004 1.405 . S
C1005 H1031 0.931 . S
U1006 O1007 2.454 . S
U1006 O1008 2.458 . S
U1006 C1009 2.984 . S
U1006 C1010 2.847 . S
U1006 C1023 2.882 . S
U1006 O1024 2.441 . S
U1006 O1025 2.420 . S
U1006 O1026 2.455 . S
U1006 O1027 2.449 . S
O1007 U1006 2.454 . S
O1007 C1009 1.353 . S
O1008 U1006 2.458 . S
O1008 C1009 1.286 . S
C1009 U1006 2.984 . S
C1009 O1007 1.353 . S
C1009 O1008 1.286 . S
C1009 C1011 1.363 . S
C1010 C1000 1.465 . S
C1010 U1006 2.847 . S
C1010 O1024 1.249 . S
C1010 O1025 1.202 . S
C1011 C1009 1.363 . S
C1011 C1013 1.408 . S
C1011 C1016 1.342 . S
C1012 C1013 1.310 . S
C1012 C1015 1.461 . S
C1012 H1032 0.932 . S
C1013 C1011 1.408 . S
C1013 C1012 1.310 . S
C1013 H1033 0.930 . S
C1014 C1015 1.474 . S
C1014 C1016 1.285 . S
C1014 H1034 0.929 . S
C1015 C1012 1.461 . S
C1015 C1014 1.474 . S
C1016 C1011 1.342 . S
C1016 C1014 1.285 . S
C1016 H1035 0.930 . S
C1017 C1020 1.424 . S
C1017 C1022 1.245 . S
C1017 C1023 1.428 . S
C1018 C1021 1.260 . S
C1018 C1022 1.477 . S
C1018 H1036 0.932 . S
C1019 C1020 1.384 . S
C1019 C1021 1.479 . S
C1019 H1037 0.929 . S
C1020 C1017 1.424 . S
C1020 C1019 1.384 . S
C1020 H1038 0.928 . S
C1021 C1018 1.260 . S
C1021 C1019 1.479 . S
C1022 C1017 1.245 . S
C1022 C1018 1.477 . S
C1022 H1039 0.932 . S
C1023 U1006 2.882 . S
C1023 C1017 1.428 . S
C1023 O1026 1.301 . S
C1023 O1027 1.282 . S
O1024 U1006 2.441 . S
O1024 C1010 1.249 . S
O1025 U1006 2.420 . S
O1025 C1010 1.202 . S
O1026 U1006 2.455 . S
O1026 C1023 1.301 . S
O1027 U1006 2.449 . S
O1027 C1023 1.282 . S
H1028 C1001 0.931 . S
H1029 C1003 0.929 . S
H1030 C1004 0.930 . S
H1031 C1005 0.931 . S
H1032 C1012 0.932 . S
H1033 C1013 0.930 . S
H1034 C1014 0.929 . S
H1035 C1016 0.930 . S
H1036 C1018 0.932 . S
H1037 C1019 0.929 . S
H1038 C1020 0.928 . S
H1039 C1022 0.932 . S
C1040 C1041 1.264 . S
C1040 C1045 1.479 . S
C1040 C1050 1.465 . S
C1041 C1040 1.264 . S
C1041 C1043 1.339 . S
C1041 H1068 0.931 . S
C1042 C1043 1.395 . S
C1042 C1044 1.320 . S
C1043 C1041 1.339 . S
C1043 C1042 1.395 . S
C1043 H1069 0.929 . S
C1044 C1042 1.320 . S
C1044 C1045 1.405 . S
C1044 H1070 0.930 . S
C1045 C1040 1.479 . S
C1045 C1044 1.405 . S
C1045 H1071 0.931 . S
U1046 O1047 2.454 . S
U1046 O1048 2.458 . S
U1046 C1049 2.984 . S
U1046 C1050 2.847 . S
U1046 C1063 2.882 . S
U1046 O1064 2.441 . S
U1046 O1065 2.420 . S
U1046 O1066 2.455 . S
U1046 O1067 2.449 . S
O1047 U1046 2.454 . S
O1047 C1049 1.353 . S
O1048 U1046 2.458 . S
O1048 C1049 1.286 . S
C1049 U1046 2.984 . S
C1049 O1047 1.353 . S
C1049 O1048 1.286 . S
C1049 C1051 1.363 . S
C1050 C1040 1.465 . S
C1050 U1046 2.847 . S
C1050 O1064 1.249 . S
C1050 O1065 1.202 . S
C1051 C1049 1.363 . S
C1051 C1053 1.408 . S
C1051 C1056 1.342 . S
C1052 C1053 1.310 . S
C1052 C1055 1.461 . S
C1052 H1072 0.932 . S
C1053 C1051 1.408 . S
C1053 C1052 1.310 . S
C1053 H1073 0.930 . S
C1054 C1055 1.474 . S
C1054 C1056 1.285 . S
C1054 H1074 0.929 . S
C1055 C1052 1.461 . S
C1055 C1054 1.474 . S
C1056 C1051 1.342 . S
C1056 C1054 1.285 . S
C1056 H1075 0.930 . S
C1057 C1060 1.424 . S
C1057 C1062 1.245 . S
C1057 C1063 1.428 . S
C1058 C1061 1.260 . S
C1058 C1062 1.477 . S
C1058 H1076 0.932 . S
C1059 C1060 1.384 . S
C1059 C1061 1.479 . S
C1059 H1077 0.929 . S
C1060 C1057 1.424 . S
C1060 C1059 1.384 . S
C1060 H1078 0.928 . S
C1061 C1058 1.260 . S
C1061 C1059 1.479 . S
C1062 C1057 1.245 . S
C1062 C1058 1.477 . S
C1062 H1079 0.932 . S
C1063 U1046 2.882 . S
C1063 C1057 1.428 . S
C1063 O1066 1.301 . S
C1063 O1067 1.282 . S
O1064 U1046 2.441 . S
O1064 C1050 1.249 . S
O1065 U1046 2.420 . S
O1065 C1050 1.202 . S
O1066 U1046 2.455 . S
O1066 C1063 1.301 . S
O1067 U1046 2.449 . S
O1067 C1063 1.282 . S
H1068 C1041 0.931 . S
H1069 C1043 0.929 . S
H1070 C1044 0.930 . S
H1071 C1045 0.931 . S
H1072 C1052 0.932 . S
H1073 C1053 0.930 . S
H1074 C1054 0.929 . S
H1075 C1056 0.930 . S
H1076 C1058 0.932 . S
H1077 C1059 0.929 . S
H1078 C1060 0.928 . S
H1079 C1062 0.932 . S
C1080 C1081 1.264 . S
C1080 C1085 1.479 . S
C1080 C1090 1.465 . S
C1081 C1080 1.264 . S
C1081 C1083 1.339 . S
C1081 H1108 0.931 . S
C1082 C1083 1.395 . S
C1082 C1084 1.320 . S
C1083 C1081 1.339 . S
C1083 C1082 1.395 . S
C1083 H1109 0.929 . S
C1084 C1082 1.320 . S
C1084 C1085 1.405 . S
C1084 H1110 0.930 . S
C1085 C1080 1.479 . S
C1085 C1084 1.405 . S
C1085 H1111 0.931 . S
U1086 O1087 2.454 . S
U1086 O1088 2.458 . S
U1086 C1089 2.984 . S
U1086 C1090 2.847 . S
U1086 C1103 2.882 . S
U1086 O1104 2.441 . S
U1086 O1105 2.420 . S
U1086 O1106 2.455 . S
U1086 O1107 2.449 . S
O1087 U1086 2.454 . S
O1087 C1089 1.353 . S
O1088 U1086 2.458 . S
O1088 C1089 1.286 . S
C1089 U1086 2.984 . S
C1089 O1087 1.353 . S
C1089 O1088 1.286 . S
C1089 C1091 1.363 . S
C1090 C1080 1.465 . S
C1090 U1086 2.847 . S
C1090 O1104 1.249 . S
C1090 O1105 1.202 . S
C1091 C1089 1.363 . S
C1091 C1093 1.408 . S
C1091 C1096 1.342 . S
C1092 C1093 1.310 . S
C1092 C1095 1.461 . S
C1092 H1112 0.932 . S
C1093 C1091 1.408 . S
C1093 C1092 1.310 . S
C1093 H1113 0.930 . S
C1094 C1095 1.474 . S
C1094 C1096 1.285 . S
C1094 H1114 0.929 . S
C1095 C1092 1.461 . S
C1095 C1094 1.474 . S
C1096 C1091 1.342 . S
C1096 C1094 1.285 . S
C1096 H1115 0.930 . S
C1097 C1100 1.424 . S
C1097 C1102 1.245 . S
C1097 C1103 1.428 . S
C1098 C1101 1.260 . S
C1098 C1102 1.477 . S
C1098 H1116 0.932 . S
C1099 C1100 1.384 . S
C1099 C1101 1.479 . S
C1099 H1117 0.929 . S
C1100 C1097 1.424 . S
C1100 C1099 1.384 . S
C1100 H1118 0.928 . S
C1101 C1098 1.260 . S
C1101 C1099 1.479 . S
C1102 C1097 1.245 . S
C1102 C1098 1.477 . S
C1102 H1119 0.932 . S
C1103 U1086 2.882 . S
C1103 C1097 1.428 . S
C1103 O1106 1.301 . S
C1103 O1107 1.282 . S
O1104 U1086 2.441 . S
O1104 C1090 1.249 . S
O1105 U1086 2.420 . S
O1105 C1090 1.202 . S
O1106 U1086 2.455 . S
O1106 C1103 1.301 . S
O1107 U1086 2.449 . S
O1107 C1103 1.282 . S
H1108 C1081 0.931 . S
H1109 C1083 0.929 . S
H1110 C1084 0.930 . S
H1111 C1085 0.931 . S
H1112 C1092 0.932 . S
H1113 C1093 0.930 . S
H1114 C1094 0.929 . S
H1115 C1096 0.930 . S
H1116 C1098 0.932 . S
H1117 C1099 0.929 . S
H1118 C1100 0.928 . S
H1119 C1102 0.932 . S
C1120 C1121 1.264 . S
C1120 C1125 1.479 . S
C1120 C1130 1.465 . S
C1121 C1120 1.264 . S
C1121 C1123 1.339 . S
C1121 H1148 0.931 . S
C1122 C1123 1.395 . S
C1122 C1124 1.320 . S
C1123 C1121 1.339 . S
C1123 C1122 1.395 . S
C1123 H1149 0.929 . S
C1124 C1122 1.320 . S
C1124 C1125 1.405 . S
C1124 H1150 0.930 . S
C1125 C1120 1.479 . S
C1125 C1124 1.405 . S
C1125 H1151 0.931 . S
U1126 O1127 2.454 . S
U1126 O1128 2.458 . S
U1126 C1129 2.984 . S
U1126 C1130 2.847 . S
U1126 C1143 2.882 . S
U1126 O1144 2.441 . S
U1126 O1145 2.420 . S
U1126 O1146 2.455 . S
U1126 O1147 2.449 . S
O1127 U1126 2.454 . S
O1127 C1129 1.353 . S
O1128 U1126 2.458 . S
O1128 C1129 1.286 . S
C1129 U1126 2.984 . S
C1129 O1127 1.353 . S
C1129 O1128 1.286 . S
C1129 C1131 1.363 . S
C1130 C1120 1.465 . S
C1130 U1126 2.847 . S
C1130 O1144 1.249 . S
C1130 O1145 1.202 . S
C1131 C1129 1.363 . S
C1131 C1133 1.408 . S
C1131 C1136 1.342 . S
C1132 C1133 1.310 . S
C1132 C1135 1.461 . S
C1132 H1152 0.932 . S
C1133 C1131 1.408 . S
C1133 C1132 1.310 . S
C1133 H1153 0.930 . S
C1134 C1135 1.474 . S
C1134 C1136 1.285 . S
C1134 H1154 0.929 . S
C1135 C1132 1.461 . S
C1135 C1134 1.474 . S
C1136 C1131 1.342 . S
C1136 C1134 1.285 . S
C1136 H1155 0.930 . S
C1137 C1140 1.424 . S
C1137 C1142 1.245 . S
C1137 C1143 1.428 . S
C1138 C1141 1.260 . S
C1138 C1142 1.477 . S
C1138 H1156 0.932 . S
C1139 C1140 1.384 . S
C1139 C1141 1.479 . S
C1139 H1157 0.929 . S
C1140 C1137 1.424 . S
C1140 C1139 1.384 . S
C1140 H1158 0.928 . S
C1141 C1138 1.260 . S
C1141 C1139 1.479 . S
C1142 C1137 1.245 . S
C1142 C1138 1.477 . S
C1142 H1159 0.932 . S
C1143 U1126 2.882 . S
C1143 C1137 1.428 . S
C1143 O1146 1.301 . S
C1143 O1147 1.282 . S
O1144 U1126 2.441 . S
O1144 C1130 1.249 . S
O1145 U1126 2.420 . S
O1145 C1130 1.202 . S
O1146 U1126 2.455 . S
O1146 C1143 1.301 . S
O1147 U1126 2.449 . S
O1147 C1143 1.282 . S
H1148 C1121 0.931 . S
H1149 C1123 0.929 . S
H1150 C1124 0.930 . S
H1151 C1125 0.931 . S
H1152 C1132 0.932 . S
H1153 C1133 0.930 . S
H1154 C1134 0.929 . S
H1155 C1136 0.930 . S
H1156 C1138 0.932 . S
H1157 C1139 0.929 . S
H1158 C1140 0.928 . S
H1159 C1142 0.932 . S
C1160 C1161 1.264 . S
C1160 C1165 1.479 . S
C1160 C1170 1.465 . S
C1161 C1160 1.264 . S
C1161 C1163 1.339 . S
C1161 H1188 0.931 . S
C1162 C1163 1.395 . S
C1162 C1164 1.320 . S
C1163 C1161 1.339 . S
C1163 C1162 1.395 . S
C1163 H1189 0.929 . S
C1164 C1162 1.320 . S
C1164 C1165 1.405 . S
C1164 H1190 0.930 . S
C1165 C1160 1.479 . S
C1165 C1164 1.405 . S
C1165 H1191 0.931 . S
U1166 O1167 2.454 . S
U1166 O1168 2.458 . S
U1166 C1169 2.984 . S
U1166 C1170 2.847 . S
U1166 C1183 2.882 . S
U1166 O1184 2.441 . S
U1166 O1185 2.420 . S
U1166 O1186 2.455 . S
U1166 O1187 2.449 . S
O1167 U1166 2.454 . S
O1167 C1169 1.353 . S
O1168 U1166 2.458 . S
O1168 C1169 1.286 . S
C1169 U1166 2.984 . S
C1169 O1167 1.353 . S
C1169 O1168 1.286 . S
C1169 C1171 1.363 . S
C1170 C1160 1.465 . S
C1170 U1166 2.847 . S
C1170 O1184 1.249 . S
C1170 O1185 1.202 . S
C1171 C1169 1.363 . S
C1171 C1173 1.408 . S
C1171 C1176 1.342 . S
C1172 C1173 1.310 . S
C1172 C1175 1.461 . S
C1172 H1192 0.932 . S
C1173 C1171 1.408 . S
C1173 C1172 1.310 . S
C1173 H1193 0.930 . S
C1174 C1175 1.474 . S
C1174 C1176 1.285 . S
C1174 H1194 0.929 . S
C1175 C1172 1.461 . S
C1175 C1174 1.474 . S
C1176 C1171 1.342 . S
C1176 C1174 1.285 . S
C1176 H1195 0.930 . S
C1177 C1180 1.424 . S
C1177 C1182 1.245 1_565 S
C1177 C1183 1.428 . S
C1178 C1181 1.260 . S
C1178 C1182 1.477 . S
C1178 H1196 0.932 . S
C1179 C1180 1.384 . S
C1179 C1181 1.479 1_565 S
C1179 H1197 0.929 . S
C1180 C1177 1.424 . S
C1180 C1179 1.384 . S
C1180 H1198 0.928 . S
C1181 C1178 1.260 . S
C1181 C1179 1.479 1_545 S
C1182 C1177 1.245 1_545 S
C1182 C1178 1.477 . S
C1182 H1199 0.932 . S
C1183 U1166 2.882 . S
C1183 C1177 1.428 . S
C1183 O1186 1.301 . S
C1183 O1187 1.282 . S
O1184 U1166 2.441 . S
O1184 C1170 1.249 . S
O1185 U1166 2.420 . S
O1185 C1170 1.202 . S
O1186 U1166 2.455 . S
O1186 C1183 1.301 . S
O1187 U1166 2.449 . S
O1187 C1183 1.282 . S
H1188 C1161 0.931 . S
H1189 C1163 0.929 . S
H1190 C1164 0.930 . S
H1191 C1165 0.931 . S
H1192 C1172 0.932 . S
H1193 C1173 0.930 . S
H1194 C1174 0.929 . S
H1195 C1176 0.930 . S
H1196 C1178 0.932 . S
H1197 C1179 0.929 . S
H1198 C1180 0.928 . S
H1199 C1182 0.932 . S
C1200 C1201 1.264 . S
C1200 C1205 1.479 . S
C1200 C1210 1.465 . S
C1201 C1200 1.264 . S
C1201 C1203 1.339 . S
C1201 H1228 0.931 . S
C1202 C1203 1.395 . S
C1202 C1204 1.320 . S
C1203 C1201 1.339 . S
C1203 C1202 1.395 . S
C1203 H1229 0.929 . S
C1204 C1202 1.320 . S
C1204 C1205 1.405 . S
C1204 H1230 0.930 . S
C1205 C1200 1.479 . S
C1205 C1204 1.405 . S
C1205 H1231 0.931 . S
U1206 O1207 2.454 . S
U1206 O1208 2.458 . S
U1206 C1209 2.984 . S
U1206 C1210 2.847 . S
U1206 C1223 2.882 . S
U1206 O1224 2.441 . S
U1206 O1225 2.420 . S
U1206 O1226 2.455 . S
U1206 O1227 2.449 . S
O1207 U1206 2.454 . S
O1207 C1209 1.353 . S
O1208 U1206 2.458 . S
O1208 C1209 1.286 . S
C1209 U1206 2.984 . S
C1209 O1207 1.353 . S
C1209 O1208 1.286 . S
C1209 C1211 1.363 . S
C1210 C1200 1.465 . S
C1210 U1206 2.847 . S
C1210 O1224 1.249 . S
C1210 O1225 1.202 . S
C1211 C1209 1.363 . S
C1211 C1213 1.408 . S
C1211 C1216 1.342 . S
C1212 C1213 1.310 . S
C1212 C1215 1.461 . S
C1212 H1232 0.932 . S
C1213 C1211 1.408 . S
C1213 C1212 1.310 . S
C1213 H1233 0.930 . S
C1214 C1215 1.474 . S
C1214 C1216 1.285 . S
C1214 H1234 0.929 . S
C1215 C1212 1.461 . S
C1215 C1214 1.474 . S
C1216 C1211 1.342 . S
C1216 C1214 1.285 . S
C1216 H1235 0.930 . S
C1217 C1220 1.424 . S
C1217 C1222 1.245 . S
C1217 C1223 1.428 . S
C1218 C1221 1.260 . S
C1218 C1222 1.477 . S
C1218 H1236 0.932 . S
C1219 C1220 1.384 . S
C1219 C1221 1.479 . S
C1219 H1237 0.929 . S
C1220 C1217 1.424 . S
C1220 C1219 1.384 . S
C1220 H1238 0.928 . S
C1221 C1218 1.260 . S
C1221 C1219 1.479 . S
C1222 C1217 1.245 . S
C1222 C1218 1.477 . S
C1222 H1239 0.932 . S
C1223 U1206 2.882 . S
C1223 C1217 1.428 . S
C1223 O1226 1.301 . S
C1223 O1227 1.282 . S
O1224 U1206 2.441 . S
O1224 C1210 1.249 . S
O1225 U1206 2.420 . S
O1225 C1210 1.202 . S
O1226 U1206 2.455 . S
O1226 C1223 1.301 . S
O1227 U1206 2.449 . S
O1227 C1223 1.282 . S
H1228 C1201 0.931 . S
H1229 C1203 0.929 . S
H1230 C1204 0.930 . S
H1231 C1205 0.931 . S
H1232 C1212 0.932 . S
H1233 C1213 0.930 . S
H1234 C1214 0.929 . S
H1235 C1216 0.930 . S
H1236 C1218 0.932 . S
H1237 C1219 0.929 . S
H1238 C1220 0.928 . S
H1239 C1222 0.932 . S
C1240 C1241 1.264 . S
C1240 C1245 1.479 . S
C1240 C1250 1.465 . S
C1241 C1240 1.264 . S
C1241 C1243 1.339 . S
C1241 H1268 0.931 . S
C1242 C1243 1.395 . S
C1242 C1244 1.320 . S
C1243 C1241 1.339 . S
C1243 C1242 1.395 . S
C1243 H1269 0.929 . S
C1244 C1242 1.320 . S
C1244 C1245 1.405 . S
C1244 H1270 0.930 . S
C1245 C1240 1.479 . S
C1245 C1244 1.405 . S
C1245 H1271 0.931 . S
U1246 O1247 2.454 . S
U1246 O1248 2.458 . S
U1246 C1249 2.984 . S
U1246 C1250 2.847 . S
U1246 C1263 2.882 . S
U1246 O1264 2.441 . S
U1246 O1265 2.420 . S
U1246 O1266 2.455 . S
U1246 O1267 2.449 . S
O1247 U1246 2.454 . S
O1247 C1249 1.353 . S
O1248 U1246 2.458 . S
O1248 C1249 1.286 . S
C1249 U1246 2.984 . S
C1249 O1247 1.353 . S
C1249 O1248 1.286 . S
C1249 C1251 1.363 . S
C1250 C1240 1.465 . S
C1250 U1246 2.847 . S
C1250 O1264 1.249 . S
C1250 O1265 1.202 . S
C1251 C1249 1.363 . S
C1251 C1253 1.408 . S
C1251 C1256 1.342 . S
C1252 C1253 1.310 . S
C1252 C1255 1.461 . S
C1252 H1272 0.932 . S
C1253 C1251 1.408 . S
C1253 C1252 1.310 . S
C1253 H1273 0.930 . S
C1254 C1255 1.474 . S
C1254 C1256 1.285 . S
C1254 H1274 0.929 . S
C1255 C1252 1.461 . S
C1255 C1254 1.474 . S
C1256 C1251 1.342 . S
C1256 C1254 1.285 . S
C1256 H1275 0.930 . S
C1257 C1260 1.424 . S
C1257 C1262 1.245 1_545 S
C1257 C1263 1.428 . S
C1258 C1261 1.260 . S
C1258 C1262 1.477 . S
C1258 H1276 0.932 . S
C1259 C1260 1.384 . S
C1259 C1261 1.479 1_545 S
C1259 H1277 0.929 . S
C1260 C1257 1.424 . S
C1260 C1259 1.384 . S
C1260 H1278 0.928 . S
C1261 C1258 1.260 . S
C1261 C1259 1.479 1_565 S
C1262 C1257 1.245 1_565 S
C1262 C1258 1.477 . S
C1262 H1279 0.932 . S
C1263 U1246 2.882 . S
C1263 C1257 1.428 . S
C1263 O1266 1.301 . S
C1263 O1267 1.282 . S
O1264 U1246 2.441 . S
O1264 C1250 1.249 . S
O1265 U1246 2.420 . S
O1265 C1250 1.202 . S
O1266 U1246 2.455 . S
O1266 C1263 1.301 . S
O1267 U1246 2.449 . S
O1267 C1263 1.282 . S
H1268 C1241 0.931 . S
H1269 C1243 0.929 . S
H1270 C1244 0.930 . S
H1271 C1245 0.931 . S
H1272 C1252 0.932 . S
H1273 C1253 0.930 . S
H1274 C1254 0.929 . S
H1275 C1256 0.930 . S
H1276 C1258 0.932 . S
H1277 C1259 0.929 . S
H1278 C1260 0.928 . S
H1279 C1262 0.932 . S
C1280 C1281 1.264 . S
C1280 C1285 1.479 . S
C1280 C1290 1.465 . S
C1281 C1280 1.264 . S
C1281 C1283 1.339 . S
C1281 H1308 0.931 . S
C1282 C1283 1.395 . S
C1282 C1284 1.320 . S
C1283 C1281 1.339 . S
C1283 C1282 1.395 . S
C1283 H1309 0.929 . S
C1284 C1282 1.320 . S
C1284 C1285 1.405 . S
C1284 H1310 0.930 . S
C1285 C1280 1.479 . S
C1285 C1284 1.405 . S
C1285 H1311 0.931 . S
U1286 O1287 2.454 . S
U1286 O1288 2.458 . S
U1286 C1289 2.984 . S
U1286 C1290 2.847 . S
U1286 C1303 2.882 . S
U1286 O1304 2.441 . S
U1286 O1305 2.420 . S
U1286 O1306 2.455 . S
U1286 O1307 2.449 . S
O1287 U1286 2.454 . S
O1287 C1289 1.353 . S
O1288 U1286 2.458 . S
O1288 C1289 1.286 . S
C1289 U1286 2.984 . S
C1289 O1287 1.353 . S
C1289 O1288 1.286 . S
C1289 C1291 1.363 . S
C1290 C1280 1.465 . S
C1290 U1286 2.847 . S
C1290 O1304 1.249 . S
C1290 O1305 1.202 . S
C1291 C1289 1.363 . S
C1291 C1293 1.408 . S
C1291 C1296 1.342 . S
C1292 C1293 1.310 . S
C1292 C1295 1.461 . S
C1292 H1312 0.932 . S
C1293 C1291 1.408 . S
C1293 C1292 1.310 . S
C1293 H1313 0.930 . S
C1294 C1295 1.474 . S
C1294 C1296 1.285 . S
C1294 H1314 0.929 . S
C1295 C1292 1.461 . S
C1295 C1294 1.474 . S
C1296 C1291 1.342 . S
C1296 C1294 1.285 . S
C1296 H1315 0.930 . S
C1297 C1300 1.424 . S
C1297 C1302 1.245 . S
C1297 C1303 1.428 . S
C1298 C1301 1.260 . S
C1298 C1302 1.477 . S
C1298 H1316 0.932 . S
C1299 C1300 1.384 . S
C1299 C1301 1.479 . S
C1299 H1317 0.929 . S
C1300 C1297 1.424 . S
C1300 C1299 1.384 . S
C1300 H1318 0.928 . S
C1301 C1298 1.260 . S
C1301 C1299 1.479 . S
C1302 C1297 1.245 . S
C1302 C1298 1.477 . S
C1302 H1319 0.932 . S
C1303 U1286 2.882 . S
C1303 C1297 1.428 . S
C1303 O1306 1.301 . S
C1303 O1307 1.282 . S
O1304 U1286 2.441 . S
O1304 C1290 1.249 . S
O1305 U1286 2.420 . S
O1305 C1290 1.202 . S
O1306 U1286 2.455 . S
O1306 C1303 1.301 . S
O1307 U1286 2.449 . S
O1307 C1303 1.282 . S
H1308 C1281 0.931 . S
H1309 C1283 0.929 . S
H1310 C1284 0.930 . S
H1311 C1285 0.931 . S
H1312 C1292 0.932 . S
H1313 C1293 0.930 . S
H1314 C1294 0.929 . S
H1315 C1296 0.930 . S
H1316 C1298 0.932 . S
H1317 C1299 0.929 . S
H1318 C1300 0.928 . S
H1319 C1302 0.932 . S
C1320 C1321 1.264 . S
C1320 C1325 1.479 . S
C1320 C1330 1.465 . S
C1321 C1320 1.264 . S
C1321 C1323 1.339 . S
C1321 H1348 0.931 . S
C1322 C1323 1.395 . S
C1322 C1324 1.320 . S
C1323 C1321 1.339 . S
C1323 C1322 1.395 . S
C1323 H1349 0.929 . S
C1324 C1322 1.320 . S
C1324 C1325 1.405 . S
C1324 H1350 0.930 . S
C1325 C1320 1.479 . S
C1325 C1324 1.405 . S
C1325 H1351 0.931 . S
U1326 O1327 2.454 . S
U1326 O1328 2.458 . S
U1326 C1329 2.984 . S
U1326 C1330 2.847 . S
U1326 C1343 2.882 . S
U1326 O1344 2.441 . S
U1326 O1345 2.420 . S
U1326 O1346 2.455 . S
U1326 O1347 2.449 . S
O1327 U1326 2.454 . S
O1327 C1329 1.353 . S
O1328 U1326 2.458 . S
O1328 C1329 1.286 . S
C1329 U1326 2.984 . S
C1329 O1327 1.353 . S
C1329 O1328 1.286 . S
C1329 C1331 1.363 . S
C1330 C1320 1.465 . S
C1330 U1326 2.847 . S
C1330 O1344 1.249 . S
C1330 O1345 1.202 . S
C1331 C1329 1.363 . S
C1331 C1333 1.408 . S
C1331 C1336 1.342 . S
C1332 C1333 1.310 . S
C1332 C1335 1.461 . S
C1332 H1352 0.932 . S
C1333 C1331 1.408 . S
C1333 C1332 1.310 . S
C1333 H1353 0.930 . S
C1334 C1335 1.474 . S
C1334 C1336 1.285 . S
C1334 H1354 0.929 . S
C1335 C1332 1.461 . S
C1335 C1334 1.474 . S
C1336 C1331 1.342 . S
C1336 C1334 1.285 . S
C1336 H1355 0.930 . S
C1337 C1340 1.424 . S
C1337 C1342 1.245 1_556 S
C1337 C1343 1.428 . S
C1338 C1341 1.260 . S
C1338 C1342 1.477 . S
C1338 H1356 0.932 . S
C1339 C1340 1.384 . S
C1339 C1341 1.479 1_556 S
C1339 H1357 0.929 . S
C1340 C1337 1.424 . S
C1340 C1339 1.384 . S
C1340 H1358 0.928 . S
C1341 C1338 1.260 . S
C1341 C1339 1.479 1_554 S
C1342 C1337 1.245 1_554 S
C1342 C1338 1.477 . S
C1342 H1359 0.932 . S
C1343 U1326 2.882 . S
C1343 C1337 1.428 . S
C1343 O1346 1.301 . S
C1343 O1347 1.282 . S
O1344 U1326 2.441 . S
O1344 C1330 1.249 . S
O1345 U1326 2.420 . S
O1345 C1330 1.202 . S
O1346 U1326 2.455 . S
O1346 C1343 1.301 . S
O1347 U1326 2.449 . S
O1347 C1343 1.282 . S
H1348 C1321 0.931 . S
H1349 C1323 0.929 . S
H1350 C1324 0.930 . S
H1351 C1325 0.931 . S
H1352 C1332 0.932 . S
H1353 C1333 0.930 . S
H1354 C1334 0.929 . S
H1355 C1336 0.930 . S
H1356 C1338 0.932 . S
H1357 C1339 0.929 . S
H1358 C1340 0.928 . S
H1359 C1342 0.932 . S
C1360 C1361 1.264 . S
C1360 C1365 1.479 . S
C1360 C1370 1.465 . S
C1361 C1360 1.264 . S
C1361 C1363 1.339 . S
C1361 H1388 0.931 . S
C1362 C1363 1.395 . S
C1362 C1364 1.320 . S
C1363 C1361 1.339 . S
C1363 C1362 1.395 . S
C1363 H1389 0.929 . S
C1364 C1362 1.320 . S
C1364 C1365 1.405 . S
C1364 H1390 0.930 . S
C1365 C1360 1.479 . S
C1365 C1364 1.405 . S
C1365 H1391 0.931 . S
U1366 O1367 2.454 . S
U1366 O1368 2.458 . S
U1366 C1369 2.984 . S
U1366 C1370 2.847 . S
U1366 C1383 2.882 . S
U1366 O1384 2.441 . S
U1366 O1385 2.420 . S
U1366 O1386 2.455 . S
U1366 O1387 2.449 . S
O1367 U1366 2.454 . S
O1367 C1369 1.353 . S
O1368 U1366 2.458 . S
O1368 C1369 1.286 . S
C1369 U1366 2.984 . S
C1369 O1367 1.353 . S
C1369 O1368 1.286 . S
C1369 C1371 1.363 . S
C1370 C1360 1.465 . S
C1370 U1366 2.847 . S
C1370 O1384 1.249 . S
C1370 O1385 1.202 . S
C1371 C1369 1.363 . S
C1371 C1373 1.408 . S
C1371 C1376 1.342 . S
C1372 C1373 1.310 . S
C1372 C1375 1.461 . S
C1372 H1392 0.932 . S
C1373 C1371 1.408 . S
C1373 C1372 1.310 . S
C1373 H1393 0.930 . S
C1374 C1375 1.474 . S
C1374 C1376 1.285 . S
C1374 H1394 0.929 . S
C1375 C1372 1.461 . S
C1375 C1374 1.474 . S
C1376 C1371 1.342 . S
C1376 C1374 1.285 . S
C1376 H1395 0.930 . S
C1377 C1380 1.424 . S
C1377 C1382 1.245 1_556 S
C1377 C1383 1.428 . S
C1378 C1381 1.260 . S
C1378 C1382 1.477 . S
C1378 H1396 0.932 . S
C1379 C1380 1.384 . S
C1379 C1381 1.479 1_556 S
C1379 H1397 0.929 . S
C1380 C1377 1.424 . S
C1380 C1379 1.384 . S
C1380 H1398 0.928 . S
C1381 C1378 1.260 . S
C1381 C1379 1.479 1_554 S
C1382 C1377 1.245 1_554 S
C1382 C1378 1.477 . S
C1382 H1399 0.932 . S
C1383 U1366 2.882 . S
C1383 C1377 1.428 . S
C1383 O1386 1.301 . S
C1383 O1387 1.282 . S
O1384 U1366 2.441 . S
O1384 C1370 1.249 . S
O1385 U1366 2.420 . S
O1385 C1370 1.202 . S
O1386 U1366 2.455 . S
O1386 C1383 1.301 . S
O1387 U1366 2.449 . S
O1387 C1383 1.282 . S
H1388 C1361 0.931 . S
H1389 C1363 0.929 . S
H1390 C1364 0.930 . S
H1391 C1365 0.931 . S
H1392 C1372 0.932 . S
H1393 C1373 0.930 . S
H1394 C1374 0.929 . S
H1395 C1376 0.930 . S
H1396 C1378 0.932 . S
H1397 C1379 0.929 . S
H1398 C1380 0.928 . S
H1399 C1382 0.932 . S
C1400 C1401 1.264 . S
C1400 C1405 1.479 . S
C1400 C1410 1.465 . S
C1401 C1400 1.264 . S
C1401 C1403 1.339 . S
C1401 H1428 0.931 . S
C1402 C1403 1.395 . S
C1402 C1404 1.320 . S
C1403 C1401 1.339 . S
C1403 C1402 1.395 . S
C1403 H1429 0.929 . S
C1404 C1402 1.320 . S
C1404 C1405 1.405 . S
C1404 H1430 0.930 . S
C1405 C1400 1.479 . S
C1405 C1404 1.405 . S
C1405 H1431 0.931 . S
U1406 O1407 2.454 . S
U1406 O1408 2.458 . S
U1406 C1409 2.984 . S
U1406 C1410 2.847 . S
U1406 C1423 2.882 . S
U1406 O1424 2.441 . S
U1406 O1425 2.420 . S
U1406 O1426 2.455 . S
U1406 O1427 2.449 . S
O1407 U1406 2.454 . S
O1407 C1409 1.353 . S
O1408 U1406 2.458 . S
O1408 C1409 1.286 . S
C1409 U1406 2.984 . S
C1409 O1407 1.353 . S
C1409 O1408 1.286 . S
C1409 C1411 1.363 . S
C1410 C1400 1.465 . S
C1410 U1406 2.847 . S
C1410 O1424 1.249 . S
C1410 O1425 1.202 . S
C1411 C1409 1.363 . S
C1411 C1413 1.408 . S
C1411 C1416 1.342 . S
C1412 C1413 1.310 . S
C1412 C1415 1.461 . S
C1412 H1432 0.932 . S
C1413 C1411 1.408 . S
C1413 C1412 1.310 . S
C1413 H1433 0.930 . S
C1414 C1415 1.474 . S
C1414 C1416 1.285 . S
C1414 H1434 0.929 . S
C1415 C1412 1.461 . S
C1415 C1414 1.474 . S
C1416 C1411 1.342 . S
C1416 C1414 1.285 . S
C1416 H1435 0.930 . S
C1417 C1420 1.424 . S
C1417 C1422 1.245 1_554 S
C1417 C1423 1.428 . S
C1418 C1421 1.260 . S
C1418 C1422 1.477 . S
C1418 H1436 0.932 . S
C1419 C1420 1.384 . S
C1419 C1421 1.479 1_554 S
C1419 H1437 0.929 . S
C1420 C1417 1.424 . S
C1420 C1419 1.384 . S
C1420 H1438 0.928 . S
C1421 C1418 1.260 . S
C1421 C1419 1.479 1_556 S
C1422 C1417 1.245 1_556 S
C1422 C1418 1.477 . S
C1422 H1439 0.932 . S
C1423 U1406 2.882 . S
C1423 C1417 1.428 . S
C1423 O1426 1.301 . S
C1423 O1427 1.282 . S
O1424 U1406 2.441 . S
O1424 C1410 1.249 . S
O1425 U1406 2.420 . S
O1425 C1410 1.202 . S
O1426 U1406 2.455 . S
O1426 C1423 1.301 . S
O1427 U1406 2.449 . S
O1427 C1423 1.282 . S
H1428 C1401 0.931 . S
H1429 C1403 0.929 . S
H1430 C1404 0.930 . S
H1431 C1405 0.931 . S
H1432 C1412 0.932 . S
H1433 C1413 0.930 . S
H1434 C1414 0.929 . S
H1435 C1416 0.930 . S
H1436 C1418 0.932 . S
H1437 C1419 0.929 . S
H1438 C1420 0.928 . S
H1439 C1422 0.932 . S
C1440 C1441 1.264 . S
C1440 C1445 1.479 . S
C1440 C1450 1.465 . S
C1441 C1440 1.264 . S
C1441 C1443 1.339 . S
C1441 H1468 0.931 . S
C1442 C1443 1.395 . S
C1442 C1444 1.320 . S
C1443 C1441 1.339 . S
C1443 C1442 1.395 . S
C1443 H1469 0.929 . S
C1444 C1442 1.320 . S
C1444 C1445 1.405 . S
C1444 H1470 0.930 . S
C1445 C1440 1.479 . S
C1445 C1444 1.405 . S
C1445 H1471 0.931 . S
U1446 O1447 2.454 . S
U1446 O1448 2.458 . S
U1446 C1449 2.984 . S
U1446 C1450 2.847 . S
U1446 C1463 2.882 . S
U1446 O1464 2.441 . S
U1446 O1465 2.420 . S
U1446 O1466 2.455 . S
U1446 O1467 2.449 . S
O1447 U1446 2.454 . S
O1447 C1449 1.353 . S
O1448 U1446 2.458 . S
O1448 C1449 1.286 . S
C1449 U1446 2.984 . S
C1449 O1447 1.353 . S
C1449 O1448 1.286 . S
C1449 C1451 1.363 . S
C1450 C1440 1.465 . S
C1450 U1446 2.847 . S
C1450 O1464 1.249 . S
C1450 O1465 1.202 . S
C1451 C1449 1.363 . S
C1451 C1453 1.408 . S
C1451 C1456 1.342 . S
C1452 C1453 1.310 . S
C1452 C1455 1.461 . S
C1452 H1472 0.932 . S
C1453 C1451 1.408 . S
C1453 C1452 1.310 . S
C1453 H1473 0.930 . S
C1454 C1455 1.474 . S
C1454 C1456 1.285 . S
C1454 H1474 0.929 . S
C1455 C1452 1.461 . S
C1455 C1454 1.474 . S
C1456 C1451 1.342 . S
C1456 C1454 1.285 . S
C1456 H1475 0.930 . S
C1457 C1460 1.424 . S
C1457 C1462 1.245 . S
C1457 C1463 1.428 . S
C1458 C1461 1.260 . S
C1458 C1462 1.477 . S
C1458 H1476 0.932 . S
C1459 C1460 1.384 . S
C1459 C1461 1.479 . S
C1459 H1477 0.929 . S
C1460 C1457 1.424 . S
C1460 C1459 1.384 . S
C1460 H1478 0.928 . S
C1461 C1458 1.260 . S
C1461 C1459 1.479 . S
C1462 C1457 1.245 . S
C1462 C1458 1.477 . S
C1462 H1479 0.932 . S
C1463 U1446 2.882 . S
C1463 C1457 1.428 . S
C1463 O1466 1.301 . S
C1463 O1467 1.282 . S
O1464 U1446 2.441 . S
O1464 C1450 1.249 . S
O1465 U1446 2.420 . S
O1465 C1450 1.202 . S
O1466 U1446 2.455 . S
O1466 C1463 1.301 . S
O1467 U1446 2.449 . S
O1467 C1463 1.282 . S
H1468 C1441 0.931 . S
H1469 C1443 0.929 . S
H1470 C1444 0.930 . S
H1471 C1445 0.931 . S
H1472 C1452 0.932 . S
H1473 C1453 0.930 . S
H1474 C1454 0.929 . S
H1475 C1456 0.930 . S
H1476 C1458 0.932 . S
H1477 C1459 0.929 . S
H1478 C1460 0.928 . S
H1479 C1462 0.932 . S
C1480 C1481 1.264 . S
C1480 C1485 1.479 . S
C1480 C1490 1.465 . S
C1481 C1480 1.264 . S
C1481 C1483 1.339 . S
C1481 H1508 0.931 . S
C1482 C1483 1.395 . S
C1482 C1484 1.320 . S
C1483 C1481 1.339 . S
C1483 C1482 1.395 . S
C1483 H1509 0.929 . S
C1484 C1482 1.320 . S
C1484 C1485 1.405 . S
C1484 H1510 0.930 . S
C1485 C1480 1.479 . S
C1485 C1484 1.405 . S
C1485 H1511 0.931 . S
U1486 O1487 2.454 . S
U1486 O1488 2.458 . S
U1486 C1489 2.984 . S
U1486 C1490 2.847 . S
U1486 C1503 2.882 . S
U1486 O1504 2.441 . S
U1486 O1505 2.420 . S
U1486 O1506 2.455 . S
U1486 O1507 2.449 . S
O1487 U1486 2.454 . S
O1487 C1489 1.353 . S
O1488 U1486 2.458 . S
O1488 C1489 1.286 . S
C1489 U1486 2.984 . S
C1489 O1487 1.353 . S
C1489 O1488 1.286 . S
C1489 C1491 1.363 . S
C1490 C1480 1.465 . S
C1490 U1486 2.847 . S
C1490 O1504 1.249 . S
C1490 O1505 1.202 . S
C1491 C1489 1.363 . S
C1491 C1493 1.408 . S
C1491 C1496 1.342 . S
C1492 C1493 1.310 . S
C1492 C1495 1.461 . S
C1492 H1512 0.932 . S
C1493 C1491 1.408 . S
C1493 C1492 1.310 . S
C1493 H1513 0.930 . S
C1494 C1495 1.474 . S
C1494 C1496 1.285 . S
C1494 H1514 0.929 . S
C1495 C1492 1.461 . S
C1495 C1494 1.474 . S
C1496 C1491 1.342 . S
C1496 C1494 1.285 . S
C1496 H1515 0.930 . S
C1497 C1500 1.424 . S
C1497 C1502 1.245 . S
C1497 C1503 1.428 . S
C1498 C1501 1.260 . S
C1498 C1502 1.477 . S
C1498 H1516 0.932 . S
C1499 C1500 1.384 . S
C1499 C1501 1.479 . S
C1499 H1517 0.929 . S
C1500 C1497 1.424 . S
C1500 C1499 1.384 . S
C1500 H1518 0.928 . S
C1501 C1498 1.260 . S
C1501 C1499 1.479 . S
C1502 C1497 1.245 . S
C1502 C1498 1.477 . S
C1502 H1519 0.932 . S
C1503 U1486 2.882 . S
C1503 C1497 1.428 . S
C1503 O1506 1.301 . S
C1503 O1507 1.282 . S
O1504 U1486 2.441 . S
O1504 C1490 1.249 . S
O1505 U1486 2.420 . S
O1505 C1490 1.202 . S
O1506 U1486 2.455 . S
O1506 C1503 1.301 . S
O1507 U1486 2.449 . S
O1507 C1503 1.282 . S
H1508 C1481 0.931 . S
H1509 C1483 0.929 . S
H1510 C1484 0.930 . S
H1511 C1485 0.931 . S
H1512 C1492 0.932 . S
H1513 C1493 0.930 . S
H1514 C1494 0.929 . S
H1515 C1496 0.930 . S
H1516 C1498 0.932 . S
H1517 C1499 0.929 . S
H1518 C1500 0.928 . S
H1519 C1502 0.932 . S
C1520 C1521 1.264 . S
C1520 C1525 1.479 . S
C1520 C1530 1.465 . S
C1521 C1520 1.264 . S
C1521 C1523 1.339 . S
C1521 H1548 0.931 . S
C1522 C1523 1.395 . S
C1522 C1524 1.320 . S
C1523 C1521 1.339 . S
C1523 C1522 1.395 . S
C1523 H1549 0.929 . S
C1524 C1522 1.320 . S
C1524 C1525 1.405 . S
C1524 H1550 0.930 . S
C1525 C1520 1.479 . S
C1525 C1524 1.405 . S
C1525 H1551 0.931 . S
U1526 O1527 2.454 . S
U1526 O1528 2.458 . S
U1526 C1529 2.984 . S
U1526 C1530 2.847 . S
U1526 C1543 2.882 . S
U1526 O1544 2.441 . S
U1526 O1545 2.420 . S
U1526 O1546 2.455 . S
U1526 O1547 2.449 . S
O1527 U1526 2.454 . S
O1527 C1529 1.353 . S
O1528 U1526 2.458 . S
O1528 C1529 1.286 . S
C1529 U1526 2.984 . S
C1529 O1527 1.353 . S
C1529 O1528 1.286 . S
C1529 C1531 1.363 . S
C1530 C1520 1.465 . S
C1530 U1526 2.847 . S
C1530 O1544 1.249 . S
C1530 O1545 1.202 . S
C1531 C1529 1.363 . S
C1531 C1533 1.408 . S
C1531 C1536 1.342 . S
C1532 C1533 1.310 . S
C1532 C1535 1.461 . S
C1532 H1552 0.932 . S
C1533 C1531 1.408 . S
C1533 C1532 1.310 . S
C1533 H1553 0.930 . S
C1534 C1535 1.474 . S
C1534 C1536 1.285 . S
C1534 H1554 0.929 . S
C1535 C1532 1.461 . S
C1535 C1534 1.474 . S
C1536 C1531 1.342 . S
C1536 C1534 1.285 . S
C1536 H1555 0.930 . S
C1537 C1540 1.424 . S
C1537 C1542 1.245 . S
C1537 C1543 1.428 . S
C1538 C1541 1.260 . S
C1538 C1542 1.477 . S
C1538 H1556 0.932 . S
C1539 C1540 1.384 . S
C1539 C1541 1.479 . S
C1539 H1557 0.929 . S
C1540 C1537 1.424 . S
C1540 C1539 1.384 . S
C1540 H1558 0.928 . S
C1541 C1538 1.260 . S
C1541 C1539 1.479 . S
C1542 C1537 1.245 . S
C1542 C1538 1.477 . S
C1542 H1559 0.932 . S
C1543 U1526 2.882 . S
C1543 C1537 1.428 . S
C1543 O1546 1.301 . S
C1543 O1547 1.282 . S
O1544 U1526 2.441 . S
O1544 C1530 1.249 . S
O1545 U1526 2.420 . S
O1545 C1530 1.202 . S
O1546 U1526 2.455 . S
O1546 C1543 1.301 . S
O1547 U1526 2.449 . S
O1547 C1543 1.282 . S
H1548 C1521 0.931 . S
H1549 C1523 0.929 . S
H1550 C1524 0.930 . S
H1551 C1525 0.931 . S
H1552 C1532 0.932 . S
H1553 C1533 0.930 . S
H1554 C1534 0.929 . S
H1555 C1536 0.930 . S
H1556 C1538 0.932 . S
H1557 C1539 0.929 . S
H1558 C1540 0.928 . S
H1559 C1542 0.932 . S
C1560 C1561 1.264 . S
C1560 C1565 1.479 . S
C1560 C1570 1.465 . S
C1561 C1560 1.264 . S
C1561 C1563 1.339 . S
C1561 H1588 0.931 . S
C1562 C1563 1.395 . S
C1562 C1564 1.320 . S
C1563 C1561 1.339 . S
C1563 C1562 1.395 . S
C1563 H1589 0.929 . S
C1564 C1562 1.320 . S
C1564 C1565 1.405 . S
C1564 H1590 0.930 . S
C1565 C1560 1.479 . S
C1565 C1564 1.405 . S
C1565 H1591 0.931 . S
U1566 O1567 2.454 . S
U1566 O1568 2.458 . S
U1566 C1569 2.984 . S
U1566 C1570 2.847 . S
U1566 C1583 2.882 . S
U1566 O1584 2.441 . S
U1566 O1585 2.420 . S
U1566 O1586 2.455 . S
U1566 O1587 2.449 . S
O1567 U1566 2.454 . S
O1567 C1569 1.353 . S
O1568 U1566 2.458 . S
O1568 C1569 1.286 . S
C1569 U1566 2.984 . S
C1569 O1567 1.353 . S
C1569 O1568 1.286 . S
C1569 C1571 1.363 . S
C1570 C1560 1.465 . S
C1570 U1566 2.847 . S
C1570 O1584 1.249 . S
C1570 O1585 1.202 . S
C1571 C1569 1.363 . S
C1571 C1573 1.408 . S
C1571 C1576 1.342 . S
C1572 C1573 1.310 . S
C1572 C1575 1.461 . S
C1572 H1592 0.932 . S
C1573 C1571 1.408 . S
C1573 C1572 1.310 . S
C1573 H1593 0.930 . S
C1574 C1575 1.474 . S
C1574 C1576 1.285 . S
C1574 H1594 0.929 . S
C1575 C1572 1.461 . S
C1575 C1574 1.474 . S
C1576 C1571 1.342 . S
C1576 C1574 1.285 . S
C1576 H1595 0.930 . S
C1577 C1580 1.424 . S
C1577 C1582 1.245 . S
C1577 C1583 1.428 . S
C1578 C1581 1.260 . S
C1578 C1582 1.477 . S
C1578 H1596 0.932 . S
C1579 C1580 1.384 . S
C1579 C1581 1.479 . S
C1579 H1597 0.929 . S
C1580 C1577 1.424 . S
C1580 C1579 1.384 . S
C1580 H1598 0.928 . S
C1581 C1578 1.260 . S
C1581 C1579 1.479 . S
C1582 C1577 1.245 . S
C1582 C1578 1.477 . S
C1582 H1599 0.932 . S
C1583 U1566 2.882 . S
C1583 C1577 1.428 . S
C1583 O1586 1.301 . S
C1583 O1587 1.282 . S
O1584 U1566 2.441 . S
O1584 C1570 1.249 . S
O1585 U1566 2.420 . S
O1585 C1570 1.202 . S
O1586 U1566 2.455 . S
O1586 C1583 1.301 . S
O1587 U1566 2.449 . S
O1587 C1583 1.282 . S
H1588 C1561 0.931 . S
H1589 C1563 0.929 . S
H1590 C1564 0.930 . S
H1591 C1565 0.931 . S
H1592 C1572 0.932 . S
H1593 C1573 0.930 . S
H1594 C1574 0.929 . S
H1595 C1576 0.930 . S
H1596 C1578 0.932 . S
H1597 C1579 0.929 . S
H1598 C1580 0.928 . S
H1599 C1582 0.932 . S
C1600 C1601 1.264 . S
C1600 C1605 1.479 . S
C1600 C1610 1.465 . S
C1601 C1600 1.264 . S
C1601 C1603 1.339 . S
C1601 H1628 0.931 . S
C1602 C1603 1.395 . S
C1602 C1604 1.320 . S
C1603 C1601 1.339 . S
C1603 C1602 1.395 . S
C1603 H1629 0.929 . S
C1604 C1602 1.320 . S
C1604 C1605 1.405 . S
C1604 H1630 0.930 . S
C1605 C1600 1.479 . S
C1605 C1604 1.405 . S
C1605 H1631 0.931 . S
U1606 O1607 2.454 . S
U1606 O1608 2.458 . S
U1606 C1609 2.984 . S
U1606 C1610 2.847 . S
U1606 C1623 2.882 . S
U1606 O1624 2.441 . S
U1606 O1625 2.420 . S
U1606 O1626 2.455 . S
U1606 O1627 2.449 . S
O1607 U1606 2.454 . S
O1607 C1609 1.353 . S
O1608 U1606 2.458 . S
O1608 C1609 1.286 . S
C1609 U1606 2.984 . S
C1609 O1607 1.353 . S
C1609 O1608 1.286 . S
C1609 C1611 1.363 . S
C1610 C1600 1.465 . S
C1610 U1606 2.847 . S
C1610 O1624 1.249 . S
C1610 O1625 1.202 . S
C1611 C1609 1.363 . S
C1611 C1613 1.408 . S
C1611 C1616 1.342 . S
C1612 C1613 1.310 . S
C1612 C1615 1.461 . S
C1612 H1632 0.932 . S
C1613 C1611 1.408 . S
C1613 C1612 1.310 . S
C1613 H1633 0.930 . S
C1614 C1615 1.474 . S
C1614 C1616 1.285 . S
C1614 H1634 0.929 . S
C1615 C1612 1.461 . S
C1615 C1614 1.474 . S
C1616 C1611 1.342 . S
C1616 C1614 1.285 . S
C1616 H1635 0.930 . S
C1617 C1620 1.424 . S
C1617 C1622 1.245 . S
C1617 C1623 1.428 . S
C1618 C1621 1.260 . S
C1618 C1622 1.477 . S
C1618 H1636 0.932 . S
C1619 C1620 1.384 . S
C1619 C1621 1.479 . S
C1619 H1637 0.929 . S
C1620 C1617 1.424 . S
C1620 C1619 1.384 . S
C1620 H1638 0.928 . S
C1621 C1618 1.260 . S
C1621 C1619 1.479 . S
C1622 C1617 1.245 . S
C1622 C1618 1.477 . S
C1622 H1639 0.932 . S
C1623 U1606 2.882 . S
C1623 C1617 1.428 . S
C1623 O1626 1.301 . S
C1623 O1627 1.282 . S
O1624 U1606 2.441 . S
O1624 C1610 1.249 . S
O1625 U1606 2.420 . S
O1625 C1610 1.202 . S
O1626 U1606 2.455 . S
O1626 C1623 1.301 . S
O1627 U1606 2.449 . S
O1627 C1623 1.282 . S
H1628 C1601 0.931 . S
H1629 C1603 0.929 . S
H1630 C1604 0.930 . S
H1631 C1605 0.931 . S
H1632 C1612 0.932 . S
H1633 C1613 0.930 . S
H1634 C1614 0.929 . S
H1635 C1616 0.930 . S
H1636 C1618 0.932 . S
H1637 C1619 0.929 . S
H1638 C1620 0.928 . S
H1639 C1622 0.932 . S
C1640 C1641 1.269 . S
C1640 C1645 1.462 1_545 S
C1640 C1650 1.475 . S
C1641 C1640 1.269 . S
C1641 C1643 1.339 1_545 S
C1641 H1668 0.931 . S
C1642 C1643 1.395 . S
C1642 C1644 1.320 . S
C1643 C1641 1.339 1_565 S
C1643 C1642 1.395 . S
C1643 H1669 0.929 . S
C1644 C1642 1.320 . S
C1644 C1645 1.405 . S
C1644 H1670 0.930 . S
C1645 C1640 1.462 1_565 S
C1645 C1644 1.405 . S
C1645 H1671 0.931 . S
U1646 O1647 2.454 . S
U1646 O1648 2.458 . S
U1646 C1649 2.984 . S
U1646 C1650 2.847 . S
U1646 C1663 2.882 . S
U1646 O1664 2.441 . S
U1646 O1665 2.420 . S
U1646 O1666 2.455 . S
U1646 O1667 2.449 . S
O1647 U1646 2.454 . S
O1647 C1649 1.353 . S
O1648 U1646 2.458 . S
O1648 C1649 1.286 . S
C1649 U1646 2.984 . S
C1649 O1647 1.353 . S
C1649 O1648 1.286 . S
C1649 C1651 1.363 . S
C1650 C1640 1.475 . S
C1650 U1646 2.847 . S
C1650 O1664 1.249 . S
C1650 O1665 1.202 . S
C1651 C1649 1.363 . S
C1651 C1653 1.408 . S
C1651 C1656 1.342 . S
C1652 C1653 1.310 . S
C1652 C1655 1.461 . S
C1652 H1672 0.974 . S
C1653 C1651 1.408 . S
C1653 C1652 1.310 . S
C1653 H1673 0.930 . S
C1654 C1655 1.474 . S
C1654 C1656 1.285 . S
C1654 H1674 0.929 . S
C1655 C1652 1.461 . S
C1655 C1654 1.474 . S
C1656 C1651 1.342 . S
C1656 C1654 1.285 . S
C1656 H1675 0.930 . S
C1657 C1660 1.424 . S
C1657 C1662 1.245 . S
C1657 C1663 1.428 . S
C1658 C1661 1.260 . S
C1658 C1662 1.477 . S
C1658 H1676 0.932 . S
C1659 C1660 1.384 . S
C1659 C1661 1.479 . S
C1659 H1677 0.929 . S
C1660 C1657 1.424 . S
C1660 C1659 1.384 . S
C1660 H1678 0.928 . S
C1661 C1658 1.260 . S
C1661 C1659 1.479 . S
C1662 C1657 1.245 . S
C1662 C1658 1.477 . S
C1662 H1679 0.932 . S
C1663 U1646 2.882 . S
C1663 C1657 1.428 . S
C1663 O1666 1.301 . S
C1663 O1667 1.282 . S
O1664 U1646 2.441 . S
O1664 C1650 1.249 . S
O1665 U1646 2.420 . S
O1665 C1650 1.202 . S
O1666 U1646 2.455 . S
O1666 C1663 1.301 . S
O1667 U1646 2.449 . S
O1667 C1663 1.282 . S
H1668 C1641 0.931 . S
H1669 C1643 0.929 . S
H1670 C1644 0.930 . S
H1671 C1645 0.931 . S
H1672 C1652 0.974 . S
H1673 C1653 0.930 . S
H1674 C1654 0.929 . S
H1675 C1656 0.930 . S
H1676 C1658 0.932 . S
H1677 C1659 0.929 . S
H1678 C1660 0.928 . S
H1679 C1662 0.932 . S
C1680 C1681 1.264 . S
C1680 C1685 1.479 . S
C1680 C1690 1.465 . S
C1681 C1680 1.264 . S
C1681 C1683 1.339 . S
C1681 H1708 0.931 . S
C1682 C1683 1.395 . S
C1682 C1684 1.320 . S
C1683 C1681 1.339 . S
C1683 C1682 1.395 . S
C1683 H1709 0.929 . S
C1684 C1682 1.320 . S
C1684 C1685 1.405 . S
C1684 H1710 0.930 . S
C1685 C1680 1.479 . S
C1685 C1684 1.405 . S
C1685 H1711 0.931 . S
U1686 O1687 2.454 . S
U1686 O1688 2.458 . S
U1686 C1689 2.984 . S
U1686 C1690 2.847 . S
U1686 C1703 2.882 . S
U1686 O1704 2.441 . S
U1686 O1705 2.420 . S
U1686 O1706 2.455 . S
U1686 O1707 2.449 . S
O1687 U1686 2.454 . S
O1687 C1689 1.353 . S
O1688 U1686 2.458 . S
O1688 C1689 1.286 . S
C1689 U1686 2.984 . S
C1689 O1687 1.353 . S
C1689 O1688 1.286 . S
C1689 C1691 1.363 . S
C1690 C1680 1.465 . S
C1690 U1686 2.847 . S
C1690 O1704 1.249 . S
C1690 O1705 1.202 . S
C1691 C1689 1.363 . S
C1691 C1693 1.408 . S
C1691 C1696 1.342 . S
C1692 C1693 1.310 . S
C1692 C1695 1.461 . S
C1692 H1712 0.932 . S
C1693 C1691 1.408 . S
C1693 C1692 1.310 . S
C1693 H1713 0.930 . S
C1694 C1695 1.474 . S
C1694 C1696 1.285 . S
C1694 H1714 0.929 . S
C1695 C1692 1.461 . S
C1695 C1694 1.474 . S
C1696 C1691 1.342 . S
C1696 C1694 1.285 . S
C1696 H1715 0.930 . S
C1697 C1700 1.424 . S
C1697 C1702 1.245 . S
C1697 C1703 1.428 . S
C1698 C1701 1.260 . S
C1698 C1702 1.477 . S
C1698 H1716 0.932 . S
C1699 C1700 1.384 . S
C1699 C1701 1.479 . S
C1699 H1717 0.929 . S
C1700 C1697 1.424 . S
C1700 C1699 1.384 . S
C1700 H1718 0.928 . S
C1701 C1698 1.260 . S
C1701 C1699 1.479 . S
C1702 C1697 1.245 . S
C1702 C1698 1.477 . S
C1702 H1719 0.932 . S
C1703 U1686 2.882 . S
C1703 C1697 1.428 . S
C1703 O1706 1.301 . S
C1703 O1707 1.282 . S
O1704 U1686 2.441 . S
O1704 C1690 1.249 . S
O1705 U1686 2.420 . S
O1705 C1690 1.202 . S
O1706 U1686 2.455 . S
O1706 C1703 1.301 . S
O1707 U1686 2.449 . S
O1707 C1703 1.282 . S
H1708 C1681 0.931 . S
H1709 C1683 0.929 . S
H1710 C1684 0.930 . S
H1711 C1685 0.931 . S
H1712 C1692 0.932 . S
H1713 C1693 0.930 . S
H1714 C1694 0.929 . S
H1715 C1696 0.930 . S
H1716 C1698 0.932 . S
H1717 C1699 0.929 . S
H1718 C1700 0.928 . S
H1719 C1702 0.932 . S
C1720 C1721 1.269 . S
C1720 C1725 1.462 1_565 S
C1720 C1730 1.475 . S
C1721 C1720 1.269 . S
C1721 C1723 1.339 1_565 S
C1721 H1748 0.931 . S
C1722 C1723 1.395 . S
C1722 C1724 1.320 . S
C1723 C1721 1.339 1_545 S
C1723 C1722 1.395 . S
C1723 H1749 0.929 . S
C1724 C1722 1.320 . S
C1724 C1725 1.405 . S
C1724 H1750 0.930 . S
C1725 C1720 1.462 1_545 S
C1725 C1724 1.405 . S
C1725 H1751 0.931 . S
U1726 O1727 2.454 . S
U1726 O1728 2.458 . S
U1726 C1729 2.984 . S
U1726 C1730 2.847 . S
U1726 C1743 2.882 . S
U1726 O1744 2.441 . S
U1726 O1745 2.420 . S
U1726 O1746 2.455 . S
U1726 O1747 2.449 . S
O1727 U1726 2.454 . S
O1727 C1729 1.353 . S
O1728 U1726 2.458 . S
O1728 C1729 1.286 . S
C1729 U1726 2.984 . S
C1729 O1727 1.353 . S
C1729 O1728 1.286 . S
C1729 C1731 1.363 . S
C1730 C1720 1.475 . S
C1730 U1726 2.847 . S
C1730 O1744 1.249 . S
C1730 O1745 1.202 . S
C1731 C1729 1.363 . S
C1731 C1733 1.408 . S
C1731 C1736 1.342 . S
C1732 C1733 1.310 . S
C1732 C1735 1.461 . S
C1732 H1752 0.974 . S
C1733 C1731 1.408 . S
C1733 C1732 1.310 . S
C1733 H1753 0.930 . S
C1734 C1735 1.474 . S
C1734 C1736 1.285 . S
C1734 H1754 0.929 . S
C1735 C1732 1.461 . S
C1735 C1734 1.474 . S
C1736 C1731 1.342 . S
C1736 C1734 1.285 . S
C1736 H1755 0.930 . S
C1737 C1740 1.424 . S
C1737 C1742 1.245 . S
C1737 C1743 1.428 . S
C1738 C1741 1.260 . S
C1738 C1742 1.477 . S
C1738 H1756 0.932 . S
C1739 C1740 1.384 . S
C1739 C1741 1.479 . S
C1739 H1757 0.929 . S
C1740 C1737 1.424 . S
C1740 C1739 1.384 . S
C1740 H1758 0.928 . S
C1741 C1738 1.260 . S
C1741 C1739 1.479 . S
C1742 C1737 1.245 . S
C1742 C1738 1.477 . S
C1742 H1759 0.932 . S
C1743 U1726 2.882 . S
C1743 C1737 1.428 . S
C1743 O1746 1.301 . S
C1743 O1747 1.282 . S
O1744 U1726 2.441 . S
O1744 C1730 1.249 . S
O1745 U1726 2.420 . S
O1745 C1730 1.202 . S
O1746 U1726 2.455 . S
O1746 C1743 1.301 . S
O1747 U1726 2.449 . S
O1747 C1743 1.282 . S
H1748 C1721 0.931 . S
H1749 C1723 0.929 . S
H1750 C1724 0.930 . S
H1751 C1725 0.931 . S
H1752 C1732 0.974 . S
H1753 C1733 0.930 . S
H1754 C1734 0.929 . S
H1755 C1736 0.930 . S
H1756 C1738 0.932 . S
H1757 C1739 0.929 . S
H1758 C1740 0.928 . S
H1759 C1742 0.932 . S
C1760 C1761 1.264 . S
C1760 C1765 1.479 . S
C1760 C1770 1.465 . S
C1761 C1760 1.264 . S
C1761 C1763 1.339 . S
C1761 H1788 0.931 . S
C1762 C1763 1.395 . S
C1762 C1764 1.320 . S
C1763 C1761 1.339 . S
C1763 C1762 1.395 . S
C1763 H1789 0.929 . S
C1764 C1762 1.320 . S
C1764 C1765 1.405 . S
C1764 H1790 0.930 . S
C1765 C1760 1.479 . S
C1765 C1764 1.405 . S
C1765 H1791 0.931 . S
U1766 O1767 2.454 . S
U1766 O1768 2.458 . S
U1766 C1769 2.984 . S
U1766 C1770 2.847 . S
U1766 C1783 2.882 . S
U1766 O1784 2.441 . S
U1766 O1785 2.420 . S
U1766 O1786 2.455 . S
U1766 O1787 2.449 . S
O1767 U1766 2.454 . S
O1767 C1769 1.353 . S
O1768 U1766 2.458 . S
O1768 C1769 1.286 . S
C1769 U1766 2.984 . S
C1769 O1767 1.353 . S
C1769 O1768 1.286 . S
C1769 C1771 1.363 . S
C1770 C1760 1.465 . S
C1770 U1766 2.847 . S
C1770 O1784 1.249 . S
C1770 O1785 1.202 . S
C1771 C1769 1.363 . S
C1771 C1773 1.408 . S
C1771 C1776 1.342 . S
C1772 C1773 1.310 . S
C1772 C1775 1.461 . S
C1772 H1792 0.932 . S
C1773 C1771 1.408 . S
C1773 C1772 1.310 . S
C1773 H1793 0.930 . S
C1774 C1775 1.474 . S
C1774 C1776 1.285 . S
C1774 H1794 0.929 . S
C1775 C1772 1.461 . S
C1775 C1774 1.474 . S
C1776 C1771 1.342 . S
C1776 C1774 1.285 . S
C1776 H1795 0.930 . S
C1777 C1780 1.424 . S
C1777 C1782 1.245 . S
C1777 C1783 1.428 . S
C1778 C1781 1.260 . S
C1778 C1782 1.477 . S
C1778 H1796 0.932 . S
C1779 C1780 1.384 . S
C1779 C1781 1.479 . S
C1779 H1797 0.929 . S
C1780 C1777 1.424 . S
C1780 C1779 1.384 . S
C1780 H1798 0.928 . S
C1781 C1778 1.260 . S
C1781 C1779 1.479 . S
C1782 C1777 1.245 . S
C1782 C1778 1.477 . S
C1782 H1799 0.932 . S
C1783 U1766 2.882 . S
C1783 C1777 1.428 . S
C1783 O1786 1.301 . S
C1783 O1787 1.282 . S
O1784 U1766 2.441 . S
O1784 C1770 1.249 . S
O1785 U1766 2.420 . S
O1785 C1770 1.202 . S
O1786 U1766 2.455 . S
O1786 C1783 1.301 . S
O1787 U1766 2.449 . S
O1787 C1783 1.282 . S
H1788 C1761 0.931 . S
H1789 C1763 0.929 . S
H1790 C1764 0.930 . S
H1791 C1765 0.931 . S
H1792 C1772 0.932 . S
H1793 C1773 0.930 . S
H1794 C1774 0.929 . S
H1795 C1776 0.930 . S
H1796 C1778 0.932 . S
H1797 C1779 0.929 . S
H1798 C1780 0.928 . S
H1799 C1782 0.932 . S
C1800 C1801 1.264 . S
C1800 C1805 1.479 . S
C1800 C1810 1.465 . S
C1801 C1800 1.264 . S
C1801 C1803 1.339 . S
C1801 H1828 0.931 . S
C1802 C1803 1.395 . S
C1802 C1804 1.320 . S
C1803 C1801 1.339 . S
C1803 C1802 1.395 . S
C1803 H1829 0.929 . S
C1804 C1802 1.320 . S
C1804 C1805 1.405 . S
C1804 H1830 0.930 . S
C1805 C1800 1.479 . S
C1805 C1804 1.405 . S
C1805 H1831 0.931 . S
U1806 O1807 2.454 . S
U1806 O1808 2.458 . S
U1806 C1809 2.984 . S
U1806 C1810 2.847 . S
U1806 C1823 2.882 . S
U1806 O1824 2.441 . S
U1806 O1825 2.420 . S
U1806 O1826 2.455 . S
U1806 O1827 2.449 . S
O1807 U1806 2.454 . S
O1807 C1809 1.353 . S
O1808 U1806 2.458 . S
O1808 C1809 1.286 . S
C1809 U1806 2.984 . S
C1809 O1807 1.353 . S
C1809 O1808 1.286 . S
C1809 C1811 1.363 . S
C1810 C1800 1.465 . S
C1810 U1806 2.847 . S
C1810 O1824 1.249 . S
C1810 O1825 1.202 . S
C1811 C1809 1.363 . S
C1811 C1813 1.408 . S
C1811 C1816 1.342 . S
C1812 C1813 1.310 . S
C1812 C1815 1.461 . S
C1812 H1832 0.932 . S
C1813 C1811 1.408 . S
C1813 C1812 1.310 . S
C1813 H1833 0.930 . S
C1814 C1815 1.474 . S
C1814 C1816 1.285 . S
C1814 H1834 0.929 . S
C1815 C1812 1.461 . S
C1815 C1814 1.474 . S
C1816 C1811 1.342 . S
C1816 C1814 1.285 . S
C1816 H1835 0.930 . S
C1817 C1820 1.424 . S
C1817 C1822 1.245 . S
C1817 C1823 1.428 . S
C1818 C1821 1.260 . S
C1818 C1822 1.477 1_556 S
C1818 H1836 0.932 . S
C1819 C1820 1.384 . S
C1819 C1821 1.479 1_554 S
C1819 H1837 0.929 . S
C1820 C1817 1.424 . S
C1820 C1819 1.384 . S
C1820 H1838 0.928 . S
C1821 C1818 1.260 . S
C1821 C1819 1.479 1_556 S
C1822 C1817 1.245 . S
C1822 C1818 1.477 1_554 S
C1822 H1839 0.919 1_554 S
C1823 U1806 2.882 . S
C1823 C1817 1.428 . S
C1823 O1826 1.301 . S
C1823 O1827 1.282 . S
O1824 U1806 2.441 . S
O1824 C1810 1.249 . S
O1825 U1806 2.420 . S
O1825 C1810 1.202 . S
O1826 U1806 2.455 . S
O1826 C1823 1.301 . S
O1827 U1806 2.449 . S
O1827 C1823 1.282 . S
H1828 C1801 0.931 . S
H1829 C1803 0.929 . S
H1830 C1804 0.930 . S
H1831 C1805 0.931 . S
H1832 C1812 0.932 . S
H1833 C1813 0.930 . S
H1834 C1814 0.929 . S
H1835 C1816 0.930 . S
H1836 C1818 0.932 . S
H1837 C1819 0.929 . S
H1838 C1820 0.928 . S
H1839 C1822 0.919 1_556 S
C1840 C1841 1.264 . S
C1840 C1845 1.479 . S
C1840 C1850 1.465 . S
C1841 C1840 1.264 . S
C1841 C1843 1.339 . S
C1841 H1868 0.931 . S
C1842 C1843 1.395 . S
C1842 C1844 1.320 . S
C1843 C1841 1.339 . S
C1843 C1842 1.395 . S
C1843 H1869 0.929 . S
C1844 C1842 1.320 . S
C1844 C1845 1.405 . S
C1844 H1870 0.930 . S
C1845 C1840 1.479 . S
C1845 C1844 1.405 . S
C1845 H1871 0.931 . S
U1846 O1847 2.454 . S
U1846 O1848 2.458 . S
U1846 C1849 2.984 . S
U1846 C1850 2.847 . S
U1846 C1863 2.882 . S
U1846 O1864 2.441 . S
U1846 O1865 2.420 . S
U1846 O1866 2.455 . S
U1846 O1867 2.449 . S
O1847 U1846 2.454 . S
O1847 C1849 1.353 . S
O1848 U1846 2.458 . S
O1848 C1849 1.286 . S
C1849 U1846 2.984 . S
C1849 O1847 1.353 . S
C1849 O1848 1.286 . S
C1849 C1851 1.363 . S
C1850 C1840 1.465 . S
C1850 U1846 2.847 . S
C1850 O1864 1.249 . S
C1850 O1865 1.202 . S
C1851 C1849 1.363 . S
C1851 C1853 1.408 . S
C1851 C1856 1.342 . S
C1852 C1853 1.310 . S
C1852 C1855 1.461 . S
C1852 H1872 0.932 . S
C1853 C1851 1.408 . S
C1853 C1852 1.310 . S
C1853 H1873 0.930 . S
C1854 C1855 1.474 . S
C1854 C1856 1.285 . S
C1854 H1874 0.929 . S
C1855 C1852 1.461 . S
C1855 C1854 1.474 . S
C1856 C1851 1.342 . S
C1856 C1854 1.285 . S
C1856 H1875 0.930 . S
C1857 C1860 1.424 . S
C1857 C1862 1.245 . S
C1857 C1863 1.428 . S
C1858 C1861 1.260 . S
C1858 C1862 1.477 1_556 S
C1858 H1876 0.932 . S
C1859 C1860 1.384 . S
C1859 C1861 1.479 1_554 S
C1859 H1877 0.929 . S
C1860 C1857 1.424 . S
C1860 C1859 1.384 . S
C1860 H1878 0.928 . S
C1861 C1858 1.260 . S
C1861 C1859 1.479 1_556 S
C1862 C1857 1.245 . S
C1862 C1858 1.477 1_554 S
C1862 H1879 0.932 . S
C1863 U1846 2.882 . S
C1863 C1857 1.428 . S
C1863 O1866 1.301 . S
C1863 O1867 1.282 . S
O1864 U1846 2.441 . S
O1864 C1850 1.249 . S
O1865 U1846 2.420 . S
O1865 C1850 1.202 . S
O1866 U1846 2.455 . S
O1866 C1863 1.301 . S
O1867 U1846 2.449 . S
O1867 C1863 1.282 . S
H1868 C1841 0.931 . S
H1869 C1843 0.929 . S
H1870 C1844 0.930 . S
H1871 C1845 0.931 . S
H1872 C1852 0.932 . S
H1873 C1853 0.930 . S
H1874 C1854 0.929 . S
H1875 C1856 0.930 . S
H1876 C1858 0.932 . S
H1877 C1859 0.929 . S
H1878 C1860 0.928 . S
H1879 C1862 0.932 . S
C1880 C1881 1.264 . S
C1880 C1885 1.479 . S
C1880 C1890 1.465 . S
C1881 C1880 1.264 . S
C1881 C1883 1.339 . S
C1881 H1908 0.931 . S
C1882 C1883 1.395 . S
C1882 C1884 1.320 . S
C1883 C1881 1.339 . S
C1883 C1882 1.395 . S
C1883 H1909 0.929 . S
C1884 C1882 1.320 . S
C1884 C1885 1.405 . S
C1884 H1910 0.930 . S
C1885 C1880 1.479 . S
C1885 C1884 1.405 . S
C1885 H1911 0.931 . S
U1886 O1887 2.454 . S
U1886 O1888 2.458 . S
U1886 C1889 2.984 . S
U1886 C1890 2.847 . S
U1886 C1903 2.882 . S
U1886 O1904 2.441 . S
U1886 O1905 2.420 . S
U1886 O1906 2.455 . S
U1886 O1907 2.449 . S
O1887 U1886 2.454 . S
O1887 C1889 1.353 . S
O1888 U1886 2.458 . S
O1888 C1889 1.286 . S
C1889 U1886 2.984 . S
C1889 O1887 1.353 . S
C1889 O1888 1.286 . S
C1889 C1891 1.363 . S
C1890 C1880 1.465 . S
C1890 U1886 2.847 . S
C1890 O1904 1.249 . S
C1890 O1905 1.202 . S
C1891 C1889 1.363 . S
C1891 C1893 1.408 . S
C1891 C1896 1.342 . S
C1892 C1893 1.310 . S
C1892 C1895 1.461 . S
C1892 H1912 0.932 . S
C1893 C1891 1.408 . S
C1893 C1892 1.310 . S
C1893 H1913 0.930 . S
C1894 C1895 1.474 . S
C1894 C1896 1.285 . S
C1894 H1914 0.929 . S
C1895 C1892 1.461 . S
C1895 C1894 1.474 . S
C1896 C1891 1.342 . S
C1896 C1894 1.285 . S
C1896 H1915 0.930 . S
C1897 C1900 1.424 . S
C1897 C1902 1.245 . S
C1897 C1903 1.428 . S
C1898 C1901 1.260 . S
C1898 C1902 1.477 1_554 S
C1898 H1916 0.932 . S
C1899 C1900 1.384 . S
C1899 C1901 1.479 1_556 S
C1899 H1917 0.929 . S
C1900 C1897 1.424 . S
C1900 C1899 1.384 . S
C1900 H1918 0.928 . S
C1901 C1898 1.260 . S
C1901 C1899 1.479 1_554 S
C1902 C1897 1.245 . S
C1902 C1898 1.477 1_556 S
C1902 H1919 0.932 . S
C1903 U1886 2.882 . S
C1903 C1897 1.428 . S
C1903 O1906 1.301 . S
C1903 O1907 1.282 . S
O1904 U1886 2.441 . S
O1904 C1890 1.249 . S
O1905 U1886 2.420 . S
O1905 C1890 1.202 . S
O1906 U1886 2.455 . S
O1906 C1903 1.301 . S
O1907 U1886 2.449 . S
O1907 C1903 1.282 . S
H1908 C1881 0.931 . S
H1909 C1883 0.929 . S
H1910 C1884 0.930 . S
H1911 C1885 0.931 . S
H1912 C1892 0.932 . S
H1913 C1893 0.930 . S
H1914 C1894 0.929 . S
H1915 C1896 0.930 . S
H1916 C1898 0.932 . S
H1917 C1899 0.929 . S
H1918 C1900 0.928 . S
H1919 C1902 0.932 . S
H1920 C1926 0.930 . S
H1921 C1930 0.930 . S
H1922 C1935 0.929 . S
H1923 C1933 0.929 . S
H1924 C1928 0.929 . S
H1925 C1934 0.929 . S
C1926 H1920 0.930 . S
C1926 C1927 1.367 . S
C1926 C1934 1.378 . S
C1927 C1926 1.367 . S
C1927 C1935 1.433 . S
C1928 H1924 0.929 . S
C1928 C1930 1.378 . S
C1928 C1932 1.350 . S
C1929 C1932 1.463 . S
C1929 C1934 1.350 . S
C1929 N1937 1.427 . S
C1930 H1921 0.930 . S
C1930 C1928 1.378 . S
C1930 C1931 1.367 . S
C1931 C1930 1.367 . S
C1931 C1933 1.433 . S
C1932 C1928 1.350 . S
C1932 C1929 1.463 . S
C1932 N1936 1.427 . S
C1933 H1923 0.929 . S
C1933 C1931 1.433 . S
C1933 N1936 1.384 . S
C1934 H1925 0.929 . S
C1934 C1926 1.378 . S
C1934 C1929 1.350 . S
C1935 H1922 0.929 . S
C1935 C1927 1.433 . S
C1935 N1937 1.384 . S
N1936 C1932 1.427 . S
N1936 C1933 1.384 . S
N1937 C1929 1.427 . S
N1937 C1935 1.384 . S
H1938 C1944 0.930 . S
H1939 C1948 0.930 . S
H1940 C1953 0.929 . S
H1941 C1951 0.929 . S
H1942 C1946 0.929 . S
H1943 C1952 0.929 . S
C1944 H1938 0.930 . S
C1944 C1945 1.367 . S
C1944 C1952 1.378 . S
C1945 C1944 1.367 . S
C1945 C1953 1.433 . S
C1946 H1942 0.929 . S
C1946 C1948 1.378 . S
C1946 C1950 1.350 . S
C1947 C1950 1.463 . S
C1947 C1952 1.350 . S
C1947 N1955 1.427 . S
C1948 H1939 0.930 . S
C1948 C1946 1.378 . S
C1948 C1949 1.367 . S
C1949 C1948 1.367 . S
C1949 C1951 1.433 . S
C1950 C1946 1.350 . S
C1950 C1947 1.463 . S
C1950 N1954 1.427 . S
C1951 H1941 0.929 . S
C1951 C1949 1.433 . S
C1951 N1954 1.384 . S
C1952 H1943 0.929 . S
C1952 C1944 1.378 . S
C1952 C1947 1.350 . S
C1953 H1940 0.929 . S
C1953 C1945 1.433 . S
C1953 N1955 1.384 . S
N1954 C1950 1.427 . S
N1954 C1951 1.384 . S
N1955 C1947 1.427 . S
N1955 C1953 1.384 . S
H1956 C1962 0.930 . S
H1957 C1966 0.930 . S
H1958 C1971 0.929 . S
H1959 C1969 0.929 . S
H1960 C1964 0.929 . S
H1961 C1970 0.929 . S
C1962 H1956 0.930 . S
C1962 C1963 1.367 . S
C1962 C1970 1.378 . S
C1963 C1962 1.367 . S
C1963 C1971 1.433 . S
C1964 H1960 0.929 . S
C1964 C1966 1.378 . S
C1964 C1968 1.350 . S
C1965 C1968 1.463 . S
C1965 C1970 1.350 . S
C1965 N1973 1.427 . S
C1966 H1957 0.930 . S
C1966 C1964 1.378 . S
C1966 C1967 1.367 . S
C1967 C1966 1.367 . S
C1967 C1969 1.433 . S
C1968 C1964 1.350 . S
C1968 C1965 1.463 . S
C1968 N1972 1.427 . S
C1969 H1959 0.929 . S
C1969 C1967 1.433 . S
C1969 N1972 1.384 . S
C1970 H1961 0.929 . S
C1970 C1962 1.378 . S
C1970 C1965 1.350 . S
C1971 H1958 0.929 . S
C1971 C1963 1.433 . S
C1971 N1973 1.384 . S
N1972 C1968 1.427 . S
N1972 C1969 1.384 . S
N1973 C1965 1.427 . S
N1973 C1971 1.384 . S
H1974 C1980 0.930 . S
H1975 C1984 0.930 . S
H1976 C1989 0.929 . S
H1977 C1987 0.929 . S
H1978 C1982 0.929 . S
H1979 C1988 0.929 . S
C1980 H1974 0.930 . S
C1980 C1981 1.367 . S
C1980 C1988 1.378 . S
C1981 C1980 1.367 . S
C1981 C1989 1.433 . S
C1982 H1978 0.929 . S
C1982 C1984 1.378 . S
C1982 C1986 1.350 . S
C1983 C1986 1.463 . S
C1983 C1988 1.350 . S
C1983 N1991 1.427 . S
C1984 H1975 0.930 . S
C1984 C1982 1.378 . S
C1984 C1985 1.367 . S
C1985 C1984 1.367 . S
C1985 C1987 1.433 . S
C1986 C1982 1.350 . S
C1986 C1983 1.463 . S
C1986 N1990 1.427 . S
C1987 H1977 0.929 . S
C1987 C1985 1.433 . S
C1987 N1990 1.384 . S
C1988 H1979 0.929 . S
C1988 C1980 1.378 . S
C1988 C1983 1.350 . S
C1989 H1976 0.929 . S
C1989 C1981 1.433 . S
C1989 N1991 1.384 . S
N1990 C1986 1.427 . S
N1990 C1987 1.384 . S
N1991 C1983 1.427 . S
N1991 C1989 1.384 . S
H1992 C1998 0.930 . S
H1993 C2002 0.930 . S
H1994 C2007 0.929 . S
H1995 C2005 0.929 . S
H1996 C2000 0.929 . S
H1997 C2006 0.929 . S
C1998 H1992 0.930 . S
C1998 C1999 1.367 . S
C1998 C2006 1.378 . S
C1999 C1998 1.367 . S
C1999 C2007 1.433 . S
C2000 H1996 0.929 . S
C2000 C2002 1.378 . S
C2000 C2004 1.350 . S
C2001 C2004 1.463 . S
C2001 C2006 1.350 . S
C2001 N2009 1.427 . S
C2002 H1993 0.930 . S
C2002 C2000 1.378 . S
C2002 C2003 1.367 . S
C2003 C2002 1.367 . S
C2003 C2005 1.433 . S
C2004 C2000 1.350 . S
C2004 C2001 1.463 . S
C2004 N2008 1.427 . S
C2005 H1995 0.929 . S
C2005 C2003 1.433 . S
C2005 N2008 1.384 . S
C2006 H1997 0.929 . S
C2006 C1998 1.378 . S
C2006 C2001 1.350 . S
C2007 H1994 0.929 . S
C2007 C1999 1.433 . S
C2007 N2009 1.384 . S
N2008 C2004 1.427 . S
N2008 C2005 1.384 . S
N2009 C2001 1.427 . S
N2009 C2007 1.384 . S
H2010 C2016 0.930 . S
H2011 C2020 0.930 . S
H2012 C2025 0.929 . S
H2013 C2023 0.929 . S
H2014 C2018 0.929 . S
H2015 C2024 0.929 . S
C2016 H2010 0.930 . S
C2016 C2017 1.367 . S
C2016 C2024 1.378 . S
C2017 C2016 1.367 . S
C2017 C2025 1.433 . S
C2018 H2014 0.929 . S
C2018 C2020 1.378 . S
C2018 C2022 1.350 . S
C2019 C2022 1.463 . S
C2019 C2024 1.350 . S
C2019 N2027 1.427 . S
C2020 H2011 0.930 . S
C2020 C2018 1.378 . S
C2020 C2021 1.367 . S
C2021 C2020 1.367 . S
C2021 C2023 1.433 . S
C2022 C2018 1.350 . S
C2022 C2019 1.463 . S
C2022 N2026 1.427 . S
C2023 H2013 0.929 . S
C2023 C2021 1.433 . S
C2023 N2026 1.384 . S
C2024 H2015 0.929 . S
C2024 C2016 1.378 . S
C2024 C2019 1.350 . S
C2025 H2012 0.929 . S
C2025 C2017 1.433 . S
C2025 N2027 1.384 . S
N2026 C2022 1.427 . S
N2026 C2023 1.384 . S
N2027 C2019 1.427 . S
N2027 C2025 1.384 . S
H2028 C2034 0.930 . S
H2029 C2038 0.930 . S
H2030 C2043 0.929 . S
H2031 C2041 0.929 . S
H2032 C2036 0.929 . S
H2033 C2042 0.929 . S
C2034 H2028 0.930 . S
C2034 C2035 1.367 . S
C2034 C2042 1.378 . S
C2035 C2034 1.367 . S
C2035 C2043 1.433 . S
C2036 H2032 0.929 . S
C2036 C2038 1.378 . S
C2036 C2040 1.350 . S
C2037 C2040 1.463 . S
C2037 C2042 1.350 . S
C2037 N2045 1.427 . S
C2038 H2029 0.930 . S
C2038 C2036 1.378 . S
C2038 C2039 1.367 . S
C2039 C2038 1.367 . S
C2039 C2041 1.433 . S
C2040 C2036 1.350 . S
C2040 C2037 1.463 . S
C2040 N2044 1.427 . S
C2041 H2031 0.929 . S
C2041 C2039 1.433 . S
C2041 N2044 1.384 . S
C2042 H2033 0.929 . S
C2042 C2034 1.378 . S
C2042 C2037 1.350 . S
C2043 H2030 0.929 . S
C2043 C2035 1.433 . S
C2043 N2045 1.384 . S
N2044 C2040 1.427 . S
N2044 C2041 1.384 . S
N2045 C2037 1.427 . S
N2045 C2043 1.384 . S
H2046 C2052 0.930 . S
H2047 C2056 0.930 . S
H2048 C2061 0.929 . S
H2049 C2059 0.929 . S
H2050 C2054 0.929 . S
H2051 C2060 0.929 . S
C2052 H2046 0.930 . S
C2052 C2053 1.367 . S
C2052 C2060 1.378 . S
C2053 C2052 1.367 . S
C2053 C2061 1.433 . S
C2054 H2050 0.929 . S
C2054 C2056 1.378 . S
C2054 C2058 1.350 . S
C2055 C2058 1.463 . S
C2055 C2060 1.350 . S
C2055 N2063 1.427 . S
C2056 H2047 0.930 . S
C2056 C2054 1.378 . S
C2056 C2057 1.367 . S
C2057 C2056 1.367 . S
C2057 C2059 1.433 . S
C2058 C2054 1.350 . S
C2058 C2055 1.463 . S
C2058 N2062 1.427 . S
C2059 H2049 0.929 . S
C2059 C2057 1.433 . S
C2059 N2062 1.384 . S
C2060 H2051 0.929 . S
C2060 C2052 1.378 . S
C2060 C2055 1.350 . S
C2061 H2048 0.929 . S
C2061 C2053 1.433 . S
C2061 N2063 1.384 . S
N2062 C2058 1.427 . S
N2062 C2059 1.384 . S
N2063 C2055 1.427 . S
N2063 C2061 1.384 . S
H2064 C2070 0.930 . S
H2065 C2074 0.930 . S
H2066 C2079 0.929 . S
H2067 C2077 0.929 . S
H2068 C2072 0.929 . S
H2069 C2078 0.929 . S
C2070 H2064 0.930 . S
C2070 C2071 1.367 . S
C2070 C2078 1.378 . S
C2071 C2070 1.367 . S
C2071 C2079 1.433 . S
C2072 H2068 0.929 . S
C2072 C2074 1.378 . S
C2072 C2076 1.350 . S
C2073 C2076 1.463 . S
C2073 C2078 1.350 . S
C2073 N2081 1.427 . S
C2074 H2065 0.930 . S
C2074 C2072 1.378 . S
C2074 C2075 1.367 . S
C2075 C2074 1.367 . S
C2075 C2077 1.433 . S
C2076 C2072 1.350 . S
C2076 C2073 1.463 . S
C2076 N2080 1.427 . S
C2077 H2067 0.929 . S
C2077 C2075 1.433 . S
C2077 N2080 1.384 . S
C2078 H2069 0.929 . S
C2078 C2070 1.378 . S
C2078 C2073 1.350 . S
C2079 H2066 0.929 . S
C2079 C2071 1.433 . S
C2079 N2081 1.384 . S
N2080 C2076 1.427 . S
N2080 C2077 1.384 . S
N2081 C2073 1.427 . S
N2081 C2079 1.384 . S
H2082 C2088 0.930 . S
H2083 C2092 0.930 . S
H2084 C2097 0.929 . S
H2085 C2095 0.929 . S
H2086 C2090 0.929 . S
H2087 C2096 0.929 . S
C2088 H2082 0.930 . S
C2088 C2089 1.367 . S
C2088 C2096 1.378 . S
C2089 C2088 1.367 . S
C2089 C2097 1.433 . S
C2090 H2086 0.929 . S
C2090 C2092 1.378 . S
C2090 C2094 1.350 . S
C2091 C2094 1.463 . S
C2091 C2096 1.350 . S
C2091 N2099 1.427 . S
C2092 H2083 0.930 . S
C2092 C2090 1.378 . S
C2092 C2093 1.367 . S
C2093 C2092 1.367 . S
C2093 C2095 1.433 . S
C2094 C2090 1.350 . S
C2094 C2091 1.463 . S
C2094 N2098 1.427 . S
C2095 H2085 0.929 . S
C2095 C2093 1.433 . S
C2095 N2098 1.384 . S
C2096 H2087 0.929 . S
C2096 C2088 1.378 . S
C2096 C2091 1.350 . S
C2097 H2084 0.929 . S
C2097 C2089 1.433 . S
C2097 N2099 1.384 . S
N2098 C2094 1.427 . S
N2098 C2095 1.384 . S
N2099 C2091 1.427 . S
N2099 C2097 1.384 . S
H2100 C2106 0.930 . S
H2101 C2110 0.930 . S
H2102 C2115 0.929 . S
H2103 C2113 0.929 . S
H2104 C2108 0.929 . S
H2105 C2114 0.929 . S
C2106 H2100 0.930 . S
C2106 C2107 1.367 . S
C2106 C2114 1.378 . S
C2107 C2106 1.367 . S
C2107 C2115 1.433 . S
C2108 H2104 0.929 . S
C2108 C2110 1.378 . S
C2108 C2112 1.350 . S
C2109 C2112 1.463 . S
C2109 C2114 1.350 . S
C2109 N2117 1.427 . S
C2110 H2101 0.930 . S
C2110 C2108 1.378 . S
C2110 C2111 1.367 . S
C2111 C2110 1.367 . S
C2111 C2113 1.433 . S
C2112 C2108 1.350 . S
C2112 C2109 1.463 . S
C2112 N2116 1.427 . S
C2113 H2103 0.929 . S
C2113 C2111 1.433 . S
C2113 N2116 1.384 . S
C2114 H2105 0.929 . S
C2114 C2106 1.378 . S
C2114 C2109 1.350 . S
C2115 H2102 0.929 . S
C2115 C2107 1.433 . S
C2115 N2117 1.384 . S
N2116 C2112 1.427 . S
N2116 C2113 1.384 . S
N2117 C2109 1.427 . S
N2117 C2115 1.384 . S
H2118 C2124 0.930 . S
H2119 C2128 0.930 . S
H2120 C2133 0.929 . S
H2121 C2131 0.929 . S
H2122 C2126 0.929 . S
H2123 C2132 0.929 . S
C2124 H2118 0.930 . S
C2124 C2125 1.367 . S
C2124 C2132 1.378 . S
C2125 C2124 1.367 . S
C2125 C2133 1.433 . S
C2126 H2122 0.929 . S
C2126 C2128 1.378 . S
C2126 C2130 1.350 . S
C2127 C2130 1.463 . S
C2127 C2132 1.350 . S
C2127 N2135 1.427 . S
C2128 H2119 0.930 . S
C2128 C2126 1.378 . S
C2128 C2129 1.367 . S
C2129 C2128 1.367 . S
C2129 C2131 1.433 . S
C2130 C2126 1.350 . S
C2130 C2127 1.463 . S
C2130 N2134 1.427 . S
C2131 H2121 0.929 . S
C2131 C2129 1.433 . S
C2131 N2134 1.384 . S
C2132 H2123 0.929 . S
C2132 C2124 1.378 . S
C2132 C2127 1.350 . S
C2133 H2120 0.929 . S
C2133 C2125 1.433 . S
C2133 N2135 1.384 . S
N2134 C2130 1.427 . S
N2134 C2131 1.384 . S
N2135 C2127 1.427 . S
N2135 C2133 1.384 . S
H2136 C2142 0.930 . S
H2137 C2146 0.930 . S
H2138 C2151 0.929 . S
H2139 C2149 0.929 . S
H2140 C2144 0.929 . S
H2141 C2150 0.929 . S
C2142 H2136 0.930 . S
C2142 C2143 1.367 . S
C2142 C2150 1.378 . S
C2143 C2142 1.367 . S
C2143 C2151 1.433 . S
C2144 H2140 0.929 . S
C2144 C2146 1.378 . S
C2144 C2148 1.350 . S
C2145 C2148 1.463 . S
C2145 C2150 1.350 . S
C2145 N2153 1.427 . S
C2146 H2137 0.930 . S
C2146 C2144 1.378 . S
C2146 C2147 1.367 . S
C2147 C2146 1.367 . S
C2147 C2149 1.433 . S
C2148 C2144 1.350 . S
C2148 C2145 1.463 . S
C2148 N2152 1.427 . S
C2149 H2139 0.929 . S
C2149 C2147 1.433 . S
C2149 N2152 1.384 . S
C2150 H2141 0.929 . S
C2150 C2142 1.378 . S
C2150 C2145 1.350 . S
C2151 H2138 0.929 . S
C2151 C2143 1.433 . S
C2151 N2153 1.384 . S
N2152 C2148 1.427 . S
N2152 C2149 1.384 . S
N2153 C2145 1.427 . S
N2153 C2151 1.384 . S
H2154 C2160 0.930 . S
H2155 C2164 0.930 . S
H2156 C2169 0.929 . S
H2157 C2167 0.929 . S
H2158 C2162 0.929 . S
H2159 C2168 0.929 . S
C2160 H2154 0.930 . S
C2160 C2161 1.367 . S
C2160 C2168 1.378 . S
C2161 C2160 1.367 . S
C2161 C2169 1.433 . S
C2162 H2158 0.929 . S
C2162 C2164 1.378 . S
C2162 C2166 1.350 . S
C2163 C2166 1.463 . S
C2163 C2168 1.350 . S
C2163 N2171 1.427 . S
C2164 H2155 0.930 . S
C2164 C2162 1.378 . S
C2164 C2165 1.367 . S
C2165 C2164 1.367 . S
C2165 C2167 1.433 . S
C2166 C2162 1.350 . S
C2166 C2163 1.463 . S
C2166 N2170 1.427 . S
C2167 H2157 0.929 . S
C2167 C2165 1.433 . S
C2167 N2170 1.384 . S
C2168 H2159 0.929 . S
C2168 C2160 1.378 . S
C2168 C2163 1.350 . S
C2169 H2156 0.929 . S
C2169 C2161 1.433 . S
C2169 N2171 1.384 . S
N2170 C2166 1.427 . S
N2170 C2167 1.384 . S
N2171 C2163 1.427 . S
N2171 C2169 1.384 . S
H2172 C2178 0.930 . S
H2173 C2182 0.930 . S
H2174 C2187 0.929 . S
H2175 C2185 0.929 . S
H2176 C2180 0.929 . S
H2177 C2186 0.929 . S
C2178 H2172 0.930 . S
C2178 C2179 1.367 . S
C2178 C2186 1.378 . S
C2179 C2178 1.367 . S
C2179 C2187 1.433 . S
C2180 H2176 0.929 . S
C2180 C2182 1.378 . S
C2180 C2184 1.350 . S
C2181 C2184 1.463 . S
C2181 C2186 1.350 . S
C2181 N2189 1.427 . S
C2182 H2173 0.930 . S
C2182 C2180 1.378 . S
C2182 C2183 1.367 . S
C2183 C2182 1.367 . S
C2183 C2185 1.433 . S
C2184 C2180 1.350 . S
C2184 C2181 1.463 . S
C2184 N2188 1.427 . S
C2185 H2175 0.929 . S
C2185 C2183 1.433 . S
C2185 N2188 1.384 . S
C2186 H2177 0.929 . S
C2186 C2178 1.378 . S
C2186 C2181 1.350 . S
C2187 H2174 0.929 . S
C2187 C2179 1.433 . S
C2187 N2189 1.384 . S
N2188 C2184 1.427 . S
N2188 C2185 1.384 . S
N2189 C2181 1.427 . S
N2189 C2187 1.384 . S
H2190 C2196 0.930 . S
H2191 C2200 0.930 . S
H2192 C2205 0.929 . S
H2193 C2203 0.929 . S
H2194 C2198 0.929 . S
H2195 C2204 0.929 . S
C2196 H2190 0.930 . S
C2196 C2197 1.367 . S
C2196 C2204 1.378 . S
C2197 C2196 1.367 . S
C2197 C2205 1.433 . S
C2198 H2194 0.929 . S
C2198 C2200 1.378 . S
C2198 C2202 1.350 . S
C2199 C2202 1.463 . S
C2199 C2204 1.350 . S
C2199 N2207 1.427 . S
C2200 H2191 0.930 . S
C2200 C2198 1.378 . S
C2200 C2201 1.367 . S
C2201 C2200 1.367 . S
C2201 C2203 1.433 . S
C2202 C2198 1.350 . S
C2202 C2199 1.463 . S
C2202 N2206 1.427 . S
C2203 H2193 0.929 . S
C2203 C2201 1.433 . S
C2203 N2206 1.384 . S
C2204 H2195 0.929 . S
C2204 C2196 1.378 . S
C2204 C2199 1.350 . S
C2205 H2192 0.929 . S
C2205 C2197 1.433 . S
C2205 N2207 1.384 . S
N2206 C2202 1.427 . S
N2206 C2203 1.384 . S
N2207 C2199 1.427 . S
N2207 C2205 1.384 . S
H2208 C2214 0.930 . S
H2209 C2218 0.930 . S
H2210 C2223 0.929 . S
H2211 C2221 0.929 . S
H2212 C2216 0.929 . S
H2213 C2222 0.929 . S
C2214 H2208 0.930 . S
C2214 C2215 1.367 . S
C2214 C2222 1.378 . S
C2215 C2214 1.367 . S
C2215 C2223 1.433 . S
C2216 H2212 0.929 . S
C2216 C2218 1.378 . S
C2216 C2220 1.350 . S
C2217 C2220 1.463 . S
C2217 C2222 1.350 . S
C2217 N2225 1.427 . S
C2218 H2209 0.930 . S
C2218 C2216 1.378 . S
C2218 C2219 1.367 . S
C2219 C2218 1.367 . S
C2219 C2221 1.433 . S
C2220 C2216 1.350 . S
C2220 C2217 1.463 . S
C2220 N2224 1.427 . S
C2221 H2211 0.929 . S
C2221 C2219 1.433 . S
C2221 N2224 1.384 . S
C2222 H2213 0.929 . S
C2222 C2214 1.378 . S
C2222 C2217 1.350 . S
C2223 H2210 0.929 . S
C2223 C2215 1.433 . S
C2223 N2225 1.384 . S
N2224 C2220 1.427 . S
N2224 C2221 1.384 . S
N2225 C2217 1.427 . S
N2225 C2223 1.384 . S
H2226 C2232 0.930 . S
H2227 C2236 0.930 . S
H2228 C2241 0.929 . S
H2229 C2239 0.929 . S
H2230 C2234 0.929 . S
H2231 C2240 0.929 . S
C2232 H2226 0.930 . S
C2232 C2233 1.367 . S
C2232 C2240 1.378 . S
C2233 C2232 1.367 . S
C2233 C2241 1.433 . S
C2234 H2230 0.929 . S
C2234 C2236 1.378 . S
C2234 C2238 1.350 . S
C2235 C2238 1.463 . S
C2235 C2240 1.350 . S
C2235 N2243 1.427 . S
C2236 H2227 0.930 . S
C2236 C2234 1.378 . S
C2236 C2237 1.367 . S
C2237 C2236 1.367 . S
C2237 C2239 1.433 . S
C2238 C2234 1.350 . S
C2238 C2235 1.463 . S
C2238 N2242 1.427 . S
C2239 H2229 0.929 . S
C2239 C2237 1.433 . S
C2239 N2242 1.384 . S
C2240 H2231 0.929 . S
C2240 C2232 1.378 . S
C2240 C2235 1.350 . S
C2241 H2228 0.929 . S
C2241 C2233 1.433 . S
C2241 N2243 1.384 . S
N2242 C2238 1.427 . S
N2242 C2239 1.384 . S
N2243 C2235 1.427 . S
N2243 C2241 1.384 . S
H2244 C2250 0.930 . S
H2245 C2254 0.930 . S
H2246 C2259 0.929 . S
H2247 C2257 0.929 . S
H2248 C2252 0.929 . S
H2249 C2258 0.929 . S
C2250 H2244 0.930 . S
C2250 C2251 1.367 . S
C2250 C2258 1.378 . S
C2251 C2250 1.367 . S
C2251 C2259 1.433 . S
C2252 H2248 0.929 . S
C2252 C2254 1.378 . S
C2252 C2256 1.350 . S
C2253 C2256 1.463 . S
C2253 C2258 1.350 . S
C2253 N2261 1.427 . S
C2254 H2245 0.930 . S
C2254 C2252 1.378 . S
C2254 C2255 1.367 . S
C2255 C2254 1.367 . S
C2255 C2257 1.433 . S
C2256 C2252 1.350 . S
C2256 C2253 1.463 . S
C2256 N2260 1.427 . S
C2257 H2247 0.929 . S
C2257 C2255 1.433 . S
C2257 N2260 1.384 . S
C2258 H2249 0.929 . S
C2258 C2250 1.378 . S
C2258 C2253 1.350 . S
C2259 H2246 0.929 . S
C2259 C2251 1.433 . S
C2259 N2261 1.384 . S
N2260 C2256 1.427 . S
N2260 C2257 1.384 . S
N2261 C2253 1.427 . S
N2261 C2259 1.384 . S
H2262 C2268 0.930 . S
H2263 C2272 0.930 . S
H2264 C2277 0.929 . S
H2265 C2275 0.929 . S
H2266 C2270 0.929 . S
H2267 C2276 0.929 . S
C2268 H2262 0.930 . S
C2268 C2269 1.367 . S
C2268 C2276 1.378 . S
C2269 C2268 1.367 . S
C2269 C2277 1.433 . S
C2270 H2266 0.929 . S
C2270 C2272 1.378 . S
C2270 C2274 1.350 . S
C2271 C2274 1.463 . S
C2271 C2276 1.350 . S
C2271 N2279 1.427 . S
C2272 H2263 0.930 . S
C2272 C2270 1.378 . S
C2272 C2273 1.367 . S
C2273 C2272 1.367 . S
C2273 C2275 1.433 . S
C2274 C2270 1.350 . S
C2274 C2271 1.463 . S
C2274 N2278 1.427 . S
C2275 H2265 0.929 . S
C2275 C2273 1.433 . S
C2275 N2278 1.384 . S
C2276 H2267 0.929 . S
C2276 C2268 1.378 . S
C2276 C2271 1.350 . S
C2277 H2264 0.929 . S
C2277 C2269 1.433 . S
C2277 N2279 1.384 . S
N2278 C2274 1.427 . S
N2278 C2275 1.384 . S
N2279 C2271 1.427 . S
N2279 C2277 1.384 . S
H2280 C2286 0.930 . S
H2281 C2290 0.930 . S
H2282 C2295 0.929 . S
H2283 C2293 0.929 . S
H2284 C2288 0.929 . S
H2285 C2294 0.929 . S
C2286 H2280 0.930 . S
C2286 C2287 1.367 . S
C2286 C2294 1.378 . S
C2287 C2286 1.367 . S
C2287 C2295 1.433 . S
C2288 H2284 0.929 . S
C2288 C2290 1.378 . S
C2288 C2292 1.350 . S
C2289 C2292 1.463 . S
C2289 C2294 1.350 . S
C2289 N2297 1.427 . S
C2290 H2281 0.930 . S
C2290 C2288 1.378 . S
C2290 C2291 1.367 . S
C2291 C2290 1.367 . S
C2291 C2293 1.433 . S
C2292 C2288 1.350 . S
C2292 C2289 1.463 . S
C2292 N2296 1.427 . S
C2293 H2283 0.929 . S
C2293 C2291 1.433 . S
C2293 N2296 1.384 . S
C2294 H2285 0.929 . S
C2294 C2286 1.378 . S
C2294 C2289 1.350 . S
C2295 H2282 0.929 . S
C2295 C2287 1.433 . S
C2295 N2297 1.384 . S
N2296 C2292 1.427 . S
N2296 C2293 1.384 . S
N2297 C2289 1.427 . S
N2297 C2295 1.384 . S
H2298 C2304 0.930 . S
H2299 C2308 0.930 . S
H2300 C2313 0.929 . S
H2301 C2311 0.929 . S
H2302 C2306 0.929 . S
H2303 C2312 0.929 . S
C2304 H2298 0.930 . S
C2304 C2305 1.367 . S
C2304 C2312 1.378 . S
C2305 C2304 1.367 . S
C2305 C2313 1.433 . S
C2306 H2302 0.929 . S
C2306 C2308 1.378 . S
C2306 C2310 1.350 . S
C2307 C2310 1.463 . S
C2307 C2312 1.350 . S
C2307 N2315 1.427 . S
C2308 H2299 0.930 . S
C2308 C2306 1.378 . S
C2308 C2309 1.367 . S
C2309 C2308 1.367 . S
C2309 C2311 1.433 . S
C2310 C2306 1.350 . S
C2310 C2307 1.463 . S
C2310 N2314 1.427 . S
C2311 H2301 0.929 . S
C2311 C2309 1.433 . S
C2311 N2314 1.384 . S
C2312 H2303 0.929 . S
C2312 C2304 1.378 . S
C2312 C2307 1.350 . S
C2313 H2300 0.929 . S
C2313 C2305 1.433 . S
C2313 N2315 1.384 . S
N2314 C2310 1.427 . S
N2314 C2311 1.384 . S
N2315 C2307 1.427 . S
N2315 C2313 1.384 . S
H2316 C2322 0.930 . S
H2317 C2326 0.930 . S
H2318 C2331 0.929 . S
H2319 C2329 0.929 . S
H2320 C2324 0.929 . S
H2321 C2330 0.929 . S
C2322 H2316 0.930 . S
C2322 C2323 1.367 . S
C2322 C2330 1.378 . S
C2323 C2322 1.367 . S
C2323 C2331 1.433 . S
C2324 H2320 0.929 . S
C2324 C2326 1.378 . S
C2324 C2328 1.350 . S
C2325 C2328 1.463 . S
C2325 C2330 1.350 . S
C2325 N2333 1.427 . S
C2326 H2317 0.930 . S
C2326 C2324 1.378 . S
C2326 C2327 1.367 . S
C2327 C2326 1.367 . S
C2327 C2329 1.433 . S
C2328 C2324 1.350 . S
C2328 C2325 1.463 . S
C2328 N2332 1.427 . S
C2329 H2319 0.929 . S
C2329 C2327 1.433 . S
C2329 N2332 1.384 . S
C2330 H2321 0.929 . S
C2330 C2322 1.378 . S
C2330 C2325 1.350 . S
C2331 H2318 0.929 . S
C2331 C2323 1.433 . S
C2331 N2333 1.384 . S
N2332 C2328 1.427 . S
N2332 C2329 1.384 . S
N2333 C2325 1.427 . S
N2333 C2331 1.384 . S
H2334 C2340 0.930 . S
H2335 C2344 0.930 . S
H2336 C2349 0.929 . S
H2337 C2347 0.929 . S
H2338 C2342 0.929 . S
H2339 C2348 0.929 . S
C2340 H2334 0.930 . S
C2340 C2341 1.367 . S
C2340 C2348 1.378 . S
C2341 C2340 1.367 . S
C2341 C2349 1.433 . S
C2342 H2338 0.929 . S
C2342 C2344 1.378 . S
C2342 C2346 1.350 . S
C2343 C2346 1.463 . S
C2343 C2348 1.350 . S
C2343 N2351 1.427 . S
C2344 H2335 0.930 . S
C2344 C2342 1.378 . S
C2344 C2345 1.367 . S
C2345 C2344 1.367 . S
C2345 C2347 1.433 . S
C2346 C2342 1.350 . S
C2346 C2343 1.463 . S
C2346 N2350 1.427 . S
C2347 H2337 0.929 . S
C2347 C2345 1.433 . S
C2347 N2350 1.384 . S
C2348 H2339 0.929 . S
C2348 C2340 1.378 . S
C2348 C2343 1.350 . S
C2349 H2336 0.929 . S
C2349 C2341 1.433 . S
C2349 N2351 1.384 . S
N2350 C2346 1.427 . S
N2350 C2347 1.384 . S
N2351 C2343 1.427 . S
N2351 C2349 1.384 . S
H2352 C2358 0.930 . S
H2353 C2362 0.930 . S
H2354 C2367 0.929 . S
H2355 C2365 0.929 . S
H2356 C2360 0.929 . S
H2357 C2366 0.929 . S
C2358 H2352 0.930 . S
C2358 C2359 1.367 . S
C2358 C2366 1.378 . S
C2359 C2358 1.367 . S
C2359 C2367 1.433 . S
C2360 H2356 0.929 . S
C2360 C2362 1.378 . S
C2360 C2364 1.350 . S
C2361 C2364 1.463 . S
C2361 C2366 1.350 . S
C2361 N2369 1.427 . S
C2362 H2353 0.930 . S
C2362 C2360 1.378 . S
C2362 C2363 1.367 . S
C2363 C2362 1.367 . S
C2363 C2365 1.433 . S
C2364 C2360 1.350 . S
C2364 C2361 1.463 . S
C2364 N2368 1.427 . S
C2365 H2355 0.929 . S
C2365 C2363 1.433 . S
C2365 N2368 1.384 . S
C2366 H2357 0.929 . S
C2366 C2358 1.378 . S
C2366 C2361 1.350 . S
C2367 H2354 0.929 . S
C2367 C2359 1.433 . S
C2367 N2369 1.384 . S
N2368 C2364 1.427 . S
N2368 C2365 1.384 . S
N2369 C2361 1.427 . S
N2369 C2367 1.384 . S
H2370 C2376 0.930 . S
H2371 C2380 0.930 . S
H2372 C2385 0.929 . S
H2373 C2383 0.929 . S
H2374 C2378 0.929 . S
H2375 C2384 0.929 . S
C2376 H2370 0.930 . S
C2376 C2377 1.367 . S
C2376 C2384 1.378 . S
C2377 C2376 1.367 . S
C2377 C2385 1.433 . S
C2378 H2374 0.929 . S
C2378 C2380 1.378 . S
C2378 C2382 1.350 . S
C2379 C2382 1.463 . S
C2379 C2384 1.350 . S
C2379 N2387 1.427 . S
C2380 H2371 0.930 . S
C2380 C2378 1.378 . S
C2380 C2381 1.367 . S
C2381 C2380 1.367 . S
C2381 C2383 1.433 . S
C2382 C2378 1.350 . S
C2382 C2379 1.463 . S
C2382 N2386 1.427 . S
C2383 H2373 0.929 . S
C2383 C2381 1.433 . S
C2383 N2386 1.384 . S
C2384 H2375 0.929 . S
C2384 C2376 1.378 . S
C2384 C2379 1.350 . S
C2385 H2372 0.929 . S
C2385 C2377 1.433 . S
C2385 N2387 1.384 . S
N2386 C2382 1.427 . S
N2386 C2383 1.384 . S
N2387 C2379 1.427 . S
N2387 C2385 1.384 . S
H2388 C2394 0.930 . S
H2389 C2398 0.930 . S
H2390 C2403 0.929 . S
H2391 C2401 0.929 . S
H2392 C2396 0.929 . S
H2393 C2402 0.929 . S
C2394 H2388 0.930 . S
C2394 C2395 1.367 . S
C2394 C2402 1.378 . S
C2395 C2394 1.367 . S
C2395 C2403 1.433 . S
C2396 H2392 0.929 . S
C2396 C2398 1.378 . S
C2396 C2400 1.350 . S
C2397 C2400 1.463 . S
C2397 C2402 1.350 . S
C2397 N2405 1.427 . S
C2398 H2389 0.930 . S
C2398 C2396 1.378 . S
C2398 C2399 1.367 . S
C2399 C2398 1.367 . S
C2399 C2401 1.433 . S
C2400 C2396 1.350 . S
C2400 C2397 1.463 . S
C2400 N2404 1.427 . S
C2401 H2391 0.929 . S
C2401 C2399 1.433 . S
C2401 N2404 1.384 . S
C2402 H2393 0.929 . S
C2402 C2394 1.378 . S
C2402 C2397 1.350 . S
C2403 H2390 0.929 . S
C2403 C2395 1.433 . S
C2403 N2405 1.384 . S
N2404 C2400 1.427 . S
N2404 C2401 1.384 . S
N2405 C2397 1.427 . S
N2405 C2403 1.384 . S
H2406 C2412 0.930 . S
H2407 C2416 0.930 . S
H2408 C2421 0.929 . S
H2409 C2419 0.929 . S
H2410 C2414 0.929 . S
H2411 C2420 0.929 . S
C2412 H2406 0.930 . S
C2412 C2413 1.367 . S
C2412 C2420 1.378 . S
C2413 C2412 1.367 . S
C2413 C2421 1.433 . S
C2414 H2410 0.929 . S
C2414 C2416 1.378 . S
C2414 C2418 1.350 . S
C2415 C2418 1.463 . S
C2415 C2420 1.350 . S
C2415 N2423 1.427 . S
C2416 H2407 0.930 . S
C2416 C2414 1.378 . S
C2416 C2417 1.367 . S
C2417 C2416 1.367 . S
C2417 C2419 1.433 . S
C2418 C2414 1.350 . S
C2418 C2415 1.463 . S
C2418 N2422 1.427 . S
C2419 H2409 0.929 . S
C2419 C2417 1.433 . S
C2419 N2422 1.384 . S
C2420 H2411 0.929 . S
C2420 C2412 1.378 . S
C2420 C2415 1.350 . S
C2421 H2408 0.929 . S
C2421 C2413 1.433 . S
C2421 N2423 1.384 . S
N2422 C2418 1.427 . S
N2422 C2419 1.384 . S
N2423 C2415 1.427 . S
N2423 C2421 1.384 . S
H2424 C2430 0.930 . S
H2425 C2434 0.930 . S
H2426 C2439 0.929 . S
H2427 C2437 0.929 . S
H2428 C2432 0.929 . S
H2429 C2438 0.929 . S
C2430 H2424 0.930 . S
C2430 C2431 1.367 . S
C2430 C2438 1.378 . S
C2431 C2430 1.367 . S
C2431 C2439 1.433 . S
C2432 H2428 0.929 . S
C2432 C2434 1.378 . S
C2432 C2436 1.350 . S
C2433 C2436 1.463 . S
C2433 C2438 1.350 . S
C2433 N2441 1.427 . S
C2434 H2425 0.930 . S
C2434 C2432 1.378 . S
C2434 C2435 1.367 . S
C2435 C2434 1.367 . S
C2435 C2437 1.433 . S
C2436 C2432 1.350 . S
C2436 C2433 1.463 . S
C2436 N2440 1.427 . S
C2437 H2427 0.929 . S
C2437 C2435 1.433 . S
C2437 N2440 1.384 . S
C2438 H2429 0.929 . S
C2438 C2430 1.378 . S
C2438 C2433 1.350 . S
C2439 H2426 0.929 . S
C2439 C2431 1.433 . S
C2439 N2441 1.384 . S
N2440 C2436 1.427 . S
N2440 C2437 1.384 . S
N2441 C2433 1.427 . S
N2441 C2439 1.384 . S
H2442 C2448 0.930 . S
H2443 C2452 0.930 . S
H2444 C2457 0.929 . S
H2445 C2455 0.929 . S
H2446 C2450 0.929 . S
H2447 C2456 0.929 . S
C2448 H2442 0.930 . S
C2448 C2449 1.367 . S
C2448 C2456 1.378 . S
C2449 C2448 1.367 . S
C2449 C2457 1.433 . S
C2450 H2446 0.929 . S
C2450 C2452 1.378 . S
C2450 C2454 1.350 . S
C2451 C2454 1.463 . S
C2451 C2456 1.350 . S
C2451 N2459 1.427 . S
C2452 H2443 0.930 . S
C2452 C2450 1.378 . S
C2452 C2453 1.367 . S
C2453 C2452 1.367 . S
C2453 C2455 1.433 . S
C2454 C2450 1.350 . S
C2454 C2451 1.463 . S
C2454 N2458 1.427 . S
C2455 H2445 0.929 . S
C2455 C2453 1.433 . S
C2455 N2458 1.384 . S
C2456 H2447 0.929 . S
C2456 C2448 1.378 . S
C2456 C2451 1.350 . S
C2457 H2444 0.929 . S
C2457 C2449 1.433 . S
C2457 N2459 1.384 . S
N2458 C2454 1.427 . S
N2458 C2455 1.384 . S
N2459 C2451 1.427 . S
N2459 C2457 1.384 . S
H2460 C2466 0.930 . S
H2461 C2470 0.930 . S
H2462 C2475 0.929 . S
H2463 C2473 0.929 . S
H2464 C2468 0.929 . S
H2465 C2474 0.929 . S
C2466 H2460 0.930 . S
C2466 C2467 1.367 . S
C2466 C2474 1.378 . S
C2467 C2466 1.367 . S
C2467 C2475 1.433 . S
C2468 H2464 0.929 . S
C2468 C2470 1.378 . S
C2468 C2472 1.350 . S
C2469 C2472 1.463 . S
C2469 C2474 1.350 . S
C2469 N2477 1.427 . S
C2470 H2461 0.930 . S
C2470 C2468 1.378 . S
C2470 C2471 1.367 . S
C2471 C2470 1.367 . S
C2471 C2473 1.433 . S
C2472 C2468 1.350 . S
C2472 C2469 1.463 . S
C2472 N2476 1.427 . S
C2473 H2463 0.929 . S
C2473 C2471 1.433 . S
C2473 N2476 1.384 . S
C2474 H2465 0.929 . S
C2474 C2466 1.378 . S
C2474 C2469 1.350 . S
C2475 H2462 0.929 . S
C2475 C2467 1.433 . S
C2475 N2477 1.384 . S
N2476 C2472 1.427 . S
N2476 C2473 1.384 . S
N2477 C2469 1.427 . S
N2477 C2475 1.384 . S
H2478 C2484 0.930 . S
H2479 C2488 0.930 . S
H2480 C2493 0.929 . S
H2481 C2491 0.929 . S
H2482 C2486 0.929 . S
H2483 C2492 0.929 . S
C2484 H2478 0.930 . S
C2484 C2485 1.367 . S
C2484 C2492 1.378 . S
C2485 C2484 1.367 . S
C2485 C2493 1.433 . S
C2486 H2482 0.929 . S
C2486 C2488 1.378 . S
C2486 C2490 1.350 . S
C2487 C2490 1.463 . S
C2487 C2492 1.350 . S
C2487 N2495 1.427 . S
C2488 H2479 0.930 . S
C2488 C2486 1.378 . S
C2488 C2489 1.367 . S
C2489 C2488 1.367 . S
C2489 C2491 1.433 . S
C2490 C2486 1.350 . S
C2490 C2487 1.463 . S
C2490 N2494 1.427 . S
C2491 H2481 0.929 . S
C2491 C2489 1.433 . S
C2491 N2494 1.384 . S
C2492 H2483 0.929 . S
C2492 C2484 1.378 . S
C2492 C2487 1.350 . S
C2493 H2480 0.929 . S
C2493 C2485 1.433 . S
C2493 N2495 1.384 . S
N2494 C2490 1.427 . S
N2494 C2491 1.384 . S
N2495 C2487 1.427 . S
N2495 C2493 1.384 . S
H2496 C2502 0.930 . S
H2497 C2506 0.930 . S
H2498 C2511 0.929 . S
H2499 C2509 0.929 . S
H2500 C2504 0.929 . S
H2501 C2510 0.929 . S
C2502 H2496 0.930 . S
C2502 C2503 1.367 . S
C2502 C2510 1.378 . S
C2503 C2502 1.367 . S
C2503 C2511 1.433 . S
C2504 H2500 0.929 . S
C2504 C2506 1.378 . S
C2504 C2508 1.350 . S
C2505 C2508 1.463 . S
C2505 C2510 1.350 . S
C2505 N2513 1.427 . S
C2506 H2497 0.930 . S
C2506 C2504 1.378 . S
C2506 C2507 1.367 . S
C2507 C2506 1.367 . S
C2507 C2509 1.433 . S
C2508 C2504 1.350 . S
C2508 C2505 1.463 . S
C2508 N2512 1.427 . S
C2509 H2499 0.929 . S
C2509 C2507 1.433 . S
C2509 N2512 1.384 . S
C2510 H2501 0.929 . S
C2510 C2502 1.378 . S
C2510 C2505 1.350 . S
C2511 H2498 0.929 . S
C2511 C2503 1.433 . S
C2511 N2513 1.384 . S
N2512 C2508 1.427 . S
N2512 C2509 1.384 . S
N2513 C2505 1.427 . S
N2513 C2511 1.384 . S
H2514 C2520 0.930 . S
H2515 C2524 0.930 . S
H2516 C2529 0.929 . S
H2517 C2527 0.929 . S
H2518 C2522 0.929 . S
H2519 C2528 0.929 . S
C2520 H2514 0.930 . S
C2520 C2521 1.367 . S
C2520 C2528 1.378 . S
C2521 C2520 1.367 . S
C2521 C2529 1.433 . S
C2522 H2518 0.929 . S
C2522 C2524 1.378 . S
C2522 C2526 1.350 . S
C2523 C2526 1.463 . S
C2523 C2528 1.350 . S
C2523 N2531 1.427 . S
C2524 H2515 0.930 . S
C2524 C2522 1.378 . S
C2524 C2525 1.367 . S
C2525 C2524 1.367 . S
C2525 C2527 1.433 . S
C2526 C2522 1.350 . S
C2526 C2523 1.463 . S
C2526 N2530 1.427 . S
C2527 H2517 0.929 . S
C2527 C2525 1.433 . S
C2527 N2530 1.384 . S
C2528 H2519 0.929 . S
C2528 C2520 1.378 . S
C2528 C2523 1.350 . S
C2529 H2516 0.929 . S
C2529 C2521 1.433 . S
C2529 N2531 1.384 . S
N2530 C2526 1.427 . S
N2530 C2527 1.384 . S
N2531 C2523 1.427 . S
N2531 C2529 1.384 . S
H2532 C2538 0.930 . S
H2533 C2542 0.930 . S
H2534 C2547 0.929 . S
H2535 C2545 0.929 . S
H2536 C2540 0.929 . S
H2537 C2546 0.929 . S
C2538 H2532 0.930 . S
C2538 C2539 1.367 . S
C2538 C2546 1.378 . S
C2539 C2538 1.367 . S
C2539 C2547 1.433 . S
C2540 H2536 0.929 . S
C2540 C2542 1.378 . S
C2540 C2544 1.350 . S
C2541 C2544 1.463 . S
C2541 C2546 1.350 . S
C2541 N2549 1.427 . S
C2542 H2533 0.930 . S
C2542 C2540 1.378 . S
C2542 C2543 1.367 . S
C2543 C2542 1.367 . S
C2543 C2545 1.433 . S
C2544 C2540 1.350 . S
C2544 C2541 1.463 . S
C2544 N2548 1.427 . S
C2545 H2535 0.929 . S
C2545 C2543 1.433 . S
C2545 N2548 1.384 . S
C2546 H2537 0.929 . S
C2546 C2538 1.378 . S
C2546 C2541 1.350 . S
C2547 H2534 0.929 . S
C2547 C2539 1.433 . S
C2547 N2549 1.384 . S
N2548 C2544 1.427 . S
N2548 C2545 1.384 . S
N2549 C2541 1.427 . S
N2549 C2547 1.384 . S
H2550 C2556 0.930 . S
H2551 C2560 0.930 . S
H2552 C2565 0.929 . S
H2553 C2563 0.929 . S
H2554 C2558 0.929 . S
H2555 C2564 0.929 . S
C2556 H2550 0.930 . S
C2556 C2557 1.367 . S
C2556 C2564 1.378 . S
C2557 C2556 1.367 . S
C2557 C2565 1.433 . S
C2558 H2554 0.929 . S
C2558 C2560 1.378 . S
C2558 C2562 1.350 . S
C2559 C2562 1.463 . S
C2559 C2564 1.350 . S
C2559 N2567 1.427 . S
C2560 H2551 0.930 . S
C2560 C2558 1.378 . S
C2560 C2561 1.367 . S
C2561 C2560 1.367 . S
C2561 C2563 1.433 . S
C2562 C2558 1.350 . S
C2562 C2559 1.463 . S
C2562 N2566 1.427 . S
C2563 H2553 0.929 . S
C2563 C2561 1.433 . S
C2563 N2566 1.384 . S
C2564 H2555 0.929 . S
C2564 C2556 1.378 . S
C2564 C2559 1.350 . S
C2565 H2552 0.929 . S
C2565 C2557 1.433 . S
C2565 N2567 1.384 . S
N2566 C2562 1.427 . S
N2566 C2563 1.384 . S
N2567 C2559 1.427 . S
N2567 C2565 1.384 . S
H2568 C2574 0.930 . S
H2569 C2578 0.930 . S
H2570 C2583 0.929 . S
H2571 C2581 0.929 . S
H2572 C2576 0.929 . S
H2573 C2582 0.929 . S
C2574 H2568 0.930 . S
C2574 C2575 1.367 . S
C2574 C2582 1.378 . S
C2575 C2574 1.367 . S
C2575 C2583 1.433 . S
C2576 H2572 0.929 . S
C2576 C2578 1.378 . S
C2576 C2580 1.350 . S
C2577 C2580 1.463 . S
C2577 C2582 1.350 . S
C2577 N2585 1.427 . S
C2578 H2569 0.930 . S
C2578 C2576 1.378 . S
C2578 C2579 1.367 . S
C2579 C2578 1.367 . S
C2579 C2581 1.433 . S
C2580 C2576 1.350 . S
C2580 C2577 1.463 . S
C2580 N2584 1.427 . S
C2581 H2571 0.929 . S
C2581 C2579 1.433 . S
C2581 N2584 1.384 . S
C2582 H2573 0.929 . S
C2582 C2574 1.378 . S
C2582 C2577 1.350 . S
C2583 H2570 0.929 . S
C2583 C2575 1.433 . S
C2583 N2585 1.384 . S
N2584 C2580 1.427 . S
N2584 C2581 1.384 . S
N2585 C2577 1.427 . S
N2585 C2583 1.384 . S
H2586 C2592 0.930 . S
H2587 C2596 0.930 . S
H2588 C2601 0.929 . S
H2589 C2599 0.929 . S
H2590 C2594 0.929 . S
H2591 C2600 0.929 . S
C2592 H2586 0.930 . S
C2592 C2593 1.367 . S
C2592 C2600 1.378 . S
C2593 C2592 1.367 . S
C2593 C2601 1.433 . S
C2594 H2590 0.929 . S
C2594 C2596 1.378 . S
C2594 C2598 1.350 . S
C2595 C2598 1.463 . S
C2595 C2600 1.350 . S
C2595 N2603 1.427 . S
C2596 H2587 0.930 . S
C2596 C2594 1.378 . S
C2596 C2597 1.367 . S
C2597 C2596 1.367 . S
C2597 C2599 1.433 . S
C2598 C2594 1.350 . S
C2598 C2595 1.463 . S
C2598 N2602 1.427 . S
C2599 H2589 0.929 . S
C2599 C2597 1.433 . S
C2599 N2602 1.384 . S
C2600 H2591 0.929 . S
C2600 C2592 1.378 . S
C2600 C2595 1.350 . S
C2601 H2588 0.929 . S
C2601 C2593 1.433 . S
C2601 N2603 1.384 . S
N2602 C2598 1.427 . S
N2602 C2599 1.384 . S
N2603 C2595 1.427 . S
N2603 C2601 1.384 . S
H2604 C2610 0.930 . S
H2605 C2614 0.930 . S
H2606 C2619 0.929 . S
H2607 C2617 0.929 . S
H2608 C2612 0.929 . S
H2609 C2618 0.929 . S
C2610 H2604 0.930 . S
C2610 C2611 1.367 . S
C2610 C2618 1.378 . S
C2611 C2610 1.367 . S
C2611 C2619 1.433 . S
C2612 H2608 0.929 . S
C2612 C2614 1.378 . S
C2612 C2616 1.350 . S
C2613 C2616 1.463 . S
C2613 C2618 1.350 . S
C2613 N2621 1.427 . S
C2614 H2605 0.930 . S
C2614 C2612 1.378 . S
C2614 C2615 1.367 . S
C2615 C2614 1.367 . S
C2615 C2617 1.433 . S
C2616 C2612 1.350 . S
C2616 C2613 1.463 . S
C2616 N2620 1.427 . S
C2617 H2607 0.929 . S
C2617 C2615 1.433 . S
C2617 N2620 1.384 . S
C2618 H2609 0.929 . S
C2618 C2610 1.378 . S
C2618 C2613 1.350 . S
C2619 H2606 0.929 . S
C2619 C2611 1.433 . S
C2619 N2621 1.384 . S
N2620 C2616 1.427 . S
N2620 C2617 1.384 . S
N2621 C2613 1.427 . S
N2621 C2619 1.384 . S
H2622 C2628 0.930 . S
H2623 C2632 0.930 . S
H2624 C2637 0.929 . S
H2625 C2635 0.929 . S
H2626 C2630 0.929 . S
H2627 C2636 0.929 . S
C2628 H2622 0.930 . S
C2628 C2629 1.367 . S
C2628 C2636 1.378 . S
C2629 C2628 1.367 . S
C2629 C2637 1.433 . S
C2630 H2626 0.929 . S
C2630 C2632 1.378 . S
C2630 C2634 1.350 . S
C2631 C2634 1.463 . S
C2631 C2636 1.350 . S
C2631 N2639 1.427 . S
C2632 H2623 0.930 . S
C2632 C2630 1.378 . S
C2632 C2633 1.367 . S
C2633 C2632 1.367 . S
C2633 C2635 1.433 . S
C2634 C2630 1.350 . S
C2634 C2631 1.463 . S
C2634 N2638 1.427 . S
C2635 H2625 0.929 . S
C2635 C2633 1.433 . S
C2635 N2638 1.384 . S
C2636 H2627 0.929 . S
C2636 C2628 1.378 . S
C2636 C2631 1.350 . S
C2637 H2624 0.929 . S
C2637 C2629 1.433 . S
C2637 N2639 1.384 . S
N2638 C2634 1.427 . S
N2638 C2635 1.384 . S
N2639 C2631 1.427 . S
N2639 C2637 1.384 . S
H2640 C2646 0.930 . S
H2641 C2650 0.930 . S
H2642 C2655 0.929 . S
H2643 C2653 0.929 . S
H2644 C2648 0.929 . S
H2645 C2654 0.929 . S
C2646 H2640 0.930 . S
C2646 C2647 1.367 . S
C2646 C2654 1.378 . S
C2647 C2646 1.367 . S
C2647 C2655 1.433 . S
C2648 H2644 0.929 . S
C2648 C2650 1.378 . S
C2648 C2652 1.350 . S
C2649 C2652 1.463 . S
C2649 C2654 1.350 . S
C2649 N2657 1.427 . S
C2650 H2641 0.930 . S
C2650 C2648 1.378 . S
C2650 C2651 1.367 . S
C2651 C2650 1.367 . S
C2651 C2653 1.433 . S
C2652 C2648 1.350 . S
C2652 C2649 1.463 . S
C2652 N2656 1.427 . S
C2653 H2643 0.929 . S
C2653 C2651 1.433 . S
C2653 N2656 1.384 . S
C2654 H2645 0.929 . S
C2654 C2646 1.378 . S
C2654 C2649 1.350 . S
C2655 H2642 0.929 . S
C2655 C2647 1.433 . S
C2655 N2657 1.384 . S
N2656 C2652 1.427 . S
N2656 C2653 1.384 . S
N2657 C2649 1.427 . S
N2657 C2655 1.384 . S
H2658 C2664 0.930 . S
H2659 C2668 0.930 . S
H2660 C2673 0.929 . S
H2661 C2671 0.929 . S
H2662 C2666 0.929 . S
H2663 C2672 0.929 . S
C2664 H2658 0.930 . S
C2664 C2665 1.367 . S
C2664 C2672 1.378 . S
C2665 C2664 1.367 . S
C2665 C2673 1.433 . S
C2666 H2662 0.929 . S
C2666 C2668 1.378 . S
C2666 C2670 1.350 . S
C2667 C2670 1.463 . S
C2667 C2672 1.350 . S
C2667 N2675 1.427 . S
C2668 H2659 0.930 . S
C2668 C2666 1.378 . S
C2668 C2669 1.367 . S
C2669 C2668 1.367 . S
C2669 C2671 1.433 . S
C2670 C2666 1.350 . S
C2670 C2667 1.463 . S
C2670 N2674 1.427 . S
C2671 H2661 0.929 . S
C2671 C2669 1.433 . S
C2671 N2674 1.384 . S
C2672 H2663 0.929 . S
C2672 C2664 1.378 . S
C2672 C2667 1.350 . S
C2673 H2660 0.929 . S
C2673 C2665 1.433 . S
C2673 N2675 1.384 . S
N2674 C2670 1.427 . S
N2674 C2671 1.384 . S
N2675 C2667 1.427 . S
N2675 C2673 1.384 . S
H2676 C2682 0.930 . S
H2677 C2686 0.930 . S
H2678 C2691 0.929 . S
H2679 C2689 0.929 . S
H2680 C2684 0.929 . S
H2681 C2690 0.929 . S
C2682 H2676 0.930 . S
C2682 C2683 1.367 . S
C2682 C2690 1.378 . S
C2683 C2682 1.367 . S
C2683 C2691 1.433 . S
C2684 H2680 0.929 . S
C2684 C2686 1.378 . S
C2684 C2688 1.350 . S
C2685 C2688 1.463 . S
C2685 C2690 1.350 . S
C2685 N2693 1.427 . S
C2686 H2677 0.930 . S
C2686 C2684 1.378 . S
C2686 C2687 1.367 . S
C2687 C2686 1.367 . S
C2687 C2689 1.433 . S
C2688 C2684 1.350 . S
C2688 C2685 1.463 . S
C2688 N2692 1.427 . S
C2689 H2679 0.929 . S
C2689 C2687 1.433 . S
C2689 N2692 1.384 . S
C2690 H2681 0.929 . S
C2690 C2682 1.378 . S
C2690 C2685 1.350 . S
C2691 H2678 0.929 . S
C2691 C2683 1.433 . S
C2691 N2693 1.384 . S
N2692 C2688 1.427 . S
N2692 C2689 1.384 . S
N2693 C2685 1.427 . S
N2693 C2691 1.384 . S
H2694 C2700 0.930 . S
H2695 C2704 0.930 . S
H2696 C2709 0.929 . S
H2697 C2707 0.929 . S
H2698 C2702 0.929 . S
H2699 C2708 0.929 . S
C2700 H2694 0.930 . S
C2700 C2701 1.367 . S
C2700 C2708 1.378 . S
C2701 C2700 1.367 . S
C2701 C2709 1.433 . S
C2702 H2698 0.929 . S
C2702 C2704 1.378 . S
C2702 C2706 1.350 . S
C2703 C2706 1.463 . S
C2703 C2708 1.350 . S
C2703 N2711 1.427 . S
C2704 H2695 0.930 . S
C2704 C2702 1.378 . S
C2704 C2705 1.367 . S
C2705 C2704 1.367 . S
C2705 C2707 1.433 . S
C2706 C2702 1.350 . S
C2706 C2703 1.463 . S
C2706 N2710 1.427 . S
C2707 H2697 0.929 . S
C2707 C2705 1.433 . S
C2707 N2710 1.384 . S
C2708 H2699 0.929 . S
C2708 C2700 1.378 . S
C2708 C2703 1.350 . S
C2709 H2696 0.929 . S
C2709 C2701 1.433 . S
C2709 N2711 1.384 . S
N2710 C2706 1.427 . S
N2710 C2707 1.384 . S
N2711 C2703 1.427 . S
N2711 C2709 1.384 . S
H2712 C2718 0.930 . S
H2713 C2722 0.930 . S
H2714 C2727 0.929 . S
H2715 C2725 0.929 . S
H2716 C2720 0.929 . S
H2717 C2726 0.929 . S
C2718 H2712 0.930 . S
C2718 C2719 1.367 . S
C2718 C2726 1.378 . S
C2719 C2718 1.367 . S
C2719 C2727 1.433 . S
C2720 H2716 0.929 . S
C2720 C2722 1.378 . S
C2720 C2724 1.350 . S
C2721 C2724 1.463 . S
C2721 C2726 1.350 . S
C2721 N2729 1.427 . S
C2722 H2713 0.930 . S
C2722 C2720 1.378 . S
C2722 C2723 1.367 . S
C2723 C2722 1.367 . S
C2723 C2725 1.433 . S
C2724 C2720 1.350 . S
C2724 C2721 1.463 . S
C2724 N2728 1.427 . S
C2725 H2715 0.929 . S
C2725 C2723 1.433 . S
C2725 N2728 1.384 . S
C2726 H2717 0.929 . S
C2726 C2718 1.378 . S
C2726 C2721 1.350 . S
C2727 H2714 0.929 . S
C2727 C2719 1.433 . S
C2727 N2729 1.384 . S
N2728 C2724 1.427 . S
N2728 C2725 1.384 . S
N2729 C2721 1.427 . S
N2729 C2727 1.384 . S
H2730 C2736 0.930 . S
H2731 C2740 0.930 . S
H2732 C2745 0.929 . S
H2733 C2743 0.929 . S
H2734 C2738 0.929 . S
H2735 C2744 0.929 . S
C2736 H2730 0.930 . S
C2736 C2737 1.367 . S
C2736 C2744 1.378 . S
C2737 C2736 1.367 . S
C2737 C2745 1.433 . S
C2738 H2734 0.929 . S
C2738 C2740 1.378 . S
C2738 C2742 1.350 . S
C2739 C2742 1.463 . S
C2739 C2744 1.350 . S
C2739 N2747 1.427 . S
C2740 H2731 0.930 . S
C2740 C2738 1.378 . S
C2740 C2741 1.367 . S
C2741 C2740 1.367 . S
C2741 C2743 1.433 . S
C2742 C2738 1.350 . S
C2742 C2739 1.463 . S
C2742 N2746 1.427 . S
C2743 H2733 0.929 . S
C2743 C2741 1.433 . S
C2743 N2746 1.384 . S
C2744 H2735 0.929 . S
C2744 C2736 1.378 . S
C2744 C2739 1.350 . S
C2745 H2732 0.929 . S
C2745 C2737 1.433 . S
C2745 N2747 1.384 . S
N2746 C2742 1.427 . S
N2746 C2743 1.384 . S
N2747 C2739 1.427 . S
N2747 C2745 1.384 . S
H2748 C2754 0.930 . S
H2749 C2758 0.930 . S
H2750 C2763 0.929 . S
H2751 C2761 0.929 . S
H2752 C2756 0.929 . S
H2753 C2762 0.929 . S
C2754 H2748 0.930 . S
C2754 C2755 1.367 . S
C2754 C2762 1.378 . S
C2755 C2754 1.367 . S
C2755 C2763 1.433 . S
C2756 H2752 0.929 . S
C2756 C2758 1.378 . S
C2756 C2760 1.350 . S
C2757 C2760 1.463 . S
C2757 C2762 1.350 . S
C2757 N2765 1.427 . S
C2758 H2749 0.930 . S
C2758 C2756 1.378 . S
C2758 C2759 1.367 . S
C2759 C2758 1.367 . S
C2759 C2761 1.433 . S
C2760 C2756 1.350 . S
C2760 C2757 1.463 . S
C2760 N2764 1.427 . S
C2761 H2751 0.929 . S
C2761 C2759 1.433 . S
C2761 N2764 1.384 . S
C2762 H2753 0.929 . S
C2762 C2754 1.378 . S
C2762 C2757 1.350 . S
C2763 H2750 0.929 . S
C2763 C2755 1.433 . S
C2763 N2765 1.384 . S
N2764 C2760 1.427 . S
N2764 C2761 1.384 . S
N2765 C2757 1.427 . S
N2765 C2763 1.384 . S
H2766 C2772 0.930 . S
H2767 C2776 0.930 . S
H2768 C2781 0.929 . S
H2769 C2779 0.929 . S
H2770 C2774 0.929 . S
H2771 C2780 0.929 . S
C2772 H2766 0.930 . S
C2772 C2773 1.367 . S
C2772 C2780 1.378 . S
C2773 C2772 1.367 . S
C2773 C2781 1.433 . S
C2774 H2770 0.929 . S
C2774 C2776 1.378 . S
C2774 C2778 1.350 . S
C2775 C2778 1.463 . S
C2775 C2780 1.350 . S
C2775 N2783 1.427 . S
C2776 H2767 0.930 . S
C2776 C2774 1.378 . S
C2776 C2777 1.367 . S
C2777 C2776 1.367 . S
C2777 C2779 1.433 . S
C2778 C2774 1.350 . S
C2778 C2775 1.463 . S
C2778 N2782 1.427 . S
C2779 H2769 0.929 . S
C2779 C2777 1.433 . S
C2779 N2782 1.384 . S
C2780 H2771 0.929 . S
C2780 C2772 1.378 . S
C2780 C2775 1.350 . S
C2781 H2768 0.929 . S
C2781 C2773 1.433 . S
C2781 N2783 1.384 . S
N2782 C2778 1.427 . S
N2782 C2779 1.384 . S
N2783 C2775 1.427 . S
N2783 C2781 1.384 . S
H2784 C2790 0.930 . S
H2785 C2794 0.930 . S
H2786 C2799 0.914 1_455 S
H2787 C2797 0.929 . S
H2788 C2792 0.929 . S
H2789 C2798 0.929 . S
C2790 H2784 0.930 . S
C2790 C2791 1.367 . S
C2790 C2798 1.378 . S
C2791 C2790 1.367 . S
C2791 C2799 1.433 . S
C2792 H2788 0.929 . S
C2792 C2794 1.378 . S
C2792 C2796 1.350 . S
C2793 C2796 1.463 1_655 S
C2793 C2798 1.350 . S
C2793 N2801 1.427 1_655 S
C2794 H2785 0.930 . S
C2794 C2792 1.378 . S
C2794 C2795 1.367 . S
C2795 C2794 1.367 . S
C2795 C2797 1.433 . S
C2796 C2792 1.350 . S
C2796 C2793 1.463 1_455 S
C2796 N2800 1.416 1_455 S
C2797 H2787 0.929 . S
C2797 C2795 1.433 . S
C2797 N2800 1.370 1_455 S
C2798 H2789 0.929 . S
C2798 C2790 1.378 . S
C2798 C2793 1.350 . S
C2799 H2786 0.914 1_655 S
C2799 C2791 1.433 . S
C2799 N2801 1.384 1_655 S
N2800 C2796 1.416 1_655 S
N2800 C2797 1.370 1_655 S
N2801 C2793 1.427 1_455 S
N2801 C2799 1.384 1_455 S
H2802 C2808 0.930 . S
H2803 C2812 0.930 . S
H2804 C2817 0.929 . S
H2805 C2815 0.929 . S
H2806 C2810 0.898 1_455 S
H2807 C2816 0.911 1_655 S
C2808 H2802 0.930 . S
C2808 C2809 1.367 . S
C2808 C2816 1.378 . S
C2809 C2808 1.367 . S
C2809 C2817 1.433 . S
C2810 H2806 0.898 1_655 S
C2810 C2812 1.410 . S
C2810 C2814 1.355 . S
C2811 C2814 1.463 1_455 S
C2811 C2816 1.350 . S
C2811 N2819 1.427 . S
C2812 H2803 0.930 . S
C2812 C2810 1.410 . S
C2812 C2813 1.367 . S
C2813 C2812 1.367 . S
C2813 C2815 1.433 . S
C2814 C2810 1.355 . S
C2814 C2811 1.463 1_655 S
C2814 N2818 1.427 . S
C2815 H2805 0.929 . S
C2815 C2813 1.433 . S
C2815 N2818 1.384 . S
C2816 H2807 0.911 1_455 S
C2816 C2808 1.378 . S
C2816 C2811 1.350 . S
C2817 H2804 0.929 . S
C2817 C2809 1.433 . S
C2817 N2819 1.384 . S
N2818 C2814 1.427 . S
N2818 C2815 1.384 . S
N2819 C2811 1.427 . S
N2819 C2817 1.384 . S
H2820 C2826 0.930 1_565 S
H2821 C2830 0.930 1_545 S
H2822 C2835 0.929 . S
H2823 C2833 0.929 . S
H2824 C2828 0.929 . S
H2825 C2834 0.929 . S
C2826 H2820 0.930 1_545 S
C2826 C2827 1.367 . S
C2826 C2834 1.378 1_545 S
C2827 C2826 1.367 . S
C2827 C2835 1.433 . S
C2828 H2824 0.929 . S
C2828 C2830 1.378 1_545 S
C2828 C2832 1.350 1_545 S
C2829 C2832 1.463 1_545 S
C2829 C2834 1.350 1_545 S
C2829 N2837 1.427 . S
C2830 H2821 0.930 1_565 S
C2830 C2828 1.378 1_565 S
C2830 C2831 1.367 . S
C2831 C2830 1.367 . S
C2831 C2833 1.433 . S
C2832 C2828 1.350 1_565 S
C2832 C2829 1.463 1_565 S
C2832 N2836 1.427 . S
C2833 H2823 0.929 . S
C2833 C2831 1.433 . S
C2833 N2836 1.384 . S
C2834 H2825 0.929 . S
C2834 C2826 1.378 1_565 S
C2834 C2829 1.350 1_565 S
C2835 H2822 0.929 . S
C2835 C2827 1.433 . S
C2835 N2837 1.384 . S
N2836 C2832 1.427 . S
N2836 C2833 1.384 . S
N2837 C2829 1.427 . S
N2837 C2835 1.384 . S
H2838 C2844 0.930 . S
H2839 C2848 0.930 . S
H2840 C2853 0.929 . S
H2841 C2851 0.929 . S
H2842 C2846 0.929 . S
H2843 C2852 0.929 . S
C2844 H2838 0.930 . S
C2844 C2845 1.367 . S
C2844 C2852 1.378 . S
C2845 C2844 1.367 . S
C2845 C2853 1.433 . S
C2846 H2842 0.929 . S
C2846 C2848 1.378 . S
C2846 C2850 1.350 . S
C2847 C2850 1.463 . S
C2847 C2852 1.350 . S
C2847 N2855 1.427 . S
C2848 H2839 0.930 . S
C2848 C2846 1.378 . S
C2848 C2849 1.367 . S
C2849 C2848 1.367 . S
C2849 C2851 1.433 . S
C2850 C2846 1.350 . S
C2850 C2847 1.463 . S
C2850 N2854 1.427 . S
C2851 H2841 0.929 . S
C2851 C2849 1.433 . S
C2851 N2854 1.384 . S
C2852 H2843 0.929 . S
C2852 C2844 1.378 . S
C2852 C2847 1.350 . S
C2853 H2840 0.929 . S
C2853 C2845 1.433 . S
C2853 N2855 1.384 . S
N2854 C2850 1.427 . S
N2854 C2851 1.384 . S
N2855 C2847 1.427 . S
N2855 C2853 1.384 . S
H2856 C2862 0.930 . S
H2857 C2866 0.930 . S
H2858 C2871 0.929 . S
H2859 C2869 0.929 1_556 S
H2860 C2864 0.929 . S
H2861 C2870 0.929 . S
C2862 H2856 0.930 . S
C2862 C2863 1.367 . S
C2862 C2870 1.378 . S
C2863 C2862 1.367 . S
C2863 C2871 1.433 1_556 S
C2864 H2860 0.929 . S
C2864 C2866 1.378 . S
C2864 C2868 1.350 . S
C2865 C2868 1.463 1_556 S
C2865 C2870 1.350 . S
C2865 N2873 1.427 1_556 S
C2866 H2857 0.930 . S
C2866 C2864 1.378 . S
C2866 C2867 1.367 . S
C2867 C2866 1.367 . S
C2867 C2869 1.433 . S
C2868 C2864 1.350 . S
C2868 C2865 1.463 1_554 S
C2868 N2872 1.427 1_554 S
C2869 H2859 0.929 1_554 S
C2869 C2867 1.433 . S
C2869 N2872 1.384 1_554 S
C2870 H2861 0.929 . S
C2870 C2862 1.378 . S
C2870 C2865 1.350 . S
C2871 H2858 0.929 . S
C2871 C2863 1.433 1_554 S
C2871 N2873 1.384 . S
N2872 C2868 1.427 1_556 S
N2872 C2869 1.384 1_556 S
N2873 C2865 1.427 1_554 S
N2873 C2871 1.384 . S
H2874 C2880 0.930 . S
H2875 C2884 0.930 . S
H2876 C2889 0.929 . S
H2877 C2887 0.929 . S
H2878 C2882 0.929 . S
H2879 C2888 0.929 . S
C2880 H2874 0.930 . S
C2880 C2881 1.367 . S
C2880 C2888 1.378 . S
C2881 C2880 1.367 . S
C2881 C2889 1.433 . S
C2882 H2878 0.929 . S
C2882 C2884 1.378 . S
C2882 C2886 1.350 . S
C2883 C2886 1.463 . S
C2883 C2888 1.350 . S
C2883 N2891 1.427 . S
C2884 H2875 0.930 . S
C2884 C2882 1.378 . S
C2884 C2885 1.367 . S
C2885 C2884 1.367 . S
C2885 C2887 1.433 . S
C2886 C2882 1.350 . S
C2886 C2883 1.463 . S
C2886 N2890 1.427 . S
C2887 H2877 0.929 . S
C2887 C2885 1.433 . S
C2887 N2890 1.384 . S
C2888 H2879 0.929 . S
C2888 C2880 1.378 . S
C2888 C2883 1.350 . S
C2889 H2876 0.929 . S
C2889 C2881 1.433 . S
C2889 N2891 1.384 . S
N2890 C2886 1.427 . S
N2890 C2887 1.384 . S
N2891 C2883 1.427 . S
N2891 C2889 1.384 . S
H2892 C2898 0.930 . S
H2893 C2902 0.930 . S
H2894 C2907 0.929 . S
H2895 C2905 0.929 . S
H2896 C2900 0.929 . S
H2897 C2906 0.929 . S
C2898 H2892 0.930 . S
C2898 C2899 1.367 . S
C2898 C2906 1.378 . S
C2899 C2898 1.367 . S
C2899 C2907 1.433 . S
C2900 H2896 0.929 . S
C2900 C2902 1.378 . S
C2900 C2904 1.350 . S
C2901 C2904 1.463 . S
C2901 C2906 1.350 . S
C2901 N2909 1.427 . S
C2902 H2893 0.930 . S
C2902 C2900 1.378 . S
C2902 C2903 1.367 . S
C2903 C2902 1.367 . S
C2903 C2905 1.433 . S
C2904 C2900 1.350 . S
C2904 C2901 1.463 . S
C2904 N2908 1.427 . S
C2905 H2895 0.929 . S
C2905 C2903 1.433 . S
C2905 N2908 1.384 . S
C2906 H2897 0.929 . S
C2906 C2898 1.378 . S
C2906 C2901 1.350 . S
C2907 H2894 0.929 . S
C2907 C2899 1.433 . S
C2907 N2909 1.384 . S
N2908 C2904 1.427 . S
N2908 C2905 1.384 . S
N2909 C2901 1.427 . S
N2909 C2907 1.384 . S
H2910 C2916 0.901 1_455 S
H2911 C2920 0.915 1_655 S
H2912 C2925 0.929 . S
H2913 C2923 0.929 . S
H2914 C2918 0.929 . S
H2915 C2924 0.929 . S
C2916 H2910 0.901 1_655 S
C2916 C2917 1.428 . S
C2916 C2924 1.350 1_655 S
C2917 C2916 1.428 . S
C2917 C2925 1.433 . S
C2918 H2914 0.929 . S
C2918 C2920 1.378 1_655 S
C2918 C2922 1.350 1_655 S
C2919 C2922 1.463 1_655 S
C2919 C2924 1.350 1_655 S
C2919 N2927 1.427 . S
C2920 H2911 0.915 1_455 S
C2920 C2918 1.378 1_455 S
C2920 C2921 1.367 . S
C2921 C2920 1.367 . S
C2921 C2923 1.433 . S
C2922 C2918 1.350 1_455 S
C2922 C2919 1.463 1_455 S
C2922 N2926 1.427 . S
C2923 H2913 0.929 . S
C2923 C2921 1.433 . S
C2923 N2926 1.384 . S
C2924 H2915 0.929 . S
C2924 C2916 1.350 1_455 S
C2924 C2919 1.350 1_455 S
C2925 H2912 0.929 . S
C2925 C2917 1.433 . S
C2925 N2927 1.384 . S
N2926 C2922 1.427 . S
N2926 C2923 1.384 . S
N2927 C2919 1.427 . S
N2927 C2925 1.384 . S
H2928 C2934 0.930 . S
H2929 C2938 0.930 . S
H2930 C2943 0.948 . S
H2931 C2941 0.929 1_655 S
H2932 C2936 0.929 . S
H2933 C2942 0.929 . S
C2934 H2928 0.930 . S
C2934 C2935 1.367 . S
C2934 C2942 1.378 . S
C2935 C2934 1.367 . S
C2935 C2943 1.399 1_655 S
C2936 H2932 0.929 . S
C2936 C2938 1.378 . S
C2936 C2940 1.350 . S
C2937 C2940 1.463 1_655 S
C2937 C2942 1.350 . S
C2937 N2945 1.427 1_655 S
C2938 H2929 0.930 . S
C2938 C2936 1.378 . S
C2938 C2939 1.367 . S
C2939 C2938 1.367 . S
C2939 C2941 1.433 . S
C2940 C2936 1.350 . S
C2940 C2937 1.463 1_455 S
C2940 N2944 1.427 1_455 S
C2941 H2931 0.929 1_455 S
C2941 C2939 1.433 . S
C2941 N2944 1.384 1_455 S
C2942 H2933 0.929 . S
C2942 C2934 1.378 . S
C2942 C2937 1.350 . S
C2943 H2930 0.948 . S
C2943 C2935 1.399 1_455 S
C2943 N2945 1.398 . S
N2944 C2940 1.427 1_655 S
N2944 C2941 1.384 1_655 S
N2945 C2937 1.427 1_455 S
N2945 C2943 1.398 . S
H2946 C2952 0.930 . S
H2947 C2956 0.930 . S
H2948 C2961 0.912 1_545 S
H2949 C2959 0.912 1_565 S
H2950 C2954 0.929 . S
H2951 C2960 0.929 . S
C2952 H2946 0.930 . S
C2952 C2953 1.367 . S
C2952 C2960 1.378 . S
C2953 C2952 1.367 . S
C2953 C2961 1.465 . S
C2954 H2950 0.929 . S
C2954 C2956 1.378 . S
C2954 C2958 1.350 . S
C2955 C2958 1.463 1_565 S
C2955 C2960 1.350 . S
C2955 N2963 1.427 1_565 S
C2956 H2947 0.930 . S
C2956 C2954 1.378 . S
C2956 C2957 1.367 . S
C2957 C2956 1.367 . S
C2957 C2959 1.465 . S
C2958 C2954 1.350 . S
C2958 C2955 1.463 1_545 S
C2958 N2962 1.427 1_545 S
C2959 H2949 0.912 1_545 S
C2959 C2957 1.465 . S
C2959 N2962 1.371 1_545 S
C2960 H2951 0.929 . S
C2960 C2952 1.378 . S
C2960 C2955 1.350 . S
C2961 H2948 0.912 1_565 S
C2961 C2953 1.465 . S
C2961 N2963 1.371 1_565 S
N2962 C2958 1.427 1_565 S
N2962 C2959 1.371 1_565 S
N2963 C2955 1.427 1_545 S
N2963 C2961 1.371 1_545 S
H2964 C2970 0.930 . S
H2965 C2974 0.930 . S
H2966 C2979 0.929 . S
H2967 C2977 0.929 . S
H2968 C2972 0.929 . S
H2969 C2978 0.929 . S
C2970 H2964 0.930 . S
C2970 C2971 1.367 . S
C2970 C2978 1.378 . S
C2971 C2970 1.367 . S
C2971 C2979 1.433 . S
C2972 H2968 0.929 . S
C2972 C2974 1.378 . S
C2972 C2976 1.350 . S
C2973 C2976 1.463 . S
C2973 C2978 1.350 . S
C2973 N2981 1.427 . S
C2974 H2965 0.930 . S
C2974 C2972 1.378 . S
C2974 C2975 1.367 . S
C2975 C2974 1.367 . S
C2975 C2977 1.433 . S
C2976 C2972 1.350 . S
C2976 C2973 1.463 . S
C2976 N2980 1.427 . S
C2977 H2967 0.929 . S
C2977 C2975 1.433 . S
C2977 N2980 1.384 . S
C2978 H2969 0.929 . S
C2978 C2970 1.378 . S
C2978 C2973 1.350 . S
C2979 H2966 0.929 . S
C2979 C2971 1.433 . S
C2979 N2981 1.384 . S
N2980 C2976 1.427 . S
N2980 C2977 1.384 . S
N2981 C2973 1.427 . S
N2981 C2979 1.384 . S
H2982 C2988 0.930 . S
H2983 C2992 0.930 . S
H2984 C2997 0.929 . S
H2985 C2995 0.929 . S
H2986 C2990 0.929 . S
H2987 C2996 0.929 . S
C2988 H2982 0.930 . S
C2988 C2989 1.367 . S
C2988 C2996 1.378 . S
C2989 C2988 1.367 . S
C2989 C2997 1.433 . S
C2990 H2986 0.929 . S
C2990 C2992 1.378 . S
C2990 C2994 1.350 . S
C2991 C2994 1.463 1_554 S
C2991 C2996 1.350 . S
C2991 N2999 1.427 . S
C2992 H2983 0.930 . S
C2992 C2990 1.378 . S
C2992 C2993 1.367 . S
C2993 C2992 1.367 . S
C2993 C2995 1.433 . S
C2994 C2990 1.350 . S
C2994 C2991 1.463 1_556 S
C2994 N2998 1.427 . S
C2995 H2985 0.929 . S
C2995 C2993 1.433 . S
C2995 N2998 1.384 . S
C2996 H2987 0.929 . S
C2996 C2988 1.378 . S
C2996 C2991 1.350 . S
C2997 H2984 0.929 . S
C2997 C2989 1.433 . S
C2997 N2999 1.384 . S
N2998 C2994 1.427 . S
N2998 C2995 1.384 . S
N2999 C2991 1.427 . S
N2999 C2997 1.384 . S
H3000 C3006 0.930 . S
H3001 C3010 0.930 . S
H3002 C3015 0.929 . S
H3003 C3013 0.929 . S
H3004 C3008 0.929 . S
H3005 C3014 0.929 . S
C3006 H3000 0.930 . S
C3006 C3007 1.367 . S
C3006 C3014 1.378 . S
C3007 C3006 1.367 . S
C3007 C3015 1.433 . S
C3008 H3004 0.929 . S
C3008 C3010 1.378 . S
C3008 C3012 1.350 . S
C3009 C3012 1.463 . S
C3009 C3014 1.350 . S
C3009 N3017 1.427 . S
C3010 H3001 0.930 . S
C3010 C3008 1.378 . S
C3010 C3011 1.367 . S
C3011 C3010 1.367 . S
C3011 C3013 1.433 . S
C3012 C3008 1.350 . S
C3012 C3009 1.463 . S
C3012 N3016 1.427 . S
C3013 H3003 0.929 . S
C3013 C3011 1.433 . S
C3013 N3016 1.384 . S
C3014 H3005 0.929 . S
C3014 C3006 1.378 . S
C3014 C3009 1.350 . S
C3015 H3002 0.929 . S
C3015 C3007 1.433 . S
C3015 N3017 1.384 . S
N3016 C3012 1.427 . S
N3016 C3013 1.384 . S
N3017 C3009 1.427 . S
N3017 C3015 1.384 . S
H3018 C3024 0.930 . S
H3019 C3028 0.930 . S
H3020 C3033 0.929 . S
H3021 C3031 0.929 . S
H3022 C3026 0.929 . S
H3023 C3032 0.929 . S
C3024 H3018 0.930 . S
C3024 C3025 1.367 . S
C3024 C3032 1.378 . S
C3025 C3024 1.367 . S
C3025 C3033 1.433 . S
C3026 H3022 0.929 . S
C3026 C3028 1.378 . S
C3026 C3030 1.350 . S
C3027 C3030 1.463 . S
C3027 C3032 1.350 . S
C3027 N3035 1.427 . S
C3028 H3019 0.930 . S
C3028 C3026 1.378 . S
C3028 C3029 1.367 . S
C3029 C3028 1.367 . S
C3029 C3031 1.433 . S
C3030 C3026 1.350 . S
C3030 C3027 1.463 . S
C3030 N3034 1.427 . S
C3031 H3021 0.929 . S
C3031 C3029 1.433 . S
C3031 N3034 1.384 . S
C3032 H3023 0.929 . S
C3032 C3024 1.378 . S
C3032 C3027 1.350 . S
C3033 H3020 0.929 . S
C3033 C3025 1.433 . S
C3033 N3035 1.384 . S
N3034 C3030 1.427 . S
N3034 C3031 1.384 . S
N3035 C3027 1.427 . S
N3035 C3033 1.384 . S
H3036 C3042 0.930 . S
H3037 C3046 0.930 . S
H3038 C3051 0.929 . S
H3039 C3049 0.929 . S
H3040 C3044 0.929 . S
H3041 C3050 0.929 . S
C3042 H3036 0.930 . S
C3042 C3043 1.367 . S
C3042 C3050 1.378 . S
C3043 C3042 1.367 . S
C3043 C3051 1.433 . S
C3044 H3040 0.929 . S
C3044 C3046 1.378 . S
C3044 C3048 1.350 . S
C3045 C3048 1.463 . S
C3045 C3050 1.350 . S
C3045 N3053 1.427 . S
C3046 H3037 0.930 . S
C3046 C3044 1.378 . S
C3046 C3047 1.367 . S
C3047 C3046 1.367 . S
C3047 C3049 1.433 . S
C3048 C3044 1.350 . S
C3048 C3045 1.463 . S
C3048 N3052 1.427 . S
C3049 H3039 0.929 . S
C3049 C3047 1.433 . S
C3049 N3052 1.384 . S
C3050 H3041 0.929 . S
C3050 C3042 1.378 . S
C3050 C3045 1.350 . S
C3051 H3038 0.929 . S
C3051 C3043 1.433 . S
C3051 N3053 1.384 . S
N3052 C3048 1.427 . S
N3052 C3049 1.384 . S
N3053 C3045 1.427 . S
N3053 C3051 1.384 . S
H3054 C3060 0.930 . S
H3055 C3064 0.930 . S
H3056 C3069 0.929 . S
H3057 C3067 0.929 . S
H3058 C3062 0.929 . S
H3059 C3068 0.929 . S
C3060 H3054 0.930 . S
C3060 C3061 1.367 . S
C3060 C3068 1.378 . S
C3061 C3060 1.367 . S
C3061 C3069 1.433 . S
C3062 H3058 0.929 . S
C3062 C3064 1.378 . S
C3062 C3066 1.350 . S
C3063 C3066 1.463 . S
C3063 C3068 1.350 . S
C3063 N3071 1.427 . S
C3064 H3055 0.930 . S
C3064 C3062 1.378 . S
C3064 C3065 1.367 . S
C3065 C3064 1.367 . S
C3065 C3067 1.433 . S
C3066 C3062 1.350 . S
C3066 C3063 1.463 . S
C3066 N3070 1.427 . S
C3067 H3057 0.929 . S
C3067 C3065 1.433 . S
C3067 N3070 1.384 . S
C3068 H3059 0.929 . S
C3068 C3060 1.378 . S
C3068 C3063 1.350 . S
C3069 H3056 0.929 . S
C3069 C3061 1.433 . S
C3069 N3071 1.384 . S
N3070 C3066 1.427 . S
N3070 C3067 1.384 . S
N3071 C3063 1.427 . S
N3071 C3069 1.384 . S
H3072 C3078 0.930 . S
H3073 C3082 0.930 . S
H3074 C3087 0.929 . S
H3075 C3085 0.929 . S
H3076 C3080 0.929 . S
H3077 C3086 0.929 . S
C3078 H3072 0.930 . S
C3078 C3079 1.367 . S
C3078 C3086 1.378 . S
C3079 C3078 1.367 . S
C3079 C3087 1.433 . S
C3080 H3076 0.929 . S
C3080 C3082 1.378 . S
C3080 C3084 1.350 . S
C3081 C3084 1.463 . S
C3081 C3086 1.350 . S
C3081 N3089 1.427 . S
C3082 H3073 0.930 . S
C3082 C3080 1.378 . S
C3082 C3083 1.367 . S
C3083 C3082 1.367 . S
C3083 C3085 1.433 . S
C3084 C3080 1.350 . S
C3084 C3081 1.463 . S
C3084 N3088 1.427 . S
C3085 H3075 0.929 . S
C3085 C3083 1.433 . S
C3085 N3088 1.384 . S
C3086 H3077 0.929 . S
C3086 C3078 1.378 . S
C3086 C3081 1.350 . S
C3087 H3074 0.929 . S
C3087 C3079 1.433 . S
C3087 N3089 1.384 . S
N3088 C3084 1.427 . S
N3088 C3085 1.384 . S
N3089 C3081 1.427 . S
N3089 C3087 1.384 . S
H3090 C3096 0.930 . S
H3091 C3100 0.930 . S
H3092 C3105 0.889 1_565 S
H3093 C3103 0.889 1_545 S
H3094 C3098 0.929 . S
H3095 C3104 0.929 . S
C3096 H3090 0.930 . S
C3096 C3097 1.367 . S
C3096 C3104 1.378 . S
C3097 C3096 1.367 . S
C3097 C3105 1.514 . S
C3098 H3094 0.929 . S
C3098 C3100 1.378 . S
C3098 C3102 1.350 . S
C3099 C3102 1.463 1_545 S
C3099 C3104 1.350 . S
C3099 N3107 1.427 1_545 S
C3100 H3091 0.930 . S
C3100 C3098 1.378 . S
C3100 C3101 1.367 . S
C3101 C3100 1.367 . S
C3101 C3103 1.514 . S
C3102 C3098 1.350 . S
C3102 C3099 1.463 1_565 S
C3102 N3106 1.427 1_565 S
C3103 H3093 0.889 1_565 S
C3103 C3101 1.514 . S
C3103 N3106 1.351 1_565 S
C3104 H3095 0.929 . S
C3104 C3096 1.378 . S
C3104 C3099 1.350 . S
C3105 H3092 0.889 1_545 S
C3105 C3097 1.514 . S
C3105 N3107 1.351 1_545 S
N3106 C3102 1.427 1_545 S
N3106 C3103 1.351 1_545 S
N3107 C3099 1.427 1_565 S
N3107 C3105 1.351 1_565 S
H3108 C3114 0.930 . S
H3109 C3118 0.930 . S
H3110 C3123 0.929 1_554 S
H3111 C3121 0.929 . S
H3112 C3116 0.929 . S
H3113 C3122 0.929 . S
C3114 H3108 0.930 . S
C3114 C3115 1.367 . S
C3114 C3122 1.378 . S
C3115 C3114 1.367 . S
C3115 C3123 1.433 . S
C3116 H3112 0.929 . S
C3116 C3118 1.378 . S
C3116 C3120 1.350 . S
C3117 C3120 1.463 1_556 S
C3117 C3122 1.350 . S
C3117 N3125 1.427 1_556 S
C3118 H3109 0.930 . S
C3118 C3116 1.378 . S
C3118 C3119 1.367 . S
C3119 C3118 1.367 . S
C3119 C3121 1.433 1_554 S
C3120 C3116 1.350 . S
C3120 C3117 1.463 1_554 S
C3120 N3124 1.427 1_554 S
C3121 H3111 0.929 . S
C3121 C3119 1.433 1_556 S
C3121 N3124 1.384 . S
C3122 H3113 0.929 . S
C3122 C3114 1.378 . S
C3122 C3117 1.350 . S
C3123 H3110 0.929 1_556 S
C3123 C3115 1.433 . S
C3123 N3125 1.384 1_556 S
N3124 C3120 1.427 1_556 S
N3124 C3121 1.384 . S
N3125 C3117 1.427 1_554 S
N3125 C3123 1.384 1_554 S
H3126 C3132 0.930 . S
H3127 C3136 0.930 . S
H3128 C3141 0.929 . S
H3129 C3139 0.929 . S
H3130 C3134 0.929 . S
H3131 C3140 0.929 . S
C3132 H3126 0.930 . S
C3132 C3133 1.367 . S
C3132 C3140 1.378 . S
C3133 C3132 1.367 . S
C3133 C3141 1.433 . S
C3134 H3130 0.929 . S
C3134 C3136 1.378 . S
C3134 C3138 1.350 . S
C3135 C3138 1.463 . S
C3135 C3140 1.350 . S
C3135 N3143 1.427 . S
C3136 H3127 0.930 . S
C3136 C3134 1.378 . S
C3136 C3137 1.367 . S
C3137 C3136 1.367 . S
C3137 C3139 1.433 . S
C3138 C3134 1.350 . S
C3138 C3135 1.463 . S
C3138 N3142 1.427 . S
C3139 H3129 0.929 . S
C3139 C3137 1.433 . S
C3139 N3142 1.384 . S
C3140 H3131 0.929 . S
C3140 C3132 1.378 . S
C3140 C3135 1.350 . S
C3141 H3128 0.929 . S
C3141 C3133 1.433 . S
C3141 N3143 1.384 . S
N3142 C3138 1.427 . S
N3142 C3139 1.384 . S
N3143 C3135 1.427 . S
N3143 C3141 1.384 . S
H3144 C3150 0.930 . S
H3145 C3154 0.930 . S
H3146 C3159 0.929 . S
H3147 C3157 0.929 . S
H3148 C3152 0.929 . S
H3149 C3158 0.929 . S
C3150 H3144 0.930 . S
C3150 C3151 1.367 . S
C3150 C3158 1.378 . S
C3151 C3150 1.367 . S
C3151 C3159 1.433 . S
C3152 H3148 0.929 . S
C3152 C3154 1.378 . S
C3152 C3156 1.350 . S
C3153 C3156 1.463 . S
C3153 C3158 1.350 . S
C3153 N3161 1.427 . S
C3154 H3145 0.930 . S
C3154 C3152 1.378 . S
C3154 C3155 1.367 . S
C3155 C3154 1.367 . S
C3155 C3157 1.433 . S
C3156 C3152 1.350 . S
C3156 C3153 1.463 . S
C3156 N3160 1.427 . S
C3157 H3147 0.929 . S
C3157 C3155 1.433 . S
C3157 N3160 1.384 . S
C3158 H3149 0.929 . S
C3158 C3150 1.378 . S
C3158 C3153 1.350 . S
C3159 H3146 0.929 . S
C3159 C3151 1.433 . S
C3159 N3161 1.384 . S
N3160 C3156 1.427 . S
N3160 C3157 1.384 . S
N3161 C3153 1.427 . S
N3161 C3159 1.384 . S
H3162 C3168 0.930 . S
H3163 C3172 0.930 . S
H3164 C3177 0.929 . S
H3165 C3175 0.929 . S
H3166 C3170 0.929 . S
H3167 C3176 0.929 . S
C3168 H3162 0.930 . S
C3168 C3169 1.367 . S
C3168 C3176 1.378 . S
C3169 C3168 1.367 . S
C3169 C3177 1.433 . S
C3170 H3166 0.929 . S
C3170 C3172 1.378 . S
C3170 C3174 1.350 . S
C3171 C3174 1.463 . S
C3171 C3176 1.350 . S
C3171 N3179 1.427 . S
C3172 H3163 0.930 . S
C3172 C3170 1.378 . S
C3172 C3173 1.367 . S
C3173 C3172 1.367 . S
C3173 C3175 1.433 . S
C3174 C3170 1.350 . S
C3174 C3171 1.463 . S
C3174 N3178 1.427 . S
C3175 H3165 0.929 . S
C3175 C3173 1.433 . S
C3175 N3178 1.384 . S
C3176 H3167 0.929 . S
C3176 C3168 1.378 . S
C3176 C3171 1.350 . S
C3177 H3164 0.929 . S
C3177 C3169 1.433 . S
C3177 N3179 1.384 . S
N3178 C3174 1.427 . S
N3178 C3175 1.384 . S
N3179 C3171 1.427 . S
N3179 C3177 1.384 . S
H3180 C3186 0.930 . S
H3181 C3190 0.930 . S
H3182 C3195 0.920 1_565 S
H3183 C3193 0.920 1_545 S
H3184 C3188 0.929 . S
H3185 C3194 0.929 . S
C3186 H3180 0.930 . S
C3186 C3187 1.367 . S
C3186 C3194 1.378 . S
C3187 C3186 1.367 . S
C3187 C3195 1.449 . S
C3188 H3184 0.929 . S
C3188 C3190 1.378 . S
C3188 C3192 1.350 . S
C3189 C3192 1.463 1_545 S
C3189 C3194 1.350 . S
C3189 N3197 1.427 1_545 S
C3190 H3181 0.930 . S
C3190 C3188 1.378 . S
C3190 C3191 1.367 . S
C3191 C3190 1.367 . S
C3191 C3193 1.449 . S
C3192 C3188 1.350 . S
C3192 C3189 1.463 1_565 S
C3192 N3196 1.427 1_565 S
C3193 H3183 0.920 1_565 S
C3193 C3191 1.449 . S
C3193 N3196 1.377 1_565 S
C3194 H3185 0.929 . S
C3194 C3186 1.378 . S
C3194 C3189 1.350 . S
C3195 H3182 0.920 1_545 S
C3195 C3187 1.449 . S
C3195 N3197 1.377 1_545 S
N3196 C3192 1.427 1_545 S
N3196 C3193 1.377 1_545 S
N3197 C3189 1.427 1_565 S
N3197 C3195 1.377 1_565 S
H3198 C3204 0.930 . S
H3199 C3208 0.930 . S
H3200 C3213 0.964 . S
H3201 C3211 0.929 1_554 S
H3202 C3206 0.929 . S
H3203 C3212 0.929 . S
C3204 H3198 0.930 . S
C3204 C3205 1.367 . S
C3204 C3212 1.378 . S
C3205 C3204 1.367 . S
C3205 C3213 1.374 1_554 S
C3206 H3202 0.929 . S
C3206 C3208 1.378 . S
C3206 C3210 1.350 . S
C3207 C3210 1.463 1_554 S
C3207 C3212 1.350 . S
C3207 N3215 1.427 1_554 S
C3208 H3199 0.930 . S
C3208 C3206 1.378 . S
C3208 C3209 1.367 . S
C3209 C3208 1.367 . S
C3209 C3211 1.433 . S
C3210 C3206 1.350 . S
C3210 C3207 1.463 1_556 S
C3210 N3214 1.427 1_556 S
C3211 H3201 0.929 1_556 S
C3211 C3209 1.433 . S
C3211 N3214 1.384 1_556 S
C3212 H3203 0.929 . S
C3212 C3204 1.378 . S
C3212 C3207 1.350 . S
C3213 H3200 0.964 . S
C3213 C3205 1.374 1_556 S
C3213 N3215 1.410 . S
N3214 C3210 1.427 1_554 S
N3214 C3211 1.384 1_554 S
N3215 C3207 1.427 1_556 S
N3215 C3213 1.410 . S
C1927 C901 1.760 . S
C1931 C21 1.760 . S
C1945 C861 1.688 . S
C1949 C42 1.627 . S
C1963 C1901 1.759 . S
C1967 C101 1.760 . S
C1981 C821 1.688 . S
C1985 C122 1.623 . S
C1999 C1482 1.634 . S
C2003 C181 1.705 . S
C2017 C1461 1.711 . S
C2021 C202 1.643 . S
C2035 C1562 1.633 . S
C2039 C261 1.704 . S
C2053 C282 1.639 . S
C2057 C1541 1.710 . S
C2071 C322 1.690 . S
C2075 C1701 1.757 . S
C2089 C1621 1.757 . S
C2093 C362 1.691 . S
C2107 C402 1.613 . S
C2111 C1642 1.614 . S
C2125 C762 1.604 . S
C2129 C442 1.600 . S
C2143 C482 1.675 . S
C2147 C421 1.624 . S
C2161 C541 1.696 . S
C2165 C381 1.691 . S
C2179 C562 1.676 . S
C2183 C1421 1.623 . S
C2197 C341 1.689 . S
C2201 C621 1.694 . S
C2215 C642 1.702 . S
C2219 C1021 1.655 . S
C2233 C701 1.646 . S
C2237 C962 1.694 . S
C2251 C722 1.699 . S
C2255 C1101 1.651 . S
C2269 C781 1.647 . S
C2273 C1042 1.694 . S
C2287 C1202 1.658 . S
C2291 C802 1.662 . S
C2305 C842 1.661 . S
C2309 C1122 1.658 . S
C2323 C882 1.742 . S
C2327 C1181 1.688 . S
C2341 C922 1.744 . S
C2345 C301 1.692 . S
C2359 C981 1.759 . S
C2363 C1861 1.759 . S
C2377 C1821 1.688 . S
C2381 C1002 1.625 . S
C2395 C1061 1.761 . S
C2399 C941 1.761 . S
C2413 C1781 1.688 . S
C2417 C1082 1.624 . S
C2431 C522 1.630 . S
C2435 C1141 1.704 . S
C2449 C1162 1.648 . S
C2453 C501 1.711 . S
C2467 C1221 1.704 . S
C2471 C602 1.630 . S
C2485 C1242 1.641 . S
C2489 C581 1.710 . S
C2503 C1282 1.690 . S
C2507 C741 1.757 . S
C2521 C1322 1.691 . S
C2525 C661 1.757 . S
C2539 C682 1.603 . S
C2543 C1362 1.601 . S
C2557 C1402 1.607 . S
C2561 C1722 1.608 . S
C2575 C1381 1.625 . S
C2579 C1442 1.675 . S
C2593 C1501 1.697 . S
C2597 C1341 1.691 . S
C2611 C461 1.625 . S
C2615 C1522 1.677 . S
C2629 C1581 1.689 . S
C2633 C1301 1.693 . S
C2647 C1602 1.700 . S
C2651 C61 1.649 . S
C2665 C1661 1.647 . S
C2669 C2 1.693 . S
C2683 C141 1.649 . S
C2687 C1682 1.698 . S
C2701 C82 1.691 . S
C2705 C1741 1.641 . S
C2719 C242 1.663 . S
C2723 C1762 1.660 . S
C2737 C1802 1.664 . S
C2741 C162 1.663 . S
C2755 C221 1.694 . S
C2759 C1842 1.744 . S
C2773 C1882 1.747 . S
C2777 C1261 1.700 . S
C2791 C55 1.649 . S
C2795 C15 1.649 . S
C2809 C95 1.646 . S
C2813 C135 1.647 . S
C2827 C175 1.594 . S
C2831 C255 1.596 . S
C2845 C215 1.656 . S
C2849 C295 1.656 . S
C2863 C1375 1.656 . S
C2867 C335 1.654 . S
C2881 C375 1.652 . S
C2885 C455 1.656 . S
C2899 C1295 1.654 . S
C2903 C415 1.655 . S
C2917 C495 1.647 . S
C2921 C535 1.643 . S
C2935 C575 1.653 . S
C2939 C615 1.646 . S
C2953 C655 1.664 . S
C2957 C735 1.665 . S
C2971 C695 1.594 . S
C2975 C775 1.596 . S
C2989 C1855 1.657 . S
C2993 C815 1.656 . S
C3007 C935 1.658 . S
C3011 C855 1.658 . S
C3025 C895 1.657 . S
C3029 C1775 1.656 . S
C3043 C975 1.650 . S
C3047 C1015 1.649 . S
C3061 C1055 1.649 . S
C3065 C1095 1.650 . S
C3079 C1215 1.597 . S
C3083 C1135 1.595 . S
C3097 C1255 1.662 . S
C3101 C1175 1.660 . S
C3115 C1335 1.654 . S
C3119 C1415 1.656 . S
C3133 C1455 1.653 . S
C3137 C1495 1.646 . S
C3151 C1575 1.647 . S
C3155 C1535 1.650 . S
C3169 C1695 1.662 . S
C3173 C1615 1.660 . S
C3187 C1655 1.595 . S
C3191 C1735 1.597 . S
C3205 C1815 1.658 . S
C3209 C1895 1.658 . S
