# Generated by pormake.
# Topology fob, (5)-cn, num edge types: 1
# Building blocks:
#     Node 0, Type 0, BuildingBlock: XOMCOT_clean_sbu_0, # of connection points: 5
#     Node 1, Type 0, BuildingBlock: XOMCOT_clean_sbu_0, # of connection points: 5
#     Node 2, Type 0, BuildingBlock: XOMCOT_clean_sbu_0, # of connection points: 5
#     Node 3, Type 0, BuildingBlock: XOMCOT_clean_sbu_0, # of connection points: 5
#     Node 4, Type 0, BuildingBlock: XOMCOT_clean_sbu_0, # of connection points: 5
#     Node 5, Type 0, BuildingBlock: XOMCOT_clean_sbu_0, # of connection points: 5
#     Node 6, Type 0, BuildingBlock: XOMCOT_clean_sbu_0, # of connection points: 5
#     Node 7, Type 0, BuildingBlock: XOMCOT_clean_sbu_0, # of connection points: 5
#     Node 8, Type 0, BuildingBlock: XOMCOT_clean_sbu_0, # of connection points: 5
#     Node 9, Type 0, BuildingBlock: XOMCOT_clean_sbu_0, # of connection points: 5
#     Node 10, Type 0, BuildingBlock: XOMCOT_clean_sbu_0, # of connection points: 5
#     Node 11, Type 0, BuildingBlock: XOMCOT_clean_sbu_0, # of connection points: 5
#     Node 12, Type 0, BuildingBlock: XOMCOT_clean_sbu_0, # of connection points: 5
#     Node 13, Type 0, BuildingBlock: XOMCOT_clean_sbu_0, # of connection points: 5
#     Node 14, Type 0, BuildingBlock: XOMCOT_clean_sbu_0, # of connection points: 5
#     Node 15, Type 0, BuildingBlock: XOMCOT_clean_sbu_0, # of connection points: 5
#     Edge 16, Type (0, 0), BuildingBlock: KIFKEQ_clean_linker_1, # of connection points: 2
#     Edge 17, Type (0, 0), BuildingBlock: KIFKEQ_clean_linker_1, # of connection points: 2
#     Edge 18, Type (0, 0), BuildingBlock: KIFKEQ_clean_linker_1, # of connection points: 2
#     Edge 19, Type (0, 0), BuildingBlock: KIFKEQ_clean_linker_1, # of connection points: 2
#     Edge 20, Type (0, 0), BuildingBlock: KIFKEQ_clean_linker_1, # of connection points: 2
#     Edge 21, Type (0, 0), BuildingBlock: KIFKEQ_clean_linker_1, # of connection points: 2
#     Edge 22, Type (0, 0), BuildingBlock: KIFKEQ_clean_linker_1, # of connection points: 2
#     Edge 23, Type (0, 0), BuildingBlock: KIFKEQ_clean_linker_1, # of connection points: 2
#     Edge 24, Type (0, 0), BuildingBlock: KIFKEQ_clean_linker_1, # of connection points: 2
#     Edge 25, Type (0, 0), BuildingBlock: KIFKEQ_clean_linker_1, # of connection points: 2
#     Edge 26, Type (0, 0), BuildingBlock: KIFKEQ_clean_linker_1, # of connection points: 2
#     Edge 27, Type (0, 0), BuildingBlock: KIFKEQ_clean_linker_1, # of connection points: 2
#     Edge 28, Type (0, 0), BuildingBlock: KIFKEQ_clean_linker_1, # of connection points: 2
#     Edge 29, Type (0, 0), BuildingBlock: KIFKEQ_clean_linker_1, # of connection points: 2
#     Edge 30, Type (0, 0), BuildingBlock: KIFKEQ_clean_linker_1, # of connection points: 2
#     Edge 31, Type (0, 0), BuildingBlock: KIFKEQ_clean_linker_1, # of connection points: 2
#     Edge 32, Type (0, 0), BuildingBlock: KIFKEQ_clean_linker_1, # of connection points: 2
#     Edge 33, Type (0, 0), BuildingBlock: KIFKEQ_clean_linker_1, # of connection points: 2
#     Edge 34, Type (0, 0), BuildingBlock: KIFKEQ_clean_linker_1, # of connection points: 2
#     Edge 35, Type (0, 0), BuildingBlock: KIFKEQ_clean_linker_1, # of connection points: 2
#     Edge 36, Type (0, 0), BuildingBlock: KIFKEQ_clean_linker_1, # of connection points: 2
#     Edge 37, Type (0, 0), BuildingBlock: KIFKEQ_clean_linker_1, # of connection points: 2
#     Edge 38, Type (0, 0), BuildingBlock: KIFKEQ_clean_linker_1, # of connection points: 2
#     Edge 39, Type (0, 0), BuildingBlock: KIFKEQ_clean_linker_1, # of connection points: 2
#     Edge 40, Type (0, 0), BuildingBlock: KIFKEQ_clean_linker_1, # of connection points: 2
#     Edge 41, Type (0, 0), BuildingBlock: KIFKEQ_clean_linker_1, # of connection points: 2
#     Edge 42, Type (0, 0), BuildingBlock: KIFKEQ_clean_linker_1, # of connection points: 2
#     Edge 43, Type (0, 0), BuildingBlock: KIFKEQ_clean_linker_1, # of connection points: 2
#     Edge 44, Type (0, 0), BuildingBlock: KIFKEQ_clean_linker_1, # of connection points: 2
#     Edge 45, Type (0, 0), BuildingBlock: KIFKEQ_clean_linker_1, # of connection points: 2
#     Edge 46, Type (0, 0), BuildingBlock: KIFKEQ_clean_linker_1, # of connection points: 2
#     Edge 47, Type (0, 0), BuildingBlock: KIFKEQ_clean_linker_1, # of connection points: 2
#     Edge 48, Type (0, 0), BuildingBlock: KIFKEQ_clean_linker_1, # of connection points: 2
#     Edge 49, Type (0, 0), BuildingBlock: KIFKEQ_clean_linker_1, # of connection points: 2
#     Edge 50, Type (0, 0), BuildingBlock: KIFKEQ_clean_linker_1, # of connection points: 2
#     Edge 51, Type (0, 0), BuildingBlock: KIFKEQ_clean_linker_1, # of connection points: 2
#     Edge 52, Type (0, 0), BuildingBlock: KIFKEQ_clean_linker_1, # of connection points: 2
#     Edge 53, Type (0, 0), BuildingBlock: KIFKEQ_clean_linker_1, # of connection points: 2
#     Edge 54, Type (0, 0), BuildingBlock: KIFKEQ_clean_linker_1, # of connection points: 2
#     Edge 55, Type (0, 0), BuildingBlock: KIFKEQ_clean_linker_1, # of connection points: 2
# Relax obj value: 0.074
# Max RMSD: 0.139
# Mean RMSD: 0.139
data_MOF--net-fob--node1-XOMCOT_clean_sbu_0--edge1-KIFKEQ_clean_linker_1
_symmetry_space_group_name_H-M    P1
_symmetry_Int_Tables_number       1
_symmetry_cell_setting            triclinic
loop_
_symmetry_equiv_pos_as_xyz
'x, y, z'
_cell_length_a     27.166729
_cell_length_b     65.160014
_cell_length_c     51.044748
_cell_angle_alpha  100.17106
_cell_angle_beta   90.054723
_cell_angle_gamma 90.084197
loop_
_atom_site_label
_atom_site_type_symbol
_atom_site_fract_x
_atom_site_fract_y
_atom_site_fract_z
_atom_type_partial_charge
Co0 Co 0.11408 0.14766 0.46697 0.0
C1 C 0.07957 0.10462 0.46523 0.0
C2 C 0.15448 0.10538 0.45209 0.0
C3 C 0.14165 0.08498 0.45257 0.0
N4 N 0.11546 0.1176 0.45998 0.0
N5 N 0.09459 0.08453 0.46099 0.0
H6 H 0.04362 0.10992 0.47259 0.0
H7 H 0.19034 0.11096 0.44739 0.0
C8 C 0.16596 0.1603 0.42077 0.0
O9 O 0.13035 0.1737 0.41937 0.0
N10 N 0.11422 0.17805 0.47473 0.0
C11 C 0.07743 0.19138 0.48355 0.0
C12 C 0.09564 0.2114 0.48811 0.0
C13 C 0.15467 0.19023 0.47524 0.0
N14 N 0.14424 0.21071 0.48272 0.0
C15 C 0.01324 0.15242 0.45293 0.0
C16 C 0.02147 0.13637 0.39933 0.0
C17 C 0.97581 0.14402 0.40944 0.0
C18 C 0.97187 0.15177 0.4367 0.0
C19 C 0.06225 0.13756 0.41635 0.0
N20 N 0.05845 0.14665 0.44256 0.0
H21 H 0.00828 0.15701 0.47406 0.0
H22 H 0.09658 0.13081 0.40844 0.0
H23 H 0.04025 0.18723 0.48761 0.0
H24 H 0.19106 0.18414 0.47006 0.0
O25 O 0.07812 0.14698 0.49919 0.0
O26 O 0.15956 0.14784 0.49623 0.0
O27 O 0.16398 0.14818 0.43788 0.0
C28 C 0.1206 0.14717 0.51091 0.0
H29 H 0.16595 0.07167 0.44827 0.0
H30 H 0.07477 0.22533 0.4956 0.0
H31 H 0.02568 0.12962 0.37849 0.0
H32 H 0.93671 0.15678 0.44558 0.0
Co33 Co 0.11015 0.14914 0.7524 0.0
C34 C 0.07741 0.19244 0.75399 0.0
C35 C 0.153 0.19107 0.76584 0.0
C36 C 0.14104 0.21155 0.7655 0.0
N37 N 0.11304 0.17917 0.7587 0.0
N38 N 0.09352 0.21241 0.75794 0.0
H39 H 0.04081 0.18744 0.74734 0.0
H40 H 0.18884 0.18519 0.77002 0.0
C41 C 0.16308 0.13646 0.7984 0.0
O42 O 0.12855 0.12253 0.7997 0.0
N43 N 0.10885 0.11878 0.74545 0.0
C44 C 0.07065 0.10541 0.74022 0.0
C45 C 0.08836 0.08531 0.73587 0.0
C46 C 0.14925 0.10653 0.74333 0.0
N47 N 0.13782 0.08603 0.73798 0.0
C48 C 0.00873 0.14608 0.76604 0.0
C49 C 0.01757 0.16077 0.81998 0.0
C50 C 0.97139 0.15402 0.80953 0.0
C51 C 0.96716 0.14701 0.78211 0.0
C52 C 0.05854 0.15933 0.8031 0.0
N53 N 0.0543 0.15088 0.77669 0.0
H54 H 0.00389 0.14157 0.74485 0.0
H55 H 0.09332 0.16538 0.81132 0.0
H56 H 0.03247 0.10949 0.73916 0.0
H57 H 0.18638 0.11262 0.74567 0.0
O58 O 0.07473 0.14954 0.71987 0.0
O59 O 0.15603 0.14823 0.72322 0.0
O60 O 0.15983 0.1488 0.78162 0.0
C61 C 0.11739 0.1489 0.70829 0.0
H62 H 0.16615 0.22464 0.76941 0.0
H63 H 0.06627 0.07127 0.73183 0.0
H64 H 0.02207 0.16694 0.84098 0.0
H65 H 0.93174 0.14261 0.77304 0.0
Co66 Co 0.89386 0.89681 0.49843 0.0
C67 C 0.92835 0.93983 0.49876 0.0
C68 C 0.85517 0.93926 0.51444 0.0
C69 C 0.86777 0.95962 0.51373 0.0
N70 N 0.8932 0.92691 0.5051 0.0
N71 N 0.9137 0.95998 0.50369 0.0
H72 H 0.96302 0.93444 0.48966 0.0
H73 H 0.8201 0.93385 0.52057 0.0
C74 C 0.84171 0.88549 0.5456 0.0
O75 O 0.87702 0.87212 0.54776 0.0
N76 N 0.89315 0.8664 0.49093 0.0
C77 C 0.92801 0.85328 0.47882 0.0
C78 C 0.90974 0.83327 0.47428 0.0
C79 C 0.85345 0.85411 0.49241 0.0
N80 N 0.86294 0.83383 0.48298 0.0
C81 C 0.99401 0.89087 0.51299 0.0
C82 C 0.9865 0.90957 0.56576 0.0
C83 C 0.03187 0.90122 0.55613 0.0
C84 C 0.03539 0.892 0.5293 0.0
C85 C 0.94574 0.9079 0.54871 0.0
N86 N 0.94921 0.89771 0.52294 0.0
H87 H 0.99886 0.8853 0.49206 0.0
H88 H 0.91172 0.91524 0.55616 0.0
H89 H 0.96333 0.8577 0.47207 0.0
H90 H 0.81757 0.85996 0.49919 0.0
O91 O 0.93008 0.89695 0.46613 0.0
O92 O 0.84857 0.89681 0.4692 0.0
O93 O 0.8438 0.89682 0.52759 0.0
C94 C 0.88758 0.89697 0.45442 0.0
H95 H 0.84445 0.97306 0.51981 0.0
H96 H 0.92916 0.81942 0.46486 0.0
H97 H 0.98255 0.91735 0.58622 0.0
H98 H 0.07032 0.88633 0.52071 0.0
Co99 Co 0.89374 0.90278 0.21498 0.0
C100 C 0.92866 0.8602 0.21694 0.0
C101 C 0.85372 0.86026 0.20352 0.0
C102 C 0.86672 0.84012 0.20515 0.0
N103 N 0.89259 0.87279 0.21087 0.0
N104 N 0.91379 0.84009 0.21371 0.0
H105 H 0.96435 0.8658 0.2245 0.0
H106 H 0.81801 0.86544 0.19798 0.0
C107 C 0.83641 0.91266 0.16839 0.0
O108 O 0.8694 0.92676 0.16512 0.0
N109 N 0.89394 0.93303 0.21962 0.0
C110 C 0.9324 0.94636 0.22296 0.0
C111 C 0.91484 0.96645 0.22661 0.0
C112 C 0.85357 0.94529 0.22199 0.0
N113 N 0.86524 0.96578 0.22591 0.0
C114 C 0.9951 0.90464 0.20054 0.0
C115 C 0.98417 0.89139 0.14641 0.0
C116 C 0.03097 0.89706 0.15674 0.0
C117 C 0.0364 0.90323 0.1842 0.0
C118 C 0.94383 0.89255 0.16365 0.0
N119 N 0.94902 0.90046 0.19018 0.0
H120 H 1.00051 0.90931 0.22167 0.0
H121 H 0.90889 0.88672 0.15553 0.0
H122 H 0.97067 0.94219 0.22321 0.0
H123 H 0.81637 0.93924 0.22104 0.0
O124 O 0.93002 0.9044 0.24773 0.0
O125 O 0.84863 0.90443 0.24457 0.0
O126 O 0.84249 0.90133 0.18615 0.0
C127 C 0.88757 0.90501 0.25953 0.0
H128 H 0.84308 0.82659 0.20053 0.0
H129 H 0.93709 0.98046 0.22929 0.0
H130 H 0.97905 0.88576 0.12532 0.0
H131 H 0.07224 0.90731 0.19294 0.0
Co132 Co 0.1138 0.64315 0.96338 0.0
C133 C 0.08504 0.59959 0.96668 0.0
C134 C 0.15269 0.60027 0.94551 0.0
C135 C 0.1421 0.57986 0.94721 0.0
N136 N 0.11588 0.61268 0.95684 0.0
N137 N 0.09957 0.57954 0.96061 0.0
H138 H 0.05357 0.60453 0.97906 0.0
H139 H 0.18641 0.60557 0.93772 0.0
C140 C 0.16742 0.63567 0.91079 0.0
O141 O 0.13266 0.62286 0.89998 0.0
N142 N 0.1132 0.67319 0.97052 0.0
C143 C 0.07439 0.68594 0.97666 0.0
C144 C 0.09102 0.70626 0.98068 0.0
C145 C 0.15274 0.68575 0.97113 0.0
N146 N 0.14035 0.70612 0.97718 0.0
C147 C 0.01595 0.63405 0.94421 0.0
C148 C 0.01874 0.65609 0.90274 0.0
C149 C 0.97497 0.64591 0.90762 0.0
C150 C 0.97415 0.63478 0.92867 0.0
C151 C 0.06006 0.65489 0.91886 0.0
N152 N 0.05885 0.64334 0.9388 0.0
H153 H 0.01276 0.62669 0.96132 0.0
H154 H 0.0926 0.6637 0.91574 0.0
H155 H 0.03675 0.6808 0.97804 0.0
H156 H 0.18991 0.67999 0.9677 0.0
O157 O 0.07668 0.6429 -0.00468 0.0
O158 O 0.15835 0.6434 -0.00712 0.0
O159 O 0.16464 0.64443 0.93514 0.0
C160 C 0.11896 0.64311 0.00733 0.0
H161 H 0.16502 0.56644 0.94024 0.0
H162 H 0.06832 0.72004 -0.0145 0.0
H163 H 0.02062 0.6654 0.88717 0.0
H164 H 0.94122 0.62679 0.93339 0.0
Co165 Co 0.11027 0.65148 0.24977 0.0
C166 C 0.08003 0.69566 0.25034 0.0
C167 C 0.1572 0.69276 0.25717 0.0
C168 C 0.14734 0.71321 0.25543 0.0
N169 N 0.11479 0.68177 0.25458 0.0
N170 N 0.09876 0.71497 0.25098 0.0
H171 H 0.04224 0.69175 0.24566 0.0
H172 H 0.19327 0.68615 0.259 0.0
C173 C 0.1671 0.66331 0.3006 0.0
O174 O 0.13775 0.6793 0.30792 0.0
N175 N 0.10746 0.62148 0.24429 0.0
C176 C 0.06857 0.60908 0.23641 0.0
C177 C 0.08396 0.58859 0.23277 0.0
C178 C 0.14577 0.60856 0.24537 0.0
N179 N 0.13248 0.58835 0.23848 0.0
C180 C 0.01013 0.65855 0.26592 0.0
C181 C 0.01651 0.64417 0.31352 0.0
C182 C 0.97097 0.65139 0.30584 0.0
C183 C 0.96831 0.65862 0.28164 0.0
C184 C 0.05779 0.64459 0.29721 0.0
N185 N 0.0548 0.65258 0.27421 0.0
H186 H 0.00575 0.66266 0.24655 0.0
H187 H 0.09146 0.63769 0.30269 0.0
H188 H 0.03193 0.61455 0.23303 0.0
H189 H 0.18302 0.61387 0.25012 0.0
O190 O 0.07421 0.65126 0.21733 0.0
O191 O 0.15559 0.64968 0.22027 0.0
O192 O 0.16016 0.65084 0.27868 0.0
C193 C 0.11667 0.65012 0.20549 0.0
H194 H 0.17428 0.72552 0.25593 0.0
H195 H 0.06129 0.57496 0.22634 0.0
H196 H 0.01996 0.63763 0.33151 0.0
H197 H 0.93404 0.66416 0.2746 0.0
Co198 Co 0.89139 0.39313 0.00066 0.0
C199 C 0.92838 0.43647 0.00178 0.0
C200 C 0.85123 0.43557 0.00978 0.0
C201 C 0.86408 0.45574 0.00818 0.0
N202 N 0.89173 0.42347 0.00628 0.0
N203 N 0.91274 0.45632 0.00306 0.0
H204 H 0.96512 0.43145 -0.00371 0.0
H205 H 0.81426 0.42991 0.01191 0.0
C206 C 0.83608 0.40546 0.05171 0.0
O207 O 0.87138 0.41869 0.06057 0.0
N208 N 0.89 0.36312 -0.0055 0.0
C209 C 0.92847 0.35022 -0.01188 0.0
C210 C 0.91194 0.32998 -0.01457 0.0
C211 C 0.85062 0.35069 -0.00453 0.0
N212 N 0.86296 0.33028 -0.00995 0.0
C213 C 0.99144 0.39785 0.01818 0.0
C214 C 0.9804 0.38233 0.06478 0.0
C215 C 0.02671 0.38963 0.05848 0.0
C216 C 0.03206 0.3971 0.03459 0.0
C217 C 0.94046 0.38352 0.04776 0.0
N218 N 0.94566 0.39235 0.02551 0.0
H219 H 0.99757 0.40209 -0.00098 0.0
H220 H 0.90573 0.37688 0.05226 0.0
H221 H 0.96594 0.35521 -0.01427 0.0
H222 H 0.81368 0.35653 -0.00033 0.0
O223 O 0.92883 0.39226 0.96847 0.0
O224 O 0.84729 0.39321 0.97101 0.0
O225 O 0.83959 0.39375 0.02894 0.0
C226 C 0.88672 0.39277 0.95648 0.0
H227 H 0.83879 0.46866 0.00924 0.0
H228 H 0.9345 0.31615 0.9808 0.0
H229 H 0.97503 0.37579 0.08266 0.0
H230 H 0.06774 0.40178 0.0282 0.0
Co231 Co 0.89703 0.40087 0.71813 0.0
C232 C 0.92976 0.3582 0.72189 0.0
C233 C 0.85567 0.35864 0.70733 0.0
C234 C 0.86743 0.3385 0.70951 0.0
N235 N 0.89477 0.37094 0.71501 0.0
N236 N 0.91395 0.33821 0.71881 0.0
H237 H 0.96534 0.36363 0.72981 0.0
H238 H 0.82059 0.36396 0.7011 0.0
C239 C 0.84189 0.40975 0.67038 0.0
O240 O 0.87533 0.42361 0.6669 0.0
N241 N 0.89777 0.43111 0.72164 0.0
C242 C 0.93616 0.44441 0.72284 0.0
C243 C 0.91859 0.46444 0.72577 0.0
C244 C 0.85745 0.44343 0.72445 0.0
N245 N 0.869 0.46389 0.72677 0.0
C246 C 0.9986 0.40258 0.70449 0.0
C247 C 0.9903 0.38632 0.65099 0.0
C248 C 0.03674 0.39293 0.66134 0.0
C249 C 0.04047 0.40083 0.68861 0.0
C250 C 0.94904 0.38848 0.66772 0.0
N251 N 0.95305 0.39773 0.69385 0.0
H252 H 0.00305 0.40835 0.72549 0.0
H253 H 0.91429 0.38233 0.65962 0.0
H254 H 0.97451 0.44036 0.72188 0.0
H255 H 0.8204 0.43739 0.72482 0.0
O256 O 0.93237 0.40301 0.75119 0.0
O257 O 0.85106 0.40329 0.74742 0.0
O258 O 0.84694 0.39897 0.68878 0.0
C259 C 0.88962 0.40393 0.76269 0.0
H260 H 0.84331 0.32513 0.70469 0.0
H261 H 0.94099 0.47828 0.72669 0.0
H262 H 0.98593 0.37926 0.63026 0.0
H263 H 0.07534 0.40605 0.69772 0.0
Co264 Co 0.61056 0.14378 0.96609 0.0
C265 C 0.57689 0.10066 0.96451 0.0
C266 C 0.65008 0.10147 0.94894 0.0
C267 C 0.63689 0.08099 0.94847 0.0
N268 N 0.61235 0.11372 0.95894 0.0
N269 N 0.59087 0.08046 0.9584 0.0
H270 H 0.54224 0.106 0.97363 0.0
H271 H 0.68509 0.10699 0.94289 0.0
C272 C 0.66316 0.15686 0.92013 0.0
O273 O 0.62861 0.17077 0.91897 0.0
N274 N 0.60977 0.17412 0.97393 0.0
C275 C 0.57211 0.18717 0.98211 0.0
C276 C 0.58947 0.20732 -0.01302 0.0
C277 C 0.6498 0.18659 0.97507 0.0
N278 N 0.63834 0.20697 0.98238 0.0
C279 C 0.50919 0.14759 0.95253 0.0
C280 C 0.51767 0.13305 0.89856 0.0
C281 C 0.47168 0.13992 0.90902 0.0
C282 C 0.46762 0.14688 0.93645 0.0
C283 C 0.55862 0.13425 0.91544 0.0
N284 N 0.55462 0.14262 0.94189 0.0
H285 H 0.50432 0.15172 0.97374 0.0
H286 H 0.59319 0.12804 0.90722 0.0
H287 H 0.53481 0.18274 -0.01459 0.0
H288 H 0.68657 0.18075 0.97033 0.0
O289 O 0.57533 0.14297 -0.00145 0.0
O290 O 0.65664 0.14409 -0.00491 0.0
O291 O 0.66013 0.14449 0.9369 0.0
C292 C 0.6181 0.1434 0.01004 0.0
H293 H 0.65981 0.06759 0.94145 0.0
H294 H 0.56779 0.22109 -0.00594 0.0
H295 H 0.52202 0.1269 0.87755 0.0
H296 H 0.43228 0.1513 0.94553 0.0
Co297 Co 0.61311 0.15209 0.25277 0.0
C298 C 0.58105 0.19514 0.25222 0.0
C299 C 0.65419 0.19443 0.26802 0.0
C300 C 0.64168 0.21488 0.26764 0.0
N301 N 0.61602 0.18214 0.25846 0.0
N302 N 0.59581 0.21525 0.25757 0.0
H303 H 0.54565 0.18994 0.2438 0.0
H304 H 0.68909 0.18895 0.27424 0.0
C305 C 0.66657 0.1399 0.29902 0.0
O306 O 0.63189 0.12613 0.30079 0.0
N307 N 0.61122 0.12174 0.24642 0.0
C308 C 0.57258 0.10867 0.24076 0.0
C309 C 0.58941 0.08845 0.23649 0.0
C310 C 0.6511 0.1092 0.24455 0.0
N311 N 0.63882 0.08877 0.23903 0.0
C312 C 0.51167 0.1499 0.26676 0.0
C313 C 0.52125 0.1652 0.32049 0.0
C314 C 0.47438 0.15941 0.31016 0.0
C315 C 0.47 0.15186 0.28283 0.0
C316 C 0.56221 0.16292 0.30359 0.0
N317 N 0.5575 0.1543 0.27726 0.0
H318 H 0.5066 0.14509 0.24564 0.0
H319 H 0.59728 0.16869 0.31168 0.0
H320 H 0.53476 0.11307 0.23901 0.0
H321 H 0.68835 0.11502 0.24764 0.0
O322 O 0.57738 0.15209 0.22024 0.0
O323 O 0.65869 0.15068 0.22335 0.0
O324 O 0.6632 0.15197 0.2819 0.0
C325 C 0.61989 0.15115 0.20849 0.0
H326 H 0.66514 0.22835 0.27349 0.0
H327 H 0.56689 0.07462 0.23132 0.0
H328 H 0.52611 0.17194 0.3413 0.0
H329 H 0.43461 0.14742 0.27379 0.0
Co330 Co 0.39095 0.89244 -0.00295 0.0
C331 C 0.42242 0.93648 -0.00384 0.0
C332 C 0.34439 0.93314 -0.00044 0.0
C333 C 0.35437 0.95335 -0.00317 0.0
N334 N 0.38707 0.92255 -0.00047 0.0
N335 N 0.40347 0.9554 -0.00532 0.0
H336 H 0.46078 0.93283 -0.007 0.0
H337 H 0.3082 0.92636 0.00049 0.0
C338 C 0.33416 0.90728 0.0471 0.0
O339 O 0.3639 0.92337 0.05281 0.0
N340 N 0.39278 0.86258 -0.00608 0.0
C341 C 0.43175 0.84983 -0.01151 0.0
C342 C 0.41559 0.82952 -0.01364 0.0
C343 C 0.35365 0.85004 -0.0051 0.0
N344 N 0.36638 0.82967 -0.00966 0.0
C345 C 0.49138 0.89988 0.01267 0.0
C346 C 0.48462 0.88917 0.06248 0.0
C347 C 0.53022 0.89589 0.05413 0.0
C348 C 0.53308 0.90117 0.02874 0.0
C349 C 0.44345 0.88833 0.04576 0.0
N350 N 0.44662 0.89457 0.02161 0.0
H351 H 0.49569 0.9028 -0.00731 0.0
H352 H 0.40963 0.882 0.05204 0.0
H353 H 0.469 0.85491 -0.01428 0.0
H354 H 0.31658 0.85583 -0.00131 0.0
O355 O 0.42679 0.89039 0.9642 0.0
O356 O 0.34541 0.88964 0.96746 0.0
O357 O 0.34107 0.8935 0.02635 0.0
C358 C 0.3842 0.88922 0.95243 0.0
H359 H 0.32752 0.96545 -0.00413 0.0
H360 H 0.43825 0.81574 0.98146 0.0
H361 H 0.48096 0.88407 0.08146 0.0
H362 H 0.56732 0.90629 0.02114 0.0
Co363 Co 0.39415 0.90058 0.71471 0.0
C364 C 0.42813 0.85762 0.71463 0.0
C365 C 0.35267 0.85836 0.7023 0.0
C366 C 0.36519 0.83804 0.70326 0.0
N367 N 0.39222 0.87055 0.70934 0.0
N368 N 0.41261 0.83758 0.71112 0.0
H369 H 0.46452 0.86289 0.72137 0.0
H370 H 0.31673 0.86393 0.69778 0.0
C371 C 0.34053 0.91166 0.6678 0.0
O372 O 0.37447 0.92569 0.66578 0.0
N373 N 0.3947 0.93093 0.72076 0.0
C374 C 0.43258 0.94426 0.72734 0.0
C375 C 0.41505 0.96436 0.73123 0.0
C376 C 0.35445 0.94322 0.72172 0.0
N377 N 0.36588 0.96373 0.72754 0.0
C378 C 0.49564 0.90354 0.70087 0.0
C379 C 0.48687 0.88687 0.64747 0.0
C380 C 0.53357 0.89302 0.65776 0.0
C381 C 0.53752 0.90133 0.68491 0.0
C382 C 0.44573 0.88942 0.66423 0.0
N383 N 0.45 0.89863 0.69037 0.0
H384 H 0.50047 0.90871 0.72194 0.0
H385 H 0.41091 0.88327 0.65623 0.0
H386 H 0.47026 0.9401 0.73012 0.0
H387 H 0.31756 0.93715 0.71792 0.0
O388 O 0.42962 0.90112 0.74748 0.0
O389 O 0.34827 0.90159 0.74386 0.0
O390 O 0.34433 0.9 0.68536 0.0
C391 C 0.38688 0.90147 0.75895 0.0
H392 H 0.34053 0.82478 0.69956 0.0
H393 H 0.43691 0.97831 0.73704 0.0
H394 H 0.48231 0.87955 0.62686 0.0
H395 H 0.57278 0.90605 0.69394 0.0
Co396 Co 0.60771 0.64806 0.46384 0.0
C397 C 0.57412 0.60531 0.46595 0.0
C398 C 0.6478 0.60564 0.45082 0.0
C399 C 0.63524 0.5854 0.45224 0.0
N400 N 0.60942 0.61806 0.45937 0.0
N401 N 0.58897 0.58518 0.46188 0.0
H402 H 0.53901 0.61079 0.47438 0.0
H403 H 0.68286 0.61094 0.44452 0.0
C404 C 0.66304 0.65888 0.41733 0.0
O405 O 0.6295 0.67289 0.41473 0.0
N406 N 0.60701 0.67833 0.4688 0.0
C407 C 0.56851 0.69154 0.47071 0.0
C408 C 0.58603 0.71166 0.47428 0.0
C409 C 0.64729 0.69069 0.47193 0.0
N410 N 0.63567 0.71116 0.47497 0.0
C411 C 0.50583 0.6495 0.45028 0.0
C412 C 0.51547 0.63759 0.39588 0.0
C413 C 0.46902 0.64316 0.40664 0.0
C414 C 0.46416 0.64854 0.43422 0.0
C415 C 0.55617 0.63825 0.41284 0.0
N416 N 0.55165 0.64566 0.43952 0.0
H417 H 0.50103 0.65391 0.47149 0.0
H418 H 0.59093 0.63263 0.40433 0.0
H419 H 0.5302 0.68729 0.46974 0.0
H420 H 0.68437 0.68466 0.47186 0.0
O421 O 0.57259 0.64937 0.4968 0.0
O422 O 0.65388 0.64974 0.493 0.0
O423 O 0.65788 0.64711 0.43466 0.0
C424 C 0.61543 0.65021 0.50825 0.0
H425 H 0.65866 0.57192 0.44669 0.0
H426 H 0.56362 0.72552 0.47575 0.0
H427 H 0.52011 0.63257 0.37464 0.0
H428 H 0.4286 0.65257 0.44327 0.0
Co429 Co 0.61283 0.64981 0.7488 0.0
C430 C 0.57855 0.69273 0.74807 0.0
C431 C 0.65186 0.6923 0.76371 0.0
C432 C 0.63942 0.7126 0.76272 0.0
N433 N 0.61366 0.67989 0.75458 0.0
N434 N 0.59342 0.71288 0.75273 0.0
H435 H 0.54371 0.68729 0.73914 0.0
H436 H 0.68688 0.68697 0.76999 0.0
C437 C 0.66601 0.63969 0.79657 0.0
O438 O 0.63148 0.62613 0.79952 0.0
N439 N 0.61334 0.61941 0.74237 0.0
C440 C 0.57763 0.60612 0.73149 0.0
C441 C 0.59561 0.5861 0.72737 0.0
C442 C 0.6531 0.60717 0.74373 0.0
N443 N 0.64299 0.58679 0.73519 0.0
C444 C 0.51209 0.64477 0.76215 0.0
C445 C 0.51842 0.6613 0.81567 0.0
C446 C 0.47301 0.65347 0.80514 0.0
C447 C 0.47024 0.64538 0.7779 0.0
C448 C 0.5597 0.66034 0.79904 0.0
N449 N 0.55682 0.65102 0.77289 0.0
H450 H 0.5078 0.63969 0.74108 0.0
H451 H 0.59358 0.66745 0.80718 0.0
H452 H 0.54169 0.61038 0.72542 0.0
H453 H 0.68932 0.61311 0.74984 0.0
O454 O 0.57722 0.64922 0.71618 0.0
O455 O 0.65866 0.64923 0.71966 0.0
O456 O 0.66269 0.65054 0.77814 0.0
C457 C 0.61982 0.64891 0.70462 0.0
H458 H 0.66283 0.72606 0.76868 0.0
H459 H 0.57552 0.57214 0.7189 0.0
H460 H 0.52183 0.66847 0.83641 0.0
H461 H 0.43597 0.63944 0.76867 0.0
Co462 Co 0.39591 0.39645 0.50083 0.0
C463 C 0.42682 0.4404 0.50063 0.0
C464 C 0.35227 0.43837 0.51332 0.0
C465 C 0.36219 0.4588 0.51155 0.0
N466 N 0.39321 0.42682 0.50715 0.0
N467 N 0.40912 0.46004 0.50344 0.0
H468 H 0.46256 0.43599 0.49256 0.0
H469 H 0.31664 0.43221 0.51735 0.0
C470 C 0.34125 0.40618 0.55279 0.0
O471 O 0.37451 0.42024 0.56219 0.0
N472 N 0.39694 0.36641 0.49405 0.0
C473 C 0.43586 0.3538 0.4875 0.0
C474 C 0.42002 0.33341 0.4847 0.0
C475 C 0.35811 0.3537 0.49499 0.0
N476 N 0.3711 0.33338 0.48949 0.0
C477 C 0.49578 0.40348 0.51756 0.0
C478 C 0.49044 0.38661 0.56341 0.0
C479 C 0.53533 0.39507 0.55673 0.0
C480 C 0.53754 0.40342 0.53332 0.0
C481 C 0.4492 0.38709 0.54699 0.0
N482 N 0.45157 0.39642 0.52503 0.0
H483 H 0.49988 0.40857 0.49879 0.0
H484 H 0.41586 0.37946 0.55165 0.0
H485 H 0.4731 0.35907 0.48513 0.0
H486 H 0.32101 0.35928 0.4993 0.0
O487 O 0.43195 0.39663 0.46846 0.0
O488 O 0.35049 0.3962 0.47165 0.0
O489 O 0.34565 0.39548 0.52946 0.0
C490 C 0.38935 0.39663 0.45686 0.0
H491 H 0.33598 0.47149 0.51449 0.0
H492 H 0.44299 0.3197 0.47995 0.0
H493 H 0.48747 0.37923 0.58076 0.0
H494 H 0.57138 0.40987 0.52701 0.0
Co495 Co 0.39034 0.40324 0.21858 0.0
C496 C 0.4259 0.35981 0.22029 0.0
C497 C 0.34733 0.36248 0.22033 0.0
C498 C 0.35931 0.3425 0.22303 0.0
N499 N 0.38897 0.37335 0.21826 0.0
N500 N 0.4088 0.34077 0.22303 0.0
H501 H 0.46435 0.36377 0.22045 0.0
H502 H 0.31059 0.36891 0.22071 0.0
C503 C 0.33175 0.3853 0.17014 0.0
O504 O 0.36289 0.36969 0.16503 0.0
N505 N 0.38979 0.43295 0.21954 0.0
C506 C 0.42853 0.44593 0.22059 0.0
C507 C 0.41118 0.46595 0.22195 0.0
C508 C 0.34956 0.44513 0.22051 0.0
N509 N 0.36137 0.4655 0.222 0.0
C510 C 0.49113 0.39773 0.20302 0.0
C511 C 0.48085 0.40442 0.1514 0.0
C512 C 0.52811 0.40056 0.16065 0.0
C513 C 0.5327 0.39745 0.18702 0.0
C514 C 0.44018 0.40499 0.16834 0.0
N515 N 0.44522 0.40079 0.19352 0.0
H516 H 0.49639 0.39602 0.22345 0.0
H517 H 0.40514 0.4095 0.16126 0.0
H518 H 0.4667 0.44126 0.22063 0.0
H519 H 0.31253 0.43908 0.22075 0.0
O520 O 0.42713 0.40728 0.25137 0.0
O521 O 0.34566 0.40667 0.24846 0.0
O522 O 0.3391 0.4001 0.18973 0.0
C523 C 0.38481 0.40827 0.26337 0.0
H524 H 0.33338 0.33049 0.22592 0.0
H525 H 0.43391 0.47969 0.22285 0.0
H526 H 0.47511 0.40722 0.13135 0.0
H527 H 0.56834 0.39543 0.19571 0.0
H528 H 0.24406 0.21053 0.48804 0.0
H529 H 0.12052 0.2508 0.48047 0.0
H530 H 0.29984 0.24009 0.48991 0.0
H531 H 0.17619 0.28026 0.4826 0.0
H532 H 0.28451 0.33199 0.51565 0.0
H533 H 0.23028 0.30209 0.51435 0.0
H534 H 0.33119 0.26402 0.46137 0.0
H535 H 0.38545 0.294 0.46249 0.0
C536 C 0.22869 0.2256 0.48663 0.0
C537 C 0.17756 0.2282 0.4842 0.0
C538 C 0.26075 0.24257 0.48771 0.0
C539 C 0.24247 0.26255 0.4865 0.0
C540 C 0.19144 0.26515 0.48406 0.0
C541 C 0.15944 0.24821 0.48288 0.0
C542 C 0.29504 0.31734 0.5035 0.0
C543 C 0.33936 0.31551 0.48905 0.0
C544 C 0.26391 0.30015 0.5028 0.0
C545 C 0.27631 0.28067 0.48769 0.0
C546 C 0.32085 0.27874 0.47347 0.0
C547 C 0.35197 0.29596 0.47412 0.0
H548 H 0.87448 0.99657 0.49515 0.0
H549 H 0.01258 0.96423 0.49817 0.0
H550 H 0.91822 0.02662 0.48462 0.0
H551 H 0.05634 0.99436 0.48732 0.0
H552 H 0.11014 0.04385 0.43955 0.0
H553 H 0.06674 1.01355 0.45005 0.0
H554 H 0.97474 0.05405 0.50562 0.0
H555 H 0.01828 0.08429 0.49539 0.0
C556 C 0.91419 0.99589 0.49387 0.0
C557 C 0.93989 0.9779 0.49765 0.0
C558 C 0.93929 1.01316 0.48775 0.0
C559 C 0.99077 1.01291 0.48515 0.0
C560 C 0.01658 0.99494 0.48884 0.0
C561 C 0.99146 0.97766 0.49507 0.0
C562 C 0.0809 0.04632 0.45414 0.0
C563 C 0.0678 0.0666 0.46656 0.0
C564 C 0.05604 0.02893 0.46017 0.0
C565 C 0.0173 0.03137 0.47869 0.0
C566 C 0.00396 0.05163 0.49098 0.0
C567 C 0.02891 0.06901 0.48503 0.0
H568 H 0.12286 0.04667 0.71119 0.0
H569 H 0.22835 0.08554 0.76046 0.0
H570 H 0.17795 1.01694 0.7089 0.0
H571 H 0.28362 0.05583 0.75791 0.0
H572 H 0.38966 1.00336 0.72252 0.0
H573 H 0.33455 0.03299 0.72508 0.0
H574 H 0.21165 0.99396 0.73816 0.0
H575 H 0.26684 0.96427 0.73594 0.0
C576 C 0.15764 0.04888 0.72165 0.0
C577 C 0.17109 0.06856 0.73598 0.0
C578 C 0.18923 0.03181 0.72034 0.0
C579 C 0.23513 0.03401 0.73324 0.0
C580 C 0.24877 0.05369 0.74744 0.0
C581 C 0.21711 0.07075 0.74883 0.0
C582 C 0.35106 1.00106 0.72628 0.0
C583 C 0.33295 0.98131 0.72912 0.0
C584 C 0.3194 1.0181 0.72769 0.0
C585 C 0.26873 1.01585 0.73185 0.0
C586 C 0.25045 0.99614 0.73459 0.0
C587 C 0.28217 0.97909 0.7333 0.0
H588 H 0.01308 0.33324 0.72205 0.0
H589 H 0.87424 0.30255 0.73027 0.0
H590 H 0.05667 0.30287 0.73226 0.0
H591 H 0.91776 0.27227 0.74009 0.0
H592 H 0.01388 0.21348 0.72585 0.0
H593 H 0.97073 0.24419 0.71695 0.0
H594 H 0.07005 0.28367 0.76957 0.0
H595 H 0.11301 0.25293 0.77883 0.0
C596 C 0.99178 0.32014 0.72619 0.0
C597 C 0.94004 0.32039 0.72514 0.0
C598 C 0.0168 0.30272 0.73204 0.0
C599 C 0.99066 0.28511 0.73685 0.0
C600 C 0.939 0.28542 0.73601 0.0
C601 C 0.91404 0.30283 0.7303 0.0
C602 C 0.02625 0.22864 0.73586 0.0
C603 C 0.06706 0.23062 0.75312 0.0
C604 C 1.00151 0.24629 0.73067 0.0
C605 C 0.017 0.26638 0.74252 0.0
C606 C 0.05765 0.26842 0.75983 0.0
C607 C 0.08228 0.25076 0.76513 0.0
H608 H 0.79125 0.82936 0.51822 0.0
H609 H 0.8598 0.79887 0.44551 0.0
H610 H 0.73695 0.7994 0.51742 0.0
H611 H 0.80477 0.76916 0.4441 0.0
H612 H 0.73284 0.71062 0.46166 0.0
H613 H 0.78807 0.74025 0.46481 0.0
H614 H 0.66906 0.78167 0.49497 0.0
H615 H 0.61467 0.75197 0.49352 0.0
C616 C 0.79422 0.81634 0.50189 0.0
C617 C 0.8298 0.81643 0.48197 0.0
C618 C 0.76308 0.79915 0.50136 0.0
C619 C 0.76643 0.78175 0.48072 0.0
C620 C 0.80175 0.78203 0.46063 0.0
C621 C 0.83321 0.7991 0.46134 0.0
C622 C 0.71847 0.72596 0.4694 0.0
C623 C 0.66896 0.72874 0.4773 0.0
C624 C 0.75012 0.74306 0.47084 0.0
C625 C 0.73309 0.76345 0.47998 0.0
C626 C 0.68375 0.76622 0.4881 0.0
C627 C 0.65222 0.74911 0.4869 0.0
H628 H 0.7723 0.966 0.20631 0.0
H629 H 0.88271 1.00549 0.25076 0.0
H630 H 0.71722 0.99583 0.20934 0.0
H631 H 0.8278 0.03529 0.25358 0.0
H632 H 0.73667 0.08747 0.22754 0.0
H633 H 0.79132 0.05754 0.22455 0.0
H634 H 0.66963 1.01966 0.24254 0.0
H635 H 0.61507 0.04955 0.24578 0.0
C636 C 0.78469 0.98096 0.21697 0.0
C637 C 0.83205 0.98329 0.22827 0.0
C638 C 0.75313 0.99808 0.21865 0.0
C639 C 0.76819 1.01795 0.23162 0.0
C640 C 0.81539 1.02027 0.24306 0.0
C641 C 0.84688 1.00315 0.24144 0.0
C642 C 0.72155 0.07284 0.23108 0.0
C643 C 0.67128 0.07101 0.23686 0.0
C644 C 0.75293 0.05566 0.22934 0.0
C645 C 0.73482 0.03621 0.23329 0.0
C646 C 0.68461 0.03434 0.23899 0.0
C647 C 0.65328 0.05152 0.2408 0.0
H648 H 0.87676 0.80456 0.2268 0.0
H649 H 0.01324 0.83544 0.2141 0.0
H650 H 0.92241 0.7746 0.23598 0.0
H651 H 0.05912 0.80533 0.22341 0.0
H652 H 0.12286 0.75552 0.26841 0.0
H653 H 0.07892 0.78628 0.25958 0.0
H654 H 0.9725 0.74646 0.21238 0.0
H655 H 0.01627 0.71588 0.22107 0.0
C656 C 0.9165 0.80492 0.22569 0.0
C657 C 0.94121 0.82243 0.21949 0.0
C658 C 0.94273 0.7877 0.231 0.0
C659 C 0.99445 0.78748 0.23029 0.0
C660 C 0.01931 0.80507 0.22441 0.0
C661 C 0.993 0.82234 0.21905 0.0
C662 C 0.09029 0.75335 0.25601 0.0
C663 C 0.07297 0.73318 0.24567 0.0
C664 C 0.06512 0.77098 0.25092 0.0
C665 C 0.02202 0.76884 0.23539 0.0
C666 C 0.00501 0.74868 0.22486 0.0
C667 C 0.03013 0.7311 0.22992 0.0
H668 H 0.39111 0.79019 -0.00421 0.0
H669 H 0.26743 0.82847 0.98161 0.0
H670 H 0.33649 0.76018 -0.00716 0.0
H671 H 0.21304 0.79856 0.9791 0.0
H672 H 0.12426 0.7453 0.00442 0.0
H673 H 0.17921 0.77523 0.00797 0.0
H674 H 0.28615 0.73736 0.95898 0.0
H675 H 0.23108 0.70749 0.95505 0.0
C676 C 0.35246 0.79226 -0.00809 0.0
C677 C 0.33394 0.81189 -0.01103 0.0
C678 C 0.32111 0.77502 -0.00974 0.0
C679 C 0.27042 0.777 -0.01423 0.0
C680 C 0.25181 0.79659 0.98297 0.0
C681 C 0.28314 0.81379 -0.01553 0.0
C682 C 0.15922 0.74334 -0.00583 0.0
C683 C 0.17303 0.72388 0.97944 0.0
C684 C 0.19079 0.76053 -0.00374 0.0
C685 C 0.23707 0.75867 -0.01622 0.0
C686 C 0.25104 0.73923 0.96916 0.0
C687 C 0.21939 0.72207 0.96694 0.0
H688 H 0.00244 0.45588 0.97864 0.0
H689 H 0.8882 0.4974 0.01541 0.0
H690 H 0.04946 0.48549 0.97 0.0
H691 H 0.93399 0.52693 0.00509 0.0
H692 H 0.04791 0.57789 0.00552 0.0
H693 H 0.00425 0.54792 0.01672 0.0
H694 H 0.05103 0.51077 0.94222 0.0
H695 H 0.09584 0.5407 0.93158 0.0
C696 C 0.98707 0.47123 -0.01503 0.0
C697 C 0.94107 0.47402 -0.00217 0.0
C698 C 0.01399 0.48831 0.97961 0.0
C699 C 0.99559 0.50869 -0.01331 0.0
C700 C 0.94976 0.51152 -0.00038 0.0
C701 C 0.92302 0.49446 0.00522 0.0
C702 C 0.04872 0.56332 -0.00844 0.0
C703 C 0.07514 0.56164 0.96763 0.0
C704 C 0.02357 0.54612 -0.00209 0.0
C705 C 0.02376 0.52686 0.98034 0.0
C706 C 0.05063 0.5252 0.95648 0.0
C707 C 0.07625 0.54235 0.9503 0.0
H708 H 0.21194 0.58408 0.26894 0.0
H709 H 0.12501 0.55207 0.20347 0.0
H710 H 0.26661 0.5541 0.26525 0.0
H711 H 0.1804 0.52226 0.19906 0.0
H712 H 0.26187 0.46457 0.21373 0.0
H713 H 0.20602 0.49393 0.21874 0.0
H714 H 0.32858 0.5362 0.23831 0.0
H715 H 0.3841 0.50691 0.23502 0.0
C716 C 0.20482 0.57067 0.25359 0.0
C717 C 0.16421 0.57043 0.23649 0.0
C718 C 0.23626 0.55348 0.25137 0.0
C719 C 0.22825 0.53569 0.23175 0.0
C720 C 0.18739 0.53548 0.2147 0.0
C721 C 0.15562 0.55259 0.21716 0.0
C722 C 0.27717 0.48003 0.21943 0.0
C723 C 0.32801 0.48307 0.22409 0.0
C724 C 0.24493 0.497 0.22197 0.0
C725 C 0.26256 0.51755 0.22899 0.0
C726 C 0.31336 0.52063 0.23334 0.0
C727 C 0.34553 0.50368 0.23106 0.0
H728 H 0.73777 0.20756 -0.01076 0.0
H729 H 0.61337 0.24685 0.97962 0.0
H730 H 0.79256 0.23746 -0.00852 0.0
H731 H 0.66808 0.27667 0.98216 0.0
H732 H 0.77543 0.32915 0.01546 0.0
H733 H 0.72125 0.29917 0.0142 0.0
H734 H 0.8233 0.26095 0.96214 0.0
H735 H 0.8773 0.29092 0.96316 0.0
C736 C 0.72202 0.22249 -0.01253 0.0
C737 C 0.67096 0.22471 -0.01571 0.0
C738 C 0.75349 0.23965 -0.01122 0.0
C739 C 0.73465 0.25945 -0.01296 0.0
C740 C 0.68367 0.2617 -0.016 0.0
C741 C 0.65225 0.24456 0.98258 0.0
C742 C 0.78618 0.31443 0.00353 0.0
C743 C 0.83083 0.31253 -0.01061 0.0
C744 C 0.75512 0.29722 0.00286 0.0
C745 C 0.768 0.27767 -0.01191 0.0
C746 C 0.81268 0.27572 0.97404 0.0
C747 C 0.84366 0.29294 0.97464 0.0
H748 H 0.7169 0.58279 0.76941 0.0
H749 H 0.64351 0.55131 0.69859 0.0
H750 H 0.77071 0.55273 0.7686 0.0
H751 H 0.69802 0.52151 0.69712 0.0
H752 H 0.77105 0.46329 0.71493 0.0
H753 H 0.71605 0.49297 0.71821 0.0
H754 H 0.83686 0.53449 0.74559 0.0
H755 H 0.89098 0.50484 0.74405 0.0
C756 C 0.71275 0.56952 0.75348 0.0
C757 C 0.67596 0.56937 0.73411 0.0
C758 C 0.7436 0.55228 0.75295 0.0
C759 C 0.73876 0.53457 0.73282 0.0
C760 C 0.70222 0.53461 0.71327 0.0
C761 C 0.67106 0.55174 0.71401 0.0
C762 C 0.78587 0.47867 0.72207 0.0
C763 C 0.83582 0.48148 0.72914 0.0
C764 C 0.75433 0.4958 0.72359 0.0
C765 C 0.77192 0.51623 0.73201 0.0
C766 C 0.82171 0.51902 0.73931 0.0
C767 C 0.85309 0.50191 0.73803 0.0
H768 H 0.62665 0.0416 0.95978 0.0
H769 H 0.49238 0.07773 0.96741 0.0
H770 H 0.58095 1.01133 0.96769 0.0
H771 H 0.44733 0.04777 0.97699 0.0
H772 H 0.37141 0.98448 0.96679 0.0
H773 H 0.41677 1.01458 0.95731 0.0
H774 H 0.54091 0.99754 0.00197 0.0
H775 H 0.4957 0.96712 0.01077 0.0
C776 C 0.58746 0.0432 0.96311 0.0
C777 C 0.56352 0.06233 0.96292 0.0
C778 C 0.56125 0.02581 0.96805 0.0
C779 C 0.51039 0.02705 0.97317 0.0
C780 C 0.48635 0.04611 0.97286 0.0
C781 C 0.51247 0.06346 0.96769 0.0
C782 C 0.40824 0.98727 0.97473 0.0
C783 C 0.42998 0.97344 -0.01045 0.0
C784 C 0.4343 1.00456 0.96934 0.0
C785 C 0.48262 1.00858 0.97886 0.0
C786 C 0.50417 0.99477 -0.00613 0.0
C787 C 0.47824 0.97736 -0.00098 0.0
H788 H 0.37782 0.30047 0.21525 0.0
H789 H 0.50412 0.33965 0.23971 0.0
H790 H 0.42297 0.27037 0.22405 0.0
H791 H 0.55033 0.30924 0.24691 0.0
H792 H 0.60089 0.25458 0.28542 0.0
H793 H 0.55623 0.28507 0.27655 0.0
H794 H 0.4873 0.24721 0.20821 0.0
H795 H 0.53105 0.21673 0.21764 0.0
C796 C 0.41523 0.30274 0.22243 0.0
C797 C 0.43692 0.32269 0.22692 0.0
C798 C 0.44149 0.28533 0.22714 0.0
C799 C 0.49044 0.28728 0.23622 0.0
C800 C 0.51248 0.30715 0.2403 0.0
C801 C 0.48606 0.32462 0.23579 0.0
C802 C 0.57629 0.25284 0.26847 0.0
C803 C 0.5693 0.23324 0.25232 0.0
C804 C 0.55081 0.27033 0.26328 0.0
C805 C 0.51805 0.26869 0.24162 0.0
C806 C 0.51143 0.24905 0.22536 0.0
C807 C 0.53654 0.23154 0.23073 0.0
H808 H 0.39566 0.79692 0.69019 0.0
H809 H 0.49048 0.83737 0.74457 0.0
H810 H 0.43907 0.7666 0.70042 0.0
H811 H 0.53404 0.80707 0.7546 0.0
H812 H 0.63285 0.74926 0.74348 0.0
H813 H 0.58917 0.77939 0.73329 0.0
H814 H 0.45071 0.74752 0.73755 0.0
H815 H 0.49446 0.7173 0.74801 0.0
C816 C 0.42555 0.79938 0.70442 0.0
C817 C 0.43945 0.81966 0.71653 0.0
C818 C 0.45042 0.78197 0.7103 0.0
C819 C 0.48996 0.7844 0.72836 0.0
C820 C 0.50415 0.80466 0.74032 0.0
C821 C 0.4792 0.82207 0.7345 0.0
C822 C 0.59309 0.74868 0.7426 0.0
C823 C 0.56727 0.73078 0.74672 0.0
C824 C 0.56802 0.76601 0.73669 0.0
C825 C 0.51646 0.7659 0.73465 0.0
C826 C 0.49053 0.74801 0.73865 0.0
C827 C 0.51563 0.73067 0.74465 0.0
H828 H 0.48973 0.58095 0.46599 0.0
H829 H 0.6273 0.54876 0.47152 0.0
H830 H 0.44505 0.55078 0.47608 0.0
H831 H 0.58268 0.51868 0.48126 0.0
H832 H 0.48479 0.46083 0.46874 0.0
H833 H 0.52738 0.49132 0.45873 0.0
H834 H 0.43218 0.53126 0.51308 0.0
H835 H 0.38968 0.50064 0.52341 0.0
C836 C 0.51053 0.56755 0.4695 0.0
C837 C 0.56224 0.56735 0.46779 0.0
C838 C 0.48487 0.55024 0.47527 0.0
C839 C 0.5103 0.53229 0.47935 0.0
C840 C 0.56192 0.53212 0.47776 0.0
C841 C 0.58754 0.54941 0.4721 0.0
C842 C 0.47316 0.47603 0.47886 0.0
C843 C 0.43391 0.47819 0.4971 0.0
C844 C 0.49758 0.49356 0.47303 0.0
C845 C 0.48333 0.51373 0.48518 0.0
C846 C 0.44371 0.51595 0.50315 0.0
C847 C 0.41935 0.49839 0.50908 0.0
H848 H 0.2411 0.13204 0.41427 0.0
H849 H 0.19166 0.18876 0.38976 0.0
H850 H 0.3159 0.13284 0.38823 0.0
H851 H 0.26715 0.18991 0.36435 0.0
H852 H 0.38229 0.17253 0.29891 0.0
H853 H 0.30789 0.17258 0.32529 0.0
H854 H 0.39172 0.15174 0.38764 0.0
H855 H 0.46588 0.15062 0.36052 0.0
C856 C 0.24623 0.14471 0.40335 0.0
C857 C 0.21033 0.1603 0.40401 0.0
C858 C 0.28936 0.14527 0.38861 0.0
C859 C 0.29776 0.16151 0.37429 0.0
C860 C 0.26165 0.17704 0.37485 0.0
C861 C 0.21837 0.1764 0.38947 0.0
C862 C 0.38485 0.16781 0.31816 0.0
C863 C 0.43 0.16132 0.32745 0.0
C864 C 0.34222 0.16809 0.33346 0.0
C865 C 0.34367 0.16205 0.35855 0.0
C866 C 0.3891 0.15616 0.36821 0.0
C867 C 0.43178 0.15579 0.35282 0.0
H868 H 0.73578 0.17076 0.30773 0.0
H869 H 0.69857 0.111 0.32804 0.0
H870 H 0.81144 0.17158 0.33361 0.0
H871 H 0.77446 0.11189 0.35402 0.0
H872 H 0.94187 0.11164 0.3721 0.0
H873 H 0.86662 0.11064 0.34537 0.0
H874 H 0.83512 0.17428 0.38158 0.0
H875 H 0.91026 0.17532 0.40804 0.0
C876 C 0.74363 0.15784 0.3178 0.0
C877 C 0.7111 0.14084 0.31589 0.0
C878 C 0.78691 0.15834 0.33268 0.0
C879 C 0.79889 0.14177 0.34576 0.0
C880 C 0.76637 0.12478 0.34392 0.0
C881 C 0.72273 0.12438 0.32925 0.0
C882 C 0.91906 0.12545 0.37409 0.0
C883 C 0.93183 0.14355 0.39213 0.0
C884 C 0.87582 0.12482 0.35903 0.0
C885 C 0.84498 0.14236 0.36148 0.0
C886 C 0.85831 0.16056 0.37916 0.0
C887 C 0.90114 0.16112 0.3944 0.0
H888 H 0.19621 0.10671 0.82575 0.0
H889 H 0.23069 0.16782 0.80886 0.0
H890 H 0.2719 0.10742 0.85189 0.0
H891 H 0.30618 0.16846 0.83488 0.0
H892 H 0.43935 0.10816 0.87033 0.0
H893 H 0.36417 0.10728 0.84356 0.0
H894 H 0.32925 0.16984 0.88274 0.0
H895 H 0.40433 0.17077 0.90922 0.0
C896 C 0.21972 0.12034 0.82778 0.0
C897 C 0.20741 0.13724 0.81535 0.0
C898 C 0.26324 0.12065 0.84251 0.0
C899 C 0.29493 0.13797 0.84534 0.0
C900 C 0.28227 0.15496 0.83318 0.0
C901 C 0.23912 0.15456 0.81823 0.0
C902 C 0.41578 0.12176 0.87298 0.0
C903 C 0.42758 0.13952 0.89183 0.0
C904 C 0.3726 0.12119 0.85789 0.0
C905 C 0.34086 0.13848 0.86115 0.0
C906 C 0.35317 0.15634 0.87969 0.0
C907 C 0.39595 0.15682 0.89494 0.0
H908 H 0.90416 0.12309 0.80942 0.0
H909 H 0.93908 0.18581 0.84814 0.0
H910 H 0.82918 0.12391 0.83586 0.0
H911 H 0.86391 0.1866 0.87486 0.0
H912 H 0.69568 0.18663 0.89255 0.0
H913 H 0.7713 0.18614 0.86646 0.0
H914 H 0.80657 0.12535 0.88381 0.0
H915 H 0.73124 0.12577 0.9098 0.0
C916 C 0.89577 0.13704 0.82365 0.0
C917 C 0.92735 0.1544 0.82672 0.0
C918 C 0.85304 0.13746 0.83888 0.0
C919 C 0.84069 0.15533 0.85736 0.0
C920 C 0.87237 0.17269 0.86057 0.0
C921 C 0.91554 0.17217 0.84551 0.0
C922 C 0.71941 0.1731 0.89063 0.0
C923 C 0.70742 0.15621 0.90317 0.0
C924 C 0.76289 0.17292 0.87591 0.0
C925 C 0.79484 0.15573 0.87318 0.0
C926 C 0.78248 0.13874 0.88543 0.0
C927 C 0.73939 0.13903 0.90037 0.0
H928 H 0.54272 0.89981 0.60651 0.0
H929 H 0.62552 0.88036 0.67017 0.0
H930 H 0.61682 0.89704 0.5792 0.0
H931 H 0.69994 0.87864 0.64345 0.0
H932 H 0.81505 0.85873 0.57885 0.0
H933 H 0.73982 0.85934 0.60499 0.0
H934 H 0.69335 0.91519 0.57722 0.0
H935 H 0.76776 0.91425 0.55059 0.0
C936 C 0.57665 0.89486 0.61465 0.0
C937 C 0.57818 0.89046 0.64061 0.0
C938 C 0.6193 0.89354 0.59912 0.0
C939 C 0.66451 0.8878 0.6092 0.0
C940 C 0.66576 0.88297 0.63495 0.0
C941 C 0.62313 0.88423 0.65043 0.0
C942 C 0.78889 0.8712 0.57845 0.0
C943 C 0.79746 0.88645 0.56266 0.0
C944 C 0.74576 0.87157 0.59347 0.0
C945 C 0.71036 0.88727 0.59315 0.0
C946 C 0.71931 0.90265 0.57757 0.0
C947 C 0.76225 0.9022 0.56245 0.0
H948 H 0.27264 0.8803 0.66046 0.0
H949 H 0.30802 0.93901 0.63661 0.0
H950 H 0.19742 0.878 0.63409 0.0
H951 H 0.23259 0.9366 0.61003 0.0
H952 H 0.06554 0.93512 0.5911 0.0
H953 H 0.14081 0.93766 0.61793 0.0
H954 H 0.1736 0.87321 0.5863 0.0
H955 H 0.09826 0.87061 0.55985 0.0
C956 C 0.2645 0.89267 0.64949 0.0
C957 C 0.29636 0.90983 0.65059 0.0
C958 C 0.22148 0.89131 0.63431 0.0
C959 C 0.20909 0.90714 0.62006 0.0
C960 C 0.24099 0.92427 0.62104 0.0
C961 C 0.28436 0.92555 0.63605 0.0
C962 C 0.08861 0.92146 0.59015 0.0
C963 C 0.07607 0.90266 0.57343 0.0
C964 C 0.1319 0.92298 0.60525 0.0
C965 C 0.16313 0.90565 0.60412 0.0
C966 C 0.15012 0.88678 0.5877 0.0
C967 C 0.10717 0.88533 0.57245 0.0
H968 H 0.81938 0.92678 0.12177 0.0
H969 H 0.75224 0.89201 0.17706 0.0
H970 H 0.74488 0.92206 0.09438 0.0
H971 H 0.67786 0.88749 0.14977 0.0
H972 H 0.53626 0.90771 0.10847 0.0
H973 H 0.61027 0.91121 0.13616 0.0
H974 H 0.69941 0.89101 0.06649 0.0
H975 H 0.62574 0.88669 0.03888 0.0
C976 C 0.7888 0.91815 0.12807 0.0
C977 C 0.79177 0.90971 0.15151 0.0
C978 C 0.74628 0.91538 0.11235 0.0
C979 C 0.70567 0.90442 0.12 0.0
C980 C 0.7085 0.89613 0.14353 0.0
C981 C 0.75122 0.89862 0.15902 0.0
C982 C 0.57149 0.90367 0.09907 0.0
C983 C 0.57487 0.8971 0.07134 0.0
C984 C 0.61387 0.90578 0.11493 0.0
C985 C 0.66054 0.90157 0.10339 0.0
C986 C 0.66396 0.89471 0.07582 0.0
C987 C 0.62165 0.89233 0.06002 0.0
H988 H 0.11669 0.87587 0.15886 0.0
H989 H 0.04275 0.91821 0.11583 0.0
H990 H 0.19109 0.87783 0.13217 0.0
H991 H 0.1176 0.9206 0.08959 0.0
H992 H 0.28451 0.93837 0.07917 0.0
H993 H 0.20966 0.93503 0.10489 0.0
H994 H 0.21244 0.8683 0.07925 0.0
H995 H 0.28651 0.87159 0.05301 0.0
C996 C 0.11642 0.88546 0.14355 0.0
C997 C 0.07421 0.89683 0.1392 0.0
C998 C 0.15878 0.88658 0.12836 0.0
C999 C 0.15991 0.89946 0.10904 0.0
C1000 C 0.11755 0.91068 0.10452 0.0
C1001 C 0.07481 0.90919 0.11931 0.0
C1002 C 0.26931 0.92299 0.07919 0.0
C1003 C 0.29123 0.90524 0.06413 0.0
C1004 C 0.22641 0.92111 0.0937 0.0
C1005 C 0.20544 0.90142 0.09386 0.0
C1006 C 0.22806 0.88363 0.0794 0.0
C1007 C 0.27028 0.88554 0.06441 0.0
H1008 H 0.25014 0.6573 0.92928 0.0
H1009 H 0.18495 0.62261 0.85756 0.0
H1010 H 0.32381 0.66313 0.90449 0.0
H1011 H 0.25909 0.62849 0.83277 0.0
H1012 H 0.37803 0.66227 0.79293 0.0
H1013 H 0.30393 0.65854 0.81853 0.0
H1014 H 0.39274 0.64145 0.88147 0.0
H1015 H 0.46709 0.64473 0.85561 0.0
C1016 C 0.25144 0.65092 0.90821 0.0
C1017 C 0.21163 0.63942 0.89539 0.0
C1018 C 0.29381 0.65421 0.89407 0.0
C1019 C 0.29722 0.64625 0.86675 0.0
C1020 C 0.25726 0.63496 0.85381 0.0
C1021 C 0.21494 0.63151 0.86802 0.0
C1022 C 0.38184 0.65762 0.81218 0.0
C1023 C 0.42852 0.65353 0.82208 0.0
C1024 C 0.33935 0.6555 0.82681 0.0
C1025 C 0.34254 0.64949 0.85183 0.0
C1026 C 0.38922 0.64621 0.86226 0.0
C1027 C 0.4318 0.64817 0.84751 0.0
H1028 H 0.74793 0.66315 0.79207 0.0
H1029 H 0.68504 0.62093 0.8395 0.0
H1030 H 0.82242 0.66587 0.81904 0.0
H1031 H 0.75997 0.62359 0.86637 0.0
H1032 H 0.87999 0.65093 0.92525 0.0
H1033 H 0.80519 0.65001 0.89877 0.0
H1034 H 0.89241 0.64312 0.82708 0.0
H1035 H 0.96758 0.64371 0.85359 0.0
C1036 C 0.74986 0.65449 0.80831 0.0
C1037 C 0.71042 0.64183 0.81366 0.0
C1038 C 0.79275 0.65596 0.82363 0.0
C1039 C 0.79709 0.64493 0.84477 0.0
C1040 C 0.75749 0.63245 0.85035 0.0
C1041 C 0.71465 0.63086 0.8349 0.0
C1042 C 0.88331 0.64907 0.90382 0.0
C1043 C 0.92981 0.64712 0.8915 0.0
C1044 C 0.8404 0.64857 0.88868 0.0
C1045 C 0.8429 0.64629 0.86086 0.0
C1046 C 0.88936 0.64502 0.84853 0.0
C1047 C 0.9324 0.64541 0.8637 0.0
H1048 H 0.21143 0.62632 0.30316 0.0
H1049 H 0.21863 0.69222 0.33522 0.0
H1050 H 0.28498 0.6205 0.32858 0.0
H1051 H 0.29303 0.68637 0.36014 0.0
H1052 H 0.45879 0.66639 0.3678 0.0
H1053 H 0.38391 0.67117 0.34263 0.0
H1054 H 0.30718 0.62711 0.38188 0.0
H1055 H 0.38172 0.62274 0.40757 0.0
C1056 C 0.22869 0.63953 0.3157 0.0
C1057 C 0.20943 0.65973 0.31729 0.0
C1058 C 0.27059 0.63618 0.33022 0.0
C1059 C 0.29455 0.65302 0.34607 0.0
C1060 C 0.27519 0.67319 0.34785 0.0
C1061 C 0.23258 0.6765 0.33379 0.0
C1062 C 0.42603 0.65757 0.37075 0.0
C1063 C 0.42576 0.64415 0.38943 0.0
C1064 C 0.38328 0.66044 0.3566 0.0
C1065 C 0.34001 0.64958 0.36053 0.0
C1066 C 0.34022 0.63561 0.37856 0.0
C1067 C 0.38265 0.63311 0.39315 0.0
H1068 H 0.67969 0.67531 0.37237 0.0
H1069 H 0.74737 0.63786 0.42441 0.0
H1070 H 0.7546 0.67255 0.34547 0.0
H1071 H 0.82213 0.63525 0.39758 0.0
H1072 H 0.96342 0.65965 0.36033 0.0
H1073 H 0.8887 0.66053 0.38713 0.0
H1074 H 0.8021 0.64353 0.31565 0.0
H1075 H 0.87652 0.64192 0.28886 0.0
C1076 C 0.71043 0.66646 0.37802 0.0
C1077 C 0.70756 0.65677 0.40046 0.0
C1078 C 0.75319 0.66482 0.36258 0.0
C1079 C 0.79409 0.65371 0.36951 0.0
C1080 C 0.79125 0.64404 0.39194 0.0
C1081 C 0.74832 0.64543 0.40716 0.0
C1082 C 0.92859 0.65578 0.35033 0.0
C1083 C 0.92605 0.65094 0.3224 0.0
C1084 C 0.88582 0.65636 0.36568 0.0
C1085 C 0.83966 0.65229 0.3534 0.0
C1086 C 0.83714 0.64709 0.32558 0.0
C1087 C 0.87984 0.64627 0.31026 0.0
H1088 H 0.54566 0.42395 0.1215 0.0
H1089 H 0.61243 0.37723 0.16082 0.0
H1090 H 0.6198 0.42446 0.09464 0.0
H1091 H 0.68738 0.37904 0.13513 0.0
H1092 H 0.82581 0.41567 0.10572 0.0
H1093 H 0.75046 0.4139 0.13176 0.0
H1094 H 0.66951 0.39188 0.05952 0.0
H1095 H 0.7448 0.39299 0.03349 0.0
C1096 C 0.57568 0.41368 0.12438 0.0
C1097 C 0.57269 0.40059 0.14355 0.0
C1098 C 0.61829 0.41416 0.10913 0.0
C1099 C 0.65911 0.40193 0.11311 0.0
C1100 C 0.65642 0.3888 0.13203 0.0
C1101 C 0.6135 0.38793 0.14683 0.0
C1102 C 0.79195 0.41041 0.09545 0.0
C1103 C 0.79112 0.40442 0.06763 0.0
C1104 C 0.74906 0.40936 0.11031 0.0
C1105 C 0.70452 0.40281 0.09751 0.0
C1106 C 0.70351 0.39704 0.06973 0.0
C1107 C 0.74657 0.39759 0.05493 0.0
H1108 H 0.09493 0.42012 0.07296 0.0
H1109 H 0.05639 0.35773 0.08334 0.0
H1110 H 0.16897 0.41872 0.09954 0.0
H1111 H 0.13025 0.35648 0.11055 0.0
H1112 H 0.26618 0.41717 0.17209 0.0
H1113 H 0.19144 0.41787 0.14602 0.0
H1114 H 0.22172 0.35555 0.10434 0.0
H1115 H 0.29661 0.35468 0.13073 0.0
C1116 C 0.10226 0.40612 0.08102 0.0
C1117 C 0.06995 0.38902 0.07605 0.0
C1118 C 0.14446 0.40538 0.0964 0.0
C1119 C 0.15544 0.38748 0.10709 0.0
C1120 C 0.12294 0.37041 0.10233 0.0
C1121 C 0.08043 0.3712 0.08705 0.0
C1122 C 0.25707 0.4036 0.15735 0.0
C1123 C 0.28744 0.38586 0.15344 0.0
C1124 C 0.21428 0.40405 0.14234 0.0
C1125 C 0.20071 0.38677 0.12315 0.0
C1126 C 0.23101 0.36901 0.1192 0.0
C1127 C 0.27408 0.36859 0.13415 0.0
H1128 H 0.82364 0.42499 0.6246 0.0
H1129 H 0.7594 0.38753 0.67771 0.0
H1130 H 0.74919 0.42024 0.59723 0.0
H1131 H 0.68531 0.38283 0.65036 0.0
H1132 H 0.54144 0.40251 0.61125 0.0
H1133 H 0.61586 0.40522 0.63861 0.0
H1134 H 0.70477 0.39082 0.56771 0.0
H1135 H 0.63069 0.38759 0.5404 0.0
C1136 C 0.79379 0.41571 0.63039 0.0
C1137 C 0.79754 0.4066 0.65328 0.0
C1138 C 0.75127 0.41292 0.61467 0.0
C1139 C 0.71147 0.40117 0.6217 0.0
C1140 C 0.71521 0.3921 0.64459 0.0
C1141 C 0.75785 0.3947 0.66013 0.0
C1142 C 0.57678 0.39957 0.60152 0.0
C1143 C 0.58004 0.39507 0.5736 0.0
C1144 C 0.61939 0.4012 0.61718 0.0
C1145 C 0.66611 0.39847 0.60524 0.0
C1146 C 0.66931 0.39342 0.57742 0.0
C1147 C 0.62681 0.39161 0.5618 0.0
H1148 H 0.13157 0.38325 0.6732 0.0
H1149 H 0.04274 0.40079 0.61039 0.0
H1150 H 0.20551 0.38587 0.64701 0.0
H1151 H 0.11685 0.40269 0.58389 0.0
H1152 H 0.25866 0.3839 0.53579 0.0
H1153 H 0.18514 0.37909 0.56136 0.0
H1154 H 0.25051 0.41607 0.63127 0.0
H1155 H 0.32433 0.42106 0.60567 0.0
C1156 C 0.1277 0.38765 0.65382 0.0
C1157 C 0.0811 0.39208 0.64408 0.0
C1158 C 0.17012 0.38909 0.63883 0.0
C1159 C 0.16691 0.39468 0.61357 0.0
C1160 C 0.12031 0.39825 0.60328 0.0
C1161 C 0.07785 0.39705 0.61842 0.0
C1162 C 0.25754 0.39099 0.55664 0.0
C1163 C 0.29736 0.40292 0.56871 0.0
C1164 C 0.21528 0.38829 0.57121 0.0
C1165 C 0.21214 0.39722 0.59825 0.0
C1166 C 0.25217 0.40888 0.61047 0.0
C1167 C 0.29428 0.41182 0.5958 0.0
H1168 H 0.19679 0.13859 0.67559 0.0
H1169 H 0.04628 0.15994 0.67634 0.0
H1170 H 0.20023 0.13747 0.62742 0.0
H1171 H 0.05015 0.15966 0.62881 0.0
H1172 H 0.04919 0.13485 0.54162 0.0
H1173 H 0.05144 0.13475 0.5891 0.0
H1174 H 0.20056 0.1584 0.59272 0.0
H1175 H 0.19879 0.15767 0.54458 0.0
C1176 C 0.16468 0.14322 0.66548 0.0
C1177 C 0.1211 0.14911 0.67957 0.0
C1178 C 0.16669 0.14268 0.63796 0.0
C1179 C 0.12526 0.14822 0.62418 0.0
C1180 C 0.08231 0.15473 0.63861 0.0
C1181 C 0.08015 0.15502 0.66592 0.0
C1182 C 0.08252 0.13999 0.55253 0.0
C1183 C 0.12366 0.14647 0.53952 0.0
C1184 C 0.08374 0.14005 0.5798 0.0
C1185 C 0.12589 0.14692 0.59484 0.0
C1186 C 0.16761 0.15292 0.5817 0.0
C1187 C 0.16657 0.1526 0.5542 0.0
H1188 H 0.95961 0.88724 0.41774 0.0
H1189 H 0.80876 0.90808 0.42665 0.0
H1190 H 0.95694 0.88951 0.37081 0.0
H1191 H 0.80653 0.9113 0.37964 0.0
H1192 H 0.95921 0.91628 0.29625 0.0
H1193 H 0.95653 0.91502 0.34351 0.0
H1194 H 0.80652 0.89246 0.33504 0.0
H1195 H 0.80871 0.8947 0.28777 0.0
C1196 C 0.92591 0.89244 0.40963 0.0
C1197 C 0.88447 0.89759 0.4258 0.0
C1198 C 0.92446 0.89391 0.38275 0.0
C1199 C 0.88176 0.90091 0.37148 0.0
C1200 C 0.8399 0.90571 0.38761 0.0
C1201 C 0.84117 0.90395 0.41453 0.0
C1202 C 0.92556 0.9112 0.30455 0.0
C1203 C 0.88428 0.90547 0.28839 0.0
C1204 C 0.92409 0.91031 0.3316 0.0
C1205 C 0.88157 0.9033 0.34305 0.0
C1206 C 0.83974 0.89808 0.32695 0.0
C1207 C 0.84101 0.89928 0.29987 0.0
H1208 H 0.19697 0.65398 0.04074 0.0
H1209 H 0.04678 0.63189 0.03854 0.0
H1210 H 0.19858 0.65587 0.08901 0.0
H1211 H 0.04885 0.63294 0.08633 0.0
H1212 H 0.04525 0.66046 0.17322 0.0
H1213 H 0.04842 0.65867 0.12537 0.0
H1214 H 0.1979 0.63581 0.12439 0.0
H1215 H 0.19519 0.63843 0.17277 0.0
C1216 C 0.16457 0.6493 0.05057 0.0
C1217 C 0.12157 0.64304 0.03607 0.0
C1218 C 0.16553 0.65029 0.07815 0.0
C1219 C 0.12364 0.6448 0.09157 0.0
C1220 C 0.08132 0.63782 0.07675 0.0
C1221 C 0.08018 0.6371 0.04934 0.0
C1222 C 0.07882 0.65507 0.1628 0.0
C1223 C 0.11987 0.64944 0.17661 0.0
C1224 C 0.08056 0.65392 0.13533 0.0
C1225 C 0.12317 0.6468 0.12097 0.0
C1226 C 0.16464 0.64149 0.13488 0.0
C1227 C 0.16306 0.6429 0.16253 0.0
H1228 H 0.8086 0.40439 0.9288 0.0
H1229 H 0.95955 0.38365 0.91997 0.0
H1230 H 0.80709 0.40859 0.8822 0.0
H1231 H 0.95759 0.38692 0.87329 0.0
H1232 H 0.96045 0.41522 0.79987 0.0
H1233 H 0.95728 0.41318 0.84691 0.0
H1234 H 0.80754 0.39042 0.83733 0.0
H1235 H 0.81022 0.39342 0.79032 0.0
C1236 C 0.8412 0.40046 0.91676 0.0
C1237 C 0.88427 0.39381 0.92795 0.0
C1238 C 0.84032 0.4028 0.89007 0.0
C1239 C 0.88239 0.39831 0.87404 0.0
C1240 C 0.92493 0.39106 0.8852 0.0
C1241 C 0.92597 0.38899 0.9119 0.0
C1242 C 0.92671 0.40998 0.8079 0.0
C1243 C 0.88566 0.40438 0.79151 0.0
C1244 C 0.92499 0.40862 0.83481 0.0
C1245 C 0.88244 0.40127 0.84585 0.0
C1246 C 0.84078 0.39628 0.82955 0.0
C1247 C 0.84231 0.39794 0.80262 0.0
H1248 H 0.69842 0.13957 0.17558 0.0
H1249 H 0.54857 0.16172 0.17634 0.0
H1250 H 0.70069 0.13685 0.12712 0.0
H1251 H 0.55127 0.1598 0.12848 0.0
H1252 H 0.54739 0.13221 0.04211 0.0
H1253 H 0.55096 0.13359 0.0899 0.0
H1254 H 0.70054 0.15652 0.09104 0.0
H1255 H 0.69741 0.15432 0.04269 0.0
C1256 C 0.66624 0.14406 0.1654 0.0
C1257 C 0.62316 0.15062 0.1796 0.0
C1258 C 0.66756 0.14259 0.13771 0.0
C1259 C 0.62592 0.14783 0.12386 0.0
C1260 C 0.58353 0.15507 0.13837 0.0
C1261 C 0.58206 0.1563 0.16585 0.0
C1262 C 0.58112 0.13747 0.05253 0.0
C1263 C 0.62198 0.14334 0.03878 0.0
C1264 C 0.5831 0.13839 0.07997 0.0
C1265 C 0.62576 0.14551 0.0944 0.0
C1266 C 0.66721 0.15086 0.08051 0.0
C1267 C 0.66539 0.14969 0.05287 0.0
H1268 H 0.30688 0.89047 0.78587 0.0
H1269 H 0.45835 0.91045 0.79629 0.0
H1270 H 0.30366 0.88607 0.83242 0.0
H1271 H 0.45473 0.907 0.84284 0.0
H1272 H 0.4552 0.87789 0.91549 0.0
H1273 H 0.45293 0.88038 0.86856 0.0
H1274 H 0.30373 0.9036 0.87766 0.0
H1275 H 0.3055 0.90014 0.92456 0.0
C1276 C 0.3392 0.89423 0.79825 0.0
C1277 C 0.38297 0.90066 0.7875 0.0
C1278 C 0.33736 0.89176 0.82491 0.0
C1279 C 0.37915 0.89589 0.84132 0.0
C1280 C 0.42227 0.90307 0.83064 0.0
C1281 C 0.42427 0.90525 0.804 0.0
C1282 C 0.42176 0.88331 0.90737 0.0
C1283 C 0.38062 0.88892 0.9236 0.0
C1284 C 0.42055 0.88494 0.88053 0.0
C1285 C 0.37846 0.89258 0.86939 0.0
C1286 C 0.33664 0.89754 0.88551 0.0
C1287 C 0.33764 0.89561 0.91237 0.0
H1288 H 0.54465 0.66183 0.54511 0.0
H1289 H 0.6956 0.64106 0.53647 0.0
H1290 H 0.549 0.66206 0.59265 0.0
H1291 H 0.6995 0.64035 0.58419 0.0
H1292 H 0.69806 0.65964 0.67602 0.0
H1293 H 0.69965 0.66091 0.62835 0.0
H1294 H 0.55067 0.63707 0.62087 0.0
H1295 H 0.54857 0.63671 0.66827 0.0
C1296 C 0.57874 0.65721 0.55343 0.0
C1297 C 0.61965 0.65127 0.53716 0.0
C1298 C 0.58118 0.6572 0.58066 0.0
C1299 C 0.62434 0.65086 0.59219 0.0
C1300 C 0.66581 0.64543 0.57597 0.0
C1301 C 0.66354 0.64574 0.54867 0.0
C1302 C 0.66586 0.65463 0.66404 0.0
C1303 C 0.62302 0.64831 0.67577 0.0
C1304 C 0.66678 0.65528 0.63678 0.0
C1305 C 0.62501 0.64939 0.62086 0.0
C1306 C 0.58297 0.64232 0.63263 0.0
C1307 C 0.58186 0.64196 0.65979 0.0
H1308 H 0.30705 0.3976 0.29189 0.0
H1309 H 0.45614 0.42095 0.29994 0.0
H1310 H 0.30618 0.39496 0.33897 0.0
H1311 H 0.45471 0.41928 0.34718 0.0
H1312 H 0.46155 0.38901 0.41981 0.0
H1313 H 0.45786 0.39302 0.37345 0.0
H1314 H 0.30614 0.41282 0.38383 0.0
H1315 H 0.30946 0.40787 0.43014 0.0
C1316 C 0.33923 0.4026 0.3039 0.0
C1317 C 0.3818 0.40932 0.29233 0.0
C1318 C 0.33873 0.40114 0.33089 0.0
C1319 C 0.38063 0.40663 0.34682 0.0
C1320 C 0.42228 0.41436 0.33536 0.0
C1321 C 0.423 0.41551 0.30836 0.0
C1322 C 0.42734 0.39411 0.41214 0.0
C1323 C 0.3858 0.39813 0.4285 0.0
C1324 C 0.42531 0.39662 0.38562 0.0
C1325 C 0.38189 0.40354 0.37495 0.0
C1326 C 0.34005 0.40731 0.39132 0.0
C1327 C 0.34193 0.40451 0.41783 0.0
loop_
_geom_bond_atom_site_label_1
_geom_bond_atom_site_label_2
_geom_bond_distance
_geom_bond_site_symmetry_2
_ccdc_geom_bond_type
Co0 N4 2.148 . S
Co0 N10 2.128 . S
Co0 N20 2.194 . S
Co0 O25 2.351 . S
Co0 O26 2.155 . S
Co0 O27 2.096 . S
C1 N4 1.301 . S
C1 N5 1.328 . S
C1 H6 0.930 . S
C2 C3 1.333 . S
C2 N4 1.317 . S
C2 H7 0.930 . S
C3 C2 1.333 . S
C3 N5 1.350 . S
C3 H29 0.931 . S
N4 Co0 2.148 . S
N4 C1 1.301 . S
N4 C2 1.317 . S
N5 C1 1.328 . S
N5 C3 1.350 . S
H6 C1 0.930 . S
H7 C2 0.930 . S
C8 O9 1.224 . S
C8 O27 1.247 . S
O9 C8 1.224 . S
N10 Co0 2.128 . S
N10 C11 1.355 . S
N10 C13 1.311 . S
C11 N10 1.355 . S
C11 C12 1.363 . S
C11 H23 0.929 . S
C12 C11 1.363 . S
C12 N14 1.375 . S
C12 H30 0.931 . S
C13 N10 1.311 . S
C13 N14 1.347 . S
C13 H24 0.929 . S
N14 C12 1.375 . S
N14 C13 1.347 . S
C15 C18 1.365 . S
C15 N20 1.328 1_655 S
C15 H21 0.929 . S
C16 C17 1.362 1_455 S
C16 C19 1.378 . S
C16 H31 0.929 . S
C17 C16 1.362 1_655 S
C17 C18 1.366 . S
C18 C15 1.365 . S
C18 C17 1.366 . S
C18 H32 0.930 . S
C19 C16 1.378 . S
C19 N20 1.315 . S
C19 H22 0.930 . S
N20 Co0 2.194 . S
N20 C15 1.328 1_455 S
N20 C19 1.315 . S
H21 C15 0.929 . S
H22 C19 0.930 . S
H23 C11 0.929 . S
H24 C13 0.929 . S
O25 Co0 2.351 . S
O25 C28 1.244 . S
O26 Co0 2.155 . S
O26 C28 1.240 . S
O27 Co0 2.096 . S
O27 C8 1.247 . S
C28 O25 1.244 . S
C28 O26 1.240 . S
H29 C3 0.931 . S
H30 C12 0.931 . S
H31 C16 0.929 . S
H32 C18 0.930 . S
Co33 N37 2.148 . S
Co33 N43 2.128 . S
Co33 N53 2.194 . S
Co33 O58 2.351 . S
Co33 O59 2.155 . S
Co33 O60 2.096 . S
C34 N37 1.301 . S
C34 N38 1.328 . S
C34 H39 0.930 . S
C35 C36 1.333 . S
C35 N37 1.317 . S
C35 H40 0.930 . S
C36 C35 1.333 . S
C36 N38 1.350 . S
C36 H62 0.931 . S
N37 Co33 2.148 . S
N37 C34 1.301 . S
N37 C35 1.317 . S
N38 C34 1.328 . S
N38 C36 1.350 . S
H39 C34 0.930 . S
H40 C35 0.930 . S
C41 O42 1.224 . S
C41 O60 1.247 . S
O42 C41 1.224 . S
N43 Co33 2.128 . S
N43 C44 1.355 . S
N43 C46 1.311 . S
C44 N43 1.355 . S
C44 C45 1.363 . S
C44 H56 0.929 . S
C45 C44 1.363 . S
C45 N47 1.375 . S
C45 H63 0.931 . S
C46 N43 1.311 . S
C46 N47 1.347 . S
C46 H57 0.929 . S
N47 C45 1.375 . S
N47 C46 1.347 . S
C48 C51 1.365 . S
C48 N53 1.328 1_655 S
C48 H54 0.929 . S
C49 C50 1.362 1_455 S
C49 C52 1.378 . S
C49 H64 0.929 . S
C50 C49 1.362 1_655 S
C50 C51 1.366 . S
C51 C48 1.365 . S
C51 C50 1.366 . S
C51 H65 0.930 . S
C52 C49 1.378 . S
C52 N53 1.315 . S
C52 H55 0.930 . S
N53 Co33 2.194 . S
N53 C48 1.328 1_455 S
N53 C52 1.315 . S
H54 C48 0.929 . S
H55 C52 0.930 . S
H56 C44 0.929 . S
H57 C46 0.929 . S
O58 Co33 2.351 . S
O58 C61 1.244 . S
O59 Co33 2.155 . S
O59 C61 1.240 . S
O60 Co33 2.096 . S
O60 C41 1.247 . S
C61 O58 1.244 . S
C61 O59 1.240 . S
H62 C36 0.931 . S
H63 C45 0.931 . S
H64 C49 0.929 . S
H65 C51 0.930 . S
Co66 N70 2.148 . S
Co66 N76 2.128 . S
Co66 N86 2.194 . S
Co66 O91 2.351 . S
Co66 O92 2.155 . S
Co66 O93 2.096 . S
C67 N70 1.301 . S
C67 N71 1.328 . S
C67 H72 0.930 . S
C68 C69 1.333 . S
C68 N70 1.317 . S
C68 H73 0.930 . S
C69 C68 1.333 . S
C69 N71 1.350 . S
C69 H95 0.931 . S
N70 Co66 2.148 . S
N70 C67 1.301 . S
N70 C68 1.317 . S
N71 C67 1.328 . S
N71 C69 1.350 . S
H72 C67 0.930 . S
H73 C68 0.930 . S
C74 O75 1.224 . S
C74 O93 1.247 . S
O75 C74 1.224 . S
N76 Co66 2.128 . S
N76 C77 1.355 . S
N76 C79 1.311 . S
C77 N76 1.355 . S
C77 C78 1.363 . S
C77 H89 0.929 . S
C78 C77 1.363 . S
C78 N80 1.375 . S
C78 H96 0.931 . S
C79 N76 1.311 . S
C79 N80 1.347 . S
C79 H90 0.929 . S
N80 C78 1.375 . S
N80 C79 1.347 . S
C81 C84 1.365 . S
C81 N86 1.328 1_455 S
C81 H87 0.929 . S
C82 C83 1.362 1_655 S
C82 C85 1.378 . S
C82 H97 0.929 . S
C83 C82 1.362 1_455 S
C83 C84 1.366 . S
C84 C81 1.365 . S
C84 C83 1.366 . S
C84 H98 0.930 . S
C85 C82 1.378 . S
C85 N86 1.315 . S
C85 H88 0.930 . S
N86 Co66 2.194 . S
N86 C81 1.328 1_655 S
N86 C85 1.315 . S
H87 C81 0.929 . S
H88 C85 0.930 . S
H89 C77 0.929 . S
H90 C79 0.929 . S
O91 Co66 2.351 . S
O91 C94 1.244 . S
O92 Co66 2.155 . S
O92 C94 1.240 . S
O93 Co66 2.096 . S
O93 C74 1.247 . S
C94 O91 1.244 . S
C94 O92 1.240 . S
H95 C69 0.931 . S
H96 C78 0.931 . S
H97 C82 0.929 . S
H98 C84 0.930 . S
Co99 N103 2.148 . S
Co99 N109 2.128 . S
Co99 N119 2.194 . S
Co99 O124 2.351 . S
Co99 O125 2.155 . S
Co99 O126 2.096 . S
C100 N103 1.301 . S
C100 N104 1.328 . S
C100 H105 0.930 . S
C101 C102 1.333 . S
C101 N103 1.317 . S
C101 H106 0.930 . S
C102 C101 1.333 . S
C102 N104 1.350 . S
C102 H128 0.931 . S
N103 Co99 2.148 . S
N103 C100 1.301 . S
N103 C101 1.317 . S
N104 C100 1.328 . S
N104 C102 1.350 . S
H105 C100 0.930 . S
H106 C101 0.930 . S
C107 O108 1.224 . S
C107 O126 1.247 . S
O108 C107 1.224 . S
N109 Co99 2.128 . S
N109 C110 1.355 . S
N109 C112 1.311 . S
C110 N109 1.355 . S
C110 C111 1.363 . S
C110 H122 0.929 . S
C111 C110 1.363 . S
C111 N113 1.375 . S
C111 H129 0.931 . S
C112 N109 1.311 . S
C112 N113 1.347 . S
C112 H123 0.929 . S
N113 C111 1.375 . S
N113 C112 1.347 . S
C114 C117 1.365 . S
C114 N119 1.328 1_455 S
C114 H120 0.929 . S
C115 C116 1.362 1_655 S
C115 C118 1.378 . S
C115 H130 0.929 . S
C116 C115 1.362 1_455 S
C116 C117 1.366 . S
C117 C114 1.365 . S
C117 C116 1.366 . S
C117 H131 0.930 . S
C118 C115 1.378 . S
C118 N119 1.315 . S
C118 H121 0.930 . S
N119 Co99 2.194 . S
N119 C114 1.328 1_655 S
N119 C118 1.315 . S
H120 C114 0.929 . S
H121 C118 0.930 . S
H122 C110 0.929 . S
H123 C112 0.929 . S
O124 Co99 2.351 . S
O124 C127 1.244 . S
O125 Co99 2.155 . S
O125 C127 1.240 . S
O126 Co99 2.096 . S
O126 C107 1.247 . S
C127 O124 1.244 . S
C127 O125 1.240 . S
H128 C102 0.931 . S
H129 C111 0.931 . S
H130 C115 0.929 . S
H131 C117 0.930 . S
Co132 N136 2.148 . S
Co132 N142 2.128 . S
Co132 N152 2.194 . S
Co132 O157 2.351 1_556 S
Co132 O158 2.155 1_556 S
Co132 O159 2.096 . S
C133 N136 1.301 . S
C133 N137 1.328 . S
C133 H138 0.930 . S
C134 C135 1.333 . S
C134 N136 1.317 . S
C134 H139 0.930 . S
C135 C134 1.333 . S
C135 N137 1.350 . S
C135 H161 0.931 . S
N136 Co132 2.148 . S
N136 C133 1.301 . S
N136 C134 1.317 . S
N137 C133 1.328 . S
N137 C135 1.350 . S
H138 C133 0.930 . S
H139 C134 0.930 . S
C140 O141 1.224 . S
C140 O159 1.247 . S
O141 C140 1.224 . S
N142 Co132 2.128 . S
N142 C143 1.355 . S
N142 C145 1.311 . S
C143 N142 1.355 . S
C143 C144 1.363 . S
C143 H155 0.929 . S
C144 C143 1.363 . S
C144 N146 1.375 . S
C144 H162 0.931 . S
C145 N142 1.311 . S
C145 N146 1.347 . S
C145 H156 0.929 . S
N146 C144 1.375 . S
N146 C145 1.347 . S
C147 C150 1.365 . S
C147 N152 1.328 1_655 S
C147 H153 0.929 . S
C148 C149 1.362 1_455 S
C148 C151 1.378 . S
C148 H163 0.929 . S
C149 C148 1.362 1_655 S
C149 C150 1.366 . S
C150 C147 1.365 . S
C150 C149 1.366 . S
C150 H164 0.930 . S
C151 C148 1.378 . S
C151 N152 1.315 . S
C151 H154 0.930 . S
N152 Co132 2.194 . S
N152 C147 1.328 1_455 S
N152 C151 1.315 . S
H153 C147 0.929 . S
H154 C151 0.930 . S
H155 C143 0.929 . S
H156 C145 0.929 . S
O157 Co132 2.351 1_554 S
O157 C160 1.244 . S
O158 Co132 2.155 1_554 S
O158 C160 1.240 . S
O159 Co132 2.096 . S
O159 C140 1.247 . S
C160 O157 1.244 . S
C160 O158 1.240 . S
H161 C135 0.931 . S
H162 C144 0.931 . S
H163 C148 0.929 . S
H164 C150 0.930 . S
Co165 N169 2.148 . S
Co165 N175 2.128 . S
Co165 N185 2.194 . S
Co165 O190 2.351 . S
Co165 O191 2.155 . S
Co165 O192 2.096 . S
C166 N169 1.301 . S
C166 N170 1.328 . S
C166 H171 0.930 . S
C167 C168 1.333 . S
C167 N169 1.317 . S
C167 H172 0.930 . S
C168 C167 1.333 . S
C168 N170 1.350 . S
C168 H194 0.931 . S
N169 Co165 2.148 . S
N169 C166 1.301 . S
N169 C167 1.317 . S
N170 C166 1.328 . S
N170 C168 1.350 . S
H171 C166 0.930 . S
H172 C167 0.930 . S
C173 O174 1.224 . S
C173 O192 1.247 . S
O174 C173 1.224 . S
N175 Co165 2.128 . S
N175 C176 1.355 . S
N175 C178 1.311 . S
C176 N175 1.355 . S
C176 C177 1.363 . S
C176 H188 0.929 . S
C177 C176 1.363 . S
C177 N179 1.375 . S
C177 H195 0.931 . S
C178 N175 1.311 . S
C178 N179 1.347 . S
C178 H189 0.929 . S
N179 C177 1.375 . S
N179 C178 1.347 . S
C180 C183 1.365 . S
C180 N185 1.328 1_655 S
C180 H186 0.929 . S
C181 C182 1.362 1_455 S
C181 C184 1.378 . S
C181 H196 0.929 . S
C182 C181 1.362 1_655 S
C182 C183 1.366 . S
C183 C180 1.365 . S
C183 C182 1.366 . S
C183 H197 0.930 . S
C184 C181 1.378 . S
C184 N185 1.315 . S
C184 H187 0.930 . S
N185 Co165 2.194 . S
N185 C180 1.328 1_455 S
N185 C184 1.315 . S
H186 C180 0.929 . S
H187 C184 0.930 . S
H188 C176 0.929 . S
H189 C178 0.929 . S
O190 Co165 2.351 . S
O190 C193 1.244 . S
O191 Co165 2.155 . S
O191 C193 1.240 . S
O192 Co165 2.096 . S
O192 C173 1.247 . S
C193 O190 1.244 . S
C193 O191 1.240 . S
H194 C168 0.931 . S
H195 C177 0.931 . S
H196 C181 0.929 . S
H197 C183 0.930 . S
Co198 N202 2.148 . S
Co198 N208 2.128 . S
Co198 N218 2.194 . S
Co198 O223 2.351 1_554 S
Co198 O224 2.155 1_554 S
Co198 O225 2.096 . S
C199 N202 1.301 . S
C199 N203 1.328 . S
C199 H204 0.930 . S
C200 C201 1.333 . S
C200 N202 1.317 . S
C200 H205 0.930 . S
C201 C200 1.333 . S
C201 N203 1.350 . S
C201 H227 0.931 . S
N202 Co198 2.148 . S
N202 C199 1.301 . S
N202 C200 1.317 . S
N203 C199 1.328 . S
N203 C201 1.350 . S
H204 C199 0.930 . S
H205 C200 0.930 . S
C206 O207 1.224 . S
C206 O225 1.247 . S
O207 C206 1.224 . S
N208 Co198 2.128 . S
N208 C209 1.355 . S
N208 C211 1.311 . S
C209 N208 1.355 . S
C209 C210 1.363 . S
C209 H221 0.929 . S
C210 C209 1.363 . S
C210 N212 1.375 . S
C210 H228 0.931 . S
C211 N208 1.311 . S
C211 N212 1.347 . S
C211 H222 0.929 . S
N212 C210 1.375 . S
N212 C211 1.347 . S
C213 C216 1.365 . S
C213 N218 1.328 1_455 S
C213 H219 0.929 . S
C214 C215 1.362 1_655 S
C214 C217 1.378 . S
C214 H229 0.929 . S
C215 C214 1.362 1_455 S
C215 C216 1.366 . S
C216 C213 1.365 . S
C216 C215 1.366 . S
C216 H230 0.930 . S
C217 C214 1.378 . S
C217 N218 1.315 . S
C217 H220 0.930 . S
N218 Co198 2.194 . S
N218 C213 1.328 1_655 S
N218 C217 1.315 . S
H219 C213 0.929 . S
H220 C217 0.930 . S
H221 C209 0.929 . S
H222 C211 0.929 . S
O223 Co198 2.351 1_556 S
O223 C226 1.244 . S
O224 Co198 2.155 1_556 S
O224 C226 1.240 . S
O225 Co198 2.096 . S
O225 C206 1.247 . S
C226 O223 1.244 . S
C226 O224 1.240 . S
H227 C201 0.931 . S
H228 C210 0.931 . S
H229 C214 0.929 . S
H230 C216 0.930 . S
Co231 N235 2.148 . S
Co231 N241 2.128 . S
Co231 N251 2.194 . S
Co231 O256 2.351 . S
Co231 O257 2.155 . S
Co231 O258 2.096 . S
C232 N235 1.301 . S
C232 N236 1.328 . S
C232 H237 0.930 . S
C233 C234 1.333 . S
C233 N235 1.317 . S
C233 H238 0.930 . S
C234 C233 1.333 . S
C234 N236 1.350 . S
C234 H260 0.931 . S
N235 Co231 2.148 . S
N235 C232 1.301 . S
N235 C233 1.317 . S
N236 C232 1.328 . S
N236 C234 1.350 . S
H237 C232 0.930 . S
H238 C233 0.930 . S
C239 O240 1.224 . S
C239 O258 1.247 . S
O240 C239 1.224 . S
N241 Co231 2.128 . S
N241 C242 1.355 . S
N241 C244 1.311 . S
C242 N241 1.355 . S
C242 C243 1.363 . S
C242 H254 0.929 . S
C243 C242 1.363 . S
C243 N245 1.375 . S
C243 H261 0.931 . S
C244 N241 1.311 . S
C244 N245 1.347 . S
C244 H255 0.929 . S
N245 C243 1.375 . S
N245 C244 1.347 . S
C246 C249 1.365 . S
C246 N251 1.328 1_455 S
C246 H252 0.929 . S
C247 C248 1.362 1_655 S
C247 C250 1.378 . S
C247 H262 0.929 . S
C248 C247 1.362 1_455 S
C248 C249 1.366 . S
C249 C246 1.365 . S
C249 C248 1.366 . S
C249 H263 0.930 . S
C250 C247 1.378 . S
C250 N251 1.315 . S
C250 H253 0.930 . S
N251 Co231 2.194 . S
N251 C246 1.328 1_655 S
N251 C250 1.315 . S
H252 C246 0.929 . S
H253 C250 0.930 . S
H254 C242 0.929 . S
H255 C244 0.929 . S
O256 Co231 2.351 . S
O256 C259 1.244 . S
O257 Co231 2.155 . S
O257 C259 1.240 . S
O258 Co231 2.096 . S
O258 C239 1.247 . S
C259 O256 1.244 . S
C259 O257 1.240 . S
H260 C234 0.931 . S
H261 C243 0.931 . S
H262 C247 0.929 . S
H263 C249 0.930 . S
Co264 N268 2.148 . S
Co264 N274 2.128 . S
Co264 N284 2.194 . S
Co264 O289 2.351 1_556 S
Co264 O290 2.155 1_556 S
Co264 O291 2.096 . S
C265 N268 1.301 . S
C265 N269 1.328 . S
C265 H270 0.930 . S
C266 C267 1.333 . S
C266 N268 1.317 . S
C266 H271 0.930 . S
C267 C266 1.333 . S
C267 N269 1.350 . S
C267 H293 0.931 . S
N268 Co264 2.148 . S
N268 C265 1.301 . S
N268 C266 1.317 . S
N269 C265 1.328 . S
N269 C267 1.350 . S
H270 C265 0.930 . S
H271 C266 0.930 . S
C272 O273 1.224 . S
C272 O291 1.247 . S
O273 C272 1.224 . S
N274 Co264 2.128 . S
N274 C275 1.355 . S
N274 C277 1.311 . S
C275 N274 1.355 . S
C275 C276 1.363 . S
C275 H287 0.929 . S
C276 C275 1.363 . S
C276 N278 1.375 . S
C276 H294 0.931 . S
C277 N274 1.311 . S
C277 N278 1.347 . S
C277 H288 0.929 . S
N278 C276 1.375 . S
N278 C277 1.347 . S
C279 C282 1.365 . S
C279 N284 1.328 . S
C279 H285 0.929 . S
C280 C281 1.362 . S
C280 C283 1.378 . S
C280 H295 0.929 . S
C281 C280 1.362 . S
C281 C282 1.366 . S
C282 C279 1.365 . S
C282 C281 1.366 . S
C282 H296 0.930 . S
C283 C280 1.378 . S
C283 N284 1.315 . S
C283 H286 0.930 . S
N284 Co264 2.194 . S
N284 C279 1.328 . S
N284 C283 1.315 . S
H285 C279 0.929 . S
H286 C283 0.930 . S
H287 C275 0.929 . S
H288 C277 0.929 . S
O289 Co264 2.351 1_554 S
O289 C292 1.244 . S
O290 Co264 2.155 1_554 S
O290 C292 1.240 . S
O291 Co264 2.096 . S
O291 C272 1.247 . S
C292 O289 1.244 . S
C292 O290 1.240 . S
H293 C267 0.931 . S
H294 C276 0.931 . S
H295 C280 0.929 . S
H296 C282 0.930 . S
Co297 N301 2.148 . S
Co297 N307 2.128 . S
Co297 N317 2.194 . S
Co297 O322 2.351 . S
Co297 O323 2.155 . S
Co297 O324 2.096 . S
C298 N301 1.301 . S
C298 N302 1.328 . S
C298 H303 0.930 . S
C299 C300 1.333 . S
C299 N301 1.317 . S
C299 H304 0.930 . S
C300 C299 1.333 . S
C300 N302 1.350 . S
C300 H326 0.931 . S
N301 Co297 2.148 . S
N301 C298 1.301 . S
N301 C299 1.317 . S
N302 C298 1.328 . S
N302 C300 1.350 . S
H303 C298 0.930 . S
H304 C299 0.930 . S
C305 O306 1.224 . S
C305 O324 1.247 . S
O306 C305 1.224 . S
N307 Co297 2.128 . S
N307 C308 1.355 . S
N307 C310 1.311 . S
C308 N307 1.355 . S
C308 C309 1.363 . S
C308 H320 0.929 . S
C309 C308 1.363 . S
C309 N311 1.375 . S
C309 H327 0.931 . S
C310 N307 1.311 . S
C310 N311 1.347 . S
C310 H321 0.929 . S
N311 C309 1.375 . S
N311 C310 1.347 . S
C312 C315 1.365 . S
C312 N317 1.328 . S
C312 H318 0.929 . S
C313 C314 1.362 . S
C313 C316 1.378 . S
C313 H328 0.929 . S
C314 C313 1.362 . S
C314 C315 1.366 . S
C315 C312 1.365 . S
C315 C314 1.366 . S
C315 H329 0.930 . S
C316 C313 1.378 . S
C316 N317 1.315 . S
C316 H319 0.930 . S
N317 Co297 2.194 . S
N317 C312 1.328 . S
N317 C316 1.315 . S
H318 C312 0.929 . S
H319 C316 0.930 . S
H320 C308 0.929 . S
H321 C310 0.929 . S
O322 Co297 2.351 . S
O322 C325 1.244 . S
O323 Co297 2.155 . S
O323 C325 1.240 . S
O324 Co297 2.096 . S
O324 C305 1.247 . S
C325 O322 1.244 . S
C325 O323 1.240 . S
H326 C300 0.931 . S
H327 C309 0.931 . S
H328 C313 0.929 . S
H329 C315 0.930 . S
Co330 N334 2.148 . S
Co330 N340 2.128 . S
Co330 N350 2.194 . S
Co330 O355 2.351 1_554 S
Co330 O356 2.155 1_554 S
Co330 O357 2.096 . S
C331 N334 1.301 . S
C331 N335 1.328 . S
C331 H336 0.930 . S
C332 C333 1.333 . S
C332 N334 1.317 . S
C332 H337 0.930 . S
C333 C332 1.333 . S
C333 N335 1.350 . S
C333 H359 0.931 . S
N334 Co330 2.148 . S
N334 C331 1.301 . S
N334 C332 1.317 . S
N335 C331 1.328 . S
N335 C333 1.350 . S
H336 C331 0.930 . S
H337 C332 0.930 . S
C338 O339 1.224 . S
C338 O357 1.247 . S
O339 C338 1.224 . S
N340 Co330 2.128 . S
N340 C341 1.355 . S
N340 C343 1.311 . S
C341 N340 1.355 . S
C341 C342 1.363 . S
C341 H353 0.929 . S
C342 C341 1.363 . S
C342 N344 1.375 . S
C342 H360 0.931 . S
C343 N340 1.311 . S
C343 N344 1.347 . S
C343 H354 0.929 . S
N344 C342 1.375 . S
N344 C343 1.347 . S
C345 C348 1.365 . S
C345 N350 1.328 . S
C345 H351 0.929 . S
C346 C347 1.362 . S
C346 C349 1.378 . S
C346 H361 0.929 . S
C347 C346 1.362 . S
C347 C348 1.366 . S
C348 C345 1.365 . S
C348 C347 1.366 . S
C348 H362 0.930 . S
C349 C346 1.378 . S
C349 N350 1.315 . S
C349 H352 0.930 . S
N350 Co330 2.194 . S
N350 C345 1.328 . S
N350 C349 1.315 . S
H351 C345 0.929 . S
H352 C349 0.930 . S
H353 C341 0.929 . S
H354 C343 0.929 . S
O355 Co330 2.351 1_556 S
O355 C358 1.244 . S
O356 Co330 2.155 1_556 S
O356 C358 1.240 . S
O357 Co330 2.096 . S
O357 C338 1.247 . S
C358 O355 1.244 . S
C358 O356 1.240 . S
H359 C333 0.931 . S
H360 C342 0.931 . S
H361 C346 0.929 . S
H362 C348 0.930 . S
Co363 N367 2.148 . S
Co363 N373 2.128 . S
Co363 N383 2.194 . S
Co363 O388 2.351 . S
Co363 O389 2.155 . S
Co363 O390 2.096 . S
C364 N367 1.301 . S
C364 N368 1.328 . S
C364 H369 0.930 . S
C365 C366 1.333 . S
C365 N367 1.317 . S
C365 H370 0.930 . S
C366 C365 1.333 . S
C366 N368 1.350 . S
C366 H392 0.931 . S
N367 Co363 2.148 . S
N367 C364 1.301 . S
N367 C365 1.317 . S
N368 C364 1.328 . S
N368 C366 1.350 . S
H369 C364 0.930 . S
H370 C365 0.930 . S
C371 O372 1.224 . S
C371 O390 1.247 . S
O372 C371 1.224 . S
N373 Co363 2.128 . S
N373 C374 1.355 . S
N373 C376 1.311 . S
C374 N373 1.355 . S
C374 C375 1.363 . S
C374 H386 0.929 . S
C375 C374 1.363 . S
C375 N377 1.375 . S
C375 H393 0.931 . S
C376 N373 1.311 . S
C376 N377 1.347 . S
C376 H387 0.929 . S
N377 C375 1.375 . S
N377 C376 1.347 . S
C378 C381 1.365 . S
C378 N383 1.328 . S
C378 H384 0.929 . S
C379 C380 1.362 . S
C379 C382 1.378 . S
C379 H394 0.929 . S
C380 C379 1.362 . S
C380 C381 1.366 . S
C381 C378 1.365 . S
C381 C380 1.366 . S
C381 H395 0.930 . S
C382 C379 1.378 . S
C382 N383 1.315 . S
C382 H385 0.930 . S
N383 Co363 2.194 . S
N383 C378 1.328 . S
N383 C382 1.315 . S
H384 C378 0.929 . S
H385 C382 0.930 . S
H386 C374 0.929 . S
H387 C376 0.929 . S
O388 Co363 2.351 . S
O388 C391 1.244 . S
O389 Co363 2.155 . S
O389 C391 1.240 . S
O390 Co363 2.096 . S
O390 C371 1.247 . S
C391 O388 1.244 . S
C391 O389 1.240 . S
H392 C366 0.931 . S
H393 C375 0.931 . S
H394 C379 0.929 . S
H395 C381 0.930 . S
Co396 N400 2.148 . S
Co396 N406 2.128 . S
Co396 N416 2.194 . S
Co396 O421 2.351 . S
Co396 O422 2.155 . S
Co396 O423 2.096 . S
C397 N400 1.301 . S
C397 N401 1.328 . S
C397 H402 0.930 . S
C398 C399 1.333 . S
C398 N400 1.317 . S
C398 H403 0.930 . S
C399 C398 1.333 . S
C399 N401 1.350 . S
C399 H425 0.931 . S
N400 Co396 2.148 . S
N400 C397 1.301 . S
N400 C398 1.317 . S
N401 C397 1.328 . S
N401 C399 1.350 . S
H402 C397 0.930 . S
H403 C398 0.930 . S
C404 O405 1.224 . S
C404 O423 1.247 . S
O405 C404 1.224 . S
N406 Co396 2.128 . S
N406 C407 1.355 . S
N406 C409 1.311 . S
C407 N406 1.355 . S
C407 C408 1.363 . S
C407 H419 0.929 . S
C408 C407 1.363 . S
C408 N410 1.375 . S
C408 H426 0.931 . S
C409 N406 1.311 . S
C409 N410 1.347 . S
C409 H420 0.929 . S
N410 C408 1.375 . S
N410 C409 1.347 . S
C411 C414 1.365 . S
C411 N416 1.328 . S
C411 H417 0.929 . S
C412 C413 1.362 . S
C412 C415 1.378 . S
C412 H427 0.929 . S
C413 C412 1.362 . S
C413 C414 1.366 . S
C414 C411 1.365 . S
C414 C413 1.366 . S
C414 H428 0.930 . S
C415 C412 1.378 . S
C415 N416 1.315 . S
C415 H418 0.930 . S
N416 Co396 2.194 . S
N416 C411 1.328 . S
N416 C415 1.315 . S
H417 C411 0.929 . S
H418 C415 0.930 . S
H419 C407 0.929 . S
H420 C409 0.929 . S
O421 Co396 2.351 . S
O421 C424 1.244 . S
O422 Co396 2.155 . S
O422 C424 1.240 . S
O423 Co396 2.096 . S
O423 C404 1.247 . S
C424 O421 1.244 . S
C424 O422 1.240 . S
H425 C399 0.931 . S
H426 C408 0.931 . S
H427 C412 0.929 . S
H428 C414 0.930 . S
Co429 N433 2.148 . S
Co429 N439 2.128 . S
Co429 N449 2.194 . S
Co429 O454 2.351 . S
Co429 O455 2.155 . S
Co429 O456 2.096 . S
C430 N433 1.301 . S
C430 N434 1.328 . S
C430 H435 0.930 . S
C431 C432 1.333 . S
C431 N433 1.317 . S
C431 H436 0.930 . S
C432 C431 1.333 . S
C432 N434 1.350 . S
C432 H458 0.931 . S
N433 Co429 2.148 . S
N433 C430 1.301 . S
N433 C431 1.317 . S
N434 C430 1.328 . S
N434 C432 1.350 . S
H435 C430 0.930 . S
H436 C431 0.930 . S
C437 O438 1.224 . S
C437 O456 1.247 . S
O438 C437 1.224 . S
N439 Co429 2.128 . S
N439 C440 1.355 . S
N439 C442 1.311 . S
C440 N439 1.355 . S
C440 C441 1.363 . S
C440 H452 0.929 . S
C441 C440 1.363 . S
C441 N443 1.375 . S
C441 H459 0.931 . S
C442 N439 1.311 . S
C442 N443 1.347 . S
C442 H453 0.929 . S
N443 C441 1.375 . S
N443 C442 1.347 . S
C444 C447 1.365 . S
C444 N449 1.328 . S
C444 H450 0.929 . S
C445 C446 1.362 . S
C445 C448 1.378 . S
C445 H460 0.929 . S
C446 C445 1.362 . S
C446 C447 1.366 . S
C447 C444 1.365 . S
C447 C446 1.366 . S
C447 H461 0.930 . S
C448 C445 1.378 . S
C448 N449 1.315 . S
C448 H451 0.930 . S
N449 Co429 2.194 . S
N449 C444 1.328 . S
N449 C448 1.315 . S
H450 C444 0.929 . S
H451 C448 0.930 . S
H452 C440 0.929 . S
H453 C442 0.929 . S
O454 Co429 2.351 . S
O454 C457 1.244 . S
O455 Co429 2.155 . S
O455 C457 1.240 . S
O456 Co429 2.096 . S
O456 C437 1.247 . S
C457 O454 1.244 . S
C457 O455 1.240 . S
H458 C432 0.931 . S
H459 C441 0.931 . S
H460 C445 0.929 . S
H461 C447 0.930 . S
Co462 N466 2.148 . S
Co462 N472 2.128 . S
Co462 N482 2.194 . S
Co462 O487 2.351 . S
Co462 O488 2.155 . S
Co462 O489 2.096 . S
C463 N466 1.301 . S
C463 N467 1.328 . S
C463 H468 0.930 . S
C464 C465 1.333 . S
C464 N466 1.317 . S
C464 H469 0.930 . S
C465 C464 1.333 . S
C465 N467 1.350 . S
C465 H491 0.931 . S
N466 Co462 2.148 . S
N466 C463 1.301 . S
N466 C464 1.317 . S
N467 C463 1.328 . S
N467 C465 1.350 . S
H468 C463 0.930 . S
H469 C464 0.930 . S
C470 O471 1.224 . S
C470 O489 1.247 . S
O471 C470 1.224 . S
N472 Co462 2.128 . S
N472 C473 1.355 . S
N472 C475 1.311 . S
C473 N472 1.355 . S
C473 C474 1.363 . S
C473 H485 0.929 . S
C474 C473 1.363 . S
C474 N476 1.375 . S
C474 H492 0.931 . S
C475 N472 1.311 . S
C475 N476 1.347 . S
C475 H486 0.929 . S
N476 C474 1.375 . S
N476 C475 1.347 . S
C477 C480 1.365 . S
C477 N482 1.328 . S
C477 H483 0.929 . S
C478 C479 1.362 . S
C478 C481 1.378 . S
C478 H493 0.929 . S
C479 C478 1.362 . S
C479 C480 1.366 . S
C480 C477 1.365 . S
C480 C479 1.366 . S
C480 H494 0.930 . S
C481 C478 1.378 . S
C481 N482 1.315 . S
C481 H484 0.930 . S
N482 Co462 2.194 . S
N482 C477 1.328 . S
N482 C481 1.315 . S
H483 C477 0.929 . S
H484 C481 0.930 . S
H485 C473 0.929 . S
H486 C475 0.929 . S
O487 Co462 2.351 . S
O487 C490 1.244 . S
O488 Co462 2.155 . S
O488 C490 1.240 . S
O489 Co462 2.096 . S
O489 C470 1.247 . S
C490 O487 1.244 . S
C490 O488 1.240 . S
H491 C465 0.931 . S
H492 C474 0.931 . S
H493 C478 0.929 . S
H494 C480 0.930 . S
Co495 N499 2.148 . S
Co495 N505 2.128 . S
Co495 N515 2.194 . S
Co495 O520 2.351 . S
Co495 O521 2.155 . S
Co495 O522 2.096 . S
C496 N499 1.301 . S
C496 N500 1.328 . S
C496 H501 0.930 . S
C497 C498 1.333 . S
C497 N499 1.317 . S
C497 H502 0.930 . S
C498 C497 1.333 . S
C498 N500 1.350 . S
C498 H524 0.931 . S
N499 Co495 2.148 . S
N499 C496 1.301 . S
N499 C497 1.317 . S
N500 C496 1.328 . S
N500 C498 1.350 . S
H501 C496 0.930 . S
H502 C497 0.930 . S
C503 O504 1.224 . S
C503 O522 1.247 . S
O504 C503 1.224 . S
N505 Co495 2.128 . S
N505 C506 1.355 . S
N505 C508 1.311 . S
C506 N505 1.355 . S
C506 C507 1.363 . S
C506 H518 0.929 . S
C507 C506 1.363 . S
C507 N509 1.375 . S
C507 H525 0.931 . S
C508 N505 1.311 . S
C508 N509 1.347 . S
C508 H519 0.929 . S
N509 C507 1.375 . S
N509 C508 1.347 . S
C510 C513 1.365 . S
C510 N515 1.328 . S
C510 H516 0.929 . S
C511 C512 1.362 . S
C511 C514 1.378 . S
C511 H526 0.929 . S
C512 C511 1.362 . S
C512 C513 1.366 . S
C513 C510 1.365 . S
C513 C512 1.366 . S
C513 H527 0.930 . S
C514 C511 1.378 . S
C514 N515 1.315 . S
C514 H517 0.930 . S
N515 Co495 2.194 . S
N515 C510 1.328 . S
N515 C514 1.315 . S
H516 C510 0.929 . S
H517 C514 0.930 . S
H518 C506 0.929 . S
H519 C508 0.929 . S
O520 Co495 2.351 . S
O520 C523 1.244 . S
O521 Co495 2.155 . S
O521 C523 1.240 . S
O522 Co495 2.096 . S
O522 C503 1.247 . S
C523 O520 1.244 . S
C523 O521 1.240 . S
H524 C498 0.931 . S
H525 C507 0.931 . S
H526 C511 0.929 . S
H527 C513 0.930 . S
H528 C536 0.950 . S
H529 C541 0.950 . S
H530 C538 0.950 . S
H531 C540 0.950 . S
H532 C542 0.950 . S
H533 C544 0.950 . S
H534 C546 0.950 . S
H535 C547 0.950 . S
C536 H528 0.950 . S
C536 C537 1.386 . S
C536 C538 1.391 . S
C537 C536 1.386 . S
C537 C541 1.393 . S
C538 H530 0.950 . S
C538 C536 1.391 . S
C538 C539 1.400 . S
C539 C538 1.400 . S
C539 C540 1.398 . S
C539 C545 1.491 . S
C540 H531 0.950 . S
C540 C539 1.398 . S
C540 C541 1.391 . S
C541 H529 0.950 . S
C541 C537 1.393 . S
C541 C540 1.391 . S
C542 H532 0.950 . S
C542 C543 1.386 . S
C542 C544 1.391 . S
C543 C542 1.386 . S
C543 C547 1.393 . S
C544 H533 0.950 . S
C544 C542 1.391 . S
C544 C545 1.400 . S
C545 C539 1.491 . S
C545 C544 1.400 . S
C545 C546 1.398 . S
C546 H534 0.950 . S
C546 C545 1.398 . S
C546 C547 1.391 . S
C547 H535 0.950 . S
C547 C543 1.393 . S
C547 C546 1.391 . S
H548 C556 0.950 . S
H549 C561 0.950 . S
H550 C558 0.950 . S
H551 C560 0.950 . S
H552 C562 0.950 . S
H553 C564 0.950 . S
H554 C566 0.950 . S
H555 C567 0.950 . S
C556 H548 0.950 . S
C556 C557 1.386 . S
C556 C558 1.391 . S
C557 C556 1.386 . S
C557 C561 1.393 1_655 S
C558 H550 0.950 . S
C558 C556 1.391 . S
C558 C559 1.400 . S
C559 C558 1.400 . S
C559 C560 1.398 1_655 S
C559 C565 1.491 1_665 S
C560 H551 0.950 . S
C560 C559 1.398 1_455 S
C560 C561 1.391 . S
C561 H549 0.950 . S
C561 C557 1.393 1_455 S
C561 C560 1.391 . S
C562 H552 0.950 . S
C562 C563 1.386 . S
C562 C564 1.391 . S
C563 C562 1.386 . S
C563 C567 1.393 1_455 S
C564 H553 0.950 . S
C564 C562 1.391 . S
C564 C565 1.400 . S
C565 C559 1.491 1_445 S
C565 C564 1.400 . S
C565 C566 1.398 1_455 S
C566 H554 0.950 . S
C566 C565 1.398 1_655 S
C566 C567 1.391 . S
C567 H555 0.950 . S
C567 C563 1.393 1_655 S
C567 C566 1.391 . S
H568 C576 0.950 . S
H569 C581 0.950 . S
H570 C578 0.950 1_565 S
H571 C580 0.950 . S
H572 C582 0.950 . S
H573 C584 0.950 1_545 S
H574 C586 0.950 . S
H575 C587 0.950 . S
C576 H568 0.950 . S
C576 C577 1.386 . S
C576 C578 1.391 . S
C577 C576 1.386 . S
C577 C581 1.393 . S
C578 H570 0.950 1_545 S
C578 C576 1.391 . S
C578 C579 1.400 . S
C579 C578 1.400 . S
C579 C580 1.398 . S
C579 C585 1.491 1_545 S
C580 H571 0.950 . S
C580 C579 1.398 . S
C580 C581 1.391 . S
C581 H569 0.950 . S
C581 C577 1.393 . S
C581 C580 1.391 . S
C582 H572 0.950 . S
C582 C583 1.386 . S
C582 C584 1.391 . S
C583 C582 1.386 . S
C583 C587 1.393 . S
C584 H573 0.950 1_565 S
C584 C582 1.391 . S
C584 C585 1.400 . S
C585 C579 1.491 1_565 S
C585 C584 1.400 . S
C585 C586 1.398 . S
C586 H574 0.950 . S
C586 C585 1.398 . S
C586 C587 1.391 . S
C587 H575 0.950 . S
C587 C583 1.393 . S
C587 C586 1.391 . S
H588 C596 0.950 1_455 S
H589 C601 0.950 . S
H590 C598 0.950 . S
H591 C600 0.950 . S
H592 C602 0.950 1_655 S
H593 C604 0.950 . S
H594 C606 0.950 . S
H595 C607 0.950 . S
C596 H588 0.950 1_655 S
C596 C597 1.386 . S
C596 C598 1.391 1_655 S
C597 C596 1.386 . S
C597 C601 1.393 . S
C598 H590 0.950 . S
C598 C596 1.391 1_455 S
C598 C599 1.400 1_455 S
C599 C598 1.400 1_655 S
C599 C600 1.398 . S
C599 C605 1.491 1_655 S
C600 H591 0.950 . S
C600 C599 1.398 . S
C600 C601 1.391 . S
C601 H589 0.950 . S
C601 C597 1.393 . S
C601 C600 1.391 . S
C602 H592 0.950 1_455 S
C602 C603 1.386 . S
C602 C604 1.391 1_455 S
C603 C602 1.386 . S
C603 C607 1.393 . S
C604 H593 0.950 . S
C604 C602 1.391 1_655 S
C604 C605 1.400 1_655 S
C605 C599 1.491 1_455 S
C605 C604 1.400 1_455 S
C605 C606 1.398 . S
C606 H594 0.950 . S
C606 C605 1.398 . S
C606 C607 1.391 . S
C607 H595 0.950 . S
C607 C603 1.393 . S
C607 C606 1.391 . S
H608 C616 0.950 . S
H609 C621 0.950 . S
H610 C618 0.950 . S
H611 C620 0.950 . S
H612 C622 0.950 . S
H613 C624 0.950 . S
H614 C626 0.950 . S
H615 C627 0.950 . S
C616 H608 0.950 . S
C616 C617 1.386 . S
C616 C618 1.391 . S
C617 C616 1.386 . S
C617 C621 1.393 . S
C618 H610 0.950 . S
C618 C616 1.391 . S
C618 C619 1.400 . S
C619 C618 1.400 . S
C619 C620 1.398 . S
C619 C625 1.491 . S
C620 H611 0.950 . S
C620 C619 1.398 . S
C620 C621 1.391 . S
C621 H609 0.950 . S
C621 C617 1.393 . S
C621 C620 1.391 . S
C622 H612 0.950 . S
C622 C623 1.386 . S
C622 C624 1.391 . S
C623 C622 1.386 . S
C623 C627 1.393 . S
C624 H613 0.950 . S
C624 C622 1.391 . S
C624 C625 1.400 . S
C625 C619 1.491 . S
C625 C624 1.400 . S
C625 C626 1.398 . S
C626 H614 0.950 . S
C626 C625 1.398 . S
C626 C627 1.391 . S
C627 H615 0.950 . S
C627 C623 1.393 . S
C627 C626 1.391 . S
H628 C636 0.950 . S
H629 C641 0.950 . S
H630 C638 0.950 . S
H631 C640 0.950 1_545 S
H632 C642 0.950 . S
H633 C644 0.950 . S
H634 C646 0.950 1_565 S
H635 C647 0.950 . S
C636 H628 0.950 . S
C636 C637 1.386 . S
C636 C638 1.391 . S
C637 C636 1.386 . S
C637 C641 1.393 . S
C638 H630 0.950 . S
C638 C636 1.391 . S
C638 C639 1.400 . S
C639 C638 1.400 . S
C639 C640 1.398 . S
C639 C645 1.491 1_565 S
C640 H631 0.950 1_565 S
C640 C639 1.398 . S
C640 C641 1.391 . S
C641 H629 0.950 . S
C641 C637 1.393 . S
C641 C640 1.391 . S
C642 H632 0.950 . S
C642 C643 1.386 . S
C642 C644 1.391 . S
C643 C642 1.386 . S
C643 C647 1.393 . S
C644 H633 0.950 . S
C644 C642 1.391 . S
C644 C645 1.400 . S
C645 C639 1.491 1_545 S
C645 C644 1.400 . S
C645 C646 1.398 . S
C646 H634 0.950 1_545 S
C646 C645 1.398 . S
C646 C647 1.391 . S
C647 H635 0.950 . S
C647 C643 1.393 . S
C647 C646 1.391 . S
H648 C656 0.950 . S
H649 C661 0.950 1_455 S
H650 C658 0.950 . S
H651 C660 0.950 . S
H652 C662 0.950 . S
H653 C664 0.950 . S
H654 C666 0.950 . S
H655 C667 0.950 1_655 S
C656 H648 0.950 . S
C656 C657 1.386 . S
C656 C658 1.391 . S
C657 C656 1.386 . S
C657 C661 1.393 . S
C658 H650 0.950 . S
C658 C656 1.391 . S
C658 C659 1.400 . S
C659 C658 1.400 . S
C659 C660 1.398 1_655 S
C659 C665 1.491 1_655 S
C660 H651 0.950 . S
C660 C659 1.398 1_455 S
C660 C661 1.391 1_455 S
C661 H649 0.950 1_655 S
C661 C657 1.393 . S
C661 C660 1.391 1_655 S
C662 H652 0.950 . S
C662 C663 1.386 . S
C662 C664 1.391 . S
C663 C662 1.386 . S
C663 C667 1.393 . S
C664 H653 0.950 . S
C664 C662 1.391 . S
C664 C665 1.400 . S
C665 C659 1.491 1_455 S
C665 C664 1.400 . S
C665 C666 1.398 1_455 S
C666 H654 0.950 . S
C666 C665 1.398 1_655 S
C666 C667 1.391 1_655 S
C667 H655 0.950 1_455 S
C667 C663 1.393 . S
C667 C666 1.391 1_455 S
H668 C676 0.950 . S
H669 C681 0.950 1_556 S
H670 C678 0.950 . S
H671 C680 0.950 . S
H672 C682 0.950 . S
H673 C684 0.950 . S
H674 C686 0.950 . S
H675 C687 0.950 1_554 S
C676 H668 0.950 . S
C676 C677 1.386 . S
C676 C678 1.391 . S
C677 C676 1.386 . S
C677 C681 1.393 . S
C678 H670 0.950 . S
C678 C676 1.391 . S
C678 C679 1.400 . S
C679 C678 1.400 . S
C679 C680 1.398 1_554 S
C679 C685 1.491 1_554 S
C680 H671 0.950 . S
C680 C679 1.398 1_556 S
C680 C681 1.391 1_556 S
C681 H669 0.950 1_554 S
C681 C677 1.393 . S
C681 C680 1.391 1_554 S
C682 H672 0.950 . S
C682 C683 1.386 . S
C682 C684 1.391 . S
C683 C682 1.386 . S
C683 C687 1.393 . S
C684 H673 0.950 . S
C684 C682 1.391 . S
C684 C685 1.400 . S
C685 C679 1.491 1_556 S
C685 C684 1.400 . S
C685 C686 1.398 1_556 S
C686 H674 0.950 . S
C686 C685 1.398 1_554 S
C686 C687 1.391 1_554 S
C687 H675 0.950 1_556 S
C687 C683 1.393 . S
C687 C686 1.391 1_556 S
H688 C696 0.950 . S
H689 C701 0.950 . S
H690 C698 0.950 1_455 S
H691 C700 0.950 . S
H692 C702 0.950 . S
H693 C704 0.950 1_655 S
H694 C706 0.950 . S
H695 C707 0.950 . S
C696 H688 0.950 . S
C696 C697 1.386 1_556 S
C696 C698 1.391 . S
C697 C696 1.386 1_554 S
C697 C701 1.393 . S
C698 H690 0.950 1_655 S
C698 C696 1.391 . S
C698 C699 1.400 1_556 S
C699 C698 1.400 1_554 S
C699 C700 1.398 . S
C699 C705 1.491 1_654 S
C700 H691 0.950 . S
C700 C699 1.398 . S
C700 C701 1.391 . S
C701 H689 0.950 . S
C701 C697 1.393 . S
C701 C700 1.391 . S
C702 H692 0.950 . S
C702 C703 1.386 1_554 S
C702 C704 1.391 . S
C703 C702 1.386 1_556 S
C703 C707 1.393 . S
C704 H693 0.950 1_455 S
C704 C702 1.391 . S
C704 C705 1.400 1_554 S
C705 C699 1.491 1_456 S
C705 C704 1.400 1_556 S
C705 C706 1.398 . S
C706 H694 0.950 . S
C706 C705 1.398 . S
C706 C707 1.391 . S
C707 H695 0.950 . S
C707 C703 1.393 . S
C707 C706 1.391 . S
H708 C716 0.950 . S
H709 C721 0.950 . S
H710 C718 0.950 . S
H711 C720 0.950 . S
H712 C722 0.950 . S
H713 C724 0.950 . S
H714 C726 0.950 . S
H715 C727 0.950 . S
C716 H708 0.950 . S
C716 C717 1.386 . S
C716 C718 1.391 . S
C717 C716 1.386 . S
C717 C721 1.393 . S
C718 H710 0.950 . S
C718 C716 1.391 . S
C718 C719 1.400 . S
C719 C718 1.400 . S
C719 C720 1.398 . S
C719 C725 1.491 . S
C720 H711 0.950 . S
C720 C719 1.398 . S
C720 C721 1.391 . S
C721 H709 0.950 . S
C721 C717 1.393 . S
C721 C720 1.391 . S
C722 H712 0.950 . S
C722 C723 1.386 . S
C722 C724 1.391 . S
C723 C722 1.386 . S
C723 C727 1.393 . S
C724 H713 0.950 . S
C724 C722 1.391 . S
C724 C725 1.400 . S
C725 C719 1.491 . S
C725 C724 1.400 . S
C725 C726 1.398 . S
C726 H714 0.950 . S
C726 C725 1.398 . S
C726 C727 1.391 . S
C727 H715 0.950 . S
C727 C723 1.393 . S
C727 C726 1.391 . S
H728 C736 0.950 . S
H729 C741 0.959 . S
H730 C738 0.950 . S
H731 C740 0.950 . S
H732 C742 0.950 . S
H733 C744 0.950 . S
H734 C746 0.950 . S
H735 C747 0.959 . S
C736 H728 0.950 . S
C736 C737 1.386 . S
C736 C738 1.391 . S
C737 C736 1.386 . S
C737 C741 1.382 1_556 S
C738 H730 0.950 . S
C738 C736 1.391 . S
C738 C739 1.400 . S
C739 C738 1.400 . S
C739 C740 1.398 1_556 S
C739 C745 1.491 1_556 S
C740 H731 0.950 . S
C740 C739 1.398 1_554 S
C740 C741 1.392 . S
C741 H729 0.959 . S
C741 C737 1.382 1_554 S
C741 C740 1.392 . S
C742 H732 0.950 . S
C742 C743 1.386 . S
C742 C744 1.391 . S
C743 C742 1.386 . S
C743 C747 1.382 1_554 S
C744 H733 0.950 . S
C744 C742 1.391 . S
C744 C745 1.400 . S
C745 C739 1.491 1_554 S
C745 C744 1.400 . S
C745 C746 1.398 1_554 S
C746 H734 0.950 . S
C746 C745 1.398 1_556 S
C746 C747 1.392 . S
C747 H735 0.959 . S
C747 C743 1.382 1_556 S
C747 C746 1.392 . S
H748 C756 0.950 . S
H749 C761 0.950 . S
H750 C758 0.950 . S
H751 C760 0.950 . S
H752 C762 0.950 . S
H753 C764 0.950 . S
H754 C766 0.950 . S
H755 C767 0.950 . S
C756 H748 0.950 . S
C756 C757 1.386 . S
C756 C758 1.391 . S
C757 C756 1.386 . S
C757 C761 1.393 . S
C758 H750 0.950 . S
C758 C756 1.391 . S
C758 C759 1.400 . S
C759 C758 1.400 . S
C759 C760 1.398 . S
C759 C765 1.491 . S
C760 H751 0.950 . S
C760 C759 1.398 . S
C760 C761 1.391 . S
C761 H749 0.950 . S
C761 C757 1.393 . S
C761 C760 1.391 . S
C762 H752 0.950 . S
C762 C763 1.386 . S
C762 C764 1.391 . S
C763 C762 1.386 . S
C763 C767 1.393 . S
C764 H753 0.950 . S
C764 C762 1.391 . S
C764 C765 1.400 . S
C765 C759 1.491 . S
C765 C764 1.400 . S
C765 C766 1.398 . S
C766 H754 0.950 . S
C766 C765 1.398 . S
C766 C767 1.391 . S
C767 H755 0.950 . S
C767 C763 1.393 . S
C767 C766 1.391 . S
H768 C776 0.950 . S
H769 C781 0.950 . S
H770 C778 0.950 1_554 S
H771 C780 0.950 . S
H772 C782 0.950 . S
H773 C784 0.950 1_556 S
H774 C786 0.950 . S
H775 C787 0.950 . S
C776 H768 0.950 . S
C776 C777 1.386 . S
C776 C778 1.391 . S
C777 C776 1.386 . S
C777 C781 1.393 . S
C778 H770 0.950 1_556 S
C778 C776 1.391 . S
C778 C779 1.400 . S
C779 C778 1.400 . S
C779 C780 1.398 . S
C779 C785 1.491 1_546 S
C780 H771 0.950 . S
C780 C779 1.398 . S
C780 C781 1.391 . S
C781 H769 0.950 . S
C781 C777 1.393 . S
C781 C780 1.391 . S
C782 H772 0.950 . S
C782 C783 1.386 . S
C782 C784 1.391 . S
C783 C782 1.386 . S
C783 C787 1.393 . S
C784 H773 0.950 1_554 S
C784 C782 1.391 . S
C784 C785 1.400 . S
C785 C779 1.491 1_564 S
C785 C784 1.400 . S
C785 C786 1.398 . S
C786 H774 0.950 . S
C786 C785 1.398 . S
C786 C787 1.391 . S
C787 H775 0.950 . S
C787 C783 1.393 . S
C787 C786 1.391 . S
H788 C796 0.950 . S
H789 C801 0.950 . S
H790 C798 0.950 . S
H791 C800 0.950 . S
H792 C802 0.950 . S
H793 C804 0.950 . S
H794 C806 0.950 . S
H795 C807 0.950 . S
C796 H788 0.950 . S
C796 C797 1.386 . S
C796 C798 1.391 . S
C797 C796 1.386 . S
C797 C801 1.393 . S
C798 H790 0.950 . S
C798 C796 1.391 . S
C798 C799 1.400 . S
C799 C798 1.400 . S
C799 C800 1.398 . S
C799 C805 1.491 . S
C800 H791 0.950 . S
C800 C799 1.398 . S
C800 C801 1.391 . S
C801 H789 0.950 . S
C801 C797 1.393 . S
C801 C800 1.391 . S
C802 H792 0.950 . S
C802 C803 1.386 . S
C802 C804 1.391 . S
C803 C802 1.386 . S
C803 C807 1.393 . S
C804 H793 0.950 . S
C804 C802 1.391 . S
C804 C805 1.400 . S
C805 C799 1.491 . S
C805 C804 1.400 . S
C805 C806 1.398 . S
C806 H794 0.950 . S
C806 C805 1.398 . S
C806 C807 1.391 . S
C807 H795 0.950 . S
C807 C803 1.393 . S
C807 C806 1.391 . S
H808 C816 0.950 . S
H809 C821 0.950 . S
H810 C818 0.950 . S
H811 C820 0.950 . S
H812 C822 0.950 . S
H813 C824 0.950 . S
H814 C826 0.950 . S
H815 C827 0.950 . S
C816 H808 0.950 . S
C816 C817 1.386 . S
C816 C818 1.391 . S
C817 C816 1.386 . S
C817 C821 1.393 . S
C818 H810 0.950 . S
C818 C816 1.391 . S
C818 C819 1.400 . S
C819 C818 1.400 . S
C819 C820 1.398 . S
C819 C825 1.491 . S
C820 H811 0.950 . S
C820 C819 1.398 . S
C820 C821 1.391 . S
C821 H809 0.950 . S
C821 C817 1.393 . S
C821 C820 1.391 . S
C822 H812 0.950 . S
C822 C823 1.386 . S
C822 C824 1.391 . S
C823 C822 1.386 . S
C823 C827 1.393 . S
C824 H813 0.950 . S
C824 C822 1.391 . S
C824 C825 1.400 . S
C825 C819 1.491 . S
C825 C824 1.400 . S
C825 C826 1.398 . S
C826 H814 0.950 . S
C826 C825 1.398 . S
C826 C827 1.391 . S
C827 H815 0.950 . S
C827 C823 1.393 . S
C827 C826 1.391 . S
H828 C836 0.950 . S
H829 C841 0.950 . S
H830 C838 0.950 . S
H831 C840 0.950 . S
H832 C842 0.950 . S
H833 C844 0.950 . S
H834 C846 0.950 . S
H835 C847 0.950 . S
C836 H828 0.950 . S
C836 C837 1.386 . S
C836 C838 1.391 . S
C837 C836 1.386 . S
C837 C841 1.393 . S
C838 H830 0.950 . S
C838 C836 1.391 . S
C838 C839 1.400 . S
C839 C838 1.400 . S
C839 C840 1.398 . S
C839 C845 1.491 . S
C840 H831 0.950 . S
C840 C839 1.398 . S
C840 C841 1.391 . S
C841 H829 0.950 . S
C841 C837 1.393 . S
C841 C840 1.391 . S
C842 H832 0.950 . S
C842 C843 1.386 . S
C842 C844 1.391 . S
C843 C842 1.386 . S
C843 C847 1.393 . S
C844 H833 0.950 . S
C844 C842 1.391 . S
C844 C845 1.400 . S
C845 C839 1.491 . S
C845 C844 1.400 . S
C845 C846 1.398 . S
C846 H834 0.950 . S
C846 C845 1.398 . S
C846 C847 1.391 . S
C847 H835 0.950 . S
C847 C843 1.393 . S
C847 C846 1.391 . S
H848 C856 0.950 . S
H849 C861 0.950 . S
H850 C858 0.950 . S
H851 C860 0.950 . S
H852 C862 0.950 . S
H853 C864 0.950 . S
H854 C866 0.950 . S
H855 C867 0.950 . S
C856 H848 0.950 . S
C856 C857 1.386 . S
C856 C858 1.391 . S
C857 C856 1.386 . S
C857 C861 1.393 . S
C858 H850 0.950 . S
C858 C856 1.391 . S
C858 C859 1.400 . S
C859 C858 1.400 . S
C859 C860 1.398 . S
C859 C865 1.491 . S
C860 H851 0.950 . S
C860 C859 1.398 . S
C860 C861 1.391 . S
C861 H849 0.950 . S
C861 C857 1.393 . S
C861 C860 1.391 . S
C862 H852 0.950 . S
C862 C863 1.386 . S
C862 C864 1.391 . S
C863 C862 1.386 . S
C863 C867 1.393 . S
C864 H853 0.950 . S
C864 C862 1.391 . S
C864 C865 1.400 . S
C865 C859 1.491 . S
C865 C864 1.400 . S
C865 C866 1.398 . S
C866 H854 0.950 . S
C866 C865 1.398 . S
C866 C867 1.391 . S
C867 H855 0.950 . S
C867 C863 1.393 . S
C867 C866 1.391 . S
H868 C876 0.950 . S
H869 C881 0.950 . S
H870 C878 0.950 . S
H871 C880 0.950 . S
H872 C882 0.950 . S
H873 C884 0.950 . S
H874 C886 0.950 . S
H875 C887 0.950 . S
C876 H868 0.950 . S
C876 C877 1.386 . S
C876 C878 1.391 . S
C877 C876 1.386 . S
C877 C881 1.393 . S
C878 H870 0.950 . S
C878 C876 1.391 . S
C878 C879 1.400 . S
C879 C878 1.400 . S
C879 C880 1.398 . S
C879 C885 1.491 . S
C880 H871 0.950 . S
C880 C879 1.398 . S
C880 C881 1.391 . S
C881 H869 0.950 . S
C881 C877 1.393 . S
C881 C880 1.391 . S
C882 H872 0.950 . S
C882 C883 1.386 . S
C882 C884 1.391 . S
C883 C882 1.386 . S
C883 C887 1.393 . S
C884 H873 0.950 . S
C884 C882 1.391 . S
C884 C885 1.400 . S
C885 C879 1.491 . S
C885 C884 1.400 . S
C885 C886 1.398 . S
C886 H874 0.950 . S
C886 C885 1.398 . S
C886 C887 1.391 . S
C887 H875 0.950 . S
C887 C883 1.393 . S
C887 C886 1.391 . S
H888 C896 0.950 . S
H889 C901 0.950 . S
H890 C898 0.950 . S
H891 C900 0.950 . S
H892 C902 0.950 . S
H893 C904 0.950 . S
H894 C906 0.950 . S
H895 C907 0.950 . S
C896 H888 0.950 . S
C896 C897 1.386 . S
C896 C898 1.391 . S
C897 C896 1.386 . S
C897 C901 1.393 . S
C898 H890 0.950 . S
C898 C896 1.391 . S
C898 C899 1.400 . S
C899 C898 1.400 . S
C899 C900 1.398 . S
C899 C905 1.491 . S
C900 H891 0.950 . S
C900 C899 1.398 . S
C900 C901 1.391 . S
C901 H889 0.950 . S
C901 C897 1.393 . S
C901 C900 1.391 . S
C902 H892 0.950 . S
C902 C903 1.386 . S
C902 C904 1.391 . S
C903 C902 1.386 . S
C903 C907 1.393 . S
C904 H893 0.950 . S
C904 C902 1.391 . S
C904 C905 1.400 . S
C905 C899 1.491 . S
C905 C904 1.400 . S
C905 C906 1.398 . S
C906 H894 0.950 . S
C906 C905 1.398 . S
C906 C907 1.391 . S
C907 H895 0.950 . S
C907 C903 1.393 . S
C907 C906 1.391 . S
H908 C916 0.950 . S
H909 C921 0.950 . S
H910 C918 0.950 . S
H911 C920 0.950 . S
H912 C922 0.950 . S
H913 C924 0.950 . S
H914 C926 0.950 . S
H915 C927 0.950 . S
C916 H908 0.950 . S
C916 C917 1.386 . S
C916 C918 1.391 . S
C917 C916 1.386 . S
C917 C921 1.393 . S
C918 H910 0.950 . S
C918 C916 1.391 . S
C918 C919 1.400 . S
C919 C918 1.400 . S
C919 C920 1.398 . S
C919 C925 1.491 . S
C920 H911 0.950 . S
C920 C919 1.398 . S
C920 C921 1.391 . S
C921 H909 0.950 . S
C921 C917 1.393 . S
C921 C920 1.391 . S
C922 H912 0.950 . S
C922 C923 1.386 . S
C922 C924 1.391 . S
C923 C922 1.386 . S
C923 C927 1.393 . S
C924 H913 0.950 . S
C924 C922 1.391 . S
C924 C925 1.400 . S
C925 C919 1.491 . S
C925 C924 1.400 . S
C925 C926 1.398 . S
C926 H914 0.950 . S
C926 C925 1.398 . S
C926 C927 1.391 . S
C927 H915 0.950 . S
C927 C923 1.393 . S
C927 C926 1.391 . S
H928 C936 0.950 . S
H929 C941 0.950 . S
H930 C938 0.950 . S
H931 C940 0.950 . S
H932 C942 0.950 . S
H933 C944 0.950 . S
H934 C946 0.950 . S
H935 C947 0.950 . S
C936 H928 0.950 . S
C936 C937 1.386 . S
C936 C938 1.391 . S
C937 C936 1.386 . S
C937 C941 1.393 . S
C938 H930 0.950 . S
C938 C936 1.391 . S
C938 C939 1.400 . S
C939 C938 1.400 . S
C939 C940 1.398 . S
C939 C945 1.491 . S
C940 H931 0.950 . S
C940 C939 1.398 . S
C940 C941 1.391 . S
C941 H929 0.950 . S
C941 C937 1.393 . S
C941 C940 1.391 . S
C942 H932 0.950 . S
C942 C943 1.386 . S
C942 C944 1.391 . S
C943 C942 1.386 . S
C943 C947 1.393 . S
C944 H933 0.950 . S
C944 C942 1.391 . S
C944 C945 1.400 . S
C945 C939 1.491 . S
C945 C944 1.400 . S
C945 C946 1.398 . S
C946 H934 0.950 . S
C946 C945 1.398 . S
C946 C947 1.391 . S
C947 H935 0.950 . S
C947 C943 1.393 . S
C947 C946 1.391 . S
H948 C956 0.950 . S
H949 C961 0.950 . S
H950 C958 0.950 . S
H951 C960 0.950 . S
H952 C962 0.950 . S
H953 C964 0.950 . S
H954 C966 0.950 . S
H955 C967 0.950 . S
C956 H948 0.950 . S
C956 C957 1.386 . S
C956 C958 1.391 . S
C957 C956 1.386 . S
C957 C961 1.393 . S
C958 H950 0.950 . S
C958 C956 1.391 . S
C958 C959 1.400 . S
C959 C958 1.400 . S
C959 C960 1.398 . S
C959 C965 1.491 . S
C960 H951 0.950 . S
C960 C959 1.398 . S
C960 C961 1.391 . S
C961 H949 0.950 . S
C961 C957 1.393 . S
C961 C960 1.391 . S
C962 H952 0.950 . S
C962 C963 1.386 . S
C962 C964 1.391 . S
C963 C962 1.386 . S
C963 C967 1.393 . S
C964 H953 0.950 . S
C964 C962 1.391 . S
C964 C965 1.400 . S
C965 C959 1.491 . S
C965 C964 1.400 . S
C965 C966 1.398 . S
C966 H954 0.950 . S
C966 C965 1.398 . S
C966 C967 1.391 . S
C967 H955 0.950 . S
C967 C963 1.393 . S
C967 C966 1.391 . S
H968 C976 0.950 . S
H969 C981 0.950 . S
H970 C978 0.950 . S
H971 C980 0.950 . S
H972 C982 0.950 . S
H973 C984 0.950 . S
H974 C986 0.950 . S
H975 C987 0.950 . S
C976 H968 0.950 . S
C976 C977 1.386 . S
C976 C978 1.391 . S
C977 C976 1.386 . S
C977 C981 1.393 . S
C978 H970 0.950 . S
C978 C976 1.391 . S
C978 C979 1.400 . S
C979 C978 1.400 . S
C979 C980 1.398 . S
C979 C985 1.491 . S
C980 H971 0.950 . S
C980 C979 1.398 . S
C980 C981 1.391 . S
C981 H969 0.950 . S
C981 C977 1.393 . S
C981 C980 1.391 . S
C982 H972 0.950 . S
C982 C983 1.386 . S
C982 C984 1.391 . S
C983 C982 1.386 . S
C983 C987 1.393 . S
C984 H973 0.950 . S
C984 C982 1.391 . S
C984 C985 1.400 . S
C985 C979 1.491 . S
C985 C984 1.400 . S
C985 C986 1.398 . S
C986 H974 0.950 . S
C986 C985 1.398 . S
C986 C987 1.391 . S
C987 H975 0.950 . S
C987 C983 1.393 . S
C987 C986 1.391 . S
H988 C996 0.950 . S
H989 C1001 0.950 . S
H990 C998 0.950 . S
H991 C1000 0.950 . S
H992 C1002 0.950 . S
H993 C1004 0.950 . S
H994 C1006 0.950 . S
H995 C1007 0.950 . S
C996 H988 0.950 . S
C996 C997 1.386 . S
C996 C998 1.391 . S
C997 C996 1.386 . S
C997 C1001 1.393 . S
C998 H990 0.950 . S
C998 C996 1.391 . S
C998 C999 1.400 . S
C999 C998 1.400 . S
C999 C1000 1.398 . S
C999 C1005 1.491 . S
C1000 H991 0.950 . S
C1000 C999 1.398 . S
C1000 C1001 1.391 . S
C1001 H989 0.950 . S
C1001 C997 1.393 . S
C1001 C1000 1.391 . S
C1002 H992 0.950 . S
C1002 C1003 1.386 . S
C1002 C1004 1.391 . S
C1003 C1002 1.386 . S
C1003 C1007 1.393 . S
C1004 H993 0.950 . S
C1004 C1002 1.391 . S
C1004 C1005 1.400 . S
C1005 C999 1.491 . S
C1005 C1004 1.400 . S
C1005 C1006 1.398 . S
C1006 H994 0.950 . S
C1006 C1005 1.398 . S
C1006 C1007 1.391 . S
C1007 H995 0.950 . S
C1007 C1003 1.393 . S
C1007 C1006 1.391 . S
H1008 C1016 0.950 . S
H1009 C1021 0.950 . S
H1010 C1018 0.950 . S
H1011 C1020 0.950 . S
H1012 C1022 0.950 . S
H1013 C1024 0.950 . S
H1014 C1026 0.950 . S
H1015 C1027 0.950 . S
C1016 H1008 0.950 . S
C1016 C1017 1.386 . S
C1016 C1018 1.391 . S
C1017 C1016 1.386 . S
C1017 C1021 1.393 . S
C1018 H1010 0.950 . S
C1018 C1016 1.391 . S
C1018 C1019 1.400 . S
C1019 C1018 1.400 . S
C1019 C1020 1.398 . S
C1019 C1025 1.491 . S
C1020 H1011 0.950 . S
C1020 C1019 1.398 . S
C1020 C1021 1.391 . S
C1021 H1009 0.950 . S
C1021 C1017 1.393 . S
C1021 C1020 1.391 . S
C1022 H1012 0.950 . S
C1022 C1023 1.386 . S
C1022 C1024 1.391 . S
C1023 C1022 1.386 . S
C1023 C1027 1.393 . S
C1024 H1013 0.950 . S
C1024 C1022 1.391 . S
C1024 C1025 1.400 . S
C1025 C1019 1.491 . S
C1025 C1024 1.400 . S
C1025 C1026 1.398 . S
C1026 H1014 0.950 . S
C1026 C1025 1.398 . S
C1026 C1027 1.391 . S
C1027 H1015 0.950 . S
C1027 C1023 1.393 . S
C1027 C1026 1.391 . S
H1028 C1036 0.950 . S
H1029 C1041 0.950 . S
H1030 C1038 0.950 . S
H1031 C1040 0.950 . S
H1032 C1042 0.950 . S
H1033 C1044 0.950 . S
H1034 C1046 0.950 . S
H1035 C1047 0.950 . S
C1036 H1028 0.950 . S
C1036 C1037 1.386 . S
C1036 C1038 1.391 . S
C1037 C1036 1.386 . S
C1037 C1041 1.393 . S
C1038 H1030 0.950 . S
C1038 C1036 1.391 . S
C1038 C1039 1.400 . S
C1039 C1038 1.400 . S
C1039 C1040 1.398 . S
C1039 C1045 1.491 . S
C1040 H1031 0.950 . S
C1040 C1039 1.398 . S
C1040 C1041 1.391 . S
C1041 H1029 0.950 . S
C1041 C1037 1.393 . S
C1041 C1040 1.391 . S
C1042 H1032 0.950 . S
C1042 C1043 1.386 . S
C1042 C1044 1.391 . S
C1043 C1042 1.386 . S
C1043 C1047 1.393 . S
C1044 H1033 0.950 . S
C1044 C1042 1.391 . S
C1044 C1045 1.400 . S
C1045 C1039 1.491 . S
C1045 C1044 1.400 . S
C1045 C1046 1.398 . S
C1046 H1034 0.950 . S
C1046 C1045 1.398 . S
C1046 C1047 1.391 . S
C1047 H1035 0.950 . S
C1047 C1043 1.393 . S
C1047 C1046 1.391 . S
H1048 C1056 0.950 . S
H1049 C1061 0.950 . S
H1050 C1058 0.950 . S
H1051 C1060 0.950 . S
H1052 C1062 0.950 . S
H1053 C1064 0.950 . S
H1054 C1066 0.950 . S
H1055 C1067 0.950 . S
C1056 H1048 0.950 . S
C1056 C1057 1.386 . S
C1056 C1058 1.391 . S
C1057 C1056 1.386 . S
C1057 C1061 1.393 . S
C1058 H1050 0.950 . S
C1058 C1056 1.391 . S
C1058 C1059 1.400 . S
C1059 C1058 1.400 . S
C1059 C1060 1.398 . S
C1059 C1065 1.491 . S
C1060 H1051 0.950 . S
C1060 C1059 1.398 . S
C1060 C1061 1.391 . S
C1061 H1049 0.950 . S
C1061 C1057 1.393 . S
C1061 C1060 1.391 . S
C1062 H1052 0.950 . S
C1062 C1063 1.386 . S
C1062 C1064 1.391 . S
C1063 C1062 1.386 . S
C1063 C1067 1.393 . S
C1064 H1053 0.950 . S
C1064 C1062 1.391 . S
C1064 C1065 1.400 . S
C1065 C1059 1.491 . S
C1065 C1064 1.400 . S
C1065 C1066 1.398 . S
C1066 H1054 0.950 . S
C1066 C1065 1.398 . S
C1066 C1067 1.391 . S
C1067 H1055 0.950 . S
C1067 C1063 1.393 . S
C1067 C1066 1.391 . S
H1068 C1076 0.950 . S
H1069 C1081 0.950 . S
H1070 C1078 0.950 . S
H1071 C1080 0.950 . S
H1072 C1082 0.950 . S
H1073 C1084 0.950 . S
H1074 C1086 0.950 . S
H1075 C1087 0.950 . S
C1076 H1068 0.950 . S
C1076 C1077 1.386 . S
C1076 C1078 1.391 . S
C1077 C1076 1.386 . S
C1077 C1081 1.393 . S
C1078 H1070 0.950 . S
C1078 C1076 1.391 . S
C1078 C1079 1.400 . S
C1079 C1078 1.400 . S
C1079 C1080 1.398 . S
C1079 C1085 1.491 . S
C1080 H1071 0.950 . S
C1080 C1079 1.398 . S
C1080 C1081 1.391 . S
C1081 H1069 0.950 . S
C1081 C1077 1.393 . S
C1081 C1080 1.391 . S
C1082 H1072 0.950 . S
C1082 C1083 1.386 . S
C1082 C1084 1.391 . S
C1083 C1082 1.386 . S
C1083 C1087 1.393 . S
C1084 H1073 0.950 . S
C1084 C1082 1.391 . S
C1084 C1085 1.400 . S
C1085 C1079 1.491 . S
C1085 C1084 1.400 . S
C1085 C1086 1.398 . S
C1086 H1074 0.950 . S
C1086 C1085 1.398 . S
C1086 C1087 1.391 . S
C1087 H1075 0.950 . S
C1087 C1083 1.393 . S
C1087 C1086 1.391 . S
H1088 C1096 0.950 . S
H1089 C1101 0.950 . S
H1090 C1098 0.950 . S
H1091 C1100 0.950 . S
H1092 C1102 0.950 . S
H1093 C1104 0.950 . S
H1094 C1106 0.950 . S
H1095 C1107 0.950 . S
C1096 H1088 0.950 . S
C1096 C1097 1.386 . S
C1096 C1098 1.391 . S
C1097 C1096 1.386 . S
C1097 C1101 1.393 . S
C1098 H1090 0.950 . S
C1098 C1096 1.391 . S
C1098 C1099 1.400 . S
C1099 C1098 1.400 . S
C1099 C1100 1.398 . S
C1099 C1105 1.491 . S
C1100 H1091 0.950 . S
C1100 C1099 1.398 . S
C1100 C1101 1.391 . S
C1101 H1089 0.950 . S
C1101 C1097 1.393 . S
C1101 C1100 1.391 . S
C1102 H1092 0.950 . S
C1102 C1103 1.386 . S
C1102 C1104 1.391 . S
C1103 C1102 1.386 . S
C1103 C1107 1.393 . S
C1104 H1093 0.950 . S
C1104 C1102 1.391 . S
C1104 C1105 1.400 . S
C1105 C1099 1.491 . S
C1105 C1104 1.400 . S
C1105 C1106 1.398 . S
C1106 H1094 0.950 . S
C1106 C1105 1.398 . S
C1106 C1107 1.391 . S
C1107 H1095 0.950 . S
C1107 C1103 1.393 . S
C1107 C1106 1.391 . S
H1108 C1116 0.950 . S
H1109 C1121 0.950 . S
H1110 C1118 0.950 . S
H1111 C1120 0.950 . S
H1112 C1122 0.950 . S
H1113 C1124 0.950 . S
H1114 C1126 0.950 . S
H1115 C1127 0.950 . S
C1116 H1108 0.950 . S
C1116 C1117 1.386 . S
C1116 C1118 1.391 . S
C1117 C1116 1.386 . S
C1117 C1121 1.393 . S
C1118 H1110 0.950 . S
C1118 C1116 1.391 . S
C1118 C1119 1.400 . S
C1119 C1118 1.400 . S
C1119 C1120 1.398 . S
C1119 C1125 1.491 . S
C1120 H1111 0.950 . S
C1120 C1119 1.398 . S
C1120 C1121 1.391 . S
C1121 H1109 0.950 . S
C1121 C1117 1.393 . S
C1121 C1120 1.391 . S
C1122 H1112 0.950 . S
C1122 C1123 1.386 . S
C1122 C1124 1.391 . S
C1123 C1122 1.386 . S
C1123 C1127 1.393 . S
C1124 H1113 0.950 . S
C1124 C1122 1.391 . S
C1124 C1125 1.400 . S
C1125 C1119 1.491 . S
C1125 C1124 1.400 . S
C1125 C1126 1.398 . S
C1126 H1114 0.950 . S
C1126 C1125 1.398 . S
C1126 C1127 1.391 . S
C1127 H1115 0.950 . S
C1127 C1123 1.393 . S
C1127 C1126 1.391 . S
H1128 C1136 0.950 . S
H1129 C1141 0.950 . S
H1130 C1138 0.950 . S
H1131 C1140 0.950 . S
H1132 C1142 0.950 . S
H1133 C1144 0.950 . S
H1134 C1146 0.950 . S
H1135 C1147 0.950 . S
C1136 H1128 0.950 . S
C1136 C1137 1.386 . S
C1136 C1138 1.391 . S
C1137 C1136 1.386 . S
C1137 C1141 1.393 . S
C1138 H1130 0.950 . S
C1138 C1136 1.391 . S
C1138 C1139 1.400 . S
C1139 C1138 1.400 . S
C1139 C1140 1.398 . S
C1139 C1145 1.491 . S
C1140 H1131 0.950 . S
C1140 C1139 1.398 . S
C1140 C1141 1.391 . S
C1141 H1129 0.950 . S
C1141 C1137 1.393 . S
C1141 C1140 1.391 . S
C1142 H1132 0.950 . S
C1142 C1143 1.386 . S
C1142 C1144 1.391 . S
C1143 C1142 1.386 . S
C1143 C1147 1.393 . S
C1144 H1133 0.950 . S
C1144 C1142 1.391 . S
C1144 C1145 1.400 . S
C1145 C1139 1.491 . S
C1145 C1144 1.400 . S
C1145 C1146 1.398 . S
C1146 H1134 0.950 . S
C1146 C1145 1.398 . S
C1146 C1147 1.391 . S
C1147 H1135 0.950 . S
C1147 C1143 1.393 . S
C1147 C1146 1.391 . S
H1148 C1156 0.950 . S
H1149 C1161 0.950 . S
H1150 C1158 0.950 . S
H1151 C1160 0.950 . S
H1152 C1162 0.950 . S
H1153 C1164 0.950 . S
H1154 C1166 0.950 . S
H1155 C1167 0.950 . S
C1156 H1148 0.950 . S
C1156 C1157 1.386 . S
C1156 C1158 1.391 . S
C1157 C1156 1.386 . S
C1157 C1161 1.393 . S
C1158 H1150 0.950 . S
C1158 C1156 1.391 . S
C1158 C1159 1.400 . S
C1159 C1158 1.400 . S
C1159 C1160 1.398 . S
C1159 C1165 1.491 . S
C1160 H1151 0.950 . S
C1160 C1159 1.398 . S
C1160 C1161 1.391 . S
C1161 H1149 0.950 . S
C1161 C1157 1.393 . S
C1161 C1160 1.391 . S
C1162 H1152 0.950 . S
C1162 C1163 1.386 . S
C1162 C1164 1.391 . S
C1163 C1162 1.386 . S
C1163 C1167 1.393 . S
C1164 H1153 0.950 . S
C1164 C1162 1.391 . S
C1164 C1165 1.400 . S
C1165 C1159 1.491 . S
C1165 C1164 1.400 . S
C1165 C1166 1.398 . S
C1166 H1154 0.950 . S
C1166 C1165 1.398 . S
C1166 C1167 1.391 . S
C1167 H1155 0.950 . S
C1167 C1163 1.393 . S
C1167 C1166 1.391 . S
H1168 C1176 0.950 . S
H1169 C1181 0.950 . S
H1170 C1178 0.950 . S
H1171 C1180 0.950 . S
H1172 C1182 0.950 . S
H1173 C1184 0.950 . S
H1174 C1186 0.950 . S
H1175 C1187 0.950 . S
C1176 H1168 0.950 . S
C1176 C1177 1.386 . S
C1176 C1178 1.391 . S
C1177 C1176 1.386 . S
C1177 C1181 1.393 . S
C1178 H1170 0.950 . S
C1178 C1176 1.391 . S
C1178 C1179 1.400 . S
C1179 C1178 1.400 . S
C1179 C1180 1.398 . S
C1179 C1185 1.491 . S
C1180 H1171 0.950 . S
C1180 C1179 1.398 . S
C1180 C1181 1.391 . S
C1181 H1169 0.950 . S
C1181 C1177 1.393 . S
C1181 C1180 1.391 . S
C1182 H1172 0.950 . S
C1182 C1183 1.386 . S
C1182 C1184 1.391 . S
C1183 C1182 1.386 . S
C1183 C1187 1.393 . S
C1184 H1173 0.950 . S
C1184 C1182 1.391 . S
C1184 C1185 1.400 . S
C1185 C1179 1.491 . S
C1185 C1184 1.400 . S
C1185 C1186 1.398 . S
C1186 H1174 0.950 . S
C1186 C1185 1.398 . S
C1186 C1187 1.391 . S
C1187 H1175 0.950 . S
C1187 C1183 1.393 . S
C1187 C1186 1.391 . S
H1188 C1196 0.950 . S
H1189 C1201 0.950 . S
H1190 C1198 0.950 . S
H1191 C1200 0.950 . S
H1192 C1202 0.950 . S
H1193 C1204 0.950 . S
H1194 C1206 0.950 . S
H1195 C1207 0.950 . S
C1196 H1188 0.950 . S
C1196 C1197 1.386 . S
C1196 C1198 1.391 . S
C1197 C1196 1.386 . S
C1197 C1201 1.393 . S
C1198 H1190 0.950 . S
C1198 C1196 1.391 . S
C1198 C1199 1.400 . S
C1199 C1198 1.400 . S
C1199 C1200 1.398 . S
C1199 C1205 1.491 . S
C1200 H1191 0.950 . S
C1200 C1199 1.398 . S
C1200 C1201 1.391 . S
C1201 H1189 0.950 . S
C1201 C1197 1.393 . S
C1201 C1200 1.391 . S
C1202 H1192 0.950 . S
C1202 C1203 1.386 . S
C1202 C1204 1.391 . S
C1203 C1202 1.386 . S
C1203 C1207 1.393 . S
C1204 H1193 0.950 . S
C1204 C1202 1.391 . S
C1204 C1205 1.400 . S
C1205 C1199 1.491 . S
C1205 C1204 1.400 . S
C1205 C1206 1.398 . S
C1206 H1194 0.950 . S
C1206 C1205 1.398 . S
C1206 C1207 1.391 . S
C1207 H1195 0.950 . S
C1207 C1203 1.393 . S
C1207 C1206 1.391 . S
H1208 C1216 0.950 . S
H1209 C1221 0.950 . S
H1210 C1218 0.950 . S
H1211 C1220 0.950 . S
H1212 C1222 0.950 . S
H1213 C1224 0.950 . S
H1214 C1226 0.950 . S
H1215 C1227 0.950 . S
C1216 H1208 0.950 . S
C1216 C1217 1.386 . S
C1216 C1218 1.391 . S
C1217 C1216 1.386 . S
C1217 C1221 1.393 . S
C1218 H1210 0.950 . S
C1218 C1216 1.391 . S
C1218 C1219 1.400 . S
C1219 C1218 1.400 . S
C1219 C1220 1.398 . S
C1219 C1225 1.491 . S
C1220 H1211 0.950 . S
C1220 C1219 1.398 . S
C1220 C1221 1.391 . S
C1221 H1209 0.950 . S
C1221 C1217 1.393 . S
C1221 C1220 1.391 . S
C1222 H1212 0.950 . S
C1222 C1223 1.386 . S
C1222 C1224 1.391 . S
C1223 C1222 1.386 . S
C1223 C1227 1.393 . S
C1224 H1213 0.950 . S
C1224 C1222 1.391 . S
C1224 C1225 1.400 . S
C1225 C1219 1.491 . S
C1225 C1224 1.400 . S
C1225 C1226 1.398 . S
C1226 H1214 0.950 . S
C1226 C1225 1.398 . S
C1226 C1227 1.391 . S
C1227 H1215 0.950 . S
C1227 C1223 1.393 . S
C1227 C1226 1.391 . S
H1228 C1236 0.950 . S
H1229 C1241 0.950 . S
H1230 C1238 0.950 . S
H1231 C1240 0.950 . S
H1232 C1242 0.950 . S
H1233 C1244 0.950 . S
H1234 C1246 0.950 . S
H1235 C1247 0.950 . S
C1236 H1228 0.950 . S
C1236 C1237 1.386 . S
C1236 C1238 1.391 . S
C1237 C1236 1.386 . S
C1237 C1241 1.393 . S
C1238 H1230 0.950 . S
C1238 C1236 1.391 . S
C1238 C1239 1.400 . S
C1239 C1238 1.400 . S
C1239 C1240 1.398 . S
C1239 C1245 1.491 . S
C1240 H1231 0.950 . S
C1240 C1239 1.398 . S
C1240 C1241 1.391 . S
C1241 H1229 0.950 . S
C1241 C1237 1.393 . S
C1241 C1240 1.391 . S
C1242 H1232 0.950 . S
C1242 C1243 1.386 . S
C1242 C1244 1.391 . S
C1243 C1242 1.386 . S
C1243 C1247 1.393 . S
C1244 H1233 0.950 . S
C1244 C1242 1.391 . S
C1244 C1245 1.400 . S
C1245 C1239 1.491 . S
C1245 C1244 1.400 . S
C1245 C1246 1.398 . S
C1246 H1234 0.950 . S
C1246 C1245 1.398 . S
C1246 C1247 1.391 . S
C1247 H1235 0.950 . S
C1247 C1243 1.393 . S
C1247 C1246 1.391 . S
H1248 C1256 0.950 . S
H1249 C1261 0.950 . S
H1250 C1258 0.950 . S
H1251 C1260 0.950 . S
H1252 C1262 0.950 . S
H1253 C1264 0.950 . S
H1254 C1266 0.950 . S
H1255 C1267 0.950 . S
C1256 H1248 0.950 . S
C1256 C1257 1.386 . S
C1256 C1258 1.391 . S
C1257 C1256 1.386 . S
C1257 C1261 1.393 . S
C1258 H1250 0.950 . S
C1258 C1256 1.391 . S
C1258 C1259 1.400 . S
C1259 C1258 1.400 . S
C1259 C1260 1.398 . S
C1259 C1265 1.491 . S
C1260 H1251 0.950 . S
C1260 C1259 1.398 . S
C1260 C1261 1.391 . S
C1261 H1249 0.950 . S
C1261 C1257 1.393 . S
C1261 C1260 1.391 . S
C1262 H1252 0.950 . S
C1262 C1263 1.386 . S
C1262 C1264 1.391 . S
C1263 C1262 1.386 . S
C1263 C1267 1.393 . S
C1264 H1253 0.950 . S
C1264 C1262 1.391 . S
C1264 C1265 1.400 . S
C1265 C1259 1.491 . S
C1265 C1264 1.400 . S
C1265 C1266 1.398 . S
C1266 H1254 0.950 . S
C1266 C1265 1.398 . S
C1266 C1267 1.391 . S
C1267 H1255 0.950 . S
C1267 C1263 1.393 . S
C1267 C1266 1.391 . S
H1268 C1276 0.950 . S
H1269 C1281 0.950 . S
H1270 C1278 0.950 . S
H1271 C1280 0.950 . S
H1272 C1282 0.950 . S
H1273 C1284 0.950 . S
H1274 C1286 0.950 . S
H1275 C1287 0.950 . S
C1276 H1268 0.950 . S
C1276 C1277 1.386 . S
C1276 C1278 1.391 . S
C1277 C1276 1.386 . S
C1277 C1281 1.393 . S
C1278 H1270 0.950 . S
C1278 C1276 1.391 . S
C1278 C1279 1.400 . S
C1279 C1278 1.400 . S
C1279 C1280 1.398 . S
C1279 C1285 1.491 . S
C1280 H1271 0.950 . S
C1280 C1279 1.398 . S
C1280 C1281 1.391 . S
C1281 H1269 0.950 . S
C1281 C1277 1.393 . S
C1281 C1280 1.391 . S
C1282 H1272 0.950 . S
C1282 C1283 1.386 . S
C1282 C1284 1.391 . S
C1283 C1282 1.386 . S
C1283 C1287 1.393 . S
C1284 H1273 0.950 . S
C1284 C1282 1.391 . S
C1284 C1285 1.400 . S
C1285 C1279 1.491 . S
C1285 C1284 1.400 . S
C1285 C1286 1.398 . S
C1286 H1274 0.950 . S
C1286 C1285 1.398 . S
C1286 C1287 1.391 . S
C1287 H1275 0.950 . S
C1287 C1283 1.393 . S
C1287 C1286 1.391 . S
H1288 C1296 0.950 . S
H1289 C1301 0.950 . S
H1290 C1298 0.950 . S
H1291 C1300 0.950 . S
H1292 C1302 0.950 . S
H1293 C1304 0.950 . S
H1294 C1306 0.950 . S
H1295 C1307 0.950 . S
C1296 H1288 0.950 . S
C1296 C1297 1.386 . S
C1296 C1298 1.391 . S
C1297 C1296 1.386 . S
C1297 C1301 1.393 . S
C1298 H1290 0.950 . S
C1298 C1296 1.391 . S
C1298 C1299 1.400 . S
C1299 C1298 1.400 . S
C1299 C1300 1.398 . S
C1299 C1305 1.491 . S
C1300 H1291 0.950 . S
C1300 C1299 1.398 . S
C1300 C1301 1.391 . S
C1301 H1289 0.950 . S
C1301 C1297 1.393 . S
C1301 C1300 1.391 . S
C1302 H1292 0.950 . S
C1302 C1303 1.386 . S
C1302 C1304 1.391 . S
C1303 C1302 1.386 . S
C1303 C1307 1.393 . S
C1304 H1293 0.950 . S
C1304 C1302 1.391 . S
C1304 C1305 1.400 . S
C1305 C1299 1.491 . S
C1305 C1304 1.400 . S
C1305 C1306 1.398 . S
C1306 H1294 0.950 . S
C1306 C1305 1.398 . S
C1306 C1307 1.391 . S
C1307 H1295 0.950 . S
C1307 C1303 1.393 . S
C1307 C1306 1.391 . S
H1308 C1316 0.950 . S
H1309 C1321 0.950 . S
H1310 C1318 0.950 . S
H1311 C1320 0.950 . S
H1312 C1322 0.950 . S
H1313 C1324 0.950 . S
H1314 C1326 0.950 . S
H1315 C1327 0.950 . S
C1316 H1308 0.950 . S
C1316 C1317 1.386 . S
C1316 C1318 1.391 . S
C1317 C1316 1.386 . S
C1317 C1321 1.393 . S
C1318 H1310 0.950 . S
C1318 C1316 1.391 . S
C1318 C1319 1.400 . S
C1319 C1318 1.400 . S
C1319 C1320 1.398 . S
C1319 C1325 1.491 . S
C1320 H1311 0.950 . S
C1320 C1319 1.398 . S
C1320 C1321 1.391 . S
C1321 H1309 0.950 . S
C1321 C1317 1.393 . S
C1321 C1320 1.391 . S
C1322 H1312 0.950 . S
C1322 C1323 1.386 . S
C1322 C1324 1.391 . S
C1323 C1322 1.386 . S
C1323 C1327 1.393 . S
C1324 H1313 0.950 . S
C1324 C1322 1.391 . S
C1324 C1325 1.400 . S
C1325 C1319 1.491 . S
C1325 C1324 1.400 . S
C1325 C1326 1.398 . S
C1326 H1314 0.950 . S
C1326 C1325 1.398 . S
C1326 C1327 1.391 . S
C1327 H1315 0.950 . S
C1327 C1323 1.393 . S
C1327 C1326 1.391 . S
C537 N14 1.659 . S
C543 N476 1.659 . S
C557 N71 1.601 . S
C563 N5 1.601 . S
C577 N47 1.643 . S
C583 N377 1.643 . S
C597 N236 1.597 . S
C603 N38 1.597 . S
C617 N80 1.646 . S
C623 N410 1.646 . S
C637 N113 1.641 . S
C643 N311 1.641 . S
C657 N104 1.598 . S
C663 N170 1.598 . S
C677 N344 1.659 . S
C683 N146 1.659 . S
C697 N203 1.596 . S
C703 N137 1.596 . S
C717 N179 1.655 . S
C723 N509 1.655 . S
C737 N278 1.656 . S
C743 N212 1.656 . S
C757 N443 1.648 . S
C763 N245 1.648 . S
C777 N269 1.602 . S
C783 N335 1.602 . S
C797 N500 1.604 . S
C803 N302 1.604 . S
C817 N368 1.605 . S
C823 N434 1.605 . S
C837 N401 1.603 . S
C843 N467 1.603 . S
C857 C8 1.223 . S
C863 C314 1.225 . S
C877 C305 1.231 . S
C883 C17 1.219 . S
C897 C41 1.222 . S
C903 C281 1.230 . S
C917 C50 1.221 . S
C923 C272 1.234 . S
C937 C380 1.230 . S
C943 C74 1.237 . S
C957 C371 1.226 . S
C963 C83 1.235 . S
C977 C107 1.237 . S
C983 C347 1.224 . S
C997 C116 1.221 . S
C1003 C338 1.226 . S
C1017 C140 1.229 . S
C1023 C446 1.219 . S
C1037 C437 1.233 . S
C1043 C149 1.220 . S
C1057 C173 1.231 . S
C1063 C413 1.236 . S
C1077 C404 1.223 . S
C1083 C182 1.233 . S
C1097 C512 1.236 . S
C1103 C206 1.231 . S
C1117 C215 1.220 . S
C1123 C503 1.227 . S
C1137 C239 1.237 . S
C1143 C479 1.224 . S
C1157 C248 1.219 . S
C1163 C470 1.230 . S
C1177 C61 0.965 . S
C1183 C28 0.970 . S
C1197 C94 0.964 . S
C1203 C127 0.971 . S
C1217 C160 0.964 . S
C1223 C193 0.970 . S
C1237 C226 0.966 . S
C1243 C259 0.969 . S
C1257 C325 0.967 . S
C1263 C292 0.968 . S
C1277 C391 0.968 . S
C1283 C358 0.966 . S
C1297 C424 0.966 . S
C1303 C457 0.968 . S
C1317 C523 0.965 . S
C1323 C490 0.970 . S
