# Generated by pormake.
# Topology afi, (4)-cn, num edge types: 1
# Building blocks:
#     Node 0, Type 0, BuildingBlock: AZAVOO_clean_sbu_0, # of connection points: 4
#     Node 1, Type 0, BuildingBlock: AZAVOO_clean_sbu_0, # of connection points: 4
#     Node 2, Type 0, BuildingBlock: AZAVOO_clean_sbu_0, # of connection points: 4
#     Node 3, Type 0, BuildingBlock: AZAVOO_clean_sbu_0, # of connection points: 4
#     Node 4, Type 0, BuildingBlock: AZAVOO_clean_sbu_0, # of connection points: 4
#     Node 5, Type 0, BuildingBlock: AZAVOO_clean_sbu_0, # of connection points: 4
#     Node 6, Type 0, BuildingBlock: AZAVOO_clean_sbu_0, # of connection points: 4
#     Node 7, Type 0, BuildingBlock: AZAVOO_clean_sbu_0, # of connection points: 4
#     Node 8, Type 0, BuildingBlock: AZAVOO_clean_sbu_0, # of connection points: 4
#     Node 9, Type 0, BuildingBlock: AZAVOO_clean_sbu_0, # of connection points: 4
#     Node 10, Type 0, BuildingBlock: AZAVOO_clean_sbu_0, # of connection points: 4
#     Node 11, Type 0, BuildingBlock: AZAVOO_clean_sbu_0, # of connection points: 4
#     Node 12, Type 0, BuildingBlock: AZAVOO_clean_sbu_0, # of connection points: 4
#     Node 13, Type 0, BuildingBlock: AZAVOO_clean_sbu_0, # of connection points: 4
#     Node 14, Type 0, BuildingBlock: AZAVOO_clean_sbu_0, # of connection points: 4
#     Node 15, Type 0, BuildingBlock: AZAVOO_clean_sbu_0, # of connection points: 4
#     Node 16, Type 0, BuildingBlock: AZAVOO_clean_sbu_0, # of connection points: 4
#     Node 17, Type 0, BuildingBlock: AZAVOO_clean_sbu_0, # of connection points: 4
#     Node 18, Type 0, BuildingBlock: AZAVOO_clean_sbu_0, # of connection points: 4
#     Node 19, Type 0, BuildingBlock: AZAVOO_clean_sbu_0, # of connection points: 4
#     Node 20, Type 0, BuildingBlock: AZAVOO_clean_sbu_0, # of connection points: 4
#     Node 21, Type 0, BuildingBlock: AZAVOO_clean_sbu_0, # of connection points: 4
#     Node 22, Type 0, BuildingBlock: AZAVOO_clean_sbu_0, # of connection points: 4
#     Node 23, Type 0, BuildingBlock: AZAVOO_clean_sbu_0, # of connection points: 4
#     Edge 24, Type (0, 0), BuildingBlock: OJICUG_clean_linker_0, # of connection points: 2
#     Edge 25, Type (0, 0), BuildingBlock: OJICUG_clean_linker_0, # of connection points: 2
#     Edge 26, Type (0, 0), BuildingBlock: OJICUG_clean_linker_0, # of connection points: 2
#     Edge 27, Type (0, 0), BuildingBlock: OJICUG_clean_linker_0, # of connection points: 2
#     Edge 28, Type (0, 0), BuildingBlock: OJICUG_clean_linker_0, # of connection points: 2
#     Edge 29, Type (0, 0), BuildingBlock: OJICUG_clean_linker_0, # of connection points: 2
#     Edge 30, Type (0, 0), BuildingBlock: OJICUG_clean_linker_0, # of connection points: 2
#     Edge 31, Type (0, 0), BuildingBlock: OJICUG_clean_linker_0, # of connection points: 2
#     Edge 32, Type (0, 0), BuildingBlock: OJICUG_clean_linker_0, # of connection points: 2
#     Edge 33, Type (0, 0), BuildingBlock: OJICUG_clean_linker_0, # of connection points: 2
#     Edge 34, Type (0, 0), BuildingBlock: OJICUG_clean_linker_0, # of connection points: 2
#     Edge 35, Type (0, 0), BuildingBlock: OJICUG_clean_linker_0, # of connection points: 2
#     Edge 36, Type (0, 0), BuildingBlock: OJICUG_clean_linker_0, # of connection points: 2
#     Edge 37, Type (0, 0), BuildingBlock: OJICUG_clean_linker_0, # of connection points: 2
#     Edge 38, Type (0, 0), BuildingBlock: OJICUG_clean_linker_0, # of connection points: 2
#     Edge 39, Type (0, 0), BuildingBlock: OJICUG_clean_linker_0, # of connection points: 2
#     Edge 40, Type (0, 0), BuildingBlock: OJICUG_clean_linker_0, # of connection points: 2
#     Edge 41, Type (0, 0), BuildingBlock: OJICUG_clean_linker_0, # of connection points: 2
#     Edge 42, Type (0, 0), BuildingBlock: OJICUG_clean_linker_0, # of connection points: 2
#     Edge 43, Type (0, 0), BuildingBlock: OJICUG_clean_linker_0, # of connection points: 2
#     Edge 44, Type (0, 0), BuildingBlock: OJICUG_clean_linker_0, # of connection points: 2
#     Edge 45, Type (0, 0), BuildingBlock: OJICUG_clean_linker_0, # of connection points: 2
#     Edge 46, Type (0, 0), BuildingBlock: OJICUG_clean_linker_0, # of connection points: 2
#     Edge 47, Type (0, 0), BuildingBlock: OJICUG_clean_linker_0, # of connection points: 2
#     Edge 48, Type (0, 0), BuildingBlock: OJICUG_clean_linker_0, # of connection points: 2
#     Edge 49, Type (0, 0), BuildingBlock: OJICUG_clean_linker_0, # of connection points: 2
#     Edge 50, Type (0, 0), BuildingBlock: OJICUG_clean_linker_0, # of connection points: 2
#     Edge 51, Type (0, 0), BuildingBlock: OJICUG_clean_linker_0, # of connection points: 2
#     Edge 52, Type (0, 0), BuildingBlock: OJICUG_clean_linker_0, # of connection points: 2
#     Edge 53, Type (0, 0), BuildingBlock: OJICUG_clean_linker_0, # of connection points: 2
#     Edge 54, Type (0, 0), BuildingBlock: OJICUG_clean_linker_0, # of connection points: 2
#     Edge 55, Type (0, 0), BuildingBlock: OJICUG_clean_linker_0, # of connection points: 2
#     Edge 56, Type (0, 0), BuildingBlock: OJICUG_clean_linker_0, # of connection points: 2
#     Edge 57, Type (0, 0), BuildingBlock: OJICUG_clean_linker_0, # of connection points: 2
#     Edge 58, Type (0, 0), BuildingBlock: OJICUG_clean_linker_0, # of connection points: 2
#     Edge 59, Type (0, 0), BuildingBlock: OJICUG_clean_linker_0, # of connection points: 2
#     Edge 60, Type (0, 0), BuildingBlock: OJICUG_clean_linker_0, # of connection points: 2
#     Edge 61, Type (0, 0), BuildingBlock: OJICUG_clean_linker_0, # of connection points: 2
#     Edge 62, Type (0, 0), BuildingBlock: OJICUG_clean_linker_0, # of connection points: 2
#     Edge 63, Type (0, 0), BuildingBlock: OJICUG_clean_linker_0, # of connection points: 2
#     Edge 64, Type (0, 0), BuildingBlock: OJICUG_clean_linker_0, # of connection points: 2
#     Edge 65, Type (0, 0), BuildingBlock: OJICUG_clean_linker_0, # of connection points: 2
#     Edge 66, Type (0, 0), BuildingBlock: OJICUG_clean_linker_0, # of connection points: 2
#     Edge 67, Type (0, 0), BuildingBlock: OJICUG_clean_linker_0, # of connection points: 2
#     Edge 68, Type (0, 0), BuildingBlock: OJICUG_clean_linker_0, # of connection points: 2
#     Edge 69, Type (0, 0), BuildingBlock: OJICUG_clean_linker_0, # of connection points: 2
#     Edge 70, Type (0, 0), BuildingBlock: OJICUG_clean_linker_0, # of connection points: 2
#     Edge 71, Type (0, 0), BuildingBlock: OJICUG_clean_linker_0, # of connection points: 2
# Relax obj value: 0.099
# Max RMSD: 0.129
# Mean RMSD: 0.126
data_MOF--net-afi--node1-AZAVOO_clean_sbu_0--edge1-OJICUG_clean_linker_0
_symmetry_space_group_name_H-M    P1
_symmetry_Int_Tables_number       1
_symmetry_cell_setting            triclinic
loop_
_symmetry_equiv_pos_as_xyz
'x, y, z'
_cell_length_a     48.018131
_cell_length_b     48.015102
_cell_length_c     31.875811
_cell_angle_alpha  90.023935
_cell_angle_beta   89.934447
_cell_angle_gamma 120.17749
loop_
_atom_site_label
_atom_site_type_symbol
_atom_site_fract_x
_atom_site_fract_y
_atom_site_fract_z
_atom_type_partial_charge
Mg0 Mg 0.43763 0.1102 0.16231 0.0
O1 O 0.47763 0.1014 0.18817 0.0
O2 O 0.46452 0.05198 0.16621 0.0
Mg3 Mg 0.41922 0.02993 0.1262 0.0
C4 C 0.48293 0.07782 0.18634 0.0
C5 C 0.4703 0.17413 0.21651 0.0
O6 O 0.46226 0.15314 0.24713 0.0
O7 O 0.46014 0.11898 0.09727 0.0
O8 O 0.44563 0.06896 0.07656 0.0
O9 O 0.40696 0.08555 0.21859 0.0
O10 O 0.40549 0.06091 0.15952 0.0
C11 C 0.45933 0.09923 0.06972 0.0
C12 C 0.3961 0.05896 0.19766 0.0
O13 O 0.46556 0.16406 0.17881 0.0
Mg14 Mg 0.32627 0.43527 0.16459 0.0
O15 O 0.3738 0.47699 0.19193 0.0
O16 O 0.41256 0.46802 0.16838 0.0
Mg17 Mg 0.39234 0.42441 0.12535 0.0
C18 C 0.40337 0.48437 0.18993 0.0
C19 C 0.2712 0.43455 0.20598 0.0
O20 O 0.26686 0.40529 0.20424 0.0
O21 O 0.33813 0.46031 0.10054 0.0
O22 O 0.37637 0.44993 0.07895 0.0
O23 O 0.32289 0.40397 0.21847 0.0
O24 O 0.34687 0.40594 0.15868 0.0
C25 C 0.35811 0.46176 0.07276 0.0
C26 C 0.33979 0.39523 0.1964 0.0
O27 O 0.29617 0.45729 0.1885 0.0
Mg28 Mg 0.87544 0.32642 0.15319 0.0
O29 O 0.88673 0.3762 0.17936 0.0
O30 O 0.93722 0.41038 0.15823 0.0
Mg31 Mg 0.95738 0.38555 0.11816 0.0
C32 C 0.91166 0.40444 0.17799 0.0
C33 C 0.81247 0.29549 0.20797 0.0
O34 O 0.83427 0.3083 0.2377 0.0
O35 O 0.86812 0.34129 0.08785 0.0
O36 O 0.91908 0.37527 0.06868 0.0
O37 O 0.89863 0.31888 0.20984 0.0
O38 O 0.9242 0.34139 0.15094 0.0
C39 C 0.88891 0.36012 0.06099 0.0
C40 C 0.92544 0.33373 0.18916 0.0
O41 O 0.82159 0.30153 0.16989 0.0
Mg42 Mg 0.55555 0.88707 0.16287 0.0
O43 O 0.51585 0.89595 0.18993 0.0
O44 O 0.52907 0.94554 0.1686 0.0
Mg45 Mg 0.57398 0.96759 0.12776 0.0
C46 C 0.51073 0.91966 0.18873 0.0
C47 C 0.52339 0.82298 0.21693 0.0
O48 O 0.53178 0.84392 0.24768 0.0
O49 O 0.53255 0.87852 0.09811 0.0
O50 O 0.54706 0.92872 0.07824 0.0
O51 O 0.58681 0.91172 0.21878 0.0
O52 O 0.58779 0.93632 0.15993 0.0
C53 C 0.53325 0.8985 0.071 0.0
C54 C 0.59759 0.93829 0.19781 0.0
O55 O 0.5277 0.83314 0.17927 0.0
Mg56 Mg 0.66729 0.56069 0.16026 0.0
O57 O 0.61981 0.51817 0.1867 0.0
O58 O 0.58106 0.5266 0.16183 0.0
Mg59 Mg 0.60124 0.5708 0.11988 0.0
C60 C 0.59016 0.51036 0.18374 0.0
C61 C 0.72511 0.56434 0.1938 0.0
O62 O 0.72882 0.59301 0.18696 0.0
O63 O 0.65697 0.53678 0.0958 0.0
O64 O 0.61906 0.54714 0.07292 0.0
O65 O 0.66998 0.59127 0.21452 0.0
O66 O 0.64605 0.58933 0.15471 0.0
C67 C 0.63783 0.53584 0.0672 0.0
C68 C 0.65288 0.59982 0.19256 0.0
O69 O 0.69846 0.53984 0.18325 0.0
Mg70 Mg 0.12147 0.66977 0.15731 0.0
O71 O 0.10944 0.62018 0.18501 0.0
O72 O 0.0593 0.58586 0.16289 0.0
Mg73 Mg 0.0403 0.61041 0.12038 0.0
C74 C 0.08444 0.59198 0.18372 0.0
C75 C 0.18339 0.70128 0.21385 0.0
O76 O 0.1611 0.68912 0.24311 0.0
O77 O 0.13025 0.6544 0.09319 0.0
O78 O 0.07974 0.62018 0.07271 0.0
O79 O 0.09718 0.6779 0.21227 0.0
O80 O 0.07283 0.65492 0.15295 0.0
C81 C 0.11008 0.63528 0.06605 0.0
C82 C 0.07082 0.66293 0.19075 0.0
O83 O 0.1749 0.69459 0.17567 0.0
Mg84 Mg 0.89052 0.56079 0.29445 0.0
O85 O 0.89619 0.51926 0.26662 0.0
O86 O 0.94368 0.52808 0.29101 0.0
Mg87 Mg 0.9672 0.57161 0.33404 0.0
C88 C 0.91827 0.51182 0.26909 0.0
C89 C 0.83295 0.56289 0.27311 0.0
O90 O 0.85563 0.59043 0.28852 0.0
O91 O 0.87695 0.53535 0.35796 0.0
O92 O 0.92543 0.54578 0.38027 0.0
O93 O 0.91856 0.59296 0.24117 0.0
O94 O 0.94024 0.58991 0.30068 0.0
C95 C 0.89519 0.53378 0.38596 0.0
C96 C 0.94413 0.60136 0.26336 0.0
O97 O 0.8383 0.53949 0.27197 0.0
Mg98 Mg 0.329 0.88335 0.30964 0.0
O99 O 0.37777 0.89358 0.28134 0.0
O100 O 0.41368 0.9434 0.30278 0.0
Mg101 Mg 0.39043 0.96427 0.34476 0.0
C102 C 0.40645 0.9178 0.28226 0.0
C103 C 0.2984 0.81998 0.25472 0.0
O104 O 0.31174 0.84135 0.22455 0.0
O105 O 0.34442 0.87495 0.37371 0.0
O106 O 0.37951 0.92533 0.39383 0.0
O107 O 0.3209 0.90745 0.25456 0.0
O108 O 0.34515 0.93241 0.31301 0.0
C109 C 0.36366 0.89504 0.40081 0.0
C110 C 0.33656 0.93409 0.27543 0.0
O111 O 0.30344 0.82961 0.29262 0.0
Mg112 Mg 0.44766 0.32799 0.30804 0.0
O113 O 0.48645 0.37686 0.27955 0.0
O114 O 0.47143 0.41204 0.29997 0.0
Mg115 Mg 0.42708 0.38873 0.3417 0.0
C116 C 0.49032 0.40528 0.27993 0.0
C117 C 0.47718 0.29465 0.2539 0.0
O118 O 0.46778 0.30688 0.22399 0.0
O119 O 0.47101 0.34386 0.37265 0.0
O120 O 0.45513 0.37865 0.3914 0.0
O121 O 0.41601 0.31966 0.25211 0.0
O122 O 0.41458 0.34368 0.3104 0.0
C123 C 0.46974 0.36318 0.39922 0.0
C124 C 0.40484 0.33523 0.27259 0.0
O125 O 0.47541 0.30197 0.2918 0.0
Mg126 Mg 0.10367 0.4348 0.299 0.0
O127 O 0.09799 0.47667 0.2729 0.0
O128 O 0.05032 0.46752 0.29713 0.0
Mg129 Mg 0.02645 0.42283 0.33837 0.0
C130 C 0.07598 0.48418 0.27574 0.0
C131 C 0.16739 0.43996 0.28972 0.0
O132 O 0.14937 0.41575 0.31483 0.0
O133 O 0.11617 0.45872 0.36351 0.0
O134 O 0.06745 0.44753 0.38601 0.0
O135 O 0.0766 0.40394 0.24446 0.0
O136 O 0.05386 0.40533 0.30398 0.0
C137 C 0.09766 0.45948 0.39185 0.0
C138 C 0.05063 0.3949 0.26616 0.0
O139 O 0.1563 0.4577 0.27757 0.0
Mg140 Mg 0.66518 0.11498 0.30636 0.0
O141 O 0.61653 0.10442 0.2774 0.0
O142 O 0.58051 0.05481 0.29951 0.0
Mg143 Mg 0.60349 0.03441 0.34259 0.0
C144 C 0.58784 0.08021 0.27846 0.0
C145 C 0.69675 0.17749 0.24981 0.0
O146 O 0.6839 0.15558 0.22021 0.0
O147 O 0.64928 0.12415 0.36975 0.0
O148 O 0.61397 0.07397 0.39046 0.0
O149 O 0.67358 0.09018 0.25232 0.0
O150 O 0.64895 0.06592 0.31096 0.0
C151 C 0.62973 0.10434 0.3969 0.0
C152 C 0.65776 0.06379 0.27364 0.0
O153 O 0.69102 0.16855 0.28797 0.0
Mg154 Mg 0.54731 0.66941 0.30617 0.0
O155 O 0.50767 0.61954 0.2811 0.0
O156 O 0.52344 0.5852 0.3026 0.0
Mg157 Mg 0.56915 0.60995 0.34153 0.0
C158 C 0.50389 0.59118 0.28289 0.0
C159 C 0.51723 0.70257 0.25265 0.0
O160 O 0.52681 0.69069 0.22243 0.0
O161 O 0.52628 0.6559 0.37233 0.0
O162 O 0.54297 0.62194 0.39191 0.0
O163 O 0.57709 0.67581 0.24873 0.0
O164 O 0.58044 0.65378 0.3078 0.0
C165 C 0.5286 0.63767 0.39967 0.0
C166 C 0.58893 0.66092 0.26934 0.0
O167 O 0.51906 0.69502 0.29041 0.0
Mg168 Mg 0.54239 0.87515 0.80748 0.0
O169 O 0.49193 0.85745 0.78185 0.0
O170 O 0.46015 0.8062 0.80122 0.0
Mg171 Mg 0.49051 0.79119 0.84021 0.0
C172 C 0.46462 0.83155 0.78228 0.0
C173 C 0.58666 0.94034 0.77412 0.0
O174 O 0.60266 0.92484 0.77673 0.0
O175 O 0.52575 0.87942 0.87265 0.0
O176 O 0.49747 0.82754 0.89182 0.0
O177 O 0.5547 0.85638 0.75126 0.0
O178 O 0.5344 0.82858 0.80979 0.0
C179 C 0.50961 0.85753 0.89986 0.0
C180 C 0.54412 0.82973 0.77191 0.0
O181 O 0.55786 0.92651 0.78771 0.0
Mg182 Mg 0.68032 0.55284 0.80495 0.0
O183 O 0.64697 0.50266 0.77874 0.0
O184 O 0.66595 0.47042 0.79714 0.0
Mg185 Mg 0.71163 0.50027 0.83622 0.0
C186 C 0.64519 0.47524 0.77858 0.0
C187 C 0.65868 0.59722 0.77296 0.0
O188 O 0.69032 0.61366 0.77434 0.0
O189 O 0.65937 0.53553 0.87 0.0
O190 O 0.68232 0.50668 0.88868 0.0
O191 O 0.71097 0.5652 0.74825 0.0
O192 O 0.71871 0.54442 0.80603 0.0
C193 C 0.66464 0.51893 0.89687 0.0
C194 C 0.72682 0.55402 0.76798 0.0
O195 O 0.64426 0.56842 0.78652 0.0
Mg196 Mg 0.12574 0.6678 0.80579 0.0
O197 O 0.14416 0.63738 0.77496 0.0
O198 O 0.19619 0.65785 0.79032 0.0
Mg199 Mg 0.21124 0.70211 0.83205 0.0
C200 C 0.1704 0.63692 0.77213 0.0
C201 C 0.06698 0.62205 0.75149 0.0
O202 O 0.08987 0.6354 0.72313 0.0
O203 O 0.12515 0.646 0.86917 0.0
O204 O 0.17767 0.67087 0.88514 0.0
O205 O 0.14189 0.70075 0.75065 0.0
O206 O 0.17168 0.70749 0.80685 0.0
C207 C 0.14809 0.65194 0.89457 0.0
C208 C 0.16912 0.7169 0.7701 0.0
O209 O 0.07414 0.62937 0.78989 0.0
Mg210 Mg 0.45291 0.1288 0.80678 0.0
O211 O 0.50341 0.14545 0.78191 0.0
O212 O 0.5362 0.19614 0.80276 0.0
Mg213 Mg 0.50665 0.2116 0.84274 0.0
C214 C 0.5311 0.17088 0.78298 0.0
C215 C 0.40823 0.06455 0.76952 0.0
O216 O 0.39311 0.081 0.76971 0.0
O217 O 0.46802 0.12233 0.87181 0.0
O218 O 0.49781 0.17362 0.8928 0.0
O219 O 0.44279 0.14985 0.75101 0.0
O220 O 0.46273 0.17598 0.81067 0.0
C221 C 0.4845 0.14336 0.89974 0.0
C222 C 0.45417 0.1762 0.77256 0.0
O223 O 0.4362 0.07739 0.78562 0.0
Mg224 Mg 0.32945 0.45902 0.80794 0.0
O225 O 0.36396 0.50983 0.78465 0.0
O226 O 0.345 0.54189 0.80408 0.0
Mg227 Mg 0.29819 0.51133 0.8409 0.0
C228 C 0.36602 0.53735 0.78565 0.0
C229 C 0.35086 0.41482 0.77466 0.0
O230 O 0.31919 0.39886 0.77494 0.0
O231 O 0.34822 0.47352 0.87455 0.0
O232 O 0.32491 0.50191 0.89387 0.0
O233 O 0.30033 0.44899 0.75 0.0
O234 O 0.29155 0.46808 0.80864 0.0
C235 C 0.3419 0.48893 0.90214 0.0
C236 C 0.28421 0.45972 0.77011 0.0
O237 O 0.36541 0.44324 0.78954 0.0
Mg238 Mg 0.871 0.33091 0.79741 0.0
O239 O 0.85437 0.36382 0.76948 0.0
O240 O 0.80288 0.34482 0.78713 0.0
Mg241 Mg 0.78652 0.29955 0.82712 0.0
C242 C 0.82865 0.36542 0.76851 0.0
C243 C 0.93825 0.35174 0.77161 0.0
O244 O 0.92345 0.32048 0.77807 0.0
O245 O 0.87416 0.35216 0.86224 0.0
O246 O 0.82193 0.32877 0.87957 0.0
O247 O 0.85265 0.29907 0.74146 0.0
O248 O 0.82429 0.29271 0.79911 0.0
C249 C 0.85177 0.34646 0.8886 0.0
C250 C 0.8257 0.28353 0.76173 0.0
O251 O 0.92302 0.36649 0.77922 0.0
Mg252 Mg 0.12859 0.45571 0.65573 0.0
O253 O 0.14507 0.50658 0.67881 0.0
O254 O 0.19588 0.53909 0.65814 0.0
Mg255 Mg 0.2116 0.50875 0.62012 0.0
C256 C 0.17048 0.53427 0.67735 0.0
C257 C 0.06406 0.41196 0.69328 0.0
O258 O 0.08057 0.39693 0.69493 0.0
O259 O 0.12276 0.46967 0.58962 0.0
O260 O 0.17413 0.49886 0.56864 0.0
O261 O 0.14889 0.44653 0.71291 0.0
O262 O 0.17589 0.46543 0.65352 0.0
C263 C 0.1439 0.48541 0.56143 0.0
C264 C 0.17556 0.45753 0.69214 0.0
O265 O 0.07694 0.43943 0.67569 0.0
Mg266 Mg 0.66725 0.12864 0.65639 0.0
O267 O 0.63544 0.14576 0.68642 0.0
O268 O 0.65385 0.197 0.66814 0.0
Mg269 Mg 0.69766 0.21262 0.62543 0.0
C270 C 0.63386 0.17147 0.68773 0.0
C271 C 0.64724 0.06324 0.68854 0.0
O272 O 0.67872 0.07867 0.68412 0.0
O273 O 0.64359 0.1245 0.59335 0.0
O274 O 0.66631 0.1764 0.57465 0.0
O275 O 0.70062 0.14739 0.7104 0.0
O276 O 0.70568 0.17539 0.65284 0.0
C277 C 0.64818 0.14639 0.5668 0.0
C278 C 0.71572 0.1742 0.68978 0.0
O279 O 0.63201 0.07718 0.67678 0.0
Mg280 Mg 0.54666 0.67571 0.66283 0.0
O281 O 0.49715 0.64266 0.69152 0.0
O282 O 0.46446 0.66124 0.67366 0.0
Mg283 Mg 0.49282 0.70577 0.63224 0.0
C284 C 0.46978 0.64098 0.6927 0.0
C285 C 0.59293 0.65657 0.69386 0.0
O286 O 0.60845 0.68812 0.69042 0.0
O287 O 0.52825 0.65332 0.59853 0.0
O288 O 0.49865 0.67563 0.58079 0.0
O289 O 0.55995 0.70794 0.71823 0.0
O290 O 0.53768 0.71357 0.66048 0.0
C291 C 0.51097 0.65809 0.57219 0.0
C292 C 0.54806 0.72291 0.69791 0.0
O293 O 0.56369 0.64093 0.68209 0.0
Mg294 Mg 0.87511 0.54675 0.64801 0.0
O295 O 0.8563 0.49647 0.67459 0.0
O296 O 0.8043 0.46559 0.65832 0.0
Mg297 Mg 0.78974 0.49686 0.62028 0.0
C298 C 0.82997 0.46961 0.67582 0.0
C299 C 0.93369 0.55689 0.7004 0.0
O300 O 0.9108 0.54589 0.72889 0.0
O301 O 0.87569 0.52828 0.58274 0.0
O302 O 0.82331 0.50135 0.56585 0.0
O303 O 0.85928 0.56105 0.70564 0.0
O304 O 0.82922 0.54054 0.6489 0.0
C305 C 0.85296 0.51238 0.55656 0.0
C306 C 0.83194 0.55074 0.68679 0.0
O307 O 0.92659 0.5591 0.66257 0.0
Mg308 Mg 0.32555 0.87253 0.6617 0.0
O309 O 0.35792 0.85564 0.69066 0.0
O310 O 0.33935 0.80435 0.67248 0.0
Mg311 Mg 0.29482 0.78841 0.6312 0.0
C312 C 0.35962 0.82998 0.6916 0.0
C313 C 0.34641 0.9394 0.6896 0.0
O314 O 0.31509 0.92473 0.68379 0.0
O315 O 0.34838 0.87629 0.59804 0.0
O316 O 0.32562 0.82431 0.57976 0.0
O317 O 0.2928 0.85403 0.71656 0.0
O318 O 0.28713 0.82575 0.65908 0.0
C319 C 0.34363 0.85429 0.57159 0.0
C320 C 0.27745 0.82712 0.69622 0.0
O321 O 0.36105 0.92426 0.68081 0.0
Mg322 Mg 0.46186 0.33538 0.664 0.0
O323 O 0.51225 0.36891 0.68976 0.0
O324 O 0.54416 0.34963 0.67081 0.0
Mg325 Mg 0.5142 0.30379 0.63223 0.0
C326 C 0.5396 0.37053 0.68951 0.0
C327 C 0.41622 0.35528 0.69472 0.0
O328 O 0.40054 0.32372 0.69126 0.0
O329 O 0.47839 0.35584 0.59837 0.0
O330 O 0.50682 0.33236 0.58004 0.0
O331 O 0.44962 0.30438 0.72056 0.0
O332 O 0.47031 0.29716 0.66232 0.0
C333 C 0.4945 0.34989 0.57141 0.0
C334 C 0.46046 0.28849 0.70011 0.0
O335 O 0.44549 0.37077 0.68297 0.0
C336 C 0.3758 0.02425 0.26166 0.0
C337 C 0.37725 0.02714 0.21784 0.0
H338 H 0.36134 0.99237 0.31427 0.0
C339 C 0.36235 0.99906 0.19314 0.0
H340 H 0.38686 0.04544 0.28149 0.0
C341 C 0.34785 0.96865 0.21185 0.0
C342 C 0.34807 0.9658 0.2556 0.0
H343 H 0.36254 0.00054 0.15924 0.0
H344 H 0.33755 0.94749 0.19198 0.0
C345 C 0.36137 0.99384 0.28037 0.0
C346 C 0.36841 0.35793 0.27722 0.0
C347 C 0.38514 0.34698 0.25231 0.0
H348 H 0.34079 0.38158 0.27905 0.0
C349 C 0.38475 0.34973 0.20853 0.0
H350 H 0.36795 0.35571 0.31106 0.0
C351 C 0.36923 0.3647 0.19016 0.0
C352 C 0.35371 0.37692 0.21528 0.0
H353 H 0.39741 0.34144 0.18862 0.0
H354 H 0.36989 0.36718 0.15636 0.0
C355 C 0.35276 0.37266 0.25889 0.0
C356 C 0.95999 0.34881 0.25337 0.0
C357 C 0.95696 0.34576 0.20961 0.0
H358 H 0.99216 0.36667 0.30569 0.0
C359 C 0.98481 0.35666 0.18492 0.0
H360 H 0.93892 0.34054 0.27316 0.0
C361 C 0.01524 0.37172 0.20342 0.0
C362 C 0.01841 0.37629 0.24699 0.0
H363 H 0.98317 0.35417 0.1511 0.0
H364 H 0.03627 0.38063 0.18343 0.0
C365 C 0.99049 0.36402 0.27191 0.0
C366 C 0.63197 0.99804 0.19257 0.0
C367 C 0.61676 0.97018 0.21766 0.0
H368 H 0.65712 0.04959 0.19058 0.0
C369 C 0.61808 0.97343 0.26144 0.0
H370 H 0.63185 0.99626 0.15869 0.0
C371 C 0.63264 0.00402 0.27967 0.0
C372 C 0.64623 0.03186 0.25445 0.0
H373 H 0.60675 0.95241 0.28155 0.0
H374 H 0.63254 0.00581 0.31352 0.0
C375 C 0.64662 0.0286 0.21079 0.0
C376 C 0.60757 0.64497 0.20507 0.0
C377 C 0.60805 0.64858 0.24879 0.0
H378 H 0.62157 0.62671 0.15285 0.0
C379 C 0.62527 0.6381 0.27345 0.0
H380 H 0.59454 0.6529 0.18533 0.0
C381 C 0.64059 0.62305 0.25501 0.0
C382 C 0.63889 0.61806 0.21151 0.0
H383 H 0.62645 0.641 0.30722 0.0
H384 H 0.65302 0.61459 0.27501 0.0
C385 C 0.62281 0.62974 0.18658 0.0
C386 C 0.01161 0.64025 0.18431 0.0
C387 C 0.0389 0.65104 0.21 0.0
H388 H 0.96018 0.61622 0.18105 0.0
C389 C 0.03494 0.64784 0.25366 0.0
H390 H 0.014 0.64283 0.15053 0.0
C391 C 0.00405 0.6325 0.27113 0.0
C392 C 0.97669 0.62031 0.24523 0.0
H393 H 0.05556 0.65601 0.27419 0.0
H394 H 0.00163 0.62963 0.30486 0.0
C395 C 0.98079 0.62511 0.20176 0.0
C396 C 0.58376 0.98717 0.74325 0.0
C397 C 0.6016 0.97211 0.75306 0.0
H398 H 0.58405 0.02779 0.71456 0.0
C399 C 0.63409 0.98704 0.7409 0.0
H400 H 0.55861 0.97614 0.75199 0.0
C401 C 0.6485 0.0163 0.71952 0.0
C402 C 0.63083 0.03145 0.70957 0.0
H403 H 0.64857 0.97612 0.74783 0.0
H404 H 0.67365 0.02705 0.71085 0.0
C405 C 0.59824 0.01659 0.72156 0.0
C406 C 0.65785 0.64455 0.74244 0.0
C407 C 0.64099 0.61182 0.75358 0.0
H408 H 0.65605 0.68403 0.71479 0.0
C409 C 0.60789 0.59346 0.74445 0.0
H410 H 0.68335 0.65943 0.74892 0.0
C411 C 0.5921 0.60766 0.72438 0.0
C412 C 0.60914 0.64049 0.71338 0.0
H413 H 0.59428 0.56812 0.75244 0.0
H414 H 0.56659 0.59305 0.71781 0.0
C415 C 0.64215 0.65869 0.72271 0.0
C416 C 0.99247 0.58256 0.68308 0.0
C417 C 0.96769 0.57006 0.71314 0.0
H418 H 0.04324 0.60844 0.6716 0.0
C419 C 0.97588 0.5723 0.75586 0.0
H420 H 0.98699 0.58105 0.64992 0.0
C421 C 0.00815 0.58815 0.76833 0.0
C422 C 0.03294 0.60194 0.73835 0.0
H423 H 0.95738 0.56279 0.77985 0.0
H424 H 0.01364 0.59037 0.80154 0.0
C425 C 0.02474 0.59825 0.69555 0.0
C426 C 0.36131 0.01856 0.73439 0.0
C427 C 0.39307 0.03248 0.74923 0.0
H428 H 0.32199 0.97868 0.70382 0.0
C429 C 0.40995 0.01585 0.74338 0.0
H430 H 0.34759 0.03069 0.73821 0.0
C431 C 0.39519 0.98582 0.72319 0.0
C432 C 0.36326 0.97188 0.70877 0.0
H433 H 0.43453 0.02605 0.75427 0.0
H434 H 0.4086 0.97338 0.71939 0.0
C435 C 0.3466 0.98867 0.71453 0.0
C436 C 0.40169 0.41832 0.74657 0.0
C437 C 0.36845 0.40019 0.75502 0.0
H438 H 0.44302 0.41852 0.72023 0.0
C439 C 0.35136 0.36767 0.74293 0.0
H440 H 0.41548 0.44351 0.75529 0.0
C441 C 0.36698 0.35351 0.72298 0.0
C442 C 0.40013 0.37147 0.71434 0.0
H443 H 0.32575 0.35297 0.74886 0.0
H444 H 0.35291 0.32832 0.71435 0.0
C445 C 0.4174 0.4041 0.72624 0.0
C446 C 0.01512 0.4142 0.71725 0.0
C447 C 0.03186 0.39727 0.71322 0.0
H448 H 0.97239 0.41327 0.73945 0.0
C449 C 0.01791 0.36591 0.72957 0.0
H450 H 0.02534 0.43848 0.70519 0.0
C451 C 0.98787 0.35162 0.74907 0.0
C452 C 0.97095 0.3683 0.75297 0.0
H453 H 0.03012 0.35217 0.72719 0.0
H454 H 0.97786 0.3273 0.76095 0.0
C455 C 0.98494 0.39986 0.7371 0.0
C456 C 0.4806 0.22854 0.19337 0.0
C457 C 0.47876 0.20784 0.22584 0.0
H458 H 0.48196 0.2724 0.17675 0.0
C459 C 0.48138 0.21842 0.26757 0.0
H460 H 0.47892 0.22133 0.16084 0.0
C461 C 0.48329 0.24788 0.27671 0.0
C462 C 0.48245 0.26734 0.24432 0.0
H463 H 0.48034 0.20325 0.29336 0.0
H464 H 0.48354 0.25444 0.30928 0.0
C465 C 0.48235 0.2579 0.20251 0.0
C466 C 0.20587 0.41982 0.28325 0.0
C467 C 0.19712 0.44257 0.27151 0.0
H468 H 0.23588 0.39971 0.27179 0.0
C469 C 0.21524 0.46521 0.2401 0.0
H470 H 0.19276 0.40216 0.30746 0.0
C471 C 0.24063 0.46398 0.21967 0.0
C472 C 0.24782 0.43981 0.23 0.0
H473 H 0.20913 0.48309 0.23037 0.0
H474 H 0.25357 0.48088 0.19465 0.0
C475 C 0.23063 0.41832 0.26263 0.0
C476 C 0.74191 0.23219 0.27077 0.0
C477 C 0.72256 0.21077 0.23912 0.0
H478 H 0.78531 0.27595 0.28576 0.0
C479 C 0.73063 0.22006 0.19698 0.0
H480 H 0.73634 0.22597 0.30357 0.0
C481 C 0.75872 0.24888 0.18673 0.0
C482 C 0.77948 0.26898 0.21841 0.0
H483 H 0.71614 0.20432 0.17177 0.0
H484 H 0.76505 0.2544 0.15395 0.0
C485 C 0.77007 0.26091 0.26053 0.0
C486 C 0.51271 0.77854 0.26752 0.0
C487 C 0.5151 0.78927 0.22589 0.0
H488 H 0.5109 0.74244 0.30873 0.0
C489 C 0.51319 0.76873 0.19316 0.0
H490 H 0.5138 0.79359 0.29351 0.0
C491 C 0.51162 0.7394 0.2019 0.0
C492 C 0.51175 0.72982 0.24356 0.0
H493 H 0.5147 0.77605 0.16071 0.0
H494 H 0.51197 0.72502 0.17592 0.0
C495 C 0.51096 0.74911 0.27625 0.0
C496 C 0.75277 0.53345 0.2163 0.0
C497 C 0.75124 0.56197 0.2153 0.0
H498 H 0.78007 0.51112 0.23529 0.0
C499 C 0.77575 0.58961 0.235 0.0
H500 H 0.73417 0.51173 0.20148 0.0
C501 C 0.80142 0.58919 0.25445 0.0
C502 C 0.80374 0.56118 0.25464 0.0
H503 H 0.7753 0.61195 0.23537 0.0
H504 H 0.81983 0.61128 0.26878 0.0
C505 C 0.77898 0.5331 0.23566 0.0
C506 C 0.225 0.73677 0.26653 0.0
C507 C 0.21624 0.72791 0.22444 0.0
H508 H 0.25808 0.77252 0.30922 0.0
C509 C 0.23748 0.7474 0.19268 0.0
H510 H 0.20938 0.72221 0.29182 0.0
C511 C 0.26539 0.77641 0.20267 0.0
C512 C 0.27281 0.78651 0.24464 0.0
H513 H 0.23163 0.74125 0.15992 0.0
H514 H 0.28026 0.79168 0.17732 0.0
C515 C 0.253 0.76568 0.27652 0.0
C516 C 0.54393 0.77225 0.6914 0.0
C517 C 0.5455 0.7493 0.71706 0.0
H518 H 0.54266 0.81615 0.68882 0.0
C519 C 0.54529 0.75226 0.76079 0.0
H520 H 0.54414 0.77048 0.65753 0.0
C521 C 0.54376 0.77798 0.77861 0.0
C522 C 0.5432 0.80146 0.75293 0.0
H523 H 0.54631 0.73474 0.78116 0.0
H524 H 0.54394 0.77997 0.81248 0.0
C525 C 0.54317 0.79836 0.70921 0.0
C526 C 0.77693 0.55076 0.77141 0.0
C527 C 0.75284 0.55154 0.74733 0.0
H528 H 0.82138 0.5504 0.77096 0.0
C529 C 0.75441 0.55098 0.70344 0.0
H530 H 0.77625 0.55127 0.80536 0.0
C531 C 0.77981 0.54987 0.68389 0.0
C532 C 0.80441 0.55005 0.7079 0.0
H533 H 0.73604 0.55142 0.68423 0.0
H534 H 0.78059 0.5497 0.64992 0.0
C535 C 0.80276 0.5504 0.75181 0.0
C536 C 0.22662 0.77451 0.68935 0.0
C537 C 0.25019 0.79856 0.7151 0.0
H538 H 0.18185 0.72982 0.68673 0.0
C539 C 0.24709 0.79538 0.75879 0.0
H540 H 0.22849 0.77658 0.65548 0.0
C541 C 0.22085 0.76843 0.77652 0.0
C542 C 0.19695 0.74469 0.75082 0.0
H543 H 0.26502 0.81358 0.77923 0.0
H544 H 0.21898 0.76647 0.81039 0.0
C545 C 0.19993 0.74793 0.70711 0.0
C546 C 0.46011 0.25717 0.76263 0.0
C547 C 0.46123 0.26103 0.71897 0.0
H548 H 0.45759 0.22726 0.8139 0.0
C549 C 0.46149 0.2375 0.69302 0.0
H550 H 0.45999 0.27506 0.78325 0.0
C551 C 0.45947 0.20992 0.71042 0.0
C552 C 0.4579 0.20585 0.75406 0.0
H553 H 0.46222 0.23989 0.65918 0.0
H554 H 0.45897 0.19175 0.68977 0.0
C555 C 0.45883 0.22993 0.78008 0.0
C556 C 0.22925 0.46166 0.6872 0.0
C557 C 0.20472 0.46101 0.71199 0.0
H558 H 0.27372 0.46139 0.68634 0.0
C559 C 0.20755 0.46201 0.7558 0.0
H560 H 0.22756 0.46086 0.65329 0.0
C561 C 0.23418 0.46289 0.77462 0.0
C562 C 0.25801 0.4621 0.7499 0.0
H563 H 0.18903 0.46171 0.77555 0.0
H564 H 0.2355 0.46304 0.80855 0.0
C565 C 0.25555 0.46185 0.70605 0.0
C566 C 0.79342 0.25327 0.69931 0.0
C567 C 0.79713 0.25632 0.74296 0.0
H568 H 0.76398 0.22486 0.64818 0.0
C569 C 0.7735 0.23268 0.76907 0.0
H570 H 0.81131 0.27131 0.67863 0.0
C571 C 0.74689 0.2059 0.75178 0.0
C572 C 0.74315 0.2028 0.70816 0.0
H573 H 0.77595 0.23449 0.8029 0.0
H574 H 0.72924 0.1877 0.77253 0.0
C575 C 0.76635 0.22685 0.68201 0.0
C576 C 0.4643 0.089 -0.00608 0.0
C577 C 0.47156 0.11103 0.027 0.0
H578 H 0.46295 0.08194 0.92756 0.0
C579 C 0.48772 0.14413 0.01799 0.0
H580 H 0.45216 0.06331 -0.00024 0.0
C581 C 0.4942 0.15481 0.97651 0.0
C582 C 0.48433 0.13258 0.94321 0.0
H583 H 0.49405 0.16174 0.04277 0.0
H584 H 0.50519 0.18041 0.97057 0.0
C585 C 0.47049 0.09966 0.95243 0.0
C586 C 0.37245 0.47761 0.95641 0.0
C587 C 0.35072 0.48802 0.94635 0.0
H588 H 0.39231 0.46181 0.00423 0.0
C589 C 0.33457 0.49387 0.97907 0.0
H590 H 0.38551 0.47322 0.93203 0.0
C591 C 0.33813 0.48694 0.02065 0.0
C592 C 0.35819 0.47439 0.03034 0.0
H593 H 0.3177 0.50201 0.97241 0.0
H594 H 0.3241 0.49009 0.04485 0.0
C595 C 0.3763 0.47107 -0.00206 0.0
C596 C 0.8928 0.37571 0.94447 0.0
C597 C 0.86045 0.3561 0.93287 0.0
H598 H 0.92712 0.39283 -0.00583 0.0
C599 C 0.83691 0.34194 0.96454 0.0
H600 H 0.91148 0.38728 0.92093 0.0
C601 C 0.84588 0.34478 0.00666 0.0
C602 C 0.87853 0.36209 0.01794 0.0
H603 H 0.81166 0.32687 0.95675 0.0
H604 H 0.82737 0.33201 0.03007 0.0
C605 C 0.90174 0.37881 -0.01342 0.0
C606 C 0.50596 0.85428 0.01808 0.0
C607 C 0.52097 0.88715 0.02818 0.0
H608 H 0.4899 0.819 0.96945 0.0
C609 C 0.52729 0.90958 -0.00409 0.0
H610 H 0.50037 0.83634 0.04221 0.0
C611 C 0.5215 0.8997 0.95411 0.0
C612 C 0.50899 0.86715 0.94375 0.0
H613 H 0.53848 0.9351 0.00257 0.0
H614 H 0.52839 0.91781 0.92987 0.0
C615 C 0.49987 0.84436 0.97628 0.0
C616 C 0.62345 0.52976 -0.00891 0.0
C617 C 0.64004 0.5252 0.02434 0.0
H618 H 0.61813 0.53127 0.92468 0.0
C619 C 0.66133 0.51398 0.01524 0.0
H620 H 0.60657 0.53805 -0.00313 0.0
C621 C 0.66768 0.50976 0.97364 0.0
C622 C 0.65312 0.51704 0.94037 0.0
H623 H 0.67427 0.50994 0.04008 0.0
H624 H 0.68545 0.50267 0.96761 0.0
C625 C 0.63007 0.52592 0.94958 0.0
C626 C 0.10802 0.61942 0.95 0.0
C627 C 0.14001 0.64111 0.93856 0.0
H628 H 0.07355 0.60001 -0.0005 0.0
C629 C 0.16322 0.65625 0.97032 0.0
H630 H 0.08966 0.60698 0.92635 0.0
C631 C 0.15395 0.65256 0.01242 0.0
C632 C 0.12136 0.63343 0.02349 0.0
H633 H 0.1882 0.67289 0.96262 0.0
H634 H 0.17201 0.66629 0.0359 0.0
C635 C 0.09881 0.6155 -0.00795 0.0
C636 C 0.83964 0.5056 0.48002 0.0
C637 C 0.86151 0.51062 0.51251 0.0
H638 H 0.83308 0.50898 0.41417 0.0
C639 C 0.89294 0.51816 0.50217 0.0
H640 H 0.81515 0.49959 0.48695 0.0
C641 C 0.9031 0.52327 0.46049 0.0
C642 C 0.88216 0.52133 0.42827 0.0
H643 H 0.9102 0.52171 0.52643 0.0
H644 H 0.928 0.53061 0.45394 0.0
C645 C 0.84992 0.51107 0.43825 0.0
C646 C 0.34206 0.84089 0.49551 0.0
C647 C 0.35516 0.86373 0.52805 0.0
H648 H 0.33451 0.83283 0.42946 0.0
C649 C 0.37567 0.89626 0.51779 0.0
H650 H 0.32639 0.81554 0.50229 0.0
C651 C 0.3805 0.90612 0.47597 0.0
C652 C 0.36465 0.88367 0.44359 0.0
H653 H 0.38654 0.91439 0.54209 0.0
H654 H 0.39501 0.93164 0.46933 0.0
C655 C 0.34663 0.85079 0.45366 0.0
C656 C 0.48163 0.37847 0.51583 0.0
C657 C 0.49481 0.35926 0.52714 0.0
H658 H 0.46388 0.39525 0.46644 0.0
C659 C 0.50427 0.34542 0.49523 0.0
H660 H 0.47442 0.38977 0.53954 0.0
C661 C 0.4979 0.34823 0.45319 0.0
C662 C 0.48226 0.36522 0.4422 0.0
H663 H 0.51477 0.33067 0.50276 0.0
H664 H 0.50379 0.33575 0.42962 0.0
C665 C 0.47556 0.38155 0.47379 0.0
C666 C 0.10053 0.47305 0.50893 0.0
C667 C 0.13315 0.48455 0.51774 0.0
H668 H 0.06385 0.45667 0.46225 0.0
C669 C 0.15478 0.49169 0.48416 0.0
H670 H 0.08331 0.46762 0.53402 0.0
C671 C 0.14359 0.48508 0.44285 0.0
C672 C 0.1106 0.47153 0.4343 0.0
H673 H 0.18014 0.5007 0.48983 0.0
H674 H 0.16061 0.48934 0.41788 0.0
C675 C 0.08941 0.46679 0.46766 0.0
C676 C 0.64614 0.14908 0.44884 0.0
C677 C 0.62815 0.11613 0.43921 0.0
H678 H 0.66598 0.1847 0.49703 0.0
C679 C 0.61173 0.09399 0.47172 0.0
H680 H 0.65865 0.16682 0.42449 0.0
C681 C 0.6161 0.10418 0.51339 0.0
C682 C 0.6367 0.13675 0.52332 0.0
H683 H 0.59719 0.06843 0.4654 0.0
H684 H 0.6049 0.08626 0.53788 0.0
C685 C 0.65024 0.15933 0.49052 0.0
C686 C 0.50282 0.65502 0.45426 0.0
C687 C 0.51786 0.63744 0.44327 0.0
H688 H 0.48817 0.67478 0.50379 0.0
C689 C 0.52582 0.62238 0.47521 0.0
H690 H 0.49602 0.66658 0.43046 0.0
C691 C 0.52157 0.62726 0.51732 0.0
C692 C 0.50897 0.64703 0.5284 0.0
H693 H 0.53708 0.60828 0.46791 0.0
H694 H 0.52968 0.61687 0.54114 0.0
C695 C 0.49826 0.65963 0.49641 0.0
C696 C 0.53728 0.10893 0.22137 0.0
C697 C 0.51042 0.07939 0.20945 0.0
H698 H 0.58342 0.13253 0.25201 0.0
C699 C 0.50974 0.05062 0.21983 0.0
H700 H 0.5385 0.13149 0.21367 0.0
C701 C 0.53497 0.05121 0.242 0.0
C702 C 0.56189 0.0806 0.25393 0.0
H703 H 0.4894 0.02743 0.21134 0.0
H704 H 0.53339 0.02847 0.24966 0.0
C705 C 0.56301 0.10953 0.24307 0.0
C706 C 0.4492 0.5644 0.24792 0.0
C707 C 0.47736 0.5642 0.25954 0.0
H708 H 0.40309 0.53883 0.21728 0.0
C709 C 0.4805 0.53757 0.24844 0.0
H710 H 0.4461 0.58458 0.25611 0.0
C711 C 0.4564 0.51195 0.22601 0.0
C712 C 0.42817 0.51189 0.21443 0.0
H713 H 0.50191 0.53662 0.25657 0.0
H714 H 0.4599 0.49199 0.21794 0.0
C715 C 0.42458 0.53822 0.22592 0.0
C716 C 0.8855 0.45796 0.23322 0.0
C717 C 0.91551 0.48415 0.24508 0.0
H718 H 0.86052 0.41155 0.2032 0.0
C719 C 0.9437 0.48371 0.2346 0.0
H720 H 0.86339 0.45763 0.24106 0.0
C721 C 0.9421 0.45786 0.2128 0.0
C722 C 0.91223 0.43141 0.20125 0.0
H723 H 0.96723 0.50354 0.24303 0.0
H724 H 0.96446 0.45851 0.20541 0.0
C725 C 0.88386 0.43157 0.21183 0.0
C726 C 0.45663 0.88874 0.22463 0.0
C727 C 0.48351 0.91821 0.21251 0.0
H728 H 0.4106 0.86532 0.25571 0.0
C729 C 0.48444 0.94705 0.22322 0.0
H730 H 0.45521 0.86613 0.21669 0.0
C731 C 0.4594 0.9466 0.2458 0.0
C732 C 0.43242 0.91728 0.25783 0.0
H733 H 0.50479 0.9702 0.21458 0.0
H734 H 0.46115 0.9694 0.25356 0.0
C735 C 0.43108 0.88827 0.24675 0.0
C736 C 0.53644 0.48235 0.21826 0.0
C737 C 0.56517 0.48284 0.20814 0.0
H738 H 0.4908 0.45783 0.2487 0.0
C739 C 0.56927 0.45721 0.22159 0.0
H740 H 0.5325 0.50176 0.2087 0.0
C741 C 0.54481 0.43144 0.2444 0.0
C742 C 0.51631 0.43139 0.25487 0.0
H743 H 0.59114 0.45693 0.21415 0.0
H744 H 0.54838 0.4119 0.25438 0.0
C745 C 0.51251 0.45716 0.24149 0.0
C746 C 0.05333 0.53942 0.22043 0.0
C747 C 0.08338 0.56523 0.20806 0.0
H748 H 0.0276 0.49405 0.25138 0.0
C749 C 0.11146 0.5645 0.21842 0.0
H750 H 0.03121 0.53929 0.21322 0.0
C751 C 0.10934 0.53802 0.24007 0.0
C752 C 0.07915 0.51231 0.25244 0.0
H753 H 0.13492 0.58403 0.20916 0.0
H754 H 0.13124 0.53781 0.24744 0.0
C755 C 0.05126 0.51348 0.24254 0.0
C756 C 0.41001 0.80158 0.74887 0.0
C757 C 0.43742 0.83096 0.75974 0.0
H758 H 0.36405 0.77818 0.71843 0.0
C759 C 0.43884 0.85992 0.74837 0.0
H760 H 0.40824 0.77885 0.75706 0.0
C761 C 0.41342 0.85954 0.72666 0.0
C762 C 0.3862 0.83019 0.71528 0.0
H763 H 0.45955 0.88297 0.75641 0.0
H764 H 0.41534 0.88231 0.71834 0.0
C765 C 0.38476 0.80119 0.72658 0.0
C766 C 0.61961 0.42073 0.74477 0.0
C767 C 0.61821 0.44833 0.75592 0.0
H768 H 0.59604 0.37465 0.71461 0.0
C769 C 0.59084 0.45015 0.74489 0.0
H770 H 0.64043 0.41865 0.75266 0.0
C771 C 0.56531 0.42485 0.72347 0.0
C772 C 0.56677 0.39734 0.71206 0.0
H773 H 0.58896 0.47104 0.75311 0.0
H774 H 0.54453 0.42699 0.71559 0.0
C775 C 0.59425 0.39559 0.72279 0.0
C776 C 0.14151 0.58377 0.73534 0.0
C777 C 0.17067 0.61112 0.74705 0.0
H778 H 0.11861 0.53812 0.70432 0.0
C779 C 0.19986 0.61346 0.73453 0.0
H780 H 0.11859 0.58119 0.74443 0.0
C781 C 0.19985 0.58886 0.71099 0.0
C782 C 0.17067 0.56124 0.70005 0.0
H783 H 0.22273 0.63431 0.74281 0.0
H784 H 0.22272 0.59121 0.70212 0.0
C785 C 0.14152 0.55903 0.71237 0.0
C786 C 0.60997 0.20061 0.72489 0.0
C787 C 0.6079 0.1715 0.71266 0.0
H788 H 0.58751 0.22327 0.75725 0.0
C789 C 0.58069 0.14226 0.72448 0.0
H790 H 0.63071 0.22354 0.71647 0.0
C791 C 0.55585 0.1421 0.74744 0.0
C792 C 0.55788 0.17119 0.75966 0.0
H793 H 0.57833 0.1194 0.7155 0.0
H794 H 0.53508 0.11914 0.75571 0.0
C795 C 0.58531 0.20045 0.74845 0.0
C796 C 0.42035 0.56266 0.7517 0.0
C797 C 0.39305 0.56447 0.7633 0.0
H798 H 0.46602 0.58544 0.7206 0.0
C799 C 0.39138 0.59189 0.75201 0.0
H800 H 0.42242 0.5419 0.76002 0.0
C801 C 0.41622 0.61669 0.72891 0.0
C802 C 0.44346 0.6148 0.71717 0.0
H803 H 0.3706 0.59394 0.7603 0.0
H804 H 0.41412 0.63739 0.7204 0.0
C805 C 0.44537 0.58765 0.72915 0.0
C806 C 0.85806 0.41897 0.73271 0.0
C807 C 0.82876 0.39193 0.74472 0.0
H808 H 0.88141 0.46464 0.70181 0.0
C809 C 0.79973 0.39042 0.73344 0.0
H810 H 0.88087 0.42093 0.74094 0.0
C811 C 0.80002 0.41539 0.71052 0.0
C812 C 0.82936 0.44257 0.6989 0.0
H813 H 0.77674 0.36983 0.74204 0.0
H814 H 0.77727 0.41357 0.70236 0.0
C815 C 0.85836 0.44408 0.71031 0.0
loop_
_geom_bond_atom_site_label_1
_geom_bond_atom_site_label_2
_geom_bond_distance
_geom_bond_site_symmetry_2
_ccdc_geom_bond_type
Mg0 O1 2.028 . S
Mg0 O7 1.986 . S
Mg0 O9 2.114 . S
Mg0 O10 2.251 . S
Mg0 O13 2.010 . S
O1 Mg0 2.028 . S
O1 C4 1.250 . S
O2 Mg3 2.028 . S
O2 C4 1.248 . S
Mg3 O2 2.028 . S
Mg3 O8 2.032 . S
Mg3 O10 2.079 . S
C4 O1 1.250 . S
C4 O2 1.248 . S
C5 O6 1.264 . S
C5 O13 1.249 . S
O6 C5 1.264 . S
O7 Mg0 1.986 . S
O7 C11 1.246 . S
O8 Mg3 2.032 . S
O8 C11 1.259 . S
O9 Mg0 2.114 . S
O9 C12 1.252 . S
O10 Mg0 2.251 . S
O10 Mg3 2.079 . S
O10 C12 1.273 . S
C11 O7 1.246 . S
C11 O8 1.259 . S
C12 O9 1.252 . S
C12 O10 1.273 . S
O13 Mg0 2.010 . S
O13 C5 1.249 . S
Mg14 O15 2.028 . S
Mg14 O21 1.986 . S
Mg14 O23 2.114 . S
Mg14 O24 2.251 . S
Mg14 O27 2.010 . S
O15 Mg14 2.028 . S
O15 C18 1.250 . S
O16 Mg17 2.028 . S
O16 C18 1.248 . S
Mg17 O16 2.028 . S
Mg17 O22 2.032 . S
Mg17 O24 2.079 . S
C18 O15 1.250 . S
C18 O16 1.248 . S
C19 O20 1.264 . S
C19 O27 1.249 . S
O20 C19 1.264 . S
O21 Mg14 1.986 . S
O21 C25 1.246 . S
O22 Mg17 2.032 . S
O22 C25 1.259 . S
O23 Mg14 2.114 . S
O23 C26 1.252 . S
O24 Mg14 2.251 . S
O24 Mg17 2.079 . S
O24 C26 1.273 . S
C25 O21 1.246 . S
C25 O22 1.259 . S
C26 O23 1.252 . S
C26 O24 1.273 . S
O27 Mg14 2.010 . S
O27 C19 1.249 . S
Mg28 O29 2.028 . S
Mg28 O35 1.986 . S
Mg28 O37 2.114 . S
Mg28 O38 2.251 . S
Mg28 O41 2.010 . S
O29 Mg28 2.028 . S
O29 C32 1.250 . S
O30 Mg31 2.028 . S
O30 C32 1.248 . S
Mg31 O30 2.028 . S
Mg31 O36 2.032 . S
Mg31 O38 2.079 . S
C32 O29 1.250 . S
C32 O30 1.248 . S
C33 O34 1.264 . S
C33 O41 1.249 . S
O34 C33 1.264 . S
O35 Mg28 1.986 . S
O35 C39 1.246 . S
O36 Mg31 2.032 . S
O36 C39 1.259 . S
O37 Mg28 2.114 . S
O37 C40 1.252 . S
O38 Mg28 2.251 . S
O38 Mg31 2.079 . S
O38 C40 1.273 . S
C39 O35 1.246 . S
C39 O36 1.259 . S
C40 O37 1.252 . S
C40 O38 1.273 . S
O41 Mg28 2.010 . S
O41 C33 1.249 . S
Mg42 O43 2.028 . S
Mg42 O49 1.986 . S
Mg42 O51 2.114 . S
Mg42 O52 2.251 . S
Mg42 O55 2.010 . S
O43 Mg42 2.028 . S
O43 C46 1.250 . S
O44 Mg45 2.028 . S
O44 C46 1.248 . S
Mg45 O44 2.028 . S
Mg45 O50 2.032 . S
Mg45 O52 2.079 . S
C46 O43 1.250 . S
C46 O44 1.248 . S
C47 O48 1.264 . S
C47 O55 1.249 . S
O48 C47 1.264 . S
O49 Mg42 1.986 . S
O49 C53 1.246 . S
O50 Mg45 2.032 . S
O50 C53 1.259 . S
O51 Mg42 2.114 . S
O51 C54 1.252 . S
O52 Mg42 2.251 . S
O52 Mg45 2.079 . S
O52 C54 1.273 . S
C53 O49 1.246 . S
C53 O50 1.259 . S
C54 O51 1.252 . S
C54 O52 1.273 . S
O55 Mg42 2.010 . S
O55 C47 1.249 . S
Mg56 O57 2.028 . S
Mg56 O63 1.986 . S
Mg56 O65 2.114 . S
Mg56 O66 2.251 . S
Mg56 O69 2.010 . S
O57 Mg56 2.028 . S
O57 C60 1.250 . S
O58 Mg59 2.028 . S
O58 C60 1.248 . S
Mg59 O58 2.028 . S
Mg59 O64 2.032 . S
Mg59 O66 2.079 . S
C60 O57 1.250 . S
C60 O58 1.248 . S
C61 O62 1.264 . S
C61 O69 1.249 . S
O62 C61 1.264 . S
O63 Mg56 1.986 . S
O63 C67 1.246 . S
O64 Mg59 2.032 . S
O64 C67 1.259 . S
O65 Mg56 2.114 . S
O65 C68 1.252 . S
O66 Mg56 2.251 . S
O66 Mg59 2.079 . S
O66 C68 1.273 . S
C67 O63 1.246 . S
C67 O64 1.259 . S
C68 O65 1.252 . S
C68 O66 1.273 . S
O69 Mg56 2.010 . S
O69 C61 1.249 . S
Mg70 O71 2.028 . S
Mg70 O77 1.986 . S
Mg70 O79 2.114 . S
Mg70 O80 2.251 . S
Mg70 O83 2.010 . S
O71 Mg70 2.028 . S
O71 C74 1.250 . S
O72 Mg73 2.028 . S
O72 C74 1.248 . S
Mg73 O72 2.028 . S
Mg73 O78 2.032 . S
Mg73 O80 2.079 . S
C74 O71 1.250 . S
C74 O72 1.248 . S
C75 O76 1.264 . S
C75 O83 1.249 . S
O76 C75 1.264 . S
O77 Mg70 1.986 . S
O77 C81 1.246 . S
O78 Mg73 2.032 . S
O78 C81 1.259 . S
O79 Mg70 2.114 . S
O79 C82 1.252 . S
O80 Mg70 2.251 . S
O80 Mg73 2.079 . S
O80 C82 1.273 . S
C81 O77 1.246 . S
C81 O78 1.259 . S
C82 O79 1.252 . S
C82 O80 1.273 . S
O83 Mg70 2.010 . S
O83 C75 1.249 . S
Mg84 O85 2.028 . S
Mg84 O91 1.986 . S
Mg84 O93 2.114 . S
Mg84 O94 2.251 . S
Mg84 O97 2.010 . S
O85 Mg84 2.028 . S
O85 C88 1.250 . S
O86 Mg87 2.028 . S
O86 C88 1.248 . S
Mg87 O86 2.028 . S
Mg87 O92 2.032 . S
Mg87 O94 2.079 . S
C88 O85 1.250 . S
C88 O86 1.248 . S
C89 O90 1.264 . S
C89 O97 1.249 . S
O90 C89 1.264 . S
O91 Mg84 1.986 . S
O91 C95 1.246 . S
O92 Mg87 2.032 . S
O92 C95 1.259 . S
O93 Mg84 2.114 . S
O93 C96 1.252 . S
O94 Mg84 2.251 . S
O94 Mg87 2.079 . S
O94 C96 1.273 . S
C95 O91 1.246 . S
C95 O92 1.259 . S
C96 O93 1.252 . S
C96 O94 1.273 . S
O97 Mg84 2.010 . S
O97 C89 1.249 . S
Mg98 O99 2.028 . S
Mg98 O105 1.986 . S
Mg98 O107 2.114 . S
Mg98 O108 2.251 . S
Mg98 O111 2.010 . S
O99 Mg98 2.028 . S
O99 C102 1.250 . S
O100 Mg101 2.028 . S
O100 C102 1.248 . S
Mg101 O100 2.028 . S
Mg101 O106 2.032 . S
Mg101 O108 2.079 . S
C102 O99 1.250 . S
C102 O100 1.248 . S
C103 O104 1.264 . S
C103 O111 1.249 . S
O104 C103 1.264 . S
O105 Mg98 1.986 . S
O105 C109 1.246 . S
O106 Mg101 2.032 . S
O106 C109 1.259 . S
O107 Mg98 2.114 . S
O107 C110 1.252 . S
O108 Mg98 2.251 . S
O108 Mg101 2.079 . S
O108 C110 1.273 . S
C109 O105 1.246 . S
C109 O106 1.259 . S
C110 O107 1.252 . S
C110 O108 1.273 . S
O111 Mg98 2.010 . S
O111 C103 1.249 . S
Mg112 O113 2.028 . S
Mg112 O119 1.986 . S
Mg112 O121 2.114 . S
Mg112 O122 2.251 . S
Mg112 O125 2.010 . S
O113 Mg112 2.028 . S
O113 C116 1.250 . S
O114 Mg115 2.028 . S
O114 C116 1.248 . S
Mg115 O114 2.028 . S
Mg115 O120 2.032 . S
Mg115 O122 2.079 . S
C116 O113 1.250 . S
C116 O114 1.248 . S
C117 O118 1.264 . S
C117 O125 1.249 . S
O118 C117 1.264 . S
O119 Mg112 1.986 . S
O119 C123 1.246 . S
O120 Mg115 2.032 . S
O120 C123 1.259 . S
O121 Mg112 2.114 . S
O121 C124 1.252 . S
O122 Mg112 2.251 . S
O122 Mg115 2.079 . S
O122 C124 1.273 . S
C123 O119 1.246 . S
C123 O120 1.259 . S
C124 O121 1.252 . S
C124 O122 1.273 . S
O125 Mg112 2.010 . S
O125 C117 1.249 . S
Mg126 O127 2.028 . S
Mg126 O133 1.986 . S
Mg126 O135 2.114 . S
Mg126 O136 2.251 . S
Mg126 O139 2.010 . S
O127 Mg126 2.028 . S
O127 C130 1.250 . S
O128 Mg129 2.028 . S
O128 C130 1.248 . S
Mg129 O128 2.028 . S
Mg129 O134 2.032 . S
Mg129 O136 2.079 . S
C130 O127 1.250 . S
C130 O128 1.248 . S
C131 O132 1.264 . S
C131 O139 1.249 . S
O132 C131 1.264 . S
O133 Mg126 1.986 . S
O133 C137 1.246 . S
O134 Mg129 2.032 . S
O134 C137 1.259 . S
O135 Mg126 2.114 . S
O135 C138 1.252 . S
O136 Mg126 2.251 . S
O136 Mg129 2.079 . S
O136 C138 1.273 . S
C137 O133 1.246 . S
C137 O134 1.259 . S
C138 O135 1.252 . S
C138 O136 1.273 . S
O139 Mg126 2.010 . S
O139 C131 1.249 . S
Mg140 O141 2.028 . S
Mg140 O147 1.986 . S
Mg140 O149 2.114 . S
Mg140 O150 2.251 . S
Mg140 O153 2.010 . S
O141 Mg140 2.028 . S
O141 C144 1.250 . S
O142 Mg143 2.028 . S
O142 C144 1.248 . S
Mg143 O142 2.028 . S
Mg143 O148 2.032 . S
Mg143 O150 2.079 . S
C144 O141 1.250 . S
C144 O142 1.248 . S
C145 O146 1.264 . S
C145 O153 1.249 . S
O146 C145 1.264 . S
O147 Mg140 1.986 . S
O147 C151 1.246 . S
O148 Mg143 2.032 . S
O148 C151 1.259 . S
O149 Mg140 2.114 . S
O149 C152 1.252 . S
O150 Mg140 2.251 . S
O150 Mg143 2.079 . S
O150 C152 1.273 . S
C151 O147 1.246 . S
C151 O148 1.259 . S
C152 O149 1.252 . S
C152 O150 1.273 . S
O153 Mg140 2.010 . S
O153 C145 1.249 . S
Mg154 O155 2.028 . S
Mg154 O161 1.986 . S
Mg154 O163 2.114 . S
Mg154 O164 2.251 . S
Mg154 O167 2.010 . S
O155 Mg154 2.028 . S
O155 C158 1.250 . S
O156 Mg157 2.028 . S
O156 C158 1.248 . S
Mg157 O156 2.028 . S
Mg157 O162 2.032 . S
Mg157 O164 2.079 . S
C158 O155 1.250 . S
C158 O156 1.248 . S
C159 O160 1.264 . S
C159 O167 1.249 . S
O160 C159 1.264 . S
O161 Mg154 1.986 . S
O161 C165 1.246 . S
O162 Mg157 2.032 . S
O162 C165 1.259 . S
O163 Mg154 2.114 . S
O163 C166 1.252 . S
O164 Mg154 2.251 . S
O164 Mg157 2.079 . S
O164 C166 1.273 . S
C165 O161 1.246 . S
C165 O162 1.259 . S
C166 O163 1.252 . S
C166 O164 1.273 . S
O167 Mg154 2.010 . S
O167 C159 1.249 . S
Mg168 O169 2.028 . S
Mg168 O175 1.986 . S
Mg168 O177 2.114 . S
Mg168 O178 2.251 . S
Mg168 O181 2.010 . S
O169 Mg168 2.028 . S
O169 C172 1.250 . S
O170 Mg171 2.028 . S
O170 C172 1.248 . S
Mg171 O170 2.028 . S
Mg171 O176 2.032 . S
Mg171 O178 2.079 . S
C172 O169 1.250 . S
C172 O170 1.248 . S
C173 O174 1.264 . S
C173 O181 1.249 . S
O174 C173 1.264 . S
O175 Mg168 1.986 . S
O175 C179 1.246 . S
O176 Mg171 2.032 . S
O176 C179 1.259 . S
O177 Mg168 2.114 . S
O177 C180 1.252 . S
O178 Mg168 2.251 . S
O178 Mg171 2.079 . S
O178 C180 1.273 . S
C179 O175 1.246 . S
C179 O176 1.259 . S
C180 O177 1.252 . S
C180 O178 1.273 . S
O181 Mg168 2.010 . S
O181 C173 1.249 . S
Mg182 O183 2.028 . S
Mg182 O189 1.986 . S
Mg182 O191 2.114 . S
Mg182 O192 2.251 . S
Mg182 O195 2.010 . S
O183 Mg182 2.028 . S
O183 C186 1.250 . S
O184 Mg185 2.028 . S
O184 C186 1.248 . S
Mg185 O184 2.028 . S
Mg185 O190 2.032 . S
Mg185 O192 2.079 . S
C186 O183 1.250 . S
C186 O184 1.248 . S
C187 O188 1.264 . S
C187 O195 1.249 . S
O188 C187 1.264 . S
O189 Mg182 1.986 . S
O189 C193 1.246 . S
O190 Mg185 2.032 . S
O190 C193 1.259 . S
O191 Mg182 2.114 . S
O191 C194 1.252 . S
O192 Mg182 2.251 . S
O192 Mg185 2.079 . S
O192 C194 1.273 . S
C193 O189 1.246 . S
C193 O190 1.259 . S
C194 O191 1.252 . S
C194 O192 1.273 . S
O195 Mg182 2.010 . S
O195 C187 1.249 . S
Mg196 O197 2.028 . S
Mg196 O203 1.986 . S
Mg196 O205 2.114 . S
Mg196 O206 2.251 . S
Mg196 O209 2.010 . S
O197 Mg196 2.028 . S
O197 C200 1.250 . S
O198 Mg199 2.028 . S
O198 C200 1.248 . S
Mg199 O198 2.028 . S
Mg199 O204 2.032 . S
Mg199 O206 2.079 . S
C200 O197 1.250 . S
C200 O198 1.248 . S
C201 O202 1.264 . S
C201 O209 1.249 . S
O202 C201 1.264 . S
O203 Mg196 1.986 . S
O203 C207 1.246 . S
O204 Mg199 2.032 . S
O204 C207 1.259 . S
O205 Mg196 2.114 . S
O205 C208 1.252 . S
O206 Mg196 2.251 . S
O206 Mg199 2.079 . S
O206 C208 1.273 . S
C207 O203 1.246 . S
C207 O204 1.259 . S
C208 O205 1.252 . S
C208 O206 1.273 . S
O209 Mg196 2.010 . S
O209 C201 1.249 . S
Mg210 O211 2.028 . S
Mg210 O217 1.986 . S
Mg210 O219 2.114 . S
Mg210 O220 2.251 . S
Mg210 O223 2.010 . S
O211 Mg210 2.028 . S
O211 C214 1.250 . S
O212 Mg213 2.028 . S
O212 C214 1.248 . S
Mg213 O212 2.028 . S
Mg213 O218 2.032 . S
Mg213 O220 2.079 . S
C214 O211 1.250 . S
C214 O212 1.248 . S
C215 O216 1.264 . S
C215 O223 1.249 . S
O216 C215 1.264 . S
O217 Mg210 1.986 . S
O217 C221 1.246 . S
O218 Mg213 2.032 . S
O218 C221 1.259 . S
O219 Mg210 2.114 . S
O219 C222 1.252 . S
O220 Mg210 2.251 . S
O220 Mg213 2.079 . S
O220 C222 1.273 . S
C221 O217 1.246 . S
C221 O218 1.259 . S
C222 O219 1.252 . S
C222 O220 1.273 . S
O223 Mg210 2.010 . S
O223 C215 1.249 . S
Mg224 O225 2.028 . S
Mg224 O231 1.986 . S
Mg224 O233 2.114 . S
Mg224 O234 2.251 . S
Mg224 O237 2.010 . S
O225 Mg224 2.028 . S
O225 C228 1.250 . S
O226 Mg227 2.028 . S
O226 C228 1.248 . S
Mg227 O226 2.028 . S
Mg227 O232 2.032 . S
Mg227 O234 2.079 . S
C228 O225 1.250 . S
C228 O226 1.248 . S
C229 O230 1.264 . S
C229 O237 1.249 . S
O230 C229 1.264 . S
O231 Mg224 1.986 . S
O231 C235 1.246 . S
O232 Mg227 2.032 . S
O232 C235 1.259 . S
O233 Mg224 2.114 . S
O233 C236 1.252 . S
O234 Mg224 2.251 . S
O234 Mg227 2.079 . S
O234 C236 1.273 . S
C235 O231 1.246 . S
C235 O232 1.259 . S
C236 O233 1.252 . S
C236 O234 1.273 . S
O237 Mg224 2.010 . S
O237 C229 1.249 . S
Mg238 O239 2.028 . S
Mg238 O245 1.986 . S
Mg238 O247 2.114 . S
Mg238 O248 2.251 . S
Mg238 O251 2.010 . S
O239 Mg238 2.028 . S
O239 C242 1.250 . S
O240 Mg241 2.028 . S
O240 C242 1.248 . S
Mg241 O240 2.028 . S
Mg241 O246 2.032 . S
Mg241 O248 2.079 . S
C242 O239 1.250 . S
C242 O240 1.248 . S
C243 O244 1.264 . S
C243 O251 1.249 . S
O244 C243 1.264 . S
O245 Mg238 1.986 . S
O245 C249 1.246 . S
O246 Mg241 2.032 . S
O246 C249 1.259 . S
O247 Mg238 2.114 . S
O247 C250 1.252 . S
O248 Mg238 2.251 . S
O248 Mg241 2.079 . S
O248 C250 1.273 . S
C249 O245 1.246 . S
C249 O246 1.259 . S
C250 O247 1.252 . S
C250 O248 1.273 . S
O251 Mg238 2.010 . S
O251 C243 1.249 . S
Mg252 O253 2.028 . S
Mg252 O259 1.986 . S
Mg252 O261 2.114 . S
Mg252 O262 2.251 . S
Mg252 O265 2.010 . S
O253 Mg252 2.028 . S
O253 C256 1.250 . S
O254 Mg255 2.028 . S
O254 C256 1.248 . S
Mg255 O254 2.028 . S
Mg255 O260 2.032 . S
Mg255 O262 2.079 . S
C256 O253 1.250 . S
C256 O254 1.248 . S
C257 O258 1.264 . S
C257 O265 1.249 . S
O258 C257 1.264 . S
O259 Mg252 1.986 . S
O259 C263 1.246 . S
O260 Mg255 2.032 . S
O260 C263 1.259 . S
O261 Mg252 2.114 . S
O261 C264 1.252 . S
O262 Mg252 2.251 . S
O262 Mg255 2.079 . S
O262 C264 1.273 . S
C263 O259 1.246 . S
C263 O260 1.259 . S
C264 O261 1.252 . S
C264 O262 1.273 . S
O265 Mg252 2.010 . S
O265 C257 1.249 . S
Mg266 O267 2.028 . S
Mg266 O273 1.986 . S
Mg266 O275 2.114 . S
Mg266 O276 2.251 . S
Mg266 O279 2.010 . S
O267 Mg266 2.028 . S
O267 C270 1.250 . S
O268 Mg269 2.028 . S
O268 C270 1.248 . S
Mg269 O268 2.028 . S
Mg269 O274 2.032 . S
Mg269 O276 2.079 . S
C270 O267 1.250 . S
C270 O268 1.248 . S
C271 O272 1.264 . S
C271 O279 1.249 . S
O272 C271 1.264 . S
O273 Mg266 1.986 . S
O273 C277 1.246 . S
O274 Mg269 2.032 . S
O274 C277 1.259 . S
O275 Mg266 2.114 . S
O275 C278 1.252 . S
O276 Mg266 2.251 . S
O276 Mg269 2.079 . S
O276 C278 1.273 . S
C277 O273 1.246 . S
C277 O274 1.259 . S
C278 O275 1.252 . S
C278 O276 1.273 . S
O279 Mg266 2.010 . S
O279 C271 1.249 . S
Mg280 O281 2.028 . S
Mg280 O287 1.986 . S
Mg280 O289 2.114 . S
Mg280 O290 2.251 . S
Mg280 O293 2.010 . S
O281 Mg280 2.028 . S
O281 C284 1.250 . S
O282 Mg283 2.028 . S
O282 C284 1.248 . S
Mg283 O282 2.028 . S
Mg283 O288 2.032 . S
Mg283 O290 2.079 . S
C284 O281 1.250 . S
C284 O282 1.248 . S
C285 O286 1.264 . S
C285 O293 1.249 . S
O286 C285 1.264 . S
O287 Mg280 1.986 . S
O287 C291 1.246 . S
O288 Mg283 2.032 . S
O288 C291 1.259 . S
O289 Mg280 2.114 . S
O289 C292 1.252 . S
O290 Mg280 2.251 . S
O290 Mg283 2.079 . S
O290 C292 1.273 . S
C291 O287 1.246 . S
C291 O288 1.259 . S
C292 O289 1.252 . S
C292 O290 1.273 . S
O293 Mg280 2.010 . S
O293 C285 1.249 . S
Mg294 O295 2.028 . S
Mg294 O301 1.986 . S
Mg294 O303 2.114 . S
Mg294 O304 2.251 . S
Mg294 O307 2.010 . S
O295 Mg294 2.028 . S
O295 C298 1.250 . S
O296 Mg297 2.028 . S
O296 C298 1.248 . S
Mg297 O296 2.028 . S
Mg297 O302 2.032 . S
Mg297 O304 2.079 . S
C298 O295 1.250 . S
C298 O296 1.248 . S
C299 O300 1.264 . S
C299 O307 1.249 . S
O300 C299 1.264 . S
O301 Mg294 1.986 . S
O301 C305 1.246 . S
O302 Mg297 2.032 . S
O302 C305 1.259 . S
O303 Mg294 2.114 . S
O303 C306 1.252 . S
O304 Mg294 2.251 . S
O304 Mg297 2.079 . S
O304 C306 1.273 . S
C305 O301 1.246 . S
C305 O302 1.259 . S
C306 O303 1.252 . S
C306 O304 1.273 . S
O307 Mg294 2.010 . S
O307 C299 1.249 . S
Mg308 O309 2.028 . S
Mg308 O315 1.986 . S
Mg308 O317 2.114 . S
Mg308 O318 2.251 . S
Mg308 O321 2.010 . S
O309 Mg308 2.028 . S
O309 C312 1.250 . S
O310 Mg311 2.028 . S
O310 C312 1.248 . S
Mg311 O310 2.028 . S
Mg311 O316 2.032 . S
Mg311 O318 2.079 . S
C312 O309 1.250 . S
C312 O310 1.248 . S
C313 O314 1.264 . S
C313 O321 1.249 . S
O314 C313 1.264 . S
O315 Mg308 1.986 . S
O315 C319 1.246 . S
O316 Mg311 2.032 . S
O316 C319 1.259 . S
O317 Mg308 2.114 . S
O317 C320 1.252 . S
O318 Mg308 2.251 . S
O318 Mg311 2.079 . S
O318 C320 1.273 . S
C319 O315 1.246 . S
C319 O316 1.259 . S
C320 O317 1.252 . S
C320 O318 1.273 . S
O321 Mg308 2.010 . S
O321 C313 1.249 . S
Mg322 O323 2.028 . S
Mg322 O329 1.986 . S
Mg322 O331 2.114 . S
Mg322 O332 2.251 . S
Mg322 O335 2.010 . S
O323 Mg322 2.028 . S
O323 C326 1.250 . S
O324 Mg325 2.028 . S
O324 C326 1.248 . S
Mg325 O324 2.028 . S
Mg325 O330 2.032 . S
Mg325 O332 2.079 . S
C326 O323 1.250 . S
C326 O324 1.248 . S
C327 O328 1.264 . S
C327 O335 1.249 . S
O328 C327 1.264 . S
O329 Mg322 1.986 . S
O329 C333 1.246 . S
O330 Mg325 2.032 . S
O330 C333 1.259 . S
O331 Mg322 2.114 . S
O331 C334 1.252 . S
O332 Mg322 2.251 . S
O332 Mg325 2.079 . S
O332 C334 1.273 . S
C333 O329 1.246 . S
C333 O330 1.259 . S
C334 O331 1.252 . S
C334 O332 1.273 . S
O335 Mg322 2.010 . S
O335 C327 1.249 . S
C336 C337 1.387 . S
C336 H340 0.950 . S
C336 C345 1.390 1_545 S
C337 C336 1.387 . S
C337 C339 1.387 . S
H338 C345 0.950 . S
C339 C337 1.387 . S
C339 C341 1.390 1_545 S
C339 H343 0.950 . S
H340 C336 0.950 . S
C341 C339 1.390 1_565 S
C341 C342 1.387 . S
C341 H344 0.950 . S
C342 C341 1.387 . S
C342 C345 1.387 . S
H343 C339 0.950 . S
H344 C341 0.950 . S
C345 C336 1.390 1_565 S
C345 H338 0.950 . S
C345 C342 1.387 . S
C346 C347 1.387 . S
C346 H350 0.950 . S
C346 C355 1.390 . S
C347 C346 1.387 . S
C347 C349 1.387 . S
H348 C355 0.950 . S
C349 C347 1.387 . S
C349 C351 1.390 . S
C349 H353 0.950 . S
H350 C346 0.950 . S
C351 C349 1.390 . S
C351 C352 1.387 . S
C351 H354 0.950 . S
C352 C351 1.387 . S
C352 C355 1.387 . S
H353 C349 0.950 . S
H354 C351 0.950 . S
C355 C346 1.390 . S
C355 H348 0.950 . S
C355 C352 1.387 . S
C356 C357 1.387 . S
C356 H360 0.950 . S
C356 C365 1.390 1_655 S
C357 C356 1.387 . S
C357 C359 1.387 . S
H358 C365 0.950 . S
C359 C357 1.387 . S
C359 C361 1.390 1_655 S
C359 H363 0.950 . S
H360 C356 0.950 . S
C361 C359 1.390 1_455 S
C361 C362 1.387 . S
C361 H364 0.950 . S
C362 C361 1.387 . S
C362 C365 1.387 . S
H363 C359 0.950 . S
H364 C361 0.950 . S
C365 C356 1.390 1_455 S
C365 H358 0.950 . S
C365 C362 1.387 . S
C366 C367 1.387 . S
C366 H370 0.950 . S
C366 C375 1.390 1_565 S
C367 C366 1.387 . S
C367 C369 1.387 . S
H368 C375 0.950 . S
C369 C367 1.387 . S
C369 C371 1.390 1_565 S
C369 H373 0.950 . S
H370 C366 0.950 . S
C371 C369 1.390 1_545 S
C371 C372 1.387 . S
C371 H374 0.950 . S
C372 C371 1.387 . S
C372 C375 1.387 . S
H373 C369 0.950 . S
H374 C371 0.950 . S
C375 C366 1.390 1_545 S
C375 H368 0.950 . S
C375 C372 1.387 . S
C376 C377 1.387 . S
C376 H380 0.950 . S
C376 C385 1.390 . S
C377 C376 1.387 . S
C377 C379 1.387 . S
H378 C385 0.950 . S
C379 C377 1.387 . S
C379 C381 1.390 . S
C379 H383 0.950 . S
H380 C376 0.950 . S
C381 C379 1.390 . S
C381 C382 1.387 . S
C381 H384 0.950 . S
C382 C381 1.387 . S
C382 C385 1.387 . S
H383 C379 0.950 . S
H384 C381 0.950 . S
C385 C376 1.390 . S
C385 H378 0.950 . S
C385 C382 1.387 . S
C386 C387 1.387 . S
C386 H390 0.950 . S
C386 C395 1.390 1_455 S
C387 C386 1.387 . S
C387 C389 1.387 . S
H388 C395 0.950 . S
C389 C387 1.387 . S
C389 C391 1.390 1_455 S
C389 H393 0.950 . S
H390 C386 0.950 . S
C391 C389 1.390 1_655 S
C391 C392 1.387 . S
C391 H394 0.950 . S
C392 C391 1.387 . S
C392 C395 1.387 . S
H393 C389 0.950 . S
H394 C391 0.950 . S
C395 C386 1.390 1_655 S
C395 H388 0.950 . S
C395 C392 1.387 . S
C396 C397 1.387 . S
C396 H400 0.950 . S
C396 C405 1.390 1_565 S
C397 C396 1.387 . S
C397 C399 1.387 . S
H398 C405 0.950 . S
C399 C397 1.387 . S
C399 C401 1.390 1_565 S
C399 H403 0.950 . S
H400 C396 0.950 . S
C401 C399 1.390 1_545 S
C401 C402 1.387 . S
C401 H404 0.950 . S
C402 C401 1.387 . S
C402 C405 1.387 . S
H403 C399 0.950 . S
H404 C401 0.950 . S
C405 C396 1.390 1_545 S
C405 H398 0.950 . S
C405 C402 1.387 . S
C406 C407 1.387 . S
C406 H410 0.950 . S
C406 C415 1.390 . S
C407 C406 1.387 . S
C407 C409 1.387 . S
H408 C415 0.950 . S
C409 C407 1.387 . S
C409 C411 1.390 . S
C409 H413 0.950 . S
H410 C406 0.950 . S
C411 C409 1.390 . S
C411 C412 1.387 . S
C411 H414 0.950 . S
C412 C411 1.387 . S
C412 C415 1.387 . S
H413 C409 0.950 . S
H414 C411 0.950 . S
C415 C406 1.390 . S
C415 H408 0.950 . S
C415 C412 1.387 . S
C416 C417 1.387 . S
C416 H420 0.950 . S
C416 C425 1.390 1_655 S
C417 C416 1.387 . S
C417 C419 1.387 . S
H418 C425 0.950 . S
C419 C417 1.387 . S
C419 C421 1.390 1_655 S
C419 H423 0.950 . S
H420 C416 0.950 . S
C421 C419 1.390 1_455 S
C421 C422 1.387 . S
C421 H424 0.950 . S
C422 C421 1.387 . S
C422 C425 1.387 . S
H423 C419 0.950 . S
H424 C421 0.950 . S
C425 C416 1.390 1_455 S
C425 H418 0.950 . S
C425 C422 1.387 . S
C426 C427 1.387 . S
C426 H430 0.950 . S
C426 C435 1.390 1_545 S
C427 C426 1.387 . S
C427 C429 1.387 . S
H428 C435 0.950 . S
C429 C427 1.387 . S
C429 C431 1.390 1_545 S
C429 H433 0.950 . S
H430 C426 0.950 . S
C431 C429 1.390 1_565 S
C431 C432 1.387 . S
C431 H434 0.950 . S
C432 C431 1.387 . S
C432 C435 1.387 . S
H433 C429 0.950 . S
H434 C431 0.950 . S
C435 C426 1.390 1_565 S
C435 H428 0.950 . S
C435 C432 1.387 . S
C436 C437 1.387 . S
C436 H440 0.950 . S
C436 C445 1.390 . S
C437 C436 1.387 . S
C437 C439 1.387 . S
H438 C445 0.950 . S
C439 C437 1.387 . S
C439 C441 1.390 . S
C439 H443 0.950 . S
H440 C436 0.950 . S
C441 C439 1.390 . S
C441 C442 1.387 . S
C441 H444 0.950 . S
C442 C441 1.387 . S
C442 C445 1.387 . S
H443 C439 0.950 . S
H444 C441 0.950 . S
C445 C436 1.390 . S
C445 H438 0.950 . S
C445 C442 1.387 . S
C446 C447 1.387 . S
C446 H450 0.950 . S
C446 C455 1.390 1_455 S
C447 C446 1.387 . S
C447 C449 1.387 . S
H448 C455 0.950 . S
C449 C447 1.387 . S
C449 C451 1.390 1_455 S
C449 H453 0.950 . S
H450 C446 0.950 . S
C451 C449 1.390 1_655 S
C451 C452 1.387 . S
C451 H454 0.950 . S
C452 C451 1.387 . S
C452 C455 1.387 . S
H453 C449 0.950 . S
H454 C451 0.950 . S
C455 C446 1.390 1_655 S
C455 H448 0.950 . S
C455 C452 1.387 . S
C456 C457 1.387 . S
C456 H460 0.950 . S
C456 C465 1.390 . S
C457 C456 1.387 . S
C457 C459 1.387 . S
H458 C465 0.950 . S
C459 C457 1.387 . S
C459 C461 1.390 . S
C459 H463 0.950 . S
H460 C456 0.950 . S
C461 C459 1.390 . S
C461 C462 1.387 . S
C461 H464 0.950 . S
C462 C461 1.387 . S
C462 C465 1.387 . S
H463 C459 0.950 . S
H464 C461 0.950 . S
C465 C456 1.390 . S
C465 H458 0.950 . S
C465 C462 1.387 . S
C466 C467 1.387 . S
C466 H470 0.950 . S
C466 C475 1.390 . S
C467 C466 1.387 . S
C467 C469 1.387 . S
H468 C475 0.950 . S
C469 C467 1.387 . S
C469 C471 1.390 . S
C469 H473 0.950 . S
H470 C466 0.950 . S
C471 C469 1.390 . S
C471 C472 1.387 . S
C471 H474 0.950 . S
C472 C471 1.387 . S
C472 C475 1.387 . S
H473 C469 0.950 . S
H474 C471 0.950 . S
C475 C466 1.390 . S
C475 H468 0.950 . S
C475 C472 1.387 . S
C476 C477 1.387 . S
C476 H480 0.950 . S
C476 C485 1.390 . S
C477 C476 1.387 . S
C477 C479 1.387 . S
H478 C485 0.950 . S
C479 C477 1.387 . S
C479 C481 1.390 . S
C479 H483 0.950 . S
H480 C476 0.950 . S
C481 C479 1.390 . S
C481 C482 1.387 . S
C481 H484 0.950 . S
C482 C481 1.387 . S
C482 C485 1.387 . S
H483 C479 0.950 . S
H484 C481 0.950 . S
C485 C476 1.390 . S
C485 H478 0.950 . S
C485 C482 1.387 . S
C486 C487 1.387 . S
C486 H490 0.950 . S
C486 C495 1.390 . S
C487 C486 1.387 . S
C487 C489 1.387 . S
H488 C495 0.950 . S
C489 C487 1.387 . S
C489 C491 1.390 . S
C489 H493 0.950 . S
H490 C486 0.950 . S
C491 C489 1.390 . S
C491 C492 1.387 . S
C491 H494 0.950 . S
C492 C491 1.387 . S
C492 C495 1.387 . S
H493 C489 0.950 . S
H494 C491 0.950 . S
C495 C486 1.390 . S
C495 H488 0.950 . S
C495 C492 1.387 . S
C496 C497 1.387 . S
C496 H500 0.950 . S
C496 C505 1.390 . S
C497 C496 1.387 . S
C497 C499 1.387 . S
H498 C505 0.950 . S
C499 C497 1.387 . S
C499 C501 1.390 . S
C499 H503 0.950 . S
H500 C496 0.950 . S
C501 C499 1.390 . S
C501 C502 1.387 . S
C501 H504 0.950 . S
C502 C501 1.387 . S
C502 C505 1.387 . S
H503 C499 0.950 . S
H504 C501 0.950 . S
C505 C496 1.390 . S
C505 H498 0.950 . S
C505 C502 1.387 . S
C506 C507 1.387 . S
C506 H510 0.950 . S
C506 C515 1.390 . S
C507 C506 1.387 . S
C507 C509 1.387 . S
H508 C515 0.950 . S
C509 C507 1.387 . S
C509 C511 1.390 . S
C509 H513 0.950 . S
H510 C506 0.950 . S
C511 C509 1.390 . S
C511 C512 1.387 . S
C511 H514 0.950 . S
C512 C511 1.387 . S
C512 C515 1.387 . S
H513 C509 0.950 . S
H514 C511 0.950 . S
C515 C506 1.390 . S
C515 H508 0.950 . S
C515 C512 1.387 . S
C516 C517 1.387 . S
C516 H520 0.950 . S
C516 C525 1.390 . S
C517 C516 1.387 . S
C517 C519 1.387 . S
H518 C525 0.950 . S
C519 C517 1.387 . S
C519 C521 1.390 . S
C519 H523 0.950 . S
H520 C516 0.950 . S
C521 C519 1.390 . S
C521 C522 1.387 . S
C521 H524 0.950 . S
C522 C521 1.387 . S
C522 C525 1.387 . S
H523 C519 0.950 . S
H524 C521 0.950 . S
C525 C516 1.390 . S
C525 H518 0.950 . S
C525 C522 1.387 . S
C526 C527 1.387 . S
C526 H530 0.950 . S
C526 C535 1.390 . S
C527 C526 1.387 . S
C527 C529 1.387 . S
H528 C535 0.950 . S
C529 C527 1.387 . S
C529 C531 1.390 . S
C529 H533 0.950 . S
H530 C526 0.950 . S
C531 C529 1.390 . S
C531 C532 1.387 . S
C531 H534 0.950 . S
C532 C531 1.387 . S
C532 C535 1.387 . S
H533 C529 0.950 . S
H534 C531 0.950 . S
C535 C526 1.390 . S
C535 H528 0.950 . S
C535 C532 1.387 . S
C536 C537 1.387 . S
C536 H540 0.950 . S
C536 C545 1.390 . S
C537 C536 1.387 . S
C537 C539 1.387 . S
H538 C545 0.950 . S
C539 C537 1.387 . S
C539 C541 1.390 . S
C539 H543 0.950 . S
H540 C536 0.950 . S
C541 C539 1.390 . S
C541 C542 1.387 . S
C541 H544 0.950 . S
C542 C541 1.387 . S
C542 C545 1.387 . S
H543 C539 0.950 . S
H544 C541 0.950 . S
C545 C536 1.390 . S
C545 H538 0.950 . S
C545 C542 1.387 . S
C546 C547 1.387 . S
C546 H550 0.950 . S
C546 C555 1.390 . S
C547 C546 1.387 . S
C547 C549 1.387 . S
H548 C555 0.950 . S
C549 C547 1.387 . S
C549 C551 1.390 . S
C549 H553 0.950 . S
H550 C546 0.950 . S
C551 C549 1.390 . S
C551 C552 1.387 . S
C551 H554 0.950 . S
C552 C551 1.387 . S
C552 C555 1.387 . S
H553 C549 0.950 . S
H554 C551 0.950 . S
C555 C546 1.390 . S
C555 H548 0.950 . S
C555 C552 1.387 . S
C556 C557 1.387 . S
C556 H560 0.950 . S
C556 C565 1.390 . S
C557 C556 1.387 . S
C557 C559 1.387 . S
H558 C565 0.950 . S
C559 C557 1.387 . S
C559 C561 1.390 . S
C559 H563 0.950 . S
H560 C556 0.950 . S
C561 C559 1.390 . S
C561 C562 1.387 . S
C561 H564 0.950 . S
C562 C561 1.387 . S
C562 C565 1.387 . S
H563 C559 0.950 . S
H564 C561 0.950 . S
C565 C556 1.390 . S
C565 H558 0.950 . S
C565 C562 1.387 . S
C566 C567 1.387 . S
C566 H570 0.950 . S
C566 C575 1.390 . S
C567 C566 1.387 . S
C567 C569 1.387 . S
H568 C575 0.950 . S
C569 C567 1.387 . S
C569 C571 1.390 . S
C569 H573 0.950 . S
H570 C566 0.950 . S
C571 C569 1.390 . S
C571 C572 1.387 . S
C571 H574 0.950 . S
C572 C571 1.387 . S
C572 C575 1.387 . S
H573 C569 0.950 . S
H574 C571 0.950 . S
C575 C566 1.390 . S
C575 H568 0.950 . S
C575 C572 1.387 . S
C576 C577 1.387 . S
C576 H580 0.950 . S
C576 C585 1.390 1_554 S
C577 C576 1.387 . S
C577 C579 1.387 . S
H578 C585 0.950 . S
C579 C577 1.387 . S
C579 C581 1.390 1_554 S
C579 H583 0.950 . S
H580 C576 0.950 . S
C581 C579 1.390 1_556 S
C581 C582 1.387 . S
C581 H584 0.950 . S
C582 C581 1.387 . S
C582 C585 1.387 . S
H583 C579 0.950 . S
H584 C581 0.950 . S
C585 C576 1.390 1_556 S
C585 H578 0.950 . S
C585 C582 1.387 . S
C586 C587 1.387 . S
C586 H590 0.950 . S
C586 C595 1.390 1_556 S
C587 C586 1.387 . S
C587 C589 1.387 . S
H588 C595 0.950 . S
C589 C587 1.387 . S
C589 C591 1.390 1_556 S
C589 H593 0.950 . S
H590 C586 0.950 . S
C591 C589 1.390 1_554 S
C591 C592 1.387 . S
C591 H594 0.950 . S
C592 C591 1.387 . S
C592 C595 1.387 . S
H593 C589 0.950 . S
H594 C591 0.950 . S
C595 C586 1.390 1_554 S
C595 H588 0.950 . S
C595 C592 1.387 . S
C596 C597 1.387 . S
C596 H600 0.950 . S
C596 C605 1.390 1_556 S
C597 C596 1.387 . S
C597 C599 1.387 . S
H598 C605 0.950 . S
C599 C597 1.387 . S
C599 C601 1.390 1_556 S
C599 H603 0.950 . S
H600 C596 0.950 . S
C601 C599 1.390 1_554 S
C601 C602 1.387 . S
C601 H604 0.950 . S
C602 C601 1.387 . S
C602 C605 1.387 . S
H603 C599 0.950 . S
H604 C601 0.950 . S
C605 C596 1.390 1_554 S
C605 H598 0.950 . S
C605 C602 1.387 . S
C606 C607 1.387 . S
C606 H610 0.950 . S
C606 C615 1.390 1_554 S
C607 C606 1.387 . S
C607 C609 1.387 . S
H608 C615 0.950 . S
C609 C607 1.387 . S
C609 C611 1.390 1_554 S
C609 H613 0.950 . S
H610 C606 0.950 . S
C611 C609 1.390 1_556 S
C611 C612 1.387 . S
C611 H614 0.950 . S
C612 C611 1.387 . S
C612 C615 1.387 . S
H613 C609 0.950 . S
H614 C611 0.950 . S
C615 C606 1.390 1_556 S
C615 H608 0.950 . S
C615 C612 1.387 . S
C616 C617 1.387 . S
C616 H620 0.950 . S
C616 C625 1.390 1_554 S
C617 C616 1.387 . S
C617 C619 1.387 . S
H618 C625 0.950 . S
C619 C617 1.387 . S
C619 C621 1.390 1_554 S
C619 H623 0.950 . S
H620 C616 0.950 . S
C621 C619 1.390 1_556 S
C621 C622 1.387 . S
C621 H624 0.950 . S
C622 C621 1.387 . S
C622 C625 1.387 . S
H623 C619 0.950 . S
H624 C621 0.950 . S
C625 C616 1.390 1_556 S
C625 H618 0.950 . S
C625 C622 1.387 . S
C626 C627 1.387 . S
C626 H630 0.950 . S
C626 C635 1.390 1_556 S
C627 C626 1.387 . S
C627 C629 1.387 . S
H628 C635 0.950 . S
C629 C627 1.387 . S
C629 C631 1.390 1_556 S
C629 H633 0.950 . S
H630 C626 0.950 . S
C631 C629 1.390 1_554 S
C631 C632 1.387 . S
C631 H634 0.950 . S
C632 C631 1.387 . S
C632 C635 1.387 . S
H633 C629 0.950 . S
H634 C631 0.950 . S
C635 C626 1.390 1_554 S
C635 H628 0.950 . S
C635 C632 1.387 . S
C636 C637 1.387 . S
C636 H640 0.950 . S
C636 C645 1.390 . S
C637 C636 1.387 . S
C637 C639 1.387 . S
H638 C645 0.950 . S
C639 C637 1.387 . S
C639 C641 1.390 . S
C639 H643 0.950 . S
H640 C636 0.950 . S
C641 C639 1.390 . S
C641 C642 1.387 . S
C641 H644 0.950 . S
C642 C641 1.387 . S
C642 C645 1.387 . S
H643 C639 0.950 . S
H644 C641 0.950 . S
C645 C636 1.390 . S
C645 H638 0.950 . S
C645 C642 1.387 . S
C646 C647 1.387 . S
C646 H650 0.950 . S
C646 C655 1.390 . S
C647 C646 1.387 . S
C647 C649 1.387 . S
H648 C655 0.950 . S
C649 C647 1.387 . S
C649 C651 1.390 . S
C649 H653 0.950 . S
H650 C646 0.950 . S
C651 C649 1.390 . S
C651 C652 1.387 . S
C651 H654 0.950 . S
C652 C651 1.387 . S
C652 C655 1.387 . S
H653 C649 0.950 . S
H654 C651 0.950 . S
C655 C646 1.390 . S
C655 H648 0.950 . S
C655 C652 1.387 . S
C656 C657 1.387 . S
C656 H660 0.950 . S
C656 C665 1.390 . S
C657 C656 1.387 . S
C657 C659 1.387 . S
H658 C665 0.950 . S
C659 C657 1.387 . S
C659 C661 1.390 . S
C659 H663 0.950 . S
H660 C656 0.950 . S
C661 C659 1.390 . S
C661 C662 1.387 . S
C661 H664 0.950 . S
C662 C661 1.387 . S
C662 C665 1.387 . S
H663 C659 0.950 . S
H664 C661 0.950 . S
C665 C656 1.390 . S
C665 H658 0.950 . S
C665 C662 1.387 . S
C666 C667 1.387 . S
C666 H670 0.950 . S
C666 C675 1.390 . S
C667 C666 1.387 . S
C667 C669 1.387 . S
H668 C675 0.950 . S
C669 C667 1.387 . S
C669 C671 1.390 . S
C669 H673 0.950 . S
H670 C666 0.950 . S
C671 C669 1.390 . S
C671 C672 1.387 . S
C671 H674 0.950 . S
C672 C671 1.387 . S
C672 C675 1.387 . S
H673 C669 0.950 . S
H674 C671 0.950 . S
C675 C666 1.390 . S
C675 H668 0.950 . S
C675 C672 1.387 . S
C676 C677 1.387 . S
C676 H680 0.950 . S
C676 C685 1.390 . S
C677 C676 1.387 . S
C677 C679 1.387 . S
H678 C685 0.950 . S
C679 C677 1.387 . S
C679 C681 1.390 . S
C679 H683 0.950 . S
H680 C676 0.950 . S
C681 C679 1.390 . S
C681 C682 1.387 . S
C681 H684 0.950 . S
C682 C681 1.387 . S
C682 C685 1.387 . S
H683 C679 0.950 . S
H684 C681 0.950 . S
C685 C676 1.390 . S
C685 H678 0.950 . S
C685 C682 1.387 . S
C686 C687 1.387 . S
C686 H690 0.950 . S
C686 C695 1.390 . S
C687 C686 1.387 . S
C687 C689 1.387 . S
H688 C695 0.950 . S
C689 C687 1.387 . S
C689 C691 1.390 . S
C689 H693 0.950 . S
H690 C686 0.950 . S
C691 C689 1.390 . S
C691 C692 1.387 . S
C691 H694 0.950 . S
C692 C691 1.387 . S
C692 C695 1.387 . S
H693 C689 0.950 . S
H694 C691 0.950 . S
C695 C686 1.390 . S
C695 H688 0.950 . S
C695 C692 1.387 . S
C696 C697 1.387 . S
C696 H700 0.950 . S
C696 C705 1.390 . S
C697 C696 1.387 . S
C697 C699 1.387 . S
H698 C705 0.950 . S
C699 C697 1.387 . S
C699 C701 1.390 . S
C699 H703 0.950 . S
H700 C696 0.950 . S
C701 C699 1.390 . S
C701 C702 1.387 . S
C701 H704 0.950 . S
C702 C701 1.387 . S
C702 C705 1.387 . S
H703 C699 0.950 . S
H704 C701 0.950 . S
C705 C696 1.390 . S
C705 H698 0.950 . S
C705 C702 1.387 . S
C706 C707 1.387 . S
C706 H710 0.950 . S
C706 C715 1.390 . S
C707 C706 1.387 . S
C707 C709 1.387 . S
H708 C715 0.950 . S
C709 C707 1.387 . S
C709 C711 1.390 . S
C709 H713 0.950 . S
H710 C706 0.950 . S
C711 C709 1.390 . S
C711 C712 1.387 . S
C711 H714 0.950 . S
C712 C711 1.387 . S
C712 C715 1.387 . S
H713 C709 0.950 . S
H714 C711 0.950 . S
C715 C706 1.390 . S
C715 H708 0.950 . S
C715 C712 1.387 . S
C716 C717 1.387 . S
C716 H720 0.950 . S
C716 C725 1.390 . S
C717 C716 1.387 . S
C717 C719 1.387 . S
H718 C725 0.950 . S
C719 C717 1.387 . S
C719 C721 1.390 . S
C719 H723 0.950 . S
H720 C716 0.950 . S
C721 C719 1.390 . S
C721 C722 1.387 . S
C721 H724 0.950 . S
C722 C721 1.387 . S
C722 C725 1.387 . S
H723 C719 0.950 . S
H724 C721 0.950 . S
C725 C716 1.390 . S
C725 H718 0.950 . S
C725 C722 1.387 . S
C726 C727 1.387 . S
C726 H730 0.950 . S
C726 C735 1.390 . S
C727 C726 1.387 . S
C727 C729 1.387 . S
H728 C735 0.950 . S
C729 C727 1.387 . S
C729 C731 1.390 . S
C729 H733 0.950 . S
H730 C726 0.950 . S
C731 C729 1.390 . S
C731 C732 1.387 . S
C731 H734 0.950 . S
C732 C731 1.387 . S
C732 C735 1.387 . S
H733 C729 0.950 . S
H734 C731 0.950 . S
C735 C726 1.390 . S
C735 H728 0.950 . S
C735 C732 1.387 . S
C736 C737 1.387 . S
C736 H740 0.950 . S
C736 C745 1.390 . S
C737 C736 1.387 . S
C737 C739 1.387 . S
H738 C745 0.950 . S
C739 C737 1.387 . S
C739 C741 1.390 . S
C739 H743 0.950 . S
H740 C736 0.950 . S
C741 C739 1.390 . S
C741 C742 1.387 . S
C741 H744 0.950 . S
C742 C741 1.387 . S
C742 C745 1.387 . S
H743 C739 0.950 . S
H744 C741 0.950 . S
C745 C736 1.390 . S
C745 H738 0.950 . S
C745 C742 1.387 . S
C746 C747 1.387 . S
C746 H750 0.950 . S
C746 C755 1.390 . S
C747 C746 1.387 . S
C747 C749 1.387 . S
H748 C755 0.950 . S
C749 C747 1.387 . S
C749 C751 1.390 . S
C749 H753 0.950 . S
H750 C746 0.950 . S
C751 C749 1.390 . S
C751 C752 1.387 . S
C751 H754 0.950 . S
C752 C751 1.387 . S
C752 C755 1.387 . S
H753 C749 0.950 . S
H754 C751 0.950 . S
C755 C746 1.390 . S
C755 H748 0.950 . S
C755 C752 1.387 . S
C756 C757 1.387 . S
C756 H760 0.950 . S
C756 C765 1.390 . S
C757 C756 1.387 . S
C757 C759 1.387 . S
H758 C765 0.950 . S
C759 C757 1.387 . S
C759 C761 1.390 . S
C759 H763 0.950 . S
H760 C756 0.950 . S
C761 C759 1.390 . S
C761 C762 1.387 . S
C761 H764 0.950 . S
C762 C761 1.387 . S
C762 C765 1.387 . S
H763 C759 0.950 . S
H764 C761 0.950 . S
C765 C756 1.390 . S
C765 H758 0.950 . S
C765 C762 1.387 . S
C766 C767 1.387 . S
C766 H770 0.950 . S
C766 C775 1.390 . S
C767 C766 1.387 . S
C767 C769 1.387 . S
H768 C775 0.950 . S
C769 C767 1.387 . S
C769 C771 1.390 . S
C769 H773 0.950 . S
H770 C766 0.950 . S
C771 C769 1.390 . S
C771 C772 1.387 . S
C771 H774 0.950 . S
C772 C771 1.387 . S
C772 C775 1.387 . S
H773 C769 0.950 . S
H774 C771 0.950 . S
C775 C766 1.390 . S
C775 H768 0.950 . S
C775 C772 1.387 . S
C776 C777 1.387 . S
C776 H780 0.950 . S
C776 C785 1.390 . S
C777 C776 1.387 . S
C777 C779 1.387 . S
H778 C785 0.950 . S
C779 C777 1.387 . S
C779 C781 1.390 . S
C779 H783 0.950 . S
H780 C776 0.950 . S
C781 C779 1.390 . S
C781 C782 1.387 . S
C781 H784 0.950 . S
C782 C781 1.387 . S
C782 C785 1.387 . S
H783 C779 0.950 . S
H784 C781 0.950 . S
C785 C776 1.390 . S
C785 H778 0.950 . S
C785 C782 1.387 . S
C786 C787 1.387 . S
C786 H790 0.950 . S
C786 C795 1.390 . S
C787 C786 1.387 . S
C787 C789 1.387 . S
H788 C795 0.950 . S
C789 C787 1.387 . S
C789 C791 1.390 . S
C789 H793 0.950 . S
H790 C786 0.950 . S
C791 C789 1.390 . S
C791 C792 1.387 . S
C791 H794 0.950 . S
C792 C791 1.387 . S
C792 C795 1.387 . S
H793 C789 0.950 . S
H794 C791 0.950 . S
C795 C786 1.390 . S
C795 H788 0.950 . S
C795 C792 1.387 . S
C796 C797 1.387 . S
C796 H800 0.950 . S
C796 C805 1.390 . S
C797 C796 1.387 . S
C797 C799 1.387 . S
H798 C805 0.950 . S
C799 C797 1.387 . S
C799 C801 1.390 . S
C799 H803 0.950 . S
H800 C796 0.950 . S
C801 C799 1.390 . S
C801 C802 1.387 . S
C801 H804 0.950 . S
C802 C801 1.387 . S
C802 C805 1.387 . S
H803 C799 0.950 . S
H804 C801 0.950 . S
C805 C796 1.390 . S
C805 H798 0.950 . S
C805 C802 1.387 . S
C806 C807 1.387 . S
C806 H810 0.950 . S
C806 C815 1.390 . S
C807 C806 1.387 . S
C807 C809 1.387 . S
H808 C815 0.950 . S
C809 C807 1.387 . S
C809 C811 1.390 . S
C809 H813 0.950 . S
H810 C806 0.950 . S
C811 C809 1.390 . S
C811 C812 1.387 . S
C811 H814 0.950 . S
C812 C811 1.387 . S
C812 C815 1.387 . S
H813 C809 0.950 . S
H814 C811 0.950 . S
C815 C806 1.390 . S
C815 H808 0.950 . S
C815 C812 1.387 . S
C337 C12 1.470 . S
C342 C110 1.470 . S
C347 C124 1.471 . S
C352 C26 1.470 . S
C357 C40 1.470 . S
C362 C138 1.471 . S
C367 C54 1.470 . S
C372 C152 1.470 . S
C377 C166 1.470 . S
C382 C68 1.471 . S
C387 C82 1.471 . S
C392 C96 1.470 . S
C397 C173 1.171 . S
C402 C271 1.171 . S
C407 C187 1.168 . S
C412 C285 1.170 . S
C417 C299 1.173 . S
C422 C201 1.167 . S
C427 C215 1.169 . S
C432 C313 1.169 . S
C437 C229 1.168 . S
C442 C327 1.173 . S
C447 C257 1.168 . S
C452 C243 1.173 . S
C457 C5 1.035 . S
C462 C117 1.029 . S
C467 C131 1.031 . S
C472 C19 1.031 . S
C477 C145 1.037 . S
C482 C33 1.030 . S
C487 C47 1.030 . S
C492 C159 1.036 . S
C497 C61 1.035 . S
C502 C89 1.035 . S
C507 C75 1.030 . S
C512 C103 1.036 . S
C517 C292 1.385 . S
C522 C180 1.385 . S
C527 C194 1.384 . S
C532 C306 1.384 . S
C537 C320 1.385 . S
C542 C208 1.384 . S
C547 C334 1.384 . S
C552 C222 1.384 . S
C557 C264 1.384 . S
C562 C236 1.384 . S
C567 C250 1.384 . S
C572 C278 1.384 . S
C577 C11 1.499 . S
C582 C221 1.502 . S
C587 C235 1.503 . S
C592 C25 1.499 . S
C597 C249 1.503 . S
C602 C39 1.499 . S
C607 C53 1.499 . S
C612 C179 1.502 . S
C617 C67 1.500 . S
C622 C193 1.503 . S
C627 C207 1.503 . S
C632 C81 1.499 . S
C637 C305 1.502 . S
C642 C95 1.499 . S
C647 C319 1.502 . S
C652 C109 1.499 . S
C657 C333 1.503 . S
C662 C123 1.499 . S
C667 C263 1.502 . S
C672 C137 1.498 . S
C677 C151 1.500 . S
C682 C277 1.502 . S
C687 C165 1.499 . S
C692 C291 1.502 . S
C697 C4 1.476 . S
C702 C144 1.476 . S
C707 C158 1.478 . S
C712 C18 1.475 . S
C717 C88 1.478 . S
C722 C32 1.475 . S
C727 C46 1.477 . S
C732 C102 1.477 . S
C737 C60 1.476 . S
C742 C116 1.478 . S
C747 C74 1.478 . S
C752 C130 1.476 . S
C757 C172 1.531 . S
C762 C312 1.531 . S
C767 C186 1.531 . S
C772 C326 1.532 . S
C777 C200 1.530 . S
C782 C256 1.532 . S
C787 C270 1.531 . S
C792 C214 1.531 . S
C797 C228 1.531 . S
C802 C284 1.531 . S
C807 C242 1.531 . S
C812 C298 1.532 . S
