# Generated by pormake.
# Topology ecv, (8)-cn, num edge types: 1
# Building blocks:
#     Node 0, Type 0, BuildingBlock: TAGTUT_clean_sbu_3, # of connection points: 8
#     Node 1, Type 0, BuildingBlock: TAGTUT_clean_sbu_3, # of connection points: 8
#     Node 2, Type 0, BuildingBlock: TAGTUT_clean_sbu_3, # of connection points: 8
#     Node 3, Type 0, BuildingBlock: TAGTUT_clean_sbu_3, # of connection points: 8
#     Node 4, Type 0, BuildingBlock: TAGTUT_clean_sbu_3, # of connection points: 8
#     Node 5, Type 0, BuildingBlock: TAGTUT_clean_sbu_3, # of connection points: 8
#     Node 6, Type 0, BuildingBlock: TAGTUT_clean_sbu_3, # of connection points: 8
#     Node 7, Type 0, BuildingBlock: TAGTUT_clean_sbu_3, # of connection points: 8
#     Node 8, Type 0, BuildingBlock: TAGTUT_clean_sbu_3, # of connection points: 8
#     Node 9, Type 0, BuildingBlock: TAGTUT_clean_sbu_3, # of connection points: 8
#     Node 10, Type 0, BuildingBlock: TAGTUT_clean_sbu_3, # of connection points: 8
#     Node 11, Type 0, BuildingBlock: TAGTUT_clean_sbu_3, # of connection points: 8
#     Node 12, Type 0, BuildingBlock: TAGTUT_clean_sbu_3, # of connection points: 8
#     Node 13, Type 0, BuildingBlock: TAGTUT_clean_sbu_3, # of connection points: 8
#     Node 14, Type 0, BuildingBlock: TAGTUT_clean_sbu_3, # of connection points: 8
#     Node 15, Type 0, BuildingBlock: TAGTUT_clean_sbu_3, # of connection points: 8
#     Edge 16, Type (0, 0), None
#     Edge 17, Type (0, 0), None
#     Edge 18, Type (0, 0), None
#     Edge 19, Type (0, 0), None
#     Edge 20, Type (0, 0), None
#     Edge 21, Type (0, 0), None
#     Edge 22, Type (0, 0), None
#     Edge 23, Type (0, 0), None
#     Edge 24, Type (0, 0), None
#     Edge 25, Type (0, 0), None
#     Edge 26, Type (0, 0), None
#     Edge 27, Type (0, 0), None
#     Edge 28, Type (0, 0), None
#     Edge 29, Type (0, 0), None
#     Edge 30, Type (0, 0), None
#     Edge 31, Type (0, 0), None
#     Edge 32, Type (0, 0), None
#     Edge 33, Type (0, 0), None
#     Edge 34, Type (0, 0), None
#     Edge 35, Type (0, 0), None
#     Edge 36, Type (0, 0), None
#     Edge 37, Type (0, 0), None
#     Edge 38, Type (0, 0), None
#     Edge 39, Type (0, 0), None
#     Edge 40, Type (0, 0), None
#     Edge 41, Type (0, 0), None
#     Edge 42, Type (0, 0), None
#     Edge 43, Type (0, 0), None
#     Edge 44, Type (0, 0), None
#     Edge 45, Type (0, 0), None
#     Edge 46, Type (0, 0), None
#     Edge 47, Type (0, 0), None
#     Edge 48, Type (0, 0), None
#     Edge 49, Type (0, 0), None
#     Edge 50, Type (0, 0), None
#     Edge 51, Type (0, 0), None
#     Edge 52, Type (0, 0), None
#     Edge 53, Type (0, 0), None
#     Edge 54, Type (0, 0), None
#     Edge 55, Type (0, 0), None
#     Edge 56, Type (0, 0), None
#     Edge 57, Type (0, 0), None
#     Edge 58, Type (0, 0), None
#     Edge 59, Type (0, 0), None
#     Edge 60, Type (0, 0), None
#     Edge 61, Type (0, 0), None
#     Edge 62, Type (0, 0), None
#     Edge 63, Type (0, 0), None
#     Edge 64, Type (0, 0), None
#     Edge 65, Type (0, 0), None
#     Edge 66, Type (0, 0), None
#     Edge 67, Type (0, 0), None
#     Edge 68, Type (0, 0), None
#     Edge 69, Type (0, 0), None
#     Edge 70, Type (0, 0), None
#     Edge 71, Type (0, 0), None
#     Edge 72, Type (0, 0), None
#     Edge 73, Type (0, 0), None
#     Edge 74, Type (0, 0), None
#     Edge 75, Type (0, 0), None
#     Edge 76, Type (0, 0), None
#     Edge 77, Type (0, 0), None
#     Edge 78, Type (0, 0), None
#     Edge 79, Type (0, 0), None
# Relax obj value: 0.169
# Max RMSD: 0.217
# Mean RMSD: 0.194
data_MOF--net-ecv--node1-TAGTUT_clean_sbu_3--edge1-none
_symmetry_space_group_name_H-M    P1
_symmetry_Int_Tables_number       1
_symmetry_cell_setting            triclinic
loop_
_symmetry_equiv_pos_as_xyz
'x, y, z'
_cell_length_a     10.161294
_cell_length_b     12.434372
_cell_length_c     72.618375
_cell_angle_alpha  82.154939
_cell_angle_beta   90.006109
_cell_angle_gamma 89.998295
loop_
_atom_site_label
_atom_site_type_symbol
_atom_site_fract_x
_atom_site_fract_y
_atom_site_fract_z
_atom_type_partial_charge
C0 C 0.92052 0.03334 0.44028 0.0
C1 C 0.29532 0.16956 0.47049 0.0
C2 C 0.41063 0.27564 0.41205 0.0
Mg3 Mg 0.83884 0.04392 0.39388 0.0
Mg4 Mg 0.0792 0.96697 0.36816 0.0
O5 O 1.01539 0.07679 0.38244 0.0
Mg6 Mg 0.11336 0.08022 0.40545 0.0
O7 O 0.19875 0.08829 0.4299 0.0
Mg8 Mg 0.11483 0.23281 0.43244 0.0
Mg9 Mg 0.37799 0.06304 0.4362 0.0
C10 C 0.29861 0.13018 0.36879 0.0
O11 O 0.23896 0.92071 0.40492 0.0
O12 O 0.79061 0.09595 0.36302 0.0
O13 O 0.4125 0.91299 0.42457 0.0
O14 O 0.87111 0.88844 0.38517 0.0
O15 O 0.94305 0.02131 0.34583 0.0
O16 O 0.06405 0.81682 0.38735 0.0
O17 O 1.00947 0.24359 0.40634 0.0
O18 O 0.80207 0.21218 0.40002 0.0
C19 C 0.88902 0.27391 0.40527 0.0
C20 C 0.84237 0.08163 0.34729 0.0
O21 O 0.26248 0.16494 0.38392 0.0
O22 O 0.20776 0.21958 0.46021 0.0
O23 O 0.26941 0.03563 0.36503 0.0
O24 O 0.29793 0.30492 0.41761 0.0
O25 O 0.37481 0.10135 0.46464 0.0
O26 O 0.46568 0.18624 0.418 0.0
O27 O 0.94664 0.99715 0.42467 0.0
O28 O 0.93989 0.13256 0.44261 0.0
C29 C 0.95489 0.83254 0.39478 0.0
C30 C 0.34535 0.87515 0.41192 0.0
C31 C 0.8891 0.0127 0.79481 0.0
C32 C 0.84307 0.20468 0.85284 0.0
C33 C 0.9548 0.4541 0.80536 0.0
Mg34 Mg 0.1146 0.05387 0.76759 0.0
Mg35 Mg 0.37762 0.22376 0.76381 0.0
O36 O 0.19837 0.19851 0.7701 0.0
Mg37 Mg 0.11321 0.20657 0.79457 0.0
O38 O 1.01568 0.20988 0.81762 0.0
Mg39 Mg 0.83883 0.2426 0.80626 0.0
Mg40 Mg 0.07959 0.31957 0.83192 0.0
C41 C 0.345 0.41174 0.78808 0.0
O42 O 0.2628 0.12194 0.81606 0.0
O43 O 0.20737 0.0671 0.73979 0.0
O44 O 0.27009 0.25132 0.83493 0.0
O45 O 0.29789 0.98181 0.78238 0.0
O46 O 0.37441 0.18536 0.73538 0.0
O47 O 0.46547 0.10062 0.78201 0.0
O48 O 0.94561 0.28966 0.77542 0.0
O49 O 0.93957 0.15401 0.7575 0.0
C50 C 0.92132 0.25347 0.75975 0.0
C51 C 0.29497 0.11715 0.72952 0.0
O52 O 0.23862 0.36619 0.79507 0.0
O53 O 0.79111 0.19044 0.83712 0.0
O54 O 0.41215 0.37385 0.77543 0.0
O55 O 0.87109 0.39811 0.81498 0.0
O56 O 0.94385 0.26492 0.85429 0.0
O57 O 0.06401 0.46982 0.81279 0.0
O58 O 1.00946 0.04327 0.79372 0.0
O59 O 0.80211 0.07427 0.8001 0.0
C60 C 0.41058 0.01114 0.78794 0.0
C61 C 0.29921 0.15675 0.83117 0.0
C62 C 0.25263 0.70115 0.53437 0.0
C63 C 0.26029 0.85158 0.60006 0.0
C64 C 0.86725 0.94893 0.58619 0.0
Mg65 Mg 0.11475 0.82189 0.49385 0.0
Mg66 Mg 0.84089 0.94524 0.49852 0.0
O67 O 1.02885 0.95278 0.50313 0.0
Mg68 Mg 0.08503 0.93469 0.53061 0.0
O69 O 0.14942 0.91256 0.55676 0.0
Mg70 Mg 0.06675 0.77243 0.56702 0.0
Mg71 Mg 0.12746 0.02907 0.57087 0.0
C72 C 0.82146 0.11194 0.52688 0.0
O73 O 0.25495 0.07276 0.52647 0.0
O74 O 0.93889 0.69942 0.49451 0.0
O75 O 0.24691 0.14877 0.55308 0.0
O76 O 1.00855 0.89282 0.46368 0.0
O77 O 0.75554 0.79688 0.49093 0.0
O78 O 0.84775 0.00441 0.47049 0.0
O79 O 0.93483 0.79781 0.53972 0.0
O80 O 0.96163 0.71557 0.51469 0.0
C81 C 0.90419 0.72173 0.53032 0.0
C82 C 0.82351 0.7157 0.48738 0.0
O83 O 0.92894 0.0732 0.53479 0.0
O84 O 0.21215 0.77155 0.59269 0.0
O85 O 0.76515 0.06974 0.51379 0.0
O86 O 0.91415 0.86037 0.582 0.0
O87 O 0.23423 0.95065 0.59392 0.0
O88 O 0.92615 0.03916 0.58139 0.0
O89 O 0.21196 0.78684 0.52383 0.0
O90 O 0.22059 0.68425 0.5515 0.0
C91 C 0.91665 0.96356 0.45854 0.0
C92 C 0.29618 0.14322 0.5369 0.0
C93 C 0.90414 0.06522 0.16973 0.0
C94 C 0.82407 0.07105 0.21271 0.0
C95 C 0.91718 0.82309 0.24151 0.0
Mg96 Mg 0.06588 0.01444 0.13306 0.0
Mg97 Mg 0.12678 0.75777 0.12917 0.0
O98 O 0.14884 0.87431 0.14328 0.0
Mg99 Mg 0.08482 0.85203 0.16943 0.0
O100 O 1.02896 0.83387 0.19691 0.0
Mg101 Mg 0.11493 0.96477 0.20619 0.0
Mg102 Mg 0.84109 0.84158 0.20153 0.0
C103 C 0.29588 0.6436 0.16309 0.0
O104 O 0.92845 0.7136 0.16526 0.0
O105 O 0.21114 0.01546 0.10737 0.0
O106 O 0.76489 0.71719 0.18628 0.0
O107 O 0.91328 0.92651 0.11809 0.0
O108 O 0.23331 0.83637 0.10612 0.0
O109 O 0.92541 0.74775 0.11867 0.0
O110 O 0.21258 0.99964 0.17623 0.0
O111 O 0.21949 0.10266 0.14856 0.0
C112 C 0.25214 0.08567 0.16567 0.0
C113 C 0.25932 0.93545 0.09999 0.0
O114 O 0.25461 0.71402 0.17352 0.0
O115 O 0.9393 0.08739 0.20555 0.0
O116 O 0.24654 0.638 0.14692 0.0
O117 O 1.0089 0.89399 0.23637 0.0
O118 O 0.75601 0.9899 0.20917 0.0
O119 O 0.84834 0.78226 0.22955 0.0
O120 O 0.93455 0.98878 0.16041 0.0
O121 O 0.96174 0.07156 0.18536 0.0
C122 C 0.86641 0.83797 0.11389 0.0
C123 C 0.82097 0.67496 0.17317 0.0
C124 C 0.91994 0.53329 0.94027 0.0
C125 C 0.29436 0.66923 -0.02944 0.0
C126 C 0.4105 0.77535 0.91217 0.0
Mg127 Mg 0.83881 0.54396 0.89383 0.0
Mg128 Mg 0.07944 0.46686 0.86817 0.0
O129 O 1.01553 0.57669 0.88243 0.0
Mg130 Mg 0.11319 0.58001 0.90548 0.0
O131 O 0.19826 0.588 0.92995 0.0
Mg132 Mg 0.1144 0.73259 0.93248 0.0
Mg133 Mg 0.37743 0.56269 0.93628 0.0
C134 C 0.29924 0.62965 0.86891 0.0
O135 O 0.23854 0.42039 0.90497 0.0
O136 O 0.79095 0.596 0.86296 0.0
O137 O 0.41196 0.41265 0.92464 0.0
O138 O 0.87095 0.38841 0.88514 0.0
O139 O 0.94365 0.52142 0.8458 0.0
O140 O 0.06384 0.31667 0.88733 0.0
O141 O 1.00952 0.7435 0.90634 0.0
O142 O 0.80218 0.71229 0.89996 0.0
C143 C 0.88912 0.77394 0.90523 0.0
C144 C 0.84289 0.5817 0.84724 0.0
O145 O 0.26277 0.66454 0.88401 0.0
O146 O 0.20686 0.71926 0.96027 0.0
O147 O 0.26995 0.53512 0.86514 0.0
O148 O 0.29781 0.80469 0.91773 0.0
O149 O 0.37393 0.60106 -0.03529 0.0
O150 O 0.46538 0.68586 0.9181 0.0
O151 O 0.94615 0.49707 0.92466 0.0
O152 O 0.93909 0.63256 0.94257 0.0
C153 C 0.95468 0.33244 0.89475 0.0
C154 C 0.34488 0.37482 0.91198 0.0
C155 C 0.88932 0.51267 0.29485 0.0
C156 C 0.84371 0.70462 0.3529 0.0
C157 C 0.95469 0.95418 0.30539 0.0
Mg158 Mg 0.1143 0.55409 0.26756 0.0
Mg159 Mg 0.37717 0.72412 0.26374 0.0
O160 O 0.19798 0.69882 0.27005 0.0
Mg161 Mg 0.11315 0.70679 0.29454 0.0
O162 O 1.01593 0.70999 0.31763 0.0
Mg163 Mg 0.8389 0.74255 0.30631 0.0
Mg164 Mg 0.07995 0.81968 0.33192 0.0
C165 C 0.34464 0.91207 0.28801 0.0
O166 O 0.26322 0.62236 0.31597 0.0
O167 O 0.20664 0.56744 0.23973 0.0
O168 O 0.27074 0.75184 0.33481 0.0
O169 O 0.29789 0.48205 0.28227 0.0
O170 O 0.3737 0.68568 0.23531 0.0
O171 O 0.46528 0.60101 0.28191 0.0
O172 O 0.94519 0.78971 0.27544 0.0
O173 O 0.93889 0.65398 0.25754 0.0
C174 C 0.92067 0.75345 0.25978 0.0
C175 C 0.29418 0.6175 0.22946 0.0
O176 O 0.2383 0.86652 0.29502 0.0
O177 O 0.79156 0.6904 0.33719 0.0
O178 O 0.41173 0.87419 0.27536 0.0
O179 O 0.87103 0.89814 0.315 0.0
O180 O 0.94458 0.76481 0.35432 0.0
O181 O 0.0639 0.96995 0.31281 0.0
O182 O 1.00963 0.54335 0.29372 0.0
O183 O 0.80234 0.57415 0.30016 0.0
C184 C 0.41056 0.51143 0.28783 0.0
C185 C 0.29997 0.6573 0.33105 0.0
C186 C 0.25185 0.20116 0.03438 0.0
C187 C 0.25958 0.35145 0.10008 0.0
C188 C 0.86651 0.4489 0.0862 0.0
Mg189 Mg 0.11418 0.32195 -0.00614 0.0
Mg190 Mg 0.84025 0.44522 -0.00148 0.0
O191 O 1.02816 0.45281 0.00314 0.0
Mg192 Mg 0.08426 0.4347 0.03063 0.0
O193 O 0.14862 0.41255 0.05678 0.0
Mg194 Mg 0.06597 0.2724 0.06703 0.0
Mg195 Mg 0.12672 0.52902 0.07089 0.0
C196 C 0.8206 0.61191 0.02689 0.0
O197 O 0.25414 0.57278 0.0265 0.0
O198 O 0.93854 0.19935 -0.00547 0.0
O199 O 0.24612 0.64876 0.05311 0.0
O200 O 1.00807 0.39283 -0.03632 0.0
O201 O 0.75518 0.29676 -0.0091 0.0
O202 O 0.84723 0.50443 -0.02952 0.0
O203 O 0.93405 0.29782 0.03974 0.0
O204 O 0.96101 0.21557 0.01471 0.0
C205 C 0.90346 0.22174 0.03034 0.0
C206 C 0.82326 0.21559 -0.01262 0.0
O207 O 0.92808 0.5732 0.0348 0.0
O208 O 0.21141 0.27145 0.0927 0.0
O209 O 0.76438 0.56971 0.01379 0.0
O210 O 0.91341 0.36034 0.08201 0.0
O211 O 0.23352 0.45053 0.09394 0.0
O212 O 0.92542 0.53912 0.0814 0.0
O213 O 0.21126 0.28689 0.02385 0.0
O214 O 0.21977 0.18422 0.05152 0.0
C215 C 0.91618 0.46358 0.95853 0.0
C216 C 0.29538 0.64323 0.03693 0.0
C217 C 0.25292 0.58571 0.66565 0.0
C218 C 0.26024 0.43531 0.59998 0.0
C219 C 0.86732 0.33798 0.61387 0.0
Mg220 Mg 0.11535 0.46495 0.70618 0.0
Mg221 Mg 0.84154 0.34161 0.70152 0.0
O222 O 1.02942 0.33405 0.69691 0.0
Mg223 Mg 0.08535 0.35216 0.66942 0.0
O224 O 0.14958 0.37431 0.64327 0.0
Mg225 Mg 0.06687 0.51445 0.63302 0.0
Mg226 Mg 0.12759 0.25776 0.62917 0.0
C227 C 0.82171 0.17494 0.67317 0.0
O228 O 0.2553 0.21419 0.67353 0.0
O229 O 0.93942 0.58736 0.70556 0.0
O230 O 0.24726 0.13807 0.64695 0.0
O231 O 1.00947 0.39402 0.73636 0.0
O232 O 0.75616 0.48982 0.70915 0.0
O233 O 0.8488 0.28234 0.72954 0.0
O234 O 0.93508 0.48902 0.66033 0.0
O235 O 0.96195 0.57123 0.68537 0.0
C236 C 0.90443 0.56506 0.66973 0.0
C237 C 0.82412 0.57098 0.7127 0.0
O238 O 0.92917 0.21361 0.66525 0.0
O239 O 0.21213 0.51534 0.60736 0.0
O240 O 0.76555 0.21717 0.68627 0.0
O241 O 0.91425 0.42653 0.61806 0.0
O242 O 0.23421 0.33623 0.60612 0.0
O243 O 0.92624 0.24774 0.61867 0.0
O244 O 0.2123 0.50001 0.67619 0.0
O245 O 0.22079 0.60265 0.64852 0.0
C246 C 0.91767 0.32318 0.74149 0.0
C247 C 0.29659 0.14372 0.66312 0.0
C248 C 0.41998 0.03327 0.94026 0.0
C249 C 0.79429 0.16914 -0.02944 0.0
C250 C 0.91057 0.2754 0.9122 0.0
Mg251 Mg 0.33883 0.04398 0.89383 0.0
Mg252 Mg 0.57946 0.96691 0.86816 0.0
O253 O 0.51555 0.07673 0.88243 0.0
Mg254 Mg 0.61321 0.08004 0.90548 0.0
O255 O 0.69827 0.08801 0.92995 0.0
Mg256 Mg 0.61439 0.23258 0.93248 0.0
Mg257 Mg 0.87743 0.06267 0.93628 0.0
C258 C 0.79936 0.12964 0.86891 0.0
O259 O 0.73856 0.92041 0.90496 0.0
O260 O 0.2909 0.09601 0.86296 0.0
O261 O 0.91195 0.91264 0.92464 0.0
O262 O 0.37097 0.88846 0.88513 0.0
O263 O 0.44362 0.02145 0.8458 0.0
O264 O 0.56387 0.81672 0.88732 0.0
O265 O 0.50955 0.24353 0.90634 0.0
O266 O 0.30219 0.21228 0.89997 0.0
C267 C 0.38913 0.27395 0.90523 0.0
C268 C 0.34279 0.08165 0.84724 0.0
O269 O 0.7628 0.16457 0.884 0.0
O270 O 0.7068 0.2192 0.96028 0.0
O271 O 0.76997 0.03516 0.86513 0.0
O272 O 0.79783 0.30472 0.91774 0.0
O273 O 0.87392 0.10102 -0.03529 0.0
O274 O 0.96539 0.18585 0.91811 0.0
O275 O 0.44618 0.99706 0.92465 0.0
O276 O 0.43907 0.13254 0.94257 0.0
C277 C 0.45467 0.83244 0.89474 0.0
C278 C 0.84488 0.87482 0.91197 0.0
C279 C 0.42021 0.25354 0.25975 0.0
C280 C 0.79506 0.11744 0.22953 0.0
C281 C 0.91057 0.01122 0.28794 0.0
Mg282 Mg 0.33873 0.24293 0.30615 0.0
Mg283 Mg 0.57914 0.31985 0.33187 0.0
O284 O 0.5153 0.21003 0.31759 0.0
Mg285 Mg 0.61323 0.20664 0.29457 0.0
O286 O 0.69857 0.1986 0.27013 0.0
Mg287 Mg 0.61466 0.0541 0.26758 0.0
Mg288 Mg 0.87779 0.22388 0.26382 0.0
C289 C 0.79867 0.15673 0.33123 0.0
O290 O 0.73881 0.36617 0.29511 0.0
O291 O 0.29051 0.1909 0.337 0.0
O292 O 0.9123 0.37393 0.27546 0.0
O293 O 0.371 0.39839 0.31487 0.0
O294 O 0.443 0.26553 0.35419 0.0
O295 O 0.56395 0.47002 0.31269 0.0
O296 O 0.50935 0.04326 0.29368 0.0
O297 O 0.30196 0.07468 0.3 0.0
C298 C 0.3889 0.01295 0.29475 0.0
C299 C 0.34227 0.20527 0.35273 0.0
O300 O 0.76243 0.12192 0.31611 0.0
O301 O 0.70753 0.06739 0.2398 0.0
O302 O 0.76936 0.25123 0.33501 0.0
O303 O 0.79781 0.98195 0.28239 0.0
O304 O 0.87461 0.18559 0.23539 0.0
O305 O 0.96554 0.10067 0.28201 0.0
O306 O 0.44644 0.28972 0.27536 0.0
O307 O 0.43968 0.15435 0.25742 0.0
C308 C 0.45474 0.45433 0.30526 0.0
C309 C 0.84518 0.41175 0.28811 0.0
C310 C 0.75184 0.70116 0.03439 0.0
C311 C 0.75936 0.8515 0.10008 0.0
C312 C 0.36635 0.94895 0.08618 0.0
Mg313 Mg 0.6142 0.82193 -0.00614 0.0
Mg314 Mg 0.34026 0.94522 -0.00149 0.0
O315 O 0.52818 0.9528 0.00314 0.0
Mg316 Mg 0.58425 0.93471 0.03062 0.0
O317 O 0.64857 0.91257 0.05677 0.0
Mg318 Mg 0.56589 0.77243 0.06703 0.0
Mg319 Mg 0.62661 0.02906 0.07089 0.0
C320 C 0.32063 0.11193 0.02688 0.0
O321 O 0.75413 0.07279 0.0265 0.0
O322 O 0.43854 0.69933 -0.00547 0.0
O323 O 0.74607 0.14878 0.05311 0.0
O324 O 0.50811 0.89281 -0.03632 0.0
O325 O 0.25516 0.79677 -0.0091 0.0
O326 O 0.34727 0.00441 -0.02953 0.0
O327 O 0.43403 0.79784 0.03973 0.0
O328 O 0.46105 0.71554 0.01471 0.0
C329 C 0.40347 0.72173 0.03033 0.0
C330 C 0.32323 0.71558 -0.01262 0.0
O331 O 0.42808 0.0732 0.03479 0.0
O332 O 0.71125 0.77149 0.0927 0.0
O333 O 0.26439 0.06973 0.01378 0.0
O334 O 0.41328 0.86039 0.082 0.0
O335 O 0.73333 0.95058 0.09394 0.0
O336 O 0.42528 0.03918 0.08139 0.0
O337 O 0.71126 0.78689 0.02385 0.0
O338 O 0.71972 0.68423 0.05152 0.0
C339 C 0.41622 0.96356 0.95853 0.0
C340 C 0.79535 0.14324 0.03693 0.0
C341 C 0.40478 0.06536 0.66973 0.0
C342 C 0.32406 0.0709 0.71269 0.0
C343 C 0.41747 0.82308 0.74151 0.0
Mg344 Mg 0.56669 0.01451 0.63307 0.0
Mg345 Mg 0.62754 0.75787 0.62918 0.0
O346 O 0.6496 0.87437 0.64329 0.0
Mg347 Mg 0.58545 0.8521 0.66945 0.0
O348 O 0.52941 0.83395 0.69692 0.0
Mg349 Mg 0.61527 0.96485 0.70621 0.0
Mg350 Mg 0.34149 0.84148 0.70152 0.0
C351 C 0.79634 0.64355 0.66313 0.0
O352 O 0.42914 0.7137 0.66525 0.0
O353 O 0.71204 0.01547 0.60738 0.0
O354 O 0.26552 0.71705 0.68626 0.0
O355 O 0.41409 0.92663 0.61808 0.0
O356 O 0.73421 0.83637 0.60614 0.0
O357 O 0.42622 0.74785 0.61867 0.0
O358 O 0.71314 0.9997 0.67625 0.0
O359 O 0.7203 0.10264 0.64858 0.0
C360 C 0.75285 0.08567 0.66569 0.0
C361 C 0.7602 0.93545 0.6 0.0
O362 O 0.75516 0.71399 0.67356 0.0
O363 O 0.43938 0.08729 0.70555 0.0
O364 O 0.74704 0.63805 0.64695 0.0
O365 O 0.50915 0.89402 0.73637 0.0
O366 O 0.2561 0.98971 0.70915 0.0
O367 O 0.3487 0.78221 0.72955 0.0
O368 O 0.43527 0.98892 0.66041 0.0
O369 O 0.46221 0.07167 0.68537 0.0
C370 C 0.36725 0.83807 0.61388 0.0
C371 C 0.32171 0.67493 0.67316 0.0
C372 C 0.3895 0.77424 0.40518 0.0
C373 C 0.34363 0.58227 0.34713 0.0
C374 C 0.45479 0.33272 0.39462 0.0
Mg375 Mg 0.61447 0.73279 0.43247 0.0
Mg376 Mg 0.87737 0.56273 0.43629 0.0
O377 O 0.69819 0.58807 0.42997 0.0
Mg378 Mg 0.61331 0.58012 0.40548 0.0
O379 O 0.51605 0.57694 0.38239 0.0
Mg380 Mg 0.33905 0.54437 0.39371 0.0
Mg381 Mg 0.58003 0.46727 0.3681 0.0
C382 C 0.84478 0.3748 0.412 0.0
O383 O 0.76334 0.66456 0.38405 0.0
O384 O 0.70678 0.71937 0.4603 0.0
O385 O 0.77083 0.53507 0.3652 0.0
O386 O 0.7981 0.80486 0.41777 0.0
O387 O 0.87389 0.60115 0.46471 0.0
O388 O 0.96548 0.68585 0.41812 0.0
O389 O 0.44542 0.49715 0.42458 0.0
O390 O 0.43905 0.63289 0.44247 0.0
C391 C 0.42111 0.53336 0.44025 0.0
C392 C 0.79431 0.66927 0.47057 0.0
O393 O 0.73846 0.42038 0.40499 0.0
O394 O 0.29156 0.59653 0.36284 0.0
O395 O 0.91188 0.41267 0.42466 0.0
O396 O 0.37114 0.38881 0.38501 0.0
O397 O 0.44456 0.52216 0.3457 0.0
O398 O 0.56402 0.31698 0.38721 0.0
O399 O 0.50981 0.74357 0.4063 0.0
O400 O 0.30251 0.71275 0.39987 0.0
C401 C 0.91081 0.77549 0.41222 0.0
C402 C 0.80015 0.62958 0.36897 0.0
C403 C 0.38914 0.51266 0.79481 0.0
C404 C 0.34297 0.70468 0.85284 0.0
C405 C 0.45474 0.95406 0.80537 0.0
Mg406 Mg 0.61462 0.55389 0.76759 0.0
Mg407 Mg 0.8776 0.72382 0.76382 0.0
O408 O 0.69835 0.69854 0.7701 0.0
Mg409 Mg 0.6132 0.70656 0.79457 0.0
O410 O 0.51568 0.70983 0.81763 0.0
Mg411 Mg 0.33882 0.74255 0.80627 0.0
Mg412 Mg 0.57958 0.81951 0.83193 0.0
C413 C 0.84496 0.91177 0.78808 0.0
O414 O 0.76284 0.62195 0.81606 0.0
O415 O 0.70736 0.56722 0.73979 0.0
O416 O 0.77009 0.75132 0.83494 0.0
O417 O 0.79796 0.48182 0.78237 0.0
O418 O 0.87442 0.68549 0.73539 0.0
O419 O 0.96551 0.60067 0.782 0.0
O420 O 0.44556 0.78962 0.77543 0.0
O421 O 0.43954 0.65396 0.75751 0.0
C422 C 0.42109 0.75338 0.75977 0.0
C423 C 0.79492 0.61733 0.72952 0.0
O424 O 0.73859 0.86621 0.79508 0.0
O425 O 0.29105 0.69039 0.83712 0.0
O426 O 0.91212 0.8739 0.77543 0.0
O427 O 0.37105 0.89804 0.81499 0.0
O428 O 0.44381 0.76485 0.85429 0.0
O429 O 0.56397 0.96976 0.81279 0.0
O430 O 0.5095 0.54322 0.79372 0.0
O431 O 0.30214 0.57422 0.8001 0.0
C432 C 0.91069 0.51114 0.78792 0.0
C433 C 0.79933 0.6568 0.83117 0.0
C434 C 0.75276 0.20118 0.53439 0.0
C435 C 0.76024 0.35147 0.60007 0.0
C436 C 0.36723 0.4488 0.58617 0.0
Mg437 Mg 0.61524 0.32194 0.49385 0.0
Mg438 Mg 0.34135 0.44532 0.4985 0.0
O439 O 0.5292 0.45281 0.50313 0.0
Mg440 Mg 0.58512 0.43468 0.53062 0.0
O441 O 0.64941 0.41252 0.55677 0.0
Mg442 Mg 0.56677 0.27235 0.56702 0.0
Mg443 Mg 0.62744 0.529 0.57088 0.0
C444 C 0.32147 0.61194 0.52687 0.0
O445 O 0.75494 0.57275 0.5265 0.0
O446 O 0.43948 0.19946 0.49448 0.0
O447 O 0.74685 0.64877 0.5531 0.0
O448 O 0.50938 0.39287 0.46366 0.0
O449 O 0.25619 0.29702 0.49085 0.0
O450 O 0.34875 0.50461 0.47047 0.0
O451 O 0.43492 0.29776 0.53971 0.0
O452 O 0.46189 0.21554 0.51468 0.0
C453 C 0.40431 0.2217 0.5303 0.0
C454 C 0.32423 0.21583 0.48732 0.0
O455 O 0.42889 0.57318 0.53479 0.0
O456 O 0.71213 0.27145 0.59269 0.0
O457 O 0.26533 0.56979 0.51376 0.0
O458 O 0.41416 0.36023 0.58198 0.0
O459 O 0.73418 0.45055 0.59393 0.0
O460 O 0.42614 0.53903 0.58138 0.0
O461 O 0.71214 0.28689 0.52385 0.0
O462 O 0.72065 0.18422 0.55152 0.0
C463 C 0.41761 0.46373 0.45852 0.0
C464 C 0.79613 0.64323 0.53693 0.0
C465 C 0.40406 0.56524 0.16971 0.0
C466 C 0.32324 0.57119 0.21263 0.0
C467 C 0.4162 0.32334 0.2415 0.0
Mg468 Mg 0.56598 0.51441 0.13307 0.0
Mg469 Mg 0.6269 0.25775 0.12919 0.0
O470 O 0.64895 0.37429 0.1433 0.0
Mg471 Mg 0.58474 0.35203 0.16945 0.0
O472 O 0.52856 0.33393 0.19692 0.0
Mg473 Mg 0.61441 0.46486 0.2062 0.0
Mg474 Mg 0.34057 0.34163 0.20151 0.0
C475 C 0.79592 0.14358 0.16313 0.0
O476 O 0.42847 0.2136 0.16525 0.0
O477 O 0.71132 0.51542 0.10739 0.0
O478 O 0.26469 0.21721 0.18624 0.0
O479 O 0.41345 0.42648 0.11809 0.0
O480 O 0.73347 0.33631 0.10614 0.0
O481 O 0.42556 0.2477 0.11868 0.0
O482 O 0.71241 0.49969 0.17626 0.0
O483 O 0.71952 0.60263 0.14858 0.0
C484 C 0.75207 0.58568 0.1657 0.0
C485 C 0.75946 0.4354 0.1 0.0
O486 O 0.7546 0.21398 0.17356 0.0
O487 O 0.43863 0.58745 0.20551 0.0
O488 O 0.74661 0.13801 0.14695 0.0
O489 O 0.50805 0.39411 0.23636 0.0
O490 O 0.25524 0.49001 0.20909 0.0
O491 O 0.34732 0.28246 0.22955 0.0
O492 O 0.43451 0.48877 0.16039 0.0
O493 O 0.46152 0.5716 0.18534 0.0
C494 C 0.36659 0.33793 0.11389 0.0
C495 C 0.32095 0.17495 0.17316 0.0
loop_
_geom_bond_atom_site_label_1
_geom_bond_atom_site_label_2
_geom_bond_distance
_geom_bond_site_symmetry_2
_ccdc_geom_bond_type
C0 O27 1.312 . S
C0 O28 1.208 1_655 S
C1 O22 1.331 . S
C1 O25 1.244 . S
C2 O24 1.264 . S
C2 O26 1.273 . S
Mg3 O5 1.936 . S
Mg3 O12 2.081 . S
Mg3 O14 2.023 1_545 S
Mg3 O18 2.031 . S
Mg3 O27 2.291 . S
Mg4 O5 1.963 1_465 S
Mg4 O15 1.942 1_465 S
Mg4 O16 1.955 1_455 S
Mg4 O23 1.986 1_565 S
O5 Mg3 1.936 . S
O5 Mg4 1.963 1_645 S
O5 Mg6 1.915 1_655 S
Mg6 O5 1.915 1_455 S
Mg6 O7 1.915 . S
Mg6 O11 2.013 1_545 S
Mg6 O17 2.114 . S
Mg6 O21 2.013 . S
Mg6 O27 2.114 1_455 S
O7 Mg6 1.915 . S
O7 Mg8 1.936 . S
O7 Mg9 1.963 . S
Mg8 O7 1.936 . S
Mg8 O17 2.291 . S
Mg8 O22 2.081 . S
Mg8 O24 2.023 . S
Mg8 O28 2.031 . S
Mg9 O7 1.963 . S
Mg9 O13 1.986 1_545 S
Mg9 O25 1.942 . S
Mg9 O26 1.955 . S
C10 O21 1.191 . S
C10 O23 1.307 . S
O11 Mg6 2.013 1_565 S
O11 C30 1.191 . S
O12 Mg3 2.081 . S
O12 C20 1.331 . S
O13 Mg9 1.986 1_565 S
O13 C30 1.307 . S
O14 Mg3 2.023 1_565 S
O14 C29 1.264 . S
O15 Mg4 1.942 1_645 S
O15 C20 1.244 . S
O16 Mg4 1.955 1_655 S
O16 C29 1.273 . S
O17 Mg6 2.114 . S
O17 Mg8 2.291 . S
O17 C19 1.312 1_455 S
O18 Mg3 2.031 . S
O18 C19 1.208 . S
C19 O17 1.312 1_655 S
C19 O18 1.208 . S
C20 O12 1.331 . S
C20 O15 1.244 . S
O21 Mg6 2.013 . S
O21 C10 1.191 . S
O22 C1 1.331 . S
O22 Mg8 2.081 . S
O23 Mg4 1.986 1_545 S
O23 C10 1.307 . S
O24 C2 1.264 . S
O24 Mg8 2.023 . S
O25 C1 1.244 . S
O25 Mg9 1.942 . S
O26 C2 1.273 . S
O26 Mg9 1.955 . S
O27 C0 1.312 . S
O27 Mg3 2.291 . S
O27 Mg6 2.114 1_655 S
O28 C0 1.208 1_455 S
O28 Mg8 2.031 . S
C29 O14 1.264 . S
C29 O16 1.273 . S
C30 O11 1.191 . S
C30 O13 1.307 . S
C31 O58 1.312 1_655 S
C31 O59 1.208 1_565 S
C32 O53 1.331 . S
C32 O56 1.244 . S
C33 O55 1.264 . S
C33 O57 1.273 . S
Mg34 O36 1.936 1_565 S
Mg34 O43 2.081 1_565 S
Mg34 O45 2.023 . S
Mg34 O49 2.031 1_565 S
Mg34 O58 2.291 . S
Mg35 O36 1.963 . S
Mg35 O46 1.942 . S
Mg35 O47 1.955 1_545 S
Mg35 O54 1.986 . S
O36 Mg34 1.936 1_545 S
O36 Mg35 1.963 . S
O36 Mg37 1.915 . S
Mg37 O36 1.915 . S
Mg37 O38 1.915 1_455 S
Mg37 O42 2.013 . S
Mg37 O48 2.114 1_455 S
Mg37 O52 2.013 . S
Mg37 O58 2.114 1_545 S
O38 Mg37 1.915 1_655 S
O38 Mg39 1.936 . S
O38 Mg40 1.963 1_655 S
Mg39 O38 1.936 . S
Mg39 O48 2.291 . S
Mg39 O53 2.081 . S
Mg39 O55 2.023 . S
Mg39 O59 2.031 . S
Mg40 O38 1.963 1_455 S
Mg40 O44 1.986 . S
Mg40 O56 1.942 1_455 S
Mg40 O57 1.955 1_455 S
C41 O52 1.191 . S
C41 O54 1.307 . S
O42 Mg37 2.013 . S
O42 C61 1.191 . S
O43 Mg34 2.081 1_545 S
O43 C51 1.331 . S
O44 Mg40 1.986 . S
O44 C61 1.307 . S
O45 Mg34 2.023 . S
O45 C60 1.264 . S
O46 Mg35 1.942 . S
O46 C51 1.244 . S
O47 Mg35 1.955 1_565 S
O47 C60 1.273 . S
O48 Mg37 2.114 1_655 S
O48 Mg39 2.291 . S
O48 C50 1.312 . S
O49 Mg34 2.031 1_545 S
O49 C50 1.208 1_455 S
C50 O48 1.312 . S
C50 O49 1.208 1_655 S
C51 O43 1.331 . S
C51 O46 1.244 . S
O52 Mg37 2.013 . S
O52 C41 1.191 . S
O53 C32 1.331 . S
O53 Mg39 2.081 . S
O54 Mg35 1.986 . S
O54 C41 1.307 . S
O55 C33 1.264 . S
O55 Mg39 2.023 . S
O56 C32 1.244 . S
O56 Mg40 1.942 1_655 S
O57 C33 1.273 . S
O57 Mg40 1.955 1_655 S
O58 C31 1.312 1_455 S
O58 Mg34 2.291 . S
O58 Mg37 2.114 1_565 S
O59 C31 1.208 1_545 S
O59 Mg39 2.031 . S
C60 O45 1.264 . S
C60 O47 1.273 . S
C61 O42 1.191 . S
C61 O44 1.307 . S
C62 O89 1.312 . S
C62 O90 1.208 . S
C63 O84 1.331 . S
C63 O87 1.244 . S
C64 O86 1.264 . S
C64 O88 1.273 . S
Mg65 O67 1.936 . S
Mg65 O74 2.081 . S
Mg65 O76 2.023 1_655 S
Mg65 O80 2.031 . S
Mg65 O89 2.291 1_655 S
Mg66 O67 1.963 1_545 S
Mg66 O77 1.942 1_545 S
Mg66 O78 1.955 1_655 S
Mg66 O85 1.986 . S
O67 Mg65 1.936 . S
O67 Mg66 1.963 1_565 S
O67 Mg68 1.915 . S
Mg68 O67 1.915 . S
Mg68 O69 1.915 1_655 S
Mg68 O73 2.013 1_665 S
Mg68 O79 2.114 . S
Mg68 O83 2.013 1_565 S
Mg68 O89 2.114 1_655 S
O69 Mg68 1.915 1_455 S
O69 Mg70 1.936 . S
O69 Mg71 1.963 1_565 S
Mg70 O69 1.936 . S
Mg70 O79 2.291 1_455 S
Mg70 O84 2.081 . S
Mg70 O86 2.023 1_455 S
Mg70 O90 2.031 . S
Mg71 O69 1.963 1_545 S
Mg71 O75 1.986 . S
Mg71 O87 1.942 1_545 S
Mg71 O88 1.955 1_445 S
C72 O83 1.191 . S
C72 O85 1.307 . S
O73 Mg68 2.013 1_445 S
O73 C92 1.191 . S
O74 Mg65 2.081 . S
O74 C82 1.331 . S
O75 Mg71 1.986 . S
O75 C92 1.307 . S
O76 Mg65 2.023 1_455 S
O76 C91 1.264 . S
O77 Mg66 1.942 1_565 S
O77 C82 1.244 . S
O78 Mg66 1.955 1_455 S
O78 C91 1.273 1_545 S
O79 Mg68 2.114 . S
O79 Mg70 2.291 1_655 S
O79 C81 1.312 . S
O80 Mg65 2.031 . S
O80 C81 1.208 . S
C81 O79 1.312 . S
C81 O80 1.208 . S
C82 O74 1.331 . S
C82 O77 1.244 . S
O83 Mg68 2.013 1_545 S
O83 C72 1.191 . S
O84 C63 1.331 . S
O84 Mg70 2.081 . S
O85 Mg66 1.986 . S
O85 C72 1.307 . S
O86 C64 1.264 . S
O86 Mg70 2.023 1_655 S
O87 C63 1.244 . S
O87 Mg71 1.942 1_565 S
O88 C64 1.273 . S
O88 Mg71 1.955 1_665 S
O89 C62 1.312 . S
O89 Mg65 2.291 1_455 S
O89 Mg68 2.114 1_455 S
O90 C62 1.208 . S
O90 Mg70 2.031 . S
C91 O76 1.264 . S
C91 O78 1.273 1_565 S
C92 O73 1.191 . S
C92 O75 1.307 . S
C93 O120 1.312 . S
C93 O121 1.208 . S
C94 O115 1.331 1_565 S
C94 O118 1.244 . S
C95 O117 1.264 . S
C95 O119 1.273 . S
Mg96 O98 1.936 1_545 S
Mg96 O105 2.081 . S
Mg96 O107 2.023 1_445 S
Mg96 O111 2.031 . S
Mg96 O120 2.291 1_455 S
Mg97 O98 1.963 . S
Mg97 O108 1.942 . S
Mg97 O109 1.955 1_455 S
Mg97 O116 1.986 . S
O98 Mg96 1.936 1_565 S
O98 Mg97 1.963 . S
O98 Mg99 1.915 1_455 S
Mg99 O98 1.915 1_655 S
Mg99 O100 1.915 . S
Mg99 O104 2.013 . S
Mg99 O110 2.114 1_665 S
Mg99 O114 2.013 1_655 S
Mg99 O120 2.114 1_565 S
O100 Mg99 1.915 . S
O100 Mg101 1.936 1_565 S
O100 Mg102 1.963 . S
Mg101 O100 1.936 1_545 S
Mg101 O110 2.291 1_655 S
Mg101 O115 2.081 . S
Mg101 O117 2.023 1_645 S
Mg101 O121 2.031 . S
Mg102 O100 1.963 . S
Mg102 O106 1.986 . S
Mg102 O118 1.942 . S
Mg102 O119 1.955 1_655 S
C103 O114 1.191 . S
C103 O116 1.307 . S
O104 Mg99 2.013 . S
O104 C123 1.191 . S
O105 Mg96 2.081 . S
O105 C113 1.331 1_545 S
O106 Mg102 1.986 . S
O106 C123 1.307 . S
O107 Mg96 2.023 1_665 S
O107 C122 1.264 . S
O108 Mg97 1.942 . S
O108 C113 1.244 . S
O109 Mg97 1.955 1_655 S
O109 C122 1.273 . S
O110 Mg99 2.114 1_445 S
O110 Mg101 2.291 1_455 S
O110 C112 1.312 . S
O111 Mg96 2.031 . S
O111 C112 1.208 . S
C112 O110 1.312 . S
C112 O111 1.208 . S
C113 O105 1.331 1_565 S
C113 O108 1.244 . S
O114 Mg99 2.013 1_455 S
O114 C103 1.191 . S
O115 C94 1.331 1_545 S
O115 Mg101 2.081 . S
O116 Mg97 1.986 . S
O116 C103 1.307 . S
O117 C95 1.264 . S
O117 Mg101 2.023 1_465 S
O118 C94 1.244 . S
O118 Mg102 1.942 . S
O119 C95 1.273 . S
O119 Mg102 1.955 1_455 S
O120 C93 1.312 . S
O120 Mg96 2.291 1_655 S
O120 Mg99 2.114 1_545 S
O121 C93 1.208 . S
O121 Mg101 2.031 . S
C122 O107 1.264 . S
C122 O109 1.273 . S
C123 O104 1.191 . S
C123 O106 1.307 . S
C124 O151 1.312 . S
C124 O152 1.208 1_655 S
C125 O146 1.331 . S
C125 O149 1.244 . S
C126 O148 1.264 . S
C126 O150 1.273 . S
Mg127 O129 1.936 . S
Mg127 O136 2.081 . S
Mg127 O138 2.023 . S
Mg127 O142 2.031 . S
Mg127 O151 2.291 . S
Mg128 O129 1.963 1_455 S
Mg128 O139 1.942 1_455 S
Mg128 O140 1.955 1_455 S
Mg128 O147 1.986 . S
O129 Mg127 1.936 . S
O129 Mg128 1.963 1_655 S
O129 Mg130 1.915 1_655 S
Mg130 O129 1.915 1_455 S
Mg130 O131 1.915 . S
Mg130 O135 2.013 . S
Mg130 O141 2.114 . S
Mg130 O145 2.013 . S
Mg130 O151 2.114 1_455 S
O131 Mg130 1.915 . S
O131 Mg132 1.936 . S
O131 Mg133 1.963 . S
Mg132 O131 1.936 . S
Mg132 O141 2.291 . S
Mg132 O146 2.081 . S
Mg132 O148 2.023 . S
Mg132 O152 2.031 . S
Mg133 O131 1.963 . S
Mg133 O137 1.986 . S
Mg133 O149 1.942 . S
Mg133 O150 1.955 . S
C134 O145 1.191 . S
C134 O147 1.307 . S
O135 Mg130 2.013 . S
O135 C154 1.191 . S
O136 Mg127 2.081 . S
O136 C144 1.331 . S
O137 Mg133 1.986 . S
O137 C154 1.307 . S
O138 Mg127 2.023 . S
O138 C153 1.264 . S
O139 Mg128 1.942 1_655 S
O139 C144 1.244 . S
O140 Mg128 1.955 1_655 S
O140 C153 1.273 . S
O141 Mg130 2.114 . S
O141 Mg132 2.291 . S
O141 C143 1.312 1_455 S
O142 Mg127 2.031 . S
O142 C143 1.208 . S
C143 O141 1.312 1_655 S
C143 O142 1.208 . S
C144 O136 1.331 . S
C144 O139 1.244 . S
O145 Mg130 2.013 . S
O145 C134 1.191 . S
O146 C125 1.331 . S
O146 Mg132 2.081 . S
O147 Mg128 1.986 . S
O147 C134 1.307 . S
O148 C126 1.264 . S
O148 Mg132 2.023 . S
O149 C125 1.244 . S
O149 Mg133 1.942 . S
O150 C126 1.273 . S
O150 Mg133 1.955 . S
O151 C124 1.312 . S
O151 Mg127 2.291 . S
O151 Mg130 2.114 1_655 S
O152 C124 1.208 1_455 S
O152 Mg132 2.031 . S
C153 O138 1.264 . S
C153 O140 1.273 . S
C154 O135 1.191 . S
C154 O137 1.307 . S
C155 O182 1.312 1_655 S
C155 O183 1.208 . S
C156 O177 1.331 . S
C156 O180 1.244 . S
C157 O179 1.264 . S
C157 O181 1.273 . S
Mg158 O160 1.936 . S
Mg158 O167 2.081 . S
Mg158 O169 2.023 . S
Mg158 O173 2.031 . S
Mg158 O182 2.291 . S
Mg159 O160 1.963 . S
Mg159 O170 1.942 . S
Mg159 O171 1.955 . S
Mg159 O178 1.986 . S
O160 Mg158 1.936 . S
O160 Mg159 1.963 . S
O160 Mg161 1.915 . S
Mg161 O160 1.915 . S
Mg161 O162 1.915 1_455 S
Mg161 O166 2.013 . S
Mg161 O172 2.114 1_455 S
Mg161 O176 2.013 . S
Mg161 O182 2.114 . S
O162 Mg161 1.915 1_655 S
O162 Mg163 1.936 . S
O162 Mg164 1.963 1_655 S
Mg163 O162 1.936 . S
Mg163 O172 2.291 . S
Mg163 O177 2.081 . S
Mg163 O179 2.023 . S
Mg163 O183 2.031 . S
Mg164 O162 1.963 1_455 S
Mg164 O168 1.986 . S
Mg164 O180 1.942 1_455 S
Mg164 O181 1.955 1_455 S
C165 O176 1.191 . S
C165 O178 1.307 . S
O166 Mg161 2.013 . S
O166 C185 1.191 . S
O167 Mg158 2.081 . S
O167 C175 1.331 . S
O168 Mg164 1.986 . S
O168 C185 1.307 . S
O169 Mg158 2.023 . S
O169 C184 1.264 . S
O170 Mg159 1.942 . S
O170 C175 1.244 . S
O171 Mg159 1.955 . S
O171 C184 1.273 . S
O172 Mg161 2.114 1_655 S
O172 Mg163 2.291 . S
O172 C174 1.312 . S
O173 Mg158 2.031 . S
O173 C174 1.208 1_455 S
C174 O172 1.312 . S
C174 O173 1.208 1_655 S
C175 O167 1.331 . S
C175 O170 1.244 . S
O176 Mg161 2.013 . S
O176 C165 1.191 . S
O177 C156 1.331 . S
O177 Mg163 2.081 . S
O178 Mg159 1.986 . S
O178 C165 1.307 . S
O179 C157 1.264 . S
O179 Mg163 2.023 . S
O180 C156 1.244 . S
O180 Mg164 1.942 1_655 S
O181 C157 1.273 . S
O181 Mg164 1.955 1_655 S
O182 C155 1.312 1_455 S
O182 Mg158 2.291 . S
O182 Mg161 2.114 . S
O183 C155 1.208 . S
O183 Mg163 2.031 . S
C184 O169 1.264 . S
C184 O171 1.273 . S
C185 O166 1.191 . S
C185 O168 1.307 . S
C186 O213 1.312 . S
C186 O214 1.208 . S
C187 O208 1.331 . S
C187 O211 1.244 . S
C188 O210 1.264 . S
C188 O212 1.273 . S
Mg189 O191 1.936 . S
Mg189 O198 2.081 . S
Mg189 O200 2.023 1_655 S
Mg189 O204 2.031 . S
Mg189 O213 2.291 1_655 S
Mg190 O191 1.963 . S
Mg190 O201 1.942 . S
Mg190 O202 1.955 1_655 S
Mg190 O209 1.986 . S
O191 Mg189 1.936 . S
O191 Mg190 1.963 . S
O191 Mg192 1.915 . S
Mg192 O191 1.915 . S
Mg192 O193 1.915 1_655 S
Mg192 O197 2.013 1_655 S
Mg192 O203 2.114 . S
Mg192 O207 2.013 . S
Mg192 O213 2.114 1_655 S
O193 Mg192 1.915 1_455 S
O193 Mg194 1.936 . S
O193 Mg195 1.963 . S
Mg194 O193 1.936 . S
Mg194 O203 2.291 1_455 S
Mg194 O208 2.081 . S
Mg194 O210 2.023 1_455 S
Mg194 O214 2.031 . S
Mg195 O193 1.963 . S
Mg195 O199 1.986 . S
Mg195 O211 1.942 . S
Mg195 O212 1.955 1_455 S
C196 O207 1.191 . S
C196 O209 1.307 . S
O197 Mg192 2.013 1_455 S
O197 C216 1.191 . S
O198 Mg189 2.081 . S
O198 C206 1.331 . S
O199 Mg195 1.986 . S
O199 C216 1.307 . S
O200 Mg189 2.023 1_455 S
O200 C215 1.264 . S
O201 Mg190 1.942 . S
O201 C206 1.244 . S
O202 Mg190 1.955 1_455 S
O202 C215 1.273 . S
O203 Mg192 2.114 . S
O203 Mg194 2.291 1_655 S
O203 C205 1.312 . S
O204 Mg189 2.031 . S
O204 C205 1.208 . S
C205 O203 1.312 . S
C205 O204 1.208 . S
C206 O198 1.331 . S
C206 O201 1.244 . S
O207 Mg192 2.013 . S
O207 C196 1.191 . S
O208 C187 1.331 . S
O208 Mg194 2.081 . S
O209 Mg190 1.986 . S
O209 C196 1.307 . S
O210 C188 1.264 . S
O210 Mg194 2.023 1_655 S
O211 C187 1.244 . S
O211 Mg195 1.942 . S
O212 C188 1.273 . S
O212 Mg195 1.955 1_655 S
O213 C186 1.312 . S
O213 Mg189 2.291 1_455 S
O213 Mg192 2.114 1_455 S
O214 C186 1.208 . S
O214 Mg194 2.031 . S
C215 O200 1.264 . S
C215 O202 1.273 . S
C216 O197 1.191 . S
C216 O199 1.307 . S
C217 O244 1.312 . S
C217 O245 1.208 . S
C218 O239 1.331 . S
C218 O242 1.244 . S
C219 O241 1.264 . S
C219 O243 1.273 . S
Mg220 O222 1.936 . S
Mg220 O229 2.081 . S
Mg220 O231 2.023 1_655 S
Mg220 O235 2.031 . S
Mg220 O244 2.291 1_655 S
Mg221 O222 1.963 . S
Mg221 O232 1.942 . S
Mg221 O233 1.955 1_655 S
Mg221 O240 1.986 . S
O222 Mg220 1.936 . S
O222 Mg221 1.963 . S
O222 Mg223 1.915 . S
Mg223 O222 1.915 . S
Mg223 O224 1.915 1_655 S
Mg223 O228 2.013 1_655 S
Mg223 O234 2.114 . S
Mg223 O238 2.013 . S
Mg223 O244 2.114 1_655 S
O224 Mg223 1.915 1_455 S
O224 Mg225 1.936 . S
O224 Mg226 1.963 . S
Mg225 O224 1.936 . S
Mg225 O234 2.291 1_455 S
Mg225 O239 2.081 . S
Mg225 O241 2.023 1_455 S
Mg225 O245 2.031 . S
Mg226 O224 1.963 . S
Mg226 O230 1.986 . S
Mg226 O242 1.942 . S
Mg226 O243 1.955 1_455 S
C227 O238 1.191 . S
C227 O240 1.307 . S
O228 Mg223 2.013 1_455 S
O228 C247 1.191 . S
O229 Mg220 2.081 . S
O229 C237 1.331 . S
O230 Mg226 1.986 . S
O230 C247 1.307 . S
O231 Mg220 2.023 1_455 S
O231 C246 1.264 . S
O232 Mg221 1.942 . S
O232 C237 1.244 . S
O233 Mg221 1.955 1_455 S
O233 C246 1.273 . S
O234 Mg223 2.114 . S
O234 Mg225 2.291 1_655 S
O234 C236 1.312 . S
O235 Mg220 2.031 . S
O235 C236 1.208 . S
C236 O234 1.312 . S
C236 O235 1.208 . S
C237 O229 1.331 . S
C237 O232 1.244 . S
O238 Mg223 2.013 . S
O238 C227 1.191 . S
O239 C218 1.331 . S
O239 Mg225 2.081 . S
O240 Mg221 1.986 . S
O240 C227 1.307 . S
O241 C219 1.264 . S
O241 Mg225 2.023 1_655 S
O242 C218 1.244 . S
O242 Mg226 1.942 . S
O243 C219 1.273 . S
O243 Mg226 1.955 1_655 S
O244 C217 1.312 . S
O244 Mg220 2.291 1_455 S
O244 Mg223 2.114 1_455 S
O245 C217 1.208 . S
O245 Mg225 2.031 . S
C246 O231 1.264 . S
C246 O233 1.273 . S
C247 O228 1.191 . S
C247 O230 1.307 . S
C248 O275 1.312 . S
C248 O276 1.208 . S
C249 O270 1.331 . S
C249 O273 1.244 . S
C250 O272 1.264 . S
C250 O274 1.273 . S
Mg251 O253 1.936 . S
Mg251 O260 2.081 . S
Mg251 O262 2.023 1_545 S
Mg251 O266 2.031 . S
Mg251 O275 2.291 . S
Mg252 O253 1.963 1_565 S
Mg252 O263 1.942 1_565 S
Mg252 O264 1.955 . S
Mg252 O271 1.986 1_565 S
O253 Mg251 1.936 . S
O253 Mg252 1.963 1_545 S
O253 Mg254 1.915 . S
Mg254 O253 1.915 . S
Mg254 O255 1.915 . S
Mg254 O259 2.013 1_545 S
Mg254 O265 2.114 . S
Mg254 O269 2.013 . S
Mg254 O275 2.114 . S
O255 Mg254 1.915 . S
O255 Mg256 1.936 . S
O255 Mg257 1.963 . S
Mg256 O255 1.936 . S
Mg256 O265 2.291 . S
Mg256 O270 2.081 . S
Mg256 O272 2.023 . S
Mg256 O276 2.031 . S
Mg257 O255 1.963 . S
Mg257 O261 1.986 1_545 S
Mg257 O273 1.942 . S
Mg257 O274 1.955 . S
C258 O269 1.191 . S
C258 O271 1.307 . S
O259 Mg254 2.013 1_565 S
O259 C278 1.191 . S
O260 Mg251 2.081 . S
O260 C268 1.331 . S
O261 Mg257 1.986 1_565 S
O261 C278 1.307 . S
O262 Mg251 2.023 1_565 S
O262 C277 1.264 . S
O263 Mg252 1.942 1_545 S
O263 C268 1.244 . S
O264 Mg252 1.955 . S
O264 C277 1.273 . S
O265 Mg254 2.114 . S
O265 Mg256 2.291 . S
O265 C267 1.312 . S
O266 Mg251 2.031 . S
O266 C267 1.208 . S
C267 O265 1.312 . S
C267 O266 1.208 . S
C268 O260 1.331 . S
C268 O263 1.244 . S
O269 Mg254 2.013 . S
O269 C258 1.191 . S
O270 C249 1.331 . S
O270 Mg256 2.081 . S
O271 Mg252 1.986 1_545 S
O271 C258 1.307 . S
O272 C250 1.264 . S
O272 Mg256 2.023 . S
O273 C249 1.244 . S
O273 Mg257 1.942 . S
O274 C250 1.273 . S
O274 Mg257 1.955 . S
O275 C248 1.312 . S
O275 Mg251 2.291 . S
O275 Mg254 2.114 . S
O276 C248 1.208 . S
O276 Mg256 2.031 . S
C277 O262 1.264 . S
C277 O264 1.273 . S
C278 O259 1.191 . S
C278 O261 1.307 . S
C279 O306 1.312 . S
C279 O307 1.208 . S
C280 O301 1.331 . S
C280 O304 1.244 . S
C281 O303 1.264 . S
C281 O305 1.273 . S
Mg282 O284 1.936 . S
Mg282 O291 2.081 . S
Mg282 O293 2.023 . S
Mg282 O297 2.031 . S
Mg282 O306 2.291 . S
Mg283 O284 1.963 . S
Mg283 O294 1.942 . S
Mg283 O295 1.955 . S
Mg283 O302 1.986 . S
O284 Mg282 1.936 . S
O284 Mg283 1.963 . S
O284 Mg285 1.915 . S
Mg285 O284 1.915 . S
Mg285 O286 1.915 . S
Mg285 O290 2.013 . S
Mg285 O296 2.114 1_545 S
Mg285 O300 2.013 . S
Mg285 O306 2.114 . S
O286 Mg285 1.915 . S
O286 Mg287 1.936 1_545 S
O286 Mg288 1.963 . S
Mg287 O286 1.936 1_565 S
Mg287 O296 2.291 . S
Mg287 O301 2.081 1_565 S
Mg287 O303 2.023 . S
Mg287 O307 2.031 1_565 S
Mg288 O286 1.963 . S
Mg288 O292 1.986 . S
Mg288 O304 1.942 . S
Mg288 O305 1.955 1_545 S
C289 O300 1.191 . S
C289 O302 1.307 . S
O290 Mg285 2.013 . S
O290 C309 1.191 . S
O291 Mg282 2.081 . S
O291 C299 1.331 . S
O292 Mg288 1.986 . S
O292 C309 1.307 . S
O293 Mg282 2.023 . S
O293 C308 1.264 . S
O294 Mg283 1.942 . S
O294 C299 1.244 . S
O295 Mg283 1.955 . S
O295 C308 1.273 . S
O296 Mg285 2.114 1_565 S
O296 Mg287 2.291 . S
O296 C298 1.312 . S
O297 Mg282 2.031 . S
O297 C298 1.208 1_545 S
C298 O296 1.312 . S
C298 O297 1.208 1_565 S
C299 O291 1.331 . S
C299 O294 1.244 . S
O300 Mg285 2.013 . S
O300 C289 1.191 . S
O301 C280 1.331 . S
O301 Mg287 2.081 1_545 S
O302 Mg283 1.986 . S
O302 C289 1.307 . S
O303 C281 1.264 . S
O303 Mg287 2.023 . S
O304 C280 1.244 . S
O304 Mg288 1.942 . S
O305 C281 1.273 . S
O305 Mg288 1.955 1_565 S
O306 C279 1.312 . S
O306 Mg282 2.291 . S
O306 Mg285 2.114 . S
O307 C279 1.208 . S
O307 Mg287 2.031 1_545 S
C308 O293 1.264 . S
C308 O295 1.273 . S
C309 O290 1.191 . S
C309 O292 1.307 . S
C310 O337 1.312 . S
C310 O338 1.208 . S
C311 O332 1.331 . S
C311 O335 1.244 . S
C312 O334 1.264 . S
C312 O336 1.273 . S
Mg313 O315 1.936 . S
Mg313 O322 2.081 . S
Mg313 O324 2.023 . S
Mg313 O328 2.031 . S
Mg313 O337 2.291 . S
Mg314 O315 1.963 1_545 S
Mg314 O325 1.942 1_545 S
Mg314 O326 1.955 . S
Mg314 O333 1.986 . S
O315 Mg313 1.936 . S
O315 Mg314 1.963 1_565 S
O315 Mg316 1.915 . S
Mg316 O315 1.915 . S
Mg316 O317 1.915 . S
Mg316 O321 2.013 1_565 S
Mg316 O327 2.114 . S
Mg316 O331 2.013 1_565 S
Mg316 O337 2.114 . S
O317 Mg316 1.915 . S
O317 Mg318 1.936 . S
O317 Mg319 1.963 1_565 S
Mg318 O317 1.936 . S
Mg318 O327 2.291 . S
Mg318 O332 2.081 . S
Mg318 O334 2.023 . S
Mg318 O338 2.031 . S
Mg319 O317 1.963 1_545 S
Mg319 O323 1.986 . S
Mg319 O335 1.942 1_545 S
Mg319 O336 1.955 1_545 S
C320 O331 1.191 . S
C320 O333 1.307 . S
O321 Mg316 2.013 1_545 S
O321 C340 1.191 . S
O322 Mg313 2.081 . S
O322 C330 1.331 . S
O323 Mg319 1.986 . S
O323 C340 1.307 . S
O324 Mg313 2.023 . S
O324 C339 1.264 . S
O325 Mg314 1.942 1_565 S
O325 C330 1.244 . S
O326 Mg314 1.955 . S
O326 C339 1.273 1_545 S
O327 Mg316 2.114 . S
O327 Mg318 2.291 . S
O327 C329 1.312 . S
O328 Mg313 2.031 . S
O328 C329 1.208 . S
C329 O327 1.312 . S
C329 O328 1.208 . S
C330 O322 1.331 . S
C330 O325 1.244 . S
O331 Mg316 2.013 1_545 S
O331 C320 1.191 . S
O332 C311 1.331 . S
O332 Mg318 2.081 . S
O333 Mg314 1.986 . S
O333 C320 1.307 . S
O334 C312 1.264 . S
O334 Mg318 2.023 . S
O335 C311 1.244 . S
O335 Mg319 1.942 1_565 S
O336 C312 1.273 . S
O336 Mg319 1.955 1_565 S
O337 C310 1.312 . S
O337 Mg313 2.291 . S
O337 Mg316 2.114 . S
O338 C310 1.208 . S
O338 Mg318 2.031 . S
C339 O324 1.264 . S
C339 O326 1.273 1_565 S
C340 O321 1.191 . S
C340 O323 1.307 . S
C341 O368 1.312 . S
C341 O369 1.208 . S
C342 O363 1.331 1_565 S
C342 O366 1.244 . S
C343 O365 1.264 . S
C343 O367 1.273 . S
Mg344 O346 1.936 1_545 S
Mg344 O353 2.081 . S
Mg344 O355 2.023 1_545 S
Mg344 O359 2.031 . S
Mg344 O368 2.291 . S
Mg345 O346 1.963 . S
Mg345 O356 1.942 . S
Mg345 O357 1.955 . S
Mg345 O364 1.986 . S
O346 Mg344 1.936 1_565 S
O346 Mg345 1.963 . S
O346 Mg347 1.915 . S
Mg347 O346 1.915 . S
Mg347 O348 1.915 . S
Mg347 O352 2.013 . S
Mg347 O358 2.114 1_565 S
Mg347 O362 2.013 . S
Mg347 O368 2.114 1_565 S
O348 Mg347 1.915 . S
O348 Mg349 1.936 1_565 S
O348 Mg350 1.963 . S
Mg349 O348 1.936 1_545 S
Mg349 O358 2.291 . S
Mg349 O363 2.081 . S
Mg349 O365 2.023 1_545 S
Mg349 O369 2.031 . S
Mg350 O348 1.963 . S
Mg350 O354 1.986 . S
Mg350 O366 1.942 . S
Mg350 O367 1.955 . S
C351 O362 1.191 . S
C351 O364 1.307 . S
O352 Mg347 2.013 . S
O352 C371 1.191 . S
O353 Mg344 2.081 . S
O353 C361 1.331 1_545 S
O354 Mg350 1.986 . S
O354 C371 1.307 . S
O355 Mg344 2.023 1_565 S
O355 C370 1.264 . S
O356 Mg345 1.942 . S
O356 C361 1.244 . S
O357 Mg345 1.955 . S
O357 C370 1.273 . S
O358 Mg347 2.114 1_545 S
O358 Mg349 2.291 . S
O358 C360 1.312 . S
O359 Mg344 2.031 . S
O359 C360 1.208 . S
C360 O358 1.312 . S
C360 O359 1.208 . S
C361 O353 1.331 1_565 S
C361 O356 1.244 . S
O362 Mg347 2.013 . S
O362 C351 1.191 . S
O363 C342 1.331 1_545 S
O363 Mg349 2.081 . S
O364 Mg345 1.986 . S
O364 C351 1.307 . S
O365 C343 1.264 . S
O365 Mg349 2.023 1_565 S
O366 C342 1.244 . S
O366 Mg350 1.942 . S
O367 C343 1.273 . S
O367 Mg350 1.955 . S
O368 C341 1.312 . S
O368 Mg344 2.291 . S
O368 Mg347 2.114 1_545 S
O369 C341 1.208 . S
O369 Mg349 2.031 . S
C370 O355 1.264 . S
C370 O357 1.273 . S
C371 O352 1.191 . S
C371 O354 1.307 . S
C372 O399 1.312 . S
C372 O400 1.208 . S
C373 O394 1.331 . S
C373 O397 1.244 . S
C374 O396 1.264 . S
C374 O398 1.273 . S
Mg375 O377 1.936 . S
Mg375 O384 2.081 . S
Mg375 O386 2.023 . S
Mg375 O390 2.031 . S
Mg375 O399 2.291 . S
Mg376 O377 1.963 . S
Mg376 O387 1.942 . S
Mg376 O388 1.955 . S
Mg376 O395 1.986 . S
O377 Mg375 1.936 . S
O377 Mg376 1.963 . S
O377 Mg378 1.915 . S
Mg378 O377 1.915 . S
Mg378 O379 1.915 . S
Mg378 O383 2.013 . S
Mg378 O389 2.114 . S
Mg378 O393 2.013 . S
Mg378 O399 2.114 . S
O379 Mg378 1.915 . S
O379 Mg380 1.936 . S
O379 Mg381 1.963 . S
Mg380 O379 1.936 . S
Mg380 O389 2.291 . S
Mg380 O394 2.081 . S
Mg380 O396 2.023 . S
Mg380 O400 2.031 . S
Mg381 O379 1.963 . S
Mg381 O385 1.986 . S
Mg381 O397 1.942 . S
Mg381 O398 1.955 . S
C382 O393 1.191 . S
C382 O395 1.307 . S
O383 Mg378 2.013 . S
O383 C402 1.191 . S
O384 Mg375 2.081 . S
O384 C392 1.331 . S
O385 Mg381 1.986 . S
O385 C402 1.307 . S
O386 Mg375 2.023 . S
O386 C401 1.264 . S
O387 Mg376 1.942 . S
O387 C392 1.244 . S
O388 Mg376 1.955 . S
O388 C401 1.273 . S
O389 Mg378 2.114 . S
O389 Mg380 2.291 . S
O389 C391 1.312 . S
O390 Mg375 2.031 . S
O390 C391 1.208 . S
C391 O389 1.312 . S
C391 O390 1.208 . S
C392 O384 1.331 . S
C392 O387 1.244 . S
O393 Mg378 2.013 . S
O393 C382 1.191 . S
O394 C373 1.331 . S
O394 Mg380 2.081 . S
O395 Mg376 1.986 . S
O395 C382 1.307 . S
O396 C374 1.264 . S
O396 Mg380 2.023 . S
O397 C373 1.244 . S
O397 Mg381 1.942 . S
O398 C374 1.273 . S
O398 Mg381 1.955 . S
O399 C372 1.312 . S
O399 Mg375 2.291 . S
O399 Mg378 2.114 . S
O400 C372 1.208 . S
O400 Mg380 2.031 . S
C401 O386 1.264 . S
C401 O388 1.273 . S
C402 O383 1.191 . S
C402 O385 1.307 . S
C403 O430 1.312 . S
C403 O431 1.208 . S
C404 O425 1.331 . S
C404 O428 1.244 . S
C405 O427 1.264 . S
C405 O429 1.273 . S
Mg406 O408 1.936 . S
Mg406 O415 2.081 . S
Mg406 O417 2.023 . S
Mg406 O421 2.031 . S
Mg406 O430 2.291 . S
Mg407 O408 1.963 . S
Mg407 O418 1.942 . S
Mg407 O419 1.955 . S
Mg407 O426 1.986 . S
O408 Mg406 1.936 . S
O408 Mg407 1.963 . S
O408 Mg409 1.915 . S
Mg409 O408 1.915 . S
Mg409 O410 1.915 . S
Mg409 O414 2.013 . S
Mg409 O420 2.114 . S
Mg409 O424 2.013 . S
Mg409 O430 2.114 . S
O410 Mg409 1.915 . S
O410 Mg411 1.936 . S
O410 Mg412 1.963 . S
Mg411 O410 1.936 . S
Mg411 O420 2.291 . S
Mg411 O425 2.081 . S
Mg411 O427 2.023 . S
Mg411 O431 2.031 . S
Mg412 O410 1.963 . S
Mg412 O416 1.986 . S
Mg412 O428 1.942 . S
Mg412 O429 1.955 . S
C413 O424 1.191 . S
C413 O426 1.307 . S
O414 Mg409 2.013 . S
O414 C433 1.191 . S
O415 Mg406 2.081 . S
O415 C423 1.331 . S
O416 Mg412 1.986 . S
O416 C433 1.307 . S
O417 Mg406 2.023 . S
O417 C432 1.264 . S
O418 Mg407 1.942 . S
O418 C423 1.244 . S
O419 Mg407 1.955 . S
O419 C432 1.273 . S
O420 Mg409 2.114 . S
O420 Mg411 2.291 . S
O420 C422 1.312 . S
O421 Mg406 2.031 . S
O421 C422 1.208 . S
C422 O420 1.312 . S
C422 O421 1.208 . S
C423 O415 1.331 . S
C423 O418 1.244 . S
O424 Mg409 2.013 . S
O424 C413 1.191 . S
O425 C404 1.331 . S
O425 Mg411 2.081 . S
O426 Mg407 1.986 . S
O426 C413 1.307 . S
O427 C405 1.264 . S
O427 Mg411 2.023 . S
O428 C404 1.244 . S
O428 Mg412 1.942 . S
O429 C405 1.273 . S
O429 Mg412 1.955 . S
O430 C403 1.312 . S
O430 Mg406 2.291 . S
O430 Mg409 2.114 . S
O431 C403 1.208 . S
O431 Mg411 2.031 . S
C432 O417 1.264 . S
C432 O419 1.273 . S
C433 O414 1.191 . S
C433 O416 1.307 . S
C434 O461 1.312 . S
C434 O462 1.208 . S
C435 O456 1.331 . S
C435 O459 1.244 . S
C436 O458 1.264 . S
C436 O460 1.273 . S
Mg437 O439 1.936 . S
Mg437 O446 2.081 . S
Mg437 O448 2.023 . S
Mg437 O452 2.031 . S
Mg437 O461 2.291 . S
Mg438 O439 1.963 . S
Mg438 O449 1.942 . S
Mg438 O450 1.955 . S
Mg438 O457 1.986 . S
O439 Mg437 1.936 . S
O439 Mg438 1.963 . S
O439 Mg440 1.915 . S
Mg440 O439 1.915 . S
Mg440 O441 1.915 . S
Mg440 O445 2.013 . S
Mg440 O451 2.114 . S
Mg440 O455 2.013 . S
Mg440 O461 2.114 . S
O441 Mg440 1.915 . S
O441 Mg442 1.936 . S
O441 Mg443 1.963 . S
Mg442 O441 1.936 . S
Mg442 O451 2.291 . S
Mg442 O456 2.081 . S
Mg442 O458 2.023 . S
Mg442 O462 2.031 . S
Mg443 O441 1.963 . S
Mg443 O447 1.986 . S
Mg443 O459 1.942 . S
Mg443 O460 1.955 . S
C444 O455 1.191 . S
C444 O457 1.307 . S
O445 Mg440 2.013 . S
O445 C464 1.191 . S
O446 Mg437 2.081 . S
O446 C454 1.331 . S
O447 Mg443 1.986 . S
O447 C464 1.307 . S
O448 Mg437 2.023 . S
O448 C463 1.264 . S
O449 Mg438 1.942 . S
O449 C454 1.244 . S
O450 Mg438 1.955 . S
O450 C463 1.273 . S
O451 Mg440 2.114 . S
O451 Mg442 2.291 . S
O451 C453 1.312 . S
O452 Mg437 2.031 . S
O452 C453 1.208 . S
C453 O451 1.312 . S
C453 O452 1.208 . S
C454 O446 1.331 . S
C454 O449 1.244 . S
O455 Mg440 2.013 . S
O455 C444 1.191 . S
O456 C435 1.331 . S
O456 Mg442 2.081 . S
O457 Mg438 1.986 . S
O457 C444 1.307 . S
O458 C436 1.264 . S
O458 Mg442 2.023 . S
O459 C435 1.244 . S
O459 Mg443 1.942 . S
O460 C436 1.273 . S
O460 Mg443 1.955 . S
O461 C434 1.312 . S
O461 Mg437 2.291 . S
O461 Mg440 2.114 . S
O462 C434 1.208 . S
O462 Mg442 2.031 . S
C463 O448 1.264 . S
C463 O450 1.273 . S
C464 O445 1.191 . S
C464 O447 1.307 . S
C465 O492 1.312 . S
C465 O493 1.208 . S
C466 O487 1.331 . S
C466 O490 1.244 . S
C467 O489 1.264 . S
C467 O491 1.273 . S
Mg468 O470 1.936 . S
Mg468 O477 2.081 . S
Mg468 O479 2.023 . S
Mg468 O483 2.031 . S
Mg468 O492 2.291 . S
Mg469 O470 1.963 . S
Mg469 O480 1.942 . S
Mg469 O481 1.955 . S
Mg469 O488 1.986 . S
O470 Mg468 1.936 . S
O470 Mg469 1.963 . S
O470 Mg471 1.915 . S
Mg471 O470 1.915 . S
Mg471 O472 1.915 . S
Mg471 O476 2.013 . S
Mg471 O482 2.114 . S
Mg471 O486 2.013 . S
Mg471 O492 2.114 . S
O472 Mg471 1.915 . S
O472 Mg473 1.936 . S
O472 Mg474 1.963 . S
Mg473 O472 1.936 . S
Mg473 O482 2.291 . S
Mg473 O487 2.081 . S
Mg473 O489 2.023 . S
Mg473 O493 2.031 . S
Mg474 O472 1.963 . S
Mg474 O478 1.986 . S
Mg474 O490 1.942 . S
Mg474 O491 1.955 . S
C475 O486 1.191 . S
C475 O488 1.307 . S
O476 Mg471 2.013 . S
O476 C495 1.191 . S
O477 Mg468 2.081 . S
O477 C485 1.331 . S
O478 Mg474 1.986 . S
O478 C495 1.307 . S
O479 Mg468 2.023 . S
O479 C494 1.264 . S
O480 Mg469 1.942 . S
O480 C485 1.244 . S
O481 Mg469 1.955 . S
O481 C494 1.273 . S
O482 Mg471 2.114 . S
O482 Mg473 2.291 . S
O482 C484 1.312 . S
O483 Mg468 2.031 . S
O483 C484 1.208 . S
C484 O482 1.312 . S
C484 O483 1.208 . S
C485 O477 1.331 . S
C485 O480 1.244 . S
O486 Mg471 2.013 . S
O486 C475 1.191 . S
O487 C466 1.331 . S
O487 Mg473 2.081 . S
O488 Mg469 1.986 . S
O488 C475 1.307 . S
O489 C467 1.264 . S
O489 Mg473 2.023 . S
O490 C466 1.244 . S
O490 Mg474 1.942 . S
O491 C467 1.273 . S
O491 Mg474 1.955 . S
O492 C465 1.312 . S
O492 Mg468 2.291 . S
O492 Mg471 2.114 . S
O493 C465 1.208 . S
O493 Mg473 2.031 . S
C494 O479 1.264 . S
C494 O481 1.273 . S
C495 O476 1.191 . S
C495 O478 1.307 . S
C2 C374 1.483 . S
C29 C401 1.484 . S
C60 C405 1.483 . S
C33 C432 1.483 . S
C464 C81 2.290 . S
C92 C453 2.290 . S
C93 C475 2.290 . S
C103 C465 2.290 . S
C277 C126 1.483 . S
C250 C153 1.483 . S
C308 C184 1.483 . S
C281 C157 1.484 . S
C340 C205 2.290 . S
C216 C329 2.290 . S
C351 C236 2.290 . S
C247 C341 2.290 . S
C30 C372 2.257 . S
C19 C382 2.258 . S
C41 C403 2.258 . S
C413 C31 2.257 . S
C434 C72 2.223 . S
C444 C62 2.223 . S
C484 C123 2.223 . S
C495 C112 2.223 . S
C154 C267 2.258 . S
C143 C278 2.257 . S
C165 C298 2.257 . S
C155 C309 2.258 . S
C310 C196 2.223 . S
C320 C186 2.223 . S
C360 C227 2.223 . S
C217 C371 2.223 . S
C10 C299 1.712 . S
C289 C20 1.712 . S
C268 C61 1.712 . S
C258 C32 1.712 . S
C361 C64 1.679 . S
C63 C370 1.679 . S
C122 C311 1.679 . S
C113 C312 1.680 . S
C404 C134 1.712 . S
C144 C433 1.712 . S
C185 C373 1.712 . S
C402 C156 1.712 . S
C485 C188 1.679 . S
C494 C187 1.679 . S
C435 C219 1.679 . S
C436 C218 1.679 . S
C454 C1 2.318 . S
C91 C0 3.075 1_465 S
C342 C51 2.318 1_565 S
C50 C246 3.075 1_655 S
C392 C82 2.317 . S
C94 C280 2.318 1_565 S
C174 C95 3.075 1_655 S
C330 C125 2.317 1_554 S
C124 C215 3.075 1_656 S
C175 C466 2.318 . S
C249 C206 2.317 1_556 S
C423 C237 2.318 . S
C248 C339 3.075 1_546 S
C279 C467 3.075 . S
C422 C343 3.075 . S
C463 C391 3.075 . S
