# Generated by pormake.
# Topology fnc, (5)-cn, num edge types: 1
# Building blocks:
#     Node 0, Type 0, BuildingBlock: BEQFEK_clean_sbu_0, # of connection points: 5
#     Node 1, Type 0, BuildingBlock: BEQFEK_clean_sbu_0, # of connection points: 5
#     Node 2, Type 0, BuildingBlock: BEQFEK_clean_sbu_0, # of connection points: 5
#     Node 3, Type 0, BuildingBlock: BEQFEK_clean_sbu_0, # of connection points: 5
#     Node 4, Type 0, BuildingBlock: BEQFEK_clean_sbu_0, # of connection points: 5
#     Node 5, Type 0, BuildingBlock: BEQFEK_clean_sbu_0, # of connection points: 5
#     Node 6, Type 0, BuildingBlock: BEQFEK_clean_sbu_0, # of connection points: 5
#     Node 7, Type 0, BuildingBlock: BEQFEK_clean_sbu_0, # of connection points: 5
#     Node 8, Type 0, BuildingBlock: BEQFEK_clean_sbu_0, # of connection points: 5
#     Node 9, Type 0, BuildingBlock: BEQFEK_clean_sbu_0, # of connection points: 5
#     Node 10, Type 0, BuildingBlock: BEQFEK_clean_sbu_0, # of connection points: 5
#     Node 11, Type 0, BuildingBlock: BEQFEK_clean_sbu_0, # of connection points: 5
#     Node 12, Type 0, BuildingBlock: BEQFEK_clean_sbu_0, # of connection points: 5
#     Node 13, Type 0, BuildingBlock: BEQFEK_clean_sbu_0, # of connection points: 5
#     Node 14, Type 0, BuildingBlock: BEQFEK_clean_sbu_0, # of connection points: 5
#     Node 15, Type 0, BuildingBlock: BEQFEK_clean_sbu_0, # of connection points: 5
#     Node 16, Type 0, BuildingBlock: BEQFEK_clean_sbu_0, # of connection points: 5
#     Node 17, Type 0, BuildingBlock: BEQFEK_clean_sbu_0, # of connection points: 5
#     Edge 18, Type (0, 0), BuildingBlock: ZUJKAS_clean_linker_0, # of connection points: 2
#     Edge 19, Type (0, 0), BuildingBlock: ZUJKAS_clean_linker_0, # of connection points: 2
#     Edge 20, Type (0, 0), BuildingBlock: ZUJKAS_clean_linker_0, # of connection points: 2
#     Edge 21, Type (0, 0), BuildingBlock: ZUJKAS_clean_linker_0, # of connection points: 2
#     Edge 22, Type (0, 0), BuildingBlock: ZUJKAS_clean_linker_0, # of connection points: 2
#     Edge 23, Type (0, 0), BuildingBlock: ZUJKAS_clean_linker_0, # of connection points: 2
#     Edge 24, Type (0, 0), BuildingBlock: ZUJKAS_clean_linker_0, # of connection points: 2
#     Edge 25, Type (0, 0), BuildingBlock: ZUJKAS_clean_linker_0, # of connection points: 2
#     Edge 26, Type (0, 0), BuildingBlock: ZUJKAS_clean_linker_0, # of connection points: 2
#     Edge 27, Type (0, 0), BuildingBlock: ZUJKAS_clean_linker_0, # of connection points: 2
#     Edge 28, Type (0, 0), BuildingBlock: ZUJKAS_clean_linker_0, # of connection points: 2
#     Edge 29, Type (0, 0), BuildingBlock: ZUJKAS_clean_linker_0, # of connection points: 2
#     Edge 30, Type (0, 0), BuildingBlock: ZUJKAS_clean_linker_0, # of connection points: 2
#     Edge 31, Type (0, 0), BuildingBlock: ZUJKAS_clean_linker_0, # of connection points: 2
#     Edge 32, Type (0, 0), BuildingBlock: ZUJKAS_clean_linker_0, # of connection points: 2
#     Edge 33, Type (0, 0), BuildingBlock: ZUJKAS_clean_linker_0, # of connection points: 2
#     Edge 34, Type (0, 0), BuildingBlock: ZUJKAS_clean_linker_0, # of connection points: 2
#     Edge 35, Type (0, 0), BuildingBlock: ZUJKAS_clean_linker_0, # of connection points: 2
#     Edge 36, Type (0, 0), BuildingBlock: ZUJKAS_clean_linker_0, # of connection points: 2
#     Edge 37, Type (0, 0), BuildingBlock: ZUJKAS_clean_linker_0, # of connection points: 2
#     Edge 38, Type (0, 0), BuildingBlock: ZUJKAS_clean_linker_0, # of connection points: 2
#     Edge 39, Type (0, 0), BuildingBlock: ZUJKAS_clean_linker_0, # of connection points: 2
#     Edge 40, Type (0, 0), BuildingBlock: ZUJKAS_clean_linker_0, # of connection points: 2
#     Edge 41, Type (0, 0), BuildingBlock: ZUJKAS_clean_linker_0, # of connection points: 2
#     Edge 42, Type (0, 0), BuildingBlock: ZUJKAS_clean_linker_0, # of connection points: 2
#     Edge 43, Type (0, 0), BuildingBlock: ZUJKAS_clean_linker_0, # of connection points: 2
#     Edge 44, Type (0, 0), BuildingBlock: ZUJKAS_clean_linker_0, # of connection points: 2
#     Edge 45, Type (0, 0), BuildingBlock: ZUJKAS_clean_linker_0, # of connection points: 2
#     Edge 46, Type (0, 0), BuildingBlock: ZUJKAS_clean_linker_0, # of connection points: 2
#     Edge 47, Type (0, 0), BuildingBlock: ZUJKAS_clean_linker_0, # of connection points: 2
#     Edge 48, Type (0, 0), BuildingBlock: ZUJKAS_clean_linker_0, # of connection points: 2
#     Edge 49, Type (0, 0), BuildingBlock: ZUJKAS_clean_linker_0, # of connection points: 2
#     Edge 50, Type (0, 0), BuildingBlock: ZUJKAS_clean_linker_0, # of connection points: 2
#     Edge 51, Type (0, 0), BuildingBlock: ZUJKAS_clean_linker_0, # of connection points: 2
#     Edge 52, Type (0, 0), BuildingBlock: ZUJKAS_clean_linker_0, # of connection points: 2
#     Edge 53, Type (0, 0), BuildingBlock: ZUJKAS_clean_linker_0, # of connection points: 2
#     Edge 54, Type (0, 0), BuildingBlock: ZUJKAS_clean_linker_0, # of connection points: 2
#     Edge 55, Type (0, 0), BuildingBlock: ZUJKAS_clean_linker_0, # of connection points: 2
#     Edge 56, Type (0, 0), BuildingBlock: ZUJKAS_clean_linker_0, # of connection points: 2
#     Edge 57, Type (0, 0), BuildingBlock: ZUJKAS_clean_linker_0, # of connection points: 2
#     Edge 58, Type (0, 0), BuildingBlock: ZUJKAS_clean_linker_0, # of connection points: 2
#     Edge 59, Type (0, 0), BuildingBlock: ZUJKAS_clean_linker_0, # of connection points: 2
#     Edge 60, Type (0, 0), BuildingBlock: ZUJKAS_clean_linker_0, # of connection points: 2
#     Edge 61, Type (0, 0), BuildingBlock: ZUJKAS_clean_linker_0, # of connection points: 2
#     Edge 62, Type (0, 0), BuildingBlock: ZUJKAS_clean_linker_0, # of connection points: 2
# Relax obj value: 0.253
# Max RMSD: 0.282
# Mean RMSD: 0.255
data_MOF--net-fnc--node1-BEQFEK_clean_sbu_0--edge1-ZUJKAS_clean_linker_0
_symmetry_space_group_name_H-M    P1
_symmetry_Int_Tables_number       1
_symmetry_cell_setting            triclinic
loop_
_symmetry_equiv_pos_as_xyz
'x, y, z'
_cell_length_a     119.718
_cell_length_b     130.56157
_cell_length_c     22.824636
_cell_angle_alpha  89.038821
_cell_angle_beta   92.166147
_cell_angle_gamma 128.08233
loop_
_atom_site_label
_atom_site_type_symbol
_atom_site_fract_x
_atom_site_fract_y
_atom_site_fract_z
_atom_type_partial_charge
Co0 Co 0.07593 0.49283 0.00652 0.0
Co1 Co 0.06425 0.49119 0.12889 0.0
C2 C 0.08604 0.48683 0.11069 0.0
O3 O 0.08724 0.48946 0.05626 0.0
O4 O 0.07737 0.48687 0.14097 0.0
C5 C 0.09386 0.50313 0.90329 0.0
O6 O 0.105 0.51113 0.93799 0.0
C7 C 0.06908 0.50004 0.24988 0.0
C8 C 0.04729 0.48916 0.28137 0.0
C9 C 0.06148 0.49772 0.29948 0.0
N10 N 0.05982 0.49321 0.20486 0.0
N11 N 0.04681 0.48684 0.22372 0.0
C12 C 0.08484 0.5079 0.24576 0.0
H13 H 0.08769 0.50643 0.20288 0.0
H14 H 0.08986 0.51838 0.24977 0.0
H15 H 0.08916 0.50533 0.28189 0.0
C16 C 0.08005 0.51784 0.00533 0.0
N17 N 0.07731 0.50734 0.03314 0.0
N18 N 0.0725 0.50658 0.08524 0.0
C19 C 0.0721 0.51656 0.09234 0.0
C20 C 0.07693 0.52405 0.04215 0.0
C21 C 0.08327 0.52065 0.94172 0.0
H22 H 0.07599 0.5116 0.91549 0.0
H23 H 0.09432 0.52436 0.93548 0.0
H24 H 0.08222 0.52809 0.92547 0.0
O25 O 0.05569 0.47716 0.00364 0.0
O26 O 0.04657 0.47662 0.08765 0.0
H27 H 0.05456 0.50881 0.14805 0.0
H28 H 0.06522 0.52622 0.13739 0.0
C29 C 0.06551 0.51794 0.143 0.0
H30 H 0.07178 0.5196 0.18369 0.0
H31 H 0.03761 0.48056 0.19778 0.0
O32 O 0.08167 0.49526 0.92477 0.0
C33 C 0.04517 0.47201 0.0368 0.0
Co34 Co 0.58017 0.63453 0.0662 0.0
Co35 Co 0.58951 0.63186 0.19104 0.0
C36 C 0.58786 0.65362 0.15639 0.0
O37 O 0.58307 0.64961 0.10421 0.0
O38 O 0.59074 0.64766 0.19036 0.0
C39 C 0.56733 0.63632 0.957 0.0
O40 O 0.56496 0.64358 0.98411 0.0
C41 C 0.58226 0.62742 0.3123 0.0
C42 C 0.59871 0.62692 0.35572 0.0
C43 C 0.58692 0.62622 0.36656 0.0
N44 N 0.59075 0.62863 0.27139 0.0
N45 N 0.60054 0.62825 0.29739 0.0
C46 C 0.57052 0.62834 0.29947 0.0
H47 H 0.57098 0.63176 0.25433 0.0
H48 H 0.56013 0.61858 0.30317 0.0
H49 H 0.57107 0.63496 0.3315 0.0
C50 C 0.55584 0.60708 0.08854 0.0
N51 N 0.56773 0.61873 0.10664 0.0
N52 N 0.57207 0.61739 0.15784 0.0
C53 C 0.56325 0.60481 0.17367 0.0
C54 C 0.55264 0.59787 0.13038 0.0
C55 C 0.54898 0.60457 0.02878 0.0
H56 H 0.55639 0.60609 0.9955 0.0
H57 H 0.54684 0.61161 0.02016 0.0
H58 H 0.53893 0.59452 0.02413 0.0
O59 O 0.59874 0.63805 0.05996 0.0
O60 O 0.60556 0.63548 0.14722 0.0
H61 H 0.57688 0.60362 0.23207 0.0
H62 H 0.55879 0.58869 0.22631 0.0
C63 C 0.56554 0.59945 0.22733 0.0
H64 H 0.5628 0.6023 0.26644 0.0
H65 H 0.60866 0.62924 0.27558 0.0
O66 O 0.57321 0.63219 0.98461 0.0
C67 C 0.60758 0.63801 0.0927 0.0
Co68 Co 0.45126 0.05775 0.15352 0.0
Co69 Co 0.43838 0.0448 0.03047 0.0
C70 C 0.45061 0.07273 0.05761 0.0
O71 O 0.45462 0.07263 0.10992 0.0
O72 O 0.44416 0.06263 0.02511 0.0
C73 C 0.46996 0.0715 0.26127 0.0
O74 O 0.48148 0.07919 0.23113 0.0
C75 C 0.44255 0.04578 0.90653 0.0
C76 C 0.42529 0.02589 0.8745 0.0
C77 C 0.43697 0.03805 0.85668 0.0
N78 N 0.43455 0.03862 0.95184 0.0
N79 N 0.42417 0.02674 0.93253 0.0
C80 C 0.4562 0.05932 0.91254 0.0
H81 H 0.46067 0.06119 0.95806 0.0
H82 H 0.46405 0.06088 0.88164 0.0
H83 H 0.45418 0.06637 0.90195 0.0
C84 C 0.46796 0.04814 0.13423 0.0
N85 N 0.45876 0.05037 0.1164 0.0
N86 N 0.45315 0.04482 0.06471 0.0
C87 C 0.45869 0.03899 0.0479 0.0
C88 C 0.46825 0.04093 0.0913 0.0
C89 C 0.47504 0.05148 0.19385 0.0
H90 H 0.46751 0.0495 0.22745 0.0
H91 H 0.48426 0.06196 0.1954 0.0
H92 H 0.4789 0.04578 0.20425 0.0
O93 O 0.43075 0.04391 0.16209 0.0
O94 O 0.42092 0.03374 0.0768 0.0
H95 H 0.44312 0.02381 0.98853 0.0
H96 H 0.46023 0.02721 0.98758 0.0
C97 C 0.45477 0.03158 0.9916 0.0
H98 H 0.45784 0.03828 0.95434 0.0
H99 H 0.41649 0.01918 0.95906 0.0
O100 O 0.4581 0.06297 0.23548 0.0
C101 C 0.41998 0.03504 0.13119 0.0
Co102 Co 0.01348 0.61443 0.09907 0.0
Co103 Co 0.02664 0.62974 0.98324 0.0
C104 C 0.99555 0.61518 0.0102 0.0
O105 O 0.99638 0.61071 0.05871 0.0
O106 O 0.00643 0.62263 0.97939 0.0
C107 C -0.00068 0.60448 0.20522 0.0
O108 O 0.99173 0.60771 0.18155 0.0
C109 C 0.02596 0.62957 0.85739 0.0
C110 C 0.04706 0.64735 0.83406 0.0
C111 C 0.03425 0.63661 0.81025 0.0
N112 N 0.0334 0.63586 0.90687 0.0
N113 N 0.046 0.64654 0.89288 0.0
C114 C 0.01179 0.61635 0.85603 0.0
H115 H 0.01029 0.61112 0.89741 0.0
H116 H 0.01078 0.61053 0.81837 0.0
H117 H 0.0033 0.61742 0.85117 0.0
C118 C 0.02538 0.6016 0.06024 0.0
N119 N 0.02253 0.61001 0.05204 0.0
N120 N 0.02846 0.61667 0.00397 0.0
C121 C 0.0354 0.61275 0.98004 0.0
C122 C 0.03364 0.60305 0.01485 0.0
C123 C 0.02133 0.5933 0.11351 0.0
H124 H 0.02609 0.59964 0.1531 0.0
H125 H 0.00962 0.58689 0.1172 0.0
H126 H 0.02498 0.5873 0.11236 0.0
O127 O 0.0271 0.63306 0.12118 0.0
O128 O 0.03729 0.64437 0.04039 0.0
H129 H 0.05122 0.6289 0.9284 0.0
H130 H 0.04908 0.61413 0.91503 0.0
C131 C 0.04346 0.61815 0.92478 0.0
H132 H 0.03595 0.61568 0.88758 0.0
H133 H 0.05392 0.65314 0.92339 0.0
O134 O 0.0086 0.60545 0.17483 0.0
C135 C 0.03592 0.64384 0.09568 0.0
Co136 Co 0.42272 0.42175 0.14971 0.0
Co137 Co 0.41545 0.42536 0.02223 0.0
C138 C 0.416 0.40318 0.05599 0.0
O139 O 0.41991 0.40699 0.10896 0.0
O140 O 0.4139 0.4094 0.01982 0.0
C141 C 0.43877 0.42328 0.25548 0.0
O142 O 0.44879 0.42544 0.22267 0.0
C143 C 0.42145 0.42894 0.89934 0.0
C144 C 0.41054 0.43664 0.86411 0.0
C145 C 0.41904 0.43333 0.84862 0.0
N146 N 0.41471 0.42958 0.94296 0.0
N147 N 0.4081 0.43411 0.92172 0.0
C148 C 0.43132 0.42559 0.90797 0.0
H149 H 0.4353 0.42729 0.95425 0.0
H150 H 0.44044 0.43147 0.87864 0.0
H151 H 0.42553 0.41517 0.89704 0.0
C152 C 0.44724 0.44978 0.13421 0.0
N153 N 0.43588 0.43807 0.11341 0.0
N154 N 0.43276 0.43947 0.05938 0.0
C155 C 0.44216 0.45203 0.04383 0.0
C156 C 0.45162 0.45895 0.09063 0.0
C157 C 0.45236 0.45259 0.19707 0.0
H158 H 0.44321 0.44688 0.2262 0.0
H159 H 0.45935 0.44982 0.2054 0.0
H160 H 0.45852 0.46308 0.20783 0.0
O161 O 0.40439 0.41862 0.15318 0.0
O162 O 0.39894 0.42154 0.0636 0.0
H163 H 0.43128 0.45573 0.98133 0.0
H164 H 0.45038 0.46805 0.98329 0.0
C165 C 0.44158 0.45748 0.98657 0.0
H166 H 0.44242 0.45249 0.95028 0.0
H167 H 0.40216 0.43569 0.94672 0.0
O168 O 0.42804 0.42178 0.23219 0.0
C169 C 0.39615 0.41893 0.11763 0.0
Co170 Co 0.57728 0.98976 0.03342 0.0
Co171 Co 0.58798 0.00208 0.15837 0.0
C172 C 0.5842 0.97777 0.12206 0.0
O173 O 0.57985 0.9774 0.06983 0.0
O174 O 0.58759 0.9867 0.158 0.0
C175 C 0.56299 0.97356 0.92692 0.0
O176 O 0.56085 0.96357 0.95422 0.0
C177 C 0.58433 -0.00035 0.28296 0.0
C178 C 0.59661 0.01995 0.31459 0.0
C179 C 0.58761 0.00711 0.33253 0.0
N180 N 0.59077 0.00766 0.23747 0.0
N181 N 0.59822 0.0198 0.25652 0.0
C182 C 0.57594 0.98519 0.27838 0.0
H183 H 0.58338 0.98308 0.26971 0.0
H184 H 0.56818 0.9814 0.24078 0.0
H185 H 0.57044 0.98004 0.31894 0.0
C186 C 0.55411 0.9909 0.06076 0.0
N187 N 0.56576 0.99198 0.07672 0.0
N188 N 0.57048 0.99758 0.12865 0.0
C189 C 0.56198 0.00024 0.14752 0.0
C190 C 0.55137 0.99615 0.10508 0.0
C191 C 0.54713 0.98673 0.00089 0.0
H192 H 0.55484 0.99365 0.96806 0.0
H193 H 0.54397 0.97697 0.99065 0.0
H194 H 0.53764 0.98639 -0.00274 0.0
O195 O 0.59599 0.00685 0.02349 0.0
O196 O 0.60392 0.01622 0.11134 0.0
H197 H 0.57515 0.01685 0.2041 0.0
H198 H 0.55634 0.0087 0.20946 0.0
C199 C 0.56444 0.00727 0.20355 0.0
H200 H 0.56395 0.00151 0.24097 0.0
H201 H 0.60411 0.02795 0.22971 0.0
O202 O 0.5693 0.98436 0.95353 0.0
C203 C 0.60539 0.01643 0.05624 0.0
Co204 Co 0.70909 0.80154 0.38487 0.0
Co205 Co 0.69549 0.79521 0.50709 0.0
C206 C 0.72078 0.79587 0.48434 0.0
O207 O 0.72171 0.79923 0.431 0.0
O208 O 0.71108 0.79387 0.51587 0.0
C209 C 0.72746 0.81447 0.28278 0.0
O210 O 0.73842 0.82267 0.31783 0.0
C211 C 0.69917 0.80253 0.62932 0.0
C212 C 0.67777 0.7882 0.66384 0.0
C213 C 0.69164 0.79853 0.68035 0.0
N214 N 0.69018 0.79499 0.5848 0.0
N215 N 0.67736 0.78651 0.60549 0.0
C216 C 0.71488 0.81257 0.62346 0.0
H217 H 0.72062 0.81078 0.65604 0.0
H218 H 0.71809 0.81257 0.57861 0.0
H219 H 0.71804 0.82237 0.63211 0.0
C220 C 0.71073 0.82509 0.39966 0.0
N221 N 0.70791 0.81393 0.41928 0.0
N222 N 0.7016 0.81093 0.46972 0.0
C223 C 0.70001 0.81995 0.4833 0.0
C224 C 0.70588 0.82926 0.43973 0.0
C225 C 0.7166 0.83091 0.34109 0.0
H226 H 0.71079 0.82325 0.30665 0.0
H227 H 0.72794 0.83507 0.34138 0.0
H228 H 0.71577 0.83875 0.3304 0.0
O229 O 0.68969 0.78484 0.37648 0.0
O230 O 0.67927 0.77998 0.46193 0.0
H231 H 0.68274 0.80929 0.542 0.0
H232 H 0.68968 0.82602 0.53165 0.0
C233 C 0.6925 0.81939 0.53576 0.0
H234 H 0.69957 0.82237 0.57522 0.0
H235 H 0.66846 0.7793 0.5802 0.0
O236 O 0.71536 0.8059 0.30368 0.0
C237 C 0.67895 0.77741 0.40801 0.0
Co238 Co 0.26617 0.97683 0.39127 0.0
Co239 Co 0.27251 0.97072 0.51548 0.0
C240 C 0.27604 0.99544 0.48851 0.0
O241 O 0.27154 0.99234 0.43541 0.0
O242 O 0.27691 0.98798 0.5214 0.0
C243 C 0.25251 0.97861 0.28308 0.0
O244 O 0.24326 0.97839 0.31344 0.0
C245 C 0.26676 0.96735 0.63853 0.0
C246 C 0.27575 0.95779 0.67249 0.0
C247 C 0.26865 0.96252 0.68901 0.0
N248 N 0.27252 0.96567 0.59409 0.0
N249 N 0.27793 0.95998 0.61452 0.0
C250 C 0.2583 0.97224 0.63125 0.0
H251 H 0.25447 0.97114 0.58504 0.0
H252 H 0.24912 0.96688 0.6604 0.0
H253 H 0.26509 0.98268 0.64362 0.0
C254 C 0.23869 0.95024 0.4067 0.0
N255 N 0.25155 0.96081 0.42633 0.0
N256 N 0.25441 0.95826 0.47838 0.0
C257 C 0.24345 0.94606 0.49363 0.0
C258 C 0.23314 0.94062 0.44885 0.0
C259 C 0.23257 0.94875 0.3462 0.0
H260 H 0.24101 0.95293 0.31381 0.0
H261 H 0.22803 0.95401 0.34374 0.0
H262 H 0.22402 0.93837 0.33481 0.0
O263 O 0.28302 0.97753 0.38545 0.0
O264 O 0.28779 0.97267 0.4717 0.0
H265 H 0.25254 0.94017 0.5544 0.0
H266 H 0.23332 0.92943 0.55187 0.0
C267 C 0.24298 0.9397 0.54969 0.0
H268 H 0.24301 0.94502 0.58704 0.0
H269 H 0.28301 0.95752 0.5889 0.0
O270 O 0.26163 0.97794 0.30877 0.0
C271 C 0.29048 0.97566 0.41787 0.0
Co272 Co 0.08883 0.3757 0.38812 0.0
Co273 Co 0.09916 0.38883 0.5115 0.0
C274 C 0.06783 0.36937 0.47249 0.0
O275 O 0.07007 0.36697 0.42237 0.0
O276 O 0.07809 0.37759 0.50731 0.0
C277 C 0.07646 0.35962 0.2809 0.0
O278 O 0.06424 0.35191 0.30663 0.0
C279 C 0.09953 0.38397 0.6345 0.0
C280 C 0.11277 0.40352 0.6753 0.0
C281 C 0.10476 0.39037 0.68816 0.0
N282 N 0.10431 0.39289 0.59213 0.0
N283 N 0.1123 0.40458 0.61657 0.0
C284 C 0.0893 0.36958 0.62332 0.0
H285 H 0.08068 0.36485 0.65522 0.0
H286 H 0.08471 0.36738 0.57809 0.0
H287 H 0.09495 0.36535 0.62844 0.0
C288 C 0.10622 0.36756 0.42356 0.0
N289 N 0.10051 0.37351 0.43454 0.0
N290 N 0.10579 0.37985 0.48466 0.0
C291 C 0.11537 0.37843 0.50663 0.0
C292 C 0.11588 0.37051 0.46881 0.0
C293 C 0.10233 0.35914 0.37091 0.0
H294 H 0.09072 0.35309 0.36148 0.0
H295 H 0.10535 0.35269 0.3777 0.0
H296 H 0.10784 0.36542 0.33241 0.0
O297 O 0.0984 0.39454 0.37812 0.0
O298 O 0.10663 0.4046 0.46465 0.0
H299 H 0.13535 0.3876 0.55452 0.0
H300 H 0.12002 0.37975 0.59881 0.0
C301 C 0.12501 0.38569 0.55901 0.0
H302 H 0.1269 0.39507 0.56453 0.0
H303 H 0.11716 0.41324 0.59333 0.0
O304 O 0.08714 0.36937 0.30849 0.0
C305 C 0.10504 0.40487 0.4093 0.0
Co306 Co 0.70329 0.96705 0.38943 0.0
Co307 Co 0.68725 0.95575 0.50513 0.0
C308 C 0.71216 0.9844 0.49048 0.0
O309 O 0.71428 0.98302 0.438 0.0
O310 O 0.70216 0.97476 0.51922 0.0
C311 C 0.71261 0.97908 0.28082 0.0
O312 O 0.70909 0.98598 0.30221 0.0
C313 C 0.68839 0.95213 0.62815 0.0
C314 C 0.66605 0.94028 0.65392 0.0
C315 C 0.67987 0.94707 0.67621 0.0
N316 N 0.68011 0.94874 0.57978 0.0
N317 N 0.66672 0.9415 0.59509 0.0
C318 C 0.7042 0.95994 0.62762 0.0
H319 H 0.70746 0.95868 0.58519 0.0
H320 H 0.70806 0.95703 0.66424 0.0
H321 H 0.70925 0.97039 0.63295 0.0
C322 C 0.70666 0.94661 0.40829 0.0
N323 N 0.70228 0.9534 0.42526 0.0
N324 N 0.69504 0.94824 0.47315 0.0
C325 C 0.69444 0.93789 0.48804 0.0
C326 C 0.70184 0.93656 0.44753 0.0
C327 C 0.71519 0.94971 0.35528 0.0
H328 H 0.70818 0.94659 0.31542 0.0
H329 H 0.72369 0.96038 0.35281 0.0
H330 H 0.72006 0.94472 0.35626 0.0
O331 O 0.6839 0.96147 0.37164 0.0
O332 O 0.67189 0.95271 0.45292 0.0
H333 H 0.67585 0.92753 0.53974 0.0
H334 H 0.68321 0.91909 0.52982 0.0
C335 C 0.68583 0.92876 0.53668 0.0
H336 H 0.69198 0.93291 0.57876 0.0
H337 H 0.65812 0.93787 0.56575 0.0
O338 O 0.71183 0.97068 0.31313 0.0
C339 C 0.67247 0.95584 0.39935 0.0
Co340 Co 0.07303 0.7732 0.38442 0.0
Co341 Co 0.08212 0.77014 0.50886 0.0
C342 C 0.05195 0.76023 0.47439 0.0
O343 O 0.05467 0.76469 0.4225 0.0
O344 O 0.06152 0.76165 0.50817 0.0
C345 C 0.06345 0.77846 0.27476 0.0
O346 O 0.05229 0.77568 0.3008 0.0
C347 C 0.08499 0.77684 0.63085 0.0
C348 C 0.09438 0.76826 0.6728 0.0
C349 C 0.08921 0.775 0.68479 0.0
N350 N 0.08763 0.77154 0.58912 0.0
N351 N 0.09337 0.76651 0.61424 0.0
C352 C 0.07748 0.78258 0.61906 0.0
H353 H 0.0734 0.78088 0.57311 0.0
H354 H 0.08499 0.79325 0.62611 0.0
H355 H 0.06863 0.77844 0.64946 0.0
C356 C 0.09698 0.80084 0.40864 0.0
N357 N 0.08817 0.78829 0.42495 0.0
N358 N 0.09265 0.78697 0.47582 0.0
C359 C 0.10468 0.79862 0.49309 0.0
C360 C 0.10774 0.8078 0.45128 0.0
C361 C 0.09583 0.80571 0.35065 0.0
H362 H 0.0976 0.80118 0.31522 0.0
H363 H 0.08496 0.80274 0.34398 0.0
H364 H 0.10371 0.81643 0.34729 0.0
O365 O 0.07714 0.76069 0.37833 0.0
O366 O 0.08462 0.75874 0.46527 0.0
H367 H 0.11342 0.79253 0.55514 0.0
H368 H 0.12417 0.81 0.54662 0.0
C369 C 0.11318 0.80081 0.548 0.0
H370 H 0.10808 0.80144 0.5858 0.0
H371 H 0.09616 0.76155 0.59167 0.0
O372 O 0.07232 0.77782 0.30304 0.0
C373 C 0.08168 0.75586 0.41092 0.0
Co374 Co 0.23672 0.33254 0.39788 0.0
Co375 Co 0.25129 0.34841 0.51358 0.0
C376 C 0.24306 0.32144 0.49326 0.0
O377 O 0.2373 0.31979 0.44269 0.0
O378 O 0.24877 0.33194 0.5221 0.0
C379 C 0.23334 0.32211 0.28899 0.0
O380 O 0.2431 0.32161 0.31355 0.0
C381 C 0.24958 0.34864 0.63803 0.0
C382 C 0.26717 0.36882 0.66543 0.0
C383 C 0.25634 0.35664 0.68681 0.0
N384 N 0.25618 0.35564 0.59017 0.0
N385 N 0.26668 0.36773 0.60653 0.0
C386 C 0.23653 0.33471 0.63597 0.0
H387 H 0.2307 0.33241 0.59318 0.0
H388 H 0.22944 0.33263 0.67203 0.0
H389 H 0.23965 0.32831 0.64089 0.0
C390 C 0.2157 0.33633 0.42737 0.0
N391 N 0.22771 0.33781 0.43893 0.0
N392 N 0.23413 0.34504 0.48631 0.0
C393 C 0.22648 0.34856 0.50617 0.0
C394 C 0.2145 0.34311 0.46961 0.0
C395 C 0.20554 0.3284 0.37731 0.0
H396 H 0.20481 0.3196 0.37074 0.0
H397 H 0.19482 0.32543 0.38516 0.0
H398 H 0.20957 0.33425 0.33668 0.0
O399 O 0.25621 0.34794 0.37946 0.0
O400 O 0.26691 0.36004 0.45979 0.0
H401 H 0.22602 0.36255 0.55318 0.0
H402 H 0.22814 0.35231 0.59806 0.0
C403 C 0.23112 0.35777 0.55636 0.0
H404 H 0.24281 0.36535 0.55711 0.0
H405 H 0.27357 0.37517 0.57767 0.0
O406 O 0.2276 0.32556 0.32015 0.0
C407 C 0.26696 0.35803 0.40542 0.0
Co408 Co 0.39709 0.14801 0.72187 0.0
Co409 Co 0.38393 0.13876 0.84488 0.0
C410 C 0.41182 0.14441 0.81507 0.0
O411 O 0.4119 0.14774 0.76228 0.0
O412 O 0.40172 0.1408 0.84831 0.0
C413 C 0.41436 0.16141 0.6184 0.0
O414 O 0.42575 0.16511 0.64955 0.0
C415 C 0.38719 0.14579 0.96649 0.0
C416 C 0.36776 0.12874 0.00582 0.0
C417 C 0.38051 0.14085 0.01936 0.0
N418 N 0.37877 0.13708 0.92395 0.0
N419 N 0.3671 0.12694 0.94745 0.0
C420 C 0.40179 0.15811 0.9565 0.0
H421 H 0.40942 0.15943 0.99078 0.0
H422 H 0.40541 0.15813 0.91257 0.0
H423 H 0.40165 0.16651 0.9587 0.0
C424 C 0.39298 0.16773 0.74418 0.0
N425 N 0.39319 0.15797 0.76221 0.0
N426 N 0.38678 0.15354 0.81227 0.0
C427 C 0.38203 0.16014 0.8273 0.0
C428 C 0.38587 0.16942 0.7848 0.0
C429 C 0.39864 0.17467 0.68724 0.0
H430 H 0.40923 0.17723 0.68097 0.0
H431 H 0.39956 0.18367 0.68594 0.0
H432 H 0.39141 0.16811 0.65074 0.0
O433 O 0.37918 0.13 0.71163 0.0
O434 O 0.3692 0.12304 0.79826 0.0
H435 H 0.36514 0.14544 0.88155 0.0
H436 H 0.36505 0.15898 0.86628 0.0
C437 C 0.37196 0.15613 0.87561 0.0
H438 H 0.37812 0.16094 0.91707 0.0
H439 H 0.35891 0.11866 0.92398 0.0
O440 O 0.40233 0.15458 0.64174 0.0
C441 C 0.36911 0.12126 0.74346 0.0
Co442 Co 0.91684 0.33378 0.70198 0.0
Co443 Co 0.92349 0.32489 0.81652 0.0
C444 C 0.93068 0.35168 0.80125 0.0
O445 O 0.92479 0.34953 0.75052 0.0
O446 O 0.93081 0.34307 0.82721 0.0
C447 C 0.92061 0.34397 0.59063 0.0
O448 O 0.9334 0.35251 0.6141 0.0
C449 C 0.91958 0.32183 0.93996 0.0
C450 C 0.9288 0.31223 0.96976 0.0
C451 C 0.92263 0.31762 0.98961 0.0
N452 N 0.92393 0.31928 0.89312 0.0
N453 N 0.92938 0.31346 0.91089 0.0
C454 C 0.9122 0.32782 0.93614 0.0
H455 H 0.90647 0.32551 0.89311 0.0
H456 H 0.90463 0.32429 0.97201 0.0
H457 H 0.92021 0.33855 0.93995 0.0
C458 C 0.88847 0.30863 0.7179 0.0
N459 N 0.90176 0.31827 0.73755 0.0
N460 N 0.90474 0.31433 0.78464 0.0
C461 C 0.89352 0.30202 0.79637 0.0
C462 C 0.88277 0.29795 0.75445 0.0
C463 C 0.88191 0.30929 0.66235 0.0
H464 H 0.88429 0.31894 0.65908 0.0
H465 H 0.87023 0.30152 0.66047 0.0
H466 H 0.8866 0.30815 0.62441 0.0
O467 O 0.93209 0.33238 0.68618 0.0
O468 O 0.93628 0.32483 0.76484 0.0
H469 H 0.88572 0.28322 0.8323 0.0
H470 H 0.89282 0.29621 0.88503 0.0
C471 C 0.89411 0.29376 0.84075 0.0
H472 H 0.90461 0.29588 0.84028 0.0
H473 H 0.93374 0.31059 0.88311 0.0
O474 O 0.9108 0.3353 0.62323 0.0
C475 C 0.93864 0.32864 0.71185 0.0
Co476 Co 0.76949 0.7156 0.83 0.0
Co477 Co 0.75557 0.70328 0.70711 0.0
C478 C 0.76916 0.73146 0.74001 0.0
O479 O 0.77316 0.73115 0.79202 0.0
O480 O 0.76242 0.72148 0.70673 0.0
C481 C 0.78556 0.72995 0.93853 0.0
O482 O 0.79026 0.74092 0.91237 0.0
C483 C 0.76154 0.7045 0.58545 0.0
C484 C 0.74095 0.6886 0.54365 0.0
C485 C 0.75501 0.69865 0.53167 0.0
N486 N 0.75186 0.69815 0.62702 0.0
N487 N 0.73957 0.68859 0.60201 0.0
C488 C 0.77648 0.71651 0.59731 0.0
H489 H 0.77951 0.72403 0.56396 0.0
H490 H 0.7778 0.72047 0.64167 0.0
H491 H 0.78383 0.71407 0.59527 0.0
C492 C 0.78584 0.7063 0.80179 0.0
N493 N 0.77633 0.70833 0.78743 0.0
N494 N 0.76972 0.70228 0.73778 0.0
C495 C 0.77457 0.69596 0.71943 0.0
C496 C 0.78504 0.69839 0.75911 0.0
C497 C 0.79527 0.71168 0.85589 0.0
H498 H 0.79919 0.72177 0.86398 0.0
H499 H 0.80445 0.71164 0.85189 0.0
H500 H 0.78905 0.70568 0.89402 0.0
O501 O 0.74879 0.70221 0.83957 0.0
O502 O 0.73825 0.6926 0.75385 0.0
H503 H 0.75664 0.68192 0.66323 0.0
H504 H 0.76913 0.67867 0.67703 0.0
C505 C 0.76805 0.68645 0.66933 0.0
H506 H 0.77356 0.69159 0.6286 0.0
H507 H 0.7302 0.68227 0.62451 0.0
O508 O 0.77745 0.71927 0.91052 0.0
C509 C 0.73768 0.6938 0.80876 0.0
Co510 Co 0.30781 0.25141 0.81273 0.0
Co511 Co 0.32409 0.26261 0.69728 0.0
C512 C 0.29578 0.25701 0.71465 0.0
O513 O 0.29432 0.25256 0.76616 0.0
O514 O 0.30668 0.2611 0.68575 0.0
C515 C 0.2955 0.24837 0.91894 0.0
O516 O 0.29516 0.25745 0.8957 0.0
C517 C 0.32377 0.25937 0.57389 0.0
C518 C 0.34547 0.27552 0.54755 0.0
C519 C 0.33214 0.26518 0.52567 0.0
N520 N 0.33164 0.26603 0.62195 0.0
N521 N 0.34466 0.27565 0.6063 0.0
C522 C 0.30862 0.24734 0.57513 0.0
H523 H 0.30641 0.24245 0.61808 0.0
H524 H 0.30624 0.24052 0.53939 0.0
H525 H 0.30151 0.25003 0.56894 0.0
C526 C 0.31206 0.23177 0.7905 0.0
N527 N 0.31261 0.24202 0.77397 0.0
N528 N 0.31999 0.24705 0.72636 0.0
C529 C 0.3245 0.24027 0.71116 0.0
C530 C 0.31957 0.2303 0.75118 0.0
C531 C 0.3053 0.22416 0.84509 0.0
H532 H 0.3121 0.23011 0.8837 0.0
H533 H 0.29483 0.22199 0.84923 0.0
H534 H 0.30388 0.21492 0.84479 0.0
O535 O 0.32543 0.26916 0.83262 0.0
O536 O 0.33754 0.27726 0.75108 0.0
H537 H 0.34306 0.25524 0.66527 0.0
H538 H 0.34061 0.24019 0.67101 0.0
C539 C 0.33505 0.24449 0.66472 0.0
H540 H 0.32945 0.24143 0.62117 0.0
H541 H 0.35286 0.28243 0.63542 0.0
O542 O 0.2998 0.24346 0.88848 0.0
C543 C 0.33631 0.2783 0.8054 0.0
Co544 Co 0.76712 0.12442 0.79822 0.0
Co545 Co 0.75339 0.12194 0.67545 0.0
C546 C 0.76497 0.10733 0.70919 0.0
O547 O 0.76937 0.1123 0.76032 0.0
O548 O 0.7588 0.11033 0.67476 0.0
C549 C 0.77853 0.12254 0.9074 0.0
O550 O 0.77606 0.11218 0.88387 0.0
C551 C 0.75723 0.12485 0.5521 0.0
C552 C 0.73802 0.12164 0.51456 0.0
C553 C 0.75054 0.12398 0.49969 0.0
N554 N 0.74904 0.12292 0.59602 0.0
N555 N 0.73756 0.12106 0.57361 0.0
C556 C 0.77158 0.12814 0.56089 0.0
H557 H 0.77614 0.13238 0.60515 0.0
H558 H 0.77886 0.13506 0.52695 0.0
H559 H 0.77059 0.11916 0.55701 0.0
C560 C 0.7849 0.15232 0.76779 0.0
N561 N 0.7747 0.13968 0.75451 0.0
N562 N 0.7685 0.13874 0.70396 0.0
C563 C 0.77442 0.15078 0.6836 0.0
C564 C 0.78504 0.1598 0.72337 0.0
C565 C 0.79426 0.15705 0.82206 0.0
H566 H 0.79745 0.15079 0.83127 0.0
H567 H 0.80392 0.16729 0.81756 0.0
H568 H 0.78825 0.15637 0.85975 0.0
O569 O 0.74663 0.11523 0.81016 0.0
O570 O 0.73652 0.11382 0.7239 0.0
H571 H 0.77229 0.16353 0.63148 0.0
H572 H 0.77356 0.1526 0.59071 0.0
C573 C 0.7691 0.15355 0.63007 0.0
H574 H 0.75736 0.14643 0.62616 0.0
H575 H 0.72935 0.1192 0.59845 0.0
O576 O 0.77597 0.12919 0.87733 0.0
C577 C 0.73573 0.11169 0.77886 0.0
Co578 Co 0.88831 0.64047 0.70582 0.0
Co579 Co 0.89934 0.65624 0.82242 0.0
C580 C 0.89689 0.63185 0.80463 0.0
O581 O 0.89172 0.62966 0.75249 0.0
O582 O 0.90013 0.64162 0.83381 0.0
C583 C 0.88741 0.63108 0.59634 0.0
O584 O 0.89883 0.63306 0.61939 0.0
C585 C 0.8955 0.656 0.94516 0.0
C586 C 0.91149 0.67642 0.9741 0.0
C587 C 0.90111 0.66397 0.99424 0.0
N588 N 0.90233 0.66328 0.89828 0.0
N589 N 0.91183 0.67552 0.91548 0.0
C590 C 0.8834 0.64172 0.94197 0.0
H591 H 0.8781 0.63899 0.89783 0.0
H592 H 0.87558 0.63899 0.97577 0.0
H593 H 0.8875 0.63617 0.94997 0.0
C594 C 0.86439 0.64111 0.725 0.0
N595 N 0.87654 0.64328 0.74286 0.0
N596 N 0.88153 0.65045 0.79079 0.0
C597 C 0.87284 0.65322 0.80479 0.0
C598 C 0.8616 0.64732 0.76375 0.0
C599 C 0.85614 0.63389 0.67001 0.0
H600 H 0.85542 0.62504 0.66576 0.0
H601 H 0.84529 0.63106 0.66979 0.0
H602 H 0.8618 0.64017 0.63171 0.0
O603 O 0.90683 0.65749 0.68915 0.0
O604 O 0.91466 0.66933 0.77086 0.0
H605 H 0.88798 0.67095 0.85292 0.0
H606 H 0.87074 0.66705 0.84304 0.0
C607 C 0.8764 0.66289 0.85123 0.0
H608 H 0.87337 0.65801 0.89443 0.0
H609 H 0.91872 0.68318 0.88752 0.0
O610 O 0.88014 0.63265 0.62836 0.0
C611 C 0.91608 0.66803 0.71709 0.0
H612 H 0.11454 0.52418 0.83934 0.0
H613 H 0.11315 0.52748 0.7336 0.0
H614 H 0.07351 0.4887 0.7176 0.0
H615 H 0.07475 0.48532 0.8222 0.0
H616 H 0.10712 0.50971 0.62636 0.0
H617 H 0.06636 0.51615 0.66737 0.0
H618 H 0.07893 0.5187 0.72355 0.0
H619 H 0.06365 0.50248 0.70368 0.0
C620 C 0.10571 0.51628 0.81292 0.0
C621 C 0.09467 0.50455 0.83901 0.0
C622 C 0.10492 0.51819 0.75276 0.0
C623 C 0.09312 0.50839 0.71845 0.0
C624 C 0.0826 0.49641 0.74376 0.0
H625 H 0.0493 0.4829 0.39596 0.0
H626 H 0.05879 0.48807 0.49697 0.0
C627 C 0.08335 0.49451 0.80347 0.0
C628 C 0.09101 0.51066 0.65699 0.0
H629 H 0.06761 0.51103 0.5689 0.0
C630 C 0.09875 0.51034 0.61352 0.0
C631 C 0.08008 0.51149 0.64089 0.0
C632 C 0.07183 0.51235 0.68628 0.0
C633 C 0.09514 0.50992 0.55386 0.0
C634 C 0.08359 0.50991 0.53797 0.0
C635 C 0.07642 0.511 0.58145 0.0
C636 C 0.07779 0.50731 0.47718 0.0
C637 C 0.10306 0.50869 0.50831 0.0
C638 C 0.08519 0.51659 0.43319 0.0
C639 C 0.07972 0.5137 0.37544 0.0
C640 C 0.06687 0.50144 0.36091 0.0
C641 C 0.05926 0.4924 0.4057 0.0
C642 C 0.06469 0.49531 0.46332 0.0
H643 H 0.11096 0.50771 0.52827 0.0
H644 H 0.09548 0.5001 0.47966 0.0
H645 H 0.10871 0.51744 0.48012 0.0
H646 H 0.09517 0.52602 0.44352 0.0
H647 H 0.08553 0.5211 0.34254 0.0
H648 H 0.55753 0.64549 0.8776 0.0
H649 H 0.55451 0.64197 0.77091 0.0
H650 H 0.56731 0.61753 0.78758 0.0
H651 H 0.5699 0.62062 0.89285 0.0
H652 H 0.57499 0.64937 0.69831 0.0
H653 H 0.53457 0.59639 0.67364 0.0
H654 H 0.53739 0.60474 0.74144 0.0
H655 H 0.54801 0.59969 0.72573 0.0
C656 C 0.55939 0.63914 0.85846 0.0
C657 C 0.56402 0.63339 0.89364 0.0
C658 C 0.55766 0.63714 0.79762 0.0
C659 C 0.56043 0.62929 0.77137 0.0
C660 C 0.56467 0.62329 0.80681 0.0
H661 H 0.60271 0.63822 0.4665 0.0
H662 H 0.59441 0.63898 0.56138 0.0
C663 C 0.56633 0.62523 0.86719 0.0
C664 C 0.56069 0.6285 0.70689 0.0
H665 H 0.55255 0.60706 0.59822 0.0
C666 C 0.56979 0.64011 0.67599 0.0
C667 C 0.55368 0.61644 0.67727 0.0
C668 C 0.54274 0.60364 0.70628 0.0
C669 C 0.57301 0.63998 0.61774 0.0
C670 C 0.5673 0.62794 0.59049 0.0
C671 C 0.55725 0.61631 0.61966 0.0
C672 C 0.57223 0.62721 0.53331 0.0
C673 C 0.58272 0.65278 0.5865 0.0
C674 C 0.56244 0.61971 0.48718 0.0
C675 C 0.56714 0.61902 0.43344 0.0
C676 C 0.58172 0.62593 0.4247 0.0
C677 C 0.59143 0.63295 0.47173 0.0
C678 C 0.58672 0.63355 0.52564 0.0
H679 H 0.58196 0.6602 0.60412 0.0
H680 H 0.59388 0.65649 0.59356 0.0
H681 H 0.5802 0.65168 0.53862 0.0
H682 H 0.55118 0.61447 0.49263 0.0
H683 H 0.55933 0.61299 0.39907 0.0
H684 H 0.44088 0.02463 0.78135 0.0
H685 H 0.45087 0.03138 0.6835 0.0
H686 H 0.45473 0.06635 0.69992 0.0
H687 H 0.44519 0.05981 0.79783 0.0
H688 H 0.44097 0.0349 0.58907 0.0
H689 H 0.49313 0.08171 0.64203 0.0
H690 H 0.482 0.07017 0.69789 0.0
H691 H 0.47925 0.08152 0.67034 0.0
C692 C 0.44398 0.03379 0.76396 0.0
C693 C 0.44252 0.04182 0.7972 0.0
C694 C 0.44974 0.03767 0.70837 0.0
C695 C 0.45397 0.04958 0.68505 0.0
C696 C 0.45213 0.05741 0.71786 0.0
H697 H 0.45001 0.0671 0.33249 0.0
H698 H 0.44819 0.06251 0.43716 0.0
C699 C 0.44658 0.05362 0.77361 0.0
C700 C 0.45912 0.05333 0.62452 0.0
H701 H 0.48415 0.07913 0.54152 0.0
C702 C 0.45056 0.04449 0.57889 0.0
C703 C 0.4718 0.06574 0.61102 0.0
C704 C 0.48214 0.07525 0.65808 0.0
C705 C 0.45383 0.04801 0.52015 0.0
C706 C 0.46574 0.06083 0.50665 0.0
C707 C 0.47485 0.0694 0.55207 0.0
C708 C 0.46817 0.06564 0.44577 0.0
C709 C 0.44432 0.038 0.47304 0.0
C710 C 0.4805 0.06983 0.41699 0.0
C711 C 0.4817 0.07275 0.35707 0.0
C712 C 0.47053 0.0714 0.3257 0.0
C713 C 0.45869 0.06808 0.35569 0.0
C714 C 0.4576 0.06536 0.4153 0.0
H715 H 0.43882 0.02795 0.48961 0.0
H716 H 0.43606 0.03898 0.45878 0.0
H717 H 0.45042 0.03934 0.43427 0.0
H718 H 0.48883 0.07023 0.4401 0.0
H719 H 0.49088 0.07523 0.33466 0.0
H720 H 0.00956 0.62801 0.75271 0.0
H721 H 0.00254 0.62054 0.65072 0.0
H722 H 0.04346 0.63004 0.62465 0.0
H723 H 0.05055 0.63749 0.7272 0.0
H724 H 0.01941 0.63658 0.54425 0.0
H725 H 0.01093 0.58981 0.57472 0.0
H726 H 0.01002 0.59813 0.63461 0.0
H727 H 0.02689 0.60439 0.60628 0.0
C728 C 0.01702 0.62842 0.7253 0.0
C729 C 0.0305 0.63309 0.74776 0.0
C730 C 0.01302 0.62422 0.66719 0.0
C731 C 0.02241 0.62456 0.63087 0.0
C732 C 0.03604 0.62956 0.65259 0.0
H733 H 0.01826 0.60365 0.27143 0.0
H734 H 0.02258 0.60703 0.37725 0.0
C735 C 0.04009 0.63388 0.71073 0.0
C736 C 0.01797 0.61988 0.56984 0.0
H737 H 0.00766 0.59477 0.47869 0.0
C738 C 0.0168 0.62743 0.52976 0.0
C739 C 0.01465 0.60798 0.55161 0.0
C740 C 0.01558 0.59951 0.59389 0.0
C741 C 0.01258 0.62348 0.47115 0.0
C742 C 0.00903 0.61145 0.45288 0.0
C743 C 0.01023 0.6039 0.4931 0.0
C744 C 0.00476 0.60696 0.39131 0.0
C745 C 0.01237 0.63241 0.42901 0.0
C746 C 0.99282 0.60504 0.36488 0.0
C747 C 0.99037 0.6032 0.3043 0.0
C748 C -0.00024 0.60313 0.26946 0.0
C749 C 0.01089 0.60377 0.29695 0.0
C750 C 0.0134 0.60571 0.35745 0.0
H751 H 0.01868 0.6425 0.44654 0.0
H752 H 0.01664 0.63268 0.38615 0.0
H753 H 0.00126 0.62878 0.42138 0.0
H754 H 0.98582 0.60562 0.39069 0.0
H755 H 0.98159 0.60256 0.28452 0.0
H756 H 0.41794 0.40984 0.33297 0.0
H757 H 0.41958 0.41443 0.4374 0.0
H758 H 0.46485 0.44418 0.42735 0.0
H759 H 0.4633 0.43937 0.32214 0.0
H760 H 0.45593 0.42918 0.53346 0.0
H761 H 0.42635 0.44829 0.48366 0.0
H762 H 0.41719 0.43213 0.45508 0.0
H763 H 0.43424 0.44526 0.42754 0.0
C764 C 0.42829 0.41717 0.35327 0.0
C765 C 0.44048 0.42434 0.3197 0.0
C766 C 0.4292 0.41983 0.41274 0.0
C767 C 0.44227 0.42988 0.43945 0.0
C768 C 0.45466 0.43647 0.40714 0.0
H769 H 0.43091 0.45379 0.774 0.0
H770 H 0.44013 0.45565 0.67689 0.0
C771 C 0.45377 0.43368 0.34735 0.0
C772 C 0.44255 0.43387 0.49994 0.0
H773 H 0.42629 0.44222 0.58378 0.0
C774 C 0.44968 0.43226 0.54462 0.0
C775 C 0.43475 0.43829 0.51407 0.0
C776 C 0.42783 0.44124 0.46744 0.0
C777 C 0.44831 0.43401 0.60373 0.0
C778 C 0.43927 0.43709 0.6181 0.0
C779 C 0.43304 0.43965 0.573 0.0
C780 C 0.43508 0.4366 0.67897 0.0
C781 C 0.45641 0.43236 0.65002 0.0
C782 C 0.42903 0.42525 0.71199 0.0
C783 C 0.42392 0.42425 0.76735 0.0
C784 C 0.42454 0.43449 0.79027 0.0
C785 C 0.43036 0.44578 0.75708 0.0
C786 C 0.43569 0.44687 0.70193 0.0
H787 H 0.4665 0.43512 0.6329 0.0
H788 H 0.4589 0.43832 0.6897 0.0
H789 H 0.44993 0.42197 0.66278 0.0
H790 H 0.42787 0.41698 0.69431 0.0
H791 H 0.41912 0.4153 0.79153 0.0
H792 H 0.55402 0.954 0.84742 0.0
H793 H 0.55247 0.95529 0.74027 0.0
H794 H 0.5635 0.99344 0.75742 0.0
H795 H 0.56447 0.99204 0.86317 0.0
H796 H 0.54464 0.98018 0.66908 0.0
H797 H 0.58924 0.97763 0.65504 0.0
H798 H 0.57321 0.96361 0.68499 0.0
H799 H 0.58334 0.97886 0.72416 0.0
C800 C 0.55581 0.96252 0.82821 0.0
C801 C 0.55969 0.97304 0.86361 0.0
C802 C 0.55502 0.96328 0.7671 0.0
C803 C 0.55825 0.97461 0.74097 0.0
C804 C 0.56106 0.98464 0.77658 0.0
H805 H 0.60275 0.01574 0.43588 0.0
H806 H 0.59397 0.00693 0.53373 0.0
C807 C 0.56171 0.98385 0.83719 0.0
C808 C 0.56016 0.97687 0.6772 0.0
H809 H 0.58238 0.98274 0.56941 0.0
C810 C 0.55276 0.98058 0.64688 0.0
C811 C 0.57092 0.97756 0.64884 0.0
C812 C 0.57973 0.97431 0.67985 0.0
C813 C 0.55629 0.98559 0.58997 0.0
C814 C 0.56719 0.98646 0.56203 0.0
C815 C 0.57409 0.98213 0.59123 0.0
C816 C 0.57214 0.99236 0.50361 0.0
C817 C 0.54886 0.99057 0.56184 0.0
C818 C 0.56272 0.98729 0.45469 0.0
C819 C 0.56768 0.9925 0.3993 0.0
C820 C 0.5822 0.00251 0.39169 0.0
C821 C 0.59154 0.0079 0.44077 0.0
C822 C 0.58655 0.00283 0.49639 0.0
H823 H 0.54379 0.99253 0.59484 0.0
H824 H 0.55638 -0.00036 0.53713 0.0
H825 H 0.54039 0.98311 0.53075 0.0
H826 H 0.55161 0.97914 0.45906 0.0
H827 H 0.5602 0.98853 0.3622 0.0
H828 H 0.68449 0.78314 0.77533 0.0
H829 H 0.69514 0.78971 0.87453 0.0
H830 H 0.72251 0.82988 0.82131 0.0
H831 H 0.71145 0.82342 0.72276 0.0
H832 H 0.72434 0.80312 0.90437 0.0
H833 H 0.70529 0.83065 0.97202 0.0
H834 H 0.69749 0.81963 0.90995 0.0
H835 H 0.71444 0.83536 0.90427 0.0
C836 C 0.69264 0.79339 0.78501 0.0
C837 C 0.69737 0.80275 0.74103 0.0
C838 C 0.69878 0.79712 0.84147 0.0
C839 C 0.70964 0.81027 0.85507 0.0
C840 C 0.71412 0.81969 0.8117 0.0
H841 H 0.74581 0.83606 0.21631 0.0
H842 H 0.74516 0.83737 0.10851 0.0
C843 C 0.70795 0.81596 0.75516 0.0
C844 C 0.71638 0.81394 0.91451 0.0
H845 H 0.71866 0.82853 0.04191 0.0
C846 C 0.72328 0.80883 0.93423 0.0
C847 C 0.71512 0.82153 0.95302 0.0
C848 C 0.70762 0.82706 0.93416 0.0
C849 C 0.72832 0.81057 0.99244 0.0
C850 C 0.7263 0.81747 0.0318 0.0
C851 C 0.72023 0.82329 0.01129 0.0
C852 C 0.72808 0.81681 0.09572 0.0
C853 C 0.73528 0.80456 0.01208 0.0
C854 C 0.71874 0.80485 0.12356 0.0
C855 C 0.71898 0.80411 0.18438 0.0
C856 C 0.72862 0.81532 0.21862 0.0
C857 C 0.73836 0.82727 0.19077 0.0
C858 C 0.73798 0.82803 0.12948 0.0
H859 H 0.73978 0.80302 0.97463 0.0
H860 H 0.74387 0.81076 0.04564 0.0
H861 H 0.72721 0.79494 0.03189 0.0
H862 H 0.7109 0.79613 0.09823 0.0
H863 H 0.71137 0.79477 0.20472 0.0
H864 H 0.2553 0.94259 0.76706 0.0
H865 H 0.24765 0.94276 0.8652 0.0
H866 H 0.26538 0.98304 0.84298 0.0
H867 H 0.27262 0.98275 0.745 0.0
H868 H 0.26281 0.95616 0.95744 0.0
H869 H 0.22777 0.96925 0.90447 0.0
H870 H 0.23384 0.96421 0.84886 0.0
H871 H 0.24478 0.98091 0.87365 0.0
C872 C 0.2574 0.95141 0.78322 0.0
C873 C 0.26427 0.96258 0.74834 0.0
C874 C 0.25299 0.9515 0.83897 0.0
C875 C 0.25554 0.9628 0.86078 0.0
C876 C 0.26273 0.97404 0.82626 0.0
H877 H 0.27424 0.98986 0.20982 0.0
H878 H 0.27292 0.98516 0.1057 0.0
C879 C 0.26695 0.9739 0.77039 0.0
C880 C 0.25192 0.96332 0.92151 0.0
H881 H 0.23812 0.97449 0.00378 0.0
C882 C 0.25717 0.95993 0.96741 0.0
C883 C 0.24428 0.96797 0.93479 0.0
C884 C 0.23721 0.97064 0.88769 0.0
C885 C 0.25582 0.96186 0.02605 0.0
C886 C 0.24944 0.96773 0.03908 0.0
C887 C 0.24331 0.97029 0.99355 0.0
C888 C 0.24995 0.97198 0.09943 0.0
C889 C 0.26147 0.9578 0.07349 0.0
C890 C 0.23746 0.96686 0.12921 0.0
C891 C 0.23821 0.96979 0.18872 0.0
C892 C 0.25146 0.97779 0.21872 0.0
C893 C 0.26391 0.98357 0.18765 0.0
C894 C 0.26316 0.98081 0.1284 0.0
H895 H 0.26159 0.94984 0.05805 0.0
H896 H 0.27257 0.96621 0.08578 0.0
H897 H 0.25504 0.95448 0.11325 0.0
H898 H 0.22717 0.96013 0.10728 0.0
H899 H 0.22847 0.96516 0.21199 0.0
H900 H 0.10135 0.36849 0.72584 0.0
H901 H 0.09308 0.35791 0.82058 0.0
H902 H 0.09391 0.38946 0.88177 0.0
H903 H 0.10114 0.3996 0.78542 0.0
H904 H 0.10442 0.36476 0.92558 0.0
H905 H 0.05481 0.35907 0.92623 0.0
H906 H 0.06502 0.36363 0.86128 0.0
H907 H 0.06958 0.37578 0.91482 0.0
C908 C 0.09932 0.37297 0.75869 0.0
C909 C 0.10127 0.38458 0.74727 0.0
C910 C 0.09479 0.36699 0.8132 0.0
C911 C 0.09236 0.37264 0.85757 0.0
C912 C 0.09514 0.38465 0.84738 0.0
H913 H 0.10045 0.37389 0.21854 0.0
H914 H 0.10252 0.37333 0.11381 0.0
C915 C 0.09948 0.39053 0.79262 0.0
C916 C 0.08754 0.36633 0.91546 0.0
H917 H 0.06444 0.35904 0.02167 0.0
C918 C 0.0955 0.36327 0.94617 0.0
C919 C 0.07559 0.3639 0.94166 0.0
C920 C 0.06567 0.36562 0.9089 0.0
C921 C 0.09255 0.35888 0.00413 0.0
C922 C 0.08167 0.35796 0.03259 0.0
C923 C 0.07296 0.35996 0.00028 0.0
C924 C 0.08046 0.35685 0.09707 0.0
C925 C 0.10136 0.35558 0.0346 0.0
C926 C 0.06728 0.34787 0.12287 0.0
C927 C 0.06597 0.34834 0.18329 0.0
C928 C 0.07782 0.35785 0.21854 0.0
C929 C 0.09108 0.36645 0.19276 0.0
C930 C 0.09234 0.36603 0.13272 0.0
H931 H 0.10449 0.35145 0.00298 0.0
H932 H 0.11126 0.3646 0.05333 0.0
H933 H 0.09556 0.34849 0.07046 0.0
H934 H 0.05794 0.34078 0.09601 0.0
H935 H 0.05562 0.34158 0.20192 0.0
H936 H 0.71782 0.96445 0.22211 0.0
H937 H 0.71501 0.96037 0.11672 0.0
H938 H 0.708 0.98882 0.09009 0.0
H939 H 0.71057 0.99285 0.19571 0.0
H940 H 0.686 0.96405 0.04684 0.0
H941 H 0.73818 0.98013 0.97224 0.0
H942 H 0.73188 0.96983 0.0355 0.0
H943 H 0.73624 0.98566 0.04036 0.0
C944 C 0.71604 0.9701 0.19377 0.0
C945 C 0.71422 0.97886 0.21725 0.0
C946 C 0.71452 0.96779 0.1335 0.0
C947 C 0.71131 0.9743 0.09584 0.0
C948 C 0.71047 0.98371 0.11869 0.0
H949 H 0.70068 0.97095 0.72244 0.0
H950 H 0.7083 0.97667 0.82494 0.0
C951 C 0.71198 0.98602 0.17899 0.0
C952 C 0.70704 0.97012 0.03411 0.0
H953 H 0.71837 0.96702 0.90564 0.0
C954 C 0.69308 0.96475 0.0158 0.0
C955 C 0.71632 0.97102 0.99413 0.0
C956 C 0.73154 0.97707 0.01126 0.0
C957 C 0.68813 0.96026 0.95827 0.0
C958 C 0.69734 0.96096 0.91851 0.0
C959 C 0.71131 0.96635 0.93671 0.0
C960 C 0.693 0.95708 0.85656 0.0
C961 C 0.67323 0.95508 0.94012 0.0
C962 C 0.68189 0.94412 0.84055 0.0
C963 C 0.67758 0.94079 0.78161 0.0
C964 C 0.6845 0.95034 0.73825 0.0
C965 C 0.69557 0.96328 0.75463 0.0
C966 C 0.69984 0.9666 0.81323 0.0
H967 H 0.66857 0.95763 0.97244 0.0
H968 H 0.67305 0.95893 0.89664 0.0
H969 H 0.66637 0.94431 0.93653 0.0
H970 H 0.67655 0.93664 0.87359 0.0
H971 H 0.66894 0.93077 0.76987 0.0
H972 H 0.08161 0.76006 0.78197 0.0
H973 H 0.07588 0.76364 0.87732 0.0
H974 H 0.08534 0.79955 0.81531 0.0
H975 H 0.09209 0.7965 0.72161 0.0
H976 H 0.09564 0.80271 0.92153 0.0
H977 H 0.04013 0.75791 0.91741 0.0
H978 H 0.0519 0.75402 0.90755 0.0
H979 H 0.05087 0.76367 0.85353 0.0
C980 C 0.08254 0.76875 0.7888 0.0
C981 C 0.08678 0.77774 0.7435 0.0
C982 C 0.07905 0.77069 0.84296 0.0
C983 C 0.07959 0.78159 0.85256 0.0
C984 C 0.08447 0.7909 0.80832 0.0
H985 H 0.0456 0.77817 0.19378 0.0
H986 H 0.04889 0.78171 0.08771 0.0
C987 C 0.08814 0.78904 0.7544 0.0
C988 C 0.07567 0.78351 0.90981 0.0
H989 H 0.05064 0.76734 0.01366 0.0
C990 C 0.08568 0.79507 0.94122 0.0
C991 C 0.06248 0.77378 0.93481 0.0
C992 C 0.05068 0.76173 0.90117 0.0
C993 C 0.08332 0.79669 -0.0012 0.0
C994 C 0.07085 0.78631 0.02613 0.0
C995 C 0.06033 0.77522 0.99307 0.0
C996 C 0.06946 0.78591 0.09042 0.0
C997 C 0.09442 0.80938 0.03023 0.0
C998 C 0.07991 0.78713 0.12686 0.0
C999 C 0.0781 0.78518 0.18686 0.0
C1000 C 0.06565 0.78174 0.21189 0.0
C1001 C 0.0553 0.78082 0.17573 0.0
C1002 C 0.05717 0.78284 0.11526 0.0
H1003 H 0.09972 0.81762 -0.00101 0.0
H1004 H 0.08977 0.81138 0.06517 0.0
H1005 H 0.10271 0.80897 0.0504 0.0
H1006 H 0.08927 0.78908 0.10863 0.0
H1007 H 0.08632 0.78599 0.21331 0.0
H1008 H 0.25666 0.3705 0.77582 0.0
H1009 H 0.25089 0.36387 0.87864 0.0
H1010 H 0.24379 0.328 0.83991 0.0
H1011 H 0.24979 0.33465 0.73825 0.0
H1012 H 0.22161 0.32542 0.90469 0.0
H1013 H 0.27631 0.36149 0.00013 0.0
H1014 H 0.26943 0.36777 0.95313 0.0
H1015 H 0.27287 0.35739 0.92299 0.0
C1016 C 0.2539 0.36123 0.78951 0.0
C1017 C 0.25329 0.35293 0.74889 0.0
C1018 C 0.2506 0.35746 0.84797 0.0
C1019 C 0.24684 0.34542 0.86643 0.0
C1020 C 0.24648 0.33724 0.82614 0.0
H1021 H 0.24621 0.31752 0.20927 0.0
H1022 H 0.24775 0.3219 0.1043 0.0
C1023 C 0.24979 0.34101 0.76798 0.0
C1024 C 0.2434 0.34126 0.92788 0.0
H1025 H 0.25825 0.34743 0.06578 0.0
C1026 C 0.22957 0.33025 0.94011 0.0
C1027 C 0.25389 0.34754 0.97348 0.0
C1028 C 0.269 0.35915 0.96209 0.0
C1029 C 0.22596 0.3253 0.99714 0.0
C1030 C 0.23646 0.33159 0.04268 0.0
C1031 C 0.25026 0.34265 0.03048 0.0
C1032 C 0.23352 0.32686 0.10354 0.0
C1033 C 0.21108 0.31325 0.00813 0.0
C1034 C 0.22463 0.3278 0.13721 0.0
C1035 C 0.2237 0.32528 0.19728 0.0
C1036 C 0.23175 0.3219 0.22447 0.0
C1037 C 0.23992 0.32016 0.18973 0.0
C1038 C 0.24085 0.32268 0.1298 0.0
H1039 H 0.20507 0.30816 0.96669 0.0
H1040 H 0.21132 0.30639 0.03654 0.0
H1041 H 0.2053 0.31601 0.03125 0.0
H1042 H 0.21901 0.33114 0.1177 0.0
H1043 H 0.21732 0.32672 0.22284 0.0
H1044 H 0.43729 0.17327 0.5473 0.0
H1045 H 0.43723 0.17628 0.44078 0.0
H1046 H 0.39279 0.1591 0.44187 0.0
H1047 H 0.39285 0.15644 0.54705 0.0
H1048 H 0.42241 0.15736 0.36201 0.0
H1049 H 0.40661 0.18877 0.33413 0.0
H1050 H 0.41298 0.18716 0.40398 0.0
H1051 H 0.39448 0.17567 0.38164 0.0
C1052 C 0.42761 0.17041 0.52483 0.0
C1053 C 0.41507 0.16455 0.55553 0.0
C1054 C 0.42759 0.17214 0.4641 0.0
C1055 C 0.41507 0.16814 0.43351 0.0
C1056 C 0.40269 0.16264 0.46458 0.0
H1057 H 0.37659 0.12736 0.11844 0.0
H1058 H 0.38737 0.13608 0.21585 0.0
C1059 C 0.40271 0.16096 0.52486 0.0
C1060 C 0.41415 0.16801 0.36866 0.0
H1061 H 0.3983 0.17262 0.25545 0.0
C1062 C 0.41749 0.161 0.33839 0.0
C1063 C 0.40805 0.17301 0.3374 0.0
C1064 C 0.4055 0.1817 0.36608 0.0
C1065 C 0.4137 0.15785 0.27886 0.0
C1066 C 0.406 0.16147 0.24955 0.0
C1067 C 0.40385 0.16951 0.27836 0.0
C1068 C 0.39925 0.15628 0.19068 0.0
C1069 C 0.41769 0.1504 0.24849 0.0
C1070 C 0.40165 0.1647 0.14514 0.0
C1071 C 0.39519 0.15971 0.0898 0.0
C1072 C 0.38638 0.14623 0.0789 0.0
C1073 C 0.3835 0.1378 0.12527 0.0
C1074 C 0.38983 0.14279 0.18071 0.0
H1075 H 0.42755 0.15259 0.26868 0.0
H1076 H 0.40908 0.13981 0.25321 0.0
H1077 H 0.41931 0.15271 0.20106 0.0
H1078 H 0.40858 0.17514 0.1523 0.0
H1079 H 0.39707 0.16643 0.05589 0.0
H1080 H 0.89658 0.32501 0.5275 0.0
H1081 H 0.89497 0.31987 0.42346 0.0
H1082 H 0.93837 0.35399 0.4042 0.0
H1083 H 0.94016 0.35919 0.5081 0.0
H1084 H 0.90054 0.33425 0.3161 0.0
H1085 H 0.93748 0.32258 0.36087 0.0
H1086 H 0.92876 0.32428 0.41834 0.0
H1087 H 0.94405 0.33848 0.38526 0.0
C1088 C 0.9057 0.33158 0.50091 0.0
C1089 C 0.91858 0.34241 0.52624 0.0
C1090 C 0.90476 0.3286 0.44154 0.0
C1091 C 0.91666 0.3364 0.40681 0.0
C1092 C 0.92917 0.34774 0.43082 0.0
H1093 H 0.92842 0.33935 0.03897 0.0
H1094 H 0.92531 0.34251 0.14018 0.0
C1095 C 0.93013 0.35072 0.49009 0.0
C1096 C 0.91634 0.33226 0.34658 0.0
H1097 H 0.93176 0.32327 0.26079 0.0
C1098 C 0.90729 0.33178 0.30393 0.0
C1099 C 0.92494 0.32876 0.33142 0.0
C1100 C 0.93427 0.32841 0.37642 0.0
C1101 C 0.90704 0.32838 0.24564 0.0
C1102 C 0.9162 0.32555 0.22986 0.0
C1103 C 0.92483 0.32554 0.27304 0.0
C1104 C 0.91759 0.32331 0.16824 0.0
C1105 C 0.89701 0.32787 0.20144 0.0
C1106 C 0.91472 0.3116 0.15094 0.0
C1107 C 0.91642 0.30974 0.09274 0.0
C1108 C 0.92098 0.31955 0.05127 0.0
C1109 C 0.92425 0.33138 0.06928 0.0
C1110 C 0.92254 0.33324 0.12719 0.0
H1111 H 0.88802 0.32652 0.22303 0.0
H1112 H 0.90284 0.33718 0.17718 0.0
H1113 H 0.89267 0.31984 0.16922 0.0
H1114 H 0.91109 0.30391 0.18236 0.0
H1115 H 0.91402 0.3006 0.07999 0.0
H1116 H 0.80011 0.75025 0.01801 0.0
H1117 H 0.80142 0.74863 0.12496 0.0
H1118 H 0.77744 0.70704 0.10856 0.0
H1119 H 0.7766 0.70861 0.00296 0.0
H1120 H 0.77996 0.73683 0.19334 0.0
H1121 H 0.80588 0.71415 0.23021 0.0
H1122 H 0.80646 0.72122 0.16065 0.0
H1123 H 0.79169 0.70461 0.1769 0.0
C1124 C 0.79545 0.74083 0.03728 0.0
C1125 C 0.78818 0.72956 0.00202 0.0
C1126 C 0.7962 0.73991 0.09832 0.0
C1127 C 0.78973 0.72774 0.12483 0.0
C1128 C 0.78291 0.71659 0.08932 0.0
H1129 H 0.74149 0.6974 0.43042 0.0
H1130 H 0.75171 0.70584 0.33445 0.0
C1131 C 0.78228 0.7175 0.02869 0.0
C1132 C 0.78832 0.72622 0.18922 0.0
H1133 H 0.78811 0.70862 0.3018 0.0
C1134 C 0.78208 0.73093 0.21747 0.0
C1135 C 0.79135 0.71878 0.22132 0.0
C1136 C 0.79937 0.71456 0.19566 0.0
C1137 C 0.77779 0.72756 0.27549 0.0
C1138 C 0.7793 0.71885 0.30518 0.0
C1139 C 0.78656 0.71498 0.27853 0.0
C1140 C 0.77299 0.71328 0.36283 0.0
C1141 C 0.77154 0.73327 0.30393 0.0
C1142 C 0.78129 0.71383 0.40962 0.0
C1143 C 0.77534 0.70863 0.46394 0.0
C1144 C 0.76106 0.70301 0.47287 0.0
C1145 C 0.7526 0.70189 0.42521 0.0
C1146 C 0.75849 0.7069 0.37059 0.0
H1147 H 0.77583 0.74292 0.28507 0.0
H1148 H 0.75987 0.72674 0.29558 0.0
H1149 H 0.77376 0.73444 0.35203 0.0
H1150 H 0.79241 0.71839 0.40428 0.0
H1151 H 0.78197 0.70899 0.49861 0.0
H1152 H 0.29797 0.23184 0.98207 0.0
H1153 H 0.30155 0.23212 0.08824 0.0
H1154 H 0.29416 0.26031 0.10632 0.0
H1155 H 0.29065 0.2602 0.00016 0.0
H1156 H 0.3212 0.26819 0.14949 0.0
H1157 H 0.27637 0.21983 0.23388 0.0
H1158 H 0.28459 0.21964 0.16998 0.0
H1159 H 0.27512 0.22622 0.16519 0.0
C1160 C 0.29671 0.23784 0.00872 0.0
C1161 C 0.29424 0.24616 0.98272 0.0
C1162 C 0.2987 0.23793 0.06939 0.0
C1163 C 0.29813 0.24625 0.10479 0.0
C1164 C 0.29463 0.25383 0.07943 0.0
H1165 H 0.30798 0.25945 0.47459 0.0
H1166 H 0.30008 0.25409 0.37206 0.0
C1167 C 0.29261 0.25374 0.01882 0.0
C1168 C 0.30311 0.24842 0.16662 0.0
H1169 H 0.29579 0.23389 0.30018 0.0
C1170 C 0.31565 0.26071 0.18256 0.0
C1171 C 0.29583 0.23859 0.20915 0.0
C1172 C 0.28217 0.22534 0.19407 0.0
C1173 C 0.32109 0.2635 0.24038 0.0
C1174 C 0.31387 0.25366 0.28295 0.0
C1175 C 0.30135 0.24134 0.26702 0.0
C1176 C 0.31859 0.25631 0.34514 0.0
C1177 C 0.33431 0.27703 0.25583 0.0
C1178 C 0.33163 0.25931 0.36372 0.0
C1179 C 0.33613 0.26228 0.42265 0.0
C1180 C 0.32754 0.26208 0.46352 0.0
C1181 C 0.31456 0.25916 0.44452 0.0
C1182 C 0.31008 0.25621 0.38589 0.0
H1183 H 0.33704 0.28409 0.22036 0.0
H1184 H 0.33295 0.28056 0.29685 0.0
H1185 H 0.34338 0.27682 0.2632 0.0
H1186 H 0.33829 0.25938 0.33268 0.0
H1187 H 0.34622 0.26458 0.43639 0.0
H1188 H 0.75046 0.13686 0.40472 0.0
H1189 H 0.75868 0.1377 0.3062 0.0
H1190 H 0.76881 0.11254 0.36305 0.0
H1191 H 0.76045 0.1115 0.46062 0.0
H1192 H 0.78851 0.14494 0.28018 0.0
H1193 H 0.74041 0.09546 0.21195 0.0
H1194 H 0.74002 0.1048 0.2682 0.0
H1195 H 0.74832 0.09735 0.28362 0.0
C1196 C 0.75444 0.13153 0.39592 0.0
C1197 C 0.75512 0.12434 0.44028 0.0
C1198 C 0.75919 0.13207 0.34007 0.0
C1199 C 0.76441 0.12525 0.32798 0.0
C1200 C 0.7649 0.11793 0.37198 0.0
H1201 H 0.78059 0.10822 0.98971 0.0
H1202 H 0.78052 0.11003 0.09619 0.0
C1203 C 0.76024 0.11744 0.42769 0.0
C1204 C 0.76903 0.12546 0.26885 0.0
H1205 H 0.75872 0.10704 0.1451 0.0
C1206 C 0.78206 0.13667 0.25049 0.0
C1207 C 0.76064 0.11456 0.23108 0.0
C1208 C 0.74652 0.10234 0.24923 0.0
C1209 C 0.78688 0.13732 0.19444 0.0
C1210 C 0.77825 0.12657 0.15577 0.0
C1211 C 0.76537 0.11525 0.17495 0.0
C1212 C 0.78152 0.12716 0.09343 0.0
C1213 C 0.80116 0.14947 0.17737 0.0
C1214 C 0.78261 0.13646 0.05688 0.0
C1215 C 0.78274 0.1355 0.99625 0.0
C1216 C 0.78155 0.1251 0.97102 0.0
C1217 C 0.78145 0.11631 0.00782 0.0
C1218 C 0.7814 0.11732 0.06863 0.0
H1219 H 0.80836 0.1545 0.21649 0.0
H1220 H 0.80633 0.14726 0.14625 0.0
H1221 H 0.79972 0.1563 0.15598 0.0
H1222 H 0.78242 0.14397 0.07486 0.0
H1223 H 0.78291 0.14248 0.96914 0.0
H1224 H 0.90322 0.63102 0.51344 0.0
H1225 H 0.90278 0.63498 0.40869 0.0
H1226 H 0.86646 0.63397 0.42915 0.0
H1227 H 0.86668 0.62989 0.53393 0.0
H1228 H 0.86625 0.62196 0.32225 0.0
H1229 H 0.91593 0.67208 0.36399 0.0
H1230 H 0.91663 0.65936 0.38918 0.0
H1231 H 0.90474 0.66144 0.42209 0.0
C1232 C 0.89493 0.63133 0.49552 0.0
C1233 C 0.88515 0.63038 0.53211 0.0
C1234 C 0.89474 0.63365 0.43577 0.0
C1235 C 0.88481 0.63507 0.4119 0.0
C1236 C 0.87428 0.63302 0.44717 0.0
H1237 H 0.89828 0.676 0.08224 0.0
H1238 H 0.89277 0.66899 0.18483 0.0
C1239 C 0.87444 0.63068 0.50696 0.0
C1240 C 0.88617 0.63977 0.35151 0.0
H1241 H 0.90859 0.66578 0.26436 0.0
C1242 C 0.87544 0.63155 0.30948 0.0
C1243 C 0.89803 0.65242 0.33571 0.0
C1244 C 0.90944 0.66191 0.38015 0.0
C1245 C 0.87658 0.63548 0.25104 0.0
C1246 C 0.88884 0.64786 0.23458 0.0
C1247 C 0.89926 0.65627 0.27719 0.0
C1248 C 0.89156 0.65191 0.17276 0.0
C1249 C 0.86472 0.62635 0.20738 0.0
C1250 C 0.89305 0.64481 0.13294 0.0
C1251 C 0.89622 0.6488 0.07501 0.0
C1252 C 0.89792 0.65995 0.05582 0.0
C1253 C 0.89682 0.66728 0.09601 0.0
C1254 C 0.89364 0.66327 0.15426 0.0
H1255 H 0.85453 0.61925 0.22941 0.0
H1256 H 0.8632 0.63179 0.17444 0.0
H1257 H 0.8674 0.62078 0.18393 0.0
H1258 H 0.89202 0.6363 0.14697 0.0
H1259 H 0.89766 0.64331 0.04568 0.0
H1260 H 0.01976 0.57708 0.0064 0.0
H1261 H 0.03024 0.5659 -0.00145 0.0
H1262 H 0.07209 0.60298 -0.00181 0.0
H1263 H 0.06162 0.61415 0.00762 0.0
H1264 H 0.04809 0.56811 0.9121 0.0
H1265 H 0.07462 0.58332 0.134 0.0
H1266 H 0.06102 0.58477 0.11169 0.0
H1267 H 0.07871 0.59619 0.08592 0.0
C1268 C 0.03119 0.58279 0.00469 0.0
C1269 C 0.03993 0.5964 0.00769 0.0
C1270 C 0.03715 0.57644 -6e-05 0.0
C1271 C 0.05194 0.58363 -0.00164 0.0
C1272 C 0.06067 0.59727 0.00012 0.0
H1273 H 0.09693 0.55007 0.0253 0.0
H1274 H 0.09267 0.56602 0.00477 0.0
C1275 C 0.0547 0.60362 0.00505 0.0
C1276 C 0.05811 0.57674 0.99638 0.0
H1277 H 0.07715 0.56991 0.07861 0.0
C1278 C 0.05457 0.56859 0.9482 0.0
C1279 C 0.06662 0.57748 0.04342 0.0
C1280 C 0.07042 0.58582 0.09697 0.0
C1281 C 0.05899 0.56085 0.94659 0.0
C1282 C 0.06697 0.56116 0.99476 0.0
C1283 C 0.07106 0.56975 0.0417 0.0
C1284 C 0.06977 0.55164 0.00064 0.0
C1285 C 0.05487 0.55223 0.89384 0.0
C1286 C 0.05831 0.53837 0.005 0.0
C1287 C 0.06073 0.52937 0.01694 0.0
C1288 C 0.07463 0.53354 0.02497 0.0
C1289 C 0.08614 0.54674 0.01914 0.0
C1290 C 0.08372 0.55579 0.00746 0.0
H1291 H 0.05287 0.55603 0.85425 0.0
H1292 H 0.06326 0.55131 0.88448 0.0
H1293 H 0.04494 0.54237 0.90258 0.0
H1294 H 0.04748 0.53501 0.00115 0.0
H1295 H 0.05175 0.51919 0.02135 0.0
H1296 H 0.47992 0.4733 0.11624 0.0
H1297 H 0.4973 0.49717 0.12423 0.0
H1298 H 0.46385 0.50023 0.08763 0.0
H1299 H 0.44653 0.47646 0.07977 0.0
H1300 H 0.50186 0.51559 0.03038 0.0
H1301 H 0.48524 0.522 0.24222 0.0
H1302 H 0.48125 0.50678 0.22059 0.0
H1303 H 0.47129 0.51166 0.18846 0.0
C1304 C 0.47636 0.47913 0.11017 0.0
C1305 C 0.46202 0.4732 0.09687 0.0
C1306 C 0.48622 0.49268 0.11464 0.0
C1307 C 0.48178 0.50038 0.1068 0.0
C1308 C 0.46742 0.49442 0.09428 0.0
H1309 H 0.5239 0.58332 0.12133 0.0
H1310 H 0.50652 0.5595 0.11234 0.0
C1311 C 0.45759 0.48091 0.08945 0.0
C1312 C 0.49221 0.5147 0.1099 0.0
H1313 H 0.50219 0.5411 0.1901 0.0
C1314 C 0.50202 0.5212 0.06538 0.0
C1315 C 0.49221 0.5219 0.15537 0.0
C1316 C 0.48202 0.51528 0.20473 0.0
C1317 C 0.51178 0.53483 0.06464 0.0
C1318 C 0.5119 0.54206 0.11049 0.0
C1319 C 0.50205 0.53552 0.15499 0.0
C1320 C 0.52235 0.55641 0.11385 0.0
C1321 C 0.52163 0.54134 0.01408 0.0
C1322 C 0.53694 0.56251 0.11789 0.0
C1323 C 0.54678 0.57602 0.12254 0.0
C1324 C 0.54218 0.58362 0.12427 0.0
C1325 C 0.52762 0.57757 0.12015 0.0
C1326 C 0.51774 0.56404 0.11516 0.0
H1327 H 0.51743 0.53483 0.97501 0.0
H1328 H 0.52333 0.55046 0.00152 0.0
H1329 H 0.53206 0.54383 0.02723 0.0
H1330 H 0.5407 0.5568 0.11812 0.0
H1331 H 0.55801 0.58055 0.12515 0.0
H1332 H 0.55906 0.02043 0.10769 0.0
H1333 H 0.54351 0.02668 0.1041 0.0
H1334 H 0.50685 0.98625 0.08799 0.0
H1335 H 0.52248 0.97997 0.09291 0.0
H1336 H 0.52391 0.02168 0.01538 0.0
H1337 H 0.49783 0.99949 0.2269 0.0
H1338 H 0.51387 0.00208 0.20742 0.0
H1339 H 0.49703 0.98874 0.17562 0.0
C1340 C 0.54767 0.0129 0.10382 0.0
C1341 C 0.54187 -0.00026 0.10131 0.0
C1342 C 0.53882 0.01646 0.10153 0.0
C1343 C 0.52404 0.00691 0.09666 0.0
C1344 C 0.51822 0.99374 0.09289 0.0
H1345 H 0.45736 0.01554 0.08349 0.0
H1346 H 0.47057 0.00681 0.08322 0.0
C1347 C 0.52711 0.99017 0.0953 0.0
C1348 C 0.51486 0.0109 0.09497 0.0
H1349 H 0.48998 0.00951 0.17126 0.0
C1350 C 0.51646 0.019 0.04935 0.0
C1351 C 0.50516 0.00736 0.13939 0.0
C1352 C 0.50339 0.99902 0.19044 0.0
C1353 C 0.50864 0.02372 0.04704 0.0
C1354 C 0.49916 0.02038 0.09203 0.0
C1355 C 0.49732 0.01206 0.13701 0.0
C1356 C 0.49121 0.02562 0.09354 0.0
C1357 C 0.51053 0.03217 0.99634 0.0
C1358 C 0.49846 0.03904 0.10066 0.0
C1359 C 0.49095 0.04401 0.10069 0.0
C1360 C 0.47612 0.03562 0.09351 0.0
C1361 C 0.46884 0.02218 0.08807 0.0
C1362 C 0.47634 0.0172 0.08816 0.0
H1363 H 0.51543 0.03118 0.9587 0.0
H1364 H 0.50019 0.02968 0.98122 0.0
H1365 H 0.5176 0.04251 0.01075 0.0
H1366 H 0.50993 0.04565 0.106 0.0
H1367 H 0.49672 0.0544 0.10544 0.0
H1368 H 0.68293 0.82866 0.42451 0.0
H1369 H 0.68267 0.8473 0.4198 0.0
H1370 H 0.72839 0.87349 0.44019 0.0
H1371 H 0.72862 0.85481 0.44326 0.0
H1372 H 0.69154 0.86522 0.50358 0.0
H1373 H 0.72192 0.88945 0.30326 0.0
H1374 H 0.71507 0.8731 0.32254 0.0
H1375 H 0.7313 0.88685 0.35678 0.0
C1376 C 0.69289 0.83843 0.42744 0.0
C1377 C 0.70579 0.84044 0.43447 0.0
C1378 C 0.69275 0.84904 0.42475 0.0
C1379 C 0.70552 0.86178 0.42899 0.0
C1380 C 0.71845 0.86376 0.43551 0.0
H1381 H 0.71157 0.92883 0.53276 0.0
H1382 H 0.71283 0.91081 0.52805 0.0
C1383 C 0.71858 0.85314 0.43767 0.0
C1384 C 0.7052 0.87293 0.42987 0.0
H1385 H 0.71788 0.90163 0.36293 0.0
C1386 C 0.69724 0.87315 0.47264 0.0
C1387 C 0.71252 0.88318 0.38903 0.0
C1388 C 0.72056 0.8831 0.33994 0.0
C1389 C 0.6965 0.88343 0.47615 0.0
C1390 C 0.70427 0.89393 0.43681 0.0
C1391 C 0.71208 0.89363 0.39351 0.0
C1392 C 0.70415 0.90518 0.43908 0.0
C1393 C 0.68716 0.88278 0.52119 0.0
C1394 C 0.69934 0.90825 0.38997 0.0
C1395 C 0.6988 0.91861 0.39243 0.0
C1396 C 0.70306 0.92603 0.44401 0.0
C1397 C 0.70812 0.92313 0.49275 0.0
C1398 C 0.70877 0.91283 0.49016 0.0
H1399 H 0.67899 0.87265 0.53602 0.0
H1400 H 0.69381 0.88869 0.56013 0.0
H1401 H 0.68172 0.88669 0.5035 0.0
H1402 H 0.69577 0.90248 0.35012 0.0
H1403 H 0.69476 0.92065 0.3545 0.0
H1404 H 0.10812 0.8288 0.44794 0.0
H1405 H 0.12899 0.85182 0.442 0.0
H1406 H 0.15628 0.84069 0.44525 0.0
H1407 H 0.13542 0.81771 0.44951 0.0
H1408 H 0.15203 0.86644 0.52022 0.0
H1409 H 0.16939 0.86414 0.3023 0.0
H1410 H 0.15204 0.85133 0.32898 0.0
H1411 H 0.16724 0.85245 0.3531 0.0
C1412 C 0.11861 0.83134 0.44716 0.0
C1413 C 0.12028 0.82161 0.44941 0.0
C1414 C 0.13047 0.84443 0.44384 0.0
C1415 C 0.14414 0.84792 0.4423 0.0
C1416 C 0.1458 0.83818 0.4452 0.0
H1417 H 0.23021 0.91829 0.45433 0.0
H1418 H 0.20803 0.89589 0.45097 0.0
C1419 C 0.13394 0.8251 0.44834 0.0
C1420 C 0.15672 0.86178 0.43926 0.0
H1421 H 0.18587 0.88342 0.35909 0.0
C1422 C 0.15936 0.8702 0.48472 0.0
C1423 C 0.16622 0.86663 0.39276 0.0
C1424 C 0.16354 0.8582 0.34121 0.0
C1425 C 0.17154 0.88327 0.48594 0.0
C1426 C 0.18118 0.88803 0.44012 0.0
C1427 C 0.17843 0.87968 0.39417 0.0
C1428 C 0.19447 0.90155 0.44027 0.0
C1429 C 0.17424 0.8918 0.53709 0.0
C1430 C 0.19413 0.91207 0.43428 0.0
C1431 C 0.20676 0.92483 0.43626 0.0
C1432 C 0.21984 0.92718 0.4445 0.0
C1433 C 0.22019 0.91665 0.44891 0.0
C1434 C 0.20758 0.90391 0.44673 0.0
H1435 H 0.16721 0.88604 0.57398 0.0
H1436 H 0.18547 0.89756 0.5533 0.0
H1437 H 0.17226 0.89872 0.52261 0.0
H1438 H 0.1841 0.9104 0.42833 0.0
H1439 H 0.20633 0.93286 0.43229 0.0
H1440 H 0.19966 0.33988 0.56497 0.0
H1441 H 0.18154 0.34307 0.57069 0.0
H1442 H 0.18661 0.35346 0.38781 0.0
H1443 H 0.2047 0.35032 0.38208 0.0
H1444 H 0.18457 0.36578 0.54729 0.0
H1445 H 0.14363 0.32549 0.39872 0.0
H1446 H 0.15842 0.32659 0.43005 0.0
H1447 H 0.16076 0.33612 0.36704 0.0
C1448 C 0.19685 0.34283 0.52611 0.0
C1449 C 0.20342 0.34477 0.47298 0.0
C1450 C 0.18651 0.34461 0.52935 0.0
C1451 C 0.18258 0.34827 0.47941 0.0
C1452 C 0.18925 0.35031 0.42645 0.0
H1453 H 0.13255 0.37254 0.38432 0.0
H1454 H 0.14832 0.36657 0.39134 0.0
C1455 C 0.19956 0.34853 0.42321 0.0
C1456 C 0.17193 0.35049 0.48292 0.0
H1457 H 0.14061 0.34145 0.4211 0.0
C1458 C 0.17486 0.36036 0.52032 0.0
C1459 C 0.15928 0.34336 0.44773 0.0
C1460 C 0.15524 0.33221 0.40903 0.0
C1461 C 0.16574 0.36368 0.52161 0.0
C1462 C 0.15333 0.35682 0.48504 0.0
C1463 C 0.1502 0.34672 0.44884 0.0
C1464 C 0.14375 0.36036 0.4816 0.0
C1465 C 0.1697 0.37481 0.5603 0.0
C1466 C 0.13593 0.35874 0.52997 0.0
C1467 C 0.12685 0.36207 0.52588 0.0
C1468 C 0.12544 0.36697 0.47329 0.0
C1469 C 0.13329 0.36858 0.42501 0.0
C1470 C 0.14233 0.36524 0.42906 0.0
H1471 H 0.18088 0.38064 0.57725 0.0
H1472 H 0.1682 0.38134 0.53598 0.0
H1473 H 0.16269 0.37088 0.59835 0.0
H1474 H 0.13675 0.35481 0.57061 0.0
H1475 H 0.1208 0.36067 0.5635 0.0
H1476 H 0.3176 0.21442 0.66896 0.0
H1477 H 0.32813 0.20317 0.67497 0.0
H1478 H 0.34303 0.21725 0.85239 0.0
H1479 H 0.3325 0.22844 0.84646 0.0
H1480 H 0.35695 0.21572 0.69474 0.0
H1481 H 0.32543 0.1788 0.86598 0.0
H1482 H 0.3196 0.1871 0.82816 0.0
H1483 H 0.33267 0.19505 0.88731 0.0
C1484 C 0.32289 0.21485 0.70952 0.0
C1485 C 0.32416 0.22214 0.75744 0.0
C1486 C 0.3289 0.20848 0.71289 0.0
C1487 C 0.33621 0.20927 0.76435 0.0
C1488 C 0.33716 0.21628 0.81278 0.0
H1489 H 0.38759 0.18548 0.8652 0.0
H1490 H 0.37621 0.19596 0.85856 0.0
C1491 C 0.33114 0.22264 0.80941 0.0
C1492 C 0.3438 0.20366 0.76584 0.0
H1493 H 0.3466 0.18233 0.83945 0.0
C1494 C 0.35463 0.20835 0.72605 0.0
C1495 C 0.34078 0.19411 0.80701 0.0
C1496 C 0.3289 0.18837 0.84921 0.0
C1497 C 0.36271 0.2039 0.72702 0.0
C1498 C 0.35974 0.1944 0.76837 0.0
C1499 C 0.34889 0.18968 0.80805 0.0
C1500 C 0.36754 0.189 0.77049 0.0
C1501 C 0.37455 0.20957 0.68465 0.0
C1502 C 0.36647 0.18172 0.72304 0.0
C1503 C 0.37294 0.17576 0.7268 0.0
C1504 C 0.38054 0.17699 0.77811 0.0
C1505 C 0.38184 0.18449 0.82512 0.0
C1506 C 0.37534 0.19042 0.82141 0.0
H1507 H 0.37775 0.21893 0.66623 0.0
H1508 H 0.38401 0.21122 0.70629 0.0
H1509 H 0.3709 0.20265 0.64769 0.0
H1510 H 0.36024 0.18028 0.68389 0.0
H1511 H 0.3715 0.16976 0.69055 0.0
H1512 H 0.86204 0.2813 0.82995 0.0
H1513 H 0.84341 0.25779 0.8161 0.0
H1514 H 0.85647 0.26066 0.63911 0.0
H1515 H 0.87533 0.28402 0.65344 0.0
H1516 H 0.82046 0.24211 0.73206 0.0
H1517 H 0.86203 0.23557 0.71976 0.0
H1518 H 0.86591 0.25054 0.74468 0.0
H1519 H 0.86345 0.24676 0.66768 0.0
C1520 C 0.86073 0.2769 0.78786 0.0
C1521 C 0.87008 0.28439 0.74281 0.0
C1522 C 0.85012 0.26352 0.77996 0.0
C1523 C 0.84876 0.2575 0.72692 0.0
C1524 C 0.85751 0.26513 0.68063 0.0
H1525 H 0.80058 0.17561 0.63289 0.0
H1526 H 0.81516 0.19943 0.62963 0.0
C1527 C 0.86816 0.27848 0.68862 0.0
C1528 C 0.83893 0.24315 0.72168 0.0
H1529 H 0.83826 0.21681 0.70637 0.0
C1530 C 0.82431 0.23656 0.72627 0.0
C1531 C 0.84405 0.23597 0.71436 0.0
C1532 C 0.85972 0.24253 0.71182 0.0
C1533 C 0.81463 0.22292 0.72337 0.0
C1534 C 0.81977 0.21575 0.71661 0.0
C1535 C 0.83437 0.22236 0.71129 0.0
C1536 C 0.81031 0.20137 0.71722 0.0
C1537 C 0.79898 0.21628 0.72712 0.0
C1538 C 0.80288 0.19464 0.76767 0.0
C1539 C 0.7946 0.1811 0.76954 0.0
C1540 C 0.7937 0.17411 0.72114 0.0
C1541 C 0.80108 0.18083 0.67059 0.0
C1542 C 0.80939 0.19438 0.66874 0.0
H1543 H 0.79651 0.22303 0.71631 0.0
H1544 H 0.79262 0.20774 0.69704 0.0
H1545 H 0.79565 0.2128 0.77252 0.0
H1546 H 0.80367 0.19988 0.80594 0.0
H1547 H 0.78888 0.17609 0.80879 0.0
H1548 H 0.79876 0.69802 0.66818 0.0
H1549 H 0.81021 0.68766 0.66462 0.0
H1550 H 0.79967 0.67572 0.8444 0.0
H1551 H 0.78794 0.68583 0.84767 0.0
H1552 H 0.83299 0.69304 0.73772 0.0
H1553 H 0.78451 0.64174 0.75644 0.0
H1554 H 0.78383 0.65482 0.73694 0.0
H1555 H 0.78691 0.65259 0.81205 0.0
C1556 C 0.79887 0.69314 0.70678 0.0
C1557 C 0.79254 0.69271 0.75822 0.0
C1558 C 0.8054 0.68725 0.70474 0.0
C1559 C 0.80558 0.68077 0.75396 0.0
C1560 C 0.79942 0.68049 0.80567 0.0
H1561 H 0.8439 0.64421 0.84576 0.0
H1562 H 0.82933 0.65156 0.83982 0.0
C1563 C 0.7929 0.6864 0.80774 0.0
C1564 C 0.8126 0.67465 0.75168 0.0
H1565 H 0.80666 0.64555 0.76331 0.0
C1566 C 0.82724 0.68265 0.74287 0.0
C1567 C 0.80502 0.66109 0.75855 0.0
C1568 C 0.78917 0.65201 0.76603 0.0
C1569 C 0.83461 0.6775 0.74217 0.0
C1570 C 0.82705 0.66395 0.74922 0.0
C1571 C 0.81238 0.65592 0.75768 0.0
C1572 C 0.83436 0.65806 0.75007 0.0
C1573 C 0.8505 0.68667 0.73567 0.0
C1574 C 0.84154 0.65885 0.70087 0.0
C1575 C 0.84988 0.65473 0.70432 0.0
C1576 C 0.85103 0.64965 0.75686 0.0
C1577 C 0.84317 0.64815 0.8049 0.0
C1578 C 0.83487 0.65231 0.80152 0.0
H1579 H 0.85506 0.69694 0.74453 0.0
H1580 H 0.85581 0.684 0.76587 0.0
H1581 H 0.85297 0.68605 0.69011 0.0
H1582 H 0.84108 0.66308 0.6605 0.0
H1583 H 0.85596 0.65611 0.66689 0.0
H1584 H 0.1127 0.41146 0.29622 0.0
H1585 H 0.11665 0.4297 0.24256 0.0
H1586 H 0.11151 0.44368 0.40138 0.0
H1587 H 0.1081 0.42568 0.45579 0.0
H1588 H 0.09626 0.43167 0.22903 0.0
H1589 H 0.14283 0.47758 0.32964 0.0
H1590 H 0.13922 0.46213 0.34304 0.0
H1591 H 0.13029 0.46677 0.38333 0.0
C1592 C 0.11281 0.41863 0.32003 0.0
C1593 C 0.10999 0.41711 0.38006 0.0
C1594 C 0.11509 0.42906 0.28934 0.0
C1595 C 0.11445 0.43812 0.31787 0.0
C1596 C 0.1124 0.43702 0.3786 0.0
H1597 H 0.08869 0.48381 0.22765 0.0
H1598 H 0.09854 0.47383 0.27371 0.0
C1599 C 0.11035 0.42667 0.40963 0.0
C1600 C 0.11362 0.4473 0.28268 0.0
H1601 H 0.12619 0.47892 0.27359 0.0
C1602 C 0.10303 0.44205 0.23798 0.0
C1603 C 0.12238 0.46083 0.2946 0.0
C1604 C 0.13441 0.46717 0.3399 0.0
C1605 C 0.10052 0.4498 0.20665 0.0
C1606 C 0.10895 0.46323 0.21991 0.0
C1607 C 0.11981 0.46861 0.26344 0.0
C1608 C 0.10554 0.47141 0.19283 0.0
C1609 C 0.0884 0.44343 0.1616 0.0
C1610 C 0.10671 0.47377 0.13231 0.0
C1611 C 0.10101 0.47944 0.10561 0.0
C1612 C 0.09405 0.48278 0.13916 0.0
C1613 C 0.0938 0.48119 0.20037 0.0
C1614 C 0.09951 0.47557 0.22692 0.0
H1615 H 0.08152 0.43263 0.16342 0.0
H1616 H 0.08174 0.44654 0.16811 0.0
H1617 H 0.09273 0.44646 0.11709 0.0
H1618 H 0.11145 0.47071 0.10543 0.0
H1619 H 0.10147 0.48062 0.05847 0.0
H1620 H 0.6713 0.77319 0.29217 0.0
H1621 H 0.6514 0.75306 0.24455 0.0
H1622 H 0.63783 0.73451 0.41313 0.0
H1623 H 0.65753 0.75485 0.46142 0.0
H1624 H 0.64866 0.73153 0.24609 0.0
H1625 H 0.60018 0.72078 0.33597 0.0
H1626 H 0.61737 0.73654 0.34411 0.0
H1627 H 0.61256 0.72345 0.39252 0.0
C1628 C 0.66395 0.76489 0.31927 0.0
C1629 C 0.66604 0.76556 0.38055 0.0
C1630 C 0.65254 0.7534 0.29195 0.0
C1631 C 0.64302 0.74229 0.32517 0.0
C1632 C 0.64481 0.74303 0.38661 0.0
H1633 H 0.59104 0.66133 0.26963 0.0
H1634 H 0.60215 0.68329 0.30527 0.0
C1635 C 0.65614 0.75463 0.41416 0.0
C1636 C 0.63242 0.72963 0.29494 0.0
H1637 H 0.59746 0.70285 0.2897 0.0
C1638 C 0.63742 0.72538 0.25481 0.0
C1639 C 0.61776 0.72159 0.30645 0.0
C1640 C 0.61163 0.72588 0.34668 0.0
C1641 C 0.62831 0.71313 0.22773 0.0
C1642 C 0.61375 0.70492 0.24063 0.0
C1643 C 0.60863 0.70924 0.27963 0.0
C1644 C 0.6042 0.69131 0.21909 0.0
C1645 C 0.63448 0.7088 0.18772 0.0
C1646 C 0.60106 0.68843 0.15891 0.0
C1647 C 0.5947 0.67583 0.13822 0.0
C1648 C 0.59149 0.66602 0.17758 0.0
C1649 C 0.59358 0.66874 0.23814 0.0
C1650 C 0.59985 0.68126 0.25868 0.0
H1651 H 0.64627 0.71553 0.18946 0.0
H1652 H 0.6308 0.6989 0.1996 0.0
H1653 H 0.6308 0.7084 0.14186 0.0
H1654 H 0.60426 0.69607 0.12778 0.0
H1655 H 0.59317 0.67401 0.09137 0.0
H1656 H 0.39296 0.01988 0.08125 0.0
H1657 H 0.37051 0.00701 0.13301 0.0
H1658 H 0.39378 0.01709 0.29843 0.0
H1659 H 0.41608 0.03014 0.2477 0.0
H1660 H 0.35807 0.9861 0.21167 0.0
H1661 H 0.37101 0.03022 0.31936 0.0
H1662 H 0.38092 0.03107 0.25934 0.0
H1663 H 0.38428 0.02803 0.33258 0.0
C1664 C 0.39325 0.01927 0.1286 0.0
C1665 C 0.40628 0.02621 0.16045 0.0
C1666 C 0.38044 0.01191 0.15808 0.0
C1667 C 0.38052 0.01136 0.21963 0.0
C1668 C 0.39349 0.01768 0.25106 0.0
H1669 H 0.3144 0.98137 0.4744 0.0
H1670 H 0.33625 0.98813 0.42869 0.0
C1671 C 0.40623 0.02512 0.22189 0.0
C1672 C 0.36716 0.00468 0.25152 0.0
H1673 H 0.35065 0.00996 0.35143 0.0
C1674 C 0.35643 0.9913 0.2422 0.0
C1675 C 0.36506 0.0115 0.29137 0.0
C1676 C 0.37586 0.02602 0.30093 0.0
C1677 C 0.34365 0.98454 0.27205 0.0
C1678 C 0.34159 0.99138 0.3118 0.0
C1679 C 0.35237 0.00471 0.32154 0.0
C1680 C 0.32786 0.9853 0.3397 0.0
C1681 C 0.33248 0.97015 0.261 0.0
C1682 C 0.31592 0.98133 0.30477 0.0
C1683 C 0.30355 0.97759 0.33058 0.0
C1684 C 0.30287 0.97775 0.39194 0.0
C1685 C 0.3146 0.9811 0.42706 0.0
C1686 C 0.32707 0.98497 0.40105 0.0
H1687 H 0.33707 0.96572 0.24244 0.0
H1688 H 0.3271 0.96502 0.30206 0.0
H1689 H 0.32433 0.9686 0.22904 0.0
H1690 H 0.31639 0.98173 0.2574 0.0
H1691 H 0.29467 0.975 0.30229 0.0
H1692 H 0.4603 0.09511 0.11712 0.0
H1693 H 0.46055 0.11303 0.08065 0.0
H1694 H 0.44567 0.09468 0.91019 0.0
H1695 H 0.44525 0.07677 0.94588 0.0
H1696 H 0.46821 0.12414 0.91447 0.0
H1697 H 0.42002 0.10346 0.04399 0.0
H1698 H 0.43545 0.10672 0.08124 0.0
H1699 H 0.4259 0.09407 0.02675 0.0
C1700 C 0.45732 0.095 0.0716 0.0
C1701 C 0.45263 0.08443 0.03459 0.0
C1702 C 0.4575 0.10525 0.05088 0.0
C1703 C 0.45308 0.10511 0.99286 0.0
C1704 C 0.44918 0.09498 0.95503 0.0
H1705 H 0.42473 0.13627 0.75797 0.0
H1706 H 0.43827 0.12976 0.80389 0.0
C1707 C 0.4489 0.08471 0.97569 0.0
C1708 C 0.45078 0.11453 0.97296 0.0
H1709 H 0.42675 0.12031 0.97982 0.0
C1710 C 0.45931 0.12351 0.92932 0.0
C1711 C 0.43915 0.11362 0.99248 0.0
C1712 C 0.42951 0.10393 0.03847 0.0
C1713 C 0.45629 0.13147 0.90374 0.0
C1714 C 0.44422 0.1301 0.92123 0.0
C1715 C 0.43605 0.12143 0.96646 0.0
C1716 C 0.43899 0.13664 0.89083 0.0
C1717 C 0.46604 0.14119 0.85817 0.0
C1718 C 0.43505 0.14286 0.92394 0.0
C1719 C 0.42699 0.14621 0.89806 0.0
C1720 C 0.42293 0.14365 0.83832 0.0
C1721 C 0.42788 0.13848 0.80397 0.0
C1722 C 0.4357 0.13483 0.83022 0.0
H1723 H 0.47703 0.14448 0.86576 0.0
H1724 H 0.46226 0.13649 0.81421 0.0
H1725 H 0.46629 0.14983 0.85804 0.0
H1726 H 0.43747 0.14438 0.97068 0.0
H1727 H 0.42332 0.15024 0.92541 0.0
H1728 H 0.03958 0.45472 0.95312 0.0
H1729 H 0.01651 0.436 0.91495 0.0
H1730 H 0.99572 0.44492 0.03014 0.0
H1731 H 0.01895 0.46341 0.07083 0.0
H1732 H 0.98242 0.42029 0.03058 0.0
H1733 H 0.99018 0.43448 0.79894 0.0
H1734 H 0.00445 0.43437 0.82414 0.0
H1735 H 0.00234 0.44561 0.85631 0.0
C1736 C 0.0301 0.45274 0.97021 0.0
C1737 C 0.03107 0.46057 0.01473 0.0
C1738 C 0.01689 0.44211 0.94782 0.0
C1739 C 0.00434 0.43928 0.9681 0.0
C1740 C 0.00526 0.447 0.0132 0.0
H1741 H 0.93181 0.37264 0.76647 0.0
H1742 H 0.94661 0.3945 0.81071 0.0
C1743 C 0.01852 0.45752 0.03655 0.0
C1744 C 0.99035 0.42776 0.94443 0.0
H1745 H 0.97362 0.41103 0.8169 0.0
C1746 C 0.98036 0.41841 0.98378 0.0
C1747 C 0.98727 0.42541 0.88339 0.0
C1748 C 0.99658 0.4356 0.83846 0.0
C1749 C 0.96805 0.40634 0.96384 0.0
C1750 C 0.966 0.40334 0.90313 0.0
C1751 C 0.9753 0.41314 0.86358 0.0
C1752 C 0.95551 0.3898 0.88051 0.0
C1753 C 0.95757 0.39687 0.00836 0.0
C1754 C 0.9555 0.37988 0.90499 0.0
C1755 C 0.94696 0.36743 0.88053 0.0
C1756 C 0.93844 0.36462 0.82979 0.0
C1757 C 0.93824 0.37448 0.80554 0.0
C1758 C 0.94669 0.38697 0.83079 0.0
H1759 H 0.9571 0.40213 0.04475 0.0
H1760 H 0.94673 0.38985 0.98847 0.0
H1761 H 0.96111 0.39142 0.0278 0.0
H1762 H 0.96256 0.38185 0.94181 0.0
H1763 H 0.9475 0.36013 0.90029 0.0
H1764 H 0.71078 0.67975 0.7586 0.0
H1765 H 0.68837 0.66826 0.80976 0.0
H1766 H 0.71118 0.67773 0.97602 0.0
H1767 H 0.73352 0.68941 0.92573 0.0
H1768 H 0.67473 0.64763 0.88896 0.0
H1769 H 0.69057 0.69313 0.99356 0.0
H1770 H 0.70019 0.69316 0.93454 0.0
H1771 H 0.70292 0.68985 0.00832 0.0
C1772 C 0.71099 0.67929 0.80601 0.0
C1773 C 0.72394 0.68566 0.83814 0.0
C1774 C 0.69819 0.67274 0.83516 0.0
C1775 C 0.69818 0.67242 0.89671 0.0
C1776 C 0.711 0.67816 0.92859 0.0
H1777 H 0.63188 0.64438 0.14856 0.0
H1778 H 0.65382 0.65144 0.10287 0.0
C1779 C 0.72376 0.6848 0.89968 0.0
C1780 C 0.68486 0.6665 0.92791 0.0
H1781 H 0.66932 0.67346 0.02505 0.0
C1782 C 0.67352 0.65327 0.91867 0.0
C1783 C 0.68333 0.6739 0.96664 0.0
C1784 C 0.69484 0.68832 0.97603 0.0
C1785 C 0.66072 0.6472 0.94756 0.0
C1786 C 0.65923 0.65461 0.98621 0.0
C1787 C 0.67059 0.6678 0.99585 0.0
C1788 C 0.64564 0.64917 0.01391 0.0
C1789 C 0.6489 0.63292 0.9368 0.0
C1790 C 0.63385 0.64558 0.97894 0.0
C1791 C 0.62141 0.64166 0.00474 0.0
C1792 C 0.6205 0.64126 0.06616 0.0
C1793 C 0.63223 0.64455 0.10118 0.0
C1794 C 0.64475 0.64858 0.0752 0.0
H1795 H 0.65289 0.62794 0.91833 0.0
H1796 H 0.64342 0.628 0.97799 0.0
H1797 H 0.64098 0.6318 0.90494 0.0
H1798 H 0.63442 0.64619 0.93161 0.0
H1799 H 0.61257 0.63916 0.9764 0.0
H1800 H 0.99001 0.62263 0.90787 0.0
H1801 H 0.96858 0.62004 0.87913 0.0
H1802 H 0.94888 0.59897 0.03787 0.0
H1803 H 0.97035 0.60141 0.06733 0.0
H1804 H 0.93193 0.59044 0.90529 0.0
H1805 H 0.95858 0.63995 -0.00088 0.0
H1806 H 0.96913 0.63738 0.9572 0.0
H1807 H 0.9625 0.62934 0.0261 0.0
C1808 C 0.98107 0.61722 0.93637 0.0
C1809 C 0.98196 0.6123 0.99018 0.0
C1810 C 0.96881 0.61572 0.91967 0.0
C1811 C 0.95722 0.60931 0.95637 0.0
C1812 C 0.95774 0.60387 0.00888 0.0
H1813 H 0.89972 0.62819 0.92029 0.0
H1814 H 0.91104 0.61927 0.96257 0.0
C1815 C 0.97003 0.60533 0.02568 0.0
C1816 C 0.9454 0.60975 0.94258 0.0
H1817 H 0.9377 0.63086 0.94153 0.0
C1818 C 0.93301 0.59917 0.91384 0.0
C1819 C 0.94689 0.62111 0.95437 0.0
C1820 C 0.95994 0.63261 0.98618 0.0
C1821 C 0.9222 0.59988 0.89469 0.0
C1822 C 0.92403 0.61155 0.90381 0.0
C1823 C 0.93624 0.6219 0.93457 0.0
C1824 C 0.91404 0.61377 0.87917 0.0
C1825 C 0.90899 0.58819 0.86477 0.0
C1826 C 0.91138 0.61313 0.81831 0.0
C1827 C 0.90464 0.61804 0.79404 0.0
C1828 C 0.90079 0.62393 0.83021 0.0
C1829 C 0.90263 0.62377 0.89129 0.0
C1830 C 0.90911 0.61867 0.91553 0.0
H1831 H 0.90702 0.57904 0.87897 0.0
H1832 H 0.89951 0.58751 0.87393 0.0
H1833 H 0.91038 0.58902 0.81669 0.0
H1834 H 0.91536 0.60967 0.78918 0.0
H1835 H 0.90347 0.61812 0.74678 0.0
H1836 H 0.41136 0.39404 0.94407 0.0
H1837 H 0.40166 0.37213 0.91307 0.0
H1838 H 0.40234 0.36179 0.09276 0.0
H1839 H 0.41222 0.38385 0.12454 0.0
H1840 H 0.41088 0.35495 0.94114 0.0
H1841 H 0.35911 0.33852 0.02589 0.0
H1842 H 0.37304 0.35538 0.00945 0.0
H1843 H 0.37479 0.34816 0.07302 0.0
C1844 C 0.40977 0.38724 0.97703 0.0
C1845 C 0.41245 0.39068 0.03687 0.0
C1846 C 0.40426 0.37473 0.95914 0.0
C1847 C 0.40122 0.36539 0.0007 0.0
C1848 C 0.40462 0.36892 0.06015 0.0
H1849 H 0.34016 0.28225 0.924 0.0
H1850 H 0.35757 0.30266 0.97682 0.0
C1851 C 0.41027 0.38152 0.07814 0.0
C1852 C 0.39302 0.35168 0.98184 0.0
H1853 H 0.35909 0.32351 0.97148 0.0
C1854 C 0.3996 0.34797 0.94842 0.0
C1855 C 0.37833 0.34266 0.99165 0.0
C1856 C 0.37079 0.34629 0.02673 0.0
C1857 C 0.39175 0.33547 0.92332 0.0
C1858 C 0.37689 0.32665 0.93048 0.0
C1859 C 0.37046 0.33025 0.9659 0.0
C1860 C 0.36757 0.314 0.89877 0.0
C1861 C 0.39946 0.33187 0.88932 0.0
C1862 C 0.36744 0.31355 0.83729 0.0
C1863 C 0.35758 0.30187 0.80695 0.0
C1864 C 0.34747 0.29045 0.8375 0.0
C1865 C 0.34776 0.29088 0.89912 0.0
C1866 C 0.35773 0.30253 0.92942 0.0
H1867 H 0.41068 0.33744 0.90534 0.0
H1868 H 0.39424 0.32132 0.89245 0.0
H1869 H 0.39953 0.33433 0.84248 0.0
H1870 H 0.37461 0.32234 0.81251 0.0
H1871 H 0.35757 0.30188 0.75949 0.0
H1872 H 0.73064 0.10781 0.89588 0.0
H1873 H 0.70769 0.0933 0.94167 0.0
H1874 H 0.68632 0.08398 0.77205 0.0
H1875 H 0.70928 0.09848 0.72544 0.0
H1876 H 0.68201 0.09189 0.9346 0.0
H1877 H 0.67462 0.04876 0.84277 0.0
H1878 H 0.69167 0.06471 0.84625 0.0
H1879 H 0.67854 0.06109 0.79132 0.0
C1880 C 0.72107 0.10281 0.8682 0.0
C1881 C 0.7218 0.10419 0.80685 0.0
C1882 C 0.70797 0.09455 0.89456 0.0
C1883 C 0.69538 0.08749 0.86013 0.0
C1884 C 0.69598 0.08929 0.79922 0.0
H1885 H 0.6095 0.02197 0.93983 0.0
H1886 H 0.63096 0.04005 0.89348 0.0
C1887 C 0.7091 0.0976 0.77273 0.0
C1888 C 0.68173 0.07757 0.88775 0.0
H1889 H 0.65626 0.04476 0.89898 0.0
C1890 C 0.67631 0.08158 0.92678 0.0
C1891 C 0.67445 0.06415 0.87757 0.0
C1892 C 0.68011 0.05934 0.83757 0.0
C1893 C 0.66359 0.07246 0.95539 0.0
C1894 C 0.65635 0.05902 0.94554 0.0
C1895 C 0.66181 0.05506 0.90638 0.0
C1896 C 0.64304 0.0488 0.97491 0.0
C1897 C 0.6579 0.0773 0.99497 0.0
C1898 C 0.64266 0.04774 0.03628 0.0
C1899 C 0.63032 0.03741 0.06315 0.0
C1900 C 0.61824 0.02787 0.02894 0.0
C1901 C 0.61864 0.02909 0.96755 0.0
C1902 C 0.63089 0.03944 0.94089 0.0
H1903 H 0.66239 0.08752 0.98509 0.0
H1904 H 0.64614 0.07111 0.9908 0.0
H1905 H 0.66089 0.07697 0.04118 0.0
H1906 H 0.65202 0.05469 0.06335 0.0
H1907 H 0.63038 0.03671 0.11049 0.0
H1908 H 0.66994 0.96106 0.28528 0.0
H1909 H 0.65002 0.95896 0.23758 0.0
H1910 H 0.62644 0.94285 0.39557 0.0
H1911 H 0.64641 0.94503 0.44424 0.0
H1912 H 0.62006 0.93725 0.21941 0.0
H1913 H 0.63042 0.97634 0.36471 0.0
H1914 H 0.64305 0.97322 0.35814 0.0
H1915 H 0.62757 0.96259 0.4007 0.0
C1916 C 0.66049 0.95695 0.30991 0.0
C1917 C 0.65986 0.95339 0.36895 0.0
C1918 C 0.64908 0.9557 0.28237 0.0
C1919 C 0.63685 0.95088 0.31328 0.0
C1920 C 0.63588 0.94672 0.37125 0.0
H1921 H 0.57526 0.96337 0.22097 0.0
H1922 H 0.58493 0.95307 0.26587 0.0
C1923 C 0.6473 0.94798 0.39894 0.0
C1924 C 0.62575 0.95133 0.28618 0.0
H1925 H 0.61234 0.96791 0.29267 0.0
C1926 C 0.61821 0.94383 0.23567 0.0
C1927 C 0.62342 0.95995 0.30753 0.0
C1928 C 0.63158 0.96858 0.36047 0.0
C1929 C 0.60848 0.94484 0.20546 0.0
C1930 C 0.6065 0.95378 0.22581 0.0
C1931 C 0.61377 0.96099 0.27729 0.0
C1932 C 0.59792 0.95676 0.19267 0.0
C1933 C 0.60047 0.93637 0.15212 0.0
C1934 C 0.60147 0.96169 0.13545 0.0
C1935 C 0.5958 0.96744 0.10953 0.0
C1936 C 0.58675 0.96855 0.14104 0.0
C1937 C 0.58237 0.96275 0.19628 0.0
C1938 C 0.58785 0.95684 0.22179 0.0
H1939 H 0.59929 0.92724 0.15445 0.0
H1940 H 0.58976 0.93384 0.14705 0.0
H1941 H 0.60649 0.94169 0.11247 0.0
H1942 H 0.60945 0.96202 0.11257 0.0
H1943 H 0.59945 0.97202 0.06715 0.0
H1944 H 0.04119 0.64593 0.21377 0.0
H1945 H 0.05334 0.66548 0.27475 0.0
H1946 H 0.06155 0.68848 0.12076 0.0
H1947 H 0.04978 0.66897 0.05898 0.0
H1948 H 0.08424 0.70108 0.2005 0.0
H1949 H 0.03412 0.68126 0.31153 0.0
H1950 H 0.03963 0.67123 0.31805 0.0
H1951 H 0.03455 0.6737 0.24721 0.0
C1952 C 0.04567 0.65516 0.19274 0.0
C1953 C 0.04435 0.65589 0.13158 0.0
C1954 C 0.05256 0.66632 0.22774 0.0
C1955 C 0.05802 0.67837 0.20245 0.0
C1956 C 0.05732 0.67925 0.14118 0.0
H1957 H 0.08338 0.75233 0.29549 0.0
H1958 H 0.08046 0.73398 0.25052 0.0
C1959 C 0.05058 0.6681 0.10595 0.0
C1960 C 0.06381 0.68992 0.23994 0.0
H1961 H 0.05457 0.70164 0.34434 0.0
C1962 C 0.07779 0.70119 0.2322 0.0
C1963 C 0.05537 0.69003 0.2814 0.0
C1964 C 0.04005 0.67846 0.28981 0.0
C1965 C 0.08348 0.71263 0.26422 0.0
C1966 C 0.07493 0.71279 0.3046 0.0
C1967 C 0.06114 0.70142 0.31373 0.0
C1968 C 0.07932 0.72495 0.33276 0.0
C1969 C 0.09852 0.72449 0.25415 0.0
C1970 C 0.07981 0.72603 0.39408 0.0
C1971 C 0.08151 0.73657 0.42009 0.0
C1972 C 0.08245 0.74601 0.385 0.0
C1973 C 0.08262 0.74518 0.32372 0.0
C1974 C 0.08108 0.73475 0.2979 0.0
H1975 H 0.10491 0.72182 0.23596 0.0
H1976 H 0.09839 0.73091 0.22213 0.0
H1977 H 0.10381 0.7301 0.29549 0.0
H1978 H 0.07833 0.71847 0.42165 0.0
H1979 H 0.08128 0.73692 0.46738 0.0
H1980 H 0.37201 0.41131 0.05552 0.0
H1981 H 0.34942 0.40393 0.09585 0.0
H1982 H 0.36798 0.41201 0.27087 0.0
H1983 H 0.39043 0.41931 0.23139 0.0
H1984 H 0.33471 0.3827 0.17808 0.0
H1985 H 0.34657 0.42772 0.2689 0.0
H1986 H 0.35692 0.42792 0.21256 0.0
H1987 H 0.35965 0.4255 0.28788 0.0
C1988 C 0.37133 0.41173 0.10249 0.0
C1989 C 0.38297 0.41581 0.14029 0.0
C1990 C 0.35844 0.40753 0.12541 0.0
C1991 C 0.35712 0.40759 0.18624 0.0
C1992 C 0.36887 0.41211 0.22377 0.0
H1993 H 0.29437 0.37596 0.4471 0.0
H1994 H 0.31582 0.38882 0.38939 0.0
C1995 C 0.38165 0.41617 0.20107 0.0
C1996 C 0.34315 0.4016 0.21151 0.0
H1997 H 0.32596 0.40755 0.30402 0.0
C1998 C 0.33265 0.38814 0.20477 0.0
C1999 C 0.34066 0.40875 0.24685 0.0
C2000 C 0.35149 0.4233 0.25421 0.0
C2001 C 0.31993 0.38148 0.23461 0.0
C2002 C 0.31749 0.38859 0.27085 0.0
C2003 C 0.32785 0.40214 0.27625 0.0
C2004 C 0.3045 0.38199 0.30528 0.0
C2005 C 0.30956 0.36683 0.22932 0.0
C2006 C 0.29104 0.37428 0.27708 0.0
C2007 C 0.27883 0.36682 0.30984 0.0
C2008 C 0.27983 0.36712 0.37149 0.0
C2009 C 0.29327 0.3755 0.3997 0.0
C2010 C 0.30552 0.38285 0.36679 0.0
H2011 H 0.31465 0.36271 0.21269 0.0
H2012 H 0.30494 0.36233 0.27226 0.0
H2013 H 0.30078 0.36405 0.19795 0.0
H2014 H 0.28999 0.37376 0.22967 0.0
H2015 H 0.26861 0.36061 0.28677 0.0
H2016 H 0.7252 0.79344 0.60014 0.0
H2017 H 0.73932 0.78727 0.64226 0.0
H2018 H 0.75276 0.78706 0.46999 0.0
H2019 H 0.73863 0.79326 0.42715 0.0
H2020 H 0.73882 0.76333 0.53487 0.0
H2021 H 0.78255 0.80583 0.66697 0.0
H2022 H 0.76521 0.8013 0.67709 0.0
H2023 H 0.77324 0.80724 0.60719 0.0
C2024 C 0.73134 0.7923 0.57119 0.0
C2025 C 0.73069 0.79371 0.51017 0.0
C2026 C 0.73952 0.78891 0.59549 0.0
C2027 C 0.7472 0.78687 0.55931 0.0
C2028 C 0.74701 0.78874 0.49864 0.0
H2029 H 0.77653 0.74132 0.63074 0.0
H2030 H 0.77434 0.75719 0.58613 0.0
C2031 C 0.73891 0.79224 0.47426 0.0
C2032 C 0.75369 0.78103 0.58391 0.0
H2033 H 0.77813 0.78556 0.68536 0.0
C2034 C 0.74757 0.76824 0.56708 0.0
C2035 C 0.76492 0.78743 0.62661 0.0
C2036 C 0.77197 0.80125 0.64535 0.0
C2037 C 0.75203 0.76148 0.59318 0.0
C2038 C 0.7633 0.76785 0.63597 0.0
C2039 C 0.76959 0.78074 0.65226 0.0
C2040 C 0.7681 0.76094 0.66574 0.0
C2041 C 0.74414 0.74736 0.57652 0.0
C2042 C 0.76652 0.75867 0.72637 0.0
C2043 C 0.76818 0.74987 0.75236 0.0
C2044 C 0.77124 0.74315 0.7177 0.0
C2045 C 0.77402 0.7463 0.65818 0.0
C2046 C 0.77268 0.75529 0.63263 0.0
H2047 H 0.73358 0.74309 0.55539 0.0
H2048 H 0.75039 0.74659 0.54477 0.0
H2049 H 0.74255 0.74144 0.61552 0.0
H2050 H 0.76308 0.76302 0.75278 0.0
H2051 H 0.76594 0.74754 0.7983 0.0
H2052 H 0.28202 0.0034 0.60275 0.0
H2053 H 0.29436 0.02537 0.64067 0.0
H2054 H 0.29574 0.03903 0.46583 0.0
H2055 H 0.28309 0.01686 0.42716 0.0
H2056 H 0.32287 0.05133 0.53084 0.0
H2057 H 0.28361 0.05015 0.65911 0.0
H2058 H 0.2839 0.03666 0.67076 0.0
H2059 H 0.27848 0.03879 0.60013 0.0
C2060 C 0.28456 0.01096 0.57236 0.0
C2061 C 0.28155 0.00835 0.51186 0.0
C2062 C 0.29159 0.02353 0.59425 0.0
C2063 C 0.29582 0.03377 0.55613 0.0
C2064 C 0.2924 0.03118 0.49596 0.0
H2065 H 0.36132 0.11668 0.62748 0.0
H2066 H 0.34263 0.09599 0.57975 0.0
C2067 C 0.28518 0.01853 0.474 0.0
C2068 C 0.30542 0.04729 0.5786 0.0
H2069 H 0.30803 0.068 0.67783 0.0
C2070 C 0.31961 0.0551 0.56223 0.0
C2071 C 0.30112 0.05201 0.62022 0.0
C2072 C 0.28592 0.04403 0.6384 0.0
C2073 C 0.3298 0.06735 0.5881 0.0
C2074 C 0.32555 0.07208 0.63019 0.0
C2075 C 0.31126 0.06437 0.64557 0.0
C2076 C 0.33592 0.08485 0.65984 0.0
C2077 C 0.34512 0.07479 0.57212 0.0
C2078 C 0.33787 0.08559 0.72115 0.0
C2079 C 0.34841 0.09749 0.74881 0.0
C2080 C 0.35723 0.10881 0.71547 0.0
C2081 C 0.35487 0.10809 0.65432 0.0
C2082 C 0.34423 0.09626 0.62689 0.0
H2083 H 0.34709 0.06834 0.55242 0.0
H2084 H 0.34781 0.08231 0.53932 0.0
H2085 H 0.35238 0.07973 0.61112 0.0
H2086 H 0.3315 0.0769 0.74745 0.0
H2087 H 0.34993 0.09775 0.796 0.0
H2088 H 0.04273 0.3515 0.41106 0.0
H2089 H 0.0186 0.34166 0.44185 0.0
H2090 H 0.03565 0.36248 0.60635 0.0
H2091 H 0.05964 0.37229 0.57664 0.0
H2092 H 0.00458 0.32709 0.55863 0.0
H2093 H 0.01139 0.37278 0.51974 0.0
H2094 H 0.02192 0.36925 0.48429 0.0
H2095 H 0.02577 0.37456 0.55946 0.0
C2096 C 0.04133 0.35392 0.45392 0.0
C2097 C 0.05314 0.36278 0.49113 0.0
C2098 C 0.02756 0.34827 0.47141 0.0
C2099 C 0.02544 0.35146 0.52608 0.0
C2100 C 0.03713 0.36 0.56381 0.0
H2101 H 0.95786 0.32523 0.75479 0.0
H2102 H 0.97755 0.32889 0.70308 0.0
C2103 C 0.05084 0.3656 0.54661 0.0
C2104 C 0.01114 0.34639 0.5436 0.0
H2105 H 0.99163 0.35643 0.57459 0.0
C2106 C 0.00161 0.33341 0.56146 0.0
C2107 C 0.00733 0.35467 0.54662 0.0
C2108 C 0.01706 0.36858 0.52612 0.0
C2109 C 0.9885 0.32863 0.58468 0.0
C2110 C 0.98502 0.33712 0.5906 0.0
C2111 C 0.99434 0.34994 0.57033 0.0
C2112 C 0.9721 0.33322 0.61978 0.0
C2113 C 0.97856 0.31458 0.60294 0.0
C2114 C 0.96253 0.33448 0.59017 0.0
C2115 C 0.95138 0.33255 0.6197 0.0
C2116 C 0.94961 0.32936 0.67961 0.0
C2117 C 0.9589 0.32764 0.70867 0.0
C2118 C 0.97011 0.32963 0.67905 0.0
H2119 H 0.98072 0.30856 0.58 0.0
H2120 H 0.98006 0.31393 0.65075 0.0
H2121 H 0.9673 0.31043 0.59386 0.0
H2122 H 0.96392 0.3373 0.54451 0.0
H2123 H 0.94438 0.33388 0.5958 0.0
H2124 H 0.2761 0.25716 0.77158 0.0
H2125 H 0.26239 0.26399 0.73112 0.0
H2126 H 0.27836 0.26732 0.55986 0.0
H2127 H 0.29234 0.26093 0.60004 0.0
H2128 H 0.28422 0.28969 0.59705 0.0
H2129 H 0.22712 0.24897 0.62533 0.0
H2130 H 0.23802 0.25332 0.69085 0.0
H2131 H 0.24062 0.24676 0.62897 0.0
C2132 C 0.27638 0.25901 0.72502 0.0
C2133 C 0.2854 0.25861 0.68911 0.0
C2134 C 0.26847 0.26284 0.70188 0.0
C2135 C 0.2693 0.26609 0.64238 0.0
C2136 C 0.27755 0.26483 0.60586 0.0
H2137 H 0.23475 0.29877 0.44135 0.0
H2138 H 0.23928 0.28387 0.47877 0.0
C2139 C 0.28556 0.26118 0.62897 0.0
C2140 C 0.26342 0.27265 0.6199 0.0
H2141 H 0.2331 0.26975 0.60184 0.0
C2142 C 0.27301 0.28525 0.59761 0.0
C2143 C 0.24881 0.26686 0.62071 0.0
C2144 C 0.23801 0.25318 0.64225 0.0
C2145 C 0.26845 0.29231 0.57693 0.0
C2146 C 0.25394 0.28669 0.57931 0.0
C2147 C 0.24424 0.27401 0.60053 0.0
C2148 C 0.24898 0.29419 0.56096 0.0
C2149 C 0.2792 0.30578 0.55293 0.0
C2150 C 0.25263 0.30467 0.5956 0.0
C2151 C 0.25017 0.31322 0.57441 0.0
C2152 C 0.24397 0.31142 0.51809 0.0
C2153 C 0.23959 0.30046 0.48478 0.0
C2154 C 0.2421 0.29191 0.50611 0.0
H2155 H 0.28945 0.30776 0.54438 0.0
H2156 H 0.27505 0.30711 0.51156 0.0
H2157 H 0.28129 0.3131 0.58515 0.0
H2158 H 0.25795 0.30656 0.63807 0.0
H2159 H 0.25361 0.3215 0.60144 0.0
H2160 H 0.76721 0.09142 0.77947 0.0
H2161 H 0.7629 0.07125 0.74962 0.0
H2162 H 0.75927 0.07915 0.56875 0.0
H2163 H 0.76321 0.09906 0.59799 0.0
H2164 H 0.73473 0.05248 0.67178 0.0
H2165 H 0.78432 0.06498 0.5818 0.0
H2166 H 0.78452 0.07442 0.63961 0.0
H2167 H 0.77981 0.07564 0.56578 0.0
C2168 C 0.76592 0.08906 0.73321 0.0
C2169 C 0.76548 0.0968 0.69107 0.0
C2170 C 0.76346 0.07755 0.71631 0.0
C2171 C 0.76088 0.07382 0.65704 0.0
C2172 C 0.76142 0.08198 0.61463 0.0
H2173 H 0.72963 0.00804 0.43682 0.0
H2174 H 0.74238 0.02959 0.4819 0.0
C2175 C 0.76363 0.09334 0.63148 0.0
C2176 C 0.75531 0.06056 0.63987 0.0
H2177 H 0.76318 0.04353 0.56437 0.0
C2178 C 0.74096 0.05043 0.64911 0.0
C2179 C 0.76347 0.0581 0.60937 0.0
C2180 C 0.77893 0.06881 0.59855 0.0
C2181 C 0.73435 0.0379 0.62676 0.0
C2182 C 0.74249 0.03534 0.59617 0.0
C2183 C 0.75697 0.04547 0.58806 0.0
C2184 C 0.73594 0.02236 0.57004 0.0
C2185 C 0.71854 0.02775 0.63354 0.0
C2186 C 0.72844 0.01117 0.60478 0.0
C2187 C 0.72088 0.99885 0.57899 0.0
C2188 C 0.72104 0.99749 0.51811 0.0
C2189 C 0.72926 0.00875 0.48382 0.0
C2190 C 0.73659 0.02108 0.50955 0.0
H2191 H 0.71336 0.03224 0.64264 0.0
H2192 H 0.71336 0.02159 0.59351 0.0
H2193 H 0.71661 0.02139 0.67105 0.0
H2194 H 0.72812 0.01193 0.65176 0.0
H2195 H 0.71475 0.99041 0.60678 0.0
H2196 H 0.9228 0.66836 0.6035 0.0
H2197 H 0.94477 0.68527 0.5555 0.0
H2198 H 0.96044 0.70877 0.71279 0.0
H2199 H 0.93846 0.69193 0.76148 0.0
H2200 H 0.96535 0.72254 0.59955 0.0
H2201 H 0.98255 0.69144 0.60738 0.0
H2202 H 0.96513 0.68414 0.57574 0.0
H2203 H 0.96868 0.68836 0.65226 0.0
C2204 C 0.93085 0.67716 0.62791 0.0
C2205 C 0.92892 0.67872 0.68666 0.0
C2206 C 0.94339 0.68681 0.60031 0.0
C2207 C 0.95423 0.69817 0.63086 0.0
C2208 C 0.95216 0.70003 0.6886 0.0
H2209 H 0.04341 0.75141 0.58521 0.0
H2210 H 0.01925 0.73716 0.61955 0.0
C2211 C 0.93962 0.69038 0.71637 0.0
C2212 C 0.96809 0.70772 0.60396 0.0
H2213 H 0.99763 0.7118 0.56172 0.0
C2214 C 0.9724 0.72021 0.59088 0.0
C2215 C 0.97725 0.70461 0.59324 0.0
C2216 C 0.97328 0.69146 0.60818 0.0
C2217 C 0.98574 0.72972 0.56737 0.0
C2218 C 0.99488 0.7266 0.55687 0.0
C2219 C 0.99051 0.71409 0.56957 0.0
C2220 C 0.00945 0.73635 0.53645 0.0
C2221 C 0.99018 0.74314 0.55538 0.0
C2222 C 0.01191 0.74076 0.47839 0.0
C2223 C 0.02579 0.74893 0.45827 0.0
C2224 C 0.03735 0.75272 0.49602 0.0
C2225 C 0.03478 0.74861 0.55472 0.0
C2226 C 0.02097 0.74048 0.57459 0.0
H2227 H 0.98253 0.74444 0.57215 0.0
H2228 H 0.00084 0.75063 0.57588 0.0
H2229 H 0.99096 0.74484 0.50739 0.0
H2230 H 0.00309 0.73755 0.44822 0.0
H2231 H 0.02741 0.75191 0.41285 0.0
loop_
_geom_bond_atom_site_label_1
_geom_bond_atom_site_label_2
_geom_bond_distance
_geom_bond_site_symmetry_2
_ccdc_geom_bond_type
Co0 O3 1.970 . S
Co0 N17 1.989 . S
Co0 O25 1.967 . S
Co0 O32 1.920 1_554 S
Co1 O4 1.966 . S
Co1 N10 2.022 . S
Co1 N18 1.993 . S
Co1 O26 1.941 . S
C2 O3 1.258 . S
C2 O4 1.263 . S
O3 Co0 1.970 . S
O3 C2 1.258 . S
O4 Co1 1.966 . S
O4 C2 1.263 . S
C5 O6 1.235 . S
C5 O32 1.289 . S
O6 C5 1.235 . S
C7 C9 1.400 . S
C7 N10 1.351 . S
C7 C12 1.501 . S
C8 C9 1.387 . S
C8 N11 1.341 . S
C9 C7 1.400 . S
C9 C8 1.387 . S
N10 Co1 2.022 . S
N10 C7 1.351 . S
N10 N11 1.365 . S
N11 C8 1.341 . S
N11 N10 1.365 . S
N11 H31 0.862 . S
C12 C7 1.501 . S
C12 H13 0.961 . S
C12 H14 0.961 . S
C12 H15 0.960 . S
H13 C12 0.961 . S
H14 C12 0.961 . S
H15 C12 0.960 . S
C16 N17 1.342 . S
C16 C20 1.401 . S
C16 C21 1.499 1_554 S
N17 Co0 1.989 . S
N17 C16 1.342 . S
N17 N18 1.388 . S
N18 Co1 1.993 . S
N18 N17 1.388 . S
N18 C19 1.346 . S
C19 N18 1.346 . S
C19 C20 1.396 . S
C19 C29 1.510 . S
C20 C16 1.401 . S
C20 C19 1.396 . S
C21 C16 1.499 1_556 S
C21 H22 0.959 . S
C21 H23 0.960 . S
C21 H24 0.961 . S
H22 C21 0.959 . S
H23 C21 0.960 . S
H24 C21 0.961 . S
O25 Co0 1.967 . S
O25 C33 1.258 . S
O26 Co1 1.941 . S
O26 C33 1.266 . S
H27 C29 0.959 . S
H28 C29 0.961 . S
C29 C19 1.510 . S
C29 H27 0.959 . S
C29 H28 0.961 . S
C29 H30 0.960 . S
H30 C29 0.960 . S
H31 N11 0.862 . S
O32 Co0 1.920 1_556 S
O32 C5 1.289 . S
C33 O25 1.258 . S
C33 O26 1.266 . S
Co34 O37 1.970 . S
Co34 N51 1.989 . S
Co34 O59 1.967 . S
Co34 O66 1.920 1_554 S
Co35 O38 1.966 . S
Co35 N44 2.022 . S
Co35 N52 1.993 . S
Co35 O60 1.941 . S
C36 O37 1.258 . S
C36 O38 1.263 . S
O37 Co34 1.970 . S
O37 C36 1.258 . S
O38 Co35 1.966 . S
O38 C36 1.263 . S
C39 O40 1.235 . S
C39 O66 1.289 . S
O40 C39 1.235 . S
C41 C43 1.400 . S
C41 N44 1.351 . S
C41 C46 1.501 . S
C42 C43 1.387 . S
C42 N45 1.341 . S
C43 C41 1.400 . S
C43 C42 1.387 . S
N44 Co35 2.022 . S
N44 C41 1.351 . S
N44 N45 1.365 . S
N45 C42 1.341 . S
N45 N44 1.365 . S
N45 H65 0.862 . S
C46 C41 1.501 . S
C46 H47 0.961 . S
C46 H48 0.961 . S
C46 H49 0.960 . S
H47 C46 0.961 . S
H48 C46 0.961 . S
H49 C46 0.960 . S
C50 N51 1.342 . S
C50 C54 1.401 . S
C50 C55 1.499 1_554 S
N51 Co34 1.989 . S
N51 C50 1.342 . S
N51 N52 1.388 . S
N52 Co35 1.993 . S
N52 N51 1.388 . S
N52 C53 1.346 . S
C53 N52 1.346 . S
C53 C54 1.396 . S
C53 C63 1.510 . S
C54 C50 1.401 . S
C54 C53 1.396 . S
C55 C50 1.499 1_556 S
C55 H56 0.959 . S
C55 H57 0.960 . S
C55 H58 0.961 . S
H56 C55 0.959 . S
H57 C55 0.960 . S
H58 C55 0.961 . S
O59 Co34 1.967 . S
O59 C67 1.258 . S
O60 Co35 1.941 . S
O60 C67 1.266 . S
H61 C63 0.959 . S
H62 C63 0.961 . S
C63 C53 1.510 . S
C63 H61 0.959 . S
C63 H62 0.961 . S
C63 H64 0.960 . S
H64 C63 0.960 . S
H65 N45 0.862 . S
O66 Co34 1.920 1_556 S
O66 C39 1.289 . S
C67 O59 1.258 . S
C67 O60 1.266 . S
Co68 O71 1.970 . S
Co68 N85 1.989 . S
Co68 O93 1.967 . S
Co68 O100 1.920 . S
Co69 O72 1.966 . S
Co69 N78 2.022 1_554 S
Co69 N86 1.993 . S
Co69 O94 1.941 . S
C70 O71 1.258 . S
C70 O72 1.263 . S
O71 Co68 1.970 . S
O71 C70 1.258 . S
O72 Co69 1.966 . S
O72 C70 1.263 . S
C73 O74 1.235 . S
C73 O100 1.289 . S
O74 C73 1.235 . S
C75 C77 1.400 . S
C75 N78 1.351 . S
C75 C80 1.501 . S
C76 C77 1.387 . S
C76 N79 1.341 . S
C77 C75 1.400 . S
C77 C76 1.387 . S
N78 Co69 2.022 1_556 S
N78 C75 1.351 . S
N78 N79 1.365 . S
N79 C76 1.341 . S
N79 N78 1.365 . S
N79 H99 0.862 . S
C80 C75 1.501 . S
C80 H81 0.961 . S
C80 H82 0.961 . S
C80 H83 0.960 . S
H81 C80 0.961 . S
H82 C80 0.961 . S
H83 C80 0.960 . S
C84 N85 1.342 . S
C84 C88 1.401 . S
C84 C89 1.499 . S
N85 Co68 1.989 . S
N85 C84 1.342 . S
N85 N86 1.388 . S
N86 Co69 1.993 . S
N86 N85 1.388 . S
N86 C87 1.346 . S
C87 N86 1.346 . S
C87 C88 1.396 . S
C87 C97 1.510 1_554 S
C88 C84 1.401 . S
C88 C87 1.396 . S
C89 C84 1.499 . S
C89 H90 0.959 . S
C89 H91 0.960 . S
C89 H92 0.961 . S
H90 C89 0.959 . S
H91 C89 0.960 . S
H92 C89 0.961 . S
O93 Co68 1.967 . S
O93 C101 1.258 . S
O94 Co69 1.941 . S
O94 C101 1.266 . S
H95 C97 0.959 . S
H96 C97 0.961 . S
C97 C87 1.510 1_556 S
C97 H95 0.959 . S
C97 H96 0.961 . S
C97 H98 0.960 . S
H98 C97 0.960 . S
H99 N79 0.862 . S
O100 Co68 1.920 . S
O100 C73 1.289 . S
C101 O93 1.258 . S
C101 O94 1.266 . S
Co102 O105 1.970 1_455 S
Co102 N119 1.989 . S
Co102 O127 1.967 . S
Co102 O134 1.920 . S
Co103 O106 1.966 . S
Co103 N112 2.022 . S
Co103 N120 1.993 1_556 S
Co103 O128 1.941 1_556 S
C104 O105 1.258 . S
C104 O106 1.263 1_654 S
O105 Co102 1.970 1_655 S
O105 C104 1.258 . S
O106 Co103 1.966 . S
O106 C104 1.263 1_456 S
C107 O108 1.231 1_455 S
C107 O134 1.295 . S
O108 C107 1.231 1_655 S
C109 C111 1.400 . S
C109 N112 1.351 . S
C109 C114 1.501 . S
C110 C111 1.387 . S
C110 N113 1.341 . S
C111 C109 1.400 . S
C111 C110 1.387 . S
N112 Co103 2.022 . S
N112 C109 1.351 . S
N112 N113 1.365 . S
N113 C110 1.341 . S
N113 N112 1.365 . S
N113 H133 0.862 . S
C114 C109 1.501 . S
C114 H115 0.961 . S
C114 H116 0.961 1_455 S
C114 H117 0.960 . S
H115 C114 0.961 . S
H116 C114 0.961 1_655 S
H117 C114 0.960 . S
C118 N119 1.342 . S
C118 C122 1.401 . S
C118 C123 1.499 . S
N119 Co102 1.989 . S
N119 C118 1.342 . S
N119 N120 1.388 . S
N120 Co103 1.993 1_554 S
N120 N119 1.388 . S
N120 C121 1.346 . S
C121 N120 1.346 . S
C121 C122 1.396 . S
C121 C131 1.510 1_554 S
C122 C118 1.401 . S
C122 C121 1.396 . S
C123 C118 1.499 . S
C123 H124 0.959 . S
C123 H125 0.960 . S
C123 H126 0.961 . S
H124 C123 0.959 . S
H125 C123 0.960 . S
H126 C123 0.961 . S
O127 Co102 1.967 . S
O127 C135 1.258 . S
O128 Co103 1.941 1_554 S
O128 C135 1.266 . S
H129 C131 0.959 . S
H130 C131 0.961 . S
C131 C121 1.510 1_556 S
C131 H129 0.959 . S
C131 H130 0.961 . S
C131 H132 0.960 . S
H132 C131 0.960 . S
H133 N113 0.862 . S
O134 Co102 1.920 . S
O134 C107 1.295 . S
C135 O127 1.258 . S
C135 O128 1.266 . S
Co136 O139 1.970 . S
Co136 N153 1.989 . S
Co136 O161 1.967 . S
Co136 O168 1.920 . S
Co137 O140 1.966 . S
Co137 N146 2.022 1_554 S
Co137 N154 1.993 . S
Co137 O162 1.941 . S
C138 O139 1.258 . S
C138 O140 1.263 . S
O139 Co136 1.970 . S
O139 C138 1.258 . S
O140 Co137 1.966 . S
O140 C138 1.263 . S
C141 O142 1.235 . S
C141 O168 1.289 . S
O142 C141 1.235 . S
C143 C145 1.400 . S
C143 N146 1.351 . S
C143 C148 1.501 . S
C144 C145 1.387 . S
C144 N147 1.341 . S
C145 C143 1.400 . S
C145 C144 1.387 . S
N146 Co137 2.022 1_556 S
N146 C143 1.351 . S
N146 N147 1.365 . S
N147 C144 1.341 . S
N147 N146 1.365 . S
N147 H167 0.862 . S
C148 C143 1.501 . S
C148 H149 0.961 . S
C148 H150 0.961 . S
C148 H151 0.960 . S
H149 C148 0.961 . S
H150 C148 0.961 . S
H151 C148 0.960 . S
C152 N153 1.342 . S
C152 C156 1.401 . S
C152 C157 1.499 . S
N153 Co136 1.989 . S
N153 C152 1.342 . S
N153 N154 1.388 . S
N154 Co137 1.993 . S
N154 N153 1.388 . S
N154 C155 1.346 . S
C155 N154 1.346 . S
C155 C156 1.396 . S
C155 C165 1.510 1_554 S
C156 C152 1.401 . S
C156 C155 1.396 . S
C157 C152 1.499 . S
C157 H158 0.959 . S
C157 H159 0.960 . S
C157 H160 0.961 . S
H158 C157 0.959 . S
H159 C157 0.960 . S
H160 C157 0.961 . S
O161 Co136 1.967 . S
O161 C169 1.258 . S
O162 Co137 1.941 . S
O162 C169 1.266 . S
H163 C165 0.959 . S
H164 C165 0.961 . S
C165 C155 1.510 1_556 S
C165 H163 0.959 . S
C165 H164 0.961 . S
C165 H166 0.960 . S
H166 C165 0.960 . S
H167 N147 0.862 . S
O168 Co136 1.920 . S
O168 C141 1.289 . S
C169 O161 1.258 . S
C169 O162 1.266 . S
Co170 O173 1.970 . S
Co170 N187 1.982 1_565 S
Co170 O195 1.967 1_565 S
Co170 O202 1.920 1_554 S
Co171 O174 1.966 1_545 S
Co171 N180 2.022 . S
Co171 N188 1.993 . S
Co171 O196 1.941 . S
C172 O173 1.258 . S
C172 O174 1.263 . S
O173 Co170 1.970 . S
O173 C172 1.258 . S
O174 Co171 1.966 1_565 S
O174 C172 1.263 . S
C175 O176 1.235 . S
C175 O202 1.289 . S
O176 C175 1.235 . S
C177 C179 1.400 . S
C177 N180 1.351 . S
C177 C182 1.501 1_545 S
C178 C179 1.387 . S
C178 N181 1.341 . S
C179 C177 1.400 . S
C179 C178 1.387 . S
N180 Co171 2.022 . S
N180 C177 1.351 . S
N180 N181 1.365 . S
N181 C178 1.341 . S
N181 N180 1.365 . S
N181 H201 0.862 . S
C182 C177 1.501 1_565 S
C182 H183 0.961 . S
C182 H184 0.961 . S
C182 H185 0.960 . S
H183 C182 0.961 . S
H184 C182 0.961 . S
H185 C182 0.960 . S
C186 N187 1.339 . S
C186 C190 1.410 . S
C186 C191 1.500 1_544 S
N187 Co170 1.982 1_545 S
N187 C186 1.339 . S
N187 N188 1.390 . S
N188 Co171 1.993 . S
N188 N187 1.390 . S
N188 C189 1.346 . S
C189 N188 1.346 . S
C189 C190 1.396 . S
C189 C199 1.510 . S
C190 C186 1.410 . S
C190 C189 1.396 . S
C191 C186 1.500 1_566 S
C191 H192 0.959 . S
C191 H193 0.960 . S
C191 H194 0.961 1_565 S
H192 C191 0.959 . S
H193 C191 0.960 . S
H194 C191 0.961 1_545 S
O195 Co170 1.967 1_545 S
O195 C203 1.258 . S
O196 Co171 1.941 . S
O196 C203 1.266 . S
H197 C199 0.959 . S
H198 C199 0.968 . S
C199 C189 1.510 . S
C199 H197 0.959 . S
C199 H198 0.968 . S
C199 H200 0.960 . S
H200 C199 0.960 . S
H201 N181 0.862 . S
O202 Co170 1.920 1_556 S
O202 C175 1.289 . S
C203 O195 1.258 . S
C203 O196 1.266 . S
Co204 O207 1.970 . S
Co204 N221 1.989 . S
Co204 O229 1.967 . S
Co204 O236 1.920 . S
Co205 O208 1.966 . S
Co205 N214 2.022 . S
Co205 N222 1.993 . S
Co205 O230 1.941 . S
C206 O207 1.258 . S
C206 O208 1.263 . S
O207 Co204 1.970 . S
O207 C206 1.258 . S
O208 Co205 1.966 . S
O208 C206 1.263 . S
C209 O210 1.235 . S
C209 O236 1.289 . S
O210 C209 1.235 . S
C211 C213 1.400 . S
C211 N214 1.351 . S
C211 C216 1.501 . S
C212 C213 1.387 . S
C212 N215 1.341 . S
C213 C211 1.400 . S
C213 C212 1.387 . S
N214 Co205 2.022 . S
N214 C211 1.351 . S
N214 N215 1.365 . S
N215 C212 1.341 . S
N215 N214 1.365 . S
N215 H235 0.862 . S
C216 C211 1.501 . S
C216 H217 0.961 . S
C216 H218 0.961 . S
C216 H219 0.960 . S
H217 C216 0.961 . S
H218 C216 0.961 . S
H219 C216 0.960 . S
C220 N221 1.342 . S
C220 C224 1.401 . S
C220 C225 1.499 . S
N221 Co204 1.989 . S
N221 C220 1.342 . S
N221 N222 1.388 . S
N222 Co205 1.993 . S
N222 N221 1.388 . S
N222 C223 1.346 . S
C223 N222 1.346 . S
C223 C224 1.396 . S
C223 C233 1.510 . S
C224 C220 1.401 . S
C224 C223 1.396 . S
C225 C220 1.499 . S
C225 H226 0.959 . S
C225 H227 0.960 . S
C225 H228 0.961 . S
H226 C225 0.959 . S
H227 C225 0.960 . S
H228 C225 0.961 . S
O229 Co204 1.967 . S
O229 C237 1.258 . S
O230 Co205 1.941 . S
O230 C237 1.266 . S
H231 C233 0.959 . S
H232 C233 0.961 . S
C233 C223 1.510 . S
C233 H231 0.959 . S
C233 H232 0.961 . S
C233 H234 0.960 . S
H234 C233 0.960 . S
H235 N215 0.862 . S
O236 Co204 1.920 . S
O236 C209 1.289 . S
C237 O229 1.258 . S
C237 O230 1.266 . S
Co238 O241 1.970 . S
Co238 N255 1.989 . S
Co238 O263 1.967 . S
Co238 O270 1.920 . S
Co239 O242 1.966 . S
Co239 N248 2.022 . S
Co239 N256 1.993 . S
Co239 O264 1.941 . S
C240 O241 1.258 . S
C240 O242 1.263 . S
O241 Co238 1.970 . S
O241 C240 1.258 . S
O242 Co239 1.966 . S
O242 C240 1.263 . S
C243 O244 1.235 . S
C243 O270 1.289 . S
O244 C243 1.235 . S
C245 C247 1.400 . S
C245 N248 1.351 . S
C245 C250 1.501 . S
C246 C247 1.387 . S
C246 N249 1.341 . S
C247 C245 1.400 . S
C247 C246 1.387 . S
N248 Co239 2.022 . S
N248 C245 1.351 . S
N248 N249 1.365 . S
N249 C246 1.341 . S
N249 N248 1.365 . S
N249 H269 0.862 . S
C250 C245 1.501 . S
C250 H251 0.961 . S
C250 H252 0.961 . S
C250 H253 0.960 . S
H251 C250 0.961 . S
H252 C250 0.961 . S
H253 C250 0.960 . S
C254 N255 1.342 . S
C254 C258 1.401 . S
C254 C259 1.499 . S
N255 Co238 1.989 . S
N255 C254 1.342 . S
N255 N256 1.388 . S
N256 Co239 1.993 . S
N256 N255 1.388 . S
N256 C257 1.346 . S
C257 N256 1.346 . S
C257 C258 1.396 . S
C257 C267 1.510 . S
C258 C254 1.401 . S
C258 C257 1.396 . S
C259 C254 1.499 . S
C259 H260 0.959 . S
C259 H261 0.960 . S
C259 H262 0.961 . S
H260 C259 0.959 . S
H261 C259 0.960 . S
H262 C259 0.961 . S
O263 Co238 1.967 . S
O263 C271 1.258 . S
O264 Co239 1.941 . S
O264 C271 1.266 . S
H265 C267 0.959 . S
H266 C267 0.961 . S
C267 C257 1.510 . S
C267 H265 0.959 . S
C267 H266 0.961 . S
C267 H268 0.960 . S
H268 C267 0.960 . S
H269 N249 0.862 . S
O270 Co238 1.920 . S
O270 C243 1.289 . S
C271 O263 1.258 . S
C271 O264 1.266 . S
Co272 O275 1.970 . S
Co272 N289 1.989 . S
Co272 O297 1.967 . S
Co272 O304 1.920 . S
Co273 O276 1.966 . S
Co273 N282 2.022 . S
Co273 N290 1.993 . S
Co273 O298 1.941 . S
C274 O275 1.258 . S
C274 O276 1.263 . S
O275 Co272 1.970 . S
O275 C274 1.258 . S
O276 Co273 1.966 . S
O276 C274 1.263 . S
C277 O278 1.235 . S
C277 O304 1.289 . S
O278 C277 1.235 . S
C279 C281 1.400 . S
C279 N282 1.351 . S
C279 C284 1.501 . S
C280 C281 1.387 . S
C280 N283 1.341 . S
C281 C279 1.400 . S
C281 C280 1.387 . S
N282 Co273 2.022 . S
N282 C279 1.351 . S
N282 N283 1.365 . S
N283 C280 1.341 . S
N283 N282 1.365 . S
N283 H303 0.862 . S
C284 C279 1.501 . S
C284 H285 0.961 . S
C284 H286 0.961 . S
C284 H287 0.960 . S
H285 C284 0.961 . S
H286 C284 0.961 . S
H287 C284 0.960 . S
C288 N289 1.342 . S
C288 C292 1.401 . S
C288 C293 1.499 . S
N289 Co272 1.989 . S
N289 C288 1.342 . S
N289 N290 1.388 . S
N290 Co273 1.993 . S
N290 N289 1.388 . S
N290 C291 1.346 . S
C291 N290 1.346 . S
C291 C292 1.396 . S
C291 C301 1.510 . S
C292 C288 1.401 . S
C292 C291 1.396 . S
C293 C288 1.499 . S
C293 H294 0.959 . S
C293 H295 0.960 . S
C293 H296 0.961 . S
H294 C293 0.959 . S
H295 C293 0.960 . S
H296 C293 0.961 . S
O297 Co272 1.967 . S
O297 C305 1.258 . S
O298 Co273 1.941 . S
O298 C305 1.266 . S
H299 C301 0.959 . S
H300 C301 0.961 . S
C301 C291 1.510 . S
C301 H299 0.959 . S
C301 H300 0.961 . S
C301 H302 0.960 . S
H302 C301 0.960 . S
H303 N283 0.862 . S
O304 Co272 1.920 . S
O304 C277 1.289 . S
C305 O297 1.258 . S
C305 O298 1.266 . S
Co306 O309 1.970 . S
Co306 N323 1.989 . S
Co306 O331 1.967 . S
Co306 O338 1.920 . S
Co307 O310 1.966 . S
Co307 N316 2.022 . S
Co307 N324 1.993 . S
Co307 O332 1.941 . S
C308 O309 1.258 . S
C308 O310 1.263 . S
O309 Co306 1.970 . S
O309 C308 1.258 . S
O310 Co307 1.966 . S
O310 C308 1.263 . S
C311 O312 1.235 . S
C311 O338 1.289 . S
O312 C311 1.235 . S
C313 C315 1.400 . S
C313 N316 1.351 . S
C313 C318 1.501 . S
C314 C315 1.387 . S
C314 N317 1.341 . S
C315 C313 1.400 . S
C315 C314 1.387 . S
N316 Co307 2.022 . S
N316 C313 1.351 . S
N316 N317 1.365 . S
N317 C314 1.341 . S
N317 N316 1.365 . S
N317 H337 0.862 . S
C318 C313 1.501 . S
C318 H319 0.961 . S
C318 H320 0.961 . S
C318 H321 0.960 . S
H319 C318 0.961 . S
H320 C318 0.961 . S
H321 C318 0.960 . S
C322 N323 1.342 . S
C322 C326 1.401 . S
C322 C327 1.499 . S
N323 Co306 1.989 . S
N323 C322 1.342 . S
N323 N324 1.388 . S
N324 Co307 1.993 . S
N324 N323 1.388 . S
N324 C325 1.346 . S
C325 N324 1.346 . S
C325 C326 1.396 . S
C325 C335 1.510 . S
C326 C322 1.401 . S
C326 C325 1.396 . S
C327 C322 1.499 . S
C327 H328 0.959 . S
C327 H329 0.960 . S
C327 H330 0.961 . S
H328 C327 0.959 . S
H329 C327 0.960 . S
H330 C327 0.961 . S
O331 Co306 1.967 . S
O331 C339 1.258 . S
O332 Co307 1.941 . S
O332 C339 1.266 . S
H333 C335 0.959 . S
H334 C335 0.961 . S
C335 C325 1.510 . S
C335 H333 0.959 . S
C335 H334 0.961 . S
C335 H336 0.960 . S
H336 C335 0.960 . S
H337 N317 0.862 . S
O338 Co306 1.920 . S
O338 C311 1.289 . S
C339 O331 1.258 . S
C339 O332 1.266 . S
Co340 O343 1.970 . S
Co340 N357 1.989 . S
Co340 O365 1.967 . S
Co340 O372 1.920 . S
Co341 O344 1.966 . S
Co341 N350 2.022 . S
Co341 N358 1.993 . S
Co341 O366 1.941 . S
C342 O343 1.258 . S
C342 O344 1.263 . S
O343 Co340 1.970 . S
O343 C342 1.258 . S
O344 Co341 1.966 . S
O344 C342 1.263 . S
C345 O346 1.235 . S
C345 O372 1.289 . S
O346 C345 1.235 . S
C347 C349 1.400 . S
C347 N350 1.351 . S
C347 C352 1.501 . S
C348 C349 1.387 . S
C348 N351 1.341 . S
C349 C347 1.400 . S
C349 C348 1.387 . S
N350 Co341 2.022 . S
N350 C347 1.351 . S
N350 N351 1.365 . S
N351 C348 1.341 . S
N351 N350 1.365 . S
N351 H371 0.862 . S
C352 C347 1.501 . S
C352 H353 0.961 . S
C352 H354 0.961 . S
C352 H355 0.960 . S
H353 C352 0.961 . S
H354 C352 0.961 . S
H355 C352 0.960 . S
C356 N357 1.342 . S
C356 C360 1.401 . S
C356 C361 1.499 . S
N357 Co340 1.989 . S
N357 C356 1.342 . S
N357 N358 1.388 . S
N358 Co341 1.993 . S
N358 N357 1.388 . S
N358 C359 1.346 . S
C359 N358 1.346 . S
C359 C360 1.396 . S
C359 C369 1.510 . S
C360 C356 1.401 . S
C360 C359 1.396 . S
C361 C356 1.499 . S
C361 H362 0.959 . S
C361 H363 0.960 . S
C361 H364 0.961 . S
H362 C361 0.959 . S
H363 C361 0.960 . S
H364 C361 0.961 . S
O365 Co340 1.967 . S
O365 C373 1.258 . S
O366 Co341 1.941 . S
O366 C373 1.266 . S
H367 C369 0.959 . S
H368 C369 0.961 . S
C369 C359 1.510 . S
C369 H367 0.959 . S
C369 H368 0.961 . S
C369 H370 0.960 . S
H370 C369 0.960 . S
H371 N351 0.862 . S
O372 Co340 1.920 . S
O372 C345 1.289 . S
C373 O365 1.258 . S
C373 O366 1.266 . S
Co374 O377 1.970 . S
Co374 N391 1.989 . S
Co374 O399 1.967 . S
Co374 O406 1.920 . S
Co375 O378 1.966 . S
Co375 N384 2.022 . S
Co375 N392 1.993 . S
Co375 O400 1.941 . S
C376 O377 1.258 . S
C376 O378 1.263 . S
O377 Co374 1.970 . S
O377 C376 1.258 . S
O378 Co375 1.966 . S
O378 C376 1.263 . S
C379 O380 1.235 . S
C379 O406 1.289 . S
O380 C379 1.235 . S
C381 C383 1.400 . S
C381 N384 1.351 . S
C381 C386 1.501 . S
C382 C383 1.387 . S
C382 N385 1.341 . S
C383 C381 1.400 . S
C383 C382 1.387 . S
N384 Co375 2.022 . S
N384 C381 1.351 . S
N384 N385 1.365 . S
N385 C382 1.341 . S
N385 N384 1.365 . S
N385 H405 0.862 . S
C386 C381 1.501 . S
C386 H387 0.961 . S
C386 H388 0.961 . S
C386 H389 0.960 . S
H387 C386 0.961 . S
H388 C386 0.961 . S
H389 C386 0.960 . S
C390 N391 1.342 . S
C390 C394 1.401 . S
C390 C395 1.499 . S
N391 Co374 1.989 . S
N391 C390 1.342 . S
N391 N392 1.388 . S
N392 Co375 1.993 . S
N392 N391 1.388 . S
N392 C393 1.346 . S
C393 N392 1.346 . S
C393 C394 1.396 . S
C393 C403 1.510 . S
C394 C390 1.401 . S
C394 C393 1.396 . S
C395 C390 1.499 . S
C395 H396 0.959 . S
C395 H397 0.960 . S
C395 H398 0.961 . S
H396 C395 0.959 . S
H397 C395 0.960 . S
H398 C395 0.961 . S
O399 Co374 1.967 . S
O399 C407 1.258 . S
O400 Co375 1.941 . S
O400 C407 1.266 . S
H401 C403 0.959 . S
H402 C403 0.961 . S
C403 C393 1.510 . S
C403 H401 0.959 . S
C403 H402 0.961 . S
C403 H404 0.960 . S
H404 C403 0.960 . S
H405 N385 0.862 . S
O406 Co374 1.920 . S
O406 C379 1.289 . S
C407 O399 1.258 . S
C407 O400 1.266 . S
Co408 O411 1.970 . S
Co408 N425 1.989 . S
Co408 O433 1.967 . S
Co408 O440 1.920 . S
Co409 O412 1.966 . S
Co409 N418 2.022 . S
Co409 N426 1.993 . S
Co409 O434 1.941 . S
C410 O411 1.258 . S
C410 O412 1.263 . S
O411 Co408 1.970 . S
O411 C410 1.258 . S
O412 Co409 1.966 . S
O412 C410 1.263 . S
C413 O414 1.235 . S
C413 O440 1.289 . S
O414 C413 1.235 . S
C415 C417 1.400 1_556 S
C415 N418 1.351 . S
C415 C420 1.501 . S
C416 C417 1.387 . S
C416 N419 1.341 1_554 S
C417 C415 1.400 1_554 S
C417 C416 1.387 . S
N418 Co409 2.022 . S
N418 C415 1.351 . S
N418 N419 1.365 . S
N419 C416 1.341 1_556 S
N419 N418 1.365 . S
N419 H439 0.862 . S
C420 C415 1.501 . S
C420 H421 0.961 . S
C420 H422 0.961 . S
C420 H423 0.960 1_556 S
H421 C420 0.961 . S
H422 C420 0.961 . S
H423 C420 0.960 1_554 S
C424 N425 1.342 . S
C424 C428 1.401 . S
C424 C429 1.499 . S
N425 Co408 1.989 . S
N425 C424 1.342 . S
N425 N426 1.388 . S
N426 Co409 1.993 . S
N426 N425 1.388 . S
N426 C427 1.346 . S
C427 N426 1.346 . S
C427 C428 1.396 . S
C427 C437 1.510 . S
C428 C424 1.401 . S
C428 C427 1.396 . S
C429 C424 1.499 . S
C429 H430 0.959 . S
C429 H431 0.960 . S
C429 H432 0.961 . S
H430 C429 0.959 . S
H431 C429 0.960 . S
H432 C429 0.961 . S
O433 Co408 1.967 . S
O433 C441 1.258 . S
O434 Co409 1.941 . S
O434 C441 1.266 . S
H435 C437 0.959 . S
H436 C437 0.961 . S
C437 C427 1.510 . S
C437 H435 0.959 . S
C437 H436 0.961 . S
C437 H438 0.960 . S
H438 C437 0.960 . S
H439 N419 0.862 . S
O440 Co408 1.920 . S
O440 C413 1.289 . S
C441 O433 1.258 . S
C441 O434 1.266 . S
Co442 O445 1.970 . S
Co442 N459 1.989 . S
Co442 O467 1.967 . S
Co442 O474 1.920 . S
Co443 O446 1.966 . S
Co443 N452 2.022 . S
Co443 N460 1.993 . S
Co443 O468 1.941 . S
C444 O445 1.258 . S
C444 O446 1.263 . S
O445 Co442 1.970 . S
O445 C444 1.258 . S
O446 Co443 1.966 . S
O446 C444 1.263 . S
C447 O448 1.235 . S
C447 O474 1.289 . S
O448 C447 1.235 . S
C449 C451 1.400 . S
C449 N452 1.351 . S
C449 C454 1.501 . S
C450 C451 1.387 . S
C450 N453 1.341 . S
C451 C449 1.400 . S
C451 C450 1.387 . S
N452 Co443 2.022 . S
N452 C449 1.351 . S
N452 N453 1.365 . S
N453 C450 1.341 . S
N453 N452 1.365 . S
N453 H473 0.862 . S
C454 C449 1.501 . S
C454 H455 0.961 . S
C454 H456 0.961 . S
C454 H457 0.960 . S
H455 C454 0.961 . S
H456 C454 0.961 . S
H457 C454 0.960 . S
C458 N459 1.342 . S
C458 C462 1.401 . S
C458 C463 1.499 . S
N459 Co442 1.989 . S
N459 C458 1.342 . S
N459 N460 1.388 . S
N460 Co443 1.993 . S
N460 N459 1.388 . S
N460 C461 1.346 . S
C461 N460 1.346 . S
C461 C462 1.396 . S
C461 C471 1.510 . S
C462 C458 1.401 . S
C462 C461 1.396 . S
C463 C458 1.499 . S
C463 H464 0.959 . S
C463 H465 0.960 . S
C463 H466 0.961 . S
H464 C463 0.959 . S
H465 C463 0.960 . S
H466 C463 0.961 . S
O467 Co442 1.967 . S
O467 C475 1.258 . S
O468 Co443 1.941 . S
O468 C475 1.266 . S
H469 C471 0.959 . S
H470 C471 0.961 . S
C471 C461 1.510 . S
C471 H469 0.959 . S
C471 H470 0.961 . S
C471 H472 0.960 . S
H472 C471 0.960 . S
H473 N453 0.862 . S
O474 Co442 1.920 . S
O474 C447 1.289 . S
C475 O467 1.258 . S
C475 O468 1.266 . S
Co476 O479 1.970 . S
Co476 N493 1.989 . S
Co476 O501 1.967 . S
Co476 O508 1.920 . S
Co477 O480 1.966 . S
Co477 N486 2.022 . S
Co477 N494 1.993 . S
Co477 O502 1.941 . S
C478 O479 1.258 . S
C478 O480 1.263 . S
O479 Co476 1.970 . S
O479 C478 1.258 . S
O480 Co477 1.966 . S
O480 C478 1.263 . S
C481 O482 1.235 . S
C481 O508 1.289 . S
O482 C481 1.235 . S
C483 C485 1.400 . S
C483 N486 1.351 . S
C483 C488 1.501 . S
C484 C485 1.387 . S
C484 N487 1.341 . S
C485 C483 1.400 . S
C485 C484 1.387 . S
N486 Co477 2.022 . S
N486 C483 1.351 . S
N486 N487 1.365 . S
N487 C484 1.341 . S
N487 N486 1.365 . S
N487 H507 0.862 . S
C488 C483 1.501 . S
C488 H489 0.961 . S
C488 H490 0.961 . S
C488 H491 0.960 . S
H489 C488 0.961 . S
H490 C488 0.961 . S
H491 C488 0.960 . S
C492 N493 1.342 . S
C492 C496 1.401 . S
C492 C497 1.499 . S
N493 Co476 1.989 . S
N493 C492 1.342 . S
N493 N494 1.388 . S
N494 Co477 1.993 . S
N494 N493 1.388 . S
N494 C495 1.346 . S
C495 N494 1.346 . S
C495 C496 1.396 . S
C495 C505 1.510 . S
C496 C492 1.401 . S
C496 C495 1.396 . S
C497 C492 1.499 . S
C497 H498 0.959 . S
C497 H499 0.960 . S
C497 H500 0.961 . S
H498 C497 0.959 . S
H499 C497 0.960 . S
H500 C497 0.961 . S
O501 Co476 1.967 . S
O501 C509 1.258 . S
O502 Co477 1.941 . S
O502 C509 1.266 . S
H503 C505 0.959 . S
H504 C505 0.961 . S
C505 C495 1.510 . S
C505 H503 0.959 . S
C505 H504 0.961 . S
C505 H506 0.960 . S
H506 C505 0.960 . S
H507 N487 0.862 . S
O508 Co476 1.920 . S
O508 C481 1.289 . S
C509 O501 1.258 . S
C509 O502 1.266 . S
Co510 O513 1.970 . S
Co510 N527 1.989 . S
Co510 O535 1.967 . S
Co510 O542 1.920 . S
Co511 O514 1.966 . S
Co511 N520 2.022 . S
Co511 N528 1.993 . S
Co511 O536 1.941 . S
C512 O513 1.258 . S
C512 O514 1.263 . S
O513 Co510 1.970 . S
O513 C512 1.258 . S
O514 Co511 1.966 . S
O514 C512 1.263 . S
C515 O516 1.235 . S
C515 O542 1.289 . S
O516 C515 1.235 . S
C517 C519 1.400 . S
C517 N520 1.351 . S
C517 C522 1.501 . S
C518 C519 1.387 . S
C518 N521 1.341 . S
C519 C517 1.400 . S
C519 C518 1.387 . S
N520 Co511 2.022 . S
N520 C517 1.351 . S
N520 N521 1.365 . S
N521 C518 1.341 . S
N521 N520 1.365 . S
N521 H541 0.862 . S
C522 C517 1.501 . S
C522 H523 0.961 . S
C522 H524 0.961 . S
C522 H525 0.960 . S
H523 C522 0.961 . S
H524 C522 0.961 . S
H525 C522 0.960 . S
C526 N527 1.342 . S
C526 C530 1.401 . S
C526 C531 1.499 . S
N527 Co510 1.989 . S
N527 C526 1.342 . S
N527 N528 1.388 . S
N528 Co511 1.993 . S
N528 N527 1.388 . S
N528 C529 1.346 . S
C529 N528 1.346 . S
C529 C530 1.396 . S
C529 C539 1.510 . S
C530 C526 1.401 . S
C530 C529 1.396 . S
C531 C526 1.499 . S
C531 H532 0.959 . S
C531 H533 0.960 . S
C531 H534 0.961 . S
H532 C531 0.959 . S
H533 C531 0.960 . S
H534 C531 0.961 . S
O535 Co510 1.967 . S
O535 C543 1.258 . S
O536 Co511 1.941 . S
O536 C543 1.266 . S
H537 C539 0.959 . S
H538 C539 0.961 . S
C539 C529 1.510 . S
C539 H537 0.959 . S
C539 H538 0.961 . S
C539 H540 0.960 . S
H540 C539 0.960 . S
H541 N521 0.862 . S
O542 Co510 1.920 . S
O542 C515 1.289 . S
C543 O535 1.258 . S
C543 O536 1.266 . S
Co544 O547 1.970 . S
Co544 N561 1.989 . S
Co544 O569 1.967 . S
Co544 O576 1.920 . S
Co545 O548 1.966 . S
Co545 N554 2.022 . S
Co545 N562 1.993 . S
Co545 O570 1.941 . S
C546 O547 1.258 . S
C546 O548 1.263 . S
O547 Co544 1.970 . S
O547 C546 1.258 . S
O548 Co545 1.966 . S
O548 C546 1.263 . S
C549 O550 1.235 . S
C549 O576 1.289 . S
O550 C549 1.235 . S
C551 C553 1.400 . S
C551 N554 1.351 . S
C551 C556 1.501 . S
C552 C553 1.387 . S
C552 N555 1.341 . S
C553 C551 1.400 . S
C553 C552 1.387 . S
N554 Co545 2.022 . S
N554 C551 1.351 . S
N554 N555 1.365 . S
N555 C552 1.341 . S
N555 N554 1.365 . S
N555 H575 0.862 . S
C556 C551 1.501 . S
C556 H557 0.961 . S
C556 H558 0.961 . S
C556 H559 0.960 . S
H557 C556 0.961 . S
H558 C556 0.961 . S
H559 C556 0.960 . S
C560 N561 1.342 . S
C560 C564 1.401 . S
C560 C565 1.499 . S
N561 Co544 1.989 . S
N561 C560 1.342 . S
N561 N562 1.388 . S
N562 Co545 1.993 . S
N562 N561 1.388 . S
N562 C563 1.346 . S
C563 N562 1.346 . S
C563 C564 1.396 . S
C563 C573 1.510 . S
C564 C560 1.401 . S
C564 C563 1.396 . S
C565 C560 1.499 . S
C565 H566 0.959 . S
C565 H567 0.960 . S
C565 H568 0.961 . S
H566 C565 0.959 . S
H567 C565 0.960 . S
H568 C565 0.961 . S
O569 Co544 1.967 . S
O569 C577 1.258 . S
O570 Co545 1.941 . S
O570 C577 1.266 . S
H571 C573 0.959 . S
H572 C573 0.961 . S
C573 C563 1.510 . S
C573 H571 0.959 . S
C573 H572 0.961 . S
C573 H574 0.960 . S
H574 C573 0.960 . S
H575 N555 0.862 . S
O576 Co544 1.920 . S
O576 C549 1.289 . S
C577 O569 1.258 . S
C577 O570 1.266 . S
Co578 O581 1.970 . S
Co578 N595 1.989 . S
Co578 O603 1.967 . S
Co578 O610 1.920 . S
Co579 O582 1.966 . S
Co579 N588 2.022 . S
Co579 N596 1.993 . S
Co579 O604 1.941 . S
C580 O581 1.258 . S
C580 O582 1.263 . S
O581 Co578 1.970 . S
O581 C580 1.258 . S
O582 Co579 1.966 . S
O582 C580 1.263 . S
C583 O584 1.235 . S
C583 O610 1.289 . S
O584 C583 1.235 . S
C585 C587 1.400 1_556 S
C585 N588 1.351 . S
C585 C590 1.501 . S
C586 C587 1.387 1_556 S
C586 N589 1.341 . S
C587 C585 1.400 1_554 S
C587 C586 1.387 1_554 S
N588 Co579 2.022 . S
N588 C585 1.351 . S
N588 N589 1.365 . S
N589 C586 1.341 . S
N589 N588 1.365 . S
N589 H609 0.862 . S
C590 C585 1.501 . S
C590 H591 0.961 . S
C590 H592 0.961 . S
C590 H593 0.960 . S
H591 C590 0.961 . S
H592 C590 0.961 . S
H593 C590 0.960 . S
C594 N595 1.342 . S
C594 C598 1.401 . S
C594 C599 1.499 . S
N595 Co578 1.989 . S
N595 C594 1.342 . S
N595 N596 1.388 . S
N596 Co579 1.993 . S
N596 N595 1.388 . S
N596 C597 1.346 . S
C597 N596 1.346 . S
C597 C598 1.396 . S
C597 C607 1.510 . S
C598 C594 1.401 . S
C598 C597 1.396 . S
C599 C594 1.499 . S
C599 H600 0.959 . S
C599 H601 0.960 . S
C599 H602 0.961 . S
H600 C599 0.959 . S
H601 C599 0.960 . S
H602 C599 0.961 . S
O603 Co578 1.967 . S
O603 C611 1.258 . S
O604 Co579 1.941 . S
O604 C611 1.266 . S
H605 C607 0.959 . S
H606 C607 0.961 . S
C607 C597 1.510 . S
C607 H605 0.959 . S
C607 H606 0.961 . S
C607 H608 0.960 . S
H608 C607 0.960 . S
H609 N589 0.862 . S
O610 Co578 1.920 . S
O610 C583 1.289 . S
C611 O603 1.258 . S
C611 O604 1.266 . S
H612 C620 0.929 . S
H613 C622 0.930 . S
H614 C624 0.930 . S
H615 C627 0.929 . S
H616 C630 0.930 . S
H617 C632 0.960 . S
H618 C632 0.960 . S
H619 C632 0.960 . S
C620 H612 0.929 . S
C620 C621 1.377 . S
C620 C622 1.384 . S
C621 C620 1.377 . S
C621 C627 1.390 . S
C622 H613 0.930 . S
C622 C620 1.384 . S
C622 C623 1.372 . S
C623 C622 1.372 . S
C623 C624 1.400 . S
C623 C628 1.490 . S
C624 H614 0.930 . S
C624 C623 1.400 . S
C624 C627 1.386 . S
H625 C641 0.930 . S
H626 C642 0.931 . S
C627 H615 0.929 . S
C627 C621 1.390 . S
C627 C624 1.386 . S
C628 C623 1.490 . S
C628 C630 1.395 . S
C628 C631 1.403 . S
H629 C635 0.930 . S
C630 H616 0.930 . S
C630 C628 1.395 . S
C630 C633 1.403 . S
C631 C628 1.403 . S
C631 C632 1.524 . S
C631 C635 1.400 . S
C632 H617 0.960 . S
C632 H618 0.960 . S
C632 H619 0.960 . S
C632 C631 1.524 . S
C633 C630 1.403 . S
C633 C634 1.392 . S
C633 C637 1.495 . S
C634 C633 1.392 . S
C634 C635 1.385 . S
C634 C636 1.478 . S
C635 H629 0.930 . S
C635 C631 1.400 . S
C635 C634 1.385 . S
C636 C634 1.478 . S
C636 C638 1.381 . S
C636 C642 1.383 . S
C637 C633 1.495 . S
C637 H643 0.959 . S
C637 H644 0.961 . S
C637 H645 0.960 . S
C638 C636 1.381 . S
C638 C639 1.394 . S
C638 H646 0.930 . S
C639 C638 1.394 . S
C639 C640 1.383 . S
C639 H647 0.929 . S
C640 C639 1.383 . S
C640 C641 1.377 . S
C641 H625 0.930 . S
C641 C640 1.377 . S
C641 C642 1.379 . S
C642 H626 0.931 . S
C642 C636 1.383 . S
C642 C641 1.379 . S
H643 C637 0.959 . S
H644 C637 0.961 . S
H645 C637 0.960 . S
H646 C638 0.930 . S
H647 C639 0.929 . S
H648 C656 0.929 . S
H649 C658 0.930 . S
H650 C660 0.930 . S
H651 C663 0.929 . S
H652 C666 0.930 . S
H653 C668 0.960 . S
H654 C668 0.960 . S
H655 C668 0.960 . S
C656 H648 0.929 . S
C656 C657 1.377 . S
C656 C658 1.384 . S
C657 C656 1.377 . S
C657 C663 1.390 . S
C658 H649 0.930 . S
C658 C656 1.384 . S
C658 C659 1.372 . S
C659 C658 1.372 . S
C659 C660 1.400 . S
C659 C664 1.490 . S
C660 H650 0.930 . S
C660 C659 1.400 . S
C660 C663 1.386 . S
H661 C677 0.930 . S
H662 C678 0.931 . S
C663 H651 0.929 . S
C663 C657 1.390 . S
C663 C660 1.386 . S
C664 C659 1.490 . S
C664 C666 1.395 . S
C664 C667 1.403 . S
H665 C671 0.930 . S
C666 H652 0.930 . S
C666 C664 1.395 . S
C666 C669 1.403 . S
C667 C664 1.403 . S
C667 C668 1.524 . S
C667 C671 1.400 . S
C668 H653 0.960 . S
C668 H654 0.960 . S
C668 H655 0.960 . S
C668 C667 1.524 . S
C669 C666 1.403 . S
C669 C670 1.392 . S
C669 C673 1.495 . S
C670 C669 1.392 . S
C670 C671 1.385 . S
C670 C672 1.478 . S
C671 H665 0.930 . S
C671 C667 1.400 . S
C671 C670 1.385 . S
C672 C670 1.478 . S
C672 C674 1.381 . S
C672 C678 1.383 . S
C673 C669 1.495 . S
C673 H679 0.959 . S
C673 H680 0.961 . S
C673 H681 0.960 . S
C674 C672 1.381 . S
C674 C675 1.394 . S
C674 H682 0.930 . S
C675 C674 1.394 . S
C675 C676 1.383 . S
C675 H683 0.929 . S
C676 C675 1.383 . S
C676 C677 1.377 . S
C677 H661 0.930 . S
C677 C676 1.377 . S
C677 C678 1.379 . S
C678 H662 0.931 . S
C678 C672 1.383 . S
C678 C677 1.379 . S
H679 C673 0.959 . S
H680 C673 0.961 . S
H681 C673 0.960 . S
H682 C674 0.930 . S
H683 C675 0.929 . S
H684 C692 0.929 . S
H685 C694 0.930 . S
H686 C696 0.930 . S
H687 C699 0.929 . S
H688 C702 0.930 . S
H689 C704 0.960 . S
H690 C704 0.960 . S
H691 C704 0.960 . S
C692 H684 0.929 . S
C692 C693 1.377 . S
C692 C694 1.384 . S
C693 C692 1.377 . S
C693 C699 1.390 . S
C694 H685 0.930 . S
C694 C692 1.384 . S
C694 C695 1.372 . S
C695 C694 1.372 . S
C695 C696 1.400 . S
C695 C700 1.490 . S
C696 H686 0.930 . S
C696 C695 1.400 . S
C696 C699 1.386 . S
H697 C713 0.930 . S
H698 C714 0.931 . S
C699 H687 0.929 . S
C699 C693 1.390 . S
C699 C696 1.386 . S
C700 C695 1.490 . S
C700 C702 1.395 . S
C700 C703 1.403 . S
H701 C707 0.930 . S
C702 H688 0.930 . S
C702 C700 1.395 . S
C702 C705 1.403 . S
C703 C700 1.403 . S
C703 C704 1.524 . S
C703 C707 1.400 . S
C704 H689 0.960 . S
C704 H690 0.960 . S
C704 H691 0.960 . S
C704 C703 1.524 . S
C705 C702 1.403 . S
C705 C706 1.392 . S
C705 C709 1.495 . S
C706 C705 1.392 . S
C706 C707 1.385 . S
C706 C708 1.478 . S
C707 H701 0.930 . S
C707 C703 1.400 . S
C707 C706 1.385 . S
C708 C706 1.478 . S
C708 C710 1.381 . S
C708 C714 1.383 . S
C709 C705 1.495 . S
C709 H715 0.959 . S
C709 H716 0.961 . S
C709 H717 0.960 . S
C710 C708 1.381 . S
C710 C711 1.394 . S
C710 H718 0.930 . S
C711 C710 1.394 . S
C711 C712 1.383 . S
C711 H719 0.929 . S
C712 C711 1.383 . S
C712 C713 1.377 . S
C713 H697 0.930 . S
C713 C712 1.377 . S
C713 C714 1.379 . S
C714 H698 0.931 . S
C714 C708 1.383 . S
C714 C713 1.379 . S
H715 C709 0.959 . S
H716 C709 0.961 . S
H717 C709 0.960 . S
H718 C710 0.930 . S
H719 C711 0.929 . S
H720 C728 0.929 . S
H721 C730 0.930 1_655 S
H722 C732 0.930 . S
H723 C735 0.929 . S
H724 C738 0.930 . S
H725 C740 0.960 . S
H726 C740 0.960 . S
H727 C740 0.960 . S
C728 H720 0.929 . S
C728 C729 1.377 . S
C728 C730 1.384 . S
C729 C728 1.377 . S
C729 C735 1.390 . S
C730 H721 0.930 1_455 S
C730 C728 1.384 . S
C730 C731 1.372 . S
C731 C730 1.372 . S
C731 C732 1.400 . S
C731 C736 1.490 . S
C732 H722 0.930 . S
C732 C731 1.400 . S
C732 C735 1.386 . S
H733 C749 0.930 . S
H734 C750 0.931 . S
C735 H723 0.929 . S
C735 C729 1.390 . S
C735 C732 1.386 . S
C736 C731 1.490 . S
C736 C738 1.395 . S
C736 C739 1.403 . S
H737 C743 0.930 . S
C738 H724 0.930 . S
C738 C736 1.395 . S
C738 C741 1.403 . S
C739 C736 1.403 . S
C739 C740 1.524 . S
C739 C743 1.400 . S
C740 H725 0.960 . S
C740 H726 0.960 . S
C740 H727 0.960 . S
C740 C739 1.524 . S
C741 C738 1.403 . S
C741 C742 1.392 . S
C741 C745 1.495 . S
C742 C741 1.392 . S
C742 C743 1.385 . S
C742 C744 1.478 . S
C743 H737 0.930 . S
C743 C739 1.400 . S
C743 C742 1.385 . S
C744 C742 1.478 . S
C744 C746 1.381 1_455 S
C744 C750 1.383 . S
C745 C741 1.495 . S
C745 H751 0.959 . S
C745 H752 0.961 . S
C745 H753 0.960 1_455 S
C746 C744 1.381 1_655 S
C746 C747 1.394 . S
C746 H754 0.930 . S
C747 C746 1.394 . S
C747 C748 1.371 1_655 S
C747 H755 0.929 . S
C748 C747 1.371 1_455 S
C748 C749 1.390 . S
C749 H733 0.930 . S
C749 C748 1.390 . S
C749 C750 1.379 . S
C750 H734 0.931 . S
C750 C744 1.383 . S
C750 C749 1.379 . S
H751 C745 0.959 . S
H752 C745 0.961 . S
H753 C745 0.960 1_655 S
H754 C746 0.930 . S
H755 C747 0.929 . S
H756 C764 0.929 . S
H757 C766 0.930 . S
H758 C768 0.930 . S
H759 C771 0.929 . S
H760 C774 0.930 . S
H761 C776 0.960 . S
H762 C776 0.960 . S
H763 C776 0.960 . S
C764 H756 0.929 . S
C764 C765 1.377 . S
C764 C766 1.384 . S
C765 C764 1.377 . S
C765 C771 1.390 . S
C766 H757 0.930 . S
C766 C764 1.384 . S
C766 C767 1.372 . S
C767 C766 1.372 . S
C767 C768 1.400 . S
C767 C772 1.490 . S
C768 H758 0.930 . S
C768 C767 1.400 . S
C768 C771 1.386 . S
H769 C785 0.930 . S
H770 C786 0.931 . S
C771 H759 0.929 . S
C771 C765 1.390 . S
C771 C768 1.386 . S
C772 C767 1.490 . S
C772 C774 1.395 . S
C772 C775 1.403 . S
H773 C779 0.930 . S
C774 H760 0.930 . S
C774 C772 1.395 . S
C774 C777 1.403 . S
C775 C772 1.403 . S
C775 C776 1.524 . S
C775 C779 1.400 . S
C776 H761 0.960 . S
C776 H762 0.960 . S
C776 H763 0.960 . S
C776 C775 1.524 . S
C777 C774 1.403 . S
C777 C778 1.392 . S
C777 C781 1.495 . S
C778 C777 1.392 . S
C778 C779 1.385 . S
C778 C780 1.478 . S
C779 H773 0.930 . S
C779 C775 1.400 . S
C779 C778 1.385 . S
C780 C778 1.478 . S
C780 C782 1.381 . S
C780 C786 1.383 . S
C781 C777 1.495 . S
C781 H787 0.959 . S
C781 H788 0.961 . S
C781 H789 0.960 . S
C782 C780 1.381 . S
C782 C783 1.394 . S
C782 H790 0.930 . S
C783 C782 1.394 . S
C783 C784 1.383 . S
C783 H791 0.929 . S
C784 C783 1.383 . S
C784 C785 1.377 . S
C785 H769 0.930 . S
C785 C784 1.377 . S
C785 C786 1.379 . S
C786 H770 0.931 . S
C786 C780 1.383 . S
C786 C785 1.379 . S
H787 C781 0.959 . S
H788 C781 0.961 . S
H789 C781 0.960 . S
H790 C782 0.930 . S
H791 C783 0.929 . S
H792 C800 0.929 . S
H793 C802 0.930 . S
H794 C804 0.930 1_545 S
H795 C807 0.929 1_545 S
H796 C810 0.930 . S
H797 C812 0.960 . S
H798 C812 0.960 1_565 S
H799 C812 0.960 . S
C800 H792 0.929 . S
C800 C801 1.377 . S
C800 C802 1.384 . S
C801 C800 1.377 . S
C801 C807 1.390 . S
C802 H793 0.930 . S
C802 C800 1.384 . S
C802 C803 1.372 . S
C803 C802 1.372 . S
C803 C804 1.400 . S
C803 C808 1.490 . S
C804 H794 0.930 1_565 S
C804 C803 1.400 . S
C804 C807 1.386 . S
H805 C821 0.930 . S
H806 C822 0.931 . S
C807 H795 0.929 1_565 S
C807 C801 1.390 . S
C807 C804 1.386 . S
C808 C803 1.490 . S
C808 C810 1.395 . S
C808 C811 1.403 . S
H809 C815 0.930 . S
C810 H796 0.930 . S
C810 C808 1.395 . S
C810 C813 1.403 . S
C811 C808 1.403 . S
C811 C812 1.524 1_565 S
C811 C815 1.400 1_565 S
C812 H797 0.960 . S
C812 H798 0.960 1_545 S
C812 H799 0.960 . S
C812 C811 1.524 1_545 S
C813 C810 1.403 . S
C813 C814 1.392 . S
C813 C817 1.495 . S
C814 C813 1.392 . S
C814 C815 1.385 1_565 S
C814 C816 1.498 . S
C815 H809 0.930 . S
C815 C811 1.400 1_545 S
C815 C814 1.385 1_545 S
C816 C814 1.498 . S
C816 C818 1.444 . S
C816 C822 1.307 1_565 S
C817 C813 1.495 . S
C817 H823 0.959 . S
C817 H824 0.961 . S
C817 H825 0.960 . S
C818 C816 1.444 . S
C818 C819 1.394 . S
C818 H826 0.930 . S
C819 C818 1.394 . S
C819 C820 1.383 1_565 S
C819 H827 0.929 . S
C820 C819 1.383 1_545 S
C820 C821 1.377 . S
C821 H805 0.930 . S
C821 C820 1.377 . S
C821 C822 1.379 . S
C822 H806 0.931 . S
C822 C816 1.307 1_545 S
C822 C821 1.379 . S
H823 C817 0.959 . S
H824 C817 0.961 . S
H825 C817 0.960 . S
H826 C818 0.930 . S
H827 C819 0.929 . S
H828 C836 0.929 . S
H829 C838 0.930 . S
H830 C840 0.930 . S
H831 C843 0.929 . S
H832 C846 0.930 . S
H833 C848 0.960 . S
H834 C848 0.960 . S
H835 C848 0.960 . S
C836 H828 0.929 . S
C836 C837 1.377 . S
C836 C838 1.384 . S
C837 C836 1.377 . S
C837 C843 1.390 . S
C838 H829 0.930 . S
C838 C836 1.384 . S
C838 C839 1.372 . S
C839 C838 1.372 . S
C839 C840 1.400 . S
C839 C844 1.490 . S
C840 H830 0.930 . S
C840 C839 1.400 . S
C840 C843 1.386 . S
H841 C857 0.930 . S
H842 C858 0.931 . S
C843 H831 0.929 . S
C843 C837 1.390 . S
C843 C840 1.386 . S
C844 C839 1.490 . S
C844 C846 1.395 . S
C844 C847 1.403 . S
H845 C851 0.930 . S
C846 H832 0.930 . S
C846 C844 1.395 . S
C846 C849 1.403 1_556 S
C847 C844 1.403 . S
C847 C848 1.524 . S
C847 C851 1.400 1_556 S
C848 H833 0.960 . S
C848 H834 0.960 . S
C848 H835 0.960 . S
C848 C847 1.524 . S
C849 C846 1.403 1_554 S
C849 C850 1.392 . S
C849 C853 1.495 . S
C850 C849 1.392 . S
C850 C851 1.385 . S
C850 C852 1.478 . S
C851 H845 0.930 . S
C851 C847 1.400 1_554 S
C851 C850 1.385 . S
C852 C850 1.478 . S
C852 C854 1.381 . S
C852 C858 1.383 . S
C853 C849 1.495 . S
C853 H859 0.959 . S
C853 H860 0.961 . S
C853 H861 0.960 . S
C854 C852 1.381 . S
C854 C855 1.394 . S
C854 H862 0.930 . S
C855 C854 1.394 . S
C855 C856 1.383 . S
C855 H863 0.929 . S
C856 C855 1.383 . S
C856 C857 1.377 . S
C857 H841 0.930 . S
C857 C856 1.377 . S
C857 C858 1.379 . S
C858 H842 0.931 . S
C858 C852 1.383 . S
C858 C857 1.379 . S
H859 C853 0.959 . S
H860 C853 0.961 . S
H861 C853 0.960 . S
H862 C854 0.930 . S
H863 C855 0.929 . S
H864 C872 0.929 . S
H865 C874 0.930 . S
H866 C876 0.930 . S
H867 C879 0.929 . S
H868 C882 0.930 . S
H869 C884 0.960 . S
H870 C884 0.960 . S
H871 C884 0.960 . S
C872 H864 0.929 . S
C872 C873 1.377 . S
C872 C874 1.384 . S
C873 C872 1.377 . S
C873 C879 1.390 . S
C874 H865 0.930 . S
C874 C872 1.384 . S
C874 C875 1.372 . S
C875 C874 1.372 . S
C875 C876 1.400 . S
C875 C880 1.490 . S
C876 H866 0.930 . S
C876 C875 1.400 . S
C876 C879 1.386 . S
H877 C893 0.930 . S
H878 C894 0.931 . S
C879 H867 0.929 . S
C879 C873 1.390 . S
C879 C876 1.386 . S
C880 C875 1.490 . S
C880 C882 1.395 . S
C880 C883 1.403 . S
H881 C887 0.930 . S
C882 H868 0.930 . S
C882 C880 1.395 . S
C882 C885 1.403 1_556 S
C883 C880 1.403 . S
C883 C884 1.524 . S
C883 C887 1.400 1_556 S
C884 H869 0.960 . S
C884 H870 0.960 . S
C884 H871 0.960 . S
C884 C883 1.524 . S
C885 C882 1.403 1_554 S
C885 C886 1.392 . S
C885 C889 1.495 . S
C886 C885 1.392 . S
C886 C887 1.385 . S
C886 C888 1.478 . S
C887 H881 0.930 . S
C887 C883 1.400 1_554 S
C887 C886 1.385 . S
C888 C886 1.478 . S
C888 C890 1.381 . S
C888 C894 1.383 . S
C889 C885 1.495 . S
C889 H895 0.959 . S
C889 H896 0.961 . S
C889 H897 0.960 . S
C890 C888 1.381 . S
C890 C891 1.394 . S
C890 H898 0.930 . S
C891 C890 1.394 . S
C891 C892 1.383 . S
C891 H899 0.929 . S
C892 C891 1.383 . S
C892 C893 1.377 . S
C893 H877 0.930 . S
C893 C892 1.377 . S
C893 C894 1.379 . S
C894 H878 0.931 . S
C894 C888 1.383 . S
C894 C893 1.379 . S
H895 C889 0.959 . S
H896 C889 0.961 . S
H897 C889 0.960 . S
H898 C890 0.930 . S
H899 C891 0.929 . S
H900 C908 0.929 . S
H901 C910 0.930 . S
H902 C912 0.930 . S
H903 C915 0.929 . S
H904 C918 0.930 . S
H905 C920 0.960 . S
H906 C920 0.960 . S
H907 C920 0.960 . S
C908 H900 0.929 . S
C908 C909 1.377 . S
C908 C910 1.384 . S
C909 C908 1.377 . S
C909 C915 1.390 . S
C910 H901 0.930 . S
C910 C908 1.384 . S
C910 C911 1.372 . S
C911 C910 1.372 . S
C911 C912 1.400 . S
C911 C916 1.490 . S
C912 H902 0.930 . S
C912 C911 1.400 . S
C912 C915 1.386 . S
H913 C929 0.930 . S
H914 C930 0.931 . S
C915 H903 0.929 . S
C915 C909 1.390 . S
C915 C912 1.386 . S
C916 C911 1.490 . S
C916 C918 1.395 . S
C916 C919 1.403 . S
H917 C923 0.930 . S
C918 H904 0.930 . S
C918 C916 1.395 . S
C918 C921 1.403 . S
C919 C916 1.403 . S
C919 C920 1.524 . S
C919 C923 1.400 1_556 S
C920 H905 0.960 . S
C920 H906 0.960 . S
C920 H907 0.960 . S
C920 C919 1.524 . S
C921 C918 1.403 . S
C921 C922 1.392 1_556 S
C921 C925 1.495 1_556 S
C922 C921 1.392 1_554 S
C922 C923 1.385 . S
C922 C924 1.478 . S
C923 H917 0.930 . S
C923 C919 1.400 1_554 S
C923 C922 1.385 . S
C924 C922 1.478 . S
C924 C926 1.381 . S
C924 C930 1.383 . S
C925 C921 1.495 1_554 S
C925 H931 0.959 1_554 S
C925 H932 0.961 . S
C925 H933 0.960 . S
C926 C924 1.381 . S
C926 C927 1.394 . S
C926 H934 0.930 . S
C927 C926 1.394 . S
C927 C928 1.383 . S
C927 H935 0.929 . S
C928 C927 1.383 . S
C928 C929 1.377 . S
C929 H913 0.930 . S
C929 C928 1.377 . S
C929 C930 1.379 . S
C930 H914 0.931 . S
C930 C924 1.383 . S
C930 C929 1.379 . S
H931 C925 0.959 1_556 S
H932 C925 0.961 . S
H933 C925 0.960 . S
H934 C926 0.930 . S
H935 C927 0.929 . S
H936 C944 0.929 . S
H937 C946 0.930 . S
H938 C948 0.930 . S
H939 C951 0.929 . S
H940 C954 0.930 . S
H941 C956 0.960 1_556 S
H942 C956 0.960 . S
H943 C956 0.960 . S
C944 H936 0.929 . S
C944 C945 1.377 . S
C944 C946 1.384 . S
C945 C944 1.377 . S
C945 C951 1.390 . S
C946 H937 0.930 . S
C946 C944 1.384 . S
C946 C947 1.372 . S
C947 C946 1.372 . S
C947 C948 1.400 . S
C947 C952 1.490 . S
C948 H938 0.930 . S
C948 C947 1.400 . S
C948 C951 1.386 . S
H949 C965 0.930 . S
H950 C966 0.931 . S
C951 H939 0.929 . S
C951 C945 1.390 . S
C951 C948 1.386 . S
C952 C947 1.490 . S
C952 C954 1.395 . S
C952 C955 1.403 . S
H953 C959 0.930 . S
C954 H940 0.930 . S
C954 C952 1.395 . S
C954 C957 1.403 1_554 S
C955 C952 1.403 . S
C955 C956 1.524 . S
C955 C959 1.400 1_554 S
C956 H941 0.960 1_554 S
C956 H942 0.960 . S
C956 H943 0.960 . S
C956 C955 1.524 . S
C957 C954 1.403 1_556 S
C957 C958 1.392 . S
C957 C961 1.495 . S
C958 C957 1.392 . S
C958 C959 1.385 . S
C958 C960 1.478 . S
C959 H953 0.930 . S
C959 C955 1.400 1_556 S
C959 C958 1.385 . S
C960 C958 1.478 . S
C960 C962 1.381 . S
C960 C966 1.383 . S
C961 C957 1.495 . S
C961 H967 0.959 . S
C961 H968 0.961 . S
C961 H969 0.960 . S
C962 C960 1.381 . S
C962 C963 1.394 . S
C962 H970 0.930 . S
C963 C962 1.394 . S
C963 C964 1.383 . S
C963 H971 0.929 . S
C964 C963 1.383 . S
C964 C965 1.377 . S
C965 H949 0.930 . S
C965 C964 1.377 . S
C965 C966 1.379 . S
C966 H950 0.931 . S
C966 C960 1.383 . S
C966 C965 1.379 . S
H967 C961 0.959 . S
H968 C961 0.961 . S
H969 C961 0.960 . S
H970 C962 0.930 . S
H971 C963 0.929 . S
H972 C980 0.929 . S
H973 C982 0.930 . S
H974 C984 0.930 . S
H975 C987 0.929 . S
H976 C990 0.930 . S
H977 C992 0.960 . S
H978 C992 0.960 . S
H979 C992 0.960 . S
C980 H972 0.929 . S
C980 C981 1.377 . S
C980 C982 1.384 . S
C981 C980 1.377 . S
C981 C987 1.390 . S
C982 H973 0.930 . S
C982 C980 1.384 . S
C982 C983 1.372 . S
C983 C982 1.372 . S
C983 C984 1.400 . S
C983 C988 1.490 . S
C984 H974 0.930 . S
C984 C983 1.400 . S
C984 C987 1.386 . S
H985 C1001 0.930 . S
H986 C1002 0.931 . S
C987 H975 0.929 . S
C987 C981 1.390 . S
C987 C984 1.386 . S
C988 C983 1.490 . S
C988 C990 1.395 . S
C988 C991 1.403 . S
H989 C995 0.930 . S
C990 H976 0.930 . S
C990 C988 1.395 . S
C990 C993 1.403 1_556 S
C991 C988 1.403 . S
C991 C992 1.524 . S
C991 C995 1.400 1_556 S
C992 H977 0.960 . S
C992 H978 0.960 . S
C992 H979 0.960 . S
C992 C991 1.524 . S
C993 C990 1.403 1_554 S
C993 C994 1.392 . S
C993 C997 1.495 . S
C994 C993 1.392 . S
C994 C995 1.385 . S
C994 C996 1.478 . S
C995 H989 0.930 . S
C995 C991 1.400 1_554 S
C995 C994 1.385 . S
C996 C994 1.478 . S
C996 C998 1.381 . S
C996 C1002 1.383 . S
C997 C993 1.495 . S
C997 H1003 0.959 . S
C997 H1004 0.961 . S
C997 H1005 0.960 . S
C998 C996 1.381 . S
C998 C999 1.394 . S
C998 H1006 0.930 . S
C999 C998 1.394 . S
C999 C1000 1.383 . S
C999 H1007 0.929 . S
C1000 C999 1.383 . S
C1000 C1001 1.377 . S
C1001 H985 0.930 . S
C1001 C1000 1.377 . S
C1001 C1002 1.379 . S
C1002 H986 0.931 . S
C1002 C996 1.383 . S
C1002 C1001 1.379 . S
H1003 C997 0.959 . S
H1004 C997 0.961 . S
H1005 C997 0.960 . S
H1006 C998 0.930 . S
H1007 C999 0.929 . S
H1008 C1016 0.929 . S
H1009 C1018 0.930 . S
H1010 C1020 0.930 . S
H1011 C1023 0.929 . S
H1012 C1026 0.930 . S
H1013 C1028 0.960 1_554 S
H1014 C1028 0.960 . S
H1015 C1028 0.960 . S
C1016 H1008 0.929 . S
C1016 C1017 1.377 . S
C1016 C1018 1.384 . S
C1017 C1016 1.377 . S
C1017 C1023 1.390 . S
C1018 H1009 0.930 . S
C1018 C1016 1.384 . S
C1018 C1019 1.372 . S
C1019 C1018 1.372 . S
C1019 C1020 1.400 . S
C1019 C1024 1.490 . S
C1020 H1010 0.930 . S
C1020 C1019 1.400 . S
C1020 C1023 1.386 . S
H1021 C1037 0.930 . S
H1022 C1038 0.931 . S
C1023 H1011 0.929 . S
C1023 C1017 1.390 . S
C1023 C1020 1.386 . S
C1024 C1019 1.490 . S
C1024 C1026 1.395 . S
C1024 C1027 1.403 . S
H1025 C1031 0.930 . S
C1026 H1012 0.930 . S
C1026 C1024 1.395 . S
C1026 C1029 1.403 1_556 S
C1027 C1024 1.403 . S
C1027 C1028 1.524 . S
C1027 C1031 1.400 1_556 S
C1028 H1013 0.960 1_556 S
C1028 H1014 0.960 . S
C1028 H1015 0.960 . S
C1028 C1027 1.524 . S
C1029 C1026 1.403 1_554 S
C1029 C1030 1.392 . S
C1029 C1033 1.495 . S
C1030 C1029 1.392 . S
C1030 C1031 1.385 . S
C1030 C1032 1.478 . S
C1031 H1025 0.930 . S
C1031 C1027 1.400 1_554 S
C1031 C1030 1.385 . S
C1032 C1030 1.478 . S
C1032 C1034 1.381 . S
C1032 C1038 1.383 . S
C1033 C1029 1.495 . S
C1033 H1039 0.959 . S
C1033 H1040 0.961 . S
C1033 H1041 0.960 . S
C1034 C1032 1.381 . S
C1034 C1035 1.394 . S
C1034 H1042 0.930 . S
C1035 C1034 1.394 . S
C1035 C1036 1.383 . S
C1035 H1043 0.929 . S
C1036 C1035 1.383 . S
C1036 C1037 1.377 . S
C1037 H1021 0.930 . S
C1037 C1036 1.377 . S
C1037 C1038 1.379 . S
C1038 H1022 0.931 . S
C1038 C1032 1.383 . S
C1038 C1037 1.379 . S
H1039 C1033 0.959 . S
H1040 C1033 0.961 . S
H1041 C1033 0.960 . S
H1042 C1034 0.930 . S
H1043 C1035 0.929 . S
H1044 C1052 0.929 . S
H1045 C1054 0.930 . S
H1046 C1056 0.930 . S
H1047 C1059 0.929 . S
H1048 C1062 0.930 . S
H1049 C1064 0.960 . S
H1050 C1064 0.960 . S
H1051 C1064 0.960 . S
C1052 H1044 0.929 . S
C1052 C1053 1.377 . S
C1052 C1054 1.384 . S
C1053 C1052 1.377 . S
C1053 C1059 1.390 . S
C1054 H1045 0.930 . S
C1054 C1052 1.384 . S
C1054 C1055 1.372 . S
C1055 C1054 1.372 . S
C1055 C1056 1.400 . S
C1055 C1060 1.490 . S
C1056 H1046 0.930 . S
C1056 C1055 1.400 . S
C1056 C1059 1.386 . S
H1057 C1073 0.930 . S
H1058 C1074 0.931 . S
C1059 H1047 0.929 . S
C1059 C1053 1.390 . S
C1059 C1056 1.386 . S
C1060 C1055 1.490 . S
C1060 C1062 1.395 . S
C1060 C1063 1.403 . S
H1061 C1067 0.930 . S
C1062 H1048 0.930 . S
C1062 C1060 1.395 . S
C1062 C1065 1.403 . S
C1063 C1060 1.403 . S
C1063 C1064 1.524 . S
C1063 C1067 1.400 . S
C1064 H1049 0.960 . S
C1064 H1050 0.960 . S
C1064 H1051 0.960 . S
C1064 C1063 1.524 . S
C1065 C1062 1.403 . S
C1065 C1066 1.392 . S
C1065 C1069 1.495 . S
C1066 C1065 1.392 . S
C1066 C1067 1.385 . S
C1066 C1068 1.478 . S
C1067 H1061 0.930 . S
C1067 C1063 1.400 . S
C1067 C1066 1.385 . S
C1068 C1066 1.478 . S
C1068 C1070 1.381 . S
C1068 C1074 1.383 . S
C1069 C1065 1.495 . S
C1069 H1075 0.959 . S
C1069 H1076 0.961 . S
C1069 H1077 0.960 . S
C1070 C1068 1.381 . S
C1070 C1071 1.394 . S
C1070 H1078 0.930 . S
C1071 C1070 1.394 . S
C1071 C1072 1.383 . S
C1071 H1079 0.929 . S
C1072 C1071 1.383 . S
C1072 C1073 1.377 . S
C1073 H1057 0.930 . S
C1073 C1072 1.377 . S
C1073 C1074 1.379 . S
C1074 H1058 0.931 . S
C1074 C1068 1.383 . S
C1074 C1073 1.379 . S
H1075 C1069 0.959 . S
H1076 C1069 0.961 . S
H1077 C1069 0.960 . S
H1078 C1070 0.930 . S
H1079 C1071 0.929 . S
H1080 C1088 0.929 . S
H1081 C1090 0.930 . S
H1082 C1092 0.930 . S
H1083 C1095 0.929 . S
H1084 C1098 0.930 . S
H1085 C1100 0.960 . S
H1086 C1100 0.960 . S
H1087 C1100 0.960 . S
C1088 H1080 0.929 . S
C1088 C1089 1.377 . S
C1088 C1090 1.384 . S
C1089 C1088 1.377 . S
C1089 C1095 1.390 . S
C1090 H1081 0.930 . S
C1090 C1088 1.384 . S
C1090 C1091 1.372 . S
C1091 C1090 1.372 . S
C1091 C1092 1.400 . S
C1091 C1096 1.490 . S
C1092 H1082 0.930 . S
C1092 C1091 1.400 . S
C1092 C1095 1.386 . S
H1093 C1109 0.930 . S
H1094 C1110 0.931 . S
C1095 H1083 0.929 . S
C1095 C1089 1.390 . S
C1095 C1092 1.386 . S
C1096 C1091 1.490 . S
C1096 C1098 1.395 . S
C1096 C1099 1.403 . S
H1097 C1103 0.930 . S
C1098 H1084 0.930 . S
C1098 C1096 1.395 . S
C1098 C1101 1.403 . S
C1099 C1096 1.403 . S
C1099 C1100 1.524 . S
C1099 C1103 1.400 . S
C1100 H1085 0.960 . S
C1100 H1086 0.960 . S
C1100 H1087 0.960 . S
C1100 C1099 1.524 . S
C1101 C1098 1.403 . S
C1101 C1102 1.392 . S
C1101 C1105 1.495 . S
C1102 C1101 1.392 . S
C1102 C1103 1.385 . S
C1102 C1104 1.478 . S
C1103 H1097 0.930 . S
C1103 C1099 1.400 . S
C1103 C1102 1.385 . S
C1104 C1102 1.478 . S
C1104 C1106 1.381 . S
C1104 C1110 1.383 . S
C1105 C1101 1.495 . S
C1105 H1111 0.959 . S
C1105 H1112 0.961 . S
C1105 H1113 0.960 . S
C1106 C1104 1.381 . S
C1106 C1107 1.394 . S
C1106 H1114 0.930 . S
C1107 C1106 1.394 . S
C1107 C1108 1.383 . S
C1107 H1115 0.929 . S
C1108 C1107 1.383 . S
C1108 C1109 1.377 . S
C1109 H1093 0.930 . S
C1109 C1108 1.377 . S
C1109 C1110 1.379 . S
C1110 H1094 0.931 . S
C1110 C1104 1.383 . S
C1110 C1109 1.379 . S
H1111 C1105 0.959 . S
H1112 C1105 0.961 . S
H1113 C1105 0.960 . S
H1114 C1106 0.930 . S
H1115 C1107 0.929 . S
H1116 C1124 0.929 1_556 S
H1117 C1126 0.930 . S
H1118 C1128 0.930 . S
H1119 C1131 0.929 . S
H1120 C1134 0.930 . S
H1121 C1136 0.960 . S
H1122 C1136 0.960 . S
H1123 C1136 0.960 . S
C1124 H1116 0.929 1_554 S
C1124 C1125 1.377 1_554 S
C1124 C1126 1.384 . S
C1125 C1124 1.377 1_556 S
C1125 C1131 1.390 . S
C1126 H1117 0.930 . S
C1126 C1124 1.384 . S
C1126 C1127 1.372 . S
C1127 C1126 1.372 . S
C1127 C1128 1.400 . S
C1127 C1132 1.490 . S
C1128 H1118 0.930 . S
C1128 C1127 1.400 . S
C1128 C1131 1.386 1_554 S
H1129 C1145 0.930 . S
H1130 C1146 0.931 . S
C1131 H1119 0.929 . S
C1131 C1125 1.390 . S
C1131 C1128 1.386 1_556 S
C1132 C1127 1.490 . S
C1132 C1134 1.395 . S
C1132 C1135 1.403 . S
H1133 C1139 0.930 . S
C1134 H1120 0.930 . S
C1134 C1132 1.395 . S
C1134 C1137 1.403 . S
C1135 C1132 1.403 . S
C1135 C1136 1.524 . S
C1135 C1139 1.400 . S
C1136 H1121 0.960 . S
C1136 H1122 0.960 . S
C1136 H1123 0.960 . S
C1136 C1135 1.524 . S
C1137 C1134 1.403 . S
C1137 C1138 1.392 . S
C1137 C1141 1.495 . S
C1138 C1137 1.392 . S
C1138 C1139 1.385 . S
C1138 C1140 1.478 . S
C1139 H1133 0.930 . S
C1139 C1135 1.400 . S
C1139 C1138 1.385 . S
C1140 C1138 1.478 . S
C1140 C1142 1.381 . S
C1140 C1146 1.383 . S
C1141 C1137 1.495 . S
C1141 H1147 0.959 . S
C1141 H1148 0.961 . S
C1141 H1149 0.960 . S
C1142 C1140 1.381 . S
C1142 C1143 1.394 . S
C1142 H1150 0.930 . S
C1143 C1142 1.394 . S
C1143 C1144 1.383 . S
C1143 H1151 0.929 . S
C1144 C1143 1.383 . S
C1144 C1145 1.377 . S
C1145 H1129 0.930 . S
C1145 C1144 1.377 . S
C1145 C1146 1.379 . S
C1146 H1130 0.931 . S
C1146 C1140 1.383 . S
C1146 C1145 1.379 . S
H1147 C1141 0.959 . S
H1148 C1141 0.961 . S
H1149 C1141 0.960 . S
H1150 C1142 0.930 . S
H1151 C1143 0.929 . S
H1152 C1160 0.929 1_556 S
H1153 C1162 0.930 . S
H1154 C1164 0.930 . S
H1155 C1167 0.929 . S
H1156 C1170 0.930 . S
H1157 C1172 0.960 . S
H1158 C1172 0.960 . S
H1159 C1172 0.960 . S
C1160 H1152 0.929 1_554 S
C1160 C1161 1.377 1_554 S
C1160 C1162 1.384 . S
C1161 C1160 1.377 1_556 S
C1161 C1167 1.390 1_556 S
C1162 H1153 0.930 . S
C1162 C1160 1.384 . S
C1162 C1163 1.372 . S
C1163 C1162 1.372 . S
C1163 C1164 1.400 . S
C1163 C1168 1.490 . S
C1164 H1154 0.930 . S
C1164 C1163 1.400 . S
C1164 C1167 1.386 . S
H1165 C1181 0.930 . S
H1166 C1182 0.931 . S
C1167 H1155 0.929 . S
C1167 C1161 1.390 1_554 S
C1167 C1164 1.386 . S
C1168 C1163 1.490 . S
C1168 C1170 1.395 . S
C1168 C1171 1.403 . S
H1169 C1175 0.930 . S
C1170 H1156 0.930 . S
C1170 C1168 1.395 . S
C1170 C1173 1.403 . S
C1171 C1168 1.403 . S
C1171 C1172 1.524 . S
C1171 C1175 1.400 . S
C1172 H1157 0.960 . S
C1172 H1158 0.960 . S
C1172 H1159 0.960 . S
C1172 C1171 1.524 . S
C1173 C1170 1.403 . S
C1173 C1174 1.392 . S
C1173 C1177 1.495 . S
C1174 C1173 1.392 . S
C1174 C1175 1.385 . S
C1174 C1176 1.478 . S
C1175 H1169 0.930 . S
C1175 C1171 1.400 . S
C1175 C1174 1.385 . S
C1176 C1174 1.478 . S
C1176 C1178 1.381 . S
C1176 C1182 1.383 . S
C1177 C1173 1.495 . S
C1177 H1183 0.959 . S
C1177 H1184 0.961 . S
C1177 H1185 0.960 . S
C1178 C1176 1.381 . S
C1178 C1179 1.394 . S
C1178 H1186 0.930 . S
C1179 C1178 1.394 . S
C1179 C1180 1.383 . S
C1179 H1187 0.929 . S
C1180 C1179 1.383 . S
C1180 C1181 1.377 . S
C1181 H1165 0.930 . S
C1181 C1180 1.377 . S
C1181 C1182 1.379 . S
C1182 H1166 0.931 . S
C1182 C1176 1.383 . S
C1182 C1181 1.379 . S
H1183 C1177 0.959 . S
H1184 C1177 0.961 . S
H1185 C1177 0.960 . S
H1186 C1178 0.930 . S
H1187 C1179 0.929 . S
H1188 C1196 0.929 . S
H1189 C1198 0.930 . S
H1190 C1200 0.930 . S
H1191 C1203 0.929 . S
H1192 C1206 0.930 . S
H1193 C1208 0.960 . S
H1194 C1208 0.960 . S
H1195 C1208 0.960 . S
C1196 H1188 0.929 . S
C1196 C1197 1.377 . S
C1196 C1198 1.384 . S
C1197 C1196 1.377 . S
C1197 C1203 1.390 . S
C1198 H1189 0.930 . S
C1198 C1196 1.384 . S
C1198 C1199 1.372 . S
C1199 C1198 1.372 . S
C1199 C1200 1.400 . S
C1199 C1204 1.490 . S
C1200 H1190 0.930 . S
C1200 C1199 1.400 . S
C1200 C1203 1.386 . S
H1201 C1217 0.930 . S
H1202 C1218 0.931 . S
C1203 H1191 0.929 . S
C1203 C1197 1.390 . S
C1203 C1200 1.386 . S
C1204 C1199 1.490 . S
C1204 C1206 1.395 . S
C1204 C1207 1.403 . S
H1205 C1211 0.930 . S
C1206 H1192 0.930 . S
C1206 C1204 1.395 . S
C1206 C1209 1.403 . S
C1207 C1204 1.403 . S
C1207 C1208 1.524 . S
C1207 C1211 1.400 . S
C1208 H1193 0.960 . S
C1208 H1194 0.960 . S
C1208 H1195 0.960 . S
C1208 C1207 1.524 . S
C1209 C1206 1.403 . S
C1209 C1210 1.392 . S
C1209 C1213 1.495 . S
C1210 C1209 1.392 . S
C1210 C1211 1.385 . S
C1210 C1212 1.478 . S
C1211 H1205 0.930 . S
C1211 C1207 1.400 . S
C1211 C1210 1.385 . S
C1212 C1210 1.478 . S
C1212 C1214 1.381 . S
C1212 C1218 1.383 . S
C1213 C1209 1.495 . S
C1213 H1219 0.959 . S
C1213 H1220 0.961 . S
C1213 H1221 0.960 . S
C1214 C1212 1.381 . S
C1214 C1215 1.394 1_554 S
C1214 H1222 0.930 . S
C1215 C1214 1.394 1_556 S
C1215 C1216 1.383 . S
C1215 H1223 0.929 . S
C1216 C1215 1.383 . S
C1216 C1217 1.377 . S
C1217 H1201 0.930 . S
C1217 C1216 1.377 . S
C1217 C1218 1.379 1_556 S
C1218 H1202 0.931 . S
C1218 C1212 1.383 . S
C1218 C1217 1.379 1_554 S
H1219 C1213 0.959 . S
H1220 C1213 0.961 . S
H1221 C1213 0.960 . S
H1222 C1214 0.930 . S
H1223 C1215 0.929 . S
H1224 C1232 0.929 . S
H1225 C1234 0.930 . S
H1226 C1236 0.930 . S
H1227 C1239 0.929 . S
H1228 C1242 0.930 . S
H1229 C1244 0.960 . S
H1230 C1244 0.960 . S
H1231 C1244 0.960 . S
C1232 H1224 0.929 . S
C1232 C1233 1.377 . S
C1232 C1234 1.384 . S
C1233 C1232 1.377 . S
C1233 C1239 1.390 . S
C1234 H1225 0.930 . S
C1234 C1232 1.384 . S
C1234 C1235 1.372 . S
C1235 C1234 1.372 . S
C1235 C1236 1.400 . S
C1235 C1240 1.490 . S
C1236 H1226 0.930 . S
C1236 C1235 1.400 . S
C1236 C1239 1.386 . S
H1237 C1253 0.930 . S
H1238 C1254 0.931 . S
C1239 H1227 0.929 . S
C1239 C1233 1.390 . S
C1239 C1236 1.386 . S
C1240 C1235 1.490 . S
C1240 C1242 1.395 . S
C1240 C1243 1.403 . S
H1241 C1247 0.930 . S
C1242 H1228 0.930 . S
C1242 C1240 1.395 . S
C1242 C1245 1.403 . S
C1243 C1240 1.403 . S
C1243 C1244 1.524 . S
C1243 C1247 1.400 . S
C1244 H1229 0.960 . S
C1244 H1230 0.960 . S
C1244 H1231 0.960 . S
C1244 C1243 1.524 . S
C1245 C1242 1.403 . S
C1245 C1246 1.392 . S
C1245 C1249 1.495 . S
C1246 C1245 1.392 . S
C1246 C1247 1.385 . S
C1246 C1248 1.478 . S
C1247 H1241 0.930 . S
C1247 C1243 1.400 . S
C1247 C1246 1.385 . S
C1248 C1246 1.478 . S
C1248 C1250 1.381 . S
C1248 C1254 1.383 . S
C1249 C1245 1.495 . S
C1249 H1255 0.959 . S
C1249 H1256 0.961 . S
C1249 H1257 0.960 . S
C1250 C1248 1.381 . S
C1250 C1251 1.394 . S
C1250 H1258 0.930 . S
C1251 C1250 1.394 . S
C1251 C1252 1.383 . S
C1251 H1259 0.929 . S
C1252 C1251 1.383 . S
C1252 C1253 1.377 . S
C1253 H1237 0.930 . S
C1253 C1252 1.377 . S
C1253 C1254 1.379 . S
C1254 H1238 0.931 . S
C1254 C1248 1.383 . S
C1254 C1253 1.379 . S
H1255 C1249 0.959 . S
H1256 C1249 0.961 . S
H1257 C1249 0.960 . S
H1258 C1250 0.930 . S
H1259 C1251 0.929 . S
H1260 C1268 0.929 . S
H1261 C1270 0.930 . S
H1262 C1272 0.930 . S
H1263 C1275 0.929 . S
H1264 C1278 0.929 . S
H1265 C1280 0.960 . S
H1266 C1280 0.960 . S
H1267 C1280 0.960 . S
C1268 H1260 0.929 . S
C1268 C1269 1.377 . S
C1268 C1270 1.384 . S
C1269 C1268 1.377 . S
C1269 C1275 1.390 . S
C1270 H1261 0.930 . S
C1270 C1268 1.384 . S
C1270 C1271 1.372 . S
C1271 C1270 1.372 . S
C1271 C1272 1.400 . S
C1271 C1276 1.490 . S
C1272 H1262 0.930 . S
C1272 C1271 1.400 . S
C1272 C1275 1.386 . S
H1273 C1289 0.930 . S
H1274 C1290 0.931 . S
C1275 H1263 0.929 . S
C1275 C1269 1.390 . S
C1275 C1272 1.386 . S
C1276 C1271 1.490 . S
C1276 C1278 1.395 . S
C1276 C1279 1.403 . S
H1277 C1283 0.930 . S
C1278 H1264 0.929 . S
C1278 C1276 1.395 . S
C1278 C1281 1.403 . S
C1279 C1276 1.403 . S
C1279 C1280 1.524 . S
C1279 C1283 1.400 . S
C1280 H1265 0.960 . S
C1280 H1266 0.960 . S
C1280 H1267 0.960 . S
C1280 C1279 1.524 . S
C1281 C1278 1.403 . S
C1281 C1282 1.392 . S
C1281 C1285 1.495 1_554 S
C1282 C1281 1.392 . S
C1282 C1283 1.385 . S
C1282 C1284 1.478 . S
C1283 H1277 0.930 . S
C1283 C1279 1.400 . S
C1283 C1282 1.385 . S
C1284 C1282 1.478 . S
C1284 C1286 1.381 . S
C1284 C1290 1.383 . S
C1285 C1281 1.495 1_556 S
C1285 H1291 0.959 . S
C1285 H1292 0.961 . S
C1285 H1293 0.960 . S
C1286 C1284 1.381 . S
C1286 C1287 1.394 . S
C1286 H1294 0.930 . S
C1287 C1286 1.394 . S
C1287 C1288 1.383 . S
C1287 H1295 0.929 . S
C1288 C1287 1.383 . S
C1288 C1289 1.377 . S
C1289 H1273 0.930 . S
C1289 C1288 1.377 . S
C1289 C1290 1.379 . S
C1290 H1274 0.931 . S
C1290 C1284 1.383 . S
C1290 C1289 1.379 . S
H1291 C1285 0.959 . S
H1292 C1285 0.961 . S
H1293 C1285 0.960 . S
H1294 C1286 0.930 . S
H1295 C1287 0.929 . S
H1296 C1304 0.929 . S
H1297 C1306 0.930 . S
H1298 C1308 0.930 . S
H1299 C1311 0.929 . S
H1300 C1314 0.930 . S
H1301 C1316 0.960 . S
H1302 C1316 0.960 . S
H1303 C1316 0.960 . S
C1304 H1296 0.929 . S
C1304 C1305 1.377 . S
C1304 C1306 1.384 . S
C1305 C1304 1.377 . S
C1305 C1311 1.390 . S
C1306 H1297 0.930 . S
C1306 C1304 1.384 . S
C1306 C1307 1.372 . S
C1307 C1306 1.372 . S
C1307 C1308 1.400 . S
C1307 C1312 1.490 . S
C1308 H1298 0.930 . S
C1308 C1307 1.400 . S
C1308 C1311 1.386 . S
H1309 C1325 0.930 . S
H1310 C1326 0.931 . S
C1311 H1299 0.929 . S
C1311 C1305 1.390 . S
C1311 C1308 1.386 . S
C1312 C1307 1.490 . S
C1312 C1314 1.395 . S
C1312 C1315 1.403 . S
H1313 C1319 0.930 . S
C1314 H1300 0.930 . S
C1314 C1312 1.395 . S
C1314 C1317 1.403 . S
C1315 C1312 1.403 . S
C1315 C1316 1.524 . S
C1315 C1319 1.400 . S
C1316 H1301 0.960 . S
C1316 H1302 0.960 . S
C1316 H1303 0.960 . S
C1316 C1315 1.524 . S
C1317 C1314 1.403 . S
C1317 C1318 1.392 . S
C1317 C1321 1.495 . S
C1318 C1317 1.392 . S
C1318 C1319 1.385 . S
C1318 C1320 1.478 . S
C1319 H1313 0.930 . S
C1319 C1315 1.400 . S
C1319 C1318 1.385 . S
C1320 C1318 1.478 . S
C1320 C1322 1.381 . S
C1320 C1326 1.383 . S
C1321 C1317 1.495 . S
C1321 H1327 0.959 . S
C1321 H1328 0.961 . S
C1321 H1329 0.960 . S
C1322 C1320 1.381 . S
C1322 C1323 1.394 . S
C1322 H1330 0.930 . S
C1323 C1322 1.394 . S
C1323 C1324 1.383 . S
C1323 H1331 0.929 . S
C1324 C1323 1.383 . S
C1324 C1325 1.377 . S
C1325 H1309 0.930 . S
C1325 C1324 1.377 . S
C1325 C1326 1.379 . S
C1326 H1310 0.931 . S
C1326 C1320 1.383 . S
C1326 C1325 1.379 . S
H1327 C1321 0.959 . S
H1328 C1321 0.961 . S
H1329 C1321 0.960 . S
H1330 C1322 0.930 . S
H1331 C1323 0.929 . S
H1332 C1340 0.929 . S
H1333 C1342 0.930 . S
H1334 C1344 0.930 . S
H1335 C1347 0.929 . S
H1336 C1350 0.930 . S
H1337 C1352 0.960 . S
H1338 C1352 0.960 . S
H1339 C1352 0.960 . S
C1340 H1332 0.929 . S
C1340 C1341 1.377 . S
C1340 C1342 1.384 . S
C1341 C1340 1.377 . S
C1341 C1347 1.390 . S
C1342 H1333 0.930 . S
C1342 C1340 1.384 . S
C1342 C1343 1.372 . S
C1343 C1342 1.372 . S
C1343 C1344 1.400 . S
C1343 C1348 1.490 . S
C1344 H1334 0.930 . S
C1344 C1343 1.400 . S
C1344 C1347 1.386 . S
H1345 C1361 0.930 1_556 S
H1346 C1362 0.931 . S
C1347 H1335 0.929 . S
C1347 C1341 1.390 . S
C1347 C1344 1.386 . S
C1348 C1343 1.490 . S
C1348 C1350 1.395 . S
C1348 C1351 1.403 . S
H1349 C1355 0.930 . S
C1350 H1336 0.930 . S
C1350 C1348 1.395 . S
C1350 C1353 1.403 . S
C1351 C1348 1.403 . S
C1351 C1352 1.524 1_545 S
C1351 C1355 1.400 . S
C1352 H1337 0.960 . S
C1352 H1338 0.960 . S
C1352 H1339 0.960 . S
C1352 C1351 1.524 1_565 S
C1353 C1350 1.403 . S
C1353 C1354 1.392 . S
C1353 C1357 1.495 . S
C1354 C1353 1.392 . S
C1354 C1355 1.385 . S
C1354 C1356 1.478 . S
C1355 H1349 0.930 . S
C1355 C1351 1.400 . S
C1355 C1354 1.385 . S
C1356 C1354 1.478 . S
C1356 C1358 1.381 . S
C1356 C1362 1.383 . S
C1357 C1353 1.495 . S
C1357 H1363 0.959 . S
C1357 H1364 0.961 . S
C1357 H1365 0.960 . S
C1358 C1356 1.381 . S
C1358 C1359 1.394 . S
C1358 H1366 0.930 . S
C1359 C1358 1.394 . S
C1359 C1360 1.383 . S
C1359 H1367 0.929 . S
C1360 C1359 1.383 . S
C1360 C1361 1.377 . S
C1361 H1345 0.930 1_554 S
C1361 C1360 1.377 . S
C1361 C1362 1.379 . S
C1362 H1346 0.931 . S
C1362 C1356 1.383 . S
C1362 C1361 1.379 . S
H1363 C1357 0.959 . S
H1364 C1357 0.961 . S
H1365 C1357 0.960 . S
H1366 C1358 0.930 . S
H1367 C1359 0.929 . S
H1368 C1376 0.929 . S
H1369 C1378 0.930 . S
H1370 C1380 0.930 . S
H1371 C1383 0.929 . S
H1372 C1386 0.930 . S
H1373 C1388 0.960 . S
H1374 C1388 0.960 . S
H1375 C1388 0.960 . S
C1376 H1368 0.929 . S
C1376 C1377 1.377 . S
C1376 C1378 1.384 . S
C1377 C1376 1.377 . S
C1377 C1383 1.390 . S
C1378 H1369 0.930 . S
C1378 C1376 1.384 . S
C1378 C1379 1.372 . S
C1379 C1378 1.372 . S
C1379 C1380 1.400 . S
C1379 C1384 1.490 . S
C1380 H1370 0.930 . S
C1380 C1379 1.400 . S
C1380 C1383 1.386 . S
H1381 C1397 0.930 . S
H1382 C1398 0.931 . S
C1383 H1371 0.929 . S
C1383 C1377 1.390 . S
C1383 C1380 1.386 . S
C1384 C1379 1.490 . S
C1384 C1386 1.395 . S
C1384 C1387 1.403 . S
H1385 C1391 0.930 . S
C1386 H1372 0.930 . S
C1386 C1384 1.395 . S
C1386 C1389 1.403 . S
C1387 C1384 1.403 . S
C1387 C1388 1.524 . S
C1387 C1391 1.400 . S
C1388 H1373 0.960 . S
C1388 H1374 0.960 . S
C1388 H1375 0.960 . S
C1388 C1387 1.524 . S
C1389 C1386 1.403 . S
C1389 C1390 1.392 . S
C1389 C1393 1.495 . S
C1390 C1389 1.392 . S
C1390 C1391 1.385 . S
C1390 C1392 1.478 . S
C1391 H1385 0.930 . S
C1391 C1387 1.400 . S
C1391 C1390 1.385 . S
C1392 C1390 1.478 . S
C1392 C1394 1.381 . S
C1392 C1398 1.383 . S
C1393 C1389 1.495 . S
C1393 H1399 0.959 . S
C1393 H1400 0.961 . S
C1393 H1401 0.960 . S
C1394 C1392 1.381 . S
C1394 C1395 1.394 . S
C1394 H1402 0.930 . S
C1395 C1394 1.394 . S
C1395 C1396 1.383 . S
C1395 H1403 0.929 . S
C1396 C1395 1.383 . S
C1396 C1397 1.377 . S
C1397 H1381 0.930 . S
C1397 C1396 1.377 . S
C1397 C1398 1.379 . S
C1398 H1382 0.931 . S
C1398 C1392 1.383 . S
C1398 C1397 1.379 . S
H1399 C1393 0.959 . S
H1400 C1393 0.961 . S
H1401 C1393 0.960 . S
H1402 C1394 0.930 . S
H1403 C1395 0.929 . S
H1404 C1412 0.929 . S
H1405 C1414 0.930 . S
H1406 C1416 0.930 . S
H1407 C1419 0.929 . S
H1408 C1422 0.930 . S
H1409 C1424 0.960 . S
H1410 C1424 0.960 . S
H1411 C1424 0.960 . S
C1412 H1404 0.929 . S
C1412 C1413 1.377 . S
C1412 C1414 1.384 . S
C1413 C1412 1.377 . S
C1413 C1419 1.390 . S
C1414 H1405 0.930 . S
C1414 C1412 1.384 . S
C1414 C1415 1.372 . S
C1415 C1414 1.372 . S
C1415 C1416 1.400 . S
C1415 C1420 1.490 . S
C1416 H1406 0.930 . S
C1416 C1415 1.400 . S
C1416 C1419 1.386 . S
H1417 C1433 0.930 . S
H1418 C1434 0.931 . S
C1419 H1407 0.929 . S
C1419 C1413 1.390 . S
C1419 C1416 1.386 . S
C1420 C1415 1.490 . S
C1420 C1422 1.395 . S
C1420 C1423 1.403 . S
H1421 C1427 0.930 . S
C1422 H1408 0.930 . S
C1422 C1420 1.395 . S
C1422 C1425 1.403 . S
C1423 C1420 1.403 . S
C1423 C1424 1.524 . S
C1423 C1427 1.400 . S
C1424 H1409 0.960 . S
C1424 H1410 0.960 . S
C1424 H1411 0.960 . S
C1424 C1423 1.524 . S
C1425 C1422 1.403 . S
C1425 C1426 1.392 . S
C1425 C1429 1.495 . S
C1426 C1425 1.392 . S
C1426 C1427 1.385 . S
C1426 C1428 1.478 . S
C1427 H1421 0.930 . S
C1427 C1423 1.400 . S
C1427 C1426 1.385 . S
C1428 C1426 1.478 . S
C1428 C1430 1.381 . S
C1428 C1434 1.383 . S
C1429 C1425 1.495 . S
C1429 H1435 0.959 . S
C1429 H1436 0.961 . S
C1429 H1437 0.960 . S
C1430 C1428 1.381 . S
C1430 C1431 1.394 . S
C1430 H1438 0.930 . S
C1431 C1430 1.394 . S
C1431 C1432 1.383 . S
C1431 H1439 0.929 . S
C1432 C1431 1.383 . S
C1432 C1433 1.377 . S
C1433 H1417 0.930 . S
C1433 C1432 1.377 . S
C1433 C1434 1.379 . S
C1434 H1418 0.931 . S
C1434 C1428 1.383 . S
C1434 C1433 1.379 . S
H1435 C1429 0.959 . S
H1436 C1429 0.961 . S
H1437 C1429 0.960 . S
H1438 C1430 0.930 . S
H1439 C1431 0.929 . S
H1440 C1448 0.929 . S
H1441 C1450 0.930 . S
H1442 C1452 0.930 . S
H1443 C1455 0.929 . S
H1444 C1458 0.930 . S
H1445 C1460 0.960 . S
H1446 C1460 0.960 . S
H1447 C1460 0.960 . S
C1448 H1440 0.929 . S
C1448 C1449 1.377 . S
C1448 C1450 1.384 . S
C1449 C1448 1.377 . S
C1449 C1455 1.390 . S
C1450 H1441 0.930 . S
C1450 C1448 1.384 . S
C1450 C1451 1.372 . S
C1451 C1450 1.372 . S
C1451 C1452 1.400 . S
C1451 C1456 1.490 . S
C1452 H1442 0.930 . S
C1452 C1451 1.400 . S
C1452 C1455 1.386 . S
H1453 C1469 0.930 . S
H1454 C1470 0.931 . S
C1455 H1443 0.929 . S
C1455 C1449 1.390 . S
C1455 C1452 1.386 . S
C1456 C1451 1.490 . S
C1456 C1458 1.395 . S
C1456 C1459 1.403 . S
H1457 C1463 0.930 . S
C1458 H1444 0.930 . S
C1458 C1456 1.395 . S
C1458 C1461 1.403 . S
C1459 C1456 1.403 . S
C1459 C1460 1.524 . S
C1459 C1463 1.400 . S
C1460 H1445 0.960 . S
C1460 H1446 0.960 . S
C1460 H1447 0.960 . S
C1460 C1459 1.524 . S
C1461 C1458 1.403 . S
C1461 C1462 1.392 . S
C1461 C1465 1.495 . S
C1462 C1461 1.392 . S
C1462 C1463 1.385 . S
C1462 C1464 1.478 . S
C1463 H1457 0.930 . S
C1463 C1459 1.400 . S
C1463 C1462 1.385 . S
C1464 C1462 1.478 . S
C1464 C1466 1.381 . S
C1464 C1470 1.383 . S
C1465 C1461 1.495 . S
C1465 H1471 0.959 . S
C1465 H1472 0.961 . S
C1465 H1473 0.960 . S
C1466 C1464 1.381 . S
C1466 C1467 1.394 . S
C1466 H1474 0.930 . S
C1467 C1466 1.394 . S
C1467 C1468 1.383 . S
C1467 H1475 0.929 . S
C1468 C1467 1.383 . S
C1468 C1469 1.377 . S
C1469 H1453 0.930 . S
C1469 C1468 1.377 . S
C1469 C1470 1.379 . S
C1470 H1454 0.931 . S
C1470 C1464 1.383 . S
C1470 C1469 1.379 . S
H1471 C1465 0.959 . S
H1472 C1465 0.961 . S
H1473 C1465 0.960 . S
H1474 C1466 0.930 . S
H1475 C1467 0.929 . S
H1476 C1484 0.929 . S
H1477 C1486 0.930 . S
H1478 C1488 0.930 . S
H1479 C1491 0.929 . S
H1480 C1494 0.930 . S
H1481 C1496 0.960 . S
H1482 C1496 0.960 . S
H1483 C1496 0.960 . S
C1484 H1476 0.929 . S
C1484 C1485 1.377 . S
C1484 C1486 1.384 . S
C1485 C1484 1.377 . S
C1485 C1491 1.390 . S
C1486 H1477 0.930 . S
C1486 C1484 1.384 . S
C1486 C1487 1.372 . S
C1487 C1486 1.372 . S
C1487 C1488 1.400 . S
C1487 C1492 1.490 . S
C1488 H1478 0.930 . S
C1488 C1487 1.400 . S
C1488 C1491 1.386 . S
H1489 C1505 0.930 . S
H1490 C1506 0.931 . S
C1491 H1479 0.929 . S
C1491 C1485 1.390 . S
C1491 C1488 1.386 . S
C1492 C1487 1.490 . S
C1492 C1494 1.395 . S
C1492 C1495 1.403 . S
H1493 C1499 0.930 . S
C1494 H1480 0.930 . S
C1494 C1492 1.395 . S
C1494 C1497 1.403 . S
C1495 C1492 1.403 . S
C1495 C1496 1.524 . S
C1495 C1499 1.400 . S
C1496 H1481 0.960 . S
C1496 H1482 0.960 . S
C1496 H1483 0.960 . S
C1496 C1495 1.524 . S
C1497 C1494 1.403 . S
C1497 C1498 1.392 . S
C1497 C1501 1.495 . S
C1498 C1497 1.392 . S
C1498 C1499 1.385 . S
C1498 C1500 1.478 . S
C1499 H1493 0.930 . S
C1499 C1495 1.400 . S
C1499 C1498 1.385 . S
C1500 C1498 1.478 . S
C1500 C1502 1.381 . S
C1500 C1506 1.383 . S
C1501 C1497 1.495 . S
C1501 H1507 0.959 . S
C1501 H1508 0.961 . S
C1501 H1509 0.960 . S
C1502 C1500 1.381 . S
C1502 C1503 1.394 . S
C1502 H1510 0.930 . S
C1503 C1502 1.394 . S
C1503 C1504 1.383 . S
C1503 H1511 0.929 . S
C1504 C1503 1.383 . S
C1504 C1505 1.377 . S
C1505 H1489 0.930 . S
C1505 C1504 1.377 . S
C1505 C1506 1.379 . S
C1506 H1490 0.931 . S
C1506 C1500 1.383 . S
C1506 C1505 1.379 . S
H1507 C1501 0.959 . S
H1508 C1501 0.961 . S
H1509 C1501 0.960 . S
H1510 C1502 0.930 . S
H1511 C1503 0.929 . S
H1512 C1520 0.929 . S
H1513 C1522 0.930 . S
H1514 C1524 0.930 . S
H1515 C1527 0.929 . S
H1516 C1530 0.930 . S
H1517 C1532 0.960 . S
H1518 C1532 0.960 . S
H1519 C1532 0.960 . S
C1520 H1512 0.929 . S
C1520 C1521 1.377 . S
C1520 C1522 1.384 . S
C1521 C1520 1.377 . S
C1521 C1527 1.390 . S
C1522 H1513 0.930 . S
C1522 C1520 1.384 . S
C1522 C1523 1.372 . S
C1523 C1522 1.372 . S
C1523 C1524 1.400 . S
C1523 C1528 1.490 . S
C1524 H1514 0.930 . S
C1524 C1523 1.400 . S
C1524 C1527 1.386 . S
H1525 C1541 0.930 . S
H1526 C1542 0.931 . S
C1527 H1515 0.929 . S
C1527 C1521 1.390 . S
C1527 C1524 1.386 . S
C1528 C1523 1.490 . S
C1528 C1530 1.395 . S
C1528 C1531 1.403 . S
H1529 C1535 0.930 . S
C1530 H1516 0.930 . S
C1530 C1528 1.395 . S
C1530 C1533 1.403 . S
C1531 C1528 1.403 . S
C1531 C1532 1.524 . S
C1531 C1535 1.400 . S
C1532 H1517 0.960 . S
C1532 H1518 0.960 . S
C1532 H1519 0.960 . S
C1532 C1531 1.524 . S
C1533 C1530 1.403 . S
C1533 C1534 1.392 . S
C1533 C1537 1.495 . S
C1534 C1533 1.392 . S
C1534 C1535 1.385 . S
C1534 C1536 1.478 . S
C1535 H1529 0.930 . S
C1535 C1531 1.400 . S
C1535 C1534 1.385 . S
C1536 C1534 1.478 . S
C1536 C1538 1.381 . S
C1536 C1542 1.383 . S
C1537 C1533 1.495 . S
C1537 H1543 0.959 . S
C1537 H1544 0.961 . S
C1537 H1545 0.960 . S
C1538 C1536 1.381 . S
C1538 C1539 1.394 . S
C1538 H1546 0.930 . S
C1539 C1538 1.394 . S
C1539 C1540 1.383 . S
C1539 H1547 0.929 . S
C1540 C1539 1.383 . S
C1540 C1541 1.377 . S
C1541 H1525 0.930 . S
C1541 C1540 1.377 . S
C1541 C1542 1.379 . S
C1542 H1526 0.931 . S
C1542 C1536 1.383 . S
C1542 C1541 1.379 . S
H1543 C1537 0.959 . S
H1544 C1537 0.961 . S
H1545 C1537 0.960 . S
H1546 C1538 0.930 . S
H1547 C1539 0.929 . S
H1548 C1556 0.929 . S
H1549 C1558 0.930 . S
H1550 C1560 0.930 . S
H1551 C1563 0.929 . S
H1552 C1566 0.930 . S
H1553 C1568 0.960 . S
H1554 C1568 0.960 . S
H1555 C1568 0.960 . S
C1556 H1548 0.929 . S
C1556 C1557 1.377 . S
C1556 C1558 1.384 . S
C1557 C1556 1.377 . S
C1557 C1563 1.390 . S
C1558 H1549 0.930 . S
C1558 C1556 1.384 . S
C1558 C1559 1.372 . S
C1559 C1558 1.372 . S
C1559 C1560 1.400 . S
C1559 C1564 1.490 . S
C1560 H1550 0.930 . S
C1560 C1559 1.400 . S
C1560 C1563 1.386 . S
H1561 C1577 0.930 . S
H1562 C1578 0.931 . S
C1563 H1551 0.929 . S
C1563 C1557 1.390 . S
C1563 C1560 1.386 . S
C1564 C1559 1.490 . S
C1564 C1566 1.395 . S
C1564 C1567 1.403 . S
H1565 C1571 0.930 . S
C1566 H1552 0.930 . S
C1566 C1564 1.395 . S
C1566 C1569 1.403 . S
C1567 C1564 1.403 . S
C1567 C1568 1.524 . S
C1567 C1571 1.400 . S
C1568 H1553 0.960 . S
C1568 H1554 0.960 . S
C1568 H1555 0.960 . S
C1568 C1567 1.524 . S
C1569 C1566 1.403 . S
C1569 C1570 1.392 . S
C1569 C1573 1.495 . S
C1570 C1569 1.392 . S
C1570 C1571 1.385 . S
C1570 C1572 1.478 . S
C1571 H1565 0.930 . S
C1571 C1567 1.400 . S
C1571 C1570 1.385 . S
C1572 C1570 1.478 . S
C1572 C1574 1.381 . S
C1572 C1578 1.383 . S
C1573 C1569 1.495 . S
C1573 H1579 0.959 . S
C1573 H1580 0.961 . S
C1573 H1581 0.960 . S
C1574 C1572 1.381 . S
C1574 C1575 1.394 . S
C1574 H1582 0.930 . S
C1575 C1574 1.394 . S
C1575 C1576 1.383 . S
C1575 H1583 0.929 . S
C1576 C1575 1.383 . S
C1576 C1577 1.377 . S
C1577 H1561 0.930 . S
C1577 C1576 1.377 . S
C1577 C1578 1.379 . S
C1578 H1562 0.931 . S
C1578 C1572 1.383 . S
C1578 C1577 1.379 . S
H1579 C1573 0.959 . S
H1580 C1573 0.961 . S
H1581 C1573 0.960 . S
H1582 C1574 0.930 . S
H1583 C1575 0.929 . S
H1584 C1592 0.929 . S
H1585 C1594 0.930 . S
H1586 C1596 0.930 . S
H1587 C1599 0.929 . S
H1588 C1602 0.930 . S
H1589 C1604 0.960 . S
H1590 C1604 0.960 . S
H1591 C1604 0.960 . S
C1592 H1584 0.929 . S
C1592 C1593 1.377 . S
C1592 C1594 1.384 . S
C1593 C1592 1.377 . S
C1593 C1599 1.390 . S
C1594 H1585 0.930 . S
C1594 C1592 1.384 . S
C1594 C1595 1.372 . S
C1595 C1594 1.372 . S
C1595 C1596 1.400 . S
C1595 C1600 1.490 . S
C1596 H1586 0.930 . S
C1596 C1595 1.400 . S
C1596 C1599 1.386 . S
H1597 C1613 0.930 . S
H1598 C1614 0.931 . S
C1599 H1587 0.929 . S
C1599 C1593 1.390 . S
C1599 C1596 1.386 . S
C1600 C1595 1.490 . S
C1600 C1602 1.395 . S
C1600 C1603 1.403 . S
H1601 C1607 0.930 . S
C1602 H1588 0.930 . S
C1602 C1600 1.395 . S
C1602 C1605 1.403 . S
C1603 C1600 1.403 . S
C1603 C1604 1.524 . S
C1603 C1607 1.400 . S
C1604 H1589 0.960 . S
C1604 H1590 0.960 . S
C1604 H1591 0.960 . S
C1604 C1603 1.524 . S
C1605 C1602 1.403 . S
C1605 C1606 1.392 . S
C1605 C1609 1.495 . S
C1606 C1605 1.392 . S
C1606 C1607 1.385 . S
C1606 C1608 1.478 . S
C1607 H1601 0.930 . S
C1607 C1603 1.400 . S
C1607 C1606 1.385 . S
C1608 C1606 1.478 . S
C1608 C1610 1.381 . S
C1608 C1614 1.383 . S
C1609 C1605 1.495 . S
C1609 H1615 0.959 . S
C1609 H1616 0.961 . S
C1609 H1617 0.960 . S
C1610 C1608 1.381 . S
C1610 C1611 1.394 . S
C1610 H1618 0.930 . S
C1611 C1610 1.394 . S
C1611 C1612 1.383 . S
C1611 H1619 0.929 . S
C1612 C1611 1.383 . S
C1612 C1613 1.377 . S
C1613 H1597 0.930 . S
C1613 C1612 1.377 . S
C1613 C1614 1.379 . S
C1614 H1598 0.931 . S
C1614 C1608 1.383 . S
C1614 C1613 1.379 . S
H1615 C1609 0.959 . S
H1616 C1609 0.961 . S
H1617 C1609 0.960 . S
H1618 C1610 0.930 . S
H1619 C1611 0.929 . S
H1620 C1628 0.929 . S
H1621 C1630 0.930 . S
H1622 C1632 0.930 . S
H1623 C1635 0.929 . S
H1624 C1638 0.930 . S
H1625 C1640 0.960 . S
H1626 C1640 0.960 . S
H1627 C1640 0.960 . S
C1628 H1620 0.929 . S
C1628 C1629 1.377 . S
C1628 C1630 1.384 . S
C1629 C1628 1.377 . S
C1629 C1635 1.390 . S
C1630 H1621 0.930 . S
C1630 C1628 1.384 . S
C1630 C1631 1.372 . S
C1631 C1630 1.372 . S
C1631 C1632 1.400 . S
C1631 C1636 1.490 . S
C1632 H1622 0.930 . S
C1632 C1631 1.400 . S
C1632 C1635 1.386 . S
H1633 C1649 0.930 . S
H1634 C1650 0.931 . S
C1635 H1623 0.929 . S
C1635 C1629 1.390 . S
C1635 C1632 1.386 . S
C1636 C1631 1.490 . S
C1636 C1638 1.395 . S
C1636 C1639 1.403 . S
H1637 C1643 0.930 . S
C1638 H1624 0.930 . S
C1638 C1636 1.395 . S
C1638 C1641 1.403 . S
C1639 C1636 1.403 . S
C1639 C1640 1.524 . S
C1639 C1643 1.400 . S
C1640 H1625 0.960 . S
C1640 H1626 0.960 . S
C1640 H1627 0.960 . S
C1640 C1639 1.524 . S
C1641 C1638 1.403 . S
C1641 C1642 1.392 . S
C1641 C1645 1.495 . S
C1642 C1641 1.392 . S
C1642 C1643 1.385 . S
C1642 C1644 1.478 . S
C1643 H1637 0.930 . S
C1643 C1639 1.400 . S
C1643 C1642 1.385 . S
C1644 C1642 1.478 . S
C1644 C1646 1.381 . S
C1644 C1650 1.383 . S
C1645 C1641 1.495 . S
C1645 H1651 0.959 . S
C1645 H1652 0.961 . S
C1645 H1653 0.960 . S
C1646 C1644 1.381 . S
C1646 C1647 1.394 . S
C1646 H1654 0.930 . S
C1647 C1646 1.394 . S
C1647 C1648 1.383 . S
C1647 H1655 0.929 . S
C1648 C1647 1.383 . S
C1648 C1649 1.377 . S
C1649 H1633 0.930 . S
C1649 C1648 1.377 . S
C1649 C1650 1.379 . S
C1650 H1634 0.931 . S
C1650 C1644 1.383 . S
C1650 C1649 1.379 . S
H1651 C1645 0.959 . S
H1652 C1645 0.961 . S
H1653 C1645 0.960 . S
H1654 C1646 0.930 . S
H1655 C1647 0.929 . S
H1656 C1664 0.929 . S
H1657 C1666 0.930 . S
H1658 C1668 0.930 . S
H1659 C1671 0.929 . S
H1660 C1674 0.930 . S
H1661 C1676 0.960 . S
H1662 C1676 0.960 . S
H1663 C1676 0.960 . S
C1664 H1656 0.929 . S
C1664 C1665 1.377 . S
C1664 C1666 1.384 . S
C1665 C1664 1.377 . S
C1665 C1671 1.390 . S
C1666 H1657 0.930 . S
C1666 C1664 1.384 . S
C1666 C1667 1.372 . S
C1667 C1666 1.372 . S
C1667 C1668 1.400 . S
C1667 C1672 1.490 . S
C1668 H1658 0.930 . S
C1668 C1667 1.400 . S
C1668 C1671 1.386 . S
H1669 C1685 0.930 . S
H1670 C1686 0.931 . S
C1671 H1659 0.929 . S
C1671 C1665 1.390 . S
C1671 C1668 1.386 . S
C1672 C1667 1.490 . S
C1672 C1674 1.395 . S
C1672 C1675 1.403 . S
H1673 C1679 0.930 . S
C1674 H1660 0.930 . S
C1674 C1672 1.395 . S
C1674 C1677 1.403 1_545 S
C1675 C1672 1.403 . S
C1675 C1676 1.524 . S
C1675 C1679 1.400 . S
C1676 H1661 0.960 . S
C1676 H1662 0.960 . S
C1676 H1663 0.960 . S
C1676 C1675 1.524 . S
C1677 C1674 1.403 1_565 S
C1677 C1678 1.392 . S
C1677 C1681 1.495 . S
C1678 C1677 1.392 . S
C1678 C1679 1.385 1_565 S
C1678 C1680 1.478 . S
C1679 H1673 0.930 . S
C1679 C1675 1.400 . S
C1679 C1678 1.385 1_545 S
C1680 C1678 1.478 . S
C1680 C1682 1.381 . S
C1680 C1686 1.383 . S
C1681 C1677 1.495 . S
C1681 H1687 0.959 . S
C1681 H1688 0.961 . S
C1681 H1689 0.960 . S
C1682 C1680 1.381 . S
C1682 C1683 1.394 . S
C1682 H1690 0.930 1_565 S
C1683 C1682 1.394 . S
C1683 C1684 1.383 . S
C1683 H1691 0.929 . S
C1684 C1683 1.383 . S
C1684 C1685 1.377 . S
C1685 H1669 0.930 . S
C1685 C1684 1.377 . S
C1685 C1686 1.379 . S
C1686 H1670 0.931 . S
C1686 C1680 1.383 . S
C1686 C1685 1.379 . S
H1687 C1681 0.959 . S
H1688 C1681 0.961 . S
H1689 C1681 0.960 . S
H1690 C1682 0.930 1_545 S
H1691 C1683 0.929 . S
H1692 C1700 0.929 . S
H1693 C1702 0.930 . S
H1694 C1704 0.930 . S
H1695 C1707 0.929 . S
H1696 C1710 0.930 . S
H1697 C1712 0.960 . S
H1698 C1712 0.960 1_554 S
H1699 C1712 0.960 . S
C1700 H1692 0.929 . S
C1700 C1701 1.377 . S
C1700 C1702 1.384 . S
C1701 C1700 1.377 . S
C1701 C1707 1.390 1_554 S
C1702 H1693 0.930 . S
C1702 C1700 1.384 . S
C1702 C1703 1.372 1_554 S
C1703 C1702 1.372 1_556 S
C1703 C1704 1.400 . S
C1703 C1708 1.490 . S
C1704 H1694 0.930 . S
C1704 C1703 1.400 . S
C1704 C1707 1.386 . S
H1705 C1721 0.930 . S
H1706 C1722 0.931 . S
C1707 H1695 0.929 . S
C1707 C1701 1.390 1_556 S
C1707 C1704 1.386 . S
C1708 C1703 1.490 . S
C1708 C1710 1.395 . S
C1708 C1711 1.403 . S
H1709 C1715 0.930 . S
C1710 H1696 0.930 . S
C1710 C1708 1.395 . S
C1710 C1713 1.403 . S
C1711 C1708 1.403 . S
C1711 C1712 1.524 . S
C1711 C1715 1.400 . S
C1712 H1697 0.960 . S
C1712 H1698 0.960 1_556 S
C1712 H1699 0.960 . S
C1712 C1711 1.524 . S
C1713 C1710 1.403 . S
C1713 C1714 1.392 . S
C1713 C1717 1.495 . S
C1714 C1713 1.392 . S
C1714 C1715 1.385 . S
C1714 C1716 1.478 . S
C1715 H1709 0.930 . S
C1715 C1711 1.400 . S
C1715 C1714 1.385 . S
C1716 C1714 1.478 . S
C1716 C1718 1.381 . S
C1716 C1722 1.383 . S
C1717 C1713 1.495 . S
C1717 H1723 0.959 . S
C1717 H1724 0.961 . S
C1717 H1725 0.960 . S
C1718 C1716 1.381 . S
C1718 C1719 1.394 . S
C1718 H1726 0.930 . S
C1719 C1718 1.394 . S
C1719 C1720 1.383 . S
C1719 H1727 0.929 . S
C1720 C1719 1.383 . S
C1720 C1721 1.377 . S
C1721 H1705 0.930 . S
C1721 C1720 1.377 . S
C1721 C1722 1.379 . S
C1722 H1706 0.931 . S
C1722 C1716 1.383 . S
C1722 C1721 1.379 . S
H1723 C1717 0.959 . S
H1724 C1717 0.961 . S
H1725 C1717 0.960 . S
H1726 C1718 0.930 . S
H1727 C1719 0.929 . S
H1728 C1736 0.929 . S
H1729 C1738 0.930 . S
H1730 C1740 0.930 . S
H1731 C1743 0.929 1_554 S
H1732 C1746 0.930 1_554 S
H1733 C1748 0.960 1_655 S
H1734 C1748 0.960 . S
H1735 C1748 0.960 . S
C1736 H1728 0.929 . S
C1736 C1737 1.377 . S
C1736 C1738 1.384 1_554 S
C1737 C1736 1.377 . S
C1737 C1743 1.390 1_554 S
C1738 H1729 0.930 . S
C1738 C1736 1.384 1_556 S
C1738 C1739 1.372 . S
C1739 C1738 1.372 . S
C1739 C1740 1.400 . S
C1739 C1744 1.490 1_455 S
C1740 H1730 0.930 . S
C1740 C1739 1.400 . S
C1740 C1743 1.386 . S
H1741 C1757 0.930 . S
H1742 C1758 0.931 . S
C1743 H1731 0.929 1_556 S
C1743 C1737 1.390 1_556 S
C1743 C1740 1.386 . S
C1744 C1739 1.490 1_655 S
C1744 C1746 1.395 . S
C1744 C1747 1.403 . S
H1745 C1751 0.930 . S
C1746 H1732 0.930 1_556 S
C1746 C1744 1.395 . S
C1746 C1749 1.403 . S
C1747 C1744 1.403 . S
C1747 C1748 1.524 1_655 S
C1747 C1751 1.400 . S
C1748 H1733 0.960 1_455 S
C1748 H1734 0.960 . S
C1748 H1735 0.960 . S
C1748 C1747 1.524 1_455 S
C1749 C1746 1.403 . S
C1749 C1750 1.392 . S
C1749 C1753 1.495 . S
C1750 C1749 1.392 . S
C1750 C1751 1.385 . S
C1750 C1752 1.478 . S
C1751 H1745 0.930 . S
C1751 C1747 1.400 . S
C1751 C1750 1.385 . S
C1752 C1750 1.478 . S
C1752 C1754 1.381 . S
C1752 C1758 1.383 . S
C1753 C1749 1.495 . S
C1753 H1759 0.959 1_556 S
C1753 H1760 0.961 . S
C1753 H1761 0.960 . S
C1754 C1752 1.381 . S
C1754 C1755 1.394 . S
C1754 H1762 0.930 . S
C1755 C1754 1.394 . S
C1755 C1756 1.383 . S
C1755 H1763 0.929 . S
C1756 C1755 1.383 . S
C1756 C1757 1.377 . S
C1757 H1741 0.930 . S
C1757 C1756 1.377 . S
C1757 C1758 1.379 . S
C1758 H1742 0.931 . S
C1758 C1752 1.383 . S
C1758 C1757 1.379 . S
H1759 C1753 0.959 1_554 S
H1760 C1753 0.961 . S
H1761 C1753 0.960 . S
H1762 C1754 0.930 . S
H1763 C1755 0.929 . S
H1764 C1772 0.929 . S
H1765 C1774 0.930 . S
H1766 C1776 0.930 . S
H1767 C1779 0.929 . S
H1768 C1782 0.930 . S
H1769 C1784 0.960 . S
H1770 C1784 0.960 . S
H1771 C1784 0.960 . S
C1772 H1764 0.929 . S
C1772 C1773 1.377 . S
C1772 C1774 1.384 . S
C1773 C1772 1.377 . S
C1773 C1779 1.390 . S
C1774 H1765 0.930 . S
C1774 C1772 1.384 . S
C1774 C1775 1.372 . S
C1775 C1774 1.372 . S
C1775 C1776 1.400 . S
C1775 C1780 1.490 . S
C1776 H1766 0.930 . S
C1776 C1775 1.400 . S
C1776 C1779 1.386 . S
H1777 C1793 0.930 . S
H1778 C1794 0.931 . S
C1779 H1767 0.929 . S
C1779 C1773 1.390 . S
C1779 C1776 1.386 . S
C1780 C1775 1.490 . S
C1780 C1782 1.395 . S
C1780 C1783 1.403 . S
H1781 C1787 0.930 . S
C1782 H1768 0.930 . S
C1782 C1780 1.395 . S
C1782 C1785 1.403 . S
C1783 C1780 1.403 . S
C1783 C1784 1.524 . S
C1783 C1787 1.400 . S
C1784 H1769 0.960 . S
C1784 H1770 0.960 . S
C1784 H1771 0.960 . S
C1784 C1783 1.524 . S
C1785 C1782 1.403 . S
C1785 C1786 1.392 . S
C1785 C1789 1.495 . S
C1786 C1785 1.392 . S
C1786 C1787 1.385 . S
C1786 C1788 1.478 . S
C1787 H1781 0.930 . S
C1787 C1783 1.400 . S
C1787 C1786 1.385 . S
C1788 C1786 1.478 . S
C1788 C1790 1.381 . S
C1788 C1794 1.383 1_556 S
C1789 C1785 1.495 . S
C1789 H1795 0.959 . S
C1789 H1796 0.961 . S
C1789 H1797 0.960 . S
C1790 C1788 1.381 . S
C1790 C1791 1.394 1_556 S
C1790 H1798 0.930 . S
C1791 C1790 1.394 1_554 S
C1791 C1792 1.383 . S
C1791 H1799 0.929 1_554 S
C1792 C1791 1.383 . S
C1792 C1793 1.377 . S
C1793 H1777 0.930 . S
C1793 C1792 1.377 . S
C1793 C1794 1.379 . S
C1794 H1778 0.931 . S
C1794 C1788 1.383 1_554 S
C1794 C1793 1.379 . S
H1795 C1789 0.959 . S
H1796 C1789 0.961 . S
H1797 C1789 0.960 . S
H1798 C1790 0.930 . S
H1799 C1791 0.929 1_556 S
H1800 C1808 0.976 . S
H1801 C1810 0.930 . S
H1802 C1812 0.930 . S
H1803 C1815 0.929 . S
H1804 C1818 0.930 . S
H1805 C1820 0.960 . S
H1806 C1820 0.960 . S
H1807 C1820 0.960 . S
C1808 H1800 0.976 . S
C1808 C1809 1.377 1_556 S
C1808 C1810 1.384 . S
C1809 C1808 1.377 1_554 S
C1809 C1815 1.390 . S
C1810 H1801 0.930 . S
C1810 C1808 1.384 . S
C1810 C1811 1.372 . S
C1811 C1810 1.372 . S
C1811 C1812 1.400 1_556 S
C1811 C1816 1.490 . S
C1812 H1802 0.930 . S
C1812 C1811 1.400 1_554 S
C1812 C1815 1.386 . S
H1813 C1829 0.930 . S
H1814 C1830 0.931 . S
C1815 H1803 0.929 . S
C1815 C1809 1.390 . S
C1815 C1812 1.386 . S
C1816 C1811 1.490 . S
C1816 C1818 1.395 . S
C1816 C1819 1.403 . S
H1817 C1823 0.930 . S
C1818 H1804 0.930 . S
C1818 C1816 1.395 . S
C1818 C1821 1.403 . S
C1819 C1816 1.403 . S
C1819 C1820 1.524 1_556 S
C1819 C1823 1.400 . S
C1820 H1805 0.960 . S
C1820 H1806 0.960 . S
C1820 H1807 0.960 . S
C1820 C1819 1.524 1_554 S
C1821 C1818 1.403 . S
C1821 C1822 1.392 . S
C1821 C1825 1.495 . S
C1822 C1821 1.392 . S
C1822 C1823 1.385 . S
C1822 C1824 1.478 . S
C1823 H1817 0.930 . S
C1823 C1819 1.400 . S
C1823 C1822 1.385 . S
C1824 C1822 1.478 . S
C1824 C1826 1.381 . S
C1824 C1830 1.383 . S
C1825 C1821 1.495 . S
C1825 H1831 0.959 . S
C1825 H1832 0.961 . S
C1825 H1833 0.960 . S
C1826 C1824 1.381 . S
C1826 C1827 1.394 . S
C1826 H1834 0.930 . S
C1827 C1826 1.394 . S
C1827 C1828 1.383 . S
C1827 H1835 0.929 . S
C1828 C1827 1.383 . S
C1828 C1829 1.377 . S
C1829 H1813 0.930 . S
C1829 C1828 1.377 . S
C1829 C1830 1.379 . S
C1830 H1814 0.931 . S
C1830 C1824 1.383 . S
C1830 C1829 1.379 . S
H1831 C1825 0.959 . S
H1832 C1825 0.961 . S
H1833 C1825 0.960 . S
H1834 C1826 0.930 . S
H1835 C1827 0.929 . S
H1836 C1844 0.929 1_556 S
H1837 C1846 0.930 . S
H1838 C1848 0.930 . S
H1839 C1851 0.929 . S
H1840 C1854 0.930 . S
H1841 C1856 0.960 . S
H1842 C1856 0.960 . S
H1843 C1856 0.960 1_554 S
C1844 H1836 0.929 1_554 S
C1844 C1845 1.377 . S
C1844 C1846 1.384 1_554 S
C1845 C1844 1.377 . S
C1845 C1851 1.390 . S
C1846 H1837 0.930 . S
C1846 C1844 1.384 1_556 S
C1846 C1847 1.372 1_556 S
C1847 C1846 1.372 1_554 S
C1847 C1848 1.400 . S
C1847 C1852 1.490 1_554 S
C1848 H1838 0.930 . S
C1848 C1847 1.400 . S
C1848 C1851 1.386 . S
H1849 C1865 0.930 . S
H1850 C1866 0.931 . S
C1851 H1839 0.929 . S
C1851 C1845 1.390 . S
C1851 C1848 1.386 . S
C1852 C1847 1.490 1_556 S
C1852 C1854 1.395 . S
C1852 C1855 1.403 . S
H1853 C1859 0.930 . S
C1854 H1840 0.930 . S
C1854 C1852 1.395 . S
C1854 C1857 1.403 . S
C1855 C1852 1.403 . S
C1855 C1856 1.524 . S
C1855 C1859 1.400 . S
C1856 H1841 0.960 . S
C1856 H1842 0.960 . S
C1856 H1843 0.960 1_556 S
C1856 C1855 1.524 . S
C1857 C1854 1.403 . S
C1857 C1858 1.392 . S
C1857 C1861 1.495 . S
C1858 C1857 1.392 . S
C1858 C1859 1.385 . S
C1858 C1860 1.478 . S
C1859 H1853 0.930 . S
C1859 C1855 1.400 . S
C1859 C1858 1.385 . S
C1860 C1858 1.478 . S
C1860 C1862 1.381 . S
C1860 C1866 1.383 . S
C1861 C1857 1.495 . S
C1861 H1867 0.959 . S
C1861 H1868 0.961 . S
C1861 H1869 0.960 . S
C1862 C1860 1.381 . S
C1862 C1863 1.394 . S
C1862 H1870 0.930 . S
C1863 C1862 1.394 . S
C1863 C1864 1.383 . S
C1863 H1871 0.929 . S
C1864 C1863 1.383 . S
C1864 C1865 1.377 . S
C1865 H1849 0.930 . S
C1865 C1864 1.377 . S
C1865 C1866 1.379 . S
C1866 H1850 0.931 . S
C1866 C1860 1.383 . S
C1866 C1865 1.379 . S
H1867 C1861 0.959 . S
H1868 C1861 0.961 . S
H1869 C1861 0.960 . S
H1870 C1862 0.930 . S
H1871 C1863 0.929 . S
H1872 C1880 0.929 . S
H1873 C1882 0.930 . S
H1874 C1884 0.930 . S
H1875 C1887 0.929 . S
H1876 C1890 0.930 . S
H1877 C1892 0.960 . S
H1878 C1892 0.960 . S
H1879 C1892 0.960 . S
C1880 H1872 0.929 . S
C1880 C1881 1.377 . S
C1880 C1882 1.384 . S
C1881 C1880 1.377 . S
C1881 C1887 1.390 . S
C1882 H1873 0.930 . S
C1882 C1880 1.384 . S
C1882 C1883 1.372 . S
C1883 C1882 1.372 . S
C1883 C1884 1.400 . S
C1883 C1888 1.490 . S
C1884 H1874 0.930 . S
C1884 C1883 1.400 . S
C1884 C1887 1.386 . S
H1885 C1901 0.930 . S
H1886 C1902 0.931 . S
C1887 H1875 0.929 . S
C1887 C1881 1.390 . S
C1887 C1884 1.386 . S
C1888 C1883 1.490 . S
C1888 C1890 1.395 . S
C1888 C1891 1.403 . S
H1889 C1895 0.930 . S
C1890 H1876 0.930 . S
C1890 C1888 1.395 . S
C1890 C1893 1.403 . S
C1891 C1888 1.403 . S
C1891 C1892 1.524 . S
C1891 C1895 1.400 . S
C1892 H1877 0.960 . S
C1892 H1878 0.960 . S
C1892 H1879 0.960 . S
C1892 C1891 1.524 . S
C1893 C1890 1.403 . S
C1893 C1894 1.392 . S
C1893 C1897 1.495 . S
C1894 C1893 1.392 . S
C1894 C1895 1.385 . S
C1894 C1896 1.478 . S
C1895 H1889 0.930 . S
C1895 C1891 1.400 . S
C1895 C1894 1.385 . S
C1896 C1894 1.478 . S
C1896 C1898 1.381 1_556 S
C1896 C1902 1.383 . S
C1897 C1893 1.495 . S
C1897 H1903 0.959 . S
C1897 H1904 0.961 . S
C1897 H1905 0.960 1_556 S
C1898 C1896 1.381 1_554 S
C1898 C1899 1.394 . S
C1898 H1906 0.930 . S
C1899 C1898 1.394 . S
C1899 C1900 1.383 . S
C1899 H1907 0.929 . S
C1900 C1899 1.383 . S
C1900 C1901 1.377 1_554 S
C1901 H1885 0.930 . S
C1901 C1900 1.377 1_556 S
C1901 C1902 1.379 . S
C1902 H1886 0.931 . S
C1902 C1896 1.383 . S
C1902 C1901 1.379 . S
H1903 C1897 0.959 . S
H1904 C1897 0.961 . S
H1905 C1897 0.960 1_554 S
H1906 C1898 0.930 . S
H1907 C1899 0.929 . S
H1908 C1916 0.929 . S
H1909 C1918 0.930 . S
H1910 C1920 0.930 . S
H1911 C1923 0.929 . S
H1912 C1926 0.930 . S
H1913 C1928 0.960 . S
H1914 C1928 0.960 . S
H1915 C1928 0.960 . S
C1916 H1908 0.929 . S
C1916 C1917 1.377 . S
C1916 C1918 1.384 . S
C1917 C1916 1.377 . S
C1917 C1923 1.390 . S
C1918 H1909 0.930 . S
C1918 C1916 1.384 . S
C1918 C1919 1.372 . S
C1919 C1918 1.372 . S
C1919 C1920 1.400 . S
C1919 C1924 1.490 . S
C1920 H1910 0.930 . S
C1920 C1919 1.400 . S
C1920 C1923 1.386 . S
H1921 C1937 0.930 . S
H1922 C1938 0.931 . S
C1923 H1911 0.929 . S
C1923 C1917 1.390 . S
C1923 C1920 1.386 . S
C1924 C1919 1.490 . S
C1924 C1926 1.395 . S
C1924 C1927 1.403 . S
H1925 C1931 0.930 . S
C1926 H1912 0.930 . S
C1926 C1924 1.395 . S
C1926 C1929 1.403 . S
C1927 C1924 1.403 . S
C1927 C1928 1.524 . S
C1927 C1931 1.400 . S
C1928 H1913 0.960 . S
C1928 H1914 0.960 . S
C1928 H1915 0.960 . S
C1928 C1927 1.524 . S
C1929 C1926 1.403 . S
C1929 C1930 1.392 . S
C1929 C1933 1.495 . S
C1930 C1929 1.392 . S
C1930 C1931 1.385 . S
C1930 C1932 1.478 . S
C1931 H1925 0.930 . S
C1931 C1927 1.400 . S
C1931 C1930 1.385 . S
C1932 C1930 1.478 . S
C1932 C1934 1.381 . S
C1932 C1938 1.383 . S
C1933 C1929 1.495 . S
C1933 H1939 0.959 . S
C1933 H1940 0.961 . S
C1933 H1941 0.960 . S
C1934 C1932 1.381 . S
C1934 C1935 1.394 . S
C1934 H1942 0.930 . S
C1935 C1934 1.394 . S
C1935 C1936 1.383 . S
C1935 H1943 0.929 . S
C1936 C1935 1.383 . S
C1936 C1937 1.377 . S
C1937 H1921 0.930 . S
C1937 C1936 1.377 . S
C1937 C1938 1.379 . S
C1938 H1922 0.931 . S
C1938 C1932 1.383 . S
C1938 C1937 1.379 . S
H1939 C1933 0.959 . S
H1940 C1933 0.961 . S
H1941 C1933 0.960 . S
H1942 C1934 0.930 . S
H1943 C1935 0.929 . S
H1944 C1952 0.929 . S
H1945 C1954 0.930 . S
H1946 C1956 0.930 . S
H1947 C1959 0.929 . S
H1948 C1962 0.930 . S
H1949 C1964 0.960 . S
H1950 C1964 0.960 . S
H1951 C1964 0.960 . S
C1952 H1944 0.929 . S
C1952 C1953 1.377 . S
C1952 C1954 1.384 . S
C1953 C1952 1.377 . S
C1953 C1959 1.390 . S
C1954 H1945 0.930 . S
C1954 C1952 1.384 . S
C1954 C1955 1.372 . S
C1955 C1954 1.372 . S
C1955 C1956 1.400 . S
C1955 C1960 1.490 . S
C1956 H1946 0.930 . S
C1956 C1955 1.400 . S
C1956 C1959 1.386 . S
H1957 C1973 0.930 . S
H1958 C1974 0.931 . S
C1959 H1947 0.929 . S
C1959 C1953 1.390 . S
C1959 C1956 1.386 . S
C1960 C1955 1.490 . S
C1960 C1962 1.395 . S
C1960 C1963 1.403 . S
H1961 C1967 0.930 . S
C1962 H1948 0.930 . S
C1962 C1960 1.395 . S
C1962 C1965 1.403 . S
C1963 C1960 1.403 . S
C1963 C1964 1.524 . S
C1963 C1967 1.400 . S
C1964 H1949 0.960 . S
C1964 H1950 0.960 . S
C1964 H1951 0.960 . S
C1964 C1963 1.524 . S
C1965 C1962 1.403 . S
C1965 C1966 1.392 . S
C1965 C1969 1.495 . S
C1966 C1965 1.392 . S
C1966 C1967 1.385 . S
C1966 C1968 1.478 . S
C1967 H1961 0.930 . S
C1967 C1963 1.400 . S
C1967 C1966 1.385 . S
C1968 C1966 1.478 . S
C1968 C1970 1.381 . S
C1968 C1974 1.383 . S
C1969 C1965 1.495 . S
C1969 H1975 0.959 . S
C1969 H1976 0.961 . S
C1969 H1977 0.960 . S
C1970 C1968 1.381 . S
C1970 C1971 1.394 . S
C1970 H1978 0.930 . S
C1971 C1970 1.394 . S
C1971 C1972 1.383 . S
C1971 H1979 0.929 . S
C1972 C1971 1.383 . S
C1972 C1973 1.377 . S
C1973 H1957 0.930 . S
C1973 C1972 1.377 . S
C1973 C1974 1.379 . S
C1974 H1958 0.931 . S
C1974 C1968 1.383 . S
C1974 C1973 1.379 . S
H1975 C1969 0.959 . S
H1976 C1969 0.961 . S
H1977 C1969 0.960 . S
H1978 C1970 0.930 . S
H1979 C1971 0.929 . S
H1980 C1988 0.929 . S
H1981 C1990 0.930 . S
H1982 C1992 0.930 . S
H1983 C1995 0.929 . S
H1984 C1998 0.930 . S
H1985 C2000 0.960 . S
H1986 C2000 0.960 . S
H1987 C2000 0.960 . S
C1988 H1980 0.929 . S
C1988 C1989 1.377 . S
C1988 C1990 1.384 . S
C1989 C1988 1.377 . S
C1989 C1995 1.390 . S
C1990 H1981 0.930 . S
C1990 C1988 1.384 . S
C1990 C1991 1.372 . S
C1991 C1990 1.372 . S
C1991 C1992 1.400 . S
C1991 C1996 1.490 . S
C1992 H1982 0.930 . S
C1992 C1991 1.400 . S
C1992 C1995 1.386 . S
H1993 C2009 0.930 . S
H1994 C2010 0.931 . S
C1995 H1983 0.929 . S
C1995 C1989 1.390 . S
C1995 C1992 1.386 . S
C1996 C1991 1.490 . S
C1996 C1998 1.395 . S
C1996 C1999 1.403 . S
H1997 C2003 0.930 . S
C1998 H1984 0.930 . S
C1998 C1996 1.395 . S
C1998 C2001 1.403 . S
C1999 C1996 1.403 . S
C1999 C2000 1.524 . S
C1999 C2003 1.400 . S
C2000 H1985 0.960 . S
C2000 H1986 0.960 . S
C2000 H1987 0.960 . S
C2000 C1999 1.524 . S
C2001 C1998 1.403 . S
C2001 C2002 1.392 . S
C2001 C2005 1.495 . S
C2002 C2001 1.392 . S
C2002 C2003 1.385 . S
C2002 C2004 1.478 . S
C2003 H1997 0.930 . S
C2003 C1999 1.400 . S
C2003 C2002 1.385 . S
C2004 C2002 1.478 . S
C2004 C2006 1.381 . S
C2004 C2010 1.383 . S
C2005 C2001 1.495 . S
C2005 H2011 0.959 . S
C2005 H2012 0.961 . S
C2005 H2013 0.960 . S
C2006 C2004 1.381 . S
C2006 C2007 1.394 . S
C2006 H2014 0.930 . S
C2007 C2006 1.394 . S
C2007 C2008 1.383 . S
C2007 H2015 0.929 . S
C2008 C2007 1.383 . S
C2008 C2009 1.377 . S
C2009 H1993 0.930 . S
C2009 C2008 1.377 . S
C2009 C2010 1.379 . S
C2010 H1994 0.931 . S
C2010 C2004 1.383 . S
C2010 C2009 1.379 . S
H2011 C2005 0.959 . S
H2012 C2005 0.961 . S
H2013 C2005 0.960 . S
H2014 C2006 0.930 . S
H2015 C2007 0.929 . S
H2016 C2024 0.929 . S
H2017 C2026 0.930 . S
H2018 C2028 0.930 . S
H2019 C2031 0.929 . S
H2020 C2034 0.930 . S
H2021 C2036 0.960 . S
H2022 C2036 0.960 . S
H2023 C2036 0.960 . S
C2024 H2016 0.929 . S
C2024 C2025 1.377 . S
C2024 C2026 1.384 . S
C2025 C2024 1.377 . S
C2025 C2031 1.390 . S
C2026 H2017 0.930 . S
C2026 C2024 1.384 . S
C2026 C2027 1.372 . S
C2027 C2026 1.372 . S
C2027 C2028 1.400 . S
C2027 C2032 1.490 . S
C2028 H2018 0.930 . S
C2028 C2027 1.400 . S
C2028 C2031 1.386 . S
H2029 C2045 0.930 . S
H2030 C2046 0.931 . S
C2031 H2019 0.929 . S
C2031 C2025 1.390 . S
C2031 C2028 1.386 . S
C2032 C2027 1.490 . S
C2032 C2034 1.395 . S
C2032 C2035 1.403 . S
H2033 C2039 0.930 . S
C2034 H2020 0.930 . S
C2034 C2032 1.395 . S
C2034 C2037 1.403 . S
C2035 C2032 1.403 . S
C2035 C2036 1.524 . S
C2035 C2039 1.400 . S
C2036 H2021 0.960 . S
C2036 H2022 0.960 . S
C2036 H2023 0.960 . S
C2036 C2035 1.524 . S
C2037 C2034 1.403 . S
C2037 C2038 1.392 . S
C2037 C2041 1.495 . S
C2038 C2037 1.392 . S
C2038 C2039 1.385 . S
C2038 C2040 1.478 . S
C2039 H2033 0.930 . S
C2039 C2035 1.400 . S
C2039 C2038 1.385 . S
C2040 C2038 1.478 . S
C2040 C2042 1.381 . S
C2040 C2046 1.383 . S
C2041 C2037 1.495 . S
C2041 H2047 0.959 . S
C2041 H2048 0.961 . S
C2041 H2049 0.960 . S
C2042 C2040 1.381 . S
C2042 C2043 1.394 . S
C2042 H2050 0.930 . S
C2043 C2042 1.394 . S
C2043 C2044 1.383 . S
C2043 H2051 0.929 . S
C2044 C2043 1.383 . S
C2044 C2045 1.377 . S
C2045 H2029 0.930 . S
C2045 C2044 1.377 . S
C2045 C2046 1.379 . S
C2046 H2030 0.931 . S
C2046 C2040 1.383 . S
C2046 C2045 1.379 . S
H2047 C2041 0.959 . S
H2048 C2041 0.961 . S
H2049 C2041 0.960 . S
H2050 C2042 0.930 . S
H2051 C2043 0.929 . S
H2052 C2060 0.929 . S
H2053 C2062 0.930 . S
H2054 C2064 0.930 . S
H2055 C2067 0.929 . S
H2056 C2070 0.930 . S
H2057 C2072 0.960 . S
H2058 C2072 0.960 . S
H2059 C2072 0.960 . S
C2060 H2052 0.929 . S
C2060 C2061 1.377 . S
C2060 C2062 1.384 . S
C2061 C2060 1.377 . S
C2061 C2067 1.390 . S
C2062 H2053 0.930 . S
C2062 C2060 1.384 . S
C2062 C2063 1.372 . S
C2063 C2062 1.372 . S
C2063 C2064 1.400 . S
C2063 C2068 1.490 . S
C2064 H2054 0.930 . S
C2064 C2063 1.400 . S
C2064 C2067 1.386 . S
H2065 C2081 0.930 . S
H2066 C2082 0.931 . S
C2067 H2055 0.929 . S
C2067 C2061 1.390 . S
C2067 C2064 1.386 . S
C2068 C2063 1.490 . S
C2068 C2070 1.395 . S
C2068 C2071 1.403 . S
H2069 C2075 0.930 . S
C2070 H2056 0.930 . S
C2070 C2068 1.395 . S
C2070 C2073 1.403 . S
C2071 C2068 1.403 . S
C2071 C2072 1.524 . S
C2071 C2075 1.400 . S
C2072 H2057 0.960 . S
C2072 H2058 0.960 . S
C2072 H2059 0.960 . S
C2072 C2071 1.524 . S
C2073 C2070 1.403 . S
C2073 C2074 1.392 . S
C2073 C2077 1.495 . S
C2074 C2073 1.392 . S
C2074 C2075 1.385 . S
C2074 C2076 1.478 . S
C2075 H2069 0.930 . S
C2075 C2071 1.400 . S
C2075 C2074 1.385 . S
C2076 C2074 1.478 . S
C2076 C2078 1.381 . S
C2076 C2082 1.383 . S
C2077 C2073 1.495 . S
C2077 H2083 0.959 . S
C2077 H2084 0.961 . S
C2077 H2085 0.960 . S
C2078 C2076 1.381 . S
C2078 C2079 1.394 . S
C2078 H2086 0.930 . S
C2079 C2078 1.394 . S
C2079 C2080 1.383 . S
C2079 H2087 0.929 . S
C2080 C2079 1.383 . S
C2080 C2081 1.377 . S
C2081 H2065 0.930 . S
C2081 C2080 1.377 . S
C2081 C2082 1.379 . S
C2082 H2066 0.931 . S
C2082 C2076 1.383 . S
C2082 C2081 1.379 . S
H2083 C2077 0.959 . S
H2084 C2077 0.961 . S
H2085 C2077 0.960 . S
H2086 C2078 0.930 . S
H2087 C2079 0.929 . S
H2088 C2096 0.929 . S
H2089 C2098 0.930 . S
H2090 C2100 0.930 . S
H2091 C2103 0.929 . S
H2092 C2106 0.930 . S
H2093 C2108 0.960 . S
H2094 C2108 0.960 . S
H2095 C2108 0.960 . S
C2096 H2088 0.929 . S
C2096 C2097 1.377 . S
C2096 C2098 1.384 . S
C2097 C2096 1.377 . S
C2097 C2103 1.390 . S
C2098 H2089 0.930 . S
C2098 C2096 1.384 . S
C2098 C2099 1.372 . S
C2099 C2098 1.372 . S
C2099 C2100 1.400 . S
C2099 C2104 1.490 . S
C2100 H2090 0.930 . S
C2100 C2099 1.400 . S
C2100 C2103 1.386 . S
H2101 C2117 0.930 . S
H2102 C2118 0.931 . S
C2103 H2091 0.929 . S
C2103 C2097 1.390 . S
C2103 C2100 1.386 . S
C2104 C2099 1.490 . S
C2104 C2106 1.395 . S
C2104 C2107 1.403 . S
H2105 C2111 0.930 1_655 S
C2106 H2092 0.930 . S
C2106 C2104 1.395 . S
C2106 C2109 1.403 . S
C2107 C2104 1.403 . S
C2107 C2108 1.524 . S
C2107 C2111 1.400 . S
C2108 H2093 0.960 . S
C2108 H2094 0.960 . S
C2108 H2095 0.960 . S
C2108 C2107 1.524 . S
C2109 C2106 1.403 . S
C2109 C2110 1.392 1_455 S
C2109 C2113 1.495 1_455 S
C2110 C2109 1.392 1_655 S
C2110 C2111 1.385 1_655 S
C2110 C2112 1.478 . S
C2111 H2105 0.930 1_455 S
C2111 C2107 1.400 . S
C2111 C2110 1.385 1_455 S
C2112 C2110 1.478 . S
C2112 C2114 1.381 . S
C2112 C2118 1.383 . S
C2113 C2109 1.495 1_655 S
C2113 H2119 0.959 1_655 S
C2113 H2120 0.961 . S
C2113 H2121 0.960 . S
C2114 C2112 1.381 . S
C2114 C2115 1.394 . S
C2114 H2122 0.930 . S
C2115 C2114 1.394 . S
C2115 C2116 1.383 . S
C2115 H2123 0.929 . S
C2116 C2115 1.383 . S
C2116 C2117 1.377 . S
C2117 H2101 0.930 . S
C2117 C2116 1.377 . S
C2117 C2118 1.379 . S
C2118 H2102 0.931 . S
C2118 C2112 1.383 . S
C2118 C2117 1.379 . S
H2119 C2113 0.959 1_455 S
H2120 C2113 0.961 . S
H2121 C2113 0.960 . S
H2122 C2114 0.930 . S
H2123 C2115 0.929 . S
H2124 C2132 0.929 . S
H2125 C2134 0.930 . S
H2126 C2136 0.930 . S
H2127 C2139 0.929 . S
H2128 C2142 0.930 . S
H2129 C2144 0.960 . S
H2130 C2144 0.960 . S
H2131 C2144 0.960 . S
C2132 H2124 0.929 . S
C2132 C2133 1.377 . S
C2132 C2134 1.384 . S
C2133 C2132 1.377 . S
C2133 C2139 1.390 . S
C2134 H2125 0.930 . S
C2134 C2132 1.384 . S
C2134 C2135 1.372 . S
C2135 C2134 1.372 . S
C2135 C2136 1.400 . S
C2135 C2140 1.490 . S
C2136 H2126 0.930 . S
C2136 C2135 1.400 . S
C2136 C2139 1.386 . S
H2137 C2153 0.930 . S
H2138 C2154 0.931 . S
C2139 H2127 0.929 . S
C2139 C2133 1.390 . S
C2139 C2136 1.386 . S
C2140 C2135 1.490 . S
C2140 C2142 1.395 . S
C2140 C2143 1.403 . S
H2141 C2147 0.930 . S
C2142 H2128 0.930 . S
C2142 C2140 1.395 . S
C2142 C2145 1.403 . S
C2143 C2140 1.403 . S
C2143 C2144 1.524 . S
C2143 C2147 1.400 . S
C2144 H2129 0.960 . S
C2144 H2130 0.960 . S
C2144 H2131 0.960 . S
C2144 C2143 1.524 . S
C2145 C2142 1.403 . S
C2145 C2146 1.392 . S
C2145 C2149 1.495 . S
C2146 C2145 1.392 . S
C2146 C2147 1.385 . S
C2146 C2148 1.478 . S
C2147 H2141 0.930 . S
C2147 C2143 1.400 . S
C2147 C2146 1.385 . S
C2148 C2146 1.478 . S
C2148 C2150 1.381 . S
C2148 C2154 1.383 . S
C2149 C2145 1.495 . S
C2149 H2155 0.959 . S
C2149 H2156 0.961 . S
C2149 H2157 0.960 . S
C2150 C2148 1.381 . S
C2150 C2151 1.394 . S
C2150 H2158 0.930 . S
C2151 C2150 1.394 . S
C2151 C2152 1.383 . S
C2151 H2159 0.929 . S
C2152 C2151 1.383 . S
C2152 C2153 1.377 . S
C2153 H2137 0.930 . S
C2153 C2152 1.377 . S
C2153 C2154 1.379 . S
C2154 H2138 0.931 . S
C2154 C2148 1.383 . S
C2154 C2153 1.379 . S
H2155 C2149 0.959 . S
H2156 C2149 0.961 . S
H2157 C2149 0.960 . S
H2158 C2150 0.930 . S
H2159 C2151 0.929 . S
H2160 C2168 0.929 . S
H2161 C2170 0.930 . S
H2162 C2172 0.930 . S
H2163 C2175 0.929 . S
H2164 C2178 0.930 . S
H2165 C2180 0.960 . S
H2166 C2180 0.960 . S
H2167 C2180 0.960 . S
C2168 H2160 0.929 . S
C2168 C2169 1.377 . S
C2168 C2170 1.384 . S
C2169 C2168 1.377 . S
C2169 C2175 1.390 . S
C2170 H2161 0.930 . S
C2170 C2168 1.384 . S
C2170 C2171 1.372 . S
C2171 C2170 1.372 . S
C2171 C2172 1.400 . S
C2171 C2176 1.490 . S
C2172 H2162 0.930 . S
C2172 C2171 1.400 . S
C2172 C2175 1.386 . S
H2173 C2189 0.936 . S
H2174 C2190 0.931 . S
C2175 H2163 0.929 . S
C2175 C2169 1.390 . S
C2175 C2172 1.386 . S
C2176 C2171 1.490 . S
C2176 C2178 1.395 . S
C2176 C2179 1.403 . S
H2177 C2183 0.930 . S
C2178 H2164 0.930 . S
C2178 C2176 1.395 . S
C2178 C2181 1.403 . S
C2179 C2176 1.403 . S
C2179 C2180 1.524 . S
C2179 C2183 1.400 . S
C2180 H2165 0.960 . S
C2180 H2166 0.960 . S
C2180 H2167 0.960 . S
C2180 C2179 1.524 . S
C2181 C2178 1.403 . S
C2181 C2182 1.392 . S
C2181 C2185 1.495 . S
C2182 C2181 1.392 . S
C2182 C2183 1.385 . S
C2182 C2184 1.478 . S
C2183 H2177 0.930 . S
C2183 C2179 1.400 . S
C2183 C2182 1.385 . S
C2184 C2182 1.478 . S
C2184 C2186 1.381 . S
C2184 C2190 1.383 . S
C2185 C2181 1.495 . S
C2185 H2191 0.959 . S
C2185 H2192 0.961 . S
C2185 H2193 0.960 . S
C2186 C2184 1.381 . S
C2186 C2187 1.394 1_545 S
C2186 H2194 0.930 . S
C2187 C2186 1.394 1_565 S
C2187 C2188 1.383 . S
C2187 H2195 0.929 . S
C2188 C2187 1.383 . S
C2188 C2189 1.377 1_565 S
C2189 H2173 0.936 . S
C2189 C2188 1.377 1_545 S
C2189 C2190 1.379 . S
C2190 H2174 0.931 . S
C2190 C2184 1.383 . S
C2190 C2189 1.379 . S
H2191 C2185 0.959 . S
H2192 C2185 0.961 . S
H2193 C2185 0.960 . S
H2194 C2186 0.930 . S
H2195 C2187 0.929 . S
H2196 C2204 0.929 . S
H2197 C2206 0.930 . S
H2198 C2208 0.930 . S
H2199 C2211 0.929 . S
H2200 C2214 0.930 . S
H2201 C2216 0.960 . S
H2202 C2216 0.960 . S
H2203 C2216 0.960 . S
C2204 H2196 0.929 . S
C2204 C2205 1.377 . S
C2204 C2206 1.384 . S
C2205 C2204 1.377 . S
C2205 C2211 1.390 . S
C2206 H2197 0.930 . S
C2206 C2204 1.384 . S
C2206 C2207 1.372 . S
C2207 C2206 1.372 . S
C2207 C2208 1.400 . S
C2207 C2212 1.490 . S
C2208 H2198 0.930 . S
C2208 C2207 1.400 . S
C2208 C2211 1.386 . S
H2209 C2225 0.930 . S
H2210 C2226 0.931 . S
C2211 H2199 0.929 . S
C2211 C2205 1.390 . S
C2211 C2208 1.386 . S
C2212 C2207 1.490 . S
C2212 C2214 1.395 . S
C2212 C2215 1.403 . S
H2213 C2219 0.930 1_455 S
C2214 H2200 0.930 . S
C2214 C2212 1.395 . S
C2214 C2217 1.403 . S
C2215 C2212 1.403 . S
C2215 C2216 1.524 . S
C2215 C2219 1.400 . S
C2216 H2201 0.960 . S
C2216 H2202 0.960 . S
C2216 H2203 0.960 . S
C2216 C2215 1.524 . S
C2217 C2214 1.403 . S
C2217 C2218 1.392 1_655 S
C2217 C2221 1.495 1_655 S
C2218 C2217 1.392 1_455 S
C2218 C2219 1.385 1_455 S
C2218 C2220 1.478 . S
C2219 H2213 0.930 1_655 S
C2219 C2215 1.400 . S
C2219 C2218 1.385 1_655 S
C2220 C2218 1.478 . S
C2220 C2222 1.381 . S
C2220 C2226 1.383 . S
C2221 C2217 1.495 1_455 S
C2221 H2227 0.959 1_455 S
C2221 H2228 0.961 . S
C2221 H2229 0.960 . S
C2222 C2220 1.381 . S
C2222 C2223 1.394 . S
C2222 H2230 0.930 . S
C2223 C2222 1.394 . S
C2223 C2224 1.383 . S
C2223 H2231 0.929 . S
C2224 C2223 1.383 . S
C2224 C2225 1.377 . S
C2225 H2209 0.930 . S
C2225 C2224 1.377 . S
C2225 C2226 1.379 . S
C2226 H2210 0.931 . S
C2226 C2220 1.383 . S
C2226 C2225 1.379 . S
H2227 C2221 0.959 1_655 S
H2228 C2221 0.961 . S
H2229 C2221 0.960 . S
H2230 C2222 0.930 . S
H2231 C2223 0.929 . S
C621 C5 1.038 . S
C640 C9 1.051 . S
C657 C39 1.091 . S
C676 C43 1.100 . S
C693 C77 1.048 . S
C712 C73 1.026 . S
C729 C111 1.046 . S
C748 C107 1.044 . S
C765 C141 1.085 . S
C784 C145 1.099 . S
C801 C175 1.091 . S
C820 C179 1.103 . S
C837 C213 0.985 . S
C856 C209 0.998 . S
C873 C247 1.093 . S
C892 C243 1.066 . S
C909 C281 1.041 . S
C928 C277 1.046 . S
C945 C311 1.004 . S
C964 C315 0.970 . S
C981 C349 1.094 . S
C1000 C345 1.084 . S
C1017 C383 1.036 . S
C1036 C379 1.050 . S
C1053 C413 0.993 . S
C1072 C417 0.990 . S
C1089 C447 1.033 . S
C1108 C451 1.053 1_554 S
C1125 C481 1.043 . S
C1144 C485 1.022 . S
C1161 C515 0.999 . S
C1180 C519 0.967 . S
C1197 C553 1.040 . S
C1216 C549 1.049 . S
C1233 C583 0.996 . S
C1252 C587 1.013 . S
C1269 C122 1.518 . S
C1288 C20 1.507 . S
C1305 C156 1.457 . S
C1324 C54 1.447 . S
C1341 C190 1.455 . S
C1360 C88 1.453 . S
C1377 C224 1.245 . S
C1396 C326 1.246 . S
C1413 C360 1.398 . S
C1432 C258 1.402 . S
C1449 C394 1.346 . S
C1468 C292 1.347 . S
C1485 C530 1.464 . S
C1504 C428 1.463 . S
C1521 C462 1.426 . S
C1540 C564 1.436 . S
C1557 C496 1.435 . S
C1576 C598 1.416 . S
C1593 C305 1.312 . S
C1612 C2 1.289 . S
C1629 C237 1.269 . S
C1648 C36 1.236 . S
C1665 C101 1.280 . S
C1684 C271 1.268 . S
C1701 C70 1.205 . S
C1720 C410 1.208 . S
C1737 C33 1.527 . S
C1756 C444 1.447 . S
C1773 C509 1.383 . S
C1792 C67 1.402 . S
C1809 C104 1.261 . S
C1828 C580 1.241 . S
C1845 C138 1.297 . S
C1864 C543 1.332 . S
C1881 C577 1.355 . S
C1900 C203 1.391 . S
C1917 C339 1.280 . S
C1936 C172 1.276 . S
C1953 C135 1.216 . S
C1972 C373 1.229 . S
C1989 C169 1.298 . S
C2008 C407 1.257 . S
C2025 C206 1.066 . S
C2044 C478 1.040 . S
C2061 C240 1.316 1_545 S
C2080 C441 1.312 . S
C2097 C274 1.243 . S
C2116 C475 1.262 . S
C2133 C512 1.191 . S
C2152 C376 1.189 . S
C2169 C546 1.043 . S
C2188 C308 1.012 . S
C2205 C611 1.347 . S
C2224 C342 1.350 . S
