# Generated by pormake.
# Topology ulg, (4)-cn, num edge types: 1
# Building blocks:
#     Node 0, Type 0, BuildingBlock: QUQFOY_clean_sbu_3, # of connection points: 4
#     Node 1, Type 0, BuildingBlock: QUQFOY_clean_sbu_3, # of connection points: 4
#     Node 2, Type 0, BuildingBlock: QUQFOY_clean_sbu_3, # of connection points: 4
#     Node 3, Type 0, BuildingBlock: QUQFOY_clean_sbu_3, # of connection points: 4
#     Node 4, Type 0, BuildingBlock: QUQFOY_clean_sbu_3, # of connection points: 4
#     Node 5, Type 0, BuildingBlock: QUQFOY_clean_sbu_3, # of connection points: 4
#     Node 6, Type 0, BuildingBlock: QUQFOY_clean_sbu_3, # of connection points: 4
#     Node 7, Type 0, BuildingBlock: QUQFOY_clean_sbu_3, # of connection points: 4
#     Node 8, Type 0, BuildingBlock: QUQFOY_clean_sbu_3, # of connection points: 4
#     Node 9, Type 0, BuildingBlock: QUQFOY_clean_sbu_3, # of connection points: 4
#     Node 10, Type 0, BuildingBlock: QUQFOY_clean_sbu_3, # of connection points: 4
#     Node 11, Type 0, BuildingBlock: QUQFOY_clean_sbu_3, # of connection points: 4
#     Node 12, Type 0, BuildingBlock: QUQFOY_clean_sbu_3, # of connection points: 4
#     Node 13, Type 0, BuildingBlock: QUQFOY_clean_sbu_3, # of connection points: 4
#     Node 14, Type 0, BuildingBlock: QUQFOY_clean_sbu_3, # of connection points: 4
#     Node 15, Type 0, BuildingBlock: QUQFOY_clean_sbu_3, # of connection points: 4
#     Node 16, Type 0, BuildingBlock: QUQFOY_clean_sbu_3, # of connection points: 4
#     Node 17, Type 0, BuildingBlock: QUQFOY_clean_sbu_3, # of connection points: 4
#     Node 18, Type 0, BuildingBlock: QUQFOY_clean_sbu_3, # of connection points: 4
#     Node 19, Type 0, BuildingBlock: QUQFOY_clean_sbu_3, # of connection points: 4
#     Node 20, Type 0, BuildingBlock: QUQFOY_clean_sbu_3, # of connection points: 4
#     Node 21, Type 0, BuildingBlock: QUQFOY_clean_sbu_3, # of connection points: 4
#     Node 22, Type 0, BuildingBlock: QUQFOY_clean_sbu_3, # of connection points: 4
#     Node 23, Type 0, BuildingBlock: QUQFOY_clean_sbu_3, # of connection points: 4
#     Node 24, Type 0, BuildingBlock: QUQFOY_clean_sbu_3, # of connection points: 4
#     Node 25, Type 0, BuildingBlock: QUQFOY_clean_sbu_3, # of connection points: 4
#     Node 26, Type 0, BuildingBlock: QUQFOY_clean_sbu_3, # of connection points: 4
#     Node 27, Type 0, BuildingBlock: QUQFOY_clean_sbu_3, # of connection points: 4
#     Node 28, Type 0, BuildingBlock: QUQFOY_clean_sbu_3, # of connection points: 4
#     Node 29, Type 0, BuildingBlock: QUQFOY_clean_sbu_3, # of connection points: 4
#     Node 30, Type 0, BuildingBlock: QUQFOY_clean_sbu_3, # of connection points: 4
#     Node 31, Type 0, BuildingBlock: QUQFOY_clean_sbu_3, # of connection points: 4
#     Node 32, Type 0, BuildingBlock: QUQFOY_clean_sbu_3, # of connection points: 4
#     Node 33, Type 0, BuildingBlock: QUQFOY_clean_sbu_3, # of connection points: 4
#     Node 34, Type 0, BuildingBlock: QUQFOY_clean_sbu_3, # of connection points: 4
#     Node 35, Type 0, BuildingBlock: QUQFOY_clean_sbu_3, # of connection points: 4
#     Node 36, Type 0, BuildingBlock: QUQFOY_clean_sbu_3, # of connection points: 4
#     Node 37, Type 0, BuildingBlock: QUQFOY_clean_sbu_3, # of connection points: 4
#     Node 38, Type 0, BuildingBlock: QUQFOY_clean_sbu_3, # of connection points: 4
#     Node 39, Type 0, BuildingBlock: QUQFOY_clean_sbu_3, # of connection points: 4
#     Node 40, Type 0, BuildingBlock: QUQFOY_clean_sbu_3, # of connection points: 4
#     Node 41, Type 0, BuildingBlock: QUQFOY_clean_sbu_3, # of connection points: 4
#     Node 42, Type 0, BuildingBlock: QUQFOY_clean_sbu_3, # of connection points: 4
#     Node 43, Type 0, BuildingBlock: QUQFOY_clean_sbu_3, # of connection points: 4
#     Node 44, Type 0, BuildingBlock: QUQFOY_clean_sbu_3, # of connection points: 4
#     Node 45, Type 0, BuildingBlock: QUQFOY_clean_sbu_3, # of connection points: 4
#     Node 46, Type 0, BuildingBlock: QUQFOY_clean_sbu_3, # of connection points: 4
#     Node 47, Type 0, BuildingBlock: QUQFOY_clean_sbu_3, # of connection points: 4
#     Node 48, Type 0, BuildingBlock: QUQFOY_clean_sbu_3, # of connection points: 4
#     Node 49, Type 0, BuildingBlock: QUQFOY_clean_sbu_3, # of connection points: 4
#     Node 50, Type 0, BuildingBlock: QUQFOY_clean_sbu_3, # of connection points: 4
#     Node 51, Type 0, BuildingBlock: QUQFOY_clean_sbu_3, # of connection points: 4
#     Node 52, Type 0, BuildingBlock: QUQFOY_clean_sbu_3, # of connection points: 4
#     Node 53, Type 0, BuildingBlock: QUQFOY_clean_sbu_3, # of connection points: 4
#     Node 54, Type 0, BuildingBlock: QUQFOY_clean_sbu_3, # of connection points: 4
#     Node 55, Type 0, BuildingBlock: QUQFOY_clean_sbu_3, # of connection points: 4
#     Node 56, Type 0, BuildingBlock: QUQFOY_clean_sbu_3, # of connection points: 4
#     Node 57, Type 0, BuildingBlock: QUQFOY_clean_sbu_3, # of connection points: 4
#     Node 58, Type 0, BuildingBlock: QUQFOY_clean_sbu_3, # of connection points: 4
#     Node 59, Type 0, BuildingBlock: QUQFOY_clean_sbu_3, # of connection points: 4
#     Node 60, Type 0, BuildingBlock: QUQFOY_clean_sbu_3, # of connection points: 4
#     Node 61, Type 0, BuildingBlock: QUQFOY_clean_sbu_3, # of connection points: 4
#     Node 62, Type 0, BuildingBlock: QUQFOY_clean_sbu_3, # of connection points: 4
#     Node 63, Type 0, BuildingBlock: QUQFOY_clean_sbu_3, # of connection points: 4
#     Node 64, Type 0, BuildingBlock: QUQFOY_clean_sbu_3, # of connection points: 4
#     Node 65, Type 0, BuildingBlock: QUQFOY_clean_sbu_3, # of connection points: 4
#     Node 66, Type 0, BuildingBlock: QUQFOY_clean_sbu_3, # of connection points: 4
#     Node 67, Type 0, BuildingBlock: QUQFOY_clean_sbu_3, # of connection points: 4
#     Node 68, Type 0, BuildingBlock: QUQFOY_clean_sbu_3, # of connection points: 4
#     Node 69, Type 0, BuildingBlock: QUQFOY_clean_sbu_3, # of connection points: 4
#     Node 70, Type 0, BuildingBlock: QUQFOY_clean_sbu_3, # of connection points: 4
#     Node 71, Type 0, BuildingBlock: QUQFOY_clean_sbu_3, # of connection points: 4
#     Node 72, Type 0, BuildingBlock: QUQFOY_clean_sbu_3, # of connection points: 4
#     Node 73, Type 0, BuildingBlock: QUQFOY_clean_sbu_3, # of connection points: 4
#     Node 74, Type 0, BuildingBlock: QUQFOY_clean_sbu_3, # of connection points: 4
#     Node 75, Type 0, BuildingBlock: QUQFOY_clean_sbu_3, # of connection points: 4
#     Node 76, Type 0, BuildingBlock: QUQFOY_clean_sbu_3, # of connection points: 4
#     Node 77, Type 0, BuildingBlock: QUQFOY_clean_sbu_3, # of connection points: 4
#     Node 78, Type 0, BuildingBlock: QUQFOY_clean_sbu_3, # of connection points: 4
#     Node 79, Type 0, BuildingBlock: QUQFOY_clean_sbu_3, # of connection points: 4
#     Node 80, Type 0, BuildingBlock: QUQFOY_clean_sbu_3, # of connection points: 4
#     Node 81, Type 0, BuildingBlock: QUQFOY_clean_sbu_3, # of connection points: 4
#     Node 82, Type 0, BuildingBlock: QUQFOY_clean_sbu_3, # of connection points: 4
#     Node 83, Type 0, BuildingBlock: QUQFOY_clean_sbu_3, # of connection points: 4
#     Node 84, Type 0, BuildingBlock: QUQFOY_clean_sbu_3, # of connection points: 4
#     Node 85, Type 0, BuildingBlock: QUQFOY_clean_sbu_3, # of connection points: 4
#     Node 86, Type 0, BuildingBlock: QUQFOY_clean_sbu_3, # of connection points: 4
#     Node 87, Type 0, BuildingBlock: QUQFOY_clean_sbu_3, # of connection points: 4
#     Node 88, Type 0, BuildingBlock: QUQFOY_clean_sbu_3, # of connection points: 4
#     Node 89, Type 0, BuildingBlock: QUQFOY_clean_sbu_3, # of connection points: 4
#     Node 90, Type 0, BuildingBlock: QUQFOY_clean_sbu_3, # of connection points: 4
#     Node 91, Type 0, BuildingBlock: QUQFOY_clean_sbu_3, # of connection points: 4
#     Node 92, Type 0, BuildingBlock: QUQFOY_clean_sbu_3, # of connection points: 4
#     Node 93, Type 0, BuildingBlock: QUQFOY_clean_sbu_3, # of connection points: 4
#     Node 94, Type 0, BuildingBlock: QUQFOY_clean_sbu_3, # of connection points: 4
#     Node 95, Type 0, BuildingBlock: QUQFOY_clean_sbu_3, # of connection points: 4
#     Edge 96, Type (0, 0), None
#     Edge 97, Type (0, 0), None
#     Edge 98, Type (0, 0), None
#     Edge 99, Type (0, 0), None
#     Edge 100, Type (0, 0), None
#     Edge 101, Type (0, 0), None
#     Edge 102, Type (0, 0), None
#     Edge 103, Type (0, 0), None
#     Edge 104, Type (0, 0), None
#     Edge 105, Type (0, 0), None
#     Edge 106, Type (0, 0), None
#     Edge 107, Type (0, 0), None
#     Edge 108, Type (0, 0), None
#     Edge 109, Type (0, 0), None
#     Edge 110, Type (0, 0), None
#     Edge 111, Type (0, 0), None
#     Edge 112, Type (0, 0), None
#     Edge 113, Type (0, 0), None
#     Edge 114, Type (0, 0), None
#     Edge 115, Type (0, 0), None
#     Edge 116, Type (0, 0), None
#     Edge 117, Type (0, 0), None
#     Edge 118, Type (0, 0), None
#     Edge 119, Type (0, 0), None
#     Edge 120, Type (0, 0), None
#     Edge 121, Type (0, 0), None
#     Edge 122, Type (0, 0), None
#     Edge 123, Type (0, 0), None
#     Edge 124, Type (0, 0), None
#     Edge 125, Type (0, 0), None
#     Edge 126, Type (0, 0), None
#     Edge 127, Type (0, 0), None
#     Edge 128, Type (0, 0), None
#     Edge 129, Type (0, 0), None
#     Edge 130, Type (0, 0), None
#     Edge 131, Type (0, 0), None
#     Edge 132, Type (0, 0), None
#     Edge 133, Type (0, 0), None
#     Edge 134, Type (0, 0), None
#     Edge 135, Type (0, 0), None
#     Edge 136, Type (0, 0), None
#     Edge 137, Type (0, 0), None
#     Edge 138, Type (0, 0), None
#     Edge 139, Type (0, 0), None
#     Edge 140, Type (0, 0), None
#     Edge 141, Type (0, 0), None
#     Edge 142, Type (0, 0), None
#     Edge 143, Type (0, 0), None
#     Edge 144, Type (0, 0), None
#     Edge 145, Type (0, 0), None
#     Edge 146, Type (0, 0), None
#     Edge 147, Type (0, 0), None
#     Edge 148, Type (0, 0), None
#     Edge 149, Type (0, 0), None
#     Edge 150, Type (0, 0), None
#     Edge 151, Type (0, 0), None
#     Edge 152, Type (0, 0), None
#     Edge 153, Type (0, 0), None
#     Edge 154, Type (0, 0), None
#     Edge 155, Type (0, 0), None
#     Edge 156, Type (0, 0), None
#     Edge 157, Type (0, 0), None
#     Edge 158, Type (0, 0), None
#     Edge 159, Type (0, 0), None
#     Edge 160, Type (0, 0), None
#     Edge 161, Type (0, 0), None
#     Edge 162, Type (0, 0), None
#     Edge 163, Type (0, 0), None
#     Edge 164, Type (0, 0), None
#     Edge 165, Type (0, 0), None
#     Edge 166, Type (0, 0), None
#     Edge 167, Type (0, 0), None
#     Edge 168, Type (0, 0), None
#     Edge 169, Type (0, 0), None
#     Edge 170, Type (0, 0), None
#     Edge 171, Type (0, 0), None
#     Edge 172, Type (0, 0), None
#     Edge 173, Type (0, 0), None
#     Edge 174, Type (0, 0), None
#     Edge 175, Type (0, 0), None
#     Edge 176, Type (0, 0), None
#     Edge 177, Type (0, 0), None
#     Edge 178, Type (0, 0), None
#     Edge 179, Type (0, 0), None
#     Edge 180, Type (0, 0), None
#     Edge 181, Type (0, 0), None
#     Edge 182, Type (0, 0), None
#     Edge 183, Type (0, 0), None
#     Edge 184, Type (0, 0), None
#     Edge 185, Type (0, 0), None
#     Edge 186, Type (0, 0), None
#     Edge 187, Type (0, 0), None
#     Edge 188, Type (0, 0), None
#     Edge 189, Type (0, 0), None
#     Edge 190, Type (0, 0), None
#     Edge 191, Type (0, 0), None
#     Edge 192, Type (0, 0), None
#     Edge 193, Type (0, 0), None
#     Edge 194, Type (0, 0), None
#     Edge 195, Type (0, 0), None
#     Edge 196, Type (0, 0), None
#     Edge 197, Type (0, 0), None
#     Edge 198, Type (0, 0), None
#     Edge 199, Type (0, 0), None
#     Edge 200, Type (0, 0), None
#     Edge 201, Type (0, 0), None
#     Edge 202, Type (0, 0), None
#     Edge 203, Type (0, 0), None
#     Edge 204, Type (0, 0), None
#     Edge 205, Type (0, 0), None
#     Edge 206, Type (0, 0), None
#     Edge 207, Type (0, 0), None
#     Edge 208, Type (0, 0), None
#     Edge 209, Type (0, 0), None
#     Edge 210, Type (0, 0), None
#     Edge 211, Type (0, 0), None
#     Edge 212, Type (0, 0), None
#     Edge 213, Type (0, 0), None
#     Edge 214, Type (0, 0), None
#     Edge 215, Type (0, 0), None
#     Edge 216, Type (0, 0), None
#     Edge 217, Type (0, 0), None
#     Edge 218, Type (0, 0), None
#     Edge 219, Type (0, 0), None
#     Edge 220, Type (0, 0), None
#     Edge 221, Type (0, 0), None
#     Edge 222, Type (0, 0), None
#     Edge 223, Type (0, 0), None
#     Edge 224, Type (0, 0), None
#     Edge 225, Type (0, 0), None
#     Edge 226, Type (0, 0), None
#     Edge 227, Type (0, 0), None
#     Edge 228, Type (0, 0), None
#     Edge 229, Type (0, 0), None
#     Edge 230, Type (0, 0), None
#     Edge 231, Type (0, 0), None
#     Edge 232, Type (0, 0), None
#     Edge 233, Type (0, 0), None
#     Edge 234, Type (0, 0), None
#     Edge 235, Type (0, 0), None
#     Edge 236, Type (0, 0), None
#     Edge 237, Type (0, 0), None
#     Edge 238, Type (0, 0), None
#     Edge 239, Type (0, 0), None
#     Edge 240, Type (0, 0), None
#     Edge 241, Type (0, 0), None
#     Edge 242, Type (0, 0), None
#     Edge 243, Type (0, 0), None
#     Edge 244, Type (0, 0), None
#     Edge 245, Type (0, 0), None
#     Edge 246, Type (0, 0), None
#     Edge 247, Type (0, 0), None
#     Edge 248, Type (0, 0), None
#     Edge 249, Type (0, 0), None
#     Edge 250, Type (0, 0), None
#     Edge 251, Type (0, 0), None
#     Edge 252, Type (0, 0), None
#     Edge 253, Type (0, 0), None
#     Edge 254, Type (0, 0), None
#     Edge 255, Type (0, 0), None
#     Edge 256, Type (0, 0), None
#     Edge 257, Type (0, 0), None
#     Edge 258, Type (0, 0), None
#     Edge 259, Type (0, 0), None
#     Edge 260, Type (0, 0), None
#     Edge 261, Type (0, 0), None
#     Edge 262, Type (0, 0), None
#     Edge 263, Type (0, 0), None
#     Edge 264, Type (0, 0), None
#     Edge 265, Type (0, 0), None
#     Edge 266, Type (0, 0), None
#     Edge 267, Type (0, 0), None
#     Edge 268, Type (0, 0), None
#     Edge 269, Type (0, 0), None
#     Edge 270, Type (0, 0), None
#     Edge 271, Type (0, 0), None
#     Edge 272, Type (0, 0), None
#     Edge 273, Type (0, 0), None
#     Edge 274, Type (0, 0), None
#     Edge 275, Type (0, 0), None
#     Edge 276, Type (0, 0), None
#     Edge 277, Type (0, 0), None
#     Edge 278, Type (0, 0), None
#     Edge 279, Type (0, 0), None
#     Edge 280, Type (0, 0), None
#     Edge 281, Type (0, 0), None
#     Edge 282, Type (0, 0), None
#     Edge 283, Type (0, 0), None
#     Edge 284, Type (0, 0), None
#     Edge 285, Type (0, 0), None
#     Edge 286, Type (0, 0), None
#     Edge 287, Type (0, 0), None
# Relax obj value: 0.520
# Max RMSD: 0.157
# Mean RMSD: 0.157
data_MOF--net-ulg--node1-QUQFOY_clean_sbu_3--edge1-none
_symmetry_space_group_name_H-M    P1
_symmetry_Int_Tables_number       1
_symmetry_cell_setting            triclinic
loop_
_symmetry_equiv_pos_as_xyz
'x, y, z'
_cell_length_a     48.143895
_cell_length_b     48.144019
_cell_length_c     48.149639
_cell_angle_alpha  90.000075
_cell_angle_beta   90.000381
_cell_angle_gamma 89.999789
loop_
_atom_site_label
_atom_site_type_symbol
_atom_site_fract_x
_atom_site_fract_y
_atom_site_fract_z
_atom_type_partial_charge
C0 C 0.05966 0.48941 0.15062 0.0
O1 O 0.03985 0.50504 0.15806 0.0
Cd2 Cd 0.01739 0.49867 0.1135 0.0
O3 O 0.05601 0.475 0.12892 0.0
Cd4 Cd 0.0105 0.48745 0.10194 0.0
C5 C 0.05788 0.48672 0.06308 0.0
O6 O -0.00129 0.54017 0.10025 0.0
O7 O -0.00706 0.51522 0.06347 0.0
O8 O -0.0281 0.46973 0.13159 0.0
C9 C -0.00893 0.53872 0.07504 0.0
O10 O 0.059 0.50384 0.08291 0.0
C11 C -0.03739 0.45522 0.11156 0.0
O12 O 0.03723 0.47047 0.06227 0.0
O13 O -0.02314 0.45415 0.08949 0.0
C14 C 0.65835 0.30966 0.40066 0.0
O15 O 0.64272 0.28983 0.40809 0.0
Cd16 Cd 0.64911 0.2674 0.36351 0.0
O17 O 0.67277 0.30601 0.37896 0.0
Cd18 Cd 0.66033 0.26052 0.35197 0.0
C19 C 0.66107 0.3079 0.31311 0.0
O20 O 0.60762 0.24873 0.35025 0.0
O21 O 0.63258 0.24295 0.31348 0.0
O22 O 0.67803 0.22191 0.38162 0.0
C23 C 0.60907 0.24108 0.32504 0.0
O24 O 0.64395 0.30902 0.33294 0.0
C25 C 0.69255 0.21262 0.3616 0.0
O26 O 0.67732 0.28725 0.3123 0.0
O27 O 0.69364 0.22687 0.33953 0.0
C28 C 0.8381 0.90836 0.65064 0.0
O29 O 0.85792 0.89272 0.65808 0.0
Cd30 Cd 0.88037 0.89912 0.61351 0.0
O31 O 0.84175 0.92277 0.62894 0.0
Cd32 Cd 0.88725 0.91033 0.60195 0.0
C33 C 0.83987 0.91107 0.5631 0.0
O34 O 0.89905 0.85762 0.60025 0.0
O35 O 0.90482 0.88258 0.56347 0.0
O36 O 0.92586 0.92805 0.6316 0.0
C37 C 0.9067 0.85907 0.57504 0.0
O38 O 0.83875 0.89394 0.58292 0.0
C39 C 0.93515 0.94257 0.61158 0.0
O40 O 0.86052 0.92732 0.56229 0.0
O41 O 0.92089 0.94364 0.58951 0.0
C42 C 0.23942 0.08812 0.90065 0.0
O43 O 0.25505 0.10794 0.90809 0.0
Cd44 Cd 0.24866 0.13038 0.86351 0.0
O45 O 0.22501 0.09176 0.87895 0.0
Cd46 Cd 0.23745 0.13726 0.85196 0.0
C47 C 0.23671 0.08988 0.81311 0.0
O48 O 0.29016 0.14905 0.85026 0.0
O49 O 0.2652 0.15483 0.81348 0.0
O50 O 0.21974 0.17587 0.88162 0.0
C51 C 0.28871 0.1567 0.82505 0.0
O52 O 0.25383 0.08876 0.83293 0.0
C53 C 0.20522 0.18516 0.8616 0.0
O54 O 0.22046 0.11053 0.8123 0.0
O55 O 0.20414 0.17091 0.83952 0.0
C56 C 0.05966 0.40832 0.74697 0.0
O57 O 0.03985 0.39268 0.73953 0.0
Cd58 Cd 0.01738 0.39908 0.78409 0.0
O59 O 0.056 0.42274 0.76866 0.0
Cd60 Cd 0.01049 0.4103 0.79564 0.0
C61 C 0.05787 0.41105 0.8345 0.0
O62 O -0.00131 0.35759 0.79735 0.0
O63 O -0.00708 0.38256 0.83412 0.0
O64 O -0.02812 0.42802 0.76599 0.0
C65 C -0.00896 0.35905 0.82256 0.0
O66 O 0.05898 0.39392 0.81468 0.0
C67 C -0.0374 0.44254 0.786 0.0
O68 O 0.03722 0.4273 0.8353 0.0
O69 O -0.02315 0.44362 0.80808 0.0
C70 C 0.73941 0.30968 -0.00301 0.0
O71 O 0.75504 0.28985 -0.01044 0.0
Cd72 Cd 0.74864 0.2674 0.03413 0.0
O73 O 0.72499 0.30603 0.01869 0.0
Cd74 Cd 0.73742 0.26052 0.04568 0.0
C75 C 0.73669 0.30791 0.08454 0.0
O76 O 0.79013 0.24872 0.04739 0.0
O77 O 0.76517 0.24295 0.08416 0.0
O78 O 0.71971 0.22192 0.01603 0.0
C79 C 0.78868 0.24107 0.07259 0.0
O80 O 0.75382 0.30902 0.06471 0.0
C81 C 0.70519 0.21263 0.03604 0.0
O82 O 0.72044 0.28726 0.08534 0.0
O83 O 0.70411 0.22689 0.05812 0.0
C84 C 0.83809 -0.01055 0.24697 0.0
O85 O 0.8579 0.00509 0.23953 0.0
Cd86 Cd 0.88038 -0.00132 0.28408 0.0
O87 O 0.84175 -0.02498 0.26866 0.0
Cd88 Cd 0.88727 -0.01254 0.29563 0.0
C89 C 0.83989 -0.01328 0.3345 0.0
O90 O 0.89907 0.04017 0.29735 0.0
O91 O 0.90484 0.0152 0.33412 0.0
O92 O 0.92587 -0.03026 0.26598 0.0
C93 C 0.90672 0.03871 0.32256 0.0
O94 O 0.83877 0.00385 0.31468 0.0
C95 C 0.93516 -0.04478 0.286 0.0
O96 O 0.86054 -0.02953 0.3353 0.0
O97 O 0.9209 -0.04586 0.30808 0.0
C98 C 0.15835 0.08809 0.497 0.0
O99 O 0.14272 0.10791 0.48956 0.0
Cd100 Cd 0.14912 0.13036 0.53413 0.0
O101 O 0.17277 0.09174 0.51869 0.0
Cd102 Cd 0.16034 0.13724 0.54568 0.0
C103 C 0.16107 0.08986 0.58454 0.0
O104 O 0.10763 0.14904 0.54739 0.0
O105 O 0.13259 0.15481 0.58416 0.0
O106 O 0.17805 0.17585 0.51603 0.0
C107 C 0.10908 0.15669 0.57259 0.0
O108 O 0.14395 0.08875 0.56471 0.0
C109 C 0.19257 0.18514 0.53604 0.0
O110 O 0.17733 0.11051 0.58534 0.0
O111 O 0.19365 0.17088 0.55812 0.0
C112 C 0.15073 0.05966 0.48936 0.0
O113 O 0.15818 0.03984 0.50499 0.0
Cd114 Cd 0.1136 0.01739 0.49858 0.0
O115 O 0.12903 0.05602 0.47494 0.0
Cd116 Cd 0.10205 0.01051 0.48736 0.0
C117 C 0.06319 0.0579 0.48664 0.0
O118 O 0.10034 -0.0013 0.54007 0.0
O119 O 0.06356 -0.00705 0.51511 0.0
O120 O 0.13169 -0.02809 0.46964 0.0
C121 C 0.07513 -0.00893 0.53861 0.0
O122 O 0.08301 0.05901 0.50376 0.0
C123 C 0.11166 -0.03738 0.45513 0.0
O124 O 0.06238 0.03725 0.47038 0.0
O125 O 0.08959 -0.02312 0.45405 0.0
C126 C 0.0881 0.4007 0.73936 0.0
O127 O 0.1079 0.40816 0.75499 0.0
Cd128 Cd 0.13037 0.3636 0.7486 0.0
O129 O 0.09175 0.379 0.72494 0.0
Cd130 Cd 0.13726 0.35204 0.73739 0.0
C131 C 0.08989 0.31316 0.73666 0.0
O132 O 0.14906 0.35034 0.79009 0.0
O133 O 0.15483 0.31356 0.76515 0.0
O134 O 0.17587 0.38168 0.71967 0.0
C135 C 0.1567 0.32513 0.78865 0.0
O136 O 0.08877 0.33299 0.75378 0.0
C137 C 0.18517 0.36165 0.70516 0.0
O138 O 0.11054 0.31236 0.72041 0.0
O139 O 0.17091 0.33957 0.70409 0.0
C140 C 0.74703 0.3381 -0.01064 0.0
O141 O 0.73958 0.35792 0.00499 0.0
Cd142 Cd 0.78416 0.38037 -0.00142 0.0
O143 O 0.76873 0.34174 -0.02507 0.0
Cd144 Cd 0.79572 0.38725 -0.01264 0.0
C145 C 0.83458 0.33986 -0.01337 0.0
O146 O 0.79743 0.39906 0.04006 0.0
O147 O 0.83421 0.40481 0.0151 0.0
O148 O 0.76607 0.42586 -0.03036 0.0
C149 C 0.82264 0.4067 0.03861 0.0
O150 O 0.81475 0.33875 0.00376 0.0
C151 C 0.7861 0.43514 -0.04488 0.0
O152 O 0.83538 0.36051 -0.02962 0.0
O153 O 0.80817 0.42088 -0.04595 0.0
C154 C 0.80965 -0.00293 0.23936 0.0
O155 O 0.78985 -0.01039 0.25499 0.0
Cd156 Cd 0.76738 0.03418 0.2486 0.0
O157 O 0.806 0.01876 0.22493 0.0
Cd158 Cd 0.76049 0.04574 0.23739 0.0
C159 C 0.80788 0.0846 0.23666 0.0
O160 O 0.7487 0.04743 0.29009 0.0
O161 O 0.74294 0.08422 0.26515 0.0
O162 O 0.72188 0.0161 0.21967 0.0
C163 C 0.74106 0.07265 0.28865 0.0
O164 O 0.80899 0.06478 0.25377 0.0
C165 C 0.71259 0.03613 0.20517 0.0
O166 O 0.78722 0.08541 0.22041 0.0
O167 O 0.72685 0.05821 0.20409 0.0
C168 C 0.1507 0.8381 0.40828 0.0
O169 O 0.15815 0.85791 0.39264 0.0
Cd170 Cd 0.11358 0.88038 0.39903 0.0
O171 O 0.129 0.84176 0.42269 0.0
Cd172 Cd 0.10203 0.88727 0.41024 0.0
C173 C 0.06316 0.83989 0.41098 0.0
O174 O 0.10033 0.89906 0.35753 0.0
O175 O 0.06355 0.90483 0.38248 0.0
O176 O 0.13168 0.92587 0.42795 0.0
C177 C 0.07512 0.9067 0.35898 0.0
O178 O 0.08298 0.83877 0.39386 0.0
C179 C 0.11166 0.93518 0.44245 0.0
O180 O 0.06235 0.86055 0.42723 0.0
O181 O 0.08957 0.92093 0.44353 0.0
C182 C 0.30968 0.40069 0.6583 0.0
O183 O 0.28986 0.40814 0.64267 0.0
Cd184 Cd 0.2674 0.36357 0.64906 0.0
O185 O 0.30602 0.37899 0.67272 0.0
Cd186 Cd 0.26051 0.35202 0.66027 0.0
C187 C 0.30789 0.31315 0.66101 0.0
O188 O 0.24872 0.35032 0.60757 0.0
O189 O 0.24295 0.31354 0.63252 0.0
O190 O 0.22191 0.38167 0.67799 0.0
C191 C 0.24107 0.32511 0.60902 0.0
O192 O 0.30901 0.33298 0.64389 0.0
C193 C 0.21261 0.36165 0.69249 0.0
O194 O 0.28724 0.31234 0.67726 0.0
O195 O 0.22686 0.33957 0.69357 0.0
C196 C 0.74706 0.55966 0.90828 0.0
O197 O 0.73961 0.53985 0.89265 0.0
Cd198 Cd 0.78418 0.51738 0.89903 0.0
O199 O 0.76876 0.556 0.9227 0.0
Cd200 Cd 0.79573 0.51049 0.91024 0.0
C201 C 0.8346 0.55787 0.91098 0.0
O202 O 0.79743 0.49871 0.85753 0.0
O203 O 0.83421 0.49293 0.88248 0.0
O204 O 0.76608 0.47189 0.92795 0.0
C205 C 0.82264 0.49106 0.85898 0.0
O206 O 0.81478 0.55899 0.89386 0.0
C207 C 0.7861 0.46258 0.94245 0.0
O208 O 0.83541 0.53722 0.92723 0.0
O209 O 0.80819 0.47683 0.94353 0.0
C210 C 0.58808 -0.00291 0.15832 0.0
O211 O 0.6079 -0.01036 0.1427 0.0
Cd212 Cd 0.63035 0.03422 0.14907 0.0
O213 O 0.59173 0.01879 0.17273 0.0
Cd214 Cd 0.63724 0.04577 0.16028 0.0
C215 C 0.58986 0.08464 0.16101 0.0
O216 O 0.64903 0.04747 0.10758 0.0
O217 O 0.6548 0.08425 0.13253 0.0
O218 O 0.67584 0.01611 0.17799 0.0
C219 C 0.65667 0.07267 0.10902 0.0
O220 O 0.58874 0.06481 0.1439 0.0
C221 C 0.68514 0.03614 0.19249 0.0
O222 O 0.61051 0.08545 0.17726 0.0
O223 O 0.67089 0.05822 0.19358 0.0
C224 C 0.48941 0.15071 0.0596 0.0
O225 O 0.50505 0.15815 0.03979 0.0
Cd226 Cd 0.49867 0.11358 0.01734 0.0
O227 O 0.475 0.12901 0.05595 0.0
Cd228 Cd 0.48746 0.10202 0.01045 0.0
C229 C 0.48672 0.06316 0.05783 0.0
O230 O 0.54017 0.10031 -0.00132 0.0
O231 O 0.51521 0.06354 -0.00711 0.0
O232 O 0.46975 0.13168 -0.02815 0.0
C233 C 0.53872 0.0751 -0.00897 0.0
O234 O 0.50383 0.08299 0.05895 0.0
C235 C 0.45524 0.11166 -0.03745 0.0
O236 O 0.47047 0.06235 0.03718 0.0
O237 O 0.45416 0.08958 -0.0232 0.0
C238 C -0.01059 0.74703 0.33803 0.0
O239 O 0.00505 0.73959 0.35785 0.0
Cd240 Cd -0.00136 0.78416 0.38031 0.0
O241 O -0.02501 0.76873 0.34169 0.0
Cd242 Cd -0.01258 0.79572 0.38719 0.0
C243 C -0.01331 0.83458 0.33981 0.0
O244 O 0.04013 0.79742 0.39899 0.0
O245 O 0.01517 0.83421 0.40474 0.0
O246 O -0.03029 0.76607 0.42579 0.0
C247 C 0.03868 0.82264 0.40662 0.0
O248 O 0.00382 0.81475 0.3387 0.0
C249 C -0.04481 0.78609 0.43508 0.0
O250 O -0.02956 0.83538 0.36045 0.0
O251 O -0.04589 0.80817 0.42082 0.0
C252 C 0.40074 0.23941 0.58803 0.0
O253 O 0.40818 0.25504 0.60784 0.0
Cd254 Cd 0.36362 0.24864 0.63032 0.0
O255 O 0.37904 0.22498 0.59169 0.0
Cd256 Cd 0.35207 0.23742 0.6372 0.0
C257 C 0.3132 0.23669 0.58983 0.0
O258 O 0.35036 0.29013 0.64901 0.0
O259 O 0.31358 0.26517 0.65477 0.0
O260 O 0.38172 0.21969 0.6758 0.0
C261 C 0.32515 0.28867 0.65664 0.0
O262 O 0.33302 0.25382 0.58872 0.0
C263 C 0.3617 0.20518 0.68509 0.0
O264 O 0.3124 0.22043 0.61047 0.0
O265 O 0.33962 0.2041 0.67083 0.0
C266 C 0.90834 0.65073 0.83803 0.0
O267 O 0.89271 0.65817 0.85784 0.0
Cd268 Cd 0.89911 0.61361 0.88031 0.0
O269 O 0.92277 0.62903 0.84169 0.0
Cd270 Cd 0.91033 0.60205 0.88719 0.0
C271 C 0.91106 0.56319 0.83981 0.0
O272 O 0.85762 0.60034 0.89899 0.0
O273 O 0.88259 0.56356 0.90475 0.0
O274 O 0.92805 0.63171 0.92579 0.0
C275 C 0.85908 0.57513 0.90662 0.0
O276 O 0.89394 0.58301 0.8387 0.0
C277 C 0.94257 0.61169 0.93508 0.0
O278 O 0.92732 0.56238 0.86046 0.0
O279 O 0.94365 0.58961 0.92083 0.0
C280 C -0.00293 0.65833 0.08804 0.0
O281 O -0.01039 0.64269 0.10784 0.0
Cd282 Cd 0.03417 0.64908 0.13033 0.0
O283 O 0.01876 0.67275 0.09171 0.0
Cd284 Cd 0.04573 0.66029 0.13722 0.0
C285 C 0.08461 0.66103 0.08985 0.0
O286 O 0.04743 0.60758 0.149 0.0
O287 O 0.08421 0.63253 0.15478 0.0
O288 O 0.01608 0.67801 0.17582 0.0
C289 C 0.07264 0.60903 0.15665 0.0
O290 O 0.06478 0.64391 0.08873 0.0
C291 C 0.0361 0.69252 0.18512 0.0
O292 O 0.08541 0.67728 0.1105 0.0
O293 O 0.05818 0.69359 0.17087 0.0
C294 C 0.40835 0.74705 0.0596 0.0
O295 O 0.39271 0.73961 0.03979 0.0
Cd296 Cd 0.39908 0.78418 0.01733 0.0
O297 O 0.42276 0.76876 0.05594 0.0
Cd298 Cd 0.4103 0.79574 0.01045 0.0
C299 C 0.41104 0.8346 0.05782 0.0
O300 O 0.35758 0.79744 -0.00133 0.0
O301 O 0.38254 0.83422 -0.00712 0.0
O302 O 0.42801 0.76608 -0.02816 0.0
C303 C 0.35903 0.82265 -0.00898 0.0
O304 O 0.39392 0.81477 0.05894 0.0
C305 C 0.44252 0.7861 -0.03745 0.0
O306 O 0.42729 0.83541 0.03717 0.0
O307 O 0.4436 0.80818 -0.02321 0.0
C308 C 0.40073 0.15832 0.80961 0.0
O309 O 0.40818 0.14268 0.78981 0.0
Cd310 Cd 0.36362 0.14906 0.76732 0.0
O311 O 0.37903 0.17274 0.80594 0.0
Cd312 Cd 0.35206 0.16028 0.76043 0.0
C313 C 0.31319 0.16104 0.80779 0.0
O314 O 0.35036 0.10757 0.74865 0.0
O315 O 0.31358 0.13253 0.74287 0.0
O316 O 0.38172 0.17799 0.72183 0.0
C317 C 0.32515 0.10902 0.741 0.0
O318 O 0.33301 0.14391 0.80892 0.0
C319 C 0.36169 0.1925 0.71253 0.0
O320 O 0.31239 0.17729 0.78714 0.0
O321 O 0.33961 0.19358 0.72678 0.0
C322 C 0.49705 0.23945 0.3096 0.0
O323 O 0.4896 0.2551 0.2898 0.0
Cd324 Cd 0.53416 0.24872 0.26732 0.0
O325 O 0.51875 0.22503 0.30593 0.0
Cd326 Cd 0.54571 0.2375 0.26042 0.0
C327 C 0.58459 0.23674 0.30778 0.0
O328 O 0.54742 0.29022 0.24865 0.0
O329 O 0.5842 0.26525 0.24286 0.0
O330 O 0.51605 0.2198 0.22182 0.0
C331 C 0.57263 0.28876 0.241 0.0
O332 O 0.56477 0.25387 0.30892 0.0
C333 C 0.53607 0.20528 0.21252 0.0
O334 O 0.58539 0.22049 0.28713 0.0
O335 O 0.55816 0.20421 0.22677 0.0
C336 C 0.05967 -0.01058 0.65062 0.0
O337 O 0.03986 0.00505 0.65807 0.0
Cd338 Cd 0.01739 -0.00132 0.61351 0.0
O339 O 0.056 -0.025 0.62892 0.0
Cd340 Cd 0.0105 -0.01254 0.60195 0.0
C341 C 0.05786 -0.01328 0.56309 0.0
O342 O -0.00129 0.04018 0.60026 0.0
O343 O -0.00707 0.01522 0.56348 0.0
O344 O -0.02811 -0.03025 0.6316 0.0
C345 C -0.00894 0.03873 0.57505 0.0
O346 O 0.059 0.00384 0.58291 0.0
C347 C -0.03741 -0.04476 0.61158 0.0
O348 O 0.03721 -0.02954 0.56228 0.0
O349 O -0.02316 -0.04583 0.5895 0.0
C350 C 0.65834 0.80964 0.90067 0.0
O351 O 0.64271 0.78983 0.9081 0.0
Cd352 Cd 0.64911 0.76738 0.86353 0.0
O353 O 0.67276 0.806 0.87897 0.0
Cd354 Cd 0.66032 0.7605 0.85198 0.0
C355 C 0.66107 0.80789 0.81313 0.0
O356 O 0.60761 0.74871 0.85026 0.0
O357 O 0.63257 0.74294 0.81349 0.0
O358 O 0.67802 0.7219 0.88163 0.0
C359 C 0.60906 0.74107 0.82505 0.0
O360 O 0.64394 0.809 0.83295 0.0
C361 C 0.69255 0.7126 0.86162 0.0
O362 O 0.67732 0.78723 0.81232 0.0
O363 O 0.69363 0.72686 0.83954 0.0
C364 C 0.8381 0.40836 0.15062 0.0
O365 O 0.85792 0.39272 0.15806 0.0
Cd366 Cd 0.88038 0.3991 0.1135 0.0
O367 O 0.84176 0.42277 0.12892 0.0
Cd368 Cd 0.88727 0.41031 0.10195 0.0
C369 C 0.8399 0.41105 0.06308 0.0
O370 O 0.89906 0.3576 0.10025 0.0
O371 O 0.90483 0.38255 0.06347 0.0
O372 O 0.92587 0.42804 0.13159 0.0
C373 C 0.9067 0.35904 0.07505 0.0
O374 O 0.83877 0.39393 0.0829 0.0
C375 C 0.93517 0.44254 0.11156 0.0
O376 O 0.86055 0.4273 0.06228 0.0
O377 O 0.92092 0.44361 0.08949 0.0
C378 C 0.23943 0.5881 0.40067 0.0
O379 O 0.25506 0.60792 0.4081 0.0
Cd380 Cd 0.24866 0.63037 0.36353 0.0
O381 O 0.22501 0.59175 0.37897 0.0
Cd382 Cd 0.23745 0.63725 0.35198 0.0
C383 C 0.2367 0.58987 0.31313 0.0
O384 O 0.29016 0.64905 0.35027 0.0
O385 O 0.26519 0.65482 0.31349 0.0
O386 O 0.21974 0.67586 0.38164 0.0
C387 C 0.2887 0.65669 0.32506 0.0
O388 O 0.25383 0.58875 0.33295 0.0
C389 C 0.20522 0.68515 0.36162 0.0
O390 O 0.22045 0.61052 0.31232 0.0
O391 O 0.20413 0.67089 0.33955 0.0
C392 C 0.05968 0.90831 0.24697 0.0
O393 O 0.03987 0.89268 0.23953 0.0
Cd394 Cd 0.01738 0.89908 0.28408 0.0
O395 O 0.05601 0.92274 0.26866 0.0
Cd396 Cd 0.0105 0.91031 0.29563 0.0
C397 C 0.05786 0.91105 0.3345 0.0
O398 O -0.00131 0.8576 0.29734 0.0
O399 O -0.00706 0.88256 0.33412 0.0
O400 O -0.02811 0.92803 0.26598 0.0
C401 C -0.00894 0.85905 0.32255 0.0
O402 O 0.05899 0.89392 0.31468 0.0
C403 C -0.0374 0.94254 0.286 0.0
O404 O 0.03722 0.92731 0.33529 0.0
O405 O -0.02315 0.94361 0.30808 0.0
C406 C 0.73941 0.80968 0.49701 0.0
O407 O 0.75504 0.78986 0.48956 0.0
Cd408 Cd 0.74866 0.7674 0.53413 0.0
O409 O 0.725 0.80602 0.51871 0.0
Cd410 Cd 0.73744 0.76052 0.54568 0.0
C411 C 0.73671 0.80789 0.58455 0.0
O412 O 0.79015 0.74872 0.54738 0.0
O413 O 0.7652 0.74294 0.58416 0.0
O414 O 0.71972 0.72191 0.51603 0.0
C415 C 0.7887 0.74107 0.57259 0.0
O416 O 0.75383 0.80901 0.56472 0.0
C417 C 0.7052 0.71262 0.53605 0.0
O418 O 0.72046 0.78724 0.58535 0.0
O419 O 0.70413 0.72688 0.55813 0.0
C420 C 0.83808 0.48944 0.74698 0.0
O421 O 0.85789 0.50508 0.73953 0.0
Cd422 Cd 0.88037 0.49868 0.78408 0.0
O423 O 0.84175 0.47502 0.76867 0.0
Cd424 Cd 0.88726 0.48746 0.79563 0.0
C425 C 0.8399 0.48671 0.8345 0.0
O426 O 0.89906 0.54017 0.79734 0.0
O427 O 0.90482 0.5152 0.83412 0.0
O428 O 0.92586 0.46974 0.76598 0.0
C429 C 0.9067 0.53871 0.82255 0.0
O430 O 0.83877 0.50385 0.81469 0.0
C431 C 0.93516 0.45523 0.78601 0.0
O432 O 0.86054 0.47045 0.8353 0.0
O433 O 0.9209 0.45415 0.80808 0.0
C434 C 0.15837 0.58809 -0.003 0.0
O435 O 0.14274 0.60791 -0.01044 0.0
Cd436 Cd 0.14913 0.63036 0.03413 0.0
O437 O 0.17278 0.59173 0.0187 0.0
Cd438 Cd 0.16035 0.63724 0.04569 0.0
C439 C 0.16108 0.58986 0.08454 0.0
O440 O 0.10764 0.64904 0.04739 0.0
O441 O 0.13259 0.6548 0.08417 0.0
O442 O 0.17806 0.67584 0.01604 0.0
C443 C 0.10909 0.65667 0.0726 0.0
O444 O 0.14395 0.58874 0.06472 0.0
C445 C 0.19258 0.68513 0.03606 0.0
O446 O 0.17733 0.61051 0.08535 0.0
O447 O 0.19366 0.67088 0.05813 0.0
C448 C 0.15074 0.55966 -0.01064 0.0
O449 O 0.15819 0.53984 0.00499 0.0
Cd450 Cd 0.11362 0.5174 -0.00142 0.0
O451 O 0.12905 0.55603 -0.02507 0.0
Cd452 Cd 0.10206 0.51052 -0.01264 0.0
C453 C 0.0632 0.55791 -0.01337 0.0
O454 O 0.10035 0.49871 0.04006 0.0
O455 O 0.06356 0.49297 0.0151 0.0
O456 O 0.1317 0.47191 -0.03037 0.0
C457 C 0.07514 0.49109 0.03861 0.0
O458 O 0.08302 0.55901 0.00376 0.0
C459 C 0.11167 0.46262 -0.04488 0.0
O460 O 0.06239 0.53726 -0.02963 0.0
O461 O 0.0896 0.47689 -0.04595 0.0
C462 C 0.08812 0.90069 0.23936 0.0
O463 O 0.10792 0.90815 0.255 0.0
Cd464 Cd 0.13039 0.86358 0.24862 0.0
O465 O 0.09177 0.87899 0.22494 0.0
Cd466 Cd 0.13727 0.85202 0.2374 0.0
C467 C 0.0899 0.81315 0.23667 0.0
O468 O 0.14906 0.85033 0.29011 0.0
O469 O 0.15483 0.81354 0.26516 0.0
O470 O 0.17589 0.88166 0.21968 0.0
C471 C 0.15671 0.82512 0.28866 0.0
O472 O 0.08878 0.83298 0.25378 0.0
C473 C 0.18518 0.86163 0.20518 0.0
O474 O 0.11055 0.81235 0.22042 0.0
O475 O 0.17092 0.83955 0.20411 0.0
C476 C 0.74702 0.83811 0.48937 0.0
O477 O 0.73957 0.85792 0.505 0.0
Cd478 Cd 0.78413 0.88038 0.49859 0.0
O479 O 0.76871 0.84176 0.47494 0.0
Cd480 Cd 0.7957 0.88726 0.48737 0.0
C481 C 0.83456 0.83988 0.48664 0.0
O482 O 0.7974 0.89908 0.54007 0.0
O483 O 0.83419 0.90482 0.51512 0.0
O484 O 0.76606 0.92587 0.46964 0.0
C485 C 0.82261 0.9067 0.53862 0.0
O486 O 0.81473 0.83878 0.50377 0.0
C487 C 0.78608 0.93516 0.45513 0.0
O488 O 0.83536 0.86053 0.47039 0.0
O489 O 0.80816 0.9209 0.45406 0.0
C490 C 0.80964 0.49706 0.73936 0.0
O491 O 0.78984 0.4896 0.755 0.0
Cd492 Cd 0.76737 0.53417 0.74862 0.0
O493 O 0.80599 0.51876 0.72494 0.0
Cd494 Cd 0.76048 0.54573 0.7374 0.0
C495 C 0.80787 0.58459 0.73666 0.0
O496 O 0.7487 0.54742 0.79011 0.0
O497 O 0.74293 0.58421 0.76516 0.0
O498 O 0.72187 0.51609 0.71968 0.0
C499 C 0.74105 0.57263 0.78866 0.0
O500 O 0.80898 0.56477 0.75378 0.0
C501 C 0.71258 0.53612 0.70518 0.0
O502 O 0.78721 0.5854 0.72042 0.0
O503 O 0.72684 0.5582 0.70411 0.0
C504 C 0.15071 0.3381 0.90827 0.0
O505 O 0.15815 0.35792 0.89264 0.0
Cd506 Cd 0.11359 0.38039 0.89903 0.0
O507 O 0.12901 0.34176 0.92269 0.0
Cd508 Cd 0.10203 0.38727 0.91024 0.0
C509 C 0.06317 0.33989 0.91098 0.0
O510 O 0.10033 0.39906 0.85753 0.0
O511 O 0.06354 0.40482 0.88248 0.0
O512 O 0.13169 0.42587 0.92795 0.0
C513 C 0.07512 0.40669 0.85898 0.0
O514 O 0.08299 0.33878 0.89386 0.0
C515 C 0.11166 0.43518 0.94245 0.0
O516 O 0.06236 0.36054 0.92723 0.0
O517 O 0.08958 0.42093 0.94352 0.0
C518 C 0.30968 0.90069 0.15832 0.0
O519 O 0.28986 0.90813 0.14269 0.0
Cd520 Cd 0.26741 0.86355 0.14908 0.0
O521 O 0.30603 0.87898 0.17273 0.0
Cd522 Cd 0.26053 0.852 0.16029 0.0
C523 C 0.30791 0.81313 0.16102 0.0
O524 O 0.24873 0.85031 0.10758 0.0
O525 O 0.24296 0.81352 0.13253 0.0
O526 O 0.22193 0.88165 0.178 0.0
C527 C 0.24109 0.8251 0.10903 0.0
O528 O 0.30902 0.83296 0.1439 0.0
C529 C 0.21262 0.86163 0.1925 0.0
O530 O 0.28726 0.81232 0.17727 0.0
O531 O 0.22688 0.83955 0.19358 0.0
C532 C 0.74705 0.05968 0.40827 0.0
O533 O 0.73961 0.03986 0.39264 0.0
Cd534 Cd 0.78417 0.01739 0.39902 0.0
O535 O 0.76875 0.05601 0.42268 0.0
Cd536 Cd 0.79573 0.0105 0.41024 0.0
C537 C 0.8346 0.05788 0.41098 0.0
O538 O 0.79742 -0.00129 0.35753 0.0
O539 O 0.83421 -0.00705 0.38248 0.0
O540 O 0.76607 -0.0281 0.42795 0.0
C541 C 0.82264 -0.00892 0.35898 0.0
O542 O 0.81477 0.059 0.39386 0.0
C543 C 0.78609 -0.0374 0.44245 0.0
O544 O 0.8354 0.03723 0.42723 0.0
O545 O 0.80818 -0.02315 0.44352 0.0
C546 C 0.58808 0.49708 0.65832 0.0
O547 O 0.6079 0.48964 0.6427 0.0
Cd548 Cd 0.63035 0.53422 0.64908 0.0
O549 O 0.59172 0.51879 0.67273 0.0
Cd550 Cd 0.63723 0.54577 0.66029 0.0
C551 C 0.58985 0.58464 0.66101 0.0
O552 O 0.64903 0.54746 0.60758 0.0
O553 O 0.6548 0.58425 0.63253 0.0
O554 O 0.67583 0.51611 0.678 0.0
C555 C 0.65668 0.57267 0.60903 0.0
O556 O 0.58874 0.56481 0.6439 0.0
C557 C 0.68513 0.53613 0.6925 0.0
O558 O 0.6105 0.58545 0.67726 0.0
O559 O 0.67088 0.55822 0.69358 0.0
C560 C 0.48941 0.65071 0.5596 0.0
O561 O 0.50505 0.65815 0.53979 0.0
Cd562 Cd 0.49867 0.61358 0.51734 0.0
O563 O 0.475 0.62901 0.55595 0.0
Cd564 Cd 0.48746 0.60202 0.51045 0.0
C565 C 0.48671 0.56316 0.55783 0.0
O566 O 0.54017 0.60032 0.49868 0.0
O567 O 0.51521 0.56354 0.49289 0.0
O568 O 0.46975 0.63168 0.47185 0.0
C569 C 0.53872 0.57511 0.49103 0.0
O570 O 0.50383 0.58299 0.55895 0.0
C571 C 0.45524 0.61166 0.46255 0.0
O572 O 0.47047 0.56235 0.53717 0.0
O573 O 0.45416 0.58958 0.4768 0.0
C574 C -0.01058 0.24703 0.83803 0.0
O575 O 0.00506 0.23959 0.85785 0.0
Cd576 Cd -0.00135 0.28416 0.88031 0.0
O577 O -0.025 0.26873 0.84169 0.0
Cd578 Cd -0.01257 0.29571 0.88719 0.0
C579 C -0.01331 0.33458 0.83983 0.0
O580 O 0.04014 0.29742 0.89899 0.0
O581 O 0.01518 0.33421 0.90475 0.0
O582 O -0.03027 0.26605 0.92579 0.0
C583 C 0.03869 0.32263 0.90662 0.0
O584 O 0.00382 0.31475 0.8387 0.0
C585 C -0.04479 0.28607 0.93509 0.0
O586 O -0.02957 0.33538 0.86047 0.0
O587 O -0.04587 0.30815 0.92084 0.0
C588 C 0.40075 0.73942 0.08803 0.0
O589 O 0.40821 0.75505 0.10784 0.0
Cd590 Cd 0.36365 0.74863 0.13031 0.0
O591 O 0.37906 0.72498 0.09169 0.0
Cd592 Cd 0.35209 0.73741 0.1372 0.0
C593 C 0.31322 0.73669 0.08982 0.0
O594 O 0.35038 0.79011 0.14902 0.0
O595 O 0.31359 0.76515 0.15476 0.0
O596 O 0.38173 0.71968 0.1758 0.0
C597 C 0.32517 0.78866 0.15664 0.0
O598 O 0.33304 0.75382 0.08872 0.0
C599 C 0.3617 0.70516 0.18508 0.0
O600 O 0.31242 0.72043 0.11046 0.0
O601 O 0.33963 0.70409 0.17082 0.0
C602 C 0.90835 0.15073 0.33803 0.0
O603 O 0.89272 0.15817 0.35784 0.0
Cd604 Cd 0.89912 0.11361 0.38031 0.0
O605 O 0.92277 0.12903 0.34169 0.0
Cd606 Cd 0.91033 0.10205 0.38719 0.0
C607 C 0.91107 0.06318 0.33982 0.0
O608 O 0.85762 0.10035 0.39899 0.0
O609 O 0.88258 0.06356 0.40475 0.0
O610 O 0.92804 0.13171 0.42579 0.0
C611 C 0.85907 0.07513 0.40662 0.0
O612 O 0.89394 0.08301 0.3387 0.0
C613 C 0.94256 0.11169 0.43509 0.0
O614 O 0.92733 0.06238 0.36046 0.0
O615 O 0.94364 0.08961 0.42084 0.0
C616 C -0.00294 0.15834 0.58804 0.0
O617 O -0.01039 0.14269 0.60784 0.0
Cd618 Cd 0.03418 0.14908 0.63032 0.0
O619 O 0.01876 0.17275 0.59171 0.0
Cd620 Cd 0.04573 0.1603 0.63722 0.0
C621 C 0.08461 0.16103 0.58986 0.0
O622 O 0.04743 0.10758 0.649 0.0
O623 O 0.08421 0.13254 0.65478 0.0
O624 O 0.01608 0.17801 0.67582 0.0
C625 C 0.07264 0.10903 0.65665 0.0
O626 O 0.06478 0.14391 0.58873 0.0
C627 C 0.0361 0.19252 0.68512 0.0
O628 O 0.08541 0.17729 0.6105 0.0
O629 O 0.05818 0.19359 0.67086 0.0
C630 C 0.40835 0.24703 0.5596 0.0
O631 O 0.39271 0.23958 0.5398 0.0
Cd632 Cd 0.3991 0.28415 0.51734 0.0
O633 O 0.42277 0.26873 0.55595 0.0
Cd634 Cd 0.41032 0.29571 0.51045 0.0
C635 C 0.41106 0.33457 0.55783 0.0
O636 O 0.35761 0.29742 0.49866 0.0
O637 O 0.38257 0.3342 0.49289 0.0
O638 O 0.42803 0.26606 0.47185 0.0
C639 C 0.35906 0.32263 0.49102 0.0
O640 O 0.39393 0.31474 0.55895 0.0
C641 C 0.44255 0.28608 0.46256 0.0
O642 O 0.42731 0.33538 0.53718 0.0
O643 O 0.44362 0.30816 0.47681 0.0
C644 C 0.40072 0.65832 0.30961 0.0
O645 O 0.40817 0.64267 0.28981 0.0
Cd646 Cd 0.36361 0.64906 0.26733 0.0
O647 O 0.37902 0.67274 0.30594 0.0
Cd648 Cd 0.35205 0.66028 0.26043 0.0
C649 C 0.31318 0.66103 0.30779 0.0
O650 O 0.35034 0.60756 0.24866 0.0
O651 O 0.31357 0.63252 0.24287 0.0
O652 O 0.38172 0.67798 0.22183 0.0
C653 C 0.32514 0.60901 0.24101 0.0
O654 O 0.333 0.64391 0.30893 0.0
C655 C 0.36169 0.69248 0.21252 0.0
O656 O 0.31238 0.67728 0.28715 0.0
O657 O 0.33961 0.69356 0.22677 0.0
C658 C 0.49704 0.73945 0.8096 0.0
O659 O 0.4896 0.7551 0.7898 0.0
Cd660 Cd 0.53416 0.74871 0.76732 0.0
O661 O 0.51874 0.72503 0.80593 0.0
Cd662 Cd 0.54571 0.73749 0.76043 0.0
C663 C 0.58459 0.73673 0.80779 0.0
O664 O 0.54743 0.79021 0.74866 0.0
O665 O 0.5842 0.76524 0.74287 0.0
O666 O 0.51605 0.71979 0.72182 0.0
C667 C 0.57263 0.78876 0.74101 0.0
O668 O 0.56476 0.75386 0.80892 0.0
C669 C 0.53607 0.70528 0.71252 0.0
O670 O 0.58538 0.72048 0.78714 0.0
O671 O 0.55815 0.7042 0.72677 0.0
C672 C 0.55965 0.48945 0.6507 0.0
O673 O 0.53983 0.50508 0.65814 0.0
Cd674 Cd 0.51739 0.49866 0.61358 0.0
O675 O 0.55601 0.47501 0.62901 0.0
Cd676 Cd 0.51051 0.48743 0.60202 0.0
C677 C 0.5579 0.48669 0.56317 0.0
O678 O 0.4987 0.54014 0.6003 0.0
O679 O 0.49296 0.51518 0.56352 0.0
O680 O 0.4719 0.46972 0.63166 0.0
C681 C 0.49108 0.53868 0.57509 0.0
O682 O 0.559 0.50383 0.58299 0.0
C683 C 0.46261 0.4552 0.61165 0.0
O684 O 0.53725 0.47044 0.56237 0.0
O685 O 0.47688 0.45412 0.58957 0.0
C686 C 0.15833 0.30967 0.90065 0.0
O687 O 0.14269 0.28986 0.90811 0.0
Cd688 Cd 0.14909 0.26739 0.86355 0.0
O689 O 0.17276 0.30602 0.87896 0.0
Cd690 Cd 0.16032 0.26051 0.85199 0.0
C691 C 0.16105 0.30787 0.81312 0.0
O692 O 0.10761 0.2487 0.85028 0.0
O693 O 0.13257 0.24294 0.81351 0.0
O694 O 0.17804 0.2219 0.88163 0.0
C695 C 0.10906 0.24106 0.82508 0.0
O696 O 0.14392 0.309 0.83294 0.0
C697 C 0.19255 0.2126 0.8616 0.0
O698 O 0.17731 0.28723 0.81233 0.0
O699 O 0.19362 0.22686 0.83953 0.0
C700 C 0.33811 0.90832 0.15069 0.0
O701 O 0.35793 0.89268 0.15814 0.0
Cd702 Cd 0.38037 0.8991 0.11357 0.0
O703 O 0.34175 0.92275 0.129 0.0
Cd704 Cd 0.38725 0.91032 0.10202 0.0
C705 C 0.33987 0.91107 0.06316 0.0
O706 O 0.39906 0.85761 0.1003 0.0
O707 O 0.40481 0.88258 0.06352 0.0
O708 O 0.42586 0.92803 0.13167 0.0
C709 C 0.40668 0.85907 0.07508 0.0
O710 O 0.33876 0.89394 0.08298 0.0
C711 C 0.43516 0.94255 0.11165 0.0
O712 O 0.36052 0.92733 0.06236 0.0
O713 O 0.4209 0.94363 0.08958 0.0
C714 C 0.73944 0.08811 0.40065 0.0
O715 O 0.75508 0.10792 0.40811 0.0
Cd716 Cd 0.74868 0.13038 0.36354 0.0
O717 O 0.72501 0.09176 0.37896 0.0
Cd718 Cd 0.73745 0.13727 0.35199 0.0
C719 C 0.73671 0.0899 0.31312 0.0
O720 O 0.79017 0.14907 0.35028 0.0
O721 O 0.76521 0.15483 0.31351 0.0
O722 O 0.71973 0.17588 0.38163 0.0
C723 C 0.78871 0.15671 0.32508 0.0
O724 O 0.75384 0.08878 0.33294 0.0
C725 C 0.70523 0.18517 0.36161 0.0
O726 O 0.72045 0.11055 0.31233 0.0
O727 O 0.70415 0.17092 0.33953 0.0
C728 C 0.55968 0.40838 0.24705 0.0
O729 O 0.53986 0.39274 0.2396 0.0
Cd730 Cd 0.5174 0.39911 0.28416 0.0
O731 O 0.55602 0.42278 0.26875 0.0
Cd732 Cd 0.51051 0.41032 0.29572 0.0
C733 C 0.55789 0.41105 0.33459 0.0
O734 O 0.49872 0.35761 0.29741 0.0
O735 O 0.49294 0.38256 0.33419 0.0
O736 O 0.47191 0.42804 0.26607 0.0
C737 C 0.49107 0.35905 0.32261 0.0
O738 O 0.55901 0.39394 0.31476 0.0
C739 C 0.46261 0.44255 0.28609 0.0
O740 O 0.53723 0.4273 0.3354 0.0
O741 O 0.47687 0.44362 0.30817 0.0
C742 C 0.23943 0.30967 0.49701 0.0
O743 O 0.25507 0.28986 0.48956 0.0
Cd744 Cd 0.24868 0.26738 0.53411 0.0
O745 O 0.22501 0.306 0.51871 0.0
Cd746 Cd 0.23746 0.26049 0.54567 0.0
C747 C 0.23672 0.30785 0.58454 0.0
O748 O 0.29017 0.24869 0.54737 0.0
O749 O 0.26522 0.24293 0.58415 0.0
O750 O 0.21974 0.22188 0.51602 0.0
C751 C 0.28872 0.24106 0.57258 0.0
O752 O 0.25385 0.30898 0.56472 0.0
C753 C 0.20524 0.21258 0.53605 0.0
O754 O 0.22046 0.28721 0.58534 0.0
O755 O 0.20416 0.22684 0.55812 0.0
C756 C 0.3381 -0.0106 0.74704 0.0
O757 O 0.35792 0.00503 0.73959 0.0
Cd758 Cd 0.38038 -0.00135 0.78416 0.0
O759 O 0.34176 -0.02501 0.76874 0.0
Cd760 Cd 0.38727 -0.01256 0.79571 0.0
C761 C 0.33989 -0.01328 0.83458 0.0
O762 O 0.39906 0.04015 0.7974 0.0
O763 O 0.40483 0.0152 0.83419 0.0
O764 O 0.42587 -0.03028 0.76607 0.0
C765 C 0.40671 0.03871 0.82261 0.0
O766 O 0.33877 0.00383 0.81475 0.0
C767 C 0.43517 -0.04478 0.78609 0.0
O768 O 0.36054 -0.02953 0.83539 0.0
O769 O 0.42091 -0.04586 0.80817 0.0
C770 C 0.65833 0.08809 -0.00298 0.0
O771 O 0.64268 0.10789 -0.01044 0.0
Cd772 Cd 0.64906 0.13039 0.03411 0.0
O773 O 0.67274 0.09177 0.01872 0.0
Cd774 Cd 0.66029 0.13729 0.04567 0.0
C775 C 0.66102 0.08993 0.08455 0.0
O776 O 0.60757 0.14908 0.04736 0.0
O777 O 0.63253 0.15486 0.08414 0.0
O778 O 0.67801 0.17589 0.01602 0.0
C779 C 0.60902 0.15673 0.07257 0.0
O780 O 0.6439 0.0888 0.06472 0.0
C781 C 0.69251 0.18519 0.03604 0.0
O782 O 0.67728 0.11058 0.08534 0.0
O783 O 0.69358 0.17094 0.05812 0.0
C784 C 0.65072 0.05965 -0.01058 0.0
O785 O 0.65818 0.03985 0.00507 0.0
Cd786 Cd 0.61363 0.01736 -0.00133 0.0
O787 O 0.62903 0.05598 -0.02501 0.0
Cd788 Cd 0.60207 0.01047 -0.01256 0.0
C789 C 0.5632 0.05784 -0.01331 0.0
O790 O 0.60036 -0.00132 0.04015 0.0
O791 O 0.56358 -0.00709 0.01519 0.0
O792 O 0.63172 -0.02814 -0.03027 0.0
C793 C 0.57515 -0.00896 0.0387 0.0
O794 O 0.58302 0.05897 0.00382 0.0
C795 C 0.61169 -0.03744 -0.04477 0.0
O796 O 0.5624 0.03719 -0.02956 0.0
O797 O 0.58961 -0.02318 -0.04585 0.0
C798 C 0.58811 0.40077 0.23941 0.0
O799 O 0.60792 0.40822 0.25505 0.0
Cd800 Cd 0.63039 0.36366 0.24863 0.0
O801 O 0.59176 0.37908 0.22498 0.0
Cd802 Cd 0.63727 0.3521 0.2374 0.0
C803 C 0.5899 0.31324 0.23666 0.0
O804 O 0.64908 0.35038 0.2901 0.0
O805 O 0.65483 0.3136 0.26514 0.0
O806 O 0.67588 0.38175 0.21968 0.0
C807 C 0.65671 0.32517 0.28864 0.0
O808 O 0.58878 0.33305 0.25379 0.0
C809 C 0.68517 0.36172 0.20517 0.0
O810 O 0.61054 0.31244 0.22039 0.0
O811 O 0.67091 0.33965 0.20409 0.0
C812 C 0.24705 0.33811 0.4894 0.0
O813 O 0.23959 0.35791 0.50504 0.0
Cd814 Cd 0.28416 0.38038 0.49864 0.0
O815 O 0.26874 0.34176 0.47497 0.0
Cd816 Cd 0.29572 0.38727 0.48742 0.0
C817 C 0.33458 0.3399 0.48668 0.0
O818 O 0.29743 0.39906 0.54013 0.0
O819 O 0.33421 0.40483 0.51517 0.0
O820 O 0.26607 0.42588 0.46971 0.0
C821 C 0.32264 0.4067 0.53868 0.0
O822 O 0.31476 0.33877 0.5038 0.0
C823 C 0.28609 0.43518 0.4552 0.0
O824 O 0.33539 0.36055 0.47042 0.0
O825 O 0.30817 0.42092 0.45413 0.0
C826 C 0.30967 -0.00299 0.73941 0.0
O827 O 0.28986 -0.01044 0.75504 0.0
Cd828 Cd 0.26739 0.03412 0.74862 0.0
O829 O 0.30602 0.0187 0.72497 0.0
Cd830 Cd 0.26051 0.04568 0.73739 0.0
C831 C 0.30788 0.08454 0.73666 0.0
O832 O 0.2487 0.0474 0.7901 0.0
O833 O 0.24295 0.08418 0.76513 0.0
O834 O 0.2219 0.01603 0.71968 0.0
C835 C 0.24107 0.07261 0.78864 0.0
O836 O 0.309 0.06473 0.75379 0.0
C837 C 0.21261 0.03605 0.70516 0.0
O838 O 0.28724 0.08534 0.72039 0.0
O839 O 0.22687 0.05813 0.70408 0.0
C840 C 0.65072 0.83807 0.90831 0.0
O841 O 0.65818 0.85789 0.89268 0.0
Cd842 Cd 0.61361 0.88035 0.89909 0.0
O843 O 0.62903 0.84171 0.92273 0.0
Cd844 Cd 0.60205 0.88723 0.91031 0.0
C845 C 0.56318 0.83985 0.91103 0.0
O846 O 0.60035 0.89904 0.85761 0.0
O847 O 0.56357 0.90481 0.88257 0.0
O848 O 0.63171 0.92582 0.92804 0.0
C849 C 0.57514 0.90669 0.85907 0.0
O850 O 0.58301 0.83874 0.89391 0.0
C851 C 0.61169 0.93512 0.94255 0.0
O852 O 0.56238 0.86049 0.92729 0.0
O853 O 0.58961 0.92086 0.94363 0.0
C854 C 0.80967 0.40075 0.15825 0.0
O855 O 0.78986 0.40821 0.14262 0.0
Cd856 Cd 0.76739 0.36364 0.14904 0.0
O857 O 0.80602 0.37906 0.17268 0.0
Cd858 Cd 0.7605 0.35209 0.16026 0.0
C859 C 0.80788 0.31321 0.16099 0.0
O860 O 0.74869 0.35038 0.10755 0.0
O861 O 0.74294 0.31359 0.13251 0.0
O862 O 0.7219 0.38174 0.17798 0.0
C863 C 0.74106 0.32516 0.10901 0.0
O864 O 0.80899 0.33303 0.14386 0.0
C865 C 0.71261 0.36172 0.19249 0.0
O866 O 0.78723 0.31242 0.17725 0.0
O867 O 0.72686 0.33964 0.19356 0.0
C868 C 0.24705 0.55967 0.4083 0.0
O869 O 0.23959 0.53986 0.39267 0.0
Cd870 Cd 0.28417 0.5174 0.39908 0.0
O871 O 0.26874 0.55603 0.42273 0.0
Cd872 Cd 0.29572 0.51052 0.4103 0.0
C873 C 0.33459 0.5579 0.41102 0.0
O874 O 0.29743 0.49871 0.3576 0.0
O875 O 0.33421 0.49295 0.38256 0.0
O876 O 0.26607 0.47192 0.42802 0.0
C877 C 0.32264 0.49106 0.35905 0.0
O878 O 0.31476 0.55901 0.3939 0.0
C879 C 0.28609 0.46262 0.44253 0.0
O880 O 0.33539 0.53725 0.42728 0.0
O881 O 0.30817 0.47688 0.44361 0.0
C882 C 0.0881 -0.00298 0.65825 0.0
O883 O 0.10791 -0.01044 0.64262 0.0
Cd884 Cd 0.13038 0.03412 0.64903 0.0
O885 O 0.09176 0.01871 0.67269 0.0
Cd886 Cd 0.13727 0.04568 0.66026 0.0
C887 C 0.0899 0.08455 0.661 0.0
O888 O 0.14908 0.04739 0.60755 0.0
O889 O 0.15483 0.08418 0.63251 0.0
O890 O 0.17587 0.01603 0.67798 0.0
C891 C 0.15671 0.0726 0.60901 0.0
O892 O 0.08878 0.06473 0.64387 0.0
C893 C 0.18517 0.03605 0.69248 0.0
O894 O 0.11054 0.08535 0.67726 0.0
O895 O 0.17092 0.05813 0.69356 0.0
C896 C -0.01055 0.15073 0.5596 0.0
O897 O 0.00509 0.1582 0.53981 0.0
Cd898 Cd -0.00132 0.11364 0.51732 0.0
O899 O -0.02499 0.12905 0.55594 0.0
Cd900 Cd -0.01255 0.10208 0.51043 0.0
C901 C -0.01328 0.06321 0.55779 0.0
O902 O 0.04017 0.10037 0.49863 0.0
O903 O 0.01521 0.06359 0.49288 0.0
O904 O -0.03026 0.13172 0.47183 0.0
C905 C 0.03871 0.07516 0.49101 0.0
O906 O 0.00385 0.08303 0.55892 0.0
C907 C -0.04477 0.11169 0.46253 0.0
O908 O -0.02955 0.06241 0.53715 0.0
O909 O -0.04584 0.08962 0.47679 0.0
C910 C 0.48942 0.74705 0.83804 0.0
O911 O 0.50506 0.73958 0.85784 0.0
Cd912 Cd 0.49866 0.78413 0.88033 0.0
O913 O 0.475 0.76874 0.8417 0.0
Cd914 Cd 0.48744 0.7957 0.88722 0.0
C915 C 0.48672 0.83457 0.83985 0.0
O916 O 0.54015 0.79738 0.89903 0.0
O917 O 0.5152 0.83418 0.90478 0.0
O918 O 0.4697 0.76606 0.92582 0.0
C919 C 0.5387 0.8226 0.90666 0.0
O920 O 0.50385 0.81475 0.83874 0.0
C921 C 0.4552 0.78609 0.93511 0.0
O922 O 0.47046 0.83537 0.8605 0.0
O923 O 0.45414 0.80817 0.92085 0.0
C924 C 0.9007 0.23942 0.08804 0.0
O925 O 0.90815 0.25506 0.10784 0.0
Cd926 Cd 0.86359 0.24868 0.13032 0.0
O927 O 0.879 0.22501 0.0917 0.0
Cd928 Cd 0.85203 0.23746 0.13721 0.0
C929 C 0.81316 0.23672 0.08985 0.0
O930 O 0.85034 0.29018 0.149 0.0
O931 O 0.81355 0.26523 0.15477 0.0
O932 O 0.88169 0.21975 0.17581 0.0
C933 C 0.82513 0.28873 0.15663 0.0
O934 O 0.83298 0.25385 0.08872 0.0
C935 C 0.86166 0.20524 0.18511 0.0
O936 O 0.81236 0.22047 0.1105 0.0
O937 O 0.83958 0.20417 0.17086 0.0
C938 C 0.40834 0.65072 0.33804 0.0
O939 O 0.3927 0.65818 0.35784 0.0
Cd940 Cd 0.3991 0.61363 0.38033 0.0
O941 O 0.42277 0.62903 0.34171 0.0
Cd942 Cd 0.41033 0.60206 0.38722 0.0
C943 C 0.41105 0.56319 0.33985 0.0
O944 O 0.35762 0.60037 0.39903 0.0
O945 O 0.38257 0.56358 0.40477 0.0
O946 O 0.42806 0.6317 0.42582 0.0
C947 C 0.35907 0.57515 0.40665 0.0
O948 O 0.39392 0.58301 0.33874 0.0
C949 C 0.44256 0.61167 0.43511 0.0
O950 O 0.42731 0.56239 0.36049 0.0
O951 O 0.44363 0.58959 0.42085 0.0
C952 C 0.49701 0.65835 0.58803 0.0
O953 O 0.48956 0.64272 0.60784 0.0
Cd954 Cd 0.53412 0.64914 0.63031 0.0
O955 O 0.5187 0.67279 0.59168 0.0
Cd956 Cd 0.54568 0.66037 0.63719 0.0
C957 C 0.58455 0.66108 0.58982 0.0
O958 O 0.54738 0.60766 0.64902 0.0
O959 O 0.58417 0.63262 0.65475 0.0
O960 O 0.51603 0.67809 0.67579 0.0
C961 C 0.5726 0.60912 0.65664 0.0
O962 O 0.56472 0.64395 0.58871 0.0
C963 C 0.53606 0.69261 0.68508 0.0
O964 O 0.58535 0.67735 0.61046 0.0
O965 O 0.55814 0.69368 0.67082 0.0
C966 C 0.90833 0.74705 0.55961 0.0
O967 O 0.89269 0.7396 0.5398 0.0
Cd968 Cd 0.89908 0.78416 0.51732 0.0
O969 O 0.92275 0.76875 0.55594 0.0
Cd970 Cd 0.9103 0.79572 0.51043 0.0
C971 C 0.91104 0.83459 0.55778 0.0
O972 O 0.85758 0.79741 0.49864 0.0
O973 O 0.88254 0.8342 0.49288 0.0
O974 O 0.92801 0.76606 0.47182 0.0
C975 C 0.85903 0.82263 0.49101 0.0
O976 O 0.89392 0.81477 0.55891 0.0
C977 C 0.94251 0.78609 0.46252 0.0
O978 O 0.9273 0.83539 0.53714 0.0
O979 O 0.94359 0.80817 0.47677 0.0
C980 C 0.90073 0.15835 0.3096 0.0
O981 O 0.90818 0.14271 0.28979 0.0
Cd982 Cd 0.86361 0.14912 0.26733 0.0
O983 O 0.87903 0.17278 0.30595 0.0
Cd984 Cd 0.85205 0.16034 0.26045 0.0
C985 C 0.81319 0.16107 0.30782 0.0
O986 O 0.85035 0.10763 0.24865 0.0
O987 O 0.81356 0.13259 0.2429 0.0
O988 O 0.8817 0.17806 0.22184 0.0
C989 C 0.82513 0.10908 0.24102 0.0
O990 O 0.83301 0.14394 0.30894 0.0
C991 C 0.86167 0.19256 0.21255 0.0
O992 O 0.81239 0.17733 0.28718 0.0
O993 O 0.83959 0.19364 0.22681 0.0
C994 C -0.00296 0.23941 0.8096 0.0
O995 O -0.01041 0.25505 0.7898 0.0
Cd996 Cd 0.03416 0.24865 0.76734 0.0
O997 O 0.01874 0.22499 0.80596 0.0
Cd998 Cd 0.04572 0.23743 0.76045 0.0
C999 C 0.08458 0.2367 0.80782 0.0
O1000 O 0.04742 0.29014 0.74865 0.0
O1001 O 0.08421 0.26518 0.7429 0.0
O1002 O 0.01607 0.2197 0.72185 0.0
C1003 C 0.07263 0.28869 0.74102 0.0
O1004 O 0.06476 0.25383 0.80894 0.0
C1005 C 0.0361 0.2052 0.71255 0.0
O1006 O 0.08539 0.22044 0.78718 0.0
O1007 O 0.05818 0.20412 0.72681 0.0
C1008 C 0.55965 -0.01055 0.1507 0.0
O1009 O 0.53984 0.00508 0.15815 0.0
Cd1010 Cd 0.51739 -0.00134 0.11358 0.0
O1011 O 0.55601 -0.02498 0.12901 0.0
Cd1012 Cd 0.51051 -0.01256 0.10202 0.0
C1013 C 0.55788 -0.01331 0.06317 0.0
O1014 O 0.4987 0.04015 0.1003 0.0
O1015 O 0.49296 0.01518 0.06352 0.0
O1016 O 0.4719 -0.03027 0.13167 0.0
C1017 C 0.49108 0.03869 0.07509 0.0
O1018 O 0.559 0.00382 0.08299 0.0
C1019 C 0.4626 -0.04478 0.11165 0.0
O1020 O 0.53724 -0.02957 0.06237 0.0
O1021 O 0.47686 -0.04587 0.08958 0.0
C1022 C 0.15832 0.80966 0.40066 0.0
O1023 O 0.14268 0.78986 0.40812 0.0
Cd1024 Cd 0.14909 0.76738 0.36356 0.0
O1025 O 0.17275 0.806 0.37898 0.0
Cd1026 Cd 0.16031 0.76049 0.35201 0.0
C1027 C 0.16105 0.80786 0.31314 0.0
O1028 O 0.1076 0.74869 0.3503 0.0
O1029 O 0.13256 0.74293 0.31352 0.0
O1030 O 0.17803 0.72189 0.38165 0.0
C1031 C 0.10906 0.74105 0.32509 0.0
O1032 O 0.14392 0.80898 0.33296 0.0
C1033 C 0.19254 0.71259 0.36163 0.0
O1034 O 0.17731 0.78721 0.31234 0.0
O1035 O 0.19362 0.72685 0.33955 0.0
C1036 C 0.33811 0.40831 0.65068 0.0
O1037 O 0.35792 0.39268 0.65813 0.0
Cd1038 Cd 0.38038 0.39908 0.61357 0.0
O1039 O 0.34176 0.42274 0.62899 0.0
Cd1040 Cd 0.38727 0.4103 0.60201 0.0
C1041 C 0.3399 0.41105 0.56315 0.0
O1042 O 0.39907 0.35759 0.6003 0.0
O1043 O 0.40482 0.38255 0.56352 0.0
O1044 O 0.42587 0.42801 0.63166 0.0
C1045 C 0.40669 0.35905 0.57509 0.0
O1046 O 0.33877 0.39392 0.58297 0.0
C1047 C 0.43517 0.44252 0.61164 0.0
O1048 O 0.36054 0.42731 0.56235 0.0
O1049 O 0.42092 0.4436 0.58956 0.0
C1050 C 0.73944 0.5881 0.90067 0.0
O1051 O 0.75508 0.6079 0.90812 0.0
Cd1052 Cd 0.74868 0.63037 0.86356 0.0
O1053 O 0.72501 0.59175 0.87898 0.0
Cd1054 Cd 0.73745 0.63726 0.852 0.0
C1055 C 0.73671 0.58989 0.81314 0.0
O1056 O 0.79016 0.64906 0.85029 0.0
O1057 O 0.7652 0.65483 0.81352 0.0
O1058 O 0.71973 0.67587 0.88165 0.0
C1059 C 0.78871 0.65671 0.82508 0.0
O1060 O 0.75384 0.58877 0.83296 0.0
C1061 C 0.70522 0.68516 0.86162 0.0
O1062 O 0.72045 0.61054 0.81234 0.0
O1063 O 0.70414 0.6709 0.83955 0.0
C1064 C 0.55969 0.90837 0.74705 0.0
O1065 O 0.53988 0.89274 0.7396 0.0
Cd1066 Cd 0.51741 0.89911 0.78416 0.0
O1067 O 0.55603 0.92278 0.76876 0.0
Cd1068 Cd 0.51052 0.91033 0.79572 0.0
C1069 C 0.55788 0.91105 0.83459 0.0
O1070 O 0.49873 0.85761 0.7974 0.0
O1071 O 0.49296 0.88256 0.83419 0.0
O1072 O 0.47192 0.92804 0.76607 0.0
C1073 C 0.49109 0.85906 0.82261 0.0
O1074 O 0.55901 0.89393 0.81476 0.0
C1075 C 0.46261 0.94254 0.7861 0.0
O1076 O 0.53724 0.92731 0.8354 0.0
O1077 O 0.47686 0.94361 0.80818 0.0
C1078 C 0.23943 0.80968 -0.00298 0.0
O1079 O 0.25507 0.78987 -0.01043 0.0
Cd1080 Cd 0.24869 0.76738 0.03412 0.0
O1081 O 0.22501 0.806 0.01872 0.0
Cd1082 Cd 0.23747 0.76048 0.04567 0.0
C1083 C 0.23674 0.80784 0.08455 0.0
O1084 O 0.29019 0.74869 0.04736 0.0
O1085 O 0.26524 0.74293 0.08415 0.0
O1086 O 0.21975 0.72188 0.01603 0.0
C1087 C 0.28874 0.74106 0.07257 0.0
O1088 O 0.25386 0.80897 0.06473 0.0
C1089 C 0.20526 0.71258 0.03606 0.0
O1090 O 0.22048 0.78719 0.08535 0.0
O1091 O 0.20419 0.72683 0.05814 0.0
C1092 C 0.33809 0.48939 0.24704 0.0
O1093 O 0.3579 0.50502 0.23959 0.0
Cd1094 Cd 0.38037 0.49865 0.28415 0.0
O1095 O 0.34175 0.47498 0.26874 0.0
Cd1096 Cd 0.38726 0.48744 0.29571 0.0
C1097 C 0.3399 0.48671 0.33458 0.0
O1098 O 0.39905 0.54015 0.29739 0.0
O1099 O 0.40482 0.51521 0.33418 0.0
O1100 O 0.42587 0.46972 0.26606 0.0
C1101 C 0.40668 0.53871 0.3226 0.0
O1102 O 0.33877 0.50383 0.31475 0.0
C1103 C 0.43517 0.45522 0.28609 0.0
O1104 O 0.36054 0.47045 0.33538 0.0
O1105 O 0.42092 0.45415 0.30817 0.0
C1106 C 0.65834 0.58809 0.49702 0.0
O1107 O 0.6427 0.60789 0.48957 0.0
Cd1108 Cd 0.64907 0.63039 0.53412 0.0
O1109 O 0.67275 0.59177 0.51872 0.0
Cd1110 Cd 0.66029 0.63728 0.54567 0.0
C1111 C 0.66103 0.58993 0.58455 0.0
O1112 O 0.60758 0.64908 0.54736 0.0
O1113 O 0.63253 0.65485 0.58415 0.0
O1114 O 0.67802 0.67588 0.51602 0.0
C1115 C 0.60903 0.65671 0.57257 0.0
O1116 O 0.6439 0.58879 0.56473 0.0
C1117 C 0.69252 0.68518 0.53605 0.0
O1118 O 0.67729 0.61057 0.58535 0.0
O1119 O 0.69359 0.67093 0.55813 0.0
C1120 C 0.65073 0.55965 0.48941 0.0
O1121 O 0.65819 0.53985 0.50506 0.0
Cd1122 Cd 0.61363 0.51737 0.49866 0.0
O1123 O 0.62904 0.55598 0.47499 0.0
Cd1124 Cd 0.60207 0.51047 0.48744 0.0
C1125 C 0.5632 0.55784 0.48669 0.0
O1126 O 0.60037 0.49869 0.54015 0.0
O1127 O 0.56358 0.49293 0.51519 0.0
O1128 O 0.63172 0.47187 0.46972 0.0
C1129 C 0.57515 0.49106 0.5387 0.0
O1130 O 0.58302 0.55897 0.50382 0.0
C1131 C 0.61169 0.46257 0.45522 0.0
O1132 O 0.5624 0.5372 0.47043 0.0
O1133 O 0.58961 0.47682 0.45415 0.0
C1134 C 0.58813 0.90076 0.73942 0.0
O1135 O 0.60793 0.90821 0.75506 0.0
Cd1136 Cd 0.6304 0.86364 0.74864 0.0
O1137 O 0.59177 0.87907 0.72499 0.0
Cd1138 Cd 0.63728 0.85208 0.73741 0.0
C1139 C 0.5899 0.81323 0.73667 0.0
O1140 O 0.64909 0.85037 0.79011 0.0
O1141 O 0.65483 0.81358 0.76515 0.0
O1142 O 0.67589 0.88173 0.71969 0.0
C1143 C 0.65671 0.82515 0.78866 0.0
O1144 O 0.58879 0.83304 0.7538 0.0
C1145 C 0.68518 0.8617 0.70518 0.0
O1146 O 0.61054 0.81243 0.7204 0.0
O1147 O 0.67092 0.83963 0.7041 0.0
C1148 C 0.24703 0.83812 -0.01059 0.0
O1149 O 0.23957 0.85791 0.00506 0.0
Cd1150 Cd 0.28413 0.8804 -0.00134 0.0
O1151 O 0.26872 0.84178 -0.02502 0.0
Cd1152 Cd 0.29569 0.88729 -0.01257 0.0
C1153 C 0.33456 0.83992 -0.01332 0.0
O1154 O 0.2974 0.89908 0.04014 0.0
O1155 O 0.33418 0.90484 0.01518 0.0
O1156 O 0.26605 0.9259 -0.03029 0.0
C1157 C 0.32261 0.90671 0.03869 0.0
O1158 O 0.31474 0.83879 0.00381 0.0
C1159 C 0.28608 0.9352 -0.04479 0.0
O1160 O 0.33536 0.86057 -0.02957 0.0
O1161 O 0.30815 0.92094 -0.04586 0.0
C1162 C 0.30966 0.497 0.23941 0.0
O1163 O 0.28985 0.48955 0.25505 0.0
Cd1164 Cd 0.26738 0.53412 0.24863 0.0
O1165 O 0.30601 0.51869 0.22498 0.0
Cd1166 Cd 0.2605 0.54567 0.23741 0.0
C1167 C 0.30787 0.58454 0.23667 0.0
O1168 O 0.24869 0.54739 0.29011 0.0
O1169 O 0.24294 0.58417 0.26515 0.0
O1170 O 0.22189 0.51602 0.21969 0.0
C1171 C 0.24106 0.57261 0.28865 0.0
O1172 O 0.30899 0.56472 0.2538 0.0
C1173 C 0.2126 0.53605 0.20518 0.0
O1174 O 0.28723 0.58533 0.2204 0.0
O1175 O 0.22686 0.55812 0.2041 0.0
C1176 C 0.65073 0.33808 0.4083 0.0
O1177 O 0.65819 0.3579 0.39268 0.0
Cd1178 Cd 0.61362 0.38035 0.39909 0.0
O1179 O 0.62904 0.34172 0.42273 0.0
Cd1180 Cd 0.60206 0.38723 0.41031 0.0
C1181 C 0.56319 0.33985 0.41103 0.0
O1182 O 0.60036 0.39905 0.35761 0.0
O1183 O 0.56357 0.4048 0.38256 0.0
O1184 O 0.63171 0.42583 0.42803 0.0
C1185 C 0.57514 0.40668 0.35906 0.0
O1186 O 0.58302 0.33875 0.3939 0.0
C1187 C 0.61169 0.43513 0.44254 0.0
O1188 O 0.56239 0.3605 0.42729 0.0
O1189 O 0.58961 0.42087 0.44362 0.0
C1190 C 0.80967 0.90074 0.65827 0.0
O1191 O 0.78986 0.90819 0.64265 0.0
Cd1192 Cd 0.7674 0.86362 0.64905 0.0
O1193 O 0.80603 0.87904 0.6727 0.0
Cd1194 Cd 0.76052 0.85206 0.66027 0.0
C1195 C 0.80789 0.8132 0.661 0.0
O1196 O 0.74871 0.85036 0.60757 0.0
O1197 O 0.74296 0.81357 0.63252 0.0
O1198 O 0.72192 0.88172 0.67799 0.0
C1199 C 0.74108 0.82515 0.60902 0.0
O1200 O 0.809 0.83302 0.64388 0.0
C1201 C 0.71262 0.8617 0.6925 0.0
O1202 O 0.78725 0.81239 0.67726 0.0
O1203 O 0.72687 0.83962 0.69357 0.0
C1204 C 0.24704 0.05969 0.90829 0.0
O1205 O 0.23959 0.03987 0.89267 0.0
Cd1206 Cd 0.28416 0.01741 0.89908 0.0
O1207 O 0.26874 0.05605 0.92272 0.0
Cd1208 Cd 0.29571 0.01053 0.9103 0.0
C1209 C 0.33458 0.05791 0.91102 0.0
O1210 O 0.29742 -0.00128 0.8576 0.0
O1211 O 0.33421 -0.00703 0.88256 0.0
O1212 O 0.26606 -0.02807 0.92802 0.0
C1213 C 0.32263 -0.00891 0.85905 0.0
O1214 O 0.31476 0.05902 0.8939 0.0
C1215 C 0.28608 -0.03736 0.94253 0.0
O1216 O 0.33538 0.03727 0.92728 0.0
O1217 O 0.30816 -0.02311 0.94361 0.0
C1218 C 0.0881 0.49702 0.15825 0.0
O1219 O 0.10791 0.48956 0.14262 0.0
Cd1220 Cd 0.13038 0.53412 0.14904 0.0
O1221 O 0.09175 0.51871 0.17269 0.0
Cd1222 Cd 0.13726 0.54568 0.16027 0.0
C1223 C 0.0899 0.58455 0.161 0.0
O1224 O 0.14908 0.54739 0.10756 0.0
O1225 O 0.15482 0.58417 0.13252 0.0
O1226 O 0.17586 0.51602 0.17799 0.0
C1227 C 0.1567 0.5726 0.10902 0.0
O1228 O 0.08878 0.56473 0.14387 0.0
C1229 C 0.18516 0.53605 0.19249 0.0
O1230 O 0.11054 0.58534 0.17726 0.0
O1231 O 0.17091 0.55813 0.19357 0.0
C1232 C -0.01055 0.65073 0.0596 0.0
O1233 O 0.00509 0.65819 0.0398 0.0
Cd1234 Cd -0.00131 0.61364 0.01732 0.0
O1235 O -0.02498 0.62904 0.05594 0.0
Cd1236 Cd -0.01254 0.60208 0.01043 0.0
C1237 C -0.01328 0.5632 0.05778 0.0
O1238 O 0.04017 0.60038 -0.00137 0.0
O1239 O 0.01522 0.56359 -0.00712 0.0
O1240 O -0.03026 0.63172 -0.02818 0.0
C1241 C 0.03872 0.57516 -0.009 0.0
O1242 O 0.00385 0.58302 0.05891 0.0
C1243 C -0.04476 0.61169 -0.03748 0.0
O1244 O -0.02954 0.56241 0.03714 0.0
O1245 O -0.04583 0.58961 -0.02322 0.0
C1246 C 0.48943 0.24705 0.33804 0.0
O1247 O 0.50508 0.23958 0.35784 0.0
Cd1248 Cd 0.49868 0.28413 0.38033 0.0
O1249 O 0.47501 0.26874 0.34171 0.0
Cd1250 Cd 0.48745 0.2957 0.38722 0.0
C1251 C 0.48672 0.33457 0.33987 0.0
O1252 O 0.54016 0.29739 0.39902 0.0
O1253 O 0.51521 0.33418 0.40478 0.0
O1254 O 0.46972 0.26605 0.42582 0.0
C1255 C 0.53871 0.3226 0.40666 0.0
O1256 O 0.50385 0.31475 0.33874 0.0
C1257 C 0.45522 0.28608 0.43512 0.0
O1258 O 0.47046 0.33537 0.36051 0.0
O1259 O 0.45415 0.30816 0.42087 0.0
C1260 C 0.90072 0.73944 0.58804 0.0
O1261 O 0.90818 0.75508 0.60784 0.0
Cd1262 Cd 0.86362 0.74868 0.63032 0.0
O1263 O 0.87902 0.72501 0.5917 0.0
Cd1264 Cd 0.85205 0.73745 0.63721 0.0
C1265 C 0.81318 0.73672 0.58985 0.0
O1266 O 0.85036 0.79017 0.64901 0.0
O1267 O 0.81357 0.76521 0.65476 0.0
O1268 O 0.8817 0.71973 0.67581 0.0
C1269 C 0.82514 0.78872 0.65664 0.0
O1270 O 0.83301 0.75385 0.58872 0.0
C1271 C 0.86167 0.70522 0.68511 0.0
O1272 O 0.81238 0.72046 0.61049 0.0
O1273 O 0.83959 0.70415 0.67085 0.0
C1274 C 0.40835 0.15072 0.83804 0.0
O1275 O 0.3927 0.15818 0.85784 0.0
Cd1276 Cd 0.3991 0.11363 0.88033 0.0
O1277 O 0.42277 0.12903 0.84171 0.0
Cd1278 Cd 0.41033 0.10206 0.88722 0.0
C1279 C 0.41106 0.06319 0.83986 0.0
O1280 O 0.35762 0.10038 0.89902 0.0
O1281 O 0.38257 0.06358 0.90477 0.0
O1282 O 0.42806 0.13171 0.92582 0.0
C1283 C 0.35906 0.07516 0.90665 0.0
O1284 O 0.39393 0.08301 0.83874 0.0
C1285 C 0.44256 0.11167 0.93512 0.0
O1286 O 0.42732 0.06239 0.8605 0.0
O1287 O 0.44363 0.08959 0.92086 0.0
C1288 C 0.49701 0.15835 0.08803 0.0
O1289 O 0.48956 0.14272 0.10784 0.0
Cd1290 Cd 0.53412 0.14914 0.13031 0.0
O1291 O 0.5187 0.17279 0.09168 0.0
Cd1292 Cd 0.54568 0.16037 0.13719 0.0
C1293 C 0.58454 0.16109 0.08983 0.0
O1294 O 0.54739 0.10766 0.14902 0.0
O1295 O 0.58417 0.13262 0.15475 0.0
O1296 O 0.51604 0.1781 0.17579 0.0
C1297 C 0.5726 0.10912 0.15664 0.0
O1298 O 0.56472 0.14395 0.08871 0.0
C1299 C 0.53606 0.19261 0.18508 0.0
O1300 O 0.58534 0.17736 0.11046 0.0
O1301 O 0.55814 0.19368 0.17082 0.0
C1302 C 0.90832 0.24703 0.0596 0.0
O1303 O 0.89268 0.23957 0.0398 0.0
Cd1304 Cd 0.89909 0.28413 0.01732 0.0
O1305 O 0.92275 0.26872 0.05594 0.0
Cd1306 Cd 0.91031 0.29569 0.01043 0.0
C1307 C 0.91105 0.33456 0.05779 0.0
O1308 O 0.8576 0.29739 -0.00137 0.0
O1309 O 0.88256 0.33418 -0.00712 0.0
O1310 O 0.92803 0.26604 -0.02817 0.0
C1311 C 0.85905 0.3226 -0.009 0.0
O1312 O 0.89392 0.31474 0.05892 0.0
C1313 C 0.94253 0.28607 -0.03747 0.0
O1314 O 0.92731 0.33536 0.03715 0.0
O1315 O 0.94361 0.30814 -0.02321 0.0
C1316 C 0.90072 0.65835 0.8096 0.0
O1317 O 0.90817 0.64271 0.78979 0.0
Cd1318 Cd 0.8636 0.64911 0.76733 0.0
O1319 O 0.87902 0.67277 0.80595 0.0
Cd1320 Cd 0.85204 0.66033 0.76045 0.0
C1321 C 0.81318 0.66106 0.80782 0.0
O1322 O 0.85034 0.60762 0.74865 0.0
O1323 O 0.81355 0.63258 0.7429 0.0
O1324 O 0.88169 0.67804 0.72185 0.0
C1325 C 0.82512 0.60907 0.74103 0.0
O1326 O 0.83301 0.64394 0.80894 0.0
C1327 C 0.86167 0.69255 0.71255 0.0
O1328 O 0.81237 0.67732 0.78718 0.0
O1329 O 0.83959 0.69363 0.7268 0.0
C1330 C -0.00296 0.73941 0.3096 0.0
O1331 O -0.01041 0.75504 0.28979 0.0
Cd1332 Cd 0.03416 0.74864 0.26734 0.0
O1333 O 0.01874 0.72498 0.30596 0.0
Cd1334 Cd 0.04572 0.73742 0.26046 0.0
C1335 C 0.08458 0.73669 0.30783 0.0
O1336 O 0.04742 0.79013 0.24865 0.0
O1337 O 0.08421 0.76517 0.24291 0.0
O1338 O 0.01607 0.7197 0.22185 0.0
C1339 C 0.07264 0.78868 0.24103 0.0
O1340 O 0.06476 0.75382 0.30895 0.0
C1341 C 0.0361 0.7052 0.21256 0.0
O1342 O 0.08539 0.72043 0.28719 0.0
O1343 O 0.05818 0.70412 0.22681 0.0
loop_
_geom_bond_atom_site_label_1
_geom_bond_atom_site_label_2
_geom_bond_distance
_geom_bond_site_symmetry_2
_ccdc_geom_bond_type
C0 O1 1.306 . S
C0 O3 1.160 . S
O1 C0 1.306 . S
O1 Cd2 2.228 . S
Cd2 O1 2.228 . S
Cd2 O6 2.273 . S
Cd2 O10 2.277 . S
O3 C0 1.160 . S
O3 Cd4 2.203 . S
Cd4 O3 2.203 . S
Cd4 O6 2.411 . S
Cd4 O7 2.333 . S
Cd4 O8 2.352 . S
Cd4 O12 2.277 . S
Cd4 O13 2.356 . S
C5 O10 1.209 . S
C5 O12 1.226 . S
O6 Cd2 2.273 . S
O6 Cd4 2.411 . S
O6 C9 1.320 . S
O7 Cd4 2.333 . S
O7 C9 1.214 . S
O8 Cd4 2.352 . S
O8 C11 1.258 . S
C9 O6 1.320 . S
C9 O7 1.214 . S
O10 Cd2 2.277 . S
O10 C5 1.209 . S
C11 O8 1.258 . S
C11 O13 1.282 . S
O12 Cd4 2.277 . S
O12 C5 1.226 . S
O13 Cd4 2.356 . S
O13 C11 1.282 . S
C14 O15 1.306 . S
C14 O17 1.160 . S
O15 C14 1.306 . S
O15 Cd16 2.228 . S
Cd16 O15 2.228 . S
Cd16 O20 2.273 . S
Cd16 O24 2.277 . S
O17 C14 1.160 . S
O17 Cd18 2.203 . S
Cd18 O17 2.203 . S
Cd18 O20 2.411 . S
Cd18 O21 2.333 . S
Cd18 O22 2.352 . S
Cd18 O26 2.277 . S
Cd18 O27 2.356 . S
C19 O24 1.209 . S
C19 O26 1.226 . S
O20 Cd16 2.273 . S
O20 Cd18 2.411 . S
O20 C23 1.320 . S
O21 Cd18 2.333 . S
O21 C23 1.214 . S
O22 Cd18 2.352 . S
O22 C25 1.258 . S
C23 O20 1.320 . S
C23 O21 1.214 . S
O24 Cd16 2.277 . S
O24 C19 1.209 . S
C25 O22 1.258 . S
C25 O27 1.282 . S
O26 Cd18 2.277 . S
O26 C19 1.226 . S
O27 Cd18 2.356 . S
O27 C25 1.282 . S
C28 O29 1.306 . S
C28 O31 1.160 . S
O29 C28 1.306 . S
O29 Cd30 2.228 . S
Cd30 O29 2.228 . S
Cd30 O34 2.273 . S
Cd30 O38 2.277 . S
O31 C28 1.160 . S
O31 Cd32 2.203 . S
Cd32 O31 2.203 . S
Cd32 O34 2.411 . S
Cd32 O35 2.333 . S
Cd32 O36 2.352 . S
Cd32 O40 2.277 . S
Cd32 O41 2.356 1_565 S
C33 O38 1.209 . S
C33 O40 1.226 . S
O34 Cd30 2.273 . S
O34 Cd32 2.411 . S
O34 C37 1.320 . S
O35 Cd32 2.333 . S
O35 C37 1.214 . S
O36 Cd32 2.352 . S
O36 C39 1.258 1_565 S
C37 O34 1.320 . S
C37 O35 1.214 . S
O38 Cd30 2.277 . S
O38 C33 1.209 . S
C39 O36 1.258 1_545 S
C39 O41 1.282 . S
O40 Cd32 2.277 . S
O40 C33 1.226 . S
O41 Cd32 2.356 1_545 S
O41 C39 1.282 . S
C42 O43 1.306 . S
C42 O45 1.160 . S
O43 C42 1.306 . S
O43 Cd44 2.228 . S
Cd44 O43 2.228 . S
Cd44 O48 2.273 . S
Cd44 O52 2.277 . S
O45 C42 1.160 . S
O45 Cd46 2.203 . S
Cd46 O45 2.203 . S
Cd46 O48 2.411 . S
Cd46 O49 2.333 . S
Cd46 O50 2.352 . S
Cd46 O54 2.277 . S
Cd46 O55 2.356 . S
C47 O52 1.209 . S
C47 O54 1.226 . S
O48 Cd44 2.273 . S
O48 Cd46 2.411 . S
O48 C51 1.320 . S
O49 Cd46 2.333 . S
O49 C51 1.214 . S
O50 Cd46 2.352 . S
O50 C53 1.258 . S
C51 O48 1.320 . S
C51 O49 1.214 . S
O52 Cd44 2.277 . S
O52 C47 1.209 . S
C53 O50 1.258 . S
C53 O55 1.282 . S
O54 Cd46 2.277 . S
O54 C47 1.226 . S
O55 Cd46 2.356 . S
O55 C53 1.282 . S
C56 O57 1.306 . S
C56 O59 1.160 . S
O57 C56 1.306 . S
O57 Cd58 2.228 . S
Cd58 O57 2.228 . S
Cd58 O62 2.273 . S
Cd58 O66 2.277 . S
O59 C56 1.160 . S
O59 Cd60 2.203 . S
Cd60 O59 2.203 . S
Cd60 O62 2.411 . S
Cd60 O63 2.333 . S
Cd60 O64 2.352 . S
Cd60 O68 2.277 . S
Cd60 O69 2.356 . S
C61 O66 1.209 . S
C61 O68 1.226 . S
O62 Cd58 2.273 . S
O62 Cd60 2.411 . S
O62 C65 1.320 . S
O63 Cd60 2.333 . S
O63 C65 1.214 . S
O64 Cd60 2.352 . S
O64 C67 1.258 . S
C65 O62 1.320 . S
C65 O63 1.214 . S
O66 Cd58 2.277 . S
O66 C61 1.209 . S
C67 O64 1.258 . S
C67 O69 1.282 . S
O68 Cd60 2.277 . S
O68 C61 1.226 . S
O69 Cd60 2.356 . S
O69 C67 1.282 . S
C70 O71 1.306 . S
C70 O73 1.160 . S
O71 C70 1.306 . S
O71 Cd72 2.228 . S
Cd72 O71 2.228 . S
Cd72 O76 2.273 . S
Cd72 O80 2.277 . S
O73 C70 1.160 . S
O73 Cd74 2.203 . S
Cd74 O73 2.203 . S
Cd74 O76 2.411 . S
Cd74 O77 2.333 . S
Cd74 O78 2.352 . S
Cd74 O82 2.277 . S
Cd74 O83 2.356 . S
C75 O80 1.209 . S
C75 O82 1.226 . S
O76 Cd72 2.273 . S
O76 Cd74 2.411 . S
O76 C79 1.320 . S
O77 Cd74 2.333 . S
O77 C79 1.214 . S
O78 Cd74 2.352 . S
O78 C81 1.258 . S
C79 O76 1.320 . S
C79 O77 1.214 . S
O80 Cd72 2.277 . S
O80 C75 1.209 . S
C81 O78 1.258 . S
C81 O83 1.282 . S
O82 Cd74 2.277 . S
O82 C75 1.226 . S
O83 Cd74 2.356 . S
O83 C81 1.282 . S
C84 O85 1.306 . S
C84 O87 1.160 . S
O85 C84 1.306 . S
O85 Cd86 2.228 . S
Cd86 O85 2.228 . S
Cd86 O90 2.273 . S
Cd86 O94 2.277 . S
O87 C84 1.160 . S
O87 Cd88 2.203 . S
Cd88 O87 2.203 . S
Cd88 O90 2.411 . S
Cd88 O91 2.333 . S
Cd88 O92 2.352 . S
Cd88 O96 2.277 . S
Cd88 O97 2.356 1_545 S
C89 O94 1.209 . S
C89 O96 1.226 . S
O90 Cd86 2.273 . S
O90 Cd88 2.411 . S
O90 C93 1.320 . S
O91 Cd88 2.333 . S
O91 C93 1.214 . S
O92 Cd88 2.352 . S
O92 C95 1.258 1_545 S
C93 O90 1.320 . S
C93 O91 1.214 . S
O94 Cd86 2.277 . S
O94 C89 1.209 . S
C95 O92 1.258 1_565 S
C95 O97 1.282 . S
O96 Cd88 2.277 . S
O96 C89 1.226 . S
O97 Cd88 2.356 1_565 S
O97 C95 1.282 . S
C98 O99 1.306 . S
C98 O101 1.160 . S
O99 C98 1.306 . S
O99 Cd100 2.228 . S
Cd100 O99 2.228 . S
Cd100 O104 2.273 . S
Cd100 O108 2.277 . S
O101 C98 1.160 . S
O101 Cd102 2.203 . S
Cd102 O101 2.203 . S
Cd102 O104 2.411 . S
Cd102 O105 2.333 . S
Cd102 O106 2.352 . S
Cd102 O110 2.277 . S
Cd102 O111 2.356 . S
C103 O108 1.209 . S
C103 O110 1.226 . S
O104 Cd100 2.273 . S
O104 Cd102 2.411 . S
O104 C107 1.320 . S
O105 Cd102 2.333 . S
O105 C107 1.214 . S
O106 Cd102 2.352 . S
O106 C109 1.258 . S
C107 O104 1.320 . S
C107 O105 1.214 . S
O108 Cd100 2.277 . S
O108 C103 1.209 . S
C109 O106 1.258 . S
C109 O111 1.282 . S
O110 Cd102 2.277 . S
O110 C103 1.226 . S
O111 Cd102 2.356 . S
O111 C109 1.282 . S
C112 O113 1.306 . S
C112 O115 1.160 . S
O113 C112 1.306 . S
O113 Cd114 2.228 . S
Cd114 O113 2.228 . S
Cd114 O118 2.273 . S
Cd114 O122 2.277 . S
O115 C112 1.160 . S
O115 Cd116 2.203 . S
Cd116 O115 2.203 . S
Cd116 O118 2.411 . S
Cd116 O119 2.333 . S
Cd116 O120 2.352 . S
Cd116 O124 2.277 . S
Cd116 O125 2.356 . S
C117 O122 1.209 . S
C117 O124 1.226 . S
O118 Cd114 2.273 . S
O118 Cd116 2.411 . S
O118 C121 1.320 . S
O119 Cd116 2.333 . S
O119 C121 1.214 . S
O120 Cd116 2.352 . S
O120 C123 1.258 . S
C121 O118 1.320 . S
C121 O119 1.214 . S
O122 Cd114 2.277 . S
O122 C117 1.209 . S
C123 O120 1.258 . S
C123 O125 1.282 . S
O124 Cd116 2.277 . S
O124 C117 1.226 . S
O125 Cd116 2.356 . S
O125 C123 1.282 . S
C126 O127 1.306 . S
C126 O129 1.160 . S
O127 C126 1.306 . S
O127 Cd128 2.228 . S
Cd128 O127 2.228 . S
Cd128 O132 2.273 . S
Cd128 O136 2.277 . S
O129 C126 1.160 . S
O129 Cd130 2.203 . S
Cd130 O129 2.203 . S
Cd130 O132 2.411 . S
Cd130 O133 2.333 . S
Cd130 O134 2.352 . S
Cd130 O138 2.277 . S
Cd130 O139 2.356 . S
C131 O136 1.209 . S
C131 O138 1.226 . S
O132 Cd128 2.273 . S
O132 Cd130 2.411 . S
O132 C135 1.320 . S
O133 Cd130 2.333 . S
O133 C135 1.214 . S
O134 Cd130 2.352 . S
O134 C137 1.258 . S
C135 O132 1.320 . S
C135 O133 1.214 . S
O136 Cd128 2.277 . S
O136 C131 1.209 . S
C137 O134 1.258 . S
C137 O139 1.282 . S
O138 Cd130 2.277 . S
O138 C131 1.226 . S
O139 Cd130 2.356 . S
O139 C137 1.282 . S
C140 O141 1.306 . S
C140 O143 1.160 . S
O141 C140 1.306 . S
O141 Cd142 2.228 . S
Cd142 O141 2.228 . S
Cd142 O146 2.273 . S
Cd142 O150 2.277 . S
O143 C140 1.160 . S
O143 Cd144 2.203 . S
Cd144 O143 2.203 . S
Cd144 O146 2.411 . S
Cd144 O147 2.333 . S
Cd144 O148 2.352 . S
Cd144 O152 2.277 . S
Cd144 O153 2.356 1_554 S
C145 O150 1.209 . S
C145 O152 1.226 . S
O146 Cd142 2.273 . S
O146 Cd144 2.411 . S
O146 C149 1.320 . S
O147 Cd144 2.333 . S
O147 C149 1.214 . S
O148 Cd144 2.352 . S
O148 C151 1.258 1_554 S
C149 O146 1.320 . S
C149 O147 1.214 . S
O150 Cd142 2.277 . S
O150 C145 1.209 . S
C151 O148 1.258 1_556 S
C151 O153 1.282 . S
O152 Cd144 2.277 . S
O152 C145 1.226 . S
O153 Cd144 2.356 1_556 S
O153 C151 1.282 . S
C154 O155 1.306 . S
C154 O157 1.160 . S
O155 C154 1.306 . S
O155 Cd156 2.228 . S
Cd156 O155 2.228 . S
Cd156 O160 2.273 . S
Cd156 O164 2.277 . S
O157 C154 1.160 . S
O157 Cd158 2.203 . S
Cd158 O157 2.203 . S
Cd158 O160 2.411 . S
Cd158 O161 2.333 . S
Cd158 O162 2.352 . S
Cd158 O166 2.277 . S
Cd158 O167 2.356 . S
C159 O164 1.209 . S
C159 O166 1.226 . S
O160 Cd156 2.273 . S
O160 Cd158 2.411 . S
O160 C163 1.320 . S
O161 Cd158 2.333 . S
O161 C163 1.214 . S
O162 Cd158 2.352 . S
O162 C165 1.258 . S
C163 O160 1.320 . S
C163 O161 1.214 . S
O164 Cd156 2.277 . S
O164 C159 1.209 . S
C165 O162 1.258 . S
C165 O167 1.282 . S
O166 Cd158 2.277 . S
O166 C159 1.226 . S
O167 Cd158 2.356 . S
O167 C165 1.282 . S
C168 O169 1.306 . S
C168 O171 1.160 . S
O169 C168 1.306 . S
O169 Cd170 2.228 . S
Cd170 O169 2.228 . S
Cd170 O174 2.273 . S
Cd170 O178 2.277 . S
O171 C168 1.160 . S
O171 Cd172 2.203 . S
Cd172 O171 2.203 . S
Cd172 O174 2.411 . S
Cd172 O175 2.333 . S
Cd172 O176 2.352 . S
Cd172 O180 2.277 . S
Cd172 O181 2.356 . S
C173 O178 1.209 . S
C173 O180 1.226 . S
O174 Cd170 2.273 . S
O174 Cd172 2.411 . S
O174 C177 1.320 . S
O175 Cd172 2.333 . S
O175 C177 1.214 . S
O176 Cd172 2.352 . S
O176 C179 1.258 . S
C177 O174 1.320 . S
C177 O175 1.214 . S
O178 Cd170 2.277 . S
O178 C173 1.209 . S
C179 O176 1.258 . S
C179 O181 1.282 . S
O180 Cd172 2.277 . S
O180 C173 1.226 . S
O181 Cd172 2.356 . S
O181 C179 1.282 . S
C182 O183 1.306 . S
C182 O185 1.160 . S
O183 C182 1.306 . S
O183 Cd184 2.228 . S
Cd184 O183 2.228 . S
Cd184 O188 2.273 . S
Cd184 O192 2.277 . S
O185 C182 1.160 . S
O185 Cd186 2.203 . S
Cd186 O185 2.203 . S
Cd186 O188 2.411 . S
Cd186 O189 2.333 . S
Cd186 O190 2.352 . S
Cd186 O194 2.277 . S
Cd186 O195 2.356 . S
C187 O192 1.209 . S
C187 O194 1.226 . S
O188 Cd184 2.273 . S
O188 Cd186 2.411 . S
O188 C191 1.320 . S
O189 Cd186 2.333 . S
O189 C191 1.214 . S
O190 Cd186 2.352 . S
O190 C193 1.258 . S
C191 O188 1.320 . S
C191 O189 1.214 . S
O192 Cd184 2.277 . S
O192 C187 1.209 . S
C193 O190 1.258 . S
C193 O195 1.282 . S
O194 Cd186 2.277 . S
O194 C187 1.226 . S
O195 Cd186 2.356 . S
O195 C193 1.282 . S
C196 O197 1.306 . S
C196 O199 1.160 . S
O197 C196 1.306 . S
O197 Cd198 2.228 . S
Cd198 O197 2.228 . S
Cd198 O202 2.273 . S
Cd198 O206 2.277 . S
O199 C196 1.160 . S
O199 Cd200 2.203 . S
Cd200 O199 2.203 . S
Cd200 O202 2.411 . S
Cd200 O203 2.333 . S
Cd200 O204 2.352 . S
Cd200 O208 2.277 . S
Cd200 O209 2.356 1_556 S
C201 O206 1.209 . S
C201 O208 1.226 . S
O202 Cd198 2.273 . S
O202 Cd200 2.411 . S
O202 C205 1.320 . S
O203 Cd200 2.333 . S
O203 C205 1.214 . S
O204 Cd200 2.352 . S
O204 C207 1.258 1_556 S
C205 O202 1.320 . S
C205 O203 1.214 . S
O206 Cd198 2.277 . S
O206 C201 1.209 . S
C207 O204 1.258 1_554 S
C207 O209 1.282 . S
O208 Cd200 2.277 . S
O208 C201 1.226 . S
O209 Cd200 2.356 1_554 S
O209 C207 1.282 . S
C210 O211 1.306 . S
C210 O213 1.160 . S
O211 C210 1.306 . S
O211 Cd212 2.228 . S
Cd212 O211 2.228 . S
Cd212 O216 2.273 . S
Cd212 O220 2.277 . S
O213 C210 1.160 . S
O213 Cd214 2.203 . S
Cd214 O213 2.203 . S
Cd214 O216 2.411 . S
Cd214 O217 2.333 . S
Cd214 O218 2.352 . S
Cd214 O222 2.277 . S
Cd214 O223 2.356 . S
C215 O220 1.209 . S
C215 O222 1.226 . S
O216 Cd212 2.273 . S
O216 Cd214 2.411 . S
O216 C219 1.320 . S
O217 Cd214 2.333 . S
O217 C219 1.214 . S
O218 Cd214 2.352 . S
O218 C221 1.258 . S
C219 O216 1.320 . S
C219 O217 1.214 . S
O220 Cd212 2.277 . S
O220 C215 1.209 . S
C221 O218 1.258 . S
C221 O223 1.282 . S
O222 Cd214 2.277 . S
O222 C215 1.226 . S
O223 Cd214 2.356 . S
O223 C221 1.282 . S
C224 O225 1.306 . S
C224 O227 1.160 . S
O225 C224 1.306 . S
O225 Cd226 2.228 . S
Cd226 O225 2.228 . S
Cd226 O230 2.273 . S
Cd226 O234 2.277 . S
O227 C224 1.160 . S
O227 Cd228 2.203 . S
Cd228 O227 2.203 . S
Cd228 O230 2.411 . S
Cd228 O231 2.333 . S
Cd228 O232 2.352 . S
Cd228 O236 2.277 . S
Cd228 O237 2.356 . S
C229 O234 1.209 . S
C229 O236 1.226 . S
O230 Cd226 2.273 . S
O230 Cd228 2.411 . S
O230 C233 1.320 . S
O231 Cd228 2.333 . S
O231 C233 1.214 . S
O232 Cd228 2.352 . S
O232 C235 1.258 . S
C233 O230 1.320 . S
C233 O231 1.214 . S
O234 Cd226 2.277 . S
O234 C229 1.209 . S
C235 O232 1.258 . S
C235 O237 1.282 . S
O236 Cd228 2.277 . S
O236 C229 1.226 . S
O237 Cd228 2.356 . S
O237 C235 1.282 . S
C238 O239 1.306 . S
C238 O241 1.160 . S
O239 C238 1.306 . S
O239 Cd240 2.228 . S
Cd240 O239 2.228 . S
Cd240 O244 2.273 . S
Cd240 O248 2.277 . S
O241 C238 1.160 . S
O241 Cd242 2.203 . S
Cd242 O241 2.203 . S
Cd242 O244 2.411 . S
Cd242 O245 2.333 . S
Cd242 O246 2.352 . S
Cd242 O250 2.277 . S
Cd242 O251 2.356 1_455 S
C243 O248 1.209 . S
C243 O250 1.226 . S
O244 Cd240 2.273 . S
O244 Cd242 2.411 . S
O244 C247 1.320 . S
O245 Cd242 2.333 . S
O245 C247 1.214 . S
O246 Cd242 2.352 . S
O246 C249 1.258 1_455 S
C247 O244 1.320 . S
C247 O245 1.214 . S
O248 Cd240 2.277 . S
O248 C243 1.209 . S
C249 O246 1.258 1_655 S
C249 O251 1.282 . S
O250 Cd242 2.277 . S
O250 C243 1.226 . S
O251 Cd242 2.356 1_655 S
O251 C249 1.282 . S
C252 O253 1.306 . S
C252 O255 1.160 . S
O253 C252 1.306 . S
O253 Cd254 2.228 . S
Cd254 O253 2.228 . S
Cd254 O258 2.273 . S
Cd254 O262 2.277 . S
O255 C252 1.160 . S
O255 Cd256 2.203 . S
Cd256 O255 2.203 . S
Cd256 O258 2.411 . S
Cd256 O259 2.333 . S
Cd256 O260 2.352 . S
Cd256 O264 2.277 . S
Cd256 O265 2.356 . S
C257 O262 1.209 . S
C257 O264 1.226 . S
O258 Cd254 2.273 . S
O258 Cd256 2.411 . S
O258 C261 1.320 . S
O259 Cd256 2.333 . S
O259 C261 1.214 . S
O260 Cd256 2.352 . S
O260 C263 1.258 . S
C261 O258 1.320 . S
C261 O259 1.214 . S
O262 Cd254 2.277 . S
O262 C257 1.209 . S
C263 O260 1.258 . S
C263 O265 1.282 . S
O264 Cd256 2.277 . S
O264 C257 1.226 . S
O265 Cd256 2.356 . S
O265 C263 1.282 . S
C266 O267 1.306 . S
C266 O269 1.160 . S
O267 C266 1.306 . S
O267 Cd268 2.228 . S
Cd268 O267 2.228 . S
Cd268 O272 2.273 . S
Cd268 O276 2.277 . S
O269 C266 1.160 . S
O269 Cd270 2.203 . S
Cd270 O269 2.203 . S
Cd270 O272 2.411 . S
Cd270 O273 2.333 . S
Cd270 O274 2.352 . S
Cd270 O278 2.277 . S
Cd270 O279 2.356 1_655 S
C271 O276 1.209 . S
C271 O278 1.226 . S
O272 Cd268 2.273 . S
O272 Cd270 2.411 . S
O272 C275 1.320 . S
O273 Cd270 2.333 . S
O273 C275 1.214 . S
O274 Cd270 2.352 . S
O274 C277 1.258 1_655 S
C275 O272 1.320 . S
C275 O273 1.214 . S
O276 Cd268 2.277 . S
O276 C271 1.209 . S
C277 O274 1.258 1_455 S
C277 O279 1.282 . S
O278 Cd270 2.277 . S
O278 C271 1.226 . S
O279 Cd270 2.356 1_455 S
O279 C277 1.282 . S
C280 O281 1.306 . S
C280 O283 1.160 . S
O281 C280 1.306 . S
O281 Cd282 2.228 . S
Cd282 O281 2.228 . S
Cd282 O286 2.273 . S
Cd282 O290 2.277 . S
O283 C280 1.160 . S
O283 Cd284 2.203 . S
Cd284 O283 2.203 . S
Cd284 O286 2.411 . S
Cd284 O287 2.333 . S
Cd284 O288 2.352 . S
Cd284 O292 2.277 . S
Cd284 O293 2.356 . S
C285 O290 1.209 . S
C285 O292 1.226 . S
O286 Cd282 2.273 . S
O286 Cd284 2.411 . S
O286 C289 1.320 . S
O287 Cd284 2.333 . S
O287 C289 1.214 . S
O288 Cd284 2.352 . S
O288 C291 1.258 . S
C289 O286 1.320 . S
C289 O287 1.214 . S
O290 Cd282 2.277 . S
O290 C285 1.209 . S
C291 O288 1.258 . S
C291 O293 1.282 . S
O292 Cd284 2.277 . S
O292 C285 1.226 . S
O293 Cd284 2.356 . S
O293 C291 1.282 . S
C294 O295 1.306 . S
C294 O297 1.160 . S
O295 C294 1.306 . S
O295 Cd296 2.228 . S
Cd296 O295 2.228 . S
Cd296 O300 2.273 . S
Cd296 O304 2.277 . S
O297 C294 1.160 . S
O297 Cd298 2.203 . S
Cd298 O297 2.203 . S
Cd298 O300 2.411 . S
Cd298 O301 2.333 . S
Cd298 O302 2.352 . S
Cd298 O306 2.277 . S
Cd298 O307 2.356 . S
C299 O304 1.209 . S
C299 O306 1.226 . S
O300 Cd296 2.273 . S
O300 Cd298 2.411 . S
O300 C303 1.320 . S
O301 Cd298 2.333 . S
O301 C303 1.214 . S
O302 Cd298 2.352 . S
O302 C305 1.258 . S
C303 O300 1.320 . S
C303 O301 1.214 . S
O304 Cd296 2.277 . S
O304 C299 1.209 . S
C305 O302 1.258 . S
C305 O307 1.282 . S
O306 Cd298 2.277 . S
O306 C299 1.226 . S
O307 Cd298 2.356 . S
O307 C305 1.282 . S
C308 O309 1.306 . S
C308 O311 1.160 . S
O309 C308 1.306 . S
O309 Cd310 2.228 . S
Cd310 O309 2.228 . S
Cd310 O314 2.273 . S
Cd310 O318 2.277 . S
O311 C308 1.160 . S
O311 Cd312 2.203 . S
Cd312 O311 2.203 . S
Cd312 O314 2.411 . S
Cd312 O315 2.333 . S
Cd312 O316 2.352 . S
Cd312 O320 2.277 . S
Cd312 O321 2.356 . S
C313 O318 1.209 . S
C313 O320 1.226 . S
O314 Cd310 2.273 . S
O314 Cd312 2.411 . S
O314 C317 1.320 . S
O315 Cd312 2.333 . S
O315 C317 1.214 . S
O316 Cd312 2.352 . S
O316 C319 1.258 . S
C317 O314 1.320 . S
C317 O315 1.214 . S
O318 Cd310 2.277 . S
O318 C313 1.209 . S
C319 O316 1.258 . S
C319 O321 1.282 . S
O320 Cd312 2.277 . S
O320 C313 1.226 . S
O321 Cd312 2.356 . S
O321 C319 1.282 . S
C322 O323 1.306 . S
C322 O325 1.160 . S
O323 C322 1.306 . S
O323 Cd324 2.228 . S
Cd324 O323 2.228 . S
Cd324 O328 2.273 . S
Cd324 O332 2.277 . S
O325 C322 1.160 . S
O325 Cd326 2.203 . S
Cd326 O325 2.203 . S
Cd326 O328 2.411 . S
Cd326 O329 2.333 . S
Cd326 O330 2.352 . S
Cd326 O334 2.277 . S
Cd326 O335 2.356 . S
C327 O332 1.209 . S
C327 O334 1.226 . S
O328 Cd324 2.273 . S
O328 Cd326 2.411 . S
O328 C331 1.320 . S
O329 Cd326 2.333 . S
O329 C331 1.214 . S
O330 Cd326 2.352 . S
O330 C333 1.258 . S
C331 O328 1.320 . S
C331 O329 1.214 . S
O332 Cd324 2.277 . S
O332 C327 1.209 . S
C333 O330 1.258 . S
C333 O335 1.282 . S
O334 Cd326 2.277 . S
O334 C327 1.226 . S
O335 Cd326 2.356 . S
O335 C333 1.282 . S
C336 O337 1.306 . S
C336 O339 1.160 . S
O337 C336 1.306 . S
O337 Cd338 2.228 . S
Cd338 O337 2.228 . S
Cd338 O342 2.273 . S
Cd338 O346 2.277 . S
O339 C336 1.160 . S
O339 Cd340 2.203 . S
Cd340 O339 2.203 . S
Cd340 O342 2.411 . S
Cd340 O343 2.333 . S
Cd340 O344 2.352 . S
Cd340 O348 2.277 . S
Cd340 O349 2.356 1_545 S
C341 O346 1.209 . S
C341 O348 1.226 . S
O342 Cd338 2.273 . S
O342 Cd340 2.411 . S
O342 C345 1.320 . S
O343 Cd340 2.333 . S
O343 C345 1.214 . S
O344 Cd340 2.352 . S
O344 C347 1.258 1_545 S
C345 O342 1.320 . S
C345 O343 1.214 . S
O346 Cd338 2.277 . S
O346 C341 1.209 . S
C347 O344 1.258 1_565 S
C347 O349 1.282 . S
O348 Cd340 2.277 . S
O348 C341 1.226 . S
O349 Cd340 2.356 1_565 S
O349 C347 1.282 . S
C350 O351 1.306 . S
C350 O353 1.160 . S
O351 C350 1.306 . S
O351 Cd352 2.228 . S
Cd352 O351 2.228 . S
Cd352 O356 2.273 . S
Cd352 O360 2.277 . S
O353 C350 1.160 . S
O353 Cd354 2.203 . S
Cd354 O353 2.203 . S
Cd354 O356 2.411 . S
Cd354 O357 2.333 . S
Cd354 O358 2.352 . S
Cd354 O362 2.277 . S
Cd354 O363 2.356 . S
C355 O360 1.209 . S
C355 O362 1.226 . S
O356 Cd352 2.273 . S
O356 Cd354 2.411 . S
O356 C359 1.320 . S
O357 Cd354 2.333 . S
O357 C359 1.214 . S
O358 Cd354 2.352 . S
O358 C361 1.258 . S
C359 O356 1.320 . S
C359 O357 1.214 . S
O360 Cd352 2.277 . S
O360 C355 1.209 . S
C361 O358 1.258 . S
C361 O363 1.282 . S
O362 Cd354 2.277 . S
O362 C355 1.226 . S
O363 Cd354 2.356 . S
O363 C361 1.282 . S
C364 O365 1.306 . S
C364 O367 1.160 . S
O365 C364 1.306 . S
O365 Cd366 2.228 . S
Cd366 O365 2.228 . S
Cd366 O370 2.273 . S
Cd366 O374 2.277 . S
O367 C364 1.160 . S
O367 Cd368 2.203 . S
Cd368 O367 2.203 . S
Cd368 O370 2.411 . S
Cd368 O371 2.333 . S
Cd368 O372 2.352 . S
Cd368 O376 2.277 . S
Cd368 O377 2.356 . S
C369 O374 1.209 . S
C369 O376 1.226 . S
O370 Cd366 2.273 . S
O370 Cd368 2.411 . S
O370 C373 1.320 . S
O371 Cd368 2.333 . S
O371 C373 1.214 . S
O372 Cd368 2.352 . S
O372 C375 1.258 . S
C373 O370 1.320 . S
C373 O371 1.214 . S
O374 Cd366 2.277 . S
O374 C369 1.209 . S
C375 O372 1.258 . S
C375 O377 1.282 . S
O376 Cd368 2.277 . S
O376 C369 1.226 . S
O377 Cd368 2.356 . S
O377 C375 1.282 . S
C378 O379 1.306 . S
C378 O381 1.160 . S
O379 C378 1.306 . S
O379 Cd380 2.228 . S
Cd380 O379 2.228 . S
Cd380 O384 2.273 . S
Cd380 O388 2.277 . S
O381 C378 1.160 . S
O381 Cd382 2.203 . S
Cd382 O381 2.203 . S
Cd382 O384 2.411 . S
Cd382 O385 2.333 . S
Cd382 O386 2.352 . S
Cd382 O390 2.277 . S
Cd382 O391 2.356 . S
C383 O388 1.209 . S
C383 O390 1.226 . S
O384 Cd380 2.273 . S
O384 Cd382 2.411 . S
O384 C387 1.320 . S
O385 Cd382 2.333 . S
O385 C387 1.214 . S
O386 Cd382 2.352 . S
O386 C389 1.258 . S
C387 O384 1.320 . S
C387 O385 1.214 . S
O388 Cd380 2.277 . S
O388 C383 1.209 . S
C389 O386 1.258 . S
C389 O391 1.282 . S
O390 Cd382 2.277 . S
O390 C383 1.226 . S
O391 Cd382 2.356 . S
O391 C389 1.282 . S
C392 O393 1.306 . S
C392 O395 1.160 . S
O393 C392 1.306 . S
O393 Cd394 2.228 . S
Cd394 O393 2.228 . S
Cd394 O398 2.273 . S
Cd394 O402 2.277 . S
O395 C392 1.160 . S
O395 Cd396 2.203 . S
Cd396 O395 2.203 . S
Cd396 O398 2.411 . S
Cd396 O399 2.333 . S
Cd396 O400 2.352 . S
Cd396 O404 2.277 . S
Cd396 O405 2.356 1_565 S
C397 O402 1.209 . S
C397 O404 1.226 . S
O398 Cd394 2.273 . S
O398 Cd396 2.411 . S
O398 C401 1.320 . S
O399 Cd396 2.333 . S
O399 C401 1.214 . S
O400 Cd396 2.352 . S
O400 C403 1.258 1_565 S
C401 O398 1.320 . S
C401 O399 1.214 . S
O402 Cd394 2.277 . S
O402 C397 1.209 . S
C403 O400 1.258 1_545 S
C403 O405 1.282 . S
O404 Cd396 2.277 . S
O404 C397 1.226 . S
O405 Cd396 2.356 1_545 S
O405 C403 1.282 . S
C406 O407 1.306 . S
C406 O409 1.160 . S
O407 C406 1.306 . S
O407 Cd408 2.228 . S
Cd408 O407 2.228 . S
Cd408 O412 2.273 . S
Cd408 O416 2.277 . S
O409 C406 1.160 . S
O409 Cd410 2.203 . S
Cd410 O409 2.203 . S
Cd410 O412 2.411 . S
Cd410 O413 2.333 . S
Cd410 O414 2.352 . S
Cd410 O418 2.277 . S
Cd410 O419 2.356 . S
C411 O416 1.209 . S
C411 O418 1.226 . S
O412 Cd408 2.273 . S
O412 Cd410 2.411 . S
O412 C415 1.320 . S
O413 Cd410 2.333 . S
O413 C415 1.214 . S
O414 Cd410 2.352 . S
O414 C417 1.258 . S
C415 O412 1.320 . S
C415 O413 1.214 . S
O416 Cd408 2.277 . S
O416 C411 1.209 . S
C417 O414 1.258 . S
C417 O419 1.282 . S
O418 Cd410 2.277 . S
O418 C411 1.226 . S
O419 Cd410 2.356 . S
O419 C417 1.282 . S
C420 O421 1.306 . S
C420 O423 1.160 . S
O421 C420 1.306 . S
O421 Cd422 2.228 . S
Cd422 O421 2.228 . S
Cd422 O426 2.273 . S
Cd422 O430 2.277 . S
O423 C420 1.160 . S
O423 Cd424 2.203 . S
Cd424 O423 2.203 . S
Cd424 O426 2.411 . S
Cd424 O427 2.333 . S
Cd424 O428 2.352 . S
Cd424 O432 2.277 . S
Cd424 O433 2.356 . S
C425 O430 1.209 . S
C425 O432 1.226 . S
O426 Cd422 2.273 . S
O426 Cd424 2.411 . S
O426 C429 1.320 . S
O427 Cd424 2.333 . S
O427 C429 1.214 . S
O428 Cd424 2.352 . S
O428 C431 1.258 . S
C429 O426 1.320 . S
C429 O427 1.214 . S
O430 Cd422 2.277 . S
O430 C425 1.209 . S
C431 O428 1.258 . S
C431 O433 1.282 . S
O432 Cd424 2.277 . S
O432 C425 1.226 . S
O433 Cd424 2.356 . S
O433 C431 1.282 . S
C434 O435 1.306 . S
C434 O437 1.160 . S
O435 C434 1.306 . S
O435 Cd436 2.228 . S
Cd436 O435 2.228 . S
Cd436 O440 2.273 . S
Cd436 O444 2.277 . S
O437 C434 1.160 . S
O437 Cd438 2.203 . S
Cd438 O437 2.203 . S
Cd438 O440 2.411 . S
Cd438 O441 2.333 . S
Cd438 O442 2.352 . S
Cd438 O446 2.277 . S
Cd438 O447 2.356 . S
C439 O444 1.209 . S
C439 O446 1.226 . S
O440 Cd436 2.273 . S
O440 Cd438 2.411 . S
O440 C443 1.320 . S
O441 Cd438 2.333 . S
O441 C443 1.214 . S
O442 Cd438 2.352 . S
O442 C445 1.258 . S
C443 O440 1.320 . S
C443 O441 1.214 . S
O444 Cd436 2.277 . S
O444 C439 1.209 . S
C445 O442 1.258 . S
C445 O447 1.282 . S
O446 Cd438 2.277 . S
O446 C439 1.226 . S
O447 Cd438 2.356 . S
O447 C445 1.282 . S
C448 O449 1.306 . S
C448 O451 1.160 . S
O449 C448 1.306 . S
O449 Cd450 2.228 . S
Cd450 O449 2.228 . S
Cd450 O454 2.273 . S
Cd450 O458 2.277 . S
O451 C448 1.160 . S
O451 Cd452 2.203 . S
Cd452 O451 2.203 . S
Cd452 O454 2.411 . S
Cd452 O455 2.333 . S
Cd452 O456 2.352 . S
Cd452 O460 2.277 . S
Cd452 O461 2.356 1_554 S
C453 O458 1.209 . S
C453 O460 1.226 . S
O454 Cd450 2.273 . S
O454 Cd452 2.411 . S
O454 C457 1.320 . S
O455 Cd452 2.333 . S
O455 C457 1.214 . S
O456 Cd452 2.352 . S
O456 C459 1.258 1_554 S
C457 O454 1.320 . S
C457 O455 1.214 . S
O458 Cd450 2.277 . S
O458 C453 1.209 . S
C459 O456 1.258 1_556 S
C459 O461 1.282 . S
O460 Cd452 2.277 . S
O460 C453 1.226 . S
O461 Cd452 2.356 1_556 S
O461 C459 1.282 . S
C462 O463 1.306 . S
C462 O465 1.160 . S
O463 C462 1.306 . S
O463 Cd464 2.228 . S
Cd464 O463 2.228 . S
Cd464 O468 2.273 . S
Cd464 O472 2.277 . S
O465 C462 1.160 . S
O465 Cd466 2.203 . S
Cd466 O465 2.203 . S
Cd466 O468 2.411 . S
Cd466 O469 2.333 . S
Cd466 O470 2.352 . S
Cd466 O474 2.277 . S
Cd466 O475 2.356 . S
C467 O472 1.209 . S
C467 O474 1.226 . S
O468 Cd464 2.273 . S
O468 Cd466 2.411 . S
O468 C471 1.320 . S
O469 Cd466 2.333 . S
O469 C471 1.214 . S
O470 Cd466 2.352 . S
O470 C473 1.258 . S
C471 O468 1.320 . S
C471 O469 1.214 . S
O472 Cd464 2.277 . S
O472 C467 1.209 . S
C473 O470 1.258 . S
C473 O475 1.282 . S
O474 Cd466 2.277 . S
O474 C467 1.226 . S
O475 Cd466 2.356 . S
O475 C473 1.282 . S
C476 O477 1.306 . S
C476 O479 1.160 . S
O477 C476 1.306 . S
O477 Cd478 2.228 . S
Cd478 O477 2.228 . S
Cd478 O482 2.273 . S
Cd478 O486 2.277 . S
O479 C476 1.160 . S
O479 Cd480 2.203 . S
Cd480 O479 2.203 . S
Cd480 O482 2.411 . S
Cd480 O483 2.333 . S
Cd480 O484 2.352 . S
Cd480 O488 2.277 . S
Cd480 O489 2.356 . S
C481 O486 1.209 . S
C481 O488 1.226 . S
O482 Cd478 2.273 . S
O482 Cd480 2.411 . S
O482 C485 1.320 . S
O483 Cd480 2.333 . S
O483 C485 1.214 . S
O484 Cd480 2.352 . S
O484 C487 1.258 . S
C485 O482 1.320 . S
C485 O483 1.214 . S
O486 Cd478 2.277 . S
O486 C481 1.209 . S
C487 O484 1.258 . S
C487 O489 1.282 . S
O488 Cd480 2.277 . S
O488 C481 1.226 . S
O489 Cd480 2.356 . S
O489 C487 1.282 . S
C490 O491 1.306 . S
C490 O493 1.160 . S
O491 C490 1.306 . S
O491 Cd492 2.228 . S
Cd492 O491 2.228 . S
Cd492 O496 2.273 . S
Cd492 O500 2.277 . S
O493 C490 1.160 . S
O493 Cd494 2.203 . S
Cd494 O493 2.203 . S
Cd494 O496 2.411 . S
Cd494 O497 2.333 . S
Cd494 O498 2.352 . S
Cd494 O502 2.277 . S
Cd494 O503 2.356 . S
C495 O500 1.209 . S
C495 O502 1.226 . S
O496 Cd492 2.273 . S
O496 Cd494 2.411 . S
O496 C499 1.320 . S
O497 Cd494 2.333 . S
O497 C499 1.214 . S
O498 Cd494 2.352 . S
O498 C501 1.258 . S
C499 O496 1.320 . S
C499 O497 1.214 . S
O500 Cd492 2.277 . S
O500 C495 1.209 . S
C501 O498 1.258 . S
C501 O503 1.282 . S
O502 Cd494 2.277 . S
O502 C495 1.226 . S
O503 Cd494 2.356 . S
O503 C501 1.282 . S
C504 O505 1.306 . S
C504 O507 1.160 . S
O505 C504 1.306 . S
O505 Cd506 2.228 . S
Cd506 O505 2.228 . S
Cd506 O510 2.273 . S
Cd506 O514 2.277 . S
O507 C504 1.160 . S
O507 Cd508 2.203 . S
Cd508 O507 2.203 . S
Cd508 O510 2.411 . S
Cd508 O511 2.333 . S
Cd508 O512 2.352 . S
Cd508 O516 2.277 . S
Cd508 O517 2.356 1_556 S
C509 O514 1.209 . S
C509 O516 1.226 . S
O510 Cd506 2.273 . S
O510 Cd508 2.411 . S
O510 C513 1.320 . S
O511 Cd508 2.333 . S
O511 C513 1.214 . S
O512 Cd508 2.352 . S
O512 C515 1.258 1_556 S
C513 O510 1.320 . S
C513 O511 1.214 . S
O514 Cd506 2.277 . S
O514 C509 1.209 . S
C515 O512 1.258 1_554 S
C515 O517 1.282 . S
O516 Cd508 2.277 . S
O516 C509 1.226 . S
O517 Cd508 2.356 1_554 S
O517 C515 1.282 . S
C518 O519 1.306 . S
C518 O521 1.160 . S
O519 C518 1.306 . S
O519 Cd520 2.228 . S
Cd520 O519 2.228 . S
Cd520 O524 2.273 . S
Cd520 O528 2.277 . S
O521 C518 1.160 . S
O521 Cd522 2.203 . S
Cd522 O521 2.203 . S
Cd522 O524 2.411 . S
Cd522 O525 2.333 . S
Cd522 O526 2.352 . S
Cd522 O530 2.277 . S
Cd522 O531 2.356 . S
C523 O528 1.209 . S
C523 O530 1.226 . S
O524 Cd520 2.273 . S
O524 Cd522 2.411 . S
O524 C527 1.320 . S
O525 Cd522 2.333 . S
O525 C527 1.214 . S
O526 Cd522 2.352 . S
O526 C529 1.258 . S
C527 O524 1.320 . S
C527 O525 1.214 . S
O528 Cd520 2.277 . S
O528 C523 1.209 . S
C529 O526 1.258 . S
C529 O531 1.282 . S
O530 Cd522 2.277 . S
O530 C523 1.226 . S
O531 Cd522 2.356 . S
O531 C529 1.282 . S
C532 O533 1.306 . S
C532 O535 1.160 . S
O533 C532 1.306 . S
O533 Cd534 2.228 . S
Cd534 O533 2.228 . S
Cd534 O538 2.273 . S
Cd534 O542 2.277 . S
O535 C532 1.160 . S
O535 Cd536 2.203 . S
Cd536 O535 2.203 . S
Cd536 O538 2.411 . S
Cd536 O539 2.333 . S
Cd536 O540 2.352 . S
Cd536 O544 2.277 . S
Cd536 O545 2.356 . S
C537 O542 1.209 . S
C537 O544 1.226 . S
O538 Cd534 2.273 . S
O538 Cd536 2.411 . S
O538 C541 1.320 . S
O539 Cd536 2.333 . S
O539 C541 1.214 . S
O540 Cd536 2.352 . S
O540 C543 1.258 . S
C541 O538 1.320 . S
C541 O539 1.214 . S
O542 Cd534 2.277 . S
O542 C537 1.209 . S
C543 O540 1.258 . S
C543 O545 1.282 . S
O544 Cd536 2.277 . S
O544 C537 1.226 . S
O545 Cd536 2.356 . S
O545 C543 1.282 . S
C546 O547 1.306 . S
C546 O549 1.160 . S
O547 C546 1.306 . S
O547 Cd548 2.228 . S
Cd548 O547 2.228 . S
Cd548 O552 2.273 . S
Cd548 O556 2.277 . S
O549 C546 1.160 . S
O549 Cd550 2.203 . S
Cd550 O549 2.203 . S
Cd550 O552 2.411 . S
Cd550 O553 2.333 . S
Cd550 O554 2.352 . S
Cd550 O558 2.277 . S
Cd550 O559 2.356 . S
C551 O556 1.209 . S
C551 O558 1.226 . S
O552 Cd548 2.273 . S
O552 Cd550 2.411 . S
O552 C555 1.320 . S
O553 Cd550 2.333 . S
O553 C555 1.214 . S
O554 Cd550 2.352 . S
O554 C557 1.258 . S
C555 O552 1.320 . S
C555 O553 1.214 . S
O556 Cd548 2.277 . S
O556 C551 1.209 . S
C557 O554 1.258 . S
C557 O559 1.282 . S
O558 Cd550 2.277 . S
O558 C551 1.226 . S
O559 Cd550 2.356 . S
O559 C557 1.282 . S
C560 O561 1.306 . S
C560 O563 1.160 . S
O561 C560 1.306 . S
O561 Cd562 2.228 . S
Cd562 O561 2.228 . S
Cd562 O566 2.273 . S
Cd562 O570 2.277 . S
O563 C560 1.160 . S
O563 Cd564 2.203 . S
Cd564 O563 2.203 . S
Cd564 O566 2.411 . S
Cd564 O567 2.333 . S
Cd564 O568 2.352 . S
Cd564 O572 2.277 . S
Cd564 O573 2.356 . S
C565 O570 1.209 . S
C565 O572 1.226 . S
O566 Cd562 2.273 . S
O566 Cd564 2.411 . S
O566 C569 1.320 . S
O567 Cd564 2.333 . S
O567 C569 1.214 . S
O568 Cd564 2.352 . S
O568 C571 1.258 . S
C569 O566 1.320 . S
C569 O567 1.214 . S
O570 Cd562 2.277 . S
O570 C565 1.209 . S
C571 O568 1.258 . S
C571 O573 1.282 . S
O572 Cd564 2.277 . S
O572 C565 1.226 . S
O573 Cd564 2.356 . S
O573 C571 1.282 . S
C574 O575 1.306 . S
C574 O577 1.160 . S
O575 C574 1.306 . S
O575 Cd576 2.228 . S
Cd576 O575 2.228 . S
Cd576 O580 2.273 . S
Cd576 O584 2.277 . S
O577 C574 1.160 . S
O577 Cd578 2.203 . S
Cd578 O577 2.203 . S
Cd578 O580 2.411 . S
Cd578 O581 2.333 . S
Cd578 O582 2.352 . S
Cd578 O586 2.277 . S
Cd578 O587 2.356 1_455 S
C579 O584 1.209 . S
C579 O586 1.226 . S
O580 Cd576 2.273 . S
O580 Cd578 2.411 . S
O580 C583 1.320 . S
O581 Cd578 2.333 . S
O581 C583 1.214 . S
O582 Cd578 2.352 . S
O582 C585 1.258 1_455 S
C583 O580 1.320 . S
C583 O581 1.214 . S
O584 Cd576 2.277 . S
O584 C579 1.209 . S
C585 O582 1.258 1_655 S
C585 O587 1.282 . S
O586 Cd578 2.277 . S
O586 C579 1.226 . S
O587 Cd578 2.356 1_655 S
O587 C585 1.282 . S
C588 O589 1.306 . S
C588 O591 1.160 . S
O589 C588 1.306 . S
O589 Cd590 2.228 . S
Cd590 O589 2.228 . S
Cd590 O594 2.273 . S
Cd590 O598 2.277 . S
O591 C588 1.160 . S
O591 Cd592 2.203 . S
Cd592 O591 2.203 . S
Cd592 O594 2.411 . S
Cd592 O595 2.333 . S
Cd592 O596 2.352 . S
Cd592 O600 2.277 . S
Cd592 O601 2.356 . S
C593 O598 1.209 . S
C593 O600 1.226 . S
O594 Cd590 2.273 . S
O594 Cd592 2.411 . S
O594 C597 1.320 . S
O595 Cd592 2.333 . S
O595 C597 1.214 . S
O596 Cd592 2.352 . S
O596 C599 1.258 . S
C597 O594 1.320 . S
C597 O595 1.214 . S
O598 Cd590 2.277 . S
O598 C593 1.209 . S
C599 O596 1.258 . S
C599 O601 1.282 . S
O600 Cd592 2.277 . S
O600 C593 1.226 . S
O601 Cd592 2.356 . S
O601 C599 1.282 . S
C602 O603 1.306 . S
C602 O605 1.160 . S
O603 C602 1.306 . S
O603 Cd604 2.228 . S
Cd604 O603 2.228 . S
Cd604 O608 2.273 . S
Cd604 O612 2.277 . S
O605 C602 1.160 . S
O605 Cd606 2.203 . S
Cd606 O605 2.203 . S
Cd606 O608 2.411 . S
Cd606 O609 2.333 . S
Cd606 O610 2.352 . S
Cd606 O614 2.277 . S
Cd606 O615 2.356 1_655 S
C607 O612 1.209 . S
C607 O614 1.226 . S
O608 Cd604 2.273 . S
O608 Cd606 2.411 . S
O608 C611 1.320 . S
O609 Cd606 2.333 . S
O609 C611 1.214 . S
O610 Cd606 2.352 . S
O610 C613 1.258 1_655 S
C611 O608 1.320 . S
C611 O609 1.214 . S
O612 Cd604 2.277 . S
O612 C607 1.209 . S
C613 O610 1.258 1_455 S
C613 O615 1.282 . S
O614 Cd606 2.277 . S
O614 C607 1.226 . S
O615 Cd606 2.356 1_455 S
O615 C613 1.282 . S
C616 O617 1.306 . S
C616 O619 1.160 . S
O617 C616 1.306 . S
O617 Cd618 2.228 . S
Cd618 O617 2.228 . S
Cd618 O622 2.273 . S
Cd618 O626 2.277 . S
O619 C616 1.160 . S
O619 Cd620 2.203 . S
Cd620 O619 2.203 . S
Cd620 O622 2.411 . S
Cd620 O623 2.333 . S
Cd620 O624 2.352 . S
Cd620 O628 2.277 . S
Cd620 O629 2.356 . S
C621 O626 1.209 . S
C621 O628 1.226 . S
O622 Cd618 2.273 . S
O622 Cd620 2.411 . S
O622 C625 1.320 . S
O623 Cd620 2.333 . S
O623 C625 1.214 . S
O624 Cd620 2.352 . S
O624 C627 1.258 . S
C625 O622 1.320 . S
C625 O623 1.214 . S
O626 Cd618 2.277 . S
O626 C621 1.209 . S
C627 O624 1.258 . S
C627 O629 1.282 . S
O628 Cd620 2.277 . S
O628 C621 1.226 . S
O629 Cd620 2.356 . S
O629 C627 1.282 . S
C630 O631 1.306 . S
C630 O633 1.160 . S
O631 C630 1.306 . S
O631 Cd632 2.228 . S
Cd632 O631 2.228 . S
Cd632 O636 2.273 . S
Cd632 O640 2.277 . S
O633 C630 1.160 . S
O633 Cd634 2.203 . S
Cd634 O633 2.203 . S
Cd634 O636 2.411 . S
Cd634 O637 2.333 . S
Cd634 O638 2.352 . S
Cd634 O642 2.277 . S
Cd634 O643 2.356 . S
C635 O640 1.209 . S
C635 O642 1.226 . S
O636 Cd632 2.273 . S
O636 Cd634 2.411 . S
O636 C639 1.320 . S
O637 Cd634 2.333 . S
O637 C639 1.214 . S
O638 Cd634 2.352 . S
O638 C641 1.258 . S
C639 O636 1.320 . S
C639 O637 1.214 . S
O640 Cd632 2.277 . S
O640 C635 1.209 . S
C641 O638 1.258 . S
C641 O643 1.282 . S
O642 Cd634 2.277 . S
O642 C635 1.226 . S
O643 Cd634 2.356 . S
O643 C641 1.282 . S
C644 O645 1.306 . S
C644 O647 1.160 . S
O645 C644 1.306 . S
O645 Cd646 2.228 . S
Cd646 O645 2.228 . S
Cd646 O650 2.273 . S
Cd646 O654 2.277 . S
O647 C644 1.160 . S
O647 Cd648 2.203 . S
Cd648 O647 2.203 . S
Cd648 O650 2.411 . S
Cd648 O651 2.333 . S
Cd648 O652 2.352 . S
Cd648 O656 2.277 . S
Cd648 O657 2.356 . S
C649 O654 1.209 . S
C649 O656 1.226 . S
O650 Cd646 2.273 . S
O650 Cd648 2.411 . S
O650 C653 1.320 . S
O651 Cd648 2.333 . S
O651 C653 1.214 . S
O652 Cd648 2.352 . S
O652 C655 1.258 . S
C653 O650 1.320 . S
C653 O651 1.214 . S
O654 Cd646 2.277 . S
O654 C649 1.209 . S
C655 O652 1.258 . S
C655 O657 1.282 . S
O656 Cd648 2.277 . S
O656 C649 1.226 . S
O657 Cd648 2.356 . S
O657 C655 1.282 . S
C658 O659 1.306 . S
C658 O661 1.160 . S
O659 C658 1.306 . S
O659 Cd660 2.228 . S
Cd660 O659 2.228 . S
Cd660 O664 2.273 . S
Cd660 O668 2.277 . S
O661 C658 1.160 . S
O661 Cd662 2.203 . S
Cd662 O661 2.203 . S
Cd662 O664 2.411 . S
Cd662 O665 2.333 . S
Cd662 O666 2.352 . S
Cd662 O670 2.277 . S
Cd662 O671 2.356 . S
C663 O668 1.209 . S
C663 O670 1.226 . S
O664 Cd660 2.273 . S
O664 Cd662 2.411 . S
O664 C667 1.320 . S
O665 Cd662 2.333 . S
O665 C667 1.214 . S
O666 Cd662 2.352 . S
O666 C669 1.258 . S
C667 O664 1.320 . S
C667 O665 1.214 . S
O668 Cd660 2.277 . S
O668 C663 1.209 . S
C669 O666 1.258 . S
C669 O671 1.282 . S
O670 Cd662 2.277 . S
O670 C663 1.226 . S
O671 Cd662 2.356 . S
O671 C669 1.282 . S
C672 O673 1.306 . S
C672 O675 1.160 . S
O673 C672 1.306 . S
O673 Cd674 2.228 . S
Cd674 O673 2.228 . S
Cd674 O678 2.273 . S
Cd674 O682 2.277 . S
O675 C672 1.160 . S
O675 Cd676 2.203 . S
Cd676 O675 2.203 . S
Cd676 O678 2.411 . S
Cd676 O679 2.333 . S
Cd676 O680 2.352 . S
Cd676 O684 2.277 . S
Cd676 O685 2.356 . S
C677 O682 1.209 . S
C677 O684 1.226 . S
O678 Cd674 2.273 . S
O678 Cd676 2.411 . S
O678 C681 1.320 . S
O679 Cd676 2.333 . S
O679 C681 1.214 . S
O680 Cd676 2.352 . S
O680 C683 1.258 . S
C681 O678 1.320 . S
C681 O679 1.214 . S
O682 Cd674 2.277 . S
O682 C677 1.209 . S
C683 O680 1.258 . S
C683 O685 1.282 . S
O684 Cd676 2.277 . S
O684 C677 1.226 . S
O685 Cd676 2.356 . S
O685 C683 1.282 . S
C686 O687 1.306 . S
C686 O689 1.160 . S
O687 C686 1.306 . S
O687 Cd688 2.228 . S
Cd688 O687 2.228 . S
Cd688 O692 2.273 . S
Cd688 O696 2.277 . S
O689 C686 1.160 . S
O689 Cd690 2.203 . S
Cd690 O689 2.203 . S
Cd690 O692 2.411 . S
Cd690 O693 2.333 . S
Cd690 O694 2.352 . S
Cd690 O698 2.277 . S
Cd690 O699 2.356 . S
C691 O696 1.209 . S
C691 O698 1.226 . S
O692 Cd688 2.273 . S
O692 Cd690 2.411 . S
O692 C695 1.320 . S
O693 Cd690 2.333 . S
O693 C695 1.214 . S
O694 Cd690 2.352 . S
O694 C697 1.258 . S
C695 O692 1.320 . S
C695 O693 1.214 . S
O696 Cd688 2.277 . S
O696 C691 1.209 . S
C697 O694 1.258 . S
C697 O699 1.282 . S
O698 Cd690 2.277 . S
O698 C691 1.226 . S
O699 Cd690 2.356 . S
O699 C697 1.282 . S
C700 O701 1.306 . S
C700 O703 1.160 . S
O701 C700 1.306 . S
O701 Cd702 2.228 . S
Cd702 O701 2.228 . S
Cd702 O706 2.273 . S
Cd702 O710 2.277 . S
O703 C700 1.160 . S
O703 Cd704 2.203 . S
Cd704 O703 2.203 . S
Cd704 O706 2.411 . S
Cd704 O707 2.333 . S
Cd704 O708 2.352 . S
Cd704 O712 2.277 . S
Cd704 O713 2.356 1_565 S
C705 O710 1.209 . S
C705 O712 1.226 . S
O706 Cd702 2.273 . S
O706 Cd704 2.411 . S
O706 C709 1.320 . S
O707 Cd704 2.333 . S
O707 C709 1.214 . S
O708 Cd704 2.352 . S
O708 C711 1.258 1_565 S
C709 O706 1.320 . S
C709 O707 1.214 . S
O710 Cd702 2.277 . S
O710 C705 1.209 . S
C711 O708 1.258 1_545 S
C711 O713 1.282 . S
O712 Cd704 2.277 . S
O712 C705 1.226 . S
O713 Cd704 2.356 1_545 S
O713 C711 1.282 . S
C714 O715 1.306 . S
C714 O717 1.160 . S
O715 C714 1.306 . S
O715 Cd716 2.228 . S
Cd716 O715 2.228 . S
Cd716 O720 2.273 . S
Cd716 O724 2.277 . S
O717 C714 1.160 . S
O717 Cd718 2.203 . S
Cd718 O717 2.203 . S
Cd718 O720 2.411 . S
Cd718 O721 2.333 . S
Cd718 O722 2.352 . S
Cd718 O726 2.277 . S
Cd718 O727 2.356 . S
C719 O724 1.209 . S
C719 O726 1.226 . S
O720 Cd716 2.273 . S
O720 Cd718 2.411 . S
O720 C723 1.320 . S
O721 Cd718 2.333 . S
O721 C723 1.214 . S
O722 Cd718 2.352 . S
O722 C725 1.258 . S
C723 O720 1.320 . S
C723 O721 1.214 . S
O724 Cd716 2.277 . S
O724 C719 1.209 . S
C725 O722 1.258 . S
C725 O727 1.282 . S
O726 Cd718 2.277 . S
O726 C719 1.226 . S
O727 Cd718 2.356 . S
O727 C725 1.282 . S
C728 O729 1.306 . S
C728 O731 1.160 . S
O729 C728 1.306 . S
O729 Cd730 2.228 . S
Cd730 O729 2.228 . S
Cd730 O734 2.273 . S
Cd730 O738 2.277 . S
O731 C728 1.160 . S
O731 Cd732 2.203 . S
Cd732 O731 2.203 . S
Cd732 O734 2.411 . S
Cd732 O735 2.333 . S
Cd732 O736 2.352 . S
Cd732 O740 2.277 . S
Cd732 O741 2.356 . S
C733 O738 1.209 . S
C733 O740 1.226 . S
O734 Cd730 2.273 . S
O734 Cd732 2.411 . S
O734 C737 1.320 . S
O735 Cd732 2.333 . S
O735 C737 1.214 . S
O736 Cd732 2.352 . S
O736 C739 1.258 . S
C737 O734 1.320 . S
C737 O735 1.214 . S
O738 Cd730 2.277 . S
O738 C733 1.209 . S
C739 O736 1.258 . S
C739 O741 1.282 . S
O740 Cd732 2.277 . S
O740 C733 1.226 . S
O741 Cd732 2.356 . S
O741 C739 1.282 . S
C742 O743 1.306 . S
C742 O745 1.160 . S
O743 C742 1.306 . S
O743 Cd744 2.228 . S
Cd744 O743 2.228 . S
Cd744 O748 2.273 . S
Cd744 O752 2.277 . S
O745 C742 1.160 . S
O745 Cd746 2.203 . S
Cd746 O745 2.203 . S
Cd746 O748 2.411 . S
Cd746 O749 2.333 . S
Cd746 O750 2.352 . S
Cd746 O754 2.277 . S
Cd746 O755 2.356 . S
C747 O752 1.209 . S
C747 O754 1.226 . S
O748 Cd744 2.273 . S
O748 Cd746 2.411 . S
O748 C751 1.320 . S
O749 Cd746 2.333 . S
O749 C751 1.214 . S
O750 Cd746 2.352 . S
O750 C753 1.258 . S
C751 O748 1.320 . S
C751 O749 1.214 . S
O752 Cd744 2.277 . S
O752 C747 1.209 . S
C753 O750 1.258 . S
C753 O755 1.282 . S
O754 Cd746 2.277 . S
O754 C747 1.226 . S
O755 Cd746 2.356 . S
O755 C753 1.282 . S
C756 O757 1.306 . S
C756 O759 1.160 . S
O757 C756 1.306 . S
O757 Cd758 2.228 . S
Cd758 O757 2.228 . S
Cd758 O762 2.273 . S
Cd758 O766 2.277 . S
O759 C756 1.160 . S
O759 Cd760 2.203 . S
Cd760 O759 2.203 . S
Cd760 O762 2.411 . S
Cd760 O763 2.333 . S
Cd760 O764 2.352 . S
Cd760 O768 2.277 . S
Cd760 O769 2.356 1_545 S
C761 O766 1.209 . S
C761 O768 1.226 . S
O762 Cd758 2.273 . S
O762 Cd760 2.411 . S
O762 C765 1.320 . S
O763 Cd760 2.333 . S
O763 C765 1.214 . S
O764 Cd760 2.352 . S
O764 C767 1.258 1_545 S
C765 O762 1.320 . S
C765 O763 1.214 . S
O766 Cd758 2.277 . S
O766 C761 1.209 . S
C767 O764 1.258 1_565 S
C767 O769 1.282 . S
O768 Cd760 2.277 . S
O768 C761 1.226 . S
O769 Cd760 2.356 1_565 S
O769 C767 1.282 . S
C770 O771 1.306 . S
C770 O773 1.160 . S
O771 C770 1.306 . S
O771 Cd772 2.228 . S
Cd772 O771 2.228 . S
Cd772 O776 2.273 . S
Cd772 O780 2.277 . S
O773 C770 1.160 . S
O773 Cd774 2.203 . S
Cd774 O773 2.203 . S
Cd774 O776 2.411 . S
Cd774 O777 2.333 . S
Cd774 O778 2.352 . S
Cd774 O782 2.277 . S
Cd774 O783 2.356 . S
C775 O780 1.209 . S
C775 O782 1.226 . S
O776 Cd772 2.273 . S
O776 Cd774 2.411 . S
O776 C779 1.320 . S
O777 Cd774 2.333 . S
O777 C779 1.214 . S
O778 Cd774 2.352 . S
O778 C781 1.258 . S
C779 O776 1.320 . S
C779 O777 1.214 . S
O780 Cd772 2.277 . S
O780 C775 1.209 . S
C781 O778 1.258 . S
C781 O783 1.282 . S
O782 Cd774 2.277 . S
O782 C775 1.226 . S
O783 Cd774 2.356 . S
O783 C781 1.282 . S
C784 O785 1.306 . S
C784 O787 1.160 . S
O785 C784 1.306 . S
O785 Cd786 2.228 . S
Cd786 O785 2.228 . S
Cd786 O790 2.273 . S
Cd786 O794 2.277 . S
O787 C784 1.160 . S
O787 Cd788 2.203 . S
Cd788 O787 2.203 . S
Cd788 O790 2.411 . S
Cd788 O791 2.333 . S
Cd788 O792 2.352 . S
Cd788 O796 2.277 . S
Cd788 O797 2.356 1_554 S
C789 O794 1.209 . S
C789 O796 1.226 . S
O790 Cd786 2.273 . S
O790 Cd788 2.411 . S
O790 C793 1.320 . S
O791 Cd788 2.333 . S
O791 C793 1.214 . S
O792 Cd788 2.352 . S
O792 C795 1.258 1_554 S
C793 O790 1.320 . S
C793 O791 1.214 . S
O794 Cd786 2.277 . S
O794 C789 1.209 . S
C795 O792 1.258 1_556 S
C795 O797 1.282 . S
O796 Cd788 2.277 . S
O796 C789 1.226 . S
O797 Cd788 2.356 1_556 S
O797 C795 1.282 . S
C798 O799 1.306 . S
C798 O801 1.160 . S
O799 C798 1.306 . S
O799 Cd800 2.228 . S
Cd800 O799 2.228 . S
Cd800 O804 2.273 . S
Cd800 O808 2.277 . S
O801 C798 1.160 . S
O801 Cd802 2.203 . S
Cd802 O801 2.203 . S
Cd802 O804 2.411 . S
Cd802 O805 2.333 . S
Cd802 O806 2.352 . S
Cd802 O810 2.277 . S
Cd802 O811 2.356 . S
C803 O808 1.209 . S
C803 O810 1.226 . S
O804 Cd800 2.273 . S
O804 Cd802 2.411 . S
O804 C807 1.320 . S
O805 Cd802 2.333 . S
O805 C807 1.214 . S
O806 Cd802 2.352 . S
O806 C809 1.258 . S
C807 O804 1.320 . S
C807 O805 1.214 . S
O808 Cd800 2.277 . S
O808 C803 1.209 . S
C809 O806 1.258 . S
C809 O811 1.282 . S
O810 Cd802 2.277 . S
O810 C803 1.226 . S
O811 Cd802 2.356 . S
O811 C809 1.282 . S
C812 O813 1.306 . S
C812 O815 1.160 . S
O813 C812 1.306 . S
O813 Cd814 2.228 . S
Cd814 O813 2.228 . S
Cd814 O818 2.273 . S
Cd814 O822 2.277 . S
O815 C812 1.160 . S
O815 Cd816 2.203 . S
Cd816 O815 2.203 . S
Cd816 O818 2.411 . S
Cd816 O819 2.333 . S
Cd816 O820 2.352 . S
Cd816 O824 2.277 . S
Cd816 O825 2.356 . S
C817 O822 1.209 . S
C817 O824 1.226 . S
O818 Cd814 2.273 . S
O818 Cd816 2.411 . S
O818 C821 1.320 . S
O819 Cd816 2.333 . S
O819 C821 1.214 . S
O820 Cd816 2.352 . S
O820 C823 1.258 . S
C821 O818 1.320 . S
C821 O819 1.214 . S
O822 Cd814 2.277 . S
O822 C817 1.209 . S
C823 O820 1.258 . S
C823 O825 1.282 . S
O824 Cd816 2.277 . S
O824 C817 1.226 . S
O825 Cd816 2.356 . S
O825 C823 1.282 . S
C826 O827 1.306 . S
C826 O829 1.160 . S
O827 C826 1.306 . S
O827 Cd828 2.228 . S
Cd828 O827 2.228 . S
Cd828 O832 2.273 . S
Cd828 O836 2.277 . S
O829 C826 1.160 . S
O829 Cd830 2.203 . S
Cd830 O829 2.203 . S
Cd830 O832 2.411 . S
Cd830 O833 2.333 . S
Cd830 O834 2.352 . S
Cd830 O838 2.277 . S
Cd830 O839 2.356 . S
C831 O836 1.209 . S
C831 O838 1.226 . S
O832 Cd828 2.273 . S
O832 Cd830 2.411 . S
O832 C835 1.320 . S
O833 Cd830 2.333 . S
O833 C835 1.214 . S
O834 Cd830 2.352 . S
O834 C837 1.258 . S
C835 O832 1.320 . S
C835 O833 1.214 . S
O836 Cd828 2.277 . S
O836 C831 1.209 . S
C837 O834 1.258 . S
C837 O839 1.282 . S
O838 Cd830 2.277 . S
O838 C831 1.226 . S
O839 Cd830 2.356 . S
O839 C837 1.282 . S
C840 O841 1.306 . S
C840 O843 1.160 . S
O841 C840 1.306 . S
O841 Cd842 2.228 . S
Cd842 O841 2.228 . S
Cd842 O846 2.273 . S
Cd842 O850 2.277 . S
O843 C840 1.160 . S
O843 Cd844 2.203 . S
Cd844 O843 2.203 . S
Cd844 O846 2.411 . S
Cd844 O847 2.333 . S
Cd844 O848 2.352 . S
Cd844 O852 2.277 . S
Cd844 O853 2.356 1_556 S
C845 O850 1.209 . S
C845 O852 1.226 . S
O846 Cd842 2.273 . S
O846 Cd844 2.411 . S
O846 C849 1.320 . S
O847 Cd844 2.333 . S
O847 C849 1.214 . S
O848 Cd844 2.352 . S
O848 C851 1.258 1_556 S
C849 O846 1.320 . S
C849 O847 1.214 . S
O850 Cd842 2.277 . S
O850 C845 1.209 . S
C851 O848 1.258 1_554 S
C851 O853 1.282 . S
O852 Cd844 2.277 . S
O852 C845 1.226 . S
O853 Cd844 2.356 1_554 S
O853 C851 1.282 . S
C854 O855 1.306 . S
C854 O857 1.160 . S
O855 C854 1.306 . S
O855 Cd856 2.228 . S
Cd856 O855 2.228 . S
Cd856 O860 2.273 . S
Cd856 O864 2.277 . S
O857 C854 1.160 . S
O857 Cd858 2.203 . S
Cd858 O857 2.203 . S
Cd858 O860 2.411 . S
Cd858 O861 2.333 . S
Cd858 O862 2.352 . S
Cd858 O866 2.277 . S
Cd858 O867 2.356 . S
C859 O864 1.209 . S
C859 O866 1.226 . S
O860 Cd856 2.273 . S
O860 Cd858 2.411 . S
O860 C863 1.320 . S
O861 Cd858 2.333 . S
O861 C863 1.214 . S
O862 Cd858 2.352 . S
O862 C865 1.258 . S
C863 O860 1.320 . S
C863 O861 1.214 . S
O864 Cd856 2.277 . S
O864 C859 1.209 . S
C865 O862 1.258 . S
C865 O867 1.282 . S
O866 Cd858 2.277 . S
O866 C859 1.226 . S
O867 Cd858 2.356 . S
O867 C865 1.282 . S
C868 O869 1.306 . S
C868 O871 1.160 . S
O869 C868 1.306 . S
O869 Cd870 2.228 . S
Cd870 O869 2.228 . S
Cd870 O874 2.273 . S
Cd870 O878 2.277 . S
O871 C868 1.160 . S
O871 Cd872 2.203 . S
Cd872 O871 2.203 . S
Cd872 O874 2.411 . S
Cd872 O875 2.333 . S
Cd872 O876 2.352 . S
Cd872 O880 2.277 . S
Cd872 O881 2.356 . S
C873 O878 1.209 . S
C873 O880 1.226 . S
O874 Cd870 2.273 . S
O874 Cd872 2.411 . S
O874 C877 1.320 . S
O875 Cd872 2.333 . S
O875 C877 1.214 . S
O876 Cd872 2.352 . S
O876 C879 1.258 . S
C877 O874 1.320 . S
C877 O875 1.214 . S
O878 Cd870 2.277 . S
O878 C873 1.209 . S
C879 O876 1.258 . S
C879 O881 1.282 . S
O880 Cd872 2.277 . S
O880 C873 1.226 . S
O881 Cd872 2.356 . S
O881 C879 1.282 . S
C882 O883 1.306 . S
C882 O885 1.160 . S
O883 C882 1.306 . S
O883 Cd884 2.228 . S
Cd884 O883 2.228 . S
Cd884 O888 2.273 . S
Cd884 O892 2.277 . S
O885 C882 1.160 . S
O885 Cd886 2.203 . S
Cd886 O885 2.203 . S
Cd886 O888 2.411 . S
Cd886 O889 2.333 . S
Cd886 O890 2.352 . S
Cd886 O894 2.277 . S
Cd886 O895 2.356 . S
C887 O892 1.209 . S
C887 O894 1.226 . S
O888 Cd884 2.273 . S
O888 Cd886 2.411 . S
O888 C891 1.320 . S
O889 Cd886 2.333 . S
O889 C891 1.214 . S
O890 Cd886 2.352 . S
O890 C893 1.258 . S
C891 O888 1.320 . S
C891 O889 1.214 . S
O892 Cd884 2.277 . S
O892 C887 1.209 . S
C893 O890 1.258 . S
C893 O895 1.282 . S
O894 Cd886 2.277 . S
O894 C887 1.226 . S
O895 Cd886 2.356 . S
O895 C893 1.282 . S
C896 O897 1.306 . S
C896 O899 1.160 . S
O897 C896 1.306 . S
O897 Cd898 2.228 . S
Cd898 O897 2.228 . S
Cd898 O902 2.273 . S
Cd898 O906 2.277 . S
O899 C896 1.160 . S
O899 Cd900 2.203 . S
Cd900 O899 2.203 . S
Cd900 O902 2.411 . S
Cd900 O903 2.333 . S
Cd900 O904 2.352 . S
Cd900 O908 2.277 . S
Cd900 O909 2.356 1_455 S
C901 O906 1.209 . S
C901 O908 1.226 . S
O902 Cd898 2.273 . S
O902 Cd900 2.411 . S
O902 C905 1.320 . S
O903 Cd900 2.333 . S
O903 C905 1.214 . S
O904 Cd900 2.352 . S
O904 C907 1.258 1_455 S
C905 O902 1.320 . S
C905 O903 1.214 . S
O906 Cd898 2.277 . S
O906 C901 1.209 . S
C907 O904 1.258 1_655 S
C907 O909 1.282 . S
O908 Cd900 2.277 . S
O908 C901 1.226 . S
O909 Cd900 2.356 1_655 S
O909 C907 1.282 . S
C910 O911 1.306 . S
C910 O913 1.160 . S
O911 C910 1.306 . S
O911 Cd912 2.228 . S
Cd912 O911 2.228 . S
Cd912 O916 2.273 . S
Cd912 O920 2.277 . S
O913 C910 1.160 . S
O913 Cd914 2.203 . S
Cd914 O913 2.203 . S
Cd914 O916 2.411 . S
Cd914 O917 2.333 . S
Cd914 O918 2.352 . S
Cd914 O922 2.277 . S
Cd914 O923 2.356 . S
C915 O920 1.209 . S
C915 O922 1.226 . S
O916 Cd912 2.273 . S
O916 Cd914 2.411 . S
O916 C919 1.320 . S
O917 Cd914 2.333 . S
O917 C919 1.214 . S
O918 Cd914 2.352 . S
O918 C921 1.258 . S
C919 O916 1.320 . S
C919 O917 1.214 . S
O920 Cd912 2.277 . S
O920 C915 1.209 . S
C921 O918 1.258 . S
C921 O923 1.282 . S
O922 Cd914 2.277 . S
O922 C915 1.226 . S
O923 Cd914 2.356 . S
O923 C921 1.282 . S
C924 O925 1.306 . S
C924 O927 1.160 . S
O925 C924 1.306 . S
O925 Cd926 2.228 . S
Cd926 O925 2.228 . S
Cd926 O930 2.273 . S
Cd926 O934 2.277 . S
O927 C924 1.160 . S
O927 Cd928 2.203 . S
Cd928 O927 2.203 . S
Cd928 O930 2.411 . S
Cd928 O931 2.333 . S
Cd928 O932 2.352 . S
Cd928 O936 2.277 . S
Cd928 O937 2.356 . S
C929 O934 1.209 . S
C929 O936 1.226 . S
O930 Cd926 2.273 . S
O930 Cd928 2.411 . S
O930 C933 1.320 . S
O931 Cd928 2.333 . S
O931 C933 1.214 . S
O932 Cd928 2.352 . S
O932 C935 1.258 . S
C933 O930 1.320 . S
C933 O931 1.214 . S
O934 Cd926 2.277 . S
O934 C929 1.209 . S
C935 O932 1.258 . S
C935 O937 1.282 . S
O936 Cd928 2.277 . S
O936 C929 1.226 . S
O937 Cd928 2.356 . S
O937 C935 1.282 . S
C938 O939 1.306 . S
C938 O941 1.160 . S
O939 C938 1.306 . S
O939 Cd940 2.228 . S
Cd940 O939 2.228 . S
Cd940 O944 2.273 . S
Cd940 O948 2.277 . S
O941 C938 1.160 . S
O941 Cd942 2.203 . S
Cd942 O941 2.203 . S
Cd942 O944 2.411 . S
Cd942 O945 2.333 . S
Cd942 O946 2.352 . S
Cd942 O950 2.277 . S
Cd942 O951 2.356 . S
C943 O948 1.209 . S
C943 O950 1.226 . S
O944 Cd940 2.273 . S
O944 Cd942 2.411 . S
O944 C947 1.320 . S
O945 Cd942 2.333 . S
O945 C947 1.214 . S
O946 Cd942 2.352 . S
O946 C949 1.258 . S
C947 O944 1.320 . S
C947 O945 1.214 . S
O948 Cd940 2.277 . S
O948 C943 1.209 . S
C949 O946 1.258 . S
C949 O951 1.282 . S
O950 Cd942 2.277 . S
O950 C943 1.226 . S
O951 Cd942 2.356 . S
O951 C949 1.282 . S
C952 O953 1.306 . S
C952 O955 1.160 . S
O953 C952 1.306 . S
O953 Cd954 2.228 . S
Cd954 O953 2.228 . S
Cd954 O958 2.273 . S
Cd954 O962 2.277 . S
O955 C952 1.160 . S
O955 Cd956 2.203 . S
Cd956 O955 2.203 . S
Cd956 O958 2.411 . S
Cd956 O959 2.333 . S
Cd956 O960 2.352 . S
Cd956 O964 2.277 . S
Cd956 O965 2.356 . S
C957 O962 1.209 . S
C957 O964 1.226 . S
O958 Cd954 2.273 . S
O958 Cd956 2.411 . S
O958 C961 1.320 . S
O959 Cd956 2.333 . S
O959 C961 1.214 . S
O960 Cd956 2.352 . S
O960 C963 1.258 . S
C961 O958 1.320 . S
C961 O959 1.214 . S
O962 Cd954 2.277 . S
O962 C957 1.209 . S
C963 O960 1.258 . S
C963 O965 1.282 . S
O964 Cd956 2.277 . S
O964 C957 1.226 . S
O965 Cd956 2.356 . S
O965 C963 1.282 . S
C966 O967 1.306 . S
C966 O969 1.160 . S
O967 C966 1.306 . S
O967 Cd968 2.228 . S
Cd968 O967 2.228 . S
Cd968 O972 2.273 . S
Cd968 O976 2.277 . S
O969 C966 1.160 . S
O969 Cd970 2.203 . S
Cd970 O969 2.203 . S
Cd970 O972 2.411 . S
Cd970 O973 2.333 . S
Cd970 O974 2.352 . S
Cd970 O978 2.277 . S
Cd970 O979 2.356 1_655 S
C971 O976 1.209 . S
C971 O978 1.226 . S
O972 Cd968 2.273 . S
O972 Cd970 2.411 . S
O972 C975 1.320 . S
O973 Cd970 2.333 . S
O973 C975 1.214 . S
O974 Cd970 2.352 . S
O974 C977 1.258 1_655 S
C975 O972 1.320 . S
C975 O973 1.214 . S
O976 Cd968 2.277 . S
O976 C971 1.209 . S
C977 O974 1.258 1_455 S
C977 O979 1.282 . S
O978 Cd970 2.277 . S
O978 C971 1.226 . S
O979 Cd970 2.356 1_455 S
O979 C977 1.282 . S
C980 O981 1.306 . S
C980 O983 1.160 . S
O981 C980 1.306 . S
O981 Cd982 2.228 . S
Cd982 O981 2.228 . S
Cd982 O986 2.273 . S
Cd982 O990 2.277 . S
O983 C980 1.160 . S
O983 Cd984 2.203 . S
Cd984 O983 2.203 . S
Cd984 O986 2.411 . S
Cd984 O987 2.333 . S
Cd984 O988 2.352 . S
Cd984 O992 2.277 . S
Cd984 O993 2.356 . S
C985 O990 1.209 . S
C985 O992 1.226 . S
O986 Cd982 2.273 . S
O986 Cd984 2.411 . S
O986 C989 1.320 . S
O987 Cd984 2.333 . S
O987 C989 1.214 . S
O988 Cd984 2.352 . S
O988 C991 1.258 . S
C989 O986 1.320 . S
C989 O987 1.214 . S
O990 Cd982 2.277 . S
O990 C985 1.209 . S
C991 O988 1.258 . S
C991 O993 1.282 . S
O992 Cd984 2.277 . S
O992 C985 1.226 . S
O993 Cd984 2.356 . S
O993 C991 1.282 . S
C994 O995 1.306 . S
C994 O997 1.160 . S
O995 C994 1.306 . S
O995 Cd996 2.228 . S
Cd996 O995 2.228 . S
Cd996 O1000 2.273 . S
Cd996 O1004 2.277 . S
O997 C994 1.160 . S
O997 Cd998 2.203 . S
Cd998 O997 2.203 . S
Cd998 O1000 2.411 . S
Cd998 O1001 2.333 . S
Cd998 O1002 2.352 . S
Cd998 O1006 2.277 . S
Cd998 O1007 2.356 . S
C999 O1004 1.209 . S
C999 O1006 1.226 . S
O1000 Cd996 2.273 . S
O1000 Cd998 2.411 . S
O1000 C1003 1.320 . S
O1001 Cd998 2.333 . S
O1001 C1003 1.214 . S
O1002 Cd998 2.352 . S
O1002 C1005 1.258 . S
C1003 O1000 1.320 . S
C1003 O1001 1.214 . S
O1004 Cd996 2.277 . S
O1004 C999 1.209 . S
C1005 O1002 1.258 . S
C1005 O1007 1.282 . S
O1006 Cd998 2.277 . S
O1006 C999 1.226 . S
O1007 Cd998 2.356 . S
O1007 C1005 1.282 . S
C1008 O1009 1.306 . S
C1008 O1011 1.160 . S
O1009 C1008 1.306 . S
O1009 Cd1010 2.228 . S
Cd1010 O1009 2.228 . S
Cd1010 O1014 2.273 . S
Cd1010 O1018 2.277 . S
O1011 C1008 1.160 . S
O1011 Cd1012 2.203 . S
Cd1012 O1011 2.203 . S
Cd1012 O1014 2.411 . S
Cd1012 O1015 2.333 . S
Cd1012 O1016 2.352 . S
Cd1012 O1020 2.277 . S
Cd1012 O1021 2.356 1_545 S
C1013 O1018 1.209 . S
C1013 O1020 1.226 . S
O1014 Cd1010 2.273 . S
O1014 Cd1012 2.411 . S
O1014 C1017 1.320 . S
O1015 Cd1012 2.333 . S
O1015 C1017 1.214 . S
O1016 Cd1012 2.352 . S
O1016 C1019 1.258 1_545 S
C1017 O1014 1.320 . S
C1017 O1015 1.214 . S
O1018 Cd1010 2.277 . S
O1018 C1013 1.209 . S
C1019 O1016 1.258 1_565 S
C1019 O1021 1.282 . S
O1020 Cd1012 2.277 . S
O1020 C1013 1.226 . S
O1021 Cd1012 2.356 1_565 S
O1021 C1019 1.282 . S
C1022 O1023 1.306 . S
C1022 O1025 1.160 . S
O1023 C1022 1.306 . S
O1023 Cd1024 2.228 . S
Cd1024 O1023 2.228 . S
Cd1024 O1028 2.273 . S
Cd1024 O1032 2.277 . S
O1025 C1022 1.160 . S
O1025 Cd1026 2.203 . S
Cd1026 O1025 2.203 . S
Cd1026 O1028 2.411 . S
Cd1026 O1029 2.333 . S
Cd1026 O1030 2.352 . S
Cd1026 O1034 2.277 . S
Cd1026 O1035 2.356 . S
C1027 O1032 1.209 . S
C1027 O1034 1.226 . S
O1028 Cd1024 2.273 . S
O1028 Cd1026 2.411 . S
O1028 C1031 1.320 . S
O1029 Cd1026 2.333 . S
O1029 C1031 1.214 . S
O1030 Cd1026 2.352 . S
O1030 C1033 1.258 . S
C1031 O1028 1.320 . S
C1031 O1029 1.214 . S
O1032 Cd1024 2.277 . S
O1032 C1027 1.209 . S
C1033 O1030 1.258 . S
C1033 O1035 1.282 . S
O1034 Cd1026 2.277 . S
O1034 C1027 1.226 . S
O1035 Cd1026 2.356 . S
O1035 C1033 1.282 . S
C1036 O1037 1.306 . S
C1036 O1039 1.160 . S
O1037 C1036 1.306 . S
O1037 Cd1038 2.228 . S
Cd1038 O1037 2.228 . S
Cd1038 O1042 2.273 . S
Cd1038 O1046 2.277 . S
O1039 C1036 1.160 . S
O1039 Cd1040 2.203 . S
Cd1040 O1039 2.203 . S
Cd1040 O1042 2.411 . S
Cd1040 O1043 2.333 . S
Cd1040 O1044 2.352 . S
Cd1040 O1048 2.277 . S
Cd1040 O1049 2.356 . S
C1041 O1046 1.209 . S
C1041 O1048 1.226 . S
O1042 Cd1038 2.273 . S
O1042 Cd1040 2.411 . S
O1042 C1045 1.320 . S
O1043 Cd1040 2.333 . S
O1043 C1045 1.214 . S
O1044 Cd1040 2.352 . S
O1044 C1047 1.258 . S
C1045 O1042 1.320 . S
C1045 O1043 1.214 . S
O1046 Cd1038 2.277 . S
O1046 C1041 1.209 . S
C1047 O1044 1.258 . S
C1047 O1049 1.282 . S
O1048 Cd1040 2.277 . S
O1048 C1041 1.226 . S
O1049 Cd1040 2.356 . S
O1049 C1047 1.282 . S
C1050 O1051 1.306 . S
C1050 O1053 1.160 . S
O1051 C1050 1.306 . S
O1051 Cd1052 2.228 . S
Cd1052 O1051 2.228 . S
Cd1052 O1056 2.273 . S
Cd1052 O1060 2.277 . S
O1053 C1050 1.160 . S
O1053 Cd1054 2.203 . S
Cd1054 O1053 2.203 . S
Cd1054 O1056 2.411 . S
Cd1054 O1057 2.333 . S
Cd1054 O1058 2.352 . S
Cd1054 O1062 2.277 . S
Cd1054 O1063 2.356 . S
C1055 O1060 1.209 . S
C1055 O1062 1.226 . S
O1056 Cd1052 2.273 . S
O1056 Cd1054 2.411 . S
O1056 C1059 1.320 . S
O1057 Cd1054 2.333 . S
O1057 C1059 1.214 . S
O1058 Cd1054 2.352 . S
O1058 C1061 1.258 . S
C1059 O1056 1.320 . S
C1059 O1057 1.214 . S
O1060 Cd1052 2.277 . S
O1060 C1055 1.209 . S
C1061 O1058 1.258 . S
C1061 O1063 1.282 . S
O1062 Cd1054 2.277 . S
O1062 C1055 1.226 . S
O1063 Cd1054 2.356 . S
O1063 C1061 1.282 . S
C1064 O1065 1.306 . S
C1064 O1067 1.160 . S
O1065 C1064 1.306 . S
O1065 Cd1066 2.228 . S
Cd1066 O1065 2.228 . S
Cd1066 O1070 2.273 . S
Cd1066 O1074 2.277 . S
O1067 C1064 1.160 . S
O1067 Cd1068 2.203 . S
Cd1068 O1067 2.203 . S
Cd1068 O1070 2.411 . S
Cd1068 O1071 2.333 . S
Cd1068 O1072 2.352 . S
Cd1068 O1076 2.277 . S
Cd1068 O1077 2.356 1_565 S
C1069 O1074 1.209 . S
C1069 O1076 1.226 . S
O1070 Cd1066 2.273 . S
O1070 Cd1068 2.411 . S
O1070 C1073 1.320 . S
O1071 Cd1068 2.333 . S
O1071 C1073 1.214 . S
O1072 Cd1068 2.352 . S
O1072 C1075 1.258 1_565 S
C1073 O1070 1.320 . S
C1073 O1071 1.214 . S
O1074 Cd1066 2.277 . S
O1074 C1069 1.209 . S
C1075 O1072 1.258 1_545 S
C1075 O1077 1.282 . S
O1076 Cd1068 2.277 . S
O1076 C1069 1.226 . S
O1077 Cd1068 2.356 1_545 S
O1077 C1075 1.282 . S
C1078 O1079 1.306 . S
C1078 O1081 1.160 . S
O1079 C1078 1.306 . S
O1079 Cd1080 2.228 . S
Cd1080 O1079 2.228 . S
Cd1080 O1084 2.273 . S
Cd1080 O1088 2.277 . S
O1081 C1078 1.160 . S
O1081 Cd1082 2.203 . S
Cd1082 O1081 2.203 . S
Cd1082 O1084 2.411 . S
Cd1082 O1085 2.333 . S
Cd1082 O1086 2.352 . S
Cd1082 O1090 2.277 . S
Cd1082 O1091 2.356 . S
C1083 O1088 1.209 . S
C1083 O1090 1.226 . S
O1084 Cd1080 2.273 . S
O1084 Cd1082 2.411 . S
O1084 C1087 1.320 . S
O1085 Cd1082 2.333 . S
O1085 C1087 1.214 . S
O1086 Cd1082 2.352 . S
O1086 C1089 1.258 . S
C1087 O1084 1.320 . S
C1087 O1085 1.214 . S
O1088 Cd1080 2.277 . S
O1088 C1083 1.209 . S
C1089 O1086 1.258 . S
C1089 O1091 1.282 . S
O1090 Cd1082 2.277 . S
O1090 C1083 1.226 . S
O1091 Cd1082 2.356 . S
O1091 C1089 1.282 . S
C1092 O1093 1.306 . S
C1092 O1095 1.160 . S
O1093 C1092 1.306 . S
O1093 Cd1094 2.228 . S
Cd1094 O1093 2.228 . S
Cd1094 O1098 2.273 . S
Cd1094 O1102 2.277 . S
O1095 C1092 1.160 . S
O1095 Cd1096 2.203 . S
Cd1096 O1095 2.203 . S
Cd1096 O1098 2.411 . S
Cd1096 O1099 2.333 . S
Cd1096 O1100 2.352 . S
Cd1096 O1104 2.277 . S
Cd1096 O1105 2.356 . S
C1097 O1102 1.209 . S
C1097 O1104 1.226 . S
O1098 Cd1094 2.273 . S
O1098 Cd1096 2.411 . S
O1098 C1101 1.320 . S
O1099 Cd1096 2.333 . S
O1099 C1101 1.214 . S
O1100 Cd1096 2.352 . S
O1100 C1103 1.258 . S
C1101 O1098 1.320 . S
C1101 O1099 1.214 . S
O1102 Cd1094 2.277 . S
O1102 C1097 1.209 . S
C1103 O1100 1.258 . S
C1103 O1105 1.282 . S
O1104 Cd1096 2.277 . S
O1104 C1097 1.226 . S
O1105 Cd1096 2.356 . S
O1105 C1103 1.282 . S
C1106 O1107 1.306 . S
C1106 O1109 1.160 . S
O1107 C1106 1.306 . S
O1107 Cd1108 2.228 . S
Cd1108 O1107 2.228 . S
Cd1108 O1112 2.273 . S
Cd1108 O1116 2.277 . S
O1109 C1106 1.160 . S
O1109 Cd1110 2.203 . S
Cd1110 O1109 2.203 . S
Cd1110 O1112 2.411 . S
Cd1110 O1113 2.333 . S
Cd1110 O1114 2.352 . S
Cd1110 O1118 2.277 . S
Cd1110 O1119 2.356 . S
C1111 O1116 1.209 . S
C1111 O1118 1.226 . S
O1112 Cd1108 2.273 . S
O1112 Cd1110 2.411 . S
O1112 C1115 1.320 . S
O1113 Cd1110 2.333 . S
O1113 C1115 1.214 . S
O1114 Cd1110 2.352 . S
O1114 C1117 1.258 . S
C1115 O1112 1.320 . S
C1115 O1113 1.214 . S
O1116 Cd1108 2.277 . S
O1116 C1111 1.209 . S
C1117 O1114 1.258 . S
C1117 O1119 1.282 . S
O1118 Cd1110 2.277 . S
O1118 C1111 1.226 . S
O1119 Cd1110 2.356 . S
O1119 C1117 1.282 . S
C1120 O1121 1.306 . S
C1120 O1123 1.160 . S
O1121 C1120 1.306 . S
O1121 Cd1122 2.228 . S
Cd1122 O1121 2.228 . S
Cd1122 O1126 2.273 . S
Cd1122 O1130 2.277 . S
O1123 C1120 1.160 . S
O1123 Cd1124 2.203 . S
Cd1124 O1123 2.203 . S
Cd1124 O1126 2.411 . S
Cd1124 O1127 2.333 . S
Cd1124 O1128 2.352 . S
Cd1124 O1132 2.277 . S
Cd1124 O1133 2.356 . S
C1125 O1130 1.209 . S
C1125 O1132 1.226 . S
O1126 Cd1122 2.273 . S
O1126 Cd1124 2.411 . S
O1126 C1129 1.320 . S
O1127 Cd1124 2.333 . S
O1127 C1129 1.214 . S
O1128 Cd1124 2.352 . S
O1128 C1131 1.258 . S
C1129 O1126 1.320 . S
C1129 O1127 1.214 . S
O1130 Cd1122 2.277 . S
O1130 C1125 1.209 . S
C1131 O1128 1.258 . S
C1131 O1133 1.282 . S
O1132 Cd1124 2.277 . S
O1132 C1125 1.226 . S
O1133 Cd1124 2.356 . S
O1133 C1131 1.282 . S
C1134 O1135 1.306 . S
C1134 O1137 1.160 . S
O1135 C1134 1.306 . S
O1135 Cd1136 2.228 . S
Cd1136 O1135 2.228 . S
Cd1136 O1140 2.273 . S
Cd1136 O1144 2.277 . S
O1137 C1134 1.160 . S
O1137 Cd1138 2.203 . S
Cd1138 O1137 2.203 . S
Cd1138 O1140 2.411 . S
Cd1138 O1141 2.333 . S
Cd1138 O1142 2.352 . S
Cd1138 O1146 2.277 . S
Cd1138 O1147 2.356 . S
C1139 O1144 1.209 . S
C1139 O1146 1.226 . S
O1140 Cd1136 2.273 . S
O1140 Cd1138 2.411 . S
O1140 C1143 1.320 . S
O1141 Cd1138 2.333 . S
O1141 C1143 1.214 . S
O1142 Cd1138 2.352 . S
O1142 C1145 1.258 . S
C1143 O1140 1.320 . S
C1143 O1141 1.214 . S
O1144 Cd1136 2.277 . S
O1144 C1139 1.209 . S
C1145 O1142 1.258 . S
C1145 O1147 1.282 . S
O1146 Cd1138 2.277 . S
O1146 C1139 1.226 . S
O1147 Cd1138 2.356 . S
O1147 C1145 1.282 . S
C1148 O1149 1.306 . S
C1148 O1151 1.160 . S
O1149 C1148 1.306 . S
O1149 Cd1150 2.228 . S
Cd1150 O1149 2.228 . S
Cd1150 O1154 2.273 . S
Cd1150 O1158 2.277 . S
O1151 C1148 1.160 . S
O1151 Cd1152 2.203 . S
Cd1152 O1151 2.203 . S
Cd1152 O1154 2.411 . S
Cd1152 O1155 2.333 . S
Cd1152 O1156 2.352 . S
Cd1152 O1160 2.277 . S
Cd1152 O1161 2.356 1_554 S
C1153 O1158 1.209 . S
C1153 O1160 1.226 . S
O1154 Cd1150 2.273 . S
O1154 Cd1152 2.411 . S
O1154 C1157 1.320 . S
O1155 Cd1152 2.333 . S
O1155 C1157 1.214 . S
O1156 Cd1152 2.352 . S
O1156 C1159 1.258 1_554 S
C1157 O1154 1.320 . S
C1157 O1155 1.214 . S
O1158 Cd1150 2.277 . S
O1158 C1153 1.209 . S
C1159 O1156 1.258 1_556 S
C1159 O1161 1.282 . S
O1160 Cd1152 2.277 . S
O1160 C1153 1.226 . S
O1161 Cd1152 2.356 1_556 S
O1161 C1159 1.282 . S
C1162 O1163 1.306 . S
C1162 O1165 1.160 . S
O1163 C1162 1.306 . S
O1163 Cd1164 2.228 . S
Cd1164 O1163 2.228 . S
Cd1164 O1168 2.273 . S
Cd1164 O1172 2.277 . S
O1165 C1162 1.160 . S
O1165 Cd1166 2.203 . S
Cd1166 O1165 2.203 . S
Cd1166 O1168 2.411 . S
Cd1166 O1169 2.333 . S
Cd1166 O1170 2.352 . S
Cd1166 O1174 2.277 . S
Cd1166 O1175 2.356 . S
C1167 O1172 1.209 . S
C1167 O1174 1.226 . S
O1168 Cd1164 2.273 . S
O1168 Cd1166 2.411 . S
O1168 C1171 1.320 . S
O1169 Cd1166 2.333 . S
O1169 C1171 1.214 . S
O1170 Cd1166 2.352 . S
O1170 C1173 1.258 . S
C1171 O1168 1.320 . S
C1171 O1169 1.214 . S
O1172 Cd1164 2.277 . S
O1172 C1167 1.209 . S
C1173 O1170 1.258 . S
C1173 O1175 1.282 . S
O1174 Cd1166 2.277 . S
O1174 C1167 1.226 . S
O1175 Cd1166 2.356 . S
O1175 C1173 1.282 . S
C1176 O1177 1.306 . S
C1176 O1179 1.160 . S
O1177 C1176 1.306 . S
O1177 Cd1178 2.228 . S
Cd1178 O1177 2.228 . S
Cd1178 O1182 2.273 . S
Cd1178 O1186 2.277 . S
O1179 C1176 1.160 . S
O1179 Cd1180 2.203 . S
Cd1180 O1179 2.203 . S
Cd1180 O1182 2.411 . S
Cd1180 O1183 2.333 . S
Cd1180 O1184 2.352 . S
Cd1180 O1188 2.277 . S
Cd1180 O1189 2.356 . S
C1181 O1186 1.209 . S
C1181 O1188 1.226 . S
O1182 Cd1178 2.273 . S
O1182 Cd1180 2.411 . S
O1182 C1185 1.320 . S
O1183 Cd1180 2.333 . S
O1183 C1185 1.214 . S
O1184 Cd1180 2.352 . S
O1184 C1187 1.258 . S
C1185 O1182 1.320 . S
C1185 O1183 1.214 . S
O1186 Cd1178 2.277 . S
O1186 C1181 1.209 . S
C1187 O1184 1.258 . S
C1187 O1189 1.282 . S
O1188 Cd1180 2.277 . S
O1188 C1181 1.226 . S
O1189 Cd1180 2.356 . S
O1189 C1187 1.282 . S
C1190 O1191 1.306 . S
C1190 O1193 1.160 . S
O1191 C1190 1.306 . S
O1191 Cd1192 2.228 . S
Cd1192 O1191 2.228 . S
Cd1192 O1196 2.273 . S
Cd1192 O1200 2.277 . S
O1193 C1190 1.160 . S
O1193 Cd1194 2.203 . S
Cd1194 O1193 2.203 . S
Cd1194 O1196 2.411 . S
Cd1194 O1197 2.333 . S
Cd1194 O1198 2.352 . S
Cd1194 O1202 2.277 . S
Cd1194 O1203 2.356 . S
C1195 O1200 1.209 . S
C1195 O1202 1.226 . S
O1196 Cd1192 2.273 . S
O1196 Cd1194 2.411 . S
O1196 C1199 1.320 . S
O1197 Cd1194 2.333 . S
O1197 C1199 1.214 . S
O1198 Cd1194 2.352 . S
O1198 C1201 1.258 . S
C1199 O1196 1.320 . S
C1199 O1197 1.214 . S
O1200 Cd1192 2.277 . S
O1200 C1195 1.209 . S
C1201 O1198 1.258 . S
C1201 O1203 1.282 . S
O1202 Cd1194 2.277 . S
O1202 C1195 1.226 . S
O1203 Cd1194 2.356 . S
O1203 C1201 1.282 . S
C1204 O1205 1.306 . S
C1204 O1207 1.160 . S
O1205 C1204 1.306 . S
O1205 Cd1206 2.228 . S
Cd1206 O1205 2.228 . S
Cd1206 O1210 2.273 . S
Cd1206 O1214 2.277 . S
O1207 C1204 1.160 . S
O1207 Cd1208 2.203 . S
Cd1208 O1207 2.203 . S
Cd1208 O1210 2.411 . S
Cd1208 O1211 2.333 . S
Cd1208 O1212 2.352 . S
Cd1208 O1216 2.277 . S
Cd1208 O1217 2.356 1_556 S
C1209 O1214 1.209 . S
C1209 O1216 1.226 . S
O1210 Cd1206 2.273 . S
O1210 Cd1208 2.411 . S
O1210 C1213 1.320 . S
O1211 Cd1208 2.333 . S
O1211 C1213 1.214 . S
O1212 Cd1208 2.352 . S
O1212 C1215 1.258 1_556 S
C1213 O1210 1.320 . S
C1213 O1211 1.214 . S
O1214 Cd1206 2.277 . S
O1214 C1209 1.209 . S
C1215 O1212 1.258 1_554 S
C1215 O1217 1.282 . S
O1216 Cd1208 2.277 . S
O1216 C1209 1.226 . S
O1217 Cd1208 2.356 1_554 S
O1217 C1215 1.282 . S
C1218 O1219 1.306 . S
C1218 O1221 1.160 . S
O1219 C1218 1.306 . S
O1219 Cd1220 2.228 . S
Cd1220 O1219 2.228 . S
Cd1220 O1224 2.273 . S
Cd1220 O1228 2.277 . S
O1221 C1218 1.160 . S
O1221 Cd1222 2.203 . S
Cd1222 O1221 2.203 . S
Cd1222 O1224 2.411 . S
Cd1222 O1225 2.333 . S
Cd1222 O1226 2.352 . S
Cd1222 O1230 2.277 . S
Cd1222 O1231 2.356 . S
C1223 O1228 1.209 . S
C1223 O1230 1.226 . S
O1224 Cd1220 2.273 . S
O1224 Cd1222 2.411 . S
O1224 C1227 1.320 . S
O1225 Cd1222 2.333 . S
O1225 C1227 1.214 . S
O1226 Cd1222 2.352 . S
O1226 C1229 1.258 . S
C1227 O1224 1.320 . S
C1227 O1225 1.214 . S
O1228 Cd1220 2.277 . S
O1228 C1223 1.209 . S
C1229 O1226 1.258 . S
C1229 O1231 1.282 . S
O1230 Cd1222 2.277 . S
O1230 C1223 1.226 . S
O1231 Cd1222 2.356 . S
O1231 C1229 1.282 . S
C1232 O1233 1.306 . S
C1232 O1235 1.160 . S
O1233 C1232 1.306 . S
O1233 Cd1234 2.228 . S
Cd1234 O1233 2.228 . S
Cd1234 O1238 2.273 . S
Cd1234 O1242 2.277 . S
O1235 C1232 1.160 . S
O1235 Cd1236 2.203 . S
Cd1236 O1235 2.203 . S
Cd1236 O1238 2.411 . S
Cd1236 O1239 2.333 . S
Cd1236 O1240 2.352 . S
Cd1236 O1244 2.277 . S
Cd1236 O1245 2.356 1_455 S
C1237 O1242 1.209 . S
C1237 O1244 1.226 . S
O1238 Cd1234 2.273 . S
O1238 Cd1236 2.411 . S
O1238 C1241 1.320 . S
O1239 Cd1236 2.333 . S
O1239 C1241 1.214 . S
O1240 Cd1236 2.352 . S
O1240 C1243 1.258 1_455 S
C1241 O1238 1.320 . S
C1241 O1239 1.214 . S
O1242 Cd1234 2.277 . S
O1242 C1237 1.209 . S
C1243 O1240 1.258 1_655 S
C1243 O1245 1.282 . S
O1244 Cd1236 2.277 . S
O1244 C1237 1.226 . S
O1245 Cd1236 2.356 1_655 S
O1245 C1243 1.282 . S
C1246 O1247 1.306 . S
C1246 O1249 1.160 . S
O1247 C1246 1.306 . S
O1247 Cd1248 2.228 . S
Cd1248 O1247 2.228 . S
Cd1248 O1252 2.273 . S
Cd1248 O1256 2.277 . S
O1249 C1246 1.160 . S
O1249 Cd1250 2.203 . S
Cd1250 O1249 2.203 . S
Cd1250 O1252 2.411 . S
Cd1250 O1253 2.333 . S
Cd1250 O1254 2.352 . S
Cd1250 O1258 2.277 . S
Cd1250 O1259 2.356 . S
C1251 O1256 1.209 . S
C1251 O1258 1.226 . S
O1252 Cd1248 2.273 . S
O1252 Cd1250 2.411 . S
O1252 C1255 1.320 . S
O1253 Cd1250 2.333 . S
O1253 C1255 1.214 . S
O1254 Cd1250 2.352 . S
O1254 C1257 1.258 . S
C1255 O1252 1.320 . S
C1255 O1253 1.214 . S
O1256 Cd1248 2.277 . S
O1256 C1251 1.209 . S
C1257 O1254 1.258 . S
C1257 O1259 1.282 . S
O1258 Cd1250 2.277 . S
O1258 C1251 1.226 . S
O1259 Cd1250 2.356 . S
O1259 C1257 1.282 . S
C1260 O1261 1.306 . S
C1260 O1263 1.160 . S
O1261 C1260 1.306 . S
O1261 Cd1262 2.228 . S
Cd1262 O1261 2.228 . S
Cd1262 O1266 2.273 . S
Cd1262 O1270 2.277 . S
O1263 C1260 1.160 . S
O1263 Cd1264 2.203 . S
Cd1264 O1263 2.203 . S
Cd1264 O1266 2.411 . S
Cd1264 O1267 2.333 . S
Cd1264 O1268 2.352 . S
Cd1264 O1272 2.277 . S
Cd1264 O1273 2.356 . S
C1265 O1270 1.209 . S
C1265 O1272 1.226 . S
O1266 Cd1262 2.273 . S
O1266 Cd1264 2.411 . S
O1266 C1269 1.320 . S
O1267 Cd1264 2.333 . S
O1267 C1269 1.214 . S
O1268 Cd1264 2.352 . S
O1268 C1271 1.258 . S
C1269 O1266 1.320 . S
C1269 O1267 1.214 . S
O1270 Cd1262 2.277 . S
O1270 C1265 1.209 . S
C1271 O1268 1.258 . S
C1271 O1273 1.282 . S
O1272 Cd1264 2.277 . S
O1272 C1265 1.226 . S
O1273 Cd1264 2.356 . S
O1273 C1271 1.282 . S
C1274 O1275 1.306 . S
C1274 O1277 1.160 . S
O1275 C1274 1.306 . S
O1275 Cd1276 2.228 . S
Cd1276 O1275 2.228 . S
Cd1276 O1280 2.273 . S
Cd1276 O1284 2.277 . S
O1277 C1274 1.160 . S
O1277 Cd1278 2.203 . S
Cd1278 O1277 2.203 . S
Cd1278 O1280 2.411 . S
Cd1278 O1281 2.333 . S
Cd1278 O1282 2.352 . S
Cd1278 O1286 2.277 . S
Cd1278 O1287 2.356 . S
C1279 O1284 1.209 . S
C1279 O1286 1.226 . S
O1280 Cd1276 2.273 . S
O1280 Cd1278 2.411 . S
O1280 C1283 1.320 . S
O1281 Cd1278 2.333 . S
O1281 C1283 1.214 . S
O1282 Cd1278 2.352 . S
O1282 C1285 1.258 . S
C1283 O1280 1.320 . S
C1283 O1281 1.214 . S
O1284 Cd1276 2.277 . S
O1284 C1279 1.209 . S
C1285 O1282 1.258 . S
C1285 O1287 1.282 . S
O1286 Cd1278 2.277 . S
O1286 C1279 1.226 . S
O1287 Cd1278 2.356 . S
O1287 C1285 1.282 . S
C1288 O1289 1.306 . S
C1288 O1291 1.160 . S
O1289 C1288 1.306 . S
O1289 Cd1290 2.228 . S
Cd1290 O1289 2.228 . S
Cd1290 O1294 2.273 . S
Cd1290 O1298 2.277 . S
O1291 C1288 1.160 . S
O1291 Cd1292 2.203 . S
Cd1292 O1291 2.203 . S
Cd1292 O1294 2.411 . S
Cd1292 O1295 2.333 . S
Cd1292 O1296 2.352 . S
Cd1292 O1300 2.277 . S
Cd1292 O1301 2.356 . S
C1293 O1298 1.209 . S
C1293 O1300 1.226 . S
O1294 Cd1290 2.273 . S
O1294 Cd1292 2.411 . S
O1294 C1297 1.320 . S
O1295 Cd1292 2.333 . S
O1295 C1297 1.214 . S
O1296 Cd1292 2.352 . S
O1296 C1299 1.258 . S
C1297 O1294 1.320 . S
C1297 O1295 1.214 . S
O1298 Cd1290 2.277 . S
O1298 C1293 1.209 . S
C1299 O1296 1.258 . S
C1299 O1301 1.282 . S
O1300 Cd1292 2.277 . S
O1300 C1293 1.226 . S
O1301 Cd1292 2.356 . S
O1301 C1299 1.282 . S
C1302 O1303 1.306 . S
C1302 O1305 1.160 . S
O1303 C1302 1.306 . S
O1303 Cd1304 2.228 . S
Cd1304 O1303 2.228 . S
Cd1304 O1308 2.273 . S
Cd1304 O1312 2.277 . S
O1305 C1302 1.160 . S
O1305 Cd1306 2.203 . S
Cd1306 O1305 2.203 . S
Cd1306 O1308 2.411 . S
Cd1306 O1309 2.333 . S
Cd1306 O1310 2.352 . S
Cd1306 O1314 2.277 . S
Cd1306 O1315 2.356 1_655 S
C1307 O1312 1.209 . S
C1307 O1314 1.226 . S
O1308 Cd1304 2.273 . S
O1308 Cd1306 2.411 . S
O1308 C1311 1.320 . S
O1309 Cd1306 2.333 . S
O1309 C1311 1.214 . S
O1310 Cd1306 2.352 . S
O1310 C1313 1.258 1_655 S
C1311 O1308 1.320 . S
C1311 O1309 1.214 . S
O1312 Cd1304 2.277 . S
O1312 C1307 1.209 . S
C1313 O1310 1.258 1_455 S
C1313 O1315 1.282 . S
O1314 Cd1306 2.277 . S
O1314 C1307 1.226 . S
O1315 Cd1306 2.356 1_455 S
O1315 C1313 1.282 . S
C1316 O1317 1.306 . S
C1316 O1319 1.160 . S
O1317 C1316 1.306 . S
O1317 Cd1318 2.228 . S
Cd1318 O1317 2.228 . S
Cd1318 O1322 2.273 . S
Cd1318 O1326 2.277 . S
O1319 C1316 1.160 . S
O1319 Cd1320 2.203 . S
Cd1320 O1319 2.203 . S
Cd1320 O1322 2.411 . S
Cd1320 O1323 2.333 . S
Cd1320 O1324 2.352 . S
Cd1320 O1328 2.277 . S
Cd1320 O1329 2.356 . S
C1321 O1326 1.209 . S
C1321 O1328 1.226 . S
O1322 Cd1318 2.273 . S
O1322 Cd1320 2.411 . S
O1322 C1325 1.320 . S
O1323 Cd1320 2.333 . S
O1323 C1325 1.214 . S
O1324 Cd1320 2.352 . S
O1324 C1327 1.258 . S
C1325 O1322 1.320 . S
C1325 O1323 1.214 . S
O1326 Cd1318 2.277 . S
O1326 C1321 1.209 . S
C1327 O1324 1.258 . S
C1327 O1329 1.282 . S
O1328 Cd1320 2.277 . S
O1328 C1321 1.226 . S
O1329 Cd1320 2.356 . S
O1329 C1327 1.282 . S
C1330 O1331 1.306 . S
C1330 O1333 1.160 . S
O1331 C1330 1.306 . S
O1331 Cd1332 2.228 . S
Cd1332 O1331 2.228 . S
Cd1332 O1336 2.273 . S
Cd1332 O1340 2.277 . S
O1333 C1330 1.160 . S
O1333 Cd1334 2.203 . S
Cd1334 O1333 2.203 . S
Cd1334 O1336 2.411 . S
Cd1334 O1337 2.333 . S
Cd1334 O1338 2.352 . S
Cd1334 O1342 2.277 . S
Cd1334 O1343 2.356 . S
C1335 O1340 1.209 . S
C1335 O1342 1.226 . S
O1336 Cd1332 2.273 . S
O1336 Cd1334 2.411 . S
O1336 C1339 1.320 . S
O1337 Cd1334 2.333 . S
O1337 C1339 1.214 . S
O1338 Cd1334 2.352 . S
O1338 C1341 1.258 . S
C1339 O1336 1.320 . S
C1339 O1337 1.214 . S
O1340 Cd1332 2.277 . S
O1340 C1335 1.209 . S
C1341 O1338 1.258 . S
C1341 O1343 1.282 . S
O1342 Cd1334 2.277 . S
O1342 C1335 1.226 . S
O1343 Cd1334 2.356 . S
O1343 C1341 1.282 . S
C5 C457 1.552 . S
C807 C19 1.552 . S
C485 C33 1.552 . S
C47 C835 1.552 . S
C61 C513 1.552 . S
C75 C863 1.552 . S
C89 C541 1.552 . S
C103 C891 1.552 . S
C905 C117 1.552 . S
C1003 C131 1.552 . S
C145 C1311 1.552 . S
C159 C989 1.552 . S
C247 C173 1.552 . S
C187 C261 1.552 . S
C201 C275 1.552 . S
C1297 C215 1.552 . S
C1017 C229 1.552 . S
C243 C401 1.552 . S
C751 C257 1.552 . S
C271 C429 1.552 . S
C443 C285 1.552 . S
C709 C299 1.552 . S
C51 C313 1.552 . S
C23 C327 1.552 . S
C341 C121 1.552 . S
C1143 C355 1.552 . S
C149 C369 1.552 . S
C383 C1171 1.552 . S
C397 C177 1.552 . S
C1199 C411 1.552 . S
C425 C205 1.552 . S
C1227 C439 1.552 . S
C1241 C453 1.552 . S
C467 C1339 1.552 . S
C975 C481 1.552 . S
C1325 C495 1.552 . S
C509 C583 1.552 . S
C597 C523 1.552 . S
C611 C537 1.552 . S
C551 C961 1.552 . S
C681 C565 1.552 . S
C579 C65 1.552 . S
C1087 C593 1.552 . S
C93 C607 1.552 . S
C621 C107 1.552 . S
C1045 C635 1.552 . S
C387 C649 1.552 . S
C359 C663 1.552 . S
C1129 C677 1.552 . S
C135 C691 1.552 . S
C1157 C705 1.552 . S
C719 C163 1.552 . S
C1185 C733 1.552 . S
C747 C191 1.552 . S
C761 C1213 1.552 . S
C775 C219 1.552 . S
C233 C789 1.552 . S
C803 C331 1.552 . S
C817 C639 1.552 . S
C317 C831 1.552 . S
C845 C919 1.552 . S
C933 C859 1.552 . S
C947 C873 1.552 . S
C887 C625 1.552 . S
C901 C345 1.552 . S
C1073 C915 1.552 . S
C929 C79 1.552 . S
C943 C1101 1.552 . S
C1115 C957 1.552 . S
C37 C971 1.552 . S
C985 C723 1.552 . S
C999 C695 1.552 . S
C793 C1013 1.552 . S
C471 C1027 1.552 . S
C821 C1041 1.552 . S
C1055 C499 1.552 . S
C1069 C849 1.552 . S
C527 C1083 1.552 . S
C877 C1097 1.552 . S
C555 C1111 1.552 . S
C1125 C569 1.552 . S
C667 C1139 1.552 . S
C303 C1153 1.552 . S
C1167 C653 1.552 . S
C1255 C1181 1.552 . S
C1269 C1195 1.552 . S
C1209 C1283 1.552 . S
C1223 C289 1.552 . S
C9 C1237 1.552 . S
C737 C1251 1.552 . S
C1265 C415 1.552 . S
C1279 C765 1.552 . S
C779 C1293 1.552 . S
C373 C1307 1.552 . S
C1059 C1321 1.552 . S
C1031 C1335 1.552 . S
C1218 C0 1.406 . S
C14 C1176 1.406 . S
C28 C1190 1.406 . S
C42 C1204 1.406 . S
C126 C56 1.406 . S
C70 C140 1.406 . S
C84 C154 1.406 . S
C98 C112 1.406 . S
C168 C1022 1.406 . S
C182 C1036 1.406 . S
C196 C1050 1.406 . S
C1008 C210 1.406 . S
C1288 C224 1.406 . S
C238 C1330 1.406 . S
C252 C630 1.406 . S
C1316 C266 1.406 . S
C280 C1232 1.406 . S
C294 C588 1.406 . S
C308 C1274 1.406 . S
C322 C1246 1.406 . S
C882 C336 1.406 . S
C350 C840 1.406 . S
C854 C364 1.406 . S
C378 C868 1.406 . S
C392 C462 1.406 . S
C406 C476 1.406 . S
C490 C420 1.406 . S
C434 C448 1.406 . S
C686 C504 1.406 . S
C700 C518 1.406 . S
C714 C532 1.406 . S
C672 C546 1.406 . S
C560 C952 1.406 . S
C574 C994 1.406 . S
C980 C602 1.406 . S
C616 C896 1.406 . S
C644 C938 1.406 . S
C658 C910 1.406 . S
C728 C798 1.406 . S
C742 C812 1.406 . S
C756 C826 1.406 . S
C770 C784 1.406 . S
C1302 C924 1.406 . S
C1260 C966 1.406 . S
C1064 C1134 1.406 . S
C1078 C1148 1.406 . S
C1162 C1092 1.406 . S
C1106 C1120 1.406 . S
C375 C11 2.432 1_655 S
C25 C725 2.432 . S
C39 C347 2.432 1_645 S
C697 C53 2.432 . S
C67 C431 2.432 1_455 S
C81 C781 2.432 . S
C95 C403 2.432 1_665 S
C109 C753 2.432 . S
C123 C179 2.432 1_545 S
C193 C137 2.432 . S
C151 C207 2.432 1_556 S
C165 C221 2.432 . S
C235 C1285 2.432 1_554 S
C977 C249 2.432 1_455 S
C319 C263 2.432 . S
C1243 C277 2.432 1_654 S
C1341 C291 2.432 . S
C305 C921 2.432 1_554 S
C1299 C333 2.432 . S
C361 C1061 2.432 . S
C1033 C389 2.432 . S
C417 C1117 2.432 . S
C445 C1089 2.432 . S
C515 C459 2.432 1_554 S
C529 C473 2.432 . S
C543 C487 2.432 1_545 S
C557 C501 2.432 . S
C949 C571 2.432 . S
C1313 C585 2.432 1_454 S
C599 C655 2.432 . S
C613 C907 2.432 1_455 S
C627 C1005 2.432 . S
C641 C1257 2.432 . S
C669 C963 2.432 . S
C1047 C683 2.432 . S
C711 C1019 2.432 1_545 S
C1103 C739 2.432 . S
C1075 C767 2.432 1_545 S
C851 C795 2.432 1_564 S
C809 C865 2.432 . S
C823 C879 2.432 . S
C893 C837 2.432 . S
C991 C935 2.432 . S
C1131 C1187 2.432 . S
C1145 C1201 2.432 . S
C1159 C1215 2.432 1_566 S
C1229 C1173 2.432 . S
C1327 C1271 2.432 . S
