# Generated by pormake.
# Topology can, (4)-cn, num edge types: 1
# Building blocks:
#     Node 0, Type 0, BuildingBlock: GALJAG_clean_sbu_0, # of connection points: 4
#     Node 1, Type 0, BuildingBlock: GALJAG_clean_sbu_0, # of connection points: 4
#     Node 2, Type 0, BuildingBlock: GALJAG_clean_sbu_0, # of connection points: 4
#     Node 3, Type 0, BuildingBlock: GALJAG_clean_sbu_0, # of connection points: 4
#     Node 4, Type 0, BuildingBlock: GALJAG_clean_sbu_0, # of connection points: 4
#     Node 5, Type 0, BuildingBlock: GALJAG_clean_sbu_0, # of connection points: 4
#     Node 6, Type 0, BuildingBlock: GALJAG_clean_sbu_0, # of connection points: 4
#     Node 7, Type 0, BuildingBlock: GALJAG_clean_sbu_0, # of connection points: 4
#     Node 8, Type 0, BuildingBlock: GALJAG_clean_sbu_0, # of connection points: 4
#     Node 9, Type 0, BuildingBlock: GALJAG_clean_sbu_0, # of connection points: 4
#     Node 10, Type 0, BuildingBlock: GALJAG_clean_sbu_0, # of connection points: 4
#     Node 11, Type 0, BuildingBlock: GALJAG_clean_sbu_0, # of connection points: 4
#     Edge 12, Type (0, 0), BuildingBlock: AJUNOK_clean_linker_0, # of connection points: 2
#     Edge 13, Type (0, 0), BuildingBlock: AJUNOK_clean_linker_0, # of connection points: 2
#     Edge 14, Type (0, 0), BuildingBlock: AJUNOK_clean_linker_0, # of connection points: 2
#     Edge 15, Type (0, 0), BuildingBlock: AJUNOK_clean_linker_0, # of connection points: 2
#     Edge 16, Type (0, 0), BuildingBlock: AJUNOK_clean_linker_0, # of connection points: 2
#     Edge 17, Type (0, 0), BuildingBlock: AJUNOK_clean_linker_0, # of connection points: 2
#     Edge 18, Type (0, 0), BuildingBlock: AJUNOK_clean_linker_0, # of connection points: 2
#     Edge 19, Type (0, 0), BuildingBlock: AJUNOK_clean_linker_0, # of connection points: 2
#     Edge 20, Type (0, 0), BuildingBlock: AJUNOK_clean_linker_0, # of connection points: 2
#     Edge 21, Type (0, 0), BuildingBlock: AJUNOK_clean_linker_0, # of connection points: 2
#     Edge 22, Type (0, 0), BuildingBlock: AJUNOK_clean_linker_0, # of connection points: 2
#     Edge 23, Type (0, 0), BuildingBlock: AJUNOK_clean_linker_0, # of connection points: 2
#     Edge 24, Type (0, 0), BuildingBlock: AJUNOK_clean_linker_0, # of connection points: 2
#     Edge 25, Type (0, 0), BuildingBlock: AJUNOK_clean_linker_0, # of connection points: 2
#     Edge 26, Type (0, 0), BuildingBlock: AJUNOK_clean_linker_0, # of connection points: 2
#     Edge 27, Type (0, 0), BuildingBlock: AJUNOK_clean_linker_0, # of connection points: 2
#     Edge 28, Type (0, 0), BuildingBlock: AJUNOK_clean_linker_0, # of connection points: 2
#     Edge 29, Type (0, 0), BuildingBlock: AJUNOK_clean_linker_0, # of connection points: 2
#     Edge 30, Type (0, 0), BuildingBlock: AJUNOK_clean_linker_0, # of connection points: 2
#     Edge 31, Type (0, 0), BuildingBlock: AJUNOK_clean_linker_0, # of connection points: 2
#     Edge 32, Type (0, 0), BuildingBlock: AJUNOK_clean_linker_0, # of connection points: 2
#     Edge 33, Type (0, 0), BuildingBlock: AJUNOK_clean_linker_0, # of connection points: 2
#     Edge 34, Type (0, 0), BuildingBlock: AJUNOK_clean_linker_0, # of connection points: 2
#     Edge 35, Type (0, 0), BuildingBlock: AJUNOK_clean_linker_0, # of connection points: 2
# Relax obj value: 0.108
# Max RMSD: 0.101
# Mean RMSD: 0.101
data_MOF--net-can--node1-GALJAG_clean_sbu_0--edge1-AJUNOK_clean_linker_0
_symmetry_space_group_name_H-M    P1
_symmetry_Int_Tables_number       1
_symmetry_cell_setting            triclinic
loop_
_symmetry_equiv_pos_as_xyz
'x, y, z'
_cell_length_a     39.896301
_cell_length_b     39.683619
_cell_length_c     20.919004
_cell_angle_alpha  89.934942
_cell_angle_beta   89.959777
_cell_angle_gamma 120.13801
loop_
_atom_site_label
_atom_site_type_symbol
_atom_site_fract_x
_atom_site_fract_y
_atom_site_fract_z
_atom_type_partial_charge
In0 In 0.03852 0.38133 0.26006 0.0
O1 O 0.10334 0.40745 0.26304 0.0
O2 O 0.06876 0.34587 0.25304 0.0
C3 C 0.03776 0.44857 0.26222 0.0
C4 C 0.01326 0.35993 0.13938 0.0
C5 C 0.01037 0.35361 0.37789 0.0
O6 O 0.06861 0.44705 0.2611 0.0
O7 O 0.00693 0.4158 0.26419 0.0
O8 O -0.01031 0.34008 0.32826 0.0
O9 O 0.04456 0.38047 0.36734 0.0
C10 C 0.1023 0.37527 0.25778 0.0
O11 O -0.00107 0.33583 0.18509 0.0
O12 O 0.03976 0.39342 0.15497 0.0
In13 In 0.65112 0.04013 0.76473 0.0
O14 O 0.68928 0.10503 0.76402 0.0
O15 O 0.71709 0.07107 0.76866 0.0
C16 C 0.58399 0.04099 0.76177 0.0
C17 C 0.6526 0.01318 0.64662 0.0
C18 C 0.65189 0.01549 0.88487 0.0
O19 O 0.61682 0.07136 0.76061 0.0
O20 O 0.58483 0.00966 0.764 0.0
O21 O 0.64871 -0.00518 0.83666 0.0
O22 O 0.65434 0.0476 0.87188 0.0
C23 C 0.72067 0.10462 0.7672 0.0
O24 O 0.6419 -0.00884 0.6952 0.0
O25 O 0.6628 0.04811 0.65829 0.0
In26 In 0.59439 0.65381 0.25193 0.0
O27 O 0.56462 0.6889 0.25453 0.0
O28 O 0.62642 0.72015 0.25732 0.0
C29 C 0.5289 0.5838 0.24419 0.0
C30 C 0.62457 0.6605 0.13371 0.0
C31 C 0.6201 0.65298 0.37121 0.0
O32 O 0.52905 0.61556 0.24702 0.0
O33 O 0.56206 0.58719 0.24563 0.0
O34 O 0.63707 0.6503 0.32199 0.0
O35 O 0.59092 0.65629 0.35975 0.0
C36 C 0.59541 0.72155 0.25702 0.0
O37 O 0.63852 0.65271 0.18205 0.0
O38 O 0.59621 0.66508 0.14566 0.0
In39 In 0.923 0.60022 0.75969 0.0
O40 O 0.858 0.56999 0.75798 0.0
O41 O 0.88875 0.6316 0.74639 0.0
C42 C 0.92392 0.53315 0.76801 0.0
C43 C 0.95111 0.62202 0.63997 0.0
C44 C 0.94902 0.62975 0.87775 0.0
O45 O 0.89308 0.5346 0.76518 0.0
O46 O 0.95473 0.56597 0.76842 0.0
O47 O 0.97131 0.64069 0.8296 0.0
O48 O 0.9144 0.60487 0.8655 0.0
C49 C 0.85629 0.60058 0.75025 0.0
O50 O 0.96055 0.64702 0.68405 0.0
O51 O 0.92805 0.58749 0.6567 0.0
In52 In 0.31496 0.93831 0.25662 0.0
O53 O 0.32041 0.98592 0.18729 0.0
O54 O 0.30862 0.93155 0.14904 0.0
C55 C 0.3158 0.965 0.37569 0.0
C56 C 0.2446 0.87462 0.25982 0.0
C57 C 0.38216 0.9375 0.25572 0.0
O58 O 0.31986 0.9853 0.32648 0.0
O59 O 0.31116 0.93179 0.36425 0.0
O60 O 0.34933 0.90709 0.25433 0.0
O61 O 0.38126 0.96882 0.2573 0.0
C62 C 0.31461 0.96531 0.13792 0.0
O63 O 0.2756 0.87344 0.2575 0.0
O64 O 0.249 0.90849 0.26001 0.0
In65 In 0.36385 0.31995 0.75515 0.0
O66 O 0.31697 0.30645 0.67836 0.0
O67 O 0.37626 0.3443 0.65527 0.0
C68 C 0.33232 0.31306 0.87205 0.0
C69 C 0.36649 0.25432 0.74138 0.0
C70 C 0.42887 0.38885 0.77092 0.0
O71 O 0.32226 0.32575 0.82457 0.0
O72 O 0.35721 0.30345 0.8596 0.0
O73 O 0.42895 0.35727 0.76373 0.0
O74 O 0.39564 0.3855 0.77139 0.0
C75 C 0.34168 0.32734 0.63658 0.0
O76 O 0.39645 0.28737 0.74726 0.0
O77 O 0.33491 0.25445 0.74134 0.0
In78 In 0.59379 0.93415 0.26507 0.0
O79 O 0.56437 0.86902 0.2633 0.0
O80 O 0.62609 0.90024 0.26662 0.0
C81 C 0.52689 0.93561 0.26153 0.0
C82 C 0.6211 0.95946 0.38432 0.0
C83 C 0.62324 0.96183 0.1475 0.0
O84 O 0.5284 0.90471 0.26204 0.0
O85 O 0.55951 0.96642 0.26306 0.0
O86 O 0.63553 0.98287 0.19696 0.0
O87 O 0.59694 0.9273 0.15798 0.0
C88 C 0.59518 0.86751 0.26457 0.0
O89 O 0.6389 0.9785 0.33496 0.0
O90 O 0.59013 0.9282 0.37302 0.0
In91 In 0.64433 0.60103 0.75533 0.0
O92 O 0.67879 0.57059 0.75521 0.0
O93 O 0.71028 0.63268 0.7505 0.0
C94 C 0.57455 0.53545 0.76449 0.0
C95 C 0.65026 0.63304 0.87183 0.0
C96 C 0.64511 0.6259 0.6346 0.0
O97 O 0.60609 0.53546 0.76305 0.0
O98 O 0.57803 0.56878 0.76071 0.0
O99 O 0.64149 0.64323 0.68257 0.0
O100 O 0.64792 0.59651 0.64796 0.0
C101 C 0.71138 0.60136 0.75194 0.0
O102 O 0.64324 0.64659 0.82207 0.0
O103 O 0.65489 0.60436 0.86203 0.0
In104 In 0.03307 0.65991 0.25694 0.0
O105 O 0.09789 0.69794 0.25817 0.0
O106 O 0.06469 0.72613 0.26716 0.0
C107 C 0.03464 0.59321 0.24816 0.0
C108 C 0.00597 0.65217 0.37757 0.0
C109 C 0.00427 0.6599 0.13978 0.0
O110 O 0.06486 0.62637 0.24935 0.0
O111 O 0.0032 0.59369 0.2499 0.0
O112 O -0.01676 0.64988 0.18942 0.0
O113 O 0.03925 0.6705 0.15013 0.0
C114 C 0.09789 0.72955 0.26411 0.0
O115 O -0.00538 0.66622 0.3339 0.0
O116 O 0.03048 0.643 0.36008 0.0
In117 In 0.37251 0.04442 0.7566 0.0
O118 O 0.40144 0.10952 0.75175 0.0
O119 O 0.33959 0.07744 0.75217 0.0
C120 C 0.43942 0.04306 0.75953 0.0
C121 C 0.3434 0.01959 0.87537 0.0
C122 C 0.34506 0.01855 0.63791 0.0
O123 O 0.43784 0.07389 0.76215 0.0
O124 O 0.40688 0.01231 0.75569 0.0
O125 O 0.32949 -0.0023 0.68691 0.0
O126 O 0.37399 0.05143 0.6493 0.0
C127 C 0.37028 0.1104 0.74976 0.0
O128 O 0.33024 -0.00242 0.8271 0.0
O129 O 0.37047 0.05349 0.86315 0.0
In130 In 0.31306 0.37292 0.25056 0.0
O131 O 0.2773 0.4024 0.25224 0.0
O132 O 0.24757 0.34052 0.26021 0.0
C133 C 0.38249 0.43782 0.23822 0.0
C134 C 0.31752 0.35266 0.37191 0.0
C135 C 0.30844 0.34165 0.13434 0.0
O136 O 0.35106 0.43821 0.2407 0.0
O137 O 0.37883 0.4043 0.24088 0.0
O138 O 0.3179 0.32968 0.1835 0.0
O139 O 0.3011 0.36852 0.14474 0.0
C140 C 0.24529 0.3711 0.25761 0.0
O141 O 0.3047 0.32752 0.32767 0.0
O142 O 0.32796 0.38687 0.35428 0.0
In143 In 0.92909 0.322 0.75926 0.0
O144 O 0.969 0.31594 0.83326 0.0
O145 O 0.93339 0.33896 0.86247 0.0
C146 C 0.95566 0.3219 0.64036 0.0
C147 C 0.86531 0.25173 0.76832 0.0
C148 C 0.92664 0.38832 0.75348 0.0
O149 O 0.97795 0.33342 0.6884 0.0
O150 O 0.92069 0.31023 0.65307 0.0
O151 O 0.89664 0.35507 0.75722 0.0
O152 O 0.95817 0.38806 0.75068 0.0
C153 C 0.95825 0.32987 0.87798 0.0
O154 O 0.86441 0.28288 0.76214 0.0
O155 O 0.89887 0.25599 0.77071 0.0
C156 C -0.01042 0.31613 0.04303 0.0
C157 C -0.00101 0.35155 0.073 0.0
C158 C 0.97798 0.30954 0.97846 0.0
C159 C 0.97454 0.33781 0.94302 0.0
H160 H -0.00825 0.29376 0.06928 0.0
H161 H 0.97062 0.28189 0.95678 0.0
S162 S -0.00473 0.43485 1.00001 0.0
N163 N 0.00428 0.41504 0.06224 0.0
N164 N 0.98143 0.40219 0.94236 0.0
C165 C -0.01629 0.37309 0.97276 0.0
C166 C -0.00379 0.38008 0.03745 0.0
C167 C 0.61553 0.9471 0.50205 0.0
C168 C 0.63372 0.97301 0.45064 0.0
C169 C 0.6235 0.95979 0.56566 0.0
C170 C 0.64958 -0.001 0.58025 0.0
H171 H 0.59414 0.91689 0.49314 0.0
H172 H 0.60773 0.93911 0.60345 0.0
S173 S 0.7078 0.07775 0.46371 0.0
N174 N 0.68139 0.03901 0.41899 0.0
N175 N 0.69601 0.06304 0.53843 0.0
C176 C 0.66936 0.02482 0.52949 0.0
C177 C 0.66156 0.01178 0.46471 0.0
C178 C 0.65645 0.63967 0.05252 0.0
C179 C 0.63707 0.66002 0.06723 0.0
C180 C 0.66232 0.63284 0.98887 0.0
C181 C 0.64946 0.64649 0.93757 0.0
H182 H 0.66529 0.6271 0.09029 0.0
H183 H 0.6758 0.61544 0.9799 0.0
S184 S 0.60203 0.70611 0.95081 0.0
N185 N 0.60852 0.69722 0.02553 0.0
N186 N 0.61995 0.68467 0.90598 0.0
C187 C 0.63253 0.66926 0.95166 0.0
C188 C 0.6262 0.67591 0.0165 0.0
C189 C -0.01628 0.67106 0.47706 0.0
C190 C -0.00908 0.64455 0.44371 0.0
C191 C 0.97207 0.6646 0.54171 0.0
C192 C 0.96638 0.63097 0.574 0.0
H193 H -0.01215 0.6972 0.45352 0.0
H194 H 0.96669 0.6855 0.56606 0.0
S195 S 0.98078 0.55254 0.50727 0.0
N196 N -0.00848 0.58364 0.44773 0.0
N197 N 0.96883 0.57108 0.56774 0.0
C198 C 0.9732 0.60426 0.54072 0.0
C199 C -0.01433 0.61115 0.4759 0.0
C200 C 0.31278 0.96625 0.95659 0.0
C201 C 0.33114 0.00615 0.9419 0.0
C202 C 0.30623 0.95332 0.02022 0.0
C203 C 0.31736 0.97975 0.07159 0.0
H204 H 0.30501 0.94492 0.91887 0.0
H205 H 0.29332 0.92236 0.02917 0.0
S206 S 0.36214 0.08704 0.05828 0.0
N207 N 0.35733 0.07187 0.9836 0.0
N208 N 0.3446 0.04747 0.10307 0.0
C209 C 0.33362 0.01955 0.05742 0.0
C210 C 0.34064 0.03277 0.99261 0.0
C211 C 0.35066 0.3744 0.47629 0.0
C212 C 0.32185 0.34427 0.43921 0.0
C213 C 0.35603 0.36855 0.54037 0.0
C214 C 0.33224 0.33261 0.57055 0.0
H215 H 0.36978 0.40273 0.45534 0.0
H216 H 0.37919 0.39246 0.56653 0.0
S217 S 0.25178 0.24453 0.49555 0.0
N218 N 0.26881 0.27717 0.43735 0.0
N219 N 0.27835 0.26644 0.55923 0.0
C220 C 0.30271 0.30234 0.53472 0.0
C221 C 0.29773 0.30807 0.46859 0.0
C222 C 0.0023 0.66142 0.95837 0.0
C223 C 0.96252 0.64194 0.94431 0.0
C224 C 0.01544 0.66849 0.02178 0.0
C225 C -0.01065 0.6565 0.07369 0.0
H226 H 0.02346 0.66995 0.92029 0.0
H227 H 0.04637 0.68241 0.03007 0.0
S228 S 0.8823 0.60829 0.06241 0.0
N229 N 0.89713 0.61368 0.98745 0.0
N230 N 0.92195 0.62702 0.10641 0.0
C231 C 0.94959 0.63889 0.06022 0.0
C232 C 0.93615 0.63157 0.99562 0.0
C233 C 0.30789 0.95255 0.49333 0.0
C234 C 0.31872 0.97915 0.44209 0.0
C235 C 0.31449 0.96528 0.557 0.0
C236 C 0.33271 0.00512 0.57167 0.0
H237 H 0.29512 0.92164 0.48422 0.0
H238 H 0.30696 0.94391 0.59471 0.0
S239 S 0.36292 0.08632 0.45584 0.0
N240 N 0.34546 0.04691 0.41087 0.0
N241 N 0.35845 0.07092 0.53041 0.0
C242 C 0.34197 0.03188 0.52117 0.0
C243 C 0.33479 0.01887 0.45639 0.0
C244 C 0.30303 0.33648 0.95359 0.0
C245 C 0.32015 0.31403 0.93856 0.0
C246 C 0.29766 0.34359 0.01727 0.0
C247 C 0.30905 0.3284 0.06839 0.0
H248 H 0.29548 0.35031 0.91606 0.0
H249 H 0.28583 0.36245 0.02635 0.0
S250 S 0.35002 0.26302 0.0544 0.0
N251 N 0.34461 0.27305 0.9798 0.0
N252 N 0.33445 0.28649 0.0995 0.0
C253 C 0.32372 0.30369 0.05402 0.0
C254 C 0.32931 0.29651 0.98909 0.0
C255 C 0.00895 0.34927 0.55921 0.0
C256 C 0.96945 0.32528 0.57356 0.0
C257 C 0.0219 0.35715 0.49571 0.0
C258 C -0.00407 0.34116 0.44402 0.0
H259 H 0.02987 0.36333 0.59718 0.0
H260 H 0.0525 0.37682 0.48721 0.0
S261 S 0.89004 0.27287 0.45606 0.0
N262 N 0.90476 0.28294 0.53095 0.0
N263 N 0.92925 0.29769 0.41172 0.0
C264 C 0.95663 0.31549 0.45772 0.0
C265 C 0.94337 0.30759 0.52244 0.0
C266 C 0.63104 0.96264 0.96664 0.0
C267 C 0.64998 0.00253 0.95181 0.0
C268 C 0.62389 0.94984 0.03035 0.0
C269 C 0.63588 0.97647 0.08157 0.0
H270 H 0.62005 0.94111 0.92884 0.0
H271 H 0.60783 0.91876 0.0394 0.0
S272 S 0.69095 0.08422 0.06802 0.0
N273 N 0.68365 0.06872 0.99336 0.0
N274 N 0.67062 0.04463 0.11295 0.0
C275 C 0.65693 0.01646 0.06737 0.0
C276 C 0.66384 0.02949 1.00251 0.0
C277 C 0.61745 0.66302 0.48851 0.0
C278 C 0.6314 0.65022 0.43758 0.0
C279 C 0.62373 0.65689 0.55236 0.0
C280 C 0.64357 0.63707 0.56761 0.0
H281 H 0.60074 0.67716 0.479 0.0
H282 H 0.61147 0.6662 0.58989 0.0
S283 S 0.68872 0.60052 0.45235 0.0
N284 N 0.66838 0.61935 0.40696 0.0
N285 N 0.67958 0.6071 0.52686 0.0
C286 C 0.65903 0.62551 0.51726 0.0
C287 C 0.65315 0.63231 0.45226 0.0
C288 C 0.00172 0.52066 0.25684 0.0
C289 C 0.03606 0.55669 0.24918 0.0
C290 C 0.00253 0.48584 0.26135 0.0
C291 C 0.03773 0.48577 0.25846 0.0
H292 H 0.97396 0.51931 0.26008 0.0
H293 H 0.97535 0.45882 0.26736 0.0
S294 S 0.13572 0.57228 0.23657 0.0
N295 N 0.10621 0.59008 0.23733 0.0
N296 N 0.10776 0.52478 0.24592 0.0
C297 C 0.07226 0.52157 0.25016 0.0
C298 C 0.07142 0.55699 0.24546 0.0
C299 C 0.47672 0.00784 0.75855 0.0
C300 C 0.47653 0.04318 0.76036 0.0
C301 C 0.5116 0.00735 0.75902 0.0
C302 C 0.54755 0.04218 0.76114 0.0
H303 H 0.44973 0.9803 0.75677 0.0
H304 H 0.51034 0.97945 0.7576 0.0
S305 S 0.56293 0.14253 0.76671 0.0
N306 N 0.51543 0.11395 0.76458 0.0
N307 N 0.58083 0.11303 0.76534 0.0
C308 C 0.54776 0.07773 0.76298 0.0
C309 C 0.5123 0.07823 0.76264 0.0
C310 C 0.45693 0.54533 0.23853 0.0
C311 C 0.49246 0.54593 0.24015 0.0
C312 C 0.42171 0.51022 0.23658 0.0
C313 C 0.4205 0.4742 0.23621 0.0
H314 H 0.45617 0.57224 0.23939 0.0
H315 H 0.39518 0.51144 0.23622 0.0
S316 S 0.50543 0.45964 0.23757 0.0
N317 N 0.52442 0.50741 0.23944 0.0
N318 N 0.458 0.44118 0.23584 0.0
C319 C 0.45581 0.47426 0.23664 0.0
C320 C 0.49183 0.51017 0.23861 0.0
C321 C 0.95907 0.49596 0.76053 0.0
C322 C 0.92391 0.49589 0.76631 0.0
C323 C 0.95967 0.46105 0.75564 0.0
C324 C 0.92512 0.42477 0.75638 0.0
H325 H -0.0136 0.52318 0.7592 0.0
H326 H -0.01254 0.46257 0.75142 0.0
S327 S 0.82535 0.40861 0.7717 0.0
N328 N 0.85364 0.4564 0.77329 0.0
N329 N 0.85474 0.39091 0.76404 0.0
C330 C 0.88976 0.42428 0.76243 0.0
C331 C 0.88916 0.45981 0.76745 0.0
C332 C 0.45459 0.97124 0.2589 0.0
C333 C 0.41867 0.93638 0.25632 0.0
C334 C 0.48951 0.9708 0.26041 0.0
C335 C 0.48976 0.93548 0.25942 0.0
H336 H 0.45582 -0.00087 0.25999 0.0
H337 H 0.51646 -0.00165 0.26255 0.0
S338 S 0.40347 0.83608 0.25203 0.0
N339 N 0.38551 0.86554 0.25228 0.0
N340 N 0.45094 0.8647 0.25514 0.0
C341 C 0.45402 0.90041 0.25654 0.0
C342 C 0.41853 0.90086 0.25497 0.0
C343 C 0.53596 0.46309 0.77018 0.0
C344 C 0.5368 0.49894 0.76928 0.0
C345 C 0.50091 0.42779 0.77231 0.0
C346 C 0.46523 0.42686 0.77377 0.0
H347 H 0.56261 0.46213 0.76834 0.0
H348 H 0.5019 0.40101 0.77184 0.0
S349 S 0.45145 0.51269 0.7754 0.0
N350 N 0.49891 0.53149 0.77236 0.0
N351 N 0.43281 0.46496 0.77645 0.0
C352 C 0.46556 0.46249 0.77447 0.0
C353 C 0.5014 0.49857 0.77216 0.0
C354 C 0.17405 0.40726 0.25983 0.0
C355 C 0.1379 0.37274 0.25795 0.0
C356 C 0.20851 0.40626 0.26019 0.0
C357 C 0.20817 0.3707 0.25892 0.0
H358 H 0.1759 0.43544 0.26081 0.0
H359 H 0.23563 0.4337 0.26136 0.0
S360 S 0.12107 0.2719 0.25438 0.0
N361 N 0.10365 0.30185 0.25517 0.0
N362 N 0.16869 0.29995 0.25603 0.0
C363 C 0.17224 0.33585 0.25742 0.0
C364 C 0.13702 0.33688 0.25683 0.0
C365 C 0.7936 0.21217 0.76859 0.0
C366 C 0.82943 0.21347 0.77033 0.0
C367 C 0.75882 0.17678 0.76793 0.0
C368 C 0.75836 0.14113 0.76897 0.0
H369 H 0.79225 0.23876 0.76727 0.0
H370 H 0.73206 0.17752 0.76626 0.0
S371 S 0.84427 0.12837 0.77474 0.0
N372 N 0.86254 0.17605 0.77396 0.0
N373 N 0.79674 0.1091 0.77275 0.0
C374 C 0.79392 0.14182 0.77138 0.0
C375 C 0.82956 0.17809 0.77209 0.0
C376 C 0.62961 0.79415 0.26554 0.0
C377 C 0.59485 0.75843 0.25898 0.0
C378 C 0.62956 0.82942 0.26743 0.0
C379 C 0.59475 0.83013 0.26283 0.0
H380 H 0.65707 0.79494 0.26934 0.0
H381 H 0.65698 0.85627 0.27259 0.0
S382 S 0.49591 0.74451 0.24374 0.0
N383 N 0.52473 0.72595 0.24705 0.0
N384 N 0.52463 0.79202 0.25061 0.0
C385 C 0.55981 0.79458 0.25605 0.0
C386 C 0.55986 0.75877 0.25412 0.0
C387 C 0.81856 0.63511 0.74287 0.0
C388 C 0.81907 0.60006 0.74855 0.0
C389 C 0.78356 0.63533 0.74374 0.0
C390 C 0.74791 0.6005 0.75024 0.0
H391 H 0.84537 0.66265 0.73828 0.0
H392 H 0.78452 0.66301 0.73955 0.0
S393 S 0.73347 0.5008 0.76593 0.0
N394 N 0.78082 0.52953 0.76018 0.0
N395 N 0.71521 0.52993 0.76183 0.0
C396 C 0.74802 0.5652 0.75537 0.0
C397 C 0.78357 0.56498 0.7545 0.0
C398 C 0.20495 0.80253 0.26002 0.0
C399 C 0.20644 0.83865 0.26218 0.0
C400 C 0.16967 0.76763 0.26147 0.0
C401 C 0.13436 0.76733 0.26517 0.0
H402 H 0.23127 0.80102 0.25684 0.0
H403 H 0.17023 0.74064 0.25922 0.0
S404 S 0.12225 0.85403 0.27352 0.0
N405 N 0.1696 0.87221 0.26934 0.0
N406 N 0.10287 0.8062 0.27206 0.0
C407 C 0.13527 0.80319 0.26807 0.0
C408 C 0.17142 0.83896 0.26654 0.0
C409 C 0.33369 0.18178 0.74233 0.0
C410 C 0.36814 0.21805 0.73926 0.0
C411 C 0.33459 0.14701 0.74514 0.0
C412 C 0.36997 0.14732 0.7449 0.0
H413 H 0.30578 0.18018 0.74378 0.0
H414 H 0.30736 0.11977 0.74828 0.0
S415 S 0.46833 0.23463 0.73373 0.0
N416 N 0.43858 0.25216 0.73346 0.0
N417 N 0.44033 0.18689 0.7387 0.0
C418 C 0.40462 0.18337 0.74032 0.0
C419 C 0.40369 0.21873 0.73748 0.0
loop_
_geom_bond_atom_site_label_1
_geom_bond_atom_site_label_2
_geom_bond_distance
_geom_bond_site_symmetry_2
_ccdc_geom_bond_type
In0 O1 2.294 . S
In0 O2 2.326 . S
In0 O6 2.266 . S
In0 O7 2.326 1_455 S
In0 O8 2.266 1_455 S
In0 O9 2.326 . S
In0 O11 2.294 1_455 S
In0 O12 2.326 . S
O1 In0 2.294 . S
O1 C10 1.240 . S
O2 In0 2.326 . S
O2 C10 1.252 . S
C3 O6 1.252 . S
C3 O7 1.260 1_455 S
C4 O11 1.240 1_455 S
C4 O12 1.252 . S
C5 O8 1.252 1_455 S
C5 O9 1.260 . S
O6 In0 2.266 . S
O6 C3 1.252 . S
O7 In0 2.326 1_655 S
O7 C3 1.260 1_655 S
O8 In0 2.266 1_655 S
O8 C5 1.252 1_655 S
O9 In0 2.326 . S
O9 C5 1.260 . S
C10 O1 1.240 . S
C10 O2 1.252 . S
O11 In0 2.294 1_655 S
O11 C4 1.240 1_655 S
O12 In0 2.326 . S
O12 C4 1.252 . S
In13 O14 2.294 . S
In13 O15 2.326 . S
In13 O19 2.266 . S
In13 O20 2.326 1_545 S
In13 O21 2.266 1_545 S
In13 O22 2.326 . S
In13 O24 2.294 1_545 S
In13 O25 2.326 . S
O14 In13 2.294 . S
O14 C23 1.240 . S
O15 In13 2.326 . S
O15 C23 1.252 . S
C16 O19 1.252 . S
C16 O20 1.260 1_545 S
C17 O24 1.240 1_545 S
C17 O25 1.252 . S
C18 O21 1.252 1_545 S
C18 O22 1.260 . S
O19 In13 2.266 . S
O19 C16 1.252 . S
O20 In13 2.326 1_565 S
O20 C16 1.260 1_565 S
O21 In13 2.266 1_565 S
O21 C18 1.252 1_565 S
O22 In13 2.326 . S
O22 C18 1.260 . S
C23 O14 1.240 . S
C23 O15 1.252 . S
O24 In13 2.294 1_565 S
O24 C17 1.240 1_565 S
O25 In13 2.326 . S
O25 C17 1.252 . S
In26 O27 2.294 . S
In26 O28 2.326 . S
In26 O32 2.266 . S
In26 O33 2.326 . S
In26 O34 2.266 . S
In26 O35 2.326 . S
In26 O37 2.294 . S
In26 O38 2.326 . S
O27 In26 2.294 . S
O27 C36 1.240 . S
O28 In26 2.326 . S
O28 C36 1.252 . S
C29 O32 1.252 . S
C29 O33 1.260 . S
C30 O37 1.240 . S
C30 O38 1.252 . S
C31 O34 1.252 . S
C31 O35 1.260 . S
O32 In26 2.266 . S
O32 C29 1.252 . S
O33 In26 2.326 . S
O33 C29 1.260 . S
O34 In26 2.266 . S
O34 C31 1.252 . S
O35 In26 2.326 . S
O35 C31 1.260 . S
C36 O27 1.240 . S
C36 O28 1.252 . S
O37 In26 2.294 . S
O37 C30 1.240 . S
O38 In26 2.326 . S
O38 C30 1.252 . S
In39 O40 2.294 . S
In39 O41 2.326 . S
In39 O45 2.266 . S
In39 O46 2.326 1_655 S
In39 O47 2.266 1_655 S
In39 O48 2.326 . S
In39 O50 2.294 1_655 S
In39 O51 2.326 . S
O40 In39 2.294 . S
O40 C49 1.240 . S
O41 In39 2.326 . S
O41 C49 1.252 . S
C42 O45 1.252 . S
C42 O46 1.260 1_655 S
C43 O50 1.240 1_655 S
C43 O51 1.252 . S
C44 O47 1.252 1_655 S
C44 O48 1.260 . S
O45 In39 2.266 . S
O45 C42 1.252 . S
O46 In39 2.326 1_455 S
O46 C42 1.260 1_455 S
O47 In39 2.266 1_455 S
O47 C44 1.252 1_455 S
O48 In39 2.326 . S
O48 C44 1.260 . S
C49 O40 1.240 . S
C49 O41 1.252 . S
O50 In39 2.294 1_455 S
O50 C43 1.240 1_455 S
O51 In39 2.326 . S
O51 C43 1.252 . S
In52 O53 2.294 1_565 S
In52 O54 2.326 . S
In52 O58 2.266 1_565 S
In52 O59 2.326 . S
In52 O60 2.266 . S
In52 O61 2.326 1_565 S
In52 O63 2.294 . S
In52 O64 2.326 . S
O53 In52 2.294 1_545 S
O53 C62 1.240 1_545 S
O54 In52 2.326 . S
O54 C62 1.252 . S
C55 O58 1.252 1_565 S
C55 O59 1.260 . S
C56 O63 1.240 . S
C56 O64 1.252 . S
C57 O60 1.252 . S
C57 O61 1.260 1_565 S
O58 In52 2.266 1_545 S
O58 C55 1.252 1_545 S
O59 In52 2.326 . S
O59 C55 1.260 . S
O60 In52 2.266 . S
O60 C57 1.252 . S
O61 In52 2.326 1_545 S
O61 C57 1.260 1_545 S
C62 O53 1.240 1_565 S
C62 O54 1.252 . S
O63 In52 2.294 . S
O63 C56 1.240 . S
O64 In52 2.326 . S
O64 C56 1.252 . S
In65 O66 2.294 . S
In65 O67 2.326 . S
In65 O71 2.266 . S
In65 O72 2.326 . S
In65 O73 2.266 . S
In65 O74 2.326 . S
In65 O76 2.294 . S
In65 O77 2.326 . S
O66 In65 2.294 . S
O66 C75 1.240 . S
O67 In65 2.326 . S
O67 C75 1.252 . S
C68 O71 1.252 . S
C68 O72 1.260 . S
C69 O76 1.240 . S
C69 O77 1.252 . S
C70 O73 1.252 . S
C70 O74 1.260 . S
O71 In65 2.266 . S
O71 C68 1.252 . S
O72 In65 2.326 . S
O72 C68 1.260 . S
O73 In65 2.266 . S
O73 C70 1.252 . S
O74 In65 2.326 . S
O74 C70 1.260 . S
C75 O66 1.240 . S
C75 O67 1.252 . S
O76 In65 2.294 . S
O76 C69 1.240 . S
O77 In65 2.326 . S
O77 C69 1.252 . S
In78 O79 2.294 . S
In78 O80 2.326 . S
In78 O84 2.266 . S
In78 O85 2.326 1_565 S
In78 O86 2.266 1_565 S
In78 O87 2.326 . S
In78 O89 2.294 1_565 S
In78 O90 2.326 . S
O79 In78 2.294 . S
O79 C88 1.240 . S
O80 In78 2.326 . S
O80 C88 1.252 . S
C81 O84 1.252 . S
C81 O85 1.260 1_565 S
C82 O89 1.240 1_565 S
C82 O90 1.252 . S
C83 O86 1.252 1_565 S
C83 O87 1.260 . S
O84 In78 2.266 . S
O84 C81 1.252 . S
O85 In78 2.326 1_545 S
O85 C81 1.260 1_545 S
O86 In78 2.266 1_545 S
O86 C83 1.252 1_545 S
O87 In78 2.326 . S
O87 C83 1.260 . S
C88 O79 1.240 . S
C88 O80 1.252 . S
O89 In78 2.294 1_545 S
O89 C82 1.240 1_545 S
O90 In78 2.326 . S
O90 C82 1.252 . S
In91 O92 2.294 . S
In91 O93 2.326 . S
In91 O97 2.266 . S
In91 O98 2.326 . S
In91 O99 2.266 . S
In91 O100 2.326 . S
In91 O102 2.294 . S
In91 O103 2.326 . S
O92 In91 2.294 . S
O92 C101 1.240 . S
O93 In91 2.326 . S
O93 C101 1.252 . S
C94 O97 1.252 . S
C94 O98 1.260 . S
C95 O102 1.240 . S
C95 O103 1.252 . S
C96 O99 1.252 . S
C96 O100 1.260 . S
O97 In91 2.266 . S
O97 C94 1.252 . S
O98 In91 2.326 . S
O98 C94 1.260 . S
O99 In91 2.266 . S
O99 C96 1.252 . S
O100 In91 2.326 . S
O100 C96 1.260 . S
C101 O92 1.240 . S
C101 O93 1.252 . S
O102 In91 2.294 . S
O102 C95 1.240 . S
O103 In91 2.326 . S
O103 C95 1.252 . S
In104 O105 2.294 . S
In104 O106 2.326 . S
In104 O110 2.266 . S
In104 O111 2.326 1_455 S
In104 O112 2.266 1_455 S
In104 O113 2.326 . S
In104 O115 2.294 1_455 S
In104 O116 2.326 . S
O105 In104 2.294 . S
O105 C114 1.240 . S
O106 In104 2.326 . S
O106 C114 1.252 . S
C107 O110 1.252 . S
C107 O111 1.260 1_455 S
C108 O115 1.240 1_455 S
C108 O116 1.252 . S
C109 O112 1.252 1_455 S
C109 O113 1.260 . S
O110 In104 2.266 . S
O110 C107 1.252 . S
O111 In104 2.326 1_655 S
O111 C107 1.260 1_655 S
O112 In104 2.266 1_655 S
O112 C109 1.252 1_655 S
O113 In104 2.326 . S
O113 C109 1.260 . S
C114 O105 1.240 . S
C114 O106 1.252 . S
O115 In104 2.294 1_655 S
O115 C108 1.240 1_655 S
O116 In104 2.326 . S
O116 C108 1.252 . S
In117 O118 2.294 . S
In117 O119 2.326 . S
In117 O123 2.266 . S
In117 O124 2.326 1_545 S
In117 O125 2.266 1_545 S
In117 O126 2.326 . S
In117 O128 2.294 1_545 S
In117 O129 2.326 . S
O118 In117 2.294 . S
O118 C127 1.240 . S
O119 In117 2.326 . S
O119 C127 1.252 . S
C120 O123 1.252 . S
C120 O124 1.260 1_545 S
C121 O128 1.240 1_545 S
C121 O129 1.252 . S
C122 O125 1.252 1_545 S
C122 O126 1.260 . S
O123 In117 2.266 . S
O123 C120 1.252 . S
O124 In117 2.326 1_565 S
O124 C120 1.260 1_565 S
O125 In117 2.266 1_565 S
O125 C122 1.252 1_565 S
O126 In117 2.326 . S
O126 C122 1.260 . S
C127 O118 1.240 . S
C127 O119 1.252 . S
O128 In117 2.294 1_565 S
O128 C121 1.240 1_565 S
O129 In117 2.326 . S
O129 C121 1.252 . S
In130 O131 2.294 . S
In130 O132 2.326 . S
In130 O136 2.266 . S
In130 O137 2.326 . S
In130 O138 2.266 . S
In130 O139 2.326 . S
In130 O141 2.294 . S
In130 O142 2.326 . S
O131 In130 2.294 . S
O131 C140 1.240 . S
O132 In130 2.326 . S
O132 C140 1.252 . S
C133 O136 1.252 . S
C133 O137 1.260 . S
C134 O141 1.240 . S
C134 O142 1.252 . S
C135 O138 1.252 . S
C135 O139 1.260 . S
O136 In130 2.266 . S
O136 C133 1.252 . S
O137 In130 2.326 . S
O137 C133 1.260 . S
O138 In130 2.266 . S
O138 C135 1.252 . S
O139 In130 2.326 . S
O139 C135 1.260 . S
C140 O131 1.240 . S
C140 O132 1.252 . S
O141 In130 2.294 . S
O141 C134 1.240 . S
O142 In130 2.326 . S
O142 C134 1.252 . S
In143 O144 2.294 1_655 S
In143 O145 2.326 . S
In143 O149 2.266 1_655 S
In143 O150 2.326 . S
In143 O151 2.266 . S
In143 O152 2.326 1_655 S
In143 O154 2.294 . S
In143 O155 2.326 . S
O144 In143 2.294 1_455 S
O144 C153 1.240 1_455 S
O145 In143 2.326 . S
O145 C153 1.252 . S
C146 O149 1.252 1_655 S
C146 O150 1.260 . S
C147 O154 1.240 . S
C147 O155 1.252 . S
C148 O151 1.252 . S
C148 O152 1.260 1_655 S
O149 In143 2.266 1_455 S
O149 C146 1.252 1_455 S
O150 In143 2.326 . S
O150 C146 1.260 . S
O151 In143 2.266 . S
O151 C148 1.252 . S
O152 In143 2.326 1_455 S
O152 C148 1.260 1_455 S
C153 O144 1.240 1_655 S
C153 O145 1.252 . S
O154 In143 2.294 . S
O154 C147 1.240 . S
O155 In143 2.326 . S
O155 C147 1.252 . S
C156 C157 1.369 . S
C156 C158 1.419 1_454 S
C156 H160 0.930 . S
C157 C156 1.369 . S
C157 C166 1.427 . S
C158 C156 1.419 1_656 S
C158 C159 1.363 . S
C158 H161 0.929 . S
C159 C158 1.363 . S
C159 C165 1.428 . S
H160 C156 0.930 . S
H161 C158 0.929 . S
S162 N163 1.613 . S
S162 N164 1.610 1_554 S
N163 S162 1.613 . S
N163 C166 1.351 1_655 S
N164 S162 1.610 1_556 S
N164 C165 1.351 . S
C165 C159 1.428 . S
C165 N164 1.351 . S
C165 C166 1.434 1_656 S
C166 C157 1.427 . S
C166 N163 1.351 1_455 S
C166 C165 1.434 1_454 S
C167 C168 1.369 . S
C167 C169 1.419 . S
C167 H171 0.930 . S
C168 C167 1.369 . S
C168 C177 1.429 1_565 S
C169 C167 1.419 . S
C169 C170 1.363 1_565 S
C169 H172 0.929 . S
C170 C169 1.363 1_545 S
C170 C176 1.428 . S
H171 C167 0.930 . S
H172 C169 0.929 . S
S173 N174 1.613 . S
S173 N175 1.610 . S
N174 S173 1.613 . S
N174 C177 1.350 . S
N175 S173 1.610 . S
N175 C176 1.351 . S
C176 C170 1.428 . S
C176 N175 1.351 . S
C176 C177 1.434 . S
C177 C168 1.429 1_545 S
C177 N174 1.350 . S
C177 C176 1.434 . S
C178 C179 1.369 . S
C178 C180 1.419 1_554 S
C178 H182 0.930 . S
C179 C178 1.369 . S
C179 C188 1.429 . S
C180 C178 1.419 1_556 S
C180 C181 1.363 . S
C180 H183 0.929 . S
C181 C180 1.363 . S
C181 C187 1.428 . S
H182 C178 0.930 . S
H183 C180 0.929 . S
S184 N185 1.613 1_556 S
S184 N186 1.610 . S
N185 S184 1.613 1_554 S
N185 C188 1.350 . S
N186 S184 1.610 . S
N186 C187 1.351 . S
C187 C181 1.428 . S
C187 N186 1.351 . S
C187 C188 1.434 1_556 S
C188 C179 1.429 . S
C188 N185 1.350 . S
C188 C187 1.434 1_554 S
C189 C190 1.369 . S
C189 C191 1.416 1_455 S
C189 H193 0.930 . S
C190 C189 1.369 . S
C190 C199 1.436 1_455 S
C191 C189 1.416 1_655 S
C191 C192 1.357 . S
C191 H194 0.924 . S
C192 C191 1.357 . S
C192 C198 1.428 . S
H193 C189 0.930 . S
H194 C191 0.924 . S
S195 N196 1.613 . S
S195 N197 1.610 . S
N196 S195 1.613 . S
N196 C199 1.340 . S
N197 S195 1.610 . S
N197 C198 1.351 . S
C198 C192 1.428 . S
C198 N197 1.351 . S
C198 C199 1.437 . S
C199 C190 1.436 1_655 S
C199 N196 1.340 . S
C199 C198 1.437 . S
C200 C201 1.369 1_565 S
C200 C202 1.419 1_556 S
C200 H204 0.930 . S
C201 C200 1.369 1_545 S
C201 C210 1.429 . S
C202 C200 1.419 1_554 S
C202 C203 1.363 . S
C202 H205 0.929 . S
C203 C202 1.363 . S
C203 C209 1.428 1_565 S
H204 C200 0.930 . S
H205 C202 0.929 . S
S206 N207 1.613 1_554 S
S206 N208 1.610 . S
N207 S206 1.613 1_556 S
N207 C210 1.350 . S
N208 S206 1.610 . S
N208 C209 1.351 . S
C209 C203 1.428 1_545 S
C209 N208 1.351 . S
C209 C210 1.434 1_554 S
C210 C201 1.429 . S
C210 N207 1.350 . S
C210 C209 1.434 1_556 S
C211 C212 1.369 . S
C211 C213 1.419 . S
C211 H215 0.930 . S
C212 C211 1.369 . S
C212 C221 1.429 . S
C213 C211 1.419 . S
C213 C214 1.363 . S
C213 H216 0.929 . S
C214 C213 1.363 . S
C214 C220 1.428 . S
H215 C211 0.930 . S
H216 C213 0.929 . S
S217 N218 1.613 . S
S217 N219 1.610 . S
N218 S217 1.613 . S
N218 C221 1.350 . S
N219 S217 1.610 . S
N219 C220 1.351 . S
C220 C214 1.428 . S
C220 N219 1.351 . S
C220 C221 1.434 . S
C221 C212 1.429 . S
C221 N218 1.350 . S
C221 C220 1.434 . S
C222 C223 1.373 1_455 S
C222 C224 1.419 1_556 S
C222 H226 0.930 . S
C223 C222 1.373 1_655 S
C223 C232 1.425 . S
C224 C222 1.419 1_554 S
C224 C225 1.362 1_455 S
C224 H227 0.929 . S
C225 C224 1.362 1_655 S
C225 C231 1.429 . S
H226 C222 0.930 . S
H227 C224 0.929 . S
S228 N229 1.611 1_554 S
S228 N230 1.612 . S
N229 S228 1.611 1_556 S
N229 C232 1.350 . S
N230 S228 1.612 . S
N230 C231 1.351 . S
C231 C225 1.429 . S
C231 N230 1.351 . S
C231 C232 1.434 1_554 S
C232 C223 1.425 . S
C232 N229 1.350 . S
C232 C231 1.434 1_556 S
C233 C234 1.363 1_565 S
C233 C235 1.419 . S
C233 H237 0.930 . S
C234 C233 1.363 1_545 S
C234 C243 1.435 . S
C235 C233 1.419 . S
C235 C236 1.350 1_565 S
C235 H238 0.929 . S
C236 C235 1.350 1_545 S
C236 C242 1.442 . S
H237 C233 0.930 . S
H238 C235 0.929 . S
S239 N240 1.613 . S
S239 N241 1.610 . S
N240 S239 1.613 . S
N240 C243 1.350 . S
N241 S239 1.610 . S
N241 C242 1.351 . S
C242 C236 1.442 . S
C242 N241 1.351 . S
C242 C243 1.434 . S
C243 C234 1.435 . S
C243 N240 1.350 . S
C243 C242 1.434 . S
C244 C245 1.369 . S
C244 C246 1.419 1_556 S
C244 H248 0.930 . S
C245 C244 1.369 . S
C245 C254 1.429 . S
C246 C244 1.419 1_554 S
C246 C247 1.363 . S
C246 H249 0.929 . S
C247 C246 1.363 . S
C247 C253 1.428 . S
H248 C244 0.930 . S
H249 C246 0.929 . S
S250 N251 1.607 1_554 S
S250 N252 1.616 . S
N251 S250 1.607 1_556 S
N251 C254 1.350 . S
N252 S250 1.616 . S
N252 C253 1.351 . S
C253 C247 1.428 . S
C253 N252 1.351 . S
C253 C254 1.434 1_554 S
C254 C245 1.429 . S
C254 N251 1.350 . S
C254 C253 1.434 1_556 S
C255 C256 1.364 1_455 S
C255 C257 1.419 . S
C255 H259 0.930 . S
C256 C255 1.364 1_655 S
C256 C265 1.433 . S
C257 C255 1.419 . S
C257 C258 1.364 1_455 S
C257 H260 0.929 . S
C258 C257 1.364 1_655 S
C258 C264 1.428 . S
H259 C255 0.930 . S
H260 C257 0.929 . S
S261 N262 1.613 . S
S261 N263 1.610 . S
N262 S261 1.613 . S
N262 C265 1.350 . S
N263 S261 1.610 . S
N263 C264 1.351 . S
C264 C258 1.428 . S
C264 N263 1.351 . S
C264 C265 1.434 . S
C265 C256 1.433 . S
C265 N262 1.350 . S
C265 C264 1.434 . S
C266 C267 1.355 1_565 S
C266 C268 1.419 1_556 S
C266 H270 0.930 . S
C267 C266 1.355 1_545 S
C267 C276 1.443 . S
C268 C266 1.419 1_554 S
C268 C269 1.363 1_565 S
C268 H271 0.929 . S
C269 C268 1.363 1_545 S
C269 C275 1.429 . S
H270 C266 0.930 . S
H271 C268 0.929 . S
S272 N273 1.608 1_554 S
S272 N274 1.616 . S
N273 S272 1.608 1_556 S
N273 C276 1.350 . S
N274 S272 1.616 . S
N274 C275 1.351 . S
C275 C269 1.429 . S
C275 N274 1.351 . S
C275 C276 1.434 1_554 S
C276 C267 1.443 . S
C276 N273 1.350 . S
C276 C275 1.434 1_556 S
C277 C278 1.369 . S
C277 C279 1.419 . S
C277 H281 0.930 . S
C278 C277 1.369 . S
C278 C287 1.429 . S
C279 C277 1.419 . S
C279 C280 1.363 . S
C279 H282 0.929 . S
C280 C279 1.363 . S
C280 C286 1.428 . S
H281 C277 0.930 . S
H282 C279 0.929 . S
S283 N284 1.613 . S
S283 N285 1.610 . S
N284 S283 1.613 . S
N284 C287 1.350 . S
N285 S283 1.610 . S
N285 C286 1.351 . S
C286 C280 1.428 . S
C286 N285 1.351 . S
C286 C287 1.434 . S
C287 C278 1.429 . S
C287 N284 1.350 . S
C287 C286 1.434 . S
C288 C289 1.369 . S
C288 C290 1.419 . S
C288 H292 0.930 1_455 S
C289 C288 1.369 . S
C289 C298 1.429 . S
C290 C288 1.419 . S
C290 C291 1.363 . S
C290 H293 0.929 1_455 S
C291 C290 1.363 . S
C291 C297 1.428 . S
H292 C288 0.930 1_655 S
H293 C290 0.929 1_655 S
S294 N295 1.613 . S
S294 N296 1.610 . S
N295 S294 1.613 . S
N295 C298 1.350 . S
N296 S294 1.610 . S
N296 C297 1.351 . S
C297 C291 1.428 . S
C297 N296 1.351 . S
C297 C298 1.434 . S
C298 C289 1.429 . S
C298 N295 1.350 . S
C298 C297 1.434 . S
C299 C300 1.369 . S
C299 C301 1.419 . S
C299 H303 0.930 1_545 S
C300 C299 1.369 . S
C300 C309 1.429 . S
C301 C299 1.419 . S
C301 C302 1.363 . S
C301 H304 0.929 1_545 S
C302 C301 1.363 . S
C302 C308 1.428 . S
H303 C299 0.930 1_565 S
H304 C301 0.929 1_565 S
S305 N306 1.613 . S
S305 N307 1.610 . S
N306 S305 1.613 . S
N306 C309 1.350 . S
N307 S305 1.610 . S
N307 C308 1.351 . S
C308 C302 1.428 . S
C308 N307 1.351 . S
C308 C309 1.434 . S
C309 C300 1.429 . S
C309 N306 1.350 . S
C309 C308 1.434 . S
C310 C311 1.369 . S
C310 C312 1.419 . S
C310 H314 0.930 . S
C311 C310 1.369 . S
C311 C320 1.429 . S
C312 C310 1.419 . S
C312 C313 1.363 . S
C312 H315 0.929 . S
C313 C312 1.363 . S
C313 C319 1.428 . S
H314 C310 0.930 . S
H315 C312 0.929 . S
S316 N317 1.613 . S
S316 N318 1.610 . S
N317 S316 1.613 . S
N317 C320 1.350 . S
N318 S316 1.610 . S
N318 C319 1.351 . S
C319 C313 1.428 . S
C319 N318 1.351 . S
C319 C320 1.434 . S
C320 C311 1.429 . S
C320 N317 1.350 . S
C320 C319 1.434 . S
C321 C322 1.369 . S
C321 C323 1.419 . S
C321 H325 0.930 . S
C322 C321 1.369 . S
C322 C331 1.429 . S
C323 C321 1.419 . S
C323 C324 1.363 . S
C323 H326 0.929 . S
C324 C323 1.363 . S
C324 C330 1.428 . S
H325 C321 0.930 . S
H326 C323 0.929 . S
S327 N328 1.613 . S
S327 N329 1.610 . S
N328 S327 1.613 . S
N328 C331 1.350 . S
N329 S327 1.610 . S
N329 C330 1.351 . S
C330 C324 1.428 . S
C330 N329 1.351 . S
C330 C331 1.434 . S
C331 C322 1.429 . S
C331 N328 1.350 . S
C331 C330 1.434 . S
C332 C333 1.369 1_545 S
C332 C334 1.419 . S
C332 H336 0.930 . S
C333 C332 1.369 1_565 S
C333 C342 1.429 . S
C334 C332 1.419 . S
C334 C335 1.363 1_545 S
C334 H337 0.929 . S
C335 C334 1.363 1_565 S
C335 C341 1.428 . S
H336 C332 0.930 . S
H337 C334 0.929 . S
S338 N339 1.613 . S
S338 N340 1.610 . S
N339 S338 1.613 . S
N339 C342 1.350 . S
N340 S338 1.610 . S
N340 C341 1.351 . S
C341 C335 1.428 . S
C341 N340 1.351 . S
C341 C342 1.434 . S
C342 C333 1.429 . S
C342 N339 1.350 . S
C342 C341 1.434 . S
C343 C344 1.369 . S
C343 C345 1.419 . S
C343 H347 0.930 . S
C344 C343 1.369 . S
C344 C353 1.429 . S
C345 C343 1.419 . S
C345 C346 1.363 . S
C345 H348 0.929 . S
C346 C345 1.363 . S
C346 C352 1.428 . S
H347 C343 0.930 . S
H348 C345 0.929 . S
S349 N350 1.613 . S
S349 N351 1.610 . S
N350 S349 1.613 . S
N350 C353 1.350 . S
N351 S349 1.610 . S
N351 C352 1.351 . S
C352 C346 1.428 . S
C352 N351 1.351 . S
C352 C353 1.434 . S
C353 C344 1.429 . S
C353 N350 1.350 . S
C353 C352 1.434 . S
C354 C355 1.369 . S
C354 C356 1.419 . S
C354 H358 0.930 . S
C355 C354 1.369 . S
C355 C364 1.429 . S
C356 C354 1.419 . S
C356 C357 1.363 . S
C356 H359 0.929 . S
C357 C356 1.363 . S
C357 C363 1.428 . S
H358 C354 0.930 . S
H359 C356 0.929 . S
S360 N361 1.613 . S
S360 N362 1.610 . S
N361 S360 1.613 . S
N361 C364 1.350 . S
N362 S360 1.610 . S
N362 C363 1.351 . S
C363 C357 1.428 . S
C363 N362 1.351 . S
C363 C364 1.434 . S
C364 C355 1.429 . S
C364 N361 1.350 . S
C364 C363 1.434 . S
C365 C366 1.369 . S
C365 C367 1.419 . S
C365 H369 0.930 . S
C366 C365 1.369 . S
C366 C375 1.429 . S
C367 C365 1.419 . S
C367 C368 1.363 . S
C367 H370 0.929 . S
C368 C367 1.363 . S
C368 C374 1.428 . S
H369 C365 0.930 . S
H370 C367 0.929 . S
S371 N372 1.613 . S
S371 N373 1.610 . S
N372 S371 1.613 . S
N372 C375 1.350 . S
N373 S371 1.610 . S
N373 C374 1.351 . S
C374 C368 1.428 . S
C374 N373 1.351 . S
C374 C375 1.434 . S
C375 C366 1.429 . S
C375 N372 1.350 . S
C375 C374 1.434 . S
C376 C377 1.369 . S
C376 C378 1.419 . S
C376 H380 0.930 . S
C377 C376 1.369 . S
C377 C386 1.429 . S
C378 C376 1.419 . S
C378 C379 1.363 . S
C378 H381 0.929 . S
C379 C378 1.363 . S
C379 C385 1.428 . S
H380 C376 0.930 . S
H381 C378 0.929 . S
S382 N383 1.613 . S
S382 N384 1.610 . S
N383 S382 1.613 . S
N383 C386 1.350 . S
N384 S382 1.610 . S
N384 C385 1.351 . S
C385 C379 1.428 . S
C385 N384 1.351 . S
C385 C386 1.434 . S
C386 C377 1.429 . S
C386 N383 1.350 . S
C386 C385 1.434 . S
C387 C388 1.369 . S
C387 C389 1.419 . S
C387 H391 0.930 . S
C388 C387 1.369 . S
C388 C397 1.429 . S
C389 C387 1.419 . S
C389 C390 1.363 . S
C389 H392 0.929 . S
C390 C389 1.363 . S
C390 C396 1.428 . S
H391 C387 0.930 . S
H392 C389 0.929 . S
S393 N394 1.613 . S
S393 N395 1.610 . S
N394 S393 1.613 . S
N394 C397 1.350 . S
N395 S393 1.610 . S
N395 C396 1.351 . S
C396 C390 1.428 . S
C396 N395 1.351 . S
C396 C397 1.434 . S
C397 C388 1.429 . S
C397 N394 1.350 . S
C397 C396 1.434 . S
C398 C399 1.369 . S
C398 C400 1.419 . S
C398 H402 0.930 . S
C399 C398 1.369 . S
C399 C408 1.429 . S
C400 C398 1.419 . S
C400 C401 1.363 . S
C400 H403 0.929 . S
C401 C400 1.363 . S
C401 C407 1.428 . S
H402 C398 0.930 . S
H403 C400 0.929 . S
S404 N405 1.613 . S
S404 N406 1.610 . S
N405 S404 1.613 . S
N405 C408 1.350 . S
N406 S404 1.610 . S
N406 C407 1.351 . S
C407 C401 1.428 . S
C407 N406 1.351 . S
C407 C408 1.434 . S
C408 C399 1.429 . S
C408 N405 1.350 . S
C408 C407 1.434 . S
C409 C410 1.369 . S
C409 C411 1.419 . S
C409 H413 0.930 . S
C410 C409 1.369 . S
C410 C419 1.429 . S
C411 C409 1.419 . S
C411 C412 1.363 . S
C411 H414 0.929 . S
C412 C411 1.363 . S
C412 C418 1.428 . S
H413 C409 0.930 . S
H414 C411 0.929 . S
S415 N416 1.613 . S
S415 N417 1.610 . S
N416 S415 1.613 . S
N416 C419 1.350 . S
N417 S415 1.610 . S
N417 C418 1.351 . S
C418 C412 1.428 . S
C418 N417 1.351 . S
C418 C419 1.434 . S
C419 C410 1.429 . S
C419 N416 1.350 . S
C419 C418 1.434 . S
C157 C4 1.439 . S
C159 C153 1.438 . S
C168 C82 1.442 . S
C170 C17 1.439 . S
C179 C30 1.438 . S
C181 C95 1.440 . S
C190 C108 1.439 . S
C192 C43 1.438 . S
C201 C121 1.438 . S
C203 C62 1.442 . S
C212 C134 1.442 . S
C214 C75 1.442 . S
C223 C44 1.419 . S
C225 C109 1.421 1_655 S
C234 C55 1.422 1_545 S
C236 C122 1.420 . S
C245 C68 1.420 . S
C247 C135 1.422 . S
C256 C146 1.422 . S
C258 C5 1.423 1_655 S
C267 C18 1.420 . S
C269 C83 1.421 1_545 S
C278 C31 1.423 . S
C280 C96 1.417 . S
C289 C107 1.686 . S
C291 C3 1.683 . S
C300 C120 1.683 . S
C302 C16 1.685 . S
C311 C29 1.683 . S
C313 C133 1.686 . S
C322 C42 1.686 . S
C324 C148 1.683 . S
C333 C57 1.685 . S
C335 C81 1.683 . S
C344 C94 1.683 . S
C346 C70 1.686 . S
C355 C10 1.685 . S
C357 C140 1.683 . S
C366 C147 1.683 . S
C368 C23 1.684 . S
C377 C36 1.683 . S
C379 C88 1.681 . S
C388 C49 1.681 . S
C390 C101 1.683 . S
C399 C56 1.681 . S
C401 C114 1.684 . S
C410 C69 1.682 . S
C412 C127 1.682 . S
