# Generated by pormake.
# Topology smc, (6)-cn, num edge types: 1
# Building blocks:
#     Node 0, Type 0, BuildingBlock: KUMBOL_clean_sbu_1, # of connection points: 6
#     Node 1, Type 0, BuildingBlock: KUMBOL_clean_sbu_1, # of connection points: 6
#     Node 2, Type 0, BuildingBlock: KUMBOL_clean_sbu_1, # of connection points: 6
#     Node 3, Type 0, BuildingBlock: KUMBOL_clean_sbu_1, # of connection points: 6
#     Node 4, Type 0, BuildingBlock: KUMBOL_clean_sbu_1, # of connection points: 6
#     Node 5, Type 0, BuildingBlock: KUMBOL_clean_sbu_1, # of connection points: 6
#     Node 6, Type 0, BuildingBlock: KUMBOL_clean_sbu_1, # of connection points: 6
#     Node 7, Type 0, BuildingBlock: KUMBOL_clean_sbu_1, # of connection points: 6
#     Node 8, Type 0, BuildingBlock: KUMBOL_clean_sbu_1, # of connection points: 6
#     Edge 9, Type (0, 0), BuildingBlock: CIFDUS_clean_linker_0, # of connection points: 2
#     Edge 10, Type (0, 0), BuildingBlock: CIFDUS_clean_linker_0, # of connection points: 2
#     Edge 11, Type (0, 0), BuildingBlock: CIFDUS_clean_linker_0, # of connection points: 2
#     Edge 12, Type (0, 0), BuildingBlock: CIFDUS_clean_linker_0, # of connection points: 2
#     Edge 13, Type (0, 0), BuildingBlock: CIFDUS_clean_linker_0, # of connection points: 2
#     Edge 14, Type (0, 0), BuildingBlock: CIFDUS_clean_linker_0, # of connection points: 2
#     Edge 15, Type (0, 0), BuildingBlock: CIFDUS_clean_linker_0, # of connection points: 2
#     Edge 16, Type (0, 0), BuildingBlock: CIFDUS_clean_linker_0, # of connection points: 2
#     Edge 17, Type (0, 0), BuildingBlock: CIFDUS_clean_linker_0, # of connection points: 2
#     Edge 18, Type (0, 0), BuildingBlock: CIFDUS_clean_linker_0, # of connection points: 2
#     Edge 19, Type (0, 0), BuildingBlock: CIFDUS_clean_linker_0, # of connection points: 2
#     Edge 20, Type (0, 0), BuildingBlock: CIFDUS_clean_linker_0, # of connection points: 2
#     Edge 21, Type (0, 0), BuildingBlock: CIFDUS_clean_linker_0, # of connection points: 2
#     Edge 22, Type (0, 0), BuildingBlock: CIFDUS_clean_linker_0, # of connection points: 2
#     Edge 23, Type (0, 0), BuildingBlock: CIFDUS_clean_linker_0, # of connection points: 2
#     Edge 24, Type (0, 0), BuildingBlock: CIFDUS_clean_linker_0, # of connection points: 2
#     Edge 25, Type (0, 0), BuildingBlock: CIFDUS_clean_linker_0, # of connection points: 2
#     Edge 26, Type (0, 0), BuildingBlock: CIFDUS_clean_linker_0, # of connection points: 2
#     Edge 27, Type (0, 0), BuildingBlock: CIFDUS_clean_linker_0, # of connection points: 2
#     Edge 28, Type (0, 0), BuildingBlock: CIFDUS_clean_linker_0, # of connection points: 2
#     Edge 29, Type (0, 0), BuildingBlock: CIFDUS_clean_linker_0, # of connection points: 2
#     Edge 30, Type (0, 0), BuildingBlock: CIFDUS_clean_linker_0, # of connection points: 2
#     Edge 31, Type (0, 0), BuildingBlock: CIFDUS_clean_linker_0, # of connection points: 2
#     Edge 32, Type (0, 0), BuildingBlock: CIFDUS_clean_linker_0, # of connection points: 2
#     Edge 33, Type (0, 0), BuildingBlock: CIFDUS_clean_linker_0, # of connection points: 2
#     Edge 34, Type (0, 0), BuildingBlock: CIFDUS_clean_linker_0, # of connection points: 2
#     Edge 35, Type (0, 0), BuildingBlock: CIFDUS_clean_linker_0, # of connection points: 2
# Relax obj value: 0.165
# Max RMSD: 0.318
# Mean RMSD: 0.318
data_MOF--net-smc--node1-KUMBOL_clean_sbu_1--edge1-CIFDUS_clean_linker_0
_symmetry_space_group_name_H-M    P1
_symmetry_Int_Tables_number       1
_symmetry_cell_setting            triclinic
loop_
_symmetry_equiv_pos_as_xyz
'x, y, z'
_cell_length_a     34.638765
_cell_length_b     34.673917
_cell_length_c     35.032063
_cell_angle_alpha  89.820432
_cell_angle_beta   90.20116
_cell_angle_gamma 119.81432
loop_
_atom_site_label
_atom_site_type_symbol
_atom_site_fract_x
_atom_site_fract_y
_atom_site_fract_z
_atom_type_partial_charge
C0 C 1.01055 0.56351 0.05202 0.0
C1 C 0.01675 0.59909 0.99085 0.0
C2 C 1.00597 0.56065 1.01246 0.0
C3 C 0.03384 0.64037 1.00924 0.0
C4 C 0.02716 0.60478 0.07062 0.0
C5 C 0.0392 0.64323 0.04897 0.0
N6 N 0.99889 0.52591 0.07234 0.0
C7 C 1.0012 0.52666 0.11122 0.0
C8 C 0.03095 0.60612 0.11048 0.0
C9 C 0.01763 0.56682 0.13087 0.0
Gd10 Gd 0.05968 0.41872 0.99833 0.0
Gd11 Gd 0.97291 0.46072 0.03712 0.0
N12 N 0.99059 0.52037 0.99522 0.0
C13 C 1.00952 0.59485 0.95141 0.0
C14 C 0.98172 0.51583 0.957 0.0
C15 C 0.99141 0.55298 0.93452 0.0
H16 H 0.96641 0.48375 0.94359 0.0
H17 H 0.98476 0.54926 0.90415 0.0
H18 H 0.07852 0.36566 0.06839 0.0
H19 H 0.99011 0.49625 0.12717 0.0
H20 H 0.05375 0.28751 0.08707 0.0
H21 H 0.01718 0.62355 0.93385 0.0
H22 H 0.0427 0.67027 0.993 0.0
H23 H 0.06645 0.42696 0.90294 0.0
H24 H 0.04363 0.63721 0.12581 0.0
H25 H 0.01982 0.56741 0.16172 0.0
H26 H 0.99274 0.20695 0.97002 0.0
H27 H 0.05219 0.67527 0.06274 0.0
H28 H 1.01493 0.29553 0.85756 0.0
H29 H 0.04646 0.37643 0.84739 0.0
N30 N 0.04745 0.37517 0.94361 0.0
C31 C 0.03233 0.33131 0.94968 0.0
C32 C 0.0536 0.39179 0.90745 0.0
C33 C 0.0243 0.31758 0.88192 0.0
C34 C 0.04228 0.36327 0.87604 0.0
C35 C 0.01953 0.30109 0.91918 0.0
H36 H 0.9927 0.23181 0.90394 0.0
N37 N 0.04793 0.3483 0.01445 0.0
C38 C 0.03244 0.31731 0.98653 0.0
C39 C 0.02525 0.2615 0.03169 0.0
C40 C 0.01965 0.27275 0.9944 0.0
C41 C 0.0586 0.33891 0.04924 0.0
C42 C 0.04626 0.29512 0.05896 0.0
O43 O 0.04738 0.50872 0.0376 0.0
O44 O 0.0616 0.48287 0.98371 0.0
O45 O 0.12458 0.45634 0.02567 0.0
O46 O 0.11986 0.43735 0.96632 0.0
O47 O 0.95357 0.41848 0.98238 0.0
O48 O 0.02281 0.441 0.95922 0.0
O49 O 0.98916 0.3621 1.01032 0.0
O50 O 0.96537 0.39483 0.05379 0.0
O51 O 0.90947 0.45645 0.02222 0.0
O52 O 0.92091 0.44129 0.07934 0.0
O53 O 0.05842 0.42693 0.06296 0.0
O54 O 1.00853 0.4486 0.08717 0.0
C55 C 0.07367 0.51487 1.00871 0.0
C56 C 0.97941 0.41692 0.95561 0.0
C57 C 0.18105 0.44394 1.00096 0.0
C58 C 0.25958 0.46538 1.00441 0.0
C59 C 0.20262 0.38768 1.00916 0.0
C60 C 0.16957 0.39922 1.00497 0.0
C61 C 0.24739 0.42054 1.009 0.0
C62 C 0.22626 0.47709 1.00042 0.0
C63 C 0.14619 0.45591 0.99534 0.0
C64 C 1.00362 0.24164 0.96455 0.0
C65 C 1.00366 0.25582 0.92692 0.0
H66 H 1.0159 0.22761 0.03907 0.0
C67 C 0.95769 0.36142 0.03185 0.0
C68 C 0.04038 0.43795 0.09133 0.0
C69 C 0.87258 0.47158 0.07292 0.0
C70 C 0.8252 0.50545 0.06633 0.0
C71 C 0.85045 0.49716 0.12895 0.0
C72 C 0.87318 0.47766 0.11266 0.0
C73 C 0.82681 0.51108 0.10604 0.0
C74 C 0.84784 0.48521 0.04966 0.0
C75 C 0.89441 0.44747 0.05696 0.0
H76 H 0.19351 0.35309 1.01204 0.0
H77 H 0.13516 0.37319 1.00425 0.0
H78 H 0.27262 0.41091 1.01161 0.0
H79 H 0.23549 0.51164 0.99634 0.0
H80 H 0.85071 0.50101 0.15961 0.0
H81 H 0.89066 0.46665 0.13149 0.0
H82 H 0.80871 0.52541 0.11949 0.0
H83 H 0.84572 0.47966 0.01911 0.0
C84 C 0.45941 0.48187 0.05367 0.0
C85 C 0.41731 0.45161 0.99502 0.0
C86 C 0.45825 0.47691 0.01413 0.0
C87 C 0.37753 0.43224 0.0159 0.0
C88 C 0.41939 0.46134 0.07472 0.0
C89 C 0.37855 0.43711 0.05559 0.0
N90 N 0.49948 0.50504 0.07167 0.0
C91 C 0.50162 0.50571 0.11072 0.0
C92 C 0.42153 0.46486 0.11453 0.0
C93 C 0.46285 0.48669 0.13259 0.0
Gd94 Gd 0.62026 0.66418 1.00798 0.0
Gd95 Gd 0.56193 0.53141 0.03136 0.0
N96 N 0.4972 0.49611 0.99438 0.0
C97 C 0.41761 0.44564 0.95553 0.0
C98 C 0.49792 0.48815 0.95629 0.0
C99 C 0.45811 0.46359 0.93616 0.0
H100 H 0.52928 0.50106 0.94155 0.0
H101 H 0.45868 0.45806 0.90583 0.0
H102 H 0.68003 0.72727 0.08196 0.0
H103 H 0.53301 0.51894 0.12552 0.0
H104 H 0.75979 0.77225 0.09923 0.0
H105 H 0.38682 0.42634 0.9399 0.0
H106 H 0.3458 0.41282 1.00165 0.0
H107 H 0.61115 0.67192 0.91257 0.0
H108 H 0.39154 0.44956 0.13163 0.0
H109 H 0.46492 0.48784 0.16344 0.0
H110 H 0.83493 0.7926 0.9795 0.0
H111 H 0.34755 0.42139 0.07133 0.0
H112 H 0.74319 0.74513 0.8673 0.0
H113 H 0.66164 0.70368 0.8573 0.0
N114 N 0.66378 0.69469 0.95317 0.0
C115 C 0.70822 0.71979 0.95943 0.0
C116 C 0.64673 0.68993 0.91719 0.0
C117 C 0.72121 0.73147 0.89164 0.0
C118 C 0.67518 0.70811 0.88587 0.0
C119 C 0.7383 0.73772 0.92879 0.0
H120 H 0.80795 0.77558 0.91314 0.0
N121 N 0.69291 0.71679 0.02515 0.0
C122 C 0.72334 0.73051 0.99668 0.0
C123 C 0.78236 0.77122 0.04214 0.0
C124 C 0.76904 0.75781 1.0044 0.0
C125 C 0.70509 0.73342 0.06104 0.0
C126 C 0.75009 0.75995 0.07042 0.0
O127 O 0.52833 0.56266 0.99941 0.0
O128 O 0.55324 0.62286 0.03617 0.0
O129 O 0.62428 0.72752 0.02096 0.0
O130 O 0.57454 0.68113 0.98098 0.0
O131 O 0.6052 0.55412 0.97791 0.0
O132 O 0.59566 0.6128 0.96099 0.0
O133 O 0.66791 0.63636 1.01295 0.0
O134 O 0.63176 0.57484 0.0526 0.0
O135 O 0.57573 0.48135 1.00733 0.0
O136 O 0.54347 0.4708 0.06232 0.0
O137 O 0.61587 0.65161 0.07102 0.0
O138 O 0.5831 0.57554 0.08594 0.0
C139 C 0.5209 0.59137 0.01665 0.0
C140 C 0.61198 0.58647 0.95417 0.0
C141 C 0.58936 0.75546 0.97913 0.0
C142 C 0.56188 0.80787 0.97712 0.0
C143 C 0.59793 0.7979 0.92159 0.0
C144 C 0.60424 0.76648 0.94142 0.0
C145 C 0.57657 0.81826 0.93917 0.0
C146 C 0.56878 0.77667 0.9971 0.0
C147 C 0.5903 0.71883 0.99914 0.0
C148 C 0.79957 0.77227 0.97411 0.0
C149 C 0.78419 0.76256 0.93633 0.0
H150 H 0.81718 0.79209 0.04935 0.0
C151 C 0.6666 0.60307 0.03266 0.0
C152 C 0.60136 0.61839 0.09559 0.0
C153 C 0.56696 0.42019 0.04554 0.0
C154 C 0.54357 0.34166 0.04978 0.0
C155 C 0.61351 0.39716 0.07854 0.0
C156 C 0.6055 0.43093 0.06644 0.0
C157 C 0.5828 0.3528 0.07033 0.0
C158 C 0.53599 0.37569 0.03738 0.0
C159 C 0.55529 0.4537 0.03512 0.0
H160 H 0.60915 0.80611 0.89237 0.0
H161 H 0.61989 0.75034 0.92709 0.0
H162 H 0.57178 0.84237 0.92321 0.0
H163 H 0.55662 0.76765 0.0261 0.0
H164 H 0.64332 0.40531 0.09464 0.0
H165 H 0.62887 0.46511 0.07376 0.0
H166 H 0.58949 0.32711 0.08036 0.0
H167 H 0.50596 0.36758 0.02147 0.0
C168 C 0.56885 0.01617 0.06357 0.0
C169 C 0.6008 1.003 1.00684 0.0
C170 C 0.57291 0.01674 0.02408 0.0
C171 C 0.62424 0.9883 0.0298 0.0
C172 C 0.59348 1.00271 0.08671 0.0
C173 C 0.6208 0.98841 0.06961 0.0
N174 N 0.54221 0.03023 0.07941 0.0
C175 C 0.54144 0.03479 0.11809 0.0
C176 C 0.59078 1.005 0.1264 0.0
C177 C 0.56502 0.02159 0.14212 0.0
Gd178 Gd 0.37305 0.97553 1.0064 0.0
Gd179 Gd 0.50792 0.05578 0.03624 0.0
N180 N 0.5504 0.03172 1.00254 0.0
C181 C 0.6051 1.00539 0.96704 0.0
C182 C 0.55641 0.03653 0.96388 0.0
C183 C 0.5831 0.02259 0.94551 0.0
H184 H 0.53993 0.05043 0.94726 0.0
H185 H 0.587 0.02547 0.91481 0.0
H186 H 0.30507 0.9636 0.07909 0.0
H187 H 0.52372 0.04992 0.13063 0.0
H188 H 0.2567 0.99447 0.0974 0.0
H189 H 0.62609 0.99497 0.95276 0.0
H190 H 0.64572 0.97749 0.01706 0.0
H191 H 0.36886 0.96425 0.91075 0.0
H192 H 0.60937 0.99519 0.14511 0.0
H193 H 0.56397 0.025 0.17274 0.0
H194 H 0.23965 0.05699 0.98015 0.0
H195 H 0.63974 0.97775 0.08696 0.0
H196 H 0.29508 0.02386 0.8669 0.0
H197 H 0.33757 0.98486 0.8559 0.0
N198 N 0.3435 0.99063 0.952 0.0
C199 C 0.31711 1.0085 0.95878 0.0
C200 C 0.34964 0.98054 0.91577 0.0
C201 C 0.30806 0.01422 0.89104 0.0
C202 C 0.33199 0.99216 0.88471 0.0
C203 C 0.2998 0.02211 0.9285 0.0
H204 H 0.26058 0.053 0.91375 0.0
N205 N 0.31802 0.99203 0.024 0.0
C206 C 0.30449 1.00984 0.99607 0.0
C207 C 0.2598 0.02242 0.04162 0.0
C208 C 0.2754 0.0261 1.00418 0.0
C209 C 0.29927 0.9839 0.05924 0.0
C210 C 0.27077 1.00001 0.06903 0.0
O211 O 0.48201 0.99081 1.00619 0.0
O212 O 0.41438 0.94891 0.03417 0.0
O213 O 0.30859 0.91465 0.0152 0.0
O214 O 0.35964 0.91475 0.9794 0.0
O215 O 0.48394 0.07018 0.97958 0.0
O216 O 0.42749 1.00179 0.96201 0.0
O217 O 0.39903 0.05127 1.00907 0.0
O218 O 0.4518 0.06662 0.0535 0.0
O219 O 0.56951 0.11353 0.016 0.0
O220 O 0.5427 0.11544 0.07064 0.0
O221 O 0.38561 0.9829 0.06999 0.0
O222 O 0.4616 0.01842 0.08783 0.0
C223 C 0.45131 0.95312 0.02013 0.0
C224 C 0.45327 0.04432 0.95494 0.0
C225 C 0.28722 0.85414 0.97086 0.0
C226 C 0.23597 0.77379 0.96429 0.0
C227 C 0.26338 0.82192 0.90809 0.0
C228 C 0.28736 0.85886 0.93116 0.0
C229 C 0.2389 0.77983 0.92425 0.0
C230 C 0.26078 0.81178 0.98745 0.0
C231 C 0.32029 0.89102 0.99439 0.0
C232 C 0.26136 0.04355 0.97443 0.0
C233 C 0.27331 0.0413 0.9366 0.0
H234 H 0.23741 0.03456 0.0491 0.0
C235 C 0.43096 0.08049 0.03138 0.0
C236 C 0.41796 0.99585 0.09572 0.0
C237 C 0.62149 0.1531 0.06541 0.0
C238 C 0.70262 0.19778 0.0615 0.0
C239 C 0.66748 0.15976 0.12041 0.0
C240 C 0.62573 0.14349 0.10374 0.0
C241 C 0.70568 0.1865 0.09944 0.0
C242 C 0.66034 0.18111 0.04441 0.0
C243 C 0.57673 0.13495 0.04795 0.0
H244 H 0.26493 0.82572 0.87736 0.0
H245 H 0.30772 0.8907 0.91774 0.0
H246 H 0.2232 0.75209 0.90479 0.0
H247 H 0.26072 0.80869 0.0182 0.0
H248 H 0.67022 0.1521 0.14993 0.0
H249 H 0.59681 0.12382 0.12122 0.0
H250 H 0.73781 0.19963 0.11328 0.0
H251 H 0.65774 0.19003 0.01521 0.0
C252 C 0.70974 0.90954 0.38919 0.0
C253 C 0.72364 0.9533 0.33129 0.0
C254 C 0.70746 0.91187 0.34969 0.0
C255 C 0.74208 0.99237 0.35308 0.0
C256 C 0.7275 0.94881 0.41116 0.0
C257 C 0.74373 0.9901 0.3929 0.0
N258 N 0.69311 0.86899 0.40621 0.0
C259 C 0.6906 0.86564 0.44517 0.0
C260 C 0.72744 0.94544 0.45093 0.0
C261 C 0.70852 0.90363 0.46799 0.0
Gd262 Gd 0.73165 0.74787 0.34309 0.0
Gd263 Gd 0.65773 0.80736 0.36484 0.0
N264 N 0.68892 0.8735 0.32924 0.0
C265 C 0.71992 0.95419 0.29154 0.0
C266 C 0.68288 0.87402 0.29068 0.0
C267 C 0.69915 0.91435 0.27119 0.0
H268 H 0.66561 0.8433 0.27494 0.0
H269 H 0.69507 0.91466 0.24057 0.0
H270 H 0.70612 0.69651 0.4306 0.0
H271 H 0.6728 0.83385 0.45915 0.0
H272 H 0.66596 0.62066 0.45534 0.0
H273 H 0.73205 0.98539 0.2764 0.0
H274 H 0.75467 0.02449 0.33945 0.0
H275 H 0.74695 0.73879 0.2509 0.0
H276 H 0.74065 0.9748 0.46875 0.0
H277 H 0.70653 0.90055 0.49877 0.0
H278 H 0.62874 0.52888 0.34401 0.0
H279 H 0.7575 0.02051 0.40936 0.0
H280 H 0.68067 0.60033 0.22273 0.0
H281 H 0.72543 0.67905 0.20303 0.0
N282 N 0.7146 0.69409 0.29654 0.0
C283 C 0.69301 0.65124 0.30862 0.0
C284 C 0.72732 0.70446 0.25951 0.0
C285 C 0.69037 0.62637 0.2438 0.0
C286 C 0.71543 0.67077 0.23252 0.0
C287 C 0.67928 0.61609 0.28234 0.0
H288 H 0.64435 0.54454 0.27554 0.0
N289 N 0.69998 0.6773 0.37225 0.0
C290 C 0.68526 0.64253 0.34748 0.0
C291 C 0.65476 0.59045 0.39986 0.0
C292 C 0.66207 0.59822 0.36066 0.0
C293 C 0.69386 0.66972 0.41061 0.0
C294 C 0.67106 0.62636 0.42493 0.0
O295 O 0.72438 0.84294 0.33764 0.0
O296 O 0.7646 0.81733 0.36845 0.0
O297 O 0.78819 0.73749 0.35478 0.0
O298 O 0.79173 0.78402 0.31055 0.0
O299 O 0.64396 0.76934 0.30763 0.0
O300 O 0.71351 0.77982 0.29562 0.0
O301 O 0.65528 0.70432 0.33863 0.0
O302 O 0.63547 0.73742 0.38435 0.0
O303 O 0.59927 0.80516 0.33859 0.0
O304 O 0.61012 0.81465 0.39952 0.0
O305 O 0.73521 0.76905 0.40354 0.0
O306 O 0.67762 0.78276 0.41934 0.0
C307 C 0.76087 0.85033 0.3544 0.0
C308 C 0.67251 0.76622 0.28457 0.0
C309 C 0.85192 0.7696 0.31226 0.0
C310 C 0.93258 0.80133 0.31226 0.0
C311 C 0.88907 0.76436 0.25567 0.0
C312 C 0.85013 0.75571 0.27445 0.0
C313 C 0.93007 0.78734 0.27426 0.0
C314 C 0.89316 0.79182 0.33135 0.0
C315 C 0.81292 0.76812 0.32999 0.0
C316 C 0.64688 0.56309 0.33439 0.0
C317 C 0.65564 0.572 0.29537 0.0
H318 H 0.63694 0.5569 0.41109 0.0
C319 C 0.62468 0.7041 0.36113 0.0
C320 C 0.71133 0.77622 0.42865 0.0
C321 C 0.53967 0.79965 0.37671 0.0
C322 C 0.48163 0.81965 0.37785 0.0
C323 C 0.46588 0.746 0.39835 0.0
C324 C 0.50993 0.75746 0.39118 0.0
C325 C 0.45173 0.77682 0.39174 0.0
C326 C 0.52561 0.83072 0.37027 0.0
C327 C 0.58646 0.81395 0.37055 0.0
H328 H 0.88757 0.75395 0.22635 0.0
H329 H 0.81893 0.73934 0.25909 0.0
H330 H 0.95994 0.79413 0.25897 0.0
H331 H 0.89484 0.80367 0.36027 0.0
H332 H 0.44275 0.71335 0.40942 0.0
H333 H 0.52088 0.73378 0.39728 0.0
H334 H 0.41755 0.7674 0.39801 0.0
H335 H 0.54893 0.86353 0.35938 0.0
C336 C 0.13939 0.80147 0.39632 0.0
C337 C 0.09185 0.76938 0.34082 0.0
C338 C 0.13403 0.7976 0.35698 0.0
C339 C 0.05509 0.74525 0.36478 0.0
C340 C 0.10268 0.77641 0.42046 0.0
C341 C 0.06054 0.74857 0.40449 0.0
N342 N 0.18061 0.82848 0.41099 0.0
C343 C 0.18784 0.8294 0.44938 0.0
C344 C 0.10959 0.77928 0.45996 0.0
C345 C 0.15248 0.80554 0.47445 0.0
Gd346 Gd 0.29661 1.00124 0.33787 0.0
Gd347 Gd 0.23824 0.86413 0.36634 0.0
N348 N 0.17028 0.82088 0.33449 0.0
C349 C 0.088 0.76557 0.30104 0.0
C350 C 0.16717 0.81542 0.29572 0.0
C351 C 0.12591 0.78844 0.27842 0.0
H352 H 0.19643 0.83228 0.27809 0.0
H353 H 0.12344 0.78496 0.24768 0.0
H354 H 0.34183 0.03137 0.42839 0.0
H355 H 0.22122 0.84689 0.46067 0.0
H356 H 0.41516 0.06936 0.4574 0.0
H357 H 0.05612 0.74438 0.28756 0.0
H358 H 0.0224 0.72347 0.35289 0.0
H359 H 0.31609 0.01733 0.24345 0.0
H360 H 0.0823 0.7604 0.47943 0.0
H361 H 0.1585 0.80662 0.50486 0.0
H362 H 0.51604 0.11836 0.35237 0.0
H363 H 0.03198 0.72921 0.42261 0.0
H364 H 0.45639 0.09083 0.2259 0.0
H365 H 0.38001 0.05391 0.20004 0.0
N366 N 0.35544 0.03312 0.29376 0.0
C367 C 0.39708 0.05596 0.30878 0.0
C368 C 0.34918 0.03261 0.2552 0.0
C369 C 0.42837 0.07494 0.24522 0.0
C370 C 0.38534 0.05375 0.23047 0.0
C371 C 0.43472 0.07652 0.28475 0.0
H372 H 0.50668 0.1143 0.28275 0.0
N373 N 0.36528 0.03965 0.371 0.0
C374 C 0.40219 0.05893 0.34831 0.0
C375 C 0.44984 0.08463 0.40399 0.0
C376 C 0.44535 0.08164 0.36433 0.0
C377 C 0.36988 0.04404 0.40979 0.0
C378 C 0.41196 0.06617 0.42672 0.0
O379 O 0.19534 0.88869 0.34086 0.0
O380 O 0.22301 0.96295 0.35521 0.0
O381 O 0.29334 0.06091 0.35394 0.0
O382 O 0.28717 0.04052 0.2954 0.0
O383 O 0.26978 0.8884 0.30732 0.0
O384 O 0.25712 0.94624 0.2961 0.0
O385 O 0.34015 0.9688 0.33305 0.0
O386 O 0.30494 0.92182 0.38092 0.0
O387 O 0.23731 0.80492 0.34318 0.0
O388 O 0.2656 0.82939 0.39833 0.0
O389 O 0.27506 0.98438 0.39912 0.0
O390 O 0.24971 0.91024 0.41826 0.0
C391 C 0.18979 0.92156 0.35196 0.0
C392 C 0.27047 0.91891 0.28437 0.0
C393 C 0.24334 0.07123 0.3133 0.0
C394 C 0.20164 0.11005 0.32279 0.0
C395 C 0.17156 0.04506 0.28216 0.0
C396 C 0.20962 0.04196 0.28823 0.0
C397 C 0.16736 0.0787 0.29955 0.0
C398 C 0.23958 0.10606 0.33004 0.0
C399 C 0.28332 0.06677 0.31927 0.0
C400 C 0.48277 0.10099 0.34044 0.0
C401 C 0.47746 0.09863 0.30079 0.0
H402 H 0.48238 0.10176 0.41733 0.0
C403 C 0.33787 0.93856 0.35688 0.0
C404 C 0.26096 0.95254 0.42521 0.0
C405 C 0.22472 0.75073 0.39083 0.0
C406 C 0.18706 0.66937 0.38511 0.0
C407 C 0.18298 0.70334 0.44427 0.0
C408 C 0.20986 0.7454 0.42883 0.0
C409 C 0.17139 0.66563 0.42257 0.0
C410 C 0.21387 0.71218 0.3691 0.0
C411 C 0.25159 0.79635 0.37458 0.0
H412 H 0.1458 0.02205 0.26306 0.0
H413 H 0.21287 0.01685 0.27266 0.0
H414 H 0.13836 0.08174 0.29311 0.0
H415 H 0.26634 0.13048 0.34764 0.0
H416 H 0.17171 0.69997 0.47351 0.0
H417 H 0.21934 0.77374 0.44707 0.0
H418 H 0.15151 0.63324 0.43565 0.0
H419 H 0.22633 0.7154 0.34025 0.0
C420 C 0.23091 0.34494 0.39073 0.0
C421 C 0.27622 0.34839 0.33645 0.0
C422 C 0.24305 0.35549 0.35261 0.0
C423 C 0.29731 0.33082 0.35908 0.0
C424 C 0.25205 0.32709 0.41338 0.0
C425 C 0.28515 0.32005 0.39736 0.0
N426 N 0.19922 0.35283 0.40576 0.0
C427 C 0.18909 0.34561 0.44376 0.0
C428 C 0.23999 0.3176 0.45175 0.0
C429 C 0.20856 0.32712 0.467 0.0
Gd430 Gd 0.04369 0.30534 0.33999 0.0
Gd431 Gd 0.17488 0.38999 0.3641 0.0
N432 N 0.2213 0.37128 0.33093 0.0
C433 C 0.28679 0.35862 0.29782 0.0
C434 C 0.23207 0.38232 0.29352 0.0
C435 C 0.26457 0.37559 0.27626 0.0
H436 H 0.21586 0.39671 0.27718 0.0
H437 H 0.27283 0.38398 0.2465 0.0
H438 H 0.99018 0.30262 0.42069 0.0
H439 H 0.16765 0.35558 0.45722 0.0
H440 H 0.94315 0.33309 0.44368 0.0
H441 H 0.31202 0.35352 0.28437 0.0
H442 H 0.32287 0.32514 0.34716 0.0
H443 H 0.02784 0.29103 0.24565 0.0
H444 H 0.25551 0.30395 0.47007 0.0
H445 H 0.20015 0.32132 0.497 0.0
H446 H 0.90852 0.38711 0.32949 0.0
H447 H 0.30177 0.30652 0.41444 0.0
H448 H 0.95165 0.35162 0.21043 0.0
H449 H 0.992 0.31167 0.19437 0.0
N450 N 1.00809 0.31941 0.28963 0.0
C451 C 0.98259 0.33741 0.29944 0.0
C452 C 1.01032 0.30854 0.25272 0.0
C453 C 0.96697 0.34234 0.23296 0.0
C454 C 0.98989 0.31995 0.22376 0.0
C455 C 0.96229 0.35054 0.27132 0.0
H456 H 0.92159 0.38094 0.26126 0.0
N457 N 0.99296 0.32503 0.36404 0.0
C458 C 0.97483 0.34041 0.33786 0.0
C459 C 0.93711 0.35615 0.38799 0.0
C460 C 0.94711 0.35725 0.34916 0.0
C461 C 0.98014 0.32005 0.4012 0.0
C462 C 0.9527 0.33632 0.41397 0.0
O463 O 0.15356 0.32492 0.335 0.0
O464 O 0.08979 0.28499 0.36749 0.0
O465 O 0.98359 0.24485 0.3559 0.0
O466 O 0.02292 0.24495 0.30741 0.0
O467 O 0.14985 0.40216 0.30705 0.0
O468 O 0.096 0.33011 0.29365 0.0
O469 O 0.06715 0.38037 0.33831 0.0
O470 O 0.12381 0.4078 0.38201 0.0
O471 O 0.22443 0.45528 0.34195 0.0
O472 O 0.22862 0.43567 0.40069 0.0
O473 O 0.06122 0.30491 0.40183 0.0
O474 O 0.12594 0.37215 0.41489 0.0
C475 C 0.12349 0.28703 0.34918 0.0
C476 C 0.12019 0.37215 0.28353 0.0
C477 C 0.94859 0.18465 0.31259 0.0
C478 C 0.89475 0.10532 0.31246 0.0
C479 C 0.89054 0.15416 0.26462 0.0
C480 C 0.92762 0.19065 0.28073 0.0
C481 C 0.87432 0.11168 0.28017 0.0
C482 C 0.93178 0.14213 0.32868 0.0
C483 C 0.98867 0.22145 0.32943 0.0
C484 C 0.9293 0.37331 0.32133 0.0
C485 C 0.93678 0.36984 0.28246 0.0
H486 H 0.91586 0.36871 0.39792 0.0
C487 C 0.09765 0.41365 0.35869 0.0
C488 C 0.08877 0.3356 0.42561 0.0
C489 C 0.28537 0.50821 0.38152 0.0
C490 C 0.36533 0.55924 0.38028 0.0
C491 C 0.31624 0.57844 0.41473 0.0
C492 C 0.27962 0.53792 0.40445 0.0
C493 C 0.3588 0.58911 0.40274 0.0
C494 C 0.32828 0.51862 0.36961 0.0
C495 C 0.24747 0.46443 0.37342 0.0
H496 H 0.87441 0.15878 0.23993 0.0
H497 H 0.9399 0.22325 0.26829 0.0
H498 H 0.84552 0.08384 0.26726 0.0
H499 H 0.94814 0.13753 0.35332 0.0
H500 H 0.31173 0.60145 0.43237 0.0
H501 H 0.24685 0.52956 0.41462 0.0
H502 H 0.38683 0.6206 0.41146 0.0
H503 H 0.3328 0.49516 0.35248 0.0
C504 C 0.36171 0.23851 0.72695 0.0
C505 C 0.35141 0.27742 0.6735 0.0
C506 C 0.34891 0.23879 0.68933 0.0
C507 C 0.36586 0.31542 0.69625 0.0
C508 C 0.37659 0.27687 0.74971 0.0
C509 C 0.37853 0.31519 0.73419 0.0
N510 N 0.35842 0.20053 0.74155 0.0
C511 C 0.36771 0.19849 0.77921 0.0
C512 C 0.388 0.27532 0.78778 0.0
C513 C 0.38338 0.23591 0.80259 0.0
Gd514 Gd 0.39683 0.08388 0.66561 0.0
Gd515 Gd 0.32089 0.13801 0.70173 0.0
N516 N 0.33554 0.20177 0.66774 0.0
C517 C 0.33988 0.27692 0.63508 0.0
C518 C 0.32272 0.20052 0.63063 0.0
C519 C 0.32565 0.23834 0.61352 0.0
H520 H 0.30986 0.17023 0.61435 0.0
H521 H 0.31615 0.23748 0.58394 0.0
H522 H 0.35414 0.02038 0.74518 0.0
H523 H 0.36092 0.1678 0.79233 0.0
H524 H 0.32323 0.94198 0.76345 0.0
H525 H 0.34176 0.30608 0.62182 0.0
H526 H 0.36779 0.34533 0.68463 0.0
H527 H 0.40854 0.08858 0.57081 0.0
H528 H 0.3993 0.304 0.80621 0.0
H529 H 0.39053 0.23388 0.83239 0.0
H530 H 0.31975 0.86942 0.64626 0.0
H531 H 0.3896 0.34479 0.75137 0.0
H532 H 0.36859 0.95691 0.53214 0.0
H533 H 0.39792 0.03659 0.51839 0.0
N534 N 0.38575 0.03845 0.61356 0.0
C535 C 0.37043 0.99495 0.62217 0.0
C536 C 0.39586 0.05378 0.57703 0.0
C537 C 0.3736 0.97955 0.55533 0.0
C538 C 0.39003 0.02453 0.54737 0.0
C539 C 0.36323 0.96416 0.59298 0.0
H540 H 0.33939 0.89489 0.57995 0.0
N541 N 0.36689 0.01078 0.68788 0.0
C542 C 0.3606 0.98069 0.66013 0.0
C543 C 0.32891 0.92136 0.70679 0.0
C544 C 0.34154 0.93512 0.66902 0.0
C545 C 0.35328 0.99729 0.72443 0.0
C546 C 0.33441 0.95254 0.7345 0.0
O547 O 0.3818 0.17988 0.66668 0.0
O548 O 0.426 0.1539 0.6891 0.0
O549 O 0.45393 0.07614 0.68045 0.0
O550 O 0.45713 0.11849 0.63247 0.0
O551 O 0.30038 0.09923 0.64481 0.0
O552 O 0.3684 0.11152 0.62249 0.0
O553 O 0.32113 0.03383 0.66934 0.0
O554 O 0.31465 0.07231 0.71672 0.0
O555 O 0.25429 0.12415 0.68475 0.0
O556 O 0.27682 0.14244 0.74383 0.0
O557 O 0.4116 0.11364 0.72449 0.0
O558 O 0.34903 0.11134 0.7506 0.0
C559 C 0.42143 0.18602 0.6741 0.0
C560 C 0.32537 0.09576 0.61776 0.0
C561 C 0.51758 0.10424 0.63869 0.0
C562 C 0.59813 0.13392 0.63949 0.0
C563 C 0.55276 0.08649 0.58741 0.0
C564 C 0.51451 0.0826 0.60421 0.0
C565 C 0.59429 0.11219 0.60469 0.0
C566 C 0.55938 0.12941 0.65664 0.0
C567 C 0.4787 0.10492 0.6544 0.0
C568 C 0.33436 0.90453 0.63989 0.0
C569 C 0.3454 0.91902 0.60208 0.0
H570 H 0.31376 0.88659 0.71462 0.0
C571 C 0.29559 0.03747 0.69492 0.0
C572 C 0.38695 0.1098 0.75413 0.0
C573 C 0.20504 0.1344 0.72747 0.0
C574 C 0.15354 0.16291 0.72075 0.0
C575 C 0.13879 0.10436 0.76663 0.0
C576 C 0.17851 0.10612 0.75674 0.0
C577 C 0.12627 0.1324 0.74874 0.0
C578 C 0.19293 0.16349 0.70972 0.0
C579 C 0.24698 0.13573 0.71814 0.0
H580 H 0.5503 0.06993 0.56063 0.0
H581 H 0.48276 0.06337 0.59 0.0
H582 H 0.62351 0.11491 0.59095 0.0
H583 H 0.56195 0.14676 0.68306 0.0
H584 H 0.11792 0.0816 0.78862 0.0
H585 H 0.18828 0.08487 0.77164 0.0
H586 H 0.09562 0.13102 0.75746 0.0
H587 H 0.21415 0.18665 0.68803 0.0
C588 C 0.80552 0.14502 0.73133 0.0
C589 C 0.75697 0.1069 0.67757 0.0
C590 C 0.79951 0.13656 0.69242 0.0
C591 C 0.72053 0.08592 0.70238 0.0
C592 C 0.76908 0.12306 0.75641 0.0
C593 C 0.72662 0.09375 0.7417 0.0
N594 N 0.84711 0.17322 0.74482 0.0
C595 C 0.85475 0.17856 0.78329 0.0
C596 C 0.77651 0.13033 0.79565 0.0
C597 C 0.8196 0.15791 0.80915 0.0
Gd598 Gd 0.96256 0.33405 0.66194 0.0
Gd599 Gd 0.90437 0.20137 0.69906 0.0
N600 N 0.83546 0.15653 0.66915 0.0
C601 C 0.75246 0.09838 0.63829 0.0
C602 C 0.83171 0.14623 0.63112 0.0
C603 C 0.79008 0.1179 0.61501 0.0
H604 H 0.86083 0.1605 0.61314 0.0
H605 H 0.7871 0.11073 0.58476 0.0
H606 H 1.00549 0.33252 0.75137 0.0
H607 H 0.88822 0.19672 0.79443 0.0
H608 H 0.07528 0.36973 0.7851 0.0
H609 H 0.72028 0.07602 0.62581 0.0
H610 H 0.68761 0.06305 0.6915 0.0
H611 H 0.99003 0.37187 0.57016 0.0
H612 H 0.74945 0.11383 0.81582 0.0
H613 H 0.82598 0.16234 0.83954 0.0
H614 H 0.18032 0.46014 0.69088 0.0
H615 H 0.69829 0.0767 0.76056 0.0
H616 H 0.12936 0.45915 0.56441 0.0
H617 H 0.05562 0.42298 0.53408 0.0
N618 N 0.02466 0.37908 0.62269 0.0
C619 C 0.06481 0.40125 0.64051 0.0
C620 C 0.02143 0.38687 0.58475 0.0
C621 C 0.10033 0.43697 0.58104 0.0
C622 C 0.05883 0.41617 0.56372 0.0
C623 C 0.10383 0.42981 0.61978 0.0
H624 H 0.1753 0.47257 0.62259 0.0
N625 N 0.02942 0.36776 0.69906 0.0
C626 C 0.06732 0.39545 0.67951 0.0
C627 C 0.11186 0.40802 0.7365 0.0
C628 C 0.10937 0.4164 0.6979 0.0
C629 C 0.03279 0.35793 0.73637 0.0
C630 C 0.07345 0.37822 0.75566 0.0
O631 O 0.8641 0.22481 0.66697 0.0
O632 O 0.88967 0.29801 0.68154 0.0
O633 O 0.96342 0.39741 0.67059 0.0
O634 O 0.94052 0.36087 0.61766 0.0
O635 O 0.93665 0.21907 0.63922 0.0
O636 O 0.92736 0.27726 0.62062 0.0
O637 O 1.00737 0.30259 0.6593 0.0
O638 O 0.97312 0.25864 0.7097 0.0
O639 O 0.9029 0.14081 0.67904 0.0
O640 O 0.92581 0.16445 0.73554 0.0
O641 O 0.93314 0.32064 0.72055 0.0
O642 O 0.92077 0.25363 0.74804 0.0
C643 C 0.85682 0.25677 0.67707 0.0
C644 C 0.94 0.24819 0.61297 0.0
C645 C 0.9047 0.40049 0.63557 0.0
C646 C 0.86576 0.44135 0.65036 0.0
C647 C 0.83126 0.37713 0.60874 0.0
C648 C 0.86877 0.37254 0.61165 0.0
C649 C 0.82955 0.41107 0.62811 0.0
C650 C 0.90339 0.4358 0.65441 0.0
C651 C 0.94423 0.39422 0.63755 0.0
C652 C 0.14798 0.44406 0.67712 0.0
C653 C 0.14518 0.45093 0.63823 0.0
H654 H 0.14348 0.42318 0.75143 0.0
C655 C 1.00525 0.2734 0.68458 0.0
C656 C 0.92541 0.29438 0.75032 0.0
C657 C 0.88435 0.08586 0.72689 0.0
C658 C 0.85117 1.00475 0.72277 0.0
C659 C 0.82971 0.03753 0.77367 0.0
C660 C 0.85908 0.07985 0.75994 0.0
C661 C 0.82555 1.00026 0.75516 0.0
C662 C 0.88077 0.04781 0.7085 0.0
C663 C 0.91375 0.13159 0.71185 0.0
H664 H 0.80395 0.35513 0.59037 0.0
H665 H 0.86987 0.34748 0.5942 0.0
H666 H 0.80081 0.4152 0.62389 0.0
H667 H 0.93168 0.45934 0.67116 0.0
H668 H 0.81046 0.03363 0.79912 0.0
H669 H 0.86217 0.10784 0.77563 0.0
H670 H 0.80315 0.96768 0.7669 0.0
H671 H 0.90073 0.05164 0.68351 0.0
C672 C 0.90547 0.68075 0.72399 0.0
C673 C 0.94688 0.68372 0.66713 0.0
C674 C 0.91476 0.69082 0.6855 0.0
C675 C 0.96945 0.66629 0.68791 0.0
C676 C 0.92856 0.66366 0.74497 0.0
C677 C 0.9602 0.65615 0.72667 0.0
N678 N 0.87533 0.68926 0.74121 0.0
C679 C 0.8696 0.68451 0.77986 0.0
C680 C 0.92025 0.65592 0.78407 0.0
C681 C 0.89101 0.6669 0.80164 0.0
Gd682 Gd 0.71675 0.64402 0.67305 0.0
Gd683 Gd 0.84586 0.72401 0.70215 0.0
N684 N 0.89176 0.70676 0.66578 0.0
C685 C 0.95512 0.69404 0.62828 0.0
C686 C 0.90086 0.71849 0.62826 0.0
C687 C 0.93206 0.71157 0.60879 0.0
H688 H 0.88425 0.73343 0.61343 0.0
H689 H 0.9387 0.72028 0.5789 0.0
H690 H 0.68488 0.6761 0.75372 0.0
H691 H 0.8508 0.69659 0.79467 0.0
H692 H 0.63603 0.7053 0.77052 0.0
H693 H 0.97939 0.68886 0.61315 0.0
H694 H 0.99413 0.66051 0.67426 0.0
H695 H 0.70744 0.62886 0.57903 0.0
H696 H 0.93744 0.64303 0.80117 0.0
H697 H 0.88599 0.66313 0.83221 0.0
H698 H 0.57196 0.71325 0.65144 0.0
H699 H 0.97819 0.64308 0.74241 0.0
H700 H 0.61361 0.6658 0.53826 0.0
H701 H 0.66508 0.6372 0.52578 0.0
N702 N 0.67928 0.65154 0.62095 0.0
C703 C 0.65016 0.66589 0.62881 0.0
C704 C 0.68449 0.64071 0.58473 0.0
C705 C 0.63152 0.66149 0.56178 0.0
C706 C 0.66062 0.64542 0.55458 0.0
C707 C 0.62619 0.67222 0.59918 0.0
H708 H 0.57973 0.69486 0.58522 0.0
N709 N 0.66792 0.66807 0.69461 0.0
C710 C 0.64464 0.67484 0.66651 0.0
C711 C 0.6133 0.70305 0.71287 0.0
C712 C 0.61661 0.69239 0.67499 0.0
C713 C 0.66511 0.679 0.73155 0.0
C714 C 0.63774 0.6964 0.74122 0.0
O715 O 0.82454 0.66096 0.66969 0.0
O716 O 0.76055 0.62119 0.70134 0.0
O717 O 0.65251 0.58218 0.6796 0.0
O718 O 0.70647 0.58504 0.64506 0.0
O719 O 0.82387 0.74269 0.64673 0.0
O720 O 0.76936 0.6735 0.62735 0.0
O721 O 0.74031 0.71839 0.67517 0.0
O722 O 0.79367 0.73994 0.72137 0.0
O723 O 0.89436 0.79046 0.68142 0.0
O724 O 0.89825 0.7694 0.73975 0.0
O725 O 0.7265 0.64146 0.73572 0.0
O726 O 0.7977 0.69682 0.75468 0.0
C727 C 0.79429 0.62295 0.68333 0.0
C728 C 0.79449 0.71633 0.62119 0.0
C729 C 0.63653 0.52059 0.63713 0.0
C730 C 0.5871 0.44049 0.63594 0.0
C731 C 0.61788 0.48075 0.57691 0.0
C732 C 0.64031 0.52041 0.59721 0.0
C733 C 0.59164 0.44093 0.59615 0.0
C734 C 0.6093 0.48043 0.65647 0.0
C735 C 0.66679 0.5602 0.65922 0.0
C736 C 0.59345 0.69961 0.64542 0.0
C737 C 0.59797 0.68926 0.60769 0.0
H738 H 0.59243 0.71695 0.72046 0.0
C739 C 0.76959 0.74907 0.69821 0.0
C740 C 0.75613 0.66432 0.76227 0.0
C741 C 0.95581 0.84184 0.72131 0.0
C742 C 0.03559 0.89244 0.71524 0.0
C743 C 0.99321 0.90132 0.7668 0.0
C744 C 0.95448 0.86519 0.75327 0.0
C745 C 0.03344 0.91428 0.74857 0.0
C746 C 0.99623 0.85556 0.70186 0.0
C747 C 0.91688 0.79901 0.7131 0.0
H748 H 0.62115 0.48082 0.54619 0.0
H749 H 0.66178 0.55058 0.58176 0.0
H750 H 0.57393 0.41044 0.5799 0.0
H751 H 0.6061 0.4801 0.68727 0.0
H752 H 0.99226 0.91874 0.79204 0.0
H753 H 0.92363 0.85439 0.7686 0.0
H754 H 0.06313 0.94164 0.76087 0.0
H755 H 0.99714 0.83709 0.67729 0.0
H756 H 0.46125 0.57286 0.9608 0.0
H757 H 0.47614 0.58204 0.08305 0.0
H758 H 0.39509 0.54599 0.09048 0.0
H759 H 0.31973 0.50402 0.06165 0.0
H760 H 0.30578 0.49908 0.93928 0.0
H761 H 0.38679 0.54206 0.93211 0.0
C762 C 0.44666 0.56819 0.98899 0.0
C763 C 0.47422 0.58004 0.02136 0.0
C764 C 0.40032 0.548 0.99288 0.0
C765 C 0.45537 0.57379 0.0578 0.0
C766 C 0.40908 0.55281 0.062 0.0
C767 C 0.33461 0.51358 0.03354 0.0
C768 C 0.30725 0.49872 1.00097 0.0
C769 C 0.38117 0.53868 0.02973 0.0
C770 C 0.32648 0.51057 0.96461 0.0
C771 C 0.37268 0.53486 0.96055 0.0
H772 H 0.50115 0.92864 0.06186 0.0
H773 H 0.4158 0.89267 0.96316 0.0
H774 H 0.4385 0.83946 0.94393 0.0
H775 H 0.49101 0.81179 0.94972 0.0
H776 H 0.58134 0.85175 0.0453 0.0
H777 H 0.54901 0.89505 0.07112 0.0
C778 C 0.48717 0.90857 0.03651 0.0
C779 C 0.45649 0.91406 0.01419 0.0
C780 C 0.50223 0.87968 0.02458 0.0
C781 C 0.43837 0.88803 0.98143 0.0
C782 C 0.45201 0.85817 0.97003 0.0
C783 C 0.50333 0.82979 0.97634 0.0
C784 C 0.53887 0.82934 0.9953 0.0
C785 C 0.48518 0.85507 0.99053 0.0
C786 C 0.55407 0.85188 0.03018 0.0
C787 C 0.53578 0.87678 0.0448 0.0
H788 H 0.16298 0.70281 0.93245 0.0
H789 H 0.24466 0.73943 0.03423 0.0
H790 H 0.19989 0.66373 0.05837 0.0
H791 H 0.1384 0.58518 0.04903 0.0
H792 H 0.07348 0.54828 0.93923 0.0
H793 H 0.11234 0.62565 0.91903 0.0
C794 C 0.17272 0.69469 0.95933 0.0
C795 C 0.20818 0.72781 0.9808 0.0
C796 C 0.14965 0.65042 0.9716 0.0
C797 C 0.21741 0.71565 0.01679 0.0
C798 C 0.19209 0.6719 0.03056 0.0
C799 C 0.13331 0.59428 0.02058 0.0
C800 C 0.10228 0.56126 0.99591 0.0
C801 C 0.15832 0.6388 1.00798 0.0
C802 C 0.09661 0.57312 0.95889 0.0
C803 C 0.11883 0.61738 0.94731 0.0
H804 H 0.39681 0.13741 0.04236 0.0
H805 H 0.51495 0.13608 1.00715 0.0
H806 H 0.55596 0.21388 1.00329 0.0
H807 H 0.56383 0.28446 0.0182 0.0
H808 H 0.4521 0.29393 0.05955 0.0
H809 H 0.40364 0.21291 0.05237 0.0
C810 C 0.43123 0.15432 0.0332 0.0
C811 C 0.45219 0.12937 0.02463 0.0
C812 C 0.45644 0.20153 0.03282 0.0
C813 C 0.49692 0.15242 0.01333 0.0
C814 C 0.52115 0.19807 1.01133 0.0
C815 C 0.52879 0.26885 0.02551 0.0
C816 C 0.51187 0.29459 0.04043 0.0
C817 C 0.5019 0.22294 0.02236 0.0
C818 C 0.46605 0.27434 0.04854 0.0
C819 C 0.43842 0.22804 0.04461 0.0
H820 H 0.77172 0.18613 0.04205 0.0
H821 H 0.72738 0.28227 0.04068 0.0
H822 H 0.80366 0.34202 0.029 0.0
H823 H 0.88348 0.36722 0.02867 0.0
H824 H 0.92897 0.2721 0.02846 0.0
H825 H 0.85142 0.21099 0.03088 0.0
C826 C 0.77873 0.22002 0.03784 0.0
C827 C 0.74427 0.23003 0.04221 0.0
C828 C 0.82275 0.25414 0.0318 0.0
C829 C 0.7534 0.2739 0.03698 0.0
C830 C 0.79704 0.30804 0.03084 0.0
C831 C 0.87638 0.33313 0.02916 0.0
C832 C 0.91163 0.32398 0.02987 0.0
C833 C 0.83207 0.29865 0.02992 0.0
C834 C 0.9022 0.27973 0.02881 0.0
C835 C 0.85798 0.24497 0.03008 0.0
H836 H 0.8399 0.58853 0.0513 0.0
H837 H 0.74433 0.44991 0.03543 0.0
H838 H 0.68671 0.46882 0.02011 0.0
H839 H 0.66119 0.52361 0.02242 0.0
H840 H 0.75621 0.66264 0.03637 0.0
H841 H 0.81668 0.6451 0.04114 0.0
C842 C 0.8068 0.56273 0.04311 0.0
C843 C 0.79629 0.51789 0.04438 0.0
C844 C 0.77361 0.57389 0.03524 0.0
C845 C 0.75328 0.4846 0.03415 0.0
C846 C 0.72017 0.4954 0.02607 0.0
C847 C 0.69518 0.55007 0.02625 0.0
C848 C 0.70418 0.59417 0.0304 0.0
C849 C 0.72952 0.53968 0.02842 0.0
C850 C 0.74848 0.62839 0.03388 0.0
C851 C 0.78295 0.6183 0.0366 0.0
H852 H 1.00415 0.87592 0.28641 0.0
H853 H 0.95972 0.78282 0.37991 0.0
H854 H 0.03602 0.81749 0.40488 0.0
H855 H 0.11697 0.86784 0.39457 0.0
H856 H 0.16001 0.95368 0.29672 0.0
H857 H 0.08328 0.93048 0.2798 0.0
C858 C 1.01121 0.86361 0.3125 0.0
C859 C 0.97671 0.82655 0.33101 0.0
C860 C 0.05509 0.8829 0.32601 0.0
C861 C 0.9859 0.81128 0.36516 0.0
C862 C 0.02954 0.83085 0.37922 0.0
C863 C 0.10931 0.88186 0.36998 0.0
C864 C 0.14418 0.91393 0.34753 0.0
C865 C 0.06466 0.86568 0.35909 0.0
C866 C 0.13398 0.93153 0.31561 0.0
C867 C 0.08994 0.91706 0.30538 0.0
H868 H 0.19009 0.28207 0.31358 0.0
H869 H 0.07515 0.20611 0.38458 0.0
H870 H 0.09181 0.14522 0.38646 0.0
H871 H 0.13829 0.11327 0.36562 0.0
H872 H 0.25848 0.19477 0.30222 0.0
H873 H 0.24297 0.25619 0.30269 0.0
C874 C 0.16993 0.25341 0.33123 0.0
C875 C 0.13242 0.24953 0.35006 0.0
C876 C 0.18135 0.22015 0.33431 0.0
C877 C 0.10458 0.21024 0.37015 0.0
C878 C 0.11429 0.1756 0.37151 0.0
C879 C 0.16176 0.14511 0.35318 0.0
C880 C 0.19943 0.14981 0.33395 0.0
C881 C 0.15267 0.18028 0.35371 0.0
C882 C 0.22961 0.19082 0.31756 0.0
C883 C 0.2204 0.22563 0.31736 0.0
H884 H 0.87948 0.0309 0.27521 0.0
H885 H 0.87176 0.07912 0.3865 0.0
H886 H 0.83695 1.0033 0.41213 0.0
H887 H 0.79987 0.92222 0.40037 0.0
H888 H 0.80545 0.87485 0.28824 0.0
H889 H 0.85088 0.9512 0.26552 0.0
C890 C 0.87041 0.02472 0.30512 0.0
C891 C 0.87751 0.06023 0.32884 0.0
C892 C 0.85036 0.9812 0.3195 0.0
C893 C 0.86649 0.05215 0.36772 0.0
C894 C 0.84661 1.00886 0.38235 0.0
C895 C 0.81271 0.92886 0.37145 0.0
C896 C 0.80029 0.8933 0.3461 0.0
C897 C 0.83733 0.97296 0.35826 0.0
C898 C 0.81576 0.90191 0.30837 0.0
C899 C 0.841 0.94551 0.29524 0.0
H900 H 0.10753 0.6004 0.3615 0.0
H901 H 0.24752 0.64405 0.36909 0.0
H902 H 0.23186 0.56794 0.3585 0.0
H903 H 0.17756 0.48825 0.35898 0.0
H904 H 0.03778 0.44301 0.3469 0.0
H905 H 0.0538 0.52055 0.34798 0.0
C906 C 0.13462 0.5933 0.35948 0.0
C907 C 0.17868 0.62775 0.36598 0.0
C908 C 0.1252 0.54915 0.35403 0.0
C909 C 0.21352 0.61826 0.36369 0.0
C910 C 0.20445 0.57459 0.3584 0.0
C911 C 0.15064 0.49523 0.35571 0.0
C912 C 0.10647 0.45986 0.35356 0.0
C913 C 0.16033 0.53963 0.35537 0.0
C914 C 0.07197 0.4696 0.349 0.0
C915 C 0.0812 0.51393 0.34967 0.0
H916 H 0.42133 0.6323 0.34192 0.0
H917 H 0.41187 0.51468 0.39234 0.0
H918 H 0.49294 0.54635 0.38585 0.0
H919 H 0.56829 0.61446 0.37567 0.0
H920 H 0.57122 0.72984 0.3267 0.0
H921 H 0.4924 0.69277 0.32259 0.0
C922 C 0.43692 0.61321 0.35079 0.0
C923 C 0.41116 0.57193 0.36831 0.0
C924 C 0.48299 0.63182 0.34779 0.0
C925 C 0.4314 0.54699 0.37909 0.0
C926 C 0.47776 0.56526 0.37568 0.0
C927 C 0.55152 0.6309 0.36332 0.0
C928 C 0.57662 0.6758 0.35188 0.0
C929 C 0.50433 0.60875 0.36164 0.0
C930 C 0.55407 0.69627 0.33607 0.0
C931 C 0.50818 0.67471 0.3336 0.0
H932 H 0.42314 0.96612 0.37977 0.0
H933 H 0.31267 0.85904 0.32042 0.0
H934 H 0.34907 0.81677 0.319 0.0
H935 H 0.40859 0.80478 0.33958 0.0
H936 H 0.52106 0.90756 0.3999 0.0
H937 H 0.48896 0.95675 0.39494 0.0
C938 C 0.40754 0.93385 0.36601 0.0
C939 C 0.36434 0.91614 0.35071 0.0
C940 C 0.42923 0.90841 0.36555 0.0
C941 C 0.34488 0.87432 0.33299 0.0
C942 C 0.36607 0.84947 0.33198 0.0
C943 C 0.42617 0.83801 0.35159 0.0
C944 C 0.46628 0.85208 0.37093 0.0
C945 C 0.40746 0.86548 0.34913 0.0
C946 C 0.4896 0.89578 0.38524 0.0
C947 C 0.47118 0.9238 0.38256 0.0
H948 H 0.78416 0.21185 0.72278 0.0
H949 H 0.8269 0.27854 0.61476 0.0
H950 H 0.74998 0.25322 0.59639 0.0
H951 H 0.67054 0.20176 0.60648 0.0
H952 H 0.62621 0.12708 0.71118 0.0
H953 H 0.70302 0.16441 0.7353 0.0
C954 C 0.77641 0.22129 0.69555 0.0
C955 C 0.81122 0.24858 0.67055 0.0
C956 C 0.73161 0.20372 0.6842 0.0
C957 C 0.80089 0.26012 0.63521 0.0
C958 C 0.75677 0.24446 0.62435 0.0
C959 C 0.67771 0.19413 0.63479 0.0
C960 C 0.64295 0.16146 0.65687 0.0
C961 C 0.72188 0.21491 0.64797 0.0
C962 C 0.65246 0.15219 0.6937 0.0
C963 C 0.69641 0.17329 0.70733 0.0
H964 H 0.80299 0.44518 0.69397 0.0
H965 H 0.92582 0.52699 0.63401 0.0
H966 H 0.91278 0.58995 0.63693 0.0
H967 H 0.86107 0.61746 0.64822 0.0
H968 H 0.74305 0.54042 0.71536 0.0
H969 H 0.75748 0.47802 0.71531 0.0
C970 C 0.82761 0.47733 0.68281 0.0
C971 C 0.86528 0.48156 0.66373 0.0
C972 C 0.81979 0.51336 0.68455 0.0
C973 C 0.8969 0.52314 0.64917 0.0
C974 C 0.88908 0.55892 0.65035 0.0
C975 C 0.83987 0.58825 0.66483 0.0
C976 C 0.80214 0.58461 0.68315 0.0
C977 C 0.84996 0.55388 0.66683 0.0
C978 C 0.77276 0.54451 0.7015 0.0
C979 C 0.78119 0.50895 0.70174 0.0
H980 H 0.59895 0.37358 0.66541 0.0
H981 H 0.50127 0.41372 0.64412 0.0
H982 H 0.44175 0.3374 0.65146 0.0
H983 H 0.41954 0.25967 0.65269 0.0
H984 H 0.5109 0.21652 0.68825 0.0
H985 H 0.57243 0.29382 0.68363 0.0
C986 C 0.56446 0.36558 0.66414 0.0
C987 C 0.55406 0.39877 0.654 0.0
C988 C 0.52999 0.32138 0.66947 0.0
C989 C 0.50963 0.38851 0.65205 0.0
C990 C 0.47567 0.34486 0.65593 0.0
C991 C 0.45181 0.26683 0.66247 0.0
C992 C 0.45965 0.23218 0.67247 0.0
C993 C 0.48563 0.31103 0.66317 0.0
C994 C 0.50356 0.24255 0.68084 0.0
C995 C 0.53867 0.28677 0.67851 0.0
H996 H 0.84753 0.82369 0.71493 0.0
H997 H 0.71504 0.77986 0.67267 0.0
H998 H 0.73107 0.85714 0.67048 0.0
H999 H 0.78039 0.9363 0.68763 0.0
H1000 H 0.9139 0.97977 0.72649 0.0
H1001 H 0.90059 0.90367 0.7215 0.0
C1002 C 0.82226 0.83098 0.70486 0.0
C1003 C 0.77976 0.79591 0.69481 0.0
C1004 C 0.83217 0.8755 0.70267 0.0
C1005 C 0.74772 0.80614 0.68117 0.0
C1006 C 0.75696 0.85034 0.67979 0.0
C1007 C 0.80699 0.92923 0.69364 0.0
C1008 C 0.84816 0.96355 0.70724 0.0
C1009 C 0.79877 0.88521 0.69126 0.0
C1010 C 0.88225 0.95405 0.71543 0.0
C1011 C 0.87435 0.91039 0.71319 0.0
H1012 H 0.09384 0.97727 0.70339 0.0
H1013 H 0.07631 0.84734 0.68252 0.0
H1014 H 0.15609 0.88142 0.6657 0.0
H1015 H 0.23476 0.95049 0.66777 0.0
H1016 H 0.2429 0.06185 0.72782 0.0
H1017 H 0.16512 0.03531 0.71793 0.0
C1018 C 0.10723 0.95594 0.69556 0.0
C1019 C 0.07946 0.90998 0.69568 0.0
C1020 C 0.15298 0.97429 0.69235 0.0
C1021 C 0.09712 0.88315 0.68331 0.0
C1022 C 0.14294 0.90261 0.67431 0.0
C1023 C 0.21925 0.96885 0.67837 0.0
C1024 C 0.24602 0.01221 0.69344 0.0
C1025 C 0.17195 0.94841 0.68061 0.0
C1026 C 0.22469 0.03294 0.71046 0.0
C1027 C 0.17972 0.01669 0.70641 0.0
H1028 H 0.0781 0.14005 0.68295 0.0
H1029 H 0.19695 0.25428 0.72401 0.0
H1030 H 0.16336 0.30144 0.71258 0.0
H1031 H 0.09461 0.30685 0.69939 0.0
H1032 H 0.97747 0.1887 0.66127 0.0
H1033 H 1.01497 0.14701 0.66319 0.0
C1034 C 0.09707 0.17553 0.68845 0.0
C1035 C 0.13963 0.19366 0.70442 0.0
C1036 C 0.07717 0.20176 0.68307 0.0
C1037 C 0.16404 0.23965 0.71147 0.0
C1038 C 0.1446 0.26646 0.70537 0.0
C1039 C 0.07776 0.27223 0.69084 0.0
C1040 C 0.03232 0.25106 0.68056 0.0
C1041 C 0.10032 0.24748 0.69252 0.0
C1042 C 1.0113 0.20618 0.66996 0.0
C1043 C 0.03321 0.18194 0.67077 0.0
H1044 H 0.10908 0.44276 0.26189 0.0
H1045 H 0.11252 0.32826 0.21832 0.0
H1046 H 0.08392 0.33644 0.15698 0.0
H1047 H 0.04953 0.37027 0.11906 0.0
H1048 H 0.05739 0.49214 0.15467 0.0
H1049 H 0.08511 0.4846 0.21765 0.0
C1050 C 0.10482 0.42054 0.23853 0.0
C1051 C 0.11284 0.38476 0.24469 0.0
C1052 C 0.08845 0.42564 0.20278 0.0
C1053 C 0.10669 0.35595 0.2143 0.0
C1054 C 0.08993 0.36037 0.17932 0.0
C1055 C 0.06063 0.3971 0.13908 0.0
C1056 C 0.05399 0.43302 0.13083 0.0
C1057 C 0.07982 0.3944 0.17358 0.0
C1058 C 0.0626 0.46426 0.15986 0.0
C1059 C 0.07905 0.46024 0.19572 0.0
H1060 H 0.59539 0.68888 0.26219 0.0
H1061 H 0.72132 0.79438 0.22097 0.0
H1062 H 0.71365 0.75241 0.16328 0.0
H1063 H 0.67548 0.68323 0.12754 0.0
H1064 H 0.54091 0.58664 0.15605 0.0
H1065 H 0.54925 0.62404 0.21782 0.0
C1066 C 0.6204 0.70317 0.24004 0.0
C1067 C 0.6594 0.74471 0.24628 0.0
C1068 C 0.61527 0.67902 0.20582 0.0
C1069 C 0.69129 0.7626 0.21712 0.0
C1070 C 0.6872 0.73836 0.18423 0.0
C1071 C 0.64712 0.67143 0.14625 0.0
C1072 C 0.60749 0.63277 0.13642 0.0
C1073 C 0.65006 0.69618 0.17882 0.0
C1074 C 0.57234 0.61575 0.16292 0.0
C1075 C 0.57675 0.63795 0.19788 0.0
H1076 H 0.34835 0.9982 0.12529 0.0
H1077 H 0.4524 0.97173 0.15813 0.0
H1078 H 0.41481 0.94263 0.22008 0.0
H1079 H 0.34891 0.92201 0.26324 0.0
H1080 H 0.23868 0.93412 0.21963 0.0
H1081 H 0.27872 0.96508 0.16019 0.0
C1082 C 0.36128 0.98299 0.14445 0.0
C1083 C 0.40172 0.98488 0.13584 0.0
C1084 C 0.33716 0.96177 0.17725 0.0
C1085 C 0.42112 0.97057 0.16374 0.0
C1086 C 0.3991 0.95306 0.1988 0.0
C1087 C 0.33319 0.93009 0.24024 0.0
C1088 C 0.29098 0.9264 0.24601 0.0
C1089 C 0.35643 0.94761 0.20555 0.0
C1090 C 0.27105 0.93698 0.21594 0.0
C1091 C 0.29414 0.95513 0.18215 0.0
H1092 H 0.46107 0.03134 0.87993 0.0
H1093 H 0.42201 0.10373 0.95502 0.0
H1094 H 0.39479 0.12798 0.90153 0.0
H1095 H 0.37822 0.12567 0.83184 0.0
H1096 H 0.43164 0.06463 0.75723 0.0
H1097 H 0.45498 0.03834 0.81104 0.0
C1098 C 0.44722 0.05297 0.88449 0.0
C1099 C 0.44307 0.06481 0.92176 0.0
C1100 C 0.43285 0.06826 0.85318 0.0
C1101 C 0.42552 0.09343 0.92702 0.0
C1102 C 0.40962 0.10741 0.89613 0.0
C1103 C 0.39494 0.10677 0.82725 0.0
C1104 C 0.40097 0.09586 0.78985 0.0
C1105 C 0.41227 0.09436 0.85886 0.0
C1106 C 0.42456 0.07255 0.78526 0.0
C1107 C 0.43868 0.05761 0.81621 0.0
H1108 H 0.98772 0.4398 0.88125 0.0
H1109 H 0.92854 0.32536 0.95461 0.0
H1110 H 0.90581 0.27586 0.89932 0.0
H1111 H 0.90659 0.26517 0.82804 0.0
H1112 H 0.96287 0.3839 0.75765 0.0
H1113 H 0.9822 0.42968 0.8126 0.0
C1114 C 0.96909 0.40401 0.8851 0.0
C1115 C 0.95993 0.38658 0.92215 0.0
C1116 C 0.95555 0.37569 0.85306 0.0
C1117 C 0.93584 0.34 0.92655 0.0
C1118 C 0.92297 0.31147 0.89469 0.0
C1119 C 0.92255 0.30086 0.82461 0.0
C1120 C 0.93282 0.31968 0.78752 0.0
C1121 C 0.93321 0.32885 0.85743 0.0
C1122 C 0.95362 0.36675 0.78481 0.0
C1123 C 0.9652 0.39395 0.81665 0.0
H1124 H 0.67098 0.60659 0.78324 0.0
H1125 H 0.7998 0.69437 0.83295 0.0
H1126 H 0.76793 0.67048 0.89667 0.0
H1127 H 0.70105 0.63007 0.93863 0.0
H1128 H 0.57177 0.55459 0.88639 0.0
H1129 H 0.60606 0.56945 0.82321 0.0
C1130 C 0.69275 0.6211 0.80766 0.0
C1131 C 0.73859 0.65196 0.8024 0.0
C1132 C 0.67358 0.60969 0.84408 0.0
C1133 C 0.76506 0.66973 0.83525 0.0
C1134 C 0.74658 0.65628 0.87198 0.0
C1135 C 0.68067 0.61619 0.91333 0.0
C1136 C 0.63392 0.59048 0.91703 0.0
C1137 C 0.70063 0.62684 0.87677 0.0
C1138 C 0.60769 0.57368 0.88419 0.0
C1139 C 0.62733 0.58251 0.84811 0.0
H1140 H 0.78269 0.77052 0.45275 0.0
H1141 H 0.66839 0.77452 0.49693 0.0
H1142 H 0.68842 0.76296 0.56172 0.0
H1143 H 0.73456 0.74386 0.60462 0.0
H1144 H 0.8406 0.72902 0.556 0.0
H1145 H 0.82684 0.75163 0.49362 0.0
C1146 C 0.76156 0.76883 0.4762 0.0
C1147 C 0.72367 0.77339 0.46934 0.0
C1148 C 0.77154 0.75935 0.51261 0.0
C1149 C 0.69782 0.7716 0.50088 0.0
C1150 C 0.70908 0.76447 0.53797 0.0
C1151 C 0.75477 0.74592 0.58036 0.0
C1152 C 0.78882 0.73497 0.58486 0.0
C1153 C 0.74526 0.75714 0.54402 0.0
C1154 C 0.81471 0.73773 0.55331 0.0
C1155 C 0.80659 0.75038 0.51763 0.0
H1156 H 0.26916 0.03153 0.44805 0.0
H1157 H 0.2589 0.91119 0.49412 0.0
H1158 H 0.27128 0.94263 0.55836 0.0
H1159 H 0.29313 1.00772 0.60083 0.0
H1160 H 0.31369 0.13088 0.55239 0.0
H1161 H 0.29007 0.09533 0.48975 0.0
C1162 C 0.26932 0.01171 0.47199 0.0
C1163 C 0.26266 0.96844 0.46557 0.0
C1164 C 0.27919 0.03109 0.50862 0.0
C1165 C 0.26291 0.9439 0.49757 0.0
C1166 C 0.27066 0.96228 0.5345 0.0
C1167 C 0.2919 0.02663 0.57669 0.0
C1168 C 0.30483 0.072 0.58142 0.0
C1169 C 0.27995 1.00628 0.54028 0.0
C1170 C 0.30338 0.09596 0.54968 0.0
C1171 C 0.29016 0.07563 0.5138 0.0
H1172 H 0.95098 0.30207 0.55276 0.0
H1173 H 0.99032 0.20931 0.59288 0.0
H1174 H 0.04368 0.23063 0.54037 0.0
H1175 H 0.07953 0.27696 0.48216 0.0
H1176 H 0.05242 0.38208 0.45358 0.0
H1177 H 0.99477 0.35575 0.50242 0.0
C1178 C 0.9725 0.28782 0.55106 0.0
C1179 C 0.96788 0.25572 0.57811 0.0
C1180 C 1.00582 0.30304 0.52288 0.0
C1181 C 0.99359 0.2349 0.5733 0.0
C1182 C 0.02451 0.2474 0.54334 0.0
C1183 C 0.06272 0.29559 0.48818 0.0
C1184 C 0.0704 0.33167 0.46439 0.0
C1185 C 0.03161 0.28217 0.51837 0.0
C1186 C 0.04786 0.35496 0.47201 0.0
C1187 C 1.0143 0.33937 0.49956 0.0
loop_
_geom_bond_atom_site_label_1
_geom_bond_atom_site_label_2
_geom_bond_distance
_geom_bond_site_symmetry_2
_ccdc_geom_bond_type
C0 C2 1.422 . S
C0 C4 1.415 . S
C0 N6 1.369 1_455 S
C1 C2 1.428 . S
C1 C3 1.428 . S
C1 C13 1.405 1_554 S
C2 C0 1.422 . S
C2 C1 1.428 . S
C2 N12 1.359 1_454 S
C3 C1 1.428 . S
C3 C5 1.329 . S
C3 H22 0.930 . S
C4 C0 1.415 . S
C4 C5 1.437 . S
C4 C8 1.413 . S
C5 C3 1.329 . S
C5 C4 1.437 . S
C5 H27 0.929 . S
N6 C0 1.369 1_655 S
N6 C7 1.338 1_655 S
N6 Gd11 2.622 . S
C7 N6 1.338 1_455 S
C7 C9 1.378 . S
C7 H19 0.929 1_455 S
C8 C4 1.413 . S
C8 C9 1.348 . S
C8 H24 0.931 . S
C9 C7 1.378 . S
C9 C8 1.348 . S
C9 H25 0.930 . S
Gd10 N30 2.622 . S
Gd10 N37 2.570 1_556 S
Gd10 O44 2.353 . S
Gd10 O45 2.468 1_556 S
Gd10 O46 2.427 . S
Gd10 O48 2.388 . S
Gd10 O49 2.386 1_455 S
Gd10 O53 2.307 1_556 S
Gd10 C63 2.805 . S
Gd11 N6 2.622 . S
Gd11 N12 2.570 1_554 S
Gd11 O43 2.386 1_655 S
Gd11 O47 2.307 1_554 S
Gd11 O50 2.353 . S
Gd11 O51 2.468 1_554 S
Gd11 O52 2.427 . S
Gd11 O54 2.388 . S
Gd11 C75 2.805 . S
N12 C2 1.359 1_656 S
N12 Gd11 2.570 1_556 S
N12 C14 1.343 . S
C13 C1 1.405 1_556 S
C13 C15 1.321 . S
C13 H21 0.931 . S
C14 N12 1.343 . S
C14 C15 1.390 1_655 S
C14 H16 0.931 . S
C15 C13 1.321 . S
C15 C14 1.390 1_455 S
C15 H17 0.930 . S
H16 C14 0.931 . S
H17 C15 0.930 . S
H18 C41 0.931 . S
H19 C7 0.929 1_655 S
H20 C42 0.930 . S
H21 C13 0.931 . S
H22 C3 0.930 . S
H23 C32 0.929 . S
H24 C8 0.931 . S
H25 C9 0.930 . S
H26 C64 0.930 . S
H27 C5 0.929 . S
H28 C33 0.931 . S
H29 C34 0.930 . S
N30 Gd10 2.622 . S
N30 C31 1.369 . S
N30 C32 1.338 . S
C31 N30 1.369 . S
C31 C35 1.415 1_455 S
C31 C38 1.422 . S
C32 H23 0.929 . S
C32 N30 1.338 . S
C32 C34 1.378 1_455 S
C33 H28 0.931 . S
C33 C34 1.348 . S
C33 C35 1.413 . S
C34 H29 0.930 . S
C34 C32 1.378 1_655 S
C34 C33 1.348 . S
C35 C31 1.415 1_655 S
C35 C33 1.413 . S
C35 C65 1.437 . S
H36 C65 0.929 . S
N37 Gd10 2.570 1_554 S
N37 C38 1.359 1_554 S
N37 C41 1.343 . S
C38 C31 1.422 . S
C38 N37 1.359 1_556 S
C38 C40 1.421 1_456 S
C39 C40 1.422 . S
C39 C42 1.321 1_655 S
C39 H66 0.931 . S
C40 C38 1.421 1_654 S
C40 C39 1.422 . S
C40 C64 1.417 1_554 S
C41 H18 0.931 . S
C41 N37 1.343 . S
C41 C42 1.390 . S
C42 H20 0.930 . S
C42 C39 1.321 1_455 S
C42 C41 1.390 . S
O43 Gd11 2.386 1_455 S
O43 C55 1.265 1_554 S
O44 Gd10 2.353 . S
O44 C55 1.242 . S
O45 Gd10 2.468 1_554 S
O45 C63 1.263 1_554 S
O46 Gd10 2.427 . S
O46 C63 1.252 . S
O47 Gd11 2.307 1_556 S
O47 C56 1.261 . S
O48 Gd10 2.388 . S
O48 C56 1.252 1_455 S
O49 Gd10 2.386 1_655 S
O49 C67 1.265 1_556 S
O50 Gd11 2.353 . S
O50 C67 1.242 . S
O51 Gd11 2.468 1_556 S
O51 C75 1.263 1_556 S
O52 Gd11 2.427 . S
O52 C75 1.252 . S
O53 Gd10 2.307 1_554 S
O53 C68 1.261 . S
O54 Gd11 2.388 . S
O54 C68 1.252 1_655 S
C55 O43 1.265 1_556 S
C55 O44 1.242 . S
C56 O47 1.261 . S
C56 O48 1.252 1_655 S
C57 C60 1.394 . S
C57 C62 1.370 1_556 S
C57 C63 1.500 . S
C58 C61 1.383 1_554 S
C58 C62 1.395 . S
C59 C60 1.396 . S
C59 C61 1.365 . S
C59 H76 0.929 . S
C60 C57 1.394 . S
C60 C59 1.396 . S
C60 H77 0.930 . S
C61 C58 1.383 1_556 S
C61 C59 1.365 . S
C61 H78 0.931 . S
C62 C57 1.370 1_554 S
C62 C58 1.395 . S
C62 H79 0.930 . S
C63 Gd10 2.805 . S
C63 O45 1.263 1_556 S
C63 O46 1.252 . S
C63 C57 1.500 . S
C64 H26 0.930 . S
C64 C40 1.417 1_556 S
C64 C65 1.329 . S
C65 C35 1.437 . S
C65 H36 0.929 . S
C65 C64 1.329 . S
H66 C39 0.931 . S
C67 O49 1.265 1_554 S
C67 O50 1.242 . S
C68 O53 1.261 . S
C68 O54 1.252 1_455 S
C69 C72 1.394 . S
C69 C74 1.370 1_554 S
C69 C75 1.500 . S
C70 C73 1.383 1_556 S
C70 C74 1.395 . S
C71 C72 1.396 . S
C71 C73 1.365 . S
C71 H80 0.929 . S
C72 C69 1.394 . S
C72 C71 1.396 . S
C72 H81 0.930 . S
C73 C70 1.383 1_554 S
C73 C71 1.365 . S
C73 H82 0.931 . S
C74 C69 1.370 1_556 S
C74 C70 1.395 . S
C74 H83 0.930 . S
C75 Gd11 2.805 . S
C75 O51 1.263 1_554 S
C75 O52 1.252 . S
C75 C69 1.500 . S
H76 C59 0.929 . S
H77 C60 0.930 . S
H78 C61 0.931 . S
H79 C62 0.930 . S
H80 C71 0.929 . S
H81 C72 0.930 . S
H82 C73 0.931 . S
H83 C74 0.930 . S
C84 C86 1.422 . S
C84 C88 1.415 . S
C84 N90 1.369 . S
C85 C86 1.428 . S
C85 C87 1.429 . S
C85 C97 1.405 1_554 S
C86 C84 1.422 . S
C86 C85 1.428 . S
C86 N96 1.359 1_554 S
C87 C85 1.429 . S
C87 C89 1.329 . S
C87 H106 0.930 . S
C88 C84 1.415 . S
C88 C89 1.437 . S
C88 C92 1.413 . S
C89 C87 1.329 . S
C89 C88 1.437 . S
C89 H111 0.929 . S
N90 C84 1.369 . S
N90 C91 1.338 . S
N90 Gd95 2.622 . S
C91 N90 1.338 . S
C91 C93 1.378 . S
C91 H103 0.929 . S
C92 C88 1.413 . S
C92 C93 1.348 . S
C92 H108 0.931 . S
C93 C91 1.378 . S
C93 C92 1.348 . S
C93 H109 0.930 . S
Gd94 N114 2.622 . S
Gd94 N121 2.570 1_556 S
Gd94 O128 2.353 . S
Gd94 O129 2.468 1_556 S
Gd94 O130 2.427 . S
Gd94 O132 2.388 . S
Gd94 O133 2.386 . S
Gd94 O137 2.307 1_556 S
Gd94 C147 2.805 . S
Gd95 N90 2.622 . S
Gd95 N96 2.570 1_554 S
Gd95 O127 2.386 . S
Gd95 O131 2.307 1_554 S
Gd95 O134 2.353 . S
Gd95 O135 2.468 1_554 S
Gd95 O136 2.427 . S
Gd95 O138 2.388 . S
Gd95 C159 2.805 . S
N96 C86 1.359 1_556 S
N96 Gd95 2.570 1_556 S
N96 C98 1.343 . S
C97 C85 1.405 1_556 S
C97 C99 1.321 . S
C97 H105 0.931 . S
C98 N96 1.343 . S
C98 C99 1.390 . S
C98 H100 0.931 . S
C99 C97 1.321 . S
C99 C98 1.390 . S
C99 H101 0.930 . S
H100 C98 0.931 . S
H101 C99 0.930 . S
H102 C125 0.931 . S
H103 C91 0.929 . S
H104 C126 0.930 . S
H105 C97 0.931 . S
H106 C87 0.930 . S
H107 C116 0.929 . S
H108 C92 0.931 . S
H109 C93 0.930 . S
H110 C148 0.930 . S
H111 C89 0.929 . S
H112 C117 0.931 . S
H113 C118 0.930 . S
N114 Gd94 2.622 . S
N114 C115 1.369 . S
N114 C116 1.338 . S
C115 N114 1.369 . S
C115 C119 1.415 . S
C115 C122 1.422 . S
C116 H107 0.929 . S
C116 N114 1.338 . S
C116 C118 1.378 . S
C117 H112 0.931 . S
C117 C118 1.348 . S
C117 C119 1.413 . S
C118 H113 0.930 . S
C118 C116 1.378 . S
C118 C117 1.348 . S
C119 C115 1.415 . S
C119 C117 1.413 . S
C119 C149 1.437 . S
H120 C149 0.929 . S
N121 Gd94 2.570 1_554 S
N121 C122 1.359 1_554 S
N121 C125 1.343 . S
C122 C115 1.422 . S
C122 N121 1.359 1_556 S
C122 C124 1.421 1_556 S
C123 C124 1.422 . S
C123 C126 1.321 . S
C123 H150 0.931 . S
C124 C122 1.421 1_554 S
C124 C123 1.422 . S
C124 C148 1.417 1_554 S
C125 H102 0.931 . S
C125 N121 1.343 . S
C125 C126 1.390 . S
C126 H104 0.930 . S
C126 C123 1.321 . S
C126 C125 1.390 . S
O127 Gd95 2.386 . S
O127 C139 1.265 1_554 S
O128 Gd94 2.353 . S
O128 C139 1.242 . S
O129 Gd94 2.468 1_554 S
O129 C147 1.263 1_554 S
O130 Gd94 2.427 . S
O130 C147 1.252 . S
O131 Gd95 2.307 1_556 S
O131 C140 1.261 . S
O132 Gd94 2.388 . S
O132 C140 1.252 . S
O133 Gd94 2.386 . S
O133 C151 1.265 1_556 S
O134 Gd95 2.353 . S
O134 C151 1.242 . S
O135 Gd95 2.468 1_556 S
O135 C159 1.263 1_556 S
O136 Gd95 2.427 . S
O136 C159 1.252 . S
O137 Gd94 2.307 1_554 S
O137 C152 1.261 . S
O138 Gd95 2.388 . S
O138 C152 1.252 . S
C139 O127 1.265 1_556 S
C139 O128 1.242 . S
C140 O131 1.261 . S
C140 O132 1.252 . S
C141 C144 1.394 . S
C141 C146 1.370 1_556 S
C141 C147 1.500 . S
C142 C145 1.383 1_554 S
C142 C146 1.395 . S
C143 C144 1.396 . S
C143 C145 1.365 . S
C143 H160 0.929 . S
C144 C141 1.394 . S
C144 C143 1.396 . S
C144 H161 0.930 . S
C145 C142 1.383 1_556 S
C145 C143 1.365 . S
C145 H162 0.931 . S
C146 C141 1.370 1_554 S
C146 C142 1.395 . S
C146 H163 0.930 . S
C147 Gd94 2.805 . S
C147 O129 1.263 1_556 S
C147 O130 1.252 . S
C147 C141 1.500 . S
C148 H110 0.930 . S
C148 C124 1.417 1_556 S
C148 C149 1.329 . S
C149 C119 1.437 . S
C149 H120 0.929 . S
C149 C148 1.329 . S
H150 C123 0.931 . S
C151 O133 1.265 1_554 S
C151 O134 1.242 . S
C152 O137 1.261 . S
C152 O138 1.252 . S
C153 C156 1.394 . S
C153 C158 1.370 1_554 S
C153 C159 1.500 . S
C154 C157 1.383 1_556 S
C154 C158 1.395 . S
C155 C156 1.396 . S
C155 C157 1.365 . S
C155 H164 0.929 . S
C156 C153 1.394 . S
C156 C155 1.396 . S
C156 H165 0.930 . S
C157 C154 1.383 1_554 S
C157 C155 1.365 . S
C157 H166 0.931 . S
C158 C153 1.370 1_556 S
C158 C154 1.395 . S
C158 H167 0.930 . S
C159 Gd95 2.805 . S
C159 O135 1.263 1_554 S
C159 O136 1.252 . S
C159 C153 1.500 . S
H160 C143 0.929 . S
H161 C144 0.930 . S
H162 C145 0.931 . S
H163 C146 0.930 . S
H164 C155 0.929 . S
H165 C156 0.930 . S
H166 C157 0.931 . S
H167 C158 0.930 . S
C168 C170 1.423 1_565 S
C168 C172 1.415 . S
C168 N174 1.369 1_565 S
C169 C170 1.414 1_565 S
C169 C171 1.428 . S
C169 C181 1.405 1_554 S
C170 C168 1.423 1_545 S
C170 C169 1.414 1_545 S
C170 N180 1.372 1_554 S
C171 C169 1.428 . S
C171 C173 1.329 . S
C171 H190 0.930 . S
C172 C168 1.415 . S
C172 C173 1.437 . S
C172 C176 1.413 . S
C173 C171 1.329 . S
C173 C172 1.437 . S
C173 H195 0.929 . S
N174 C168 1.369 1_545 S
N174 C175 1.338 . S
N174 Gd179 2.622 . S
C175 N174 1.338 . S
C175 C177 1.378 1_545 S
C175 H187 0.929 . S
C176 C172 1.413 . S
C176 C177 1.348 . S
C176 H192 0.931 . S
C177 C175 1.378 1_565 S
C177 C176 1.348 . S
C177 H193 0.930 . S
Gd178 N198 2.622 . S
Gd178 N205 2.570 1_556 S
Gd178 O212 2.353 . S
Gd178 O213 2.468 1_556 S
Gd178 O214 2.427 . S
Gd178 O216 2.388 . S
Gd178 O217 2.386 1_565 S
Gd178 O221 2.307 1_556 S
Gd178 C231 2.805 . S
Gd179 N174 2.622 . S
Gd179 N180 2.570 1_554 S
Gd179 O211 2.386 1_545 S
Gd179 O215 2.307 1_554 S
Gd179 O218 2.353 . S
Gd179 O219 2.468 1_554 S
Gd179 O220 2.427 . S
Gd179 O222 2.388 . S
Gd179 C243 2.805 . S
N180 C170 1.372 1_556 S
N180 Gd179 2.570 1_556 S
N180 C182 1.343 . S
C181 C169 1.405 1_556 S
C181 C183 1.321 1_565 S
C181 H189 0.931 . S
C182 N180 1.343 . S
C182 C183 1.390 . S
C182 H184 0.931 . S
C183 C181 1.321 1_545 S
C183 C182 1.390 . S
C183 H185 0.930 . S
H184 C182 0.931 . S
H185 C183 0.930 . S
H186 C209 0.931 . S
H187 C175 0.929 . S
H188 C210 0.930 1_565 S
H189 C181 0.931 . S
H190 C171 0.930 . S
H191 C200 0.929 . S
H192 C176 0.931 . S
H193 C177 0.930 . S
H194 C232 0.930 . S
H195 C173 0.929 . S
H196 C201 0.931 . S
H197 C202 0.930 . S
N198 Gd178 2.622 . S
N198 C199 1.369 1_565 S
N198 C200 1.338 . S
C199 N198 1.369 1_545 S
C199 C203 1.415 . S
C199 C206 1.422 . S
C200 H191 0.929 . S
C200 N198 1.338 . S
C200 C202 1.378 1_565 S
C201 H196 0.931 . S
C201 C202 1.348 . S
C201 C203 1.413 . S
C202 H197 0.930 . S
C202 C200 1.378 1_545 S
C202 C201 1.348 . S
C203 C199 1.415 . S
C203 C201 1.413 . S
C203 C233 1.437 . S
H204 C233 0.929 . S
N205 Gd178 2.570 1_554 S
N205 C206 1.359 1_564 S
N205 C209 1.343 . S
C206 C199 1.422 . S
C206 N205 1.359 1_546 S
C206 C208 1.421 1_556 S
C207 C208 1.422 . S
C207 C210 1.329 . S
C207 H234 0.931 . S
C208 C206 1.421 1_554 S
C208 C207 1.422 . S
C208 C232 1.417 1_554 S
C209 H186 0.931 . S
C209 N205 1.343 . S
C209 C210 1.382 1_565 S
C210 H188 0.930 1_545 S
C210 C207 1.329 . S
C210 C209 1.382 1_545 S
O211 Gd179 2.386 1_565 S
O211 C223 1.265 1_554 S
O212 Gd178 2.353 . S
O212 C223 1.242 . S
O213 Gd178 2.468 1_554 S
O213 C231 1.263 1_554 S
O214 Gd178 2.427 . S
O214 C231 1.252 . S
O215 Gd179 2.307 1_556 S
O215 C224 1.261 . S
O216 Gd178 2.388 . S
O216 C224 1.252 1_565 S
O217 Gd178 2.386 1_545 S
O217 C235 1.265 1_556 S
O218 Gd179 2.353 . S
O218 C235 1.242 . S
O219 Gd179 2.468 1_556 S
O219 C243 1.263 1_556 S
O220 Gd179 2.427 . S
O220 C243 1.252 . S
O221 Gd178 2.307 1_554 S
O221 C236 1.261 . S
O222 Gd179 2.388 . S
O222 C236 1.252 1_545 S
C223 O211 1.265 1_556 S
C223 O212 1.242 . S
C224 O215 1.261 . S
C224 O216 1.252 1_545 S
C225 C228 1.394 . S
C225 C230 1.370 1_556 S
C225 C231 1.500 . S
C226 C229 1.383 1_554 S
C226 C230 1.395 . S
C227 C228 1.396 . S
C227 C229 1.365 . S
C227 H244 0.929 . S
C228 C225 1.394 . S
C228 C227 1.396 . S
C228 H245 0.930 . S
C229 C226 1.383 1_556 S
C229 C227 1.365 . S
C229 H246 0.931 . S
C230 C225 1.370 1_554 S
C230 C226 1.395 . S
C230 H247 0.930 . S
C231 Gd178 2.805 . S
C231 O213 1.263 1_556 S
C231 O214 1.252 . S
C231 C225 1.500 . S
C232 H194 0.930 . S
C232 C208 1.417 1_556 S
C232 C233 1.329 . S
C233 C203 1.437 . S
C233 H204 0.929 . S
C233 C232 1.329 . S
H234 C207 0.931 . S
C235 O217 1.265 1_554 S
C235 O218 1.242 . S
C236 O221 1.261 . S
C236 O222 1.252 1_565 S
C237 C240 1.394 . S
C237 C242 1.370 1_554 S
C237 C243 1.500 . S
C238 C241 1.383 1_556 S
C238 C242 1.395 . S
C239 C240 1.396 . S
C239 C241 1.365 . S
C239 H248 0.929 . S
C240 C237 1.394 . S
C240 C239 1.396 . S
C240 H249 0.930 . S
C241 C238 1.383 1_554 S
C241 C239 1.365 . S
C241 H250 0.931 . S
C242 C237 1.370 1_556 S
C242 C238 1.395 . S
C242 H251 0.930 . S
C243 Gd179 2.805 . S
C243 O219 1.263 1_554 S
C243 O220 1.252 . S
C243 C237 1.500 . S
H244 C227 0.929 . S
H245 C228 0.930 . S
H246 C229 0.931 . S
H247 C230 0.930 . S
H248 C239 0.929 . S
H249 C240 0.930 . S
H250 C241 0.931 . S
H251 C242 0.930 . S
C252 C254 1.422 . S
C252 C256 1.415 . S
C252 N258 1.369 . S
C253 C254 1.421 . S
C253 C255 1.417 1_565 S
C253 C265 1.422 . S
C254 C252 1.422 . S
C254 C253 1.421 . S
C254 N264 1.359 . S
C255 C253 1.417 1_545 S
C255 C257 1.329 . S
C255 H274 0.930 . S
C256 C252 1.415 . S
C256 C257 1.437 1_565 S
C256 C260 1.413 . S
C257 C255 1.329 . S
C257 C256 1.437 1_545 S
C257 H279 0.929 . S
N258 C252 1.369 . S
N258 C259 1.338 . S
N258 Gd263 2.622 . S
C259 N258 1.338 . S
C259 C261 1.378 . S
C259 H271 0.929 . S
C260 C256 1.413 . S
C260 C261 1.348 . S
C260 H276 0.931 . S
C261 C259 1.378 . S
C261 C260 1.348 . S
C261 H277 0.930 . S
Gd262 N282 2.622 . S
Gd262 N289 2.570 . S
Gd262 O296 2.353 . S
Gd262 O297 2.468 . S
Gd262 O298 2.427 . S
Gd262 O300 2.388 . S
Gd262 O301 2.386 . S
Gd262 O305 2.307 . S
Gd262 C315 2.805 . S
Gd263 N258 2.622 . S
Gd263 N264 2.570 . S
Gd263 O295 2.386 . S
Gd263 O299 2.307 . S
Gd263 O302 2.353 . S
Gd263 O303 2.468 . S
Gd263 O304 2.427 . S
Gd263 O306 2.388 . S
Gd263 C327 2.805 . S
N264 C254 1.359 . S
N264 Gd263 2.570 . S
N264 C266 1.343 . S
C265 C253 1.422 . S
C265 C267 1.321 . S
C265 H273 0.931 1_565 S
C266 N264 1.343 . S
C266 C267 1.390 . S
C266 H268 0.931 . S
C267 C265 1.321 . S
C267 C266 1.390 . S
C267 H269 0.930 . S
H268 C266 0.931 . S
H269 C267 0.930 . S
H270 C293 0.931 . S
H271 C259 0.929 . S
H272 C294 0.930 . S
H273 C265 0.931 1_545 S
H274 C255 0.930 . S
H275 C284 0.929 . S
H276 C260 0.931 . S
H277 C261 0.930 . S
H278 C316 0.930 . S
H279 C257 0.929 . S
H280 C285 0.931 . S
H281 C286 0.930 . S
N282 Gd262 2.622 . S
N282 C283 1.369 . S
N282 C284 1.338 . S
C283 N282 1.369 . S
C283 C287 1.415 . S
C283 C290 1.422 . S
C284 H275 0.929 . S
C284 N282 1.338 . S
C284 C286 1.378 . S
C285 H280 0.931 . S
C285 C286 1.348 . S
C285 C287 1.413 . S
C286 H281 0.930 . S
C286 C284 1.378 . S
C286 C285 1.348 . S
C287 C283 1.415 . S
C287 C285 1.413 . S
C287 C317 1.437 . S
H288 C317 0.929 . S
N289 Gd262 2.570 . S
N289 C290 1.359 . S
N289 C293 1.343 . S
C290 C283 1.422 . S
C290 N289 1.359 . S
C290 C292 1.421 . S
C291 C292 1.422 . S
C291 C294 1.321 . S
C291 H318 0.931 . S
C292 C290 1.421 . S
C292 C291 1.422 . S
C292 C316 1.417 . S
C293 H270 0.931 . S
C293 N289 1.343 . S
C293 C294 1.390 . S
C294 H272 0.930 . S
C294 C291 1.321 . S
C294 C293 1.390 . S
O295 Gd263 2.386 . S
O295 C307 1.265 . S
O296 Gd262 2.353 . S
O296 C307 1.242 . S
O297 Gd262 2.468 . S
O297 C315 1.263 . S
O298 Gd262 2.427 . S
O298 C315 1.252 . S
O299 Gd263 2.307 . S
O299 C308 1.261 . S
O300 Gd262 2.388 . S
O300 C308 1.252 . S
O301 Gd262 2.386 . S
O301 C319 1.265 . S
O302 Gd263 2.353 . S
O302 C319 1.242 . S
O303 Gd263 2.468 . S
O303 C327 1.263 . S
O304 Gd263 2.427 . S
O304 C327 1.252 . S
O305 Gd262 2.307 . S
O305 C320 1.261 . S
O306 Gd263 2.388 . S
O306 C320 1.252 . S
C307 O295 1.265 . S
C307 O296 1.242 . S
C308 O299 1.261 . S
C308 O300 1.252 . S
C309 C312 1.394 . S
C309 C314 1.370 . S
C309 C315 1.500 . S
C310 C313 1.383 . S
C310 C314 1.395 . S
C311 C312 1.396 . S
C311 C313 1.365 . S
C311 H328 0.929 . S
C312 C309 1.394 . S
C312 C311 1.396 . S
C312 H329 0.930 . S
C313 C310 1.383 . S
C313 C311 1.365 . S
C313 H330 0.931 . S
C314 C309 1.370 . S
C314 C310 1.395 . S
C314 H331 0.930 . S
C315 Gd262 2.805 . S
C315 O297 1.263 . S
C315 O298 1.252 . S
C315 C309 1.500 . S
C316 H278 0.930 . S
C316 C292 1.417 . S
C316 C317 1.329 . S
C317 C287 1.437 . S
C317 H288 0.929 . S
C317 C316 1.329 . S
H318 C291 0.931 . S
C319 O301 1.265 . S
C319 O302 1.242 . S
C320 O305 1.261 . S
C320 O306 1.252 . S
C321 C324 1.394 . S
C321 C326 1.370 . S
C321 C327 1.500 . S
C322 C325 1.383 . S
C322 C326 1.395 . S
C323 C324 1.396 . S
C323 C325 1.365 . S
C323 H332 0.929 . S
C324 C321 1.394 . S
C324 C323 1.396 . S
C324 H333 0.930 . S
C325 C322 1.383 . S
C325 C323 1.365 . S
C325 H334 0.931 . S
C326 C321 1.370 . S
C326 C322 1.395 . S
C326 H335 0.930 . S
C327 Gd263 2.805 . S
C327 O303 1.263 . S
C327 O304 1.252 . S
C327 C321 1.500 . S
H328 C311 0.929 . S
H329 C312 0.930 . S
H330 C313 0.931 . S
H331 C314 0.930 . S
H332 C323 0.929 . S
H333 C324 0.930 . S
H334 C325 0.931 . S
H335 C326 0.930 . S
C336 C338 1.422 . S
C336 C340 1.415 . S
C336 N342 1.369 . S
C337 C338 1.421 . S
C337 C339 1.417 1_455 S
C337 C349 1.422 . S
C338 C336 1.422 . S
C338 C337 1.421 . S
C338 N348 1.359 . S
C339 C337 1.417 1_655 S
C339 C341 1.329 . S
C339 H358 0.930 . S
C340 C336 1.415 . S
C340 C341 1.437 1_455 S
C340 C344 1.413 . S
C341 C339 1.329 . S
C341 C340 1.437 1_655 S
C341 H363 0.929 . S
N342 C336 1.369 . S
N342 C343 1.338 . S
N342 Gd347 2.622 . S
C343 N342 1.338 . S
C343 C345 1.378 . S
C343 H355 0.929 . S
C344 C340 1.413 . S
C344 C345 1.348 . S
C344 H360 0.931 . S
C345 C343 1.378 . S
C345 C344 1.348 . S
C345 H361 0.930 . S
Gd346 N366 2.622 . S
Gd346 N373 2.570 1_565 S
Gd346 O380 2.353 . S
Gd346 O381 2.468 1_565 S
Gd346 O382 2.427 1_565 S
Gd346 O384 2.388 . S
Gd346 O385 2.386 . S
Gd346 O389 2.307 . S
Gd346 C399 2.805 1_565 S
Gd347 N342 2.622 . S
Gd347 N348 2.570 . S
Gd347 O379 2.386 . S
Gd347 O383 2.307 . S
Gd347 O386 2.353 . S
Gd347 O387 2.468 . S
Gd347 O388 2.427 . S
Gd347 O390 2.388 . S
Gd347 C411 2.805 . S
N348 C338 1.359 . S
N348 Gd347 2.570 . S
N348 C350 1.343 . S
C349 C337 1.422 . S
C349 C351 1.321 . S
C349 H357 0.931 1_455 S
C350 N348 1.343 . S
C350 C351 1.390 . S
C350 H352 0.931 . S
C351 C349 1.321 . S
C351 C350 1.390 . S
C351 H353 0.930 . S
H352 C350 0.931 . S
H353 C351 0.930 . S
H354 C377 0.931 . S
H355 C343 0.929 . S
H356 C378 0.930 . S
H357 C349 0.931 1_655 S
H358 C339 0.930 . S
H359 C368 0.929 . S
H360 C344 0.931 . S
H361 C345 0.930 . S
H362 C400 0.930 . S
H363 C341 0.929 . S
H364 C369 0.931 . S
H365 C370 0.928 1_565 S
N366 Gd346 2.622 . S
N366 C367 1.369 1_565 S
N366 C368 1.338 . S
C367 N366 1.369 1_545 S
C367 C371 1.415 . S
C367 C374 1.422 . S
C368 H359 0.929 . S
C368 N366 1.338 . S
C368 C370 1.378 1_565 S
C369 H364 0.931 . S
C369 C370 1.349 . S
C369 C371 1.413 . S
C370 H365 0.928 1_545 S
C370 C368 1.378 1_545 S
C370 C369 1.349 . S
C371 C367 1.415 . S
C371 C369 1.413 . S
C371 C401 1.437 . S
H372 C401 0.929 . S
N373 Gd346 2.570 1_545 S
N373 C374 1.359 . S
N373 C377 1.343 . S
C374 C367 1.422 . S
C374 N373 1.359 . S
C374 C376 1.421 . S
C375 C376 1.422 . S
C375 C378 1.321 . S
C375 H402 0.931 . S
C376 C374 1.421 . S
C376 C375 1.422 . S
C376 C400 1.417 . S
C377 H354 0.931 . S
C377 N373 1.343 . S
C377 C378 1.390 . S
C378 H356 0.930 . S
C378 C375 1.321 . S
C378 C377 1.390 . S
O379 Gd347 2.386 . S
O379 C391 1.265 . S
O380 Gd346 2.353 . S
O380 C391 1.242 . S
O381 Gd346 2.468 1_545 S
O381 C399 1.263 . S
O382 Gd346 2.427 1_545 S
O382 C399 1.252 . S
O383 Gd347 2.307 . S
O383 C392 1.261 . S
O384 Gd346 2.388 . S
O384 C392 1.252 . S
O385 Gd346 2.386 . S
O385 C403 1.265 . S
O386 Gd347 2.353 . S
O386 C403 1.242 . S
O387 Gd347 2.468 . S
O387 C411 1.263 . S
O388 Gd347 2.427 . S
O388 C411 1.252 . S
O389 Gd346 2.307 . S
O389 C404 1.261 . S
O390 Gd347 2.388 . S
O390 C404 1.252 . S
C391 O379 1.265 . S
C391 O380 1.242 . S
C392 O383 1.261 . S
C392 O384 1.252 . S
C393 C396 1.394 . S
C393 C398 1.370 . S
C393 C399 1.500 . S
C394 C397 1.383 . S
C394 C398 1.395 . S
C395 C396 1.396 . S
C395 C397 1.365 . S
C395 H412 0.929 . S
C396 C393 1.394 . S
C396 C395 1.396 . S
C396 H413 0.930 . S
C397 C394 1.383 . S
C397 C395 1.365 . S
C397 H414 0.931 . S
C398 C393 1.370 . S
C398 C394 1.395 . S
C398 H415 0.930 . S
C399 Gd346 2.805 1_545 S
C399 O381 1.263 . S
C399 O382 1.252 . S
C399 C393 1.500 . S
C400 H362 0.930 . S
C400 C376 1.417 . S
C400 C401 1.329 . S
C401 C371 1.437 . S
C401 H372 0.929 . S
C401 C400 1.329 . S
H402 C375 0.931 . S
C403 O385 1.265 . S
C403 O386 1.242 . S
C404 O389 1.261 . S
C404 O390 1.252 . S
C405 C408 1.394 . S
C405 C410 1.370 . S
C405 C411 1.500 . S
C406 C409 1.383 . S
C406 C410 1.395 . S
C407 C408 1.396 . S
C407 C409 1.365 . S
C407 H416 0.929 . S
C408 C405 1.394 . S
C408 C407 1.396 . S
C408 H417 0.930 . S
C409 C406 1.383 . S
C409 C407 1.365 . S
C409 H418 0.931 . S
C410 C405 1.370 . S
C410 C406 1.395 . S
C410 H419 0.930 . S
C411 Gd347 2.805 . S
C411 O387 1.263 . S
C411 O388 1.252 . S
C411 C405 1.500 . S
H412 C395 0.929 . S
H413 C396 0.930 . S
H414 C397 0.931 . S
H415 C398 0.930 . S
H416 C407 0.929 . S
H417 C408 0.930 . S
H418 C409 0.931 . S
H419 C410 0.930 . S
C420 C422 1.422 . S
C420 C424 1.415 . S
C420 N426 1.369 . S
C421 C422 1.421 . S
C421 C423 1.417 . S
C421 C433 1.422 . S
C422 C420 1.422 . S
C422 C421 1.421 . S
C422 N432 1.359 . S
C423 C421 1.417 . S
C423 C425 1.329 . S
C423 H442 0.930 . S
C424 C420 1.415 . S
C424 C425 1.437 . S
C424 C428 1.413 . S
C425 C423 1.329 . S
C425 C424 1.437 . S
C425 H447 0.929 . S
N426 C420 1.369 . S
N426 C427 1.338 . S
N426 Gd431 2.622 . S
C427 N426 1.338 . S
C427 C429 1.378 . S
C427 H439 0.929 . S
C428 C424 1.413 . S
C428 C429 1.348 . S
C428 H444 0.931 . S
C429 C427 1.378 . S
C429 C428 1.348 . S
C429 H445 0.930 . S
Gd430 N450 2.622 . S
Gd430 N457 2.570 . S
Gd430 O464 2.353 . S
Gd430 O465 2.468 . S
Gd430 O466 2.427 . S
Gd430 O468 2.388 . S
Gd430 O469 2.386 . S
Gd430 O473 2.307 . S
Gd430 C483 2.805 1_455 S
Gd431 N426 2.622 . S
Gd431 N432 2.570 . S
Gd431 O463 2.386 . S
Gd431 O467 2.307 . S
Gd431 O470 2.353 . S
Gd431 O471 2.468 . S
Gd431 O472 2.427 . S
Gd431 O474 2.388 . S
Gd431 C495 2.805 . S
N432 C422 1.359 . S
N432 Gd431 2.570 . S
N432 C434 1.343 . S
C433 C421 1.422 . S
C433 C435 1.321 . S
C433 H441 0.931 . S
C434 N432 1.343 . S
C434 C435 1.390 . S
C434 H436 0.931 . S
C435 C433 1.321 . S
C435 C434 1.390 . S
C435 H437 0.930 . S
H436 C434 0.931 . S
H437 C435 0.930 . S
H438 C461 0.931 1_455 S
H439 C427 0.929 . S
H440 C462 0.930 . S
H441 C433 0.931 . S
H442 C423 0.930 . S
H443 C452 0.929 . S
H444 C428 0.931 . S
H445 C429 0.930 . S
H446 C484 0.930 . S
H447 C425 0.929 . S
H448 C453 0.931 . S
H449 C454 0.930 . S
N450 Gd430 2.622 . S
N450 C451 1.369 1_455 S
N450 C452 1.338 . S
C451 N450 1.369 1_655 S
C451 C455 1.415 . S
C451 C458 1.422 . S
C452 H443 0.929 . S
C452 N450 1.338 . S
C452 C454 1.378 . S
C453 H448 0.931 . S
C453 C454 1.348 1_655 S
C453 C455 1.413 . S
C454 H449 0.930 . S
C454 C452 1.378 . S
C454 C453 1.348 1_455 S
C455 C451 1.415 . S
C455 C453 1.413 . S
C455 C485 1.437 . S
H456 C485 0.929 . S
N457 Gd430 2.570 . S
N457 C458 1.359 1_455 S
N457 C461 1.343 1_455 S
C458 C451 1.422 . S
C458 N457 1.359 1_655 S
C458 C460 1.421 . S
C459 C460 1.422 . S
C459 C462 1.321 . S
C459 H486 0.931 . S
C460 C458 1.421 . S
C460 C459 1.422 . S
C460 C484 1.417 . S
C461 H438 0.931 1_655 S
C461 N457 1.343 1_655 S
C461 C462 1.390 . S
C462 H440 0.930 . S
C462 C459 1.321 . S
C462 C461 1.390 . S
O463 Gd431 2.386 . S
O463 C475 1.265 . S
O464 Gd430 2.353 . S
O464 C475 1.242 . S
O465 Gd430 2.468 . S
O465 C483 1.263 1_455 S
O466 Gd430 2.427 . S
O466 C483 1.252 1_455 S
O467 Gd431 2.307 . S
O467 C476 1.261 . S
O468 Gd430 2.388 . S
O468 C476 1.252 . S
O469 Gd430 2.386 . S
O469 C487 1.265 . S
O470 Gd431 2.353 . S
O470 C487 1.242 . S
O471 Gd431 2.468 . S
O471 C495 1.263 . S
O472 Gd431 2.427 . S
O472 C495 1.252 . S
O473 Gd430 2.307 . S
O473 C488 1.261 . S
O474 Gd431 2.388 . S
O474 C488 1.252 . S
C475 O463 1.265 . S
C475 O464 1.242 . S
C476 O467 1.261 . S
C476 O468 1.252 . S
C477 C480 1.394 . S
C477 C482 1.370 . S
C477 C483 1.500 . S
C478 C481 1.383 . S
C478 C482 1.395 . S
C479 C480 1.396 . S
C479 C481 1.365 . S
C479 H496 0.929 . S
C480 C477 1.394 . S
C480 C479 1.396 . S
C480 H497 0.930 . S
C481 C478 1.383 . S
C481 C479 1.365 . S
C481 H498 0.931 . S
C482 C477 1.370 . S
C482 C478 1.395 . S
C482 H499 0.930 . S
C483 Gd430 2.805 1_655 S
C483 O465 1.263 1_655 S
C483 O466 1.252 1_655 S
C483 C477 1.500 . S
C484 H446 0.930 . S
C484 C460 1.417 . S
C484 C485 1.329 . S
C485 C455 1.437 . S
C485 H456 0.929 . S
C485 C484 1.329 . S
H486 C459 0.931 . S
C487 O469 1.265 . S
C487 O470 1.242 . S
C488 O473 1.261 . S
C488 O474 1.252 . S
C489 C492 1.394 . S
C489 C494 1.370 . S
C489 C495 1.500 . S
C490 C493 1.383 . S
C490 C494 1.395 . S
C491 C492 1.396 . S
C491 C493 1.365 . S
C491 H500 0.929 . S
C492 C489 1.394 . S
C492 C491 1.396 . S
C492 H501 0.930 . S
C493 C490 1.383 . S
C493 C491 1.365 . S
C493 H502 0.931 . S
C494 C489 1.370 . S
C494 C490 1.395 . S
C494 H503 0.930 . S
C495 Gd431 2.805 . S
C495 O471 1.263 . S
C495 O472 1.252 . S
C495 C489 1.500 . S
H496 C479 0.929 . S
H497 C480 0.930 . S
H498 C481 0.931 . S
H499 C482 0.930 . S
H500 C491 0.929 . S
H501 C492 0.930 . S
H502 C493 0.931 . S
H503 C494 0.930 . S
C504 C506 1.422 . S
C504 C508 1.415 . S
C504 N510 1.369 . S
C505 C506 1.421 . S
C505 C507 1.417 . S
C505 C517 1.422 . S
C506 C504 1.422 . S
C506 C505 1.421 . S
C506 N516 1.359 . S
C507 C505 1.417 . S
C507 C509 1.329 . S
C507 H526 0.930 . S
C508 C504 1.415 . S
C508 C509 1.437 . S
C508 C512 1.413 . S
C509 C507 1.329 . S
C509 C508 1.437 . S
C509 H531 0.929 . S
N510 C504 1.369 . S
N510 C511 1.338 . S
N510 Gd515 2.622 . S
C511 N510 1.338 . S
C511 C513 1.378 . S
C511 H523 0.929 . S
C512 C508 1.413 . S
C512 C513 1.348 . S
C512 H528 0.931 . S
C513 C511 1.378 . S
C513 C512 1.348 . S
C513 H529 0.930 . S
Gd514 N534 2.622 . S
Gd514 N541 2.570 . S
Gd514 O548 2.353 . S
Gd514 O549 2.468 . S
Gd514 O550 2.427 . S
Gd514 O552 2.388 . S
Gd514 O553 2.386 . S
Gd514 O557 2.307 . S
Gd514 C567 2.805 . S
Gd515 N510 2.622 . S
Gd515 N516 2.570 . S
Gd515 O547 2.386 . S
Gd515 O551 2.307 . S
Gd515 O554 2.353 . S
Gd515 O555 2.468 . S
Gd515 O556 2.427 . S
Gd515 O558 2.388 . S
Gd515 C579 2.805 . S
N516 C506 1.359 . S
N516 Gd515 2.570 . S
N516 C518 1.343 . S
C517 C505 1.422 . S
C517 C519 1.321 . S
C517 H525 0.931 . S
C518 N516 1.343 . S
C518 C519 1.390 . S
C518 H520 0.931 . S
C519 C517 1.321 . S
C519 C518 1.390 . S
C519 H521 0.930 . S
H520 C518 0.931 . S
H521 C519 0.930 . S
H522 C545 0.931 . S
H523 C511 0.929 . S
H524 C546 0.930 . S
H525 C517 0.931 . S
H526 C507 0.930 . S
H527 C536 0.929 . S
H528 C512 0.931 . S
H529 C513 0.930 . S
H530 C568 0.930 . S
H531 C509 0.929 . S
H532 C537 0.931 . S
H533 C538 0.930 . S
N534 Gd514 2.622 . S
N534 C535 1.369 1_545 S
N534 C536 1.338 . S
C535 N534 1.369 1_565 S
C535 C539 1.415 . S
C535 C542 1.422 . S
C536 H527 0.929 . S
C536 N534 1.338 . S
C536 C538 1.378 . S
C537 H532 0.931 . S
C537 C538 1.348 1_565 S
C537 C539 1.413 . S
C538 H533 0.930 . S
C538 C536 1.378 . S
C538 C537 1.348 1_545 S
C539 C535 1.415 . S
C539 C537 1.413 . S
C539 C569 1.437 . S
H540 C569 0.929 . S
N541 Gd514 2.570 . S
N541 C542 1.359 1_545 S
N541 C545 1.343 . S
C542 C535 1.422 . S
C542 N541 1.359 1_565 S
C542 C544 1.421 . S
C543 C544 1.422 . S
C543 C546 1.321 . S
C543 H570 0.931 . S
C544 C542 1.421 . S
C544 C543 1.422 . S
C544 C568 1.417 . S
C545 H522 0.931 . S
C545 N541 1.343 . S
C545 C546 1.390 1_545 S
C546 H524 0.930 . S
C546 C543 1.321 . S
C546 C545 1.390 1_565 S
O547 Gd515 2.386 . S
O547 C559 1.265 . S
O548 Gd514 2.353 . S
O548 C559 1.242 . S
O549 Gd514 2.468 . S
O549 C567 1.263 . S
O550 Gd514 2.427 . S
O550 C567 1.252 . S
O551 Gd515 2.307 . S
O551 C560 1.261 . S
O552 Gd514 2.388 . S
O552 C560 1.252 . S
O553 Gd514 2.386 . S
O553 C571 1.265 . S
O554 Gd515 2.353 . S
O554 C571 1.242 . S
O555 Gd515 2.468 . S
O555 C579 1.263 . S
O556 Gd515 2.427 . S
O556 C579 1.252 . S
O557 Gd514 2.307 . S
O557 C572 1.261 . S
O558 Gd515 2.388 . S
O558 C572 1.252 . S
C559 O547 1.265 . S
C559 O548 1.242 . S
C560 O551 1.261 . S
C560 O552 1.252 . S
C561 C564 1.394 . S
C561 C566 1.370 . S
C561 C567 1.500 . S
C562 C565 1.383 . S
C562 C566 1.395 . S
C563 C564 1.396 . S
C563 C565 1.365 . S
C563 H580 0.929 . S
C564 C561 1.394 . S
C564 C563 1.396 . S
C564 H581 0.930 . S
C565 C562 1.383 . S
C565 C563 1.365 . S
C565 H582 0.931 . S
C566 C561 1.370 . S
C566 C562 1.395 . S
C566 H583 0.930 . S
C567 Gd514 2.805 . S
C567 O549 1.263 . S
C567 O550 1.252 . S
C567 C561 1.500 . S
C568 H530 0.930 . S
C568 C544 1.417 . S
C568 C569 1.329 . S
C569 C539 1.437 . S
C569 H540 0.929 . S
C569 C568 1.329 . S
H570 C543 0.931 . S
C571 O553 1.265 . S
C571 O554 1.242 . S
C572 O557 1.261 . S
C572 O558 1.252 . S
C573 C576 1.394 . S
C573 C578 1.370 . S
C573 C579 1.500 . S
C574 C577 1.383 . S
C574 C578 1.395 . S
C575 C576 1.396 . S
C575 C577 1.365 . S
C575 H584 0.929 . S
C576 C573 1.394 . S
C576 C575 1.396 . S
C576 H585 0.930 . S
C577 C574 1.383 . S
C577 C575 1.365 . S
C577 H586 0.931 . S
C578 C573 1.370 . S
C578 C574 1.395 . S
C578 H587 0.930 . S
C579 Gd515 2.805 . S
C579 O555 1.263 . S
C579 O556 1.252 . S
C579 C573 1.500 . S
H580 C563 0.929 . S
H581 C564 0.930 . S
H582 C565 0.931 . S
H583 C566 0.930 . S
H584 C575 0.929 . S
H585 C576 0.930 . S
H586 C577 0.931 . S
H587 C578 0.930 . S
C588 C590 1.422 . S
C588 C592 1.415 . S
C588 N594 1.369 . S
C589 C590 1.421 . S
C589 C591 1.417 . S
C589 C601 1.422 . S
C590 C588 1.422 . S
C590 C589 1.421 . S
C590 N600 1.359 . S
C591 C589 1.417 . S
C591 C593 1.329 . S
C591 H610 0.930 . S
C592 C588 1.415 . S
C592 C593 1.437 . S
C592 C596 1.413 . S
C593 C591 1.329 . S
C593 C592 1.437 . S
C593 H615 0.929 . S
N594 C588 1.369 . S
N594 C595 1.338 . S
N594 Gd599 2.622 . S
C595 N594 1.338 . S
C595 C597 1.378 . S
C595 H607 0.929 . S
C596 C592 1.413 . S
C596 C597 1.348 . S
C596 H612 0.931 . S
C597 C595 1.378 . S
C597 C596 1.348 . S
C597 H613 0.930 . S
Gd598 N618 2.622 . S
Gd598 N625 2.570 . S
Gd598 O632 2.353 . S
Gd598 O633 2.468 . S
Gd598 O634 2.427 . S
Gd598 O636 2.388 . S
Gd598 O637 2.386 . S
Gd598 O641 2.307 . S
Gd598 C651 2.805 . S
Gd599 N594 2.622 . S
Gd599 N600 2.570 . S
Gd599 O631 2.386 . S
Gd599 O635 2.307 . S
Gd599 O638 2.353 . S
Gd599 O639 2.468 . S
Gd599 O640 2.427 . S
Gd599 O642 2.388 . S
Gd599 C663 2.805 . S
N600 C590 1.359 . S
N600 Gd599 2.570 . S
N600 C602 1.343 . S
C601 C589 1.422 . S
C601 C603 1.321 . S
C601 H609 0.931 . S
C602 N600 1.343 . S
C602 C603 1.390 . S
C602 H604 0.931 . S
C603 C601 1.321 . S
C603 C602 1.390 . S
C603 H605 0.930 . S
H604 C602 0.931 . S
H605 C603 0.930 . S
H606 C629 0.931 . S
H607 C595 0.929 . S
H608 C630 0.930 . S
H609 C601 0.931 . S
H610 C591 0.930 . S
H611 C620 0.929 . S
H612 C596 0.931 . S
H613 C597 0.930 . S
H614 C652 0.930 . S
H615 C593 0.929 . S
H616 C621 0.931 . S
H617 C622 0.929 1_655 S
N618 Gd598 2.622 . S
N618 C619 1.369 1_655 S
N618 C620 1.338 . S
C619 N618 1.369 1_455 S
C619 C623 1.415 . S
C619 C626 1.422 . S
C620 H611 0.929 . S
C620 N618 1.338 . S
C620 C622 1.378 1_655 S
C621 H616 0.931 . S
C621 C622 1.348 . S
C621 C623 1.413 . S
C622 H617 0.929 1_455 S
C622 C620 1.378 1_455 S
C622 C621 1.348 . S
C623 C619 1.415 . S
C623 C621 1.413 . S
C623 C653 1.437 . S
H624 C653 0.929 . S
N625 Gd598 2.570 . S
N625 C626 1.359 1_655 S
N625 C629 1.343 . S
C626 C619 1.422 . S
C626 N625 1.359 1_455 S
C626 C628 1.421 . S
C627 C628 1.422 . S
C627 C630 1.321 . S
C627 H654 0.931 . S
C628 C626 1.421 . S
C628 C627 1.422 . S
C628 C652 1.417 . S
C629 H606 0.931 . S
C629 N625 1.343 . S
C629 C630 1.390 1_655 S
C630 H608 0.930 . S
C630 C627 1.321 . S
C630 C629 1.390 1_455 S
O631 Gd599 2.386 . S
O631 C643 1.265 . S
O632 Gd598 2.353 . S
O632 C643 1.242 . S
O633 Gd598 2.468 . S
O633 C651 1.263 . S
O634 Gd598 2.427 . S
O634 C651 1.252 . S
O635 Gd599 2.307 . S
O635 C644 1.261 . S
O636 Gd598 2.388 . S
O636 C644 1.252 . S
O637 Gd598 2.386 . S
O637 C655 1.265 . S
O638 Gd599 2.353 . S
O638 C655 1.242 . S
O639 Gd599 2.468 . S
O639 C663 1.263 . S
O640 Gd599 2.427 . S
O640 C663 1.252 . S
O641 Gd598 2.307 . S
O641 C656 1.261 . S
O642 Gd599 2.388 . S
O642 C656 1.252 . S
C643 O631 1.265 . S
C643 O632 1.242 . S
C644 O635 1.261 . S
C644 O636 1.252 . S
C645 C648 1.394 . S
C645 C650 1.370 . S
C645 C651 1.500 . S
C646 C649 1.383 . S
C646 C650 1.395 . S
C647 C648 1.396 . S
C647 C649 1.365 . S
C647 H664 0.929 . S
C648 C645 1.394 . S
C648 C647 1.396 . S
C648 H665 0.930 . S
C649 C646 1.383 . S
C649 C647 1.365 . S
C649 H666 0.931 . S
C650 C645 1.370 . S
C650 C646 1.395 . S
C650 H667 0.930 . S
C651 Gd598 2.805 . S
C651 O633 1.263 . S
C651 O634 1.252 . S
C651 C645 1.500 . S
C652 H614 0.930 . S
C652 C628 1.417 . S
C652 C653 1.329 . S
C653 C623 1.437 . S
C653 H624 0.929 . S
C653 C652 1.329 . S
H654 C627 0.931 . S
C655 O637 1.265 . S
C655 O638 1.242 . S
C656 O641 1.261 . S
C656 O642 1.252 . S
C657 C660 1.394 . S
C657 C662 1.370 . S
C657 C663 1.500 . S
C658 C661 1.383 . S
C658 C662 1.395 1_565 S
C659 C660 1.396 1_565 S
C659 C661 1.365 . S
C659 H668 0.929 . S
C660 C657 1.394 . S
C660 C659 1.396 1_545 S
C660 H669 0.930 . S
C661 C658 1.383 . S
C661 C659 1.365 . S
C661 H670 0.931 . S
C662 C657 1.370 . S
C662 C658 1.395 1_545 S
C662 H671 0.930 . S
C663 Gd599 2.805 . S
C663 O639 1.263 . S
C663 O640 1.252 . S
C663 C657 1.500 . S
H664 C647 0.929 . S
H665 C648 0.930 . S
H666 C649 0.931 . S
H667 C650 0.930 . S
H668 C659 0.929 . S
H669 C660 0.930 . S
H670 C661 0.931 . S
H671 C662 0.930 . S
C672 C674 1.422 . S
C672 C676 1.415 . S
C672 N678 1.369 . S
C673 C674 1.421 . S
C673 C675 1.417 . S
C673 C685 1.422 . S
C674 C672 1.422 . S
C674 C673 1.421 . S
C674 N684 1.359 . S
C675 C673 1.417 . S
C675 C677 1.329 . S
C675 H694 0.930 . S
C676 C672 1.415 . S
C676 C677 1.437 . S
C676 C680 1.413 . S
C677 C675 1.329 . S
C677 C676 1.437 . S
C677 H699 0.929 . S
N678 C672 1.369 . S
N678 C679 1.338 . S
N678 Gd683 2.622 . S
C679 N678 1.338 . S
C679 C681 1.378 . S
C679 H691 0.929 . S
C680 C676 1.413 . S
C680 C681 1.348 . S
C680 H696 0.931 . S
C681 C679 1.378 . S
C681 C680 1.348 . S
C681 H697 0.930 . S
Gd682 N702 2.622 . S
Gd682 N709 2.570 . S
Gd682 O716 2.353 . S
Gd682 O717 2.468 . S
Gd682 O718 2.427 . S
Gd682 O720 2.388 . S
Gd682 O721 2.386 . S
Gd682 O725 2.307 . S
Gd682 C735 2.805 . S
Gd683 N678 2.622 . S
Gd683 N684 2.570 . S
Gd683 O715 2.386 . S
Gd683 O719 2.307 . S
Gd683 O722 2.353 . S
Gd683 O723 2.468 . S
Gd683 O724 2.427 . S
Gd683 O726 2.388 . S
Gd683 C747 2.805 . S
N684 C674 1.359 . S
N684 Gd683 2.570 . S
N684 C686 1.343 . S
C685 C673 1.422 . S
C685 C687 1.321 . S
C685 H693 0.931 . S
C686 N684 1.343 . S
C686 C687 1.390 . S
C686 H688 0.931 . S
C687 C685 1.321 . S
C687 C686 1.390 . S
C687 H689 0.930 . S
H688 C686 0.931 . S
H689 C687 0.930 . S
H690 C713 0.931 . S
H691 C679 0.929 . S
H692 C714 0.930 . S
H693 C685 0.931 . S
H694 C675 0.930 . S
H695 C704 0.929 . S
H696 C680 0.931 . S
H697 C681 0.930 . S
H698 C736 0.930 . S
H699 C677 0.929 . S
H700 C705 0.931 . S
H701 C706 0.930 . S
N702 Gd682 2.622 . S
N702 C703 1.369 . S
N702 C704 1.338 . S
C703 N702 1.369 . S
C703 C707 1.415 . S
C703 C710 1.422 . S
C704 H695 0.929 . S
C704 N702 1.338 . S
C704 C706 1.378 . S
C705 H700 0.931 . S
C705 C706 1.348 . S
C705 C707 1.413 . S
C706 H701 0.930 . S
C706 C704 1.378 . S
C706 C705 1.348 . S
C707 C703 1.415 . S
C707 C705 1.413 . S
C707 C737 1.437 . S
H708 C737 0.929 . S
N709 Gd682 2.570 . S
N709 C710 1.359 . S
N709 C713 1.343 . S
C710 C703 1.422 . S
C710 N709 1.359 . S
C710 C712 1.421 . S
C711 C712 1.422 . S
C711 C714 1.321 . S
C711 H738 0.931 . S
C712 C710 1.421 . S
C712 C711 1.422 . S
C712 C736 1.417 . S
C713 H690 0.931 . S
C713 N709 1.343 . S
C713 C714 1.390 . S
C714 H692 0.930 . S
C714 C711 1.321 . S
C714 C713 1.390 . S
O715 Gd683 2.386 . S
O715 C727 1.265 . S
O716 Gd682 2.353 . S
O716 C727 1.242 . S
O717 Gd682 2.468 . S
O717 C735 1.263 . S
O718 Gd682 2.427 . S
O718 C735 1.252 . S
O719 Gd683 2.307 . S
O719 C728 1.261 . S
O720 Gd682 2.388 . S
O720 C728 1.252 . S
O721 Gd682 2.386 . S
O721 C739 1.265 . S
O722 Gd683 2.353 . S
O722 C739 1.242 . S
O723 Gd683 2.468 . S
O723 C747 1.263 . S
O724 Gd683 2.427 . S
O724 C747 1.252 . S
O725 Gd682 2.307 . S
O725 C740 1.261 . S
O726 Gd683 2.388 . S
O726 C740 1.252 . S
C727 O715 1.265 . S
C727 O716 1.242 . S
C728 O719 1.261 . S
C728 O720 1.252 . S
C729 C732 1.394 . S
C729 C734 1.370 . S
C729 C735 1.500 . S
C730 C733 1.383 . S
C730 C734 1.395 . S
C731 C732 1.396 . S
C731 C733 1.365 . S
C731 H748 0.929 . S
C732 C729 1.394 . S
C732 C731 1.396 . S
C732 H749 0.930 . S
C733 C730 1.383 . S
C733 C731 1.365 . S
C733 H750 0.931 . S
C734 C729 1.370 . S
C734 C730 1.395 . S
C734 H751 0.930 . S
C735 Gd682 2.805 . S
C735 O717 1.263 . S
C735 O718 1.252 . S
C735 C729 1.500 . S
C736 H698 0.930 . S
C736 C712 1.417 . S
C736 C737 1.329 . S
C737 C707 1.437 . S
C737 H708 0.929 . S
C737 C736 1.329 . S
H738 C711 0.931 . S
C739 O721 1.265 . S
C739 O722 1.242 . S
C740 O725 1.261 . S
C740 O726 1.252 . S
C741 C744 1.394 . S
C741 C746 1.370 . S
C741 C747 1.500 . S
C742 C745 1.383 . S
C742 C746 1.395 1_455 S
C743 C744 1.396 1_455 S
C743 C745 1.365 . S
C743 H752 0.929 . S
C744 C741 1.394 . S
C744 C743 1.396 1_655 S
C744 H753 0.930 . S
C745 C742 1.383 . S
C745 C743 1.365 . S
C745 H754 0.931 . S
C746 C741 1.370 . S
C746 C742 1.395 1_655 S
C746 H755 0.930 . S
C747 Gd683 2.805 . S
C747 O723 1.263 . S
C747 O724 1.252 . S
C747 C741 1.500 . S
H748 C731 0.929 . S
H749 C732 0.930 . S
H750 C733 0.931 . S
H751 C734 0.930 . S
H752 C743 0.929 . S
H753 C744 0.930 . S
H754 C745 0.931 . S
H755 C746 0.930 . S
H756 C762 0.930 . S
H757 C765 0.930 . S
H758 C766 0.930 . S
H759 C767 0.930 . S
H760 C770 0.930 . S
H761 C771 0.930 . S
C762 H756 0.930 . S
C762 C763 1.355 . S
C762 C764 1.415 . S
C763 C762 1.355 . S
C763 C765 1.419 1_556 S
C764 C762 1.415 . S
C764 C769 1.425 1_556 S
C764 C771 1.409 . S
C765 H757 0.930 . S
C765 C763 1.419 1_554 S
C765 C766 1.362 . S
C766 H758 0.930 . S
C766 C765 1.362 . S
C766 C769 1.409 . S
C767 H759 0.930 . S
C767 C768 1.355 . S
C767 C769 1.415 . S
C768 C767 1.355 . S
C768 C770 1.419 1_554 S
C769 C764 1.425 1_554 S
C769 C766 1.409 . S
C769 C767 1.415 . S
C770 H760 0.930 . S
C770 C768 1.419 1_556 S
C770 C771 1.362 . S
C771 H761 0.930 . S
C771 C764 1.409 . S
C771 C770 1.362 . S
H772 C778 0.930 . S
H773 C781 0.930 . S
H774 C782 0.930 . S
H775 C783 0.930 1_556 S
H776 C786 0.930 . S
H777 C787 0.930 . S
C778 H772 0.930 . S
C778 C779 1.355 1_554 S
C778 C780 1.415 . S
C779 C778 1.355 1_556 S
C779 C781 1.419 . S
C780 C778 1.415 . S
C780 C785 1.432 . S
C780 C787 1.409 . S
C781 H773 0.930 . S
C781 C779 1.419 . S
C781 C782 1.362 . S
C782 H774 0.930 . S
C782 C781 1.362 . S
C782 C785 1.401 1_556 S
C783 H775 0.930 1_554 S
C783 C784 1.355 . S
C783 C785 1.417 . S
C784 C783 1.355 . S
C784 C786 1.419 . S
C785 C780 1.432 . S
C785 C782 1.401 1_554 S
C785 C783 1.417 . S
C786 H776 0.930 . S
C786 C784 1.419 . S
C786 C787 1.362 . S
C787 H777 0.930 . S
C787 C780 1.409 . S
C787 C786 1.362 . S
H788 C794 0.930 . S
H789 C797 0.930 . S
H790 C798 0.930 . S
H791 C799 0.930 . S
H792 C802 0.930 . S
H793 C803 0.930 . S
C794 H788 0.930 . S
C794 C795 1.355 . S
C794 C796 1.415 . S
C795 C794 1.355 . S
C795 C797 1.419 . S
C796 C794 1.415 . S
C796 C801 1.425 . S
C796 C803 1.409 1_554 S
C797 H789 0.930 . S
C797 C795 1.419 . S
C797 C798 1.362 . S
C798 H790 0.930 . S
C798 C797 1.362 . S
C798 C801 1.409 . S
C799 H791 0.930 . S
C799 C800 1.355 1_554 S
C799 C801 1.415 . S
C800 C799 1.355 1_556 S
C800 C802 1.419 . S
C801 C796 1.425 . S
C801 C798 1.409 . S
C801 C799 1.415 . S
C802 H792 0.930 . S
C802 C800 1.419 . S
C802 C803 1.362 . S
C803 H793 0.930 . S
C803 C796 1.409 1_556 S
C803 C802 1.362 . S
H804 C810 0.930 . S
H805 C813 0.930 . S
H806 C814 0.930 . S
H807 C815 0.930 . S
H808 C818 0.930 . S
H809 C819 0.930 . S
C810 H804 0.930 . S
C810 C811 1.355 . S
C810 C812 1.415 . S
C811 C810 1.355 . S
C811 C813 1.419 1_554 S
C812 C810 1.415 . S
C812 C817 1.425 1_554 S
C812 C819 1.409 . S
C813 H805 0.930 . S
C813 C811 1.419 1_556 S
C813 C814 1.362 . S
C814 H806 0.930 . S
C814 C813 1.362 . S
C814 C817 1.409 . S
C815 H807 0.930 . S
C815 C816 1.355 . S
C815 C817 1.415 . S
C816 C815 1.355 . S
C816 C818 1.419 1_556 S
C817 C812 1.425 1_556 S
C817 C814 1.409 . S
C817 C815 1.415 . S
C818 H808 0.930 . S
C818 C816 1.419 1_554 S
C818 C819 1.362 . S
C819 H809 0.930 . S
C819 C812 1.409 . S
C819 C818 1.362 . S
H820 C826 0.930 . S
H821 C829 0.930 . S
H822 C830 0.930 . S
H823 C831 0.930 . S
H824 C834 0.930 . S
H825 C835 0.930 . S
C826 H820 0.930 . S
C826 C827 1.355 . S
C826 C828 1.415 . S
C827 C826 1.355 . S
C827 C829 1.419 1_556 S
C828 C826 1.415 . S
C828 C833 1.425 1_556 S
C828 C835 1.409 . S
C829 H821 0.930 . S
C829 C827 1.419 1_554 S
C829 C830 1.362 . S
C830 H822 0.930 . S
C830 C829 1.362 . S
C830 C833 1.409 . S
C831 H823 0.930 . S
C831 C832 1.355 . S
C831 C833 1.415 . S
C832 C831 1.355 . S
C832 C834 1.419 1_554 S
C833 C828 1.425 1_554 S
C833 C830 1.409 . S
C833 C831 1.415 . S
C834 H824 0.930 . S
C834 C832 1.419 1_556 S
C834 C835 1.362 . S
C835 H825 0.930 . S
C835 C828 1.409 . S
C835 C834 1.362 . S
H836 C842 0.930 . S
H837 C845 0.930 . S
H838 C846 0.930 . S
H839 C847 0.931 . S
H840 C850 0.930 . S
H841 C851 0.930 . S
C842 H836 0.930 . S
C842 C843 1.355 . S
C842 C844 1.415 . S
C843 C842 1.355 . S
C843 C845 1.419 . S
C844 C842 1.415 . S
C844 C849 1.425 . S
C844 C851 1.409 1_556 S
C845 H837 0.930 . S
C845 C843 1.419 . S
C845 C846 1.362 . S
C846 H838 0.930 . S
C846 C845 1.362 . S
C846 C849 1.409 . S
C847 H839 0.931 . S
C847 C848 1.355 . S
C847 C849 1.415 1_554 S
C848 C847 1.355 . S
C848 C850 1.419 . S
C849 C844 1.425 . S
C849 C846 1.409 . S
C849 C847 1.415 1_556 S
C850 H840 0.930 . S
C850 C848 1.419 . S
C850 C851 1.362 . S
C851 H841 0.930 . S
C851 C844 1.409 1_554 S
C851 C850 1.362 . S
H852 C858 0.930 . S
H853 C861 0.930 . S
H854 C862 0.930 1_455 S
H855 C863 0.930 . S
H856 C866 0.930 . S
H857 C867 0.930 . S
C858 H852 0.930 . S
C858 C859 1.355 . S
C858 C860 1.415 1_655 S
C859 C858 1.355 . S
C859 C861 1.419 . S
C860 C858 1.415 1_455 S
C860 C865 1.425 . S
C860 C867 1.409 . S
C861 H853 0.930 . S
C861 C859 1.419 . S
C861 C862 1.362 . S
C862 H854 0.930 1_655 S
C862 C861 1.362 . S
C862 C865 1.409 1_655 S
C863 H855 0.930 . S
C863 C864 1.355 . S
C863 C865 1.415 . S
C864 C863 1.355 . S
C864 C866 1.419 . S
C865 C860 1.425 . S
C865 C862 1.409 1_455 S
C865 C863 1.415 . S
C866 H856 0.930 . S
C866 C864 1.419 . S
C866 C867 1.362 . S
C867 H857 0.930 . S
C867 C860 1.409 . S
C867 C866 1.362 . S
H868 C874 0.930 . S
H869 C877 0.930 . S
H870 C878 0.930 . S
H871 C879 0.930 . S
H872 C882 0.930 . S
H873 C883 0.930 . S
C874 H868 0.930 . S
C874 C875 1.355 . S
C874 C876 1.415 . S
C875 C874 1.355 . S
C875 C877 1.419 . S
C876 C874 1.415 . S
C876 C881 1.425 . S
C876 C883 1.409 . S
C877 H869 0.930 . S
C877 C875 1.419 . S
C877 C878 1.362 . S
C878 H870 0.930 . S
C878 C877 1.362 . S
C878 C881 1.409 . S
C879 H871 0.930 . S
C879 C880 1.355 . S
C879 C881 1.415 . S
C880 C879 1.355 . S
C880 C882 1.419 . S
C881 C876 1.425 . S
C881 C878 1.409 . S
C881 C879 1.415 . S
C882 H872 0.930 . S
C882 C880 1.419 . S
C882 C883 1.362 . S
C883 H873 0.930 . S
C883 C876 1.409 . S
C883 C882 1.362 . S
H884 C890 0.930 . S
H885 C893 0.930 . S
H886 C894 0.930 1_565 S
H887 C895 0.930 . S
H888 C898 0.930 . S
H889 C899 0.930 . S
C890 H884 0.930 . S
C890 C891 1.355 . S
C890 C892 1.415 . S
C891 C890 1.355 . S
C891 C893 1.419 . S
C892 C890 1.415 . S
C892 C897 1.425 1_545 S
C892 C899 1.409 1_545 S
C893 H885 0.930 . S
C893 C891 1.419 . S
C893 C894 1.362 . S
C894 H886 0.930 1_545 S
C894 C893 1.362 . S
C894 C897 1.409 1_545 S
C895 H887 0.930 . S
C895 C896 1.355 . S
C895 C897 1.415 . S
C896 C895 1.355 . S
C896 C898 1.419 . S
C897 C892 1.425 1_565 S
C897 C894 1.409 1_565 S
C897 C895 1.415 . S
C898 H888 0.930 . S
C898 C896 1.419 . S
C898 C899 1.362 . S
C899 H889 0.930 . S
C899 C892 1.409 1_565 S
C899 C898 1.362 . S
H900 C906 0.930 . S
H901 C909 0.930 . S
H902 C910 0.930 . S
H903 C911 0.930 . S
H904 C914 0.930 . S
H905 C915 0.930 . S
C906 H900 0.930 . S
C906 C907 1.355 . S
C906 C908 1.415 . S
C907 C906 1.355 . S
C907 C909 1.419 . S
C908 C906 1.415 . S
C908 C913 1.425 . S
C908 C915 1.409 . S
C909 H901 0.930 . S
C909 C907 1.419 . S
C909 C910 1.362 . S
C910 H902 0.930 . S
C910 C909 1.362 . S
C910 C913 1.409 . S
C911 H903 0.930 . S
C911 C912 1.355 . S
C911 C913 1.415 . S
C912 C911 1.355 . S
C912 C914 1.419 . S
C913 C908 1.425 . S
C913 C910 1.409 . S
C913 C911 1.415 . S
C914 H904 0.930 . S
C914 C912 1.419 . S
C914 C915 1.362 . S
C915 H905 0.930 . S
C915 C908 1.409 . S
C915 C914 1.362 . S
H916 C922 0.930 . S
H917 C925 0.930 . S
H918 C926 0.930 . S
H919 C927 0.930 . S
H920 C930 0.930 . S
H921 C931 0.930 . S
C922 H916 0.930 . S
C922 C923 1.355 . S
C922 C924 1.415 . S
C923 C922 1.355 . S
C923 C925 1.419 . S
C924 C922 1.415 . S
C924 C929 1.425 . S
C924 C931 1.409 . S
C925 H917 0.930 . S
C925 C923 1.419 . S
C925 C926 1.362 . S
C926 H918 0.930 . S
C926 C925 1.362 . S
C926 C929 1.409 . S
C927 H919 0.930 . S
C927 C928 1.355 . S
C927 C929 1.415 . S
C928 C927 1.355 . S
C928 C930 1.419 . S
C929 C924 1.425 . S
C929 C926 1.409 . S
C929 C927 1.415 . S
C930 H920 0.930 . S
C930 C928 1.419 . S
C930 C931 1.362 . S
C931 H921 0.930 . S
C931 C924 1.409 . S
C931 C930 1.362 . S
H932 C938 0.930 . S
H933 C941 0.930 . S
H934 C942 0.930 . S
H935 C943 0.930 . S
H936 C946 0.930 . S
H937 C947 0.930 . S
C938 H932 0.930 . S
C938 C939 1.355 . S
C938 C940 1.415 . S
C939 C938 1.355 . S
C939 C941 1.419 . S
C940 C938 1.415 . S
C940 C945 1.425 . S
C940 C947 1.409 . S
C941 H933 0.930 . S
C941 C939 1.419 . S
C941 C942 1.362 . S
C942 H934 0.930 . S
C942 C941 1.362 . S
C942 C945 1.409 . S
C943 H935 0.930 . S
C943 C944 1.355 . S
C943 C945 1.415 . S
C944 C943 1.355 . S
C944 C946 1.419 . S
C945 C940 1.425 . S
C945 C942 1.409 . S
C945 C943 1.415 . S
C946 H936 0.930 . S
C946 C944 1.419 . S
C946 C947 1.362 . S
C947 H937 0.930 . S
C947 C940 1.409 . S
C947 C946 1.362 . S
H948 C954 0.930 . S
H949 C957 0.930 . S
H950 C958 0.930 . S
H951 C959 0.930 . S
H952 C962 0.930 . S
H953 C963 0.930 . S
C954 H948 0.930 . S
C954 C955 1.355 . S
C954 C956 1.415 . S
C955 C954 1.355 . S
C955 C957 1.419 . S
C956 C954 1.415 . S
C956 C961 1.425 . S
C956 C963 1.409 . S
C957 H949 0.930 . S
C957 C955 1.419 . S
C957 C958 1.362 . S
C958 H950 0.930 . S
C958 C957 1.362 . S
C958 C961 1.409 . S
C959 H951 0.930 . S
C959 C960 1.355 . S
C959 C961 1.415 . S
C960 C959 1.355 . S
C960 C962 1.419 . S
C961 C956 1.425 . S
C961 C958 1.409 . S
C961 C959 1.415 . S
C962 H952 0.930 . S
C962 C960 1.419 . S
C962 C963 1.362 . S
C963 H953 0.930 . S
C963 C956 1.409 . S
C963 C962 1.362 . S
H964 C970 0.930 . S
H965 C973 0.930 . S
H966 C974 0.930 . S
H967 C975 0.930 . S
H968 C978 0.930 . S
H969 C979 0.930 . S
C970 H964 0.930 . S
C970 C971 1.355 . S
C970 C972 1.415 . S
C971 C970 1.355 . S
C971 C973 1.419 . S
C972 C970 1.415 . S
C972 C977 1.425 . S
C972 C979 1.409 . S
C973 H965 0.930 . S
C973 C971 1.419 . S
C973 C974 1.362 . S
C974 H966 0.930 . S
C974 C973 1.362 . S
C974 C977 1.409 . S
C975 H967 0.930 . S
C975 C976 1.355 . S
C975 C977 1.415 . S
C976 C975 1.355 . S
C976 C978 1.419 . S
C977 C972 1.425 . S
C977 C974 1.409 . S
C977 C975 1.415 . S
C978 H968 0.930 . S
C978 C976 1.419 . S
C978 C979 1.362 . S
C979 H969 0.930 . S
C979 C972 1.409 . S
C979 C978 1.362 . S
H980 C986 0.930 . S
H981 C989 0.930 . S
H982 C990 0.930 . S
H983 C991 0.930 . S
H984 C994 0.930 . S
H985 C995 0.930 . S
C986 H980 0.930 . S
C986 C987 1.355 . S
C986 C988 1.415 . S
C987 C986 1.355 . S
C987 C989 1.419 . S
C988 C986 1.415 . S
C988 C993 1.425 . S
C988 C995 1.409 . S
C989 H981 0.930 . S
C989 C987 1.419 . S
C989 C990 1.362 . S
C990 H982 0.930 . S
C990 C989 1.362 . S
C990 C993 1.409 . S
C991 H983 0.930 . S
C991 C992 1.355 . S
C991 C993 1.415 . S
C992 C991 1.355 . S
C992 C994 1.419 . S
C993 C988 1.425 . S
C993 C990 1.409 . S
C993 C991 1.415 . S
C994 H984 0.930 . S
C994 C992 1.419 . S
C994 C995 1.362 . S
C995 H985 0.930 . S
C995 C988 1.409 . S
C995 C994 1.362 . S
H996 C1002 0.930 . S
H997 C1005 0.930 . S
H998 C1006 0.930 . S
H999 C1007 0.930 . S
H1000 C1010 0.930 . S
H1001 C1011 0.930 . S
C1002 H996 0.930 . S
C1002 C1003 1.355 . S
C1002 C1004 1.415 . S
C1003 C1002 1.355 . S
C1003 C1005 1.419 . S
C1004 C1002 1.415 . S
C1004 C1009 1.425 . S
C1004 C1011 1.409 . S
C1005 H997 0.930 . S
C1005 C1003 1.419 . S
C1005 C1006 1.362 . S
C1006 H998 0.930 . S
C1006 C1005 1.362 . S
C1006 C1009 1.409 . S
C1007 H999 0.930 . S
C1007 C1008 1.355 . S
C1007 C1009 1.415 . S
C1008 C1007 1.355 . S
C1008 C1010 1.419 . S
C1009 C1004 1.425 . S
C1009 C1006 1.409 . S
C1009 C1007 1.415 . S
C1010 H1000 0.930 . S
C1010 C1008 1.419 . S
C1010 C1011 1.362 . S
C1011 H1001 0.930 . S
C1011 C1004 1.409 . S
C1011 C1010 1.362 . S
H1012 C1018 0.930 . S
H1013 C1021 0.930 . S
H1014 C1022 0.930 . S
H1015 C1023 0.930 . S
H1016 C1026 0.930 . S
H1017 C1027 0.930 . S
C1018 H1012 0.930 . S
C1018 C1019 1.355 . S
C1018 C1020 1.415 . S
C1019 C1018 1.355 . S
C1019 C1021 1.419 . S
C1020 C1018 1.415 . S
C1020 C1025 1.425 . S
C1020 C1027 1.409 1_565 S
C1021 H1013 0.930 . S
C1021 C1019 1.419 . S
C1021 C1022 1.362 . S
C1022 H1014 0.930 . S
C1022 C1021 1.362 . S
C1022 C1025 1.409 . S
C1023 H1015 0.930 . S
C1023 C1024 1.355 1_565 S
C1023 C1025 1.415 . S
C1024 C1023 1.355 1_545 S
C1024 C1026 1.419 . S
C1025 C1020 1.425 . S
C1025 C1022 1.409 . S
C1025 C1023 1.415 . S
C1026 H1016 0.930 . S
C1026 C1024 1.419 . S
C1026 C1027 1.362 . S
C1027 H1017 0.930 . S
C1027 C1020 1.409 1_545 S
C1027 C1026 1.362 . S
H1028 C1034 0.930 . S
H1029 C1037 0.930 . S
H1030 C1038 0.930 . S
H1031 C1039 0.930 . S
H1032 C1042 0.930 . S
H1033 C1043 0.930 . S
C1034 H1028 0.930 . S
C1034 C1035 1.355 . S
C1034 C1036 1.415 . S
C1035 C1034 1.355 . S
C1035 C1037 1.419 . S
C1036 C1034 1.415 . S
C1036 C1041 1.425 . S
C1036 C1043 1.409 1_455 S
C1037 H1029 0.930 . S
C1037 C1035 1.419 . S
C1037 C1038 1.362 . S
C1038 H1030 0.930 . S
C1038 C1037 1.362 . S
C1038 C1041 1.409 . S
C1039 H1031 0.930 . S
C1039 C1040 1.355 1_455 S
C1039 C1041 1.415 . S
C1040 C1039 1.355 1_655 S
C1040 C1042 1.419 . S
C1041 C1036 1.425 . S
C1041 C1038 1.409 . S
C1041 C1039 1.415 . S
C1042 H1032 0.930 . S
C1042 C1040 1.419 . S
C1042 C1043 1.362 . S
C1043 H1033 0.930 . S
C1043 C1036 1.409 1_655 S
C1043 C1042 1.362 . S
H1044 C1050 0.930 . S
H1045 C1053 0.930 . S
H1046 C1054 0.930 . S
H1047 C1055 0.930 . S
H1048 C1058 0.930 . S
H1049 C1059 0.930 . S
C1050 H1044 0.930 . S
C1050 C1051 1.355 . S
C1050 C1052 1.415 . S
C1051 C1050 1.355 . S
C1051 C1053 1.419 . S
C1052 C1050 1.415 . S
C1052 C1057 1.425 . S
C1052 C1059 1.409 . S
C1053 H1045 0.930 . S
C1053 C1051 1.419 . S
C1053 C1054 1.362 . S
C1054 H1046 0.930 . S
C1054 C1053 1.362 . S
C1054 C1057 1.409 . S
C1055 H1047 0.930 . S
C1055 C1056 1.355 . S
C1055 C1057 1.415 . S
C1056 C1055 1.355 . S
C1056 C1058 1.419 . S
C1057 C1052 1.425 . S
C1057 C1054 1.409 . S
C1057 C1055 1.415 . S
C1058 H1048 0.930 . S
C1058 C1056 1.419 . S
C1058 C1059 1.362 . S
C1059 H1049 0.930 . S
C1059 C1052 1.409 . S
C1059 C1058 1.362 . S
H1060 C1066 0.930 . S
H1061 C1069 0.930 . S
H1062 C1070 0.930 . S
H1063 C1071 0.930 . S
H1064 C1074 0.930 . S
H1065 C1075 0.930 . S
C1066 H1060 0.930 . S
C1066 C1067 1.355 . S
C1066 C1068 1.415 . S
C1067 C1066 1.355 . S
C1067 C1069 1.419 . S
C1068 C1066 1.415 . S
C1068 C1073 1.425 . S
C1068 C1075 1.409 . S
C1069 H1061 0.930 . S
C1069 C1067 1.419 . S
C1069 C1070 1.362 . S
C1070 H1062 0.930 . S
C1070 C1069 1.362 . S
C1070 C1073 1.409 . S
C1071 H1063 0.930 . S
C1071 C1072 1.355 . S
C1071 C1073 1.415 . S
C1072 C1071 1.355 . S
C1072 C1074 1.419 . S
C1073 C1068 1.425 . S
C1073 C1070 1.409 . S
C1073 C1071 1.415 . S
C1074 H1064 0.930 . S
C1074 C1072 1.419 . S
C1074 C1075 1.362 . S
C1075 H1065 0.930 . S
C1075 C1068 1.409 . S
C1075 C1074 1.362 . S
H1076 C1082 0.930 . S
H1077 C1085 0.930 . S
H1078 C1086 0.930 . S
H1079 C1087 0.930 . S
H1080 C1090 0.930 . S
H1081 C1091 0.930 . S
C1082 H1076 0.930 . S
C1082 C1083 1.355 . S
C1082 C1084 1.415 . S
C1083 C1082 1.355 . S
C1083 C1085 1.419 . S
C1084 C1082 1.415 . S
C1084 C1089 1.425 . S
C1084 C1091 1.409 . S
C1085 H1077 0.930 . S
C1085 C1083 1.419 . S
C1085 C1086 1.362 . S
C1086 H1078 0.930 . S
C1086 C1085 1.362 . S
C1086 C1089 1.409 . S
C1087 H1079 0.930 . S
C1087 C1088 1.355 . S
C1087 C1089 1.415 . S
C1088 C1087 1.355 . S
C1088 C1090 1.419 . S
C1089 C1084 1.425 . S
C1089 C1086 1.409 . S
C1089 C1087 1.415 . S
C1090 H1080 0.930 . S
C1090 C1088 1.419 . S
C1090 C1091 1.362 . S
C1091 H1081 0.930 . S
C1091 C1084 1.409 . S
C1091 C1090 1.362 . S
H1092 C1098 0.930 . S
H1093 C1101 0.930 . S
H1094 C1102 0.930 . S
H1095 C1103 0.930 . S
H1096 C1106 0.930 . S
H1097 C1107 0.930 . S
C1098 H1092 0.930 . S
C1098 C1099 1.355 . S
C1098 C1100 1.415 . S
C1099 C1098 1.355 . S
C1099 C1101 1.419 . S
C1100 C1098 1.415 . S
C1100 C1105 1.425 . S
C1100 C1107 1.409 . S
C1101 H1093 0.930 . S
C1101 C1099 1.419 . S
C1101 C1102 1.362 . S
C1102 H1094 0.930 . S
C1102 C1101 1.362 . S
C1102 C1105 1.409 . S
C1103 H1095 0.930 . S
C1103 C1104 1.355 . S
C1103 C1105 1.415 . S
C1104 C1103 1.355 . S
C1104 C1106 1.419 . S
C1105 C1100 1.425 . S
C1105 C1102 1.409 . S
C1105 C1103 1.415 . S
C1106 H1096 0.930 . S
C1106 C1104 1.419 . S
C1106 C1107 1.362 . S
C1107 H1097 0.930 . S
C1107 C1100 1.409 . S
C1107 C1106 1.362 . S
H1108 C1114 0.930 . S
H1109 C1117 0.930 . S
H1110 C1118 0.930 . S
H1111 C1119 0.930 . S
H1112 C1122 0.930 . S
H1113 C1123 0.930 . S
C1114 H1108 0.930 . S
C1114 C1115 1.355 . S
C1114 C1116 1.415 . S
C1115 C1114 1.355 . S
C1115 C1117 1.419 . S
C1116 C1114 1.415 . S
C1116 C1121 1.425 . S
C1116 C1123 1.409 . S
C1117 H1109 0.930 . S
C1117 C1115 1.419 . S
C1117 C1118 1.362 . S
C1118 H1110 0.930 . S
C1118 C1117 1.362 . S
C1118 C1121 1.409 . S
C1119 H1111 0.930 . S
C1119 C1120 1.355 . S
C1119 C1121 1.415 . S
C1120 C1119 1.355 . S
C1120 C1122 1.419 . S
C1121 C1116 1.425 . S
C1121 C1118 1.409 . S
C1121 C1119 1.415 . S
C1122 H1112 0.930 . S
C1122 C1120 1.419 . S
C1122 C1123 1.362 . S
C1123 H1113 0.930 . S
C1123 C1116 1.409 . S
C1123 C1122 1.362 . S
H1124 C1130 0.930 . S
H1125 C1133 0.930 . S
H1126 C1134 0.930 . S
H1127 C1135 0.930 . S
H1128 C1138 0.930 . S
H1129 C1139 0.930 . S
C1130 H1124 0.930 . S
C1130 C1131 1.355 . S
C1130 C1132 1.415 . S
C1131 C1130 1.355 . S
C1131 C1133 1.419 . S
C1132 C1130 1.415 . S
C1132 C1137 1.425 . S
C1132 C1139 1.409 . S
C1133 H1125 0.930 . S
C1133 C1131 1.419 . S
C1133 C1134 1.362 . S
C1134 H1126 0.930 . S
C1134 C1133 1.362 . S
C1134 C1137 1.409 . S
C1135 H1127 0.930 . S
C1135 C1136 1.355 . S
C1135 C1137 1.415 . S
C1136 C1135 1.355 . S
C1136 C1138 1.419 . S
C1137 C1132 1.425 . S
C1137 C1134 1.409 . S
C1137 C1135 1.415 . S
C1138 H1128 0.930 . S
C1138 C1136 1.419 . S
C1138 C1139 1.362 . S
C1139 H1129 0.930 . S
C1139 C1132 1.409 . S
C1139 C1138 1.362 . S
H1140 C1146 0.930 . S
H1141 C1149 0.930 . S
H1142 C1150 0.930 . S
H1143 C1151 0.930 . S
H1144 C1154 0.930 . S
H1145 C1155 0.930 . S
C1146 H1140 0.930 . S
C1146 C1147 1.355 . S
C1146 C1148 1.415 . S
C1147 C1146 1.355 . S
C1147 C1149 1.419 . S
C1148 C1146 1.415 . S
C1148 C1153 1.425 . S
C1148 C1155 1.409 . S
C1149 H1141 0.930 . S
C1149 C1147 1.419 . S
C1149 C1150 1.362 . S
C1150 H1142 0.930 . S
C1150 C1149 1.362 . S
C1150 C1153 1.409 . S
C1151 H1143 0.930 . S
C1151 C1152 1.355 . S
C1151 C1153 1.415 . S
C1152 C1151 1.355 . S
C1152 C1154 1.419 . S
C1153 C1148 1.425 . S
C1153 C1150 1.409 . S
C1153 C1151 1.415 . S
C1154 H1144 0.930 . S
C1154 C1152 1.419 . S
C1154 C1155 1.362 . S
C1155 H1145 0.930 . S
C1155 C1148 1.409 . S
C1155 C1154 1.362 . S
H1156 C1162 0.930 1_545 S
H1157 C1165 0.930 . S
H1158 C1166 0.930 . S
H1159 C1167 0.930 . S
H1160 C1170 0.930 . S
H1161 C1171 0.930 . S
C1162 H1156 0.930 1_565 S
C1162 C1163 1.355 . S
C1162 C1164 1.415 1_565 S
C1163 C1162 1.355 . S
C1163 C1165 1.419 . S
C1164 C1162 1.415 1_545 S
C1164 C1169 1.425 . S
C1164 C1171 1.409 . S
C1165 H1157 0.930 . S
C1165 C1163 1.419 . S
C1165 C1166 1.362 . S
C1166 H1158 0.930 . S
C1166 C1165 1.362 . S
C1166 C1169 1.409 1_565 S
C1167 H1159 0.930 . S
C1167 C1168 1.355 . S
C1167 C1169 1.415 . S
C1168 C1167 1.355 . S
C1168 C1170 1.419 . S
C1169 C1164 1.425 . S
C1169 C1166 1.409 1_545 S
C1169 C1167 1.415 . S
C1170 H1160 0.930 . S
C1170 C1168 1.419 . S
C1170 C1171 1.362 . S
C1171 H1161 0.930 . S
C1171 C1164 1.409 . S
C1171 C1170 1.362 . S
H1172 C1178 0.930 . S
H1173 C1181 0.930 . S
H1174 C1182 0.930 1_455 S
H1175 C1183 0.930 . S
H1176 C1186 0.930 . S
H1177 C1187 0.930 . S
C1178 H1172 0.930 . S
C1178 C1179 1.355 . S
C1178 C1180 1.415 . S
C1179 C1178 1.355 . S
C1179 C1181 1.419 . S
C1180 C1178 1.415 . S
C1180 C1185 1.425 1_655 S
C1180 C1187 1.409 . S
C1181 H1173 0.930 . S
C1181 C1179 1.419 . S
C1181 C1182 1.362 . S
C1182 H1174 0.930 1_655 S
C1182 C1181 1.362 . S
C1182 C1185 1.409 1_655 S
C1183 H1175 0.930 . S
C1183 C1184 1.355 . S
C1183 C1185 1.415 . S
C1184 C1183 1.355 . S
C1184 C1186 1.419 . S
C1185 C1180 1.425 1_455 S
C1185 C1182 1.409 1_455 S
C1185 C1183 1.415 . S
C1186 H1176 0.930 . S
C1186 C1184 1.419 . S
C1186 C1187 1.362 1_455 S
C1187 H1177 0.930 . S
C1187 C1180 1.409 . S
C1187 C1186 1.362 1_655 S
C763 C139 1.266 . S
C768 C58 1.039 . S
C779 C223 1.334 . S
C784 C142 1.187 . S
C795 C226 1.153 . S
C800 C55 1.291 . S
C811 C235 1.469 . S
C816 C154 1.209 . S
C827 C238 1.253 . S
C832 C67 1.515 . S
C843 C70 1.292 . S
C848 C151 1.536 . S
C859 C310 1.145 . S
C864 C391 1.322 . S
C875 C475 1.304 . S
C880 C394 1.102 . S
C891 C478 1.184 . S
C896 C307 1.334 . S
C907 C406 1.267 . S
C912 C487 1.523 . S
C923 C490 1.238 . S
C928 C319 1.475 . S
C939 C403 1.475 . S
C944 C322 1.204 . S
C955 C643 1.332 . S
C960 C562 1.197 . S
C971 C646 1.062 . S
C976 C727 1.281 . S
C987 C730 1.079 . S
C992 C559 1.292 . S
C1003 C739 1.528 . S
C1008 C658 1.276 . S
C1019 C742 1.274 . S
C1024 C571 1.490 . S
C1035 C574 1.234 . S
C1040 C655 1.473 . S
C1051 C476 2.383 . S
C1056 C68 2.590 . S
C1067 C308 2.378 . S
C1072 C152 2.583 . S
C1083 C236 2.597 . S
C1088 C392 2.416 . S
C1099 C224 2.413 . S
C1104 C572 2.559 . S
C1115 C56 2.400 . S
C1120 C656 2.561 . S
C1131 C740 2.586 . S
C1136 C140 2.442 . S
C1147 C320 2.573 . S
C1152 C728 2.446 . S
C1163 C404 2.574 . S
C1168 C560 2.446 . S
C1179 C644 2.426 . S
C1184 C488 2.560 . S
