# Generated by pormake.
# Topology qtz-e, (6)-cn, num edge types: 1
# Building blocks:
#     Node 0, Type 0, BuildingBlock: BETDAH_clean_sbu_0, # of connection points: 6
#     Node 1, Type 0, BuildingBlock: BETDAH_clean_sbu_0, # of connection points: 6
#     Node 2, Type 0, BuildingBlock: BETDAH_clean_sbu_0, # of connection points: 6
#     Node 3, Type 0, BuildingBlock: BETDAH_clean_sbu_0, # of connection points: 6
#     Node 4, Type 0, BuildingBlock: BETDAH_clean_sbu_0, # of connection points: 6
#     Node 5, Type 0, BuildingBlock: BETDAH_clean_sbu_0, # of connection points: 6
#     Edge 6, Type (0, 0), BuildingBlock: MIFKUJ_clean_linker_0, # of connection points: 2
#     Edge 7, Type (0, 0), BuildingBlock: MIFKUJ_clean_linker_0, # of connection points: 2
#     Edge 8, Type (0, 0), BuildingBlock: MIFKUJ_clean_linker_0, # of connection points: 2
#     Edge 9, Type (0, 0), BuildingBlock: MIFKUJ_clean_linker_0, # of connection points: 2
#     Edge 10, Type (0, 0), BuildingBlock: MIFKUJ_clean_linker_0, # of connection points: 2
#     Edge 11, Type (0, 0), BuildingBlock: MIFKUJ_clean_linker_0, # of connection points: 2
#     Edge 12, Type (0, 0), BuildingBlock: MIFKUJ_clean_linker_0, # of connection points: 2
#     Edge 13, Type (0, 0), BuildingBlock: MIFKUJ_clean_linker_0, # of connection points: 2
#     Edge 14, Type (0, 0), BuildingBlock: MIFKUJ_clean_linker_0, # of connection points: 2
#     Edge 15, Type (0, 0), BuildingBlock: MIFKUJ_clean_linker_0, # of connection points: 2
#     Edge 16, Type (0, 0), BuildingBlock: MIFKUJ_clean_linker_0, # of connection points: 2
#     Edge 17, Type (0, 0), BuildingBlock: MIFKUJ_clean_linker_0, # of connection points: 2
#     Edge 18, Type (0, 0), BuildingBlock: MIFKUJ_clean_linker_0, # of connection points: 2
#     Edge 19, Type (0, 0), BuildingBlock: MIFKUJ_clean_linker_0, # of connection points: 2
#     Edge 20, Type (0, 0), BuildingBlock: MIFKUJ_clean_linker_0, # of connection points: 2
#     Edge 21, Type (0, 0), BuildingBlock: MIFKUJ_clean_linker_0, # of connection points: 2
#     Edge 22, Type (0, 0), BuildingBlock: MIFKUJ_clean_linker_0, # of connection points: 2
#     Edge 23, Type (0, 0), BuildingBlock: MIFKUJ_clean_linker_0, # of connection points: 2
# Relax obj value: 0.107
# Max RMSD: 0.177
# Mean RMSD: 0.177
data_MOF--net-qtz-e--node1-BETDAH_clean_sbu_0--edge1-MIFKUJ_clean_linker_0
_symmetry_space_group_name_H-M    P1
_symmetry_Int_Tables_number       1
_symmetry_cell_setting            triclinic
loop_
_symmetry_equiv_pos_as_xyz
'x, y, z'
_cell_length_a     32.716716
_cell_length_b     32.760542
_cell_length_c     63.03585
_cell_angle_alpha  89.926533
_cell_angle_beta   90.077407
_cell_angle_gamma 119.96947
loop_
_atom_site_label
_atom_site_type_symbol
_atom_site_fract_x
_atom_site_fract_y
_atom_site_fract_z
_atom_type_partial_charge
Ho0 Ho 0.21808 0.45624 0.05338 0.0
Ho1 Ho 0.19491 0.35777 0.03929 0.0
C2 C 0.14851 0.36697 0.08151 0.0
C3 C 0.22855 0.5373 0.06288 0.0
C4 C 0.22933 0.55823 0.08367 0.0
C5 C 0.20392 0.52931 0.10083 0.0
C6 C 0.20701 0.54863 0.12091 0.0
C7 C 0.23635 0.59728 0.12444 0.0
C8 C 0.2616 0.62616 0.10712 0.0
C9 C 0.25801 0.60679 0.08693 0.0
C10 C 0.26418 0.42013 0.07522 0.0
C11 C 0.26013 0.44658 1.00841 0.0
C12 C 0.19649 0.28648 0.02278 0.0
C13 C 0.20764 0.27839 1.00085 0.0
C14 C 0.25419 0.29245 0.99476 0.0
C15 C 0.26471 0.28771 0.97367 0.0
C16 C 0.22894 0.26871 0.95817 0.0
C17 C 0.18236 0.25414 0.96436 0.0
C18 C 0.17182 0.25863 0.98541 0.0
C19 C 0.13208 0.38465 0.0285 0.0
O20 O 0.15548 0.40731 0.07339 0.0
O21 O 0.16786 0.34376 0.07283 0.0
O22 O 0.26422 0.53061 0.05927 0.0
O23 O 0.18788 0.50126 0.05717 0.0
O24 O 0.24774 0.44514 0.08337 0.0
O25 O 0.25606 0.41624 0.05555 0.0
O26 O 0.23842 0.40053 1.01155 0.0
O27 O 0.2573 0.47561 0.02218 0.0
O28 O 0.15802 0.28884 0.02488 0.0
O29 O 0.23127 0.31838 0.03418 0.0
O30 O 0.11958 0.34232 0.03479 0.0
O31 O 0.17602 0.4091 0.02808 0.0
H32 H 0.18188 0.49161 0.09875 0.0
H33 H 0.18629 0.52529 0.13366 0.0
H34 H 0.28511 0.66361 0.10923 0.0
H35 H 0.27841 0.6296 0.07397 0.0
H36 H 0.28264 0.30762 1.00623 0.0
H37 H 0.30088 0.29866 0.96957 0.0
H38 H 0.15397 0.24003 0.95286 0.0
H39 H 0.13554 0.24735 0.98947 0.0
Ho40 Ho 0.73682 0.23556 0.38471 0.0
Ho41 Ho 0.7859 0.18409 0.36571 0.0
C42 C 0.74691 0.15571 0.41284 0.0
C43 C 0.6746 0.24955 0.40318 0.0
C44 C 0.6563 0.24184 0.42508 0.0
C45 C 0.60819 0.21057 0.42871 0.0
C46 C 0.59065 0.19951 0.44938 0.0
C47 C 0.62084 0.21982 0.4669 0.0
C48 C 0.66895 0.25171 0.46319 0.0
C49 C 0.68655 0.26243 0.44251 0.0
C50 C 0.82997 0.28048 0.38997 0.0
C51 C 0.78046 0.26742 0.33903 0.0
C52 C 0.84088 0.16376 0.3444 0.0
C53 C 0.86519 0.17996 0.32364 0.0
C54 C 0.89478 0.2281 0.31914 0.0
C55 C 0.91582 0.24273 0.29915 0.0
C56 C 0.90763 0.20966 0.28307 0.0
C57 C 0.87792 0.16149 0.28767 0.0
C58 C 0.85713 0.14689 0.30771 0.0
C59 C 0.6922 0.14465 0.35956 0.0
O60 O 0.72648 0.18145 0.40966 0.0
O61 O 0.77572 0.15357 0.39863 0.0
O62 O 0.71829 0.2831 0.40013 0.0
O63 O 0.66412 0.21111 0.39273 0.0
O64 O 0.80549 0.30166 0.38867 0.0
O65 O 0.80353 0.23635 0.39103 0.0
O66 O 0.8043 0.24536 0.34324 0.0
O67 O 0.7462 0.26326 0.35159 0.0
O68 O 0.79486 0.13856 0.34359 0.0
O69 O 0.85565 0.19431 0.35995 0.0
O70 O 0.71232 0.12002 0.36385 0.0
O71 O 0.7226 0.18732 0.3586 0.0
H72 H 0.58429 0.19382 0.41551 0.0
H73 H 0.55358 0.17426 0.4516 0.0
H74 H 0.69311 0.26862 0.47626 0.0
H75 H 0.72393 0.28637 0.44024 0.0
H76 H 0.90155 0.25462 0.331 0.0
H77 H 0.93892 0.28004 0.29641 0.0
H78 H 0.87 0.13492 0.27568 0.0
H79 H 0.83417 0.10961 0.31068 0.0
Ho80 Ho 0.52147 0.72632 0.71473 0.0
Ho81 Ho 0.60863 0.82014 0.70453 0.0
C82 C 0.60701 0.78121 0.75 0.0
C83 C 0.46553 0.64349 0.73026 0.0
C84 C 0.45274 0.62729 0.75243 0.0
C85 C 0.43036 0.5792 0.75748 0.0
C86 C 0.41718 0.56402 0.77849 0.0
C87 C 0.42574 0.59669 0.79481 0.0
C88 C 0.44866 0.64493 0.78962 0.0
C89 C 0.46223 0.66006 0.76872 0.0
C90 C 0.51194 0.8016 0.72225 0.0
C91 C 0.52367 0.7665 0.66937 0.0
C92 C 0.66387 0.90236 0.68823 0.0
C93 C 0.67007 0.92099 0.66625 0.0
C94 C 0.67807 0.96669 0.66263 0.0
C95 C 0.68281 0.98421 0.64189 0.0
C96 C 0.67945 0.95631 0.62424 0.0
C97 C 0.67106 0.91036 0.62795 0.0
C98 C 0.66659 0.89299 0.64868 0.0
C99 C 0.61368 0.74204 0.69624 0.0
O100 O 0.57115 0.74149 0.74262 0.0
O101 O 0.62506 0.82085 0.739 0.0
O102 O 0.45118 0.67192 0.72343 0.0
O103 O 0.50917 0.65762 0.72478 0.0
O104 O 0.4788 0.76179 0.71502 0.0
O105 O 0.54846 0.79922 0.72639 0.0
O106 O 0.55884 0.80621 0.67701 0.0
O107 O 0.50604 0.72644 0.68006 0.0
O108 O 0.67682 0.87108 0.69179 0.0
O109 O 0.62374 0.89122 0.69739 0.0
O110 O 0.64836 0.77963 0.70456 0.0
O111 O 0.57971 0.74841 0.69272 0.0
H112 H 0.42257 0.55337 0.74515 0.0
H113 H 0.3993 0.52664 0.78189 0.0
H114 H 0.45633 0.67116 0.80172 0.0
H115 H 0.47977 0.69743 0.76523 0.0
H116 H 0.68045 0.98884 0.67587 0.0
H117 H 0.68851 0.01946 0.63968 0.0
H118 H 0.66858 0.88793 0.61483 0.0
H119 H 0.66009 0.85745 0.65095 0.0
Ho120 Ho 0.77827 0.54055 0.05266 0.0
Ho121 Ho 0.79601 0.63759 0.03876 0.0
C122 C 0.84389 0.62999 0.08099 0.0
C123 C 0.77635 0.46328 0.06201 0.0
C124 C 0.78291 0.44598 0.0827 0.0
C125 C 0.82247 0.47428 0.09548 0.0
C126 C 0.82594 0.4599 0.11596 0.0
C127 C 0.78974 0.41724 0.12419 0.0
C128 C 0.75066 0.38853 0.11129 0.0
C129 C 0.7474 0.40269 0.0907 0.0
C130 C 0.72913 0.57256 0.07478 0.0
C131 C 0.73079 0.54626 1.00884 0.0
C132 C 0.79139 0.70817 0.02296 0.0
C133 C 0.77612 0.71713 1.00212 0.0
C134 C 0.73032 0.6879 0.99419 0.0
C135 C 0.71788 0.69549 0.97387 0.0
C136 C 0.75102 0.73221 0.96089 0.0
C137 C 0.79669 0.76155 0.96902 0.0
C138 C 0.80893 0.75423 0.98938 0.0
C139 C 0.86127 0.61436 0.02745 0.0
O140 O 0.84026 0.59168 0.07219 0.0
O141 O 0.82255 0.6516 0.07257 0.0
O142 O 0.73794 0.4662 0.06021 0.0
O143 O 0.81368 0.49997 0.05404 0.0
O144 O 0.74735 0.54893 0.08282 0.0
O145 O 0.73702 0.57714 0.05508 0.0
O146 O 0.75129 0.59248 1.01154 0.0
O147 O 0.73567 0.51855 0.02267 0.0
O148 O 0.82942 0.70471 0.02251 0.0
O149 O 0.75904 0.67689 0.03555 0.0
O150 O 0.87239 0.65586 0.03446 0.0
O151 O 0.81747 0.58869 0.02711 0.0
H152 H 0.85021 0.50821 0.08994 0.0
H153 H 0.85616 0.48299 0.12563 0.0
H154 H 0.72241 0.35529 0.11721 0.0
H155 H 0.71649 0.38043 0.08123 0.0
H156 H 0.70418 0.65881 1.00355 0.0
H157 H 0.68216 0.67254 0.9684 0.0
H158 H 0.82355 0.78964 0.9595 0.0
H159 H 0.84457 0.77711 0.99503 0.0
Ho160 Ho 0.27402 0.80526 0.38156 0.0
Ho161 Ho 0.16928 0.76946 0.37249 0.0
C162 C 0.20564 0.81382 0.4172 0.0
C163 C 0.35853 0.85039 0.39695 0.0
C164 C 0.37456 0.85474 0.4192 0.0
C165 C 0.34645 0.85561 0.43582 0.0
C166 C 0.358 0.85335 0.45693 0.0
C167 C 0.39789 0.84972 0.46202 0.0
C168 C 0.42696 0.85034 0.44538 0.0
C169 C 0.41532 0.85277 0.42418 0.0
C170 C 0.2165 0.71348 0.38933 0.0
C171 C 0.23865 0.76297 0.33628 0.0
C172 C 0.08388 0.7229 0.358 0.0
C173 C 0.06484 0.71513 0.33617 0.0
C174 C 0.01954 0.67766 0.33163 0.0
C175 C 0.0015 0.67066 0.3109 0.0
C176 C 0.02832 0.70132 0.29436 0.0
C177 C 0.07388 0.73862 0.29905 0.0
C178 C 0.09203 0.74524 0.31966 0.0
C179 C 0.23005 0.86115 0.36372 0.0
O180 O 0.24777 0.83187 0.40834 0.0
O181 O 0.16752 0.78057 0.40758 0.0
O182 O 0.33998 0.80798 0.38904 0.0
O183 O 0.33413 0.87085 0.39209 0.0
O184 O 0.25906 0.73107 0.38231 0.0
O185 O 0.20705 0.74553 0.39342 0.0
O186 O 0.19566 0.7454 0.34443 0.0
O187 O 0.27643 0.79492 0.34661 0.0
O188 O 0.10324 0.76624 0.36495 0.0
O189 O 0.10901 0.70314 0.36267 0.0
O190 O 0.18838 0.84647 0.37152 0.0
O191 O 0.23567 0.8267 0.36036 0.0
H192 H 0.31508 0.85737 0.43258 0.0
H193 H 0.33537 0.85413 0.46926 0.0
H194 H 0.45768 0.84705 0.44867 0.0
H195 H 0.43726 0.85146 0.41164 0.0
H196 H -0.00194 0.65388 0.34412 0.0
H197 H 0.96621 0.64175 0.30792 0.0
H198 H 0.0958 0.76262 0.28678 0.0
H199 H 0.12734 0.77411 0.32274 0.0
Ho200 Ho 0.4458 0.21359 0.7223 0.0
Ho201 Ho 0.34593 0.15411 0.70335 0.0
C202 C 0.35261 0.20153 0.7477 0.0
C203 C 0.52142 0.27762 0.74092 0.0
C204 C 0.53422 0.2992 0.76228 0.0
C205 C 0.50949 0.31913 0.77188 0.0
C206 C 0.52269 0.33996 0.79196 0.0
C207 C 0.56065 0.34098 0.80291 0.0
C208 C 0.58495 0.32051 0.79339 0.0
C209 C 0.57199 0.30005 0.77324 0.0
C210 C 0.40246 0.12077 0.73043 0.0
C211 C 0.43904 0.1688 0.67714 0.0
C212 C 0.27252 0.08726 0.68474 0.0
C213 C 0.26495 0.06077 0.66471 0.0
C214 C 0.29471 0.04323 0.65871 0.0
C215 C 0.28762 0.01923 0.63946 0.0
C216 C 0.25091 0.0126 0.6257 0.0
C217 C 0.22118 0.03012 0.63178 0.0
C218 C 0.22807 0.05382 0.65109 0.0
C219 C 0.39043 0.24717 0.69532 0.0
O220 O 0.39875 0.2265 0.74432 0.0
O221 O 0.324 0.16622 0.73521 0.0
O222 O 0.51041 0.23347 0.73961 0.0
O223 O 0.49383 0.28695 0.72939 0.0
O224 O 0.44744 0.14708 0.72752 0.0
O225 O 0.38305 0.14557 0.73053 0.0
O226 O 0.39316 0.14258 0.6808 0.0
O227 O 0.46721 0.20381 0.68986 0.0
O228 O 0.2852 0.13183 0.68278 0.0
O229 O 0.29581 0.07988 0.69976 0.0
O230 O 0.3452 0.22232 0.69857 0.0
O231 O 0.40825 0.22105 0.69549 0.0
H232 H 0.47998 0.3186 0.76386 0.0
H233 H 0.50284 0.35473 0.79909 0.0
H234 H 0.61449 0.32095 0.80139 0.0
H235 H 0.59162 0.28495 0.76618 0.0
H236 H 0.32375 0.04837 0.66879 0.0
H237 H 0.31151 0.00673 0.63514 0.0
H238 H 0.19231 0.02525 0.62165 0.0
H239 H 0.2047 0.06701 0.65534 0.0
H240 H 0.3184 0.79682 0.31164 0.0
H241 H 0.32421 0.77295 0.27541 0.0
H242 H 0.17572 0.67009 0.27629 0.0
H243 H 0.16936 0.69407 0.31209 0.0
H244 H 0.30777 0.69096 0.25731 0.0
H245 H 0.12719 0.66473 0.23375 0.0
H246 H 0.07747 0.70037 0.24003 0.0
H247 H 0.20099 0.83463 0.2515 0.0
H248 H 0.25146 0.79956 0.24534 0.0
H249 H 0.23723 0.55741 0.16271 0.0
H250 H 0.24275 0.5893 0.19814 0.0
H251 H 0.25508 0.71601 0.17107 0.0
H252 H 0.24636 0.68301 0.13557 0.0
H253 H 0.19941 0.69248 0.20255 0.0
H254 H 0.35192 0.71023 0.19326 0.0
H255 H 0.41019 0.68579 0.18491 0.0
H256 H 0.35837 0.58677 0.23643 0.0
H257 H 0.29934 0.61017 0.24492 0.0
C258 C 0.28702 0.76907 0.30412 0.0
C259 C 0.24335 0.74771 0.31472 0.0
C260 C 0.29044 0.75538 0.28344 0.0
C261 C 0.25028 0.72022 0.27301 0.0
C262 C 0.20702 0.69796 0.28383 0.0
C263 C 0.2035 0.71168 0.30438 0.0
C264 C 0.25288 0.70717 0.25068 0.0
C265 C 0.28418 0.69129 0.24529 0.0
C266 C 0.22311 0.7088 0.23486 0.0
C267 C 0.19292 0.7296 0.23907 0.0
C268 C 0.14364 0.70179 0.23771 0.0
C269 C 0.11535 0.72185 0.24138 0.0
C270 C 0.13605 0.76979 0.24616 0.0
C271 C 0.18504 0.79755 0.24774 0.0
C272 C 0.21348 0.77757 0.24425 0.0
C273 C 0.2405 0.59184 0.16422 0.0
C274 C 0.24118 0.61748 0.14614 0.0
C275 C 0.24446 0.6104 0.18456 0.0
C276 C 0.25019 0.65549 0.18737 0.0
C277 C 0.25095 0.68124 0.16938 0.0
C278 C 0.24642 0.66246 0.14902 0.0
C279 C 0.25362 0.67504 0.20906 0.0
C280 C 0.22326 0.69213 0.21441 0.0
C281 C 0.28539 0.67576 0.22461 0.0
C282 C 0.32095 0.6617 0.21961 0.0
C283 C 0.35273 0.68302 0.20272 0.0
C284 C 0.38593 0.66938 0.19797 0.0
C285 C 0.38791 0.63468 0.2101 0.0
C286 C 0.35677 0.61362 0.22704 0.0
C287 C 0.32347 0.6271 0.23184 0.0
H288 H 0.41363 0.62417 0.2064 0.0
H289 H 0.11425 0.78561 0.24848 0.0
H290 H 0.52903 0.1893 0.66795 0.0
H291 H 0.56064 0.18662 0.63313 0.0
H292 H 0.42274 0.13511 0.60533 0.0
H293 H 0.39058 0.13452 0.64025 0.0
H294 H 0.4613 0.0988 0.58442 0.0
H295 H 0.51374 0.25714 0.60597 0.0
H296 H 0.55092 0.327 0.6292 0.0
H297 H 0.68355 0.33053 0.62433 0.0
H298 H 0.64697 0.26024 0.60129 0.0
H299 H 0.53592 0.20516 0.48195 0.0
H300 H 0.50605 0.18669 0.51824 0.0
H301 H 0.63397 0.19066 0.53832 0.0
H302 H 0.66358 0.2073 0.50188 0.0
H303 H 0.60383 0.24756 0.56287 0.0
H304 H 0.54296 0.08795 0.53643 0.0
H305 H 0.50036 0.02639 0.50948 0.0
H306 H 0.37615 0.03688 0.51928 0.0
H307 H 0.4179 0.09831 0.54641 0.0
C308 C 0.50543 0.1767 0.65443 0.0
C309 C 0.45754 0.16265 0.65676 0.0
C310 C 0.52351 0.17544 0.6345 0.0
C311 C 0.49447 0.16209 0.61637 0.0
C312 C 0.44608 0.14578 0.61894 0.0
C313 C 0.42772 0.14564 0.63895 0.0
C314 C 0.51481 0.16816 0.59467 0.0
C315 C 0.49237 0.13145 0.57979 0.0
C316 C 0.55531 0.21077 0.58834 0.0
C317 C 0.57749 0.25312 0.60212 0.0
C318 C 0.55076 0.27264 0.60997 0.0
C319 C 0.57173 0.31232 0.62309 0.0
C320 C 0.61953 0.33311 0.62829 0.0
C321 C 0.6465 0.31433 0.62032 0.0
C322 C 0.62568 0.27458 0.60724 0.0
C323 C 0.55746 0.20131 0.49395 0.0
C324 C 0.60227 0.20787 0.48894 0.0
C325 C 0.54038 0.19097 0.5147 0.0
C326 C 0.56782 0.18724 0.53086 0.0
C327 C 0.61241 0.19358 0.52601 0.0
C328 C 0.62936 0.20343 0.50521 0.0
C329 C 0.55045 0.1784 0.55298 0.0
C330 C 0.57329 0.21472 0.56779 0.0
C331 C 0.50944 0.13631 0.55895 0.0
C332 C 0.48351 0.09759 0.54351 0.0
C333 C 0.50646 0.07691 0.53293 0.0
C334 C 0.48245 0.042 0.51766 0.0
C335 C 0.43548 0.02749 0.51279 0.0
C336 C 0.41245 0.04795 0.52317 0.0
C337 C 0.43618 0.08261 0.53859 0.0
H338 H 0.41697 0.00052 0.50094 0.0
H339 H 0.6357 0.36383 0.63844 0.0
H340 H 0.28985 0.53345 0.99045 0.0
H341 H 0.32162 0.55941 0.9547 0.0
H342 H 0.31758 0.42739 0.94405 0.0
H343 H 0.28479 0.40079 0.97939 0.0
H344 H 0.39832 0.57409 0.93364 0.0
H345 H 0.28837 0.39072 0.89688 0.0
H346 H 0.21314 0.31796 0.90459 0.0
H347 H 0.15633 0.39969 0.93094 0.0
H348 H 0.2312 0.47287 0.9237 0.0
H349 H 0.43291 0.52862 0.81743 0.0
H350 H 0.40953 0.5044 0.85438 0.0
H351 H 0.36173 0.60492 0.85974 0.0
H352 H 0.38361 0.62838 0.82273 0.0
H353 H 0.30848 0.47341 0.87259 0.0
H354 H 0.4053 0.65401 0.89472 0.0
H355 H 0.48006 0.73015 0.89514 0.0
H356 H 0.55817 0.65727 0.90093 0.0
H357 H 0.48382 0.58084 0.90025 0.0
C358 C 0.29612 0.51012 0.98057 0.0
C359 C 0.2843 0.46486 0.98775 0.0
C360 C 0.3143 0.52501 0.96011 0.0
C361 C 0.32114 0.49503 0.94647 0.0
C362 C 0.31154 0.45076 0.95402 0.0
C363 C 0.29299 0.43569 0.97434 0.0
C364 C 0.33689 0.50936 0.92415 0.0
C365 C 0.37838 0.55215 0.92033 0.0
C366 C 0.31128 0.48079 0.90667 0.0
C367 C 0.2653 0.43716 0.90973 0.0
C368 C 0.25965 0.39315 0.90412 0.0
C369 C 0.21723 0.35188 0.90852 0.0
C370 C 0.18005 0.35421 0.91816 0.0
C371 C 0.18514 0.39789 0.92346 0.0
C372 C 0.22757 0.43926 0.91928 0.0
C373 C 0.41704 0.5453 0.8264 0.0
C374 C 0.41052 0.58078 0.81711 0.0
C375 C 0.40408 0.53168 0.84757 0.0
C376 C 0.38467 0.55343 0.85991 0.0
C377 C 0.37744 0.58827 0.85063 0.0
C378 C 0.38998 0.60163 0.82945 0.0
C379 C 0.36978 0.53832 0.88216 0.0
C380 C 0.32841 0.49517 0.88593 0.0
C381 C 0.39491 0.56695 0.89962 0.0
C382 C 0.43933 0.61201 0.89708 0.0
C383 C 0.43854 0.65437 0.8957 0.0
C384 C 0.48075 0.69752 0.89617 0.0
C385 C 0.52383 0.69857 0.89819 0.0
C386 C 0.52481 0.65644 0.89942 0.0
C387 C 0.4827 0.61323 0.89883 0.0
H388 H 0.55644 0.73201 0.89862 0.0
H389 H 0.14732 0.32214 0.92153 0.0
H390 H 0.72543 0.29807 0.32009 0.0
H391 H 0.73329 0.32956 0.28423 0.0
H392 H 0.86144 0.32473 0.2754 0.0
H393 H 0.85383 0.29292 0.31129 0.0
H394 H 0.86144 0.40908 0.25791 0.0
H395 H 0.77049 0.23857 0.25769 0.0
H396 H 0.70616 0.16158 0.2699 0.0
H397 H 0.60385 0.19954 0.25017 0.0
H398 H 0.66758 0.2772 0.23839 0.0
H399 H 0.86406 0.41846 0.1448 0.0
H400 H 0.86743 0.39765 0.18185 0.0
H401 H 0.72394 0.36651 0.19102 0.0
H402 H 0.72019 0.38631 0.15393 0.0
H403 H 0.73504 0.301 0.20867 0.0
H404 H 0.82057 0.46946 0.20948 0.0
H405 H 0.88159 0.54832 0.19758 0.0
H406 H 0.99006 0.51841 0.21641 0.0
H407 H 0.92961 0.43888 0.2281 0.0
C408 C 0.75579 0.30446 0.31071 0.0
C409 C 0.78877 0.29253 0.31851 0.0
C410 C 0.76017 0.32244 0.29021 0.0
C411 C 0.79776 0.32915 0.27715 0.0
C412 C 0.83224 0.31986 0.28526 0.0
C413 C 0.82764 0.30142 0.30573 0.0
C414 C 0.79839 0.34159 0.25448 0.0
C415 C 0.83423 0.38533 0.24703 0.0
C416 C 0.76222 0.31093 0.24048 0.0
C417 C 0.72386 0.26393 0.24738 0.0
C418 C 0.73429 0.23069 0.25617 0.0
C419 C 0.69791 0.1869 0.26302 0.0
C420 C 0.65091 0.17573 0.26093 0.0
C421 C 0.64022 0.20827 0.25191 0.0
C422 C 0.67647 0.25219 0.24515 0.0
C423 C 0.83332 0.40724 0.15477 0.0
C424 C 0.79181 0.40385 0.14649 0.0
C425 C 0.83531 0.39552 0.17595 0.0
C426 C 0.79611 0.38105 0.18934 0.0
C427 C 0.75459 0.37746 0.18101 0.0
C428 C 0.75243 0.38865 0.15981 0.0
C429 C 0.79784 0.36887 0.21195 0.0
C430 C 0.76243 0.32495 0.21944 0.0
C431 C 0.834 0.39976 0.226 0.0
C432 C 0.87051 0.44796 0.21945 0.0
C433 C 0.85742 0.47953 0.21096 0.0
C434 C 0.89191 0.52437 0.20423 0.0
C435 C 0.93966 0.53828 0.2061 0.0
C436 C 0.95304 0.5075 0.21487 0.0
C437 C 0.91867 0.46253 0.22157 0.0
H438 H 0.96629 0.57303 0.20088 0.0
H439 H 0.62278 0.1418 0.26622 0.0
H440 H 0.5754 0.82128 0.63681 0.0
H441 H 0.54798 0.83293 0.60271 0.0
H442 H 0.40511 0.72918 0.61933 0.0
H443 H 0.43322 0.71634 0.65363 0.0
H444 H 0.42138 0.72128 0.57862 0.0
H445 H 0.4449 0.84931 0.62295 0.0
H446 H 0.48898 0.91459 0.64807 0.0
H447 H 0.5972 0.98752 0.60152 0.0
H448 H 0.55396 0.92248 0.57613 0.0
H449 H 0.33389 0.79676 0.49274 0.0
H450 H 0.34954 0.7826 0.52906 0.0
H451 H 0.49899 0.87061 0.51847 0.0
H452 H 0.48365 0.8868 0.4823 0.0
H453 H 0.47011 0.88562 0.55799 0.0
H454 H 0.44946 0.75375 0.51509 0.0
H455 H 0.40588 0.6873 0.49047 0.0
H456 H 0.29147 0.62187 0.53488 0.0
H457 H 0.33414 0.6883 0.55966 0.0
C458 C 0.53819 0.80075 0.63319 0.0
C459 C 0.50637 0.76838 0.64795 0.0
C460 C 0.52246 0.8076 0.6137 0.0
C461 C 0.47425 0.78306 0.60868 0.0
C462 C 0.44244 0.74893 0.62298 0.0
C463 C 0.45845 0.74148 0.64249 0.0
C464 C 0.45769 0.79386 0.58858 0.0
C465 C 0.43136 0.75713 0.57428 0.0
C466 C 0.4711 0.84076 0.58276 0.0
C467 C 0.49634 0.88081 0.59769 0.0
C468 C 0.47816 0.87921 0.61807 0.0
C469 C 0.50299 0.91618 0.63235 0.0
C470 C 0.54593 0.95512 0.62639 0.0
C471 C 0.56394 0.95731 0.60609 0.0
C472 C 0.53923 0.92046 0.59173 0.0
C473 C 0.37011 0.81393 0.49819 0.0
C474 C 0.40755 0.84284 0.48448 0.0
C475 C 0.37896 0.80538 0.51894 0.0
C476 C 0.42542 0.82513 0.52639 0.0
C477 C 0.46284 0.85495 0.513 0.0
C478 C 0.45403 0.86376 0.49226 0.0
C479 C 0.4352 0.81329 0.54784 0.0
C480 C 0.45999 0.84983 0.56242 0.0
C481 C 0.42024 0.76627 0.55394 0.0
C482 C 0.39476 0.72621 0.53912 0.0
C483 C 0.41485 0.72536 0.51953 0.0
C484 C 0.39035 0.68768 0.50556 0.0
C485 C 0.34588 0.65045 0.51108 0.0
C486 C 0.32588 0.65076 0.53061 0.0
C487 C 0.35022 0.6884 0.54463 0.0
H488 H 0.32696 0.6213 0.50024 0.0
H489 H 0.56522 0.98362 0.63749 0.0
H490 H 0.68602 0.45362 0.9968 0.0
H491 H 0.65282 0.42092 0.96209 0.0
H492 H 0.68621 0.55882 0.94002 0.0
H493 H 0.71907 0.59196 0.97484 0.0
H494 H 0.59939 0.48852 0.92542 0.0
H495 H 0.75926 0.51799 0.92847 0.0
H496 H 0.82422 0.51176 0.94515 0.0
H497 H 0.74397 0.36104 0.93989 0.0
H498 H 0.6783 0.36632 0.92343 0.0
H499 H 0.57387 0.42665 0.8156 0.0
H500 H 0.59899 0.46359 0.85045 0.0
H501 H 0.60137 0.34057 0.87353 0.0
H502 H 0.5796 0.30529 0.83833 0.0
H503 H 0.67268 0.40871 0.8875 0.0
H504 H 0.50994 0.3764 0.88848 0.0
H505 H 0.43959 0.38011 0.87708 0.0
H506 H 0.52051 0.53112 0.87609 0.0
H507 H 0.59103 0.52847 0.88807 0.0
C508 C 0.68589 0.47704 0.98469 0.0
C509 C 0.70576 0.52557 0.98859 0.0
C510 C 0.667 0.45825 0.96481 0.0
C511 C 0.66787 0.48758 0.94834 0.0
C512 C 0.68544 0.5356 0.95246 0.0
C513 C 0.70431 0.55447 0.97239 0.0
C514 C 0.65266 0.46842 0.9266 0.0
C515 C 0.61563 0.47145 0.91696 0.0
C516 C 0.67344 0.44558 0.91576 0.0
C517 C 0.71372 0.44254 0.92486 0.0
C518 C 0.75543 0.48352 0.93092 0.0
C519 C 0.79236 0.48016 0.94034 0.0
C520 C 0.78811 0.43602 0.94365 0.0
C521 C 0.74715 0.39519 0.93735 0.0
C522 C 0.7101 0.39835 0.92794 0.0
C523 C 0.57963 0.40752 0.82818 0.0
C524 C 0.57474 0.36306 0.82424 0.0
C525 C 0.59351 0.42845 0.84823 0.0
C526 C 0.60132 0.4047 0.86498 0.0
C527 C 0.59585 0.35997 0.861 0.0
C528 C 0.5834 0.33972 0.84083 0.0
C529 C 0.61789 0.42715 0.88626 0.0
C530 C 0.65588 0.42538 0.89582 0.0
C531 C 0.59755 0.45068 0.89709 0.0
C532 C 0.55585 0.4522 0.88889 0.0
C533 C 0.51283 0.41036 0.88561 0.0
C534 C 0.47292 0.41226 0.87911 0.0
C535 C 0.47575 0.45572 0.87558 0.0
C536 C 0.51842 0.49746 0.87872 0.0
C537 C 0.55829 0.4958 0.88549 0.0
H538 H 0.44477 0.45702 0.87057 0.0
H539 H 0.81648 0.43341 0.95113 0.0
H540 H 0.32435 0.39582 0.05663 0.0
H541 H 0.40351 0.41801 0.06927 0.0
H542 H 0.3769 0.46937 0.12763 0.0
H543 H 0.2976 0.44679 0.11523 0.0
H544 H 0.45181 0.53781 0.10493 0.0
H545 H 0.40162 0.38478 0.13157 0.0
H546 H 0.36052 0.29796 0.13137 0.0
H547 H 0.44614 0.3008 0.0792 0.0
H548 H 0.48731 0.38763 0.07886 0.0
H549 H 0.69581 0.54362 0.11467 0.0
H550 H 0.61638 0.51993 0.12726 0.0
H551 H 0.5889 0.57302 0.06953 0.0
H552 H 0.66812 0.59637 0.05673 0.0
H553 H 0.54107 0.45217 0.10472 0.0
H554 H 0.50539 0.60265 0.07919 0.0
H555 H 0.54667 0.68947 0.07963 0.0
H556 H 0.63265 0.69175 0.13164 0.0
H557 H 0.59145 0.60493 0.13175 0.0
C558 C 0.33479 0.41024 0.07245 0.0
C559 C 0.30537 0.42048 0.08479 0.0
C560 C 0.37994 0.42286 0.07968 0.0
C561 C 0.39602 0.44572 0.09929 0.0
C562 C 0.36508 0.45195 0.11242 0.0
C563 C 0.31985 0.439 0.1053 0.0
C564 C 0.44688 0.46969 0.1043 0.0
C565 C 0.4714 0.51913 0.10522 0.0
C566 C 0.47204 0.44511 0.10504 0.0
C567 C 0.44746 0.39281 0.10515 0.0
C568 C 0.41148 0.36691 0.11995 0.0
C569 C 0.3882 0.31768 0.11995 0.0
C570 C 0.40068 0.29388 0.10527 0.0
C571 C 0.43653 0.31929 0.09058 0.0
C572 C 0.45991 0.36853 0.0905 0.0
C573 C 0.67329 0.55147 0.10492 0.0
C574 C 0.68756 0.5709 0.08454 0.0
C575 C 0.62799 0.53789 0.11215 0.0
C576 C 0.59681 0.5444 0.09925 0.0
C577 C 0.61264 0.56798 0.07977 0.0
C578 C 0.65782 0.58123 0.07245 0.0
C579 C 0.54601 0.5203 0.10434 0.0
C580 C 0.52149 0.47084 0.10511 0.0
C581 C 0.52083 0.54487 0.1052 0.0
C582 C 0.5454 0.59718 0.10541 0.0
C583 C 0.53288 0.62162 0.09083 0.0
C584 C 0.55633 0.67087 0.09095 0.0
C585 C 0.59231 0.69611 0.10563 0.0
C586 C 0.60486 0.67216 0.12024 0.0
C587 C 0.58151 0.62292 0.12019 0.0
H588 H 0.61044 0.73423 0.10569 0.0
H589 H 0.38261 0.25576 0.1053 0.0
H590 H 0.22849 0.64366 0.37374 0.0
H591 H 0.17516 0.55882 0.3771 0.0
H592 H 0.08078 0.58422 0.41524 0.0
H593 H 0.13372 0.66973 0.41152 0.0
H594 H 0.10649 0.50473 0.42818 0.0
H595 H 0.04469 0.5657 0.37238 0.0
H596 H 0.05711 0.61284 0.34 0.0
H597 H 0.10537 0.53028 0.30698 0.0
H598 H 0.09383 0.48303 0.33933 0.0
H599 H 0.86979 0.33772 0.42326 0.0
H600 H 0.95244 0.39828 0.42637 0.0
H601 H 0.98513 0.34343 0.37064 0.0
H602 H 0.90169 0.28321 0.3674 0.0
H603 H 0.0063 0.43071 0.3648 0.0
H604 H 0.04387 0.35414 0.41759 0.0
H605 H 0.03484 0.30766 0.44979 0.0
H606 H 0.03669 0.41652 0.48833 0.0
H607 H 0.04494 0.46339 0.45636 0.0
C608 C 0.19657 0.63117 0.38301 0.0
C609 C 0.18485 0.66289 0.39232 0.0
C610 C 0.16646 0.58286 0.385 0.0
C611 C 0.12463 0.56575 0.39656 0.0
C612 C 0.11342 0.59723 0.40648 0.0
C613 C 0.14325 0.64576 0.40419 0.0
C614 C 0.09018 0.51518 0.39628 0.0
C615 C 0.08425 0.48819 0.41446 0.0
C616 C 0.06336 0.49384 0.37791 0.0
C617 C 0.06894 0.52124 0.35831 0.0
C618 C 0.05827 0.55783 0.35826 0.0
C619 C 0.0651 0.58454 0.33992 0.0
C620 C 0.08221 0.57471 0.32147 0.0
C621 C 0.09223 0.53793 0.3213 0.0
C622 C 0.08551 0.51115 0.33962 0.0
C623 C 0.8951 0.33744 0.41228 0.0
C624 C 0.88001 0.30585 0.39525 0.0
C625 C 0.94237 0.37181 0.41411 0.0
C626 C 0.97506 0.37522 0.39879 0.0
C627 C 0.96052 0.34107 0.38273 0.0
C628 C 0.91305 0.30645 0.38097 0.0
C629 C 0.02052 0.4197 0.39717 0.0
C630 C 0.02901 0.44618 0.37849 0.0
C631 C 0.04987 0.44024 0.41509 0.0
C632 C 0.0449 0.41229 0.43449 0.0
C633 C 0.04201 0.36807 0.43291 0.0
C634 C 0.03708 0.34165 0.45114 0.0
C635 C 0.03517 0.35911 0.47109 0.0
C636 C 0.03823 0.40306 0.47286 0.0
C637 C 0.04313 0.42963 0.45468 0.0
H638 H 0.03135 0.33859 0.48518 0.0
H639 H 0.08759 0.59552 0.3073 0.0
H640 H 0.36316 0.03511 0.71247 0.0
H641 H 0.35973 0.9659 0.72863 0.0
H642 H 0.40029 0.03763 0.78901 0.0
H643 H 0.40387 0.10725 0.77257 0.0
H644 H 0.46485 0.01957 0.77496 0.0
H645 H 0.30343 0.92443 0.78726 0.0
H646 H 0.21782 0.88848 0.78136 0.0
H647 H 0.22783 0.81833 0.7258 0.0
H648 H 0.31354 0.85434 0.73112 0.0
H649 H 0.53828 0.84475 0.76104 0.0
H650 H 0.50376 0.88749 0.77877 0.0
H651 H 0.42384 0.87459 0.72206 0.0
H652 H 0.45669 0.83085 0.70488 0.0
H653 H 0.36835 0.85061 0.75627 0.0
H654 H 0.53007 0.97911 0.7369 0.0
H655 H 0.61675 0.01921 0.74054 0.0
H656 H 0.60429 0.02792 0.80799 0.0
H657 H 0.51749 0.9875 0.80471 0.0
C658 C 0.36877 0.03497 0.72942 0.0
C659 C 0.38365 0.07583 0.74139 0.0
C660 C 0.36658 -0.00463 0.73874 0.0
C661 C 0.37974 -0.00347 0.7601 0.0
C662 C 0.38972 0.03589 0.77258 0.0
C663 C 0.39171 0.07549 0.76322 0.0
C664 C 0.39505 0.96311 0.76702 0.0
C665 C 0.44321 0.98218 0.7717 0.0
C666 C 0.36693 0.91435 0.76301 0.0
C667 C 0.31511 0.89201 0.7597 0.0
C668 C 0.28746 0.90145 0.77374 0.0
C669 C 0.23886 0.88105 0.77049 0.0
C670 C 0.21739 0.85107 0.75324 0.0
C671 C 0.24448 0.84142 0.73921 0.0
C672 C 0.29309 0.86171 0.74238 0.0
C673 C 0.51406 0.8521 0.75236 0.0
C674 C 0.50017 0.83515 0.73163 0.0
C675 C 0.49404 0.87594 0.76252 0.0
C676 C 0.46071 0.88357 0.75182 0.0
C677 C 0.44872 0.86825 0.73078 0.0
C678 C 0.46797 0.84395 0.72085 0.0
C679 C 0.43852 0.90859 0.7617 0.0
C680 C 0.38916 0.8875 0.76059 0.0
C681 C 0.4655 0.95564 0.76871 0.0
C682 C 0.51749 0.97982 0.7706 0.0
C683 C 0.54589 0.98935 0.7525 0.0
C684 C 0.59499 0.01216 0.7545 0.0
C685 C 0.61601 0.02595 0.77449 0.0
C686 C 0.58796 0.0171 0.79252 0.0
C687 C 0.53885 -0.00575 0.79061 0.0
H688 H 0.65402 0.04361 0.776 0.0
H689 H 0.17977 0.83536 0.75074 0.0
H690 H 0.64933 0.70258 0.72363 0.0
H691 H 0.62554 0.61834 0.72532 0.0
H692 H 0.54077 0.5925 0.66904 0.0
H693 H 0.56385 0.67558 0.66749 0.0
H694 H 0.53055 0.54547 0.72947 0.0
H695 H 0.54303 0.50825 0.64027 0.0
H696 H 0.59579 0.54711 0.60987 0.0
H697 H 0.71172 0.62572 0.6524 0.0
H698 H 0.65985 0.58684 0.68305 0.0
H699 H 0.36126 0.31085 0.70314 0.0
H700 H 0.41104 0.39681 0.7049 0.0
H701 H 0.5335 0.3847 0.69023 0.0
H702 H 0.48352 0.29976 0.68685 0.0
H703 H 0.53985 0.45229 0.66961 0.0
H704 H 0.50568 0.40941 0.74387 0.0
H705 H 0.45366 0.37215 0.7748 0.0
H706 H 0.38566 0.45311 0.76357 0.0
H707 H 0.43711 0.49094 0.73264 0.0
C708 C 0.62685 0.67893 0.71132 0.0
C709 C 0.60862 0.69513 0.69532 0.0
C710 C 0.61297 0.63101 0.7124 0.0
C711 C 0.58168 0.59947 0.69722 0.0
C712 C 0.56543 0.61638 0.68072 0.0
C713 C 0.57863 0.66376 0.67984 0.0
C714 C 0.5622 0.54815 0.69919 0.0
C715 C 0.53319 0.5249 0.71662 0.0
C716 C 0.56577 0.52168 0.68238 0.0
C717 C 0.59743 0.54473 0.66398 0.0
C718 C 0.57984 0.53358 0.64314 0.0
C719 C 0.60959 0.55568 0.62586 0.0
C720 C 0.65706 0.58892 0.6292 0.0
C721 C 0.67491 0.60006 0.64983 0.0
C722 C 0.64533 0.57805 0.66717 0.0
C723 C 0.39874 0.3268 0.70009 0.0
C724 C 0.41877 0.29885 0.69516 0.0
C725 C 0.42729 0.37577 0.70143 0.0
C726 C 0.47635 0.39722 0.69835 0.0
C727 C 0.49591 0.36911 0.69289 0.0
C728 C 0.46731 0.32052 0.69102 0.0
C729 C 0.50727 0.44906 0.69979 0.0
C730 C 0.53811 0.47249 0.68285 0.0
C731 C 0.50575 0.47557 0.7172 0.0
C732 C 0.47524 0.45304 0.73595 0.0
C733 C 0.47962 0.41924 0.74799 0.0
C734 C 0.4503 0.39805 0.76552 0.0
C735 C 0.41652 0.41027 0.77113 0.0
C736 C 0.41203 0.44387 0.75928 0.0
C737 C 0.44134 0.46533 0.74182 0.0
H738 H 0.3938 0.39365 0.78466 0.0
H739 H 0.68001 0.60601 0.6158 0.0
H740 H 0.15794 0.47183 1.01443 0.0
H741 H 0.10983 0.50946 1.01287 0.0
H742 H 0.9884 0.38037 0.03365 0.0
H743 H 0.03709 0.34252 0.03601 0.0
H744 H 0.00598 0.46236 0.98999 0.0
H745 H 0.98582 0.41811 0.06785 0.0
H746 H 0.02307 0.41295 0.10108 0.0
H747 H 0.12855 0.55905 0.09553 0.0
H748 H 0.09264 0.56464 0.06197 0.0
H749 H 0.83902 0.53183 1.00923 0.0
H750 H 0.88652 0.49394 1.00771 0.0
H751 H 0.00309 0.61622 0.03664 0.0
H752 H 0.95429 0.65385 0.03903 0.0
H753 H -0.00901 0.53885 0.05516 0.0
H754 H 0.00219 0.58987 0.9838 0.0
H755 H 0.97473 0.60109 0.94901 0.0
H756 H 0.8983 0.45143 0.93923 0.0
H757 H 0.92399 0.43913 0.97426 0.0
C758 C 0.12095 0.45136 0.01865 0.0
C759 C 0.10115 0.40455 0.02562 0.0
C760 C 0.09365 0.47288 0.01769 0.0
C761 C 0.04609 0.4477 0.02342 0.0
C762 C 0.02542 0.40025 0.02945 0.0
C763 C 0.05301 0.37873 0.03068 0.0
C764 C 0.01896 0.47222 0.02354 0.0
C765 C 0.00155 0.47831 1.00424 0.0
C766 C 0.01597 0.49485 0.04199 0.0
C767 C 0.03685 0.49166 0.06235 0.0
C768 C 0.0172 0.44898 0.07363 0.0
C769 C 0.03802 0.44598 0.09253 0.0
C770 C 0.07814 0.48561 0.1004 0.0
C771 C 0.09753 0.52834 0.0894 0.0
C772 C 0.077 0.53143 0.07043 0.0
C773 C 0.87496 0.5509 1.0151 0.0
C774 C 0.89314 0.59561 0.02433 0.0
C775 C 0.90214 0.52928 1.01411 0.0
C776 C 0.94849 0.55246 0.02184 0.0
C777 C 0.96734 0.59784 0.03056 0.0
C778 C 0.93975 0.61942 0.03177 0.0
C779 C 0.97596 0.52787 0.0216 0.0
C780 C -0.00562 0.52241 0.04085 0.0
C781 C 0.98038 0.5063 1.00293 0.0
C782 C 0.9647 0.51356 0.98181 0.0
C783 C 0.97907 0.55928 0.97436 0.0
C784 C 0.96378 0.56584 0.95459 0.0
C785 C 0.93456 0.52698 0.94197 0.0
C786 C 0.92071 0.48149 0.94907 0.0
C787 C 0.93558 0.4747 0.9689 0.0
H788 H 0.92277 0.53212 0.92666 0.0
H789 H 0.09416 0.48322 0.11503 0.0
H790 H 0.31417 0.89153 0.34555 0.0
H791 H 0.38534 0.96675 0.35042 0.0
H792 H 0.30772 0.01716 0.38676 0.0
H793 H 0.23572 0.93943 0.38301 0.0
H794 H 0.39682 0.06312 0.34045 0.0
H795 H 0.36076 0.05028 0.41514 0.0
H796 H 0.33038 0.01213 0.4498 0.0
H797 H 0.42021 0.95162 0.44723 0.0
H798 H 0.44787 0.98575 0.4118 0.0
H799 H 0.64948 0.19314 0.34717 0.0
H800 H 0.56728 0.17148 0.35247 0.0
H801 H 0.53776 0.03638 0.37718 0.0
H802 H 0.62104 0.05946 0.37323 0.0
H803 H 0.49717 0.07083 0.40098 0.0
H804 H 0.51034 0.05697 0.32406 0.0
H805 H 0.54199 0.08802 0.28846 0.0
H806 H 0.49877 0.19149 0.2947 0.0
H807 H 0.46729 0.16131 0.33046 0.0
C808 C 0.31202 0.91851 0.35458 0.0
C809 C 0.26977 0.90959 0.36418 0.0
C810 C 0.35273 0.9615 0.35736 0.0
C811 C 0.352 -0.00298 0.36939 0.0
C812 C 0.30923 0.9896 0.37798 0.0
C813 C 0.26813 0.94565 0.37554 0.0
C814 C 0.39745 0.04064 0.37248 0.0
C815 C 0.4188 0.06656 0.35402 0.0
C816 C 0.4259 0.04459 0.39013 0.0
C817 C 0.40563 0.0199 0.41051 0.0
C818 C 0.3726 0.02729 0.42156 0.0
C819 C 0.35587 0.00635 0.44139 0.0
C820 C 0.37285 0.9789 0.4506 0.0
C821 C 0.40629 0.97203 0.43992 0.0
C822 C 0.42216 0.99181 0.41987 0.0
C823 C 0.62533 0.15872 0.35369 0.0
C824 C 0.64144 0.12803 0.36004 0.0
C825 C 0.57838 0.14642 0.35666 0.0
C826 C 0.54632 0.10237 0.36523 0.0
C827 C 0.56209 0.07088 0.37079 0.0
C828 C 0.6094 0.08368 0.36828 0.0
C829 C 0.49605 0.08811 0.36814 0.0
C830 C 0.47506 0.06914 0.38778 0.0
C831 C 0.46779 0.08899 0.35134 0.0
C832 C 0.48712 0.10737 0.32999 0.0
C833 C 0.50798 0.08661 0.3179 0.0
C834 C 0.52582 0.10399 0.2977 0.0
C835 C 0.52252 0.14179 0.28936 0.0
C836 C 0.5014 0.1623 0.30121 0.0
C837 C 0.48357 0.14508 0.32143 0.0
H838 H 0.53607 0.15502 0.27369 0.0
H839 H 0.36052 0.96334 0.4661 0.0
H840 H 0.39392 0.2822 0.77106 0.0
H841 H 0.36861 0.29617 0.80532 0.0
H842 H 0.24424 0.15834 0.80281 0.0
H843 H 0.26913 0.14437 0.7682 0.0
H844 H 0.2254 0.2243 0.82007 0.0
H845 H 0.33986 0.17417 0.82996 0.0
H846 H 0.41629 0.17819 0.82393 0.0
H847 H 0.4889 0.31879 0.84915 0.0
H848 H 0.41316 0.31599 0.85449 0.0
H849 H 0.17668 0.19621 0.93064 0.0
H850 H 0.19385 0.18864 0.89371 0.0
H851 H 0.32315 0.32219 0.89752 0.0
H852 H 0.306 0.33031 0.93454 0.0
H853 H 0.33845 0.25863 0.87916 0.0
H854 H 0.22713 0.31296 0.86516 0.0
H855 H 0.15207 0.31282 0.86979 0.0
H856 H 0.07457 0.1666 0.85245 0.0
H857 H 0.14923 0.16602 0.84776 0.0
C858 C 0.36099 0.25497 0.77768 0.0
C859 C 0.33391 0.21186 0.76708 0.0
C860 C 0.34654 0.26302 0.79728 0.0
C861 C 0.30505 0.22787 0.80684 0.0
C862 C 0.27652 0.18582 0.79576 0.0
C863 C 0.2908 0.17788 0.776 0.0
C864 C 0.29325 0.23394 0.82892 0.0
C865 C 0.24986 0.23124 0.83303 0.0
C866 C 0.32545 0.2438 0.84579 0.0
C867 C 0.37094 0.245 0.84264 0.0
C868 C 0.37222 0.20604 0.83406 0.0
C869 C 0.41545 0.20812 0.83068 0.0
C870 C 0.45756 0.24875 0.83605 0.0
C871 C 0.45649 0.28735 0.84484 0.0
C872 C 0.41342 0.28556 0.84806 0.0
C873 C 0.20848 0.22437 0.92359 0.0
C874 C 0.23987 0.26395 0.93564 0.0
C875 C 0.21819 0.22002 0.90239 0.0
C876 C 0.2594 0.25519 0.89266 0.0
C877 C 0.29106 0.29458 0.90466 0.0
C878 C 0.28139 0.29899 0.9259 0.0
C879 C 0.2707 0.24947 0.87037 0.0
C880 C 0.31397 0.25185 0.86622 0.0
C881 C 0.2384 0.23932 0.85348 0.0
C882 C 0.19356 0.23931 0.85644 0.0
C883 C 0.194 0.28073 0.86254 0.0
C884 C 0.15159 0.28082 0.86509 0.0
C885 C 0.10858 0.23965 0.86154 0.0
C886 C 0.1079 0.19841 0.85527 0.0
C887 C 0.15023 0.19822 0.85261 0.0
H888 H 0.07579 0.23977 0.86357 0.0
H889 H 0.49093 0.25021 0.83344 0.0
H890 H 0.94151 0.166 0.257 0.0
H891 H 0.97826 0.19139 0.22227 0.0
H892 H 0.9643 0.31531 0.22614 0.0
H893 H 0.92469 0.28861 0.26037 0.0
H894 H 0.94554 0.28335 0.18756 0.0
H895 H 0.07165 0.31775 0.23568 0.0
H896 H 0.11444 0.30153 0.26363 0.0
H897 H 0.11923 0.19747 0.22402 0.0
H898 H 0.0759 0.21263 0.19593 0.0
H899 H 0.11152 0.41009 0.10565 0.0
H900 H 0.0687 0.38316 0.13902 0.0
H901 H 0.077 0.25597 0.13547 0.0
H902 H 0.12135 0.2835 0.10229 0.0
H903 H 0.09845 0.29092 0.1739 0.0
H904 H 0.97309 0.26129 0.12485 0.0
H905 H 0.93349 0.28286 0.09737 0.0
H906 H 0.93068 0.38438 0.13946 0.0
H907 H 0.97105 0.36405 0.16706 0.0
C908 C 0.94552 0.19832 0.25041 0.0
C909 C 0.93017 0.22527 0.26171 0.0
C910 C 0.96723 0.21318 0.23058 0.0
C911 C 0.97507 0.25585 0.22165 0.0
C912 C 0.95905 0.28244 0.23268 0.0
C913 C 0.93685 0.26734 0.25243 0.0
C914 C 0.00018 0.27276 0.20093 0.0
C915 C 0.97926 0.28553 0.18467 0.0
C916 C 0.04397 0.27516 0.19694 0.0
C917 C 0.07012 0.26601 0.21378 0.0
C918 C 0.08152 0.29116 0.23299 0.0
C919 C 0.10592 0.2822 0.24885 0.0
C920 C 0.11943 0.2484 0.24563 0.0
C921 C 0.10868 0.22359 0.22651 0.0
C922 C 0.08424 0.23238 0.2106 0.0
C923 C 0.10409 0.37624 0.11185 0.0
C924 C 0.11997 0.34897 0.10121 0.0
C925 C 0.07925 0.36072 0.13096 0.0
C926 C 0.06892 0.31714 0.13974 0.0
C927 C 0.08441 0.28968 0.12905 0.0
C928 C 0.10967 0.3054 0.11001 0.0
C929 C 0.04358 0.30096 0.16043 0.0
C930 C 0.06461 0.28852 0.17673 0.0
C931 C 0.00025 0.29954 0.16451 0.0
C932 C 0.97549 0.3114 0.14797 0.0
C933 C 0.96433 0.28844 0.1282 0.0
C934 C 0.94171 0.30043 0.11261 0.0
C935 C 0.92962 0.335 0.11666 0.0
C936 C 0.94007 0.35762 0.13633 0.0
C937 C 0.96282 0.34587 0.15196 0.0
H938 H 0.9122 0.34429 0.10455 0.0
H939 H 0.13833 0.24151 0.25792 0.0
H940 H 0.74312 0.04476 0.60972 0.0
H941 H 0.75249 0.07568 0.57361 0.0
H942 H 0.6384 0.94197 0.55237 0.0
H943 H 0.62895 0.91065 0.58847 0.0
H944 H 0.77492 0.04741 0.53679 0.0
H945 H 0.57713 0.96802 0.51327 0.0
H946 H 0.50122 0.94997 0.52945 0.0
H947 H 0.57457 0.04901 0.57932 0.0
H948 H 0.65088 0.06835 0.56333 0.0
H949 H 0.769 0.08803 0.42546 0.0
H950 H 0.75537 0.05003 0.46036 0.0
H951 H 0.69423 0.13222 0.48264 0.0
H952 H 0.70591 0.16855 0.44794 0.0
H953 H 0.64491 0.05075 0.49778 0.0
H954 H 0.81199 0.15787 0.49469 0.0
H955 H 0.89229 0.19236 0.4799 0.0
H956 H 0.88717 0.05944 0.48673 0.0
H957 H 0.80657 0.02403 0.50133 0.0
C958 C 0.71976 0.02194 0.59743 0.0
C959 C 0.68513 0.97519 0.60212 0.0
C960 C 0.72539 0.03962 0.57672 0.0
C961 C 0.69608 0.01131 0.56021 0.0
C962 C 0.66136 0.96465 0.56481 0.0
C963 C 0.65622 0.94668 0.58546 0.0
C964 C 0.70237 0.03049 0.53818 0.0
C965 C 0.74638 0.04786 0.52821 0.0
C966 C 0.66554 0.03206 0.52706 0.0
C967 C 0.61978 0.01897 0.53729 0.0
C968 C 0.57709 0.9857 0.52777 0.0
C969 C 0.534 0.97522 0.53692 0.0
C970 C 0.53312 -0.0022 0.55554 0.0
C971 C 0.57533 0.0312 0.565 0.0
C972 C 0.61851 0.0418 0.55596 0.0
C973 C 0.75251 0.09783 0.43779 0.0
C974 C 0.73868 0.13146 0.43377 0.0
C975 C 0.74491 0.07623 0.45783 0.0
C976 C 0.72418 0.08848 0.47442 0.0
C977 C 0.71004 0.12174 0.47026 0.0
C978 C 0.71698 0.14273 0.45028 0.0
C979 C 0.7175 0.06754 0.4962 0.0
C980 C 0.67333 0.0497 0.50617 0.0
C981 C 0.75465 0.06697 0.50758 0.0
C982 C 0.8031 0.08819 0.49888 0.0
C983 C 0.82789 0.13594 0.4929 0.0
C984 C 0.87346 0.15565 0.48457 0.0
C985 C 0.89476 0.12807 0.48232 0.0
C986 C 0.87059 0.08074 0.48845 0.0
C987 C 0.82498 0.06083 0.49676 0.0
H988 H 0.93004 0.14339 0.47587 0.0
H989 H 0.49976 0.9898 0.56253 0.0
H990 H 0.583 0.7041 0.77468 0.0
H991 H 0.61229 0.70087 0.80971 0.0
H992 H 0.70337 0.85174 0.80921 0.0
H993 H 0.67474 0.85531 0.77355 0.0
H994 H 0.74808 0.80653 0.82638 0.0
H995 H 0.60331 0.80714 0.8414 0.0
H996 H 0.51903 0.78213 0.83681 0.0
H997 H 0.48195 0.63842 0.8483 0.0
H998 H 0.56566 0.66253 0.85272 0.0
H999 H 0.78105 0.81595 0.93952 0.0
H1000 H 0.76169 0.82752 0.9034 0.0
H1001 H 0.67166 0.67748 0.8963 0.0
H1002 H 0.69222 0.66522 0.93208 0.0
H1003 H 0.62901 0.7279 0.8832 0.0
H1004 H 0.77566 0.73091 0.8722 0.0
H1005 H 0.85992 0.75815 0.87816 0.0
H1006 H 0.89595 0.89807 0.85908 0.0
H1007 H 0.81176 0.8718 0.85331 0.0
C1008 C 0.60931 0.73679 0.78189 0.0
C1009 C 0.62618 0.78009 0.77128 0.0
C1010 C 0.62597 0.73483 0.80204 0.0
C1011 C 0.65947 0.77612 0.81232 0.0
C1012 C 0.67738 0.81941 0.80163 0.0
C1013 C 0.66085 0.82141 0.78129 0.0
C1014 C 0.67437 0.77348 0.83441 0.0
C1015 C 0.72219 0.7901 0.83891 0.0
C1016 C 0.64073 0.75141 0.85072 0.0
C1017 C 0.59049 0.73659 0.84746 0.0
C1018 C 0.57702 0.77017 0.8428 0.0
C1019 C 0.52937 0.75616 0.84021 0.0
C1020 C 0.49503 0.7087 0.84223 0.0
C1021 C 0.50835 0.67508 0.84653 0.0
C1022 C 0.55589 0.68891 0.84918 0.0
C1023 C 0.75772 0.78521 0.93024 0.0
C1024 C 0.73839 0.73955 0.9389 0.0
C1025 C 0.74654 0.792 0.90956 0.0
C1026 C 0.71552 0.75338 0.89706 0.0
C1027 C 0.69569 0.70785 0.90565 0.0
C1028 C 0.70724 0.70095 0.92624 0.0
C1029 C 0.70265 0.76043 0.87523 0.0
C1030 C 0.65506 0.74463 0.87077 0.0
C1031 C 0.73674 0.78362 0.85909 0.0
C1032 C 0.78735 0.79951 0.86256 0.0
C1033 C 0.8015 0.7676 0.86947 0.0
C1034 C 0.84926 0.78283 0.87278 0.0
C1035 C 0.88326 0.82984 0.86907 0.0
C1036 C 0.86957 0.86169 0.86199 0.0
C1037 C 0.82183 0.84663 0.85869 0.0
H1038 H 0.92022 0.84157 0.87162 0.0
H1039 H 0.45814 0.6981 0.84057 0.0
H1040 H 0.9772 0.61857 0.27221 0.0
H1041 H 0.94796 0.60848 0.23571 0.0
H1042 H 0.0069 0.75859 0.22994 0.0
H1043 H 0.03524 0.76894 0.26653 0.0
H1044 H 0.88613 0.63373 0.21694 0.0
H1045 H 0.05152 0.7899 0.19595 0.0
H1046 H 0.1386 0.82914 0.196 0.0
H1047 H 0.13078 0.69555 0.18679 0.0
H1048 H 0.04379 0.65556 0.18747 0.0
H1049 H 0.82994 0.67863 0.11293 0.0
H1050 H 0.86232 0.69198 0.14909 0.0
H1051 H 0.94388 0.62644 0.13227 0.0
H1052 H 0.9115 0.61266 0.09636 0.0
H1053 H -0.00466 0.70614 0.15615 0.0
H1054 H 0.84904 0.56307 0.15906 0.0
H1055 H 0.7638 0.5108 0.1532 0.0
H1056 H 0.73375 0.59775 0.19379 0.0
H1057 H 0.819 0.65086 0.19972 0.0
C1058 C 0.98371 0.64945 0.26323 0.0
C1059 C 0.00913 0.69467 0.2723 0.0
C1060 C 0.96734 0.64364 0.24225 0.0
C1061 C 0.97645 0.68287 0.22978 0.0
C1062 C 0.00079 0.7279 0.23894 0.0
C1063 C 0.01681 0.73373 0.25994 0.0
C1064 C 0.95883 0.67668 0.20753 0.0
C1065 C 0.91001 0.65007 0.2037 0.0
C1066 C 0.98972 0.69639 0.19004 0.0
C1067 C 0.04146 0.71978 0.19229 0.0
C1068 C 0.06851 0.76891 0.19444 0.0
C1069 C 0.1178 0.79128 0.19423 0.0
C1070 C 0.14025 0.76486 0.19143 0.0
C1071 C 0.11343 0.71598 0.18904 0.0
C1072 C 0.06418 0.6934 0.1896 0.0
C1073 C 0.85546 0.66793 0.11685 0.0
C1074 C 0.86828 0.64476 0.10177 0.0
C1075 C 0.87359 0.67516 0.13755 0.0
C1076 C 0.90525 0.65986 0.14343 0.0
C1077 C 0.91954 0.63854 0.12812 0.0
C1078 C 0.90098 0.63072 0.10758 0.0
C1079 C 0.92265 0.66483 0.16565 0.0
C1080 C 0.97134 0.69068 0.16944 0.0
C1081 C 0.89164 0.64322 0.18295 0.0
C1082 C 0.84038 0.61125 0.17964 0.0
C1083 C 0.82427 0.57127 0.1666 0.0
C1084 C 0.77595 0.54143 0.16329 0.0
C1085 C 0.74337 0.55107 0.17304 0.0
C1086 C 0.75905 0.59041 0.18621 0.0
C1087 C 0.80736 0.62035 0.18958 0.0
H1088 H 0.70596 0.52799 0.17043 0.0
H1089 H 0.17838 0.78222 0.19118 0.0
H1090 H 0.25304 0.93143 0.61713 0.0
H1091 H 0.24145 0.89195 0.58279 0.0
H1092 H 0.22288 0.00018 0.55294 0.0
H1093 H 0.2336 0.03913 0.58715 0.0
H1094 H 0.15884 0.9179 0.53886 0.0
H1095 H 0.32609 0.99233 0.55364 0.0
H1096 H 0.39813 0.00628 0.57233 0.0
H1097 H 0.36466 0.86423 0.55959 0.0
H1098 H 0.29144 0.84871 0.54153 0.0
H1099 H 0.26916 0.89776 0.43443 0.0
H1100 H 0.2723 0.92513 0.47057 0.0
H1101 H 0.14069 0.79948 0.48475 0.0
H1102 H 0.13752 0.77107 0.44826 0.0
H1103 H 0.27722 0.8834 0.50756 0.0
H1104 H 0.08529 0.83554 0.52258 0.0
H1105 H 0.01516 0.82331 0.50255 0.0
H1106 H 0.10437 0.91789 0.45402 0.0
H1107 H 0.17495 0.93112 0.47389 0.0
C1108 C 0.24667 0.94686 0.60321 0.0
C1109 C 0.24417 0.98841 0.60489 0.0
C1110 C 0.24004 0.92424 0.58358 0.0
C1111 C 0.23161 0.94319 0.56516 0.0
C1112 C 0.22907 0.98463 0.56688 0.0
C1113 C 0.23517 0.00691 0.58648 0.0
C1114 C 0.22519 0.92027 0.54401 0.0
C1115 C 0.18469 0.91008 0.53216 0.0
C1116 C 0.25876 0.90973 0.53515 0.0
C1117 C 0.30259 0.9191 0.54649 0.0
C1118 C 0.33351 0.96374 0.55513 0.0
C1119 C 0.37469 0.97197 0.56559 0.0
C1120 C 0.38585 0.93612 0.56722 0.0
C1121 C 0.35587 0.89193 0.5584 0.0
C1122 C 0.31442 0.88336 0.54812 0.0
C1123 C 0.24083 0.87563 0.44519 0.0
C1124 C 0.2034 0.83176 0.43853 0.0
C1125 C 0.24281 0.89143 0.46589 0.0
C1126 C 0.20719 0.86417 0.48046 0.0
C1127 C 0.16868 0.82107 0.47375 0.0
C1128 C 0.16676 0.80497 0.4529 0.0
C1129 C 0.21122 0.88148 0.50262 0.0
C1130 C 0.25116 0.89055 0.51458 0.0
C1131 C 0.17743 0.89114 0.51161 0.0
C1132 C 0.13531 0.88379 0.4996 0.0
C1133 C 0.08989 0.85376 0.50765 0.0
C1134 C 0.05008 0.84667 0.49633 0.0
C1135 C 0.0553 0.86966 0.47698 0.0
C1136 C 0.10036 0.89993 0.46896 0.0
C1137 C 0.14027 0.90718 0.48023 0.0
H1138 H 0.02444 0.86411 0.46824 0.0
H1139 H 0.41771 0.94255 0.57531 0.0
loop_
_geom_bond_atom_site_label_1
_geom_bond_atom_site_label_2
_geom_bond_distance
_geom_bond_site_symmetry_2
_ccdc_geom_bond_type
Ho0 C3 2.811 . S
Ho0 O20 2.322 . S
Ho0 O22 2.378 . S
Ho0 O23 2.524 . S
Ho0 O24 2.381 . S
Ho0 O25 2.669 . S
Ho0 O27 2.346 . S
Ho0 O31 2.305 . S
Ho1 C12 2.811 1_554 S
Ho1 O21 2.346 . S
Ho1 O25 2.305 . S
Ho1 O26 2.322 1_554 S
Ho1 O28 2.378 1_554 S
Ho1 O29 2.524 1_554 S
Ho1 O30 2.381 . S
Ho1 O31 2.669 . S
C2 O20 1.259 . S
C2 O21 1.268 . S
C3 Ho0 2.811 . S
C3 C4 1.488 . S
C3 O22 1.215 . S
C3 O23 1.289 . S
C4 C3 1.488 . S
C4 C5 1.348 . S
C4 C9 1.413 . S
C5 C4 1.348 . S
C5 C6 1.442 . S
C5 H32 0.930 . S
C6 C5 1.442 . S
C6 C7 1.381 . S
C6 H33 0.931 . S
C7 C6 1.381 . S
C7 C8 1.321 . S
C8 C7 1.321 . S
C8 C9 1.403 . S
C8 H34 0.934 . S
C9 C4 1.413 . S
C9 C8 1.403 . S
C9 H35 0.930 . S
C10 O24 1.275 . S
C10 O25 1.256 . S
C11 O26 1.259 . S
C11 O27 1.268 1_556 S
C12 Ho1 2.811 1_556 S
C12 C13 1.488 . S
C12 O28 1.215 . S
C12 O29 1.289 . S
C13 C12 1.488 . S
C13 C14 1.348 . S
C13 C18 1.413 . S
C14 C13 1.348 . S
C14 C15 1.442 . S
C14 H36 0.930 . S
C15 C14 1.442 . S
C15 C16 1.381 . S
C15 H37 0.931 . S
C16 C15 1.381 . S
C16 C17 1.321 . S
C17 C16 1.321 . S
C17 C18 1.403 . S
C17 H38 0.934 . S
C18 C13 1.413 . S
C18 C17 1.403 . S
C18 H39 0.930 . S
C19 O30 1.275 . S
C19 O31 1.256 . S
O20 Ho0 2.322 . S
O20 C2 1.259 . S
O21 Ho1 2.346 . S
O21 C2 1.268 . S
O22 Ho0 2.378 . S
O22 C3 1.215 . S
O23 Ho0 2.524 . S
O23 C3 1.289 . S
O24 Ho0 2.381 . S
O24 C10 1.275 . S
O25 Ho0 2.669 . S
O25 Ho1 2.305 . S
O25 C10 1.256 . S
O26 Ho1 2.322 1_556 S
O26 C11 1.259 . S
O27 Ho0 2.346 . S
O27 C11 1.268 1_554 S
O28 Ho1 2.378 1_556 S
O28 C12 1.215 . S
O29 Ho1 2.524 1_556 S
O29 C12 1.289 . S
O30 Ho1 2.381 . S
O30 C19 1.275 . S
O31 Ho0 2.305 . S
O31 Ho1 2.669 . S
O31 C19 1.256 . S
H32 C5 0.930 . S
H33 C6 0.931 . S
H34 C8 0.934 . S
H35 C9 0.930 . S
H36 C14 0.930 . S
H37 C15 0.931 . S
H38 C17 0.934 . S
H39 C18 0.930 . S
Ho40 C43 2.811 . S
Ho40 O60 2.322 . S
Ho40 O62 2.378 . S
Ho40 O63 2.524 . S
Ho40 O64 2.381 . S
Ho40 O65 2.669 . S
Ho40 O67 2.346 . S
Ho40 O71 2.305 . S
Ho41 C52 2.811 . S
Ho41 O61 2.346 . S
Ho41 O65 2.305 . S
Ho41 O66 2.322 . S
Ho41 O68 2.378 . S
Ho41 O69 2.524 . S
Ho41 O70 2.381 . S
Ho41 O71 2.669 . S
C42 O60 1.259 . S
C42 O61 1.268 . S
C43 Ho40 2.811 . S
C43 C44 1.488 . S
C43 O62 1.215 . S
C43 O63 1.289 . S
C44 C43 1.488 . S
C44 C45 1.348 . S
C44 C49 1.413 . S
C45 C44 1.348 . S
C45 C46 1.442 . S
C45 H72 0.930 . S
C46 C45 1.442 . S
C46 C47 1.381 . S
C46 H73 0.931 . S
C47 C46 1.381 . S
C47 C48 1.321 . S
C48 C47 1.321 . S
C48 C49 1.403 . S
C48 H74 0.934 . S
C49 C44 1.413 . S
C49 C48 1.403 . S
C49 H75 0.930 . S
C50 O64 1.275 . S
C50 O65 1.256 . S
C51 O66 1.259 . S
C51 O67 1.268 . S
C52 Ho41 2.811 . S
C52 C53 1.488 . S
C52 O68 1.215 . S
C52 O69 1.289 . S
C53 C52 1.488 . S
C53 C54 1.348 . S
C53 C58 1.413 . S
C54 C53 1.348 . S
C54 C55 1.442 . S
C54 H76 0.930 . S
C55 C54 1.442 . S
C55 C56 1.381 . S
C55 H77 0.931 . S
C56 C55 1.381 . S
C56 C57 1.321 . S
C57 C56 1.321 . S
C57 C58 1.403 . S
C57 H78 0.934 . S
C58 C53 1.413 . S
C58 C57 1.403 . S
C58 H79 0.930 . S
C59 O70 1.275 . S
C59 O71 1.256 . S
O60 Ho40 2.322 . S
O60 C42 1.259 . S
O61 Ho41 2.346 . S
O61 C42 1.268 . S
O62 Ho40 2.378 . S
O62 C43 1.215 . S
O63 Ho40 2.524 . S
O63 C43 1.289 . S
O64 Ho40 2.381 . S
O64 C50 1.275 . S
O65 Ho40 2.669 . S
O65 Ho41 2.305 . S
O65 C50 1.256 . S
O66 Ho41 2.322 . S
O66 C51 1.259 . S
O67 Ho40 2.346 . S
O67 C51 1.268 . S
O68 Ho41 2.378 . S
O68 C52 1.215 . S
O69 Ho41 2.524 . S
O69 C52 1.289 . S
O70 Ho41 2.381 . S
O70 C59 1.275 . S
O71 Ho40 2.305 . S
O71 Ho41 2.669 . S
O71 C59 1.256 . S
H72 C45 0.930 . S
H73 C46 0.931 . S
H74 C48 0.934 . S
H75 C49 0.930 . S
H76 C54 0.930 . S
H77 C55 0.931 . S
H78 C57 0.934 . S
H79 C58 0.930 . S
Ho80 C83 2.811 . S
Ho80 O100 2.322 . S
Ho80 O102 2.378 . S
Ho80 O103 2.524 . S
Ho80 O104 2.381 . S
Ho80 O105 2.669 . S
Ho80 O107 2.346 . S
Ho80 O111 2.305 . S
Ho81 C92 2.811 . S
Ho81 O101 2.346 . S
Ho81 O105 2.305 . S
Ho81 O106 2.322 . S
Ho81 O108 2.378 . S
Ho81 O109 2.524 . S
Ho81 O110 2.381 . S
Ho81 O111 2.669 . S
C82 O100 1.259 . S
C82 O101 1.268 . S
C83 Ho80 2.811 . S
C83 C84 1.488 . S
C83 O102 1.215 . S
C83 O103 1.289 . S
C84 C83 1.488 . S
C84 C85 1.348 . S
C84 C89 1.413 . S
C85 C84 1.348 . S
C85 C86 1.442 . S
C85 H112 0.930 . S
C86 C85 1.442 . S
C86 C87 1.381 . S
C86 H113 0.931 . S
C87 C86 1.381 . S
C87 C88 1.321 . S
C88 C87 1.321 . S
C88 C89 1.403 . S
C88 H114 0.934 . S
C89 C84 1.413 . S
C89 C88 1.403 . S
C89 H115 0.930 . S
C90 O104 1.275 . S
C90 O105 1.256 . S
C91 O106 1.259 . S
C91 O107 1.268 . S
C92 Ho81 2.811 . S
C92 C93 1.488 . S
C92 O108 1.215 . S
C92 O109 1.289 . S
C93 C92 1.488 . S
C93 C94 1.348 . S
C93 C98 1.413 . S
C94 C93 1.348 . S
C94 C95 1.442 . S
C94 H116 0.930 . S
C95 C94 1.442 . S
C95 C96 1.381 . S
C95 H117 0.931 . S
C96 C95 1.381 . S
C96 C97 1.321 . S
C97 C96 1.321 . S
C97 C98 1.403 . S
C97 H118 0.934 . S
C98 C93 1.413 . S
C98 C97 1.403 . S
C98 H119 0.930 . S
C99 O110 1.275 . S
C99 O111 1.256 . S
O100 Ho80 2.322 . S
O100 C82 1.259 . S
O101 Ho81 2.346 . S
O101 C82 1.268 . S
O102 Ho80 2.378 . S
O102 C83 1.215 . S
O103 Ho80 2.524 . S
O103 C83 1.289 . S
O104 Ho80 2.381 . S
O104 C90 1.275 . S
O105 Ho80 2.669 . S
O105 Ho81 2.305 . S
O105 C90 1.256 . S
O106 Ho81 2.322 . S
O106 C91 1.259 . S
O107 Ho80 2.346 . S
O107 C91 1.268 . S
O108 Ho81 2.378 . S
O108 C92 1.215 . S
O109 Ho81 2.524 . S
O109 C92 1.289 . S
O110 Ho81 2.381 . S
O110 C99 1.275 . S
O111 Ho80 2.305 . S
O111 Ho81 2.669 . S
O111 C99 1.256 . S
H112 C85 0.930 . S
H113 C86 0.931 . S
H114 C88 0.934 . S
H115 C89 0.930 . S
H116 C94 0.930 . S
H117 C95 0.931 . S
H118 C97 0.934 . S
H119 C98 0.930 . S
Ho120 C123 2.811 . S
Ho120 O140 2.322 . S
Ho120 O142 2.378 . S
Ho120 O143 2.524 . S
Ho120 O144 2.381 . S
Ho120 O145 2.669 . S
Ho120 O147 2.346 . S
Ho120 O151 2.305 . S
Ho121 C132 2.811 1_554 S
Ho121 O141 2.346 . S
Ho121 O145 2.305 . S
Ho121 O146 2.322 1_554 S
Ho121 O148 2.378 1_554 S
Ho121 O149 2.524 1_554 S
Ho121 O150 2.381 . S
Ho121 O151 2.669 . S
C122 O140 1.259 . S
C122 O141 1.268 . S
C123 Ho120 2.811 . S
C123 C124 1.488 . S
C123 O142 1.215 . S
C123 O143 1.289 . S
C124 C123 1.488 . S
C124 C125 1.348 . S
C124 C129 1.413 . S
C125 C124 1.348 . S
C125 C126 1.442 . S
C125 H152 0.930 . S
C126 C125 1.442 . S
C126 C127 1.381 . S
C126 H153 0.931 . S
C127 C126 1.381 . S
C127 C128 1.321 . S
C128 C127 1.321 . S
C128 C129 1.403 . S
C128 H154 0.934 . S
C129 C124 1.413 . S
C129 C128 1.403 . S
C129 H155 0.930 . S
C130 O144 1.275 . S
C130 O145 1.256 . S
C131 O146 1.259 . S
C131 O147 1.268 1_556 S
C132 Ho121 2.811 1_556 S
C132 C133 1.488 . S
C132 O148 1.215 . S
C132 O149 1.289 . S
C133 C132 1.488 . S
C133 C134 1.348 . S
C133 C138 1.413 . S
C134 C133 1.348 . S
C134 C135 1.442 . S
C134 H156 0.930 . S
C135 C134 1.442 . S
C135 C136 1.381 . S
C135 H157 0.931 . S
C136 C135 1.381 . S
C136 C137 1.321 . S
C137 C136 1.321 . S
C137 C138 1.403 . S
C137 H158 0.934 . S
C138 C133 1.413 . S
C138 C137 1.403 . S
C138 H159 0.930 . S
C139 O150 1.275 . S
C139 O151 1.256 . S
O140 Ho120 2.322 . S
O140 C122 1.259 . S
O141 Ho121 2.346 . S
O141 C122 1.268 . S
O142 Ho120 2.378 . S
O142 C123 1.215 . S
O143 Ho120 2.524 . S
O143 C123 1.289 . S
O144 Ho120 2.381 . S
O144 C130 1.275 . S
O145 Ho120 2.669 . S
O145 Ho121 2.305 . S
O145 C130 1.256 . S
O146 Ho121 2.322 1_556 S
O146 C131 1.259 . S
O147 Ho120 2.346 . S
O147 C131 1.268 1_554 S
O148 Ho121 2.378 1_556 S
O148 C132 1.215 . S
O149 Ho121 2.524 1_556 S
O149 C132 1.289 . S
O150 Ho121 2.381 . S
O150 C139 1.275 . S
O151 Ho120 2.305 . S
O151 Ho121 2.669 . S
O151 C139 1.256 . S
H152 C125 0.930 . S
H153 C126 0.931 . S
H154 C128 0.934 . S
H155 C129 0.930 . S
H156 C134 0.930 . S
H157 C135 0.931 . S
H158 C137 0.934 . S
H159 C138 0.930 . S
Ho160 C163 2.811 . S
Ho160 O180 2.322 . S
Ho160 O182 2.378 . S
Ho160 O183 2.524 . S
Ho160 O184 2.381 . S
Ho160 O185 2.669 . S
Ho160 O187 2.346 . S
Ho160 O191 2.305 . S
Ho161 C172 2.811 . S
Ho161 O181 2.346 . S
Ho161 O185 2.305 . S
Ho161 O186 2.322 . S
Ho161 O188 2.378 . S
Ho161 O189 2.524 . S
Ho161 O190 2.381 . S
Ho161 O191 2.669 . S
C162 O180 1.259 . S
C162 O181 1.268 . S
C163 Ho160 2.811 . S
C163 C164 1.488 . S
C163 O182 1.215 . S
C163 O183 1.289 . S
C164 C163 1.488 . S
C164 C165 1.348 . S
C164 C169 1.413 . S
C165 C164 1.348 . S
C165 C166 1.442 . S
C165 H192 0.930 . S
C166 C165 1.442 . S
C166 C167 1.381 . S
C166 H193 0.931 . S
C167 C166 1.381 . S
C167 C168 1.321 . S
C168 C167 1.321 . S
C168 C169 1.403 . S
C168 H194 0.934 . S
C169 C164 1.413 . S
C169 C168 1.403 . S
C169 H195 0.930 . S
C170 O184 1.275 . S
C170 O185 1.256 . S
C171 O186 1.259 . S
C171 O187 1.268 . S
C172 Ho161 2.811 . S
C172 C173 1.488 . S
C172 O188 1.215 . S
C172 O189 1.289 . S
C173 C172 1.488 . S
C173 C174 1.348 . S
C173 C178 1.413 . S
C174 C173 1.348 . S
C174 C175 1.442 . S
C174 H196 0.930 . S
C175 C174 1.442 . S
C175 C176 1.381 . S
C175 H197 0.931 . S
C176 C175 1.381 . S
C176 C177 1.321 . S
C177 C176 1.321 . S
C177 C178 1.403 . S
C177 H198 0.934 . S
C178 C173 1.413 . S
C178 C177 1.403 . S
C178 H199 0.930 . S
C179 O190 1.275 . S
C179 O191 1.256 . S
O180 Ho160 2.322 . S
O180 C162 1.259 . S
O181 Ho161 2.346 . S
O181 C162 1.268 . S
O182 Ho160 2.378 . S
O182 C163 1.215 . S
O183 Ho160 2.524 . S
O183 C163 1.289 . S
O184 Ho160 2.381 . S
O184 C170 1.275 . S
O185 Ho160 2.669 . S
O185 Ho161 2.305 . S
O185 C170 1.256 . S
O186 Ho161 2.322 . S
O186 C171 1.259 . S
O187 Ho160 2.346 . S
O187 C171 1.268 . S
O188 Ho161 2.378 . S
O188 C172 1.215 . S
O189 Ho161 2.524 . S
O189 C172 1.289 . S
O190 Ho161 2.381 . S
O190 C179 1.275 . S
O191 Ho160 2.305 . S
O191 Ho161 2.669 . S
O191 C179 1.256 . S
H192 C165 0.930 . S
H193 C166 0.931 . S
H194 C168 0.934 . S
H195 C169 0.930 . S
H196 C174 0.930 . S
H197 C175 0.931 . S
H198 C177 0.934 . S
H199 C178 0.930 . S
Ho200 C203 2.811 . S
Ho200 O220 2.322 . S
Ho200 O222 2.378 . S
Ho200 O223 2.524 . S
Ho200 O224 2.381 . S
Ho200 O225 2.669 . S
Ho200 O227 2.346 . S
Ho200 O231 2.305 . S
Ho201 C212 2.811 . S
Ho201 O221 2.346 . S
Ho201 O225 2.305 . S
Ho201 O226 2.322 . S
Ho201 O228 2.378 . S
Ho201 O229 2.524 . S
Ho201 O230 2.381 . S
Ho201 O231 2.669 . S
C202 O220 1.259 . S
C202 O221 1.268 . S
C203 Ho200 2.811 . S
C203 C204 1.488 . S
C203 O222 1.215 . S
C203 O223 1.289 . S
C204 C203 1.488 . S
C204 C205 1.348 . S
C204 C209 1.413 . S
C205 C204 1.348 . S
C205 C206 1.442 . S
C205 H232 0.930 . S
C206 C205 1.442 . S
C206 C207 1.381 . S
C206 H233 0.931 . S
C207 C206 1.381 . S
C207 C208 1.321 . S
C208 C207 1.321 . S
C208 C209 1.403 . S
C208 H234 0.934 . S
C209 C204 1.413 . S
C209 C208 1.403 . S
C209 H235 0.930 . S
C210 O224 1.275 . S
C210 O225 1.256 . S
C211 O226 1.259 . S
C211 O227 1.268 . S
C212 Ho201 2.811 . S
C212 C213 1.488 . S
C212 O228 1.215 . S
C212 O229 1.289 . S
C213 C212 1.488 . S
C213 C214 1.348 . S
C213 C218 1.413 . S
C214 C213 1.348 . S
C214 C215 1.442 . S
C214 H236 0.930 . S
C215 C214 1.442 . S
C215 C216 1.381 . S
C215 H237 0.931 . S
C216 C215 1.381 . S
C216 C217 1.321 . S
C217 C216 1.321 . S
C217 C218 1.403 . S
C217 H238 0.934 . S
C218 C213 1.413 . S
C218 C217 1.403 . S
C218 H239 0.930 . S
C219 O230 1.275 . S
C219 O231 1.256 . S
O220 Ho200 2.322 . S
O220 C202 1.259 . S
O221 Ho201 2.346 . S
O221 C202 1.268 . S
O222 Ho200 2.378 . S
O222 C203 1.215 . S
O223 Ho200 2.524 . S
O223 C203 1.289 . S
O224 Ho200 2.381 . S
O224 C210 1.275 . S
O225 Ho200 2.669 . S
O225 Ho201 2.305 . S
O225 C210 1.256 . S
O226 Ho201 2.322 . S
O226 C211 1.259 . S
O227 Ho200 2.346 . S
O227 C211 1.268 . S
O228 Ho201 2.378 . S
O228 C212 1.215 . S
O229 Ho201 2.524 . S
O229 C212 1.289 . S
O230 Ho201 2.381 . S
O230 C219 1.275 . S
O231 Ho200 2.305 . S
O231 Ho201 2.669 . S
O231 C219 1.256 . S
H232 C205 0.930 . S
H233 C206 0.931 . S
H234 C208 0.934 . S
H235 C209 0.930 . S
H236 C214 0.930 . S
H237 C215 0.931 . S
H238 C217 0.934 . S
H239 C218 0.930 . S
H240 C258 0.951 . S
H241 C260 0.951 . S
H242 C262 0.950 . S
H243 C263 0.950 . S
H244 C265 0.950 . S
H245 C268 0.950 . S
H246 C269 0.950 . S
H247 C271 0.950 . S
H248 C272 0.950 . S
H249 C273 0.951 . S
H250 C275 0.951 . S
H251 C277 0.950 . S
H252 C278 0.950 . S
H253 C280 0.950 . S
H254 C283 0.950 . S
H255 C284 0.950 . S
H256 C286 0.950 . S
H257 C287 0.950 . S
C258 H240 0.951 . S
C258 C259 1.366 . S
C258 C260 1.388 . S
C259 C258 1.366 . S
C259 C263 1.385 . S
C260 H241 0.951 . S
C260 C258 1.388 . S
C260 C261 1.366 . S
C261 C260 1.366 . S
C261 C262 1.414 . S
C261 C264 1.499 . S
C262 H242 0.950 . S
C262 C261 1.414 . S
C262 C263 1.374 . S
C263 H243 0.950 . S
C263 C259 1.385 . S
C263 C262 1.374 . S
C264 C261 1.499 . S
C264 C265 1.373 . S
C264 C266 1.389 . S
C265 H244 0.950 . S
C265 C264 1.373 . S
C265 C281 1.377 . S
C266 C264 1.389 . S
C266 C267 1.524 . S
C266 C280 1.377 . S
C267 C266 1.524 . S
C267 C268 1.397 . S
C267 C272 1.363 . S
C268 H245 0.950 . S
C268 C267 1.397 . S
C268 C269 1.334 . S
C269 H246 0.950 . S
C269 C268 1.334 . S
C269 C270 1.287 . S
C270 C269 1.287 . S
C270 C271 1.524 . S
C270 H289 0.913 . S
C271 H247 0.950 . S
C271 C270 1.524 . S
C271 C272 1.415 . S
C272 H248 0.950 . S
C272 C267 1.363 . S
C272 C271 1.415 . S
C273 H249 0.951 . S
C273 C274 1.366 . S
C273 C275 1.388 . S
C274 C273 1.366 . S
C274 C278 1.385 . S
C275 H250 0.951 . S
C275 C273 1.388 . S
C275 C276 1.366 . S
C276 C275 1.366 . S
C276 C277 1.414 . S
C276 C279 1.499 . S
C277 H251 0.950 . S
C277 C276 1.414 . S
C277 C278 1.374 . S
C278 H252 0.950 . S
C278 C274 1.385 . S
C278 C277 1.374 . S
C279 C276 1.499 . S
C279 C280 1.373 . S
C279 C281 1.389 . S
C280 H253 0.950 . S
C280 C266 1.377 . S
C280 C279 1.373 . S
C281 C265 1.377 . S
C281 C279 1.389 . S
C281 C282 1.524 . S
C282 C281 1.524 . S
C282 C283 1.397 . S
C282 C287 1.363 . S
C283 H254 0.950 . S
C283 C282 1.397 . S
C283 C284 1.334 . S
C284 H255 0.950 . S
C284 C283 1.334 . S
C284 C285 1.287 . S
C285 C284 1.287 . S
C285 C286 1.524 . S
C285 H288 0.999 . S
C286 H256 0.950 . S
C286 C285 1.524 . S
C286 C287 1.415 . S
C287 H257 0.950 . S
C287 C282 1.363 . S
C287 C286 1.415 . S
H288 C285 0.999 . S
H289 C270 0.913 . S
H290 C308 0.951 . S
H291 C310 0.951 . S
H292 C312 0.950 . S
H293 C313 0.950 . S
H294 C315 0.950 . S
H295 C318 0.950 . S
H296 C319 0.950 . S
H297 C321 0.950 . S
H298 C322 0.950 . S
H299 C323 0.951 . S
H300 C325 0.951 . S
H301 C327 0.950 . S
H302 C328 0.950 . S
H303 C330 0.950 . S
H304 C333 0.950 . S
H305 C334 0.950 . S
H306 C336 0.950 . S
H307 C337 0.950 . S
C308 H290 0.951 . S
C308 C309 1.366 . S
C308 C310 1.388 . S
C309 C308 1.366 . S
C309 C313 1.385 . S
C310 H291 0.951 . S
C310 C308 1.388 . S
C310 C311 1.366 . S
C311 C310 1.366 . S
C311 C312 1.414 . S
C311 C314 1.499 . S
C312 H292 0.950 . S
C312 C311 1.414 . S
C312 C313 1.374 . S
C313 H293 0.950 . S
C313 C309 1.385 . S
C313 C312 1.374 . S
C314 C311 1.499 . S
C314 C315 1.373 . S
C314 C316 1.389 . S
C315 H294 0.950 . S
C315 C314 1.373 . S
C315 C331 1.377 . S
C316 C314 1.389 . S
C316 C317 1.524 . S
C316 C330 1.377 . S
C317 C316 1.524 . S
C317 C318 1.397 . S
C317 C322 1.363 . S
C318 H295 0.950 . S
C318 C317 1.397 . S
C318 C319 1.334 . S
C319 H296 0.950 . S
C319 C318 1.334 . S
C319 C320 1.287 . S
C320 C319 1.287 . S
C320 C321 1.524 . S
C320 H339 0.913 . S
C321 H297 0.950 . S
C321 C320 1.524 . S
C321 C322 1.415 . S
C322 H298 0.950 . S
C322 C317 1.363 . S
C322 C321 1.415 . S
C323 H299 0.951 . S
C323 C324 1.366 . S
C323 C325 1.388 . S
C324 C323 1.366 . S
C324 C328 1.385 . S
C325 H300 0.951 . S
C325 C323 1.388 . S
C325 C326 1.366 . S
C326 C325 1.366 . S
C326 C327 1.414 . S
C326 C329 1.499 . S
C327 H301 0.950 . S
C327 C326 1.414 . S
C327 C328 1.374 . S
C328 H302 0.950 . S
C328 C324 1.385 . S
C328 C327 1.374 . S
C329 C326 1.499 . S
C329 C330 1.373 . S
C329 C331 1.389 . S
C330 H303 0.950 . S
C330 C316 1.377 . S
C330 C329 1.373 . S
C331 C315 1.377 . S
C331 C329 1.389 . S
C331 C332 1.524 . S
C332 C331 1.524 . S
C332 C333 1.397 . S
C332 C337 1.363 . S
C333 H304 0.950 . S
C333 C332 1.397 . S
C333 C334 1.334 . S
C334 H305 0.950 . S
C334 C333 1.334 . S
C334 C335 1.287 . S
C335 C334 1.287 . S
C335 C336 1.524 . S
C335 H338 0.999 . S
C336 H306 0.950 . S
C336 C335 1.524 . S
C336 C337 1.415 . S
C337 H307 0.950 . S
C337 C332 1.363 . S
C337 C336 1.415 . S
H338 C335 0.999 . S
H339 C320 0.913 . S
H340 C358 0.951 . S
H341 C360 0.951 . S
H342 C362 0.950 . S
H343 C363 0.950 . S
H344 C365 0.950 . S
H345 C368 0.950 . S
H346 C369 0.950 . S
H347 C371 0.950 . S
H348 C372 0.950 . S
H349 C373 0.951 . S
H350 C375 0.951 . S
H351 C377 0.950 . S
H352 C378 0.950 . S
H353 C380 0.950 . S
H354 C383 0.950 . S
H355 C384 0.950 . S
H356 C386 0.950 . S
H357 C387 0.950 . S
C358 H340 0.951 . S
C358 C359 1.366 . S
C358 C360 1.388 . S
C359 C358 1.366 . S
C359 C363 1.385 . S
C360 H341 0.951 . S
C360 C358 1.388 . S
C360 C361 1.366 . S
C361 C360 1.366 . S
C361 C362 1.414 . S
C361 C364 1.499 . S
C362 H342 0.950 . S
C362 C361 1.414 . S
C362 C363 1.374 . S
C363 H343 0.950 . S
C363 C359 1.385 . S
C363 C362 1.374 . S
C364 C361 1.499 . S
C364 C365 1.373 . S
C364 C366 1.389 . S
C365 H344 0.950 . S
C365 C364 1.373 . S
C365 C381 1.377 . S
C366 C364 1.389 . S
C366 C367 1.524 . S
C366 C380 1.377 . S
C367 C366 1.524 . S
C367 C368 1.397 . S
C367 C372 1.363 . S
C368 H345 0.950 . S
C368 C367 1.397 . S
C368 C369 1.334 . S
C369 H346 0.950 . S
C369 C368 1.334 . S
C369 C370 1.287 . S
C370 C369 1.287 . S
C370 C371 1.524 . S
C370 H389 0.913 . S
C371 H347 0.950 . S
C371 C370 1.524 . S
C371 C372 1.415 . S
C372 H348 0.950 . S
C372 C367 1.363 . S
C372 C371 1.415 . S
C373 H349 0.951 . S
C373 C374 1.366 . S
C373 C375 1.388 . S
C374 C373 1.366 . S
C374 C378 1.385 . S
C375 H350 0.951 . S
C375 C373 1.388 . S
C375 C376 1.366 . S
C376 C375 1.366 . S
C376 C377 1.414 . S
C376 C379 1.499 . S
C377 H351 0.950 . S
C377 C376 1.414 . S
C377 C378 1.374 . S
C378 H352 0.950 . S
C378 C374 1.385 . S
C378 C377 1.374 . S
C379 C376 1.499 . S
C379 C380 1.373 . S
C379 C381 1.389 . S
C380 H353 0.950 . S
C380 C366 1.377 . S
C380 C379 1.373 . S
C381 C365 1.377 . S
C381 C379 1.389 . S
C381 C382 1.524 . S
C382 C381 1.524 . S
C382 C383 1.397 . S
C382 C387 1.363 . S
C383 H354 0.950 . S
C383 C382 1.397 . S
C383 C384 1.334 . S
C384 H355 0.950 . S
C384 C383 1.334 . S
C384 C385 1.287 . S
C385 C384 1.287 . S
C385 C386 1.524 . S
C385 H388 0.999 . S
C386 H356 0.950 . S
C386 C385 1.524 . S
C386 C387 1.415 . S
C387 H357 0.950 . S
C387 C382 1.363 . S
C387 C386 1.415 . S
H388 C385 0.999 . S
H389 C370 0.913 . S
H390 C408 0.951 . S
H391 C410 0.951 . S
H392 C412 0.950 . S
H393 C413 0.950 . S
H394 C415 0.950 . S
H395 C418 0.950 . S
H396 C419 0.950 . S
H397 C421 0.950 . S
H398 C422 0.950 . S
H399 C423 0.951 . S
H400 C425 0.951 . S
H401 C427 0.950 . S
H402 C428 0.950 . S
H403 C430 0.950 . S
H404 C433 0.950 . S
H405 C434 0.950 . S
H406 C436 0.950 . S
H407 C437 0.950 . S
C408 H390 0.951 . S
C408 C409 1.366 . S
C408 C410 1.388 . S
C409 C408 1.366 . S
C409 C413 1.385 . S
C410 H391 0.951 . S
C410 C408 1.388 . S
C410 C411 1.366 . S
C411 C410 1.366 . S
C411 C412 1.414 . S
C411 C414 1.499 . S
C412 H392 0.950 . S
C412 C411 1.414 . S
C412 C413 1.374 . S
C413 H393 0.950 . S
C413 C409 1.385 . S
C413 C412 1.374 . S
C414 C411 1.499 . S
C414 C415 1.373 . S
C414 C416 1.389 . S
C415 H394 0.950 . S
C415 C414 1.373 . S
C415 C431 1.377 . S
C416 C414 1.389 . S
C416 C417 1.524 . S
C416 C430 1.377 . S
C417 C416 1.524 . S
C417 C418 1.397 . S
C417 C422 1.363 . S
C418 H395 0.950 . S
C418 C417 1.397 . S
C418 C419 1.334 . S
C419 H396 0.950 . S
C419 C418 1.334 . S
C419 C420 1.287 . S
C420 C419 1.287 . S
C420 C421 1.524 . S
C420 H439 0.913 . S
C421 H397 0.950 . S
C421 C420 1.524 . S
C421 C422 1.415 . S
C422 H398 0.950 . S
C422 C417 1.363 . S
C422 C421 1.415 . S
C423 H399 0.951 . S
C423 C424 1.366 . S
C423 C425 1.388 . S
C424 C423 1.366 . S
C424 C428 1.385 . S
C425 H400 0.951 . S
C425 C423 1.388 . S
C425 C426 1.366 . S
C426 C425 1.366 . S
C426 C427 1.414 . S
C426 C429 1.499 . S
C427 H401 0.950 . S
C427 C426 1.414 . S
C427 C428 1.374 . S
C428 H402 0.950 . S
C428 C424 1.385 . S
C428 C427 1.374 . S
C429 C426 1.499 . S
C429 C430 1.373 . S
C429 C431 1.389 . S
C430 H403 0.950 . S
C430 C416 1.377 . S
C430 C429 1.373 . S
C431 C415 1.377 . S
C431 C429 1.389 . S
C431 C432 1.524 . S
C432 C431 1.524 . S
C432 C433 1.397 . S
C432 C437 1.363 . S
C433 H404 0.950 . S
C433 C432 1.397 . S
C433 C434 1.334 . S
C434 H405 0.950 . S
C434 C433 1.334 . S
C434 C435 1.287 . S
C435 C434 1.287 . S
C435 C436 1.524 . S
C435 H438 1.001 . S
C436 H406 0.950 . S
C436 C435 1.524 . S
C436 C437 1.415 . S
C437 H407 0.950 . S
C437 C432 1.363 . S
C437 C436 1.415 . S
H438 C435 1.001 . S
H439 C420 0.913 . S
H440 C458 0.951 . S
H441 C460 0.951 . S
H442 C462 0.950 . S
H443 C463 0.950 . S
H444 C465 0.950 . S
H445 C468 0.950 . S
H446 C469 0.950 . S
H447 C471 0.950 . S
H448 C472 0.950 . S
H449 C473 0.951 . S
H450 C475 0.951 . S
H451 C477 0.950 . S
H452 C478 0.950 . S
H453 C480 0.950 . S
H454 C483 0.950 . S
H455 C484 0.950 . S
H456 C486 0.950 . S
H457 C487 0.950 . S
C458 H440 0.951 . S
C458 C459 1.366 . S
C458 C460 1.388 . S
C459 C458 1.366 . S
C459 C463 1.385 . S
C460 H441 0.951 . S
C460 C458 1.388 . S
C460 C461 1.366 . S
C461 C460 1.366 . S
C461 C462 1.414 . S
C461 C464 1.499 . S
C462 H442 0.950 . S
C462 C461 1.414 . S
C462 C463 1.374 . S
C463 H443 0.950 . S
C463 C459 1.385 . S
C463 C462 1.374 . S
C464 C461 1.499 . S
C464 C465 1.373 . S
C464 C466 1.389 . S
C465 H444 0.950 . S
C465 C464 1.373 . S
C465 C481 1.377 . S
C466 C464 1.389 . S
C466 C467 1.524 . S
C466 C480 1.377 . S
C467 C466 1.524 . S
C467 C468 1.397 . S
C467 C472 1.363 . S
C468 H445 0.950 . S
C468 C467 1.397 . S
C468 C469 1.334 . S
C469 H446 0.950 . S
C469 C468 1.334 . S
C469 C470 1.287 . S
C470 C469 1.287 . S
C470 C471 1.524 . S
C470 H489 0.913 . S
C471 H447 0.950 . S
C471 C470 1.524 . S
C471 C472 1.415 . S
C472 H448 0.950 . S
C472 C467 1.363 . S
C472 C471 1.415 . S
C473 H449 0.951 . S
C473 C474 1.366 . S
C473 C475 1.388 . S
C474 C473 1.366 . S
C474 C478 1.385 . S
C475 H450 0.951 . S
C475 C473 1.388 . S
C475 C476 1.366 . S
C476 C475 1.366 . S
C476 C477 1.414 . S
C476 C479 1.499 . S
C477 H451 0.950 . S
C477 C476 1.414 . S
C477 C478 1.374 . S
C478 H452 0.950 . S
C478 C474 1.385 . S
C478 C477 1.374 . S
C479 C476 1.499 . S
C479 C480 1.373 . S
C479 C481 1.389 . S
C480 H453 0.950 . S
C480 C466 1.377 . S
C480 C479 1.373 . S
C481 C465 1.377 . S
C481 C479 1.389 . S
C481 C482 1.524 . S
C482 C481 1.524 . S
C482 C483 1.397 . S
C482 C487 1.363 . S
C483 H454 0.950 . S
C483 C482 1.397 . S
C483 C484 1.334 . S
C484 H455 0.950 . S
C484 C483 1.334 . S
C484 C485 1.287 . S
C485 C484 1.287 . S
C485 C486 1.524 . S
C485 H488 0.999 . S
C486 H456 0.950 . S
C486 C485 1.524 . S
C486 C487 1.415 . S
C487 H457 0.950 . S
C487 C482 1.363 . S
C487 C486 1.415 . S
H488 C485 0.999 . S
H489 C470 0.913 . S
H490 C508 0.951 . S
H491 C510 0.951 . S
H492 C512 0.950 . S
H493 C513 0.950 . S
H494 C515 0.950 . S
H495 C518 0.950 . S
H496 C519 0.950 . S
H497 C521 0.950 . S
H498 C522 0.950 . S
H499 C523 0.951 . S
H500 C525 0.951 . S
H501 C527 0.950 . S
H502 C528 0.950 . S
H503 C530 0.950 . S
H504 C533 0.950 . S
H505 C534 0.950 . S
H506 C536 0.950 . S
H507 C537 0.950 . S
C508 H490 0.951 . S
C508 C509 1.366 . S
C508 C510 1.388 . S
C509 C508 1.366 . S
C509 C513 1.385 . S
C510 H491 0.951 . S
C510 C508 1.388 . S
C510 C511 1.366 . S
C511 C510 1.366 . S
C511 C512 1.414 . S
C511 C514 1.499 . S
C512 H492 0.950 . S
C512 C511 1.414 . S
C512 C513 1.374 . S
C513 H493 0.950 . S
C513 C509 1.385 . S
C513 C512 1.374 . S
C514 C511 1.499 . S
C514 C515 1.373 . S
C514 C516 1.389 . S
C515 H494 0.950 . S
C515 C514 1.373 . S
C515 C531 1.377 . S
C516 C514 1.389 . S
C516 C517 1.524 . S
C516 C530 1.377 . S
C517 C516 1.524 . S
C517 C518 1.397 . S
C517 C522 1.363 . S
C518 H495 0.950 . S
C518 C517 1.397 . S
C518 C519 1.334 . S
C519 H496 0.950 . S
C519 C518 1.334 . S
C519 C520 1.287 . S
C520 C519 1.287 . S
C520 C521 1.524 . S
C520 H539 0.913 . S
C521 H497 0.950 . S
C521 C520 1.524 . S
C521 C522 1.415 . S
C522 H498 0.950 . S
C522 C517 1.363 . S
C522 C521 1.415 . S
C523 H499 0.951 . S
C523 C524 1.366 . S
C523 C525 1.388 . S
C524 C523 1.366 . S
C524 C528 1.385 . S
C525 H500 0.951 . S
C525 C523 1.388 . S
C525 C526 1.366 . S
C526 C525 1.366 . S
C526 C527 1.414 . S
C526 C529 1.499 . S
C527 H501 0.950 . S
C527 C526 1.414 . S
C527 C528 1.374 . S
C528 H502 0.950 . S
C528 C524 1.385 . S
C528 C527 1.374 . S
C529 C526 1.499 . S
C529 C530 1.373 . S
C529 C531 1.389 . S
C530 H503 0.950 . S
C530 C516 1.377 . S
C530 C529 1.373 . S
C531 C515 1.377 . S
C531 C529 1.389 . S
C531 C532 1.524 . S
C532 C531 1.524 . S
C532 C533 1.397 . S
C532 C537 1.363 . S
C533 H504 0.950 . S
C533 C532 1.397 . S
C533 C534 1.334 . S
C534 H505 0.950 . S
C534 C533 1.334 . S
C534 C535 1.287 . S
C535 C534 1.287 . S
C535 C536 1.524 . S
C535 H538 0.999 . S
C536 H506 0.950 . S
C536 C535 1.524 . S
C536 C537 1.415 . S
C537 H507 0.950 . S
C537 C532 1.363 . S
C537 C536 1.415 . S
H538 C535 0.999 . S
H539 C520 0.913 . S
H540 C558 0.951 . S
H541 C560 0.951 . S
H542 C562 0.950 . S
H543 C563 0.950 . S
H544 C565 0.950 . S
H545 C568 0.950 . S
H546 C569 0.950 . S
H547 C571 0.950 . S
H548 C572 0.950 . S
H549 C573 0.951 . S
H550 C575 0.951 . S
H551 C577 0.950 . S
H552 C578 0.950 . S
H553 C580 0.950 . S
H554 C583 0.950 . S
H555 C584 0.950 . S
H556 C586 0.949 . S
H557 C587 0.950 . S
C558 H540 0.951 . S
C558 C559 1.366 . S
C558 C560 1.388 . S
C559 C558 1.366 . S
C559 C563 1.385 . S
C560 H541 0.951 . S
C560 C558 1.388 . S
C560 C561 1.366 . S
C561 C560 1.366 . S
C561 C562 1.414 . S
C561 C564 1.499 . S
C562 H542 0.950 . S
C562 C561 1.414 . S
C562 C563 1.374 . S
C563 H543 0.950 . S
C563 C559 1.385 . S
C563 C562 1.374 . S
C564 C561 1.499 . S
C564 C565 1.373 . S
C564 C566 1.389 . S
C565 H544 0.950 . S
C565 C564 1.373 . S
C565 C581 1.377 . S
C566 C564 1.389 . S
C566 C567 1.524 . S
C566 C580 1.377 . S
C567 C566 1.524 . S
C567 C568 1.397 . S
C567 C572 1.363 . S
C568 H545 0.950 . S
C568 C567 1.397 . S
C568 C569 1.334 . S
C569 H546 0.950 . S
C569 C568 1.334 . S
C569 C570 1.287 . S
C570 C569 1.287 . S
C570 C571 1.524 . S
C570 H589 0.913 . S
C571 H547 0.950 . S
C571 C570 1.524 . S
C571 C572 1.415 . S
C572 H548 0.950 . S
C572 C567 1.363 . S
C572 C571 1.415 . S
C573 H549 0.951 . S
C573 C574 1.366 . S
C573 C575 1.388 . S
C574 C573 1.366 . S
C574 C578 1.385 . S
C575 H550 0.951 . S
C575 C573 1.388 . S
C575 C576 1.366 . S
C576 C575 1.366 . S
C576 C577 1.414 . S
C576 C579 1.499 . S
C577 H551 0.950 . S
C577 C576 1.414 . S
C577 C578 1.374 . S
C578 H552 0.950 . S
C578 C574 1.385 . S
C578 C577 1.374 . S
C579 C576 1.499 . S
C579 C580 1.373 . S
C579 C581 1.389 . S
C580 H553 0.950 . S
C580 C566 1.377 . S
C580 C579 1.373 . S
C581 C565 1.377 . S
C581 C579 1.389 . S
C581 C582 1.524 . S
C582 C581 1.524 . S
C582 C583 1.397 1_554 S
C582 C587 1.363 . S
C583 H554 0.950 . S
C583 C582 1.397 1_556 S
C583 C584 1.334 . S
C584 H555 0.950 . S
C584 C583 1.334 . S
C584 C585 1.287 . S
C585 C584 1.287 . S
C585 C586 1.507 1_556 S
C585 H588 0.999 . S
C586 H556 0.949 . S
C586 C585 1.507 1_554 S
C586 C587 1.432 . S
C587 H557 0.950 . S
C587 C582 1.363 . S
C587 C586 1.432 . S
H588 C585 0.999 . S
H589 C570 0.913 . S
H590 C608 0.951 . S
H591 C610 0.951 . S
H592 C612 0.950 . S
H593 C613 0.950 . S
H594 C615 0.950 . S
H595 C618 0.950 . S
H596 C619 0.950 . S
H597 C621 0.950 . S
H598 C622 0.950 . S
H599 C623 0.951 . S
H600 C625 0.951 . S
H601 C627 0.950 . S
H602 C628 0.950 . S
H603 C630 0.950 . S
H604 C633 0.950 . S
H605 C634 0.950 . S
H606 C636 0.950 . S
H607 C637 0.950 . S
C608 H590 0.951 . S
C608 C609 1.366 . S
C608 C610 1.388 . S
C609 C608 1.366 . S
C609 C613 1.385 . S
C610 H591 0.951 . S
C610 C608 1.388 . S
C610 C611 1.366 . S
C611 C610 1.366 . S
C611 C612 1.414 . S
C611 C614 1.499 . S
C612 H592 0.950 . S
C612 C611 1.414 . S
C612 C613 1.374 . S
C613 H593 0.950 . S
C613 C609 1.385 . S
C613 C612 1.374 . S
C614 C611 1.499 . S
C614 C615 1.373 . S
C614 C616 1.389 1_455 S
C615 H594 0.950 . S
C615 C614 1.373 . S
C615 C631 1.377 . S
C616 C614 1.389 1_655 S
C616 C617 1.524 . S
C616 C630 1.377 . S
C617 C616 1.524 . S
C617 C618 1.397 . S
C617 C622 1.363 . S
C618 H595 0.950 . S
C618 C617 1.397 . S
C618 C619 1.334 . S
C619 H596 0.950 . S
C619 C618 1.334 . S
C619 C620 1.287 . S
C620 C619 1.287 . S
C620 C621 1.524 . S
C620 H639 0.913 . S
C621 H597 0.950 . S
C621 C620 1.524 . S
C621 C622 1.415 . S
C622 H598 0.950 . S
C622 C617 1.363 . S
C622 C621 1.415 . S
C623 H599 0.951 . S
C623 C624 1.366 . S
C623 C625 1.388 . S
C624 C623 1.366 . S
C624 C628 1.385 . S
C625 H600 0.951 . S
C625 C623 1.388 . S
C625 C626 1.366 . S
C626 C625 1.366 . S
C626 C627 1.414 . S
C626 C629 1.499 . S
C627 H601 0.950 . S
C627 C626 1.414 . S
C627 C628 1.374 . S
C628 H602 0.950 . S
C628 C624 1.385 . S
C628 C627 1.374 . S
C629 C626 1.499 . S
C629 C630 1.373 . S
C629 C631 1.389 1_655 S
C630 H603 0.950 . S
C630 C616 1.377 . S
C630 C629 1.373 . S
C631 C615 1.377 . S
C631 C629 1.389 1_455 S
C631 C632 1.524 . S
C632 C631 1.524 . S
C632 C633 1.397 . S
C632 C637 1.363 . S
C633 H604 0.950 . S
C633 C632 1.397 . S
C633 C634 1.334 . S
C634 H605 0.950 . S
C634 C633 1.334 . S
C634 C635 1.287 . S
C635 C634 1.287 . S
C635 C636 1.524 . S
C635 H638 0.999 . S
C636 H606 0.950 . S
C636 C635 1.524 . S
C636 C637 1.415 . S
C637 H607 0.950 . S
C637 C632 1.363 . S
C637 C636 1.415 . S
H638 C635 0.999 . S
H639 C620 0.913 . S
H640 C658 0.951 . S
H641 C660 0.951 . S
H642 C662 0.950 . S
H643 C663 0.950 . S
H644 C665 0.950 . S
H645 C668 0.950 . S
H646 C669 0.950 . S
H647 C671 0.950 . S
H648 C672 0.954 1_545 S
H649 C673 0.951 . S
H650 C675 0.951 . S
H651 C677 0.950 . S
H652 C678 0.950 . S
H653 C680 0.950 . S
H654 C683 0.950 . S
H655 C684 0.950 . S
H656 C686 0.950 . S
H657 C687 0.954 1_565 S
C658 H640 0.951 . S
C658 C659 1.366 . S
C658 C660 1.388 . S
C659 C658 1.366 . S
C659 C663 1.385 . S
C660 H641 0.951 . S
C660 C658 1.388 . S
C660 C661 1.366 . S
C661 C660 1.366 . S
C661 C662 1.414 . S
C661 C664 1.499 . S
C662 H642 0.950 . S
C662 C661 1.414 . S
C662 C663 1.374 . S
C663 H643 0.950 . S
C663 C659 1.385 . S
C663 C662 1.374 . S
C664 C661 1.499 . S
C664 C665 1.373 . S
C664 C666 1.389 1_545 S
C665 H644 0.950 . S
C665 C664 1.373 . S
C665 C681 1.377 . S
C666 C664 1.389 1_565 S
C666 C667 1.524 . S
C666 C680 1.377 . S
C667 C666 1.524 . S
C667 C668 1.397 . S
C667 C672 1.362 . S
C668 H645 0.950 . S
C668 C667 1.397 . S
C668 C669 1.334 . S
C669 H646 0.950 . S
C669 C668 1.334 . S
C669 C670 1.287 . S
C670 C669 1.287 . S
C670 C671 1.524 . S
C670 H689 0.913 . S
C671 H647 0.950 . S
C671 C670 1.524 . S
C671 C672 1.413 . S
C672 H648 0.954 1_565 S
C672 C667 1.362 . S
C672 C671 1.413 . S
C673 H649 0.951 . S
C673 C674 1.366 . S
C673 C675 1.388 . S
C674 C673 1.366 . S
C674 C678 1.385 . S
C675 H650 0.951 . S
C675 C673 1.388 . S
C675 C676 1.366 . S
C676 C675 1.366 . S
C676 C677 1.414 . S
C676 C679 1.499 . S
C677 H651 0.950 . S
C677 C676 1.414 . S
C677 C678 1.374 . S
C678 H652 0.950 . S
C678 C674 1.385 . S
C678 C677 1.374 . S
C679 C676 1.499 . S
C679 C680 1.373 . S
C679 C681 1.389 1_565 S
C680 H653 0.950 . S
C680 C666 1.377 . S
C680 C679 1.373 . S
C681 C665 1.377 . S
C681 C679 1.389 1_545 S
C681 C682 1.524 . S
C682 C681 1.524 . S
C682 C683 1.397 . S
C682 C687 1.362 . S
C683 H654 0.950 . S
C683 C682 1.397 . S
C683 C684 1.334 . S
C684 H655 0.950 . S
C684 C683 1.334 . S
C684 C685 1.287 . S
C685 C684 1.287 . S
C685 C686 1.524 . S
C685 H688 0.999 . S
C686 H656 0.950 . S
C686 C685 1.524 . S
C686 C687 1.413 . S
C687 H657 0.954 1_545 S
C687 C682 1.362 . S
C687 C686 1.413 . S
H688 C685 0.999 . S
H689 C670 0.913 . S
H690 C708 0.951 . S
H691 C710 0.951 . S
H692 C712 0.950 . S
H693 C713 0.950 . S
H694 C715 0.950 . S
H695 C718 0.950 . S
H696 C719 0.950 . S
H697 C721 0.950 . S
H698 C722 0.950 . S
H699 C723 0.951 . S
H700 C725 0.951 . S
H701 C727 0.950 . S
H702 C728 0.950 . S
H703 C730 0.950 . S
H704 C733 0.950 . S
H705 C734 0.950 . S
H706 C736 0.950 . S
H707 C737 0.950 . S
C708 H690 0.951 . S
C708 C709 1.366 . S
C708 C710 1.388 . S
C709 C708 1.366 . S
C709 C713 1.385 . S
C710 H691 0.951 . S
C710 C708 1.388 . S
C710 C711 1.366 . S
C711 C710 1.366 . S
C711 C712 1.414 . S
C711 C714 1.499 . S
C712 H692 0.950 . S
C712 C711 1.414 . S
C712 C713 1.374 . S
C713 H693 0.950 . S
C713 C709 1.385 . S
C713 C712 1.374 . S
C714 C711 1.499 . S
C714 C715 1.373 . S
C714 C716 1.389 . S
C715 H694 0.950 . S
C715 C714 1.373 . S
C715 C731 1.377 . S
C716 C714 1.389 . S
C716 C717 1.524 . S
C716 C730 1.377 . S
C717 C716 1.524 . S
C717 C718 1.397 . S
C717 C722 1.363 . S
C718 H695 0.950 . S
C718 C717 1.397 . S
C718 C719 1.334 . S
C719 H696 0.950 . S
C719 C718 1.334 . S
C719 C720 1.287 . S
C720 C719 1.287 . S
C720 C721 1.524 . S
C720 H739 0.913 . S
C721 H697 0.950 . S
C721 C720 1.524 . S
C721 C722 1.415 . S
C722 H698 0.950 . S
C722 C717 1.363 . S
C722 C721 1.415 . S
C723 H699 0.951 . S
C723 C724 1.366 . S
C723 C725 1.388 . S
C724 C723 1.366 . S
C724 C728 1.385 . S
C725 H700 0.951 . S
C725 C723 1.388 . S
C725 C726 1.366 . S
C726 C725 1.366 . S
C726 C727 1.414 . S
C726 C729 1.499 . S
C727 H701 0.950 . S
C727 C726 1.414 . S
C727 C728 1.374 . S
C728 H702 0.950 . S
C728 C724 1.385 . S
C728 C727 1.374 . S
C729 C726 1.499 . S
C729 C730 1.373 . S
C729 C731 1.389 . S
C730 H703 0.950 . S
C730 C716 1.377 . S
C730 C729 1.373 . S
C731 C715 1.377 . S
C731 C729 1.389 . S
C731 C732 1.524 . S
C732 C731 1.524 . S
C732 C733 1.397 . S
C732 C737 1.363 . S
C733 H704 0.950 . S
C733 C732 1.397 . S
C733 C734 1.334 . S
C734 H705 0.950 . S
C734 C733 1.334 . S
C734 C735 1.287 . S
C735 C734 1.287 . S
C735 C736 1.524 . S
C735 H738 0.999 . S
C736 H706 0.950 . S
C736 C735 1.524 . S
C736 C737 1.415 . S
C737 H707 0.950 . S
C737 C732 1.363 . S
C737 C736 1.415 . S
H738 C735 0.999 . S
H739 C720 0.913 . S
H740 C758 0.951 . S
H741 C760 0.951 . S
H742 C762 0.950 . S
H743 C763 0.950 . S
H744 C765 0.957 . S
H745 C768 0.950 . S
H746 C769 0.950 . S
H747 C771 0.950 . S
H748 C772 0.950 . S
H749 C773 0.951 . S
H750 C775 0.951 . S
H751 C777 0.950 . S
H752 C778 0.950 . S
H753 C780 0.950 . S
H754 C783 0.950 . S
H755 C784 0.950 . S
H756 C786 0.950 . S
H757 C787 0.950 . S
C758 H740 0.951 . S
C758 C759 1.366 . S
C758 C760 1.388 . S
C759 C758 1.366 . S
C759 C763 1.385 . S
C760 H741 0.951 . S
C760 C758 1.388 . S
C760 C761 1.366 . S
C761 C760 1.366 . S
C761 C762 1.414 . S
C761 C764 1.499 . S
C762 H742 0.950 . S
C762 C761 1.414 . S
C762 C763 1.374 . S
C763 H743 0.950 . S
C763 C759 1.385 . S
C763 C762 1.374 . S
C764 C761 1.499 . S
C764 C765 1.373 1_455 S
C764 C766 1.389 . S
C765 H744 0.957 . S
C765 C764 1.373 1_655 S
C765 C781 1.377 . S
C766 C764 1.389 . S
C766 C767 1.524 . S
C766 C780 1.377 . S
C767 C766 1.524 . S
C767 C768 1.397 . S
C767 C772 1.363 . S
C768 H745 0.950 . S
C768 C767 1.397 . S
C768 C769 1.334 . S
C769 H746 0.950 . S
C769 C768 1.334 . S
C769 C770 1.287 . S
C770 C769 1.287 . S
C770 C771 1.524 . S
C770 H789 0.913 . S
C771 H747 0.950 . S
C771 C770 1.524 . S
C771 C772 1.415 . S
C772 H748 0.950 . S
C772 C767 1.363 . S
C772 C771 1.415 . S
C773 H749 0.951 . S
C773 C774 1.366 . S
C773 C775 1.388 . S
C774 C773 1.366 . S
C774 C778 1.385 . S
C775 H750 0.951 . S
C775 C773 1.388 . S
C775 C776 1.366 . S
C776 C775 1.366 . S
C776 C777 1.414 . S
C776 C779 1.499 . S
C777 H751 0.950 . S
C777 C776 1.414 . S
C777 C778 1.374 . S
C778 H752 0.950 . S
C778 C774 1.385 . S
C778 C777 1.374 . S
C779 C776 1.499 . S
C779 C780 1.373 1_655 S
C779 C781 1.389 . S
C780 H753 0.950 . S
C780 C766 1.377 . S
C780 C779 1.373 1_455 S
C781 C765 1.377 . S
C781 C779 1.389 . S
C781 C782 1.524 1_554 S
C782 C781 1.524 1_556 S
C782 C783 1.397 . S
C782 C787 1.363 . S
C783 H754 0.950 . S
C783 C782 1.397 . S
C783 C784 1.334 . S
C784 H755 0.950 . S
C784 C783 1.334 . S
C784 C785 1.287 . S
C785 C784 1.287 . S
C785 C786 1.524 . S
C785 H788 0.999 . S
C786 H756 0.950 . S
C786 C785 1.524 . S
C786 C787 1.415 . S
C787 H757 0.950 . S
C787 C782 1.363 . S
C787 C786 1.415 . S
H788 C785 0.999 . S
H789 C770 0.913 . S
H790 C808 0.951 . S
H791 C810 0.951 . S
H792 C812 0.950 . S
H793 C813 0.950 . S
H794 C815 0.950 . S
H795 C818 0.950 . S
H796 C819 0.950 . S
H797 C821 0.950 . S
H798 C822 0.950 . S
H799 C823 0.951 . S
H800 C825 0.951 . S
H801 C827 0.950 . S
H802 C828 0.950 . S
H803 C830 0.950 . S
H804 C833 0.950 . S
H805 C834 0.950 . S
H806 C836 0.950 . S
H807 C837 0.950 . S
C808 H790 0.951 . S
C808 C809 1.366 . S
C808 C810 1.388 . S
C809 C808 1.366 . S
C809 C813 1.385 . S
C810 H791 0.951 . S
C810 C808 1.388 . S
C810 C811 1.366 . S
C811 C810 1.366 . S
C811 C812 1.414 . S
C811 C814 1.499 . S
C812 H792 0.950 . S
C812 C811 1.414 . S
C812 C813 1.374 . S
C813 H793 0.950 . S
C813 C809 1.385 . S
C813 C812 1.374 . S
C814 C811 1.499 . S
C814 C815 1.373 1_565 S
C814 C816 1.389 . S
C815 H794 0.950 . S
C815 C814 1.373 1_545 S
C815 C831 1.377 . S
C816 C814 1.389 . S
C816 C817 1.524 . S
C816 C830 1.377 . S
C817 C816 1.524 . S
C817 C818 1.397 . S
C817 C822 1.363 . S
C818 H795 0.950 . S
C818 C817 1.397 . S
C818 C819 1.334 . S
C819 H796 0.950 . S
C819 C818 1.334 . S
C819 C820 1.287 . S
C820 C819 1.287 . S
C820 C821 1.524 . S
C820 H839 0.913 . S
C821 H797 0.950 . S
C821 C820 1.524 . S
C821 C822 1.415 . S
C822 H798 0.950 . S
C822 C817 1.363 . S
C822 C821 1.415 . S
C823 H799 0.951 . S
C823 C824 1.366 . S
C823 C825 1.388 . S
C824 C823 1.366 . S
C824 C828 1.385 . S
C825 H800 0.951 . S
C825 C823 1.388 . S
C825 C826 1.366 . S
C826 C825 1.366 . S
C826 C827 1.414 . S
C826 C829 1.499 . S
C827 H801 0.950 . S
C827 C826 1.414 . S
C827 C828 1.374 . S
C828 H802 0.950 . S
C828 C824 1.385 . S
C828 C827 1.374 . S
C829 C826 1.499 . S
C829 C830 1.373 1_545 S
C829 C831 1.389 . S
C830 H803 0.950 . S
C830 C816 1.377 . S
C830 C829 1.373 1_565 S
C831 C815 1.377 . S
C831 C829 1.389 . S
C831 C832 1.524 . S
C832 C831 1.524 . S
C832 C833 1.397 . S
C832 C837 1.363 . S
C833 H804 0.950 . S
C833 C832 1.397 . S
C833 C834 1.334 . S
C834 H805 0.950 . S
C834 C833 1.334 . S
C834 C835 1.287 . S
C835 C834 1.287 . S
C835 C836 1.524 . S
C835 H838 0.999 . S
C836 H806 0.950 . S
C836 C835 1.524 . S
C836 C837 1.415 . S
C837 H807 0.950 . S
C837 C832 1.363 . S
C837 C836 1.415 . S
H838 C835 0.999 . S
H839 C820 0.913 . S
H840 C858 0.951 . S
H841 C860 0.951 . S
H842 C862 0.950 . S
H843 C863 0.950 . S
H844 C865 0.950 . S
H845 C868 0.950 . S
H846 C869 0.950 . S
H847 C871 0.950 . S
H848 C872 0.950 . S
H849 C873 0.951 . S
H850 C875 0.951 . S
H851 C877 0.950 . S
H852 C878 0.950 . S
H853 C880 0.950 . S
H854 C883 0.950 . S
H855 C884 0.950 . S
H856 C886 0.950 . S
H857 C887 0.950 . S
C858 H840 0.951 . S
C858 C859 1.366 . S
C858 C860 1.388 . S
C859 C858 1.366 . S
C859 C863 1.385 . S
C860 H841 0.951 . S
C860 C858 1.388 . S
C860 C861 1.366 . S
C861 C860 1.366 . S
C861 C862 1.414 . S
C861 C864 1.499 . S
C862 H842 0.950 . S
C862 C861 1.414 . S
C862 C863 1.374 . S
C863 H843 0.950 . S
C863 C859 1.385 . S
C863 C862 1.374 . S
C864 C861 1.499 . S
C864 C865 1.373 . S
C864 C866 1.389 . S
C865 H844 0.950 . S
C865 C864 1.373 . S
C865 C881 1.377 . S
C866 C864 1.389 . S
C866 C867 1.524 . S
C866 C880 1.377 . S
C867 C866 1.524 . S
C867 C868 1.397 . S
C867 C872 1.363 . S
C868 H845 0.950 . S
C868 C867 1.397 . S
C868 C869 1.334 . S
C869 H846 0.950 . S
C869 C868 1.334 . S
C869 C870 1.287 . S
C870 C869 1.287 . S
C870 C871 1.524 . S
C870 H889 0.913 . S
C871 H847 0.950 . S
C871 C870 1.524 . S
C871 C872 1.415 . S
C872 H848 0.950 . S
C872 C867 1.363 . S
C872 C871 1.415 . S
C873 H849 0.951 . S
C873 C874 1.366 . S
C873 C875 1.388 . S
C874 C873 1.366 . S
C874 C878 1.385 . S
C875 H850 0.951 . S
C875 C873 1.388 . S
C875 C876 1.366 . S
C876 C875 1.366 . S
C876 C877 1.414 . S
C876 C879 1.499 . S
C877 H851 0.950 . S
C877 C876 1.414 . S
C877 C878 1.374 . S
C878 H852 0.950 . S
C878 C874 1.385 . S
C878 C877 1.374 . S
C879 C876 1.499 . S
C879 C880 1.373 . S
C879 C881 1.389 . S
C880 H853 0.950 . S
C880 C866 1.377 . S
C880 C879 1.373 . S
C881 C865 1.377 . S
C881 C879 1.389 . S
C881 C882 1.524 . S
C882 C881 1.524 . S
C882 C883 1.397 . S
C882 C887 1.363 . S
C883 H854 0.950 . S
C883 C882 1.397 . S
C883 C884 1.334 . S
C884 H855 0.950 . S
C884 C883 1.334 . S
C884 C885 1.287 . S
C885 C884 1.287 . S
C885 C886 1.524 . S
C885 H888 0.999 . S
C886 H856 0.950 . S
C886 C885 1.524 . S
C886 C887 1.415 . S
C887 H857 0.950 . S
C887 C882 1.363 . S
C887 C886 1.415 . S
H888 C885 0.999 . S
H889 C870 0.913 . S
H890 C908 0.951 . S
H891 C910 0.951 . S
H892 C912 0.950 . S
H893 C913 0.950 . S
H894 C915 0.950 1_655 S
H895 C918 0.950 . S
H896 C919 0.950 . S
H897 C921 0.950 . S
H898 C922 0.950 . S
H899 C923 0.951 . S
H900 C925 0.951 . S
H901 C927 0.950 . S
H902 C928 0.950 . S
H903 C930 0.950 . S
H904 C933 0.960 . S
H905 C934 0.950 . S
H906 C936 0.950 . S
H907 C937 0.950 . S
C908 H890 0.951 . S
C908 C909 1.366 . S
C908 C910 1.388 . S
C909 C908 1.366 . S
C909 C913 1.385 . S
C910 H891 0.951 . S
C910 C908 1.388 . S
C910 C911 1.362 . S
C911 C910 1.362 . S
C911 C912 1.430 . S
C911 C914 1.489 1_655 S
C912 H892 0.950 . S
C912 C911 1.430 . S
C912 C913 1.374 . S
C913 H893 0.950 . S
C913 C909 1.385 . S
C913 C912 1.374 . S
C914 C911 1.489 1_455 S
C914 C915 1.373 . S
C914 C916 1.389 . S
C915 H894 0.950 1_455 S
C915 C914 1.373 . S
C915 C931 1.377 . S
C916 C914 1.389 . S
C916 C917 1.524 . S
C916 C930 1.377 . S
C917 C916 1.524 . S
C917 C918 1.397 . S
C917 C922 1.363 . S
C918 H895 0.950 . S
C918 C917 1.397 . S
C918 C919 1.334 . S
C919 H896 0.950 . S
C919 C918 1.334 . S
C919 C920 1.287 . S
C920 C919 1.287 . S
C920 C921 1.524 . S
C920 H939 0.913 . S
C921 H897 0.950 . S
C921 C920 1.524 . S
C921 C922 1.415 . S
C922 H898 0.950 . S
C922 C917 1.363 . S
C922 C921 1.415 . S
C923 H899 0.951 . S
C923 C924 1.366 . S
C923 C925 1.388 . S
C924 C923 1.366 . S
C924 C928 1.385 . S
C925 H900 0.951 . S
C925 C923 1.388 . S
C925 C926 1.366 . S
C926 C925 1.366 . S
C926 C927 1.414 . S
C926 C929 1.499 . S
C927 H901 0.950 . S
C927 C926 1.414 . S
C927 C928 1.374 . S
C928 H902 0.950 . S
C928 C924 1.385 . S
C928 C927 1.374 . S
C929 C926 1.499 . S
C929 C930 1.373 . S
C929 C931 1.389 . S
C930 H903 0.950 . S
C930 C916 1.377 . S
C930 C929 1.373 . S
C931 C915 1.377 . S
C931 C929 1.389 . S
C931 C932 1.524 . S
C932 C931 1.524 . S
C932 C933 1.397 1_455 S
C932 C937 1.363 . S
C933 H904 0.960 . S
C933 C932 1.397 1_655 S
C933 C934 1.334 . S
C934 H905 0.950 . S
C934 C933 1.334 . S
C934 C935 1.287 . S
C935 C934 1.287 . S
C935 C936 1.524 . S
C935 H938 0.999 . S
C936 H906 0.950 . S
C936 C935 1.524 . S
C936 C937 1.415 1_655 S
C937 H907 0.950 . S
C937 C932 1.363 . S
C937 C936 1.415 1_455 S
H938 C935 0.999 . S
H939 C920 0.913 . S
H940 C958 0.951 1_545 S
H941 C960 0.951 . S
H942 C962 0.950 . S
H943 C963 0.950 . S
H944 C965 0.950 . S
H945 C968 0.950 1_565 S
H946 C969 0.950 . S
H947 C971 0.950 . S
H948 C972 0.950 . S
H949 C973 0.951 . S
H950 C975 0.951 . S
H951 C977 0.950 . S
H952 C978 0.950 . S
H953 C980 0.950 . S
H954 C983 0.950 . S
H955 C984 0.950 . S
H956 C986 0.950 1_565 S
H957 C987 0.950 1_565 S
C958 H940 0.951 1_565 S
C958 C959 1.366 . S
C958 C960 1.388 1_565 S
C959 C958 1.366 . S
C959 C963 1.385 . S
C960 H941 0.951 . S
C960 C958 1.388 1_545 S
C960 C961 1.366 1_545 S
C961 C960 1.366 1_565 S
C961 C962 1.414 . S
C961 C964 1.499 1_565 S
C962 H942 0.950 . S
C962 C961 1.414 . S
C962 C963 1.374 . S
C963 H943 0.950 . S
C963 C959 1.385 . S
C963 C962 1.374 . S
C964 C961 1.499 1_545 S
C964 C965 1.373 . S
C964 C966 1.389 . S
C965 H944 0.950 . S
C965 C964 1.373 . S
C965 C981 1.377 . S
C966 C964 1.389 . S
C966 C967 1.524 . S
C966 C980 1.377 . S
C967 C966 1.524 . S
C967 C968 1.397 . S
C967 C972 1.363 . S
C968 H945 0.950 1_545 S
C968 C967 1.397 . S
C968 C969 1.334 1_545 S
C969 H946 0.950 . S
C969 C968 1.334 1_565 S
C969 C970 1.287 1_565 S
C970 C969 1.287 1_545 S
C970 C971 1.524 . S
C970 H989 0.913 . S
C971 H947 0.950 . S
C971 C970 1.524 . S
C971 C972 1.415 . S
C972 H948 0.950 . S
C972 C967 1.363 . S
C972 C971 1.415 . S
C973 H949 0.951 . S
C973 C974 1.366 . S
C973 C975 1.388 . S
C974 C973 1.366 . S
C974 C978 1.385 . S
C975 H950 0.951 . S
C975 C973 1.388 . S
C975 C976 1.366 . S
C976 C975 1.366 . S
C976 C977 1.414 . S
C976 C979 1.499 . S
C977 H951 0.950 . S
C977 C976 1.414 . S
C977 C978 1.374 . S
C978 H952 0.950 . S
C978 C974 1.385 . S
C978 C977 1.374 . S
C979 C976 1.499 . S
C979 C980 1.373 . S
C979 C981 1.389 . S
C980 H953 0.950 . S
C980 C966 1.377 . S
C980 C979 1.373 . S
C981 C965 1.377 . S
C981 C979 1.389 . S
C981 C982 1.524 . S
C982 C981 1.524 . S
C982 C983 1.397 . S
C982 C987 1.363 . S
C983 H954 0.950 . S
C983 C982 1.397 . S
C983 C984 1.334 . S
C984 H955 0.950 . S
C984 C983 1.334 . S
C984 C985 1.287 . S
C985 C984 1.287 . S
C985 C986 1.524 . S
C985 H988 0.999 . S
C986 H956 0.950 1_545 S
C986 C985 1.524 . S
C986 C987 1.415 . S
C987 H957 0.950 1_545 S
C987 C982 1.363 . S
C987 C986 1.415 . S
H988 C985 0.999 . S
H989 C970 0.913 . S
H990 C1008 0.951 . S
H991 C1010 0.951 . S
H992 C1012 0.950 . S
H993 C1013 0.950 . S
H994 C1015 0.950 . S
H995 C1018 0.950 . S
H996 C1019 0.950 . S
H997 C1021 0.950 . S
H998 C1022 0.950 . S
H999 C1023 0.951 . S
H1000 C1025 0.951 . S
H1001 C1027 0.950 . S
H1002 C1028 0.950 . S
H1003 C1030 0.950 . S
H1004 C1033 0.950 . S
H1005 C1034 0.950 . S
H1006 C1036 0.950 . S
H1007 C1037 0.950 . S
C1008 H990 0.951 . S
C1008 C1009 1.366 . S
C1008 C1010 1.388 . S
C1009 C1008 1.366 . S
C1009 C1013 1.385 . S
C1010 H991 0.951 . S
C1010 C1008 1.388 . S
C1010 C1011 1.366 . S
C1011 C1010 1.366 . S
C1011 C1012 1.414 . S
C1011 C1014 1.499 . S
C1012 H992 0.950 . S
C1012 C1011 1.414 . S
C1012 C1013 1.374 . S
C1013 H993 0.950 . S
C1013 C1009 1.385 . S
C1013 C1012 1.374 . S
C1014 C1011 1.499 . S
C1014 C1015 1.373 . S
C1014 C1016 1.389 . S
C1015 H994 0.950 . S
C1015 C1014 1.373 . S
C1015 C1031 1.377 . S
C1016 C1014 1.389 . S
C1016 C1017 1.524 . S
C1016 C1030 1.377 . S
C1017 C1016 1.524 . S
C1017 C1018 1.397 . S
C1017 C1022 1.363 . S
C1018 H995 0.950 . S
C1018 C1017 1.397 . S
C1018 C1019 1.334 . S
C1019 H996 0.950 . S
C1019 C1018 1.334 . S
C1019 C1020 1.287 . S
C1020 C1019 1.287 . S
C1020 C1021 1.524 . S
C1020 H1039 0.913 . S
C1021 H997 0.950 . S
C1021 C1020 1.524 . S
C1021 C1022 1.415 . S
C1022 H998 0.950 . S
C1022 C1017 1.363 . S
C1022 C1021 1.415 . S
C1023 H999 0.951 . S
C1023 C1024 1.366 . S
C1023 C1025 1.388 . S
C1024 C1023 1.366 . S
C1024 C1028 1.385 . S
C1025 H1000 0.951 . S
C1025 C1023 1.388 . S
C1025 C1026 1.366 . S
C1026 C1025 1.366 . S
C1026 C1027 1.414 . S
C1026 C1029 1.499 . S
C1027 H1001 0.950 . S
C1027 C1026 1.414 . S
C1027 C1028 1.374 . S
C1028 H1002 0.950 . S
C1028 C1024 1.385 . S
C1028 C1027 1.374 . S
C1029 C1026 1.499 . S
C1029 C1030 1.373 . S
C1029 C1031 1.389 . S
C1030 H1003 0.950 . S
C1030 C1016 1.377 . S
C1030 C1029 1.373 . S
C1031 C1015 1.377 . S
C1031 C1029 1.389 . S
C1031 C1032 1.524 . S
C1032 C1031 1.524 . S
C1032 C1033 1.397 . S
C1032 C1037 1.363 . S
C1033 H1004 0.950 . S
C1033 C1032 1.397 . S
C1033 C1034 1.334 . S
C1034 H1005 0.950 . S
C1034 C1033 1.334 . S
C1034 C1035 1.287 . S
C1035 C1034 1.287 . S
C1035 C1036 1.524 . S
C1035 H1038 0.999 . S
C1036 H1006 0.950 . S
C1036 C1035 1.524 . S
C1036 C1037 1.415 . S
C1037 H1007 0.950 . S
C1037 C1032 1.363 . S
C1037 C1036 1.415 . S
H1038 C1035 0.999 . S
H1039 C1020 0.913 . S
H1040 C1058 0.951 . S
H1041 C1060 0.951 . S
H1042 C1062 0.950 1_655 S
H1043 C1063 0.950 . S
H1044 C1065 0.950 . S
H1045 C1068 0.950 . S
H1046 C1069 0.950 . S
H1047 C1071 0.950 . S
H1048 C1072 0.950 . S
H1049 C1073 0.951 . S
H1050 C1075 0.951 . S
H1051 C1077 0.950 . S
H1052 C1078 0.950 . S
H1053 C1080 0.950 . S
H1054 C1083 0.950 . S
H1055 C1084 0.950 . S
H1056 C1086 0.950 . S
H1057 C1087 0.950 . S
C1058 H1040 0.951 . S
C1058 C1059 1.366 . S
C1058 C1060 1.388 . S
C1059 C1058 1.366 . S
C1059 C1063 1.385 . S
C1060 H1041 0.951 . S
C1060 C1058 1.388 . S
C1060 C1061 1.366 . S
C1061 C1060 1.366 . S
C1061 C1062 1.414 . S
C1061 C1064 1.499 1_455 S
C1062 H1042 0.950 1_455 S
C1062 C1061 1.414 . S
C1062 C1063 1.374 . S
C1063 H1043 0.950 . S
C1063 C1059 1.385 . S
C1063 C1062 1.374 . S
C1064 C1061 1.499 1_655 S
C1064 C1065 1.373 . S
C1064 C1066 1.403 . S
C1065 H1044 0.950 . S
C1065 C1064 1.373 . S
C1065 C1081 1.377 . S
C1066 C1064 1.403 . S
C1066 C1067 1.502 1_655 S
C1066 C1080 1.385 . S
C1067 C1066 1.502 1_455 S
C1067 C1068 1.397 . S
C1067 C1072 1.363 . S
C1068 H1045 0.950 . S
C1068 C1067 1.397 . S
C1068 C1069 1.334 . S
C1069 H1046 0.950 . S
C1069 C1068 1.334 . S
C1069 C1070 1.287 . S
C1070 C1069 1.287 . S
C1070 C1071 1.524 . S
C1070 H1089 0.913 . S
C1071 H1047 0.950 . S
C1071 C1070 1.524 . S
C1071 C1072 1.415 . S
C1072 H1048 0.950 . S
C1072 C1067 1.363 . S
C1072 C1071 1.415 . S
C1073 H1049 0.951 . S
C1073 C1074 1.366 . S
C1073 C1075 1.388 . S
C1074 C1073 1.366 . S
C1074 C1078 1.385 . S
C1075 H1050 0.951 . S
C1075 C1073 1.388 . S
C1075 C1076 1.366 . S
C1076 C1075 1.366 . S
C1076 C1077 1.414 . S
C1076 C1079 1.499 . S
C1077 H1051 0.950 . S
C1077 C1076 1.414 . S
C1077 C1078 1.374 . S
C1078 H1052 0.950 . S
C1078 C1074 1.385 . S
C1078 C1077 1.374 . S
C1079 C1076 1.499 . S
C1079 C1080 1.373 . S
C1079 C1081 1.389 . S
C1080 H1053 0.950 . S
C1080 C1066 1.385 . S
C1080 C1079 1.373 . S
C1081 C1065 1.377 . S
C1081 C1079 1.389 . S
C1081 C1082 1.524 . S
C1082 C1081 1.524 . S
C1082 C1083 1.397 . S
C1082 C1087 1.363 . S
C1083 H1054 0.950 . S
C1083 C1082 1.397 . S
C1083 C1084 1.334 . S
C1084 H1055 0.950 . S
C1084 C1083 1.334 . S
C1084 C1085 1.287 . S
C1085 C1084 1.287 . S
C1085 C1086 1.524 . S
C1085 H1088 0.999 . S
C1086 H1056 0.950 . S
C1086 C1085 1.524 . S
C1086 C1087 1.415 . S
C1087 H1057 0.950 . S
C1087 C1082 1.363 . S
C1087 C1086 1.415 . S
H1088 C1085 0.999 . S
H1089 C1070 0.913 . S
H1090 C1108 0.951 1_565 S
H1091 C1110 0.951 . S
H1092 C1112 0.950 . S
H1093 C1113 0.950 . S
H1094 C1115 0.950 1_545 S
H1095 C1118 0.950 . S
H1096 C1119 0.950 . S
H1097 C1121 0.950 . S
H1098 C1122 0.950 . S
H1099 C1123 0.951 . S
H1100 C1125 0.951 . S
H1101 C1127 0.950 . S
H1102 C1128 0.950 . S
H1103 C1130 0.950 . S
H1104 C1133 0.950 . S
H1105 C1134 0.950 . S
H1106 C1136 0.950 . S
H1107 C1137 0.950 . S
C1108 H1090 0.951 1_545 S
C1108 C1109 1.366 . S
C1108 C1110 1.388 1_545 S
C1109 C1108 1.366 . S
C1109 C1113 1.385 . S
C1110 H1091 0.951 . S
C1110 C1108 1.388 1_565 S
C1110 C1111 1.366 1_565 S
C1111 C1110 1.366 1_545 S
C1111 C1112 1.414 . S
C1111 C1114 1.499 1_545 S
C1112 H1092 0.950 . S
C1112 C1111 1.414 . S
C1112 C1113 1.374 . S
C1113 H1093 0.950 . S
C1113 C1109 1.385 . S
C1113 C1112 1.374 . S
C1114 C1111 1.499 1_565 S
C1114 C1115 1.373 . S
C1114 C1116 1.389 . S
C1115 H1094 0.950 1_565 S
C1115 C1114 1.373 . S
C1115 C1131 1.377 . S
C1116 C1114 1.389 . S
C1116 C1117 1.524 . S
C1116 C1130 1.377 . S
C1117 C1116 1.524 . S
C1117 C1118 1.397 . S
C1117 C1122 1.363 . S
C1118 H1095 0.950 . S
C1118 C1117 1.397 . S
C1118 C1119 1.334 . S
C1119 H1096 0.950 . S
C1119 C1118 1.334 . S
C1119 C1120 1.287 . S
C1120 C1119 1.287 . S
C1120 C1121 1.524 . S
C1120 H1139 0.913 . S
C1121 H1097 0.950 . S
C1121 C1120 1.524 . S
C1121 C1122 1.415 . S
C1122 H1098 0.950 . S
C1122 C1117 1.363 . S
C1122 C1121 1.415 . S
C1123 H1099 0.951 . S
C1123 C1124 1.366 . S
C1123 C1125 1.388 . S
C1124 C1123 1.366 . S
C1124 C1128 1.385 . S
C1125 H1100 0.951 . S
C1125 C1123 1.388 . S
C1125 C1126 1.366 . S
C1126 C1125 1.366 . S
C1126 C1127 1.414 . S
C1126 C1129 1.499 . S
C1127 H1101 0.950 . S
C1127 C1126 1.414 . S
C1127 C1128 1.374 . S
C1128 H1102 0.950 . S
C1128 C1124 1.385 . S
C1128 C1127 1.374 . S
C1129 C1126 1.499 . S
C1129 C1130 1.373 . S
C1129 C1131 1.389 . S
C1130 H1103 0.950 . S
C1130 C1116 1.377 . S
C1130 C1129 1.373 . S
C1131 C1115 1.377 . S
C1131 C1129 1.389 . S
C1131 C1132 1.524 . S
C1132 C1131 1.524 . S
C1132 C1133 1.397 . S
C1132 C1137 1.363 1_565 S
C1133 H1104 0.950 . S
C1133 C1132 1.397 . S
C1133 C1134 1.334 . S
C1134 H1105 0.950 . S
C1134 C1133 1.334 . S
C1134 C1135 1.287 1_565 S
C1135 C1134 1.287 1_545 S
C1135 C1136 1.524 . S
C1135 H1138 0.999 . S
C1136 H1106 0.950 . S
C1136 C1135 1.524 . S
C1136 C1137 1.415 . S
C1137 H1107 0.950 . S
C1137 C1132 1.363 1_545 S
C1137 C1136 1.415 . S
H1138 C1135 0.999 . S
H1139 C1120 0.913 . S
C259 C171 1.157 . S
C274 C7 1.162 . S
C309 C211 1.158 . S
C324 C47 1.162 . S
C359 C11 1.157 . S
C374 C87 1.162 . S
C409 C51 1.157 . S
C424 C127 1.162 . S
C459 C91 1.157 . S
C474 C167 1.162 . S
C509 C131 1.157 . S
C524 C207 1.162 . S
C559 C10 0.645 . S
C574 C130 0.644 . S
C609 C170 0.643 . S
C624 C50 0.644 . S
C659 C210 0.643 . S
C674 C90 0.644 . S
C709 C99 0.586 . S
C724 C219 0.585 . S
C759 C19 0.586 . S
C774 C139 0.587 . S
C809 C179 0.587 . S
C824 C59 0.587 . S
C859 C202 1.249 . S
C874 C16 1.231 . S
C909 C56 1.231 . S
C924 C2 1.248 . S
C959 C96 1.232 . S
C974 C42 1.248 . S
C1009 C82 1.249 . S
C1024 C136 1.232 . S
C1059 C176 1.231 . S
C1074 C122 1.249 . S
C1109 C216 1.232 . S
C1124 C162 1.248 . S
