# Generated by pormake.
# Topology sma, (6)-cn, num edge types: 1
# Building blocks:
#     Node 0, Type 0, BuildingBlock: BETDAH_clean_sbu_0, # of connection points: 6
#     Node 1, Type 0, BuildingBlock: BETDAH_clean_sbu_0, # of connection points: 6
#     Node 2, Type 0, BuildingBlock: BETDAH_clean_sbu_0, # of connection points: 6
#     Edge 3, Type (0, 0), BuildingBlock: ZUJKAS_clean_linker_0, # of connection points: 2
#     Edge 4, Type (0, 0), BuildingBlock: ZUJKAS_clean_linker_0, # of connection points: 2
#     Edge 5, Type (0, 0), BuildingBlock: ZUJKAS_clean_linker_0, # of connection points: 2
#     Edge 6, Type (0, 0), BuildingBlock: ZUJKAS_clean_linker_0, # of connection points: 2
#     Edge 7, Type (0, 0), BuildingBlock: ZUJKAS_clean_linker_0, # of connection points: 2
#     Edge 8, Type (0, 0), BuildingBlock: ZUJKAS_clean_linker_0, # of connection points: 2
#     Edge 9, Type (0, 0), BuildingBlock: ZUJKAS_clean_linker_0, # of connection points: 2
#     Edge 10, Type (0, 0), BuildingBlock: ZUJKAS_clean_linker_0, # of connection points: 2
#     Edge 11, Type (0, 0), BuildingBlock: ZUJKAS_clean_linker_0, # of connection points: 2
# Relax obj value: 0.122
# Max RMSD: 0.249
# Mean RMSD: 0.204
data_MOF--net-sma--node1-BETDAH_clean_sbu_0--edge1-ZUJKAS_clean_linker_0
_symmetry_space_group_name_H-M    P1
_symmetry_Int_Tables_number       1
_symmetry_cell_setting            triclinic
loop_
_symmetry_equiv_pos_as_xyz
'x, y, z'
_cell_length_a     49.282872
_cell_length_b     56.451906
_cell_length_c     17.434426
_cell_angle_alpha  94.11091
_cell_angle_beta   89.368324
_cell_angle_gamma 135.95753
loop_
_atom_site_label
_atom_site_type_symbol
_atom_site_fract_x
_atom_site_fract_y
_atom_site_fract_z
_atom_type_partial_charge
Ho0 Ho 0.10198 0.61625 0.18015 0.0
Ho1 Ho 1.05741 0.63396 0.23518 0.0
C2 C 0.15075 0.6972 0.22466 0.0
C3 C 0.13932 0.60684 0.10155 0.0
C4 C 0.17608 0.6159 0.09527 0.0
C5 C 0.19399 0.62498 0.02462 0.0
C6 C 0.22477 0.62826 0.01267 0.0
C7 C 0.23845 0.62235 0.07104 0.0
C8 C 0.22133 0.61441 0.14275 0.0
C9 C 0.19058 0.6112 0.15471 0.0
C10 C 0.10017 0.62216 0.33462 0.0
C11 C 1.01418 0.55575 0.22621 0.0
C12 C 1.01091 0.63837 0.28407 0.0
C13 C 0.98829 0.64404 0.25125 0.0
C14 C 0.95006 0.62442 0.27355 0.0
C15 C 0.92735 0.62821 0.24229 0.0
C16 C 0.9422 0.65186 0.18768 0.0
C17 C 0.98077 0.67181 0.16589 0.0
C18 C 1.00347 0.66785 0.19701 0.0
C19 C 0.06632 0.63239 0.08265 0.0
O20 O 0.14976 0.67506 0.18711 0.0
O21 O 0.11938 0.68653 0.25764 0.0
O22 O 0.11723 0.58898 0.15793 0.0
O23 O 0.13932 0.62921 0.08613 0.0
O24 O 0.10259 0.603 0.29785 0.0
O25 O 0.10238 0.63939 0.28806 0.0
O26 O 1.02014 0.57996 0.26756 0.0
O27 O 1.03921 0.56401 0.17444 0.0
O28 O 1.04909 0.66401 0.29046 0.0
O29 O 0.99915 0.60958 0.26029 0.0
O30 O 0.06497 0.65218 0.11907 0.0
O31 O 0.05886 0.61226 0.12769 0.0
H32 H 0.18314 0.62828 -0.02266 0.0
H33 H 0.23673 0.63405 0.95642 0.0
H34 H 0.23138 0.61025 0.18963 0.0
H35 H 0.17744 0.60406 0.20986 0.0
H36 H 0.93759 0.60589 0.31522 0.0
H37 H 0.89814 0.61273 0.2616 0.0
H38 H 0.99319 0.69003 0.12351 0.0
H39 H 1.03273 0.68319 0.17811 0.0
Ho40 Ho 0.61202 0.12389 0.40071 0.0
Ho41 Ho 0.56778 0.1403 0.34702 0.0
C42 C 0.5167 0.06101 0.35443 0.0
C43 C 0.6366 0.10404 0.47877 0.0
C44 C 0.62937 0.07407 0.49192 0.0
C45 C 0.6144 0.05865 0.56146 0.0
C46 C 0.61221 1.03348 0.57944 0.0
C47 C 0.62523 1.02317 0.5286 0.0
C48 C 0.63925 1.03801 0.45811 0.0
C49 C 0.64137 0.06313 0.4401 0.0
C50 C 0.60533 0.12193 0.24692 0.0
C51 C 0.6633 0.20052 0.36139 0.0
C52 C 0.54279 0.16466 0.29866 0.0
C53 C 0.54194 0.18859 0.33618 0.0
C54 C 0.54389 0.20961 0.29216 0.0
C55 C 0.54286 0.23213 0.32742 0.0
C56 C 0.53969 0.23404 0.40762 0.0
C57 C 0.53806 0.21307 0.45149 0.0
C58 C 0.53931 0.19077 0.4163 0.0
C59 C 0.57487 0.14036 0.50042 0.0
O60 O 0.54731 0.07175 0.39476 0.0
O61 O 0.51991 0.08292 0.31861 0.0
O62 O 0.65008 0.11747 0.41305 0.0
O63 O 0.61145 0.10404 0.50366 0.0
O64 O 0.63462 0.13071 0.28344 0.0
O65 O 0.57986 0.11231 0.29313 0.0
O66 O 0.63097 0.18755 0.32483 0.0
O67 O 0.66236 0.18187 0.40622 0.0
O68 O 0.52028 0.13492 0.32624 0.0
O69 O 0.57725 0.17762 0.28478 0.0
O70 O 0.54512 0.13092 0.46543 0.0
O71 O 0.60025 0.15173 0.45292 0.0
H72 H 0.60549 0.06684 0.60328 0.0
H73 H 0.60168 1.02306 0.63463 0.0
H74 H 0.649 1.03045 0.41691 0.0
H75 H 0.65336 0.07455 0.38626 0.0
H76 H 0.54604 0.20851 0.23036 0.0
H77 H 0.54389 0.24763 0.29159 0.0
H78 H 0.53628 0.21417 0.5134 0.0
H79 H 0.53819 0.17516 0.45191 0.0
Ho80 Ho 0.62342 0.67555 0.88347 0.0
Ho81 Ho 0.56977 0.5976 0.89297 0.0
C82 C 0.53168 0.62667 0.90074 0.0
C83 C 0.66578 0.7353 0.83391 0.0
C84 C 0.66004 0.75615 0.80937 0.0
C85 C 0.62287 0.74131 0.78678 0.0
C86 C 0.61834 0.76166 0.76321 0.0
C87 C 0.65089 0.79734 0.76172 0.0
C88 C 0.68798 0.81196 0.78517 0.0
C89 C 0.69244 0.79162 0.80859 0.0
C90 C 0.59936 0.65445 0.02359 0.0
C91 C 0.66272 0.64796 0.91174 0.0
C92 C 0.5247 0.53278 0.90084 0.0
C93 C 0.52605 0.50908 0.86442 0.0
C94 C 0.56145 0.52149 0.84062 0.0
C95 C 0.56251 0.49921 0.80418 0.0
C96 C 0.52812 0.4639 0.78999 0.0
C97 C 0.49269 0.45163 0.81406 0.0
C98 C 0.49171 0.47396 0.85078 0.0
C99 C 0.5911 0.62081 0.75129 0.0
O100 O 0.56378 0.65465 0.87151 0.0
O101 O 0.52881 0.60271 0.92158 0.0
O102 O 0.6623 0.73024 0.90703 0.0
O103 O 0.64946 0.70775 0.78903 0.0
O104 O 0.60873 0.68093 0.00123 0.0
O105 O 0.60769 0.64328 0.97437 0.0
O106 O 0.62754 0.61758 0.92259 0.0
O107 O 0.66814 0.67336 0.89073 0.0
O108 O 0.5172 0.54478 0.8539 0.0
O109 O 0.5529 0.55649 0.95246 0.0
O110 O 0.59131 0.6 0.77661 0.0
O111 O 0.58145 0.62922 0.80453 0.0
H112 H 0.59737 0.71397 0.787 0.0
H113 H 0.58938 0.74932 0.74499 0.0
H114 H 0.71367 0.8393 0.78637 0.0
H115 H 0.72136 0.80368 0.82624 0.0
H116 H 0.58837 0.54852 0.85 0.0
H117 H 0.59045 0.5097 0.78776 0.0
H118 H 0.46549 0.4248 0.80329 0.0
H119 H 0.464 0.46383 0.86791 0.0
H120 H 0.24293 0.5799 0.12053 0.0
H121 H 0.29214 0.58034 0.09393 0.0
H122 H 0.35209 0.66568 0.95811 0.0
H123 H 0.30371 0.66613 -0.0137 0.0
H124 H 0.31231 0.57116 0.95475 0.0
H125 H 0.44108 0.69927 0.09961 0.0
H126 H 0.3916 0.67772 0.11432 0.0
H127 H 0.41512 0.69972 0.02938 0.0
C128 C 0.26692 0.59921 0.08608 0.0
C129 C 0.26925 0.62316 0.05617 0.0
C130 C 0.29495 0.59921 0.07032 0.0
C131 C 0.32633 0.62332 0.02478 0.0
C132 C 0.3287 0.64718 -0.00541 0.0
H133 H 0.52443 0.6674 0.85425 0.0
H134 H 0.47384 0.66485 0.88355 0.0
C135 C 0.30064 0.64716 0.01014 0.0
C136 C 0.3559 0.62293 0.00735 0.0
H137 H 0.45386 0.67218 0.02191 0.0
C138 C 0.34323 0.5932 0.96988 0.0
C139 C 0.39637 0.65162 0.02692 0.0
C140 C 0.41192 0.68379 0.07043 0.0
C141 C 0.36981 0.59167 0.94975 0.0
C142 C 0.41033 0.62046 0.96887 0.0
C143 C 0.42293 0.65009 0.00689 0.0
C144 C 0.44028 0.62074 0.94893 0.0
C145 C 0.35428 0.55954 0.90603 0.0
C146 C 0.43867 0.59682 0.97575 0.0
C147 C 0.46764 0.59808 0.95862 0.0
C148 C 0.49919 0.6235 0.91476 0.0
C149 C 0.50063 0.64734 0.88792 0.0
C150 C 0.47166 0.64599 0.90486 0.0
H151 H 0.32491 0.54387 0.87763 0.0
H152 H 0.37437 0.56569 0.86144 0.0
H153 H 0.35154 0.54377 0.94677 0.0
H154 H 0.41542 0.57754 0.01139 0.0
H155 H 0.46574 0.57959 -0.01872 0.0
H156 H 0.67389 0.24622 0.2798 0.0
H157 H 0.73426 0.30483 0.25877 0.0
H158 H 0.79973 0.29714 0.39485 0.0
H159 H 0.7388 0.2381 0.41753 0.0
H160 H 0.82584 0.35869 0.42922 0.0
H161 H 0.81645 0.33649 0.11244 0.0
H162 H 0.77355 0.32396 0.14689 0.0
H163 H 0.78534 0.30182 0.17329 0.0
C164 C 0.70101 0.25672 0.30533 0.0
C165 C 0.70106 0.23689 0.35014 0.0
C166 C 0.73583 0.29046 0.29261 0.0
C167 C 0.77215 0.30564 0.32347 0.0
C168 C 0.77235 0.28621 0.36957 0.0
H169 H 0.99503 0.49827 0.16582 0.0
H170 H 0.93854 0.43848 0.19137 0.0
C171 C 0.73735 0.25229 0.38253 0.0
C172 C 0.80943 0.34182 0.30858 0.0
H173 H 0.86217 0.39492 0.16453 0.0
C174 C 0.83383 0.36647 0.37124 0.0
C175 C 0.82075 0.35237 0.23304 0.0
C176 C 0.79788 0.32721 0.16258 0.0
C177 C 0.86808 0.40109 0.3607 0.0
C178 C 0.87826 0.41201 0.2852 0.0
C179 C 0.8545 0.38712 0.22254 0.0
C180 C 0.91321 0.44893 0.26992 0.0
C181 C 0.89335 0.42547 0.431 0.0
C182 C 0.91811 0.47526 0.30409 0.0
C183 C 0.95062 0.50961 0.28985 0.0
C184 C 0.97918 0.51884 0.24002 0.0
C185 C 0.97389 0.49241 0.20458 0.0
C186 C 0.94141 0.45802 0.21922 0.0
H187 H 0.88904 0.4117 0.48005 0.0
H188 H 0.92482 0.44494 0.41895 0.0
H189 H 0.88521 0.43886 0.44917 0.0
H190 H 0.89651 0.46928 0.34147 0.0
H191 H 0.9532 0.52896 0.31781 0.0
H192 H 0.68147 1.02453 0.50261 0.0
H193 H 0.68301 0.98457 0.53996 0.0
H194 H 0.57279 0.92593 0.64435 0.0
H195 H 0.57041 0.96525 0.60519 0.0
H196 H 0.68393 0.96898 0.68578 0.0
H197 H 0.55295 0.85166 0.51226 0.0
H198 H 0.57563 0.89379 0.49572 0.0
H199 H 0.54402 0.87213 0.57386 0.0
C200 C 0.65714 1.00282 0.5323 0.0
C201 C 0.62565 0.99814 0.55022 0.0
C202 C 0.65824 0.98008 0.55422 0.0
C203 C 0.62778 0.95184 0.59415 0.0
C204 C 0.59633 0.94708 0.61235 0.0
H205 H 0.59126 0.79191 0.78782 0.0
H206 H 0.58533 0.82883 0.74786 0.0
C207 C 0.59524 0.96988 0.5906 0.0
C208 C 0.62978 0.92824 0.61891 0.0
H209 H 0.58236 0.84477 0.60164 0.0
C210 C 0.66176 0.94185 0.66709 0.0
C211 C 0.60082 0.89272 0.59499 0.0
C212 C 0.56657 0.87666 0.54081 0.0
C213 C 0.66537 0.92104 0.69257 0.0
C214 C 0.6366 0.88558 0.66817 0.0
C215 C 0.60444 0.87188 0.62047 0.0
C216 C 0.63972 0.86248 0.69074 0.0
C217 C 0.69964 0.93716 0.74679 0.0
C218 C 0.67183 0.86849 0.6707 0.0
C219 C 0.67522 0.8473 0.69307 0.0
C220 C 0.64648 0.81933 0.73594 0.0
C221 C 0.61387 0.81293 0.75446 0.0
C222 C 0.6105 0.83418 0.73193 0.0
H223 H 0.71267 0.96179 0.7765 0.0
H224 H 0.69084 0.91978 0.79097 0.0
H225 H 0.72261 0.94246 0.71349 0.0
H226 H 0.69431 0.88957 0.63727 0.0
H227 H 0.70029 0.85269 0.67596 0.0
H228 H 0.74213 0.70844 0.93347 0.0
H229 H 0.79538 0.71485 0.9709 0.0
H230 H 0.71245 0.60533 0.96834 0.0
H231 H 0.65994 0.59871 0.93032 0.0
H232 H 0.80488 0.69492 0.10141 0.0
H233 H 0.79623 0.62717 0.84183 0.0
H234 H 0.773 0.64131 0.84417 0.0
H235 H 0.74958 0.60182 0.88244 0.0
C236 C 0.73539 0.68574 0.93971 0.0
C237 C 0.69653 0.65307 0.92844 0.0
C238 C 0.76586 0.68942 0.96154 0.0
C239 C 0.75824 0.66053 0.97148 0.0
C240 C 0.71955 0.62805 0.95954 0.0
H241 H 0.86373 0.60085 0.14357 0.0
H242 H 0.82267 0.60617 0.09108 0.0
C243 C 0.68931 0.62436 0.93816 0.0
C244 C 0.78983 0.66374 -0.00255 0.0
H245 H 0.82858 0.63303 0.95513 0.0
C246 C 0.81053 0.68187 0.06879 0.0
C247 C 0.7974 0.64671 0.95529 0.0
C248 C 0.77817 0.62846 0.87634 0.0
C249 C 0.83695 0.68202 0.10048 0.0
C250 C 0.8434 0.66393 0.05948 0.0
C251 C 0.82359 0.64671 -0.01287 0.0
C252 C 0.8692 0.66128 0.09179 0.0
C253 C 0.85645 0.70032 0.17925 0.0
C254 C 0.90943 0.69041 0.10909 0.0
C255 C 0.93315 0.68745 0.13944 0.0
C256 C 0.91728 0.65525 0.15347 0.0
C257 C 0.87706 0.62614 0.13505 0.0
C258 C 0.85347 0.62912 0.1044 0.0
H259 H 0.8421 0.70652 0.2102 0.0
H260 H 0.85608 0.68458 0.21494 0.0
H261 H 0.88741 0.72466 0.17307 0.0
H262 H 0.9226 0.7155 0.09877 0.0
H263 H 0.96386 0.71049 0.15304 0.0
H264 H 0.44834 1.02943 0.27466 0.0
H265 H 0.38771 0.96834 0.25427 0.0
H266 H 0.43932 0.94554 0.38489 0.0
H267 H 0.49987 1.00675 0.40699 0.0
H268 H 0.37105 0.91537 0.182 0.0
H269 H 0.33797 0.89067 0.48797 0.0
H270 H 0.37536 0.93339 0.45802 0.0
H271 H 0.38511 0.90847 0.46707 0.0
C272 C 0.44686 1.01154 0.29967 0.0
C273 C 0.47929 1.02341 0.34305 0.0
C274 C 0.41198 0.97639 0.28768 0.0
C275 C 0.40821 0.95187 0.31886 0.0
C276 C 0.4407 0.96363 0.36161 0.0
H277 H 0.22209 0.73056 0.16561 0.0
H278 H 0.28409 0.79128 0.18715 0.0
C279 C 0.47562 0.99884 0.37386 0.0
C280 C 0.37065 0.91421 0.30516 0.0
H281 H 0.29841 0.84196 0.39651 0.0
C282 C 0.35526 0.89941 0.2291 0.0
C283 C 0.34931 0.89303 0.36616 0.0
C284 C 0.3625 0.9072 0.44941 0.0
C285 C 0.31984 0.86445 0.21248 0.0
C286 C 0.29907 0.84308 0.27337 0.0
C287 C 0.31424 0.85795 0.34945 0.0
C288 C 0.26107 0.80564 0.25968 0.0
C289 C 0.30448 0.851 0.12965 0.0
C290 C 0.22713 0.79272 0.2943 0.0
C291 C 0.19155 0.75785 0.2823 0.0
C292 C 0.18873 0.73459 0.23571 0.0
C293 C 0.22281 0.7475 0.20148 0.0
C294 C 0.25843 0.78245 0.21343 0.0
H295 H 0.3176 0.87199 0.09275 0.0
H296 H 0.31202 0.83753 0.10712 0.0
H297 H 0.27218 0.83259 0.1245 0.0
H298 H 0.22806 0.80974 0.33048 0.0
H299 H 0.16623 0.74912 0.31015 0.0
H300 H 0.48557 0.39745 0.81726 0.0
H301 H 0.48768 0.35902 0.75163 0.0
H302 H 0.57522 0.43766 0.60644 0.0
H303 H 0.57296 0.47608 0.67072 0.0
H304 H 0.47272 0.33475 0.59623 0.0
H305 H 0.62563 0.41006 0.6903 0.0
H306 H 0.59897 0.41778 0.73436 0.0
H307 H 0.6203 0.43396 0.64361 0.0
C308 C 0.50512 0.40661 0.77102 0.0
C309 C 0.52926 0.44016 0.74993 0.0
C310 C 0.50643 0.38457 0.73373 0.0
C311 C 0.53208 0.39553 0.67481 0.0
C312 C 0.55586 0.42879 0.65293 0.0
H313 H 0.58188 0.30006 0.37797 0.0
H314 H 0.57902 0.33844 0.44074 0.0
C315 C 0.55453 0.45082 0.69001 0.0
C316 C 0.53342 0.37197 0.6353 0.0
H317 H 0.59421 0.3632 0.59624 0.0
C318 C 0.49925 0.34092 0.59658 0.0
C319 C 0.56803 0.37994 0.63539 0.0
C320 C 0.60526 0.41208 0.67869 0.0
C321 C 0.49892 0.31803 0.55704 0.0
C322 C 0.53352 0.32598 0.55717 0.0
C323 C 0.5677 0.35705 0.59582 0.0
C324 C 0.53477 0.3023 0.51826 0.0
C325 C 0.46167 0.28584 0.51389 0.0
C326 C 0.51117 0.26921 0.54118 0.0
C327 C 0.51268 0.24716 0.50526 0.0
C328 C 0.53794 0.25762 0.44549 0.0
C329 C 0.56168 0.29087 0.4229 0.0
C330 C 0.56027 0.31297 0.45915 0.0
H331 H 0.44135 0.2879 0.50199 0.0
H332 H 0.46793 0.28002 0.45838 0.0
H333 H 0.44659 0.26403 0.54922 0.0
H334 H 0.49173 0.26047 0.58745 0.0
H335 H 0.49373 0.22172 0.52394 0.0
H336 H 0.1287 0.69744 0.04928 0.0
H337 H 0.16658 0.71579 0.93477 0.0
H338 H 0.09698 0.61034 0.85674 0.0
H339 H 0.06006 0.59198 0.97319 0.0
H340 H 0.17761 0.65888 0.81468 0.0
H341 H 0.1014 0.69525 0.74658 0.0
H342 H 0.13358 0.71592 0.83171 0.0
H343 H 0.08871 0.6711 0.82695 0.0
C344 C 0.12187 0.67827 0.00794 0.0
C345 C 0.09078 0.64326 0.0177 0.0
C346 C 0.14378 0.68881 0.94339 0.0
C347 C 0.13395 0.66435 0.88718 0.0
C348 C 0.10486 0.62953 0.89988 0.0
H349 H 0.09089 0.58706 0.44822 0.0
H350 H 0.11571 0.60867 0.58248 0.0
C351 C 0.08347 0.61902 0.96537 0.0
C352 C 0.14778 0.67366 0.80938 0.0
H353 H 0.12599 0.68773 0.64579 0.0
C354 C 0.16741 0.66615 0.77775 0.0
C355 C 0.13487 0.68368 0.76207 0.0
C356 C 0.11333 0.69185 0.79306 0.0
C357 C 0.17132 0.66539 0.69822 0.0
C358 C 0.15433 0.67151 0.65015 0.0
C359 C 0.13869 0.68274 0.68288 0.0
C360 C 0.14551 0.66047 0.56721 0.0
C361 C 0.1918 0.65638 0.66633 0.0
C362 C 0.15292 0.68208 0.5149 0.0
C363 C 0.13728 0.66934 0.4394 0.0
C364 C 0.11458 0.63495 0.41496 0.0
C365 C 0.10817 0.6136 0.46638 0.0
C366 C 0.12311 0.62616 0.54239 0.0
H367 H 0.21641 0.66697 0.7065 0.0
H368 H 0.17094 0.62813 0.66016 0.0
H369 H 0.20327 0.66616 0.60923 0.0
H370 H 0.16968 0.70849 0.53325 0.0
H371 H 0.14321 0.68648 0.40022 0.0
H372 H 0.53308 0.06636 0.18114 0.0
H373 H 0.51583 0.04481 0.04549 0.0
H374 H 0.63735 0.12657 -0.0048 0.0
H375 H 0.6549 0.14717 0.1319 0.0
H376 H 0.52474 0.08081 0.94602 0.0
H377 H 0.60488 0.05119 0.84859 0.0
H378 H 0.59827 0.05484 0.9494 0.0
H379 H 0.63828 0.09234 0.90224 0.0
C380 C 0.55613 0.07947 0.14116 0.0
C381 C 0.59522 0.10881 0.16592 0.0
C382 C 0.54631 0.06682 0.06406 0.0
C383 C 0.57534 0.0837 0.01053 0.0
C384 C 0.61462 0.11243 0.03586 0.0
H385 H 0.63162 0.16682 0.60828 0.0
H386 H 0.62422 0.14042 0.7235 0.0
C387 C 0.62456 0.12464 0.11343 0.0
C388 C 0.56411 0.07611 0.92771 0.0
H389 H 0.59546 0.07567 0.75314 0.0
C390 C 0.53905 0.07838 0.90355 0.0
C391 C 0.58257 0.07268 0.8726 0.0
C392 C 0.60713 0.06724 0.89482 0.0
C393 C 0.53557 0.08144 0.82657 0.0
C394 C 0.55731 0.08164 0.7726 0.0
C395 C 0.57924 0.07586 0.79526 0.0
C396 C 0.56287 0.09386 0.69689 0.0
C397 C 0.51172 0.08782 0.80518 0.0
C398 C 0.53097 0.07598 0.64399 0.0
C399 C 0.53488 0.09143 0.58008 0.0
C400 C 0.57096 0.12451 0.56776 0.0
C401 C 0.60346 0.14153 0.61806 0.0
C402 C 0.59938 0.12629 0.68273 0.0
H403 H 0.50075 0.09114 0.85637 0.0
H404 H 0.52943 0.11108 0.77364 0.0
H405 H 0.48609 0.06577 0.76685 0.0
H406 H 0.50277 0.05077 0.65392 0.0
H407 H 0.50972 0.07756 0.54041 0.0
H408 H 0.52168 0.59651 0.71048 0.0
H409 H 0.49055 0.5772 0.58108 0.0
H410 H 0.59355 0.60944 0.48777 0.0
H411 H 0.62353 0.62649 0.61814 0.0
H412 H 0.50543 0.60822 0.46766 0.0
H413 H 0.51369 0.51983 0.3684 0.0
H414 H 0.52221 0.53483 0.46902 0.0
H415 H 0.56206 0.55815 0.40516 0.0
C416 C 0.53761 0.59948 0.66202 0.0
C417 C 0.57509 0.61326 0.67316 0.0
C418 C 0.51964 0.58813 0.58844 0.0
C419 C 0.53916 0.59088 0.52499 0.0
C420 C 0.57718 0.60563 0.53623 0.0
H421 H 0.60233 0.6835 0.15702 0.0
H422 H 0.5667 0.65512 0.27062 0.0
C423 C 0.59472 0.61609 0.61016 0.0
C424 C 0.52196 0.58183 0.44618 0.0
H425 H 0.52905 0.55807 0.26954 0.0
C426 C 0.50921 0.59614 0.42433 0.0
C427 C 0.52399 0.56403 0.38961 0.0
C428 C 0.5307 0.54297 0.40983 0.0
C429 C 0.5053 0.5983 0.3466 0.0
C430 C 0.5166 0.58769 0.29094 0.0
C431 C 0.52221 0.56785 0.31221 0.0
C432 C 0.53211 0.60364 0.21773 0.0
C433 C 0.49187 0.61413 0.32559 0.0
C434 C 0.52571 0.58454 0.15068 0.0
C435 C 0.54799 0.60115 0.08758 0.0
C436 C 0.57598 0.63686 0.0896 0.0
C437 C 0.58087 0.65586 0.15458 0.0
C438 C 0.55973 0.63947 0.21881 0.0
H439 H 0.46659 0.60398 0.35943 0.0
H440 H 0.51566 0.6422 0.34099 0.0
H441 H 0.48319 0.60897 0.26329 0.0
H442 H 0.50472 0.55695 0.14834 0.0
H443 H 0.54318 0.58604 0.03731 0.0
loop_
_geom_bond_atom_site_label_1
_geom_bond_atom_site_label_2
_geom_bond_distance
_geom_bond_site_symmetry_2
_ccdc_geom_bond_type
Ho0 C3 2.811 . S
Ho0 O20 2.322 . S
Ho0 O22 2.378 . S
Ho0 O23 2.524 . S
Ho0 O24 2.381 . S
Ho0 O25 2.669 . S
Ho0 O27 2.346 1_455 S
Ho0 O31 2.305 . S
Ho1 C12 2.811 1_455 S
Ho1 O21 2.346 . S
Ho1 O25 2.305 . S
Ho1 O26 2.322 1_455 S
Ho1 O28 2.378 1_455 S
Ho1 O29 2.524 1_455 S
Ho1 O30 2.381 . S
Ho1 O31 2.669 . S
C2 O20 1.259 . S
C2 O21 1.268 . S
C3 Ho0 2.811 . S
C3 C4 1.488 . S
C3 O22 1.215 . S
C3 O23 1.289 . S
C4 C3 1.488 . S
C4 C5 1.348 . S
C4 C9 1.413 . S
C5 C4 1.348 . S
C5 C6 1.442 . S
C5 H32 0.930 . S
C6 C5 1.442 . S
C6 C7 1.381 . S
C6 H33 0.931 . S
C7 C6 1.381 . S
C7 C8 1.321 . S
C8 C7 1.321 . S
C8 C9 1.403 . S
C8 H34 0.934 . S
C9 C4 1.413 . S
C9 C8 1.403 . S
C9 H35 0.930 . S
C10 O24 1.275 . S
C10 O25 1.256 . S
C11 O26 1.259 . S
C11 O27 1.268 . S
C12 Ho1 2.811 1_655 S
C12 C13 1.488 . S
C12 O28 1.215 . S
C12 O29 1.289 . S
C13 C12 1.488 . S
C13 C14 1.348 . S
C13 C18 1.413 . S
C14 C13 1.348 . S
C14 C15 1.442 . S
C14 H36 0.930 . S
C15 C14 1.442 . S
C15 C16 1.381 . S
C15 H37 0.931 . S
C16 C15 1.381 . S
C16 C17 1.321 . S
C17 C16 1.321 . S
C17 C18 1.403 . S
C17 H38 0.934 . S
C18 C13 1.413 . S
C18 C17 1.403 . S
C18 H39 0.930 . S
C19 O30 1.275 . S
C19 O31 1.256 . S
O20 Ho0 2.322 . S
O20 C2 1.259 . S
O21 Ho1 2.346 . S
O21 C2 1.268 . S
O22 Ho0 2.378 . S
O22 C3 1.215 . S
O23 Ho0 2.524 . S
O23 C3 1.289 . S
O24 Ho0 2.381 . S
O24 C10 1.275 . S
O25 Ho0 2.669 . S
O25 Ho1 2.305 . S
O25 C10 1.256 . S
O26 Ho1 2.322 1_655 S
O26 C11 1.259 . S
O27 Ho0 2.346 1_655 S
O27 C11 1.268 . S
O28 Ho1 2.378 1_655 S
O28 C12 1.215 . S
O29 Ho1 2.524 1_655 S
O29 C12 1.289 . S
O30 Ho1 2.381 . S
O30 C19 1.275 . S
O31 Ho0 2.305 . S
O31 Ho1 2.669 . S
O31 C19 1.256 . S
H32 C5 0.930 . S
H33 C6 0.931 . S
H34 C8 0.934 . S
H35 C9 0.930 . S
H36 C14 0.930 . S
H37 C15 0.931 . S
H38 C17 0.934 . S
H39 C18 0.930 . S
Ho40 C43 2.811 . S
Ho40 O60 2.322 . S
Ho40 O62 2.378 . S
Ho40 O63 2.524 . S
Ho40 O64 2.381 . S
Ho40 O65 2.669 . S
Ho40 O67 2.346 . S
Ho40 O71 2.305 . S
Ho41 C52 2.811 . S
Ho41 O61 2.346 . S
Ho41 O65 2.305 . S
Ho41 O66 2.322 . S
Ho41 O68 2.378 . S
Ho41 O69 2.524 . S
Ho41 O70 2.381 . S
Ho41 O71 2.669 . S
C42 O60 1.259 . S
C42 O61 1.268 . S
C43 Ho40 2.811 . S
C43 C44 1.488 1_545 S
C43 O62 1.215 . S
C43 O63 1.289 . S
C44 C43 1.488 1_565 S
C44 C45 1.348 . S
C44 C49 1.413 . S
C45 C44 1.348 . S
C45 C46 1.442 . S
C45 H72 0.930 . S
C46 C45 1.442 . S
C46 C47 1.381 . S
C46 H73 0.931 . S
C47 C46 1.381 . S
C47 C48 1.321 . S
C48 C47 1.321 . S
C48 C49 1.403 . S
C48 H74 0.934 . S
C49 C44 1.413 . S
C49 C48 1.403 . S
C49 H75 0.930 . S
C50 O64 1.275 . S
C50 O65 1.256 . S
C51 O66 1.259 . S
C51 O67 1.268 . S
C52 Ho41 2.811 . S
C52 C53 1.488 . S
C52 O68 1.215 . S
C52 O69 1.289 . S
C53 C52 1.488 . S
C53 C54 1.348 . S
C53 C58 1.413 . S
C54 C53 1.348 . S
C54 C55 1.442 . S
C54 H76 0.930 . S
C55 C54 1.442 . S
C55 C56 1.381 . S
C55 H77 0.931 . S
C56 C55 1.381 . S
C56 C57 1.321 . S
C57 C56 1.321 . S
C57 C58 1.403 . S
C57 H78 0.934 . S
C58 C53 1.413 . S
C58 C57 1.403 . S
C58 H79 0.930 . S
C59 O70 1.275 . S
C59 O71 1.256 . S
O60 Ho40 2.322 . S
O60 C42 1.259 . S
O61 Ho41 2.346 . S
O61 C42 1.268 . S
O62 Ho40 2.378 . S
O62 C43 1.215 . S
O63 Ho40 2.524 . S
O63 C43 1.289 . S
O64 Ho40 2.381 . S
O64 C50 1.275 . S
O65 Ho40 2.669 . S
O65 Ho41 2.305 . S
O65 C50 1.256 . S
O66 Ho41 2.322 . S
O66 C51 1.259 . S
O67 Ho40 2.346 . S
O67 C51 1.268 . S
O68 Ho41 2.378 . S
O68 C52 1.215 . S
O69 Ho41 2.524 . S
O69 C52 1.289 . S
O70 Ho41 2.381 . S
O70 C59 1.275 . S
O71 Ho40 2.305 . S
O71 Ho41 2.669 . S
O71 C59 1.256 . S
H72 C45 0.930 . S
H73 C46 0.931 . S
H74 C48 0.934 . S
H75 C49 0.930 . S
H76 C54 0.930 . S
H77 C55 0.931 . S
H78 C57 0.934 . S
H79 C58 0.930 . S
Ho80 C83 2.811 . S
Ho80 O100 2.322 . S
Ho80 O102 2.378 . S
Ho80 O103 2.524 . S
Ho80 O104 2.381 1_556 S
Ho80 O105 2.669 . S
Ho80 O107 2.346 . S
Ho80 O111 2.305 . S
Ho81 C92 2.811 . S
Ho81 O101 2.346 . S
Ho81 O105 2.305 . S
Ho81 O106 2.322 . S
Ho81 O108 2.378 . S
Ho81 O109 2.524 . S
Ho81 O110 2.381 . S
Ho81 O111 2.669 . S
C82 O100 1.259 . S
C82 O101 1.268 . S
C83 Ho80 2.811 . S
C83 C84 1.488 . S
C83 O102 1.215 . S
C83 O103 1.289 . S
C84 C83 1.488 . S
C84 C85 1.348 . S
C84 C89 1.413 . S
C85 C84 1.348 . S
C85 C86 1.442 . S
C85 H112 0.930 . S
C86 C85 1.442 . S
C86 C87 1.381 . S
C86 H113 0.931 . S
C87 C86 1.381 . S
C87 C88 1.321 . S
C88 C87 1.321 . S
C88 C89 1.403 . S
C88 H114 0.934 . S
C89 C84 1.413 . S
C89 C88 1.403 . S
C89 H115 0.930 . S
C90 O104 1.275 . S
C90 O105 1.256 1_554 S
C91 O106 1.259 . S
C91 O107 1.268 . S
C92 Ho81 2.811 . S
C92 C93 1.488 . S
C92 O108 1.215 . S
C92 O109 1.289 . S
C93 C92 1.488 . S
C93 C94 1.348 . S
C93 C98 1.413 . S
C94 C93 1.348 . S
C94 C95 1.442 . S
C94 H116 0.930 . S
C95 C94 1.442 . S
C95 C96 1.381 . S
C95 H117 0.931 . S
C96 C95 1.381 . S
C96 C97 1.321 . S
C97 C96 1.321 . S
C97 C98 1.403 . S
C97 H118 0.934 . S
C98 C93 1.413 . S
C98 C97 1.403 . S
C98 H119 0.930 . S
C99 O110 1.275 . S
C99 O111 1.256 . S
O100 Ho80 2.322 . S
O100 C82 1.259 . S
O101 Ho81 2.346 . S
O101 C82 1.268 . S
O102 Ho80 2.378 . S
O102 C83 1.215 . S
O103 Ho80 2.524 . S
O103 C83 1.289 . S
O104 Ho80 2.381 1_554 S
O104 C90 1.275 . S
O105 Ho80 2.669 . S
O105 Ho81 2.305 . S
O105 C90 1.256 1_556 S
O106 Ho81 2.322 . S
O106 C91 1.259 . S
O107 Ho80 2.346 . S
O107 C91 1.268 . S
O108 Ho81 2.378 . S
O108 C92 1.215 . S
O109 Ho81 2.524 . S
O109 C92 1.289 . S
O110 Ho81 2.381 . S
O110 C99 1.275 . S
O111 Ho80 2.305 . S
O111 Ho81 2.669 . S
O111 C99 1.256 . S
H112 C85 0.930 . S
H113 C86 0.931 . S
H114 C88 0.934 . S
H115 C89 0.930 . S
H116 C94 0.930 . S
H117 C95 0.931 . S
H118 C97 0.934 . S
H119 C98 0.930 . S
H120 C128 0.929 . S
H121 C130 0.930 . S
H122 C132 0.930 1_556 S
H123 C135 0.929 . S
H124 C138 0.930 . S
H125 C140 0.960 1_556 S
H126 C140 0.960 . S
H127 C140 0.960 1_556 S
C128 H120 0.929 . S
C128 C129 1.377 . S
C128 C130 1.384 . S
C129 C128 1.377 . S
C129 C135 1.390 . S
C130 H121 0.930 . S
C130 C128 1.384 . S
C130 C131 1.372 . S
C131 C130 1.372 . S
C131 C132 1.400 . S
C131 C136 1.490 . S
C132 H122 0.930 1_554 S
C132 C131 1.400 . S
C132 C135 1.386 . S
H133 C149 0.930 . S
H134 C150 0.931 . S
C135 H123 0.929 . S
C135 C129 1.390 . S
C135 C132 1.386 . S
C136 C131 1.490 . S
C136 C138 1.395 . S
C136 C139 1.403 1_554 S
H137 C143 0.930 . S
C138 H124 0.930 . S
C138 C136 1.395 . S
C138 C141 1.403 1_554 S
C139 C136 1.403 1_556 S
C139 C140 1.524 1_556 S
C139 C143 1.400 . S
C140 H125 0.960 1_554 S
C140 H126 0.960 . S
C140 H127 0.960 1_554 S
C140 C139 1.524 1_554 S
C141 C138 1.403 1_556 S
C141 C142 1.392 . S
C141 C145 1.495 . S
C142 C141 1.392 . S
C142 C143 1.385 . S
C142 C144 1.478 . S
C143 H137 0.930 . S
C143 C139 1.400 . S
C143 C142 1.385 . S
C144 C142 1.478 . S
C144 C146 1.381 . S
C144 C150 1.383 . S
C145 C141 1.495 . S
C145 H151 0.959 1_556 S
C145 H152 0.961 . S
C145 H153 0.960 1_556 S
C146 C144 1.381 . S
C146 C147 1.394 . S
C146 H154 0.930 1_556 S
C147 C146 1.394 . S
C147 C148 1.383 . S
C147 H155 0.929 . S
C148 C147 1.383 . S
C148 C149 1.377 . S
C149 H133 0.930 . S
C149 C148 1.377 . S
C149 C150 1.379 . S
C150 H134 0.931 . S
C150 C144 1.383 . S
C150 C149 1.379 . S
H151 C145 0.959 1_554 S
H152 C145 0.961 . S
H153 C145 0.960 1_554 S
H154 C146 0.930 1_554 S
H155 C147 0.929 . S
H156 C164 0.929 . S
H157 C166 0.930 . S
H158 C168 0.930 . S
H159 C171 0.929 . S
H160 C174 0.930 . S
H161 C176 0.960 . S
H162 C176 0.960 . S
H163 C176 0.960 . S
C164 H156 0.929 . S
C164 C165 1.377 . S
C164 C166 1.384 . S
C165 C164 1.377 . S
C165 C171 1.390 . S
C166 H157 0.930 . S
C166 C164 1.384 . S
C166 C167 1.372 . S
C167 C166 1.372 . S
C167 C168 1.400 . S
C167 C172 1.490 . S
C168 H158 0.930 . S
C168 C167 1.400 . S
C168 C171 1.386 . S
H169 C185 0.930 . S
H170 C186 0.931 . S
C171 H159 0.929 . S
C171 C165 1.390 . S
C171 C168 1.386 . S
C172 C167 1.490 . S
C172 C174 1.395 . S
C172 C175 1.403 . S
H173 C179 0.930 . S
C174 H160 0.930 . S
C174 C172 1.395 . S
C174 C177 1.403 . S
C175 C172 1.403 . S
C175 C176 1.524 . S
C175 C179 1.400 . S
C176 H161 0.960 . S
C176 H162 0.960 . S
C176 H163 0.960 . S
C176 C175 1.524 . S
C177 C174 1.403 . S
C177 C178 1.392 . S
C177 C181 1.495 . S
C178 C177 1.392 . S
C178 C179 1.385 . S
C178 C180 1.478 . S
C179 H173 0.930 . S
C179 C175 1.400 . S
C179 C178 1.385 . S
C180 C178 1.478 . S
C180 C182 1.381 . S
C180 C186 1.383 . S
C181 C177 1.495 . S
C181 H187 0.959 . S
C181 H188 0.961 . S
C181 H189 0.960 . S
C182 C180 1.381 . S
C182 C183 1.394 . S
C182 H190 0.930 . S
C183 C182 1.394 . S
C183 C184 1.383 . S
C183 H191 0.929 . S
C184 C183 1.383 . S
C184 C185 1.377 . S
C185 H169 0.930 . S
C185 C184 1.377 . S
C185 C186 1.379 . S
C186 H170 0.931 . S
C186 C180 1.383 . S
C186 C185 1.379 . S
H187 C181 0.959 . S
H188 C181 0.961 . S
H189 C181 0.960 . S
H190 C182 0.930 . S
H191 C183 0.929 . S
H192 C200 0.929 . S
H193 C202 0.930 . S
H194 C204 0.930 . S
H195 C207 0.929 . S
H196 C210 0.930 . S
H197 C212 0.960 . S
H198 C212 0.960 . S
H199 C212 0.960 . S
C200 H192 0.929 . S
C200 C201 1.377 . S
C200 C202 1.384 . S
C201 C200 1.377 . S
C201 C207 1.390 . S
C202 H193 0.930 . S
C202 C200 1.384 . S
C202 C203 1.372 . S
C203 C202 1.372 . S
C203 C204 1.400 . S
C203 C208 1.490 . S
C204 H194 0.930 . S
C204 C203 1.400 . S
C204 C207 1.386 . S
H205 C221 0.930 . S
H206 C222 0.931 . S
C207 H195 0.929 . S
C207 C201 1.390 . S
C207 C204 1.386 . S
C208 C203 1.490 . S
C208 C210 1.395 . S
C208 C211 1.403 . S
H209 C215 0.930 . S
C210 H196 0.930 . S
C210 C208 1.395 . S
C210 C213 1.403 . S
C211 C208 1.403 . S
C211 C212 1.524 . S
C211 C215 1.400 . S
C212 H197 0.960 . S
C212 H198 0.960 . S
C212 H199 0.960 . S
C212 C211 1.524 . S
C213 C210 1.403 . S
C213 C214 1.392 . S
C213 C217 1.495 . S
C214 C213 1.392 . S
C214 C215 1.385 . S
C214 C216 1.478 . S
C215 H209 0.930 . S
C215 C211 1.400 . S
C215 C214 1.385 . S
C216 C214 1.478 . S
C216 C218 1.381 . S
C216 C222 1.383 . S
C217 C213 1.495 . S
C217 H223 0.959 . S
C217 H224 0.961 . S
C217 H225 0.960 . S
C218 C216 1.381 . S
C218 C219 1.394 . S
C218 H226 0.930 . S
C219 C218 1.394 . S
C219 C220 1.383 . S
C219 H227 0.929 . S
C220 C219 1.383 . S
C220 C221 1.377 . S
C221 H205 0.930 . S
C221 C220 1.377 . S
C221 C222 1.379 . S
C222 H206 0.931 . S
C222 C216 1.383 . S
C222 C221 1.379 . S
H223 C217 0.959 . S
H224 C217 0.961 . S
H225 C217 0.960 . S
H226 C218 0.930 . S
H227 C219 0.929 . S
H228 C236 0.929 . S
H229 C238 0.930 . S
H230 C240 0.930 . S
H231 C243 0.929 . S
H232 C246 0.930 . S
H233 C248 0.960 . S
H234 C248 0.960 . S
H235 C248 0.960 . S
C236 H228 0.929 . S
C236 C237 1.377 . S
C236 C238 1.384 . S
C237 C236 1.377 . S
C237 C243 1.390 . S
C238 H229 0.930 . S
C238 C236 1.384 . S
C238 C239 1.372 . S
C239 C238 1.372 . S
C239 C240 1.400 . S
C239 C244 1.492 . S
C240 H230 0.930 . S
C240 C239 1.400 . S
C240 C243 1.386 . S
H241 C257 0.930 . S
H242 C258 0.931 . S
C243 H231 0.929 . S
C243 C237 1.390 . S
C243 C240 1.386 . S
C244 C239 1.492 . S
C244 C246 1.390 1_556 S
C244 C247 1.405 . S
H245 C251 0.932 . S
C246 H232 0.930 . S
C246 C244 1.390 1_554 S
C246 C249 1.403 . S
C247 C244 1.405 . S
C247 C248 1.524 . S
C247 C251 1.403 . S
C248 H233 0.960 . S
C248 H234 0.960 . S
C248 H235 0.960 . S
C248 C247 1.524 . S
C249 C246 1.403 . S
C249 C250 1.392 . S
C249 C253 1.495 . S
C250 C249 1.392 . S
C250 C251 1.380 1_554 S
C250 C252 1.478 . S
C251 H245 0.932 . S
C251 C247 1.403 . S
C251 C250 1.380 1_556 S
C252 C250 1.478 . S
C252 C254 1.381 . S
C252 C258 1.383 . S
C253 C249 1.495 . S
C253 H259 0.959 . S
C253 H260 0.961 . S
C253 H261 0.960 . S
C254 C252 1.381 . S
C254 C255 1.394 . S
C254 H262 0.930 . S
C255 C254 1.394 . S
C255 C256 1.383 . S
C255 H263 0.929 . S
C256 C255 1.383 . S
C256 C257 1.377 . S
C257 H241 0.930 . S
C257 C256 1.377 . S
C257 C258 1.379 . S
C258 H242 0.931 . S
C258 C252 1.383 . S
C258 C257 1.379 . S
H259 C253 0.959 . S
H260 C253 0.961 . S
H261 C253 0.960 . S
H262 C254 0.930 . S
H263 C255 0.929 . S
H264 C272 0.929 . S
H265 C274 0.930 . S
H266 C276 0.930 . S
H267 C279 0.929 . S
H268 C282 0.930 . S
H269 C284 0.960 . S
H270 C284 0.960 . S
H271 C284 0.960 . S
C272 H264 0.929 . S
C272 C273 1.377 . S
C272 C274 1.384 . S
C273 C272 1.377 . S
C273 C279 1.390 . S
C274 H265 0.930 . S
C274 C272 1.384 . S
C274 C275 1.372 . S
C275 C274 1.372 . S
C275 C276 1.400 . S
C275 C280 1.490 . S
C276 H266 0.930 . S
C276 C275 1.400 . S
C276 C279 1.386 . S
H277 C293 0.930 . S
H278 C294 0.931 . S
C279 H267 0.929 . S
C279 C273 1.390 . S
C279 C276 1.386 . S
C280 C275 1.490 . S
C280 C282 1.395 . S
C280 C283 1.403 . S
H281 C287 0.930 . S
C282 H268 0.930 . S
C282 C280 1.395 . S
C282 C285 1.403 . S
C283 C280 1.403 . S
C283 C284 1.524 . S
C283 C287 1.400 . S
C284 H269 0.960 . S
C284 H270 0.960 . S
C284 H271 0.960 . S
C284 C283 1.524 . S
C285 C282 1.403 . S
C285 C286 1.392 . S
C285 C289 1.495 . S
C286 C285 1.392 . S
C286 C287 1.385 . S
C286 C288 1.478 . S
C287 H281 0.930 . S
C287 C283 1.400 . S
C287 C286 1.385 . S
C288 C286 1.478 . S
C288 C290 1.381 . S
C288 C294 1.383 . S
C289 C285 1.495 . S
C289 H295 0.959 . S
C289 H296 0.961 . S
C289 H297 0.960 . S
C290 C288 1.381 . S
C290 C291 1.394 . S
C290 H298 0.930 . S
C291 C290 1.394 . S
C291 C292 1.383 . S
C291 H299 0.929 . S
C292 C291 1.383 . S
C292 C293 1.377 . S
C293 H277 0.930 . S
C293 C292 1.377 . S
C293 C294 1.379 . S
C294 H278 0.931 . S
C294 C288 1.383 . S
C294 C293 1.379 . S
H295 C289 0.959 . S
H296 C289 0.961 . S
H297 C289 0.960 . S
H298 C290 0.930 . S
H299 C291 0.929 . S
H300 C308 0.929 . S
H301 C310 0.930 . S
H302 C312 0.930 . S
H303 C315 0.929 . S
H304 C318 0.930 . S
H305 C320 0.960 . S
H306 C320 0.960 . S
H307 C320 0.960 . S
C308 H300 0.929 . S
C308 C309 1.377 . S
C308 C310 1.384 . S
C309 C308 1.377 . S
C309 C315 1.390 . S
C310 H301 0.930 . S
C310 C308 1.384 . S
C310 C311 1.372 . S
C311 C310 1.372 . S
C311 C312 1.400 . S
C311 C316 1.490 . S
C312 H302 0.930 . S
C312 C311 1.400 . S
C312 C315 1.386 . S
H313 C329 0.930 . S
H314 C330 0.931 . S
C315 H303 0.929 . S
C315 C309 1.390 . S
C315 C312 1.386 . S
C316 C311 1.490 . S
C316 C318 1.395 . S
C316 C319 1.403 . S
H317 C323 0.930 . S
C318 H304 0.930 . S
C318 C316 1.395 . S
C318 C321 1.403 . S
C319 C316 1.403 . S
C319 C320 1.524 . S
C319 C323 1.400 . S
C320 H305 0.960 . S
C320 H306 0.960 . S
C320 H307 0.960 . S
C320 C319 1.524 . S
C321 C318 1.403 . S
C321 C322 1.392 . S
C321 C325 1.495 . S
C322 C321 1.392 . S
C322 C323 1.385 . S
C322 C324 1.478 . S
C323 H317 0.930 . S
C323 C319 1.400 . S
C323 C322 1.385 . S
C324 C322 1.478 . S
C324 C326 1.381 . S
C324 C330 1.383 . S
C325 C321 1.495 . S
C325 H331 0.959 . S
C325 H332 0.961 . S
C325 H333 0.960 . S
C326 C324 1.381 . S
C326 C327 1.394 . S
C326 H334 0.930 . S
C327 C326 1.394 . S
C327 C328 1.383 . S
C327 H335 0.929 . S
C328 C327 1.383 . S
C328 C329 1.377 . S
C329 H313 0.930 . S
C329 C328 1.377 . S
C329 C330 1.379 . S
C330 H314 0.931 . S
C330 C324 1.383 . S
C330 C329 1.379 . S
H331 C325 0.959 . S
H332 C325 0.961 . S
H333 C325 0.960 . S
H334 C326 0.930 . S
H335 C327 0.929 . S
H336 C344 0.929 1_554 S
H337 C346 0.930 . S
H338 C348 0.930 . S
H339 C351 0.929 . S
H340 C354 0.930 . S
H341 C356 0.960 . S
H342 C356 0.960 1_455 S
H343 C356 0.960 . S
C344 H336 0.929 1_556 S
C344 C345 1.377 1_556 S
C344 C346 1.384 . S
C345 C344 1.377 1_554 S
C345 C351 1.390 1_454 S
C346 H337 0.930 . S
C346 C344 1.384 . S
C346 C347 1.372 . S
C347 C346 1.372 . S
C347 C348 1.400 1_455 S
C347 C352 1.490 . S
C348 H338 0.930 . S
C348 C347 1.400 1_655 S
C348 C351 1.386 . S
H349 C365 0.930 . S
H350 C366 0.931 . S
C351 H339 0.929 . S
C351 C345 1.390 1_656 S
C351 C348 1.386 . S
C352 C347 1.490 . S
C352 C354 1.395 . S
C352 C355 1.403 . S
H353 C359 0.930 1_655 S
C354 H340 0.930 . S
C354 C352 1.395 . S
C354 C357 1.403 . S
C355 C352 1.403 . S
C355 C356 1.524 1_455 S
C355 C359 1.400 . S
C356 H341 0.960 . S
C356 H342 0.960 1_655 S
C356 H343 0.960 . S
C356 C355 1.524 1_655 S
C357 C354 1.403 . S
C357 C358 1.392 . S
C357 C361 1.495 . S
C358 C357 1.392 . S
C358 C359 1.385 . S
C358 C360 1.478 . S
C359 H353 0.930 1_455 S
C359 C355 1.400 . S
C359 C358 1.385 . S
C360 C358 1.478 . S
C360 C362 1.381 . S
C360 C366 1.383 1_455 S
C361 C357 1.495 . S
C361 H367 0.959 . S
C361 H368 0.961 . S
C361 H369 0.960 . S
C362 C360 1.381 . S
C362 C363 1.394 . S
C362 H370 0.930 . S
C363 C362 1.394 . S
C363 C364 1.383 . S
C363 H371 0.929 . S
C364 C363 1.383 . S
C364 C365 1.377 1_455 S
C365 H349 0.930 . S
C365 C364 1.377 1_655 S
C365 C366 1.379 . S
C366 H350 0.931 . S
C366 C360 1.383 1_655 S
C366 C365 1.379 . S
H367 C361 0.959 . S
H368 C361 0.961 . S
H369 C361 0.960 . S
H370 C362 0.930 . S
H371 C363 0.929 . S
H372 C380 0.929 . S
H373 C382 0.930 . S
H374 C384 0.930 . S
H375 C387 0.929 . S
H376 C390 0.930 . S
H377 C392 0.960 . S
H378 C392 0.960 . S
H379 C392 0.960 . S
C380 H372 0.929 . S
C380 C381 1.377 . S
C380 C382 1.384 . S
C381 C380 1.377 . S
C381 C387 1.390 . S
C382 H373 0.930 . S
C382 C380 1.384 . S
C382 C383 1.372 . S
C383 C382 1.372 . S
C383 C384 1.400 . S
C383 C388 1.490 . S
C384 H374 0.930 . S
C384 C383 1.400 . S
C384 C387 1.386 . S
H385 C401 0.930 . S
H386 C402 0.931 . S
C387 H375 0.929 . S
C387 C381 1.390 . S
C387 C384 1.386 . S
C388 C383 1.490 . S
C388 C390 1.395 . S
C388 C391 1.403 . S
H389 C395 0.930 . S
C390 H376 0.930 . S
C390 C388 1.395 . S
C390 C393 1.403 1_554 S
C391 C388 1.403 . S
C391 C392 1.524 . S
C391 C395 1.400 1_554 S
C392 H377 0.960 . S
C392 H378 0.960 . S
C392 H379 0.960 . S
C392 C391 1.524 . S
C393 C390 1.403 1_556 S
C393 C394 1.392 . S
C393 C397 1.495 . S
C394 C393 1.392 . S
C394 C395 1.385 . S
C394 C396 1.478 . S
C395 H389 0.930 . S
C395 C391 1.400 1_556 S
C395 C394 1.385 . S
C396 C394 1.478 . S
C396 C398 1.381 . S
C396 C402 1.383 . S
C397 C393 1.495 . S
C397 H403 0.959 . S
C397 H404 0.961 . S
C397 H405 0.960 . S
C398 C396 1.381 . S
C398 C399 1.394 . S
C398 H406 0.930 . S
C399 C398 1.394 . S
C399 C400 1.383 . S
C399 H407 0.929 . S
C400 C399 1.383 . S
C400 C401 1.377 . S
C401 H385 0.930 . S
C401 C400 1.377 . S
C401 C402 1.379 . S
C402 H386 0.931 . S
C402 C396 1.383 . S
C402 C401 1.379 . S
H403 C397 0.959 . S
H404 C397 0.961 . S
H405 C397 0.960 . S
H406 C398 0.930 . S
H407 C399 0.929 . S
H408 C416 0.929 . S
H409 C418 0.930 . S
H410 C420 0.930 . S
H411 C423 0.929 . S
H412 C426 0.930 . S
H413 C428 0.960 . S
H414 C428 0.960 . S
H415 C428 0.960 . S
C416 H408 0.929 . S
C416 C417 1.377 . S
C416 C418 1.384 . S
C417 C416 1.377 . S
C417 C423 1.390 . S
C418 H409 0.930 . S
C418 C416 1.384 . S
C418 C419 1.372 . S
C419 C418 1.372 . S
C419 C420 1.400 . S
C419 C424 1.490 . S
C420 H410 0.930 . S
C420 C419 1.400 . S
C420 C423 1.386 . S
H421 C437 0.930 . S
H422 C438 0.931 . S
C423 H411 0.929 . S
C423 C417 1.390 . S
C423 C420 1.386 . S
C424 C419 1.490 . S
C424 C426 1.395 . S
C424 C427 1.403 . S
H425 C431 0.930 . S
C426 H412 0.930 . S
C426 C424 1.395 . S
C426 C429 1.403 . S
C427 C424 1.403 . S
C427 C428 1.524 . S
C427 C431 1.400 . S
C428 H413 0.960 . S
C428 H414 0.960 . S
C428 H415 0.960 . S
C428 C427 1.524 . S
C429 C426 1.403 . S
C429 C430 1.392 . S
C429 C433 1.495 . S
C430 C429 1.392 . S
C430 C431 1.385 . S
C430 C432 1.478 . S
C431 H425 0.930 . S
C431 C427 1.400 . S
C431 C430 1.385 . S
C432 C430 1.478 . S
C432 C434 1.381 . S
C432 C438 1.383 . S
C433 C429 1.495 . S
C433 H439 0.959 . S
C433 H440 0.961 . S
C433 H441 0.960 . S
C434 C432 1.381 . S
C434 C435 1.394 . S
C434 H442 0.930 . S
C435 C434 1.394 . S
C435 C436 1.383 . S
C435 H443 0.929 . S
C436 C435 1.383 . S
C436 C437 1.377 . S
C437 H421 0.930 . S
C437 C436 1.377 . S
C437 C438 1.379 . S
C438 H422 0.931 . S
C438 C432 1.383 . S
C438 C437 1.379 . S
H439 C433 0.959 . S
H440 C433 0.961 . S
H441 C433 0.960 . S
H442 C434 0.930 . S
H443 C435 0.929 . S
C129 C7 2.215 . S
C148 C82 2.176 . S
C165 C51 3.101 . S
C184 C11 3.065 . S
C201 C47 1.605 . S
C220 C87 1.619 . S
C237 C91 2.541 . S
C256 C16 2.440 . S
C273 C42 2.729 1_565 S
C292 C2 2.696 . S
C309 C96 1.480 . S
C328 C56 1.478 . S
C345 C19 0.385 . S
C364 C10 0.297 . S
C381 C50 0.344 . S
C400 C59 0.322 . S
C417 C99 0.340 . S
C436 C90 0.353 . S
