# Generated by pormake.
# Topology mdf, (4)-cn, num edge types: 1
# Building blocks:
#     Node 0, Type 0, BuildingBlock: QUQFOY_clean_sbu_3, # of connection points: 4
#     Node 1, Type 0, BuildingBlock: QUQFOY_clean_sbu_3, # of connection points: 4
#     Node 2, Type 0, BuildingBlock: QUQFOY_clean_sbu_3, # of connection points: 4
#     Node 3, Type 0, BuildingBlock: QUQFOY_clean_sbu_3, # of connection points: 4
#     Node 4, Type 0, BuildingBlock: QUQFOY_clean_sbu_3, # of connection points: 4
#     Node 5, Type 0, BuildingBlock: QUQFOY_clean_sbu_3, # of connection points: 4
#     Node 6, Type 0, BuildingBlock: QUQFOY_clean_sbu_3, # of connection points: 4
#     Node 7, Type 0, BuildingBlock: QUQFOY_clean_sbu_3, # of connection points: 4
#     Edge 8, Type (0, 0), BuildingBlock: KIFKEQ_clean_linker_1, # of connection points: 2
#     Edge 9, Type (0, 0), BuildingBlock: KIFKEQ_clean_linker_1, # of connection points: 2
#     Edge 10, Type (0, 0), BuildingBlock: KIFKEQ_clean_linker_1, # of connection points: 2
#     Edge 11, Type (0, 0), BuildingBlock: KIFKEQ_clean_linker_1, # of connection points: 2
#     Edge 12, Type (0, 0), BuildingBlock: KIFKEQ_clean_linker_1, # of connection points: 2
#     Edge 13, Type (0, 0), BuildingBlock: KIFKEQ_clean_linker_1, # of connection points: 2
#     Edge 14, Type (0, 0), BuildingBlock: KIFKEQ_clean_linker_1, # of connection points: 2
#     Edge 15, Type (0, 0), BuildingBlock: KIFKEQ_clean_linker_1, # of connection points: 2
#     Edge 16, Type (0, 0), BuildingBlock: KIFKEQ_clean_linker_1, # of connection points: 2
#     Edge 17, Type (0, 0), BuildingBlock: KIFKEQ_clean_linker_1, # of connection points: 2
#     Edge 18, Type (0, 0), BuildingBlock: KIFKEQ_clean_linker_1, # of connection points: 2
#     Edge 19, Type (0, 0), BuildingBlock: KIFKEQ_clean_linker_1, # of connection points: 2
#     Edge 20, Type (0, 0), BuildingBlock: KIFKEQ_clean_linker_1, # of connection points: 2
#     Edge 21, Type (0, 0), BuildingBlock: KIFKEQ_clean_linker_1, # of connection points: 2
#     Edge 22, Type (0, 0), BuildingBlock: KIFKEQ_clean_linker_1, # of connection points: 2
#     Edge 23, Type (0, 0), BuildingBlock: KIFKEQ_clean_linker_1, # of connection points: 2
# Relax obj value: 0.015
# Max RMSD: 0.038
# Mean RMSD: 0.038
data_MOF--net-mdf--node1-QUQFOY_clean_sbu_3--edge1-KIFKEQ_clean_linker_1
_symmetry_space_group_name_H-M    P1
_symmetry_Int_Tables_number       1
_symmetry_cell_setting            triclinic
loop_
_symmetry_equiv_pos_as_xyz
'x, y, z'
_cell_length_a     40.219204
_cell_length_b     40.303692
_cell_length_c     12.29143
_cell_angle_alpha  90.072896
_cell_angle_beta   90.168096
_cell_angle_gamma 91.432077
loop_
_atom_site_label
_atom_site_type_symbol
_atom_site_fract_x
_atom_site_fract_y
_atom_site_fract_z
_atom_type_partial_charge
C0 C 0.26773 0.54082 0.15172 0.0
O1 O 0.25683 0.51701 0.09285 0.0
Cd2 Cd 0.22672 0.47122 0.17211 0.0
O3 O 0.26105 0.54183 0.25272 0.0
Cd4 Cd 0.22966 0.51358 0.39705 0.0
C5 C 0.28348 0.45093 0.3737 0.0
O6 O 0.18438 0.49467 0.28167 0.0
O7 O 0.18525 0.47349 0.44268 0.0
O8 O 0.21205 0.56942 0.42929 0.0
C9 C 0.17057 0.47592 0.3517 0.0
O10 O 0.26866 0.44471 0.28389 0.0
C11 C 0.21437 0.56859 0.53211 0.0
O12 O 0.27537 0.47563 0.43217 0.0
O13 O 0.22503 0.542 0.57406 0.0
C14 C 0.43428 0.70454 0.84567 0.0
O15 O 0.45849 0.71472 0.90427 0.0
Cd16 Cd 0.50505 0.74375 0.8252 0.0
O17 O 0.4332 0.71149 0.74485 0.0
Cd18 Cd 0.46228 0.74287 0.60232 0.0
C19 C 0.5241 0.68785 0.62084 0.0
O20 O 0.4835 0.78728 0.71652 0.0
O21 O 0.50463 0.78492 0.55542 0.0
O22 O 0.40962 0.76813 0.57286 0.0
C23 C 0.50269 0.80006 0.64568 0.0
O24 O 0.53059 0.702 0.71146 0.0
C25 C 0.40752 0.76236 0.47168 0.0
O26 O 0.49945 0.69668 0.56292 0.0
O27 O 0.43092 0.7461 0.42905 0.0
C28 C 0.20847 0.93478 0.64186 0.0
O29 O 0.2188 0.95888 0.58368 0.0
Cd30 Cd 0.24846 0.00507 0.66334 0.0
O31 O 0.21564 0.93354 0.7426 0.0
Cd32 Cd 0.24751 0.96193 0.88627 0.0
C33 C 0.19268 0.02397 0.86839 0.0
O34 O 0.29171 0.98291 0.77216 0.0
O35 O 0.2902 0.0038 0.93389 0.0
O36 O 0.27248 0.90913 0.91433 0.0
C37 C 0.30493 0.00195 0.84298 0.0
O38 O 0.20681 0.03047 0.77797 0.0
C39 C 0.26654 0.90685 0.01526 0.0
O40 O 0.20149 -0.0007 0.92588 0.0
O41 O 0.2504 0.93024 0.0584 0.0
C42 C 0.0419 0.77007 0.33631 0.0
O43 O 0.01809 0.75948 0.3954 0.0
Cd44 Cd 0.97218 0.72905 0.31674 0.0
O45 O 0.04284 0.76291 0.23559 0.0
Cd46 Cd 0.01431 0.73082 0.09272 0.0
C47 C 0.95156 0.78462 0.11303 0.0
O48 O -0.00451 0.68605 0.20952 0.0
O49 O 0.97402 0.68644 0.04849 0.0
O50 O 0.07016 0.71284 0.06117 0.0
C51 C 0.97666 0.67203 0.13966 0.0
O52 O 0.94539 0.77028 0.20334 0.0
C53 C 0.06923 0.71478 0.9583 0.0
O54 O 0.97629 0.77626 0.05516 0.0
O55 O 0.0426 0.72541 0.91601 0.0
C56 C 0.76884 0.04155 0.64344 0.0
O57 O 0.75812 0.01757 0.585 0.0
Cd58 Cd 0.72838 0.97154 0.66442 0.0
O59 O 0.76217 0.04268 0.74445 0.0
Cd60 Cd 0.731 0.0144 0.88922 0.0
C61 C 0.78514 0.95195 0.86696 0.0
O62 O 0.68595 -0.00555 0.77456 0.0
O63 O 0.68729 0.97386 0.93636 0.0
O64 O 0.71232 0.06994 0.9206 0.0
C65 C 0.67257 0.97563 0.84525 0.0
O66 O 0.7704 0.94557 0.77715 0.0
C67 C 0.71492 0.0694 0.02337 0.0
O68 O 0.77693 0.97671 0.92506 0.0
O69 O 0.72624 0.04314 0.06565 0.0
C70 C 0.93477 0.20572 0.3363 0.0
O71 O 0.9587 0.21635 0.39535 0.0
Cd72 Cd 0.00471 0.2463 0.31676 0.0
O73 O 0.9338 0.21251 0.23533 0.0
Cd74 Cd 0.96259 0.24389 0.09197 0.0
C75 C 0.02527 0.18999 0.11526 0.0
O76 O 0.98138 0.28899 0.20812 0.0
O77 O 0.00296 0.28815 0.04773 0.0
O78 O 0.90675 0.26171 0.05802 0.0
C79 C 0.00024 0.30283 0.13845 0.0
O80 O 0.03151 0.20462 0.20527 0.0
C81 C 0.90786 0.25963 0.9552 0.0
O82 O 0.00054 0.19821 0.05677 0.0
O83 O 0.93458 0.24896 0.91406 0.0
C84 C 0.70934 0.4345 0.14533 0.0
O85 O 0.71986 0.45871 0.08794 0.0
Cd86 Cd 0.74956 0.50442 0.17007 0.0
O87 O 0.7161 0.43313 0.24636 0.0
Cd88 Cd 0.74717 0.46121 0.39271 0.0
C89 C 0.69267 0.52343 0.3716 0.0
O90 O 0.7922 0.48074 0.27856 0.0
O91 O 0.79136 0.50155 0.44024 0.0
O92 O 0.76531 0.40543 0.42354 0.0
C93 C 0.80601 0.49934 0.34939 0.0
O94 O 0.70739 0.53018 0.28236 0.0
C95 C 0.76299 0.40602 0.52633 0.0
O96 O 0.70107 0.49859 0.42886 0.0
O97 O 0.75208 0.43242 0.56885 0.0
C98 C 0.54366 0.27021 0.83299 0.0
O99 O 0.51992 0.25942 0.89206 0.0
Cd100 Cd 0.47366 0.22932 0.8145 0.0
O101 O 0.54446 0.26344 0.73194 0.0
Cd102 Cd 0.51562 0.23183 0.58835 0.0
C103 C 0.45276 0.28544 0.61229 0.0
O104 O 0.49664 0.18699 0.70427 0.0
O105 O 0.4751 0.18771 0.54342 0.0
O106 O 0.5713 0.21362 0.55509 0.0
C107 C 0.47754 0.17326 0.63457 0.0
O108 O 0.44687 0.27084 0.70237 0.0
C109 C 0.57017 0.21576 0.45228 0.0
O110 O 0.47736 0.27732 0.55339 0.0
O111 O 0.54353 0.22666 0.41084 0.0
H112 H 0.43028 0.67982 0.05253 0.0
H113 H 0.3775 0.68201 0.74555 0.0
H114 H 0.38768 0.64206 0.12536 0.0
H115 H 0.33467 0.64487 0.81929 0.0
H116 H 0.29237 0.54458 0.94475 0.0
H117 H 0.33085 0.58654 0.87196 0.0
H118 H 0.32927 0.63916 0.17841 0.0
H119 H 0.29142 0.59697 0.25209 0.0
C120 C 0.40944 0.67255 0.00105 0.0
C121 C 0.40742 0.68366 0.89306 0.0
C122 C 0.38495 0.65107 0.04292 0.0
C123 C 0.35796 0.6404 0.97768 0.0
C124 C 0.35548 0.65226 0.87078 0.0
C125 C 0.37995 0.67366 0.82886 0.0
C126 C 0.30007 0.56521 -0.00368 0.0
C127 C 0.28909 0.56729 0.10438 0.0
C128 C 0.32196 0.58933 0.95448 0.0
C129 C 0.33317 0.61601 0.01983 0.0
C130 C 0.32146 0.61858 0.12682 0.0
C131 C 0.29965 0.59446 0.16872 0.0
H132 H 0.38832 0.74702 0.26251 0.0
H133 H 0.36574 0.81043 0.53455 0.0
H134 H 0.34717 0.77533 0.15219 0.0
H135 H 0.3266 0.84 0.42397 0.0
H136 H 0.24989 0.88673 0.22191 0.0
H137 H 0.27721 0.84476 0.33122 0.0
H138 H 0.34349 0.82527 0.06305 0.0
H139 H 0.31488 0.86526 0.95319 0.0
C140 C 0.37448 0.76692 0.2987 0.0
C141 C 0.38047 0.7767 0.40671 0.0
C142 C 0.35103 0.78336 0.23544 0.0
C143 C 0.33368 0.81043 0.27821 0.0
C144 C 0.33885 0.81908 0.38793 0.0
C145 C 0.36168 0.80224 0.45147 0.0
C146 C 0.26994 0.87298 0.18625 0.0
C147 C 0.28044 0.87949 0.07949 0.0
C148 C 0.28581 0.84905 0.24895 0.0
C149 C 0.31302 0.83173 0.20695 0.0
C150 C 0.32243 0.83748 0.09838 0.0
C151 C 0.30615 0.8608 0.0353 0.0
H152 H 0.04618 0.79514 0.54297 0.0
H153 H 0.09793 0.79346 0.23502 0.0
H154 H 0.08867 0.83333 0.61535 0.0
H155 H 0.14064 0.83102 0.30829 0.0
H156 H 0.18308 0.93128 0.4353 0.0
H157 H 0.1444 0.88935 0.36228 0.0
H158 H 0.14736 0.83621 0.66717 0.0
H159 H 0.18542 0.87834 0.74109 0.0
C160 C 0.06676 0.80263 0.49114 0.0
C161 C 0.06855 0.79149 0.3831 0.0
C162 C 0.09118 0.82435 0.53274 0.0
C163 C 0.11787 0.83523 0.46717 0.0
C164 C 0.12007 0.82345 0.36006 0.0
C165 C 0.09566 0.80181 0.31841 0.0
C166 C 0.17565 0.91054 0.48646 0.0
C167 C 0.18708 0.90828 0.59419 0.0
C168 C 0.15363 0.88645 0.4445 0.0
C169 C 0.14274 0.85964 0.50939 0.0
C170 C 0.15491 0.8569 0.61598 0.0
C171 C 0.17684 0.88097 0.658 0.0
H172 H 0.07027 0.70385 0.73863 0.0
H173 H 0.13025 0.6963 0.0293 0.0
H174 H 0.11173 0.6736 0.63707 0.0
H175 H 0.17212 0.66679 0.92729 0.0
H176 H 0.20372 0.56977 0.75183 0.0
H177 H 0.17379 0.6114 0.85373 0.0
H178 H 0.1672 0.67167 0.56421 0.0
H179 H 0.19638 0.62965 0.46185 0.0
C180 C 0.09268 0.69645 0.78016 0.0
C181 C 0.09676 0.70203 0.89217 0.0
C182 C 0.11657 0.67922 0.72191 0.0
C183 C 0.1451 0.66739 0.77446 0.0
C184 C 0.15013 0.67495 0.88494 0.0
C185 C 0.1262 0.69203 0.94319 0.0
C186 C 0.19645 0.5922 0.71054 0.0
C187 C 0.20196 0.5962 0.59859 0.0
C188 C 0.17939 0.61618 0.76899 0.0
C189 C 0.16769 0.64471 0.71669 0.0
C190 C 0.17525 0.64967 0.60634 0.0
C191 C 0.19214 0.62566 0.54789 0.0
H192 H 0.79202 0.09809 0.74266 0.0
H193 H 0.79361 0.04505 0.4366 0.0
H194 H 0.82972 0.14032 0.66844 0.0
H195 H 0.83194 0.08705 0.36328 0.0
H196 H 0.87835 0.18253 0.23549 0.0
H197 H 0.83562 0.14527 0.30926 0.0
H198 H 0.8882 0.14333 0.61625 0.0
H199 H 0.93068 0.18121 0.5434 0.0
C200 C 0.80036 0.09545 0.65945 0.0
C201 C 0.79002 0.06808 0.59565 0.0
C202 C 0.82208 0.11959 0.61724 0.0
C203 C 0.83394 0.11685 0.51048 0.0
C204 C 0.82293 0.08997 0.44561 0.0
C205 C 0.80112 0.06583 0.48776 0.0
C206 C 0.88074 0.17433 0.31899 0.0
C207 C 0.90804 0.18463 0.38348 0.0
C208 C 0.85632 0.15287 0.36094 0.0
C209 C 0.8587 0.14124 0.46814 0.0
C210 C 0.88554 0.15217 0.53358 0.0
C211 C 0.90997 0.17371 0.49169 0.0
H212 H 0.84652 0.27769 0.02339 0.0
H213 H 0.90745 0.27087 0.73572 0.0
H214 H 0.80488 0.30724 0.92 0.0
H215 H 0.86622 0.3012 0.63281 0.0
H216 H 0.78188 0.34538 0.4546 0.0
H217 H 0.81109 0.30331 0.55685 0.0
H218 H 0.80316 0.3627 0.84826 0.0
H219 H 0.77319 0.40436 0.74642 0.0
C220 C 0.85083 0.28213 0.93762 0.0
C221 C 0.88047 0.27233 0.8879 0.0
C222 C 0.82703 0.29924 0.87858 0.0
C223 C 0.8324 0.30706 0.7686 0.0
C224 C 0.86112 0.2954 0.71723 0.0
C225 C 0.88488 0.27812 0.77625 0.0
C226 C 0.78585 0.34917 0.54099 0.0
C227 C 0.7756 0.37838 0.5923 0.0
C228 C 0.80276 0.32512 0.59939 0.0
C229 C 0.80992 0.32981 0.71034 0.0
C230 C 0.79786 0.35812 0.76305 0.0
C231 C 0.78078 0.38212 0.70465 0.0
H232 H 0.68399 0.4317 0.93863 0.0
H233 H 0.687 0.37733 0.2416 0.0
H234 H 0.64573 0.38972 0.86356 0.0
H235 H 0.64939 0.33514 0.16562 0.0
H236 H 0.54829 0.29413 0.04094 0.0
H237 H 0.59074 0.33209 0.11461 0.0
H238 H 0.64215 0.33169 0.80637 0.0
H239 H 0.59944 0.29434 0.7318 0.0
C240 C 0.67681 0.41063 0.98871 0.0
C241 C 0.68826 0.408 0.09631 0.0
C242 C 0.65504 0.38651 0.94556 0.0
C243 C 0.64444 0.35929 0.00911 0.0
C244 C 0.6567 0.35616 0.11548 0.0
C245 C 0.67836 0.38027 0.15869 0.0
C246 C 0.56874 0.30199 0.9891 0.0
C247 C 0.57035 0.29145 0.88037 0.0
C248 C 0.59315 0.32358 0.03145 0.0
C249 C 0.61967 0.33493 0.96597 0.0
C250 C 0.62172 0.32374 0.85814 0.0
C251 C 0.59731 0.30222 0.81572 0.0
H252 H 0.70478 0.07087 0.24333 0.0
H253 H 0.69574 0.12999 0.95227 0.0
H254 H 0.67472 0.11237 0.34539 0.0
H255 H 0.66648 0.17191 0.05475 0.0
H256 H 0.5704 0.20448 0.23273 0.0
H257 H 0.61147 0.17403 0.13006 0.0
H258 H 0.67293 0.16772 0.41801 0.0
H259 H 0.63144 0.19738 0.52117 0.0
C260 C 0.69709 0.09311 0.20179 0.0
C261 C 0.70221 0.09694 0.08958 0.0
C262 C 0.67996 0.11702 0.26032 0.0
C263 C 0.6678 0.14533 0.20787 0.0
C264 C 0.67488 0.1501 0.09708 0.0
C265 C 0.69183 0.12614 0.03855 0.0
C266 C 0.59296 0.19715 0.2735 0.0
C267 C 0.59746 0.20291 0.38526 0.0
C268 C 0.61663 0.17979 0.21461 0.0
C269 C 0.64535 0.16804 0.26622 0.0
C270 C 0.65078 0.17579 0.37638 0.0
C271 C 0.62707 0.19297 0.43529 0.0
H272 H 0.31063 0.40047 0.25857 0.0
H273 H 0.31791 0.45179 0.5672 0.0
H274 H 0.35375 0.3631 0.31599 0.0
H275 H 0.36159 0.41438 0.62412 0.0
H276 H 0.40295 0.31302 0.72918 0.0
H277 H 0.36457 0.35517 0.67149 0.0
H278 H 0.41354 0.36125 0.35963 0.0
H279 H 0.45198 0.31853 0.41689 0.0
C280 C 0.32154 0.40394 0.33857 0.0
C281 C 0.31059 0.42904 0.40862 0.0
C282 C 0.34652 0.38264 0.37101 0.0
C283 C 0.36112 0.38579 0.47447 0.0
C284 C 0.35058 0.41116 0.54416 0.0
C285 C 0.32563 0.43265 0.51146 0.0
C286 C 0.40571 0.32335 0.64831 0.0
C287 C 0.43046 0.31217 0.57733 0.0
C288 C 0.38383 0.34777 0.61568 0.0
C289 C 0.38601 0.36156 0.51109 0.0
C290 C 0.41106 0.35084 0.44048 0.0
C291 C 0.43314 0.32646 0.47338 0.0
H292 H 0.63795 0.9726 0.65422 0.0
H293 H 0.64297 0.92865 0.97427 0.0
H294 H 0.59344 0.93321 0.60448 0.0
H295 H 0.59911 0.88884 0.92376 0.0
H296 H 0.55117 0.82842 0.51897 0.0
H297 H 0.58946 0.87386 0.56781 0.0
H298 H 0.54046 0.88328 0.87844 0.0
H299 H 0.5027 0.83731 0.8307 0.0
C300 C 0.62943 0.95464 0.71407 0.0
C301 C 0.64404 0.95353 0.81789 0.0
C302 C 0.60408 0.932 0.68539 0.0
C303 C 0.59291 0.90784 0.75999 0.0
C304 C 0.60689 0.90742 0.86489 0.0
C305 C 0.63217 0.93008 0.89363 0.0
C306 C 0.54844 0.84036 0.59733 0.0
C307 C 0.52418 0.82915 0.67144 0.0
C308 C 0.57022 0.86653 0.62503 0.0
C309 C 0.56804 0.88203 0.72718 0.0
C310 C 0.54305 0.87147 0.79982 0.0
C311 C 0.52136 0.84525 0.77227 0.0
H312 H 0.0762 0.16297 0.22944 0.0
H313 H 0.02419 0.15584 0.9216 0.0
H314 H 0.11396 0.12043 0.17058 0.0
H315 H 0.06196 0.11274 0.8633 0.0
H316 H 0.1637 0.07351 0.75417 0.0
H317 H 0.12105 0.11085 0.81439 0.0
H318 H 0.11697 0.06101 0.12511 0.0
H319 H 0.16027 0.02358 0.06522 0.0
C320 C 0.07265 0.1522 0.14935 0.0
C321 C 0.04726 0.16306 0.07986 0.0
C322 C 0.09418 0.12755 0.11608 0.0
C323 C 0.09098 0.1132 0.01235 0.0
C324 C 0.06525 0.12358 0.9434 0.0
C325 C 0.04355 0.14819 0.97691 0.0
C326 C 0.15371 0.07032 0.83533 0.0
C327 C 0.16563 0.04562 0.90518 0.0
C328 C 0.12899 0.09162 0.86942 0.0
C329 C 0.11558 0.08889 0.9744 0.0
C330 C 0.12705 0.0639 0.04396 0.0
C331 C 0.15176 0.04239 0.00957 0.0
H332 H 0.97671 0.63706 0.3294 0.0
H333 H 0.92927 0.64119 0.01386 0.0
H334 H 0.93917 0.59136 0.38119 0.0
H335 H 0.89126 0.59614 0.06654 0.0
H336 H 0.84188 0.49945 0.16167 0.0
H337 H 0.88718 0.53759 0.11086 0.0
H338 H 0.8804 0.58594 0.42385 0.0
H339 H 0.83573 0.54729 0.47565 0.0
C340 C 0.95837 0.62809 0.27096 0.0
C341 C 0.95572 0.64283 0.16789 0.0
C342 C 0.9368 0.60204 0.30081 0.0
C343 C 0.91215 0.5903 0.22822 0.0
C344 C 0.91025 0.60436 0.12386 0.0
C345 C 0.93187 0.63033 0.09391 0.0
C346 C 0.85032 0.51801 0.22 0.0
C347 C 0.83511 0.52061 0.32227 0.0
C348 C 0.87615 0.53992 0.19071 0.0
C349 C 0.88718 0.5649 0.26301 0.0
C350 C 0.87271 0.56672 0.36676 0.0
C351 C 0.84697 0.54473 0.3962 0.0
H352 H 0.3413 0.00205 0.65652 0.0
H353 H 0.33359 0.05071 0.96872 0.0
H354 H 0.38662 0.04022 0.60661 0.0
H355 H 0.37837 0.08941 0.91771 0.0
H356 H 0.43002 0.1429 0.50818 0.0
H357 H 0.39103 0.0987 0.56095 0.0
H358 H 0.43757 0.09423 0.87786 0.0
H359 H 0.47613 0.13907 0.82589 0.0
C360 C 0.34937 0.02084 0.71461 0.0
C361 C 0.33377 0.0236 0.81618 0.0
C362 C 0.37522 0.04276 0.68582 0.0
C363 C 0.38589 0.06794 0.75791 0.0
C364 C 0.37094 0.07004 0.86086 0.0
C365 C 0.34516 0.04802 0.88982 0.0
C366 C 0.4321 0.1323 0.58878 0.0
C367 C 0.45592 0.14459 0.66322 0.0
C368 C 0.40991 0.10683 0.61881 0.0
C369 C 0.41118 0.09308 0.72372 0.0
C370 C 0.4357 0.10468 0.797 0.0
C371 C 0.45786 0.13022 0.76703 0.0
H372 H 0.81293 0.90188 0.75183 0.0
H373 H 0.81854 0.95224 0.06241 0.0
H374 H 0.85534 0.86399 0.81113 0.0
H375 H 0.86153 0.9143 0.12127 0.0
H376 H 0.901 0.81219 0.22654 0.0
H377 H 0.86348 0.85488 0.16709 0.0
H378 H 0.91471 0.86128 0.85921 0.0
H379 H 0.95229 0.81802 0.9182 0.0
C380 C 0.82335 0.90505 0.83265 0.0
C381 C 0.8121 0.93001 0.90271 0.0
C382 C 0.84792 0.88344 0.8662 0.0
C383 C 0.8618 0.88613 0.97081 0.0
C384 C 0.85104 0.91143 0.04044 0.0
C385 C 0.82651 0.93323 0.00662 0.0
C386 C 0.90444 0.82269 0.14617 0.0
C387 C 0.92958 0.81147 0.07681 0.0
C388 C 0.88304 0.84743 0.11255 0.0
C389 C 0.88613 0.8615 0.00858 0.0
C390 C 0.91154 0.85068 0.93955 0.0
C391 C 0.93312 0.82598 0.97344 0.0
H392 H 0.0479 0.33326 0.01373 0.0
H393 H -0.00029 0.33853 0.32693 0.0
H394 H 0.0858 0.3785 0.06676 0.0
H395 H 0.03712 0.3844 0.37902 0.0
H396 H 0.1404 0.42837 0.47735 0.0
H397 H 0.0958 0.3897 0.4242 0.0
H398 H 0.08994 0.43725 0.10994 0.0
H399 H 0.13518 0.47545 0.16219 0.0
C400 C 0.04511 0.34441 0.0933 0.0
C401 C 0.0211 0.33217 0.16661 0.0
C402 C 0.06666 0.37049 0.12344 0.0
C403 C 0.06452 0.38491 0.22729 0.0
C404 C 0.03968 0.37344 0.29907 0.0
C405 C 0.01819 0.34729 0.26905 0.0
C406 C 0.12938 0.43076 0.39731 0.0
C407 C 0.14148 0.45468 0.32351 0.0
C408 C 0.10367 0.40875 0.36709 0.0
C409 C 0.08948 0.41034 0.26265 0.0
C410 C 0.10075 0.43511 0.19036 0.0
C411 C 0.12654 0.45706 0.22047 0.0
H412 H 0.52425 0.65597 0.4228 0.0
H413 H 0.57342 0.65866 0.73608 0.0
H414 H 0.56226 0.61327 0.3623 0.0
H415 H 0.61135 0.61661 0.67527 0.0
H416 H 0.65806 0.5211 0.564 0.0
H417 H 0.61421 0.55794 0.62291 0.0
H418 H 0.62194 0.61125 0.31907 0.0
H419 H 0.66522 0.57442 0.25961 0.0
C420 C 0.54299 0.6474 0.47885 0.0
C421 C 0.54589 0.66093 0.58399 0.0
C422 C 0.56484 0.62304 0.4441 0.0
C423 C 0.58983 0.61158 0.51405 0.0
C424 C 0.59214 0.62457 0.61987 0.0
C425 C 0.57051 0.64895 0.65432 0.0
C426 C 0.65026 0.54056 0.50958 0.0
C427 C 0.66535 0.5449 0.40742 0.0
C428 C 0.62522 0.56171 0.54343 0.0
C429 C 0.61462 0.58753 0.47561 0.0
C430 C 0.62921 0.59137 0.37266 0.0
C431 C 0.65429 0.57038 0.33907 0.0
loop_
_geom_bond_atom_site_label_1
_geom_bond_atom_site_label_2
_geom_bond_distance
_geom_bond_site_symmetry_2
_ccdc_geom_bond_type
C0 O1 1.306 . S
C0 O3 1.160 . S
O1 C0 1.306 . S
O1 Cd2 2.228 . S
Cd2 O1 2.228 . S
Cd2 O6 2.273 . S
Cd2 O10 2.277 . S
O3 C0 1.160 . S
O3 Cd4 2.203 . S
Cd4 O3 2.203 . S
Cd4 O6 2.411 . S
Cd4 O7 2.333 . S
Cd4 O8 2.352 . S
Cd4 O12 2.277 . S
Cd4 O13 2.356 . S
C5 O10 1.209 . S
C5 O12 1.226 . S
O6 Cd2 2.273 . S
O6 Cd4 2.411 . S
O6 C9 1.320 . S
O7 Cd4 2.333 . S
O7 C9 1.214 . S
O8 Cd4 2.352 . S
O8 C11 1.258 . S
C9 O6 1.320 . S
C9 O7 1.214 . S
O10 Cd2 2.277 . S
O10 C5 1.209 . S
C11 O8 1.258 . S
C11 O13 1.282 . S
O12 Cd4 2.277 . S
O12 C5 1.226 . S
O13 Cd4 2.356 . S
O13 C11 1.282 . S
C14 O15 1.306 . S
C14 O17 1.160 . S
O15 C14 1.306 . S
O15 Cd16 2.228 . S
Cd16 O15 2.228 . S
Cd16 O20 2.273 . S
Cd16 O24 2.277 . S
O17 C14 1.160 . S
O17 Cd18 2.203 . S
Cd18 O17 2.203 . S
Cd18 O20 2.411 . S
Cd18 O21 2.333 . S
Cd18 O22 2.352 . S
Cd18 O26 2.277 . S
Cd18 O27 2.356 . S
C19 O24 1.209 . S
C19 O26 1.226 . S
O20 Cd16 2.273 . S
O20 Cd18 2.411 . S
O20 C23 1.320 . S
O21 Cd18 2.333 . S
O21 C23 1.214 . S
O22 Cd18 2.352 . S
O22 C25 1.258 . S
C23 O20 1.320 . S
C23 O21 1.214 . S
O24 Cd16 2.277 . S
O24 C19 1.209 . S
C25 O22 1.258 . S
C25 O27 1.282 . S
O26 Cd18 2.277 . S
O26 C19 1.226 . S
O27 Cd18 2.356 . S
O27 C25 1.282 . S
C28 O29 1.306 . S
C28 O31 1.160 . S
O29 C28 1.306 . S
O29 Cd30 2.228 1_565 S
Cd30 O29 2.228 1_545 S
Cd30 O34 2.273 . S
Cd30 O38 2.277 . S
O31 C28 1.160 . S
O31 Cd32 2.203 . S
Cd32 O31 2.203 . S
Cd32 O34 2.411 1_565 S
Cd32 O35 2.333 1_565 S
Cd32 O36 2.352 . S
Cd32 O40 2.277 1_566 S
Cd32 O41 2.356 1_556 S
C33 O38 1.209 . S
C33 O40 1.226 1_556 S
O34 Cd30 2.273 . S
O34 Cd32 2.411 1_545 S
O34 C37 1.320 . S
O35 Cd32 2.333 1_545 S
O35 C37 1.214 . S
O36 Cd32 2.352 . S
O36 C39 1.258 1_556 S
C37 O34 1.320 . S
C37 O35 1.214 . S
O38 Cd30 2.277 . S
O38 C33 1.209 . S
C39 O36 1.258 1_554 S
C39 O41 1.282 . S
O40 Cd32 2.277 1_544 S
O40 C33 1.226 1_554 S
O41 Cd32 2.356 1_554 S
O41 C39 1.282 . S
C42 O43 1.306 . S
C42 O45 1.160 . S
O43 C42 1.306 . S
O43 Cd44 2.228 1_455 S
Cd44 O43 2.228 1_655 S
Cd44 O48 2.273 . S
Cd44 O52 2.277 . S
O45 C42 1.160 . S
O45 Cd46 2.203 . S
Cd46 O45 2.203 . S
Cd46 O48 2.411 1_455 S
Cd46 O49 2.333 1_455 S
Cd46 O50 2.352 . S
Cd46 O54 2.277 1_454 S
Cd46 O55 2.356 1_554 S
C47 O52 1.209 . S
C47 O54 1.226 1_554 S
O48 Cd44 2.273 . S
O48 Cd46 2.411 1_655 S
O48 C51 1.320 . S
O49 Cd46 2.333 1_655 S
O49 C51 1.214 . S
O50 Cd46 2.352 . S
O50 C53 1.258 1_554 S
C51 O48 1.320 . S
C51 O49 1.214 . S
O52 Cd44 2.277 . S
O52 C47 1.209 . S
C53 O50 1.258 1_556 S
C53 O55 1.282 . S
O54 Cd46 2.277 1_656 S
O54 C47 1.226 1_556 S
O55 Cd46 2.356 1_556 S
O55 C53 1.282 . S
C56 O57 1.306 . S
C56 O59 1.160 . S
O57 C56 1.306 . S
O57 Cd58 2.228 1_545 S
Cd58 O57 2.228 1_565 S
Cd58 O62 2.273 . S
Cd58 O66 2.277 . S
O59 C56 1.160 . S
O59 Cd60 2.203 . S
Cd60 O59 2.203 . S
Cd60 O62 2.411 1_545 S
Cd60 O63 2.333 1_545 S
Cd60 O64 2.352 . S
Cd60 O68 2.277 1_546 S
Cd60 O69 2.356 1_556 S
C61 O66 1.209 . S
C61 O68 1.226 1_556 S
O62 Cd58 2.273 . S
O62 Cd60 2.411 1_565 S
O62 C65 1.320 . S
O63 Cd60 2.333 1_565 S
O63 C65 1.214 . S
O64 Cd60 2.352 . S
O64 C67 1.258 1_556 S
C65 O62 1.320 . S
C65 O63 1.214 . S
O66 Cd58 2.277 . S
O66 C61 1.209 . S
C67 O64 1.258 1_554 S
C67 O69 1.282 . S
O68 Cd60 2.277 1_564 S
O68 C61 1.226 1_554 S
O69 Cd60 2.356 1_554 S
O69 C67 1.282 . S
C70 O71 1.306 . S
C70 O73 1.160 . S
O71 C70 1.306 . S
O71 Cd72 2.228 1_655 S
Cd72 O71 2.228 1_455 S
Cd72 O76 2.273 . S
Cd72 O80 2.277 . S
O73 C70 1.160 . S
O73 Cd74 2.203 . S
Cd74 O73 2.203 . S
Cd74 O76 2.411 1_655 S
Cd74 O77 2.333 1_655 S
Cd74 O78 2.352 . S
Cd74 O82 2.277 1_654 S
Cd74 O83 2.356 1_554 S
C75 O80 1.209 . S
C75 O82 1.226 1_554 S
O76 Cd72 2.273 . S
O76 Cd74 2.411 1_455 S
O76 C79 1.320 . S
O77 Cd74 2.333 1_455 S
O77 C79 1.214 . S
O78 Cd74 2.352 . S
O78 C81 1.258 1_554 S
C79 O76 1.320 . S
C79 O77 1.214 . S
O80 Cd72 2.277 . S
O80 C75 1.209 . S
C81 O78 1.258 1_556 S
C81 O83 1.282 . S
O82 Cd74 2.277 1_456 S
O82 C75 1.226 1_556 S
O83 Cd74 2.356 1_556 S
O83 C81 1.282 . S
C84 O85 1.306 . S
C84 O87 1.160 . S
O85 C84 1.306 . S
O85 Cd86 2.228 . S
Cd86 O85 2.228 . S
Cd86 O90 2.273 . S
Cd86 O94 2.277 . S
O87 C84 1.160 . S
O87 Cd88 2.203 . S
Cd88 O87 2.203 . S
Cd88 O90 2.411 . S
Cd88 O91 2.333 . S
Cd88 O92 2.352 . S
Cd88 O96 2.277 . S
Cd88 O97 2.356 . S
C89 O94 1.209 . S
C89 O96 1.226 . S
O90 Cd86 2.273 . S
O90 Cd88 2.411 . S
O90 C93 1.320 . S
O91 Cd88 2.333 . S
O91 C93 1.214 . S
O92 Cd88 2.352 . S
O92 C95 1.258 . S
C93 O90 1.320 . S
C93 O91 1.214 . S
O94 Cd86 2.277 . S
O94 C89 1.209 . S
C95 O92 1.258 . S
C95 O97 1.282 . S
O96 Cd88 2.277 . S
O96 C89 1.226 . S
O97 Cd88 2.356 . S
O97 C95 1.282 . S
C98 O99 1.306 . S
C98 O101 1.160 . S
O99 C98 1.306 . S
O99 Cd100 2.228 . S
Cd100 O99 2.228 . S
Cd100 O104 2.273 . S
Cd100 O108 2.277 . S
O101 C98 1.160 . S
O101 Cd102 2.203 . S
Cd102 O101 2.203 . S
Cd102 O104 2.411 . S
Cd102 O105 2.333 . S
Cd102 O106 2.352 . S
Cd102 O110 2.277 . S
Cd102 O111 2.356 . S
C103 O108 1.209 . S
C103 O110 1.226 . S
O104 Cd100 2.273 . S
O104 Cd102 2.411 . S
O104 C107 1.320 . S
O105 Cd102 2.333 . S
O105 C107 1.214 . S
O106 Cd102 2.352 . S
O106 C109 1.258 . S
C107 O104 1.320 . S
C107 O105 1.214 . S
O108 Cd100 2.277 . S
O108 C103 1.209 . S
C109 O106 1.258 . S
C109 O111 1.282 . S
O110 Cd102 2.277 . S
O110 C103 1.226 . S
O111 Cd102 2.356 . S
O111 C109 1.282 . S
H112 C120 0.950 . S
H113 C125 0.950 . S
H114 C122 0.950 1_554 S
H115 C124 0.950 . S
H116 C126 0.950 . S
H117 C128 0.950 1_556 S
H118 C130 0.950 . S
H119 C131 0.950 . S
C120 H112 0.950 . S
C120 C121 1.386 . S
C120 C122 1.391 . S
C121 C120 1.386 . S
C121 C125 1.393 . S
C122 H114 0.950 1_556 S
C122 C120 1.391 . S
C122 C123 1.400 . S
C123 C122 1.400 . S
C123 C124 1.398 . S
C123 C129 1.491 1_556 S
C124 H115 0.950 . S
C124 C123 1.398 . S
C124 C125 1.391 . S
C125 H113 0.950 . S
C125 C121 1.393 . S
C125 C124 1.391 . S
C126 H116 0.950 . S
C126 C127 1.386 . S
C126 C128 1.391 . S
C127 C126 1.386 . S
C127 C131 1.393 . S
C128 H117 0.950 1_554 S
C128 C126 1.391 . S
C128 C129 1.400 . S
C129 C123 1.491 1_554 S
C129 C128 1.400 . S
C129 C130 1.398 . S
C130 H118 0.950 . S
C130 C129 1.398 . S
C130 C131 1.391 . S
C131 H119 0.950 . S
C131 C127 1.393 . S
C131 C130 1.391 . S
H132 C140 0.950 . S
H133 C145 0.950 . S
H134 C142 0.950 . S
H135 C144 0.950 . S
H136 C146 0.950 . S
H137 C148 0.950 . S
H138 C150 0.950 . S
H139 C151 0.950 . S
C140 H132 0.950 . S
C140 C141 1.386 . S
C140 C142 1.391 . S
C141 C140 1.386 . S
C141 C145 1.393 . S
C142 H134 0.950 . S
C142 C140 1.391 . S
C142 C143 1.400 . S
C143 C142 1.400 . S
C143 C144 1.398 . S
C143 C149 1.491 . S
C144 H135 0.950 . S
C144 C143 1.398 . S
C144 C145 1.391 . S
C145 H133 0.950 . S
C145 C141 1.393 . S
C145 C144 1.391 . S
C146 H136 0.950 . S
C146 C147 1.386 . S
C146 C148 1.391 . S
C147 C146 1.386 . S
C147 C151 1.393 . S
C148 H137 0.950 . S
C148 C146 1.391 . S
C148 C149 1.400 . S
C149 C143 1.491 . S
C149 C148 1.400 . S
C149 C150 1.398 . S
C150 H138 0.950 . S
C150 C149 1.398 . S
C150 C151 1.391 . S
C151 H139 0.950 . S
C151 C147 1.393 . S
C151 C150 1.391 . S
H152 C160 0.950 . S
H153 C165 0.950 . S
H154 C162 0.950 . S
H155 C164 0.950 . S
H156 C166 0.950 . S
H157 C168 0.950 . S
H158 C170 0.950 . S
H159 C171 0.950 . S
C160 H152 0.950 . S
C160 C161 1.386 . S
C160 C162 1.391 . S
C161 C160 1.386 . S
C161 C165 1.393 . S
C162 H154 0.950 . S
C162 C160 1.391 . S
C162 C163 1.400 . S
C163 C162 1.400 . S
C163 C164 1.398 . S
C163 C169 1.491 . S
C164 H155 0.950 . S
C164 C163 1.398 . S
C164 C165 1.391 . S
C165 H153 0.950 . S
C165 C161 1.393 . S
C165 C164 1.391 . S
C166 H156 0.950 . S
C166 C167 1.386 . S
C166 C168 1.391 . S
C167 C166 1.386 . S
C167 C171 1.393 . S
C168 H157 0.950 . S
C168 C166 1.391 . S
C168 C169 1.400 . S
C169 C163 1.491 . S
C169 C168 1.400 . S
C169 C170 1.398 . S
C170 H158 0.950 . S
C170 C169 1.398 . S
C170 C171 1.391 . S
C171 H159 0.950 . S
C171 C167 1.393 . S
C171 C170 1.391 . S
H172 C180 0.950 . S
H173 C185 0.950 1_554 S
H174 C182 0.950 . S
H175 C184 0.950 . S
H176 C186 0.950 . S
H177 C188 0.950 . S
H178 C190 0.950 . S
H179 C191 0.950 . S
C180 H172 0.950 . S
C180 C181 1.386 . S
C180 C182 1.391 . S
C181 C180 1.386 . S
C181 C185 1.393 . S
C182 H174 0.950 . S
C182 C180 1.391 . S
C182 C183 1.400 . S
C183 C182 1.400 . S
C183 C184 1.398 . S
C183 C189 1.491 . S
C184 H175 0.950 . S
C184 C183 1.398 . S
C184 C185 1.391 . S
C185 H173 0.950 1_556 S
C185 C181 1.393 . S
C185 C184 1.391 . S
C186 H176 0.950 . S
C186 C187 1.386 . S
C186 C188 1.391 . S
C187 C186 1.386 . S
C187 C191 1.393 . S
C188 H177 0.950 . S
C188 C186 1.391 . S
C188 C189 1.400 . S
C189 C183 1.491 . S
C189 C188 1.400 . S
C189 C190 1.398 . S
C190 H178 0.950 . S
C190 C189 1.398 . S
C190 C191 1.391 . S
C191 H179 0.950 . S
C191 C187 1.393 . S
C191 C190 1.391 . S
H192 C200 0.950 . S
H193 C205 0.950 . S
H194 C202 0.950 . S
H195 C204 0.950 . S
H196 C206 0.950 . S
H197 C208 0.950 . S
H198 C210 0.950 . S
H199 C211 0.950 . S
C200 H192 0.950 . S
C200 C201 1.386 . S
C200 C202 1.391 . S
C201 C200 1.386 . S
C201 C205 1.393 . S
C202 H194 0.950 . S
C202 C200 1.391 . S
C202 C203 1.400 . S
C203 C202 1.400 . S
C203 C204 1.398 . S
C203 C209 1.491 . S
C204 H195 0.950 . S
C204 C203 1.398 . S
C204 C205 1.391 . S
C205 H193 0.950 . S
C205 C201 1.393 . S
C205 C204 1.391 . S
C206 H196 0.950 . S
C206 C207 1.386 . S
C206 C208 1.391 . S
C207 C206 1.386 . S
C207 C211 1.393 . S
C208 H197 0.950 . S
C208 C206 1.391 . S
C208 C209 1.400 . S
C209 C203 1.491 . S
C209 C208 1.400 . S
C209 C210 1.398 . S
C210 H198 0.950 . S
C210 C209 1.398 . S
C210 C211 1.391 . S
C211 H199 0.950 . S
C211 C207 1.393 . S
C211 C210 1.391 . S
H212 C220 0.950 1_554 S
H213 C225 0.950 . S
H214 C222 0.950 . S
H215 C224 0.950 . S
H216 C226 0.950 . S
H217 C228 0.950 . S
H218 C230 0.950 . S
H219 C231 0.950 . S
C220 H212 0.950 1_556 S
C220 C221 1.386 . S
C220 C222 1.391 . S
C221 C220 1.386 . S
C221 C225 1.393 . S
C222 H214 0.950 . S
C222 C220 1.391 . S
C222 C223 1.400 . S
C223 C222 1.400 . S
C223 C224 1.398 . S
C223 C229 1.491 . S
C224 H215 0.950 . S
C224 C223 1.398 . S
C224 C225 1.391 . S
C225 H213 0.950 . S
C225 C221 1.393 . S
C225 C224 1.391 . S
C226 H216 0.950 . S
C226 C227 1.386 . S
C226 C228 1.391 . S
C227 C226 1.386 . S
C227 C231 1.393 . S
C228 H217 0.950 . S
C228 C226 1.391 . S
C228 C229 1.400 . S
C229 C223 1.491 . S
C229 C228 1.400 . S
C229 C230 1.398 . S
C230 H218 0.950 . S
C230 C229 1.398 . S
C230 C231 1.391 . S
C231 H219 0.950 . S
C231 C227 1.393 . S
C231 C230 1.391 . S
H232 C240 0.950 . S
H233 C245 0.950 . S
H234 C242 0.950 1_556 S
H235 C244 0.950 . S
H236 C246 0.950 . S
H237 C248 0.950 1_554 S
H238 C250 0.950 . S
H239 C251 0.950 . S
C240 H232 0.950 . S
C240 C241 1.386 . S
C240 C242 1.391 . S
C241 C240 1.386 . S
C241 C245 1.393 . S
C242 H234 0.950 1_554 S
C242 C240 1.391 . S
C242 C243 1.400 . S
C243 C242 1.400 . S
C243 C244 1.398 . S
C243 C249 1.491 1_554 S
C244 H235 0.950 . S
C244 C243 1.398 . S
C244 C245 1.391 . S
C245 H233 0.950 . S
C245 C241 1.393 . S
C245 C244 1.391 . S
C246 H236 0.950 . S
C246 C247 1.386 . S
C246 C248 1.391 . S
C247 C246 1.386 . S
C247 C251 1.393 . S
C248 H237 0.950 1_556 S
C248 C246 1.391 . S
C248 C249 1.400 . S
C249 C243 1.491 1_556 S
C249 C248 1.400 . S
C249 C250 1.398 . S
C250 H238 0.950 . S
C250 C249 1.398 . S
C250 C251 1.391 . S
C251 H239 0.950 . S
C251 C247 1.393 . S
C251 C250 1.391 . S
H252 C260 0.950 . S
H253 C265 0.947 1_556 S
H254 C262 0.950 . S
H255 C264 0.950 . S
H256 C266 0.950 . S
H257 C268 0.950 . S
H258 C270 0.950 . S
H259 C271 0.950 . S
C260 H252 0.950 . S
C260 C261 1.386 . S
C260 C262 1.391 . S
C261 C260 1.386 . S
C261 C265 1.393 . S
C262 H254 0.950 . S
C262 C260 1.391 . S
C262 C263 1.400 . S
C263 C262 1.400 . S
C263 C264 1.398 . S
C263 C269 1.491 . S
C264 H255 0.950 . S
C264 C263 1.398 . S
C264 C265 1.391 . S
C265 H253 0.947 1_554 S
C265 C261 1.393 . S
C265 C264 1.391 . S
C266 H256 0.950 . S
C266 C267 1.386 . S
C266 C268 1.391 . S
C267 C266 1.386 . S
C267 C271 1.393 . S
C268 H257 0.950 . S
C268 C266 1.391 . S
C268 C269 1.400 . S
C269 C263 1.491 . S
C269 C268 1.400 . S
C269 C270 1.398 . S
C270 H258 0.950 . S
C270 C269 1.398 . S
C270 C271 1.391 . S
C271 H259 0.950 . S
C271 C267 1.393 . S
C271 C270 1.391 . S
H272 C280 0.950 . S
H273 C285 0.950 . S
H274 C282 0.950 . S
H275 C284 0.950 . S
H276 C286 0.950 . S
H277 C288 0.950 . S
H278 C290 0.950 . S
H279 C291 0.950 . S
C280 H272 0.950 . S
C280 C281 1.386 . S
C280 C282 1.391 . S
C281 C280 1.386 . S
C281 C285 1.393 . S
C282 H274 0.950 . S
C282 C280 1.391 . S
C282 C283 1.400 . S
C283 C282 1.400 . S
C283 C284 1.398 . S
C283 C289 1.491 . S
C284 H275 0.950 . S
C284 C283 1.398 . S
C284 C285 1.391 . S
C285 H273 0.950 . S
C285 C281 1.393 . S
C285 C284 1.391 . S
C286 H276 0.950 . S
C286 C287 1.386 . S
C286 C288 1.391 . S
C287 C286 1.386 . S
C287 C291 1.393 . S
C288 H277 0.950 . S
C288 C286 1.391 . S
C288 C289 1.400 . S
C289 C283 1.491 . S
C289 C288 1.400 . S
C289 C290 1.398 . S
C290 H278 0.950 . S
C290 C289 1.398 . S
C290 C291 1.391 . S
C291 H279 0.950 . S
C291 C287 1.393 . S
C291 C290 1.391 . S
H292 C300 0.950 . S
H293 C305 0.950 . S
H294 C302 0.950 . S
H295 C304 0.950 . S
H296 C306 0.950 . S
H297 C308 0.950 . S
H298 C310 0.950 . S
H299 C311 0.950 . S
C300 H292 0.950 . S
C300 C301 1.386 . S
C300 C302 1.391 . S
C301 C300 1.386 . S
C301 C305 1.393 . S
C302 H294 0.950 . S
C302 C300 1.391 . S
C302 C303 1.400 . S
C303 C302 1.400 . S
C303 C304 1.398 . S
C303 C309 1.491 . S
C304 H295 0.950 . S
C304 C303 1.398 . S
C304 C305 1.391 . S
C305 H293 0.950 . S
C305 C301 1.393 . S
C305 C304 1.391 . S
C306 H296 0.950 . S
C306 C307 1.386 . S
C306 C308 1.391 . S
C307 C306 1.386 . S
C307 C311 1.393 . S
C308 H297 0.950 . S
C308 C306 1.391 . S
C308 C309 1.400 . S
C309 C303 1.491 . S
C309 C308 1.400 . S
C309 C310 1.398 . S
C310 H298 0.950 . S
C310 C309 1.398 . S
C310 C311 1.391 . S
C311 H299 0.950 . S
C311 C307 1.393 . S
C311 C310 1.391 . S
H312 C320 0.950 . S
H313 C325 0.950 . S
H314 C322 0.950 . S
H315 C324 0.950 . S
H316 C326 0.950 . S
H317 C328 0.950 . S
H318 C330 0.950 . S
H319 C331 0.950 . S
C320 H312 0.950 . S
C320 C321 1.386 . S
C320 C322 1.391 . S
C321 C320 1.386 . S
C321 C325 1.393 1_554 S
C322 H314 0.950 . S
C322 C320 1.391 . S
C322 C323 1.400 . S
C323 C322 1.400 . S
C323 C324 1.398 1_554 S
C323 C329 1.491 1_554 S
C324 H315 0.950 . S
C324 C323 1.398 1_556 S
C324 C325 1.391 . S
C325 H313 0.950 . S
C325 C321 1.393 1_556 S
C325 C324 1.391 . S
C326 H316 0.950 . S
C326 C327 1.386 . S
C326 C328 1.391 . S
C327 C326 1.386 . S
C327 C331 1.393 1_556 S
C328 H317 0.950 . S
C328 C326 1.391 . S
C328 C329 1.400 . S
C329 C323 1.491 1_556 S
C329 C328 1.400 . S
C329 C330 1.398 1_556 S
C330 H318 0.950 . S
C330 C329 1.398 1_554 S
C330 C331 1.391 . S
C331 H319 0.950 . S
C331 C327 1.393 1_554 S
C331 C330 1.391 . S
H332 C340 0.950 . S
H333 C345 0.950 . S
H334 C342 0.950 . S
H335 C344 0.950 . S
H336 C346 0.950 . S
H337 C348 0.950 . S
H338 C350 0.950 . S
H339 C351 0.950 . S
C340 H332 0.950 . S
C340 C341 1.386 . S
C340 C342 1.391 . S
C341 C340 1.386 . S
C341 C345 1.393 . S
C342 H334 0.950 . S
C342 C340 1.391 . S
C342 C343 1.400 . S
C343 C342 1.400 . S
C343 C344 1.398 . S
C343 C349 1.491 . S
C344 H335 0.950 . S
C344 C343 1.398 . S
C344 C345 1.391 . S
C345 H333 0.950 . S
C345 C341 1.393 . S
C345 C344 1.391 . S
C346 H336 0.950 . S
C346 C347 1.386 . S
C346 C348 1.391 . S
C347 C346 1.386 . S
C347 C351 1.393 . S
C348 H337 0.950 . S
C348 C346 1.391 . S
C348 C349 1.400 . S
C349 C343 1.491 . S
C349 C348 1.400 . S
C349 C350 1.398 . S
C350 H338 0.950 . S
C350 C349 1.398 . S
C350 C351 1.391 . S
C351 H339 0.950 . S
C351 C347 1.393 . S
C351 C350 1.391 . S
H352 C360 0.950 . S
H353 C365 0.950 . S
H354 C362 0.950 . S
H355 C364 0.950 . S
H356 C366 0.950 . S
H357 C368 0.950 . S
H358 C370 0.950 . S
H359 C371 0.950 . S
C360 H352 0.950 . S
C360 C361 1.386 . S
C360 C362 1.391 . S
C361 C360 1.386 . S
C361 C365 1.393 . S
C362 H354 0.950 . S
C362 C360 1.391 . S
C362 C363 1.400 . S
C363 C362 1.400 . S
C363 C364 1.398 . S
C363 C369 1.491 . S
C364 H355 0.950 . S
C364 C363 1.398 . S
C364 C365 1.391 . S
C365 H353 0.950 . S
C365 C361 1.393 . S
C365 C364 1.391 . S
C366 H356 0.950 . S
C366 C367 1.386 . S
C366 C368 1.391 . S
C367 C366 1.386 . S
C367 C371 1.393 . S
C368 H357 0.950 . S
C368 C366 1.391 . S
C368 C369 1.400 . S
C369 C363 1.491 . S
C369 C368 1.400 . S
C369 C370 1.398 . S
C370 H358 0.950 . S
C370 C369 1.398 . S
C370 C371 1.391 . S
C371 H359 0.950 . S
C371 C367 1.393 . S
C371 C370 1.391 . S
H372 C380 0.950 . S
H373 C385 0.950 . S
H374 C382 0.950 . S
H375 C384 0.950 . S
H376 C386 0.950 . S
H377 C388 0.950 . S
H378 C390 0.950 . S
H379 C391 0.950 . S
C380 H372 0.950 . S
C380 C381 1.386 . S
C380 C382 1.391 . S
C381 C380 1.386 . S
C381 C385 1.393 1_556 S
C382 H374 0.950 . S
C382 C380 1.391 . S
C382 C383 1.400 . S
C383 C382 1.400 . S
C383 C384 1.398 1_556 S
C383 C389 1.491 1_556 S
C384 H375 0.950 . S
C384 C383 1.398 1_554 S
C384 C385 1.391 . S
C385 H373 0.950 . S
C385 C381 1.393 1_554 S
C385 C384 1.391 . S
C386 H376 0.950 . S
C386 C387 1.386 . S
C386 C388 1.391 . S
C387 C386 1.386 . S
C387 C391 1.393 1_554 S
C388 H377 0.950 . S
C388 C386 1.391 . S
C388 C389 1.400 . S
C389 C383 1.491 1_554 S
C389 C388 1.400 . S
C389 C390 1.398 1_554 S
C390 H378 0.950 . S
C390 C389 1.398 1_556 S
C390 C391 1.391 . S
C391 H379 0.950 . S
C391 C387 1.393 1_556 S
C391 C390 1.391 . S
H392 C400 0.950 . S
H393 C405 0.950 . S
H394 C402 0.950 . S
H395 C404 0.950 . S
H396 C406 0.950 . S
H397 C408 0.950 . S
H398 C410 0.950 . S
H399 C411 0.950 . S
C400 H392 0.950 . S
C400 C401 1.386 . S
C400 C402 1.391 . S
C401 C400 1.386 . S
C401 C405 1.393 . S
C402 H394 0.950 . S
C402 C400 1.391 . S
C402 C403 1.400 . S
C403 C402 1.400 . S
C403 C404 1.398 . S
C403 C409 1.491 . S
C404 H395 0.950 . S
C404 C403 1.398 . S
C404 C405 1.391 . S
C405 H393 0.950 . S
C405 C401 1.393 . S
C405 C404 1.391 . S
C406 H396 0.950 . S
C406 C407 1.386 . S
C406 C408 1.391 . S
C407 C406 1.386 . S
C407 C411 1.393 . S
C408 H397 0.950 . S
C408 C406 1.391 . S
C408 C409 1.400 . S
C409 C403 1.491 . S
C409 C408 1.400 . S
C409 C410 1.398 . S
C410 H398 0.950 . S
C410 C409 1.398 . S
C410 C411 1.391 . S
C411 H399 0.950 . S
C411 C407 1.393 . S
C411 C410 1.391 . S
H412 C420 0.950 . S
H413 C425 0.950 . S
H414 C422 0.950 . S
H415 C424 0.950 . S
H416 C426 0.950 . S
H417 C428 0.950 . S
H418 C430 0.950 . S
H419 C431 0.950 . S
C420 H412 0.950 . S
C420 C421 1.386 . S
C420 C422 1.391 . S
C421 C420 1.386 . S
C421 C425 1.393 . S
C422 H414 0.950 . S
C422 C420 1.391 . S
C422 C423 1.400 . S
C423 C422 1.400 . S
C423 C424 1.398 . S
C423 C429 1.491 . S
C424 H415 0.950 . S
C424 C423 1.398 . S
C424 C425 1.391 . S
C425 H413 0.950 . S
C425 C421 1.393 . S
C425 C424 1.391 . S
C426 H416 0.950 . S
C426 C427 1.386 . S
C426 C428 1.391 . S
C427 C426 1.386 . S
C427 C431 1.393 . S
C428 H417 0.950 . S
C428 C426 1.391 . S
C428 C429 1.400 . S
C429 C423 1.491 . S
C429 C428 1.400 . S
C429 C430 1.398 . S
C430 H418 0.950 . S
C430 C429 1.398 . S
C430 C431 1.391 . S
C431 H419 0.950 . S
C431 C427 1.393 . S
C431 C430 1.391 . S
C121 C14 1.439 . S
C127 C0 1.432 . S
C141 C25 1.432 . S
C147 C39 1.429 . S
C161 C42 1.441 . S
C167 C28 1.441 . S
C181 C53 1.436 . S
C187 C11 1.430 . S
C201 C56 1.434 . S
C207 C70 1.443 . S
C221 C81 1.430 . S
C227 C95 1.436 . S
C241 C84 1.439 . S
C247 C98 1.432 . S
C261 C67 1.436 . S
C267 C109 1.432 . S
C281 C5 1.451 . S
C287 C103 1.447 . S
C301 C65 1.465 . S
C307 C23 1.465 . S
C321 C75 1.450 . S
C327 C33 1.447 . S
C341 C51 1.457 . S
C347 C93 1.456 . S
C361 C37 1.466 . S
C367 C107 1.466 . S
C381 C61 1.454 . S
C387 C47 1.453 . S
C401 C79 1.460 . S
C407 C9 1.461 . S
C421 C19 1.450 . S
C427 C89 1.453 . S
