# Generated by pormake.
# Topology bcg, (8)-cn, num edge types: 1
# Building blocks:
#     Node 0, Type 0, BuildingBlock: NUHRAL_clean_sbu_3, # of connection points: 8
#     Node 1, Type 0, BuildingBlock: NUHRAL_clean_sbu_3, # of connection points: 8
#     Node 2, Type 0, BuildingBlock: NUHRAL_clean_sbu_3, # of connection points: 8
#     Node 3, Type 0, BuildingBlock: NUHRAL_clean_sbu_3, # of connection points: 8
#     Edge 4, Type (0, 0), BuildingBlock: MIFKUJ_clean_linker_0, # of connection points: 2
#     Edge 5, Type (0, 0), BuildingBlock: MIFKUJ_clean_linker_0, # of connection points: 2
#     Edge 6, Type (0, 0), BuildingBlock: MIFKUJ_clean_linker_0, # of connection points: 2
#     Edge 7, Type (0, 0), BuildingBlock: MIFKUJ_clean_linker_0, # of connection points: 2
#     Edge 8, Type (0, 0), BuildingBlock: MIFKUJ_clean_linker_0, # of connection points: 2
#     Edge 9, Type (0, 0), BuildingBlock: MIFKUJ_clean_linker_0, # of connection points: 2
#     Edge 10, Type (0, 0), BuildingBlock: MIFKUJ_clean_linker_0, # of connection points: 2
#     Edge 11, Type (0, 0), BuildingBlock: MIFKUJ_clean_linker_0, # of connection points: 2
#     Edge 12, Type (0, 0), BuildingBlock: MIFKUJ_clean_linker_0, # of connection points: 2
#     Edge 13, Type (0, 0), BuildingBlock: MIFKUJ_clean_linker_0, # of connection points: 2
#     Edge 14, Type (0, 0), BuildingBlock: MIFKUJ_clean_linker_0, # of connection points: 2
#     Edge 15, Type (0, 0), BuildingBlock: MIFKUJ_clean_linker_0, # of connection points: 2
#     Edge 16, Type (0, 0), BuildingBlock: MIFKUJ_clean_linker_0, # of connection points: 2
#     Edge 17, Type (0, 0), BuildingBlock: MIFKUJ_clean_linker_0, # of connection points: 2
#     Edge 18, Type (0, 0), BuildingBlock: MIFKUJ_clean_linker_0, # of connection points: 2
#     Edge 19, Type (0, 0), BuildingBlock: MIFKUJ_clean_linker_0, # of connection points: 2
# Relax obj value: 0.148
# Max RMSD: 0.213
# Mean RMSD: 0.213
data_MOF--net-bcg--node1-NUHRAL_clean_sbu_3--edge1-MIFKUJ_clean_linker_0
_symmetry_space_group_name_H-M    P1
_symmetry_Int_Tables_number       1
_symmetry_cell_setting            triclinic
loop_
_symmetry_equiv_pos_as_xyz
'x, y, z'
_cell_length_a     26.896515
_cell_length_b     25.778376
_cell_length_c     41.434483
_cell_angle_alpha  81.167051
_cell_angle_beta   89.988258
_cell_angle_gamma 90.04814
loop_
_atom_site_label
_atom_site_type_symbol
_atom_site_fract_x
_atom_site_fract_y
_atom_site_fract_z
_atom_type_partial_charge
C0 C 0.08071 0.29666 0.05099 0.0
C1 C 0.03417 0.29525 0.03554 0.0
C2 C 0.9919 0.27606 0.05371 0.0
C3 C 0.99724 0.25902 0.08744 0.0
C4 C 0.04373 0.25815 0.10295 0.0
C5 C 0.08538 0.27668 0.08429 0.0
O6 O 0.20593 0.26216 0.97068 0.0
Tb7 Tb 0.17719 0.33589 0.98463 0.0
O8 O 0.13547 0.35212 0.93968 0.0
O9 O 0.25301 0.19832 -1e-05 0.0
Eu10 Eu 0.32272 0.24916 -0.00884 0.0
O11 O 0.11544 0.36015 0.00885 0.0
C12 C 0.36334 0.24415 0.93511 0.0
O13 O 0.16466 0.2969 0.03217 0.0
O14 O 0.27587 0.31986 0.98996 0.0
O15 O 0.23687 0.39363 0.98631 0.0
C16 C 0.12392 0.32438 0.03455 0.0
C17 C 0.3921 0.21141 0.05115 0.0
O18 O 0.38011 0.16513 0.04392 0.0
C19 C 0.20844 0.21613 0.98982 0.0
C20 C 0.28025 0.37064 0.98882 0.0
O21 O 0.37541 0.25383 0.03273 0.0
C22 C 0.41032 0.25361 0.91729 0.0
C23 C 0.45335 0.26642 0.865 0.0
C24 C 0.40951 0.25701 0.88324 0.0
C25 C 0.4553 0.25944 0.93354 0.0
C26 C 0.4998 0.26866 0.91569 0.0
C27 C 0.49802 0.27308 0.88141 0.0
C28 C 0.16043 0.36474 0.91238 0.0
O29 O 0.20898 0.3697 0.91389 0.0
O30 O 0.36149 0.2038 0.95887 0.0
O31 O 0.34044 0.28616 0.94191 0.0
H32 H 0.03086 0.30982 0.00969 0.0
H33 H 0.96436 0.24858 0.10208 0.0
H34 H 0.12149 0.27735 0.09583 0.0
H35 H 0.37456 0.2523 0.87096 0.0
H36 H 0.45555 0.25553 0.95995 0.0
H37 H 0.53186 0.28063 0.86733 0.0
C38 C 0.61443 0.80956 0.05273 0.0
C39 C 0.57114 0.80109 0.0353 0.0
C40 C 0.52443 0.79957 0.05073 0.0
C41 C 0.52221 0.80509 0.08398 0.0
C42 C 0.56505 0.81519 0.10134 0.0
C43 C 0.61122 0.81687 0.0855 0.0
O44 O 0.747 0.72182 -0.00673 0.0
Tb45 Tb 0.70436 0.79276 0.98617 0.0
O46 O 0.65409 0.78495 0.9463 0.0
O47 O 0.78079 0.64483 0.00035 0.0
Eu48 Eu 0.84518 0.70187 0.00013 0.0
O49 O 0.67097 0.84739 0.01181 0.0
C50 C 0.90327 0.70052 0.95047 0.0
O51 O 0.68272 0.76529 0.03418 0.0
O52 O 0.81988 0.78337 0.00872 0.0
O53 O 0.77204 0.84001 0.97413 0.0
C54 C 0.66367 0.81113 0.03746 0.0
C55 C 0.85803 0.67331 0.07478 0.0
O56 O 0.80984 0.66674 0.07204 0.0
C57 C 0.73919 0.67104 -0.00391 0.0
C58 C 0.81658 0.82554 0.98621 0.0
O59 O 0.88455 0.68673 0.04822 0.0
C60 C 0.94594 0.72225 0.9305 0.0
C61 C 0.98082 0.74248 0.87591 0.0
C62 C 0.94049 0.72767 0.89649 0.0
C63 C 0.99287 0.73105 0.94398 0.0
C64 C 0.03396 0.74503 0.92326 0.0
C65 C 0.02696 0.75216 0.8893 0.0
C66 C 0.62407 0.82284 0.93363 0.0
O67 O 0.62318 0.86696 0.94582 0.0
O68 O 0.91182 0.67281 0.97933 0.0
O69 O 0.86203 0.72826 0.94882 0.0
H70 H 0.57392 0.79691 0.00973 0.0
H71 H 0.48678 0.80148 0.09657 0.0
H72 H 0.64473 0.82488 0.09842 0.0
H73 H 0.90526 0.71834 0.88598 0.0
H74 H 0.99796 0.72443 0.97023 0.0
H75 H 0.05834 0.76238 0.8731 0.0
C76 C 0.10029 0.70608 0.43925 0.0
C77 C 0.06199 0.71871 0.45991 0.0
C78 C 1.01272 0.72225 0.4485 0.0
C79 C 1.00217 0.71264 0.41682 0.0
C80 C 0.03987 0.69886 0.39637 0.0
C81 C 0.089 0.69586 0.40782 0.0
O82 O 0.24713 0.79417 0.48742 0.0
Tb83 Tb 0.20471 0.72295 0.49602 0.0
O84 O 0.16208 0.72748 0.53957 0.0
O85 O 0.28252 0.87048 0.47971 0.0
Eu86 Eu 0.34747 0.81373 0.4838 0.0
O87 O 0.16547 0.66823 0.47354 0.0
C88 C 0.3878 0.80567 0.54117 0.0
O89 O 0.17338 0.75064 0.45051 0.0
O90 O 0.31924 0.73615 0.47027 0.0
O91 O 0.27282 0.67501 0.5029 0.0
C92 C 0.1527 0.70478 0.44914 0.0
C93 C 0.38837 0.8557 0.41513 0.0
O94 O 0.3424 0.87309 0.41264 0.0
C95 C 0.24038 0.84515 0.48396 0.0
C96 C 0.31677 0.69135 0.49062 0.0
O97 O 0.40319 0.8295 0.44314 0.0
C98 C 0.43171 0.78532 0.55987 0.0
C99 C 0.4732 0.76727 0.61263 0.0
C100 C 0.43081 0.78269 0.59388 0.0
C101 C 0.47526 0.77233 0.54427 0.0
C102 C 0.51786 0.75638 0.56276 0.0
C103 C 0.5163 0.75326 0.59691 0.0
C104 C 0.15794 0.68613 0.56218 0.0
O105 O 0.17863 0.64174 0.55747 0.0
O106 O 0.39509 0.84589 0.51801 0.0
O107 O 0.35621 0.77097 0.53307 0.0
H108 H 0.07055 0.72653 0.48427 0.0
H109 H 0.96414 0.71619 0.40807 0.0
H110 H 0.11867 0.68533 0.39233 0.0
H111 H 0.39734 0.79389 0.60569 0.0
H112 H 0.47629 0.77569 0.51787 0.0
H113 H 0.54981 0.74328 0.61104 0.0
C114 C 0.60004 0.22943 0.42597 0.0
C115 C 0.56136 0.2487 0.44359 0.0
C116 C 0.51876 0.2707 0.42722 0.0
C117 C 0.51575 0.27399 0.39309 0.0
C118 C 0.55378 0.25394 0.3754 0.0
C119 C 0.59602 0.23201 0.39203 0.0
O120 O 0.71949 0.26886 0.50726 0.0
Tb121 Tb 0.68829 0.1946 0.49592 0.0
O122 O 0.63788 0.1865 0.5371 0.0
O123 O 0.76369 0.33264 0.4759 0.0
Eu124 Eu 0.83472 0.28327 0.4841 0.0
O125 O 0.6342 0.16574 0.46721 0.0
C126 C 0.88356 0.30063 0.53523 0.0
O127 O 0.68104 0.23328 0.44784 0.0
O128 O 0.78879 0.21065 0.49224 0.0
O129 O 0.74865 0.13681 0.49949 0.0
C130 C 0.64348 0.20305 0.44249 0.0
C131 C 0.86846 0.24587 0.41985 0.0
O132 O 0.82467 0.22319 0.42384 0.0
C133 C 0.71998 0.31413 0.48743 0.0
C134 C 0.79229 0.15942 0.49579 0.0
O135 O 0.88353 0.27535 0.44115 0.0
C136 C 0.93396 0.29868 0.54894 0.0
C137 C 0.98629 0.29681 0.59704 0.0
C138 C 0.93921 0.30071 0.58239 0.0
C139 C 0.97632 0.29366 0.52969 0.0
C140 C 0.02363 0.28952 0.54429 0.0
C141 C 0.02816 0.29085 0.57786 0.0
C142 C 0.65504 0.19643 0.56517 0.0
O143 O 0.7025 0.20728 0.56765 0.0
O144 O 0.87429 0.33752 0.51026 0.0
O145 O 0.86307 0.25511 0.53269 0.0
H146 H 0.56381 0.24528 0.46995 0.0
H147 H 0.48206 0.28875 0.38052 0.0
H148 H 0.62542 0.21595 0.37862 0.0
H149 H 0.9065 0.30478 0.59713 0.0
H150 H 0.97246 0.29235 0.50379 0.0
H151 H 0.06484 0.28906 0.58888 0.0
H152 H 0.58973 0.23222 0.89796 0.0
H153 H 0.67009 0.24057 0.9227 0.0
H154 H 0.60226 0.315 -0.00194 0.0
H155 H 0.52119 0.31147 0.97137 0.0
H156 H 0.68957 0.36011 0.98108 0.0
H157 H 0.64372 0.17949 0.02106 0.0
H158 H 0.60847 0.09288 0.01525 0.0
H159 H 0.71139 0.07939 0.93771 0.0
H160 H 0.74645 0.16635 0.94275 0.0
H161 H 0.91758 0.20383 0.0692 0.0
H162 H 0.83224 0.20849 0.0507 0.0
H163 H 0.8664 0.348 0.9824 0.0
H164 H 0.95106 0.34702 0.00376 0.0
H165 H 0.78927 0.19695 0.00256 0.0
H166 H 0.76395 0.42213 0.95992 0.0
H167 H 0.792 0.50607 0.97536 0.0
H168 H 0.82273 0.42909 0.07271 0.0
H169 H 0.79436 0.34479 0.05796 0.0
C170 C 0.59155 0.25149 0.91937 0.0
C171 C 0.5486 0.27153 0.93242 0.0
C172 C 0.63772 0.25533 0.9339 0.0
C173 C 0.64217 0.2772 0.96271 0.0
C174 C 0.59965 0.29756 0.97595 0.0
C175 C 0.55322 0.29479 0.96092 0.0
C176 C 0.69137 0.27725 0.97896 0.0
C177 C 0.71164 0.32455 0.98579 0.0
C178 C 0.71945 0.23067 0.98608 0.0
C179 C 0.69818 0.17879 0.98264 0.0
C180 C 0.65878 0.15792 0.00282 0.0
C181 C 0.63876 0.1089 -0.0004 0.0
C182 C 0.65785 0.08052 0.97624 0.0
C183 C 0.69683 0.10124 0.95593 0.0
C184 C 0.7169 0.15027 0.95903 0.0
C185 C 0.90693 0.23638 0.05078 0.0
C186 C 0.94137 0.27578 0.03867 0.0
C187 C 0.85789 0.23861 0.03981 0.0
C188 C 0.84195 0.27928 0.01552 0.0
C189 C 0.87692 0.31715 0.00196 0.0
C190 C 0.92587 0.31588 0.01373 0.0
C191 C 0.78936 0.28025 0.00378 0.0
C192 C 0.76803 0.23287 -0.00222 0.0
C193 C 0.75998 0.32658 -0.00136 0.0
C194 C 0.77755 0.37701 0.00769 0.0
C195 C 0.77663 0.42312 0.98463 0.0
C196 C 0.79257 0.47077 -0.00673 0.0
C197 C 0.80924 0.4729 0.02497 0.0
C198 C 0.80998 0.42736 0.04812 0.0
C199 C 0.79407 0.3796 0.03962 0.0
H200 H 0.82147 0.50986 0.03161 0.0
H201 H 0.64233 0.04256 0.9738 0.0
H202 H 0.11639 0.69841 0.9029 0.0
H203 H 0.20227 0.70668 0.92023 0.0
H204 H 0.15452 0.80436 0.99008 0.0
H205 H 0.06785 0.79703 0.9722 0.0
H206 H 0.23721 0.8447 0.95179 0.0
H207 H 0.18876 0.67455 0.01614 0.0
H208 H 0.15496 0.58478 0.01953 0.0
H209 H 0.26595 0.54839 0.95191 0.0
H210 H 0.30077 0.63754 0.94857 0.0
H211 H 0.43615 0.84871 0.05753 0.0
H212 H 0.35721 0.83532 0.03207 0.0
H213 H 0.42625 0.72854 0.97505 0.0
H214 H 0.50584 0.73915 0.00235 0.0
H215 H 0.3382 0.69048 -0.00116 0.0
H216 H 0.38433 0.85267 0.93101 0.0
H217 H 0.42115 0.9415 0.92129 0.0
H218 H 0.31868 0.99222 0.98957 0.0
H219 H 0.28199 0.90342 2e-05 0.0
C220 C 0.12409 0.72169 0.92199 0.0
C221 C 0.08538 0.74731 0.93613 0.0
C222 C 0.17322 0.72606 0.932 0.0
C223 C 0.18483 0.75576 0.95661 0.0
C224 C 0.1463 0.78111 0.97106 0.0
C225 C 0.09685 0.77661 0.96107 0.0
C226 C 0.23733 0.761 0.96681 0.0
C227 C 0.25875 0.81119 0.96293 0.0
C228 C 0.26694 0.71681 0.97884 0.0
C229 C 0.2472 0.66264 0.98203 0.0
C230 C 0.206 0.64726 0.00211 0.0
C231 C 0.18676 0.59645 0.00409 0.0
C232 C 0.20838 0.5608 0.98604 0.0
C233 C 0.24945 0.57582 0.9661 0.0
C234 C 0.26911 0.62637 0.96428 0.0
C235 C 0.43481 0.82184 0.03987 0.0
C236 C 0.47744 0.79435 0.03246 0.0
C237 C 0.38958 0.81494 0.02484 0.0
C238 C 0.38584 0.78169 0.00117 0.0
C239 C 0.42835 0.7547 -0.00689 0.0
C240 C 0.4739 0.76122 0.0085 0.0
C241 C 0.33679 0.77471 0.98594 0.0
C242 C 0.3163 0.72419 0.98831 0.0
C243 C 0.30817 0.81846 0.97203 0.0
C244 C 0.32986 0.87187 0.96582 0.0
C245 C 0.36963 0.8829 0.94384 0.0
C246 C 0.39057 0.93314 0.93829 0.0
C247 C 0.37209 0.97257 0.95467 0.0
C248 C 0.33278 0.96176 0.97675 0.0
C249 C 0.31174 0.91156 0.98238 0.0
H250 H 0.38834 1.01145 0.95035 0.0
H251 H 0.19331 0.52157 0.98747 0.0
H252 H 0.56333 0.82299 0.51437 0.0
H253 H 0.64886 0.81773 0.49496 0.0
H254 H 0.66624 0.6673 0.55593 0.0
H255 H 0.58106 0.67323 0.57605 0.0
H256 H 0.73853 0.73437 0.56595 0.0
H257 H 0.65388 0.68737 0.47239 0.0
H258 H 0.59781 0.6984 0.42501 0.0
H259 H 0.68063 0.83354 0.38137 0.0
H260 H 0.73724 0.82355 0.42863 0.0
H261 H 0.97452 0.66287 0.50296 0.0
H262 H 0.89091 0.67169 0.52535 0.0
H263 H 0.87154 0.81798 0.46034 0.0
H264 H 0.95453 0.80865 0.43778 0.0
H265 H 0.7995 0.75344 0.45199 0.0
H266 H 0.87943 0.80912 0.54176 0.0
H267 H 0.93062 0.81327 0.59053 0.0
H268 H 0.85222 0.68135 0.64259 0.0
H269 H 0.80273 0.67387 0.59351 0.0
C270 C 0.58507 0.78825 0.52298 0.0
C271 C 0.56582 0.74854 0.54672 0.0
C272 C 0.63393 0.78531 0.51193 0.0
C273 C 0.66396 0.74212 0.524 0.0
C274 C 0.64381 0.70113 0.54646 0.0
C275 C 0.59521 0.7044 0.55782 0.0
C276 C 0.71749 0.74156 0.51543 0.0
C277 C 0.75209 0.73733 0.54107 0.0
C278 C 0.73467 0.74852 0.48277 0.0
C279 C 0.70018 0.75448 0.45427 0.0
C280 C 0.66039 0.71938 0.45278 0.0
C281 C 0.62835 0.72553 0.4259 0.0
C282 C 0.63569 0.76662 0.40018 0.0
C283 C 0.67506 0.80165 0.4013 0.0
C284 C 0.7072 0.79566 0.42813 0.0
C285 C 0.95301 0.69783 0.49448 0.0
C286 C 0.9707 0.73518 0.46879 0.0
C287 C 0.90518 0.70274 0.50709 0.0
C288 C 0.87464 0.7452 0.49422 0.0
C289 C 0.89414 0.78462 0.4704 0.0
C290 C 0.94168 0.7796 0.45776 0.0
C291 C 0.82091 0.74573 0.50264 0.0
C292 C 0.78619 0.74994 0.47695 0.0
C293 C 0.80357 0.74008 0.53525 0.0
C294 C 0.83737 0.74073 0.56364 0.0
C295 C 0.87391 0.77997 0.56322 0.0
C296 C 0.90252 0.78309 0.59103 0.0
C297 C 0.89397 0.74829 0.61976 0.0
C298 C 0.85829 0.70878 0.6204 0.0
C299 C 0.83037 0.70468 0.59246 0.0
H300 H 0.91523 0.75174 0.64151 0.0
H301 H 0.61089 0.77135 0.37941 0.0
H302 H 0.09088 0.21059 0.55268 0.0
H303 H 0.17569 0.21311 0.53116 0.0
H304 H 0.14626 0.36409 0.47357 0.0
H305 H 0.06062 0.3609 0.49463 0.0
H306 H 0.20814 0.30577 0.44153 0.0
H307 H 0.20079 0.35891 0.54606 0.0
H308 H 0.17675 0.3524 0.60395 0.0
H309 H 0.26235 0.2111 0.62711 0.0
H310 H 0.28603 0.21608 0.56918 0.0
H311 H 0.462 0.35961 0.41627 0.0
H312 H 0.37825 0.37052 0.43728 0.0
H313 H 0.3901 0.22025 0.49906 0.0
H314 H 0.47407 0.20964 0.4785 0.0
H315 H 0.33665 0.28615 0.52858 0.0
H316 H 0.33802 0.2329 0.42139 0.0
H317 H 0.362 0.24302 0.36329 0.0
H318 H 0.28845 0.39248 0.34549 0.0
H319 H 0.26476 0.3836 0.40366 0.0
C320 C 0.10217 0.24352 0.53467 0.0
C321 C 0.06953 0.28557 0.52526 0.0
C322 C 0.15066 0.2452 0.52263 0.0
C323 C 0.16768 0.28944 0.50145 0.0
C324 C 0.13397 0.32975 0.49007 0.0
C325 C 0.08509 0.32782 0.50193 0.0
C326 C 0.22141 0.29496 0.49337 0.0
C327 C 0.2362 0.30243 0.46054 0.0
C328 C 0.25812 0.29031 0.51819 0.0
C329 C 0.24478 0.28759 0.55319 0.0
C330 C 0.2142 0.32622 0.56345 0.0
C331 C 0.20064 0.32283 0.59627 0.0
C332 C 0.21792 0.28132 0.61919 0.0
C333 C 0.24893 0.24319 0.60932 0.0
C334 C 0.26243 0.24627 0.57648 0.0
C335 C 0.4471 0.32958 0.43494 0.0
C336 C 0.47417 0.28348 0.44547 0.0
C337 C 0.39922 0.33573 0.44684 0.0
C338 C 0.37733 0.29549 0.46904 0.0
C339 C 0.40604 0.25161 0.48173 0.0
C340 C 0.45412 0.24566 0.47007 0.0
C341 C 0.32343 0.29654 0.47677 0.0
C342 C 0.30856 0.28992 0.50958 0.0
C343 C 0.28671 0.30294 0.45193 0.0
C344 C 0.29988 0.30773 0.41685 0.0
C345 C 0.32711 0.26798 0.40509 0.0
C346 C 0.34068 0.27352 0.37217 0.0
C347 C 0.32679 0.31839 0.35072 0.0
C348 C 0.29919 0.35776 0.36214 0.0
C349 C 0.28565 0.35249 0.39507 0.0
H350 H 0.33737 0.32262 0.32524 0.0
H351 H 0.20736 0.27876 0.64459 0.0
H352 H 0.64274 0.71174 -0.00624 0.0
H353 H 0.56434 0.66389 -0.00879 0.0
H354 H 0.64597 0.51946 -0.00632 0.0
H355 H 0.72389 0.56713 -0.00459 0.0
H356 H 0.57396 0.5236 0.94977 0.0
H357 H 0.58558 0.55863 0.06082 0.0
H358 H 0.59154 0.61545 0.1034 0.0
H359 H 0.45191 0.68696 0.07258 0.0
H360 H 0.44597 0.63204 0.02896 0.0
H361 H 0.37803 0.336 0.98664 0.0
H362 H 0.45435 0.38791 0.98741 0.0
H363 H 0.36647 0.52613 -0.00684 0.0
H364 H 0.29072 0.47388 -0.00637 0.0
H365 H 0.44021 0.52859 0.0315 0.0
H366 H 0.42485 0.49798 0.92225 0.0
H367 H 0.41748 0.44984 0.87552 0.0
H368 H 0.56044 0.37958 0.89782 0.0
H369 H 0.56769 0.42516 0.94573 0.0
C370 C 0.64413 0.67004 -0.00658 0.0
C371 C 0.6901 0.64373 -0.00546 0.0
C372 C 0.59902 0.6424 -0.00775 0.0
C373 C 0.59871 0.5876 -0.00751 0.0
C374 C 0.64467 0.56154 -0.00662 0.0
C375 C 0.68947 0.58905 -0.0055 0.0
C376 C 0.55113 0.5568 -0.00803 0.0
C377 C 0.54501 0.52416 0.96795 0.0
C378 C 0.51219 0.55876 0.01487 0.0
C379 C 0.5157 0.59165 0.04126 0.0
C380 C 0.55643 0.58693 0.06282 0.0
C381 C 0.55984 0.61888 0.08712 0.0
C382 C 0.5223 0.65507 0.09053 0.0
C383 C 0.48113 0.65916 0.06977 0.0
C384 C 0.47781 0.62775 0.04517 0.0
C385 C 0.37493 0.37731 0.98816 0.0
C386 C 0.32788 0.40071 0.98966 0.0
C387 C 0.41879 0.40729 0.98839 0.0
C388 C 0.41677 0.4616 0.98989 0.0
C389 C 0.36969 0.48459 -0.00807 0.0
C390 C 0.32611 0.45464 -0.00814 0.0
C391 C 0.4632 0.49463 0.98951 0.0
C392 C 0.4691 0.52779 0.01332 0.0
C393 C 0.50158 0.49388 0.96602 0.0
C394 C 0.49645 0.4645 0.93799 0.0
C395 C 0.4543 0.47143 0.91766 0.0
C396 C 0.45012 0.44453 0.89094 0.0
C397 C 0.48828 0.41133 0.88387 0.0
C398 C 0.53067 0.40489 0.90354 0.0
C399 C 0.53473 0.43105 0.93059 0.0
H400 H 0.48514 0.39091 0.86302 0.0
H401 H 0.52501 0.67978 0.10935 0.0
H402 H 0.7101 0.41414 0.45366 0.0
H403 H 0.64147 0.47563 0.45561 0.0
H404 H 0.56132 0.3584 0.52102 0.0
H405 H 0.62935 0.29621 0.51838 0.0
H406 H 0.49685 0.40913 0.48292 0.0
H407 H 0.61971 0.46664 0.55087 0.0
H408 H 0.70356 0.4908 0.56759 0.0
H409 H 0.70966 0.616 0.48651 0.0
H410 H 0.62522 0.59303 0.46944 0.0
H411 H 0.32527 0.59532 0.52962 0.0
H412 H 0.3926 0.53138 0.53122 0.0
H413 H 0.47244 0.63625 0.45802 0.0
H414 H 0.4059 0.70128 0.45719 0.0
H415 H 0.5359 0.58949 0.50339 0.0
H416 H 0.40573 0.51619 0.43651 0.0
H417 H 0.31847 0.48927 0.43011 0.0
H418 H 0.32438 0.39128 0.52371 0.0
H419 H 0.41221 0.41554 0.52982 0.0
C420 C 0.67777 0.40115 0.46828 0.0
C421 C 0.67584 0.35006 0.48608 0.0
C422 C 0.6385 0.43671 0.46966 0.0
C423 C 0.59624 0.42261 0.48917 0.0
C424 C 0.59334 0.37086 0.50594 0.0
C425 C 0.63253 0.33514 0.50441 0.0
C426 C 0.55561 0.46194 0.49213 0.0
C427 C 0.50566 0.44834 0.48768 0.0
C428 C 0.56603 0.51332 0.49874 0.0
C429 C 0.61638 0.52795 0.50879 0.0
C430 C 0.63894 0.49933 0.53658 0.0
C431 C 0.6864 0.51296 0.54618 0.0
C432 C 0.71173 0.55511 0.52817 0.0
C433 C 0.68961 0.58375 0.50054 0.0
C434 C 0.6419 0.57059 0.49096 0.0
C435 C 0.35716 0.60499 0.51389 0.0
C436 C 0.35954 0.65352 0.49301 0.0
C437 C 0.39566 0.56796 0.51458 0.0
C438 C 0.43742 0.57783 0.49402 0.0
C439 C 0.44067 0.62704 0.47395 0.0
C440 C 0.40237 0.66436 0.47347 0.0
C441 C 0.47747 0.53709 0.4933 0.0
C442 C 0.52732 0.5504 0.49834 0.0
C443 C 0.46679 0.48491 0.48839 0.0
C444 C 0.41529 0.4676 0.48358 0.0
C445 C 0.38847 0.48835 0.45547 0.0
C446 C 0.33903 0.47336 0.45184 0.0
C447 C 0.31598 0.43818 0.47636 0.0
C448 C 0.34247 0.41768 0.50445 0.0
C449 C 0.39219 0.43159 0.50786 0.0
H450 H 0.27762 0.42687 0.47364 0.0
H451 H 0.74854 0.56555 0.53558 0.0
H452 H 0.20374 0.11406 0.021 0.0
H453 H 0.13764 0.04969 0.0186 0.0
H454 H 0.05087 0.16623 0.9573 0.0
H455 H 0.11654 0.23126 0.96023 0.0
H456 H 0.99085 0.11116 -0.00212 0.0
H457 H 0.11649 0.06468 0.92665 0.0
H458 H 0.19879 0.03923 0.90797 0.0
H459 H 0.19786 0.9023 0.98163 0.0
H460 H 0.11632 0.92711 0.00078 0.0
H461 H 0.81876 0.92514 0.95046 0.0
H462 H 0.884 0.99165 0.94919 0.0
H463 H 0.97334 0.8832 0.01441 0.0
H464 H 0.90888 0.81611 0.0151 0.0
H465 H 0.03093 0.93597 0.96941 0.0
H466 H 0.90147 0.99002 0.04062 0.0
H467 H 0.81531 0.01525 0.05185 0.0
H468 H 0.82163 0.13929 0.96981 0.0
H469 H 0.90716 0.11511 0.95845 0.0
C470 C 0.17051 0.12627 0.00714 0.0
C471 C 0.16597 0.17808 -0.00936 0.0
C472 C 0.1327 0.08908 0.00554 0.0
C473 C 0.08924 0.10229 0.98716 0.0
C474 C 0.08389 0.15452 0.97153 0.0
C475 C 0.12166 0.19185 0.97323 0.0
C476 C 0.04952 0.06183 0.98447 0.0
C477 C 0.99984 0.0731 -0.00867 0.0
C478 C 0.06034 1.01167 0.97606 0.0
C479 C 0.11053 0.99802 0.96536 0.0
C480 C 0.13424 0.02948 0.93908 0.0
C481 C 0.18074 0.01504 0.92829 0.0
C482 C 0.20369 0.9691 0.94348 0.0
C483 C 0.18034 0.93778 0.96968 0.0
C484 C 0.13395 0.952 0.98054 0.0
C485 C 0.85237 0.91521 0.96443 0.0
C486 C 0.85798 0.86511 0.98319 0.0
C487 C 0.88967 0.95364 0.96391 0.0
C488 C 0.9335 0.94337 0.9824 0.0
C489 C 0.93992 0.89271 0.00015 0.0
C490 C 0.90279 0.8542 0.00056 0.0
C491 C 0.97264 0.98501 0.98338 0.0
C492 C 0.02218 0.97396 0.97615 0.0
C493 C 0.9616 0.03561 -0.00909 0.0
C494 C 0.91049 0.05067 -0.00138 0.0
C495 C 0.88426 0.02271 0.02508 0.0
C496 C 0.83549 0.03691 0.03152 0.0
C497 C 0.81276 0.07896 0.01166 0.0
C498 C 0.83887 0.10694 0.98541 0.0
C499 C 0.88759 0.09317 0.97902 0.0
H500 H 0.77498 0.08983 0.01662 0.0
H501 H 0.2394 0.95773 0.93482 0.0
H502 H 0.80051 0.05374 0.49883 0.0
H503 H 0.875 1.00079 0.49672 0.0
H504 H 0.96569 0.14017 0.48872 0.0
H505 H 0.89046 0.19385 0.49021 0.0
H506 H 0.99826 0.07611 0.44747 0.0
H507 H 0.96759 0.05045 0.56347 0.0
H508 H 0.91099 0.03458 0.61086 0.0
H509 H 0.86558 0.88827 0.58285 0.0
H510 H 0.92321 0.90245 0.53575 0.0
H511 H 0.22813 0.95031 0.47896 0.0
H512 H 0.1525 1.00071 0.48152 0.0
H513 H 0.06621 0.85798 0.49442 0.0
H514 H 0.14303 0.8066 0.49306 0.0
H515 H 0.02996 0.92274 0.53307 0.0
H516 H 0.07025 0.945 0.41962 0.0
H517 H 0.12002 0.96609 0.36933 0.0
H518 H 0.14156 0.12339 0.38886 0.0
H519 H 0.0925 0.10306 0.43953 0.0
C520 C 0.83623 0.0734 0.49676 0.0
C521 C 0.83919 0.12834 0.49489 0.0
C522 C 0.87908 0.0428 0.49575 0.0
C523 C 0.92652 0.06595 0.49322 0.0
C524 C 0.92973 0.12101 0.49089 0.0
C525 C 0.88658 0.15182 0.49183 0.0
C526 C 0.9722 0.03242 0.49261 0.0
C527 C 1.00558 0.04301 0.46639 0.0
C528 C 0.98145 0.98829 0.51682 0.0
C529 C 0.94967 0.97744 0.54624 0.0
C530 C 0.94595 0.01457 0.56767 0.0
C531 C 0.91385 1.00579 0.59449 0.0
C532 C 0.88505 0.96017 0.59997 0.0
C533 C 0.88857 0.92308 0.57878 0.0
C534 C 0.9212 0.93126 0.55218 0.0
C535 C 0.19321 0.92921 0.48227 0.0
C536 C 0.19212 0.87399 0.48537 0.0
C537 C 0.14961 0.95843 0.48354 0.0
C538 C 0.10294 0.93374 0.48741 0.0
C539 C 0.1015 0.87839 0.49114 0.0
C540 C 0.14559 0.84885 0.49014 0.0
C541 C 0.05643 0.96629 0.48769 0.0
C542 C 0.02283 0.9556 0.51395 0.0
C543 C 0.04699 1.01045 0.46338 0.0
C544 C 0.07823 0.02226 0.43362 0.0
C545 C 0.0862 0.98386 0.41345 0.0
C546 C 0.11412 0.99575 0.3848 0.0
C547 C 0.13408 0.04598 0.37597 0.0
C548 C 0.1262 0.08444 0.39578 0.0
C549 C 0.09835 0.07276 0.42447 0.0
H550 H 0.15554 0.05516 0.35372 0.0
H551 H 0.85982 0.95366 0.62056 0.0
H552 H 0.56553 0.16901 0.34427 0.0
H553 H 0.54586 0.16232 0.28749 0.0
H554 H 0.50674 0.32665 0.27021 0.0
H555 H 0.52477 0.33286 0.32743 0.0
H556 H 0.43847 0.27368 0.24651 0.0
H557 H 0.61729 0.27437 0.23824 0.0
H558 H 0.70244 0.24442 0.25333 0.0
H559 H 0.66613 0.08994 0.23382 0.0
H560 H 0.58058 0.11884 0.21916 0.0
H561 H 0.41333 0.301 0.07609 0.0
H562 H 0.44881 0.30806 0.12946 0.0
H563 H 0.46711 0.14006 0.14907 0.0
H564 H 0.43152 0.13242 0.09563 0.0
H565 H 0.54703 0.19319 0.171 0.0
H566 H 0.36938 0.19199 0.17965 0.0
H567 H 0.28387 0.22059 0.16467 0.0
H568 H 0.31794 0.37557 0.18416 0.0
H569 H 0.40393 0.34806 0.19881 0.0
C570 C 0.5536 0.2039 0.32817 0.0
C571 C 0.5469 0.25154 0.34016 0.0
C572 C 0.54247 0.20009 0.29566 0.0
C573 C 0.52543 0.24415 0.27431 0.0
C574 C 0.51983 0.29209 0.28615 0.0
C575 C 0.53021 0.29568 0.31879 0.0
C576 C 0.51033 0.23957 0.2403 0.0
C577 C 0.46271 0.25704 0.22985 0.0
C578 C 0.54109 0.21607 0.21882 0.0
C579 C 0.59251 0.1987 0.22771 0.0
C580 C 0.62741 0.23395 0.23736 0.0
C581 C 0.67575 0.21717 0.24583 0.0
C582 C 0.68969 0.16531 0.24457 0.0
C583 C 0.65532 0.13012 0.23479 0.0
C584 C 0.60694 0.14669 0.22634 0.0
C585 C 0.42536 0.2655 0.09156 0.0
C586 C 0.419 0.21603 0.08176 0.0
C587 C 0.44554 0.26964 0.12211 0.0
C588 C 0.45978 0.22447 0.14345 0.0
C589 C 0.45605 0.17532 0.13305 0.0
C590 C 0.43559 0.17105 0.10253 0.0
C591 C 0.47585 0.22845 0.17722 0.0
C592 C 0.52324 0.21039 0.18766 0.0
C593 C 0.44494 0.25143 0.19877 0.0
C594 C 0.39325 0.26811 0.18998 0.0
C595 C 0.35877 0.23229 0.18046 0.0
C596 C 0.31019 0.24828 0.17208 0.0
C597 C 0.29552 0.29991 0.17337 0.0
C598 C 0.32938 0.33561 0.18312 0.0
C599 C 0.37804 0.31984 0.19148 0.0
H600 H 0.25789 0.3122 0.1669 0.0
H601 H 0.72713 0.15241 0.25113 0.0
H602 H 0.49408 0.87315 0.1265 0.0
H603 H 0.48382 0.88732 0.18276 0.0
H604 H 0.61732 0.79854 0.20994 0.0
H605 H 0.62644 0.78179 0.15357 0.0
H606 H 0.54804 0.7687 0.25242 0.0
H607 H 0.61243 0.9352 0.2076 0.0
H608 H 0.62196 0.01781 0.16929 0.0
H609 H 0.47318 0.06259 0.19049 0.0
H610 H 0.46236 0.97999 0.22834 0.0
H611 H 0.48543 0.82425 0.41129 0.0
H612 H 0.53576 0.82659 0.36177 0.0
H613 H 0.41451 0.90028 0.30387 0.0
H614 H 0.36476 0.89948 0.35302 0.0
H615 H 0.50186 0.94168 0.28193 0.0
H616 H 0.43493 0.76359 0.31614 0.0
H617 H 0.42714 0.68309 0.35662 0.0
H618 H 0.58569 0.66348 0.35691 0.0
H619 H 0.59436 0.74409 0.31658 0.0
C620 C 0.52118 0.85629 0.14441 0.0
C621 C 0.56085 0.82589 0.13552 0.0
C622 C 0.51574 0.86523 0.17656 0.0
C623 C 0.5503 0.84487 0.20058 0.0
C624 C 0.59039 0.81503 0.19179 0.0
C625 C 0.59571 0.80572 0.15953 0.0
C626 C 0.54193 0.85178 0.23514 0.0
C627 C 0.53916 0.80678 0.25898 0.0
C628 C 0.53032 0.90141 0.24391 0.0
C629 C 0.53651 0.95108 0.22074 0.0
C630 C 0.58156 0.96242 0.20385 0.0
C631 C 0.5872 1.00931 0.18219 0.0
C632 C 0.54811 0.04532 0.17727 0.0
C633 C 0.50338 0.03463 0.19413 0.0
C634 C 0.49751 0.98779 0.21575 0.0
C635 C 0.46978 0.84157 0.38803 0.0
C636 C 0.4209 0.86121 0.38602 0.0
C637 C 0.49855 0.84273 0.35977 0.0
C638 C 0.47863 0.86286 0.32907 0.0
C639 C 0.43069 0.88454 0.32728 0.0
C640 C 0.40215 0.88381 0.35544 0.0
C641 C 0.50554 0.85849 0.29834 0.0
C642 C 0.51199 0.90394 0.27535 0.0
C643 C 0.52082 0.80946 0.29039 0.0
C644 C 0.51532 0.76002 0.31362 0.0
C645 C 0.46809 0.74209 0.32488 0.0
C646 C 0.46353 0.69648 0.34779 0.0
C647 C 0.5059 0.66825 0.35939 0.0
C648 C 0.55289 0.68536 0.3479 0.0
C649 C 0.55765 0.73094 0.32499 0.0
H650 H 0.50231 0.63308 0.37723 0.0
H651 H 0.55259 0.08167 0.16057 0.0
H652 H 0.51127 0.69599 0.66222 0.0
H653 H 0.52147 0.70677 0.71954 0.0
H654 H 0.44867 0.85738 0.7002 0.0
H655 H 0.43901 0.84719 0.64281 0.0
H656 H 0.53737 0.86221 0.73106 0.0
H657 H 0.39086 0.75657 0.74587 0.0
H658 H 0.33717 0.6807 0.74079 0.0
H659 H 0.44368 0.57687 0.79401 0.0
H660 H 0.49841 0.65204 0.79899 0.0
H661 H 0.56383 0.89551 0.89729 0.0
H662 H 0.5231 0.88768 0.84538 0.0
H663 H 0.5791 0.72973 0.851 0.0
H664 H 0.61879 0.73676 0.90296 0.0
H665 H 0.48754 0.73481 0.82782 0.0
H666 H 0.63771 0.83623 0.80759 0.0
H667 H 0.69531 0.90968 0.81079 0.0
H668 H 0.58661 0.01891 0.76522 0.0
H669 H 0.52762 0.94622 0.7627 0.0
C670 C 0.49698 0.73112 0.6703 0.0
C671 C 0.47432 0.77071 0.64805 0.0
C672 C 0.50249 0.73708 0.70307 0.0
C673 C 0.48551 0.78275 0.71415 0.0
C674 C 0.4618 0.82175 0.69217 0.0
C675 C 0.45601 0.81568 0.65945 0.0
C676 C 0.49622 0.79159 0.74798 0.0
C677 C 0.52553 0.83503 0.75231 0.0
C678 C 0.48176 0.75535 0.77555 0.0
C679 C 0.44894 0.70998 0.77258 0.0
C680 C 0.40306 0.71753 0.75625 0.0
C681 C 0.37239 0.67464 0.75343 0.0
C682 C 0.38705 0.62399 0.76701 0.0
C683 C 0.43239 0.61613 0.78349 0.0
C684 C 0.46322 0.65888 0.78635 0.0
C685 C 0.56693 0.85891 0.88765 0.0
C686 C 0.59512 0.81701 0.90403 0.0
C687 C 0.54378 0.85456 0.85793 0.0
C688 C 0.54874 0.80841 0.84403 0.0
C689 C 0.57484 0.76576 0.86118 0.0
C690 C 0.59778 0.76998 0.89085 0.0
C691 C 0.52937 0.80503 0.81087 0.0
C692 C 0.49857 0.76256 0.80663 0.0
C693 C 0.54292 0.8419 0.78329 0.0
C694 C 0.5779 0.88582 0.78549 0.0
C695 C 0.62574 0.87598 0.79873 0.0
C696 C 0.65865 0.91748 0.80041 0.0
C697 C 0.64443 0.96898 0.78848 0.0
C698 C 0.59732 0.97905 0.77477 0.0
C699 C 0.56409 0.93773 0.77328 0.0
H700 H 0.67003 1.00104 0.78967 0.0
H701 H 0.36325 0.59084 0.76481 0.0
H702 H 0.40316 0.19932 0.83126 0.0
H703 H 0.4143 0.18879 0.77413 0.0
H704 H 0.51776 0.31832 0.76112 0.0
H705 H 0.50473 0.33094 0.81766 0.0
H706 H 0.46701 0.31681 0.7062 0.0
H707 H 0.55709 0.18911 0.78357 0.0
H708 H 0.56387 0.11795 0.83053 0.0
H709 H 0.46671 0.02136 0.78281 0.0
H710 H 0.45915 0.09217 0.73563 0.0
H711 H 0.67125 0.25043 0.61538 0.0
H712 H 0.6146 0.26149 0.65982 0.0
H713 H 0.50567 0.16416 0.62166 0.0
H714 H 0.56196 0.154 0.57617 0.0
H715 H 0.53866 0.14264 0.69596 0.0
H716 H 0.46638 0.26796 0.61231 0.0
H717 H 0.46998 0.33881 0.56505 0.0
H718 H 0.54058 0.44023 0.6243 0.0
H719 H 0.53818 0.36964 0.67182 0.0
C720 C 0.42706 0.22667 0.81599 0.0
C721 C 0.45374 0.26543 0.82921 0.0
C722 C 0.43372 0.22028 0.78338 0.0
C723 C 0.46775 0.25196 0.76355 0.0
C724 C 0.49155 0.29314 0.77599 0.0
C725 C 0.48452 0.29992 0.80847 0.0
C726 C 0.48303 0.23898 0.73131 0.0
C727 C 0.48228 0.27862 0.7039 0.0
C728 C 0.50223 0.18879 0.72809 0.0
C729 C 0.50701 0.14613 0.75632 0.0
C730 C 0.53693 0.1528 0.7832 0.0
C731 C 0.54096 0.11253 0.80983 0.0
C732 C 0.5155 0.06528 0.80974 0.0
C733 C 0.48617 0.0581 0.78293 0.0
C734 C 0.4821 0.09823 0.75621 0.0
C735 C 0.63532 0.23122 0.61641 0.0
C736 C 0.62103 0.20114 0.59244 0.0
C737 C 0.60296 0.23784 0.64169 0.0
C738 C 0.55608 0.21387 0.64374 0.0
C739 C 0.54175 0.18308 0.62022 0.0
C740 C 0.57383 0.17734 0.59439 0.0
C741 C 0.52335 0.22063 0.67132 0.0
C742 C 0.52144 0.18008 0.69795 0.0
C743 C 0.5022 0.26999 0.67385 0.0
C744 C 0.50237 0.3133 0.64563 0.0
C745 C 0.48295 0.30525 0.61524 0.0
C746 C 0.48473 0.34539 0.5884 0.0
C747 C 0.50557 0.39397 0.59165 0.0
C748 C 0.52444 0.40257 0.62181 0.0
C749 C 0.52279 0.36252 0.64874 0.0
H750 H 0.50705 0.42494 0.57081 0.0
H751 H 0.51875 0.03409 0.83033 0.0
H752 H 0.09252 0.72846 0.3398 0.0
H753 H 0.06896 0.7166 0.28448 0.0
H754 H 0.93471 0.63726 0.32178 0.0
H755 H 0.95948 0.64604 0.37727 0.0
H756 H 0.96995 0.59146 0.27496 0.0
H757 H 0.93622 0.76947 0.28866 0.0
H758 H 0.9556 0.85742 0.30176 0.0
H759 H 0.06432 0.88003 0.22497 0.0
H760 H 0.04602 0.79186 0.21169 0.0
H761 H 0.81487 0.64138 0.13418 0.0
H762 H 0.85225 0.64022 0.18806 0.0
H763 H 0.99058 0.69657 0.14293 0.0
H764 H 0.95354 0.69801 0.0889 0.0
H765 H 0.95903 0.75185 0.19206 0.0
H766 H 0.97647 0.57351 0.17406 0.0
H767 H 0.94447 0.49 0.16067 0.0
H768 H 0.85647 0.46837 0.24815 0.0
H769 H 0.88539 0.5536 0.26104 0.0
C770 C 0.05851 0.7075 0.33632 0.0
C771 C 0.02758 0.68875 0.36295 0.0
C772 C 0.04482 0.70126 0.30463 0.0
C773 C 0.99957 0.677 0.29892 0.0
C774 C 0.96965 0.6564 0.32556 0.0
C775 C 0.98358 0.66203 0.35725 0.0
C776 C 0.98214 0.67503 0.26519 0.0
C777 C 0.9672 0.62656 0.25688 0.0
C778 C 0.9791 0.72079 0.24152 0.0
C779 C 0.99017 0.77383 0.24944 0.0
C780 C 0.96454 0.79303 0.27474 0.0
C781 C 0.97528 0.84294 0.28217 0.0
C782 C 1.01128 0.87423 0.26428 0.0
C783 C 0.03652 0.85571 0.23885 0.0
C784 C 0.02596 0.80578 0.23135 0.0
C785 C 0.85335 0.6532 0.1357 0.0
C786 C 0.8813 0.66969 0.1073 0.0
C787 C 0.87462 0.65244 0.16649 0.0
C788 C 0.9242 0.66804 0.16938 0.0
C789 C 0.95226 0.68436 0.14112 0.0
C790 C 0.93109 0.68489 0.11031 0.0
C791 C 0.94644 0.66843 0.20196 0.0
C792 C 0.96226 0.71666 0.21003 0.0
C793 C 0.94907 0.62261 0.22559 0.0
C794 C 0.93276 0.57046 0.21834 0.0
C795 C 0.94979 0.5514 0.19027 0.0
C796 C 0.93208 0.50374 0.18272 0.0
C797 C 0.89865 0.47371 0.20363 0.0
C798 C 0.88243 0.49163 0.23198 0.0
C799 C 0.8992 0.53985 0.2393 0.0
H800 H 0.88536 0.43657 0.19786 0.0
H801 H 0.01952 0.91287 0.27006 0.0
H802 H 0.84618 0.19044 0.37069 0.0
H803 H 0.89621 0.18188 0.3227 0.0
H804 H 1.01223 0.27508 0.35732 0.0
H805 H 0.96193 0.28458 0.4053 0.0
H806 H 0.98846 0.30995 0.29511 0.0
H807 H 0.0231 0.1429 0.35837 0.0
H808 H 1.00156 0.05792 0.39105 0.0
H809 H 0.93016 1.00917 0.30824 0.0
H810 H 0.94844 0.09498 0.27534 0.0
H811 H 0.10532 0.29779 0.14672 0.0
H812 H 0.09997 0.28184 0.20603 0.0
H813 H 0.98126 0.17079 0.20057 0.0
H814 H 0.9904 0.18169 0.14164 0.0
H815 H 0.02564 0.14329 0.25407 0.0
H816 H 0.96587 0.3118 0.19824 0.0
H817 H 0.97803 0.39674 0.16272 0.0
H818 H 0.08605 0.44146 0.22967 0.0
H819 H 0.07562 0.35597 0.26511 0.0
C820 C 0.8825 0.20881 0.36827 0.0
C821 C 0.89996 0.2385 0.39169 0.0
C822 C 0.91125 0.20349 0.34093 0.0
C823 C 0.95824 0.22726 0.33664 0.0
C824 C 0.97616 0.2562 0.36027 0.0
C825 C 0.94734 0.26167 0.38761 0.0
C826 C 0.98657 0.22555 0.30613 0.0
C827 C 0.9976 0.27344 0.28647 0.0
C828 C 0.99747 0.17786 0.29458 0.0
C829 C 0.98701 0.12578 0.31435 0.0
C830 C 1.00236 0.11438 0.34713 0.0
C831 C 0.99075 0.06598 0.36573 0.0
C832 C 0.96497 0.02802 0.35173 0.0
C833 C 0.95026 0.03856 0.31908 0.0
C834 C 0.96101 0.08722 0.30046 0.0
C835 C 0.0794 0.26837 0.15804 0.0
C836 C 0.0471 0.2423 0.13907 0.0
C837 C 0.07592 0.25984 0.19211 0.0
C838 C 0.0387 0.22688 0.20778 0.0
C839 C 1.00972 0.19721 0.18915 0.0
C840 C 0.01438 0.20426 0.15525 0.0
C841 C 0.02543 0.22761 0.24256 0.0
C842 C 0.01739 0.17968 0.26308 0.0
C843 C 0.01574 0.27518 0.25465 0.0
C844 C 0.02053 0.32727 0.23403 0.0
C845 C 0.99236 0.33968 0.2053 0.0
C846 C 0.99909 0.38782 0.18513 0.0
C847 C 0.03301 0.42437 0.19385 0.0
C848 C 0.06001 0.41298 0.22287 0.0
C849 C 0.05383 0.36463 0.24295 0.0
H850 H 0.03824 0.46162 0.17819 0.0
H851 H 0.9563 0.9905 0.36622 0.0
H852 H 0.0612 0.3534 0.90044 0.0
H853 H 0.02199 0.34716 0.84788 0.0
H854 H 0.1643 0.37281 0.79995 0.0
H855 H 0.20346 0.38034 0.85208 0.0
H856 H 0.09423 0.42191 0.76256 0.0
H857 H 0.11875 0.24917 0.82319 0.0
H858 H 0.1103 0.1802 0.87124 0.0
H859 H 0.95144 0.18519 0.86108 0.0
H860 H 0.95893 0.25479 0.81324 0.0
H861 H 0.04152 0.23366 0.64222 0.0
H862 H 0.06086 0.2474 0.69801 0.0
H863 H 0.96525 0.38328 0.68647 0.0
H864 H 0.94605 0.36993 0.63049 0.0
H865 H 1.00681 0.25476 0.75417 0.0
H866 H 0.02983 0.47889 0.7172 0.0
H867 H 0.04946 0.54216 0.66782 0.0
H868 H 0.13178 0.424 0.62845 0.0
H869 H 0.11337 0.3601 0.67766 0.0
C870 C 0.08399 0.35848 0.87862 0.0
C871 C 0.13551 0.36684 0.88044 0.0
C872 C 0.06156 0.35474 0.84864 0.0
C873 C 0.09038 0.3587 0.8201 0.0
C874 C 0.14136 0.36959 0.82167 0.0
C875 C 0.16372 0.37367 0.85154 0.0
C876 C 0.06844 0.34816 0.78894 0.0
C877 C 0.07462 0.38563 0.76084 0.0
C878 C 0.04394 0.30021 0.78652 0.0
C879 C 0.03937 0.25758 0.81485 0.0
C880 C 0.082 0.23576 0.83132 0.0
C881 C 0.07739 0.19655 0.85851 0.0
C882 C 0.03036 0.17844 0.86927 0.0
C883 C 0.98785 0.19933 0.85276 0.0
C884 C 0.99225 0.23864 0.82559 0.0
C885 C 0.02417 0.26606 0.65177 0.0
C886 C 0.9926 0.30098 0.63204 0.0
C887 C 0.03493 0.27361 0.68366 0.0
C888 C 0.01471 0.31651 0.69621 0.0
C889 C 0.98133 0.35004 0.67711 0.0
C890 C 0.97024 0.34226 0.64526 0.0
C891 C 0.0322 0.32873 0.72804 0.0
C892 C 0.02542 0.2915 0.75615 0.0
C893 C 0.05764 0.37608 0.73033 0.0
C894 C 0.06971 0.41461 0.70096 0.0
C895 C 0.05227 0.46647 0.69806 0.0
C896 C 0.06316 0.50242 0.67011 0.0
C897 C 0.09162 0.4871 0.64501 0.0
C898 C 0.10955 0.43577 0.64785 0.0
C899 C 0.09887 0.39965 0.67574 0.0
H900 H 0.09984 0.51502 0.62339 0.0
H901 H 0.02687 0.14814 0.89036 0.0
H902 H 0.1412 0.60858 0.61409 0.0
H903 H 0.10151 0.61793 0.6662 0.0
H904 H 0.07863 0.78278 0.6325 0.0
H905 H 0.11822 0.77422 0.58057 0.0
H906 H 0.12464 0.75172 0.69756 0.0
H907 H 0.99503 0.70163 0.62747 0.0
H908 H 0.95287 0.64226 0.59539 0.0
H909 H 0.92983 0.53056 0.68215 0.0
H910 H 0.97412 0.58809 0.71473 0.0
H911 H 0.99152 0.8226 0.82545 0.0
H912 H 1.00703 0.81388 0.76822 0.0
H913 H 0.98435 0.64642 0.79129 0.0
H914 H 0.96615 0.65574 0.84799 0.0
H915 H 0.95911 0.67657 0.7307 0.0
H916 H 0.09905 0.69998 0.7965 0.0
H917 H 0.14979 0.74255 0.83452 0.0
H918 H 0.1623 0.88105 0.76275 0.0
H919 H 0.1107 0.83965 0.7245 0.0
C920 C 0.1274 0.64672 0.6177 0.0
C921 C 0.1326 0.69062 0.59319 0.0
C922 C 0.10468 0.65185 0.64737 0.0
C923 C 0.08674 0.70079 0.65281 0.0
C924 C 0.0922 0.74468 0.62855 0.0
C925 C 0.11463 0.7396 0.59889 0.0
C926 C 0.06268 0.70687 0.68393 0.0
C927 C 0.08817 0.73584 0.70465 0.0
C928 C 0.01612 0.68371 0.69359 0.0
C929 C 0.98894 0.64925 0.67367 0.0
C930 C 0.98222 0.66396 0.63979 0.0
C931 C 0.95776 0.63054 0.62143 0.0
C932 C 0.93882 0.58256 0.63669 0.0
C933 C 0.94439 0.56784 0.67035 0.0
C934 C 0.96936 0.60085 0.68877 0.0
C935 C 0.98802 0.78438 0.81784 0.0
C936 C 0.97787 0.7398 0.84078 0.0
C937 C 0.99715 0.77928 0.78532 0.0
C938 C 0.99824 0.72927 0.77573 0.0
C939 C 0.98389 0.68533 0.79813 0.0
C940 C 0.97356 0.69063 0.83048 0.0
C941 C 0.02087 0.72193 0.74412 0.0
C942 C 0.99543 0.69258 0.72345 0.0
C943 C 0.06873 0.74211 0.7351 0.0
C944 C 0.10055 0.76693 0.75776 0.0
C945 C 0.11236 0.73964 0.78889 0.0
C946 C 0.14127 0.76355 0.81049 0.0
C947 C 0.15917 0.81452 0.80108 0.0
C948 C 0.14831 0.84161 0.77002 0.0
C949 C 0.11922 0.81795 0.74837 0.0
H950 H 0.18155 0.83298 0.81783 0.0
H951 H 0.91967 0.55688 0.62245 0.0
loop_
_geom_bond_atom_site_label_1
_geom_bond_atom_site_label_2
_geom_bond_distance
_geom_bond_site_symmetry_2
_ccdc_geom_bond_type
C0 C1 1.387 . S
C0 C5 1.380 . S
C0 C16 1.494 . S
C1 C0 1.387 . S
C1 C2 1.386 . S
C1 H32 0.930 . S
C2 C1 1.386 . S
C2 C3 1.397 . S
C3 C2 1.397 . S
C3 C4 1.393 . S
C3 H33 0.930 1_455 S
C4 C3 1.393 . S
C4 C5 1.395 . S
C5 C0 1.380 . S
C5 C4 1.395 . S
C5 H34 0.930 . S
O6 Tb7 2.295 . S
O6 C19 1.242 . S
Tb7 O6 2.295 . S
Tb7 O8 2.312 . S
Tb7 O11 2.438 . S
Tb7 O13 2.472 1_556 S
Tb7 O15 2.308 . S
Tb7 C16 2.821 1_556 S
O8 Tb7 2.312 . S
O8 C28 1.264 . S
O9 Eu10 2.308 . S
O9 C19 1.243 1_554 S
Eu10 O9 2.308 . S
Eu10 C12 2.821 1_554 S
Eu10 O14 2.295 . S
Eu10 O21 2.312 . S
Eu10 O30 2.438 . S
Eu10 O31 2.472 1_554 S
O11 Tb7 2.438 . S
O11 C16 1.263 1_556 S
C12 Eu10 2.821 1_556 S
C12 C22 1.494 . S
C12 O30 1.263 1_556 S
C12 O31 1.264 . S
O13 Tb7 2.472 1_554 S
O13 C16 1.264 . S
O14 Eu10 2.295 . S
O14 C20 1.242 . S
O15 Tb7 2.308 . S
O15 C20 1.243 1_556 S
C16 C0 1.494 . S
C16 Tb7 2.821 1_554 S
C16 O11 1.263 1_554 S
C16 O13 1.264 . S
C17 O18 1.260 . S
C17 O21 1.264 . S
O18 C17 1.260 . S
C19 O6 1.242 . S
C19 O9 1.243 1_556 S
C20 O14 1.242 . S
C20 O15 1.243 1_554 S
O21 Eu10 2.312 . S
O21 C17 1.264 . S
C22 C12 1.494 . S
C22 C24 1.380 . S
C22 C25 1.387 . S
C23 C24 1.395 . S
C23 C27 1.393 . S
C24 C22 1.380 . S
C24 C23 1.395 . S
C24 H35 0.930 . S
C25 C22 1.387 . S
C25 C26 1.386 . S
C25 H36 0.930 . S
C26 C25 1.386 . S
C26 C27 1.397 . S
C27 C23 1.393 . S
C27 C26 1.397 . S
C27 H37 0.930 . S
C28 O8 1.264 . S
C28 O29 1.260 . S
O29 C28 1.260 . S
O30 Eu10 2.438 . S
O30 C12 1.263 1_554 S
O31 Eu10 2.472 1_556 S
O31 C12 1.264 . S
H32 C1 0.930 . S
H33 C3 0.930 1_655 S
H34 C5 0.930 . S
H35 C24 0.930 . S
H36 C25 0.930 . S
H37 C27 0.930 . S
C38 C39 1.387 . S
C38 C43 1.380 . S
C38 C54 1.494 . S
C39 C38 1.387 . S
C39 C40 1.386 . S
C39 H70 0.930 . S
C40 C39 1.386 . S
C40 C41 1.397 . S
C41 C40 1.397 . S
C41 C42 1.393 . S
C41 H71 0.930 . S
C42 C41 1.393 . S
C42 C43 1.395 . S
C43 C38 1.380 . S
C43 C42 1.395 . S
C43 H72 0.930 . S
O44 Tb45 2.295 . S
O44 C57 1.242 . S
Tb45 O44 2.295 . S
Tb45 O46 2.312 . S
Tb45 O49 2.438 . S
Tb45 O51 2.472 1_556 S
Tb45 O53 2.308 . S
Tb45 C54 2.821 1_556 S
O46 Tb45 2.312 . S
O46 C66 1.264 . S
O47 Eu48 2.308 . S
O47 C57 1.243 1_554 S
Eu48 O47 2.308 . S
Eu48 C50 2.821 1_554 S
Eu48 O52 2.295 . S
Eu48 O59 2.312 . S
Eu48 O68 2.438 . S
Eu48 O69 2.472 1_554 S
O49 Tb45 2.438 . S
O49 C54 1.263 1_556 S
C50 Eu48 2.821 1_556 S
C50 C60 1.494 . S
C50 O68 1.263 1_556 S
C50 O69 1.264 . S
O51 Tb45 2.472 1_554 S
O51 C54 1.264 . S
O52 Eu48 2.295 . S
O52 C58 1.242 . S
O53 Tb45 2.308 . S
O53 C58 1.243 1_556 S
C54 C38 1.494 . S
C54 Tb45 2.821 1_554 S
C54 O49 1.263 1_554 S
C54 O51 1.264 . S
C55 O56 1.260 . S
C55 O59 1.264 . S
O56 C55 1.260 . S
C57 O44 1.242 . S
C57 O47 1.243 1_556 S
C58 O52 1.242 . S
C58 O53 1.243 1_554 S
O59 Eu48 2.312 . S
O59 C55 1.264 . S
C60 C50 1.494 . S
C60 C62 1.380 . S
C60 C63 1.387 . S
C61 C62 1.395 . S
C61 C65 1.393 . S
C62 C60 1.380 . S
C62 C61 1.395 . S
C62 H73 0.930 . S
C63 C60 1.387 . S
C63 C64 1.386 . S
C63 H74 0.930 . S
C64 C63 1.386 . S
C64 C65 1.397 . S
C65 C61 1.393 . S
C65 C64 1.397 . S
C65 H75 0.930 1_655 S
C66 O46 1.264 . S
C66 O67 1.260 . S
O67 C66 1.260 . S
O68 Eu48 2.438 . S
O68 C50 1.263 1_554 S
O69 Eu48 2.472 1_556 S
O69 C50 1.264 . S
H70 C39 0.930 . S
H71 C41 0.930 . S
H72 C43 0.930 . S
H73 C62 0.930 . S
H74 C63 0.930 . S
H75 C65 0.930 1_455 S
C76 C77 1.387 . S
C76 C81 1.380 . S
C76 C92 1.494 . S
C77 C76 1.387 . S
C77 C78 1.386 . S
C77 H108 0.930 . S
C78 C77 1.386 . S
C78 C79 1.397 . S
C79 C78 1.397 . S
C79 C80 1.393 . S
C79 H109 0.930 1_455 S
C80 C79 1.393 . S
C80 C81 1.395 . S
C81 C76 1.380 . S
C81 C80 1.395 . S
C81 H110 0.930 . S
O82 Tb83 2.295 . S
O82 C95 1.242 . S
Tb83 O82 2.295 . S
Tb83 O84 2.312 . S
Tb83 O87 2.438 . S
Tb83 O89 2.472 . S
Tb83 O91 2.308 . S
Tb83 C92 2.821 . S
O84 Tb83 2.312 . S
O84 C104 1.264 . S
O85 Eu86 2.308 . S
O85 C95 1.243 . S
Eu86 O85 2.308 . S
Eu86 C88 2.821 . S
Eu86 O90 2.295 . S
Eu86 O97 2.312 . S
Eu86 O106 2.438 . S
Eu86 O107 2.472 . S
O87 Tb83 2.438 . S
O87 C92 1.263 . S
C88 Eu86 2.821 . S
C88 C98 1.494 . S
C88 O106 1.263 . S
C88 O107 1.264 . S
O89 Tb83 2.472 . S
O89 C92 1.264 . S
O90 Eu86 2.295 . S
O90 C96 1.242 . S
O91 Tb83 2.308 . S
O91 C96 1.243 . S
C92 C76 1.494 . S
C92 Tb83 2.821 . S
C92 O87 1.263 . S
C92 O89 1.264 . S
C93 O94 1.260 . S
C93 O97 1.264 . S
O94 C93 1.260 . S
C95 O82 1.242 . S
C95 O85 1.243 . S
C96 O90 1.242 . S
C96 O91 1.243 . S
O97 Eu86 2.312 . S
O97 C93 1.264 . S
C98 C88 1.494 . S
C98 C100 1.380 . S
C98 C101 1.387 . S
C99 C100 1.395 . S
C99 C103 1.393 . S
C100 C98 1.380 . S
C100 C99 1.395 . S
C100 H111 0.930 . S
C101 C98 1.387 . S
C101 C102 1.386 . S
C101 H112 0.930 . S
C102 C101 1.386 . S
C102 C103 1.397 . S
C103 C99 1.393 . S
C103 C102 1.397 . S
C103 H113 0.930 . S
C104 O84 1.264 . S
C104 O105 1.260 . S
O105 C104 1.260 . S
O106 Eu86 2.438 . S
O106 C88 1.263 . S
O107 Eu86 2.472 . S
O107 C88 1.264 . S
H108 C77 0.930 . S
H109 C79 0.930 1_655 S
H110 C81 0.930 . S
H111 C100 0.930 . S
H112 C101 0.930 . S
H113 C103 0.930 . S
C114 C115 1.387 . S
C114 C119 1.380 . S
C114 C130 1.494 . S
C115 C114 1.387 . S
C115 C116 1.386 . S
C115 H146 0.930 . S
C116 C115 1.386 . S
C116 C117 1.397 . S
C117 C116 1.397 . S
C117 C118 1.393 . S
C117 H147 0.930 . S
C118 C117 1.393 . S
C118 C119 1.395 . S
C119 C114 1.380 . S
C119 C118 1.395 . S
C119 H148 0.930 . S
O120 Tb121 2.295 . S
O120 C133 1.242 . S
Tb121 O120 2.295 . S
Tb121 O122 2.312 . S
Tb121 O125 2.438 . S
Tb121 O127 2.472 . S
Tb121 O129 2.308 . S
Tb121 C130 2.821 . S
O122 Tb121 2.312 . S
O122 C142 1.264 . S
O123 Eu124 2.308 . S
O123 C133 1.243 . S
Eu124 O123 2.308 . S
Eu124 C126 2.821 . S
Eu124 O128 2.295 . S
Eu124 O135 2.312 . S
Eu124 O144 2.438 . S
Eu124 O145 2.472 . S
O125 Tb121 2.438 . S
O125 C130 1.263 . S
C126 Eu124 2.821 . S
C126 C136 1.494 . S
C126 O144 1.263 . S
C126 O145 1.264 . S
O127 Tb121 2.472 . S
O127 C130 1.264 . S
O128 Eu124 2.295 . S
O128 C134 1.242 . S
O129 Tb121 2.308 . S
O129 C134 1.243 . S
C130 C114 1.494 . S
C130 Tb121 2.821 . S
C130 O125 1.263 . S
C130 O127 1.264 . S
C131 O132 1.260 . S
C131 O135 1.264 . S
O132 C131 1.260 . S
C133 O120 1.242 . S
C133 O123 1.243 . S
C134 O128 1.242 . S
C134 O129 1.243 . S
O135 Eu124 2.312 . S
O135 C131 1.264 . S
C136 C126 1.494 . S
C136 C138 1.380 . S
C136 C139 1.387 . S
C137 C138 1.395 . S
C137 C141 1.393 . S
C138 C136 1.380 . S
C138 C137 1.395 . S
C138 H149 0.930 . S
C139 C136 1.387 . S
C139 C140 1.386 . S
C139 H150 0.930 . S
C140 C139 1.386 . S
C140 C141 1.397 . S
C141 C137 1.393 . S
C141 C140 1.397 . S
C141 H151 0.930 1_655 S
C142 O122 1.264 . S
C142 O143 1.260 . S
O143 C142 1.260 . S
O144 Eu124 2.438 . S
O144 C126 1.263 . S
O145 Eu124 2.472 . S
O145 C126 1.264 . S
H146 C115 0.930 . S
H147 C117 0.930 . S
H148 C119 0.930 . S
H149 C138 0.930 . S
H150 C139 0.930 . S
H151 C141 0.930 1_455 S
H152 C170 0.951 . S
H153 C172 0.951 . S
H154 C174 0.931 1_554 S
H155 C175 0.950 1_554 S
H156 C177 0.950 . S
H157 C180 0.950 1_554 S
H158 C181 0.950 . S
H159 C183 0.950 . S
H160 C184 0.950 . S
H161 C185 0.951 . S
H162 C187 0.951 . S
H163 C189 0.950 1_556 S
H164 C190 0.950 1_556 S
H165 C192 0.950 . S
H166 C195 0.950 1_556 S
H167 C196 0.950 . S
H168 C198 0.950 . S
H169 C199 0.950 . S
C170 H152 0.951 . S
C170 C171 1.366 . S
C170 C172 1.388 . S
C171 C170 1.366 . S
C171 C175 1.385 . S
C172 H153 0.951 . S
C172 C170 1.388 . S
C172 C173 1.366 . S
C173 C172 1.366 . S
C173 C174 1.427 . S
C173 C176 1.499 . S
C174 H154 0.931 1_556 S
C174 C173 1.427 . S
C174 C175 1.381 . S
C175 H155 0.950 1_556 S
C175 C171 1.385 . S
C175 C174 1.381 . S
C176 C173 1.499 . S
C176 C177 1.373 1_556 S
C176 C178 1.389 . S
C177 H156 0.950 . S
C177 C176 1.373 1_554 S
C177 C193 1.377 . S
C178 C176 1.389 . S
C178 C179 1.524 . S
C178 C192 1.377 . S
C179 C178 1.524 . S
C179 C180 1.397 . S
C179 C184 1.363 . S
C180 H157 0.950 1_556 S
C180 C179 1.397 . S
C180 C181 1.334 . S
C181 H158 0.950 . S
C181 C180 1.334 . S
C181 C182 1.287 . S
C182 C181 1.287 . S
C182 C183 1.524 . S
C182 H201 0.913 . S
C183 H159 0.950 . S
C183 C182 1.524 . S
C183 C184 1.415 . S
C184 H160 0.950 . S
C184 C179 1.363 . S
C184 C183 1.415 . S
C185 H161 0.951 . S
C185 C186 1.366 . S
C185 C187 1.388 . S
C186 C185 1.366 . S
C186 C190 1.385 . S
C187 H162 0.951 . S
C187 C185 1.388 . S
C187 C188 1.366 . S
C188 C187 1.366 . S
C188 C189 1.414 . S
C188 C191 1.499 . S
C189 H163 0.950 1_554 S
C189 C188 1.414 . S
C189 C190 1.374 . S
C190 H164 0.950 1_554 S
C190 C186 1.385 . S
C190 C189 1.374 . S
C191 C188 1.499 . S
C191 C192 1.373 1_554 S
C191 C193 1.389 . S
C192 H165 0.950 . S
C192 C178 1.377 . S
C192 C191 1.373 1_556 S
C193 C177 1.377 . S
C193 C191 1.389 . S
C193 C194 1.524 . S
C194 C193 1.524 . S
C194 C195 1.397 . S
C194 C199 1.363 . S
C195 H166 0.950 1_554 S
C195 C194 1.397 . S
C195 C196 1.334 . S
C196 H167 0.950 . S
C196 C195 1.334 . S
C196 C197 1.287 . S
C197 C196 1.287 . S
C197 C198 1.524 . S
C197 H200 0.999 . S
C198 H168 0.950 . S
C198 C197 1.524 . S
C198 C199 1.415 . S
C199 H169 0.950 . S
C199 C194 1.363 . S
C199 C198 1.415 . S
H200 C197 0.999 . S
H201 C182 0.913 . S
H202 C220 0.951 . S
H203 C222 0.951 . S
H204 C224 0.950 1_554 S
H205 C225 0.950 . S
H206 C227 0.948 . S
H207 C230 0.950 . S
H208 C231 0.950 . S
H209 C233 0.950 . S
H210 C234 0.950 . S
H211 C235 0.951 . S
H212 C237 0.951 . S
H213 C239 0.950 1_556 S
H214 C240 0.950 . S
H215 C242 0.950 . S
H216 C245 0.950 . S
H217 C246 0.950 . S
H218 C248 0.950 . S
H219 C249 0.950 . S
C220 H202 0.951 . S
C220 C221 1.366 . S
C220 C222 1.388 . S
C221 C220 1.366 . S
C221 C225 1.385 . S
C222 H203 0.951 . S
C222 C220 1.388 . S
C222 C223 1.366 . S
C223 C222 1.366 . S
C223 C224 1.414 . S
C223 C226 1.499 . S
C224 H204 0.950 1_556 S
C224 C223 1.414 . S
C224 C225 1.374 . S
C225 H205 0.950 . S
C225 C221 1.385 . S
C225 C224 1.374 . S
C226 C223 1.499 . S
C226 C227 1.381 . S
C226 C228 1.389 . S
C227 H206 0.948 . S
C227 C226 1.381 . S
C227 C243 1.371 1_556 S
C228 C226 1.389 . S
C228 C229 1.524 . S
C228 C242 1.377 1_556 S
C229 C228 1.524 . S
C229 C230 1.397 1_556 S
C229 C234 1.363 . S
C230 H207 0.950 . S
C230 C229 1.397 1_554 S
C230 C231 1.334 . S
C231 H208 0.950 . S
C231 C230 1.334 . S
C231 C232 1.287 1_554 S
C232 C231 1.287 1_556 S
C232 C233 1.524 . S
C232 H251 0.913 . S
C233 H209 0.950 . S
C233 C232 1.524 . S
C233 C234 1.415 . S
C234 H210 0.950 . S
C234 C229 1.363 . S
C234 C233 1.415 . S
C235 H211 0.951 . S
C235 C236 1.366 . S
C235 C237 1.388 . S
C236 C235 1.366 . S
C236 C240 1.385 . S
C237 H212 0.951 . S
C237 C235 1.388 . S
C237 C238 1.366 . S
C238 C237 1.366 . S
C238 C239 1.414 . S
C238 C241 1.499 . S
C239 H213 0.950 1_554 S
C239 C238 1.414 . S
C239 C240 1.374 . S
C240 H214 0.950 . S
C240 C236 1.385 . S
C240 C239 1.374 . S
C241 C238 1.499 . S
C241 C242 1.373 . S
C241 C243 1.389 . S
C242 H215 0.950 . S
C242 C228 1.377 1_554 S
C242 C241 1.373 . S
C243 C227 1.371 1_554 S
C243 C241 1.389 . S
C243 C244 1.524 . S
C244 C243 1.524 . S
C244 C245 1.397 1_554 S
C244 C249 1.363 . S
C245 H216 0.950 . S
C245 C244 1.397 1_556 S
C245 C246 1.334 . S
C246 H217 0.950 . S
C246 C245 1.334 . S
C246 C247 1.287 1_556 S
C247 C246 1.287 1_554 S
C247 C248 1.524 . S
C247 H250 0.999 . S
C248 H218 0.950 . S
C248 C247 1.524 . S
C248 C249 1.415 . S
C249 H219 0.950 . S
C249 C244 1.363 . S
C249 C248 1.415 . S
H250 C247 0.999 . S
H251 C232 0.913 . S
H252 C270 0.951 . S
H253 C272 0.951 . S
H254 C274 0.950 . S
H255 C275 0.950 . S
H256 C277 0.950 . S
H257 C280 0.950 . S
H258 C281 0.950 . S
H259 C283 0.950 . S
H260 C284 0.950 . S
H261 C285 0.951 . S
H262 C287 0.951 . S
H263 C289 0.950 . S
H264 C290 0.950 . S
H265 C292 0.950 . S
H266 C295 0.950 . S
H267 C296 0.950 . S
H268 C298 0.950 . S
H269 C299 0.950 . S
C270 H252 0.951 . S
C270 C271 1.366 . S
C270 C272 1.388 . S
C271 C270 1.366 . S
C271 C275 1.385 . S
C272 H253 0.951 . S
C272 C270 1.388 . S
C272 C273 1.366 . S
C273 C272 1.366 . S
C273 C274 1.414 . S
C273 C276 1.499 . S
C274 H254 0.950 . S
C274 C273 1.414 . S
C274 C275 1.374 . S
C275 H255 0.950 . S
C275 C271 1.385 . S
C275 C274 1.374 . S
C276 C273 1.499 . S
C276 C277 1.373 . S
C276 C278 1.389 . S
C277 H256 0.950 . S
C277 C276 1.373 . S
C277 C293 1.377 . S
C278 C276 1.389 . S
C278 C279 1.524 . S
C278 C292 1.377 . S
C279 C278 1.524 . S
C279 C280 1.397 . S
C279 C284 1.363 . S
C280 H257 0.950 . S
C280 C279 1.397 . S
C280 C281 1.334 . S
C281 H258 0.950 . S
C281 C280 1.334 . S
C281 C282 1.287 . S
C282 C281 1.287 . S
C282 C283 1.524 . S
C282 H301 0.913 . S
C283 H259 0.950 . S
C283 C282 1.524 . S
C283 C284 1.415 . S
C284 H260 0.950 . S
C284 C279 1.363 . S
C284 C283 1.415 . S
C285 H261 0.951 . S
C285 C286 1.366 . S
C285 C287 1.388 . S
C286 C285 1.366 . S
C286 C290 1.385 . S
C287 H262 0.951 . S
C287 C285 1.388 . S
C287 C288 1.366 . S
C288 C287 1.366 . S
C288 C289 1.414 . S
C288 C291 1.499 . S
C289 H263 0.950 . S
C289 C288 1.414 . S
C289 C290 1.374 . S
C290 H264 0.950 . S
C290 C286 1.385 . S
C290 C289 1.374 . S
C291 C288 1.499 . S
C291 C292 1.373 . S
C291 C293 1.389 . S
C292 H265 0.950 . S
C292 C278 1.377 . S
C292 C291 1.373 . S
C293 C277 1.377 . S
C293 C291 1.389 . S
C293 C294 1.524 . S
C294 C293 1.524 . S
C294 C295 1.397 . S
C294 C299 1.363 . S
C295 H266 0.950 . S
C295 C294 1.397 . S
C295 C296 1.334 . S
C296 H267 0.950 . S
C296 C295 1.334 . S
C296 C297 1.287 . S
C297 C296 1.287 . S
C297 C298 1.524 . S
C297 H300 0.999 . S
C298 H268 0.950 . S
C298 C297 1.524 . S
C298 C299 1.415 . S
C299 H269 0.950 . S
C299 C294 1.363 . S
C299 C298 1.415 . S
H300 C297 0.999 . S
H301 C282 0.913 . S
H302 C320 0.951 . S
H303 C322 0.951 . S
H304 C324 0.950 . S
H305 C325 0.950 . S
H306 C327 0.950 . S
H307 C330 0.950 . S
H308 C331 0.950 . S
H309 C333 0.950 . S
H310 C334 0.950 . S
H311 C335 0.951 . S
H312 C337 0.951 . S
H313 C339 0.950 . S
H314 C340 0.950 . S
H315 C342 0.950 . S
H316 C345 0.950 . S
H317 C346 0.950 . S
H318 C348 0.950 . S
H319 C349 0.950 . S
C320 H302 0.951 . S
C320 C321 1.366 . S
C320 C322 1.388 . S
C321 C320 1.366 . S
C321 C325 1.385 . S
C322 H303 0.951 . S
C322 C320 1.388 . S
C322 C323 1.366 . S
C323 C322 1.366 . S
C323 C324 1.414 . S
C323 C326 1.499 . S
C324 H304 0.950 . S
C324 C323 1.414 . S
C324 C325 1.374 . S
C325 H305 0.950 . S
C325 C321 1.385 . S
C325 C324 1.374 . S
C326 C323 1.499 . S
C326 C327 1.373 . S
C326 C328 1.389 . S
C327 H306 0.950 . S
C327 C326 1.373 . S
C327 C343 1.377 . S
C328 C326 1.389 . S
C328 C329 1.524 . S
C328 C342 1.377 . S
C329 C328 1.524 . S
C329 C330 1.397 . S
C329 C334 1.363 . S
C330 H307 0.950 . S
C330 C329 1.397 . S
C330 C331 1.334 . S
C331 H308 0.950 . S
C331 C330 1.334 . S
C331 C332 1.287 . S
C332 C331 1.287 . S
C332 C333 1.524 . S
C332 H351 0.913 . S
C333 H309 0.950 . S
C333 C332 1.524 . S
C333 C334 1.415 . S
C334 H310 0.950 . S
C334 C329 1.363 . S
C334 C333 1.415 . S
C335 H311 0.951 . S
C335 C336 1.366 . S
C335 C337 1.388 . S
C336 C335 1.366 . S
C336 C340 1.385 . S
C337 H312 0.951 . S
C337 C335 1.388 . S
C337 C338 1.366 . S
C338 C337 1.366 . S
C338 C339 1.414 . S
C338 C341 1.499 . S
C339 H313 0.950 . S
C339 C338 1.414 . S
C339 C340 1.374 . S
C340 H314 0.950 . S
C340 C336 1.385 . S
C340 C339 1.374 . S
C341 C338 1.499 . S
C341 C342 1.373 . S
C341 C343 1.389 . S
C342 H315 0.950 . S
C342 C328 1.377 . S
C342 C341 1.373 . S
C343 C327 1.377 . S
C343 C341 1.389 . S
C343 C344 1.524 . S
C344 C343 1.524 . S
C344 C345 1.397 . S
C344 C349 1.363 . S
C345 H316 0.950 . S
C345 C344 1.397 . S
C345 C346 1.334 . S
C346 H317 0.950 . S
C346 C345 1.334 . S
C346 C347 1.287 . S
C347 C346 1.287 . S
C347 C348 1.524 . S
C347 H350 0.999 . S
C348 H318 0.950 . S
C348 C347 1.524 . S
C348 C349 1.415 . S
C349 H319 0.950 . S
C349 C344 1.363 . S
C349 C348 1.415 . S
H350 C347 0.999 . S
H351 C332 0.913 . S
H352 C370 0.951 . S
H353 C372 0.951 . S
H354 C374 0.950 . S
H355 C375 0.950 . S
H356 C377 0.950 . S
H357 C380 0.950 . S
H358 C381 0.950 . S
H359 C383 0.950 . S
H360 C384 0.950 . S
H361 C385 0.951 . S
H362 C387 0.951 . S
H363 C389 0.950 . S
H364 C390 0.950 . S
H365 C392 0.950 . S
H366 C395 0.950 . S
H367 C396 0.950 . S
H368 C398 0.950 . S
H369 C399 0.950 . S
C370 H352 0.951 . S
C370 C371 1.366 . S
C370 C372 1.388 . S
C371 C370 1.366 . S
C371 C375 1.385 1_556 S
C372 H353 0.951 . S
C372 C370 1.388 . S
C372 C373 1.366 1_556 S
C373 C372 1.366 1_554 S
C373 C374 1.414 . S
C373 C376 1.499 . S
C374 H354 0.950 . S
C374 C373 1.414 . S
C374 C375 1.374 . S
C375 H355 0.950 . S
C375 C371 1.385 1_554 S
C375 C374 1.374 . S
C376 C373 1.499 . S
C376 C377 1.373 1_554 S
C376 C378 1.389 . S
C377 H356 0.950 . S
C377 C376 1.373 1_556 S
C377 C393 1.377 . S
C378 C376 1.389 . S
C378 C379 1.524 . S
C378 C392 1.377 . S
C379 C378 1.524 . S
C379 C380 1.397 . S
C379 C384 1.363 . S
C380 H357 0.950 . S
C380 C379 1.397 . S
C380 C381 1.334 . S
C381 H358 0.950 . S
C381 C380 1.334 . S
C381 C382 1.287 . S
C382 C381 1.287 . S
C382 C383 1.524 . S
C382 H401 0.913 . S
C383 H359 0.950 . S
C383 C382 1.524 . S
C383 C384 1.415 . S
C384 H360 0.950 . S
C384 C379 1.363 . S
C384 C383 1.415 . S
C385 H361 0.951 . S
C385 C386 1.366 . S
C385 C387 1.388 . S
C386 C385 1.366 . S
C386 C390 1.385 1_554 S
C387 H362 0.951 . S
C387 C385 1.388 . S
C387 C388 1.366 . S
C388 C387 1.366 . S
C388 C389 1.414 1_554 S
C388 C391 1.502 1_554 S
C389 H363 0.950 . S
C389 C388 1.414 1_556 S
C389 C390 1.374 . S
C390 H364 0.950 . S
C390 C386 1.385 1_556 S
C390 C389 1.374 . S
C391 C388 1.502 1_556 S
C391 C392 1.353 1_556 S
C391 C393 1.406 . S
C392 H365 0.950 . S
C392 C378 1.377 . S
C392 C391 1.353 1_554 S
C393 C377 1.377 . S
C393 C391 1.406 . S
C393 C394 1.524 . S
C394 C393 1.524 . S
C394 C395 1.397 . S
C394 C399 1.363 . S
C395 H366 0.950 . S
C395 C394 1.397 . S
C395 C396 1.334 . S
C396 H367 0.950 . S
C396 C395 1.334 . S
C396 C397 1.287 . S
C397 C396 1.287 . S
C397 C398 1.524 . S
C397 H400 0.999 . S
C398 H368 0.950 . S
C398 C397 1.524 . S
C398 C399 1.415 . S
C399 H369 0.950 . S
C399 C394 1.363 . S
C399 C398 1.415 . S
H400 C397 0.999 . S
H401 C382 0.913 . S
H402 C420 0.951 . S
H403 C422 0.951 . S
H404 C424 0.950 . S
H405 C425 0.950 . S
H406 C427 0.950 . S
H407 C430 0.950 . S
H408 C431 0.950 . S
H409 C433 0.950 . S
H410 C434 0.950 . S
H411 C435 0.951 . S
H412 C437 0.951 . S
H413 C439 0.950 . S
H414 C440 0.950 . S
H415 C442 0.950 . S
H416 C445 0.950 . S
H417 C446 0.950 . S
H418 C448 0.950 . S
H419 C449 0.950 . S
C420 H402 0.951 . S
C420 C421 1.366 . S
C420 C422 1.388 . S
C421 C420 1.366 . S
C421 C425 1.385 . S
C422 H403 0.951 . S
C422 C420 1.388 . S
C422 C423 1.366 . S
C423 C422 1.366 . S
C423 C424 1.414 . S
C423 C426 1.499 . S
C424 H404 0.950 . S
C424 C423 1.414 . S
C424 C425 1.374 . S
C425 H405 0.950 . S
C425 C421 1.385 . S
C425 C424 1.374 . S
C426 C423 1.499 . S
C426 C427 1.373 . S
C426 C428 1.389 . S
C427 H406 0.950 . S
C427 C426 1.373 . S
C427 C443 1.377 . S
C428 C426 1.389 . S
C428 C429 1.524 . S
C428 C442 1.377 . S
C429 C428 1.524 . S
C429 C430 1.397 . S
C429 C434 1.363 . S
C430 H407 0.950 . S
C430 C429 1.397 . S
C430 C431 1.334 . S
C431 H408 0.950 . S
C431 C430 1.334 . S
C431 C432 1.287 . S
C432 C431 1.287 . S
C432 C433 1.524 . S
C432 H451 0.913 . S
C433 H409 0.950 . S
C433 C432 1.524 . S
C433 C434 1.415 . S
C434 H410 0.950 . S
C434 C429 1.363 . S
C434 C433 1.415 . S
C435 H411 0.951 . S
C435 C436 1.366 . S
C435 C437 1.388 . S
C436 C435 1.366 . S
C436 C440 1.385 . S
C437 H412 0.951 . S
C437 C435 1.388 . S
C437 C438 1.366 . S
C438 C437 1.366 . S
C438 C439 1.414 . S
C438 C441 1.499 . S
C439 H413 0.950 . S
C439 C438 1.414 . S
C439 C440 1.374 . S
C440 H414 0.950 . S
C440 C436 1.385 . S
C440 C439 1.374 . S
C441 C438 1.499 . S
C441 C442 1.373 . S
C441 C443 1.389 . S
C442 H415 0.950 . S
C442 C428 1.377 . S
C442 C441 1.373 . S
C443 C427 1.377 . S
C443 C441 1.389 . S
C443 C444 1.524 . S
C444 C443 1.524 . S
C444 C445 1.397 . S
C444 C449 1.363 . S
C445 H416 0.950 . S
C445 C444 1.397 . S
C445 C446 1.334 . S
C446 H417 0.950 . S
C446 C445 1.334 . S
C446 C447 1.287 . S
C447 C446 1.287 . S
C447 C448 1.524 . S
C447 H450 0.999 . S
C448 H418 0.950 . S
C448 C447 1.524 . S
C448 C449 1.415 . S
C449 H419 0.950 . S
C449 C444 1.363 . S
C449 C448 1.415 . S
H450 C447 0.999 . S
H451 C432 0.913 . S
H452 C470 0.951 . S
H453 C472 0.951 . S
H454 C474 0.950 . S
H455 C475 0.950 . S
H456 C477 0.950 . S
H457 C480 0.950 . S
H458 C481 0.950 . S
H459 C483 0.950 . S
H460 C484 0.950 . S
H461 C485 0.951 . S
H462 C487 0.951 . S
H463 C489 0.950 . S
H464 C490 0.950 . S
H465 C492 0.950 . S
H466 C495 0.950 . S
H467 C496 0.950 . S
H468 C498 0.950 . S
H469 C499 0.950 . S
C470 H452 0.951 . S
C470 C471 1.366 1_554 S
C470 C472 1.388 . S
C471 C470 1.366 1_556 S
C471 C475 1.385 . S
C472 H453 0.951 . S
C472 C470 1.388 . S
C472 C473 1.366 1_554 S
C473 C472 1.366 1_556 S
C473 C474 1.414 . S
C473 C476 1.499 . S
C474 H454 0.950 . S
C474 C473 1.414 . S
C474 C475 1.374 . S
C475 H455 0.950 . S
C475 C471 1.385 . S
C475 C474 1.374 . S
C476 C473 1.499 . S
C476 C477 1.373 1_455 S
C476 C478 1.389 1_546 S
C477 H456 0.950 . S
C477 C476 1.373 1_655 S
C477 C493 1.377 . S
C478 C476 1.389 1_564 S
C478 C479 1.524 . S
C478 C492 1.377 . S
C479 C478 1.524 . S
C479 C480 1.397 1_554 S
C479 C484 1.363 . S
C480 H457 0.950 . S
C480 C479 1.397 1_556 S
C480 C481 1.334 . S
C481 H458 0.950 . S
C481 C480 1.334 . S
C481 C482 1.287 . S
C482 C481 1.287 . S
C482 C483 1.524 1_556 S
C482 H501 0.913 . S
C483 H459 0.950 . S
C483 C482 1.524 1_554 S
C483 C484 1.415 . S
C484 H460 0.950 . S
C484 C479 1.363 . S
C484 C483 1.415 . S
C485 H461 0.951 . S
C485 C486 1.366 1_556 S
C485 C487 1.388 . S
C486 C485 1.366 1_554 S
C486 C490 1.385 . S
C487 H462 0.951 . S
C487 C485 1.388 . S
C487 C488 1.366 1_556 S
C488 C487 1.366 1_554 S
C488 C489 1.414 . S
C488 C491 1.499 . S
C489 H463 0.950 . S
C489 C488 1.414 . S
C489 C490 1.374 . S
C490 H464 0.950 . S
C490 C486 1.385 . S
C490 C489 1.374 . S
C491 C488 1.499 . S
C491 C492 1.373 1_655 S
C491 C493 1.389 1_564 S
C492 H465 0.950 . S
C492 C478 1.377 . S
C492 C491 1.373 1_455 S
C493 C477 1.377 . S
C493 C491 1.389 1_546 S
C493 C494 1.526 . S
C494 C493 1.526 . S
C494 C495 1.382 1_556 S
C494 C499 1.374 . S
C495 H466 0.950 . S
C495 C494 1.382 1_554 S
C495 C496 1.334 . S
C496 H467 0.950 . S
C496 C495 1.334 . S
C496 C497 1.287 . S
C497 C496 1.287 . S
C497 C498 1.524 1_554 S
C497 H500 0.999 . S
C498 H468 0.950 . S
C498 C497 1.524 1_556 S
C498 C499 1.415 . S
C499 H469 0.950 . S
C499 C494 1.374 . S
C499 C498 1.415 . S
H500 C497 0.999 . S
H501 C482 0.913 . S
H502 C520 0.951 . S
H503 C522 0.951 . S
H504 C524 0.950 . S
H505 C525 0.950 . S
H506 C527 0.950 . S
H507 C530 0.950 1_545 S
H508 C531 0.950 . S
H509 C533 0.950 . S
H510 C534 0.950 . S
H511 C535 0.951 . S
H512 C537 0.951 . S
H513 C539 0.950 . S
H514 C540 0.950 . S
H515 C542 0.950 . S
H516 C545 0.950 1_565 S
H517 C546 0.950 . S
H518 C548 0.950 . S
H519 C549 0.950 . S
C520 H502 0.951 . S
C520 C521 1.366 . S
C520 C522 1.388 . S
C521 C520 1.366 . S
C521 C525 1.385 . S
C522 H503 0.951 . S
C522 C520 1.388 . S
C522 C523 1.366 . S
C523 C522 1.366 . S
C523 C524 1.414 . S
C523 C526 1.499 . S
C524 H504 0.950 . S
C524 C523 1.414 . S
C524 C525 1.374 . S
C525 H505 0.950 . S
C525 C521 1.385 . S
C525 C524 1.374 . S
C526 C523 1.499 . S
C526 C527 1.373 1_655 S
C526 C528 1.389 1_545 S
C527 H506 0.950 . S
C527 C526 1.373 1_455 S
C527 C543 1.377 . S
C528 C526 1.389 1_565 S
C528 C529 1.524 . S
C528 C542 1.377 . S
C529 C528 1.524 . S
C529 C530 1.397 . S
C529 C534 1.363 . S
C530 H507 0.950 1_565 S
C530 C529 1.397 . S
C530 C531 1.334 . S
C531 H508 0.950 . S
C531 C530 1.334 . S
C531 C532 1.287 . S
C532 C531 1.287 . S
C532 C533 1.524 . S
C532 H551 0.913 . S
C533 H509 0.950 . S
C533 C532 1.524 . S
C533 C534 1.415 . S
C534 H510 0.950 . S
C534 C529 1.363 . S
C534 C533 1.415 . S
C535 H511 0.951 . S
C535 C536 1.366 . S
C535 C537 1.388 . S
C536 C535 1.366 . S
C536 C540 1.385 . S
C537 H512 0.951 . S
C537 C535 1.388 . S
C537 C538 1.366 . S
C538 C537 1.366 . S
C538 C539 1.414 . S
C538 C541 1.499 . S
C539 H513 0.950 . S
C539 C538 1.414 . S
C539 C540 1.374 . S
C540 H514 0.950 . S
C540 C536 1.385 . S
C540 C539 1.374 . S
C541 C538 1.499 . S
C541 C542 1.373 1_455 S
C541 C543 1.389 1_565 S
C542 H515 0.950 . S
C542 C528 1.377 . S
C542 C541 1.373 1_655 S
C543 C527 1.377 . S
C543 C541 1.389 1_545 S
C543 C544 1.524 . S
C544 C543 1.524 . S
C544 C545 1.397 . S
C544 C549 1.363 . S
C545 H516 0.950 1_545 S
C545 C544 1.397 . S
C545 C546 1.334 . S
C546 H517 0.950 . S
C546 C545 1.334 . S
C546 C547 1.287 . S
C547 C546 1.287 . S
C547 C548 1.524 . S
C547 H550 0.999 . S
C548 H518 0.950 . S
C548 C547 1.524 . S
C548 C549 1.415 . S
C549 H519 0.950 . S
C549 C544 1.363 . S
C549 C548 1.415 . S
H550 C547 0.999 . S
H551 C532 0.913 . S
H552 C570 0.951 . S
H553 C572 0.951 . S
H554 C574 0.950 . S
H555 C575 0.950 . S
H556 C577 0.950 . S
H557 C580 0.950 . S
H558 C581 0.950 . S
H559 C583 0.950 . S
H560 C584 0.950 . S
H561 C585 0.951 . S
H562 C587 0.951 . S
H563 C589 0.950 . S
H564 C590 0.950 . S
H565 C592 0.950 . S
H566 C595 0.950 . S
H567 C596 0.950 . S
H568 C598 0.950 . S
H569 C599 0.950 . S
C570 H552 0.951 . S
C570 C571 1.366 . S
C570 C572 1.388 . S
C571 C570 1.366 . S
C571 C575 1.385 . S
C572 H553 0.951 . S
C572 C570 1.388 . S
C572 C573 1.366 . S
C573 C572 1.366 . S
C573 C574 1.414 . S
C573 C576 1.499 . S
C574 H554 0.950 . S
C574 C573 1.414 . S
C574 C575 1.374 . S
C575 H555 0.950 . S
C575 C571 1.385 . S
C575 C574 1.374 . S
C576 C573 1.499 . S
C576 C577 1.373 . S
C576 C578 1.389 . S
C577 H556 0.950 . S
C577 C576 1.373 . S
C577 C593 1.377 . S
C578 C576 1.389 . S
C578 C579 1.524 . S
C578 C592 1.377 . S
C579 C578 1.524 . S
C579 C580 1.397 . S
C579 C584 1.363 . S
C580 H557 0.950 . S
C580 C579 1.397 . S
C580 C581 1.334 . S
C581 H558 0.950 . S
C581 C580 1.334 . S
C581 C582 1.287 . S
C582 C581 1.287 . S
C582 C583 1.524 . S
C582 H601 0.913 . S
C583 H559 0.950 . S
C583 C582 1.524 . S
C583 C584 1.415 . S
C584 H560 0.950 . S
C584 C579 1.363 . S
C584 C583 1.415 . S
C585 H561 0.951 . S
C585 C586 1.366 . S
C585 C587 1.388 . S
C586 C585 1.366 . S
C586 C590 1.385 . S
C587 H562 0.951 . S
C587 C585 1.388 . S
C587 C588 1.366 . S
C588 C587 1.366 . S
C588 C589 1.414 . S
C588 C591 1.499 . S
C589 H563 0.950 . S
C589 C588 1.414 . S
C589 C590 1.374 . S
C590 H564 0.950 . S
C590 C586 1.385 . S
C590 C589 1.374 . S
C591 C588 1.499 . S
C591 C592 1.373 . S
C591 C593 1.389 . S
C592 H565 0.950 . S
C592 C578 1.377 . S
C592 C591 1.373 . S
C593 C577 1.377 . S
C593 C591 1.389 . S
C593 C594 1.524 . S
C594 C593 1.524 . S
C594 C595 1.397 . S
C594 C599 1.363 . S
C595 H566 0.950 . S
C595 C594 1.397 . S
C595 C596 1.334 . S
C596 H567 0.950 . S
C596 C595 1.334 . S
C596 C597 1.287 . S
C597 C596 1.287 . S
C597 C598 1.524 . S
C597 H600 0.999 . S
C598 H568 0.950 . S
C598 C597 1.524 . S
C598 C599 1.415 . S
C599 H569 0.950 . S
C599 C594 1.363 . S
C599 C598 1.415 . S
H600 C597 0.999 . S
H601 C582 0.913 . S
H602 C620 0.951 . S
H603 C622 0.951 . S
H604 C624 0.950 . S
H605 C625 0.950 . S
H606 C627 0.950 . S
H607 C630 0.950 . S
H608 C631 0.950 . S
H609 C633 0.950 . S
H610 C634 0.950 . S
H611 C635 0.951 . S
H612 C637 0.951 . S
H613 C639 0.950 . S
H614 C640 0.950 . S
H615 C642 0.950 . S
H616 C645 0.950 . S
H617 C646 0.950 . S
H618 C648 0.950 . S
H619 C649 0.950 . S
C620 H602 0.951 . S
C620 C621 1.366 . S
C620 C622 1.388 . S
C621 C620 1.366 . S
C621 C625 1.385 . S
C622 H603 0.951 . S
C622 C620 1.388 . S
C622 C623 1.366 . S
C623 C622 1.366 . S
C623 C624 1.414 . S
C623 C626 1.499 . S
C624 H604 0.950 . S
C624 C623 1.414 . S
C624 C625 1.374 . S
C625 H605 0.950 . S
C625 C621 1.385 . S
C625 C624 1.374 . S
C626 C623 1.499 . S
C626 C627 1.373 . S
C626 C628 1.389 . S
C627 H606 0.950 . S
C627 C626 1.373 . S
C627 C643 1.377 . S
C628 C626 1.389 . S
C628 C629 1.524 . S
C628 C642 1.377 . S
C629 C628 1.524 . S
C629 C630 1.397 . S
C629 C634 1.363 . S
C630 H607 0.950 . S
C630 C629 1.397 . S
C630 C631 1.334 . S
C631 H608 0.950 . S
C631 C630 1.334 . S
C631 C632 1.287 . S
C632 C631 1.287 . S
C632 C633 1.524 . S
C632 H651 0.913 . S
C633 H609 0.950 . S
C633 C632 1.524 . S
C633 C634 1.415 . S
C634 H610 0.950 . S
C634 C629 1.363 . S
C634 C633 1.415 . S
C635 H611 0.951 . S
C635 C636 1.366 . S
C635 C637 1.388 . S
C636 C635 1.366 . S
C636 C640 1.385 . S
C637 H612 0.951 . S
C637 C635 1.388 . S
C637 C638 1.366 . S
C638 C637 1.366 . S
C638 C639 1.414 . S
C638 C641 1.499 . S
C639 H613 0.950 . S
C639 C638 1.414 . S
C639 C640 1.374 . S
C640 H614 0.950 . S
C640 C636 1.385 . S
C640 C639 1.374 . S
C641 C638 1.499 . S
C641 C642 1.373 . S
C641 C643 1.389 . S
C642 H615 0.950 . S
C642 C628 1.377 . S
C642 C641 1.373 . S
C643 C627 1.377 . S
C643 C641 1.389 . S
C643 C644 1.524 . S
C644 C643 1.524 . S
C644 C645 1.397 . S
C644 C649 1.363 . S
C645 H616 0.950 . S
C645 C644 1.397 . S
C645 C646 1.334 . S
C646 H617 0.950 . S
C646 C645 1.334 . S
C646 C647 1.287 . S
C647 C646 1.287 . S
C647 C648 1.524 . S
C647 H650 0.999 . S
C648 H618 0.950 . S
C648 C647 1.524 . S
C648 C649 1.415 . S
C649 H619 0.950 . S
C649 C644 1.363 . S
C649 C648 1.415 . S
H650 C647 0.999 . S
H651 C632 0.913 . S
H652 C670 0.951 . S
H653 C672 0.951 . S
H654 C674 0.950 . S
H655 C675 0.950 . S
H656 C677 0.950 . S
H657 C680 0.950 . S
H658 C681 0.950 . S
H659 C683 0.950 . S
H660 C684 0.950 . S
H661 C685 0.951 . S
H662 C687 0.951 . S
H663 C689 0.950 . S
H664 C690 0.950 . S
H665 C692 0.950 . S
H666 C695 0.950 . S
H667 C696 0.950 . S
H668 C698 0.950 . S
H669 C699 0.950 . S
C670 H652 0.951 . S
C670 C671 1.366 . S
C670 C672 1.388 . S
C671 C670 1.366 . S
C671 C675 1.385 . S
C672 H653 0.951 . S
C672 C670 1.388 . S
C672 C673 1.366 . S
C673 C672 1.366 . S
C673 C674 1.414 . S
C673 C676 1.499 . S
C674 H654 0.950 . S
C674 C673 1.414 . S
C674 C675 1.374 . S
C675 H655 0.950 . S
C675 C671 1.385 . S
C675 C674 1.374 . S
C676 C673 1.499 . S
C676 C677 1.373 . S
C676 C678 1.389 . S
C677 H656 0.950 . S
C677 C676 1.373 . S
C677 C693 1.377 . S
C678 C676 1.389 . S
C678 C679 1.524 . S
C678 C692 1.377 . S
C679 C678 1.524 . S
C679 C680 1.397 . S
C679 C684 1.363 . S
C680 H657 0.950 . S
C680 C679 1.397 . S
C680 C681 1.334 . S
C681 H658 0.950 . S
C681 C680 1.334 . S
C681 C682 1.287 . S
C682 C681 1.287 . S
C682 C683 1.524 . S
C682 H701 0.913 . S
C683 H659 0.950 . S
C683 C682 1.524 . S
C683 C684 1.415 . S
C684 H660 0.950 . S
C684 C679 1.363 . S
C684 C683 1.415 . S
C685 H661 0.951 . S
C685 C686 1.366 . S
C685 C687 1.388 . S
C686 C685 1.366 . S
C686 C690 1.385 . S
C687 H662 0.951 . S
C687 C685 1.388 . S
C687 C688 1.366 . S
C688 C687 1.366 . S
C688 C689 1.414 . S
C688 C691 1.499 . S
C689 H663 0.950 . S
C689 C688 1.414 . S
C689 C690 1.374 . S
C690 H664 0.950 . S
C690 C686 1.385 . S
C690 C689 1.374 . S
C691 C688 1.499 . S
C691 C692 1.373 . S
C691 C693 1.389 . S
C692 H665 0.950 . S
C692 C678 1.377 . S
C692 C691 1.373 . S
C693 C677 1.377 . S
C693 C691 1.389 . S
C693 C694 1.524 . S
C694 C693 1.524 . S
C694 C695 1.397 . S
C694 C699 1.363 . S
C695 H666 0.950 . S
C695 C694 1.397 . S
C695 C696 1.334 . S
C696 H667 0.950 . S
C696 C695 1.334 . S
C696 C697 1.287 . S
C697 C696 1.287 . S
C697 C698 1.524 . S
C697 H700 0.999 . S
C698 H668 0.950 . S
C698 C697 1.524 . S
C698 C699 1.415 . S
C699 H669 0.950 . S
C699 C694 1.363 . S
C699 C698 1.415 . S
H700 C697 0.999 . S
H701 C682 0.913 . S
H702 C720 0.951 . S
H703 C722 0.951 . S
H704 C724 0.950 . S
H705 C725 0.950 . S
H706 C727 0.950 . S
H707 C730 0.950 . S
H708 C731 0.950 . S
H709 C733 0.950 . S
H710 C734 0.950 . S
H711 C735 0.951 . S
H712 C737 0.951 . S
H713 C739 0.950 . S
H714 C740 0.950 . S
H715 C742 0.950 . S
H716 C745 0.950 . S
H717 C746 0.950 . S
H718 C748 0.950 . S
H719 C749 0.950 . S
C720 H702 0.951 . S
C720 C721 1.366 . S
C720 C722 1.388 . S
C721 C720 1.366 . S
C721 C725 1.385 . S
C722 H703 0.951 . S
C722 C720 1.388 . S
C722 C723 1.366 . S
C723 C722 1.366 . S
C723 C724 1.414 . S
C723 C726 1.499 . S
C724 H704 0.950 . S
C724 C723 1.414 . S
C724 C725 1.374 . S
C725 H705 0.950 . S
C725 C721 1.385 . S
C725 C724 1.374 . S
C726 C723 1.499 . S
C726 C727 1.373 . S
C726 C728 1.389 . S
C727 H706 0.950 . S
C727 C726 1.373 . S
C727 C743 1.377 . S
C728 C726 1.389 . S
C728 C729 1.524 . S
C728 C742 1.377 . S
C729 C728 1.524 . S
C729 C730 1.397 . S
C729 C734 1.363 . S
C730 H707 0.950 . S
C730 C729 1.397 . S
C730 C731 1.334 . S
C731 H708 0.950 . S
C731 C730 1.334 . S
C731 C732 1.287 . S
C732 C731 1.287 . S
C732 C733 1.524 . S
C732 H751 0.913 . S
C733 H709 0.950 . S
C733 C732 1.524 . S
C733 C734 1.415 . S
C734 H710 0.950 . S
C734 C729 1.363 . S
C734 C733 1.415 . S
C735 H711 0.951 . S
C735 C736 1.366 . S
C735 C737 1.388 . S
C736 C735 1.366 . S
C736 C740 1.385 . S
C737 H712 0.951 . S
C737 C735 1.388 . S
C737 C738 1.366 . S
C738 C737 1.366 . S
C738 C739 1.414 . S
C738 C741 1.499 . S
C739 H713 0.950 . S
C739 C738 1.414 . S
C739 C740 1.374 . S
C740 H714 0.950 . S
C740 C736 1.385 . S
C740 C739 1.374 . S
C741 C738 1.499 . S
C741 C742 1.373 . S
C741 C743 1.389 . S
C742 H715 0.950 . S
C742 C728 1.377 . S
C742 C741 1.373 . S
C743 C727 1.377 . S
C743 C741 1.389 . S
C743 C744 1.524 . S
C744 C743 1.524 . S
C744 C745 1.397 . S
C744 C749 1.363 . S
C745 H716 0.950 . S
C745 C744 1.397 . S
C745 C746 1.334 . S
C746 H717 0.950 . S
C746 C745 1.334 . S
C746 C747 1.287 . S
C747 C746 1.287 . S
C747 C748 1.524 . S
C747 H750 0.999 . S
C748 H718 0.950 . S
C748 C747 1.524 . S
C748 C749 1.415 . S
C749 H719 0.950 . S
C749 C744 1.363 . S
C749 C748 1.415 . S
H750 C747 0.999 . S
H751 C732 0.913 . S
H752 C770 0.951 . S
H753 C772 0.951 . S
H754 C774 0.950 . S
H755 C775 0.950 . S
H756 C777 0.950 . S
H757 C780 0.950 1_655 S
H758 C781 0.950 . S
H759 C783 0.950 . S
H760 C784 0.950 . S
H761 C785 0.951 . S
H762 C787 0.951 . S
H763 C789 0.950 . S
H764 C790 0.950 . S
H765 C792 0.950 . S
H766 C795 0.950 . S
H767 C796 0.950 . S
H768 C798 0.950 . S
H769 C799 0.950 . S
C770 H752 0.951 . S
C770 C771 1.366 . S
C770 C772 1.388 . S
C771 C770 1.366 . S
C771 C775 1.385 . S
C772 H753 0.951 . S
C772 C770 1.388 . S
C772 C773 1.366 . S
C773 C772 1.366 . S
C773 C774 1.414 1_455 S
C773 C776 1.499 1_455 S
C774 H754 0.950 . S
C774 C773 1.414 1_655 S
C774 C775 1.374 1_655 S
C775 H755 0.950 . S
C775 C771 1.385 . S
C775 C774 1.374 1_455 S
C776 C773 1.499 1_655 S
C776 C777 1.373 . S
C776 C778 1.389 . S
C777 H756 0.950 . S
C777 C776 1.373 . S
C777 C793 1.377 . S
C778 C776 1.389 . S
C778 C779 1.524 1_655 S
C778 C792 1.377 . S
C779 C778 1.524 1_455 S
C779 C780 1.397 . S
C779 C784 1.363 . S
C780 H757 0.950 1_455 S
C780 C779 1.397 . S
C780 C781 1.334 . S
C781 H758 0.950 . S
C781 C780 1.334 . S
C781 C782 1.287 . S
C782 C781 1.287 . S
C782 C783 1.524 . S
C782 H801 0.913 . S
C783 H759 0.950 . S
C783 C782 1.524 . S
C783 C784 1.415 . S
C784 H760 0.950 . S
C784 C779 1.363 . S
C784 C783 1.415 . S
C785 H761 0.951 . S
C785 C786 1.366 . S
C785 C787 1.388 . S
C786 C785 1.366 . S
C786 C790 1.385 . S
C787 H762 0.951 . S
C787 C785 1.388 . S
C787 C788 1.366 . S
C788 C787 1.366 . S
C788 C789 1.414 . S
C788 C791 1.499 . S
C789 H763 0.950 . S
C789 C788 1.414 . S
C789 C790 1.374 . S
C790 H764 0.950 . S
C790 C786 1.385 . S
C790 C789 1.374 . S
C791 C788 1.499 . S
C791 C792 1.373 . S
C791 C793 1.389 . S
C792 H765 0.950 . S
C792 C778 1.377 . S
C792 C791 1.373 . S
C793 C777 1.377 . S
C793 C791 1.389 . S
C793 C794 1.524 . S
C794 C793 1.524 . S
C794 C795 1.397 . S
C794 C799 1.363 . S
C795 H766 0.950 . S
C795 C794 1.397 . S
C795 C796 1.334 . S
C796 H767 0.950 . S
C796 C795 1.334 . S
C796 C797 1.287 . S
C797 C796 1.287 . S
C797 C798 1.524 . S
C797 H800 0.999 . S
C798 H768 0.950 . S
C798 C797 1.524 . S
C798 C799 1.415 . S
C799 H769 0.950 . S
C799 C794 1.363 . S
C799 C798 1.415 . S
H800 C797 0.999 . S
H801 C782 0.913 . S
H802 C820 0.951 . S
H803 C822 0.951 . S
H804 C824 0.950 . S
H805 C825 0.950 . S
H806 C827 0.950 . S
H807 C830 0.950 . S
H808 C831 0.950 . S
H809 C833 0.950 . S
H810 C834 0.950 . S
H811 C835 0.951 . S
H812 C837 0.951 . S
H813 C839 0.950 . S
H814 C840 0.950 . S
H815 C842 0.950 . S
H816 C845 0.950 1_655 S
H817 C846 0.950 . S
H818 C848 0.950 . S
H819 C849 0.950 . S
C820 H802 0.951 . S
C820 C821 1.366 . S
C820 C822 1.388 . S
C821 C820 1.366 . S
C821 C825 1.385 . S
C822 H803 0.951 . S
C822 C820 1.388 . S
C822 C823 1.366 . S
C823 C822 1.366 . S
C823 C824 1.414 . S
C823 C826 1.499 . S
C824 H804 0.950 . S
C824 C823 1.414 . S
C824 C825 1.374 . S
C825 H805 0.950 . S
C825 C821 1.385 . S
C825 C824 1.374 . S
C826 C823 1.499 . S
C826 C827 1.373 . S
C826 C828 1.389 . S
C827 H806 0.950 . S
C827 C826 1.373 . S
C827 C843 1.377 . S
C828 C826 1.389 . S
C828 C829 1.524 . S
C828 C842 1.377 . S
C829 C828 1.524 . S
C829 C830 1.397 . S
C829 C834 1.363 . S
C830 H807 0.950 . S
C830 C829 1.397 . S
C830 C831 1.334 . S
C831 H808 0.950 . S
C831 C830 1.334 . S
C831 C832 1.287 . S
C832 C831 1.287 . S
C832 C833 1.524 . S
C832 H851 0.913 . S
C833 H809 0.950 . S
C833 C832 1.524 . S
C833 C834 1.415 . S
C834 H810 0.950 . S
C834 C829 1.363 . S
C834 C833 1.415 . S
C835 H811 0.951 . S
C835 C836 1.366 . S
C835 C837 1.388 . S
C836 C835 1.366 . S
C836 C840 1.385 . S
C837 H812 0.951 . S
C837 C835 1.388 . S
C837 C838 1.366 . S
C838 C837 1.366 . S
C838 C839 1.414 1_455 S
C838 C841 1.499 1_455 S
C839 H813 0.950 . S
C839 C838 1.414 1_655 S
C839 C840 1.374 1_655 S
C840 H814 0.950 . S
C840 C836 1.385 . S
C840 C839 1.374 1_455 S
C841 C838 1.499 1_655 S
C841 C842 1.373 . S
C841 C843 1.389 . S
C842 H815 0.950 . S
C842 C828 1.377 . S
C842 C841 1.373 . S
C843 C827 1.377 . S
C843 C841 1.389 . S
C843 C844 1.524 1_655 S
C844 C843 1.524 1_455 S
C844 C845 1.397 . S
C844 C849 1.363 . S
C845 H816 0.950 1_455 S
C845 C844 1.397 . S
C845 C846 1.334 . S
C846 H817 0.950 . S
C846 C845 1.334 . S
C846 C847 1.287 . S
C847 C846 1.287 . S
C847 C848 1.524 . S
C847 H850 0.999 . S
C848 H818 0.950 . S
C848 C847 1.524 . S
C848 C849 1.415 . S
C849 H819 0.950 . S
C849 C844 1.363 . S
C849 C848 1.415 . S
H850 C847 0.999 . S
H851 C832 0.913 . S
H852 C870 0.951 . S
H853 C872 0.951 . S
H854 C874 0.950 . S
H855 C875 0.950 . S
H856 C877 0.950 . S
H857 C880 0.950 . S
H858 C881 0.950 1_455 S
H859 C883 0.950 . S
H860 C884 0.950 . S
H861 C885 0.951 . S
H862 C887 0.951 . S
H863 C889 0.950 . S
H864 C890 0.950 . S
H865 C892 0.950 . S
H866 C895 0.950 . S
H867 C896 0.950 . S
H868 C898 0.950 . S
H869 C899 0.950 . S
C870 H852 0.951 . S
C870 C871 1.366 . S
C870 C872 1.388 . S
C871 C870 1.366 . S
C871 C875 1.385 . S
C872 H853 0.951 . S
C872 C870 1.388 . S
C872 C873 1.366 . S
C873 C872 1.366 . S
C873 C874 1.414 . S
C873 C876 1.499 . S
C874 H854 0.950 . S
C874 C873 1.414 . S
C874 C875 1.374 . S
C875 H855 0.950 . S
C875 C871 1.385 . S
C875 C874 1.374 . S
C876 C873 1.499 . S
C876 C877 1.373 . S
C876 C878 1.389 . S
C877 H856 0.950 . S
C877 C876 1.373 . S
C877 C893 1.377 . S
C878 C876 1.389 . S
C878 C879 1.524 1_455 S
C878 C892 1.377 1_455 S
C879 C878 1.524 1_655 S
C879 C880 1.397 1_655 S
C879 C884 1.363 . S
C880 H857 0.950 . S
C880 C879 1.397 1_455 S
C880 C881 1.334 1_455 S
C881 H858 0.950 1_655 S
C881 C880 1.334 1_655 S
C881 C882 1.287 . S
C882 C881 1.287 . S
C882 C883 1.524 . S
C882 H901 0.913 . S
C883 H859 0.950 . S
C883 C882 1.524 . S
C883 C884 1.415 . S
C884 H860 0.950 . S
C884 C879 1.363 . S
C884 C883 1.415 . S
C885 H861 0.951 . S
C885 C886 1.366 . S
C885 C887 1.388 1_655 S
C886 C885 1.366 . S
C886 C890 1.385 . S
C887 H862 0.951 . S
C887 C885 1.388 1_455 S
C887 C888 1.366 1_455 S
C888 C887 1.366 1_655 S
C888 C889 1.414 . S
C888 C891 1.499 1_655 S
C889 H863 0.950 . S
C889 C888 1.414 . S
C889 C890 1.374 . S
C890 H864 0.950 . S
C890 C886 1.385 . S
C890 C889 1.374 . S
C891 C888 1.499 1_455 S
C891 C892 1.373 1_455 S
C891 C893 1.389 . S
C892 H865 0.950 . S
C892 C878 1.377 1_655 S
C892 C891 1.373 1_655 S
C893 C877 1.377 . S
C893 C891 1.389 . S
C893 C894 1.524 . S
C894 C893 1.524 . S
C894 C895 1.397 . S
C894 C899 1.363 . S
C895 H866 0.950 . S
C895 C894 1.397 . S
C895 C896 1.334 . S
C896 H867 0.950 . S
C896 C895 1.334 . S
C896 C897 1.287 . S
C897 C896 1.287 . S
C897 C898 1.524 . S
C897 H900 0.999 . S
C898 H868 0.950 . S
C898 C897 1.524 . S
C898 C899 1.415 . S
C899 H869 0.950 . S
C899 C894 1.363 . S
C899 C898 1.415 . S
H900 C897 0.999 . S
H901 C882 0.913 . S
H902 C920 0.951 . S
H903 C922 0.951 . S
H904 C924 0.950 . S
H905 C925 0.950 . S
H906 C927 0.950 . S
H907 C930 0.950 . S
H908 C931 0.950 . S
H909 C933 0.950 . S
H910 C934 0.950 . S
H911 C935 0.951 . S
H912 C937 0.951 . S
H913 C939 0.950 . S
H914 C940 0.950 . S
H915 C942 0.950 . S
H916 C945 0.950 . S
H917 C946 0.950 . S
H918 C948 0.950 . S
H919 C949 0.950 . S
C920 H902 0.951 . S
C920 C921 1.366 . S
C920 C922 1.388 . S
C921 C920 1.366 . S
C921 C925 1.385 . S
C922 H903 0.951 . S
C922 C920 1.388 . S
C922 C923 1.366 . S
C923 C922 1.366 . S
C923 C924 1.414 . S
C923 C926 1.499 . S
C924 H904 0.950 . S
C924 C923 1.414 . S
C924 C925 1.374 . S
C925 H905 0.950 . S
C925 C921 1.385 . S
C925 C924 1.374 . S
C926 C923 1.499 . S
C926 C927 1.373 . S
C926 C928 1.389 . S
C927 H906 0.950 . S
C927 C926 1.373 . S
C927 C943 1.377 . S
C928 C926 1.389 . S
C928 C929 1.524 1_455 S
C928 C942 1.377 1_455 S
C929 C928 1.524 1_655 S
C929 C930 1.397 . S
C929 C934 1.363 . S
C930 H907 0.950 . S
C930 C929 1.397 . S
C930 C931 1.334 . S
C931 H908 0.950 . S
C931 C930 1.334 . S
C931 C932 1.287 . S
C932 C931 1.287 . S
C932 C933 1.524 . S
C932 H951 0.913 . S
C933 H909 0.950 . S
C933 C932 1.524 . S
C933 C934 1.415 . S
C934 H910 0.950 . S
C934 C929 1.363 . S
C934 C933 1.415 . S
C935 H911 0.951 . S
C935 C936 1.366 . S
C935 C937 1.388 . S
C936 C935 1.366 . S
C936 C940 1.385 . S
C937 H912 0.951 . S
C937 C935 1.388 . S
C937 C938 1.366 . S
C938 C937 1.366 . S
C938 C939 1.414 . S
C938 C941 1.499 1_655 S
C939 H913 0.950 . S
C939 C938 1.414 . S
C939 C940 1.374 . S
C940 H914 0.950 . S
C940 C936 1.385 . S
C940 C939 1.374 . S
C941 C938 1.499 1_455 S
C941 C942 1.373 1_455 S
C941 C943 1.389 . S
C942 H915 0.950 . S
C942 C928 1.377 1_655 S
C942 C941 1.373 1_655 S
C943 C927 1.377 . S
C943 C941 1.389 . S
C943 C944 1.524 . S
C944 C943 1.524 . S
C944 C945 1.397 . S
C944 C949 1.363 . S
C945 H916 0.950 . S
C945 C944 1.397 . S
C945 C946 1.334 . S
C946 H917 0.950 . S
C946 C945 1.334 . S
C946 C947 1.287 . S
C947 C946 1.287 . S
C947 C948 1.524 . S
C947 H950 0.999 . S
C948 H918 0.950 . S
C948 C947 1.524 . S
C948 C949 1.415 . S
C949 H919 0.950 . S
C949 C944 1.363 . S
C949 C948 1.415 . S
H950 C947 0.999 . S
H951 C932 0.913 . S
C171 C26 1.863 . S
C186 C2 1.863 1_655 S
C221 C64 1.863 1_455 S
C236 C40 1.863 . S
C271 C102 1.863 . S
C286 C78 1.863 1_655 S
C321 C140 1.863 1_455 S
C336 C116 1.863 . S
C371 C57 1.579 . S
C386 C20 1.579 . S
C421 C133 1.579 . S
C436 C96 1.579 . S
C471 C19 1.579 . S
C486 C58 1.579 . S
C521 C134 1.579 . S
C536 C95 1.579 . S
C571 C118 1.080 . S
C586 C17 1.116 . S
C621 C42 1.081 . S
C636 C93 1.114 . S
C671 C99 1.080 . S
C686 C66 1.116 . S
C721 C23 1.082 . S
C736 C142 1.115 . S
C771 C80 1.081 . S
C786 C55 1.116 . S
C821 C131 1.115 . S
C836 C4 1.081 . S
C871 C28 1.115 . S
C886 C137 1.082 . S
C921 C104 1.115 . S
C936 C61 1.082 . S
