# Generated by pormake.
# Topology una, (4)-cn, num edge types: 1
# Building blocks:
#     Node 0, Type 0, BuildingBlock: UXUYUI_clean_sbu_0, # of connection points: 4
#     Node 1, Type 0, BuildingBlock: UXUYUI_clean_sbu_0, # of connection points: 4
#     Node 2, Type 0, BuildingBlock: UXUYUI_clean_sbu_0, # of connection points: 4
#     Node 3, Type 0, BuildingBlock: UXUYUI_clean_sbu_0, # of connection points: 4
#     Node 4, Type 0, BuildingBlock: UXUYUI_clean_sbu_0, # of connection points: 4
#     Node 5, Type 0, BuildingBlock: UXUYUI_clean_sbu_0, # of connection points: 4
#     Node 6, Type 0, BuildingBlock: UXUYUI_clean_sbu_0, # of connection points: 4
#     Node 7, Type 0, BuildingBlock: UXUYUI_clean_sbu_0, # of connection points: 4
#     Node 8, Type 0, BuildingBlock: UXUYUI_clean_sbu_0, # of connection points: 4
#     Node 9, Type 0, BuildingBlock: UXUYUI_clean_sbu_0, # of connection points: 4
#     Node 10, Type 0, BuildingBlock: UXUYUI_clean_sbu_0, # of connection points: 4
#     Node 11, Type 0, BuildingBlock: UXUYUI_clean_sbu_0, # of connection points: 4
#     Edge 12, Type (0, 0), BuildingBlock: EZIPEK_clean_linker_0, # of connection points: 2
#     Edge 13, Type (0, 0), BuildingBlock: EZIPEK_clean_linker_0, # of connection points: 2
#     Edge 14, Type (0, 0), BuildingBlock: EZIPEK_clean_linker_0, # of connection points: 2
#     Edge 15, Type (0, 0), BuildingBlock: EZIPEK_clean_linker_0, # of connection points: 2
#     Edge 16, Type (0, 0), BuildingBlock: EZIPEK_clean_linker_0, # of connection points: 2
#     Edge 17, Type (0, 0), BuildingBlock: EZIPEK_clean_linker_0, # of connection points: 2
#     Edge 18, Type (0, 0), BuildingBlock: EZIPEK_clean_linker_0, # of connection points: 2
#     Edge 19, Type (0, 0), BuildingBlock: EZIPEK_clean_linker_0, # of connection points: 2
#     Edge 20, Type (0, 0), BuildingBlock: EZIPEK_clean_linker_0, # of connection points: 2
#     Edge 21, Type (0, 0), BuildingBlock: EZIPEK_clean_linker_0, # of connection points: 2
#     Edge 22, Type (0, 0), BuildingBlock: EZIPEK_clean_linker_0, # of connection points: 2
#     Edge 23, Type (0, 0), BuildingBlock: EZIPEK_clean_linker_0, # of connection points: 2
#     Edge 24, Type (0, 0), BuildingBlock: EZIPEK_clean_linker_0, # of connection points: 2
#     Edge 25, Type (0, 0), BuildingBlock: EZIPEK_clean_linker_0, # of connection points: 2
#     Edge 26, Type (0, 0), BuildingBlock: EZIPEK_clean_linker_0, # of connection points: 2
#     Edge 27, Type (0, 0), BuildingBlock: EZIPEK_clean_linker_0, # of connection points: 2
#     Edge 28, Type (0, 0), BuildingBlock: EZIPEK_clean_linker_0, # of connection points: 2
#     Edge 29, Type (0, 0), BuildingBlock: EZIPEK_clean_linker_0, # of connection points: 2
#     Edge 30, Type (0, 0), BuildingBlock: EZIPEK_clean_linker_0, # of connection points: 2
#     Edge 31, Type (0, 0), BuildingBlock: EZIPEK_clean_linker_0, # of connection points: 2
#     Edge 32, Type (0, 0), BuildingBlock: EZIPEK_clean_linker_0, # of connection points: 2
#     Edge 33, Type (0, 0), BuildingBlock: EZIPEK_clean_linker_0, # of connection points: 2
#     Edge 34, Type (0, 0), BuildingBlock: EZIPEK_clean_linker_0, # of connection points: 2
#     Edge 35, Type (0, 0), BuildingBlock: EZIPEK_clean_linker_0, # of connection points: 2
# Relax obj value: 0.208
# Max RMSD: 0.213
# Mean RMSD: 0.213
data_MOF--net-una--node1-UXUYUI_clean_sbu_0--edge1-EZIPEK_clean_linker_0
_symmetry_space_group_name_H-M    P1
_symmetry_Int_Tables_number       1
_symmetry_cell_setting            triclinic
loop_
_symmetry_equiv_pos_as_xyz
'x, y, z'
_cell_length_a     67.980742
_cell_length_b     67.99649
_cell_length_c     26.446641
_cell_angle_alpha  90.010003
_cell_angle_beta   90.004159
_cell_angle_gamma 119.98138
loop_
_atom_site_label
_atom_site_type_symbol
_atom_site_fract_x
_atom_site_fract_y
_atom_site_fract_z
_atom_type_partial_charge
Li0 Li 0.13485 0.45925 0.05208 0.0
Li1 Li 0.14025 0.42822 0.08159 0.0
Li2 Li 0.15181 0.44377 0.99637 0.0
Li3 Li 0.11171 0.42074 0.01775 0.0
C4 C 0.1864 0.46988 0.05241 0.0
N5 N 0.23201 0.48946 0.02887 0.0
C6 C 0.19934 0.4609 0.07221 0.0
C7 C 0.19671 0.48883 0.02063 0.0
C8 C 0.22236 0.47107 0.05995 0.0
C9 C 0.21976 0.49845 0.00911 0.0
C10 C 0.10724 0.42484 0.13714 0.0
C11 C 0.0921 0.39587 0.2015 0.0
N12 N 0.09868 0.41224 0.23755 0.0
C13 C 0.11379 0.44139 0.17476 0.0
C14 C 0.09623 0.40189 0.15049 0.0
C15 C 0.10933 0.43467 0.22534 0.0
C16 C 0.11354 0.48382 0.083 0.0
N17 N 0.13401 0.48588 0.07155 0.0
C18 C 0.15265 0.52605 0.08397 0.0
C19 C 0.15342 0.50641 0.07234 0.0
C20 C 0.13174 0.5244 0.0954 0.0
C21 C 0.11201 0.50299 0.09525 0.0
H22 H 0.09839 0.46726 0.08211 0.0
H23 H 0.16946 0.50757 0.06353 0.0
C24 C 0.15076 0.39854 0.13855 0.0
N25 N 0.1503 0.41832 0.13894 0.0
C26 C 0.16235 0.39407 0.1766 0.0
C27 C 0.17212 0.43005 0.21521 0.0
C28 C 0.16031 0.43378 0.17673 0.0
C29 C 0.17365 0.41026 0.21467 0.0
H30 H 0.14317 0.3868 0.10744 0.0
H31 H 0.16024 0.44964 0.17532 0.0
C32 C 0.12054 0.46475 0.96503 0.0
N33 N 0.10692 0.49545 0.93854 0.0
C34 C 0.09756 0.45839 0.96668 0.0
C35 C 0.1366 0.48675 0.95008 0.0
C36 C 0.09101 0.47415 0.95304 0.0
C37 C 0.12937 0.50203 0.93686 0.0
C38 C 0.12376 0.39135 0.99304 0.0
C39 C 0.12657 0.39029 0.94094 0.0
C40 C 0.10821 0.37183 0.01911 0.0
C41 C 0.1136 0.36968 0.91568 0.0
C42 C 0.09554 0.35155 0.99247 0.0
N43 N 0.09846 0.35091 0.94174 0.0
C44 C 0.18661 0.43979 0.94994 0.0
C45 C 0.17422 0.46116 0.90225 0.0
C46 C 0.20192 0.44222 0.91205 0.0
N47 N 0.1732 0.44923 0.94439 0.0
C48 C 0.18929 0.46398 0.86332 0.0
C49 C 0.20317 0.45427 0.86811 0.0
H50 H 0.1851 0.43007 0.98353 0.0
H51 H 0.16304 0.46808 0.89843 0.0
C52 C 0.06367 0.3869 0.0118 0.0
N53 N 0.08322 0.40043 0.98614 0.0
C54 C 0.04322 0.37416 0.98539 0.0
C55 C 0.06355 0.38934 0.90703 0.0
C56 C 0.08352 0.40164 0.93477 0.0
C57 C 0.04307 0.37565 0.9324 0.0
H58 H 0.06385 0.3864 0.05265 0.0
H59 H 0.09926 0.41271 0.91538 0.0
O60 O 0.16368 0.45986 0.06299 0.0
O61 O 0.11193 0.43108 0.08753 0.0
O62 O 0.12736 0.44974 0.97938 0.0
O63 O 0.13574 0.41151 0.01819 0.0
H64 H 0.1917 0.44608 0.09621 0.0
H65 H 0.18691 0.49572 0.00398 0.0
H66 H 0.23253 0.46424 0.07491 0.0
H67 H 0.22788 0.51298 0.9842 0.0
H68 H 0.0837 0.37818 0.21243 0.0
H69 H 0.12248 0.45923 0.16507 0.0
H70 H 0.09111 0.3889 0.12181 0.0
H71 H 0.1144 0.44728 0.2549 0.0
H72 H 0.16817 0.54236 0.08397 0.0
H73 H 0.09564 0.50122 0.10407 0.0
H74 H 0.16343 0.37872 0.17503 0.0
H75 H 0.18083 0.44293 0.24388 0.0
H76 H 0.0849 0.4416 0.97901 0.0
H77 H 0.15449 0.49212 0.94949 0.0
H78 H 0.07329 0.46947 0.95426 0.0
H79 H 0.14163 0.51915 0.92552 0.0
H80 H 0.1384 0.40526 0.92008 0.0
H81 H 0.10577 0.3724 0.05939 0.0
H82 H 0.11549 0.36863 0.87532 0.0
H83 H 0.08333 0.33635 0.01209 0.0
H84 H 0.21233 0.43439 0.91641 0.0
H85 H 0.18981 0.47319 0.82946 0.0
H86 H 0.02762 0.36375 0.00601 0.0
H87 H 0.06398 0.39088 0.86622 0.0
Li88 Li 0.67317 0.132 0.22813 0.0
Li89 Li 0.71188 0.13916 0.25326 0.0
Li90 Li 0.70487 0.14803 0.16986 0.0
Li91 Li 0.68889 0.10874 0.1924 0.0
C92 C 0.71229 0.18354 0.22191 0.0
N93 N 0.7338 0.22845 0.19176 0.0
C94 C 0.73526 0.19793 0.2329 0.0
C95 C 0.70019 0.19205 0.19608 0.0
C96 C 0.74584 0.22057 0.21725 0.0
C97 C 0.71139 0.21478 0.181 0.0
C98 C 0.68396 0.09555 0.29321 0.0
C99 C 0.70572 0.07782 0.31698 0.0
N100 N 0.68899 0.06418 0.34975 0.0
C101 C 0.66699 0.08136 0.32707 0.0
C102 C 0.7035 0.09379 0.28805 0.0
C103 C 0.66985 0.06561 0.35534 0.0
C104 C 0.62597 0.11162 0.24138 0.0
N105 N 0.64603 0.13103 0.24949 0.0
C106 C 0.62672 0.14967 0.28154 0.0
C107 C 0.64682 0.14982 0.2696 0.0
C108 C 0.60579 0.12997 0.27282 0.0
C109 C 0.60547 0.11069 0.25299 0.0
H110 H 0.62593 0.09702 0.22496 0.0
H111 H 0.66303 0.16503 0.27548 0.0
C112 C 0.75611 0.16024 0.29438 0.0
N113 N 0.73372 0.15045 0.30657 0.0
C114 C 0.77278 0.173 0.33031 0.0
C115 C 0.74303 0.16434 0.39132 0.0
C116 C 0.72693 0.15186 0.35414 0.0
C117 C 0.7662 0.17554 0.37901 0.0
H118 H 0.76099 0.15932 0.25593 0.0
H119 H 0.70901 0.14428 0.36242 0.0
C120 C 0.66171 0.12451 0.11776 0.0
N121 N 0.63695 0.12674 0.03724 0.0
C122 C 0.65973 0.11262 0.07311 0.0
C123 C 0.65082 0.13729 0.12159 0.0
C124 C 0.64724 0.11406 0.03278 0.0
C125 C 0.63845 0.13826 0.08045 0.0
C126 C 0.7315 0.1276 0.14861 0.0
C127 C 0.72147 0.12349 0.10078 0.0
C128 C 0.75153 0.12691 0.1553 0.0
C129 C 0.73164 0.11872 0.06035 0.0
C130 C 0.76118 0.12206 0.11394 0.0
N131 N 0.75112 0.1181 0.06771 0.0
C132 C 0.74332 0.1801 0.11936 0.0
C133 C 0.70964 0.17438 0.07926 0.0
C134 C 0.75661 0.19509 0.08148 0.0
N135 N 0.72027 0.16974 0.11714 0.0
C136 C 0.72232 0.18938 0.0406 0.0
C137 C 0.74602 0.19956 0.04135 0.0
H138 H 0.75136 0.17638 0.15026 0.0
H139 H 0.69142 0.16636 0.07848 0.0
C140 C 0.65787 0.06778 0.14764 0.0
N141 N 0.67955 0.07923 0.16528 0.0
C142 C 0.65028 0.04786 0.11969 0.0
C143 C 0.68712 0.05115 0.13062 0.0
C144 C 0.69403 0.07108 0.15845 0.0
C145 C 0.66515 0.03966 0.11005 0.0
H146 H 0.64672 0.07464 0.15362 0.0
H147 H 0.71115 0.08042 0.17301 0.0
O148 O 0.70182 0.16113 0.23546 0.0
O149 O 0.68128 0.11094 0.26515 0.0
O150 O 0.67353 0.12295 0.15803 0.0
O151 O 0.7218 0.13218 0.18893 0.0
H152 H 0.7449 0.19167 0.25282 0.0
H153 H 0.68242 0.18118 0.18726 0.0
H154 H 0.76365 0.23186 0.22523 0.0
H155 H 0.70228 0.22154 0.16061 0.0
H156 H 0.72073 0.07627 0.31337 0.0
H157 H 0.65176 0.08251 0.33141 0.0
H158 H 0.71682 0.10459 0.26205 0.0
H159 H 0.65686 0.05451 0.38171 0.0
H160 H 0.62745 0.16481 0.2968 0.0
H161 H 0.58954 0.09527 0.24583 0.0
H162 H 0.79053 0.18165 0.31964 0.0
H163 H 0.73748 0.1662 0.42851 0.0
H164 H 0.66766 0.1023 0.06959 0.0
H165 H 0.65201 0.14653 0.15571 0.0
H166 H 0.64564 0.10501 0.99799 0.0
H167 H 0.63004 0.14817 0.08288 0.0
H168 H 0.70608 0.12408 0.0949 0.0
H169 H 0.75947 0.12997 0.19215 0.0
H170 H 0.72405 0.11553 0.02313 0.0
H171 H 0.77667 0.12143 0.11859 0.0
H172 H 0.77492 0.20281 0.08293 0.0
H173 H 0.71377 0.19263 0.00994 0.0
H174 H 0.6332 0.03929 0.10447 0.0
H175 H 0.69893 0.04512 0.12399 0.0
Li176 Li 0.57368 0.70931 0.41733 0.0
Li177 Li 0.54581 0.67236 0.38495 0.0
Li178 Li 0.58474 0.69052 0.35482 0.0
Li179 Li 0.56078 0.70551 0.33069 0.0
C180 C 0.56712 0.67179 0.4735 0.0
N181 N 0.55394 0.65555 0.57065 0.0
C182 C 0.55057 0.67467 0.49829 0.0
C183 C 0.57695 0.66063 0.49811 0.0
C184 C 0.54414 0.66635 0.5474 0.0
C185 C 0.57006 0.65255 0.54723 0.0
C186 C 0.52158 0.69624 0.38144 0.0
C187 C 0.48687 0.67728 0.33321 0.0
N188 N 0.47897 0.68939 0.35836 0.0
C189 C 0.51315 0.70851 0.40676 0.0
C190 C 0.50838 0.68052 0.34429 0.0
C191 C 0.49156 0.7048 0.39456 0.0
C192 C 0.57719 0.74729 0.46215 0.0
N193 N 0.5818 0.73039 0.47209 0.0
C194 C 0.59377 0.74456 0.55602 0.0
C195 C 0.5904 0.72897 0.51758 0.0
C196 C 0.58853 0.76177 0.54689 0.0
C197 C 0.58049 0.76328 0.49915 0.0
H198 H 0.57045 0.74802 0.42557 0.0
H199 H 0.59416 0.71552 0.52446 0.0
C200 C 0.51823 0.62515 0.37691 0.0
N201 N 0.51939 0.64376 0.3986 0.0
C202 C 0.49823 0.60414 0.37947 0.0
C203 C 0.48154 0.62146 0.42964 0.0
C204 C 0.50192 0.64207 0.42672 0.0
C205 C 0.47845 0.6023 0.4019 0.0
H206 H 0.53284 0.6267 0.35694 0.0
H207 H 0.50354 0.65686 0.44583 0.0
C208 C 0.61451 0.73656 0.37041 0.0
N209 N 0.65906 0.76436 0.39998 0.0
C210 C 0.62761 0.75788 0.34813 0.0
C211 C 0.62407 0.72937 0.40778 0.0
C212 C 0.6501 0.77168 0.36357 0.0
C213 C 0.64662 0.74368 0.4222 0.0
C214 C 0.56121 0.67362 0.26493 0.0
C215 C 0.57786 0.69267 0.23924 0.0
C216 C 0.54955 0.6528 0.23982 0.0
C217 C 0.58254 0.69056 0.18875 0.0
C218 C 0.55472 0.65138 0.18929 0.0
N219 N 0.57096 0.67013 0.16501 0.0
C220 C 0.60268 0.66234 0.32726 0.0
C221 C 0.62391 0.70013 0.29694 0.0
C222 C 0.61529 0.65573 0.29697 0.0
N223 N 0.60692 0.68413 0.32602 0.0
C224 C 0.63685 0.69425 0.26609 0.0
C225 C 0.6322 0.67173 0.26506 0.0
H226 H 0.58866 0.64981 0.34954 0.0
H227 H 0.62648 0.71711 0.29491 0.0
C228 C 0.56635 0.74367 0.2797 0.0
N229 N 0.55419 0.72062 0.27895 0.0
C230 C 0.56378 0.75614 0.24104 0.0
C231 C 0.53562 0.72089 0.20249 0.0
C232 C 0.53887 0.70907 0.24174 0.0
C233 C 0.54845 0.74465 0.20179 0.0
H234 H 0.57835 0.75232 0.3099 0.0
H235 H 0.52956 0.69072 0.24189 0.0
O236 O 0.57375 0.6797 0.42533 0.0
O237 O 0.54272 0.69978 0.39301 0.0
O238 O 0.59241 0.72299 0.35572 0.0
O239 O 0.55626 0.6752 0.31442 0.0
H240 H 0.54286 0.68338 0.48015 0.0
H241 H 0.58978 0.65826 0.47939 0.0
H242 H 0.53139 0.66851 0.56705 0.0
H243 H 0.57753 0.64388 0.56673 0.0
H244 H 0.47645 0.66513 0.30463 0.0
H245 H 0.52319 0.72076 0.43558 0.0
H246 H 0.51461 0.67084 0.32433 0.0
H247 H 0.4848 0.71417 0.41387 0.0
H248 H 0.59998 0.74299 0.59264 0.0
H249 H 0.57623 0.77633 0.4911 0.0
H250 H 0.49907 0.58999 0.364 0.0
H251 H 0.46825 0.62085 0.45321 0.0
H252 H 0.62047 0.76369 0.31913 0.0
H253 H 0.61428 0.71296 0.42554 0.0
H254 H 0.66044 0.78822 0.34661 0.0
H255 H 0.65423 0.73833 0.45107 0.0
H256 H 0.58711 0.70893 0.25803 0.0
H257 H 0.53662 0.6379 0.25918 0.0
H258 H 0.59538 0.70516 0.16844 0.0
H259 H 0.54584 0.63537 0.16938 0.0
H260 H 0.61117 0.63815 0.29655 0.0
H261 H 0.64962 0.70691 0.24141 0.0
H262 H 0.57389 0.7745 0.24123 0.0
H263 H 0.52375 0.71166 0.17239 0.0
Li264 Li 0.86919 0.54267 0.56109 0.0
Li265 Li 0.86277 0.57339 0.58942 0.0
Li266 Li 0.85273 0.55747 0.50227 0.0
Li267 Li 0.89265 0.58204 0.5242 0.0
C268 C 0.82533 0.52169 0.58808 0.0
N269 N 0.79681 0.47984 0.63111 0.0
C270 C 0.81703 0.52031 0.63709 0.0
C271 C 0.81887 0.50177 0.56074 0.0
C272 C 0.80266 0.49899 0.65821 0.0
C273 C 0.80454 0.48078 0.58324 0.0
C274 C 0.90544 0.58263 0.63481 0.0
C275 C 0.93701 0.61636 0.67021 0.0
N276 N 0.93501 0.60486 0.71374 0.0
C277 C 0.90395 0.57105 0.67959 0.0
C278 C 0.92233 0.60539 0.62978 0.0
C279 C 0.91894 0.58262 0.71918 0.0
C280 C 0.87608 0.50475 0.5522 0.0
N281 N 0.86981 0.51637 0.58405 0.0
C282 C 0.86229 0.48956 0.65013 0.0
C283 C 0.86327 0.50934 0.6324 0.0
C284 C 0.86836 0.4771 0.61793 0.0
C285 C 0.87551 0.48489 0.56854 0.0
H286 H 0.88132 0.51077 0.51401 0.0
H287 H 0.85838 0.51888 0.65692 0.0
C288 C 0.83724 0.59119 0.63233 0.0
N289 N 0.85141 0.58319 0.6446 0.0
C290 C 0.8247 0.59453 0.6698 0.0
C291 C 0.84195 0.58189 0.73218 0.0
C292 C 0.85426 0.57889 0.6935 0.0
C293 C 0.82663 0.58931 0.72015 0.0
H294 H 0.83479 0.59387 0.59306 0.0
H295 H 0.86491 0.57176 0.70222 0.0
C296 C 0.8748 0.54567 0.44006 0.0
N297 N 0.86658 0.53355 0.33926 0.0
C298 C 0.88609 0.56191 0.40236 0.0
C299 C 0.85949 0.52324 0.42647 0.0
C300 C 0.88169 0.55544 0.35162 0.0
C301 C 0.8555 0.51746 0.3753 0.0
C302 C 0.87562 0.61273 0.52616 0.0
C303 C 0.87136 0.62369 0.48652 0.0
C304 C 0.88733 0.62511 0.56894 0.0
C305 C 0.87928 0.64697 0.48997 0.0
C306 C 0.89495 0.64836 0.571 0.0
N307 N 0.89084 0.65873 0.53176 0.0
C308 C 0.81036 0.53262 0.45061 0.0
C309 C 0.83851 0.566 0.40994 0.0
C310 C 0.79476 0.5291 0.41236 0.0
N311 N 0.8317 0.55092 0.44879 0.0
C312 C 0.82347 0.56321 0.37111 0.0
C313 C 0.8013 0.54472 0.37255 0.0
H314 H 0.80529 0.52106 0.48224 0.0
H315 H 0.85556 0.5804 0.40961 0.0
C316 C 0.936 0.5935 0.49197 0.0
N317 N 0.92186 0.60221 0.49536 0.0
C318 C 0.95608 0.60475 0.46399 0.0
C319 C 0.94721 0.63422 0.44501 0.0
C320 C 0.92721 0.62234 0.47316 0.0
C321 C 0.96159 0.62512 0.43936 0.0
H322 H 0.93114 0.57728 0.5092 0.0
H323 H 0.91563 0.62879 0.47532 0.0
O324 O 0.83973 0.54242 0.56709 0.0
O325 O 0.89117 0.57144 0.59527 0.0
O326 O 0.87846 0.55179 0.48996 0.0
O327 O 0.86792 0.58992 0.52335 0.0
H328 H 0.82164 0.5355 0.65867 0.0
H329 H 0.82511 0.50251 0.52281 0.0
H330 H 0.79619 0.49769 0.69617 0.0
H331 H 0.79961 0.46524 0.56268 0.0
H332 H 0.95006 0.63401 0.66689 0.0
H333 H 0.89126 0.55336 0.68394 0.0
H334 H 0.9242 0.6145 0.59497 0.0
H335 H 0.91783 0.57391 0.75421 0.0
H336 H 0.85665 0.48389 0.68843 0.0
H337 H 0.88028 0.47557 0.54288 0.0
H338 H 0.8128 0.60002 0.65935 0.0
H339 H 0.84353 0.57743 0.77069 0.0
H340 H 0.89789 0.57938 0.41204 0.0
H341 H 0.85068 0.51043 0.45508 0.0
H342 H 0.8902 0.56786 0.32208 0.0
H343 H 0.84359 0.50018 0.36425 0.0
H344 H 0.86209 0.61436 0.45335 0.0
H345 H 0.89023 0.61684 0.60051 0.0
H346 H 0.87621 0.65569 0.45944 0.0
H347 H 0.90406 0.65813 0.60389 0.0
H348 H 0.77765 0.51476 0.41442 0.0
H349 H 0.82889 0.57555 0.3408 0.0
H350 H 0.96683 0.59727 0.46018 0.0
H351 H 0.95101 0.6499 0.42628 0.0
Li352 Li 0.29321 0.86191 0.74823 0.0
Li353 Li 0.32963 0.86948 0.71798 0.0
Li354 Li 0.31293 0.89205 0.68623 0.0
Li355 Li 0.29741 0.8522 0.66041 0.0
C356 C 0.32387 0.89823 0.80421 0.0
N357 N 0.32526 0.91337 0.90184 0.0
C358 C 0.32308 0.88494 0.84533 0.0
C359 C 0.32562 0.91933 0.81275 0.0
C360 C 0.32374 0.89286 0.8944 0.0
C361 C 0.32622 0.92665 0.86239 0.0
C362 C 0.31023 0.82604 0.73682 0.0
C363 C 0.32644 0.80287 0.71341 0.0
N364 N 0.32945 0.80003 0.76316 0.0
C365 C 0.31326 0.82271 0.78772 0.0
C366 C 0.31668 0.8159 0.69932 0.0
C367 C 0.32309 0.80957 0.80026 0.0
C368 C 0.25947 0.82629 0.80119 0.0
N369 N 0.27163 0.84936 0.80259 0.0
C370 C 0.25235 0.84964 0.87822 0.0
C371 C 0.26799 0.86121 0.83941 0.0
C372 C 0.24014 0.8258 0.87815 0.0
C373 C 0.24358 0.81413 0.83868 0.0
H374 H 0.26229 0.81724 0.77105 0.0
H375 H 0.2774 0.87955 0.83922 0.0
C376 C 0.36756 0.87747 0.77919 0.0
N377 N 0.35748 0.87029 0.73325 0.0
C378 C 0.38772 0.87761 0.79013 0.0
C379 C 0.3869 0.86313 0.70615 0.0
C380 C 0.3668 0.86338 0.69673 0.0
C381 C 0.39747 0.87029 0.75337 0.0
H382 H 0.36002 0.88313 0.80734 0.0
H383 H 0.35849 0.8579 0.6604 0.0
C384 C 0.26558 0.8747 0.69648 0.0
N385 N 0.2352 0.88904 0.7207 0.0
C386 C 0.24407 0.86435 0.67417 0.0
C387 C 0.27166 0.8924 0.73089 0.0
C388 C 0.22894 0.87182 0.68695 0.0
C389 C 0.25607 0.8994 0.74272 0.0
C390 C 0.33035 0.88486 0.59757 0.0
C391 C 0.31185 0.88353 0.57138 0.0
C392 C 0.35134 0.8936 0.57337 0.0
C393 C 0.31466 0.8909 0.52124 0.0
C394 C 0.35347 0.90083 0.5232 0.0
N395 N 0.33524 0.89933 0.49838 0.0
C396 C 0.34355 0.93681 0.65928 0.0
C397 C 0.30602 0.92467 0.63151 0.0
C398 C 0.3519 0.95678 0.63109 0.0
N399 N 0.32104 0.92111 0.6584 0.0
C400 C 0.31362 0.94455 0.6032 0.0
C401 C 0.33689 0.96058 0.60191 0.0
H402 H 0.35516 0.93325 0.67989 0.0
H403 H 0.28835 0.91163 0.62979 0.0
C404 C 0.25947 0.81981 0.6092 0.0
N405 N 0.28252 0.83084 0.60822 0.0
C406 C 0.24697 0.80495 0.57035 0.0
C407 C 0.28221 0.81224 0.53134 0.0
C408 C 0.29406 0.82718 0.57082 0.0
C409 C 0.25842 0.80131 0.53071 0.0
H410 H 0.25084 0.82285 0.63991 0.0
H411 H 0.31243 0.83614 0.57124 0.0
O412 O 0.32333 0.89087 0.75579 0.0
O413 O 0.30131 0.83944 0.72373 0.0
O414 O 0.28052 0.86743 0.68475 0.0
O415 O 0.32813 0.87796 0.64688 0.0
H416 H 0.32169 0.86857 0.83942 0.0
H417 H 0.32651 0.92995 0.78132 0.0
H418 H 0.32297 0.88266 0.92655 0.0
H419 H 0.32748 0.94291 0.86955 0.0
H420 H 0.33171 0.7951 0.68478 0.0
H421 H 0.3081 0.8302 0.81721 0.0
H422 H 0.31448 0.81836 0.65976 0.0
H423 H 0.32567 0.80695 0.8395 0.0
H424 H 0.25001 0.85912 0.90823 0.0
H425 H 0.23438 0.79574 0.8375 0.0
H426 H 0.39562 0.8833 0.82685 0.0
H427 H 0.39413 0.85746 0.67704 0.0
H428 H 0.23909 0.85072 0.64717 0.0
H429 H 0.28825 0.9007 0.74811 0.0
H430 H 0.21223 0.86395 0.67 0.0
H431 H 0.26058 0.91307 0.76937 0.0
H432 H 0.2955 0.87695 0.58953 0.0
H433 H 0.36584 0.89481 0.59322 0.0
H434 H 0.3005 0.88998 0.50054 0.0
H435 H 0.36963 0.90765 0.50399 0.0
H436 H 0.36997 0.96878 0.63063 0.0
H437 H 0.30165 0.94695 0.58077 0.0
H438 H 0.2286 0.79662 0.57079 0.0
H439 H 0.29141 0.80966 0.50107 0.0
Li440 Li 0.45575 0.32883 0.8847 0.0
Li441 Li 0.42794 0.29082 0.90763 0.0
Li442 Li 0.44342 0.29723 0.82378 0.0
Li443 Li 0.41652 0.31091 0.84867 0.0
C444 C 0.48203 0.30762 0.88357 0.0
N445 N 0.52722 0.31988 0.87459 0.0
C446 C 0.49225 0.30083 0.92017 0.0
C447 C 0.49474 0.32054 0.84232 0.0
C448 C 0.51513 0.30723 0.91499 0.0
C449 C 0.51757 0.32658 0.83845 0.0
C450 C 0.43086 0.32535 0.97069 0.0
C451 C 0.42544 0.34251 0.04529 0.0
N452 N 0.44054 0.33857 0.07064 0.0
C453 C 0.44633 0.32148 0.99749 0.0
C454 C 0.42032 0.33595 0.99473 0.0
C455 C 0.45099 0.32828 0.04799 0.0
C456 C 0.48251 0.37672 0.88765 0.0
N457 N 0.4808 0.35722 0.90593 0.0
C458 C 0.51568 0.37829 0.95123 0.0
C459 C 0.49667 0.35769 0.938 0.0
C460 C 0.51815 0.39859 0.93192 0.0
C461 C 0.50116 0.39777 0.90037 0.0
H462 H 0.46951 0.37587 0.86264 0.0
H463 H 0.49472 0.34208 0.95315 0.0
C464 C 0.42922 0.25559 0.95681 0.0
N465 N 0.41916 0.26852 0.96025 0.0
C466 C 0.42562 0.2396 0.994 0.0
C467 C 0.401 0.25016 0.03762 0.0
C468 C 0.40503 0.26598 0.99929 0.0
C469 C 0.41163 0.23699 0.03524 0.0
H470 H 0.44031 0.25792 0.92528 0.0
H471 H 0.39724 0.27647 0.00114 0.0
C472 C 0.4531 0.33843 0.76848 0.0
N473 N 0.46645 0.36053 0.67644 0.0
C474 C 0.43724 0.3331 0.72969 0.0
C475 C 0.4757 0.35526 0.76061 0.0
C476 C 0.44434 0.34436 0.68337 0.0
C477 C 0.48212 0.36617 0.71379 0.0
C478 C 0.39592 0.25789 0.85643 0.0
C479 C 0.40034 0.24033 0.84591 0.0
C480 C 0.37638 0.2533 0.88328 0.0
C481 C 0.38517 0.2184 0.86293 0.0
C482 C 0.36164 0.23115 0.89967 0.0
N483 N 0.36632 0.21432 0.88928 0.0
C484 C 0.46201 0.27209 0.77944 0.0
C485 C 0.44208 0.28309 0.72315 0.0
C486 C 0.46485 0.2595 0.74138 0.0
N487 N 0.45081 0.28359 0.76969 0.0
C488 C 0.4445 0.27071 0.68403 0.0
C489 C 0.4557 0.25852 0.69338 0.0
H490 H 0.46788 0.27182 0.81725 0.0
H491 H 0.43231 0.2914 0.71698 0.0
C492 C 0.39923 0.33895 0.81538 0.0
N493 N 0.39452 0.31705 0.81906 0.0
C494 C 0.38599 0.34446 0.78436 0.0
C495 C 0.3629 0.30471 0.76298 0.0
C496 C 0.37655 0.29995 0.79439 0.0
C497 C 0.36793 0.32724 0.75692 0.0
H498 H 0.41402 0.35226 0.8343 0.0
H499 H 0.37357 0.28281 0.79685 0.0
O500 O 0.45972 0.30172 0.88865 0.0
O501 O 0.42599 0.31892 0.92114 0.0
O502 O 0.44642 0.32779 0.8144 0.0
O503 O 0.41095 0.27959 0.84166 0.0
H504 H 0.48263 0.29087 0.95243 0.0
H505 H 0.48701 0.32562 0.81339 0.0
H506 H 0.52329 0.30217 0.94312 0.0
H507 H 0.52761 0.33657 0.80667 0.0
H508 H 0.41741 0.35073 0.06436 0.0
H509 H 0.45463 0.31326 0.9797 0.0
H510 H 0.40831 0.33908 0.97447 0.0
H511 H 0.46291 0.32536 0.06917 0.0
H512 H 0.52842 0.3784 0.97605 0.0
H513 H 0.50255 0.41321 0.88518 0.0
H514 H 0.43405 0.22969 0.99118 0.0
H515 H 0.39011 0.24848 0.06916 0.0
H516 H 0.41967 0.3202 0.73501 0.0
H517 H 0.48818 0.35995 0.79036 0.0
H518 H 0.43229 0.34025 0.6529 0.0
H519 H 0.49956 0.37917 0.7072 0.0
H520 H 0.41545 0.24364 0.82531 0.0
H521 H 0.37282 0.26678 0.89196 0.0
H522 H 0.38844 0.20466 0.85536 0.0
H523 H 0.34653 0.22736 0.92082 0.0
H524 H 0.47324 0.24989 0.74976 0.0
H525 H 0.43693 0.26988 0.64747 0.0
H526 H 0.39041 0.36203 0.77997 0.0
H527 H 0.34921 0.29111 0.74186 0.0
Li528 Li 0.58593 0.89371 0.88963 0.0
Li529 Li 0.56069 0.85369 0.91301 0.0
Li530 Li 0.57624 0.8634 0.82483 0.0
Li531 Li 0.54648 0.87065 0.85419 0.0
C532 C 0.61485 0.87375 0.89449 0.0
N533 N 0.65951 0.88395 0.90279 0.0
C534 C 0.62246 0.86843 0.93874 0.0
C535 C 0.62987 0.8839 0.85416 0.0
C536 C 0.64512 0.87384 0.94231 0.0
C537 C 0.6524 0.88901 0.85916 0.0
C538 C 0.5495 0.87739 0.97482 0.0
C539 C 0.52197 0.85705 0.04027 0.0
N540 N 0.53658 0.8717 0.07533 0.0
C541 C 0.56415 0.89235 0.01152 0.0
C542 C 0.52815 0.85971 0.98928 0.0
C543 C 0.55734 0.88916 0.06211 0.0
C544 C 0.60264 0.93979 0.91152 0.0
N545 N 0.60706 0.92256 0.91863 0.0
C546 C 0.63518 0.94428 0.98099 0.0
C547 C 0.62327 0.9246 0.95188 0.0
C548 C 0.63017 0.96183 0.97601 0.0
C549 C 0.61412 0.95975 0.93993 0.0
H550 H 0.58933 0.93753 0.88567 0.0
H551 H 0.62603 0.9105 0.9582 0.0
C552 C 0.53993 0.81017 0.95819 0.0
N553 N 0.55434 0.83269 0.96618 0.0
C554 C 0.53666 0.79442 0.99583 0.0
C555 C 0.56284 0.82541 0.04931 0.0
C556 C 0.5657 0.84052 0.01061 0.0
C557 C 0.5484 0.80212 0.04167 0.0
H558 H 0.53148 0.8044 0.92212 0.0
H559 H 0.57743 0.85846 0.01546 0.0
C560 C 0.58888 0.90568 0.77985 0.0
N561 N 0.61647 0.93319 0.703 0.0
C562 C 0.57953 0.90615 0.7331 0.0
C563 C 0.6122 0.91957 0.78781 0.0
C564 C 0.59378 0.92005 0.69463 0.0
C565 C 0.62588 0.93325 0.74843 0.0
C566 C 0.52415 0.82773 0.82711 0.0
C567 C 0.52193 0.82365 0.77505 0.0
C568 C 0.50472 0.81865 0.85742 0.0
C569 C 0.50028 0.81084 0.75406 0.0
C570 C 0.48336 0.80599 0.835 0.0
N571 N 0.4816 0.8024 0.7842 0.0
C572 C 0.59339 0.83692 0.7847 0.0
C573 C 0.58178 0.85365 0.72134 0.0
C574 C 0.59657 0.82378 0.74855 0.0
N575 N 0.58583 0.85127 0.77073 0.0
C576 C 0.58451 0.84062 0.68396 0.0
C577 C 0.59151 0.82515 0.69778 0.0
H578 H 0.59583 0.83481 0.8243 0.0
H579 H 0.575 0.86446 0.71125 0.0
C580 C 0.50699 0.87397 0.86924 0.0
N581 N 0.52001 0.87155 0.83349 0.0
C582 C 0.48704 0.87373 0.85549 0.0
C583 C 0.49446 0.86897 0.76822 0.0
C584 C 0.51425 0.86923 0.78368 0.0
C585 C 0.48066 0.87115 0.8045 0.0
H586 H 0.51203 0.87599 0.90846 0.0
H587 H 0.52485 0.86726 0.75607 0.0
O588 O 0.59265 0.86842 0.89033 0.0
O589 O 0.556 0.88008 0.92509 0.0
O590 O 0.5751 0.89234 0.81809 0.0
O591 O 0.5452 0.84073 0.8482 0.0
H592 H 0.61103 0.86032 0.97012 0.0
H593 H 0.62415 0.88746 0.81905 0.0
H594 H 0.65126 0.86996 0.97647 0.0
H595 H 0.6642 0.89689 0.82823 0.0
H596 H 0.50557 0.84332 0.05196 0.0
H597 H 0.58064 0.90624 0.00125 0.0
H598 H 0.51652 0.84805 0.96152 0.0
H599 H 0.56857 0.90057 0.09085 0.0
H600 H 0.64738 0.94536 0.00881 0.0
H601 H 0.60982 0.97299 0.93545 0.0
H602 H 0.52558 0.77646 0.98893 0.0
H603 H 0.57228 0.83173 0.08424 0.0
H604 H 0.56149 0.89577 0.72642 0.0
H605 H 0.6197 0.91989 0.82403 0.0
H606 H 0.58678 0.92043 0.65813 0.0
H607 H 0.64397 0.94398 0.75404 0.0
H608 H 0.53673 0.83046 0.75099 0.0
H609 H 0.5061 0.82143 0.89778 0.0
H610 H 0.49833 0.80769 0.71378 0.0
H611 H 0.46818 0.79904 0.85798 0.0
H612 H 0.60174 0.81178 0.76038 0.0
H613 H 0.58021 0.84182 0.64509 0.0
H614 H 0.4767 0.87553 0.88423 0.0
H615 H 0.48989 0.86695 0.72856 0.0
Li616 Li 0.70461 0.55763 0.08414 0.0
Li617 Li 0.69024 0.58175 0.06105 0.0
Li618 Li 0.67184 0.54257 0.02961 0.0
Li619 Li 0.71041 0.57145 0.99962 0.0
C620 C 0.67151 0.55738 0.14917 0.0
N621 N 0.66592 0.56644 0.24831 0.0
C622 C 0.69011 0.57345 0.17702 0.0
C623 C 0.65007 0.54593 0.17171 0.0
C624 C 0.68693 0.57779 0.2271 0.0
C625 C 0.64759 0.55075 0.22189 0.0
C626 C 0.73608 0.61184 0.04936 0.0
C627 C 0.74375 0.64419 0.99787 0.0
N628 N 0.76345 0.65697 0.02364 0.0
C629 C 0.75641 0.62529 0.07528 0.0
C630 C 0.72968 0.62134 0.01028 0.0
C631 C 0.77 0.64807 0.06174 0.0
C632 C 0.74244 0.56207 0.13478 0.0
N633 N 0.71938 0.55076 0.13656 0.0
C634 C 0.71949 0.53248 0.21361 0.0
C635 C 0.70774 0.53596 0.17452 0.0
C636 C 0.74329 0.5444 0.21315 0.0
C637 C 0.75484 0.5591 0.17298 0.0
H638 H 0.75117 0.57364 0.10395 0.0
H639 H 0.68938 0.52711 0.17479 0.0
C640 C 0.66322 0.60218 0.076 0.0
N641 N 0.68369 0.60427 0.08653 0.0
C642 C 0.65685 0.61685 0.09817 0.0
C643 C 0.69229 0.63497 0.14317 0.0
C644 C 0.69806 0.62009 0.11992 0.0
C645 C 0.67195 0.63477 0.13039 0.0
H646 H 0.65145 0.58853 0.05173 0.0
H647 H 0.71365 0.62053 0.1304 0.0
C648 C 0.70382 0.52356 0.03879 0.0
N649 N 0.71384 0.49197 0.07839 0.0
C650 C 0.72455 0.52488 0.02769 0.0
C651 C 0.68813 0.50608 0.06975 0.0
C652 C 0.72932 0.50878 0.04819 0.0
C653 C 0.69352 0.49029 0.08943 0.0
C654 C 0.67285 0.56591 0.94176 0.0
C655 C 0.67266 0.54768 0.91677 0.0
C656 C 0.66454 0.57847 0.91724 0.0
C657 C 0.66418 0.54238 0.86751 0.0
C658 C 0.65625 0.57265 0.86792 0.0
N659 N 0.65623 0.55487 0.8443 0.0
C660 C 0.62424 0.5183 0.01805 0.0
C661 C 0.64265 0.49828 0.99107 0.0
C662 C 0.60308 0.49999 0.00469 0.0
N663 N 0.64342 0.51706 0.01124 0.0
C664 C 0.62185 0.47951 0.97778 0.0
C665 C 0.60179 0.48027 0.9847 0.0
H666 H 0.62544 0.53356 0.03377 0.0
H667 H 0.65818 0.4979 0.98513 0.0
C668 C 0.7522 0.58196 0.9597 0.0
N669 N 0.73238 0.58081 0.94582 0.0
C670 C 0.76862 0.5855 0.92351 0.0
C671 C 0.7446 0.58799 0.85949 0.0
C672 C 0.72866 0.58453 0.89705 0.0
C673 C 0.76457 0.58797 0.87263 0.0
H674 H 0.75491 0.57935 0.99884 0.0
H675 H 0.71316 0.58424 0.88679 0.0
O676 O 0.6741 0.55281 0.10003 0.0
O677 O 0.72269 0.58952 0.06251 0.0
O678 O 0.69908 0.53956 0.02044 0.0
O679 O 0.68053 0.57116 0.99044 0.0
H680 H 0.70682 0.58251 0.1602 0.0
H681 H 0.6355 0.53346 0.15058 0.0
H682 H 0.70118 0.59018 0.24908 0.0
H683 H 0.63109 0.54201 0.23982 0.0
H684 H 0.739 0.65176 0.96774 0.0
H685 H 0.76159 0.61818 0.10563 0.0
H686 H 0.71406 0.61129 0.98968 0.0
H687 H 0.78577 0.65868 0.08153 0.0
H688 H 0.7102 0.52104 0.24432 0.0
H689 H 0.77323 0.56852 0.17186 0.0
H690 H 0.63971 0.61319 0.09124 0.0
H691 H 0.70357 0.64556 0.17254 0.0
H692 H 0.73686 0.53818 0.00364 0.0
H693 H 0.67213 0.50499 0.07931 0.0
H694 H 0.74534 0.50965 0.0401 0.0
H695 H 0.6816 0.47679 0.11376 0.0
H696 H 0.67912 0.53783 0.93494 0.0
H697 H 0.66446 0.59254 0.93622 0.0
H698 H 0.66396 0.52835 0.8477 0.0
H699 H 0.64978 0.58225 0.84846 0.0
H700 H 0.58787 0.5011 0.01017 0.0
H701 H 0.62139 0.46456 0.96211 0.0
H702 H 0.78392 0.58546 0.93478 0.0
H703 H 0.7411 0.58999 0.82046 0.0
Li704 Li 0.14836 0.70534 0.24216 0.0
Li705 Li 0.10836 0.68918 0.21902 0.0
Li706 Li 0.13233 0.6753 0.1822 0.0
Li707 Li 0.13953 0.71221 0.15516 0.0
C708 C 0.12671 0.66999 0.30123 0.0
N709 N 0.13518 0.66281 0.39967 0.0
C710 C 0.11487 0.67282 0.34114 0.0
C711 C 0.14268 0.66329 0.3113 0.0
C712 C 0.11943 0.66915 0.39067 0.0
C713 C 0.14678 0.65982 0.36135 0.0
C714 C 0.12474 0.73665 0.21345 0.0
C715 C 0.10107 0.74747 0.16713 0.0
N716 N 0.10916 0.76656 0.19585 0.0
C717 C 0.13289 0.7564 0.24237 0.0
C718 C 0.10876 0.73214 0.17538 0.0
C719 C 0.12477 0.7713 0.23295 0.0
C720 C 0.19113 0.72522 0.29092 0.0
N721 N 0.16905 0.71973 0.29596 0.0
C722 C 0.17668 0.73799 0.37647 0.0
C723 C 0.16161 0.72585 0.33753 0.0
C724 C 0.19956 0.74411 0.3718 0.0
C725 C 0.20683 0.73752 0.32876 0.0
H726 H 0.1967 0.72064 0.25696 0.0
H727 H 0.14408 0.72174 0.33983 0.0
C728 C 0.06508 0.65735 0.25322 0.0
N729 N 0.07932 0.68014 0.24898 0.0
C730 C 0.04518 0.64882 0.28176 0.0
C731 C 0.05477 0.68734 0.30109 0.0
C732 C 0.07452 0.69515 0.27215 0.0
C733 C 0.04008 0.66392 0.30664 0.0
H734 H 0.06976 0.64576 0.23649 0.0
H735 H 0.08642 0.71313 0.27028 0.0
C736 C 0.17707 0.69924 0.15462 0.0
N737 N 0.20784 0.69001 0.10746 0.0
C738 C 0.18395 0.70646 0.10496 0.0
C739 C 0.18599 0.6875 0.18043 0.0
C740 C 0.19951 0.70161 0.08177 0.0
C741 C 0.20146 0.68292 0.15586 0.0
C742 C 0.10301 0.66638 0.10892 0.0
C743 C 0.11619 0.66922 0.06605 0.0
C744 C 0.08216 0.64643 0.1148 0.0
C745 C 0.10835 0.65195 0.02988 0.0
C746 C 0.07492 0.62953 0.07783 0.0
N747 N 0.08806 0.63261 0.0365 0.0
C748 C 0.11909 0.62919 0.19231 0.0
C749 C 0.14234 0.64611 0.12045 0.0
C750 C 0.11802 0.60854 0.18185 0.0
N751 N 0.13135 0.64756 0.16211 0.0
C752 C 0.14189 0.62587 0.10884 0.0
C753 C 0.12977 0.60689 0.14002 0.0
H754 H 0.11022 0.63062 0.22479 0.0
H755 H 0.15153 0.66063 0.09615 0.0
C756 C 0.17051 0.75461 0.11966 0.0
N757 N 0.15159 0.73531 0.1046 0.0
C758 C 0.1838 0.77131 0.08447 0.0
C759 C 0.15734 0.74845 0.01907 0.0
C760 C 0.14435 0.73226 0.05576 0.0
C761 C 0.17767 0.76789 0.03327 0.0
H762 H 0.17592 0.75645 0.1587 0.0
H763 H 0.12915 0.71685 0.0448 0.0
O764 O 0.12281 0.6739 0.25254 0.0
O765 O 0.13275 0.72207 0.2219 0.0
O766 O 0.16201 0.70401 0.17807 0.0
O767 O 0.1106 0.68297 0.14511 0.0
H768 H 0.10249 0.67806 0.33408 0.0
H769 H 0.15184 0.66085 0.28079 0.0
H770 H 0.1105 0.6714 0.42195 0.0
H771 H 0.15919 0.65474 0.36974 0.0
H772 H 0.08868 0.74419 0.13788 0.0
H773 H 0.14536 0.76015 0.27179 0.0
H774 H 0.10233 0.71698 0.15248 0.0
H775 H 0.1309 0.78664 0.25509 0.0
H776 H 0.17074 0.74313 0.40914 0.0
H777 H 0.22449 0.74229 0.3241 0.0
H778 H 0.03428 0.63064 0.28589 0.0
H779 H 0.05137 0.69939 0.32036 0.0
H780 H 0.1773 0.7156 0.08438 0.0
H781 H 0.1809 0.68184 0.21887 0.0
H782 H 0.20493 0.70704 0.04332 0.0
H783 H 0.20838 0.67372 0.17526 0.0
H784 H 0.13259 0.68433 0.06137 0.0
H785 H 0.07166 0.64399 0.14751 0.0
H786 H 0.11849 0.65384 0.99676 0.0
H787 H 0.05885 0.61397 0.082 0.0
H788 H 0.10839 0.5941 0.20643 0.0
H789 H 0.15099 0.62503 0.07605 0.0
H790 H 0.1994 0.78613 0.09656 0.0
H791 H 0.15217 0.74537 0.97978 0.0
Li792 Li 0.43814 0.14726 0.40398 0.0
Li793 Li 0.41611 0.1081 0.38346 0.0
Li794 Li 0.45547 0.13137 0.35049 0.0
Li795 Li 0.42417 0.13782 0.32014 0.0
C796 C 0.44148 0.11688 0.47067 0.0
N797 N 0.43317 0.10281 0.57026 0.0
C798 C 0.42406 0.1175 0.4975 0.0
C799 C 0.45462 0.10907 0.49445 0.0
C800 C 0.42015 0.11033 0.54783 0.0
C801 C 0.45016 0.10202 0.54484 0.0
C802 C 0.38318 0.12027 0.37153 0.0
C803 C 0.35092 0.09128 0.32604 0.0
N804 N 0.33745 0.09837 0.34803 0.0
C805 C 0.369 0.12719 0.39386 0.0
C806 C 0.37406 0.1021 0.33748 0.0
C807 C 0.34594 0.11594 0.38141 0.0
C808 C 0.43039 0.17746 0.46041 0.0
N809 N 0.4445 0.16879 0.4561 0.0
C810 C 0.46613 0.19017 0.5275 0.0
C811 C 0.46223 0.17487 0.48832 0.0
C812 C 0.45156 0.19904 0.53312 0.0
C813 C 0.43363 0.19273 0.49902 0.0
H814 H 0.41655 0.17236 0.43397 0.0
H815 H 0.47317 0.16769 0.48379 0.0
C816 C 0.40419 0.06366 0.41044 0.0
N817 N 0.39656 0.07872 0.41224 0.0
C818 C 0.39348 0.04364 0.43878 0.0
C819 C 0.36669 0.05452 0.4688 0.0
C820 C 0.37808 0.07447 0.44043 0.0
C821 C 0.37473 0.03913 0.46902 0.0
H822 H 0.4193 0.06777 0.38889 0.0
H823 H 0.37283 0.08702 0.44307 0.0
C824 C 0.46632 0.18254 0.35237 0.0
N825 N 0.48743 0.22769 0.38039 0.0
C826 C 0.45576 0.19534 0.34323 0.0
C827 C 0.48763 0.19271 0.37561 0.0
C828 C 0.46672 0.21815 0.35768 0.0
C829 C 0.49801 0.21556 0.38956 0.0
C830 C 0.42769 0.1046 0.26322 0.0
C831 C 0.44653 0.11864 0.23341 0.0
C832 C 0.40951 0.0852 0.24198 0.0
C833 C 0.44679 0.11317 0.1826 0.0
C834 C 0.41041 0.08029 0.19101 0.0
N835 N 0.42887 0.09427 0.16261 0.0
C836 C 0.48358 0.112 0.34575 0.0
C837 C 0.50027 0.14933 0.31239 0.0
C838 C 0.50332 0.11117 0.33562 0.0
N839 N 0.48247 0.13091 0.33415 0.0
C840 C 0.52036 0.14926 0.30176 0.0
C841 C 0.52199 0.13002 0.3136 0.0
H842 H 0.46914 0.09765 0.36315 0.0
H843 H 0.49885 0.16408 0.30333 0.0
C844 C 0.39583 0.14985 0.25899 0.0
N845 N 0.41568 0.14952 0.26239 0.0
C846 C 0.39277 0.16242 0.22102 0.0
C847 C 0.43036 0.1738 0.18996 0.0
C848 C 0.43272 0.16106 0.22846 0.0
C849 C 0.41036 0.17487 0.18661 0.0
H850 H 0.38271 0.14139 0.28687 0.0
H851 H 0.44869 0.16143 0.23293 0.0
O852 O 0.44548 0.1235 0.4211 0.0
O853 O 0.40571 0.131 0.38409 0.0
O854 O 0.45555 0.16002 0.33988 0.0
O855 O 0.42708 0.10958 0.31312 0.0
H856 H 0.41357 0.12331 0.47964 0.0
H857 H 0.46809 0.10839 0.47409 0.0
H858 H 0.40672 0.11069 0.569 0.0
H859 H 0.46019 0.09591 0.56372 0.0
H860 H 0.34366 0.07722 0.29971 0.0
H861 H 0.37573 0.1411 0.4206 0.0
H862 H 0.38465 0.09635 0.32018 0.0
H863 H 0.33478 0.12115 0.39835 0.0
H864 H 0.48005 0.19477 0.55355 0.0
H865 H 0.42213 0.19935 0.5027 0.0
H866 H 0.40018 0.03215 0.43843 0.0
H867 H 0.35236 0.05159 0.49209 0.0
H868 H 0.43916 0.18768 0.32579 0.0
H869 H 0.49589 0.18296 0.38354 0.0
H870 H 0.45871 0.22823 0.35105 0.0
H871 H 0.51443 0.22362 0.40789 0.0
H872 H 0.46073 0.13372 0.24917 0.0
H873 H 0.39489 0.07399 0.26465 0.0
H874 H 0.46123 0.12396 0.15905 0.0
H875 H 0.39645 0.06535 0.17405 0.0
H876 H 0.50412 0.09608 0.34511 0.0
H877 H 0.53451 0.16403 0.28466 0.0
H878 H 0.37724 0.16317 0.21975 0.0
H879 H 0.44437 0.18349 0.16433 0.0
Li880 Li 0.29961 0.44427 0.57488 0.0
Li881 Li 0.31206 0.41676 0.54842 0.0
Li882 Li 0.32981 0.45687 0.51456 0.0
Li883 Li 0.29214 0.42944 0.48998 0.0
C884 C 0.33331 0.45256 0.63481 0.0
N885 N 0.33856 0.46409 0.73613 0.0
C886 C 0.33186 0.43699 0.67124 0.0
C887 C 0.33767 0.47407 0.64993 0.0
C888 C 0.33453 0.44313 0.72226 0.0
C889 C 0.34018 0.47955 0.70133 0.0
C890 C 0.25944 0.39676 0.54254 0.0
C891 C 0.23162 0.36049 0.5085 0.0
N892 N 0.21543 0.36654 0.51345 0.0
C893 C 0.24253 0.40259 0.54765 0.0
C894 C 0.25399 0.37554 0.52304 0.0
C895 C 0.22037 0.38709 0.53258 0.0
C896 C 0.2819 0.4682 0.62962 0.0
N897 N 0.28594 0.45053 0.63035 0.0
C898 C 0.26626 0.43729 0.70876 0.0
C899 C 0.27851 0.43524 0.66885 0.0
C900 C 0.26158 0.45514 0.70855 0.0
C901 C 0.26972 0.47092 0.6689 0.0
H902 H 0.28747 0.47972 0.59786 0.0
H903 H 0.28159 0.42111 0.66776 0.0
C904 C 0.3377 0.39487 0.56499 0.0
N905 N 0.31753 0.3937 0.57421 0.0
C906 C 0.34301 0.37962 0.5882 0.0
C907 C 0.30717 0.36285 0.63159 0.0
C908 C 0.30244 0.37828 0.6072 0.0
C909 C 0.32723 0.36219 0.62044 0.0
H910 H 0.35003 0.40819 0.54087 0.0
H911 H 0.28714 0.37868 0.61645 0.0
C912 C 0.31269 0.48163 0.489 0.0
N913 N 0.33378 0.52354 0.44196 0.0
C914 C 0.31249 0.48308 0.43627 0.0
C915 C 0.32362 0.50151 0.51776 0.0
C916 C 0.32323 0.50442 0.41323 0.0
C917 C 0.33418 0.52253 0.49328 0.0
C918 C 0.31529 0.41487 0.43415 0.0
C919 C 0.31553 0.42426 0.38694 0.0
C920 C 0.30999 0.39222 0.43726 0.0
C921 C 0.31046 0.4108 0.34363 0.0
C922 C 0.30504 0.37933 0.39307 0.0
N923 N 0.30537 0.38881 0.34756 0.0
C924 C 0.3733 0.49703 0.52649 0.0
C925 C 0.36199 0.48533 0.44189 0.0
C926 C 0.39309 0.5163 0.50984 0.0
N927 N 0.35808 0.48219 0.49247 0.0
C928 C 0.38138 0.5044 0.42363 0.0
C929 C 0.39705 0.5202 0.45781 0.0
H930 H 0.36995 0.4941 0.56649 0.0
H931 H 0.34974 0.47334 0.41565 0.0
C932 C 0.25933 0.43389 0.43553 0.0
N933 N 0.26868 0.42028 0.4385 0.0
C934 C 0.24282 0.42989 0.39933 0.0
C935 C 0.24465 0.39707 0.37112 0.0
C936 C 0.26113 0.40165 0.40821 0.0
C937 C 0.23561 0.41155 0.36613 0.0
H938 H 0.26483 0.44805 0.46117 0.0
H939 H 0.26787 0.39036 0.41256 0.0
O940 O 0.33017 0.44666 0.58473 0.0
O941 O 0.28135 0.41201 0.55534 0.0
O942 O 0.30265 0.46086 0.51225 0.0
O943 O 0.32053 0.42783 0.47699 0.0
H944 H 0.32862 0.42032 0.66035 0.0
H945 H 0.33869 0.48628 0.62237 0.0
H946 H 0.33335 0.43121 0.75085 0.0
H947 H 0.34333 0.49606 0.71355 0.0
H948 H 0.22716 0.34405 0.49303 0.0
H949 H 0.24656 0.41904 0.56247 0.0
H950 H 0.26697 0.37087 0.51861 0.0
H951 H 0.20713 0.39141 0.53592 0.0
H952 H 0.25995 0.42476 0.73874 0.0
H953 H 0.26606 0.4847 0.66764 0.0
H954 H 0.35992 0.38241 0.58203 0.0
H955 H 0.29534 0.35262 0.66045 0.0
H956 H 0.30446 0.46791 0.41328 0.0
H957 H 0.32417 0.50076 0.55852 0.0
H958 H 0.32331 0.50578 0.37247 0.0
H959 H 0.34279 0.53804 0.51509 0.0
H960 H 0.31915 0.44158 0.38373 0.0
H961 H 0.30961 0.3846 0.47337 0.0
H962 H 0.31044 0.41781 0.30692 0.0
H963 H 0.30088 0.36178 0.39496 0.0
H964 H 0.40493 0.52824 0.53709 0.0
H965 H 0.384 0.50699 0.38322 0.0
H966 H 0.23597 0.44123 0.39671 0.0
H967 H 0.23918 0.38258 0.34632 0.0
Li968 Li 0.89377 0.31112 0.72269 0.0
Li969 Li 0.85418 0.29541 0.74911 0.0
Li970 Li 0.86284 0.29026 0.66118 0.0
Li971 Li 0.87051 0.3274 0.69029 0.0
C972 C 0.878 0.26483 0.71217 0.0
N973 N 0.89511 0.23694 0.6861 0.0
C974 C 0.86941 0.24355 0.7349 0.0
C975 C 0.89528 0.27194 0.67615 0.0
C976 C 0.8783 0.22969 0.72123 0.0
C977 C 0.90371 0.25758 0.66349 0.0
C978 C 0.88023 0.33513 0.80641 0.0
C979 C 0.86801 0.35475 0.86305 0.0
N980 N 0.88106 0.35339 0.90032 0.0
C981 C 0.89373 0.33418 0.84513 0.0
C982 C 0.86745 0.34573 0.81526 0.0
C983 C 0.89384 0.34341 0.8924 0.0
C984 C 0.9407 0.33985 0.7404 0.0
N985 N 0.92275 0.3189 0.75032 0.0
C986 C 0.94393 0.31264 0.81432 0.0
C987 C 0.92412 0.30512 0.78576 0.0
C988 C 0.96237 0.33451 0.80621 0.0
C989 C 0.96085 0.34801 0.76798 0.0
H990 H 0.93893 0.35064 0.71288 0.0
H991 H 0.90939 0.28882 0.79399 0.0
C992 C 0.81108 0.26863 0.79364 0.0
N993 N 0.83375 0.28067 0.80334 0.0
C994 C 0.7958 0.2562 0.83203 0.0
C995 C 0.8275 0.26859 0.88957 0.0
C996 C 0.84217 0.28074 0.85003 0.0
C997 C 0.8041 0.25606 0.88041 0.0
H998 H 0.80488 0.26814 0.75578 0.0
H999 H 0.86029 0.28962 0.8562 0.0
C1000 C 0.89365 0.32791 0.60254 0.0
N1001 N 0.89776 0.34349 0.50448 0.0
C1002 C 0.8743 0.32309 0.57465 0.0
C1003 C 0.9151 0.34066 0.58061 0.0
C1004 C 0.87671 0.3311 0.52513 0.0
C1005 C 0.91683 0.3484 0.53097 0.0
C1006 C 0.82323 0.30286 0.6793 0.0
C1007 C 0.81146 0.29739 0.63338 0.0
C1008 C 0.81688 0.31246 0.71818 0.0
C1009 C 0.7938 0.30206 0.62684 0.0
C1010 C 0.79914 0.31688 0.71017 0.0
N1011 N 0.78809 0.31166 0.66502 0.0
C1012 C 0.82764 0.25372 0.61283 0.0
C1013 C 0.86181 0.26815 0.56582 0.0
C1014 C 0.81551 0.23815 0.5747 0.0
N1015 N 0.85023 0.26858 0.60741 0.0
C1016 C 0.85031 0.25264 0.52672 0.0
C1017 C 0.8268 0.23772 0.53082 0.0
H1018 H 0.81891 0.25438 0.64642 0.0
H1019 H 0.87978 0.28012 0.56248 0.0
C1020 C 0.88595 0.37395 0.70092 0.0
N1021 N 0.87106 0.35519 0.67477 0.0
C1022 C 0.88496 0.39394 0.69759 0.0
C1023 C 0.85496 0.37579 0.63676 0.0
C1024 C 0.85663 0.3562 0.64082 0.0
C1025 C 0.86754 0.3945 0.66936 0.0
H1026 H 0.89838 0.37326 0.72525 0.0
H1027 H 0.84607 0.34171 0.61735 0.0
O1028 O 0.86933 0.27847 0.72509 0.0
O1029 O 0.88014 0.3264 0.75967 0.0
O1030 O 0.89175 0.32022 0.65107 0.0
O1031 O 0.84082 0.29874 0.68608 0.0
H1032 H 0.856 0.23781 0.76282 0.0
H1033 H 0.90216 0.28833 0.65813 0.0
H1034 H 0.87182 0.21318 0.73852 0.0
H1035 H 0.91708 0.26285 0.63568 0.0
H1036 H 0.85815 0.36295 0.87041 0.0
H1037 H 0.9039 0.32626 0.83897 0.0
H1038 H 0.85741 0.34723 0.78549 0.0
H1039 H 0.90411 0.34265 0.92275 0.0
H1040 H 0.94453 0.30193 0.84389 0.0
H1041 H 0.97476 0.36504 0.76113 0.0
H1042 H 0.7778 0.24634 0.82387 0.0
H1043 H 0.83434 0.26841 0.92646 0.0
H1044 H 0.85759 0.31318 0.59096 0.0
H1045 H 0.93026 0.34453 0.60177 0.0
H1046 H 0.86186 0.32745 0.5031 0.0
H1047 H 0.93333 0.35829 0.5135 0.0
H1048 H 0.81603 0.28983 0.6029 0.0
H1049 H 0.82542 0.31627 0.75428 0.0
H1050 H 0.78467 0.29807 0.59139 0.0
H1051 H 0.79412 0.32439 0.7399 0.0
H1052 H 0.7974 0.22683 0.57893 0.0
H1053 H 0.85945 0.25268 0.49316 0.0
H1054 H 0.89807 0.4085 0.71705 0.0
H1055 H 0.8437 0.37593 0.60812 0.0
C1056 C 0.1805 0.3978 0.29943 0.0
C1057 C 0.18888 0.40777 0.25136 0.0
C1058 C 0.22771 0.41856 0.27716 0.0
C1059 C 0.2193 0.40835 0.32504 0.0
N1060 N 0.18776 0.38491 0.37941 0.0
N1061 N 0.21942 0.42407 0.1907 0.0
C1062 C 0.19566 0.39688 0.33538 0.0
C1063 C 0.21219 0.41697 0.23904 0.0
N1064 N 0.15819 0.38991 0.31115 0.0
N1065 N 0.25064 0.43061 0.26893 0.0
H1066 H 0.20871 0.42382 0.16215 0.0
H1067 H 0.23559 0.42864 0.17765 0.0
H1068 H 0.26251 0.43153 0.29522 0.0
H1069 H 0.25809 0.44084 0.23742 0.0
H1070 H 0.15145 0.38481 0.34723 0.0
H1071 H 0.14651 0.38959 0.28509 0.0
H1072 H 0.17062 0.37436 0.38749 0.0
H1073 H 0.19848 0.38415 0.40663 0.0
C1074 C 0.80477 0.23045 0.45017 0.0
C1075 C 0.81347 0.22231 0.48858 0.0
C1076 C 0.79377 0.18419 0.45065 0.0
C1077 C 0.78332 0.19182 0.41539 0.0
N1078 N 0.77739 0.22156 0.38261 0.0
N1079 N 0.81578 0.19158 0.5279 0.0
C1080 C 0.78855 0.21484 0.4152 0.0
C1081 C 0.80794 0.19922 0.48933 0.0
N1082 N 0.81219 0.25319 0.44698 0.0
N1083 N 0.79036 0.16266 0.44656 0.0
H1084 H 0.827 0.20232 0.55543 0.0
H1085 H 0.81035 0.17453 0.53435 0.0
H1086 H 0.7797 0.15112 0.41938 0.0
H1087 H 0.79919 0.15663 0.46756 0.0
H1088 H 0.80856 0.26068 0.41682 0.0
H1089 H 0.82346 0.26503 0.47288 0.0
H1090 H 0.77823 0.23724 0.38444 0.0
H1091 H 0.76603 0.2109 0.35518 0.0
C1092 C 0.57017 0.77197 0.61658 0.0
C1093 C 0.58991 0.77741 0.58792 0.0
C1094 C 0.61066 0.8145 0.63022 0.0
C1095 C 0.59118 0.80869 0.66018 0.0
N1096 N 0.55335 0.78112 0.68719 0.0
N1097 N 0.62968 0.80215 0.57097 0.0
C1098 C 0.57121 0.78716 0.6549 0.0
C1099 C 0.61041 0.7982 0.59586 0.0
N1100 N 0.55022 0.7525 0.60607 0.0
N1101 N 0.62916 0.83582 0.63388 0.0
H1102 H 0.62992 0.79081 0.54473 0.0
H1103 H 0.64575 0.81583 0.57852 0.0
H1104 H 0.63012 0.84787 0.6597 0.0
H1105 H 0.64303 0.84215 0.60955 0.0
H1106 H 0.53456 0.74882 0.6208 0.0
H1107 H 0.549 0.7404 0.58007 0.0
H1108 H 0.53942 0.7648 0.6896 0.0
H1109 H 0.55299 0.7921 0.71425 0.0
C1110 C 0.79064 0.56855 0.77038 0.0
C1111 C 0.81081 0.58921 0.75917 0.0
C1112 C 0.79963 0.60954 0.819 0.0
C1113 C 0.78037 0.58859 0.83289 0.0
N1114 N 0.75885 0.54773 0.82729 0.0
N1115 N 0.83609 0.6289 0.77591 0.0
C1116 C 0.77623 0.56797 0.81005 0.0
C1117 C 0.81574 0.60962 0.78431 0.0
N1118 N 0.78493 0.54959 0.74205 0.0
N1119 N 0.80222 0.62936 0.83826 0.0
H1120 H 0.84803 0.62959 0.75011 0.0
H1121 H 0.84188 0.64377 0.79675 0.0
H1122 H 0.79099 0.62983 0.86447 0.0
H1123 H 0.81451 0.64539 0.82586 0.0
H1124 H 0.76925 0.53475 0.74423 0.0
H1125 H 0.79522 0.54915 0.71332 0.0
H1126 H 0.7566 0.532 0.81665 0.0
H1127 H 0.7475 0.54657 0.85524 0.0
C1128 C 0.20316 0.81112 0.9258 0.0
C1129 C 0.22468 0.81266 0.92048 0.0
C1130 C 0.21451 0.78367 0.98599 0.0
C1131 C 0.19375 0.78344 0.99433 0.0
N1132 N 0.16994 0.79972 0.97854 0.0
N1133 N 0.25284 0.80435 0.95323 0.0
C1134 C 0.18854 0.79801 0.96607 0.0
C1135 C 0.23096 0.80014 0.95302 0.0
N1136 N 0.19633 0.82144 0.89128 0.0
N1137 N 0.21812 0.76751 0.00779 0.0
H1138 H 0.26549 0.81655 0.9301 0.0
H1139 H 0.25897 0.79741 0.97976 0.0
H1140 H 0.20631 0.75474 0.03126 0.0
H1141 H 0.23186 0.76539 0.99869 0.0
H1142 H 0.1799 0.81887 0.88984 0.0
H1143 H 0.20659 0.83126 0.86149 0.0
H1144 H 0.16654 0.81175 0.96287 0.0
H1145 H 0.15889 0.79034 0.00772 0.0
C1146 C 0.39593 0.18202 0.10471 0.0
C1147 C 0.40876 0.19059 0.14982 0.0
C1148 C 0.42261 0.22966 0.12098 0.0
C1149 C 0.40915 0.22111 0.07669 0.0
N1150 N 0.37987 0.18963 0.0302 0.0
N1151 N 0.43037 0.22209 0.20611 0.0
C1152 C 0.3948 0.19739 0.06979 0.0
C1153 C 0.42089 0.2143 0.15954 0.0
N1154 N 0.38558 0.15931 0.09437 0.0
N1155 N 0.43775 0.25239 0.12526 0.0
H1156 H 0.42951 0.21137 0.23529 0.0
H1157 H 0.43734 0.23895 0.21739 0.0
H1158 H 0.43925 0.26428 0.09836 0.0
H1159 H 0.44999 0.25933 0.15361 0.0
H1160 H 0.37811 0.15225 0.05974 0.0
H1161 H 0.38581 0.14755 0.11935 0.0
H1162 H 0.36735 0.17271 0.02569 0.0
H1163 H 0.37875 0.20046 0.00388 0.0
C1164 C 0.12043 0.55334 0.07271 0.0
C1165 C 0.13059 0.54516 0.10748 0.0
C1166 C 0.14166 0.57833 0.16165 0.0
C1167 C 0.12971 0.58541 0.12925 0.0
N1168 N 0.10416 0.57753 0.05907 0.0
N1169 N 0.14695 0.54738 0.1897 0.0
C1170 C 0.11804 0.57228 0.08621 0.0
C1171 C 0.14007 0.55694 0.15337 0.0
N1172 N 0.11384 0.54357 0.02602 0.0
N1173 N 0.15524 0.59243 0.19916 0.0
H1174 H 0.14586 0.53162 0.18523 0.0
H1175 H 0.15176 0.55404 0.22598 0.0
H1176 H 0.15708 0.60836 0.20617 0.0
H1177 H 0.16625 0.58923 0.22035 0.0
H1178 H 0.10862 0.55033 0.99713 0.0
H1179 H 0.11549 0.52979 0.01452 0.0
H1180 H 0.09338 0.56719 0.03057 0.0
H1181 H 0.10186 0.59119 0.06803 0.0
C1182 C 0.57717 0.12932 0.33405 0.0
C1183 C 0.58418 0.12973 0.28334 0.0
C1184 C 0.54924 0.12789 0.25267 0.0
C1185 C 0.54333 0.1297 0.30322 0.0
N1186 N 0.55331 0.13589 0.39165 0.0
N1187 N 0.57898 0.13324 0.19421 0.0
C1188 C 0.55775 0.13144 0.34388 0.0
C1189 C 0.57078 0.13006 0.24253 0.0
N1190 N 0.58869 0.12622 0.37275 0.0
N1191 N 0.53399 0.12341 0.21452 0.0
H1192 H 0.59472 0.13499 0.18521 0.0
H1193 H 0.57112 0.13612 0.16359 0.0
H1194 H 0.51803 0.12168 0.22048 0.0
H1195 H 0.53633 0.11946 0.17778 0.0
H1196 H 0.58297 0.1233 0.41001 0.0
H1197 H 0.60299 0.12459 0.36702 0.0
H1198 H 0.56453 0.13982 0.42179 0.0
H1199 H 0.53927 0.13759 0.40038 0.0
C1200 C 0.43513 0.53971 0.41518 0.0
C1201 C 0.41708 0.54112 0.43838 0.0
C1202 C 0.43534 0.58129 0.41444 0.0
C1203 C 0.45526 0.58068 0.40098 0.0
N1204 N 0.46265 0.55606 0.34879 0.0
N1205 N 0.39903 0.56313 0.45761 0.0
C1206 C 0.45247 0.55901 0.39015 0.0
C1207 C 0.41679 0.56186 0.43696 0.0
N1208 N 0.43583 0.52 0.41672 0.0
N1209 N 0.43316 0.59936 0.39971 0.0
H1210 H 0.38467 0.54906 0.47233 0.0
H1211 H 0.3992 0.57839 0.46291 0.0
H1212 H 0.44541 0.61233 0.37725 0.0
H1213 H 0.41831 0.60009 0.40402 0.0
H1214 H 0.44979 0.51901 0.40366 0.0
H1215 H 0.42341 0.50535 0.43462 0.0
H1216 H 0.45986 0.54019 0.33731 0.0
H1217 H 0.46999 0.56861 0.32108 0.0
C1218 C 0.88255 0.4563 0.6715 0.0
C1219 C 0.86656 0.45561 0.63609 0.0
C1220 C 0.84509 0.41415 0.64372 0.0
C1221 C 0.86383 0.41488 0.66928 0.0
N1222 N 0.88671 0.4358 0.74071 0.0
N1223 N 0.83127 0.43371 0.59074 0.0
C1224 C 0.87911 0.43573 0.693 0.0
C1225 C 0.84733 0.43447 0.62301 0.0
N1226 N 0.90113 0.47646 0.68457 0.0
N1227 N 0.82432 0.39492 0.64615 0.0
H1228 H 0.83166 0.44824 0.57674 0.0
H1229 H 0.81833 0.4186 0.57559 0.0
H1230 H 0.82161 0.38106 0.66825 0.0
H1231 H 0.80947 0.39388 0.6324 0.0
H1232 H 0.91415 0.47731 0.70705 0.0
H1233 H 0.90435 0.49201 0.66978 0.0
H1234 H 0.89643 0.45065 0.76137 0.0
H1235 H 0.87998 0.42094 0.76218 0.0
C1236 C 0.41789 0.8501 0.78226 0.0
C1237 C 0.41885 0.87024 0.76443 0.0
C1238 C 0.46028 0.89113 0.77397 0.0
C1239 C 0.45944 0.87072 0.78929 0.0
N1240 N 0.43832 0.83016 0.80111 0.0
N1241 N 0.44066 0.90898 0.73575 0.0
C1242 C 0.43847 0.84999 0.79138 0.0
C1243 C 0.43999 0.8905 0.75806 0.0
N1244 N 0.39729 0.83129 0.79185 0.0
N1245 N 0.4804 0.9112 0.77606 0.0
H1246 H 0.42609 0.90926 0.72447 0.0
H1247 H 0.45561 0.92342 0.72489 0.0
H1248 H 0.49572 0.91224 0.78625 0.0
H1249 H 0.48176 0.92702 0.77109 0.0
H1250 H 0.39536 0.8169 0.81023 0.0
H1251 H 0.38186 0.83058 0.78448 0.0
H1252 H 0.42394 0.81417 0.79783 0.0
H1253 H 0.45303 0.82952 0.80892 0.0
C1254 C 0.55526 0.43274 0.90681 0.0
C1255 C 0.53872 0.42056 0.94457 0.0
C1256 C 0.56375 0.44722 0.00912 0.0
C1257 C 0.57953 0.46033 0.97082 0.0
N1258 N 0.58803 0.4684 0.88214 0.0
N1259 N 0.52496 0.4189 0.02939 0.0
C1260 C 0.57457 0.45395 0.91927 0.0
C1261 C 0.54228 0.42865 0.99509 0.0
N1262 N 0.55309 0.4236 0.85969 0.0
N1263 N 0.56961 0.45184 0.05895 0.0
H1264 H 0.50892 0.40543 0.02027 0.0
H1265 H 0.52582 0.42554 0.06535 0.0
H1266 H 0.58528 0.46509 0.07093 0.0
H1267 H 0.55976 0.44131 0.08832 0.0
H1268 H 0.56586 0.43055 0.83249 0.0
H1269 H 0.53936 0.40797 0.84908 0.0
H1270 H 0.58394 0.46569 0.84386 0.0
H1271 H 0.60217 0.48422 0.88983 0.0
C1272 C 0.2228 0.44217 0.74326 0.0
C1273 C 0.24668 0.45618 0.74804 0.0
C1274 C 0.24176 0.47121 0.82835 0.0
C1275 C 0.2181 0.45554 0.82594 0.0
N1276 N 0.18618 0.42402 0.78503 0.0
N1277 N 0.27941 0.4824 0.79648 0.0
C1278 C 0.20861 0.44049 0.78434 0.0
C1279 C 0.25633 0.47035 0.79091 0.0
N1280 N 0.21371 0.4308 0.69901 0.0
N1281 N 0.25015 0.48718 0.86589 0.0
H1282 H 0.29058 0.48254 0.76923 0.0
H1283 H 0.28752 0.49105 0.82939 0.0
H1284 H 0.23995 0.4881 0.89419 0.0
H1285 H 0.26683 0.50056 0.86695 0.0
H1286 H 0.19639 0.42233 0.69107 0.0
H1287 H 0.22359 0.43134 0.66827 0.0
H1288 H 0.17888 0.41088 0.75876 0.0
H1289 H 0.17512 0.42236 0.81418 0.0
C1290 C 0.76607 0.20396 0.95941 0.0
C1291 C 0.75984 0.21394 0.99878 0.0
C1292 C 0.78056 0.2511 0.95749 0.0
C1293 C 0.78844 0.2415 0.92064 0.0
N1294 N 0.79126 0.2097 0.88908 0.0
N1295 N 0.76255 0.24698 0.03914 0.0
C1296 C 0.78184 0.21814 0.92218 0.0
C1297 C 0.76741 0.23752 0.99884 0.0
N1298 N 0.75657 0.18087 0.95719 0.0
N1299 N 0.78528 0.27304 0.95224 0.0
H1300 H 0.75246 0.23742 0.06941 0.0
H1301 H 0.76965 0.2644 0.04436 0.0
H1302 H 0.79518 0.28355 0.92281 0.0
H1303 H 0.7781 0.28038 0.9747 0.0
H1304 H 0.75842 0.17234 0.9265 0.0
H1305 H 0.74531 0.16993 0.98441 0.0
H1306 H 0.78923 0.19352 0.89195 0.0
H1307 H 0.80258 0.21945 0.86062 0.0
C1308 C 0.53197 0.76663 0.16162 0.0
C1309 C 0.54681 0.75764 0.1587 0.0
C1310 C 0.56219 0.77727 0.07832 0.0
C1311 C 0.54693 0.78578 0.08053 0.0
N1312 N 0.51503 0.78621 0.11895 0.0
N1313 N 0.57336 0.75105 0.11161 0.0
C1314 C 0.53108 0.77971 0.12062 0.0
C1315 C 0.56107 0.76191 0.1161 0.0
N1316 N 0.51923 0.76314 0.20422 0.0
N1317 N 0.57829 0.78457 0.04106 0.0
H1318 H 0.57356 0.74024 0.13932 0.0
H1319 H 0.58208 0.75137 0.079 0.0
H1320 H 0.57922 0.79527 0.01175 0.0
H1321 H 0.59168 0.78127 0.04069 0.0
H1322 H 0.51003 0.77129 0.21148 0.0
H1323 H 0.51881 0.7529 0.23407 0.0
H1324 H 0.50152 0.7805 0.14418 0.0
H1325 H 0.51423 0.79617 0.0899 0.0
C1326 C 0.77232 0.55414 0.34102 0.0
C1327 C 0.78467 0.54263 0.33369 0.0
C1328 C 0.76667 0.52902 0.25095 0.0
C1329 C 0.75633 0.54258 0.25598 0.0
N1330 N 0.7508 0.56989 0.30285 0.0
N1331 N 0.79526 0.52042 0.28129 0.0
C1332 C 0.7594 0.55552 0.30041 0.0
C1333 C 0.78222 0.5303 0.28861 0.0
N1334 N 0.77279 0.56354 0.38706 0.0
N1335 N 0.76128 0.51465 0.21058 0.0
H1336 H 0.80627 0.52041 0.30878 0.0
H1337 H 0.79626 0.51341 0.24706 0.0
H1338 H 0.75006 0.51346 0.1822 0.0
H1339 H 0.76643 0.50265 0.20705 0.0
H1340 H 0.76221 0.56994 0.39665 0.0
H1341 H 0.78252 0.56336 0.41736 0.0
H1342 H 0.75473 0.58178 0.3315 0.0
H1343 H 0.74091 0.57115 0.27425 0.0
C1344 C 0.22601 0.78269 0.40683 0.0
C1345 C 0.21617 0.75877 0.41053 0.0
C1346 C 0.23517 0.76275 0.49178 0.0
C1347 C 0.24527 0.78668 0.4877 0.0
N1348 N 0.25342 0.81991 0.43909 0.0
N1349 N 0.21353 0.72587 0.45134 0.0
C1350 C 0.24168 0.7968 0.44438 0.0
C1351 C 0.22145 0.74874 0.45147 0.0
N1352 N 0.21977 0.79182 0.36817 0.0
N1353 N 0.23825 0.75347 0.53485 0.0
H1354 H 0.2029 0.71506 0.42311 0.0
H1355 H 0.21856 0.7177 0.47716 0.0
H1356 H 0.24905 0.76326 0.56403 0.0
H1357 H 0.22935 0.73621 0.5431 0.0
H1358 H 0.22405 0.80879 0.36643 0.0
H1359 H 0.2091 0.78214 0.33874 0.0
H1360 H 0.2536 0.82832 0.40609 0.0
H1361 H 0.26439 0.83086 0.46668 0.0
C1362 C 0.4715 0.25222 0.6132 0.0
C1363 C 0.456 0.24314 0.6541 0.0
C1364 C 0.44057 0.20478 0.6196 0.0
C1365 C 0.45427 0.21416 0.57602 0.0
N1366 N 0.4814 0.24667 0.52827 0.0
N1367 N 0.42386 0.21139 0.69392 0.0
C1368 C 0.46948 0.23786 0.57203 0.0
C1369 C 0.44008 0.21955 0.65688 0.0
N1370 N 0.48839 0.27445 0.61434 0.0
N1371 N 0.42831 0.18173 0.62563 0.0
H1372 H 0.42297 0.22159 0.72225 0.0
H1373 H 0.41018 0.19486 0.69447 0.0
H1374 H 0.42802 0.17037 0.59874 0.0
H1375 H 0.41994 0.17386 0.65899 0.0
H1376 H 0.50164 0.28158 0.58833 0.0
H1377 H 0.4902 0.28544 0.64381 0.0
H1378 H 0.49079 0.26399 0.52065 0.0
H1379 H 0.48076 0.23658 0.49787 0.0
C1380 C 0.01716 0.34529 0.87125 0.0
C1381 C 0.02148 0.36386 0.90307 0.0
C1382 C 0.98538 0.36069 0.87678 0.0
C1383 C 0.98245 0.34404 0.8405 0.0
N1384 N 0.9967 0.32215 0.7988 0.0
N1385 N 0.01151 0.39163 0.93051 0.0
C1386 C 0.99862 0.3367 0.83665 0.0
C1387 C 0.00603 0.37216 0.9045 0.0
N1388 N 0.0305 0.33557 0.87498 0.0
N1389 N 0.96815 0.3651 0.88577 0.0
H1390 H 0.02649 0.40065 0.95118 0.0
H1391 H 0.00215 0.39992 0.9281 0.0
H1392 H 0.95269 0.35696 0.86651 0.0
H1393 H 0.96833 0.37525 0.91549 0.0
H1394 H 0.02691 0.3206 0.85661 0.0
H1395 H 0.04414 0.34139 0.90005 0.0
H1396 H 0.00923 0.31811 0.79049 0.0
H1397 H 0.98331 0.31544 0.77297 0.0
C1398 C 0.65764 0.00306 0.99395 0.0
C1399 C 0.64031 0.98157 0.01123 0.0
C1400 C 0.64229 0.99756 0.09562 0.0
C1401 C 0.65776 0.01949 0.07679 0.0
N1402 N 0.67823 0.04386 0.00662 0.0
N1403 N 0.61379 0.95871 0.0763 0.0
C1404 C 0.66502 0.02245 0.02558 0.0
C1405 C 0.63205 0.97887 0.06159 0.0
N1406 N 0.66736 0.00482 0.94769 0.0
N1407 N 0.63776 0.99454 0.14628 0.0
H1408 H 0.6058 0.94459 0.05264 0.0
H1409 H 0.60536 0.95648 0.11053 0.0
H1410 H 0.64493 0.00788 0.17222 0.0
H1411 H 0.62854 0.97865 0.16322 0.0
H1412 H 0.6817 0.01948 0.93506 0.0
H1413 H 0.66224 0.99099 0.92346 0.0
H1414 H 0.68192 0.04728 0.96834 0.0
H1415 H 0.68417 0.05848 0.0286 0.0
C1416 C 0.67797 0.66594 0.19466 0.0
C1417 C 0.66502 0.65071 0.15539 0.0
C1418 C 0.63259 0.65496 0.18046 0.0
C1419 C 0.64366 0.66477 0.22695 0.0
N1420 N 0.67765 0.68034 0.27799 0.0
N1421 N 0.63817 0.64837 0.09317 0.0
C1422 C 0.66663 0.67059 0.23391 0.0
C1423 C 0.64441 0.65006 0.1427 0.0
N1424 N 0.70092 0.67911 0.18955 0.0
N1425 N 0.61082 0.65022 0.17226 0.0
H1426 H 0.64871 0.64856 0.06422 0.0
H1427 H 0.62448 0.64996 0.08075 0.0
H1428 H 0.60186 0.65442 0.19795 0.0
H1429 H 0.60124 0.64084 0.14129 0.0
H1430 H 0.71103 0.69195 0.21498 0.0
H1431 H 0.70904 0.67944 0.15578 0.0
H1432 H 0.69377 0.68292 0.28622 0.0
H1433 H 0.66999 0.68417 0.30762 0.0
C1434 C 0.02307 0.65525 0.39395 0.0
C1435 C 0.02002 0.65508 0.34078 0.0
C1436 C 0.97867 0.63448 0.35211 0.0
C1437 C 0.98174 0.63613 0.40541 0.0
N1438 N 0.00664 0.65142 0.47735 0.0
N1439 N 0.99539 0.64822 0.26941 0.0
C1440 C 0.00391 0.64751 0.42642 0.0
C1441 C 0.99793 0.64579 0.31991 0.0
N1442 N 0.04416 0.66201 0.41334 0.0
N1443 N 0.95743 0.62131 0.33222 0.0
H1444 H 0.00912 0.65626 0.24467 0.0
H1445 H 0.97989 0.64402 0.2528 0.0
H1446 H 0.94288 0.61266 0.35441 0.0
H1447 H 0.9544 0.61739 0.29392 0.0
H1448 H 0.04705 0.66008 0.45119 0.0
H1449 H 0.05864 0.66791 0.3909 0.0
H1450 H 0.02233 0.6617 0.49439 0.0
H1451 H 0.99299 0.64596 0.50224 0.0
C1452 C 0.35243 0.99679 0.48225 0.0
C1453 C 0.36438 0.01897 0.50307 0.0
C1454 C 0.35555 0.00282 0.58865 0.0
C1455 C 0.34581 0.98068 0.56781 0.0
N1456 N 0.33879 0.95673 0.49476 0.0
N1457 N 0.38108 0.04306 0.57602 0.0
C1458 C 0.34525 0.97768 0.51454 0.0
C1459 C 0.36696 0.022 0.55632 0.0
N1460 N 0.34737 0.99395 0.43181 0.0
N1461 N 0.35339 0.00554 0.63917 0.0
H1462 H 0.39012 0.05749 0.55368 0.0
H1463 H 0.3855 0.04588 0.61412 0.0
H1464 H 0.34499 0.99188 0.66396 0.0
H1465 H 0.35806 0.02119 0.65561 0.0
H1466 H 0.33665 0.9782 0.41546 0.0
H1467 H 0.35219 0.00754 0.40704 0.0
H1468 H 0.3404 0.95401 0.4566 0.0
H1469 H 0.33378 0.94235 0.51704 0.0
C1470 C 0.35297 0.34488 0.63219 0.0
C1471 C 0.33343 0.34595 0.64668 0.0
C1472 C 0.33332 0.32866 0.72797 0.0
C1473 C 0.3556 0.33286 0.7182 0.0
N1474 N 0.38624 0.34329 0.65868 0.0
N1475 N 0.2982 0.32013 0.68766 0.0
C1476 C 0.36526 0.34029 0.6694 0.0
C1477 C 0.3213 0.33261 0.6891 0.0
N1478 N 0.35783 0.34512 0.58206 0.0
N1479 N 0.32359 0.32109 0.77428 0.0
H1480 H 0.2893 0.31853 0.65429 0.0
H1481 H 0.28855 0.30865 0.71592 0.0
H1482 H 0.33172 0.31773 0.80368 0.0
H1483 H 0.30814 0.31982 0.78418 0.0
H1484 H 0.37056 0.34226 0.56846 0.0
H1485 H 0.34705 0.3453 0.55412 0.0
H1486 H 0.3951 0.35115 0.62573 0.0
H1487 H 0.39536 0.33914 0.68402 0.0
loop_
_geom_bond_atom_site_label_1
_geom_bond_atom_site_label_2
_geom_bond_distance
_geom_bond_site_symmetry_2
_ccdc_geom_bond_type
Li0 N17 1.990 . S
Li0 O60 1.956 . S
Li0 O61 1.970 . S
Li0 O62 1.961 1_554 S
Li1 N25 1.990 . S
Li1 O60 1.970 . S
Li1 O61 1.956 . S
Li1 O63 1.961 . S
Li2 N47 1.990 . S
Li2 O60 1.961 1_556 S
Li2 O62 1.956 . S
Li2 O63 1.970 1_556 S
Li3 N53 1.990 . S
Li3 O61 1.961 . S
Li3 O62 1.970 1_554 S
Li3 O63 1.956 . S
C4 C6 1.348 . S
C4 C7 1.356 . S
C4 O60 1.325 . S
N5 C8 1.314 . S
N5 C9 1.279 . S
C6 C4 1.348 . S
C6 C8 1.353 . S
C6 H64 0.929 . S
C7 C4 1.356 . S
C7 C9 1.358 . S
C7 H65 0.930 1_554 S
C8 N5 1.314 . S
C8 C6 1.353 . S
C8 H66 0.930 . S
C9 N5 1.279 . S
C9 C7 1.358 . S
C9 H67 0.930 . S
C10 C13 1.348 . S
C10 C14 1.356 . S
C10 O61 1.325 . S
C11 N12 1.279 . S
C11 C14 1.358 . S
C11 H68 0.930 . S
N12 C11 1.279 . S
N12 C15 1.314 . S
C13 C10 1.348 . S
C13 C15 1.353 . S
C13 H69 0.929 . S
C14 C10 1.356 . S
C14 C11 1.358 . S
C14 H70 0.930 . S
C15 N12 1.314 . S
C15 C13 1.353 . S
C15 H71 0.930 . S
C16 N17 1.314 . S
C16 C21 1.353 . S
C16 H22 0.930 . S
N17 Li0 1.990 . S
N17 C16 1.314 . S
N17 C19 1.279 . S
C18 C19 1.358 . S
C18 C20 1.356 . S
C18 H72 0.930 . S
C19 N17 1.279 . S
C19 C18 1.358 . S
C19 H23 0.930 . S
C20 C18 1.356 . S
C20 C21 1.348 . S
C21 C16 1.353 . S
C21 C20 1.348 . S
C21 H73 0.929 . S
H22 C16 0.930 . S
H23 C19 0.930 . S
C24 N25 1.314 . S
C24 C26 1.353 . S
C24 H30 0.930 . S
N25 Li1 1.990 . S
N25 C24 1.314 . S
N25 C28 1.279 . S
C26 C24 1.353 . S
C26 C29 1.348 . S
C26 H74 0.929 . S
C27 C28 1.358 . S
C27 C29 1.356 . S
C27 H75 0.930 . S
C28 N25 1.279 . S
C28 C27 1.358 . S
C28 H31 0.930 . S
C29 C26 1.348 . S
C29 C27 1.356 . S
H30 C24 0.930 . S
H31 C28 0.930 . S
C32 C34 1.348 . S
C32 C35 1.356 . S
C32 O62 1.325 . S
N33 C36 1.314 . S
N33 C37 1.279 . S
C34 C32 1.348 . S
C34 C36 1.353 . S
C34 H76 0.929 . S
C35 C32 1.356 . S
C35 C37 1.358 . S
C35 H77 0.930 . S
C36 N33 1.314 . S
C36 C34 1.353 . S
C36 H78 0.930 . S
C37 N33 1.279 . S
C37 C35 1.358 . S
C37 H79 0.930 . S
C38 C39 1.348 1_554 S
C38 C40 1.356 . S
C38 O63 1.325 . S
C39 C38 1.348 1_556 S
C39 C41 1.353 . S
C39 H80 0.929 . S
C40 C38 1.356 . S
C40 C42 1.358 . S
C40 H81 0.930 . S
C41 C39 1.353 . S
C41 N43 1.314 . S
C41 H82 0.930 . S
C42 C40 1.358 . S
C42 N43 1.279 1_554 S
C42 H83 0.930 . S
N43 C41 1.314 . S
N43 C42 1.279 1_556 S
C44 C46 1.353 . S
C44 N47 1.314 . S
C44 H50 0.930 . S
C45 N47 1.279 . S
C45 C48 1.358 . S
C45 H51 0.930 . S
C46 C44 1.353 . S
C46 C49 1.348 . S
C46 H84 0.929 . S
N47 Li2 1.990 . S
N47 C44 1.314 . S
N47 C45 1.279 . S
C48 C45 1.358 . S
C48 C49 1.356 . S
C48 H85 0.930 . S
C49 C46 1.348 . S
C49 C48 1.356 . S
H50 C44 0.930 . S
H51 C45 0.930 . S
C52 N53 1.314 . S
C52 C54 1.353 1_554 S
C52 H58 0.930 . S
N53 Li3 1.990 . S
N53 C52 1.314 . S
N53 C56 1.279 1_554 S
C54 C52 1.353 1_556 S
C54 C57 1.348 . S
C54 H86 0.929 1_556 S
C55 C56 1.358 . S
C55 C57 1.356 . S
C55 H87 0.930 . S
C56 N53 1.279 1_556 S
C56 C55 1.358 . S
C56 H59 0.930 . S
C57 C54 1.348 . S
C57 C55 1.356 . S
H58 C52 0.930 . S
H59 C56 0.930 . S
O60 Li0 1.956 . S
O60 Li1 1.970 . S
O60 Li2 1.961 1_554 S
O60 C4 1.325 . S
O61 Li0 1.970 . S
O61 Li1 1.956 . S
O61 Li3 1.961 . S
O61 C10 1.325 . S
O62 Li0 1.961 1_556 S
O62 Li2 1.956 . S
O62 Li3 1.970 1_556 S
O62 C32 1.325 . S
O63 Li1 1.961 . S
O63 Li2 1.970 1_554 S
O63 Li3 1.956 . S
O63 C38 1.325 . S
H64 C6 0.929 . S
H65 C7 0.930 1_556 S
H66 C8 0.930 . S
H67 C9 0.930 . S
H68 C11 0.930 . S
H69 C13 0.929 . S
H70 C14 0.930 . S
H71 C15 0.930 . S
H72 C18 0.930 . S
H73 C21 0.929 . S
H74 C26 0.929 . S
H75 C27 0.930 . S
H76 C34 0.929 . S
H77 C35 0.930 . S
H78 C36 0.930 . S
H79 C37 0.930 . S
H80 C39 0.929 . S
H81 C40 0.930 . S
H82 C41 0.930 . S
H83 C42 0.930 . S
H84 C46 0.929 . S
H85 C48 0.930 . S
H86 C54 0.929 1_554 S
H87 C55 0.930 . S
Li88 N105 1.990 . S
Li88 O148 1.956 . S
Li88 O149 1.970 . S
Li88 O150 1.961 . S
Li89 N113 1.990 . S
Li89 O148 1.970 . S
Li89 O149 1.956 . S
Li89 O151 1.961 . S
Li90 N135 1.990 . S
Li90 O148 1.961 . S
Li90 O150 1.956 . S
Li90 O151 1.970 . S
Li91 N141 1.990 . S
Li91 O149 1.961 . S
Li91 O150 1.970 . S
Li91 O151 1.956 . S
C92 C94 1.348 . S
C92 C95 1.356 . S
C92 O148 1.325 . S
N93 C96 1.314 . S
N93 C97 1.279 . S
C94 C92 1.348 . S
C94 C96 1.353 . S
C94 H152 0.929 . S
C95 C92 1.356 . S
C95 C97 1.358 . S
C95 H153 0.930 . S
C96 N93 1.314 . S
C96 C94 1.353 . S
C96 H154 0.930 . S
C97 N93 1.279 . S
C97 C95 1.358 . S
C97 H155 0.930 . S
C98 C101 1.348 . S
C98 C102 1.356 . S
C98 O149 1.325 . S
C99 N100 1.279 . S
C99 C102 1.358 . S
C99 H156 0.930 . S
N100 C99 1.279 . S
N100 C103 1.314 . S
C101 C98 1.348 . S
C101 C103 1.353 . S
C101 H157 0.929 . S
C102 C98 1.356 . S
C102 C99 1.358 . S
C102 H158 0.930 . S
C103 N100 1.314 . S
C103 C101 1.353 . S
C103 H159 0.930 . S
C104 N105 1.314 . S
C104 C109 1.353 . S
C104 H110 0.930 . S
N105 Li88 1.990 . S
N105 C104 1.314 . S
N105 C107 1.279 . S
C106 C107 1.358 . S
C106 C108 1.356 . S
C106 H160 0.930 . S
C107 N105 1.279 . S
C107 C106 1.358 . S
C107 H111 0.930 . S
C108 C106 1.356 . S
C108 C109 1.348 . S
C109 C104 1.353 . S
C109 C108 1.348 . S
C109 H161 0.929 . S
H110 C104 0.930 . S
H111 C107 0.930 . S
C112 N113 1.314 . S
C112 C114 1.353 . S
C112 H118 0.930 . S
N113 Li89 1.990 . S
N113 C112 1.314 . S
N113 C116 1.279 . S
C114 C112 1.353 . S
C114 C117 1.348 . S
C114 H162 0.929 . S
C115 C116 1.358 . S
C115 C117 1.356 . S
C115 H163 0.930 . S
C116 N113 1.279 . S
C116 C115 1.358 . S
C116 H119 0.930 . S
C117 C114 1.348 . S
C117 C115 1.356 . S
H118 C112 0.930 . S
H119 C116 0.930 . S
C120 C122 1.348 . S
C120 C123 1.356 . S
C120 O150 1.325 . S
N121 C124 1.314 . S
N121 C125 1.279 . S
C122 C120 1.348 . S
C122 C124 1.353 . S
C122 H164 0.929 . S
C123 C120 1.356 . S
C123 C125 1.358 . S
C123 H165 0.930 . S
C124 N121 1.314 . S
C124 C122 1.353 . S
C124 H166 0.930 . S
C125 N121 1.279 . S
C125 C123 1.358 . S
C125 H167 0.930 . S
C126 C127 1.348 . S
C126 C128 1.356 . S
C126 O151 1.325 . S
C127 C126 1.348 . S
C127 C129 1.353 . S
C127 H168 0.929 . S
C128 C126 1.356 . S
C128 C130 1.358 . S
C128 H169 0.930 . S
C129 C127 1.353 . S
C129 N131 1.314 . S
C129 H170 0.930 . S
C130 C128 1.358 . S
C130 N131 1.279 . S
C130 H171 0.930 . S
N131 C129 1.314 . S
N131 C130 1.279 . S
C132 C134 1.353 . S
C132 N135 1.314 . S
C132 H138 0.930 . S
C133 N135 1.279 . S
C133 C136 1.358 . S
C133 H139 0.930 . S
C134 C132 1.353 . S
C134 C137 1.348 . S
C134 H172 0.929 . S
N135 Li90 1.990 . S
N135 C132 1.314 . S
N135 C133 1.279 . S
C136 C133 1.358 . S
C136 C137 1.356 . S
C136 H173 0.930 1_554 S
C137 C134 1.348 . S
C137 C136 1.356 . S
H138 C132 0.930 . S
H139 C133 0.930 . S
C140 N141 1.314 . S
C140 C142 1.353 . S
C140 H146 0.930 . S
N141 Li91 1.990 . S
N141 C140 1.314 . S
N141 C144 1.279 . S
C142 C140 1.353 . S
C142 C145 1.348 . S
C142 H174 0.929 . S
C143 C144 1.358 . S
C143 C145 1.356 . S
C143 H175 0.930 . S
C144 N141 1.279 . S
C144 C143 1.358 . S
C144 H147 0.930 . S
C145 C142 1.348 . S
C145 C143 1.356 . S
H146 C140 0.930 . S
H147 C144 0.930 . S
O148 Li88 1.956 . S
O148 Li89 1.970 . S
O148 Li90 1.961 . S
O148 C92 1.325 . S
O149 Li88 1.970 . S
O149 Li89 1.956 . S
O149 Li91 1.961 . S
O149 C98 1.325 . S
O150 Li88 1.961 . S
O150 Li90 1.956 . S
O150 Li91 1.970 . S
O150 C120 1.325 . S
O151 Li89 1.961 . S
O151 Li90 1.970 . S
O151 Li91 1.956 . S
O151 C126 1.325 . S
H152 C94 0.929 . S
H153 C95 0.930 . S
H154 C96 0.930 . S
H155 C97 0.930 . S
H156 C99 0.930 . S
H157 C101 0.929 . S
H158 C102 0.930 . S
H159 C103 0.930 . S
H160 C106 0.930 . S
H161 C109 0.929 . S
H162 C114 0.929 . S
H163 C115 0.930 . S
H164 C122 0.929 . S
H165 C123 0.930 . S
H166 C124 0.930 . S
H167 C125 0.930 . S
H168 C127 0.929 . S
H169 C128 0.930 . S
H170 C129 0.930 . S
H171 C130 0.930 . S
H172 C134 0.929 . S
H173 C136 0.930 1_556 S
H174 C142 0.929 . S
H175 C143 0.930 . S
Li176 N193 1.990 . S
Li176 O236 1.956 . S
Li176 O237 1.970 . S
Li176 O238 1.961 . S
Li177 N201 1.990 . S
Li177 O236 1.970 . S
Li177 O237 1.956 . S
Li177 O239 1.961 . S
Li178 N223 1.990 . S
Li178 O236 1.961 . S
Li178 O238 1.956 . S
Li178 O239 1.970 . S
Li179 N229 1.990 . S
Li179 O237 1.961 . S
Li179 O238 1.970 . S
Li179 O239 1.956 . S
C180 C182 1.348 . S
C180 C183 1.356 . S
C180 O236 1.325 . S
N181 C184 1.314 . S
N181 C185 1.279 . S
C182 C180 1.348 . S
C182 C184 1.353 . S
C182 H240 0.929 . S
C183 C180 1.356 . S
C183 C185 1.358 . S
C183 H241 0.930 . S
C184 N181 1.314 . S
C184 C182 1.353 . S
C184 H242 0.930 . S
C185 N181 1.279 . S
C185 C183 1.358 . S
C185 H243 0.930 . S
C186 C189 1.348 . S
C186 C190 1.356 . S
C186 O237 1.325 . S
C187 N188 1.279 . S
C187 C190 1.358 . S
C187 H244 0.930 . S
N188 C187 1.279 . S
N188 C191 1.314 . S
C189 C186 1.348 . S
C189 C191 1.353 . S
C189 H245 0.929 . S
C190 C186 1.356 . S
C190 C187 1.358 . S
C190 H246 0.930 . S
C191 N188 1.314 . S
C191 C189 1.353 . S
C191 H247 0.930 . S
C192 N193 1.314 . S
C192 C197 1.353 . S
C192 H198 0.930 . S
N193 Li176 1.990 . S
N193 C192 1.314 . S
N193 C195 1.279 . S
C194 C195 1.358 . S
C194 C196 1.356 . S
C194 H248 0.930 . S
C195 N193 1.279 . S
C195 C194 1.358 . S
C195 H199 0.930 . S
C196 C194 1.356 . S
C196 C197 1.348 . S
C197 C192 1.353 . S
C197 C196 1.348 . S
C197 H249 0.929 . S
H198 C192 0.930 . S
H199 C195 0.930 . S
C200 N201 1.314 . S
C200 C202 1.353 . S
C200 H206 0.930 . S
N201 Li177 1.990 . S
N201 C200 1.314 . S
N201 C204 1.279 . S
C202 C200 1.353 . S
C202 C205 1.348 . S
C202 H250 0.929 . S
C203 C204 1.358 . S
C203 C205 1.356 . S
C203 H251 0.930 . S
C204 N201 1.279 . S
C204 C203 1.358 . S
C204 H207 0.930 . S
C205 C202 1.348 . S
C205 C203 1.356 . S
H206 C200 0.930 . S
H207 C204 0.930 . S
C208 C210 1.348 . S
C208 C211 1.356 . S
C208 O238 1.325 . S
N209 C212 1.314 . S
N209 C213 1.279 . S
C210 C208 1.348 . S
C210 C212 1.353 . S
C210 H252 0.929 . S
C211 C208 1.356 . S
C211 C213 1.358 . S
C211 H253 0.930 . S
C212 N209 1.314 . S
C212 C210 1.353 . S
C212 H254 0.930 . S
C213 N209 1.279 . S
C213 C211 1.358 . S
C213 H255 0.930 . S
C214 C215 1.348 . S
C214 C216 1.356 . S
C214 O239 1.325 . S
C215 C214 1.348 . S
C215 C217 1.353 . S
C215 H256 0.929 . S
C216 C214 1.356 . S
C216 C218 1.358 . S
C216 H257 0.930 . S
C217 C215 1.353 . S
C217 N219 1.314 . S
C217 H258 0.930 . S
C218 C216 1.358 . S
C218 N219 1.279 . S
C218 H259 0.930 . S
N219 C217 1.314 . S
N219 C218 1.279 . S
C220 C222 1.353 . S
C220 N223 1.314 . S
C220 H226 0.930 . S
C221 N223 1.279 . S
C221 C224 1.358 . S
C221 H227 0.930 . S
C222 C220 1.353 . S
C222 C225 1.348 . S
C222 H260 0.929 . S
N223 Li178 1.990 . S
N223 C220 1.314 . S
N223 C221 1.279 . S
C224 C221 1.358 . S
C224 C225 1.356 . S
C224 H261 0.930 . S
C225 C222 1.348 . S
C225 C224 1.356 . S
H226 C220 0.930 . S
H227 C221 0.930 . S
C228 N229 1.314 . S
C228 C230 1.353 . S
C228 H234 0.930 . S
N229 Li179 1.990 . S
N229 C228 1.314 . S
N229 C232 1.279 . S
C230 C228 1.353 . S
C230 C233 1.348 . S
C230 H262 0.929 . S
C231 C232 1.358 . S
C231 C233 1.356 . S
C231 H263 0.930 . S
C232 N229 1.279 . S
C232 C231 1.358 . S
C232 H235 0.930 . S
C233 C230 1.348 . S
C233 C231 1.356 . S
H234 C228 0.930 . S
H235 C232 0.930 . S
O236 Li176 1.956 . S
O236 Li177 1.970 . S
O236 Li178 1.961 . S
O236 C180 1.325 . S
O237 Li176 1.970 . S
O237 Li177 1.956 . S
O237 Li179 1.961 . S
O237 C186 1.325 . S
O238 Li176 1.961 . S
O238 Li178 1.956 . S
O238 Li179 1.970 . S
O238 C208 1.325 . S
O239 Li177 1.961 . S
O239 Li178 1.970 . S
O239 Li179 1.956 . S
O239 C214 1.325 . S
H240 C182 0.929 . S
H241 C183 0.930 . S
H242 C184 0.930 . S
H243 C185 0.930 . S
H244 C187 0.930 . S
H245 C189 0.929 . S
H246 C190 0.930 . S
H247 C191 0.930 . S
H248 C194 0.930 . S
H249 C197 0.929 . S
H250 C202 0.929 . S
H251 C203 0.930 . S
H252 C210 0.929 . S
H253 C211 0.930 . S
H254 C212 0.930 . S
H255 C213 0.930 . S
H256 C215 0.929 . S
H257 C216 0.930 . S
H258 C217 0.930 . S
H259 C218 0.930 . S
H260 C222 0.929 . S
H261 C224 0.930 . S
H262 C230 0.929 . S
H263 C231 0.930 . S
Li264 N281 1.990 . S
Li264 O324 1.956 . S
Li264 O325 1.970 . S
Li264 O326 1.961 . S
Li265 N289 1.990 . S
Li265 O324 1.970 . S
Li265 O325 1.956 . S
Li265 O327 1.961 . S
Li266 N311 1.990 . S
Li266 O324 1.961 . S
Li266 O326 1.956 . S
Li266 O327 1.970 . S
Li267 N317 1.990 . S
Li267 O325 1.961 . S
Li267 O326 1.970 . S
Li267 O327 1.956 . S
C268 C270 1.348 . S
C268 C271 1.356 . S
C268 O324 1.325 . S
N269 C272 1.314 . S
N269 C273 1.279 . S
C270 C268 1.348 . S
C270 C272 1.353 . S
C270 H328 0.929 . S
C271 C268 1.356 . S
C271 C273 1.358 . S
C271 H329 0.930 . S
C272 N269 1.314 . S
C272 C270 1.353 . S
C272 H330 0.930 . S
C273 N269 1.279 . S
C273 C271 1.358 . S
C273 H331 0.930 . S
C274 C277 1.348 . S
C274 C278 1.356 . S
C274 O325 1.325 . S
C275 N276 1.279 . S
C275 C278 1.358 . S
C275 H332 0.930 . S
N276 C275 1.279 . S
N276 C279 1.314 . S
C277 C274 1.348 . S
C277 C279 1.353 . S
C277 H333 0.929 . S
C278 C274 1.356 . S
C278 C275 1.358 . S
C278 H334 0.930 . S
C279 N276 1.314 . S
C279 C277 1.353 . S
C279 H335 0.930 . S
C280 N281 1.314 . S
C280 C285 1.353 . S
C280 H286 0.930 . S
N281 Li264 1.990 . S
N281 C280 1.314 . S
N281 C283 1.279 . S
C282 C283 1.358 . S
C282 C284 1.356 . S
C282 H336 0.930 . S
C283 N281 1.279 . S
C283 C282 1.358 . S
C283 H287 0.930 . S
C284 C282 1.356 . S
C284 C285 1.348 . S
C285 C280 1.353 . S
C285 C284 1.348 . S
C285 H337 0.929 . S
H286 C280 0.930 . S
H287 C283 0.930 . S
C288 N289 1.314 . S
C288 C290 1.353 . S
C288 H294 0.930 . S
N289 Li265 1.990 . S
N289 C288 1.314 . S
N289 C292 1.279 . S
C290 C288 1.353 . S
C290 C293 1.348 . S
C290 H338 0.929 . S
C291 C292 1.358 . S
C291 C293 1.356 . S
C291 H339 0.930 . S
C292 N289 1.279 . S
C292 C291 1.358 . S
C292 H295 0.930 . S
C293 C290 1.348 . S
C293 C291 1.356 . S
H294 C288 0.930 . S
H295 C292 0.930 . S
C296 C298 1.348 . S
C296 C299 1.356 . S
C296 O326 1.325 . S
N297 C300 1.314 . S
N297 C301 1.279 . S
C298 C296 1.348 . S
C298 C300 1.353 . S
C298 H340 0.929 . S
C299 C296 1.356 . S
C299 C301 1.358 . S
C299 H341 0.930 . S
C300 N297 1.314 . S
C300 C298 1.353 . S
C300 H342 0.930 . S
C301 N297 1.279 . S
C301 C299 1.358 . S
C301 H343 0.930 . S
C302 C303 1.348 . S
C302 C304 1.356 . S
C302 O327 1.325 . S
C303 C302 1.348 . S
C303 C305 1.353 . S
C303 H344 0.929 . S
C304 C302 1.356 . S
C304 C306 1.358 . S
C304 H345 0.930 . S
C305 C303 1.353 . S
C305 N307 1.314 . S
C305 H346 0.930 . S
C306 C304 1.358 . S
C306 N307 1.279 . S
C306 H347 0.930 . S
N307 C305 1.314 . S
N307 C306 1.279 . S
C308 C310 1.353 . S
C308 N311 1.314 . S
C308 H314 0.930 . S
C309 N311 1.279 . S
C309 C312 1.358 . S
C309 H315 0.930 . S
C310 C308 1.353 . S
C310 C313 1.348 . S
C310 H348 0.929 . S
N311 Li266 1.990 . S
N311 C308 1.314 . S
N311 C309 1.279 . S
C312 C309 1.358 . S
C312 C313 1.356 . S
C312 H349 0.930 . S
C313 C310 1.348 . S
C313 C312 1.356 . S
H314 C308 0.930 . S
H315 C309 0.930 . S
C316 N317 1.314 . S
C316 C318 1.353 . S
C316 H322 0.930 . S
N317 Li267 1.990 . S
N317 C316 1.314 . S
N317 C320 1.279 . S
C318 C316 1.353 . S
C318 C321 1.348 . S
C318 H350 0.929 . S
C319 C320 1.358 . S
C319 C321 1.356 . S
C319 H351 0.930 . S
C320 N317 1.279 . S
C320 C319 1.358 . S
C320 H323 0.930 . S
C321 C318 1.348 . S
C321 C319 1.356 . S
H322 C316 0.930 . S
H323 C320 0.930 . S
O324 Li264 1.956 . S
O324 Li265 1.970 . S
O324 Li266 1.961 . S
O324 C268 1.325 . S
O325 Li264 1.970 . S
O325 Li265 1.956 . S
O325 Li267 1.961 . S
O325 C274 1.325 . S
O326 Li264 1.961 . S
O326 Li266 1.956 . S
O326 Li267 1.970 . S
O326 C296 1.325 . S
O327 Li265 1.961 . S
O327 Li266 1.970 . S
O327 Li267 1.956 . S
O327 C302 1.325 . S
H328 C270 0.929 . S
H329 C271 0.930 . S
H330 C272 0.930 . S
H331 C273 0.930 . S
H332 C275 0.930 . S
H333 C277 0.929 . S
H334 C278 0.930 . S
H335 C279 0.930 . S
H336 C282 0.930 . S
H337 C285 0.929 . S
H338 C290 0.929 . S
H339 C291 0.930 . S
H340 C298 0.929 . S
H341 C299 0.930 . S
H342 C300 0.930 . S
H343 C301 0.930 . S
H344 C303 0.929 . S
H345 C304 0.930 . S
H346 C305 0.930 . S
H347 C306 0.930 . S
H348 C310 0.929 . S
H349 C312 0.930 . S
H350 C318 0.929 . S
H351 C319 0.930 . S
Li352 N369 1.990 . S
Li352 O412 1.956 . S
Li352 O413 1.970 . S
Li352 O414 1.961 . S
Li353 N377 1.990 . S
Li353 O412 1.970 . S
Li353 O413 1.956 . S
Li353 O415 1.961 . S
Li354 N399 1.990 . S
Li354 O412 1.961 . S
Li354 O414 1.956 . S
Li354 O415 1.970 . S
Li355 N405 1.990 . S
Li355 O413 1.961 . S
Li355 O414 1.970 . S
Li355 O415 1.956 . S
C356 C358 1.348 . S
C356 C359 1.356 . S
C356 O412 1.325 . S
N357 C360 1.314 . S
N357 C361 1.279 . S
C358 C356 1.348 . S
C358 C360 1.353 . S
C358 H416 0.929 . S
C359 C356 1.356 . S
C359 C361 1.358 . S
C359 H417 0.930 . S
C360 N357 1.314 . S
C360 C358 1.353 . S
C360 H418 0.930 . S
C361 N357 1.279 . S
C361 C359 1.358 . S
C361 H419 0.930 . S
C362 C365 1.348 . S
C362 C366 1.356 . S
C362 O413 1.325 . S
C363 N364 1.279 . S
C363 C366 1.358 . S
C363 H420 0.930 . S
N364 C363 1.279 . S
N364 C367 1.314 . S
C365 C362 1.348 . S
C365 C367 1.353 . S
C365 H421 0.929 . S
C366 C362 1.356 . S
C366 C363 1.358 . S
C366 H422 0.930 . S
C367 N364 1.314 . S
C367 C365 1.353 . S
C367 H423 0.930 . S
C368 N369 1.314 . S
C368 C373 1.353 . S
C368 H374 0.930 . S
N369 Li352 1.990 . S
N369 C368 1.314 . S
N369 C371 1.279 . S
C370 C371 1.358 . S
C370 C372 1.356 . S
C370 H424 0.930 . S
C371 N369 1.279 . S
C371 C370 1.358 . S
C371 H375 0.930 . S
C372 C370 1.356 . S
C372 C373 1.348 . S
C373 C368 1.353 . S
C373 C372 1.348 . S
C373 H425 0.929 . S
H374 C368 0.930 . S
H375 C371 0.930 . S
C376 N377 1.314 . S
C376 C378 1.353 . S
C376 H382 0.930 . S
N377 Li353 1.990 . S
N377 C376 1.314 . S
N377 C380 1.279 . S
C378 C376 1.353 . S
C378 C381 1.348 . S
C378 H426 0.929 . S
C379 C380 1.358 . S
C379 C381 1.356 . S
C379 H427 0.930 . S
C380 N377 1.279 . S
C380 C379 1.358 . S
C380 H383 0.930 . S
C381 C378 1.348 . S
C381 C379 1.356 . S
H382 C376 0.930 . S
H383 C380 0.930 . S
C384 C386 1.348 . S
C384 C387 1.356 . S
C384 O414 1.325 . S
N385 C388 1.314 . S
N385 C389 1.279 . S
C386 C384 1.348 . S
C386 C388 1.353 . S
C386 H428 0.929 . S
C387 C384 1.356 . S
C387 C389 1.358 . S
C387 H429 0.930 . S
C388 N385 1.314 . S
C388 C386 1.353 . S
C388 H430 0.930 . S
C389 N385 1.279 . S
C389 C387 1.358 . S
C389 H431 0.930 . S
C390 C391 1.348 . S
C390 C392 1.356 . S
C390 O415 1.325 . S
C391 C390 1.348 . S
C391 C393 1.353 . S
C391 H432 0.929 . S
C392 C390 1.356 . S
C392 C394 1.358 . S
C392 H433 0.930 . S
C393 C391 1.353 . S
C393 N395 1.314 . S
C393 H434 0.930 . S
C394 C392 1.358 . S
C394 N395 1.279 . S
C394 H435 0.930 . S
N395 C393 1.314 . S
N395 C394 1.279 . S
C396 C398 1.353 . S
C396 N399 1.314 . S
C396 H402 0.930 . S
C397 N399 1.279 . S
C397 C400 1.358 . S
C397 H403 0.930 . S
C398 C396 1.353 . S
C398 C401 1.348 . S
C398 H436 0.929 . S
N399 Li354 1.990 . S
N399 C396 1.314 . S
N399 C397 1.279 . S
C400 C397 1.358 . S
C400 C401 1.356 . S
C400 H437 0.930 . S
C401 C398 1.348 . S
C401 C400 1.356 . S
H402 C396 0.930 . S
H403 C397 0.930 . S
C404 N405 1.314 . S
C404 C406 1.353 . S
C404 H410 0.930 . S
N405 Li355 1.990 . S
N405 C404 1.314 . S
N405 C408 1.279 . S
C406 C404 1.353 . S
C406 C409 1.348 . S
C406 H438 0.929 . S
C407 C408 1.358 . S
C407 C409 1.356 . S
C407 H439 0.930 . S
C408 N405 1.279 . S
C408 C407 1.358 . S
C408 H411 0.930 . S
C409 C406 1.348 . S
C409 C407 1.356 . S
H410 C404 0.930 . S
H411 C408 0.930 . S
O412 Li352 1.956 . S
O412 Li353 1.970 . S
O412 Li354 1.961 . S
O412 C356 1.325 . S
O413 Li352 1.970 . S
O413 Li353 1.956 . S
O413 Li355 1.961 . S
O413 C362 1.325 . S
O414 Li352 1.961 . S
O414 Li354 1.956 . S
O414 Li355 1.970 . S
O414 C384 1.325 . S
O415 Li353 1.961 . S
O415 Li354 1.970 . S
O415 Li355 1.956 . S
O415 C390 1.325 . S
H416 C358 0.929 . S
H417 C359 0.930 . S
H418 C360 0.930 . S
H419 C361 0.930 . S
H420 C363 0.930 . S
H421 C365 0.929 . S
H422 C366 0.930 . S
H423 C367 0.930 . S
H424 C370 0.930 . S
H425 C373 0.929 . S
H426 C378 0.929 . S
H427 C379 0.930 . S
H428 C386 0.929 . S
H429 C387 0.930 . S
H430 C388 0.930 . S
H431 C389 0.930 . S
H432 C391 0.929 . S
H433 C392 0.930 . S
H434 C393 0.930 . S
H435 C394 0.930 . S
H436 C398 0.929 . S
H437 C400 0.930 . S
H438 C406 0.929 . S
H439 C407 0.930 . S
Li440 N457 1.990 . S
Li440 O500 1.956 . S
Li440 O501 1.970 . S
Li440 O502 1.961 . S
Li441 N465 1.990 . S
Li441 O500 1.970 . S
Li441 O501 1.956 . S
Li441 O503 1.961 . S
Li442 N487 1.990 . S
Li442 O500 1.961 . S
Li442 O502 1.956 . S
Li442 O503 1.970 . S
Li443 N493 1.990 . S
Li443 O501 1.961 . S
Li443 O502 1.970 . S
Li443 O503 1.956 . S
C444 C446 1.348 . S
C444 C447 1.356 . S
C444 O500 1.325 . S
N445 C448 1.314 . S
N445 C449 1.279 . S
C446 C444 1.348 . S
C446 C448 1.353 . S
C446 H504 0.929 . S
C447 C444 1.356 . S
C447 C449 1.358 . S
C447 H505 0.930 . S
C448 N445 1.314 . S
C448 C446 1.353 . S
C448 H506 0.930 . S
C449 N445 1.279 . S
C449 C447 1.358 . S
C449 H507 0.930 . S
C450 C453 1.348 . S
C450 C454 1.356 . S
C450 O501 1.325 . S
C451 N452 1.279 . S
C451 C454 1.358 1_554 S
C451 H508 0.930 . S
N452 C451 1.279 . S
N452 C455 1.314 . S
C453 C450 1.348 . S
C453 C455 1.353 1_556 S
C453 H509 0.929 . S
C454 C450 1.356 . S
C454 C451 1.358 1_556 S
C454 H510 0.930 . S
C455 N452 1.314 . S
C455 C453 1.353 1_554 S
C455 H511 0.930 . S
C456 N457 1.314 . S
C456 C461 1.353 . S
C456 H462 0.930 . S
N457 Li440 1.990 . S
N457 C456 1.314 . S
N457 C459 1.279 . S
C458 C459 1.358 . S
C458 C460 1.356 . S
C458 H512 0.930 . S
C459 N457 1.279 . S
C459 C458 1.358 . S
C459 H463 0.930 . S
C460 C458 1.356 . S
C460 C461 1.348 . S
C461 C456 1.353 . S
C461 C460 1.348 . S
C461 H513 0.929 . S
H462 C456 0.930 . S
H463 C459 0.930 . S
C464 N465 1.314 . S
C464 C466 1.353 1_556 S
C464 H470 0.930 . S
N465 Li441 1.990 . S
N465 C464 1.314 . S
N465 C468 1.279 1_556 S
C466 C464 1.353 1_554 S
C466 C469 1.348 . S
C466 H514 0.929 . S
C467 C468 1.358 . S
C467 C469 1.356 . S
C467 H515 0.930 . S
C468 N465 1.279 1_554 S
C468 C467 1.358 . S
C468 H471 0.930 . S
C469 C466 1.348 . S
C469 C467 1.356 . S
H470 C464 0.930 . S
H471 C468 0.930 . S
C472 C474 1.348 . S
C472 C475 1.356 . S
C472 O502 1.325 . S
N473 C476 1.314 . S
N473 C477 1.279 . S
C474 C472 1.348 . S
C474 C476 1.353 . S
C474 H516 0.929 . S
C475 C472 1.356 . S
C475 C477 1.358 . S
C475 H517 0.930 . S
C476 N473 1.314 . S
C476 C474 1.353 . S
C476 H518 0.930 . S
C477 N473 1.279 . S
C477 C475 1.358 . S
C477 H519 0.930 . S
C478 C479 1.348 . S
C478 C480 1.356 . S
C478 O503 1.325 . S
C479 C478 1.348 . S
C479 C481 1.353 . S
C479 H520 0.929 . S
C480 C478 1.356 . S
C480 C482 1.358 . S
C480 H521 0.930 . S
C481 C479 1.353 . S
C481 N483 1.314 . S
C481 H522 0.930 . S
C482 C480 1.358 . S
C482 N483 1.279 . S
C482 H523 0.930 . S
N483 C481 1.314 . S
N483 C482 1.279 . S
C484 C486 1.353 . S
C484 N487 1.314 . S
C484 H490 0.930 . S
C485 N487 1.279 . S
C485 C488 1.358 . S
C485 H491 0.930 . S
C486 C484 1.353 . S
C486 C489 1.348 . S
C486 H524 0.929 . S
N487 Li442 1.990 . S
N487 C484 1.314 . S
N487 C485 1.279 . S
C488 C485 1.358 . S
C488 C489 1.356 . S
C488 H525 0.930 . S
C489 C486 1.348 . S
C489 C488 1.356 . S
H490 C484 0.930 . S
H491 C485 0.930 . S
C492 N493 1.314 . S
C492 C494 1.353 . S
C492 H498 0.930 . S
N493 Li443 1.990 . S
N493 C492 1.314 . S
N493 C496 1.279 . S
C494 C492 1.353 . S
C494 C497 1.348 . S
C494 H526 0.929 . S
C495 C496 1.358 . S
C495 C497 1.356 . S
C495 H527 0.930 . S
C496 N493 1.279 . S
C496 C495 1.358 . S
C496 H499 0.930 . S
C497 C494 1.348 . S
C497 C495 1.356 . S
H498 C492 0.930 . S
H499 C496 0.930 . S
O500 Li440 1.956 . S
O500 Li441 1.970 . S
O500 Li442 1.961 . S
O500 C444 1.325 . S
O501 Li440 1.970 . S
O501 Li441 1.956 . S
O501 Li443 1.961 . S
O501 C450 1.325 . S
O502 Li440 1.961 . S
O502 Li442 1.956 . S
O502 Li443 1.970 . S
O502 C472 1.325 . S
O503 Li441 1.961 . S
O503 Li442 1.970 . S
O503 Li443 1.956 . S
O503 C478 1.325 . S
H504 C446 0.929 . S
H505 C447 0.930 . S
H506 C448 0.930 . S
H507 C449 0.930 . S
H508 C451 0.930 . S
H509 C453 0.929 . S
H510 C454 0.930 . S
H511 C455 0.930 . S
H512 C458 0.930 . S
H513 C461 0.929 . S
H514 C466 0.929 . S
H515 C467 0.930 . S
H516 C474 0.929 . S
H517 C475 0.930 . S
H518 C476 0.930 . S
H519 C477 0.930 . S
H520 C479 0.929 . S
H521 C480 0.930 . S
H522 C481 0.930 . S
H523 C482 0.930 . S
H524 C486 0.929 . S
H525 C488 0.930 . S
H526 C494 0.929 . S
H527 C495 0.930 . S
Li528 N545 1.990 . S
Li528 O588 1.956 . S
Li528 O589 1.970 . S
Li528 O590 1.961 . S
Li529 N553 1.990 . S
Li529 O588 1.970 . S
Li529 O589 1.956 . S
Li529 O591 1.961 . S
Li530 N575 1.990 . S
Li530 O588 1.961 . S
Li530 O590 1.956 . S
Li530 O591 1.970 . S
Li531 N581 1.990 . S
Li531 O589 1.961 . S
Li531 O590 1.970 . S
Li531 O591 1.956 . S
C532 C534 1.348 . S
C532 C535 1.356 . S
C532 O588 1.325 . S
N533 C536 1.314 . S
N533 C537 1.279 . S
C534 C532 1.348 . S
C534 C536 1.353 . S
C534 H592 0.929 . S
C535 C532 1.356 . S
C535 C537 1.358 . S
C535 H593 0.930 . S
C536 N533 1.314 . S
C536 C534 1.353 . S
C536 H594 0.930 . S
C537 N533 1.279 . S
C537 C535 1.358 . S
C537 H595 0.930 . S
C538 C541 1.359 . S
C538 C542 1.356 . S
C538 O589 1.325 . S
C539 N540 1.279 . S
C539 C542 1.358 1_554 S
C539 H596 0.930 . S
N540 C539 1.279 . S
N540 C543 1.314 . S
C541 C538 1.359 . S
C541 C543 1.337 1_556 S
C541 H597 0.934 . S
C542 C538 1.356 . S
C542 C539 1.358 1_556 S
C542 H598 0.930 . S
C543 N540 1.314 . S
C543 C541 1.337 1_554 S
C543 H599 0.930 . S
C544 N545 1.314 . S
C544 C549 1.353 . S
C544 H550 0.930 . S
N545 Li528 1.990 . S
N545 C544 1.314 . S
N545 C547 1.279 . S
C546 C547 1.358 . S
C546 C548 1.356 . S
C546 H600 0.930 . S
C547 N545 1.279 . S
C547 C546 1.358 . S
C547 H551 0.930 . S
C548 C546 1.356 . S
C548 C549 1.348 . S
C549 C544 1.353 . S
C549 C548 1.348 . S
C549 H601 0.929 . S
H550 C544 0.930 . S
H551 C547 0.930 . S
C552 N553 1.314 . S
C552 C554 1.353 1_556 S
C552 H558 0.930 . S
N553 Li529 1.990 . S
N553 C552 1.314 . S
N553 C556 1.279 1_556 S
C554 C552 1.353 1_554 S
C554 C557 1.348 . S
C554 H602 0.929 . S
C555 C556 1.358 . S
C555 C557 1.356 . S
C555 H603 0.930 . S
C556 N553 1.279 1_554 S
C556 C555 1.358 . S
C556 H559 0.930 . S
C557 C554 1.348 . S
C557 C555 1.356 . S
H558 C552 0.930 . S
H559 C556 0.930 . S
C560 C562 1.348 . S
C560 C563 1.356 . S
C560 O590 1.325 . S
N561 C564 1.314 . S
N561 C565 1.279 . S
C562 C560 1.348 . S
C562 C564 1.353 . S
C562 H604 0.929 . S
C563 C560 1.356 . S
C563 C565 1.358 . S
C563 H605 0.930 . S
C564 N561 1.314 . S
C564 C562 1.353 . S
C564 H606 0.930 . S
C565 N561 1.279 . S
C565 C563 1.358 . S
C565 H607 0.930 . S
C566 C567 1.348 . S
C566 C568 1.356 . S
C566 O591 1.325 . S
C567 C566 1.348 . S
C567 C569 1.353 . S
C567 H608 0.929 . S
C568 C566 1.356 . S
C568 C570 1.358 . S
C568 H609 0.930 . S
C569 C567 1.353 . S
C569 N571 1.314 . S
C569 H610 0.930 . S
C570 C568 1.358 . S
C570 N571 1.279 . S
C570 H611 0.930 . S
N571 C569 1.314 . S
N571 C570 1.279 . S
C572 C574 1.353 . S
C572 N575 1.314 . S
C572 H578 0.930 . S
C573 N575 1.279 . S
C573 C576 1.358 . S
C573 H579 0.930 . S
C574 C572 1.353 . S
C574 C577 1.348 . S
C574 H612 0.929 . S
N575 Li530 1.990 . S
N575 C572 1.314 . S
N575 C573 1.279 . S
C576 C573 1.358 . S
C576 C577 1.356 . S
C576 H613 0.930 . S
C577 C574 1.348 . S
C577 C576 1.356 . S
H578 C572 0.930 . S
H579 C573 0.930 . S
C580 N581 1.314 . S
C580 C582 1.353 . S
C580 H586 0.930 . S
N581 Li531 1.990 . S
N581 C580 1.314 . S
N581 C584 1.279 . S
C582 C580 1.353 . S
C582 C585 1.348 . S
C582 H614 0.929 . S
C583 C584 1.358 . S
C583 C585 1.356 . S
C583 H615 0.930 . S
C584 N581 1.279 . S
C584 C583 1.358 . S
C584 H587 0.930 . S
C585 C582 1.348 . S
C585 C583 1.356 . S
H586 C580 0.930 . S
H587 C584 0.930 . S
O588 Li528 1.956 . S
O588 Li529 1.970 . S
O588 Li530 1.961 . S
O588 C532 1.325 . S
O589 Li528 1.970 . S
O589 Li529 1.956 . S
O589 Li531 1.961 . S
O589 C538 1.325 . S
O590 Li528 1.961 . S
O590 Li530 1.956 . S
O590 Li531 1.970 . S
O590 C560 1.325 . S
O591 Li529 1.961 . S
O591 Li530 1.970 . S
O591 Li531 1.956 . S
O591 C566 1.325 . S
H592 C534 0.929 . S
H593 C535 0.930 . S
H594 C536 0.930 . S
H595 C537 0.930 . S
H596 C539 0.930 . S
H597 C541 0.934 . S
H598 C542 0.930 . S
H599 C543 0.930 . S
H600 C546 0.930 . S
H601 C549 0.929 . S
H602 C554 0.929 . S
H603 C555 0.930 . S
H604 C562 0.929 . S
H605 C563 0.930 . S
H606 C564 0.930 . S
H607 C565 0.930 . S
H608 C567 0.929 . S
H609 C568 0.930 . S
H610 C569 0.930 . S
H611 C570 0.930 . S
H612 C574 0.929 . S
H613 C576 0.930 . S
H614 C582 0.929 . S
H615 C583 0.930 . S
Li616 N633 1.990 . S
Li616 O676 1.956 . S
Li616 O677 1.970 . S
Li616 O678 1.961 . S
Li617 N641 1.990 . S
Li617 O676 1.970 . S
Li617 O677 1.956 . S
Li617 O679 1.961 1_554 S
Li618 N663 1.990 . S
Li618 O676 1.961 . S
Li618 O678 1.956 . S
Li618 O679 1.970 1_554 S
Li619 N669 1.990 . S
Li619 O677 1.961 1_556 S
Li619 O678 1.970 1_556 S
Li619 O679 1.956 . S
C620 C622 1.348 . S
C620 C623 1.356 . S
C620 O676 1.325 . S
N621 C624 1.314 . S
N621 C625 1.279 . S
C622 C620 1.348 . S
C622 C624 1.353 . S
C622 H680 0.929 . S
C623 C620 1.356 . S
C623 C625 1.358 . S
C623 H681 0.930 . S
C624 N621 1.314 . S
C624 C622 1.353 . S
C624 H682 0.930 . S
C625 N621 1.279 . S
C625 C623 1.358 . S
C625 H683 0.930 . S
C626 C629 1.348 . S
C626 C630 1.356 . S
C626 O677 1.325 . S
C627 N628 1.279 . S
C627 C630 1.358 . S
C627 H684 0.930 . S
N628 C627 1.279 . S
N628 C631 1.314 . S
C629 C626 1.348 . S
C629 C631 1.353 . S
C629 H685 0.929 . S
C630 C626 1.356 . S
C630 C627 1.358 . S
C630 H686 0.930 1_554 S
C631 N628 1.314 . S
C631 C629 1.353 . S
C631 H687 0.930 . S
C632 N633 1.314 . S
C632 C637 1.353 . S
C632 H638 0.930 . S
N633 Li616 1.990 . S
N633 C632 1.314 . S
N633 C635 1.279 . S
C634 C635 1.358 . S
C634 C636 1.356 . S
C634 H688 0.930 . S
C635 N633 1.279 . S
C635 C634 1.358 . S
C635 H639 0.930 . S
C636 C634 1.356 . S
C636 C637 1.348 . S
C637 C632 1.353 . S
C637 C636 1.348 . S
C637 H689 0.929 . S
H638 C632 0.930 . S
H639 C635 0.930 . S
C640 N641 1.314 . S
C640 C642 1.353 . S
C640 H646 0.930 . S
N641 Li617 1.990 . S
N641 C640 1.314 . S
N641 C644 1.279 . S
C642 C640 1.353 . S
C642 C645 1.348 . S
C642 H690 0.929 . S
C643 C644 1.358 . S
C643 C645 1.356 . S
C643 H691 0.930 . S
C644 N641 1.279 . S
C644 C643 1.358 . S
C644 H647 0.930 . S
C645 C642 1.348 . S
C645 C643 1.356 . S
H646 C640 0.930 . S
H647 C644 0.930 . S
C648 C650 1.348 1_554 S
C648 C651 1.356 . S
C648 O678 1.325 . S
N649 C652 1.314 . S
N649 C653 1.279 1_556 S
C650 C648 1.348 1_556 S
C650 C652 1.353 . S
C650 H692 0.929 . S
C651 C648 1.356 . S
C651 C653 1.358 . S
C651 H693 0.930 . S
C652 N649 1.314 . S
C652 C650 1.353 . S
C652 H694 0.930 . S
C653 N649 1.279 1_554 S
C653 C651 1.358 . S
C653 H695 0.930 . S
C654 C655 1.348 . S
C654 C656 1.356 . S
C654 O679 1.325 . S
C655 C654 1.348 . S
C655 C657 1.353 . S
C655 H696 0.929 . S
C656 C654 1.356 . S
C656 C658 1.358 . S
C656 H697 0.930 . S
C657 C655 1.353 . S
C657 N659 1.314 . S
C657 H698 0.930 . S
C658 C656 1.358 . S
C658 N659 1.279 . S
C658 H699 0.930 . S
N659 C657 1.314 . S
N659 C658 1.279 . S
C660 C662 1.353 . S
C660 N663 1.314 . S
C660 H666 0.930 . S
C661 N663 1.279 1_556 S
C661 C664 1.358 . S
C661 H667 0.930 . S
C662 C660 1.353 . S
C662 C665 1.348 1_554 S
C662 H700 0.929 . S
N663 Li618 1.990 . S
N663 C660 1.314 . S
N663 C661 1.279 1_554 S
C664 C661 1.358 . S
C664 C665 1.356 . S
C664 H701 0.930 . S
C665 C662 1.348 1_556 S
C665 C664 1.356 . S
H666 C660 0.930 . S
H667 C661 0.930 . S
C668 N669 1.314 . S
C668 C670 1.353 . S
C668 H674 0.930 . S
N669 Li619 1.990 . S
N669 C668 1.314 . S
N669 C672 1.279 . S
C670 C668 1.353 . S
C670 C673 1.348 . S
C670 H702 0.929 . S
C671 C672 1.358 . S
C671 C673 1.356 . S
C671 H703 0.930 . S
C672 N669 1.279 . S
C672 C671 1.358 . S
C672 H675 0.930 . S
C673 C670 1.348 . S
C673 C671 1.356 . S
H674 C668 0.930 . S
H675 C672 0.930 . S
O676 Li616 1.956 . S
O676 Li617 1.970 . S
O676 Li618 1.961 . S
O676 C620 1.325 . S
O677 Li616 1.970 . S
O677 Li617 1.956 . S
O677 Li619 1.961 1_554 S
O677 C626 1.325 . S
O678 Li616 1.961 . S
O678 Li618 1.956 . S
O678 Li619 1.970 1_554 S
O678 C648 1.325 . S
O679 Li617 1.961 1_556 S
O679 Li618 1.970 1_556 S
O679 Li619 1.956 . S
O679 C654 1.325 . S
H680 C622 0.929 . S
H681 C623 0.930 . S
H682 C624 0.930 . S
H683 C625 0.930 . S
H684 C627 0.930 . S
H685 C629 0.929 . S
H686 C630 0.930 1_556 S
H687 C631 0.930 . S
H688 C634 0.930 . S
H689 C637 0.929 . S
H690 C642 0.929 . S
H691 C643 0.930 . S
H692 C650 0.929 . S
H693 C651 0.930 . S
H694 C652 0.930 . S
H695 C653 0.930 . S
H696 C655 0.929 . S
H697 C656 0.930 . S
H698 C657 0.930 . S
H699 C658 0.930 . S
H700 C662 0.929 . S
H701 C664 0.930 . S
H702 C670 0.929 . S
H703 C671 0.930 . S
Li704 N721 1.990 . S
Li704 O764 1.956 . S
Li704 O765 1.970 . S
Li704 O766 1.961 . S
Li705 N729 1.990 . S
Li705 O764 1.970 . S
Li705 O765 1.956 . S
Li705 O767 1.961 . S
Li706 N751 1.990 . S
Li706 O764 1.961 . S
Li706 O766 1.956 . S
Li706 O767 1.970 . S
Li707 N757 1.990 . S
Li707 O765 1.961 . S
Li707 O766 1.970 . S
Li707 O767 1.956 . S
C708 C710 1.348 . S
C708 C711 1.356 . S
C708 O764 1.325 . S
N709 C712 1.314 . S
N709 C713 1.279 . S
C710 C708 1.348 . S
C710 C712 1.353 . S
C710 H768 0.929 . S
C711 C708 1.356 . S
C711 C713 1.358 . S
C711 H769 0.930 . S
C712 N709 1.314 . S
C712 C710 1.353 . S
C712 H770 0.930 . S
C713 N709 1.279 . S
C713 C711 1.358 . S
C713 H771 0.930 . S
C714 C717 1.348 . S
C714 C718 1.356 . S
C714 O765 1.325 . S
C715 N716 1.279 . S
C715 C718 1.358 . S
C715 H772 0.930 . S
N716 C715 1.279 . S
N716 C719 1.314 . S
C717 C714 1.348 . S
C717 C719 1.353 . S
C717 H773 0.929 . S
C718 C714 1.356 . S
C718 C715 1.358 . S
C718 H774 0.930 . S
C719 N716 1.314 . S
C719 C717 1.353 . S
C719 H775 0.930 . S
C720 N721 1.314 . S
C720 C725 1.353 . S
C720 H726 0.930 . S
N721 Li704 1.990 . S
N721 C720 1.314 . S
N721 C723 1.279 . S
C722 C723 1.358 . S
C722 C724 1.356 . S
C722 H776 0.930 . S
C723 N721 1.279 . S
C723 C722 1.358 . S
C723 H727 0.930 . S
C724 C722 1.356 . S
C724 C725 1.348 . S
C725 C720 1.353 . S
C725 C724 1.348 . S
C725 H777 0.929 . S
H726 C720 0.930 . S
H727 C723 0.930 . S
C728 N729 1.314 . S
C728 C730 1.353 . S
C728 H734 0.930 . S
N729 Li705 1.990 . S
N729 C728 1.314 . S
N729 C732 1.279 . S
C730 C728 1.353 . S
C730 C733 1.348 . S
C730 H778 0.929 . S
C731 C732 1.358 . S
C731 C733 1.356 . S
C731 H779 0.930 . S
C732 N729 1.279 . S
C732 C731 1.358 . S
C732 H735 0.930 . S
C733 C730 1.348 . S
C733 C731 1.356 . S
H734 C728 0.930 . S
H735 C732 0.930 . S
C736 C738 1.348 . S
C736 C739 1.356 . S
C736 O766 1.325 . S
N737 C740 1.314 . S
N737 C741 1.279 . S
C738 C736 1.348 . S
C738 C740 1.353 . S
C738 H780 0.929 . S
C739 C736 1.356 . S
C739 C741 1.358 . S
C739 H781 0.930 . S
C740 N737 1.314 . S
C740 C738 1.353 . S
C740 H782 0.930 . S
C741 N737 1.279 . S
C741 C739 1.358 . S
C741 H783 0.930 . S
C742 C743 1.348 . S
C742 C744 1.356 . S
C742 O767 1.325 . S
C743 C742 1.348 . S
C743 C745 1.353 . S
C743 H784 0.929 . S
C744 C742 1.356 . S
C744 C746 1.358 . S
C744 H785 0.930 . S
C745 C743 1.353 . S
C745 N747 1.314 . S
C745 H786 0.930 . S
C746 C744 1.358 . S
C746 N747 1.279 . S
C746 H787 0.930 . S
N747 C745 1.314 . S
N747 C746 1.279 . S
C748 C750 1.353 . S
C748 N751 1.314 . S
C748 H754 0.930 . S
C749 N751 1.279 . S
C749 C752 1.358 . S
C749 H755 0.930 . S
C750 C748 1.353 . S
C750 C753 1.348 . S
C750 H788 0.929 . S
N751 Li706 1.990 . S
N751 C748 1.314 . S
N751 C749 1.279 . S
C752 C749 1.358 . S
C752 C753 1.356 . S
C752 H789 0.930 . S
C753 C750 1.348 . S
C753 C752 1.356 . S
H754 C748 0.930 . S
H755 C749 0.930 . S
C756 N757 1.314 . S
C756 C758 1.353 . S
C756 H762 0.930 . S
N757 Li707 1.990 . S
N757 C756 1.314 . S
N757 C760 1.279 . S
C758 C756 1.353 . S
C758 C761 1.348 . S
C758 H790 0.929 . S
C759 C760 1.358 . S
C759 C761 1.356 . S
C759 H791 0.930 1_554 S
C760 N757 1.279 . S
C760 C759 1.358 . S
C760 H763 0.930 . S
C761 C758 1.348 . S
C761 C759 1.356 . S
H762 C756 0.930 . S
H763 C760 0.930 . S
O764 Li704 1.956 . S
O764 Li705 1.970 . S
O764 Li706 1.961 . S
O764 C708 1.325 . S
O765 Li704 1.970 . S
O765 Li705 1.956 . S
O765 Li707 1.961 . S
O765 C714 1.325 . S
O766 Li704 1.961 . S
O766 Li706 1.956 . S
O766 Li707 1.970 . S
O766 C736 1.325 . S
O767 Li705 1.961 . S
O767 Li706 1.970 . S
O767 Li707 1.956 . S
O767 C742 1.325 . S
H768 C710 0.929 . S
H769 C711 0.930 . S
H770 C712 0.930 . S
H771 C713 0.930 . S
H772 C715 0.930 . S
H773 C717 0.929 . S
H774 C718 0.930 . S
H775 C719 0.930 . S
H776 C722 0.930 . S
H777 C725 0.929 . S
H778 C730 0.929 . S
H779 C731 0.930 . S
H780 C738 0.929 . S
H781 C739 0.930 . S
H782 C740 0.930 . S
H783 C741 0.930 . S
H784 C743 0.929 . S
H785 C744 0.930 . S
H786 C745 0.930 . S
H787 C746 0.930 . S
H788 C750 0.929 . S
H789 C752 0.930 . S
H790 C758 0.929 . S
H791 C759 0.930 1_556 S
Li792 N809 1.990 . S
Li792 O852 1.956 . S
Li792 O853 1.970 . S
Li792 O854 1.961 . S
Li793 N817 1.990 . S
Li793 O852 1.970 . S
Li793 O853 1.956 . S
Li793 O855 1.961 . S
Li794 N839 1.990 . S
Li794 O852 1.961 . S
Li794 O854 1.956 . S
Li794 O855 1.970 . S
Li795 N845 1.990 . S
Li795 O853 1.961 . S
Li795 O854 1.970 . S
Li795 O855 1.956 . S
C796 C798 1.348 . S
C796 C799 1.356 . S
C796 O852 1.325 . S
N797 C800 1.314 . S
N797 C801 1.279 . S
C798 C796 1.348 . S
C798 C800 1.353 . S
C798 H856 0.929 . S
C799 C796 1.356 . S
C799 C801 1.358 . S
C799 H857 0.930 . S
C800 N797 1.314 . S
C800 C798 1.353 . S
C800 H858 0.930 . S
C801 N797 1.279 . S
C801 C799 1.358 . S
C801 H859 0.930 . S
C802 C805 1.348 . S
C802 C806 1.356 . S
C802 O853 1.325 . S
C803 N804 1.279 . S
C803 C806 1.358 . S
C803 H860 0.930 . S
N804 C803 1.279 . S
N804 C807 1.314 . S
C805 C802 1.348 . S
C805 C807 1.353 . S
C805 H861 0.929 . S
C806 C802 1.356 . S
C806 C803 1.358 . S
C806 H862 0.930 . S
C807 N804 1.314 . S
C807 C805 1.353 . S
C807 H863 0.930 . S
C808 N809 1.314 . S
C808 C813 1.353 . S
C808 H814 0.930 . S
N809 Li792 1.990 . S
N809 C808 1.314 . S
N809 C811 1.279 . S
C810 C811 1.358 . S
C810 C812 1.356 . S
C810 H864 0.930 . S
C811 N809 1.279 . S
C811 C810 1.358 . S
C811 H815 0.930 . S
C812 C810 1.356 . S
C812 C813 1.348 . S
C813 C808 1.353 . S
C813 C812 1.348 . S
C813 H865 0.929 . S
H814 C808 0.930 . S
H815 C811 0.930 . S
C816 N817 1.314 . S
C816 C818 1.353 . S
C816 H822 0.930 . S
N817 Li793 1.990 . S
N817 C816 1.314 . S
N817 C820 1.279 . S
C818 C816 1.353 . S
C818 C821 1.348 . S
C818 H866 0.929 . S
C819 C820 1.358 . S
C819 C821 1.356 . S
C819 H867 0.930 . S
C820 N817 1.279 . S
C820 C819 1.358 . S
C820 H823 0.930 . S
C821 C818 1.348 . S
C821 C819 1.356 . S
H822 C816 0.930 . S
H823 C820 0.930 . S
C824 C826 1.348 . S
C824 C827 1.356 . S
C824 O854 1.325 . S
N825 C828 1.314 . S
N825 C829 1.279 . S
C826 C824 1.348 . S
C826 C828 1.353 . S
C826 H868 0.929 . S
C827 C824 1.356 . S
C827 C829 1.358 . S
C827 H869 0.930 . S
C828 N825 1.314 . S
C828 C826 1.353 . S
C828 H870 0.930 . S
C829 N825 1.279 . S
C829 C827 1.358 . S
C829 H871 0.930 . S
C830 C831 1.348 . S
C830 C832 1.356 . S
C830 O855 1.325 . S
C831 C830 1.348 . S
C831 C833 1.353 . S
C831 H872 0.929 . S
C832 C830 1.356 . S
C832 C834 1.358 . S
C832 H873 0.930 . S
C833 C831 1.353 . S
C833 N835 1.314 . S
C833 H874 0.930 . S
C834 C832 1.358 . S
C834 N835 1.279 . S
C834 H875 0.930 . S
N835 C833 1.314 . S
N835 C834 1.279 . S
C836 C838 1.353 . S
C836 N839 1.314 . S
C836 H842 0.930 . S
C837 N839 1.279 . S
C837 C840 1.358 . S
C837 H843 0.930 . S
C838 C836 1.353 . S
C838 C841 1.348 . S
C838 H876 0.929 . S
N839 Li794 1.990 . S
N839 C836 1.314 . S
N839 C837 1.279 . S
C840 C837 1.358 . S
C840 C841 1.356 . S
C840 H877 0.930 . S
C841 C838 1.348 . S
C841 C840 1.356 . S
H842 C836 0.930 . S
H843 C837 0.930 . S
C844 N845 1.314 . S
C844 C846 1.353 . S
C844 H850 0.930 . S
N845 Li795 1.990 . S
N845 C844 1.314 . S
N845 C848 1.279 . S
C846 C844 1.353 . S
C846 C849 1.348 . S
C846 H878 0.929 . S
C847 C848 1.358 . S
C847 C849 1.356 . S
C847 H879 0.930 . S
C848 N845 1.279 . S
C848 C847 1.358 . S
C848 H851 0.930 . S
C849 C846 1.348 . S
C849 C847 1.356 . S
H850 C844 0.930 . S
H851 C848 0.930 . S
O852 Li792 1.956 . S
O852 Li793 1.970 . S
O852 Li794 1.961 . S
O852 C796 1.325 . S
O853 Li792 1.970 . S
O853 Li793 1.956 . S
O853 Li795 1.961 . S
O853 C802 1.325 . S
O854 Li792 1.961 . S
O854 Li794 1.956 . S
O854 Li795 1.970 . S
O854 C824 1.325 . S
O855 Li793 1.961 . S
O855 Li794 1.970 . S
O855 Li795 1.956 . S
O855 C830 1.325 . S
H856 C798 0.929 . S
H857 C799 0.930 . S
H858 C800 0.930 . S
H859 C801 0.930 . S
H860 C803 0.930 . S
H861 C805 0.929 . S
H862 C806 0.930 . S
H863 C807 0.930 . S
H864 C810 0.930 . S
H865 C813 0.929 . S
H866 C818 0.929 . S
H867 C819 0.930 . S
H868 C826 0.929 . S
H869 C827 0.930 . S
H870 C828 0.930 . S
H871 C829 0.930 . S
H872 C831 0.929 . S
H873 C832 0.930 . S
H874 C833 0.930 . S
H875 C834 0.930 . S
H876 C838 0.929 . S
H877 C840 0.930 . S
H878 C846 0.929 . S
H879 C847 0.930 . S
Li880 N897 1.990 . S
Li880 O940 1.956 . S
Li880 O941 1.970 . S
Li880 O942 1.961 . S
Li881 N905 1.990 . S
Li881 O940 1.970 . S
Li881 O941 1.956 . S
Li881 O943 1.961 . S
Li882 N927 1.990 . S
Li882 O940 1.961 . S
Li882 O942 1.956 . S
Li882 O943 1.970 . S
Li883 N933 1.990 . S
Li883 O941 1.961 . S
Li883 O942 1.970 . S
Li883 O943 1.956 . S
C884 C886 1.348 . S
C884 C887 1.356 . S
C884 O940 1.325 . S
N885 C888 1.314 . S
N885 C889 1.279 . S
C886 C884 1.348 . S
C886 C888 1.353 . S
C886 H944 0.929 . S
C887 C884 1.356 . S
C887 C889 1.358 . S
C887 H945 0.930 . S
C888 N885 1.314 . S
C888 C886 1.353 . S
C888 H946 0.930 . S
C889 N885 1.279 . S
C889 C887 1.358 . S
C889 H947 0.930 . S
C890 C893 1.348 . S
C890 C894 1.356 . S
C890 O941 1.325 . S
C891 N892 1.279 . S
C891 C894 1.358 . S
C891 H948 0.930 . S
N892 C891 1.279 . S
N892 C895 1.314 . S
C893 C890 1.348 . S
C893 C895 1.353 . S
C893 H949 0.929 . S
C894 C890 1.356 . S
C894 C891 1.358 . S
C894 H950 0.930 . S
C895 N892 1.314 . S
C895 C893 1.353 . S
C895 H951 0.930 . S
C896 N897 1.314 . S
C896 C901 1.353 . S
C896 H902 0.930 . S
N897 Li880 1.990 . S
N897 C896 1.314 . S
N897 C899 1.279 . S
C898 C899 1.358 . S
C898 C900 1.356 . S
C898 H952 0.930 . S
C899 N897 1.279 . S
C899 C898 1.358 . S
C899 H903 0.930 . S
C900 C898 1.356 . S
C900 C901 1.348 . S
C901 C896 1.353 . S
C901 C900 1.348 . S
C901 H953 0.929 . S
H902 C896 0.930 . S
H903 C899 0.930 . S
C904 N905 1.314 . S
C904 C906 1.353 . S
C904 H910 0.930 . S
N905 Li881 1.990 . S
N905 C904 1.314 . S
N905 C908 1.279 . S
C906 C904 1.353 . S
C906 C909 1.348 . S
C906 H954 0.929 . S
C907 C908 1.358 . S
C907 C909 1.356 . S
C907 H955 0.930 . S
C908 N905 1.279 . S
C908 C907 1.358 . S
C908 H911 0.930 . S
C909 C906 1.348 . S
C909 C907 1.356 . S
H910 C904 0.930 . S
H911 C908 0.930 . S
C912 C914 1.348 . S
C912 C915 1.356 . S
C912 O942 1.325 . S
N913 C916 1.314 . S
N913 C917 1.279 . S
C914 C912 1.348 . S
C914 C916 1.353 . S
C914 H956 0.929 . S
C915 C912 1.356 . S
C915 C917 1.358 . S
C915 H957 0.930 . S
C916 N913 1.314 . S
C916 C914 1.353 . S
C916 H958 0.930 . S
C917 N913 1.279 . S
C917 C915 1.358 . S
C917 H959 0.930 . S
C918 C919 1.348 . S
C918 C920 1.356 . S
C918 O943 1.325 . S
C919 C918 1.348 . S
C919 C921 1.353 . S
C919 H960 0.929 . S
C920 C918 1.356 . S
C920 C922 1.358 . S
C920 H961 0.930 . S
C921 C919 1.353 . S
C921 N923 1.314 . S
C921 H962 0.930 . S
C922 C920 1.358 . S
C922 N923 1.279 . S
C922 H963 0.930 . S
N923 C921 1.314 . S
N923 C922 1.279 . S
C924 C926 1.353 . S
C924 N927 1.314 . S
C924 H930 0.930 . S
C925 N927 1.279 . S
C925 C928 1.358 . S
C925 H931 0.930 . S
C926 C924 1.353 . S
C926 C929 1.348 . S
C926 H964 0.929 . S
N927 Li882 1.990 . S
N927 C924 1.314 . S
N927 C925 1.279 . S
C928 C925 1.358 . S
C928 C929 1.356 . S
C928 H965 0.930 . S
C929 C926 1.348 . S
C929 C928 1.356 . S
H930 C924 0.930 . S
H931 C925 0.930 . S
C932 N933 1.314 . S
C932 C934 1.353 . S
C932 H938 0.930 . S
N933 Li883 1.990 . S
N933 C932 1.314 . S
N933 C936 1.279 . S
C934 C932 1.353 . S
C934 C937 1.348 . S
C934 H966 0.929 . S
C935 C936 1.358 . S
C935 C937 1.356 . S
C935 H967 0.930 . S
C936 N933 1.279 . S
C936 C935 1.358 . S
C936 H939 0.930 . S
C937 C934 1.348 . S
C937 C935 1.356 . S
H938 C932 0.930 . S
H939 C936 0.930 . S
O940 Li880 1.956 . S
O940 Li881 1.970 . S
O940 Li882 1.961 . S
O940 C884 1.325 . S
O941 Li880 1.970 . S
O941 Li881 1.956 . S
O941 Li883 1.961 . S
O941 C890 1.325 . S
O942 Li880 1.961 . S
O942 Li882 1.956 . S
O942 Li883 1.970 . S
O942 C912 1.325 . S
O943 Li881 1.961 . S
O943 Li882 1.970 . S
O943 Li883 1.956 . S
O943 C918 1.325 . S
H944 C886 0.929 . S
H945 C887 0.930 . S
H946 C888 0.930 . S
H947 C889 0.930 . S
H948 C891 0.930 . S
H949 C893 0.929 . S
H950 C894 0.930 . S
H951 C895 0.930 . S
H952 C898 0.930 . S
H953 C901 0.929 . S
H954 C906 0.929 . S
H955 C907 0.930 . S
H956 C914 0.929 . S
H957 C915 0.930 . S
H958 C916 0.930 . S
H959 C917 0.930 . S
H960 C919 0.929 . S
H961 C920 0.930 . S
H962 C921 0.930 . S
H963 C922 0.930 . S
H964 C926 0.929 . S
H965 C928 0.930 . S
H966 C934 0.929 . S
H967 C935 0.930 . S
Li968 N985 1.990 . S
Li968 O1028 1.956 . S
Li968 O1029 1.970 . S
Li968 O1030 1.961 . S
Li969 N993 1.990 . S
Li969 O1028 1.970 . S
Li969 O1029 1.956 . S
Li969 O1031 1.961 . S
Li970 N1015 1.990 . S
Li970 O1028 1.961 . S
Li970 O1030 1.956 . S
Li970 O1031 1.970 . S
Li971 N1021 1.990 . S
Li971 O1029 1.961 . S
Li971 O1030 1.970 . S
Li971 O1031 1.956 . S
C972 C974 1.348 . S
C972 C975 1.356 . S
C972 O1028 1.325 . S
N973 C976 1.314 . S
N973 C977 1.279 . S
C974 C972 1.348 . S
C974 C976 1.353 . S
C974 H1032 0.929 . S
C975 C972 1.356 . S
C975 C977 1.358 . S
C975 H1033 0.930 . S
C976 N973 1.314 . S
C976 C974 1.353 . S
C976 H1034 0.930 . S
C977 N973 1.279 . S
C977 C975 1.358 . S
C977 H1035 0.930 . S
C978 C981 1.348 . S
C978 C982 1.356 . S
C978 O1029 1.325 . S
C979 N980 1.279 . S
C979 C982 1.358 . S
C979 H1036 0.930 . S
N980 C979 1.279 . S
N980 C983 1.314 . S
C981 C978 1.348 . S
C981 C983 1.353 . S
C981 H1037 0.929 . S
C982 C978 1.356 . S
C982 C979 1.358 . S
C982 H1038 0.930 . S
C983 N980 1.314 . S
C983 C981 1.353 . S
C983 H1039 0.930 . S
C984 N985 1.314 . S
C984 C989 1.353 . S
C984 H990 0.930 . S
N985 Li968 1.990 . S
N985 C984 1.314 . S
N985 C987 1.279 . S
C986 C987 1.358 . S
C986 C988 1.356 . S
C986 H1040 0.930 . S
C987 N985 1.279 . S
C987 C986 1.358 . S
C987 H991 0.930 . S
C988 C986 1.356 . S
C988 C989 1.348 . S
C989 C984 1.353 . S
C989 C988 1.348 . S
C989 H1041 0.929 . S
H990 C984 0.930 . S
H991 C987 0.930 . S
C992 N993 1.314 . S
C992 C994 1.353 . S
C992 H998 0.930 . S
N993 Li969 1.990 . S
N993 C992 1.314 . S
N993 C996 1.279 . S
C994 C992 1.353 . S
C994 C997 1.348 . S
C994 H1042 0.929 . S
C995 C996 1.358 . S
C995 C997 1.356 . S
C995 H1043 0.930 . S
C996 N993 1.279 . S
C996 C995 1.358 . S
C996 H999 0.930 . S
C997 C994 1.348 . S
C997 C995 1.356 . S
H998 C992 0.930 . S
H999 C996 0.930 . S
C1000 C1002 1.348 . S
C1000 C1003 1.356 . S
C1000 O1030 1.325 . S
N1001 C1004 1.314 . S
N1001 C1005 1.279 . S
C1002 C1000 1.348 . S
C1002 C1004 1.353 . S
C1002 H1044 0.929 . S
C1003 C1000 1.356 . S
C1003 C1005 1.358 . S
C1003 H1045 0.930 . S
C1004 N1001 1.314 . S
C1004 C1002 1.353 . S
C1004 H1046 0.930 . S
C1005 N1001 1.279 . S
C1005 C1003 1.358 . S
C1005 H1047 0.930 . S
C1006 C1007 1.348 . S
C1006 C1008 1.356 . S
C1006 O1031 1.325 . S
C1007 C1006 1.348 . S
C1007 C1009 1.353 . S
C1007 H1048 0.929 . S
C1008 C1006 1.356 . S
C1008 C1010 1.358 . S
C1008 H1049 0.930 . S
C1009 C1007 1.353 . S
C1009 N1011 1.314 . S
C1009 H1050 0.930 . S
C1010 C1008 1.358 . S
C1010 N1011 1.279 . S
C1010 H1051 0.930 . S
N1011 C1009 1.314 . S
N1011 C1010 1.279 . S
C1012 C1014 1.353 . S
C1012 N1015 1.314 . S
C1012 H1018 0.930 . S
C1013 N1015 1.279 . S
C1013 C1016 1.358 . S
C1013 H1019 0.930 . S
C1014 C1012 1.353 . S
C1014 C1017 1.348 . S
C1014 H1052 0.929 . S
N1015 Li970 1.990 . S
N1015 C1012 1.314 . S
N1015 C1013 1.279 . S
C1016 C1013 1.358 . S
C1016 C1017 1.356 . S
C1016 H1053 0.930 . S
C1017 C1014 1.348 . S
C1017 C1016 1.356 . S
H1018 C1012 0.930 . S
H1019 C1013 0.930 . S
C1020 N1021 1.314 . S
C1020 C1022 1.353 . S
C1020 H1026 0.930 . S
N1021 Li971 1.990 . S
N1021 C1020 1.314 . S
N1021 C1024 1.279 . S
C1022 C1020 1.353 . S
C1022 C1025 1.348 . S
C1022 H1054 0.929 . S
C1023 C1024 1.358 . S
C1023 C1025 1.356 . S
C1023 H1055 0.930 . S
C1024 N1021 1.279 . S
C1024 C1023 1.358 . S
C1024 H1027 0.930 . S
C1025 C1022 1.348 . S
C1025 C1023 1.356 . S
H1026 C1020 0.930 . S
H1027 C1024 0.930 . S
O1028 Li968 1.956 . S
O1028 Li969 1.970 . S
O1028 Li970 1.961 . S
O1028 C972 1.325 . S
O1029 Li968 1.970 . S
O1029 Li969 1.956 . S
O1029 Li971 1.961 . S
O1029 C978 1.325 . S
O1030 Li968 1.961 . S
O1030 Li970 1.956 . S
O1030 Li971 1.970 . S
O1030 C1000 1.325 . S
O1031 Li969 1.961 . S
O1031 Li970 1.970 . S
O1031 Li971 1.956 . S
O1031 C1006 1.325 . S
H1032 C974 0.929 . S
H1033 C975 0.930 . S
H1034 C976 0.930 . S
H1035 C977 0.930 . S
H1036 C979 0.930 . S
H1037 C981 0.929 . S
H1038 C982 0.930 . S
H1039 C983 0.930 . S
H1040 C986 0.930 . S
H1041 C989 0.929 . S
H1042 C994 0.929 . S
H1043 C995 0.930 . S
H1044 C1002 0.929 . S
H1045 C1003 0.930 . S
H1046 C1004 0.930 . S
H1047 C1005 0.930 . S
H1048 C1007 0.929 . S
H1049 C1008 0.930 . S
H1050 C1009 0.930 . S
H1051 C1010 0.930 . S
H1052 C1014 0.929 . S
H1053 C1016 0.930 . S
H1054 C1022 0.929 . S
H1055 C1023 0.930 . S
C1056 C1057 1.363 . S
C1056 C1062 1.379 . S
C1056 N1064 1.356 . S
C1057 C1056 1.363 . S
C1057 C1063 1.363 . S
C1058 C1059 1.363 . S
C1058 C1063 1.379 . S
C1058 N1065 1.356 . S
C1059 C1058 1.363 . S
C1059 C1062 1.363 . S
N1060 C1062 1.356 . S
N1060 H1072 0.984 . S
N1060 H1073 0.985 . S
N1061 C1063 1.356 . S
N1061 H1066 0.984 . S
N1061 H1067 0.985 . S
C1062 C1056 1.379 . S
C1062 C1059 1.363 . S
C1062 N1060 1.356 . S
C1063 C1057 1.363 . S
C1063 C1058 1.379 . S
C1063 N1061 1.356 . S
N1064 C1056 1.356 . S
N1064 H1070 0.984 . S
N1064 H1071 0.984 . S
N1065 C1058 1.356 . S
N1065 H1068 0.984 . S
N1065 H1069 0.985 . S
H1066 N1061 0.984 . S
H1067 N1061 0.985 . S
H1068 N1065 0.984 . S
H1069 N1065 0.985 . S
H1070 N1064 0.984 . S
H1071 N1064 0.984 . S
H1072 N1060 0.984 . S
H1073 N1060 0.985 . S
C1074 C1075 1.363 . S
C1074 C1080 1.379 . S
C1074 N1082 1.356 . S
C1075 C1074 1.363 . S
C1075 C1081 1.363 . S
C1076 C1077 1.363 . S
C1076 C1081 1.379 . S
C1076 N1083 1.356 . S
C1077 C1076 1.363 . S
C1077 C1080 1.363 . S
N1078 C1080 1.356 . S
N1078 H1090 0.984 . S
N1078 H1091 0.985 . S
N1079 C1081 1.356 . S
N1079 H1084 0.984 . S
N1079 H1085 0.985 . S
C1080 C1074 1.379 . S
C1080 C1077 1.363 . S
C1080 N1078 1.356 . S
C1081 C1075 1.363 . S
C1081 C1076 1.379 . S
C1081 N1079 1.356 . S
N1082 C1074 1.356 . S
N1082 H1088 0.984 . S
N1082 H1089 0.984 . S
N1083 C1076 1.356 . S
N1083 H1086 0.984 . S
N1083 H1087 0.985 . S
H1084 N1079 0.984 . S
H1085 N1079 0.985 . S
H1086 N1083 0.984 . S
H1087 N1083 0.985 . S
H1088 N1082 0.984 . S
H1089 N1082 0.984 . S
H1090 N1078 0.984 . S
H1091 N1078 0.985 . S
C1092 C1093 1.363 . S
C1092 C1098 1.379 . S
C1092 N1100 1.356 . S
C1093 C1092 1.363 . S
C1093 C1099 1.363 . S
C1094 C1095 1.363 . S
C1094 C1099 1.379 . S
C1094 N1101 1.356 . S
C1095 C1094 1.363 . S
C1095 C1098 1.363 . S
N1096 C1098 1.356 . S
N1096 H1108 0.984 . S
N1096 H1109 0.985 . S
N1097 C1099 1.356 . S
N1097 H1102 0.984 . S
N1097 H1103 0.985 . S
C1098 C1092 1.379 . S
C1098 C1095 1.363 . S
C1098 N1096 1.356 . S
C1099 C1093 1.363 . S
C1099 C1094 1.379 . S
C1099 N1097 1.356 . S
N1100 C1092 1.356 . S
N1100 H1106 0.984 . S
N1100 H1107 0.984 . S
N1101 C1094 1.356 . S
N1101 H1104 0.984 . S
N1101 H1105 0.985 . S
H1102 N1097 0.984 . S
H1103 N1097 0.985 . S
H1104 N1101 0.984 . S
H1105 N1101 0.985 . S
H1106 N1100 0.984 . S
H1107 N1100 0.984 . S
H1108 N1096 0.984 . S
H1109 N1096 0.985 . S
C1110 C1111 1.363 . S
C1110 C1116 1.379 . S
C1110 N1118 1.356 . S
C1111 C1110 1.363 . S
C1111 C1117 1.363 . S
C1112 C1113 1.363 . S
C1112 C1117 1.379 . S
C1112 N1119 1.356 . S
C1113 C1112 1.363 . S
C1113 C1116 1.363 . S
N1114 C1116 1.356 . S
N1114 H1126 0.984 . S
N1114 H1127 0.985 . S
N1115 C1117 1.356 . S
N1115 H1120 0.984 . S
N1115 H1121 0.985 . S
C1116 C1110 1.379 . S
C1116 C1113 1.363 . S
C1116 N1114 1.356 . S
C1117 C1111 1.363 . S
C1117 C1112 1.379 . S
C1117 N1115 1.356 . S
N1118 C1110 1.356 . S
N1118 H1124 0.984 . S
N1118 H1125 0.984 . S
N1119 C1112 1.356 . S
N1119 H1122 0.984 . S
N1119 H1123 0.985 . S
H1120 N1115 0.984 . S
H1121 N1115 0.985 . S
H1122 N1119 0.984 . S
H1123 N1119 0.985 . S
H1124 N1118 0.984 . S
H1125 N1118 0.984 . S
H1126 N1114 0.984 . S
H1127 N1114 0.985 . S
C1128 C1129 1.363 . S
C1128 C1134 1.379 . S
C1128 N1136 1.356 . S
C1129 C1128 1.363 . S
C1129 C1135 1.363 . S
C1130 C1131 1.359 1_554 S
C1130 C1135 1.376 1_554 S
C1130 N1137 1.363 . S
C1131 C1130 1.359 1_556 S
C1131 C1134 1.363 . S
N1132 C1134 1.356 . S
N1132 H1144 0.984 . S
N1132 H1145 0.985 . S
N1133 C1135 1.356 . S
N1133 H1138 0.984 . S
N1133 H1139 0.985 1_556 S
C1134 C1128 1.379 . S
C1134 C1131 1.363 . S
C1134 N1132 1.356 . S
C1135 C1129 1.363 . S
C1135 C1130 1.376 1_556 S
C1135 N1133 1.356 . S
N1136 C1128 1.356 . S
N1136 H1142 0.984 . S
N1136 H1143 0.984 . S
N1137 C1130 1.363 . S
N1137 H1140 0.984 . S
N1137 H1141 0.985 . S
H1138 N1133 0.984 . S
H1139 N1133 0.985 1_554 S
H1140 N1137 0.984 . S
H1141 N1137 0.985 . S
H1142 N1136 0.984 . S
H1143 N1136 0.984 . S
H1144 N1132 0.984 . S
H1145 N1132 0.985 . S
C1146 C1147 1.363 . S
C1146 C1152 1.379 . S
C1146 N1154 1.356 . S
C1147 C1146 1.363 . S
C1147 C1153 1.363 . S
C1148 C1149 1.363 . S
C1148 C1153 1.379 . S
C1148 N1155 1.356 . S
C1149 C1148 1.363 . S
C1149 C1152 1.363 . S
N1150 C1152 1.356 . S
N1150 H1162 0.984 . S
N1150 H1163 0.985 . S
N1151 C1153 1.356 . S
N1151 H1156 0.984 . S
N1151 H1157 0.985 . S
C1152 C1146 1.379 . S
C1152 C1149 1.363 . S
C1152 N1150 1.356 . S
C1153 C1147 1.363 . S
C1153 C1148 1.379 . S
C1153 N1151 1.356 . S
N1154 C1146 1.356 . S
N1154 H1160 0.984 . S
N1154 H1161 0.984 . S
N1155 C1148 1.356 . S
N1155 H1158 0.984 . S
N1155 H1159 0.985 . S
H1156 N1151 0.984 . S
H1157 N1151 0.985 . S
H1158 N1155 0.984 . S
H1159 N1155 0.985 . S
H1160 N1154 0.984 . S
H1161 N1154 0.984 . S
H1162 N1150 0.984 . S
H1163 N1150 0.985 . S
C1164 C1165 1.363 . S
C1164 C1170 1.379 . S
C1164 N1172 1.356 . S
C1165 C1164 1.363 . S
C1165 C1171 1.363 . S
C1166 C1167 1.363 . S
C1166 C1171 1.379 . S
C1166 N1173 1.356 . S
C1167 C1166 1.363 . S
C1167 C1170 1.363 . S
N1168 C1170 1.356 . S
N1168 H1180 0.984 . S
N1168 H1181 0.985 . S
N1169 C1171 1.356 . S
N1169 H1174 0.984 . S
N1169 H1175 0.985 . S
C1170 C1164 1.379 . S
C1170 C1167 1.363 . S
C1170 N1168 1.356 . S
C1171 C1165 1.363 . S
C1171 C1166 1.379 . S
C1171 N1169 1.356 . S
N1172 C1164 1.356 . S
N1172 H1178 0.984 1_554 S
N1172 H1179 0.984 . S
N1173 C1166 1.356 . S
N1173 H1176 0.984 . S
N1173 H1177 0.985 . S
H1174 N1169 0.984 . S
H1175 N1169 0.985 . S
H1176 N1173 0.984 . S
H1177 N1173 0.985 . S
H1178 N1172 0.984 1_556 S
H1179 N1172 0.984 . S
H1180 N1168 0.984 . S
H1181 N1168 0.985 . S
C1182 C1183 1.363 . S
C1182 C1188 1.379 . S
C1182 N1190 1.356 . S
C1183 C1182 1.363 . S
C1183 C1189 1.363 . S
C1184 C1185 1.363 . S
C1184 C1189 1.379 . S
C1184 N1191 1.356 . S
C1185 C1184 1.363 . S
C1185 C1188 1.363 . S
N1186 C1188 1.356 . S
N1186 H1198 0.984 . S
N1186 H1199 0.985 . S
N1187 C1189 1.356 . S
N1187 H1192 0.984 . S
N1187 H1193 0.985 . S
C1188 C1182 1.379 . S
C1188 C1185 1.363 . S
C1188 N1186 1.356 . S
C1189 C1183 1.363 . S
C1189 C1184 1.379 . S
C1189 N1187 1.356 . S
N1190 C1182 1.356 . S
N1190 H1196 0.984 . S
N1190 H1197 0.984 . S
N1191 C1184 1.356 . S
N1191 H1194 0.984 . S
N1191 H1195 0.985 . S
H1192 N1187 0.984 . S
H1193 N1187 0.985 . S
H1194 N1191 0.984 . S
H1195 N1191 0.985 . S
H1196 N1190 0.984 . S
H1197 N1190 0.984 . S
H1198 N1186 0.984 . S
H1199 N1186 0.985 . S
C1200 C1201 1.363 . S
C1200 C1206 1.379 . S
C1200 N1208 1.356 . S
C1201 C1200 1.363 . S
C1201 C1207 1.363 . S
C1202 C1203 1.363 . S
C1202 C1207 1.379 . S
C1202 N1209 1.356 . S
C1203 C1202 1.363 . S
C1203 C1206 1.363 . S
N1204 C1206 1.356 . S
N1204 H1216 0.984 . S
N1204 H1217 0.985 . S
N1205 C1207 1.356 . S
N1205 H1210 0.984 . S
N1205 H1211 0.985 . S
C1206 C1200 1.379 . S
C1206 C1203 1.363 . S
C1206 N1204 1.356 . S
C1207 C1201 1.363 . S
C1207 C1202 1.379 . S
C1207 N1205 1.356 . S
N1208 C1200 1.356 . S
N1208 H1214 0.984 . S
N1208 H1215 0.984 . S
N1209 C1202 1.356 . S
N1209 H1212 0.984 . S
N1209 H1213 0.985 . S
H1210 N1205 0.984 . S
H1211 N1205 0.985 . S
H1212 N1209 0.984 . S
H1213 N1209 0.985 . S
H1214 N1208 0.984 . S
H1215 N1208 0.984 . S
H1216 N1204 0.984 . S
H1217 N1204 0.985 . S
C1218 C1219 1.363 . S
C1218 C1224 1.379 . S
C1218 N1226 1.356 . S
C1219 C1218 1.363 . S
C1219 C1225 1.363 . S
C1220 C1221 1.363 . S
C1220 C1225 1.379 . S
C1220 N1227 1.356 . S
C1221 C1220 1.363 . S
C1221 C1224 1.363 . S
N1222 C1224 1.356 . S
N1222 H1234 0.984 . S
N1222 H1235 0.985 . S
N1223 C1225 1.356 . S
N1223 H1228 0.984 . S
N1223 H1229 0.985 . S
C1224 C1218 1.379 . S
C1224 C1221 1.363 . S
C1224 N1222 1.356 . S
C1225 C1219 1.363 . S
C1225 C1220 1.379 . S
C1225 N1223 1.356 . S
N1226 C1218 1.356 . S
N1226 H1232 0.984 . S
N1226 H1233 0.984 . S
N1227 C1220 1.356 . S
N1227 H1230 0.984 . S
N1227 H1231 0.985 . S
H1228 N1223 0.984 . S
H1229 N1223 0.985 . S
H1230 N1227 0.984 . S
H1231 N1227 0.985 . S
H1232 N1226 0.984 . S
H1233 N1226 0.984 . S
H1234 N1222 0.984 . S
H1235 N1222 0.985 . S
C1236 C1237 1.363 . S
C1236 C1242 1.379 . S
C1236 N1244 1.356 . S
C1237 C1236 1.363 . S
C1237 C1243 1.363 . S
C1238 C1239 1.363 . S
C1238 C1243 1.379 . S
C1238 N1245 1.356 . S
C1239 C1238 1.363 . S
C1239 C1242 1.363 . S
N1240 C1242 1.356 . S
N1240 H1252 0.984 . S
N1240 H1253 0.985 . S
N1241 C1243 1.356 . S
N1241 H1246 0.984 . S
N1241 H1247 0.985 . S
C1242 C1236 1.379 . S
C1242 C1239 1.363 . S
C1242 N1240 1.356 . S
C1243 C1237 1.363 . S
C1243 C1238 1.379 . S
C1243 N1241 1.356 . S
N1244 C1236 1.356 . S
N1244 H1250 0.984 . S
N1244 H1251 0.984 . S
N1245 C1238 1.356 . S
N1245 H1248 0.984 . S
N1245 H1249 0.985 . S
H1246 N1241 0.984 . S
H1247 N1241 0.985 . S
H1248 N1245 0.984 . S
H1249 N1245 0.985 . S
H1250 N1244 0.984 . S
H1251 N1244 0.984 . S
H1252 N1240 0.984 . S
H1253 N1240 0.985 . S
C1254 C1255 1.363 . S
C1254 C1260 1.379 . S
C1254 N1262 1.356 . S
C1255 C1254 1.363 . S
C1255 C1261 1.363 . S
C1256 C1257 1.361 1_554 S
C1256 C1261 1.376 1_554 S
C1256 N1263 1.361 . S
C1257 C1256 1.361 1_556 S
C1257 C1260 1.363 . S
N1258 C1260 1.356 . S
N1258 H1270 0.984 . S
N1258 H1271 0.985 . S
N1259 C1261 1.356 . S
N1259 H1264 0.984 . S
N1259 H1265 0.985 1_556 S
C1260 C1254 1.379 . S
C1260 C1257 1.363 . S
C1260 N1258 1.356 . S
C1261 C1255 1.363 . S
C1261 C1256 1.376 1_556 S
C1261 N1259 1.356 . S
N1262 C1254 1.356 . S
N1262 H1268 0.984 . S
N1262 H1269 0.984 . S
N1263 C1256 1.361 . S
N1263 H1266 0.984 . S
N1263 H1267 0.985 . S
H1264 N1259 0.984 . S
H1265 N1259 0.985 1_554 S
H1266 N1263 0.984 . S
H1267 N1263 0.985 . S
H1268 N1262 0.984 . S
H1269 N1262 0.984 . S
H1270 N1258 0.984 . S
H1271 N1258 0.985 . S
C1272 C1273 1.363 . S
C1272 C1278 1.379 . S
C1272 N1280 1.356 . S
C1273 C1272 1.363 . S
C1273 C1279 1.363 . S
C1274 C1275 1.363 . S
C1274 C1279 1.379 . S
C1274 N1281 1.356 . S
C1275 C1274 1.363 . S
C1275 C1278 1.363 . S
N1276 C1278 1.356 . S
N1276 H1288 0.984 . S
N1276 H1289 0.985 . S
N1277 C1279 1.356 . S
N1277 H1282 0.984 . S
N1277 H1283 0.985 . S
C1278 C1272 1.379 . S
C1278 C1275 1.363 . S
C1278 N1276 1.356 . S
C1279 C1273 1.363 . S
C1279 C1274 1.379 . S
C1279 N1277 1.356 . S
N1280 C1272 1.356 . S
N1280 H1286 0.984 . S
N1280 H1287 0.984 . S
N1281 C1274 1.356 . S
N1281 H1284 0.984 . S
N1281 H1285 0.985 . S
H1282 N1277 0.984 . S
H1283 N1277 0.985 . S
H1284 N1281 0.984 . S
H1285 N1281 0.985 . S
H1286 N1280 0.984 . S
H1287 N1280 0.984 . S
H1288 N1276 0.984 . S
H1289 N1276 0.985 . S
C1290 C1291 1.363 . S
C1290 C1296 1.379 . S
C1290 N1298 1.356 . S
C1291 C1290 1.363 . S
C1291 C1297 1.363 . S
C1292 C1293 1.363 . S
C1292 C1297 1.379 . S
C1292 N1299 1.356 . S
C1293 C1292 1.363 . S
C1293 C1296 1.363 . S
N1294 C1296 1.356 . S
N1294 H1306 0.984 . S
N1294 H1307 0.985 . S
N1295 C1297 1.356 1_554 S
N1295 H1300 0.984 . S
N1295 H1301 0.985 . S
C1296 C1290 1.379 . S
C1296 C1293 1.363 . S
C1296 N1294 1.356 . S
C1297 C1291 1.363 . S
C1297 C1292 1.379 . S
C1297 N1295 1.356 1_556 S
N1298 C1290 1.356 . S
N1298 H1304 0.984 . S
N1298 H1305 0.984 1_556 S
N1299 C1292 1.356 . S
N1299 H1302 0.984 . S
N1299 H1303 0.985 . S
H1300 N1295 0.984 . S
H1301 N1295 0.985 . S
H1302 N1299 0.984 . S
H1303 N1299 0.985 . S
H1304 N1298 0.984 . S
H1305 N1298 0.984 1_554 S
H1306 N1294 0.984 . S
H1307 N1294 0.985 . S
C1308 C1309 1.363 . S
C1308 C1314 1.379 . S
C1308 N1316 1.356 . S
C1309 C1308 1.363 . S
C1309 C1315 1.363 . S
C1310 C1311 1.363 . S
C1310 C1315 1.379 . S
C1310 N1317 1.356 . S
C1311 C1310 1.363 . S
C1311 C1314 1.363 . S
N1312 C1314 1.356 . S
N1312 H1324 0.984 . S
N1312 H1325 0.985 . S
N1313 C1315 1.356 . S
N1313 H1318 0.984 . S
N1313 H1319 0.985 . S
C1314 C1308 1.379 . S
C1314 C1311 1.363 . S
C1314 N1312 1.356 . S
C1315 C1309 1.363 . S
C1315 C1310 1.379 . S
C1315 N1313 1.356 . S
N1316 C1308 1.356 . S
N1316 H1322 0.984 . S
N1316 H1323 0.984 . S
N1317 C1310 1.356 . S
N1317 H1320 0.984 . S
N1317 H1321 0.985 . S
H1318 N1313 0.984 . S
H1319 N1313 0.985 . S
H1320 N1317 0.984 . S
H1321 N1317 0.985 . S
H1322 N1316 0.984 . S
H1323 N1316 0.984 . S
H1324 N1312 0.984 . S
H1325 N1312 0.985 . S
C1326 C1327 1.363 . S
C1326 C1332 1.379 . S
C1326 N1334 1.356 . S
C1327 C1326 1.363 . S
C1327 C1333 1.363 . S
C1328 C1329 1.363 . S
C1328 C1333 1.379 . S
C1328 N1335 1.356 . S
C1329 C1328 1.363 . S
C1329 C1332 1.363 . S
N1330 C1332 1.356 . S
N1330 H1342 0.984 . S
N1330 H1343 0.985 . S
N1331 C1333 1.356 . S
N1331 H1336 0.984 . S
N1331 H1337 0.985 . S
C1332 C1326 1.379 . S
C1332 C1329 1.363 . S
C1332 N1330 1.356 . S
C1333 C1327 1.363 . S
C1333 C1328 1.379 . S
C1333 N1331 1.356 . S
N1334 C1326 1.356 . S
N1334 H1340 0.984 . S
N1334 H1341 0.984 . S
N1335 C1328 1.356 . S
N1335 H1338 0.984 . S
N1335 H1339 0.985 . S
H1336 N1331 0.984 . S
H1337 N1331 0.985 . S
H1338 N1335 0.984 . S
H1339 N1335 0.985 . S
H1340 N1334 0.984 . S
H1341 N1334 0.984 . S
H1342 N1330 0.984 . S
H1343 N1330 0.985 . S
C1344 C1345 1.363 . S
C1344 C1350 1.379 . S
C1344 N1352 1.356 . S
C1345 C1344 1.363 . S
C1345 C1351 1.363 . S
C1346 C1347 1.363 . S
C1346 C1351 1.379 . S
C1346 N1353 1.356 . S
C1347 C1346 1.363 . S
C1347 C1350 1.363 . S
N1348 C1350 1.356 . S
N1348 H1360 0.984 . S
N1348 H1361 0.985 . S
N1349 C1351 1.356 . S
N1349 H1354 0.984 . S
N1349 H1355 0.985 . S
C1350 C1344 1.379 . S
C1350 C1347 1.363 . S
C1350 N1348 1.356 . S
C1351 C1345 1.363 . S
C1351 C1346 1.379 . S
C1351 N1349 1.356 . S
N1352 C1344 1.356 . S
N1352 H1358 0.984 . S
N1352 H1359 0.984 . S
N1353 C1346 1.356 . S
N1353 H1356 0.984 . S
N1353 H1357 0.985 . S
H1354 N1349 0.984 . S
H1355 N1349 0.985 . S
H1356 N1353 0.984 . S
H1357 N1353 0.985 . S
H1358 N1352 0.984 . S
H1359 N1352 0.984 . S
H1360 N1348 0.984 . S
H1361 N1348 0.985 . S
C1362 C1363 1.363 . S
C1362 C1368 1.379 . S
C1362 N1370 1.356 . S
C1363 C1362 1.363 . S
C1363 C1369 1.363 . S
C1364 C1365 1.363 . S
C1364 C1369 1.379 . S
C1364 N1371 1.356 . S
C1365 C1364 1.363 . S
C1365 C1368 1.363 . S
N1366 C1368 1.356 . S
N1366 H1378 0.984 . S
N1366 H1379 0.985 . S
N1367 C1369 1.356 . S
N1367 H1372 0.984 . S
N1367 H1373 0.985 . S
C1368 C1362 1.379 . S
C1368 C1365 1.363 . S
C1368 N1366 1.356 . S
C1369 C1363 1.363 . S
C1369 C1364 1.379 . S
C1369 N1367 1.356 . S
N1370 C1362 1.356 . S
N1370 H1376 0.984 . S
N1370 H1377 0.984 . S
N1371 C1364 1.356 . S
N1371 H1374 0.984 . S
N1371 H1375 0.985 . S
H1372 N1367 0.984 . S
H1373 N1367 0.985 . S
H1374 N1371 0.984 . S
H1375 N1371 0.985 . S
H1376 N1370 0.984 . S
H1377 N1370 0.984 . S
H1378 N1366 0.984 . S
H1379 N1366 0.985 . S
C1380 C1381 1.361 . S
C1380 C1386 1.367 1_455 S
C1380 N1388 1.373 . S
C1381 C1380 1.361 . S
C1381 C1387 1.363 . S
C1382 C1383 1.361 . S
C1382 C1387 1.368 1_655 S
C1382 N1389 1.372 . S
C1383 C1382 1.361 . S
C1383 C1386 1.363 . S
N1384 C1386 1.356 . S
N1384 H1396 0.984 . S
N1384 H1397 0.985 . S
N1385 C1387 1.356 . S
N1385 H1390 0.984 . S
N1385 H1391 0.985 . S
C1386 C1380 1.367 1_655 S
C1386 C1383 1.363 . S
C1386 N1384 1.356 . S
C1387 C1381 1.363 . S
C1387 C1382 1.368 1_455 S
C1387 N1385 1.356 . S
N1388 C1380 1.373 . S
N1388 H1394 0.994 1_455 S
N1388 H1395 0.984 . S
N1389 C1382 1.372 . S
N1389 H1392 0.984 . S
N1389 H1393 0.995 1_655 S
H1390 N1385 0.984 . S
H1391 N1385 0.985 . S
H1392 N1389 0.984 . S
H1393 N1389 0.995 1_455 S
H1394 N1388 0.994 1_655 S
H1395 N1388 0.984 . S
H1396 N1384 0.984 . S
H1397 N1384 0.985 . S
C1398 C1399 1.363 1_545 S
C1398 C1404 1.379 1_556 S
C1398 N1406 1.356 . S
C1399 C1398 1.363 1_565 S
C1399 C1405 1.363 1_556 S
C1400 C1401 1.363 1_565 S
C1400 C1405 1.379 . S
C1400 N1407 1.356 . S
C1401 C1400 1.363 1_545 S
C1401 C1404 1.363 . S
N1402 C1404 1.356 . S
N1402 H1414 0.984 . S
N1402 H1415 0.985 . S
N1403 C1405 1.356 . S
N1403 H1408 0.984 1_554 S
N1403 H1409 0.985 . S
C1404 C1398 1.379 1_554 S
C1404 C1401 1.363 . S
C1404 N1402 1.356 . S
C1405 C1399 1.363 1_554 S
C1405 C1400 1.379 . S
C1405 N1403 1.356 . S
N1406 C1398 1.356 . S
N1406 H1412 0.984 . S
N1406 H1413 0.984 . S
N1407 C1400 1.356 . S
N1407 H1410 0.984 . S
N1407 H1411 0.985 . S
H1408 N1403 0.984 1_556 S
H1409 N1403 0.985 . S
H1410 N1407 0.984 . S
H1411 N1407 0.985 . S
H1412 N1406 0.984 . S
H1413 N1406 0.984 . S
H1414 N1402 0.984 . S
H1415 N1402 0.985 . S
C1416 C1417 1.363 . S
C1416 C1422 1.379 . S
C1416 N1424 1.356 . S
C1417 C1416 1.363 . S
C1417 C1423 1.363 . S
C1418 C1419 1.363 . S
C1418 C1423 1.379 . S
C1418 N1425 1.356 . S
C1419 C1418 1.363 . S
C1419 C1422 1.363 . S
N1420 C1422 1.356 . S
N1420 H1432 0.984 . S
N1420 H1433 0.985 . S
N1421 C1423 1.356 . S
N1421 H1426 0.984 . S
N1421 H1427 0.985 . S
C1422 C1416 1.379 . S
C1422 C1419 1.363 . S
C1422 N1420 1.356 . S
C1423 C1417 1.363 . S
C1423 C1418 1.379 . S
C1423 N1421 1.356 . S
N1424 C1416 1.356 . S
N1424 H1430 0.984 . S
N1424 H1431 0.984 . S
N1425 C1418 1.356 . S
N1425 H1428 0.984 . S
N1425 H1429 0.985 . S
H1426 N1421 0.984 . S
H1427 N1421 0.985 . S
H1428 N1425 0.984 . S
H1429 N1425 0.985 . S
H1430 N1424 0.984 . S
H1431 N1424 0.984 . S
H1432 N1420 0.984 . S
H1433 N1420 0.985 . S
C1434 C1435 1.363 . S
C1434 C1440 1.379 . S
C1434 N1442 1.356 . S
C1435 C1434 1.363 . S
C1435 C1441 1.363 1_455 S
C1436 C1437 1.363 . S
C1436 C1441 1.379 . S
C1436 N1443 1.356 . S
C1437 C1436 1.363 . S
C1437 C1440 1.363 1_655 S
N1438 C1440 1.356 . S
N1438 H1450 0.984 . S
N1438 H1451 0.985 . S
N1439 C1441 1.356 . S
N1439 H1444 0.984 . S
N1439 H1445 0.985 . S
C1440 C1434 1.379 . S
C1440 C1437 1.363 1_455 S
C1440 N1438 1.356 . S
C1441 C1435 1.363 1_655 S
C1441 C1436 1.379 . S
C1441 N1439 1.356 . S
N1442 C1434 1.356 . S
N1442 H1448 0.984 . S
N1442 H1449 0.984 . S
N1443 C1436 1.356 . S
N1443 H1446 0.984 . S
N1443 H1447 0.985 . S
H1444 N1439 0.984 . S
H1445 N1439 0.985 . S
H1446 N1443 0.984 . S
H1447 N1443 0.985 . S
H1448 N1442 0.984 . S
H1449 N1442 0.984 . S
H1450 N1438 0.984 . S
H1451 N1438 0.985 . S
C1452 C1453 1.363 1_565 S
C1452 C1458 1.379 . S
C1452 N1460 1.356 . S
C1453 C1452 1.363 1_545 S
C1453 C1459 1.363 . S
C1454 C1455 1.363 1_545 S
C1454 C1459 1.379 . S
C1454 N1461 1.356 . S
C1455 C1454 1.363 1_565 S
C1455 C1458 1.363 . S
N1456 C1458 1.356 . S
N1456 H1468 0.984 . S
N1456 H1469 0.985 . S
N1457 C1459 1.356 . S
N1457 H1462 0.984 . S
N1457 H1463 0.985 . S
C1458 C1452 1.379 . S
C1458 C1455 1.363 . S
C1458 N1456 1.356 . S
C1459 C1453 1.363 . S
C1459 C1454 1.379 . S
C1459 N1457 1.356 . S
N1460 C1452 1.356 . S
N1460 H1466 0.984 . S
N1460 H1467 0.984 . S
N1461 C1454 1.356 . S
N1461 H1464 0.984 . S
N1461 H1465 0.985 . S
H1462 N1457 0.984 . S
H1463 N1457 0.985 . S
H1464 N1461 0.984 . S
H1465 N1461 0.985 . S
H1466 N1460 0.984 . S
H1467 N1460 0.984 . S
H1468 N1456 0.984 . S
H1469 N1456 0.985 . S
C1470 C1471 1.363 . S
C1470 C1476 1.379 . S
C1470 N1478 1.356 . S
C1471 C1470 1.363 . S
C1471 C1477 1.363 . S
C1472 C1473 1.363 . S
C1472 C1477 1.379 . S
C1472 N1479 1.356 . S
C1473 C1472 1.363 . S
C1473 C1476 1.363 . S
N1474 C1476 1.356 . S
N1474 H1486 0.984 . S
N1474 H1487 0.985 . S
N1475 C1477 1.356 . S
N1475 H1480 0.984 . S
N1475 H1481 0.985 . S
C1476 C1470 1.379 . S
C1476 C1473 1.363 . S
C1476 N1474 1.356 . S
C1477 C1471 1.363 . S
C1477 C1472 1.379 . S
C1477 N1475 1.356 . S
N1478 C1470 1.356 . S
N1478 H1484 0.984 . S
N1478 H1485 0.984 . S
N1479 C1472 1.356 . S
N1479 H1482 0.984 . S
N1479 H1483 0.985 . S
H1480 N1475 0.984 . S
H1481 N1475 0.985 . S
H1482 N1479 0.984 . S
H1483 N1479 0.985 . S
H1484 N1478 0.984 . S
H1485 N1478 0.984 . S
H1486 N1474 0.984 . S
H1487 N1474 0.985 . S
C1057 C29 1.493 . S
C1059 C937 1.493 . S
C1075 C1017 1.493 . S
C1077 C117 1.493 . S
C1093 C196 1.493 . S
C1095 C577 1.493 . S
C1111 C293 1.493 . S
C1113 C673 1.493 . S
C1129 C372 1.493 . S
C1131 C761 1.493 1_556 S
C1147 C849 1.493 . S
C1149 C469 1.493 . S
C1165 C20 1.650 . S
C1167 C753 1.650 . S
C1183 C108 1.650 . S
C1185 C841 1.650 . S
C1201 C929 1.650 . S
C1203 C205 1.650 . S
C1219 C284 1.650 . S
C1221 C1025 1.650 . S
C1237 C381 1.649 . S
C1239 C585 1.649 . S
C1255 C460 1.650 . S
C1257 C665 1.650 . S
C1273 C900 0.735 . S
C1275 C49 0.735 . S
C1291 C137 0.736 1_556 S
C1293 C997 0.736 . S
C1309 C233 0.736 . S
C1311 C557 0.736 . S
C1327 C313 0.736 . S
C1329 C636 0.736 . S
C1345 C724 0.736 . S
C1347 C409 0.736 . S
C1363 C489 0.736 . S
C1365 C812 0.736 . S
C1381 C57 1.972 . S
C1383 C988 1.972 . S
C1399 C548 1.972 . S
C1401 C145 1.972 . S
C1417 C645 1.972 . S
C1419 C225 1.972 . S
C1435 C733 1.972 . S
C1437 C321 1.972 . S
C1453 C821 1.972 . S
C1455 C401 1.972 . S
C1471 C909 1.972 . S
C1473 C497 1.972 . S
