# Generated by pormake.
# Topology tzs, (4)-cn, num edge types: 1
# Building blocks:
#     Node 0, Type 0, BuildingBlock: AZAVOO_clean_sbu_0, # of connection points: 4
#     Node 1, Type 0, BuildingBlock: AZAVOO_clean_sbu_0, # of connection points: 4
#     Node 2, Type 0, BuildingBlock: AZAVOO_clean_sbu_0, # of connection points: 4
#     Node 3, Type 0, BuildingBlock: AZAVOO_clean_sbu_0, # of connection points: 4
#     Node 4, Type 0, BuildingBlock: AZAVOO_clean_sbu_0, # of connection points: 4
#     Node 5, Type 0, BuildingBlock: AZAVOO_clean_sbu_0, # of connection points: 4
#     Node 6, Type 0, BuildingBlock: AZAVOO_clean_sbu_0, # of connection points: 4
#     Node 7, Type 0, BuildingBlock: AZAVOO_clean_sbu_0, # of connection points: 4
#     Node 8, Type 0, BuildingBlock: AZAVOO_clean_sbu_0, # of connection points: 4
#     Node 9, Type 0, BuildingBlock: AZAVOO_clean_sbu_0, # of connection points: 4
#     Node 10, Type 0, BuildingBlock: AZAVOO_clean_sbu_0, # of connection points: 4
#     Node 11, Type 0, BuildingBlock: AZAVOO_clean_sbu_0, # of connection points: 4
#     Node 12, Type 0, BuildingBlock: AZAVOO_clean_sbu_0, # of connection points: 4
#     Node 13, Type 0, BuildingBlock: AZAVOO_clean_sbu_0, # of connection points: 4
#     Node 14, Type 0, BuildingBlock: AZAVOO_clean_sbu_0, # of connection points: 4
#     Node 15, Type 0, BuildingBlock: AZAVOO_clean_sbu_0, # of connection points: 4
#     Edge 16, Type (0, 0), BuildingBlock: CIFDUS_clean_linker_0, # of connection points: 2
#     Edge 17, Type (0, 0), BuildingBlock: CIFDUS_clean_linker_0, # of connection points: 2
#     Edge 18, Type (0, 0), BuildingBlock: CIFDUS_clean_linker_0, # of connection points: 2
#     Edge 19, Type (0, 0), BuildingBlock: CIFDUS_clean_linker_0, # of connection points: 2
#     Edge 20, Type (0, 0), BuildingBlock: CIFDUS_clean_linker_0, # of connection points: 2
#     Edge 21, Type (0, 0), BuildingBlock: CIFDUS_clean_linker_0, # of connection points: 2
#     Edge 22, Type (0, 0), BuildingBlock: CIFDUS_clean_linker_0, # of connection points: 2
#     Edge 23, Type (0, 0), BuildingBlock: CIFDUS_clean_linker_0, # of connection points: 2
#     Edge 24, Type (0, 0), BuildingBlock: CIFDUS_clean_linker_0, # of connection points: 2
#     Edge 25, Type (0, 0), BuildingBlock: CIFDUS_clean_linker_0, # of connection points: 2
#     Edge 26, Type (0, 0), BuildingBlock: CIFDUS_clean_linker_0, # of connection points: 2
#     Edge 27, Type (0, 0), BuildingBlock: CIFDUS_clean_linker_0, # of connection points: 2
#     Edge 28, Type (0, 0), BuildingBlock: CIFDUS_clean_linker_0, # of connection points: 2
#     Edge 29, Type (0, 0), BuildingBlock: CIFDUS_clean_linker_0, # of connection points: 2
#     Edge 30, Type (0, 0), BuildingBlock: CIFDUS_clean_linker_0, # of connection points: 2
#     Edge 31, Type (0, 0), BuildingBlock: CIFDUS_clean_linker_0, # of connection points: 2
#     Edge 32, Type (0, 0), BuildingBlock: CIFDUS_clean_linker_0, # of connection points: 2
#     Edge 33, Type (0, 0), BuildingBlock: CIFDUS_clean_linker_0, # of connection points: 2
#     Edge 34, Type (0, 0), BuildingBlock: CIFDUS_clean_linker_0, # of connection points: 2
#     Edge 35, Type (0, 0), BuildingBlock: CIFDUS_clean_linker_0, # of connection points: 2
#     Edge 36, Type (0, 0), BuildingBlock: CIFDUS_clean_linker_0, # of connection points: 2
#     Edge 37, Type (0, 0), BuildingBlock: CIFDUS_clean_linker_0, # of connection points: 2
#     Edge 38, Type (0, 0), BuildingBlock: CIFDUS_clean_linker_0, # of connection points: 2
#     Edge 39, Type (0, 0), BuildingBlock: CIFDUS_clean_linker_0, # of connection points: 2
#     Edge 40, Type (0, 0), BuildingBlock: CIFDUS_clean_linker_0, # of connection points: 2
#     Edge 41, Type (0, 0), BuildingBlock: CIFDUS_clean_linker_0, # of connection points: 2
#     Edge 42, Type (0, 0), BuildingBlock: CIFDUS_clean_linker_0, # of connection points: 2
#     Edge 43, Type (0, 0), BuildingBlock: CIFDUS_clean_linker_0, # of connection points: 2
#     Edge 44, Type (0, 0), BuildingBlock: CIFDUS_clean_linker_0, # of connection points: 2
#     Edge 45, Type (0, 0), BuildingBlock: CIFDUS_clean_linker_0, # of connection points: 2
#     Edge 46, Type (0, 0), BuildingBlock: CIFDUS_clean_linker_0, # of connection points: 2
#     Edge 47, Type (0, 0), BuildingBlock: CIFDUS_clean_linker_0, # of connection points: 2
# Relax obj value: 0.111
# Max RMSD: 0.119
# Mean RMSD: 0.119
data_MOF--net-tzs--node1-AZAVOO_clean_sbu_0--edge1-CIFDUS_clean_linker_0
_symmetry_space_group_name_H-M    P1
_symmetry_Int_Tables_number       1
_symmetry_cell_setting            triclinic
loop_
_symmetry_equiv_pos_as_xyz
'x, y, z'
_cell_length_a     42.472762
_cell_length_b     42.016644
_cell_length_c     36.739612
_cell_angle_alpha  89.58713
_cell_angle_beta   90.397673
_cell_angle_gamma 90.080686
loop_
_atom_site_label
_atom_site_type_symbol
_atom_site_fract_x
_atom_site_fract_y
_atom_site_fract_z
_atom_type_partial_charge
Mg0 Mg 0.13728 0.36441 0.14637 0.0
O1 O 0.08924 0.35365 0.17155 0.0
O2 O 0.07424 0.30578 0.15233 0.0
Mg3 Mg 0.10962 0.29028 0.10809 0.0
C4 C 0.06999 0.33036 0.17194 0.0
C5 C 0.16906 0.40931 0.20567 0.0
O6 O 0.19231 0.38873 0.20538 0.0
O7 O 0.1608 0.32614 0.18212 0.0
O8 O 0.14816 0.28183 0.15158 0.0
O9 O 0.1149 0.39001 0.09977 0.0
O10 O 0.12782 0.33907 0.09895 0.0
C11 C 0.16341 0.29622 0.17669 0.0
C12 C 0.11641 0.36354 0.08212 0.0
O13 O 0.14437 0.40406 0.18696 0.0
Mg14 Mg 0.65307 0.1525 0.15913 0.0
O15 O 0.66377 0.10085 0.17745 0.0
O16 O 0.70877 0.08687 0.15087 0.0
Mg17 Mg 0.72486 0.1275 0.11345 0.0
C18 C 0.68585 0.08082 0.17214 0.0
C19 C 0.58898 0.16607 0.1889 0.0
O20 O 0.58765 0.17381 0.15421 0.0
O21 O 0.69266 0.17168 0.19595 0.0
O22 O 0.7354 0.15672 0.16488 0.0
O23 O 0.62608 0.13563 0.11057 0.0
O24 O 0.6768 0.14697 0.11024 0.0
C25 C 0.72252 0.17069 0.19173 0.0
C26 C 0.65207 0.13795 0.09261 0.0
O27 O 0.61506 0.15653 0.20223 0.0
Mg28 Mg 0.83545 0.62879 0.16717 0.0
O29 O 0.88438 0.64694 0.18447 0.0
O30 O 0.89381 0.69173 0.15348 0.0
Mg31 Mg 0.85262 0.69969 0.11358 0.0
C32 C 0.90182 0.67084 0.17716 0.0
C33 C 0.81923 0.56954 0.20873 0.0
O34 O 0.80129 0.56905 0.17945 0.0
O35 O 0.81082 0.66868 0.19831 0.0
O36 O 0.82037 0.71064 0.16201 0.0
O37 O 0.85653 0.60002 0.12311 0.0
O38 O 0.83837 0.64904 0.11549 0.0
C39 C 0.80754 0.69816 0.19009 0.0
C40 C 0.85113 0.62406 0.1018 0.0
O41 O 0.83609 0.59402 0.21457 0.0
Mg42 Mg 0.3376 0.8522 0.1539 0.0
O43 O 0.32421 0.90218 0.17461 0.0
O44 O 0.27737 0.91375 0.14991 0.0
Mg45 Mg 0.26327 0.87428 0.11017 0.0
C46 C 0.3005 0.92064 0.17082 0.0
C47 C 0.40267 0.83934 0.18347 0.0
O48 O 0.40452 0.83412 0.14834 0.0
O49 O 0.30011 0.82855 0.18954 0.0
O50 O 0.2559 0.84022 0.15863 0.0
O51 O 0.36252 0.87241 0.10556 0.0
O52 O 0.31245 0.8585 0.10597 0.0
C53 C 0.27032 0.82617 0.18483 0.0
C54 C 0.33618 0.86919 0.08805 0.0
O55 O 0.37631 0.84754 0.19668 0.0
Mg56 Mg 0.13364 0.64413 0.31681 0.0
O57 O 0.08302 0.64829 0.29404 0.0
O58 O 0.06121 0.6916 0.31809 0.0
Mg59 Mg 0.0958 0.71168 0.36036 0.0
C60 C 0.06011 0.66777 0.29677 0.0
C61 C 0.16223 0.58537 0.28349 0.0
O62 O 0.17481 0.58624 0.31625 0.0
O63 O 0.15009 0.687 0.28374 0.0
O64 O 0.12874 0.72773 0.31398 0.0
O65 O 0.11836 0.61294 0.3621 0.0
O66 O 0.12057 0.66556 0.36507 0.0
C67 C 0.14617 0.71679 0.28875 0.0
C68 C 0.11424 0.63869 0.38055 0.0
O69 O 0.14497 0.60842 0.27306 0.0
Mg70 Mg 0.35185 0.15206 0.30327 0.0
O71 O 0.34185 0.10161 0.28253 0.0
O72 O 0.29466 0.08733 0.30357 0.0
Mg73 Mg 0.2779 0.12574 0.34365 0.0
C74 C 0.31906 0.08184 0.28447 0.0
C75 C 0.41781 0.1649 0.27667 0.0
O76 O 0.41927 0.16911 0.31202 0.0
O77 O 0.31377 0.17312 0.26532 0.0
O78 O 0.27015 0.16167 0.29697 0.0
O79 O 0.37685 0.1331 0.35267 0.0
O80 O 0.32613 0.14382 0.35033 0.0
C81 C 0.28415 0.17573 0.27069 0.0
C82 C 0.35002 0.1341 0.36902 0.0
O83 O 0.39137 0.15807 0.26217 0.0
Mg84 Mg 0.86513 0.34722 0.34529 0.0
O85 O 0.91153 0.33417 0.31618 0.0
O86 O 0.92334 0.28472 0.33412 0.0
Mg87 Mg 0.88846 0.26874 0.37824 0.0
C88 C 0.92886 0.30936 0.3146 0.0
C89 C 0.83003 0.39506 0.29419 0.0
O90 O 0.80698 0.37491 0.30043 0.0
O91 O 0.83734 0.31258 0.30932 0.0
O92 O 0.84962 0.26539 0.33418 0.0
O93 O 0.89016 0.36861 0.39311 0.0
O94 O 0.87546 0.3184 0.38986 0.0
C95 C 0.834 0.28236 0.31135 0.0
C96 C 0.88807 0.34093 0.40862 0.0
O97 O 0.85727 0.38927 0.30713 0.0
Mg98 Mg 0.63354 0.85053 0.31175 0.0
O99 O 0.64253 0.90075 0.28795 0.0
O100 O 0.6865 0.9193 0.31397 0.0
Mg101 Mg 0.70281 0.8834 0.35742 0.0
C102 C 0.66366 0.92221 0.29144 0.0
C103 C 0.57135 0.83137 0.27937 0.0
O104 O 0.56895 0.8257 0.31445 0.0
O105 O 0.67493 0.82946 0.28069 0.0
O106 O 0.71634 0.84834 0.31204 0.0
O107 O 0.6037 0.86988 0.35559 0.0
O108 O 0.65511 0.86261 0.36086 0.0
C109 C 0.70455 0.8312 0.28674 0.0
C110 C 0.62904 0.87173 0.37516 0.0
O111 O 0.59765 0.84085 0.26695 0.0
Mg112 Mg 0.84491 0.64457 0.82345 0.0
O113 O 0.83908 0.59566 0.79635 0.0
O114 O 0.79153 0.57674 0.81038 0.0
Mg115 Mg 0.76905 0.61176 0.85036 0.0
C116 C 0.81769 0.5744 0.79374 0.0
C117 C 0.91254 0.66159 0.80726 0.0
O118 O 0.91051 0.66262 0.84288 0.0
O119 O 0.81011 0.66782 0.78359 0.0
O120 O 0.76424 0.64904 0.80449 0.0
O121 O 0.86577 0.6223 0.87301 0.0
O122 O 0.81509 0.63237 0.8662 0.0
C123 C 0.78001 0.6668 0.78284 0.0
C124 C 0.83776 0.62209 0.88659 0.0
O125 O 0.88794 0.65522 0.78869 0.0
Mg126 Mg 0.34277 0.86258 0.80969 0.0
O127 O 0.39286 0.85373 0.7887 0.0
O128 O 0.41122 0.80966 0.81544 0.0
Mg129 Mg 0.37385 0.79273 0.85611 0.0
C130 C 0.41437 0.8329 0.79323 0.0
C131 C 0.31526 0.92053 0.77186 0.0
O132 O 0.29756 0.91717 0.80083 0.0
O133 O 0.32258 0.82113 0.77678 0.0
O134 O 0.34119 0.77922 0.80832 0.0
O135 O 0.36174 0.89196 0.85461 0.0
O136 O 0.35157 0.84035 0.8595 0.0
C137 C 0.32477 0.79113 0.78233 0.0
C138 C 0.36118 0.86636 0.87437 0.0
O139 O 0.33564 0.89929 0.76511 0.0
Mg140 Mg 0.1398 0.35438 0.79953 0.0
O141 O 0.1548 0.40561 0.78619 0.0
O142 O 0.20136 0.41438 0.81267 0.0
Mg143 Mg 0.21323 0.37041 0.84788 0.0
C144 C 0.17849 0.42348 0.79242 0.0
C145 C 0.08633 0.33364 0.74701 0.0
O146 O 0.09432 0.30598 0.76119 0.0
O147 O 0.17754 0.33365 0.76255 0.0
O148 O 0.22109 0.34076 0.7963 0.0
O149 O 0.11403 0.36981 0.8493 0.0
O150 O 0.16367 0.35438 0.84911 0.0
C151 C 0.20705 0.32974 0.76816 0.0
C152 C 0.13972 0.36396 0.8673 0.0
O153 O 0.1029 0.35788 0.75473 0.0
Mg154 Mg 0.64359 0.13877 0.81553 0.0
O155 O 0.59583 0.14752 0.78762 0.0
O156 O 0.57246 0.18908 0.81335 0.0
Mg157 Mg 0.60768 0.20872 0.85521 0.0
C158 C 0.57267 0.1666 0.79024 0.0
C159 C 0.6619 0.0744 0.78638 0.0
O160 O 0.66417 0.0713 0.8219 0.0
O161 O 0.66506 0.17959 0.78315 0.0
O162 O 0.64228 0.22188 0.80901 0.0
O163 O 0.62166 0.11066 0.86035 0.0
O164 O 0.63152 0.16227 0.8633 0.0
C165 C 0.66095 0.20961 0.78584 0.0
C166 C 0.62166 0.13665 0.87899 0.0
O167 O 0.65447 0.1014 0.77301 0.0
Mg168 Mg 0.8657 0.34685 0.68802 0.0
O169 O 0.84455 0.39624 0.69302 0.0
O170 O 0.80567 0.40336 0.65297 0.0
Mg171 Mg 0.80616 0.35799 0.61754 0.0
C172 C 0.82271 0.41326 0.67932 0.0
C173 C 0.90827 0.34958 0.76272 0.0
O174 O 0.91013 0.35555 0.7977 0.0
O175 O 0.82165 0.32289 0.70975 0.0
O176 O 0.7861 0.32781 0.66487 0.0
O177 O 0.90154 0.36576 0.6483 0.0
O178 O 0.85565 0.34479 0.63272 0.0
C179 C 0.79442 0.3174 0.69627 0.0
C180 C 0.88185 0.35747 0.62297 0.0
O181 O 0.88227 0.35387 0.74633 0.0
Mg182 Mg 0.63806 0.84716 0.65145 0.0
O183 O 0.58841 0.83665 0.67447 0.0
O184 O 0.57075 0.79351 0.64538 0.0
Mg185 Mg 0.60569 0.77985 0.601 0.0
C186 C 0.56761 0.81506 0.66941 0.0
C187 C 0.66073 0.90687 0.68673 0.0
O188 O 0.66736 0.90984 0.65199 0.0
O189 O 0.65853 0.80356 0.68053 0.0
O190 O 0.64009 0.76361 0.64625 0.0
O191 O 0.61918 0.87991 0.60888 0.0
O192 O 0.6257 0.82817 0.60138 0.0
C193 C 0.65682 0.77401 0.6727 0.0
C194 C 0.61695 0.85525 0.58818 0.0
O195 O 0.64875 0.88088 0.69798 0.0
Mg196 Mg 0.1275 0.65701 0.65745 0.0
O197 O 0.13754 0.60772 0.68318 0.0
O198 O 0.18328 0.59091 0.66061 0.0
Mg199 Mg 0.19954 0.62666 0.61702 0.0
C200 C 0.15972 0.58725 0.68165 0.0
C201 C 0.06506 0.67881 0.68345 0.0
O202 O 0.06663 0.68661 0.64881 0.0
O203 O 0.16672 0.68043 0.6906 0.0
O204 O 0.20974 0.66421 0.6612 0.0
O205 O 0.09978 0.63556 0.61278 0.0
O206 O 0.15105 0.6446 0.61014 0.0
C207 C 0.19649 0.681 0.68563 0.0
C208 C 0.12575 0.63412 0.59473 0.0
O209 O 0.08925 0.66672 0.69875 0.0
Mg210 Mg 0.34392 0.14399 0.64562 0.0
O211 O 0.39177 0.1525 0.67327 0.0
O212 O 0.41738 0.19125 0.64404 0.0
Mg213 Mg 0.38311 0.20999 0.6003 0.0
C214 C 0.41587 0.17021 0.66913 0.0
C215 C 0.30496 0.09822 0.69649 0.0
O216 O 0.28059 0.11195 0.68081 0.0
O217 O 0.32373 0.18715 0.67424 0.0
O218 O 0.34873 0.22673 0.6449 0.0
O219 O 0.36497 0.11235 0.60437 0.0
O220 O 0.35775 0.16409 0.59615 0.0
C221 C 0.3292 0.21672 0.66877 0.0
C222 C 0.36719 0.13721 0.58361 0.0
O223 O 0.33248 0.10872 0.69034 0.0
H224 H 0.24455 0.22122 0.29326 0.0
H225 H 0.28172 0.17844 0.19641 0.0
H226 H 0.24703 0.21193 0.15856 0.0
H227 H 0.20482 0.25218 0.15355 0.0
H228 H 0.17159 0.29854 0.25023 0.0
H229 H 0.20615 0.26495 0.28793 0.0
C230 C 0.24506 0.2194 0.26383 0.0
C231 C 0.26524 0.19726 0.24747 0.0
C232 C 0.22577 0.23927 0.24243 0.0
C233 C 0.26628 0.19534 0.20942 0.0
C234 C 0.24641 0.21438 0.18789 0.0
C235 C 0.20527 0.25489 0.18289 0.0
C236 C 0.18548 0.27739 0.1993 0.0
C237 C 0.22585 0.2362 0.20415 0.0
C238 C 0.1866 0.28127 0.23716 0.0
C239 C 0.20627 0.26205 0.25864 0.0
H240 H 0.83049 0.21944 0.29528 0.0
H241 H 0.78421 0.30921 0.27455 0.0
H242 H 0.74385 0.28217 0.23833 0.0
H243 H 0.72202 0.23277 0.21166 0.0
H244 H 0.77094 0.14413 0.22887 0.0
H245 H 0.80961 0.17076 0.2679 0.0
C246 C 0.81158 0.23315 0.28288 0.0
C247 C 0.81041 0.26633 0.28773 0.0
C248 C 0.7887 0.21752 0.26176 0.0
C249 C 0.78585 0.28368 0.27112 0.0
C250 C 0.76263 0.26821 0.25056 0.0
C251 C 0.74092 0.21936 0.2245 0.0
C252 C 0.74349 0.18653 0.21808 0.0
C253 C 0.76377 0.23511 0.24573 0.0
C254 C 0.76846 0.16938 0.23389 0.0
C255 C 0.7906 0.18462 0.25599 0.0
H256 H 0.81225 0.76173 0.20103 0.0
H257 H 0.75501 0.67997 0.22727 0.0
H258 H 0.71678 0.71436 0.25725 0.0
H259 H 0.69917 0.768 0.2751 0.0
H260 H 0.75883 0.84891 0.25368 0.0
H261 H 0.79644 0.81471 0.22224 0.0
C262 C 0.7915 0.75144 0.21354 0.0
C263 C 0.7864 0.71838 0.21186 0.0
C264 C 0.76989 0.77129 0.23112 0.0
C265 C 0.75959 0.70531 0.22848 0.0
C266 C 0.7376 0.72499 0.24534 0.0
C267 C 0.72027 0.77806 0.26314 0.0
C268 C 0.72606 0.8109 0.26588 0.0
C269 C 0.74235 0.75805 0.24651 0.0
C270 C 0.75384 0.82371 0.25136 0.0
C271 C 0.77535 0.80416 0.23359 0.0
H272 H 0.20774 0.82864 0.1989 0.0
H273 H 0.29156 0.77416 0.22261 0.0
H274 H 0.26007 0.73438 0.25493 0.0
H275 H 0.20841 0.71437 0.2751 0.0
H276 H 0.12535 0.77092 0.25566 0.0
H277 H 0.1567 0.81045 0.22242 0.0
C278 C 0.21914 0.80817 0.21137 0.0
C279 C 0.25192 0.80429 0.20822 0.0
C280 C 0.20095 0.78557 0.23015 0.0
C281 C 0.2664 0.77782 0.22484 0.0
C282 C 0.24838 0.75492 0.24305 0.0
C283 C 0.19724 0.73523 0.2632 0.0
C284 C 0.16464 0.73959 0.26701 0.0
C285 C 0.2156 0.75836 0.24547 0.0
C286 C 0.1504 0.76705 0.25255 0.0
C287 C 0.16832 0.78964 0.23376 0.0
H288 H 0.7174 0.78036 0.69521 0.0
H289 H 0.63873 0.71542 0.69592 0.0
H290 H 0.67034 0.67588 0.72893 0.0
H291 H 0.72006 0.66013 0.75816 0.0
H292 H 0.80004 0.72347 0.75406 0.0
H293 H 0.76847 0.76303 0.72108 0.0
C294 C 0.70722 0.75761 0.70291 0.0
C295 C 0.67572 0.75088 0.69379 0.0
C296 C 0.72586 0.73462 0.72077 0.0
C297 C 0.6629 0.72111 0.70298 0.0
C298 C 0.68097 0.69851 0.72171 0.0
C299 C 0.73067 0.6825 0.74981 0.0
C300 C 0.76231 0.6889 0.75872 0.0
C301 C 0.71246 0.70501 0.73072 0.0
C302 C 0.77579 0.71785 0.74736 0.0
C303 C 0.75768 0.7406 0.72877 0.0
H304 H 0.25994 0.67935 0.69636 0.0
H305 H 0.17718 0.73444 0.72103 0.0
H306 H 0.20994 0.7748 0.75028 0.0
H307 H 0.26229 0.79465 0.76882 0.0
H308 H 0.34439 0.73751 0.74868 0.0
H309 H 0.31189 0.69803 0.71705 0.0
C310 C 0.24904 0.70012 0.70828 0.0
C311 C 0.21613 0.70384 0.70643 0.0
C312 C 0.268 0.7231 0.72538 0.0
C313 C 0.20241 0.7308 0.72228 0.0
C314 C 0.22115 0.75405 0.73877 0.0
C315 C 0.273 0.77375 0.75697 0.0
C316 C 0.30565 0.76915 0.76026 0.0
C317 C 0.25398 0.75057 0.74026 0.0
C318 C 0.3193 0.7416 0.74592 0.0
C319 C 0.30072 0.719 0.72808 0.0
H320 H 0.27026 0.3294 0.75752 0.0
H321 H 0.1844 0.28201 0.72525 0.0
H322 H 0.21482 0.2419 0.69297 0.0
H323 H 0.26608 0.21884 0.67628 0.0
H324 H 0.3516 0.26835 0.70461 0.0
H325 H 0.32117 0.30889 0.73661 0.0
C326 C 0.2582 0.31048 0.74309 0.0
C327 C 0.22513 0.30862 0.74395 0.0
C328 C 0.27582 0.28761 0.72444 0.0
C329 C 0.20981 0.28414 0.72483 0.0
C330 C 0.22721 0.261 0.70665 0.0
C331 C 0.27793 0.23845 0.68972 0.0
C332 C 0.31092 0.24047 0.68889 0.0
C333 C 0.26022 0.2622 0.70682 0.0
C334 C 0.32618 0.2663 0.70539 0.0
C335 C 0.30881 0.28947 0.7235 0.0
H336 H 0.72403 0.20986 0.78461 0.0
H337 H 0.64264 0.25839 0.7413 0.0
H338 H 0.6768 0.29622 0.70892 0.0
H339 H 0.73018 0.31574 0.69387 0.0
H340 H 0.811 0.26985 0.7429 0.0
H341 H 0.77684 0.231 0.77251 0.0
C342 C 0.71391 0.22855 0.76771 0.0
C343 C 0.68109 0.23116 0.76456 0.0
C344 C 0.7336 0.25087 0.75065 0.0
C345 C 0.66797 0.25589 0.74359 0.0
C346 C 0.68746 0.27751 0.72527 0.0
C347 C 0.74022 0.29729 0.71116 0.0
C348 C 0.77306 0.29566 0.71614 0.0
C349 C 0.72034 0.27533 0.72879 0.0
C350 C 0.78579 0.2718 0.73886 0.0
C351 C 0.76629 0.24942 0.75562 0.0
H352 H 0.09588 0.38801 0.91389 0.0
H353 H 0.18474 0.33826 0.91124 0.0
H354 H 0.18323 0.33082 0.97695 0.0
H355 H 0.15679 0.33787 0.0352 0.0
H356 H 0.07098 0.3921 0.04005 0.0
H357 H 0.07068 0.3978 0.97341 0.0
C358 C 0.11505 0.37584 0.92778 0.0
C359 C 0.14037 0.36369 0.90759 0.0
C360 C 0.11423 0.37188 0.96586 0.0
C361 C 0.16506 0.34805 0.92603 0.0
C362 C 0.16411 0.34351 0.96363 0.0
C363 C 0.13772 0.35042 0.02154 0.0
C364 C 0.11347 0.36381 0.04215 0.0
C365 C 0.13869 0.35499 0.98373 0.0
C366 C 0.08952 0.38108 0.02447 0.0
C367 C 0.08954 0.38456 -0.0135 0.0
H368 H 0.66739 0.15529 0.92378 0.0
H369 H 0.57547 0.11197 0.92281 0.0
H370 H 0.57729 0.10676 -0.0104 0.0
H371 H 0.60522 0.11579 0.04813 0.0
H372 H 0.69921 0.15516 0.04691 0.0
H373 H 0.69681 0.15988 0.98087 0.0
C374 C 0.64761 0.14505 0.93834 0.0
C375 C 0.62093 0.13489 0.91892 0.0
C376 C 0.64952 0.14093 0.97613 0.0
C377 C 0.59592 0.12053 0.93758 0.0
C378 C 0.59711 0.11738 0.97559 0.0
C379 C 0.62532 0.12497 0.03334 0.0
C380 C 0.65229 0.13529 0.0525 0.0
C381 C 0.62385 0.12754 -0.00484 0.0
C382 C 0.67821 0.14696 0.03292 0.0
C383 C 0.67677 0.14996 -0.00486 0.0
H384 H 0.88074 0.60065 0.93634 0.0
H385 H 0.78518 0.63472 0.92592 0.0
H386 H 0.7817 0.63957 -0.00817 0.0
H387 H 0.80705 0.63817 0.05199 0.0
H388 H 0.90097 0.60079 0.06376 0.0
H389 H 0.90421 0.59377 -0.00247 0.0
C390 C 0.85895 0.60855 0.94853 0.0
C391 C 0.83337 0.61761 0.92618 0.0
C392 C 0.85714 0.61149 -0.01347 0.0
C393 C 0.80523 0.62759 0.94243 0.0
C394 C 0.80331 0.63071 0.98013 0.0
C395 C 0.82829 0.62873 0.0399 0.0
C396 C 0.8541 0.62083 0.06221 0.0
C397 C 0.8294 0.62362 0.00228 0.0
C398 C 0.88111 0.60755 0.04674 0.0
C399 C 0.88284 0.60336 0.00904 0.0
H400 H 0.38217 0.89011 0.04204 0.0
H401 H 0.28716 0.85329 0.04391 0.0
H402 H 0.28773 0.84745 0.97811 0.0
H403 H 0.31594 0.84988 0.92043 0.0
H404 H 0.40897 0.89049 0.9163 0.0
H405 H 0.40885 0.89725 0.9828 0.0
C406 C 0.36142 0.88132 0.02796 0.0
C407 C 0.33475 0.87195 0.04795 0.0
C408 C 0.36187 0.87798 -0.01009 0.0
C409 C 0.308 0.86073 0.02928 0.0
C410 C 0.30837 0.85707 -0.00836 0.0
C411 C 0.3363 0.85988 0.93427 0.0
C412 C 0.36281 0.86881 0.91412 0.0
C413 C 0.33539 0.86491 0.97186 0.0
C414 C 0.38864 0.88286 0.93174 0.0
C415 C 0.38842 0.88691 0.96956 0.0
H416 H 0.08376 0.65579 0.54614 0.0
H417 H 0.16698 0.59778 0.55636 0.0
H418 H 0.16783 0.59067 0.49007 0.0
H419 H 0.14725 0.6048 0.42927 0.0
H420 H 0.06945 0.67 0.41902 0.0
H421 H 0.06368 0.67052 0.48549 0.0
C422 C 0.10172 0.64113 0.53378 0.0
C423 C 0.12501 0.62685 0.55574 0.0
C424 C 0.10299 0.63874 0.49581 0.0
C425 C 0.14875 0.60869 0.53972 0.0
C426 C 0.14924 0.60475 0.50196 0.0
C427 C 0.12872 0.61864 0.44174 0.0
C428 C 0.10839 0.63693 0.41975 0.0
C429 C 0.12681 0.62015 0.47976 0.0
C430 C 0.08504 0.65557 0.43576 0.0
C431 C 0.08187 0.6559 0.47359 0.0
H432 H 0.32037 0.14021 0.53575 0.0
H433 H 0.42023 0.12424 0.5443 0.0
H434 H 0.42341 0.11854 0.47773 0.0
H435 H 0.39763 0.12142 0.41718 0.0
H436 H 0.29715 0.13648 0.41031 0.0
H437 H 0.29413 0.13835 0.47636 0.0
C438 C 0.34279 0.13547 0.52286 0.0
C439 C 0.37014 0.13321 0.54424 0.0
C440 C 0.34417 0.13173 0.48511 0.0
C441 C 0.39904 0.12643 0.5279 0.0
C442 C 0.40075 0.12309 0.49003 0.0
C443 C 0.375 0.12452 0.43016 0.0
C444 C 0.34767 0.12901 0.40876 0.0
C445 C 0.37346 0.12605 0.46833 0.0
C446 C 0.31854 0.13299 0.42602 0.0
C447 C 0.31679 0.13431 0.46383 0.0
H448 H 0.90952 0.38529 0.4572 0.0
H449 H 0.87775 0.28782 0.44965 0.0
H450 H 0.87417 0.28444 0.51563 0.0
H451 H 0.87419 0.31075 0.57482 0.0
H452 H 0.90802 0.407 0.58436 0.0
H453 H 0.91657 0.40945 0.51819 0.0
C454 C 0.9025 0.36309 0.47003 0.0
C455 C 0.89351 0.33697 0.44833 0.0
C456 C 0.90026 0.36132 0.50825 0.0
C457 C 0.88466 0.30835 0.4655 0.0
C458 C 0.88236 0.30644 0.5033 0.0
C459 C 0.88364 0.33219 0.56236 0.0
C460 C 0.88991 0.35889 0.58402 0.0
C461 C 0.88904 0.33306 0.52478 0.0
C462 C 0.90282 0.38629 0.56797 0.0
C463 C 0.90767 0.38764 0.53024 0.0
H464 H 0.64625 0.89524 0.54278 0.0
H465 H 0.57495 0.8223 0.54656 0.0
H466 H 0.56935 0.82484 0.48002 0.0
H467 H 0.58845 0.8443 0.42092 0.0
H468 H 0.66607 0.91033 0.4169 0.0
H469 H 0.66562 0.91446 0.48355 0.0
C470 C 0.62908 0.8804 0.52891 0.0
C471 C 0.61059 0.85901 0.54912 0.0
C472 C 0.62744 0.88072 0.49079 0.0
C473 C 0.58909 0.83912 0.53125 0.0
C474 C 0.58603 0.84052 0.49336 0.0
C475 C 0.60482 0.86005 0.43474 0.0
C476 C 0.62694 0.87744 0.41441 0.0
C477 C 0.60555 0.86075 0.47286 0.0
C478 C 0.64872 0.89703 0.43228 0.0
C479 C 0.64849 0.89926 0.47024 0.0
H480 H 0.19687 0.5323 0.29809 0.0
H481 H 0.12984 0.57165 0.22115 0.0
H482 H 0.12609 0.52043 0.19071 0.0
H483 H 0.13951 0.46403 0.18788 0.0
H484 H 0.20758 0.42437 0.26311 0.0
H485 H 0.2131 0.47628 0.29258 0.0
C486 C 0.18169 0.52977 0.27443 0.0
C487 C 0.16347 0.55573 0.26212 0.0
C488 C 0.17951 0.50017 0.25711 0.0
C489 C 0.14411 0.5521 0.23125 0.0
C490 C 0.14179 0.52276 0.21393 0.0
C491 C 0.15547 0.46667 0.21085 0.0
C492 C 0.17274 0.44034 0.22376 0.0
C493 C 0.15891 0.49654 0.22707 0.0
C494 C 0.19387 0.44429 0.25293 0.0
C495 C 0.19705 0.47393 0.26969 0.0
H496 H 0.52901 0.17035 0.16404 0.0
H497 H 0.58388 0.16273 0.26306 0.0
H498 H 0.53552 0.16275 0.2989 0.0
H499 H 0.47786 0.16402 0.30185 0.0
H500 H 0.42301 0.16908 0.20262 0.0
H501 H 0.4714 0.171 0.16694 0.0
C502 C 0.53045 0.16888 0.19349 0.0
C503 C 0.56 0.16669 0.21091 0.0
C504 C 0.50262 0.16837 0.21378 0.0
C505 C 0.56142 0.16442 0.24903 0.0
C506 C 0.5338 0.16445 0.2695 0.0
C507 C 0.47645 0.16571 0.27241 0.0
C508 C 0.44688 0.16655 0.25488 0.0
C509 C 0.5043 0.1663 0.25213 0.0
C510 C 0.44548 0.16838 0.21673 0.0
C511 C 0.47312 0.16951 0.19635 0.0
H512 H 0.78429 0.51556 0.20553 0.0
H513 H 0.86407 0.55745 0.26079 0.0
H514 H 0.8749 0.50678 0.29135 0.0
H515 H 0.86293 0.45009 0.30051 0.0
H516 H 0.78219 0.40866 0.24684 0.0
H517 H 0.77071 0.45965 0.21712 0.0
C518 C 0.8039 0.51371 0.22449 0.0
C519 C 0.82343 0.54022 0.23071 0.0
C520 C 0.81006 0.4845 0.24185 0.0
C521 C 0.84861 0.53745 0.25556 0.0
C522 C 0.85496 0.50842 0.27287 0.0
C523 C 0.84294 0.45219 0.28212 0.0
C524 C 0.82365 0.42559 0.27548 0.0
C525 C 0.83612 0.48169 0.26578 0.0
C526 C 0.79746 0.42879 0.2522 0.0
C527 C 0.79085 0.45793 0.23529 0.0
H528 H 0.51076 0.83005 0.30145 0.0
H529 H 0.56816 0.83113 0.20494 0.0
H530 H 0.52071 0.83254 0.16678 0.0
H531 H 0.46317 0.83526 0.16109 0.0
H532 H 0.40603 0.83706 0.25779 0.0
H533 H 0.45335 0.83279 0.29579 0.0
C534 C 0.51294 0.83029 0.27205 0.0
C535 C 0.54293 0.83034 0.25601 0.0
C536 C 0.48566 0.83184 0.25041 0.0
C537 C 0.54533 0.83106 0.21791 0.0
C538 C 0.51823 0.83191 0.19612 0.0
C539 C 0.46103 0.83457 0.19049 0.0
C540 C 0.43112 0.83643 0.20662 0.0
C541 C 0.48831 0.8326 0.21211 0.0
C542 C 0.42878 0.83577 0.24473 0.0
C543 C 0.4558 0.83327 0.26644 0.0
H544 H 0.77498 0.53834 0.75639 0.0
H545 H 0.87417 0.54633 0.78082 0.0
H546 H 0.88448 0.49777 0.74677 0.0
H547 H 0.86518 0.45191 0.71207 0.0
H548 H 0.76667 0.44519 0.68397 0.0
H549 H 0.75624 0.49451 0.71702 0.0
C550 C 0.79884 0.52943 0.75417 0.0
C551 C 0.82374 0.54575 0.77146 0.0
C552 C 0.80472 0.50178 0.73382 0.0
C553 C 0.8546 0.53424 0.76783 0.0
C554 C 0.86051 0.50642 0.74841 0.0
C555 C 0.84144 0.46135 0.71298 0.0
C556 C 0.81668 0.44477 0.69584 0.0
C557 C 0.83574 0.48986 0.73158 0.0
C558 C 0.78614 0.45754 0.69684 0.0
C559 C 0.78015 0.48564 0.71591 0.0
H560 H 0.53473 0.86463 0.69845 0.0
H561 H 0.53756 0.76214 0.69358 0.0
H562 H 0.49158 0.75857 0.73287 0.0
H563 H 0.44992 0.7844 0.76794 0.0
H564 H 0.44366 0.88678 0.76866 0.0
H565 H 0.49141 0.89064 0.73183 0.0
C566 C 0.52527 0.84157 0.70613 0.0
C567 C 0.53959 0.81369 0.69321 0.0
C568 C 0.49815 0.83968 0.72799 0.0
C569 C 0.52688 0.78395 0.703 0.0
C570 C 0.50062 0.78188 0.72556 0.0
C571 C 0.45914 0.80755 0.76021 0.0
C572 C 0.44346 0.83526 0.77128 0.0
C573 C 0.486 0.80955 0.73813 0.0
C574 C 0.45533 0.8651 0.76048 0.0
C575 C 0.48265 0.86731 0.73946 0.0
H576 H 0.12964 0.4606 0.76906 0.0
H577 H 0.23109 0.45736 0.77472 0.0
H578 H 0.23425 0.50764 0.74111 0.0
H579 H 0.20828 0.55175 0.7083 0.0
H580 H 0.10687 0.5569 0.70587 0.0
H581 H 0.1036 0.50683 0.74009 0.0
C582 C 0.15243 0.47098 0.76304 0.0
C583 C 0.18009 0.45509 0.77418 0.0
C584 C 0.15409 0.50023 0.7442 0.0
C585 C 0.20943 0.46908 0.76657 0.0
C586 C 0.21127 0.4978 0.74721 0.0
C587 C 0.18546 0.54193 0.71533 0.0
C588 C 0.15785 0.55789 0.70425 0.0
C589 C 0.18377 0.51344 0.7356 0.0
C590 C 0.12848 0.54512 0.71408 0.0
C591 C 0.12659 0.51643 0.73355 0.0
H592 H 0.47847 0.16347 0.65638 0.0
H593 H 0.41068 0.1722 0.7424 0.0
H594 H 0.4531 0.17227 0.7879 0.0
H595 H 0.50987 0.17142 0.80306 0.0
H596 H 0.57722 0.15679 0.71763 0.0
H597 H 0.53485 0.15719 0.67212 0.0
C598 C 0.47313 0.16521 0.68513 0.0
C599 C 0.44167 0.16809 0.69616 0.0
C600 C 0.49758 0.16417 0.71119 0.0
C601 C 0.43481 0.16992 0.73342 0.0
C602 C 0.45903 0.17006 0.75939 0.0
C603 C 0.51513 0.16813 0.77448 0.0
C604 C 0.54654 0.1643 0.76359 0.0
C605 C 0.49054 0.16743 0.7486 0.0
C606 C 0.55315 0.15966 0.72659 0.0
C607 C 0.52896 0.16003 0.70056 0.0
H608 H 0.66177 0.01252 0.80756 0.0
H609 H 0.66914 0.07305 0.71254 0.0
H610 H 0.67175 0.02615 0.67366 0.0
H611 H 0.66926 0.96831 0.66655 0.0
H612 H 0.65858 0.90782 0.76115 0.0
H613 H 0.66014 0.95454 0.80051 0.0
C614 C 0.66424 0.01549 0.77837 0.0
C615 C 0.66528 0.04622 0.76293 0.0
C616 C 0.66503 0.98848 0.75619 0.0
C617 C 0.6682 0.04964 0.72505 0.0
C618 C 0.6697 0.02285 0.70284 0.0
C619 C 0.66759 0.96526 0.69582 0.0
C620 C 0.66384 0.93463 0.71095 0.0
C621 C 0.66775 0.9922 0.7181 0.0
C622 C 0.66142 0.93115 0.74887 0.0
C623 C 0.66228 0.95784 0.77134 0.0
H624 H 0.92422 0.67643 0.73641 0.0
H625 H 0.97027 0.65671 0.83916 0.0
H626 H 0.02167 0.66157 0.81046 0.0
H627 H 0.05363 0.66927 0.75562 0.0
H628 H 0.00755 0.69087 0.6533 0.0
H629 H 0.95629 0.68777 0.68244 0.0
C630 C 0.94552 0.67327 0.75248 0.0
C631 C 0.94344 0.66598 0.78973 0.0
C632 C 0.97507 0.6765 0.73592 0.0
C633 C 0.97123 0.66235 0.81037 0.0
C634 C 0.00067 0.66506 0.794 0.0
C635 C 0.03239 0.67355 0.73979 0.0
C636 C 0.03446 0.68005 0.70233 0.0
C637 C 0.00288 0.67186 0.75672 0.0
C638 C 0.00669 0.68579 0.68222 0.0
C639 C 0.97729 0.6839 0.6988 0.0
H640 H 0.34515 0.04927 0.69121 0.0
H641 H 0.2565 0.07604 0.73844 0.0
H642 H 0.25095 0.02244 0.76482 0.0
H643 H 0.27226 0.96842 0.77519 0.0
H644 H 0.35955 0.94169 0.72415 0.0
H645 H 0.36436 0.99482 0.69778 0.0
C646 C 0.32474 0.04346 0.70759 0.0
C647 C 0.30157 0.06662 0.71367 0.0
C648 C 0.3213 0.01257 0.72148 0.0
C649 C 0.27478 0.05859 0.73389 0.0
C650 C 0.27158 0.02799 0.74878 0.0
C651 C 0.29216 0.97415 0.758 0.0
C652 C 0.31561 0.95117 0.75186 0.0
C653 C 0.29477 0.0048 0.74278 0.0
C654 C 0.34113 0.95886 0.72928 0.0
C655 C 0.34404 0.98932 0.71439 0.0
H656 H 0.03897 0.29016 0.74306 0.0
H657 H 0.06114 0.38819 0.71811 0.0
H658 H 0.00522 0.40038 0.71216 0.0
H659 H 0.95088 0.3859 0.72841 0.0
H660 H 0.92927 0.28918 0.75849 0.0
H661 H 0.98385 0.2735 0.74746 0.0
C662 C 0.03165 0.31398 0.73525 0.0
C663 C 0.05417 0.33842 0.73214 0.0
C664 C -0.0006 0.32111 0.73325 0.0
C665 C 0.04426 0.36904 0.72141 0.0
C666 C 0.01224 0.3761 0.71817 0.0
C667 C 0.958 0.36118 0.73096 0.0
C668 C 0.93646 0.33858 0.74398 0.0
C669 C 0.98966 0.35277 0.72617 0.0
C670 C 0.94566 0.30674 0.74805 0.0
C671 C 0.97688 0.29791 0.74213 0.0
H672 H 0.2706 0.04541 0.25946 0.0
H673 H 0.37201 0.05064 0.26267 0.0
H674 H 0.37543 0.00087 0.22881 0.0
H675 H 0.34951 0.95578 0.19785 0.0
H676 H 0.24806 0.95281 0.19141 0.0
H677 H 0.24481 0.00159 0.22681 0.0
C678 C 0.29345 0.03559 0.25288 0.0
C679 C 0.32099 0.05165 0.26381 0.0
C680 C 0.29526 0.00732 0.23269 0.0
C681 C 0.35042 0.03881 0.25456 0.0
C682 C 0.35241 0.0103 0.23523 0.0
C683 C 0.32671 0.96579 0.20428 0.0
C684 C 0.29908 0.95056 0.19205 0.0
C685 C 0.32498 0.99433 0.2241 0.0
C686 C 0.26972 0.96408 0.20029 0.0
C687 C 0.26781 0.99196 0.22065 0.0
H688 H 0.95834 0.35931 0.28045 0.0
H689 H 0.95887 0.2568 0.28892 0.0
H690 H 0.00111 0.25411 0.24447 0.0
H691 H 0.03851 0.2807 0.20331 0.0
H692 H 0.04037 0.38324 0.19744 0.0
H693 H -0.00327 0.38601 0.24033 0.0
C694 C 0.96769 0.33639 0.27258 0.0
C695 C 0.9553 0.30832 0.28816 0.0
C696 C 0.99245 0.33496 0.24725 0.0
C697 C 0.96796 0.27884 0.27769 0.0
C698 C 0.9921 0.27724 0.25208 0.0
C699 C 0.02919 0.30364 0.21119 0.0
C700 C 0.0426 0.3317 0.19692 0.0
C701 C 0.00456 0.30511 0.23665 0.0
C702 C 0.03053 0.36125 0.20796 0.0
C703 C 0.00555 0.36287 0.23253 0.0
H704 H 0.71252 0.95673 0.26533 0.0
H705 H 0.61111 0.95262 0.26541 0.0
H706 H 0.60869 0.00164 0.2289 0.0
H707 H 0.63573 0.04633 0.19759 0.0
H708 H 0.73726 0.04736 0.19406 0.0
H709 H 0.73931 -0.001 0.23108 0.0
C710 C 0.68989 0.96661 0.25739 0.0
C711 C 0.66204 0.95127 0.26837 0.0
C712 C 0.68872 0.99427 0.23569 0.0
C713 C 0.63289 0.96401 0.25731 0.0
C714 C 0.6315 0.99207 0.23651 0.0
C715 C 0.65826 0.03587 0.20489 0.0
C716 C 0.6863 0.05053 0.19317 0.0
C717 C 0.65929 0.00751 0.22563 0.0
C718 C 0.71532 0.03651 0.20252 0.0
C719 C 0.71654 0.00889 0.22384 0.0
H720 H 0.02183 0.71302 0.26759 0.0
H721 H 0.03436 0.61137 0.27508 0.0
H722 H 0.98623 0.60315 0.23921 0.0
H723 H 0.94008 0.62503 0.20625 0.0
H724 H 0.93027 0.72678 0.19477 0.0
H725 H 0.97778 0.73482 0.23145 0.0
C726 C 0.01396 0.68908 0.26141 0.0
C727 C 0.03142 0.66283 0.27428 0.0
C728 C 0.98677 0.68457 0.23997 0.0
C729 C 0.02129 0.63195 0.2655 0.0
C730 C -0.00625 0.62725 0.24506 0.0
C731 C 0.94842 0.64894 0.21176 0.0
C732 C 0.93155 0.67527 0.19796 0.0
C733 C 0.97623 0.65339 0.23223 0.0
C734 C 0.94286 0.70611 0.20493 0.0
C735 C 0.96997 0.71073 0.22604 0.0
loop_
_geom_bond_atom_site_label_1
_geom_bond_atom_site_label_2
_geom_bond_distance
_geom_bond_site_symmetry_2
_ccdc_geom_bond_type
Mg0 O1 2.028 . S
Mg0 O7 1.986 . S
Mg0 O9 2.114 . S
Mg0 O10 2.251 . S
Mg0 O13 2.010 . S
O1 Mg0 2.028 . S
O1 C4 1.250 . S
O2 Mg3 2.028 . S
O2 C4 1.248 . S
Mg3 O2 2.028 . S
Mg3 O8 2.032 . S
Mg3 O10 2.079 . S
C4 O1 1.250 . S
C4 O2 1.248 . S
C5 O6 1.264 . S
C5 O13 1.249 . S
O6 C5 1.264 . S
O7 Mg0 1.986 . S
O7 C11 1.246 . S
O8 Mg3 2.032 . S
O8 C11 1.259 . S
O9 Mg0 2.114 . S
O9 C12 1.252 . S
O10 Mg0 2.251 . S
O10 Mg3 2.079 . S
O10 C12 1.273 . S
C11 O7 1.246 . S
C11 O8 1.259 . S
C12 O9 1.252 . S
C12 O10 1.273 . S
O13 Mg0 2.010 . S
O13 C5 1.249 . S
Mg14 O15 2.028 . S
Mg14 O21 1.986 . S
Mg14 O23 2.114 . S
Mg14 O24 2.251 . S
Mg14 O27 2.010 . S
O15 Mg14 2.028 . S
O15 C18 1.250 . S
O16 Mg17 2.028 . S
O16 C18 1.248 . S
Mg17 O16 2.028 . S
Mg17 O22 2.032 . S
Mg17 O24 2.079 . S
C18 O15 1.250 . S
C18 O16 1.248 . S
C19 O20 1.264 . S
C19 O27 1.249 . S
O20 C19 1.264 . S
O21 Mg14 1.986 . S
O21 C25 1.246 . S
O22 Mg17 2.032 . S
O22 C25 1.259 . S
O23 Mg14 2.114 . S
O23 C26 1.252 . S
O24 Mg14 2.251 . S
O24 Mg17 2.079 . S
O24 C26 1.273 . S
C25 O21 1.246 . S
C25 O22 1.259 . S
C26 O23 1.252 . S
C26 O24 1.273 . S
O27 Mg14 2.010 . S
O27 C19 1.249 . S
Mg28 O29 2.028 . S
Mg28 O35 1.986 . S
Mg28 O37 2.114 . S
Mg28 O38 2.251 . S
Mg28 O41 2.010 . S
O29 Mg28 2.028 . S
O29 C32 1.250 . S
O30 Mg31 2.028 . S
O30 C32 1.248 . S
Mg31 O30 2.028 . S
Mg31 O36 2.032 . S
Mg31 O38 2.079 . S
C32 O29 1.250 . S
C32 O30 1.248 . S
C33 O34 1.264 . S
C33 O41 1.249 . S
O34 C33 1.264 . S
O35 Mg28 1.986 . S
O35 C39 1.246 . S
O36 Mg31 2.032 . S
O36 C39 1.259 . S
O37 Mg28 2.114 . S
O37 C40 1.252 . S
O38 Mg28 2.251 . S
O38 Mg31 2.079 . S
O38 C40 1.273 . S
C39 O35 1.246 . S
C39 O36 1.259 . S
C40 O37 1.252 . S
C40 O38 1.273 . S
O41 Mg28 2.010 . S
O41 C33 1.249 . S
Mg42 O43 2.028 . S
Mg42 O49 1.986 . S
Mg42 O51 2.114 . S
Mg42 O52 2.251 . S
Mg42 O55 2.010 . S
O43 Mg42 2.028 . S
O43 C46 1.250 . S
O44 Mg45 2.028 . S
O44 C46 1.248 . S
Mg45 O44 2.028 . S
Mg45 O50 2.032 . S
Mg45 O52 2.079 . S
C46 O43 1.250 . S
C46 O44 1.248 . S
C47 O48 1.264 . S
C47 O55 1.249 . S
O48 C47 1.264 . S
O49 Mg42 1.986 . S
O49 C53 1.246 . S
O50 Mg45 2.032 . S
O50 C53 1.259 . S
O51 Mg42 2.114 . S
O51 C54 1.252 . S
O52 Mg42 2.251 . S
O52 Mg45 2.079 . S
O52 C54 1.273 . S
C53 O49 1.246 . S
C53 O50 1.259 . S
C54 O51 1.252 . S
C54 O52 1.273 . S
O55 Mg42 2.010 . S
O55 C47 1.249 . S
Mg56 O57 2.028 . S
Mg56 O63 1.986 . S
Mg56 O65 2.114 . S
Mg56 O66 2.251 . S
Mg56 O69 2.010 . S
O57 Mg56 2.028 . S
O57 C60 1.250 . S
O58 Mg59 2.028 . S
O58 C60 1.248 . S
Mg59 O58 2.028 . S
Mg59 O64 2.032 . S
Mg59 O66 2.079 . S
C60 O57 1.250 . S
C60 O58 1.248 . S
C61 O62 1.264 . S
C61 O69 1.249 . S
O62 C61 1.264 . S
O63 Mg56 1.986 . S
O63 C67 1.246 . S
O64 Mg59 2.032 . S
O64 C67 1.259 . S
O65 Mg56 2.114 . S
O65 C68 1.252 . S
O66 Mg56 2.251 . S
O66 Mg59 2.079 . S
O66 C68 1.273 . S
C67 O63 1.246 . S
C67 O64 1.259 . S
C68 O65 1.252 . S
C68 O66 1.273 . S
O69 Mg56 2.010 . S
O69 C61 1.249 . S
Mg70 O71 2.028 . S
Mg70 O77 1.986 . S
Mg70 O79 2.114 . S
Mg70 O80 2.251 . S
Mg70 O83 2.010 . S
O71 Mg70 2.028 . S
O71 C74 1.250 . S
O72 Mg73 2.028 . S
O72 C74 1.248 . S
Mg73 O72 2.028 . S
Mg73 O78 2.032 . S
Mg73 O80 2.079 . S
C74 O71 1.250 . S
C74 O72 1.248 . S
C75 O76 1.264 . S
C75 O83 1.249 . S
O76 C75 1.264 . S
O77 Mg70 1.986 . S
O77 C81 1.246 . S
O78 Mg73 2.032 . S
O78 C81 1.259 . S
O79 Mg70 2.114 . S
O79 C82 1.252 . S
O80 Mg70 2.251 . S
O80 Mg73 2.079 . S
O80 C82 1.273 . S
C81 O77 1.246 . S
C81 O78 1.259 . S
C82 O79 1.252 . S
C82 O80 1.273 . S
O83 Mg70 2.010 . S
O83 C75 1.249 . S
Mg84 O85 2.028 . S
Mg84 O91 1.986 . S
Mg84 O93 2.114 . S
Mg84 O94 2.251 . S
Mg84 O97 2.010 . S
O85 Mg84 2.028 . S
O85 C88 1.250 . S
O86 Mg87 2.028 . S
O86 C88 1.248 . S
Mg87 O86 2.028 . S
Mg87 O92 2.032 . S
Mg87 O94 2.079 . S
C88 O85 1.250 . S
C88 O86 1.248 . S
C89 O90 1.264 . S
C89 O97 1.249 . S
O90 C89 1.264 . S
O91 Mg84 1.986 . S
O91 C95 1.246 . S
O92 Mg87 2.032 . S
O92 C95 1.259 . S
O93 Mg84 2.114 . S
O93 C96 1.252 . S
O94 Mg84 2.251 . S
O94 Mg87 2.079 . S
O94 C96 1.273 . S
C95 O91 1.246 . S
C95 O92 1.259 . S
C96 O93 1.252 . S
C96 O94 1.273 . S
O97 Mg84 2.010 . S
O97 C89 1.249 . S
Mg98 O99 2.028 . S
Mg98 O105 1.986 . S
Mg98 O107 2.114 . S
Mg98 O108 2.251 . S
Mg98 O111 2.010 . S
O99 Mg98 2.028 . S
O99 C102 1.250 . S
O100 Mg101 2.028 . S
O100 C102 1.248 . S
Mg101 O100 2.028 . S
Mg101 O106 2.032 . S
Mg101 O108 2.079 . S
C102 O99 1.250 . S
C102 O100 1.248 . S
C103 O104 1.264 . S
C103 O111 1.249 . S
O104 C103 1.264 . S
O105 Mg98 1.986 . S
O105 C109 1.246 . S
O106 Mg101 2.032 . S
O106 C109 1.259 . S
O107 Mg98 2.114 . S
O107 C110 1.252 . S
O108 Mg98 2.251 . S
O108 Mg101 2.079 . S
O108 C110 1.273 . S
C109 O105 1.246 . S
C109 O106 1.259 . S
C110 O107 1.252 . S
C110 O108 1.273 . S
O111 Mg98 2.010 . S
O111 C103 1.249 . S
Mg112 O113 2.028 . S
Mg112 O119 1.986 . S
Mg112 O121 2.114 . S
Mg112 O122 2.251 . S
Mg112 O125 2.010 . S
O113 Mg112 2.028 . S
O113 C116 1.250 . S
O114 Mg115 2.028 . S
O114 C116 1.248 . S
Mg115 O114 2.028 . S
Mg115 O120 2.032 . S
Mg115 O122 2.079 . S
C116 O113 1.250 . S
C116 O114 1.248 . S
C117 O118 1.264 . S
C117 O125 1.249 . S
O118 C117 1.264 . S
O119 Mg112 1.986 . S
O119 C123 1.246 . S
O120 Mg115 2.032 . S
O120 C123 1.259 . S
O121 Mg112 2.114 . S
O121 C124 1.252 . S
O122 Mg112 2.251 . S
O122 Mg115 2.079 . S
O122 C124 1.273 . S
C123 O119 1.246 . S
C123 O120 1.259 . S
C124 O121 1.252 . S
C124 O122 1.273 . S
O125 Mg112 2.010 . S
O125 C117 1.249 . S
Mg126 O127 2.028 . S
Mg126 O133 1.986 . S
Mg126 O135 2.114 . S
Mg126 O136 2.251 . S
Mg126 O139 2.010 . S
O127 Mg126 2.028 . S
O127 C130 1.250 . S
O128 Mg129 2.028 . S
O128 C130 1.248 . S
Mg129 O128 2.028 . S
Mg129 O134 2.032 . S
Mg129 O136 2.079 . S
C130 O127 1.250 . S
C130 O128 1.248 . S
C131 O132 1.264 . S
C131 O139 1.249 . S
O132 C131 1.264 . S
O133 Mg126 1.986 . S
O133 C137 1.246 . S
O134 Mg129 2.032 . S
O134 C137 1.259 . S
O135 Mg126 2.114 . S
O135 C138 1.252 . S
O136 Mg126 2.251 . S
O136 Mg129 2.079 . S
O136 C138 1.273 . S
C137 O133 1.246 . S
C137 O134 1.259 . S
C138 O135 1.252 . S
C138 O136 1.273 . S
O139 Mg126 2.010 . S
O139 C131 1.249 . S
Mg140 O141 2.028 . S
Mg140 O147 1.986 . S
Mg140 O149 2.114 . S
Mg140 O150 2.251 . S
Mg140 O153 2.010 . S
O141 Mg140 2.028 . S
O141 C144 1.250 . S
O142 Mg143 2.028 . S
O142 C144 1.248 . S
Mg143 O142 2.028 . S
Mg143 O148 2.032 . S
Mg143 O150 2.079 . S
C144 O141 1.250 . S
C144 O142 1.248 . S
C145 O146 1.264 . S
C145 O153 1.249 . S
O146 C145 1.264 . S
O147 Mg140 1.986 . S
O147 C151 1.246 . S
O148 Mg143 2.032 . S
O148 C151 1.259 . S
O149 Mg140 2.114 . S
O149 C152 1.252 . S
O150 Mg140 2.251 . S
O150 Mg143 2.079 . S
O150 C152 1.273 . S
C151 O147 1.246 . S
C151 O148 1.259 . S
C152 O149 1.252 . S
C152 O150 1.273 . S
O153 Mg140 2.010 . S
O153 C145 1.249 . S
Mg154 O155 2.028 . S
Mg154 O161 1.986 . S
Mg154 O163 2.114 . S
Mg154 O164 2.251 . S
Mg154 O167 2.010 . S
O155 Mg154 2.028 . S
O155 C158 1.250 . S
O156 Mg157 2.028 . S
O156 C158 1.248 . S
Mg157 O156 2.028 . S
Mg157 O162 2.032 . S
Mg157 O164 2.079 . S
C158 O155 1.250 . S
C158 O156 1.248 . S
C159 O160 1.264 . S
C159 O167 1.249 . S
O160 C159 1.264 . S
O161 Mg154 1.986 . S
O161 C165 1.246 . S
O162 Mg157 2.032 . S
O162 C165 1.259 . S
O163 Mg154 2.114 . S
O163 C166 1.252 . S
O164 Mg154 2.251 . S
O164 Mg157 2.079 . S
O164 C166 1.273 . S
C165 O161 1.246 . S
C165 O162 1.259 . S
C166 O163 1.252 . S
C166 O164 1.273 . S
O167 Mg154 2.010 . S
O167 C159 1.249 . S
Mg168 O169 2.028 . S
Mg168 O175 1.986 . S
Mg168 O177 2.114 . S
Mg168 O178 2.251 . S
Mg168 O181 2.010 . S
O169 Mg168 2.028 . S
O169 C172 1.250 . S
O170 Mg171 2.028 . S
O170 C172 1.248 . S
Mg171 O170 2.028 . S
Mg171 O176 2.032 . S
Mg171 O178 2.079 . S
C172 O169 1.250 . S
C172 O170 1.248 . S
C173 O174 1.264 . S
C173 O181 1.249 . S
O174 C173 1.264 . S
O175 Mg168 1.986 . S
O175 C179 1.246 . S
O176 Mg171 2.032 . S
O176 C179 1.259 . S
O177 Mg168 2.114 . S
O177 C180 1.252 . S
O178 Mg168 2.251 . S
O178 Mg171 2.079 . S
O178 C180 1.273 . S
C179 O175 1.246 . S
C179 O176 1.259 . S
C180 O177 1.252 . S
C180 O178 1.273 . S
O181 Mg168 2.010 . S
O181 C173 1.249 . S
Mg182 O183 2.028 . S
Mg182 O189 1.986 . S
Mg182 O191 2.114 . S
Mg182 O192 2.251 . S
Mg182 O195 2.010 . S
O183 Mg182 2.028 . S
O183 C186 1.250 . S
O184 Mg185 2.028 . S
O184 C186 1.248 . S
Mg185 O184 2.028 . S
Mg185 O190 2.032 . S
Mg185 O192 2.079 . S
C186 O183 1.250 . S
C186 O184 1.248 . S
C187 O188 1.264 . S
C187 O195 1.249 . S
O188 C187 1.264 . S
O189 Mg182 1.986 . S
O189 C193 1.246 . S
O190 Mg185 2.032 . S
O190 C193 1.259 . S
O191 Mg182 2.114 . S
O191 C194 1.252 . S
O192 Mg182 2.251 . S
O192 Mg185 2.079 . S
O192 C194 1.273 . S
C193 O189 1.246 . S
C193 O190 1.259 . S
C194 O191 1.252 . S
C194 O192 1.273 . S
O195 Mg182 2.010 . S
O195 C187 1.249 . S
Mg196 O197 2.028 . S
Mg196 O203 1.986 . S
Mg196 O205 2.114 . S
Mg196 O206 2.251 . S
Mg196 O209 2.010 . S
O197 Mg196 2.028 . S
O197 C200 1.250 . S
O198 Mg199 2.028 . S
O198 C200 1.248 . S
Mg199 O198 2.028 . S
Mg199 O204 2.032 . S
Mg199 O206 2.079 . S
C200 O197 1.250 . S
C200 O198 1.248 . S
C201 O202 1.264 . S
C201 O209 1.249 . S
O202 C201 1.264 . S
O203 Mg196 1.986 . S
O203 C207 1.246 . S
O204 Mg199 2.032 . S
O204 C207 1.259 . S
O205 Mg196 2.114 . S
O205 C208 1.252 . S
O206 Mg196 2.251 . S
O206 Mg199 2.079 . S
O206 C208 1.273 . S
C207 O203 1.246 . S
C207 O204 1.259 . S
C208 O205 1.252 . S
C208 O206 1.273 . S
O209 Mg196 2.010 . S
O209 C201 1.249 . S
Mg210 O211 2.028 . S
Mg210 O217 1.986 . S
Mg210 O219 2.114 . S
Mg210 O220 2.251 . S
Mg210 O223 2.010 . S
O211 Mg210 2.028 . S
O211 C214 1.250 . S
O212 Mg213 2.028 . S
O212 C214 1.248 . S
Mg213 O212 2.028 . S
Mg213 O218 2.032 . S
Mg213 O220 2.079 . S
C214 O211 1.250 . S
C214 O212 1.248 . S
C215 O216 1.264 . S
C215 O223 1.249 . S
O216 C215 1.264 . S
O217 Mg210 1.986 . S
O217 C221 1.246 . S
O218 Mg213 2.032 . S
O218 C221 1.259 . S
O219 Mg210 2.114 . S
O219 C222 1.252 . S
O220 Mg210 2.251 . S
O220 Mg213 2.079 . S
O220 C222 1.273 . S
C221 O217 1.246 . S
C221 O218 1.259 . S
C222 O219 1.252 . S
C222 O220 1.273 . S
O223 Mg210 2.010 . S
O223 C215 1.249 . S
H224 C230 0.930 . S
H225 C233 0.930 . S
H226 C234 0.930 . S
H227 C235 0.930 . S
H228 C238 0.930 . S
H229 C239 0.930 . S
C230 H224 0.930 . S
C230 C231 1.355 . S
C230 C232 1.415 . S
C231 C230 1.355 . S
C231 C233 1.419 . S
C232 C230 1.415 . S
C232 C237 1.425 . S
C232 C239 1.409 . S
C233 H225 0.930 . S
C233 C231 1.419 . S
C233 C234 1.362 . S
C234 H226 0.930 . S
C234 C233 1.362 . S
C234 C237 1.409 . S
C235 H227 0.930 . S
C235 C236 1.355 . S
C235 C237 1.415 . S
C236 C235 1.355 . S
C236 C238 1.419 . S
C237 C232 1.425 . S
C237 C234 1.409 . S
C237 C235 1.415 . S
C238 H228 0.930 . S
C238 C236 1.419 . S
C238 C239 1.362 . S
C239 H229 0.930 . S
C239 C232 1.409 . S
C239 C238 1.362 . S
H240 C246 0.930 . S
H241 C249 0.930 . S
H242 C250 0.930 . S
H243 C251 0.930 . S
H244 C254 0.930 . S
H245 C255 0.930 . S
C246 H240 0.930 . S
C246 C247 1.355 . S
C246 C248 1.415 . S
C247 C246 1.355 . S
C247 C249 1.419 . S
C248 C246 1.415 . S
C248 C253 1.425 . S
C248 C255 1.409 . S
C249 H241 0.930 . S
C249 C247 1.419 . S
C249 C250 1.362 . S
C250 H242 0.930 . S
C250 C249 1.362 . S
C250 C253 1.409 . S
C251 H243 0.930 . S
C251 C252 1.355 . S
C251 C253 1.415 . S
C252 C251 1.355 . S
C252 C254 1.419 . S
C253 C248 1.425 . S
C253 C250 1.409 . S
C253 C251 1.415 . S
C254 H244 0.930 . S
C254 C252 1.419 . S
C254 C255 1.362 . S
C255 H245 0.930 . S
C255 C248 1.409 . S
C255 C254 1.362 . S
H256 C262 0.930 . S
H257 C265 0.930 . S
H258 C266 0.930 . S
H259 C267 0.930 . S
H260 C270 0.930 . S
H261 C271 0.930 . S
C262 H256 0.930 . S
C262 C263 1.355 . S
C262 C264 1.415 . S
C263 C262 1.355 . S
C263 C265 1.419 . S
C264 C262 1.415 . S
C264 C269 1.425 . S
C264 C271 1.409 . S
C265 H257 0.930 . S
C265 C263 1.419 . S
C265 C266 1.362 . S
C266 H258 0.930 . S
C266 C265 1.362 . S
C266 C269 1.409 . S
C267 H259 0.930 . S
C267 C268 1.355 . S
C267 C269 1.415 . S
C268 C267 1.355 . S
C268 C270 1.419 . S
C269 C264 1.425 . S
C269 C266 1.409 . S
C269 C267 1.415 . S
C270 H260 0.930 . S
C270 C268 1.419 . S
C270 C271 1.362 . S
C271 H261 0.930 . S
C271 C264 1.409 . S
C271 C270 1.362 . S
H272 C278 0.930 . S
H273 C281 0.930 . S
H274 C282 0.930 . S
H275 C283 0.930 . S
H276 C286 0.930 . S
H277 C287 0.930 . S
C278 H272 0.930 . S
C278 C279 1.355 . S
C278 C280 1.415 . S
C279 C278 1.355 . S
C279 C281 1.419 . S
C280 C278 1.415 . S
C280 C285 1.425 . S
C280 C287 1.409 . S
C281 H273 0.930 . S
C281 C279 1.419 . S
C281 C282 1.362 . S
C282 H274 0.930 . S
C282 C281 1.362 . S
C282 C285 1.409 . S
C283 H275 0.930 . S
C283 C284 1.355 . S
C283 C285 1.415 . S
C284 C283 1.355 . S
C284 C286 1.419 . S
C285 C280 1.425 . S
C285 C282 1.409 . S
C285 C283 1.415 . S
C286 H276 0.930 . S
C286 C284 1.419 . S
C286 C287 1.362 . S
C287 H277 0.930 . S
C287 C280 1.409 . S
C287 C286 1.362 . S
H288 C294 0.930 . S
H289 C297 0.930 . S
H290 C298 0.930 . S
H291 C299 0.930 . S
H292 C302 0.930 . S
H293 C303 0.930 . S
C294 H288 0.930 . S
C294 C295 1.355 . S
C294 C296 1.415 . S
C295 C294 1.355 . S
C295 C297 1.419 . S
C296 C294 1.415 . S
C296 C301 1.425 . S
C296 C303 1.409 . S
C297 H289 0.930 . S
C297 C295 1.419 . S
C297 C298 1.362 . S
C298 H290 0.930 . S
C298 C297 1.362 . S
C298 C301 1.409 . S
C299 H291 0.930 . S
C299 C300 1.355 . S
C299 C301 1.415 . S
C300 C299 1.355 . S
C300 C302 1.419 . S
C301 C296 1.425 . S
C301 C298 1.409 . S
C301 C299 1.415 . S
C302 H292 0.930 . S
C302 C300 1.419 . S
C302 C303 1.362 . S
C303 H293 0.930 . S
C303 C296 1.409 . S
C303 C302 1.362 . S
H304 C310 0.930 . S
H305 C313 0.930 . S
H306 C314 0.930 . S
H307 C315 0.930 . S
H308 C318 0.930 . S
H309 C319 0.930 . S
C310 H304 0.930 . S
C310 C311 1.355 . S
C310 C312 1.415 . S
C311 C310 1.355 . S
C311 C313 1.419 . S
C312 C310 1.415 . S
C312 C317 1.425 . S
C312 C319 1.409 . S
C313 H305 0.930 . S
C313 C311 1.419 . S
C313 C314 1.362 . S
C314 H306 0.930 . S
C314 C313 1.362 . S
C314 C317 1.409 . S
C315 H307 0.930 . S
C315 C316 1.355 . S
C315 C317 1.415 . S
C316 C315 1.355 . S
C316 C318 1.419 . S
C317 C312 1.425 . S
C317 C314 1.409 . S
C317 C315 1.415 . S
C318 H308 0.930 . S
C318 C316 1.419 . S
C318 C319 1.362 . S
C319 H309 0.930 . S
C319 C312 1.409 . S
C319 C318 1.362 . S
H320 C326 0.930 . S
H321 C329 0.930 . S
H322 C330 0.930 . S
H323 C331 0.930 . S
H324 C334 0.930 . S
H325 C335 0.930 . S
C326 H320 0.930 . S
C326 C327 1.355 . S
C326 C328 1.415 . S
C327 C326 1.355 . S
C327 C329 1.419 . S
C328 C326 1.415 . S
C328 C333 1.425 . S
C328 C335 1.409 . S
C329 H321 0.930 . S
C329 C327 1.419 . S
C329 C330 1.362 . S
C330 H322 0.930 . S
C330 C329 1.362 . S
C330 C333 1.409 . S
C331 H323 0.930 . S
C331 C332 1.355 . S
C331 C333 1.415 . S
C332 C331 1.355 . S
C332 C334 1.419 . S
C333 C328 1.425 . S
C333 C330 1.409 . S
C333 C331 1.415 . S
C334 H324 0.930 . S
C334 C332 1.419 . S
C334 C335 1.362 . S
C335 H325 0.930 . S
C335 C328 1.409 . S
C335 C334 1.362 . S
H336 C342 0.930 . S
H337 C345 0.930 . S
H338 C346 0.930 . S
H339 C347 0.930 . S
H340 C350 0.930 . S
H341 C351 0.930 . S
C342 H336 0.930 . S
C342 C343 1.355 . S
C342 C344 1.415 . S
C343 C342 1.355 . S
C343 C345 1.419 . S
C344 C342 1.415 . S
C344 C349 1.425 . S
C344 C351 1.409 . S
C345 H337 0.930 . S
C345 C343 1.419 . S
C345 C346 1.362 . S
C346 H338 0.930 . S
C346 C345 1.362 . S
C346 C349 1.409 . S
C347 H339 0.930 . S
C347 C348 1.355 . S
C347 C349 1.415 . S
C348 C347 1.355 . S
C348 C350 1.419 . S
C349 C344 1.425 . S
C349 C346 1.409 . S
C349 C347 1.415 . S
C350 H340 0.930 . S
C350 C348 1.419 . S
C350 C351 1.362 . S
C351 H341 0.930 . S
C351 C344 1.409 . S
C351 C350 1.362 . S
H352 C358 0.930 . S
H353 C361 0.930 . S
H354 C362 0.930 . S
H355 C363 0.930 . S
H356 C366 0.930 . S
H357 C367 0.930 . S
C358 H352 0.930 . S
C358 C359 1.355 . S
C358 C360 1.415 . S
C359 C358 1.355 . S
C359 C361 1.419 . S
C360 C358 1.415 . S
C360 C365 1.425 1_556 S
C360 C367 1.409 1_556 S
C361 H353 0.930 . S
C361 C359 1.419 . S
C361 C362 1.362 . S
C362 H354 0.930 . S
C362 C361 1.362 . S
C362 C365 1.409 1_556 S
C363 H355 0.930 . S
C363 C364 1.355 . S
C363 C365 1.415 . S
C364 C363 1.355 . S
C364 C366 1.419 . S
C365 C360 1.425 1_554 S
C365 C362 1.409 1_554 S
C365 C363 1.415 . S
C366 H356 0.930 . S
C366 C364 1.419 . S
C366 C367 1.362 . S
C367 H357 0.930 . S
C367 C360 1.409 1_554 S
C367 C366 1.362 . S
H368 C374 0.930 . S
H369 C377 0.930 . S
H370 C378 0.930 . S
H371 C379 0.930 . S
H372 C382 0.930 . S
H373 C383 0.930 . S
C374 H368 0.930 . S
C374 C375 1.355 . S
C374 C376 1.415 . S
C375 C374 1.355 . S
C375 C377 1.419 . S
C376 C374 1.415 . S
C376 C381 1.425 1_556 S
C376 C383 1.409 1_556 S
C377 H369 0.930 . S
C377 C375 1.419 . S
C377 C378 1.362 . S
C378 H370 0.930 . S
C378 C377 1.362 . S
C378 C381 1.409 1_556 S
C379 H371 0.930 . S
C379 C380 1.355 . S
C379 C381 1.415 . S
C380 C379 1.355 . S
C380 C382 1.419 . S
C381 C376 1.425 1_554 S
C381 C378 1.409 1_554 S
C381 C379 1.415 . S
C382 H372 0.930 . S
C382 C380 1.419 . S
C382 C383 1.362 . S
C383 H373 0.930 . S
C383 C376 1.409 1_554 S
C383 C382 1.362 . S
H384 C390 0.930 . S
H385 C393 0.930 . S
H386 C394 0.930 1_554 S
H387 C395 0.930 . S
H388 C398 0.930 . S
H389 C399 0.930 1_556 S
C390 H384 0.930 . S
C390 C391 1.355 . S
C390 C392 1.415 . S
C391 C390 1.355 . S
C391 C393 1.419 . S
C392 C390 1.415 . S
C392 C397 1.425 1_556 S
C392 C399 1.409 1_556 S
C393 H385 0.930 . S
C393 C391 1.419 . S
C393 C394 1.362 . S
C394 H386 0.930 1_556 S
C394 C393 1.362 . S
C394 C397 1.409 1_556 S
C395 H387 0.930 . S
C395 C396 1.355 . S
C395 C397 1.415 . S
C396 C395 1.355 . S
C396 C398 1.419 . S
C397 C392 1.425 1_554 S
C397 C394 1.409 1_554 S
C397 C395 1.415 . S
C398 H388 0.930 . S
C398 C396 1.419 . S
C398 C399 1.362 . S
C399 H389 0.930 1_554 S
C399 C392 1.409 1_554 S
C399 C398 1.362 . S
H400 C406 0.930 . S
H401 C409 0.930 . S
H402 C410 0.930 . S
H403 C411 0.930 . S
H404 C414 0.930 . S
H405 C415 0.930 . S
C406 H400 0.930 . S
C406 C407 1.355 . S
C406 C408 1.415 . S
C407 C406 1.355 . S
C407 C409 1.419 . S
C408 C406 1.415 . S
C408 C413 1.425 1_554 S
C408 C415 1.409 1_554 S
C409 H401 0.930 . S
C409 C407 1.419 . S
C409 C410 1.362 . S
C410 H402 0.930 . S
C410 C409 1.362 . S
C410 C413 1.409 1_554 S
C411 H403 0.930 . S
C411 C412 1.355 . S
C411 C413 1.415 . S
C412 C411 1.355 . S
C412 C414 1.419 . S
C413 C408 1.425 1_556 S
C413 C410 1.409 1_556 S
C413 C411 1.415 . S
C414 H404 0.930 . S
C414 C412 1.419 . S
C414 C415 1.362 . S
C415 H405 0.930 . S
C415 C408 1.409 1_556 S
C415 C414 1.362 . S
H416 C422 0.930 . S
H417 C425 0.930 . S
H418 C426 0.930 . S
H419 C427 0.930 . S
H420 C430 0.930 . S
H421 C431 0.930 . S
C422 H416 0.930 . S
C422 C423 1.355 . S
C422 C424 1.415 . S
C423 C422 1.355 . S
C423 C425 1.419 . S
C424 C422 1.415 . S
C424 C429 1.425 . S
C424 C431 1.409 . S
C425 H417 0.930 . S
C425 C423 1.419 . S
C425 C426 1.362 . S
C426 H418 0.930 . S
C426 C425 1.362 . S
C426 C429 1.409 . S
C427 H419 0.930 . S
C427 C428 1.355 . S
C427 C429 1.415 . S
C428 C427 1.355 . S
C428 C430 1.419 . S
C429 C424 1.425 . S
C429 C426 1.409 . S
C429 C427 1.415 . S
C430 H420 0.930 . S
C430 C428 1.419 . S
C430 C431 1.362 . S
C431 H421 0.930 . S
C431 C424 1.409 . S
C431 C430 1.362 . S
H432 C438 0.930 . S
H433 C441 0.930 . S
H434 C442 0.930 . S
H435 C443 0.930 . S
H436 C446 0.930 . S
H437 C447 0.930 . S
C438 H432 0.930 . S
C438 C439 1.355 . S
C438 C440 1.415 . S
C439 C438 1.355 . S
C439 C441 1.419 . S
C440 C438 1.415 . S
C440 C445 1.425 . S
C440 C447 1.409 . S
C441 H433 0.930 . S
C441 C439 1.419 . S
C441 C442 1.362 . S
C442 H434 0.930 . S
C442 C441 1.362 . S
C442 C445 1.409 . S
C443 H435 0.930 . S
C443 C444 1.355 . S
C443 C445 1.415 . S
C444 C443 1.355 . S
C444 C446 1.419 . S
C445 C440 1.425 . S
C445 C442 1.409 . S
C445 C443 1.415 . S
C446 H436 0.930 . S
C446 C444 1.419 . S
C446 C447 1.362 . S
C447 H437 0.930 . S
C447 C440 1.409 . S
C447 C446 1.362 . S
H448 C454 0.930 . S
H449 C457 0.930 . S
H450 C458 0.930 . S
H451 C459 0.930 . S
H452 C462 0.930 . S
H453 C463 0.930 . S
C454 H448 0.930 . S
C454 C455 1.355 . S
C454 C456 1.415 . S
C455 C454 1.355 . S
C455 C457 1.419 . S
C456 C454 1.415 . S
C456 C461 1.425 . S
C456 C463 1.409 . S
C457 H449 0.930 . S
C457 C455 1.419 . S
C457 C458 1.362 . S
C458 H450 0.930 . S
C458 C457 1.362 . S
C458 C461 1.409 . S
C459 H451 0.930 . S
C459 C460 1.355 . S
C459 C461 1.415 . S
C460 C459 1.355 . S
C460 C462 1.419 . S
C461 C456 1.425 . S
C461 C458 1.409 . S
C461 C459 1.415 . S
C462 H452 0.930 . S
C462 C460 1.419 . S
C462 C463 1.362 . S
C463 H453 0.930 . S
C463 C456 1.409 . S
C463 C462 1.362 . S
H464 C470 0.930 . S
H465 C473 0.930 . S
H466 C474 0.930 . S
H467 C475 0.930 . S
H468 C478 0.930 . S
H469 C479 0.930 . S
C470 H464 0.930 . S
C470 C471 1.355 . S
C470 C472 1.415 . S
C471 C470 1.355 . S
C471 C473 1.419 . S
C472 C470 1.415 . S
C472 C477 1.425 . S
C472 C479 1.409 . S
C473 H465 0.930 . S
C473 C471 1.419 . S
C473 C474 1.362 . S
C474 H466 0.930 . S
C474 C473 1.362 . S
C474 C477 1.409 . S
C475 H467 0.930 . S
C475 C476 1.355 . S
C475 C477 1.415 . S
C476 C475 1.355 . S
C476 C478 1.419 . S
C477 C472 1.425 . S
C477 C474 1.409 . S
C477 C475 1.415 . S
C478 H468 0.930 . S
C478 C476 1.419 . S
C478 C479 1.362 . S
C479 H469 0.930 . S
C479 C472 1.409 . S
C479 C478 1.362 . S
H480 C486 0.930 . S
H481 C489 0.930 . S
H482 C490 0.930 . S
H483 C491 0.930 . S
H484 C494 0.930 . S
H485 C495 0.930 . S
C486 H480 0.930 . S
C486 C487 1.355 . S
C486 C488 1.415 . S
C487 C486 1.355 . S
C487 C489 1.419 . S
C488 C486 1.415 . S
C488 C493 1.425 . S
C488 C495 1.409 . S
C489 H481 0.930 . S
C489 C487 1.419 . S
C489 C490 1.362 . S
C490 H482 0.930 . S
C490 C489 1.362 . S
C490 C493 1.409 . S
C491 H483 0.930 . S
C491 C492 1.355 . S
C491 C493 1.415 . S
C492 C491 1.355 . S
C492 C494 1.419 . S
C493 C488 1.425 . S
C493 C490 1.409 . S
C493 C491 1.415 . S
C494 H484 0.930 . S
C494 C492 1.419 . S
C494 C495 1.362 . S
C495 H485 0.930 . S
C495 C488 1.409 . S
C495 C494 1.362 . S
H496 C502 0.930 . S
H497 C505 0.930 . S
H498 C506 0.930 . S
H499 C507 0.930 . S
H500 C510 0.930 . S
H501 C511 0.930 . S
C502 H496 0.930 . S
C502 C503 1.355 . S
C502 C504 1.415 . S
C503 C502 1.355 . S
C503 C505 1.419 . S
C504 C502 1.415 . S
C504 C509 1.425 . S
C504 C511 1.409 . S
C505 H497 0.930 . S
C505 C503 1.419 . S
C505 C506 1.362 . S
C506 H498 0.930 . S
C506 C505 1.362 . S
C506 C509 1.409 . S
C507 H499 0.930 . S
C507 C508 1.355 . S
C507 C509 1.415 . S
C508 C507 1.355 . S
C508 C510 1.419 . S
C509 C504 1.425 . S
C509 C506 1.409 . S
C509 C507 1.415 . S
C510 H500 0.930 . S
C510 C508 1.419 . S
C510 C511 1.362 . S
C511 H501 0.930 . S
C511 C504 1.409 . S
C511 C510 1.362 . S
H512 C518 0.930 . S
H513 C521 0.930 . S
H514 C522 0.930 . S
H515 C523 0.930 . S
H516 C526 0.930 . S
H517 C527 0.930 . S
C518 H512 0.930 . S
C518 C519 1.355 . S
C518 C520 1.415 . S
C519 C518 1.355 . S
C519 C521 1.419 . S
C520 C518 1.415 . S
C520 C525 1.425 . S
C520 C527 1.409 . S
C521 H513 0.930 . S
C521 C519 1.419 . S
C521 C522 1.362 . S
C522 H514 0.930 . S
C522 C521 1.362 . S
C522 C525 1.409 . S
C523 H515 0.930 . S
C523 C524 1.355 . S
C523 C525 1.415 . S
C524 C523 1.355 . S
C524 C526 1.419 . S
C525 C520 1.425 . S
C525 C522 1.409 . S
C525 C523 1.415 . S
C526 H516 0.930 . S
C526 C524 1.419 . S
C526 C527 1.362 . S
C527 H517 0.930 . S
C527 C520 1.409 . S
C527 C526 1.362 . S
H528 C534 0.930 . S
H529 C537 0.930 . S
H530 C538 0.930 . S
H531 C539 0.930 . S
H532 C542 0.930 . S
H533 C543 0.930 . S
C534 H528 0.930 . S
C534 C535 1.355 . S
C534 C536 1.415 . S
C535 C534 1.355 . S
C535 C537 1.419 . S
C536 C534 1.415 . S
C536 C541 1.425 . S
C536 C543 1.409 . S
C537 H529 0.930 . S
C537 C535 1.419 . S
C537 C538 1.362 . S
C538 H530 0.930 . S
C538 C537 1.362 . S
C538 C541 1.409 . S
C539 H531 0.930 . S
C539 C540 1.355 . S
C539 C541 1.415 . S
C540 C539 1.355 . S
C540 C542 1.419 . S
C541 C536 1.425 . S
C541 C538 1.409 . S
C541 C539 1.415 . S
C542 H532 0.930 . S
C542 C540 1.419 . S
C542 C543 1.362 . S
C543 H533 0.930 . S
C543 C536 1.409 . S
C543 C542 1.362 . S
H544 C550 0.930 . S
H545 C553 0.930 . S
H546 C554 0.930 . S
H547 C555 0.930 . S
H548 C558 0.930 . S
H549 C559 0.930 . S
C550 H544 0.930 . S
C550 C551 1.355 . S
C550 C552 1.415 . S
C551 C550 1.355 . S
C551 C553 1.419 . S
C552 C550 1.415 . S
C552 C557 1.425 . S
C552 C559 1.409 . S
C553 H545 0.930 . S
C553 C551 1.419 . S
C553 C554 1.362 . S
C554 H546 0.930 . S
C554 C553 1.362 . S
C554 C557 1.409 . S
C555 H547 0.930 . S
C555 C556 1.355 . S
C555 C557 1.415 . S
C556 C555 1.355 . S
C556 C558 1.419 . S
C557 C552 1.425 . S
C557 C554 1.409 . S
C557 C555 1.415 . S
C558 H548 0.930 . S
C558 C556 1.419 . S
C558 C559 1.362 . S
C559 H549 0.930 . S
C559 C552 1.409 . S
C559 C558 1.362 . S
H560 C566 0.930 . S
H561 C569 0.930 . S
H562 C570 0.930 . S
H563 C571 0.930 . S
H564 C574 0.930 . S
H565 C575 0.930 . S
C566 H560 0.930 . S
C566 C567 1.355 . S
C566 C568 1.415 . S
C567 C566 1.355 . S
C567 C569 1.419 . S
C568 C566 1.415 . S
C568 C573 1.425 . S
C568 C575 1.409 . S
C569 H561 0.930 . S
C569 C567 1.419 . S
C569 C570 1.362 . S
C570 H562 0.930 . S
C570 C569 1.362 . S
C570 C573 1.409 . S
C571 H563 0.930 . S
C571 C572 1.355 . S
C571 C573 1.415 . S
C572 C571 1.355 . S
C572 C574 1.419 . S
C573 C568 1.425 . S
C573 C570 1.409 . S
C573 C571 1.415 . S
C574 H564 0.930 . S
C574 C572 1.419 . S
C574 C575 1.362 . S
C575 H565 0.930 . S
C575 C568 1.409 . S
C575 C574 1.362 . S
H576 C582 0.930 . S
H577 C585 0.930 . S
H578 C586 0.930 . S
H579 C587 0.930 . S
H580 C590 0.930 . S
H581 C591 0.930 . S
C582 H576 0.930 . S
C582 C583 1.355 . S
C582 C584 1.415 . S
C583 C582 1.355 . S
C583 C585 1.419 . S
C584 C582 1.415 . S
C584 C589 1.425 . S
C584 C591 1.409 . S
C585 H577 0.930 . S
C585 C583 1.419 . S
C585 C586 1.362 . S
C586 H578 0.930 . S
C586 C585 1.362 . S
C586 C589 1.409 . S
C587 H579 0.930 . S
C587 C588 1.355 . S
C587 C589 1.415 . S
C588 C587 1.355 . S
C588 C590 1.419 . S
C589 C584 1.425 . S
C589 C586 1.409 . S
C589 C587 1.415 . S
C590 H580 0.930 . S
C590 C588 1.419 . S
C590 C591 1.362 . S
C591 H581 0.930 . S
C591 C584 1.409 . S
C591 C590 1.362 . S
H592 C598 0.930 . S
H593 C601 0.930 . S
H594 C602 0.930 . S
H595 C603 0.930 . S
H596 C606 0.930 . S
H597 C607 0.930 . S
C598 H592 0.930 . S
C598 C599 1.355 . S
C598 C600 1.415 . S
C599 C598 1.355 . S
C599 C601 1.419 . S
C600 C598 1.415 . S
C600 C605 1.425 . S
C600 C607 1.409 . S
C601 H593 0.930 . S
C601 C599 1.419 . S
C601 C602 1.362 . S
C602 H594 0.930 . S
C602 C601 1.362 . S
C602 C605 1.409 . S
C603 H595 0.930 . S
C603 C604 1.355 . S
C603 C605 1.415 . S
C604 C603 1.355 . S
C604 C606 1.419 . S
C605 C600 1.425 . S
C605 C602 1.409 . S
C605 C603 1.415 . S
C606 H596 0.930 . S
C606 C604 1.419 . S
C606 C607 1.362 . S
C607 H597 0.930 . S
C607 C600 1.409 . S
C607 C606 1.362 . S
H608 C614 0.930 . S
H609 C617 0.930 . S
H610 C618 0.930 . S
H611 C619 0.930 . S
H612 C622 0.930 . S
H613 C623 0.930 . S
C614 H608 0.930 . S
C614 C615 1.355 . S
C614 C616 1.415 . S
C615 C614 1.355 . S
C615 C617 1.419 . S
C616 C614 1.415 . S
C616 C621 1.425 1_545 S
C616 C623 1.409 1_545 S
C617 H609 0.930 . S
C617 C615 1.419 . S
C617 C618 1.362 . S
C618 H610 0.930 . S
C618 C617 1.362 . S
C618 C621 1.409 1_545 S
C619 H611 0.930 . S
C619 C620 1.355 . S
C619 C621 1.415 . S
C620 C619 1.355 . S
C620 C622 1.419 . S
C621 C616 1.425 1_565 S
C621 C618 1.409 1_565 S
C621 C619 1.415 . S
C622 H612 0.930 . S
C622 C620 1.419 . S
C622 C623 1.362 . S
C623 H613 0.930 . S
C623 C616 1.409 1_565 S
C623 C622 1.362 . S
H624 C630 0.930 . S
H625 C633 0.930 . S
H626 C634 0.930 1_455 S
H627 C635 0.930 . S
H628 C638 0.930 . S
H629 C639 0.930 1_655 S
C630 H624 0.930 . S
C630 C631 1.355 . S
C630 C632 1.415 . S
C631 C630 1.355 . S
C631 C633 1.419 . S
C632 C630 1.415 . S
C632 C637 1.425 1_655 S
C632 C639 1.409 1_655 S
C633 H625 0.930 . S
C633 C631 1.419 . S
C633 C634 1.362 . S
C634 H626 0.930 1_655 S
C634 C633 1.362 . S
C634 C637 1.409 1_655 S
C635 H627 0.930 . S
C635 C636 1.355 . S
C635 C637 1.415 . S
C636 C635 1.355 . S
C636 C638 1.419 . S
C637 C632 1.425 1_455 S
C637 C634 1.409 1_455 S
C637 C635 1.415 . S
C638 H628 0.930 . S
C638 C636 1.419 . S
C638 C639 1.362 . S
C639 H629 0.930 1_455 S
C639 C632 1.409 1_455 S
C639 C638 1.362 . S
H640 C646 0.930 . S
H641 C649 0.930 . S
H642 C650 0.930 1_565 S
H643 C651 0.930 . S
H644 C654 0.930 . S
H645 C655 0.930 1_545 S
C646 H640 0.930 . S
C646 C647 1.355 . S
C646 C648 1.415 . S
C647 C646 1.355 . S
C647 C649 1.419 . S
C648 C646 1.415 . S
C648 C653 1.425 1_545 S
C648 C655 1.409 1_545 S
C649 H641 0.930 . S
C649 C647 1.419 . S
C649 C650 1.362 . S
C650 H642 0.930 1_545 S
C650 C649 1.362 . S
C650 C653 1.409 1_545 S
C651 H643 0.930 . S
C651 C652 1.355 . S
C651 C653 1.415 . S
C652 C651 1.355 . S
C652 C654 1.419 . S
C653 C648 1.425 1_565 S
C653 C650 1.409 1_565 S
C653 C651 1.415 . S
C654 H644 0.930 . S
C654 C652 1.419 . S
C654 C655 1.362 . S
C655 H645 0.930 1_565 S
C655 C648 1.409 1_565 S
C655 C654 1.362 . S
H656 C662 0.930 . S
H657 C665 0.930 . S
H658 C666 0.930 1_655 S
H659 C667 0.930 . S
H660 C670 0.930 . S
H661 C671 0.930 1_455 S
C662 H656 0.930 . S
C662 C663 1.355 . S
C662 C664 1.415 . S
C663 C662 1.355 . S
C663 C665 1.419 . S
C664 C662 1.415 . S
C664 C669 1.425 1_455 S
C664 C671 1.409 1_455 S
C665 H657 0.930 . S
C665 C663 1.419 . S
C665 C666 1.362 . S
C666 H658 0.930 1_455 S
C666 C665 1.362 . S
C666 C669 1.409 1_455 S
C667 H659 0.930 . S
C667 C668 1.355 . S
C667 C669 1.415 . S
C668 C667 1.355 . S
C668 C670 1.419 . S
C669 C664 1.425 1_655 S
C669 C666 1.409 1_655 S
C669 C667 1.415 . S
C670 H660 0.930 . S
C670 C668 1.419 . S
C670 C671 1.362 . S
C671 H661 0.930 1_655 S
C671 C664 1.409 1_655 S
C671 C670 1.362 . S
H672 C678 0.930 . S
H673 C681 0.930 . S
H674 C682 0.930 . S
H675 C683 0.930 . S
H676 C686 0.930 . S
H677 C687 0.930 . S
C678 H672 0.930 . S
C678 C679 1.355 . S
C678 C680 1.415 . S
C679 C678 1.355 . S
C679 C681 1.419 . S
C680 C678 1.415 . S
C680 C685 1.425 1_545 S
C680 C687 1.409 . S
C681 H673 0.930 . S
C681 C679 1.419 . S
C681 C682 1.362 1_545 S
C682 H674 0.930 . S
C682 C681 1.362 1_565 S
C682 C685 1.409 . S
C683 H675 0.930 . S
C683 C684 1.355 . S
C683 C685 1.415 . S
C684 C683 1.355 . S
C684 C686 1.419 . S
C685 C680 1.425 1_565 S
C685 C682 1.409 . S
C685 C683 1.415 . S
C686 H676 0.930 . S
C686 C684 1.419 . S
C686 C687 1.362 1_565 S
C687 H677 0.930 . S
C687 C680 1.409 . S
C687 C686 1.362 1_545 S
H688 C694 0.930 . S
H689 C697 0.930 . S
H690 C698 0.930 . S
H691 C699 0.930 . S
H692 C702 0.930 . S
H693 C703 0.930 . S
C694 H688 0.930 . S
C694 C695 1.355 . S
C694 C696 1.415 . S
C695 C694 1.355 . S
C695 C697 1.419 . S
C696 C694 1.415 . S
C696 C701 1.425 1_655 S
C696 C703 1.409 1_655 S
C697 H689 0.930 . S
C697 C695 1.419 . S
C697 C698 1.362 . S
C698 H690 0.930 . S
C698 C697 1.362 . S
C698 C701 1.409 1_655 S
C699 H691 0.930 . S
C699 C700 1.355 . S
C699 C701 1.415 . S
C700 C699 1.355 . S
C700 C702 1.419 . S
C701 C696 1.425 1_455 S
C701 C698 1.409 1_455 S
C701 C699 1.415 . S
C702 H692 0.930 . S
C702 C700 1.419 . S
C702 C703 1.362 . S
C703 H693 0.930 . S
C703 C696 1.409 1_455 S
C703 C702 1.362 . S
H704 C710 0.930 . S
H705 C713 0.930 . S
H706 C714 0.930 . S
H707 C715 0.930 . S
H708 C718 0.930 . S
H709 C719 0.930 . S
C710 H704 0.930 . S
C710 C711 1.355 . S
C710 C712 1.417 1_565 S
C711 C710 1.355 . S
C711 C713 1.419 . S
C712 C710 1.417 1_545 S
C712 C717 1.425 1_545 S
C712 C719 1.407 . S
C713 H705 0.930 . S
C713 C711 1.419 . S
C713 C714 1.362 . S
C714 H706 0.930 . S
C714 C713 1.362 . S
C714 C717 1.407 . S
C715 H707 0.930 . S
C715 C716 1.355 . S
C715 C717 1.417 1_545 S
C716 C715 1.355 . S
C716 C718 1.419 . S
C717 C712 1.425 1_565 S
C717 C714 1.407 . S
C717 C715 1.417 1_565 S
C718 H708 0.930 . S
C718 C716 1.419 . S
C718 C719 1.362 . S
C719 H709 0.930 . S
C719 C712 1.407 . S
C719 C718 1.362 . S
H720 C726 0.930 . S
H721 C729 0.930 . S
H722 C730 0.930 1_655 S
H723 C731 0.930 . S
H724 C734 0.930 . S
H725 C735 0.930 1_455 S
C726 H720 0.930 . S
C726 C727 1.355 . S
C726 C728 1.415 . S
C727 C726 1.355 . S
C727 C729 1.419 . S
C728 C726 1.415 . S
C728 C733 1.425 1_455 S
C728 C735 1.409 1_455 S
C729 H721 0.930 . S
C729 C727 1.419 . S
C729 C730 1.362 . S
C730 H722 0.930 1_455 S
C730 C729 1.362 . S
C730 C733 1.409 1_455 S
C731 H723 0.930 . S
C731 C732 1.355 . S
C731 C733 1.415 . S
C732 C731 1.355 . S
C732 C734 1.419 . S
C733 C728 1.425 1_655 S
C733 C730 1.409 1_655 S
C733 C731 1.415 . S
C734 H724 0.930 . S
C734 C732 1.419 . S
C734 C735 1.362 . S
C735 H725 0.930 1_655 S
C735 C728 1.409 1_655 S
C735 C734 1.362 . S
C231 C81 1.261 . S
C236 C11 1.245 . S
C247 C95 1.262 . S
C252 C25 1.223 . S
C263 C39 1.214 . S
C268 C109 1.218 . S
C279 C53 1.263 . S
C284 C67 1.228 . S
C295 C193 1.215 . S
C300 C123 1.257 . S
C311 C207 1.238 . S
C316 C137 1.207 . S
C327 C151 1.263 . S
C332 C221 1.235 . S
C343 C165 1.211 . S
C348 C179 1.251 . S
C359 C152 1.520 . S
C364 C12 1.515 . S
C375 C166 1.511 . S
C380 C26 1.512 . S
C391 C124 1.541 . S
C396 C40 1.544 . S
C407 C54 1.530 . S
C412 C138 1.525 . S
C423 C208 1.544 . S
C428 C68 1.545 . S
C439 C222 1.511 . S
C444 C82 1.511 . S
C455 C96 1.545 . S
C460 C180 1.543 . S
C471 C194 1.533 . S
C476 C110 1.538 . S
C487 C61 1.174 . S
C492 C5 1.069 . S
C503 C19 1.134 . S
C508 C75 1.138 . S
C519 C33 1.170 . S
C524 C89 1.083 . S
C535 C103 1.144 . S
C540 C47 1.128 . S
C551 C116 1.606 . S
C556 C172 1.619 . S
C567 C186 1.604 . S
C572 C130 1.626 . S
C583 C144 1.607 . S
C588 C200 1.627 . S
C599 C214 1.621 . S
C604 C158 1.616 . S
C615 C159 1.161 . S
C620 C187 1.103 . S
C631 C117 1.139 . S
C636 C201 1.017 . S
C647 C215 1.023 . S
C652 C131 1.114 . S
C663 C145 1.108 . S
C668 C173 1.026 . S
C679 C74 1.612 . S
C684 C46 1.612 . S
C695 C88 1.608 . S
C700 C4 1.626 . S
C711 C102 1.626 . S
C716 C18 1.608 . S
C727 C60 1.618 . S
C732 C32 1.607 . S
