# Generated by pormake.
# Topology bcs, (6)-cn, num edge types: 1
# Building blocks:
#     Node 0, Type 0, BuildingBlock: CIFDUS_clean_sbu_1, # of connection points: 6
#     Node 1, Type 0, BuildingBlock: CIFDUS_clean_sbu_1, # of connection points: 6
#     Node 2, Type 0, BuildingBlock: CIFDUS_clean_sbu_1, # of connection points: 6
#     Node 3, Type 0, BuildingBlock: CIFDUS_clean_sbu_1, # of connection points: 6
#     Node 4, Type 0, BuildingBlock: CIFDUS_clean_sbu_1, # of connection points: 6
#     Node 5, Type 0, BuildingBlock: CIFDUS_clean_sbu_1, # of connection points: 6
#     Node 6, Type 0, BuildingBlock: CIFDUS_clean_sbu_1, # of connection points: 6
#     Node 7, Type 0, BuildingBlock: CIFDUS_clean_sbu_1, # of connection points: 6
#     Node 8, Type 0, BuildingBlock: CIFDUS_clean_sbu_1, # of connection points: 6
#     Node 9, Type 0, BuildingBlock: CIFDUS_clean_sbu_1, # of connection points: 6
#     Node 10, Type 0, BuildingBlock: CIFDUS_clean_sbu_1, # of connection points: 6
#     Node 11, Type 0, BuildingBlock: CIFDUS_clean_sbu_1, # of connection points: 6
#     Node 12, Type 0, BuildingBlock: CIFDUS_clean_sbu_1, # of connection points: 6
#     Node 13, Type 0, BuildingBlock: CIFDUS_clean_sbu_1, # of connection points: 6
#     Node 14, Type 0, BuildingBlock: CIFDUS_clean_sbu_1, # of connection points: 6
#     Node 15, Type 0, BuildingBlock: CIFDUS_clean_sbu_1, # of connection points: 6
#     Edge 16, Type (0, 0), BuildingBlock: MIFKUJ_clean_linker_0, # of connection points: 2
#     Edge 17, Type (0, 0), BuildingBlock: MIFKUJ_clean_linker_0, # of connection points: 2
#     Edge 18, Type (0, 0), BuildingBlock: MIFKUJ_clean_linker_0, # of connection points: 2
#     Edge 19, Type (0, 0), BuildingBlock: MIFKUJ_clean_linker_0, # of connection points: 2
#     Edge 20, Type (0, 0), BuildingBlock: MIFKUJ_clean_linker_0, # of connection points: 2
#     Edge 21, Type (0, 0), BuildingBlock: MIFKUJ_clean_linker_0, # of connection points: 2
#     Edge 22, Type (0, 0), BuildingBlock: MIFKUJ_clean_linker_0, # of connection points: 2
#     Edge 23, Type (0, 0), BuildingBlock: MIFKUJ_clean_linker_0, # of connection points: 2
#     Edge 24, Type (0, 0), BuildingBlock: MIFKUJ_clean_linker_0, # of connection points: 2
#     Edge 25, Type (0, 0), BuildingBlock: MIFKUJ_clean_linker_0, # of connection points: 2
#     Edge 26, Type (0, 0), BuildingBlock: MIFKUJ_clean_linker_0, # of connection points: 2
#     Edge 27, Type (0, 0), BuildingBlock: MIFKUJ_clean_linker_0, # of connection points: 2
#     Edge 28, Type (0, 0), BuildingBlock: MIFKUJ_clean_linker_0, # of connection points: 2
#     Edge 29, Type (0, 0), BuildingBlock: MIFKUJ_clean_linker_0, # of connection points: 2
#     Edge 30, Type (0, 0), BuildingBlock: MIFKUJ_clean_linker_0, # of connection points: 2
#     Edge 31, Type (0, 0), BuildingBlock: MIFKUJ_clean_linker_0, # of connection points: 2
#     Edge 32, Type (0, 0), BuildingBlock: MIFKUJ_clean_linker_0, # of connection points: 2
#     Edge 33, Type (0, 0), BuildingBlock: MIFKUJ_clean_linker_0, # of connection points: 2
#     Edge 34, Type (0, 0), BuildingBlock: MIFKUJ_clean_linker_0, # of connection points: 2
#     Edge 35, Type (0, 0), BuildingBlock: MIFKUJ_clean_linker_0, # of connection points: 2
#     Edge 36, Type (0, 0), BuildingBlock: MIFKUJ_clean_linker_0, # of connection points: 2
#     Edge 37, Type (0, 0), BuildingBlock: MIFKUJ_clean_linker_0, # of connection points: 2
#     Edge 38, Type (0, 0), BuildingBlock: MIFKUJ_clean_linker_0, # of connection points: 2
#     Edge 39, Type (0, 0), BuildingBlock: MIFKUJ_clean_linker_0, # of connection points: 2
#     Edge 40, Type (0, 0), BuildingBlock: MIFKUJ_clean_linker_0, # of connection points: 2
#     Edge 41, Type (0, 0), BuildingBlock: MIFKUJ_clean_linker_0, # of connection points: 2
#     Edge 42, Type (0, 0), BuildingBlock: MIFKUJ_clean_linker_0, # of connection points: 2
#     Edge 43, Type (0, 0), BuildingBlock: MIFKUJ_clean_linker_0, # of connection points: 2
#     Edge 44, Type (0, 0), BuildingBlock: MIFKUJ_clean_linker_0, # of connection points: 2
#     Edge 45, Type (0, 0), BuildingBlock: MIFKUJ_clean_linker_0, # of connection points: 2
#     Edge 46, Type (0, 0), BuildingBlock: MIFKUJ_clean_linker_0, # of connection points: 2
#     Edge 47, Type (0, 0), BuildingBlock: MIFKUJ_clean_linker_0, # of connection points: 2
#     Edge 48, Type (0, 0), BuildingBlock: MIFKUJ_clean_linker_0, # of connection points: 2
#     Edge 49, Type (0, 0), BuildingBlock: MIFKUJ_clean_linker_0, # of connection points: 2
#     Edge 50, Type (0, 0), BuildingBlock: MIFKUJ_clean_linker_0, # of connection points: 2
#     Edge 51, Type (0, 0), BuildingBlock: MIFKUJ_clean_linker_0, # of connection points: 2
#     Edge 52, Type (0, 0), BuildingBlock: MIFKUJ_clean_linker_0, # of connection points: 2
#     Edge 53, Type (0, 0), BuildingBlock: MIFKUJ_clean_linker_0, # of connection points: 2
#     Edge 54, Type (0, 0), BuildingBlock: MIFKUJ_clean_linker_0, # of connection points: 2
#     Edge 55, Type (0, 0), BuildingBlock: MIFKUJ_clean_linker_0, # of connection points: 2
#     Edge 56, Type (0, 0), BuildingBlock: MIFKUJ_clean_linker_0, # of connection points: 2
#     Edge 57, Type (0, 0), BuildingBlock: MIFKUJ_clean_linker_0, # of connection points: 2
#     Edge 58, Type (0, 0), BuildingBlock: MIFKUJ_clean_linker_0, # of connection points: 2
#     Edge 59, Type (0, 0), BuildingBlock: MIFKUJ_clean_linker_0, # of connection points: 2
#     Edge 60, Type (0, 0), BuildingBlock: MIFKUJ_clean_linker_0, # of connection points: 2
#     Edge 61, Type (0, 0), BuildingBlock: MIFKUJ_clean_linker_0, # of connection points: 2
#     Edge 62, Type (0, 0), BuildingBlock: MIFKUJ_clean_linker_0, # of connection points: 2
#     Edge 63, Type (0, 0), BuildingBlock: MIFKUJ_clean_linker_0, # of connection points: 2
# Relax obj value: 0.279
# Max RMSD: 0.276
# Mean RMSD: 0.250
data_MOF--net-bcs--node1-CIFDUS_clean_sbu_1--edge1-MIFKUJ_clean_linker_0
_symmetry_space_group_name_H-M    P1
_symmetry_Int_Tables_number       1
_symmetry_cell_setting            triclinic
loop_
_symmetry_equiv_pos_as_xyz
'x, y, z'
_cell_length_a     43.527875
_cell_length_b     43.500395
_cell_length_c     47.027472
_cell_angle_alpha  88.449385
_cell_angle_beta   91.356777
_cell_angle_gamma 95.232816
loop_
_atom_site_label
_atom_site_type_symbol
_atom_site_fract_x
_atom_site_fract_y
_atom_site_fract_z
_atom_type_partial_charge
O0 O 0.98057 0.02455 0.96428 0.0
Mn1 Mn 0.00798 0.00814 -0.00396 0.0
O2 O 0.97092 0.06909 0.98207 0.0
Mn3 Mn 0.00838 0.07498 0.00212 0.0
O4 O 0.03509 0.98806 0.02624 0.0
O5 O 0.97996 0.96956 -0.00493 0.0
Mn6 Mn 0.99853 0.9377 0.98569 0.0
O7 O 0.0365 0.99133 0.96492 0.0
O8 O 0.03014 0.93767 0.01376 0.0
O9 O 0.98027 0.02461 0.0294 0.0
O10 O 0.00381 0.0707 0.0401 0.0
O11 O 0.95908 0.92302 -0.00396 0.0
O12 O 0.00951 0.94914 0.94925 0.0
C13 C 0.0493 0.06986 0.98074 0.0
C14 C 0.9644 0.04721 0.96516 0.0
C15 C 0.04183 0.95997 0.02917 0.0
C16 C 0.95717 0.9512 0.0034 0.0
C17 C 0.03246 0.96908 0.94725 0.0
C18 C 0.98509 0.04769 0.04653 0.0
O19 O 0.03633 0.04794 -0.00303 0.0
O20 O 0.03798 0.09634 0.9818 0.0
O21 O 0.27036 0.79586 0.29031 0.0
Mn22 Mn 0.25279 0.76344 0.26198 0.0
O23 O 0.32115 0.79158 0.29218 0.0
Mn24 Mn 0.3233 0.76652 0.26127 0.0
O25 O 0.23243 0.73082 0.23445 0.0
O26 O 0.21679 0.75898 0.28628 0.0
Mn27 Mn 0.18095 0.75924 0.26937 0.0
O28 O 0.23316 0.79806 0.23762 0.0
O29 O 0.18153 0.72663 0.24455 0.0
O30 O 0.27209 0.72815 0.28614 0.0
O31 O 0.32041 0.72531 0.27089 0.0
O32 O 0.17478 0.75021 0.30807 0.0
O33 O 0.18369 0.7977 0.2516 0.0
C34 C 0.30802 0.78596 0.22189 0.0
C35 C 0.29714 0.80248 0.30094 0.0
C36 C 0.20463 0.7185 0.23113 0.0
C37 C 0.20442 0.7498 0.30958 0.0
C38 C 0.20654 0.80889 0.23686 0.0
C39 C 0.29697 0.7143 0.28474 0.0
O40 O 0.29062 0.76793 0.23814 0.0
O41 O 0.33699 0.78753 0.2292 0.0
O42 O 0.52449 0.97911 0.53246 0.0
Mn43 Mn 0.50991 0.01273 0.50363 0.0
O44 O 0.5754 0.9907 0.53958 0.0
Mn45 Mn 0.5805 0.0193 0.5101 0.0
O46 O 0.49423 0.04543 0.47428 0.0
O47 O 0.47181 0.98505 0.4973 0.0
Mn48 Mn 0.43834 0.00386 0.50062 0.0
O49 O 0.48913 0.035 0.53683 0.0
O50 O 0.44234 0.0352 0.47307 0.0
O51 O 0.53078 0.98978 0.47064 0.0
O52 O 0.58204 0.00191 0.47512 0.0
O53 O 0.42548 0.96366 0.49145 0.0
O54 O 0.43922 0.0163 0.53761 0.0
C55 C 0.56763 0.0644 0.5161 0.0
C56 C 0.55051 0.97366 0.54408 0.0
C57 C 0.4671 0.05062 0.46475 0.0
C58 C 0.45475 0.96051 0.49106 0.0
C59 C 0.46236 0.03212 0.54837 0.0
C60 C 0.55877 0.98806 0.46262 0.0
O61 O 0.54836 0.04089 0.51034 0.0
O62 O 0.5964 0.05884 0.51662 0.0
O63 O 0.25124 0.22997 0.78087 0.0
Mn64 Mn 0.25294 0.26108 0.74581 0.0
O65 O 0.20445 0.20303 0.77869 0.0
Mn66 Mn 0.18621 0.23042 0.7548 0.0
O67 O 0.25526 0.29264 0.71047 0.0
O68 O 0.29185 0.28189 0.76142 0.0
Mn69 Mn 0.31734 0.29266 0.73339 0.0
O70 O 0.27742 0.23063 0.72358 0.0
O71 O 0.29724 0.3252 0.71921 0.0
O72 O 0.22704 0.29134 0.76818 0.0
O73 O 0.17885 0.26728 0.7701 0.0
O74 O 0.34131 0.28657 0.76551 0.0
O75 O 0.31822 0.26085 0.70784 0.0
C76 C 0.19584 0.22918 0.71074 0.0
C77 C 0.23169 0.20768 0.78907 0.0
C78 C 0.27205 0.31826 0.70558 0.0
C79 C 0.31548 0.27608 0.7767 0.0
C80 C 0.30143 0.23533 0.7082 0.0
C81 C 0.19832 0.29031 0.7751 0.0
O82 O 0.21436 0.24078 0.7298 0.0
O83 O 0.16924 0.21822 0.72016 0.0
O84 O 0.02968 0.03207 0.52017 0.0
Mn85 Mn 0.01545 0.00279 0.48769 0.0
O86 O 0.0796 0.04671 0.51311 0.0
Mn87 Mn 0.08495 0.01574 0.48851 0.0
O88 O 0.99856 0.97336 0.45702 0.0
O89 O 0.97763 0.98798 0.51181 0.0
Mn90 Mn 0.94991 0.00572 0.49085 0.0
O91 O 0.99565 0.03872 0.46499 0.0
O92 O 0.95013 0.98757 0.45499 0.0
O93 O 0.03574 0.96746 0.50963 0.0
O94 O 0.08697 0.97763 0.5059 0.0
O95 O 0.92701 0.98636 0.51832 0.0
O96 O 0.96184 0.04689 0.49555 0.0
C97 C 0.07505 0.02295 0.44528 0.0
C98 C 0.05491 0.04761 0.5268 0.0
C99 C 0.9715 0.97231 0.44574 0.0
C100 C 0.95373 0.97859 0.52709 0.0
C101 C 0.97556 0.05575 0.47339 0.0
C102 C 0.06346 0.96101 0.51469 0.0
O103 O 0.05376 0.01472 0.46384 0.0
O104 O 0.10331 0.02493 0.45491 0.0
O105 O 0.27577 0.72239 0.78479 0.0
Mn106 Mn 0.26049 0.75366 0.75529 0.0
O107 O 0.32774 0.72939 0.78409 0.0
Mn108 Mn 0.33156 0.76204 0.75763 0.0
O109 O 0.24396 0.78387 0.72541 0.0
O110 O 0.22213 0.72555 0.75057 0.0
Mn111 Mn 0.18933 0.74456 0.75717 0.0
O112 O 0.24074 0.77785 0.78793 0.0
O113 O 0.19205 0.77724 0.73032 0.0
O114 O 0.28107 0.72986 0.72226 0.0
O115 O 0.33023 0.75045 0.72061 0.0
O116 O 0.17538 0.70529 0.74596 0.0
O117 O 0.1931 0.75533 0.79461 0.0
C118 C 0.31709 0.80569 0.76833 0.0
C119 C 0.30252 0.71527 0.79273 0.0
C120 C 0.21647 0.79038 0.71893 0.0
C121 C 0.20427 0.7024 0.74198 0.0
C122 C 0.21571 0.77396 0.80225 0.0
C123 C 0.3078 0.73321 0.71037 0.0
O124 O 0.29879 0.78205 0.76122 0.0
O125 O 0.34605 0.8014 0.76736 0.0
O126 O 0.49803 0.98339 0.04522 0.0
Mn127 Mn 0.50419 0.01165 0.00889 0.0
O128 O 0.44594 0.97646 0.04758 0.0
Mn129 Mn 0.43484 0.99461 0.01337 0.0
O130 O 0.50823 0.03994 0.97211 0.0
O131 O 0.54284 0.03104 0.02766 0.0
Mn132 Mn 0.56768 0.04524 0.0007 0.0
O133 O 0.53054 0.98052 0.98884 0.0
O134 O 0.54664 0.07506 0.98252 0.0
O135 O 0.47996 0.04515 0.02845 0.0
O136 O 0.43054 0.0361 0.01507 0.0
O137 O 0.58905 0.05369 0.0341 0.0
O138 O 0.5744 0.01079 0.97975 0.0
C139 C 0.44624 0.97507 0.97476 0.0
C140 C 0.473 0.97375 0.05794 0.0
C141 C 0.52325 0.06618 0.96741 0.0
C142 C 0.56432 0.04069 0.04551 0.0
C143 C 0.5574 0.98529 0.97745 0.0
C144 C 0.45231 0.05335 0.02627 0.0
O145 O 0.46582 0.99072 0.99099 0.0
O146 O 0.41823 0.97172 0.98375 0.0
O147 O 0.22611 0.2826 0.22392 0.0
Mn148 Mn 0.25561 0.26453 0.25366 0.0
O149 O 0.2326 0.3345 0.22813 0.0
Mn150 Mn 0.26287 0.33644 0.25719 0.0
O151 O 0.2853 0.24629 0.28381 0.0
O152 O 0.22775 0.22524 0.25429 0.0
Mn153 Mn 0.2487 0.19302 0.25064 0.0
O154 O 0.28209 0.2481 0.22109 0.0
O155 O 0.27598 0.19443 0.28181 0.0
O156 O 0.22925 0.28146 0.28629 0.0
O157 O 0.2482 0.33068 0.29346 0.0
O158 O 0.20809 0.17772 0.25453 0.0
O159 O 0.2666 0.19778 0.21561 0.0
C160 C 0.30651 0.322 0.24493 0.0
C161 C 0.2197 0.31 0.21686 0.0
C162 C 0.29001 0.21875 0.29243 0.0
C163 C 0.20341 0.2064 0.25748 0.0
C164 C 0.28235 0.2225 0.20793 0.0
C165 C 0.23088 0.30667 0.30044 0.0
O166 O 0.2829 0.30391 0.25228 0.0
O167 O 0.30308 0.35081 0.24869 0.0
O168 O 0.52715 0.5232 0.02184 0.0
Mn169 Mn 0.50551 0.49593 -0.00839 0.0
O170 O 0.57578 0.50866 0.02299 0.0
Mn171 Mn 0.57353 0.48475 0.99022 0.0
O172 O 0.48266 0.46937 0.96113 0.0
O173 O 0.46678 0.49134 0.01406 0.0
Mn174 Mn 0.43794 0.50916 -0.00472 0.0
O175 O 0.49235 0.53482 0.96892 0.0
O176 O 0.43581 0.48823 0.9607 0.0
O177 O 0.51834 0.45738 0.01554 0.0
O178 O 0.55998 0.44366 -0.00472 0.0
O179 O 0.41952 0.49035 0.02704 0.0
O180 O 0.45462 0.54945 -0.00573 0.0
C181 C 0.56618 0.50841 0.95057 0.0
C182 C 0.55442 0.52378 0.03252 0.0
C183 C 0.4554 0.47129 0.95047 0.0
C184 C 0.44634 0.48056 0.03191 0.0
C185 C 0.47408 0.55512 0.97487 0.0
C186 C 0.53893 0.43838 0.01327 0.0
O187 O 0.54483 0.50076 0.9689 0.0
O188 O 0.59279 0.49904 0.95746 0.0
O189 O 0.77158 0.22098 0.27937 0.0
Mn190 Mn 0.7585 0.25553 0.25107 0.0
O191 O 0.82276 0.23214 0.28631 0.0
Mn192 Mn 0.82877 0.26378 0.2598 0.0
O193 O 0.74458 0.28854 0.22087 0.0
O194 O 0.71996 0.22827 0.24075 0.0
Mn195 Mn 0.68758 0.24984 0.24287 0.0
O196 O 0.73749 0.2776 0.28391 0.0
O197 O 0.69465 0.27277 0.20978 0.0
O198 O 0.78188 0.23366 0.21853 0.0
O199 O 0.83174 0.25147 0.22336 0.0
O200 O 0.67433 0.20909 0.24986 0.0
O201 O 0.68678 0.27292 0.27468 0.0
C202 C 0.81495 0.30682 0.27008 0.0
C203 C 0.79784 0.21486 0.28998 0.0
C204 C 0.71985 0.28956 0.20519 0.0
C205 C 0.70264 0.2034 0.24684 0.0
C206 C 0.7098 0.28272 0.28973 0.0
C207 C 0.81023 0.23558 0.21028 0.0
O208 O 0.79622 0.284 0.26121 0.0
O209 O 0.84393 0.30213 0.27052 0.0
O210 O 0.98496 0.47929 0.53479 0.0
Mn211 Mn 1.00255 0.51127 0.50424 0.0
O212 O 0.93411 0.47308 0.52306 0.0
Mn213 Mn 0.9319 0.50189 0.49382 0.0
O214 O 0.01768 0.54456 0.47398 0.0
O215 O 0.03949 0.5218 0.53025 0.0
Mn216 Mn 0.0724 0.52502 0.50875 0.0
O217 O 0.02543 0.47717 0.48375 0.0
O218 O 0.06781 0.55757 0.48369 0.0
O219 O 0.97882 0.5448 0.52507 0.0
O220 O 0.93093 0.54137 0.50583 0.0
O221 O 0.08771 0.53269 0.54432 0.0
O222 O 0.07607 0.4874 0.49325 0.0
C223 C 0.9525 0.49034 0.45554 0.0
C224 C 0.95707 0.46826 0.53952 0.0
C225 C 0.04285 0.56147 0.47004 0.0
C226 C 0.05885 0.52895 0.55092 0.0
C227 C 0.05368 0.47065 0.48236 0.0
C228 C 0.95143 0.55406 0.52252 0.0
O229 O 0.96711 0.50099 0.47774 0.0
O230 O 0.9228 0.48974 0.45717 0.0
O231 O 0.7281 0.72919 0.27451 0.0
Mn232 Mn 0.74578 0.75828 0.2423 0.0
O233 O 0.67631 0.73169 0.27181 0.0
Mn234 Mn 0.67375 0.75839 0.24007 0.0
O235 O 0.76309 0.78827 0.20981 0.0
O236 O 0.78596 0.76607 0.26316 0.0
Mn237 Mn 0.81623 0.763 0.23897 0.0
O238 O 0.76059 0.71941 0.22177 0.0
O239 O 0.81319 0.80088 0.22142 0.0
O240 O 0.72939 0.79625 0.26373 0.0
O241 O 0.68041 0.79953 0.24807 0.0
O242 O 0.82754 0.74666 0.27401 0.0
O243 O 0.81004 0.73298 0.21268 0.0
C244 C 0.68985 0.74223 0.20034 0.0
C245 C 0.70068 0.72195 0.28347 0.0
C246 C 0.78884 0.80488 0.20654 0.0
C247 C 0.80235 0.75548 0.28353 0.0
C248 C 0.7861 0.7147 0.21008 0.0
C249 C 0.70421 0.81012 0.26212 0.0
O250 O 0.70652 0.75231 0.22119 0.0
O251 O 0.66084 0.74402 0.20429 0.0
O252 O 0.75745 0.29249 0.7979 0.0
Mn253 Mn 0.74975 0.26606 0.76141 0.0
O254 O 0.79937 0.32427 0.79074 0.0
Mn255 Mn 0.81616 0.29511 0.76958 0.0
O256 O 0.74042 0.23666 0.72661 0.0
O257 O 0.71149 0.24919 0.77956 0.0
Mn258 Mn 0.67899 0.24785 0.7571 0.0
O259 O 0.72686 0.30031 0.7408 0.0
O260 O 0.68955 0.22083 0.73035 0.0
O261 O 0.77433 0.23324 0.78165 0.0
O262 O 0.82243 0.25744 0.78751 0.0
O263 O 0.66557 0.23404 0.79264 0.0
O264 O 0.67586 0.28776 0.74421 0.0
C265 C 0.80852 0.29287 0.72486 0.0
C266 C 0.77636 0.31508 0.80572 0.0
C267 C 0.71591 0.2194 0.71928 0.0
C268 C 0.69442 0.23847 0.7998 0.0
C269 C 0.69876 0.30605 0.73639 0.0
C270 C 0.80263 0.23396 0.79027 0.0
O271 O 0.7882 0.28427 0.74339 0.0
O272 O 0.83443 0.30509 0.73542 0.0
O273 O 0.72155 0.7761 0.72128 0.0
Mn274 Mn 0.75349 0.76575 0.75244 0.0
O275 O 0.71206 0.82298 0.733 0.0
Mn276 Mn 0.74928 0.83046 0.75267 0.0
O277 O 0.7853 0.75205 0.78274 0.0
O278 O 0.72808 0.72541 0.7573 0.0
Mn279 Mn 0.74995 0.69413 0.75295 0.0
O280 O 0.77992 0.74777 0.72039 0.0
O281 O 0.78042 0.69972 0.78146 0.0
O282 O 0.72727 0.78307 0.78647 0.0
O283 O 0.7461 0.83193 0.79068 0.0
O284 O 0.7109 0.67764 0.76245 0.0
O285 O 0.7634 0.69761 0.71625 0.0
C286 C 0.78907 0.83071 0.72964 0.0
C287 C 0.7056 0.79904 0.71875 0.0
C288 C 0.79258 0.72529 0.79133 0.0
C289 C 0.70579 0.70615 0.76579 0.0
C290 C 0.77935 0.7218 0.70764 0.0
C291 C 0.73069 0.80833 0.8008 0.0
O292 O 0.78054 0.80721 0.74678 0.0
O293 O 0.77419 0.85511 0.73124 0.0
O294 O 0.47046 0.51046 0.47387 0.0
Mn295 Mn 0.50678 0.50236 0.5021 0.0
O296 O 0.472 0.5625 0.47017 0.0
Mn297 Mn 0.50492 0.57265 0.49453 0.0
O298 O 0.54213 0.49443 0.53184 0.0
O299 O 0.48556 0.46034 0.51227 0.0
Mn300 Mn 0.51361 0.43328 0.51424 0.0
O301 O 0.53093 0.48428 0.46925 0.0
O302 O 0.53149 0.44544 0.54817 0.0
O303 O 0.48264 0.52192 0.53533 0.0
O304 O 0.49531 0.57311 0.53207 0.0
O305 O 0.47649 0.41149 0.50659 0.0
O306 O 0.53999 0.43653 0.48407 0.0
C307 C 0.5504 0.56492 0.48402 0.0
C308 C 0.45972 0.5355 0.46462 0.0
C309 C 0.54508 0.47254 0.55047 0.0
C310 C 0.46523 0.43802 0.50561 0.0
C311 C 0.54355 0.45904 0.46651 0.0
C312 C 0.4828 0.54948 0.5451 0.0
O313 O 0.52955 0.5434 0.49176 0.0
O314 O 0.54134 0.59249 0.48264 0.0
O315 O 0.01609 0.47276 0.02618 0.0
Mn316 Mn 0.00651 0.51016 -0.00109 0.0
O317 O 0.06713 0.48074 0.0364 0.0
Mn318 Mn 0.0762 0.51405 0.01222 0.0
O319 O 0.99758 0.54733 0.97098 0.0
O320 O 0.96907 0.48532 0.98364 0.0
Mn321 Mn 0.94006 0.5104 0.97669 0.0
O322 O 0.98061 0.52922 0.0308 0.0
O323 O 0.95599 0.53074 0.94484 0.0
O324 O 0.03162 0.49091 0.9665 0.0
O325 O 0.08186 0.50438 0.97525 0.0
O326 O 0.9205 0.47165 0.98299 0.0
O327 O 0.93661 0.53606 0.00677 0.0
C328 C 0.06331 0.55778 0.02231 0.0
C329 C 0.04112 0.46491 0.03844 0.0
C330 C 0.97947 0.54985 0.94909 0.0
C331 C 0.94779 0.46366 0.98928 0.0
C332 C 0.95371 0.53955 0.02892 0.0
C333 C 0.06027 0.49202 0.95962 0.0
O334 O 0.04431 0.53576 0.01271 0.0
O335 O 0.09173 0.55142 0.02537 0.0
H336 H 0.23262 0.14597 0.79106 0.0
H337 H 0.2145 0.11404 0.83184 0.0
H338 H 0.22209 0.19456 0.88403 0.0
H339 H 0.24066 0.22648 0.84317 0.0
H340 H 0.22894 0.14361 0.91619 0.0
H341 H 0.161 0.1788 0.84803 0.0
H342 H 0.13088 0.19027 0.80479 0.0
H343 H 0.10234 0.09383 0.79628 0.0
H344 H 0.13383 0.08147 0.83847 0.0
H345 H 0.09482 0.11087 -0.00243 0.0
H346 H 0.14054 0.12675 0.97126 0.0
H347 H 0.12397 0.04627 0.91921 0.0
H348 H 0.07536 0.03256 0.94359 0.0
H349 H 0.12529 0.09544 0.88868 0.0
H350 H 0.19551 0.06842 0.96825 0.0
H351 H 0.20959 0.07156 0.01934 0.0
H352 H 0.21765 0.1706 0.0126 0.0
H353 H 0.20362 0.16806 0.96158 0.0
C354 C 0.23232 0.15644 0.8117 0.0
C355 C 0.23796 0.18853 0.81415 0.0
C356 C 0.2215 0.1383 0.83486 0.0
C357 C 0.21609 0.15214 0.86063 0.0
C358 C 0.22596 0.18349 0.86423 0.0
C359 C 0.23694 0.20167 0.84099 0.0
C360 C 0.19596 0.13519 0.8818 0.0
C361 C 0.20642 0.13269 0.91014 0.0
C362 C 0.16598 0.12215 0.87408 0.0
C363 C 0.15046 0.1291 0.84632 0.0
C364 C 0.14928 0.15985 0.83646 0.0
C365 C 0.13177 0.16657 0.81215 0.0
C366 C 0.11468 0.14284 0.79783 0.0
C367 C 0.1157 0.11223 0.80732 0.0
C368 C 0.13364 0.10532 0.83128 0.0
C369 C 0.1015 0.09593 0.98115 0.0
C370 C 0.08154 0.07062 0.97241 0.0
C371 C 0.12814 0.1048 0.96633 0.0
C372 C 0.1363 0.08755 0.94338 0.0
C373 C 0.11823 0.05992 0.93694 0.0
C374 C 0.09065 0.05174 0.95111 0.0
C375 C 0.15898 0.10174 0.9227 0.0
C376 C 0.14855 0.10468 0.89441 0.0
C377 C 0.18801 0.11676 0.93089 0.0
C378 C 0.19876 0.118 0.96104 0.0
C379 C 0.20055 0.09084 0.97763 0.0
C380 C 0.20844 0.09253 0.0066 0.0
C381 C 0.21457 0.12125 0.01919 0.0
C382 C 0.21307 0.14837 0.00281 0.0
C383 C 0.20534 0.14681 0.97383 0.0
H384 H 0.22044 0.1225 0.04165 0.0
H385 H 0.10048 0.14826 0.77949 0.0
H386 H 0.09606 0.99272 0.04361 0.0
H387 H 0.13374 0.97869 0.08054 0.0
H388 H 0.07401 0.89731 0.10266 0.0
H389 H 0.037 0.9107 0.06544 0.0
H390 H 0.09755 0.93156 0.14973 0.0
H391 H 0.12795 0.88909 0.06279 0.0
H392 H 0.14483 0.89008 0.01314 0.0
H393 H 0.22768 0.94575 0.03638 0.0
H394 H 0.21082 0.94588 0.08615 0.0
H395 H 0.15854 0.80283 0.20064 0.0
H396 H 0.14137 0.84069 0.16626 0.0
H397 H 0.2203 0.9037 0.18782 0.0
H398 H 0.23796 0.86514 0.22276 0.0
H399 H 0.19739 0.89483 0.12308 0.0
H400 H 0.16423 0.92075 0.217 0.0
H401 H 0.14292 0.90526 0.26392 0.0
H402 H 0.05939 0.86605 0.22367 0.0
H403 H 0.08039 0.88067 0.17653 0.0
C404 C 0.09108 0.97196 0.05655 0.0
C405 C 0.06389 0.95262 0.05181 0.0
C406 C 0.11252 0.964 0.0775 0.0
C407 C 0.1065 0.93706 0.09425 0.0
C408 C 0.07893 0.91826 0.08995 0.0
C409 C 0.05796 0.92577 0.06865 0.0
C410 C 0.12906 0.92731 0.11578 0.0
C411 C 0.11968 0.92409 0.14408 0.0
C412 C 0.15787 0.91762 0.10816 0.0
C413 C 0.16778 0.91812 0.07813 0.0
C414 C 0.14948 0.90207 0.05727 0.0
C415 C 0.1591 0.90232 0.0291 0.0
C416 C 0.18724 0.9181 0.02158 0.0
C417 C 0.2058 0.93368 0.04222 0.0
C418 C 0.19619 0.93368 0.0704 0.0
C419 C 0.17245 0.82464 0.1979 0.0
C420 C 0.19933 0.83138 0.21446 0.0
C421 C 0.16271 0.84612 0.17819 0.0
C422 C 0.1794 0.87498 0.17484 0.0
C423 C 0.2072 0.88143 0.19024 0.0
C424 C 0.21722 0.85956 0.21007 0.0
C425 C 0.1655 0.89851 0.15684 0.0
C426 C 0.17621 0.90405 0.12911 0.0
C427 C 0.13722 0.90923 0.16464 0.0
C428 C 0.12393 0.90191 0.19317 0.0
C429 C 0.14133 0.90881 0.21814 0.0
C430 C 0.12932 0.90011 0.24479 0.0
C431 C 0.09981 0.8847 0.24677 0.0
C432 C 0.08221 0.87805 0.22212 0.0
C433 C 0.09415 0.88659 0.19543 0.0
H434 H 0.09059 0.87792 0.26741 0.0
H435 H 0.19474 0.91809 -0.0002 0.0
H436 H 0.48419 0.95569 0.44128 0.0
H437 H 0.45752 0.91881 0.40898 0.0
H438 H 0.41799 0.86711 0.48092 0.0
H439 H 0.4467 0.90245 0.51288 0.0
H440 H 0.40854 0.83348 0.43801 0.0
H441 H 0.37899 0.94936 0.44642 0.0
H442 H 0.38568 0.00513 0.43423 0.0
H443 H 0.42128 0.98544 0.35292 0.0
H444 H 0.41434 0.92966 0.3646 0.0
H445 H 0.2759 0.792 0.35455 0.0
H446 H 0.29961 0.81718 0.39693 0.0
H447 H 0.35345 0.88173 0.34203 0.0
H448 H 0.32894 0.85767 0.30064 0.0
H449 H 0.34639 0.90801 0.38638 0.0
H450 H 0.3748 0.8 0.36778 0.0
H451 H 0.36126 0.7436 0.36774 0.0
H452 H 0.33036 0.74571 0.45367 0.0
H453 H 0.344 0.80212 0.45421 0.0
C454 C 0.47196 0.93498 0.45022 0.0
C455 C 0.46542 0.93283 0.4793 0.0
C456 C 0.45578 0.91447 0.43168 0.0
C457 C 0.43352 0.89207 0.44259 0.0
C458 C 0.43398 0.8851 0.4719 0.0
C459 C 0.45089 0.90511 0.49028 0.0
C460 C 0.40582 0.88126 0.42549 0.0
C461 C 0.39518 0.84978 0.42642 0.0
C462 C 0.38759 0.90239 0.41102 0.0
C463 C 0.39702 0.93559 0.40672 0.0
C464 C 0.38905 0.95708 0.42633 0.0
C465 C 0.39258 0.98865 0.41935 0.0
C466 C 0.40406 -0.00117 0.39283 0.0
C467 C 0.41257 0.97756 0.37348 0.0
C468 C 0.40888 0.94603 0.38027 0.0
C469 C 0.29165 0.81262 0.35194 0.0
C470 C 0.30113 0.82305 0.32475 0.0
C471 C 0.30551 0.82662 0.37602 0.0
C472 C 0.32922 0.85053 0.37269 0.0
C473 C 0.33548 0.86313 0.34535 0.0
C474 C 0.3215 0.84947 0.32157 0.0
C475 C 0.35105 0.86009 0.39602 0.0
C476 C 0.35989 0.89164 0.3978 0.0
C477 C 0.36837 0.83884 0.41134 0.0
C478 C 0.36017 0.80513 0.41095 0.0
C479 C 0.36509 0.78837 0.38661 0.0
C480 C 0.35738 0.75645 0.38651 0.0
C481 C 0.3448 0.74111 0.41064 0.0
C482 C 0.34004 0.75764 0.43498 0.0
C483 C 0.34781 0.78955 0.43522 0.0
H484 H 0.33886 0.71642 0.41055 0.0
H485 H 0.40598 0.02313 0.38698 0.0
H486 H 0.33308 0.24194 0.65926 0.0
H487 H 0.35803 0.20279 0.63472 0.0
H488 H 0.31971 0.1329 0.69391 0.0
H489 H 0.29443 0.1725 0.71891 0.0
H490 H 0.3826 0.13027 0.68697 0.0
H491 H 0.29383 0.13123 0.62711 0.0
H492 H 0.25309 0.15412 0.59856 0.0
H493 H 0.3211 0.19659 0.54169 0.0
H494 H 0.36235 0.17434 0.57016 0.0
H495 H 0.43427 0.01344 0.59733 0.0
H496 H 0.40568 0.04556 0.6273 0.0
H497 H 0.44158 0.12678 0.58003 0.0
H498 H 0.47069 0.09461 0.55028 0.0
H499 H 0.37549 0.11806 0.58232 0.0
H500 H 0.46414 0.12037 0.64633 0.0
H501 H 0.50395 0.09506 0.67402 0.0
H502 H 0.43363 0.0429 0.72224 0.0
H503 H 0.39333 0.06779 0.69461 0.0
C504 C 0.3295 0.21816 0.66686 0.0
C505 C 0.31185 0.21031 0.69108 0.0
C506 C 0.34375 0.19576 0.65274 0.0
C507 C 0.34074 0.16487 0.6624 0.0
C508 C 0.32235 0.15663 0.6861 0.0
C509 C 0.30771 0.17916 0.70018 0.0
C510 C 0.3583 0.14201 0.64825 0.0
C511 C 0.38057 0.1271 0.66418 0.0
C512 C 0.356 0.13814 0.61844 0.0
C513 C 0.33124 0.15125 0.60091 0.0
C514 C 0.30015 0.14561 0.60862 0.0
C515 C 0.27695 0.15845 0.59243 0.0
C516 C 0.28451 0.17683 0.56834 0.0
C517 C 0.31529 0.18233 0.56035 0.0
C518 C 0.33859 0.16957 0.57649 0.0
C519 C 0.4372 0.03831 0.59427 0.0
C520 C 0.45519 0.05167 0.57195 0.0
C521 C 0.42056 0.05659 0.61114 0.0
C522 C 0.42131 0.08852 0.60573 0.0
C523 C 0.44067 0.10216 0.58451 0.0
C524 C 0.45775 0.08388 0.56789 0.0
C525 C 0.40026 0.10719 0.62092 0.0
C526 C 0.37726 0.12111 0.60514 0.0
C527 C 0.40164 0.10982 0.65083 0.0
C528 C 0.42575 0.09579 0.66831 0.0
C529 C 0.45717 0.10345 0.6628 0.0
C530 C 0.47982 0.08918 0.67847 0.0
C531 C 0.47133 0.06731 0.69983 0.0
C532 C 0.44016 0.05985 0.70569 0.0
C533 C 0.41741 0.07409 0.69007 0.0
H534 H 0.4889 0.05619 0.71187 0.0
H535 H 0.26653 0.18678 0.55585 0.0
H536 H 0.06473 0.96761 0.57107 0.0
H537 H 0.09383 0.93731 0.60512 0.0
H538 H 0.1074 0.87246 0.53975 0.0
H539 H 0.07894 0.90333 0.50542 0.0
H540 H 0.09657 0.84663 0.59788 0.0
H541 H 0.15861 0.92512 0.5452 0.0
H542 H 0.17267 0.97804 0.52695 0.0
H543 H 0.18616 0.00974 0.61238 0.0
H544 H 0.1714 0.95711 0.6312 0.0
H545 H 0.21913 0.77973 0.66301 0.0
H546 H 0.19771 0.81087 0.6244 0.0
H547 H 0.18155 0.88082 0.68424 0.0
H548 H 0.20245 0.84935 0.72294 0.0
H549 H 0.19616 0.90385 0.62628 0.0
H550 H 0.12873 0.83019 0.67916 0.0
H551 H 0.11334 0.77872 0.70011 0.0
H552 H 0.10815 0.74003 0.6169 0.0
H553 H 0.1243 0.79127 0.5955 0.0
C554 C 0.07272 0.94609 0.56442 0.0
C555 C 0.06948 0.9373 0.53594 0.0
C556 C 0.08959 0.92909 0.58371 0.0
C557 C 0.10309 0.90311 0.57463 0.0
C558 C 0.09717 0.89259 0.54694 0.0
C559 C 0.08075 0.90993 0.52749 0.0
C560 C 0.12592 0.88892 0.59307 0.0
C561 C 0.11854 0.85891 0.60374 0.0
C562 C 0.15428 0.90545 0.60099 0.0
C563 C 0.16344 0.93715 0.58965 0.0
C564 C 0.16417 0.9434 0.56013 0.0
C565 C 0.17234 0.97337 0.54967 0.0
C566 C 0.1802 -0.00274 0.5685 0.0
C567 C 0.17998 0.99122 0.59782 0.0
C568 C 0.1717 0.96132 0.6084 0.0
C569 C 0.2121 0.80232 0.66757 0.0
C570 C 0.21213 0.81239 0.69562 0.0
C571 C 0.19996 0.82004 0.64562 0.0
C572 C 0.18785 0.84789 0.65168 0.0
C573 C 0.1909 0.85941 0.67927 0.0
C574 C 0.20264 0.84147 0.70129 0.0
C575 C 0.16674 0.86158 0.63103 0.0
C576 C 0.17436 0.89149 0.62006 0.0
C577 C 0.13837 0.84521 0.62307 0.0
C578 C 0.1282 0.81446 0.63578 0.0
C579 C 0.12466 0.81066 0.66536 0.0
C580 C 0.11576 0.78153 0.67731 0.0
C581 C 0.10988 0.75609 0.65986 0.0
C582 C 0.11281 0.75976 0.6304 0.0
C583 C 0.12188 0.78883 0.61834 0.0
H584 H 0.10295 0.73356 0.66915 0.0
H585 H 0.18655 0.02043 0.56036 0.0
H586 H 0.32625 0.86556 0.75184 0.0
H587 H 0.34932 0.90237 0.78614 0.0
H588 H 0.31617 0.84147 0.85487 0.0
H589 H 0.29247 0.8051 0.82047 0.0
H590 H 0.32612 0.89798 0.87354 0.0
H591 H 0.38458 0.82946 0.82546 0.0
H592 H 0.40768 0.80289 0.78668 0.0
H593 H 0.44921 0.8897 0.75422 0.0
H594 H 0.42657 0.91677 0.79301 0.0
H595 H 0.45069 0.91469 0.96837 0.0
H596 H 0.4281 0.8886 0.92648 0.0
H597 H 0.43116 0.9758 0.88044 0.0
H598 H 0.45324 0.00205 0.92266 0.0
H599 H 0.43747 0.90728 0.85037 0.0
H600 H 0.37346 0.97258 0.90707 0.0
H601 H 0.35527 0.98851 0.95327 0.0
H602 H 0.32761 0.89389 0.97588 0.0
H603 H 0.34598 0.87743 0.92989 0.0
C604 C 0.32187 0.86116 0.77424 0.0
C605 C 0.30841 0.83224 0.78363 0.0
C606 C 0.33572 0.88188 0.79386 0.0
C607 C 0.3359 0.87379 0.82295 0.0
C608 C 0.31696 0.84783 0.83245 0.0
C609 C 0.30285 0.82726 0.81273 0.0
C610 C 0.35954 0.889 0.84244 0.0
C611 C 0.35037 0.90014 0.8683 0.0
C612 C 0.39146 0.891 0.83617 0.0
C613 C 0.40345 0.87518 0.8118 0.0
C614 C 0.39829 0.84292 0.80982 0.0
C615 C 0.41146 0.82776 0.78796 0.0
C616 C 0.42968 0.84462 0.76787 0.0
C617 C 0.43493 0.87669 0.7697 0.0
C618 C 0.42202 0.89194 0.79165 0.0
C619 C 0.44857 0.92796 0.94869 0.0
C620 C 0.45342 0.96028 0.9486 0.0
C621 C 0.43526 0.9131 0.92492 0.0
C622 C 0.42731 0.93052 0.90083 0.0
C623 C 0.43704 0.96213 0.89904 0.0
C624 C 0.45009 0.97704 0.923 0.0
C625 C 0.40376 0.91717 0.88058 0.0
C626 C 0.41306 0.90587 0.85498 0.0
C627 C 0.37216 0.91388 0.88758 0.0
C628 C 0.36137 0.92379 0.91523 0.0
C629 C 0.36378 0.95518 0.92202 0.0
C630 C 0.35333 0.9643 0.94811 0.0
C631 C 0.34035 0.94222 0.96753 0.0
C632 C 0.33772 0.91097 0.96085 0.0
C633 C 0.34811 0.90174 0.93478 0.0
H634 H 0.33228 0.94933 0.98771 0.0
H635 H 0.43986 0.83282 0.75097 0.0
H636 H 0.47807 0.07813 0.07528 0.0
H637 H 0.45522 0.11444 0.10583 0.0
H638 H 0.38235 0.12386 0.04324 0.0
H639 H 0.40527 0.0882 0.01265 0.0
H640 H 0.39728 0.17728 0.06639 0.0
H641 H 0.3731 0.07348 0.09924 0.0
H642 H 0.38501 0.02131 0.11514 0.0
H643 H 0.43369 0.05905 0.18853 0.0
H644 H 0.4226 0.11161 0.17278 0.0
H645 H 0.27117 0.20922 0.15256 0.0
H646 H 0.30675 0.18687 0.12095 0.0
H647 H 0.37956 0.20024 0.18443 0.0
H648 H 0.34406 0.22335 0.21579 0.0
H649 H 0.36843 0.1377 0.16298 0.0
H650 H 0.38586 0.24353 0.1276 0.0
H651 H 0.36793 0.29258 0.10919 0.0
H652 H 0.32333 0.24575 0.03805 0.0
H653 H 0.34063 0.19633 0.05627 0.0
C654 C 0.45778 0.08878 0.06768 0.0
C655 C 0.44343 0.08032 0.0416 0.0
C656 C 0.4445 0.1092 0.0853 0.0
C657 C 0.4167 0.12144 0.07708 0.0
C658 C 0.40368 0.11466 0.05015 0.0
C659 C 0.41683 0.09426 0.03265 0.0
C660 C 0.39996 0.13973 0.09694 0.0
C661 C 0.39101 0.16857 0.0875 0.0
C662 C 0.39154 0.1283 0.12448 0.0
C663 C 0.39745 0.09661 0.13456 0.0
C664 C 0.38654 0.07072 0.11867 0.0
C665 C 0.39313 0.04107 0.12765 0.0
C666 C 0.41026 0.03691 0.15272 0.0
C667 C 0.42055 0.06236 0.16903 0.0
C668 C 0.41413 0.0921 0.16007 0.0
C669 C 0.29514 0.20865 0.15914 0.0
C670 C 0.30523 0.21887 0.18611 0.0
C671 C 0.31532 0.1955 0.14131 0.0
C672 C 0.34577 0.19181 0.1504 0.0
C673 C 0.35618 0.20295 0.177 0.0
C674 C 0.33612 0.21666 0.19464 0.0
C675 C 0.36616 0.17529 0.13242 0.0
C676 C 0.37539 0.14661 0.14212 0.0
C677 C 0.37406 0.18635 0.10478 0.0
C678 C 0.36445 0.21622 0.09336 0.0
C679 C 0.37214 0.24368 0.10808 0.0
C680 C 0.36208 0.27154 0.09769 0.0
C681 C 0.34447 0.27227 0.07248 0.0
C682 C 0.33698 0.24515 0.05756 0.0
C683 C 0.34695 0.21722 0.06789 0.0
H684 H 0.33666 0.29385 0.06449 0.0
H685 H 0.41554 0.01398 0.15951 0.0
H686 H 0.11089 0.01732 0.40015 0.0
H687 H 0.11618 0.05416 0.3602 0.0
H688 H 0.03366 0.09332 0.3849 0.0
H689 H 0.02865 0.05674 0.42524 0.0
H690 H 0.08002 0.08074 0.3131 0.0
H691 H 0.06008 0.14815 0.40925 0.0
H692 H 0.07339 0.14617 0.46073 0.0
H693 H 0.16169 0.1156 0.44232 0.0
H694 H 0.14879 0.11725 0.39096 0.0
H695 H 0.14432 0.20514 0.23656 0.0
H696 H 0.10215 0.18087 0.26516 0.0
H697 H 0.16128 0.19111 0.34017 0.0
H698 H 0.20074 0.21914 0.31231 0.0
H699 H 0.11427 0.17927 0.35985 0.0
H700 H 0.15793 0.12693 0.28367 0.0
H701 H 0.16994 0.11464 0.23444 0.0
H702 H 0.07319 0.09887 0.21406 0.0
H703 H 0.06064 0.11143 0.2631 0.0
C704 C 0.09293 0.03271 0.39623 0.0
C705 C 0.06941 0.03436 0.41601 0.0
C706 C 0.09605 0.05379 0.37337 0.0
C707 C 0.07557 0.0767 0.36991 0.0
C708 C 0.04976 0.07581 0.38738 0.0
C709 C 0.04665 0.05463 0.4103 0.0
C710 C 0.0848 0.10468 0.35248 0.0
C711 C 0.08691 0.10264 0.32298 0.0
C712 C 0.09586 0.13235 0.36572 0.0
C713 C 0.1034 0.13262 0.39651 0.0
C714 C 0.08232 0.14114 0.41629 0.0
C715 C 0.08978 0.14 0.4454 0.0
C716 C 0.11824 0.13046 0.45474 0.0
C717 C 0.13958 0.12272 0.43506 0.0
C718 C 0.13221 0.12373 0.40602 0.0
C719 C 0.14709 0.20442 0.25952 0.0
C720 C 0.17588 0.2133 0.2723 0.0
C721 C 0.12338 0.18952 0.27581 0.0
C722 C 0.1291 0.1818 0.3046 0.0
C723 C 0.15595 0.19582 0.31798 0.0
C724 C 0.17871 0.21238 0.30199 0.0
C725 C 0.11041 0.15597 0.31969 0.0
C726 C 0.10642 0.15813 0.34914 0.0
C727 C 0.10088 0.12734 0.30656 0.0
C728 C 0.10835 0.12071 0.27685 0.0
C729 C 0.13924 0.12114 0.26859 0.0
C730 C 0.14613 0.11408 0.24075 0.0
C731 C 0.12234 0.10614 0.2211 0.0
C732 C 0.09159 0.10519 0.22926 0.0
C733 C 0.08457 0.11233 0.25705 0.0
H734 H 0.12772 0.10059 0.19958 0.0
H735 H 0.12371 0.12869 0.47721 0.0
H736 H 0.86583 0.24268 0.18523 0.0
H737 H 0.89012 0.20604 0.15833 0.0
H738 H 0.80484 0.14725 0.15449 0.0
H739 H 0.78066 0.18314 0.18501 0.0
H740 H 0.85005 0.11314 0.16479 0.0
H741 H 0.83988 0.19595 0.09413 0.0
H742 H 0.84566 0.25068 0.07825 0.0
H743 H 0.94359 0.2538 0.0929 0.0
H744 H 0.93842 0.19922 0.10912 0.0
H745 H 0.922 0.03381 0.04781 0.0
H746 H 0.88647 0.06188 0.07521 0.0
H747 H 0.96383 0.10803 0.12045 0.0
H748 H 0.99903 0.07908 0.09453 0.0
H749 H 0.9184 0.14672 0.08468 0.0
H750 H 0.93111 0.07516 0.16267 0.0
H751 H 0.93212 0.02302 0.18434 0.0
H752 H 0.83717 0.00151 0.15959 0.0
H753 H 0.83566 0.05367 0.13767 0.0
C754 C 0.85172 0.22224 0.17854 0.0
C755 C 0.82098 0.21613 0.18745 0.0
C756 C 0.86581 0.20125 0.16262 0.0
C757 C 0.84931 0.17408 0.15331 0.0
C758 C 0.81812 0.16822 0.16108 0.0
C759 C 0.8041 0.18897 0.17815 0.0
C760 C 0.86558 0.15146 0.13699 0.0
C761 C 0.8642 0.12045 0.14673 0.0
C762 C 0.88544 0.16098 0.11412 0.0
C763 C 0.88872 0.19339 0.10282 0.0
C764 C 0.86266 0.20826 0.09388 0.0
C765 C 0.86583 0.23929 0.08488 0.0
C766 C 0.89496 0.25569 0.08457 0.0
C767 C 0.92104 0.24105 0.09308 0.0
C768 C 0.91801 0.21003 0.10209 0.0
C769 C 0.93126 0.04855 0.06471 0.0
C770 C 0.96335 0.05398 0.06909 0.0
C771 C 0.911 0.06509 0.07996 0.0
C772 C 0.92262 0.08748 0.09945 0.0
C773 C 0.95438 0.0911 0.10536 0.0
C774 C 0.97444 0.07418 0.09074 0.0
C775 C 0.90221 0.10876 0.11229 0.0
C776 C 0.90328 0.13945 0.10209 0.0
C777 C 0.88276 0.09929 0.13505 0.0
C778 C 0.88333 0.06812 0.14833 0.0
C779 C 0.9105 0.05923 0.16169 0.0
C780 C 0.91114 0.02974 0.17411 0.0
C781 C 0.88471 0.00897 0.17336 0.0
C782 C 0.85759 0.01767 0.1602 0.0
C783 C 0.8568 0.04721 0.14783 0.0
H784 H 0.88526 0.98611 0.18292 0.0
H785 H 0.89733 0.27974 0.07774 0.0
H786 H 0.06106 0.62053 0.47916 0.0
H787 H 0.08639 0.65501 0.44441 0.0
H788 H 0.05343 0.59351 0.37734 0.0
H789 H 0.02942 0.55755 0.41321 0.0
H790 H 0.11136 0.59723 0.37872 0.0
H791 H 0.04385 0.67775 0.37594 0.0
H792 H 0.0087 0.71162 0.39737 0.0
H793 H 0.08327 0.75211 0.44937 0.0
H794 H 0.11881 0.7185 0.4284 0.0
H795 H 0.21695 0.69333 0.29566 0.0
H796 H 0.18673 0.65411 0.32178 0.0
H797 H 0.19273 0.71196 0.39546 0.0
H798 H 0.21842 0.75359 0.36673 0.0
H799 H 0.13936 0.71001 0.37912 0.0
H800 H 0.2012 0.61773 0.39132 0.0
H801 H 0.23441 0.5801 0.3725 0.0
H802 H 0.16934 0.56074 0.30387 0.0
H803 H 0.13585 0.59808 0.32239 0.0
C804 C 0.05792 0.61517 0.45684 0.0
C805 C 0.0441 0.5864 0.4487 0.0
C806 C 0.07215 0.63514 0.43674 0.0
C807 C 0.0721 0.62691 0.40806 0.0
C808 C 0.05397 0.6002 0.39938 0.0
C809 C 0.04006 0.57981 0.41977 0.0
C810 C 0.09693 0.64146 0.38988 0.0
C811 C 0.11721 0.62203 0.37831 0.0
C812 C 0.10486 0.67366 0.38948 0.0
C813 C 0.08399 0.69554 0.40056 0.0
C814 C 0.05277 0.69398 0.39185 0.0
C815 C 0.03278 0.71311 0.40395 0.0
C816 C 0.04373 0.7339 0.42479 0.0
C817 C 0.07482 0.73602 0.43321 0.0
C818 C 0.09494 0.71706 0.42109 0.0
C819 C 0.21358 0.69704 0.31804 0.0
C820 C 0.21738 0.72703 0.32858 0.0
C821 C 0.1959 0.6742 0.33324 0.0
C822 C 0.1855 0.68048 0.36036 0.0
C823 C 0.1988 0.7072 0.37391 0.0
C824 C 0.21431 0.73087 0.35776 0.0
C825 C 0.15547 0.66555 0.37055 0.0
C826 C 0.13382 0.68519 0.37971 0.0
C827 C 0.14635 0.63355 0.36875 0.0
C828 C 0.16652 0.61116 0.35786 0.0
C829 C 0.19434 0.60579 0.37199 0.0
C830 C 0.21309 0.58442 0.36146 0.0
C831 C 0.20421 0.56839 0.3368 0.0
C832 C 0.17632 0.57332 0.32285 0.0
C833 C 0.1574 0.59445 0.33343 0.0
H834 H 0.21881 0.55197 0.32863 0.0
H835 H 0.0281 0.74825 0.43452 0.0
H836 H 0.50745 0.93544 0.57474 0.0
H837 H 0.51688 0.88609 0.59939 0.0
H838 H 0.61046 0.89571 0.56948 0.0
H839 H 0.60119 0.94316 0.54512 0.0
H840 H 0.59248 0.83951 0.56866 0.0
H841 H 0.5868 0.92304 0.63329 0.0
H842 H 0.56173 0.96208 0.65911 0.0
H843 H 0.5004 0.89077 0.69762 0.0
H844 H 0.52463 0.85128 0.6713 0.0
H845 H 0.71174 0.83146 0.66983 0.0
H846 H 0.67098 0.84216 0.63547 0.0
H847 H 0.6057 0.78153 0.68301 0.0
H848 H 0.64695 0.77102 0.71784 0.0
H849 H 0.58911 0.84172 0.6738 0.0
H850 H 0.62685 0.76267 0.61377 0.0
H851 H 0.67037 0.74052 0.59146 0.0
H852 H 0.69473 0.82686 0.54764 0.0
H853 H 0.65169 0.84956 0.56979 0.0
C854 C 0.52987 0.92668 0.57348 0.0
C855 C 0.55394 0.94376 0.55893 0.0
C856 C 0.53519 0.89849 0.58735 0.0
C857 C 0.5645 0.88719 0.58649 0.0
C858 C 0.58762 0.9036 0.57054 0.0
C859 C 0.58245 0.93132 0.55703 0.0
C860 C 0.57358 0.8607 0.60441 0.0
C861 C 0.59126 0.83956 0.59169 0.0
C862 C 0.57197 0.86061 0.63446 0.0
C863 C 0.55687 0.88431 0.64969 0.0
C864 C 0.56759 0.91572 0.64686 0.0
C865 C 0.55358 0.93794 0.66161 0.0
C866 C 0.52927 0.92896 0.67979 0.0
C867 C 0.51901 0.89771 0.6833 0.0
C868 C 0.53277 0.87542 0.66836 0.0
C869 C 0.68887 0.81975 0.67239 0.0
C870 C 0.68226 0.80026 0.69605 0.0
C871 C 0.66564 0.82567 0.65272 0.0
C872 C 0.63542 0.81211 0.65634 0.0
C873 C 0.629 0.79177 0.67961 0.0
C874 C 0.65242 0.78573 0.69936 0.0
C875 C 0.61027 0.82296 0.63801 0.0
C876 C 0.58908 0.84046 0.65078 0.0
C877 C 0.61119 0.82225 0.60799 0.0
C878 C 0.63579 0.8077 0.59329 0.0
C879 C 0.64137 0.77684 0.59924 0.0
C880 C 0.66604 0.76423 0.58667 0.0
C881 C 0.68525 0.78224 0.5681 0.0
C882 C 0.67976 0.81286 0.56191 0.0
C883 C 0.65514 0.82555 0.57436 0.0
H884 H 0.70444 0.7725 0.55855 0.0
H885 H 0.51854 0.94619 0.69131 0.0
H886 H 0.48724 0.42842 0.92461 0.0
H887 H 0.46435 0.38548 0.89615 0.0
H888 H 0.37638 0.42362 0.89643 0.0
H889 H 0.39879 0.46673 0.92413 0.0
H890 H 0.38421 0.36084 0.92584 0.0
H891 H 0.39721 0.42377 0.84056 0.0
H892 H 0.4264 0.45633 0.80497 0.0
H893 H 0.47855 0.38066 0.78573 0.0
H894 H 0.45012 0.34777 0.82178 0.0
H895 H 0.28056 0.30214 0.81474 0.0
H896 H 0.30782 0.32456 0.85614 0.0
H897 H 0.37826 0.26193 0.84847 0.0
H898 H 0.3506 0.23903 0.80749 0.0
H899 H 0.38752 0.33028 0.82527 0.0
H900 H 0.36453 0.26545 0.90781 0.0
H901 H 0.32902 0.23573 0.94062 0.0
H902 H 0.28913 0.31875 0.96153 0.0
H903 H 0.32411 0.3489 0.92856 0.0
C904 C 0.46323 0.42814 0.91793 0.0
C905 C 0.44454 0.45037 0.92747 0.0
C906 C 0.45029 0.40366 0.90167 0.0
C907 C 0.41869 0.40137 0.89489 0.0
C908 C 0.40079 0.42508 0.90188 0.0
C909 C 0.41369 0.44963 0.91776 0.0
C910 C 0.40306 0.37244 0.88451 0.0
C911 C 0.385 0.35396 0.90388 0.0
C912 C 0.40466 0.36369 0.85599 0.0
C913 C 0.422 0.38347 0.83441 0.0
C914 C 0.41529 0.41419 0.82916 0.0
C915 C 0.4316 0.43268 0.80879 0.0
C916 C 0.45446 0.42063 0.79323 0.0
C917 C 0.46094 0.39001 0.79792 0.0
C918 C 0.44475 0.37143 0.81836 0.0
C919 C 0.30037 0.29135 0.82336 0.0
C920 C 0.31468 0.27021 0.80735 0.0
C921 C 0.31619 0.30446 0.84685 0.0
C922 C 0.34556 0.29558 0.85438 0.0
C923 C 0.35583 0.26931 0.84252 0.0
C924 C 0.33979 0.25602 0.81931 0.0
C925 C 0.3683 0.31886 0.86656 0.0
C926 C 0.3876 0.33651 0.84747 0.0
C927 C 0.36728 0.32731 0.89512 0.0
C928 C 0.34686 0.30941 0.91562 0.0
C929 C 0.34809 0.27735 0.91931 0.0
C930 C 0.32806 0.26042 0.93795 0.0
C931 C 0.30681 0.27534 0.95313 0.0
C932 C 0.30563 0.30723 0.94979 0.0
C933 C 0.3256 0.32426 0.93117 0.0
H934 H 0.29126 0.26218 0.96749 0.0
H935 H 0.46704 0.43497 0.77744 0.0
H936 H 0.78768 0.75096 0.34106 0.0
H937 H 0.81183 0.78602 0.37789 0.0
H938 H 0.86199 0.83908 0.31232 0.0
H939 H 0.83611 0.80759 0.27645 0.0
H940 H 0.88626 0.79838 0.37634 0.0
H941 H 0.84458 0.88751 0.31366 0.0
H942 H 0.79791 0.90807 0.29294 0.0
H943 H 0.75555 0.90055 0.37469 0.0
H944 H 0.80148 0.87813 0.39551 0.0
H945 H 0.9687 0.96542 0.38768 0.0
H946 H 0.9399 0.92173 0.36331 0.0
H947 H 0.91954 0.87749 0.4448 0.0
H948 H 0.94928 0.91952 0.46863 0.0
H949 H 0.8751 0.91073 0.38039 0.0
H950 H 0.9311 0.82652 0.44154 0.0
H951 H 0.98162 0.80677 0.45215 0.0
H952 H 1.00038 0.80727 0.3629 0.0
H953 H 0.95045 0.82821 0.3519 0.0
C954 C 0.80269 0.77112 0.33483 0.0
C955 C 0.80972 0.77718 0.30616 0.0
C956 C 0.81655 0.79079 0.35563 0.0
C957 C 0.83769 0.81567 0.34741 0.0
C958 C 0.84437 0.82124 0.31883 0.0
C959 C 0.82972 0.80301 0.29841 0.0
C960 C 0.8564 0.83461 0.36763 0.0
C961 C 0.8833 0.82272 0.37849 0.0
C962 C 0.85337 0.8666 0.36835 0.0
C963 C 0.826 0.88029 0.35594 0.0
C964 C 0.82506 0.88956 0.32708 0.0
C965 C 0.79875 0.90154 0.3153 0.0
C966 C 0.77365 0.90537 0.33244 0.0
C967 C 0.77486 0.8972 0.36138 0.0
C968 C 0.80089 0.88455 0.37311 0.0
C969 C 0.95918 0.94555 0.4 0.0
C970 C 0.96114 0.94518 0.42976 0.0
C971 C 0.94288 0.92079 0.38625 0.0
C972 C 0.92844 0.8961 0.40239 0.0
C973 C 0.93179 0.89546 0.43199 0.0
C974 C 0.94838 0.91965 0.44556 0.0
C975 C 0.90478 0.87442 0.38953 0.0
C976 C 0.87744 0.88613 0.37968 0.0
C977 C 0.90779 0.84242 0.38914 0.0
C978 C 0.93751 0.82968 0.39599 0.0
C979 C 0.94626 0.82299 0.42425 0.0
C980 C 0.97475 0.81152 0.43032 0.0
C981 C 0.99431 0.80605 0.40822 0.0
C982 C 0.98534 0.81182 0.38001 0.0
C983 C 0.95706 0.82365 0.37386 0.0
H984 H 0.0164 0.79733 0.41293 0.0
H985 H 0.75336 0.91484 0.32334 0.0
H986 H 0.49983 0.59062 0.58547 0.0
H987 H 0.46544 0.61782 0.61348 0.0
H988 H 0.38876 0.55389 0.58782 0.0
H989 H 0.42329 0.52771 0.55789 0.0
H990 H 0.37447 0.6111 0.57978 0.0
H991 H 0.42403 0.5595 0.66037 0.0
H992 H 0.47004 0.54588 0.68792 0.0
H993 H 0.49877 0.64199 0.69866 0.0
H994 H 0.45319 0.65621 0.67092 0.0
H995 H 0.28175 0.6752 0.69465 0.0
H996 H 0.30687 0.63869 0.66549 0.0
H997 H 0.38014 0.70927 0.64699 0.0
H998 H 0.35468 0.74593 0.67397 0.0
H999 H 0.39278 0.64559 0.67886 0.0
H1000 H 0.35706 0.69998 0.59746 0.0
H1001 H 0.31943 0.7226 0.56517 0.0
H1002 H 0.27454 0.63233 0.55008 0.0
H1003 H 0.31123 0.60924 0.58337 0.0
C1004 C 0.47585 0.58152 0.58667 0.0
C1005 C 0.46442 0.55663 0.56978 0.0
C1006 C 0.45607 0.59721 0.60277 0.0
C1007 C 0.42435 0.58782 0.6033 0.0
C1008 C 0.41315 0.56156 0.58798 0.0
C1009 C 0.433 0.54609 0.57133 0.0
C1010 C 0.40282 0.60706 0.61772 0.0
C1011 C 0.37798 0.61782 0.60175 0.0
C1012 C 0.40838 0.6176 0.64586 0.0
C1013 C 0.43514 0.60889 0.66354 0.0
C1014 C 0.44015 0.57772 0.66862 0.0
C1015 C 0.46619 0.56991 0.68424 0.0
C1016 C 0.48731 0.59305 0.69504 0.0
C1017 C 0.48238 0.62408 0.69034 0.0
C1018 C 0.4564 0.63202 0.67473 0.0
C1019 C 0.30241 0.68326 0.68328 0.0
C1020 C 0.3162 0.71349 0.68686 0.0
C1021 C 0.31695 0.66231 0.66691 0.0
C1022 C 0.34549 0.67129 0.65425 0.0
C1023 C 0.35814 0.70186 0.65646 0.0
C1024 C 0.34339 0.72281 0.67195 0.0
C1025 C 0.36406 0.64854 0.64121 0.0
C1026 C 0.38864 0.63775 0.65728 0.0
C1027 C 0.35919 0.63914 0.61283 0.0
C1028 C 0.33635 0.65295 0.59362 0.0
C1029 C 0.33866 0.685 0.58795 0.0
C1030 C 0.31761 0.69791 0.5693 0.0
C1031 C 0.29452 0.67893 0.55567 0.0
C1032 C 0.29241 0.647 0.56072 0.0
C1033 C 0.3132 0.63401 0.57963 0.0
H1034 H 0.27833 0.68894 0.54112 0.0
H1035 H 0.50748 0.58694 0.70706 0.0
H1036 H 0.54031 0.0408 0.91981 0.0
H1037 H 0.57604 0.07145 0.88876 0.0
H1038 H 0.54473 0.155 0.92042 0.0
H1039 H 0.51011 0.12434 0.95266 0.0
H1040 H 0.56876 0.14847 0.85506 0.0
H1041 H 0.59265 0.13936 0.95968 0.0
H1042 H 0.60204 0.11065 0.00452 0.0
H1043 H 0.66605 0.05837 0.96282 0.0
H1044 H 0.65691 0.08669 0.91772 0.0
H1045 H 0.6871 0.26376 0.85059 0.0
H1046 H 0.65669 0.22835 0.88222 0.0
H1047 H 0.69318 0.15116 0.84336 0.0
H1048 H 0.72254 0.18668 0.81096 0.0
H1049 H 0.66758 0.15167 0.9106 0.0
H1050 H 0.64296 0.14769 0.8088 0.0
H1051 H 0.63448 0.16645 0.75949 0.0
H1052 H 0.57566 0.23228 0.78929 0.0
H1053 H 0.58387 0.21382 0.83881 0.0
C1054 C 0.53941 0.06563 0.91868 0.0
C1055 C 0.52317 0.08039 0.939 0.0
C1056 C 0.5603 0.08309 0.90135 0.0
C1057 C 0.56358 0.11527 0.90329 0.0
C1058 C 0.5427 0.13006 0.91918 0.0
C1059 C 0.52247 0.11256 0.93714 0.0
C1060 C 0.59167 0.1329 0.89306 0.0
C1061 C 0.59029 0.14941 0.86727 0.0
C1062 C 0.61998 0.13298 0.90859 0.0
C1063 C 0.62354 0.11462 0.93522 0.0
C1064 C 0.60823 0.12132 0.95994 0.0
C1065 C 0.61375 0.1053 0.98547 0.0
C1066 C 0.63447 0.08254 0.98643 0.0
C1067 C 0.64983 0.07583 0.96197 0.0
C1068 C 0.64451 0.09186 0.93646 0.0
C1069 C 0.69051 0.23939 0.85032 0.0
C1070 C 0.70517 0.22752 0.82736 0.0
C1071 C 0.67258 0.21916 0.86798 0.0
C1072 C 0.67168 0.18734 0.86383 0.0
C1073 C 0.69309 0.1758 0.84612 0.0
C1074 C 0.71051 0.19619 0.82813 0.0
C1075 C 0.64453 0.16743 0.87282 0.0
C1076 C 0.64603 0.15072 0.89843 0.0
C1077 C 0.61666 0.1661 0.85655 0.0
C1078 C 0.61462 0.1799 0.82751 0.0
C1079 C 0.62875 0.1666 0.80487 0.0
C1080 C 0.62369 0.1769 0.77686 0.0
C1081 C 0.60454 0.20055 0.77125 0.0
C1082 C 0.59055 0.21403 0.79367 0.0
C1083 C 0.59543 0.20368 0.82171 0.0
H1084 H 0.60059 0.20845 0.74956 0.0
H1085 H 0.63882 0.07014 0.00612 0.0
H1086 H 0.08125 0.4256 0.02546 0.0
H1087 H 0.09834 0.38461 0.05514 0.0
H1088 H 0.0218 0.39122 0.11089 0.0
H1089 H 0.00641 0.43576 0.08199 0.0
H1090 H 0.0704 0.39318 0.14075 0.0
H1091 H 0.03665 0.32035 0.06836 0.0
H1092 H 0.03016 0.30449 0.01842 0.0
H1093 H 0.1285 0.31207 0.00938 0.0
H1094 H 0.13562 0.32801 0.05913 0.0
H1095 H 0.15927 0.29567 0.22626 0.0
H1096 H 0.11571 0.30612 0.19435 0.0
H1097 H 0.17956 0.34161 0.13001 0.0
H1098 H 0.22312 0.33196 0.1623 0.0
H1099 H 0.12433 0.30502 0.10859 0.0
H1100 H 0.15775 0.39061 0.169 0.0
H1101 H 0.17122 0.41217 0.21609 0.0
H1102 H 0.07906 0.38614 0.24396 0.0
H1103 H 0.06522 0.36373 0.19713 0.0
C1104 C 0.06743 0.41779 0.0436 0.0
C1105 C 0.04279 0.43405 0.05167 0.0
C1106 C 0.07695 0.3937 0.06044 0.0
C1107 C 0.06108 0.38387 0.08515 0.0
C1108 C 0.0344 0.3982 0.09186 0.0
C1109 C 0.02536 0.42339 0.07526 0.0
C1110 C 0.07597 0.36296 0.10587 0.0
C1111 C 0.08106 0.37313 0.13389 0.0
C1112 C 0.09094 0.33722 0.09694 0.0
C1113 C 0.08664 0.3252 0.06764 0.0
C1114 C 0.05689 0.31839 0.0558 0.0
C1115 C 0.05311 0.30946 0.02748 0.0
C1116 C 0.0789 0.30723 0.01077 0.0
C1117 C 0.10854 0.31363 0.02239 0.0
C1118 C 0.11246 0.32241 0.05072 0.0
C1119 C 0.16382 0.30521 0.20508 0.0
C1120 C 0.1942 0.31323 0.19652 0.0
C1121 C 0.13906 0.31099 0.18691 0.0
C1122 C 0.14449 0.32447 0.15983 0.0
C1123 C 0.17497 0.33091 0.15074 0.0
C1124 C 0.19974 0.3257 0.16915 0.0
C1125 C 0.11887 0.33595 0.14259 0.0
C1126 C 0.11214 0.32406 0.11554 0.0
C1127 C 0.10282 0.36044 0.15205 0.0
C1128 C 0.11058 0.37508 0.17975 0.0
C1129 C 0.14041 0.38929 0.18523 0.0
C1130 C 0.14812 0.40165 0.21185 0.0
C1131 C 0.12604 0.40034 0.23301 0.0
C1132 C 0.09614 0.38697 0.22753 0.0
C1133 C 0.08836 0.37442 0.20097 0.0
H1134 H 0.1321 0.40969 0.25364 0.0
H1135 H 0.07591 0.30058 0.98879 0.0
H1136 H 0.53843 0.56253 0.94902 0.0
H1137 H 0.54794 0.60536 0.91479 0.0
H1138 H 0.60602 0.55079 0.86782 0.0
H1139 H 0.59386 0.50701 0.90018 0.0
H1140 H 0.61449 0.62501 0.91113 0.0
H1141 H 0.59253 0.55885 0.82087 0.0
H1142 H 0.5542 0.52738 0.79196 0.0
H1143 H 0.49146 0.59776 0.79588 0.0
H1144 H 0.5292 0.62893 0.82586 0.0
H1145 H 0.72085 0.70319 0.81998 0.0
H1146 H 0.68664 0.67542 0.85222 0.0
H1147 H 0.60855 0.69669 0.79886 0.0
H1148 H 0.64475 0.71788 0.76271 0.0
H1149 H 0.59883 0.64394 0.80772 0.0
H1150 H 0.63304 0.7179 0.88202 0.0
H1151 H 0.67419 0.74875 0.90847 0.0
H1152 H 0.71471 0.66595 0.93486 0.0
H1153 H 0.6741 0.63469 0.90849 0.0
C1154 C 0.55075 0.55865 0.93001 0.0
C1155 C 0.56402 0.53079 0.92657 0.0
C1156 C 0.55682 0.58347 0.91071 0.0
C1157 C 0.57686 0.58103 0.88806 0.0
C1158 C 0.58914 0.55281 0.88402 0.0
C1159 C 0.58244 0.52785 0.90284 0.0
C1160 C 0.59053 0.60924 0.87304 0.0
C1161 C 0.61088 0.62962 0.88856 0.0
C1162 C 0.58571 0.6151 0.84373 0.0
C1163 C 0.56307 0.59567 0.82648 0.0
C1164 C 0.57023 0.56717 0.8163 0.0
C1165 C 0.54871 0.54946 0.79956 0.0
C1166 C 0.52026 0.5604 0.79231 0.0
C1167 C 0.51333 0.58911 0.80176 0.0
C1168 C 0.53466 0.60668 0.81877 0.0
C1169 C 0.69625 0.70335 0.81575 0.0
C1170 C 0.68545 0.71222 0.78879 0.0
C1171 C 0.67619 0.68747 0.83471 0.0
C1172 C 0.6442 0.68377 0.82889 0.0
C1173 C 0.63302 0.6983 0.80397 0.0
C1174 C 0.65359 0.71144 0.78355 0.0
C1175 C 0.62368 0.6606 0.84564 0.0
C1176 C 0.60203 0.64069 0.8305 0.0
C1177 C 0.62762 0.65508 0.87545 0.0
C1178 C 0.65033 0.67394 0.89338 0.0
C1179 C 0.65053 0.70627 0.89372 0.0
C1180 C 0.67387 0.72384 0.9086 0.0
C1181 C 0.69701 0.70931 0.92336 0.0
C1182 C 0.69672 0.67718 0.92353 0.0
C1183 C 0.67345 0.65952 0.90875 0.0
H1184 H 0.71519 0.72297 0.93464 0.0
H1185 H 0.50372 0.54676 0.77919 0.0
H1186 H 0.70259 0.27607 0.15173 0.0
H1187 H 0.68013 0.31086 0.11785 0.0
H1188 H 0.71027 0.3881 0.17065 0.0
H1189 H 0.7318 0.35238 0.2056 0.0
H1190 H 0.65246 0.38757 0.16216 0.0
H1191 H 0.73264 0.38397 0.0974 0.0
H1192 H 0.77219 0.35977 0.0713 0.0
H1193 H 0.70145 0.30224 0.02814 0.0
H1194 H 0.66148 0.32581 0.0542 0.0
H1195 H 0.55294 0.46386 0.06352 0.0
H1196 H 0.59256 0.44741 0.09614 0.0
H1197 H 0.58718 0.35912 0.05545 0.0
H1198 H 0.55072 0.37785 0.02001 0.0
H1199 H 0.6425 0.37911 0.05746 0.0
H1200 H 0.56319 0.38203 0.12949 0.0
H1201 H 0.52636 0.4076 0.15799 0.0
H1202 H 0.6003 0.47109 0.18862 0.0
H1203 H 0.63722 0.44615 0.15994 0.0
C1204 C 0.70568 0.30066 0.15546 0.0
C1205 C 0.71875 0.31164 0.18116 0.0
C1206 C 0.69292 0.3207 0.13595 0.0
C1207 C 0.69345 0.35231 0.1415 0.0
C1208 C 0.70952 0.36382 0.16589 0.0
C1209 C 0.72217 0.34353 0.18567 0.0
C1210 C 0.67256 0.37136 0.12458 0.0
C1211 C 0.65072 0.3864 0.13916 0.0
C1212 C 0.67018 0.36993 0.0946 0.0
C1213 C 0.69405 0.35669 0.07781 0.0
C1214 C 0.72551 0.36617 0.08234 0.0
C1215 C 0.74801 0.35253 0.06756 0.0
C1216 C 0.73934 0.32947 0.04809 0.0
C1217 C 0.70813 0.32015 0.04319 0.0
C1218 C 0.68553 0.33373 0.05788 0.0
C1219 C 0.55943 0.44054 0.0622 0.0
C1220 C 0.54884 0.42215 0.03925 0.0
C1221 C 0.58221 0.43104 0.081 0.0
C1222 C 0.59321 0.40188 0.07852 0.0
C1223 C 0.57959 0.38195 0.05766 0.0
C1224 C 0.55815 0.39226 0.03776 0.0
C1225 C 0.62088 0.39316 0.09525 0.0
C1226 C 0.64433 0.3806 0.08043 0.0
C1227 C 0.62504 0.39752 0.12498 0.0
C1228 C 0.60277 0.41232 0.14235 0.0
C1229 C 0.57141 0.40145 0.14226 0.0
C1230 C 0.55057 0.41586 0.15841 0.0
C1231 C 0.56098 0.44098 0.17508 0.0
C1232 C 0.59224 0.45167 0.17566 0.0
C1233 C 0.6131 0.43741 0.15943 0.0
H1234 H 0.54483 0.45214 0.18756 0.0
H1235 H 0.7568 0.31881 0.03679 0.0
H1236 H 0.95917 0.43112 0.46536 0.0
H1237 H 0.93044 0.39761 0.43282 0.0
H1238 H 0.9462 0.46649 0.36532 0.0
H1239 H 0.96919 0.50251 0.40038 0.0
H1240 H 0.89148 0.45703 0.36681 0.0
H1241 H 0.96608 0.37891 0.37217 0.0
H1242 H 0.99966 0.34573 0.39974 0.0
H1243 H 0.92081 0.30163 0.44258 0.0
H1244 H 0.88684 0.3348 0.41562 0.0
H1245 H 0.82574 0.36674 0.25539 0.0
H1246 H 0.85048 0.40077 0.29074 0.0
H1247 H 0.81328 0.33951 0.35766 0.0
H1248 H 0.78945 0.30473 0.32184 0.0
H1249 H 0.87413 0.34338 0.35992 0.0
H1250 H 0.80002 0.41777 0.35294 0.0
H1251 H 0.76527 0.45037 0.32626 0.0
H1252 H 0.84312 0.50057 0.28672 0.0
H1253 H 0.87833 0.46797 0.31283 0.0
C1254 C 0.95809 0.4385 0.44316 0.0
C1255 C 0.96471 0.46973 0.43563 0.0
C1256 C 0.94133 0.41904 0.42421 0.0
C1257 C 0.93506 0.42935 0.39621 0.0
C1258 C 0.94941 0.45818 0.38701 0.0
C1259 C 0.96365 0.47857 0.40682 0.0
C1260 C 0.90947 0.41355 0.37864 0.0
C1261 C 0.88845 0.43216 0.36482 0.0
C1262 C 0.90365 0.38093 0.37734 0.0
C1263 C 0.92391 0.3594 0.39185 0.0
C1264 C 0.95589 0.36202 0.38734 0.0
C1265 C 0.97501 0.34328 0.40295 0.0
C1266 C 0.96237 0.32159 0.42289 0.0
C1267 C 0.93056 0.3184 0.4271 0.0
C1268 C 0.91136 0.33711 0.41161 0.0
C1269 C 0.82084 0.36172 0.27762 0.0
C1270 C 0.80626 0.33292 0.28593 0.0
C1271 C 0.8355 0.38101 0.29797 0.0
C1272 C 0.83444 0.37233 0.32695 0.0
C1273 C 0.8149 0.34637 0.33539 0.0
C1274 C 0.80056 0.32689 0.31489 0.0
C1275 C 0.85767 0.38706 0.3472 0.0
C1276 C 0.87779 0.36826 0.36178 0.0
C1277 C 0.86281 0.41942 0.34917 0.0
C1278 C 0.84182 0.44035 0.33482 0.0
C1279 C 0.80974 0.43578 0.33858 0.0
C1280 C 0.78996 0.45422 0.32351 0.0
C1281 C 0.80198 0.47751 0.30479 0.0
C1282 C 0.83384 0.48255 0.30126 0.0
C1283 C 0.85374 0.46415 0.31625 0.0
H1284 H 0.78661 0.49165 0.29302 0.0
H1285 H 0.97723 0.30727 0.43508 0.0
H1286 H 0.56885 0.52546 0.44476 0.0
H1287 H 0.61405 0.53794 0.41547 0.0
H1288 H 0.64407 0.61249 0.4714 0.0
H1289 H 0.60153 0.59753 0.50197 0.0
H1290 H 0.61006 0.58798 0.38893 0.0
H1291 H 0.69965 0.65319 0.45867 0.0
H1292 H 0.72785 0.64661 0.50425 0.0
H1293 H 0.72949 0.54981 0.48938 0.0
H1294 H 0.70068 0.55575 0.44394 0.0
H1295 H 0.66073 0.7265 0.32604 0.0
H1296 H 0.65117 0.69081 0.36658 0.0
H1297 H 0.72192 0.63599 0.33858 0.0
H1298 H 0.73247 0.6725 0.2984 0.0
H1299 H 0.71449 0.64194 0.40322 0.0
H1300 H 0.65508 0.61292 0.31456 0.0
H1301 H 0.62412 0.63152 0.274 0.0
H1302 H 0.56003 0.66398 0.33176 0.0
H1303 H 0.59068 0.64573 0.37259 0.0
C1304 C 0.58668 0.5425 0.45214 0.0
C1305 C 0.58185 0.56052 0.47559 0.0
C1306 C 0.61233 0.55014 0.43507 0.0
C1307 C 0.63262 0.57652 0.44079 0.0
C1308 C 0.62977 0.5916 0.46649 0.0
C1309 C 0.60498 0.58318 0.48402 0.0
C1310 C 0.65002 0.5932 0.41727 0.0
C1311 C 0.63338 0.59868 0.39188 0.0
C1312 C 0.67993 0.60866 0.42121 0.0
C1313 C 0.69821 0.60493 0.44788 0.0
C1314 C 0.70632 0.63057 0.465 0.0
C1315 C 0.72215 0.62691 0.49091 0.0
C1316 C 0.73051 0.59782 0.49967 0.0
C1317 C 0.72292 0.57231 0.48259 0.0
C1318 C 0.70666 0.57576 0.45684 0.0
C1319 C 0.67455 0.70709 0.32879 0.0
C1320 C 0.69692 0.70181 0.30896 0.0
C1321 C 0.66932 0.68696 0.35205 0.0
C1322 C 0.68572 0.66073 0.35535 0.0
C1323 C 0.70925 0.65626 0.33645 0.0
C1324 C 0.71501 0.67689 0.31344 0.0
C1325 C 0.67452 0.63578 0.37546 0.0
C1326 C 0.69198 0.6295 0.40001 0.0
C1327 C 0.64509 0.61994 0.37119 0.0
C1328 C 0.62501 0.62773 0.34658 0.0
C1329 C 0.63418 0.62369 0.31856 0.0
C1330 C 0.61677 0.63431 0.29554 0.0
C1331 C 0.5901 0.64888 0.30034 0.0
C1332 C 0.5806 0.65256 0.3281 0.0
C1333 C 0.59789 0.64195 0.35116 0.0
H1334 H 0.57677 0.6574 0.28261 0.0
H1335 H 0.74284 0.59504 0.5197 0.0
H1336 H 0.76268 0.36189 0.84071 0.0
H1337 H 0.79126 0.37468 0.88512 0.0
H1338 H 0.83748 0.29125 0.87924 0.0
H1339 H 0.80483 0.27612 0.83901 0.0
H1340 H 0.84975 0.30451 0.92537 0.0
H1341 H 0.85801 0.37251 0.84147 0.0
H1342 H 0.83805 0.40763 0.80476 0.0
H1343 H 0.81605 0.46938 0.86947 0.0
H1344 H 0.83551 0.43443 0.90656 0.0
H1345 H 0.98105 0.43854 0.94992 0.0
H1346 H 0.95449 0.39687 0.92277 0.0
H1347 H 0.89394 0.37412 -0.00702 0.0
H1348 H 0.92063 0.41569 0.01999 0.0
H1349 H 0.89321 0.41346 0.91431 0.0
H1350 H 0.87415 0.31481 -0.00822 0.0
H1351 H 0.90688 0.28143 0.02034 0.0
H1352 H 0.96902 0.28033 0.95084 0.0
H1353 H 0.93688 0.31398 0.92218 0.0
C1354 C 0.77755 0.34558 0.85017 0.0
C1355 C 0.78213 0.31834 0.83634 0.0
C1356 C 0.79461 0.35319 0.87507 0.0
C1357 C 0.81861 0.33529 0.8844 0.0
C1358 C 0.81996 0.30618 0.87253 0.0
C1359 C 0.80123 0.29748 0.84922 0.0
C1360 C 0.84487 0.34819 0.90296 0.0
C1361 C 0.85894 0.32839 0.92268 0.0
C1362 C 0.85844 0.37905 0.89917 0.0
C1363 C 0.84792 0.4007 0.87679 0.0
C1364 C 0.84897 0.39361 0.84783 0.0
C1365 C 0.83766 0.41344 0.82698 0.0
C1366 C 0.8257 0.44067 0.83479 0.0
C1367 C 0.82524 0.44824 0.86346 0.0
C1368 C 0.8364 0.42844 0.8844 0.0
C1369 C 0.96398 0.42291 0.96052 0.0
C1370 C 0.952 0.43093 0.98647 0.0
C1371 C 0.94828 0.39948 0.94468 0.0
C1372 C 0.92164 0.38316 0.95554 0.0
C1373 C 0.91437 0.38654 0.98413 0.0
C1374 C 0.92998 0.41011 -0.0002 0.0
C1375 C 0.89734 0.36973 0.9359 0.0
C1376 C 0.88374 0.38956 0.91637 0.0
C1377 C 0.88556 0.33869 0.93834 0.0
C1378 C 0.90301 0.31647 0.95484 0.0
C1379 C 0.89457 0.30706 0.98255 0.0
C1380 C 0.91314 0.28831 -0.00119 0.0
C1381 C 0.93995 0.27869 0.98739 0.0
C1382 C 0.94824 0.28773 0.95967 0.0
C1383 C 0.92991 0.30665 0.94345 0.0
H1384 H 0.95435 0.26431 4e-05 0.0
H1385 H 0.81686 0.45593 0.81863 0.0
H1386 H 0.76167 0.85686 0.18924 0.0
H1387 H 0.77948 0.89213 0.14979 0.0
H1388 H 0.8441 0.82808 0.12655 0.0
H1389 H 0.82659 0.79327 0.16545 0.0
H1390 H 0.86089 0.89419 0.15645 0.0
H1391 H 0.81529 0.83213 0.07992 0.0
H1392 H 0.77335 0.80682 0.05045 0.0
H1393 H 0.73905 0.89463 0.03125 0.0
H1394 H 0.7804 0.92042 0.06134 0.0
H1395 H 0.97076 0.92717 0.05336 0.0
H1396 H 0.93389 0.91281 0.08945 0.0
H1397 H 0.87047 0.9728 0.0497 0.0
H1398 H 0.90652 0.9833 0.01033 0.0
H1399 H 0.84399 0.9196 0.05432 0.0
H1400 H 0.91053 0.97748 0.12448 0.0
H1401 H 0.96121 0.99067 0.14784 0.0
H1402 H 0.96607 0.89576 0.17354 0.0
H1403 H 0.91577 0.88189 0.15013 0.0
C1404 C 0.7788 0.85004 0.17491 0.0
C1405 C 0.79337 0.823 0.1803 0.0
C1406 C 0.78867 0.86988 0.15236 0.0
C1407 C 0.8127 0.86232 0.13522 0.0
C1408 C 0.82504 0.83388 0.1392 0.0
C1409 C 0.8154 0.81432 0.16161 0.0
C1410 C 0.83124 0.88663 0.11962 0.0
C1411 C 0.85716 0.90034 0.13418 0.0
C1412 C 0.82611 0.89383 0.09066 0.0
C1413 C 0.80039 0.87813 0.07369 0.0
C1414 C 0.79834 0.84599 0.07012 0.0
C1415 C 0.7748 0.83155 0.05309 0.0
C1416 C 0.75338 0.84907 0.03918 0.0
C1417 C 0.75551 0.88106 0.04223 0.0
C1418 C 0.77894 0.89558 0.05934 0.0
C1419 C 0.94942 0.93828 0.05296 0.0
C1420 C 0.94104 0.95597 0.02926 0.0
C1421 C 0.92835 0.93044 0.07402 0.0
C1422 C 0.89937 0.94219 0.07295 0.0
C1423 C 0.8927 0.96345 0.05099 0.0
C1424 C 0.91329 0.96982 0.02876 0.0
C1425 C 0.87453 0.92733 0.09094 0.0
C1426 C 0.8473 0.91505 0.07693 0.0
C1427 C 0.87954 0.91975 0.12013 0.0
C1428 C 0.90901 0.92876 0.1358 0.0
C1429 C 0.92226 0.95947 0.13532 0.0
C1430 C 0.95102 0.96703 0.14849 0.0
C1431 C 0.96675 0.94411 0.16231 0.0
C1432 C 0.95377 0.91356 0.16304 0.0
C1433 C 0.92506 0.90587 0.14993 0.0
H1434 H 0.98907 0.95 0.17235 0.0
H1435 H 0.73528 0.83789 0.02587 0.0
H1436 H 0.85448 0.20665 0.78008 0.0
H1437 H 0.874 0.163 0.80686 0.0
H1438 H 0.79436 0.15767 0.86032 0.0
H1439 H 0.77488 0.20124 0.83354 0.0
H1440 H 0.85571 0.16534 0.88774 0.0
H1441 H 0.79675 0.10281 0.81728 0.0
H1442 H 0.78292 0.08821 0.76799 0.0
H1443 H 0.87656 0.06987 0.7539 0.0
H1444 H 0.89103 0.08474 0.80301 0.0
H1445 H 0.90548 0.05543 0.97719 0.0
H1446 H 0.86671 0.07295 0.94344 0.0
H1447 H 0.92867 0.06398 0.87434 0.0
H1448 H 0.96649 0.0444 0.90792 0.0
H1449 H 0.87213 0.06102 0.85399 0.0
H1450 H 0.93539 0.12733 0.91497 0.0
H1451 H 0.95779 0.14597 0.96067 0.0
H1452 H 0.86804 0.16482 0.98775 0.0
H1453 H 0.84495 0.14553 0.94244 0.0
C1454 C 0.84102 0.19571 0.79727 0.0
C1455 C 0.81302 0.20661 0.80468 0.0
C1456 C 0.85202 0.17084 0.81234 0.0
C1457 C 0.83527 0.15708 0.83516 0.0
C1458 C 0.80719 0.16785 0.84241 0.0
C1459 C 0.796 0.19242 0.82709 0.0
C1460 C 0.84864 0.13364 0.85334 0.0
C1461 C 0.85867 0.14224 0.88071 0.0
C1462 C 0.85384 0.10433 0.84325 0.0
C1463 C 0.84499 0.09502 0.81382 0.0
C1464 C 0.81443 0.09585 0.80363 0.0
C1465 C 0.80647 0.08749 0.77572 0.0
C1466 C 0.82885 0.07814 0.75782 0.0
C1467 C 0.85923 0.07709 0.7678 0.0
C1468 C 0.86731 0.08542 0.79568 0.0
C1469 C 0.91012 0.05608 0.95462 0.0
C1470 C 0.93892 0.04958 0.94489 0.0
C1471 C 0.88807 0.06595 0.93541 0.0
C1472 C 0.89546 0.07092 0.90665 0.0
C1473 C 0.92274 0.06066 0.89652 0.0
C1474 C 0.94438 0.04974 0.91566 0.0
C1475 C 0.87852 0.09237 0.88883 0.0
C1476 C 0.8684 0.08377 0.86137 0.0
C1477 C 0.87446 0.1224 0.8983 0.0
C1478 C 0.88836 0.13455 0.92544 0.0
C1479 C 0.92038 0.13523 0.93074 0.0
C1480 C 0.9332 0.14589 0.95659 0.0
C1481 C 0.91433 0.15648 0.97714 0.0
C1482 C 0.88261 0.1565 0.97185 0.0
C1483 C 0.86962 0.14565 0.9461 0.0
H1484 H 0.9243 0.16476 -0.00287 0.0
H1485 H 0.82264 0.07168 0.73623 0.0
H1486 H 0.7434 0.22367 0.66614 0.0
H1487 H 0.7232 0.19336 0.62547 0.0
H1488 H 0.66326 0.13721 0.68252 0.0
H1489 H 0.68827 0.16227 0.7221 0.0
H1490 H 0.65522 0.10982 0.6445 0.0
H1491 H 0.65815 0.23127 0.63188 0.0
H1492 H 0.68893 0.28011 0.61901 0.0
H1493 H 0.72574 0.23671 0.54791 0.0
H1494 H 0.69525 0.18777 0.56045 0.0
H1495 H 0.53072 0.07413 0.56101 0.0
H1496 H 0.55252 0.10988 0.59672 0.0
H1497 H 0.61475 0.15269 0.53391 0.0
H1498 H 0.58902 0.12112 0.49792 0.0
H1499 H 0.62394 0.18515 0.57123 0.0
H1500 H 0.61561 0.06313 0.58788 0.0
H1501 H 0.58383 0.0162 0.60443 0.0
H1502 H 0.55297 0.06564 0.67461 0.0
H1503 H 0.58444 0.11265 0.65848 0.0
C1504 C 0.72723 0.20358 0.66974 0.0
C1505 C 0.71612 0.19617 0.69705 0.0
C1506 C 0.71449 0.187 0.64631 0.0
C1507 C 0.6888 0.16491 0.64987 0.0
C1508 C 0.68203 0.1545 0.67787 0.0
C1509 C 0.69635 0.16922 0.70103 0.0
C1510 C 0.66587 0.15568 0.62633 0.0
C1511 C 0.64838 0.12688 0.62895 0.0
C1512 C 0.65682 0.17651 0.60451 0.0
C1513 C 0.67479 0.20597 0.59727 0.0
C1514 C 0.67281 0.23228 0.61353 0.0
C1515 C 0.69023 0.25991 0.60631 0.0
C1516 C 0.70935 0.26147 0.58272 0.0
C1517 C 0.71101 0.23547 0.56621 0.0
C1518 C 0.6937 0.20782 0.57335 0.0
C1519 C 0.54716 0.09298 0.5544 0.0
C1520 C 0.55974 0.09376 0.52717 0.0
C1521 C 0.56086 0.11252 0.57525 0.0
C1522 C 0.58796 0.13156 0.56904 0.0
C1523 C 0.59495 0.13735 0.54018 0.0
C1524 C 0.57983 0.11935 0.51919 0.0
C1525 C 0.61217 0.1406 0.59127 0.0
C1526 C 0.63036 0.16877 0.58762 0.0
C1527 C 0.62122 0.1197 0.61296 0.0
C1528 C 0.60201 0.09138 0.62179 0.0
C1529 C 0.60194 0.06392 0.60675 0.0
C1530 C 0.58399 0.03735 0.61608 0.0
C1531 C 0.56628 0.03801 0.64046 0.0
C1532 C 0.56654 0.06518 0.65566 0.0
C1533 C 0.58442 0.09174 0.64647 0.0
H1534 H 0.55238 0.01749 0.6476 0.0
H1535 H 0.72282 0.28286 0.57719 0.0
H1536 H 0.59205 0.94016 0.47331 0.0
H1537 H 0.61687 0.90988 0.43907 0.0
H1538 H 0.56991 0.95521 0.37028 0.0
H1539 H 0.54456 0.98563 0.40499 0.0
H1540 H 0.57441 0.89443 0.3596 0.0
H1541 H 0.64518 0.97949 0.39019 0.0
H1542 H 0.67645 0.01259 0.42377 0.0
H1543 H 0.72236 0.93454 0.45444 0.0
H1544 H 0.69112 0.9009 0.42127 0.0
H1545 H 0.67127 0.85898 0.25024 0.0
H1546 H 0.64547 0.88815 0.28469 0.0
H1547 H 0.69519 0.84526 0.3531 0.0
H1548 H 0.72124 0.81588 0.31844 0.0
H1549 H 0.68889 0.90377 0.36446 0.0
H1550 H 0.61971 0.81846 0.33536 0.0
H1551 H 0.58831 0.78344 0.30347 0.0
H1552 H 0.53936 0.85901 0.27176 0.0
H1553 H 0.57066 0.89456 0.30326 0.0
C1554 C 0.58638 0.94311 0.45088 0.0
C1555 C 0.56636 0.9652 0.44175 0.0
C1556 C 0.6009 0.92603 0.4313 0.0
C1557 C 0.59608 0.93087 0.40199 0.0
C1558 C 0.5743 0.95133 0.3928 0.0
C1559 C 0.5596 0.96851 0.41257 0.0
C1560 C 0.61473 0.9154 0.38123 0.0
C1561 C 0.59944 0.89689 0.36035 0.0
C1562 C 0.64749 0.9176 0.38281 0.0
C1563 C 0.66554 0.93762 0.40346 0.0
C1564 C 0.66168 0.96931 0.40433 0.0
C1565 C 0.67947 0.98819 0.42323 0.0
C1566 C 0.70132 0.97566 0.44128 0.0
C1567 C 0.70539 0.94421 0.44049 0.0
C1568 C 0.68766 0.92524 0.42164 0.0
C1569 C 0.67756 0.85656 0.27257 0.0
C1570 C 0.69848 0.83522 0.28156 0.0
C1571 C 0.66231 0.87284 0.29232 0.0
C1572 C 0.66748 0.86816 0.32161 0.0
C1573 C 0.69043 0.84897 0.33062 0.0
C1574 C 0.70577 0.83257 0.31076 0.0
C1575 C 0.64861 0.88301 0.34262 0.0
C1576 C 0.66386 0.90132 0.36362 0.0
C1577 C 0.61582 0.88035 0.34131 0.0
C1578 C 0.59784 0.85927 0.32144 0.0
C1579 C 0.60254 0.8277 0.32132 0.0
C1580 C 0.58466 0.80773 0.3034 0.0
C1581 C 0.56192 0.81901 0.28554 0.0
C1582 C 0.55702 0.85031 0.28556 0.0
C1583 C 0.57481 0.87038 0.30346 0.0
H1584 H 0.54805 0.8035 0.27175 0.0
H1585 H 0.71514 0.99033 0.45583 0.0
H1586 H 0.76264 0.17665 0.32829 0.0
H1587 H 0.78111 0.13101 0.35322 0.0
H1588 H 0.86295 0.14112 0.30185 0.0
H1589 H 0.84243 0.18174 0.27503 0.0
H1590 H 0.86644 0.09347 0.32027 0.0
H1591 H 0.83909 0.18543 0.37814 0.0
H1592 H 0.80152 0.21473 0.4021 0.0
H1593 H 0.76089 0.13081 0.44126 0.0
H1594 H 0.79804 0.10112 0.41731 0.0
H1595 H 0.99098 0.09602 0.42806 0.0
H1596 H 0.95459 0.11402 0.39132 0.0
H1597 H 0.87948 0.05972 0.43234 0.0
H1598 H 0.91433 0.04262 0.46835 0.0
H1599 H 0.86726 0.11861 0.42232 0.0
H1600 H 0.91013 0.03389 0.36954 0.0
H1601 H 0.95592 0.01323 0.34972 0.0
H1602 H 0.97704 0.09832 0.30279 0.0
H1603 H 0.93134 0.11933 0.32226 0.0
C1604 C 0.78395 0.16802 0.32197 0.0
C1605 C 0.80233 0.18379 0.3012 0.0
C1606 C 0.79488 0.14235 0.33648 0.0
C1607 C 0.82487 0.13395 0.33135 0.0
C1608 C 0.84026 0.14697 0.30741 0.0
C1609 C 0.82876 0.17105 0.29224 0.0
C1610 C 0.84338 0.11694 0.35263 0.0
C1611 C 0.86647 0.09945 0.3425 0.0
C1612 C 0.84358 0.12331 0.38211 0.0
C1613 C 0.8208 0.14111 0.39557 0.0
C1614 C 0.82196 0.17331 0.39171 0.0
C1615 C 0.80077 0.18994 0.40528 0.0
C1616 C 0.77872 0.17462 0.42306 0.0
C1617 C 0.77783 0.14263 0.42735 0.0
C1618 C 0.79886 0.1259 0.41374 0.0
C1619 C 0.96668 0.08823 0.42909 0.0
C1620 C 0.95548 0.06857 0.4514 0.0
C1621 C 0.94605 0.09828 0.40816 0.0
C1622 C 0.91442 0.08812 0.40938 0.0
C1623 C 0.90368 0.06805 0.43126 0.0
C1624 C 0.9238 0.05853 0.452 0.0
C1625 C 0.89133 0.09869 0.38899 0.0
C1626 C 0.86715 0.11358 0.39982 0.0
C1627 C 0.89112 0.09156 0.36003 0.0
C1628 C 0.91738 0.07807 0.34724 0.0
C1629 C 0.92448 0.04805 0.35486 0.0
C1630 C 0.95042 0.03632 0.34372 0.0
C1631 C 0.96937 0.05445 0.32501 0.0
C1632 C 0.9623 0.08426 0.31721 0.0
C1633 C 0.93633 0.09603 0.32818 0.0
H1634 H 0.98955 0.04541 0.31656 0.0
H1635 H 0.76241 0.18754 0.43361 0.0
H1636 H 0.69612 0.20081 0.19102 0.0
H1637 H 0.67023 0.15687 0.16701 0.0
H1638 H 0.68679 0.09837 0.24029 0.0
H1639 H 0.70895 0.14399 0.26618 0.0
H1640 H 0.68786 0.10166 0.15358 0.0
H1641 H 0.64054 0.07265 0.25095 0.0
H1642 H 0.61909 0.09044 0.29506 0.0
H1643 H 0.55647 0.1424 0.24587 0.0
H1644 H 0.57898 0.12645 0.20152 0.0
H1645 H 0.59403 4e-05 0.0768 0.0
H1646 H 0.61858 0.01349 0.12251 0.0
H1647 H 0.56092 0.08839 0.12889 0.0
H1648 H 0.5368 0.07525 0.08269 0.0
H1649 H 0.58198 0.0649 0.18344 0.0
H1650 H 0.61707 0.11039 0.09833 0.0
H1651 H 0.63561 0.12087 0.04967 0.0
H1652 H 0.71127 0.06594 0.06709 0.0
H1653 H 0.69292 0.05484 0.11592 0.0
C1654 C 0.69537 0.17835 0.20171 0.0
C1655 C 0.70467 0.1757 0.23038 0.0
C1656 C 0.6799 0.15332 0.18817 0.0
C1657 C 0.67503 0.12457 0.20238 0.0
C1658 C 0.68834 0.12074 0.22963 0.0
C1659 C 0.70224 0.14647 0.24396 0.0
C1660 C 0.65581 0.09958 0.18775 0.0
C1661 C 0.66519 0.09244 0.16061 0.0
C1662 C 0.62535 0.08943 0.19622 0.0
C1663 C 0.61236 0.09936 0.22297 0.0
C1664 C 0.62297 0.08871 0.24956 0.0
C1665 C 0.6105 0.09835 0.27461 0.0
C1666 C 0.58666 0.11782 0.27328 0.0
C1667 C 0.57522 0.12766 0.2469 0.0
C1668 C 0.58803 0.11855 0.22182 0.0
C1669 C 0.5851 0.018 0.0889 0.0
C1670 C 0.56351 0.03657 0.07642 0.0
C1671 C 0.59942 0.02592 0.11487 0.0
C1672 C 0.59199 0.05229 0.12875 0.0
C1673 C 0.56695 0.06791 0.1185 0.0
C1674 C 0.55286 0.06017 0.09225 0.0
C1675 C 0.61438 0.06722 0.14944 0.0
C1676 C 0.60533 0.07251 0.17717 0.0
C1677 C 0.6444 0.07827 0.14085 0.0
C1678 C 0.65308 0.08098 0.11051 0.0
C1679 C 0.63709 0.09971 0.09153 0.0
C1680 C 0.64775 0.10605 0.064 0.0
C1681 C 0.67452 0.09394 0.05524 0.0
C1682 C 0.69044 0.07514 0.07387 0.0
C1683 C 0.67987 0.06874 0.10145 0.0
H1684 H 0.68306 0.09931 0.03409 0.0
H1685 H 0.57685 0.12505 0.29268 0.0
H1686 H 0.74496 0.85149 0.83995 0.0
H1687 H 0.71045 0.87376 0.87105 0.0
H1688 H 0.63896 0.80156 0.85156 0.0
H1689 H 0.67328 0.78057 0.8173 0.0
H1690 H 0.61515 0.85505 0.85034 0.0
H1691 H 0.68387 0.81024 0.92098 0.0
H1692 H 0.73509 0.80172 0.94182 0.0
H1693 H 0.75577 0.89948 0.95052 0.0
H1694 H 0.70495 0.90861 0.92946 0.0
H1695 H 0.52919 0.92907 0.95849 0.0
H1696 H 0.55301 0.89052 0.93064 0.0
H1697 H 0.6385 0.94899 0.93012 0.0
H1698 H 0.61565 0.98664 0.95762 0.0
H1699 H 0.64888 0.89267 0.94563 0.0
H1700 H 0.5921 0.94179 0.87207 0.0
H1701 H 0.54617 0.95906 0.84691 0.0
H1702 H 0.50881 0.86485 0.83861 0.0
H1703 H 0.55434 0.847 0.86422 0.0
C1704 C 0.72211 0.83975 0.84255 0.0
C1705 C 0.712 0.81416 0.82594 0.0
C1706 C 0.70229 0.8525 0.86077 0.0
C1707 C 0.67206 0.83912 0.86455 0.0
C1708 C 0.66223 0.81233 0.84928 0.0
C1709 C 0.68201 0.79996 0.83005 0.0
C1710 C 0.65077 0.85474 0.88299 0.0
C1711 C 0.62217 0.86252 0.87152 0.0
C1712 C 0.66026 0.86583 0.91026 0.0
C1713 C 0.69052 0.86005 0.92368 0.0
C1714 C 0.69934 0.82989 0.92735 0.0
C1715 C 0.72834 0.82498 0.93917 0.0
C1716 C 0.74865 0.85004 0.94751 0.0
C1717 C 0.74001 0.88008 0.94412 0.0
C1718 C 0.71108 0.88512 0.93232 0.0
C1719 C 0.55309 0.93355 0.9525 0.0
C1720 C 0.57044 0.96097 0.96069 0.0
C1721 C 0.56661 0.91162 0.93639 0.0
C1722 C 0.59767 0.91674 0.92829 0.0
C1723 C 0.61464 0.94424 0.93619 0.0
C1724 C 0.60133 0.96591 0.95203 0.0
C1725 C 0.61375 0.8935 0.91277 0.0
C1726 C 0.64139 0.88436 0.92481 0.0
C1727 C 0.60395 0.88237 0.88569 0.0
C1728 C 0.57636 0.89306 0.87061 0.0
C1729 C 0.5739 0.92475 0.86528 0.0
C1730 C 0.54798 0.93465 0.85084 0.0
C1731 C 0.52449 0.91307 0.84133 0.0
C1732 C 0.52696 0.88154 0.84613 0.0
C1733 C 0.55281 0.87152 0.86062 0.0
H1734 H 0.50445 0.92077 0.83014 0.0
H1735 H 0.77109 0.84618 0.95661 0.0
H1736 H 0.92386 0.98859 0.57415 0.0
H1737 H 0.91411 0.95339 0.61437 0.0
H1738 H 0.97575 0.89171 0.58083 0.0
H1739 H 0.9851 0.92729 0.5394 0.0
H1740 H 0.91434 0.86509 0.59301 0.0
H1741 H 0.99495 0.93177 0.64478 0.0
H1742 H 0.01591 0.98437 0.65768 0.0
H1743 H 0.92919 0.00071 0.69342 0.0
H1744 H 0.90771 0.94847 0.68068 0.0
H1745 H 0.82502 0.78856 0.7054 0.0
H1746 H 0.87186 0.80192 0.67739 0.0
H1747 H 0.86677 0.8982 0.69563 0.0
H1748 H 0.82304 0.88501 0.72448 0.0
H1749 H 0.92076 0.89239 0.69466 0.0
H1750 H 0.83457 0.85787 0.63277 0.0
H1751 H 0.79446 0.82081 0.61205 0.0
H1752 H 0.86397 0.76304 0.58809 0.0
H1753 H 0.90449 0.79967 0.60899 0.0
C1754 C 0.93613 0.96799 0.57574 0.0
C1755 C 0.95537 0.96069 0.5539 0.0
C1756 C 0.93065 0.94791 0.59885 0.0
C1757 C 0.94461 0.92014 0.60095 0.0
C1758 C 0.96509 0.91326 0.57977 0.0
C1759 C 0.97066 0.93363 0.55634 0.0
C1760 C 0.93442 0.89736 0.62361 0.0
C1761 C 0.91639 0.87047 0.61541 0.0
C1762 C 0.93587 0.90533 0.65262 0.0
C1763 C 0.94987 0.93597 0.66203 0.0
C1764 C 0.98046 0.94649 0.6556 0.0
C1765 C 0.99239 0.97631 0.66282 0.0
C1766 C 0.97393 0.99582 0.67644 0.0
C1767 C 0.94355 0.98553 0.68304 0.0
C1768 C 0.93156 0.95576 0.67597 0.0
C1769 C 0.83467 0.81233 0.70401 0.0
C1770 C 0.81993 0.83569 0.71681 0.0
C1771 C 0.86123 0.82005 0.68777 0.0
C1772 C 0.87293 0.85123 0.68396 0.0
C1773 C 0.85887 0.87395 0.69818 0.0
C1774 C 0.83325 0.8663 0.71456 0.0
C1775 C 0.89792 0.86186 0.66378 0.0
C1776 C 0.9195 0.88606 0.67247 0.0
C1777 C 0.89678 0.85364 0.63477 0.0
C1778 C 0.87247 0.83112 0.623 0.0
C1779 C 0.84125 0.83707 0.6234 0.0
C1780 C 0.81846 0.8162 0.61156 0.0
C1781 C 0.82665 0.78949 0.59892 0.0
C1782 C 0.85766 0.78364 0.59804 0.0
C1783 C 0.88054 0.80442 0.60992 0.0
H1784 H 0.80899 0.7734 0.58969 0.0
H1785 H 0.98314 0.01895 0.68182 0.0
H1786 H 0.18471 0.76213 0.85131 0.0
H1787 H 0.15841 0.79925 0.87771 0.0
H1788 H 0.2008 0.87356 0.8253 0.0
H1789 H 0.22823 0.83647 0.79968 0.0
H1790 H 0.19536 0.89346 0.87644 0.0
H1791 H 0.12468 0.83604 0.81165 0.0
H1792 H 0.09548 0.7905 0.79077 0.0
H1793 H 0.0556 0.76573 0.87176 0.0
H1794 H 0.08483 0.81088 0.89321 0.0
H1795 H 0.06642 0.9898 0.90012 0.0
H1796 H 0.10384 0.96017 0.8761 0.0
H1797 H 0.09392 0.88961 0.94225 0.0
H1798 H 0.05804 0.91914 0.96644 0.0
H1799 H 0.08181 0.87055 0.88137 0.0
H1800 H 0.15517 0.92155 0.9473 0.0
H1801 H 0.17964 0.9683 0.97004 0.0
H1802 H 0.21106 0.00429 0.88882 0.0
H1803 H 0.18631 0.95786 0.86553 0.0
C1804 C 0.18934 0.78653 0.8462 0.0
C1805 C 0.20867 0.79645 0.82359 0.0
C1806 C 0.17383 0.8077 0.86092 0.0
C1807 C 0.17667 0.83914 0.85283 0.0
C1808 C 0.19794 0.8494 0.83178 0.0
C1809 C 0.21393 0.82823 0.81736 0.0
C1810 C 0.15664 0.86101 0.86546 0.0
C1811 C 0.1705 0.88854 0.87703 0.0
C1812 C 0.12408 0.85453 0.86685 0.0
C1813 C 0.10725 0.82674 0.85411 0.0
C1814 C 0.10996 0.82071 0.82508 0.0
C1815 C 0.09333 0.795 0.81313 0.0
C1816 C 0.07377 0.7752 0.82995 0.0
C1817 C 0.0708 0.78105 0.85876 0.0
C1818 C 0.08739 0.8067 0.87082 0.0
C1819 C 0.07312 0.96849 0.90982 0.0
C1820 C 0.05958 0.95678 0.93512 0.0
C1821 C 0.09412 0.95147 0.89605 0.0
C1822 C 0.10118 0.92254 0.90732 0.0
C1823 C 0.08858 0.9117 0.93313 0.0
C1824 C 0.06831 0.92877 0.94702 0.0
C1825 C 0.12068 0.90253 0.89206 0.0
C1826 C 0.10667 0.87539 0.88024 0.0
C1827 C 0.15292 0.90908 0.8907 0.0
C1828 C 0.1687 0.93644 0.90466 0.0
C1829 C 0.16716 0.93952 0.93428 0.0
C1830 C 0.18108 0.96593 0.94727 0.0
C1831 C 0.19684 0.98928 0.93088 0.0
C1832 C 0.19882 0.98619 0.90148 0.0
C1833 C 0.18488 0.95982 0.88837 0.0
H1834 H 0.20754 0.00976 0.94096 0.0
H1835 H 0.06085 0.75537 0.82063 0.0
H1836 H 0.90157 0.46563 0.56285 0.0
H1837 H 0.88282 0.43537 0.60208 0.0
H1838 H 0.97468 0.40992 0.62256 0.0
H1839 H 0.99374 0.43869 0.5795 0.0
H1840 H 0.93946 0.36213 0.61861 0.0
H1841 H 0.92352 0.45038 0.67321 0.0
H1842 H 0.91019 0.5039 0.67829 0.0
H1843 H 0.81821 0.47823 0.64714 0.0
H1844 H 0.83083 0.42474 0.64185 0.0
H1845 H 0.83958 0.25359 0.69667 0.0
H1846 H 0.87676 0.28547 0.67056 0.0
H1847 H 0.8074 0.34825 0.64904 0.0
H1848 H 0.77325 0.3197 0.68286 0.0
H1849 H 0.84639 0.38027 0.67186 0.0
H1850 H 0.86677 0.3016 0.60059 0.0
H1851 H 0.87927 0.2492 0.58882 0.0
H1852 H 0.95963 0.25901 0.64376 0.0
H1853 H 0.94753 0.31132 0.65587 0.0
C1854 C 0.91819 0.45367 0.5754 0.0
C1855 C 0.94886 0.45312 0.56702 0.0
C1856 C 0.90744 0.43719 0.599 0.0
C1857 C 0.92724 0.42074 0.61615 0.0
C1858 C 0.95889 0.42256 0.60966 0.0
C1859 C 0.96972 0.43869 0.58504 0.0
C1860 C 0.91279 0.39651 0.63553 0.0
C1861 C 0.91942 0.36617 0.63079 0.0
C1862 C 0.88659 0.40159 0.65154 0.0
C1863 C 0.87815 0.43329 0.65741 0.0
C1864 C 0.90036 0.45605 0.66773 0.0
C1865 C 0.89293 0.48644 0.67056 0.0
C1866 C 0.86337 0.49444 0.6631 0.0
C1867 C 0.84104 0.47199 0.65311 0.0
C1868 C 0.84825 0.44155 0.65043 0.0
C1869 C 0.83174 0.27346 0.68515 0.0
C1870 C 0.80585 0.28678 0.69453 0.0
C1871 C 0.85351 0.29211 0.66982 0.0
C1872 C 0.84601 0.32083 0.65842 0.0
C1873 C 0.81486 0.3275 0.65926 0.0
C1874 C 0.79467 0.31046 0.67768 0.0
C1875 C 0.87049 0.34599 0.65107 0.0
C1876 C 0.86625 0.37618 0.65948 0.0
C1877 C 0.89839 0.34096 0.63765 0.0
C1878 C 0.90617 0.31018 0.62919 0.0
C1879 C 0.88714 0.29255 0.61003 0.0
C1880 C 0.89413 0.26288 0.60336 0.0
C1881 C 0.9202 0.25078 0.61557 0.0
C1882 C 0.93947 0.2684 0.6343 0.0
C1883 C 0.93262 0.29807 0.641 0.0
H1884 H 0.92547 0.22774 0.6105 0.0
H1885 H 0.85779 0.51804 0.66499 0.0
H1886 H 0.50335 0.10574 0.45369 0.0
H1887 H 0.4899 0.14786 0.42048 0.0
H1888 H 0.40766 0.09186 0.39417 0.0
H1889 H 0.4204 0.05143 0.42694 0.0
H1890 H 0.43242 0.1201 0.34972 0.0
H1891 H 0.40996 0.14496 0.44793 0.0
H1892 H 0.42431 0.15986 0.49705 0.0
H1893 H 0.47698 0.2414 0.46543 0.0
H1894 H 0.46332 0.22666 0.41605 0.0
H1895 H 0.29134 0.17229 0.33197 0.0
H1896 H 0.33608 0.15804 0.35989 0.0
H1897 H 0.38971 0.23955 0.32841 0.0
H1898 H 0.34453 0.25441 0.30063 0.0
H1899 H 0.39922 0.21399 0.39313 0.0
H1900 H 0.40057 0.18626 0.29171 0.0
H1901 H 0.37202 0.16571 0.24928 0.0
H1902 H 0.34534 0.08126 0.29531 0.0
H1903 H 0.37338 0.10141 0.33802 0.0
C1904 C 0.48283 0.10241 0.44025 0.0
C1905 C 0.463 0.07504 0.44272 0.0
C1906 C 0.47511 0.12646 0.42141 0.0
C1907 C 0.44777 0.12303 0.40467 0.0
C1908 C 0.42906 0.09514 0.40644 0.0
C1909 C 0.43641 0.07178 0.42526 0.0
C1910 C 0.43597 0.14834 0.38681 0.0
C1911 C 0.42594 0.14111 0.35895 0.0
C1912 C 0.42749 0.17588 0.39873 0.0
C1913 C 0.43613 0.18442 0.42832 0.0
C1914 C 0.42491 0.16587 0.45145 0.0
C1915 C 0.43286 0.17431 0.47933 0.0
C1916 C 0.45167 0.20148 0.48435 0.0
C1917 C 0.46254 0.22028 0.4615 0.0
C1918 C 0.45475 0.21186 0.43356 0.0
C1919 C 0.31237 0.18767 0.33161 0.0
C1920 C 0.3146 0.21426 0.31391 0.0
C1921 C 0.33786 0.17957 0.34764 0.0
C1922 C 0.3662 0.1976 0.34592 0.0
C1923 C 0.36796 0.22546 0.33006 0.0
C1924 C 0.34218 0.23386 0.31422 0.0
C1925 C 0.39431 0.18432 0.35712 0.0
C1926 C 0.40732 0.19403 0.38332 0.0
C1927 C 0.40439 0.15804 0.3444 0.0
C1928 C 0.38929 0.14529 0.31801 0.0
C1929 C 0.38873 0.16327 0.29273 0.0
C1930 C 0.37256 0.15171 0.26865 0.0
C1931 C 0.35695 0.12218 0.26958 0.0
C1932 C 0.35756 0.10408 0.29455 0.0
C1933 C 0.37367 0.11551 0.31866 0.0
H1934 H 0.34435 0.11333 0.25098 0.0
H1935 H 0.45773 0.20803 0.50595 0.0
H1936 H 0.55724 0.58534 0.02767 0.0
H1937 H 0.58268 0.6218 0.06144 0.0
H1938 H 0.59384 0.5469 0.12174 0.0
H1939 H 0.56955 0.51016 0.08748 0.0
H1940 H 0.58283 0.61864 0.13992 0.0
H1941 H 0.64644 0.54876 0.09117 0.0
H1942 H 0.65622 0.52216 0.0471 0.0
H1943 H 0.67254 0.60962 0.0029 0.0
H1944 H 0.66158 0.63666 0.04652 0.0
H1945 H 0.70611 0.68602 0.21325 0.0
H1946 H 0.68934 0.64261 0.18342 0.0
H1947 H 0.67567 0.70536 0.11267 0.0
H1948 H 0.69138 0.74912 0.14296 0.0
H1949 H 0.68895 0.63603 0.10201 0.0
H1950 H 0.62111 0.70545 0.1438 0.0
H1951 H 0.59857 0.73506 0.18076 0.0
H1952 H 0.58421 0.65286 0.23309 0.0
H1953 H 0.6072 0.62292 0.19668 0.0
C1954 C 0.56432 0.57694 0.0485 0.0
C1955 C 0.56244 0.54527 0.05506 0.0
C1956 C 0.57848 0.59766 0.06774 0.0
C1957 C 0.59029 0.58666 0.09363 0.0
C1958 C 0.5848 0.55546 0.10168 0.0
C1959 C 0.57134 0.53459 0.0821 0.0
C1960 C 0.61419 0.60605 0.10858 0.0
C1961 C 0.60624 0.62198 0.13219 0.0
C1962 C 0.64426 0.61077 0.09759 0.0
C1963 C 0.65287 0.59468 0.07198 0.0
C1964 C 0.65185 0.56229 0.07199 0.0
C1965 C 0.65754 0.54713 0.04709 0.0
C1966 C 0.66493 0.56419 0.02219 0.0
C1967 C 0.66674 0.59644 0.02219 0.0
C1968 C 0.66072 0.61168 0.04697 0.0
C1969 C 0.70186 0.69044 0.19077 0.0
C1970 C 0.69961 0.72061 0.18023 0.0
C1971 C 0.69196 0.66562 0.17386 0.0
C1972 C 0.68059 0.67118 0.14632 0.0
C1973 C 0.68424 0.70097 0.13408 0.0
C1974 C 0.69341 0.72589 0.15126 0.0
C1975 C 0.65782 0.6484 0.13382 0.0
C1976 C 0.66589 0.63203 0.1104 0.0
C1977 C 0.62763 0.6436 0.14478 0.0
C1978 C 0.61679 0.66216 0.1679 0.0
C1979 C 0.61399 0.69388 0.16354 0.0
C1980 C 0.60083 0.71067 0.1843 0.0
C1981 C 0.59036 0.69598 0.20949 0.0
C1982 C 0.59283 0.66439 0.21387 0.0
C1983 C 0.60593 0.6475 0.19318 0.0
H1984 H 0.58006 0.70898 0.22548 0.0
H1985 H 0.66933 0.55242 0.00292 0.0
H1986 H 0.17137 0.25329 0.66344 0.0
H1987 H 0.14614 0.21396 0.63355 0.0
H1988 H 0.21377 0.15166 0.65996 0.0
H1989 H 0.23663 0.19033 0.6929 0.0
H1990 H 0.15587 0.17753 0.59441 0.0
H1991 H 0.1917 0.10451 0.67175 0.0
H1992 H 0.20297 0.08665 0.72077 0.0
H1993 H 0.11501 0.11174 0.74659 0.0
H1994 H 0.10508 0.13332 0.69893 0.0
H1995 H 0.0956 0.03113 0.56551 0.0
H1996 H 0.11645 0.06261 0.6042 0.0
H1997 H 0.04134 0.12051 0.59355 0.0
H1998 H 0.02183 0.09029 0.5522 0.0
H1999 H 0.10257 0.09375 0.65322 0.0
H2000 H 0.06352 0.16858 0.58507 0.0
H2001 H 0.04684 0.19196 0.53972 0.0
H2002 H 0.13224 0.17429 0.50244 0.0
H2003 H 0.14748 0.14685 0.54636 0.0
C2004 C 0.18188 0.23176 0.66176 0.0
C2005 C 0.20402 0.22362 0.68184 0.0
C2006 C 0.1669 0.20886 0.64526 0.0
C2007 C 0.17628 0.17876 0.64686 0.0
C2008 C 0.20419 0.17362 0.66084 0.0
C2009 C 0.21834 0.19639 0.67837 0.0
C2010 C 0.1552 0.15372 0.635 0.0
C2011 C 0.1444 0.15897 0.60724 0.0
C2012 C 0.13968 0.13008 0.6522 0.0
C2013 C 0.14862 0.12252 0.68205 0.0
C2014 C 0.17581 0.10832 0.68837 0.0
C2015 C 0.18189 0.09737 0.71601 0.0
C2016 C 0.16019 0.09902 0.7372 0.0
C2017 C 0.13253 0.11184 0.73078 0.0
C2018 C 0.12693 0.12396 0.70356 0.0
C2019 C 0.08328 0.05039 0.5717 0.0
C2020 C 0.05867 0.06 0.55507 0.0
C2021 C 0.09494 0.06809 0.59402 0.0
C2022 C 0.08171 0.09522 0.60001 0.0
C2023 C 0.05318 0.10105 0.58736 0.0
C2024 C 0.04179 0.08363 0.56423 0.0
C2025 C 0.10215 0.11938 0.61356 0.0
C2026 C 0.11364 0.11294 0.64089 0.0
C2027 C 0.11745 0.14321 0.5967 0.0
C2028 C 0.10571 0.15383 0.56858 0.0
C2029 C 0.0777 0.16757 0.5666 0.0
C2030 C 0.06855 0.18167 0.54111 0.0
C2031 C 0.08806 0.18376 0.51787 0.0
C2032 C 0.11655 0.1714 0.51999 0.0
C2033 C 0.12513 0.15596 0.54498 0.0
H2034 H 0.08142 0.19556 0.49843 0.0
H2035 H 0.16447 0.08974 0.75838 0.0
H2036 H 0.66268 0.27138 0.32543 0.0
H2037 H 0.63985 0.30909 0.35387 0.0
H2038 H 0.71658 0.37603 0.33584 0.0
H2039 H 0.73887 0.33859 0.30575 0.0
H2040 H 0.67816 0.35468 0.40158 0.0
H2041 H 0.67651 0.39857 0.30184 0.0
H2042 H 0.66423 0.39192 0.25077 0.0
H2043 H 0.57075 0.35978 0.27036 0.0
H2044 H 0.5827 0.36544 0.3216 0.0
H2045 H 0.6054 0.47107 0.46489 0.0
H2046 H 0.63956 0.4461 0.43385 0.0
H2047 H 0.56024 0.40745 0.38574 0.0
H2048 H 0.52633 0.43299 0.4165 0.0
H2049 H 0.60344 0.4176 0.3511 0.0
H2050 H 0.59533 0.35934 0.43663 0.0
H2051 H 0.59606 0.34235 0.48708 0.0
H2052 H 0.69018 0.38047 0.49616 0.0
H2053 H 0.69014 0.39721 0.44554 0.0
C2054 C 0.67516 0.29387 0.32812 0.0
C2055 C 0.70273 0.30198 0.31361 0.0
C2056 C 0.66193 0.31542 0.34414 0.0
C2057 C 0.6762 0.34541 0.34628 0.0
C2058 C 0.7051 0.35298 0.33397 0.0
C2059 C 0.71818 0.33142 0.31738 0.0
C2060 C 0.65995 0.36859 0.3609 0.0
C2061 C 0.66266 0.36941 0.39056 0.0
C2062 C 0.63768 0.38542 0.34652 0.0
C2063 C 0.63068 0.38201 0.31563 0.0
C2064 C 0.65349 0.3896 0.29532 0.0
C2065 C 0.64654 0.38611 0.26631 0.0
C2066 C 0.61676 0.37534 0.25733 0.0
C2067 C 0.59384 0.36804 0.27734 0.0
C2068 C 0.60071 0.37137 0.30636 0.0
C2069 C 0.59551 0.45844 0.44682 0.0
C2070 C 0.5634 0.45451 0.44253 0.0
C2071 C 0.61493 0.44363 0.42947 0.0
C2072 C 0.60249 0.42425 0.40782 0.0
C2073 C 0.57048 0.4222 0.40227 0.0
C2074 C 0.5511 0.4371 0.4196 0.0
C2075 C 0.62256 0.40492 0.39205 0.0
C2076 C 0.61995 0.40412 0.36222 0.0
C2077 C 0.64343 0.38632 0.40638 0.0
C2078 C 0.64257 0.37999 0.43748 0.0
C2079 C 0.61599 0.36462 0.44954 0.0
C2080 C 0.61639 0.35473 0.47807 0.0
C2081 C 0.64317 0.36032 0.49481 0.0
C2082 C 0.66948 0.37613 0.48314 0.0
C2083 C 0.66932 0.38575 0.45452 0.0
H2084 H 0.64356 0.35236 0.51681 0.0
H2085 H 0.61141 0.37276 0.23487 0.0
H2086 H 0.44707 0.99442 0.1034 0.0
H2087 H 0.41653 0.95923 0.1335 0.0
H2088 H 0.47037 0.88522 0.11027 0.0
H2089 H 0.49738 0.92028 0.07566 0.0
H2090 H 0.41898 0.86768 0.09718 0.0
H2091 H 0.45197 0.9147 0.18629 0.0
H2092 H 0.46452 0.95765 0.21906 0.0
H2093 H 0.37249 0.98485 0.20862 0.0
H2094 H 0.35946 0.94237 0.1756 0.0
H2095 H 0.32351 0.75804 0.17556 0.0
H2096 H 0.35621 0.79107 0.14568 0.0
H2097 H 0.30605 0.86858 0.1667 0.0
H2098 H 0.2786 0.83586 0.20252 0.0
H2099 H 0.35775 0.88287 0.18204 0.0
H2100 H 0.32664 0.83371 0.0909 0.0
H2101 H 0.31561 0.78716 0.06211 0.0
H2102 H 0.407 0.76109 0.08006 0.0
H2103 H 0.41849 0.80723 0.10904 0.0
C2104 C 0.45348 0.97095 0.10581 0.0
C2105 C 0.47353 0.95965 0.08651 0.0
C2106 C 0.43593 0.95053 0.12346 0.0
C2107 C 0.44032 0.9189 0.12408 0.0
C2108 C 0.46563 0.90924 0.1095 0.0
C2109 C 0.48175 0.92942 0.09019 0.0
C2110 C 0.41499 0.89581 0.13391 0.0
C2111 C 0.40606 0.87083 0.11615 0.0
C2112 C 0.39697 0.9001 0.15796 0.0
C2113 C 0.40477 0.92527 0.17842 0.0
C2114 C 0.43443 0.92985 0.19095 0.0
C2115 C 0.44162 0.95414 0.20957 0.0
C2116 C 0.41931 0.97394 0.21593 0.0
C2117 C 0.38972 0.96943 0.20378 0.0
C2118 C 0.3824 0.94522 0.18516 0.0
C2119 C 0.31815 0.7818 0.17259 0.0
C2120 C 0.30026 0.7949 0.19262 0.0
C2121 C 0.33721 0.8011 0.1551 0.0
C2122 C 0.33471 0.83314 0.1541 0.0
C2123 C 0.30968 0.84427 0.16797 0.0
C2124 C 0.29298 0.82532 0.18781 0.0
C2125 C 0.36133 0.85515 0.14498 0.0
C2126 C 0.37057 0.87987 0.16297 0.0
C2127 C 0.37987 0.85038 0.12138 0.0
C2128 C 0.37339 0.82396 0.10214 0.0
C2129 C 0.34441 0.81814 0.08854 0.0
C2130 C 0.33807 0.79177 0.07226 0.0
C2131 C 0.36058 0.77119 0.06927 0.0
C2132 C 0.3896 0.77706 0.08232 0.0
C2133 C 0.39608 0.80338 0.09857 0.0
H2134 H 0.35553 0.75068 0.05686 0.0
H2135 H 0.42497 0.99279 0.23025 0.0
H2136 H 0.95247 0.59586 0.97116 0.0
H2137 H 0.92952 0.63684 0.94386 0.0
H2138 H 0.97669 0.61291 0.86912 0.0
H2139 H 0.99826 0.57027 0.89615 0.0
H2140 H 0.96085 0.68785 0.89189 0.0
H2141 H 0.92686 0.58424 0.85495 0.0
H2142 H 0.90925 0.52901 0.86074 0.0
H2143 H 0.83398 0.55173 0.91119 0.0
H2144 H 0.85198 0.60708 0.90672 0.0
H2145 H 0.85364 0.74111 0.78484 0.0
H2146 H 0.89529 0.72291 0.81511 0.0
H2147 H 0.82815 0.68563 0.87599 0.0
H2148 H 0.78661 0.70261 0.84508 0.0
H2149 H 0.85855 0.64234 0.85748 0.0
H2150 H 0.88694 0.74397 0.89202 0.0
H2151 H 0.90324 0.79976 0.89042 0.0
H2152 H 0.98548 0.78275 0.84703 0.0
H2153 H 0.96946 0.72688 0.84797 0.0
C2154 C 0.95906 0.60027 0.94923 0.0
C2155 C 0.97726 0.58029 0.93568 0.0
C2156 C 0.9458 0.62352 0.93366 0.0
C2157 C 0.95115 0.62747 0.9045 0.0
C2158 C 0.97222 0.60989 0.89162 0.0
C2159 C 0.98474 0.58584 0.90705 0.0
C2160 C 0.93078 0.64619 0.88722 0.0
C2161 C 0.93869 0.67802 0.88375 0.0
C2162 C 0.90153 0.63322 0.87768 0.0
C2163 C 0.8914 0.59979 0.88124 0.0
C2164 C 0.90712 0.57745 0.86798 0.0
C2165 C 0.89694 0.5461 0.87089 0.0
C2166 C 0.87066 0.53683 0.88652 0.0
C2167 C 0.8545 0.55891 0.8993 0.0
C2168 C 0.86479 0.59026 0.8967 0.0
C2169 C 0.84807 0.73008 0.80524 0.0
C2170 C 0.8172 0.72317 0.81284 0.0
C2171 C 0.87182 0.71973 0.82255 0.0
C2172 C 0.86485 0.70272 0.84776 0.0
C2173 C 0.83406 0.69853 0.85654 0.0
C2174 C 0.81037 0.70832 0.83902 0.0
C2175 C 0.88823 0.68452 0.8621 0.0
C2176 C 0.88079 0.65252 0.86517 0.0
C2177 C 0.91771 0.6975 0.87131 0.0
C2178 C 0.92676 0.73122 0.86973 0.0
C2179 C 0.90827 0.75214 0.88175 0.0
C2180 C 0.91752 0.78379 0.88106 0.0
C2181 C 0.94531 0.79481 0.86853 0.0
C2182 C 0.96391 0.7742 0.85665 0.0
C2183 C 0.95475 0.74254 0.85726 0.0
H2184 H 0.95248 0.8193 0.86811 0.0
H2185 H 0.8627 0.51258 0.88857 0.0
H2186 H 0.47449 0.47677 0.08433 0.0
H2187 H 0.46026 0.43622 0.12055 0.0
H2188 H 0.4055 0.38444 0.05753 0.0
H2189 H 0.42025 0.42416 0.02151 0.0
H2190 H 0.37714 0.41473 0.11157 0.0
H2191 H 0.45023 0.34949 0.07491 0.0
H2192 H 0.50185 0.33517 0.0635 0.0
H2193 H 0.5284 0.3381 0.15198 0.0
H2194 H 0.47763 0.35451 0.16368 0.0
H2195 H 0.29415 0.30236 0.19188 0.0
H2196 H 0.32749 0.31787 0.15198 0.0
H2197 H 0.40203 0.34477 0.21078 0.0
H2198 H 0.36857 0.3294 0.25071 0.0
H2199 H 0.42248 0.3254 0.15858 0.0
H2200 H 0.35212 0.39258 0.19574 0.0
H2201 H 0.30209 0.40992 0.20867 0.0
H2202 H 0.27125 0.40559 0.12137 0.0
H2203 H 0.32076 0.38725 0.10801 0.0
C2204 C 0.46091 0.45584 0.07804 0.0
C2205 C 0.44874 0.45315 0.05025 0.0
C2206 C 0.45259 0.43288 0.09868 0.0
C2207 C 0.43192 0.40738 0.09156 0.0
C2208 C 0.42176 0.40374 0.06328 0.0
C2209 C 0.43036 0.42631 0.04274 0.0
C2210 C 0.41621 0.38779 0.11392 0.0
C2211 C 0.38685 0.39496 0.12166 0.0
C2212 C 0.42936 0.36256 0.12737 0.0
C2213 C 0.46029 0.35393 0.12008 0.0
C2214 C 0.46734 0.34802 0.09183 0.0
C2215 C 0.49646 0.33943 0.08531 0.0
C2216 C 0.51847 0.33589 0.10696 0.0
C2217 C 0.5114 0.34101 0.13518 0.0
C2218 C 0.48256 0.35025 0.14173 0.0
C2219 C 0.31828 0.30945 0.19624 0.0
C2220 C 0.32902 0.31443 0.22428 0.0
C2221 C 0.33713 0.3189 0.17342 0.0
C2222 C 0.36688 0.33323 0.17855 0.0
C2223 C 0.37904 0.33395 0.20645 0.0
C2224 C 0.36006 0.32484 0.22925 0.0
C2225 C 0.38318 0.352 0.15591 0.0
C2226 C 0.41265 0.34499 0.14832 0.0
C2227 C 0.37022 0.37767 0.1427 0.0
C2228 C 0.34002 0.38785 0.15095 0.0
C2229 C 0.3345 0.39472 0.17935 0.0
C2230 C 0.30623 0.40483 0.18676 0.0
C2231 C 0.28343 0.40868 0.16588 0.0
C2232 C 0.28885 0.40241 0.13755 0.0
C2233 C 0.31698 0.39206 0.13007 0.0
H2234 H 0.26163 0.41665 0.17164 0.0
H2235 H 0.54098 0.3291 0.1019 0.0
H2236 H 0.48266 0.55174 0.91752 0.0
H2237 H 0.44726 0.57075 0.88132 0.0
H2238 H 0.40528 0.62195 0.94481 0.0
H2239 H 0.44159 0.60467 0.98079 0.0
H2240 H 0.36526 0.56974 0.90732 0.0
H2241 H 0.43267 0.66533 0.91128 0.0
H2242 H 0.48325 0.69563 0.90928 0.0
H2243 H 0.49406 0.66696 0.82373 0.0
H2244 H 0.44437 0.63483 0.82593 0.0
H2245 H 0.29303 0.70317 0.84925 0.0
H2246 H 0.31287 0.65984 0.87634 0.0
H2247 H 0.3379 0.62006 0.79809 0.0
H2248 H 0.31786 0.66295 0.77112 0.0
H2249 H 0.38547 0.6561 0.8373 0.0
H2250 H 0.3095 0.5712 0.83066 0.0
H2251 H 0.25745 0.54401 0.83389 0.0
H2252 H 0.259 0.55664 0.92414 0.0
H2253 H 0.31094 0.58433 0.92144 0.0
C2254 C 0.46703 0.56833 0.92353 0.0
C2255 C 0.46448 0.57631 0.95214 0.0
C2256 C 0.44636 0.5785 0.90297 0.0
C2257 C 0.4231 0.59656 0.91094 0.0
C2258 C 0.42268 0.60725 0.93867 0.0
C2259 C 0.44379 0.59786 0.95899 0.0
C2260 C 0.39902 0.60449 0.89044 0.0
C2261 C 0.36945 0.58857 0.8919 0.0
C2262 C 0.40501 0.62854 0.87023 0.0
C2263 C 0.43524 0.64707 0.86905 0.0
C2264 C 0.44625 0.66477 0.89235 0.0
C2265 C 0.47477 0.68224 0.89119 0.0
C2266 C 0.49216 0.68276 0.86656 0.0
C2267 C 0.48093 0.66594 0.84302 0.0
C2268 C 0.45266 0.64797 0.84426 0.0
C2269 C 0.30136 0.68431 0.83795 0.0
C2270 C 0.30476 0.68627 0.80843 0.0
C2271 C 0.31231 0.65947 0.8533 0.0
C2272 C 0.32687 0.637 0.83906 0.0
C2273 C 0.32645 0.63707 0.8093 0.0
C2274 C 0.31544 0.6617 0.79402 0.0
C2275 C 0.35131 0.62189 0.85434 0.0
C2276 C 0.3812 0.63663 0.85206 0.0
C2277 C 0.34525 0.59708 0.87389 0.0
C2278 C 0.31408 0.58017 0.87579 0.0
C2279 C 0.29866 0.56848 0.85118 0.0
C2280 C 0.26919 0.55288 0.85292 0.0
C2281 C 0.25489 0.54868 0.87919 0.0
C2282 C 0.2701 0.55994 0.9038 0.0
C2283 C 0.2996 0.57554 0.90218 0.0
H2284 H 0.23205 0.53665 0.8805 0.0
H2285 H 0.51416 0.69646 0.86561 0.0
H2286 H 0.06832 0.49769 0.59986 0.0
H2287 H 0.09448 0.52633 0.63837 0.0
H2288 H 0.06103 0.61035 0.60407 0.0
H2289 H 0.03598 0.58161 0.56483 0.0
H2290 H 0.12257 0.61042 0.59984 0.0
H2291 H 0.04928 0.58453 0.67475 0.0
H2292 H 0.01552 0.54719 0.70284 0.0
H2293 H 0.094 0.50043 0.73073 0.0
H2294 H 0.12819 0.53727 0.70253 0.0
H2295 H 0.20384 0.71762 0.68745 0.0
H2296 H 0.17582 0.68307 0.65548 0.0
H2297 H 0.19471 0.60553 0.71077 0.0
H2298 H 0.21709 0.64196 0.74596 0.0
H2299 H 0.14089 0.599 0.70373 0.0
H2300 H 0.21551 0.62334 0.63113 0.0
H2301 H 0.25087 0.6595 0.60366 0.0
H2302 H 0.17405 0.70399 0.5683 0.0
H2303 H 0.13823 0.66892 0.5965 0.0
C2304 C 0.06448 0.52181 0.60182 0.0
C2305 C 0.05064 0.53761 0.57926 0.0
C2306 C 0.0799 0.53835 0.6237 0.0
C2307 C 0.08043 0.57066 0.62365 0.0
C2308 C 0.06126 0.58546 0.60424 0.0
C2309 C 0.04614 0.56885 0.5822 0.0
C2310 C 0.1057 0.58897 0.63897 0.0
C2311 C 0.12644 0.60839 0.62267 0.0
C2312 C 0.1117 0.5848 0.66836 0.0
C2313 C 0.09128 0.5636 0.68641 0.0
C2314 C 0.05933 0.56627 0.68684 0.0
C2315 C 0.04012 0.54517 0.70277 0.0
C2316 C 0.0526 0.52143 0.71852 0.0
C2317 C 0.08436 0.51885 0.71853 0.0
C2318 C 0.10368 0.53988 0.70264 0.0
C2319 C 0.20354 0.69302 0.69209 0.0
C2320 C 0.21182 0.68243 0.7193 0.0
C2321 C 0.18735 0.67287 0.67348 0.0
C2322 C 0.18256 0.6411 0.68031 0.0
C2323 C 0.19706 0.62993 0.70515 0.0
C2324 C 0.21085 0.65061 0.72498 0.0
C2325 C 0.15829 0.62109 0.66473 0.0
C2326 C 0.13763 0.60111 0.68087 0.0
C2327 C 0.15285 0.62409 0.63492 0.0
C2328 C 0.17415 0.6434 0.61599 0.0
C2329 C 0.20611 0.6407 0.61738 0.0
C2330 C 0.22627 0.66112 0.60173 0.0
C2331 C 0.21473 0.6839 0.58404 0.0
C2332 C 0.18296 0.68625 0.58191 0.0
C2333 C 0.16271 0.66611 0.59775 0.0
H2334 H 0.23039 0.69981 0.57209 0.0
H2335 H 0.03766 0.50504 0.73073 0.0
H2336 H 0.28009 0.29341 0.65511 0.0
H2337 H 0.30557 0.32236 0.61566 0.0
H2338 H 0.2893 0.40792 0.65437 0.0
H2339 H 0.26505 0.37891 0.69467 0.0
H2340 H 0.28604 0.40452 0.5888 0.0
H2341 H 0.34774 0.38572 0.67321 0.0
H2342 H 0.36969 0.35429 0.71158 0.0
H2343 H 0.41486 0.30404 0.65005 0.0
H2344 H 0.39213 0.33425 0.61115 0.0
H2345 H 0.43637 0.4818 0.53332 0.0
H2346 H 0.39262 0.46847 0.56466 0.0
H2347 H 0.37835 0.37862 0.52757 0.0
H2348 H 0.42054 0.39235 0.49532 0.0
H2349 H 0.39814 0.39151 0.59598 0.0
H2350 H 0.32537 0.39659 0.51476 0.0
H2351 H 0.307 0.4258 0.47306 0.0
H2352 H 0.28732 0.49939 0.52696 0.0
H2353 H 0.3064 0.4708 0.56894 0.0
C2354 C 0.28025 0.31836 0.65436 0.0
C2355 C 0.27039 0.33401 0.67774 0.0
C2356 C 0.29529 0.33486 0.63207 0.0
C2357 C 0.29975 0.36718 0.63253 0.0
C2358 C 0.28612 0.38295 0.65382 0.0
C2359 C 0.27187 0.36641 0.67658 0.0
C2360 C 0.32191 0.38396 0.61305 0.0
C2361 C 0.31057 0.40201 0.59065 0.0
C2362 C 0.35399 0.38042 0.61548 0.0
C2363 C 0.36754 0.36195 0.63907 0.0
C2364 C 0.36176 0.36755 0.66772 0.0
C2365 C 0.37446 0.34998 0.68963 0.0
C2366 C 0.39352 0.32707 0.68326 0.0
C2367 C 0.39994 0.32168 0.65496 0.0
C2368 C 0.38705 0.33897 0.63296 0.0
C2369 C 0.42288 0.45994 0.53082 0.0
C2370 C 0.43244 0.4378 0.51259 0.0
C2371 C 0.39825 0.45213 0.54904 0.0
C2372 C 0.38313 0.42226 0.54885 0.0
C2373 C 0.39011 0.40166 0.52815 0.0
C2374 C 0.41399 0.40975 0.50951 0.0
C2375 C 0.36197 0.41114 0.57161 0.0
C2376 C 0.37362 0.39427 0.59462 0.0
C2377 C 0.3303 0.41517 0.56961 0.0
C2378 C 0.31743 0.43172 0.54486 0.0
C2379 C 0.31728 0.41908 0.51766 0.0
C2380 C 0.30679 0.43551 0.49399 0.0
C2381 C 0.29603 0.46446 0.49735 0.0
C2382 C 0.29569 0.47697 0.52441 0.0
C2383 C 0.30636 0.46068 0.54815 0.0
H2384 H 0.2879 0.47717 0.47899 0.0
H2385 H 0.40343 0.31359 0.70024 0.0
H2386 H 0.1625 0.66881 0.23225 0.0
H2387 H 0.13998 0.64187 0.19095 0.0
H2388 H 0.2073 0.69207 0.13717 0.0
H2389 H 0.23007 0.71919 0.17877 0.0
H2390 H 0.14882 0.70084 0.12015 0.0
H2391 H 0.20504 0.61526 0.13998 0.0
H2392 H 0.22862 0.57583 0.16972 0.0
H2393 H 0.13872 0.53578 0.19326 0.0
H2394 H 0.11455 0.5752 0.1639 0.0
H2395 H 0.08153 0.61494 0.0027 0.0
H2396 H 0.10761 0.64821 0.03788 0.0
H2397 H 0.05398 0.5995 0.10386 0.0
H2398 H 0.03018 0.56449 0.06856 0.0
H2399 H 0.11284 0.59015 0.11012 0.0
H2400 H 0.05824 0.68116 0.08885 0.0
H2401 H 0.03864 0.71895 0.05444 0.0
H2402 H 0.13115 0.74773 0.02922 0.0
H2403 H 0.15128 0.7097 0.06299 0.0
C2404 C 0.17314 0.67329 0.21177 0.0
C2405 C 0.19767 0.69625 0.20849 0.0
C2406 C 0.16035 0.65785 0.1882 0.0
C2407 C 0.17182 0.66524 0.16099 0.0
C2408 C 0.19809 0.68622 0.15802 0.0
C2409 C 0.21119 0.70146 0.18177 0.0
C2410 C 0.1534 0.65438 0.13586 0.0
C2411 C 0.14133 0.67658 0.11756 0.0
C2412 C 0.14366 0.62281 0.13269 0.0
C2413 C 0.15795 0.59838 0.14982 0.0
C2414 C 0.19027 0.59814 0.15158 0.0
C2415 C 0.20375 0.57577 0.16836 0.0
C2416 C 0.18518 0.55336 0.18341 0.0
C2417 C 0.15307 0.55316 0.18157 0.0
C2418 C 0.13946 0.57548 0.16479 0.0
C2419 C 0.0736 0.61288 0.02441 0.0
C2420 C 0.05479 0.58665 0.03329 0.0
C2421 C 0.08894 0.63171 0.04471 0.0
C2422 C 0.08349 0.6257 0.07372 0.0
C2423 C 0.05901 0.60408 0.08162 0.0
C2424 C 0.04444 0.58471 0.06127 0.0
C2425 C 0.10688 0.63676 0.09537 0.0
C2426 C 0.12022 0.61443 0.11272 0.0
C2427 C 0.11824 0.66816 0.09722 0.0
C2428 C 0.10625 0.69248 0.0784 0.0
C2429 C 0.07439 0.69558 0.07599 0.0
C2430 C 0.06319 0.71698 0.05656 0.0
C2431 C 0.08363 0.73571 0.03968 0.0
C2432 C 0.11535 0.73322 0.04233 0.0
C2433 C 0.12667 0.71178 0.06164 0.0
H2434 H 0.07489 0.75215 0.02456 0.0
H2435 H 0.19566 0.53612 0.19647 0.0
H2436 H 0.73949 0.35395 0.71768 0.0
H2437 H 0.72861 0.39427 0.68216 0.0
H2438 H 0.63324 0.35734 0.67776 0.0
H2439 H 0.64341 0.31788 0.71307 0.0
H2440 H 0.66117 0.36679 0.62457 0.0
H2441 H 0.64383 0.41457 0.71269 0.0
H2442 H 0.65851 0.43252 0.7608 0.0
H2443 H 0.7318 0.49405 0.72615 0.0
H2444 H 0.71782 0.47592 0.67777 0.0
H2445 H 0.53958 0.45106 0.60431 0.0
H2446 H 0.58253 0.43581 0.63392 0.0
H2447 H 0.64694 0.48484 0.57673 0.0
H2448 H 0.60369 0.49991 0.54649 0.0
H2449 H 0.65455 0.47589 0.65013 0.0
H2450 H 0.63699 0.42767 0.55558 0.0
H2451 H 0.60021 0.40452 0.51988 0.0
H2452 H 0.56958 0.33292 0.57999 0.0
H2453 H 0.60418 0.35701 0.61678 0.0
C2454 C 0.71615 0.35475 0.70934 0.0
C2455 C 0.69231 0.33276 0.71816 0.0
C2456 C 0.71011 0.37755 0.68899 0.0
C2457 C 0.68034 0.37816 0.67715 0.0
C2458 C 0.65649 0.35676 0.68642 0.0
C2459 C 0.66232 0.33445 0.70688 0.0
C2460 C 0.6728 0.4015 0.65566 0.0
C2461 C 0.66039 0.39092 0.6296 0.0
C2462 C 0.67151 0.4326 0.66288 0.0
C2463 C 0.6802 0.44351 0.69176 0.0
C2464 C 0.66334 0.43164 0.71539 0.0
C2465 C 0.67146 0.44188 0.74268 0.0
C2466 C 0.69618 0.46431 0.74655 0.0
C2467 C 0.71275 0.47657 0.72311 0.0
C2468 C 0.70477 0.46629 0.69575 0.0
C2469 C 0.56285 0.45985 0.5988 0.0
C2470 C 0.56862 0.47606 0.57301 0.0
C2471 C 0.58728 0.45106 0.61563 0.0
C2472 C 0.61757 0.45861 0.60686 0.0
C2473 C 0.6235 0.47873 0.58345 0.0
C2474 C 0.59888 0.48747 0.5664 0.0
C2475 C 0.64168 0.44089 0.61949 0.0
C2476 C 0.65716 0.45243 0.64395 0.0
C2477 C 0.6432 0.40966 0.61203 0.0
C2478 C 0.62303 0.39466 0.58924 0.0
C2479 C 0.62194 0.40747 0.56148 0.0
C2480 C 0.60134 0.39417 0.54102 0.0
C2481 C 0.58252 0.3673 0.54767 0.0
C2482 C 0.58408 0.3538 0.57486 0.0
C2483 C 0.604 0.36746 0.59561 0.0
H2484 H 0.56683 0.35689 0.53173 0.0
H2485 H 0.70241 0.47228 0.7677 0.0
H2486 H 0.76895 0.69264 0.15716 0.0
H2487 H 0.79977 0.65834 0.13087 0.0
H2488 H 0.85315 0.64171 0.20715 0.0
H2489 H 0.82136 0.67387 0.23361 0.0
H2490 H 0.88535 0.66976 0.14897 0.0
H2491 H 0.82485 0.58571 0.197 0.0
H2492 H 0.77533 0.55879 0.21191 0.0
H2493 H 0.74669 0.54828 0.12442 0.0
H2494 H 0.79588 0.5758 0.10903 0.0
H2495 H 0.97937 0.56082 0.08122 0.0
H2496 H 0.95289 0.58745 0.11802 0.0
H2497 H 0.8692 0.57942 0.06683 0.0
H2498 H 0.89455 0.55369 0.031 0.0
H2499 H 0.85667 0.56221 0.11942 0.0
H2500 H 0.91753 0.64676 0.0711 0.0
H2501 H 0.96557 0.67682 0.05633 0.0
H2502 H 0.99376 0.688 0.14381 0.0
H2503 H 0.9461 0.65757 0.15912 0.0
C2504 C 0.78593 0.68007 0.1686 0.0
C2505 C 0.79215 0.68521 0.19762 0.0
C2506 C 0.80408 0.66118 0.15347 0.0
C2507 C 0.82914 0.64804 0.16703 0.0
C2508 C 0.83407 0.65171 0.19627 0.0
C2509 C 0.81537 0.6695 0.21148 0.0
C2510 C 0.85078 0.63108 0.15073 0.0
C2511 C 0.87935 0.64611 0.1427 0.0
C2512 C 0.84302 0.60032 0.14282 0.0
C2513 C 0.81382 0.58312 0.15189 0.0
C2514 C 0.80785 0.57794 0.18096 0.0
C2515 C 0.77988 0.56254 0.1895 0.0
C2516 C 0.75783 0.55192 0.16913 0.0
C2517 C 0.76377 0.55659 0.14018 0.0
C2518 C 0.79169 0.57208 0.13153 0.0
C2519 C 0.95548 0.56495 0.07781 0.0
C2520 C 0.93957 0.55526 0.05271 0.0
C2521 C 0.94029 0.58016 0.09887 0.0
C2522 C 0.90891 0.58551 0.09521 0.0
C2523 C 0.89326 0.57557 0.07038 0.0
C2524 C 0.90817 0.56082 0.04964 0.0
C2525 C 0.89122 0.60102 0.11663 0.0
C2526 C 0.86315 0.58572 0.12585 0.0
C2527 C 0.89962 0.63158 0.12554 0.0
C2528 C 0.92845 0.64947 0.11625 0.0
C2529 C 0.93414 0.65529 0.08719 0.0
C2530 C 0.96127 0.67247 0.07872 0.0
C2531 C 0.98273 0.68422 0.09913 0.0
C2532 C 0.97714 0.6788 0.12804 0.0
C2533 C 0.95009 0.66158 0.13662 0.0
H2534 H 0.00359 0.69767 0.09258 0.0
H2535 H 0.73617 0.54 0.17578 0.0
H2536 H 0.89526 0.5764 0.52063 0.0
H2537 H 0.873 0.60807 0.55414 0.0
H2538 H 0.95884 0.61771 0.60212 0.0
H2539 H 0.98113 0.58293 0.56921 0.0
H2540 H 0.9089 0.6099 0.63692 0.0
H2541 H 0.93458 0.67859 0.55529 0.0
H2542 H 0.93459 0.6909 0.50373 0.0
H2543 H 0.83558 0.67825 0.5006 0.0
H2544 H 0.83499 0.66578 0.55206 0.0
H2545 H 0.84178 0.72806 0.71327 0.0
H2546 H 0.87789 0.70346 0.6836 0.0
H2547 H 0.80326 0.67644 0.62491 0.0
H2548 H 0.76725 0.70034 0.65478 0.0
H2549 H 0.8551 0.69798 0.5976 0.0
H2550 H 0.82504 0.62563 0.67179 0.0
H2551 H 0.81783 0.60387 0.72036 0.0
H2552 H 0.91576 0.61445 0.73587 0.0
H2553 H 0.92356 0.6367 0.68746 0.0
C2554 C 0.90992 0.58525 0.53804 0.0
C2555 C 0.94053 0.57743 0.54165 0.0
C2556 C 0.89697 0.6037 0.55726 0.0
C2557 C 0.91444 0.61637 0.58015 0.0
C2558 C 0.94502 0.60867 0.58426 0.0
C2559 C 0.95793 0.58919 0.56521 0.0
C2560 C 0.89998 0.63739 0.59937 0.0
C2561 C 0.89794 0.62977 0.62855 0.0
C2562 C 0.8844 0.66249 0.58824 0.0
C2563 C 0.88478 0.67138 0.55753 0.0
C2564 C 0.91283 0.67856 0.5436 0.0
C2565 C 0.91293 0.68551 0.51439 0.0
C2566 C 0.88511 0.68539 0.49891 0.0
C2567 C 0.85711 0.67845 0.51262 0.0
C2568 C 0.85688 0.67159 0.54183 0.0
C2569 C 0.83345 0.71794 0.69342 0.0
C2570 C 0.80194 0.7168 0.68581 0.0
C2571 C 0.85392 0.70335 0.67682 0.0
C2572 C 0.84319 0.68775 0.65224 0.0
C2573 C 0.81206 0.68828 0.6438 0.0
C2574 C 0.79157 0.70231 0.66061 0.0
C2575 C 0.86399 0.6706 0.63516 0.0
C2576 C 0.86697 0.67883 0.60629 0.0
C2577 C 0.87954 0.64557 0.64651 0.0
C2578 C 0.87485 0.63348 0.67612 0.0
C2579 C 0.84502 0.62386 0.68569 0.0
C2580 C 0.84083 0.61126 0.71316 0.0
C2581 C 0.8663 0.60794 0.73124 0.0
C2582 C 0.89603 0.61717 0.72188 0.0
C2583 C 0.90035 0.62979 0.69442 0.0
H2584 H 0.86302 0.59809 0.75246 0.0
H2585 H 0.88525 0.69065 0.47628 0.0
H2586 H 0.43988 0.50629 0.41504 0.0
H2587 H 0.39784 0.52307 0.38409 0.0
H2588 H 0.37401 0.58381 0.44998 0.0
H2589 H 0.4123 0.56408 0.4812 0.0
H2590 H 0.33057 0.58119 0.42245 0.0
H2591 H 0.43466 0.59998 0.39354 0.0
H2592 H 0.48617 0.58862 0.37828 0.0
H2593 H 0.44581 0.5461 0.30319 0.0
H2594 H 0.39396 0.55673 0.31831 0.0
H2595 H 0.31542 0.72029 0.33903 0.0
H2596 H 0.33619 0.6806 0.36998 0.0
H2597 H 0.31236 0.61264 0.30604 0.0
H2598 H 0.29336 0.653 0.27433 0.0
H2599 H 0.37303 0.61318 0.32832 0.0
H2600 H 0.26988 0.62691 0.36847 0.0
H2601 H 0.23775 0.66232 0.3915 0.0
H2602 H 0.30438 0.67486 0.45975 0.0
H2603 H 0.33743 0.6402 0.43685 0.0
C2604 C 0.42429 0.52183 0.42316 0.0
C2605 C 0.42964 0.53476 0.44998 0.0
C2606 C 0.40071 0.53198 0.40535 0.0
C2607 C 0.38378 0.55626 0.41382 0.0
C2608 C 0.38664 0.56554 0.44223 0.0
C2609 C 0.40889 0.55438 0.46023 0.0
C2610 C 0.36687 0.57541 0.39297 0.0
C2611 C 0.34024 0.58813 0.40198 0.0
C2612 C 0.37935 0.58546 0.36628 0.0
C2613 C 0.41039 0.57858 0.35731 0.0
C2614 C 0.43676 0.58795 0.3739 0.0
C2615 C 0.46601 0.58165 0.36529 0.0
C2616 C 0.46924 0.5665 0.33986 0.0
C2617 C 0.44324 0.55767 0.32297 0.0
C2618 C 0.41391 0.56375 0.33158 0.0
C2619 C 0.31399 0.69666 0.33202 0.0
C2620 C 0.30217 0.68918 0.30487 0.0
C2621 C 0.32592 0.67412 0.34957 0.0
C2622 C 0.32518 0.64358 0.34052 0.0
C2623 C 0.31278 0.63603 0.31348 0.0
C2624 C 0.30157 0.65882 0.29561 0.0
C2625 C 0.33825 0.61961 0.35876 0.0
C2626 C 0.36365 0.60579 0.34883 0.0
C2627 C 0.32742 0.61185 0.38637 0.0
C2628 C 0.306 0.63062 0.40098 0.0
C2629 C 0.27753 0.63689 0.38853 0.0
C2630 C 0.25926 0.65706 0.40148 0.0
C2631 C 0.26884 0.67069 0.42713 0.0
C2632 C 0.29683 0.66417 0.43995 0.0
C2633 C 0.31538 0.64428 0.42698 0.0
H2634 H 0.25463 0.68638 0.43699 0.0
H2635 H 0.49191 0.56171 0.33318 0.0
H2636 H 0.13849 0.29428 0.7881 0.0
H2637 H 0.11657 0.33184 0.81581 0.0
H2638 H 0.20565 0.3834 0.82422 0.0
H2639 H 0.2289 0.34402 0.79697 0.0
H2640 H 0.17712 0.37789 0.87394 0.0
H2641 H 0.14442 0.41011 0.77998 0.0
H2642 H 0.12174 0.40262 0.7318 0.0
H2643 H 0.0362 0.36486 0.76763 0.0
H2644 H 0.05839 0.37198 0.81601 0.0
H2645 H 0.11353 0.50464 0.93131 0.0
H2646 H 0.13663 0.47201 0.89819 0.0
H2647 H 0.05422 0.40903 0.89836 0.0
H2648 H 0.03098 0.44148 0.9325 0.0
H2649 H 0.0802 0.42234 0.84343 0.0
H2650 H 0.11142 0.38741 0.93588 0.0
H2651 H 0.13301 0.39051 0.98478 0.0
H2652 H 0.21988 0.42979 0.95274 0.0
H2653 H 0.19872 0.42719 0.90364 0.0
C2654 C 0.15385 0.31354 0.79552 0.0
C2655 C 0.18576 0.3159 0.79018 0.0
C2656 C 0.14093 0.33538 0.81124 0.0
C2657 C 0.15914 0.36097 0.82153 0.0
C2658 C 0.19104 0.36393 0.81616 0.0
C2659 C 0.20429 0.34154 0.80052 0.0
C2660 C 0.14455 0.38309 0.83936 0.0
C2661 C 0.15641 0.38829 0.86699 0.0
C2662 C 0.11663 0.39551 0.83077 0.0
C2663 C 0.10312 0.39154 0.80163 0.0
C2664 C 0.12081 0.40013 0.77758 0.0
C2665 C 0.10802 0.39597 0.75024 0.0
C2666 C 0.07756 0.38326 0.74666 0.0
C2667 C 0.05978 0.37476 0.77043 0.0
C2668 C 0.07241 0.37895 0.79781 0.0
C2669 C 0.09999 0.48409 0.92407 0.0
C2670 C 0.07032 0.47566 0.93467 0.0
C2671 C 0.1134 0.46536 0.90526 0.0
C2672 C 0.09742 0.43784 0.8963 0.0
C2673 C 0.06701 0.43015 0.90526 0.0
C2674 C 0.05358 0.44887 0.92448 0.0
C2675 C 0.113 0.41731 0.87778 0.0
C2676 C 0.1012 0.41232 0.85016 0.0
C2677 C 0.14083 0.4049 0.88645 0.0
C2678 C 0.15333 0.40748 0.91606 0.0
C2679 C 0.135 0.3971 0.93926 0.0
C2680 C 0.1472 0.39864 0.96703 0.0
C2681 C 0.17776 0.41044 0.97187 0.0
C2682 C 0.19619 0.42071 0.94896 0.0
C2683 C 0.18411 0.41917 0.92116 0.0
H2684 H 0.18719 0.41155 -0.00664 0.0
H2685 H 0.06773 0.38002 0.72548 0.0
H2686 H 0.17115 0.3144 0.28919 0.0
H2687 H 0.13671 0.33997 0.3197 0.0
H2688 H 0.2045 0.33964 0.38808 0.0
H2689 H 0.23935 0.31513 0.35719 0.0
H2690 H 0.14551 0.32167 0.40561 0.0
H2691 H 0.19954 0.40112 0.35309 0.0
H2692 H 0.22079 0.43549 0.31457 0.0
H2693 H 0.12943 0.45556 0.28865 0.0
H2694 H 0.10739 0.42011 0.32613 0.0
H2695 H 0.09931 0.43483 0.49601 0.0
H2696 H 0.12411 0.40166 0.46478 0.0
H2697 H 0.0539 0.41364 0.4001 0.0
H2698 H 0.02949 0.44849 0.43133 0.0
H2699 H 0.11167 0.42468 0.37946 0.0
H2700 H 0.06101 0.34106 0.43799 0.0
H2701 H 0.04787 0.31548 0.48416 0.0
H2702 H 0.14416 0.31351 0.50549 0.0
H2703 H 0.15786 0.33919 0.45954 0.0
C2704 C 0.17812 0.31876 0.3111 0.0
C2705 C 0.20738 0.31185 0.32127 0.0
C2706 C 0.15875 0.33394 0.32828 0.0
C2707 C 0.16819 0.34203 0.35604 0.0
C2708 C 0.19679 0.33366 0.36669 0.0
C2709 C 0.21645 0.31919 0.34928 0.0
C2710 C 0.14809 0.35869 0.37424 0.0
C2711 C 0.13812 0.3442 0.3998 0.0
C2712 C 0.13864 0.38829 0.36674 0.0
C2713 C 0.15167 0.40719 0.3422 0.0
C2714 C 0.18382 0.412 0.33868 0.0
C2715 C 0.19606 0.43187 0.31707 0.0
C2716 C 0.17647 0.44753 0.29904 0.0
C2717 C 0.14458 0.44325 0.30251 0.0
C2718 C 0.13218 0.42306 0.3238 0.0
C2719 C 0.08858 0.42977 0.47543 0.0
C2720 C 0.06233 0.44414 0.46619 0.0
C2721 C 0.10279 0.41063 0.45756 0.0
C2722 C 0.09077 0.40472 0.43013 0.0
C2723 C 0.06352 0.41772 0.42126 0.0
C2724 C 0.04929 0.43724 0.43923 0.0
C2725 C 0.10836 0.38717 0.41026 0.0
C2726 C 0.11827 0.40169 0.3846 0.0
C2727 C 0.11877 0.35813 0.41804 0.0
C2728 C 0.11042 0.34204 0.44535 0.0
C2729 C 0.07936 0.33519 0.45255 0.0
C2730 C 0.07182 0.32067 0.47868 0.0
C2731 C 0.09516 0.31287 0.49774 0.0
C2732 C 0.1261 0.31948 0.49069 0.0
C2733 C 0.13376 0.33392 0.46457 0.0
H2734 H 0.08928 0.3017 0.51798 0.0
H2735 H 0.186 0.46312 0.28251 0.0
loop_
_geom_bond_atom_site_label_1
_geom_bond_atom_site_label_2
_geom_bond_distance
_geom_bond_site_symmetry_2
_ccdc_geom_bond_type
O0 Mn1 2.163 1_656 S
O0 C14 1.244 . S
Mn1 O0 2.163 1_454 S
Mn1 O4 2.160 . S
Mn1 O5 2.221 1_445 S
Mn1 O7 2.163 1_544 S
Mn1 O9 2.160 1_455 S
Mn1 O19 2.214 1_554 S
O2 Mn3 2.087 1_655 S
O2 C14 1.256 . S
Mn3 O2 2.087 1_455 S
Mn3 O10 2.089 1_456 S
Mn3 O19 2.292 . S
Mn3 O20 2.251 . S
O4 Mn1 2.160 . S
O4 C15 1.239 1_545 S
O5 Mn1 2.221 1_665 S
O5 Mn6 2.290 1_655 S
O5 C16 1.278 . S
Mn6 O5 2.290 1_455 S
Mn6 O8 2.089 . S
Mn6 O11 2.251 1_455 S
Mn6 O12 2.087 1_554 S
O7 Mn1 2.163 1_566 S
O7 C17 1.244 . S
O8 Mn6 2.089 . S
O8 C15 1.256 . S
O9 Mn1 2.160 1_655 S
O9 C18 1.239 . S
O10 Mn3 2.089 1_654 S
O10 C18 1.256 . S
O11 Mn6 2.251 1_655 S
O11 C16 1.241 . S
O12 Mn6 2.087 1_556 S
O12 C17 1.256 . S
C13 O19 1.295 . S
C13 O20 1.241 . S
C14 O0 1.244 . S
C14 O2 1.256 . S
C15 O4 1.239 1_565 S
C15 O8 1.256 . S
C16 O5 1.278 . S
C16 O11 1.241 . S
C17 O7 1.244 . S
C17 O12 1.256 . S
C18 O9 1.239 . S
C18 O10 1.256 . S
O19 Mn1 2.214 1_556 S
O19 Mn3 2.292 . S
O19 C13 1.295 . S
O20 Mn3 2.251 . S
O20 C13 1.241 . S
O21 Mn22 2.163 . S
O21 C35 1.244 . S
Mn22 O21 2.163 . S
Mn22 O25 2.160 . S
Mn22 O26 2.221 . S
Mn22 O28 2.163 . S
Mn22 O30 2.160 . S
Mn22 O40 2.221 . S
O23 Mn24 2.087 . S
O23 C35 1.256 . S
Mn24 O23 2.087 . S
Mn24 O31 2.089 . S
Mn24 O40 2.290 . S
Mn24 O41 2.251 . S
O25 Mn22 2.160 . S
O25 C36 1.239 . S
O26 Mn22 2.221 . S
O26 Mn27 2.290 . S
O26 C37 1.278 . S
Mn27 O26 2.290 . S
Mn27 O29 2.089 . S
Mn27 O32 2.251 . S
Mn27 O33 2.087 . S
O28 Mn22 2.163 . S
O28 C38 1.244 . S
O29 Mn27 2.089 . S
O29 C36 1.256 . S
O30 Mn22 2.160 . S
O30 C39 1.239 . S
O31 Mn24 2.089 . S
O31 C39 1.256 . S
O32 Mn27 2.251 . S
O32 C37 1.241 . S
O33 Mn27 2.087 . S
O33 C38 1.256 . S
C34 O40 1.278 . S
C34 O41 1.241 . S
C35 O21 1.244 . S
C35 O23 1.256 . S
C36 O25 1.239 . S
C36 O29 1.256 . S
C37 O26 1.278 . S
C37 O32 1.241 . S
C38 O28 1.244 . S
C38 O33 1.256 . S
C39 O30 1.239 . S
C39 O31 1.256 . S
O40 Mn22 2.221 . S
O40 Mn24 2.290 . S
O40 C34 1.278 . S
O41 Mn24 2.251 . S
O41 C34 1.241 . S
O42 Mn43 2.163 1_565 S
O42 C56 1.244 . S
Mn43 O42 2.163 1_545 S
Mn43 O46 2.160 . S
Mn43 O47 2.221 1_545 S
Mn43 O49 2.163 . S
Mn43 O51 2.160 1_545 S
Mn43 O61 2.221 . S
O44 Mn45 2.087 1_565 S
O44 C56 1.256 . S
Mn45 O44 2.087 1_545 S
Mn45 O52 2.089 1_545 S
Mn45 O61 2.290 . S
Mn45 O62 2.251 . S
O46 Mn43 2.160 . S
O46 C57 1.239 . S
O47 Mn43 2.221 1_565 S
O47 Mn48 2.290 1_565 S
O47 C58 1.278 . S
Mn48 O47 2.290 1_545 S
Mn48 O50 2.089 . S
Mn48 O53 2.251 1_545 S
Mn48 O54 2.087 . S
O49 Mn43 2.163 . S
O49 C59 1.244 . S
O50 Mn48 2.089 . S
O50 C57 1.256 . S
O51 Mn43 2.160 1_565 S
O51 C60 1.239 . S
O52 Mn45 2.089 1_565 S
O52 C60 1.256 . S
O53 Mn48 2.251 1_565 S
O53 C58 1.241 . S
O54 Mn48 2.087 . S
O54 C59 1.256 . S
C55 O61 1.278 . S
C55 O62 1.241 . S
C56 O42 1.244 . S
C56 O44 1.256 . S
C57 O46 1.239 . S
C57 O50 1.256 . S
C58 O47 1.278 . S
C58 O53 1.241 . S
C59 O49 1.244 . S
C59 O54 1.256 . S
C60 O51 1.239 . S
C60 O52 1.256 . S
O61 Mn43 2.221 . S
O61 Mn45 2.290 . S
O61 C55 1.278 . S
O62 Mn45 2.251 . S
O62 C55 1.241 . S
O63 Mn64 2.163 . S
O63 C77 1.244 . S
Mn64 O63 2.163 . S
Mn64 O67 2.160 . S
Mn64 O68 2.221 . S
Mn64 O70 2.163 . S
Mn64 O72 2.160 . S
Mn64 O82 2.221 . S
O65 Mn66 2.087 . S
O65 C77 1.256 . S
Mn66 O65 2.087 . S
Mn66 O73 2.089 . S
Mn66 O82 2.290 . S
Mn66 O83 2.251 . S
O67 Mn64 2.160 . S
O67 C78 1.239 . S
O68 Mn64 2.221 . S
O68 Mn69 2.290 . S
O68 C79 1.278 . S
Mn69 O68 2.290 . S
Mn69 O71 2.089 . S
Mn69 O74 2.251 . S
Mn69 O75 2.087 . S
O70 Mn64 2.163 . S
O70 C80 1.244 . S
O71 Mn69 2.089 . S
O71 C78 1.256 . S
O72 Mn64 2.160 . S
O72 C81 1.239 . S
O73 Mn66 2.089 . S
O73 C81 1.256 . S
O74 Mn69 2.251 . S
O74 C79 1.241 . S
O75 Mn69 2.087 . S
O75 C80 1.256 . S
C76 O82 1.278 . S
C76 O83 1.241 . S
C77 O63 1.244 . S
C77 O65 1.256 . S
C78 O67 1.239 . S
C78 O71 1.256 . S
C79 O68 1.278 . S
C79 O74 1.241 . S
C80 O70 1.244 . S
C80 O75 1.256 . S
C81 O72 1.239 . S
C81 O73 1.256 . S
O82 Mn64 2.221 . S
O82 Mn66 2.290 . S
O82 C76 1.278 . S
O83 Mn66 2.251 . S
O83 C76 1.241 . S
O84 Mn85 2.163 1_545 S
O84 C98 1.244 . S
Mn85 O84 2.163 1_565 S
Mn85 O88 2.160 1_455 S
Mn85 O89 2.221 1_455 S
Mn85 O91 2.163 1_465 S
Mn85 O93 2.160 . S
Mn85 O103 2.221 1_565 S
O86 Mn87 2.087 . S
O86 C98 1.256 . S
Mn87 O86 2.087 . S
Mn87 O94 2.089 1_545 S
Mn87 O103 2.290 . S
Mn87 O104 2.251 . S
O88 Mn85 2.160 1_655 S
O88 C99 1.239 . S
O89 Mn85 2.221 1_655 S
O89 Mn90 2.290 . S
O89 C100 1.278 . S
Mn90 O89 2.290 . S
Mn90 O92 2.089 . S
Mn90 O95 2.251 . S
Mn90 O96 2.087 1_565 S
O91 Mn85 2.163 1_645 S
O91 C101 1.244 . S
O92 Mn90 2.089 . S
O92 C99 1.256 . S
O93 Mn85 2.160 . S
O93 C102 1.239 . S
O94 Mn87 2.089 1_565 S
O94 C102 1.256 . S
O95 Mn90 2.251 . S
O95 C100 1.241 . S
O96 Mn90 2.087 1_545 S
O96 C101 1.256 . S
C97 O103 1.278 . S
C97 O104 1.241 . S
C98 O84 1.244 . S
C98 O86 1.256 . S
C99 O88 1.239 . S
C99 O92 1.256 . S
C100 O89 1.278 . S
C100 O95 1.241 . S
C101 O91 1.244 . S
C101 O96 1.256 . S
C102 O93 1.239 . S
C102 O94 1.256 . S
O103 Mn85 2.221 1_545 S
O103 Mn87 2.290 . S
O103 C97 1.278 . S
O104 Mn87 2.251 . S
O104 C97 1.241 . S
O105 Mn106 2.163 . S
O105 C119 1.244 . S
Mn106 O105 2.163 . S
Mn106 O109 2.160 . S
Mn106 O110 2.221 . S
Mn106 O112 2.163 . S
Mn106 O114 2.160 . S
Mn106 O124 2.221 . S
O107 Mn108 2.087 . S
O107 C119 1.256 . S
Mn108 O107 2.087 . S
Mn108 O115 2.089 . S
Mn108 O124 2.290 . S
Mn108 O125 2.251 . S
O109 Mn106 2.160 . S
O109 C120 1.239 . S
O110 Mn106 2.221 . S
O110 Mn111 2.290 . S
O110 C121 1.278 . S
Mn111 O110 2.290 . S
Mn111 O113 2.089 . S
Mn111 O116 2.251 . S
Mn111 O117 2.087 . S
O112 Mn106 2.163 . S
O112 C122 1.244 . S
O113 Mn111 2.089 . S
O113 C120 1.256 . S
O114 Mn106 2.160 . S
O114 C123 1.239 . S
O115 Mn108 2.089 . S
O115 C123 1.256 . S
O116 Mn111 2.251 . S
O116 C121 1.241 . S
O117 Mn111 2.087 . S
O117 C122 1.256 . S
C118 O124 1.278 . S
C118 O125 1.241 . S
C119 O105 1.244 . S
C119 O107 1.256 . S
C120 O109 1.239 . S
C120 O113 1.256 . S
C121 O110 1.278 . S
C121 O116 1.241 . S
C122 O112 1.244 . S
C122 O117 1.256 . S
C123 O114 1.239 . S
C123 O115 1.256 . S
O124 Mn106 2.221 . S
O124 Mn108 2.290 . S
O124 C118 1.278 . S
O125 Mn108 2.251 . S
O125 C118 1.241 . S
O126 Mn127 2.163 1_565 S
O126 C140 1.244 . S
Mn127 O126 2.163 1_545 S
Mn127 O130 2.160 1_554 S
Mn127 O131 2.221 . S
Mn127 O133 2.163 1_544 S
Mn127 O135 2.160 . S
Mn127 O145 2.221 1_554 S
O128 Mn129 2.087 . S
O128 C140 1.256 . S
Mn129 O128 2.087 . S
Mn129 O136 2.089 1_565 S
Mn129 O145 2.290 1_564 S
Mn129 O146 2.251 1_554 S
O130 Mn127 2.160 1_556 S
O130 C141 1.239 . S
O131 Mn127 2.221 . S
O131 Mn132 2.290 . S
O131 C142 1.278 . S
Mn132 O131 2.290 . S
Mn132 O134 2.089 1_554 S
Mn132 O137 2.251 . S
Mn132 O138 2.087 1_545 S
O133 Mn127 2.163 1_566 S
O133 C143 1.244 . S
O134 Mn132 2.089 1_556 S
O134 C141 1.256 . S
O135 Mn127 2.160 . S
O135 C144 1.239 . S
O136 Mn129 2.089 1_545 S
O136 C144 1.256 . S
O137 Mn132 2.251 . S
O137 C142 1.241 . S
O138 Mn132 2.087 1_565 S
O138 C143 1.256 1_554 S
C139 O145 1.278 1_565 S
C139 O146 1.241 . S
C140 O126 1.244 . S
C140 O128 1.256 . S
C141 O130 1.239 . S
C141 O134 1.256 . S
C142 O131 1.278 . S
C142 O137 1.241 . S
C143 O133 1.244 . S
C143 O138 1.256 1_556 S
C144 O135 1.239 . S
C144 O136 1.256 . S
O145 Mn127 2.221 1_556 S
O145 Mn129 2.290 1_546 S
O145 C139 1.278 1_545 S
O146 Mn129 2.251 1_556 S
O146 C139 1.241 . S
O147 Mn148 2.163 . S
O147 C161 1.244 . S
Mn148 O147 2.163 . S
Mn148 O151 2.160 . S
Mn148 O152 2.221 . S
Mn148 O154 2.163 . S
Mn148 O156 2.160 . S
Mn148 O166 2.221 . S
O149 Mn150 2.087 . S
O149 C161 1.256 . S
Mn150 O149 2.087 . S
Mn150 O157 2.089 . S
Mn150 O166 2.290 . S
Mn150 O167 2.251 . S
O151 Mn148 2.160 . S
O151 C162 1.239 . S
O152 Mn148 2.221 . S
O152 Mn153 2.290 . S
O152 C163 1.278 . S
Mn153 O152 2.290 . S
Mn153 O155 2.089 . S
Mn153 O158 2.251 . S
Mn153 O159 2.087 . S
O154 Mn148 2.163 . S
O154 C164 1.244 . S
O155 Mn153 2.089 . S
O155 C162 1.256 . S
O156 Mn148 2.160 . S
O156 C165 1.239 . S
O157 Mn150 2.089 . S
O157 C165 1.256 . S
O158 Mn153 2.251 . S
O158 C163 1.241 . S
O159 Mn153 2.087 . S
O159 C164 1.256 . S
C160 O166 1.278 . S
C160 O167 1.241 . S
C161 O147 1.244 . S
C161 O149 1.256 . S
C162 O151 1.239 . S
C162 O155 1.256 . S
C163 O152 1.278 . S
C163 O158 1.241 . S
C164 O154 1.244 . S
C164 O159 1.256 . S
C165 O156 1.239 . S
C165 O157 1.256 . S
O166 Mn148 2.221 . S
O166 Mn150 2.290 . S
O166 C160 1.278 . S
O167 Mn150 2.251 . S
O167 C160 1.241 . S
O168 Mn169 2.163 1_554 S
O168 C182 1.244 . S
Mn169 O168 2.163 1_556 S
Mn169 O172 2.160 . S
Mn169 O173 2.221 1_556 S
Mn169 O175 2.163 . S
Mn169 O177 2.160 1_556 S
Mn169 O187 2.221 . S
O170 Mn171 2.087 . S
O170 C182 1.256 . S
Mn171 O170 2.087 . S
Mn171 O178 2.089 . S
Mn171 O187 2.290 1_554 S
Mn171 O188 2.251 1_554 S
O172 Mn169 2.160 . S
O172 C183 1.239 . S
O173 Mn169 2.221 1_554 S
O173 Mn174 2.290 1_554 S
O173 C184 1.278 . S
Mn174 O173 2.290 1_556 S
Mn174 O176 2.089 . S
Mn174 O179 2.251 1_556 S
Mn174 O180 2.087 . S
O175 Mn169 2.163 . S
O175 C185 1.244 . S
O176 Mn174 2.089 . S
O176 C183 1.256 . S
O177 Mn169 2.160 1_554 S
O177 C186 1.239 . S
O178 Mn171 2.089 . S
O178 C186 1.256 . S
O179 Mn174 2.251 1_554 S
O179 C184 1.241 . S
O180 Mn174 2.087 . S
O180 C185 1.256 . S
C181 O187 1.278 . S
C181 O188 1.241 . S
C182 O168 1.244 . S
C182 O170 1.256 . S
C183 O172 1.239 . S
C183 O176 1.256 . S
C184 O173 1.278 . S
C184 O179 1.241 . S
C185 O175 1.244 . S
C185 O180 1.256 . S
C186 O177 1.239 . S
C186 O178 1.256 . S
O187 Mn169 2.221 . S
O187 Mn171 2.290 1_556 S
O187 C181 1.278 . S
O188 Mn171 2.251 1_556 S
O188 C181 1.241 . S
O189 Mn190 2.163 . S
O189 C203 1.244 . S
Mn190 O189 2.163 . S
Mn190 O193 2.160 . S
Mn190 O194 2.221 . S
Mn190 O196 2.163 . S
Mn190 O198 2.160 . S
Mn190 O208 2.221 . S
O191 Mn192 2.087 . S
O191 C203 1.256 . S
Mn192 O191 2.087 . S
Mn192 O199 2.089 . S
Mn192 O208 2.290 . S
Mn192 O209 2.251 . S
O193 Mn190 2.160 . S
O193 C204 1.239 . S
O194 Mn190 2.221 . S
O194 Mn195 2.290 . S
O194 C205 1.278 . S
Mn195 O194 2.290 . S
Mn195 O197 2.089 . S
Mn195 O200 2.251 . S
Mn195 O201 2.087 . S
O196 Mn190 2.163 . S
O196 C206 1.244 . S
O197 Mn195 2.089 . S
O197 C204 1.256 . S
O198 Mn190 2.160 . S
O198 C207 1.239 . S
O199 Mn192 2.089 . S
O199 C207 1.256 . S
O200 Mn195 2.251 . S
O200 C205 1.241 . S
O201 Mn195 2.087 . S
O201 C206 1.256 . S
C202 O208 1.278 . S
C202 O209 1.241 . S
C203 O189 1.244 . S
C203 O191 1.256 . S
C204 O193 1.239 . S
C204 O197 1.256 . S
C205 O194 1.278 . S
C205 O200 1.241 . S
C206 O196 1.244 . S
C206 O201 1.256 . S
C207 O198 1.239 . S
C207 O199 1.256 . S
O208 Mn190 2.221 . S
O208 Mn192 2.290 . S
O208 C202 1.278 . S
O209 Mn192 2.251 . S
O209 C202 1.241 . S
O210 Mn211 2.163 1_655 S
O210 C224 1.244 . S
Mn211 O210 2.163 1_455 S
Mn211 O214 2.160 . S
Mn211 O215 2.221 . S
Mn211 O217 2.163 . S
Mn211 O219 2.160 1_455 S
Mn211 O229 2.221 1_455 S
O212 Mn213 2.087 . S
O212 C224 1.256 . S
Mn213 O212 2.087 . S
Mn213 O220 2.089 . S
Mn213 O229 2.290 . S
Mn213 O230 2.251 . S
O214 Mn211 2.160 . S
O214 C225 1.239 . S
O215 Mn211 2.221 . S
O215 Mn216 2.290 . S
O215 C226 1.278 . S
Mn216 O215 2.290 . S
Mn216 O218 2.089 . S
Mn216 O221 2.251 . S
Mn216 O222 2.087 . S
O217 Mn211 2.163 . S
O217 C227 1.244 . S
O218 Mn216 2.089 . S
O218 C225 1.256 . S
O219 Mn211 2.160 1_655 S
O219 C228 1.239 . S
O220 Mn213 2.089 . S
O220 C228 1.256 . S
O221 Mn216 2.251 . S
O221 C226 1.241 . S
O222 Mn216 2.087 . S
O222 C227 1.256 . S
C223 O229 1.278 . S
C223 O230 1.241 . S
C224 O210 1.244 . S
C224 O212 1.256 . S
C225 O214 1.239 . S
C225 O218 1.256 . S
C226 O215 1.278 . S
C226 O221 1.241 . S
C227 O217 1.244 . S
C227 O222 1.256 . S
C228 O219 1.239 . S
C228 O220 1.256 . S
O229 Mn211 2.221 1_655 S
O229 Mn213 2.290 . S
O229 C223 1.278 . S
O230 Mn213 2.251 . S
O230 C223 1.241 . S
O231 Mn232 2.163 . S
O231 C245 1.244 . S
Mn232 O231 2.163 . S
Mn232 O235 2.160 . S
Mn232 O236 2.221 . S
Mn232 O238 2.163 . S
Mn232 O240 2.160 . S
Mn232 O250 2.221 . S
O233 Mn234 2.087 . S
O233 C245 1.256 . S
Mn234 O233 2.087 . S
Mn234 O241 2.089 . S
Mn234 O250 2.290 . S
Mn234 O251 2.251 . S
O235 Mn232 2.160 . S
O235 C246 1.239 . S
O236 Mn232 2.221 . S
O236 Mn237 2.290 . S
O236 C247 1.278 . S
Mn237 O236 2.290 . S
Mn237 O239 2.089 . S
Mn237 O242 2.251 . S
Mn237 O243 2.087 . S
O238 Mn232 2.163 . S
O238 C248 1.244 . S
O239 Mn237 2.089 . S
O239 C246 1.256 . S
O240 Mn232 2.160 . S
O240 C249 1.239 . S
O241 Mn234 2.089 . S
O241 C249 1.256 . S
O242 Mn237 2.251 . S
O242 C247 1.241 . S
O243 Mn237 2.087 . S
O243 C248 1.256 . S
C244 O250 1.278 . S
C244 O251 1.241 . S
C245 O231 1.244 . S
C245 O233 1.256 . S
C246 O235 1.239 . S
C246 O239 1.256 . S
C247 O236 1.278 . S
C247 O242 1.241 . S
C248 O238 1.244 . S
C248 O243 1.256 . S
C249 O240 1.239 . S
C249 O241 1.256 . S
O250 Mn232 2.221 . S
O250 Mn234 2.290 . S
O250 C244 1.278 . S
O251 Mn234 2.251 . S
O251 C244 1.241 . S
O252 Mn253 2.163 . S
O252 C266 1.244 . S
Mn253 O252 2.163 . S
Mn253 O256 2.160 . S
Mn253 O257 2.221 . S
Mn253 O259 2.163 . S
Mn253 O261 2.160 . S
Mn253 O271 2.221 . S
O254 Mn255 2.087 . S
O254 C266 1.256 . S
Mn255 O254 2.087 . S
Mn255 O262 2.089 . S
Mn255 O271 2.290 . S
Mn255 O272 2.251 . S
O256 Mn253 2.160 . S
O256 C267 1.239 . S
O257 Mn253 2.221 . S
O257 Mn258 2.290 . S
O257 C268 1.278 . S
Mn258 O257 2.290 . S
Mn258 O260 2.089 . S
Mn258 O263 2.251 . S
Mn258 O264 2.087 . S
O259 Mn253 2.163 . S
O259 C269 1.244 . S
O260 Mn258 2.089 . S
O260 C267 1.256 . S
O261 Mn253 2.160 . S
O261 C270 1.239 . S
O262 Mn255 2.089 . S
O262 C270 1.256 . S
O263 Mn258 2.251 . S
O263 C268 1.241 . S
O264 Mn258 2.087 . S
O264 C269 1.256 . S
C265 O271 1.278 . S
C265 O272 1.241 . S
C266 O252 1.244 . S
C266 O254 1.256 . S
C267 O256 1.239 . S
C267 O260 1.256 . S
C268 O257 1.278 . S
C268 O263 1.241 . S
C269 O259 1.244 . S
C269 O264 1.256 . S
C270 O261 1.239 . S
C270 O262 1.256 . S
O271 Mn253 2.221 . S
O271 Mn255 2.290 . S
O271 C265 1.278 . S
O272 Mn255 2.251 . S
O272 C265 1.241 . S
O273 Mn274 2.163 . S
O273 C287 1.244 . S
Mn274 O273 2.163 . S
Mn274 O277 2.160 . S
Mn274 O278 2.221 . S
Mn274 O280 2.163 . S
Mn274 O282 2.160 . S
Mn274 O292 2.221 . S
O275 Mn276 2.087 . S
O275 C287 1.256 . S
Mn276 O275 2.087 . S
Mn276 O283 2.089 . S
Mn276 O292 2.290 . S
Mn276 O293 2.251 . S
O277 Mn274 2.160 . S
O277 C288 1.239 . S
O278 Mn274 2.221 . S
O278 Mn279 2.290 . S
O278 C289 1.278 . S
Mn279 O278 2.290 . S
Mn279 O281 2.089 . S
Mn279 O284 2.251 . S
Mn279 O285 2.087 . S
O280 Mn274 2.163 . S
O280 C290 1.244 . S
O281 Mn279 2.089 . S
O281 C288 1.256 . S
O282 Mn274 2.160 . S
O282 C291 1.239 . S
O283 Mn276 2.089 . S
O283 C291 1.256 . S
O284 Mn279 2.251 . S
O284 C289 1.241 . S
O285 Mn279 2.087 . S
O285 C290 1.256 . S
C286 O292 1.278 . S
C286 O293 1.241 . S
C287 O273 1.244 . S
C287 O275 1.256 . S
C288 O277 1.239 . S
C288 O281 1.256 . S
C289 O278 1.278 . S
C289 O284 1.241 . S
C290 O280 1.244 . S
C290 O285 1.256 . S
C291 O282 1.239 . S
C291 O283 1.256 . S
O292 Mn274 2.221 . S
O292 Mn276 2.290 . S
O292 C286 1.278 . S
O293 Mn276 2.251 . S
O293 C286 1.241 . S
O294 Mn295 2.163 . S
O294 C308 1.244 . S
Mn295 O294 2.163 . S
Mn295 O298 2.160 . S
Mn295 O299 2.221 . S
Mn295 O301 2.163 . S
Mn295 O303 2.160 . S
Mn295 O313 2.221 . S
O296 Mn297 2.087 . S
O296 C308 1.256 . S
Mn297 O296 2.087 . S
Mn297 O304 2.089 . S
Mn297 O313 2.290 . S
Mn297 O314 2.251 . S
O298 Mn295 2.160 . S
O298 C309 1.239 . S
O299 Mn295 2.221 . S
O299 Mn300 2.290 . S
O299 C310 1.278 . S
Mn300 O299 2.290 . S
Mn300 O302 2.089 . S
Mn300 O305 2.251 . S
Mn300 O306 2.087 . S
O301 Mn295 2.163 . S
O301 C311 1.244 . S
O302 Mn300 2.089 . S
O302 C309 1.256 . S
O303 Mn295 2.160 . S
O303 C312 1.239 . S
O304 Mn297 2.089 . S
O304 C312 1.256 . S
O305 Mn300 2.251 . S
O305 C310 1.241 . S
O306 Mn300 2.087 . S
O306 C311 1.256 . S
C307 O313 1.278 . S
C307 O314 1.241 . S
C308 O294 1.244 . S
C308 O296 1.256 . S
C309 O298 1.239 . S
C309 O302 1.256 . S
C310 O299 1.278 . S
C310 O305 1.241 . S
C311 O301 1.244 . S
C311 O306 1.256 . S
C312 O303 1.239 . S
C312 O304 1.256 . S
O313 Mn295 2.221 . S
O313 Mn297 2.290 . S
O313 C307 1.278 . S
O314 Mn297 2.251 . S
O314 C307 1.241 . S
O315 Mn316 2.163 . S
O315 C329 1.244 . S
Mn316 O315 2.163 . S
Mn316 O319 2.160 1_454 S
Mn316 O320 2.221 1_454 S
Mn316 O322 2.163 1_455 S
Mn316 O324 2.160 1_554 S
Mn316 O334 2.221 . S
O317 Mn318 2.087 . S
O317 C329 1.256 . S
Mn318 O317 2.087 . S
Mn318 O325 2.089 1_554 S
Mn318 O334 2.290 . S
Mn318 O335 2.251 . S
O319 Mn316 2.160 1_656 S
O319 C330 1.239 . S
O320 Mn316 2.221 1_656 S
O320 Mn321 2.290 . S
O320 C331 1.278 . S
Mn321 O320 2.290 . S
Mn321 O323 2.089 . S
Mn321 O326 2.251 . S
Mn321 O327 2.087 1_556 S
O322 Mn316 2.163 1_655 S
O322 C332 1.244 . S
O323 Mn321 2.089 . S
O323 C330 1.256 . S
O324 Mn316 2.160 1_556 S
O324 C333 1.239 . S
O325 Mn318 2.089 1_556 S
O325 C333 1.256 . S
O326 Mn321 2.251 . S
O326 C331 1.241 . S
O327 Mn321 2.087 1_554 S
O327 C332 1.256 . S
C328 O334 1.278 . S
C328 O335 1.241 . S
C329 O315 1.244 . S
C329 O317 1.256 . S
C330 O319 1.239 . S
C330 O323 1.256 . S
C331 O320 1.278 . S
C331 O326 1.241 . S
C332 O322 1.244 . S
C332 O327 1.256 . S
C333 O324 1.239 . S
C333 O325 1.256 . S
O334 Mn316 2.221 . S
O334 Mn318 2.290 . S
O334 C328 1.278 . S
O335 Mn318 2.251 . S
O335 C328 1.241 . S
H336 C354 0.951 . S
H337 C356 0.951 . S
H338 C358 0.950 . S
H339 C359 0.950 . S
H340 C361 0.950 . S
H341 C364 0.950 . S
H342 C365 0.950 . S
H343 C367 0.950 . S
H344 C368 0.950 . S
H345 C369 0.951 . S
H346 C371 0.951 . S
H347 C373 0.950 . S
H348 C374 0.950 . S
H349 C376 0.950 . S
H350 C379 0.950 . S
H351 C380 0.950 1_554 S
H352 C382 0.950 1_554 S
H353 C383 0.950 . S
C354 H336 0.951 . S
C354 C355 1.366 . S
C354 C356 1.388 . S
C355 C354 1.366 . S
C355 C359 1.385 . S
C356 H337 0.951 . S
C356 C354 1.388 . S
C356 C357 1.366 . S
C357 C356 1.366 . S
C357 C358 1.414 . S
C357 C360 1.499 . S
C358 H338 0.950 . S
C358 C357 1.414 . S
C358 C359 1.374 . S
C359 H339 0.950 . S
C359 C355 1.385 . S
C359 C358 1.374 . S
C360 C357 1.499 . S
C360 C361 1.373 . S
C360 C362 1.389 . S
C361 H340 0.950 . S
C361 C360 1.373 . S
C361 C377 1.377 . S
C362 C360 1.389 . S
C362 C363 1.524 . S
C362 C376 1.377 . S
C363 C362 1.524 . S
C363 C364 1.397 . S
C363 C368 1.363 . S
C364 H341 0.950 . S
C364 C363 1.397 . S
C364 C365 1.334 . S
C365 H342 0.950 . S
C365 C364 1.334 . S
C365 C366 1.287 . S
C366 C365 1.287 . S
C366 C367 1.524 . S
C366 H385 0.913 . S
C367 H343 0.950 . S
C367 C366 1.524 . S
C367 C368 1.415 . S
C368 H344 0.950 . S
C368 C363 1.363 . S
C368 C367 1.415 . S
C369 H345 0.951 . S
C369 C370 1.366 . S
C369 C371 1.388 . S
C370 C369 1.366 . S
C370 C374 1.385 . S
C371 H346 0.951 . S
C371 C369 1.388 . S
C371 C372 1.366 . S
C372 C371 1.366 . S
C372 C373 1.414 . S
C372 C375 1.499 . S
C373 H347 0.950 . S
C373 C372 1.414 . S
C373 C374 1.374 . S
C374 H348 0.950 . S
C374 C370 1.385 . S
C374 C373 1.374 . S
C375 C372 1.499 . S
C375 C376 1.373 . S
C375 C377 1.389 . S
C376 H349 0.950 . S
C376 C362 1.377 . S
C376 C375 1.373 . S
C377 C361 1.377 . S
C377 C375 1.389 . S
C377 C378 1.524 . S
C378 C377 1.524 . S
C378 C379 1.397 . S
C378 C383 1.363 . S
C379 H350 0.950 . S
C379 C378 1.397 . S
C379 C380 1.334 . S
C380 H351 0.950 1_556 S
C380 C379 1.334 . S
C380 C381 1.287 1_556 S
C381 C380 1.287 1_554 S
C381 C382 1.524 1_554 S
C381 H384 0.999 . S
C382 H352 0.950 1_556 S
C382 C381 1.524 1_556 S
C382 C383 1.415 . S
C383 H353 0.950 . S
C383 C378 1.363 . S
C383 C382 1.415 . S
H384 C381 0.999 . S
H385 C366 0.913 . S
H386 C404 0.951 . S
H387 C406 0.951 . S
H388 C408 0.950 . S
H389 C409 0.950 . S
H390 C411 0.950 . S
H391 C414 0.950 . S
H392 C415 0.950 . S
H393 C417 0.950 . S
H394 C418 0.950 . S
H395 C419 0.951 . S
H396 C421 0.951 . S
H397 C423 0.950 . S
H398 C424 0.950 . S
H399 C426 0.950 . S
H400 C429 0.950 . S
H401 C430 0.950 . S
H402 C432 0.950 . S
H403 C433 0.950 . S
C404 H386 0.951 . S
C404 C405 1.366 . S
C404 C406 1.388 . S
C405 C404 1.366 . S
C405 C409 1.385 . S
C406 H387 0.951 . S
C406 C404 1.388 . S
C406 C407 1.366 . S
C407 C406 1.366 . S
C407 C408 1.414 . S
C407 C410 1.499 . S
C408 H388 0.950 . S
C408 C407 1.414 . S
C408 C409 1.374 . S
C409 H389 0.950 . S
C409 C405 1.385 . S
C409 C408 1.374 . S
C410 C407 1.499 . S
C410 C411 1.373 . S
C410 C412 1.389 . S
C411 H390 0.950 . S
C411 C410 1.373 . S
C411 C427 1.377 . S
C412 C410 1.389 . S
C412 C413 1.524 . S
C412 C426 1.377 . S
C413 C412 1.524 . S
C413 C414 1.397 . S
C413 C418 1.363 . S
C414 H391 0.950 . S
C414 C413 1.397 . S
C414 C415 1.334 . S
C415 H392 0.950 . S
C415 C414 1.334 . S
C415 C416 1.287 . S
C416 C415 1.287 . S
C416 C417 1.524 . S
C416 H435 0.913 . S
C417 H393 0.950 . S
C417 C416 1.524 . S
C417 C418 1.415 . S
C418 H394 0.950 . S
C418 C413 1.363 . S
C418 C417 1.415 . S
C419 H395 0.951 . S
C419 C420 1.366 . S
C419 C421 1.388 . S
C420 C419 1.366 . S
C420 C424 1.385 . S
C421 H396 0.951 . S
C421 C419 1.388 . S
C421 C422 1.366 . S
C422 C421 1.366 . S
C422 C423 1.414 . S
C422 C425 1.499 . S
C423 H397 0.950 . S
C423 C422 1.414 . S
C423 C424 1.374 . S
C424 H398 0.950 . S
C424 C420 1.385 . S
C424 C423 1.374 . S
C425 C422 1.499 . S
C425 C426 1.373 . S
C425 C427 1.389 . S
C426 H399 0.950 . S
C426 C412 1.377 . S
C426 C425 1.373 . S
C427 C411 1.377 . S
C427 C425 1.389 . S
C427 C428 1.524 . S
C428 C427 1.524 . S
C428 C429 1.397 . S
C428 C433 1.363 . S
C429 H400 0.950 . S
C429 C428 1.397 . S
C429 C430 1.334 . S
C430 H401 0.950 . S
C430 C429 1.334 . S
C430 C431 1.287 . S
C431 C430 1.287 . S
C431 C432 1.524 . S
C431 H434 0.999 . S
C432 H402 0.950 . S
C432 C431 1.524 . S
C432 C433 1.415 . S
C433 H403 0.950 . S
C433 C428 1.363 . S
C433 C432 1.415 . S
H434 C431 0.999 . S
H435 C416 0.913 . S
H436 C454 0.951 . S
H437 C456 0.951 . S
H438 C458 0.950 . S
H439 C459 0.950 . S
H440 C461 0.950 . S
H441 C464 0.950 . S
H442 C465 0.950 1_545 S
H443 C467 0.950 . S
H444 C468 0.950 . S
H445 C469 0.951 . S
H446 C471 0.951 . S
H447 C473 0.950 . S
H448 C474 0.950 . S
H449 C476 0.950 . S
H450 C479 0.950 . S
H451 C480 0.950 . S
H452 C482 0.950 . S
H453 C483 0.950 . S
C454 H436 0.951 . S
C454 C455 1.366 . S
C454 C456 1.388 . S
C455 C454 1.366 . S
C455 C459 1.385 . S
C456 H437 0.951 . S
C456 C454 1.388 . S
C456 C457 1.366 . S
C457 C456 1.366 . S
C457 C458 1.414 . S
C457 C460 1.499 . S
C458 H438 0.950 . S
C458 C457 1.414 . S
C458 C459 1.374 . S
C459 H439 0.950 . S
C459 C455 1.385 . S
C459 C458 1.374 . S
C460 C457 1.499 . S
C460 C461 1.373 . S
C460 C462 1.389 . S
C461 H440 0.950 . S
C461 C460 1.373 . S
C461 C477 1.377 . S
C462 C460 1.389 . S
C462 C463 1.524 . S
C462 C476 1.377 . S
C463 C462 1.524 . S
C463 C464 1.397 . S
C463 C468 1.363 . S
C464 H441 0.950 . S
C464 C463 1.397 . S
C464 C465 1.334 . S
C465 H442 0.950 1_565 S
C465 C464 1.334 . S
C465 C466 1.287 1_565 S
C466 C465 1.287 1_545 S
C466 C467 1.524 1_545 S
C466 H485 0.913 . S
C467 H443 0.950 . S
C467 C466 1.524 1_565 S
C467 C468 1.415 . S
C468 H444 0.950 . S
C468 C463 1.363 . S
C468 C467 1.415 . S
C469 H445 0.951 . S
C469 C470 1.366 . S
C469 C471 1.388 . S
C470 C469 1.366 . S
C470 C474 1.385 . S
C471 H446 0.951 . S
C471 C469 1.388 . S
C471 C472 1.366 . S
C472 C471 1.366 . S
C472 C473 1.414 . S
C472 C475 1.499 . S
C473 H447 0.950 . S
C473 C472 1.414 . S
C473 C474 1.374 . S
C474 H448 0.950 . S
C474 C470 1.385 . S
C474 C473 1.374 . S
C475 C472 1.499 . S
C475 C476 1.373 . S
C475 C477 1.389 . S
C476 H449 0.950 . S
C476 C462 1.377 . S
C476 C475 1.373 . S
C477 C461 1.377 . S
C477 C475 1.389 . S
C477 C478 1.524 . S
C478 C477 1.524 . S
C478 C479 1.397 . S
C478 C483 1.363 . S
C479 H450 0.950 . S
C479 C478 1.397 . S
C479 C480 1.334 . S
C480 H451 0.950 . S
C480 C479 1.334 . S
C480 C481 1.287 . S
C481 C480 1.287 . S
C481 C482 1.524 . S
C481 H484 0.999 . S
C482 H452 0.950 . S
C482 C481 1.524 . S
C482 C483 1.415 . S
C483 H453 0.950 . S
C483 C478 1.363 . S
C483 C482 1.415 . S
H484 C481 0.999 . S
H485 C466 0.913 . S
H486 C504 0.951 . S
H487 C506 0.951 . S
H488 C508 0.950 . S
H489 C509 0.950 . S
H490 C511 0.950 . S
H491 C514 0.950 . S
H492 C515 0.950 . S
H493 C517 0.950 . S
H494 C518 0.950 . S
H495 C519 0.951 . S
H496 C521 0.951 . S
H497 C523 0.950 . S
H498 C524 0.950 . S
H499 C526 0.950 . S
H500 C529 0.950 . S
H501 C530 0.950 . S
H502 C532 0.950 . S
H503 C533 0.950 . S
C504 H486 0.951 . S
C504 C505 1.366 . S
C504 C506 1.388 . S
C505 C504 1.366 . S
C505 C509 1.385 . S
C506 H487 0.951 . S
C506 C504 1.388 . S
C506 C507 1.366 . S
C507 C506 1.366 . S
C507 C508 1.414 . S
C507 C510 1.499 . S
C508 H488 0.950 . S
C508 C507 1.414 . S
C508 C509 1.374 . S
C509 H489 0.950 . S
C509 C505 1.385 . S
C509 C508 1.374 . S
C510 C507 1.499 . S
C510 C511 1.373 . S
C510 C512 1.389 . S
C511 H490 0.950 . S
C511 C510 1.373 . S
C511 C527 1.377 . S
C512 C510 1.389 . S
C512 C513 1.524 . S
C512 C526 1.377 . S
C513 C512 1.524 . S
C513 C514 1.397 . S
C513 C518 1.363 . S
C514 H491 0.950 . S
C514 C513 1.397 . S
C514 C515 1.334 . S
C515 H492 0.950 . S
C515 C514 1.334 . S
C515 C516 1.287 . S
C516 C515 1.287 . S
C516 C517 1.524 . S
C516 H535 0.913 . S
C517 H493 0.950 . S
C517 C516 1.524 . S
C517 C518 1.415 . S
C518 H494 0.950 . S
C518 C513 1.363 . S
C518 C517 1.415 . S
C519 H495 0.951 . S
C519 C520 1.366 . S
C519 C521 1.388 . S
C520 C519 1.366 . S
C520 C524 1.385 . S
C521 H496 0.951 . S
C521 C519 1.388 . S
C521 C522 1.366 . S
C522 C521 1.366 . S
C522 C523 1.414 . S
C522 C525 1.499 . S
C523 H497 0.950 . S
C523 C522 1.414 . S
C523 C524 1.374 . S
C524 H498 0.950 . S
C524 C520 1.385 . S
C524 C523 1.374 . S
C525 C522 1.499 . S
C525 C526 1.373 . S
C525 C527 1.389 . S
C526 H499 0.950 . S
C526 C512 1.377 . S
C526 C525 1.373 . S
C527 C511 1.377 . S
C527 C525 1.389 . S
C527 C528 1.524 . S
C528 C527 1.524 . S
C528 C529 1.397 . S
C528 C533 1.363 . S
C529 H500 0.950 . S
C529 C528 1.397 . S
C529 C530 1.334 . S
C530 H501 0.950 . S
C530 C529 1.334 . S
C530 C531 1.287 . S
C531 C530 1.287 . S
C531 C532 1.524 . S
C531 H534 0.999 . S
C532 H502 0.950 . S
C532 C531 1.524 . S
C532 C533 1.415 . S
C533 H503 0.950 . S
C533 C528 1.363 . S
C533 C532 1.415 . S
H534 C531 0.999 . S
H535 C516 0.913 . S
H536 C554 0.951 . S
H537 C556 0.951 . S
H538 C558 0.950 . S
H539 C559 0.950 . S
H540 C561 0.950 . S
H541 C564 0.950 . S
H542 C565 0.950 . S
H543 C567 0.950 1_545 S
H544 C568 0.950 . S
H545 C569 0.951 . S
H546 C571 0.951 . S
H547 C573 0.950 . S
H548 C574 0.950 . S
H549 C576 0.950 . S
H550 C579 0.950 . S
H551 C580 0.950 . S
H552 C582 0.950 . S
H553 C583 0.950 . S
C554 H536 0.951 . S
C554 C555 1.366 . S
C554 C556 1.388 . S
C555 C554 1.366 . S
C555 C559 1.385 . S
C556 H537 0.951 . S
C556 C554 1.388 . S
C556 C557 1.366 . S
C557 C556 1.366 . S
C557 C558 1.414 . S
C557 C560 1.499 . S
C558 H538 0.950 . S
C558 C557 1.414 . S
C558 C559 1.374 . S
C559 H539 0.950 . S
C559 C555 1.385 . S
C559 C558 1.374 . S
C560 C557 1.499 . S
C560 C561 1.373 . S
C560 C562 1.389 . S
C561 H540 0.950 . S
C561 C560 1.373 . S
C561 C577 1.377 . S
C562 C560 1.389 . S
C562 C563 1.524 . S
C562 C576 1.377 . S
C563 C562 1.524 . S
C563 C564 1.397 . S
C563 C568 1.363 . S
C564 H541 0.950 . S
C564 C563 1.397 . S
C564 C565 1.334 . S
C565 H542 0.950 . S
C565 C564 1.334 . S
C565 C566 1.287 . S
C566 C565 1.287 . S
C566 C567 1.524 . S
C566 H585 0.913 1_565 S
C567 H543 0.950 1_565 S
C567 C566 1.524 . S
C567 C568 1.415 . S
C568 H544 0.950 . S
C568 C563 1.363 . S
C568 C567 1.415 . S
C569 H545 0.951 . S
C569 C570 1.366 . S
C569 C571 1.388 . S
C570 C569 1.366 . S
C570 C574 1.385 . S
C571 H546 0.951 . S
C571 C569 1.388 . S
C571 C572 1.366 . S
C572 C571 1.366 . S
C572 C573 1.414 . S
C572 C575 1.499 . S
C573 H547 0.950 . S
C573 C572 1.414 . S
C573 C574 1.374 . S
C574 H548 0.950 . S
C574 C570 1.385 . S
C574 C573 1.374 . S
C575 C572 1.499 . S
C575 C576 1.373 . S
C575 C577 1.389 . S
C576 H549 0.950 . S
C576 C562 1.377 . S
C576 C575 1.373 . S
C577 C561 1.377 . S
C577 C575 1.389 . S
C577 C578 1.524 . S
C578 C577 1.524 . S
C578 C579 1.397 . S
C578 C583 1.363 . S
C579 H550 0.950 . S
C579 C578 1.397 . S
C579 C580 1.334 . S
C580 H551 0.950 . S
C580 C579 1.334 . S
C580 C581 1.287 . S
C581 C580 1.287 . S
C581 C582 1.524 . S
C581 H584 0.999 . S
C582 H552 0.950 . S
C582 C581 1.524 . S
C582 C583 1.415 . S
C583 H553 0.950 . S
C583 C578 1.363 . S
C583 C582 1.415 . S
H584 C581 0.999 . S
H585 C566 0.913 1_545 S
H586 C604 0.951 . S
H587 C606 0.951 . S
H588 C608 0.950 . S
H589 C609 0.950 . S
H590 C611 0.950 . S
H591 C614 0.950 . S
H592 C615 0.950 . S
H593 C617 0.950 . S
H594 C618 0.950 . S
H595 C619 0.951 . S
H596 C621 0.951 . S
H597 C623 0.950 . S
H598 C624 0.950 1_545 S
H599 C626 0.950 . S
H600 C629 0.950 . S
H601 C630 0.950 . S
H602 C632 0.950 . S
H603 C633 0.950 . S
C604 H586 0.951 . S
C604 C605 1.366 . S
C604 C606 1.388 . S
C605 C604 1.366 . S
C605 C609 1.385 . S
C606 H587 0.951 . S
C606 C604 1.388 . S
C606 C607 1.366 . S
C607 C606 1.366 . S
C607 C608 1.414 . S
C607 C610 1.499 . S
C608 H588 0.950 . S
C608 C607 1.414 . S
C608 C609 1.374 . S
C609 H589 0.950 . S
C609 C605 1.385 . S
C609 C608 1.374 . S
C610 C607 1.499 . S
C610 C611 1.373 . S
C610 C612 1.389 . S
C611 H590 0.950 . S
C611 C610 1.373 . S
C611 C627 1.377 . S
C612 C610 1.389 . S
C612 C613 1.524 . S
C612 C626 1.377 . S
C613 C612 1.524 . S
C613 C614 1.397 . S
C613 C618 1.363 . S
C614 H591 0.950 . S
C614 C613 1.397 . S
C614 C615 1.334 . S
C615 H592 0.950 . S
C615 C614 1.334 . S
C615 C616 1.287 . S
C616 C615 1.287 . S
C616 C617 1.524 . S
C616 H635 0.913 . S
C617 H593 0.950 . S
C617 C616 1.524 . S
C617 C618 1.415 . S
C618 H594 0.950 . S
C618 C613 1.363 . S
C618 C617 1.415 . S
C619 H595 0.951 . S
C619 C620 1.366 . S
C619 C621 1.388 . S
C620 C619 1.366 . S
C620 C624 1.385 . S
C621 H596 0.951 . S
C621 C619 1.388 . S
C621 C622 1.366 . S
C622 C621 1.366 . S
C622 C623 1.414 . S
C622 C625 1.499 . S
C623 H597 0.950 . S
C623 C622 1.414 . S
C623 C624 1.374 . S
C624 H598 0.950 1_565 S
C624 C620 1.385 . S
C624 C623 1.374 . S
C625 C622 1.499 . S
C625 C626 1.373 . S
C625 C627 1.389 . S
C626 H599 0.950 . S
C626 C612 1.377 . S
C626 C625 1.373 . S
C627 C611 1.377 . S
C627 C625 1.389 . S
C627 C628 1.524 . S
C628 C627 1.524 . S
C628 C629 1.397 . S
C628 C633 1.363 . S
C629 H600 0.950 . S
C629 C628 1.397 . S
C629 C630 1.334 . S
C630 H601 0.950 . S
C630 C629 1.334 . S
C630 C631 1.287 . S
C631 C630 1.287 . S
C631 C632 1.524 . S
C631 H634 0.999 . S
C632 H602 0.950 . S
C632 C631 1.524 . S
C632 C633 1.415 . S
C633 H603 0.950 . S
C633 C628 1.363 . S
C633 C632 1.415 . S
H634 C631 0.999 . S
H635 C616 0.913 . S
H636 C654 0.951 . S
H637 C656 0.951 . S
H638 C658 0.950 . S
H639 C659 0.950 . S
H640 C661 0.950 . S
H641 C664 0.950 . S
H642 C665 0.950 . S
H643 C667 0.950 . S
H644 C668 0.950 . S
H645 C669 0.951 . S
H646 C671 0.951 . S
H647 C673 0.950 . S
H648 C674 0.950 . S
H649 C676 0.950 . S
H650 C679 0.950 . S
H651 C680 0.950 . S
H652 C682 0.950 . S
H653 C683 0.950 . S
C654 H636 0.951 . S
C654 C655 1.366 . S
C654 C656 1.388 . S
C655 C654 1.366 . S
C655 C659 1.385 . S
C656 H637 0.951 . S
C656 C654 1.388 . S
C656 C657 1.366 . S
C657 C656 1.366 . S
C657 C658 1.414 . S
C657 C660 1.499 . S
C658 H638 0.950 . S
C658 C657 1.414 . S
C658 C659 1.374 . S
C659 H639 0.950 . S
C659 C655 1.385 . S
C659 C658 1.374 . S
C660 C657 1.499 . S
C660 C661 1.373 . S
C660 C662 1.389 . S
C661 H640 0.950 . S
C661 C660 1.373 . S
C661 C677 1.377 . S
C662 C660 1.389 . S
C662 C663 1.524 . S
C662 C676 1.377 . S
C663 C662 1.524 . S
C663 C664 1.397 . S
C663 C668 1.363 . S
C664 H641 0.950 . S
C664 C663 1.397 . S
C664 C665 1.334 . S
C665 H642 0.950 . S
C665 C664 1.334 . S
C665 C666 1.287 . S
C666 C665 1.287 . S
C666 C667 1.524 . S
C666 H685 0.913 . S
C667 H643 0.950 . S
C667 C666 1.524 . S
C667 C668 1.415 . S
C668 H644 0.950 . S
C668 C663 1.363 . S
C668 C667 1.415 . S
C669 H645 0.951 . S
C669 C670 1.366 . S
C669 C671 1.388 . S
C670 C669 1.366 . S
C670 C674 1.385 . S
C671 H646 0.951 . S
C671 C669 1.388 . S
C671 C672 1.366 . S
C672 C671 1.366 . S
C672 C673 1.414 . S
C672 C675 1.499 . S
C673 H647 0.950 . S
C673 C672 1.414 . S
C673 C674 1.374 . S
C674 H648 0.950 . S
C674 C670 1.385 . S
C674 C673 1.374 . S
C675 C672 1.499 . S
C675 C676 1.373 . S
C675 C677 1.389 . S
C676 H649 0.950 . S
C676 C662 1.377 . S
C676 C675 1.373 . S
C677 C661 1.377 . S
C677 C675 1.389 . S
C677 C678 1.524 . S
C678 C677 1.524 . S
C678 C679 1.397 . S
C678 C683 1.363 . S
C679 H650 0.950 . S
C679 C678 1.397 . S
C679 C680 1.334 . S
C680 H651 0.950 . S
C680 C679 1.334 . S
C680 C681 1.287 . S
C681 C680 1.287 . S
C681 C682 1.524 . S
C681 H684 0.999 . S
C682 H652 0.950 . S
C682 C681 1.524 . S
C682 C683 1.415 . S
C683 H653 0.950 . S
C683 C678 1.363 . S
C683 C682 1.415 . S
H684 C681 0.999 . S
H685 C666 0.913 . S
H686 C704 0.951 . S
H687 C706 0.951 . S
H688 C708 0.950 . S
H689 C709 0.950 . S
H690 C711 0.950 . S
H691 C714 0.950 . S
H692 C715 0.950 . S
H693 C717 0.950 . S
H694 C718 0.950 . S
H695 C719 0.951 . S
H696 C721 0.951 . S
H697 C723 0.950 . S
H698 C724 0.950 . S
H699 C726 0.950 . S
H700 C729 0.950 . S
H701 C730 0.950 . S
H702 C732 0.950 . S
H703 C733 0.950 . S
C704 H686 0.951 . S
C704 C705 1.366 . S
C704 C706 1.388 . S
C705 C704 1.366 . S
C705 C709 1.385 . S
C706 H687 0.951 . S
C706 C704 1.388 . S
C706 C707 1.366 . S
C707 C706 1.366 . S
C707 C708 1.414 . S
C707 C710 1.499 . S
C708 H688 0.950 . S
C708 C707 1.414 . S
C708 C709 1.374 . S
C709 H689 0.950 . S
C709 C705 1.385 . S
C709 C708 1.374 . S
C710 C707 1.499 . S
C710 C711 1.373 . S
C710 C712 1.389 . S
C711 H690 0.950 . S
C711 C710 1.373 . S
C711 C727 1.377 . S
C712 C710 1.389 . S
C712 C713 1.524 . S
C712 C726 1.377 . S
C713 C712 1.524 . S
C713 C714 1.397 . S
C713 C718 1.363 . S
C714 H691 0.950 . S
C714 C713 1.397 . S
C714 C715 1.334 . S
C715 H692 0.950 . S
C715 C714 1.334 . S
C715 C716 1.287 . S
C716 C715 1.287 . S
C716 C717 1.524 . S
C716 H735 0.913 . S
C717 H693 0.950 . S
C717 C716 1.524 . S
C717 C718 1.415 . S
C718 H694 0.950 . S
C718 C713 1.363 . S
C718 C717 1.415 . S
C719 H695 0.951 . S
C719 C720 1.366 . S
C719 C721 1.388 . S
C720 C719 1.366 . S
C720 C724 1.385 . S
C721 H696 0.951 . S
C721 C719 1.388 . S
C721 C722 1.366 . S
C722 C721 1.366 . S
C722 C723 1.414 . S
C722 C725 1.499 . S
C723 H697 0.950 . S
C723 C722 1.414 . S
C723 C724 1.374 . S
C724 H698 0.950 . S
C724 C720 1.385 . S
C724 C723 1.374 . S
C725 C722 1.499 . S
C725 C726 1.373 . S
C725 C727 1.389 . S
C726 H699 0.950 . S
C726 C712 1.377 . S
C726 C725 1.373 . S
C727 C711 1.377 . S
C727 C725 1.389 . S
C727 C728 1.524 . S
C728 C727 1.524 . S
C728 C729 1.397 . S
C728 C733 1.363 . S
C729 H700 0.950 . S
C729 C728 1.397 . S
C729 C730 1.334 . S
C730 H701 0.950 . S
C730 C729 1.334 . S
C730 C731 1.287 . S
C731 C730 1.287 . S
C731 C732 1.524 . S
C731 H734 0.999 . S
C732 H702 0.950 . S
C732 C731 1.524 . S
C732 C733 1.415 . S
C733 H703 0.950 . S
C733 C728 1.363 . S
C733 C732 1.415 . S
H734 C731 0.999 . S
H735 C716 0.913 . S
H736 C754 0.951 . S
H737 C756 0.951 . S
H738 C758 0.950 . S
H739 C759 0.950 . S
H740 C761 0.950 . S
H741 C764 0.950 . S
H742 C765 0.950 . S
H743 C767 0.950 . S
H744 C768 0.950 . S
H745 C769 0.951 . S
H746 C771 0.951 . S
H747 C773 0.950 . S
H748 C774 0.950 1_455 S
H749 C776 0.950 . S
H750 C779 0.950 . S
H751 C780 0.950 . S
H752 C782 0.950 . S
H753 C783 0.950 . S
C754 H736 0.951 . S
C754 C755 1.366 . S
C754 C756 1.388 . S
C755 C754 1.366 . S
C755 C759 1.385 . S
C756 H737 0.951 . S
C756 C754 1.388 . S
C756 C757 1.366 . S
C757 C756 1.366 . S
C757 C758 1.414 . S
C757 C760 1.499 . S
C758 H738 0.950 . S
C758 C757 1.414 . S
C758 C759 1.374 . S
C759 H739 0.950 . S
C759 C755 1.385 . S
C759 C758 1.374 . S
C760 C757 1.499 . S
C760 C761 1.373 . S
C760 C762 1.389 . S
C761 H740 0.950 . S
C761 C760 1.373 . S
C761 C777 1.377 . S
C762 C760 1.389 . S
C762 C763 1.524 . S
C762 C776 1.377 . S
C763 C762 1.524 . S
C763 C764 1.397 . S
C763 C768 1.363 . S
C764 H741 0.950 . S
C764 C763 1.397 . S
C764 C765 1.334 . S
C765 H742 0.950 . S
C765 C764 1.334 . S
C765 C766 1.287 . S
C766 C765 1.287 . S
C766 C767 1.524 . S
C766 H785 0.913 . S
C767 H743 0.950 . S
C767 C766 1.524 . S
C767 C768 1.415 . S
C768 H744 0.950 . S
C768 C763 1.363 . S
C768 C767 1.415 . S
C769 H745 0.951 . S
C769 C770 1.366 . S
C769 C771 1.388 . S
C770 C769 1.366 . S
C770 C774 1.385 . S
C771 H746 0.951 . S
C771 C769 1.388 . S
C771 C772 1.366 . S
C772 C771 1.366 . S
C772 C773 1.414 . S
C772 C775 1.499 . S
C773 H747 0.950 . S
C773 C772 1.414 . S
C773 C774 1.374 . S
C774 H748 0.950 1_655 S
C774 C770 1.385 . S
C774 C773 1.374 . S
C775 C772 1.499 . S
C775 C776 1.373 . S
C775 C777 1.389 . S
C776 H749 0.950 . S
C776 C762 1.377 . S
C776 C775 1.373 . S
C777 C761 1.377 . S
C777 C775 1.389 . S
C777 C778 1.524 . S
C778 C777 1.524 . S
C778 C779 1.397 . S
C778 C783 1.363 . S
C779 H750 0.950 . S
C779 C778 1.397 . S
C779 C780 1.334 . S
C780 H751 0.950 . S
C780 C779 1.334 . S
C780 C781 1.287 . S
C781 C780 1.287 . S
C781 C782 1.524 . S
C781 H784 0.999 . S
C782 H752 0.950 . S
C782 C781 1.524 . S
C782 C783 1.415 . S
C783 H753 0.950 . S
C783 C778 1.363 . S
C783 C782 1.415 . S
H784 C781 0.999 . S
H785 C766 0.913 . S
H786 C804 0.951 . S
H787 C806 0.951 . S
H788 C808 0.950 . S
H789 C809 0.950 . S
H790 C811 0.950 . S
H791 C814 0.950 . S
H792 C815 0.950 . S
H793 C817 0.950 . S
H794 C818 0.950 . S
H795 C819 0.951 . S
H796 C821 0.951 . S
H797 C823 0.950 . S
H798 C824 0.950 . S
H799 C826 0.950 . S
H800 C829 0.950 . S
H801 C830 0.950 . S
H802 C832 0.950 . S
H803 C833 0.950 . S
C804 H786 0.951 . S
C804 C805 1.366 . S
C804 C806 1.388 . S
C805 C804 1.366 . S
C805 C809 1.385 . S
C806 H787 0.951 . S
C806 C804 1.388 . S
C806 C807 1.366 . S
C807 C806 1.366 . S
C807 C808 1.414 . S
C807 C810 1.499 . S
C808 H788 0.950 . S
C808 C807 1.414 . S
C808 C809 1.374 . S
C809 H789 0.950 . S
C809 C805 1.385 . S
C809 C808 1.374 . S
C810 C807 1.499 . S
C810 C811 1.373 . S
C810 C812 1.389 . S
C811 H790 0.950 . S
C811 C810 1.373 . S
C811 C827 1.377 . S
C812 C810 1.389 . S
C812 C813 1.524 . S
C812 C826 1.377 . S
C813 C812 1.524 . S
C813 C814 1.397 . S
C813 C818 1.363 . S
C814 H791 0.950 . S
C814 C813 1.397 . S
C814 C815 1.334 . S
C815 H792 0.950 . S
C815 C814 1.334 . S
C815 C816 1.287 . S
C816 C815 1.287 . S
C816 C817 1.524 . S
C816 H835 0.913 . S
C817 H793 0.950 . S
C817 C816 1.524 . S
C817 C818 1.415 . S
C818 H794 0.950 . S
C818 C813 1.363 . S
C818 C817 1.415 . S
C819 H795 0.951 . S
C819 C820 1.366 . S
C819 C821 1.388 . S
C820 C819 1.366 . S
C820 C824 1.385 . S
C821 H796 0.951 . S
C821 C819 1.388 . S
C821 C822 1.366 . S
C822 C821 1.366 . S
C822 C823 1.414 . S
C822 C825 1.499 . S
C823 H797 0.950 . S
C823 C822 1.414 . S
C823 C824 1.374 . S
C824 H798 0.950 . S
C824 C820 1.385 . S
C824 C823 1.374 . S
C825 C822 1.499 . S
C825 C826 1.373 . S
C825 C827 1.389 . S
C826 H799 0.950 . S
C826 C812 1.377 . S
C826 C825 1.373 . S
C827 C811 1.377 . S
C827 C825 1.389 . S
C827 C828 1.524 . S
C828 C827 1.524 . S
C828 C829 1.397 . S
C828 C833 1.363 . S
C829 H800 0.950 . S
C829 C828 1.397 . S
C829 C830 1.334 . S
C830 H801 0.950 . S
C830 C829 1.334 . S
C830 C831 1.287 . S
C831 C830 1.287 . S
C831 C832 1.524 . S
C831 H834 0.999 . S
C832 H802 0.950 . S
C832 C831 1.524 . S
C832 C833 1.415 . S
C833 H803 0.950 . S
C833 C828 1.363 . S
C833 C832 1.415 . S
H834 C831 0.999 . S
H835 C816 0.913 . S
H836 C854 0.951 . S
H837 C856 0.951 . S
H838 C858 0.950 . S
H839 C859 0.950 . S
H840 C861 0.950 . S
H841 C864 0.950 . S
H842 C865 0.950 . S
H843 C867 0.950 . S
H844 C868 0.950 . S
H845 C869 0.951 . S
H846 C871 0.951 . S
H847 C873 0.950 . S
H848 C874 0.950 . S
H849 C876 0.950 . S
H850 C879 0.950 . S
H851 C880 0.950 . S
H852 C882 0.950 . S
H853 C883 0.950 . S
C854 H836 0.951 . S
C854 C855 1.366 . S
C854 C856 1.388 . S
C855 C854 1.366 . S
C855 C859 1.385 . S
C856 H837 0.951 . S
C856 C854 1.388 . S
C856 C857 1.366 . S
C857 C856 1.366 . S
C857 C858 1.414 . S
C857 C860 1.499 . S
C858 H838 0.950 . S
C858 C857 1.414 . S
C858 C859 1.374 . S
C859 H839 0.950 . S
C859 C855 1.385 . S
C859 C858 1.374 . S
C860 C857 1.499 . S
C860 C861 1.373 . S
C860 C862 1.389 . S
C861 H840 0.950 . S
C861 C860 1.373 . S
C861 C877 1.377 . S
C862 C860 1.389 . S
C862 C863 1.524 . S
C862 C876 1.377 . S
C863 C862 1.524 . S
C863 C864 1.397 . S
C863 C868 1.363 . S
C864 H841 0.950 . S
C864 C863 1.397 . S
C864 C865 1.334 . S
C865 H842 0.950 . S
C865 C864 1.334 . S
C865 C866 1.287 . S
C866 C865 1.287 . S
C866 C867 1.524 . S
C866 H885 0.913 . S
C867 H843 0.950 . S
C867 C866 1.524 . S
C867 C868 1.415 . S
C868 H844 0.950 . S
C868 C863 1.363 . S
C868 C867 1.415 . S
C869 H845 0.951 . S
C869 C870 1.366 . S
C869 C871 1.388 . S
C870 C869 1.366 . S
C870 C874 1.385 . S
C871 H846 0.951 . S
C871 C869 1.388 . S
C871 C872 1.366 . S
C872 C871 1.366 . S
C872 C873 1.414 . S
C872 C875 1.499 . S
C873 H847 0.950 . S
C873 C872 1.414 . S
C873 C874 1.374 . S
C874 H848 0.950 . S
C874 C870 1.385 . S
C874 C873 1.374 . S
C875 C872 1.499 . S
C875 C876 1.373 . S
C875 C877 1.389 . S
C876 H849 0.950 . S
C876 C862 1.377 . S
C876 C875 1.373 . S
C877 C861 1.377 . S
C877 C875 1.389 . S
C877 C878 1.524 . S
C878 C877 1.524 . S
C878 C879 1.397 . S
C878 C883 1.363 . S
C879 H850 0.950 . S
C879 C878 1.397 . S
C879 C880 1.334 . S
C880 H851 0.950 . S
C880 C879 1.334 . S
C880 C881 1.287 . S
C881 C880 1.287 . S
C881 C882 1.524 . S
C881 H884 0.999 . S
C882 H852 0.950 . S
C882 C881 1.524 . S
C882 C883 1.415 . S
C883 H853 0.950 . S
C883 C878 1.363 . S
C883 C882 1.415 . S
H884 C881 0.999 . S
H885 C866 0.913 . S
H886 C904 0.951 . S
H887 C906 0.951 . S
H888 C908 0.950 . S
H889 C909 0.950 . S
H890 C911 0.950 . S
H891 C914 0.950 . S
H892 C915 0.950 . S
H893 C917 0.950 . S
H894 C918 0.950 . S
H895 C919 0.951 . S
H896 C921 0.951 . S
H897 C923 0.950 . S
H898 C924 0.950 . S
H899 C926 0.950 . S
H900 C929 0.950 . S
H901 C930 0.950 . S
H902 C932 0.950 . S
H903 C933 0.950 . S
C904 H886 0.951 . S
C904 C905 1.366 . S
C904 C906 1.388 . S
C905 C904 1.366 . S
C905 C909 1.385 . S
C906 H887 0.951 . S
C906 C904 1.388 . S
C906 C907 1.366 . S
C907 C906 1.366 . S
C907 C908 1.414 . S
C907 C910 1.499 . S
C908 H888 0.950 . S
C908 C907 1.414 . S
C908 C909 1.374 . S
C909 H889 0.950 . S
C909 C905 1.385 . S
C909 C908 1.374 . S
C910 C907 1.499 . S
C910 C911 1.373 . S
C910 C912 1.389 . S
C911 H890 0.950 . S
C911 C910 1.373 . S
C911 C927 1.377 . S
C912 C910 1.389 . S
C912 C913 1.524 . S
C912 C926 1.377 . S
C913 C912 1.524 . S
C913 C914 1.397 . S
C913 C918 1.363 . S
C914 H891 0.950 . S
C914 C913 1.397 . S
C914 C915 1.334 . S
C915 H892 0.950 . S
C915 C914 1.334 . S
C915 C916 1.287 . S
C916 C915 1.287 . S
C916 C917 1.524 . S
C916 H935 0.913 . S
C917 H893 0.950 . S
C917 C916 1.524 . S
C917 C918 1.415 . S
C918 H894 0.950 . S
C918 C913 1.363 . S
C918 C917 1.415 . S
C919 H895 0.951 . S
C919 C920 1.366 . S
C919 C921 1.388 . S
C920 C919 1.366 . S
C920 C924 1.385 . S
C921 H896 0.951 . S
C921 C919 1.388 . S
C921 C922 1.366 . S
C922 C921 1.366 . S
C922 C923 1.414 . S
C922 C925 1.499 . S
C923 H897 0.950 . S
C923 C922 1.414 . S
C923 C924 1.374 . S
C924 H898 0.950 . S
C924 C920 1.385 . S
C924 C923 1.374 . S
C925 C922 1.499 . S
C925 C926 1.373 . S
C925 C927 1.389 . S
C926 H899 0.950 . S
C926 C912 1.377 . S
C926 C925 1.373 . S
C927 C911 1.377 . S
C927 C925 1.389 . S
C927 C928 1.524 . S
C928 C927 1.524 . S
C928 C929 1.397 . S
C928 C933 1.363 . S
C929 H900 0.950 . S
C929 C928 1.397 . S
C929 C930 1.334 . S
C930 H901 0.950 . S
C930 C929 1.334 . S
C930 C931 1.287 . S
C931 C930 1.287 . S
C931 C932 1.524 . S
C931 H934 0.999 . S
C932 H902 0.950 . S
C932 C931 1.524 . S
C932 C933 1.415 . S
C933 H903 0.950 . S
C933 C928 1.363 . S
C933 C932 1.415 . S
H934 C931 0.999 . S
H935 C916 0.913 . S
H936 C954 0.951 . S
H937 C956 0.951 . S
H938 C958 0.950 . S
H939 C959 0.950 . S
H940 C961 0.950 . S
H941 C964 0.950 . S
H942 C965 0.950 . S
H943 C967 0.950 . S
H944 C968 0.950 . S
H945 C969 0.951 . S
H946 C971 0.951 . S
H947 C973 0.950 . S
H948 C974 0.950 . S
H949 C976 0.950 . S
H950 C979 0.950 . S
H951 C980 0.950 . S
H952 C982 0.972 . S
H953 C983 0.950 . S
C954 H936 0.951 . S
C954 C955 1.366 . S
C954 C956 1.388 . S
C955 C954 1.366 . S
C955 C959 1.385 . S
C956 H937 0.951 . S
C956 C954 1.388 . S
C956 C957 1.366 . S
C957 C956 1.366 . S
C957 C958 1.414 . S
C957 C960 1.499 . S
C958 H938 0.950 . S
C958 C957 1.414 . S
C958 C959 1.374 . S
C959 H939 0.950 . S
C959 C955 1.385 . S
C959 C958 1.374 . S
C960 C957 1.499 . S
C960 C961 1.373 . S
C960 C962 1.389 . S
C961 H940 0.950 . S
C961 C960 1.373 . S
C961 C977 1.377 . S
C962 C960 1.389 . S
C962 C963 1.524 . S
C962 C976 1.377 . S
C963 C962 1.524 . S
C963 C964 1.397 . S
C963 C968 1.363 . S
C964 H941 0.950 . S
C964 C963 1.397 . S
C964 C965 1.334 . S
C965 H942 0.950 . S
C965 C964 1.334 . S
C965 C966 1.287 . S
C966 C965 1.287 . S
C966 C967 1.524 . S
C966 H985 0.913 . S
C967 H943 0.950 . S
C967 C966 1.524 . S
C967 C968 1.415 . S
C968 H944 0.950 . S
C968 C963 1.363 . S
C968 C967 1.415 . S
C969 H945 0.951 . S
C969 C970 1.366 . S
C969 C971 1.388 . S
C970 C969 1.366 . S
C970 C974 1.385 . S
C971 H946 0.951 . S
C971 C969 1.388 . S
C971 C972 1.366 . S
C972 C971 1.366 . S
C972 C973 1.414 . S
C972 C975 1.499 . S
C973 H947 0.950 . S
C973 C972 1.414 . S
C973 C974 1.374 . S
C974 H948 0.950 . S
C974 C970 1.385 . S
C974 C973 1.374 . S
C975 C972 1.499 . S
C975 C976 1.373 . S
C975 C977 1.389 . S
C976 H949 0.950 . S
C976 C962 1.377 . S
C976 C975 1.373 . S
C977 C961 1.377 . S
C977 C975 1.389 . S
C977 C978 1.524 . S
C978 C977 1.524 . S
C978 C979 1.397 . S
C978 C983 1.363 . S
C979 H950 0.950 . S
C979 C978 1.397 . S
C979 C980 1.334 . S
C980 H951 0.950 . S
C980 C979 1.334 . S
C980 C981 1.287 . S
C981 C980 1.287 . S
C981 C982 1.524 . S
C981 H984 0.999 1_655 S
C982 H952 0.972 . S
C982 C981 1.524 . S
C982 C983 1.415 . S
C983 H953 0.950 . S
C983 C978 1.363 . S
C983 C982 1.415 . S
H984 C981 0.999 1_455 S
H985 C966 0.913 . S
H986 C1004 0.951 . S
H987 C1006 0.951 . S
H988 C1008 0.950 . S
H989 C1009 0.950 . S
H990 C1011 0.950 . S
H991 C1014 0.950 . S
H992 C1015 0.950 . S
H993 C1017 0.950 . S
H994 C1018 0.950 . S
H995 C1019 0.951 . S
H996 C1021 0.951 . S
H997 C1023 0.950 . S
H998 C1024 0.950 . S
H999 C1026 0.950 . S
H1000 C1029 0.950 . S
H1001 C1030 0.950 . S
H1002 C1032 0.950 . S
H1003 C1033 0.950 . S
C1004 H986 0.951 . S
C1004 C1005 1.366 . S
C1004 C1006 1.388 . S
C1005 C1004 1.366 . S
C1005 C1009 1.385 . S
C1006 H987 0.951 . S
C1006 C1004 1.388 . S
C1006 C1007 1.366 . S
C1007 C1006 1.366 . S
C1007 C1008 1.414 . S
C1007 C1010 1.499 . S
C1008 H988 0.950 . S
C1008 C1007 1.414 . S
C1008 C1009 1.374 . S
C1009 H989 0.950 . S
C1009 C1005 1.385 . S
C1009 C1008 1.374 . S
C1010 C1007 1.499 . S
C1010 C1011 1.373 . S
C1010 C1012 1.389 . S
C1011 H990 0.950 . S
C1011 C1010 1.373 . S
C1011 C1027 1.377 . S
C1012 C1010 1.389 . S
C1012 C1013 1.524 . S
C1012 C1026 1.377 . S
C1013 C1012 1.524 . S
C1013 C1014 1.397 . S
C1013 C1018 1.363 . S
C1014 H991 0.950 . S
C1014 C1013 1.397 . S
C1014 C1015 1.334 . S
C1015 H992 0.950 . S
C1015 C1014 1.334 . S
C1015 C1016 1.287 . S
C1016 C1015 1.287 . S
C1016 C1017 1.524 . S
C1016 H1035 0.913 . S
C1017 H993 0.950 . S
C1017 C1016 1.524 . S
C1017 C1018 1.415 . S
C1018 H994 0.950 . S
C1018 C1013 1.363 . S
C1018 C1017 1.415 . S
C1019 H995 0.951 . S
C1019 C1020 1.366 . S
C1019 C1021 1.388 . S
C1020 C1019 1.366 . S
C1020 C1024 1.385 . S
C1021 H996 0.951 . S
C1021 C1019 1.388 . S
C1021 C1022 1.366 . S
C1022 C1021 1.366 . S
C1022 C1023 1.414 . S
C1022 C1025 1.499 . S
C1023 H997 0.950 . S
C1023 C1022 1.414 . S
C1023 C1024 1.374 . S
C1024 H998 0.950 . S
C1024 C1020 1.385 . S
C1024 C1023 1.374 . S
C1025 C1022 1.499 . S
C1025 C1026 1.373 . S
C1025 C1027 1.389 . S
C1026 H999 0.950 . S
C1026 C1012 1.377 . S
C1026 C1025 1.373 . S
C1027 C1011 1.377 . S
C1027 C1025 1.389 . S
C1027 C1028 1.524 . S
C1028 C1027 1.524 . S
C1028 C1029 1.397 . S
C1028 C1033 1.363 . S
C1029 H1000 0.950 . S
C1029 C1028 1.397 . S
C1029 C1030 1.334 . S
C1030 H1001 0.950 . S
C1030 C1029 1.334 . S
C1030 C1031 1.287 . S
C1031 C1030 1.287 . S
C1031 C1032 1.524 . S
C1031 H1034 0.999 . S
C1032 H1002 0.950 . S
C1032 C1031 1.524 . S
C1032 C1033 1.415 . S
C1033 H1003 0.950 . S
C1033 C1028 1.363 . S
C1033 C1032 1.415 . S
H1034 C1031 0.999 . S
H1035 C1016 0.913 . S
H1036 C1054 0.951 . S
H1037 C1056 0.951 . S
H1038 C1058 0.950 . S
H1039 C1059 0.950 . S
H1040 C1061 0.950 . S
H1041 C1064 0.950 . S
H1042 C1065 0.948 1_554 S
H1043 C1067 0.950 . S
H1044 C1068 0.950 . S
H1045 C1069 0.951 . S
H1046 C1071 0.951 . S
H1047 C1073 0.950 . S
H1048 C1074 0.950 . S
H1049 C1076 0.950 . S
H1050 C1079 0.950 . S
H1051 C1080 0.950 . S
H1052 C1082 0.950 . S
H1053 C1083 0.950 . S
C1054 H1036 0.951 . S
C1054 C1055 1.366 . S
C1054 C1056 1.388 . S
C1055 C1054 1.366 . S
C1055 C1059 1.385 . S
C1056 H1037 0.951 . S
C1056 C1054 1.388 . S
C1056 C1057 1.366 . S
C1057 C1056 1.366 . S
C1057 C1058 1.414 . S
C1057 C1060 1.499 . S
C1058 H1038 0.950 . S
C1058 C1057 1.414 . S
C1058 C1059 1.374 . S
C1059 H1039 0.950 . S
C1059 C1055 1.385 . S
C1059 C1058 1.374 . S
C1060 C1057 1.499 . S
C1060 C1061 1.373 . S
C1060 C1062 1.389 . S
C1061 H1040 0.950 . S
C1061 C1060 1.373 . S
C1061 C1077 1.377 . S
C1062 C1060 1.389 . S
C1062 C1063 1.524 . S
C1062 C1076 1.377 . S
C1063 C1062 1.524 . S
C1063 C1064 1.397 . S
C1063 C1068 1.363 . S
C1064 H1041 0.950 . S
C1064 C1063 1.397 . S
C1064 C1065 1.336 . S
C1065 H1042 0.948 1_556 S
C1065 C1064 1.336 . S
C1065 C1066 1.286 1_556 S
C1066 C1065 1.286 1_554 S
C1066 C1067 1.524 1_554 S
C1066 H1085 0.913 . S
C1067 H1043 0.950 . S
C1067 C1066 1.524 1_556 S
C1067 C1068 1.415 . S
C1068 H1044 0.950 . S
C1068 C1063 1.363 . S
C1068 C1067 1.415 . S
C1069 H1045 0.951 . S
C1069 C1070 1.366 . S
C1069 C1071 1.388 . S
C1070 C1069 1.366 . S
C1070 C1074 1.385 . S
C1071 H1046 0.951 . S
C1071 C1069 1.388 . S
C1071 C1072 1.366 . S
C1072 C1071 1.366 . S
C1072 C1073 1.414 . S
C1072 C1075 1.499 . S
C1073 H1047 0.950 . S
C1073 C1072 1.414 . S
C1073 C1074 1.374 . S
C1074 H1048 0.950 . S
C1074 C1070 1.385 . S
C1074 C1073 1.374 . S
C1075 C1072 1.499 . S
C1075 C1076 1.373 . S
C1075 C1077 1.389 . S
C1076 H1049 0.950 . S
C1076 C1062 1.377 . S
C1076 C1075 1.373 . S
C1077 C1061 1.377 . S
C1077 C1075 1.389 . S
C1077 C1078 1.524 . S
C1078 C1077 1.524 . S
C1078 C1079 1.397 . S
C1078 C1083 1.363 . S
C1079 H1050 0.950 . S
C1079 C1078 1.397 . S
C1079 C1080 1.334 . S
C1080 H1051 0.950 . S
C1080 C1079 1.334 . S
C1080 C1081 1.287 . S
C1081 C1080 1.287 . S
C1081 C1082 1.524 . S
C1081 H1084 0.999 . S
C1082 H1052 0.950 . S
C1082 C1081 1.524 . S
C1082 C1083 1.415 . S
C1083 H1053 0.950 . S
C1083 C1078 1.363 . S
C1083 C1082 1.415 . S
H1084 C1081 0.999 . S
H1085 C1066 0.913 . S
H1086 C1104 0.951 . S
H1087 C1106 0.951 . S
H1088 C1108 0.950 . S
H1089 C1109 0.950 . S
H1090 C1111 0.950 . S
H1091 C1114 0.950 . S
H1092 C1115 0.950 . S
H1093 C1117 0.950 . S
H1094 C1118 0.950 . S
H1095 C1119 0.951 . S
H1096 C1121 0.951 . S
H1097 C1123 0.950 . S
H1098 C1124 0.950 . S
H1099 C1126 0.950 . S
H1100 C1129 0.950 . S
H1101 C1130 0.950 . S
H1102 C1132 0.950 . S
H1103 C1133 0.950 . S
C1104 H1086 0.951 . S
C1104 C1105 1.366 . S
C1104 C1106 1.388 . S
C1105 C1104 1.366 . S
C1105 C1109 1.385 . S
C1106 H1087 0.951 . S
C1106 C1104 1.388 . S
C1106 C1107 1.366 . S
C1107 C1106 1.366 . S
C1107 C1108 1.414 . S
C1107 C1110 1.499 . S
C1108 H1088 0.950 . S
C1108 C1107 1.414 . S
C1108 C1109 1.374 . S
C1109 H1089 0.950 . S
C1109 C1105 1.385 . S
C1109 C1108 1.374 . S
C1110 C1107 1.499 . S
C1110 C1111 1.373 . S
C1110 C1112 1.389 . S
C1111 H1090 0.950 . S
C1111 C1110 1.373 . S
C1111 C1127 1.377 . S
C1112 C1110 1.389 . S
C1112 C1113 1.524 . S
C1112 C1126 1.377 . S
C1113 C1112 1.524 . S
C1113 C1114 1.397 . S
C1113 C1118 1.363 . S
C1114 H1091 0.950 . S
C1114 C1113 1.397 . S
C1114 C1115 1.334 . S
C1115 H1092 0.950 . S
C1115 C1114 1.334 . S
C1115 C1116 1.287 . S
C1116 C1115 1.287 . S
C1116 C1117 1.524 . S
C1116 H1135 0.913 . S
C1117 H1093 0.950 . S
C1117 C1116 1.524 . S
C1117 C1118 1.415 . S
C1118 H1094 0.950 . S
C1118 C1113 1.363 . S
C1118 C1117 1.415 . S
C1119 H1095 0.951 . S
C1119 C1120 1.366 . S
C1119 C1121 1.388 . S
C1120 C1119 1.366 . S
C1120 C1124 1.385 . S
C1121 H1096 0.951 . S
C1121 C1119 1.388 . S
C1121 C1122 1.366 . S
C1122 C1121 1.366 . S
C1122 C1123 1.414 . S
C1122 C1125 1.499 . S
C1123 H1097 0.950 . S
C1123 C1122 1.414 . S
C1123 C1124 1.374 . S
C1124 H1098 0.950 . S
C1124 C1120 1.385 . S
C1124 C1123 1.374 . S
C1125 C1122 1.499 . S
C1125 C1126 1.373 . S
C1125 C1127 1.389 . S
C1126 H1099 0.950 . S
C1126 C1112 1.377 . S
C1126 C1125 1.373 . S
C1127 C1111 1.377 . S
C1127 C1125 1.389 . S
C1127 C1128 1.524 . S
C1128 C1127 1.524 . S
C1128 C1129 1.397 . S
C1128 C1133 1.363 . S
C1129 H1100 0.950 . S
C1129 C1128 1.397 . S
C1129 C1130 1.334 . S
C1130 H1101 0.950 . S
C1130 C1129 1.334 . S
C1130 C1131 1.287 . S
C1131 C1130 1.287 . S
C1131 C1132 1.524 . S
C1131 H1134 0.999 . S
C1132 H1102 0.950 . S
C1132 C1131 1.524 . S
C1132 C1133 1.415 . S
C1133 H1103 0.950 . S
C1133 C1128 1.363 . S
C1133 C1132 1.415 . S
H1134 C1131 0.999 . S
H1135 C1116 0.913 . S
H1136 C1154 0.951 . S
H1137 C1156 0.951 . S
H1138 C1158 0.950 . S
H1139 C1159 0.950 . S
H1140 C1161 0.950 . S
H1141 C1164 0.950 . S
H1142 C1165 0.950 . S
H1143 C1167 0.950 . S
H1144 C1168 0.950 . S
H1145 C1169 0.951 . S
H1146 C1171 0.951 . S
H1147 C1173 0.950 . S
H1148 C1174 0.950 . S
H1149 C1176 0.950 . S
H1150 C1179 0.950 . S
H1151 C1180 0.950 . S
H1152 C1182 0.950 . S
H1153 C1183 0.950 . S
C1154 H1136 0.951 . S
C1154 C1155 1.366 . S
C1154 C1156 1.388 . S
C1155 C1154 1.366 . S
C1155 C1159 1.385 . S
C1156 H1137 0.951 . S
C1156 C1154 1.388 . S
C1156 C1157 1.366 . S
C1157 C1156 1.366 . S
C1157 C1158 1.414 . S
C1157 C1160 1.499 . S
C1158 H1138 0.950 . S
C1158 C1157 1.414 . S
C1158 C1159 1.374 . S
C1159 H1139 0.950 . S
C1159 C1155 1.385 . S
C1159 C1158 1.374 . S
C1160 C1157 1.499 . S
C1160 C1161 1.373 . S
C1160 C1162 1.389 . S
C1161 H1140 0.950 . S
C1161 C1160 1.373 . S
C1161 C1177 1.377 . S
C1162 C1160 1.389 . S
C1162 C1163 1.524 . S
C1162 C1176 1.377 . S
C1163 C1162 1.524 . S
C1163 C1164 1.397 . S
C1163 C1168 1.363 . S
C1164 H1141 0.950 . S
C1164 C1163 1.397 . S
C1164 C1165 1.334 . S
C1165 H1142 0.950 . S
C1165 C1164 1.334 . S
C1165 C1166 1.287 . S
C1166 C1165 1.287 . S
C1166 C1167 1.524 . S
C1166 H1185 0.913 . S
C1167 H1143 0.950 . S
C1167 C1166 1.524 . S
C1167 C1168 1.415 . S
C1168 H1144 0.950 . S
C1168 C1163 1.363 . S
C1168 C1167 1.415 . S
C1169 H1145 0.951 . S
C1169 C1170 1.366 . S
C1169 C1171 1.388 . S
C1170 C1169 1.366 . S
C1170 C1174 1.385 . S
C1171 H1146 0.951 . S
C1171 C1169 1.388 . S
C1171 C1172 1.366 . S
C1172 C1171 1.366 . S
C1172 C1173 1.414 . S
C1172 C1175 1.499 . S
C1173 H1147 0.950 . S
C1173 C1172 1.414 . S
C1173 C1174 1.374 . S
C1174 H1148 0.950 . S
C1174 C1170 1.385 . S
C1174 C1173 1.374 . S
C1175 C1172 1.499 . S
C1175 C1176 1.373 . S
C1175 C1177 1.389 . S
C1176 H1149 0.950 . S
C1176 C1162 1.377 . S
C1176 C1175 1.373 . S
C1177 C1161 1.377 . S
C1177 C1175 1.389 . S
C1177 C1178 1.524 . S
C1178 C1177 1.524 . S
C1178 C1179 1.397 . S
C1178 C1183 1.363 . S
C1179 H1150 0.950 . S
C1179 C1178 1.397 . S
C1179 C1180 1.334 . S
C1180 H1151 0.950 . S
C1180 C1179 1.334 . S
C1180 C1181 1.287 . S
C1181 C1180 1.287 . S
C1181 C1182 1.524 . S
C1181 H1184 0.999 . S
C1182 H1152 0.950 . S
C1182 C1181 1.524 . S
C1182 C1183 1.415 . S
C1183 H1153 0.950 . S
C1183 C1178 1.363 . S
C1183 C1182 1.415 . S
H1184 C1181 0.999 . S
H1185 C1166 0.913 . S
H1186 C1204 0.951 . S
H1187 C1206 0.951 . S
H1188 C1208 0.950 . S
H1189 C1209 0.950 . S
H1190 C1211 0.950 . S
H1191 C1214 0.950 . S
H1192 C1215 0.950 . S
H1193 C1217 0.950 . S
H1194 C1218 0.950 . S
H1195 C1219 0.951 . S
H1196 C1221 0.951 . S
H1197 C1223 0.950 . S
H1198 C1224 0.950 . S
H1199 C1226 0.950 . S
H1200 C1229 0.950 . S
H1201 C1230 0.950 . S
H1202 C1232 0.950 . S
H1203 C1233 0.950 . S
C1204 H1186 0.951 . S
C1204 C1205 1.366 . S
C1204 C1206 1.388 . S
C1205 C1204 1.366 . S
C1205 C1209 1.385 . S
C1206 H1187 0.951 . S
C1206 C1204 1.388 . S
C1206 C1207 1.366 . S
C1207 C1206 1.366 . S
C1207 C1208 1.414 . S
C1207 C1210 1.499 . S
C1208 H1188 0.950 . S
C1208 C1207 1.414 . S
C1208 C1209 1.374 . S
C1209 H1189 0.950 . S
C1209 C1205 1.385 . S
C1209 C1208 1.374 . S
C1210 C1207 1.499 . S
C1210 C1211 1.373 . S
C1210 C1212 1.389 . S
C1211 H1190 0.950 . S
C1211 C1210 1.373 . S
C1211 C1227 1.377 . S
C1212 C1210 1.389 . S
C1212 C1213 1.524 . S
C1212 C1226 1.377 . S
C1213 C1212 1.524 . S
C1213 C1214 1.397 . S
C1213 C1218 1.363 . S
C1214 H1191 0.950 . S
C1214 C1213 1.397 . S
C1214 C1215 1.334 . S
C1215 H1192 0.950 . S
C1215 C1214 1.334 . S
C1215 C1216 1.287 . S
C1216 C1215 1.287 . S
C1216 C1217 1.524 . S
C1216 H1235 0.913 . S
C1217 H1193 0.950 . S
C1217 C1216 1.524 . S
C1217 C1218 1.415 . S
C1218 H1194 0.950 . S
C1218 C1213 1.363 . S
C1218 C1217 1.415 . S
C1219 H1195 0.951 . S
C1219 C1220 1.366 . S
C1219 C1221 1.388 . S
C1220 C1219 1.366 . S
C1220 C1224 1.385 . S
C1221 H1196 0.951 . S
C1221 C1219 1.388 . S
C1221 C1222 1.366 . S
C1222 C1221 1.366 . S
C1222 C1223 1.414 . S
C1222 C1225 1.499 . S
C1223 H1197 0.950 . S
C1223 C1222 1.414 . S
C1223 C1224 1.374 . S
C1224 H1198 0.950 . S
C1224 C1220 1.385 . S
C1224 C1223 1.374 . S
C1225 C1222 1.499 . S
C1225 C1226 1.373 . S
C1225 C1227 1.389 . S
C1226 H1199 0.950 . S
C1226 C1212 1.377 . S
C1226 C1225 1.373 . S
C1227 C1211 1.377 . S
C1227 C1225 1.389 . S
C1227 C1228 1.524 . S
C1228 C1227 1.524 . S
C1228 C1229 1.397 . S
C1228 C1233 1.363 . S
C1229 H1200 0.950 . S
C1229 C1228 1.397 . S
C1229 C1230 1.334 . S
C1230 H1201 0.950 . S
C1230 C1229 1.334 . S
C1230 C1231 1.287 . S
C1231 C1230 1.287 . S
C1231 C1232 1.524 . S
C1231 H1234 0.999 . S
C1232 H1202 0.950 . S
C1232 C1231 1.524 . S
C1232 C1233 1.415 . S
C1233 H1203 0.950 . S
C1233 C1228 1.363 . S
C1233 C1232 1.415 . S
H1234 C1231 0.999 . S
H1235 C1216 0.913 . S
H1236 C1254 0.951 . S
H1237 C1256 0.951 . S
H1238 C1258 0.950 . S
H1239 C1259 0.950 . S
H1240 C1261 0.950 . S
H1241 C1264 0.950 . S
H1242 C1265 0.950 . S
H1243 C1267 0.950 . S
H1244 C1268 0.950 . S
H1245 C1269 0.951 . S
H1246 C1271 0.951 . S
H1247 C1273 0.950 . S
H1248 C1274 0.950 . S
H1249 C1276 0.950 . S
H1250 C1279 0.950 . S
H1251 C1280 0.950 . S
H1252 C1282 0.950 . S
H1253 C1283 0.950 . S
C1254 H1236 0.951 . S
C1254 C1255 1.366 . S
C1254 C1256 1.388 . S
C1255 C1254 1.366 . S
C1255 C1259 1.385 . S
C1256 H1237 0.951 . S
C1256 C1254 1.388 . S
C1256 C1257 1.366 . S
C1257 C1256 1.366 . S
C1257 C1258 1.414 . S
C1257 C1260 1.499 . S
C1258 H1238 0.950 . S
C1258 C1257 1.414 . S
C1258 C1259 1.374 . S
C1259 H1239 0.950 . S
C1259 C1255 1.385 . S
C1259 C1258 1.374 . S
C1260 C1257 1.499 . S
C1260 C1261 1.373 . S
C1260 C1262 1.389 . S
C1261 H1240 0.950 . S
C1261 C1260 1.373 . S
C1261 C1277 1.377 . S
C1262 C1260 1.389 . S
C1262 C1263 1.524 . S
C1262 C1276 1.377 . S
C1263 C1262 1.524 . S
C1263 C1264 1.397 . S
C1263 C1268 1.363 . S
C1264 H1241 0.950 . S
C1264 C1263 1.397 . S
C1264 C1265 1.334 . S
C1265 H1242 0.950 . S
C1265 C1264 1.334 . S
C1265 C1266 1.287 . S
C1266 C1265 1.287 . S
C1266 C1267 1.524 . S
C1266 H1285 0.913 . S
C1267 H1243 0.950 . S
C1267 C1266 1.524 . S
C1267 C1268 1.415 . S
C1268 H1244 0.950 . S
C1268 C1263 1.363 . S
C1268 C1267 1.415 . S
C1269 H1245 0.951 . S
C1269 C1270 1.366 . S
C1269 C1271 1.388 . S
C1270 C1269 1.366 . S
C1270 C1274 1.385 . S
C1271 H1246 0.951 . S
C1271 C1269 1.388 . S
C1271 C1272 1.366 . S
C1272 C1271 1.366 . S
C1272 C1273 1.414 . S
C1272 C1275 1.499 . S
C1273 H1247 0.950 . S
C1273 C1272 1.414 . S
C1273 C1274 1.374 . S
C1274 H1248 0.950 . S
C1274 C1270 1.385 . S
C1274 C1273 1.374 . S
C1275 C1272 1.499 . S
C1275 C1276 1.373 . S
C1275 C1277 1.389 . S
C1276 H1249 0.950 . S
C1276 C1262 1.377 . S
C1276 C1275 1.373 . S
C1277 C1261 1.377 . S
C1277 C1275 1.389 . S
C1277 C1278 1.524 . S
C1278 C1277 1.524 . S
C1278 C1279 1.397 . S
C1278 C1283 1.363 . S
C1279 H1250 0.950 . S
C1279 C1278 1.397 . S
C1279 C1280 1.334 . S
C1280 H1251 0.950 . S
C1280 C1279 1.334 . S
C1280 C1281 1.287 . S
C1281 C1280 1.287 . S
C1281 C1282 1.524 . S
C1281 H1284 0.999 . S
C1282 H1252 0.950 . S
C1282 C1281 1.524 . S
C1282 C1283 1.415 . S
C1283 H1253 0.950 . S
C1283 C1278 1.363 . S
C1283 C1282 1.415 . S
H1284 C1281 0.999 . S
H1285 C1266 0.913 . S
H1286 C1304 0.951 . S
H1287 C1306 0.951 . S
H1288 C1308 0.950 . S
H1289 C1309 0.950 . S
H1290 C1311 0.950 . S
H1291 C1314 0.950 . S
H1292 C1315 0.950 . S
H1293 C1317 0.950 . S
H1294 C1318 0.950 . S
H1295 C1319 0.951 . S
H1296 C1321 0.951 . S
H1297 C1323 0.950 . S
H1298 C1324 0.950 . S
H1299 C1326 0.950 . S
H1300 C1329 0.950 . S
H1301 C1330 0.950 . S
H1302 C1332 0.950 . S
H1303 C1333 0.950 . S
C1304 H1286 0.951 . S
C1304 C1305 1.366 . S
C1304 C1306 1.388 . S
C1305 C1304 1.366 . S
C1305 C1309 1.385 . S
C1306 H1287 0.951 . S
C1306 C1304 1.388 . S
C1306 C1307 1.366 . S
C1307 C1306 1.366 . S
C1307 C1308 1.414 . S
C1307 C1310 1.499 . S
C1308 H1288 0.950 . S
C1308 C1307 1.414 . S
C1308 C1309 1.374 . S
C1309 H1289 0.950 . S
C1309 C1305 1.385 . S
C1309 C1308 1.374 . S
C1310 C1307 1.499 . S
C1310 C1311 1.373 . S
C1310 C1312 1.389 . S
C1311 H1290 0.950 . S
C1311 C1310 1.373 . S
C1311 C1327 1.377 . S
C1312 C1310 1.389 . S
C1312 C1313 1.524 . S
C1312 C1326 1.377 . S
C1313 C1312 1.524 . S
C1313 C1314 1.397 . S
C1313 C1318 1.363 . S
C1314 H1291 0.950 . S
C1314 C1313 1.397 . S
C1314 C1315 1.334 . S
C1315 H1292 0.950 . S
C1315 C1314 1.334 . S
C1315 C1316 1.287 . S
C1316 C1315 1.287 . S
C1316 C1317 1.524 . S
C1316 H1335 0.913 . S
C1317 H1293 0.950 . S
C1317 C1316 1.524 . S
C1317 C1318 1.415 . S
C1318 H1294 0.950 . S
C1318 C1313 1.363 . S
C1318 C1317 1.415 . S
C1319 H1295 0.951 . S
C1319 C1320 1.366 . S
C1319 C1321 1.388 . S
C1320 C1319 1.366 . S
C1320 C1324 1.385 . S
C1321 H1296 0.951 . S
C1321 C1319 1.388 . S
C1321 C1322 1.366 . S
C1322 C1321 1.366 . S
C1322 C1323 1.414 . S
C1322 C1325 1.499 . S
C1323 H1297 0.950 . S
C1323 C1322 1.414 . S
C1323 C1324 1.374 . S
C1324 H1298 0.950 . S
C1324 C1320 1.385 . S
C1324 C1323 1.374 . S
C1325 C1322 1.499 . S
C1325 C1326 1.373 . S
C1325 C1327 1.389 . S
C1326 H1299 0.950 . S
C1326 C1312 1.377 . S
C1326 C1325 1.373 . S
C1327 C1311 1.377 . S
C1327 C1325 1.389 . S
C1327 C1328 1.524 . S
C1328 C1327 1.524 . S
C1328 C1329 1.397 . S
C1328 C1333 1.363 . S
C1329 H1300 0.950 . S
C1329 C1328 1.397 . S
C1329 C1330 1.334 . S
C1330 H1301 0.950 . S
C1330 C1329 1.334 . S
C1330 C1331 1.287 . S
C1331 C1330 1.287 . S
C1331 C1332 1.524 . S
C1331 H1334 0.999 . S
C1332 H1302 0.950 . S
C1332 C1331 1.524 . S
C1332 C1333 1.415 . S
C1333 H1303 0.950 . S
C1333 C1328 1.363 . S
C1333 C1332 1.415 . S
H1334 C1331 0.999 . S
H1335 C1316 0.913 . S
H1336 C1354 0.951 . S
H1337 C1356 0.951 . S
H1338 C1358 0.950 . S
H1339 C1359 0.950 . S
H1340 C1361 0.950 . S
H1341 C1364 0.950 . S
H1342 C1365 0.950 . S
H1343 C1367 0.950 . S
H1344 C1368 0.950 . S
H1345 C1369 0.951 . S
H1346 C1371 0.951 . S
H1347 C1373 0.950 . S
H1348 C1374 0.950 1_554 S
H1349 C1376 0.950 . S
H1350 C1379 0.950 . S
H1351 C1380 0.950 1_554 S
H1352 C1382 0.950 . S
H1353 C1383 0.950 . S
C1354 H1336 0.951 . S
C1354 C1355 1.366 . S
C1354 C1356 1.388 . S
C1355 C1354 1.366 . S
C1355 C1359 1.385 . S
C1356 H1337 0.951 . S
C1356 C1354 1.388 . S
C1356 C1357 1.366 . S
C1357 C1356 1.366 . S
C1357 C1358 1.414 . S
C1357 C1360 1.499 . S
C1358 H1338 0.950 . S
C1358 C1357 1.414 . S
C1358 C1359 1.374 . S
C1359 H1339 0.950 . S
C1359 C1355 1.385 . S
C1359 C1358 1.374 . S
C1360 C1357 1.499 . S
C1360 C1361 1.373 . S
C1360 C1362 1.389 . S
C1361 H1340 0.950 . S
C1361 C1360 1.373 . S
C1361 C1377 1.377 . S
C1362 C1360 1.389 . S
C1362 C1363 1.524 . S
C1362 C1376 1.377 . S
C1363 C1362 1.524 . S
C1363 C1364 1.397 . S
C1363 C1368 1.363 . S
C1364 H1341 0.950 . S
C1364 C1363 1.397 . S
C1364 C1365 1.334 . S
C1365 H1342 0.950 . S
C1365 C1364 1.334 . S
C1365 C1366 1.287 . S
C1366 C1365 1.287 . S
C1366 C1367 1.524 . S
C1366 H1385 0.913 . S
C1367 H1343 0.950 . S
C1367 C1366 1.524 . S
C1367 C1368 1.415 . S
C1368 H1344 0.950 . S
C1368 C1363 1.363 . S
C1368 C1367 1.415 . S
C1369 H1345 0.951 . S
C1369 C1370 1.366 . S
C1369 C1371 1.388 . S
C1370 C1369 1.366 . S
C1370 C1374 1.385 . S
C1371 H1346 0.951 . S
C1371 C1369 1.388 . S
C1371 C1372 1.366 . S
C1372 C1371 1.366 . S
C1372 C1373 1.414 . S
C1372 C1375 1.499 . S
C1373 H1347 0.950 . S
C1373 C1372 1.414 . S
C1373 C1374 1.374 . S
C1374 H1348 0.950 1_556 S
C1374 C1370 1.385 . S
C1374 C1373 1.374 . S
C1375 C1372 1.499 . S
C1375 C1376 1.373 . S
C1375 C1377 1.389 . S
C1376 H1349 0.950 . S
C1376 C1362 1.377 . S
C1376 C1375 1.373 . S
C1377 C1361 1.377 . S
C1377 C1375 1.389 . S
C1377 C1378 1.524 . S
C1378 C1377 1.524 . S
C1378 C1379 1.397 . S
C1378 C1383 1.363 . S
C1379 H1350 0.950 . S
C1379 C1378 1.397 . S
C1379 C1380 1.334 . S
C1380 H1351 0.950 1_556 S
C1380 C1379 1.334 . S
C1380 C1381 1.287 . S
C1381 C1380 1.287 . S
C1381 C1382 1.524 . S
C1381 H1384 0.987 1_556 S
C1382 H1352 0.950 . S
C1382 C1381 1.524 . S
C1382 C1383 1.415 . S
C1383 H1353 0.950 . S
C1383 C1378 1.363 . S
C1383 C1382 1.415 . S
H1384 C1381 0.987 1_554 S
H1385 C1366 0.913 . S
H1386 C1404 0.951 . S
H1387 C1406 0.951 . S
H1388 C1408 0.950 . S
H1389 C1409 0.950 . S
H1390 C1411 0.950 . S
H1391 C1414 0.950 . S
H1392 C1415 0.950 . S
H1393 C1417 0.950 . S
H1394 C1418 0.950 . S
H1395 C1419 0.951 . S
H1396 C1421 0.951 . S
H1397 C1423 0.950 . S
H1398 C1424 0.950 . S
H1399 C1426 0.950 . S
H1400 C1429 0.950 . S
H1401 C1430 0.950 . S
H1402 C1432 0.950 . S
H1403 C1433 0.950 . S
C1404 H1386 0.951 . S
C1404 C1405 1.366 . S
C1404 C1406 1.388 . S
C1405 C1404 1.366 . S
C1405 C1409 1.385 . S
C1406 H1387 0.951 . S
C1406 C1404 1.388 . S
C1406 C1407 1.366 . S
C1407 C1406 1.366 . S
C1407 C1408 1.414 . S
C1407 C1410 1.499 . S
C1408 H1388 0.950 . S
C1408 C1407 1.414 . S
C1408 C1409 1.374 . S
C1409 H1389 0.950 . S
C1409 C1405 1.385 . S
C1409 C1408 1.374 . S
C1410 C1407 1.499 . S
C1410 C1411 1.373 . S
C1410 C1412 1.389 . S
C1411 H1390 0.950 . S
C1411 C1410 1.373 . S
C1411 C1427 1.377 . S
C1412 C1410 1.389 . S
C1412 C1413 1.524 . S
C1412 C1426 1.377 . S
C1413 C1412 1.524 . S
C1413 C1414 1.397 . S
C1413 C1418 1.363 . S
C1414 H1391 0.950 . S
C1414 C1413 1.397 . S
C1414 C1415 1.334 . S
C1415 H1392 0.950 . S
C1415 C1414 1.334 . S
C1415 C1416 1.287 . S
C1416 C1415 1.287 . S
C1416 C1417 1.524 . S
C1416 H1435 0.913 . S
C1417 H1393 0.950 . S
C1417 C1416 1.524 . S
C1417 C1418 1.415 . S
C1418 H1394 0.950 . S
C1418 C1413 1.363 . S
C1418 C1417 1.415 . S
C1419 H1395 0.951 . S
C1419 C1420 1.366 . S
C1419 C1421 1.388 . S
C1420 C1419 1.366 . S
C1420 C1424 1.385 . S
C1421 H1396 0.951 . S
C1421 C1419 1.388 . S
C1421 C1422 1.366 . S
C1422 C1421 1.366 . S
C1422 C1423 1.414 . S
C1422 C1425 1.499 . S
C1423 H1397 0.950 . S
C1423 C1422 1.414 . S
C1423 C1424 1.374 . S
C1424 H1398 0.950 . S
C1424 C1420 1.385 . S
C1424 C1423 1.374 . S
C1425 C1422 1.499 . S
C1425 C1426 1.373 . S
C1425 C1427 1.389 . S
C1426 H1399 0.950 . S
C1426 C1412 1.377 . S
C1426 C1425 1.373 . S
C1427 C1411 1.377 . S
C1427 C1425 1.389 . S
C1427 C1428 1.524 . S
C1428 C1427 1.524 . S
C1428 C1429 1.397 . S
C1428 C1433 1.363 . S
C1429 H1400 0.950 . S
C1429 C1428 1.397 . S
C1429 C1430 1.334 . S
C1430 H1401 0.950 . S
C1430 C1429 1.334 . S
C1430 C1431 1.287 . S
C1431 C1430 1.287 . S
C1431 C1432 1.524 . S
C1431 H1434 0.999 . S
C1432 H1402 0.950 . S
C1432 C1431 1.524 . S
C1432 C1433 1.415 . S
C1433 H1403 0.950 . S
C1433 C1428 1.363 . S
C1433 C1432 1.415 . S
H1434 C1431 0.999 . S
H1435 C1416 0.913 . S
H1436 C1454 0.951 . S
H1437 C1456 0.951 . S
H1438 C1458 0.950 . S
H1439 C1459 0.950 . S
H1440 C1461 0.950 . S
H1441 C1464 0.950 . S
H1442 C1465 0.950 . S
H1443 C1467 0.950 . S
H1444 C1468 0.950 . S
H1445 C1469 0.951 . S
H1446 C1471 0.951 . S
H1447 C1473 0.950 . S
H1448 C1474 0.950 . S
H1449 C1476 0.950 . S
H1450 C1479 0.950 . S
H1451 C1480 0.950 . S
H1452 C1482 0.950 1_554 S
H1453 C1483 0.950 . S
C1454 H1436 0.951 . S
C1454 C1455 1.366 . S
C1454 C1456 1.388 . S
C1455 C1454 1.366 . S
C1455 C1459 1.385 . S
C1456 H1437 0.951 . S
C1456 C1454 1.388 . S
C1456 C1457 1.366 . S
C1457 C1456 1.366 . S
C1457 C1458 1.414 . S
C1457 C1460 1.499 . S
C1458 H1438 0.950 . S
C1458 C1457 1.414 . S
C1458 C1459 1.374 . S
C1459 H1439 0.950 . S
C1459 C1455 1.385 . S
C1459 C1458 1.374 . S
C1460 C1457 1.499 . S
C1460 C1461 1.373 . S
C1460 C1462 1.389 . S
C1461 H1440 0.950 . S
C1461 C1460 1.373 . S
C1461 C1477 1.377 . S
C1462 C1460 1.389 . S
C1462 C1463 1.524 . S
C1462 C1476 1.377 . S
C1463 C1462 1.524 . S
C1463 C1464 1.397 . S
C1463 C1468 1.363 . S
C1464 H1441 0.950 . S
C1464 C1463 1.397 . S
C1464 C1465 1.334 . S
C1465 H1442 0.950 . S
C1465 C1464 1.334 . S
C1465 C1466 1.287 . S
C1466 C1465 1.287 . S
C1466 C1467 1.524 . S
C1466 H1485 0.913 . S
C1467 H1443 0.950 . S
C1467 C1466 1.524 . S
C1467 C1468 1.415 . S
C1468 H1444 0.950 . S
C1468 C1463 1.363 . S
C1468 C1467 1.415 . S
C1469 H1445 0.951 . S
C1469 C1470 1.366 . S
C1469 C1471 1.388 . S
C1470 C1469 1.366 . S
C1470 C1474 1.385 . S
C1471 H1446 0.951 . S
C1471 C1469 1.388 . S
C1471 C1472 1.366 . S
C1472 C1471 1.366 . S
C1472 C1473 1.414 . S
C1472 C1475 1.499 . S
C1473 H1447 0.950 . S
C1473 C1472 1.414 . S
C1473 C1474 1.374 . S
C1474 H1448 0.950 . S
C1474 C1470 1.385 . S
C1474 C1473 1.374 . S
C1475 C1472 1.499 . S
C1475 C1476 1.373 . S
C1475 C1477 1.389 . S
C1476 H1449 0.950 . S
C1476 C1462 1.377 . S
C1476 C1475 1.373 . S
C1477 C1461 1.377 . S
C1477 C1475 1.389 . S
C1477 C1478 1.524 . S
C1478 C1477 1.524 . S
C1478 C1479 1.397 . S
C1478 C1483 1.363 . S
C1479 H1450 0.950 . S
C1479 C1478 1.397 . S
C1479 C1480 1.334 . S
C1480 H1451 0.950 . S
C1480 C1479 1.334 . S
C1480 C1481 1.287 . S
C1481 C1480 1.287 . S
C1481 C1482 1.524 . S
C1481 H1484 0.999 1_556 S
C1482 H1452 0.950 1_556 S
C1482 C1481 1.524 . S
C1482 C1483 1.415 . S
C1483 H1453 0.950 . S
C1483 C1478 1.363 . S
C1483 C1482 1.415 . S
H1484 C1481 0.999 1_554 S
H1485 C1466 0.913 . S
H1486 C1504 0.951 . S
H1487 C1506 0.951 . S
H1488 C1508 0.950 . S
H1489 C1509 0.950 . S
H1490 C1511 0.950 . S
H1491 C1514 0.950 . S
H1492 C1515 0.950 . S
H1493 C1517 0.950 . S
H1494 C1518 0.950 . S
H1495 C1519 0.951 . S
H1496 C1521 0.951 . S
H1497 C1523 0.950 . S
H1498 C1524 0.950 . S
H1499 C1526 0.950 . S
H1500 C1529 0.950 . S
H1501 C1530 0.950 . S
H1502 C1532 0.950 . S
H1503 C1533 0.950 . S
C1504 H1486 0.951 . S
C1504 C1505 1.366 . S
C1504 C1506 1.388 . S
C1505 C1504 1.366 . S
C1505 C1509 1.385 . S
C1506 H1487 0.951 . S
C1506 C1504 1.388 . S
C1506 C1507 1.366 . S
C1507 C1506 1.366 . S
C1507 C1508 1.414 . S
C1507 C1510 1.499 . S
C1508 H1488 0.950 . S
C1508 C1507 1.414 . S
C1508 C1509 1.374 . S
C1509 H1489 0.950 . S
C1509 C1505 1.385 . S
C1509 C1508 1.374 . S
C1510 C1507 1.499 . S
C1510 C1511 1.373 . S
C1510 C1512 1.389 . S
C1511 H1490 0.950 . S
C1511 C1510 1.373 . S
C1511 C1527 1.377 . S
C1512 C1510 1.389 . S
C1512 C1513 1.524 . S
C1512 C1526 1.377 . S
C1513 C1512 1.524 . S
C1513 C1514 1.397 . S
C1513 C1518 1.363 . S
C1514 H1491 0.950 . S
C1514 C1513 1.397 . S
C1514 C1515 1.334 . S
C1515 H1492 0.950 . S
C1515 C1514 1.334 . S
C1515 C1516 1.287 . S
C1516 C1515 1.287 . S
C1516 C1517 1.524 . S
C1516 H1535 0.913 . S
C1517 H1493 0.950 . S
C1517 C1516 1.524 . S
C1517 C1518 1.415 . S
C1518 H1494 0.950 . S
C1518 C1513 1.363 . S
C1518 C1517 1.415 . S
C1519 H1495 0.951 . S
C1519 C1520 1.366 . S
C1519 C1521 1.388 . S
C1520 C1519 1.366 . S
C1520 C1524 1.385 . S
C1521 H1496 0.951 . S
C1521 C1519 1.388 . S
C1521 C1522 1.366 . S
C1522 C1521 1.366 . S
C1522 C1523 1.414 . S
C1522 C1525 1.499 . S
C1523 H1497 0.950 . S
C1523 C1522 1.414 . S
C1523 C1524 1.374 . S
C1524 H1498 0.950 . S
C1524 C1520 1.385 . S
C1524 C1523 1.374 . S
C1525 C1522 1.499 . S
C1525 C1526 1.373 . S
C1525 C1527 1.389 . S
C1526 H1499 0.950 . S
C1526 C1512 1.377 . S
C1526 C1525 1.373 . S
C1527 C1511 1.377 . S
C1527 C1525 1.389 . S
C1527 C1528 1.524 . S
C1528 C1527 1.524 . S
C1528 C1529 1.397 . S
C1528 C1533 1.363 . S
C1529 H1500 0.950 . S
C1529 C1528 1.397 . S
C1529 C1530 1.334 . S
C1530 H1501 0.950 . S
C1530 C1529 1.334 . S
C1530 C1531 1.287 . S
C1531 C1530 1.287 . S
C1531 C1532 1.524 . S
C1531 H1534 0.999 . S
C1532 H1502 0.950 . S
C1532 C1531 1.524 . S
C1532 C1533 1.415 . S
C1533 H1503 0.950 . S
C1533 C1528 1.363 . S
C1533 C1532 1.415 . S
H1534 C1531 0.999 . S
H1535 C1516 0.913 . S
H1536 C1554 0.951 . S
H1537 C1556 0.951 . S
H1538 C1558 0.950 . S
H1539 C1559 0.950 . S
H1540 C1561 0.950 . S
H1541 C1564 0.950 . S
H1542 C1565 0.950 1_545 S
H1543 C1567 0.950 . S
H1544 C1568 0.950 . S
H1545 C1569 0.951 . S
H1546 C1571 0.951 . S
H1547 C1573 0.950 . S
H1548 C1574 0.950 . S
H1549 C1576 0.950 . S
H1550 C1579 0.950 . S
H1551 C1580 0.950 . S
H1552 C1582 0.950 . S
H1553 C1583 0.950 . S
C1554 H1536 0.951 . S
C1554 C1555 1.366 . S
C1554 C1556 1.388 . S
C1555 C1554 1.366 . S
C1555 C1559 1.385 . S
C1556 H1537 0.951 . S
C1556 C1554 1.388 . S
C1556 C1557 1.366 . S
C1557 C1556 1.366 . S
C1557 C1558 1.414 . S
C1557 C1560 1.499 . S
C1558 H1538 0.950 . S
C1558 C1557 1.414 . S
C1558 C1559 1.374 . S
C1559 H1539 0.950 . S
C1559 C1555 1.385 . S
C1559 C1558 1.374 . S
C1560 C1557 1.499 . S
C1560 C1561 1.373 . S
C1560 C1562 1.389 . S
C1561 H1540 0.950 . S
C1561 C1560 1.373 . S
C1561 C1577 1.377 . S
C1562 C1560 1.389 . S
C1562 C1563 1.524 . S
C1562 C1576 1.377 . S
C1563 C1562 1.524 . S
C1563 C1564 1.397 . S
C1563 C1568 1.363 . S
C1564 H1541 0.950 . S
C1564 C1563 1.397 . S
C1564 C1565 1.334 . S
C1565 H1542 0.950 1_565 S
C1565 C1564 1.334 . S
C1565 C1566 1.287 . S
C1566 C1565 1.287 . S
C1566 C1567 1.524 . S
C1566 H1585 0.913 . S
C1567 H1543 0.950 . S
C1567 C1566 1.524 . S
C1567 C1568 1.415 . S
C1568 H1544 0.950 . S
C1568 C1563 1.363 . S
C1568 C1567 1.415 . S
C1569 H1545 0.951 . S
C1569 C1570 1.366 . S
C1569 C1571 1.388 . S
C1570 C1569 1.366 . S
C1570 C1574 1.385 . S
C1571 H1546 0.951 . S
C1571 C1569 1.388 . S
C1571 C1572 1.366 . S
C1572 C1571 1.366 . S
C1572 C1573 1.414 . S
C1572 C1575 1.499 . S
C1573 H1547 0.950 . S
C1573 C1572 1.414 . S
C1573 C1574 1.374 . S
C1574 H1548 0.950 . S
C1574 C1570 1.385 . S
C1574 C1573 1.374 . S
C1575 C1572 1.499 . S
C1575 C1576 1.373 . S
C1575 C1577 1.389 . S
C1576 H1549 0.950 . S
C1576 C1562 1.377 . S
C1576 C1575 1.373 . S
C1577 C1561 1.377 . S
C1577 C1575 1.389 . S
C1577 C1578 1.524 . S
C1578 C1577 1.524 . S
C1578 C1579 1.397 . S
C1578 C1583 1.363 . S
C1579 H1550 0.950 . S
C1579 C1578 1.397 . S
C1579 C1580 1.334 . S
C1580 H1551 0.950 . S
C1580 C1579 1.334 . S
C1580 C1581 1.287 . S
C1581 C1580 1.287 . S
C1581 C1582 1.524 . S
C1581 H1584 0.999 . S
C1582 H1552 0.950 . S
C1582 C1581 1.524 . S
C1582 C1583 1.415 . S
C1583 H1553 0.950 . S
C1583 C1578 1.363 . S
C1583 C1582 1.415 . S
H1584 C1581 0.999 . S
H1585 C1566 0.913 . S
H1586 C1604 0.951 . S
H1587 C1606 0.951 . S
H1588 C1608 0.950 . S
H1589 C1609 0.950 . S
H1590 C1611 0.950 . S
H1591 C1614 0.950 . S
H1592 C1615 0.950 . S
H1593 C1617 0.950 . S
H1594 C1618 0.950 . S
H1595 C1619 0.951 . S
H1596 C1621 0.951 . S
H1597 C1623 0.950 . S
H1598 C1624 0.950 . S
H1599 C1626 0.950 . S
H1600 C1629 0.950 . S
H1601 C1630 0.950 . S
H1602 C1632 0.950 . S
H1603 C1633 0.950 . S
C1604 H1586 0.951 . S
C1604 C1605 1.366 . S
C1604 C1606 1.388 . S
C1605 C1604 1.366 . S
C1605 C1609 1.385 . S
C1606 H1587 0.951 . S
C1606 C1604 1.388 . S
C1606 C1607 1.366 . S
C1607 C1606 1.366 . S
C1607 C1608 1.414 . S
C1607 C1610 1.499 . S
C1608 H1588 0.950 . S
C1608 C1607 1.414 . S
C1608 C1609 1.374 . S
C1609 H1589 0.950 . S
C1609 C1605 1.385 . S
C1609 C1608 1.374 . S
C1610 C1607 1.499 . S
C1610 C1611 1.373 . S
C1610 C1612 1.389 . S
C1611 H1590 0.950 . S
C1611 C1610 1.373 . S
C1611 C1627 1.377 . S
C1612 C1610 1.389 . S
C1612 C1613 1.524 . S
C1612 C1626 1.377 . S
C1613 C1612 1.524 . S
C1613 C1614 1.397 . S
C1613 C1618 1.363 . S
C1614 H1591 0.950 . S
C1614 C1613 1.397 . S
C1614 C1615 1.334 . S
C1615 H1592 0.950 . S
C1615 C1614 1.334 . S
C1615 C1616 1.287 . S
C1616 C1615 1.287 . S
C1616 C1617 1.524 . S
C1616 H1635 0.913 . S
C1617 H1593 0.950 . S
C1617 C1616 1.524 . S
C1617 C1618 1.415 . S
C1618 H1594 0.950 . S
C1618 C1613 1.363 . S
C1618 C1617 1.415 . S
C1619 H1595 0.951 . S
C1619 C1620 1.366 . S
C1619 C1621 1.388 . S
C1620 C1619 1.366 . S
C1620 C1624 1.385 . S
C1621 H1596 0.951 . S
C1621 C1619 1.388 . S
C1621 C1622 1.366 . S
C1622 C1621 1.366 . S
C1622 C1623 1.414 . S
C1622 C1625 1.499 . S
C1623 H1597 0.950 . S
C1623 C1622 1.414 . S
C1623 C1624 1.374 . S
C1624 H1598 0.950 . S
C1624 C1620 1.385 . S
C1624 C1623 1.374 . S
C1625 C1622 1.499 . S
C1625 C1626 1.373 . S
C1625 C1627 1.389 . S
C1626 H1599 0.950 . S
C1626 C1612 1.377 . S
C1626 C1625 1.373 . S
C1627 C1611 1.377 . S
C1627 C1625 1.389 . S
C1627 C1628 1.524 . S
C1628 C1627 1.524 . S
C1628 C1629 1.397 . S
C1628 C1633 1.363 . S
C1629 H1600 0.950 . S
C1629 C1628 1.397 . S
C1629 C1630 1.334 . S
C1630 H1601 0.950 . S
C1630 C1629 1.334 . S
C1630 C1631 1.287 . S
C1631 C1630 1.287 . S
C1631 C1632 1.524 . S
C1631 H1634 0.999 . S
C1632 H1602 0.950 . S
C1632 C1631 1.524 . S
C1632 C1633 1.415 . S
C1633 H1603 0.950 . S
C1633 C1628 1.363 . S
C1633 C1632 1.415 . S
H1634 C1631 0.999 . S
H1635 C1616 0.913 . S
H1636 C1654 0.951 . S
H1637 C1656 0.951 . S
H1638 C1658 0.950 . S
H1639 C1659 0.950 . S
H1640 C1661 0.950 . S
H1641 C1664 0.950 . S
H1642 C1665 0.950 . S
H1643 C1667 0.950 . S
H1644 C1668 0.950 . S
H1645 C1669 0.951 . S
H1646 C1671 0.951 . S
H1647 C1673 0.950 . S
H1648 C1674 0.950 . S
H1649 C1676 0.950 . S
H1650 C1679 0.950 . S
H1651 C1680 0.950 . S
H1652 C1682 0.950 . S
H1653 C1683 0.950 . S
C1654 H1636 0.951 . S
C1654 C1655 1.366 . S
C1654 C1656 1.388 . S
C1655 C1654 1.366 . S
C1655 C1659 1.385 . S
C1656 H1637 0.951 . S
C1656 C1654 1.388 . S
C1656 C1657 1.366 . S
C1657 C1656 1.366 . S
C1657 C1658 1.414 . S
C1657 C1660 1.499 . S
C1658 H1638 0.950 . S
C1658 C1657 1.414 . S
C1658 C1659 1.374 . S
C1659 H1639 0.950 . S
C1659 C1655 1.385 . S
C1659 C1658 1.374 . S
C1660 C1657 1.499 . S
C1660 C1661 1.373 . S
C1660 C1662 1.389 . S
C1661 H1640 0.950 . S
C1661 C1660 1.373 . S
C1661 C1677 1.377 . S
C1662 C1660 1.389 . S
C1662 C1663 1.524 . S
C1662 C1676 1.377 . S
C1663 C1662 1.524 . S
C1663 C1664 1.397 . S
C1663 C1668 1.363 . S
C1664 H1641 0.950 . S
C1664 C1663 1.397 . S
C1664 C1665 1.334 . S
C1665 H1642 0.950 . S
C1665 C1664 1.334 . S
C1665 C1666 1.287 . S
C1666 C1665 1.287 . S
C1666 C1667 1.524 . S
C1666 H1685 0.913 . S
C1667 H1643 0.950 . S
C1667 C1666 1.524 . S
C1667 C1668 1.415 . S
C1668 H1644 0.950 . S
C1668 C1663 1.363 . S
C1668 C1667 1.415 . S
C1669 H1645 0.951 . S
C1669 C1670 1.366 . S
C1669 C1671 1.388 . S
C1670 C1669 1.366 . S
C1670 C1674 1.385 . S
C1671 H1646 0.951 . S
C1671 C1669 1.388 . S
C1671 C1672 1.366 . S
C1672 C1671 1.366 . S
C1672 C1673 1.414 . S
C1672 C1675 1.499 . S
C1673 H1647 0.950 . S
C1673 C1672 1.414 . S
C1673 C1674 1.374 . S
C1674 H1648 0.950 . S
C1674 C1670 1.385 . S
C1674 C1673 1.374 . S
C1675 C1672 1.499 . S
C1675 C1676 1.373 . S
C1675 C1677 1.389 . S
C1676 H1649 0.950 . S
C1676 C1662 1.377 . S
C1676 C1675 1.373 . S
C1677 C1661 1.377 . S
C1677 C1675 1.389 . S
C1677 C1678 1.524 . S
C1678 C1677 1.524 . S
C1678 C1679 1.397 . S
C1678 C1683 1.363 . S
C1679 H1650 0.950 . S
C1679 C1678 1.397 . S
C1679 C1680 1.334 . S
C1680 H1651 0.950 . S
C1680 C1679 1.334 . S
C1680 C1681 1.287 . S
C1681 C1680 1.287 . S
C1681 C1682 1.524 . S
C1681 H1684 0.999 . S
C1682 H1652 0.950 . S
C1682 C1681 1.524 . S
C1682 C1683 1.415 . S
C1683 H1653 0.950 . S
C1683 C1678 1.363 . S
C1683 C1682 1.415 . S
H1684 C1681 0.999 . S
H1685 C1666 0.913 . S
H1686 C1704 0.951 . S
H1687 C1706 0.951 . S
H1688 C1708 0.950 . S
H1689 C1709 0.950 . S
H1690 C1711 0.950 . S
H1691 C1714 0.950 . S
H1692 C1715 0.950 . S
H1693 C1717 0.950 . S
H1694 C1718 0.950 . S
H1695 C1719 0.951 . S
H1696 C1721 0.951 . S
H1697 C1723 0.950 . S
H1698 C1724 0.950 . S
H1699 C1726 0.950 . S
H1700 C1729 0.950 . S
H1701 C1730 0.950 . S
H1702 C1732 0.950 . S
H1703 C1733 0.950 . S
C1704 H1686 0.951 . S
C1704 C1705 1.366 . S
C1704 C1706 1.388 . S
C1705 C1704 1.366 . S
C1705 C1709 1.385 . S
C1706 H1687 0.951 . S
C1706 C1704 1.388 . S
C1706 C1707 1.366 . S
C1707 C1706 1.366 . S
C1707 C1708 1.414 . S
C1707 C1710 1.499 . S
C1708 H1688 0.950 . S
C1708 C1707 1.414 . S
C1708 C1709 1.374 . S
C1709 H1689 0.950 . S
C1709 C1705 1.385 . S
C1709 C1708 1.374 . S
C1710 C1707 1.499 . S
C1710 C1711 1.373 . S
C1710 C1712 1.389 . S
C1711 H1690 0.950 . S
C1711 C1710 1.373 . S
C1711 C1727 1.377 . S
C1712 C1710 1.389 . S
C1712 C1713 1.524 . S
C1712 C1726 1.377 . S
C1713 C1712 1.524 . S
C1713 C1714 1.397 . S
C1713 C1718 1.363 . S
C1714 H1691 0.950 . S
C1714 C1713 1.397 . S
C1714 C1715 1.334 . S
C1715 H1692 0.950 . S
C1715 C1714 1.334 . S
C1715 C1716 1.287 . S
C1716 C1715 1.287 . S
C1716 C1717 1.524 . S
C1716 H1735 0.913 . S
C1717 H1693 0.950 . S
C1717 C1716 1.524 . S
C1717 C1718 1.415 . S
C1718 H1694 0.950 . S
C1718 C1713 1.363 . S
C1718 C1717 1.415 . S
C1719 H1695 0.951 . S
C1719 C1720 1.366 . S
C1719 C1721 1.388 . S
C1720 C1719 1.366 . S
C1720 C1724 1.385 . S
C1721 H1696 0.951 . S
C1721 C1719 1.388 . S
C1721 C1722 1.366 . S
C1722 C1721 1.366 . S
C1722 C1723 1.414 . S
C1722 C1725 1.499 . S
C1723 H1697 0.950 . S
C1723 C1722 1.414 . S
C1723 C1724 1.374 . S
C1724 H1698 0.950 . S
C1724 C1720 1.385 . S
C1724 C1723 1.374 . S
C1725 C1722 1.499 . S
C1725 C1726 1.373 . S
C1725 C1727 1.389 . S
C1726 H1699 0.950 . S
C1726 C1712 1.377 . S
C1726 C1725 1.373 . S
C1727 C1711 1.377 . S
C1727 C1725 1.389 . S
C1727 C1728 1.524 . S
C1728 C1727 1.524 . S
C1728 C1729 1.397 . S
C1728 C1733 1.363 . S
C1729 H1700 0.950 . S
C1729 C1728 1.397 . S
C1729 C1730 1.334 . S
C1730 H1701 0.950 . S
C1730 C1729 1.334 . S
C1730 C1731 1.287 . S
C1731 C1730 1.287 . S
C1731 C1732 1.524 . S
C1731 H1734 0.999 . S
C1732 H1702 0.950 . S
C1732 C1731 1.524 . S
C1732 C1733 1.415 . S
C1733 H1703 0.950 . S
C1733 C1728 1.363 . S
C1733 C1732 1.415 . S
H1734 C1731 0.999 . S
H1735 C1716 0.913 . S
H1736 C1754 0.951 1_545 S
H1737 C1756 0.951 . S
H1738 C1758 0.950 . S
H1739 C1759 0.950 . S
H1740 C1761 0.950 . S
H1741 C1764 0.950 . S
H1742 C1765 0.950 . S
H1743 C1767 0.951 . S
H1744 C1768 0.950 . S
H1745 C1769 0.951 . S
H1746 C1771 0.951 . S
H1747 C1773 0.950 . S
H1748 C1774 0.950 . S
H1749 C1776 0.950 . S
H1750 C1779 0.950 . S
H1751 C1780 0.950 . S
H1752 C1782 0.950 . S
H1753 C1783 0.950 . S
C1754 H1736 0.951 1_565 S
C1754 C1755 1.366 . S
C1754 C1756 1.388 . S
C1755 C1754 1.366 . S
C1755 C1759 1.385 . S
C1756 H1737 0.951 . S
C1756 C1754 1.388 . S
C1756 C1757 1.366 . S
C1757 C1756 1.366 . S
C1757 C1758 1.414 . S
C1757 C1760 1.499 . S
C1758 H1738 0.950 . S
C1758 C1757 1.414 . S
C1758 C1759 1.374 . S
C1759 H1739 0.950 . S
C1759 C1755 1.385 . S
C1759 C1758 1.374 . S
C1760 C1757 1.499 . S
C1760 C1761 1.373 . S
C1760 C1762 1.389 . S
C1761 H1740 0.950 . S
C1761 C1760 1.373 . S
C1761 C1777 1.377 . S
C1762 C1760 1.389 . S
C1762 C1763 1.524 . S
C1762 C1776 1.377 . S
C1763 C1762 1.524 . S
C1763 C1764 1.397 . S
C1763 C1768 1.363 . S
C1764 H1741 0.950 . S
C1764 C1763 1.397 . S
C1764 C1765 1.334 . S
C1765 H1742 0.950 . S
C1765 C1764 1.334 . S
C1765 C1766 1.267 1_565 S
C1766 C1765 1.267 1_545 S
C1766 C1767 1.527 . S
C1766 H1785 0.935 . S
C1767 H1743 0.951 . S
C1767 C1766 1.527 . S
C1767 C1768 1.414 1_545 S
C1768 H1744 0.950 . S
C1768 C1763 1.363 . S
C1768 C1767 1.414 1_565 S
C1769 H1745 0.951 . S
C1769 C1770 1.366 . S
C1769 C1771 1.388 . S
C1770 C1769 1.366 . S
C1770 C1774 1.385 . S
C1771 H1746 0.951 . S
C1771 C1769 1.388 . S
C1771 C1772 1.366 . S
C1772 C1771 1.366 . S
C1772 C1773 1.414 . S
C1772 C1775 1.499 . S
C1773 H1747 0.950 . S
C1773 C1772 1.414 . S
C1773 C1774 1.374 . S
C1774 H1748 0.950 . S
C1774 C1770 1.385 . S
C1774 C1773 1.374 . S
C1775 C1772 1.499 . S
C1775 C1776 1.373 . S
C1775 C1777 1.389 . S
C1776 H1749 0.950 . S
C1776 C1762 1.377 . S
C1776 C1775 1.373 . S
C1777 C1761 1.377 . S
C1777 C1775 1.389 . S
C1777 C1778 1.524 . S
C1778 C1777 1.524 . S
C1778 C1779 1.397 . S
C1778 C1783 1.363 . S
C1779 H1750 0.950 . S
C1779 C1778 1.397 . S
C1779 C1780 1.334 . S
C1780 H1751 0.950 . S
C1780 C1779 1.334 . S
C1780 C1781 1.287 . S
C1781 C1780 1.287 . S
C1781 C1782 1.524 . S
C1781 H1784 0.999 . S
C1782 H1752 0.950 . S
C1782 C1781 1.524 . S
C1782 C1783 1.415 . S
C1783 H1753 0.950 . S
C1783 C1778 1.363 . S
C1783 C1782 1.415 . S
H1784 C1781 0.999 . S
H1785 C1766 0.935 . S
H1786 C1804 0.951 . S
H1787 C1806 0.951 . S
H1788 C1808 0.950 . S
H1789 C1809 0.950 . S
H1790 C1811 0.950 . S
H1791 C1814 0.950 . S
H1792 C1815 0.950 . S
H1793 C1817 0.950 . S
H1794 C1818 0.950 . S
H1795 C1819 0.951 . S
H1796 C1821 0.951 . S
H1797 C1823 0.950 . S
H1798 C1824 0.950 . S
H1799 C1826 0.950 . S
H1800 C1829 0.950 . S
H1801 C1830 0.950 . S
H1802 C1832 0.950 . S
H1803 C1833 0.950 . S
C1804 H1786 0.951 . S
C1804 C1805 1.366 . S
C1804 C1806 1.388 . S
C1805 C1804 1.366 . S
C1805 C1809 1.385 . S
C1806 H1787 0.951 . S
C1806 C1804 1.388 . S
C1806 C1807 1.366 . S
C1807 C1806 1.366 . S
C1807 C1808 1.414 . S
C1807 C1810 1.499 . S
C1808 H1788 0.950 . S
C1808 C1807 1.414 . S
C1808 C1809 1.374 . S
C1809 H1789 0.950 . S
C1809 C1805 1.385 . S
C1809 C1808 1.374 . S
C1810 C1807 1.499 . S
C1810 C1811 1.373 . S
C1810 C1812 1.389 . S
C1811 H1790 0.950 . S
C1811 C1810 1.373 . S
C1811 C1827 1.377 . S
C1812 C1810 1.389 . S
C1812 C1813 1.524 . S
C1812 C1826 1.377 . S
C1813 C1812 1.524 . S
C1813 C1814 1.397 . S
C1813 C1818 1.363 . S
C1814 H1791 0.950 . S
C1814 C1813 1.397 . S
C1814 C1815 1.334 . S
C1815 H1792 0.950 . S
C1815 C1814 1.334 . S
C1815 C1816 1.287 . S
C1816 C1815 1.287 . S
C1816 C1817 1.524 . S
C1816 H1835 0.913 . S
C1817 H1793 0.950 . S
C1817 C1816 1.524 . S
C1817 C1818 1.415 . S
C1818 H1794 0.950 . S
C1818 C1813 1.363 . S
C1818 C1817 1.415 . S
C1819 H1795 0.951 . S
C1819 C1820 1.366 . S
C1819 C1821 1.388 . S
C1820 C1819 1.366 . S
C1820 C1824 1.385 . S
C1821 H1796 0.951 . S
C1821 C1819 1.388 . S
C1821 C1822 1.366 . S
C1822 C1821 1.366 . S
C1822 C1823 1.414 . S
C1822 C1825 1.499 . S
C1823 H1797 0.950 . S
C1823 C1822 1.414 . S
C1823 C1824 1.374 . S
C1824 H1798 0.950 . S
C1824 C1820 1.385 . S
C1824 C1823 1.374 . S
C1825 C1822 1.499 . S
C1825 C1826 1.373 . S
C1825 C1827 1.389 . S
C1826 H1799 0.950 . S
C1826 C1812 1.377 . S
C1826 C1825 1.373 . S
C1827 C1811 1.377 . S
C1827 C1825 1.389 . S
C1827 C1828 1.524 . S
C1828 C1827 1.524 . S
C1828 C1829 1.397 . S
C1828 C1833 1.363 . S
C1829 H1800 0.950 . S
C1829 C1828 1.397 . S
C1829 C1830 1.334 . S
C1830 H1801 0.950 . S
C1830 C1829 1.334 . S
C1830 C1831 1.287 . S
C1831 C1830 1.287 . S
C1831 C1832 1.524 . S
C1831 H1834 0.999 . S
C1832 H1802 0.950 . S
C1832 C1831 1.524 . S
C1832 C1833 1.415 . S
C1833 H1803 0.950 . S
C1833 C1828 1.363 . S
C1833 C1832 1.415 . S
H1834 C1831 0.999 . S
H1835 C1816 0.913 . S
H1836 C1854 0.951 . S
H1837 C1856 0.951 . S
H1838 C1858 0.950 . S
H1839 C1859 0.950 1_455 S
H1840 C1861 0.950 . S
H1841 C1864 0.950 . S
H1842 C1865 0.950 . S
H1843 C1867 0.950 . S
H1844 C1868 0.950 . S
H1845 C1869 0.951 . S
H1846 C1871 0.951 . S
H1847 C1873 0.950 . S
H1848 C1874 0.950 . S
H1849 C1876 0.950 . S
H1850 C1879 0.950 . S
H1851 C1880 0.950 . S
H1852 C1882 0.950 . S
H1853 C1883 0.950 . S
C1854 H1836 0.951 . S
C1854 C1855 1.366 . S
C1854 C1856 1.388 . S
C1855 C1854 1.366 . S
C1855 C1859 1.385 . S
C1856 H1837 0.951 . S
C1856 C1854 1.388 . S
C1856 C1857 1.366 . S
C1857 C1856 1.366 . S
C1857 C1858 1.414 . S
C1857 C1860 1.499 . S
C1858 H1838 0.950 . S
C1858 C1857 1.414 . S
C1858 C1859 1.374 . S
C1859 H1839 0.950 1_655 S
C1859 C1855 1.385 . S
C1859 C1858 1.374 . S
C1860 C1857 1.499 . S
C1860 C1861 1.373 . S
C1860 C1862 1.389 . S
C1861 H1840 0.950 . S
C1861 C1860 1.373 . S
C1861 C1877 1.377 . S
C1862 C1860 1.389 . S
C1862 C1863 1.524 . S
C1862 C1876 1.377 . S
C1863 C1862 1.524 . S
C1863 C1864 1.397 . S
C1863 C1868 1.363 . S
C1864 H1841 0.950 . S
C1864 C1863 1.397 . S
C1864 C1865 1.334 . S
C1865 H1842 0.950 . S
C1865 C1864 1.334 . S
C1865 C1866 1.287 . S
C1866 C1865 1.287 . S
C1866 C1867 1.524 . S
C1866 H1885 0.913 . S
C1867 H1843 0.950 . S
C1867 C1866 1.524 . S
C1867 C1868 1.415 . S
C1868 H1844 0.950 . S
C1868 C1863 1.363 . S
C1868 C1867 1.415 . S
C1869 H1845 0.951 . S
C1869 C1870 1.366 . S
C1869 C1871 1.388 . S
C1870 C1869 1.366 . S
C1870 C1874 1.385 . S
C1871 H1846 0.951 . S
C1871 C1869 1.388 . S
C1871 C1872 1.366 . S
C1872 C1871 1.366 . S
C1872 C1873 1.414 . S
C1872 C1875 1.499 . S
C1873 H1847 0.950 . S
C1873 C1872 1.414 . S
C1873 C1874 1.374 . S
C1874 H1848 0.950 . S
C1874 C1870 1.385 . S
C1874 C1873 1.374 . S
C1875 C1872 1.499 . S
C1875 C1876 1.373 . S
C1875 C1877 1.389 . S
C1876 H1849 0.950 . S
C1876 C1862 1.377 . S
C1876 C1875 1.373 . S
C1877 C1861 1.377 . S
C1877 C1875 1.389 . S
C1877 C1878 1.524 . S
C1878 C1877 1.524 . S
C1878 C1879 1.397 . S
C1878 C1883 1.363 . S
C1879 H1850 0.950 . S
C1879 C1878 1.397 . S
C1879 C1880 1.334 . S
C1880 H1851 0.950 . S
C1880 C1879 1.334 . S
C1880 C1881 1.287 . S
C1881 C1880 1.287 . S
C1881 C1882 1.524 . S
C1881 H1884 0.999 . S
C1882 H1852 0.950 . S
C1882 C1881 1.524 . S
C1882 C1883 1.415 . S
C1883 H1853 0.950 . S
C1883 C1878 1.363 . S
C1883 C1882 1.415 . S
H1884 C1881 0.999 . S
H1885 C1866 0.913 . S
H1886 C1904 0.951 . S
H1887 C1906 0.951 . S
H1888 C1908 0.950 . S
H1889 C1909 0.950 . S
H1890 C1911 0.950 . S
H1891 C1914 0.950 . S
H1892 C1915 0.950 . S
H1893 C1917 0.950 . S
H1894 C1918 0.950 . S
H1895 C1919 0.951 . S
H1896 C1921 0.951 . S
H1897 C1923 0.950 . S
H1898 C1924 0.950 . S
H1899 C1926 0.950 . S
H1900 C1929 0.950 . S
H1901 C1930 0.950 . S
H1902 C1932 0.950 . S
H1903 C1933 0.950 . S
C1904 H1886 0.951 . S
C1904 C1905 1.366 . S
C1904 C1906 1.388 . S
C1905 C1904 1.366 . S
C1905 C1909 1.385 . S
C1906 H1887 0.951 . S
C1906 C1904 1.388 . S
C1906 C1907 1.366 . S
C1907 C1906 1.366 . S
C1907 C1908 1.414 . S
C1907 C1910 1.499 . S
C1908 H1888 0.950 . S
C1908 C1907 1.414 . S
C1908 C1909 1.374 . S
C1909 H1889 0.950 . S
C1909 C1905 1.385 . S
C1909 C1908 1.374 . S
C1910 C1907 1.499 . S
C1910 C1911 1.373 . S
C1910 C1912 1.389 . S
C1911 H1890 0.950 . S
C1911 C1910 1.373 . S
C1911 C1927 1.377 . S
C1912 C1910 1.389 . S
C1912 C1913 1.524 . S
C1912 C1926 1.377 . S
C1913 C1912 1.524 . S
C1913 C1914 1.397 . S
C1913 C1918 1.363 . S
C1914 H1891 0.950 . S
C1914 C1913 1.397 . S
C1914 C1915 1.334 . S
C1915 H1892 0.950 . S
C1915 C1914 1.334 . S
C1915 C1916 1.287 . S
C1916 C1915 1.287 . S
C1916 C1917 1.524 . S
C1916 H1935 0.913 . S
C1917 H1893 0.950 . S
C1917 C1916 1.524 . S
C1917 C1918 1.415 . S
C1918 H1894 0.950 . S
C1918 C1913 1.363 . S
C1918 C1917 1.415 . S
C1919 H1895 0.951 . S
C1919 C1920 1.366 . S
C1919 C1921 1.388 . S
C1920 C1919 1.366 . S
C1920 C1924 1.385 . S
C1921 H1896 0.951 . S
C1921 C1919 1.388 . S
C1921 C1922 1.366 . S
C1922 C1921 1.366 . S
C1922 C1923 1.414 . S
C1922 C1925 1.499 . S
C1923 H1897 0.950 . S
C1923 C1922 1.414 . S
C1923 C1924 1.374 . S
C1924 H1898 0.950 . S
C1924 C1920 1.385 . S
C1924 C1923 1.374 . S
C1925 C1922 1.499 . S
C1925 C1926 1.373 . S
C1925 C1927 1.389 . S
C1926 H1899 0.950 . S
C1926 C1912 1.377 . S
C1926 C1925 1.373 . S
C1927 C1911 1.377 . S
C1927 C1925 1.389 . S
C1927 C1928 1.524 . S
C1928 C1927 1.524 . S
C1928 C1929 1.397 . S
C1928 C1933 1.363 . S
C1929 H1900 0.950 . S
C1929 C1928 1.397 . S
C1929 C1930 1.334 . S
C1930 H1901 0.950 . S
C1930 C1929 1.334 . S
C1930 C1931 1.287 . S
C1931 C1930 1.287 . S
C1931 C1932 1.524 . S
C1931 H1934 0.999 . S
C1932 H1902 0.950 . S
C1932 C1931 1.524 . S
C1932 C1933 1.415 . S
C1933 H1903 0.950 . S
C1933 C1928 1.363 . S
C1933 C1932 1.415 . S
H1934 C1931 0.999 . S
H1935 C1916 0.913 . S
H1936 C1954 0.951 . S
H1937 C1956 0.951 . S
H1938 C1958 0.950 . S
H1939 C1959 0.950 . S
H1940 C1961 0.950 . S
H1941 C1964 0.950 . S
H1942 C1965 0.950 . S
H1943 C1967 0.950 . S
H1944 C1968 0.950 . S
H1945 C1969 0.951 . S
H1946 C1971 0.951 . S
H1947 C1973 0.950 . S
H1948 C1974 0.950 . S
H1949 C1976 0.950 . S
H1950 C1979 0.950 . S
H1951 C1980 0.950 . S
H1952 C1982 0.950 . S
H1953 C1983 0.950 . S
C1954 H1936 0.951 . S
C1954 C1955 1.366 . S
C1954 C1956 1.388 . S
C1955 C1954 1.366 . S
C1955 C1959 1.385 . S
C1956 H1937 0.951 . S
C1956 C1954 1.388 . S
C1956 C1957 1.366 . S
C1957 C1956 1.366 . S
C1957 C1958 1.414 . S
C1957 C1960 1.499 . S
C1958 H1938 0.950 . S
C1958 C1957 1.414 . S
C1958 C1959 1.374 . S
C1959 H1939 0.950 . S
C1959 C1955 1.385 . S
C1959 C1958 1.374 . S
C1960 C1957 1.499 . S
C1960 C1961 1.373 . S
C1960 C1962 1.389 . S
C1961 H1940 0.950 . S
C1961 C1960 1.373 . S
C1961 C1977 1.377 . S
C1962 C1960 1.389 . S
C1962 C1963 1.524 . S
C1962 C1976 1.377 . S
C1963 C1962 1.524 . S
C1963 C1964 1.397 . S
C1963 C1968 1.363 . S
C1964 H1941 0.950 . S
C1964 C1963 1.397 . S
C1964 C1965 1.334 . S
C1965 H1942 0.950 . S
C1965 C1964 1.334 . S
C1965 C1966 1.287 . S
C1966 C1965 1.287 . S
C1966 C1967 1.524 . S
C1966 H1985 0.913 . S
C1967 H1943 0.950 . S
C1967 C1966 1.524 . S
C1967 C1968 1.415 . S
C1968 H1944 0.950 . S
C1968 C1963 1.363 . S
C1968 C1967 1.415 . S
C1969 H1945 0.951 . S
C1969 C1970 1.366 . S
C1969 C1971 1.388 . S
C1970 C1969 1.366 . S
C1970 C1974 1.385 . S
C1971 H1946 0.951 . S
C1971 C1969 1.388 . S
C1971 C1972 1.366 . S
C1972 C1971 1.366 . S
C1972 C1973 1.414 . S
C1972 C1975 1.499 . S
C1973 H1947 0.950 . S
C1973 C1972 1.414 . S
C1973 C1974 1.374 . S
C1974 H1948 0.950 . S
C1974 C1970 1.385 . S
C1974 C1973 1.374 . S
C1975 C1972 1.499 . S
C1975 C1976 1.373 . S
C1975 C1977 1.389 . S
C1976 H1949 0.950 . S
C1976 C1962 1.377 . S
C1976 C1975 1.373 . S
C1977 C1961 1.377 . S
C1977 C1975 1.389 . S
C1977 C1978 1.524 . S
C1978 C1977 1.524 . S
C1978 C1979 1.397 . S
C1978 C1983 1.363 . S
C1979 H1950 0.950 . S
C1979 C1978 1.397 . S
C1979 C1980 1.334 . S
C1980 H1951 0.950 . S
C1980 C1979 1.334 . S
C1980 C1981 1.287 . S
C1981 C1980 1.287 . S
C1981 C1982 1.524 . S
C1981 H1984 0.999 . S
C1982 H1952 0.950 . S
C1982 C1981 1.524 . S
C1982 C1983 1.415 . S
C1983 H1953 0.950 . S
C1983 C1978 1.363 . S
C1983 C1982 1.415 . S
H1984 C1981 0.999 . S
H1985 C1966 0.913 . S
H1986 C2004 0.951 . S
H1987 C2006 0.951 . S
H1988 C2008 0.950 . S
H1989 C2009 0.950 . S
H1990 C2011 0.950 . S
H1991 C2014 0.950 . S
H1992 C2015 0.950 . S
H1993 C2017 0.950 . S
H1994 C2018 0.950 . S
H1995 C2019 0.951 . S
H1996 C2021 0.951 . S
H1997 C2023 0.950 . S
H1998 C2024 0.950 . S
H1999 C2026 0.950 . S
H2000 C2029 0.950 . S
H2001 C2030 0.950 . S
H2002 C2032 0.950 . S
H2003 C2033 0.950 . S
C2004 H1986 0.951 . S
C2004 C2005 1.366 . S
C2004 C2006 1.388 . S
C2005 C2004 1.366 . S
C2005 C2009 1.385 . S
C2006 H1987 0.951 . S
C2006 C2004 1.388 . S
C2006 C2007 1.366 . S
C2007 C2006 1.366 . S
C2007 C2008 1.414 . S
C2007 C2010 1.499 . S
C2008 H1988 0.950 . S
C2008 C2007 1.414 . S
C2008 C2009 1.374 . S
C2009 H1989 0.950 . S
C2009 C2005 1.385 . S
C2009 C2008 1.374 . S
C2010 C2007 1.499 . S
C2010 C2011 1.373 . S
C2010 C2012 1.389 . S
C2011 H1990 0.950 . S
C2011 C2010 1.373 . S
C2011 C2027 1.377 . S
C2012 C2010 1.389 . S
C2012 C2013 1.524 . S
C2012 C2026 1.377 . S
C2013 C2012 1.524 . S
C2013 C2014 1.397 . S
C2013 C2018 1.363 . S
C2014 H1991 0.950 . S
C2014 C2013 1.397 . S
C2014 C2015 1.334 . S
C2015 H1992 0.950 . S
C2015 C2014 1.334 . S
C2015 C2016 1.287 . S
C2016 C2015 1.287 . S
C2016 C2017 1.524 . S
C2016 H2035 0.913 . S
C2017 H1993 0.950 . S
C2017 C2016 1.524 . S
C2017 C2018 1.415 . S
C2018 H1994 0.950 . S
C2018 C2013 1.363 . S
C2018 C2017 1.415 . S
C2019 H1995 0.951 . S
C2019 C2020 1.366 . S
C2019 C2021 1.388 . S
C2020 C2019 1.366 . S
C2020 C2024 1.385 . S
C2021 H1996 0.951 . S
C2021 C2019 1.388 . S
C2021 C2022 1.366 . S
C2022 C2021 1.366 . S
C2022 C2023 1.414 . S
C2022 C2025 1.499 . S
C2023 H1997 0.950 . S
C2023 C2022 1.414 . S
C2023 C2024 1.374 . S
C2024 H1998 0.950 . S
C2024 C2020 1.385 . S
C2024 C2023 1.374 . S
C2025 C2022 1.499 . S
C2025 C2026 1.373 . S
C2025 C2027 1.389 . S
C2026 H1999 0.950 . S
C2026 C2012 1.377 . S
C2026 C2025 1.373 . S
C2027 C2011 1.377 . S
C2027 C2025 1.389 . S
C2027 C2028 1.524 . S
C2028 C2027 1.524 . S
C2028 C2029 1.397 . S
C2028 C2033 1.363 . S
C2029 H2000 0.950 . S
C2029 C2028 1.397 . S
C2029 C2030 1.334 . S
C2030 H2001 0.950 . S
C2030 C2029 1.334 . S
C2030 C2031 1.287 . S
C2031 C2030 1.287 . S
C2031 C2032 1.524 . S
C2031 H2034 0.999 . S
C2032 H2002 0.950 . S
C2032 C2031 1.524 . S
C2032 C2033 1.415 . S
C2033 H2003 0.950 . S
C2033 C2028 1.363 . S
C2033 C2032 1.415 . S
H2034 C2031 0.999 . S
H2035 C2016 0.913 . S
H2036 C2054 0.951 . S
H2037 C2056 0.951 . S
H2038 C2058 0.950 . S
H2039 C2059 0.950 . S
H2040 C2061 0.950 . S
H2041 C2064 0.950 . S
H2042 C2065 0.950 . S
H2043 C2067 0.950 . S
H2044 C2068 0.950 . S
H2045 C2069 0.951 . S
H2046 C2071 0.951 . S
H2047 C2073 0.950 . S
H2048 C2074 0.950 . S
H2049 C2076 0.950 . S
H2050 C2079 0.950 . S
H2051 C2080 0.950 . S
H2052 C2082 0.950 . S
H2053 C2083 0.950 . S
C2054 H2036 0.951 . S
C2054 C2055 1.366 . S
C2054 C2056 1.388 . S
C2055 C2054 1.366 . S
C2055 C2059 1.385 . S
C2056 H2037 0.951 . S
C2056 C2054 1.388 . S
C2056 C2057 1.366 . S
C2057 C2056 1.366 . S
C2057 C2058 1.414 . S
C2057 C2060 1.499 . S
C2058 H2038 0.950 . S
C2058 C2057 1.414 . S
C2058 C2059 1.374 . S
C2059 H2039 0.950 . S
C2059 C2055 1.385 . S
C2059 C2058 1.374 . S
C2060 C2057 1.499 . S
C2060 C2061 1.373 . S
C2060 C2062 1.389 . S
C2061 H2040 0.950 . S
C2061 C2060 1.373 . S
C2061 C2077 1.377 . S
C2062 C2060 1.389 . S
C2062 C2063 1.524 . S
C2062 C2076 1.377 . S
C2063 C2062 1.524 . S
C2063 C2064 1.397 . S
C2063 C2068 1.363 . S
C2064 H2041 0.950 . S
C2064 C2063 1.397 . S
C2064 C2065 1.334 . S
C2065 H2042 0.950 . S
C2065 C2064 1.334 . S
C2065 C2066 1.287 . S
C2066 C2065 1.287 . S
C2066 C2067 1.524 . S
C2066 H2085 0.913 . S
C2067 H2043 0.950 . S
C2067 C2066 1.524 . S
C2067 C2068 1.415 . S
C2068 H2044 0.950 . S
C2068 C2063 1.363 . S
C2068 C2067 1.415 . S
C2069 H2045 0.951 . S
C2069 C2070 1.366 . S
C2069 C2071 1.388 . S
C2070 C2069 1.366 . S
C2070 C2074 1.385 . S
C2071 H2046 0.951 . S
C2071 C2069 1.388 . S
C2071 C2072 1.366 . S
C2072 C2071 1.366 . S
C2072 C2073 1.414 . S
C2072 C2075 1.499 . S
C2073 H2047 0.950 . S
C2073 C2072 1.414 . S
C2073 C2074 1.374 . S
C2074 H2048 0.950 . S
C2074 C2070 1.385 . S
C2074 C2073 1.374 . S
C2075 C2072 1.499 . S
C2075 C2076 1.373 . S
C2075 C2077 1.389 . S
C2076 H2049 0.950 . S
C2076 C2062 1.377 . S
C2076 C2075 1.373 . S
C2077 C2061 1.377 . S
C2077 C2075 1.389 . S
C2077 C2078 1.524 . S
C2078 C2077 1.524 . S
C2078 C2079 1.397 . S
C2078 C2083 1.363 . S
C2079 H2050 0.950 . S
C2079 C2078 1.397 . S
C2079 C2080 1.334 . S
C2080 H2051 0.950 . S
C2080 C2079 1.334 . S
C2080 C2081 1.287 . S
C2081 C2080 1.287 . S
C2081 C2082 1.524 . S
C2081 H2084 0.999 . S
C2082 H2052 0.950 . S
C2082 C2081 1.524 . S
C2082 C2083 1.415 . S
C2083 H2053 0.950 . S
C2083 C2078 1.363 . S
C2083 C2082 1.415 . S
H2084 C2081 0.999 . S
H2085 C2066 0.913 . S
H2086 C2104 0.951 . S
H2087 C2106 0.951 . S
H2088 C2108 0.950 . S
H2089 C2109 0.950 . S
H2090 C2111 0.950 . S
H2091 C2114 0.950 . S
H2092 C2115 0.950 . S
H2093 C2117 0.950 1_545 S
H2094 C2118 0.950 . S
H2095 C2119 0.951 . S
H2096 C2121 0.951 . S
H2097 C2123 0.950 . S
H2098 C2124 0.950 . S
H2099 C2126 0.950 . S
H2100 C2129 0.950 . S
H2101 C2130 0.950 . S
H2102 C2132 0.950 . S
H2103 C2133 0.950 . S
C2104 H2086 0.951 . S
C2104 C2105 1.366 . S
C2104 C2106 1.388 . S
C2105 C2104 1.366 . S
C2105 C2109 1.385 . S
C2106 H2087 0.951 . S
C2106 C2104 1.388 . S
C2106 C2107 1.366 . S
C2107 C2106 1.366 . S
C2107 C2108 1.414 . S
C2107 C2110 1.499 . S
C2108 H2088 0.950 . S
C2108 C2107 1.414 . S
C2108 C2109 1.374 . S
C2109 H2089 0.950 . S
C2109 C2105 1.385 . S
C2109 C2108 1.374 . S
C2110 C2107 1.499 . S
C2110 C2111 1.373 . S
C2110 C2112 1.389 . S
C2111 H2090 0.950 . S
C2111 C2110 1.373 . S
C2111 C2127 1.377 . S
C2112 C2110 1.389 . S
C2112 C2113 1.524 . S
C2112 C2126 1.377 . S
C2113 C2112 1.524 . S
C2113 C2114 1.397 . S
C2113 C2118 1.363 . S
C2114 H2091 0.950 . S
C2114 C2113 1.397 . S
C2114 C2115 1.334 . S
C2115 H2092 0.950 . S
C2115 C2114 1.334 . S
C2115 C2116 1.287 1_565 S
C2116 C2115 1.287 1_545 S
C2116 C2117 1.524 1_545 S
C2116 H2135 0.913 . S
C2117 H2093 0.950 1_565 S
C2117 C2116 1.524 1_565 S
C2117 C2118 1.415 . S
C2118 H2094 0.950 . S
C2118 C2113 1.363 . S
C2118 C2117 1.415 . S
C2119 H2095 0.951 . S
C2119 C2120 1.366 . S
C2119 C2121 1.388 . S
C2120 C2119 1.366 . S
C2120 C2124 1.385 . S
C2121 H2096 0.951 . S
C2121 C2119 1.388 . S
C2121 C2122 1.366 . S
C2122 C2121 1.366 . S
C2122 C2123 1.414 . S
C2122 C2125 1.499 . S
C2123 H2097 0.950 . S
C2123 C2122 1.414 . S
C2123 C2124 1.374 . S
C2124 H2098 0.950 . S
C2124 C2120 1.385 . S
C2124 C2123 1.374 . S
C2125 C2122 1.499 . S
C2125 C2126 1.373 . S
C2125 C2127 1.389 . S
C2126 H2099 0.950 . S
C2126 C2112 1.377 . S
C2126 C2125 1.373 . S
C2127 C2111 1.377 . S
C2127 C2125 1.389 . S
C2127 C2128 1.524 . S
C2128 C2127 1.524 . S
C2128 C2129 1.397 . S
C2128 C2133 1.363 . S
C2129 H2100 0.950 . S
C2129 C2128 1.397 . S
C2129 C2130 1.334 . S
C2130 H2101 0.950 . S
C2130 C2129 1.334 . S
C2130 C2131 1.287 . S
C2131 C2130 1.287 . S
C2131 C2132 1.524 . S
C2131 H2134 0.999 . S
C2132 H2102 0.950 . S
C2132 C2131 1.524 . S
C2132 C2133 1.415 . S
C2133 H2103 0.950 . S
C2133 C2128 1.363 . S
C2133 C2132 1.415 . S
H2134 C2131 0.999 . S
H2135 C2116 0.913 . S
H2136 C2154 0.951 . S
H2137 C2156 0.951 . S
H2138 C2158 0.950 . S
H2139 C2159 0.950 1_455 S
H2140 C2161 0.950 . S
H2141 C2164 0.950 . S
H2142 C2165 0.950 . S
H2143 C2167 0.950 . S
H2144 C2168 0.950 . S
H2145 C2169 0.951 . S
H2146 C2171 0.951 . S
H2147 C2173 0.950 . S
H2148 C2174 0.950 . S
H2149 C2176 0.950 . S
H2150 C2179 0.950 . S
H2151 C2180 0.950 . S
H2152 C2182 0.950 . S
H2153 C2183 0.950 . S
C2154 H2136 0.951 . S
C2154 C2155 1.366 . S
C2154 C2156 1.388 . S
C2155 C2154 1.366 . S
C2155 C2159 1.385 . S
C2156 H2137 0.951 . S
C2156 C2154 1.388 . S
C2156 C2157 1.366 . S
C2157 C2156 1.366 . S
C2157 C2158 1.414 . S
C2157 C2160 1.499 . S
C2158 H2138 0.950 . S
C2158 C2157 1.414 . S
C2158 C2159 1.374 . S
C2159 H2139 0.950 1_655 S
C2159 C2155 1.385 . S
C2159 C2158 1.374 . S
C2160 C2157 1.499 . S
C2160 C2161 1.373 . S
C2160 C2162 1.389 . S
C2161 H2140 0.950 . S
C2161 C2160 1.373 . S
C2161 C2177 1.377 . S
C2162 C2160 1.389 . S
C2162 C2163 1.524 . S
C2162 C2176 1.377 . S
C2163 C2162 1.524 . S
C2163 C2164 1.397 . S
C2163 C2168 1.363 . S
C2164 H2141 0.950 . S
C2164 C2163 1.397 . S
C2164 C2165 1.334 . S
C2165 H2142 0.950 . S
C2165 C2164 1.334 . S
C2165 C2166 1.287 . S
C2166 C2165 1.287 . S
C2166 C2167 1.524 . S
C2166 H2185 0.913 . S
C2167 H2143 0.950 . S
C2167 C2166 1.524 . S
C2167 C2168 1.415 . S
C2168 H2144 0.950 . S
C2168 C2163 1.363 . S
C2168 C2167 1.415 . S
C2169 H2145 0.951 . S
C2169 C2170 1.366 . S
C2169 C2171 1.388 . S
C2170 C2169 1.366 . S
C2170 C2174 1.385 . S
C2171 H2146 0.951 . S
C2171 C2169 1.388 . S
C2171 C2172 1.366 . S
C2172 C2171 1.366 . S
C2172 C2173 1.414 . S
C2172 C2175 1.499 . S
C2173 H2147 0.950 . S
C2173 C2172 1.414 . S
C2173 C2174 1.374 . S
C2174 H2148 0.950 . S
C2174 C2170 1.385 . S
C2174 C2173 1.374 . S
C2175 C2172 1.499 . S
C2175 C2176 1.373 . S
C2175 C2177 1.389 . S
C2176 H2149 0.950 . S
C2176 C2162 1.377 . S
C2176 C2175 1.373 . S
C2177 C2161 1.377 . S
C2177 C2175 1.389 . S
C2177 C2178 1.524 . S
C2178 C2177 1.524 . S
C2178 C2179 1.397 . S
C2178 C2183 1.363 . S
C2179 H2150 0.950 . S
C2179 C2178 1.397 . S
C2179 C2180 1.334 . S
C2180 H2151 0.950 . S
C2180 C2179 1.334 . S
C2180 C2181 1.287 . S
C2181 C2180 1.287 . S
C2181 C2182 1.524 . S
C2181 H2184 0.999 . S
C2182 H2152 0.950 . S
C2182 C2181 1.524 . S
C2182 C2183 1.415 . S
C2183 H2153 0.950 . S
C2183 C2178 1.363 . S
C2183 C2182 1.415 . S
H2184 C2181 0.999 . S
H2185 C2166 0.913 . S
H2186 C2204 0.951 . S
H2187 C2206 0.951 . S
H2188 C2208 0.950 . S
H2189 C2209 0.950 . S
H2190 C2211 0.950 . S
H2191 C2214 0.950 . S
H2192 C2215 0.950 . S
H2193 C2217 0.950 . S
H2194 C2218 0.950 . S
H2195 C2219 0.951 . S
H2196 C2221 0.951 . S
H2197 C2223 0.950 . S
H2198 C2224 0.950 . S
H2199 C2226 0.950 . S
H2200 C2229 0.950 . S
H2201 C2230 0.950 . S
H2202 C2232 0.950 . S
H2203 C2233 0.950 . S
C2204 H2186 0.951 . S
C2204 C2205 1.366 . S
C2204 C2206 1.388 . S
C2205 C2204 1.366 . S
C2205 C2209 1.385 . S
C2206 H2187 0.951 . S
C2206 C2204 1.388 . S
C2206 C2207 1.366 . S
C2207 C2206 1.366 . S
C2207 C2208 1.414 . S
C2207 C2210 1.499 . S
C2208 H2188 0.950 . S
C2208 C2207 1.414 . S
C2208 C2209 1.374 . S
C2209 H2189 0.950 . S
C2209 C2205 1.385 . S
C2209 C2208 1.374 . S
C2210 C2207 1.499 . S
C2210 C2211 1.373 . S
C2210 C2212 1.389 . S
C2211 H2190 0.950 . S
C2211 C2210 1.373 . S
C2211 C2227 1.377 . S
C2212 C2210 1.389 . S
C2212 C2213 1.524 . S
C2212 C2226 1.377 . S
C2213 C2212 1.524 . S
C2213 C2214 1.397 . S
C2213 C2218 1.363 . S
C2214 H2191 0.950 . S
C2214 C2213 1.397 . S
C2214 C2215 1.334 . S
C2215 H2192 0.950 . S
C2215 C2214 1.334 . S
C2215 C2216 1.287 . S
C2216 C2215 1.287 . S
C2216 C2217 1.524 . S
C2216 H2235 0.913 . S
C2217 H2193 0.950 . S
C2217 C2216 1.524 . S
C2217 C2218 1.415 . S
C2218 H2194 0.950 . S
C2218 C2213 1.363 . S
C2218 C2217 1.415 . S
C2219 H2195 0.951 . S
C2219 C2220 1.366 . S
C2219 C2221 1.388 . S
C2220 C2219 1.366 . S
C2220 C2224 1.385 . S
C2221 H2196 0.951 . S
C2221 C2219 1.388 . S
C2221 C2222 1.366 . S
C2222 C2221 1.366 . S
C2222 C2223 1.414 . S
C2222 C2225 1.499 . S
C2223 H2197 0.950 . S
C2223 C2222 1.414 . S
C2223 C2224 1.374 . S
C2224 H2198 0.950 . S
C2224 C2220 1.385 . S
C2224 C2223 1.374 . S
C2225 C2222 1.499 . S
C2225 C2226 1.373 . S
C2225 C2227 1.389 . S
C2226 H2199 0.950 . S
C2226 C2212 1.377 . S
C2226 C2225 1.373 . S
C2227 C2211 1.377 . S
C2227 C2225 1.389 . S
C2227 C2228 1.524 . S
C2228 C2227 1.524 . S
C2228 C2229 1.397 . S
C2228 C2233 1.363 . S
C2229 H2200 0.950 . S
C2229 C2228 1.397 . S
C2229 C2230 1.334 . S
C2230 H2201 0.950 . S
C2230 C2229 1.334 . S
C2230 C2231 1.287 . S
C2231 C2230 1.287 . S
C2231 C2232 1.524 . S
C2231 H2234 0.999 . S
C2232 H2202 0.950 . S
C2232 C2231 1.524 . S
C2232 C2233 1.415 . S
C2233 H2203 0.950 . S
C2233 C2228 1.363 . S
C2233 C2232 1.415 . S
H2234 C2231 0.999 . S
H2235 C2216 0.913 . S
H2236 C2254 0.951 . S
H2237 C2256 0.951 . S
H2238 C2258 0.950 . S
H2239 C2259 0.950 . S
H2240 C2261 0.950 . S
H2241 C2264 0.950 . S
H2242 C2265 0.950 . S
H2243 C2267 0.950 . S
H2244 C2268 0.950 . S
H2245 C2269 0.951 . S
H2246 C2271 0.951 . S
H2247 C2273 0.950 . S
H2248 C2274 0.950 . S
H2249 C2276 0.950 . S
H2250 C2279 0.950 . S
H2251 C2280 0.950 . S
H2252 C2282 0.950 . S
H2253 C2283 0.950 . S
C2254 H2236 0.951 . S
C2254 C2255 1.366 . S
C2254 C2256 1.388 . S
C2255 C2254 1.366 . S
C2255 C2259 1.385 . S
C2256 H2237 0.951 . S
C2256 C2254 1.388 . S
C2256 C2257 1.366 . S
C2257 C2256 1.366 . S
C2257 C2258 1.414 . S
C2257 C2260 1.499 . S
C2258 H2238 0.950 . S
C2258 C2257 1.414 . S
C2258 C2259 1.374 . S
C2259 H2239 0.950 . S
C2259 C2255 1.385 . S
C2259 C2258 1.374 . S
C2260 C2257 1.499 . S
C2260 C2261 1.373 . S
C2260 C2262 1.389 . S
C2261 H2240 0.950 . S
C2261 C2260 1.373 . S
C2261 C2277 1.377 . S
C2262 C2260 1.389 . S
C2262 C2263 1.524 . S
C2262 C2276 1.377 . S
C2263 C2262 1.524 . S
C2263 C2264 1.397 . S
C2263 C2268 1.363 . S
C2264 H2241 0.950 . S
C2264 C2263 1.397 . S
C2264 C2265 1.334 . S
C2265 H2242 0.950 . S
C2265 C2264 1.334 . S
C2265 C2266 1.287 . S
C2266 C2265 1.287 . S
C2266 C2267 1.524 . S
C2266 H2285 0.913 . S
C2267 H2243 0.950 . S
C2267 C2266 1.524 . S
C2267 C2268 1.415 . S
C2268 H2244 0.950 . S
C2268 C2263 1.363 . S
C2268 C2267 1.415 . S
C2269 H2245 0.951 . S
C2269 C2270 1.366 . S
C2269 C2271 1.388 . S
C2270 C2269 1.366 . S
C2270 C2274 1.385 . S
C2271 H2246 0.951 . S
C2271 C2269 1.388 . S
C2271 C2272 1.366 . S
C2272 C2271 1.366 . S
C2272 C2273 1.414 . S
C2272 C2275 1.499 . S
C2273 H2247 0.950 . S
C2273 C2272 1.414 . S
C2273 C2274 1.374 . S
C2274 H2248 0.950 . S
C2274 C2270 1.385 . S
C2274 C2273 1.374 . S
C2275 C2272 1.499 . S
C2275 C2276 1.373 . S
C2275 C2277 1.389 . S
C2276 H2249 0.950 . S
C2276 C2262 1.377 . S
C2276 C2275 1.373 . S
C2277 C2261 1.377 . S
C2277 C2275 1.389 . S
C2277 C2278 1.524 . S
C2278 C2277 1.524 . S
C2278 C2279 1.397 . S
C2278 C2283 1.363 . S
C2279 H2250 0.950 . S
C2279 C2278 1.397 . S
C2279 C2280 1.334 . S
C2280 H2251 0.950 . S
C2280 C2279 1.334 . S
C2280 C2281 1.287 . S
C2281 C2280 1.287 . S
C2281 C2282 1.524 . S
C2281 H2284 0.999 . S
C2282 H2252 0.950 . S
C2282 C2281 1.524 . S
C2282 C2283 1.415 . S
C2283 H2253 0.950 . S
C2283 C2278 1.363 . S
C2283 C2282 1.415 . S
H2284 C2281 0.999 . S
H2285 C2266 0.913 . S
H2286 C2304 0.951 . S
H2287 C2306 0.951 . S
H2288 C2308 0.950 . S
H2289 C2309 0.950 . S
H2290 C2311 0.950 . S
H2291 C2314 0.950 . S
H2292 C2315 0.950 . S
H2293 C2317 0.950 . S
H2294 C2318 0.950 . S
H2295 C2319 0.951 . S
H2296 C2321 0.951 . S
H2297 C2323 0.950 . S
H2298 C2324 0.950 . S
H2299 C2326 0.950 . S
H2300 C2329 0.950 . S
H2301 C2330 0.950 . S
H2302 C2332 0.950 . S
H2303 C2333 0.950 . S
C2304 H2286 0.951 . S
C2304 C2305 1.366 . S
C2304 C2306 1.388 . S
C2305 C2304 1.366 . S
C2305 C2309 1.385 . S
C2306 H2287 0.951 . S
C2306 C2304 1.388 . S
C2306 C2307 1.366 . S
C2307 C2306 1.366 . S
C2307 C2308 1.414 . S
C2307 C2310 1.499 . S
C2308 H2288 0.950 . S
C2308 C2307 1.414 . S
C2308 C2309 1.374 . S
C2309 H2289 0.950 . S
C2309 C2305 1.385 . S
C2309 C2308 1.374 . S
C2310 C2307 1.499 . S
C2310 C2311 1.373 . S
C2310 C2312 1.389 . S
C2311 H2290 0.950 . S
C2311 C2310 1.373 . S
C2311 C2327 1.377 . S
C2312 C2310 1.389 . S
C2312 C2313 1.524 . S
C2312 C2326 1.377 . S
C2313 C2312 1.524 . S
C2313 C2314 1.397 . S
C2313 C2318 1.363 . S
C2314 H2291 0.950 . S
C2314 C2313 1.397 . S
C2314 C2315 1.334 . S
C2315 H2292 0.950 . S
C2315 C2314 1.334 . S
C2315 C2316 1.287 . S
C2316 C2315 1.287 . S
C2316 C2317 1.524 . S
C2316 H2335 0.913 . S
C2317 H2293 0.950 . S
C2317 C2316 1.524 . S
C2317 C2318 1.415 . S
C2318 H2294 0.950 . S
C2318 C2313 1.363 . S
C2318 C2317 1.415 . S
C2319 H2295 0.951 . S
C2319 C2320 1.366 . S
C2319 C2321 1.388 . S
C2320 C2319 1.366 . S
C2320 C2324 1.385 . S
C2321 H2296 0.951 . S
C2321 C2319 1.388 . S
C2321 C2322 1.366 . S
C2322 C2321 1.366 . S
C2322 C2323 1.414 . S
C2322 C2325 1.499 . S
C2323 H2297 0.950 . S
C2323 C2322 1.414 . S
C2323 C2324 1.374 . S
C2324 H2298 0.950 . S
C2324 C2320 1.385 . S
C2324 C2323 1.374 . S
C2325 C2322 1.499 . S
C2325 C2326 1.373 . S
C2325 C2327 1.389 . S
C2326 H2299 0.950 . S
C2326 C2312 1.377 . S
C2326 C2325 1.373 . S
C2327 C2311 1.377 . S
C2327 C2325 1.389 . S
C2327 C2328 1.524 . S
C2328 C2327 1.524 . S
C2328 C2329 1.397 . S
C2328 C2333 1.363 . S
C2329 H2300 0.950 . S
C2329 C2328 1.397 . S
C2329 C2330 1.334 . S
C2330 H2301 0.950 . S
C2330 C2329 1.334 . S
C2330 C2331 1.287 . S
C2331 C2330 1.287 . S
C2331 C2332 1.524 . S
C2331 H2334 0.999 . S
C2332 H2302 0.950 . S
C2332 C2331 1.524 . S
C2332 C2333 1.415 . S
C2333 H2303 0.950 . S
C2333 C2328 1.363 . S
C2333 C2332 1.415 . S
H2334 C2331 0.999 . S
H2335 C2316 0.913 . S
H2336 C2354 0.951 . S
H2337 C2356 0.951 . S
H2338 C2358 0.950 . S
H2339 C2359 0.950 . S
H2340 C2361 0.950 . S
H2341 C2364 0.950 . S
H2342 C2365 0.950 . S
H2343 C2367 0.950 . S
H2344 C2368 0.950 . S
H2345 C2369 0.951 . S
H2346 C2371 0.951 . S
H2347 C2373 0.950 . S
H2348 C2374 0.950 . S
H2349 C2376 0.950 . S
H2350 C2379 0.950 . S
H2351 C2380 0.950 . S
H2352 C2382 0.950 . S
H2353 C2383 0.950 . S
C2354 H2336 0.951 . S
C2354 C2355 1.366 . S
C2354 C2356 1.388 . S
C2355 C2354 1.366 . S
C2355 C2359 1.385 . S
C2356 H2337 0.951 . S
C2356 C2354 1.388 . S
C2356 C2357 1.366 . S
C2357 C2356 1.366 . S
C2357 C2358 1.414 . S
C2357 C2360 1.499 . S
C2358 H2338 0.950 . S
C2358 C2357 1.414 . S
C2358 C2359 1.374 . S
C2359 H2339 0.950 . S
C2359 C2355 1.385 . S
C2359 C2358 1.374 . S
C2360 C2357 1.499 . S
C2360 C2361 1.373 . S
C2360 C2362 1.389 . S
C2361 H2340 0.950 . S
C2361 C2360 1.373 . S
C2361 C2377 1.377 . S
C2362 C2360 1.389 . S
C2362 C2363 1.524 . S
C2362 C2376 1.377 . S
C2363 C2362 1.524 . S
C2363 C2364 1.397 . S
C2363 C2368 1.363 . S
C2364 H2341 0.950 . S
C2364 C2363 1.397 . S
C2364 C2365 1.334 . S
C2365 H2342 0.950 . S
C2365 C2364 1.334 . S
C2365 C2366 1.287 . S
C2366 C2365 1.287 . S
C2366 C2367 1.524 . S
C2366 H2385 0.913 . S
C2367 H2343 0.950 . S
C2367 C2366 1.524 . S
C2367 C2368 1.415 . S
C2368 H2344 0.950 . S
C2368 C2363 1.363 . S
C2368 C2367 1.415 . S
C2369 H2345 0.951 . S
C2369 C2370 1.366 . S
C2369 C2371 1.388 . S
C2370 C2369 1.366 . S
C2370 C2374 1.385 . S
C2371 H2346 0.951 . S
C2371 C2369 1.388 . S
C2371 C2372 1.366 . S
C2372 C2371 1.366 . S
C2372 C2373 1.414 . S
C2372 C2375 1.499 . S
C2373 H2347 0.950 . S
C2373 C2372 1.414 . S
C2373 C2374 1.374 . S
C2374 H2348 0.950 . S
C2374 C2370 1.385 . S
C2374 C2373 1.374 . S
C2375 C2372 1.499 . S
C2375 C2376 1.373 . S
C2375 C2377 1.389 . S
C2376 H2349 0.950 . S
C2376 C2362 1.377 . S
C2376 C2375 1.373 . S
C2377 C2361 1.377 . S
C2377 C2375 1.389 . S
C2377 C2378 1.524 . S
C2378 C2377 1.524 . S
C2378 C2379 1.397 . S
C2378 C2383 1.363 . S
C2379 H2350 0.950 . S
C2379 C2378 1.397 . S
C2379 C2380 1.334 . S
C2380 H2351 0.950 . S
C2380 C2379 1.334 . S
C2380 C2381 1.287 . S
C2381 C2380 1.287 . S
C2381 C2382 1.524 . S
C2381 H2384 0.999 . S
C2382 H2352 0.950 . S
C2382 C2381 1.524 . S
C2382 C2383 1.415 . S
C2383 H2353 0.950 . S
C2383 C2378 1.363 . S
C2383 C2382 1.415 . S
H2384 C2381 0.999 . S
H2385 C2366 0.913 . S
H2386 C2404 0.951 . S
H2387 C2406 0.951 . S
H2388 C2408 0.950 . S
H2389 C2409 0.950 . S
H2390 C2411 0.950 . S
H2391 C2414 0.950 . S
H2392 C2415 0.950 . S
H2393 C2417 0.950 . S
H2394 C2418 0.950 . S
H2395 C2419 0.951 . S
H2396 C2421 0.951 . S
H2397 C2423 0.950 . S
H2398 C2424 0.950 . S
H2399 C2426 0.950 . S
H2400 C2429 0.950 . S
H2401 C2430 0.950 . S
H2402 C2432 0.950 . S
H2403 C2433 0.950 . S
C2404 H2386 0.951 . S
C2404 C2405 1.366 . S
C2404 C2406 1.388 . S
C2405 C2404 1.366 . S
C2405 C2409 1.385 . S
C2406 H2387 0.951 . S
C2406 C2404 1.388 . S
C2406 C2407 1.366 . S
C2407 C2406 1.366 . S
C2407 C2408 1.414 . S
C2407 C2410 1.499 . S
C2408 H2388 0.950 . S
C2408 C2407 1.414 . S
C2408 C2409 1.374 . S
C2409 H2389 0.950 . S
C2409 C2405 1.385 . S
C2409 C2408 1.374 . S
C2410 C2407 1.499 . S
C2410 C2411 1.373 . S
C2410 C2412 1.389 . S
C2411 H2390 0.950 . S
C2411 C2410 1.373 . S
C2411 C2427 1.377 . S
C2412 C2410 1.389 . S
C2412 C2413 1.524 . S
C2412 C2426 1.377 . S
C2413 C2412 1.524 . S
C2413 C2414 1.397 . S
C2413 C2418 1.363 . S
C2414 H2391 0.950 . S
C2414 C2413 1.397 . S
C2414 C2415 1.334 . S
C2415 H2392 0.950 . S
C2415 C2414 1.334 . S
C2415 C2416 1.287 . S
C2416 C2415 1.287 . S
C2416 C2417 1.524 . S
C2416 H2435 0.913 . S
C2417 H2393 0.950 . S
C2417 C2416 1.524 . S
C2417 C2418 1.415 . S
C2418 H2394 0.950 . S
C2418 C2413 1.363 . S
C2418 C2417 1.415 . S
C2419 H2395 0.951 . S
C2419 C2420 1.366 . S
C2419 C2421 1.388 . S
C2420 C2419 1.366 . S
C2420 C2424 1.385 . S
C2421 H2396 0.951 . S
C2421 C2419 1.388 . S
C2421 C2422 1.366 . S
C2422 C2421 1.366 . S
C2422 C2423 1.414 . S
C2422 C2425 1.499 . S
C2423 H2397 0.950 . S
C2423 C2422 1.414 . S
C2423 C2424 1.374 . S
C2424 H2398 0.950 . S
C2424 C2420 1.385 . S
C2424 C2423 1.374 . S
C2425 C2422 1.499 . S
C2425 C2426 1.373 . S
C2425 C2427 1.389 . S
C2426 H2399 0.950 . S
C2426 C2412 1.377 . S
C2426 C2425 1.373 . S
C2427 C2411 1.377 . S
C2427 C2425 1.389 . S
C2427 C2428 1.524 . S
C2428 C2427 1.524 . S
C2428 C2429 1.397 . S
C2428 C2433 1.363 . S
C2429 H2400 0.950 . S
C2429 C2428 1.397 . S
C2429 C2430 1.334 . S
C2430 H2401 0.950 . S
C2430 C2429 1.334 . S
C2430 C2431 1.287 . S
C2431 C2430 1.287 . S
C2431 C2432 1.524 . S
C2431 H2434 0.999 . S
C2432 H2402 0.950 . S
C2432 C2431 1.524 . S
C2432 C2433 1.415 . S
C2433 H2403 0.950 . S
C2433 C2428 1.363 . S
C2433 C2432 1.415 . S
H2434 C2431 0.999 . S
H2435 C2416 0.913 . S
H2436 C2454 0.951 . S
H2437 C2456 0.951 . S
H2438 C2458 0.950 . S
H2439 C2459 0.950 . S
H2440 C2461 0.950 . S
H2441 C2464 0.950 . S
H2442 C2465 0.950 . S
H2443 C2467 0.950 . S
H2444 C2468 0.950 . S
H2445 C2469 0.951 . S
H2446 C2471 0.951 . S
H2447 C2473 0.950 . S
H2448 C2474 0.950 . S
H2449 C2476 0.950 . S
H2450 C2479 0.950 . S
H2451 C2480 0.950 . S
H2452 C2482 0.950 . S
H2453 C2483 0.950 . S
C2454 H2436 0.951 . S
C2454 C2455 1.366 . S
C2454 C2456 1.388 . S
C2455 C2454 1.366 . S
C2455 C2459 1.385 . S
C2456 H2437 0.951 . S
C2456 C2454 1.388 . S
C2456 C2457 1.366 . S
C2457 C2456 1.366 . S
C2457 C2458 1.414 . S
C2457 C2460 1.499 . S
C2458 H2438 0.950 . S
C2458 C2457 1.414 . S
C2458 C2459 1.374 . S
C2459 H2439 0.950 . S
C2459 C2455 1.385 . S
C2459 C2458 1.374 . S
C2460 C2457 1.499 . S
C2460 C2461 1.373 . S
C2460 C2462 1.389 . S
C2461 H2440 0.950 . S
C2461 C2460 1.373 . S
C2461 C2477 1.377 . S
C2462 C2460 1.389 . S
C2462 C2463 1.524 . S
C2462 C2476 1.377 . S
C2463 C2462 1.524 . S
C2463 C2464 1.397 . S
C2463 C2468 1.363 . S
C2464 H2441 0.950 . S
C2464 C2463 1.397 . S
C2464 C2465 1.334 . S
C2465 H2442 0.950 . S
C2465 C2464 1.334 . S
C2465 C2466 1.287 . S
C2466 C2465 1.287 . S
C2466 C2467 1.524 . S
C2466 H2485 0.913 . S
C2467 H2443 0.950 . S
C2467 C2466 1.524 . S
C2467 C2468 1.415 . S
C2468 H2444 0.950 . S
C2468 C2463 1.363 . S
C2468 C2467 1.415 . S
C2469 H2445 0.951 . S
C2469 C2470 1.366 . S
C2469 C2471 1.388 . S
C2470 C2469 1.366 . S
C2470 C2474 1.385 . S
C2471 H2446 0.951 . S
C2471 C2469 1.388 . S
C2471 C2472 1.366 . S
C2472 C2471 1.366 . S
C2472 C2473 1.414 . S
C2472 C2475 1.499 . S
C2473 H2447 0.950 . S
C2473 C2472 1.414 . S
C2473 C2474 1.374 . S
C2474 H2448 0.950 . S
C2474 C2470 1.385 . S
C2474 C2473 1.374 . S
C2475 C2472 1.499 . S
C2475 C2476 1.373 . S
C2475 C2477 1.389 . S
C2476 H2449 0.950 . S
C2476 C2462 1.377 . S
C2476 C2475 1.373 . S
C2477 C2461 1.377 . S
C2477 C2475 1.389 . S
C2477 C2478 1.524 . S
C2478 C2477 1.524 . S
C2478 C2479 1.397 . S
C2478 C2483 1.363 . S
C2479 H2450 0.950 . S
C2479 C2478 1.397 . S
C2479 C2480 1.334 . S
C2480 H2451 0.950 . S
C2480 C2479 1.334 . S
C2480 C2481 1.287 . S
C2481 C2480 1.287 . S
C2481 C2482 1.524 . S
C2481 H2484 0.999 . S
C2482 H2452 0.950 . S
C2482 C2481 1.524 . S
C2482 C2483 1.415 . S
C2483 H2453 0.950 . S
C2483 C2478 1.363 . S
C2483 C2482 1.415 . S
H2484 C2481 0.999 . S
H2485 C2466 0.913 . S
H2486 C2504 0.951 . S
H2487 C2506 0.951 . S
H2488 C2508 0.950 . S
H2489 C2509 0.950 . S
H2490 C2511 0.950 . S
H2491 C2514 0.950 . S
H2492 C2515 0.950 . S
H2493 C2517 0.950 . S
H2494 C2518 0.950 . S
H2495 C2519 0.951 . S
H2496 C2521 0.951 . S
H2497 C2523 0.950 . S
H2498 C2524 0.950 . S
H2499 C2526 0.950 . S
H2500 C2529 0.950 . S
H2501 C2530 0.950 . S
H2502 C2532 0.966 . S
H2503 C2533 0.950 . S
C2504 H2486 0.951 . S
C2504 C2505 1.366 . S
C2504 C2506 1.388 . S
C2505 C2504 1.366 . S
C2505 C2509 1.385 . S
C2506 H2487 0.951 . S
C2506 C2504 1.388 . S
C2506 C2507 1.366 . S
C2507 C2506 1.366 . S
C2507 C2508 1.414 . S
C2507 C2510 1.499 . S
C2508 H2488 0.950 . S
C2508 C2507 1.414 . S
C2508 C2509 1.374 . S
C2509 H2489 0.950 . S
C2509 C2505 1.385 . S
C2509 C2508 1.374 . S
C2510 C2507 1.499 . S
C2510 C2511 1.373 . S
C2510 C2512 1.389 . S
C2511 H2490 0.950 . S
C2511 C2510 1.373 . S
C2511 C2527 1.377 . S
C2512 C2510 1.389 . S
C2512 C2513 1.524 . S
C2512 C2526 1.377 . S
C2513 C2512 1.524 . S
C2513 C2514 1.397 . S
C2513 C2518 1.363 . S
C2514 H2491 0.950 . S
C2514 C2513 1.397 . S
C2514 C2515 1.334 . S
C2515 H2492 0.950 . S
C2515 C2514 1.334 . S
C2515 C2516 1.287 . S
C2516 C2515 1.287 . S
C2516 C2517 1.524 . S
C2516 H2535 0.913 . S
C2517 H2493 0.950 . S
C2517 C2516 1.524 . S
C2517 C2518 1.415 . S
C2518 H2494 0.950 . S
C2518 C2513 1.363 . S
C2518 C2517 1.415 . S
C2519 H2495 0.951 . S
C2519 C2520 1.366 . S
C2519 C2521 1.388 . S
C2520 C2519 1.366 . S
C2520 C2524 1.385 . S
C2521 H2496 0.951 . S
C2521 C2519 1.388 . S
C2521 C2522 1.366 . S
C2522 C2521 1.366 . S
C2522 C2523 1.414 . S
C2522 C2525 1.499 . S
C2523 H2497 0.950 . S
C2523 C2522 1.414 . S
C2523 C2524 1.374 . S
C2524 H2498 0.950 . S
C2524 C2520 1.385 . S
C2524 C2523 1.374 . S
C2525 C2522 1.499 . S
C2525 C2526 1.373 . S
C2525 C2527 1.389 . S
C2526 H2499 0.950 . S
C2526 C2512 1.377 . S
C2526 C2525 1.373 . S
C2527 C2511 1.377 . S
C2527 C2525 1.389 . S
C2527 C2528 1.524 . S
C2528 C2527 1.524 . S
C2528 C2529 1.397 . S
C2528 C2533 1.363 . S
C2529 H2500 0.950 . S
C2529 C2528 1.397 . S
C2529 C2530 1.334 . S
C2530 H2501 0.950 . S
C2530 C2529 1.334 . S
C2530 C2531 1.287 . S
C2531 C2530 1.287 . S
C2531 C2532 1.524 . S
C2531 H2534 0.999 1_655 S
C2532 H2502 0.966 . S
C2532 C2531 1.524 . S
C2532 C2533 1.415 . S
C2533 H2503 0.950 . S
C2533 C2528 1.363 . S
C2533 C2532 1.415 . S
H2534 C2531 0.999 1_455 S
H2535 C2516 0.913 . S
H2536 C2554 0.951 . S
H2537 C2556 0.951 . S
H2538 C2558 0.950 . S
H2539 C2559 0.950 . S
H2540 C2561 0.950 . S
H2541 C2564 0.950 . S
H2542 C2565 0.950 . S
H2543 C2567 0.950 . S
H2544 C2568 0.950 . S
H2545 C2569 0.951 . S
H2546 C2571 0.951 . S
H2547 C2573 0.950 . S
H2548 C2574 0.950 . S
H2549 C2576 0.950 . S
H2550 C2579 0.950 . S
H2551 C2580 0.950 . S
H2552 C2582 0.950 . S
H2553 C2583 0.950 . S
C2554 H2536 0.951 . S
C2554 C2555 1.366 . S
C2554 C2556 1.388 . S
C2555 C2554 1.366 . S
C2555 C2559 1.385 . S
C2556 H2537 0.951 . S
C2556 C2554 1.388 . S
C2556 C2557 1.366 . S
C2557 C2556 1.366 . S
C2557 C2558 1.414 . S
C2557 C2560 1.499 . S
C2558 H2538 0.950 . S
C2558 C2557 1.414 . S
C2558 C2559 1.374 . S
C2559 H2539 0.950 . S
C2559 C2555 1.385 . S
C2559 C2558 1.374 . S
C2560 C2557 1.499 . S
C2560 C2561 1.373 . S
C2560 C2562 1.389 . S
C2561 H2540 0.950 . S
C2561 C2560 1.373 . S
C2561 C2577 1.377 . S
C2562 C2560 1.389 . S
C2562 C2563 1.524 . S
C2562 C2576 1.377 . S
C2563 C2562 1.524 . S
C2563 C2564 1.397 . S
C2563 C2568 1.363 . S
C2564 H2541 0.950 . S
C2564 C2563 1.397 . S
C2564 C2565 1.334 . S
C2565 H2542 0.950 . S
C2565 C2564 1.334 . S
C2565 C2566 1.287 . S
C2566 C2565 1.287 . S
C2566 C2567 1.524 . S
C2566 H2585 0.913 . S
C2567 H2543 0.950 . S
C2567 C2566 1.524 . S
C2567 C2568 1.415 . S
C2568 H2544 0.950 . S
C2568 C2563 1.363 . S
C2568 C2567 1.415 . S
C2569 H2545 0.951 . S
C2569 C2570 1.366 . S
C2569 C2571 1.388 . S
C2570 C2569 1.366 . S
C2570 C2574 1.385 . S
C2571 H2546 0.951 . S
C2571 C2569 1.388 . S
C2571 C2572 1.366 . S
C2572 C2571 1.366 . S
C2572 C2573 1.414 . S
C2572 C2575 1.499 . S
C2573 H2547 0.950 . S
C2573 C2572 1.414 . S
C2573 C2574 1.374 . S
C2574 H2548 0.950 . S
C2574 C2570 1.385 . S
C2574 C2573 1.374 . S
C2575 C2572 1.499 . S
C2575 C2576 1.373 . S
C2575 C2577 1.389 . S
C2576 H2549 0.950 . S
C2576 C2562 1.377 . S
C2576 C2575 1.373 . S
C2577 C2561 1.377 . S
C2577 C2575 1.389 . S
C2577 C2578 1.524 . S
C2578 C2577 1.524 . S
C2578 C2579 1.397 . S
C2578 C2583 1.363 . S
C2579 H2550 0.950 . S
C2579 C2578 1.397 . S
C2579 C2580 1.334 . S
C2580 H2551 0.950 . S
C2580 C2579 1.334 . S
C2580 C2581 1.287 . S
C2581 C2580 1.287 . S
C2581 C2582 1.524 . S
C2581 H2584 0.999 . S
C2582 H2552 0.950 . S
C2582 C2581 1.524 . S
C2582 C2583 1.415 . S
C2583 H2553 0.950 . S
C2583 C2578 1.363 . S
C2583 C2582 1.415 . S
H2584 C2581 0.999 . S
H2585 C2566 0.913 . S
H2586 C2604 0.951 . S
H2587 C2606 0.951 . S
H2588 C2608 0.950 . S
H2589 C2609 0.950 . S
H2590 C2611 0.950 . S
H2591 C2614 0.950 . S
H2592 C2615 0.950 . S
H2593 C2617 0.950 . S
H2594 C2618 0.950 . S
H2595 C2619 0.951 . S
H2596 C2621 0.951 . S
H2597 C2623 0.950 . S
H2598 C2624 0.950 . S
H2599 C2626 0.950 . S
H2600 C2629 0.950 . S
H2601 C2630 0.950 . S
H2602 C2632 0.950 . S
H2603 C2633 0.950 . S
C2604 H2586 0.951 . S
C2604 C2605 1.366 . S
C2604 C2606 1.388 . S
C2605 C2604 1.366 . S
C2605 C2609 1.385 . S
C2606 H2587 0.951 . S
C2606 C2604 1.388 . S
C2606 C2607 1.366 . S
C2607 C2606 1.366 . S
C2607 C2608 1.414 . S
C2607 C2610 1.499 . S
C2608 H2588 0.950 . S
C2608 C2607 1.414 . S
C2608 C2609 1.374 . S
C2609 H2589 0.950 . S
C2609 C2605 1.385 . S
C2609 C2608 1.374 . S
C2610 C2607 1.499 . S
C2610 C2611 1.373 . S
C2610 C2612 1.389 . S
C2611 H2590 0.950 . S
C2611 C2610 1.373 . S
C2611 C2627 1.377 . S
C2612 C2610 1.389 . S
C2612 C2613 1.524 . S
C2612 C2626 1.377 . S
C2613 C2612 1.524 . S
C2613 C2614 1.397 . S
C2613 C2618 1.363 . S
C2614 H2591 0.950 . S
C2614 C2613 1.397 . S
C2614 C2615 1.334 . S
C2615 H2592 0.950 . S
C2615 C2614 1.334 . S
C2615 C2616 1.287 . S
C2616 C2615 1.287 . S
C2616 C2617 1.524 . S
C2616 H2635 0.913 . S
C2617 H2593 0.950 . S
C2617 C2616 1.524 . S
C2617 C2618 1.415 . S
C2618 H2594 0.950 . S
C2618 C2613 1.363 . S
C2618 C2617 1.415 . S
C2619 H2595 0.951 . S
C2619 C2620 1.366 . S
C2619 C2621 1.388 . S
C2620 C2619 1.366 . S
C2620 C2624 1.385 . S
C2621 H2596 0.951 . S
C2621 C2619 1.388 . S
C2621 C2622 1.366 . S
C2622 C2621 1.366 . S
C2622 C2623 1.414 . S
C2622 C2625 1.499 . S
C2623 H2597 0.950 . S
C2623 C2622 1.414 . S
C2623 C2624 1.374 . S
C2624 H2598 0.950 . S
C2624 C2620 1.385 . S
C2624 C2623 1.374 . S
C2625 C2622 1.499 . S
C2625 C2626 1.373 . S
C2625 C2627 1.389 . S
C2626 H2599 0.950 . S
C2626 C2612 1.377 . S
C2626 C2625 1.373 . S
C2627 C2611 1.377 . S
C2627 C2625 1.389 . S
C2627 C2628 1.524 . S
C2628 C2627 1.524 . S
C2628 C2629 1.397 . S
C2628 C2633 1.363 . S
C2629 H2600 0.950 . S
C2629 C2628 1.397 . S
C2629 C2630 1.334 . S
C2630 H2601 0.950 . S
C2630 C2629 1.334 . S
C2630 C2631 1.287 . S
C2631 C2630 1.287 . S
C2631 C2632 1.524 . S
C2631 H2634 0.999 . S
C2632 H2602 0.950 . S
C2632 C2631 1.524 . S
C2632 C2633 1.415 . S
C2633 H2603 0.950 . S
C2633 C2628 1.363 . S
C2633 C2632 1.415 . S
H2634 C2631 0.999 . S
H2635 C2616 0.913 . S
H2636 C2654 0.951 . S
H2637 C2656 0.951 . S
H2638 C2658 0.950 . S
H2639 C2659 0.950 . S
H2640 C2661 0.950 . S
H2641 C2664 0.950 . S
H2642 C2665 0.950 . S
H2643 C2667 0.950 . S
H2644 C2668 0.950 . S
H2645 C2669 0.951 . S
H2646 C2671 0.951 . S
H2647 C2673 0.950 . S
H2648 C2674 0.950 . S
H2649 C2676 0.950 . S
H2650 C2679 0.950 . S
H2651 C2680 0.950 . S
H2652 C2682 0.950 . S
H2653 C2683 0.950 . S
C2654 H2636 0.951 . S
C2654 C2655 1.366 . S
C2654 C2656 1.388 . S
C2655 C2654 1.366 . S
C2655 C2659 1.385 . S
C2656 H2637 0.951 . S
C2656 C2654 1.388 . S
C2656 C2657 1.366 . S
C2657 C2656 1.366 . S
C2657 C2658 1.414 . S
C2657 C2660 1.499 . S
C2658 H2638 0.950 . S
C2658 C2657 1.414 . S
C2658 C2659 1.374 . S
C2659 H2639 0.950 . S
C2659 C2655 1.385 . S
C2659 C2658 1.374 . S
C2660 C2657 1.499 . S
C2660 C2661 1.373 . S
C2660 C2662 1.389 . S
C2661 H2640 0.950 . S
C2661 C2660 1.373 . S
C2661 C2677 1.377 . S
C2662 C2660 1.389 . S
C2662 C2663 1.524 . S
C2662 C2676 1.377 . S
C2663 C2662 1.524 . S
C2663 C2664 1.397 . S
C2663 C2668 1.363 . S
C2664 H2641 0.950 . S
C2664 C2663 1.397 . S
C2664 C2665 1.334 . S
C2665 H2642 0.950 . S
C2665 C2664 1.334 . S
C2665 C2666 1.287 . S
C2666 C2665 1.287 . S
C2666 C2667 1.524 . S
C2666 H2685 0.913 . S
C2667 H2643 0.950 . S
C2667 C2666 1.524 . S
C2667 C2668 1.415 . S
C2668 H2644 0.950 . S
C2668 C2663 1.363 . S
C2668 C2667 1.415 . S
C2669 H2645 0.951 . S
C2669 C2670 1.366 . S
C2669 C2671 1.388 . S
C2670 C2669 1.366 . S
C2670 C2674 1.385 . S
C2671 H2646 0.951 . S
C2671 C2669 1.388 . S
C2671 C2672 1.366 . S
C2672 C2671 1.366 . S
C2672 C2673 1.414 . S
C2672 C2675 1.499 . S
C2673 H2647 0.950 . S
C2673 C2672 1.414 . S
C2673 C2674 1.374 . S
C2674 H2648 0.950 . S
C2674 C2670 1.385 . S
C2674 C2673 1.374 . S
C2675 C2672 1.499 . S
C2675 C2676 1.373 . S
C2675 C2677 1.389 . S
C2676 H2649 0.950 . S
C2676 C2662 1.377 . S
C2676 C2675 1.373 . S
C2677 C2661 1.377 . S
C2677 C2675 1.389 . S
C2677 C2678 1.524 . S
C2678 C2677 1.524 . S
C2678 C2679 1.397 . S
C2678 C2683 1.363 . S
C2679 H2650 0.950 . S
C2679 C2678 1.397 . S
C2679 C2680 1.334 . S
C2680 H2651 0.950 . S
C2680 C2679 1.334 . S
C2680 C2681 1.287 . S
C2681 C2680 1.287 . S
C2681 C2682 1.524 . S
C2681 H2684 1.015 . S
C2682 H2652 0.950 . S
C2682 C2681 1.524 . S
C2682 C2683 1.415 . S
C2683 H2653 0.950 . S
C2683 C2678 1.363 . S
C2683 C2682 1.415 . S
H2684 C2681 1.015 . S
H2685 C2666 0.913 . S
H2686 C2704 0.951 . S
H2687 C2706 0.951 . S
H2688 C2708 0.950 . S
H2689 C2709 0.950 . S
H2690 C2711 0.950 . S
H2691 C2714 0.950 . S
H2692 C2715 0.950 . S
H2693 C2717 0.950 . S
H2694 C2718 0.950 . S
H2695 C2719 0.951 . S
H2696 C2721 0.951 . S
H2697 C2723 0.950 . S
H2698 C2724 0.950 . S
H2699 C2726 0.950 . S
H2700 C2729 0.950 . S
H2701 C2730 0.950 . S
H2702 C2732 0.950 . S
H2703 C2733 0.950 . S
C2704 H2686 0.951 . S
C2704 C2705 1.366 . S
C2704 C2706 1.388 . S
C2705 C2704 1.366 . S
C2705 C2709 1.385 . S
C2706 H2687 0.951 . S
C2706 C2704 1.388 . S
C2706 C2707 1.366 . S
C2707 C2706 1.366 . S
C2707 C2708 1.414 . S
C2707 C2710 1.499 . S
C2708 H2688 0.950 . S
C2708 C2707 1.414 . S
C2708 C2709 1.374 . S
C2709 H2689 0.950 . S
C2709 C2705 1.385 . S
C2709 C2708 1.374 . S
C2710 C2707 1.499 . S
C2710 C2711 1.373 . S
C2710 C2712 1.389 . S
C2711 H2690 0.950 . S
C2711 C2710 1.373 . S
C2711 C2727 1.377 . S
C2712 C2710 1.389 . S
C2712 C2713 1.524 . S
C2712 C2726 1.377 . S
C2713 C2712 1.524 . S
C2713 C2714 1.397 . S
C2713 C2718 1.363 . S
C2714 H2691 0.950 . S
C2714 C2713 1.397 . S
C2714 C2715 1.334 . S
C2715 H2692 0.950 . S
C2715 C2714 1.334 . S
C2715 C2716 1.287 . S
C2716 C2715 1.287 . S
C2716 C2717 1.524 . S
C2716 H2735 0.913 . S
C2717 H2693 0.950 . S
C2717 C2716 1.524 . S
C2717 C2718 1.415 . S
C2718 H2694 0.950 . S
C2718 C2713 1.363 . S
C2718 C2717 1.415 . S
C2719 H2695 0.951 . S
C2719 C2720 1.366 . S
C2719 C2721 1.388 . S
C2720 C2719 1.366 . S
C2720 C2724 1.385 . S
C2721 H2696 0.951 . S
C2721 C2719 1.388 . S
C2721 C2722 1.366 . S
C2722 C2721 1.366 . S
C2722 C2723 1.414 . S
C2722 C2725 1.499 . S
C2723 H2697 0.950 . S
C2723 C2722 1.414 . S
C2723 C2724 1.374 . S
C2724 H2698 0.950 . S
C2724 C2720 1.385 . S
C2724 C2723 1.374 . S
C2725 C2722 1.499 . S
C2725 C2726 1.373 . S
C2725 C2727 1.389 . S
C2726 H2699 0.950 . S
C2726 C2712 1.377 . S
C2726 C2725 1.373 . S
C2727 C2711 1.377 . S
C2727 C2725 1.389 . S
C2727 C2728 1.524 . S
C2728 C2727 1.524 . S
C2728 C2729 1.397 . S
C2728 C2733 1.363 . S
C2729 H2700 0.950 . S
C2729 C2728 1.397 . S
C2729 C2730 1.334 . S
C2730 H2701 0.950 . S
C2730 C2729 1.334 . S
C2730 C2731 1.287 . S
C2731 C2730 1.287 . S
C2731 C2732 1.524 . S
C2731 H2734 0.999 . S
C2732 H2702 0.950 . S
C2732 C2731 1.524 . S
C2732 C2733 1.415 . S
C2733 H2703 0.950 . S
C2733 C2728 1.363 . S
C2733 C2732 1.415 . S
H2734 C2731 0.999 . S
H2735 C2716 0.913 . S
C355 C77 0.803 . S
C370 C13 0.778 . S
C405 C15 1.032 . S
C420 C38 1.110 . S
C455 C58 0.744 . S
C470 C35 0.731 . S
C505 C80 1.496 . S
C520 C59 1.496 . S
C555 C102 1.074 . S
C570 C120 1.028 . S
C605 C118 0.887 . S
C620 C139 0.897 . S
C655 C144 1.444 . S
C670 C164 1.477 . S
C705 C97 0.846 . S
C720 C163 0.819 . S
C755 C207 1.399 . S
C770 C18 1.401 . S
C805 C225 0.713 . S
C820 C37 0.733 . S
C855 C56 1.072 . S
C870 C287 1.082 . S
C905 C183 0.717 . S
C920 C79 0.735 . S
C955 C247 0.735 . S
C970 C99 0.717 . S
C1005 C312 1.401 . S
C1020 C123 1.399 . S
C1055 C141 0.715 . S
C1070 C268 0.736 . S
C1105 C329 1.071 . S
C1120 C161 1.083 . S
C1155 C181 0.844 . S
C1170 C289 0.819 . S
C1205 C204 1.026 . S
C1220 C186 1.073 . S
C1255 C223 0.896 . S
C1270 C202 0.883 . S
C1305 C307 0.779 . S
C1320 C245 0.803 . S
C1355 C266 0.732 . S
C1370 C331 0.740 . S
C1405 C246 0.735 . S
C1420 C16 0.742 . S
C1455 C270 1.064 . S
C1470 C14 0.997 . S
C1505 C267 0.825 . S
C1520 C55 0.790 . S
C1555 C60 1.599 . S
C1570 C249 1.589 . S
C1605 C203 1.015 . S
C1620 C101 1.075 . S
C1655 C205 0.755 . S
C1670 C142 0.757 . S
C1705 C291 1.616 . S
C1720 C143 1.602 . S
C1755 C100 0.810 . S
C1770 C286 0.799 . S
C1805 C122 1.643 . S
C1820 C17 1.641 . S
C1855 C224 0.825 . S
C1870 C265 0.794 . S
C1905 C57 1.023 . S
C1920 C162 1.020 . S
C1955 C182 0.824 . S
C1970 C244 0.793 . S
C2005 C76 0.794 . S
C2020 C98 0.823 . S
C2055 C206 1.643 . S
C2070 C311 1.641 . S
C2105 C140 0.824 . S
C2120 C34 0.793 . S
C2155 C330 1.024 . S
C2170 C288 1.018 . S
C2205 C184 0.811 . S
C2220 C160 0.800 . S
C2255 C185 1.074 . S
C2270 C119 1.015 . S
C2305 C226 0.754 . S
C2320 C121 0.754 . S
C2355 C78 0.738 . S
C2370 C310 0.740 . S
C2405 C36 0.824 . S
C2420 C328 0.787 . S
C2455 C269 1.110 . S
C2470 C309 1.033 . S
C2505 C248 1.496 . S
C2520 C332 1.497 . S
C2555 C228 1.443 . S
C2570 C290 1.477 . S
C2605 C308 0.997 . S
C2620 C39 1.064 . S
C2655 C81 1.589 . S
C2670 C333 1.599 . S
C2705 C165 1.617 . S
C2720 C227 1.602 . S
