# Generated by pormake.
# Topology sxa, (6)-cn, num edge types: 1
# Building blocks:
#     Node 0, Type 0, BuildingBlock: PAMTUU_clean_sbu_0, # of connection points: 6
#     Node 1, Type 0, BuildingBlock: PAMTUU_clean_sbu_0, # of connection points: 6
#     Node 2, Type 0, BuildingBlock: PAMTUU_clean_sbu_0, # of connection points: 6
#     Node 3, Type 0, BuildingBlock: PAMTUU_clean_sbu_0, # of connection points: 6
#     Edge 4, Type (0, 0), BuildingBlock: AJUNOK_clean_linker_0, # of connection points: 2
#     Edge 5, Type (0, 0), BuildingBlock: AJUNOK_clean_linker_0, # of connection points: 2
#     Edge 6, Type (0, 0), BuildingBlock: AJUNOK_clean_linker_0, # of connection points: 2
#     Edge 7, Type (0, 0), BuildingBlock: AJUNOK_clean_linker_0, # of connection points: 2
#     Edge 8, Type (0, 0), BuildingBlock: AJUNOK_clean_linker_0, # of connection points: 2
#     Edge 9, Type (0, 0), BuildingBlock: AJUNOK_clean_linker_0, # of connection points: 2
#     Edge 10, Type (0, 0), BuildingBlock: AJUNOK_clean_linker_0, # of connection points: 2
#     Edge 11, Type (0, 0), BuildingBlock: AJUNOK_clean_linker_0, # of connection points: 2
#     Edge 12, Type (0, 0), BuildingBlock: AJUNOK_clean_linker_0, # of connection points: 2
#     Edge 13, Type (0, 0), BuildingBlock: AJUNOK_clean_linker_0, # of connection points: 2
#     Edge 14, Type (0, 0), BuildingBlock: AJUNOK_clean_linker_0, # of connection points: 2
#     Edge 15, Type (0, 0), BuildingBlock: AJUNOK_clean_linker_0, # of connection points: 2
# Relax obj value: 0.318
# Max RMSD: 0.313
# Mean RMSD: 0.313
data_MOF--net-sxa--node1-PAMTUU_clean_sbu_0--edge1-AJUNOK_clean_linker_0
_symmetry_space_group_name_H-M    P1
_symmetry_Int_Tables_number       1
_symmetry_cell_setting            triclinic
loop_
_symmetry_equiv_pos_as_xyz
'x, y, z'
_cell_length_a     28.073292
_cell_length_b     19.657413
_cell_length_c     13.740372
_cell_angle_alpha  92.722134
_cell_angle_beta   48.070588
_cell_angle_gamma 97.87423
loop_
_atom_site_label
_atom_site_type_symbol
_atom_site_fract_x
_atom_site_fract_y
_atom_site_fract_z
_atom_type_partial_charge
Tb0 Tb 0.1043 0.78169 0.05735 0.0
Tb1 Tb 0.08648 0.78765 0.3035 0.0
C2 C 0.06223 0.65243 0.19437 0.0
C3 C 0.06776 0.76107 0.8472 0.0
C4 C 0.95434 0.73665 0.88806 0.0
C5 C 0.98436 0.68124 0.87626 0.0
C6 C 1.0409 0.69334 0.85567 0.0
C7 C 1.04113 0.8161 0.8459 0.0
C8 C 0.98482 0.80409 0.86726 0.0
C9 C 0.11672 0.77564 0.85881 0.0
O10 O 0.99914 0.79926 0.22939 0.0
O11 O 0.98637 0.77136 0.40746 0.0
O12 O 0.0692 0.88781 0.26107 0.0
O13 O 0.14761 0.88157 0.04569 0.0
O14 O 0.07863 0.73094 0.4406 0.0
O15 O 0.09394 0.84168 0.43039 0.0
O16 O 0.18382 0.82975 0.14775 0.0
O17 O 0.19316 0.75387 1.01179 0.0
O18 O 1.03686 0.69489 0.17865 0.0
O19 O 0.09788 0.68104 0.2213 0.0
C20 C 0.96131 0.78506 0.35936 0.0
O21 O 0.11361 0.83257 0.91485 0.0
O22 O 0.12546 0.72487 0.90155 0.0
C23 C 0.10872 0.91853 0.14102 0.0
C24 C 0.14521 0.78417 0.48148 0.0
C25 C 0.2367 0.779 0.50886 0.0
C26 C 0.20399 0.83652 0.5458 0.0
C27 C 0.15923 0.83916 0.53155 0.0
C28 C 0.17887 0.72722 0.44166 0.0
C29 C 0.22398 0.72473 0.45516 0.0
C30 C 0.0932 0.78552 0.47843 0.0
C31 C 0.21947 0.79088 0.05312 0.0
H32 H 0.96212 0.62875 0.89033 0.0
H33 H 0.0611 0.64985 0.85457 0.0
H34 H 0.06134 0.86894 0.83725 0.0
H35 H 0.96259 0.84808 0.87793 0.0
H36 H 0.21092 0.87856 0.59084 0.0
H37 H 0.13388 0.88349 0.56396 0.0
H38 H 0.16985 0.684 0.40156 0.0
H39 H 0.24874 0.68002 0.42403 0.0
Tb40 Tb 0.63501 0.27542 1.02249 0.0
Tb41 Tb 0.6047 0.28455 0.27567 0.0
C42 C 0.62154 0.14619 0.12188 0.0
C43 C 0.59869 0.29197 0.82 0.0
C44 C 0.48942 0.32546 0.87489 0.0
C45 C 0.51173 0.26275 0.82081 0.0
C46 C 0.56635 0.2461 0.79312 0.0
C47 C 0.57969 0.35742 0.86226 0.0
C48 C 0.52526 0.37401 0.88968 0.0
C49 C 0.64147 0.26638 0.83182 0.0
O50 O 0.52408 0.26781 0.19769 0.0
O51 O 0.50584 0.27553 0.38819 0.0
O52 O 0.5822 0.38341 0.24269 0.0
O53 O 0.65682 0.38318 1.0219 0.0
O54 O 0.62559 0.22166 0.35704 0.0
O55 O 0.59388 0.32005 0.43697 0.0
O56 O 0.69841 0.34134 0.12962 0.0
O57 O 0.72553 0.26617 0.98173 0.0
O58 O 0.66925 0.18623 1.02337 0.0
O59 O 0.58098 0.17814 0.23097 0.0
C60 C 0.4837 0.26791 0.33002 0.0
O61 O 0.6783 0.31303 0.83517 0.0
O62 O 0.61257 0.21704 0.92293 0.0
C63 C 0.61495 0.41492 0.12516 0.0
C64 C 0.66853 0.27804 0.44535 0.0
C65 C 0.75682 0.28834 0.4842 0.0
C66 C 0.71988 0.34152 0.51871 0.0
C67 C 0.67579 0.33617 0.50046 0.0
C68 C 0.70732 0.22625 0.40693 0.0
C69 C 0.75068 0.23135 0.42604 0.0
C70 C 0.61727 0.26705 0.43817 0.0
C71 C 0.74232 0.30728 0.03598 0.0
H72 H 0.48386 0.22449 0.81054 0.0
H73 H 0.58011 0.19536 0.76107 0.0
H74 H 0.60342 0.3936 0.88475 0.0
H75 H 0.50792 0.42216 0.93341 0.0
H76 H 0.72286 0.38579 0.56528 0.0
H77 H 0.64614 0.37655 0.53296 0.0
H78 H 0.70312 0.18041 0.36484 0.0
H79 H 0.77893 0.18992 0.39683 0.0
Tb80 Tb 0.07738 0.26717 0.79282 0.0
Tb81 Tb 0.05855 0.2759 0.03829 0.0
C82 C 0.05972 0.13755 0.95198 0.0
C83 C 1.01761 0.27134 0.61745 0.0
C84 C 0.92632 0.27967 0.59118 0.0
C85 C 0.95599 0.22018 0.55902 0.0
C86 C 1.00093 0.21609 0.57216 0.0
C87 C 0.98613 0.32986 0.65454 0.0
C88 C 0.94086 0.3338 0.64211 0.0
C89 C 0.06976 0.26835 0.61927 0.0
O90 O 0.9812 0.22208 0.9492 0.0
O91 O 0.97002 0.30177 0.07988 0.0
O92 O 0.12659 0.36314 0.91852 0.0
O93 O 0.06645 0.37447 0.87224 0.0
O94 O 0.05099 0.2284 0.18151 0.0
O95 O 1.03331 0.33389 0.19583 0.0
O96 O 0.16479 0.26121 0.86706 0.0
O97 O 0.17725 0.28326 0.6875 0.0
O98 O 0.09755 0.16865 0.83255 0.0
O99 O 1.01971 0.17306 0.04953 0.0
C100 C 0.94473 0.26273 0.03841 0.0
O101 O 0.08648 0.32295 0.65331 0.0
O102 O 0.06735 0.21229 0.67023 0.0
C103 C 0.1019 0.40451 0.89897 0.0
C104 C 0.09678 0.30644 0.24138 0.0
C105 C 0.21966 0.33214 0.16149 0.0
C106 C 0.19163 0.38652 0.16268 0.0
C107 C 0.13044 0.37375 0.20248 0.0
C108 C 0.1215 0.25436 0.25587 0.0
C109 C 0.18244 0.26698 0.21586 0.0
C110 C 0.04586 0.28634 0.23663 0.0
C111 C 0.20255 0.27312 0.7365 0.0
H112 H 0.94613 0.17751 0.51928 0.0
H113 H 1.02421 0.17032 0.54299 0.0
H114 H 0.99689 0.3731 0.69191 0.0
H115 H 0.91739 0.37942 0.67211 0.0
H116 H 0.21844 0.43788 0.12578 0.0
H117 H 0.11196 0.41537 0.19305 0.0
H118 H 0.09649 0.20209 0.28622 0.0
H119 H 0.20243 0.22406 0.2173 0.0
Tb120 Tb 0.55984 0.76097 0.81537 0.0
Tb121 Tb 0.52783 0.77964 0.0705 0.0
C122 C 0.54703 0.63754 0.97966 0.0
C123 C 0.4962 0.76185 0.64662 0.0
C124 C 0.4053 0.76015 0.6161 0.0
C125 C 0.44418 0.70745 0.56852 0.0
C126 C 0.4897 0.70874 0.58227 0.0
C127 C 0.45401 0.81179 0.70175 0.0
C128 C 0.40937 0.81091 0.68659 0.0
C129 C 0.54998 0.76916 0.64645 0.0
O130 O 0.46328 0.71044 0.96574 0.0
O131 O 0.43879 0.7898 0.10658 0.0
O132 O 0.49624 0.86797 0.05872 0.0
O133 O 0.58405 0.8702 0.85056 0.0
O134 O 0.4843 0.74425 0.25945 0.0
O135 O 0.54802 0.84131 0.17082 0.0
O136 O 0.63879 0.78825 0.89861 0.0
O137 O 0.65859 0.76784 0.70804 0.0
O138 O 0.58187 0.66576 0.85898 0.0
O139 O 0.50436 0.67154 0.07741 0.0
C140 C 0.42099 0.7474 0.05535 0.0
O141 O 0.55186 0.82112 0.70712 0.0
O142 O 0.56421 0.71416 0.66751 0.0
C143 C 0.5451 0.90511 0.95638 0.0
C144 C 0.56661 0.76804 0.26703 0.0
C145 C 0.68485 0.73877 0.17633 0.0
C146 C 0.66433 0.80233 0.22894 0.0
C147 C 0.60516 0.81675 0.27507 0.0
C148 C 0.58392 0.70161 0.22907 0.0
C149 C 0.64282 0.68705 0.18387 0.0
C150 C 0.52123 0.79193 0.26082 0.0
C151 C 0.67977 0.78259 0.76739 0.0
H152 H 0.44192 0.66735 0.51434 0.0
H153 H 0.5214 0.66962 0.53841 0.0
H154 H 0.45653 0.85313 0.75373 0.0
H155 H 0.37875 0.85102 0.72803 0.0
H156 H 0.69637 0.8426 0.22439 0.0
H157 H 0.59281 0.8682 0.30391 0.0
H158 H 0.55506 0.6629 0.22245 0.0
H159 H 0.65798 0.63768 0.14382 0.0
C160 C 0.13587 0.49697 0.98455 0.0
C161 C 0.09375 0.47211 0.9627 0.0
C162 C 0.12443 0.55228 0.06474 0.0
C163 C 0.07 0.58582 0.12798 0.0
H164 H 0.1781 0.47247 0.9406 0.0
H165 H 0.15917 0.56958 0.0749 0.0
S166 S 0.94566 0.54394 0.10115 0.0
N167 N 0.99632 0.48794 1.00973 0.0
N168 N 0.9738 0.59028 0.16056 0.0
C169 C 1.02778 0.5618 0.10611 0.0
C170 C 1.03989 0.50593 1.02354 0.0
C171 C 0.64118 0.50783 0.96848 0.0
C172 C 0.59811 0.47699 0.09813 0.0
C173 C 0.62374 0.55632 0.92802 0.0
C174 C 0.56224 0.57727 1.01512 0.0
H175 H 0.6891 0.49323 0.89538 0.0
H176 H 0.65931 0.57853 0.82835 0.0
S177 S 0.43247 0.51738 0.36879 0.0
N178 N 0.49206 0.47451 0.31453 0.0
N179 N 0.45841 0.5646 0.24127 0.0
C180 C 0.51887 0.54766 0.14608 0.0
C181 C 0.53702 0.49848 0.18701 0.0
C182 C 0.52058 1.00638 0.09668 0.0
C183 C 0.56739 0.97097 0.98537 0.0
C184 C 0.53729 0.0598 0.14612 0.0
C185 C 0.60194 0.08077 0.087 0.0
H186 H 0.46986 0.99183 0.14782 0.0
H187 H 0.4993 0.08598 0.22925 0.0
S188 S 0.74387 1.00523 0.79464 0.0
N189 N 0.68173 0.96125 0.81941 0.0
N190 N 0.71341 0.06126 0.9097 0.0
C191 C 0.64935 0.04599 0.97534 0.0
C192 C 0.63223 0.99164 0.9251 0.0
C193 C 1.03514 0.99625 0.17025 0.0
C194 C 0.09753 0.97977 0.09997 0.0
C195 C 1.0233 0.0436 0.11645 0.0
C196 C 0.07293 0.07659 0.98924 0.0
H197 H 0.99479 0.971 0.26578 0.0
H198 H 0.97438 0.05531 0.1766 0.0
S199 S 0.245 0.05058 0.76308 0.0
N200 N 0.21007 1.00064 0.89454 0.0
N201 N 0.187 0.08812 0.79525 0.0
C202 C 0.13531 0.06003 0.91758 0.0
C203 C 0.14769 1.0125 0.9726 0.0
C204 C 0.3197 0.70819 0.61031 0.0
C205 C 0.36345 0.76504 0.58608 0.0
C206 C 0.2795 0.71289 0.58408 0.0
C207 C 0.28183 0.77444 0.53109 0.0
H208 H 0.31559 0.66008 0.65231 0.0
H209 H 0.24534 0.66824 0.60807 0.0
S210 S 0.39342 0.93586 0.43637 0.0
N211 N 0.40955 0.8835 0.49855 0.0
N212 N 0.33584 0.89176 0.44594 0.0
C213 C 0.32688 0.83096 0.5029 0.0
C214 C 0.36711 0.82641 0.53113 0.0
C215 C 0.3071 0.23432 0.65227 0.0
C216 C 0.275 0.27374 0.63483 0.0
C217 C 0.37346 0.2289 0.54897 0.0
C218 C 0.41131 0.26268 0.42302 0.0
H219 H 0.28079 0.20696 0.74566 0.0
H220 H 0.39594 0.19883 0.56904 0.0
S221 S 0.35283 0.37862 0.32946 0.0
N222 N 0.28846 0.35161 0.48205 0.0
N223 N 0.41186 0.34041 0.29115 0.0
C224 C 0.38015 0.3028 0.40467 0.0
C225 C 0.31276 0.30881 0.50959 0.0
C226 C 0.83477 0.22879 0.60396 0.0
C227 C 0.88146 0.28508 0.5689 0.0
C228 C 0.79467 0.23079 0.57716 0.0
C229 C 0.79897 0.28933 0.51491 0.0
H230 H 0.82912 0.18259 0.65264 0.0
H231 H 0.75956 0.18603 0.60633 0.0
S232 S 0.91421 0.44984 0.3992 0.0
N233 N 0.93046 0.40081 0.46553 0.0
N234 N 0.85433 0.40472 0.41738 0.0
C235 C 0.84477 0.34634 0.48074 0.0
C236 C 0.88605 0.3442 0.50725 0.0
C237 C 0.85716 0.8311 0.45603 0.0
C238 C 0.88875 0.78362 0.46102 0.0
C239 C 0.7903 0.8341 0.56139 0.0
C240 C 0.75204 0.79081 0.67767 0.0
H241 H 0.88423 0.8666 0.3711 0.0
H242 H 0.76773 0.86979 0.55053 0.0
S243 S 0.80952 0.65422 0.73792 0.0
N244 N 0.87452 0.68956 0.59195 0.0
N245 N 0.75066 0.69692 0.78715 0.0
C246 C 0.78289 0.74327 0.68375 0.0
C247 C 0.85047 0.73931 0.57651 0.0
C248 C 0.34519 0.8192 0.08437 0.0
C249 C 0.36744 0.75554 0.05925 0.0
C250 C 0.30224 0.83102 0.06899 0.0
C251 C 0.27783 0.77946 1.03063 0.0
H252 H 0.36211 0.86092 0.11347 0.0
H253 H 0.28624 0.88113 0.09192 0.0
S254 S 0.32298 0.60398 0.94742 0.0
N255 N 0.36424 0.64047 0.98707 0.0
N256 N 0.28143 0.6626 0.96392 0.0
C257 C 0.30065 0.71591 1.00244 0.0
C258 C 0.34546 0.70396 1.01612 0.0
C259 C 0.30906 0.30853 0.14709 0.0
C260 C 0.28933 0.3398 0.09135 0.0
C261 C 0.37424 0.30442 0.07497 0.0
C262 C 0.42202 0.33267 0.94586 0.0
H263 H 0.27367 0.28536 0.24613 0.0
H264 H 0.38747 0.27814 0.11988 0.0
S265 S 0.39718 0.42002 0.75331 0.0
N266 N 0.3236 0.39884 0.89706 0.0
N267 N 0.44692 0.39343 0.76416 0.0
C268 C 0.40387 0.36569 0.88928 0.0
C269 C 0.33721 0.36904 0.96183 0.0
C270 C 0.83008 0.24312 0.97502 0.0
C271 C 0.7969 0.30008 1.02961 0.0
C272 C 0.87452 0.23065 0.9859 0.0
C273 C 0.88925 0.27493 0.05024 0.0
H274 H 0.82071 0.20684 0.92587 0.0
H275 H 0.89832 0.18555 0.9409 0.0
S276 S 0.81351 0.4305 0.21461 0.0
N277 N 0.78047 0.401 0.15426 0.0
N278 N 0.86459 0.37731 0.17246 0.0
C279 C 0.85602 0.33186 0.10624 0.0
C280 C 0.8102 0.34456 0.09587 0.0
C281 C 0.83892 0.68438 0.06053 0.0
C282 C 0.88681 0.72594 0.94374 0.0
C283 C 0.77303 0.68665 0.13411 0.0
C284 C 0.7534 0.73116 0.09372 0.0
H285 H 0.85235 0.65321 0.09972 0.0
H286 H 0.73745 0.65603 0.22586 0.0
S287 S 0.8585 0.84213 0.78681 0.0
N288 N 0.90922 0.80545 0.78297 0.0
N289 N 0.7854 0.81185 0.92448 0.0
C290 C 0.80029 0.76945 0.97352 0.0
C291 C 0.86708 0.76618 0.89748 0.0
loop_
_geom_bond_atom_site_label_1
_geom_bond_atom_site_label_2
_geom_bond_distance
_geom_bond_site_symmetry_2
_ccdc_geom_bond_type
Tb0 C9 2.764 1_454 S
Tb0 O10 2.325 1_455 S
Tb0 O13 2.303 . S
Tb0 O17 2.322 1_554 S
Tb0 O18 2.349 . S
Tb0 O21 2.415 1_554 S
Tb0 O22 2.399 1_554 S
Tb1 O11 2.322 1_455 S
Tb1 O12 2.349 . S
Tb1 O14 2.415 . S
Tb1 O15 2.399 . S
Tb1 O16 2.325 . S
Tb1 O19 2.303 . S
Tb1 C30 2.764 . S
C2 O18 1.261 . S
C2 O19 1.257 . S
C3 C6 1.358 . S
C3 C7 1.332 . S
C3 C9 1.504 . S
C4 C5 1.373 . S
C4 C8 1.308 . S
C5 C4 1.373 . S
C5 C6 1.429 . S
C5 H32 0.932 . S
C6 C3 1.358 . S
C6 C5 1.429 . S
C6 H33 0.930 . S
C7 C3 1.332 . S
C7 C8 1.394 . S
C7 H34 0.932 1_556 S
C8 C4 1.308 . S
C8 C7 1.394 . S
C8 H35 0.929 . S
C9 Tb0 2.764 1_656 S
C9 C3 1.504 . S
C9 O21 1.239 1_655 S
C9 O22 1.263 1_655 S
O10 Tb0 2.325 1_655 S
O10 C20 1.236 . S
O11 Tb1 2.322 1_655 S
O11 C20 1.257 . S
O12 Tb1 2.349 . S
O12 C23 1.261 . S
O13 Tb0 2.303 . S
O13 C23 1.257 . S
O14 Tb1 2.415 . S
O14 C30 1.239 . S
O15 Tb1 2.399 . S
O15 C30 1.263 . S
O16 Tb1 2.325 . S
O16 C31 1.236 . S
O17 Tb0 2.322 1_556 S
O17 C31 1.257 1_556 S
O18 Tb0 2.349 . S
O18 C2 1.261 . S
O19 Tb1 2.303 . S
O19 C2 1.257 . S
C20 O10 1.236 . S
C20 O11 1.257 . S
O21 Tb0 2.415 1_556 S
O21 C9 1.239 1_455 S
O22 Tb0 2.399 1_556 S
O22 C9 1.263 1_455 S
C23 O12 1.261 . S
C23 O13 1.257 . S
C24 C27 1.358 . S
C24 C28 1.332 . S
C24 C30 1.504 . S
C25 C26 1.373 . S
C25 C29 1.308 . S
C26 C25 1.373 . S
C26 C27 1.429 . S
C26 H36 0.932 . S
C27 C24 1.358 . S
C27 C26 1.429 . S
C27 H37 0.930 . S
C28 C24 1.332 . S
C28 C29 1.394 . S
C28 H38 0.932 . S
C29 C25 1.308 . S
C29 C28 1.394 . S
C29 H39 0.929 . S
C30 Tb1 2.764 . S
C30 O14 1.239 . S
C30 O15 1.263 . S
C30 C24 1.504 . S
C31 O16 1.236 . S
C31 O17 1.257 1_554 S
H32 C5 0.932 . S
H33 C6 0.930 . S
H34 C7 0.932 1_554 S
H35 C8 0.929 . S
H36 C26 0.932 . S
H37 C27 0.930 . S
H38 C28 0.932 . S
H39 C29 0.929 . S
Tb40 C49 2.764 1_554 S
Tb40 O50 2.325 . S
Tb40 O53 2.303 . S
Tb40 O57 2.322 1_554 S
Tb40 O58 2.349 . S
Tb40 O61 2.415 1_554 S
Tb40 O62 2.399 1_554 S
Tb41 O51 2.322 . S
Tb41 O52 2.349 . S
Tb41 O54 2.415 . S
Tb41 O55 2.399 . S
Tb41 O56 2.325 . S
Tb41 O59 2.303 . S
Tb41 C70 2.764 . S
C42 O58 1.261 . S
C42 O59 1.257 . S
C43 C46 1.358 . S
C43 C47 1.332 . S
C43 C49 1.504 . S
C44 C45 1.373 . S
C44 C48 1.308 . S
C45 C44 1.373 . S
C45 C46 1.429 . S
C45 H72 0.932 . S
C46 C43 1.358 . S
C46 C45 1.429 . S
C46 H73 0.930 . S
C47 C43 1.332 . S
C47 C48 1.394 . S
C47 H74 0.932 1_556 S
C48 C44 1.308 . S
C48 C47 1.394 . S
C48 H75 0.929 . S
C49 Tb40 2.764 1_556 S
C49 C43 1.504 . S
C49 O61 1.239 . S
C49 O62 1.263 . S
O50 Tb40 2.325 . S
O50 C60 1.236 . S
O51 Tb41 2.322 . S
O51 C60 1.257 . S
O52 Tb41 2.349 . S
O52 C63 1.261 . S
O53 Tb40 2.303 . S
O53 C63 1.257 . S
O54 Tb41 2.415 . S
O54 C70 1.239 . S
O55 Tb41 2.399 . S
O55 C70 1.263 . S
O56 Tb41 2.325 . S
O56 C71 1.236 . S
O57 Tb40 2.322 1_556 S
O57 C71 1.257 1_556 S
O58 Tb40 2.349 . S
O58 C42 1.261 . S
O59 Tb41 2.303 . S
O59 C42 1.257 . S
C60 O50 1.236 . S
C60 O51 1.257 . S
O61 Tb40 2.415 1_556 S
O61 C49 1.239 . S
O62 Tb40 2.399 1_556 S
O62 C49 1.263 . S
C63 O52 1.261 . S
C63 O53 1.257 . S
C64 C67 1.358 . S
C64 C68 1.332 . S
C64 C70 1.504 . S
C65 C66 1.373 . S
C65 C69 1.308 . S
C66 C65 1.373 . S
C66 C67 1.429 . S
C66 H76 0.932 . S
C67 C64 1.358 . S
C67 C66 1.429 . S
C67 H77 0.930 . S
C68 C64 1.332 . S
C68 C69 1.394 . S
C68 H78 0.932 . S
C69 C65 1.308 . S
C69 C68 1.394 . S
C69 H79 0.929 . S
C70 Tb41 2.764 . S
C70 O54 1.239 . S
C70 O55 1.263 . S
C70 C64 1.504 . S
C71 O56 1.236 . S
C71 O57 1.257 1_554 S
H72 C45 0.932 . S
H73 C46 0.930 . S
H74 C47 0.932 1_554 S
H75 C48 0.929 . S
H76 C66 0.932 . S
H77 C67 0.930 . S
H78 C68 0.932 . S
H79 C69 0.929 . S
Tb80 C89 2.764 1_455 S
Tb80 O90 2.325 1_455 S
Tb80 O93 2.303 . S
Tb80 O97 2.322 . S
Tb80 O98 2.349 . S
Tb80 O101 2.415 1_455 S
Tb80 O102 2.399 1_455 S
Tb81 O91 2.322 1_456 S
Tb81 O92 2.349 . S
Tb81 O94 2.415 1_556 S
Tb81 O95 2.399 1_556 S
Tb81 O96 2.325 . S
Tb81 O99 2.303 . S
Tb81 C110 2.764 1_556 S
C82 O98 1.261 . S
C82 O99 1.257 . S
C83 C86 1.358 . S
C83 C87 1.332 . S
C83 C89 1.504 . S
C84 C85 1.373 . S
C84 C88 1.308 . S
C85 C84 1.373 . S
C85 C86 1.429 . S
C85 H112 0.932 . S
C86 C83 1.358 . S
C86 C85 1.429 . S
C86 H113 0.930 . S
C87 C83 1.332 . S
C87 C88 1.394 . S
C87 H114 0.932 . S
C88 C84 1.308 . S
C88 C87 1.394 . S
C88 H115 0.929 . S
C89 Tb80 2.764 1_655 S
C89 C83 1.504 . S
C89 O101 1.239 . S
C89 O102 1.263 . S
O90 Tb80 2.325 1_655 S
O90 C100 1.236 . S
O91 Tb81 2.322 1_654 S
O91 C100 1.257 1_554 S
O92 Tb81 2.349 . S
O92 C103 1.261 . S
O93 Tb80 2.303 . S
O93 C103 1.257 . S
O94 Tb81 2.415 1_554 S
O94 C110 1.239 . S
O95 Tb81 2.399 1_554 S
O95 C110 1.263 . S
O96 Tb81 2.325 . S
O96 C111 1.236 . S
O97 Tb80 2.322 . S
O97 C111 1.257 . S
O98 Tb80 2.349 . S
O98 C82 1.261 . S
O99 Tb81 2.303 . S
O99 C82 1.257 . S
C100 O90 1.236 . S
C100 O91 1.257 1_556 S
O101 Tb80 2.415 1_655 S
O101 C89 1.239 . S
O102 Tb80 2.399 1_655 S
O102 C89 1.263 . S
C103 O92 1.261 . S
C103 O93 1.257 . S
C104 C107 1.358 . S
C104 C108 1.332 . S
C104 C110 1.504 . S
C105 C106 1.373 . S
C105 C109 1.308 . S
C106 C105 1.373 . S
C106 C107 1.429 . S
C106 H116 0.932 . S
C107 C104 1.358 . S
C107 C106 1.429 . S
C107 H117 0.930 . S
C108 C104 1.332 . S
C108 C109 1.394 . S
C108 H118 0.932 1_554 S
C109 C105 1.308 . S
C109 C108 1.394 . S
C109 H119 0.929 . S
C110 Tb81 2.764 1_554 S
C110 O94 1.239 . S
C110 O95 1.263 . S
C110 C104 1.504 . S
C111 O96 1.236 . S
C111 O97 1.257 . S
H112 C85 0.932 . S
H113 C86 0.930 . S
H114 C87 0.932 . S
H115 C88 0.929 . S
H116 C106 0.932 . S
H117 C107 0.930 . S
H118 C108 0.932 1_556 S
H119 C109 0.929 . S
Tb120 C129 2.764 . S
Tb120 O130 2.325 . S
Tb120 O133 2.303 . S
Tb120 O137 2.322 . S
Tb120 O138 2.349 . S
Tb120 O141 2.415 . S
Tb120 O142 2.399 . S
Tb121 O131 2.322 1_556 S
Tb121 O132 2.349 . S
Tb121 O134 2.415 1_556 S
Tb121 O135 2.399 1_556 S
Tb121 O136 2.325 . S
Tb121 O139 2.303 . S
Tb121 C150 2.764 1_556 S
C122 O138 1.261 . S
C122 O139 1.257 . S
C123 C126 1.358 . S
C123 C127 1.332 . S
C123 C129 1.504 . S
C124 C125 1.373 . S
C124 C128 1.308 . S
C125 C124 1.373 . S
C125 C126 1.429 . S
C125 H152 0.932 . S
C126 C123 1.358 . S
C126 C125 1.429 . S
C126 H153 0.930 . S
C127 C123 1.332 . S
C127 C128 1.394 . S
C127 H154 0.932 . S
C128 C124 1.308 . S
C128 C127 1.394 . S
C128 H155 0.929 . S
C129 Tb120 2.764 . S
C129 C123 1.504 . S
C129 O141 1.239 . S
C129 O142 1.263 . S
O130 Tb120 2.325 . S
O130 C140 1.236 . S
O131 Tb121 2.322 1_554 S
O131 C140 1.257 1_554 S
O132 Tb121 2.349 . S
O132 C143 1.261 . S
O133 Tb120 2.303 . S
O133 C143 1.257 . S
O134 Tb121 2.415 1_554 S
O134 C150 1.239 . S
O135 Tb121 2.399 1_554 S
O135 C150 1.263 . S
O136 Tb121 2.325 . S
O136 C151 1.236 . S
O137 Tb120 2.322 . S
O137 C151 1.257 . S
O138 Tb120 2.349 . S
O138 C122 1.261 . S
O139 Tb121 2.303 . S
O139 C122 1.257 . S
C140 O130 1.236 . S
C140 O131 1.257 1_556 S
O141 Tb120 2.415 . S
O141 C129 1.239 . S
O142 Tb120 2.399 . S
O142 C129 1.263 . S
C143 O132 1.261 . S
C143 O133 1.257 . S
C144 C147 1.358 . S
C144 C148 1.332 . S
C144 C150 1.504 . S
C145 C146 1.373 . S
C145 C149 1.308 . S
C146 C145 1.373 . S
C146 C147 1.429 . S
C146 H156 0.932 . S
C147 C144 1.358 . S
C147 C146 1.429 . S
C147 H157 0.930 . S
C148 C144 1.332 . S
C148 C149 1.394 . S
C148 H158 0.932 1_554 S
C149 C145 1.308 . S
C149 C148 1.394 . S
C149 H159 0.929 . S
C150 Tb121 2.764 1_554 S
C150 O134 1.239 . S
C150 O135 1.263 . S
C150 C144 1.504 . S
C151 O136 1.236 . S
C151 O137 1.257 . S
H152 C125 0.932 . S
H153 C126 0.930 . S
H154 C127 0.932 . S
H155 C128 0.929 . S
H156 C146 0.932 . S
H157 C147 0.930 . S
H158 C148 0.932 1_556 S
H159 C149 0.929 . S
C160 C161 1.369 . S
C160 C162 1.419 . S
C160 H164 0.930 . S
C161 C160 1.369 . S
C161 C170 1.429 1_456 S
C162 C160 1.419 . S
C162 C163 1.363 1_556 S
C162 H165 0.929 . S
C163 C162 1.363 1_554 S
C163 C169 1.429 . S
H164 C160 0.930 . S
H165 C162 0.929 . S
S166 N167 1.613 . S
S166 N168 1.610 . S
N167 S166 1.613 . S
N167 C170 1.350 . S
N168 S166 1.610 . S
N168 C169 1.351 1_655 S
C169 C163 1.429 . S
C169 N168 1.351 1_455 S
C169 C170 1.433 1_455 S
C170 C161 1.429 1_654 S
C170 N167 1.350 . S
C170 C169 1.433 1_655 S
C171 C172 1.369 1_556 S
C171 C173 1.419 . S
C171 H175 0.930 . S
C172 C171 1.369 1_554 S
C172 C181 1.429 . S
C173 C171 1.419 . S
C173 C174 1.363 . S
C173 H176 0.929 . S
C174 C173 1.363 . S
C174 C180 1.428 1_556 S
H175 C171 0.930 . S
H176 C173 0.929 . S
S177 N178 1.613 . S
S177 N179 1.610 . S
N178 S177 1.613 . S
N178 C181 1.350 . S
N179 S177 1.610 . S
N179 C180 1.351 . S
C180 C174 1.428 1_554 S
C180 N179 1.351 . S
C180 C181 1.434 . S
C181 C172 1.429 . S
C181 N178 1.350 . S
C181 C180 1.434 . S
C182 C183 1.369 1_545 S
C182 C184 1.419 1_556 S
C182 H186 0.930 . S
C183 C182 1.369 1_565 S
C183 C192 1.429 . S
C184 C182 1.419 1_554 S
C184 C185 1.363 . S
C184 H187 0.929 . S
C185 C184 1.363 . S
C185 C191 1.428 1_545 S
H186 C182 0.930 . S
H187 C184 0.929 . S
S188 N189 1.613 . S
S188 N190 1.610 1_556 S
N189 S188 1.613 . S
N189 C192 1.350 . S
N190 S188 1.610 1_554 S
N190 C191 1.351 . S
C191 C185 1.428 1_565 S
C191 N190 1.351 . S
C191 C192 1.434 1_554 S
C192 C183 1.429 . S
C192 N189 1.350 . S
C192 C191 1.434 1_556 S
C193 C194 1.369 . S
C193 C195 1.423 1_455 S
C193 H197 0.930 1_455 S
C194 C193 1.369 . S
C194 C203 1.428 1_564 S
C195 C193 1.423 1_655 S
C195 C196 1.362 1_664 S
C195 H198 0.926 . S
C196 C195 1.362 1_446 S
C196 C202 1.428 . S
H197 C193 0.930 1_655 S
H198 C195 0.926 . S
S199 N200 1.613 . S
S199 N201 1.610 . S
N200 S199 1.613 . S
N200 C203 1.346 . S
N201 S199 1.610 . S
N201 C202 1.351 . S
C202 C196 1.428 . S
C202 N201 1.351 . S
C202 C203 1.439 . S
C203 C194 1.428 1_546 S
C203 N200 1.346 . S
C203 C202 1.439 . S
C204 C205 1.369 . S
C204 C206 1.419 . S
C204 H208 0.930 . S
C205 C204 1.369 . S
C205 C214 1.429 . S
C206 C204 1.419 . S
C206 C207 1.363 . S
C206 H209 0.929 . S
C207 C206 1.363 . S
C207 C213 1.428 . S
H208 C204 0.930 . S
H209 C206 0.929 . S
S210 N211 1.613 . S
S210 N212 1.610 . S
N211 S210 1.613 . S
N211 C214 1.350 . S
N212 S210 1.610 . S
N212 C213 1.351 . S
C213 C207 1.428 . S
C213 N212 1.351 . S
C213 C214 1.434 . S
C214 C205 1.429 . S
C214 N211 1.350 . S
C214 C213 1.434 . S
C215 C216 1.369 . S
C215 C217 1.419 . S
C215 H219 0.930 . S
C216 C215 1.369 . S
C216 C225 1.429 . S
C217 C215 1.419 . S
C217 C218 1.363 . S
C217 H220 0.929 . S
C218 C217 1.363 . S
C218 C224 1.428 . S
H219 C215 0.930 . S
H220 C217 0.929 . S
S221 N222 1.613 . S
S221 N223 1.610 . S
N222 S221 1.613 . S
N222 C225 1.350 . S
N223 S221 1.610 . S
N223 C224 1.351 . S
C224 C218 1.428 . S
C224 N223 1.351 . S
C224 C225 1.434 . S
C225 C216 1.429 . S
C225 N222 1.350 . S
C225 C224 1.434 . S
C226 C227 1.369 . S
C226 C228 1.419 . S
C226 H230 0.930 . S
C227 C226 1.369 . S
C227 C236 1.429 . S
C228 C226 1.419 . S
C228 C229 1.363 . S
C228 H231 0.929 . S
C229 C228 1.363 . S
C229 C235 1.428 . S
H230 C226 0.930 . S
H231 C228 0.929 . S
S232 N233 1.613 . S
S232 N234 1.610 . S
N233 S232 1.613 . S
N233 C236 1.350 . S
N234 S232 1.610 . S
N234 C235 1.351 . S
C235 C229 1.428 . S
C235 N234 1.351 . S
C235 C236 1.434 . S
C236 C227 1.429 . S
C236 N233 1.350 . S
C236 C235 1.434 . S
C237 C238 1.369 . S
C237 C239 1.419 . S
C237 H241 0.930 . S
C238 C237 1.369 . S
C238 C247 1.429 . S
C239 C237 1.419 . S
C239 C240 1.363 . S
C239 H242 0.929 . S
C240 C239 1.363 . S
C240 C246 1.428 . S
H241 C237 0.930 . S
H242 C239 0.929 . S
S243 N244 1.613 . S
S243 N245 1.610 . S
N244 S243 1.613 . S
N244 C247 1.350 . S
N245 S243 1.610 . S
N245 C246 1.351 . S
C246 C240 1.428 . S
C246 N245 1.351 . S
C246 C247 1.434 . S
C247 C238 1.429 . S
C247 N244 1.350 . S
C247 C246 1.434 . S
C248 C249 1.369 1_556 S
C248 C250 1.419 . S
C248 H252 0.930 . S
C249 C248 1.369 1_554 S
C249 C258 1.429 . S
C250 C248 1.419 . S
C250 C251 1.363 . S
C250 H253 0.929 . S
C251 C250 1.363 . S
C251 C257 1.428 1_556 S
H252 C248 0.930 . S
H253 C250 0.929 . S
S254 N255 1.613 . S
S254 N256 1.610 . S
N255 S254 1.613 . S
N255 C258 1.350 . S
N256 S254 1.610 . S
N256 C257 1.351 . S
C257 C251 1.428 1_554 S
C257 N256 1.351 . S
C257 C258 1.434 . S
C258 C249 1.429 . S
C258 N255 1.350 . S
C258 C257 1.434 . S
C259 C260 1.369 . S
C259 C261 1.419 1_554 S
C259 H263 0.930 . S
C260 C259 1.369 . S
C260 C269 1.429 . S
C261 C259 1.419 1_556 S
C261 C262 1.363 . S
C261 H264 0.929 . S
C262 C261 1.363 . S
C262 C268 1.428 . S
H263 C259 0.930 . S
H264 C261 0.929 . S
S265 N266 1.613 . S
S265 N267 1.610 1_554 S
N266 S265 1.613 . S
N266 C269 1.350 . S
N267 S265 1.610 1_556 S
N267 C268 1.351 . S
C268 C262 1.428 . S
C268 N267 1.351 . S
C268 C269 1.434 1_556 S
C269 C260 1.429 . S
C269 N266 1.350 . S
C269 C268 1.434 1_554 S
C270 C271 1.369 . S
C270 C272 1.419 . S
C270 H274 0.930 . S
C271 C270 1.369 . S
C271 C280 1.429 1_556 S
C272 C270 1.419 . S
C272 C273 1.363 1_556 S
C272 H275 0.929 . S
C273 C272 1.363 1_554 S
C273 C279 1.428 . S
H274 C270 0.930 . S
H275 C272 0.929 . S
S276 N277 1.613 . S
S276 N278 1.610 . S
N277 S276 1.613 . S
N277 C280 1.350 . S
N278 S276 1.610 . S
N278 C279 1.351 . S
C279 C273 1.428 . S
C279 N278 1.351 . S
C279 C280 1.434 . S
C280 C271 1.429 1_554 S
C280 N277 1.350 . S
C280 C279 1.434 . S
C281 C282 1.369 . S
C281 C283 1.419 1_556 S
C281 H285 0.930 . S
C282 C281 1.369 . S
C282 C291 1.429 . S
C283 C281 1.419 1_554 S
C283 C284 1.363 . S
C283 H286 0.929 . S
C284 C283 1.363 . S
C284 C290 1.428 . S
H285 C281 0.930 . S
H286 C283 0.929 . S
S287 N288 1.613 . S
S287 N289 1.610 1_556 S
N288 S287 1.613 . S
N288 C291 1.350 . S
N289 S287 1.610 1_554 S
N289 C290 1.351 . S
C290 C284 1.428 . S
C290 N289 1.351 . S
C290 C291 1.434 1_554 S
C291 C282 1.429 . S
C291 N288 1.350 . S
C291 C290 1.434 1_556 S
C161 C103 2.027 . S
C163 C2 2.030 . S
C172 C63 2.717 . S
C174 C122 2.719 . S
C183 C143 2.023 . S
C185 C42 2.033 . S
C194 C23 2.720 . S
C196 C82 2.717 . S
C205 C124 1.647 . S
C207 C25 1.642 . S
C216 C111 1.587 . S
C218 C60 1.588 . S
C227 C84 1.645 . S
C229 C65 1.643 . S
C238 C20 1.586 . S
C240 C151 1.588 . S
C249 C140 2.203 1_554 S
C251 C31 2.198 1_556 S
C260 C105 1.052 . S
C262 C44 1.053 . S
C271 C71 2.197 1_556 S
C273 C100 2.202 1_554 S
C282 C4 1.057 . S
C284 C145 1.050 . S
