# Generated by pormake.
# Topology irl, (4)-cn, num edge types: 1
# Building blocks:
#     Node 0, Type 0, BuildingBlock: TATPOV_clean_sbu_0, # of connection points: 4
#     Node 1, Type 0, BuildingBlock: TATPOV_clean_sbu_0, # of connection points: 4
#     Node 2, Type 0, BuildingBlock: TATPOV_clean_sbu_0, # of connection points: 4
#     Node 3, Type 0, BuildingBlock: TATPOV_clean_sbu_0, # of connection points: 4
#     Node 4, Type 0, BuildingBlock: TATPOV_clean_sbu_0, # of connection points: 4
#     Node 5, Type 0, BuildingBlock: TATPOV_clean_sbu_0, # of connection points: 4
#     Node 6, Type 0, BuildingBlock: TATPOV_clean_sbu_0, # of connection points: 4
#     Node 7, Type 0, BuildingBlock: TATPOV_clean_sbu_0, # of connection points: 4
#     Edge 8, Type (0, 0), BuildingBlock: TEMPAE_clean_linker_10, # of connection points: 2
#     Edge 9, Type (0, 0), BuildingBlock: TEMPAE_clean_linker_10, # of connection points: 2
#     Edge 10, Type (0, 0), BuildingBlock: TEMPAE_clean_linker_10, # of connection points: 2
#     Edge 11, Type (0, 0), BuildingBlock: TEMPAE_clean_linker_10, # of connection points: 2
#     Edge 12, Type (0, 0), BuildingBlock: TEMPAE_clean_linker_10, # of connection points: 2
#     Edge 13, Type (0, 0), BuildingBlock: TEMPAE_clean_linker_10, # of connection points: 2
#     Edge 14, Type (0, 0), BuildingBlock: TEMPAE_clean_linker_10, # of connection points: 2
#     Edge 15, Type (0, 0), BuildingBlock: TEMPAE_clean_linker_10, # of connection points: 2
#     Edge 16, Type (0, 0), BuildingBlock: TEMPAE_clean_linker_10, # of connection points: 2
#     Edge 17, Type (0, 0), BuildingBlock: TEMPAE_clean_linker_10, # of connection points: 2
#     Edge 18, Type (0, 0), BuildingBlock: TEMPAE_clean_linker_10, # of connection points: 2
#     Edge 19, Type (0, 0), BuildingBlock: TEMPAE_clean_linker_10, # of connection points: 2
#     Edge 20, Type (0, 0), BuildingBlock: TEMPAE_clean_linker_10, # of connection points: 2
#     Edge 21, Type (0, 0), BuildingBlock: TEMPAE_clean_linker_10, # of connection points: 2
#     Edge 22, Type (0, 0), BuildingBlock: TEMPAE_clean_linker_10, # of connection points: 2
#     Edge 23, Type (0, 0), BuildingBlock: TEMPAE_clean_linker_10, # of connection points: 2
# Relax obj value: 0.141
# Max RMSD: 0.157
# Mean RMSD: 0.157
data_MOF--net-irl--node1-TATPOV_clean_sbu_0--edge1-TEMPAE_clean_linker_10
_symmetry_space_group_name_H-M    P1
_symmetry_Int_Tables_number       1
_symmetry_cell_setting            triclinic
loop_
_symmetry_equiv_pos_as_xyz
'x, y, z'
_cell_length_a     40.364817
_cell_length_b     30.687869
_cell_length_c     28.176909
_cell_angle_alpha  89.866509
_cell_angle_beta   89.949344
_cell_angle_gamma 90.057596
loop_
_atom_site_label
_atom_site_type_symbol
_atom_site_fract_x
_atom_site_fract_y
_atom_site_fract_z
_atom_type_partial_charge
Zn0 Zn 1.00556 0.25928 0.9747 0.0
Zn1 Zn 0.07058 0.25869 -0.01262 0.0
O2 O 0.06192 0.294 0.9261 0.0
O3 O 1.00814 0.30553 0.92478 0.0
O4 O 0.12065 0.263 -0.00529 0.0
O5 O 0.99838 0.27566 0.04233 0.0
O6 O 0.05236 0.28332 0.05035 0.0
C7 C 0.0366 0.31195 0.90741 0.0
C8 C 0.03416 0.17374 0.966 0.0
O9 O 0.06026 0.1931 0.98045 0.0
O10 O 1.00812 0.19532 0.95725 0.0
C11 C 0.1402 0.2441 0.96589 0.0
O12 O 0.12755 0.22031 0.93166 0.0
C13 C 0.02314 0.28593 0.0674 0.0
Zn14 Zn 0.027 0.75892 -0.01075 0.0
Zn15 Zn 0.95982 0.76781 -0.0101 0.0
O16 O 0.97166 0.72963 0.93201 0.0
O17 O 0.02529 0.71665 0.93586 0.0
O18 O 0.90928 0.7669 -0.01157 0.0
O19 O 0.02549 0.73496 0.05511 0.0
O20 O 0.97113 0.74283 0.05579 0.0
C21 C 0.99756 0.71085 0.91612 0.0
C22 C 1.00342 0.84824 0.97667 0.0
O23 O 0.97472 0.83166 -0.01732 0.0
O24 O 0.02895 0.8242 0.97655 0.0
C25 C 0.89005 0.79975 -0.01288 0.0
O26 O 0.90288 0.83911 -0.01264 0.0
C27 C 0.99793 0.73123 0.0761 0.0
Zn28 Zn 1.0028 0.74069 0.51147 0.0
Zn29 Zn 0.06966 0.75014 0.50716 0.0
O30 O 0.0592 0.71306 0.56654 0.0
O31 O 1.00577 0.69852 0.56516 0.0
O32 O 0.12017 0.74854 0.50509 0.0
O33 O 1.00182 0.71765 0.44527 0.0
O34 O 0.05602 0.72628 0.44189 0.0
C35 C 0.03391 0.69402 0.58415 0.0
C36 C 0.02687 0.83034 0.52216 0.0
O37 O 0.05542 0.81396 0.51456 0.0
O38 O 1.00142 0.8061 0.52407 0.0
C39 C 0.1396 0.77966 0.51598 0.0
O40 O 0.12697 0.81724 0.52893 0.0
C41 C 0.02878 0.71501 0.4226 0.0
Zn42 Zn 0.02662 0.2397 0.50883 0.0
Zn43 Zn 0.96107 0.24103 0.50213 0.0
O44 O 0.97232 0.27823 0.56088 0.0
O45 O 0.02629 0.28804 0.55649 0.0
O46 O 0.91081 0.24483 0.49739 0.0
O47 O 0.03085 0.25342 0.43975 0.0
O48 O 0.97701 0.26549 0.43781 0.0
C49 C 0.99878 0.29615 0.57603 0.0
C50 C 0.99747 0.15574 0.52401 0.0
O51 O 0.97122 0.17538 0.51057 0.0
O52 O 0.02413 0.17681 0.52992 0.0
C53 C 0.89212 0.24022 0.53348 0.0
O54 O 0.90569 0.23191 0.57489 0.0
C55 C 1.00531 0.26596 0.41768 0.0
Zn56 Zn 0.50518 0.7693 0.98203 0.0
Zn57 Zn 0.57207 0.76095 -0.01437 0.0
O58 O 0.56159 0.7958 0.92447 0.0
O59 O 0.50797 0.80916 0.92639 0.0
O60 O 0.6225 0.76127 -0.01004 0.0
O61 O 0.50399 0.79512 0.047 0.0
O62 O 0.55823 0.78725 0.04965 0.0
C63 C 0.53588 0.81357 0.9066 0.0
C64 C 0.52966 0.67971 0.9748 0.0
O65 O 0.55814 0.69677 0.98105 0.0
O66 O 0.504 0.70345 0.97243 0.0
C67 C 0.64158 0.76155 0.95395 0.0
O68 O 0.62847 0.76006 0.91132 0.0
C69 C 0.53112 0.79903 0.06894 0.0
Zn70 Zn 0.52496 0.26562 -0.01589 0.0
Zn71 Zn 0.45809 0.27104 -0.00862 0.0
O72 O 0.46734 0.23529 0.9306 0.0
O73 O 0.52134 0.2245 0.92996 0.0
O74 O 0.40781 0.26916 -0.00341 0.0
O75 O 0.52797 0.24003 0.04913 0.0
O76 O 0.47353 0.24422 0.05467 0.0
C77 C 0.49304 0.21799 0.91223 0.0
C78 C 0.49866 0.35391 0.97703 0.0
O79 O 0.47082 0.33578 -0.01446 0.0
O80 O 0.52473 0.33117 0.97314 0.0
C81 C 0.38879 0.29004 0.96863 0.0
O82 O 0.40203 0.31504 0.93576 0.0
C83 C 0.50153 0.23377 0.07223 0.0
Zn84 Zn 0.50673 0.24371 0.5006 0.0
Zn85 Zn 0.57363 0.2523 0.50198 0.0
O86 O 0.56014 0.21812 0.56239 0.0
O87 O 0.50671 0.20434 0.55674 0.0
O88 O 0.62415 0.25027 0.50396 0.0
O89 O 0.50851 0.21733 0.43592 0.0
O90 O 0.56276 0.22578 0.43685 0.0
C91 C 0.53384 0.20041 0.57865 0.0
C92 C 0.53098 0.33348 0.50887 0.0
O93 O 0.55967 0.31655 0.50471 0.0
O94 O 0.5053 0.30962 0.50962 0.0
C95 C 0.64338 0.28216 0.5127 0.0
O96 O 0.63055 0.32072 0.52105 0.0
C97 C 0.53638 0.21359 0.41586 0.0
Zn98 Zn 0.52434 0.74751 0.49903 0.0
Zn99 Zn 0.45718 0.74142 0.49649 0.0
O100 O 0.4683 0.7773 0.55664 0.0
O101 O 0.52231 0.78802 0.55383 0.0
O102 O 0.40676 0.74227 0.49367 0.0
O103 O 0.5249 0.77381 0.43417 0.0
O104 O 0.47039 0.7686 0.43241 0.0
C105 C 0.49459 0.79447 0.57342 0.0
C106 C 0.49866 0.65894 0.50741 0.0
O107 O 0.47048 0.67683 0.50119 0.0
O108 O 0.52476 0.68188 0.5094 0.0
C109 C 0.38846 0.73717 0.53008 0.0
O110 O 0.40249 0.72959 0.57134 0.0
C111 C 0.49766 0.77971 0.41303 0.0
C112 C 0.98579 0.92479 -0.00654 0.0
C113 C 1.00751 0.89585 0.97097 0.0
C114 C 0.9911 0.97001 -0.00875 0.0
C115 C 0.01818 0.98663 0.9647 0.0
C116 C 0.0395 0.95753 0.94059 0.0
C117 C 0.0342 0.91246 0.94463 0.0
C118 C 0.96822 0.99994 0.01828 0.0
C119 C 0.06796 0.97398 0.91068 0.0
C120 C 1.01205 0.10585 0.92926 0.0
C121 C 0.03298 0.12574 0.96248 0.0
C122 C 1.00796 0.06043 0.92843 0.0
C123 C 0.02438 0.03445 0.96266 0.0
C124 C 0.04599 0.05435 -0.00419 0.0
C125 C 0.05042 0.09977 -0.00515 0.0
C126 C 0.98559 0.04037 0.89151 0.0
C127 C 0.0634 0.02787 0.0335 0.0
H128 H 0.96529 0.91199 0.01413 0.0
H129 H 0.05089 0.89013 0.92687 0.0
H130 H 0.9827 0.01943 0.04413 0.0
H131 H 0.95618 0.0232 -0.00643 0.0
H132 H 0.94862 0.98181 0.03778 0.0
H133 H 0.0811 0.94718 0.89209 0.0
H134 H 0.05878 0.99754 0.88381 0.0
H135 H 0.08602 0.99152 0.93332 0.0
H136 H 0.99867 0.12591 0.90402 0.0
H137 H 0.06633 0.11516 0.02089 0.0
H138 H 0.96366 0.02556 0.90896 0.0
H139 H 0.99879 0.01392 0.87252 0.0
H140 H 0.97685 0.06468 0.86506 0.0
H141 H 0.04478 0.01145 0.0564 0.0
H142 H 0.07969 0.0482 0.05625 0.0
H143 H 0.07862 1.00201 0.01685 0.0
C144 C 0.99673 0.89485 0.55436 0.0
C145 C 0.02281 0.87798 0.5271 0.0
C146 C 0.99141 0.93995 0.55749 0.0
C147 C 1.01203 0.96876 0.53156 0.0
C148 C 0.0385 0.95186 0.50412 0.0
C149 C 0.04389 0.90667 0.50281 0.0
C150 C 0.96365 0.95675 0.58838 0.0
C151 C 0.06063 0.98145 0.47518 0.0
C152 C 0.97953 0.08127 0.49922 0.0
C153 C 0.99801 0.10789 0.52963 0.0
C154 C 0.98353 0.03579 0.49983 0.0
C155 C 1.00581 0.01656 0.53262 0.0
C156 C 0.02317 0.04325 0.5651 0.0
C157 C 0.01947 0.08866 0.56268 0.0
C158 C 0.96509 0.00852 0.46398 0.0
C159 C 0.04629 0.02395 0.60162 0.0
H160 H 0.98055 0.87271 0.57348 0.0
H161 H 0.06389 0.89367 0.48142 0.0
H162 H 0.97342 0.98087 0.61412 0.0
H163 H 0.94498 0.97374 0.56621 0.0
H164 H 0.95107 0.93021 0.60835 0.0
H165 H 0.07975 0.9631 0.45511 0.0
H166 H 0.04548 1.00045 0.44963 0.0
H167 H 0.07326 1.00515 0.49869 0.0
H168 H 0.96319 0.09615 0.47333 0.0
H169 H 0.03364 0.10924 0.58642 0.0
H170 H 0.95045 0.98285 0.4822 0.0
H171 H 0.98307 0.99182 0.4404 0.0
H172 H 0.94808 0.02833 0.44171 0.0
H173 H 0.03355 0.99772 0.62178 0.0
H174 H 0.05547 0.04877 0.62708 0.0
H175 H 0.06793 0.00902 0.58365 0.0
C176 C 0.54624 0.60438 -0.00136 0.0
C177 C 0.52595 0.63192 0.97168 0.0
C178 C 0.54114 0.55908 -0.00122 0.0
C179 C 0.51588 0.54091 0.97005 0.0
C180 C 0.49605 0.56856 0.94156 0.0
C181 C 0.50096 0.61381 0.94336 0.0
C182 C 0.56225 0.53079 0.03055 0.0
C183 C 0.46964 0.55036 0.90924 0.0
C184 C 0.52452 0.42043 0.94208 0.0
C185 C 0.50122 0.40178 0.97297 0.0
C186 C 0.52877 0.46577 0.93965 0.0
C187 C 0.51009 0.49298 0.97007 0.0
C188 C 0.48637 0.47427 0.00118 0.0
C189 C 0.48182 0.42886 0.00168 0.0
C190 C 0.55345 0.4845 0.90482 0.0
C191 C 0.46656 0.50209 0.035 0.0
H192 H 0.56536 0.6184 0.0209 0.0
H193 H 0.48539 0.63511 0.92224 0.0
H194 H 0.54621 0.51227 0.05546 0.0
H195 H 0.57604 0.50664 0.009 0.0
H196 H 0.58035 0.5501 0.05149 0.0
H197 H 0.45761 0.57609 0.88747 0.0
H198 H 0.48059 0.52573 0.8851 0.0
H199 H 0.45031 0.53364 0.93054 0.0
H200 H 0.53936 0.39947 0.91961 0.0
H201 H 0.46401 0.4144 0.02588 0.0
H202 H 0.57389 0.50075 0.92426 0.0
H203 H 0.54137 0.50962 0.88236 0.0
H204 H 0.56427 0.45915 0.88139 0.0
H205 H 0.4836 0.52007 0.05888 0.0
H206 H 0.44922 0.4825 0.05705 0.0
H207 H 0.45208 0.52671 0.015 0.0
C208 C 0.50168 0.39913 0.53949 0.0
C209 C 0.52711 0.38123 0.51182 0.0
C210 C 0.49669 0.44435 0.5413 0.0
C211 C 0.51685 0.47216 0.51337 0.0
C212 C 0.54253 0.45417 0.48523 0.0
C213 C 0.54773 0.40891 0.48546 0.0
C214 C 0.46986 0.46233 0.57306 0.0
C215 C 0.56398 0.48263 0.45399 0.0
C216 C 0.48258 0.584 0.48182 0.0
C217 C 0.50153 0.61113 0.51107 0.0
C218 C 0.48744 0.53866 0.48197 0.0
C219 C 0.51096 0.52006 0.51337 0.0
C220 C 0.52922 0.54731 0.54428 0.0
C221 C 0.52473 0.59261 0.54209 0.0
C222 C 0.46817 0.51082 0.44755 0.0
C223 C 0.55361 0.52866 0.57947 0.0
H224 H 0.48587 0.3777 0.56016 0.0
H225 H 0.5672 0.395 0.46372 0.0
H226 H 0.48045 0.48701 0.59747 0.0
H227 H 0.45073 0.47893 0.55137 0.0
H228 H 0.45763 0.4365 0.59454 0.0
H229 H 0.58234 0.46344 0.4334 0.0
H230 H 0.5482 0.50113 0.42879 0.0
H231 H 0.57748 0.50679 0.47588 0.0
H232 H 0.46489 0.59842 0.45749 0.0
H233 H 0.53924 0.61365 0.56493 0.0
H234 H 0.45342 0.48611 0.46709 0.0
H235 H 0.48557 0.49295 0.4241 0.0
H236 H 0.45114 0.53039 0.42507 0.0
H237 H 0.54137 0.50341 0.60165 0.0
H238 H 0.56413 0.55403 0.60317 0.0
H239 H 0.57428 0.51261 0.56036 0.0
C240 C 0.04147 0.31881 0.14431 0.0
C241 C 0.01808 0.29519 0.11817 0.0
C242 C 0.03846 0.32261 0.19379 0.0
C243 C 1.01225 0.30079 0.21742 0.0
C244 C 0.98779 0.27863 0.19084 0.0
C245 C 0.99072 0.27676 0.14146 0.0
C246 C 0.06424 0.348 0.22093 0.0
C247 C 0.96002 0.25375 0.21468 0.0
C248 C 0.02892 0.25232 0.33826 0.0
C249 C 1.00831 0.27741 0.36727 0.0
C250 C 0.03093 0.26031 0.2895 0.0
C251 C 1.01283 0.2954 0.26967 0.0
C252 C 0.99322 0.32228 0.29928 0.0
C253 C 0.99057 0.3123 0.34782 0.0
C254 C 0.05121 0.2299 0.25896 0.0
C255 C 0.97468 0.36096 0.27956 0.0
H256 H 0.06242 0.33351 0.12625 0.0
H257 H 0.97263 0.2583 0.12138 0.0
H258 H 0.05243 0.36801 0.24899 0.0
H259 H 0.08152 0.32508 0.23863 0.0
H260 H 0.0789 0.36969 0.19726 0.0
H261 H 0.94179 0.24079 0.18876 0.0
H262 H 0.97049 0.22595 0.23497 0.0
H263 H 0.94674 0.27482 0.24028 0.0
H264 H 0.04246 0.22517 0.35348 0.0
H265 H 0.97493 0.33194 0.37061 0.0
H266 H 0.07031 0.24847 0.23912 0.0
H267 H 0.03497 0.21389 0.23243 0.0
H268 H 0.06378 0.20418 0.28012 0.0
H269 H 0.99128 0.38096 0.25685 0.0
H270 H 0.96437 0.38188 0.3081 0.0
H271 H 0.95395 0.34961 0.25696 0.0
C272 C 0.04799 0.72709 0.34007 0.0
C273 C 0.02755 0.70448 0.37181 0.0
C274 C 0.04235 0.72489 0.29111 0.0
C275 C 0.01636 0.69829 0.27373 0.0
C276 C 0.9975 0.67254 0.30548 0.0
C277 C 1.00293 0.67656 0.35439 0.0
C278 C 0.06264 0.75345 0.25838 0.0
C279 C 0.97052 0.6425 0.28804 0.0
C280 C 0.97872 0.73916 0.15921 0.0
C281 C 0.99783 0.71686 0.12578 0.0
C282 C 0.98352 0.73203 0.20786 0.0
C283 C 1.00719 0.70084 0.22292 0.0
C284 C 0.02445 0.67562 0.18905 0.0
C285 C 0.02003 0.68457 0.14071 0.0
C286 C 0.9651 0.76017 0.24298 0.0
C287 C 0.04885 0.6409 0.20381 0.0
H288 H 0.06684 0.74896 0.35365 0.0
H289 H 0.98728 0.65885 0.3791 0.0
H290 H 0.07387 0.73369 0.2297 0.0
H291 H 0.04631 0.77797 0.2413 0.0
H292 H 0.08276 0.77089 0.27742 0.0
H293 H 0.96211 0.61957 0.31616 0.0
H294 H 0.94891 0.66202 0.27628 0.0
H295 H 0.97923 0.62341 0.25705 0.0
H296 H 0.96177 0.76435 0.14745 0.0
H297 H 0.03459 0.66713 0.11456 0.0
H298 H 0.98297 0.78135 0.26204 0.0
H299 H 0.95249 0.73964 0.26992 0.0
H300 H 0.94632 0.78122 0.22553 0.0
H301 H 0.0717 0.65648 0.21755 0.0
H302 H 0.05577 0.61944 0.1737 0.0
H303 H 0.03841 0.62052 0.23279 0.0
C304 C 1.0122 0.64275 0.64529 0.0
C305 C 0.03549 0.67434 0.6317 0.0
C306 C 1.00638 0.63376 0.69339 0.0
C307 C 0.02327 0.65839 0.72813 0.0
C308 C 0.04938 0.6867 0.71442 0.0
C309 C 0.05557 0.69373 0.66614 0.0
C310 C 0.98007 0.60102 0.70675 0.0
C311 C 0.06811 0.71361 0.75036 0.0
C312 C 0.97849 0.70583 0.83301 0.0
C313 C 0.99688 0.68813 0.87034 0.0
C314 C 0.98504 0.69366 0.7861 0.0
C315 C 1.00971 0.66189 0.77686 0.0
C316 C 0.02508 0.6398 0.815 0.0
C317 C 0.01904 0.65395 0.86148 0.0
C318 C 0.96811 0.71825 0.74643 0.0
C319 C 0.04988 0.60384 0.80683 0.0
H320 H 0.99706 0.6271 0.61849 0.0
H321 H 0.0737 0.71801 0.6556 0.0
H322 H 0.9863 0.58419 0.74049 0.0
H323 H 0.95607 0.61798 0.71172 0.0
H324 H 0.97676 0.57626 0.67842 0.0
H325 H 0.08909 0.73177 0.7341 0.0
H326 H 0.05104 0.73749 0.76697 0.0
H327 H 0.07799 0.69254 0.77901 0.0
H328 H 0.96135 0.73225 0.83999 0.0
H329 H 0.03291 0.63979 0.89063 0.0
H330 H 0.95695 0.69525 0.72074 0.0
H331 H 0.98665 0.73818 0.72692 0.0
H332 H 0.94834 0.74026 0.7597 0.0
H333 H 0.04398 0.58499 0.77435 0.0
H334 H 0.05072 0.58118 0.83762 0.0
H335 H 0.07494 0.61815 0.80245 0.0
C336 C 0.01613 0.36424 0.84651 0.0
C337 C 0.03875 0.33188 0.86003 0.0
C338 C 1.01059 0.37353 0.79841 0.0
C339 C 0.02684 0.34825 0.76358 0.0
C340 C 0.05226 0.31892 0.77724 0.0
C341 C 0.05836 0.31175 0.82553 0.0
C342 C 0.98522 0.40748 0.78513 0.0
C343 C 0.07024 0.29117 0.74128 0.0
C344 C 0.98016 0.3029 0.6592 0.0
C345 C 0.99898 0.3194 0.62156 0.0
C346 C 0.98736 0.31476 0.70601 0.0
C347 C 1.01309 0.3452 0.71489 0.0
C348 C 0.02902 0.36628 0.67645 0.0
C349 C 0.02235 0.35228 0.63006 0.0
C350 C 0.96987 0.2911 0.74594 0.0
C351 C 0.05492 0.40101 0.68416 0.0
H352 H 1.00132 0.38033 0.87338 0.0
H353 H 0.07589 0.28678 0.83606 0.0
H354 H 0.99192 0.42396 0.75134 0.0
H355 H 0.96074 0.39167 0.7803 0.0
H356 H 0.98267 0.43239 0.81344 0.0
H357 H 0.09058 0.2719 0.75755 0.0
H358 H 0.05249 0.26825 0.7245 0.0
H359 H 0.08086 0.31181 0.71276 0.0
H360 H 0.96211 0.27744 0.65254 0.0
H361 H 0.03661 0.36549 0.60071 0.0
H362 H 0.95921 0.31472 0.77139 0.0
H363 H 0.98793 0.27067 0.76564 0.0
H364 H 0.94961 0.26973 0.73291 0.0
H365 H 0.05006 0.41986 0.717 0.0
H366 H 0.05591 0.42386 0.65354 0.0
H367 H 0.07963 0.38554 0.68748 0.0
C368 C 0.55084 0.789 0.15138 0.0
C369 C 0.53029 0.81097 0.11936 0.0
C370 C 0.54513 0.79164 0.20028 0.0
C371 C 0.51899 0.81813 0.21732 0.0
C372 C 0.5003 0.84373 0.18528 0.0
C373 C 0.50574 0.83915 0.13641 0.0
C374 C 0.56524 0.7632 0.23327 0.0
C375 C 0.47328 0.87385 0.20234 0.0
C376 C 0.47957 0.77447 0.32935 0.0
C377 C 0.4983 0.79571 0.36399 0.0
C378 C 0.48503 0.78299 0.28112 0.0
C379 C 0.50891 0.81462 0.26772 0.0
C380 C 0.52567 0.83893 0.30288 0.0
C381 C 0.5207 0.82845 0.35078 0.0
C382 C 0.46714 0.75572 0.24464 0.0
C383 C 0.55014 0.87425 0.28993 0.0
H384 H 0.56967 0.76698 0.13808 0.0
H385 H 0.49004 0.85643 0.11148 0.0
H386 H 0.57594 0.7829 0.2624 0.0
H387 H 0.54889 0.73827 0.24971 0.0
H388 H 0.58574 0.74624 0.21456 0.0
H389 H 0.4659 0.89758 0.17446 0.0
H390 H 0.45114 0.85446 0.21233 0.0
H391 H 0.48139 0.89202 0.2343 0.0
H392 H 0.46245 0.74894 0.33982 0.0
H393 H 0.53496 0.84506 0.3779 0.0
H394 H 0.48532 0.73539 0.2251 0.0
H395 H 0.45465 0.77692 0.21827 0.0
H396 H 0.44832 0.73388 0.26094 0.0
H397 H 0.57353 0.85925 0.27735 0.0
H398 H 0.55598 0.89544 0.32073 0.0
H399 H 0.54037 0.8948 0.26067 0.0
C400 C 0.5571 0.22544 0.33421 0.0
C401 C 0.53716 0.20158 0.36549 0.0
C402 C 0.55195 0.22307 0.28515 0.0
C403 C 0.52706 0.19497 0.26727 0.0
C404 C 0.50932 0.1674 0.29856 0.0
C405 C 0.51411 0.1717 0.34758 0.0
C406 C 0.57099 0.25359 0.25299 0.0
C407 C 0.48373 0.13559 0.28059 0.0
C408 C 0.4849 0.23743 0.15678 0.0
C409 C 0.50395 0.21794 0.12127 0.0
C410 C 0.49141 0.22891 0.20472 0.0
C411 C 0.51676 0.199 0.21701 0.0
C412 C 0.53416 0.17653 0.18104 0.0
C413 C 0.52801 0.187 0.13342 0.0
C414 C 0.47273 0.25418 0.2421 0.0
C415 C 0.56029 0.14306 0.1928 0.0
H416 H 0.57474 0.24878 0.34821 0.0
H417 H 0.49888 0.15301 0.37198 0.0
H418 H 0.58214 0.23545 0.22301 0.0
H419 H 0.55377 0.27805 0.23769 0.0
H420 H 0.59102 0.27112 0.2721 0.0
H421 H 0.47726 0.1108 0.30787 0.0
H422 H 0.46083 0.15343 0.27087 0.0
H423 H 0.49276 0.1187 0.2483 0.0
H424 H 0.46648 0.26159 0.14718 0.0
H425 H 0.54253 0.1717 0.10568 0.0
H426 H 0.49025 0.27507 0.26218 0.0
H427 H 0.461 0.23158 0.26786 0.0
H428 H 0.45317 0.27528 0.22658 0.0
H429 H 0.58299 0.1597 0.20552 0.0
H430 H 0.56695 0.12303 0.16142 0.0
H431 H 0.55164 0.12114 0.22165 0.0
C432 C 0.47328 0.21516 0.82932 0.0
C433 C 0.49136 0.19602 0.86611 0.0
C434 C 0.47965 0.20392 0.78204 0.0
C435 C 0.50388 0.17178 0.77192 0.0
C436 C 0.51885 0.14835 0.80942 0.0
C437 C 0.51295 0.16145 0.85627 0.0
C438 C 0.46318 0.22986 0.74304 0.0
C439 C 0.54326 0.11216 0.80012 0.0
C440 C 0.5086 0.15228 0.64007 0.0
C441 C 0.53299 0.18269 0.62718 0.0
C442 C 0.50112 0.1445 0.68795 0.0
C443 C 0.51758 0.16902 0.7232 0.0
C444 C 0.54433 0.19666 0.71042 0.0
C445 C 0.55208 0.20257 0.66241 0.0
C446 C 0.47381 0.11284 0.70032 0.0
C447 C 0.56251 0.22358 0.74694 0.0
H448 H 0.45666 0.24197 0.8371 0.0
H449 H 0.52664 0.14632 0.88502 0.0
H450 H 0.48194 0.25055 0.72496 0.0
H451 H 0.45244 0.20779 0.71603 0.0
H452 H 0.44319 0.25128 0.75678 0.0
H453 H 0.54543 0.09003 0.83123 0.0
H454 H 0.53591 0.09277 0.76863 0.0
H455 H 0.56807 0.12631 0.79299 0.0
H456 H 0.49411 0.1364 0.61271 0.0
H457 H 0.57093 0.22609 0.65244 0.0
H458 H 0.45013 0.13078 0.70424 0.0
H459 H 0.47895 0.09591 0.73437 0.0
H460 H 0.4705 0.08808 0.672 0.0
H461 H 0.54526 0.24768 0.76276 0.0
H462 H 0.5839 0.24147 0.73143 0.0
H463 H 0.57171 0.20255 0.7761 0.0
C464 C 0.5558 0.81088 0.82368 0.0
C465 C 0.53662 0.83161 0.85824 0.0
C466 C 0.54865 0.81646 0.77543 0.0
C467 C 0.52245 0.84459 0.76181 0.0
C468 C 0.50621 0.87014 0.79639 0.0
C469 C 0.51306 0.86272 0.84449 0.0
C470 C 0.56662 0.78852 0.73964 0.0
C471 C 0.47958 0.90237 0.78304 0.0
C472 C 0.51684 0.85027 0.62851 0.0
C473 C 0.49436 0.8164 0.61965 0.0
C474 C 0.52368 0.86353 0.67504 0.0
C475 C 0.50867 0.84101 0.71323 0.0
C476 C 0.48377 0.80944 0.70415 0.0
C477 C 0.47651 0.79803 0.6572 0.0
C478 C 0.54892 0.89903 0.68318 0.0
C479 C 0.46725 0.78445 0.74393 0.0
H480 H 0.57401 0.78682 0.83434 0.0
H481 H 0.49852 0.87923 0.87136 0.0
H482 H 0.54918 0.76416 0.72468 0.0
H483 H 0.57589 0.80871 0.70979 0.0
H484 H 0.58791 0.77087 0.7556 0.0
H485 H 0.47606 0.92723 0.81119 0.0
H486 H 0.48563 0.91912 0.74917 0.0
H487 H 0.45575 0.88492 0.77819 0.0
H488 H 0.53037 0.86481 0.5992 0.0
H489 H 0.45922 0.77174 0.65019 0.0
H490 H 0.57359 0.88416 0.6893 0.0
H491 H 0.54258 0.91876 0.71486 0.0
H492 H 0.55091 0.92096 0.65187 0.0
H493 H 0.4859 0.76387 0.76228 0.0
H494 H 0.44701 0.76303 0.73093 0.0
H495 H 0.45683 0.80718 0.77054 0.0
C496 C 0.33126 0.30943 0.94228 0.0
C497 C 0.35219 0.2847 0.97157 0.0
C498 C 0.29671 0.30354 0.94317 0.0
C499 C 0.28263 0.27197 0.97392 0.0
C500 C 0.30355 0.24733 0.00409 0.0
C501 C 0.33802 0.25406 0.00266 0.0
C502 C 0.27531 0.3307 0.91065 0.0
C503 C 0.28957 0.21324 0.03725 0.0
C504 C 0.19032 0.28005 0.00168 0.0
C505 C 0.1767 0.25015 0.96946 0.0
C506 C 0.22473 0.28724 0.00384 0.0
C507 C 0.24612 0.26379 0.97329 0.0
C508 C 0.23256 0.23306 0.94128 0.0
C509 C 0.19809 0.22673 0.93965 0.0
C510 C 0.23815 0.32042 0.03832 0.0
C511 C 0.25447 0.20715 0.90831 0.0
H512 H 0.34188 0.33329 0.91825 0.0
H513 H 0.35392 0.23475 0.02543 0.0
H514 H 0.26217 0.30924 0.88521 0.0
H515 H 0.25616 0.3481 0.93154 0.0
H516 H 0.28993 0.35506 0.89023 0.0
H517 H 0.30901 0.19779 0.0595 0.0
H518 H 0.27072 0.22802 0.06092 0.0
H519 H 0.27695 0.18746 0.01643 0.0
H520 H 0.17404 0.29838 0.02482 0.0
H521 H 0.18789 0.20345 0.91474 0.0
H522 H 0.2511 0.34676 0.01862 0.0
H523 H 0.25662 0.30499 0.06214 0.0
H524 H 0.21835 0.33524 0.06041 0.0
H525 H 0.268 0.22953 0.88413 0.0
H526 H 0.24019 0.18358 0.88652 0.0
H527 H 0.2733 0.18895 0.92905 0.0
C528 C 0.69892 0.76763 0.91996 0.0
C529 C 0.67811 0.76542 0.95986 0.0
C530 C 0.73337 0.77269 0.9248 0.0
C531 C 0.74753 0.77558 0.97067 0.0
C532 C 0.72674 0.77296 0.01111 0.0
C533 C 0.69233 0.76794 0.00524 0.0
C534 C 0.75462 0.77533 0.88075 0.0
C535 C 0.74082 0.77582 0.06063 0.0
C536 C 0.83975 0.75152 -0.01688 0.0
C537 C 0.85352 0.79356 -0.01587 0.0
C538 C 0.80535 0.7452 0.97921 0.0
C539 C 0.78406 0.78176 0.97621 0.0
C540 C 0.79774 0.82427 0.97765 0.0
C541 C 0.83224 0.82965 0.98159 0.0
C542 C 0.79179 0.69934 0.97786 0.0
C543 C 0.77594 0.86413 0.97456 0.0
H544 H 0.68827 0.76575 0.88473 0.0
H545 H 0.67654 0.76628 0.03632 0.0
H546 H 0.76789 0.80699 0.87974 0.0
H547 H 0.77367 0.7493 0.88144 0.0
H548 H 0.73988 0.77201 0.84767 0.0
H549 H 0.72143 0.77256 0.08841 0.0
H550 H 0.75956 0.74986 0.06606 0.0
H551 H 0.7536 0.80753 0.06538 0.0
H552 H 0.8559 0.72337 -0.0149 0.0
H553 H 0.84254 0.86227 0.98237 0.0
H554 H 0.77862 0.69383 0.94385 0.0
H555 H 0.77349 0.69461 0.00682 0.0
H556 H 0.81154 0.67439 0.98155 0.0
H557 H 0.76221 0.86408 0.94047 0.0
H558 H 0.79034 0.89491 0.97705 0.0
H559 H 0.75729 0.86357 0.00349 0.0
C560 C 0.19766 0.80788 0.52532 0.0
C561 C 0.17613 0.77306 0.51567 0.0
C562 C 0.23219 0.80188 0.52645 0.0
C563 C 0.24565 0.75999 0.51795 0.0
C564 C 0.22409 0.72478 0.50779 0.0
C565 C 0.18966 0.73174 0.50667 0.0
C566 C 0.25429 0.84034 0.53718 0.0
C567 C 0.23739 0.67959 0.49869 0.0
C568 C 0.33675 0.75209 0.48303 0.0
C569 C 0.35182 0.74158 0.52647 0.0
C570 C 0.30225 0.75783 0.47964 0.0
C571 C 0.28223 0.7529 0.52063 0.0
C572 C 0.29723 0.74179 0.56443 0.0
C573 C 0.33177 0.73631 0.56683 0.0
C574 C 0.28725 0.76968 0.43227 0.0
C575 C 0.27681 0.73608 0.60895 0.0
H576 H 0.18754 0.83994 0.53221 0.0
H577 H 0.1733 0.70457 0.49923 0.0
H578 H 0.2686 0.834 0.57007 0.0
H579 H 0.27244 0.84508 0.50803 0.0
H580 H 0.24004 0.871 0.54182 0.0
H581 H 0.21742 0.65586 0.49043 0.0
H582 H 0.25515 0.68032 0.46863 0.0
H583 H 0.25112 0.66784 0.53032 0.0
H584 H 0.35195 0.75626 0.45162 0.0
H585 H 0.34309 0.72816 0.60057 0.0
H586 H 0.27457 0.80164 0.43485 0.0
H587 H 0.26828 0.74523 0.42218 0.0
H588 H 0.30611 0.77157 0.40359 0.0
H589 H 0.2638 0.76693 0.61741 0.0
H590 H 0.29213 0.72652 0.64001 0.0
H591 H 0.25756 0.71079 0.60331 0.0
C592 C 0.70121 0.311 0.52282 0.0
C593 C 0.67992 0.2757 0.51418 0.0
C594 C 0.73574 0.30529 0.52505 0.0
C595 C 0.74945 0.26324 0.51859 0.0
C596 C 0.72813 0.22751 0.50957 0.0
C597 C 0.69369 0.23416 0.50744 0.0
C598 C 0.75757 0.34427 0.53467 0.0
C599 C 0.74171 0.18215 0.50257 0.0
C600 C 0.84081 0.2546 0.48531 0.0
C601 C 0.85556 0.24525 0.52928 0.0
C602 C 0.80634 0.26028 0.48124 0.0
C603 C 0.78604 0.25655 0.52209 0.0
C604 C 0.80074 0.24684 0.56649 0.0
C605 C 0.83525 0.2413 0.56954 0.0
C606 C 0.79166 0.27055 0.43324 0.0
C607 C 0.78002 0.24255 0.61092 0.0
H608 H 0.6909 0.34324 0.52801 0.0
H609 H 0.67753 0.20663 0.50075 0.0
H610 H 0.77173 0.33905 0.56792 0.0
H611 H 0.77586 0.34831 0.50557 0.0
H612 H 0.74313 0.37491 0.53807 0.0
H613 H 0.72191 0.15795 0.49511 0.0
H614 H 0.75962 0.18198 0.47268 0.0
H615 H 0.75534 0.17166 0.5348 0.0
H616 H 0.85623 0.25771 0.45397 0.0
H617 H 0.84631 0.23409 0.60369 0.0
H618 H 0.7787 0.30239 0.43448 0.0
H619 H 0.77296 0.24555 0.42371 0.0
H620 H 0.81073 0.27184 0.40483 0.0
H621 H 0.76671 0.27352 0.61778 0.0
H622 H 0.79517 0.23439 0.64261 0.0
H623 H 0.76101 0.21681 0.60612 0.0
loop_
_geom_bond_atom_site_label_1
_geom_bond_atom_site_label_2
_geom_bond_distance
_geom_bond_site_symmetry_2
_ccdc_geom_bond_type
Zn0 O3 2.031 1_654 S
Zn0 O5 2.049 . S
Zn0 O10 2.067 1_655 S
Zn1 O2 1.962 1_554 S
Zn1 O4 1.986 . S
Zn1 O6 1.996 . S
Zn1 O9 1.943 . S
O2 Zn1 1.962 1_556 S
O2 C7 1.254 . S
O3 Zn0 2.031 1_456 S
O3 C7 1.269 . S
O4 Zn1 1.986 . S
O4 C11 1.262 . S
O5 Zn0 2.049 . S
O5 C13 1.260 1_655 S
O6 Zn1 1.996 . S
O6 C13 1.257 . S
C7 O2 1.254 . S
C7 O3 1.269 . S
C8 O9 1.249 . S
C8 O10 1.270 . S
O9 Zn1 1.943 . S
O9 C8 1.249 . S
O10 Zn0 2.067 1_455 S
O10 C8 1.270 . S
C11 O4 1.262 . S
C11 O12 1.232 1_554 S
O12 C11 1.232 1_556 S
C13 O5 1.260 1_455 S
C13 O6 1.257 . S
Zn14 O17 2.031 1_454 S
Zn14 O19 2.049 . S
Zn14 O24 2.067 1_455 S
Zn15 O16 1.962 1_554 S
Zn15 O18 1.986 . S
Zn15 O20 1.996 . S
Zn15 O23 1.943 . S
O16 Zn15 1.962 1_556 S
O16 C21 1.254 . S
O17 Zn14 2.031 1_656 S
O17 C21 1.269 . S
O18 Zn15 1.986 . S
O18 C25 1.262 . S
O19 Zn14 2.049 . S
O19 C27 1.260 1_455 S
O20 Zn15 1.996 . S
O20 C27 1.257 . S
C21 O16 1.254 . S
C21 O17 1.269 . S
C22 O23 1.249 . S
C22 O24 1.270 . S
O23 Zn15 1.943 . S
O23 C22 1.249 . S
O24 Zn14 2.067 1_655 S
O24 C22 1.270 . S
C25 O18 1.262 . S
C25 O26 1.232 1_554 S
O26 C25 1.232 1_556 S
C27 O19 1.260 1_655 S
C27 O20 1.257 . S
Zn28 O31 2.031 1_655 S
Zn28 O33 2.049 . S
Zn28 O38 2.067 1_655 S
Zn29 O30 1.962 . S
Zn29 O32 1.986 . S
Zn29 O34 1.996 . S
Zn29 O37 1.943 . S
O30 Zn29 1.962 . S
O30 C35 1.254 . S
O31 Zn28 2.031 1_455 S
O31 C35 1.269 . S
O32 Zn29 1.986 . S
O32 C39 1.262 . S
O33 Zn28 2.049 . S
O33 C41 1.260 1_655 S
O34 Zn29 1.996 . S
O34 C41 1.257 . S
C35 O30 1.254 . S
C35 O31 1.269 . S
C36 O37 1.249 . S
C36 O38 1.270 . S
O37 Zn29 1.943 . S
O37 C36 1.249 . S
O38 Zn28 2.067 1_455 S
O38 C36 1.270 . S
C39 O32 1.262 . S
C39 O40 1.232 . S
O40 C39 1.232 . S
C41 O33 1.260 1_455 S
C41 O34 1.257 . S
Zn42 O45 2.031 1_455 S
Zn42 O47 2.049 . S
Zn42 O52 2.067 1_455 S
Zn43 O44 1.962 . S
Zn43 O46 1.986 . S
Zn43 O48 1.996 . S
Zn43 O51 1.943 . S
O44 Zn43 1.962 . S
O44 C49 1.254 . S
O45 Zn42 2.031 1_655 S
O45 C49 1.269 . S
O46 Zn43 1.986 . S
O46 C53 1.262 . S
O47 Zn42 2.049 . S
O47 C55 1.260 1_455 S
O48 Zn43 1.996 . S
O48 C55 1.257 . S
C49 O44 1.254 . S
C49 O45 1.269 . S
C50 O51 1.249 . S
C50 O52 1.270 . S
O51 Zn43 1.943 . S
O51 C50 1.249 . S
O52 Zn42 2.067 1_655 S
O52 C50 1.270 . S
C53 O46 1.262 . S
C53 O54 1.232 . S
O54 C53 1.232 . S
C55 O47 1.260 1_655 S
C55 O48 1.257 . S
Zn56 O59 2.031 1_554 S
Zn56 O61 2.049 . S
Zn56 O66 2.067 . S
Zn57 O58 1.962 1_554 S
Zn57 O60 1.986 . S
Zn57 O62 1.996 . S
Zn57 O65 1.943 . S
O58 Zn57 1.962 1_556 S
O58 C63 1.254 . S
O59 Zn56 2.031 1_556 S
O59 C63 1.269 . S
O60 Zn57 1.986 . S
O60 C67 1.262 . S
O61 Zn56 2.049 . S
O61 C69 1.260 . S
O62 Zn57 1.996 . S
O62 C69 1.257 . S
C63 O58 1.254 . S
C63 O59 1.269 . S
C64 O65 1.249 . S
C64 O66 1.270 . S
O65 Zn57 1.943 . S
O65 C64 1.249 . S
O66 Zn56 2.067 . S
O66 C64 1.270 . S
C67 O60 1.262 . S
C67 O68 1.232 1_554 S
O68 C67 1.232 1_556 S
C69 O61 1.260 . S
C69 O62 1.257 . S
Zn70 O73 2.031 1_554 S
Zn70 O75 2.049 . S
Zn70 O80 2.067 . S
Zn71 O72 1.962 1_554 S
Zn71 O74 1.986 . S
Zn71 O76 1.996 . S
Zn71 O79 1.943 . S
O72 Zn71 1.962 1_556 S
O72 C77 1.254 . S
O73 Zn70 2.031 1_556 S
O73 C77 1.269 . S
O74 Zn71 1.986 . S
O74 C81 1.262 . S
O75 Zn70 2.049 . S
O75 C83 1.260 . S
O76 Zn71 1.996 . S
O76 C83 1.257 . S
C77 O72 1.254 . S
C77 O73 1.269 . S
C78 O79 1.249 . S
C78 O80 1.270 . S
O79 Zn71 1.943 . S
O79 C78 1.249 . S
O80 Zn70 2.067 . S
O80 C78 1.270 . S
C81 O74 1.262 . S
C81 O82 1.232 1_554 S
O82 C81 1.232 1_556 S
C83 O75 1.260 . S
C83 O76 1.257 . S
Zn84 O87 2.031 . S
Zn84 O89 2.049 . S
Zn84 O94 2.067 . S
Zn85 O86 1.962 . S
Zn85 O88 1.986 . S
Zn85 O90 1.996 . S
Zn85 O93 1.943 . S
O86 Zn85 1.962 . S
O86 C91 1.254 . S
O87 Zn84 2.031 . S
O87 C91 1.269 . S
O88 Zn85 1.986 . S
O88 C95 1.262 . S
O89 Zn84 2.049 . S
O89 C97 1.260 . S
O90 Zn85 1.996 . S
O90 C97 1.257 . S
C91 O86 1.254 . S
C91 O87 1.269 . S
C92 O93 1.249 . S
C92 O94 1.270 . S
O93 Zn85 1.943 . S
O93 C92 1.249 . S
O94 Zn84 2.067 . S
O94 C92 1.270 . S
C95 O88 1.262 . S
C95 O96 1.232 . S
O96 C95 1.232 . S
C97 O89 1.260 . S
C97 O90 1.257 . S
Zn98 O101 2.031 . S
Zn98 O103 2.049 . S
Zn98 O108 2.067 . S
Zn99 O100 1.962 . S
Zn99 O102 1.986 . S
Zn99 O104 1.996 . S
Zn99 O107 1.943 . S
O100 Zn99 1.962 . S
O100 C105 1.254 . S
O101 Zn98 2.031 . S
O101 C105 1.269 . S
O102 Zn99 1.986 . S
O102 C109 1.262 . S
O103 Zn98 2.049 . S
O103 C111 1.260 . S
O104 Zn99 1.996 . S
O104 C111 1.257 . S
C105 O100 1.254 . S
C105 O101 1.269 . S
C106 O107 1.249 . S
C106 O108 1.270 . S
O107 Zn99 1.943 . S
O107 C106 1.249 . S
O108 Zn98 2.067 . S
O108 C106 1.270 . S
C109 O102 1.262 . S
C109 O110 1.232 . S
O110 C109 1.232 . S
C111 O103 1.260 . S
C111 O104 1.257 . S
C112 C113 1.391 . S
C112 C114 1.394 . S
C112 H128 0.931 . S
C113 C112 1.391 . S
C113 C117 1.376 1_554 S
C114 C112 1.394 . S
C114 C115 1.377 . S
C114 C118 1.531 . S
C115 C114 1.377 . S
C115 C116 1.408 1_654 S
C115 C123 1.498 1_665 S
C116 C115 1.408 1_456 S
C116 C117 1.392 1_455 S
C116 C119 1.511 . S
C117 C113 1.376 1_556 S
C117 C116 1.392 1_655 S
C117 H129 0.929 . S
C118 C114 1.531 . S
C118 H130 0.960 1_565 S
C118 H131 0.962 1_565 S
C118 H132 0.960 . S
C119 C116 1.511 . S
C119 H133 0.961 . S
C119 H134 0.961 . S
C119 H135 0.961 . S
C120 C121 1.370 1_556 S
C120 C122 1.363 1_455 S
C120 H136 0.931 1_455 S
C121 C120 1.370 1_554 S
C121 C125 1.408 . S
C122 C120 1.363 1_655 S
C122 C123 1.370 1_656 S
C122 C126 1.524 . S
C123 C115 1.498 1_445 S
C123 C122 1.370 1_454 S
C123 C124 1.403 . S
C124 C123 1.403 . S
C124 C125 1.404 . S
C124 C127 1.539 1_545 S
C125 C121 1.408 . S
C125 C124 1.404 . S
C125 H137 0.930 . S
C126 C122 1.524 . S
C126 H138 0.956 . S
C126 H139 0.961 . S
C126 H140 0.961 . S
C127 C124 1.539 1_565 S
C127 H141 0.958 . S
C127 H142 0.961 1_565 S
C127 H143 0.960 . S
H128 C112 0.931 . S
H129 C117 0.929 . S
H130 C118 0.960 1_545 S
H131 C118 0.962 1_545 S
H132 C118 0.960 . S
H133 C119 0.961 . S
H134 C119 0.961 . S
H135 C119 0.961 . S
H136 C120 0.931 1_655 S
H137 C125 0.930 . S
H138 C126 0.956 . S
H139 C126 0.961 . S
H140 C126 0.961 . S
H141 C127 0.958 . S
H142 C127 0.961 1_545 S
H143 C127 0.960 . S
C144 C145 1.391 . S
C144 C146 1.394 1_455 S
C144 H160 0.931 1_455 S
C145 C144 1.391 . S
C145 C149 1.376 . S
C146 C144 1.394 1_655 S
C146 C147 1.369 1_655 S
C146 C150 1.531 . S
C147 C146 1.369 1_455 S
C147 C148 1.410 . S
C147 C155 1.503 1_465 S
C148 C147 1.410 . S
C148 C149 1.392 . S
C148 C151 1.511 1_565 S
C149 C145 1.376 . S
C149 C148 1.392 . S
C149 H161 0.929 . S
C150 C146 1.531 . S
C150 H162 0.960 . S
C150 H163 0.962 . S
C150 H164 0.960 . S
C151 C148 1.511 1_545 S
C151 H165 0.961 1_545 S
C151 H166 0.961 . S
C151 H167 0.961 . S
C152 C153 1.370 . S
C152 C154 1.363 . S
C152 H168 0.931 . S
C153 C152 1.370 . S
C153 C157 1.408 . S
C154 C152 1.363 . S
C154 C155 1.370 . S
C154 C158 1.524 . S
C155 C147 1.503 1_645 S
C155 C154 1.370 . S
C155 C156 1.400 1_655 S
C156 C155 1.400 1_455 S
C156 C157 1.397 1_455 S
C156 C159 1.550 . S
C157 C153 1.408 . S
C157 C156 1.397 1_655 S
C157 H169 0.930 . S
C158 C154 1.524 . S
C158 H170 0.956 1_545 S
C158 H171 0.961 1_545 S
C158 H172 0.961 . S
C159 C156 1.550 . S
C159 H173 0.958 . S
C159 H174 0.961 . S
C159 H175 0.960 . S
H160 C144 0.931 1_655 S
H161 C149 0.929 . S
H162 C150 0.960 . S
H163 C150 0.962 . S
H164 C150 0.960 . S
H165 C151 0.961 1_565 S
H166 C151 0.961 . S
H167 C151 0.961 . S
H168 C152 0.931 . S
H169 C157 0.930 . S
H170 C158 0.956 1_565 S
H171 C158 0.961 1_565 S
H172 C158 0.961 . S
H173 C159 0.958 . S
H174 C159 0.961 . S
H175 C159 0.960 . S
C176 C177 1.391 . S
C176 C178 1.394 . S
C176 H192 0.931 . S
C177 C176 1.391 . S
C177 C181 1.376 1_554 S
C178 C176 1.394 . S
C178 C179 1.369 . S
C178 C182 1.531 . S
C179 C178 1.369 . S
C179 C180 1.410 1_554 S
C179 C187 1.503 . S
C180 C179 1.410 1_556 S
C180 C181 1.392 . S
C180 C183 1.511 . S
C181 C177 1.376 1_556 S
C181 C180 1.392 . S
C181 H193 0.929 . S
C182 C178 1.531 . S
C182 H194 0.960 . S
C182 H195 0.962 . S
C182 H196 0.960 . S
C183 C180 1.511 . S
C183 H197 0.961 . S
C183 H198 0.961 . S
C183 H199 0.961 . S
C184 C185 1.370 1_556 S
C184 C186 1.363 . S
C184 H200 0.931 . S
C185 C184 1.370 1_554 S
C185 C189 1.408 . S
C186 C184 1.363 . S
C186 C187 1.370 1_556 S
C186 C190 1.524 . S
C187 C179 1.503 . S
C187 C186 1.370 1_554 S
C187 C188 1.403 . S
C188 C187 1.403 . S
C188 C189 1.404 . S
C188 C191 1.539 . S
C189 C185 1.408 . S
C189 C188 1.404 . S
C189 H201 0.930 . S
C190 C186 1.524 . S
C190 H202 0.956 . S
C190 H203 0.961 . S
C190 H204 0.961 . S
C191 C188 1.539 . S
C191 H205 0.958 . S
C191 H206 0.961 . S
C191 H207 0.960 . S
H192 C176 0.931 . S
H193 C181 0.929 . S
H194 C182 0.960 . S
H195 C182 0.962 . S
H196 C182 0.960 . S
H197 C183 0.961 . S
H198 C183 0.961 . S
H199 C183 0.961 . S
H200 C184 0.931 . S
H201 C189 0.930 . S
H202 C190 0.956 . S
H203 C190 0.961 . S
H204 C190 0.961 . S
H205 C191 0.958 . S
H206 C191 0.961 . S
H207 C191 0.960 . S
C208 C209 1.391 . S
C208 C210 1.394 . S
C208 H224 0.931 . S
C209 C208 1.391 . S
C209 C213 1.376 . S
C210 C208 1.394 . S
C210 C211 1.369 . S
C210 C214 1.531 . S
C211 C210 1.369 . S
C211 C212 1.410 . S
C211 C219 1.503 . S
C212 C211 1.410 . S
C212 C213 1.392 . S
C212 C215 1.511 . S
C213 C209 1.376 . S
C213 C212 1.392 . S
C213 H225 0.929 . S
C214 C210 1.531 . S
C214 H226 0.960 . S
C214 H227 0.962 . S
C214 H228 0.960 . S
C215 C212 1.511 . S
C215 H229 0.961 . S
C215 H230 0.961 . S
C215 H231 0.961 . S
C216 C217 1.370 . S
C216 C218 1.363 . S
C216 H232 0.931 . S
C217 C216 1.370 . S
C217 C221 1.408 . S
C218 C216 1.363 . S
C218 C219 1.370 . S
C218 C222 1.524 . S
C219 C211 1.503 . S
C219 C218 1.370 . S
C219 C220 1.403 . S
C220 C219 1.403 . S
C220 C221 1.404 . S
C220 C223 1.539 . S
C221 C217 1.408 . S
C221 C220 1.404 . S
C221 H233 0.930 . S
C222 C218 1.524 . S
C222 H234 0.956 . S
C222 H235 0.961 . S
C222 H236 0.961 . S
C223 C220 1.539 . S
C223 H237 0.958 . S
C223 H238 0.961 . S
C223 H239 0.960 . S
H224 C208 0.931 . S
H225 C213 0.929 . S
H226 C214 0.960 . S
H227 C214 0.962 . S
H228 C214 0.960 . S
H229 C215 0.961 . S
H230 C215 0.961 . S
H231 C215 0.961 . S
H232 C216 0.931 . S
H233 C221 0.930 . S
H234 C222 0.956 . S
H235 C222 0.961 . S
H236 C222 0.961 . S
H237 C223 0.958 . S
H238 C223 0.961 . S
H239 C223 0.960 . S
C240 C241 1.391 . S
C240 C242 1.394 . S
C240 H256 0.931 . S
C241 C240 1.391 . S
C241 C245 1.376 1_455 S
C242 C240 1.394 . S
C242 C243 1.351 1_455 S
C242 C246 1.531 . S
C243 C242 1.351 1_655 S
C243 C244 1.420 . S
C243 C251 1.510 . S
C244 C243 1.420 . S
C244 C245 1.392 . S
C244 C247 1.511 . S
C245 C241 1.376 1_655 S
C245 C244 1.392 . S
C245 H257 0.929 . S
C246 C242 1.531 . S
C246 H258 0.960 . S
C246 H259 0.962 . S
C246 H260 0.960 . S
C247 C244 1.511 . S
C247 H261 0.961 . S
C247 H262 0.961 . S
C247 H263 0.961 . S
C248 C249 1.370 1_455 S
C248 C250 1.363 . S
C248 H264 0.931 . S
C249 C248 1.370 1_655 S
C249 C253 1.408 . S
C250 C248 1.363 . S
C250 C251 1.370 1_455 S
C250 C254 1.524 . S
C251 C243 1.510 . S
C251 C250 1.370 1_655 S
C251 C252 1.403 . S
C252 C251 1.403 . S
C252 C253 1.404 . S
C252 C255 1.539 . S
C253 C249 1.408 . S
C253 C252 1.404 . S
C253 H265 0.930 . S
C254 C250 1.524 . S
C254 H266 0.956 . S
C254 H267 0.961 . S
C254 H268 0.961 . S
C255 C252 1.539 . S
C255 H269 0.958 . S
C255 H270 0.961 . S
C255 H271 0.960 . S
H256 C240 0.931 . S
H257 C245 0.929 . S
H258 C246 0.960 . S
H259 C246 0.962 . S
H260 C246 0.960 . S
H261 C247 0.961 . S
H262 C247 0.961 . S
H263 C247 0.961 . S
H264 C248 0.931 . S
H265 C253 0.930 . S
H266 C254 0.956 . S
H267 C254 0.961 . S
H268 C254 0.961 . S
H269 C255 0.958 . S
H270 C255 0.961 . S
H271 C255 0.960 . S
C272 C273 1.391 . S
C272 C274 1.394 . S
C272 H288 0.931 . S
C273 C272 1.391 . S
C273 C277 1.376 1_455 S
C274 C272 1.394 . S
C274 C275 1.369 . S
C274 C278 1.531 . S
C275 C274 1.369 . S
C275 C276 1.410 1_455 S
C275 C283 1.503 1_455 S
C276 C275 1.410 1_655 S
C276 C277 1.392 . S
C276 C279 1.511 . S
C277 C273 1.376 1_655 S
C277 C276 1.392 . S
C277 H289 0.929 . S
C278 C274 1.531 . S
C278 H290 0.960 . S
C278 H291 0.962 . S
C278 H292 0.960 . S
C279 C276 1.511 . S
C279 H293 0.961 . S
C279 H294 0.961 . S
C279 H295 0.961 . S
C280 C281 1.370 . S
C280 C282 1.363 . S
C280 H296 0.931 . S
C281 C280 1.370 . S
C281 C285 1.408 . S
C282 C280 1.363 . S
C282 C283 1.370 . S
C282 C286 1.524 1_655 S
C283 C275 1.503 1_655 S
C283 C282 1.370 . S
C283 C284 1.403 . S
C284 C283 1.403 . S
C284 C285 1.404 . S
C284 C287 1.539 . S
C285 C281 1.408 . S
C285 C284 1.404 . S
C285 H297 0.930 . S
C286 C282 1.524 1_455 S
C286 H298 0.956 . S
C286 H299 0.961 1_455 S
C286 H300 0.961 1_455 S
C287 C284 1.539 . S
C287 H301 0.958 1_655 S
C287 H302 0.961 . S
C287 H303 0.960 . S
H288 C272 0.931 . S
H289 C277 0.929 . S
H290 C278 0.960 . S
H291 C278 0.962 . S
H292 C278 0.960 . S
H293 C279 0.961 . S
H294 C279 0.961 . S
H295 C279 0.961 . S
H296 C280 0.931 . S
H297 C285 0.930 . S
H298 C286 0.956 . S
H299 C286 0.961 1_655 S
H300 C286 0.961 1_655 S
H301 C287 0.958 1_455 S
H302 C287 0.961 . S
H303 C287 0.960 . S
C304 C305 1.403 . S
C304 C306 1.390 1_455 S
C304 H320 0.923 1_455 S
C305 C304 1.403 . S
C305 C309 1.376 . S
C306 C304 1.390 1_655 S
C306 C307 1.369 1_655 S
C306 C310 1.531 . S
C307 C306 1.369 1_455 S
C307 C308 1.410 . S
C307 C315 1.498 1_455 S
C308 C307 1.410 . S
C308 C309 1.392 . S
C308 C311 1.511 . S
C309 C305 1.376 . S
C309 C308 1.392 . S
C309 H321 0.929 . S
C310 C306 1.531 . S
C310 H322 0.960 . S
C310 H323 0.962 . S
C310 H324 0.960 . S
C311 C308 1.511 . S
C311 H325 0.961 . S
C311 H326 0.961 . S
C311 H327 0.961 . S
C312 C313 1.370 . S
C312 C314 1.363 . S
C312 H328 0.931 . S
C313 C312 1.370 . S
C313 C317 1.408 1_655 S
C314 C312 1.363 . S
C314 C315 1.384 . S
C314 C318 1.524 . S
C315 C307 1.498 1_655 S
C315 C314 1.384 . S
C315 C316 1.394 1_655 S
C316 C315 1.394 1_455 S
C316 C317 1.404 . S
C316 C319 1.539 . S
C317 C313 1.408 1_455 S
C317 C316 1.404 . S
C317 H329 0.930 . S
C318 C314 1.524 . S
C318 H330 0.956 . S
C318 H331 0.961 . S
C318 H332 0.961 . S
C319 C316 1.539 . S
C319 H333 0.958 . S
C319 H334 0.961 . S
C319 H335 0.960 . S
H320 C304 0.923 1_655 S
H321 C309 0.929 . S
H322 C310 0.960 . S
H323 C310 0.962 . S
H324 C310 0.960 . S
H325 C311 0.961 . S
H326 C311 0.961 . S
H327 C311 0.961 . S
H328 C312 0.931 . S
H329 C317 0.930 . S
H330 C318 0.956 . S
H331 C318 0.961 . S
H332 C318 0.961 . S
H333 C319 0.958 . S
H334 C319 0.961 . S
H335 C319 0.960 . S
C336 C337 1.389 . S
C336 C338 1.394 1_455 S
C336 H352 0.932 1_455 S
C337 C336 1.389 . S
C337 C341 1.376 . S
C338 C336 1.394 1_655 S
C338 C339 1.369 1_655 S
C338 C342 1.531 . S
C339 C338 1.369 1_455 S
C339 C340 1.410 . S
C339 C347 1.498 1_455 S
C340 C339 1.410 . S
C340 C341 1.392 . S
C340 C343 1.511 . S
C341 C337 1.376 . S
C341 C340 1.392 . S
C341 H353 0.929 . S
C342 C338 1.531 . S
C342 H354 0.960 . S
C342 H355 0.962 . S
C342 H356 0.960 . S
C343 C340 1.511 . S
C343 H357 0.961 . S
C343 H358 0.961 . S
C343 H359 0.961 . S
C344 C345 1.370 . S
C344 C346 1.363 . S
C344 H360 0.931 . S
C345 C344 1.370 . S
C345 C349 1.408 1_655 S
C346 C344 1.363 . S
C346 C347 1.386 . S
C346 C350 1.524 . S
C347 C339 1.498 1_655 S
C347 C346 1.386 . S
C347 C348 1.393 1_655 S
C348 C347 1.393 1_455 S
C348 C349 1.404 . S
C348 C351 1.539 . S
C349 C345 1.408 1_455 S
C349 C348 1.404 . S
C349 H361 0.930 . S
C350 C346 1.524 . S
C350 H362 0.956 . S
C350 H363 0.961 . S
C350 H364 0.961 . S
C351 C348 1.539 . S
C351 H365 0.958 . S
C351 H366 0.961 . S
C351 H367 0.960 . S
H352 C336 0.932 1_655 S
H353 C341 0.929 . S
H354 C342 0.960 . S
H355 C342 0.962 . S
H356 C342 0.960 . S
H357 C343 0.961 . S
H358 C343 0.961 . S
H359 C343 0.961 . S
H360 C344 0.931 . S
H361 C349 0.930 . S
H362 C350 0.956 . S
H363 C350 0.961 . S
H364 C350 0.961 . S
H365 C351 0.958 . S
H366 C351 0.961 . S
H367 C351 0.960 . S
C368 C369 1.391 . S
C368 C370 1.394 . S
C368 H384 0.931 . S
C369 C368 1.391 . S
C369 C373 1.376 . S
C370 C368 1.394 . S
C370 C371 1.369 . S
C370 C374 1.531 . S
C371 C370 1.369 . S
C371 C372 1.410 . S
C371 C379 1.503 . S
C372 C371 1.410 . S
C372 C373 1.392 . S
C372 C375 1.511 . S
C373 C369 1.376 . S
C373 C372 1.392 . S
C373 H385 0.929 . S
C374 C370 1.531 . S
C374 H386 0.960 . S
C374 H387 0.962 . S
C374 H388 0.960 . S
C375 C372 1.511 . S
C375 H389 0.961 . S
C375 H390 0.961 . S
C375 H391 0.961 . S
C376 C377 1.370 . S
C376 C378 1.363 . S
C376 H392 0.931 . S
C377 C376 1.370 . S
C377 C381 1.408 . S
C378 C376 1.363 . S
C378 C379 1.370 . S
C378 C382 1.524 . S
C379 C371 1.503 . S
C379 C378 1.370 . S
C379 C380 1.403 . S
C380 C379 1.403 . S
C380 C381 1.404 . S
C380 C383 1.539 . S
C381 C377 1.408 . S
C381 C380 1.404 . S
C381 H393 0.930 . S
C382 C378 1.524 . S
C382 H394 0.956 . S
C382 H395 0.961 . S
C382 H396 0.961 . S
C383 C380 1.539 . S
C383 H397 0.958 . S
C383 H398 0.961 . S
C383 H399 0.960 . S
H384 C368 0.931 . S
H385 C373 0.929 . S
H386 C374 0.960 . S
H387 C374 0.962 . S
H388 C374 0.960 . S
H389 C375 0.961 . S
H390 C375 0.961 . S
H391 C375 0.961 . S
H392 C376 0.931 . S
H393 C381 0.930 . S
H394 C382 0.956 . S
H395 C382 0.961 . S
H396 C382 0.961 . S
H397 C383 0.958 . S
H398 C383 0.961 . S
H399 C383 0.960 . S
C400 C401 1.391 . S
C400 C402 1.394 . S
C400 H416 0.931 . S
C401 C400 1.391 . S
C401 C405 1.376 . S
C402 C400 1.394 . S
C402 C403 1.369 . S
C402 C406 1.531 . S
C403 C402 1.369 . S
C403 C404 1.410 . S
C403 C411 1.503 . S
C404 C403 1.410 . S
C404 C405 1.392 . S
C404 C407 1.511 . S
C405 C401 1.376 . S
C405 C404 1.392 . S
C405 H417 0.929 . S
C406 C402 1.531 . S
C406 H418 0.960 . S
C406 H419 0.962 . S
C406 H420 0.960 . S
C407 C404 1.511 . S
C407 H421 0.961 . S
C407 H422 0.961 . S
C407 H423 0.961 . S
C408 C409 1.370 . S
C408 C410 1.363 . S
C408 H424 0.931 . S
C409 C408 1.370 . S
C409 C413 1.408 . S
C410 C408 1.363 . S
C410 C411 1.370 . S
C410 C414 1.524 . S
C411 C403 1.503 . S
C411 C410 1.370 . S
C411 C412 1.403 . S
C412 C411 1.403 . S
C412 C413 1.404 . S
C412 C415 1.539 . S
C413 C409 1.408 . S
C413 C412 1.404 . S
C413 H425 0.930 . S
C414 C410 1.524 . S
C414 H426 0.956 . S
C414 H427 0.961 . S
C414 H428 0.961 . S
C415 C412 1.539 . S
C415 H429 0.958 . S
C415 H430 0.961 . S
C415 H431 0.960 . S
H416 C400 0.931 . S
H417 C405 0.929 . S
H418 C406 0.960 . S
H419 C406 0.962 . S
H420 C406 0.960 . S
H421 C407 0.961 . S
H422 C407 0.961 . S
H423 C407 0.961 . S
H424 C408 0.931 . S
H425 C413 0.930 . S
H426 C414 0.956 . S
H427 C414 0.961 . S
H428 C414 0.961 . S
H429 C415 0.958 . S
H430 C415 0.961 . S
H431 C415 0.960 . S
C432 C433 1.391 . S
C432 C434 1.394 . S
C432 H448 0.931 . S
C433 C432 1.391 . S
C433 C437 1.376 . S
C434 C432 1.394 . S
C434 C435 1.369 . S
C434 C438 1.531 . S
C435 C434 1.369 . S
C435 C436 1.410 . S
C435 C443 1.503 . S
C436 C435 1.410 . S
C436 C437 1.392 . S
C436 C439 1.511 . S
C437 C433 1.376 . S
C437 C436 1.392 . S
C437 H449 0.929 . S
C438 C434 1.531 . S
C438 H450 0.960 . S
C438 H451 0.962 . S
C438 H452 0.960 . S
C439 C436 1.511 . S
C439 H453 0.961 . S
C439 H454 0.961 . S
C439 H455 0.961 . S
C440 C441 1.370 . S
C440 C442 1.363 . S
C440 H456 0.931 . S
C441 C440 1.370 . S
C441 C445 1.408 . S
C442 C440 1.363 . S
C442 C443 1.370 . S
C442 C446 1.524 . S
C443 C435 1.503 . S
C443 C442 1.370 . S
C443 C444 1.403 . S
C444 C443 1.403 . S
C444 C445 1.404 . S
C444 C447 1.539 . S
C445 C441 1.408 . S
C445 C444 1.404 . S
C445 H457 0.930 . S
C446 C442 1.524 . S
C446 H458 0.956 . S
C446 H459 0.961 . S
C446 H460 0.961 . S
C447 C444 1.539 . S
C447 H461 0.958 . S
C447 H462 0.961 . S
C447 H463 0.960 . S
H448 C432 0.931 . S
H449 C437 0.929 . S
H450 C438 0.960 . S
H451 C438 0.962 . S
H452 C438 0.960 . S
H453 C439 0.961 . S
H454 C439 0.961 . S
H455 C439 0.961 . S
H456 C440 0.931 . S
H457 C445 0.930 . S
H458 C446 0.956 . S
H459 C446 0.961 . S
H460 C446 0.961 . S
H461 C447 0.958 . S
H462 C447 0.961 . S
H463 C447 0.960 . S
C464 C465 1.391 . S
C464 C466 1.394 . S
C464 H480 0.931 . S
C465 C464 1.391 . S
C465 C469 1.376 . S
C466 C464 1.394 . S
C466 C467 1.369 . S
C466 C470 1.531 . S
C467 C466 1.369 . S
C467 C468 1.410 . S
C467 C475 1.503 . S
C468 C467 1.410 . S
C468 C469 1.392 . S
C468 C471 1.511 . S
C469 C465 1.376 . S
C469 C468 1.392 . S
C469 H481 0.929 . S
C470 C466 1.531 . S
C470 H482 0.960 . S
C470 H483 0.962 . S
C470 H484 0.960 . S
C471 C468 1.511 . S
C471 H485 0.961 . S
C471 H486 0.961 . S
C471 H487 0.961 . S
C472 C473 1.370 . S
C472 C474 1.363 . S
C472 H488 0.931 . S
C473 C472 1.370 . S
C473 C477 1.408 . S
C474 C472 1.363 . S
C474 C475 1.370 . S
C474 C478 1.524 . S
C475 C467 1.503 . S
C475 C474 1.370 . S
C475 C476 1.403 . S
C476 C475 1.403 . S
C476 C477 1.404 . S
C476 C479 1.539 . S
C477 C473 1.408 . S
C477 C476 1.404 . S
C477 H489 0.930 . S
C478 C474 1.524 . S
C478 H490 0.956 . S
C478 H491 0.961 . S
C478 H492 0.961 . S
C479 C476 1.539 . S
C479 H493 0.958 . S
C479 H494 0.961 . S
C479 H495 0.960 . S
H480 C464 0.931 . S
H481 C469 0.929 . S
H482 C470 0.960 . S
H483 C470 0.962 . S
H484 C470 0.960 . S
H485 C471 0.961 . S
H486 C471 0.961 . S
H487 C471 0.961 . S
H488 C472 0.931 . S
H489 C477 0.930 . S
H490 C478 0.956 . S
H491 C478 0.961 . S
H492 C478 0.961 . S
H493 C479 0.958 . S
H494 C479 0.961 . S
H495 C479 0.960 . S
C496 C497 1.391 1_556 S
C496 C498 1.394 . S
C496 H512 0.931 . S
C497 C496 1.391 1_554 S
C497 C501 1.376 . S
C498 C496 1.394 . S
C498 C499 1.368 1_556 S
C498 C502 1.531 . S
C499 C498 1.368 1_554 S
C499 C500 1.410 . S
C499 C507 1.503 . S
C500 C499 1.410 . S
C500 C501 1.392 . S
C500 C503 1.511 . S
C501 C497 1.376 . S
C501 C500 1.392 . S
C501 H513 0.929 . S
C502 C498 1.531 . S
C502 H514 0.960 . S
C502 H515 0.962 . S
C502 H516 0.960 . S
C503 C500 1.511 . S
C503 H517 0.961 . S
C503 H518 0.961 . S
C503 H519 0.961 . S
C504 C505 1.370 . S
C504 C506 1.363 . S
C504 H520 0.931 . S
C505 C504 1.370 . S
C505 C509 1.408 1_554 S
C506 C504 1.363 . S
C506 C507 1.370 . S
C506 C510 1.524 . S
C507 C499 1.503 . S
C507 C506 1.370 . S
C507 C508 1.403 1_554 S
C508 C507 1.403 1_556 S
C508 C509 1.404 . S
C508 C511 1.539 . S
C509 C505 1.408 1_556 S
C509 C508 1.404 . S
C509 H521 0.930 . S
C510 C506 1.524 . S
C510 H522 0.956 . S
C510 H523 0.961 . S
C510 H524 0.961 . S
C511 C508 1.539 . S
C511 H525 0.958 . S
C511 H526 0.961 . S
C511 H527 0.960 . S
H512 C496 0.931 . S
H513 C501 0.929 . S
H514 C502 0.960 . S
H515 C502 0.962 . S
H516 C502 0.960 . S
H517 C503 0.961 . S
H518 C503 0.961 . S
H519 C503 0.961 . S
H520 C504 0.931 . S
H521 C509 0.930 . S
H522 C510 0.956 . S
H523 C510 0.961 . S
H524 C510 0.961 . S
H525 C511 0.958 . S
H526 C511 0.961 . S
H527 C511 0.960 . S
C528 C529 1.391 1_556 S
C528 C530 1.394 . S
C528 H544 0.931 . S
C529 C528 1.391 1_554 S
C529 C533 1.376 . S
C530 C528 1.394 . S
C530 C531 1.369 1_556 S
C530 C534 1.531 . S
C531 C530 1.369 1_554 S
C531 C532 1.410 . S
C531 C539 1.503 . S
C532 C531 1.410 . S
C532 C533 1.392 . S
C532 C535 1.511 . S
C533 C529 1.376 . S
C533 C532 1.392 . S
C533 H545 0.929 . S
C534 C530 1.531 . S
C534 H546 0.960 . S
C534 H547 0.962 . S
C534 H548 0.960 . S
C535 C532 1.511 . S
C535 H549 0.961 . S
C535 H550 0.961 . S
C535 H551 0.961 . S
C536 C537 1.370 . S
C536 C538 1.363 . S
C536 H552 0.931 1_554 S
C537 C536 1.370 . S
C537 C541 1.408 . S
C538 C536 1.363 . S
C538 C539 1.370 . S
C538 C542 1.524 1_554 S
C539 C531 1.503 . S
C539 C538 1.370 . S
C539 C540 1.403 . S
C540 C539 1.403 . S
C540 C541 1.404 . S
C540 C543 1.539 . S
C541 C537 1.408 . S
C541 C540 1.404 . S
C541 H553 0.930 . S
C542 C538 1.524 1_556 S
C542 H554 0.956 . S
C542 H555 0.961 1_556 S
C542 H556 0.961 . S
C543 C540 1.539 . S
C543 H557 0.958 1_554 S
C543 H558 0.961 . S
C543 H559 0.960 . S
H544 C528 0.931 . S
H545 C533 0.929 . S
H546 C534 0.960 . S
H547 C534 0.962 . S
H548 C534 0.960 . S
H549 C535 0.961 . S
H550 C535 0.961 . S
H551 C535 0.961 . S
H552 C536 0.931 1_556 S
H553 C541 0.930 . S
H554 C542 0.956 . S
H555 C542 0.961 1_554 S
H556 C542 0.961 . S
H557 C543 0.958 1_556 S
H558 C543 0.961 . S
H559 C543 0.960 . S
C560 C561 1.391 . S
C560 C562 1.394 . S
C560 H576 0.931 . S
C561 C560 1.391 . S
C561 C565 1.376 . S
C562 C560 1.394 . S
C562 C563 1.369 . S
C562 C566 1.531 . S
C563 C562 1.369 . S
C563 C564 1.410 . S
C563 C571 1.503 . S
C564 C563 1.410 . S
C564 C565 1.392 . S
C564 C567 1.511 . S
C565 C561 1.376 . S
C565 C564 1.392 . S
C565 H577 0.929 . S
C566 C562 1.531 . S
C566 H578 0.960 . S
C566 H579 0.962 . S
C566 H580 0.960 . S
C567 C564 1.511 . S
C567 H581 0.961 . S
C567 H582 0.961 . S
C567 H583 0.961 . S
C568 C569 1.370 . S
C568 C570 1.363 . S
C568 H584 0.931 . S
C569 C568 1.370 . S
C569 C573 1.408 . S
C570 C568 1.363 . S
C570 C571 1.370 . S
C570 C574 1.524 . S
C571 C563 1.503 . S
C571 C570 1.370 . S
C571 C572 1.403 . S
C572 C571 1.403 . S
C572 C573 1.404 . S
C572 C575 1.539 . S
C573 C569 1.408 . S
C573 C572 1.404 . S
C573 H585 0.930 . S
C574 C570 1.524 . S
C574 H586 0.956 . S
C574 H587 0.961 . S
C574 H588 0.961 . S
C575 C572 1.539 . S
C575 H589 0.958 . S
C575 H590 0.961 . S
C575 H591 0.960 . S
H576 C560 0.931 . S
H577 C565 0.929 . S
H578 C566 0.960 . S
H579 C566 0.962 . S
H580 C566 0.960 . S
H581 C567 0.961 . S
H582 C567 0.961 . S
H583 C567 0.961 . S
H584 C568 0.931 . S
H585 C573 0.930 . S
H586 C574 0.956 . S
H587 C574 0.961 . S
H588 C574 0.961 . S
H589 C575 0.958 . S
H590 C575 0.961 . S
H591 C575 0.960 . S
C592 C593 1.391 . S
C592 C594 1.394 . S
C592 H608 0.931 . S
C593 C592 1.391 . S
C593 C597 1.376 . S
C594 C592 1.394 . S
C594 C595 1.369 . S
C594 C598 1.531 . S
C595 C594 1.369 . S
C595 C596 1.410 . S
C595 C603 1.503 . S
C596 C595 1.410 . S
C596 C597 1.392 . S
C596 C599 1.511 . S
C597 C593 1.376 . S
C597 C596 1.392 . S
C597 H609 0.929 . S
C598 C594 1.531 . S
C598 H610 0.960 . S
C598 H611 0.962 . S
C598 H612 0.960 . S
C599 C596 1.511 . S
C599 H613 0.961 . S
C599 H614 0.961 . S
C599 H615 0.961 . S
C600 C601 1.370 . S
C600 C602 1.363 . S
C600 H616 0.931 . S
C601 C600 1.370 . S
C601 C605 1.408 . S
C602 C600 1.363 . S
C602 C603 1.370 . S
C602 C606 1.524 . S
C603 C595 1.503 . S
C603 C602 1.370 . S
C603 C604 1.403 . S
C604 C603 1.403 . S
C604 C605 1.404 . S
C604 C607 1.539 . S
C605 C601 1.408 . S
C605 C604 1.404 . S
C605 H617 0.930 . S
C606 C602 1.524 . S
C606 H618 0.956 . S
C606 H619 0.961 . S
C606 H620 0.961 . S
C607 C604 1.539 . S
C607 H621 0.958 . S
C607 H622 0.961 . S
C607 H623 0.960 . S
H608 C592 0.931 . S
H609 C597 0.929 . S
H610 C598 0.960 . S
H611 C598 0.962 . S
H612 C598 0.960 . S
H613 C599 0.961 . S
H614 C599 0.961 . S
H615 C599 0.961 . S
H616 C600 0.931 . S
H617 C605 0.930 . S
H618 C606 0.956 . S
H619 C606 0.961 . S
H620 C606 0.961 . S
H621 C607 0.958 . S
H622 C607 0.961 . S
H623 C607 0.960 . S
C113 C22 1.421 . S
C121 C8 1.465 . S
C145 C36 1.482 . S
C153 C50 1.456 . S
C177 C64 1.422 . S
C185 C78 1.458 . S
C209 C92 1.478 . S
C217 C106 1.459 . S
C241 C13 1.193 . S
C249 C55 1.231 . S
C273 C41 1.230 . S
C281 C27 1.226 . S
C305 C35 1.217 . S
C313 C21 1.211 . S
C337 C7 1.218 . S
C345 C49 1.211 . S
C369 C69 1.209 . S
C377 C111 1.230 . S
C401 C97 1.253 . S
C409 C83 1.201 . S
C433 C77 1.192 . S
C441 C91 1.203 . S
C465 C63 1.197 . S
C473 C105 1.205 . S
C497 C81 1.541 . S
C505 C11 1.546 . S
C529 C67 1.552 . S
C537 C25 1.549 . S
C561 C39 1.535 . S
C569 C109 1.545 . S
C593 C95 1.537 . S
C601 C53 1.545 . S
