# Generated by pormake.
# Topology wje, (4)-cn, num edge types: 1
# Building blocks:
#     Node 0, Type 0, BuildingBlock: NAHDIM_clean_sbu_0, # of connection points: 4
#     Node 1, Type 0, BuildingBlock: NAHDIM_clean_sbu_0, # of connection points: 4
#     Node 2, Type 0, BuildingBlock: NAHDIM_clean_sbu_0, # of connection points: 4
#     Node 3, Type 0, BuildingBlock: NAHDIM_clean_sbu_0, # of connection points: 4
#     Node 4, Type 0, BuildingBlock: NAHDIM_clean_sbu_0, # of connection points: 4
#     Node 5, Type 0, BuildingBlock: NAHDIM_clean_sbu_0, # of connection points: 4
#     Node 6, Type 0, BuildingBlock: NAHDIM_clean_sbu_0, # of connection points: 4
#     Node 7, Type 0, BuildingBlock: NAHDIM_clean_sbu_0, # of connection points: 4
#     Node 8, Type 0, BuildingBlock: NAHDIM_clean_sbu_0, # of connection points: 4
#     Node 9, Type 0, BuildingBlock: NAHDIM_clean_sbu_0, # of connection points: 4
#     Node 10, Type 0, BuildingBlock: NAHDIM_clean_sbu_0, # of connection points: 4
#     Node 11, Type 0, BuildingBlock: NAHDIM_clean_sbu_0, # of connection points: 4
#     Edge 12, Type (0, 0), BuildingBlock: OJICUG_clean_linker_0, # of connection points: 2
#     Edge 13, Type (0, 0), BuildingBlock: OJICUG_clean_linker_0, # of connection points: 2
#     Edge 14, Type (0, 0), BuildingBlock: OJICUG_clean_linker_0, # of connection points: 2
#     Edge 15, Type (0, 0), BuildingBlock: OJICUG_clean_linker_0, # of connection points: 2
#     Edge 16, Type (0, 0), BuildingBlock: OJICUG_clean_linker_0, # of connection points: 2
#     Edge 17, Type (0, 0), BuildingBlock: OJICUG_clean_linker_0, # of connection points: 2
#     Edge 18, Type (0, 0), BuildingBlock: OJICUG_clean_linker_0, # of connection points: 2
#     Edge 19, Type (0, 0), BuildingBlock: OJICUG_clean_linker_0, # of connection points: 2
#     Edge 20, Type (0, 0), BuildingBlock: OJICUG_clean_linker_0, # of connection points: 2
#     Edge 21, Type (0, 0), BuildingBlock: OJICUG_clean_linker_0, # of connection points: 2
#     Edge 22, Type (0, 0), BuildingBlock: OJICUG_clean_linker_0, # of connection points: 2
#     Edge 23, Type (0, 0), BuildingBlock: OJICUG_clean_linker_0, # of connection points: 2
#     Edge 24, Type (0, 0), BuildingBlock: OJICUG_clean_linker_0, # of connection points: 2
#     Edge 25, Type (0, 0), BuildingBlock: OJICUG_clean_linker_0, # of connection points: 2
#     Edge 26, Type (0, 0), BuildingBlock: OJICUG_clean_linker_0, # of connection points: 2
#     Edge 27, Type (0, 0), BuildingBlock: OJICUG_clean_linker_0, # of connection points: 2
#     Edge 28, Type (0, 0), BuildingBlock: OJICUG_clean_linker_0, # of connection points: 2
#     Edge 29, Type (0, 0), BuildingBlock: OJICUG_clean_linker_0, # of connection points: 2
#     Edge 30, Type (0, 0), BuildingBlock: OJICUG_clean_linker_0, # of connection points: 2
#     Edge 31, Type (0, 0), BuildingBlock: OJICUG_clean_linker_0, # of connection points: 2
#     Edge 32, Type (0, 0), BuildingBlock: OJICUG_clean_linker_0, # of connection points: 2
#     Edge 33, Type (0, 0), BuildingBlock: OJICUG_clean_linker_0, # of connection points: 2
#     Edge 34, Type (0, 0), BuildingBlock: OJICUG_clean_linker_0, # of connection points: 2
#     Edge 35, Type (0, 0), BuildingBlock: OJICUG_clean_linker_0, # of connection points: 2
# Relax obj value: 0.161
# Max RMSD: 0.138
# Mean RMSD: 0.138
data_MOF--net-wje--node1-NAHDIM_clean_sbu_0--edge1-OJICUG_clean_linker_0
_symmetry_space_group_name_H-M    P1
_symmetry_Int_Tables_number       1
_symmetry_cell_setting            triclinic
loop_
_symmetry_equiv_pos_as_xyz
'x, y, z'
_cell_length_a     30.592394
_cell_length_b     30.41351
_cell_length_c     26.91578
_cell_angle_alpha  89.68667
_cell_angle_beta   90.367779
_cell_angle_gamma 120.47863
loop_
_atom_site_label
_atom_site_type_symbol
_atom_site_fract_x
_atom_site_fract_y
_atom_site_fract_z
_atom_type_partial_charge
C0 C 0.3403 0.0986 0.20563 0.0
O1 O 0.38632 0.10961 0.21824 0.0
O2 O 0.25309 0.93629 0.25905 0.0
Zn3 Zn 0.31142 0.00828 0.26552 0.0
O4 O 0.37851 0.01256 0.25642 0.0
C5 C 0.31459 0.989 0.3646 0.0
O6 O 0.32466 0.95697 0.34201 0.0
O7 O 0.30255 0.05753 0.2217 0.0
C8 C 0.3883 0.98269 0.23256 0.0
O9 O 0.35308 0.94679 0.20459 0.0
C10 C 0.21359 0.92969 0.28125 0.0
O11 O 0.21225 0.96999 0.29642 0.0
O12 O 0.30926 0.02108 0.33856 0.0
C13 C 0.19747 0.26382 0.56141 0.0
O14 O 0.18871 0.22054 0.58126 0.0
O15 O 0.30051 0.24746 0.61594 0.0
Zn16 Zn 0.28977 0.30734 0.6209 0.0
O17 O 0.35723 0.37302 0.61169 0.0
C18 C 0.25013 0.26638 0.71898 0.0
O19 O 0.241 0.22278 0.70013 0.0
O20 O 0.23825 0.30472 0.57231 0.0
C21 C 0.38049 0.39904 0.64991 0.0
O22 O 0.35961 0.38338 0.69377 0.0
C23 C 0.33465 0.24902 0.64443 0.0
O24 O 0.36403 0.29111 0.66916 0.0
O25 O 0.2658 0.30531 0.69098 0.0
C26 C 0.91568 0.24146 0.8917 0.0
O27 O 0.94215 0.28644 0.87051 0.0
O28 O 0.04457 0.30614 0.97643 0.0
Zn29 Zn 0.97473 0.29696 0.97769 0.0
O30 O 0.97673 0.36141 0.95605 0.0
C31 C 0.98 0.32271 0.07968 0.0
O32 O 0.0065 0.36875 0.06075 0.0
O33 O 0.92375 0.23649 0.93723 0.0
C34 C 0.94042 0.36803 0.96806 0.0
O35 O 0.90132 0.33129 0.9916 0.0
C36 C 0.08279 0.34984 0.98569 0.0
O37 O 0.07715 0.38985 0.98632 0.0
O38 O 0.95802 0.28471 0.05053 0.0
C39 C 0.66983 0.91932 0.20614 0.0
O40 O 0.66399 0.95413 0.18293 0.0
O41 O 0.71462 0.03768 0.29193 0.0
Zn42 Zn 0.65417 0.96607 0.29144 0.0
O43 O 0.59247 0.96621 0.26336 0.0
C44 C 0.68259 0.96549 0.39216 0.0
O45 O 0.72779 0.98723 0.37187 0.0
O46 O 0.66786 0.91739 0.25333 0.0
C47 C 0.56185 0.96875 0.2933 0.0
O48 O 0.56986 0.96921 0.34133 0.0
C49 C 0.70973 0.07004 0.31748 0.0
O50 O 0.66478 0.05737 0.33465 0.0
O51 O 0.64366 0.94765 0.36415 0.0
C52 C 0.75297 0.71435 0.53713 0.0
O53 O 0.76209 0.75718 0.55797 0.0
O54 O 0.65662 0.72894 0.60569 0.0
Zn55 Zn 0.66751 0.66901 0.60474 0.0
O56 O 0.59944 0.60292 0.60079 0.0
C57 C 0.72188 0.71344 0.696 0.0
O58 O 0.73472 0.75683 0.6737 0.0
O59 O 0.71425 0.67271 0.5505 0.0
C60 C 0.58114 0.5772 0.64048 0.0
O61 O 0.60732 0.59338 0.68193 0.0
C62 C 0.62549 0.72707 0.63798 0.0
O63 O 0.59723 0.68424 0.66217 0.0
O64 O 0.69886 0.67212 0.67147 0.0
C65 C 0.07762 0.73369 0.86821 0.0
O66 O 0.03835 0.69753 0.84422 0.0
O67 O 0.95621 0.68456 0.94709 0.0
Zn68 Zn 0.01838 0.678 0.95358 0.0
O69 O 0.00334 0.60688 0.93669 0.0
C70 C 0.01646 0.70848 0.05358 0.0
O71 O 0.00173 0.73759 0.03182 0.0
O72 O 0.0777 0.73301 0.91544 0.0
C73 C 0.97438 0.57231 0.96723 0.0
O74 O 0.95572 0.58478 0.00487 0.0
C75 C 0.91139 0.64751 0.94046 0.0
O76 O 0.90444 0.60328 0.92588 0.0
O77 O 0.03193 0.68468 0.02702 0.0
C78 C 0.90094 0.71097 0.4069 0.0
O79 O 0.94134 0.75356 0.3928 0.0
O80 O 0.02007 0.72587 0.37096 0.0
Zn81 Zn 0.95165 0.66399 0.35873 0.0
O82 O 0.94821 0.59761 0.37451 0.0
C83 C 0.9577 0.64377 0.25637 0.0
O84 O 0.96733 0.60988 0.27587 0.0
O85 O 0.8971 0.66854 0.39587 0.0
C86 C 0.97451 0.58825 0.40478 0.0
O87 O 0.00869 0.62503 0.43279 0.0
C88 C 0.05759 0.73004 0.34679 0.0
O89 O 0.05316 0.6896 0.32466 0.0
O90 O 0.94422 0.66811 0.28466 0.0
C91 C 0.2443 0.8982 0.76049 0.0
O92 O 0.28181 0.93618 0.78461 0.0
O93 O 0.29679 0.02182 0.68321 0.0
Zn94 Zn 0.30071 0.95817 0.67601 0.0
O95 O 0.37006 0.9719 0.69669 0.0
C96 C 0.27332 0.96314 0.57496 0.0
O97 O 0.24861 0.98292 0.59599 0.0
O98 O 0.24432 0.89902 0.71326 0.0
C99 C 0.40669 0.00566 0.67113 0.0
O100 O 0.3968 0.02863 0.63502 0.0
C101 C 0.3301 0.06366 0.70245 0.0
O102 O 0.36816 0.06564 0.72727 0.0
O103 O 0.29505 0.94548 0.60221 0.0
C104 C 0.30987 0.23545 0.07855 0.0
O105 O 0.26384 0.22371 0.06508 0.0
O106 O 0.27425 0.32739 0.04786 0.0
Zn107 Zn 0.33579 0.32664 0.02282 0.0
O108 O 0.39863 0.39773 0.02456 0.0
C109 C 0.28872 0.31224 0.92701 0.0
O110 O 0.27258 0.34012 0.94806 0.0
O111 O 0.34729 0.27777 0.06439 0.0
C112 C 0.40756 0.42978 0.98985 0.0
O113 O 0.37595 0.41636 0.95218 0.0
C114 C 0.27125 0.3675 0.05028 0.0
O115 O 0.31294 0.41222 0.04715 0.0
O116 O 0.31779 0.3012 0.95138 0.0
C117 C 0.04488 0.27218 0.44012 0.0
O118 O 0.00493 0.23013 0.42424 0.0
O119 O 0.9277 0.25456 0.39325 0.0
Zn120 Zn -0.00508 0.32047 0.39183 0.0
O121 O -0.01034 0.38087 0.41468 0.0
C122 C -0.00502 0.29394 0.29002 0.0
O123 O 0.97309 0.24768 0.3088 0.0
O124 O 0.04862 0.31496 0.43055 0.0
C125 C 0.96776 0.39611 0.38474 0.0
O126 O 0.94836 0.37068 0.34334 0.0
C127 C 0.88421 0.24997 0.39687 0.0
O128 O 0.88056 0.28968 0.40923 0.0
O129 O 0.01219 0.33195 0.31917 0.0
C130 C 0.75479 0.07221 0.78269 0.0
O131 O 0.7259 0.02818 0.80481 0.0
O132 O 0.68348 0.95298 0.71171 0.0
Zn133 Zn 0.68751 0.02007 0.7002 0.0
O134 O 0.6209 0.01575 0.71471 0.0
C135 C 0.66145 -0.00541 0.60051 0.0
O136 O 0.61878 0.96307 0.62301 0.0
O137 O 0.74568 0.07769 0.73763 0.0
C138 C 0.61222 0.04796 0.69346 0.0
O139 O 0.64841 0.0847 0.66703 0.0
C140 C 0.64122 0.91146 0.71409 0.0
O141 O 0.59946 0.91289 0.72067 0.0
O142 O 0.69855 0.02778 0.62622 0.0
C143 C 0.68779 0.7671 0.09422 0.0
O144 O 0.68917 0.72961 0.11725 0.0
O145 O 0.7479 0.7047 0.02211 0.0
Zn146 Zn 0.68666 0.71094 0.00793 0.0
O147 O 0.62167 0.64389 0.01928 0.0
C148 C 0.69239 0.6915 0.90759 0.0
O149 O 0.68162 0.6481 0.92855 0.0
O150 O 0.68711 0.76758 0.04699 0.0
C151 C 0.58313 0.6335 -0.00728 0.0
O152 O 0.58593 0.66793 0.96115 0.0
C153 C 0.74417 0.66115 0.02106 0.0
O154 O 0.69895 0.62004 0.02311 0.0
O155 O 0.69396 0.72658 0.93446 0.0
C156 C 0.28343 0.12153 0.15866 0.0
C157 C 0.33255 0.13351 0.17292 0.0
H158 H 0.23777 0.14409 0.11774 0.0
C159 C 0.37422 0.17917 0.15551 0.0
H160 H 0.25047 0.08666 0.17133 0.0
C161 C 0.36694 0.21217 0.12475 0.0
C162 C 0.3178 0.20024 0.11061 0.0
H163 H 0.41259 0.18958 0.1657 0.0
H164 H 0.39987 0.24709 0.11213 0.0
C165 C 0.27615 0.15448 0.12786 0.0
C166 C 0.11496 0.22056 0.51455 0.0
C167 C 0.15924 0.26563 0.52875 0.0
H168 H 0.04423 0.18721 0.47526 0.0
C169 C 0.16609 0.31275 0.51254 0.0
H170 H 0.10855 0.18365 0.52633 0.0
C171 C 0.12915 0.31482 0.48352 0.0
C172 C 0.0846 0.26981 0.46977 0.0
H173 H 0.19975 0.34823 0.5228 0.0
H174 H 0.13546 0.35179 0.4721 0.0
C175 C 0.0781 0.22262 0.48525 0.0
C176 C 0.82709 0.16271 0.78705 0.0
C177 C 0.79683 0.11513 0.81018 0.0
H178 H 0.88828 0.2397 0.79447 0.0
C179 C 0.80676 0.10915 0.86009 0.0
H180 H 0.82055 0.16865 0.74865 0.0
C181 C 0.84568 0.14992 0.88639 0.0
C182 C 0.87557 0.19766 0.86341 0.0
H183 H 0.78426 0.07301 0.87905 0.0
H184 H 0.85202 0.14408 0.92488 0.0
C185 C 0.86599 0.20348 0.81335 0.0
C186 C 0.68157 0.84617 0.09833 0.0
C187 C 0.68519 0.8072 0.12288 0.0
H188 H 0.67401 0.91207 0.10526 0.0
C189 C 0.68518 0.8063 0.17511 0.0
H190 H 0.68153 0.84806 0.05814 0.0
C191 C 0.68089 0.84306 0.20217 0.0
C192 C 0.67648 0.88156 0.17761 0.0
H193 H 0.68801 0.77689 0.19522 0.0
H194 H 0.6805 0.84094 0.24236 0.0
C195 C 0.67725 0.88291 0.12539 0.0
C196 C 0.86827 0.7588 0.45493 0.0
C197 C 0.86159 0.71223 0.43764 0.0
H198 H 0.83921 0.79608 0.49984 0.0
C199 C 0.81768 0.66664 0.4514 0.0
H200 H 0.90162 0.79463 0.44495 0.0
C201 C 0.78186 0.66749 0.48269 0.0
C202 C 0.78919 0.71393 0.50114 0.0
H203 H 0.81122 0.63011 0.43856 0.0
H204 H 0.74888 0.63156 0.49316 0.0
C205 C 0.83249 0.75964 0.48643 0.0
C206 C 0.16098 0.81572 0.76237 0.0
C207 C 0.20212 0.85554 0.78798 0.0
H208 H 0.08955 0.74613 0.76749 0.0
C209 C 0.20228 0.85453 0.8402 0.0
H210 H 0.15964 0.81529 0.72214 0.0
C211 C 0.16208 0.81482 0.86622 0.0
C212 C 0.12074 0.77522 0.84063 0.0
H213 H 0.23337 0.88454 0.86112 0.0
H214 H 0.16333 0.81538 0.90645 0.0
C215 C 0.12075 0.77604 0.78839 0.0
C216 C 0.45311 0.95717 0.21464 0.0
C217 C 0.4354 0.9825 0.2447 0.0
H218 H 0.50815 0.93368 0.20607 0.0
C219 C 0.46107 0.0049 0.2893 0.0
H220 H 0.434 0.93952 0.18013 0.0
C221 C 0.50223 0.00049 0.30452 0.0
C222 C 0.51952 0.97457 0.27507 0.0
H223 H 0.44831 0.02443 0.31355 0.0
H224 H 0.52045 0.01731 0.33962 0.0
C225 C 0.49539 0.95383 0.22944 0.0
C226 C 0.50215 0.5095 0.59774 0.0
C227 C 0.5299 0.5314 0.64156 0.0
H228 H 0.43284 0.44998 0.5658 0.0
C229 C 0.50799 0.5095 0.68753 0.0
H230 H 0.51809 0.52559 0.56178 0.0
C231 C 0.45946 0.46691 0.68984 0.0
C232 C 0.43162 0.44473 0.64623 0.0
H233 H 0.52815 0.52544 0.72205 0.0
H234 H 0.44397 0.45121 0.72604 0.0
C235 C 0.45344 0.46629 0.60005 0.0
C236 C -0.00607 0.50719 0.93434 0.0
C237 C 0.96268 0.51911 0.96222 0.0
H238 H 0.01149 0.44975 0.91441 0.0
C239 C 0.92153 0.48 0.98825 0.0
H240 H 0.0259 0.53659 0.9139 0.0
C241 C 0.9129 0.43036 0.98809 0.0
C242 C 0.94566 0.41886 0.96243 0.0
H243 H 0.89648 0.48795 0.00971 0.0
H244 H 0.88167 0.40148 0.00972 0.0
C245 C 0.9857 0.45753 0.93473 0.0
C246 C -0.00018 0.52564 0.43472 0.0
C247 C 0.96968 0.53727 0.40398 0.0
H248 H 0.02261 0.47138 0.45317 0.0
C249 C 0.93638 0.50046 0.36986 0.0
H250 H 0.02572 0.55311 0.4615 0.0
C251 C 0.93485 0.45413 0.36493 0.0
C252 C 0.96627 0.44316 0.39423 0.0
H253 H 0.91234 0.50788 0.34575 0.0
H254 H 0.90964 0.42727 0.33734 0.0
C255 C -0.00202 0.47884 0.43002 0.0
C256 C 0.52041 -0.00101 0.71798 0.0
C257 C 0.56032 0.04 0.69233 0.0
H258 H 0.44037 0.95598 0.73164 0.0
C259 C 0.5495 0.07128 0.66235 0.0
H260 H 0.5275 0.97419 0.74142 0.0
C261 C 0.49971 0.06061 0.65647 0.0
C262 C 0.45957 0.01863 0.6807 0.0
H263 H 0.5793 0.10324 0.64215 0.0
H264 H 0.49266 0.08488 0.63218 0.0
C265 C 0.47049 0.98851 0.71235 0.0
C266 C 0.49012 0.49593 0.02825 0.0
C267 C 0.45207 0.48212 0.99201 0.0
H268 H 0.56157 0.55469 0.05696 0.0
C269 C 0.45686 0.51894 0.95723 0.0
H270 H 0.4875 0.46845 0.0556 0.0
C271 C 0.49886 0.56827 0.95829 0.0
C272 C 0.53737 0.58195 -0.00608 0.0
H273 H 0.42816 0.5097 0.92894 0.0
H274 H 0.50144 0.59543 0.93057 0.0
C275 C 0.5325 0.54533 0.02905 0.0
C276 C 0.13897 0.78655 0.30195 0.0
C277 C 0.1001 0.78124 0.33356 0.0
H278 H 0.20502 0.83752 0.25998 0.0
C279 C 0.09914 0.82511 0.34773 0.0
H280 H 0.14063 0.75346 0.29008 0.0
C281 C 0.13545 0.87302 0.32984 0.0
C282 C 0.17385 0.87831 0.29762 0.0
H283 H 0.06958 0.82243 0.37172 0.0
H284 H 0.13338 0.90595 0.34145 0.0
C285 C 0.17556 0.83463 0.28425 0.0
C286 C 0.37122 0.2035 0.69072 0.0
C287 C 0.33476 0.20182 0.65744 0.0
H288 H 0.398 0.16119 0.73164 0.0
C289 C 0.29608 0.1543 0.6402 0.0
H290 H 0.40132 0.23953 0.705 0.0
C291 C 0.29378 0.1094 0.65605 0.0
C292 C 0.33032 0.11103 0.68922 0.0
H293 H 0.26708 0.15163 0.61501 0.0
H294 H 0.26352 0.07344 0.64184 0.0
C295 C 0.36908 0.15857 0.70637 0.0
C296 C 0.17846 0.31487 0.03153 0.0
C297 C 0.22159 0.36309 0.03995 0.0
H298 H 0.10142 0.2729 0.00666 0.0
C299 C 0.21829 0.40693 0.03127 0.0
H300 H 0.17964 0.28024 0.03758 0.0
C301 C 0.17336 0.40265 0.01315 0.0
C302 C 0.13087 0.35447 0.00315 0.0
H303 H 0.25084 0.44465 0.03705 0.0
H304 H 0.17216 0.43718 0.00648 0.0
C305 C 0.13373 0.31063 0.01312 0.0
C306 C 0.79066 0.19695 0.38142 0.0
C307 C 0.8392 0.20296 0.37842 0.0
H308 H 0.71176 0.15051 0.36388 0.0
C309 C 0.84497 0.16544 0.35395 0.0
H310 H 0.78496 0.22527 0.39974 0.0
C311 C 0.80322 0.12312 0.33256 0.0
C312 C 0.75468 0.11707 0.33571 0.0
H313 H 0.88187 0.16895 0.35071 0.0
H314 H 0.80889 0.09472 0.31438 0.0
C315 C 0.7488 0.15432 0.3605 0.0
C316 C 0.67175 0.82189 0.64642 0.0
C317 C 0.62831 0.77432 0.65558 0.0
H318 H 0.71056 0.90227 0.65907 0.0
C319 C 0.58973 0.77193 0.68563 0.0
H320 H 0.70241 0.82491 0.62395 0.0
C321 C 0.5943 0.81638 0.70571 0.0
C322 C 0.638 0.86387 0.69695 0.0
H323 H 0.55597 0.73568 0.69362 0.0
H324 H 0.56366 0.8136 0.72805 0.0
C325 C 0.67675 0.86613 0.66725 0.0
C326 C 0.83592 0.70117 -0.00139 0.0
C327 C 0.78787 0.65721 0.00384 0.0
H328 H 0.91234 0.73283 0.97363 0.0
C329 C 0.78059 0.61026 0.98702 0.0
H330 H 0.8427 0.73801 0.01081 0.0
C331 C 0.82025 0.60743 0.96489 0.0
C332 C 0.86823 0.65141 0.95945 0.0
H333 H 0.74391 0.57572 0.98995 0.0
H334 H 0.81338 0.57059 0.95258 0.0
C335 C 0.87569 0.69829 0.97677 0.0
C336 C 0.28041 0.00656 0.4416 0.0
C337 C 0.3048 0.98359 0.41854 0.0
H338 H 0.25036 0.01723 0.50905 0.0
C339 C 0.31744 0.95269 0.44702 0.0
H340 H 0.26974 0.03012 0.42048 0.0
C341 C 0.30631 0.9452 0.49761 0.0
C342 C 0.2819 0.9681 0.52076 0.0
H343 H 0.33613 0.9343 0.43026 0.0
H344 H 0.31709 0.92165 0.5186 0.0
C345 C 0.26885 -0.00131 0.4922 0.0
C346 C 0.2791 0.25719 0.85389 0.0
C347 C 0.27566 0.29759 0.87452 0.0
H348 H 0.27203 0.21452 0.7882 0.0
C349 C 0.25975 0.32482 0.84437 0.0
H350 H 0.29091 0.2354 0.87641 0.0
C351 C 0.24948 0.31331 0.79407 0.0
C352 C 0.25381 0.27361 0.77317 0.0
H353 H 0.2567 0.35618 0.85923 0.0
H354 H 0.23911 0.33613 0.7713 0.0
C355 C 0.26772 0.24493 0.80364 0.0
C356 C 0.01302 0.35055 0.21592 0.0
C357 C -0.00738 0.30128 0.23596 0.0
H358 H 0.02432 0.39589 0.15106 0.0
C359 C 0.96675 0.25895 0.20436 0.0
H360 H 0.03278 0.38396 0.23932 0.0
C361 C 0.96142 0.26576 0.15377 0.0
C362 C 0.982 0.31507 0.13372 0.0
H363 H 0.95017 0.22044 0.21871 0.0
H364 H 0.94165 0.23239 0.13033 0.0
C365 C 0.0078 0.35736 0.16535 0.0
C366 C 0.72033 0.00361 0.47477 0.0
C367 C 0.67757 0.97056 0.44608 0.0
H368 H 0.74873 0.03797 0.54586 0.0
C369 C 0.62961 0.94593 0.46853 0.0
H370 H 0.75779 0.02364 0.45843 0.0
C371 C 0.62447 0.95426 0.51857 0.0
C372 C 0.66711 0.98776 0.54711 0.0
H373 H 0.59592 0.92051 0.44736 0.0
H374 H 0.58694 0.93456 0.53479 0.0
C375 C 0.71511 0.01231 0.52473 0.0
C376 C 0.71793 0.74583 0.83064 0.0
C377 C 0.70369 0.69904 0.85393 0.0
H378 H 0.73602 0.78755 0.76221 0.0
C379 C 0.70059 0.65892 0.82547 0.0
H380 H 0.72115 0.7776 0.8517 0.0
C381 C 0.70939 0.66466 0.77448 0.0
C382 C 0.72169 0.71071 0.75076 0.0
H383 H 0.6903 0.62253 0.84234 0.0
H384 H 0.705 0.63241 0.75338 0.0
C385 C 0.727 0.75167 0.77949 0.0
C386 C 0.96625 0.6995 0.18368 0.0
C387 C 0.97153 0.65983 0.20416 0.0
H388 H 0.9772 0.74672 0.12026 0.0
C389 C -0.0061 0.63808 0.17544 0.0
H390 H 0.94966 0.71743 0.20504 0.0
C391 C 0.01037 0.65535 0.12725 0.0
C392 C 0.00459 0.6946 0.1065 0.0
H393 H -0.00096 0.6078 0.19023 0.0
H394 H 0.02677 0.63718 0.10597 0.0
C395 C 0.98254 0.71666 0.13529 0.0
loop_
_geom_bond_atom_site_label_1
_geom_bond_atom_site_label_2
_geom_bond_distance
_geom_bond_site_symmetry_2
_ccdc_geom_bond_type
C0 O1 1.160 . S
C0 O7 1.185 . S
O1 C0 1.160 . S
O2 Zn3 1.899 1_565 S
O2 C10 1.284 . S
Zn3 O2 1.899 1_545 S
Zn3 O4 2.032 . S
Zn3 O7 2.086 . S
Zn3 O12 1.977 . S
O4 Zn3 2.032 . S
O4 C8 1.278 1_545 S
C5 O6 1.203 1_545 S
C5 O12 1.267 . S
O6 C5 1.203 1_565 S
O7 C0 1.185 . S
O7 Zn3 2.086 . S
C8 O4 1.278 1_565 S
C8 O9 1.211 . S
O9 C8 1.211 . S
C10 O2 1.284 . S
C10 O11 1.273 . S
O11 C10 1.273 . S
O12 Zn3 1.977 . S
O12 C5 1.267 . S
C13 O14 1.160 . S
C13 O20 1.185 . S
O14 C13 1.160 . S
O15 Zn16 1.899 . S
O15 C23 1.284 . S
Zn16 O15 1.899 . S
Zn16 O17 2.032 . S
Zn16 O20 2.086 . S
Zn16 O25 1.977 . S
O17 Zn16 2.032 . S
O17 C21 1.278 . S
C18 O19 1.203 . S
C18 O25 1.267 . S
O19 C18 1.203 . S
O20 C13 1.185 . S
O20 Zn16 2.086 . S
C21 O17 1.278 . S
C21 O22 1.211 . S
O22 C21 1.211 . S
C23 O15 1.284 . S
C23 O24 1.273 . S
O24 C23 1.273 . S
O25 Zn16 1.977 . S
O25 C18 1.267 . S
C26 O27 1.160 . S
C26 O33 1.185 . S
O27 C26 1.160 . S
O28 Zn29 1.899 1_455 S
O28 C36 1.284 . S
Zn29 O28 1.899 1_655 S
Zn29 O30 2.032 . S
Zn29 O33 2.086 . S
Zn29 O38 1.977 1_556 S
O30 Zn29 2.032 . S
O30 C34 1.278 1_655 S
C31 O32 1.203 1_655 S
C31 O38 1.267 . S
O32 C31 1.203 1_455 S
O33 C26 1.185 . S
O33 Zn29 2.086 . S
C34 O30 1.278 1_455 S
C34 O35 1.230 . S
O35 C34 1.230 . S
C36 O28 1.284 . S
C36 O37 1.273 . S
O37 C36 1.273 . S
O38 Zn29 1.977 1_554 S
O38 C31 1.267 . S
C39 O40 1.160 . S
C39 O46 1.185 . S
O40 C39 1.160 . S
O41 Zn42 1.899 1_545 S
O41 C49 1.284 . S
Zn42 O41 1.899 1_565 S
Zn42 O43 2.032 . S
Zn42 O46 2.086 . S
Zn42 O51 1.977 . S
O43 Zn42 2.032 . S
O43 C47 1.278 1_565 S
C44 O45 1.203 1_565 S
C44 O51 1.267 . S
O45 C44 1.203 1_545 S
O46 C39 1.185 . S
O46 Zn42 2.086 . S
C47 O43 1.278 1_545 S
C47 O48 1.211 . S
O48 C47 1.211 . S
C49 O41 1.284 . S
C49 O50 1.273 . S
O50 C49 1.273 . S
O51 Zn42 1.977 . S
O51 C44 1.267 . S
C52 O53 1.160 . S
C52 O59 1.185 . S
O53 C52 1.160 . S
O54 Zn55 1.899 . S
O54 C62 1.284 . S
Zn55 O54 1.899 . S
Zn55 O56 2.032 . S
Zn55 O59 2.086 . S
Zn55 O64 1.977 . S
O56 Zn55 2.032 . S
O56 C60 1.278 . S
C57 O58 1.203 . S
C57 O64 1.267 . S
O58 C57 1.203 . S
O59 C52 1.185 . S
O59 Zn55 2.086 . S
C60 O56 1.278 . S
C60 O61 1.211 . S
O61 C60 1.211 . S
C62 O54 1.284 . S
C62 O63 1.273 . S
O63 C62 1.273 . S
O64 Zn55 1.977 . S
O64 C57 1.267 . S
C65 O66 1.160 . S
C65 O72 1.185 . S
O66 C65 1.160 . S
O67 Zn68 1.899 1_655 S
O67 C75 1.284 . S
Zn68 O67 1.899 1_455 S
Zn68 O69 2.032 . S
Zn68 O72 2.086 . S
Zn68 O77 1.977 1_556 S
O69 Zn68 2.032 . S
O69 C73 1.278 1_455 S
C70 O71 1.203 1_455 S
C70 O77 1.267 . S
O71 C70 1.203 1_655 S
O72 C65 1.185 . S
O72 Zn68 2.086 . S
C73 O69 1.278 1_655 S
C73 O74 1.230 . S
O74 C73 1.230 . S
C75 O67 1.284 . S
C75 O76 1.273 . S
O76 C75 1.273 . S
O77 Zn68 1.977 1_554 S
O77 C70 1.267 . S
C78 O79 1.160 . S
C78 O85 1.185 . S
O79 C78 1.160 . S
O80 Zn81 1.899 1_455 S
O80 C88 1.284 . S
Zn81 O80 1.899 1_655 S
Zn81 O82 2.032 . S
Zn81 O85 2.086 . S
Zn81 O90 1.977 . S
O82 Zn81 2.032 . S
O82 C86 1.278 1_655 S
C83 O84 1.203 1_655 S
C83 O90 1.267 . S
O84 C83 1.203 1_455 S
O85 C78 1.185 . S
O85 Zn81 2.086 . S
C86 O82 1.278 1_455 S
C86 O87 1.211 . S
O87 C86 1.211 . S
C88 O80 1.284 . S
C88 O89 1.273 . S
O89 C88 1.273 . S
O90 Zn81 1.977 . S
O90 C83 1.267 . S
C91 O92 1.160 . S
C91 O98 1.185 . S
O92 C91 1.160 . S
O93 Zn94 1.899 1_545 S
O93 C101 1.284 . S
Zn94 O93 1.899 1_565 S
Zn94 O95 2.032 . S
Zn94 O98 2.086 . S
Zn94 O103 1.977 . S
O95 Zn94 2.032 . S
O95 C99 1.278 1_565 S
C96 O97 1.203 1_565 S
C96 O103 1.267 . S
O97 C96 1.203 1_545 S
O98 C91 1.185 . S
O98 Zn94 2.086 . S
C99 O95 1.278 1_545 S
C99 O100 1.211 . S
O100 C99 1.211 . S
C101 O93 1.284 . S
C101 O102 1.273 . S
O102 C101 1.273 . S
O103 Zn94 1.977 . S
O103 C96 1.267 . S
C104 O105 1.160 . S
C104 O111 1.185 . S
O105 C104 1.160 . S
O106 Zn107 1.899 . S
O106 C114 1.284 . S
Zn107 O106 1.899 . S
Zn107 O108 2.032 . S
Zn107 O111 2.086 . S
Zn107 O116 1.977 1_554 S
O108 Zn107 2.032 . S
O108 C112 1.278 . S
C109 O110 1.203 . S
C109 O116 1.267 . S
O110 C109 1.203 . S
O111 C104 1.185 . S
O111 Zn107 2.086 . S
C112 O108 1.278 . S
C112 O113 1.211 . S
O113 C112 1.211 . S
C114 O106 1.284 . S
C114 O115 1.273 . S
O115 C114 1.273 . S
O116 Zn107 1.977 1_556 S
O116 C109 1.267 . S
C117 O118 1.160 . S
C117 O124 1.185 . S
O118 C117 1.160 . S
O119 Zn120 1.899 1_655 S
O119 C127 1.284 . S
Zn120 O119 1.899 1_455 S
Zn120 O121 2.032 . S
Zn120 O124 2.086 . S
Zn120 O129 1.977 . S
O121 Zn120 2.032 . S
O121 C125 1.278 1_455 S
C122 O123 1.203 1_455 S
C122 O129 1.267 . S
O123 C122 1.203 1_655 S
O124 C117 1.185 . S
O124 Zn120 2.086 . S
C125 O121 1.278 1_655 S
C125 O126 1.211 . S
O126 C125 1.211 . S
C127 O119 1.284 . S
C127 O128 1.273 . S
O128 C127 1.273 . S
O129 Zn120 1.977 . S
O129 C122 1.267 . S
C130 O131 1.160 . S
C130 O137 1.185 . S
O131 C130 1.160 . S
O132 Zn133 1.899 1_565 S
O132 C140 1.284 . S
Zn133 O132 1.899 1_545 S
Zn133 O134 2.032 . S
Zn133 O137 2.086 . S
Zn133 O142 1.977 . S
O134 Zn133 2.032 . S
O134 C138 1.278 1_545 S
C135 O136 1.203 1_545 S
C135 O142 1.267 . S
O136 C135 1.203 1_565 S
O137 C130 1.185 . S
O137 Zn133 2.086 . S
C138 O134 1.278 1_565 S
C138 O139 1.211 . S
O139 C138 1.211 . S
C140 O132 1.284 . S
C140 O141 1.273 . S
O141 C140 1.273 . S
O142 Zn133 1.977 . S
O142 C135 1.267 . S
C143 O144 1.160 . S
C143 O150 1.185 . S
O144 C143 1.160 . S
O145 Zn146 1.899 . S
O145 C153 1.284 . S
Zn146 O145 1.899 . S
Zn146 O147 2.032 . S
Zn146 O150 2.086 . S
Zn146 O155 1.977 1_554 S
O147 Zn146 2.032 . S
O147 C151 1.278 . S
C148 O149 1.203 . S
C148 O155 1.267 . S
O149 C148 1.203 . S
O150 C143 1.185 . S
O150 Zn146 2.086 . S
C151 O147 1.278 . S
C151 O152 1.211 . S
O152 C151 1.211 . S
C153 O145 1.284 . S
C153 O154 1.273 . S
O154 C153 1.273 . S
O155 Zn146 1.977 1_556 S
O155 C148 1.267 . S
C156 C157 1.387 . S
C156 H160 0.950 . S
C156 C165 1.390 . S
C157 C156 1.387 . S
C157 C159 1.387 . S
H158 C165 0.950 . S
C159 C157 1.387 . S
C159 C161 1.390 . S
C159 H163 0.950 . S
H160 C156 0.950 . S
C161 C159 1.390 . S
C161 C162 1.387 . S
C161 H164 0.950 . S
C162 C161 1.387 . S
C162 C165 1.387 . S
H163 C159 0.950 . S
H164 C161 0.950 . S
C165 C156 1.390 . S
C165 H158 0.950 . S
C165 C162 1.387 . S
C166 C167 1.387 . S
C166 H170 0.950 . S
C166 C175 1.390 . S
C167 C166 1.387 . S
C167 C169 1.387 . S
H168 C175 0.950 . S
C169 C167 1.387 . S
C169 C171 1.390 . S
C169 H173 0.950 . S
H170 C166 0.950 . S
C171 C169 1.390 . S
C171 C172 1.387 . S
C171 H174 0.950 . S
C172 C171 1.387 . S
C172 C175 1.387 . S
H173 C169 0.950 . S
H174 C171 0.950 . S
C175 C166 1.390 . S
C175 H168 0.950 . S
C175 C172 1.387 . S
C176 C177 1.387 . S
C176 H180 0.950 . S
C176 C185 1.390 . S
C177 C176 1.387 . S
C177 C179 1.387 . S
H178 C185 0.950 . S
C179 C177 1.387 . S
C179 C181 1.390 . S
C179 H183 0.950 . S
H180 C176 0.950 . S
C181 C179 1.390 . S
C181 C182 1.387 . S
C181 H184 0.950 . S
C182 C181 1.387 . S
C182 C185 1.387 . S
H183 C179 0.950 . S
H184 C181 0.950 . S
C185 C176 1.390 . S
C185 H178 0.950 . S
C185 C182 1.387 . S
C186 C187 1.387 . S
C186 H190 0.950 . S
C186 C195 1.390 . S
C187 C186 1.387 . S
C187 C189 1.387 . S
H188 C195 0.950 . S
C189 C187 1.387 . S
C189 C191 1.390 . S
C189 H193 0.950 . S
H190 C186 0.950 . S
C191 C189 1.390 . S
C191 C192 1.387 . S
C191 H194 0.950 . S
C192 C191 1.387 . S
C192 C195 1.387 . S
H193 C189 0.950 . S
H194 C191 0.950 . S
C195 C186 1.390 . S
C195 H188 0.950 . S
C195 C192 1.387 . S
C196 C197 1.387 . S
C196 H200 0.950 . S
C196 C205 1.390 . S
C197 C196 1.387 . S
C197 C199 1.387 . S
H198 C205 0.950 . S
C199 C197 1.387 . S
C199 C201 1.390 . S
C199 H203 0.950 . S
H200 C196 0.950 . S
C201 C199 1.390 . S
C201 C202 1.387 . S
C201 H204 0.950 . S
C202 C201 1.387 . S
C202 C205 1.387 . S
H203 C199 0.950 . S
H204 C201 0.950 . S
C205 C196 1.390 . S
C205 H198 0.950 . S
C205 C202 1.387 . S
C206 C207 1.387 . S
C206 H210 0.950 . S
C206 C215 1.390 . S
C207 C206 1.387 . S
C207 C209 1.387 . S
H208 C215 0.950 . S
C209 C207 1.387 . S
C209 C211 1.390 . S
C209 H213 0.950 . S
H210 C206 0.950 . S
C211 C209 1.390 . S
C211 C212 1.387 . S
C211 H214 0.950 . S
C212 C211 1.387 . S
C212 C215 1.387 . S
H213 C209 0.950 . S
H214 C211 0.950 . S
C215 C206 1.390 . S
C215 H208 0.950 . S
C215 C212 1.387 . S
C216 C217 1.387 . S
C216 H220 0.950 . S
C216 C225 1.390 1_565 S
C217 C216 1.387 . S
C217 C219 1.387 . S
H218 C225 0.950 . S
C219 C217 1.387 . S
C219 C221 1.390 1_565 S
C219 H223 0.950 . S
H220 C216 0.950 . S
C221 C219 1.390 1_545 S
C221 C222 1.387 . S
C221 H224 0.950 . S
C222 C221 1.387 . S
C222 C225 1.387 . S
H223 C219 0.950 . S
H224 C221 0.950 . S
C225 C216 1.390 1_545 S
C225 H218 0.950 . S
C225 C222 1.387 . S
C226 C227 1.387 . S
C226 H230 0.950 . S
C226 C235 1.390 . S
C227 C226 1.387 . S
C227 C229 1.387 . S
H228 C235 0.950 . S
C229 C227 1.387 . S
C229 C231 1.390 . S
C229 H233 0.950 . S
H230 C226 0.950 . S
C231 C229 1.390 . S
C231 C232 1.387 . S
C231 H234 0.950 . S
C232 C231 1.387 . S
C232 C235 1.387 . S
H233 C229 0.950 . S
H234 C231 0.950 . S
C235 C226 1.390 . S
C235 H228 0.950 . S
C235 C232 1.387 . S
C236 C237 1.387 . S
C236 H240 0.950 . S
C236 C245 1.390 1_655 S
C237 C236 1.387 . S
C237 C239 1.387 . S
H238 C245 0.950 . S
C239 C237 1.387 . S
C239 C241 1.390 1_655 S
C239 H243 0.950 1_556 S
H240 C236 0.950 . S
C241 C239 1.390 1_455 S
C241 C242 1.387 . S
C241 H244 0.950 1_556 S
C242 C241 1.387 . S
C242 C245 1.387 . S
H243 C239 0.950 1_554 S
H244 C241 0.950 1_554 S
C245 C236 1.390 1_455 S
C245 H238 0.950 . S
C245 C242 1.387 . S
C246 C247 1.387 . S
C246 H250 0.950 . S
C246 C255 1.390 1_455 S
C247 C246 1.387 . S
C247 C249 1.387 . S
H248 C255 0.950 . S
C249 C247 1.387 . S
C249 C251 1.390 1_455 S
C249 H253 0.950 . S
H250 C246 0.950 . S
C251 C249 1.390 1_655 S
C251 C252 1.387 . S
C251 H254 0.950 . S
C252 C251 1.387 . S
C252 C255 1.387 . S
H253 C249 0.950 . S
H254 C251 0.950 . S
C255 C246 1.390 1_655 S
C255 H248 0.950 . S
C255 C252 1.387 . S
C256 C257 1.387 . S
C256 H260 0.950 . S
C256 C265 1.390 1_565 S
C257 C256 1.387 . S
C257 C259 1.387 . S
H258 C265 0.950 . S
C259 C257 1.387 . S
C259 C261 1.390 1_565 S
C259 H263 0.950 . S
H260 C256 0.950 . S
C261 C259 1.390 1_545 S
C261 C262 1.387 . S
C261 H264 0.950 . S
C262 C261 1.387 . S
C262 C265 1.387 . S
H263 C259 0.950 . S
H264 C261 0.950 . S
C265 C256 1.390 1_545 S
C265 H258 0.950 . S
C265 C262 1.387 . S
C266 C267 1.387 . S
C266 H270 0.950 . S
C266 C275 1.390 . S
C267 C266 1.387 . S
C267 C269 1.387 . S
H268 C275 0.950 . S
C269 C267 1.387 . S
C269 C271 1.390 . S
C269 H273 0.950 1_554 S
H270 C266 0.950 . S
C271 C269 1.390 . S
C271 C272 1.387 . S
C271 H274 0.950 1_554 S
C272 C271 1.387 . S
C272 C275 1.387 . S
H273 C269 0.950 1_556 S
H274 C271 0.950 1_556 S
C275 C266 1.390 . S
C275 H268 0.950 . S
C275 C272 1.387 . S
C276 C277 1.387 . S
C276 H280 0.950 . S
C276 C285 1.390 . S
C277 C276 1.387 . S
C277 C279 1.387 . S
H278 C285 0.950 . S
C279 C277 1.387 . S
C279 C281 1.390 . S
C279 H283 0.950 . S
H280 C276 0.950 . S
C281 C279 1.390 . S
C281 C282 1.387 . S
C281 H284 0.950 . S
C282 C281 1.387 . S
C282 C285 1.387 . S
H283 C279 0.950 . S
H284 C281 0.950 . S
C285 C276 1.390 . S
C285 H278 0.950 . S
C285 C282 1.387 . S
C286 C287 1.387 . S
C286 H290 0.950 . S
C286 C295 1.390 . S
C287 C286 1.387 . S
C287 C289 1.387 . S
H288 C295 0.950 . S
C289 C287 1.387 . S
C289 C291 1.390 . S
C289 H293 0.950 . S
H290 C286 0.950 . S
C291 C289 1.390 . S
C291 C292 1.387 . S
C291 H294 0.950 . S
C292 C291 1.387 . S
C292 C295 1.387 . S
H293 C289 0.950 . S
H294 C291 0.950 . S
C295 C286 1.390 . S
C295 H288 0.950 . S
C295 C292 1.387 . S
C296 C297 1.387 . S
C296 H300 0.950 . S
C296 C305 1.390 1_554 S
C297 C296 1.387 . S
C297 C299 1.387 . S
H298 C305 0.950 . S
C299 C297 1.387 . S
C299 C301 1.390 1_554 S
C299 H303 0.950 . S
H300 C296 0.950 . S
C301 C299 1.390 1_556 S
C301 C302 1.387 . S
C301 H304 0.950 . S
C302 C301 1.387 . S
C302 C305 1.387 . S
H303 C299 0.950 . S
H304 C301 0.950 . S
C305 C296 1.390 1_556 S
C305 H298 0.950 . S
C305 C302 1.387 . S
C306 C307 1.387 . S
C306 H310 0.950 . S
C306 C315 1.390 . S
C307 C306 1.387 . S
C307 C309 1.387 . S
H308 C315 0.950 . S
C309 C307 1.387 . S
C309 C311 1.390 . S
C309 H313 0.950 . S
H310 C306 0.950 . S
C311 C309 1.390 . S
C311 C312 1.387 . S
C311 H314 0.950 . S
C312 C311 1.387 . S
C312 C315 1.387 . S
H313 C309 0.950 . S
H314 C311 0.950 . S
C315 C306 1.390 . S
C315 H308 0.950 . S
C315 C312 1.387 . S
C316 C317 1.387 . S
C316 H320 0.950 . S
C316 C325 1.390 . S
C317 C316 1.387 . S
C317 C319 1.387 . S
H318 C325 0.950 . S
C319 C317 1.387 . S
C319 C321 1.390 . S
C319 H323 0.950 . S
H320 C316 0.950 . S
C321 C319 1.390 . S
C321 C322 1.387 . S
C321 H324 0.950 . S
C322 C321 1.387 . S
C322 C325 1.387 . S
H323 C319 0.950 . S
H324 C321 0.950 . S
C325 C316 1.390 . S
C325 H318 0.950 . S
C325 C322 1.387 . S
C326 C327 1.387 . S
C326 H330 0.950 . S
C326 C335 1.390 1_554 S
C327 C326 1.387 . S
C327 C329 1.387 . S
H328 C335 0.950 . S
C329 C327 1.387 . S
C329 C331 1.390 1_554 S
C329 H333 0.950 . S
H330 C326 0.950 . S
C331 C329 1.390 1_556 S
C331 C332 1.387 . S
C331 H334 0.950 . S
C332 C331 1.387 . S
C332 C335 1.387 . S
H333 C329 0.950 . S
H334 C331 0.950 . S
C335 C326 1.390 1_556 S
C335 H328 0.950 . S
C335 C332 1.387 . S
C336 C337 1.387 . S
C336 H340 0.950 . S
C336 C345 1.390 1_545 S
C337 C336 1.387 . S
C337 C339 1.387 . S
H338 C345 0.950 . S
C339 C337 1.387 . S
C339 C341 1.390 1_545 S
C339 H343 0.950 . S
H340 C336 0.950 . S
C341 C339 1.390 1_565 S
C341 C342 1.387 . S
C341 H344 0.950 . S
C342 C341 1.387 . S
C342 C345 1.387 . S
H343 C339 0.950 . S
H344 C341 0.950 . S
C345 C336 1.390 1_565 S
C345 H338 0.950 . S
C345 C342 1.387 . S
C346 C347 1.387 . S
C346 H350 0.950 . S
C346 C355 1.390 . S
C347 C346 1.387 . S
C347 C349 1.387 . S
H348 C355 0.950 . S
C349 C347 1.387 . S
C349 C351 1.390 . S
C349 H353 0.950 . S
H350 C346 0.950 . S
C351 C349 1.390 . S
C351 C352 1.387 . S
C351 H354 0.950 . S
C352 C351 1.387 . S
C352 C355 1.387 . S
H353 C349 0.950 . S
H354 C351 0.950 . S
C355 C346 1.390 . S
C355 H348 0.950 . S
C355 C352 1.387 . S
C356 C357 1.387 . S
C356 H360 0.950 . S
C356 C365 1.390 . S
C357 C356 1.387 . S
C357 C359 1.387 1_455 S
H358 C365 0.950 . S
C359 C357 1.387 1_655 S
C359 C361 1.390 . S
C359 H363 0.950 . S
H360 C356 0.950 . S
C361 C359 1.390 . S
C361 C362 1.387 . S
C361 H364 0.950 . S
C362 C361 1.387 . S
C362 C365 1.387 1_655 S
H363 C359 0.950 . S
H364 C361 0.950 . S
C365 C356 1.390 . S
C365 H358 0.950 . S
C365 C362 1.387 1_455 S
C366 C367 1.387 . S
C366 H370 0.950 . S
C366 C375 1.390 1_565 S
C367 C366 1.387 . S
C367 C369 1.387 . S
H368 C375 0.950 . S
C369 C367 1.387 . S
C369 C371 1.390 1_565 S
C369 H373 0.950 . S
H370 C366 0.950 . S
C371 C369 1.390 1_545 S
C371 C372 1.387 . S
C371 H374 0.950 . S
C372 C371 1.387 . S
C372 C375 1.387 . S
H373 C369 0.950 . S
H374 C371 0.950 . S
C375 C366 1.390 1_545 S
C375 H368 0.950 . S
C375 C372 1.387 . S
C376 C377 1.387 . S
C376 H380 0.950 . S
C376 C385 1.390 . S
C377 C376 1.387 . S
C377 C379 1.387 . S
H378 C385 0.950 . S
C379 C377 1.387 . S
C379 C381 1.390 . S
C379 H383 0.950 . S
H380 C376 0.950 . S
C381 C379 1.390 . S
C381 C382 1.387 . S
C381 H384 0.950 . S
C382 C381 1.387 . S
C382 C385 1.387 . S
H383 C379 0.950 . S
H384 C381 0.950 . S
C385 C376 1.390 . S
C385 H378 0.950 . S
C385 C382 1.387 . S
C386 C387 1.387 1_455 S
C386 H390 0.950 . S
C386 C395 1.390 . S
C387 C386 1.387 1_655 S
C387 C389 1.387 . S
H388 C395 0.950 . S
C389 C387 1.387 . S
C389 C391 1.390 . S
C389 H393 0.950 . S
H390 C386 0.950 . S
C391 C389 1.390 . S
C391 C392 1.387 1_655 S
C391 H394 0.950 . S
C392 C391 1.387 1_455 S
C392 C395 1.387 . S
H393 C389 0.950 . S
H394 C391 0.950 . S
C395 C386 1.390 . S
C395 H388 0.950 . S
C395 C392 1.387 . S
C157 C0 1.648 . S
C162 C104 1.647 . S
C167 C13 1.649 . S
C172 C117 1.646 . S
C177 C130 1.645 . S
C182 C26 1.644 . S
C187 C143 1.649 . S
C192 C39 1.647 . S
C197 C78 1.649 . S
C202 C52 1.647 . S
C207 C91 1.645 . S
C212 C65 1.644 . S
C217 C8 1.387 . S
C222 C47 1.390 . S
C227 C60 1.385 . S
C232 C21 1.385 . S
C237 C73 1.383 . S
C242 C34 1.381 . S
C247 C86 1.387 . S
C252 C125 1.390 . S
C257 C138 1.383 . S
C262 C99 1.381 . S
C267 C112 1.385 . S
C272 C151 1.385 . S
C277 C88 1.259 . S
C282 C10 1.260 . S
C287 C23 1.255 . S
C292 C101 1.258 . S
C297 C114 1.252 . S
C302 C36 1.255 . S
C307 C127 1.259 . S
C312 C49 1.260 . S
C317 C62 1.253 . S
C322 C140 1.255 . S
C327 C153 1.252 . S
C332 C75 1.255 . S
C337 C5 1.109 . S
C342 C96 1.108 . S
C347 C109 1.108 . S
C352 C18 1.108 . S
C357 C122 1.103 . S
C362 C31 1.102 . S
C367 C44 1.109 . S
C372 C135 1.108 . S
C377 C148 1.110 . S
C382 C57 1.110 . S
C387 C83 1.109 . S
C392 C70 1.108 . S
