# Generated by pormake.
# Topology umv, (4)-cn, num edge types: 1
# Building blocks:
#     Node 0, Type 0, BuildingBlock: CEKHIL_clean_sbu_0, # of connection points: 4
#     Node 1, Type 0, BuildingBlock: CEKHIL_clean_sbu_0, # of connection points: 4
#     Node 2, Type 0, BuildingBlock: CEKHIL_clean_sbu_0, # of connection points: 4
#     Node 3, Type 0, BuildingBlock: CEKHIL_clean_sbu_0, # of connection points: 4
#     Node 4, Type 0, BuildingBlock: CEKHIL_clean_sbu_0, # of connection points: 4
#     Node 5, Type 0, BuildingBlock: CEKHIL_clean_sbu_0, # of connection points: 4
#     Node 6, Type 0, BuildingBlock: CEKHIL_clean_sbu_0, # of connection points: 4
#     Node 7, Type 0, BuildingBlock: CEKHIL_clean_sbu_0, # of connection points: 4
#     Node 8, Type 0, BuildingBlock: CEKHIL_clean_sbu_0, # of connection points: 4
#     Node 9, Type 0, BuildingBlock: CEKHIL_clean_sbu_0, # of connection points: 4
#     Node 10, Type 0, BuildingBlock: CEKHIL_clean_sbu_0, # of connection points: 4
#     Node 11, Type 0, BuildingBlock: CEKHIL_clean_sbu_0, # of connection points: 4
#     Node 12, Type 0, BuildingBlock: CEKHIL_clean_sbu_0, # of connection points: 4
#     Node 13, Type 0, BuildingBlock: CEKHIL_clean_sbu_0, # of connection points: 4
#     Node 14, Type 0, BuildingBlock: CEKHIL_clean_sbu_0, # of connection points: 4
#     Node 15, Type 0, BuildingBlock: CEKHIL_clean_sbu_0, # of connection points: 4
#     Node 16, Type 0, BuildingBlock: CEKHIL_clean_sbu_0, # of connection points: 4
#     Node 17, Type 0, BuildingBlock: CEKHIL_clean_sbu_0, # of connection points: 4
#     Node 18, Type 0, BuildingBlock: CEKHIL_clean_sbu_0, # of connection points: 4
#     Node 19, Type 0, BuildingBlock: CEKHIL_clean_sbu_0, # of connection points: 4
#     Node 20, Type 0, BuildingBlock: CEKHIL_clean_sbu_0, # of connection points: 4
#     Node 21, Type 0, BuildingBlock: CEKHIL_clean_sbu_0, # of connection points: 4
#     Node 22, Type 0, BuildingBlock: CEKHIL_clean_sbu_0, # of connection points: 4
#     Node 23, Type 0, BuildingBlock: CEKHIL_clean_sbu_0, # of connection points: 4
#     Node 24, Type 0, BuildingBlock: CEKHIL_clean_sbu_0, # of connection points: 4
#     Node 25, Type 0, BuildingBlock: CEKHIL_clean_sbu_0, # of connection points: 4
#     Node 26, Type 0, BuildingBlock: CEKHIL_clean_sbu_0, # of connection points: 4
#     Node 27, Type 0, BuildingBlock: CEKHIL_clean_sbu_0, # of connection points: 4
#     Node 28, Type 0, BuildingBlock: CEKHIL_clean_sbu_0, # of connection points: 4
#     Node 29, Type 0, BuildingBlock: CEKHIL_clean_sbu_0, # of connection points: 4
#     Node 30, Type 0, BuildingBlock: CEKHIL_clean_sbu_0, # of connection points: 4
#     Node 31, Type 0, BuildingBlock: CEKHIL_clean_sbu_0, # of connection points: 4
#     Edge 32, Type (0, 0), BuildingBlock: CIFDUS_clean_linker_0, # of connection points: 2
#     Edge 33, Type (0, 0), BuildingBlock: CIFDUS_clean_linker_0, # of connection points: 2
#     Edge 34, Type (0, 0), BuildingBlock: CIFDUS_clean_linker_0, # of connection points: 2
#     Edge 35, Type (0, 0), BuildingBlock: CIFDUS_clean_linker_0, # of connection points: 2
#     Edge 36, Type (0, 0), BuildingBlock: CIFDUS_clean_linker_0, # of connection points: 2
#     Edge 37, Type (0, 0), BuildingBlock: CIFDUS_clean_linker_0, # of connection points: 2
#     Edge 38, Type (0, 0), BuildingBlock: CIFDUS_clean_linker_0, # of connection points: 2
#     Edge 39, Type (0, 0), BuildingBlock: CIFDUS_clean_linker_0, # of connection points: 2
#     Edge 40, Type (0, 0), BuildingBlock: CIFDUS_clean_linker_0, # of connection points: 2
#     Edge 41, Type (0, 0), BuildingBlock: CIFDUS_clean_linker_0, # of connection points: 2
#     Edge 42, Type (0, 0), BuildingBlock: CIFDUS_clean_linker_0, # of connection points: 2
#     Edge 43, Type (0, 0), BuildingBlock: CIFDUS_clean_linker_0, # of connection points: 2
#     Edge 44, Type (0, 0), BuildingBlock: CIFDUS_clean_linker_0, # of connection points: 2
#     Edge 45, Type (0, 0), BuildingBlock: CIFDUS_clean_linker_0, # of connection points: 2
#     Edge 46, Type (0, 0), BuildingBlock: CIFDUS_clean_linker_0, # of connection points: 2
#     Edge 47, Type (0, 0), BuildingBlock: CIFDUS_clean_linker_0, # of connection points: 2
#     Edge 48, Type (0, 0), BuildingBlock: CIFDUS_clean_linker_0, # of connection points: 2
#     Edge 49, Type (0, 0), BuildingBlock: CIFDUS_clean_linker_0, # of connection points: 2
#     Edge 50, Type (0, 0), BuildingBlock: CIFDUS_clean_linker_0, # of connection points: 2
#     Edge 51, Type (0, 0), BuildingBlock: CIFDUS_clean_linker_0, # of connection points: 2
#     Edge 52, Type (0, 0), BuildingBlock: CIFDUS_clean_linker_0, # of connection points: 2
#     Edge 53, Type (0, 0), BuildingBlock: CIFDUS_clean_linker_0, # of connection points: 2
#     Edge 54, Type (0, 0), BuildingBlock: CIFDUS_clean_linker_0, # of connection points: 2
#     Edge 55, Type (0, 0), BuildingBlock: CIFDUS_clean_linker_0, # of connection points: 2
#     Edge 56, Type (0, 0), BuildingBlock: CIFDUS_clean_linker_0, # of connection points: 2
#     Edge 57, Type (0, 0), BuildingBlock: CIFDUS_clean_linker_0, # of connection points: 2
#     Edge 58, Type (0, 0), BuildingBlock: CIFDUS_clean_linker_0, # of connection points: 2
#     Edge 59, Type (0, 0), BuildingBlock: CIFDUS_clean_linker_0, # of connection points: 2
#     Edge 60, Type (0, 0), BuildingBlock: CIFDUS_clean_linker_0, # of connection points: 2
#     Edge 61, Type (0, 0), BuildingBlock: CIFDUS_clean_linker_0, # of connection points: 2
#     Edge 62, Type (0, 0), BuildingBlock: CIFDUS_clean_linker_0, # of connection points: 2
#     Edge 63, Type (0, 0), BuildingBlock: CIFDUS_clean_linker_0, # of connection points: 2
#     Edge 64, Type (0, 0), BuildingBlock: CIFDUS_clean_linker_0, # of connection points: 2
#     Edge 65, Type (0, 0), BuildingBlock: CIFDUS_clean_linker_0, # of connection points: 2
#     Edge 66, Type (0, 0), BuildingBlock: CIFDUS_clean_linker_0, # of connection points: 2
#     Edge 67, Type (0, 0), BuildingBlock: CIFDUS_clean_linker_0, # of connection points: 2
#     Edge 68, Type (0, 0), BuildingBlock: CIFDUS_clean_linker_0, # of connection points: 2
#     Edge 69, Type (0, 0), BuildingBlock: CIFDUS_clean_linker_0, # of connection points: 2
#     Edge 70, Type (0, 0), BuildingBlock: CIFDUS_clean_linker_0, # of connection points: 2
#     Edge 71, Type (0, 0), BuildingBlock: CIFDUS_clean_linker_0, # of connection points: 2
#     Edge 72, Type (0, 0), BuildingBlock: CIFDUS_clean_linker_0, # of connection points: 2
#     Edge 73, Type (0, 0), BuildingBlock: CIFDUS_clean_linker_0, # of connection points: 2
#     Edge 74, Type (0, 0), BuildingBlock: CIFDUS_clean_linker_0, # of connection points: 2
#     Edge 75, Type (0, 0), BuildingBlock: CIFDUS_clean_linker_0, # of connection points: 2
#     Edge 76, Type (0, 0), BuildingBlock: CIFDUS_clean_linker_0, # of connection points: 2
#     Edge 77, Type (0, 0), BuildingBlock: CIFDUS_clean_linker_0, # of connection points: 2
#     Edge 78, Type (0, 0), BuildingBlock: CIFDUS_clean_linker_0, # of connection points: 2
#     Edge 79, Type (0, 0), BuildingBlock: CIFDUS_clean_linker_0, # of connection points: 2
#     Edge 80, Type (0, 0), BuildingBlock: CIFDUS_clean_linker_0, # of connection points: 2
#     Edge 81, Type (0, 0), BuildingBlock: CIFDUS_clean_linker_0, # of connection points: 2
#     Edge 82, Type (0, 0), BuildingBlock: CIFDUS_clean_linker_0, # of connection points: 2
#     Edge 83, Type (0, 0), BuildingBlock: CIFDUS_clean_linker_0, # of connection points: 2
#     Edge 84, Type (0, 0), BuildingBlock: CIFDUS_clean_linker_0, # of connection points: 2
#     Edge 85, Type (0, 0), BuildingBlock: CIFDUS_clean_linker_0, # of connection points: 2
#     Edge 86, Type (0, 0), BuildingBlock: CIFDUS_clean_linker_0, # of connection points: 2
#     Edge 87, Type (0, 0), BuildingBlock: CIFDUS_clean_linker_0, # of connection points: 2
#     Edge 88, Type (0, 0), BuildingBlock: CIFDUS_clean_linker_0, # of connection points: 2
#     Edge 89, Type (0, 0), BuildingBlock: CIFDUS_clean_linker_0, # of connection points: 2
#     Edge 90, Type (0, 0), BuildingBlock: CIFDUS_clean_linker_0, # of connection points: 2
#     Edge 91, Type (0, 0), BuildingBlock: CIFDUS_clean_linker_0, # of connection points: 2
#     Edge 92, Type (0, 0), BuildingBlock: CIFDUS_clean_linker_0, # of connection points: 2
#     Edge 93, Type (0, 0), BuildingBlock: CIFDUS_clean_linker_0, # of connection points: 2
#     Edge 94, Type (0, 0), BuildingBlock: CIFDUS_clean_linker_0, # of connection points: 2
#     Edge 95, Type (0, 0), BuildingBlock: CIFDUS_clean_linker_0, # of connection points: 2
# Relax obj value: 0.128
# Max RMSD: 0.110
# Mean RMSD: 0.110
data_MOF--net-umv--node1-CEKHIL_clean_sbu_0--edge1-CIFDUS_clean_linker_0
_symmetry_space_group_name_H-M    P1
_symmetry_Int_Tables_number       1
_symmetry_cell_setting            triclinic
loop_
_symmetry_equiv_pos_as_xyz
'x, y, z'
_cell_length_a     91.219061
_cell_length_b     22.255863
_cell_length_c     50.657634
_cell_angle_alpha  90.001398
_cell_angle_beta   90.008707
_cell_angle_gamma 89.914238
loop_
_atom_site_label
_atom_site_type_symbol
_atom_site_fract_x
_atom_site_fract_y
_atom_site_fract_z
_atom_type_partial_charge
Co0 Co 0.06278 0.1106 0.32184 0.0
O1 O 0.04223 0.13167 0.31707 0.0
O2 O 0.05984 0.15345 0.28884 0.0
C3 C 0.05897 0.0158 0.3365 0.0
O4 O 0.08509 0.098 0.31915 0.0
Co5 Co 0.07609 0.07146 0.37635 0.0
O6 O 0.09391 0.05251 0.35555 0.0
C7 C 0.06638 0.19625 0.36655 0.0
C8 C 0.04607 0.15791 0.29521 0.0
C9 C 0.09561 0.07331 0.33233 0.0
O10 O 0.06584 0.18732 0.34146 0.0
O11 O 0.06873 0.15458 0.38345 0.0
O12 O 0.05902 0.02635 0.31115 0.0
O13 O 0.06042 0.06207 0.35121 0.0
Co14 Co 0.21183 0.12157 0.31922 0.0
O15 O 0.23252 0.10305 0.31469 0.0
O16 O 0.21514 0.07839 0.28644 0.0
C17 C 0.21496 0.2168 0.33357 0.0
O18 O 0.18942 0.13144 0.31651 0.0
Co19 Co 0.1983 0.15979 0.37371 0.0
O20 O 0.18031 0.17596 0.35294 0.0
C21 C 0.20916 0.03653 0.3642 0.0
C22 C 0.22892 0.07572 0.29297 0.0
C23 C 0.17875 0.1549 0.32974 0.0
O24 O 0.20936 0.04497 0.33908 0.0
O25 O 0.20654 0.07817 0.381 0.0
O26 O 0.21499 0.206 0.30824 0.0
O27 O 0.21381 0.17062 0.3484 0.0
Co28 Co 0.06303 0.126 0.93431 0.0
O29 O 0.04191 0.12108 0.93815 0.0
O30 O 0.05785 0.08464 0.96679 0.0
C31 C 0.06372 0.22219 0.91985 0.0
O32 O 0.08546 0.12091 0.93759 0.0
Co33 Co 0.07808 0.15343 0.87994 0.0
O34 O 0.09655 0.15431 0.90068 0.0
C35 C 0.06263 0.03927 0.88962 0.0
C36 C 0.04422 0.09051 0.95963 0.0
C37 C 0.09704 0.1345 0.92425 0.0
O38 O 0.06278 0.04857 0.91465 0.0
O39 O 0.06668 0.07838 0.87258 0.0
O40 O 0.06299 0.21162 0.94518 0.0
O41 O 0.06321 0.17572 0.90508 0.0
Co42 Co 0.21545 0.11098 0.94559 0.0
O43 O 0.23627 0.12386 0.95113 0.0
O44 O 0.21901 0.14562 0.98015 0.0
C45 C 0.21721 0.01822 0.92725 0.0
O46 O 0.19297 0.10611 0.94727 0.0
Co47 Co 0.20226 0.09156 0.88919 0.0
O48 O 0.18374 0.07491 0.9084 0.0
C49 C 0.21294 0.2109 0.90617 0.0
C50 C 0.23282 0.14759 0.97374 0.0
C51 C 0.18214 0.09006 0.93248 0.0
O52 O 0.2139 0.19315 0.9302 0.0
O53 O 0.20988 0.17596 0.88685 0.0
O54 O 0.21736 0.02412 0.95287 0.0
O55 O 0.21706 0.06764 0.91423 0.0
Co56 Co 0.96903 0.88533 0.68281 0.0
O57 O 0.98998 0.87105 0.6842 0.0
O58 O 0.97452 0.84438 0.71548 0.0
C59 C 0.97158 0.97948 0.66655 0.0
O60 O 0.94664 0.89034 0.68866 0.0
Co61 Co 0.95226 0.92178 0.63113 0.0
O62 O 0.93488 0.93198 0.65416 0.0
C63 C 0.96403 0.79881 0.6395 0.0
C64 C 0.98793 0.84457 0.70672 0.0
C65 C 0.93484 0.90947 0.67726 0.0
O66 O 0.96623 0.8074 0.66425 0.0
O67 O 0.95998 0.83946 0.62318 0.0
O68 O 0.97218 0.97122 0.69204 0.0
O69 O 0.96938 0.93247 0.65272 0.0
Co70 Co 0.81588 0.87284 0.69017 0.0
O71 O 0.79485 0.88574 0.69472 0.0
O72 O 0.81177 0.91507 0.72295 0.0
C73 C 0.81424 0.77674 0.67558 0.0
O74 O 0.83844 0.87068 0.69299 0.0
Co75 Co 0.83056 0.8384 0.6363 0.0
O76 O 0.84901 0.83103 0.65682 0.0
C77 C 0.81726 0.95806 0.64527 0.0
C78 C 0.79799 0.91432 0.71639 0.0
C79 C 0.84985 0.85288 0.68 0.0
O80 O 0.81706 0.94981 0.67039 0.0
O81 O 0.82075 0.91715 0.62862 0.0
O82 O 0.81407 0.78744 0.70093 0.0
O83 O 0.81486 0.82324 0.66084 0.0
Co84 Co 0.96958 0.85093 0.06788 0.0
O85 O 0.99065 0.85752 0.06432 0.0
O86 O 0.97479 0.88379 0.0335 0.0
C87 C 0.97019 0.75962 0.0876 0.0
O88 O 0.9471 0.85264 0.06403 0.0
Co89 Co 0.95416 0.83562 0.12259 0.0
O90 O 0.93583 0.82715 0.10193 0.0
C91 C 0.96883 0.94908 0.10728 0.0
C92 C 0.98837 0.88189 0.04139 0.0
C93 C 0.93543 0.84164 0.07763 0.0
O94 O 0.96909 0.93331 0.08293 0.0
O95 O 0.96479 0.91412 0.126 0.0
O96 O 0.97052 0.76281 0.06188 0.0
O97 O 0.96981 0.80989 0.09975 0.0
Co98 Co 0.81699 0.88256 0.05959 0.0
O99 O 0.79614 0.87055 0.05344 0.0
O100 O 0.81362 0.84767 0.02505 0.0
C101 C 0.81529 0.97573 0.07786 0.0
O102 O 0.8395 0.8852 0.05827 0.0
Co103 Co 0.83017 0.90167 0.11589 0.0
O104 O 0.84915 0.91259 0.09732 0.0
C105 C 0.81857 0.78345 0.09936 0.0
C106 C 0.79976 0.84608 0.03104 0.0
C107 C 0.85055 0.898 0.07314 0.0
O108 O 0.81805 0.80063 0.07522 0.0
O109 O 0.82172 0.81854 0.11859 0.0
O110 O 0.81538 0.96958 0.05224 0.0
O111 O 0.81535 0.92637 0.09094 0.0
Co112 Co 0.06487 0.60976 0.81411 0.0
O113 O 0.04367 0.61485 0.81137 0.0
O114 O 0.05908 0.65093 0.78185 0.0
C115 C 0.06559 0.51354 0.82855 0.0
O116 O 0.08727 0.61472 0.80958 0.0
Co117 Co 0.08113 0.58128 0.86721 0.0
O118 O 0.09908 0.5779 0.84512 0.0
C119 C 0.06531 0.69574 0.85893 0.0
C120 C 0.04558 0.64489 0.78964 0.0
C121 C 0.09913 0.59945 0.82183 0.0
O122 O 0.06493 0.68701 0.83386 0.0
O123 O 0.06988 0.65644 0.87548 0.0
O124 O 0.06454 0.52418 0.80327 0.0
O125 O 0.06554 0.56004 0.84335 0.0
Co126 Co 0.2176 0.64252 0.81165 0.0
O127 O 0.23872 0.63475 0.80999 0.0
O128 O 0.22368 0.60681 0.77821 0.0
C129 C 0.21745 0.73621 0.82946 0.0
O130 O 0.19521 0.64217 0.80628 0.0
Co131 Co 0.20135 0.66166 0.86546 0.0
O132 O 0.18379 0.67463 0.84305 0.0
C133 C 0.21403 0.54343 0.85131 0.0
C134 C 0.23705 0.60913 0.78716 0.0
C135 C 0.18352 0.65732 0.81908 0.0
O136 O 0.21633 0.56081 0.82753 0.0
O137 O 0.20944 0.57826 0.86969 0.0
O138 O 0.21883 0.72956 0.804 0.0
O139 O 0.21705 0.68719 0.84271 0.0
Co140 Co 0.06394 0.62961 0.44322 0.0
O141 O 0.04318 0.61059 0.44709 0.0
O142 O 0.06017 0.58756 0.47629 0.0
C143 C 0.06054 0.72451 0.4282 0.0
O144 O 0.08638 0.64048 0.44678 0.0
Co145 Co 0.07804 0.66752 0.38916 0.0
O146 O 0.09567 0.68519 0.41056 0.0
C147 C 0.06773 0.54345 0.39876 0.0
C148 C 0.04645 0.58479 0.46933 0.0
C149 C 0.09712 0.66432 0.43383 0.0
O150 O 0.0669 0.55244 0.42384 0.0
O151 O 0.07046 0.58491 0.38196 0.0
O152 O 0.06031 0.71422 0.45356 0.0
O153 O 0.06213 0.67805 0.41365 0.0
Co154 Co 0.21386 0.6035 0.43997 0.0
O155 O 0.23491 0.61492 0.44086 0.0
O156 O 0.21989 0.64559 0.47213 0.0
C157 C 0.21485 0.50779 0.42511 0.0
O158 O 0.19144 0.59976 0.44596 0.0
Co159 Co 0.19772 0.57135 0.38692 0.0
O160 O 0.18039 0.56047 0.41 0.0
C161 C 0.21092 0.6905 0.39572 0.0
C162 C 0.23324 0.64309 0.46307 0.0
C163 C 0.17997 0.58022 0.4336 0.0
O164 O 0.21174 0.68106 0.42072 0.0
O165 O 0.20722 0.65028 0.37894 0.0
O166 O 0.21621 0.51818 0.45035 0.0
O167 O 0.21368 0.55447 0.41059 0.0
Co168 Co 0.96339 0.37893 0.19899 0.0
O169 O 0.98442 0.37215 0.20487 0.0
O170 O 0.96744 0.35096 0.23446 0.0
C171 C 0.96331 0.46818 0.17743 0.0
O172 O 0.94087 0.37788 0.20086 0.0
Co173 Co 0.94992 0.38402 0.14193 0.0
O174 O 0.93093 0.39256 0.1606 0.0
C175 C 0.96479 0.27583 0.16223 0.0
C176 C 0.98125 0.35077 0.22809 0.0
C177 C 0.92973 0.38457 0.1854 0.0
O178 O 0.96341 0.29448 0.18605 0.0
O179 O 0.96167 0.30798 0.14203 0.0
O180 O 0.96391 0.46755 0.20317 0.0
O181 O 0.96402 0.4167 0.16627 0.0
Co182 Co 0.81117 0.35179 0.19352 0.0
O183 O 0.79025 0.36335 0.19898 0.0
O184 O 0.80744 0.38711 0.22782 0.0
C185 C 0.81017 0.25818 0.17552 0.0
O186 O 0.83362 0.34973 0.19554 0.0
Co187 Co 0.82471 0.33216 0.13737 0.0
O188 O 0.8436 0.32414 0.15649 0.0
C189 C 0.81348 0.45123 0.15369 0.0
C190 C 0.79364 0.38836 0.22138 0.0
C191 C 0.84478 0.33807 0.18079 0.0
O192 O 0.81228 0.43377 0.17772 0.0
O193 O 0.81681 0.41605 0.13458 0.0
O194 O 0.80983 0.26471 0.20111 0.0
O195 O 0.80998 0.30733 0.16232 0.0
Co196 Co 0.96014 0.36905 0.56173 0.0
O197 O 0.98062 0.39434 0.56063 0.0
O198 O 0.96575 0.39468 0.52639 0.0
C199 C 0.964 0.28618 0.58695 0.0
O200 O 0.93839 0.34844 0.55453 0.0
Co201 Co 0.94192 0.35182 0.61366 0.0
O202 O 0.9279 0.30924 0.59073 0.0
C203 C 0.94762 0.47324 0.59155 0.0
C204 C 0.97866 0.40712 0.53585 0.0
C205 C 0.92749 0.32299 0.5664 0.0
O206 O 0.95412 0.45254 0.57098 0.0
O207 O 0.9428 0.44107 0.61059 0.0
O208 O 0.96614 0.28362 0.56151 0.0
O209 O 0.96027 0.33776 0.59593 0.0
Co210 Co 0.81207 0.38949 0.56869 0.0
O211 O 0.79101 0.37692 0.56865 0.0
O212 O 0.80587 0.34701 0.53694 0.0
C213 C 0.81131 0.48538 0.58377 0.0
O214 O 0.83427 0.39341 0.56123 0.0
Co215 Co 0.82939 0.42182 0.62036 0.0
O216 O 0.84635 0.43155 0.59626 0.0
C217 C 0.81584 0.30289 0.61275 0.0
C218 C 0.79264 0.34819 0.54652 0.0
C219 C 0.84609 0.41206 0.57262 0.0
O220 O 0.81462 0.31199 0.58778 0.0
O221 O 0.81991 0.34328 0.62917 0.0
O222 O 0.80947 0.47501 0.55861 0.0
O223 O 0.81276 0.43861 0.59815 0.0
Co224 Co 0.56198 0.10161 0.8122 0.0
O225 O 0.54097 0.11465 0.81196 0.0
O226 O 0.55559 0.13789 0.77891 0.0
C227 C 0.56138 0.00837 0.83067 0.0
O228 O 0.58426 0.09526 0.80541 0.0
Co229 Co 0.57845 0.08224 0.86596 0.0
O230 O 0.59558 0.06596 0.84294 0.0
C231 C 0.56674 0.20115 0.85117 0.0
C232 C 0.54243 0.1393 0.7889 0.0
C233 C 0.59582 0.07923 0.81847 0.0
O234 O 0.5647 0.18355 0.82734 0.0
O235 O 0.5707 0.16608 0.86991 0.0
O236 O 0.55941 0.01463 0.80531 0.0
O237 O 0.56251 0.05774 0.84352 0.0
Co238 Co 0.71237 0.13762 0.80581 0.0
O239 O 0.73337 0.12392 0.80207 0.0
O240 O 0.71706 0.10631 0.77095 0.0
C241 C 0.71366 0.22827 0.82632 0.0
O242 O 0.68989 0.14466 0.80192 0.0
Co243 Co 0.69787 0.14976 0.86172 0.0
O244 O 0.67949 0.16237 0.84162 0.0
C245 C 0.70998 0.03442 0.84317 0.0
C246 C 0.73064 0.1027 0.77868 0.0
C247 C 0.67861 0.15486 0.81674 0.0
O248 O 0.71027 0.05377 0.81933 0.0
O249 O 0.70696 0.06777 0.86305 0.0
O250 O 0.71473 0.22535 0.80069 0.0
O251 O 0.71305 0.17756 0.83823 0.0
Co252 Co 0.56326 0.13585 0.44377 0.0
O253 O 0.5422 0.1246 0.44793 0.0
O254 O 0.55877 0.10143 0.478 0.0
C255 C 0.56236 0.2289 0.42529 0.0
O256 O 0.58573 0.13799 0.44723 0.0
Co257 Co 0.57803 0.15353 0.38871 0.0
O258 O 0.59642 0.16538 0.40905 0.0
C259 C 0.56544 0.03647 0.40431 0.0
C260 C 0.5451 0.10031 0.47069 0.0
C261 C 0.59717 0.15096 0.43334 0.0
O262 O 0.56457 0.05376 0.4284 0.0
O263 O 0.56916 0.07124 0.3853 0.0
O264 O 0.56164 0.22292 0.45088 0.0
O265 O 0.56264 0.17945 0.41227 0.0
Co266 Co 0.71602 0.10263 0.44469 0.0
O267 O 0.73715 0.10787 0.44785 0.0
O268 O 0.72162 0.13903 0.47828 0.0
C269 C 0.71557 0.00832 0.42729 0.0
O270 O 0.69354 0.10644 0.44842 0.0
Co271 Co 0.70091 0.08388 0.38974 0.0
O272 O 0.68259 0.07738 0.41065 0.0
C273 C 0.71407 0.20082 0.40424 0.0
C274 C 0.73515 0.13511 0.47024 0.0
C275 C 0.68199 0.09436 0.43464 0.0
O276 O 0.7157 0.1839 0.42827 0.0
O277 O 0.70973 0.16594 0.38571 0.0
O278 O 0.7164 0.01543 0.45282 0.0
O279 O 0.71584 0.05706 0.41387 0.0
Co280 Co 0.46093 0.88007 0.18999 0.0
O281 O 0.48169 0.86093 0.19394 0.0
O282 O 0.4645 0.83713 0.22269 0.0
C283 C 0.46402 0.97531 0.17532 0.0
O284 O 0.43859 0.89011 0.19371 0.0
Co285 Co 0.44654 0.91774 0.13624 0.0
O286 O 0.42877 0.93344 0.15764 0.0
C287 C 0.45791 0.79502 0.14525 0.0
C288 C 0.47821 0.83383 0.2158 0.0
C289 C 0.42764 0.91278 0.18098 0.0
O290 O 0.4582 0.80334 0.17037 0.0
O291 O 0.45498 0.83656 0.12858 0.0
O292 O 0.46437 0.96452 0.20065 0.0
O293 O 0.46256 0.92909 0.16057 0.0
Co294 Co 0.31204 0.8454 0.20068 0.0
O295 O 0.29123 0.85935 0.20608 0.0
O296 O 0.30845 0.88051 0.2352 0.0
C297 C 0.31017 0.75251 0.18249 0.0
O298 O 0.33452 0.83878 0.20244 0.0
Co299 Co 0.32496 0.82535 0.14402 0.0
O300 O 0.34347 0.80829 0.16315 0.0
C301 C 0.31475 0.94524 0.16111 0.0
C302 C 0.29465 0.88292 0.22872 0.0
C303 C 0.3452 0.8222 0.18735 0.0
O304 O 0.31381 0.92752 0.18515 0.0
O305 O 0.31758 0.91005 0.14175 0.0
O306 O 0.30993 0.75865 0.20809 0.0
O307 O 0.31034 0.80184 0.16941 0.0
Co308 Co 0.46262 0.85677 0.55844 0.0
O309 O 0.48306 0.87945 0.5549 0.0
O310 O 0.46652 0.89014 0.52352 0.0
C311 C 0.46748 0.76929 0.57936 0.0
O312 O 0.44038 0.84027 0.55472 0.0
Co313 Co 0.44823 0.83254 0.61371 0.0
O314 O 0.43081 0.80787 0.59321 0.0
C315 C 0.45801 0.95363 0.59695 0.0
C316 C 0.47992 0.89923 0.53148 0.0
C317 C 0.42957 0.82049 0.56879 0.0
O318 O 0.45836 0.938 0.57258 0.0
O319 O 0.45575 0.91681 0.61595 0.0
O320 O 0.46761 0.77068 0.5536 0.0
O321 O 0.46472 0.81912 0.5908 0.0
Co322 Co 0.31263 0.87832 0.56536 0.0
O323 O 0.29153 0.86784 0.56471 0.0
O324 O 0.30639 0.83693 0.53322 0.0
C325 C 0.31204 0.97404 0.58046 0.0
O326 O 0.33502 0.88102 0.5589 0.0
Co327 Co 0.32919 0.9089 0.61811 0.0
O328 O 0.34654 0.91772 0.59489 0.0
C329 C 0.31547 0.79073 0.6094 0.0
C330 C 0.29308 0.83979 0.54242 0.0
C331 C 0.34668 0.89886 0.57114 0.0
O332 O 0.31462 0.80032 0.58441 0.0
O333 O 0.31933 0.83073 0.62616 0.0
O334 O 0.31052 0.96394 0.55523 0.0
O335 O 0.31311 0.92714 0.59487 0.0
Co336 Co 0.56067 0.60554 0.30979 0.0
O337 O 0.53985 0.61273 0.30224 0.0
O338 O 0.55751 0.64089 0.2752 0.0
C339 C 0.56017 0.5114 0.32743 0.0
O340 O 0.58321 0.60794 0.31035 0.0
Co341 Co 0.57195 0.58816 0.3678 0.0
O342 O 0.59166 0.58871 0.35132 0.0
C343 C 0.56015 0.70491 0.35 0.0
C344 C 0.54354 0.63898 0.2803 0.0
C345 C 0.59377 0.60124 0.32707 0.0
O346 O 0.56026 0.68745 0.32586 0.0
O347 O 0.56288 0.6701 0.36953 0.0
O348 O 0.56064 0.5183 0.30187 0.0
O349 O 0.5589 0.56026 0.34061 0.0
Co350 Co 0.7124 0.63295 0.31102 0.0
O351 O 0.73322 0.61832 0.30596 0.0
O352 O 0.71607 0.59825 0.27651 0.0
C353 C 0.7143 0.72552 0.32965 0.0
O354 O 0.68997 0.63932 0.30869 0.0
Co355 Co 0.69898 0.65146 0.36728 0.0
O356 O 0.68043 0.66669 0.3479 0.0
C357 C 0.71 0.53297 0.35017 0.0
C358 C 0.72981 0.59472 0.2833 0.0
C359 C 0.679 0.65351 0.32355 0.0
O360 O 0.7105 0.55079 0.32614 0.0
O361 O 0.70714 0.56778 0.36965 0.0
O362 O 0.7147 0.71976 0.30403 0.0
O363 O 0.71389 0.67596 0.34256 0.0
Co364 Co 0.56661 0.63224 0.94626 0.0
O365 O 0.54578 0.62123 0.95287 0.0
O366 O 0.56338 0.59703 0.98081 0.0
C367 C 0.56501 0.7257 0.92828 0.0
O368 O 0.58913 0.63403 0.94698 0.0
Co369 Co 0.57932 0.65204 0.88959 0.0
O370 O 0.5984 0.6628 0.9078 0.0
C371 C 0.56801 0.53334 0.90626 0.0
C372 C 0.54948 0.59638 0.97514 0.0
C373 C 0.60003 0.64723 0.93182 0.0
O374 O 0.56739 0.55043 0.93041 0.0
O375 O 0.57112 0.56857 0.88706 0.0
O376 O 0.5653 0.71928 0.95388 0.0
O377 O 0.56481 0.6765 0.91511 0.0
Co378 Co 0.71886 0.60558 0.9379 0.0
O379 O 0.73971 0.61906 0.94363 0.0
O380 O 0.72227 0.64244 0.97202 0.0
C381 C 0.7208 0.51185 0.92068 0.0
O382 O 0.69638 0.60215 0.93987 0.0
Co383 Co 0.70516 0.58184 0.88242 0.0
O384 O 0.68624 0.5735 0.90144 0.0
C385 C 0.71617 0.7024 0.89709 0.0
C386 C 0.7361 0.64429 0.96587 0.0
C387 C 0.68514 0.58914 0.92553 0.0
O388 O 0.7174 0.68655 0.92134 0.0
O389 O 0.71282 0.66591 0.87847 0.0
O390 O 0.7208 0.51908 0.94623 0.0
O391 O 0.72047 0.56017 0.90694 0.0
Co392 Co 0.46397 0.38394 0.68974 0.0
O393 O 0.48488 0.36807 0.68814 0.0
O394 O 0.47139 0.35598 0.72383 0.0
C395 C 0.46467 0.47029 0.66577 0.0
O396 O 0.44199 0.39484 0.69885 0.0
Co397 Co 0.44503 0.39338 0.63795 0.0
O398 O 0.42926 0.41891 0.66207 0.0
C399 C 0.45864 0.2798 0.6553 0.0
C400 C 0.48412 0.34993 0.71245 0.0
C401 C 0.43001 0.4104 0.68688 0.0
O402 O 0.46025 0.29934 0.67894 0.0
O403 O 0.45441 0.31261 0.63601 0.0
O404 O 0.46758 0.47216 0.69099 0.0
O405 O 0.46237 0.41783 0.65651 0.0
Co406 Co 0.3148 0.36049 0.68721 0.0
O407 O 0.29384 0.37506 0.68687 0.0
O408 O 0.30864 0.40367 0.71887 0.0
C409 C 0.31334 0.26476 0.67238 0.0
O410 O 0.33696 0.35381 0.6949 0.0
Co411 Co 0.33202 0.32512 0.6358 0.0
O412 O 0.34856 0.31097 0.66038 0.0
C413 C 0.31923 0.44599 0.64289 0.0
C414 C 0.29544 0.40325 0.70911 0.0
C415 C 0.34854 0.33165 0.68383 0.0
O416 O 0.31784 0.43752 0.66789 0.0
O417 O 0.32321 0.40488 0.62672 0.0
O418 O 0.3116 0.27556 0.69751 0.0
O419 O 0.31522 0.31111 0.6579 0.0
Co420 Co 0.46774 0.36366 0.07002 0.0
O421 O 0.48857 0.37428 0.063 0.0
O422 O 0.47074 0.4053 0.03686 0.0
C423 C 0.4689 0.26741 0.08438 0.0
O424 O 0.44522 0.36374 0.06984 0.0
Co425 Co 0.4554 0.33273 0.12617 0.0
O426 O 0.43597 0.33148 0.10851 0.0
C427 C 0.46811 0.45144 0.11456 0.0
C428 C 0.48471 0.40339 0.04183 0.0
C429 C 0.43433 0.35011 0.08492 0.0
O430 O 0.46761 0.44127 0.08959 0.0
O431 O 0.46542 0.41158 0.13211 0.0
O432 O 0.46846 0.27823 0.05906 0.0
O433 O 0.46953 0.31388 0.09917 0.0
Co434 Co 0.31544 0.37719 0.06687 0.0
O435 O 0.29462 0.36416 0.06129 0.0
O436 O 0.31192 0.34194 0.03241 0.0
C437 C 0.31352 0.47024 0.0849 0.0
O438 O 0.33794 0.38203 0.0652 0.0
Co439 Co 0.32857 0.39749 0.1232 0.0
O440 O 0.3472 0.41265 0.10413 0.0
C441 C 0.31763 0.27824 0.10676 0.0
C442 C 0.2981 0.34009 0.03877 0.0
C443 C 0.3488 0.39749 0.08005 0.0
O444 O 0.31692 0.29537 0.08261 0.0
O445 O 0.32065 0.31361 0.12595 0.0
O446 O 0.31347 0.46394 0.0593 0.0
O447 O 0.31377 0.42103 0.09808 0.0
H448 H 0.11056 0.17317 0.31829 0.0
H449 H 0.11498 0.98141 0.32635 0.0
H450 H 0.14157 0.9894 0.32055 0.0
H451 H 0.16378 0.0525 0.32079 0.0
H452 H 0.15943 0.24507 0.31938 0.0
H453 H 0.13279 0.23581 0.3145 0.0
C454 C 0.11734 0.13308 0.31786 0.0
C455 C 0.11085 0.07667 0.32236 0.0
C456 C 0.13271 0.13852 0.31604 0.0
C457 C 0.11975 0.02516 0.32262 0.0
C458 C 0.13496 0.02983 0.3195 0.0
C459 C 0.157 0.09225 0.31847 0.0
C460 C 0.16352 0.14939 0.31997 0.0
C461 C 0.14162 0.08646 0.31725 0.0
C462 C 0.15463 0.2007 0.31787 0.0
C463 C 0.1394 0.19534 0.31532 0.0
H464 H 0.15882 0.01441 0.92919 0.0
H465 H 0.1713 0.19191 0.95439 0.0
H466 H 0.14549 0.22158 0.95701 0.0
H467 H 0.11951 0.20106 0.94503 0.0
H468 H 0.1071 0.02143 0.92279 0.0
H469 H 0.13258 0.98816 0.92651 0.0
C470 C 0.15583 0.0589 0.93611 0.0
C471 C 0.16692 0.10096 0.94151 0.0
C472 C 0.14095 0.07547 0.93778 0.0
C473 C 0.16295 0.15856 0.95039 0.0
C474 C 0.14818 0.17577 0.9516 0.0
C475 C 0.12237 0.15429 0.94189 0.0
C476 C 0.11151 0.11362 0.93366 0.0
C477 C 0.13709 0.13528 0.94434 0.0
C478 C 0.1153 0.05326 0.92938 0.0
C479 C 0.12988 0.03434 0.93129 0.0
H480 H 0.91087 0.97994 0.68775 0.0
H481 H 0.926 0.79654 0.68802 0.0
H482 H 0.90074 0.76074 0.69151 0.0
H483 H 0.87409 0.7819 0.68731 0.0
H484 H 0.859 0.96511 0.69143 0.0
H485 H 0.88433 0.00069 0.69391 0.0
C486 C 0.90864 0.93227 0.68958 0.0
C487 C 0.92031 0.89098 0.68769 0.0
C488 C 0.89403 0.91193 0.69203 0.0
C489 C 0.91725 0.82927 0.68983 0.0
C490 C 0.90276 0.80871 0.6915 0.0
C491 C 0.87637 0.82941 0.68967 0.0
C492 C 0.86468 0.87084 0.68915 0.0
C493 C 0.89102 0.84957 0.69161 0.0
C494 C 0.86779 0.93232 0.69208 0.0
C495 C 0.8823 0.95275 0.69322 0.0
H496 H 0.91163 0.77123 0.06679 0.0
H497 H 0.92664 0.95454 0.06717 0.0
H498 H 0.90138 0.99056 0.0631 0.0
H499 H 0.87472 0.96942 0.06659 0.0
H500 H 0.85981 0.78622 0.06206 0.0
H501 H 0.88517 0.75056 0.06012 0.0
C502 C 0.90936 0.81892 0.065 0.0
C503 C 0.92095 0.86022 0.06722 0.0
C504 C 0.89478 0.83933 0.06226 0.0
C505 C 0.9179 0.92195 0.06517 0.0
C506 C 0.90343 0.94259 0.06312 0.0
C507 C 0.87706 0.92193 0.06425 0.0
C508 C 0.86545 0.88046 0.06446 0.0
C509 C 0.89173 0.90174 0.06266 0.0
C510 C 0.86859 0.81897 0.06163 0.0
C511 C 0.8831 0.7985 0.06078 0.0
H512 H 0.12291 0.53111 0.80836 0.0
H513 H 0.10767 0.71384 0.81422 0.0
H514 H 0.13284 0.75062 0.81043 0.0
H515 H 0.15948 0.72921 0.81315 0.0
H516 H 0.17469 0.5473 0.80342 0.0
H517 H 0.14937 0.51176 0.80039 0.0
C518 C 0.1251 0.57898 0.80782 0.0
C519 C 0.11349 0.61977 0.81159 0.0
C520 C 0.13964 0.5999 0.80521 0.0
C521 C 0.11643 0.68169 0.81107 0.0
C522 C 0.13085 0.70272 0.80916 0.0
C523 C 0.15722 0.68218 0.80931 0.0
C524 C 0.16892 0.64092 0.8085 0.0
C525 C 0.1426 0.66213 0.80728 0.0
C526 C 0.16587 0.57999 0.80376 0.0
C527 C 0.15138 0.55954 0.80236 0.0
H528 H 0.11211 0.56453 0.449 0.0
H529 H 0.11655 0.7558 0.43922 0.0
H530 H 0.14317 0.74751 0.4441 0.0
H531 H 0.16536 0.68388 0.44301 0.0
H532 H 0.16095 0.49164 0.44707 0.0
H533 H 0.1344 0.50176 0.45304 0.0
C534 C 0.11889 0.60452 0.44896 0.0
C535 C 0.11235 0.66085 0.44413 0.0
C536 C 0.13431 0.5989 0.45038 0.0
C537 C 0.12131 0.71212 0.44323 0.0
C538 C 0.13656 0.70727 0.44579 0.0
C539 C 0.15862 0.64447 0.4463 0.0
C540 C 0.16512 0.58712 0.44517 0.0
C541 C 0.14324 0.65066 0.44827 0.0
C542 C 0.15621 0.53622 0.44841 0.0
C543 C 0.14101 0.54205 0.45152 0.0
H544 H 0.9063 0.45948 0.18444 0.0
H545 H 0.91969 0.28098 0.20664 0.0
H546 H 0.89399 0.24993 0.21005 0.0
H547 H 0.86775 0.27023 0.19952 0.0
H548 H 0.85461 0.45082 0.18001 0.0
H549 H 0.88001 0.48478 0.18312 0.0
C550 C 0.90354 0.41447 0.19097 0.0
C551 C 0.9148 0.37258 0.19534 0.0
C552 C 0.88875 0.39712 0.19299 0.0
C553 C 0.91116 0.31416 0.20352 0.0
C554 C 0.89646 0.29622 0.20516 0.0
C555 C 0.87046 0.31726 0.19682 0.0
C556 C 0.85941 0.35809 0.18952 0.0
C557 C 0.88515 0.3367 0.19891 0.0
C558 C 0.86299 0.41884 0.18582 0.0
C559 C 0.87751 0.4382 0.18742 0.0
H560 H 0.91319 0.42187 0.55 0.0
H561 H 0.90811 0.23103 0.56014 0.0
H562 H 0.88143 0.24147 0.55711 0.0
H563 H 0.85969 0.30729 0.56106 0.0
H564 H 0.86515 0.4992 0.55765 0.0
H565 H 0.89131 0.48658 0.54823 0.0
C566 C 0.90624 0.38233 0.55027 0.0
C567 C 0.91261 0.32557 0.55476 0.0
C568 C 0.89087 0.38936 0.55035 0.0
C569 C 0.90347 0.27494 0.55616 0.0
C570 C 0.88819 0.28111 0.55481 0.0
C571 C 0.86654 0.34611 0.5572 0.0
C572 C 0.8605 0.40411 0.55961 0.0
C573 C 0.88175 0.33841 0.55327 0.0
C574 C 0.86954 0.45422 0.55549 0.0
C575 C 0.88452 0.44693 0.55033 0.0
H576 H 0.66338 0.05514 0.80391 0.0
H577 H 0.65994 0.24778 0.80783 0.0
H578 H 0.63326 0.24132 0.80276 0.0
H579 H 0.61076 0.1799 0.80574 0.0
H580 H 0.61428 0.98708 0.80714 0.0
H581 H 0.64086 0.99395 0.80103 0.0
C582 C 0.6568 0.09567 0.80256 0.0
C583 C 0.6636 0.15196 0.8057 0.0
C584 C 0.64138 0.09127 0.80096 0.0
C585 C 0.65495 0.20413 0.80491 0.0
C586 C 0.63968 0.20032 0.8023 0.0
C587 C 0.61732 0.13949 0.80356 0.0
C588 C 0.61056 0.08299 0.80634 0.0
C589 C 0.63271 0.14404 0.80145 0.0
C590 C 0.61921 0.03093 0.80451 0.0
C591 C 0.63444 0.03495 0.80133 0.0
H592 H 0.65816 0.02717 0.44918 0.0
H593 H 0.67312 0.20894 0.43846 0.0
H594 H 0.64783 0.24554 0.43974 0.0
H595 H 0.62127 0.22331 0.43674 0.0
H596 H 0.60624 0.04307 0.4514 0.0
H597 H 0.63158 0.00847 0.45628 0.0
C598 C 0.65587 0.07494 0.44818 0.0
C599 C 0.66746 0.11539 0.44387 0.0
C600 C 0.64124 0.09585 0.44928 0.0
C601 C 0.66437 0.17713 0.44218 0.0
C602 C 0.64989 0.19802 0.44262 0.0
C603 C 0.62357 0.17695 0.44191 0.0
C604 C 0.61192 0.13577 0.44368 0.0
C605 C 0.6382 0.15754 0.44514 0.0
C606 C 0.61502 0.07571 0.45023 0.0
C607 C 0.62953 0.05577 0.45276 0.0
H608 H 0.35963 0.92533 0.19663 0.0
H609 H 0.36519 0.73329 0.19571 0.0
H610 H 0.39185 0.74518 0.19908 0.0
H611 H 0.4136 0.81051 0.19469 0.0
H612 H 0.40781 0.00211 0.18906 0.0
H613 H 0.3814 0.99083 0.19629 0.0
C614 C 0.3667 0.88622 0.19815 0.0
C615 C 0.36051 0.8285 0.19649 0.0
C616 C 0.38204 0.89364 0.19852 0.0
C617 C 0.36974 0.77805 0.19747 0.0
C618 C 0.38498 0.78494 0.19913 0.0
C619 C 0.40658 0.84978 0.19597 0.0
C620 C 0.41262 0.90716 0.19175 0.0
C621 C 0.39129 0.84252 0.19863 0.0
C622 C 0.40339 0.95766 0.19258 0.0
C623 C 0.38829 0.95111 0.19651 0.0
H624 H 0.36153 0.7952 0.56306 0.0
H625 H 0.36513 0.98706 0.55489 0.0
H626 H 0.39158 0.97781 0.54746 0.0
H627 H 0.41415 0.91686 0.55158 0.0
H628 H 0.41066 0.7266 0.56542 0.0
H629 H 0.38393 0.73273 0.56175 0.0
C630 C 0.36806 0.83461 0.55859 0.0
C631 C 0.36136 0.89166 0.55898 0.0
C632 C 0.38341 0.82905 0.5557 0.0
C633 C 0.37 0.94266 0.55415 0.0
C634 C 0.38516 0.93735 0.55018 0.0
C635 C 0.40754 0.87646 0.55267 0.0
C636 C 0.41438 0.82111 0.55827 0.0
C637 C 0.39208 0.88103 0.55201 0.0
C638 C 0.40566 0.76943 0.56064 0.0
C639 C 0.39035 0.77311 0.55884 0.0
H640 H 0.65526 0.72315 0.33349 0.0
H641 H 0.6686 0.562 0.29298 0.0
H642 H 0.64288 0.53257 0.28752 0.0
H643 H 0.61662 0.54599 0.30054 0.0
H644 H 0.60386 0.70914 0.34023 0.0
H645 H 0.62913 0.74483 0.3394 0.0
C646 C 0.65251 0.68247 0.32279 0.0
C647 C 0.6638 0.64473 0.31379 0.0
C648 C 0.63773 0.66578 0.31987 0.0
C649 C 0.66009 0.59214 0.29991 0.0
C650 C 0.64537 0.57494 0.29705 0.0
C651 C 0.61938 0.58996 0.30828 0.0
C652 C 0.60846 0.62493 0.32054 0.0
C653 C 0.63408 0.61031 0.30784 0.0
C654 C 0.61214 0.68161 0.33072 0.0
C655 C 0.62659 0.70193 0.33036 0.0
H656 H 0.66134 0.52125 0.94033 0.0
H657 H 0.67608 0.70317 0.92893 0.0
H658 H 0.6509 0.74 0.93255 0.0
H659 H 0.62431 0.71853 0.93261 0.0
H660 H 0.60952 0.53829 0.94799 0.0
H661 H 0.63492 0.50282 0.94971 0.0
C662 C 0.65903 0.56902 0.93947 0.0
C663 C 0.6705 0.60953 0.93436 0.0
C664 C 0.64447 0.59013 0.94206 0.0
C665 C 0.6674 0.67131 0.93308 0.0
C666 C 0.65299 0.69236 0.93495 0.0
C667 C 0.62671 0.67193 0.93721 0.0
C668 C 0.61509 0.63109 0.94017 0.0
C669 C 0.64138 0.65201 0.93856 0.0
C670 C 0.6183 0.5707 0.94596 0.0
C671 C 0.63284 0.55026 0.94665 0.0
H672 H 0.36284 0.4332 0.69824 0.0
H673 H 0.3671 0.24061 0.696 0.0
H674 H 0.39345 0.24879 0.70421 0.0
H675 H 0.4157 0.31102 0.70222 0.0
H676 H 0.41172 0.50342 0.69823 0.0
H677 H 0.38507 0.49574 0.70302 0.0
C678 C 0.36948 0.39311 0.70068 0.0
C679 C 0.36303 0.33631 0.69685 0.0
C680 C 0.3848 0.39843 0.70396 0.0
C681 C 0.37181 0.28468 0.69919 0.0
C682 C 0.3869 0.28944 0.70365 0.0
C683 C 0.40903 0.35127 0.70377 0.0
C684 C 0.41568 0.40779 0.70046 0.0
C685 C 0.39363 0.34611 0.70476 0.0
C686 C 0.40688 0.45958 0.70138 0.0
C687 C 0.3916 0.45505 0.70369 0.0
H688 H 0.37234 0.47052 0.08654 0.0
H689 H 0.3595 0.29934 0.05445 0.0
H690 H 0.38528 0.26954 0.05057 0.0
H691 H 0.41145 0.2873 0.06263 0.0
H692 H 0.424 0.46101 0.09248 0.0
H693 H 0.39854 0.49503 0.0906 0.0
C694 C 0.37523 0.42744 0.07795 0.0
C695 C 0.36405 0.38715 0.07088 0.0
C696 C 0.39008 0.41076 0.0757 0.0
C697 C 0.36792 0.33141 0.05979 0.0
C698 C 0.38267 0.31407 0.05786 0.0
C699 C 0.4086 0.33301 0.06798 0.0
C700 C 0.41952 0.3717 0.07775 0.0
C701 C 0.39385 0.35255 0.06666 0.0
C702 C 0.41574 0.4307 0.08482 0.0
C703 C 0.40118 0.45006 0.08389 0.0
H704 H 0.0183 0.19353 0.3086 0.0
H705 H 0.05027 0.20639 0.24615 0.0
H706 H 0.03356 0.26978 0.22061 0.0
H707 H 1.00961 0.32078 0.21555 0.0
H708 H 0.97774 0.30801 0.27821 0.0
H709 H 0.99466 0.24653 0.30406 0.0
C710 C 0.0216 0.20992 0.28935 0.0
C711 C 0.03555 0.19461 0.27931 0.0
C712 C 1.01197 0.24712 0.27482 0.0
C713 C 0.03963 0.21704 0.2544 0.0
C714 C 0.03007 0.25356 0.23977 0.0
C715 C 1.00643 0.30528 0.23502 0.0
C716 C 0.99238 0.31954 0.24489 0.0
C717 C 0.0162 0.26904 0.24976 0.0
C718 C 0.98846 0.29821 0.27007 0.0
C719 C 0.99813 0.26264 0.28487 0.0
H720 H 0.25722 0.04702 0.30619 0.0
H721 H 0.22484 0.02123 0.24516 0.0
H722 H 0.24193 0.95761 0.22063 0.0
H723 H 0.26616 0.90925 0.21623 0.0
H724 H 0.29857 0.93487 0.2772 0.0
H725 H 0.2814 -0.00234 0.302 0.0
C726 C 0.25392 0.02781 0.28744 0.0
C727 C 0.23973 0.03944 0.27752 0.0
C728 C 0.2638 0.99057 0.27347 0.0
C729 C 0.23566 0.01347 0.25329 0.0
C730 C 0.24544 0.97681 0.23925 0.0
C731 C 0.26945 0.92806 0.23507 0.0
C732 C 0.28369 0.91685 0.24483 0.0
C733 C 0.25953 0.96484 0.24916 0.0
C734 C 0.28771 0.94228 0.2692 0.0
C735 C 0.27789 0.97852 0.28337 0.0
H736 H 0.04623 0.00688 0.99911 0.0
H737 H 0.01478 0.09998 0.95035 0.0
H738 H 0.99489 0.04168 0.96997 0.0
H739 H 0.98627 0.96378 1.00111 0.0
H740 H 0.01776 0.87137 0.05002 0.0
H741 H 0.03765 0.92894 0.03006 0.0
C742 C 0.03501 0.01486 0.99293 0.0
C743 C 0.03206 0.05828 0.97335 0.0
C744 C 0.02358 0.98055 0.00413 0.0
C745 C 0.01743 0.06727 0.96545 0.0
C746 C 1.00601 0.03364 0.97659 0.0
C747 C 0.9975 0.95566 0.00715 0.0
C748 C 1.00047 0.91274 0.02694 0.0
C749 C 1.00894 0.98984 0.99585 0.0
C750 C 0.01511 0.90371 0.03477 0.0
C751 C 0.02652 0.93693 0.02343 0.0
H752 H 0.26096 0.17761 0.96055 0.0
H753 H 0.22906 0.19609 0.02289 0.0
H754 H 0.24606 0.25909 0.04786 0.0
H755 H 0.26998 0.30994 0.05198 0.0
H756 H 0.30188 0.29144 0.98965 0.0
H757 H 0.28488 0.22841 0.96469 0.0
C758 C 0.25776 0.1949 0.97972 0.0
C759 C 0.24372 0.18156 0.98985 0.0
C760 C 0.26756 0.23191 0.99389 0.0
C761 C 0.23978 0.20514 0.01461 0.0
C762 C 0.24949 0.24152 0.02888 0.0
C763 C 0.27318 0.29263 0.03282 0.0
C764 C 0.28721 0.30598 0.02269 0.0
C765 C 0.26338 0.2556 0.01866 0.0
C766 C 0.29116 0.28237 0.99793 0.0
C767 C 0.28145 0.24598 0.98366 0.0
H768 H 0.9866 0.7659 0.74858 0.0
H769 H 0.01707 0.85125 0.69539 0.0
H770 H 0.03735 0.79622 0.71546 0.0
H771 H 0.04665 0.72317 0.74798 0.0
H772 H 0.01633 0.63708 0.80117 0.0
H773 H 0.99596 0.69223 0.7812 0.0
C774 C 0.99769 0.77277 0.74151 0.0
C775 C 1.00023 0.81305 0.72049 0.0
C776 C 1.0094 0.74023 0.75301 0.0
C777 C 0.01471 0.82078 0.71151 0.0
C778 C 0.02636 0.7891 0.72295 0.0
C779 C 0.03558 0.71604 0.75508 0.0
C780 C 0.0331 0.67554 0.77602 0.0
C781 C 0.02386 0.74841 0.74361 0.0
C782 C 0.01863 0.66757 0.78504 0.0
C783 C 1.00693 0.69937 0.77367 0.0
H784 H 0.75886 0.07466 0.79296 0.0
H785 H 0.72792 0.05431 0.72922 0.0
H786 H 0.74559 0.99294 0.70488 0.0
H787 H 0.76985 0.94343 0.70172 0.0
H788 H 0.80086 0.96479 0.7653 0.0
H789 H 0.78321 0.02635 0.78956 0.0
C790 C 0.75601 0.05732 0.77363 0.0
C791 C 0.74201 0.06967 0.76298 0.0
C792 C 0.76624 0.02139 0.75974 0.0
C793 C 0.73857 0.04608 0.73796 0.0
C794 C 0.74868 0.01059 0.72403 0.0
C795 C 0.77272 0.96114 0.72097 0.0
C796 C 0.78671 0.94883 0.73167 0.0
C797 C 0.76252 -0.00251 0.73477 0.0
C798 C 0.79021 0.97306 0.75654 0.0
C799 C 0.78011 0.00857 0.77044 0.0
H800 H 0.76399 0.67874 0.95256 0.0
H801 H 0.73201 0.69196 0.01502 0.0
H802 H 0.74839 0.75759 0.03997 0.0
H803 H 0.77183 0.81217 0.04415 0.0
H804 H 0.80383 0.79896 0.98174 0.0
H805 H 0.78742 0.73353 0.95672 0.0
C806 C 0.76065 0.69544 0.97176 0.0
C807 C 0.74677 0.6798 0.98191 0.0
C808 C 0.7701 0.73407 0.98594 0.0
C809 C 0.74262 0.70275 0.0067 0.0
C810 C 0.75198 0.74065 0.02098 0.0
C811 C 0.77516 0.79557 0.02494 0.0
C812 C 0.78907 0.81111 0.01483 0.0
C813 C 0.76571 0.75704 0.01074 0.0
C814 C 0.79321 0.78826 0.99002 0.0
C815 C 0.78383 0.75046 0.97571 0.0
H816 H 0.23639 0.53128 0.7451 0.0
H817 H 0.26606 0.61618 0.79987 0.0
H818 H 0.28655 0.55942 0.78141 0.0
H819 H 0.29618 0.48385 0.75014 0.0
H820 H 0.26654 0.39899 0.69532 0.0
H821 H 0.24609 0.45671 0.7134 0.0
C822 C 0.24736 0.5379 0.7528 0.0
C823 C 0.24961 0.57841 0.77383 0.0
C824 C 0.25917 0.50438 0.74224 0.0
C825 C 0.26393 0.58564 0.78367 0.0
C826 C 0.2757 0.55291 0.77318 0.0
C827 C 0.28524 0.47767 0.74225 0.0
C828 C 0.28297 0.43663 0.72145 0.0
C829 C 0.27346 0.51167 0.75261 0.0
C830 C 0.26867 0.42993 0.71137 0.0
C831 C 0.25693 0.46316 0.72166 0.0
H832 H 0.01859 0.5521 0.45493 0.0
H833 H 0.04918 0.54125 0.51967 0.0
H834 H 0.03125 0.48491 0.54566 0.0
H835 H 1.0067 0.43867 0.55029 0.0
H836 H 0.97641 0.44741 0.485 0.0
H837 H 0.99432 0.50379 0.45914 0.0
C838 C 0.02133 0.53766 0.47477 0.0
C839 C 0.03527 0.55151 0.4853 0.0
C840 C 1.01099 0.50436 0.48957 0.0
C841 C 0.03859 0.53162 0.51099 0.0
C842 C 0.02832 0.49921 0.5259 0.0
C843 C 1.00403 0.45257 0.53035 0.0
C844 C 0.99012 0.43845 0.51972 0.0
C845 C 0.01446 0.48518 0.51543 0.0
C846 C 0.98696 0.45719 0.49379 0.0
C847 C 0.99722 0.48975 0.47895 0.0
H848 H 0.23304 0.72173 0.50509 0.0
H849 H 0.26213 0.6351 0.44974 0.0
H850 H 0.28297 0.68893 0.4684 0.0
H851 H 0.2932 0.7614 0.50044 0.0
H852 H 0.26417 0.84803 0.55587 0.0
H853 H 0.24329 0.79429 0.53719 0.0
C854 C 0.24395 0.71429 0.49723 0.0
C855 C 0.24592 0.67398 0.47603 0.0
C856 C 0.256 0.74601 0.50798 0.0
C857 C 0.26019 0.66556 0.46605 0.0
C858 C 0.27217 0.69656 0.47669 0.0
C859 C 0.28229 0.76889 0.50831 0.0
C860 C 0.28035 0.80916 0.52953 0.0
C861 C 0.27024 0.7372 0.49758 0.0
C862 C 0.26608 0.8176 0.53954 0.0
C863 C 0.25408 0.78664 0.5289 0.0
H864 H 0.76604 0.42397 0.20683 0.0
H865 H 0.79709 0.43497 0.27088 0.0
H866 H 0.78054 0.50168 0.29501 0.0
H867 H 0.7573 0.55824 0.2979 0.0
H868 H 0.72625 0.54752 0.23386 0.0
H869 H 0.74275 0.48046 0.20977 0.0
C870 C 0.76912 0.44034 0.22621 0.0
C871 C 0.7828 0.42383 0.23705 0.0
C872 C 0.7596 0.47968 0.23989 0.0
C873 C 0.78663 0.44642 0.26206 0.0
C874 C 0.77719 0.48495 0.27585 0.0
C875 C 0.7542 0.5418 0.27855 0.0
C876 C 0.74054 0.55855 0.26768 0.0
C877 C 0.76369 0.50238 0.26489 0.0
C878 C 0.73669 0.53591 0.2427 0.0
C879 C 0.74611 0.49718 0.22893 0.0
H880 H 0.79381 0.26306 0.50742 0.0
H881 H 0.7635 0.3552 0.55876 0.0
H882 H 0.74324 0.29583 0.54104 0.0
H883 H 0.73392 0.21767 0.51059 0.0
H884 H 0.76435 0.12525 0.45954 0.0
H885 H 0.7846 0.18377 0.47767 0.0
C886 C 0.78276 0.27052 0.5146 0.0
C887 C 0.78024 0.31414 0.5343 0.0
C888 C 0.77111 0.23545 0.50454 0.0
C889 C 0.76582 0.32234 0.54354 0.0
C890 C 0.75419 0.28813 0.53347 0.0
C891 C 0.745 0.20976 0.50367 0.0
C892 C 0.74753 0.16661 0.48375 0.0
C893 C 0.75668 0.24433 0.51401 0.0
C894 C 0.762 0.15778 0.47488 0.0
C895 C 0.77363 0.19155 0.48517 0.0
H896 H 0.48392 0.27603 0.7559 0.0
H897 H 0.51271 0.34898 0.69655 0.0
H898 H 0.53306 0.28933 0.7139 0.0
H899 H 0.54283 0.2149 0.74578 0.0
H900 H 0.51385 0.14095 0.80465 0.0
H901 H 0.49363 0.2014 0.78757 0.0
C902 C 0.49469 0.27947 0.74696 0.0
C903 C 0.49673 0.31763 0.72503 0.0
C904 C 0.50637 0.24394 0.75678 0.0
C905 C 0.51076 0.32045 0.71351 0.0
C906 C 0.52244 0.28601 0.72336 0.0
C907 C 0.53206 0.21153 0.75471 0.0
C908 C 0.52995 0.17282 0.77646 0.0
C909 C 0.52038 0.24711 0.74487 0.0
C910 C 0.51588 0.16989 0.78786 0.0
C911 C 0.50427 0.2048 0.77816 0.0
H912 H 0.50705 0.93698 0.54698 0.0
H913 H 0.4769 0.9456 0.4815 0.0
H914 H 0.49391 0.01084 0.45752 0.0
H915 H 0.51754 0.06563 0.45502 0.0
H916 H 0.54755 0.05599 0.52072 0.0
H917 H 0.53039 0.99197 0.5447 0.0
C918 C 0.50421 0.95271 0.52738 0.0
C919 C 0.49069 0.93577 0.51605 0.0
C920 C 0.514 0.99081 0.51378 0.0
C921 C 0.48722 0.95736 0.4907 0.0
C922 C 0.49694 0.99501 0.477 0.0
C923 C 0.52025 0.05013 0.47471 0.0
C924 C 0.53385 0.06623 0.48605 0.0
C925 C 0.51036 0.01231 0.48836 0.0
C926 C 0.5372 0.04481 0.51148 0.0
C927 C 0.52739 0.00784 0.52521 0.0
H928 H 0.50657 0.80469 0.20265 0.0
H929 H 0.47397 0.7783 0.26324 0.0
H930 H 0.49082 0.71338 0.28756 0.0
H931 H 0.51493 0.66429 0.29207 0.0
H932 H 0.54773 0.69125 0.23194 0.0
H933 H 0.53071 0.75467 0.20703 0.0
C934 C 0.50317 0.78505 0.22126 0.0
C935 C 0.48898 0.79692 0.23109 0.0
C936 C 0.51294 0.74712 0.23518 0.0
C937 C 0.4848 0.77042 0.25516 0.0
C938 C 0.49443 0.73297 0.26909 0.0
C939 C 0.51832 0.68339 0.27335 0.0
C940 C 0.53262 0.67239 0.26387 0.0
C941 C 0.50853 0.72079 0.25929 0.0
C942 C 0.5368 0.69843 0.23971 0.0
C943 C 0.52708 0.73507 0.22548 0.0
H944 H 0.5133 0.43038 0.05355 0.0
H945 H 0.4801 0.45685 0.994 0.0
H946 H 0.4968 0.5207 0.96886 0.0
H947 H 0.52087 0.56985 0.96366 0.0
H948 H 0.55405 0.54393 0.02328 0.0
H949 H 0.53734 0.48012 0.04848 0.0
C950 C 0.50975 0.44963 0.03495 0.0
C951 C 0.49544 0.43824 0.02566 0.0
C952 C 0.51939 0.48725 0.02068 0.0
C953 C 0.49104 0.4644 1.00164 0.0
C954 C 0.50058 0.50125 0.98726 0.0
C955 C 0.52441 0.5508 0.98231 0.0
C956 C 0.53873 0.56226 0.99157 0.0
C957 C 0.51476 0.51337 0.99663 0.0
C958 C 0.54311 0.5364 0.01567 0.0
C959 C 0.53356 0.49952 0.03007 0.0
H960 H 0.06442 0.44129 0.42718 0.0
H961 H 0.06659 0.50854 0.34719 0.0
H962 H 0.06521 0.40666 0.33014 0.0
H963 H 0.06518 0.29878 0.33793 0.0
H964 H 0.06367 0.23131 0.41791 0.0
H965 H 0.06288 0.33348 0.43488 0.0
C966 C 0.06451 0.43376 0.40602 0.0
C967 C 0.06583 0.48226 0.38855 0.0
C968 C 0.06389 0.37517 0.3963 0.0
C969 C 0.06577 0.47182 0.36115 0.0
C970 C 0.06497 0.41363 0.35132 0.0
C971 C 0.06457 0.30634 0.35906 0.0
C972 C 0.06471 0.25768 0.3766 0.0
C973 C 0.06432 0.365 0.36874 0.0
C974 C 0.06379 0.26816 0.40395 0.0
C975 C 0.06332 0.3265 0.41371 0.0
H976 H 0.21267 0.79211 0.42461 0.0
H977 H 0.2149 0.72528 0.3446 0.0
H978 H 0.21595 0.82775 0.32784 0.0
H979 H 0.21371 0.9353 0.33572 0.0
H980 H 0.21041 0.00158 0.41576 0.0
H981 H 0.21242 0.89972 0.43266 0.0
C982 C 0.21356 0.79987 0.40352 0.0
C983 C 0.21342 0.75146 0.38585 0.0
C984 C 0.21383 0.85857 0.394 0.0
C985 C 0.21472 0.76208 0.35859 0.0
C986 C 0.21533 0.82053 0.34897 0.0
C987 C 0.21352 0.92759 0.35687 0.0
C988 C 0.21162 0.97571 0.37439 0.0
C989 C 0.21444 0.86901 0.36648 0.0
C990 C 0.21163 0.96511 0.40177 0.0
C991 C 0.2128 0.90695 0.4115 0.0
H992 H 0.05933 0.93879 0.91893 0.0
H993 H 0.05763 0.00469 0.83872 0.0
H994 H 0.05606 0.90211 0.82225 0.0
H995 H 0.05893 0.79501 0.83036 0.0
H996 H 0.06233 0.72946 0.91047 0.0
H997 H 0.05927 0.83118 0.92725 0.0
C998 C 0.05838 0.93086 0.89786 0.0
C999 C 0.05898 0.97898 0.88003 0.0
C1000 C 0.05794 0.872 0.8885 0.0
C1001 C 0.0575 0.96812 0.85283 0.0
C1002 C 0.05661 0.90958 0.84338 0.0
C1003 C 0.05881 0.80275 0.8515 0.0
C1004 C 0.06124 0.75515 0.86911 0.0
C1005 C 0.05745 0.86128 0.861 0.0
C1006 C 0.0608 0.76571 0.89646 0.0
C1007 C 0.05904 0.82377 0.9061 0.0
H1008 H 0.21453 0.49201 0.89974 0.0
H1009 H 0.21818 0.4512 0.81657 0.0
H1010 H 0.21913 0.34423 0.82657 0.0
H1011 H 0.2171 0.26269 0.85848 0.0
H1012 H 0.21326 0.30331 0.94162 0.0
H1013 H 0.21433 0.41049 0.93194 0.0
C1014 C 0.21561 0.45979 0.88379 0.0
C1015 C 0.21606 0.47943 0.85747 0.0
C1016 C 0.21605 0.3985 0.8896 0.0
C1017 C 0.21772 0.43721 0.83704 0.0
C1018 C 0.21822 0.37604 0.84269 0.0
C1019 C 0.21654 0.29493 0.87451 0.0
C1020 C 0.21487 0.2752 0.90065 0.0
C1021 C 0.21709 0.35626 0.86885 0.0
C1022 C 0.21446 0.31743 0.92127 0.0
C1023 C 0.21503 0.37868 0.91578 0.0
H1024 H 0.94069 0.72959 0.63786 0.0
H1025 H 0.98653 0.73633 0.6179 0.0
H1026 H 0.98482 0.63719 0.59672 0.0
H1027 H 0.97028 0.54772 0.58593 0.0
H1028 H 0.9247 0.53993 0.6082 0.0
H1029 H 0.926 0.6422 0.62571 0.0
C1030 C 0.95027 0.70862 0.62906 0.0
C1031 C 0.96375 0.73806 0.62968 0.0
C1032 C 0.94911 0.65284 0.61689 0.0
C1033 C 0.97616 0.71261 0.61793 0.0
C1034 C 0.97513 0.65673 0.60566 0.0
C1035 C 0.96058 0.56939 0.59395 0.0
C1036 C 0.94739 0.53765 0.5957 0.0
C1037 C 0.96164 0.62651 0.60508 0.0
C1038 C 0.93489 0.56463 0.6066 0.0
C1039 C 0.93569 0.62244 0.61682 0.0
H1040 H 0.81333 0.05954 0.67369 0.0
H1041 H 0.81391 0.9914 0.59377 0.0
H1042 H 0.81169 0.09318 0.57665 0.0
H1043 H 0.81246 0.20108 0.58434 0.0
H1044 H 0.81315 0.26915 0.66425 0.0
H1045 H 0.81183 0.16716 0.6814 0.0
C1046 C 0.81282 0.06679 0.65253 0.0
C1047 C 0.81411 0.01828 0.63503 0.0
C1048 C 0.81187 0.12522 0.64281 0.0
C1049 C 0.81322 0.02827 0.60767 0.0
C1050 C 0.81193 0.08636 0.59784 0.0
C1051 C 0.81215 0.19371 0.6055 0.0
C1052 C 0.81322 0.2423 0.62299 0.0
C1053 C 0.81172 0.13516 0.61523 0.0
C1054 C 0.81263 0.2322 0.65037 0.0
C1055 C 0.81185 0.17401 0.66021 0.0
H1056 H 0.97339 0.22714 0.11606 0.0
H1057 H 0.96627 0.18466 0.19831 0.0
H1058 H 0.96934 0.07798 0.18872 0.0
H1059 H 0.97014 -0.00231 0.15613 0.0
H1060 H 0.97569 0.04049 0.07346 0.0
H1061 H 0.97733 0.14689 0.08427 0.0
C1062 C 0.97263 0.19463 0.13196 0.0
C1063 C 0.96914 0.21332 0.15766 0.0
C1064 C 0.974 0.13371 0.12623 0.0
C1065 C 0.96868 0.17109 0.17824 0.0
C1066 C 0.97039 0.11018 0.17278 0.0
C1067 C 0.97186 0.03013 0.14045 0.0
C1068 C 0.97232 0.01154 0.11398 0.0
C1069 C 0.97241 0.09105 0.14668 0.0
C1070 C 0.97498 0.05388 0.09398 0.0
C1071 C 0.97591 0.11467 0.10011 0.0
H1072 H 0.81216 0.50362 0.10557 0.0
H1073 H 0.81139 0.54367 0.18905 0.0
H1074 H 0.812 0.65091 0.17937 0.0
H1075 H 0.8148 0.73228 0.14742 0.0
H1076 H 0.81593 0.69162 0.06399 0.0
H1077 H 0.81309 0.58513 0.07361 0.0
C1078 C 0.81203 0.53571 0.12169 0.0
C1079 C 0.81197 0.5157 0.14796 0.0
C1080 C 0.81256 0.59703 0.11604 0.0
C1081 C 0.81154 0.5579 0.16861 0.0
C1082 C 0.81194 0.61921 0.16312 0.0
C1083 C 0.81438 0.7002 0.13132 0.0
C1084 C 0.81581 0.71972 0.10509 0.0
C1085 C 0.81281 0.63911 0.13693 0.0
C1086 C 0.81498 0.67772 0.08441 0.0
C1087 C 0.81336 0.61681 0.08986 0.0
H1088 H 0.56505 0.25263 0.89941 0.0
H1089 H 0.56435 0.29367 0.81603 0.0
H1090 H 0.56356 0.40077 0.82597 0.0
H1091 H 0.56494 0.48208 0.85813 0.0
H1092 H 0.5659 0.44091 0.94151 0.0
H1093 H 0.56458 0.33397 0.93162 0.0
C1094 C 0.56468 0.28494 0.88339 0.0
C1095 C 0.56501 0.26536 0.85706 0.0
C1096 C 0.56432 0.34621 0.88919 0.0
C1097 C 0.56422 0.30768 0.83651 0.0
C1098 C 0.5638 0.36888 0.84215 0.0
C1099 C 0.5648 0.4498 0.87417 0.0
C1100 C 0.56577 0.46933 0.90046 0.0
C1101 C 0.56415 0.38855 0.8684 0.0
C1102 C 0.56529 0.42701 0.92105 0.0
C1103 C 0.56457 0.36586 0.91544 0.0
H1104 H 0.71444 0.75376 0.84861 0.0
H1105 H 0.72167 0.79505 0.93101 0.0
H1106 H 0.72147 0.90197 0.92095 0.0
H1107 H 0.7171 0.98308 0.88966 0.0
H1108 H 0.70951 0.94248 0.8074 0.0
H1109 H 0.71214 0.83532 0.81662 0.0
C1110 C 0.71609 0.78603 0.86438 0.0
C1111 C 0.71778 0.76646 0.89057 0.0
C1112 C 0.7158 0.84737 0.85856 0.0
C1113 C 0.72015 0.80889 0.91069 0.0
C1114 C 0.72002 0.87005 0.90499 0.0
C1115 C 0.71605 0.95083 0.87371 0.0
C1116 C 0.71283 0.97042 0.84803 0.0
C1117 C 0.71747 0.88966 0.87914 0.0
C1118 C 0.71186 0.92834 0.82743 0.0
C1119 C 0.71333 0.86715 0.83267 0.0
H1120 H 0.5574 0.75754 0.39787 0.0
H1121 H 0.55859 0.79708 0.31436 0.0
H1122 H 0.55935 0.90434 0.32399 0.0
H1123 H 0.56214 0.9856 0.35605 0.0
H1124 H 0.56152 0.94517 0.43952 0.0
H1125 H 0.55808 0.83906 0.4298 0.0
C1126 C 0.55768 0.78952 0.38172 0.0
C1127 C 0.5582 0.76933 0.35549 0.0
C1128 C 0.55839 0.85081 0.38735 0.0
C1129 C 0.5583 0.81143 0.33479 0.0
C1130 C 0.55881 0.87275 0.34025 0.0
C1131 C 0.5612 0.95365 0.37213 0.0
C1132 C 0.56235 0.97308 0.39842 0.0
C1133 C 0.5593 0.89273 0.36646 0.0
C1134 C 0.56083 0.9313 0.41906 0.0
C1135 C 0.55885 0.87062 0.41356 0.0
H1136 H 0.71393 0.25242 0.35587 0.0
H1137 H 0.71906 0.29276 0.43884 0.0
H1138 H 0.7192 0.39986 0.429 0.0
H1139 H 0.71562 0.48147 0.39747 0.0
H1140 H 0.71015 0.44096 0.31461 0.0
H1141 H 0.71244 0.33399 0.32394 0.0
C1142 C 0.7152 0.28453 0.37181 0.0
C1143 C 0.71621 0.26471 0.39805 0.0
C1144 C 0.71508 0.34587 0.36612 0.0
C1145 C 0.71812 0.30687 0.41844 0.0
C1146 C 0.71815 0.36812 0.41288 0.0
C1147 C 0.71496 0.44927 0.38143 0.0
C1148 C 0.71245 0.46892 0.35551 0.0
C1149 C 0.71623 0.38802 0.38689 0.0
C1150 C 0.71195 0.42686 0.33483 0.0
C1151 C 0.71324 0.36572 0.34011 0.0
H1152 H 0.46588 0.55183 0.08508 0.0
H1153 H 0.47461 0.48981 0.16437 0.0
H1154 H 0.4732 0.59271 0.1807 0.0
H1155 H 0.4668 0.6977 0.1731 0.0
H1156 H 0.45686 0.75817 0.09395 0.0
H1157 H 0.46145 0.65779 0.07695 0.0
C1158 C 0.46774 0.56084 0.10586 0.0
C1159 C 0.47009 0.51343 0.12356 0.0
C1160 C 0.46646 0.61948 0.11521 0.0
C1161 C 0.47256 0.52574 0.15041 0.0
C1162 C 0.47171 0.5844 0.15979 0.0
C1163 C 0.46565 0.68902 0.15213 0.0
C1164 C 0.46122 0.73497 0.13492 0.0
C1165 C 0.46815 0.63121 0.14248 0.0
C1166 C 0.46006 0.7233 0.10771 0.0
C1167 C 0.46272 0.66601 0.09792 0.0
H1168 H 0.31246 -0.00212 0.11316 0.0
H1169 H 0.31364 0.03755 0.19666 0.0
H1170 H 0.31372 0.14487 0.18703 0.0
H1171 H 0.31531 0.22647 0.15499 0.0
H1172 H 0.31445 0.18636 0.07149 0.0
H1173 H 0.31233 0.0796 0.08123 0.0
C1174 C 0.31267 0.02991 0.1293 0.0
C1175 C 0.31328 0.00979 0.15555 0.0
C1176 C 0.31286 0.09127 0.12368 0.0
C1177 C 0.31327 0.05189 0.17624 0.0
C1178 C 0.31336 0.11323 0.17078 0.0
C1179 C 0.31461 0.19448 0.13889 0.0
C1180 C 0.31528 0.21426 0.11259 0.0
C1181 C 0.31347 0.13327 0.14456 0.0
C1182 C 0.31411 0.17228 0.09196 0.0
C1183 C 0.3129 0.11123 0.09747 0.0
H1184 H 0.46365 0.23167 0.6077 0.0
H1185 H 0.45979 0.18642 0.69036 0.0
H1186 H 0.46061 0.07953 0.67928 0.0
H1187 H 0.45959 0.00103 0.6459 0.0
H1188 H 0.46221 0.04745 0.56308 0.0
H1189 H 0.46464 0.15318 0.57465 0.0
C1190 C 0.46301 0.19846 0.62335 0.0
C1191 C 0.46125 0.21638 0.64969 0.0
C1192 C 0.4631 0.13791 0.61683 0.0
C1193 C 0.46096 0.17327 0.66988 0.0
C1194 C 0.46135 0.11241 0.66356 0.0
C1195 C 0.46071 0.03414 0.63032 0.0
C1196 C 0.46037 0.01676 0.60367 0.0
C1197 C 0.46192 0.0945 0.63704 0.0
C1198 C 0.46218 0.05996 0.58375 0.0
C1199 C 0.46361 0.12026 0.59032 0.0
H1200 H 0.3132 0.54731 0.67042 0.0
H1201 H 0.31875 0.47937 0.59108 0.0
H1202 H 0.31614 0.58042 0.57344 0.0
H1203 H 0.31484 0.68834 0.58085 0.0
H1204 H 0.31045 0.75681 0.66028 0.0
H1205 H 0.30982 0.65468 0.67752 0.0
C1206 C 0.31374 0.55446 0.64926 0.0
C1207 C 0.31647 0.50619 0.63217 0.0
C1208 C 0.31247 0.61262 0.63925 0.0
C1209 C 0.31693 0.51604 0.60475 0.0
C1210 C 0.3154 0.57373 0.59459 0.0
C1211 C 0.31353 0.68094 0.60189 0.0
C1212 C 0.31297 0.72978 0.6193 0.0
C1213 C 0.31356 0.62242 0.61172 0.0
C1214 C 0.31117 0.71967 0.64651 0.0
C1215 C 0.31082 0.66141 0.6564 0.0
H1216 H 0.06037 0.74726 0.37593 0.0
H1217 H 0.05927 0.83606 0.45174 0.0
H1218 H 0.05837 0.93386 0.42937 0.0
H1219 H 0.05803 0.99271 0.38864 0.0
H1220 H 0.05955 0.90416 0.31281 0.0
H1221 H 0.06007 0.80622 0.33515 0.0
C1222 C 0.05998 0.78791 0.38771 0.0
C1223 C 0.05994 0.78443 0.41558 0.0
C1224 C 0.05949 0.84344 0.37474 0.0
C1225 C 0.05932 0.83756 0.43037 0.0
C1226 C 0.05881 0.89329 0.41756 0.0
C1227 C 0.0585 0.9521 0.37684 0.0
C1228 C 0.0588 0.95569 0.34899 0.0
C1229 C 0.05891 0.89657 0.38979 0.0
C1230 C 0.05929 0.90258 0.33417 0.0
C1231 C 0.05963 0.84677 0.34697 0.0
H1232 H 0.21349 0.48512 0.37294 0.0
H1233 H 0.21594 0.39637 0.44866 0.0
H1234 H 0.21629 0.29855 0.42628 0.0
H1235 H 0.21621 0.23989 0.3856 0.0
H1236 H 0.21375 0.32829 0.3098 0.0
H1237 H 0.21323 0.42624 0.33217 0.0
C1238 C 0.21403 0.44447 0.3847 0.0
C1239 C 0.21465 0.44791 0.41254 0.0
C1240 C 0.21432 0.38899 0.37172 0.0
C1241 C 0.21543 0.39483 0.42731 0.0
C1242 C 0.21566 0.33912 0.4145 0.0
C1243 C 0.21551 0.28045 0.3738 0.0
C1244 C 0.21497 0.27689 0.34597 0.0
C1245 C 0.21516 0.3359 0.38676 0.0
C1246 C 0.21419 0.32992 0.33116 0.0
C1247 C 0.21386 0.3857 0.34396 0.0
H1248 H 0.06748 0.49032 0.88067 0.0
H1249 H 0.0657 0.4021 0.80477 0.0
H1250 H 0.06564 0.30408 0.82701 0.0
H1251 H 0.06491 0.24514 0.86768 0.0
H1252 H 0.066 0.33334 0.94362 0.0
H1253 H 0.06752 0.43118 0.92136 0.0
C1254 C 0.06718 0.44977 0.86882 0.0
C1255 C 0.06657 0.45348 0.84098 0.0
C1256 C 0.06695 0.39415 0.88173 0.0
C1257 C 0.06618 0.40043 0.82612 0.0
C1258 C 0.06611 0.34457 0.83887 0.0
C1259 C 0.06558 0.2856 0.87953 0.0
C1260 C 0.06532 0.28198 0.9074 0.0
C1261 C 0.06631 0.34113 0.86663 0.0
C1262 C 0.06616 0.33495 0.92225 0.0
C1263 C 0.06702 0.3907 0.9095 0.0
H1264 H 0.21724 0.00111 0.87433 0.0
H1265 H 0.21574 0.90448 0.94818 0.0
H1266 H 0.21512 0.80908 0.924 0.0
H1267 H 0.21561 0.75382 0.88216 0.0
H1268 H 0.21753 0.8501 0.80826 0.0
H1269 H 0.21727 0.94574 0.83237 0.0
C1270 C 0.21672 0.95923 0.88523 0.0
C1271 C 0.21656 0.95992 0.91311 0.0
C1272 C 0.21644 0.90481 0.8712 0.0
C1273 C 0.21591 0.90522 0.9268 0.0
C1274 C 0.21555 0.85075 0.91296 0.0
C1275 C 0.2159 0.79567 0.8712 0.0
C1276 C 0.2166 0.7948 0.84335 0.0
C1277 C 0.21589 0.85011 0.88519 0.0
C1278 C 0.21699 0.84949 0.82962 0.0
C1279 C 0.21686 0.90408 0.84342 0.0
H1280 H 0.9774 0.1776 0.5793 0.0
H1281 H 0.95258 0.27924 0.63642 0.0
H1282 H 0.95384 0.19669 0.6676 0.0
H1283 H 0.96108 0.09233 0.67838 0.0
H1284 H 0.98663 0.99251 0.62176 0.0
H1285 H 0.98631 0.0771 0.59139 0.0
C1286 C 0.97223 0.18144 0.59851 0.0
C1287 C 0.96468 0.23413 0.60515 0.0
C1288 C 0.9733 0.13409 0.61685 0.0
C1289 C 0.95828 0.23888 0.63043 0.0
C1290 C 0.95907 0.19171 0.64851 0.0
C1291 C 0.9669 0.09 0.65974 0.0
C1292 C 0.97387 0.0365 0.65235 0.0
C1293 C 0.96651 0.13883 0.64197 0.0
C1294 C 0.98117 0.03352 0.62788 0.0
C1295 C 0.98092 0.08166 0.61035 0.0
H1296 H 0.8134 0.50806 0.63592 0.0
H1297 H 0.81084 0.59719 0.56032 0.0
H1298 H 0.81179 0.69499 0.58269 0.0
H1299 H 0.81298 0.75378 0.62341 0.0
H1300 H 0.81522 0.66485 0.6991 0.0
H1301 H 0.81476 0.56696 0.67669 0.0
C1302 C 0.8131 0.54878 0.62418 0.0
C1303 C 0.81207 0.54536 0.59636 0.0
C1304 C 0.81357 0.60433 0.63717 0.0
C1305 C 0.81162 0.59861 0.58164 0.0
C1306 C 0.81217 0.65436 0.59446 0.0
C1307 C 0.81344 0.71311 0.63517 0.0
C1308 C 0.81418 0.71661 0.66301 0.0
C1309 C 0.81309 0.65756 0.62218 0.0
C1310 C 0.81466 0.66338 0.67775 0.0
C1311 C 0.81439 0.60759 0.66491 0.0
H1312 H 0.97935 0.57083 0.17839 0.0
H1313 H 0.94369 0.48395 0.13797 0.0
H1314 H 0.94339 0.56271 0.10455 0.0
H1315 H 0.95358 0.65698 0.08613 0.0
H1316 H 0.98954 0.7425 0.12636 0.0
H1317 H 0.98966 0.6639 0.15987 0.0
C1318 C 0.97132 0.57013 0.16261 0.0
C1319 C 0.9614 0.52231 0.16094 0.0
C1320 C 0.97154 0.61471 0.14286 0.0
C1321 C 0.95133 0.52075 0.1399 0.0
C1322 C 0.95124 0.56554 0.12057 0.0
C1323 C 0.96166 0.65722 0.10185 0.0
C1324 C 0.97174 0.70456 0.10351 0.0
C1325 C 0.96145 0.61237 0.12155 0.0
C1326 C 0.98185 0.70568 0.12447 0.0
C1327 C 0.98182 0.66118 0.14384 0.0
H1328 H 0.81168 0.24047 0.12268 0.0
H1329 H 0.81192 0.14446 0.19671 0.0
H1330 H 0.81395 0.04902 0.17274 0.0
H1331 H 0.81516 0.99339 0.13084 0.0
H1332 H 0.81481 0.08964 0.05686 0.0
H1333 H 0.81342 0.18511 0.08089 0.0
C1334 C 0.81222 0.19876 0.13369 0.0
C1335 C 0.81162 0.19969 0.16157 0.0
C1336 C 0.81338 0.14433 0.11977 0.0
C1337 C 0.81233 0.14509 0.17535 0.0
C1338 C 0.8135 0.09057 0.16161 0.0
C1339 C 0.81485 0.03521 0.11988 0.0
C1340 C 0.81509 0.03429 0.09198 0.0
C1341 C 0.81397 0.08972 0.13384 0.0
C1342 C 0.81466 0.08899 0.07824 0.0
C1343 C 0.81383 0.14353 0.092 0.0
H1344 H 0.56361 0.74337 0.87546 0.0
H1345 H 0.5666 0.83963 0.94924 0.0
H1346 H 0.56612 0.93526 0.92516 0.0
H1347 H 0.56429 0.99088 0.88335 0.0
H1348 H 0.56091 0.89447 0.80967 0.0
H1349 H 0.56214 0.79889 0.83366 0.0
C1350 C 0.56422 0.78521 0.88637 0.0
C1351 C 0.56514 0.78429 0.91422 0.0
C1352 C 0.56384 0.83974 0.87241 0.0
C1353 C 0.56588 0.839 0.9279 0.0
C1354 C 0.5656 0.89362 0.9141 0.0
C1355 C 0.56388 0.949 0.87244 0.0
C1356 C 0.5625 0.94987 0.84465 0.0
C1357 C 0.56449 0.89445 0.88639 0.0
C1358 C 0.56195 0.89512 0.83096 0.0
C1359 C 0.56265 0.84053 0.84471 0.0
H1360 H 0.69877 0.43663 0.90654 0.0
H1361 H 0.74543 0.46218 0.9014 0.0
H1362 H 0.74732 0.3802 0.86932 0.0
H1363 H 0.73555 0.302 0.84191 0.0
H1364 H 0.68892 0.27578 0.84718 0.0
H1365 H 0.68704 0.35684 0.87972 0.0
C1366 C 0.70937 0.42275 0.89896 0.0
C1367 C 0.72203 0.45362 0.90701 0.0
C1368 C 0.71029 0.37642 0.88001 0.0
C1369 C 0.73564 0.43729 0.89622 0.0
C1370 C 0.73668 0.39111 0.87757 0.0
C1371 C 0.72496 0.31521 0.84978 0.0
C1372 C 0.71232 0.28447 0.8416 0.0
C1373 C 0.72406 0.36088 0.86901 0.0
C1374 C 0.69872 0.30012 0.85265 0.0
C1375 C 0.69768 0.34598 0.87148 0.0
H1376 H 0.56034 0.49359 0.38031 0.0
H1377 H 0.56302 0.39789 0.30635 0.0
H1378 H 0.56444 0.30239 0.33045 0.0
H1379 H 0.56419 0.24657 0.37239 0.0
H1380 H 0.56136 0.34271 0.44623 0.0
H1381 H 0.56083 0.43822 0.42215 0.0
C1382 C 0.56131 0.45195 0.36934 0.0
C1383 C 0.56155 0.45297 0.34145 0.0
C1384 C 0.56208 0.39751 0.38332 0.0
C1385 C 0.5628 0.39845 0.32773 0.0
C1386 C 0.5636 0.3439 0.34153 0.0
C1387 C 0.56353 0.28839 0.38331 0.0
C1388 C 0.56278 0.28742 0.41118 0.0
C1389 C 0.56315 0.34294 0.36931 0.0
C1390 C 0.56194 0.3421 0.42488 0.0
C1391 C 0.56162 0.39666 0.41108 0.0
H1392 H 0.71721 0.9897 0.37474 0.0
H1393 H 0.71137 0.89531 0.4484 0.0
H1394 H 0.70996 0.79972 0.42428 0.0
H1395 H 0.71104 0.74352 0.38238 0.0
H1396 H 0.71717 0.83876 0.30898 0.0
H1397 H 0.71784 0.93416 0.33306 0.0
C1398 C 0.71557 0.94831 0.38564 0.0
C1399 C 0.71441 0.94968 0.41344 0.0
C1400 C 0.71487 0.89392 0.37167 0.0
C1401 C 0.71235 0.89552 0.4271 0.0
C1402 C 0.71154 0.84096 0.41327 0.0
C1403 C 0.71246 0.78513 0.37156 0.0
C1404 C 0.71405 0.78396 0.3438 0.0
C1405 C 0.71288 0.83967 0.38558 0.0
C1406 C 0.71587 0.83835 0.33023 0.0
C1407 C 0.71628 0.89284 0.34402 0.0
H1408 H 0.46938 0.24342 0.13655 0.0
H1409 H 0.46551 0.15689 0.06054 0.0
H1410 H 0.4634 0.05906 0.08262 0.0
H1411 H 0.46296 -0.00057 0.12318 0.0
H1412 H 0.46666 0.08609 0.19919 0.0
H1413 H 0.46844 0.18403 0.17712 0.0
C1414 C 0.46801 0.20332 0.12465 0.0
C1415 C 0.46758 0.20744 0.09681 0.0
C1416 C 0.46676 0.1478 0.13746 0.0
C1417 C 0.46588 0.15491 0.08189 0.0
C1418 C 0.46467 0.09915 0.09454 0.0
C1419 C 0.46408 0.03965 0.13508 0.0
C1420 C 0.46467 0.03548 0.16291 0.0
C1421 C 0.46512 0.09525 0.12228 0.0
C1422 C 0.46618 0.0881 0.17784 0.0
C1423 C 0.46721 0.14392 0.1652 0.0
H1424 H 0.31116 0.73507 0.12962 0.0
H1425 H 0.31147 0.63887 0.20362 0.0
H1426 H 0.31291 0.54338 0.1796 0.0
H1427 H 0.31365 0.48789 0.13777 0.0
H1428 H 0.31325 0.58402 0.06375 0.0
H1429 H 0.31237 0.67964 0.08778 0.0
C1430 C 0.31159 0.69328 0.1406 0.0
C1431 C 0.31119 0.69412 0.16847 0.0
C1432 C 0.31241 0.63883 0.12666 0.0
C1433 C 0.31173 0.6395 0.18225 0.0
C1434 C 0.31256 0.58498 0.1685 0.0
C1435 C 0.31343 0.52971 0.12679 0.0
C1436 C 0.31351 0.52879 0.09891 0.0
C1437 C 0.31285 0.58419 0.14073 0.0
C1438 C 0.3132 0.58345 0.08513 0.0
C1439 C 0.31267 0.63803 0.09889 0.0
H1440 H 0.47577 0.58425 0.67219 0.0
H1441 H 0.45181 0.47248 0.61758 0.0
H1442 H 0.45168 0.55165 0.58507 0.0
H1443 H 0.45807 0.65424 0.57148 0.0
H1444 H 0.48186 0.76726 0.62554 0.0
H1445 H 0.48265 0.68671 0.65814 0.0
C1446 C 0.4704 0.57765 0.65331 0.0
C1447 C 0.46369 0.52249 0.64768 0.0
C1448 C 0.47057 0.62355 0.6341 0.0
C1449 C 0.45697 0.51442 0.62284 0.0
C1450 C 0.45696 0.55971 0.60392 0.0
C1451 C 0.4637 0.66048 0.59014 0.0
C1452 C 0.47001 0.71606 0.59601 0.0
C1453 C 0.4638 0.6144 0.60918 0.0
C1454 C 0.47699 0.72435 0.62055 0.0
C1455 C 0.47736 0.67854 0.63933 0.0
H1456 H 0.31221 -0.00355 0.6327 0.0
H1457 H 0.31303 0.08564 0.55699 0.0
H1458 H 0.31378 0.18337 0.57944 0.0
H1459 H 0.31391 0.24205 0.62022 0.0
H1460 H 0.31257 0.1531 0.69596 0.0
H1461 H 0.31233 0.05523 0.67354 0.0
C1462 C 0.31261 0.03717 0.62097 0.0
C1463 C 0.31262 0.03386 0.59311 0.0
C1464 C 0.31292 0.09265 0.63399 0.0
C1465 C 0.31302 0.08706 0.57836 0.0
C1466 C 0.31345 0.14274 0.59122 0.0
C1467 C 0.31362 0.20134 0.63198 0.0
C1468 C 0.31331 0.20476 0.65983 0.0
C1469 C 0.31337 0.14587 0.61898 0.0
C1470 C 0.31282 0.1516 0.6746 0.0
C1471 C 0.31269 0.09585 0.66176 0.0
loop_
_geom_bond_atom_site_label_1
_geom_bond_atom_site_label_2
_geom_bond_distance
_geom_bond_site_symmetry_2
_ccdc_geom_bond_type
Co0 O1 2.216 . S
Co0 O2 2.091 . S
Co0 O4 2.004 . S
Co0 O10 2.021 . S
Co0 O12 2.137 . S
Co0 O13 2.244 . S
O1 Co0 2.216 . S
O1 C8 1.247 . S
O2 Co0 2.091 . S
O2 C8 1.261 . S
C3 O12 1.247 . S
C3 O13 1.272 . S
O4 Co0 2.004 . S
O4 C9 1.259 . S
Co5 O6 2.061 . S
Co5 O11 2.052 . S
Co5 O13 2.135 . S
O6 Co5 2.061 . S
O6 C9 1.235 . S
C7 O10 1.238 . S
C7 O11 1.241 . S
C8 O1 1.247 . S
C8 O2 1.261 . S
C9 O4 1.259 . S
C9 O6 1.235 . S
O10 Co0 2.021 . S
O10 C7 1.238 . S
O11 Co5 2.052 . S
O11 C7 1.241 . S
O12 Co0 2.137 . S
O12 C3 1.247 . S
O13 Co0 2.244 . S
O13 C3 1.272 . S
O13 Co5 2.135 . S
Co14 O15 2.216 . S
Co14 O16 2.091 . S
Co14 O18 2.004 . S
Co14 O24 2.021 . S
Co14 O26 2.137 . S
Co14 O27 2.244 . S
O15 Co14 2.216 . S
O15 C22 1.247 . S
O16 Co14 2.091 . S
O16 C22 1.261 . S
C17 O26 1.247 . S
C17 O27 1.272 . S
O18 Co14 2.004 . S
O18 C23 1.259 . S
Co19 O20 2.061 . S
Co19 O25 2.052 . S
Co19 O27 2.135 . S
O20 Co19 2.061 . S
O20 C23 1.235 . S
C21 O24 1.238 . S
C21 O25 1.241 . S
C22 O15 1.247 . S
C22 O16 1.261 . S
C23 O18 1.259 . S
C23 O20 1.235 . S
O24 Co14 2.021 . S
O24 C21 1.238 . S
O25 Co19 2.052 . S
O25 C21 1.241 . S
O26 Co14 2.137 . S
O26 C17 1.247 . S
O27 Co14 2.244 . S
O27 C17 1.272 . S
O27 Co19 2.135 . S
Co28 O29 2.216 . S
Co28 O30 2.091 . S
Co28 O32 2.004 . S
Co28 O38 2.021 . S
Co28 O40 2.137 . S
Co28 O41 2.244 . S
O29 Co28 2.216 . S
O29 C36 1.247 . S
O30 Co28 2.091 . S
O30 C36 1.261 . S
C31 O40 1.247 . S
C31 O41 1.272 . S
O32 Co28 2.004 . S
O32 C37 1.259 . S
Co33 O34 2.061 . S
Co33 O39 2.052 . S
Co33 O41 2.135 . S
O34 Co33 2.061 . S
O34 C37 1.235 . S
C35 O38 1.238 . S
C35 O39 1.241 . S
C36 O29 1.247 . S
C36 O30 1.261 . S
C37 O32 1.259 . S
C37 O34 1.235 . S
O38 Co28 2.021 . S
O38 C35 1.238 . S
O39 Co33 2.052 . S
O39 C35 1.241 . S
O40 Co28 2.137 . S
O40 C31 1.247 . S
O41 Co28 2.244 . S
O41 C31 1.272 . S
O41 Co33 2.135 . S
Co42 O43 2.216 . S
Co42 O44 2.091 . S
Co42 O46 2.004 . S
Co42 O52 2.021 . S
Co42 O54 2.137 . S
Co42 O55 2.244 . S
O43 Co42 2.216 . S
O43 C50 1.247 . S
O44 Co42 2.091 . S
O44 C50 1.261 . S
C45 O54 1.247 . S
C45 O55 1.272 . S
O46 Co42 2.004 . S
O46 C51 1.259 . S
Co47 O48 2.061 . S
Co47 O53 2.052 . S
Co47 O55 2.135 . S
O48 Co47 2.061 . S
O48 C51 1.235 . S
C49 O52 1.238 . S
C49 O53 1.241 . S
C50 O43 1.247 . S
C50 O44 1.261 . S
C51 O46 1.259 . S
C51 O48 1.235 . S
O52 Co42 2.021 . S
O52 C49 1.238 . S
O53 Co47 2.052 . S
O53 C49 1.241 . S
O54 Co42 2.137 . S
O54 C45 1.247 . S
O55 Co42 2.244 . S
O55 C45 1.272 . S
O55 Co47 2.135 . S
Co56 O57 2.216 . S
Co56 O58 2.091 . S
Co56 O60 2.004 . S
Co56 O66 2.021 . S
Co56 O68 2.137 . S
Co56 O69 2.244 . S
O57 Co56 2.216 . S
O57 C64 1.247 . S
O58 Co56 2.091 . S
O58 C64 1.261 . S
C59 O68 1.247 . S
C59 O69 1.272 . S
O60 Co56 2.004 . S
O60 C65 1.259 . S
Co61 O62 2.061 . S
Co61 O67 2.052 . S
Co61 O69 2.135 . S
O62 Co61 2.061 . S
O62 C65 1.235 . S
C63 O66 1.238 . S
C63 O67 1.241 . S
C64 O57 1.247 . S
C64 O58 1.261 . S
C65 O60 1.259 . S
C65 O62 1.235 . S
O66 Co56 2.021 . S
O66 C63 1.238 . S
O67 Co61 2.052 . S
O67 C63 1.241 . S
O68 Co56 2.137 . S
O68 C59 1.247 . S
O69 Co56 2.244 . S
O69 C59 1.272 . S
O69 Co61 2.135 . S
Co70 O71 2.216 . S
Co70 O72 2.091 . S
Co70 O74 2.004 . S
Co70 O80 2.021 . S
Co70 O82 2.137 . S
Co70 O83 2.244 . S
O71 Co70 2.216 . S
O71 C78 1.247 . S
O72 Co70 2.091 . S
O72 C78 1.261 . S
C73 O82 1.247 . S
C73 O83 1.272 . S
O74 Co70 2.004 . S
O74 C79 1.259 . S
Co75 O76 2.061 . S
Co75 O81 2.052 . S
Co75 O83 2.135 . S
O76 Co75 2.061 . S
O76 C79 1.235 . S
C77 O80 1.238 . S
C77 O81 1.241 . S
C78 O71 1.247 . S
C78 O72 1.261 . S
C79 O74 1.259 . S
C79 O76 1.235 . S
O80 Co70 2.021 . S
O80 C77 1.238 . S
O81 Co75 2.052 . S
O81 C77 1.241 . S
O82 Co70 2.137 . S
O82 C73 1.247 . S
O83 Co70 2.244 . S
O83 C73 1.272 . S
O83 Co75 2.135 . S
Co84 O85 2.216 . S
Co84 O86 2.091 . S
Co84 O88 2.004 . S
Co84 O94 2.021 . S
Co84 O96 2.137 . S
Co84 O97 2.244 . S
O85 Co84 2.216 . S
O85 C92 1.247 . S
O86 Co84 2.091 . S
O86 C92 1.261 . S
C87 O96 1.247 . S
C87 O97 1.272 . S
O88 Co84 2.004 . S
O88 C93 1.259 . S
Co89 O90 2.061 . S
Co89 O95 2.052 . S
Co89 O97 2.135 . S
O90 Co89 2.061 . S
O90 C93 1.235 . S
C91 O94 1.238 . S
C91 O95 1.241 . S
C92 O85 1.247 . S
C92 O86 1.261 . S
C93 O88 1.259 . S
C93 O90 1.235 . S
O94 Co84 2.021 . S
O94 C91 1.238 . S
O95 Co89 2.052 . S
O95 C91 1.241 . S
O96 Co84 2.137 . S
O96 C87 1.247 . S
O97 Co84 2.244 . S
O97 C87 1.272 . S
O97 Co89 2.135 . S
Co98 O99 2.216 . S
Co98 O100 2.091 . S
Co98 O102 2.004 . S
Co98 O108 2.021 . S
Co98 O110 2.137 . S
Co98 O111 2.244 . S
O99 Co98 2.216 . S
O99 C106 1.247 . S
O100 Co98 2.091 . S
O100 C106 1.261 . S
C101 O110 1.247 . S
C101 O111 1.272 . S
O102 Co98 2.004 . S
O102 C107 1.259 . S
Co103 O104 2.061 . S
Co103 O109 2.052 . S
Co103 O111 2.135 . S
O104 Co103 2.061 . S
O104 C107 1.235 . S
C105 O108 1.238 . S
C105 O109 1.241 . S
C106 O99 1.247 . S
C106 O100 1.261 . S
C107 O102 1.259 . S
C107 O104 1.235 . S
O108 Co98 2.021 . S
O108 C105 1.238 . S
O109 Co103 2.052 . S
O109 C105 1.241 . S
O110 Co98 2.137 . S
O110 C101 1.247 . S
O111 Co98 2.244 . S
O111 C101 1.272 . S
O111 Co103 2.135 . S
Co112 O113 2.216 . S
Co112 O114 2.091 . S
Co112 O116 2.004 . S
Co112 O122 2.021 . S
Co112 O124 2.137 . S
Co112 O125 2.244 . S
O113 Co112 2.216 . S
O113 C120 1.247 . S
O114 Co112 2.091 . S
O114 C120 1.261 . S
C115 O124 1.247 . S
C115 O125 1.272 . S
O116 Co112 2.004 . S
O116 C121 1.259 . S
Co117 O118 2.061 . S
Co117 O123 2.052 . S
Co117 O125 2.135 . S
O118 Co117 2.061 . S
O118 C121 1.235 . S
C119 O122 1.238 . S
C119 O123 1.241 . S
C120 O113 1.247 . S
C120 O114 1.261 . S
C121 O116 1.259 . S
C121 O118 1.235 . S
O122 Co112 2.021 . S
O122 C119 1.238 . S
O123 Co117 2.052 . S
O123 C119 1.241 . S
O124 Co112 2.137 . S
O124 C115 1.247 . S
O125 Co112 2.244 . S
O125 C115 1.272 . S
O125 Co117 2.135 . S
Co126 O127 2.216 . S
Co126 O128 2.091 . S
Co126 O130 2.004 . S
Co126 O136 2.021 . S
Co126 O138 2.137 . S
Co126 O139 2.244 . S
O127 Co126 2.216 . S
O127 C134 1.247 . S
O128 Co126 2.091 . S
O128 C134 1.261 . S
C129 O138 1.247 . S
C129 O139 1.272 . S
O130 Co126 2.004 . S
O130 C135 1.259 . S
Co131 O132 2.061 . S
Co131 O137 2.052 . S
Co131 O139 2.135 . S
O132 Co131 2.061 . S
O132 C135 1.235 . S
C133 O136 1.238 . S
C133 O137 1.241 . S
C134 O127 1.247 . S
C134 O128 1.261 . S
C135 O130 1.259 . S
C135 O132 1.235 . S
O136 Co126 2.021 . S
O136 C133 1.238 . S
O137 Co131 2.052 . S
O137 C133 1.241 . S
O138 Co126 2.137 . S
O138 C129 1.247 . S
O139 Co126 2.244 . S
O139 C129 1.272 . S
O139 Co131 2.135 . S
Co140 O141 2.216 . S
Co140 O142 2.091 . S
Co140 O144 2.004 . S
Co140 O150 2.021 . S
Co140 O152 2.137 . S
Co140 O153 2.244 . S
O141 Co140 2.216 . S
O141 C148 1.247 . S
O142 Co140 2.091 . S
O142 C148 1.261 . S
C143 O152 1.247 . S
C143 O153 1.272 . S
O144 Co140 2.004 . S
O144 C149 1.259 . S
Co145 O146 2.061 . S
Co145 O151 2.052 . S
Co145 O153 2.135 . S
O146 Co145 2.061 . S
O146 C149 1.235 . S
C147 O150 1.238 . S
C147 O151 1.241 . S
C148 O141 1.247 . S
C148 O142 1.261 . S
C149 O144 1.259 . S
C149 O146 1.235 . S
O150 Co140 2.021 . S
O150 C147 1.238 . S
O151 Co145 2.052 . S
O151 C147 1.241 . S
O152 Co140 2.137 . S
O152 C143 1.247 . S
O153 Co140 2.244 . S
O153 C143 1.272 . S
O153 Co145 2.135 . S
Co154 O155 2.216 . S
Co154 O156 2.091 . S
Co154 O158 2.004 . S
Co154 O164 2.021 . S
Co154 O166 2.137 . S
Co154 O167 2.244 . S
O155 Co154 2.216 . S
O155 C162 1.247 . S
O156 Co154 2.091 . S
O156 C162 1.261 . S
C157 O166 1.247 . S
C157 O167 1.272 . S
O158 Co154 2.004 . S
O158 C163 1.259 . S
Co159 O160 2.061 . S
Co159 O165 2.052 . S
Co159 O167 2.135 . S
O160 Co159 2.061 . S
O160 C163 1.235 . S
C161 O164 1.238 . S
C161 O165 1.241 . S
C162 O155 1.247 . S
C162 O156 1.261 . S
C163 O158 1.259 . S
C163 O160 1.235 . S
O164 Co154 2.021 . S
O164 C161 1.238 . S
O165 Co159 2.052 . S
O165 C161 1.241 . S
O166 Co154 2.137 . S
O166 C157 1.247 . S
O167 Co154 2.244 . S
O167 C157 1.272 . S
O167 Co159 2.135 . S
Co168 O169 2.216 . S
Co168 O170 2.091 . S
Co168 O172 2.004 . S
Co168 O178 2.021 . S
Co168 O180 2.137 . S
Co168 O181 2.244 . S
O169 Co168 2.216 . S
O169 C176 1.247 . S
O170 Co168 2.091 . S
O170 C176 1.261 . S
C171 O180 1.247 . S
C171 O181 1.272 . S
O172 Co168 2.004 . S
O172 C177 1.259 . S
Co173 O174 2.061 . S
Co173 O179 2.052 . S
Co173 O181 2.135 . S
O174 Co173 2.061 . S
O174 C177 1.235 . S
C175 O178 1.238 . S
C175 O179 1.241 . S
C176 O169 1.247 . S
C176 O170 1.261 . S
C177 O172 1.259 . S
C177 O174 1.235 . S
O178 Co168 2.021 . S
O178 C175 1.238 . S
O179 Co173 2.052 . S
O179 C175 1.241 . S
O180 Co168 2.137 . S
O180 C171 1.247 . S
O181 Co168 2.244 . S
O181 C171 1.272 . S
O181 Co173 2.135 . S
Co182 O183 2.216 . S
Co182 O184 2.091 . S
Co182 O186 2.004 . S
Co182 O192 2.021 . S
Co182 O194 2.137 . S
Co182 O195 2.244 . S
O183 Co182 2.216 . S
O183 C190 1.247 . S
O184 Co182 2.091 . S
O184 C190 1.261 . S
C185 O194 1.247 . S
C185 O195 1.272 . S
O186 Co182 2.004 . S
O186 C191 1.259 . S
Co187 O188 2.061 . S
Co187 O193 2.052 . S
Co187 O195 2.135 . S
O188 Co187 2.061 . S
O188 C191 1.235 . S
C189 O192 1.238 . S
C189 O193 1.241 . S
C190 O183 1.247 . S
C190 O184 1.261 . S
C191 O186 1.259 . S
C191 O188 1.235 . S
O192 Co182 2.021 . S
O192 C189 1.238 . S
O193 Co187 2.052 . S
O193 C189 1.241 . S
O194 Co182 2.137 . S
O194 C185 1.247 . S
O195 Co182 2.244 . S
O195 C185 1.272 . S
O195 Co187 2.135 . S
Co196 O197 2.216 . S
Co196 O198 2.091 . S
Co196 O200 2.004 . S
Co196 O206 2.021 . S
Co196 O208 2.137 . S
Co196 O209 2.244 . S
O197 Co196 2.216 . S
O197 C204 1.247 . S
O198 Co196 2.091 . S
O198 C204 1.261 . S
C199 O208 1.247 . S
C199 O209 1.272 . S
O200 Co196 2.004 . S
O200 C205 1.259 . S
Co201 O202 2.061 . S
Co201 O207 2.052 . S
Co201 O209 2.135 . S
O202 Co201 2.061 . S
O202 C205 1.235 . S
C203 O206 1.238 . S
C203 O207 1.241 . S
C204 O197 1.247 . S
C204 O198 1.261 . S
C205 O200 1.259 . S
C205 O202 1.235 . S
O206 Co196 2.021 . S
O206 C203 1.238 . S
O207 Co201 2.052 . S
O207 C203 1.241 . S
O208 Co196 2.137 . S
O208 C199 1.247 . S
O209 Co196 2.244 . S
O209 C199 1.272 . S
O209 Co201 2.135 . S
Co210 O211 2.216 . S
Co210 O212 2.091 . S
Co210 O214 2.004 . S
Co210 O220 2.021 . S
Co210 O222 2.137 . S
Co210 O223 2.244 . S
O211 Co210 2.216 . S
O211 C218 1.247 . S
O212 Co210 2.091 . S
O212 C218 1.261 . S
C213 O222 1.247 . S
C213 O223 1.272 . S
O214 Co210 2.004 . S
O214 C219 1.259 . S
Co215 O216 2.061 . S
Co215 O221 2.052 . S
Co215 O223 2.135 . S
O216 Co215 2.061 . S
O216 C219 1.235 . S
C217 O220 1.238 . S
C217 O221 1.241 . S
C218 O211 1.247 . S
C218 O212 1.261 . S
C219 O214 1.259 . S
C219 O216 1.235 . S
O220 Co210 2.021 . S
O220 C217 1.238 . S
O221 Co215 2.052 . S
O221 C217 1.241 . S
O222 Co210 2.137 . S
O222 C213 1.247 . S
O223 Co210 2.244 . S
O223 C213 1.272 . S
O223 Co215 2.135 . S
Co224 O225 2.216 . S
Co224 O226 2.091 . S
Co224 O228 2.004 . S
Co224 O234 2.021 . S
Co224 O236 2.137 . S
Co224 O237 2.244 . S
O225 Co224 2.216 . S
O225 C232 1.247 . S
O226 Co224 2.091 . S
O226 C232 1.261 . S
C227 O236 1.247 . S
C227 O237 1.272 . S
O228 Co224 2.004 . S
O228 C233 1.259 . S
Co229 O230 2.061 . S
Co229 O235 2.052 . S
Co229 O237 2.135 . S
O230 Co229 2.061 . S
O230 C233 1.235 . S
C231 O234 1.238 . S
C231 O235 1.241 . S
C232 O225 1.247 . S
C232 O226 1.261 . S
C233 O228 1.259 . S
C233 O230 1.235 . S
O234 Co224 2.021 . S
O234 C231 1.238 . S
O235 Co229 2.052 . S
O235 C231 1.241 . S
O236 Co224 2.137 . S
O236 C227 1.247 . S
O237 Co224 2.244 . S
O237 C227 1.272 . S
O237 Co229 2.135 . S
Co238 O239 2.216 . S
Co238 O240 2.091 . S
Co238 O242 2.004 . S
Co238 O248 2.021 . S
Co238 O250 2.137 . S
Co238 O251 2.244 . S
O239 Co238 2.216 . S
O239 C246 1.247 . S
O240 Co238 2.091 . S
O240 C246 1.261 . S
C241 O250 1.247 . S
C241 O251 1.272 . S
O242 Co238 2.004 . S
O242 C247 1.259 . S
Co243 O244 2.061 . S
Co243 O249 2.052 . S
Co243 O251 2.135 . S
O244 Co243 2.061 . S
O244 C247 1.235 . S
C245 O248 1.238 . S
C245 O249 1.241 . S
C246 O239 1.247 . S
C246 O240 1.261 . S
C247 O242 1.259 . S
C247 O244 1.235 . S
O248 Co238 2.021 . S
O248 C245 1.238 . S
O249 Co243 2.052 . S
O249 C245 1.241 . S
O250 Co238 2.137 . S
O250 C241 1.247 . S
O251 Co238 2.244 . S
O251 C241 1.272 . S
O251 Co243 2.135 . S
Co252 O253 2.216 . S
Co252 O254 2.091 . S
Co252 O256 2.004 . S
Co252 O262 2.021 . S
Co252 O264 2.137 . S
Co252 O265 2.244 . S
O253 Co252 2.216 . S
O253 C260 1.247 . S
O254 Co252 2.091 . S
O254 C260 1.261 . S
C255 O264 1.247 . S
C255 O265 1.272 . S
O256 Co252 2.004 . S
O256 C261 1.259 . S
Co257 O258 2.061 . S
Co257 O263 2.052 . S
Co257 O265 2.135 . S
O258 Co257 2.061 . S
O258 C261 1.235 . S
C259 O262 1.238 . S
C259 O263 1.241 . S
C260 O253 1.247 . S
C260 O254 1.261 . S
C261 O256 1.259 . S
C261 O258 1.235 . S
O262 Co252 2.021 . S
O262 C259 1.238 . S
O263 Co257 2.052 . S
O263 C259 1.241 . S
O264 Co252 2.137 . S
O264 C255 1.247 . S
O265 Co252 2.244 . S
O265 C255 1.272 . S
O265 Co257 2.135 . S
Co266 O267 2.216 . S
Co266 O268 2.091 . S
Co266 O270 2.004 . S
Co266 O276 2.021 . S
Co266 O278 2.137 . S
Co266 O279 2.244 . S
O267 Co266 2.216 . S
O267 C274 1.247 . S
O268 Co266 2.091 . S
O268 C274 1.261 . S
C269 O278 1.247 . S
C269 O279 1.272 . S
O270 Co266 2.004 . S
O270 C275 1.259 . S
Co271 O272 2.061 . S
Co271 O277 2.052 . S
Co271 O279 2.135 . S
O272 Co271 2.061 . S
O272 C275 1.235 . S
C273 O276 1.238 . S
C273 O277 1.241 . S
C274 O267 1.247 . S
C274 O268 1.261 . S
C275 O270 1.259 . S
C275 O272 1.235 . S
O276 Co266 2.021 . S
O276 C273 1.238 . S
O277 Co271 2.052 . S
O277 C273 1.241 . S
O278 Co266 2.137 . S
O278 C269 1.247 . S
O279 Co266 2.244 . S
O279 C269 1.272 . S
O279 Co271 2.135 . S
Co280 O281 2.216 . S
Co280 O282 2.091 . S
Co280 O284 2.004 . S
Co280 O290 2.021 . S
Co280 O292 2.137 . S
Co280 O293 2.244 . S
O281 Co280 2.216 . S
O281 C288 1.247 . S
O282 Co280 2.091 . S
O282 C288 1.261 . S
C283 O292 1.247 . S
C283 O293 1.272 . S
O284 Co280 2.004 . S
O284 C289 1.259 . S
Co285 O286 2.061 . S
Co285 O291 2.052 . S
Co285 O293 2.135 . S
O286 Co285 2.061 . S
O286 C289 1.235 . S
C287 O290 1.238 . S
C287 O291 1.241 . S
C288 O281 1.247 . S
C288 O282 1.261 . S
C289 O284 1.259 . S
C289 O286 1.235 . S
O290 Co280 2.021 . S
O290 C287 1.238 . S
O291 Co285 2.052 . S
O291 C287 1.241 . S
O292 Co280 2.137 . S
O292 C283 1.247 . S
O293 Co280 2.244 . S
O293 C283 1.272 . S
O293 Co285 2.135 . S
Co294 O295 2.216 . S
Co294 O296 2.091 . S
Co294 O298 2.004 . S
Co294 O304 2.021 . S
Co294 O306 2.137 . S
Co294 O307 2.244 . S
O295 Co294 2.216 . S
O295 C302 1.247 . S
O296 Co294 2.091 . S
O296 C302 1.261 . S
C297 O306 1.247 . S
C297 O307 1.272 . S
O298 Co294 2.004 . S
O298 C303 1.259 . S
Co299 O300 2.061 . S
Co299 O305 2.052 . S
Co299 O307 2.135 . S
O300 Co299 2.061 . S
O300 C303 1.235 . S
C301 O304 1.238 . S
C301 O305 1.241 . S
C302 O295 1.247 . S
C302 O296 1.261 . S
C303 O298 1.259 . S
C303 O300 1.235 . S
O304 Co294 2.021 . S
O304 C301 1.238 . S
O305 Co299 2.052 . S
O305 C301 1.241 . S
O306 Co294 2.137 . S
O306 C297 1.247 . S
O307 Co294 2.244 . S
O307 C297 1.272 . S
O307 Co299 2.135 . S
Co308 O309 2.216 . S
Co308 O310 2.091 . S
Co308 O312 2.004 . S
Co308 O318 2.021 . S
Co308 O320 2.137 . S
Co308 O321 2.244 . S
O309 Co308 2.216 . S
O309 C316 1.247 . S
O310 Co308 2.091 . S
O310 C316 1.261 . S
C311 O320 1.247 . S
C311 O321 1.272 . S
O312 Co308 2.004 . S
O312 C317 1.259 . S
Co313 O314 2.061 . S
Co313 O319 2.052 . S
Co313 O321 2.135 . S
O314 Co313 2.061 . S
O314 C317 1.235 . S
C315 O318 1.238 . S
C315 O319 1.241 . S
C316 O309 1.247 . S
C316 O310 1.261 . S
C317 O312 1.259 . S
C317 O314 1.235 . S
O318 Co308 2.021 . S
O318 C315 1.238 . S
O319 Co313 2.052 . S
O319 C315 1.241 . S
O320 Co308 2.137 . S
O320 C311 1.247 . S
O321 Co308 2.244 . S
O321 C311 1.272 . S
O321 Co313 2.135 . S
Co322 O323 2.216 . S
Co322 O324 2.091 . S
Co322 O326 2.004 . S
Co322 O332 2.021 . S
Co322 O334 2.137 . S
Co322 O335 2.244 . S
O323 Co322 2.216 . S
O323 C330 1.247 . S
O324 Co322 2.091 . S
O324 C330 1.261 . S
C325 O334 1.247 . S
C325 O335 1.272 . S
O326 Co322 2.004 . S
O326 C331 1.259 . S
Co327 O328 2.061 . S
Co327 O333 2.052 . S
Co327 O335 2.135 . S
O328 Co327 2.061 . S
O328 C331 1.235 . S
C329 O332 1.238 . S
C329 O333 1.241 . S
C330 O323 1.247 . S
C330 O324 1.261 . S
C331 O326 1.259 . S
C331 O328 1.235 . S
O332 Co322 2.021 . S
O332 C329 1.238 . S
O333 Co327 2.052 . S
O333 C329 1.241 . S
O334 Co322 2.137 . S
O334 C325 1.247 . S
O335 Co322 2.244 . S
O335 C325 1.272 . S
O335 Co327 2.135 . S
Co336 O337 2.216 . S
Co336 O338 2.091 . S
Co336 O340 2.004 . S
Co336 O346 2.021 . S
Co336 O348 2.137 . S
Co336 O349 2.244 . S
O337 Co336 2.216 . S
O337 C344 1.247 . S
O338 Co336 2.091 . S
O338 C344 1.261 . S
C339 O348 1.247 . S
C339 O349 1.272 . S
O340 Co336 2.004 . S
O340 C345 1.259 . S
Co341 O342 2.061 . S
Co341 O347 2.052 . S
Co341 O349 2.135 . S
O342 Co341 2.061 . S
O342 C345 1.235 . S
C343 O346 1.238 . S
C343 O347 1.241 . S
C344 O337 1.247 . S
C344 O338 1.261 . S
C345 O340 1.259 . S
C345 O342 1.235 . S
O346 Co336 2.021 . S
O346 C343 1.238 . S
O347 Co341 2.052 . S
O347 C343 1.241 . S
O348 Co336 2.137 . S
O348 C339 1.247 . S
O349 Co336 2.244 . S
O349 C339 1.272 . S
O349 Co341 2.135 . S
Co350 O351 2.216 . S
Co350 O352 2.091 . S
Co350 O354 2.004 . S
Co350 O360 2.021 . S
Co350 O362 2.137 . S
Co350 O363 2.244 . S
O351 Co350 2.216 . S
O351 C358 1.247 . S
O352 Co350 2.091 . S
O352 C358 1.261 . S
C353 O362 1.247 . S
C353 O363 1.272 . S
O354 Co350 2.004 . S
O354 C359 1.259 . S
Co355 O356 2.061 . S
Co355 O361 2.052 . S
Co355 O363 2.135 . S
O356 Co355 2.061 . S
O356 C359 1.235 . S
C357 O360 1.238 . S
C357 O361 1.241 . S
C358 O351 1.247 . S
C358 O352 1.261 . S
C359 O354 1.259 . S
C359 O356 1.235 . S
O360 Co350 2.021 . S
O360 C357 1.238 . S
O361 Co355 2.052 . S
O361 C357 1.241 . S
O362 Co350 2.137 . S
O362 C353 1.247 . S
O363 Co350 2.244 . S
O363 C353 1.272 . S
O363 Co355 2.135 . S
Co364 O365 2.216 . S
Co364 O366 2.091 . S
Co364 O368 2.004 . S
Co364 O374 2.021 . S
Co364 O376 2.137 . S
Co364 O377 2.244 . S
O365 Co364 2.216 . S
O365 C372 1.247 . S
O366 Co364 2.091 . S
O366 C372 1.261 . S
C367 O376 1.247 . S
C367 O377 1.272 . S
O368 Co364 2.004 . S
O368 C373 1.259 . S
Co369 O370 2.061 . S
Co369 O375 2.052 . S
Co369 O377 2.135 . S
O370 Co369 2.061 . S
O370 C373 1.235 . S
C371 O374 1.238 . S
C371 O375 1.241 . S
C372 O365 1.247 . S
C372 O366 1.261 . S
C373 O368 1.259 . S
C373 O370 1.235 . S
O374 Co364 2.021 . S
O374 C371 1.238 . S
O375 Co369 2.052 . S
O375 C371 1.241 . S
O376 Co364 2.137 . S
O376 C367 1.247 . S
O377 Co364 2.244 . S
O377 C367 1.272 . S
O377 Co369 2.135 . S
Co378 O379 2.216 . S
Co378 O380 2.091 . S
Co378 O382 2.004 . S
Co378 O388 2.021 . S
Co378 O390 2.137 . S
Co378 O391 2.244 . S
O379 Co378 2.216 . S
O379 C386 1.247 . S
O380 Co378 2.091 . S
O380 C386 1.261 . S
C381 O390 1.247 . S
C381 O391 1.272 . S
O382 Co378 2.004 . S
O382 C387 1.259 . S
Co383 O384 2.061 . S
Co383 O389 2.052 . S
Co383 O391 2.135 . S
O384 Co383 2.061 . S
O384 C387 1.235 . S
C385 O388 1.238 . S
C385 O389 1.241 . S
C386 O379 1.247 . S
C386 O380 1.261 . S
C387 O382 1.259 . S
C387 O384 1.235 . S
O388 Co378 2.021 . S
O388 C385 1.238 . S
O389 Co383 2.052 . S
O389 C385 1.241 . S
O390 Co378 2.137 . S
O390 C381 1.247 . S
O391 Co378 2.244 . S
O391 C381 1.272 . S
O391 Co383 2.135 . S
Co392 O393 2.216 . S
Co392 O394 2.091 . S
Co392 O396 2.004 . S
Co392 O402 2.021 . S
Co392 O404 2.137 . S
Co392 O405 2.244 . S
O393 Co392 2.216 . S
O393 C400 1.247 . S
O394 Co392 2.091 . S
O394 C400 1.261 . S
C395 O404 1.247 . S
C395 O405 1.272 . S
O396 Co392 2.004 . S
O396 C401 1.259 . S
Co397 O398 2.061 . S
Co397 O403 2.052 . S
Co397 O405 2.135 . S
O398 Co397 2.061 . S
O398 C401 1.235 . S
C399 O402 1.238 . S
C399 O403 1.241 . S
C400 O393 1.247 . S
C400 O394 1.261 . S
C401 O396 1.259 . S
C401 O398 1.235 . S
O402 Co392 2.021 . S
O402 C399 1.238 . S
O403 Co397 2.052 . S
O403 C399 1.241 . S
O404 Co392 2.137 . S
O404 C395 1.247 . S
O405 Co392 2.244 . S
O405 C395 1.272 . S
O405 Co397 2.135 . S
Co406 O407 2.216 . S
Co406 O408 2.091 . S
Co406 O410 2.004 . S
Co406 O416 2.021 . S
Co406 O418 2.137 . S
Co406 O419 2.244 . S
O407 Co406 2.216 . S
O407 C414 1.247 . S
O408 Co406 2.091 . S
O408 C414 1.261 . S
C409 O418 1.247 . S
C409 O419 1.272 . S
O410 Co406 2.004 . S
O410 C415 1.259 . S
Co411 O412 2.061 . S
Co411 O417 2.052 . S
Co411 O419 2.135 . S
O412 Co411 2.061 . S
O412 C415 1.235 . S
C413 O416 1.238 . S
C413 O417 1.241 . S
C414 O407 1.247 . S
C414 O408 1.261 . S
C415 O410 1.259 . S
C415 O412 1.235 . S
O416 Co406 2.021 . S
O416 C413 1.238 . S
O417 Co411 2.052 . S
O417 C413 1.241 . S
O418 Co406 2.137 . S
O418 C409 1.247 . S
O419 Co406 2.244 . S
O419 C409 1.272 . S
O419 Co411 2.135 . S
Co420 O421 2.216 . S
Co420 O422 2.091 . S
Co420 O424 2.004 . S
Co420 O430 2.021 . S
Co420 O432 2.137 . S
Co420 O433 2.244 . S
O421 Co420 2.216 . S
O421 C428 1.247 . S
O422 Co420 2.091 . S
O422 C428 1.261 . S
C423 O432 1.247 . S
C423 O433 1.272 . S
O424 Co420 2.004 . S
O424 C429 1.259 . S
Co425 O426 2.061 . S
Co425 O431 2.052 . S
Co425 O433 2.135 . S
O426 Co425 2.061 . S
O426 C429 1.235 . S
C427 O430 1.238 . S
C427 O431 1.241 . S
C428 O421 1.247 . S
C428 O422 1.261 . S
C429 O424 1.259 . S
C429 O426 1.235 . S
O430 Co420 2.021 . S
O430 C427 1.238 . S
O431 Co425 2.052 . S
O431 C427 1.241 . S
O432 Co420 2.137 . S
O432 C423 1.247 . S
O433 Co420 2.244 . S
O433 C423 1.272 . S
O433 Co425 2.135 . S
Co434 O435 2.216 . S
Co434 O436 2.091 . S
Co434 O438 2.004 . S
Co434 O444 2.021 . S
Co434 O446 2.137 . S
Co434 O447 2.244 . S
O435 Co434 2.216 . S
O435 C442 1.247 . S
O436 Co434 2.091 . S
O436 C442 1.261 . S
C437 O446 1.247 . S
C437 O447 1.272 . S
O438 Co434 2.004 . S
O438 C443 1.259 . S
Co439 O440 2.061 . S
Co439 O445 2.052 . S
Co439 O447 2.135 . S
O440 Co439 2.061 . S
O440 C443 1.235 . S
C441 O444 1.238 . S
C441 O445 1.241 . S
C442 O435 1.247 . S
C442 O436 1.261 . S
C443 O438 1.259 . S
C443 O440 1.235 . S
O444 Co434 2.021 . S
O444 C441 1.238 . S
O445 Co439 2.052 . S
O445 C441 1.241 . S
O446 Co434 2.137 . S
O446 C437 1.247 . S
O447 Co434 2.244 . S
O447 C437 1.272 . S
O447 Co439 2.135 . S
H448 C454 0.930 . S
H449 C457 0.930 . S
H450 C458 0.930 . S
H451 C459 0.930 . S
H452 C462 0.930 . S
H453 C463 0.930 . S
C454 H448 0.930 . S
C454 C455 1.355 . S
C454 C456 1.415 . S
C455 C454 1.355 . S
C455 C457 1.419 . S
C456 C454 1.415 . S
C456 C461 1.425 . S
C456 C463 1.409 . S
C457 H449 0.930 . S
C457 C455 1.419 . S
C457 C458 1.362 . S
C458 H450 0.930 . S
C458 C457 1.362 . S
C458 C461 1.409 . S
C459 H451 0.930 . S
C459 C460 1.355 . S
C459 C461 1.415 . S
C460 C459 1.355 . S
C460 C462 1.419 . S
C461 C456 1.425 . S
C461 C458 1.409 . S
C461 C459 1.415 . S
C462 H452 0.930 . S
C462 C460 1.419 . S
C462 C463 1.362 . S
C463 H453 0.930 . S
C463 C456 1.409 . S
C463 C462 1.362 . S
H464 C470 0.930 . S
H465 C473 0.930 . S
H466 C474 0.930 . S
H467 C475 0.930 . S
H468 C478 0.930 . S
H469 C479 0.930 . S
C470 H464 0.930 . S
C470 C471 1.355 . S
C470 C472 1.415 . S
C471 C470 1.355 . S
C471 C473 1.419 . S
C472 C470 1.415 . S
C472 C477 1.425 . S
C472 C479 1.409 . S
C473 H465 0.930 . S
C473 C471 1.419 . S
C473 C474 1.362 . S
C474 H466 0.930 . S
C474 C473 1.362 . S
C474 C477 1.409 . S
C475 H467 0.930 . S
C475 C476 1.355 . S
C475 C477 1.415 . S
C476 C475 1.355 . S
C476 C478 1.419 . S
C477 C472 1.425 . S
C477 C474 1.409 . S
C477 C475 1.415 . S
C478 H468 0.930 . S
C478 C476 1.419 . S
C478 C479 1.362 . S
C479 H469 0.930 . S
C479 C472 1.409 . S
C479 C478 1.362 . S
H480 C486 0.930 . S
H481 C489 0.930 . S
H482 C490 0.930 . S
H483 C491 0.930 . S
H484 C494 0.930 . S
H485 C495 0.930 . S
C486 H480 0.930 . S
C486 C487 1.355 . S
C486 C488 1.415 . S
C487 C486 1.355 . S
C487 C489 1.419 . S
C488 C486 1.415 . S
C488 C493 1.425 . S
C488 C495 1.409 . S
C489 H481 0.930 . S
C489 C487 1.419 . S
C489 C490 1.362 . S
C490 H482 0.930 . S
C490 C489 1.362 . S
C490 C493 1.409 . S
C491 H483 0.930 . S
C491 C492 1.355 . S
C491 C493 1.415 . S
C492 C491 1.355 . S
C492 C494 1.419 . S
C493 C488 1.425 . S
C493 C490 1.409 . S
C493 C491 1.415 . S
C494 H484 0.930 . S
C494 C492 1.419 . S
C494 C495 1.362 . S
C495 H485 0.930 . S
C495 C488 1.409 . S
C495 C494 1.362 . S
H496 C502 0.930 . S
H497 C505 0.930 . S
H498 C506 0.930 . S
H499 C507 0.930 . S
H500 C510 0.930 . S
H501 C511 0.930 . S
C502 H496 0.930 . S
C502 C503 1.355 . S
C502 C504 1.415 . S
C503 C502 1.355 . S
C503 C505 1.419 . S
C504 C502 1.415 . S
C504 C509 1.425 . S
C504 C511 1.409 . S
C505 H497 0.930 . S
C505 C503 1.419 . S
C505 C506 1.362 . S
C506 H498 0.930 . S
C506 C505 1.362 . S
C506 C509 1.409 . S
C507 H499 0.930 . S
C507 C508 1.355 . S
C507 C509 1.415 . S
C508 C507 1.355 . S
C508 C510 1.419 . S
C509 C504 1.425 . S
C509 C506 1.409 . S
C509 C507 1.415 . S
C510 H500 0.930 . S
C510 C508 1.419 . S
C510 C511 1.362 . S
C511 H501 0.930 . S
C511 C504 1.409 . S
C511 C510 1.362 . S
H512 C518 0.930 . S
H513 C521 0.930 . S
H514 C522 0.930 . S
H515 C523 0.930 . S
H516 C526 0.930 . S
H517 C527 0.930 . S
C518 H512 0.930 . S
C518 C519 1.355 . S
C518 C520 1.415 . S
C519 C518 1.355 . S
C519 C521 1.419 . S
C520 C518 1.415 . S
C520 C525 1.425 . S
C520 C527 1.409 . S
C521 H513 0.930 . S
C521 C519 1.419 . S
C521 C522 1.362 . S
C522 H514 0.930 . S
C522 C521 1.362 . S
C522 C525 1.409 . S
C523 H515 0.930 . S
C523 C524 1.355 . S
C523 C525 1.415 . S
C524 C523 1.355 . S
C524 C526 1.419 . S
C525 C520 1.425 . S
C525 C522 1.409 . S
C525 C523 1.415 . S
C526 H516 0.930 . S
C526 C524 1.419 . S
C526 C527 1.362 . S
C527 H517 0.930 . S
C527 C520 1.409 . S
C527 C526 1.362 . S
H528 C534 0.930 . S
H529 C537 0.930 . S
H530 C538 0.930 . S
H531 C539 0.930 . S
H532 C542 0.930 . S
H533 C543 0.930 . S
C534 H528 0.930 . S
C534 C535 1.355 . S
C534 C536 1.415 . S
C535 C534 1.355 . S
C535 C537 1.419 . S
C536 C534 1.415 . S
C536 C541 1.425 . S
C536 C543 1.409 . S
C537 H529 0.930 . S
C537 C535 1.419 . S
C537 C538 1.362 . S
C538 H530 0.930 . S
C538 C537 1.362 . S
C538 C541 1.409 . S
C539 H531 0.930 . S
C539 C540 1.355 . S
C539 C541 1.415 . S
C540 C539 1.355 . S
C540 C542 1.419 . S
C541 C536 1.425 . S
C541 C538 1.409 . S
C541 C539 1.415 . S
C542 H532 0.930 . S
C542 C540 1.419 . S
C542 C543 1.362 . S
C543 H533 0.930 . S
C543 C536 1.409 . S
C543 C542 1.362 . S
H544 C550 0.930 . S
H545 C553 0.930 . S
H546 C554 0.930 . S
H547 C555 0.930 . S
H548 C558 0.930 . S
H549 C559 0.930 . S
C550 H544 0.930 . S
C550 C551 1.355 . S
C550 C552 1.415 . S
C551 C550 1.355 . S
C551 C553 1.419 . S
C552 C550 1.415 . S
C552 C557 1.425 . S
C552 C559 1.409 . S
C553 H545 0.930 . S
C553 C551 1.419 . S
C553 C554 1.362 . S
C554 H546 0.930 . S
C554 C553 1.362 . S
C554 C557 1.409 . S
C555 H547 0.930 . S
C555 C556 1.355 . S
C555 C557 1.415 . S
C556 C555 1.355 . S
C556 C558 1.419 . S
C557 C552 1.425 . S
C557 C554 1.409 . S
C557 C555 1.415 . S
C558 H548 0.930 . S
C558 C556 1.419 . S
C558 C559 1.362 . S
C559 H549 0.930 . S
C559 C552 1.409 . S
C559 C558 1.362 . S
H560 C566 0.930 . S
H561 C569 0.930 . S
H562 C570 0.930 . S
H563 C571 0.930 . S
H564 C574 0.930 . S
H565 C575 0.930 . S
C566 H560 0.930 . S
C566 C567 1.355 . S
C566 C568 1.415 . S
C567 C566 1.355 . S
C567 C569 1.419 . S
C568 C566 1.415 . S
C568 C573 1.425 . S
C568 C575 1.409 . S
C569 H561 0.930 . S
C569 C567 1.419 . S
C569 C570 1.362 . S
C570 H562 0.930 . S
C570 C569 1.362 . S
C570 C573 1.409 . S
C571 H563 0.930 . S
C571 C572 1.355 . S
C571 C573 1.415 . S
C572 C571 1.355 . S
C572 C574 1.419 . S
C573 C568 1.425 . S
C573 C570 1.409 . S
C573 C571 1.415 . S
C574 H564 0.930 . S
C574 C572 1.419 . S
C574 C575 1.362 . S
C575 H565 0.930 . S
C575 C568 1.409 . S
C575 C574 1.362 . S
H576 C582 0.930 . S
H577 C585 0.930 . S
H578 C586 0.930 . S
H579 C587 0.930 . S
H580 C590 0.930 . S
H581 C591 0.930 . S
C582 H576 0.930 . S
C582 C583 1.355 . S
C582 C584 1.415 . S
C583 C582 1.355 . S
C583 C585 1.419 . S
C584 C582 1.415 . S
C584 C589 1.425 . S
C584 C591 1.409 . S
C585 H577 0.930 . S
C585 C583 1.419 . S
C585 C586 1.362 . S
C586 H578 0.930 . S
C586 C585 1.362 . S
C586 C589 1.409 . S
C587 H579 0.930 . S
C587 C588 1.355 . S
C587 C589 1.415 . S
C588 C587 1.355 . S
C588 C590 1.419 . S
C589 C584 1.425 . S
C589 C586 1.409 . S
C589 C587 1.415 . S
C590 H580 0.930 . S
C590 C588 1.419 . S
C590 C591 1.362 . S
C591 H581 0.930 . S
C591 C584 1.409 . S
C591 C590 1.362 . S
H592 C598 0.930 . S
H593 C601 0.930 . S
H594 C602 0.930 . S
H595 C603 0.930 . S
H596 C606 0.930 . S
H597 C607 0.930 . S
C598 H592 0.930 . S
C598 C599 1.355 . S
C598 C600 1.415 . S
C599 C598 1.355 . S
C599 C601 1.419 . S
C600 C598 1.415 . S
C600 C605 1.425 . S
C600 C607 1.409 . S
C601 H593 0.930 . S
C601 C599 1.419 . S
C601 C602 1.362 . S
C602 H594 0.930 . S
C602 C601 1.362 . S
C602 C605 1.409 . S
C603 H595 0.930 . S
C603 C604 1.355 . S
C603 C605 1.415 . S
C604 C603 1.355 . S
C604 C606 1.419 . S
C605 C600 1.425 . S
C605 C602 1.409 . S
C605 C603 1.415 . S
C606 H596 0.930 . S
C606 C604 1.419 . S
C606 C607 1.362 . S
C607 H597 0.930 . S
C607 C600 1.409 . S
C607 C606 1.362 . S
H608 C614 0.930 . S
H609 C617 0.930 . S
H610 C618 0.930 . S
H611 C619 0.930 . S
H612 C622 0.930 . S
H613 C623 0.930 . S
C614 H608 0.930 . S
C614 C615 1.355 . S
C614 C616 1.415 . S
C615 C614 1.355 . S
C615 C617 1.419 . S
C616 C614 1.415 . S
C616 C621 1.425 . S
C616 C623 1.409 . S
C617 H609 0.930 . S
C617 C615 1.419 . S
C617 C618 1.362 . S
C618 H610 0.930 . S
C618 C617 1.362 . S
C618 C621 1.409 . S
C619 H611 0.930 . S
C619 C620 1.355 . S
C619 C621 1.415 . S
C620 C619 1.355 . S
C620 C622 1.419 . S
C621 C616 1.425 . S
C621 C618 1.409 . S
C621 C619 1.415 . S
C622 H612 0.930 . S
C622 C620 1.419 . S
C622 C623 1.362 . S
C623 H613 0.930 . S
C623 C616 1.409 . S
C623 C622 1.362 . S
H624 C630 0.930 . S
H625 C633 0.930 . S
H626 C634 0.930 . S
H627 C635 0.930 . S
H628 C638 0.930 . S
H629 C639 0.930 . S
C630 H624 0.930 . S
C630 C631 1.355 . S
C630 C632 1.415 . S
C631 C630 1.355 . S
C631 C633 1.419 . S
C632 C630 1.415 . S
C632 C637 1.425 . S
C632 C639 1.409 . S
C633 H625 0.930 . S
C633 C631 1.419 . S
C633 C634 1.362 . S
C634 H626 0.930 . S
C634 C633 1.362 . S
C634 C637 1.409 . S
C635 H627 0.930 . S
C635 C636 1.355 . S
C635 C637 1.415 . S
C636 C635 1.355 . S
C636 C638 1.419 . S
C637 C632 1.425 . S
C637 C634 1.409 . S
C637 C635 1.415 . S
C638 H628 0.930 . S
C638 C636 1.419 . S
C638 C639 1.362 . S
C639 H629 0.930 . S
C639 C632 1.409 . S
C639 C638 1.362 . S
H640 C646 0.930 . S
H641 C649 0.930 . S
H642 C650 0.930 . S
H643 C651 0.930 . S
H644 C654 0.930 . S
H645 C655 0.930 . S
C646 H640 0.930 . S
C646 C647 1.355 . S
C646 C648 1.415 . S
C647 C646 1.355 . S
C647 C649 1.419 . S
C648 C646 1.415 . S
C648 C653 1.425 . S
C648 C655 1.409 . S
C649 H641 0.930 . S
C649 C647 1.419 . S
C649 C650 1.362 . S
C650 H642 0.930 . S
C650 C649 1.362 . S
C650 C653 1.409 . S
C651 H643 0.930 . S
C651 C652 1.355 . S
C651 C653 1.415 . S
C652 C651 1.355 . S
C652 C654 1.419 . S
C653 C648 1.425 . S
C653 C650 1.409 . S
C653 C651 1.415 . S
C654 H644 0.930 . S
C654 C652 1.419 . S
C654 C655 1.362 . S
C655 H645 0.930 . S
C655 C648 1.409 . S
C655 C654 1.362 . S
H656 C662 0.930 . S
H657 C665 0.930 . S
H658 C666 0.930 . S
H659 C667 0.930 . S
H660 C670 0.930 . S
H661 C671 0.930 . S
C662 H656 0.930 . S
C662 C663 1.355 . S
C662 C664 1.415 . S
C663 C662 1.355 . S
C663 C665 1.419 . S
C664 C662 1.415 . S
C664 C669 1.425 . S
C664 C671 1.409 . S
C665 H657 0.930 . S
C665 C663 1.419 . S
C665 C666 1.362 . S
C666 H658 0.930 . S
C666 C665 1.362 . S
C666 C669 1.409 . S
C667 H659 0.930 . S
C667 C668 1.355 . S
C667 C669 1.415 . S
C668 C667 1.355 . S
C668 C670 1.419 . S
C669 C664 1.425 . S
C669 C666 1.409 . S
C669 C667 1.415 . S
C670 H660 0.930 . S
C670 C668 1.419 . S
C670 C671 1.362 . S
C671 H661 0.930 . S
C671 C664 1.409 . S
C671 C670 1.362 . S
H672 C678 0.930 . S
H673 C681 0.930 . S
H674 C682 0.930 . S
H675 C683 0.930 . S
H676 C686 0.930 . S
H677 C687 0.930 . S
C678 H672 0.930 . S
C678 C679 1.355 . S
C678 C680 1.415 . S
C679 C678 1.355 . S
C679 C681 1.419 . S
C680 C678 1.415 . S
C680 C685 1.425 . S
C680 C687 1.409 . S
C681 H673 0.930 . S
C681 C679 1.419 . S
C681 C682 1.362 . S
C682 H674 0.930 . S
C682 C681 1.362 . S
C682 C685 1.409 . S
C683 H675 0.930 . S
C683 C684 1.355 . S
C683 C685 1.415 . S
C684 C683 1.355 . S
C684 C686 1.419 . S
C685 C680 1.425 . S
C685 C682 1.409 . S
C685 C683 1.415 . S
C686 H676 0.930 . S
C686 C684 1.419 . S
C686 C687 1.362 . S
C687 H677 0.930 . S
C687 C680 1.409 . S
C687 C686 1.362 . S
H688 C694 0.930 . S
H689 C697 0.930 . S
H690 C698 0.930 . S
H691 C699 0.930 . S
H692 C702 0.930 . S
H693 C703 0.930 . S
C694 H688 0.930 . S
C694 C695 1.355 . S
C694 C696 1.415 . S
C695 C694 1.355 . S
C695 C697 1.419 . S
C696 C694 1.415 . S
C696 C701 1.425 . S
C696 C703 1.409 . S
C697 H689 0.930 . S
C697 C695 1.419 . S
C697 C698 1.362 . S
C698 H690 0.930 . S
C698 C697 1.362 . S
C698 C701 1.409 . S
C699 H691 0.930 . S
C699 C700 1.355 . S
C699 C701 1.415 . S
C700 C699 1.355 . S
C700 C702 1.419 . S
C701 C696 1.425 . S
C701 C698 1.409 . S
C701 C699 1.415 . S
C702 H692 0.930 . S
C702 C700 1.419 . S
C702 C703 1.362 . S
C703 H693 0.930 . S
C703 C696 1.409 . S
C703 C702 1.362 . S
H704 C710 0.930 . S
H705 C713 0.930 . S
H706 C714 0.930 . S
H707 C715 0.930 . S
H708 C718 0.930 . S
H709 C719 0.930 . S
C710 H704 0.930 . S
C710 C711 1.355 . S
C710 C712 1.415 1_455 S
C711 C710 1.355 . S
C711 C713 1.419 . S
C712 C710 1.415 1_655 S
C712 C717 1.425 1_655 S
C712 C719 1.409 . S
C713 H705 0.930 . S
C713 C711 1.419 . S
C713 C714 1.362 . S
C714 H706 0.930 . S
C714 C713 1.362 . S
C714 C717 1.409 . S
C715 H707 0.930 . S
C715 C716 1.355 . S
C715 C717 1.415 1_655 S
C716 C715 1.355 . S
C716 C718 1.419 . S
C717 C712 1.425 1_455 S
C717 C714 1.409 . S
C717 C715 1.415 1_455 S
C718 H708 0.930 . S
C718 C716 1.419 . S
C718 C719 1.362 . S
C719 H709 0.930 . S
C719 C712 1.409 . S
C719 C718 1.362 . S
H720 C726 0.930 . S
H721 C729 0.930 . S
H722 C730 0.930 . S
H723 C731 0.930 . S
H724 C734 0.930 . S
H725 C735 0.930 . S
C726 H720 0.930 . S
C726 C727 1.355 . S
C726 C728 1.415 . S
C727 C726 1.355 . S
C727 C729 1.419 . S
C728 C726 1.415 . S
C728 C733 1.425 1_545 S
C728 C735 1.409 . S
C729 H721 0.930 . S
C729 C727 1.419 . S
C729 C730 1.362 1_545 S
C730 H722 0.930 . S
C730 C729 1.362 1_565 S
C730 C733 1.409 . S
C731 H723 0.930 . S
C731 C732 1.355 . S
C731 C733 1.415 . S
C732 C731 1.355 . S
C732 C734 1.419 . S
C733 C728 1.425 1_565 S
C733 C730 1.409 . S
C733 C731 1.415 . S
C734 H724 0.930 . S
C734 C732 1.419 . S
C734 C735 1.362 1_565 S
C735 H725 0.930 . S
C735 C728 1.409 . S
C735 C734 1.362 1_545 S
H736 C742 0.956 . S
H737 C745 0.930 . S
H738 C746 0.930 . S
H739 C747 0.956 . S
H740 C750 0.930 . S
H741 C751 0.930 . S
C742 H736 0.956 . S
C742 C743 1.319 1_554 S
C742 C744 1.426 . S
C743 C742 1.319 1_556 S
C743 C745 1.419 . S
C744 C742 1.426 . S
C744 C749 1.425 1_444 S
C744 C751 1.409 1_455 S
C745 H737 0.930 . S
C745 C743 1.419 . S
C745 C746 1.362 1_545 S
C746 H738 0.930 . S
C746 C745 1.362 1_565 S
C746 C749 1.409 1_455 S
C747 H739 0.956 . S
C747 C748 1.319 1_556 S
C747 C749 1.426 . S
C748 C747 1.319 1_554 S
C748 C750 1.419 . S
C749 C744 1.425 1_666 S
C749 C746 1.409 1_655 S
C749 C747 1.426 . S
C750 H740 0.930 . S
C750 C748 1.419 . S
C750 C751 1.362 1_565 S
C751 H741 0.930 . S
C751 C744 1.409 1_655 S
C751 C750 1.362 1_545 S
H752 C758 0.929 . S
H753 C761 0.930 . S
H754 C762 0.930 . S
H755 C763 0.929 . S
H756 C766 0.930 . S
H757 C767 0.930 . S
C758 H752 0.929 . S
C758 C759 1.355 . S
C758 C760 1.415 1_556 S
C759 C758 1.355 . S
C759 C761 1.419 . S
C760 C758 1.415 1_554 S
C760 C765 1.425 1_554 S
C760 C767 1.409 . S
C761 H753 0.930 . S
C761 C759 1.419 . S
C761 C762 1.362 . S
C762 H754 0.930 . S
C762 C761 1.362 . S
C762 C765 1.409 . S
C763 H755 0.929 . S
C763 C764 1.355 . S
C763 C765 1.415 1_554 S
C764 C763 1.355 . S
C764 C766 1.419 . S
C765 C760 1.425 1_556 S
C765 C762 1.409 . S
C765 C763 1.415 1_556 S
C766 H756 0.930 . S
C766 C764 1.419 . S
C766 C767 1.362 . S
C767 H757 0.930 . S
C767 C760 1.409 . S
C767 C766 1.362 . S
H768 C774 0.930 . S
H769 C777 0.930 . S
H770 C778 0.930 . S
H771 C779 0.930 . S
H772 C782 0.930 . S
H773 C783 0.930 . S
C774 H768 0.930 . S
C774 C775 1.355 . S
C774 C776 1.415 . S
C775 C774 1.355 . S
C775 C777 1.419 . S
C776 C774 1.415 . S
C776 C781 1.425 1_655 S
C776 C783 1.409 . S
C777 H769 0.930 . S
C777 C775 1.419 . S
C777 C778 1.362 1_655 S
C778 H770 0.930 . S
C778 C777 1.362 1_455 S
C778 C781 1.409 . S
C779 H771 0.930 . S
C779 C780 1.355 . S
C779 C781 1.415 . S
C780 C779 1.355 . S
C780 C782 1.419 . S
C781 C776 1.425 1_455 S
C781 C778 1.409 . S
C781 C779 1.415 . S
C782 H772 0.930 . S
C782 C780 1.419 . S
C782 C783 1.362 1_455 S
C783 H773 0.930 . S
C783 C776 1.409 . S
C783 C782 1.362 1_655 S
H784 C790 0.930 . S
H785 C793 0.930 . S
H786 C794 0.930 . S
H787 C795 0.930 . S
H788 C798 0.930 . S
H789 C799 0.930 . S
C790 H784 0.930 . S
C790 C791 1.355 . S
C790 C792 1.415 . S
C791 C790 1.355 . S
C791 C793 1.419 1_545 S
C792 C790 1.415 . S
C792 C797 1.425 1_545 S
C792 C799 1.409 . S
C793 H785 0.930 . S
C793 C791 1.419 1_565 S
C793 C794 1.362 . S
C794 H786 0.930 . S
C794 C793 1.362 . S
C794 C797 1.409 . S
C795 H787 0.930 . S
C795 C796 1.355 . S
C795 C797 1.415 . S
C796 C795 1.355 . S
C796 C798 1.419 1_565 S
C797 C792 1.425 1_565 S
C797 C794 1.409 . S
C797 C795 1.415 . S
C798 H788 0.930 . S
C798 C796 1.419 1_545 S
C798 C799 1.362 . S
C799 H789 0.930 . S
C799 C792 1.409 . S
C799 C798 1.362 . S
H800 C806 0.930 . S
H801 C809 0.930 . S
H802 C810 0.930 . S
H803 C811 0.930 . S
H804 C814 0.930 . S
H805 C815 0.930 . S
C806 H800 0.930 . S
C806 C807 1.355 . S
C806 C808 1.415 . S
C807 C806 1.355 . S
C807 C809 1.419 1_556 S
C808 C806 1.415 . S
C808 C813 1.425 1_556 S
C808 C815 1.409 . S
C809 H801 0.930 . S
C809 C807 1.419 1_554 S
C809 C810 1.362 . S
C810 H802 0.930 . S
C810 C809 1.362 . S
C810 C813 1.409 . S
C811 H803 0.930 . S
C811 C812 1.355 . S
C811 C813 1.415 . S
C812 C811 1.355 . S
C812 C814 1.419 1_554 S
C813 C808 1.425 1_554 S
C813 C810 1.409 . S
C813 C811 1.415 . S
C814 H804 0.930 . S
C814 C812 1.419 1_556 S
C814 C815 1.362 . S
C815 H805 0.930 . S
C815 C808 1.409 . S
C815 C814 1.362 . S
H816 C822 0.930 . S
H817 C825 0.930 . S
H818 C826 0.930 . S
H819 C827 0.930 . S
H820 C830 0.930 . S
H821 C831 0.930 . S
C822 H816 0.930 . S
C822 C823 1.355 . S
C822 C824 1.415 . S
C823 C822 1.355 . S
C823 C825 1.419 . S
C824 C822 1.415 . S
C824 C829 1.425 . S
C824 C831 1.409 . S
C825 H817 0.930 . S
C825 C823 1.419 . S
C825 C826 1.362 . S
C826 H818 0.930 . S
C826 C825 1.362 . S
C826 C829 1.409 . S
C827 H819 0.930 . S
C827 C828 1.355 . S
C827 C829 1.415 . S
C828 C827 1.355 . S
C828 C830 1.419 . S
C829 C824 1.425 . S
C829 C826 1.409 . S
C829 C827 1.415 . S
C830 H820 0.930 . S
C830 C828 1.419 . S
C830 C831 1.362 . S
C831 H821 0.930 . S
C831 C824 1.409 . S
C831 C830 1.362 . S
H832 C838 0.930 . S
H833 C841 0.930 . S
H834 C842 0.930 . S
H835 C843 0.930 . S
H836 C846 0.930 . S
H837 C847 0.930 . S
C838 H832 0.930 . S
C838 C839 1.355 . S
C838 C840 1.415 1_455 S
C839 C838 1.355 . S
C839 C841 1.419 . S
C840 C838 1.415 1_655 S
C840 C845 1.425 1_655 S
C840 C847 1.409 . S
C841 H833 0.930 . S
C841 C839 1.419 . S
C841 C842 1.362 . S
C842 H834 0.930 . S
C842 C841 1.362 . S
C842 C845 1.409 . S
C843 H835 0.930 . S
C843 C844 1.355 . S
C843 C845 1.415 1_655 S
C844 C843 1.355 . S
C844 C846 1.419 . S
C845 C840 1.425 1_455 S
C845 C842 1.409 . S
C845 C843 1.415 1_455 S
C846 H836 0.930 . S
C846 C844 1.419 . S
C846 C847 1.362 . S
C847 H837 0.930 . S
C847 C840 1.409 . S
C847 C846 1.362 . S
H848 C854 0.930 . S
H849 C857 0.930 . S
H850 C858 0.930 . S
H851 C859 0.930 . S
H852 C862 0.930 . S
H853 C863 0.930 . S
C854 H848 0.930 . S
C854 C855 1.355 . S
C854 C856 1.415 . S
C855 C854 1.355 . S
C855 C857 1.419 . S
C856 C854 1.415 . S
C856 C861 1.425 . S
C856 C863 1.409 . S
C857 H849 0.930 . S
C857 C855 1.419 . S
C857 C858 1.362 . S
C858 H850 0.930 . S
C858 C857 1.362 . S
C858 C861 1.409 . S
C859 H851 0.930 . S
C859 C860 1.355 . S
C859 C861 1.415 . S
C860 C859 1.355 . S
C860 C862 1.419 . S
C861 C856 1.425 . S
C861 C858 1.409 . S
C861 C859 1.415 . S
C862 H852 0.930 . S
C862 C860 1.419 . S
C862 C863 1.362 . S
C863 H853 0.930 . S
C863 C856 1.409 . S
C863 C862 1.362 . S
H864 C870 0.930 . S
H865 C873 0.930 . S
H866 C874 0.930 . S
H867 C875 0.930 . S
H868 C878 0.930 . S
H869 C879 0.930 . S
C870 H864 0.930 . S
C870 C871 1.355 . S
C870 C872 1.415 . S
C871 C870 1.355 . S
C871 C873 1.419 . S
C872 C870 1.415 . S
C872 C877 1.425 . S
C872 C879 1.409 . S
C873 H865 0.930 . S
C873 C871 1.419 . S
C873 C874 1.362 . S
C874 H866 0.930 . S
C874 C873 1.362 . S
C874 C877 1.409 . S
C875 H867 0.930 . S
C875 C876 1.355 . S
C875 C877 1.415 . S
C876 C875 1.355 . S
C876 C878 1.419 . S
C877 C872 1.425 . S
C877 C874 1.409 . S
C877 C875 1.415 . S
C878 H868 0.930 . S
C878 C876 1.419 . S
C878 C879 1.362 . S
C879 H869 0.930 . S
C879 C872 1.409 . S
C879 C878 1.362 . S
H880 C886 0.930 . S
H881 C889 0.930 . S
H882 C890 0.930 . S
H883 C891 0.930 . S
H884 C894 0.930 . S
H885 C895 0.930 . S
C886 H880 0.930 . S
C886 C887 1.355 . S
C886 C888 1.415 . S
C887 C886 1.355 . S
C887 C889 1.419 . S
C888 C886 1.415 . S
C888 C893 1.425 . S
C888 C895 1.409 . S
C889 H881 0.930 . S
C889 C887 1.419 . S
C889 C890 1.362 . S
C890 H882 0.930 . S
C890 C889 1.362 . S
C890 C893 1.409 . S
C891 H883 0.930 . S
C891 C892 1.355 . S
C891 C893 1.415 . S
C892 C891 1.355 . S
C892 C894 1.419 . S
C893 C888 1.425 . S
C893 C890 1.409 . S
C893 C891 1.415 . S
C894 H884 0.930 . S
C894 C892 1.419 . S
C894 C895 1.362 . S
C895 H885 0.930 . S
C895 C888 1.409 . S
C895 C894 1.362 . S
H896 C902 0.930 . S
H897 C905 0.930 . S
H898 C906 0.930 . S
H899 C907 0.930 . S
H900 C910 0.930 . S
H901 C911 0.930 . S
C902 H896 0.930 . S
C902 C903 1.355 . S
C902 C904 1.415 . S
C903 C902 1.355 . S
C903 C905 1.419 . S
C904 C902 1.415 . S
C904 C909 1.425 . S
C904 C911 1.409 . S
C905 H897 0.930 . S
C905 C903 1.419 . S
C905 C906 1.362 . S
C906 H898 0.930 . S
C906 C905 1.362 . S
C906 C909 1.409 . S
C907 H899 0.930 . S
C907 C908 1.355 . S
C907 C909 1.415 . S
C908 C907 1.355 . S
C908 C910 1.419 . S
C909 C904 1.425 . S
C909 C906 1.409 . S
C909 C907 1.415 . S
C910 H900 0.930 . S
C910 C908 1.419 . S
C910 C911 1.362 . S
C911 H901 0.930 . S
C911 C904 1.409 . S
C911 C910 1.362 . S
H912 C918 0.930 . S
H913 C921 0.930 . S
H914 C922 0.930 1_545 S
H915 C923 0.930 . S
H916 C926 0.930 . S
H917 C927 0.930 1_565 S
C918 H912 0.930 . S
C918 C919 1.355 . S
C918 C920 1.415 . S
C919 C918 1.355 . S
C919 C921 1.419 . S
C920 C918 1.415 . S
C920 C925 1.425 1_565 S
C920 C927 1.409 1_565 S
C921 H913 0.930 . S
C921 C919 1.419 . S
C921 C922 1.362 . S
C922 H914 0.930 1_565 S
C922 C921 1.362 . S
C922 C925 1.409 1_565 S
C923 H915 0.930 . S
C923 C924 1.355 . S
C923 C925 1.415 . S
C924 C923 1.355 . S
C924 C926 1.419 . S
C925 C920 1.425 1_545 S
C925 C922 1.409 1_545 S
C925 C923 1.415 . S
C926 H916 0.930 . S
C926 C924 1.419 . S
C926 C927 1.362 . S
C927 H917 0.930 1_545 S
C927 C920 1.409 1_545 S
C927 C926 1.362 . S
H928 C934 0.930 . S
H929 C937 0.930 . S
H930 C938 0.930 . S
H931 C939 0.930 . S
H932 C942 0.930 . S
H933 C943 0.930 . S
C934 H928 0.930 . S
C934 C935 1.355 . S
C934 C936 1.415 . S
C935 C934 1.355 . S
C935 C937 1.419 . S
C936 C934 1.415 . S
C936 C941 1.425 . S
C936 C943 1.409 . S
C937 H929 0.930 . S
C937 C935 1.419 . S
C937 C938 1.362 . S
C938 H930 0.930 . S
C938 C937 1.362 . S
C938 C941 1.409 . S
C939 H931 0.930 . S
C939 C940 1.355 . S
C939 C941 1.415 . S
C940 C939 1.355 . S
C940 C942 1.419 . S
C941 C936 1.425 . S
C941 C938 1.409 . S
C941 C939 1.415 . S
C942 H932 0.930 . S
C942 C940 1.419 . S
C942 C943 1.362 . S
C943 H933 0.930 . S
C943 C936 1.409 . S
C943 C942 1.362 . S
H944 C950 0.930 . S
H945 C953 0.938 . S
H946 C954 0.930 . S
H947 C955 0.930 . S
H948 C958 0.938 . S
H949 C959 0.930 . S
C950 H944 0.930 . S
C950 C951 1.355 . S
C950 C952 1.415 . S
C951 C950 1.355 . S
C951 C953 1.393 1_554 S
C952 C950 1.415 . S
C952 C957 1.425 1_554 S
C952 C959 1.409 . S
C953 H945 0.938 . S
C953 C951 1.393 1_556 S
C953 C954 1.382 . S
C954 H946 0.930 . S
C954 C953 1.382 . S
C954 C957 1.409 . S
C955 H947 0.930 . S
C955 C956 1.355 . S
C955 C957 1.415 . S
C956 C955 1.355 . S
C956 C958 1.393 1_556 S
C957 C952 1.425 1_556 S
C957 C954 1.409 . S
C957 C955 1.415 . S
C958 H948 0.938 . S
C958 C956 1.393 1_554 S
C958 C959 1.382 . S
C959 H949 0.930 . S
C959 C952 1.409 . S
C959 C958 1.382 . S
H960 C966 0.930 . S
H961 C969 0.930 . S
H962 C970 0.930 . S
H963 C971 0.930 . S
H964 C974 0.930 . S
H965 C975 0.930 . S
C966 H960 0.930 . S
C966 C967 1.355 . S
C966 C968 1.415 . S
C967 C966 1.355 . S
C967 C969 1.419 . S
C968 C966 1.415 . S
C968 C973 1.425 . S
C968 C975 1.409 . S
C969 H961 0.930 . S
C969 C967 1.419 . S
C969 C970 1.362 . S
C970 H962 0.930 . S
C970 C969 1.362 . S
C970 C973 1.409 . S
C971 H963 0.930 . S
C971 C972 1.355 . S
C971 C973 1.415 . S
C972 C971 1.355 . S
C972 C974 1.419 . S
C973 C968 1.425 . S
C973 C970 1.409 . S
C973 C971 1.415 . S
C974 H964 0.930 . S
C974 C972 1.419 . S
C974 C975 1.362 . S
C975 H965 0.930 . S
C975 C968 1.409 . S
C975 C974 1.362 . S
H976 C982 0.930 . S
H977 C985 0.930 . S
H978 C986 0.930 . S
H979 C987 0.930 . S
H980 C990 0.930 . S
H981 C991 0.930 . S
C982 H976 0.930 . S
C982 C983 1.355 . S
C982 C984 1.415 . S
C983 C982 1.355 . S
C983 C985 1.419 . S
C984 C982 1.415 . S
C984 C989 1.425 . S
C984 C991 1.409 . S
C985 H977 0.930 . S
C985 C983 1.419 . S
C985 C986 1.362 . S
C986 H978 0.930 . S
C986 C985 1.362 . S
C986 C989 1.409 . S
C987 H979 0.930 . S
C987 C988 1.355 . S
C987 C989 1.415 . S
C988 C987 1.355 . S
C988 C990 1.419 . S
C989 C984 1.425 . S
C989 C986 1.409 . S
C989 C987 1.415 . S
C990 H980 0.930 . S
C990 C988 1.419 . S
C990 C991 1.362 . S
C991 H981 0.930 . S
C991 C984 1.409 . S
C991 C990 1.362 . S
H992 C998 0.930 . S
H993 C1001 0.930 1_545 S
H994 C1002 0.930 . S
H995 C1003 0.930 . S
H996 C1006 0.930 . S
H997 C1007 0.930 . S
C998 H992 0.930 . S
C998 C999 1.355 . S
C998 C1000 1.415 . S
C999 C998 1.355 . S
C999 C1001 1.419 . S
C1000 C998 1.415 . S
C1000 C1005 1.425 . S
C1000 C1007 1.409 . S
C1001 H993 0.930 1_565 S
C1001 C999 1.419 . S
C1001 C1002 1.362 . S
C1002 H994 0.930 . S
C1002 C1001 1.362 . S
C1002 C1005 1.409 . S
C1003 H995 0.930 . S
C1003 C1004 1.355 . S
C1003 C1005 1.415 . S
C1004 C1003 1.355 . S
C1004 C1006 1.419 . S
C1005 C1000 1.425 . S
C1005 C1002 1.409 . S
C1005 C1003 1.415 . S
C1006 H996 0.930 . S
C1006 C1004 1.419 . S
C1006 C1007 1.362 . S
C1007 H997 0.930 . S
C1007 C1000 1.409 . S
C1007 C1006 1.362 . S
H1008 C1014 0.930 . S
H1009 C1017 0.930 . S
H1010 C1018 0.930 . S
H1011 C1019 0.930 . S
H1012 C1022 0.930 . S
H1013 C1023 0.930 . S
C1014 H1008 0.930 . S
C1014 C1015 1.355 . S
C1014 C1016 1.415 . S
C1015 C1014 1.355 . S
C1015 C1017 1.419 . S
C1016 C1014 1.415 . S
C1016 C1021 1.425 . S
C1016 C1023 1.409 . S
C1017 H1009 0.930 . S
C1017 C1015 1.419 . S
C1017 C1018 1.362 . S
C1018 H1010 0.930 . S
C1018 C1017 1.362 . S
C1018 C1021 1.409 . S
C1019 H1011 0.930 . S
C1019 C1020 1.355 . S
C1019 C1021 1.415 . S
C1020 C1019 1.355 . S
C1020 C1022 1.419 . S
C1021 C1016 1.425 . S
C1021 C1018 1.409 . S
C1021 C1019 1.415 . S
C1022 H1012 0.930 . S
C1022 C1020 1.419 . S
C1022 C1023 1.362 . S
C1023 H1013 0.930 . S
C1023 C1016 1.409 . S
C1023 C1022 1.362 . S
H1024 C1030 0.930 . S
H1025 C1033 0.930 . S
H1026 C1034 0.930 . S
H1027 C1035 0.930 . S
H1028 C1038 0.930 . S
H1029 C1039 0.930 . S
C1030 H1024 0.930 . S
C1030 C1031 1.355 . S
C1030 C1032 1.415 . S
C1031 C1030 1.355 . S
C1031 C1033 1.419 . S
C1032 C1030 1.415 . S
C1032 C1037 1.425 . S
C1032 C1039 1.409 . S
C1033 H1025 0.930 . S
C1033 C1031 1.419 . S
C1033 C1034 1.362 . S
C1034 H1026 0.930 . S
C1034 C1033 1.362 . S
C1034 C1037 1.409 . S
C1035 H1027 0.930 . S
C1035 C1036 1.355 . S
C1035 C1037 1.415 . S
C1036 C1035 1.355 . S
C1036 C1038 1.419 . S
C1037 C1032 1.425 . S
C1037 C1034 1.409 . S
C1037 C1035 1.415 . S
C1038 H1028 0.930 . S
C1038 C1036 1.419 . S
C1038 C1039 1.362 . S
C1039 H1029 0.930 . S
C1039 C1032 1.409 . S
C1039 C1038 1.362 . S
H1040 C1046 0.930 . S
H1041 C1049 0.930 1_565 S
H1042 C1050 0.930 . S
H1043 C1051 0.930 . S
H1044 C1054 0.930 . S
H1045 C1055 0.930 . S
C1046 H1040 0.930 . S
C1046 C1047 1.355 . S
C1046 C1048 1.415 . S
C1047 C1046 1.355 . S
C1047 C1049 1.419 . S
C1048 C1046 1.415 . S
C1048 C1053 1.425 . S
C1048 C1055 1.409 . S
C1049 H1041 0.930 1_545 S
C1049 C1047 1.419 . S
C1049 C1050 1.362 . S
C1050 H1042 0.930 . S
C1050 C1049 1.362 . S
C1050 C1053 1.409 . S
C1051 H1043 0.930 . S
C1051 C1052 1.355 . S
C1051 C1053 1.415 . S
C1052 C1051 1.355 . S
C1052 C1054 1.419 . S
C1053 C1048 1.425 . S
C1053 C1050 1.409 . S
C1053 C1051 1.415 . S
C1054 H1044 0.930 . S
C1054 C1052 1.419 . S
C1054 C1055 1.362 . S
C1055 H1045 0.930 . S
C1055 C1048 1.409 . S
C1055 C1054 1.362 . S
H1056 C1062 0.930 . S
H1057 C1065 0.930 . S
H1058 C1066 0.930 . S
H1059 C1067 0.930 . S
H1060 C1070 0.930 . S
H1061 C1071 0.930 . S
C1062 H1056 0.930 . S
C1062 C1063 1.355 . S
C1062 C1064 1.415 . S
C1063 C1062 1.355 . S
C1063 C1065 1.419 . S
C1064 C1062 1.415 . S
C1064 C1069 1.425 . S
C1064 C1071 1.409 . S
C1065 H1057 0.930 . S
C1065 C1063 1.419 . S
C1065 C1066 1.362 . S
C1066 H1058 0.930 . S
C1066 C1065 1.362 . S
C1066 C1069 1.409 . S
C1067 H1059 0.930 . S
C1067 C1068 1.355 . S
C1067 C1069 1.415 . S
C1068 C1067 1.355 . S
C1068 C1070 1.419 . S
C1069 C1064 1.425 . S
C1069 C1066 1.409 . S
C1069 C1067 1.415 . S
C1070 H1060 0.930 . S
C1070 C1068 1.419 . S
C1070 C1071 1.362 . S
C1071 H1061 0.930 . S
C1071 C1064 1.409 . S
C1071 C1070 1.362 . S
H1072 C1078 0.930 . S
H1073 C1081 0.930 . S
H1074 C1082 0.930 . S
H1075 C1083 0.930 . S
H1076 C1086 0.930 . S
H1077 C1087 0.930 . S
C1078 H1072 0.930 . S
C1078 C1079 1.355 . S
C1078 C1080 1.415 . S
C1079 C1078 1.355 . S
C1079 C1081 1.419 . S
C1080 C1078 1.415 . S
C1080 C1085 1.425 . S
C1080 C1087 1.409 . S
C1081 H1073 0.930 . S
C1081 C1079 1.419 . S
C1081 C1082 1.362 . S
C1082 H1074 0.930 . S
C1082 C1081 1.362 . S
C1082 C1085 1.409 . S
C1083 H1075 0.930 . S
C1083 C1084 1.355 . S
C1083 C1085 1.415 . S
C1084 C1083 1.355 . S
C1084 C1086 1.419 . S
C1085 C1080 1.425 . S
C1085 C1082 1.409 . S
C1085 C1083 1.415 . S
C1086 H1076 0.930 . S
C1086 C1084 1.419 . S
C1086 C1087 1.362 . S
C1087 H1077 0.930 . S
C1087 C1080 1.409 . S
C1087 C1086 1.362 . S
H1088 C1094 0.930 . S
H1089 C1097 0.930 . S
H1090 C1098 0.930 . S
H1091 C1099 0.930 . S
H1092 C1102 0.930 . S
H1093 C1103 0.930 . S
C1094 H1088 0.930 . S
C1094 C1095 1.355 . S
C1094 C1096 1.415 . S
C1095 C1094 1.355 . S
C1095 C1097 1.419 . S
C1096 C1094 1.415 . S
C1096 C1101 1.425 . S
C1096 C1103 1.409 . S
C1097 H1089 0.930 . S
C1097 C1095 1.419 . S
C1097 C1098 1.362 . S
C1098 H1090 0.930 . S
C1098 C1097 1.362 . S
C1098 C1101 1.409 . S
C1099 H1091 0.930 . S
C1099 C1100 1.355 . S
C1099 C1101 1.415 . S
C1100 C1099 1.355 . S
C1100 C1102 1.419 . S
C1101 C1096 1.425 . S
C1101 C1098 1.409 . S
C1101 C1099 1.415 . S
C1102 H1092 0.930 . S
C1102 C1100 1.419 . S
C1102 C1103 1.362 . S
C1103 H1093 0.930 . S
C1103 C1096 1.409 . S
C1103 C1102 1.362 . S
H1104 C1110 0.930 . S
H1105 C1113 0.930 . S
H1106 C1114 0.930 . S
H1107 C1115 0.930 . S
H1108 C1118 0.930 . S
H1109 C1119 0.930 . S
C1110 H1104 0.930 . S
C1110 C1111 1.355 . S
C1110 C1112 1.415 . S
C1111 C1110 1.355 . S
C1111 C1113 1.419 . S
C1112 C1110 1.415 . S
C1112 C1117 1.425 . S
C1112 C1119 1.409 . S
C1113 H1105 0.930 . S
C1113 C1111 1.419 . S
C1113 C1114 1.362 . S
C1114 H1106 0.930 . S
C1114 C1113 1.362 . S
C1114 C1117 1.409 . S
C1115 H1107 0.930 . S
C1115 C1116 1.355 . S
C1115 C1117 1.415 . S
C1116 C1115 1.355 . S
C1116 C1118 1.419 . S
C1117 C1112 1.425 . S
C1117 C1114 1.409 . S
C1117 C1115 1.415 . S
C1118 H1108 0.930 . S
C1118 C1116 1.419 . S
C1118 C1119 1.362 . S
C1119 H1109 0.930 . S
C1119 C1112 1.409 . S
C1119 C1118 1.362 . S
H1120 C1126 0.930 . S
H1121 C1129 0.930 . S
H1122 C1130 0.930 . S
H1123 C1131 0.930 . S
H1124 C1134 0.930 . S
H1125 C1135 0.930 . S
C1126 H1120 0.930 . S
C1126 C1127 1.355 . S
C1126 C1128 1.415 . S
C1127 C1126 1.355 . S
C1127 C1129 1.419 . S
C1128 C1126 1.415 . S
C1128 C1133 1.425 . S
C1128 C1135 1.409 . S
C1129 H1121 0.930 . S
C1129 C1127 1.419 . S
C1129 C1130 1.362 . S
C1130 H1122 0.930 . S
C1130 C1129 1.362 . S
C1130 C1133 1.409 . S
C1131 H1123 0.930 . S
C1131 C1132 1.355 . S
C1131 C1133 1.415 . S
C1132 C1131 1.355 . S
C1132 C1134 1.419 . S
C1133 C1128 1.425 . S
C1133 C1130 1.409 . S
C1133 C1131 1.415 . S
C1134 H1124 0.930 . S
C1134 C1132 1.419 . S
C1134 C1135 1.362 . S
C1135 H1125 0.930 . S
C1135 C1128 1.409 . S
C1135 C1134 1.362 . S
H1136 C1142 0.930 . S
H1137 C1145 0.930 . S
H1138 C1146 0.930 . S
H1139 C1147 0.930 . S
H1140 C1150 0.930 . S
H1141 C1151 0.930 . S
C1142 H1136 0.930 . S
C1142 C1143 1.355 . S
C1142 C1144 1.415 . S
C1143 C1142 1.355 . S
C1143 C1145 1.419 . S
C1144 C1142 1.415 . S
C1144 C1149 1.425 . S
C1144 C1151 1.409 . S
C1145 H1137 0.930 . S
C1145 C1143 1.419 . S
C1145 C1146 1.362 . S
C1146 H1138 0.930 . S
C1146 C1145 1.362 . S
C1146 C1149 1.409 . S
C1147 H1139 0.930 . S
C1147 C1148 1.355 . S
C1147 C1149 1.415 . S
C1148 C1147 1.355 . S
C1148 C1150 1.419 . S
C1149 C1144 1.425 . S
C1149 C1146 1.409 . S
C1149 C1147 1.415 . S
C1150 H1140 0.930 . S
C1150 C1148 1.419 . S
C1150 C1151 1.362 . S
C1151 H1141 0.930 . S
C1151 C1144 1.409 . S
C1151 C1150 1.362 . S
H1152 C1158 0.930 . S
H1153 C1161 0.930 . S
H1154 C1162 0.930 . S
H1155 C1163 0.930 . S
H1156 C1166 0.930 . S
H1157 C1167 0.930 . S
C1158 H1152 0.930 . S
C1158 C1159 1.355 . S
C1158 C1160 1.415 . S
C1159 C1158 1.355 . S
C1159 C1161 1.419 . S
C1160 C1158 1.415 . S
C1160 C1165 1.425 . S
C1160 C1167 1.409 . S
C1161 H1153 0.930 . S
C1161 C1159 1.419 . S
C1161 C1162 1.362 . S
C1162 H1154 0.930 . S
C1162 C1161 1.362 . S
C1162 C1165 1.409 . S
C1163 H1155 0.930 . S
C1163 C1164 1.355 . S
C1163 C1165 1.415 . S
C1164 C1163 1.355 . S
C1164 C1166 1.419 . S
C1165 C1160 1.425 . S
C1165 C1162 1.409 . S
C1165 C1163 1.415 . S
C1166 H1156 0.930 . S
C1166 C1164 1.419 . S
C1166 C1167 1.362 . S
C1167 H1157 0.930 . S
C1167 C1160 1.409 . S
C1167 C1166 1.362 . S
H1168 C1174 0.930 . S
H1169 C1177 0.930 . S
H1170 C1178 0.930 . S
H1171 C1179 0.930 . S
H1172 C1182 0.930 . S
H1173 C1183 0.930 . S
C1174 H1168 0.930 . S
C1174 C1175 1.355 . S
C1174 C1176 1.415 . S
C1175 C1174 1.355 . S
C1175 C1177 1.419 . S
C1176 C1174 1.415 . S
C1176 C1181 1.425 . S
C1176 C1183 1.409 . S
C1177 H1169 0.930 . S
C1177 C1175 1.419 . S
C1177 C1178 1.362 . S
C1178 H1170 0.930 . S
C1178 C1177 1.362 . S
C1178 C1181 1.409 . S
C1179 H1171 0.930 . S
C1179 C1180 1.355 . S
C1179 C1181 1.415 . S
C1180 C1179 1.355 . S
C1180 C1182 1.419 . S
C1181 C1176 1.425 . S
C1181 C1178 1.409 . S
C1181 C1179 1.415 . S
C1182 H1172 0.930 . S
C1182 C1180 1.419 . S
C1182 C1183 1.362 . S
C1183 H1173 0.930 . S
C1183 C1176 1.409 . S
C1183 C1182 1.362 . S
H1184 C1190 0.930 . S
H1185 C1193 0.930 . S
H1186 C1194 0.930 . S
H1187 C1195 0.930 . S
H1188 C1198 0.930 . S
H1189 C1199 0.930 . S
C1190 H1184 0.930 . S
C1190 C1191 1.355 . S
C1190 C1192 1.415 . S
C1191 C1190 1.355 . S
C1191 C1193 1.419 . S
C1192 C1190 1.415 . S
C1192 C1197 1.425 . S
C1192 C1199 1.409 . S
C1193 H1185 0.930 . S
C1193 C1191 1.419 . S
C1193 C1194 1.362 . S
C1194 H1186 0.930 . S
C1194 C1193 1.362 . S
C1194 C1197 1.409 . S
C1195 H1187 0.930 . S
C1195 C1196 1.355 . S
C1195 C1197 1.415 . S
C1196 C1195 1.355 . S
C1196 C1198 1.419 . S
C1197 C1192 1.425 . S
C1197 C1194 1.409 . S
C1197 C1195 1.415 . S
C1198 H1188 0.930 . S
C1198 C1196 1.419 . S
C1198 C1199 1.362 . S
C1199 H1189 0.930 . S
C1199 C1192 1.409 . S
C1199 C1198 1.362 . S
H1200 C1206 0.930 . S
H1201 C1209 0.930 . S
H1202 C1210 0.930 . S
H1203 C1211 0.930 . S
H1204 C1214 0.930 . S
H1205 C1215 0.930 . S
C1206 H1200 0.930 . S
C1206 C1207 1.355 . S
C1206 C1208 1.415 . S
C1207 C1206 1.355 . S
C1207 C1209 1.419 . S
C1208 C1206 1.415 . S
C1208 C1213 1.425 . S
C1208 C1215 1.409 . S
C1209 H1201 0.930 . S
C1209 C1207 1.419 . S
C1209 C1210 1.362 . S
C1210 H1202 0.930 . S
C1210 C1209 1.362 . S
C1210 C1213 1.409 . S
C1211 H1203 0.930 . S
C1211 C1212 1.355 . S
C1211 C1213 1.415 . S
C1212 C1211 1.355 . S
C1212 C1214 1.419 . S
C1213 C1208 1.425 . S
C1213 C1210 1.409 . S
C1213 C1211 1.415 . S
C1214 H1204 0.930 . S
C1214 C1212 1.419 . S
C1214 C1215 1.362 . S
C1215 H1205 0.930 . S
C1215 C1208 1.409 . S
C1215 C1214 1.362 . S
H1216 C1222 0.930 . S
H1217 C1225 0.930 . S
H1218 C1226 0.930 . S
H1219 C1227 0.930 . S
H1220 C1230 0.930 . S
H1221 C1231 0.930 . S
C1222 H1216 0.930 . S
C1222 C1223 1.355 . S
C1222 C1224 1.415 . S
C1223 C1222 1.355 . S
C1223 C1225 1.419 . S
C1224 C1222 1.415 . S
C1224 C1229 1.425 . S
C1224 C1231 1.409 . S
C1225 H1217 0.930 . S
C1225 C1223 1.419 . S
C1225 C1226 1.362 . S
C1226 H1218 0.930 . S
C1226 C1225 1.362 . S
C1226 C1229 1.409 . S
C1227 H1219 0.930 . S
C1227 C1228 1.355 . S
C1227 C1229 1.415 . S
C1228 C1227 1.355 . S
C1228 C1230 1.419 . S
C1229 C1224 1.425 . S
C1229 C1226 1.409 . S
C1229 C1227 1.415 . S
C1230 H1220 0.930 . S
C1230 C1228 1.419 . S
C1230 C1231 1.362 . S
C1231 H1221 0.930 . S
C1231 C1224 1.409 . S
C1231 C1230 1.362 . S
H1232 C1238 0.930 . S
H1233 C1241 0.930 . S
H1234 C1242 0.930 . S
H1235 C1243 0.930 . S
H1236 C1246 0.930 . S
H1237 C1247 0.930 . S
C1238 H1232 0.930 . S
C1238 C1239 1.355 . S
C1238 C1240 1.415 . S
C1239 C1238 1.355 . S
C1239 C1241 1.419 . S
C1240 C1238 1.415 . S
C1240 C1245 1.425 . S
C1240 C1247 1.409 . S
C1241 H1233 0.930 . S
C1241 C1239 1.419 . S
C1241 C1242 1.362 . S
C1242 H1234 0.930 . S
C1242 C1241 1.362 . S
C1242 C1245 1.409 . S
C1243 H1235 0.930 . S
C1243 C1244 1.355 . S
C1243 C1245 1.415 . S
C1244 C1243 1.355 . S
C1244 C1246 1.419 . S
C1245 C1240 1.425 . S
C1245 C1242 1.409 . S
C1245 C1243 1.415 . S
C1246 H1236 0.930 . S
C1246 C1244 1.419 . S
C1246 C1247 1.362 . S
C1247 H1237 0.930 . S
C1247 C1240 1.409 . S
C1247 C1246 1.362 . S
H1248 C1254 0.930 . S
H1249 C1257 0.930 . S
H1250 C1258 0.930 . S
H1251 C1259 0.930 . S
H1252 C1262 0.930 . S
H1253 C1263 0.930 . S
C1254 H1248 0.930 . S
C1254 C1255 1.355 . S
C1254 C1256 1.415 . S
C1255 C1254 1.355 . S
C1255 C1257 1.419 . S
C1256 C1254 1.415 . S
C1256 C1261 1.425 . S
C1256 C1263 1.409 . S
C1257 H1249 0.930 . S
C1257 C1255 1.419 . S
C1257 C1258 1.362 . S
C1258 H1250 0.930 . S
C1258 C1257 1.362 . S
C1258 C1261 1.409 . S
C1259 H1251 0.930 . S
C1259 C1260 1.355 . S
C1259 C1261 1.415 . S
C1260 C1259 1.355 . S
C1260 C1262 1.419 . S
C1261 C1256 1.425 . S
C1261 C1258 1.409 . S
C1261 C1259 1.415 . S
C1262 H1252 0.930 . S
C1262 C1260 1.419 . S
C1262 C1263 1.362 . S
C1263 H1253 0.930 . S
C1263 C1256 1.409 . S
C1263 C1262 1.362 . S
H1264 C1270 0.930 . S
H1265 C1273 0.930 1_545 S
H1266 C1274 0.930 . S
H1267 C1275 0.930 . S
H1268 C1278 0.930 . S
H1269 C1279 0.930 . S
C1270 H1264 0.930 . S
C1270 C1271 1.355 . S
C1270 C1272 1.415 . S
C1271 C1270 1.355 . S
C1271 C1273 1.419 . S
C1272 C1270 1.415 . S
C1272 C1277 1.425 . S
C1272 C1279 1.409 . S
C1273 H1265 0.930 1_565 S
C1273 C1271 1.419 . S
C1273 C1274 1.362 . S
C1274 H1266 0.930 . S
C1274 C1273 1.362 . S
C1274 C1277 1.409 . S
C1275 H1267 0.930 . S
C1275 C1276 1.355 . S
C1275 C1277 1.415 . S
C1276 C1275 1.355 . S
C1276 C1278 1.419 . S
C1277 C1272 1.425 . S
C1277 C1274 1.409 . S
C1277 C1275 1.415 . S
C1278 H1268 0.930 . S
C1278 C1276 1.419 . S
C1278 C1279 1.362 . S
C1279 H1269 0.930 . S
C1279 C1272 1.409 . S
C1279 C1278 1.362 . S
H1280 C1286 0.930 . S
H1281 C1289 0.930 . S
H1282 C1290 0.930 . S
H1283 C1291 0.930 . S
H1284 C1294 0.930 1_565 S
H1285 C1295 0.930 . S
C1286 H1280 0.930 . S
C1286 C1287 1.355 . S
C1286 C1288 1.415 . S
C1287 C1286 1.355 . S
C1287 C1289 1.419 . S
C1288 C1286 1.415 . S
C1288 C1293 1.425 . S
C1288 C1295 1.409 . S
C1289 H1281 0.930 . S
C1289 C1287 1.419 . S
C1289 C1290 1.362 . S
C1290 H1282 0.930 . S
C1290 C1289 1.362 . S
C1290 C1293 1.409 . S
C1291 H1283 0.930 . S
C1291 C1292 1.355 . S
C1291 C1293 1.415 . S
C1292 C1291 1.355 . S
C1292 C1294 1.419 . S
C1293 C1288 1.425 . S
C1293 C1290 1.409 . S
C1293 C1291 1.415 . S
C1294 H1284 0.930 1_545 S
C1294 C1292 1.419 . S
C1294 C1295 1.362 . S
C1295 H1285 0.930 . S
C1295 C1288 1.409 . S
C1295 C1294 1.362 . S
H1296 C1302 0.930 . S
H1297 C1305 0.930 . S
H1298 C1306 0.930 . S
H1299 C1307 0.930 . S
H1300 C1310 0.930 . S
H1301 C1311 0.930 . S
C1302 H1296 0.930 . S
C1302 C1303 1.355 . S
C1302 C1304 1.415 . S
C1303 C1302 1.355 . S
C1303 C1305 1.419 . S
C1304 C1302 1.415 . S
C1304 C1309 1.425 . S
C1304 C1311 1.409 . S
C1305 H1297 0.930 . S
C1305 C1303 1.419 . S
C1305 C1306 1.362 . S
C1306 H1298 0.930 . S
C1306 C1305 1.362 . S
C1306 C1309 1.409 . S
C1307 H1299 0.930 . S
C1307 C1308 1.355 . S
C1307 C1309 1.415 . S
C1308 C1307 1.355 . S
C1308 C1310 1.419 . S
C1309 C1304 1.425 . S
C1309 C1306 1.409 . S
C1309 C1307 1.415 . S
C1310 H1300 0.930 . S
C1310 C1308 1.419 . S
C1310 C1311 1.362 . S
C1311 H1301 0.930 . S
C1311 C1304 1.409 . S
C1311 C1310 1.362 . S
H1312 C1318 0.930 . S
H1313 C1321 0.930 . S
H1314 C1322 0.930 . S
H1315 C1323 0.930 . S
H1316 C1326 0.930 . S
H1317 C1327 0.930 . S
C1318 H1312 0.930 . S
C1318 C1319 1.355 . S
C1318 C1320 1.415 . S
C1319 C1318 1.355 . S
C1319 C1321 1.419 . S
C1320 C1318 1.415 . S
C1320 C1325 1.425 . S
C1320 C1327 1.409 . S
C1321 H1313 0.930 . S
C1321 C1319 1.419 . S
C1321 C1322 1.362 . S
C1322 H1314 0.930 . S
C1322 C1321 1.362 . S
C1322 C1325 1.409 . S
C1323 H1315 0.930 . S
C1323 C1324 1.355 . S
C1323 C1325 1.415 . S
C1324 C1323 1.355 . S
C1324 C1326 1.419 . S
C1325 C1320 1.425 . S
C1325 C1322 1.409 . S
C1325 C1323 1.415 . S
C1326 H1316 0.930 . S
C1326 C1324 1.419 . S
C1326 C1327 1.362 . S
C1327 H1317 0.930 . S
C1327 C1320 1.409 . S
C1327 C1326 1.362 . S
H1328 C1334 0.930 . S
H1329 C1337 0.930 . S
H1330 C1338 0.930 . S
H1331 C1339 0.930 . S
H1332 C1342 0.930 . S
H1333 C1343 0.930 . S
C1334 H1328 0.930 . S
C1334 C1335 1.355 . S
C1334 C1336 1.415 . S
C1335 C1334 1.355 . S
C1335 C1337 1.419 . S
C1336 C1334 1.415 . S
C1336 C1341 1.425 . S
C1336 C1343 1.409 . S
C1337 H1329 0.930 . S
C1337 C1335 1.419 . S
C1337 C1338 1.362 . S
C1338 H1330 0.930 . S
C1338 C1337 1.362 . S
C1338 C1341 1.409 . S
C1339 H1331 0.930 . S
C1339 C1340 1.355 . S
C1339 C1341 1.415 . S
C1340 C1339 1.355 . S
C1340 C1342 1.419 . S
C1341 C1336 1.425 . S
C1341 C1338 1.409 . S
C1341 C1339 1.415 . S
C1342 H1332 0.930 . S
C1342 C1340 1.419 . S
C1342 C1343 1.362 . S
C1343 H1333 0.930 . S
C1343 C1336 1.409 . S
C1343 C1342 1.362 . S
H1344 C1350 0.930 . S
H1345 C1353 0.930 . S
H1346 C1354 0.930 . S
H1347 C1355 0.930 . S
H1348 C1358 0.930 . S
H1349 C1359 0.930 . S
C1350 H1344 0.930 . S
C1350 C1351 1.355 . S
C1350 C1352 1.415 . S
C1351 C1350 1.355 . S
C1351 C1353 1.419 . S
C1352 C1350 1.415 . S
C1352 C1357 1.425 . S
C1352 C1359 1.409 . S
C1353 H1345 0.930 . S
C1353 C1351 1.419 . S
C1353 C1354 1.362 . S
C1354 H1346 0.930 . S
C1354 C1353 1.362 . S
C1354 C1357 1.409 . S
C1355 H1347 0.930 . S
C1355 C1356 1.355 . S
C1355 C1357 1.415 . S
C1356 C1355 1.355 . S
C1356 C1358 1.419 . S
C1357 C1352 1.425 . S
C1357 C1354 1.409 . S
C1357 C1355 1.415 . S
C1358 H1348 0.930 . S
C1358 C1356 1.419 . S
C1358 C1359 1.362 . S
C1359 H1349 0.930 . S
C1359 C1352 1.409 . S
C1359 C1358 1.362 . S
H1360 C1366 0.930 . S
H1361 C1369 0.930 . S
H1362 C1370 0.930 . S
H1363 C1371 0.930 . S
H1364 C1374 0.930 . S
H1365 C1375 0.930 . S
C1366 H1360 0.930 . S
C1366 C1367 1.355 . S
C1366 C1368 1.415 . S
C1367 C1366 1.355 . S
C1367 C1369 1.419 . S
C1368 C1366 1.415 . S
C1368 C1373 1.425 . S
C1368 C1375 1.409 . S
C1369 H1361 0.930 . S
C1369 C1367 1.419 . S
C1369 C1370 1.362 . S
C1370 H1362 0.930 . S
C1370 C1369 1.362 . S
C1370 C1373 1.409 . S
C1371 H1363 0.930 . S
C1371 C1372 1.355 . S
C1371 C1373 1.415 . S
C1372 C1371 1.355 . S
C1372 C1374 1.419 . S
C1373 C1368 1.425 . S
C1373 C1370 1.409 . S
C1373 C1371 1.415 . S
C1374 H1364 0.930 . S
C1374 C1372 1.419 . S
C1374 C1375 1.362 . S
C1375 H1365 0.930 . S
C1375 C1368 1.409 . S
C1375 C1374 1.362 . S
H1376 C1382 0.930 . S
H1377 C1385 0.930 . S
H1378 C1386 0.930 . S
H1379 C1387 0.930 . S
H1380 C1390 0.930 . S
H1381 C1391 0.930 . S
C1382 H1376 0.930 . S
C1382 C1383 1.355 . S
C1382 C1384 1.415 . S
C1383 C1382 1.355 . S
C1383 C1385 1.419 . S
C1384 C1382 1.415 . S
C1384 C1389 1.425 . S
C1384 C1391 1.409 . S
C1385 H1377 0.930 . S
C1385 C1383 1.419 . S
C1385 C1386 1.362 . S
C1386 H1378 0.930 . S
C1386 C1385 1.362 . S
C1386 C1389 1.409 . S
C1387 H1379 0.930 . S
C1387 C1388 1.355 . S
C1387 C1389 1.415 . S
C1388 C1387 1.355 . S
C1388 C1390 1.419 . S
C1389 C1384 1.425 . S
C1389 C1386 1.409 . S
C1389 C1387 1.415 . S
C1390 H1380 0.930 . S
C1390 C1388 1.419 . S
C1390 C1391 1.362 . S
C1391 H1381 0.930 . S
C1391 C1384 1.409 . S
C1391 C1390 1.362 . S
H1392 C1398 0.930 . S
H1393 C1401 0.930 1_545 S
H1394 C1402 0.930 . S
H1395 C1403 0.930 . S
H1396 C1406 0.930 . S
H1397 C1407 0.930 . S
C1398 H1392 0.930 . S
C1398 C1399 1.355 . S
C1398 C1400 1.415 . S
C1399 C1398 1.355 . S
C1399 C1401 1.419 . S
C1400 C1398 1.415 . S
C1400 C1405 1.425 . S
C1400 C1407 1.409 . S
C1401 H1393 0.930 1_565 S
C1401 C1399 1.419 . S
C1401 C1402 1.362 . S
C1402 H1394 0.930 . S
C1402 C1401 1.362 . S
C1402 C1405 1.409 . S
C1403 H1395 0.930 . S
C1403 C1404 1.355 . S
C1403 C1405 1.415 . S
C1404 C1403 1.355 . S
C1404 C1406 1.419 . S
C1405 C1400 1.425 . S
C1405 C1402 1.409 . S
C1405 C1403 1.415 . S
C1406 H1396 0.930 . S
C1406 C1404 1.419 . S
C1406 C1407 1.362 . S
C1407 H1397 0.930 . S
C1407 C1400 1.409 . S
C1407 C1406 1.362 . S
H1408 C1414 0.930 . S
H1409 C1417 0.930 . S
H1410 C1418 0.930 . S
H1411 C1419 0.930 . S
H1412 C1422 0.930 . S
H1413 C1423 0.930 . S
C1414 H1408 0.930 . S
C1414 C1415 1.355 . S
C1414 C1416 1.415 . S
C1415 C1414 1.355 . S
C1415 C1417 1.419 . S
C1416 C1414 1.415 . S
C1416 C1421 1.425 . S
C1416 C1423 1.409 . S
C1417 H1409 0.930 . S
C1417 C1415 1.419 . S
C1417 C1418 1.362 . S
C1418 H1410 0.930 . S
C1418 C1417 1.362 . S
C1418 C1421 1.409 . S
C1419 H1411 0.930 . S
C1419 C1420 1.355 . S
C1419 C1421 1.415 . S
C1420 C1419 1.355 . S
C1420 C1422 1.419 . S
C1421 C1416 1.425 . S
C1421 C1418 1.409 . S
C1421 C1419 1.415 . S
C1422 H1412 0.930 . S
C1422 C1420 1.419 . S
C1422 C1423 1.362 . S
C1423 H1413 0.930 . S
C1423 C1416 1.409 . S
C1423 C1422 1.362 . S
H1424 C1430 0.930 . S
H1425 C1433 0.930 . S
H1426 C1434 0.930 . S
H1427 C1435 0.930 . S
H1428 C1438 0.930 . S
H1429 C1439 0.930 . S
C1430 H1424 0.930 . S
C1430 C1431 1.355 . S
C1430 C1432 1.415 . S
C1431 C1430 1.355 . S
C1431 C1433 1.419 . S
C1432 C1430 1.415 . S
C1432 C1437 1.425 . S
C1432 C1439 1.409 . S
C1433 H1425 0.930 . S
C1433 C1431 1.419 . S
C1433 C1434 1.362 . S
C1434 H1426 0.930 . S
C1434 C1433 1.362 . S
C1434 C1437 1.409 . S
C1435 H1427 0.930 . S
C1435 C1436 1.355 . S
C1435 C1437 1.415 . S
C1436 C1435 1.355 . S
C1436 C1438 1.419 . S
C1437 C1432 1.425 . S
C1437 C1434 1.409 . S
C1437 C1435 1.415 . S
C1438 H1428 0.930 . S
C1438 C1436 1.419 . S
C1438 C1439 1.362 . S
C1439 H1429 0.930 . S
C1439 C1432 1.409 . S
C1439 C1438 1.362 . S
H1440 C1446 0.930 . S
H1441 C1449 0.930 . S
H1442 C1450 0.930 . S
H1443 C1451 0.930 . S
H1444 C1454 0.930 . S
H1445 C1455 0.930 . S
C1446 H1440 0.930 . S
C1446 C1447 1.355 . S
C1446 C1448 1.415 . S
C1447 C1446 1.355 . S
C1447 C1449 1.419 . S
C1448 C1446 1.415 . S
C1448 C1453 1.425 . S
C1448 C1455 1.409 . S
C1449 H1441 0.930 . S
C1449 C1447 1.419 . S
C1449 C1450 1.362 . S
C1450 H1442 0.930 . S
C1450 C1449 1.362 . S
C1450 C1453 1.409 . S
C1451 H1443 0.930 . S
C1451 C1452 1.355 . S
C1451 C1453 1.415 . S
C1452 C1451 1.355 . S
C1452 C1454 1.419 . S
C1453 C1448 1.425 . S
C1453 C1450 1.409 . S
C1453 C1451 1.415 . S
C1454 H1444 0.930 . S
C1454 C1452 1.419 . S
C1454 C1455 1.362 . S
C1455 H1445 0.930 . S
C1455 C1448 1.409 . S
C1455 C1454 1.362 . S
H1456 C1462 0.930 . S
H1457 C1465 0.930 . S
H1458 C1466 0.930 . S
H1459 C1467 0.930 . S
H1460 C1470 0.930 . S
H1461 C1471 0.930 . S
C1462 H1456 0.930 . S
C1462 C1463 1.355 . S
C1462 C1464 1.415 . S
C1463 C1462 1.355 . S
C1463 C1465 1.419 . S
C1464 C1462 1.415 . S
C1464 C1469 1.425 . S
C1464 C1471 1.409 . S
C1465 H1457 0.930 . S
C1465 C1463 1.419 . S
C1465 C1466 1.362 . S
C1466 H1458 0.930 . S
C1466 C1465 1.362 . S
C1466 C1469 1.409 . S
C1467 H1459 0.930 . S
C1467 C1468 1.355 . S
C1467 C1469 1.415 . S
C1468 C1467 1.355 . S
C1468 C1470 1.419 . S
C1469 C1464 1.425 . S
C1469 C1466 1.409 . S
C1469 C1467 1.415 . S
C1470 H1460 0.930 . S
C1470 C1468 1.419 . S
C1470 C1471 1.362 . S
C1471 H1461 0.930 . S
C1471 C1464 1.409 . S
C1471 C1470 1.362 . S
C455 C9 1.422 . S
C460 C23 1.389 . S
C471 C51 1.414 . S
C476 C37 1.402 . S
C487 C65 1.382 . S
C492 C79 1.432 . S
C503 C93 1.418 . S
C508 C107 1.398 . S
C519 C121 1.380 . S
C524 C135 1.434 . S
C535 C149 1.435 . S
C540 C163 1.378 . S
C551 C177 1.431 . S
C556 C191 1.384 . S
C567 C205 1.397 . S
C572 C219 1.414 . S
C583 C247 1.428 . S
C588 C233 1.384 . S
C599 C275 1.383 . S
C604 C261 1.431 . S
C615 C303 1.406 . S
C620 C289 1.405 . S
C631 C331 1.392 . S
C636 C317 1.419 . S
C647 C359 1.431 . S
C652 C345 1.383 . S
C663 C387 1.379 . S
C668 C373 1.434 . S
C679 C415 1.379 . S
C684 C401 1.433 . S
C695 C443 1.430 . S
C700 C429 1.385 . S
C711 C8 1.509 . S
C716 C176 1.509 . S
C727 C22 1.504 . S
C732 C302 1.504 . S
C743 C36 1.478 . S
C748 C92 1.478 . S
C759 C50 1.480 . S
C764 C442 1.480 . S
C775 C64 1.515 . S
C780 C120 1.515 . S
C791 C246 1.484 . S
C796 C78 1.484 . S
C807 C386 1.520 . S
C812 C106 1.520 . S
C823 C134 1.484 . S
C828 C414 1.484 . S
C839 C148 1.508 . S
C844 C204 1.508 . S
C855 C162 1.510 . S
C860 C330 1.510 . S
C871 C190 1.488 . S
C876 C358 1.488 . S
C887 C218 1.492 . S
C892 C274 1.492 . S
C903 C400 1.530 . S
C908 C232 1.530 . S
C919 C316 1.499 . S
C924 C260 1.499 . S
C935 C288 1.529 . S
C940 C344 1.529 . S
C951 C428 1.490 . S
C956 C372 1.490 . S
C967 C147 0.840 . S
C972 C7 0.895 . S
C983 C161 0.882 . S
C988 C21 0.836 1_565 S
C999 C35 0.848 1_565 S
C1004 C119 0.850 . S
C1015 C133 0.909 . S
C1020 C49 0.851 . S
C1031 C63 0.901 . S
C1036 C203 0.843 . S
C1047 C77 0.870 1_545 S
C1052 C217 0.837 . S
C1063 C175 0.863 . S
C1068 C91 0.915 1_545 S
C1079 C189 0.917 . S
C1084 C105 0.868 . S
C1095 C231 0.917 . S
C1100 C371 0.868 . S
C1111 C385 0.866 . S
C1116 C245 0.916 1_565 S
C1127 C343 0.913 . S
C1132 C259 0.897 1_565 S
C1143 C273 0.913 . S
C1148 C357 0.896 . S
C1159 C427 0.886 . S
C1164 C287 0.837 . S
C1175 C301 0.915 1_545 S
C1180 C441 0.892 . S
C1191 C399 0.857 . S
C1196 C315 0.913 1_545 S
C1207 C413 0.856 . S
C1212 C329 0.843 . S
C1223 C143 1.577 . S
C1228 C3 1.589 1_565 S
C1239 C157 1.574 . S
C1244 C17 1.575 . S
C1255 C115 1.589 . S
C1260 C31 1.569 . S
C1271 C45 1.584 1_565 S
C1276 C129 1.568 . S
C1287 C199 1.569 . S
C1292 C59 1.582 1_545 S
C1303 C213 1.570 . S
C1308 C73 1.590 . S
C1319 C171 1.569 . S
C1324 C87 1.581 . S
C1335 C185 1.584 . S
C1340 C101 1.568 1_545 S
C1351 C367 1.585 . S
C1356 C227 1.584 1_565 S
C1367 C381 1.583 . S
C1372 C241 1.568 . S
C1383 C339 1.577 . S
C1388 C255 1.589 . S
C1399 C269 1.574 1_565 S
C1404 C353 1.574 . S
C1415 C423 1.590 . S
C1420 C283 1.574 1_545 S
C1431 C297 1.586 . S
C1436 C437 1.582 . S
C1447 C395 1.572 . S
C1452 C311 1.577 . S
C1463 C325 1.591 1_545 S
C1468 C409 1.573 . S
