# Generated by pormake.
# Topology rhr, (4)-cn, num edge types: 1
# Building blocks:
#     Node 0, Type 0, BuildingBlock: KOZSID_clean_sbu_0, # of connection points: 4
#     Node 1, Type 0, BuildingBlock: KOZSID_clean_sbu_0, # of connection points: 4
#     Node 2, Type 0, BuildingBlock: KOZSID_clean_sbu_0, # of connection points: 4
#     Node 3, Type 0, BuildingBlock: KOZSID_clean_sbu_0, # of connection points: 4
#     Node 4, Type 0, BuildingBlock: KOZSID_clean_sbu_0, # of connection points: 4
#     Node 5, Type 0, BuildingBlock: KOZSID_clean_sbu_0, # of connection points: 4
#     Node 6, Type 0, BuildingBlock: KOZSID_clean_sbu_0, # of connection points: 4
#     Node 7, Type 0, BuildingBlock: KOZSID_clean_sbu_0, # of connection points: 4
#     Node 8, Type 0, BuildingBlock: KOZSID_clean_sbu_0, # of connection points: 4
#     Node 9, Type 0, BuildingBlock: KOZSID_clean_sbu_0, # of connection points: 4
#     Node 10, Type 0, BuildingBlock: KOZSID_clean_sbu_0, # of connection points: 4
#     Node 11, Type 0, BuildingBlock: KOZSID_clean_sbu_0, # of connection points: 4
#     Node 12, Type 0, BuildingBlock: KOZSID_clean_sbu_0, # of connection points: 4
#     Node 13, Type 0, BuildingBlock: KOZSID_clean_sbu_0, # of connection points: 4
#     Node 14, Type 0, BuildingBlock: KOZSID_clean_sbu_0, # of connection points: 4
#     Node 15, Type 0, BuildingBlock: KOZSID_clean_sbu_0, # of connection points: 4
#     Node 16, Type 0, BuildingBlock: KOZSID_clean_sbu_0, # of connection points: 4
#     Node 17, Type 0, BuildingBlock: KOZSID_clean_sbu_0, # of connection points: 4
#     Node 18, Type 0, BuildingBlock: KOZSID_clean_sbu_0, # of connection points: 4
#     Node 19, Type 0, BuildingBlock: KOZSID_clean_sbu_0, # of connection points: 4
#     Node 20, Type 0, BuildingBlock: KOZSID_clean_sbu_0, # of connection points: 4
#     Node 21, Type 0, BuildingBlock: KOZSID_clean_sbu_0, # of connection points: 4
#     Node 22, Type 0, BuildingBlock: KOZSID_clean_sbu_0, # of connection points: 4
#     Node 23, Type 0, BuildingBlock: KOZSID_clean_sbu_0, # of connection points: 4
#     Edge 24, Type (0, 0), BuildingBlock: XUDNAN_clean_linker_2, # of connection points: 2
#     Edge 25, Type (0, 0), BuildingBlock: XUDNAN_clean_linker_2, # of connection points: 2
#     Edge 26, Type (0, 0), BuildingBlock: XUDNAN_clean_linker_2, # of connection points: 2
#     Edge 27, Type (0, 0), BuildingBlock: XUDNAN_clean_linker_2, # of connection points: 2
#     Edge 28, Type (0, 0), BuildingBlock: XUDNAN_clean_linker_2, # of connection points: 2
#     Edge 29, Type (0, 0), BuildingBlock: XUDNAN_clean_linker_2, # of connection points: 2
#     Edge 30, Type (0, 0), BuildingBlock: XUDNAN_clean_linker_2, # of connection points: 2
#     Edge 31, Type (0, 0), BuildingBlock: XUDNAN_clean_linker_2, # of connection points: 2
#     Edge 32, Type (0, 0), BuildingBlock: XUDNAN_clean_linker_2, # of connection points: 2
#     Edge 33, Type (0, 0), BuildingBlock: XUDNAN_clean_linker_2, # of connection points: 2
#     Edge 34, Type (0, 0), BuildingBlock: XUDNAN_clean_linker_2, # of connection points: 2
#     Edge 35, Type (0, 0), BuildingBlock: XUDNAN_clean_linker_2, # of connection points: 2
#     Edge 36, Type (0, 0), BuildingBlock: XUDNAN_clean_linker_2, # of connection points: 2
#     Edge 37, Type (0, 0), BuildingBlock: XUDNAN_clean_linker_2, # of connection points: 2
#     Edge 38, Type (0, 0), BuildingBlock: XUDNAN_clean_linker_2, # of connection points: 2
#     Edge 39, Type (0, 0), BuildingBlock: XUDNAN_clean_linker_2, # of connection points: 2
#     Edge 40, Type (0, 0), BuildingBlock: XUDNAN_clean_linker_2, # of connection points: 2
#     Edge 41, Type (0, 0), BuildingBlock: XUDNAN_clean_linker_2, # of connection points: 2
#     Edge 42, Type (0, 0), BuildingBlock: XUDNAN_clean_linker_2, # of connection points: 2
#     Edge 43, Type (0, 0), BuildingBlock: XUDNAN_clean_linker_2, # of connection points: 2
#     Edge 44, Type (0, 0), BuildingBlock: XUDNAN_clean_linker_2, # of connection points: 2
#     Edge 45, Type (0, 0), BuildingBlock: XUDNAN_clean_linker_2, # of connection points: 2
#     Edge 46, Type (0, 0), BuildingBlock: XUDNAN_clean_linker_2, # of connection points: 2
#     Edge 47, Type (0, 0), BuildingBlock: XUDNAN_clean_linker_2, # of connection points: 2
#     Edge 48, Type (0, 0), BuildingBlock: XUDNAN_clean_linker_2, # of connection points: 2
#     Edge 49, Type (0, 0), BuildingBlock: XUDNAN_clean_linker_2, # of connection points: 2
#     Edge 50, Type (0, 0), BuildingBlock: XUDNAN_clean_linker_2, # of connection points: 2
#     Edge 51, Type (0, 0), BuildingBlock: XUDNAN_clean_linker_2, # of connection points: 2
#     Edge 52, Type (0, 0), BuildingBlock: XUDNAN_clean_linker_2, # of connection points: 2
#     Edge 53, Type (0, 0), BuildingBlock: XUDNAN_clean_linker_2, # of connection points: 2
#     Edge 54, Type (0, 0), BuildingBlock: XUDNAN_clean_linker_2, # of connection points: 2
#     Edge 55, Type (0, 0), BuildingBlock: XUDNAN_clean_linker_2, # of connection points: 2
#     Edge 56, Type (0, 0), BuildingBlock: XUDNAN_clean_linker_2, # of connection points: 2
#     Edge 57, Type (0, 0), BuildingBlock: XUDNAN_clean_linker_2, # of connection points: 2
#     Edge 58, Type (0, 0), BuildingBlock: XUDNAN_clean_linker_2, # of connection points: 2
#     Edge 59, Type (0, 0), BuildingBlock: XUDNAN_clean_linker_2, # of connection points: 2
#     Edge 60, Type (0, 0), BuildingBlock: XUDNAN_clean_linker_2, # of connection points: 2
#     Edge 61, Type (0, 0), BuildingBlock: XUDNAN_clean_linker_2, # of connection points: 2
#     Edge 62, Type (0, 0), BuildingBlock: XUDNAN_clean_linker_2, # of connection points: 2
#     Edge 63, Type (0, 0), BuildingBlock: XUDNAN_clean_linker_2, # of connection points: 2
#     Edge 64, Type (0, 0), BuildingBlock: XUDNAN_clean_linker_2, # of connection points: 2
#     Edge 65, Type (0, 0), BuildingBlock: XUDNAN_clean_linker_2, # of connection points: 2
#     Edge 66, Type (0, 0), BuildingBlock: XUDNAN_clean_linker_2, # of connection points: 2
#     Edge 67, Type (0, 0), BuildingBlock: XUDNAN_clean_linker_2, # of connection points: 2
#     Edge 68, Type (0, 0), BuildingBlock: XUDNAN_clean_linker_2, # of connection points: 2
#     Edge 69, Type (0, 0), BuildingBlock: XUDNAN_clean_linker_2, # of connection points: 2
#     Edge 70, Type (0, 0), BuildingBlock: XUDNAN_clean_linker_2, # of connection points: 2
#     Edge 71, Type (0, 0), BuildingBlock: XUDNAN_clean_linker_2, # of connection points: 2
# Relax obj value: 0.005
# Max RMSD: 0.034
# Mean RMSD: 0.021
data_MOF--net-rhr--node1-KOZSID_clean_sbu_0--edge1-XUDNAN_clean_linker_2
_symmetry_space_group_name_H-M    P1
_symmetry_Int_Tables_number       1
_symmetry_cell_setting            triclinic
loop_
_symmetry_equiv_pos_as_xyz
'x, y, z'
_cell_length_a     62.477705
_cell_length_b     62.739523
_cell_length_c     62.548836
_cell_angle_alpha  86.909542
_cell_angle_beta   85.675277
_cell_angle_gamma 90.775404
loop_
_atom_site_label
_atom_site_type_symbol
_atom_site_fract_x
_atom_site_fract_y
_atom_site_fract_z
_atom_type_partial_charge
C0 C 0.40103 0.99098 0.35791 0.0
C1 C 0.41901 0.98215 0.36637 0.0
C2 C 0.42133 0.99142 0.38534 0.0
C3 C 0.40459 1.00523 0.38757 0.0
N4 N 0.39164 1.00535 0.37119 0.0
Co5 Co 0.36523 0.02324 0.3687 0.0
N6 N 0.36924 0.03754 0.39616 0.0
C7 C 0.38634 0.03534 0.40805 0.0
C8 C 0.38507 0.04715 0.4259 0.0
C9 C 0.36588 0.05731 0.42557 0.0
C10 C 0.3563 0.05092 0.40761 0.0
N11 N 0.33828 0.04041 0.36681 0.0
C12 C 0.3275 0.05263 0.38143 0.0
C13 C 0.30816 0.05949 0.37415 0.0
C14 C 0.30666 0.0515 0.35444 0.0
C15 C 0.32494 0.04001 0.35081 0.0
N16 N 0.36162 0.00945 0.34086 0.0
C17 C 0.34618 0.014 0.32741 0.0
C18 C 0.34817 1.00332 0.30884 0.0
C19 C 0.36612 0.99132 0.31037 0.0
C20 C 0.37405 0.99522 0.32995 0.0
N21 N 0.3477 1.00024 0.38503 0.0
C22 C 0.32011 0.97203 0.41128 0.0
C23 C 0.31515 0.97852 0.3905 0.0
C24 C 0.32912 0.99252 0.37769 0.0
C25 C 0.33973 0.9789 0.41808 0.0
C26 C 0.35317 0.99275 0.40482 0.0
N27 N 0.38288 0.04647 0.35233 0.0
C28 C 0.3875 0.07486 0.32424 0.0
C29 C 0.40914 0.07786 0.32804 0.0
C30 C 0.41716 0.06484 0.34434 0.0
C31 C 0.40391 0.04977 0.35629 0.0
C32 C 0.37483 0.05917 0.33636 0.0
H33 H 0.41132 0.04088 0.36853 0.0
H34 H 0.35859 0.05765 0.33244 0.0
H35 H 0.32432 0.99736 0.36215 0.0
H36 H 0.36768 0.99763 0.41118 0.0
C37 C 0.40177 0.01987 0.40365 0.0
C38 C 0.39375 0.98534 0.33708 0.0
C39 C 0.33457 0.05752 0.40262 0.0
C40 C 0.32968 0.02793 0.33298 0.0
H41 H 0.4296 0.97044 0.3594 0.0
H42 H 0.43405 0.98882 0.39597 0.0
H43 H 0.39633 0.04763 0.43821 0.0
H44 H 0.35942 0.06781 0.43753 0.0
H45 H 0.29604 0.06886 0.38234 0.0
H46 H 0.29348 0.05332 0.34424 0.0
H47 H 0.33784 1.00421 0.2957 0.0
H48 H 0.37274 0.98103 0.2983 0.0
H49 H 0.30022 0.9735 0.38442 0.0
H50 H 0.34463 0.97383 0.43379 0.0
H51 H 0.38019 0.08462 0.31208 0.0
H52 H 0.43383 0.06588 0.34785 0.0
C53 C 0.06582 0.37829 0.33291 0.0
C54 C 0.07553 0.39362 0.34433 0.0
C55 C 0.06564 0.39224 0.36458 0.0
C56 C 0.05066 0.37609 0.36444 0.0
N57 N 0.05066 0.36682 0.34542 0.0
Co58 Co 0.03162 0.34267 0.33825 0.0
N59 N 0.0147 0.34284 0.36688 0.0
C60 C 0.01713 0.35683 0.38229 0.0
C61 C 1.00399 0.35249 0.40057 0.0
C62 C 0.99268 0.33451 0.39678 0.0
C63 C 0.99947 0.32891 0.37621 0.0
N64 N 0.01321 0.31788 0.33145 0.0
C65 C 0.99816 0.30632 0.34407 0.0
C66 C 0.98959 0.28991 0.33316 0.0
C67 C 1.00017 0.2906 0.31324 0.0
C68 C 0.01443 0.3074 0.31306 0.0
N69 N 0.0479 0.34319 0.30923 0.0
C70 C 0.04448 0.33026 0.29316 0.0
C71 C 0.05653 0.33566 0.27441 0.0
C72 C 0.06801 0.35342 0.27852 0.0
C73 C 0.06242 0.35776 0.29974 0.0
N74 N 0.05204 0.32212 0.35033 0.0
C75 C 0.07961 0.29195 0.3684 0.0
C76 C 0.0747 0.29129 0.34699 0.0
C77 C 0.06092 0.30632 0.33839 0.0
C78 C 0.07058 0.30814 0.38046 0.0
C79 C 0.0572 0.32299 0.37117 0.0
N80 N 0.01133 0.36329 0.3261 0.0
C81 C 0.98907 0.37441 0.29767 0.0
C82 C 0.98728 0.39477 0.3055 0.0
C83 C 0.99676 0.3988 0.32439 0.0
C84 C 0.00838 0.38286 0.33453 0.0
C85 C 1.00113 0.35905 0.3081 0.0
H86 H 0.01524 0.38693 0.34888 0.0
H87 H 1.00243 0.34408 0.30093 0.0
H88 H 0.05759 0.30474 0.32209 0.0
H89 H 0.05102 0.33486 0.38134 0.0
C90 C 0.03437 0.37141 0.38062 0.0
C91 C 0.0702 0.37656 0.30982 0.0
C92 C 0.99235 0.30941 0.36678 0.0
C93 C 0.02902 0.31387 0.29587 0.0
H94 H 0.08783 0.40521 0.33831 0.0
H95 H 0.06825 0.40256 0.3775 0.0
H96 H 1.00368 0.3606 0.41543 0.0
H97 H 0.98147 0.32609 0.40836 0.0
H98 H 0.97731 0.27832 0.33918 0.0
H99 H 0.99796 0.27992 0.30052 0.0
H100 H 0.0564 0.32804 0.25929 0.0
H101 H 0.07874 0.36244 0.26693 0.0
H102 H 0.08148 0.27928 0.3368 0.0
H103 H 0.0734 0.30923 0.39724 0.0
H104 H 0.98192 0.3706 0.28306 0.0
H105 H 0.99538 0.41426 0.33125 0.0
C106 C 0.69293 0.99945 0.32757 0.0
C107 C 0.70304 0.99429 0.30804 0.0
C108 C 0.72204 1.00545 0.30561 0.0
C109 C 0.72262 0.01658 0.32382 0.0
N110 N 0.70541 0.01283 0.33801 0.0
Co111 Co 0.69998 0.02614 0.36637 0.0
N112 N 0.72707 0.04415 0.36199 0.0
C113 C 0.7413 0.04463 0.34457 0.0
C114 C 0.7592 0.05699 0.34651 0.0
C115 C 0.7565 0.06467 0.36651 0.0
C116 C 0.73689 0.05669 0.37569 0.0
N117 N 0.6945 0.03958 0.39469 0.0
C118 C 0.70692 0.05305 0.4051 0.0
C119 C 0.69675 0.05829 0.42457 0.0
C120 C 0.67772 0.04716 0.42695 0.0
C121 C 0.67718 0.03596 0.40878 0.0
N122 N 0.67297 0.00803 0.37083 0.0
C123 C 0.65894 0.00727 0.38842 0.0
C124 C 0.64105 0.99486 0.3865 0.0
C125 C 0.64358 0.98744 0.36638 0.0
C126 C 0.66308 0.99561 0.35708 0.0
N127 N 0.71651 1.003 0.381 0.0
C128 C 0.74108 0.97159 0.40247 0.0
C129 C 0.72141 0.97842 0.41171 0.0
C130 C 0.70946 0.99383 0.40077 0.0
C131 C 0.74812 0.98088 0.38223 0.0
C132 C 0.73581 0.99635 0.37196 0.0
N133 N 0.68339 0.04919 0.35171 0.0
C134 C 0.65053 0.0692 0.34939 0.0
C135 C 0.65782 0.07929 0.32957 0.0
C136 C 0.67839 0.07398 0.32114 0.0
C137 C 0.6908 0.05914 0.33239 0.0
C138 C 0.66339 0.05458 0.36005 0.0
H139 H 0.70631 0.05586 0.32508 0.0
H140 H 0.65659 0.04761 0.37494 0.0
H141 H 0.69455 0.99809 0.4087 0.0
H142 H 0.74238 1.00282 0.35676 0.0
C143 C 0.73847 0.03154 0.32759 0.0
C144 C 0.67098 0.99216 0.3348 0.0
C145 C 0.72883 0.06048 0.39785 0.0
C146 C 0.66157 0.02065 0.40523 0.0
H147 H 0.69702 0.98397 0.29645 0.0
H148 H 0.73375 1.00588 0.29193 0.0
H149 H 0.77307 0.05934 0.33512 0.0
H150 H 0.76812 0.07443 0.37366 0.0
H151 H 0.70275 0.06863 0.43615 0.0
H152 H 0.66601 0.04673 0.44064 0.0
H153 H 0.62724 0.99245 0.39794 0.0
H154 H 0.63189 0.9778 0.35923 0.0
H155 H 0.715 0.97163 0.4272 0.0
H156 H 0.76332 0.97648 0.37434 0.0
H157 H 0.63468 0.07225 0.35668 0.0
H158 H 0.68508 0.08143 0.30605 0.0
C159 C 0.97013 0.72115 0.34904 0.0
C160 C 0.96476 0.74018 0.33854 0.0
C161 C 0.98034 0.74439 0.32236 0.0
C162 C 0.99431 0.72784 0.32399 0.0
N163 N 0.98848 0.71314 0.34005 0.0
Co164 Co 1.00481 0.68725 0.34894 0.0
N165 N 0.02785 0.69367 0.3253 0.0
C166 C 0.02818 0.70963 0.30985 0.0
C167 C 0.04577 0.7096 0.29539 0.0
C168 C 0.05736 0.69254 0.30193 0.0
C169 C 0.04616 0.6832 0.32017 0.0
N170 N 0.02169 0.662 0.35857 0.0
C171 C 0.04102 0.65508 0.3508 0.0
C172 C 0.04765 0.63752 0.36289 0.0
C173 C 0.03187 0.63312 0.37886 0.0
C174 C 0.01664 0.64825 0.37569 0.0
N175 N 0.98123 0.68025 0.37189 0.0
C176 C 0.97966 0.66293 0.38583 0.0
C177 C 0.96135 0.6623 0.3994 0.0
C178 C 0.95062 0.68032 0.39385 0.0
C179 C 0.96313 0.69096 0.37724 0.0
N180 N 0.98957 0.6696 0.32928 0.0
C181 C 0.96925 0.64367 0.30122 0.0
C182 C 0.97491 0.63541 0.3211 0.0
C183 C 0.98484 0.64853 0.33477 0.0
C184 C 0.9736 0.66523 0.29567 0.0
C185 C 0.98383 0.67781 0.30979 0.0
N186 N 0.02034 0.70456 0.3686 0.0
C187 C 0.0348 0.70684 0.40309 0.0
C188 C 0.04991 0.72223 0.39464 0.0
C189 C 0.04841 0.73033 0.37355 0.0
C190 C 0.03336 0.72147 0.36094 0.0
C191 C 0.02022 0.69836 0.38994 0.0
H192 H 0.03315 0.72794 0.34481 0.0
H193 H 0.00965 0.68617 0.39724 0.0
H194 H 0.98855 0.64115 0.34969 0.0
H195 H 0.98705 0.69405 0.30453 0.0
C196 C 0.01257 0.72527 0.31025 0.0
C197 C 0.95772 0.71173 0.36788 0.0
C198 C 0.05347 0.66433 0.33188 0.0
C199 C 0.99678 0.649 0.38744 0.0
H200 H 0.95108 0.75008 0.34228 0.0
H201 H 0.98139 0.75792 0.31081 0.0
H202 H 0.04983 0.72083 0.2819 0.0
H203 H 0.07242 0.68761 0.29418 0.0
H204 H 0.06231 0.62871 0.36028 0.0
H205 H 0.03138 0.62022 0.3911 0.0
H206 H 0.95675 0.65056 0.4123 0.0
H207 H 0.93555 0.68539 0.4015 0.0
H208 H 0.97147 0.61887 0.32625 0.0
H209 H 0.9695 0.67228 0.28035 0.0
H210 H 0.03468 0.70077 0.41965 0.0
H211 H 0.05946 0.74262 0.36642 0.0
C212 C 0.34488 0.97675 0.7421 0.0
C213 C 0.33415 0.96711 0.76041 0.0
C214 C 0.31547 0.97786 0.76387 0.0
C215 C 0.31583 0.99331 0.74749 0.0
N216 N 0.33362 0.99314 0.73379 0.0
Co217 Co 0.34016 0.01232 0.70731 0.0
N218 N 0.31368 0.02934 0.71353 0.0
C219 C 0.29967 0.02693 0.73108 0.0
C220 C 0.28325 0.04119 0.73119 0.0
C221 C 0.28702 0.05352 0.71262 0.0
C222 C 0.3056 0.046 0.70219 0.0
N223 N 0.34598 0.03054 0.68008 0.0
C224 C 0.33419 0.04625 0.67127 0.0
C225 C 0.34362 0.05413 0.65155 0.0
C226 C 0.3619 0.04288 0.64768 0.0
C227 C 0.36258 0.02882 0.66514 0.0
N228 N 0.36741 0.99623 0.70186 0.0
C229 C 0.38265 1.00014 0.68554 0.0
C230 C 0.40018 0.98735 0.68663 0.0
C231 C 0.39603 0.97463 0.70489 0.0
C232 C 0.37608 0.98039 0.71385 0.0
N233 N 0.32403 0.99199 0.69107 0.0
C234 C 0.30239 0.96045 0.67042 0.0
C235 C 0.32381 0.96561 0.66433 0.0
C236 C 0.33416 0.98157 0.67455 0.0
C237 C 0.29163 0.97177 0.68634 0.0
C238 C 0.30273 0.9873 0.69654 0.0
N239 N 0.35645 0.03239 0.72368 0.0
C240 C 0.38757 0.05517 0.72622 0.0
C241 C 0.38343 0.05531 0.74841 0.0
C242 C 0.36491 0.04506 0.7579 0.0
C243 C 0.35148 0.03412 0.74524 0.0
C244 C 0.37399 0.04359 0.71421 0.0
H245 H 0.33748 0.02672 0.75338 0.0
H246 H 0.37843 0.04343 0.69744 0.0
H247 H 0.35045 0.98496 0.669 0.0
H248 H 0.29381 0.99497 0.70904 0.0
C249 C 0.30101 0.00964 0.74588 0.0
C250 C 0.36601 0.97024 0.73366 0.0
C251 C 0.31431 0.05452 0.68111 0.0
C252 C 0.37936 0.01496 0.66874 0.0
H253 H 0.33948 0.95395 0.77046 0.0
H254 H 0.30339 0.97515 0.77711 0.0
H255 H 0.26976 0.04206 0.74301 0.0
H256 H 0.27693 0.06626 0.70712 0.0
H257 H 0.33798 0.06685 0.64114 0.0
H258 H 0.37348 0.04493 0.63393 0.0
H259 H 0.41421 0.98715 0.67537 0.0
H260 H 0.40647 0.96243 0.71091 0.0
H261 H 0.33255 0.95727 0.65179 0.0
H262 H 0.27494 0.96816 0.69141 0.0
H263 H 0.40175 0.06312 0.71831 0.0
H264 H 0.36099 0.04523 0.77506 0.0
C265 C 0.99773 0.36613 0.68894 0.0
C266 C 0.98993 0.38419 0.67862 0.0
C267 C 0.99958 0.3854 0.65823 0.0
C268 C 0.01265 0.36803 0.65714 0.0
N269 N 0.01182 0.35567 0.67554 0.0
Co270 Co 0.02885 0.32913 0.6805 0.0
N271 N 0.04594 0.33309 0.65187 0.0
C272 C 0.044 0.34943 0.63718 0.0
C273 C 0.05756 0.34826 0.61903 0.0
C274 C 0.06864 0.32988 0.62211 0.0
C275 C 0.06101 0.32063 0.64194 0.0
N276 N 0.04558 0.3023 0.68527 0.0
C277 C 0.06002 0.29207 0.67197 0.0
C278 C 0.06601 0.27279 0.68146 0.0
C279 C 0.05505 0.27066 0.70121 0.0
C280 C 0.04288 0.28861 0.7027 0.0
N281 N 0.01242 0.3257 0.70953 0.0
C282 C 0.0145 0.30952 0.72434 0.0
C283 C 1.0025 0.31178 0.74332 0.0
C284 C 0.99234 0.33076 0.74066 0.0
C285 C 0.99861 0.339 0.72006 0.0
N286 N 1.00648 0.31169 0.66695 0.0
C287 C 0.977 0.28458 0.64723 0.0
C288 C 0.97895 0.28355 0.66954 0.0
C289 C 0.99371 0.29672 0.67883 0.0
C290 C 0.98977 0.30025 0.63525 0.0
C291 C 1.00382 0.31363 0.64528 0.0
N292 N 0.05089 0.34654 0.69397 0.0
C293 C 0.07023 0.35489 0.72498 0.0
C294 C 0.07687 0.37503 0.71564 0.0
C295 C 0.07132 0.37966 0.69454 0.0
C296 C 0.05828 0.36563 0.68435 0.0
C297 C 0.05775 0.3409 0.71382 0.0
H298 H 0.05395 0.37087 0.6688 0.0
H299 H 0.05333 0.32581 0.7218 0.0
H300 H 0.99443 0.2943 0.69575 0.0
H301 H 0.01249 0.32528 0.63489 0.0
C302 C 0.02787 0.36447 0.64022 0.0
C303 C 0.99129 0.35973 0.71153 0.0
C304 C 0.06772 0.29942 0.6499 0.0
C305 C 0.02841 0.2928 0.72001 0.0
H306 H 0.97876 0.39555 0.68529 0.0
H307 H 0.99792 0.39795 0.64592 0.0
H308 H 0.05874 0.35911 0.60492 0.0
H309 H 0.08055 0.32363 0.61074 0.0
H310 H 0.07679 0.26115 0.6747 0.0
H311 H 0.05553 0.25735 0.71291 0.0
H312 H 1.00163 0.30113 0.75757 0.0
H313 H 0.98177 0.3379 0.75267 0.0
H314 H 0.96915 0.27264 0.68022 0.0
H315 H 0.98939 0.30221 0.61802 0.0
H316 H 0.07405 0.34999 0.74107 0.0
H317 H 0.07672 0.39427 0.6857 0.0
C318 C 0.7014 0.03754 0.67548 0.0
C319 C 0.69419 0.043 0.65547 0.0
C320 C 0.67669 0.03029 0.65334 0.0
C321 C 0.67408 0.01797 0.67213 0.0
N322 N 0.68885 0.02199 0.6862 0.0
Co323 Co 0.69013 0.00834 0.71589 0.0
N324 N 0.66498 0.98893 0.71226 0.0
C325 C 0.65445 0.98734 0.69428 0.0
C326 C 0.63856 0.97196 0.69609 0.0
C327 C 0.63889 0.96316 0.71647 0.0
C328 C 0.65488 0.97392 0.72608 0.0
N329 N 0.69081 0.99538 0.74592 0.0
C330 C 0.67742 0.98082 0.75708 0.0
C331 C 0.68262 0.97777 0.77824 0.0
C332 C 0.70008 0.9905 0.78041 0.0
C333 C 0.7044 1.0008 0.76067 0.0
N334 N 0.71588 0.02709 0.71917 0.0
C335 C 0.72781 0.02712 0.73635 0.0
C336 C 0.7453 0.04065 0.73357 0.0
C337 C 0.74462 0.04977 0.71336 0.0
C338 C 0.72654 0.04139 0.70499 0.0
N339 N 0.67063 0.03032 0.72721 0.0
C340 C 0.64166 0.05895 0.74609 0.0
C341 C 0.66204 0.05626 0.75346 0.0
C342 C 0.67617 0.04212 0.74378 0.0
C343 C 0.63626 0.04759 0.72863 0.0
C344 C 0.65092 0.0335 0.71943 0.0
N345 N 0.70969 0.98631 0.70468 0.0
C346 C 0.74077 0.96425 0.70819 0.0
C347 C 0.7393 0.95734 0.68756 0.0
C348 C 0.7224 0.96453 0.67588 0.0
C349 C 0.70778 0.97877 0.68475 0.0
C350 C 0.72593 0.97867 0.71637 0.0
H351 H 0.69522 0.9836 0.67508 0.0
H352 H 0.72816 0.98361 0.73205 0.0
H353 H 0.69135 0.04073 0.7503 0.0
H354 H 0.64586 0.02518 0.70624 0.0
C355 C 0.65892 1.00146 0.67644 0.0
C356 C 0.72029 0.04751 0.68347 0.0
C357 C 0.65969 0.96944 0.7484 0.0
C358 C 0.72154 0.01508 0.75526 0.0
H359 H 0.70094 0.05485 0.64355 0.0
H360 H 0.66721 0.02984 0.63958 0.0
H361 H 0.62781 0.96783 0.68411 0.0
H362 H 0.6284 0.95036 0.72346 0.0
H363 H 0.67462 0.96744 0.79087 0.0
H364 H 0.70862 0.99206 0.79469 0.0
H365 H 0.75708 0.04363 0.74494 0.0
H366 H 0.75618 0.06129 0.70566 0.0
H367 H 0.66694 0.06456 0.76708 0.0
H368 H 0.62078 0.04948 0.7221 0.0
H369 H 0.75367 0.95903 0.71778 0.0
H370 H 0.72046 0.95918 0.65994 0.0
C371 C 0.99635 0.66234 0.72978 0.0
C372 C 0.9885 0.67069 0.74886 0.0
C373 C 0.99625 0.69128 0.74848 0.0
C374 C 0.00848 0.69432 0.72934 0.0
N375 N 0.00888 0.67694 0.71766 0.0
Co376 Co 0.02554 0.67393 0.68967 0.0
N377 N 0.04423 0.69915 0.69362 0.0
C378 C 0.04062 0.71359 0.70862 0.0
C379 C 0.05734 0.72788 0.70917 0.0
C380 C 0.07219 0.72238 0.69329 0.0
C381 C 0.06345 0.70533 0.68338 0.0
N382 N 0.04179 0.67085 0.66148 0.0
C383 C 0.05981 0.68113 0.6525 0.0
C384 C 0.0632 0.67673 0.63091 0.0
C385 C 0.0471 0.66312 0.62644 0.0
C386 C 0.03452 0.66016 0.64525 0.0
N387 N 1.00692 0.64877 0.68576 0.0
C388 C 1.00362 0.64023 0.66702 0.0
C389 C 0.98962 0.62306 0.66926 0.0
C390 C 0.98371 0.62069 0.69083 0.0
C391 C 0.99455 0.6366 0.70049 0.0
N392 N 1.00516 0.69267 0.67508 0.0
C393 C 0.97664 0.71586 0.6501 0.0
C394 C 0.96901 0.7001 0.66566 0.0
C395 C 0.98345 0.68895 0.67818 0.0
C396 C 0.9987 0.72039 0.64796 0.0
C397 C 0.01263 0.70868 0.66051 0.0
N398 N 0.04588 0.65515 0.7042 0.0
C399 C 0.06427 0.62157 0.70739 0.0
C400 C 0.07372 0.6274 0.72609 0.0
C401 C 0.06865 0.64773 0.73334 0.0
C402 C 0.05463 0.66107 0.72246 0.0
C403 C 0.05086 0.63566 0.69661 0.0
H404 H 0.05086 0.67621 0.72899 0.0
H405 H 0.04426 0.63061 0.68222 0.0
H406 H 0.97706 0.67679 0.68988 0.0
H407 H 0.02955 0.71218 0.65779 0.0
C408 C 0.02334 0.71098 0.72417 0.0
C409 C 0.99148 0.64074 0.72331 0.0
C410 C 0.07259 0.69697 0.66305 0.0
C411 C 0.01646 0.64663 0.64852 0.0
H412 H 0.97863 0.66272 0.76191 0.0
H413 H 0.99433 0.70222 0.76126 0.0
H414 H 0.05899 0.74021 0.72042 0.0
H415 H 0.08763 0.73021 0.68948 0.0
H416 H 0.07539 0.6833 0.61913 0.0
H417 H 0.0447 0.65644 0.61119 0.0
H418 H 0.98485 0.61301 0.65686 0.0
H419 H 0.97257 0.60879 0.69855 0.0
H420 H 0.95204 0.69607 0.66779 0.0
H421 H 1.00528 0.73234 0.63602 0.0
H422 H 0.06679 0.60606 0.70101 0.0
H423 H 0.07549 0.65364 0.74729 0.0
C424 C 0.39442 0.34818 0.03483 0.0
C425 C 0.41471 0.35611 0.03802 0.0
C426 C 0.41808 0.37392 0.02461 0.0
C427 C 0.39969 0.37602 0.01411 0.0
N428 N 0.38471 0.3606 0.01995 0.0
Co429 Co 0.35535 0.3583 0.00889 0.0
N430 N 0.36038 0.38464 0.98922 0.0
C431 C 0.3787 0.39652 0.98625 0.0
C432 C 0.3775 0.4137 0.97193 0.0
C433 C 0.35713 0.41292 0.96549 0.0
C434 C 0.34694 0.39531 0.9764 0.0
N435 N 0.32584 0.35624 0.99813 0.0
C436 C 0.31545 0.36975 0.98477 0.0
C437 C 0.2946 0.3627 0.9827 0.0
C438 C 0.29165 0.34419 0.99513 0.0
C439 C 0.31072 0.34102 1.00418 0.0
N440 N 0.35044 0.33178 0.02831 0.0
C441 C 0.33269 0.31901 0.03005 0.0
C442 C 0.33407 0.30148 0.04387 0.0
C443 C 0.35389 0.30308 0.05148 0.0
C444 C 0.36349 0.32169 0.04198 0.0
N445 N 0.34356 0.3761 0.03193 0.0
C446 C 0.32212 0.40486 0.05837 0.0
C447 C 0.31422 0.38406 0.05739 0.0
C448 C 0.32518 0.36999 0.04417 0.0
C449 C 0.34183 0.41045 0.04744 0.0
C450 C 0.35238 0.39579 0.03464 0.0
N451 N 0.36704 0.34054 0.98561 0.0
C452 C 0.36473 0.30942 0.96466 0.0
C453 C 0.38466 0.31442 0.95386 0.0
C454 C 0.39529 0.33305 0.95871 0.0
C455 C 0.3863 0.34572 0.97451 0.0
C456 C 0.35625 0.32264 0.98029 0.0
H457 H 0.39539 0.35949 0.97754 0.0
H458 H 0.34111 0.31783 0.988 0.0
H459 H 0.31804 0.35456 0.04345 0.0
H460 H 0.36724 0.40101 0.02647 0.0
C461 C 0.39618 0.39203 0.99837 0.0
C462 C 0.38503 0.32897 0.04654 0.0
C463 C 0.32433 0.38979 0.97438 0.0
C464 C 0.31479 0.32418 0.0188 0.0
H465 H 0.42596 0.34975 0.04893 0.0
H466 H 0.43227 0.38414 0.02274 0.0
H467 H 0.38981 0.42569 0.96714 0.0
H468 H 0.3504 0.42424 0.95428 0.0
H469 H 0.28258 0.37029 0.97346 0.0
H470 H 0.27717 0.33442 0.99759 0.0
H471 H 0.32208 0.28902 0.04795 0.0
H472 H 0.36054 0.29175 0.06273 0.0
H473 H 0.29906 0.37902 0.06582 0.0
H474 H 0.34878 0.42627 0.04831 0.0
H475 H 0.35594 0.29505 0.96155 0.0
H476 H 0.41061 0.33783 0.95044 0.0
C477 C 0.69154 0.31713 0.05547 0.0
C478 C 0.69948 0.29675 0.05885 0.0
C479 C 0.71767 0.29557 0.04554 0.0
C480 C 0.71973 0.31512 0.03468 0.0
N481 N 0.704 0.32881 0.04025 0.0
Co482 Co 0.70031 0.35844 0.02733 0.0
N483 N 0.72733 0.35673 0.00792 0.0
C484 C 0.74095 0.34015 0.00712 0.0
C485 C 0.75886 0.34392 0.99338 0.0
C486 C 0.75669 0.36417 0.9849 0.0
C487 C 0.73731 0.37157 0.9938 0.0
N488 N 0.69632 0.38786 0.01406 0.0
C489 C 0.70857 0.39937 0.99854 0.0
C490 C 0.69923 0.41873 0.99327 0.0
C491 C 0.68076 0.41973 1.00623 0.0
C492 C 0.67969 0.40093 0.01847 0.0
N493 N 0.67356 0.36036 0.04712 0.0
C494 C 0.66049 0.37732 0.04872 0.0
C495 C 0.64376 0.37431 0.06409 0.0
C496 C 0.64623 0.35422 0.07289 0.0
C497 C 0.66432 0.346 0.06221 0.0
N498 N 0.71735 0.37057 0.04943 0.0
C499 C 0.74269 0.38948 0.07895 0.0
C500 C 0.72362 0.39875 0.07319 0.0
C501 C 0.71133 0.38914 0.05858 0.0
C502 C 0.74856 0.3702 0.07014 0.0
C503 C 0.73573 0.36108 0.05555 0.0
N504 N 0.68327 0.34642 1.00512 0.0
C505 C 0.65134 0.34663 0.98558 0.0
C506 C 0.6592 0.33035 0.97301 0.0
C507 C 0.67924 0.32201 0.97696 0.0
C508 C 0.69093 0.33024 0.99296 0.0
C509 C 0.66348 0.35433 1.00137 0.0
H510 H 0.70612 0.3233 0.99512 0.0
H511 H 0.65643 0.36667 0.01032 0.0
H512 H 0.69711 0.39716 0.0548 0.0
H513 H 0.74114 0.34649 0.04924 0.0
C514 C 0.73652 0.32126 0.01955 0.0
C515 C 0.67205 0.3245 0.06705 0.0
C516 C 0.7293 0.39292 0.98862 0.0
C517 C 0.66382 0.3955 0.03488 0.0
H518 H 0.69279 0.28398 0.06976 0.0
H519 H 0.72815 0.28205 0.04395 0.0
H520 H 0.77207 0.33329 0.99011 0.0
H521 H 0.76828 0.37251 0.97363 0.0
H522 H 0.70522 0.43098 0.9814 0.0
H523 H 0.66955 0.43274 0.00683 0.0
H524 H 0.63116 0.38535 0.06828 0.0
H525 H 0.63581 0.34649 0.08569 0.0
H526 H 0.71811 0.41343 0.07994 0.0
H527 H 0.76323 0.36241 0.07406 0.0
H528 H 0.63568 0.3533 0.98348 0.0
H529 H 0.68605 0.3094 0.96757 0.0
C530 C 0.72117 0.69579 0.06011 0.0
C531 C 0.74193 0.70282 0.06286 0.0
C532 C 0.74858 0.71529 0.04486 0.0
C533 C 0.73161 0.71521 0.03216 0.0
N534 N 0.71458 0.7037 0.0412 0.0
Co535 Co 0.68731 0.69871 0.02782 0.0
N536 N 0.69333 0.72307 0.00663 0.0
C537 C 0.71253 0.73253 1.00113 0.0
C538 C 0.71139 0.7493 0.98619 0.0
C539 C 0.69012 0.75037 0.98209 0.0
C540 C 0.67954 0.73412 0.99478 0.0
N541 N 0.6603 0.6936 0.01409 0.0
C542 C 0.64945 0.70711 1.00151 0.0
C543 C 0.63105 0.69739 0.99521 0.0
C544 C 0.63043 0.67699 1.00436 0.0
C545 C 0.64845 0.67546 0.01563 0.0
N546 N 0.68105 0.67436 0.04894 0.0
C547 C 0.66654 0.65853 0.0474 0.0
C548 C 0.6658 0.64375 0.06442 0.0
C549 C 0.68098 0.65053 0.07734 0.0
C550 C 0.69027 0.6691 0.06734 0.0
N551 N 0.67212 0.71833 0.04779 0.0
C552 C 0.65068 0.74801 0.07511 0.0
C553 C 0.64056 0.72891 0.0698 0.0
C554 C 0.65153 0.71433 0.05647 0.0
C555 C 0.67215 0.75118 0.06655 0.0
C556 C 0.68221 0.73667 0.05283 0.0
N557 N 0.70275 0.67929 0.00781 0.0
C558 C 0.72973 0.65237 1.00071 0.0
C559 C 0.7276 0.65437 0.97846 0.0
C560 C 0.71192 0.66865 0.97158 0.0
C561 C 0.69987 0.68084 0.9863 0.0
C562 C 0.71726 0.66482 0.01497 0.0
H563 H 0.68842 0.69186 0.98014 0.0
H564 H 0.71981 0.663 0.03182 0.0
H565 H 0.64318 0.6999 0.053 0.0
H566 H 0.69831 0.74048 0.04623 0.0
C567 C 0.73003 0.72785 0.01318 0.0
C568 C 0.70942 0.67962 0.07444 0.0
C569 C 0.65668 0.72882 0.99476 0.0
C570 C 0.6523 0.65939 0.03115 0.0
H571 H 0.75146 0.69892 0.07623 0.0
H572 H 0.76381 0.72371 0.04163 0.0
H573 H 0.72425 0.7601 0.97982 0.0
H574 H 0.68321 0.7618 0.97113 0.0
H575 H 0.61927 0.70438 0.98523 0.0
H576 H 0.61777 0.66513 1.0038 0.0
H577 H 0.65526 0.62989 0.0673 0.0
H578 H 0.68514 0.64243 0.09213 0.0
H579 H 0.62412 0.72519 0.07557 0.0
H580 H 0.68163 0.7648 0.07033 0.0
H581 H 0.74148 0.64176 0.00713 0.0
H582 H 0.70893 0.6706 0.95478 0.0
C583 C 0.39256 0.69749 1.00639 0.0
C584 C 0.41432 0.69266 1.00515 0.0
C585 C 0.41757 0.67898 0.02229 0.0
C586 C 0.39789 0.67639 0.03333 0.0
N587 N 0.38226 0.68735 0.02409 0.0
Co588 Co 0.35282 0.69096 0.0377 0.0
N589 N 0.35562 0.66592 0.05797 0.0
C590 C 0.37407 0.65718 0.06347 0.0
C591 C 0.37091 0.63995 0.07793 0.0
C592 C 0.34906 0.63778 0.08175 0.0
C593 C 0.34017 0.65384 0.0693 0.0
N594 N 0.32347 0.69435 0.05157 0.0
C595 C 0.31067 0.6798 0.06343 0.0
C596 C 0.29087 0.68837 0.06928 0.0
C597 C 0.29144 0.70903 0.06082 0.0
C598 C 0.31144 0.71189 0.05024 0.0
N599 N 0.34998 0.71618 0.01753 0.0
C600 C 0.33435 0.73075 0.01904 0.0
C601 C 0.33477 0.74481 1.00147 0.0
C602 C 0.35198 0.73905 0.98831 0.0
C603 C 0.36167 0.72216 0.99893 0.0
N604 N 0.34068 0.67218 0.01701 0.0
C605 C 0.31989 0.64319 0.99189 0.0
C606 C 0.3124 0.66398 0.9941 0.0
C607 C 0.32283 0.67807 0.00681 0.0
C608 C 0.33859 0.63759 1.00186 0.0
C609 C 0.34888 0.65234 0.01401 0.0
N610 N 0.36487 0.70963 0.0586 0.0
C611 C 0.39145 0.73564 0.06735 0.0
C612 C 0.38503 0.73313 0.08943 0.0
C613 C 0.36742 0.71916 0.0953 0.0
C614 C 0.35789 0.70747 0.07987 0.0
C615 C 0.38102 0.72415 0.05234 0.0
H616 H 0.34503 0.69637 0.08529 0.0
H617 H 0.38648 0.72673 0.03566 0.0
H618 H 0.31593 0.6935 0.00893 0.0
H619 H 0.3631 0.64742 0.02158 0.0
C620 C 0.39336 0.66312 0.05187 0.0
C621 C 0.38302 0.71379 0.99216 0.0
C622 C 0.31719 0.65808 0.06959 0.0
C623 C 0.31746 0.72845 0.03507 0.0
H624 H 0.42698 0.69906 0.99381 0.0
H625 H 0.43261 0.67208 0.02642 0.0
H626 H 0.38297 0.62965 0.08423 0.0
H627 H 0.34063 0.62582 0.09247 0.0
H628 H 0.27731 0.68047 0.07832 0.0
H629 H 0.27832 0.72013 0.06116 0.0
H630 H 0.32335 0.75714 0.99812 0.0
H631 H 0.35679 0.74664 0.97273 0.0
H632 H 0.29796 0.66903 0.98687 0.0
H633 H 0.34513 0.62178 1.0005 0.0
H634 H 0.40483 0.74599 0.06149 0.0
H635 H 0.36085 0.71698 0.11176 0.0
C636 C 0.81965 0.47931 0.85787 0.0
C637 C 0.79978 0.47486 0.85047 0.0
C638 C 0.79947 0.48529 0.83076 0.0
C639 C 0.81899 0.49564 0.82735 0.0
N640 N 0.83202 0.492 0.84339 0.0
Co641 Co 0.86035 0.50662 0.84651 0.0
N642 N 0.85866 0.52435 0.81901 0.0
C643 C 0.84329 0.52292 0.80503 0.0
C644 C 0.84726 0.5356 0.78659 0.0
C645 C 0.86655 0.54544 0.78869 0.0
C646 C 0.87319 0.53831 0.80848 0.0
N647 N 0.88792 0.52201 0.85048 0.0
C648 C 0.89889 0.53732 0.83782 0.0
C649 C 0.91696 0.54438 0.84718 0.0
C650 C 0.9178 0.53261 0.86608 0.0
C651 C 0.90014 0.5193 0.8673 0.0
N652 N 0.86265 0.48819 0.8733 0.0
C653 C 0.87955 0.48712 0.88552 0.0
C654 C 0.87657 0.47279 0.90287 0.0
C655 C 0.85636 0.46454 0.90188 0.0
C656 C 0.84812 0.47453 0.88403 0.0
N657 N 0.87646 0.48453 0.82933 0.0
C658 C 0.89929 0.45451 0.80327 0.0
C659 C 0.90891 0.4645 0.81979 0.0
C660 C 0.89733 0.47915 0.83256 0.0
C661 C 0.87804 0.46015 0.80015 0.0
C662 C 0.86715 0.47486 0.81307 0.0
N663 N 0.84418 0.52863 0.86345 0.0
C664 C 0.83555 0.5468 0.89661 0.0
C665 C 0.81955 0.55891 0.88729 0.0
C666 C 0.81615 0.55521 0.86588 0.0
C667 C 0.82834 0.54025 0.85449 0.0
C668 C 0.84768 0.53204 0.88448 0.0
H669 H 0.82452 0.53829 0.83837 0.0
H670 H 0.85988 0.52355 0.89241 0.0
H671 H 0.90564 0.48591 0.845 0.0
H672 H 0.85114 0.4782 0.80938 0.0
C673 C 0.8252 0.50971 0.80985 0.0
C674 C 0.82577 0.47218 0.87917 0.0
C675 C 0.89383 0.54444 0.81618 0.0
C676 C 0.89604 0.5024 0.88252 0.0
H677 H 0.78662 0.46557 0.85865 0.0
H678 H 0.78626 0.48591 0.82051 0.0
H679 H 0.83745 0.53724 0.77307 0.0
H680 H 0.87491 0.55631 0.77679 0.0
H681 H 0.92874 0.55626 0.84064 0.0
H682 H 0.93029 0.53309 0.87715 0.0
H683 H 0.88724 0.46975 0.91551 0.0
H684 H 0.84817 0.45329 0.91357 0.0
H685 H 0.92521 0.46073 0.82322 0.0
H686 H 0.86968 0.45339 0.78749 0.0
H687 H 0.83908 0.54904 0.91303 0.0
H688 H 0.80388 0.56378 0.85779 0.0
C689 C 0.48037 0.8314 0.89952 0.0
C690 C 0.47409 0.83828 0.91978 0.0
C691 C 0.48104 0.85894 0.92018 0.0
C692 C 0.49178 0.8634 0.90055 0.0
N693 N 0.49196 0.84692 0.88748 0.0
Co694 Co 0.51099 0.84467 0.86032 0.0
N695 N 0.52422 0.87367 0.86275 0.0
C696 C 0.51793 0.88806 0.87716 0.0
C697 C 0.52963 0.90678 0.87483 0.0
C698 C 0.5442 0.90426 0.85781 0.0
C699 C 0.5405 0.88406 0.85063 0.0
N700 N 0.53111 0.84146 0.83418 0.0
C701 C 0.54743 0.85433 0.82533 0.0
C702 C 0.55772 0.84561 0.80745 0.0
C703 C 0.54782 0.82645 0.80515 0.0
C704 C 0.53208 0.82455 0.82163 0.0
N705 N 0.49685 0.8164 0.85706 0.0
C706 C 0.49949 0.80429 0.83989 0.0
C707 C 0.48537 0.78735 0.84054 0.0
C708 C 0.47323 0.78852 0.85949 0.0
C709 C 0.48113 0.80582 0.86967 0.0
N710 N 0.48911 0.85836 0.84266 0.0
C711 C 0.45829 0.87788 0.81755 0.0
C712 C 0.4723 0.86282 0.80909 0.0
C713 C 0.48747 0.85344 0.82173 0.0
C714 C 0.45999 0.88311 0.83878 0.0
C715 C 0.47528 0.87316 0.85097 0.0
N716 N 0.53258 0.83114 0.87798 0.0
C717 C 0.55271 0.80027 0.88889 0.0
C718 C 0.55942 0.81066 0.90655 0.0
C719 C 0.55342 0.8318 0.90888 0.0
C720 C 0.54018 0.84165 0.89456 0.0
C721 C 0.53938 0.81079 0.87482 0.0
H722 H 0.5359 0.85766 0.89755 0.0
H723 H 0.53432 0.80208 0.86175 0.0
H724 H 0.49768 0.84233 0.81403 0.0
H725 H 0.47552 0.87776 0.86709 0.0
C726 C 0.50336 0.88226 0.89458 0.0
C727 C 0.47494 0.8102 0.89212 0.0
C728 C 0.55336 0.87513 0.83284 0.0
C729 C 0.51662 0.80817 0.82449 0.0
H730 H 0.466 0.82936 0.93334 0.0
H731 H 0.47939 0.86914 0.9336 0.0
H732 H 0.52836 0.92028 0.88489 0.0
H733 H 0.55648 0.91583 0.85178 0.0
H734 H 0.57081 0.85252 0.79688 0.0
H735 H 0.55134 0.81547 0.79264 0.0
H736 H 0.48443 0.77524 0.82894 0.0
H737 H 0.46054 0.77736 0.86548 0.0
H738 H 0.47182 0.85848 0.7926 0.0
H739 H 0.44935 0.8946 0.8461 0.0
H740 H 0.5571 0.7839 0.88635 0.0
H741 H 0.55872 0.84072 0.92193 0.0
C742 C 0.15926 0.53715 0.84356 0.0
C743 C 0.1383 0.54033 0.8516 0.0
C744 C 0.13532 0.52844 0.87054 0.0
C745 C 0.15444 0.51851 0.87298 0.0
N746 N 0.16972 0.52372 0.85701 0.0
Co747 Co 0.19866 0.51022 0.85284 0.0
N748 N 0.19309 0.49043 0.8791 0.0
C749 C 0.17499 0.48921 0.89242 0.0
C750 C 0.1762 0.47525 0.9099 0.0
C751 C 0.19651 0.46745 0.90794 0.0
C752 C 0.20656 0.4772 0.88933 0.0
N753 N 0.22738 0.49644 0.84833 0.0
C754 C 0.23755 0.48232 0.86124 0.0
C755 C 0.25791 0.47785 0.85238 0.0
C756 C 0.26086 0.48979 0.83345 0.0
C757 C 0.24224 0.50087 0.83179 0.0
N758 N 0.20446 0.53034 0.8269 0.0
C759 C 0.22292 0.53218 0.81415 0.0
C760 C 0.22221 0.54709 0.79738 0.0
C761 C 0.2019 0.55489 0.79922 0.0
C762 C 0.19124 0.54406 0.81692 0.0
N763 N 0.21181 0.53137 0.8713 0.0
C764 C 0.23349 0.55571 0.90048 0.0
C765 C 0.24248 0.55299 0.87966 0.0
C766 C 0.23156 0.54078 0.86553 0.0
C767 C 0.21292 0.54702 0.90595 0.0
C768 C 0.20232 0.53541 0.89115 0.0
N769 N 0.18553 0.48898 0.83443 0.0
C770 C 0.18207 0.47525 0.7992 0.0
C771 C 0.16329 0.46384 0.80642 0.0
C772 C 0.15646 0.46433 0.82817 0.0
C773 C 0.16763 0.47697 0.84174 0.0
C774 C 0.19307 0.48722 0.8134 0.0
H775 H 0.16102 0.47725 0.85792 0.0
H776 H 0.20734 0.4954 0.80682 0.0
H777 H 0.23975 0.53862 0.85026 0.0
H778 H 0.18667 0.52931 0.89637 0.0
C779 C 0.15774 0.50252 0.88876 0.0
C780 C 0.16814 0.54608 0.82247 0.0
C781 C 0.22923 0.4741 0.88268 0.0
C782 C 0.23951 0.51775 0.81678 0.0
H783 H 0.12604 0.54953 0.84426 0.0
H784 H 0.12056 0.52637 0.88073 0.0
H785 H 0.16405 0.47175 0.92292 0.0
H786 H 0.20339 0.45632 0.91923 0.0
H787 H 0.26976 0.46772 0.85927 0.0
H788 H 0.27535 0.49117 0.82279 0.0
H789 H 0.23462 0.55103 0.7847 0.0
H790 H 0.19536 0.56655 0.78823 0.0
H791 H 0.25835 0.55941 0.87461 0.0
H792 H 0.20508 0.54897 0.92175 0.0
H793 H 0.18807 0.47524 0.78249 0.0
H794 H 0.14196 0.45582 0.8345 0.0
C795 C 0.48859 0.22653 0.8498 0.0
C796 C 0.48067 0.24222 0.83615 0.0
C797 C 0.49464 0.24404 0.81829 0.0
C798 C 0.51025 0.22948 0.82205 0.0
N799 N 0.50712 0.21846 0.84127 0.0
Co800 Co 0.52564 0.19554 0.85312 0.0
N801 N 0.54563 0.19771 0.82646 0.0
C802 C 0.54512 0.21192 0.80946 0.0
C803 C 0.56046 0.2086 0.79319 0.0
C804 C 0.57105 0.19091 0.79998 0.0
C805 C 0.56151 0.18451 0.8201 0.0
N806 N 0.5439 0.17227 0.86467 0.0
C807 C 0.55955 0.16131 0.85424 0.0
C808 C 0.56739 0.14515 0.8673 0.0
C809 C 0.55582 0.14558 0.88669 0.0
C810 C 0.54167 0.1619 0.88426 0.0
N811 N 0.50582 0.19347 0.87991 0.0
C812 C 0.50776 0.18064 0.89778 0.0
C813 C 0.49146 0.18262 0.91342 0.0
C814 C 0.47836 0.19765 0.90513 0.0
C815 C 0.48754 0.20406 0.88483 0.0
N816 N 0.50816 0.17379 0.84028 0.0
C817 C 0.4838 0.14229 0.82208 0.0
C818 C 0.48787 0.14062 0.84378 0.0
C819 C 0.50015 0.15626 0.85239 0.0
C820 C 0.49218 0.16014 0.80967 0.0
C821 C 0.50406 0.17566 0.81906 0.0
N822 N 0.54332 0.21741 0.86607 0.0
C823 C 0.56194 0.22927 0.89598 0.0
C824 C 0.56885 0.24806 0.88439 0.0
C825 C 0.56259 0.25133 0.86352 0.0
C826 C 0.54985 0.23602 0.85482 0.0
C827 C 0.54941 0.21432 0.88659 0.0
H828 H 0.54557 0.23971 0.83897 0.0
H829 H 0.54483 0.20049 0.89641 0.0
H830 H 0.50296 0.15381 0.86891 0.0
H831 H 0.5099 0.18899 0.80885 0.0
C832 C 0.52816 0.22605 0.80797 0.0
C833 C 0.4784 0.22045 0.87102 0.0
C834 C 0.56614 0.16455 0.83155 0.0
C835 C 0.52459 0.16625 0.89903 0.0
H836 H 0.46638 0.25155 0.83886 0.0
H837 H 0.49362 0.25481 0.8043 0.0
H838 H 0.56277 0.21719 0.77769 0.0
H839 H 0.58363 0.18306 0.7907 0.0
H840 H 0.57959 0.13374 0.86292 0.0
H841 H 0.55683 0.13458 0.90051 0.0
H842 H 0.48924 0.17401 0.92891 0.0
H843 H 0.46368 0.20324 0.9131 0.0
H844 H 0.48145 0.12742 0.85429 0.0
H845 H 0.48982 0.16212 0.79271 0.0
H846 H 0.56589 0.22612 0.9124 0.0
H847 H 0.56764 0.26554 0.85374 0.0
C848 C 0.83942 0.499 0.15186 0.0
C849 C 0.84822 0.4938 0.13178 0.0
C850 C 0.86401 0.5086 0.12574 0.0
C851 C 0.86411 0.52183 0.14245 0.0
N852 N 0.84923 0.51646 0.15879 0.0
Co853 Co 0.84479 0.53056 0.18677 0.0
N854 N 0.86858 0.55173 0.17811 0.0
C855 C 0.87976 0.5544 0.15877 0.0
C856 C 0.89543 0.57002 0.15795 0.0
C857 C 0.89441 0.5775 0.17809 0.0
C858 C 0.87818 0.56589 0.19002 0.0
N859 N 0.84104 0.54411 0.21511 0.0
C860 C 0.85388 0.55845 0.22363 0.0
C861 C 0.84669 0.56249 0.24453 0.0
C862 C 0.8288 0.54993 0.24954 0.0
C863 C 0.82621 0.53895 0.23151 0.0
N864 N 0.82054 0.5098 0.19519 0.0
C865 C 0.80728 0.50936 0.21336 0.0
C866 C 0.79175 0.49364 0.21439 0.0
C867 C 0.79526 0.48341 0.19578 0.0
C868 C 0.81291 0.49345 0.18447 0.0
N869 N 0.86547 0.51079 0.19932 0.0
C870 C 0.89647 0.48723 0.22016 0.0
C871 C 0.87524 0.48743 0.22884 0.0
C872 C 0.86011 0.49931 0.21827 0.0
C873 C 0.90172 0.49813 0.20038 0.0
C874 C 0.88599 0.50949 0.19013 0.0
N875 N 0.8241 0.55074 0.17433 0.0
C876 C 0.79264 0.5727 0.17855 0.0
C877 C 0.79656 0.58178 0.15775 0.0
C878 C 0.81412 0.5746 0.14516 0.0
C879 C 0.82747 0.55916 0.15364 0.0
C880 C 0.80641 0.55732 0.1864 0.0
H881 H 0.84052 0.55452 0.14314 0.0
H882 H 0.80239 0.55114 0.20234 0.0
H883 H 0.84431 0.49948 0.22602 0.0
H884 H 0.89089 0.51753 0.17505 0.0
C885 C 0.87752 0.53978 0.143 0.0
C886 C 0.82175 0.48691 0.16362 0.0
C887 C 0.87369 0.5675 0.21298 0.0
C888 C 0.8108 0.5229 0.22983 0.0
H889 H 0.84369 0.48067 0.12243 0.0
H890 H 0.87419 0.50961 0.11092 0.0
H891 H 0.90703 0.57454 0.14469 0.0
H892 H 0.90499 0.58946 0.18368 0.0
H893 H 0.85397 0.57298 0.25521 0.0
H894 H 0.81928 0.54843 0.26475 0.0
H895 H 0.77954 0.48984 0.2273 0.0
H896 H 0.78592 0.47 0.19113 0.0
H897 H 0.87051 0.47916 0.24416 0.0
H898 H 0.91794 0.49802 0.19291 0.0
H899 H 0.77891 0.57734 0.18878 0.0
H900 H 0.81791 0.58116 0.12892 0.0
C901 C 0.55321 0.86038 0.16792 0.0
C902 C 0.55689 0.86973 0.1473 0.0
C903 C 0.54566 0.8882 0.1467 0.0
C904 C 0.53547 0.88911 0.16678 0.0
N905 N 0.53962 0.87241 0.18032 0.0
Co906 Co 0.52574 0.86673 0.21022 0.0
N907 N 0.50675 0.89244 0.20812 0.0
C908 C 0.50599 0.9061 0.19074 0.0
C909 C 0.49182 0.92235 0.19365 0.0
C910 C 0.48303 0.91905 0.21422 0.0
C911 C 0.4925 0.90097 0.22283 0.0
N912 N 0.51199 0.86117 0.24019 0.0
C913 C 0.49743 0.87261 0.25214 0.0
C914 C 0.49362 0.86341 0.27278 0.0
C915 C 0.50605 0.84572 0.27397 0.0
C916 C 0.51688 0.84509 0.25413 0.0
N917 N 0.54442 0.84079 0.21213 0.0
C918 C 0.54518 0.82713 0.22952 0.0
C919 C 0.55891 0.81055 0.22639 0.0
C920 C 0.5672 0.81351 0.2056 0.0
C921 C 0.55792 0.83173 0.19707 0.0
N922 N 0.54838 0.88483 0.22232 0.0
C923 C 0.57716 0.91214 0.24251 0.0
C924 C 0.57472 0.89028 0.24853 0.0
C925 C 0.56037 0.87719 0.23852 0.0
C926 C 0.56508 0.91966 0.22564 0.0
C927 C 0.55145 0.90591 0.21566 0.0
N928 N 0.50317 0.84869 0.19826 0.0
C929 C 0.48413 0.81472 0.19781 0.0
C930 C 0.47398 0.82117 0.17928 0.0
C931 C 0.47864 0.84203 0.17077 0.0
C932 C 0.49315 0.8553 0.18032 0.0
C933 C 0.49814 0.82862 0.20707 0.0
H934 H 0.49611 0.8708 0.17276 0.0
H935 H 0.50499 0.82261 0.22125 0.0
H936 H 0.5592 0.86093 0.24437 0.0
H937 H 0.54329 0.91288 0.20274 0.0
C938 C 0.51983 0.90391 0.17243 0.0
C939 C 0.56251 0.83972 0.17457 0.0
C940 C 0.48741 0.89268 0.24508 0.0
C941 C 0.53222 0.83002 0.24832 0.0
H942 H 0.56613 0.86356 0.13375 0.0
H943 H 0.54421 0.89912 0.13291 0.0
H944 H 0.48856 0.93531 0.18228 0.0
H945 H 0.47115 0.92899 0.22204 0.0
H946 H 0.48327 0.86913 0.28581 0.0
H947 H 0.50739 0.83486 0.28783 0.0
H948 H 0.56225 0.79764 0.23778 0.0
H949 H 0.57868 0.80325 0.19764 0.0
H950 H 0.58382 0.883 0.26093 0.0
H951 H 0.56558 0.93628 0.22011 0.0
H952 H 0.48174 0.79879 0.20516 0.0
H953 H 0.47109 0.84833 0.15682 0.0
C954 C 0.19595 0.56301 0.15874 0.0
C955 C 0.18709 0.57531 0.14267 0.0
C956 C 0.16544 0.57091 0.14464 0.0
C957 C 0.16233 0.55629 0.1618 0.0
N958 N 0.18065 0.5513 0.17073 0.0
Co959 Co 0.18363 0.53082 0.19562 0.0
N960 N 0.15548 0.5169 0.19192 0.0
C961 C 0.14022 0.52482 0.17973 0.0
C962 C 0.12264 0.51151 0.17972 0.0
C963 C 0.12686 0.49433 0.19308 0.0
C964 C 0.14674 0.49827 0.2008 0.0
N965 N 0.1866 0.51055 0.22079 0.0
C966 C 0.17478 0.4929 0.22793 0.0
C967 C 0.18184 0.48434 0.24707 0.0
C968 C 0.19832 0.49724 0.2522 0.0
C969 C 0.20046 0.51294 0.23605 0.0
N970 N 0.21182 0.54482 0.19899 0.0
C971 C 0.22284 0.54358 0.21665 0.0
C972 C 0.24222 0.55436 0.21382 0.0
C973 C 0.24342 0.56291 0.19308 0.0
C974 C 0.22457 0.55691 0.18446 0.0
N975 N 0.16952 0.55085 0.21461 0.0
C976 C 0.15027 0.57912 0.24282 0.0
C977 C 0.16603 0.58637 0.22691 0.0
C978 C 0.1754 0.57198 0.2129 0.0
C979 C 0.14429 0.5575 0.24426 0.0
C980 C 0.15405 0.5437 0.23002 0.0
N981 N 0.1979 0.511 0.17665 0.0
C982 C 0.22871 0.48988 0.16773 0.0
C983 C 0.22237 0.48831 0.14691 0.0
C984 C 0.20293 0.49719 0.14162 0.0
C985 C 0.19077 0.50826 0.15685 0.0
C986 C 0.21628 0.50137 0.18235 0.0
H987 H 0.17609 0.51536 0.15226 0.0
H988 H 0.22208 0.50327 0.19791 0.0
H989 H 0.18746 0.57796 0.20074 0.0
H990 H 0.14912 0.52719 0.23169 0.0
C991 C 0.14388 0.54363 0.16682 0.0
C992 C 0.21871 0.56346 0.16281 0.0
C993 C 0.15493 0.48575 0.21897 0.0
C994 C 0.21649 0.52889 0.23362 0.0
H995 H 0.19542 0.58614 0.13068 0.0
H996 H 0.15362 0.57675 0.13407 0.0
H997 H 0.10853 0.51387 0.1709 0.0
H998 H 0.11612 0.48084 0.19736 0.0
H999 H 0.17532 0.47067 0.2568 0.0
H1000 H 0.20767 0.49533 0.26604 0.0
H1001 H 0.25453 0.55499 0.22507 0.0
H1002 H 0.25672 0.57225 0.18523 0.0
H1003 H 0.17089 0.60305 0.2251 0.0
H1004 H 0.13233 0.55119 0.25649 0.0
H1005 H 0.2437 0.48323 0.17235 0.0
H1006 H 0.19741 0.496 0.12571 0.0
C1007 C 0.49382 0.19879 0.22539 0.0
C1008 C 0.48198 0.20909 0.2413 0.0
C1009 C 0.48701 0.23044 0.2381 0.0
C1010 C 0.5015 0.23197 0.22043 0.0
N1011 N 0.50587 0.21294 0.21236 0.0
Co1012 Co 0.52545 0.2079 0.1868 0.0
N1013 N 0.54041 0.23582 0.18853 0.0
C1014 C 0.53261 0.2524 0.19935 0.0
C1015 C 0.54587 0.27011 0.19691 0.0
C1016 C 0.56294 0.26445 0.18349 0.0
C1017 C 0.55914 0.24349 0.17846 0.0
N1018 N 0.54502 0.20284 0.16111 0.0
C1019 C 0.56341 0.21322 0.15335 0.0
C1020 C 0.57186 0.20442 0.13469 0.0
C1021 C 0.55798 0.18838 0.1304 0.0
C1022 C 0.54195 0.18815 0.14667 0.0
N1023 N 0.51016 0.18012 0.18516 0.0
C1024 C 0.51073 0.16799 0.16804 0.0
C1025 C 0.49976 0.14893 0.17223 0.0
C1026 C 0.4918 0.14911 0.19327 0.0
C1027 C 0.49816 0.16848 0.20073 0.0
N1028 N 0.50494 0.22198 0.1681 0.0
C1029 C 0.47523 0.24467 0.14386 0.0
C1030 C 0.49745 0.24778 0.13947 0.0
C1031 C 0.51194 0.23641 0.15173 0.0
C1032 C 0.46835 0.22929 0.16021 0.0
C1033 C 0.48333 0.21812 0.17196 0.0
N1034 N 0.54576 0.19387 0.20563 0.0
C1035 C 0.56619 0.16296 0.21622 0.0
C1036 C 0.57093 0.172 0.23545 0.0
C1037 C 0.56349 0.19276 0.2387 0.0
C1038 C 0.55095 0.20324 0.22383 0.0
C1039 C 0.55377 0.17414 0.20156 0.0
H1040 H 0.54501 0.21881 0.22736 0.0
H1041 H 0.55015 0.16651 0.1872 0.0
H1042 H 0.52883 0.23973 0.14821 0.0
H1043 H 0.47736 0.20662 0.18452 0.0
C1044 C 0.51409 0.24997 0.21339 0.0
C1045 C 0.49234 0.17582 0.22233 0.0
C1046 C 0.57225 0.23249 0.16209 0.0
C1047 C 0.52543 0.1728 0.15039 0.0
H1048 H 0.47087 0.20191 0.25385 0.0
H1049 H 0.48144 0.24316 0.24802 0.0
H1050 H 0.54354 0.28525 0.2042 0.0
H1051 H 0.57631 0.27482 0.17757 0.0
H1052 H 0.58637 0.20927 0.125 0.0
H1053 H 0.55966 0.17784 0.11726 0.0
H1054 H 0.49886 0.13585 0.16172 0.0
H1055 H 0.48283 0.13618 0.20204 0.0
H1056 H 0.50367 0.25949 0.12713 0.0
H1057 H 0.45141 0.22593 0.16404 0.0
H1058 H 0.57138 0.14704 0.21274 0.0
H1059 H 0.5671 0.20096 0.25281 0.0
C1060 C 0.84495 0.8798 0.49959 0.0
C1061 C 0.85512 0.8983 0.49057 0.0
C1062 C 0.8754 0.89836 0.49731 0.0
C1063 C 0.87651 0.87995 0.50997 0.0
N1064 N 0.8581 0.86819 0.51198 0.0
Co1065 Co 0.8534 0.83966 0.52814 0.0
N1066 N 0.88346 0.83951 0.53768 0.0
C1067 C 0.89834 0.85537 0.5337 0.0
C1068 C 0.91747 0.85109 0.54225 0.0
C1069 C 0.91466 0.83137 0.55246 0.0
C1070 C 0.89382 0.8247 0.54967 0.0
N1071 N 0.84896 0.81072 0.54347 0.0
C1072 C 0.86257 0.79836 0.55459 0.0
C1073 C 0.85256 0.77943 0.56277 0.0
C1074 C 0.83217 0.77963 0.55634 0.0
C1075 C 0.83075 0.79863 0.54474 0.0
N1076 N 0.82308 0.84022 0.51931 0.0
C1077 C 0.80749 0.82539 0.52503 0.0
C1078 C 0.78824 0.83001 0.51684 0.0
C1079 C 0.79169 0.84891 0.50513 0.0
C1080 C 0.81297 0.85475 0.5068 0.0
N1081 N 0.86301 0.8255 0.5017 0.0
C1082 C 0.8776 0.80357 0.46559 0.0
C1083 C 0.85746 0.79891 0.47608 0.0
C1084 C 0.85053 0.80998 0.49397 0.0
C1085 C 0.89005 0.81985 0.47303 0.0
C1086 C 0.88246 0.8306 0.49093 0.0
N1087 N 0.84376 0.85376 0.55473 0.0
C1088 C 0.82104 0.85399 0.58771 0.0
C1089 C 0.82981 0.87354 0.59238 0.0
C1090 C 0.84581 0.88304 0.57813 0.0
C1091 C 0.85267 0.87282 0.55962 0.0
C1092 C 0.82804 0.84456 0.56887 0.0
H1093 H 0.8651 0.88075 0.54952 0.0
H1094 H 0.82024 0.82995 0.5661 0.0
H1095 H 0.83517 0.80545 0.50146 0.0
H1096 H 0.89269 0.8428 0.49591 0.0
C1097 C 0.89438 0.87344 0.52063 0.0
C1098 C 0.82289 0.87395 0.49568 0.0
C1099 C 0.88487 0.80394 0.55826 0.0
C1100 C 0.81203 0.80638 0.53636 0.0
H1101 H 0.84854 0.91046 0.48015 0.0
H1102 H 0.88787 0.9104 0.49341 0.0
H1103 H 0.93191 0.86096 0.54086 0.0
H1104 H 0.92676 0.82281 0.56077 0.0
H1105 H 0.85916 0.76686 0.57268 0.0
H1106 H 0.8197 0.76758 0.56013 0.0
H1107 H 0.77358 0.82047 0.51866 0.0
H1108 H 0.77999 0.85731 0.4961 0.0
H1109 H 0.84733 0.78629 0.47097 0.0
H1110 H 0.90566 0.8242 0.46516 0.0
H1111 H 0.80828 0.84631 0.59821 0.0
H1112 H 0.85296 0.89829 0.58124 0.0
C1113 C 0.19123 0.78833 0.55781 0.0
C1114 C 0.20411 0.77225 0.56569 0.0
C1115 C 0.22296 0.77326 0.55317 0.0
C1116 C 0.22091 0.79023 0.53884 0.0
N1117 N 0.20198 0.80031 0.5416 0.0
Co1118 Co 0.19451 0.82829 0.52729 0.0
N1119 N 0.22228 0.82971 0.5088 0.0
C1120 C 0.23727 0.81438 0.50754 0.0
C1121 C 0.25464 0.81981 0.49352 0.0
C1122 C 0.25064 0.83988 0.48547 0.0
C1123 C 0.23095 0.84559 0.4951 0.0
N1124 N 0.18763 0.85693 0.51389 0.0
C1125 C 0.20007 0.87071 0.50067 0.0
C1126 C 0.1896 0.88965 0.49636 0.0
C1127 C 0.17001 0.88798 0.50762 0.0
C1128 C 0.16967 0.86821 0.5181 0.0
N1129 N 0.16621 0.82622 0.54489 0.0
C1130 C 0.14996 0.84017 0.54365 0.0
C1131 C 0.13106 0.83294 0.55417 0.0
C1132 C 0.13541 0.81317 0.56267 0.0
C1133 C 0.15708 0.80964 0.55747 0.0
N1134 N 0.20801 0.8431 0.55015 0.0
C1135 C 0.22747 0.86354 0.58286 0.0
C1136 C 0.2061 0.86743 0.57895 0.0
C1137 C 0.19672 0.85707 0.56262 0.0
C1138 C 0.23895 0.84955 0.56992 0.0
C1139 C 0.22902 0.8396 0.55386 0.0
N1140 N 0.18092 0.81336 0.50448 0.0
C1141 C 0.15107 0.80907 0.48255 0.0
C1142 C 0.15847 0.78922 0.4764 0.0
C1143 C 0.17804 0.78234 0.48351 0.0
C1144 C 0.18887 0.79451 0.49746 0.0
C1145 C 0.16257 0.82086 0.49626 0.0
H1146 H 0.20338 0.78808 0.50273 0.0
H1147 H 0.15592 0.83572 0.5004 0.0
H1148 H 0.18033 0.86057 0.56036 0.0
H1149 H 0.23878 0.82919 0.54462 0.0
C1150 C 0.23624 0.79683 0.52231 0.0
C1151 C 0.16844 0.79056 0.56507 0.0
C1152 C 0.22199 0.86682 0.49218 0.0
C1153 C 0.15264 0.85955 0.53164 0.0
H1154 H 0.20026 0.76068 0.57891 0.0
H1155 H 0.23654 0.76284 0.55436 0.0
H1156 H 0.26907 0.81076 0.49045 0.0
H1157 H 0.26144 0.8495 0.47444 0.0
H1158 H 0.19562 0.90332 0.48629 0.0
H1159 H 0.15758 0.89983 0.50823 0.0
H1160 H 0.11573 0.84081 0.55496 0.0
H1161 H 0.12361 0.80255 0.57128 0.0
H1162 H 0.19655 0.87815 0.5886 0.0
H1163 H 0.25571 0.84642 0.57194 0.0
H1164 H 0.13601 0.81522 0.47757 0.0
H1165 H 0.18486 0.7674 0.4787 0.0
C1166 C 0.1586 0.18354 0.55688 0.0
C1167 C 0.13901 0.174 0.56411 0.0
C1168 C 0.13683 0.15617 0.55277 0.0
C1169 C 0.15524 0.15557 0.53945 0.0
N1170 N 0.16922 0.17164 0.5419 0.0
Co1171 Co 0.19785 0.17596 0.52537 0.0
N1172 N 0.19707 0.14698 0.51342 0.0
C1173 C 0.17944 0.13435 0.51366 0.0
C1174 C 0.18307 0.11565 0.50371 0.0
C1175 C 0.20433 0.11649 0.49658 0.0
C1176 C 0.21262 0.13568 0.50273 0.0
N1177 N 0.22647 0.18019 0.50875 0.0
C1178 C 0.23975 0.16607 0.49867 0.0
C1179 C 0.25837 0.17629 0.48963 0.0
C1180 C 0.2565 0.19746 0.49363 0.0
C1181 C 0.23701 0.19904 0.50506 0.0
N1182 N 0.19856 0.20505 0.53727 0.0
C1183 C 0.21247 0.2209 0.53007 0.0
C1184 C 0.20899 0.23957 0.54015 0.0
C1185 C 0.19154 0.23548 0.55441 0.0
C1186 C 0.18527 0.21443 0.55233 0.0
N1187 N 0.2121 0.16406 0.55002 0.0
C1188 C 0.23407 0.14576 0.58369 0.0
C1189 C 0.24088 0.16535 0.57345 0.0
C1190 C 0.22972 0.17418 0.55669 0.0
C1191 C 0.21577 0.13573 0.57695 0.0
C1192 C 0.205 0.14517 0.5602 0.0
N1193 N 0.18366 0.18781 0.50056 0.0
C1194 C 0.15752 0.21115 0.48594 0.0
C1195 C 0.16361 0.20514 0.46519 0.0
C1196 C 0.17981 0.19015 0.46245 0.0
C1197 C 0.18973 0.18181 0.4803 0.0
C1198 C 0.1676 0.20223 0.50334 0.0
H1199 H 0.20236 0.17055 0.47761 0.0
H1200 H 0.16228 0.20712 0.519 0.0
H1201 H 0.23562 0.18905 0.54894 0.0
H1202 H 0.19108 0.13699 0.55536 0.0
C1203 C 0.16064 0.13934 0.5257 0.0
C1204 C 0.16503 0.2051 0.56284 0.0
C1205 C 0.23479 0.14323 0.49634 0.0
C1206 C 0.22945 0.2172 0.51495 0.0
H1207 H 0.12719 0.17971 0.5759 0.0
H1208 H 0.12344 0.14492 0.55417 0.0
H1209 H 0.17173 0.10272 0.5022 0.0
H1210 H 0.21267 0.10447 0.48756 0.0
H1211 H 0.27196 0.1693 0.48104 0.0
H1212 H 0.26828 0.21006 0.48933 0.0
H1213 H 0.21806 0.25441 0.53743 0.0
H1214 H 0.18389 0.24695 0.56466 0.0
H1215 H 0.25506 0.17359 0.57797 0.0
H1216 H 0.20975 0.12071 0.5846 0.0
H1217 H 0.14482 0.22248 0.48879 0.0
H1218 H 0.18503 0.18516 0.4466 0.0
C1219 C 0.81819 0.1645 0.49176 0.0
C1220 C 0.79957 0.17414 0.48562 0.0
C1221 C 0.79918 0.1939 0.49375 0.0
C1222 C 0.81735 0.19521 0.50461 0.0
N1223 N 0.82956 0.17761 0.5037 0.0
Co1224 Co 0.85599 0.17228 0.51969 0.0
N1225 N 0.85428 0.20061 0.5333 0.0
C1226 C 0.84001 0.21603 0.52923 0.0
C1227 C 0.84272 0.23398 0.54035 0.0
C1228 C 0.85992 0.22994 0.55207 0.0
C1229 C 0.8669 0.20969 0.54736 0.0
N1230 N 0.88168 0.16631 0.53656 0.0
C1231 C 0.89161 0.17827 0.5506 0.0
C1232 C 0.90938 0.16791 0.55797 0.0
C1233 C 0.9105 0.14875 0.54867 0.0
C1234 C 0.89355 0.14844 0.53603 0.0
N1235 N 0.85828 0.14441 0.50539 0.0
C1236 C 0.87445 0.13045 0.5068 0.0
C1237 C 0.8724 0.11308 0.49468 0.0
C1238 C 0.85368 0.116 0.48509 0.0
C1239 C 0.84514 0.13493 0.49214 0.0
N1240 N 0.87483 0.18625 0.49546 0.0
C1241 C 0.90289 0.20809 0.46339 0.0
C1242 C 0.90994 0.19115 0.4764 0.0
C1243 C 0.89579 0.18039 0.49179 0.0
C1244 C 0.88126 0.21356 0.46655 0.0
C1245 C 0.86771 0.20266 0.48257 0.0
N1246 N 0.83734 0.1585 0.54381 0.0
C1247 C 0.82806 0.12813 0.56851 0.0
C1248 C 0.81039 0.13872 0.57775 0.0
C1249 C 0.8065 0.1594 0.56957 0.0
C1250 C 0.82006 0.16891 0.55282 0.0
C1251 C 0.8412 0.13822 0.55172 0.0
H1252 H 0.81622 0.18469 0.54734 0.0
H1253 H 0.85444 0.12933 0.54536 0.0
H1254 H 0.90247 0.16755 0.50066 0.0
H1255 H 0.85158 0.20798 0.48421 0.0
C1256 C 0.8233 0.21252 0.51613 0.0
C1257 C 0.82416 0.14274 0.48631 0.0
C1258 C 0.88539 0.19972 0.55691 0.0
C1259 C 0.88989 0.13286 0.52153 0.0
H1260 H 0.78727 0.16754 0.47652 0.0
H1261 H 0.78686 0.20575 0.4923 0.0
H1262 H 0.83308 0.24818 0.54024 0.0
H1263 H 0.86642 0.24069 0.56299 0.0
H1264 H 0.92078 0.17376 0.56855 0.0
H1265 H 0.92271 0.13682 0.55029 0.0
H1266 H 0.8829 0.09954 0.49353 0.0
H1267 H 0.84684 0.10516 0.47445 0.0
H1268 H 0.92651 0.18627 0.47518 0.0
H1269 H 0.87462 0.22618 0.45672 0.0
H1270 H 0.83199 0.11222 0.57439 0.0
H1271 H 0.79287 0.16823 0.57585 0.0
H1272 H 0.25554 0.14646 0.45477 0.0
H1273 H 0.24967 0.10562 0.51308 0.0
H1274 H 0.27385 0.0796 0.49572 0.0
H1275 H 0.25744 0.10495 0.41728 0.0
H1276 H 0.27725 0.11819 0.3985 0.0
H1277 H 0.25953 0.13369 0.41536 0.0
H1278 H 0.29222 0.15238 0.42984 0.0
H1279 H 0.31003 0.13707 0.41287 0.0
H1280 H 0.31266 0.13644 0.4414 0.0
H1281 H 0.29798 0.05706 0.47131 0.0
H1282 H 0.32133 0.04107 0.44292 0.0
H1283 H 0.31419 0.09724 0.40082 0.0
C1284 C 0.25966 0.13222 0.46402 0.0
C1285 C 0.25079 0.12832 0.48556 0.0
C1286 C 0.25627 0.10914 0.49674 0.0
C1287 C 0.27001 0.09421 0.48694 0.0
C1288 C 0.27848 0.09854 0.46579 0.0
C1289 C 0.27368 0.1172 0.45451 0.0
C1290 C 0.28516 0.11801 0.43202 0.0
C1291 C 0.26887 0.11876 0.41477 0.0
C1292 C 0.30096 0.13711 0.42885 0.0
C1293 C 0.29705 0.09689 0.43235 0.0
C1294 C 0.29281 0.08584 0.45197 0.0
C1295 C 0.30147 0.06572 0.45598 0.0
C1296 C 0.31479 0.05672 0.43972 0.0
C1297 C 0.3197 0.0677 0.41949 0.0
C1298 C 0.31067 0.08822 0.41595 0.0
H1299 H 0.95314 0.30907 0.39066 0.0
H1300 H 0.00726 0.2693 0.37339 0.0
H1301 H 0.98944 0.23872 0.39457 0.0
H1302 H 0.94598 0.28751 0.44595 0.0
H1303 H 0.91716 0.28956 0.44742 0.0
H1304 H 0.9336 0.30787 0.42984 0.0
H1305 H 0.91277 0.29702 0.39771 0.0
H1306 H 0.89643 0.2785 0.41515 0.0
H1307 H 0.91121 0.2693 0.39164 0.0
H1308 H 0.9651 0.21224 0.41624 0.0
H1309 H 0.93834 0.19246 0.44059 0.0
H1310 H 0.90213 0.25066 0.44826 0.0
C1311 C 0.96131 0.29398 0.3916 0.0
C1312 C 0.98162 0.2915 0.38047 0.0
C1313 C 0.99168 0.27145 0.38178 0.0
C1314 C 0.98168 0.25403 0.39373 0.0
C1315 C 0.96174 0.257 0.4046 0.0
C1316 C 0.95182 0.27655 0.404 0.0
C1317 C 0.93097 0.27569 0.41818 0.0
C1318 C 0.932 0.29106 0.43643 0.0
C1319 C 0.91171 0.28041 0.40487 0.0
C1320 C 0.93066 0.25255 0.42671 0.0
C1321 C 0.9484 0.24203 0.41837 0.0
C1322 C 0.95136 0.22043 0.42323 0.0
C1323 C 0.93606 0.20935 0.43734 0.0
C1324 C 0.91813 0.2199 0.44702 0.0
C1325 C 0.91543 0.24186 0.44128 0.0
H1326 H 0.79658 0.90895 0.50005 0.0
H1327 H 0.8236 0.86647 0.45323 0.0
H1328 H 0.80545 0.88637 0.42463 0.0
H1329 H 0.74481 0.91513 0.47762 0.0
H1330 H 0.74255 0.94294 0.48318 0.0
H1331 H 0.75755 0.92536 0.49997 0.0
H1332 H 0.79093 0.95032 0.49275 0.0
H1333 H 0.77604 0.96799 0.47595 0.0
H1334 H 0.80103 0.9572 0.46545 0.0
H1335 H 0.78473 0.91122 0.40098 0.0
H1336 H 0.76283 0.93874 0.38394 0.0
H1337 H 0.74866 0.96568 0.44579 0.0
C1338 C 0.79856 0.90389 0.48375 0.0
C1339 C 0.81147 0.88615 0.47876 0.0
C1340 C 0.81377 0.87997 0.45731 0.0
C1341 C 0.80352 0.8912 0.441 0.0
C1342 C 0.79092 0.90864 0.44634 0.0
C1343 C 0.78835 0.91496 0.46721 0.0
C1344 C 0.77397 0.93434 0.46852 0.0
C1345 C 0.7535 0.92912 0.48319 0.0
C1346 C 0.78623 0.9536 0.47612 0.0
C1347 C 0.76886 0.93794 0.44518 0.0
C1348 C 0.77887 0.92292 0.43269 0.0
C1349 C 0.77686 0.92305 0.41063 0.0
C1350 C 0.76443 0.9389 0.40104 0.0
C1351 C 0.75397 0.95461 0.41336 0.0
C1352 C 0.75621 0.95389 0.43584 0.0
H1353 H 0.13237 0.80111 0.44414 0.0
H1354 H 0.15379 0.74568 0.4809 0.0
H1355 H 0.12997 0.72264 0.46231 0.0
H1356 H 0.07766 0.78509 0.44727 0.0
H1357 H 0.07291 0.79539 0.42061 0.0
H1358 H 0.09332 0.80749 0.43505 0.0
H1359 H 0.12168 0.80144 0.40365 0.0
H1360 H 0.10132 0.78937 0.38906 0.0
H1361 H 0.12531 0.77495 0.3943 0.0
H1362 H 0.10253 0.7058 0.44168 0.0
H1363 H 0.07305 0.69603 0.41995 0.0
H1364 H 0.06765 0.76243 0.39785 0.0
C1365 C 0.13216 0.78413 0.44826 0.0
C1366 C 0.14521 0.77527 0.46391 0.0
C1367 C 0.14444 0.75289 0.46864 0.0
C1368 C 0.1308 0.73964 0.45828 0.0
C1369 C 0.11795 0.74896 0.44326 0.0
C1370 C 0.11849 0.77066 0.43821 0.0
C1371 C 0.10216 0.77668 0.42228 0.0
C1372 C 0.08553 0.79207 0.43188 0.0
C1373 C 0.11329 0.78617 0.40106 0.0
C1374 C 0.09215 0.75498 0.41945 0.0
C1375 C 0.10165 0.73924 0.43161 0.0
C1376 C 0.09496 0.71798 0.43208 0.0
C1377 C 0.07805 0.71264 0.41983 0.0
C1378 C 0.06786 0.7285 0.40738 0.0
C1379 C 0.07518 0.74994 0.4071 0.0
H1380 H 0.22446 0.90538 0.59381 0.0
H1381 H 0.25478 0.84552 0.61051 0.0
H1382 H 0.27577 0.86362 0.63621 0.0
H1383 H 0.26968 0.93831 0.59507 0.0
H1384 H 0.25587 0.96034 0.60691 0.0
H1385 H 0.24173 0.94248 0.5911 0.0
H1386 H 0.21319 0.93466 0.6229 0.0
H1387 H 0.22715 0.95267 0.63878 0.0
H1388 H 0.22163 0.92549 0.64871 0.0
H1389 H 0.29622 0.88857 0.6569 0.0
H1390 H 0.31306 0.91881 0.67363 0.0
H1391 H 0.26831 0.96221 0.64542 0.0
C1392 C 0.23511 0.89598 0.60327 0.0
C1393 C 0.2381 0.87406 0.60003 0.0
C1394 C 0.25248 0.8624 0.61246 0.0
C1395 C 0.26438 0.8725 0.62721 0.0
C1396 C 0.2615 0.89422 0.62957 0.0
C1397 C 0.24703 0.9058 0.6182 0.0
C1398 C 0.24771 0.92917 0.6232 0.0
C1399 C 0.25413 0.9434 0.60286 0.0
C1400 C 0.22613 0.93589 0.63405 0.0
C1401 C 0.26518 0.92895 0.63873 0.0
C1402 C 0.2729 0.90859 0.64216 0.0
C1403 C 0.29007 0.90452 0.65468 0.0
C1404 C 0.29957 0.92171 0.66401 0.0
C1405 C 0.29175 0.94259 0.66088 0.0
C1406 C 0.27426 0.94625 0.64826 0.0
H1407 H 0.10831 0.28077 0.65229 0.0
H1408 H 0.05433 0.28475 0.61273 0.0
H1409 H 0.0733 0.26207 0.58653 0.0
H1410 H 0.15027 0.28148 0.60895 0.0
H1411 H 0.16684 0.26234 0.62214 0.0
H1412 H 0.14926 0.27902 0.63787 0.0
H1413 H 0.13138 0.24551 0.65798 0.0
H1414 H 0.14899 0.22873 0.6424 0.0
H1415 H 0.12031 0.22492 0.64284 0.0
H1416 H 0.09859 0.23959 0.56376 0.0
H1417 H 0.12712 0.21744 0.54735 0.0
H1418 H 0.16485 0.22571 0.60176 0.0
C1419 C 0.10043 0.27671 0.63818 0.0
C1420 C 0.07966 0.28469 0.63466 0.0
C1421 C 0.07013 0.27902 0.61585 0.0
C1422 C 0.08084 0.26609 0.60083 0.0
C1423 C 0.10123 0.25859 0.60469 0.0
C1424 C 0.11091 0.26353 0.623 0.0
C1425 C 0.13286 0.25302 0.62329 0.0
C1426 C 0.15087 0.26998 0.62305 0.0
C1427 C 0.13342 0.2371 0.64279 0.0
C1428 C 0.13402 0.24149 0.60231 0.0
C1429 C 0.1156 0.24509 0.59182 0.0
C1430 C 0.11295 0.23655 0.572 0.0
C1431 C 0.12929 0.22391 0.56277 0.0
C1432 C 0.14821 0.21944 0.57326 0.0
C1433 C 0.15057 0.22861 0.59332 0.0
H1434 H 0.79709 0.09642 0.58395 0.0
H1435 H 0.79167 0.15771 0.61289 0.0
H1436 H 0.76779 0.1412 0.64254 0.0
H1437 H 0.74283 0.07822 0.59783 0.0
H1438 H 0.74996 0.05087 0.60353 0.0
H1439 H 0.76647 0.06748 0.58431 0.0
H1440 H 0.7997 0.0595 0.60563 0.0
H1441 H 0.7833 0.0428 0.62487 0.0
H1442 H 0.79874 0.06467 0.63376 0.0
H1443 H 0.74424 0.11814 0.66911 0.0
H1444 H 0.72337 0.08978 0.691 0.0
H1445 H 0.74501 0.04328 0.64577 0.0
C1446 C 0.79107 0.10637 0.5966 0.0
C1447 C 0.79624 0.12848 0.59589 0.0
C1448 C 0.7877 0.14087 0.61274 0.0
C1449 C 0.77421 0.1316 0.62978 0.0
C1450 C 0.76939 0.10985 0.6299 0.0
C1451 C 0.77761 0.09735 0.61381 0.0
C1452 C 0.77001 0.07431 0.61787 0.0
C1453 C 0.75652 0.06732 0.59981 0.0
C1454 C 0.78907 0.05944 0.6207 0.0
C1455 C 0.75627 0.07581 0.63877 0.0
C1456 C 0.75607 0.09648 0.64538 0.0
C1457 C 0.74434 0.10189 0.66412 0.0
C1458 C 0.73257 0.08575 0.67644 0.0
C1459 C 0.73271 0.06447 0.67004 0.0
C1460 C 0.7447 0.05947 0.65096 0.0
H1461 H 0.95859 0.75603 0.64984 0.0
H1462 H 0.96238 0.69813 0.61515 0.0
H1463 H 0.93988 0.71435 0.58786 0.0
H1464 H 0.90274 0.76705 0.64031 0.0
H1465 H 0.90684 0.79559 0.63755 0.0
H1466 H 0.92339 0.77955 0.65421 0.0
H1467 H 0.95744 0.79525 0.6325 0.0
H1468 H 0.94098 0.81125 0.6157 0.0
H1469 H 0.96017 0.79334 0.60377 0.0
H1470 H 0.91811 0.73742 0.56347 0.0
H1471 H 0.89648 0.76461 0.54518 0.0
H1472 H 0.90452 0.80713 0.59642 0.0
C1473 C 0.95454 0.74681 0.63653 0.0
C1474 C 0.96218 0.72578 0.63457 0.0
C1475 C 0.9566 0.71419 0.61695 0.0
C1476 C 0.94389 0.72332 0.60136 0.0
C1477 C 0.93664 0.74408 0.60364 0.0
C1478 C 0.94155 0.75564 0.6209 0.0
C1479 C 0.93128 0.77751 0.61967 0.0
C1480 C 0.9151 0.78007 0.63909 0.0
C1481 C 0.9485 0.79539 0.6178 0.0
C1482 C 0.91998 0.77649 0.599 0.0
C1483 C 0.92345 0.75711 0.58994 0.0
C1484 C 0.91515 0.75256 0.57055 0.0
C1485 C 0.90287 0.76809 0.56026 0.0
C1486 C 0.89867 0.78793 0.56938 0.0
C1487 C 0.90743 0.79211 0.58905 0.0
H1488 H 0.42328 0.30672 0.04375 0.0
H1489 H 0.37239 0.32582 0.0893 0.0
H1490 H 0.38973 0.30651 0.11875 0.0
H1491 H 0.43057 0.25409 0.06775 0.0
H1492 H 0.45938 0.2546 0.0628 0.0
H1493 H 0.44313 0.27 0.04527 0.0
H1494 H 0.46449 0.30428 0.05214 0.0
H1495 H 0.48085 0.28897 0.06964 0.0
H1496 H 0.46665 0.31179 0.07932 0.0
H1497 H 0.41207 0.28433 0.1432 0.0
H1498 H 0.43841 0.26224 0.16125 0.0
H1499 H 0.47591 0.25775 0.10041 0.0
C1500 C 0.41592 0.30692 0.05997 0.0
C1501 C 0.39642 0.31779 0.06426 0.0
C1502 C 0.38725 0.3176 0.08567 0.0
C1503 C 0.39701 0.30666 0.10249 0.0
C1504 C 0.41612 0.29602 0.09777 0.0
C1505 C 0.4256 0.29616 0.07706 0.0
C1506 C 0.44627 0.28351 0.07649 0.0
C1507 C 0.44474 0.26442 0.06223 0.0
C1508 C 0.46572 0.298 0.06895 0.0
C1509 C 0.44685 0.27612 0.10004 0.0
C1510 C 0.42922 0.28348 0.11198 0.0
C1511 C 0.42593 0.27851 0.13399 0.0
C1512 C 0.44097 0.26577 0.14411 0.0
C1513 C 0.45932 0.25802 0.13238 0.0
C1514 C 0.46222 0.26346 0.10997 0.0
H1515 H 0.79723 0.48891 0.12944 0.0
H1516 H 0.82372 0.44451 0.17541 0.0
H1517 H 0.80679 0.41424 0.15854 0.0
H1518 H 0.74672 0.46182 0.12717 0.0
H1519 H 0.74528 0.46772 0.0988 0.0
H1520 H 0.75966 0.48557 0.11445 0.0
H1521 H 0.79384 0.48212 0.08877 0.0
H1522 H 0.77957 0.46428 0.07301 0.0
H1523 H 0.80424 0.45602 0.0839 0.0
H1524 H 0.78656 0.38905 0.13655 0.0
H1525 H 0.76438 0.37092 0.11162 0.0
H1526 H 0.75203 0.4322 0.07971 0.0
C1527 C 0.79943 0.47277 0.13584 0.0
C1528 C 0.81168 0.4688 0.15359 0.0
C1529 C 0.81432 0.44764 0.16176 0.0
C1530 C 0.80482 0.43045 0.15228 0.0
C1531 C 0.79283 0.43484 0.13468 0.0
C1532 C 0.79014 0.45549 0.12655 0.0
C1533 C 0.77648 0.45599 0.10759 0.0
C1534 C 0.75581 0.46851 0.11229 0.0
C1535 C 0.7893 0.46514 0.08711 0.0
C1536 C 0.77172 0.4324 0.10639 0.0
C1537 C 0.78132 0.42043 0.12208 0.0
C1538 C 0.77903 0.39826 0.12415 0.0
C1539 C 0.7665 0.3881 0.10985 0.0
C1540 C 0.7564 0.40012 0.09375 0.0
C1541 C 0.75925 0.42255 0.09202 0.0
H1542 H 0.61334 0.74403 0.10439 0.0
H1543 H 0.66097 0.79121 0.07718 0.0
H1544 H 0.64511 0.81757 0.10041 0.0
H1545 H 0.56941 0.78216 0.10587 0.0
H1546 H 0.55622 0.77039 0.1304 0.0
H1547 H 0.57206 0.75406 0.11263 0.0
H1548 H 0.59477 0.74205 0.14387 0.0
H1549 H 0.5791 0.75846 0.1617 0.0
H1550 H 0.60786 0.7619 0.15838 0.0
H1551 H 0.62542 0.83936 0.12811 0.0
H1552 H 0.60015 0.85592 0.15433 0.0
H1553 H 0.56145 0.79773 0.16077 0.0
C1554 C 0.62055 0.75985 0.10305 0.0
C1555 C 0.63938 0.76462 0.08898 0.0
C1556 C 0.64754 0.78602 0.08819 0.0
C1557 C 0.63837 0.80154 0.10131 0.0
C1558 C 0.62036 0.79612 0.1151 0.0
C1559 C 0.61117 0.77594 0.11576 0.0
C1560 C 0.59095 0.77493 0.13128 0.0
C1561 C 0.57098 0.77009 0.11933 0.0
C1562 C 0.59332 0.75834 0.14991 0.0
C1563 C 0.59042 0.79758 0.13923 0.0
C1564 C 0.60781 0.80937 0.12986 0.0
C1565 C 0.61152 0.83036 0.13521 0.0
C1566 C 0.59699 0.83971 0.15014 0.0
C1567 C 0.5784 0.8285 0.15939 0.0
C1568 C 0.5753 0.80695 0.15389 0.0
H1569 H 0.2381 0.60288 0.16385 0.0
H1570 H 0.23362 0.54836 0.12471 0.0
H1571 H 0.25779 0.56686 0.09605 0.0
H1572 H 0.23829 0.64312 0.12117 0.0
H1573 H 0.25729 0.66046 0.1323 0.0
H1574 H 0.24008 0.64279 0.14982 0.0
H1575 H 0.27329 0.62624 0.16634 0.0
H1576 H 0.29058 0.64405 0.14907 0.0
H1577 H 0.29438 0.61562 0.14894 0.0
H1578 H 0.28229 0.59166 0.07161 0.0
H1579 H 0.30589 0.62047 0.05366 0.0
H1580 H 0.29464 0.65858 0.10898 0.0
C1581 C 0.24256 0.59477 0.14936 0.0
C1582 C 0.23447 0.57408 0.14651 0.0
C1583 C 0.24002 0.5641 0.12718 0.0
C1584 C 0.25363 0.57451 0.11086 0.0
C1585 C 0.26142 0.59494 0.11413 0.0
C1586 C 0.25616 0.60492 0.13295 0.0
C1587 C 0.26658 0.62693 0.13243 0.0
C1588 C 0.24954 0.64435 0.13402 0.0
C1589 C 0.28213 0.62828 0.15025 0.0
C1590 C 0.27851 0.62782 0.11039 0.0
C1591 C 0.27529 0.60923 0.10004 0.0
C1592 C 0.28483 0.6063 0.07953 0.0
C1593 C 0.29811 0.6227 0.06944 0.0
C1594 C 0.3016 0.64178 0.0798 0.0
C1595 C 0.29174 0.64431 0.10055 0.0
H1596 H 0.3906 0.75745 0.98363 0.0
H1597 H 0.40774 0.69564 0.96004 0.0
H1598 H 0.43517 0.71335 0.93415 0.0
H1599 H 0.39141 0.78099 0.92739 0.0
H1600 H 0.39892 0.80704 0.93547 0.0
H1601 H 0.38274 0.78919 0.95379 0.0
H1602 H 0.41067 0.79294 0.982 0.0
H1603 H 0.42731 0.81021 0.96352 0.0
H1604 H 0.43824 0.78625 0.97525 0.0
H1605 H 0.4653 0.73845 0.91633 0.0
H1606 H 0.48602 0.7682 0.89686 0.0
H1607 H 0.4382 0.81262 0.92038 0.0
C1608 C 0.39935 0.74752 0.97251 0.0
C1609 C 0.39707 0.72495 0.97421 0.0
C1610 C 0.4095 0.71286 0.95946 0.0
C1611 C 0.42512 0.72277 0.94473 0.0
C1612 C 0.42706 0.74497 0.9438 0.0
C1613 C 0.41352 0.75721 0.95632 0.0
C1614 C 0.41667 0.78079 0.94992 0.0
C1615 C 0.39622 0.79005 0.94111 0.0
C1616 C 0.42363 0.79327 0.9688 0.0
C1617 C 0.43473 0.77991 0.93241 0.0
C1618 C 0.4412 0.75917 0.92994 0.0
C1619 C 0.45969 0.75464 0.91728 0.0
C1620 C 0.47134 0.77168 0.90626 0.0
C1621 C 0.46372 0.79289 0.90663 0.0
C1622 C 0.44495 0.79686 0.91989 0.0
H1623 H 0.3049 0.38587 0.93629 0.0
H1624 H 0.31196 0.42887 0.98728 0.0
H1625 H 0.28896 0.45512 0.96933 0.0
H1626 H 0.30567 0.42638 0.8927 0.0
H1627 H 0.28581 0.41304 0.87849 0.0
H1628 H 0.30285 0.39769 0.89525 0.0
H1629 H 0.26935 0.38045 0.91666 0.0
H1630 H 0.25221 0.39568 0.89992 0.0
H1631 H 0.2492 0.39733 0.92867 0.0
H1632 H 0.26489 0.47673 0.94578 0.0
H1633 H 0.2416 0.4919 0.91862 0.0
H1634 H 0.2496 0.43503 0.88274 0.0
C1635 C 0.30151 0.40081 0.94364 0.0
C1636 C 0.31015 0.40535 0.96324 0.0
C1637 C 0.30548 0.42511 0.97232 0.0
C1638 C 0.29244 0.44008 0.96222 0.0
C1639 C 0.2841 0.43515 0.94294 0.0
C1640 C 0.28843 0.41598 0.93373 0.0
C1641 C 0.27736 0.41462 0.91297 0.0
C1642 C 0.29391 0.41283 0.89371 0.0
C1643 C 0.26106 0.39591 0.91466 0.0
C1644 C 0.26613 0.43599 0.91193 0.0
C1645 C 0.27027 0.44759 0.92939 0.0
C1646 C 0.26161 0.46777 0.93205 0.0
C1647 C 0.24841 0.47628 0.91656 0.0
C1648 C 0.24393 0.46474 0.89853 0.0
C1649 C 0.25293 0.44429 0.89626 0.0
H1650 H 0.60095 0.2408 0.91153 0.0
H1651 H 0.56683 0.29178 0.87972 0.0
H1652 H 0.58828 0.31839 0.89684 0.0
H1653 H 0.60188 0.26501 0.96136 0.0
H1654 H 0.62812 0.25549 0.96681 0.0
H1655 H 0.61145 0.24053 0.95054 0.0
H1656 H 0.64184 0.2421 0.91987 0.0
H1657 H 0.65859 0.25716 0.93604 0.0
H1658 H 0.65299 0.26763 0.90968 0.0
H1659 H 0.61206 0.33939 0.91879 0.0
H1660 H 0.63585 0.35331 0.94475 0.0
H1661 H 0.65312 0.28855 0.96354 0.0
C1662 C 0.59793 0.25754 0.90814 0.0
C1663 C 0.58223 0.26415 0.89415 0.0
C1664 C 0.57901 0.28627 0.89002 0.0
C1665 C 0.59105 0.30153 0.89976 0.0
C1666 C 0.60623 0.29442 0.9136 0.0
C1667 C 0.60967 0.27296 0.91782 0.0
C1668 C 0.62614 0.26951 0.93417 0.0
C1669 C 0.6163 0.2569 0.95442 0.0
C1670 C 0.64607 0.25845 0.92434 0.0
C1671 C 0.63121 0.2924 0.93872 0.0
C1672 C 0.61969 0.30652 0.92654 0.0
C1673 C 0.6212 0.32849 0.92838 0.0
C1674 C 0.63465 0.33623 0.94326 0.0
C1675 C 0.64629 0.32202 0.95622 0.0
C1676 C 0.64469 0.29983 0.95366 0.0
H1677 H 0.74605 0.61352 0.98237 0.0
H1678 H 0.74294 0.6687 0.93773 0.0
H1679 H 0.76574 0.6506 0.91092 0.0
H1680 H 0.80219 0.60145 0.96728 0.0
H1681 H 0.7981 0.5729 0.96982 0.0
H1682 H 0.78126 0.58991 0.98595 0.0
H1683 H 0.7475 0.57326 0.97149 0.0
H1684 H 0.76424 0.55619 0.95534 0.0
H1685 H 0.7453 0.57337 0.94291 0.0
H1686 H 0.7887 0.62674 0.88818 0.0
H1687 H 0.81025 0.59882 0.87125 0.0
H1688 H 0.80042 0.55827 0.92972 0.0
C1689 C 0.75023 0.62191 0.96703 0.0
C1690 C 0.74208 0.6427 0.96238 0.0
C1691 C 0.74816 0.65273 0.94186 0.0
C1692 C 0.76141 0.64259 0.92643 0.0
C1693 C 0.7689 0.62222 0.93144 0.0
C1694 C 0.76362 0.61193 0.95125 0.0
C1695 C 0.77398 0.58994 0.95224 0.0
C1696 C 0.78982 0.58847 0.96987 0.0
C1697 C 0.75673 0.57214 0.9557 0.0
C1698 C 0.78577 0.58952 0.9299 0.0
C1699 C 0.78252 0.6084 0.91827 0.0
C1700 C 0.79131 0.61191 0.89719 0.0
C1701 C 0.80352 0.59579 0.88762 0.0
C1702 C 0.80713 0.57606 0.89889 0.0
C1703 C 0.79822 0.57311 0.92056 0.0
H1704 H 0.1087 0.37927 0.28488 0.0
H1705 H 0.05335 0.41603 0.30536 0.0
H1706 H 0.06914 0.44789 0.28462 0.0
H1707 H 0.14853 0.42098 0.28543 0.0
H1708 H 0.1638 0.41338 0.26152 0.0
H1709 H 0.14842 0.39353 0.27826 0.0
H1710 H 0.12829 0.38289 0.2456 0.0
H1711 H 0.14368 0.40264 0.22874 0.0
H1712 H 0.11476 0.40309 0.23036 0.0
H1713 H 0.09149 0.47593 0.26312 0.0
H1714 H 0.11777 0.49804 0.23984 0.0
H1715 H 0.15752 0.44272 0.23045 0.0
C1716 C 0.09987 0.394 0.28474 0.0
C1717 C 0.07976 0.39527 0.29656 0.0
C1718 C 0.06876 0.41483 0.29635 0.0
C1719 C 0.07759 0.43295 0.28464 0.0
C1720 C 0.09739 0.43119 0.27306 0.0
C1721 C 0.10832 0.41219 0.27281 0.0
C1722 C 0.12913 0.41459 0.25862 0.0
C1723 C 0.14862 0.41037 0.27175 0.0
C1724 C 0.12894 0.39993 0.2397 0.0
C1725 C 0.12822 0.43793 0.25103 0.0
C1726 C 0.10985 0.4472 0.25977 0.0
C1727 C 0.10576 0.46877 0.25592 0.0
C1728 C 0.12072 0.48118 0.24265 0.0
C1729 C 0.13937 0.47195 0.23301 0.0
C1730 C 0.1432 0.45005 0.23736 0.0
H1731 H 0.14096 0.58113 0.82415 0.0
H1732 H 0.16371 0.53175 0.78266 0.0
H1733 H 0.14276 0.54715 0.75374 0.0
H1734 H 0.08613 0.58119 0.80633 0.0
H1735 H 0.08323 0.60957 0.80846 0.0
H1736 H 0.10034 0.59489 0.82572 0.0
H1737 H 0.13209 0.62042 0.8126 0.0
H1738 H 0.11515 0.63503 0.79515 0.0
H1739 H 0.13983 0.62393 0.78426 0.0
H1740 H 0.12119 0.56947 0.72843 0.0
H1741 H 0.09801 0.59419 0.70981 0.0
H1742 H 0.08481 0.62666 0.76905 0.0
C1743 C 0.1412 0.57334 0.80911 0.0
C1744 C 0.15397 0.55509 0.80575 0.0
C1745 C 0.15413 0.5457 0.78562 0.0
C1746 C 0.14227 0.55436 0.76909 0.0
C1747 C 0.12991 0.57233 0.77289 0.0
C1748 C 0.12897 0.58151 0.79252 0.0
C1749 C 0.11387 0.60038 0.79251 0.0
C1750 C 0.09476 0.59626 0.80925 0.0
C1751 C 0.12596 0.62117 0.79635 0.0
C1752 C 0.10673 0.60056 0.76973 0.0
C1753 C 0.11638 0.58437 0.75867 0.0
C1754 C 0.11315 0.5819 0.73714 0.0
C1755 C 0.09958 0.59609 0.72668 0.0
C1756 C 0.08871 0.61257 0.73768 0.0
C1757 C 0.09261 0.61461 0.75968 0.0
H1758 H 0.39774 0.09682 0.74671 0.0
H1759 H 0.40422 0.03507 0.77991 0.0
H1760 H 0.43159 0.05032 0.80161 0.0
H1761 H 0.45309 0.11381 0.74492 0.0
H1762 H 0.44713 0.14118 0.75007 0.0
H1763 H 0.42852 0.12532 0.73671 0.0
H1764 H 0.39815 0.1333 0.76559 0.0
H1765 H 0.41662 0.14931 0.77893 0.0
H1766 H 0.40206 0.12746 0.79355 0.0
H1767 H 0.45907 0.0719 0.81849 0.0
H1768 H 0.48241 0.09905 0.83226 0.0
H1769 H 0.4556 0.14763 0.79036 0.0
C1770 C 0.40499 0.0866 0.75857 0.0
C1771 C 0.39908 0.06483 0.76174 0.0
C1772 C 0.40861 0.05183 0.77744 0.0
C1773 C 0.42419 0.06031 0.78971 0.0
C1774 C 0.42977 0.08186 0.78619 0.0
C1775 C 0.42027 0.09491 0.77124 0.0
C1776 C 0.42852 0.11771 0.77132 0.0
C1777 C 0.44 0.12492 0.74945 0.0
C1778 C 0.41025 0.13283 0.77774 0.0
C1779 C 0.44423 0.11539 0.78855 0.0
C1780 C 0.44487 0.09454 0.79672 0.0
C1781 C 0.45849 0.08835 0.81245 0.0
C1782 C 0.47158 0.10398 0.82029 0.0
C1783 C 0.47072 0.12566 0.81269 0.0
C1784 C 0.4569 0.13127 0.79645 0.0
H1785 H 0.94248 0.45271 0.7865 0.0
H1786 H 0.88176 0.41781 0.78943 0.0
H1787 H 0.89834 0.39107 0.76642 0.0
H1788 H 0.95885 0.44307 0.73104 0.0
H1789 H 0.98684 0.43969 0.73532 0.0
H1790 H 0.97053 0.45635 0.75234 0.0
H1791 H 0.98093 0.43413 0.78591 0.0
H1792 H 0.99734 0.41747 0.76898 0.0
H1793 H 0.97651 0.40561 0.78754 0.0
H1794 H 0.9212 0.3676 0.74265 0.0
H1795 H 0.94899 0.34913 0.72056 0.0
H1796 H 0.99568 0.39803 0.73206 0.0
C1797 C 0.93269 0.43937 0.78245 0.0
C1798 C 0.9105 0.4378 0.78985 0.0
C1799 C 0.89852 0.41994 0.78385 0.0
C1800 C 0.90788 0.40445 0.77078 0.0
C1801 C 0.92951 0.40665 0.76355 0.0
C1802 C 0.94186 0.42361 0.76919 0.0
C1803 C 0.9648 0.42202 0.759 0.0
C1804 C 0.97059 0.44144 0.7435 0.0
C1805 C 0.98084 0.41967 0.7764 0.0
C1806 C 0.96336 0.4016 0.74682 0.0
C1807 C 0.94278 0.39304 0.74974 0.0
C1808 C 0.93735 0.37422 0.74029 0.0
C1809 C 0.95324 0.3638 0.7277 0.0
C1810 C 0.97452 0.37203 0.72446 0.0
C1811 C 0.97955 0.39134 0.73413 0.0
H1812 H 0.6166 0.96909 0.7611 0.0
H1813 H 0.6743 0.93221 0.76617 0.0
H1814 H 0.65369 0.90472 0.78945 0.0
H1815 H 0.59268 0.9572 0.81473 0.0
H1816 H 0.56571 0.95495 0.8066 0.0
H1817 H 0.58512 0.97212 0.7911 0.0
H1818 H 0.57847 0.95218 0.75693 0.0
H1819 H 0.55893 0.93505 0.77228 0.0
H1820 H 0.58128 0.92361 0.75726 0.0
H1821 H 0.62688 0.88169 0.81279 0.0
H1822 H 0.59518 0.86324 0.83206 0.0
H1823 H 0.55435 0.91361 0.80949 0.0
C1824 C 0.62481 0.95519 0.76715 0.0
C1825 C 0.64704 0.95277 0.76209 0.0
C1826 C 0.65731 0.93437 0.7701 0.0
C1827 C 0.64574 0.91872 0.7833 0.0
C1828 C 0.62384 0.92159 0.78806 0.0
C1829 C 0.61341 0.93923 0.78003 0.0
C1830 C 0.58958 0.93799 0.78682 0.0
C1831 C 0.58289 0.95668 0.80064 0.0
C1832 C 0.57629 0.93715 0.76715 0.0
C1833 C 0.58825 0.91696 0.80001 0.0
C1834 C 0.60824 0.90787 0.80073 0.0
C1835 C 0.61114 0.8886 0.81224 0.0
C1836 C 0.59312 0.87826 0.82314 0.0
C1837 C 0.57246 0.88705 0.82223 0.0
C1838 C 0.57004 0.90665 0.81051 0.0
H1839 H 0.93363 0.65211 0.27933 0.0
H1840 H 0.98096 0.60361 0.29064 0.0
H1841 H 0.96201 0.57911 0.26855 0.0
H1842 H 0.88852 0.61707 0.28273 0.0
H1843 H 0.87506 0.63106 0.26183 0.0
H1844 H 0.89304 0.64537 0.27737 0.0
H1845 H 0.91522 0.65895 0.24247 0.0
H1846 H 0.89719 0.64482 0.22681 0.0
H1847 H 0.9256 0.63996 0.22387 0.0
H1848 H 0.93728 0.55944 0.24653 0.0
H1849 H 0.9083 0.54605 0.2255 0.0
H1850 H 0.87697 0.60708 0.22872 0.0
C1851 C 0.94019 0.63647 0.27682 0.0
C1852 C 0.95874 0.62971 0.28664 0.0
C1853 C 0.96666 0.609 0.28335 0.0
C1854 C 0.95607 0.59502 0.27079 0.0
C1855 C 0.9376 0.60202 0.26164 0.0
C1856 C 0.92974 0.62226 0.26441 0.0
C1857 C 0.90914 0.62552 0.25346 0.0
C1858 C 0.89033 0.63002 0.26983 0.0
C1859 C 0.91197 0.64337 0.23559 0.0
C1860 C 0.90655 0.60389 0.24427 0.0
C1861 C 0.9232 0.5906 0.2491 0.0
C1862 C 0.92421 0.56971 0.24258 0.0
C1863 C 0.90776 0.56224 0.23076 0.0
C1864 C 0.89063 0.57562 0.22577 0.0
C1865 C 0.88999 0.59666 0.23252 0.0
H1866 H 0.43465 0.98686 0.31546 0.0
H1867 H 0.37862 0.94562 0.32918 0.0
H1868 H 0.39624 0.91778 0.30776 0.0
H1869 H 0.44666 0.97207 0.26058 0.0
H1870 H 0.47538 0.97302 0.26189 0.0
H1871 H 0.45854 0.98962 0.27847 0.0
H1872 H 0.47502 0.97357 0.31236 0.0
H1873 H 0.49192 0.95693 0.29588 0.0
H1874 H 0.47446 0.94503 0.31767 0.0
H1875 H 0.4201 0.89414 0.28433 0.0
H1876 H 0.44791 0.87699 0.26101 0.0
H1877 H 0.48906 0.93298 0.26201 0.0
C1878 C 0.42616 0.97192 0.31398 0.0
C1879 C 0.40513 0.96847 0.32409 0.0
C1880 C 0.39462 0.94869 0.32164 0.0
C1881 C 0.40456 0.93276 0.30947 0.0
C1882 C 0.42521 0.93663 0.29967 0.0
C1883 C 0.43592 0.95575 0.30178 0.0
C1884 C 0.45797 0.95584 0.28943 0.0
C1885 C 0.45974 0.9737 0.27153 0.0
C1886 C 0.4759 0.95797 0.30475 0.0
C1887 C 0.45802 0.93385 0.28006 0.0
C1888 C 0.43893 0.92304 0.28621 0.0
C1889 C 0.4351 0.90251 0.27952 0.0
C1890 C 0.45103 0.89283 0.26627 0.0
C1891 C 0.47078 0.90346 0.25969 0.0
C1892 C 0.47419 0.92434 0.26677 0.0
H1893 H 0.6535 0.08723 0.28552 0.0
H1894 H 0.6309 0.10848 0.34811 0.0
H1895 H 0.6067 0.13348 0.33092 0.0
H1896 H 0.6527 0.14005 0.25751 0.0
H1897 H 0.64385 0.12996 0.23315 0.0
H1898 H 0.65963 0.11346 0.2502 0.0
H1899 H 0.63009 0.08394 0.25254 0.0
H1900 H 0.61417 0.10039 0.2356 0.0
H1901 H 0.60296 0.09027 0.26162 0.0
H1902 H 0.5837 0.15537 0.3075 0.0
H1903 H 0.56484 0.17415 0.27932 0.0
H1904 H 0.60314 0.14131 0.23079 0.0
C1905 C 0.64364 0.09728 0.29563 0.0
C1906 C 0.64408 0.09541 0.31839 0.0
C1907 C 0.63068 0.10895 0.3308 0.0
C1908 C 0.61689 0.12343 0.32114 0.0
C1909 C 0.61659 0.12457 0.29886 0.0
C1910 C 0.62972 0.11204 0.28618 0.0
C1911 C 0.62614 0.11669 0.26251 0.0
C1912 C 0.64681 0.12557 0.25011 0.0
C1913 C 0.61785 0.09663 0.25248 0.0
C1914 C 0.60891 0.13368 0.26398 0.0
C1915 C 0.60367 0.13785 0.28516 0.0
C1916 C 0.58793 0.15246 0.29083 0.0
C1917 C 0.57738 0.16327 0.27453 0.0
C1918 C 0.58258 0.1598 0.25248 0.0
C1919 C 0.59859 0.14454 0.24731 0.0
H1920 H 0.75998 0.96197 0.64769 0.0
H1921 H 0.75509 0.9208 0.70588 0.0
H1922 H 0.78128 0.89634 0.68898 0.0
H1923 H 0.76176 0.92153 0.61146 0.0
H1924 H 0.78063 0.93524 0.59204 0.0
H1925 H 0.76321 0.95029 0.60953 0.0
H1926 H 0.79632 0.96968 0.62265 0.0
H1927 H 0.81388 0.95456 0.60524 0.0
H1928 H 0.81743 0.9542 0.63359 0.0
H1929 H 0.80465 0.87464 0.66435 0.0
H1930 H 0.82409 0.85762 0.63396 0.0
H1931 H 0.81446 0.91374 0.59254 0.0
C1932 C 0.76455 0.94787 0.6569 0.0
C1933 C 0.75557 0.94314 0.678 0.0
C1934 C 0.76199 0.92469 0.6897 0.0
C1935 C 0.77681 0.91076 0.68026 0.0
C1936 C 0.78521 0.91577 0.65929 0.0
C1937 C 0.77942 0.93397 0.64782 0.0
C1938 C 0.78986 0.9352 0.62519 0.0
C1939 C 0.77285 0.93557 0.60859 0.0
C1940 C 0.80529 0.95456 0.62146 0.0
C1941 C 0.80192 0.91451 0.62547 0.0
C1942 C 0.79917 0.90357 0.64531 0.0
C1943 C 0.80729 0.88322 0.64888 0.0
C1944 C 0.81823 0.87368 0.63159 0.0
C1945 C 0.82096 0.88459 0.61115 0.0
C1946 C 0.81307 0.90538 0.60821 0.0
H1947 H 0.14132 0.79429 0.60208 0.0
H1948 H 0.16869 0.74724 0.56006 0.0
H1949 H 0.15198 0.71842 0.58442 0.0
H1950 H 0.13612 0.76549 0.65313 0.0
H1951 H 0.10903 0.77367 0.65999 0.0
H1952 H 0.12691 0.79073 0.64248 0.0
H1953 H 0.09973 0.7913 0.61313 0.0
H1954 H 0.08158 0.77472 0.63076 0.0
H1955 H 0.08979 0.76641 0.60429 0.0
H1956 H 0.13443 0.6948 0.61613 0.0
H1957 H 0.10728 0.67805 0.64295 0.0
H1958 H 0.08057 0.74042 0.65368 0.0
C1959 C 0.14362 0.77798 0.59771 0.0
C1960 C 0.157 0.77317 0.57935 0.0
C1961 C 0.15935 0.75144 0.57447 0.0
C1962 C 0.14986 0.73492 0.58819 0.0
C1963 C 0.1368 0.74032 0.60606 0.0
C1964 C 0.13266 0.76136 0.61005 0.0
C1965 C 0.11446 0.76291 0.62735 0.0
C1966 C 0.1221 0.77385 0.64689 0.0
C1967 C 0.09525 0.77451 0.61834 0.0
C1968 C 0.10935 0.73944 0.63272 0.0
C1969 C 0.12323 0.72671 0.62112 0.0
C1970 C 0.12301 0.70459 0.6248 0.0
C1971 C 0.10757 0.69524 0.64009 0.0
C1972 C 0.09155 0.70775 0.6504 0.0
C1973 C 0.09269 0.73024 0.64661 0.0
H1974 H 0.24447 0.10357 0.58943 0.0
H1975 H 0.25136 0.16515 0.61687 0.0
H1976 H 0.27238 0.14849 0.64503 0.0
H1977 H 0.23848 0.07199 0.63971 0.0
H1978 H 0.25361 0.05002 0.6294 0.0
H1979 H 0.23889 0.06679 0.61162 0.0
H1980 H 0.27371 0.07456 0.58704 0.0
H1981 H 0.28854 0.05786 0.60478 0.0
H1982 H 0.29707 0.08516 0.59833 0.0
H1983 H 0.293 0.1251 0.67004 0.0
H1984 H 0.31183 0.09655 0.68983 0.0
H1985 H 0.29122 0.05044 0.64622 0.0
C1986 C 0.25017 0.11352 0.60152 0.0
C1987 C 0.24623 0.13567 0.60097 0.0
C1988 C 0.25434 0.14819 0.61685 0.0
C1989 C 0.2662 0.13885 0.63296 0.0
C1990 C 0.26985 0.11699 0.63297 0.0
C1991 C 0.26208 0.10448 0.61766 0.0
C1992 C 0.26855 0.08144 0.62102 0.0
C1993 C 0.2487 0.06669 0.62572 0.0
C1994 C 0.28282 0.07435 0.60164 0.0
C1995 C 0.28116 0.08292 0.64063 0.0
C1996 C 0.28172 0.10356 0.6473 0.0
C1997 C 0.29261 0.10888 0.66499 0.0
C1998 C 0.30322 0.09266 0.67612 0.0
C1999 C 0.30278 0.0715 0.66947 0.0
C2000 C 0.29164 0.06657 0.65155 0.0
H2001 H 0.90798 0.23866 0.55381 0.0
H2002 H 0.88939 0.18516 0.59837 0.0
H2003 H 0.91063 0.20067 0.62571 0.0
H2004 H 0.96149 0.24639 0.56893 0.0
H2005 H 0.96102 0.27515 0.56703 0.0
H2006 H 0.94445 0.25998 0.55079 0.0
H2007 H 0.91069 0.27908 0.56615 0.0
H2008 H 0.92718 0.29446 0.5823 0.0
H2009 H 0.90477 0.27884 0.59482 0.0
H2010 H 0.93631 0.22053 0.64722 0.0
H2011 H 0.96079 0.24474 0.66306 0.0
H2012 H 0.95954 0.28851 0.60671 0.0
C2013 C 0.9082 0.23036 0.56943 0.0
C2014 C 0.89711 0.21049 0.57384 0.0
C2015 C 0.89787 0.20021 0.5945 0.0
C2016 C 0.90991 0.20893 0.61015 0.0
C2017 C 0.92089 0.22831 0.60521 0.0
C2018 C 0.91982 0.23915 0.58551 0.0
C2019 C 0.9327 0.26005 0.58469 0.0
C2020 C 0.951 0.2604 0.56679 0.0
C2021 C 0.91796 0.27925 0.58182 0.0
C2022 C 0.94145 0.25907 0.60684 0.0
C2023 C 0.93456 0.2405 0.61827 0.0
C2024 C 0.94134 0.23539 0.63859 0.0
C2025 C 0.95525 0.24962 0.64763 0.0
C2026 C 0.96217 0.26935 0.63678 0.0
C2027 C 0.95498 0.27386 0.61588 0.0
H2028 H 0.7494 0.10056 0.39609 0.0
H2029 H 0.74035 0.04176 0.43558 0.0
H2030 H 0.76244 0.05666 0.46261 0.0
H2031 H 0.80553 0.10865 0.40682 0.0
H2032 H 0.80372 0.13731 0.40673 0.0
H2033 H 0.78655 0.12234 0.39089 0.0
H2034 H 0.75321 0.13931 0.40985 0.0
H2035 H 0.77028 0.15417 0.42589 0.0
H2036 H 0.74923 0.13698 0.43874 0.0
H2037 H 0.78483 0.07843 0.48606 0.0
H2038 H 0.80809 0.10407 0.50266 0.0
H2039 H 0.80592 0.1478 0.44685 0.0
C2040 C 0.75229 0.09074 0.41032 0.0
C2041 C 0.7431 0.06986 0.41363 0.0
C2042 C 0.74709 0.05775 0.43266 0.0
C2043 C 0.75965 0.06611 0.44812 0.0
C2044 C 0.76849 0.08665 0.44437 0.0
C2045 C 0.76522 0.09873 0.42579 0.0
C2046 C 0.77724 0.12009 0.42543 0.0
C2047 C 0.79427 0.12222 0.40633 0.0
C2048 C 0.76155 0.13874 0.42495 0.0
C2049 C 0.78764 0.11819 0.44671 0.0
C2050 C 0.78215 0.09883 0.45747 0.0
C2051 C 0.78932 0.09354 0.47766 0.0
C2052 C 0.80255 0.10823 0.487 0.0
C2053 C 0.80888 0.12801 0.47619 0.0
C2054 C 0.80125 0.13294 0.45568 0.0
H2055 H 0.96405 0.73308 0.40328 0.0
H2056 H 0.91646 0.71975 0.35873 0.0
H2057 H 0.89051 0.74272 0.37843 0.0
H2058 H 0.9278 0.73289 0.45068 0.0
H2059 H 0.94185 0.75424 0.46219 0.0
H2060 H 0.95627 0.73684 0.44444 0.0
H2061 H 0.9701 0.76968 0.42011 0.0
H2062 H 0.9556 0.78718 0.43769 0.0
H2063 H 0.95108 0.78805 0.40954 0.0
H2064 H 0.87007 0.76699 0.40332 0.0
H2065 H 0.85631 0.79032 0.43174 0.0
H2066 H 0.91776 0.78739 0.4597 0.0
C2067 C 0.94811 0.73504 0.39782 0.0
C2068 C 0.94198 0.72488 0.37969 0.0
C2069 C 0.92117 0.72758 0.37271 0.0
C2070 C 0.90647 0.74056 0.38373 0.0
C2071 C 0.91302 0.75057 0.40157 0.0
C2072 C 0.93334 0.74791 0.40858 0.0
C2073 C 0.93643 0.76027 0.42821 0.0
C2074 C 0.94084 0.74516 0.44752 0.0
C2075 C 0.95436 0.77731 0.4236 0.0
C2076 C 0.91466 0.77031 0.43122 0.0
C2077 C 0.90136 0.76456 0.41573 0.0
C2078 C 0.88033 0.77163 0.41552 0.0
C2079 C 0.87265 0.78478 0.43172 0.0
C2080 C 0.88602 0.79071 0.44781 0.0
C2081 C 0.9073 0.78344 0.44739 0.0
H2082 H 0.29551 0.93678 0.40291 0.0
H2083 H 0.3099 0.978 0.4537 0.0
H2084 H 0.28579 0.95617 0.47938 0.0
H2085 H 0.23893 0.92727 0.42076 0.0
H2086 H 0.23907 0.89978 0.41373 0.0
H2087 H 0.25697 0.91903 0.399 0.0
H2088 H 0.28941 0.89555 0.40741 0.0
H2089 H 0.27161 0.87627 0.42222 0.0
H2090 H 0.29361 0.88783 0.43495 0.0
H2091 H 0.2611 0.92944 0.49998 0.0
H2092 H 0.23721 0.89923 0.51403 0.0
H2093 H 0.23806 0.87535 0.45028 0.0
C2094 C 0.29339 0.94133 0.41938 0.0
C2095 C 0.30477 0.95905 0.42629 0.0
C2096 C 0.30168 0.96432 0.44806 0.0
C2097 C 0.28789 0.95209 0.46277 0.0
C2098 C 0.27717 0.9346 0.45554 0.0
C2099 C 0.27967 0.92921 0.43436 0.0
C2100 C 0.26657 0.90926 0.43099 0.0
C2101 C 0.24936 0.91414 0.41518 0.0
C2102 C 0.28118 0.89116 0.42345 0.0
C2103 C 0.25651 0.90424 0.45358 0.0
C2104 C 0.2628 0.91914 0.46746 0.0
C2105 C 0.25599 0.91773 0.48925 0.0
C2106 C 0.24247 0.90058 0.4971 0.0
C2107 C 0.23596 0.88508 0.48322 0.0
C2108 C 0.24292 0.88704 0.46116 0.0
H2109 H 0.1558 0.24723 0.45617 0.0
H2110 H 0.14703 0.18418 0.43269 0.0
H2111 H 0.12656 0.19978 0.40342 0.0
H2112 H 0.10457 0.26616 0.44762 0.0
H2113 H 0.11336 0.29301 0.43928 0.0
H2114 H 0.12872 0.27706 0.45715 0.0
H2115 H 0.16262 0.28283 0.4308 0.0
H2116 H 0.14737 0.2989 0.41287 0.0
H2117 H 0.16159 0.27608 0.40324 0.0
H2118 H 0.10393 0.22205 0.3791 0.0
H2119 H 0.08244 0.24914 0.36079 0.0
H2120 H 0.1082 0.29782 0.39905 0.0
C2121 C 0.14973 0.23675 0.44473 0.0
C2122 C 0.15291 0.21452 0.44664 0.0
C2123 C 0.14488 0.20128 0.43134 0.0
C2124 C 0.13321 0.20999 0.41474 0.0
C2125 C 0.13004 0.23197 0.41353 0.0
C2126 C 0.13831 0.24519 0.42798 0.0
C2127 C 0.13215 0.26815 0.42364 0.0
C2128 C 0.11891 0.27658 0.44308 0.0
C2129 C 0.15212 0.28232 0.41725 0.0
C2130 C 0.1186 0.26575 0.40485 0.0
C2131 C 0.11759 0.24481 0.39919 0.0
C2132 C 0.10493 0.23858 0.38313 0.0
C2133 C 0.09286 0.25415 0.37272 0.0
C2134 C 0.09359 0.27574 0.37835 0.0
C2135 C 0.10699 0.2815 0.39443 0.0
H2136 H 0.65166 0.73718 0.95208 0.0
H2137 H 0.62727 0.75282 0.01587 0.0
H2138 H 0.59965 0.77559 1.00018 0.0
H2139 H 0.64348 0.7893 0.92542 0.0
H2140 H 0.6355 0.7782 0.90118 0.0
H2141 H 0.65378 0.76397 0.91748 0.0
H2142 H 0.62836 0.73081 0.9201 0.0
H2143 H 0.60989 0.74499 0.90399 0.0
H2144 H 0.60076 0.73339 0.93013 0.0
H2145 H 0.57434 0.79553 0.97774 0.0
H2146 H 0.55308 0.81236 0.95004 0.0
H2147 H 0.5938 0.78385 0.90038 0.0
C2148 C 0.64067 0.74574 0.96259 0.0
C2149 C 0.6416 0.74374 0.98507 0.0
C2150 C 0.6268 0.75458 0.99858 0.0
C2151 C 0.61111 0.76741 0.98982 0.0
C2152 C 0.61045 0.76903 0.96755 0.0
C2153 C 0.62486 0.75856 0.95409 0.0
C2154 C 0.6203 0.76263 0.93076 0.0
C2155 C 0.6394 0.77422 0.91796 0.0
C2156 C 0.61448 0.74171 0.92066 0.0
C2157 C 0.60106 0.77699 0.93321 0.0
C2158 C 0.59569 0.78045 0.95457 0.0
C2159 C 0.57848 0.79307 0.96095 0.0
C2160 C 0.56657 0.80263 0.94508 0.0
C2161 C 0.57189 0.79959 0.92302 0.0
C2162 C 0.58927 0.7864 0.91709 0.0
H2163 H 0.30381 0.64685 0.95154 0.0
H2164 H 0.30748 0.60296 0.00706 0.0
H2165 H 0.28579 0.57638 0.98997 0.0
H2166 H 0.24975 0.63347 0.93991 0.0
H2167 H 0.25529 0.63516 0.91116 0.0
H2168 H 0.27091 0.65096 0.92773 0.0
H2169 H 0.30583 0.63473 0.91121 0.0
H2170 H 0.29032 0.61894 0.89453 0.0
H2171 H 0.30855 0.60614 0.91197 0.0
H2172 H 0.26212 0.55503 0.96761 0.0
H2173 H 0.24103 0.53923 0.94034 0.0
H2174 H 0.25432 0.59544 0.89775 0.0
C2175 C 0.30006 0.63162 0.96006 0.0
C2176 C 0.30743 0.62703 0.98072 0.0
C2177 C 0.30225 0.60682 0.9912 0.0
C2178 C 0.28981 0.59164 0.98165 0.0
C2179 C 0.28278 0.59664 0.96134 0.0
C2180 C 0.28795 0.61602 0.95051 0.0
C2181 C 0.27884 0.61703 0.92854 0.0
C2182 C 0.26274 0.63524 0.92674 0.0
C2183 C 0.29697 0.61934 0.9105 0.0
C2184 C 0.26759 0.59529 0.92882 0.0
C2185 C 0.2699 0.58392 0.94803 0.0
C2186 C 0.26037 0.56376 0.95246 0.0
C2187 C 0.24831 0.55493 0.9369 0.0
C2188 C 0.24598 0.56601 0.91687 0.0
C2189 C 0.25591 0.58648 0.91282 0.0
H2190 H 0.42675 0.30332 0.94993 0.0
H2191 H 0.36561 0.2923 0.92333 0.0
H2192 H 0.38296 0.26711 0.89858 0.0
H2193 H 0.4596 0.3023 0.89994 0.0
H2194 H 0.48136 0.28913 0.9123 0.0
H2195 H 0.46402 0.30634 0.9276 0.0
H2196 H 0.45556 0.27545 0.95639 0.0
H2197 H 0.4728 0.25813 0.94114 0.0
H2198 H 0.44522 0.25036 0.9484 0.0
H2199 H 0.40716 0.24245 0.87734 0.0
H2200 H 0.43649 0.22066 0.86121 0.0
H2201 H 0.4813 0.24924 0.90129 0.0
C2202 C 0.41703 0.29592 0.93867 0.0
C2203 C 0.39486 0.29984 0.93846 0.0
C2204 C 0.38261 0.28938 0.92385 0.0
C2205 C 0.39233 0.27516 0.90968 0.0
C2206 C 0.41426 0.27168 0.91035 0.0
C2207 C 0.42643 0.28183 0.92445 0.0
C2208 C 0.4496 0.27521 0.9223 0.0
C2209 C 0.46452 0.29439 0.9151 0.0
C2210 C 0.45617 0.26413 0.9433 0.0
C2211 C 0.4486 0.25967 0.90482 0.0
C2212 C 0.42811 0.25777 0.8981 0.0
C2213 C 0.42328 0.2439 0.88238 0.0
C2214 C 0.43991 0.23164 0.87334 0.0
C2215 C 0.46088 0.23353 0.88011 0.0
C2216 C 0.46529 0.24772 0.89592 0.0
H2217 H 0.74339 0.38976 0.94606 0.0
H2218 H 0.74572 0.43113 0.99915 0.0
H2219 H 0.76837 0.45712 0.976 0.0
H2220 H 0.79853 0.3982 0.92706 0.0
H2221 H 0.79373 0.39704 0.89909 0.0
H2222 H 0.77618 0.38272 0.91924 0.0
H2223 H 0.7435 0.40219 0.90472 0.0
H2224 H 0.76099 0.41671 0.8846 0.0
H2225 H 0.74342 0.43097 0.9028 0.0
H2226 H 0.79132 0.47823 0.94733 0.0
H2227 H 0.81524 0.49175 0.91604 0.0
H2228 H 0.80051 0.43548 0.8823 0.0
C2229 C 0.74864 0.40436 0.95271 0.0
C2230 C 0.74274 0.40857 0.97433 0.0
C2231 C 0.74995 0.42775 0.98257 0.0
C2232 C 0.76279 0.44256 0.96955 0.0
C2233 C 0.7685 0.43787 0.94835 0.0
C2234 C 0.76185 0.41913 0.94003 0.0
C2235 C 0.77146 0.4173 0.91719 0.0
C2236 C 0.78583 0.39765 0.91556 0.0
C2237 C 0.75378 0.41676 0.9014 0.0
C2238 C 0.78459 0.4379 0.91397 0.0
C2239 C 0.7824 0.44966 0.93207 0.0
C2240 C 0.7931 0.46918 0.93308 0.0
C2241 C 0.8066 0.47675 0.91527 0.0
C2242 C 0.80946 0.46477 0.89676 0.0
C2243 C 0.79824 0.44513 0.89611 0.0
H2244 H 0.63188 0.3063 0.06661 0.0
H2245 H 0.68595 0.31071 0.10568 0.0
H2246 H 0.66694 0.28661 0.13388 0.0
H2247 H 0.59082 0.30663 0.11031 0.0
H2248 H 0.57333 0.28813 0.09867 0.0
H2249 H 0.59148 0.30523 0.08156 0.0
H2250 H 0.6076 0.27208 0.06377 0.0
H2251 H 0.58959 0.25486 0.08094 0.0
H2252 H 0.61815 0.25091 0.08034 0.0
H2253 H 0.64169 0.26212 0.15793 0.0
H2254 H 0.61173 0.24012 0.17634 0.0
H2255 H 0.57391 0.25235 0.1219 0.0
C2256 C 0.63963 0.30214 0.08114 0.0
C2257 C 0.66036 0.31022 0.08406 0.0
C2258 C 0.67009 0.30456 0.10322 0.0
C2259 C 0.65942 0.2909 0.11926 0.0
C2260 C 0.63899 0.28312 0.1159 0.0
C2261 C 0.62915 0.28863 0.09736 0.0
C2262 C 0.60693 0.27848 0.09791 0.0
C2263 C 0.58962 0.29564 0.09707 0.0
C2264 C 0.60549 0.26317 0.07965 0.0
C2265 C 0.60579 0.2664 0.11963 0.0
C2266 C 0.62447 0.26919 0.12974 0.0
C2267 C 0.62705 0.25975 0.1501 0.0
C2268 C 0.61005 0.24726 0.1604 0.0
C2269 C 0.59081 0.2443 0.15033 0.0
C2270 C 0.58868 0.25405 0.12972 0.0
H2271 H 0.78251 0.58654 0.11728 0.0
H2272 H 0.77895 0.6153 0.17901 0.0
H2273 H 0.75595 0.64359 0.1647 0.0
H2274 H 0.78603 0.63569 0.08496 0.0
H2275 H 0.77001 0.62578 0.06473 0.0
H2276 H 0.78577 0.60763 0.08006 0.0
H2277 H 0.75163 0.58468 0.09176 0.0
H2278 H 0.73577 0.60278 0.07647 0.0
H2279 H 0.72858 0.59706 0.10466 0.0
H2280 H 0.7335 0.66912 0.14322 0.0
H2281 H 0.71325 0.6893 0.1162 0.0
H2282 H 0.73257 0.64402 0.06891 0.0
C2283 C 0.77706 0.59886 0.12778 0.0
C2284 C 0.78253 0.59867 0.14928 0.0
C2285 C 0.77473 0.61494 0.16256 0.0
C2286 C 0.76177 0.63115 0.15454 0.0
C2287 C 0.75678 0.63088 0.13322 0.0
C2288 C 0.76419 0.61513 0.12005 0.0
C2289 C 0.75664 0.61842 0.09774 0.0
C2290 C 0.77575 0.6221 0.08088 0.0
C2291 C 0.7423 0.59962 0.09235 0.0
C2292 C 0.74384 0.63849 0.10038 0.0
C2293 C 0.74405 0.64549 0.12095 0.0
C2294 C 0.73321 0.66377 0.12708 0.0
C2295 C 0.7218 0.67511 0.11176 0.0
C2296 C 0.72143 0.66799 0.09076 0.0
C2297 C 0.73266 0.64959 0.085 0.0
H2298 H 0.41078 0.77069 0.08494 0.0
H2299 H 0.38731 0.72098 0.13256 0.0
H2300 H 0.40547 0.73894 0.15998 0.0
H2301 H 0.46366 0.77401 0.10502 0.0
H2302 H 0.46659 0.8024 0.09921 0.0
H2303 H 0.45036 0.7866 0.0832 0.0
H2304 H 0.41807 0.811 0.0916 0.0
H2305 H 0.43416 0.82678 0.10775 0.0
H2306 H 0.40913 0.81495 0.11917 0.0
H2307 H 0.42549 0.76268 0.18308 0.0
H2308 H 0.44856 0.78825 0.1992 0.0
H2309 H 0.46377 0.82018 0.1363 0.0
C2310 C 0.40944 0.76329 0.10101 0.0
C2311 C 0.39678 0.74435 0.10618 0.0
C2312 C 0.39585 0.73576 0.12778 0.0
C2313 C 0.40644 0.74578 0.14367 0.0
C2314 C 0.4185 0.76432 0.13797 0.0
C2315 C 0.42038 0.77284 0.1171 0.0
C2316 C 0.43539 0.79234 0.11515 0.0
C2317 C 0.45517 0.78861 0.09973 0.0
C2318 C 0.42347 0.81246 0.10799 0.0
C2319 C 0.44152 0.79344 0.1382 0.0
C2320 C 0.43134 0.77724 0.15108 0.0
C2321 C 0.43386 0.7752 0.17303 0.0
C2322 C 0.44733 0.78983 0.18204 0.0
C2323 C 0.45875 0.8063 0.16922 0.0
C2324 C 0.45547 0.80804 0.14688 0.0
H2325 H 0.3012 0.40132 0.09853 0.0
H2326 H 0.31308 0.44456 0.04224 0.0
H2327 H 0.28865 0.47068 0.0588 0.0
H2328 H 0.24575 0.41168 0.10824 0.0
H2329 H 0.24599 0.41043 0.13708 0.0
H2330 H 0.26507 0.39542 0.12123 0.0
H2331 H 0.29647 0.41367 0.13853 0.0
H2332 H 0.27748 0.42859 0.15459 0.0
H2333 H 0.29842 0.44241 0.13763 0.0
H2334 H 0.26143 0.491 0.08039 0.0
H2335 H 0.23545 0.50578 0.10726 0.0
H2336 H 0.24194 0.44968 0.14978 0.0
C2337 C 0.29874 0.41637 0.08981 0.0
C2338 C 0.30901 0.42104 0.0692 0.0
C2339 C 0.30554 0.44087 0.05821 0.0
C2340 C 0.29161 0.45571 0.06739 0.0
C2341 C 0.28147 0.45049 0.08762 0.0
C2342 C 0.28506 0.43144 0.09883 0.0
C2343 C 0.27217 0.42978 0.12033 0.0
C2344 C 0.25631 0.4107 0.12179 0.0
C2345 C 0.28702 0.42855 0.13886 0.0
C2346 C 0.26057 0.45077 0.11932 0.0
C2347 C 0.26607 0.46241 0.10026 0.0
C2348 C 0.25707 0.48211 0.09543 0.0
C2349 C 0.24224 0.49027 0.11065 0.0
C2350 C 0.23676 0.47878 0.13044 0.0
C2351 C 0.246 0.45878 0.13477 0.0
H2352 H 0.89384 0.58554 0.79811 0.0
H2353 H 0.93218 0.52861 0.80169 0.0
H2354 H 0.96177 0.5474 0.77935 0.0
H2355 H 0.91099 0.60114 0.74243 0.0
H2356 H 0.91087 0.62931 0.7468 0.0
H2357 H 0.8929 0.61133 0.76313 0.0
H2358 H 0.90816 0.62501 0.79737 0.0
H2359 H 0.92638 0.64283 0.78112 0.0
H2360 H 0.93662 0.62379 0.80025 0.0
H2361 H 0.98743 0.57261 0.75729 0.0
H2362 H 1.00655 0.60186 0.73505 0.0
H2363 H 0.95106 0.64194 0.74424 0.0
C2364 C 0.90841 0.57704 0.79394 0.0
C2365 C 0.91081 0.55564 0.80148 0.0
C2366 C 0.93012 0.54501 0.79597 0.0
C2367 C 0.94698 0.55556 0.78336 0.0
C2368 C 0.94422 0.57673 0.77627 0.0
C2369 C 0.92534 0.5873 0.78115 0.0
C2370 C 0.92641 0.60991 0.77115 0.0
C2371 C 0.90928 0.6131 0.75491 0.0
C2372 C 0.92427 0.62635 0.78851 0.0
C2373 C 0.94886 0.61043 0.76001 0.0
C2374 C 0.9589 0.59116 0.7633 0.0
C2375 C 0.97973 0.58777 0.75464 0.0
C2376 C 0.99049 0.60444 0.74214 0.0
C2377 C 0.98045 0.62422 0.73841 0.0
C2378 C 0.95932 0.62717 0.74738 0.0
H2379 H 0.89513 0.44665 0.2388 0.0
H2380 H 0.93529 0.50377 0.2287 0.0
H2381 H 0.96272 0.48654 0.25001 0.0
H2382 H 0.90723 0.43329 0.29299 0.0
H2383 H 0.90751 0.40491 0.28977 0.0
H2384 H 0.89105 0.42174 0.27377 0.0
H2385 H 0.90955 0.40747 0.23902 0.0
H2386 H 0.926 0.39053 0.25492 0.0
H2387 H 0.93839 0.40914 0.23457 0.0
H2388 H 0.98513 0.46352 0.27335 0.0
H2389 H 1.0023 0.43527 0.29487 0.0
H2390 H 0.94799 0.39278 0.28882 0.0
C2391 C 0.90971 0.45549 0.24111 0.0
C2392 C 0.91318 0.4765 0.23215 0.0
C2393 C 0.93249 0.48756 0.23529 0.0
C2394 C 0.94806 0.47797 0.24746 0.0
C2395 C 0.94411 0.45726 0.25619 0.0
C2396 C 0.92552 0.44606 0.25299 0.0
C2397 C 0.92542 0.42385 0.26373 0.0
C2398 C 0.90669 0.42078 0.2811 0.0
C2399 C 0.92481 0.40674 0.24707 0.0
C2400 C 0.94682 0.42433 0.27356 0.0
C2401 C 0.95727 0.44381 0.26918 0.0
C2402 C 0.97714 0.44818 0.27684 0.0
C2403 C 0.98669 0.43211 0.28914 0.0
C2404 C 0.97643 0.41191 0.29348 0.0
C2405 C 0.95622 0.40805 0.2856 0.0
H2406 H 0.64928 0.95263 0.336 0.0
H2407 H 0.66037 0.01161 0.29711 0.0
H2408 H 0.63884 0.99738 0.26933 0.0
H2409 H 0.64956 0.91651 0.29355 0.0
H2410 H 0.62771 0.89986 0.30564 0.0
H2411 H 0.64449 0.91423 0.32235 0.0
H2412 H 0.61106 0.93208 0.34011 0.0
H2413 H 0.59415 0.91758 0.32362 0.0
H2414 H 0.59305 0.94628 0.32345 0.0
H2415 H 0.61805 0.97578 0.24464 0.0
H2416 H 0.59608 0.95086 0.22663 0.0
H2417 H 0.59335 0.90737 0.28348 0.0
C2418 C 0.64686 0.96269 0.3218 0.0
C2419 C 0.65657 0.98337 0.31883 0.0
C2420 C 0.65324 0.99576 0.29977 0.0
C2421 C 0.64102 0.98778 0.28388 0.0
C2422 C 0.63172 0.96741 0.28728 0.0
C2423 C 0.63412 0.95516 0.30594 0.0
C2424 C 0.6216 0.93413 0.30585 0.0
C2425 C 0.63675 0.91506 0.30691 0.0
C2426 C 0.60391 0.93242 0.32435 0.0
C2427 C 0.61205 0.93637 0.28412 0.0
C2428 C 0.61838 0.95559 0.27362 0.0
C2429 C 0.61256 0.96092 0.25297 0.0
C2430 C 0.59968 0.94652 0.2429 0.0
C2431 C 0.59198 0.92691 0.25347 0.0
C2432 C 0.59861 0.92194 0.2745 0.0
H2433 H 0.10762 0.58092 0.25532 0.0
H2434 H 0.16924 0.61073 0.26392 0.0
H2435 H 0.1514 0.63489 0.28946 0.0
H2436 H 0.07699 0.62806 0.2567 0.0
H2437 H 0.05379 0.61514 0.27096 0.0
H2438 H 0.07164 0.60009 0.25386 0.0
H2439 H 0.07682 0.573 0.2858 0.0
H2440 H 0.05907 0.58808 0.30304 0.0
H2441 H 0.08585 0.58245 0.31036 0.0
H2442 H 0.1265 0.65612 0.31356 0.0
H2443 H 0.09609 0.67378 0.33304 0.0
H2444 H 0.05146 0.62935 0.30877 0.0
C2445 C 0.11742 0.59236 0.26276 0.0
C2446 C 0.1398 0.59392 0.25778 0.0
C2447 C 0.15202 0.60941 0.26744 0.0
C2448 C 0.14207 0.62305 0.28206 0.0
C2449 C 0.11996 0.62092 0.28676 0.0
C2450 C 0.1078 0.60601 0.27732 0.0
C2451 C 0.08425 0.6073 0.2845 0.0
C2452 C 0.07089 0.61299 0.26536 0.0
C2453 C 0.07602 0.58647 0.29665 0.0
C2454 C 0.08499 0.6254 0.29937 0.0
C2455 C 0.10572 0.633 0.3006 0.0
C2456 C 0.11024 0.6502 0.31286 0.0
C2457 C 0.09301 0.66006 0.32386 0.0
C2458 C 0.07178 0.65261 0.32237 0.0
C2459 C 0.06773 0.63499 0.31025 0.0
H2460 H 0.45523 0.15073 0.22432 0.0
H2461 H 0.50762 0.16915 0.26149 0.0
H2462 H 0.49137 0.1473 0.29286 0.0
H2463 H 0.41332 0.14904 0.26622 0.0
H2464 H 0.40013 0.12555 0.25775 0.0
H2465 H 0.4155 0.14294 0.2383 0.0
H2466 H 0.43865 0.11118 0.22622 0.0
H2467 H 0.42315 0.09363 0.24541 0.0
H2468 H 0.45193 0.09527 0.24594 0.0
H2469 H 0.4685 0.12503 0.32051 0.0
H2470 H 0.44308 0.10071 0.34175 0.0
H2471 H 0.40761 0.09284 0.28539 0.0
C2472 C 0.46359 0.14967 0.23887 0.0
C2473 C 0.48298 0.16122 0.24038 0.0
C2474 C 0.4929 0.1602 0.26 0.0
C2475 C 0.48375 0.1479 0.27787 0.0
C2476 C 0.46474 0.13655 0.27581 0.0
C2477 C 0.45493 0.13703 0.25673 0.0
C2478 C 0.43495 0.12278 0.25868 0.0
C2479 C 0.41478 0.13587 0.25502 0.0
C2480 C 0.43732 0.10464 0.24314 0.0
C2481 C 0.43498 0.11433 0.28189 0.0
C2482 C 0.45215 0.12274 0.29151 0.0
C2483 C 0.45524 0.11799 0.31302 0.0
C2484 C 0.44072 0.1039 0.32494 0.0
C2485 C 0.42342 0.09418 0.31532 0.0
C2486 C 0.4205 0.09983 0.29346 0.0
H2487 H 0.10307 0.36903 0.75033 0.0
H2488 H 0.07716 0.41906 0.70932 0.0
H2489 H 0.09717 0.44585 0.72695 0.0
H2490 H 0.09832 0.39993 0.79831 0.0
H2491 H 0.1224 0.38947 0.80873 0.0
H2492 H 0.10698 0.37352 0.79212 0.0
H2493 H 0.14076 0.36917 0.76624 0.0
H2494 H 0.15626 0.38519 0.78272 0.0
H2495 H 0.15514 0.39261 0.75458 0.0
H2496 H 0.12105 0.46784 0.74786 0.0
H2497 H 0.14422 0.48357 0.77345 0.0
H2498 H 0.15191 0.42092 0.80433 0.0
C2499 C 0.10137 0.38556 0.74502 0.0
C2500 C 0.08876 0.39139 0.7276 0.0
C2501 C 0.08727 0.41352 0.72168 0.0
C2502 C 0.09846 0.42914 0.73187 0.0
C2503 C 0.11087 0.42278 0.74855 0.0
C2504 C 0.11211 0.40159 0.75543 0.0
C2505 C 0.12591 0.39937 0.77453 0.0
C2506 C 0.11261 0.39002 0.79461 0.0
C2507 C 0.14569 0.38578 0.76919 0.0
C2508 C 0.13234 0.42259 0.77708 0.0
C2509 C 0.12362 0.43574 0.76169 0.0
C2510 C 0.12778 0.45771 0.7601 0.0
C2511 C 0.14103 0.46651 0.77466 0.0
C2512 C 0.1498 0.45355 0.79092 0.0
C2513 C 0.1453 0.43125 0.79216 0.0
H2514 H 0.60657 0.15795 0.8141 0.0
H2515 H 0.54226 0.13058 0.82171 0.0
H2516 H 0.55416 0.10061 0.79962 0.0
H2517 H 0.61764 0.14542 0.75912 0.0
H2518 H 0.64548 0.13962 0.76208 0.0
H2519 H 0.63192 0.15842 0.77892 0.0
H2520 H 0.64217 0.13653 0.8129 0.0
H2521 H 0.65589 0.11775 0.79618 0.0
H2522 H 0.63508 0.10854 0.8162 0.0
H2523 H 0.57332 0.07392 0.77669 0.0
H2524 H 0.59853 0.05165 0.75568 0.0
H2525 H 0.64976 0.09787 0.76184 0.0
C2526 C 0.59512 0.14555 0.81109 0.0
C2527 C 0.57361 0.1463 0.81935 0.0
C2528 C 0.55886 0.12998 0.81537 0.0
C2529 C 0.56544 0.11306 0.80284 0.0
C2530 C 0.58676 0.11291 0.79451 0.0
C2531 C 0.60138 0.1287 0.79852 0.0
C2532 C 0.62329 0.12493 0.78762 0.0
C2533 C 0.62997 0.14318 0.77094 0.0
C2534 C 0.64009 0.12174 0.80422 0.0
C2535 C 0.61878 0.10447 0.77697 0.0
C2536 C 0.59764 0.09779 0.78108 0.0
C2537 C 0.58989 0.07904 0.77326 0.0
C2538 C 0.60427 0.06659 0.76121 0.0
C2539 C 0.6261 0.07303 0.75713 0.0
C2540 C 0.63324 0.0924 0.76487 0.0
H2541 H 0.44781 0.92028 0.81391 0.0
H2542 H 0.43235 0.8583 0.79094 0.0
H2543 H 0.40638 0.87508 0.76765 0.0
H2544 H 0.39383 0.9415 0.81458 0.0
H2545 H 0.403 0.96805 0.80551 0.0
H2546 H 0.41981 0.95105 0.82095 0.0
H2547 H 0.45054 0.95595 0.79077 0.0
H2548 H 0.43379 0.9729 0.77523 0.0
H2549 H 0.44557 0.94963 0.76378 0.0
H2550 H 0.38273 0.89864 0.74622 0.0
H2551 H 0.36324 0.9277 0.72792 0.0
H2552 H 0.39403 0.97423 0.76466 0.0
C2553 C 0.43874 0.91022 0.8042 0.0
C2554 C 0.44208 0.88797 0.80424 0.0
C2555 C 0.43018 0.87539 0.79101 0.0
C2556 C 0.41532 0.88476 0.77782 0.0
C2557 C 0.41255 0.90674 0.77801 0.0
C2558 C 0.42391 0.91933 0.79084 0.0
C2559 C 0.41838 0.94267 0.78754 0.0
C2560 C 0.40814 0.95132 0.80839 0.0
C2561 C 0.43825 0.95607 0.77881 0.0
C2562 C 0.4022 0.94123 0.7708 0.0
C2563 C 0.39901 0.92034 0.76557 0.0
C2564 C 0.38503 0.91503 0.75024 0.0
C2565 C 0.37406 0.93152 0.73996 0.0
C2566 C 0.37723 0.95293 0.74507 0.0
C2567 C 0.39139 0.95786 0.76067 0.0
loop_
_geom_bond_atom_site_label_1
_geom_bond_atom_site_label_2
_geom_bond_distance
_geom_bond_site_symmetry_2
_ccdc_geom_bond_type
C0 C1 1.443 . S
C0 N4 1.376 1_565 S
C0 C38 1.389 . S
C1 C0 1.443 . S
C1 C2 1.338 . S
C1 H41 0.951 . S
C2 C1 1.338 . S
C2 C3 1.441 1_565 S
C2 H42 0.950 1_565 S
C3 C2 1.441 1_545 S
C3 N4 1.374 . S
C3 C37 1.395 . S
N4 C0 1.376 1_545 S
N4 C3 1.374 . S
N4 Co5 2.008 . S
Co5 N4 2.008 . S
Co5 N6 1.995 . S
Co5 N11 2.008 . S
Co5 N16 1.995 . S
Co5 N21 2.282 1_545 S
Co5 N27 2.282 . S
N6 Co5 1.995 . S
N6 C7 1.376 . S
N6 C10 1.383 . S
C7 N6 1.376 . S
C7 C8 1.446 . S
C7 C37 1.391 . S
C8 C7 1.446 . S
C8 C9 1.339 . S
C8 H43 0.949 . S
C9 C8 1.339 . S
C9 C10 1.439 . S
C9 H44 0.950 . S
C10 N6 1.383 . S
C10 C9 1.439 . S
C10 C39 1.392 . S
N11 Co5 2.008 . S
N11 C12 1.376 . S
N11 C15 1.374 . S
C12 N11 1.376 . S
C12 C13 1.443 . S
C12 C39 1.389 . S
C13 C12 1.443 . S
C13 C14 1.340 . S
C13 H45 0.951 . S
C14 C13 1.340 . S
C14 C15 1.439 . S
C14 H46 0.950 . S
C15 N11 1.374 . S
C15 C14 1.439 . S
C15 C40 1.395 . S
N16 Co5 1.995 . S
N16 C17 1.376 . S
N16 C20 1.383 1_545 S
C17 N16 1.376 . S
C17 C18 1.446 1_545 S
C17 C40 1.391 . S
C18 C17 1.446 1_565 S
C18 C19 1.339 . S
C18 H47 0.949 . S
C19 C18 1.339 . S
C19 C20 1.439 . S
C19 H48 0.950 . S
C20 N16 1.383 1_565 S
C20 C19 1.439 . S
C20 C38 1.392 . S
N21 Co5 2.282 1_565 S
N21 C24 1.332 . S
N21 C26 1.332 . S
C22 C23 1.386 . S
C22 C25 1.388 . S
C23 C22 1.386 . S
C23 C24 1.382 . S
C23 H49 0.950 . S
C24 N21 1.332 . S
C24 C23 1.382 . S
C24 H35 0.952 . S
C25 C22 1.388 . S
C25 C26 1.382 . S
C25 H50 0.950 . S
C26 N21 1.332 . S
C26 C25 1.382 . S
C26 H36 0.948 . S
N27 Co5 2.282 . S
N27 C31 1.332 . S
N27 C32 1.332 . S
C28 C29 1.388 . S
C28 C32 1.382 . S
C28 H51 0.950 . S
C29 C28 1.388 . S
C29 C30 1.386 . S
C30 C29 1.386 . S
C30 C31 1.382 . S
C30 H52 0.950 . S
C31 N27 1.332 . S
C31 C30 1.382 . S
C31 H33 0.952 . S
C32 N27 1.332 . S
C32 C28 1.382 . S
C32 H34 0.948 . S
H33 C31 0.952 . S
H34 C32 0.948 . S
H35 C24 0.952 . S
H36 C26 0.948 . S
C37 C3 1.395 . S
C37 C7 1.391 . S
C38 C0 1.389 . S
C38 C20 1.392 . S
C39 C10 1.392 . S
C39 C12 1.389 . S
C40 C15 1.395 . S
C40 C17 1.391 . S
H41 C1 0.951 . S
H42 C2 0.950 1_545 S
H43 C8 0.949 . S
H44 C9 0.950 . S
H45 C13 0.951 . S
H46 C14 0.950 . S
H47 C18 0.949 . S
H48 C19 0.950 . S
H49 C23 0.950 . S
H50 C25 0.950 . S
H51 C28 0.950 . S
H52 C30 0.950 . S
C53 C54 1.443 . S
C53 N57 1.376 . S
C53 C91 1.389 . S
C54 C53 1.443 . S
C54 C55 1.340 . S
C54 H94 0.951 . S
C55 C54 1.340 . S
C55 C56 1.439 . S
C55 H95 0.950 . S
C56 C55 1.439 . S
C56 N57 1.374 . S
C56 C90 1.395 . S
N57 C53 1.376 . S
N57 C56 1.374 . S
N57 Co58 2.008 . S
Co58 N57 2.008 . S
Co58 N59 1.995 . S
Co58 N64 2.008 . S
Co58 N69 1.995 . S
Co58 N74 2.282 . S
Co58 N80 2.282 1_455 S
N59 Co58 1.995 . S
N59 C60 1.376 . S
N59 C63 1.383 1_455 S
C60 N59 1.376 . S
C60 C61 1.446 1_455 S
C60 C90 1.391 . S
C61 C60 1.446 1_655 S
C61 C62 1.339 . S
C61 H96 0.949 . S
C62 C61 1.339 . S
C62 C63 1.439 . S
C62 H97 0.950 . S
C63 N59 1.383 1_655 S
C63 C62 1.439 . S
C63 C92 1.392 . S
N64 Co58 2.008 . S
N64 C65 1.376 1_455 S
N64 C68 1.374 . S
C65 N64 1.376 1_655 S
C65 C66 1.443 . S
C65 C92 1.389 . S
C66 C65 1.443 . S
C66 C67 1.340 1_655 S
C66 H98 0.951 . S
C67 C66 1.340 1_455 S
C67 C68 1.439 . S
C67 H99 0.950 . S
C68 N64 1.374 . S
C68 C67 1.439 . S
C68 C93 1.395 . S
N69 Co58 1.995 . S
N69 C70 1.376 . S
N69 C73 1.383 . S
C70 N69 1.376 . S
C70 C71 1.446 . S
C70 C93 1.391 . S
C71 C70 1.446 . S
C71 C72 1.339 . S
C71 H100 0.949 . S
C72 C71 1.339 . S
C72 C73 1.439 . S
C72 H101 0.950 . S
C73 N69 1.383 . S
C73 C72 1.439 . S
C73 C91 1.392 . S
N74 Co58 2.282 . S
N74 C77 1.332 . S
N74 C79 1.332 . S
C75 C76 1.386 . S
C75 C78 1.388 . S
C76 C75 1.386 . S
C76 C77 1.382 . S
C76 H102 0.950 . S
C77 N74 1.332 . S
C77 C76 1.382 . S
C77 H88 0.952 . S
C78 C75 1.388 . S
C78 C79 1.382 . S
C78 H103 0.950 . S
C79 N74 1.332 . S
C79 C78 1.382 . S
C79 H89 0.948 . S
N80 Co58 2.282 1_655 S
N80 C84 1.332 . S
N80 C85 1.332 . S
C81 C82 1.388 . S
C81 C85 1.382 . S
C81 H104 0.950 . S
C82 C81 1.388 . S
C82 C83 1.386 . S
C83 C82 1.386 . S
C83 C84 1.382 . S
C83 H105 0.950 . S
C84 N80 1.332 . S
C84 C83 1.382 . S
C84 H86 0.952 . S
C85 N80 1.332 . S
C85 C81 1.382 . S
C85 H87 0.948 1_655 S
H86 C84 0.952 . S
H87 C85 0.948 1_455 S
H88 C77 0.952 . S
H89 C79 0.948 . S
C90 C56 1.395 . S
C90 C60 1.391 . S
C91 C53 1.389 . S
C91 C73 1.392 . S
C92 C63 1.392 . S
C92 C65 1.389 . S
C93 C68 1.395 . S
C93 C70 1.391 . S
H94 C54 0.951 . S
H95 C55 0.950 . S
H96 C61 0.949 . S
H97 C62 0.950 . S
H98 C66 0.951 . S
H99 C67 0.950 . S
H100 C71 0.949 . S
H101 C72 0.950 . S
H102 C76 0.950 . S
H103 C78 0.950 . S
H104 C81 0.950 . S
H105 C83 0.950 . S
C106 C107 1.443 . S
C106 N110 1.376 1_565 S
C106 C144 1.389 . S
C107 C106 1.443 . S
C107 C108 1.336 1_565 S
C107 H147 0.951 . S
C108 C107 1.336 1_545 S
C108 C109 1.443 . S
C108 H148 0.950 . S
C109 C108 1.443 . S
C109 N110 1.374 . S
C109 C143 1.395 . S
N110 C106 1.376 1_545 S
N110 C109 1.374 . S
N110 Co111 2.008 . S
Co111 N110 2.008 . S
Co111 N112 1.995 . S
Co111 N117 2.008 . S
Co111 N122 2.014 . S
Co111 N127 2.282 1_545 S
Co111 N133 2.282 . S
N112 Co111 1.995 . S
N112 C113 1.376 . S
N112 C116 1.383 . S
C113 N112 1.376 . S
C113 C114 1.446 . S
C113 C143 1.391 . S
C114 C113 1.446 . S
C114 C115 1.339 . S
C114 H149 0.949 . S
C115 C114 1.339 . S
C115 C116 1.439 . S
C115 H150 0.950 . S
C116 N112 1.383 . S
C116 C115 1.439 . S
C116 C145 1.392 . S
N117 Co111 2.008 . S
N117 C118 1.376 . S
N117 C121 1.374 . S
C118 N117 1.376 . S
C118 C119 1.443 . S
C118 C145 1.389 . S
C119 C118 1.443 . S
C119 C120 1.340 . S
C119 H151 0.951 . S
C120 C119 1.340 . S
C120 C121 1.439 . S
C120 H152 0.950 . S
C121 N117 1.374 . S
C121 C120 1.439 . S
C121 C146 1.395 . S
N122 Co111 2.014 . S
N122 C123 1.377 . S
N122 C126 1.361 1_545 S
C123 N122 1.377 . S
C123 C124 1.433 1_545 S
C123 C146 1.405 . S
C124 C123 1.433 1_565 S
C124 C125 1.339 . S
C124 H153 0.949 . S
C125 C124 1.339 . S
C125 C126 1.439 . S
C125 H154 0.950 . S
C126 N122 1.361 1_565 S
C126 C125 1.439 . S
C126 C144 1.392 . S
N127 Co111 2.282 1_565 S
N127 C130 1.332 . S
N127 C132 1.332 . S
C128 C129 1.386 . S
C128 C131 1.388 . S
C129 C128 1.386 . S
C129 C130 1.382 . S
C129 H155 0.950 . S
C130 N127 1.332 . S
C130 C129 1.382 . S
C130 H141 0.952 . S
C131 C128 1.388 . S
C131 C132 1.382 . S
C131 H156 0.950 . S
C132 N127 1.332 . S
C132 C131 1.382 . S
C132 H142 0.948 . S
N133 Co111 2.282 . S
N133 C137 1.332 . S
N133 C138 1.332 . S
C134 C135 1.388 . S
C134 C138 1.382 . S
C134 H157 0.950 . S
C135 C134 1.388 . S
C135 C136 1.386 . S
C136 C135 1.386 . S
C136 C137 1.382 . S
C136 H158 0.950 . S
C137 N133 1.332 . S
C137 C136 1.382 . S
C137 H139 0.952 . S
C138 N133 1.332 . S
C138 C134 1.382 . S
C138 H140 0.948 . S
H139 C137 0.952 . S
H140 C138 0.948 . S
H141 C130 0.952 . S
H142 C132 0.948 . S
C143 C109 1.395 . S
C143 C113 1.391 . S
C144 C106 1.389 . S
C144 C126 1.392 . S
C145 C116 1.392 . S
C145 C118 1.389 . S
C146 C121 1.395 . S
C146 C123 1.405 . S
H147 C107 0.951 . S
H148 C108 0.950 . S
H149 C114 0.949 . S
H150 C115 0.950 . S
H151 C119 0.951 . S
H152 C120 0.950 . S
H153 C124 0.949 . S
H154 C125 0.950 . S
H155 C129 0.950 . S
H156 C131 0.950 . S
H157 C134 0.950 . S
H158 C136 0.950 . S
C159 C160 1.443 . S
C159 N163 1.376 . S
C159 C197 1.389 . S
C160 C159 1.443 . S
C160 C161 1.340 . S
C160 H200 0.951 . S
C161 C160 1.340 . S
C161 C162 1.439 . S
C161 H201 0.950 . S
C162 C161 1.439 . S
C162 N163 1.374 . S
C162 C196 1.395 1_655 S
N163 C159 1.376 . S
N163 C162 1.374 . S
N163 Co164 2.001 1_655 S
Co164 N163 2.001 1_455 S
Co164 N165 2.003 . S
Co164 N170 2.015 . S
Co164 N175 1.986 1_455 S
Co164 N180 2.270 1_455 S
Co164 N186 2.295 . S
N165 Co164 2.003 . S
N165 C166 1.376 . S
N165 C169 1.383 . S
C166 N165 1.376 . S
C166 C167 1.446 . S
C166 C196 1.391 . S
C167 C166 1.446 . S
C167 C168 1.339 . S
C167 H202 0.949 . S
C168 C167 1.339 . S
C168 C169 1.439 . S
C168 H203 0.950 . S
C169 N165 1.383 . S
C169 C168 1.439 . S
C169 C198 1.392 . S
N170 Co164 2.015 . S
N170 C171 1.376 . S
N170 C174 1.374 . S
C171 N170 1.376 . S
C171 C172 1.443 . S
C171 C198 1.389 . S
C172 C171 1.443 . S
C172 C173 1.340 . S
C172 H204 0.951 . S
C173 C172 1.340 . S
C173 C174 1.439 . S
C173 H205 0.950 . S
C174 N170 1.374 . S
C174 C173 1.439 . S
C174 C199 1.395 1_455 S
N175 Co164 1.986 1_655 S
N175 C176 1.376 . S
N175 C179 1.383 . S
C176 N175 1.376 . S
C176 C177 1.446 . S
C176 C199 1.391 . S
C177 C176 1.446 . S
C177 C178 1.339 . S
C177 H206 0.949 . S
C178 C177 1.339 . S
C178 C179 1.439 . S
C178 H207 0.950 . S
C179 N175 1.383 . S
C179 C178 1.439 . S
C179 C197 1.392 . S
N180 Co164 2.270 1_655 S
N180 C183 1.332 . S
N180 C185 1.332 . S
C181 C182 1.386 . S
C181 C184 1.388 . S
C182 C181 1.386 . S
C182 C183 1.382 . S
C182 H208 0.950 . S
C183 N180 1.332 . S
C183 C182 1.382 . S
C183 H194 0.952 . S
C184 C181 1.388 . S
C184 C185 1.382 . S
C184 H209 0.950 . S
C185 N180 1.332 . S
C185 C184 1.382 . S
C185 H195 0.948 . S
N186 Co164 2.295 . S
N186 C190 1.332 . S
N186 C191 1.332 . S
C187 C188 1.388 . S
C187 C191 1.382 . S
C187 H210 0.950 . S
C188 C187 1.388 . S
C188 C189 1.386 . S
C189 C188 1.386 . S
C189 C190 1.382 . S
C189 H211 0.950 . S
C190 N186 1.332 . S
C190 C189 1.382 . S
C190 H192 0.952 . S
C191 N186 1.332 . S
C191 C187 1.382 . S
C191 H193 0.948 . S
H192 C190 0.952 . S
H193 C191 0.948 . S
H194 C183 0.952 . S
H195 C185 0.948 . S
C196 C162 1.395 1_455 S
C196 C166 1.391 . S
C197 C159 1.389 . S
C197 C179 1.392 . S
C198 C169 1.392 . S
C198 C171 1.389 . S
C199 C174 1.395 1_655 S
C199 C176 1.391 . S
H200 C160 0.951 . S
H201 C161 0.950 . S
H202 C167 0.949 . S
H203 C168 0.950 . S
H204 C172 0.951 . S
H205 C173 0.950 . S
H206 C177 0.949 . S
H207 C178 0.950 . S
H208 C182 0.950 . S
H209 C184 0.950 . S
H210 C187 0.950 . S
H211 C189 0.950 . S
C212 C213 1.443 . S
C212 N216 1.376 . S
C212 C250 1.389 . S
C213 C212 1.443 . S
C213 C214 1.340 . S
C213 H253 0.951 . S
C214 C213 1.340 . S
C214 C215 1.439 . S
C214 H254 0.950 . S
C215 C214 1.439 . S
C215 N216 1.374 . S
C215 C249 1.395 1_565 S
N216 C212 1.376 . S
N216 C215 1.374 . S
N216 Co217 2.008 1_565 S
Co217 N216 2.008 1_545 S
Co217 N218 1.995 . S
Co217 N223 2.008 . S
Co217 N228 1.995 1_545 S
Co217 N233 2.282 1_545 S
Co217 N239 2.282 . S
N218 Co217 1.995 . S
N218 C219 1.376 . S
N218 C222 1.383 . S
C219 N218 1.376 . S
C219 C220 1.446 . S
C219 C249 1.391 . S
C220 C219 1.446 . S
C220 C221 1.339 . S
C220 H255 0.949 . S
C221 C220 1.339 . S
C221 C222 1.439 . S
C221 H256 0.950 . S
C222 N218 1.383 . S
C222 C221 1.439 . S
C222 C251 1.392 . S
N223 Co217 2.008 . S
N223 C224 1.376 . S
N223 C227 1.374 . S
C224 N223 1.376 . S
C224 C225 1.443 . S
C224 C251 1.389 . S
C225 C224 1.443 . S
C225 C226 1.340 . S
C225 H257 0.951 . S
C226 C225 1.340 . S
C226 C227 1.439 . S
C226 H258 0.950 . S
C227 N223 1.374 . S
C227 C226 1.439 . S
C227 C252 1.395 . S
N228 Co217 1.995 1_565 S
N228 C229 1.376 . S
N228 C232 1.383 . S
C229 N228 1.376 . S
C229 C230 1.446 . S
C229 C252 1.391 1_565 S
C230 C229 1.446 . S
C230 C231 1.339 . S
C230 H259 0.949 . S
C231 C230 1.339 . S
C231 C232 1.439 . S
C231 H260 0.950 . S
C232 N228 1.383 . S
C232 C231 1.439 . S
C232 C250 1.392 . S
N233 Co217 2.282 1_565 S
N233 C236 1.332 . S
N233 C238 1.332 . S
C234 C235 1.386 . S
C234 C237 1.388 . S
C235 C234 1.386 . S
C235 C236 1.382 . S
C235 H261 0.950 . S
C236 N233 1.332 . S
C236 C235 1.382 . S
C236 H247 0.952 . S
C237 C234 1.388 . S
C237 C238 1.382 . S
C237 H262 0.950 . S
C238 N233 1.332 . S
C238 C237 1.382 . S
C238 H248 0.948 . S
N239 Co217 2.282 . S
N239 C243 1.332 . S
N239 C244 1.332 . S
C240 C241 1.388 . S
C240 C244 1.382 . S
C240 H263 0.950 . S
C241 C240 1.388 . S
C241 C242 1.386 . S
C242 C241 1.386 . S
C242 C243 1.382 . S
C242 H264 0.950 . S
C243 N239 1.332 . S
C243 C242 1.382 . S
C243 H245 0.952 . S
C244 N239 1.332 . S
C244 C240 1.382 . S
C244 H246 0.948 . S
H245 C243 0.952 . S
H246 C244 0.948 . S
H247 C236 0.952 . S
H248 C238 0.948 . S
C249 C215 1.395 1_545 S
C249 C219 1.391 . S
C250 C212 1.389 . S
C250 C232 1.392 . S
C251 C222 1.392 . S
C251 C224 1.389 . S
C252 C227 1.395 . S
C252 C229 1.391 1_545 S
H253 C213 0.951 . S
H254 C214 0.950 . S
H255 C220 0.949 . S
H256 C221 0.950 . S
H257 C225 0.951 . S
H258 C226 0.950 . S
H259 C230 0.949 . S
H260 C231 0.950 . S
H261 C235 0.950 . S
H262 C237 0.950 . S
H263 C240 0.950 . S
H264 C242 0.950 . S
C265 C266 1.443 . S
C265 N269 1.376 1_655 S
C265 C303 1.389 . S
C266 C265 1.443 . S
C266 C267 1.340 1_655 S
C266 H306 0.951 . S
C267 C266 1.340 1_455 S
C267 C268 1.439 . S
C267 H307 0.950 . S
C268 C267 1.439 . S
C268 N269 1.374 . S
C268 C302 1.395 . S
N269 C265 1.376 1_455 S
N269 C268 1.374 . S
N269 Co270 2.008 . S
Co270 N269 2.008 . S
Co270 N271 1.995 . S
Co270 N276 2.008 . S
Co270 N281 1.995 . S
Co270 N286 2.282 1_455 S
Co270 N292 2.282 . S
N271 Co270 1.995 . S
N271 C272 1.376 . S
N271 C275 1.383 . S
C272 N271 1.376 . S
C272 C273 1.446 . S
C272 C302 1.391 . S
C273 C272 1.446 . S
C273 C274 1.339 . S
C273 H308 0.949 . S
C274 C273 1.339 . S
C274 C275 1.439 . S
C274 H309 0.950 . S
C275 N271 1.383 . S
C275 C274 1.439 . S
C275 C304 1.392 . S
N276 Co270 2.008 . S
N276 C277 1.376 . S
N276 C280 1.374 . S
C277 N276 1.376 . S
C277 C278 1.443 . S
C277 C304 1.389 . S
C278 C277 1.443 . S
C278 C279 1.340 . S
C278 H310 0.951 . S
C279 C278 1.340 . S
C279 C280 1.439 . S
C279 H311 0.950 . S
C280 N276 1.374 . S
C280 C279 1.439 . S
C280 C305 1.395 . S
N281 Co270 1.995 . S
N281 C282 1.376 . S
N281 C285 1.383 1_455 S
C282 N281 1.376 . S
C282 C283 1.446 1_455 S
C282 C305 1.391 . S
C283 C282 1.446 1_655 S
C283 C284 1.339 . S
C283 H312 0.949 . S
C284 C283 1.339 . S
C284 C285 1.439 . S
C284 H313 0.950 . S
C285 N281 1.383 1_655 S
C285 C284 1.439 . S
C285 C303 1.392 . S
N286 Co270 2.282 1_655 S
N286 C289 1.332 . S
N286 C291 1.332 . S
C287 C288 1.386 . S
C287 C290 1.388 . S
C288 C287 1.386 . S
C288 C289 1.382 . S
C288 H314 0.950 . S
C289 N286 1.332 . S
C289 C288 1.382 . S
C289 H300 0.952 . S
C290 C287 1.388 . S
C290 C291 1.382 . S
C290 H315 0.950 . S
C291 N286 1.332 . S
C291 C290 1.382 . S
C291 H301 0.948 1_655 S
N292 Co270 2.282 . S
N292 C296 1.332 . S
N292 C297 1.332 . S
C293 C294 1.388 . S
C293 C297 1.382 . S
C293 H316 0.950 . S
C294 C293 1.388 . S
C294 C295 1.386 . S
C295 C294 1.386 . S
C295 C296 1.382 . S
C295 H317 0.950 . S
C296 N292 1.332 . S
C296 C295 1.382 . S
C296 H298 0.952 . S
C297 N292 1.332 . S
C297 C293 1.382 . S
C297 H299 0.948 . S
H298 C296 0.952 . S
H299 C297 0.948 . S
H300 C289 0.952 . S
H301 C291 0.948 1_455 S
C302 C268 1.395 . S
C302 C272 1.391 . S
C303 C265 1.389 . S
C303 C285 1.392 . S
C304 C275 1.392 . S
C304 C277 1.389 . S
C305 C280 1.395 . S
C305 C282 1.391 . S
H306 C266 0.951 . S
H307 C267 0.950 . S
H308 C273 0.949 . S
H309 C274 0.950 . S
H310 C278 0.951 . S
H311 C279 0.950 . S
H312 C283 0.949 . S
H313 C284 0.950 . S
H314 C288 0.950 . S
H315 C290 0.950 . S
H316 C293 0.950 . S
H317 C295 0.950 . S
C318 C319 1.443 . S
C318 N322 1.376 . S
C318 C356 1.389 . S
C319 C318 1.443 . S
C319 C320 1.340 . S
C319 H359 0.951 . S
C320 C319 1.340 . S
C320 C321 1.439 . S
C320 H360 0.950 . S
C321 C320 1.439 . S
C321 N322 1.374 . S
C321 C355 1.409 . S
N322 C318 1.376 . S
N322 C321 1.374 . S
N322 Co323 2.008 . S
Co323 N322 2.008 . S
Co323 N324 1.995 1_545 S
Co323 N329 2.008 1_545 S
Co323 N334 1.995 . S
Co323 N339 2.282 . S
Co323 N345 2.282 1_545 S
N324 Co323 1.995 1_565 S
N324 C325 1.376 . S
N324 C328 1.383 . S
C325 N324 1.376 . S
C325 C326 1.446 . S
C325 C355 1.379 1_565 S
C326 C325 1.446 . S
C326 C327 1.339 . S
C326 H361 0.949 . S
C327 C326 1.339 . S
C327 C328 1.439 . S
C327 H362 0.950 . S
C328 N324 1.383 . S
C328 C327 1.439 . S
C328 C357 1.392 . S
N329 Co323 2.008 1_565 S
N329 C330 1.376 . S
N329 C333 1.374 . S
C330 N329 1.376 . S
C330 C331 1.443 . S
C330 C357 1.389 . S
C331 C330 1.443 . S
C331 C332 1.340 . S
C331 H363 0.951 . S
C332 C331 1.340 . S
C332 C333 1.439 . S
C332 H364 0.950 . S
C333 N329 1.374 . S
C333 C332 1.439 . S
C333 C358 1.395 1_565 S
N334 Co323 1.995 . S
N334 C335 1.376 . S
N334 C338 1.383 . S
C335 N334 1.376 . S
C335 C336 1.446 . S
C335 C358 1.391 . S
C336 C335 1.446 . S
C336 C337 1.339 . S
C336 H365 0.949 . S
C337 C336 1.339 . S
C337 C338 1.439 . S
C337 H366 0.950 . S
C338 N334 1.383 . S
C338 C337 1.439 . S
C338 C356 1.392 . S
N339 Co323 2.282 . S
N339 C342 1.332 . S
N339 C344 1.332 . S
C340 C341 1.386 . S
C340 C343 1.388 . S
C341 C340 1.386 . S
C341 C342 1.382 . S
C341 H367 0.950 . S
C342 N339 1.332 . S
C342 C341 1.382 . S
C342 H353 0.952 . S
C343 C340 1.388 . S
C343 C344 1.382 . S
C343 H368 0.950 . S
C344 N339 1.332 . S
C344 C343 1.382 . S
C344 H354 0.948 . S
N345 Co323 2.282 1_565 S
N345 C349 1.332 . S
N345 C350 1.332 . S
C346 C347 1.388 . S
C346 C350 1.382 . S
C346 H369 0.950 . S
C347 C346 1.388 . S
C347 C348 1.386 . S
C348 C347 1.386 . S
C348 C349 1.382 . S
C348 H370 0.950 . S
C349 N345 1.332 . S
C349 C348 1.382 . S
C349 H351 0.952 . S
C350 N345 1.332 . S
C350 C346 1.382 . S
C350 H352 0.948 . S
H351 C349 0.952 . S
H352 C350 0.948 . S
H353 C342 0.952 . S
H354 C344 0.948 . S
C355 C321 1.409 . S
C355 C325 1.379 1_545 S
C356 C318 1.389 . S
C356 C338 1.392 . S
C357 C328 1.392 . S
C357 C330 1.389 . S
C358 C333 1.395 1_545 S
C358 C335 1.391 . S
H359 C319 0.951 . S
H360 C320 0.950 . S
H361 C326 0.949 . S
H362 C327 0.950 . S
H363 C331 0.951 . S
H364 C332 0.950 . S
H365 C336 0.949 . S
H366 C337 0.950 . S
H367 C341 0.950 . S
H368 C343 0.950 . S
H369 C346 0.950 . S
H370 C348 0.950 . S
C371 C372 1.443 . S
C371 N375 1.376 1_655 S
C371 C409 1.389 . S
C372 C371 1.443 . S
C372 C373 1.340 . S
C372 H412 0.951 . S
C373 C372 1.340 . S
C373 C374 1.439 1_655 S
C373 H413 0.950 . S
C374 C373 1.439 1_455 S
C374 N375 1.374 . S
C374 C408 1.395 . S
N375 C371 1.376 1_455 S
N375 C374 1.374 . S
N375 Co376 2.008 . S
Co376 N375 2.008 . S
Co376 N377 1.995 . S
Co376 N382 2.008 . S
Co376 N387 1.995 . S
Co376 N392 2.282 1_455 S
Co376 N398 2.282 . S
N377 Co376 1.995 . S
N377 C378 1.376 . S
N377 C381 1.383 . S
C378 N377 1.376 . S
C378 C379 1.446 . S
C378 C408 1.391 . S
C379 C378 1.446 . S
C379 C380 1.339 . S
C379 H414 0.949 . S
C380 C379 1.339 . S
C380 C381 1.439 . S
C380 H415 0.950 . S
C381 N377 1.383 . S
C381 C380 1.439 . S
C381 C410 1.392 . S
N382 Co376 2.008 . S
N382 C383 1.376 . S
N382 C386 1.374 . S
C383 N382 1.376 . S
C383 C384 1.443 . S
C383 C410 1.389 . S
C384 C383 1.443 . S
C384 C385 1.340 . S
C384 H416 0.951 . S
C385 C384 1.340 . S
C385 C386 1.439 . S
C385 H417 0.950 . S
C386 N382 1.374 . S
C386 C385 1.439 . S
C386 C411 1.395 . S
N387 Co376 1.995 . S
N387 C388 1.376 . S
N387 C391 1.383 1_455 S
C388 N387 1.376 . S
C388 C389 1.446 1_455 S
C388 C411 1.391 . S
C389 C388 1.446 1_655 S
C389 C390 1.339 . S
C389 H418 0.949 . S
C390 C389 1.339 . S
C390 C391 1.439 . S
C390 H419 0.950 . S
C391 N387 1.383 1_655 S
C391 C390 1.439 . S
C391 C409 1.392 . S
N392 Co376 2.282 1_655 S
N392 C395 1.332 . S
N392 C397 1.332 . S
C393 C394 1.386 . S
C393 C396 1.388 . S
C394 C393 1.386 . S
C394 C395 1.382 . S
C394 H420 0.950 . S
C395 N392 1.332 . S
C395 C394 1.382 . S
C395 H406 0.952 . S
C396 C393 1.388 . S
C396 C397 1.382 . S
C396 H421 0.950 . S
C397 N392 1.332 . S
C397 C396 1.382 . S
C397 H407 0.957 . S
N398 Co376 2.282 . S
N398 C402 1.332 . S
N398 C403 1.332 . S
C399 C400 1.388 . S
C399 C403 1.382 . S
C399 H422 0.950 . S
C400 C399 1.388 . S
C400 C401 1.386 . S
C401 C400 1.386 . S
C401 C402 1.382 . S
C401 H423 0.950 . S
C402 N398 1.332 . S
C402 C401 1.382 . S
C402 H404 0.952 . S
C403 N398 1.332 . S
C403 C399 1.382 . S
C403 H405 0.948 . S
H404 C402 0.952 . S
H405 C403 0.948 . S
H406 C395 0.952 . S
H407 C397 0.957 . S
C408 C374 1.395 . S
C408 C378 1.391 . S
C409 C371 1.389 . S
C409 C391 1.392 . S
C410 C381 1.392 . S
C410 C383 1.389 . S
C411 C386 1.395 . S
C411 C388 1.391 . S
H412 C372 0.951 . S
H413 C373 0.950 . S
H414 C379 0.949 . S
H415 C380 0.950 . S
H416 C384 0.951 . S
H417 C385 0.950 . S
H418 C389 0.949 . S
H419 C390 0.950 . S
H420 C394 0.950 . S
H421 C396 0.950 . S
H422 C399 0.950 . S
H423 C401 0.950 . S
C424 C425 1.443 . S
C424 N428 1.376 . S
C424 C462 1.389 . S
C425 C424 1.443 . S
C425 C426 1.340 . S
C425 H465 0.951 . S
C426 C425 1.340 . S
C426 C427 1.439 . S
C426 H466 0.950 . S
C427 C426 1.439 . S
C427 N428 1.374 . S
C427 C461 1.395 1_554 S
N428 C424 1.376 . S
N428 C427 1.374 . S
N428 Co429 2.024 . S
Co429 N428 2.024 . S
Co429 N430 1.974 1_554 S
Co429 N435 1.993 1_554 S
Co429 N440 2.016 . S
Co429 N445 2.307 . S
Co429 N451 2.258 1_554 S
N430 Co429 1.974 1_556 S
N430 C431 1.376 . S
N430 C434 1.383 . S
C431 N430 1.376 . S
C431 C432 1.446 . S
C431 C461 1.391 . S
C432 C431 1.446 . S
C432 C433 1.339 . S
C432 H467 0.949 . S
C433 C432 1.339 . S
C433 C434 1.439 . S
C433 H468 0.950 . S
C434 N430 1.383 . S
C434 C433 1.439 . S
C434 C463 1.392 . S
N435 Co429 1.993 1_556 S
N435 C436 1.376 . S
N435 C439 1.374 . S
C436 N435 1.376 . S
C436 C437 1.443 . S
C436 C463 1.389 . S
C437 C436 1.443 . S
C437 C438 1.340 . S
C437 H469 0.951 . S
C438 C437 1.340 . S
C438 C439 1.439 . S
C438 H470 0.950 . S
C439 N435 1.374 . S
C439 C438 1.439 . S
C439 C464 1.395 1_556 S
N440 Co429 2.016 . S
N440 C441 1.376 . S
N440 C444 1.383 . S
C441 N440 1.376 . S
C441 C442 1.446 . S
C441 C464 1.391 . S
C442 C441 1.446 . S
C442 C443 1.339 . S
C442 H471 0.949 . S
C443 C442 1.339 . S
C443 C444 1.439 . S
C443 H472 0.950 . S
C444 N440 1.383 . S
C444 C443 1.439 . S
C444 C462 1.392 . S
N445 Co429 2.307 . S
N445 C448 1.332 . S
N445 C450 1.332 . S
C446 C447 1.386 . S
C446 C449 1.388 . S
C447 C446 1.386 . S
C447 C448 1.382 . S
C447 H473 0.950 . S
C448 N445 1.332 . S
C448 C447 1.382 . S
C448 H459 0.952 . S
C449 C446 1.388 . S
C449 C450 1.382 . S
C449 H474 0.950 . S
C450 N445 1.332 . S
C450 C449 1.382 . S
C450 H460 0.948 . S
N451 Co429 2.258 1_556 S
N451 C455 1.332 . S
N451 C456 1.332 . S
C452 C453 1.388 . S
C452 C456 1.382 . S
C452 H475 0.950 . S
C453 C452 1.388 . S
C453 C454 1.386 . S
C454 C453 1.386 . S
C454 C455 1.382 . S
C454 H476 0.950 . S
C455 N451 1.332 . S
C455 C454 1.382 . S
C455 H457 0.952 . S
C456 N451 1.332 . S
C456 C452 1.382 . S
C456 H458 0.948 . S
H457 C455 0.952 . S
H458 C456 0.948 . S
H459 C448 0.952 . S
H460 C450 0.948 . S
C461 C427 1.395 1_556 S
C461 C431 1.391 . S
C462 C424 1.389 . S
C462 C444 1.392 . S
C463 C434 1.392 . S
C463 C436 1.389 . S
C464 C439 1.395 1_554 S
C464 C441 1.391 . S
H465 C425 0.951 . S
H466 C426 0.950 . S
H467 C432 0.949 . S
H468 C433 0.950 . S
H469 C437 0.951 . S
H470 C438 0.950 . S
H471 C442 0.949 . S
H472 C443 0.950 . S
H473 C447 0.950 . S
H474 C449 0.950 . S
H475 C452 0.950 . S
H476 C454 0.950 . S
C477 C478 1.443 . S
C477 N481 1.376 . S
C477 C515 1.389 . S
C478 C477 1.443 . S
C478 C479 1.340 . S
C478 H518 0.951 . S
C479 C478 1.340 . S
C479 C480 1.439 . S
C479 H519 0.950 . S
C480 C479 1.439 . S
C480 N481 1.374 . S
C480 C514 1.395 . S
N481 C477 1.376 . S
N481 C480 1.374 . S
N481 Co482 2.008 . S
Co482 N481 2.008 . S
Co482 N483 2.018 . S
Co482 N488 2.008 . S
Co482 N493 1.995 . S
Co482 N498 2.282 . S
Co482 N504 2.282 1_554 S
N483 Co482 2.018 . S
N483 C484 1.381 . S
N483 C487 1.356 1_554 S
C484 N483 1.381 . S
C484 C485 1.446 1_554 S
C484 C514 1.391 . S
C485 C484 1.446 1_556 S
C485 C486 1.339 . S
C485 H520 0.949 . S
C486 C485 1.339 . S
C486 C487 1.439 . S
C486 H521 0.950 . S
C487 N483 1.356 1_556 S
C487 C486 1.439 . S
C487 C516 1.392 . S
N488 Co482 2.008 . S
N488 C489 1.376 1_554 S
N488 C492 1.374 . S
C489 N488 1.376 1_556 S
C489 C490 1.443 . S
C489 C516 1.389 . S
C490 C489 1.443 . S
C490 C491 1.340 . S
C490 H522 0.951 . S
C491 C490 1.340 . S
C491 C492 1.439 1_556 S
C491 H523 0.950 . S
C492 N488 1.374 . S
C492 C491 1.439 1_554 S
C492 C517 1.395 . S
N493 Co482 1.995 . S
N493 C494 1.376 . S
N493 C497 1.383 . S
C494 N493 1.376 . S
C494 C495 1.446 . S
C494 C517 1.391 . S
C495 C494 1.446 . S
C495 C496 1.339 . S
C495 H524 0.949 . S
C496 C495 1.339 . S
C496 C497 1.439 . S
C496 H525 0.950 . S
C497 N493 1.383 . S
C497 C496 1.439 . S
C497 C515 1.392 . S
N498 Co482 2.282 . S
N498 C501 1.332 . S
N498 C503 1.332 . S
C499 C500 1.386 . S
C499 C502 1.388 . S
C500 C499 1.386 . S
C500 C501 1.382 . S
C500 H526 0.950 . S
C501 N498 1.332 . S
C501 C500 1.382 . S
C501 H512 0.952 . S
C502 C499 1.388 . S
C502 C503 1.382 . S
C502 H527 0.950 . S
C503 N498 1.332 . S
C503 C502 1.382 . S
C503 H513 0.948 . S
N504 Co482 2.282 1_556 S
N504 C508 1.332 . S
N504 C509 1.332 . S
C505 C506 1.388 . S
C505 C509 1.382 . S
C505 H528 0.950 . S
C506 C505 1.388 . S
C506 C507 1.386 . S
C507 C506 1.386 . S
C507 C508 1.382 . S
C507 H529 0.950 . S
C508 N504 1.332 . S
C508 C507 1.382 . S
C508 H510 0.952 . S
C509 N504 1.332 . S
C509 C505 1.382 . S
C509 H511 0.948 . S
H510 C508 0.952 . S
H511 C509 0.948 . S
H512 C501 0.952 . S
H513 C503 0.948 . S
C514 C480 1.395 . S
C514 C484 1.391 . S
C515 C477 1.389 . S
C515 C497 1.392 . S
C516 C487 1.392 . S
C516 C489 1.389 . S
C517 C492 1.395 . S
C517 C494 1.391 . S
H518 C478 0.951 . S
H519 C479 0.950 . S
H520 C485 0.949 . S
H521 C486 0.950 . S
H522 C490 0.951 . S
H523 C491 0.950 . S
H524 C495 0.949 . S
H525 C496 0.950 . S
H526 C500 0.950 . S
H527 C502 0.950 . S
H528 C505 0.950 . S
H529 C507 0.950 . S
C530 C531 1.443 . S
C530 N534 1.376 . S
C530 C568 1.389 . S
C531 C530 1.443 . S
C531 C532 1.340 . S
C531 H571 0.951 . S
C532 C531 1.340 . S
C532 C533 1.439 . S
C532 H572 0.950 . S
C533 C532 1.439 . S
C533 N534 1.374 . S
C533 C567 1.395 . S
N534 C530 1.376 . S
N534 C533 1.374 . S
N534 Co535 2.008 . S
Co535 N534 2.008 . S
Co535 N536 1.995 . S
Co535 N541 2.008 . S
Co535 N546 1.995 . S
Co535 N551 2.282 . S
Co535 N557 2.282 . S
N536 Co535 1.995 . S
N536 C537 1.376 . S
N536 C540 1.383 1_554 S
C537 N536 1.376 . S
C537 C538 1.446 1_554 S
C537 C567 1.391 . S
C538 C537 1.446 1_556 S
C538 C539 1.339 . S
C538 H573 0.949 . S
C539 C538 1.339 . S
C539 C540 1.439 . S
C539 H574 0.950 . S
C540 N536 1.383 1_556 S
C540 C539 1.439 . S
C540 C569 1.392 . S
N541 Co535 2.008 . S
N541 C542 1.376 . S
N541 C545 1.374 . S
C542 N541 1.376 . S
C542 C543 1.443 . S
C542 C569 1.389 1_554 S
C543 C542 1.443 . S
C543 C544 1.340 . S
C543 H575 0.951 1_554 S
C544 C543 1.340 . S
C544 C545 1.439 . S
C544 H576 0.950 . S
C545 N541 1.374 . S
C545 C544 1.439 . S
C545 C570 1.395 . S
N546 Co535 1.995 . S
N546 C547 1.376 . S
N546 C550 1.383 . S
C547 N546 1.376 . S
C547 C548 1.446 . S
C547 C570 1.391 . S
C548 C547 1.446 . S
C548 C549 1.339 . S
C548 H577 0.949 . S
C549 C548 1.339 . S
C549 C550 1.439 . S
C549 H578 0.950 . S
C550 N546 1.383 . S
C550 C549 1.439 . S
C550 C568 1.392 . S
N551 Co535 2.282 . S
N551 C554 1.332 . S
N551 C556 1.332 . S
C552 C553 1.386 . S
C552 C555 1.388 . S
C553 C552 1.386 . S
C553 C554 1.382 . S
C553 H579 0.950 . S
C554 N551 1.332 . S
C554 C553 1.382 . S
C554 H565 0.952 . S
C555 C552 1.388 . S
C555 C556 1.382 . S
C555 H580 0.950 . S
C556 N551 1.332 . S
C556 C555 1.382 . S
C556 H566 0.948 . S
N557 Co535 2.282 . S
N557 C561 1.332 1_554 S
N557 C562 1.332 . S
C558 C559 1.388 . S
C558 C562 1.382 1_556 S
C558 H581 0.950 . S
C559 C558 1.388 . S
C559 C560 1.386 . S
C560 C559 1.386 . S
C560 C561 1.382 . S
C560 H582 0.950 . S
C561 N557 1.332 1_556 S
C561 C560 1.382 . S
C561 H563 0.952 . S
C562 N557 1.332 . S
C562 C558 1.382 1_554 S
C562 H564 0.948 . S
H563 C561 0.952 . S
H564 C562 0.948 . S
H565 C554 0.952 . S
H566 C556 0.948 . S
C567 C533 1.395 . S
C567 C537 1.391 . S
C568 C530 1.389 . S
C568 C550 1.392 . S
C569 C540 1.392 . S
C569 C542 1.389 1_556 S
C570 C545 1.395 . S
C570 C547 1.391 . S
H571 C531 0.951 . S
H572 C532 0.950 . S
H573 C538 0.949 . S
H574 C539 0.950 . S
H575 C543 0.951 1_556 S
H576 C544 0.950 . S
H577 C548 0.949 . S
H578 C549 0.950 . S
H579 C553 0.950 . S
H580 C555 0.950 . S
H581 C558 0.950 . S
H582 C560 0.950 . S
C583 C584 1.443 . S
C583 N587 1.376 . S
C583 C621 1.389 1_554 S
C584 C583 1.443 . S
C584 C585 1.340 . S
C584 H624 0.951 1_554 S
C585 C584 1.340 . S
C585 C586 1.439 . S
C585 H625 0.950 . S
C586 C585 1.439 . S
C586 N587 1.374 . S
C586 C620 1.395 . S
N587 C583 1.376 . S
N587 C586 1.374 . S
N587 Co588 2.008 . S
Co588 N587 2.008 . S
Co588 N589 1.995 . S
Co588 N594 2.008 . S
Co588 N599 1.995 . S
Co588 N604 2.282 . S
Co588 N610 2.282 . S
N589 Co588 1.995 . S
N589 C590 1.376 . S
N589 C593 1.383 . S
C590 N589 1.376 . S
C590 C591 1.446 . S
C590 C620 1.391 . S
C591 C590 1.446 . S
C591 C592 1.339 . S
C591 H626 0.949 . S
C592 C591 1.339 . S
C592 C593 1.439 . S
C592 H627 0.950 . S
C593 N589 1.383 . S
C593 C592 1.439 . S
C593 C622 1.392 . S
N594 Co588 2.008 . S
N594 C595 1.376 . S
N594 C598 1.374 . S
C595 N594 1.376 . S
C595 C596 1.443 . S
C595 C622 1.389 . S
C596 C595 1.443 . S
C596 C597 1.340 . S
C596 H628 0.951 . S
C597 C596 1.340 . S
C597 C598 1.439 . S
C597 H629 0.950 . S
C598 N594 1.374 . S
C598 C597 1.439 . S
C598 C623 1.395 . S
N599 Co588 1.995 . S
N599 C600 1.376 . S
N599 C603 1.380 1_554 S
C600 N599 1.376 . S
C600 C601 1.446 1_554 S
C600 C623 1.391 . S
C601 C600 1.446 1_556 S
C601 C602 1.339 . S
C601 H630 0.949 . S
C602 C601 1.339 . S
C602 C603 1.441 . S
C602 H631 0.950 . S
C603 N599 1.380 1_556 S
C603 C602 1.441 . S
C603 C621 1.393 . S
N604 Co588 2.282 . S
N604 C607 1.332 1_554 S
N604 C609 1.332 . S
C605 C606 1.386 . S
C605 C608 1.388 . S
C606 C605 1.386 . S
C606 C607 1.382 . S
C606 H632 0.950 . S
C607 N604 1.332 1_556 S
C607 C606 1.382 . S
C607 H618 0.952 . S
C608 C605 1.388 . S
C608 C609 1.382 1_556 S
C608 H633 0.950 . S
C609 N604 1.332 . S
C609 C608 1.382 1_554 S
C609 H619 0.948 . S
N610 Co588 2.282 . S
N610 C614 1.332 . S
N610 C615 1.332 . S
C611 C612 1.388 . S
C611 C615 1.382 . S
C611 H634 0.950 . S
C612 C611 1.388 . S
C612 C613 1.386 . S
C613 C612 1.386 . S
C613 C614 1.382 . S
C613 H635 0.950 . S
C614 N610 1.332 . S
C614 C613 1.382 . S
C614 H616 0.952 . S
C615 N610 1.332 . S
C615 C611 1.382 . S
C615 H617 0.948 . S
H616 C614 0.952 . S
H617 C615 0.948 . S
H618 C607 0.952 . S
H619 C609 0.948 . S
C620 C586 1.395 . S
C620 C590 1.391 . S
C621 C583 1.389 1_556 S
C621 C603 1.393 . S
C622 C593 1.392 . S
C622 C595 1.389 . S
C623 C598 1.395 . S
C623 C600 1.391 . S
H624 C584 0.951 1_556 S
H625 C585 0.950 . S
H626 C591 0.949 . S
H627 C592 0.950 . S
H628 C596 0.951 . S
H629 C597 0.950 . S
H630 C601 0.949 . S
H631 C602 0.950 . S
H632 C606 0.950 . S
H633 C608 0.950 . S
H634 C611 0.950 . S
H635 C613 0.950 . S
C636 C637 1.443 . S
C636 N640 1.376 . S
C636 C674 1.389 . S
C637 C636 1.443 . S
C637 C638 1.340 . S
C637 H677 0.951 . S
C638 C637 1.340 . S
C638 C639 1.439 . S
C638 H678 0.950 . S
C639 C638 1.439 . S
C639 N640 1.374 . S
C639 C673 1.395 . S
N640 C636 1.376 . S
N640 C639 1.374 . S
N640 Co641 2.008 . S
Co641 N640 2.008 . S
Co641 N642 1.995 . S
Co641 N647 2.008 . S
Co641 N652 1.995 . S
Co641 N657 2.282 . S
Co641 N663 2.282 . S
N642 Co641 1.995 . S
N642 C643 1.376 . S
N642 C646 1.383 . S
C643 N642 1.376 . S
C643 C644 1.446 . S
C643 C673 1.391 . S
C644 C643 1.446 . S
C644 C645 1.339 . S
C644 H679 0.949 . S
C645 C644 1.339 . S
C645 C646 1.439 . S
C645 H680 0.950 . S
C646 N642 1.383 . S
C646 C645 1.439 . S
C646 C675 1.392 . S
N647 Co641 2.008 . S
N647 C648 1.376 . S
N647 C651 1.374 . S
C648 N647 1.376 . S
C648 C649 1.443 . S
C648 C675 1.389 . S
C649 C648 1.443 . S
C649 C650 1.340 . S
C649 H681 0.951 . S
C650 C649 1.340 . S
C650 C651 1.439 . S
C650 H682 0.950 . S
C651 N647 1.374 . S
C651 C650 1.439 . S
C651 C676 1.395 . S
N652 Co641 1.995 . S
N652 C653 1.376 . S
N652 C656 1.383 . S
C653 N652 1.376 . S
C653 C654 1.446 . S
C653 C676 1.391 . S
C654 C653 1.446 . S
C654 C655 1.339 . S
C654 H683 0.949 . S
C655 C654 1.339 . S
C655 C656 1.439 . S
C655 H684 0.950 . S
C656 N652 1.383 . S
C656 C655 1.439 . S
C656 C674 1.392 . S
N657 Co641 2.282 . S
N657 C660 1.332 . S
N657 C662 1.332 . S
C658 C659 1.386 . S
C658 C661 1.388 . S
C659 C658 1.386 . S
C659 C660 1.382 . S
C659 H685 0.950 . S
C660 N657 1.332 . S
C660 C659 1.382 . S
C660 H671 0.952 . S
C661 C658 1.388 . S
C661 C662 1.382 . S
C661 H686 0.950 . S
C662 N657 1.332 . S
C662 C661 1.382 . S
C662 H672 0.948 . S
N663 Co641 2.282 . S
N663 C667 1.332 . S
N663 C668 1.332 . S
C664 C665 1.388 . S
C664 C668 1.382 . S
C664 H687 0.950 . S
C665 C664 1.388 . S
C665 C666 1.386 . S
C666 C665 1.386 . S
C666 C667 1.382 . S
C666 H688 0.950 . S
C667 N663 1.332 . S
C667 C666 1.382 . S
C667 H669 0.952 . S
C668 N663 1.332 . S
C668 C664 1.382 . S
C668 H670 0.948 . S
H669 C667 0.952 . S
H670 C668 0.948 . S
H671 C660 0.952 . S
H672 C662 0.948 . S
C673 C639 1.395 . S
C673 C643 1.391 . S
C674 C636 1.389 . S
C674 C656 1.392 . S
C675 C646 1.392 . S
C675 C648 1.389 . S
C676 C651 1.395 . S
C676 C653 1.391 . S
H677 C637 0.951 . S
H678 C638 0.950 . S
H679 C644 0.949 . S
H680 C645 0.950 . S
H681 C649 0.951 . S
H682 C650 0.950 . S
H683 C654 0.949 . S
H684 C655 0.950 . S
H685 C659 0.950 . S
H686 C661 0.950 . S
H687 C664 0.950 . S
H688 C666 0.950 . S
C689 C690 1.443 . S
C689 N693 1.376 . S
C689 C727 1.389 . S
C690 C689 1.443 . S
C690 C691 1.340 . S
C690 H730 0.951 . S
C691 C690 1.340 . S
C691 C692 1.439 . S
C691 H731 0.950 . S
C692 C691 1.439 . S
C692 N693 1.374 . S
C692 C726 1.395 . S
N693 C689 1.376 . S
N693 C692 1.374 . S
N693 Co694 2.008 . S
Co694 N693 2.008 . S
Co694 N695 1.995 . S
Co694 N700 2.008 . S
Co694 N705 1.995 . S
Co694 N710 2.282 . S
Co694 N716 2.282 . S
N695 Co694 1.995 . S
N695 C696 1.376 . S
N695 C699 1.383 . S
C696 N695 1.376 . S
C696 C697 1.446 . S
C696 C726 1.391 . S
C697 C696 1.446 . S
C697 C698 1.339 . S
C697 H732 0.949 . S
C698 C697 1.339 . S
C698 C699 1.439 . S
C698 H733 0.950 . S
C699 N695 1.383 . S
C699 C698 1.439 . S
C699 C728 1.392 . S
N700 Co694 2.008 . S
N700 C701 1.376 . S
N700 C704 1.374 . S
C701 N700 1.376 . S
C701 C702 1.443 . S
C701 C728 1.389 . S
C702 C701 1.443 . S
C702 C703 1.340 . S
C702 H734 0.951 . S
C703 C702 1.340 . S
C703 C704 1.439 . S
C703 H735 0.950 . S
C704 N700 1.374 . S
C704 C703 1.439 . S
C704 C729 1.395 . S
N705 Co694 1.995 . S
N705 C706 1.376 . S
N705 C709 1.383 . S
C706 N705 1.376 . S
C706 C707 1.446 . S
C706 C729 1.391 . S
C707 C706 1.446 . S
C707 C708 1.339 . S
C707 H736 0.949 . S
C708 C707 1.339 . S
C708 C709 1.439 . S
C708 H737 0.950 . S
C709 N705 1.383 . S
C709 C708 1.439 . S
C709 C727 1.392 . S
N710 Co694 2.282 . S
N710 C713 1.332 . S
N710 C715 1.332 . S
C711 C712 1.386 . S
C711 C714 1.388 . S
C712 C711 1.386 . S
C712 C713 1.382 . S
C712 H738 0.950 . S
C713 N710 1.332 . S
C713 C712 1.382 . S
C713 H724 0.952 . S
C714 C711 1.388 . S
C714 C715 1.382 . S
C714 H739 0.950 . S
C715 N710 1.332 . S
C715 C714 1.382 . S
C715 H725 0.948 . S
N716 Co694 2.282 . S
N716 C720 1.332 . S
N716 C721 1.332 . S
C717 C718 1.388 . S
C717 C721 1.382 . S
C717 H740 0.950 . S
C718 C717 1.388 . S
C718 C719 1.386 . S
C719 C718 1.386 . S
C719 C720 1.382 . S
C719 H741 0.950 . S
C720 N716 1.332 . S
C720 C719 1.382 . S
C720 H722 0.952 . S
C721 N716 1.332 . S
C721 C717 1.382 . S
C721 H723 0.948 . S
H722 C720 0.952 . S
H723 C721 0.948 . S
H724 C713 0.952 . S
H725 C715 0.948 . S
C726 C692 1.395 . S
C726 C696 1.391 . S
C727 C689 1.389 . S
C727 C709 1.392 . S
C728 C699 1.392 . S
C728 C701 1.389 . S
C729 C704 1.395 . S
C729 C706 1.391 . S
H730 C690 0.951 . S
H731 C691 0.950 . S
H732 C697 0.949 . S
H733 C698 0.950 . S
H734 C702 0.951 . S
H735 C703 0.950 . S
H736 C707 0.949 . S
H737 C708 0.950 . S
H738 C712 0.950 . S
H739 C714 0.950 . S
H740 C717 0.950 . S
H741 C719 0.950 . S
C742 C743 1.443 . S
C742 N746 1.376 . S
C742 C780 1.389 . S
C743 C742 1.443 . S
C743 C744 1.340 . S
C743 H783 0.951 . S
C744 C743 1.340 . S
C744 C745 1.439 . S
C744 H784 0.950 . S
C745 C744 1.439 . S
C745 N746 1.374 . S
C745 C779 1.395 . S
N746 C742 1.376 . S
N746 C745 1.374 . S
N746 Co747 2.008 . S
Co747 N746 2.008 . S
Co747 N748 1.995 . S
Co747 N753 2.008 . S
Co747 N758 1.995 . S
Co747 N763 2.282 . S
Co747 N769 2.282 . S
N748 Co747 1.995 . S
N748 C749 1.376 . S
N748 C752 1.383 . S
C749 N748 1.376 . S
C749 C750 1.446 . S
C749 C779 1.391 . S
C750 C749 1.446 . S
C750 C751 1.339 . S
C750 H785 0.949 . S
C751 C750 1.339 . S
C751 C752 1.439 . S
C751 H786 0.950 . S
C752 N748 1.383 . S
C752 C751 1.439 . S
C752 C781 1.392 . S
N753 Co747 2.008 . S
N753 C754 1.376 . S
N753 C757 1.374 . S
C754 N753 1.376 . S
C754 C755 1.443 . S
C754 C781 1.389 . S
C755 C754 1.443 . S
C755 C756 1.340 . S
C755 H787 0.951 . S
C756 C755 1.340 . S
C756 C757 1.439 . S
C756 H788 0.950 . S
C757 N753 1.374 . S
C757 C756 1.439 . S
C757 C782 1.395 . S
N758 Co747 1.995 . S
N758 C759 1.376 . S
N758 C762 1.383 . S
C759 N758 1.376 . S
C759 C760 1.446 . S
C759 C782 1.391 . S
C760 C759 1.446 . S
C760 C761 1.339 . S
C760 H789 0.949 . S
C761 C760 1.339 . S
C761 C762 1.439 . S
C761 H790 0.950 . S
C762 N758 1.383 . S
C762 C761 1.439 . S
C762 C780 1.392 . S
N763 Co747 2.282 . S
N763 C766 1.332 . S
N763 C768 1.332 . S
C764 C765 1.386 . S
C764 C767 1.388 . S
C765 C764 1.386 . S
C765 C766 1.382 . S
C765 H791 0.950 . S
C766 N763 1.332 . S
C766 C765 1.382 . S
C766 H777 0.952 . S
C767 C764 1.388 . S
C767 C768 1.382 . S
C767 H792 0.950 . S
C768 N763 1.332 . S
C768 C767 1.382 . S
C768 H778 0.948 . S
N769 Co747 2.282 . S
N769 C773 1.332 . S
N769 C774 1.332 . S
C770 C771 1.388 . S
C770 C774 1.382 . S
C770 H793 0.950 . S
C771 C770 1.388 . S
C771 C772 1.386 . S
C772 C771 1.386 . S
C772 C773 1.382 . S
C772 H794 0.950 . S
C773 N769 1.332 . S
C773 C772 1.382 . S
C773 H775 0.952 . S
C774 N769 1.332 . S
C774 C770 1.382 . S
C774 H776 0.948 . S
H775 C773 0.952 . S
H776 C774 0.948 . S
H777 C766 0.952 . S
H778 C768 0.948 . S
C779 C745 1.395 . S
C779 C749 1.391 . S
C780 C742 1.389 . S
C780 C762 1.392 . S
C781 C752 1.392 . S
C781 C754 1.389 . S
C782 C757 1.395 . S
C782 C759 1.391 . S
H783 C743 0.951 . S
H784 C744 0.950 . S
H785 C750 0.949 . S
H786 C751 0.950 . S
H787 C755 0.951 . S
H788 C756 0.950 . S
H789 C760 0.949 . S
H790 C761 0.950 . S
H791 C765 0.950 . S
H792 C767 0.950 . S
H793 C770 0.950 . S
H794 C772 0.950 . S
C795 C796 1.443 . S
C795 N799 1.376 . S
C795 C833 1.389 . S
C796 C795 1.443 . S
C796 C797 1.340 . S
C796 H836 0.951 . S
C797 C796 1.340 . S
C797 C798 1.439 . S
C797 H837 0.950 . S
C798 C797 1.439 . S
C798 N799 1.374 . S
C798 C832 1.395 . S
N799 C795 1.376 . S
N799 C798 1.374 . S
N799 Co800 2.008 . S
Co800 N799 2.008 . S
Co800 N801 1.995 . S
Co800 N806 2.008 . S
Co800 N811 1.995 . S
Co800 N816 2.282 . S
Co800 N822 2.282 . S
N801 Co800 1.995 . S
N801 C802 1.376 . S
N801 C805 1.383 . S
C802 N801 1.376 . S
C802 C803 1.446 . S
C802 C832 1.391 . S
C803 C802 1.446 . S
C803 C804 1.339 . S
C803 H838 0.949 . S
C804 C803 1.339 . S
C804 C805 1.439 . S
C804 H839 0.950 . S
C805 N801 1.383 . S
C805 C804 1.439 . S
C805 C834 1.392 . S
N806 Co800 2.008 . S
N806 C807 1.376 . S
N806 C810 1.374 . S
C807 N806 1.376 . S
C807 C808 1.443 . S
C807 C834 1.389 . S
C808 C807 1.443 . S
C808 C809 1.340 . S
C808 H840 0.951 . S
C809 C808 1.340 . S
C809 C810 1.439 . S
C809 H841 0.950 . S
C810 N806 1.374 . S
C810 C809 1.439 . S
C810 C835 1.395 . S
N811 Co800 1.995 . S
N811 C812 1.376 . S
N811 C815 1.383 . S
C812 N811 1.376 . S
C812 C813 1.446 . S
C812 C835 1.391 . S
C813 C812 1.446 . S
C813 C814 1.339 . S
C813 H842 0.949 . S
C814 C813 1.339 . S
C814 C815 1.439 . S
C814 H843 0.950 . S
C815 N811 1.383 . S
C815 C814 1.439 . S
C815 C833 1.392 . S
N816 Co800 2.282 . S
N816 C819 1.332 . S
N816 C821 1.332 . S
C817 C818 1.386 . S
C817 C820 1.388 . S
C818 C817 1.386 . S
C818 C819 1.382 . S
C818 H844 0.950 . S
C819 N816 1.332 . S
C819 C818 1.382 . S
C819 H830 0.952 . S
C820 C817 1.388 . S
C820 C821 1.382 . S
C820 H845 0.950 . S
C821 N816 1.332 . S
C821 C820 1.382 . S
C821 H831 0.948 . S
N822 Co800 2.282 . S
N822 C826 1.332 . S
N822 C827 1.332 . S
C823 C824 1.388 . S
C823 C827 1.382 . S
C823 H846 0.950 . S
C824 C823 1.388 . S
C824 C825 1.386 . S
C825 C824 1.386 . S
C825 C826 1.382 . S
C825 H847 0.950 . S
C826 N822 1.332 . S
C826 C825 1.382 . S
C826 H828 0.952 . S
C827 N822 1.332 . S
C827 C823 1.382 . S
C827 H829 0.948 . S
H828 C826 0.952 . S
H829 C827 0.948 . S
H830 C819 0.952 . S
H831 C821 0.948 . S
C832 C798 1.395 . S
C832 C802 1.391 . S
C833 C795 1.389 . S
C833 C815 1.392 . S
C834 C805 1.392 . S
C834 C807 1.389 . S
C835 C810 1.395 . S
C835 C812 1.391 . S
H836 C796 0.951 . S
H837 C797 0.950 . S
H838 C803 0.949 . S
H839 C804 0.950 . S
H840 C808 0.951 . S
H841 C809 0.950 . S
H842 C813 0.949 . S
H843 C814 0.950 . S
H844 C818 0.950 . S
H845 C820 0.950 . S
H846 C823 0.950 . S
H847 C825 0.950 . S
C848 C849 1.443 . S
C848 N852 1.376 . S
C848 C886 1.389 . S
C849 C848 1.443 . S
C849 C850 1.340 . S
C849 H889 0.951 . S
C850 C849 1.340 . S
C850 C851 1.439 . S
C850 H890 0.950 . S
C851 C850 1.439 . S
C851 N852 1.374 . S
C851 C885 1.395 . S
N852 C848 1.376 . S
N852 C851 1.374 . S
N852 Co853 2.008 . S
Co853 N852 2.008 . S
Co853 N854 1.995 . S
Co853 N859 2.008 . S
Co853 N864 1.995 . S
Co853 N869 2.282 . S
Co853 N875 2.282 . S
N854 Co853 1.995 . S
N854 C855 1.376 . S
N854 C858 1.383 . S
C855 N854 1.376 . S
C855 C856 1.446 . S
C855 C885 1.391 . S
C856 C855 1.446 . S
C856 C857 1.339 . S
C856 H891 0.949 . S
C857 C856 1.339 . S
C857 C858 1.439 . S
C857 H892 0.950 . S
C858 N854 1.383 . S
C858 C857 1.439 . S
C858 C887 1.392 . S
N859 Co853 2.008 . S
N859 C860 1.376 . S
N859 C863 1.374 . S
C860 N859 1.376 . S
C860 C861 1.443 . S
C860 C887 1.389 . S
C861 C860 1.443 . S
C861 C862 1.340 . S
C861 H893 0.951 . S
C862 C861 1.340 . S
C862 C863 1.439 . S
C862 H894 0.950 . S
C863 N859 1.374 . S
C863 C862 1.439 . S
C863 C888 1.395 . S
N864 Co853 1.995 . S
N864 C865 1.376 . S
N864 C868 1.383 . S
C865 N864 1.376 . S
C865 C866 1.446 . S
C865 C888 1.391 . S
C866 C865 1.446 . S
C866 C867 1.339 . S
C866 H895 0.949 . S
C867 C866 1.339 . S
C867 C868 1.439 . S
C867 H896 0.950 . S
C868 N864 1.383 . S
C868 C867 1.439 . S
C868 C886 1.392 . S
N869 Co853 2.282 . S
N869 C872 1.332 . S
N869 C874 1.332 . S
C870 C871 1.386 . S
C870 C873 1.388 . S
C871 C870 1.386 . S
C871 C872 1.382 . S
C871 H897 0.950 . S
C872 N869 1.332 . S
C872 C871 1.382 . S
C872 H883 0.952 . S
C873 C870 1.388 . S
C873 C874 1.382 . S
C873 H898 0.950 . S
C874 N869 1.332 . S
C874 C873 1.382 . S
C874 H884 0.948 . S
N875 Co853 2.282 . S
N875 C879 1.332 . S
N875 C880 1.332 . S
C876 C877 1.388 . S
C876 C880 1.382 . S
C876 H899 0.950 . S
C877 C876 1.388 . S
C877 C878 1.386 . S
C878 C877 1.386 . S
C878 C879 1.382 . S
C878 H900 0.950 . S
C879 N875 1.332 . S
C879 C878 1.382 . S
C879 H881 0.952 . S
C880 N875 1.332 . S
C880 C876 1.382 . S
C880 H882 0.948 . S
H881 C879 0.952 . S
H882 C880 0.948 . S
H883 C872 0.952 . S
H884 C874 0.948 . S
C885 C851 1.395 . S
C885 C855 1.391 . S
C886 C848 1.389 . S
C886 C868 1.392 . S
C887 C858 1.392 . S
C887 C860 1.389 . S
C888 C863 1.395 . S
C888 C865 1.391 . S
H889 C849 0.951 . S
H890 C850 0.950 . S
H891 C856 0.949 . S
H892 C857 0.950 . S
H893 C861 0.951 . S
H894 C862 0.950 . S
H895 C866 0.949 . S
H896 C867 0.950 . S
H897 C871 0.950 . S
H898 C873 0.950 . S
H899 C876 0.950 . S
H900 C878 0.950 . S
C901 C902 1.443 . S
C901 N905 1.376 . S
C901 C939 1.389 . S
C902 C901 1.443 . S
C902 C903 1.340 . S
C902 H942 0.951 . S
C903 C902 1.340 . S
C903 C904 1.439 . S
C903 H943 0.950 . S
C904 C903 1.439 . S
C904 N905 1.374 . S
C904 C938 1.395 . S
N905 C901 1.376 . S
N905 C904 1.374 . S
N905 Co906 2.008 . S
Co906 N905 2.008 . S
Co906 N907 1.995 . S
Co906 N912 2.008 . S
Co906 N917 1.995 . S
Co906 N922 2.282 . S
Co906 N928 2.282 . S
N907 Co906 1.995 . S
N907 C908 1.376 . S
N907 C911 1.383 . S
C908 N907 1.376 . S
C908 C909 1.446 . S
C908 C938 1.391 . S
C909 C908 1.446 . S
C909 C910 1.339 . S
C909 H944 0.949 . S
C910 C909 1.339 . S
C910 C911 1.439 . S
C910 H945 0.950 . S
C911 N907 1.383 . S
C911 C910 1.439 . S
C911 C940 1.392 . S
N912 Co906 2.008 . S
N912 C913 1.376 . S
N912 C916 1.374 . S
C913 N912 1.376 . S
C913 C914 1.443 . S
C913 C940 1.389 . S
C914 C913 1.443 . S
C914 C915 1.340 . S
C914 H946 0.951 . S
C915 C914 1.340 . S
C915 C916 1.439 . S
C915 H947 0.950 . S
C916 N912 1.374 . S
C916 C915 1.439 . S
C916 C941 1.395 . S
N917 Co906 1.995 . S
N917 C918 1.376 . S
N917 C921 1.383 . S
C918 N917 1.376 . S
C918 C919 1.446 . S
C918 C941 1.391 . S
C919 C918 1.446 . S
C919 C920 1.339 . S
C919 H948 0.949 . S
C920 C919 1.339 . S
C920 C921 1.439 . S
C920 H949 0.950 . S
C921 N917 1.383 . S
C921 C920 1.439 . S
C921 C939 1.392 . S
N922 Co906 2.282 . S
N922 C925 1.332 . S
N922 C927 1.332 . S
C923 C924 1.386 . S
C923 C926 1.388 . S
C924 C923 1.386 . S
C924 C925 1.382 . S
C924 H950 0.950 . S
C925 N922 1.332 . S
C925 C924 1.382 . S
C925 H936 0.952 . S
C926 C923 1.388 . S
C926 C927 1.382 . S
C926 H951 0.950 . S
C927 N922 1.332 . S
C927 C926 1.382 . S
C927 H937 0.948 . S
N928 Co906 2.282 . S
N928 C932 1.332 . S
N928 C933 1.332 . S
C929 C930 1.388 . S
C929 C933 1.382 . S
C929 H952 0.950 . S
C930 C929 1.388 . S
C930 C931 1.386 . S
C931 C930 1.386 . S
C931 C932 1.382 . S
C931 H953 0.950 . S
C932 N928 1.332 . S
C932 C931 1.382 . S
C932 H934 0.952 . S
C933 N928 1.332 . S
C933 C929 1.382 . S
C933 H935 0.948 . S
H934 C932 0.952 . S
H935 C933 0.948 . S
H936 C925 0.952 . S
H937 C927 0.948 . S
C938 C904 1.395 . S
C938 C908 1.391 . S
C939 C901 1.389 . S
C939 C921 1.392 . S
C940 C911 1.392 . S
C940 C913 1.389 . S
C941 C916 1.395 . S
C941 C918 1.391 . S
H942 C902 0.951 . S
H943 C903 0.950 . S
H944 C909 0.949 . S
H945 C910 0.950 . S
H946 C914 0.951 . S
H947 C915 0.950 . S
H948 C919 0.949 . S
H949 C920 0.950 . S
H950 C924 0.950 . S
H951 C926 0.950 . S
H952 C929 0.950 . S
H953 C931 0.950 . S
C954 C955 1.443 . S
C954 N958 1.376 . S
C954 C992 1.389 . S
C955 C954 1.443 . S
C955 C956 1.340 . S
C955 H995 0.951 . S
C956 C955 1.340 . S
C956 C957 1.439 . S
C956 H996 0.950 . S
C957 C956 1.439 . S
C957 N958 1.374 . S
C957 C991 1.395 . S
N958 C954 1.376 . S
N958 C957 1.374 . S
N958 Co959 2.008 . S
Co959 N958 2.008 . S
Co959 N960 1.995 . S
Co959 N965 2.008 . S
Co959 N970 1.995 . S
Co959 N975 2.282 . S
Co959 N981 2.282 . S
N960 Co959 1.995 . S
N960 C961 1.376 . S
N960 C964 1.383 . S
C961 N960 1.376 . S
C961 C962 1.446 . S
C961 C991 1.391 . S
C962 C961 1.446 . S
C962 C963 1.339 . S
C962 H997 0.949 . S
C963 C962 1.339 . S
C963 C964 1.439 . S
C963 H998 0.950 . S
C964 N960 1.383 . S
C964 C963 1.439 . S
C964 C993 1.392 . S
N965 Co959 2.008 . S
N965 C966 1.376 . S
N965 C969 1.374 . S
C966 N965 1.376 . S
C966 C967 1.443 . S
C966 C993 1.389 . S
C967 C966 1.443 . S
C967 C968 1.340 . S
C967 H999 0.951 . S
C968 C967 1.340 . S
C968 C969 1.439 . S
C968 H1000 0.950 . S
C969 N965 1.374 . S
C969 C968 1.439 . S
C969 C994 1.395 . S
N970 Co959 1.995 . S
N970 C971 1.376 . S
N970 C974 1.383 . S
C971 N970 1.376 . S
C971 C972 1.446 . S
C971 C994 1.391 . S
C972 C971 1.446 . S
C972 C973 1.339 . S
C972 H1001 0.949 . S
C973 C972 1.339 . S
C973 C974 1.439 . S
C973 H1002 0.950 . S
C974 N970 1.383 . S
C974 C973 1.439 . S
C974 C992 1.392 . S
N975 Co959 2.282 . S
N975 C978 1.332 . S
N975 C980 1.332 . S
C976 C977 1.386 . S
C976 C979 1.388 . S
C977 C976 1.386 . S
C977 C978 1.382 . S
C977 H1003 0.950 . S
C978 N975 1.332 . S
C978 C977 1.382 . S
C978 H989 0.952 . S
C979 C976 1.388 . S
C979 C980 1.382 . S
C979 H1004 0.950 . S
C980 N975 1.332 . S
C980 C979 1.382 . S
C980 H990 0.948 . S
N981 Co959 2.282 . S
N981 C985 1.332 . S
N981 C986 1.332 . S
C982 C983 1.388 . S
C982 C986 1.382 . S
C982 H1005 0.950 . S
C983 C982 1.388 . S
C983 C984 1.386 . S
C984 C983 1.386 . S
C984 C985 1.382 . S
C984 H1006 0.950 . S
C985 N981 1.332 . S
C985 C984 1.382 . S
C985 H987 0.952 . S
C986 N981 1.332 . S
C986 C982 1.382 . S
C986 H988 0.948 . S
H987 C985 0.952 . S
H988 C986 0.948 . S
H989 C978 0.952 . S
H990 C980 0.948 . S
C991 C957 1.395 . S
C991 C961 1.391 . S
C992 C954 1.389 . S
C992 C974 1.392 . S
C993 C964 1.392 . S
C993 C966 1.389 . S
C994 C969 1.395 . S
C994 C971 1.391 . S
H995 C955 0.951 . S
H996 C956 0.950 . S
H997 C962 0.949 . S
H998 C963 0.950 . S
H999 C967 0.951 . S
H1000 C968 0.950 . S
H1001 C972 0.949 . S
H1002 C973 0.950 . S
H1003 C977 0.950 . S
H1004 C979 0.950 . S
H1005 C982 0.950 . S
H1006 C984 0.950 . S
C1007 C1008 1.443 . S
C1007 N1011 1.376 . S
C1007 C1045 1.389 . S
C1008 C1007 1.443 . S
C1008 C1009 1.340 . S
C1008 H1048 0.951 . S
C1009 C1008 1.340 . S
C1009 C1010 1.439 . S
C1009 H1049 0.950 . S
C1010 C1009 1.439 . S
C1010 N1011 1.374 . S
C1010 C1044 1.395 . S
N1011 C1007 1.376 . S
N1011 C1010 1.374 . S
N1011 Co1012 2.008 . S
Co1012 N1011 2.008 . S
Co1012 N1013 1.995 . S
Co1012 N1018 2.008 . S
Co1012 N1023 1.995 . S
Co1012 N1028 2.282 . S
Co1012 N1034 2.282 . S
N1013 Co1012 1.995 . S
N1013 C1014 1.376 . S
N1013 C1017 1.383 . S
C1014 N1013 1.376 . S
C1014 C1015 1.446 . S
C1014 C1044 1.391 . S
C1015 C1014 1.446 . S
C1015 C1016 1.339 . S
C1015 H1050 0.949 . S
C1016 C1015 1.339 . S
C1016 C1017 1.439 . S
C1016 H1051 0.950 . S
C1017 N1013 1.383 . S
C1017 C1016 1.439 . S
C1017 C1046 1.392 . S
N1018 Co1012 2.008 . S
N1018 C1019 1.376 . S
N1018 C1022 1.374 . S
C1019 N1018 1.376 . S
C1019 C1020 1.443 . S
C1019 C1046 1.389 . S
C1020 C1019 1.443 . S
C1020 C1021 1.340 . S
C1020 H1052 0.951 . S
C1021 C1020 1.340 . S
C1021 C1022 1.439 . S
C1021 H1053 0.950 . S
C1022 N1018 1.374 . S
C1022 C1021 1.439 . S
C1022 C1047 1.395 . S
N1023 Co1012 1.995 . S
N1023 C1024 1.376 . S
N1023 C1027 1.383 . S
C1024 N1023 1.376 . S
C1024 C1025 1.446 . S
C1024 C1047 1.391 . S
C1025 C1024 1.446 . S
C1025 C1026 1.339 . S
C1025 H1054 0.949 . S
C1026 C1025 1.339 . S
C1026 C1027 1.439 . S
C1026 H1055 0.950 . S
C1027 N1023 1.383 . S
C1027 C1026 1.439 . S
C1027 C1045 1.392 . S
N1028 Co1012 2.282 . S
N1028 C1031 1.332 . S
N1028 C1033 1.332 . S
C1029 C1030 1.386 . S
C1029 C1032 1.388 . S
C1030 C1029 1.386 . S
C1030 C1031 1.382 . S
C1030 H1056 0.950 . S
C1031 N1028 1.332 . S
C1031 C1030 1.382 . S
C1031 H1042 0.952 . S
C1032 C1029 1.388 . S
C1032 C1033 1.382 . S
C1032 H1057 0.950 . S
C1033 N1028 1.332 . S
C1033 C1032 1.382 . S
C1033 H1043 0.948 . S
N1034 Co1012 2.282 . S
N1034 C1038 1.332 . S
N1034 C1039 1.332 . S
C1035 C1036 1.388 . S
C1035 C1039 1.382 . S
C1035 H1058 0.950 . S
C1036 C1035 1.388 . S
C1036 C1037 1.386 . S
C1037 C1036 1.386 . S
C1037 C1038 1.382 . S
C1037 H1059 0.950 . S
C1038 N1034 1.332 . S
C1038 C1037 1.382 . S
C1038 H1040 0.952 . S
C1039 N1034 1.332 . S
C1039 C1035 1.382 . S
C1039 H1041 0.948 . S
H1040 C1038 0.952 . S
H1041 C1039 0.948 . S
H1042 C1031 0.952 . S
H1043 C1033 0.948 . S
C1044 C1010 1.395 . S
C1044 C1014 1.391 . S
C1045 C1007 1.389 . S
C1045 C1027 1.392 . S
C1046 C1017 1.392 . S
C1046 C1019 1.389 . S
C1047 C1022 1.395 . S
C1047 C1024 1.391 . S
H1048 C1008 0.951 . S
H1049 C1009 0.950 . S
H1050 C1015 0.949 . S
H1051 C1016 0.950 . S
H1052 C1020 0.951 . S
H1053 C1021 0.950 . S
H1054 C1025 0.949 . S
H1055 C1026 0.950 . S
H1056 C1030 0.950 . S
H1057 C1032 0.950 . S
H1058 C1035 0.950 . S
H1059 C1037 0.950 . S
C1060 C1061 1.443 . S
C1060 N1064 1.376 . S
C1060 C1098 1.389 . S
C1061 C1060 1.443 . S
C1061 C1062 1.340 . S
C1061 H1101 0.951 . S
C1062 C1061 1.340 . S
C1062 C1063 1.439 . S
C1062 H1102 0.950 . S
C1063 C1062 1.439 . S
C1063 N1064 1.374 . S
C1063 C1097 1.395 . S
N1064 C1060 1.376 . S
N1064 C1063 1.374 . S
N1064 Co1065 2.008 . S
Co1065 N1064 2.008 . S
Co1065 N1066 1.995 . S
Co1065 N1071 2.008 . S
Co1065 N1076 1.995 . S
Co1065 N1081 2.282 . S
Co1065 N1087 2.282 . S
N1066 Co1065 1.995 . S
N1066 C1067 1.376 . S
N1066 C1070 1.383 . S
C1067 N1066 1.376 . S
C1067 C1068 1.446 . S
C1067 C1097 1.391 . S
C1068 C1067 1.446 . S
C1068 C1069 1.339 . S
C1068 H1103 0.949 . S
C1069 C1068 1.339 . S
C1069 C1070 1.439 . S
C1069 H1104 0.950 . S
C1070 N1066 1.383 . S
C1070 C1069 1.439 . S
C1070 C1099 1.392 . S
N1071 Co1065 2.008 . S
N1071 C1072 1.376 . S
N1071 C1075 1.374 . S
C1072 N1071 1.376 . S
C1072 C1073 1.443 . S
C1072 C1099 1.389 . S
C1073 C1072 1.443 . S
C1073 C1074 1.340 . S
C1073 H1105 0.951 . S
C1074 C1073 1.340 . S
C1074 C1075 1.439 . S
C1074 H1106 0.950 . S
C1075 N1071 1.374 . S
C1075 C1074 1.439 . S
C1075 C1100 1.395 . S
N1076 Co1065 1.995 . S
N1076 C1077 1.376 . S
N1076 C1080 1.383 . S
C1077 N1076 1.376 . S
C1077 C1078 1.446 . S
C1077 C1100 1.391 . S
C1078 C1077 1.446 . S
C1078 C1079 1.339 . S
C1078 H1107 0.949 . S
C1079 C1078 1.339 . S
C1079 C1080 1.439 . S
C1079 H1108 0.950 . S
C1080 N1076 1.383 . S
C1080 C1079 1.439 . S
C1080 C1098 1.392 . S
N1081 Co1065 2.282 . S
N1081 C1084 1.332 . S
N1081 C1086 1.332 . S
C1082 C1083 1.386 . S
C1082 C1085 1.388 . S
C1083 C1082 1.386 . S
C1083 C1084 1.382 . S
C1083 H1109 0.950 . S
C1084 N1081 1.332 . S
C1084 C1083 1.382 . S
C1084 H1095 0.952 . S
C1085 C1082 1.388 . S
C1085 C1086 1.382 . S
C1085 H1110 0.950 . S
C1086 N1081 1.332 . S
C1086 C1085 1.382 . S
C1086 H1096 0.948 . S
N1087 Co1065 2.282 . S
N1087 C1091 1.332 . S
N1087 C1092 1.332 . S
C1088 C1089 1.388 . S
C1088 C1092 1.382 . S
C1088 H1111 0.950 . S
C1089 C1088 1.388 . S
C1089 C1090 1.386 . S
C1090 C1089 1.386 . S
C1090 C1091 1.382 . S
C1090 H1112 0.950 . S
C1091 N1087 1.332 . S
C1091 C1090 1.382 . S
C1091 H1093 0.952 . S
C1092 N1087 1.332 . S
C1092 C1088 1.382 . S
C1092 H1094 0.948 . S
H1093 C1091 0.952 . S
H1094 C1092 0.948 . S
H1095 C1084 0.952 . S
H1096 C1086 0.948 . S
C1097 C1063 1.395 . S
C1097 C1067 1.391 . S
C1098 C1060 1.389 . S
C1098 C1080 1.392 . S
C1099 C1070 1.392 . S
C1099 C1072 1.389 . S
C1100 C1075 1.395 . S
C1100 C1077 1.391 . S
H1101 C1061 0.951 . S
H1102 C1062 0.950 . S
H1103 C1068 0.949 . S
H1104 C1069 0.950 . S
H1105 C1073 0.951 . S
H1106 C1074 0.950 . S
H1107 C1078 0.949 . S
H1108 C1079 0.950 . S
H1109 C1083 0.950 . S
H1110 C1085 0.950 . S
H1111 C1088 0.950 . S
H1112 C1090 0.950 . S
C1113 C1114 1.443 . S
C1113 N1117 1.376 . S
C1113 C1151 1.389 . S
C1114 C1113 1.443 . S
C1114 C1115 1.340 . S
C1114 H1154 0.951 . S
C1115 C1114 1.340 . S
C1115 C1116 1.439 . S
C1115 H1155 0.950 . S
C1116 C1115 1.439 . S
C1116 N1117 1.374 . S
C1116 C1150 1.395 . S
N1117 C1113 1.376 . S
N1117 C1116 1.374 . S
N1117 Co1118 2.008 . S
Co1118 N1117 2.008 . S
Co1118 N1119 1.995 . S
Co1118 N1124 2.008 . S
Co1118 N1129 1.995 . S
Co1118 N1134 2.282 . S
Co1118 N1140 2.282 . S
N1119 Co1118 1.995 . S
N1119 C1120 1.376 . S
N1119 C1123 1.383 . S
C1120 N1119 1.376 . S
C1120 C1121 1.446 . S
C1120 C1150 1.391 . S
C1121 C1120 1.446 . S
C1121 C1122 1.339 . S
C1121 H1156 0.949 . S
C1122 C1121 1.339 . S
C1122 C1123 1.439 . S
C1122 H1157 0.950 . S
C1123 N1119 1.383 . S
C1123 C1122 1.439 . S
C1123 C1152 1.392 . S
N1124 Co1118 2.008 . S
N1124 C1125 1.376 . S
N1124 C1128 1.374 . S
C1125 N1124 1.376 . S
C1125 C1126 1.443 . S
C1125 C1152 1.389 . S
C1126 C1125 1.443 . S
C1126 C1127 1.340 . S
C1126 H1158 0.951 . S
C1127 C1126 1.340 . S
C1127 C1128 1.439 . S
C1127 H1159 0.950 . S
C1128 N1124 1.374 . S
C1128 C1127 1.439 . S
C1128 C1153 1.395 . S
N1129 Co1118 1.995 . S
N1129 C1130 1.376 . S
N1129 C1133 1.383 . S
C1130 N1129 1.376 . S
C1130 C1131 1.446 . S
C1130 C1153 1.391 . S
C1131 C1130 1.446 . S
C1131 C1132 1.339 . S
C1131 H1160 0.949 . S
C1132 C1131 1.339 . S
C1132 C1133 1.439 . S
C1132 H1161 0.950 . S
C1133 N1129 1.383 . S
C1133 C1132 1.439 . S
C1133 C1151 1.392 . S
N1134 Co1118 2.282 . S
N1134 C1137 1.332 . S
N1134 C1139 1.332 . S
C1135 C1136 1.386 . S
C1135 C1138 1.388 . S
C1136 C1135 1.386 . S
C1136 C1137 1.382 . S
C1136 H1162 0.950 . S
C1137 N1134 1.332 . S
C1137 C1136 1.382 . S
C1137 H1148 0.952 . S
C1138 C1135 1.388 . S
C1138 C1139 1.382 . S
C1138 H1163 0.950 . S
C1139 N1134 1.332 . S
C1139 C1138 1.382 . S
C1139 H1149 0.948 . S
N1140 Co1118 2.282 . S
N1140 C1144 1.332 . S
N1140 C1145 1.332 . S
C1141 C1142 1.388 . S
C1141 C1145 1.382 . S
C1141 H1164 0.950 . S
C1142 C1141 1.388 . S
C1142 C1143 1.386 . S
C1143 C1142 1.386 . S
C1143 C1144 1.382 . S
C1143 H1165 0.950 . S
C1144 N1140 1.332 . S
C1144 C1143 1.382 . S
C1144 H1146 0.952 . S
C1145 N1140 1.332 . S
C1145 C1141 1.382 . S
C1145 H1147 0.948 . S
H1146 C1144 0.952 . S
H1147 C1145 0.948 . S
H1148 C1137 0.952 . S
H1149 C1139 0.948 . S
C1150 C1116 1.395 . S
C1150 C1120 1.391 . S
C1151 C1113 1.389 . S
C1151 C1133 1.392 . S
C1152 C1123 1.392 . S
C1152 C1125 1.389 . S
C1153 C1128 1.395 . S
C1153 C1130 1.391 . S
H1154 C1114 0.951 . S
H1155 C1115 0.950 . S
H1156 C1121 0.949 . S
H1157 C1122 0.950 . S
H1158 C1126 0.951 . S
H1159 C1127 0.950 . S
H1160 C1131 0.949 . S
H1161 C1132 0.950 . S
H1162 C1136 0.950 . S
H1163 C1138 0.950 . S
H1164 C1141 0.950 . S
H1165 C1143 0.950 . S
C1166 C1167 1.443 . S
C1166 N1170 1.376 . S
C1166 C1204 1.389 . S
C1167 C1166 1.443 . S
C1167 C1168 1.340 . S
C1167 H1207 0.951 . S
C1168 C1167 1.340 . S
C1168 C1169 1.439 . S
C1168 H1208 0.950 . S
C1169 C1168 1.439 . S
C1169 N1170 1.374 . S
C1169 C1203 1.395 . S
N1170 C1166 1.376 . S
N1170 C1169 1.374 . S
N1170 Co1171 2.008 . S
Co1171 N1170 2.008 . S
Co1171 N1172 1.995 . S
Co1171 N1177 2.008 . S
Co1171 N1182 1.995 . S
Co1171 N1187 2.282 . S
Co1171 N1193 2.282 . S
N1172 Co1171 1.995 . S
N1172 C1173 1.376 . S
N1172 C1176 1.383 . S
C1173 N1172 1.376 . S
C1173 C1174 1.446 . S
C1173 C1203 1.391 . S
C1174 C1173 1.446 . S
C1174 C1175 1.339 . S
C1174 H1209 0.949 . S
C1175 C1174 1.339 . S
C1175 C1176 1.439 . S
C1175 H1210 0.950 . S
C1176 N1172 1.383 . S
C1176 C1175 1.439 . S
C1176 C1205 1.392 . S
N1177 Co1171 2.008 . S
N1177 C1178 1.376 . S
N1177 C1181 1.374 . S
C1178 N1177 1.376 . S
C1178 C1179 1.443 . S
C1178 C1205 1.389 . S
C1179 C1178 1.443 . S
C1179 C1180 1.340 . S
C1179 H1211 0.951 . S
C1180 C1179 1.340 . S
C1180 C1181 1.439 . S
C1180 H1212 0.950 . S
C1181 N1177 1.374 . S
C1181 C1180 1.439 . S
C1181 C1206 1.395 . S
N1182 Co1171 1.995 . S
N1182 C1183 1.376 . S
N1182 C1186 1.383 . S
C1183 N1182 1.376 . S
C1183 C1184 1.446 . S
C1183 C1206 1.391 . S
C1184 C1183 1.446 . S
C1184 C1185 1.339 . S
C1184 H1213 0.949 . S
C1185 C1184 1.339 . S
C1185 C1186 1.439 . S
C1185 H1214 0.950 . S
C1186 N1182 1.383 . S
C1186 C1185 1.439 . S
C1186 C1204 1.392 . S
N1187 Co1171 2.282 . S
N1187 C1190 1.332 . S
N1187 C1192 1.332 . S
C1188 C1189 1.386 . S
C1188 C1191 1.388 . S
C1189 C1188 1.386 . S
C1189 C1190 1.382 . S
C1189 H1215 0.950 . S
C1190 N1187 1.332 . S
C1190 C1189 1.382 . S
C1190 H1201 0.952 . S
C1191 C1188 1.388 . S
C1191 C1192 1.382 . S
C1191 H1216 0.950 . S
C1192 N1187 1.332 . S
C1192 C1191 1.382 . S
C1192 H1202 0.948 . S
N1193 Co1171 2.282 . S
N1193 C1197 1.332 . S
N1193 C1198 1.332 . S
C1194 C1195 1.388 . S
C1194 C1198 1.382 . S
C1194 H1217 0.950 . S
C1195 C1194 1.388 . S
C1195 C1196 1.386 . S
C1196 C1195 1.386 . S
C1196 C1197 1.382 . S
C1196 H1218 0.950 . S
C1197 N1193 1.332 . S
C1197 C1196 1.382 . S
C1197 H1199 0.952 . S
C1198 N1193 1.332 . S
C1198 C1194 1.382 . S
C1198 H1200 0.948 . S
H1199 C1197 0.952 . S
H1200 C1198 0.948 . S
H1201 C1190 0.952 . S
H1202 C1192 0.948 . S
C1203 C1169 1.395 . S
C1203 C1173 1.391 . S
C1204 C1166 1.389 . S
C1204 C1186 1.392 . S
C1205 C1176 1.392 . S
C1205 C1178 1.389 . S
C1206 C1181 1.395 . S
C1206 C1183 1.391 . S
H1207 C1167 0.951 . S
H1208 C1168 0.950 . S
H1209 C1174 0.949 . S
H1210 C1175 0.950 . S
H1211 C1179 0.951 . S
H1212 C1180 0.950 . S
H1213 C1184 0.949 . S
H1214 C1185 0.950 . S
H1215 C1189 0.950 . S
H1216 C1191 0.950 . S
H1217 C1194 0.950 . S
H1218 C1196 0.950 . S
C1219 C1220 1.443 . S
C1219 N1223 1.376 . S
C1219 C1257 1.389 . S
C1220 C1219 1.443 . S
C1220 C1221 1.340 . S
C1220 H1260 0.951 . S
C1221 C1220 1.340 . S
C1221 C1222 1.439 . S
C1221 H1261 0.950 . S
C1222 C1221 1.439 . S
C1222 N1223 1.374 . S
C1222 C1256 1.395 . S
N1223 C1219 1.376 . S
N1223 C1222 1.374 . S
N1223 Co1224 2.008 . S
Co1224 N1223 2.008 . S
Co1224 N1225 1.995 . S
Co1224 N1230 2.008 . S
Co1224 N1235 1.995 . S
Co1224 N1240 2.282 . S
Co1224 N1246 2.282 . S
N1225 Co1224 1.995 . S
N1225 C1226 1.376 . S
N1225 C1229 1.383 . S
C1226 N1225 1.376 . S
C1226 C1227 1.446 . S
C1226 C1256 1.391 . S
C1227 C1226 1.446 . S
C1227 C1228 1.339 . S
C1227 H1262 0.949 . S
C1228 C1227 1.339 . S
C1228 C1229 1.439 . S
C1228 H1263 0.950 . S
C1229 N1225 1.383 . S
C1229 C1228 1.439 . S
C1229 C1258 1.392 . S
N1230 Co1224 2.008 . S
N1230 C1231 1.376 . S
N1230 C1234 1.374 . S
C1231 N1230 1.376 . S
C1231 C1232 1.443 . S
C1231 C1258 1.389 . S
C1232 C1231 1.443 . S
C1232 C1233 1.340 . S
C1232 H1264 0.951 . S
C1233 C1232 1.340 . S
C1233 C1234 1.439 . S
C1233 H1265 0.950 . S
C1234 N1230 1.374 . S
C1234 C1233 1.439 . S
C1234 C1259 1.395 . S
N1235 Co1224 1.995 . S
N1235 C1236 1.376 . S
N1235 C1239 1.383 . S
C1236 N1235 1.376 . S
C1236 C1237 1.446 . S
C1236 C1259 1.391 . S
C1237 C1236 1.446 . S
C1237 C1238 1.339 . S
C1237 H1266 0.949 . S
C1238 C1237 1.339 . S
C1238 C1239 1.439 . S
C1238 H1267 0.950 . S
C1239 N1235 1.383 . S
C1239 C1238 1.439 . S
C1239 C1257 1.392 . S
N1240 Co1224 2.282 . S
N1240 C1243 1.332 . S
N1240 C1245 1.332 . S
C1241 C1242 1.386 . S
C1241 C1244 1.388 . S
C1242 C1241 1.386 . S
C1242 C1243 1.382 . S
C1242 H1268 0.950 . S
C1243 N1240 1.332 . S
C1243 C1242 1.382 . S
C1243 H1254 0.952 . S
C1244 C1241 1.388 . S
C1244 C1245 1.382 . S
C1244 H1269 0.950 . S
C1245 N1240 1.332 . S
C1245 C1244 1.382 . S
C1245 H1255 0.948 . S
N1246 Co1224 2.282 . S
N1246 C1250 1.332 . S
N1246 C1251 1.332 . S
C1247 C1248 1.388 . S
C1247 C1251 1.382 . S
C1247 H1270 0.950 . S
C1248 C1247 1.388 . S
C1248 C1249 1.386 . S
C1249 C1248 1.386 . S
C1249 C1250 1.382 . S
C1249 H1271 0.950 . S
C1250 N1246 1.332 . S
C1250 C1249 1.382 . S
C1250 H1252 0.952 . S
C1251 N1246 1.332 . S
C1251 C1247 1.382 . S
C1251 H1253 0.948 . S
H1252 C1250 0.952 . S
H1253 C1251 0.948 . S
H1254 C1243 0.952 . S
H1255 C1245 0.948 . S
C1256 C1222 1.395 . S
C1256 C1226 1.391 . S
C1257 C1219 1.389 . S
C1257 C1239 1.392 . S
C1258 C1229 1.392 . S
C1258 C1231 1.389 . S
C1259 C1234 1.395 . S
C1259 C1236 1.391 . S
H1260 C1220 0.951 . S
H1261 C1221 0.950 . S
H1262 C1227 0.949 . S
H1263 C1228 0.950 . S
H1264 C1232 0.951 . S
H1265 C1233 0.950 . S
H1266 C1237 0.949 . S
H1267 C1238 0.950 . S
H1268 C1242 0.950 . S
H1269 C1244 0.950 . S
H1270 C1247 0.950 . S
H1271 C1249 0.950 . S
H1272 C1284 0.930 . S
H1273 C1286 0.930 . S
H1274 C1287 0.930 . S
H1275 C1291 0.959 . S
H1276 C1291 0.959 . S
H1277 C1291 0.961 . S
H1278 C1292 0.960 . S
H1279 C1292 0.961 . S
H1280 C1292 0.959 . S
H1281 C1295 0.929 . S
H1282 C1296 0.931 . S
H1283 C1298 0.930 . S
C1284 H1272 0.930 . S
C1284 C1285 1.399 . S
C1284 C1289 1.399 . S
C1285 C1284 1.399 . S
C1285 C1286 1.376 . S
C1286 H1273 0.930 . S
C1286 C1285 1.376 . S
C1286 C1287 1.388 . S
C1287 H1274 0.930 . S
C1287 C1286 1.388 . S
C1287 C1288 1.390 . S
C1288 C1287 1.390 . S
C1288 C1289 1.394 . S
C1288 C1294 1.465 . S
C1289 C1284 1.399 . S
C1289 C1288 1.394 . S
C1289 C1290 1.516 . S
C1290 C1289 1.516 . S
C1290 C1291 1.502 . S
C1290 C1292 1.561 . S
C1290 C1293 1.526 . S
C1291 H1275 0.959 . S
C1291 H1276 0.959 . S
C1291 H1277 0.961 . S
C1291 C1290 1.502 . S
C1292 H1278 0.960 . S
C1292 H1279 0.961 . S
C1292 H1280 0.959 . S
C1292 C1290 1.561 . S
C1293 C1290 1.526 . S
C1293 C1294 1.396 . S
C1293 C1298 1.390 . S
C1294 C1288 1.465 . S
C1294 C1293 1.396 . S
C1294 C1295 1.399 . S
C1295 H1281 0.929 . S
C1295 C1294 1.399 . S
C1295 C1296 1.385 . S
C1296 H1282 0.931 . S
C1296 C1295 1.385 . S
C1296 C1297 1.389 . S
C1297 C1296 1.389 . S
C1297 C1298 1.387 . S
C1298 H1283 0.930 . S
C1298 C1293 1.390 . S
C1298 C1297 1.387 . S
H1299 C1311 0.930 . S
H1300 C1313 0.930 . S
H1301 C1314 0.930 . S
H1302 C1318 0.959 . S
H1303 C1318 0.959 . S
H1304 C1318 0.961 . S
H1305 C1319 0.960 . S
H1306 C1319 0.961 . S
H1307 C1319 0.959 . S
H1308 C1322 0.929 . S
H1309 C1323 0.931 . S
H1310 C1325 0.930 . S
C1311 H1299 0.930 . S
C1311 C1312 1.399 . S
C1311 C1316 1.399 . S
C1312 C1311 1.399 . S
C1312 C1313 1.376 . S
C1313 H1300 0.930 . S
C1313 C1312 1.376 . S
C1313 C1314 1.388 . S
C1314 H1301 0.930 . S
C1314 C1313 1.388 . S
C1314 C1315 1.390 . S
C1315 C1314 1.390 . S
C1315 C1316 1.394 . S
C1315 C1321 1.465 . S
C1316 C1311 1.399 . S
C1316 C1315 1.394 . S
C1316 C1317 1.516 . S
C1317 C1316 1.516 . S
C1317 C1318 1.502 . S
C1317 C1319 1.561 . S
C1317 C1320 1.526 . S
C1318 H1302 0.959 . S
C1318 H1303 0.959 . S
C1318 H1304 0.961 . S
C1318 C1317 1.502 . S
C1319 H1305 0.960 . S
C1319 H1306 0.961 . S
C1319 H1307 0.959 . S
C1319 C1317 1.561 . S
C1320 C1317 1.526 . S
C1320 C1321 1.396 . S
C1320 C1325 1.390 . S
C1321 C1315 1.465 . S
C1321 C1320 1.396 . S
C1321 C1322 1.399 . S
C1322 H1308 0.929 . S
C1322 C1321 1.399 . S
C1322 C1323 1.385 . S
C1323 H1309 0.931 . S
C1323 C1322 1.385 . S
C1323 C1324 1.389 . S
C1324 C1323 1.389 . S
C1324 C1325 1.387 . S
C1325 H1310 0.930 . S
C1325 C1320 1.390 . S
C1325 C1324 1.387 . S
H1326 C1338 0.930 . S
H1327 C1340 0.930 . S
H1328 C1341 0.930 . S
H1329 C1345 0.959 . S
H1330 C1345 0.959 . S
H1331 C1345 0.961 . S
H1332 C1346 0.960 . S
H1333 C1346 0.961 . S
H1334 C1346 0.959 . S
H1335 C1349 0.929 . S
H1336 C1350 0.931 . S
H1337 C1352 0.930 . S
C1338 H1326 0.930 . S
C1338 C1339 1.399 . S
C1338 C1343 1.399 . S
C1339 C1338 1.399 . S
C1339 C1340 1.376 . S
C1340 H1327 0.930 . S
C1340 C1339 1.376 . S
C1340 C1341 1.388 . S
C1341 H1328 0.930 . S
C1341 C1340 1.388 . S
C1341 C1342 1.390 . S
C1342 C1341 1.390 . S
C1342 C1343 1.394 . S
C1342 C1348 1.465 . S
C1343 C1338 1.399 . S
C1343 C1342 1.394 . S
C1343 C1344 1.516 . S
C1344 C1343 1.516 . S
C1344 C1345 1.502 . S
C1344 C1346 1.561 . S
C1344 C1347 1.526 . S
C1345 H1329 0.959 . S
C1345 H1330 0.959 . S
C1345 H1331 0.961 . S
C1345 C1344 1.502 . S
C1346 H1332 0.960 . S
C1346 H1333 0.961 . S
C1346 H1334 0.959 . S
C1346 C1344 1.561 . S
C1347 C1344 1.526 . S
C1347 C1348 1.396 . S
C1347 C1352 1.390 . S
C1348 C1342 1.465 . S
C1348 C1347 1.396 . S
C1348 C1349 1.399 . S
C1349 H1335 0.929 . S
C1349 C1348 1.399 . S
C1349 C1350 1.385 . S
C1350 H1336 0.931 . S
C1350 C1349 1.385 . S
C1350 C1351 1.389 . S
C1351 C1350 1.389 . S
C1351 C1352 1.387 . S
C1352 H1337 0.930 . S
C1352 C1347 1.390 . S
C1352 C1351 1.387 . S
H1353 C1365 0.930 . S
H1354 C1367 0.930 . S
H1355 C1368 0.930 . S
H1356 C1372 0.959 . S
H1357 C1372 0.959 . S
H1358 C1372 0.961 . S
H1359 C1373 0.960 . S
H1360 C1373 0.961 . S
H1361 C1373 0.959 . S
H1362 C1376 0.929 . S
H1363 C1377 0.931 . S
H1364 C1379 0.930 . S
C1365 H1353 0.930 . S
C1365 C1366 1.399 . S
C1365 C1370 1.399 . S
C1366 C1365 1.399 . S
C1366 C1367 1.376 . S
C1367 H1354 0.930 . S
C1367 C1366 1.376 . S
C1367 C1368 1.388 . S
C1368 H1355 0.930 . S
C1368 C1367 1.388 . S
C1368 C1369 1.390 . S
C1369 C1368 1.390 . S
C1369 C1370 1.394 . S
C1369 C1375 1.465 . S
C1370 C1365 1.399 . S
C1370 C1369 1.394 . S
C1370 C1371 1.516 . S
C1371 C1370 1.516 . S
C1371 C1372 1.502 . S
C1371 C1373 1.561 . S
C1371 C1374 1.526 . S
C1372 H1356 0.959 . S
C1372 H1357 0.959 . S
C1372 H1358 0.961 . S
C1372 C1371 1.502 . S
C1373 H1359 0.960 . S
C1373 H1360 0.961 . S
C1373 H1361 0.959 . S
C1373 C1371 1.561 . S
C1374 C1371 1.526 . S
C1374 C1375 1.396 . S
C1374 C1379 1.390 . S
C1375 C1369 1.465 . S
C1375 C1374 1.396 . S
C1375 C1376 1.399 . S
C1376 H1362 0.929 . S
C1376 C1375 1.399 . S
C1376 C1377 1.385 . S
C1377 H1363 0.931 . S
C1377 C1376 1.385 . S
C1377 C1378 1.389 . S
C1378 C1377 1.389 . S
C1378 C1379 1.387 . S
C1379 H1364 0.930 . S
C1379 C1374 1.390 . S
C1379 C1378 1.387 . S
H1380 C1392 0.930 . S
H1381 C1394 0.930 . S
H1382 C1395 0.930 . S
H1383 C1399 0.959 . S
H1384 C1399 0.959 . S
H1385 C1399 0.961 . S
H1386 C1400 0.960 . S
H1387 C1400 0.961 . S
H1388 C1400 0.959 . S
H1389 C1403 0.929 . S
H1390 C1404 0.931 . S
H1391 C1406 0.930 . S
C1392 H1380 0.930 . S
C1392 C1393 1.399 . S
C1392 C1397 1.399 . S
C1393 C1392 1.399 . S
C1393 C1394 1.376 . S
C1394 H1381 0.930 . S
C1394 C1393 1.376 . S
C1394 C1395 1.388 . S
C1395 H1382 0.930 . S
C1395 C1394 1.388 . S
C1395 C1396 1.390 . S
C1396 C1395 1.390 . S
C1396 C1397 1.394 . S
C1396 C1402 1.465 . S
C1397 C1392 1.399 . S
C1397 C1396 1.394 . S
C1397 C1398 1.516 . S
C1398 C1397 1.516 . S
C1398 C1399 1.502 . S
C1398 C1400 1.561 . S
C1398 C1401 1.526 . S
C1399 H1383 0.959 . S
C1399 H1384 0.959 . S
C1399 H1385 0.961 . S
C1399 C1398 1.502 . S
C1400 H1386 0.960 . S
C1400 H1387 0.961 . S
C1400 H1388 0.959 . S
C1400 C1398 1.561 . S
C1401 C1398 1.526 . S
C1401 C1402 1.396 . S
C1401 C1406 1.390 . S
C1402 C1396 1.465 . S
C1402 C1401 1.396 . S
C1402 C1403 1.399 . S
C1403 H1389 0.929 . S
C1403 C1402 1.399 . S
C1403 C1404 1.385 . S
C1404 H1390 0.931 . S
C1404 C1403 1.385 . S
C1404 C1405 1.389 . S
C1405 C1404 1.389 . S
C1405 C1406 1.387 . S
C1406 H1391 0.930 . S
C1406 C1401 1.390 . S
C1406 C1405 1.387 . S
H1407 C1419 0.930 . S
H1408 C1421 0.930 . S
H1409 C1422 0.930 . S
H1410 C1426 0.959 . S
H1411 C1426 0.959 . S
H1412 C1426 0.961 . S
H1413 C1427 0.960 . S
H1414 C1427 0.961 . S
H1415 C1427 0.959 . S
H1416 C1430 0.929 . S
H1417 C1431 0.931 . S
H1418 C1433 0.930 . S
C1419 H1407 0.930 . S
C1419 C1420 1.399 . S
C1419 C1424 1.399 . S
C1420 C1419 1.399 . S
C1420 C1421 1.376 . S
C1421 H1408 0.930 . S
C1421 C1420 1.376 . S
C1421 C1422 1.388 . S
C1422 H1409 0.930 . S
C1422 C1421 1.388 . S
C1422 C1423 1.390 . S
C1423 C1422 1.390 . S
C1423 C1424 1.394 . S
C1423 C1429 1.465 . S
C1424 C1419 1.399 . S
C1424 C1423 1.394 . S
C1424 C1425 1.516 . S
C1425 C1424 1.516 . S
C1425 C1426 1.502 . S
C1425 C1427 1.561 . S
C1425 C1428 1.526 . S
C1426 H1410 0.959 . S
C1426 H1411 0.959 . S
C1426 H1412 0.961 . S
C1426 C1425 1.502 . S
C1427 H1413 0.960 . S
C1427 H1414 0.961 . S
C1427 H1415 0.959 . S
C1427 C1425 1.561 . S
C1428 C1425 1.526 . S
C1428 C1429 1.396 . S
C1428 C1433 1.390 . S
C1429 C1423 1.465 . S
C1429 C1428 1.396 . S
C1429 C1430 1.399 . S
C1430 H1416 0.929 . S
C1430 C1429 1.399 . S
C1430 C1431 1.385 . S
C1431 H1417 0.931 . S
C1431 C1430 1.385 . S
C1431 C1432 1.389 . S
C1432 C1431 1.389 . S
C1432 C1433 1.387 . S
C1433 H1418 0.930 . S
C1433 C1428 1.390 . S
C1433 C1432 1.387 . S
H1434 C1446 0.930 . S
H1435 C1448 0.930 . S
H1436 C1449 0.930 . S
H1437 C1453 0.959 . S
H1438 C1453 0.959 . S
H1439 C1453 0.961 . S
H1440 C1454 0.960 . S
H1441 C1454 0.961 . S
H1442 C1454 0.959 . S
H1443 C1457 0.929 . S
H1444 C1458 0.931 . S
H1445 C1460 0.930 . S
C1446 H1434 0.930 . S
C1446 C1447 1.399 . S
C1446 C1451 1.399 . S
C1447 C1446 1.399 . S
C1447 C1448 1.376 . S
C1448 H1435 0.930 . S
C1448 C1447 1.376 . S
C1448 C1449 1.388 . S
C1449 H1436 0.930 . S
C1449 C1448 1.388 . S
C1449 C1450 1.390 . S
C1450 C1449 1.390 . S
C1450 C1451 1.394 . S
C1450 C1456 1.465 . S
C1451 C1446 1.399 . S
C1451 C1450 1.394 . S
C1451 C1452 1.516 . S
C1452 C1451 1.516 . S
C1452 C1453 1.502 . S
C1452 C1454 1.561 . S
C1452 C1455 1.526 . S
C1453 H1437 0.959 . S
C1453 H1438 0.959 . S
C1453 H1439 0.961 . S
C1453 C1452 1.502 . S
C1454 H1440 0.960 . S
C1454 H1441 0.961 . S
C1454 H1442 0.959 . S
C1454 C1452 1.561 . S
C1455 C1452 1.526 . S
C1455 C1456 1.396 . S
C1455 C1460 1.390 . S
C1456 C1450 1.465 . S
C1456 C1455 1.396 . S
C1456 C1457 1.399 . S
C1457 H1443 0.929 . S
C1457 C1456 1.399 . S
C1457 C1458 1.385 . S
C1458 H1444 0.931 . S
C1458 C1457 1.385 . S
C1458 C1459 1.389 . S
C1459 C1458 1.389 . S
C1459 C1460 1.387 . S
C1460 H1445 0.930 . S
C1460 C1455 1.390 . S
C1460 C1459 1.387 . S
H1461 C1473 0.930 . S
H1462 C1475 0.930 . S
H1463 C1476 0.930 . S
H1464 C1480 0.959 . S
H1465 C1480 0.959 . S
H1466 C1480 0.961 . S
H1467 C1481 0.960 . S
H1468 C1481 0.961 . S
H1469 C1481 0.959 . S
H1470 C1484 0.929 . S
H1471 C1485 0.931 . S
H1472 C1487 0.930 . S
C1473 H1461 0.930 . S
C1473 C1474 1.399 . S
C1473 C1478 1.399 . S
C1474 C1473 1.399 . S
C1474 C1475 1.376 . S
C1475 H1462 0.930 . S
C1475 C1474 1.376 . S
C1475 C1476 1.388 . S
C1476 H1463 0.930 . S
C1476 C1475 1.388 . S
C1476 C1477 1.390 . S
C1477 C1476 1.390 . S
C1477 C1478 1.394 . S
C1477 C1483 1.465 . S
C1478 C1473 1.399 . S
C1478 C1477 1.394 . S
C1478 C1479 1.516 . S
C1479 C1478 1.516 . S
C1479 C1480 1.502 . S
C1479 C1481 1.561 . S
C1479 C1482 1.526 . S
C1480 H1464 0.959 . S
C1480 H1465 0.959 . S
C1480 H1466 0.961 . S
C1480 C1479 1.502 . S
C1481 H1467 0.960 . S
C1481 H1468 0.961 . S
C1481 H1469 0.959 . S
C1481 C1479 1.561 . S
C1482 C1479 1.526 . S
C1482 C1483 1.396 . S
C1482 C1487 1.390 . S
C1483 C1477 1.465 . S
C1483 C1482 1.396 . S
C1483 C1484 1.399 . S
C1484 H1470 0.929 . S
C1484 C1483 1.399 . S
C1484 C1485 1.385 . S
C1485 H1471 0.931 . S
C1485 C1484 1.385 . S
C1485 C1486 1.389 . S
C1486 C1485 1.389 . S
C1486 C1487 1.387 . S
C1487 H1472 0.930 . S
C1487 C1482 1.390 . S
C1487 C1486 1.387 . S
H1488 C1500 0.930 . S
H1489 C1502 0.930 . S
H1490 C1503 0.930 . S
H1491 C1507 0.959 . S
H1492 C1507 0.959 . S
H1493 C1507 0.961 . S
H1494 C1508 0.960 . S
H1495 C1508 0.961 . S
H1496 C1508 0.959 . S
H1497 C1511 0.929 . S
H1498 C1512 0.931 . S
H1499 C1514 0.930 . S
C1500 H1488 0.930 . S
C1500 C1501 1.399 . S
C1500 C1505 1.399 . S
C1501 C1500 1.399 . S
C1501 C1502 1.376 . S
C1502 H1489 0.930 . S
C1502 C1501 1.376 . S
C1502 C1503 1.388 . S
C1503 H1490 0.930 . S
C1503 C1502 1.388 . S
C1503 C1504 1.390 . S
C1504 C1503 1.390 . S
C1504 C1505 1.394 . S
C1504 C1510 1.465 . S
C1505 C1500 1.399 . S
C1505 C1504 1.394 . S
C1505 C1506 1.516 . S
C1506 C1505 1.516 . S
C1506 C1507 1.502 . S
C1506 C1508 1.561 . S
C1506 C1509 1.526 . S
C1507 H1491 0.959 . S
C1507 H1492 0.959 . S
C1507 H1493 0.961 . S
C1507 C1506 1.502 . S
C1508 H1494 0.960 . S
C1508 H1495 0.961 . S
C1508 H1496 0.959 . S
C1508 C1506 1.561 . S
C1509 C1506 1.526 . S
C1509 C1510 1.396 . S
C1509 C1514 1.390 . S
C1510 C1504 1.465 . S
C1510 C1509 1.396 . S
C1510 C1511 1.399 . S
C1511 H1497 0.929 . S
C1511 C1510 1.399 . S
C1511 C1512 1.385 . S
C1512 H1498 0.931 . S
C1512 C1511 1.385 . S
C1512 C1513 1.389 . S
C1513 C1512 1.389 . S
C1513 C1514 1.387 . S
C1514 H1499 0.930 . S
C1514 C1509 1.390 . S
C1514 C1513 1.387 . S
H1515 C1527 0.930 . S
H1516 C1529 0.930 . S
H1517 C1530 0.930 . S
H1518 C1534 0.959 . S
H1519 C1534 0.959 . S
H1520 C1534 0.961 . S
H1521 C1535 0.960 . S
H1522 C1535 0.961 . S
H1523 C1535 0.959 . S
H1524 C1538 0.929 . S
H1525 C1539 0.931 . S
H1526 C1541 0.930 . S
C1527 H1515 0.930 . S
C1527 C1528 1.399 . S
C1527 C1532 1.399 . S
C1528 C1527 1.399 . S
C1528 C1529 1.376 . S
C1529 H1516 0.930 . S
C1529 C1528 1.376 . S
C1529 C1530 1.388 . S
C1530 H1517 0.930 . S
C1530 C1529 1.388 . S
C1530 C1531 1.390 . S
C1531 C1530 1.390 . S
C1531 C1532 1.394 . S
C1531 C1537 1.465 . S
C1532 C1527 1.399 . S
C1532 C1531 1.394 . S
C1532 C1533 1.516 . S
C1533 C1532 1.516 . S
C1533 C1534 1.502 . S
C1533 C1535 1.561 . S
C1533 C1536 1.526 . S
C1534 H1518 0.959 . S
C1534 H1519 0.959 . S
C1534 H1520 0.961 . S
C1534 C1533 1.502 . S
C1535 H1521 0.960 . S
C1535 H1522 0.961 . S
C1535 H1523 0.959 . S
C1535 C1533 1.561 . S
C1536 C1533 1.526 . S
C1536 C1537 1.396 . S
C1536 C1541 1.390 . S
C1537 C1531 1.465 . S
C1537 C1536 1.396 . S
C1537 C1538 1.399 . S
C1538 H1524 0.929 . S
C1538 C1537 1.399 . S
C1538 C1539 1.385 . S
C1539 H1525 0.931 . S
C1539 C1538 1.385 . S
C1539 C1540 1.389 . S
C1540 C1539 1.389 . S
C1540 C1541 1.387 . S
C1541 H1526 0.930 . S
C1541 C1536 1.390 . S
C1541 C1540 1.387 . S
H1542 C1554 0.930 . S
H1543 C1556 0.930 . S
H1544 C1557 0.930 . S
H1545 C1561 0.959 . S
H1546 C1561 0.959 . S
H1547 C1561 0.961 . S
H1548 C1562 0.960 . S
H1549 C1562 0.961 . S
H1550 C1562 0.959 . S
H1551 C1565 0.929 . S
H1552 C1566 0.931 . S
H1553 C1568 0.930 . S
C1554 H1542 0.930 . S
C1554 C1555 1.399 . S
C1554 C1559 1.399 . S
C1555 C1554 1.399 . S
C1555 C1556 1.376 . S
C1556 H1543 0.930 . S
C1556 C1555 1.376 . S
C1556 C1557 1.388 . S
C1557 H1544 0.930 . S
C1557 C1556 1.388 . S
C1557 C1558 1.390 . S
C1558 C1557 1.390 . S
C1558 C1559 1.394 . S
C1558 C1564 1.465 . S
C1559 C1554 1.399 . S
C1559 C1558 1.394 . S
C1559 C1560 1.516 . S
C1560 C1559 1.516 . S
C1560 C1561 1.502 . S
C1560 C1562 1.561 . S
C1560 C1563 1.526 . S
C1561 H1545 0.959 . S
C1561 H1546 0.959 . S
C1561 H1547 0.961 . S
C1561 C1560 1.502 . S
C1562 H1548 0.960 . S
C1562 H1549 0.961 . S
C1562 H1550 0.959 . S
C1562 C1560 1.561 . S
C1563 C1560 1.526 . S
C1563 C1564 1.396 . S
C1563 C1568 1.390 . S
C1564 C1558 1.465 . S
C1564 C1563 1.396 . S
C1564 C1565 1.399 . S
C1565 H1551 0.929 . S
C1565 C1564 1.399 . S
C1565 C1566 1.385 . S
C1566 H1552 0.931 . S
C1566 C1565 1.385 . S
C1566 C1567 1.389 . S
C1567 C1566 1.389 . S
C1567 C1568 1.387 . S
C1568 H1553 0.930 . S
C1568 C1563 1.390 . S
C1568 C1567 1.387 . S
H1569 C1581 0.930 . S
H1570 C1583 0.930 . S
H1571 C1584 0.930 . S
H1572 C1588 0.959 . S
H1573 C1588 0.959 . S
H1574 C1588 0.961 . S
H1575 C1589 0.960 . S
H1576 C1589 0.961 . S
H1577 C1589 0.959 . S
H1578 C1592 0.929 . S
H1579 C1593 0.931 . S
H1580 C1595 0.930 . S
C1581 H1569 0.930 . S
C1581 C1582 1.399 . S
C1581 C1586 1.399 . S
C1582 C1581 1.399 . S
C1582 C1583 1.376 . S
C1583 H1570 0.930 . S
C1583 C1582 1.376 . S
C1583 C1584 1.388 . S
C1584 H1571 0.930 . S
C1584 C1583 1.388 . S
C1584 C1585 1.390 . S
C1585 C1584 1.390 . S
C1585 C1586 1.394 . S
C1585 C1591 1.465 . S
C1586 C1581 1.399 . S
C1586 C1585 1.394 . S
C1586 C1587 1.516 . S
C1587 C1586 1.516 . S
C1587 C1588 1.502 . S
C1587 C1589 1.561 . S
C1587 C1590 1.526 . S
C1588 H1572 0.959 . S
C1588 H1573 0.959 . S
C1588 H1574 0.961 . S
C1588 C1587 1.502 . S
C1589 H1575 0.960 . S
C1589 H1576 0.961 . S
C1589 H1577 0.959 . S
C1589 C1587 1.561 . S
C1590 C1587 1.526 . S
C1590 C1591 1.396 . S
C1590 C1595 1.390 . S
C1591 C1585 1.465 . S
C1591 C1590 1.396 . S
C1591 C1592 1.399 . S
C1592 H1578 0.929 . S
C1592 C1591 1.399 . S
C1592 C1593 1.385 . S
C1593 H1579 0.931 . S
C1593 C1592 1.385 . S
C1593 C1594 1.389 . S
C1594 C1593 1.389 . S
C1594 C1595 1.387 . S
C1595 H1580 0.930 . S
C1595 C1590 1.390 . S
C1595 C1594 1.387 . S
H1596 C1608 0.930 . S
H1597 C1610 0.930 . S
H1598 C1611 0.930 . S
H1599 C1615 0.959 . S
H1600 C1615 0.959 . S
H1601 C1615 0.961 . S
H1602 C1616 0.960 . S
H1603 C1616 0.961 . S
H1604 C1616 0.959 . S
H1605 C1619 0.929 . S
H1606 C1620 0.931 . S
H1607 C1622 0.930 . S
C1608 H1596 0.930 . S
C1608 C1609 1.399 . S
C1608 C1613 1.399 . S
C1609 C1608 1.399 . S
C1609 C1610 1.376 . S
C1610 H1597 0.930 . S
C1610 C1609 1.376 . S
C1610 C1611 1.388 . S
C1611 H1598 0.930 . S
C1611 C1610 1.388 . S
C1611 C1612 1.390 . S
C1612 C1611 1.390 . S
C1612 C1613 1.394 . S
C1612 C1618 1.465 . S
C1613 C1608 1.399 . S
C1613 C1612 1.394 . S
C1613 C1614 1.516 . S
C1614 C1613 1.516 . S
C1614 C1615 1.502 . S
C1614 C1616 1.561 . S
C1614 C1617 1.526 . S
C1615 H1599 0.959 . S
C1615 H1600 0.959 . S
C1615 H1601 0.961 . S
C1615 C1614 1.502 . S
C1616 H1602 0.960 . S
C1616 H1603 0.961 . S
C1616 H1604 0.959 . S
C1616 C1614 1.561 . S
C1617 C1614 1.526 . S
C1617 C1618 1.396 . S
C1617 C1622 1.390 . S
C1618 C1612 1.465 . S
C1618 C1617 1.396 . S
C1618 C1619 1.399 . S
C1619 H1605 0.929 . S
C1619 C1618 1.399 . S
C1619 C1620 1.385 . S
C1620 H1606 0.931 . S
C1620 C1619 1.385 . S
C1620 C1621 1.389 . S
C1621 C1620 1.389 . S
C1621 C1622 1.387 . S
C1622 H1607 0.930 . S
C1622 C1617 1.390 . S
C1622 C1621 1.387 . S
H1623 C1635 0.930 . S
H1624 C1637 0.930 . S
H1625 C1638 0.930 . S
H1626 C1642 0.959 . S
H1627 C1642 0.959 . S
H1628 C1642 0.961 . S
H1629 C1643 0.960 . S
H1630 C1643 0.961 . S
H1631 C1643 0.959 . S
H1632 C1646 0.929 . S
H1633 C1647 0.931 . S
H1634 C1649 0.930 . S
C1635 H1623 0.930 . S
C1635 C1636 1.399 . S
C1635 C1640 1.399 . S
C1636 C1635 1.399 . S
C1636 C1637 1.376 . S
C1637 H1624 0.930 . S
C1637 C1636 1.376 . S
C1637 C1638 1.388 . S
C1638 H1625 0.930 . S
C1638 C1637 1.388 . S
C1638 C1639 1.390 . S
C1639 C1638 1.390 . S
C1639 C1640 1.394 . S
C1639 C1645 1.465 . S
C1640 C1635 1.399 . S
C1640 C1639 1.394 . S
C1640 C1641 1.516 . S
C1641 C1640 1.516 . S
C1641 C1642 1.502 . S
C1641 C1643 1.561 . S
C1641 C1644 1.526 . S
C1642 H1626 0.959 . S
C1642 H1627 0.959 . S
C1642 H1628 0.961 . S
C1642 C1641 1.502 . S
C1643 H1629 0.960 . S
C1643 H1630 0.961 . S
C1643 H1631 0.959 . S
C1643 C1641 1.561 . S
C1644 C1641 1.526 . S
C1644 C1645 1.396 . S
C1644 C1649 1.390 . S
C1645 C1639 1.465 . S
C1645 C1644 1.396 . S
C1645 C1646 1.399 . S
C1646 H1632 0.929 . S
C1646 C1645 1.399 . S
C1646 C1647 1.385 . S
C1647 H1633 0.931 . S
C1647 C1646 1.385 . S
C1647 C1648 1.389 . S
C1648 C1647 1.389 . S
C1648 C1649 1.387 . S
C1649 H1634 0.930 . S
C1649 C1644 1.390 . S
C1649 C1648 1.387 . S
H1650 C1662 0.930 . S
H1651 C1664 0.930 . S
H1652 C1665 0.930 . S
H1653 C1669 0.959 . S
H1654 C1669 0.959 . S
H1655 C1669 0.961 . S
H1656 C1670 0.960 . S
H1657 C1670 0.961 . S
H1658 C1670 0.959 . S
H1659 C1673 0.929 . S
H1660 C1674 0.931 . S
H1661 C1676 0.930 . S
C1662 H1650 0.930 . S
C1662 C1663 1.399 . S
C1662 C1667 1.399 . S
C1663 C1662 1.399 . S
C1663 C1664 1.376 . S
C1664 H1651 0.930 . S
C1664 C1663 1.376 . S
C1664 C1665 1.388 . S
C1665 H1652 0.930 . S
C1665 C1664 1.388 . S
C1665 C1666 1.390 . S
C1666 C1665 1.390 . S
C1666 C1667 1.394 . S
C1666 C1672 1.465 . S
C1667 C1662 1.399 . S
C1667 C1666 1.394 . S
C1667 C1668 1.516 . S
C1668 C1667 1.516 . S
C1668 C1669 1.502 . S
C1668 C1670 1.561 . S
C1668 C1671 1.526 . S
C1669 H1653 0.959 . S
C1669 H1654 0.959 . S
C1669 H1655 0.961 . S
C1669 C1668 1.502 . S
C1670 H1656 0.960 . S
C1670 H1657 0.961 . S
C1670 H1658 0.959 . S
C1670 C1668 1.561 . S
C1671 C1668 1.526 . S
C1671 C1672 1.396 . S
C1671 C1676 1.390 . S
C1672 C1666 1.465 . S
C1672 C1671 1.396 . S
C1672 C1673 1.399 . S
C1673 H1659 0.929 . S
C1673 C1672 1.399 . S
C1673 C1674 1.385 . S
C1674 H1660 0.931 . S
C1674 C1673 1.385 . S
C1674 C1675 1.389 . S
C1675 C1674 1.389 . S
C1675 C1676 1.387 . S
C1676 H1661 0.930 . S
C1676 C1671 1.390 . S
C1676 C1675 1.387 . S
H1677 C1689 0.930 . S
H1678 C1691 0.930 . S
H1679 C1692 0.930 . S
H1680 C1696 0.959 . S
H1681 C1696 0.959 . S
H1682 C1696 0.961 . S
H1683 C1697 0.960 . S
H1684 C1697 0.961 . S
H1685 C1697 0.959 . S
H1686 C1700 0.929 . S
H1687 C1701 0.931 . S
H1688 C1703 0.930 . S
C1689 H1677 0.930 . S
C1689 C1690 1.399 . S
C1689 C1694 1.399 . S
C1690 C1689 1.399 . S
C1690 C1691 1.376 . S
C1691 H1678 0.930 . S
C1691 C1690 1.376 . S
C1691 C1692 1.388 . S
C1692 H1679 0.930 . S
C1692 C1691 1.388 . S
C1692 C1693 1.390 . S
C1693 C1692 1.390 . S
C1693 C1694 1.394 . S
C1693 C1699 1.465 . S
C1694 C1689 1.399 . S
C1694 C1693 1.394 . S
C1694 C1695 1.516 . S
C1695 C1694 1.516 . S
C1695 C1696 1.502 . S
C1695 C1697 1.561 . S
C1695 C1698 1.526 . S
C1696 H1680 0.959 . S
C1696 H1681 0.959 . S
C1696 H1682 0.961 . S
C1696 C1695 1.502 . S
C1697 H1683 0.960 . S
C1697 H1684 0.961 . S
C1697 H1685 0.959 . S
C1697 C1695 1.561 . S
C1698 C1695 1.526 . S
C1698 C1699 1.396 . S
C1698 C1703 1.390 . S
C1699 C1693 1.465 . S
C1699 C1698 1.396 . S
C1699 C1700 1.399 . S
C1700 H1686 0.929 . S
C1700 C1699 1.399 . S
C1700 C1701 1.385 . S
C1701 H1687 0.931 . S
C1701 C1700 1.385 . S
C1701 C1702 1.389 . S
C1702 C1701 1.389 . S
C1702 C1703 1.387 . S
C1703 H1688 0.930 . S
C1703 C1698 1.390 . S
C1703 C1702 1.387 . S
H1704 C1716 0.930 . S
H1705 C1718 0.930 . S
H1706 C1719 0.930 . S
H1707 C1723 0.959 . S
H1708 C1723 0.959 . S
H1709 C1723 0.961 . S
H1710 C1724 0.960 . S
H1711 C1724 0.961 . S
H1712 C1724 0.959 . S
H1713 C1727 0.929 . S
H1714 C1728 0.931 . S
H1715 C1730 0.930 . S
C1716 H1704 0.930 . S
C1716 C1717 1.399 . S
C1716 C1721 1.399 . S
C1717 C1716 1.399 . S
C1717 C1718 1.376 . S
C1718 H1705 0.930 . S
C1718 C1717 1.376 . S
C1718 C1719 1.388 . S
C1719 H1706 0.930 . S
C1719 C1718 1.388 . S
C1719 C1720 1.390 . S
C1720 C1719 1.390 . S
C1720 C1721 1.394 . S
C1720 C1726 1.465 . S
C1721 C1716 1.399 . S
C1721 C1720 1.394 . S
C1721 C1722 1.516 . S
C1722 C1721 1.516 . S
C1722 C1723 1.502 . S
C1722 C1724 1.561 . S
C1722 C1725 1.526 . S
C1723 H1707 0.959 . S
C1723 H1708 0.959 . S
C1723 H1709 0.961 . S
C1723 C1722 1.502 . S
C1724 H1710 0.960 . S
C1724 H1711 0.961 . S
C1724 H1712 0.959 . S
C1724 C1722 1.561 . S
C1725 C1722 1.526 . S
C1725 C1726 1.396 . S
C1725 C1730 1.390 . S
C1726 C1720 1.465 . S
C1726 C1725 1.396 . S
C1726 C1727 1.399 . S
C1727 H1713 0.929 . S
C1727 C1726 1.399 . S
C1727 C1728 1.385 . S
C1728 H1714 0.931 . S
C1728 C1727 1.385 . S
C1728 C1729 1.389 . S
C1729 C1728 1.389 . S
C1729 C1730 1.387 . S
C1730 H1715 0.930 . S
C1730 C1725 1.390 . S
C1730 C1729 1.387 . S
H1731 C1743 0.930 . S
H1732 C1745 0.930 . S
H1733 C1746 0.930 . S
H1734 C1750 0.959 . S
H1735 C1750 0.959 . S
H1736 C1750 0.961 . S
H1737 C1751 0.960 . S
H1738 C1751 0.961 . S
H1739 C1751 0.959 . S
H1740 C1754 0.929 . S
H1741 C1755 0.931 . S
H1742 C1757 0.930 . S
C1743 H1731 0.930 . S
C1743 C1744 1.399 . S
C1743 C1748 1.399 . S
C1744 C1743 1.399 . S
C1744 C1745 1.376 . S
C1745 H1732 0.930 . S
C1745 C1744 1.376 . S
C1745 C1746 1.388 . S
C1746 H1733 0.930 . S
C1746 C1745 1.388 . S
C1746 C1747 1.390 . S
C1747 C1746 1.390 . S
C1747 C1748 1.394 . S
C1747 C1753 1.465 . S
C1748 C1743 1.399 . S
C1748 C1747 1.394 . S
C1748 C1749 1.516 . S
C1749 C1748 1.516 . S
C1749 C1750 1.502 . S
C1749 C1751 1.561 . S
C1749 C1752 1.526 . S
C1750 H1734 0.959 . S
C1750 H1735 0.959 . S
C1750 H1736 0.961 . S
C1750 C1749 1.502 . S
C1751 H1737 0.960 . S
C1751 H1738 0.961 . S
C1751 H1739 0.959 . S
C1751 C1749 1.561 . S
C1752 C1749 1.526 . S
C1752 C1753 1.396 . S
C1752 C1757 1.390 . S
C1753 C1747 1.465 . S
C1753 C1752 1.396 . S
C1753 C1754 1.399 . S
C1754 H1740 0.929 . S
C1754 C1753 1.399 . S
C1754 C1755 1.385 . S
C1755 H1741 0.931 . S
C1755 C1754 1.385 . S
C1755 C1756 1.389 . S
C1756 C1755 1.389 . S
C1756 C1757 1.387 . S
C1757 H1742 0.930 . S
C1757 C1752 1.390 . S
C1757 C1756 1.387 . S
H1758 C1770 0.930 . S
H1759 C1772 0.930 . S
H1760 C1773 0.930 . S
H1761 C1777 0.959 . S
H1762 C1777 0.959 . S
H1763 C1777 0.961 . S
H1764 C1778 0.960 . S
H1765 C1778 0.961 . S
H1766 C1778 0.959 . S
H1767 C1781 0.929 . S
H1768 C1782 0.931 . S
H1769 C1784 0.930 . S
C1770 H1758 0.930 . S
C1770 C1771 1.399 . S
C1770 C1775 1.399 . S
C1771 C1770 1.399 . S
C1771 C1772 1.376 . S
C1772 H1759 0.930 . S
C1772 C1771 1.376 . S
C1772 C1773 1.388 . S
C1773 H1760 0.930 . S
C1773 C1772 1.388 . S
C1773 C1774 1.390 . S
C1774 C1773 1.390 . S
C1774 C1775 1.394 . S
C1774 C1780 1.465 . S
C1775 C1770 1.399 . S
C1775 C1774 1.394 . S
C1775 C1776 1.516 . S
C1776 C1775 1.516 . S
C1776 C1777 1.502 . S
C1776 C1778 1.561 . S
C1776 C1779 1.526 . S
C1777 H1761 0.959 . S
C1777 H1762 0.959 . S
C1777 H1763 0.961 . S
C1777 C1776 1.502 . S
C1778 H1764 0.960 . S
C1778 H1765 0.961 . S
C1778 H1766 0.959 . S
C1778 C1776 1.561 . S
C1779 C1776 1.526 . S
C1779 C1780 1.396 . S
C1779 C1784 1.390 . S
C1780 C1774 1.465 . S
C1780 C1779 1.396 . S
C1780 C1781 1.399 . S
C1781 H1767 0.929 . S
C1781 C1780 1.399 . S
C1781 C1782 1.385 . S
C1782 H1768 0.931 . S
C1782 C1781 1.385 . S
C1782 C1783 1.389 . S
C1783 C1782 1.389 . S
C1783 C1784 1.387 . S
C1784 H1769 0.930 . S
C1784 C1779 1.390 . S
C1784 C1783 1.387 . S
H1785 C1797 0.930 . S
H1786 C1799 0.930 . S
H1787 C1800 0.930 . S
H1788 C1804 0.959 . S
H1789 C1804 0.959 . S
H1790 C1804 0.961 . S
H1791 C1805 0.960 . S
H1792 C1805 0.961 . S
H1793 C1805 0.959 . S
H1794 C1808 0.929 . S
H1795 C1809 0.931 . S
H1796 C1811 0.930 . S
C1797 H1785 0.930 . S
C1797 C1798 1.399 . S
C1797 C1802 1.399 . S
C1798 C1797 1.399 . S
C1798 C1799 1.376 . S
C1799 H1786 0.930 . S
C1799 C1798 1.376 . S
C1799 C1800 1.388 . S
C1800 H1787 0.930 . S
C1800 C1799 1.388 . S
C1800 C1801 1.390 . S
C1801 C1800 1.390 . S
C1801 C1802 1.394 . S
C1801 C1807 1.465 . S
C1802 C1797 1.399 . S
C1802 C1801 1.394 . S
C1802 C1803 1.516 . S
C1803 C1802 1.516 . S
C1803 C1804 1.502 . S
C1803 C1805 1.561 . S
C1803 C1806 1.526 . S
C1804 H1788 0.959 . S
C1804 H1789 0.959 . S
C1804 H1790 0.961 . S
C1804 C1803 1.502 . S
C1805 H1791 0.960 . S
C1805 H1792 0.961 . S
C1805 H1793 0.959 . S
C1805 C1803 1.561 . S
C1806 C1803 1.526 . S
C1806 C1807 1.396 . S
C1806 C1811 1.390 . S
C1807 C1801 1.465 . S
C1807 C1806 1.396 . S
C1807 C1808 1.399 . S
C1808 H1794 0.929 . S
C1808 C1807 1.399 . S
C1808 C1809 1.385 . S
C1809 H1795 0.931 . S
C1809 C1808 1.385 . S
C1809 C1810 1.389 . S
C1810 C1809 1.389 . S
C1810 C1811 1.387 . S
C1811 H1796 0.930 . S
C1811 C1806 1.390 . S
C1811 C1810 1.387 . S
H1812 C1824 0.930 . S
H1813 C1826 0.930 . S
H1814 C1827 0.930 . S
H1815 C1831 0.959 . S
H1816 C1831 0.959 . S
H1817 C1831 0.961 . S
H1818 C1832 0.960 . S
H1819 C1832 0.961 . S
H1820 C1832 0.959 . S
H1821 C1835 0.929 . S
H1822 C1836 0.931 . S
H1823 C1838 0.930 . S
C1824 H1812 0.930 . S
C1824 C1825 1.399 . S
C1824 C1829 1.399 . S
C1825 C1824 1.399 . S
C1825 C1826 1.376 . S
C1826 H1813 0.930 . S
C1826 C1825 1.376 . S
C1826 C1827 1.388 . S
C1827 H1814 0.930 . S
C1827 C1826 1.388 . S
C1827 C1828 1.390 . S
C1828 C1827 1.390 . S
C1828 C1829 1.394 . S
C1828 C1834 1.465 . S
C1829 C1824 1.399 . S
C1829 C1828 1.394 . S
C1829 C1830 1.516 . S
C1830 C1829 1.516 . S
C1830 C1831 1.502 . S
C1830 C1832 1.561 . S
C1830 C1833 1.526 . S
C1831 H1815 0.959 . S
C1831 H1816 0.959 . S
C1831 H1817 0.961 . S
C1831 C1830 1.502 . S
C1832 H1818 0.960 . S
C1832 H1819 0.961 . S
C1832 H1820 0.959 . S
C1832 C1830 1.561 . S
C1833 C1830 1.526 . S
C1833 C1834 1.396 . S
C1833 C1838 1.390 . S
C1834 C1828 1.465 . S
C1834 C1833 1.396 . S
C1834 C1835 1.399 . S
C1835 H1821 0.929 . S
C1835 C1834 1.399 . S
C1835 C1836 1.385 . S
C1836 H1822 0.931 . S
C1836 C1835 1.385 . S
C1836 C1837 1.389 . S
C1837 C1836 1.389 . S
C1837 C1838 1.387 . S
C1838 H1823 0.930 . S
C1838 C1833 1.390 . S
C1838 C1837 1.387 . S
H1839 C1851 0.930 . S
H1840 C1853 0.930 . S
H1841 C1854 0.930 . S
H1842 C1858 0.959 . S
H1843 C1858 0.959 . S
H1844 C1858 0.961 . S
H1845 C1859 0.960 . S
H1846 C1859 0.961 . S
H1847 C1859 0.959 . S
H1848 C1862 0.929 . S
H1849 C1863 0.931 . S
H1850 C1865 0.930 . S
C1851 H1839 0.930 . S
C1851 C1852 1.399 . S
C1851 C1856 1.399 . S
C1852 C1851 1.399 . S
C1852 C1853 1.376 . S
C1853 H1840 0.930 . S
C1853 C1852 1.376 . S
C1853 C1854 1.388 . S
C1854 H1841 0.930 . S
C1854 C1853 1.388 . S
C1854 C1855 1.390 . S
C1855 C1854 1.390 . S
C1855 C1856 1.394 . S
C1855 C1861 1.465 . S
C1856 C1851 1.399 . S
C1856 C1855 1.394 . S
C1856 C1857 1.516 . S
C1857 C1856 1.516 . S
C1857 C1858 1.502 . S
C1857 C1859 1.561 . S
C1857 C1860 1.526 . S
C1858 H1842 0.959 . S
C1858 H1843 0.959 . S
C1858 H1844 0.961 . S
C1858 C1857 1.502 . S
C1859 H1845 0.960 . S
C1859 H1846 0.961 . S
C1859 H1847 0.959 . S
C1859 C1857 1.561 . S
C1860 C1857 1.526 . S
C1860 C1861 1.396 . S
C1860 C1865 1.390 . S
C1861 C1855 1.465 . S
C1861 C1860 1.396 . S
C1861 C1862 1.399 . S
C1862 H1848 0.929 . S
C1862 C1861 1.399 . S
C1862 C1863 1.385 . S
C1863 H1849 0.931 . S
C1863 C1862 1.385 . S
C1863 C1864 1.389 . S
C1864 C1863 1.389 . S
C1864 C1865 1.387 . S
C1865 H1850 0.930 . S
C1865 C1860 1.390 . S
C1865 C1864 1.387 . S
H1866 C1878 0.930 . S
H1867 C1880 0.930 . S
H1868 C1881 0.930 . S
H1869 C1885 0.959 . S
H1870 C1885 0.959 . S
H1871 C1885 0.961 . S
H1872 C1886 0.960 . S
H1873 C1886 0.961 . S
H1874 C1886 0.959 . S
H1875 C1889 0.929 . S
H1876 C1890 0.931 . S
H1877 C1892 0.930 . S
C1878 H1866 0.930 . S
C1878 C1879 1.399 . S
C1878 C1883 1.399 . S
C1879 C1878 1.399 . S
C1879 C1880 1.376 . S
C1880 H1867 0.930 . S
C1880 C1879 1.376 . S
C1880 C1881 1.388 . S
C1881 H1868 0.930 . S
C1881 C1880 1.388 . S
C1881 C1882 1.390 . S
C1882 C1881 1.390 . S
C1882 C1883 1.394 . S
C1882 C1888 1.465 . S
C1883 C1878 1.399 . S
C1883 C1882 1.394 . S
C1883 C1884 1.516 . S
C1884 C1883 1.516 . S
C1884 C1885 1.502 . S
C1884 C1886 1.561 . S
C1884 C1887 1.526 . S
C1885 H1869 0.959 . S
C1885 H1870 0.959 . S
C1885 H1871 0.961 . S
C1885 C1884 1.502 . S
C1886 H1872 0.960 . S
C1886 H1873 0.961 . S
C1886 H1874 0.959 . S
C1886 C1884 1.561 . S
C1887 C1884 1.526 . S
C1887 C1888 1.396 . S
C1887 C1892 1.390 . S
C1888 C1882 1.465 . S
C1888 C1887 1.396 . S
C1888 C1889 1.399 . S
C1889 H1875 0.929 . S
C1889 C1888 1.399 . S
C1889 C1890 1.385 . S
C1890 H1876 0.931 . S
C1890 C1889 1.385 . S
C1890 C1891 1.389 . S
C1891 C1890 1.389 . S
C1891 C1892 1.387 . S
C1892 H1877 0.930 . S
C1892 C1887 1.390 . S
C1892 C1891 1.387 . S
H1893 C1905 0.930 . S
H1894 C1907 0.930 . S
H1895 C1908 0.930 . S
H1896 C1912 0.959 . S
H1897 C1912 0.959 . S
H1898 C1912 0.961 . S
H1899 C1913 0.960 . S
H1900 C1913 0.961 . S
H1901 C1913 0.959 . S
H1902 C1916 0.929 . S
H1903 C1917 0.931 . S
H1904 C1919 0.930 . S
C1905 H1893 0.930 . S
C1905 C1906 1.399 . S
C1905 C1910 1.399 . S
C1906 C1905 1.399 . S
C1906 C1907 1.376 . S
C1907 H1894 0.930 . S
C1907 C1906 1.376 . S
C1907 C1908 1.388 . S
C1908 H1895 0.930 . S
C1908 C1907 1.388 . S
C1908 C1909 1.390 . S
C1909 C1908 1.390 . S
C1909 C1910 1.394 . S
C1909 C1915 1.465 . S
C1910 C1905 1.399 . S
C1910 C1909 1.394 . S
C1910 C1911 1.516 . S
C1911 C1910 1.516 . S
C1911 C1912 1.502 . S
C1911 C1913 1.561 . S
C1911 C1914 1.526 . S
C1912 H1896 0.959 . S
C1912 H1897 0.959 . S
C1912 H1898 0.961 . S
C1912 C1911 1.502 . S
C1913 H1899 0.960 . S
C1913 H1900 0.961 . S
C1913 H1901 0.959 . S
C1913 C1911 1.561 . S
C1914 C1911 1.526 . S
C1914 C1915 1.396 . S
C1914 C1919 1.390 . S
C1915 C1909 1.465 . S
C1915 C1914 1.396 . S
C1915 C1916 1.399 . S
C1916 H1902 0.929 . S
C1916 C1915 1.399 . S
C1916 C1917 1.385 . S
C1917 H1903 0.931 . S
C1917 C1916 1.385 . S
C1917 C1918 1.389 . S
C1918 C1917 1.389 . S
C1918 C1919 1.387 . S
C1919 H1904 0.930 . S
C1919 C1914 1.390 . S
C1919 C1918 1.387 . S
H1920 C1932 0.930 . S
H1921 C1934 0.930 . S
H1922 C1935 0.930 . S
H1923 C1939 0.959 . S
H1924 C1939 0.959 . S
H1925 C1939 0.961 . S
H1926 C1940 0.960 . S
H1927 C1940 0.961 . S
H1928 C1940 0.959 . S
H1929 C1943 0.929 . S
H1930 C1944 0.931 . S
H1931 C1946 0.930 . S
C1932 H1920 0.930 . S
C1932 C1933 1.399 . S
C1932 C1937 1.399 . S
C1933 C1932 1.399 . S
C1933 C1934 1.376 . S
C1934 H1921 0.930 . S
C1934 C1933 1.376 . S
C1934 C1935 1.388 . S
C1935 H1922 0.930 . S
C1935 C1934 1.388 . S
C1935 C1936 1.390 . S
C1936 C1935 1.390 . S
C1936 C1937 1.394 . S
C1936 C1942 1.465 . S
C1937 C1932 1.399 . S
C1937 C1936 1.394 . S
C1937 C1938 1.516 . S
C1938 C1937 1.516 . S
C1938 C1939 1.502 . S
C1938 C1940 1.561 . S
C1938 C1941 1.526 . S
C1939 H1923 0.959 . S
C1939 H1924 0.959 . S
C1939 H1925 0.961 . S
C1939 C1938 1.502 . S
C1940 H1926 0.960 . S
C1940 H1927 0.961 . S
C1940 H1928 0.959 . S
C1940 C1938 1.561 . S
C1941 C1938 1.526 . S
C1941 C1942 1.396 . S
C1941 C1946 1.390 . S
C1942 C1936 1.465 . S
C1942 C1941 1.396 . S
C1942 C1943 1.399 . S
C1943 H1929 0.929 . S
C1943 C1942 1.399 . S
C1943 C1944 1.385 . S
C1944 H1930 0.931 . S
C1944 C1943 1.385 . S
C1944 C1945 1.389 . S
C1945 C1944 1.389 . S
C1945 C1946 1.387 . S
C1946 H1931 0.930 . S
C1946 C1941 1.390 . S
C1946 C1945 1.387 . S
H1947 C1959 0.930 . S
H1948 C1961 0.930 . S
H1949 C1962 0.930 . S
H1950 C1966 0.959 . S
H1951 C1966 0.959 . S
H1952 C1966 0.961 . S
H1953 C1967 0.960 . S
H1954 C1967 0.961 . S
H1955 C1967 0.959 . S
H1956 C1970 0.929 . S
H1957 C1971 0.931 . S
H1958 C1973 0.930 . S
C1959 H1947 0.930 . S
C1959 C1960 1.399 . S
C1959 C1964 1.399 . S
C1960 C1959 1.399 . S
C1960 C1961 1.376 . S
C1961 H1948 0.930 . S
C1961 C1960 1.376 . S
C1961 C1962 1.388 . S
C1962 H1949 0.930 . S
C1962 C1961 1.388 . S
C1962 C1963 1.390 . S
C1963 C1962 1.390 . S
C1963 C1964 1.394 . S
C1963 C1969 1.465 . S
C1964 C1959 1.399 . S
C1964 C1963 1.394 . S
C1964 C1965 1.516 . S
C1965 C1964 1.516 . S
C1965 C1966 1.502 . S
C1965 C1967 1.561 . S
C1965 C1968 1.526 . S
C1966 H1950 0.959 . S
C1966 H1951 0.959 . S
C1966 H1952 0.961 . S
C1966 C1965 1.502 . S
C1967 H1953 0.960 . S
C1967 H1954 0.961 . S
C1967 H1955 0.959 . S
C1967 C1965 1.561 . S
C1968 C1965 1.526 . S
C1968 C1969 1.396 . S
C1968 C1973 1.390 . S
C1969 C1963 1.465 . S
C1969 C1968 1.396 . S
C1969 C1970 1.399 . S
C1970 H1956 0.929 . S
C1970 C1969 1.399 . S
C1970 C1971 1.385 . S
C1971 H1957 0.931 . S
C1971 C1970 1.385 . S
C1971 C1972 1.389 . S
C1972 C1971 1.389 . S
C1972 C1973 1.387 . S
C1973 H1958 0.930 . S
C1973 C1968 1.390 . S
C1973 C1972 1.387 . S
H1974 C1986 0.930 . S
H1975 C1988 0.930 . S
H1976 C1989 0.930 . S
H1977 C1993 0.959 . S
H1978 C1993 0.959 . S
H1979 C1993 0.961 . S
H1980 C1994 0.960 . S
H1981 C1994 0.961 . S
H1982 C1994 0.959 . S
H1983 C1997 0.929 . S
H1984 C1998 0.931 . S
H1985 C2000 0.930 . S
C1986 H1974 0.930 . S
C1986 C1987 1.399 . S
C1986 C1991 1.399 . S
C1987 C1986 1.399 . S
C1987 C1988 1.376 . S
C1988 H1975 0.930 . S
C1988 C1987 1.376 . S
C1988 C1989 1.388 . S
C1989 H1976 0.930 . S
C1989 C1988 1.388 . S
C1989 C1990 1.390 . S
C1990 C1989 1.390 . S
C1990 C1991 1.394 . S
C1990 C1996 1.465 . S
C1991 C1986 1.399 . S
C1991 C1990 1.394 . S
C1991 C1992 1.516 . S
C1992 C1991 1.516 . S
C1992 C1993 1.502 . S
C1992 C1994 1.561 . S
C1992 C1995 1.526 . S
C1993 H1977 0.959 . S
C1993 H1978 0.959 . S
C1993 H1979 0.961 . S
C1993 C1992 1.502 . S
C1994 H1980 0.960 . S
C1994 H1981 0.961 . S
C1994 H1982 0.959 . S
C1994 C1992 1.561 . S
C1995 C1992 1.526 . S
C1995 C1996 1.396 . S
C1995 C2000 1.390 . S
C1996 C1990 1.465 . S
C1996 C1995 1.396 . S
C1996 C1997 1.399 . S
C1997 H1983 0.929 . S
C1997 C1996 1.399 . S
C1997 C1998 1.385 . S
C1998 H1984 0.931 . S
C1998 C1997 1.385 . S
C1998 C1999 1.389 . S
C1999 C1998 1.389 . S
C1999 C2000 1.387 . S
C2000 H1985 0.930 . S
C2000 C1995 1.390 . S
C2000 C1999 1.387 . S
H2001 C2013 0.930 . S
H2002 C2015 0.930 . S
H2003 C2016 0.930 . S
H2004 C2020 0.959 . S
H2005 C2020 0.959 . S
H2006 C2020 0.961 . S
H2007 C2021 0.960 . S
H2008 C2021 0.961 . S
H2009 C2021 0.959 . S
H2010 C2024 0.929 . S
H2011 C2025 0.931 . S
H2012 C2027 0.930 . S
C2013 H2001 0.930 . S
C2013 C2014 1.399 . S
C2013 C2018 1.399 . S
C2014 C2013 1.399 . S
C2014 C2015 1.376 . S
C2015 H2002 0.930 . S
C2015 C2014 1.376 . S
C2015 C2016 1.388 . S
C2016 H2003 0.930 . S
C2016 C2015 1.388 . S
C2016 C2017 1.390 . S
C2017 C2016 1.390 . S
C2017 C2018 1.394 . S
C2017 C2023 1.465 . S
C2018 C2013 1.399 . S
C2018 C2017 1.394 . S
C2018 C2019 1.516 . S
C2019 C2018 1.516 . S
C2019 C2020 1.502 . S
C2019 C2021 1.561 . S
C2019 C2022 1.526 . S
C2020 H2004 0.959 . S
C2020 H2005 0.959 . S
C2020 H2006 0.961 . S
C2020 C2019 1.502 . S
C2021 H2007 0.960 . S
C2021 H2008 0.961 . S
C2021 H2009 0.959 . S
C2021 C2019 1.561 . S
C2022 C2019 1.526 . S
C2022 C2023 1.396 . S
C2022 C2027 1.390 . S
C2023 C2017 1.465 . S
C2023 C2022 1.396 . S
C2023 C2024 1.399 . S
C2024 H2010 0.929 . S
C2024 C2023 1.399 . S
C2024 C2025 1.385 . S
C2025 H2011 0.931 . S
C2025 C2024 1.385 . S
C2025 C2026 1.389 . S
C2026 C2025 1.389 . S
C2026 C2027 1.387 . S
C2027 H2012 0.930 . S
C2027 C2022 1.390 . S
C2027 C2026 1.387 . S
H2028 C2040 0.930 . S
H2029 C2042 0.930 . S
H2030 C2043 0.930 . S
H2031 C2047 0.959 . S
H2032 C2047 0.959 . S
H2033 C2047 0.961 . S
H2034 C2048 0.960 . S
H2035 C2048 0.961 . S
H2036 C2048 0.959 . S
H2037 C2051 0.929 . S
H2038 C2052 0.931 . S
H2039 C2054 0.930 . S
C2040 H2028 0.930 . S
C2040 C2041 1.399 . S
C2040 C2045 1.399 . S
C2041 C2040 1.399 . S
C2041 C2042 1.376 . S
C2042 H2029 0.930 . S
C2042 C2041 1.376 . S
C2042 C2043 1.388 . S
C2043 H2030 0.930 . S
C2043 C2042 1.388 . S
C2043 C2044 1.390 . S
C2044 C2043 1.390 . S
C2044 C2045 1.394 . S
C2044 C2050 1.465 . S
C2045 C2040 1.399 . S
C2045 C2044 1.394 . S
C2045 C2046 1.516 . S
C2046 C2045 1.516 . S
C2046 C2047 1.502 . S
C2046 C2048 1.561 . S
C2046 C2049 1.526 . S
C2047 H2031 0.959 . S
C2047 H2032 0.959 . S
C2047 H2033 0.961 . S
C2047 C2046 1.502 . S
C2048 H2034 0.960 . S
C2048 H2035 0.961 . S
C2048 H2036 0.959 . S
C2048 C2046 1.561 . S
C2049 C2046 1.526 . S
C2049 C2050 1.396 . S
C2049 C2054 1.390 . S
C2050 C2044 1.465 . S
C2050 C2049 1.396 . S
C2050 C2051 1.399 . S
C2051 H2037 0.929 . S
C2051 C2050 1.399 . S
C2051 C2052 1.385 . S
C2052 H2038 0.931 . S
C2052 C2051 1.385 . S
C2052 C2053 1.389 . S
C2053 C2052 1.389 . S
C2053 C2054 1.387 . S
C2054 H2039 0.930 . S
C2054 C2049 1.390 . S
C2054 C2053 1.387 . S
H2055 C2067 0.930 . S
H2056 C2069 0.930 . S
H2057 C2070 0.930 . S
H2058 C2074 0.959 . S
H2059 C2074 0.959 . S
H2060 C2074 0.961 . S
H2061 C2075 0.960 . S
H2062 C2075 0.961 . S
H2063 C2075 0.959 . S
H2064 C2078 0.929 . S
H2065 C2079 0.931 . S
H2066 C2081 0.930 . S
C2067 H2055 0.930 . S
C2067 C2068 1.399 . S
C2067 C2072 1.399 . S
C2068 C2067 1.399 . S
C2068 C2069 1.376 . S
C2069 H2056 0.930 . S
C2069 C2068 1.376 . S
C2069 C2070 1.388 . S
C2070 H2057 0.930 . S
C2070 C2069 1.388 . S
C2070 C2071 1.390 . S
C2071 C2070 1.390 . S
C2071 C2072 1.394 . S
C2071 C2077 1.465 . S
C2072 C2067 1.399 . S
C2072 C2071 1.394 . S
C2072 C2073 1.516 . S
C2073 C2072 1.516 . S
C2073 C2074 1.502 . S
C2073 C2075 1.561 . S
C2073 C2076 1.526 . S
C2074 H2058 0.959 . S
C2074 H2059 0.959 . S
C2074 H2060 0.961 . S
C2074 C2073 1.502 . S
C2075 H2061 0.960 . S
C2075 H2062 0.961 . S
C2075 H2063 0.959 . S
C2075 C2073 1.561 . S
C2076 C2073 1.526 . S
C2076 C2077 1.396 . S
C2076 C2081 1.390 . S
C2077 C2071 1.465 . S
C2077 C2076 1.396 . S
C2077 C2078 1.399 . S
C2078 H2064 0.929 . S
C2078 C2077 1.399 . S
C2078 C2079 1.385 . S
C2079 H2065 0.931 . S
C2079 C2078 1.385 . S
C2079 C2080 1.389 . S
C2080 C2079 1.389 . S
C2080 C2081 1.387 . S
C2081 H2066 0.930 . S
C2081 C2076 1.390 . S
C2081 C2080 1.387 . S
H2082 C2094 0.930 . S
H2083 C2096 0.930 . S
H2084 C2097 0.930 . S
H2085 C2101 0.959 . S
H2086 C2101 0.959 . S
H2087 C2101 0.961 . S
H2088 C2102 0.960 . S
H2089 C2102 0.961 . S
H2090 C2102 0.959 . S
H2091 C2105 0.929 . S
H2092 C2106 0.931 . S
H2093 C2108 0.930 . S
C2094 H2082 0.930 . S
C2094 C2095 1.399 . S
C2094 C2099 1.399 . S
C2095 C2094 1.399 . S
C2095 C2096 1.376 . S
C2096 H2083 0.930 . S
C2096 C2095 1.376 . S
C2096 C2097 1.388 . S
C2097 H2084 0.930 . S
C2097 C2096 1.388 . S
C2097 C2098 1.390 . S
C2098 C2097 1.390 . S
C2098 C2099 1.394 . S
C2098 C2104 1.465 . S
C2099 C2094 1.399 . S
C2099 C2098 1.394 . S
C2099 C2100 1.516 . S
C2100 C2099 1.516 . S
C2100 C2101 1.502 . S
C2100 C2102 1.561 . S
C2100 C2103 1.526 . S
C2101 H2085 0.959 . S
C2101 H2086 0.959 . S
C2101 H2087 0.961 . S
C2101 C2100 1.502 . S
C2102 H2088 0.960 . S
C2102 H2089 0.961 . S
C2102 H2090 0.959 . S
C2102 C2100 1.561 . S
C2103 C2100 1.526 . S
C2103 C2104 1.396 . S
C2103 C2108 1.390 . S
C2104 C2098 1.465 . S
C2104 C2103 1.396 . S
C2104 C2105 1.399 . S
C2105 H2091 0.929 . S
C2105 C2104 1.399 . S
C2105 C2106 1.385 . S
C2106 H2092 0.931 . S
C2106 C2105 1.385 . S
C2106 C2107 1.389 . S
C2107 C2106 1.389 . S
C2107 C2108 1.387 . S
C2108 H2093 0.930 . S
C2108 C2103 1.390 . S
C2108 C2107 1.387 . S
H2109 C2121 0.930 . S
H2110 C2123 0.930 . S
H2111 C2124 0.930 . S
H2112 C2128 0.959 . S
H2113 C2128 0.959 . S
H2114 C2128 0.961 . S
H2115 C2129 0.960 . S
H2116 C2129 0.961 . S
H2117 C2129 0.959 . S
H2118 C2132 0.929 . S
H2119 C2133 0.931 . S
H2120 C2135 0.930 . S
C2121 H2109 0.930 . S
C2121 C2122 1.399 . S
C2121 C2126 1.399 . S
C2122 C2121 1.399 . S
C2122 C2123 1.376 . S
C2123 H2110 0.930 . S
C2123 C2122 1.376 . S
C2123 C2124 1.388 . S
C2124 H2111 0.930 . S
C2124 C2123 1.388 . S
C2124 C2125 1.390 . S
C2125 C2124 1.390 . S
C2125 C2126 1.394 . S
C2125 C2131 1.465 . S
C2126 C2121 1.399 . S
C2126 C2125 1.394 . S
C2126 C2127 1.516 . S
C2127 C2126 1.516 . S
C2127 C2128 1.502 . S
C2127 C2129 1.561 . S
C2127 C2130 1.526 . S
C2128 H2112 0.959 . S
C2128 H2113 0.959 . S
C2128 H2114 0.961 . S
C2128 C2127 1.502 . S
C2129 H2115 0.960 . S
C2129 H2116 0.961 . S
C2129 H2117 0.959 . S
C2129 C2127 1.561 . S
C2130 C2127 1.526 . S
C2130 C2131 1.396 . S
C2130 C2135 1.390 . S
C2131 C2125 1.465 . S
C2131 C2130 1.396 . S
C2131 C2132 1.399 . S
C2132 H2118 0.929 . S
C2132 C2131 1.399 . S
C2132 C2133 1.385 . S
C2133 H2119 0.931 . S
C2133 C2132 1.385 . S
C2133 C2134 1.389 . S
C2134 C2133 1.389 . S
C2134 C2135 1.387 . S
C2135 H2120 0.930 . S
C2135 C2130 1.390 . S
C2135 C2134 1.387 . S
H2136 C2148 0.930 . S
H2137 C2150 0.930 1_554 S
H2138 C2151 0.930 . S
H2139 C2155 0.959 . S
H2140 C2155 0.959 . S
H2141 C2155 0.961 . S
H2142 C2156 0.960 . S
H2143 C2156 0.961 . S
H2144 C2156 0.959 . S
H2145 C2159 0.929 . S
H2146 C2160 0.931 . S
H2147 C2162 0.930 . S
C2148 H2136 0.930 . S
C2148 C2149 1.399 . S
C2148 C2153 1.399 . S
C2149 C2148 1.399 . S
C2149 C2150 1.376 . S
C2150 H2137 0.930 1_556 S
C2150 C2149 1.376 . S
C2150 C2151 1.388 . S
C2151 H2138 0.930 . S
C2151 C2150 1.388 . S
C2151 C2152 1.390 . S
C2152 C2151 1.390 . S
C2152 C2153 1.394 . S
C2152 C2158 1.465 . S
C2153 C2148 1.399 . S
C2153 C2152 1.394 . S
C2153 C2154 1.516 . S
C2154 C2153 1.516 . S
C2154 C2155 1.502 . S
C2154 C2156 1.561 . S
C2154 C2157 1.526 . S
C2155 H2139 0.959 . S
C2155 H2140 0.959 . S
C2155 H2141 0.961 . S
C2155 C2154 1.502 . S
C2156 H2142 0.960 . S
C2156 H2143 0.961 . S
C2156 H2144 0.959 . S
C2156 C2154 1.561 . S
C2157 C2154 1.526 . S
C2157 C2158 1.396 . S
C2157 C2162 1.390 . S
C2158 C2152 1.465 . S
C2158 C2157 1.396 . S
C2158 C2159 1.399 . S
C2159 H2145 0.929 . S
C2159 C2158 1.399 . S
C2159 C2160 1.385 . S
C2160 H2146 0.931 . S
C2160 C2159 1.385 . S
C2160 C2161 1.389 . S
C2161 C2160 1.389 . S
C2161 C2162 1.387 . S
C2162 H2147 0.930 . S
C2162 C2157 1.390 . S
C2162 C2161 1.387 . S
H2163 C2175 0.930 . S
H2164 C2177 0.930 . S
H2165 C2178 0.930 . S
H2166 C2182 0.959 . S
H2167 C2182 0.959 . S
H2168 C2182 0.961 . S
H2169 C2183 0.960 . S
H2170 C2183 0.961 . S
H2171 C2183 0.959 . S
H2172 C2186 0.929 . S
H2173 C2187 0.931 . S
H2174 C2189 0.930 . S
C2175 H2163 0.930 . S
C2175 C2176 1.399 . S
C2175 C2180 1.399 . S
C2176 C2175 1.399 . S
C2176 C2177 1.376 . S
C2177 H2164 0.930 . S
C2177 C2176 1.376 . S
C2177 C2178 1.388 . S
C2178 H2165 0.930 . S
C2178 C2177 1.388 . S
C2178 C2179 1.390 . S
C2179 C2178 1.390 . S
C2179 C2180 1.394 . S
C2179 C2185 1.465 . S
C2180 C2175 1.399 . S
C2180 C2179 1.394 . S
C2180 C2181 1.516 . S
C2181 C2180 1.516 . S
C2181 C2182 1.502 . S
C2181 C2183 1.561 . S
C2181 C2184 1.526 . S
C2182 H2166 0.959 . S
C2182 H2167 0.959 . S
C2182 H2168 0.961 . S
C2182 C2181 1.502 . S
C2183 H2169 0.960 . S
C2183 H2170 0.961 . S
C2183 H2171 0.959 . S
C2183 C2181 1.561 . S
C2184 C2181 1.526 . S
C2184 C2185 1.396 . S
C2184 C2189 1.390 . S
C2185 C2179 1.465 . S
C2185 C2184 1.396 . S
C2185 C2186 1.399 . S
C2186 H2172 0.929 . S
C2186 C2185 1.399 . S
C2186 C2187 1.385 . S
C2187 H2173 0.931 . S
C2187 C2186 1.385 . S
C2187 C2188 1.389 . S
C2188 C2187 1.389 . S
C2188 C2189 1.387 . S
C2189 H2174 0.930 . S
C2189 C2184 1.390 . S
C2189 C2188 1.387 . S
H2190 C2202 0.930 . S
H2191 C2204 0.930 . S
H2192 C2205 0.930 . S
H2193 C2209 0.959 . S
H2194 C2209 0.959 . S
H2195 C2209 0.961 . S
H2196 C2210 0.960 . S
H2197 C2210 0.961 . S
H2198 C2210 0.959 . S
H2199 C2213 0.929 . S
H2200 C2214 0.931 . S
H2201 C2216 0.930 . S
C2202 H2190 0.930 . S
C2202 C2203 1.399 . S
C2202 C2207 1.399 . S
C2203 C2202 1.399 . S
C2203 C2204 1.376 . S
C2204 H2191 0.930 . S
C2204 C2203 1.376 . S
C2204 C2205 1.388 . S
C2205 H2192 0.930 . S
C2205 C2204 1.388 . S
C2205 C2206 1.390 . S
C2206 C2205 1.390 . S
C2206 C2207 1.394 . S
C2206 C2212 1.465 . S
C2207 C2202 1.399 . S
C2207 C2206 1.394 . S
C2207 C2208 1.516 . S
C2208 C2207 1.516 . S
C2208 C2209 1.502 . S
C2208 C2210 1.561 . S
C2208 C2211 1.526 . S
C2209 H2193 0.959 . S
C2209 H2194 0.959 . S
C2209 H2195 0.961 . S
C2209 C2208 1.502 . S
C2210 H2196 0.960 . S
C2210 H2197 0.961 . S
C2210 H2198 0.959 . S
C2210 C2208 1.561 . S
C2211 C2208 1.526 . S
C2211 C2212 1.396 . S
C2211 C2216 1.390 . S
C2212 C2206 1.465 . S
C2212 C2211 1.396 . S
C2212 C2213 1.399 . S
C2213 H2199 0.929 . S
C2213 C2212 1.399 . S
C2213 C2214 1.385 . S
C2214 H2200 0.931 . S
C2214 C2213 1.385 . S
C2214 C2215 1.389 . S
C2215 C2214 1.389 . S
C2215 C2216 1.387 . S
C2216 H2201 0.930 . S
C2216 C2211 1.390 . S
C2216 C2215 1.387 . S
H2217 C2229 0.930 . S
H2218 C2231 0.930 . S
H2219 C2232 0.930 . S
H2220 C2236 0.959 . S
H2221 C2236 0.959 . S
H2222 C2236 0.961 . S
H2223 C2237 0.960 . S
H2224 C2237 0.961 . S
H2225 C2237 0.959 . S
H2226 C2240 0.929 . S
H2227 C2241 0.931 . S
H2228 C2243 0.930 . S
C2229 H2217 0.930 . S
C2229 C2230 1.399 . S
C2229 C2234 1.399 . S
C2230 C2229 1.399 . S
C2230 C2231 1.376 . S
C2231 H2218 0.930 . S
C2231 C2230 1.376 . S
C2231 C2232 1.388 . S
C2232 H2219 0.930 . S
C2232 C2231 1.388 . S
C2232 C2233 1.390 . S
C2233 C2232 1.390 . S
C2233 C2234 1.394 . S
C2233 C2239 1.465 . S
C2234 C2229 1.399 . S
C2234 C2233 1.394 . S
C2234 C2235 1.516 . S
C2235 C2234 1.516 . S
C2235 C2236 1.502 . S
C2235 C2237 1.561 . S
C2235 C2238 1.526 . S
C2236 H2220 0.959 . S
C2236 H2221 0.959 . S
C2236 H2222 0.961 . S
C2236 C2235 1.502 . S
C2237 H2223 0.960 . S
C2237 H2224 0.961 . S
C2237 H2225 0.959 . S
C2237 C2235 1.561 . S
C2238 C2235 1.526 . S
C2238 C2239 1.396 . S
C2238 C2243 1.390 . S
C2239 C2233 1.465 . S
C2239 C2238 1.396 . S
C2239 C2240 1.399 . S
C2240 H2226 0.929 . S
C2240 C2239 1.399 . S
C2240 C2241 1.385 . S
C2241 H2227 0.931 . S
C2241 C2240 1.385 . S
C2241 C2242 1.389 . S
C2242 C2241 1.389 . S
C2242 C2243 1.387 . S
C2243 H2228 0.930 . S
C2243 C2238 1.390 . S
C2243 C2242 1.387 . S
H2244 C2256 0.930 . S
H2245 C2258 0.930 . S
H2246 C2259 0.930 . S
H2247 C2263 0.959 . S
H2248 C2263 0.959 . S
H2249 C2263 0.961 . S
H2250 C2264 0.960 . S
H2251 C2264 0.961 . S
H2252 C2264 0.959 . S
H2253 C2267 0.929 . S
H2254 C2268 0.931 . S
H2255 C2270 0.930 . S
C2256 H2244 0.930 . S
C2256 C2257 1.399 . S
C2256 C2261 1.399 . S
C2257 C2256 1.399 . S
C2257 C2258 1.376 . S
C2258 H2245 0.930 . S
C2258 C2257 1.376 . S
C2258 C2259 1.388 . S
C2259 H2246 0.930 . S
C2259 C2258 1.388 . S
C2259 C2260 1.390 . S
C2260 C2259 1.390 . S
C2260 C2261 1.394 . S
C2260 C2266 1.465 . S
C2261 C2256 1.399 . S
C2261 C2260 1.394 . S
C2261 C2262 1.516 . S
C2262 C2261 1.516 . S
C2262 C2263 1.502 . S
C2262 C2264 1.561 . S
C2262 C2265 1.526 . S
C2263 H2247 0.959 . S
C2263 H2248 0.959 . S
C2263 H2249 0.961 . S
C2263 C2262 1.502 . S
C2264 H2250 0.960 . S
C2264 H2251 0.961 . S
C2264 H2252 0.959 . S
C2264 C2262 1.561 . S
C2265 C2262 1.526 . S
C2265 C2266 1.396 . S
C2265 C2270 1.390 . S
C2266 C2260 1.465 . S
C2266 C2265 1.396 . S
C2266 C2267 1.399 . S
C2267 H2253 0.929 . S
C2267 C2266 1.399 . S
C2267 C2268 1.385 . S
C2268 H2254 0.931 . S
C2268 C2267 1.385 . S
C2268 C2269 1.389 . S
C2269 C2268 1.389 . S
C2269 C2270 1.387 . S
C2270 H2255 0.930 . S
C2270 C2265 1.390 . S
C2270 C2269 1.387 . S
H2271 C2283 0.930 . S
H2272 C2285 0.930 . S
H2273 C2286 0.930 . S
H2274 C2290 0.959 . S
H2275 C2290 0.959 . S
H2276 C2290 0.961 . S
H2277 C2291 0.960 . S
H2278 C2291 0.961 . S
H2279 C2291 0.959 . S
H2280 C2294 0.929 . S
H2281 C2295 0.931 . S
H2282 C2297 0.930 . S
C2283 H2271 0.930 . S
C2283 C2284 1.399 . S
C2283 C2288 1.399 . S
C2284 C2283 1.399 . S
C2284 C2285 1.376 . S
C2285 H2272 0.930 . S
C2285 C2284 1.376 . S
C2285 C2286 1.388 . S
C2286 H2273 0.930 . S
C2286 C2285 1.388 . S
C2286 C2287 1.390 . S
C2287 C2286 1.390 . S
C2287 C2288 1.394 . S
C2287 C2293 1.465 . S
C2288 C2283 1.399 . S
C2288 C2287 1.394 . S
C2288 C2289 1.516 . S
C2289 C2288 1.516 . S
C2289 C2290 1.502 . S
C2289 C2291 1.561 . S
C2289 C2292 1.526 . S
C2290 H2274 0.959 . S
C2290 H2275 0.959 . S
C2290 H2276 0.961 . S
C2290 C2289 1.502 . S
C2291 H2277 0.960 . S
C2291 H2278 0.961 . S
C2291 H2279 0.959 . S
C2291 C2289 1.561 . S
C2292 C2289 1.526 . S
C2292 C2293 1.396 . S
C2292 C2297 1.390 . S
C2293 C2287 1.465 . S
C2293 C2292 1.396 . S
C2293 C2294 1.399 . S
C2294 H2280 0.929 . S
C2294 C2293 1.399 . S
C2294 C2295 1.385 . S
C2295 H2281 0.931 . S
C2295 C2294 1.385 . S
C2295 C2296 1.389 . S
C2296 C2295 1.389 . S
C2296 C2297 1.387 . S
C2297 H2282 0.930 . S
C2297 C2292 1.390 . S
C2297 C2296 1.387 . S
H2298 C2310 0.930 . S
H2299 C2312 0.930 . S
H2300 C2313 0.930 . S
H2301 C2317 0.959 . S
H2302 C2317 0.959 . S
H2303 C2317 0.961 . S
H2304 C2318 0.960 . S
H2305 C2318 0.961 . S
H2306 C2318 0.959 . S
H2307 C2321 0.929 . S
H2308 C2322 0.931 . S
H2309 C2324 0.930 . S
C2310 H2298 0.930 . S
C2310 C2311 1.399 . S
C2310 C2315 1.399 . S
C2311 C2310 1.399 . S
C2311 C2312 1.376 . S
C2312 H2299 0.930 . S
C2312 C2311 1.376 . S
C2312 C2313 1.388 . S
C2313 H2300 0.930 . S
C2313 C2312 1.388 . S
C2313 C2314 1.390 . S
C2314 C2313 1.390 . S
C2314 C2315 1.394 . S
C2314 C2320 1.465 . S
C2315 C2310 1.399 . S
C2315 C2314 1.394 . S
C2315 C2316 1.516 . S
C2316 C2315 1.516 . S
C2316 C2317 1.502 . S
C2316 C2318 1.561 . S
C2316 C2319 1.526 . S
C2317 H2301 0.959 . S
C2317 H2302 0.959 . S
C2317 H2303 0.961 . S
C2317 C2316 1.502 . S
C2318 H2304 0.960 . S
C2318 H2305 0.961 . S
C2318 H2306 0.959 . S
C2318 C2316 1.561 . S
C2319 C2316 1.526 . S
C2319 C2320 1.396 . S
C2319 C2324 1.390 . S
C2320 C2314 1.465 . S
C2320 C2319 1.396 . S
C2320 C2321 1.399 . S
C2321 H2307 0.929 . S
C2321 C2320 1.399 . S
C2321 C2322 1.385 . S
C2322 H2308 0.931 . S
C2322 C2321 1.385 . S
C2322 C2323 1.389 . S
C2323 C2322 1.389 . S
C2323 C2324 1.387 . S
C2324 H2309 0.930 . S
C2324 C2319 1.390 . S
C2324 C2323 1.387 . S
H2325 C2337 0.930 . S
H2326 C2339 0.930 . S
H2327 C2340 0.930 . S
H2328 C2344 0.959 . S
H2329 C2344 0.959 . S
H2330 C2344 0.961 . S
H2331 C2345 0.960 . S
H2332 C2345 0.961 . S
H2333 C2345 0.959 . S
H2334 C2348 0.929 . S
H2335 C2349 0.931 . S
H2336 C2351 0.930 . S
C2337 H2325 0.930 . S
C2337 C2338 1.399 . S
C2337 C2342 1.399 . S
C2338 C2337 1.399 . S
C2338 C2339 1.376 . S
C2339 H2326 0.930 . S
C2339 C2338 1.376 . S
C2339 C2340 1.388 . S
C2340 H2327 0.930 . S
C2340 C2339 1.388 . S
C2340 C2341 1.390 . S
C2341 C2340 1.390 . S
C2341 C2342 1.394 . S
C2341 C2347 1.465 . S
C2342 C2337 1.399 . S
C2342 C2341 1.394 . S
C2342 C2343 1.516 . S
C2343 C2342 1.516 . S
C2343 C2344 1.502 . S
C2343 C2345 1.561 . S
C2343 C2346 1.526 . S
C2344 H2328 0.959 . S
C2344 H2329 0.959 . S
C2344 H2330 0.961 . S
C2344 C2343 1.502 . S
C2345 H2331 0.960 . S
C2345 H2332 0.961 . S
C2345 H2333 0.959 . S
C2345 C2343 1.561 . S
C2346 C2343 1.526 . S
C2346 C2347 1.396 . S
C2346 C2351 1.390 . S
C2347 C2341 1.465 . S
C2347 C2346 1.396 . S
C2347 C2348 1.399 . S
C2348 H2334 0.929 . S
C2348 C2347 1.399 . S
C2348 C2349 1.385 . S
C2349 H2335 0.931 . S
C2349 C2348 1.385 . S
C2349 C2350 1.389 . S
C2350 C2349 1.389 . S
C2350 C2351 1.387 . S
C2351 H2336 0.930 . S
C2351 C2346 1.390 . S
C2351 C2350 1.387 . S
H2352 C2364 0.930 . S
H2353 C2366 0.930 . S
H2354 C2367 0.930 . S
H2355 C2371 0.959 . S
H2356 C2371 0.959 . S
H2357 C2371 0.961 . S
H2358 C2372 0.960 . S
H2359 C2372 0.961 . S
H2360 C2372 0.959 . S
H2361 C2375 0.929 . S
H2362 C2376 0.931 . S
H2363 C2378 0.930 . S
C2364 H2352 0.930 . S
C2364 C2365 1.399 . S
C2364 C2369 1.399 . S
C2365 C2364 1.399 . S
C2365 C2366 1.376 . S
C2366 H2353 0.930 . S
C2366 C2365 1.376 . S
C2366 C2367 1.388 . S
C2367 H2354 0.930 . S
C2367 C2366 1.388 . S
C2367 C2368 1.390 . S
C2368 C2367 1.390 . S
C2368 C2369 1.394 . S
C2368 C2374 1.465 . S
C2369 C2364 1.399 . S
C2369 C2368 1.394 . S
C2369 C2370 1.516 . S
C2370 C2369 1.516 . S
C2370 C2371 1.502 . S
C2370 C2372 1.561 . S
C2370 C2373 1.526 . S
C2371 H2355 0.959 . S
C2371 H2356 0.959 . S
C2371 H2357 0.961 . S
C2371 C2370 1.502 . S
C2372 H2358 0.960 . S
C2372 H2359 0.961 . S
C2372 H2360 0.959 . S
C2372 C2370 1.561 . S
C2373 C2370 1.526 . S
C2373 C2374 1.396 . S
C2373 C2378 1.390 . S
C2374 C2368 1.465 . S
C2374 C2373 1.396 . S
C2374 C2375 1.399 . S
C2375 H2361 0.929 . S
C2375 C2374 1.399 . S
C2375 C2376 1.385 . S
C2376 H2362 0.931 . S
C2376 C2375 1.385 . S
C2376 C2377 1.389 . S
C2377 C2376 1.389 . S
C2377 C2378 1.387 . S
C2378 H2363 0.930 . S
C2378 C2373 1.390 . S
C2378 C2377 1.387 . S
H2379 C2391 0.930 . S
H2380 C2393 0.930 . S
H2381 C2394 0.930 . S
H2382 C2398 0.959 . S
H2383 C2398 0.959 . S
H2384 C2398 0.961 . S
H2385 C2399 0.960 . S
H2386 C2399 0.961 . S
H2387 C2399 0.959 . S
H2388 C2402 0.929 . S
H2389 C2403 0.931 . S
H2390 C2405 0.930 . S
C2391 H2379 0.930 . S
C2391 C2392 1.399 . S
C2391 C2396 1.399 . S
C2392 C2391 1.399 . S
C2392 C2393 1.376 . S
C2393 H2380 0.930 . S
C2393 C2392 1.376 . S
C2393 C2394 1.388 . S
C2394 H2381 0.930 . S
C2394 C2393 1.388 . S
C2394 C2395 1.390 . S
C2395 C2394 1.390 . S
C2395 C2396 1.394 . S
C2395 C2401 1.465 . S
C2396 C2391 1.399 . S
C2396 C2395 1.394 . S
C2396 C2397 1.516 . S
C2397 C2396 1.516 . S
C2397 C2398 1.502 . S
C2397 C2399 1.561 . S
C2397 C2400 1.526 . S
C2398 H2382 0.959 . S
C2398 H2383 0.959 . S
C2398 H2384 0.961 . S
C2398 C2397 1.502 . S
C2399 H2385 0.960 . S
C2399 H2386 0.961 . S
C2399 H2387 0.959 . S
C2399 C2397 1.561 . S
C2400 C2397 1.526 . S
C2400 C2401 1.396 . S
C2400 C2405 1.390 . S
C2401 C2395 1.465 . S
C2401 C2400 1.396 . S
C2401 C2402 1.399 . S
C2402 H2388 0.929 . S
C2402 C2401 1.399 . S
C2402 C2403 1.385 . S
C2403 H2389 0.931 . S
C2403 C2402 1.385 . S
C2403 C2404 1.389 . S
C2404 C2403 1.389 . S
C2404 C2405 1.387 . S
C2405 H2390 0.930 . S
C2405 C2400 1.390 . S
C2405 C2404 1.387 . S
H2406 C2418 0.930 . S
H2407 C2420 0.930 . S
H2408 C2421 0.930 . S
H2409 C2425 0.959 . S
H2410 C2425 0.959 . S
H2411 C2425 0.961 . S
H2412 C2426 0.960 . S
H2413 C2426 0.961 . S
H2414 C2426 0.959 . S
H2415 C2429 0.929 . S
H2416 C2430 0.931 . S
H2417 C2432 0.930 . S
C2418 H2406 0.930 . S
C2418 C2419 1.399 . S
C2418 C2423 1.399 . S
C2419 C2418 1.399 . S
C2419 C2420 1.376 . S
C2420 H2407 0.930 . S
C2420 C2419 1.376 . S
C2420 C2421 1.388 . S
C2421 H2408 0.930 . S
C2421 C2420 1.388 . S
C2421 C2422 1.390 . S
C2422 C2421 1.390 . S
C2422 C2423 1.394 . S
C2422 C2428 1.465 . S
C2423 C2418 1.399 . S
C2423 C2422 1.394 . S
C2423 C2424 1.516 . S
C2424 C2423 1.516 . S
C2424 C2425 1.502 . S
C2424 C2426 1.561 . S
C2424 C2427 1.526 . S
C2425 H2409 0.959 . S
C2425 H2410 0.959 . S
C2425 H2411 0.961 . S
C2425 C2424 1.502 . S
C2426 H2412 0.960 . S
C2426 H2413 0.961 . S
C2426 H2414 0.959 . S
C2426 C2424 1.561 . S
C2427 C2424 1.526 . S
C2427 C2428 1.396 . S
C2427 C2432 1.390 . S
C2428 C2422 1.465 . S
C2428 C2427 1.396 . S
C2428 C2429 1.399 . S
C2429 H2415 0.929 . S
C2429 C2428 1.399 . S
C2429 C2430 1.385 . S
C2430 H2416 0.931 . S
C2430 C2429 1.385 . S
C2430 C2431 1.389 . S
C2431 C2430 1.389 . S
C2431 C2432 1.387 . S
C2432 H2417 0.930 . S
C2432 C2427 1.390 . S
C2432 C2431 1.387 . S
H2433 C2445 0.930 . S
H2434 C2447 0.930 . S
H2435 C2448 0.930 . S
H2436 C2452 0.959 . S
H2437 C2452 0.959 . S
H2438 C2452 0.961 . S
H2439 C2453 0.960 . S
H2440 C2453 0.961 . S
H2441 C2453 0.959 . S
H2442 C2456 0.929 . S
H2443 C2457 0.931 . S
H2444 C2459 0.930 . S
C2445 H2433 0.930 . S
C2445 C2446 1.399 . S
C2445 C2450 1.399 . S
C2446 C2445 1.399 . S
C2446 C2447 1.376 . S
C2447 H2434 0.930 . S
C2447 C2446 1.376 . S
C2447 C2448 1.388 . S
C2448 H2435 0.930 . S
C2448 C2447 1.388 . S
C2448 C2449 1.390 . S
C2449 C2448 1.390 . S
C2449 C2450 1.394 . S
C2449 C2455 1.465 . S
C2450 C2445 1.399 . S
C2450 C2449 1.394 . S
C2450 C2451 1.516 . S
C2451 C2450 1.516 . S
C2451 C2452 1.502 . S
C2451 C2453 1.561 . S
C2451 C2454 1.526 . S
C2452 H2436 0.959 . S
C2452 H2437 0.959 . S
C2452 H2438 0.961 . S
C2452 C2451 1.502 . S
C2453 H2439 0.960 . S
C2453 H2440 0.961 . S
C2453 H2441 0.959 . S
C2453 C2451 1.561 . S
C2454 C2451 1.526 . S
C2454 C2455 1.396 . S
C2454 C2459 1.390 . S
C2455 C2449 1.465 . S
C2455 C2454 1.396 . S
C2455 C2456 1.399 . S
C2456 H2442 0.929 . S
C2456 C2455 1.399 . S
C2456 C2457 1.385 . S
C2457 H2443 0.931 . S
C2457 C2456 1.385 . S
C2457 C2458 1.389 . S
C2458 C2457 1.389 . S
C2458 C2459 1.387 . S
C2459 H2444 0.930 . S
C2459 C2454 1.390 . S
C2459 C2458 1.387 . S
H2460 C2472 0.930 . S
H2461 C2474 0.930 . S
H2462 C2475 0.930 . S
H2463 C2479 0.959 . S
H2464 C2479 0.959 . S
H2465 C2479 0.961 . S
H2466 C2480 0.960 . S
H2467 C2480 0.961 . S
H2468 C2480 0.959 . S
H2469 C2483 0.929 . S
H2470 C2484 0.931 . S
H2471 C2486 0.930 . S
C2472 H2460 0.930 . S
C2472 C2473 1.399 . S
C2472 C2477 1.399 . S
C2473 C2472 1.399 . S
C2473 C2474 1.376 . S
C2474 H2461 0.930 . S
C2474 C2473 1.376 . S
C2474 C2475 1.388 . S
C2475 H2462 0.930 . S
C2475 C2474 1.388 . S
C2475 C2476 1.390 . S
C2476 C2475 1.390 . S
C2476 C2477 1.394 . S
C2476 C2482 1.465 . S
C2477 C2472 1.399 . S
C2477 C2476 1.394 . S
C2477 C2478 1.516 . S
C2478 C2477 1.516 . S
C2478 C2479 1.502 . S
C2478 C2480 1.561 . S
C2478 C2481 1.526 . S
C2479 H2463 0.959 . S
C2479 H2464 0.959 . S
C2479 H2465 0.961 . S
C2479 C2478 1.502 . S
C2480 H2466 0.960 . S
C2480 H2467 0.961 . S
C2480 H2468 0.959 . S
C2480 C2478 1.561 . S
C2481 C2478 1.526 . S
C2481 C2482 1.396 . S
C2481 C2486 1.390 . S
C2482 C2476 1.465 . S
C2482 C2481 1.396 . S
C2482 C2483 1.399 . S
C2483 H2469 0.929 . S
C2483 C2482 1.399 . S
C2483 C2484 1.385 . S
C2484 H2470 0.931 . S
C2484 C2483 1.385 . S
C2484 C2485 1.389 . S
C2485 C2484 1.389 . S
C2485 C2486 1.387 . S
C2486 H2471 0.930 . S
C2486 C2481 1.390 . S
C2486 C2485 1.387 . S
H2487 C2499 0.930 . S
H2488 C2501 0.930 . S
H2489 C2502 0.930 . S
H2490 C2506 0.959 . S
H2491 C2506 0.959 . S
H2492 C2506 0.961 . S
H2493 C2507 0.960 . S
H2494 C2507 0.961 . S
H2495 C2507 0.959 . S
H2496 C2510 0.929 . S
H2497 C2511 0.931 . S
H2498 C2513 0.930 . S
C2499 H2487 0.930 . S
C2499 C2500 1.399 . S
C2499 C2504 1.399 . S
C2500 C2499 1.399 . S
C2500 C2501 1.376 . S
C2501 H2488 0.930 . S
C2501 C2500 1.376 . S
C2501 C2502 1.388 . S
C2502 H2489 0.930 . S
C2502 C2501 1.388 . S
C2502 C2503 1.390 . S
C2503 C2502 1.390 . S
C2503 C2504 1.394 . S
C2503 C2509 1.465 . S
C2504 C2499 1.399 . S
C2504 C2503 1.394 . S
C2504 C2505 1.516 . S
C2505 C2504 1.516 . S
C2505 C2506 1.502 . S
C2505 C2507 1.561 . S
C2505 C2508 1.526 . S
C2506 H2490 0.959 . S
C2506 H2491 0.959 . S
C2506 H2492 0.961 . S
C2506 C2505 1.502 . S
C2507 H2493 0.960 . S
C2507 H2494 0.961 . S
C2507 H2495 0.959 . S
C2507 C2505 1.561 . S
C2508 C2505 1.526 . S
C2508 C2509 1.396 . S
C2508 C2513 1.390 . S
C2509 C2503 1.465 . S
C2509 C2508 1.396 . S
C2509 C2510 1.399 . S
C2510 H2496 0.929 . S
C2510 C2509 1.399 . S
C2510 C2511 1.385 . S
C2511 H2497 0.931 . S
C2511 C2510 1.385 . S
C2511 C2512 1.389 . S
C2512 C2511 1.389 . S
C2512 C2513 1.387 . S
C2513 H2498 0.930 . S
C2513 C2508 1.390 . S
C2513 C2512 1.387 . S
H2514 C2526 0.930 . S
H2515 C2528 0.930 . S
H2516 C2529 0.930 . S
H2517 C2533 0.959 . S
H2518 C2533 0.959 . S
H2519 C2533 0.961 . S
H2520 C2534 0.960 . S
H2521 C2534 0.961 . S
H2522 C2534 0.959 . S
H2523 C2537 0.929 . S
H2524 C2538 0.931 . S
H2525 C2540 0.930 . S
C2526 H2514 0.930 . S
C2526 C2527 1.399 . S
C2526 C2531 1.399 . S
C2527 C2526 1.399 . S
C2527 C2528 1.376 . S
C2528 H2515 0.930 . S
C2528 C2527 1.376 . S
C2528 C2529 1.388 . S
C2529 H2516 0.930 . S
C2529 C2528 1.388 . S
C2529 C2530 1.390 . S
C2530 C2529 1.390 . S
C2530 C2531 1.394 . S
C2530 C2536 1.465 . S
C2531 C2526 1.399 . S
C2531 C2530 1.394 . S
C2531 C2532 1.516 . S
C2532 C2531 1.516 . S
C2532 C2533 1.502 . S
C2532 C2534 1.561 . S
C2532 C2535 1.526 . S
C2533 H2517 0.959 . S
C2533 H2518 0.959 . S
C2533 H2519 0.961 . S
C2533 C2532 1.502 . S
C2534 H2520 0.960 . S
C2534 H2521 0.961 . S
C2534 H2522 0.959 . S
C2534 C2532 1.561 . S
C2535 C2532 1.526 . S
C2535 C2536 1.396 . S
C2535 C2540 1.390 . S
C2536 C2530 1.465 . S
C2536 C2535 1.396 . S
C2536 C2537 1.399 . S
C2537 H2523 0.929 . S
C2537 C2536 1.399 . S
C2537 C2538 1.385 . S
C2538 H2524 0.931 . S
C2538 C2537 1.385 . S
C2538 C2539 1.389 . S
C2539 C2538 1.389 . S
C2539 C2540 1.387 . S
C2540 H2525 0.930 . S
C2540 C2535 1.390 . S
C2540 C2539 1.387 . S
H2541 C2553 0.930 . S
H2542 C2555 0.930 . S
H2543 C2556 0.930 . S
H2544 C2560 0.959 . S
H2545 C2560 0.959 . S
H2546 C2560 0.961 . S
H2547 C2561 0.960 . S
H2548 C2561 0.961 . S
H2549 C2561 0.959 . S
H2550 C2564 0.929 . S
H2551 C2565 0.931 . S
H2552 C2567 0.930 . S
C2553 H2541 0.930 . S
C2553 C2554 1.399 . S
C2553 C2558 1.399 . S
C2554 C2553 1.399 . S
C2554 C2555 1.376 . S
C2555 H2542 0.930 . S
C2555 C2554 1.376 . S
C2555 C2556 1.388 . S
C2556 H2543 0.930 . S
C2556 C2555 1.388 . S
C2556 C2557 1.390 . S
C2557 C2556 1.390 . S
C2557 C2558 1.394 . S
C2557 C2563 1.465 . S
C2558 C2553 1.399 . S
C2558 C2557 1.394 . S
C2558 C2559 1.516 . S
C2559 C2558 1.516 . S
C2559 C2560 1.502 . S
C2559 C2561 1.561 . S
C2559 C2562 1.526 . S
C2560 H2544 0.959 . S
C2560 H2545 0.959 . S
C2560 H2546 0.961 . S
C2560 C2559 1.502 . S
C2561 H2547 0.960 . S
C2561 H2548 0.961 . S
C2561 H2549 0.959 . S
C2561 C2559 1.561 . S
C2562 C2559 1.526 . S
C2562 C2563 1.396 . S
C2562 C2567 1.390 . S
C2563 C2557 1.465 . S
C2563 C2562 1.396 . S
C2563 C2564 1.399 . S
C2564 H2550 0.929 . S
C2564 C2563 1.399 . S
C2564 C2565 1.385 . S
C2565 H2551 0.931 . S
C2565 C2564 1.385 . S
C2565 C2566 1.389 . S
C2566 C2565 1.389 . S
C2566 C2567 1.387 . S
C2567 H2552 0.930 . S
C2567 C2562 1.390 . S
C2567 C2566 1.387 . S
C1285 C1205 1.882 . S
C1297 C39 1.884 . S
C1312 C92 1.461 . S
C1324 C1241 1.464 . S
C1339 C1098 1.575 . S
C1351 C128 1.564 . S
C1366 C1142 1.352 . S
C1378 C188 1.337 . S
C1393 C1135 1.281 . S
C1405 C234 1.276 . S
C1420 C304 1.839 . S
C1432 C1204 1.835 . S
C1447 C1248 1.451 . S
C1459 C356 1.463 . S
C1474 C393 1.701 . S
C1486 C1099 1.701 . S
C1501 C462 1.693 . S
C1513 C1029 1.709 . S
C1528 C886 1.489 . S
C1540 C499 1.499 . S
C1555 C552 1.663 . S
C1567 C939 1.654 . S
C1582 C992 1.596 . S
C1594 C622 1.593 . S
C1609 C621 1.563 . S
C1621 C727 1.577 . S
C1636 C463 1.704 . S
C1648 C781 1.702 . S
C1663 C824 1.336 . S
C1675 C506 1.320 . S
C1690 C559 1.685 . S
C1702 C665 1.689 . S
C1717 C91 1.613 . S
C1729 C993 1.615 . S
C1744 C780 1.689 . S
C1756 C400 1.680 . S
C1771 C241 1.219 . S
C1783 C817 1.204 . S
C1798 C658 1.823 . S
C1810 C303 1.820 . S
C1825 C357 1.568 . S
C1837 C728 1.564 . S
C1852 C181 1.374 . S
C1864 C887 1.372 . S
C1879 C38 1.847 . S
C1891 C940 1.862 . S
C1906 C135 1.506 . S
C1918 C1036 1.519 . S
C1933 C347 1.271 . S
C1945 C1089 1.271 . S
C1960 C1151 1.519 . S
C1972 C410 1.514 . S
C1987 C1188 1.408 . S
C1999 C251 1.399 . S
C2014 C1258 1.696 . S
C2026 C287 1.712 . S
C2041 C145 1.820 . S
C2053 C1257 1.836 . S
C2068 C197 1.213 . S
C2080 C1082 1.201 . S
C2095 C22 1.529 . S
C2107 C1152 1.522 . S
C2122 C1195 1.350 . S
C2134 C75 1.361 . S
C2149 C569 1.472 . S
C2161 C718 1.464 . S
C2176 C605 1.555 . S
C2188 C764 1.556 . S
C2203 C453 1.165 . S
C2215 C833 1.162 . S
C2230 C516 1.519 . S
C2242 C674 1.520 . S
C2257 C515 1.557 . S
C2269 C1046 1.561 . S
C2284 C877 1.251 . S
C2296 C568 1.251 . S
C2311 C612 1.562 . S
C2323 C930 1.570 . S
C2338 C446 1.229 . S
C2350 C983 1.238 . S
C2365 C675 1.593 . S
C2377 C409 1.586 . S
C2392 C870 1.247 . S
C2404 C82 1.244 . S
C2419 C144 1.661 . S
C2431 C923 1.651 . S
C2446 C976 1.267 . S
C2458 C198 1.242 . S
C2473 C1045 1.590 . S
C2485 C29 1.585 . S
C2500 C294 1.472 . S
C2512 C771 1.483 . S
C2527 C834 1.292 . S
C2539 C340 1.296 . S
C2554 C711 1.424 . S
C2566 C250 1.417 . S
