# Generated by pormake.
# Topology whz, (6)-cn, num edge types: 1
# Building blocks:
#     Node 0, Type 0, BuildingBlock: OJICUG_clean_sbu_0, # of connection points: 6
#     Node 1, Type 0, BuildingBlock: OJICUG_clean_sbu_0, # of connection points: 6
#     Node 2, Type 0, BuildingBlock: OJICUG_clean_sbu_0, # of connection points: 6
#     Node 3, Type 0, BuildingBlock: OJICUG_clean_sbu_0, # of connection points: 6
#     Node 4, Type 0, BuildingBlock: OJICUG_clean_sbu_0, # of connection points: 6
#     Node 5, Type 0, BuildingBlock: OJICUG_clean_sbu_0, # of connection points: 6
#     Node 6, Type 0, BuildingBlock: OJICUG_clean_sbu_0, # of connection points: 6
#     Node 7, Type 0, BuildingBlock: OJICUG_clean_sbu_0, # of connection points: 6
#     Node 8, Type 0, BuildingBlock: OJICUG_clean_sbu_0, # of connection points: 6
#     Node 9, Type 0, BuildingBlock: OJICUG_clean_sbu_0, # of connection points: 6
#     Node 10, Type 0, BuildingBlock: OJICUG_clean_sbu_0, # of connection points: 6
#     Node 11, Type 0, BuildingBlock: OJICUG_clean_sbu_0, # of connection points: 6
#     Node 12, Type 0, BuildingBlock: OJICUG_clean_sbu_0, # of connection points: 6
#     Node 13, Type 0, BuildingBlock: OJICUG_clean_sbu_0, # of connection points: 6
#     Node 14, Type 0, BuildingBlock: OJICUG_clean_sbu_0, # of connection points: 6
#     Node 15, Type 0, BuildingBlock: OJICUG_clean_sbu_0, # of connection points: 6
#     Edge 16, Type (0, 0), BuildingBlock: AJUNOK_clean_linker_0, # of connection points: 2
#     Edge 17, Type (0, 0), BuildingBlock: AJUNOK_clean_linker_0, # of connection points: 2
#     Edge 18, Type (0, 0), BuildingBlock: AJUNOK_clean_linker_0, # of connection points: 2
#     Edge 19, Type (0, 0), BuildingBlock: AJUNOK_clean_linker_0, # of connection points: 2
#     Edge 20, Type (0, 0), BuildingBlock: AJUNOK_clean_linker_0, # of connection points: 2
#     Edge 21, Type (0, 0), BuildingBlock: AJUNOK_clean_linker_0, # of connection points: 2
#     Edge 22, Type (0, 0), BuildingBlock: AJUNOK_clean_linker_0, # of connection points: 2
#     Edge 23, Type (0, 0), BuildingBlock: AJUNOK_clean_linker_0, # of connection points: 2
#     Edge 24, Type (0, 0), BuildingBlock: AJUNOK_clean_linker_0, # of connection points: 2
#     Edge 25, Type (0, 0), BuildingBlock: AJUNOK_clean_linker_0, # of connection points: 2
#     Edge 26, Type (0, 0), BuildingBlock: AJUNOK_clean_linker_0, # of connection points: 2
#     Edge 27, Type (0, 0), BuildingBlock: AJUNOK_clean_linker_0, # of connection points: 2
#     Edge 28, Type (0, 0), BuildingBlock: AJUNOK_clean_linker_0, # of connection points: 2
#     Edge 29, Type (0, 0), BuildingBlock: AJUNOK_clean_linker_0, # of connection points: 2
#     Edge 30, Type (0, 0), BuildingBlock: AJUNOK_clean_linker_0, # of connection points: 2
#     Edge 31, Type (0, 0), BuildingBlock: AJUNOK_clean_linker_0, # of connection points: 2
#     Edge 32, Type (0, 0), BuildingBlock: AJUNOK_clean_linker_0, # of connection points: 2
#     Edge 33, Type (0, 0), BuildingBlock: AJUNOK_clean_linker_0, # of connection points: 2
#     Edge 34, Type (0, 0), BuildingBlock: AJUNOK_clean_linker_0, # of connection points: 2
#     Edge 35, Type (0, 0), BuildingBlock: AJUNOK_clean_linker_0, # of connection points: 2
#     Edge 36, Type (0, 0), BuildingBlock: AJUNOK_clean_linker_0, # of connection points: 2
#     Edge 37, Type (0, 0), BuildingBlock: AJUNOK_clean_linker_0, # of connection points: 2
#     Edge 38, Type (0, 0), BuildingBlock: AJUNOK_clean_linker_0, # of connection points: 2
#     Edge 39, Type (0, 0), BuildingBlock: AJUNOK_clean_linker_0, # of connection points: 2
#     Edge 40, Type (0, 0), BuildingBlock: AJUNOK_clean_linker_0, # of connection points: 2
#     Edge 41, Type (0, 0), BuildingBlock: AJUNOK_clean_linker_0, # of connection points: 2
#     Edge 42, Type (0, 0), BuildingBlock: AJUNOK_clean_linker_0, # of connection points: 2
#     Edge 43, Type (0, 0), BuildingBlock: AJUNOK_clean_linker_0, # of connection points: 2
#     Edge 44, Type (0, 0), BuildingBlock: AJUNOK_clean_linker_0, # of connection points: 2
#     Edge 45, Type (0, 0), BuildingBlock: AJUNOK_clean_linker_0, # of connection points: 2
#     Edge 46, Type (0, 0), BuildingBlock: AJUNOK_clean_linker_0, # of connection points: 2
#     Edge 47, Type (0, 0), BuildingBlock: AJUNOK_clean_linker_0, # of connection points: 2
#     Edge 48, Type (0, 0), BuildingBlock: AJUNOK_clean_linker_0, # of connection points: 2
#     Edge 49, Type (0, 0), BuildingBlock: AJUNOK_clean_linker_0, # of connection points: 2
#     Edge 50, Type (0, 0), BuildingBlock: AJUNOK_clean_linker_0, # of connection points: 2
#     Edge 51, Type (0, 0), BuildingBlock: AJUNOK_clean_linker_0, # of connection points: 2
#     Edge 52, Type (0, 0), BuildingBlock: AJUNOK_clean_linker_0, # of connection points: 2
#     Edge 53, Type (0, 0), BuildingBlock: AJUNOK_clean_linker_0, # of connection points: 2
#     Edge 54, Type (0, 0), BuildingBlock: AJUNOK_clean_linker_0, # of connection points: 2
#     Edge 55, Type (0, 0), BuildingBlock: AJUNOK_clean_linker_0, # of connection points: 2
#     Edge 56, Type (0, 0), BuildingBlock: AJUNOK_clean_linker_0, # of connection points: 2
#     Edge 57, Type (0, 0), BuildingBlock: AJUNOK_clean_linker_0, # of connection points: 2
#     Edge 58, Type (0, 0), BuildingBlock: AJUNOK_clean_linker_0, # of connection points: 2
#     Edge 59, Type (0, 0), BuildingBlock: AJUNOK_clean_linker_0, # of connection points: 2
#     Edge 60, Type (0, 0), BuildingBlock: AJUNOK_clean_linker_0, # of connection points: 2
#     Edge 61, Type (0, 0), BuildingBlock: AJUNOK_clean_linker_0, # of connection points: 2
#     Edge 62, Type (0, 0), BuildingBlock: AJUNOK_clean_linker_0, # of connection points: 2
#     Edge 63, Type (0, 0), BuildingBlock: AJUNOK_clean_linker_0, # of connection points: 2
# Relax obj value: 0.452
# Max RMSD: 0.271
# Mean RMSD: 0.271
data_MOF--net-whz--node1-OJICUG_clean_sbu_0--edge1-AJUNOK_clean_linker_0
_symmetry_space_group_name_H-M    P1
_symmetry_Int_Tables_number       1
_symmetry_cell_setting            triclinic
loop_
_symmetry_equiv_pos_as_xyz
'x, y, z'
_cell_length_a     26.04815
_cell_length_b     26.059057
_cell_length_c     40.108348
_cell_angle_alpha  89.836284
_cell_angle_beta   90.202768
_cell_angle_gamma 90.068489
loop_
_atom_site_label
_atom_site_type_symbol
_atom_site_fract_x
_atom_site_fract_y
_atom_site_fract_z
_atom_type_partial_charge
Sc0 Sc 0.34068 0.20192 0.15771 0.0
Sc1 Sc 0.21895 0.18081 0.12808 0.0
Sc2 Sc 0.3186 0.10054 0.10323 0.0
O3 O 0.29265 0.161 0.12913 0.0
C4 C 0.39962 0.19118 0.09095 0.0
C5 C 0.26539 0.28829 0.12954 0.0
C6 C 0.23769 0.1448 0.05189 0.0
C7 C 0.25058 0.19883 0.20513 0.0
C8 C 0.37849 0.09012 0.17166 0.0
C9 C 0.21416 0.06108 0.13506 0.0
O10 O 0.38311 0.21891 0.1145 0.0
O11 O 0.23774 0.2572 0.11305 0.0
O12 O 0.28207 0.1259 0.05741 0.0
O13 O 0.29713 0.18626 0.20121 0.0
O14 O 0.35186 0.0695 0.1487 0.0
O15 O 0.19881 0.10535 0.14364 0.0
O16 O 0.38926 0.13762 0.17082 0.0
O17 O 0.21949 0.20406 0.1806 0.0
O18 O 0.25248 0.05349 0.11599 0.0
O19 O 0.2993 0.27293 0.15014 0.0
O20 O 0.38721 0.14384 0.08757 0.0
O21 O 0.2094 0.16141 0.07546 0.0
Sc22 Sc 0.52792 0.59727 0.40617 0.0
Sc23 Sc 0.55177 0.47639 0.37858 0.0
Sc24 Sc 0.63098 0.57556 0.35294 0.0
O25 O 0.5709 0.54959 0.37896 0.0
C26 C 0.53869 0.65422 0.33898 0.0
C27 C 0.44492 0.51734 0.38038 0.0
C28 C 0.588 0.49361 0.30229 0.0
C29 C 0.53338 0.51009 0.45528 0.0
C30 C 0.63824 0.63618 0.42066 0.0
C31 C 0.67078 0.47153 0.38607 0.0
O32 O 0.50969 0.6359 0.36145 0.0
O33 O 0.47744 0.49731 0.36109 0.0
O34 O 0.60624 0.53857 0.30692 0.0
O35 O 0.54601 0.5565 0.45046 0.0
O36 O 0.66038 0.60884 0.3988 0.0
O37 O 0.6266 0.45663 0.39536 0.0
O38 O 0.59136 0.64861 0.41716 0.0
O39 O 0.52713 0.47852 0.43115 0.0
O40 O 0.67807 0.50931 0.36625 0.0
O41 O 0.45815 0.55147 0.40129 0.0
O42 O 0.5868 0.64385 0.33725 0.0
O43 O 0.57279 0.46562 0.32651 0.0
Sc44 Sc 0.15328 0.8786 0.6018 0.0
Sc45 Sc 0.24836 0.79181 0.6256 0.0
Sc46 Sc 0.12644 0.77758 0.65594 0.0
O47 O 0.17614 0.81624 0.62731 0.0
C48 C 0.0957 0.89126 0.67067 0.0
C49 C 0.26165 0.91073 0.63272 0.0
C50 C 0.21714 0.77398 0.7027 0.0
C51 C 0.23016 0.83131 0.54979 0.0
C52 C 0.06797 0.79263 0.58897 0.0
C53 C 0.19666 0.68733 0.62753 0.0
O54 O 0.12264 0.91049 0.64744 0.0
O55 O 0.27416 0.86545 0.64135 0.0
O56 O 0.17172 0.79032 0.69898 0.0
O57 O 0.18715 0.8526 0.55569 0.0
O58 O 0.08264 0.76388 0.61271 0.0
O59 O 0.22404 0.71734 0.61009 0.0
O60 O 0.08227 0.83949 0.5859 0.0
O61 O 0.25781 0.81209 0.57304 0.0
O62 O 0.16412 0.70423 0.64838 0.0
O63 O 0.22257 0.92103 0.61462 0.0
O64 O 0.08198 0.84447 0.66984 0.0
O65 O 0.2474 0.76707 0.67805 0.0
Sc66 Sc 0.84365 0.40428 0.85205 0.0
Sc67 Sc 0.92735 0.50176 0.87729 0.0
Sc68 Sc 0.94795 0.37747 0.90394 0.0
O69 O 0.90636 0.42805 0.87744 0.0
C70 C 0.83395 0.34603 0.92117 0.0
C71 C 0.80771 0.50962 0.88427 0.0
C72 C 0.95237 0.46665 0.95321 0.0
C73 C 0.88864 0.48424 0.801 0.0
C74 C 0.92916 0.32022 0.83701 0.0
C75 C 0.03487 0.45253 0.87548 0.0
O76 O 0.81349 0.37241 0.898 0.0
O77 O 0.85233 0.52324 0.89367 0.0
O78 O 0.94143 0.42013 0.94797 0.0
O79 O 0.869 0.44016 0.80635 0.0
O80 O 0.95857 0.33464 0.8603 0.0
O81 O 0.0034 0.48305 0.8615 0.0
O82 O 0.88211 0.3339 0.83501 0.0
O83 O 0.9065 0.51201 0.82464 0.0
O84 O 0.02006 0.41535 0.89364 0.0
O85 O 0.79938 0.47181 0.86495 0.0
O86 O 0.88128 0.33393 0.92063 0.0
O87 O 0.95261 0.50016 0.9298 0.0
Sc88 Sc 0.65774 0.87203 0.94001 0.0
Sc89 Sc 0.74062 0.77197 0.92041 0.0
Sc90 Sc 0.62048 0.77304 0.88652 0.0
O91 O 0.67341 0.80676 0.91572 0.0
C92 C 0.5662 0.79355 0.95409 0.0
C93 C 0.72758 0.81823 0.99486 0.0
C94 C 0.67836 0.6757 0.91626 0.0
C95 C 0.77221 0.88742 0.91291 0.0
C96 C 0.59995 0.88905 0.87077 0.0
C97 C 0.71169 0.75894 0.84196 0.0
O98 O 0.584 0.83932 0.95691 0.0
O99 O 0.75108 0.79183 0.97293 0.0
O100 O 0.65051 0.69586 0.8937 0.0
O101 O 0.73187 0.90527 0.92678 0.0
O102 O 0.58244 0.84358 0.87187 0.0
O103 O 0.73916 0.74758 0.86756 0.0
O104 O 0.62954 0.90569 0.89361 0.0
O105 O 0.77822 0.84032 0.90581 0.0
O106 O 0.66842 0.78084 0.84449 0.0
O107 O 0.68909 0.8461 0.98733 0.0
O108 O 0.57595 0.76444 0.9296 0.0
O109 O 0.70329 0.70354 0.93636 0.0
Sc110 Sc 0.34441 0.40268 0.68871 0.0
Sc111 Sc 0.43273 0.49607 0.66358 0.0
Sc112 Sc 0.44337 0.37341 0.63316 0.0
O113 O 0.40636 0.42414 0.66212 0.0
C114 C 0.4305 0.3178 0.70195 0.0
C115 C 0.39312 0.48219 0.73967 0.0
C116 C 0.53587 0.44151 0.66126 0.0
C117 C 0.31321 0.50982 0.65559 0.0
C118 C 0.32839 0.34088 0.62067 0.0
C119 C 0.45082 0.46411 0.58641 0.0
O120 O 0.38477 0.33395 0.70709 0.0
O121 O 0.41403 0.50781 0.71616 0.0
O122 O 0.51745 0.40868 0.64115 0.0
O123 O 0.30203 0.47072 0.67343 0.0
O124 O 0.37588 0.3307 0.6186 0.0
O125 O 0.45711 0.49429 0.61119 0.0
O126 O 0.31071 0.36743 0.64458 0.0
O127 O 0.35891 0.52278 0.64815 0.0
O128 O 0.43277 0.41922 0.58985 0.0
O129 O 0.37002 0.43995 0.73415 0.0
O130 O 0.45622 0.32888 0.67614 0.0
O131 O 0.50726 0.47032 0.67865 0.0
Sc132 Sc 0.85288 0.20152 0.38569 0.0
Sc133 Sc 0.72942 0.1911 0.41374 0.0
Sc134 Sc 0.82077 0.10162 0.43955 0.0
O135 O 0.80074 0.16433 0.41346 0.0
C136 C 0.8833 0.08817 0.37214 0.0
C137 C 0.76482 0.20431 0.33693 0.0
C138 C 0.7126 0.07224 0.40699 0.0
C139 C 0.7846 0.29397 0.41173 0.0
C140 C 0.90455 0.18824 0.45502 0.0
C141 C 0.74191 0.15144 0.49011 0.0
O142 O 0.89822 0.13436 0.3743 0.0
O143 O 0.73376 0.21351 0.36088 0.0
O144 O 0.75171 0.06048 0.42471 0.0
O145 O 0.81637 0.27573 0.39095 0.0
O146 O 0.89051 0.14118 0.45797 0.0
O147 O 0.71705 0.17276 0.46632 0.0
O148 O 0.89305 0.21588 0.43003 0.0
O149 O 0.75569 0.26516 0.42895 0.0
O150 O 0.78373 0.12725 0.48508 0.0
O151 O 0.80996 0.18784 0.34185 0.0
O152 O 0.85386 0.06914 0.39422 0.0
O153 O 0.7013 0.11799 0.39871 0.0
Sc154 Sc 0.02739 0.61094 0.13523 0.0
Sc155 Sc 0.03645 0.48712 0.16387 0.0
Sc156 Sc 0.12773 0.57661 0.18939 0.0
O157 O 0.06433 0.55811 0.16315 0.0
C158 C 0.14229 0.63865 0.12116 0.0
C159 C 0.02047 0.52227 0.08691 0.0
C160 C 0.15493 0.46998 0.15508 0.0
C161 C 0.93431 0.54347 0.16275 0.0
C162 C 0.04384 0.66239 0.20481 0.0
C163 C 0.07785 0.49704 0.23994 0.0
O164 O 0.09579 0.65316 0.12141 0.0
O165 O 0.01316 0.49155 0.11139 0.0
O166 O 0.16778 0.50795 0.17335 0.0
O167 O 0.95243 0.5762 0.14236 0.0
O168 O 0.0899 0.64604 0.20856 0.0
O169 O 0.05557 0.4734 0.21611 0.0
O170 O 0.01642 0.65267 0.1794 0.0
O171 O 0.96323 0.51424 0.17975 0.0
O172 O 0.10263 0.53862 0.23501 0.0
O173 O 0.03654 0.56773 0.09101 0.0
O174 O 0.16026 0.61077 0.14451 0.0
O175 O 0.10872 0.45871 0.14793 0.0
Sc176 Sc 0.84542 0.69435 0.65805 0.0
Sc177 Sc 0.72154 0.67852 0.63107 0.0
Sc178 Sc 0.81661 0.59693 0.60159 0.0
O179 O 0.79438 0.65649 0.62972 0.0
C180 C 0.89809 0.68635 0.58886 0.0
C181 C 0.77225 0.78429 0.63325 0.0
C182 C 0.73419 0.64617 0.55344 0.0
C183 C 0.75838 0.69009 0.70782 0.0
C184 C 0.87854 0.58123 0.66889 0.0
C185 C 0.71228 0.5589 0.63469 0.0
O186 O 0.88493 0.71261 0.61397 0.0
O187 O 0.74251 0.75476 0.6171 0.0
O188 O 0.77829 0.62566 0.55721 0.0
O189 O 0.80443 0.6772 0.70232 0.0
O190 O 0.85077 0.56272 0.64576 0.0
O191 O 0.69937 0.60296 0.64524 0.0
O192 O 0.89264 0.62784 0.66807 0.0
O193 O 0.72618 0.69845 0.68423 0.0
O194 O 0.74968 0.55145 0.61484 0.0
O195 O 0.806 0.76716 0.65336 0.0
O196 O 0.88529 0.63922 0.585 0.0
O197 O 0.70815 0.66231 0.57823 0.0
Sc198 Sc 0.03135 0.09401 0.90742 0.0
Sc199 Sc 0.05432 0.9735 0.87863 0.0
Sc200 Sc 0.1314 0.07343 0.85162 0.0
O201 O 0.07309 0.04687 0.87895 0.0
C202 C 0.03691 0.15019 0.83941 0.0
C203 C 0.9476 0.01434 0.88235 0.0
C204 C 0.08789 -0.00917 0.80181 0.0
C205 C 0.03932 0.0065 0.95589 0.0
C206 C 0.14206 0.13402 0.91925 0.0
C207 C 0.17363 0.96971 0.88432 0.0
O208 O 0.01036 0.13302 0.86344 0.0
O209 O 0.97931 -0.00562 0.86247 0.0
O210 O 0.10526 0.03601 0.80643 0.0
O211 O 0.05214 0.05281 0.95098 0.0
O212 O 0.16273 0.10756 0.89642 0.0
O213 O 0.12987 0.95419 0.89404 0.0
O214 O 0.09476 0.14575 0.91759 0.0
O215 O 0.03176 0.97525 0.93173 0.0
O216 O 0.18 0.00783 0.86458 0.0
O217 O 0.96179 0.04779 0.90348 0.0
O218 O 0.08499 0.14044 0.83609 0.0
O219 O 0.07337 0.96255 0.82609 0.0
Sc220 Sc 0.65683 0.38389 0.10216 0.0
Sc221 Sc 0.75516 0.30266 0.12814 0.0
Sc222 Sc 0.63319 0.28323 0.15693 0.0
O223 O 0.68181 0.32329 0.12852 0.0
C224 C 0.5986 0.39582 0.17073 0.0
C225 C 0.762 0.42211 0.13403 0.0
C226 C 0.72262 0.28372 0.2047 0.0
C227 C 0.73614 0.33707 0.05182 0.0
C228 C 0.57467 0.29481 0.08995 0.0
C229 C 0.70757 0.19593 0.12943 0.0
O230 O 0.62557 0.4161 0.14782 0.0
O231 O 0.77598 0.37792 0.144 0.0
O232 O 0.67678 0.29855 0.20045 0.0
O233 O 0.69176 0.35631 0.05651 0.0
O234 O 0.59095 0.26663 0.11349 0.0
O235 O 0.7352 0.22686 0.11281 0.0
O236 O 0.58673 0.34233 0.08714 0.0
O237 O 0.76523 0.3227 0.07574 0.0
O238 O 0.67387 0.21153 0.14993 0.0
O239 O 0.72452 0.42949 0.11402 0.0
O240 O 0.58585 0.34879 0.16931 0.0
O241 O 0.75378 0.27815 0.18043 0.0
Sc242 Sc 0.3426 0.90851 0.35123 0.0
Sc243 Sc 0.42114 0.00731 0.37996 0.0
Sc244 Sc 0.4411 0.88457 0.40819 0.0
O245 O 0.40159 0.93354 0.3793 0.0
C246 C 0.32831 0.84762 0.41905 0.0
C247 C 0.30108 0.01257 0.38272 0.0
C248 C 0.43937 0.97283 0.45662 0.0
C249 C 0.38951 -0.00914 0.30256 0.0
C250 C 0.43317 0.82794 0.34019 0.0
C251 C 0.52877 0.96115 0.38321 0.0
O252 O 0.30914 0.87434 0.39555 0.0
O253 O 0.34448 0.02682 0.3941 0.0
O254 O 0.42469 0.92701 0.45204 0.0
O255 O 0.37079 0.94601 0.30655 0.0
O256 O 0.45958 0.84318 0.36485 0.0
O257 O 0.49839 -0.01069 0.36637 0.0
O258 O 0.38597 0.84011 0.33594 0.0
O259 O 0.40369 0.01848 0.32719 0.0
O260 O 0.51257 0.92584 0.40242 0.0
O261 O 0.29534 0.97468 0.363 0.0
O262 O 0.37572 0.83633 0.41943 0.0
O263 O 0.44383 0.00484 0.43259 0.0
Sc264 Sc 0.15356 0.37721 0.43833 0.0
Sc265 Sc 0.23443 0.27643 0.41685 0.0
Sc266 Sc 0.11265 0.27903 0.38578 0.0
O267 O 0.16751 0.31188 0.41377 0.0
C268 C 0.06318 0.29852 0.4546 0.0
C269 C 0.22349 0.32058 0.49198 0.0
C270 C 0.17205 0.1803 0.41187 0.0
C271 C 0.26755 0.39191 0.41028 0.0
C272 C 0.09269 0.39447 0.37078 0.0
C273 C 0.20135 0.26814 0.3387 0.0
O274 O 0.07992 0.34489 0.45614 0.0
O275 O 0.24605 0.29402 0.46966 0.0
O276 O 0.14312 0.20161 0.3904 0.0
O277 O 0.22769 0.4101 0.42451 0.0
O278 O 0.07328 0.35009 0.37411 0.0
O279 O 0.23021 0.25532 0.36343 0.0
O280 O 0.12478 0.41121 0.39211 0.0
O281 O 0.27263 0.34482 0.40292 0.0
O282 O 0.15764 0.28864 0.34264 0.0
O283 O 0.1859 0.34995 0.48495 0.0
O284 O 0.07192 0.26889 0.43022 0.0
O285 O 0.1977 0.20713 0.43216 0.0
Sc286 Sc 0.84888 0.90877 0.19047 0.0
Sc287 Sc 0.93958 -0.00081 0.16458 0.0
Sc288 Sc 0.94849 0.87544 0.1362 0.0
O289 O 0.91175 0.92789 0.164 0.0
C290 C 0.93261 0.82226 0.20561 0.0
C291 C 0.89847 -0.01096 0.24063 0.0
C292 C 0.0415 0.94242 0.16461 0.0
C293 C 0.82083 0.01544 0.15547 0.0
C294 C 0.83285 0.84476 0.12321 0.0
C295 C 0.95847 0.96411 0.08802 0.0
O296 O 0.88718 0.83968 0.21008 0.0
O297 O 0.91999 0.01327 0.21675 0.0
O298 O 0.02333 0.90971 0.14427 0.0
O299 O 0.80854 0.9773 0.17388 0.0
O300 O 0.88023 0.8337 0.12164 0.0
O301 O 0.9651 -0.00497 0.11239 0.0
O302 O 0.81525 0.87258 0.14655 0.0
O303 O 0.86688 0.02698 0.14802 0.0
O304 O 0.93968 0.91967 0.09205 0.0
O305 O 0.87441 0.9471 0.23573 0.0
O306 O 0.95937 0.83227 0.18004 0.0
O307 O 0.01273 0.97219 0.18112 0.0
Sc308 Sc 0.35166 0.69698 0.88362 0.0
Sc309 Sc 0.22849 0.68809 0.91317 0.0
Sc310 Sc 0.31994 0.59805 0.93853 0.0
O311 O 0.29983 0.66074 0.91229 0.0
C312 C 0.38125 0.5829 0.87065 0.0
C313 C 0.26191 0.69963 0.83583 0.0
C314 C 0.21235 0.56858 0.90546 0.0
C315 C 0.28468 0.79072 0.90985 0.0
C316 C 0.40483 0.68417 0.95282 0.0
C317 C 0.24188 0.64871 0.98963 0.0
O318 O 0.39561 0.62939 0.87113 0.0
O319 O 0.23146 0.70939 0.86002 0.0
O320 O 0.25162 0.55641 0.92291 0.0
O321 O 0.31637 0.77168 0.88932 0.0
O322 O 0.38929 0.63784 0.95699 0.0
O323 O 0.21697 0.671 0.9662 0.0
O324 O 0.39388 0.71093 0.92731 0.0
O325 O 0.25522 0.76268 0.92728 0.0
O326 O 0.2829 0.62364 0.98395 0.0
O327 O 0.30727 0.68363 0.84037 0.0
O328 O 0.35333 0.56489 0.89382 0.0
O329 O 0.2001 0.61469 0.89869 0.0
Sc330 Sc 0.53015 0.10069 0.63497 0.0
Sc331 Sc 0.54426 0.9779 0.66398 0.0
Sc332 Sc 0.63107 0.07255 0.68897 0.0
O333 O 0.56873 0.05019 0.66322 0.0
C334 C 0.64295 0.13454 0.62117 0.0
C335 C 0.52807 0.01203 0.58697 0.0
C336 C 0.66363 0.96628 0.65637 0.0
C337 C 0.43969 0.02829 0.66097 0.0
C338 C 0.54319 0.15532 0.70316 0.0
C339 C 0.58452 -0.00753 0.74023 0.0
O340 O 0.59612 0.14758 0.62265 0.0
O341 O 0.5203 0.98095 0.61125 0.0
O342 O 0.67421 0.00475 0.67478 0.0
O343 O 0.4573 0.06177 0.64095 0.0
O344 O 0.59034 0.14181 0.70628 0.0
O345 O 0.56406 0.96641 0.71668 0.0
O346 O 0.51512 0.1418 0.67881 0.0
O347 O 0.46918 0.00116 0.67906 0.0
O348 O 0.60636 0.03552 0.73479 0.0
O349 O 0.5444 0.05732 0.59145 0.0
O350 O 0.66262 0.10596 0.64355 0.0
O351 O 0.6182 0.95321 0.6484 0.0
C352 C 0.25939 0.19351 0.26705 0.0
C353 C 0.235 0.21497 0.23889 0.0
C354 C 0.24952 0.21186 0.2992 0.0
C355 C 0.21514 0.25261 0.30438 0.0
H356 H 0.28642 0.16226 0.26422 0.0
H357 H 0.2683 0.1933 0.32014 0.0
S358 S 0.14431 0.32471 0.23859 0.0
N359 N 0.17677 0.28062 0.21808 0.0
N360 N 0.15839 0.3155 0.27831 0.0
C361 C 0.191 0.27488 0.27631 0.0
C362 C 0.20077 0.25589 0.24364 0.0
C363 C 0.45397 0.45196 0.52465 0.0
C364 C 0.47161 0.47805 0.55322 0.0
C365 C 0.47582 0.46071 0.49328 0.0
C366 C 0.51622 0.49595 0.48921 0.0
H367 H 0.42277 0.42455 0.52646 0.0
H368 H 0.45984 0.44081 0.47194 0.0
S369 S 0.58002 0.5707 0.55632 0.0
N370 N 0.53443 0.53819 0.5756 0.0
N371 N 0.57523 0.5549 0.51659 0.0
C372 C 0.53509 0.52152 0.51762 0.0
C373 C 0.51281 0.51262 0.54959 0.0
C374 C 0.20767 0.77757 0.7644 0.0
C375 C 0.23146 0.75574 0.73632 0.0
C376 C 0.21588 0.75774 0.79643 0.0
C377 C 0.2481 0.71526 0.80157 0.0
H378 H 0.18244 0.81035 0.76161 0.0
H379 H 0.19793 0.77675 0.81735 0.0
S380 S 0.31586 0.6411 0.73615 0.0
N381 N 0.28615 0.68737 0.71555 0.0
N382 N 0.30178 0.65009 0.77581 0.0
C383 C 0.27142 0.69241 0.77366 0.0
C384 C 0.26317 0.71272 0.74104 0.0
C385 C 0.98214 0.53113 0.9955 0.0
C386 C 0.9687 0.48038 0.9876 0.0
C387 C -0.00014 0.54404 0.02742 0.0
C388 C 0.00482 0.50673 0.05282 0.0
H389 H 0.9791 0.56122 0.97692 0.0
H390 H 0.00911 0.58386 0.03225 0.0
S391 S 0.97637 0.36775 0.04502 0.0
N392 N 0.96267 0.39205 1.00806 0.0
N393 N -0.00391 0.41669 0.06764 0.0
C394 C -0.00802 0.45577 0.04524 0.0
C395 C 0.9739 0.44253 1.01281 0.0
C396 C 0.70218 0.76328 0.78014 0.0
C397 C 0.72648 0.74127 0.80821 0.0
C398 C 0.71109 0.74496 0.74796 0.0
C399 C 0.74499 0.70409 0.74239 0.0
H400 H 0.67584 0.79511 0.78296 0.0
H401 H 0.6923 0.76402 0.72721 0.0
S402 S 0.81623 0.63066 0.80714 0.0
N403 N 0.78431 0.67454 0.82827 0.0
N404 N 0.80176 0.64061 0.76752 0.0
C405 C 0.76938 0.68128 0.77012 0.0
C406 C 0.76007 0.6998 0.80305 0.0
C407 C 0.71095 0.28428 0.26629 0.0
C408 C 0.73644 0.26462 0.23819 0.0
C409 C 0.71868 0.26315 0.29801 0.0
C410 C 0.75208 0.22144 0.3028 0.0
H411 H 0.68469 0.31629 0.26374 0.0
H412 H 0.69928 0.28048 0.319 0.0
S413 S 0.82485 0.15298 0.23703 0.0
N414 N 0.79431 0.19922 0.21694 0.0
N415 N 0.80895 0.15948 0.2766 0.0
C416 C 0.77723 0.20083 0.27484 0.0
C417 C 0.7695 0.2225 0.24255 0.0
C418 C 0.96038 0.95064 0.02631 0.0
C419 C 0.97923 0.97671 0.05458 0.0
C420 C 0.98178 0.95843 0.99468 0.0
C421 C 0.02295 -0.00741 0.99005 0.0
H422 H 0.92848 0.92414 0.02855 0.0
H423 H 0.96477 0.93878 0.97358 0.0
S424 S 0.09023 0.06629 0.05625 0.0
N425 N 0.04415 0.03531 0.0761 0.0
N426 N 0.08416 0.05016 1.01664 0.0
C427 C 0.04315 0.0179 1.01819 0.0
C428 C 0.0213 0.01003 0.05041 0.0
C429 C 0.44279 0.95976 0.51832 0.0
C430 C 0.46086 0.98553 0.48976 0.0
C431 C 0.46619 0.96669 0.5495 0.0
C432 C 0.50881 -0.00061 0.55325 0.0
H433 H 0.41017 0.93405 0.51657 0.0
H434 H 0.44984 0.94737 0.57094 0.0
S435 S 0.57406 0.07217 0.4858 0.0
N436 N 0.52594 0.04272 0.46695 0.0
N437 N 0.56999 0.0556 0.52546 0.0
C438 C 0.52799 0.02455 0.52477 0.0
C439 C 0.50396 0.01777 0.49309 0.0
C440 C 0.14666 0.16797 0.9781 0.0
C441 C 0.17105 0.14359 0.9511 0.0
C442 C 0.16904 0.16933 1.01008 0.0
C443 C 0.217 0.1463 1.01683 0.0
H444 H 0.10889 0.18467 0.97491 0.0
H445 H 0.14767 0.18758 0.02988 0.0
S446 S 0.29881 0.07998 0.95457 0.0
N447 N 0.24766 0.09796 0.93319 0.0
N448 N 0.28939 0.10044 0.99296 0.0
C449 C 0.24286 0.12354 0.98978 0.0
C450 C 0.22008 0.12224 0.95713 0.0
C451 C 0.61535 0.49272 0.24162 0.0
C452 C 0.58549 0.47182 0.26762 0.0
C453 C 0.61691 0.46985 0.20978 0.0
C454 C 0.5885 0.42509 0.2023 0.0
H455 H 0.63931 0.52597 0.2462 0.0
H456 H 0.6425 0.48623 0.19136 0.0
S457 S 0.49866 0.35895 0.26007 0.0
N458 N 0.52281 0.40631 0.28242 0.0
N459 N 0.5257 0.36379 0.22306 0.0
C460 C 0.5563 0.40552 0.22754 0.0
C461 C 0.55484 0.42866 0.25995 0.0
C462 C 0.29561 0.80358 0.50724 0.0
C463 C 0.25029 0.8307 0.51473 0.0
C464 C 0.31848 0.80637 0.47558 0.0
C465 C 0.29725 0.83642 0.44968 0.0
H466 H 0.31468 0.78099 0.5263 0.0
H467 H 0.35438 0.78628 0.47187 0.0
S468 S 0.17663 0.91211 0.45513 0.0
N469 N 0.18319 0.88626 0.49251 0.0
N470 N 0.22606 0.89156 0.43331 0.0
C471 C 0.25045 0.86166 0.45623 0.0
C472 C 0.22711 0.85885 0.48857 0.0
C473 C 0.91696 0.57189 0.72645 0.0
C474 C 0.88715 0.55099 0.70036 0.0
C475 C 0.91815 0.54948 0.75842 0.0
C476 C 0.88962 0.50495 0.766 0.0
H477 H 0.93834 0.60707 0.72258 0.0
H478 H 0.94091 0.56806 0.77755 0.0
S479 S 0.80631 0.43358 0.7065 0.0
N480 N 0.82942 0.48171 0.68432 0.0
N481 N 0.83168 0.43981 0.74403 0.0
C482 C 0.86101 0.48252 0.73985 0.0
C483 C 0.85982 0.50537 0.70724 0.0
C484 C 0.81808 0.79728 0.0692 0.0
C485 C 0.79951 0.83107 0.09381 0.0
C486 C 0.79329 0.79159 0.03817 0.0
C487 C 0.74862 0.81955 0.02993 0.0
H488 H 0.85348 0.77639 0.07334 0.0
H489 H 0.81067 0.76638 1.02001 0.0
S490 S 0.68099 0.90975 0.08654 0.0
N491 N 0.73103 0.89018 0.10846 0.0
N492 N 0.68457 0.87955 0.0505 0.0
C493 C 0.72789 0.85131 0.05502 0.0
C494 C 0.75315 0.85699 0.08675 0.0
C495 C 0.41861 0.57344 0.81287 0.0
C496 C 0.39059 0.55193 0.83957 0.0
C497 C 0.42036 0.55 0.78128 0.0
C498 C 0.39418 0.5037 0.77455 0.0
H499 H 0.43804 0.6099 0.81593 0.0
H500 H 0.44148 0.56932 0.7617 0.0
S501 S 0.31756 0.42929 0.83619 0.0
N502 N 0.33794 0.47969 0.85727 0.0
N503 N 0.34129 0.43581 0.79831 0.0
C504 C 0.36769 0.48057 0.80139 0.0
C505 C 0.36593 0.5045 0.83365 0.0
C506 C 0.73919 0.11988 0.54993 0.0
C507 C 0.71984 0.15266 0.52478 0.0
C508 C 0.71616 0.1167 0.58164 0.0
C509 C 0.6726 0.14615 0.58991 0.0
H510 H 0.7714 0.09494 0.54478 0.0
H511 H 0.73138 0.08903 0.59929 0.0
S512 S 0.61059 0.24307 0.53481 0.0
N513 N 0.65704 0.21895 0.51179 0.0
N514 N 0.61405 0.21286 0.57097 0.0
C515 C 0.6545 0.18108 0.56562 0.0
C516 C 0.67794 0.18432 0.5333 0.0
C517 C 0.112 0.46837 0.33146 0.0
C518 C 0.08254 0.42443 0.33921 0.0
C519 C 0.1091 0.49244 0.29993 0.0
C520 C 0.07668 0.47374 0.2744 0.0
H521 H 0.13914 0.48342 0.3495 0.0
H522 H 0.13381 0.52509 0.29526 0.0
S523 S 0.98742 0.36285 0.28257 0.0
N524 N 0.01682 0.36564 0.31903 0.0
N525 N 0.0114 0.41043 0.26029 0.0
C526 C 0.04533 0.43117 0.2823 0.0
C527 C 0.0482 0.40674 0.31442 0.0
C528 C 0.73582 0.62526 0.49186 0.0
C529 C 0.71132 0.64933 0.51896 0.0
C530 C 0.71337 0.62389 0.45988 0.0
C531 C 0.66522 0.64656 0.4532 0.0
H532 H 0.77213 0.60582 0.49549 0.0
H533 H 0.7333 0.60301 0.44053 0.0
S534 S 0.58689 0.719 0.51445 0.0
N535 N 0.63745 0.6999 0.53604 0.0
N536 N 0.59546 0.69714 0.4763 0.0
C537 C 0.64132 0.67283 0.47968 0.0
C538 C 0.66421 0.67421 0.51232 0.0
C539 C 0.06275 0.92091 0.76137 0.0
C540 C 0.0856 0.96924 0.76708 0.0
C541 C 0.0633 0.89767 0.72975 0.0
C542 C 0.08684 0.9214 0.70206 0.0
H543 H 0.04516 0.89999 0.78172 0.0
H544 H 0.04672 0.85971 0.72743 0.0
S545 S 0.14902 0.04999 0.70259 0.0
N546 N 0.12989 0.04147 0.7414 0.0
N547 N 0.13106 -0.00205 0.68228 0.0
C548 C 0.10788 0.9708 0.707 0.0
C549 C 0.10727 -0.00544 0.7393 0.0
C550 C 0.75198 0.29928 0.99465 0.0
C551 C 0.75854 0.33929 1.01791 0.0
C552 C 0.77597 0.30112 0.96302 0.0
C553 C 0.80679 0.34325 0.95376 0.0
H554 H 0.72885 0.26617 1.00112 0.0
H555 H 0.77068 0.26947 0.94591 0.0
S556 S 0.83548 0.45709 1.00606 0.0
N557 N 0.79843 0.42106 0.0298 0.0
N558 N 0.84098 0.42607 0.9704 0.0
C559 C 0.81257 0.38352 0.9768 0.0
C560 C 0.78915 0.38114 1.00888 0.0
C561 C 0.36262 0.01474 0.20989 0.0
C562 C 0.38968 0.06047 0.20296 0.0
C563 C 0.36422 -0.00846 0.24164 0.0
C564 C 0.39283 0.01303 0.26806 0.0
H565 H 0.33782 -0.00212 0.19113 0.0
H566 H 0.34108 0.95758 0.24579 0.0
S567 S 0.47654 0.12835 0.26195 0.0
N568 N 0.45037 0.12327 0.22456 0.0
N569 N 0.45335 0.07999 0.28389 0.0
C570 C 0.42247 0.05706 0.26093 0.0
C571 C 0.42095 0.0806 0.22858 0.0
C572 C 0.31361 0.29567 0.56591 0.0
C573 C 0.29501 0.32833 0.59114 0.0
C574 C 0.28896 0.29158 0.53474 0.0
C575 C 0.24447 0.32012 0.52702 0.0
H576 H 0.34896 0.27453 0.56968 0.0
H577 H 0.30635 0.26724 0.51609 0.0
S578 S 0.17679 0.40768 0.58534 0.0
N579 N 0.22668 0.3869 0.60693 0.0
N580 N 0.18043 0.37924 0.54872 0.0
C581 C 0.22366 0.35067 0.55272 0.0
C582 C 0.24877 0.3547 0.58458 0.0
C583 C 0.86778 -0.00814 0.30063 0.0
C584 C 0.89969 0.01166 0.27524 0.0
C585 C 0.86503 0.01486 0.33241 0.0
C586 C 0.89413 0.05883 0.34057 0.0
H587 H 0.84328 0.95916 0.29567 0.0
H588 H 0.83811 -0.0009 0.35026 0.0
S589 S -0.01157 0.12269 0.28464 0.0
N590 N 0.96445 0.07579 0.26181 0.0
N591 N 0.95935 0.11861 0.32104 0.0
C592 C 0.92809 0.07755 0.31596 0.0
C593 C 0.93081 0.05419 0.28357 0.0
C594 C 0.15276 0.677 0.06348 0.0
C595 C 0.17337 0.64767 0.09 0.0
C596 C 0.17588 0.67834 0.03175 0.0
C597 C 0.22091 0.65037 0.02468 0.0
H598 H 0.11718 0.69781 0.0668 0.0
H599 H 0.15726 0.70056 1.01233 0.0
S600 S 0.29284 0.56993 0.08578 0.0
N601 N 0.24362 0.59197 0.10717 0.0
N602 N 0.28685 0.5945 0.048 0.0
C603 C 0.24327 0.62263 0.05137 0.0
C604 C 0.2197 0.62133 0.08376 0.0
C605 C 0.55792 0.92443 0.78198 0.0
C606 C 0.58465 0.97036 0.77506 0.0
C607 C 0.56077 0.90027 0.8134 0.0
C608 C 0.59059 0.92056 0.83974 0.0
H609 H 0.53535 0.90604 0.76268 0.0
H610 H 0.54061 0.86423 0.8166 0.0
S611 S 0.66578 0.04184 0.83581 0.0
N612 N 0.64007 0.03665 0.7983 0.0
N613 N 0.64553 -0.00866 0.85695 0.0
C614 C 0.61592 0.9676 0.83365 0.0
C615 C 0.61297 -0.00767 0.80157 0.0
C616 C 0.4403 0.26912 0.06789 0.0
C617 C 0.4408 0.21508 0.07108 0.0
C618 C 0.48614 0.29723 0.06769 0.0
C619 C 0.53322 0.27161 0.06997 0.0
H620 H 0.40464 0.29006 0.07072 0.0
H621 H 0.48429 0.33845 0.07091 0.0
S622 S 0.5546 0.13132 0.06379 0.0
N623 N 0.49158 0.1375 0.06595 0.0
N624 N 0.57796 0.19029 0.06388 0.0
C625 C 0.53383 0.21803 0.06506 0.0
C626 C 0.48725 0.18944 0.06604 0.0
C627 C 0.46157 0.69546 0.31504 0.0
C628 C 0.51544 0.69629 0.31943 0.0
C629 C 0.433 0.74094 0.31571 0.0
C630 C 0.45803 0.78804 0.31999 0.0
H631 H 0.44086 0.6594 0.31635 0.0
H632 H 0.39164 0.73839 0.31793 0.0
S633 S 0.59838 0.8115 0.31752 0.0
N634 N 0.59274 0.74834 0.31751 0.0
N635 N 0.53917 0.83414 0.31714 0.0
C636 C 0.51183 0.78967 0.31633 0.0
C637 C 0.54083 0.7434 0.31638 0.0
C638 C 0.98395 0.68727 0.56306 0.0
C639 C 0.93652 0.71143 0.56748 0.0
C640 C 0.02904 0.71658 0.56286 0.0
C641 C 0.02734 0.77022 0.56793 0.0
H642 H 0.98707 0.64592 0.56517 0.0
H643 H 0.06537 0.69645 0.56438 0.0
S644 S 0.91117 0.85135 0.56606 0.0
N645 N 0.88931 0.79184 0.56482 0.0
N646 N 0.97443 0.84673 0.56644 0.0
C647 C 0.98004 0.79498 0.56468 0.0
C648 C 0.93416 0.76526 0.56394 0.0
C649 C 0.92665 0.23154 0.81597 0.0
C650 C 0.95084 0.27949 0.81599 0.0
C651 C 0.95625 0.18673 0.81701 0.0
C652 C 0.01046 0.18925 0.81886 0.0
H653 H 0.88577 0.22862 0.82059 0.0
H654 H 0.93664 0.15072 0.82162 0.0
S655 S 0.08981 0.305 0.80507 0.0
N656 N 0.03011 0.32631 0.80587 0.0
N657 N 0.08592 0.2421 0.80969 0.0
C658 C 0.03418 0.236 0.81132 0.0
C659 C 0.00397 0.28144 0.80931 0.0
C660 C 0.48032 0.79438 0.97925 0.0
C661 C 0.52893 0.77187 0.97771 0.0
C662 C 0.43651 0.76315 0.97904 0.0
C663 C 0.44096 0.70926 0.97596 0.0
H664 H 0.4758 0.83516 0.97477 0.0
H665 H 0.39965 0.78149 0.975 0.0
S666 S 0.55973 0.63376 0.98663 0.0
N667 N 0.57892 0.69422 0.9865 0.0
N668 N 0.49652 0.63546 0.98313 0.0
C669 C 0.48862 0.68697 0.98263 0.0
C670 C 0.53301 0.71879 0.98437 0.0
C671 C 0.43416 0.23277 0.72902 0.0
C672 C 0.45609 0.28131 0.72455 0.0
C673 C 0.46569 0.18926 0.72991 0.0
C674 C 0.51929 0.19367 0.72507 0.0
H675 H 0.39307 0.22757 0.72638 0.0
H676 H 0.44737 0.15196 0.72829 0.0
S677 S 0.59461 0.31378 0.72681 0.0
N678 N 0.53407 0.33254 0.72762 0.0
N679 N 0.59309 0.25038 0.7268 0.0
C680 C 0.54165 0.24214 0.72837 0.0
C681 C 0.50968 0.2864 0.72868 0.0
C682 C 0.97869 0.29874 0.4817 0.0
C683 C 0.02752 0.27687 0.47932 0.0
C684 C 0.93529 0.2669 0.48209 0.0
C685 C 0.94036 0.21311 0.47852 0.0
H686 H 0.97346 0.33946 0.47733 0.0
H687 H 0.89809 0.2848 0.47859 0.0
S688 S 0.06039 0.1392 0.48774 0.0
N689 N 0.07875 0.19991 0.48758 0.0
N690 N -0.00292 0.14004 0.48491 0.0
C691 C -0.01153 0.19144 0.48465 0.0
C692 C 0.03247 0.22387 0.48602 0.0
C693 C 0.04197 0.74675 0.23228 0.0
C694 C 0.01998 0.69811 0.22846 0.0
C695 C 0.01034 0.79018 0.23309 0.0
C696 C 0.95663 0.78546 0.22874 0.0
H697 H 0.08289 0.75205 0.22891 0.0
H698 H 0.02846 0.82748 0.23067 0.0
S699 S 0.88178 0.66528 0.23309 0.0
N700 N 0.9424 0.6467 0.23342 0.0
N701 N 0.88308 0.72868 0.23218 0.0
C702 C 0.93455 0.73708 0.23307 0.0
C703 C 0.96666 0.69292 0.23361 0.0
C704 C 0.25935 0.37154 0.15959 0.0
C705 C 0.24948 0.34257 0.1306 0.0
C706 C 0.23198 0.41655 0.1661 0.0
C707 C 0.19416 0.43375 0.14379 0.0
H708 H 0.28488 0.35714 0.17882 0.0
H709 H 0.23715 0.43516 0.19001 0.0
S710 S 0.1639 0.37996 0.06053 0.0
N711 N 0.20691 0.34027 0.07648 0.0
N712 N 0.15536 0.42492 0.08889 0.0
C713 C 0.1886 0.40887 0.11297 0.0
C714 C 0.2164 0.36319 0.10629 0.0
C715 C 0.3072 0.4784 0.39853 0.0
C716 C 0.31234 0.42511 0.40353 0.0
C717 C 0.35021 0.50892 0.39086 0.0
C718 C 0.39903 0.48666 0.38758 0.0
H719 H 0.26984 0.49639 0.40012 0.0
H720 H 0.34522 0.5498 0.38707 0.0
S721 S 0.43429 0.3508 0.40327 0.0
N722 N 0.37162 0.35297 0.40849 0.0
N723 N 0.4511 0.40978 0.39317 0.0
C724 C 0.40479 0.43395 0.39365 0.0
C725 C 0.36175 0.40329 0.40185 0.0
C726 C 0.20699 0.60665 0.66041 0.0
C727 C 0.21297 0.63317 0.62995 0.0
C728 C 0.2363 0.56293 0.66763 0.0
C729 C 0.27225 0.54464 0.6446 0.0
H730 H 0.18327 0.62229 0.68003 0.0
H731 H 0.23415 0.54632 0.69239 0.0
S732 S 0.29247 0.59173 0.55839 0.0
N733 N 0.2499 0.63159 0.57431 0.0
N734 N 0.30529 0.54967 0.58813 0.0
C735 C 0.27401 0.56694 0.61273 0.0
C736 C 0.24412 0.61115 0.6053 0.0
C737 C 0.10587 0.50849 0.85585 0.0
C738 C 0.08937 0.46864 0.87695 0.0
C739 C 0.14885 0.53799 0.86392 0.0
C740 C 0.17719 0.52844 0.8932 0.0
H741 H 0.08299 0.51995 0.83448 0.0
H742 H 0.15783 0.57074 0.84827 0.0
S743 S 0.15829 0.4203 0.95204 0.0
N744 N 0.11093 0.41466 0.92481 0.0
N745 N 0.19208 0.47054 0.9398 0.0
C746 C 0.16555 0.4845 0.91199 0.0
C747 C 0.1215 0.45432 0.90384 0.0
C748 C 0.69534 0.60009 0.8799 0.0
C749 C 0.69664 0.62248 0.91188 0.0
C750 C 0.7287 0.55992 0.87166 0.0
C751 C 0.76438 0.54145 0.89507 0.0
H752 H 0.67216 0.61673 0.86018 0.0
H753 H 0.72966 0.54652 0.84611 0.0
S754 S 0.77383 0.57777 0.98411 0.0
N755 N 0.72875 0.61554 0.96873 0.0
N756 N 0.79285 0.54165 0.95274 0.0
C757 C 0.76185 0.55933 0.92797 0.0
C758 C 0.7273 0.59929 0.93655 0.0
C759 C 0.65615 0.51657 0.676 0.0
C760 C 0.67875 0.51603 0.64424 0.0
C761 C 0.61276 0.48697 0.68286 0.0
C762 C 0.59041 0.45611 0.65807 0.0
H763 H 0.66972 0.54306 0.69489 0.0
H764 H 0.59411 0.49173 0.70676 0.0
S765 S 0.64176 0.43377 0.57296 0.0
N766 N 0.68116 0.47637 0.58956 0.0
N767 N 0.59939 0.42026 0.60222 0.0
C768 C 0.61662 0.45035 0.62755 0.0
C769 C 0.66096 0.48061 0.62064 0.0
C770 C 0.77556 0.37454 0.37873 0.0
C771 C 0.77111 0.34882 0.40958 0.0
C772 C 0.74718 0.4191 0.37217 0.0
C773 C 0.71394 0.43898 0.39634 0.0
H774 H 0.7967 0.35745 0.35839 0.0
H775 H 0.74719 0.43472 0.3471 0.0
S776 S 0.70029 0.39466 0.48373 0.0
N777 N 0.73979 0.3529 0.46657 0.0
N778 N 0.6864 0.43666 0.45414 0.0
C779 C 0.71481 0.41783 0.42857 0.0
C780 C 0.74355 0.37263 0.43525 0.0
C781 C 0.81355 0.49979 0.12056 0.0
C782 C 0.79409 0.46558 0.14446 0.0
C783 C 0.856 0.53085 0.12805 0.0
C784 C 0.87998 0.52822 0.1596 0.0
H785 H 0.79925 0.49898 0.09515 0.0
H786 H 0.87317 0.55275 0.10797 0.0
S787 S 0.83371 0.45528 0.23305 0.0
N788 N 0.7945 0.43856 0.20249 0.0
N789 N 0.87418 0.49709 0.21666 0.0
C790 C 0.85624 0.49936 0.18481 0.0
C791 C 0.8133 0.46776 0.17717 0.0
C792 C 0.76612 0.86668 0.66419 0.0
C793 C 0.75896 0.83917 0.63432 0.0
C794 C 0.73914 0.9122 0.67005 0.0
C795 C 0.70454 0.93119 0.64617 0.0
H796 H 0.7886 0.85056 0.68443 0.0
H797 H 0.7415 0.92955 0.69454 0.0
S798 S 0.68365 0.88167 0.56067 0.0
N799 N 0.72357 0.84023 0.5781 0.0
N800 N 0.67262 0.92571 0.58929 0.0
C801 C 0.70244 0.90789 0.61468 0.0
C802 C 0.72985 0.86178 0.60868 0.0
C803 C 0.81031 0.97402 0.89994 0.0
C804 C 0.81646 0.92121 0.90639 0.0
C805 C 0.85292 0.00496 0.89213 0.0
C806 C 0.90225 0.98348 0.89016 0.0
H807 H 0.77249 -0.00877 0.90038 0.0
H808 H 0.84725 0.04543 0.88708 0.0
S809 S 0.93977 0.84945 0.90973 0.0
N810 N 0.87691 0.85066 0.91417 0.0
N811 N 0.95571 0.9081 0.89831 0.0
C812 C 0.90894 0.93135 0.89769 0.0
C813 C 0.8663 0.90035 0.90611 0.0
C814 C 0.74413 0.06889 0.16717 0.0
C815 C 0.78098 0.0515 0.14444 0.0
C816 C 0.71588 0.11345 0.16052 0.0
C817 C 0.72383 0.14175 0.13096 0.0
H818 H 0.7404 0.05079 0.1914 0.0
H819 H 0.69128 0.12812 0.18 0.0
S820 S 0.80629 0.10368 0.06003 0.0
N821 N 0.81694 0.05956 0.08885 0.0
N822 N 0.76356 0.14319 0.07613 0.0
C823 C 0.75594 0.1209 0.10641 0.0
C824 C 0.78474 0.07577 0.11325 0.0
C825 C 0.60298 0.01082 0.36143 0.0
C826 C 0.58315 0.97701 0.38552 0.0
C827 C 0.64816 0.03818 0.36739 0.0
C828 C 0.67524 0.03251 0.39754 0.0
H829 H 0.58165 0.01897 0.33879 0.0
H830 H 0.66013 0.06653 0.34917 0.0
S831 S 0.64448 0.94277 0.46643 0.0
N832 N 0.59796 0.93427 0.43893 0.0
N833 N 0.6831 0.98615 0.44992 0.0
C834 C 0.65905 -0.00503 0.42032 0.0
C835 C 0.61285 0.96701 0.41433 0.0
C836 C 0.21916 0.10324 0.43168 0.0
C837 C 0.1896 0.12695 0.40656 0.0
C838 C 0.25239 0.06288 0.42419 0.0
C839 C 0.25646 0.04417 0.39153 0.0
H840 H 0.22011 0.11889 0.45667 0.0
H841 H 0.27755 0.04847 0.44366 0.0
S842 S 0.18013 0.08554 0.31819 0.0
N843 N 0.16082 0.12323 0.34869 0.0
N844 N 0.22309 0.04661 0.33495 0.0
C845 C 0.2227 0.06302 0.36708 0.0
C846 C 0.18905 0.10457 0.37458 0.0
C847 C 0.12052 0.95239 0.13062 0.0
C848 C 0.09605 0.95679 0.16181 0.0
C849 C 0.1634 0.98261 0.1229 0.0
C850 C 0.1828 0.01765 0.14624 0.0
H851 H 0.10339 0.92988 0.11082 0.0
H852 H 0.17792 0.98233 0.09761 0.0
S853 S 0.14193 0.03258 0.23404 0.0
N854 N 0.10128 -0.00956 0.21819 0.0
N855 N 0.18188 0.04733 0.2036 0.0
C856 C 0.1632 0.01706 0.17879 0.0
C857 C 0.11978 0.98639 0.18665 0.0
C858 C 0.24847 0.91575 0.86949 0.0
C859 C 0.21726 0.93742 0.89413 0.0
C860 C 0.27586 0.87052 0.87601 0.0
C861 C 0.27234 0.84584 0.90728 0.0
H862 H 0.24737 0.93047 0.84419 0.0
H863 H 0.2953 0.85215 0.85543 0.0
S864 S 0.20705 0.89607 0.98232 0.0
N865 N 0.19295 0.93768 0.95254 0.0
N866 N 0.24419 0.8525 0.96483 0.0
C867 C 0.24692 0.87124 0.93321 0.0
C868 C 0.21936 0.91722 0.92661 0.0
C869 C 0.32133 0.94862 0.67397 0.0
C870 C 0.29703 0.9519 0.6427 0.0
C871 C 0.36479 0.97801 0.68117 0.0
C872 C 0.38576 0.01137 0.6572 0.0
H873 H 0.30861 0.92066 0.69223 0.0
H874 H 0.38424 0.97163 0.70474 0.0
S875 S 0.33114 0.03935 0.57331 0.0
N876 N 0.29253 -0.00458 0.58919 0.0
N877 N 0.37457 0.05096 0.60241 0.0
C878 C 0.3585 0.01892 0.62708 0.0
C879 C 0.31398 -0.01104 0.61986 0.0
loop_
_geom_bond_atom_site_label_1
_geom_bond_atom_site_label_2
_geom_bond_distance
_geom_bond_site_symmetry_2
_ccdc_geom_bond_type
Sc0 O3 2.025 . S
Sc0 O10 2.105 . S
Sc0 O13 2.105 . S
Sc0 O16 2.105 . S
Sc0 O19 2.105 . S
Sc1 O3 2.025 . S
Sc1 O11 2.105 . S
Sc1 O15 2.105 . S
Sc1 O17 2.105 . S
Sc1 O21 2.105 . S
Sc2 O3 2.025 . S
Sc2 O12 2.105 . S
Sc2 O14 2.105 . S
Sc2 O18 2.105 . S
Sc2 O20 2.105 . S
O3 Sc0 2.025 . S
O3 Sc1 2.025 . S
O3 Sc2 2.025 . S
C4 O10 1.268 . S
C4 O20 1.268 . S
C5 O11 1.268 . S
C5 O19 1.268 . S
C6 O12 1.268 . S
C6 O21 1.268 . S
C7 O13 1.268 . S
C7 O17 1.268 . S
C8 O14 1.268 . S
C8 O16 1.268 . S
C9 O15 1.268 . S
C9 O18 1.268 . S
O10 Sc0 2.105 . S
O10 C4 1.268 . S
O11 Sc1 2.105 . S
O11 C5 1.268 . S
O12 Sc2 2.105 . S
O12 C6 1.268 . S
O13 Sc0 2.105 . S
O13 C7 1.268 . S
O14 Sc2 2.105 . S
O14 C8 1.268 . S
O15 Sc1 2.105 . S
O15 C9 1.268 . S
O16 Sc0 2.105 . S
O16 C8 1.268 . S
O17 Sc1 2.105 . S
O17 C7 1.268 . S
O18 Sc2 2.105 . S
O18 C9 1.268 . S
O19 Sc0 2.105 . S
O19 C5 1.268 . S
O20 Sc2 2.105 . S
O20 C4 1.268 . S
O21 Sc1 2.105 . S
O21 C6 1.268 . S
Sc22 O25 2.025 . S
Sc22 O32 2.105 . S
Sc22 O35 2.105 . S
Sc22 O38 2.105 . S
Sc22 O41 2.105 . S
Sc23 O25 2.025 . S
Sc23 O33 2.105 . S
Sc23 O37 2.105 . S
Sc23 O39 2.105 . S
Sc23 O43 2.105 . S
Sc24 O25 2.025 . S
Sc24 O34 2.105 . S
Sc24 O36 2.105 . S
Sc24 O40 2.105 . S
Sc24 O42 2.105 . S
O25 Sc22 2.025 . S
O25 Sc23 2.025 . S
O25 Sc24 2.025 . S
C26 O32 1.268 . S
C26 O42 1.268 . S
C27 O33 1.268 . S
C27 O41 1.268 . S
C28 O34 1.268 . S
C28 O43 1.268 . S
C29 O35 1.268 . S
C29 O39 1.268 . S
C30 O36 1.268 . S
C30 O38 1.268 . S
C31 O37 1.268 . S
C31 O40 1.268 . S
O32 Sc22 2.105 . S
O32 C26 1.268 . S
O33 Sc23 2.105 . S
O33 C27 1.268 . S
O34 Sc24 2.105 . S
O34 C28 1.268 . S
O35 Sc22 2.105 . S
O35 C29 1.268 . S
O36 Sc24 2.105 . S
O36 C30 1.268 . S
O37 Sc23 2.105 . S
O37 C31 1.268 . S
O38 Sc22 2.105 . S
O38 C30 1.268 . S
O39 Sc23 2.105 . S
O39 C29 1.268 . S
O40 Sc24 2.105 . S
O40 C31 1.268 . S
O41 Sc22 2.105 . S
O41 C27 1.268 . S
O42 Sc24 2.105 . S
O42 C26 1.268 . S
O43 Sc23 2.105 . S
O43 C28 1.268 . S
Sc44 O47 2.025 . S
Sc44 O54 2.105 . S
Sc44 O57 2.105 . S
Sc44 O60 2.105 . S
Sc44 O63 2.105 . S
Sc45 O47 2.025 . S
Sc45 O55 2.105 . S
Sc45 O59 2.105 . S
Sc45 O61 2.105 . S
Sc45 O65 2.105 . S
Sc46 O47 2.025 . S
Sc46 O56 2.105 . S
Sc46 O58 2.105 . S
Sc46 O62 2.105 . S
Sc46 O64 2.105 . S
O47 Sc44 2.025 . S
O47 Sc45 2.025 . S
O47 Sc46 2.025 . S
C48 O54 1.268 . S
C48 O64 1.268 . S
C49 O55 1.268 . S
C49 O63 1.268 . S
C50 O56 1.268 . S
C50 O65 1.268 . S
C51 O57 1.268 . S
C51 O61 1.268 . S
C52 O58 1.268 . S
C52 O60 1.268 . S
C53 O59 1.268 . S
C53 O62 1.268 . S
O54 Sc44 2.105 . S
O54 C48 1.268 . S
O55 Sc45 2.105 . S
O55 C49 1.268 . S
O56 Sc46 2.105 . S
O56 C50 1.268 . S
O57 Sc44 2.105 . S
O57 C51 1.268 . S
O58 Sc46 2.105 . S
O58 C52 1.268 . S
O59 Sc45 2.105 . S
O59 C53 1.268 . S
O60 Sc44 2.105 . S
O60 C52 1.268 . S
O61 Sc45 2.105 . S
O61 C51 1.268 . S
O62 Sc46 2.105 . S
O62 C53 1.268 . S
O63 Sc44 2.105 . S
O63 C49 1.268 . S
O64 Sc46 2.105 . S
O64 C48 1.268 . S
O65 Sc45 2.105 . S
O65 C50 1.268 . S
Sc66 O69 2.025 . S
Sc66 O76 2.105 . S
Sc66 O79 2.105 . S
Sc66 O82 2.105 . S
Sc66 O85 2.105 . S
Sc67 O69 2.025 . S
Sc67 O77 2.105 . S
Sc67 O81 2.105 1_655 S
Sc67 O83 2.105 . S
Sc67 O87 2.105 . S
Sc68 O69 2.025 . S
Sc68 O78 2.105 . S
Sc68 O80 2.105 . S
Sc68 O84 2.105 1_655 S
Sc68 O86 2.105 . S
O69 Sc66 2.025 . S
O69 Sc67 2.025 . S
O69 Sc68 2.025 . S
C70 O76 1.268 . S
C70 O86 1.268 . S
C71 O77 1.268 . S
C71 O85 1.268 . S
C72 O78 1.268 . S
C72 O87 1.268 . S
C73 O79 1.268 . S
C73 O83 1.268 . S
C74 O80 1.268 . S
C74 O82 1.268 . S
C75 O81 1.268 . S
C75 O84 1.268 . S
O76 Sc66 2.105 . S
O76 C70 1.268 . S
O77 Sc67 2.105 . S
O77 C71 1.268 . S
O78 Sc68 2.105 . S
O78 C72 1.268 . S
O79 Sc66 2.105 . S
O79 C73 1.268 . S
O80 Sc68 2.105 . S
O80 C74 1.268 . S
O81 Sc67 2.105 1_455 S
O81 C75 1.268 . S
O82 Sc66 2.105 . S
O82 C74 1.268 . S
O83 Sc67 2.105 . S
O83 C73 1.268 . S
O84 Sc68 2.105 1_455 S
O84 C75 1.268 . S
O85 Sc66 2.105 . S
O85 C71 1.268 . S
O86 Sc68 2.105 . S
O86 C70 1.268 . S
O87 Sc67 2.105 . S
O87 C72 1.268 . S
Sc88 O91 2.025 . S
Sc88 O98 2.105 . S
Sc88 O101 2.105 . S
Sc88 O104 2.105 . S
Sc88 O107 2.105 . S
Sc89 O91 2.025 . S
Sc89 O99 2.105 . S
Sc89 O103 2.105 . S
Sc89 O105 2.105 . S
Sc89 O109 2.105 . S
Sc90 O91 2.025 . S
Sc90 O100 2.105 . S
Sc90 O102 2.105 . S
Sc90 O106 2.105 . S
Sc90 O108 2.105 . S
O91 Sc88 2.025 . S
O91 Sc89 2.025 . S
O91 Sc90 2.025 . S
C92 O98 1.268 . S
C92 O108 1.268 . S
C93 O99 1.268 . S
C93 O107 1.268 . S
C94 O100 1.268 . S
C94 O109 1.268 . S
C95 O101 1.268 . S
C95 O105 1.268 . S
C96 O102 1.268 . S
C96 O104 1.268 . S
C97 O103 1.268 . S
C97 O106 1.268 . S
O98 Sc88 2.105 . S
O98 C92 1.268 . S
O99 Sc89 2.105 . S
O99 C93 1.268 . S
O100 Sc90 2.105 . S
O100 C94 1.268 . S
O101 Sc88 2.105 . S
O101 C95 1.268 . S
O102 Sc90 2.105 . S
O102 C96 1.268 . S
O103 Sc89 2.105 . S
O103 C97 1.268 . S
O104 Sc88 2.105 . S
O104 C96 1.268 . S
O105 Sc89 2.105 . S
O105 C95 1.268 . S
O106 Sc90 2.105 . S
O106 C97 1.268 . S
O107 Sc88 2.105 . S
O107 C93 1.268 . S
O108 Sc90 2.105 . S
O108 C92 1.268 . S
O109 Sc89 2.105 . S
O109 C94 1.268 . S
Sc110 O113 2.025 . S
Sc110 O120 2.105 . S
Sc110 O123 2.105 . S
Sc110 O126 2.105 . S
Sc110 O129 2.105 . S
Sc111 O113 2.025 . S
Sc111 O121 2.105 . S
Sc111 O125 2.105 . S
Sc111 O127 2.105 . S
Sc111 O131 2.105 . S
Sc112 O113 2.025 . S
Sc112 O122 2.105 . S
Sc112 O124 2.105 . S
Sc112 O128 2.105 . S
Sc112 O130 2.105 . S
O113 Sc110 2.025 . S
O113 Sc111 2.025 . S
O113 Sc112 2.025 . S
C114 O120 1.268 . S
C114 O130 1.268 . S
C115 O121 1.268 . S
C115 O129 1.268 . S
C116 O122 1.268 . S
C116 O131 1.268 . S
C117 O123 1.268 . S
C117 O127 1.268 . S
C118 O124 1.268 . S
C118 O126 1.268 . S
C119 O125 1.268 . S
C119 O128 1.268 . S
O120 Sc110 2.105 . S
O120 C114 1.268 . S
O121 Sc111 2.105 . S
O121 C115 1.268 . S
O122 Sc112 2.105 . S
O122 C116 1.268 . S
O123 Sc110 2.105 . S
O123 C117 1.268 . S
O124 Sc112 2.105 . S
O124 C118 1.268 . S
O125 Sc111 2.105 . S
O125 C119 1.268 . S
O126 Sc110 2.105 . S
O126 C118 1.268 . S
O127 Sc111 2.105 . S
O127 C117 1.268 . S
O128 Sc112 2.105 . S
O128 C119 1.268 . S
O129 Sc110 2.105 . S
O129 C115 1.268 . S
O130 Sc112 2.105 . S
O130 C114 1.268 . S
O131 Sc111 2.105 . S
O131 C116 1.268 . S
Sc132 O135 2.025 . S
Sc132 O142 2.105 . S
Sc132 O145 2.105 . S
Sc132 O148 2.105 . S
Sc132 O151 2.105 . S
Sc133 O135 2.025 . S
Sc133 O143 2.105 . S
Sc133 O147 2.105 . S
Sc133 O149 2.105 . S
Sc133 O153 2.105 . S
Sc134 O135 2.025 . S
Sc134 O144 2.105 . S
Sc134 O146 2.105 . S
Sc134 O150 2.105 . S
Sc134 O152 2.105 . S
O135 Sc132 2.025 . S
O135 Sc133 2.025 . S
O135 Sc134 2.025 . S
C136 O142 1.268 . S
C136 O152 1.268 . S
C137 O143 1.268 . S
C137 O151 1.268 . S
C138 O144 1.268 . S
C138 O153 1.268 . S
C139 O145 1.268 . S
C139 O149 1.268 . S
C140 O146 1.268 . S
C140 O148 1.268 . S
C141 O147 1.268 . S
C141 O150 1.268 . S
O142 Sc132 2.105 . S
O142 C136 1.268 . S
O143 Sc133 2.105 . S
O143 C137 1.268 . S
O144 Sc134 2.105 . S
O144 C138 1.268 . S
O145 Sc132 2.105 . S
O145 C139 1.268 . S
O146 Sc134 2.105 . S
O146 C140 1.268 . S
O147 Sc133 2.105 . S
O147 C141 1.268 . S
O148 Sc132 2.105 . S
O148 C140 1.268 . S
O149 Sc133 2.105 . S
O149 C139 1.268 . S
O150 Sc134 2.105 . S
O150 C141 1.268 . S
O151 Sc132 2.105 . S
O151 C137 1.268 . S
O152 Sc134 2.105 . S
O152 C136 1.268 . S
O153 Sc133 2.105 . S
O153 C138 1.268 . S
Sc154 O157 2.025 . S
Sc154 O164 2.105 . S
Sc154 O167 2.105 1_455 S
Sc154 O170 2.105 . S
Sc154 O173 2.105 . S
Sc155 O157 2.025 . S
Sc155 O165 2.105 . S
Sc155 O169 2.105 . S
Sc155 O171 2.105 1_455 S
Sc155 O175 2.105 . S
Sc156 O157 2.025 . S
Sc156 O166 2.105 . S
Sc156 O168 2.105 . S
Sc156 O172 2.105 . S
Sc156 O174 2.105 . S
O157 Sc154 2.025 . S
O157 Sc155 2.025 . S
O157 Sc156 2.025 . S
C158 O164 1.268 . S
C158 O174 1.268 . S
C159 O165 1.268 . S
C159 O173 1.268 . S
C160 O166 1.268 . S
C160 O175 1.268 . S
C161 O167 1.268 . S
C161 O171 1.268 . S
C162 O168 1.268 . S
C162 O170 1.268 . S
C163 O169 1.268 . S
C163 O172 1.268 . S
O164 Sc154 2.105 . S
O164 C158 1.268 . S
O165 Sc155 2.105 . S
O165 C159 1.268 . S
O166 Sc156 2.105 . S
O166 C160 1.268 . S
O167 Sc154 2.105 1_655 S
O167 C161 1.268 . S
O168 Sc156 2.105 . S
O168 C162 1.268 . S
O169 Sc155 2.105 . S
O169 C163 1.268 . S
O170 Sc154 2.105 . S
O170 C162 1.268 . S
O171 Sc155 2.105 1_655 S
O171 C161 1.268 . S
O172 Sc156 2.105 . S
O172 C163 1.268 . S
O173 Sc154 2.105 . S
O173 C159 1.268 . S
O174 Sc156 2.105 . S
O174 C158 1.268 . S
O175 Sc155 2.105 . S
O175 C160 1.268 . S
Sc176 O179 2.025 . S
Sc176 O186 2.105 . S
Sc176 O189 2.105 . S
Sc176 O192 2.105 . S
Sc176 O195 2.105 . S
Sc177 O179 2.025 . S
Sc177 O187 2.105 . S
Sc177 O191 2.105 . S
Sc177 O193 2.105 . S
Sc177 O197 2.105 . S
Sc178 O179 2.025 . S
Sc178 O188 2.105 . S
Sc178 O190 2.105 . S
Sc178 O194 2.105 . S
Sc178 O196 2.105 . S
O179 Sc176 2.025 . S
O179 Sc177 2.025 . S
O179 Sc178 2.025 . S
C180 O186 1.268 . S
C180 O196 1.268 . S
C181 O187 1.268 . S
C181 O195 1.268 . S
C182 O188 1.268 . S
C182 O197 1.268 . S
C183 O189 1.268 . S
C183 O193 1.268 . S
C184 O190 1.268 . S
C184 O192 1.268 . S
C185 O191 1.268 . S
C185 O194 1.268 . S
O186 Sc176 2.105 . S
O186 C180 1.268 . S
O187 Sc177 2.105 . S
O187 C181 1.268 . S
O188 Sc178 2.105 . S
O188 C182 1.268 . S
O189 Sc176 2.105 . S
O189 C183 1.268 . S
O190 Sc178 2.105 . S
O190 C184 1.268 . S
O191 Sc177 2.105 . S
O191 C185 1.268 . S
O192 Sc176 2.105 . S
O192 C184 1.268 . S
O193 Sc177 2.105 . S
O193 C183 1.268 . S
O194 Sc178 2.105 . S
O194 C185 1.268 . S
O195 Sc176 2.105 . S
O195 C181 1.268 . S
O196 Sc178 2.105 . S
O196 C180 1.268 . S
O197 Sc177 2.105 . S
O197 C182 1.268 . S
Sc198 O201 2.025 . S
Sc198 O208 2.105 . S
Sc198 O211 2.105 . S
Sc198 O214 2.105 . S
Sc198 O217 2.105 1_455 S
Sc199 O201 2.025 1_565 S
Sc199 O209 2.105 1_465 S
Sc199 O213 2.105 . S
Sc199 O215 2.105 . S
Sc199 O219 2.105 1_565 S
Sc200 O201 2.025 . S
Sc200 O210 2.105 . S
Sc200 O212 2.105 . S
Sc200 O216 2.105 . S
Sc200 O218 2.105 . S
O201 Sc198 2.025 . S
O201 Sc199 2.025 1_545 S
O201 Sc200 2.025 . S
C202 O208 1.268 . S
C202 O218 1.268 . S
C203 O209 1.268 . S
C203 O217 1.268 . S
C204 O210 1.268 . S
C204 O219 1.268 . S
C205 O211 1.268 . S
C205 O215 1.268 1_545 S
C206 O212 1.268 . S
C206 O214 1.268 . S
C207 O213 1.268 . S
C207 O216 1.268 1_565 S
O208 Sc198 2.105 . S
O208 C202 1.268 . S
O209 Sc199 2.105 1_645 S
O209 C203 1.268 . S
O210 Sc200 2.105 . S
O210 C204 1.268 . S
O211 Sc198 2.105 . S
O211 C205 1.268 . S
O212 Sc200 2.105 . S
O212 C206 1.268 . S
O213 Sc199 2.105 . S
O213 C207 1.268 . S
O214 Sc198 2.105 . S
O214 C206 1.268 . S
O215 Sc199 2.105 . S
O215 C205 1.268 1_565 S
O216 Sc200 2.105 . S
O216 C207 1.268 1_545 S
O217 Sc198 2.105 1_655 S
O217 C203 1.268 . S
O218 Sc200 2.105 . S
O218 C202 1.268 . S
O219 Sc199 2.105 1_545 S
O219 C204 1.268 . S
Sc220 O223 2.025 . S
Sc220 O230 2.105 . S
Sc220 O233 2.105 . S
Sc220 O236 2.105 . S
Sc220 O239 2.105 . S
Sc221 O223 2.025 . S
Sc221 O231 2.105 . S
Sc221 O235 2.105 . S
Sc221 O237 2.105 . S
Sc221 O241 2.105 . S
Sc222 O223 2.025 . S
Sc222 O232 2.105 . S
Sc222 O234 2.105 . S
Sc222 O238 2.105 . S
Sc222 O240 2.105 . S
O223 Sc220 2.025 . S
O223 Sc221 2.025 . S
O223 Sc222 2.025 . S
C224 O230 1.268 . S
C224 O240 1.268 . S
C225 O231 1.268 . S
C225 O239 1.268 . S
C226 O232 1.268 . S
C226 O241 1.268 . S
C227 O233 1.268 . S
C227 O237 1.268 . S
C228 O234 1.268 . S
C228 O236 1.268 . S
C229 O235 1.268 . S
C229 O238 1.268 . S
O230 Sc220 2.105 . S
O230 C224 1.268 . S
O231 Sc221 2.105 . S
O231 C225 1.268 . S
O232 Sc222 2.105 . S
O232 C226 1.268 . S
O233 Sc220 2.105 . S
O233 C227 1.268 . S
O234 Sc222 2.105 . S
O234 C228 1.268 . S
O235 Sc221 2.105 . S
O235 C229 1.268 . S
O236 Sc220 2.105 . S
O236 C228 1.268 . S
O237 Sc221 2.105 . S
O237 C227 1.268 . S
O238 Sc222 2.105 . S
O238 C229 1.268 . S
O239 Sc220 2.105 . S
O239 C225 1.268 . S
O240 Sc222 2.105 . S
O240 C224 1.268 . S
O241 Sc221 2.105 . S
O241 C226 1.268 . S
Sc242 O245 2.025 . S
Sc242 O252 2.105 . S
Sc242 O255 2.105 . S
Sc242 O258 2.105 . S
Sc242 O261 2.105 . S
Sc243 O245 2.025 1_545 S
Sc243 O253 2.105 . S
Sc243 O257 2.105 1_545 S
Sc243 O259 2.105 1_545 S
Sc243 O263 2.105 . S
Sc244 O245 2.025 . S
Sc244 O254 2.105 . S
Sc244 O256 2.105 . S
Sc244 O260 2.105 . S
Sc244 O262 2.105 . S
O245 Sc242 2.025 . S
O245 Sc243 2.025 1_565 S
O245 Sc244 2.025 . S
C246 O252 1.268 . S
C246 O262 1.268 . S
C247 O253 1.268 . S
C247 O261 1.268 1_545 S
C248 O254 1.268 . S
C248 O263 1.268 1_565 S
C249 O255 1.268 . S
C249 O259 1.268 . S
C250 O256 1.268 . S
C250 O258 1.268 . S
C251 O257 1.268 . S
C251 O260 1.268 . S
O252 Sc242 2.105 . S
O252 C246 1.268 . S
O253 Sc243 2.105 . S
O253 C247 1.268 . S
O254 Sc244 2.105 . S
O254 C248 1.268 . S
O255 Sc242 2.105 . S
O255 C249 1.268 . S
O256 Sc244 2.105 . S
O256 C250 1.268 . S
O257 Sc243 2.105 1_565 S
O257 C251 1.268 . S
O258 Sc242 2.105 . S
O258 C250 1.268 . S
O259 Sc243 2.105 1_565 S
O259 C249 1.268 . S
O260 Sc244 2.105 . S
O260 C251 1.268 . S
O261 Sc242 2.105 . S
O261 C247 1.268 1_565 S
O262 Sc244 2.105 . S
O262 C246 1.268 . S
O263 Sc243 2.105 . S
O263 C248 1.268 1_545 S
Sc264 O267 2.025 . S
Sc264 O274 2.105 . S
Sc264 O277 2.105 . S
Sc264 O280 2.105 . S
Sc264 O283 2.105 . S
Sc265 O267 2.025 . S
Sc265 O275 2.105 . S
Sc265 O279 2.105 . S
Sc265 O281 2.105 . S
Sc265 O285 2.105 . S
Sc266 O267 2.025 . S
Sc266 O276 2.105 . S
Sc266 O278 2.105 . S
Sc266 O282 2.105 . S
Sc266 O284 2.105 . S
O267 Sc264 2.025 . S
O267 Sc265 2.025 . S
O267 Sc266 2.025 . S
C268 O274 1.268 . S
C268 O284 1.268 . S
C269 O275 1.268 . S
C269 O283 1.268 . S
C270 O276 1.268 . S
C270 O285 1.268 . S
C271 O277 1.268 . S
C271 O281 1.268 . S
C272 O278 1.268 . S
C272 O280 1.268 . S
C273 O279 1.268 . S
C273 O282 1.268 . S
O274 Sc264 2.105 . S
O274 C268 1.268 . S
O275 Sc265 2.105 . S
O275 C269 1.268 . S
O276 Sc266 2.105 . S
O276 C270 1.268 . S
O277 Sc264 2.105 . S
O277 C271 1.268 . S
O278 Sc266 2.105 . S
O278 C272 1.268 . S
O279 Sc265 2.105 . S
O279 C273 1.268 . S
O280 Sc264 2.105 . S
O280 C272 1.268 . S
O281 Sc265 2.105 . S
O281 C271 1.268 . S
O282 Sc266 2.105 . S
O282 C273 1.268 . S
O283 Sc264 2.105 . S
O283 C269 1.268 . S
O284 Sc266 2.105 . S
O284 C268 1.268 . S
O285 Sc265 2.105 . S
O285 C270 1.268 . S
Sc286 O289 2.025 . S
Sc286 O296 2.105 . S
Sc286 O299 2.105 . S
Sc286 O302 2.105 . S
Sc286 O305 2.105 . S
Sc287 O289 2.025 1_545 S
Sc287 O297 2.105 1_545 S
Sc287 O301 2.105 . S
Sc287 O303 2.105 . S
Sc287 O307 2.105 1_645 S
Sc288 O289 2.025 . S
Sc288 O298 2.105 1_655 S
Sc288 O300 2.105 . S
Sc288 O304 2.105 . S
Sc288 O306 2.105 . S
O289 Sc286 2.025 . S
O289 Sc287 2.025 1_565 S
O289 Sc288 2.025 . S
C290 O296 1.268 . S
C290 O306 1.268 . S
C291 O297 1.268 . S
C291 O305 1.268 . S
C292 O298 1.268 . S
C292 O307 1.268 . S
C293 O299 1.268 1_545 S
C293 O303 1.268 . S
C294 O300 1.268 . S
C294 O302 1.268 . S
C295 O301 1.268 1_565 S
C295 O304 1.268 . S
O296 Sc286 2.105 . S
O296 C290 1.268 . S
O297 Sc287 2.105 1_565 S
O297 C291 1.268 . S
O298 Sc288 2.105 1_455 S
O298 C292 1.268 . S
O299 Sc286 2.105 . S
O299 C293 1.268 1_565 S
O300 Sc288 2.105 . S
O300 C294 1.268 . S
O301 Sc287 2.105 . S
O301 C295 1.268 1_545 S
O302 Sc286 2.105 . S
O302 C294 1.268 . S
O303 Sc287 2.105 . S
O303 C293 1.268 . S
O304 Sc288 2.105 . S
O304 C295 1.268 . S
O305 Sc286 2.105 . S
O305 C291 1.268 . S
O306 Sc288 2.105 . S
O306 C290 1.268 . S
O307 Sc287 2.105 1_465 S
O307 C292 1.268 . S
Sc308 O311 2.025 . S
Sc308 O318 2.105 . S
Sc308 O321 2.105 . S
Sc308 O324 2.105 . S
Sc308 O327 2.105 . S
Sc309 O311 2.025 . S
Sc309 O319 2.105 . S
Sc309 O323 2.105 . S
Sc309 O325 2.105 . S
Sc309 O329 2.105 . S
Sc310 O311 2.025 . S
Sc310 O320 2.105 . S
Sc310 O322 2.105 . S
Sc310 O326 2.105 . S
Sc310 O328 2.105 . S
O311 Sc308 2.025 . S
O311 Sc309 2.025 . S
O311 Sc310 2.025 . S
C312 O318 1.268 . S
C312 O328 1.268 . S
C313 O319 1.268 . S
C313 O327 1.268 . S
C314 O320 1.268 . S
C314 O329 1.268 . S
C315 O321 1.268 . S
C315 O325 1.268 . S
C316 O322 1.268 . S
C316 O324 1.268 . S
C317 O323 1.268 . S
C317 O326 1.268 . S
O318 Sc308 2.105 . S
O318 C312 1.268 . S
O319 Sc309 2.105 . S
O319 C313 1.268 . S
O320 Sc310 2.105 . S
O320 C314 1.268 . S
O321 Sc308 2.105 . S
O321 C315 1.268 . S
O322 Sc310 2.105 . S
O322 C316 1.268 . S
O323 Sc309 2.105 . S
O323 C317 1.268 . S
O324 Sc308 2.105 . S
O324 C316 1.268 . S
O325 Sc309 2.105 . S
O325 C315 1.268 . S
O326 Sc310 2.105 . S
O326 C317 1.268 . S
O327 Sc308 2.105 . S
O327 C313 1.268 . S
O328 Sc310 2.105 . S
O328 C312 1.268 . S
O329 Sc309 2.105 . S
O329 C314 1.268 . S
Sc330 O333 2.025 . S
Sc330 O340 2.105 . S
Sc330 O343 2.105 . S
Sc330 O346 2.105 . S
Sc330 O349 2.105 . S
Sc331 O333 2.025 1_565 S
Sc331 O341 2.105 . S
Sc331 O345 2.105 1_565 S
Sc331 O347 2.105 1_565 S
Sc331 O351 2.105 . S
Sc332 O333 2.025 . S
Sc332 O342 2.105 . S
Sc332 O344 2.105 . S
Sc332 O348 2.105 . S
Sc332 O350 2.105 . S
O333 Sc330 2.025 . S
O333 Sc331 2.025 1_545 S
O333 Sc332 2.025 . S
C334 O340 1.268 . S
C334 O350 1.268 . S
C335 O341 1.268 1_545 S
C335 O349 1.268 . S
C336 O342 1.268 1_565 S
C336 O351 1.268 . S
C337 O343 1.268 . S
C337 O347 1.268 . S
C338 O344 1.268 . S
C338 O346 1.268 . S
C339 O345 1.268 . S
C339 O348 1.268 . S
O340 Sc330 2.105 . S
O340 C334 1.268 . S
O341 Sc331 2.105 . S
O341 C335 1.268 1_565 S
O342 Sc332 2.105 . S
O342 C336 1.268 1_545 S
O343 Sc330 2.105 . S
O343 C337 1.268 . S
O344 Sc332 2.105 . S
O344 C338 1.268 . S
O345 Sc331 2.105 1_545 S
O345 C339 1.268 . S
O346 Sc330 2.105 . S
O346 C338 1.268 . S
O347 Sc331 2.105 1_545 S
O347 C337 1.268 . S
O348 Sc332 2.105 . S
O348 C339 1.268 . S
O349 Sc330 2.105 . S
O349 C335 1.268 . S
O350 Sc332 2.105 . S
O350 C334 1.268 . S
O351 Sc331 2.105 . S
O351 C336 1.268 . S
C352 C353 1.369 . S
C352 C354 1.419 . S
C352 H356 0.930 . S
C353 C352 1.369 . S
C353 C362 1.429 . S
C354 C352 1.419 . S
C354 C355 1.363 . S
C354 H357 0.929 . S
C355 C354 1.363 . S
C355 C361 1.428 . S
H356 C352 0.930 . S
H357 C354 0.929 . S
S358 N359 1.613 . S
S358 N360 1.610 . S
N359 S358 1.613 . S
N359 C362 1.350 . S
N360 S358 1.610 . S
N360 C361 1.351 . S
C361 C355 1.428 . S
C361 N360 1.351 . S
C361 C362 1.434 . S
C362 C353 1.429 . S
C362 N359 1.350 . S
C362 C361 1.434 . S
C363 C364 1.369 . S
C363 C365 1.419 . S
C363 H367 0.930 . S
C364 C363 1.369 . S
C364 C373 1.429 . S
C365 C363 1.419 . S
C365 C366 1.363 . S
C365 H368 0.929 . S
C366 C365 1.363 . S
C366 C372 1.428 . S
H367 C363 0.930 . S
H368 C365 0.929 . S
S369 N370 1.613 . S
S369 N371 1.610 . S
N370 S369 1.613 . S
N370 C373 1.350 . S
N371 S369 1.610 . S
N371 C372 1.351 . S
C372 C366 1.428 . S
C372 N371 1.351 . S
C372 C373 1.434 . S
C373 C364 1.429 . S
C373 N370 1.350 . S
C373 C372 1.434 . S
C374 C375 1.369 . S
C374 C376 1.419 . S
C374 H378 0.930 . S
C375 C374 1.369 . S
C375 C384 1.429 . S
C376 C374 1.419 . S
C376 C377 1.363 . S
C376 H379 0.929 . S
C377 C376 1.363 . S
C377 C383 1.428 . S
H378 C374 0.930 . S
H379 C376 0.929 . S
S380 N381 1.613 . S
S380 N382 1.610 . S
N381 S380 1.613 . S
N381 C384 1.350 . S
N382 S380 1.610 . S
N382 C383 1.351 . S
C383 C377 1.428 . S
C383 N382 1.351 . S
C383 C384 1.434 . S
C384 C375 1.429 . S
C384 N381 1.350 . S
C384 C383 1.434 . S
C385 C386 1.369 1_455 S
C385 C387 1.419 1_556 S
C385 H389 0.930 . S
C386 C385 1.369 1_655 S
C386 C395 1.429 . S
C387 C385 1.419 1_554 S
C387 C388 1.363 . S
C387 H390 0.929 . S
C388 C387 1.363 . S
C388 C394 1.428 1_455 S
H389 C385 0.930 . S
H390 C387 0.929 . S
S391 N392 1.613 1_554 S
S391 N393 1.610 . S
N392 S391 1.613 1_556 S
N392 C395 1.350 . S
N393 S391 1.610 . S
N393 C394 1.351 . S
C394 C388 1.428 1_655 S
C394 N393 1.351 . S
C394 C395 1.434 1_554 S
C395 C386 1.429 . S
C395 N392 1.350 . S
C395 C394 1.434 1_556 S
C396 C397 1.369 . S
C396 C398 1.419 . S
C396 H400 0.930 . S
C397 C396 1.369 . S
C397 C406 1.429 . S
C398 C396 1.419 . S
C398 C399 1.363 . S
C398 H401 0.929 . S
C399 C398 1.363 . S
C399 C405 1.428 . S
H400 C396 0.930 . S
H401 C398 0.929 . S
S402 N403 1.613 . S
S402 N404 1.610 . S
N403 S402 1.613 . S
N403 C406 1.350 . S
N404 S402 1.610 . S
N404 C405 1.351 . S
C405 C399 1.428 . S
C405 N404 1.351 . S
C405 C406 1.434 . S
C406 C397 1.429 . S
C406 N403 1.350 . S
C406 C405 1.434 . S
C407 C408 1.369 . S
C407 C409 1.419 . S
C407 H411 0.930 . S
C408 C407 1.369 . S
C408 C417 1.429 . S
C409 C407 1.419 . S
C409 C410 1.363 . S
C409 H412 0.929 . S
C410 C409 1.363 . S
C410 C416 1.428 . S
H411 C407 0.930 . S
H412 C409 0.929 . S
S413 N414 1.613 . S
S413 N415 1.610 . S
N414 S413 1.613 . S
N414 C417 1.350 . S
N415 S413 1.610 . S
N415 C416 1.351 . S
C416 C410 1.428 . S
C416 N415 1.351 . S
C416 C417 1.434 . S
C417 C408 1.429 . S
C417 N414 1.350 . S
C417 C416 1.434 . S
C418 C419 1.369 1_565 S
C418 C420 1.419 1_554 S
C418 H422 0.930 . S
C419 C418 1.369 1_545 S
C419 C428 1.429 1_655 S
C420 C418 1.419 1_556 S
C420 C421 1.363 1_655 S
C420 H423 0.929 . S
C421 C420 1.363 1_455 S
C421 C427 1.428 1_565 S
H422 C418 0.930 . S
H423 C420 0.929 . S
S424 N425 1.613 . S
S424 N426 1.610 1_554 S
N425 S424 1.613 . S
N425 C428 1.350 . S
N426 S424 1.610 1_556 S
N426 C427 1.351 . S
C427 C421 1.428 1_545 S
C427 N426 1.351 . S
C427 C428 1.434 1_556 S
C428 C419 1.429 1_455 S
C428 N425 1.350 . S
C428 C427 1.434 1_554 S
C429 C430 1.369 1_565 S
C429 C431 1.419 . S
C429 H433 0.930 . S
C430 C429 1.369 1_545 S
C430 C439 1.429 . S
C431 C429 1.419 . S
C431 C432 1.363 . S
C431 H434 0.929 . S
C432 C431 1.363 . S
C432 C438 1.428 1_565 S
H433 C429 0.930 . S
H434 C431 0.929 . S
S435 N436 1.613 . S
S435 N437 1.610 . S
N436 S435 1.613 . S
N436 C439 1.350 . S
N437 S435 1.610 . S
N437 C438 1.351 . S
C438 C432 1.428 1_545 S
C438 N437 1.351 . S
C438 C439 1.434 . S
C439 C430 1.429 . S
C439 N436 1.350 . S
C439 C438 1.434 . S
C440 C441 1.369 . S
C440 C442 1.419 . S
C440 H444 0.930 . S
C441 C440 1.369 . S
C441 C450 1.429 . S
C442 C440 1.419 . S
C442 C443 1.363 1_556 S
C442 H445 0.929 . S
C443 C442 1.363 1_554 S
C443 C449 1.428 . S
H444 C440 0.930 . S
H445 C442 0.929 . S
S446 N447 1.613 1_554 S
S446 N448 1.610 . S
N447 S446 1.613 1_556 S
N447 C450 1.350 . S
N448 S446 1.610 . S
N448 C449 1.351 . S
C449 C443 1.428 . S
C449 N448 1.351 . S
C449 C450 1.434 1_554 S
C450 C441 1.429 . S
C450 N447 1.350 . S
C450 C449 1.434 1_556 S
C451 C452 1.369 . S
C451 C453 1.419 . S
C451 H455 0.930 . S
C452 C451 1.369 . S
C452 C461 1.429 . S
C453 C451 1.419 . S
C453 C454 1.363 . S
C453 H456 0.929 . S
C454 C453 1.363 . S
C454 C460 1.428 . S
H455 C451 0.930 . S
H456 C453 0.929 . S
S457 N458 1.613 . S
S457 N459 1.610 . S
N458 S457 1.613 . S
N458 C461 1.350 . S
N459 S457 1.610 . S
N459 C460 1.351 . S
C460 C454 1.428 . S
C460 N459 1.351 . S
C460 C461 1.434 . S
C461 C452 1.429 . S
C461 N458 1.350 . S
C461 C460 1.434 . S
C462 C463 1.369 . S
C462 C464 1.419 . S
C462 H466 0.930 . S
C463 C462 1.369 . S
C463 C472 1.429 . S
C464 C462 1.419 . S
C464 C465 1.363 . S
C464 H467 0.929 . S
C465 C464 1.363 . S
C465 C471 1.428 . S
H466 C462 0.930 . S
H467 C464 0.929 . S
S468 N469 1.613 . S
S468 N470 1.610 . S
N469 S468 1.613 . S
N469 C472 1.350 . S
N470 S468 1.610 . S
N470 C471 1.351 . S
C471 C465 1.428 . S
C471 N470 1.351 . S
C471 C472 1.434 . S
C472 C463 1.429 . S
C472 N469 1.350 . S
C472 C471 1.434 . S
C473 C474 1.369 . S
C473 C475 1.419 . S
C473 H477 0.930 . S
C474 C473 1.369 . S
C474 C483 1.429 . S
C475 C473 1.419 . S
C475 C476 1.363 . S
C475 H478 0.929 . S
C476 C475 1.363 . S
C476 C482 1.428 . S
H477 C473 0.930 . S
H478 C475 0.929 . S
S479 N480 1.613 . S
S479 N481 1.610 . S
N480 S479 1.613 . S
N480 C483 1.350 . S
N481 S479 1.610 . S
N481 C482 1.351 . S
C482 C476 1.428 . S
C482 N481 1.351 . S
C482 C483 1.434 . S
C483 C474 1.429 . S
C483 N480 1.350 . S
C483 C482 1.434 . S
C484 C485 1.369 . S
C484 C486 1.419 . S
C484 H488 0.930 . S
C485 C484 1.369 . S
C485 C494 1.429 . S
C486 C484 1.419 . S
C486 C487 1.363 1_554 S
C486 H489 0.929 1_554 S
C487 C486 1.363 1_556 S
C487 C493 1.428 . S
H488 C484 0.930 . S
H489 C486 0.929 1_556 S
S490 N491 1.613 . S
S490 N492 1.610 1_554 S
N491 S490 1.613 . S
N491 C494 1.350 . S
N492 S490 1.610 1_556 S
N492 C493 1.351 . S
C493 C487 1.428 . S
C493 N492 1.351 . S
C493 C494 1.434 1_556 S
C494 C485 1.429 . S
C494 N491 1.350 . S
C494 C493 1.434 1_554 S
C495 C496 1.369 . S
C495 C497 1.419 . S
C495 H499 0.930 . S
C496 C495 1.369 . S
C496 C505 1.429 . S
C497 C495 1.419 . S
C497 C498 1.363 . S
C497 H500 0.929 . S
C498 C497 1.363 . S
C498 C504 1.428 . S
H499 C495 0.930 . S
H500 C497 0.929 . S
S501 N502 1.613 . S
S501 N503 1.610 . S
N502 S501 1.613 . S
N502 C505 1.350 . S
N503 S501 1.610 . S
N503 C504 1.351 . S
C504 C498 1.428 . S
C504 N503 1.351 . S
C504 C505 1.434 . S
C505 C496 1.429 . S
C505 N502 1.350 . S
C505 C504 1.434 . S
C506 C507 1.369 . S
C506 C508 1.419 . S
C506 H510 0.930 . S
C507 C506 1.369 . S
C507 C516 1.429 . S
C508 C506 1.419 . S
C508 C509 1.363 . S
C508 H511 0.929 . S
C509 C508 1.363 . S
C509 C515 1.428 . S
H510 C506 0.930 . S
H511 C508 0.929 . S
S512 N513 1.613 . S
S512 N514 1.610 . S
N513 S512 1.613 . S
N513 C516 1.350 . S
N514 S512 1.610 . S
N514 C515 1.351 . S
C515 C509 1.428 . S
C515 N514 1.351 . S
C515 C516 1.434 . S
C516 C507 1.429 . S
C516 N513 1.350 . S
C516 C515 1.434 . S
C517 C518 1.369 . S
C517 C519 1.419 . S
C517 H521 0.930 . S
C518 C517 1.369 . S
C518 C527 1.429 . S
C519 C517 1.419 . S
C519 C520 1.363 . S
C519 H522 0.929 . S
C520 C519 1.363 . S
C520 C526 1.428 . S
H521 C517 0.930 . S
H522 C519 0.929 . S
S523 N524 1.613 . S
S523 N525 1.610 . S
N524 S523 1.613 . S
N524 C527 1.350 . S
N525 S523 1.610 . S
N525 C526 1.351 . S
C526 C520 1.428 . S
C526 N525 1.351 . S
C526 C527 1.434 . S
C527 C518 1.429 . S
C527 N524 1.350 . S
C527 C526 1.434 . S
C528 C529 1.369 . S
C528 C530 1.419 . S
C528 H532 0.930 . S
C529 C528 1.369 . S
C529 C538 1.429 . S
C530 C528 1.419 . S
C530 C531 1.363 . S
C530 H533 0.929 . S
C531 C530 1.363 . S
C531 C537 1.428 . S
H532 C528 0.930 . S
H533 C530 0.929 . S
S534 N535 1.613 . S
S534 N536 1.610 . S
N535 S534 1.613 . S
N535 C538 1.350 . S
N536 S534 1.610 . S
N536 C537 1.351 . S
C537 C531 1.428 . S
C537 N536 1.351 . S
C537 C538 1.434 . S
C538 C529 1.429 . S
C538 N535 1.350 . S
C538 C537 1.434 . S
C539 C540 1.369 1_565 S
C539 C541 1.419 . S
C539 H543 0.930 . S
C540 C539 1.369 1_545 S
C540 C549 1.429 . S
C541 C539 1.419 . S
C541 C542 1.363 . S
C541 H544 0.929 . S
C542 C541 1.363 . S
C542 C548 1.428 . S
H543 C539 0.930 . S
H544 C541 0.929 . S
S545 N546 1.613 . S
S545 N547 1.610 1_545 S
N546 S545 1.613 . S
N546 C549 1.350 . S
N547 S545 1.610 1_565 S
N547 C548 1.351 . S
C548 C542 1.428 . S
C548 N547 1.351 . S
C548 C549 1.434 1_565 S
C549 C540 1.429 . S
C549 N546 1.350 . S
C549 C548 1.434 1_545 S
C550 C551 1.369 1_556 S
C550 C552 1.419 . S
C550 H554 0.930 . S
C551 C550 1.369 1_554 S
C551 C560 1.429 . S
C552 C550 1.419 . S
C552 C553 1.363 . S
C552 H555 0.929 . S
C553 C552 1.363 . S
C553 C559 1.428 . S
H554 C550 0.930 . S
H555 C552 0.929 . S
S556 N557 1.613 . S
S556 N558 1.610 1_554 S
N557 S556 1.613 . S
N557 C560 1.350 . S
N558 S556 1.610 1_556 S
N558 C559 1.351 . S
C559 C553 1.428 . S
C559 N558 1.351 . S
C559 C560 1.434 1_556 S
C560 C551 1.429 . S
C560 N557 1.350 . S
C560 C559 1.434 1_554 S
C561 C562 1.369 . S
C561 C563 1.419 1_545 S
C561 H565 0.930 . S
C562 C561 1.369 . S
C562 C571 1.429 . S
C563 C561 1.419 1_565 S
C563 C564 1.363 . S
C563 H566 0.929 . S
C564 C563 1.363 . S
C564 C570 1.428 1_565 S
H565 C561 0.930 . S
H566 C563 0.929 . S
S567 N568 1.613 . S
S567 N569 1.610 . S
N568 S567 1.613 . S
N568 C571 1.350 . S
N569 S567 1.610 . S
N569 C570 1.351 . S
C570 C564 1.428 1_545 S
C570 N569 1.351 . S
C570 C571 1.434 . S
C571 C562 1.429 . S
C571 N568 1.350 . S
C571 C570 1.434 . S
C572 C573 1.369 . S
C572 C574 1.419 . S
C572 H576 0.930 . S
C573 C572 1.369 . S
C573 C582 1.429 . S
C574 C572 1.419 . S
C574 C575 1.363 . S
C574 H577 0.929 . S
C575 C574 1.363 . S
C575 C581 1.428 . S
H576 C572 0.930 . S
H577 C574 0.929 . S
S578 N579 1.613 . S
S578 N580 1.610 . S
N579 S578 1.613 . S
N579 C582 1.350 . S
N580 S578 1.610 . S
N580 C581 1.351 . S
C581 C575 1.428 . S
C581 N580 1.351 . S
C581 C582 1.434 . S
C582 C573 1.429 . S
C582 N579 1.350 . S
C582 C581 1.434 . S
C583 C584 1.369 1_545 S
C583 C585 1.419 . S
C583 H587 0.930 . S
C584 C583 1.369 1_565 S
C584 C593 1.429 . S
C585 C583 1.419 . S
C585 C586 1.363 . S
C585 H588 0.929 . S
C586 C585 1.363 . S
C586 C592 1.428 . S
H587 C583 0.930 . S
H588 C585 0.929 . S
S589 N590 1.613 . S
S589 N591 1.610 . S
N590 S589 1.613 . S
N590 C593 1.350 . S
N591 S589 1.610 . S
N591 C592 1.351 1_565 S
C592 C586 1.428 . S
C592 N591 1.351 1_545 S
C592 C593 1.434 1_545 S
C593 C584 1.429 . S
C593 N590 1.350 . S
C593 C592 1.434 1_565 S
C594 C595 1.369 . S
C594 C596 1.419 1_554 S
C594 H598 0.930 . S
C595 C594 1.369 . S
C595 C604 1.429 . S
C596 C594 1.419 1_556 S
C596 C597 1.363 . S
C596 H599 0.929 . S
C597 C596 1.363 . S
C597 C603 1.428 1_556 S
H598 C594 0.930 . S
H599 C596 0.929 . S
S600 N601 1.613 . S
S600 N602 1.610 1_554 S
N601 S600 1.613 . S
N601 C604 1.350 . S
N602 S600 1.610 1_556 S
N602 C603 1.351 1_556 S
C603 C597 1.428 1_554 S
C603 N602 1.351 1_554 S
C603 C604 1.434 . S
C604 C595 1.429 . S
C604 N601 1.350 . S
C604 C603 1.434 . S
C605 C606 1.369 1_565 S
C605 C607 1.419 . S
C605 H609 0.930 . S
C606 C605 1.369 1_545 S
C606 C615 1.429 . S
C607 C605 1.419 . S
C607 C608 1.363 . S
C607 H610 0.929 . S
C608 C607 1.363 . S
C608 C614 1.428 1_565 S
H609 C605 0.930 . S
H610 C607 0.929 . S
S611 N612 1.613 . S
S611 N613 1.610 . S
N612 S611 1.613 . S
N612 C615 1.350 . S
N613 S611 1.610 . S
N613 C614 1.351 . S
C614 C608 1.428 1_545 S
C614 N613 1.351 . S
C614 C615 1.434 . S
C615 C606 1.429 . S
C615 N612 1.350 . S
C615 C614 1.434 . S
C616 C617 1.369 . S
C616 C618 1.419 . S
C616 H620 0.930 . S
C617 C616 1.369 . S
C617 C626 1.429 . S
C618 C616 1.419 . S
C618 C619 1.363 . S
C618 H621 0.929 . S
C619 C618 1.363 . S
C619 C625 1.428 . S
H620 C616 0.930 . S
H621 C618 0.929 . S
S622 N623 1.613 . S
S622 N624 1.610 . S
N623 S622 1.613 . S
N623 C626 1.350 . S
N624 S622 1.610 . S
N624 C625 1.351 . S
C625 C619 1.428 . S
C625 N624 1.351 . S
C625 C626 1.434 . S
C626 C617 1.429 . S
C626 N623 1.350 . S
C626 C625 1.434 . S
C627 C628 1.369 . S
C627 C629 1.419 . S
C627 H631 0.930 . S
C628 C627 1.369 . S
C628 C637 1.429 . S
C629 C627 1.419 . S
C629 C630 1.363 . S
C629 H632 0.929 . S
C630 C629 1.363 . S
C630 C636 1.428 . S
H631 C627 0.930 . S
H632 C629 0.929 . S
S633 N634 1.613 . S
S633 N635 1.610 . S
N634 S633 1.613 . S
N634 C637 1.350 . S
N635 S633 1.610 . S
N635 C636 1.351 . S
C636 C630 1.428 . S
C636 N635 1.351 . S
C636 C637 1.434 . S
C637 C628 1.429 . S
C637 N634 1.350 . S
C637 C636 1.434 . S
C638 C639 1.369 1_455 S
C638 C640 1.419 . S
C638 H642 0.930 . S
C639 C638 1.369 1_655 S
C639 C648 1.429 . S
C640 C638 1.419 . S
C640 C641 1.363 . S
C640 H643 0.929 . S
C641 C640 1.363 . S
C641 C647 1.428 1_455 S
H642 C638 0.930 . S
H643 C640 0.929 . S
S644 N645 1.613 . S
S644 N646 1.610 . S
N645 S644 1.613 . S
N645 C648 1.350 . S
N646 S644 1.610 . S
N646 C647 1.351 . S
C647 C641 1.428 1_655 S
C647 N646 1.351 . S
C647 C648 1.434 . S
C648 C639 1.429 . S
C648 N645 1.350 . S
C648 C647 1.434 . S
C649 C650 1.369 . S
C649 C651 1.419 1_655 S
C649 H653 0.930 . S
C650 C649 1.369 . S
C650 C659 1.429 . S
C651 C649 1.419 1_455 S
C651 C652 1.363 . S
C651 H654 0.929 . S
C652 C651 1.363 . S
C652 C658 1.428 . S
H653 C649 0.930 . S
H654 C651 0.929 . S
S655 N656 1.613 1_455 S
S655 N657 1.610 . S
N656 S655 1.613 1_655 S
N656 C659 1.350 . S
N657 S655 1.610 . S
N657 C658 1.351 . S
C658 C652 1.428 . S
C658 N657 1.351 . S
C658 C659 1.434 1_455 S
C659 C650 1.429 . S
C659 N656 1.350 . S
C659 C658 1.434 1_655 S
C660 C661 1.369 . S
C660 C662 1.419 . S
C660 H664 0.930 . S
C661 C660 1.369 . S
C661 C670 1.429 . S
C662 C660 1.419 . S
C662 C663 1.363 . S
C662 H665 0.929 . S
C663 C662 1.363 . S
C663 C669 1.428 . S
H664 C660 0.930 . S
H665 C662 0.929 . S
S666 N667 1.613 . S
S666 N668 1.610 . S
N667 S666 1.613 . S
N667 C670 1.350 . S
N668 S666 1.610 . S
N668 C669 1.351 . S
C669 C663 1.428 . S
C669 N668 1.351 . S
C669 C670 1.434 . S
C670 C661 1.429 . S
C670 N667 1.350 . S
C670 C669 1.434 . S
C671 C672 1.369 . S
C671 C673 1.419 . S
C671 H675 0.930 . S
C672 C671 1.369 . S
C672 C681 1.429 . S
C673 C671 1.419 . S
C673 C674 1.363 . S
C673 H676 0.929 . S
C674 C673 1.363 . S
C674 C680 1.428 . S
H675 C671 0.930 . S
H676 C673 0.929 . S
S677 N678 1.613 . S
S677 N679 1.610 . S
N678 S677 1.613 . S
N678 C681 1.350 . S
N679 S677 1.610 . S
N679 C680 1.351 . S
C680 C674 1.428 . S
C680 N679 1.351 . S
C680 C681 1.434 . S
C681 C672 1.429 . S
C681 N678 1.350 . S
C681 C680 1.434 . S
C682 C683 1.369 . S
C682 C684 1.419 1_455 S
C682 H686 0.930 . S
C683 C682 1.369 . S
C683 C692 1.429 . S
C684 C682 1.419 1_655 S
C684 C685 1.363 . S
C684 H687 0.929 . S
C685 C684 1.363 . S
C685 C691 1.428 . S
H686 C682 0.930 . S
H687 C684 0.929 . S
S688 N689 1.613 . S
S688 N690 1.610 1_455 S
N689 S688 1.613 . S
N689 C692 1.350 . S
N690 S688 1.610 1_655 S
N690 C691 1.351 . S
C691 C685 1.428 . S
C691 N690 1.351 . S
C691 C692 1.434 1_655 S
C692 C683 1.429 . S
C692 N689 1.350 . S
C692 C691 1.434 1_455 S
C693 C694 1.369 . S
C693 C695 1.419 1_455 S
C693 H697 0.930 . S
C694 C693 1.369 . S
C694 C703 1.429 . S
C695 C693 1.419 1_655 S
C695 C696 1.363 . S
C695 H698 0.929 . S
C696 C695 1.363 . S
C696 C702 1.428 . S
H697 C693 0.930 . S
H698 C695 0.929 . S
S699 N700 1.613 1_655 S
S699 N701 1.610 . S
N700 S699 1.613 1_455 S
N700 C703 1.350 . S
N701 S699 1.610 . S
N701 C702 1.351 . S
C702 C696 1.428 . S
C702 N701 1.351 . S
C702 C703 1.434 1_655 S
C703 C694 1.429 . S
C703 N700 1.350 . S
C703 C702 1.434 1_455 S
C704 C705 1.369 . S
C704 C706 1.419 . S
C704 H708 0.930 . S
C705 C704 1.369 . S
C705 C714 1.429 . S
C706 C704 1.419 . S
C706 C707 1.363 . S
C706 H709 0.929 . S
C707 C706 1.363 . S
C707 C713 1.428 . S
H708 C704 0.930 . S
H709 C706 0.929 . S
S710 N711 1.613 . S
S710 N712 1.610 . S
N711 S710 1.613 . S
N711 C714 1.350 . S
N712 S710 1.610 . S
N712 C713 1.351 . S
C713 C707 1.428 . S
C713 N712 1.351 . S
C713 C714 1.434 . S
C714 C705 1.429 . S
C714 N711 1.350 . S
C714 C713 1.434 . S
C715 C716 1.369 . S
C715 C717 1.419 . S
C715 H719 0.930 . S
C716 C715 1.369 . S
C716 C725 1.429 . S
C717 C715 1.419 . S
C717 C718 1.363 . S
C717 H720 0.929 . S
C718 C717 1.363 . S
C718 C724 1.428 . S
H719 C715 0.930 . S
H720 C717 0.929 . S
S721 N722 1.613 . S
S721 N723 1.610 . S
N722 S721 1.613 . S
N722 C725 1.350 . S
N723 S721 1.610 . S
N723 C724 1.351 . S
C724 C718 1.428 . S
C724 N723 1.351 . S
C724 C725 1.434 . S
C725 C716 1.429 . S
C725 N722 1.350 . S
C725 C724 1.434 . S
C726 C727 1.369 . S
C726 C728 1.419 . S
C726 H730 0.930 . S
C727 C726 1.369 . S
C727 C736 1.429 . S
C728 C726 1.419 . S
C728 C729 1.363 . S
C728 H731 0.929 . S
C729 C728 1.363 . S
C729 C735 1.428 . S
H730 C726 0.930 . S
H731 C728 0.929 . S
S732 N733 1.613 . S
S732 N734 1.610 . S
N733 S732 1.613 . S
N733 C736 1.350 . S
N734 S732 1.610 . S
N734 C735 1.351 . S
C735 C729 1.428 . S
C735 N734 1.351 . S
C735 C736 1.434 . S
C736 C727 1.429 . S
C736 N733 1.350 . S
C736 C735 1.434 . S
C737 C738 1.369 . S
C737 C739 1.419 . S
C737 H741 0.930 . S
C738 C737 1.369 . S
C738 C747 1.429 . S
C739 C737 1.419 . S
C739 C740 1.363 . S
C739 H742 0.929 . S
C740 C739 1.363 . S
C740 C746 1.428 . S
H741 C737 0.930 . S
H742 C739 0.929 . S
S743 N744 1.613 . S
S743 N745 1.610 . S
N744 S743 1.613 . S
N744 C747 1.350 . S
N745 S743 1.610 . S
N745 C746 1.351 . S
C746 C740 1.428 . S
C746 N745 1.351 . S
C746 C747 1.434 . S
C747 C738 1.429 . S
C747 N744 1.350 . S
C747 C746 1.434 . S
C748 C749 1.369 . S
C748 C750 1.419 . S
C748 H752 0.930 . S
C749 C748 1.369 . S
C749 C758 1.429 . S
C750 C748 1.419 . S
C750 C751 1.363 . S
C750 H753 0.929 . S
C751 C750 1.363 . S
C751 C757 1.428 . S
H752 C748 0.930 . S
H753 C750 0.929 . S
S754 N755 1.613 . S
S754 N756 1.610 . S
N755 S754 1.613 . S
N755 C758 1.350 . S
N756 S754 1.610 . S
N756 C757 1.351 . S
C757 C751 1.428 . S
C757 N756 1.351 . S
C757 C758 1.434 . S
C758 C749 1.429 . S
C758 N755 1.350 . S
C758 C757 1.434 . S
C759 C760 1.369 . S
C759 C761 1.419 . S
C759 H763 0.930 . S
C760 C759 1.369 . S
C760 C769 1.429 . S
C761 C759 1.419 . S
C761 C762 1.363 . S
C761 H764 0.929 . S
C762 C761 1.363 . S
C762 C768 1.428 . S
H763 C759 0.930 . S
H764 C761 0.929 . S
S765 N766 1.613 . S
S765 N767 1.610 . S
N766 S765 1.613 . S
N766 C769 1.350 . S
N767 S765 1.610 . S
N767 C768 1.351 . S
C768 C762 1.428 . S
C768 N767 1.351 . S
C768 C769 1.434 . S
C769 C760 1.429 . S
C769 N766 1.350 . S
C769 C768 1.434 . S
C770 C771 1.369 . S
C770 C772 1.419 . S
C770 H774 0.930 . S
C771 C770 1.369 . S
C771 C780 1.429 . S
C772 C770 1.419 . S
C772 C773 1.363 . S
C772 H775 0.929 . S
C773 C772 1.363 . S
C773 C779 1.428 . S
H774 C770 0.930 . S
H775 C772 0.929 . S
S776 N777 1.613 . S
S776 N778 1.610 . S
N777 S776 1.613 . S
N777 C780 1.350 . S
N778 S776 1.610 . S
N778 C779 1.351 . S
C779 C773 1.428 . S
C779 N778 1.351 . S
C779 C780 1.434 . S
C780 C771 1.429 . S
C780 N777 1.350 . S
C780 C779 1.434 . S
C781 C782 1.369 . S
C781 C783 1.419 . S
C781 H785 0.930 . S
C782 C781 1.369 . S
C782 C791 1.429 . S
C783 C781 1.419 . S
C783 C784 1.363 . S
C783 H786 0.929 . S
C784 C783 1.363 . S
C784 C790 1.428 . S
H785 C781 0.930 . S
H786 C783 0.929 . S
S787 N788 1.613 . S
S787 N789 1.610 . S
N788 S787 1.613 . S
N788 C791 1.350 . S
N789 S787 1.610 . S
N789 C790 1.351 . S
C790 C784 1.428 . S
C790 N789 1.351 . S
C790 C791 1.434 . S
C791 C782 1.429 . S
C791 N788 1.350 . S
C791 C790 1.434 . S
C792 C793 1.369 . S
C792 C794 1.419 . S
C792 H796 0.930 . S
C793 C792 1.369 . S
C793 C802 1.429 . S
C794 C792 1.419 . S
C794 C795 1.363 . S
C794 H797 0.929 . S
C795 C794 1.363 . S
C795 C801 1.428 . S
H796 C792 0.930 . S
H797 C794 0.929 . S
S798 N799 1.613 . S
S798 N800 1.610 . S
N799 S798 1.613 . S
N799 C802 1.350 . S
N800 S798 1.610 . S
N800 C801 1.351 . S
C801 C795 1.428 . S
C801 N800 1.351 . S
C801 C802 1.434 . S
C802 C793 1.429 . S
C802 N799 1.350 . S
C802 C801 1.434 . S
C803 C804 1.369 1_545 S
C803 C805 1.419 . S
C803 H807 0.930 . S
C804 C803 1.369 1_565 S
C804 C813 1.429 . S
C805 C803 1.419 . S
C805 C806 1.363 . S
C805 H808 0.929 . S
C806 C805 1.363 . S
C806 C812 1.428 1_545 S
H807 C803 0.930 . S
H808 C805 0.929 . S
S809 N810 1.613 . S
S809 N811 1.610 . S
N810 S809 1.613 . S
N810 C813 1.350 . S
N811 S809 1.610 . S
N811 C812 1.351 . S
C812 C806 1.428 1_565 S
C812 N811 1.351 . S
C812 C813 1.434 . S
C813 C804 1.429 . S
C813 N810 1.350 . S
C813 C812 1.434 . S
C814 C815 1.369 . S
C814 C816 1.419 . S
C814 H818 0.930 . S
C815 C814 1.369 . S
C815 C824 1.429 . S
C816 C814 1.419 . S
C816 C817 1.363 . S
C816 H819 0.929 . S
C817 C816 1.363 . S
C817 C823 1.428 . S
H818 C814 0.930 . S
H819 C816 0.929 . S
S820 N821 1.613 . S
S820 N822 1.610 . S
N821 S820 1.613 . S
N821 C824 1.350 . S
N822 S820 1.610 . S
N822 C823 1.351 . S
C823 C817 1.428 . S
C823 N822 1.351 . S
C823 C824 1.434 . S
C824 C815 1.429 . S
C824 N821 1.350 . S
C824 C823 1.434 . S
C825 C826 1.369 . S
C825 C827 1.419 . S
C825 H829 0.930 . S
C826 C825 1.369 . S
C826 C835 1.429 . S
C827 C825 1.419 . S
C827 C828 1.363 1_565 S
C827 H830 0.929 . S
C828 C827 1.363 1_545 S
C828 C834 1.428 . S
H829 C825 0.930 . S
H830 C827 0.929 . S
S831 N832 1.613 1_545 S
S831 N833 1.610 . S
N832 S831 1.613 1_565 S
N832 C835 1.350 . S
N833 S831 1.610 . S
N833 C834 1.351 . S
C834 C828 1.428 . S
C834 N833 1.351 . S
C834 C835 1.434 1_545 S
C835 C826 1.429 . S
C835 N832 1.350 . S
C835 C834 1.434 1_565 S
C836 C837 1.369 . S
C836 C838 1.419 . S
C836 H840 0.930 . S
C837 C836 1.369 . S
C837 C846 1.429 . S
C838 C836 1.419 . S
C838 C839 1.363 . S
C838 H841 0.929 . S
C839 C838 1.363 . S
C839 C845 1.428 . S
H840 C836 0.930 . S
H841 C838 0.929 . S
S842 N843 1.613 . S
S842 N844 1.610 . S
N843 S842 1.613 . S
N843 C846 1.350 . S
N844 S842 1.610 . S
N844 C845 1.351 . S
C845 C839 1.428 . S
C845 N844 1.351 . S
C845 C846 1.434 . S
C846 C837 1.429 . S
C846 N843 1.350 . S
C846 C845 1.434 . S
C847 C848 1.369 . S
C847 C849 1.419 . S
C847 H851 0.930 . S
C848 C847 1.369 . S
C848 C857 1.429 1_565 S
C849 C847 1.419 . S
C849 C850 1.363 1_565 S
C849 H852 0.929 . S
C850 C849 1.363 1_545 S
C850 C856 1.428 . S
H851 C847 0.930 . S
H852 C849 0.929 . S
S853 N854 1.613 . S
S853 N855 1.610 . S
N854 S853 1.613 . S
N854 C857 1.350 . S
N855 S853 1.610 . S
N855 C856 1.351 . S
C856 C850 1.428 . S
C856 N855 1.351 . S
C856 C857 1.434 . S
C857 C848 1.429 1_545 S
C857 N854 1.350 . S
C857 C856 1.434 . S
C858 C859 1.369 . S
C858 C860 1.419 . S
C858 H862 0.930 . S
C859 C858 1.369 . S
C859 C868 1.429 . S
C860 C858 1.419 . S
C860 C861 1.363 . S
C860 H863 0.929 . S
C861 C860 1.363 . S
C861 C867 1.428 . S
H862 C858 0.930 . S
H863 C860 0.929 . S
S864 N865 1.613 . S
S864 N866 1.610 . S
N865 S864 1.613 . S
N865 C868 1.350 . S
N866 S864 1.610 . S
N866 C867 1.351 . S
C867 C861 1.428 . S
C867 N866 1.351 . S
C867 C868 1.434 . S
C868 C859 1.429 . S
C868 N865 1.350 . S
C868 C867 1.434 . S
C869 C870 1.369 . S
C869 C871 1.419 . S
C869 H873 0.930 . S
C870 C869 1.369 . S
C870 C879 1.429 1_565 S
C871 C869 1.419 . S
C871 C872 1.363 1_565 S
C871 H874 0.929 . S
C872 C871 1.363 1_545 S
C872 C878 1.428 . S
H873 C869 0.930 . S
H874 C871 0.929 . S
S875 N876 1.613 . S
S875 N877 1.610 . S
N876 S875 1.613 . S
N876 C879 1.350 . S
N877 S875 1.610 . S
N877 C878 1.351 . S
C878 C872 1.428 . S
C878 N877 1.351 . S
C878 C879 1.434 . S
C879 C870 1.429 1_545 S
C879 N876 1.350 . S
C879 C878 1.434 . S
C353 C7 1.353 . S
C355 C273 1.348 . S
C364 C119 1.351 . S
C366 C29 1.351 . S
C375 C50 1.344 . S
C377 C313 1.355 . S
C386 C72 1.352 . S
C388 C159 1.349 . S
C397 C97 1.357 . S
C399 C183 1.345 . S
C408 C226 1.349 . S
C410 C137 1.351 . S
C419 C295 1.354 1_545 S
C421 C205 1.348 1_565 S
C430 C248 1.357 1_545 S
C432 C335 1.345 1_565 S
C441 C206 1.678 . S
C443 C6 1.591 . S
C452 C28 1.590 . S
C454 C224 1.678 . S
C463 C51 1.598 . S
C465 C246 1.677 . S
C474 C184 1.677 . S
C476 C73 1.591 . S
C485 C294 1.677 . S
C487 C93 1.594 . S
C496 C312 1.679 . S
C498 C115 1.599 . S
C507 C141 1.594 . S
C509 C334 1.679 . S
C518 C272 1.678 . S
C520 C163 1.591 . S
C529 C182 1.590 . S
C531 C30 1.678 . S
C540 C204 1.598 . S
C542 C48 1.677 . S
C551 C227 1.591 . S
C553 C70 1.677 . S
C562 C8 1.680 . S
C564 C249 1.595 . S
C573 C118 1.677 . S
C575 C269 1.593 . S
C584 C291 1.600 . S
C586 C136 1.679 . S
C595 C158 1.677 . S
C597 C317 1.596 . S
C606 C339 1.599 . S
C608 C96 1.678 . S
C617 C4 1.034 . S
C619 C228 1.027 . S
C628 C26 1.044 . S
C630 C250 1.036 . S
C639 C180 1.034 . S
C641 C52 1.042 . S
C650 C74 1.025 . S
C652 C202 1.036 . S
C661 C92 1.028 . S
C663 C316 1.040 . S
C672 C114 1.027 . S
C674 C338 1.039 . S
C683 C268 1.038 . S
C685 C140 1.041 . S
C694 C162 1.024 . S
C696 C290 1.035 . S
C705 C5 1.538 . S
C707 C160 1.636 . S
C716 C271 1.631 . S
C718 C27 1.531 . S
C727 C53 1.542 . S
C729 C117 1.638 . S
C738 C75 1.531 . S
C740 C314 1.634 . S
C749 C94 1.540 . S
C751 C71 1.637 . S
C760 C185 1.633 . S
C762 C116 1.533 . S
C771 C139 1.538 . S
C773 C31 1.636 . S
C782 C225 1.639 . S
C784 C161 1.541 . S
C793 C181 1.539 . S
C795 C336 1.636 . S
C804 C95 1.631 . S
C806 C203 1.531 . S
C815 C293 1.638 . S
C817 C229 1.540 . S
C826 C251 1.529 . S
C828 C138 1.632 . S
C837 C270 1.541 . S
C839 C247 1.637 . S
C848 C292 1.534 . S
C850 C9 1.634 . S
C859 C207 1.638 . S
C861 C315 1.540 . S
C870 C49 1.637 . S
C872 C337 1.539 . S
