# Generated by pormake.
# Topology wfu, (7)-cn, num edge types: 1
# Building blocks:
#     Node 0, Type 0, BuildingBlock: HICVOG_clean_sbu_0, # of connection points: 7
#     Node 1, Type 0, BuildingBlock: HICVOG_clean_sbu_0, # of connection points: 7
#     Node 2, Type 0, BuildingBlock: HICVOG_clean_sbu_0, # of connection points: 7
#     Node 3, Type 0, BuildingBlock: HICVOG_clean_sbu_0, # of connection points: 7
#     Node 4, Type 0, BuildingBlock: HICVOG_clean_sbu_0, # of connection points: 7
#     Node 5, Type 0, BuildingBlock: HICVOG_clean_sbu_0, # of connection points: 7
#     Node 6, Type 0, BuildingBlock: HICVOG_clean_sbu_0, # of connection points: 7
#     Node 7, Type 0, BuildingBlock: HICVOG_clean_sbu_0, # of connection points: 7
#     Edge 8, Type (0, 0), BuildingBlock: TEMPAE_clean_linker_10, # of connection points: 2
#     Edge 9, Type (0, 0), BuildingBlock: TEMPAE_clean_linker_10, # of connection points: 2
#     Edge 10, Type (0, 0), BuildingBlock: TEMPAE_clean_linker_10, # of connection points: 2
#     Edge 11, Type (0, 0), BuildingBlock: TEMPAE_clean_linker_10, # of connection points: 2
#     Edge 12, Type (0, 0), BuildingBlock: TEMPAE_clean_linker_10, # of connection points: 2
#     Edge 13, Type (0, 0), BuildingBlock: TEMPAE_clean_linker_10, # of connection points: 2
#     Edge 14, Type (0, 0), BuildingBlock: TEMPAE_clean_linker_10, # of connection points: 2
#     Edge 15, Type (0, 0), BuildingBlock: TEMPAE_clean_linker_10, # of connection points: 2
#     Edge 16, Type (0, 0), BuildingBlock: TEMPAE_clean_linker_10, # of connection points: 2
#     Edge 17, Type (0, 0), BuildingBlock: TEMPAE_clean_linker_10, # of connection points: 2
#     Edge 18, Type (0, 0), BuildingBlock: TEMPAE_clean_linker_10, # of connection points: 2
#     Edge 19, Type (0, 0), BuildingBlock: TEMPAE_clean_linker_10, # of connection points: 2
#     Edge 20, Type (0, 0), BuildingBlock: TEMPAE_clean_linker_10, # of connection points: 2
#     Edge 21, Type (0, 0), BuildingBlock: TEMPAE_clean_linker_10, # of connection points: 2
#     Edge 22, Type (0, 0), BuildingBlock: TEMPAE_clean_linker_10, # of connection points: 2
#     Edge 23, Type (0, 0), BuildingBlock: TEMPAE_clean_linker_10, # of connection points: 2
#     Edge 24, Type (0, 0), BuildingBlock: TEMPAE_clean_linker_10, # of connection points: 2
#     Edge 25, Type (0, 0), BuildingBlock: TEMPAE_clean_linker_10, # of connection points: 2
#     Edge 26, Type (0, 0), BuildingBlock: TEMPAE_clean_linker_10, # of connection points: 2
#     Edge 27, Type (0, 0), BuildingBlock: TEMPAE_clean_linker_10, # of connection points: 2
#     Edge 28, Type (0, 0), BuildingBlock: TEMPAE_clean_linker_10, # of connection points: 2
#     Edge 29, Type (0, 0), BuildingBlock: TEMPAE_clean_linker_10, # of connection points: 2
#     Edge 30, Type (0, 0), BuildingBlock: TEMPAE_clean_linker_10, # of connection points: 2
#     Edge 31, Type (0, 0), BuildingBlock: TEMPAE_clean_linker_10, # of connection points: 2
#     Edge 32, Type (0, 0), BuildingBlock: TEMPAE_clean_linker_10, # of connection points: 2
#     Edge 33, Type (0, 0), BuildingBlock: TEMPAE_clean_linker_10, # of connection points: 2
#     Edge 34, Type (0, 0), BuildingBlock: TEMPAE_clean_linker_10, # of connection points: 2
#     Edge 35, Type (0, 0), BuildingBlock: TEMPAE_clean_linker_10, # of connection points: 2
# Relax obj value: 0.435
# Max RMSD: 0.288
# Mean RMSD: 0.288
data_MOF--net-wfu--node1-HICVOG_clean_sbu_0--edge1-TEMPAE_clean_linker_10
_symmetry_space_group_name_H-M    P1
_symmetry_Int_Tables_number       1
_symmetry_cell_setting            triclinic
loop_
_symmetry_equiv_pos_as_xyz
'x, y, z'
_cell_length_a     31.677166
_cell_length_b     31.62988
_cell_length_c     31.665613
_cell_angle_alpha  90.115636
_cell_angle_beta   89.761412
_cell_angle_gamma 89.961608
loop_
_atom_site_label
_atom_site_type_symbol
_atom_site_fract_x
_atom_site_fract_y
_atom_site_fract_z
_atom_type_partial_charge
Zn0 Zn 0.25973 0.32192 0.11173 0.0
C1 C 0.25941 0.34654 0.23733 0.0
N2 N 0.25109 0.30537 0.24185 0.0
C3 C 0.25301 0.29049 0.20209 0.0
N4 N 0.2619 0.32211 0.17405 0.0
N5 N 0.26615 0.35718 0.19694 0.0
C6 C 0.29167 0.49668 0.20741 0.0
O7 O 0.30241 0.4986 0.16734 0.0
O8 O 0.31309 0.29802 0.08293 0.0
Zn9 Zn 0.28711 0.4116 0.17893 0.0
N10 N 0.20995 0.28966 0.09599 0.0
C11 C 0.14152 0.26298 0.11259 0.0
C12 C 0.1787 0.28294 0.12485 0.0
C13 C 0.2047 0.2785 0.05491 0.0
N14 N 0.13602 0.25242 0.07146 0.0
C15 C 0.16652 0.25979 0.042 0.0
O16 O 0.25848 0.43391 0.12779 0.0
C17 C 0.24895 0.41982 0.09157 0.0
O18 O 0.25072 0.38037 0.08298 0.0
H19 H 0.18183 0.29409 0.15687 0.0
H20 H 0.2291 0.28658 0.03231 0.0
C21 C 0.37495 0.41348 0.19295 0.0
C22 C 0.41773 0.40681 0.18329 0.0
C23 C 0.39793 0.37825 0.11685 0.0
C24 C 0.3556 0.38542 0.12651 0.0
N25 N 0.34509 0.40266 0.16441 0.0
N26 N 0.4279 0.38931 0.14523 0.0
H27 H 0.36514 0.42877 0.22192 0.0
C28 C 0.34696 0.28291 0.09846 0.0
O29 O 0.35054 0.27904 0.13959 0.0
O30 O 0.28346 0.46037 0.22312 0.0
H31 H 0.33137 0.37745 0.10404 0.0
H32 H 0.11658 0.25729 0.13531 0.0
H33 H 0.40706 0.36494 0.08673 0.0
Zn34 Zn 0.41082 0.72453 0.79931 0.0
C35 C 0.28801 0.75916 0.79849 0.0
N36 N 0.29655 0.76252 0.75707 0.0
C37 C 0.33839 0.75645 0.7556 0.0
N38 N 0.35504 0.74916 0.79372 0.0
N39 N 0.32336 0.75055 0.8213 0.0
C40 C 0.27999 0.6704 0.8986 0.0
O41 O 0.27288 0.66818 0.85788 0.0
O42 O 0.45788 0.74638 0.7583 0.0
Zn43 Zn 0.32958 0.75122 0.88265 0.0
N44 N 0.40219 0.66665 0.78508 0.0
C45 C 0.36112 0.60405 0.78865 0.0
C46 C 0.37025 0.64458 0.80328 0.0
C47 C 0.4255 0.65016 0.75307 0.0
N48 N 0.38501 0.58714 0.75715 0.0
C49 C 0.4173 0.60904 0.73884 0.0
O50 O 0.38982 0.74861 0.90627 0.0
C51 C 0.42706 0.73804 0.8951 0.0
O52 O 0.43541 0.72773 0.85724 0.0
H53 H 0.35159 0.65881 0.82816 0.0
H54 H 0.4494 0.66954 0.73843 0.0
C55 C 0.29108 0.81325 0.93745 0.0
C56 C 0.27835 0.85453 0.94865 0.0
C57 C 0.30133 0.879 0.8816 0.0
C58 C 0.31502 0.83844 0.87132 0.0
N59 N 0.30875 0.80622 0.89901 0.0
N60 N 0.28375 0.88618 0.92005 0.0
H61 H 0.28921 0.78721 0.95942 0.0
C62 C 0.4905 0.76467 0.77338 0.0
O63 O 0.48977 0.77623 0.81322 0.0
O64 O 0.29988 0.70211 0.91348 0.0
H65 H 0.33028 0.83264 0.84127 0.0
H66 H 0.33557 0.58601 0.80244 0.0
H67 H 0.3055 0.90479 0.85959 0.0
Zn68 Zn 0.73185 0.61484 0.19839 0.0
C69 C 0.78394 0.73012 0.19529 0.0
N70 N 0.79606 0.72028 0.23468 0.0
C71 C 0.78485 0.67949 0.23822 0.0
N72 N 0.76651 0.66482 0.20283 0.0
N73 N 0.76653 0.69636 0.17533 0.0
C74 C 0.67284 0.69657 0.09283 0.0
O75 O 0.67421 0.65952 0.11139 0.0
O76 O 0.74635 0.56676 0.23984 0.0
Zn77 Zn 0.75976 0.6898 0.11434 0.0
N78 N 0.67534 0.6331 0.21171 0.0
C79 C 0.62453 0.68718 0.2241 0.0
C80 C 0.66357 0.67429 0.20816 0.0
C81 C 0.65002 0.60443 0.23086 0.0
N82 N 0.59912 0.65844 0.24332 0.0
C83 C 0.61102 0.61729 0.24767 0.0
O84 O 0.75797 0.62845 0.09101 0.0
C85 C 0.74604 0.59205 0.10371 0.0
O86 O 0.73442 0.58629 0.14172 0.0
H87 H 0.68449 0.69711 0.19384 0.0
H88 H 0.66052 0.57196 0.23272 0.0
C89 C 0.81218 0.73264 0.05265 0.0
C90 C 0.85108 0.74707 0.03634 0.0
C91 C 0.88479 0.72555 0.09951 0.0
C92 C 0.84671 0.70959 0.11456 0.0
N93 N 0.81101 0.71399 0.09121 0.0
N94 N 0.88619 0.74352 0.06073 0.0
H95 H 0.78318 0.7355 0.03499 0.0
C96 C 0.77017 0.53648 0.22798 0.0
O97 O 0.79024 0.53996 0.19176 0.0
O98 O 0.7065 0.71865 0.09162 0.0
H99 H 0.84576 0.69346 0.14459 0.0
H100 H 0.61458 0.71978 0.22143 0.0
H101 H 0.91328 0.72273 0.11803 0.0
Zn102 Zn 0.60878 0.28272 0.80997 0.0
C103 C 0.727 0.24044 0.79387 0.0
N104 N 0.71387 0.2402 0.75357 0.0
C105 C 0.6725 0.24841 0.75711 0.0
N106 N 0.66045 0.25336 0.79736 0.0
N107 N 0.69467 0.24906 0.8211 0.0
C108 C 0.69588 0.33685 0.91602 0.0
O109 O 0.65602 0.33233 0.90582 0.0
O110 O 0.5581 0.26948 0.7693 0.0
Zn111 Zn 0.69512 0.2512 0.88318 0.0
N112 N 0.62466 0.34057 0.80152 0.0
C113 C 0.67944 0.39167 0.79416 0.0
C114 C 0.66499 0.35298 0.80954 0.0
C115 C 0.59824 0.3653 0.77893 0.0
N116 N 0.6531 0.4162 0.77101 0.0
C117 C 0.61286 0.40375 0.76299 0.0
O118 O 0.6367 0.24681 0.91203 0.0
C119 C 0.59839 0.25617 0.90394 0.0
O120 O 0.58726 0.27054 0.8683 0.0
H121 H 0.68644 0.33226 0.82589 0.0
H122 H 0.56667 0.35439 0.77198 0.0
C123 C 0.73604 0.19589 0.94189 0.0
C124 C 0.7536 0.15736 0.95557 0.0
C125 C 0.75063 0.13123 0.8855 0.0
C126 C 0.73168 0.16871 0.87252 0.0
N127 N 0.72553 0.20075 0.9007 0.0
N128 N 0.7606 0.12616 0.92675 0.0
H129 H 0.72827 0.22089 0.96397 0.0
C130 C 0.52092 0.27529 0.78425 0.0
O131 O 0.51721 0.28842 0.82346 0.0
O132 O 0.72126 0.30642 0.90787 0.0
H133 H 0.72079 0.17133 0.84045 0.0
H134 H 0.71154 0.40175 0.79991 0.0
H135 H 0.75591 0.10572 0.86329 0.0
Zn136 Zn 0.75202 0.20345 0.38081 0.0
C137 C 0.73121 0.17948 0.25655 0.0
N138 N 0.72496 0.22136 0.25441 0.0
C139 C 0.73482 0.23448 0.29353 0.0
N140 N 0.74615 0.20177 0.31881 0.0
N141 N 0.74415 0.16721 0.29495 0.0
C142 C 0.75972 0.02529 0.28201 0.0
O143 O 0.77274 0.0226 0.32123 0.0
O144 O 0.81011 0.22481 0.40207 0.0
Zn145 Zn 0.76762 0.11231 0.30756 0.0
N146 N 0.70381 0.236 0.40146 0.0
C147 C 0.63368 0.26103 0.39093 0.0
C148 C 0.66987 0.24121 0.37574 0.0
C149 C 0.70192 0.24792 0.44263 0.0
N150 N 0.63149 0.27208 0.4322 0.0
C151 C 0.66422 0.26541 0.4591 0.0
O152 O 0.75245 0.09251 0.36527 0.0
C153 C 0.746 0.10651 0.40226 0.0
O154 O 0.74631 0.14597 0.41052 0.0
H155 H 0.66998 0.22894 0.344 0.0
H156 H 0.72921 0.24222 0.46206 0.0
C157 C 0.84978 0.09437 0.28001 0.0
C158 C 0.89301 0.101 0.27449 0.0
C159 C 0.88858 0.16171 0.31845 0.0
C160 C 0.84556 0.15439 0.32429 0.0
N161 N 0.82721 0.12078 0.30501 0.0
N162 N 0.91139 0.13475 0.29389 0.0
H163 H 0.83379 0.06909 0.26372 0.0
C164 C 0.8213 0.25805 0.42197 0.0
O165 O 0.79338 0.28801 0.42891 0.0
O166 O 0.75323 0.06212 0.2666 0.0
H167 H 0.82672 0.17561 0.34315 0.0
H168 H 0.60679 0.2659 0.37055 0.0
H169 H 0.90376 0.18843 0.33341 0.0
Zn170 Zn 0.10943 0.22499 0.69025 0.0
C171 C 0.22677 0.27381 0.69378 0.0
N172 N 0.2168 0.28133 0.73434 0.0
C173 C 0.17584 0.27068 0.73636 0.0
N174 N 0.16107 0.25696 0.69895 0.0
N175 N 0.19283 0.25987 0.67151 0.0
C176 C 0.24724 0.19545 0.56767 0.0
O177 O 0.27881 0.22222 0.57037 0.0
O178 O 0.06117 0.23277 0.73459 0.0
Zn179 Zn 0.18694 0.25987 0.60936 0.0
N180 N 0.12707 0.16683 0.69011 0.0
C181 C 0.17246 0.11318 0.66302 0.0
C182 C 0.15769 0.15472 0.66253 0.0
C183 C 0.11086 0.13931 0.71864 0.0
N184 N 0.15578 0.08537 0.69111 0.0
C185 C 0.12566 0.09756 0.71942 0.0
O186 O 0.12555 0.26329 0.5864 0.0
C187 C 0.08842 0.25267 0.59825 0.0
O188 O 0.08181 0.23788 0.63495 0.0
H189 H 0.17044 0.17729 0.64058 0.0
H190 H 0.08601 0.14969 0.73983 0.0
C191 C 0.22901 0.31631 0.54994 0.0
C192 C 0.24697 0.35529 0.53744 0.0
C193 C 0.23537 0.382 0.60665 0.0
C194 C 0.21645 0.34411 0.61823 0.0
N195 N 0.21469 0.3115 0.5902 0.0
N196 N 0.24984 0.38679 0.56665 0.0
H197 H 0.22456 0.29059 0.52791 0.0
C198 C 0.03175 0.25937 0.72724 0.0
O199 O 0.03634 0.28508 0.69501 0.0
O200 O 0.21105 0.20616 0.58174 0.0
H201 H 0.20271 0.34111 0.64931 0.0
H202 H 0.19665 0.10301 0.64101 0.0
H203 H 0.23752 0.40787 0.62893 0.0
Zn204 Zn 0.27114 0.83183 0.37695 0.0
C205 C 0.29074 0.84307 0.25121 0.0
N206 N 0.30349 0.80266 0.25385 0.0
C207 C 0.2951 0.7928 0.29425 0.0
N208 N 0.27839 0.82616 0.31564 0.0
N209 N 0.27533 0.85755 0.28816 0.0
C210 C 0.27401 0.9831 0.25733 0.0
O211 O 0.30207 0.97788 0.28732 0.0
O212 O 0.21564 0.80536 0.40035 0.0
Zn213 Zn 0.23917 0.90589 0.29588 0.0
N214 N 0.32105 0.80423 0.39887 0.0
C215 C 0.39298 0.78508 0.38827 0.0
C216 C 0.35663 0.80539 0.37466 0.0
C217 C 0.32117 0.78572 0.43745 0.0
N218 N 0.39316 0.76645 0.42672 0.0
C219 C 0.35851 0.76644 0.45234 0.0
O220 O 0.24788 0.93519 0.35113 0.0
C221 C 0.26186 0.9296 0.38822 0.0
O222 O 0.2733 0.89297 0.4007 0.0
H223 H 0.35695 0.8221 0.34497 0.0
H224 H 0.29281 0.78796 0.45628 0.0
C225 C 0.15254 0.91067 0.27921 0.0
C226 C 0.11282 0.89507 0.26836 0.0
C227 C 0.13543 0.82558 0.28348 0.0
C228 C 0.17522 0.84114 0.29398 0.0
N229 N 0.18298 0.88343 0.29139 0.0
N230 N 0.10505 0.85289 0.27066 0.0
H231 H 0.15973 0.94405 0.27669 0.0
C232 C 0.18329 0.82939 0.40333 0.0
O233 O 0.18625 0.86809 0.3887 0.0
O234 O 0.2458 0.95475 0.2525 0.0
H235 H 0.19968 0.81939 0.30309 0.0
H236 H 0.42122 0.78504 0.36894 0.0
H237 H 0.12888 0.79206 0.28512 0.0
Zn238 Zn 0.91155 0.81224 0.69003 0.0
C239 C 0.78894 0.77656 0.69439 0.0
N240 N 0.79609 0.7813 0.73587 0.0
C241 C 0.83765 0.78906 0.73716 0.0
N242 N 0.85569 0.78876 0.69876 0.0
N243 N 0.82502 0.78156 0.67118 0.0
C244 C 0.79283 0.85976 0.59482 0.0
O245 O 0.79739 0.86583 0.63555 0.0
O246 O 0.95859 0.7929 0.73095 0.0
Zn247 Zn 0.8325 0.77606 0.60999 0.0
N248 N 0.90356 0.87142 0.69809 0.0
C249 C 0.87617 0.93707 0.67505 0.0
C250 C 0.88486 0.89463 0.6675 0.0
C251 C 0.91486 0.88869 0.7356 0.0
N252 N 0.88908 0.95488 0.71183 0.0
C253 C 0.909 0.9322 0.74252 0.0
O254 O 0.89334 0.77589 0.58497 0.0
C255 C 0.93011 0.78812 0.59592 0.0
O256 O 0.93676 0.80211 0.63286 0.0
H257 H 0.87666 0.88006 0.63775 0.0
H258 H 0.92931 0.86841 0.75871 0.0
C259 C 0.79751 0.7141 0.55484 0.0
C260 C 0.78209 0.67395 0.54358 0.0
C261 C 0.78809 0.65214 0.61488 0.0
C262 C 0.80405 0.69175 0.62567 0.0
N263 N 0.808 0.72208 0.59552 0.0
N264 N 0.77787 0.64399 0.5741 0.0
H265 H 0.80297 0.7384 0.53145 0.0
C266 C 0.99408 0.81 0.72222 0.0
O267 O 0.99552 0.8377 0.69139 0.0
O268 O 0.8036 0.82447 0.57855 0.0
H269 H 0.81382 0.69794 0.65773 0.0
H270 H 0.86066 0.9561 0.65137 0.0
H271 H 0.78467 0.62776 0.63856 0.0
C272 C 0.18937 0.24065 0.96867 0.0
C273 C 0.15726 0.25251 -0.00318 0.0
C274 C 0.18217 0.23973 0.92509 0.0
C275 C 0.14192 0.2511 0.90937 0.0
C276 C 0.10845 0.25965 0.93774 0.0
C277 C 0.11651 0.26022 0.98129 0.0
C278 C 0.2183 0.22882 0.89575 0.0
C279 C 0.06485 0.27041 0.922 0.0
C280 C 0.15772 0.30346 0.80437 0.0
C281 C 0.15362 0.26902 0.77699 0.0
C282 C 0.1495 0.29914 0.84756 0.0
C283 C 0.13718 0.25921 0.86353 0.0
C284 C 0.12839 0.22568 0.83523 0.0
C285 C 0.13743 0.23084 0.79212 0.0
C286 C 0.15846 0.33605 0.8765 0.0
C287 C 0.11333 0.18309 0.85027 0.0
H288 H 0.2205 0.23313 0.9806 0.0
H289 H 0.09138 0.26889 0.00299 0.0
H290 H 0.20845 0.20391 0.87311 0.0
H291 H 0.22733 0.25713 0.87713 0.0
H292 H 0.24656 0.21752 0.91307 0.0
H293 H 0.0411 0.27069 0.94791 0.0
H294 H 0.06534 0.30211 0.90707 0.0
H295 H 0.05479 0.24738 0.89754 0.0
H296 H 0.17047 0.33297 0.79247 0.0
H297 H 0.13525 0.20399 0.77112 0.0
H298 H 0.18834 0.33016 0.89373 0.0
H299 H 0.13296 0.33968 0.90033 0.0
H300 H 0.16171 0.36619 0.85883 0.0
H301 H 0.14016 0.1605 0.84956 0.0
H302 H 0.08866 0.17089 0.82861 0.0
H303 H 0.10012 0.184 0.88274 0.0
C304 C 0.27397 0.90532 0.00894 0.0
C305 C 0.26499 0.86511 0.9923 0.0
C306 C 0.27101 0.91306 0.05244 0.0
C307 C 0.25955 0.87961 0.0796 0.0
C308 C 0.24541 0.84075 0.06252 0.0
C309 C 0.2477 0.8342 0.01889 0.0
C310 C 0.28389 0.95569 0.06954 0.0
C311 C 0.23193 0.80452 0.09052 0.0
C312 C 0.31805 0.85888 0.18028 0.0
C313 C 0.28583 0.86362 0.21013 0.0
C314 C 0.3108 0.86751 0.13767 0.0
C315 C 0.27032 0.88157 0.12495 0.0
C316 C 0.23891 0.89026 0.15561 0.0
C317 C 0.24678 0.88008 0.19786 0.0
C318 C 0.34524 0.85766 0.10596 0.0
C319 C 0.19587 0.90678 0.14376 0.0
H320 H 0.28621 0.92995 0.98855 0.0
H321 H 0.23818 0.80393 0.00607 0.0
H322 H 0.26377 0.96494 0.09682 0.0
H323 H 0.317 0.95413 0.0807 0.0
H324 H 0.28189 0.98062 0.04495 0.0
H325 H 0.21839 0.77783 0.07219 0.0
H326 H 0.25963 0.79263 0.10831 0.0
H327 H 0.20813 0.81532 0.11393 0.0
H328 H 0.34813 0.84569 0.18991 0.0
H329 H 0.22138 0.88232 0.22051 0.0
H330 H 0.35021 0.88484 0.08446 0.0
H331 H 0.33571 0.83019 0.08633 0.0
H332 H 0.37575 0.85003 0.12138 0.0
H333 H 0.19728 0.92701 0.1152 0.0
H334 H 0.18171 0.92527 0.17014 0.0
H335 H 0.1746 0.87976 0.13709 0.0
C336 C 0.88844 0.77049 0.79299 0.0
C337 C 0.85906 0.79896 0.77668 0.0
C338 C 0.89749 0.77046 0.83628 0.0
C339 C 0.87578 0.79901 0.86321 0.0
C340 C 0.85094 0.83166 0.84564 0.0
C341 C 0.84246 0.83094 0.80235 0.0
C342 C 0.92556 0.73623 0.85373 0.0
C343 C 0.82845 0.86361 0.87311 0.0
C344 C 0.8292 0.74807 0.96051 0.0
C345 C 0.85559 0.76309 0.9926 0.0
C346 C 0.83542 0.76011 0.91852 0.0
C347 C 0.8692 0.7876 0.9081 0.0
C348 C 0.89577 0.80336 0.94021 0.0
C349 C 0.88875 0.79072 0.98215 0.0
C350 C 0.80615 0.74258 0.88515 0.0
C351 C 0.93222 0.83248 0.93032 0.0
H352 H 0.9009 0.74559 0.77291 0.0
H353 H 0.81989 0.8531 0.78925 0.0
H354 H 0.94555 0.74872 0.87957 0.0
H355 H 0.90567 0.71057 0.867 0.0
H356 H 0.94629 0.72243 0.82888 0.0
H357 H 0.81869 0.89183 0.8547 0.0
H358 H 0.79968 0.84889 0.88677 0.0
H359 H 0.84876 0.87395 0.89964 0.0
H360 H 0.80447 0.72559 0.96773 0.0
H361 H 0.90953 0.80222 0.00674 0.0
H362 H 0.82444 0.72367 0.86187 0.0
H363 H 0.79079 0.76882 0.8678 0.0
H364 H 0.78106 0.72213 0.89873 0.0
H365 H 0.9588 0.81366 0.91724 0.0
H366 H 0.94359 0.84919 0.95899 0.0
H367 H 0.92339 0.8563 0.90624 0.0
C368 C 0.69958 0.15617 0.18977 0.0
C369 C 0.73296 0.15365 0.2183 0.0
C370 C 0.70544 0.14477 0.14747 0.0
C371 C 0.74584 0.1311 0.13378 0.0
C372 C 0.77801 0.12359 0.16366 0.0
C373 C 0.77133 0.13575 0.20569 0.0
C374 C 0.66999 0.15235 0.11667 0.0
C375 C 0.82099 0.10757 0.15058 0.0
C376 C 0.75041 0.10805 0.01678 0.0
C377 C 0.75957 0.14844 0.0009 0.0
C378 C 0.74887 0.10067 0.0604 0.0
C379 C 0.75656 0.13458 0.08842 0.0
C380 C 0.76942 0.17441 0.07247 0.0
C381 C 0.77091 0.18079 0.02882 0.0
C382 C 0.73599 0.05755 0.07615 0.0
C383 C 0.77878 0.21125 0.10143 0.0
H384 H 0.67 0.1704 0.19975 0.0
H385 H 0.79744 0.13531 0.22743 0.0
H386 H 0.67687 0.1812 0.09796 0.0
H387 H 0.66721 0.12551 0.09427 0.0
H388 H 0.63918 0.15682 0.13298 0.0
H389 H 0.83809 0.09346 0.1777 0.0
H390 H 0.81845 0.0836 0.12509 0.0
H391 H 0.84006 0.13431 0.13831 0.0
H392 H 0.74201 0.08274 0.99526 0.0
H393 H 0.77951 0.21161 0.01662 0.0
H394 H 0.70128 0.05694 0.08091 0.0
H395 H 0.75106 0.04999 0.10678 0.0
H396 H 0.74424 0.03249 0.05289 0.0
H397 H 0.74944 0.22103 0.11807 0.0
H398 H 0.7914 0.23901 0.08405 0.0
H399 H 0.80203 0.20189 0.12577 0.0
C400 C 0.62276 0.29745 0.51879 0.0
C401 C 0.6574 0.27305 0.50501 0.0
C402 C 0.61262 0.30111 0.56186 0.0
C403 C 0.63849 0.28087 0.59189 0.0
C404 C 0.67411 0.25721 0.57839 0.0
C405 C 0.68267 0.25309 0.5353 0.0
C406 C 0.57434 0.3266 0.57477 0.0
C407 C 0.70296 0.23525 0.60942 0.0
C408 C 0.66156 0.30338 0.70392 0.0
C409 C 0.64883 0.26485 0.72135 0.0
C410 C 0.65169 0.31329 0.66214 0.0
C411 C 0.62943 0.28333 0.63771 0.0
C412 C 0.61024 0.24816 0.65766 0.0
C413 C 0.62094 0.23874 0.69949 0.0
C414 C 0.67077 0.3523 0.64256 0.0
C415 C 0.58359 0.21728 0.63317 0.0
H416 H 0.60288 0.31315 0.49587 0.0
H417 H 0.70855 0.23288 0.52589 0.0
H418 H 0.55925 0.31402 0.60382 0.0
H419 H 0.5841 0.35968 0.5811 0.0
H420 H 0.55046 0.3273 0.54917 0.0
H421 H 0.73048 0.22 0.59373 0.0
H422 H 0.71503 0.25822 0.63297 0.0
H423 H 0.68518 0.21051 0.62677 0.0
H424 H 0.68283 0.32368 0.72145 0.0
H425 H 0.6107 0.20923 0.71357 0.0
H426 H 0.64802 0.36755 0.62087 0.0
H427 H 0.69908 0.34322 0.62383 0.0
H428 H 0.6805 0.37564 0.66692 0.0
H429 H 0.56378 0.23399 0.60967 0.0
H430 H 0.56283 0.19862 0.65448 0.0
H431 H 0.60454 0.19501 0.61584 0.0
C432 C 0.26772 0.33201 0.464 0.0
C433 C 0.25908 0.36454 0.49293 0.0
C434 C 0.27322 0.34068 0.42096 0.0
C435 C 0.27102 0.38303 0.40654 0.0
C436 C 0.26637 0.41633 0.43593 0.0
C437 C 0.26011 0.4067 0.47874 0.0
C438 C 0.27897 0.30417 0.3906 0.0
C439 C 0.26559 0.46195 0.422 0.0
C440 C 0.3012 0.38338 0.29166 0.0
C441 C 0.26183 0.37456 0.2739 0.0
C442 C 0.30457 0.39227 0.33498 0.0
C443 C 0.26777 0.39105 0.36052 0.0
C444 C 0.2276 0.38789 0.34133 0.0
C445 C 0.22518 0.37964 0.29803 0.0
C446 C 0.34786 0.39762 0.35384 0.0
C447 C 0.18744 0.38708 0.36719 0.0
H448 H 0.26928 0.29953 0.47456 0.0
H449 H 0.25428 0.43235 0.50074 0.0
H450 H 0.25152 0.30241 0.36899 0.0
H451 H 0.30758 0.3091 0.37092 0.0
H452 H 0.28198 0.27335 0.40709 0.0
H453 H 0.27204 0.48383 0.44869 0.0
H454 H 0.2891 0.46772 0.39658 0.0
H455 H 0.23397 0.46964 0.4092 0.0
H456 H 0.32957 0.37887 0.27291 0.0
H457 H 0.19483 0.37242 0.28399 0.0
H458 H 0.36091 0.36606 0.36177 0.0
H459 H 0.34689 0.41691 0.38313 0.0
H460 H 0.36968 0.41279 0.33092 0.0
H461 H 0.18518 0.35644 0.3841 0.0
H462 H 0.15894 0.39069 0.34718 0.0
H463 H 0.18748 0.41258 0.39124 0.0
C464 C 0.40343 0.74467 0.51345 0.0
C465 C 0.36289 0.7508 0.4964 0.0
C466 C 0.40906 0.7375 0.55671 0.0
C467 C 0.37343 0.73759 0.58356 0.0
C468 C 0.33235 0.73998 0.56627 0.0
C469 C 0.32759 0.74544 0.52277 0.0
C470 C 0.45327 0.73282 0.57375 0.0
C471 C 0.29332 0.73995 0.59398 0.0
C472 C 0.36178 0.70985 0.69782 0.0
C473 C 0.36049 0.75023 0.71575 0.0
C474 C 0.37204 0.70448 0.65514 0.0
C475 C 0.37832 0.74069 0.62983 0.0
C476 C 0.38012 0.78133 0.6487 0.0
C477 C 0.37134 0.78553 0.69181 0.0
C478 C 0.3723 0.66058 0.63636 0.0
C479 C 0.38642 0.82078 0.62266 0.0
H480 H 0.43116 0.74745 0.4935 0.0
H481 H 0.29601 0.74713 0.51016 0.0
H482 H 0.46519 0.76422 0.58378 0.0
H483 H 0.45407 0.71157 0.60158 0.0
H484 H 0.47516 0.72027 0.54924 0.0
H485 H 0.26369 0.7413 0.57538 0.0
H486 H 0.29249 0.71114 0.61383 0.0
H487 H 0.294 0.76764 0.61557 0.0
H488 H 0.35169 0.68287 0.71629 0.0
H489 H 0.36947 0.81672 0.70601 0.0
H490 H 0.40079 0.65612 0.61632 0.0
H491 H 0.34435 0.65625 0.61584 0.0
H492 H 0.37174 0.63571 0.66106 0.0
H493 H 0.41409 0.81722 0.60142 0.0
H494 H 0.39112 0.84928 0.64266 0.0
H495 H 0.35826 0.82599 0.60255 0.0
C496 C 0.7838 0.6224 0.48375 0.0
C497 C 0.77399 0.66296 0.49897 0.0
C498 C 0.78258 0.61347 0.44034 0.0
C499 C 0.7716 0.646 0.41189 0.0
C500 C 0.75833 0.68589 0.42745 0.0
C501 C 0.75937 0.69374 0.47087 0.0
C502 C 0.7956 0.57019 0.42489 0.0
C503 C 0.74565 0.72131 0.39811 0.0
C504 C 0.82029 0.66332 0.30531 0.0
C505 C 0.78509 0.65826 0.27934 0.0
C506 C 0.81767 0.65482 0.34858 0.0
C507 C 0.77879 0.64102 0.36595 0.0
C508 C 0.74461 0.63147 0.33902 0.0
C509 C 0.74795 0.64113 0.29601 0.0
C510 C 0.85501 0.66526 0.3762 0.0
C511 C 0.70303 0.61545 0.356 0.0
H512 H 0.79458 0.59828 0.50546 0.0
H513 H 0.75005 0.72457 0.48265 0.0
H514 H 0.77525 0.55959 0.39846 0.0
H515 H 0.82852 0.5715 0.4129 0.0
H516 H 0.79414 0.54632 0.45054 0.0
H517 H 0.73387 0.74953 0.41548 0.0
H518 H 0.77321 0.73095 0.37864 0.0
H519 H 0.72063 0.71046 0.37624 0.0
H520 H 0.84896 0.6769 0.29231 0.0
H521 H 0.72039 0.63852 0.27645 0.0
H522 H 0.86046 0.63984 0.39961 0.0
H523 H 0.84843 0.69486 0.39395 0.0
H524 H 0.88437 0.66983 0.35744 0.0
H525 H 0.70779 0.59365 0.38296 0.0
H526 H 0.68475 0.59881 0.33111 0.0
H527 H 0.68387 0.6426 0.36735 0.0
C528 C 0.52941 0.2282 0.92947 0.0
C529 C 0.56548 0.25265 0.93697 0.0
C530 C 0.49484 0.22911 0.95748 0.0
C531 C 0.49555 0.25661 0.99287 0.0
C532 C 0.53234 0.28092 0.00087 0.0
C533 C 0.56715 0.27812 0.97314 0.0
C534 C 0.45699 0.20165 0.94834 0.0
C535 C 0.53401 0.31172 0.0373 0.0
C536 C 0.38861 0.29608 0.03235 0.0
C537 C 0.38382 0.27415 0.07054 0.0
C538 C 0.42503 0.29114 0.00727 0.0
C539 C 0.45682 0.26216 0.01964 0.0
C540 C 0.45141 0.23875 0.05741 0.0
C541 C 0.41539 0.24561 0.0828 0.0
C542 C 0.42993 0.31776 0.96801 0.0
C543 C 0.48361 0.20635 0.07092 0.0
H544 H 0.52802 0.20882 0.90122 0.0
H545 H 0.59473 0.2977 0.97838 0.0
H546 H 0.44687 0.18467 0.9773 0.0
H547 H 0.43017 0.22167 0.93812 0.0
H548 H 0.46359 0.17807 0.92311 0.0
H549 H 0.56534 0.32723 0.04007 0.0
H550 H 0.50964 0.33655 0.03297 0.0
H551 H 0.52678 0.29538 0.06741 0.0
H552 H 0.36459 0.31854 0.02289 0.0
H553 H 0.41174 0.22834 0.11212 0.0
H554 H 0.43195 0.29716 0.9397 0.0
H555 H 0.45973 0.33612 0.96961 0.0
H556 H 0.40325 0.34016 0.96378 0.0
H557 H 0.48888 0.18308 0.04515 0.0
H558 H 0.47368 0.18912 0.09984 0.0
H559 H 0.51429 0.22197 0.07714 0.0
C560 C 0.22071 0.48925 0.06688 0.0
C561 C 0.24247 0.45165 0.05778 0.0
C562 C 0.22188 0.52386 0.03903 0.0
C563 C 0.24674 0.52152 0.00178 0.0
C564 C 0.2674 0.48294 0.99159 0.0
C565 C 0.26452 0.44829 0.01943 0.0
C566 C 0.19822 0.56368 0.05066 0.0
C567 C 0.29509 0.47921 0.95287 0.0
C568 C 0.23739 0.60532 0.9152 0.0
C569 C 0.26961 0.6337 0.92618 0.0
C570 C 0.22893 0.5692 0.93989 0.0
C571 C 0.25416 0.56041 0.97569 0.0
C572 C 0.2868 0.58899 0.9868 0.0
C573 C 0.29368 0.62549 0.96235 0.0
C574 C 0.19294 0.54049 0.92769 0.0
C575 C 0.31513 0.58059 0.02411 0.0
H576 H 0.20386 0.49211 0.09663 0.0
H577 H 0.28212 0.41964 0.01266 0.0
H578 H 0.22093 0.5884 0.06066 0.0
H579 H 0.18081 0.57607 0.02297 0.0
H580 H 0.17546 0.55836 0.0769 0.0
H581 H 0.30632 0.44633 0.9476 0.0
H582 H 0.27785 0.48983 0.92439 0.0
H583 H 0.32299 0.50011 0.95646 0.0
H584 H 0.21856 0.61149 0.88737 0.0
H585 H 0.31896 0.64694 0.97081 0.0
H586 H 0.17087 0.53683 0.95476 0.0
H587 H 0.20517 0.50857 0.9198 0.0
H588 H 0.17506 0.55269 0.90017 0.0
H589 H 0.29617 0.57971 0.05361 0.0
H590 H 0.34007 0.605 0.02764 0.0
H591 H 0.3305 0.54923 0.02054 0.0
C592 C 0.45697 0.75363 0.96745 0.0
C593 C 0.46202 0.73701 0.92656 0.0
C594 C 0.49007 0.75192 -0.00292 0.0
C595 C 0.52897 0.73262 0.98582 0.0
C596 C 0.53433 0.71628 0.94448 0.0
C597 C 0.50105 0.71889 0.91545 0.0
C598 C 0.48325 0.77026 0.04061 0.0
C599 C 0.57495 0.69495 0.93112 0.0
C600 C 0.63209 0.74693 0.0464 0.0
C601 C 0.63405 0.70916 0.06952 0.0
C602 C 0.59701 0.75619 0.0207 0.0
C603 C 0.56332 0.7268 0.01765 0.0
C604 C 0.56444 0.68953 0.04231 0.0
C605 C 0.59951 0.68135 0.06802 0.0
C606 C 0.59678 0.79662 0.99551 0.0
C607 C 0.52956 0.65707 0.03988 0.0
H608 H 0.42714 0.76798 0.97635 0.0
H609 H 0.50552 0.7059 0.88404 0.0
H610 H 0.48422 0.74465 0.06447 0.0
H611 H 0.50899 0.79273 0.04833 0.0
H612 H 0.45251 0.78697 0.04349 0.0
H613 H 0.57456 0.68498 0.89746 0.0
H614 H 0.60204 0.71659 0.93595 0.0
H615 H 0.58046 0.66661 0.95097 0.0
H616 H 0.65842 0.76875 0.04749 0.0
H617 H 0.60041 0.65216 0.08587 0.0
H618 H 0.56605 0.81309 -0.00081 0.0
H619 H 0.60083 0.78918 0.96148 0.0
H620 H 0.62246 0.81844 0.00519 0.0
H621 H 0.49843 0.67221 0.04537 0.0
H622 H 0.53365 0.63123 0.06323 0.0
H623 H 0.52898 0.64294 0.00778 0.0
C624 C 0.74983 0.38106 0.95556 0.0
C625 C 0.7091 0.37607 0.93893 0.0
C626 C 0.76039 0.4169 0.98015 0.0
C627 C 0.72949 0.44845 0.98853 0.0
C628 C 0.68883 0.44407 0.97066 0.0
C629 C 0.67927 0.40827 0.94614 0.0
C630 C 0.80422 0.4204 -0.00177 0.0
C631 C 0.6547 0.47654 0.9787 0.0
C632 C 0.73233 0.51508 0.08904 0.0
C633 C 0.74481 0.55505 0.07408 0.0
C634 C 0.72883 0.48001 0.06189 0.0
C635 C 0.73812 0.48448 0.01833 0.0
C636 C 0.75203 0.52433 0.00311 0.0
C637 C 0.75512 0.55909 0.03106 0.0
C638 C 0.71368 0.43841 0.07974 0.0
C639 C 0.76256 0.53054 0.95703 0.0
H640 H 0.77318 0.35655 0.95018 0.0
H641 H 0.64774 0.40516 0.93337 0.0
H642 H 0.81783 0.45191 0.99111 0.0
H643 H 0.80271 0.41735 0.0331 0.0
H644 H 0.82575 0.39561 0.98564 0.0
H645 H 0.62542 0.46973 0.96076 0.0
H646 H 0.64679 0.4773 0.01287 0.0
H647 H 0.66604 0.50851 0.96992 0.0
H648 H 0.7245 0.51116 0.12216 0.0
H649 H 0.765 0.58959 0.01903 0.0
H650 H 0.73583 0.41264 0.07098 0.0
H651 H 0.68249 0.43039 0.06608 0.0
H652 H 0.71055 0.43926 0.11469 0.0
H653 H 0.78494 0.50577 0.94614 0.0
H654 H 0.77665 0.56208 0.9508 0.0
H655 H 0.73348 0.52735 0.93789 0.0
C656 C 0.89192 0.22595 0.43997 0.0
C657 C 0.86424 0.26069 0.44136 0.0
C658 C 0.93047 0.22626 0.46212 0.0
C659 C 0.94207 0.26226 0.48621 0.0
C660 C 0.91519 0.29814 0.4861 0.0
C661 C 0.87671 0.2969 0.46387 0.0
C662 C 0.95786 0.1872 0.46127 0.0
C663 C 0.92625 0.33735 0.51094 0.0
C664 C 0.01096 0.24446 0.58321 0.0
C665 C 0.05139 0.25652 0.5691 0.0
C666 C 0.97552 0.24635 0.55668 0.0
C667 C 0.98001 0.26085 0.51461 0.0
C668 C 0.02055 0.27355 0.50012 0.0
C669 C 0.05571 0.27118 0.52743 0.0
C670 C 0.93315 0.23243 0.57376 0.0
C671 C 0.02678 0.28948 0.45566 0.0
H672 H 0.88287 0.1978 0.42267 0.0
H673 H 0.85587 0.32406 0.46505 0.0
H674 H 0.99095 0.19565 0.45343 0.0
H675 H 0.95799 0.17246 0.49304 0.0
H676 H 0.94659 0.16343 0.43803 0.0
H677 H 0.90443 0.364 0.50427 0.0
H678 H 0.92482 0.33031 0.54523 0.0
H679 H 0.95898 0.34749 0.50361 0.0
H680 H 1.00682 0.23314 0.61524 0.0
H681 H 0.08659 0.28063 0.51603 0.0
H682 H 0.92086 0.20578 0.55459 0.0
H683 H 0.91004 0.25868 0.5714 0.0
H684 H 0.93481 0.22221 0.60726 0.0
H685 H 0.01779 0.26453 0.43272 0.0
H686 H 0.05996 0.29899 0.44934 0.0
H687 H 1.0059 0.31703 0.44991 0.0
C688 C 0.29125 0.14245 0.52717 0.0
C689 C 0.25262 0.15379 0.54597 0.0
C690 C 0.29561 0.10445 0.50416 0.0
C691 C 0.26054 0.07698 0.49969 0.0
C692 C 0.2219 0.0876 0.51981 0.0
C693 C 0.21843 0.1257 0.54262 0.0
C694 C 0.33743 0.09439 0.48345 0.0
C695 C 0.18364 0.05944 0.51598 0.0
C696 C 0.25311 1.00738 0.40161 0.0
C697 C 0.26364 0.96707 0.41709 0.0
C698 C 0.25265 0.04318 0.42795 0.0
C699 C 0.26304 0.03906 0.4712 0.0
C700 C 0.27445 0.9987 0.48704 0.0
C701 C 0.2746 0.96321 0.45985 0.0
C702 C 0.2403 0.08541 0.40949 0.0
C703 C 0.28592 0.99293 0.53286 0.0
H704 H 0.31796 0.16369 0.52964 0.0
H705 H 0.18847 0.13384 0.55717 0.0
H706 H 0.34762 0.0619 0.49177 0.0
H707 H 0.334 0.09551 0.44861 0.0
H708 H 0.36258 0.11695 0.49284 0.0
H709 H 0.15697 0.07041 0.53611 0.0
H710 H 0.17298 0.05873 0.48265 0.0
H711 H 0.19172 0.02654 0.52496 0.0
H712 H 0.24477 1.01111 0.36866 0.0
H713 H 0.28281 0.93239 0.47225 0.0
H714 H 0.2656 0.10897 0.4151 0.0
H715 H 0.21133 0.0973 0.42537 0.0
H716 H 0.23429 0.08359 0.37499 0.0
H717 H 0.31198 0.01467 0.54148 0.0
H718 H 0.29576 0.95999 0.53997 0.0
H719 H 0.25848 1.00111 0.55318 0.0
C720 C 0.14086 0.77809 0.44818 0.0
C721 C 0.14383 0.81645 0.42609 0.0
C722 C 0.10498 0.76851 0.47314 0.0
C723 C 0.0713 0.79804 0.47644 0.0
C724 C 0.07352 0.83596 0.4528 0.0
C725 C 0.10942 0.84453 0.42795 0.0
C726 C 0.10384 0.72746 0.49728 0.0
C727 C 0.0388 0.86864 0.45532 0.0
C728 C 0.96267 0.77163 0.52409 0.0
C729 C 0.96646 0.7877 0.56532 0.0
C730 C 0.99689 0.77321 0.49523 0.0
C731 C 0.0358 0.79172 0.50757 0.0
C732 C 0.03995 0.80717 0.54935 0.0
C733 C 1.00559 0.80481 0.5775 0.0
C734 C 0.99114 0.75582 0.45124 0.0
C735 C 0.08043 0.82756 0.56413 0.0
H736 H 0.16705 0.75605 0.44695 0.0
H737 H 0.11094 0.87414 0.41084 0.0
H738 H 0.10695 0.73401 0.53156 0.0
H739 H 0.07312 0.71132 0.49257 0.0
H740 H 0.12967 0.70571 0.48755 0.0
H741 H 0.04375 0.89504 0.43274 0.0
H742 H 1.00776 0.8539 0.44876 0.0
H743 H 0.03733 0.88194 0.48776 0.0
H744 H 0.93285 0.75815 0.51419 0.0
H745 H 1.00935 0.81734 0.6091 0.0
H746 H 0.01713 0.73357 0.44338 0.0
H747 H 0.99255 0.78198 0.42799 0.0
H748 H 0.96052 0.73914 0.44756 0.0
H749 H 0.10748 0.80588 0.55887 0.0
H750 H 0.07933 0.83623 0.59815 0.0
H751 H 0.08657 0.8566 0.54549 0.0
C752 C 0.77009 0.07808 0.47155 0.0
C753 C 0.74328 0.07504 0.43662 0.0
C754 C 0.77511 0.04377 0.49935 0.0
C755 C 0.75166 1.00613 0.49279 0.0
C756 C 0.72224 1.00426 0.45926 0.0
C757 C 0.7191 0.03836 0.43106 0.0
C758 C 0.80773 0.04674 0.53385 0.0
C759 C 0.69549 0.96548 0.45191 0.0
C760 C 0.79884 0.9012 0.52804 0.0
C761 C 0.77988 0.89549 0.56766 0.0
C762 C 0.79016 0.93722 0.50362 0.0
C763 C 0.76061 0.96756 0.51848 0.0
C764 C 0.74019 0.96107 0.55784 0.0
C765 C 0.75072 0.92553 0.58236 0.0
C766 C 0.81354 0.94335 0.46241 0.0
C767 C 0.70729 0.99165 0.57406 0.0
H768 H 0.7894 0.10611 0.47537 0.0
H769 H 0.69851 0.03592 0.40389 0.0
H770 H 0.79375 0.03792 0.56474 0.0
H771 H 0.8337 0.02407 0.52719 0.0
H772 H 0.82138 0.07898 0.53649 0.0
H773 H 0.66976 0.97151 0.42895 0.0
H774 H 0.7155 0.93949 0.43942 0.0
H775 H 0.68132 0.95443 0.48204 0.0
H776 H 0.82181 0.8783 0.51686 0.0
H777 H 0.73591 0.92105 0.61296 0.0
H778 H 0.83064 0.97397 0.46289 0.0
H779 H 0.79088 0.94454 0.43585 0.0
H780 H 0.83664 0.91764 0.45609 0.0
H781 H 0.72189 0.02296 0.57995 0.0
H782 H 0.69226 0.98057 0.60381 0.0
H783 H 0.68239 0.99623 0.54995 0.0
C784 C 0.44518 0.43218 0.2535 0.0
C785 C 0.45147 0.42457 0.21018 0.0
C786 C 0.47256 0.45871 0.27597 0.0
C787 C 0.50669 0.47781 0.25441 0.0
C788 C 0.51622 0.46566 0.21231 0.0
C789 C 0.48855 0.43896 0.19083 0.0
C790 C 0.46258 0.46862 0.32154 0.0
C791 C 0.5531 0.48433 0.18824 0.0
C792 C 0.538 0.59059 0.25673 0.0
C793 C 0.58111 0.58589 0.26496 0.0
C794 C 0.51078 0.55594 0.25985 0.0
C795 C 0.5275 0.51606 0.27135 0.0
C796 C 0.56897 0.51325 0.28729 0.0
C797 C 0.59558 0.54843 0.28381 0.0
C798 C 0.46581 0.56076 0.24492 0.0
C799 C 0.58679 0.47198 0.303 0.0
H800 H 0.41784 0.41921 0.26946 0.0
H801 H 0.49428 0.4324 0.15768 0.0
H802 H 0.49028 0.48136 0.33871 0.0
H803 H 0.43674 0.49229 0.32297 0.0
H804 H 0.4512 0.4398 0.33803 0.0
H805 H 0.55745 0.46945 0.1567 0.0
H806 H 0.54798 0.51873 0.18364 0.0
H807 H 0.58274 0.48034 0.20628 0.0
H808 H 0.52628 0.61996 0.24361 0.0
H809 H 0.62841 0.54545 0.29288 0.0
H810 H 0.44377 0.5444 0.26669 0.0
H811 H 0.46252 0.54607 0.21323 0.0
H812 H 0.45625 0.59449 0.24266 0.0
H813 H 0.5621 0.45285 0.31897 0.0
H814 H 0.61332 0.47738 0.32522 0.0
H815 H 0.59909 0.45339 0.27586 0.0
C816 C 0.48928 0.59728 0.70799 0.0
C817 C 0.4461 0.587 0.70906 0.0
C818 C 0.51914 0.56697 0.696 0.0
C819 C 0.5051 0.52591 0.68555 0.0
C820 C 0.46208 0.5193 0.67615 0.0
C821 C 0.4326 0.54989 0.68886 0.0
C822 C 0.56534 0.57647 0.70253 0.0
C823 C 0.44673 0.47724 0.65996 0.0
C824 C 0.59107 0.44353 0.69884 0.0
C825 C 0.584 0.43191 0.74087 0.0
C826 C 0.56367 0.47186 0.67865 0.0
C827 C 0.52991 0.48993 0.70198 0.0
C828 C 0.52237 0.47698 0.74435 0.0
C829 C 0.54925 0.44761 0.76289 0.0
C830 C 0.57192 0.48261 0.63299 0.0
C831 C 0.48717 0.49535 0.7712 0.0
H832 H 0.50067 0.62642 0.72173 0.0
H833 H 0.39919 0.54265 0.68718 0.0
H834 H 0.57594 0.56209 0.73264 0.0
H835 H 0.58452 0.56271 0.67658 0.0
H836 H 0.57147 0.61104 0.704 0.0
H837 H 0.41698 0.48097 0.64189 0.0
H838 H 0.47095 0.46199 0.63953 0.0
H839 H 0.44025 0.45596 0.68706 0.0
H840 H 0.61785 0.43046 0.68181 0.0
H841 H 0.54412 0.43806 0.7954 0.0
H842 H 0.60051 0.50276 0.63077 0.0
H843 H 0.5451 0.4993 0.61796 0.0
H844 H 0.57866 0.45328 0.61479 0.0
H845 H 0.49016 0.53023 0.77301 0.0
H846 H 0.48725 0.48283 0.80396 0.0
H847 H 0.45612 0.4878 0.75706 0.0
C848 C 0.90953 0.02674 0.25392 0.0
C849 C 0.91922 0.06999 0.25154 0.0
C850 C 0.93922 0.99631 0.24215 0.0
C851 C 0.97942 1.00968 0.22818 0.0
C852 C 0.98687 0.05284 0.21939 0.0
C853 C 0.95675 0.08281 0.23189 0.0
C854 C 0.9297 0.95032 0.25066 0.0
C855 C 0.0286 0.06766 0.20176 0.0
C856 C 0.06692 0.95491 0.28602 0.0
C857 C 0.07933 0.92431 0.25679 0.0
C858 C 0.03491 0.98341 0.27643 0.0
C859 C 0.01571 0.9817 0.23606 0.0
C860 C 0.02923 0.95157 0.20579 0.0
C861 C 0.06063 0.92245 0.21692 0.0
C862 C 0.021 0.01454 0.31008 0.0
C863 C 1.01038 0.94926 0.16217 0.0
H864 H 0.8806 0.01625 0.26889 0.0
H865 H 0.96375 0.11621 0.22876 0.0
H866 H 0.9398 0.93047 0.22356 0.0
H867 H 0.94753 0.93973 0.27884 0.0
H868 H 0.89555 0.94486 0.2566 0.0
H869 H 0.02572 0.09929 0.18687 0.0
H870 H 0.05192 0.06998 0.22772 0.0
H871 H 0.04101 0.04482 0.1781 0.0
H872 H 0.08178 0.95587 0.31682 0.0
H873 H 0.07098 0.89873 0.19436 0.0
H874 H 0.98686 1.0105 0.31696 0.0
H875 H 0.02579 0.04737 0.29882 0.0
H876 H 0.03867 1.01062 0.34005 0.0
H877 H 0.98424 0.92594 0.16221 0.0
H878 H 0.03423 0.9383 0.13876 0.0
H879 H 0.99766 0.9802 0.15172 0.0
C880 C 0.08844 0.0297 0.72675 0.0
C881 C 0.10435 0.06599 0.74596 0.0
C882 C 0.05774 1.0053 0.74704 0.0
C883 C 0.0436 0.01721 0.78811 0.0
C884 C 0.06435 0.05025 0.80987 0.0
C885 C 0.09422 0.07477 0.78818 0.0
C886 C 0.03742 0.96978 0.72231 0.0
C887 C 0.05348 0.06202 0.85478 0.0
C888 C 0.93039 0.99986 0.77611 0.0
C889 C 0.93159 0.95549 0.77668 0.0
C890 C 0.96569 0.02326 0.78855 0.0
C891 C 1.00196 1.00134 0.80257 0.0
C892 C 0.99811 0.95872 0.81497 0.0
C893 C 0.96271 0.93578 0.8016 0.0
C894 C 0.9667 0.0701 0.77947 0.0
C895 C 0.03406 0.93582 0.83599 0.0
H896 H 0.09695 0.02272 0.69426 0.0
H897 H 0.1081 0.10198 0.80351 0.0
H898 H 0.03925 0.93978 0.74019 0.0
H899 H 1.00361 0.97701 0.7168 0.0
H900 H 0.05278 0.96463 0.69111 0.0
H901 H 0.03765 0.09334 0.8553 0.0
H902 H 0.03284 0.0384 0.87045 0.0
H903 H 0.08294 0.06535 0.8734 0.0
H904 H 0.90473 0.01607 0.76039 0.0
H905 H 0.96251 0.90205 0.80685 0.0
H906 H 0.98756 0.07632 0.75191 0.0
H907 H 0.9796 0.08752 0.80692 0.0
H908 H 0.93481 0.08286 0.77241 0.0
H909 H 0.05386 0.92 0.81166 0.0
H910 H 0.02186 0.91096 0.85755 0.0
H911 H 0.05427 0.95802 0.85409 0.0
C912 C 0.23805 0.0345 0.2076 0.0
C913 C 0.27186 0.02447 0.23444 0.0
C914 C 0.23282 0.07586 0.19152 0.0
C915 C 0.26181 0.10818 0.20272 0.0
C916 C 0.2975 0.09734 0.22732 0.0
C917 C 0.3021 0.05587 0.24268 0.0
C918 C 0.19475 0.08546 0.16474 0.0
C919 C 0.3294 0.13036 0.24019 0.0
C920 C 0.2657 0.22207 0.16063 0.0
C921 C 0.24693 0.2441 0.19428 0.0
C922 C 0.26849 0.17731 0.16106 0.0
C923 C 0.25162 0.15415 0.19571 0.0
C924 C 0.22888 0.17624 0.22735 0.0
C925 C 0.22668 0.2205 0.22607 0.0
C926 C 0.29187 0.15521 0.12584 0.0
C927 C 0.20966 0.15348 0.2647 0.0
H928 H 0.21463 1.01055 0.20058 0.0
H929 H 0.32864 0.04863 0.26291 0.0
H930 H 0.17011 0.10069 0.18459 0.0
H931 H 0.20293 0.10773 0.13894 0.0
H932 H 0.18114 0.05627 0.15076 0.0
H933 H 0.35761 0.11621 0.25539 0.0
H934 H 0.33985 0.14886 0.21233 0.0
H935 H 0.31456 0.15276 0.26285 0.0
H936 H 0.27992 0.2396 0.13513 0.0
H937 H 0.21081 0.23688 0.25172 0.0
H938 H 0.27592 0.12524 0.11709 0.0
H939 H 0.32419 0.14722 0.13658 0.0
H940 H 0.29459 0.17553 0.09736 0.0
H941 H 0.18974 0.12679 0.25389 0.0
H942 H 0.19001 0.17473 0.28469 0.0
H943 H 0.23516 0.1401 0.28458 0.0
C944 C 0.22387 0.79805 0.82311 0.0
C945 C 0.24341 0.75952 0.81301 0.0
C946 C 0.1799 0.80356 0.81875 0.0
C947 C 0.15492 0.77023 0.80225 0.0
C948 C 0.17394 0.73018 0.79558 0.0
C949 C 0.21781 0.72546 0.80082 0.0
C950 C 0.16119 0.84666 0.8271 0.0
C951 C 0.14913 0.69365 0.77767 0.0
C952 C 0.03529 0.78293 0.78528 0.0
C953 C 0.03417 0.7982 0.74369 0.0
C954 C 0.07421 0.77403 0.80527 0.0
C955 C 0.11273 0.77974 0.78284 0.0
C956 C 0.11138 0.79446 0.74061 0.0
C957 C 0.07242 0.80381 0.72191 0.0
C958 C 0.07416 0.75925 0.8505 0.0
C959 C 0.15123 0.80038 0.71485 0.0
H960 H 0.24316 0.82526 0.8302 0.0
H961 H 0.2327 0.69619 0.79088 0.0
H962 H 0.15796 0.8639 0.7968 0.0
H963 H 0.12927 0.84396 0.84141 0.0
H964 H 0.18153 0.86573 0.84837 0.0
H965 H 0.1657 0.66305 0.78234 0.0
H966 H 0.11735 0.69169 0.79234 0.0
H967 H 0.1448 0.69852 0.74325 0.0
H968 H 1.0059 0.77891 0.80246 0.0
H969 H 0.07194 0.81527 0.68966 0.0
H970 H 0.09098 0.78263 0.87046 0.0
H971 H 0.09141 0.72885 0.85321 0.0
H972 H 0.04167 0.75505 0.86318 0.0
H973 H 0.17175 0.82433 0.73006 0.0
H974 H 0.14464 0.8108 0.68205 0.0
H975 H 0.16926 0.77031 0.71341 0.0
C976 C 0.81621 0.80141 0.19202 0.0
C977 C 0.78193 0.77518 0.18218 0.0
C978 C 0.81105 0.84528 0.19769 0.0
C979 C 0.77036 0.8636 0.19404 0.0
C980 C 0.73662 0.83794 0.17935 0.0
C981 C 0.74281 0.79401 0.17353 0.0
C982 C 0.84831 0.87095 0.21256 0.0
C983 C 0.69282 0.85583 0.17429 0.0
C984 C 0.75011 0.94714 0.27858 0.0
C985 C 0.75625 0.98534 0.25691 0.0
C986 C 0.75264 0.90785 0.25795 0.0
C987 C 0.76189 0.90606 0.21414 0.0
C988 C 0.76634 0.9446 0.19148 0.0
C989 C 0.76334 0.98383 0.21309 0.0
C990 C 0.74728 0.86803 0.28374 0.0
C991 C 0.77611 0.94435 0.14486 0.0
H992 H 0.84646 0.78702 0.19906 0.0
H993 H 0.71596 0.77394 0.16664 0.0
H994 H 0.84914 0.9022 0.19676 0.0
H995 H 0.84534 0.87662 0.24705 0.0
H996 H 0.87872 0.85446 0.20652 0.0
H997 H 0.67296 0.83535 0.1539 0.0
H998 H 0.67748 0.85818 0.20578 0.0
H999 H 0.69394 0.88807 0.1606 0.0
H1000 H 0.7443 0.94786 0.31234 0.0
H1001 H 0.76845 0.01311 0.19606 0.0
H1002 H 0.77747 0.85022 0.28429 0.0
H1003 H 0.72317 0.84723 0.26921 0.0
H1004 H 0.73765 0.87479 0.31685 0.0
H1005 H 0.80875 0.93268 0.13967 0.0
H1006 H 0.77341 0.97635 0.13076 0.0
H1007 H 0.75454 0.92253 0.12798 0.0
C1008 C 0.95615 0.28187 0.73477 0.0
C1009 C 0.99012 0.25775 0.74993 0.0
C1010 C 0.91513 0.27753 0.75138 0.0
C1011 C 0.90735 0.24885 0.78488 0.0
C1012 C 0.94195 0.2261 0.8021 0.0
C1013 C 0.98276 0.23044 0.78417 0.0
C1014 C 0.87957 0.30201 0.73118 0.0
C1015 C 0.93579 0.19574 0.83826 0.0
C1016 C 0.79519 0.26363 0.82849 0.0
C1017 C 0.77278 0.235 0.80327 0.0
C1018 C 0.83984 0.26592 0.8261 0.0
C1019 C 0.86234 0.23945 0.7974 0.0
C1020 C 0.83982 0.20798 0.77499 0.0
C1021 C 0.79562 0.20614 0.77833 0.0
C1022 C 0.86257 0.29879 0.85193 0.0
C1023 C 0.86186 0.17878 0.7442 0.0
H1024 H 0.96112 0.30312 0.70841 0.0
H1025 H 1.00863 0.21171 0.79639 0.0
H1026 H 0.85717 0.27969 0.71608 0.0
H1027 H 0.86175 0.32002 0.75548 0.0
H1028 H 0.89102 0.32449 0.70679 0.0
H1029 H 0.96569 0.19061 0.85575 0.0
H1030 H 0.91131 0.20731 0.86064 0.0
H1031 H 0.92529 0.16473 0.82572 0.0
H1032 H 0.7779 0.28634 0.84747 0.0
H1033 H 0.77848 0.18378 0.75885 0.0
H1034 H 0.871 0.32597 0.83149 0.0
H1035 H 0.89232 0.28568 0.86489 0.0
H1036 H 0.84266 0.31063 0.87841 0.0
H1037 H 0.87366 0.19733 0.71687 0.0
H1038 H 0.84059 0.1536 0.7322 0.0
H1039 H 0.88951 0.16361 0.75925 0.0
C1040 C 0.70469 0.30623 0.28527 0.0
C1041 C 0.73528 0.28027 0.30392 0.0
C1042 C 0.71017 0.35016 0.28245 0.0
C1043 C 0.74726 0.36892 0.29882 0.0
C1044 C 0.77622 0.34336 0.32154 0.0
C1045 C 0.77007 0.29916 0.32351 0.0
C1046 C 0.67824 0.37574 0.25806 0.0
C1047 C 0.81542 0.36222 0.34074 0.0
C1048 C 0.78679 0.45919 0.23022 0.0
C1049 C 0.76947 0.4949 0.2502 0.0
C1050 C 0.7814 0.41844 0.24689 0.0
C1051 C 0.75881 0.41287 0.28523 0.0
C1052 C 0.74352 0.44904 0.30707 0.0
C1053 C 0.74857 0.48957 0.28907 0.0
C1054 C 0.7977 0.38104 0.22189 0.0
C1055 C 0.72014 0.44492 0.34844 0.0
H1056 H 0.67767 0.29171 0.27012 0.0
H1057 H 0.7942 0.27922 0.33712 0.0
H1058 H 0.66966 0.4049 0.27557 0.0
H1059 H 0.69222 0.38551 0.22739 0.0
H1060 H 0.64895 0.35755 0.25164 0.0
H1061 H 0.83099 0.34001 0.36292 0.0
H1062 H 0.83825 0.37025 0.31534 0.0
H1063 H 0.80763 0.39192 0.35781 0.0
H1064 H 0.80298 0.46273 0.20021 0.0
H1065 H 0.7352 0.51691 0.30495 0.0
H1066 H 0.77073 0.36151 0.21101 0.0
H1067 H 0.81778 0.36071 0.24204 0.0
H1068 H 0.81642 0.39078 0.19381 0.0
H1069 H 0.68706 0.43532 0.34227 0.0
H1070 H 0.71951 0.47532 0.36609 0.0
H1071 H 0.7347 0.42029 0.36861 0.0
C1072 C 0.48049 0.27335 0.7148 0.0
C1073 C 0.4815 0.26916 0.75897 0.0
C1074 C 0.44167 0.27274 0.69257 0.0
C1075 C 0.40298 0.26741 0.71493 0.0
C1076 C 0.40438 0.26113 0.75923 0.0
C1077 C 0.44325 0.26232 0.78047 0.0
C1078 C 0.44205 0.2797 0.64549 0.0
C1079 C 0.36448 0.25468 0.78476 0.0
C1080 C 0.29492 0.31197 0.68888 0.0
C1081 C 0.27174 0.2752 0.68018 0.0
C1082 C 0.33893 0.31069 0.69511 0.0
C1083 C 0.36051 0.27141 0.69376 0.0
C1084 C 0.33795 0.23492 0.68048 0.0
C1085 C 0.29385 0.23727 0.67381 0.0
C1086 C 0.36131 0.35077 0.70799 0.0
C1087 C 0.3593 0.1924 0.67789 0.0
H1088 H 0.50977 0.27884 0.69782 0.0
H1089 H 0.44353 0.25857 0.8145 0.0
H1090 H 0.41988 0.25781 0.62952 0.0
H1091 H 0.43144 0.31241 0.63868 0.0
H1092 H 0.47411 0.27538 0.63177 0.0
H1093 H 0.37108 0.24752 0.81842 0.0
H1094 H 0.34472 0.28363 0.78341 0.0
H1095 H 0.3457 0.22835 0.7713 0.0
H1096 H 0.27803 0.34127 0.69463 0.0
H1097 H 0.27615 0.20849 0.66808 0.0
H1098 H 0.3926 0.35304 0.69231 0.0
H1099 H 0.36662 0.35043 0.74261 0.0
H1100 H 0.34258 0.37938 0.70011 0.0
H1101 H 0.39156 0.19529 0.66444 0.0
H1102 H 0.34089 0.16978 0.65839 0.0
H1103 H 0.36225 0.17913 0.71016 0.0
C1104 C 0.25859 0.72604 0.31472 0.0
C1105 C 0.29646 0.74794 0.30789 0.0
C1106 C 0.25628 0.68181 0.3086 0.0
C1107 C 0.29282 0.65898 0.29579 0.0
C1108 C 0.33208 0.68045 0.29425 0.0
C1109 C 0.33328 0.72462 0.29972 0.0
C1110 C 0.21376 0.66057 0.31102 0.0
C1111 C 0.37216 0.65767 0.2819 0.0
C1112 C 0.29282 0.53862 0.27614 0.0
C1113 C 0.28852 0.53696 0.23202 0.0
C1114 C 0.29326 0.57787 0.29787 0.0
C1115 C 0.28881 0.61626 0.27502 0.0
C1116 C 0.28284 0.61431 0.23071 0.0
C1117 C 0.28305 0.57503 0.20997 0.0
C1118 C 0.3001 0.57823 0.34495 0.0
C1119 C 0.27732 0.65397 0.20473 0.0
H1120 H 0.22985 0.74389 0.32024 0.0
H1121 H 0.36256 0.74144 0.29391 0.0
H1122 H 0.20119 0.65649 0.2786 0.0
H1123 H 0.21639 0.62873 0.3254 0.0
H1124 H 0.19076 0.67965 0.32957 0.0
H1125 H 0.40069 0.67638 0.29001 0.0
H1126 H 0.37412 0.62647 0.29771 0.0
H1127 H 0.37228 0.65201 0.2473 0.0
H1128 H 0.29723 0.50944 0.29349 0.0
H1129 H 0.27919 0.57424 0.17597 0.0
H1130 H 0.27818 0.60071 0.36068 0.0
H1131 H 0.33272 0.58899 0.35168 0.0
H1132 H 0.29577 0.54636 0.35902 0.0
H1133 H 0.25117 0.67344 0.21776 0.0
H1134 H 0.27041 0.64695 0.17106 0.0
H1135 H 0.3065 0.67329 0.20612 0.0
C1136 C 0.56719 0.78379 0.76952 0.0
C1137 C 0.53129 0.76746 0.7493 0.0
C1138 C 0.6073 0.78275 0.75039 0.0
C1139 C 0.61227 0.76552 0.70929 0.0
C1140 C 0.57596 0.75039 0.68782 0.0
C1141 C 0.53602 0.75115 0.70818 0.0
C1142 C 0.64474 0.79907 0.77498 0.0
C1143 C 0.57932 0.73224 0.64387 0.0
C1144 C 0.71906 0.80017 0.6662 0.0
C1145 C 0.7453 0.76715 0.67971 0.0
C1146 C 0.67475 0.79801 0.6708 0.0
C1147 C 0.65602 0.7624 0.69055 0.0
C1148 C 0.68198 0.7272 0.7002 0.0
C1149 C 0.7261 0.73009 0.69478 0.0
C1150 C 0.64855 0.83592 0.65876 0.0
C1151 C 0.66388 0.6883 0.72098 0.0
H1152 H 0.5643 0.79648 0.80122 0.0
H1153 H 0.50871 0.73825 0.69216 0.0
H1154 H 0.66806 0.77328 0.77948 0.0
H1155 H 0.66071 0.82464 0.75712 0.0
H1156 H 0.63562 0.81159 0.80653 0.0
H1157 H 0.54801 0.73033 0.62827 0.0
H1158 H 0.60082 0.75152 0.62395 0.0
H1159 H 0.59267 0.69987 0.64555 0.0
H1160 H 0.73296 0.82957 0.65616 0.0
H1161 H 0.74599 0.70477 0.70642 0.0
H1162 H 0.64119 0.85471 0.6875 0.0
H1163 H 0.61818 0.82593 0.64456 0.0
H1164 H 0.66554 0.85668 0.63609 0.0
H1165 H 0.65644 0.69552 0.75451 0.0
H1166 H 0.68636 0.66133 0.72003 0.0
H1167 H 0.63409 0.6786 0.70546 0.0
loop_
_geom_bond_atom_site_label_1
_geom_bond_atom_site_label_2
_geom_bond_distance
_geom_bond_site_symmetry_2
_ccdc_geom_bond_type
Zn0 N4 2.020 . S
Zn0 O8 2.019 . S
Zn0 N10 2.119 . S
Zn0 O18 1.975 . S
C1 N2 1.334 . S
C1 N5 1.336 . S
N2 C1 1.334 . S
N2 C3 1.334 . S
C3 N2 1.334 . S
C3 N4 1.336 . S
N4 Zn0 2.020 . S
N4 C3 1.336 . S
N4 N5 1.354 . S
N5 C1 1.336 . S
N5 N4 1.354 . S
N5 Zn9 2.020 . S
C6 O7 1.244 . S
C6 O30 1.257 . S
O7 C6 1.244 . S
O8 Zn0 2.019 . S
O8 C28 1.257 . S
Zn9 N5 2.020 . S
Zn9 O16 1.975 . S
Zn9 N25 2.119 . S
Zn9 O30 2.019 . S
N10 Zn0 2.119 . S
N10 C12 1.334 . S
N10 C13 1.328 . S
C11 C12 1.391 . S
C11 N14 1.329 . S
C11 H32 0.930 . S
C12 N10 1.334 . S
C12 C11 1.391 . S
C12 H19 0.930 . S
C13 N10 1.328 . S
C13 C15 1.392 . S
C13 H20 0.930 . S
N14 C11 1.329 . S
N14 C15 1.331 . S
C15 C13 1.392 . S
C15 N14 1.331 . S
O16 Zn9 1.975 . S
O16 C17 1.252 . S
C17 O16 1.252 . S
C17 O18 1.252 . S
O18 Zn0 1.975 . S
O18 C17 1.252 . S
H19 C12 0.930 . S
H20 C13 0.930 . S
C21 C22 1.392 . S
C21 N25 1.328 . S
C21 H27 0.930 . S
C22 C21 1.392 . S
C22 N26 1.331 . S
C23 C24 1.391 . S
C23 N26 1.329 . S
C23 H33 0.930 . S
C24 C23 1.391 . S
C24 N25 1.334 . S
C24 H31 0.930 . S
N25 Zn9 2.119 . S
N25 C21 1.328 . S
N25 C24 1.334 . S
N26 C22 1.331 . S
N26 C23 1.329 . S
H27 C21 0.930 . S
C28 O8 1.257 . S
C28 O29 1.244 . S
O29 C28 1.244 . S
O30 C6 1.257 . S
O30 Zn9 2.019 . S
H31 C24 0.930 . S
H32 C11 0.930 . S
H33 C23 0.930 . S
Zn34 N38 2.020 . S
Zn34 O42 2.019 . S
Zn34 N44 2.119 . S
Zn34 O52 1.975 . S
C35 N36 1.334 . S
C35 N39 1.336 . S
N36 C35 1.334 . S
N36 C37 1.334 . S
C37 N36 1.334 . S
C37 N38 1.336 . S
N38 Zn34 2.020 . S
N38 C37 1.336 . S
N38 N39 1.354 . S
N39 C35 1.336 . S
N39 N38 1.354 . S
N39 Zn43 2.020 . S
C40 O41 1.244 . S
C40 O64 1.257 . S
O41 C40 1.244 . S
O42 Zn34 2.019 . S
O42 C62 1.257 . S
Zn43 N39 2.020 . S
Zn43 O50 1.975 . S
Zn43 N59 2.119 . S
Zn43 O64 2.019 . S
N44 Zn34 2.119 . S
N44 C46 1.334 . S
N44 C47 1.328 . S
C45 C46 1.391 . S
C45 N48 1.329 . S
C45 H66 0.930 . S
C46 N44 1.334 . S
C46 C45 1.391 . S
C46 H53 0.930 . S
C47 N44 1.328 . S
C47 C49 1.392 . S
C47 H54 0.930 . S
N48 C45 1.329 . S
N48 C49 1.331 . S
C49 C47 1.392 . S
C49 N48 1.331 . S
O50 Zn43 1.975 . S
O50 C51 1.252 . S
C51 O50 1.252 . S
C51 O52 1.252 . S
O52 Zn34 1.975 . S
O52 C51 1.252 . S
H53 C46 0.930 . S
H54 C47 0.930 . S
C55 C56 1.392 . S
C55 N59 1.328 . S
C55 H61 0.930 . S
C56 C55 1.392 . S
C56 N60 1.331 . S
C57 C58 1.391 . S
C57 N60 1.329 . S
C57 H67 0.930 . S
C58 C57 1.391 . S
C58 N59 1.334 . S
C58 H65 0.930 . S
N59 Zn43 2.119 . S
N59 C55 1.328 . S
N59 C58 1.334 . S
N60 C56 1.331 . S
N60 C57 1.329 . S
H61 C55 0.930 . S
C62 O42 1.257 . S
C62 O63 1.244 . S
O63 C62 1.244 . S
O64 C40 1.257 . S
O64 Zn43 2.019 . S
H65 C58 0.930 . S
H66 C45 0.930 . S
H67 C57 0.930 . S
Zn68 N72 2.020 . S
Zn68 O76 2.019 . S
Zn68 N78 2.119 . S
Zn68 O86 1.975 . S
C69 N70 1.334 . S
C69 N73 1.336 . S
N70 C69 1.334 . S
N70 C71 1.334 . S
C71 N70 1.334 . S
C71 N72 1.336 . S
N72 Zn68 2.020 . S
N72 C71 1.336 . S
N72 N73 1.354 . S
N73 C69 1.336 . S
N73 N72 1.354 . S
N73 Zn77 2.020 . S
C74 O75 1.244 . S
C74 O98 1.257 . S
O75 C74 1.244 . S
O76 Zn68 2.019 . S
O76 C96 1.257 . S
Zn77 N73 2.020 . S
Zn77 O84 1.975 . S
Zn77 N93 2.119 . S
Zn77 O98 2.019 . S
N78 Zn68 2.119 . S
N78 C80 1.334 . S
N78 C81 1.328 . S
C79 C80 1.391 . S
C79 N82 1.329 . S
C79 H100 0.930 . S
C80 N78 1.334 . S
C80 C79 1.391 . S
C80 H87 0.930 . S
C81 N78 1.328 . S
C81 C83 1.392 . S
C81 H88 0.930 . S
N82 C79 1.329 . S
N82 C83 1.331 . S
C83 C81 1.392 . S
C83 N82 1.331 . S
O84 Zn77 1.975 . S
O84 C85 1.252 . S
C85 O84 1.252 . S
C85 O86 1.252 . S
O86 Zn68 1.975 . S
O86 C85 1.252 . S
H87 C80 0.930 . S
H88 C81 0.930 . S
C89 C90 1.392 . S
C89 N93 1.328 . S
C89 H95 0.930 . S
C90 C89 1.392 . S
C90 N94 1.331 . S
C91 C92 1.391 . S
C91 N94 1.329 . S
C91 H101 0.930 . S
C92 C91 1.391 . S
C92 N93 1.334 . S
C92 H99 0.930 . S
N93 Zn77 2.119 . S
N93 C89 1.328 . S
N93 C92 1.334 . S
N94 C90 1.331 . S
N94 C91 1.329 . S
H95 C89 0.930 . S
C96 O76 1.257 . S
C96 O97 1.244 . S
O97 C96 1.244 . S
O98 C74 1.257 . S
O98 Zn77 2.019 . S
H99 C92 0.930 . S
H100 C79 0.930 . S
H101 C91 0.930 . S
Zn102 N106 2.020 . S
Zn102 O110 2.019 . S
Zn102 N112 2.119 . S
Zn102 O120 1.975 . S
C103 N104 1.334 . S
C103 N107 1.336 . S
N104 C103 1.334 . S
N104 C105 1.334 . S
C105 N104 1.334 . S
C105 N106 1.336 . S
N106 Zn102 2.020 . S
N106 C105 1.336 . S
N106 N107 1.354 . S
N107 C103 1.336 . S
N107 N106 1.354 . S
N107 Zn111 2.020 . S
C108 O109 1.244 . S
C108 O132 1.257 . S
O109 C108 1.244 . S
O110 Zn102 2.019 . S
O110 C130 1.257 . S
Zn111 N107 2.020 . S
Zn111 O118 1.975 . S
Zn111 N127 2.119 . S
Zn111 O132 2.019 . S
N112 Zn102 2.119 . S
N112 C114 1.334 . S
N112 C115 1.328 . S
C113 C114 1.391 . S
C113 N116 1.329 . S
C113 H134 0.930 . S
C114 N112 1.334 . S
C114 C113 1.391 . S
C114 H121 0.930 . S
C115 N112 1.328 . S
C115 C117 1.392 . S
C115 H122 0.930 . S
N116 C113 1.329 . S
N116 C117 1.331 . S
C117 C115 1.392 . S
C117 N116 1.331 . S
O118 Zn111 1.975 . S
O118 C119 1.252 . S
C119 O118 1.252 . S
C119 O120 1.252 . S
O120 Zn102 1.975 . S
O120 C119 1.252 . S
H121 C114 0.930 . S
H122 C115 0.930 . S
C123 C124 1.392 . S
C123 N127 1.328 . S
C123 H129 0.930 . S
C124 C123 1.392 . S
C124 N128 1.331 . S
C125 C126 1.391 . S
C125 N128 1.329 . S
C125 H135 0.930 . S
C126 C125 1.391 . S
C126 N127 1.334 . S
C126 H133 0.930 . S
N127 Zn111 2.119 . S
N127 C123 1.328 . S
N127 C126 1.334 . S
N128 C124 1.331 . S
N128 C125 1.329 . S
H129 C123 0.930 . S
C130 O110 1.257 . S
C130 O131 1.244 . S
O131 C130 1.244 . S
O132 C108 1.257 . S
O132 Zn111 2.019 . S
H133 C126 0.930 . S
H134 C113 0.930 . S
H135 C125 0.930 . S
Zn136 N140 2.020 . S
Zn136 O144 2.019 . S
Zn136 N146 2.119 . S
Zn136 O154 1.975 . S
C137 N138 1.334 . S
C137 N141 1.336 . S
N138 C137 1.334 . S
N138 C139 1.334 . S
C139 N138 1.334 . S
C139 N140 1.336 . S
N140 Zn136 2.020 . S
N140 C139 1.336 . S
N140 N141 1.354 . S
N141 C137 1.336 . S
N141 N140 1.354 . S
N141 Zn145 2.020 . S
C142 O143 1.244 1_565 S
C142 O166 1.257 . S
O143 C142 1.244 1_545 S
O144 Zn136 2.019 . S
O144 C164 1.257 . S
Zn145 N141 2.020 . S
Zn145 O152 1.975 . S
Zn145 N161 2.119 . S
Zn145 O166 2.019 1_545 S
N146 Zn136 2.119 . S
N146 C148 1.334 . S
N146 C149 1.328 . S
C147 C148 1.391 . S
C147 N150 1.329 . S
C147 H168 0.930 . S
C148 N146 1.334 . S
C148 C147 1.391 . S
C148 H155 0.930 . S
C149 N146 1.328 . S
C149 C151 1.392 . S
C149 H156 0.930 . S
N150 C147 1.329 . S
N150 C151 1.331 . S
C151 C149 1.392 . S
C151 N150 1.331 . S
O152 Zn145 1.975 . S
O152 C153 1.252 . S
C153 O152 1.252 . S
C153 O154 1.252 . S
O154 Zn136 1.975 . S
O154 C153 1.252 . S
H155 C148 0.930 . S
H156 C149 0.930 . S
C157 C158 1.392 . S
C157 N161 1.328 . S
C157 H163 0.930 1_545 S
C158 C157 1.392 . S
C158 N162 1.331 . S
C159 C160 1.391 . S
C159 N162 1.329 . S
C159 H169 0.930 . S
C160 C159 1.391 . S
C160 N161 1.334 . S
C160 H167 0.930 . S
N161 Zn145 2.119 . S
N161 C157 1.328 . S
N161 C160 1.334 . S
N162 C158 1.331 . S
N162 C159 1.329 . S
H163 C157 0.930 1_565 S
C164 O144 1.257 . S
C164 O165 1.244 . S
O165 C164 1.244 . S
O166 C142 1.257 . S
O166 Zn145 2.019 1_565 S
H167 C160 0.930 . S
H168 C147 0.930 . S
H169 C159 0.930 . S
Zn170 N174 2.020 . S
Zn170 O178 2.019 1_455 S
Zn170 N180 2.119 . S
Zn170 O188 1.975 . S
C171 N172 1.334 . S
C171 N175 1.336 . S
N172 C171 1.334 . S
N172 C173 1.334 . S
C173 N172 1.334 . S
C173 N174 1.336 . S
N174 Zn170 2.020 . S
N174 C173 1.336 . S
N174 N175 1.354 . S
N175 C171 1.336 . S
N175 N174 1.354 . S
N175 Zn179 2.020 . S
C176 O177 1.244 . S
C176 O200 1.257 . S
O177 C176 1.244 . S
O178 Zn170 2.019 1_655 S
O178 C198 1.257 . S
Zn179 N175 2.020 . S
Zn179 O186 1.975 . S
Zn179 N195 2.119 . S
Zn179 O200 2.019 . S
N180 Zn170 2.119 . S
N180 C182 1.334 . S
N180 C183 1.328 . S
C181 C182 1.391 . S
C181 N184 1.329 . S
C181 H202 0.930 . S
C182 N180 1.334 . S
C182 C181 1.391 . S
C182 H189 0.930 . S
C183 N180 1.328 . S
C183 C185 1.392 . S
C183 H190 0.930 1_455 S
N184 C181 1.329 . S
N184 C185 1.331 . S
C185 C183 1.392 . S
C185 N184 1.331 . S
O186 Zn179 1.975 . S
O186 C187 1.252 . S
C187 O186 1.252 . S
C187 O188 1.252 . S
O188 Zn170 1.975 . S
O188 C187 1.252 . S
H189 C182 0.930 . S
H190 C183 0.930 1_655 S
C191 C192 1.392 . S
C191 N195 1.328 . S
C191 H197 0.930 . S
C192 C191 1.392 . S
C192 N196 1.331 . S
C193 C194 1.391 . S
C193 N196 1.329 . S
C193 H203 0.930 . S
C194 C193 1.391 . S
C194 N195 1.334 . S
C194 H201 0.930 . S
N195 Zn179 2.119 . S
N195 C191 1.328 . S
N195 C194 1.334 . S
N196 C192 1.331 . S
N196 C193 1.329 . S
H197 C191 0.930 . S
C198 O178 1.257 . S
C198 O199 1.244 1_655 S
O199 C198 1.244 1_455 S
O200 C176 1.257 . S
O200 Zn179 2.019 . S
H201 C194 0.930 . S
H202 C181 0.930 . S
H203 C193 0.930 . S
Zn204 N208 2.020 . S
Zn204 O212 2.019 . S
Zn204 N214 2.119 . S
Zn204 O222 1.975 . S
C205 N206 1.334 . S
C205 N209 1.336 . S
N206 C205 1.334 . S
N206 C207 1.334 . S
C207 N206 1.334 . S
C207 N208 1.336 . S
N208 Zn204 2.020 . S
N208 C207 1.336 . S
N208 N209 1.354 . S
N209 C205 1.336 . S
N209 N208 1.354 . S
N209 Zn213 2.020 . S
C210 O211 1.244 1_545 S
C210 O234 1.257 . S
O211 C210 1.244 1_565 S
O212 Zn204 2.019 . S
O212 C232 1.257 . S
Zn213 N209 2.020 . S
Zn213 O220 1.975 . S
Zn213 N229 2.119 . S
Zn213 O234 2.019 1_565 S
N214 Zn204 2.119 . S
N214 C216 1.334 . S
N214 C217 1.328 . S
C215 C216 1.391 . S
C215 N218 1.329 . S
C215 H236 0.930 . S
C216 N214 1.334 . S
C216 C215 1.391 . S
C216 H223 0.930 . S
C217 N214 1.328 . S
C217 C219 1.392 . S
C217 H224 0.930 . S
N218 C215 1.329 . S
N218 C219 1.331 . S
C219 C217 1.392 . S
C219 N218 1.331 . S
O220 Zn213 1.975 . S
O220 C221 1.252 . S
C221 O220 1.252 . S
C221 O222 1.252 . S
O222 Zn204 1.975 . S
O222 C221 1.252 . S
H223 C216 0.930 . S
H224 C217 0.930 . S
C225 C226 1.392 . S
C225 N229 1.328 . S
C225 H231 0.930 1_565 S
C226 C225 1.392 . S
C226 N230 1.331 . S
C227 C228 1.391 . S
C227 N230 1.329 . S
C227 H237 0.930 . S
C228 C227 1.391 . S
C228 N229 1.334 . S
C228 H235 0.930 . S
N229 Zn213 2.119 . S
N229 C225 1.328 . S
N229 C228 1.334 . S
N230 C226 1.331 . S
N230 C227 1.329 . S
H231 C225 0.930 1_545 S
C232 O212 1.257 . S
C232 O233 1.244 . S
O233 C232 1.244 . S
O234 C210 1.257 . S
O234 Zn213 2.019 1_545 S
H235 C228 0.930 . S
H236 C215 0.930 . S
H237 C227 0.930 . S
Zn238 N242 2.020 . S
Zn238 O246 2.019 1_655 S
Zn238 N248 2.119 . S
Zn238 O256 1.975 . S
C239 N240 1.334 . S
C239 N243 1.336 . S
N240 C239 1.334 . S
N240 C241 1.334 . S
C241 N240 1.334 . S
C241 N242 1.336 . S
N242 Zn238 2.020 . S
N242 C241 1.336 . S
N242 N243 1.354 . S
N243 C239 1.336 . S
N243 N242 1.354 . S
N243 Zn247 2.020 . S
C244 O245 1.244 . S
C244 O268 1.257 . S
O245 C244 1.244 . S
O246 Zn238 2.019 1_455 S
O246 C266 1.257 . S
Zn247 N243 2.020 . S
Zn247 O254 1.975 . S
Zn247 N263 2.119 . S
Zn247 O268 2.019 . S
N248 Zn238 2.119 . S
N248 C250 1.334 . S
N248 C251 1.328 . S
C249 C250 1.391 . S
C249 N252 1.329 . S
C249 H270 0.930 . S
C250 N248 1.334 . S
C250 C249 1.391 . S
C250 H257 0.930 . S
C251 N248 1.328 . S
C251 C253 1.392 . S
C251 H258 0.930 1_655 S
N252 C249 1.329 . S
N252 C253 1.331 . S
C253 C251 1.392 . S
C253 N252 1.331 . S
O254 Zn247 1.975 . S
O254 C255 1.252 . S
C255 O254 1.252 . S
C255 O256 1.252 . S
O256 Zn238 1.975 . S
O256 C255 1.252 . S
H257 C250 0.930 . S
H258 C251 0.930 1_455 S
C259 C260 1.392 . S
C259 N263 1.328 . S
C259 H265 0.930 . S
C260 C259 1.392 . S
C260 N264 1.331 . S
C261 C262 1.391 . S
C261 N264 1.329 . S
C261 H271 0.930 . S
C262 C261 1.391 . S
C262 N263 1.334 . S
C262 H269 0.930 . S
N263 Zn247 2.119 . S
N263 C259 1.328 . S
N263 C262 1.334 . S
N264 C260 1.331 . S
N264 C261 1.329 . S
H265 C259 0.930 . S
C266 O246 1.257 . S
C266 O267 1.244 1_455 S
O267 C266 1.244 1_655 S
O268 C244 1.257 . S
O268 Zn247 2.019 . S
H269 C262 0.930 . S
H270 C249 0.930 . S
H271 C261 0.930 . S
C272 C273 1.391 . S
C272 C274 1.394 . S
C272 H288 0.931 . S
C273 C272 1.391 . S
C273 C277 1.376 . S
C274 C272 1.394 . S
C274 C275 1.369 . S
C274 C278 1.531 . S
C275 C274 1.369 . S
C275 C276 1.410 . S
C275 C283 1.503 . S
C276 C275 1.410 . S
C276 C277 1.392 . S
C276 C279 1.511 . S
C277 C273 1.376 . S
C277 C276 1.392 . S
C277 H289 0.929 . S
C278 C274 1.531 . S
C278 H290 0.960 . S
C278 H291 0.962 . S
C278 H292 0.960 . S
C279 C276 1.511 . S
C279 H293 0.961 . S
C279 H294 0.961 . S
C279 H295 0.961 . S
C280 C281 1.370 . S
C280 C282 1.363 . S
C280 H296 0.931 . S
C281 C280 1.370 . S
C281 C285 1.408 . S
C282 C280 1.363 . S
C282 C283 1.370 . S
C282 C286 1.524 . S
C283 C275 1.503 . S
C283 C282 1.370 . S
C283 C284 1.403 . S
C284 C283 1.403 . S
C284 C285 1.404 . S
C284 C287 1.539 . S
C285 C281 1.408 . S
C285 C284 1.404 . S
C285 H297 0.930 . S
C286 C282 1.524 . S
C286 H298 0.956 . S
C286 H299 0.961 . S
C286 H300 0.961 . S
C287 C284 1.539 . S
C287 H301 0.958 . S
C287 H302 0.961 . S
C287 H303 0.960 . S
H288 C272 0.931 . S
H289 C277 0.929 . S
H290 C278 0.960 . S
H291 C278 0.962 . S
H292 C278 0.960 . S
H293 C279 0.961 . S
H294 C279 0.961 . S
H295 C279 0.961 . S
H296 C280 0.931 . S
H297 C285 0.930 . S
H298 C286 0.956 . S
H299 C286 0.961 . S
H300 C286 0.961 . S
H301 C287 0.958 . S
H302 C287 0.961 . S
H303 C287 0.960 . S
C304 C305 1.391 . S
C304 C306 1.394 . S
C304 H320 0.931 . S
C305 C304 1.391 . S
C305 C309 1.376 . S
C306 C304 1.394 . S
C306 C307 1.369 . S
C306 C310 1.531 . S
C307 C306 1.369 . S
C307 C308 1.410 . S
C307 C315 1.503 . S
C308 C307 1.410 . S
C308 C309 1.392 . S
C308 C311 1.511 . S
C309 C305 1.376 . S
C309 C308 1.392 . S
C309 H321 0.929 1_554 S
C310 C306 1.531 . S
C310 H322 0.960 . S
C310 H323 0.962 . S
C310 H324 0.960 . S
C311 C308 1.511 . S
C311 H325 0.961 . S
C311 H326 0.961 . S
C311 H327 0.961 . S
C312 C313 1.370 . S
C312 C314 1.363 . S
C312 H328 0.931 . S
C313 C312 1.370 . S
C313 C317 1.408 . S
C314 C312 1.363 . S
C314 C315 1.370 . S
C314 C318 1.524 . S
C315 C307 1.503 . S
C315 C314 1.370 . S
C315 C316 1.403 . S
C316 C315 1.403 . S
C316 C317 1.404 . S
C316 C319 1.539 . S
C317 C313 1.408 . S
C317 C316 1.404 . S
C317 H329 0.930 . S
C318 C314 1.524 . S
C318 H330 0.956 . S
C318 H331 0.961 . S
C318 H332 0.961 . S
C319 C316 1.539 . S
C319 H333 0.958 . S
C319 H334 0.961 . S
C319 H335 0.960 . S
H320 C304 0.931 . S
H321 C309 0.929 1_556 S
H322 C310 0.960 . S
H323 C310 0.962 . S
H324 C310 0.960 . S
H325 C311 0.961 . S
H326 C311 0.961 . S
H327 C311 0.961 . S
H328 C312 0.931 . S
H329 C317 0.930 . S
H330 C318 0.956 . S
H331 C318 0.961 . S
H332 C318 0.961 . S
H333 C319 0.958 . S
H334 C319 0.961 . S
H335 C319 0.960 . S
C336 C337 1.391 . S
C336 C338 1.394 . S
C336 H352 0.931 . S
C337 C336 1.391 . S
C337 C341 1.376 . S
C338 C336 1.394 . S
C338 C339 1.369 . S
C338 C342 1.531 . S
C339 C338 1.369 . S
C339 C340 1.410 . S
C339 C347 1.503 . S
C340 C339 1.410 . S
C340 C341 1.392 . S
C340 C343 1.511 . S
C341 C337 1.376 . S
C341 C340 1.392 . S
C341 H353 0.929 . S
C342 C338 1.531 . S
C342 H354 0.960 . S
C342 H355 0.962 . S
C342 H356 0.960 . S
C343 C340 1.511 . S
C343 H357 0.961 . S
C343 H358 0.961 . S
C343 H359 0.961 . S
C344 C345 1.370 . S
C344 C346 1.363 . S
C344 H360 0.931 . S
C345 C344 1.370 . S
C345 C349 1.408 . S
C346 C344 1.363 . S
C346 C347 1.370 . S
C346 C350 1.524 . S
C347 C339 1.503 . S
C347 C346 1.370 . S
C347 C348 1.403 . S
C348 C347 1.403 . S
C348 C349 1.404 . S
C348 C351 1.539 . S
C349 C345 1.408 . S
C349 C348 1.404 . S
C349 H361 0.930 1_556 S
C350 C346 1.524 . S
C350 H362 0.956 . S
C350 H363 0.961 . S
C350 H364 0.961 . S
C351 C348 1.539 . S
C351 H365 0.958 . S
C351 H366 0.961 . S
C351 H367 0.960 . S
H352 C336 0.931 . S
H353 C341 0.929 . S
H354 C342 0.960 . S
H355 C342 0.962 . S
H356 C342 0.960 . S
H357 C343 0.961 . S
H358 C343 0.961 . S
H359 C343 0.961 . S
H360 C344 0.931 . S
H361 C349 0.930 1_554 S
H362 C350 0.956 . S
H363 C350 0.961 . S
H364 C350 0.961 . S
H365 C351 0.958 . S
H366 C351 0.961 . S
H367 C351 0.960 . S
C368 C369 1.391 . S
C368 C370 1.394 . S
C368 H384 0.931 . S
C369 C368 1.391 . S
C369 C373 1.376 . S
C370 C368 1.394 . S
C370 C371 1.369 . S
C370 C374 1.531 . S
C371 C370 1.369 . S
C371 C372 1.410 . S
C371 C379 1.503 . S
C372 C371 1.410 . S
C372 C373 1.392 . S
C372 C375 1.511 . S
C373 C369 1.376 . S
C373 C372 1.392 . S
C373 H385 0.929 . S
C374 C370 1.531 . S
C374 H386 0.960 . S
C374 H387 0.962 . S
C374 H388 0.960 . S
C375 C372 1.511 . S
C375 H389 0.961 . S
C375 H390 0.961 . S
C375 H391 0.961 . S
C376 C377 1.370 . S
C376 C378 1.363 . S
C376 H392 0.931 . S
C377 C376 1.370 . S
C377 C381 1.408 . S
C378 C376 1.363 . S
C378 C379 1.370 . S
C378 C382 1.524 . S
C379 C371 1.503 . S
C379 C378 1.370 . S
C379 C380 1.403 . S
C380 C379 1.403 . S
C380 C381 1.404 . S
C380 C383 1.539 . S
C381 C377 1.408 . S
C381 C380 1.404 . S
C381 H393 0.930 1_554 S
C382 C378 1.524 . S
C382 H394 0.956 . S
C382 H395 0.961 . S
C382 H396 0.961 . S
C383 C380 1.539 . S
C383 H397 0.958 . S
C383 H398 0.961 . S
C383 H399 0.960 . S
H384 C368 0.931 . S
H385 C373 0.929 . S
H386 C374 0.960 . S
H387 C374 0.962 . S
H388 C374 0.960 . S
H389 C375 0.961 . S
H390 C375 0.961 . S
H391 C375 0.961 . S
H392 C376 0.931 . S
H393 C381 0.930 1_556 S
H394 C382 0.956 . S
H395 C382 0.961 . S
H396 C382 0.961 . S
H397 C383 0.958 . S
H398 C383 0.961 . S
H399 C383 0.960 . S
C400 C401 1.391 . S
C400 C402 1.394 . S
C400 H416 0.931 . S
C401 C400 1.391 . S
C401 C405 1.376 . S
C402 C400 1.394 . S
C402 C403 1.369 . S
C402 C406 1.531 . S
C403 C402 1.369 . S
C403 C404 1.410 . S
C403 C411 1.503 . S
C404 C403 1.410 . S
C404 C405 1.392 . S
C404 C407 1.511 . S
C405 C401 1.376 . S
C405 C404 1.392 . S
C405 H417 0.929 . S
C406 C402 1.531 . S
C406 H418 0.960 . S
C406 H419 0.962 . S
C406 H420 0.960 . S
C407 C404 1.511 . S
C407 H421 0.961 . S
C407 H422 0.961 . S
C407 H423 0.961 . S
C408 C409 1.370 . S
C408 C410 1.363 . S
C408 H424 0.931 . S
C409 C408 1.370 . S
C409 C413 1.408 . S
C410 C408 1.363 . S
C410 C411 1.370 . S
C410 C414 1.524 . S
C411 C403 1.503 . S
C411 C410 1.370 . S
C411 C412 1.403 . S
C412 C411 1.403 . S
C412 C413 1.404 . S
C412 C415 1.539 . S
C413 C409 1.408 . S
C413 C412 1.404 . S
C413 H425 0.930 . S
C414 C410 1.524 . S
C414 H426 0.956 . S
C414 H427 0.961 . S
C414 H428 0.961 . S
C415 C412 1.539 . S
C415 H429 0.958 . S
C415 H430 0.961 . S
C415 H431 0.960 . S
H416 C400 0.931 . S
H417 C405 0.929 . S
H418 C406 0.960 . S
H419 C406 0.962 . S
H420 C406 0.960 . S
H421 C407 0.961 . S
H422 C407 0.961 . S
H423 C407 0.961 . S
H424 C408 0.931 . S
H425 C413 0.930 . S
H426 C414 0.956 . S
H427 C414 0.961 . S
H428 C414 0.961 . S
H429 C415 0.958 . S
H430 C415 0.961 . S
H431 C415 0.960 . S
C432 C433 1.391 . S
C432 C434 1.394 . S
C432 H448 0.931 . S
C433 C432 1.391 . S
C433 C437 1.376 . S
C434 C432 1.394 . S
C434 C435 1.369 . S
C434 C438 1.531 . S
C435 C434 1.369 . S
C435 C436 1.410 . S
C435 C443 1.503 . S
C436 C435 1.410 . S
C436 C437 1.392 . S
C436 C439 1.511 . S
C437 C433 1.376 . S
C437 C436 1.392 . S
C437 H449 0.929 . S
C438 C434 1.531 . S
C438 H450 0.960 . S
C438 H451 0.962 . S
C438 H452 0.960 . S
C439 C436 1.511 . S
C439 H453 0.961 . S
C439 H454 0.961 . S
C439 H455 0.961 . S
C440 C441 1.370 . S
C440 C442 1.363 . S
C440 H456 0.931 . S
C441 C440 1.370 . S
C441 C445 1.408 . S
C442 C440 1.363 . S
C442 C443 1.370 . S
C442 C446 1.524 . S
C443 C435 1.503 . S
C443 C442 1.370 . S
C443 C444 1.403 . S
C444 C443 1.403 . S
C444 C445 1.404 . S
C444 C447 1.539 . S
C445 C441 1.408 . S
C445 C444 1.404 . S
C445 H457 0.930 . S
C446 C442 1.524 . S
C446 H458 0.956 . S
C446 H459 0.961 . S
C446 H460 0.961 . S
C447 C444 1.539 . S
C447 H461 0.958 . S
C447 H462 0.961 . S
C447 H463 0.960 . S
H448 C432 0.931 . S
H449 C437 0.929 . S
H450 C438 0.960 . S
H451 C438 0.962 . S
H452 C438 0.960 . S
H453 C439 0.961 . S
H454 C439 0.961 . S
H455 C439 0.961 . S
H456 C440 0.931 . S
H457 C445 0.930 . S
H458 C446 0.956 . S
H459 C446 0.961 . S
H460 C446 0.961 . S
H461 C447 0.958 . S
H462 C447 0.961 . S
H463 C447 0.960 . S
C464 C465 1.391 . S
C464 C466 1.394 . S
C464 H480 0.931 . S
C465 C464 1.391 . S
C465 C469 1.376 . S
C466 C464 1.394 . S
C466 C467 1.369 . S
C466 C470 1.531 . S
C467 C466 1.369 . S
C467 C468 1.410 . S
C467 C475 1.503 . S
C468 C467 1.410 . S
C468 C469 1.392 . S
C468 C471 1.511 . S
C469 C465 1.376 . S
C469 C468 1.392 . S
C469 H481 0.929 . S
C470 C466 1.531 . S
C470 H482 0.960 . S
C470 H483 0.962 . S
C470 H484 0.960 . S
C471 C468 1.511 . S
C471 H485 0.961 . S
C471 H486 0.961 . S
C471 H487 0.961 . S
C472 C473 1.370 . S
C472 C474 1.363 . S
C472 H488 0.931 . S
C473 C472 1.370 . S
C473 C477 1.408 . S
C474 C472 1.363 . S
C474 C475 1.370 . S
C474 C478 1.524 . S
C475 C467 1.503 . S
C475 C474 1.370 . S
C475 C476 1.403 . S
C476 C475 1.403 . S
C476 C477 1.404 . S
C476 C479 1.539 . S
C477 C473 1.408 . S
C477 C476 1.404 . S
C477 H489 0.930 . S
C478 C474 1.524 . S
C478 H490 0.956 . S
C478 H491 0.961 . S
C478 H492 0.961 . S
C479 C476 1.539 . S
C479 H493 0.958 . S
C479 H494 0.961 . S
C479 H495 0.960 . S
H480 C464 0.931 . S
H481 C469 0.929 . S
H482 C470 0.960 . S
H483 C470 0.962 . S
H484 C470 0.960 . S
H485 C471 0.961 . S
H486 C471 0.961 . S
H487 C471 0.961 . S
H488 C472 0.931 . S
H489 C477 0.930 . S
H490 C478 0.956 . S
H491 C478 0.961 . S
H492 C478 0.961 . S
H493 C479 0.958 . S
H494 C479 0.961 . S
H495 C479 0.960 . S
C496 C497 1.391 . S
C496 C498 1.394 . S
C496 H512 0.931 . S
C497 C496 1.391 . S
C497 C501 1.376 . S
C498 C496 1.394 . S
C498 C499 1.369 . S
C498 C502 1.531 . S
C499 C498 1.369 . S
C499 C500 1.410 . S
C499 C507 1.503 . S
C500 C499 1.410 . S
C500 C501 1.392 . S
C500 C503 1.511 . S
C501 C497 1.376 . S
C501 C500 1.392 . S
C501 H513 0.929 . S
C502 C498 1.531 . S
C502 H514 0.960 . S
C502 H515 0.962 . S
C502 H516 0.960 . S
C503 C500 1.511 . S
C503 H517 0.961 . S
C503 H518 0.961 . S
C503 H519 0.961 . S
C504 C505 1.370 . S
C504 C506 1.363 . S
C504 H520 0.931 . S
C505 C504 1.370 . S
C505 C509 1.408 . S
C506 C504 1.363 . S
C506 C507 1.370 . S
C506 C510 1.524 . S
C507 C499 1.503 . S
C507 C506 1.370 . S
C507 C508 1.403 . S
C508 C507 1.403 . S
C508 C509 1.404 . S
C508 C511 1.539 . S
C509 C505 1.408 . S
C509 C508 1.404 . S
C509 H521 0.930 . S
C510 C506 1.524 . S
C510 H522 0.956 . S
C510 H523 0.961 . S
C510 H524 0.961 . S
C511 C508 1.539 . S
C511 H525 0.958 . S
C511 H526 0.961 . S
C511 H527 0.960 . S
H512 C496 0.931 . S
H513 C501 0.929 . S
H514 C502 0.960 . S
H515 C502 0.962 . S
H516 C502 0.960 . S
H517 C503 0.961 . S
H518 C503 0.961 . S
H519 C503 0.961 . S
H520 C504 0.931 . S
H521 C509 0.930 . S
H522 C510 0.956 . S
H523 C510 0.961 . S
H524 C510 0.961 . S
H525 C511 0.958 . S
H526 C511 0.961 . S
H527 C511 0.960 . S
C528 C529 1.391 . S
C528 C530 1.394 . S
C528 H544 0.931 . S
C529 C528 1.391 . S
C529 C533 1.376 . S
C530 C528 1.394 . S
C530 C531 1.369 . S
C530 C534 1.531 . S
C531 C530 1.369 . S
C531 C532 1.410 . S
C531 C539 1.503 1_556 S
C532 C531 1.410 . S
C532 C533 1.392 . S
C532 C535 1.511 1_556 S
C533 C529 1.376 . S
C533 C532 1.392 . S
C533 H545 0.929 . S
C534 C530 1.531 . S
C534 H546 0.960 . S
C534 H547 0.962 . S
C534 H548 0.960 . S
C535 C532 1.511 1_554 S
C535 H549 0.961 . S
C535 H550 0.961 . S
C535 H551 0.961 . S
C536 C537 1.370 . S
C536 C538 1.363 1_554 S
C536 H552 0.931 1_554 S
C537 C536 1.370 . S
C537 C541 1.408 . S
C538 C536 1.363 1_556 S
C538 C539 1.370 1_556 S
C538 C542 1.524 . S
C539 C531 1.503 1_554 S
C539 C538 1.370 1_554 S
C539 C540 1.403 . S
C540 C539 1.403 . S
C540 C541 1.404 . S
C540 C543 1.539 . S
C541 C537 1.408 . S
C541 C540 1.404 . S
C541 H553 0.930 . S
C542 C538 1.524 . S
C542 H554 0.956 . S
C542 H555 0.961 . S
C542 H556 0.961 . S
C543 C540 1.539 . S
C543 H557 0.958 . S
C543 H558 0.961 . S
C543 H559 0.960 . S
H544 C528 0.931 . S
H545 C533 0.929 . S
H546 C534 0.960 . S
H547 C534 0.962 . S
H548 C534 0.960 . S
H549 C535 0.961 . S
H550 C535 0.961 . S
H551 C535 0.961 . S
H552 C536 0.931 1_556 S
H553 C541 0.930 . S
H554 C542 0.956 . S
H555 C542 0.961 . S
H556 C542 0.961 . S
H557 C543 0.958 . S
H558 C543 0.961 . S
H559 C543 0.960 . S
C560 C561 1.391 . S
C560 C562 1.394 . S
C560 H576 0.931 . S
C561 C560 1.391 . S
C561 C565 1.376 . S
C562 C560 1.394 . S
C562 C563 1.369 . S
C562 C566 1.531 . S
C563 C562 1.369 . S
C563 C564 1.410 . S
C563 C571 1.503 . S
C564 C563 1.410 . S
C564 C565 1.392 . S
C564 C567 1.511 1_554 S
C565 C561 1.376 . S
C565 C564 1.392 . S
C565 H577 0.929 . S
C566 C562 1.531 . S
C566 H578 0.960 . S
C566 H579 0.962 . S
C566 H580 0.960 . S
C567 C564 1.511 1_556 S
C567 H581 0.961 . S
C567 H582 0.961 . S
C567 H583 0.961 . S
C568 C569 1.370 . S
C568 C570 1.363 . S
C568 H584 0.931 . S
C569 C568 1.370 . S
C569 C573 1.408 . S
C570 C568 1.363 . S
C570 C571 1.370 1_556 S
C570 C574 1.524 . S
C571 C563 1.503 . S
C571 C570 1.370 1_554 S
C571 C572 1.403 . S
C572 C571 1.403 . S
C572 C573 1.404 1_554 S
C572 C575 1.539 . S
C573 C569 1.408 . S
C573 C572 1.404 1_556 S
C573 H585 0.930 . S
C574 C570 1.524 . S
C574 H586 0.956 1_556 S
C574 H587 0.961 . S
C574 H588 0.961 . S
C575 C572 1.539 . S
C575 H589 0.958 . S
C575 H590 0.961 . S
C575 H591 0.960 . S
H576 C560 0.931 . S
H577 C565 0.929 . S
H578 C566 0.960 . S
H579 C566 0.962 . S
H580 C566 0.960 . S
H581 C567 0.961 . S
H582 C567 0.961 . S
H583 C567 0.961 . S
H584 C568 0.931 . S
H585 C573 0.930 . S
H586 C574 0.956 1_554 S
H587 C574 0.961 . S
H588 C574 0.961 . S
H589 C575 0.958 . S
H590 C575 0.961 . S
H591 C575 0.960 . S
C592 C593 1.391 . S
C592 C594 1.394 . S
C592 H608 0.931 . S
C593 C592 1.391 . S
C593 C597 1.376 . S
C594 C592 1.394 . S
C594 C595 1.369 . S
C594 C598 1.531 . S
C595 C594 1.369 . S
C595 C596 1.410 . S
C595 C603 1.503 1_556 S
C596 C595 1.410 . S
C596 C597 1.392 . S
C596 C599 1.511 1_556 S
C597 C593 1.376 . S
C597 C596 1.392 . S
C597 H609 0.929 . S
C598 C594 1.531 . S
C598 H610 0.960 . S
C598 H611 0.962 . S
C598 H612 0.960 . S
C599 C596 1.511 1_554 S
C599 H613 0.961 . S
C599 H614 0.961 . S
C599 H615 0.961 . S
C600 C601 1.370 . S
C600 C602 1.363 1_554 S
C600 H616 0.928 1_554 S
C601 C600 1.370 . S
C601 C605 1.408 . S
C602 C600 1.363 1_556 S
C602 C603 1.370 1_556 S
C602 C606 1.524 . S
C603 C595 1.503 1_554 S
C603 C602 1.370 1_554 S
C603 C604 1.403 . S
C604 C603 1.403 . S
C604 C605 1.404 . S
C604 C607 1.539 . S
C605 C601 1.408 . S
C605 C604 1.404 . S
C605 H617 0.930 . S
C606 C602 1.524 . S
C606 H618 0.956 . S
C606 H619 0.961 . S
C606 H620 0.961 . S
C607 C604 1.539 . S
C607 H621 0.958 . S
C607 H622 0.961 . S
C607 H623 0.960 . S
H608 C592 0.931 . S
H609 C597 0.929 . S
H610 C598 0.960 . S
H611 C598 0.962 . S
H612 C598 0.960 . S
H613 C599 0.961 . S
H614 C599 0.961 . S
H615 C599 0.961 . S
H616 C600 0.928 1_556 S
H617 C605 0.930 . S
H618 C606 0.956 . S
H619 C606 0.961 . S
H620 C606 0.961 . S
H621 C607 0.958 . S
H622 C607 0.961 . S
H623 C607 0.960 . S
C624 C625 1.391 . S
C624 C626 1.394 . S
C624 H640 0.931 . S
C625 C624 1.391 . S
C625 C629 1.376 . S
C626 C624 1.394 . S
C626 C627 1.369 . S
C626 C630 1.531 . S
C627 C626 1.369 . S
C627 C628 1.410 . S
C627 C635 1.503 1_556 S
C628 C627 1.410 . S
C628 C629 1.392 . S
C628 C631 1.511 . S
C629 C625 1.376 . S
C629 C628 1.392 . S
C629 H641 0.929 . S
C630 C626 1.531 . S
C630 H642 0.960 . S
C630 H643 0.962 1_556 S
C630 H644 0.960 . S
C631 C628 1.511 . S
C631 H645 0.961 . S
C631 H646 0.961 1_556 S
C631 H647 0.961 . S
C632 C633 1.370 . S
C632 C634 1.363 . S
C632 H648 0.931 . S
C633 C632 1.370 . S
C633 C637 1.408 . S
C634 C632 1.363 . S
C634 C635 1.370 . S
C634 C638 1.524 . S
C635 C627 1.503 1_554 S
C635 C634 1.370 . S
C635 C636 1.403 . S
C636 C635 1.403 . S
C636 C637 1.404 . S
C636 C639 1.539 1_554 S
C637 C633 1.408 . S
C637 C636 1.404 . S
C637 H649 0.930 . S
C638 C634 1.524 . S
C638 H650 0.956 . S
C638 H651 0.961 . S
C638 H652 0.961 . S
C639 C636 1.539 1_556 S
C639 H653 0.958 . S
C639 H654 0.961 . S
C639 H655 0.960 . S
H640 C624 0.931 . S
H641 C629 0.929 . S
H642 C630 0.960 . S
H643 C630 0.962 1_554 S
H644 C630 0.960 . S
H645 C631 0.961 . S
H646 C631 0.961 1_554 S
H647 C631 0.961 . S
H648 C632 0.931 . S
H649 C637 0.930 . S
H650 C638 0.956 . S
H651 C638 0.961 . S
H652 C638 0.961 . S
H653 C639 0.958 . S
H654 C639 0.961 . S
H655 C639 0.960 . S
C656 C657 1.391 . S
C656 C658 1.394 . S
C656 H672 0.931 . S
C657 C656 1.391 . S
C657 C661 1.376 . S
C658 C656 1.394 . S
C658 C659 1.369 . S
C658 C662 1.531 . S
C659 C658 1.369 . S
C659 C660 1.410 . S
C659 C667 1.503 . S
C660 C659 1.410 . S
C660 C661 1.392 . S
C660 C663 1.511 . S
C661 C657 1.376 . S
C661 C660 1.392 . S
C661 H673 0.929 . S
C662 C658 1.531 . S
C662 H674 0.960 . S
C662 H675 0.962 . S
C662 H676 0.960 . S
C663 C660 1.511 . S
C663 H677 0.961 . S
C663 H678 0.961 . S
C663 H679 0.961 . S
C664 C665 1.370 1_655 S
C664 C666 1.363 . S
C664 H680 0.931 . S
C665 C664 1.370 1_455 S
C665 C669 1.408 . S
C666 C664 1.363 . S
C666 C667 1.370 . S
C666 C670 1.524 . S
C667 C659 1.503 . S
C667 C666 1.370 . S
C667 C668 1.403 . S
C668 C667 1.403 . S
C668 C669 1.404 1_655 S
C668 C671 1.539 . S
C669 C665 1.408 . S
C669 C668 1.404 1_455 S
C669 H681 0.930 . S
C670 C666 1.524 . S
C670 H682 0.956 . S
C670 H683 0.961 . S
C670 H684 0.961 . S
C671 C668 1.539 . S
C671 H685 0.958 . S
C671 H686 0.961 1_655 S
C671 H687 0.960 . S
H672 C656 0.931 . S
H673 C661 0.929 . S
H674 C662 0.960 . S
H675 C662 0.962 . S
H676 C662 0.960 . S
H677 C663 0.961 . S
H678 C663 0.961 . S
H679 C663 0.961 . S
H680 C664 0.931 . S
H681 C669 0.930 . S
H682 C670 0.956 . S
H683 C670 0.961 . S
H684 C670 0.961 . S
H685 C671 0.958 . S
H686 C671 0.961 1_455 S
H687 C671 0.960 . S
C688 C689 1.391 . S
C688 C690 1.394 . S
C688 H704 0.931 . S
C689 C688 1.391 . S
C689 C693 1.376 . S
C690 C688 1.394 . S
C690 C691 1.369 . S
C690 C694 1.531 . S
C691 C690 1.369 . S
C691 C692 1.410 . S
C691 C699 1.503 . S
C692 C691 1.410 . S
C692 C693 1.392 . S
C692 C695 1.511 . S
C693 C689 1.376 . S
C693 C692 1.392 . S
C693 H705 0.929 . S
C694 C690 1.531 . S
C694 H706 0.960 . S
C694 H707 0.962 . S
C694 H708 0.960 . S
C695 C692 1.511 . S
C695 H709 0.961 . S
C695 H710 0.961 . S
C695 H711 0.961 . S
C696 C697 1.370 1_545 S
C696 C698 1.363 . S
C696 H712 0.931 . S
C697 C696 1.370 1_565 S
C697 C701 1.408 . S
C698 C696 1.363 . S
C698 C699 1.370 . S
C698 C702 1.524 . S
C699 C691 1.503 . S
C699 C698 1.370 . S
C699 C700 1.403 . S
C700 C699 1.403 . S
C700 C701 1.404 1_545 S
C700 C703 1.539 . S
C701 C697 1.408 . S
C701 C700 1.404 1_565 S
C701 H713 0.930 . S
C702 C698 1.524 . S
C702 H714 0.956 . S
C702 H715 0.961 . S
C702 H716 0.961 . S
C703 C700 1.539 . S
C703 H717 0.958 . S
C703 H718 0.961 . S
C703 H719 0.960 . S
H704 C688 0.931 . S
H705 C693 0.929 . S
H706 C694 0.960 . S
H707 C694 0.962 . S
H708 C694 0.960 . S
H709 C695 0.961 . S
H710 C695 0.961 . S
H711 C695 0.961 . S
H712 C696 0.931 . S
H713 C701 0.930 . S
H714 C702 0.956 . S
H715 C702 0.961 . S
H716 C702 0.961 . S
H717 C703 0.958 . S
H718 C703 0.961 . S
H719 C703 0.960 . S
C720 C721 1.391 . S
C720 C722 1.394 . S
C720 H736 0.931 . S
C721 C720 1.391 . S
C721 C725 1.376 . S
C722 C720 1.394 . S
C722 C723 1.369 . S
C722 C726 1.531 . S
C723 C722 1.369 . S
C723 C724 1.410 . S
C723 C731 1.503 . S
C724 C723 1.410 . S
C724 C725 1.392 . S
C724 C727 1.511 . S
C725 C721 1.376 . S
C725 C724 1.392 . S
C725 H737 0.929 . S
C726 C722 1.531 . S
C726 H738 0.960 . S
C726 H739 0.962 . S
C726 H740 0.960 . S
C727 C724 1.511 . S
C727 H741 0.961 . S
C727 H742 0.961 . S
C727 H743 0.961 . S
C728 C729 1.370 1_455 S
C728 C730 1.363 . S
C728 H744 0.931 1_455 S
C729 C728 1.370 1_655 S
C729 C733 1.408 1_655 S
C730 C728 1.363 . S
C730 C731 1.370 . S
C730 C734 1.524 . S
C731 C723 1.503 . S
C731 C730 1.370 . S
C731 C732 1.403 . S
C732 C731 1.403 . S
C732 C733 1.404 . S
C732 C735 1.539 . S
C733 C729 1.408 1_455 S
C733 C732 1.404 . S
C733 H745 0.930 . S
C734 C730 1.524 . S
C734 H746 0.956 . S
C734 H747 0.961 . S
C734 H748 0.961 . S
C735 C732 1.539 . S
C735 H749 0.958 . S
C735 H750 0.961 . S
C735 H751 0.960 . S
H736 C720 0.931 . S
H737 C725 0.929 . S
H738 C726 0.960 . S
H739 C726 0.962 . S
H740 C726 0.960 . S
H741 C727 0.961 . S
H742 C727 0.961 . S
H743 C727 0.961 . S
H744 C728 0.931 1_655 S
H745 C733 0.930 . S
H746 C734 0.956 . S
H747 C734 0.961 . S
H748 C734 0.961 . S
H749 C735 0.958 . S
H750 C735 0.961 . S
H751 C735 0.960 . S
C752 C753 1.391 . S
C752 C754 1.394 1_545 S
C752 H768 0.931 . S
C753 C752 1.391 . S
C753 C757 1.376 1_545 S
C754 C752 1.394 1_565 S
C754 C755 1.369 . S
C754 C758 1.531 . S
C755 C754 1.369 . S
C755 C756 1.410 . S
C755 C763 1.503 . S
C756 C755 1.410 . S
C756 C757 1.392 . S
C756 C759 1.511 . S
C757 C753 1.376 1_565 S
C757 C756 1.392 . S
C757 H769 0.929 . S
C758 C754 1.531 . S
C758 H770 0.960 . S
C758 H771 0.962 . S
C758 H772 0.960 . S
C759 C756 1.511 . S
C759 H773 0.961 . S
C759 H774 0.961 . S
C759 H775 0.961 . S
C760 C761 1.370 . S
C760 C762 1.363 . S
C760 H776 0.931 . S
C761 C760 1.370 . S
C761 C765 1.408 . S
C762 C760 1.363 . S
C762 C763 1.370 . S
C762 C766 1.524 . S
C763 C755 1.503 . S
C763 C762 1.370 . S
C763 C764 1.403 . S
C764 C763 1.403 . S
C764 C765 1.404 . S
C764 C767 1.539 . S
C765 C761 1.408 . S
C765 C764 1.404 . S
C765 H777 0.930 . S
C766 C762 1.524 . S
C766 H778 0.956 . S
C766 H779 0.961 . S
C766 H780 0.961 . S
C767 C764 1.539 . S
C767 H781 0.958 . S
C767 H782 0.961 . S
C767 H783 0.960 . S
H768 C752 0.931 . S
H769 C757 0.929 . S
H770 C758 0.960 . S
H771 C758 0.962 . S
H772 C758 0.960 . S
H773 C759 0.961 . S
H774 C759 0.961 . S
H775 C759 0.961 . S
H776 C760 0.931 . S
H777 C765 0.930 . S
H778 C766 0.956 . S
H779 C766 0.961 . S
H780 C766 0.961 . S
H781 C767 0.958 . S
H782 C767 0.961 . S
H783 C767 0.960 . S
C784 C785 1.391 . S
C784 C786 1.394 . S
C784 H800 0.931 . S
C785 C784 1.391 . S
C785 C789 1.376 . S
C786 C784 1.394 . S
C786 C787 1.369 . S
C786 C790 1.531 . S
C787 C786 1.369 . S
C787 C788 1.410 . S
C787 C795 1.503 . S
C788 C787 1.410 . S
C788 C789 1.392 . S
C788 C791 1.511 . S
C789 C785 1.376 . S
C789 C788 1.392 . S
C789 H801 0.929 . S
C790 C786 1.531 . S
C790 H802 0.960 . S
C790 H803 0.962 . S
C790 H804 0.960 . S
C791 C788 1.511 . S
C791 H805 0.961 . S
C791 H806 0.961 . S
C791 H807 0.961 . S
C792 C793 1.370 . S
C792 C794 1.363 . S
C792 H808 0.931 . S
C793 C792 1.370 . S
C793 C797 1.408 . S
C794 C792 1.363 . S
C794 C795 1.370 . S
C794 C798 1.524 . S
C795 C787 1.503 . S
C795 C794 1.370 . S
C795 C796 1.403 . S
C796 C795 1.403 . S
C796 C797 1.404 . S
C796 C799 1.539 . S
C797 C793 1.408 . S
C797 C796 1.404 . S
C797 H809 0.930 . S
C798 C794 1.524 . S
C798 H810 0.956 . S
C798 H811 0.961 . S
C798 H812 0.961 . S
C799 C796 1.539 . S
C799 H813 0.958 . S
C799 H814 0.961 . S
C799 H815 0.960 . S
H800 C784 0.931 . S
H801 C789 0.929 . S
H802 C790 0.960 . S
H803 C790 0.962 . S
H804 C790 0.960 . S
H805 C791 0.961 . S
H806 C791 0.961 . S
H807 C791 0.961 . S
H808 C792 0.931 . S
H809 C797 0.930 . S
H810 C798 0.956 . S
H811 C798 0.961 . S
H812 C798 0.961 . S
H813 C799 0.958 . S
H814 C799 0.961 . S
H815 C799 0.960 . S
C816 C817 1.391 . S
C816 C818 1.394 . S
C816 H832 0.931 . S
C817 C816 1.391 . S
C817 C821 1.376 . S
C818 C816 1.394 . S
C818 C819 1.369 . S
C818 C822 1.531 . S
C819 C818 1.369 . S
C819 C820 1.410 . S
C819 C827 1.503 . S
C820 C819 1.410 . S
C820 C821 1.392 . S
C820 C823 1.511 . S
C821 C817 1.376 . S
C821 C820 1.392 . S
C821 H833 0.929 . S
C822 C818 1.531 . S
C822 H834 0.960 . S
C822 H835 0.962 . S
C822 H836 0.960 . S
C823 C820 1.511 . S
C823 H837 0.961 . S
C823 H838 0.961 . S
C823 H839 0.961 . S
C824 C825 1.370 . S
C824 C826 1.363 . S
C824 H840 0.931 . S
C825 C824 1.370 . S
C825 C829 1.408 . S
C826 C824 1.363 . S
C826 C827 1.370 . S
C826 C830 1.524 . S
C827 C819 1.503 . S
C827 C826 1.370 . S
C827 C828 1.403 . S
C828 C827 1.403 . S
C828 C829 1.404 . S
C828 C831 1.539 . S
C829 C825 1.408 . S
C829 C828 1.404 . S
C829 H841 0.930 . S
C830 C826 1.524 . S
C830 H842 0.956 . S
C830 H843 0.961 . S
C830 H844 0.961 . S
C831 C828 1.539 . S
C831 H845 0.958 . S
C831 H846 0.961 . S
C831 H847 0.960 . S
H832 C816 0.931 . S
H833 C821 0.929 . S
H834 C822 0.960 . S
H835 C822 0.962 . S
H836 C822 0.960 . S
H837 C823 0.961 . S
H838 C823 0.961 . S
H839 C823 0.961 . S
H840 C824 0.931 . S
H841 C829 0.930 . S
H842 C830 0.956 . S
H843 C830 0.961 . S
H844 C830 0.961 . S
H845 C831 0.958 . S
H846 C831 0.961 . S
H847 C831 0.960 . S
C848 C849 1.391 . S
C848 C850 1.394 . S
C848 H864 0.931 . S
C849 C848 1.391 . S
C849 C853 1.376 1_565 S
C850 C848 1.394 . S
C850 C851 1.354 1_565 S
C850 C854 1.531 . S
C851 C850 1.354 1_545 S
C851 C852 1.423 . S
C851 C859 1.505 1_655 S
C852 C851 1.423 . S
C852 C853 1.392 . S
C852 C855 1.511 . S
C853 C849 1.376 1_545 S
C853 C852 1.392 . S
C853 H865 0.929 . S
C854 C850 1.531 . S
C854 H866 0.960 1_655 S
C854 H867 0.962 . S
C854 H868 0.960 . S
C855 C852 1.511 . S
C855 H869 0.961 . S
C855 H870 0.961 . S
C855 H871 0.961 . S
C856 C857 1.370 1_565 S
C856 C858 1.363 . S
C856 H872 0.931 . S
C857 C856 1.370 1_545 S
C857 C861 1.408 . S
C858 C856 1.363 . S
C858 C859 1.370 1_565 S
C858 C862 1.524 . S
C859 C851 1.505 1_455 S
C859 C858 1.370 1_545 S
C859 C860 1.403 . S
C860 C859 1.403 . S
C860 C861 1.404 . S
C860 C863 1.539 . S
C861 C857 1.408 . S
C861 C860 1.404 . S
C861 H873 0.930 . S
C862 C858 1.524 . S
C862 H874 0.956 . S
C862 H875 0.956 1_465 S
C862 H876 0.961 . S
C863 C860 1.539 . S
C863 H877 0.958 . S
C863 H878 0.961 . S
C863 H879 0.960 1_455 S
H864 C848 0.931 . S
H865 C853 0.929 . S
H866 C854 0.960 1_455 S
H867 C854 0.962 . S
H868 C854 0.960 . S
H869 C855 0.961 . S
H870 C855 0.961 . S
H871 C855 0.961 . S
H872 C856 0.931 . S
H873 C861 0.930 . S
H874 C862 0.956 . S
H875 C862 0.956 1_645 S
H876 C862 0.961 . S
H877 C863 0.958 . S
H878 C863 0.961 . S
H879 C863 0.960 1_655 S
C880 C881 1.391 . S
C880 C882 1.394 . S
C880 H896 0.931 . S
C881 C880 1.391 . S
C881 C885 1.376 1_655 S
C882 C880 1.394 . S
C882 C883 1.369 . S
C882 C886 1.531 . S
C883 C882 1.369 . S
C883 C884 1.410 1_655 S
C883 C891 1.502 1_645 S
C884 C883 1.410 1_455 S
C884 C885 1.392 . S
C884 C887 1.511 . S
C885 C881 1.376 1_455 S
C885 C884 1.392 . S
C885 H897 0.929 . S
C886 C882 1.531 . S
C886 H898 0.960 1_545 S
C886 H899 0.962 . S
C886 H900 0.960 . S
C887 C884 1.511 . S
C887 H901 0.961 . S
C887 H902 0.961 . S
C887 H903 0.961 . S
C888 C889 1.370 . S
C888 C890 1.363 . S
C888 H904 0.931 . S
C889 C888 1.370 . S
C889 C893 1.408 . S
C890 C888 1.363 . S
C890 C891 1.373 . S
C890 C894 1.524 . S
C891 C883 1.502 1_465 S
C891 C890 1.373 . S
C891 C892 1.401 1_455 S
C892 C891 1.401 1_655 S
C892 C893 1.404 1_655 S
C892 C895 1.539 . S
C893 C889 1.408 . S
C893 C892 1.404 1_455 S
C893 H905 0.931 . S
C894 C890 1.524 . S
C894 H906 0.956 1_455 S
C894 H907 0.961 1_565 S
C894 H908 0.961 . S
C895 C892 1.539 . S
C895 H909 0.958 . S
C895 H910 0.961 1_655 S
C895 H911 0.960 1_655 S
H896 C880 0.931 . S
H897 C885 0.929 . S
H898 C886 0.960 1_565 S
H899 C886 0.962 . S
H900 C886 0.960 . S
H901 C887 0.961 . S
H902 C887 0.961 . S
H903 C887 0.961 . S
H904 C888 0.931 . S
H905 C893 0.931 . S
H906 C894 0.956 1_655 S
H907 C894 0.961 1_545 S
H908 C894 0.961 . S
H909 C895 0.958 . S
H910 C895 0.961 1_455 S
H911 C895 0.960 1_455 S
C912 C913 1.391 . S
C912 C914 1.394 . S
C912 H928 0.931 . S
C913 C912 1.391 . S
C913 C917 1.376 . S
C914 C912 1.394 . S
C914 C915 1.369 . S
C914 C918 1.531 . S
C915 C914 1.369 . S
C915 C916 1.410 . S
C915 C923 1.503 . S
C916 C915 1.410 . S
C916 C917 1.392 . S
C916 C919 1.511 . S
C917 C913 1.376 . S
C917 C916 1.392 . S
C917 H929 0.929 . S
C918 C914 1.531 . S
C918 H930 0.960 . S
C918 H931 0.962 . S
C918 H932 0.960 . S
C919 C916 1.511 . S
C919 H933 0.961 . S
C919 H934 0.961 . S
C919 H935 0.961 . S
C920 C921 1.370 . S
C920 C922 1.363 . S
C920 H936 0.931 . S
C921 C920 1.370 . S
C921 C925 1.408 . S
C922 C920 1.363 . S
C922 C923 1.370 . S
C922 C926 1.524 . S
C923 C915 1.503 . S
C923 C922 1.370 . S
C923 C924 1.403 . S
C924 C923 1.403 . S
C924 C925 1.404 . S
C924 C927 1.539 . S
C925 C921 1.408 . S
C925 C924 1.404 . S
C925 H937 0.930 . S
C926 C922 1.524 . S
C926 H938 0.956 . S
C926 H939 0.961 . S
C926 H940 0.961 . S
C927 C924 1.539 . S
C927 H941 0.958 . S
C927 H942 0.961 . S
C927 H943 0.960 . S
H928 C912 0.931 . S
H929 C917 0.929 . S
H930 C918 0.960 . S
H931 C918 0.962 . S
H932 C918 0.960 . S
H933 C919 0.961 . S
H934 C919 0.961 . S
H935 C919 0.961 . S
H936 C920 0.931 . S
H937 C925 0.930 . S
H938 C926 0.956 . S
H939 C926 0.961 . S
H940 C926 0.961 . S
H941 C927 0.958 . S
H942 C927 0.961 . S
H943 C927 0.960 . S
C944 C945 1.391 . S
C944 C946 1.394 . S
C944 H960 0.931 . S
C945 C944 1.391 . S
C945 C949 1.376 . S
C946 C944 1.394 . S
C946 C947 1.369 . S
C946 C950 1.531 . S
C947 C946 1.369 . S
C947 C948 1.410 . S
C947 C955 1.503 . S
C948 C947 1.410 . S
C948 C949 1.392 . S
C948 C951 1.511 . S
C949 C945 1.376 . S
C949 C948 1.392 . S
C949 H961 0.929 . S
C950 C946 1.531 . S
C950 H962 0.960 . S
C950 H963 0.962 . S
C950 H964 0.960 . S
C951 C948 1.511 . S
C951 H965 0.961 . S
C951 H966 0.961 . S
C951 H967 0.961 . S
C952 C953 1.370 . S
C952 C954 1.363 . S
C952 H968 0.931 . S
C953 C952 1.370 . S
C953 C957 1.408 . S
C954 C952 1.363 . S
C954 C955 1.370 . S
C954 C958 1.524 . S
C955 C947 1.503 . S
C955 C954 1.370 . S
C955 C956 1.403 . S
C956 C955 1.403 . S
C956 C957 1.404 . S
C956 C959 1.539 . S
C957 C953 1.408 . S
C957 C956 1.404 . S
C957 H969 0.930 . S
C958 C954 1.524 . S
C958 H970 0.956 . S
C958 H971 0.961 . S
C958 H972 0.961 . S
C959 C956 1.539 . S
C959 H973 0.958 . S
C959 H974 0.961 . S
C959 H975 0.960 . S
H960 C944 0.931 . S
H961 C949 0.929 . S
H962 C950 0.960 . S
H963 C950 0.962 . S
H964 C950 0.960 . S
H965 C951 0.961 . S
H966 C951 0.961 . S
H967 C951 0.961 . S
H968 C952 0.931 . S
H969 C957 0.930 . S
H970 C958 0.956 . S
H971 C958 0.961 . S
H972 C958 0.961 . S
H973 C959 0.958 . S
H974 C959 0.961 . S
H975 C959 0.960 . S
C976 C977 1.391 . S
C976 C978 1.394 . S
C976 H992 0.931 . S
C977 C976 1.391 . S
C977 C981 1.376 . S
C978 C976 1.394 . S
C978 C979 1.369 . S
C978 C982 1.531 . S
C979 C978 1.369 . S
C979 C980 1.410 . S
C979 C987 1.503 . S
C980 C979 1.410 . S
C980 C981 1.392 . S
C980 C983 1.511 . S
C981 C977 1.376 . S
C981 C980 1.392 . S
C981 H993 0.929 . S
C982 C978 1.531 . S
C982 H994 0.960 . S
C982 H995 0.962 . S
C982 H996 0.960 . S
C983 C980 1.511 . S
C983 H997 0.961 . S
C983 H998 0.961 . S
C983 H999 0.961 . S
C984 C985 1.370 . S
C984 C986 1.363 . S
C984 H1000 0.931 . S
C985 C984 1.370 . S
C985 C989 1.408 . S
C986 C984 1.363 . S
C986 C987 1.370 . S
C986 C990 1.524 . S
C987 C979 1.503 . S
C987 C986 1.370 . S
C987 C988 1.403 . S
C988 C987 1.403 . S
C988 C989 1.404 . S
C988 C991 1.539 . S
C989 C985 1.408 . S
C989 C988 1.404 . S
C989 H1001 0.930 . S
C990 C986 1.524 . S
C990 H1002 0.956 . S
C990 H1003 0.961 . S
C990 H1004 0.961 . S
C991 C988 1.539 . S
C991 H1005 0.958 . S
C991 H1006 0.961 . S
C991 H1007 0.960 . S
H992 C976 0.931 . S
H993 C981 0.929 . S
H994 C982 0.960 . S
H995 C982 0.962 . S
H996 C982 0.960 . S
H997 C983 0.961 . S
H998 C983 0.961 . S
H999 C983 0.961 . S
H1000 C984 0.931 . S
H1001 C989 0.930 . S
H1002 C990 0.956 . S
H1003 C990 0.961 . S
H1004 C990 0.961 . S
H1005 C991 0.958 . S
H1006 C991 0.961 . S
H1007 C991 0.960 . S
C1008 C1009 1.391 . S
C1008 C1010 1.394 . S
C1008 H1024 0.931 . S
C1009 C1008 1.391 . S
C1009 C1013 1.376 . S
C1010 C1008 1.394 . S
C1010 C1011 1.369 . S
C1010 C1014 1.531 . S
C1011 C1010 1.369 . S
C1011 C1012 1.410 . S
C1011 C1019 1.503 . S
C1012 C1011 1.410 . S
C1012 C1013 1.392 . S
C1012 C1015 1.511 . S
C1013 C1009 1.376 . S
C1013 C1012 1.392 . S
C1013 H1025 0.929 . S
C1014 C1010 1.531 . S
C1014 H1026 0.960 . S
C1014 H1027 0.962 . S
C1014 H1028 0.960 . S
C1015 C1012 1.511 . S
C1015 H1029 0.961 . S
C1015 H1030 0.961 . S
C1015 H1031 0.961 . S
C1016 C1017 1.370 . S
C1016 C1018 1.363 . S
C1016 H1032 0.931 . S
C1017 C1016 1.370 . S
C1017 C1021 1.408 . S
C1018 C1016 1.363 . S
C1018 C1019 1.370 . S
C1018 C1022 1.524 . S
C1019 C1011 1.503 . S
C1019 C1018 1.370 . S
C1019 C1020 1.403 . S
C1020 C1019 1.403 . S
C1020 C1021 1.404 . S
C1020 C1023 1.539 . S
C1021 C1017 1.408 . S
C1021 C1020 1.404 . S
C1021 H1033 0.930 . S
C1022 C1018 1.524 . S
C1022 H1034 0.956 . S
C1022 H1035 0.961 . S
C1022 H1036 0.961 . S
C1023 C1020 1.539 . S
C1023 H1037 0.958 . S
C1023 H1038 0.961 . S
C1023 H1039 0.960 . S
H1024 C1008 0.931 . S
H1025 C1013 0.929 . S
H1026 C1014 0.960 . S
H1027 C1014 0.962 . S
H1028 C1014 0.960 . S
H1029 C1015 0.961 . S
H1030 C1015 0.961 . S
H1031 C1015 0.961 . S
H1032 C1016 0.931 . S
H1033 C1021 0.930 . S
H1034 C1022 0.956 . S
H1035 C1022 0.961 . S
H1036 C1022 0.961 . S
H1037 C1023 0.958 . S
H1038 C1023 0.961 . S
H1039 C1023 0.960 . S
C1040 C1041 1.391 . S
C1040 C1042 1.394 . S
C1040 H1056 0.931 . S
C1041 C1040 1.391 . S
C1041 C1045 1.376 . S
C1042 C1040 1.394 . S
C1042 C1043 1.369 . S
C1042 C1046 1.531 . S
C1043 C1042 1.369 . S
C1043 C1044 1.410 . S
C1043 C1051 1.503 . S
C1044 C1043 1.410 . S
C1044 C1045 1.392 . S
C1044 C1047 1.511 . S
C1045 C1041 1.376 . S
C1045 C1044 1.392 . S
C1045 H1057 0.929 . S
C1046 C1042 1.531 . S
C1046 H1058 0.960 . S
C1046 H1059 0.962 . S
C1046 H1060 0.960 . S
C1047 C1044 1.511 . S
C1047 H1061 0.961 . S
C1047 H1062 0.961 . S
C1047 H1063 0.961 . S
C1048 C1049 1.370 . S
C1048 C1050 1.363 . S
C1048 H1064 0.931 . S
C1049 C1048 1.370 . S
C1049 C1053 1.408 . S
C1050 C1048 1.363 . S
C1050 C1051 1.370 . S
C1050 C1054 1.524 . S
C1051 C1043 1.503 . S
C1051 C1050 1.370 . S
C1051 C1052 1.403 . S
C1052 C1051 1.403 . S
C1052 C1053 1.404 . S
C1052 C1055 1.539 . S
C1053 C1049 1.408 . S
C1053 C1052 1.404 . S
C1053 H1065 0.930 . S
C1054 C1050 1.524 . S
C1054 H1066 0.956 . S
C1054 H1067 0.961 . S
C1054 H1068 0.961 . S
C1055 C1052 1.539 . S
C1055 H1069 0.958 . S
C1055 H1070 0.961 . S
C1055 H1071 0.960 . S
H1056 C1040 0.931 . S
H1057 C1045 0.929 . S
H1058 C1046 0.960 . S
H1059 C1046 0.962 . S
H1060 C1046 0.960 . S
H1061 C1047 0.961 . S
H1062 C1047 0.961 . S
H1063 C1047 0.961 . S
H1064 C1048 0.931 . S
H1065 C1053 0.930 . S
H1066 C1054 0.956 . S
H1067 C1054 0.961 . S
H1068 C1054 0.961 . S
H1069 C1055 0.958 . S
H1070 C1055 0.961 . S
H1071 C1055 0.960 . S
C1072 C1073 1.391 . S
C1072 C1074 1.394 . S
C1072 H1088 0.931 . S
C1073 C1072 1.391 . S
C1073 C1077 1.376 . S
C1074 C1072 1.394 . S
C1074 C1075 1.369 . S
C1074 C1078 1.531 . S
C1075 C1074 1.369 . S
C1075 C1076 1.410 . S
C1075 C1083 1.503 . S
C1076 C1075 1.410 . S
C1076 C1077 1.392 . S
C1076 C1079 1.511 . S
C1077 C1073 1.376 . S
C1077 C1076 1.392 . S
C1077 H1089 0.929 . S
C1078 C1074 1.531 . S
C1078 H1090 0.960 . S
C1078 H1091 0.962 . S
C1078 H1092 0.960 . S
C1079 C1076 1.511 . S
C1079 H1093 0.961 . S
C1079 H1094 0.961 . S
C1079 H1095 0.961 . S
C1080 C1081 1.370 . S
C1080 C1082 1.363 . S
C1080 H1096 0.931 . S
C1081 C1080 1.370 . S
C1081 C1085 1.408 . S
C1082 C1080 1.363 . S
C1082 C1083 1.370 . S
C1082 C1086 1.524 . S
C1083 C1075 1.503 . S
C1083 C1082 1.370 . S
C1083 C1084 1.403 . S
C1084 C1083 1.403 . S
C1084 C1085 1.404 . S
C1084 C1087 1.539 . S
C1085 C1081 1.408 . S
C1085 C1084 1.404 . S
C1085 H1097 0.930 . S
C1086 C1082 1.524 . S
C1086 H1098 0.956 . S
C1086 H1099 0.961 . S
C1086 H1100 0.961 . S
C1087 C1084 1.539 . S
C1087 H1101 0.958 . S
C1087 H1102 0.961 . S
C1087 H1103 0.960 . S
H1088 C1072 0.931 . S
H1089 C1077 0.929 . S
H1090 C1078 0.960 . S
H1091 C1078 0.962 . S
H1092 C1078 0.960 . S
H1093 C1079 0.961 . S
H1094 C1079 0.961 . S
H1095 C1079 0.961 . S
H1096 C1080 0.931 . S
H1097 C1085 0.930 . S
H1098 C1086 0.956 . S
H1099 C1086 0.961 . S
H1100 C1086 0.961 . S
H1101 C1087 0.958 . S
H1102 C1087 0.961 . S
H1103 C1087 0.960 . S
C1104 C1105 1.391 . S
C1104 C1106 1.394 . S
C1104 H1120 0.931 . S
C1105 C1104 1.391 . S
C1105 C1109 1.376 . S
C1106 C1104 1.394 . S
C1106 C1107 1.369 . S
C1106 C1110 1.531 . S
C1107 C1106 1.369 . S
C1107 C1108 1.410 . S
C1107 C1115 1.503 . S
C1108 C1107 1.410 . S
C1108 C1109 1.392 . S
C1108 C1111 1.511 . S
C1109 C1105 1.376 . S
C1109 C1108 1.392 . S
C1109 H1121 0.929 . S
C1110 C1106 1.531 . S
C1110 H1122 0.960 . S
C1110 H1123 0.962 . S
C1110 H1124 0.960 . S
C1111 C1108 1.511 . S
C1111 H1125 0.961 . S
C1111 H1126 0.961 . S
C1111 H1127 0.961 . S
C1112 C1113 1.370 . S
C1112 C1114 1.363 . S
C1112 H1128 0.931 . S
C1113 C1112 1.370 . S
C1113 C1117 1.408 . S
C1114 C1112 1.363 . S
C1114 C1115 1.370 . S
C1114 C1118 1.524 . S
C1115 C1107 1.503 . S
C1115 C1114 1.370 . S
C1115 C1116 1.403 . S
C1116 C1115 1.403 . S
C1116 C1117 1.404 . S
C1116 C1119 1.539 . S
C1117 C1113 1.408 . S
C1117 C1116 1.404 . S
C1117 H1129 0.930 . S
C1118 C1114 1.524 . S
C1118 H1130 0.956 . S
C1118 H1131 0.961 . S
C1118 H1132 0.961 . S
C1119 C1116 1.539 . S
C1119 H1133 0.958 . S
C1119 H1134 0.961 . S
C1119 H1135 0.960 . S
H1120 C1104 0.931 . S
H1121 C1109 0.929 . S
H1122 C1110 0.960 . S
H1123 C1110 0.962 . S
H1124 C1110 0.960 . S
H1125 C1111 0.961 . S
H1126 C1111 0.961 . S
H1127 C1111 0.961 . S
H1128 C1112 0.931 . S
H1129 C1117 0.930 . S
H1130 C1118 0.956 . S
H1131 C1118 0.961 . S
H1132 C1118 0.961 . S
H1133 C1119 0.958 . S
H1134 C1119 0.961 . S
H1135 C1119 0.960 . S
C1136 C1137 1.391 . S
C1136 C1138 1.394 . S
C1136 H1152 0.931 . S
C1137 C1136 1.391 . S
C1137 C1141 1.376 . S
C1138 C1136 1.394 . S
C1138 C1139 1.369 . S
C1138 C1142 1.531 . S
C1139 C1138 1.369 . S
C1139 C1140 1.410 . S
C1139 C1147 1.503 . S
C1140 C1139 1.410 . S
C1140 C1141 1.392 . S
C1140 C1143 1.511 . S
C1141 C1137 1.376 . S
C1141 C1140 1.392 . S
C1141 H1153 0.929 . S
C1142 C1138 1.531 . S
C1142 H1154 0.960 . S
C1142 H1155 0.962 . S
C1142 H1156 0.960 . S
C1143 C1140 1.511 . S
C1143 H1157 0.961 . S
C1143 H1158 0.961 . S
C1143 H1159 0.961 . S
C1144 C1145 1.370 . S
C1144 C1146 1.363 . S
C1144 H1160 0.931 . S
C1145 C1144 1.370 . S
C1145 C1149 1.408 . S
C1146 C1144 1.363 . S
C1146 C1147 1.370 . S
C1146 C1150 1.524 . S
C1147 C1139 1.503 . S
C1147 C1146 1.370 . S
C1147 C1148 1.403 . S
C1148 C1147 1.403 . S
C1148 C1149 1.404 . S
C1148 C1151 1.539 . S
C1149 C1145 1.408 . S
C1149 C1148 1.404 . S
C1149 H1161 0.930 . S
C1150 C1146 1.524 . S
C1150 H1162 0.956 . S
C1150 H1163 0.961 . S
C1150 H1164 0.961 . S
C1151 C1148 1.539 . S
C1151 H1165 0.958 . S
C1151 H1166 0.961 . S
C1151 H1167 0.960 . S
H1152 C1136 0.931 . S
H1153 C1141 0.929 . S
H1154 C1142 0.960 . S
H1155 C1142 0.962 . S
H1156 C1142 0.960 . S
H1157 C1143 0.961 . S
H1158 C1143 0.961 . S
H1159 C1143 0.961 . S
H1160 C1144 0.931 . S
H1161 C1149 0.930 . S
H1162 C1150 0.956 . S
H1163 C1150 0.961 . S
H1164 C1150 0.961 . S
H1165 C1151 0.958 . S
H1166 C1151 0.961 . S
H1167 C1151 0.960 . S
C273 C15 1.586 1_556 S
C281 C173 1.519 . S
C305 C56 1.581 1_554 S
C313 C205 1.520 . S
C337 C241 1.530 . S
C345 C90 1.578 1_556 S
C369 C137 1.482 . S
C377 C124 1.572 1_554 S
C401 C151 1.575 . S
C409 C105 1.517 . S
C433 C192 1.546 . S
C441 C1 1.489 . S
C465 C219 1.543 . S
C473 C37 1.489 . S
C497 C260 1.586 . S
C505 C71 1.516 . S
C529 C119 1.195 . S
C537 C28 1.148 . S
C561 C17 1.193 . S
C569 C40 1.130 . S
C593 C51 1.194 . S
C601 C74 1.150 . S
C625 C108 1.131 . S
C633 C85 1.199 . S
C657 C164 1.099 . S
C665 C187 1.199 . S
C689 C176 1.099 . S
C697 C221 1.198 . S
C721 C232 1.118 . S
C729 C255 1.193 . S
C753 C153 1.199 . S
C761 C244 1.150 . S
C785 C22 0.829 . S
C793 C83 0.809 . S
C817 C49 0.653 . S
C825 C117 0.769 . S
C849 C158 0.821 1_565 S
C857 C226 0.811 1_545 S
C881 C185 0.698 1_655 S
C889 C253 0.735 1_455 S
C913 C210 1.882 . S
C921 C3 1.834 . S
C945 C35 1.838 . S
C953 C266 1.877 . S
C977 C69 1.878 . S
C985 C142 1.893 . S
C1009 C198 1.855 . S
C1017 C103 1.849 . S
C1041 C139 1.868 . S
C1049 C96 1.900 . S
C1073 C130 1.907 . S
C1081 C171 1.838 . S
C1105 C207 1.821 . S
C1113 C6 1.878 . S
C1137 C62 1.857 . S
C1145 C239 1.844 . S
