# Generated by pormake.
# Topology acs-a, (4)-cn, num edge types: 1
# Building blocks:
#     Node 0, Type 0, BuildingBlock: QUQFOY_clean_sbu_1, # of connection points: 4
#     Node 1, Type 0, BuildingBlock: QUQFOY_clean_sbu_1, # of connection points: 4
#     Node 2, Type 0, BuildingBlock: QUQFOY_clean_sbu_1, # of connection points: 4
#     Node 3, Type 0, BuildingBlock: QUQFOY_clean_sbu_1, # of connection points: 4
#     Node 4, Type 0, BuildingBlock: QUQFOY_clean_sbu_1, # of connection points: 4
#     Node 5, Type 0, BuildingBlock: QUQFOY_clean_sbu_1, # of connection points: 4
#     Node 6, Type 0, BuildingBlock: QUQFOY_clean_sbu_1, # of connection points: 4
#     Node 7, Type 0, BuildingBlock: QUQFOY_clean_sbu_1, # of connection points: 4
#     Node 8, Type 0, BuildingBlock: QUQFOY_clean_sbu_1, # of connection points: 4
#     Node 9, Type 0, BuildingBlock: QUQFOY_clean_sbu_1, # of connection points: 4
#     Node 10, Type 0, BuildingBlock: QUQFOY_clean_sbu_1, # of connection points: 4
#     Node 11, Type 0, BuildingBlock: QUQFOY_clean_sbu_1, # of connection points: 4
#     Edge 12, Type (0, 0), BuildingBlock: TEMPAE_clean_linker_10, # of connection points: 2
#     Edge 13, Type (0, 0), BuildingBlock: TEMPAE_clean_linker_10, # of connection points: 2
#     Edge 14, Type (0, 0), BuildingBlock: TEMPAE_clean_linker_10, # of connection points: 2
#     Edge 15, Type (0, 0), BuildingBlock: TEMPAE_clean_linker_10, # of connection points: 2
#     Edge 16, Type (0, 0), BuildingBlock: TEMPAE_clean_linker_10, # of connection points: 2
#     Edge 17, Type (0, 0), BuildingBlock: TEMPAE_clean_linker_10, # of connection points: 2
#     Edge 18, Type (0, 0), BuildingBlock: TEMPAE_clean_linker_10, # of connection points: 2
#     Edge 19, Type (0, 0), BuildingBlock: TEMPAE_clean_linker_10, # of connection points: 2
#     Edge 20, Type (0, 0), BuildingBlock: TEMPAE_clean_linker_10, # of connection points: 2
#     Edge 21, Type (0, 0), BuildingBlock: TEMPAE_clean_linker_10, # of connection points: 2
#     Edge 22, Type (0, 0), BuildingBlock: TEMPAE_clean_linker_10, # of connection points: 2
#     Edge 23, Type (0, 0), BuildingBlock: TEMPAE_clean_linker_10, # of connection points: 2
#     Edge 24, Type (0, 0), BuildingBlock: TEMPAE_clean_linker_10, # of connection points: 2
#     Edge 25, Type (0, 0), BuildingBlock: TEMPAE_clean_linker_10, # of connection points: 2
#     Edge 26, Type (0, 0), BuildingBlock: TEMPAE_clean_linker_10, # of connection points: 2
#     Edge 27, Type (0, 0), BuildingBlock: TEMPAE_clean_linker_10, # of connection points: 2
#     Edge 28, Type (0, 0), BuildingBlock: TEMPAE_clean_linker_10, # of connection points: 2
#     Edge 29, Type (0, 0), BuildingBlock: TEMPAE_clean_linker_10, # of connection points: 2
#     Edge 30, Type (0, 0), BuildingBlock: TEMPAE_clean_linker_10, # of connection points: 2
#     Edge 31, Type (0, 0), BuildingBlock: TEMPAE_clean_linker_10, # of connection points: 2
#     Edge 32, Type (0, 0), BuildingBlock: TEMPAE_clean_linker_10, # of connection points: 2
#     Edge 33, Type (0, 0), BuildingBlock: TEMPAE_clean_linker_10, # of connection points: 2
#     Edge 34, Type (0, 0), BuildingBlock: TEMPAE_clean_linker_10, # of connection points: 2
#     Edge 35, Type (0, 0), BuildingBlock: TEMPAE_clean_linker_10, # of connection points: 2
# Relax obj value: 0.480
# Max RMSD: 0.266
# Mean RMSD: 0.242
data_MOF--net-acs-a--node1-QUQFOY_clean_sbu_1--edge1-TEMPAE_clean_linker_10
_symmetry_space_group_name_H-M    P1
_symmetry_Int_Tables_number       1
_symmetry_cell_setting            triclinic
loop_
_symmetry_equiv_pos_as_xyz
'x, y, z'
_cell_length_a     47.253838
_cell_length_b     47.238107
_cell_length_c     52.299439
_cell_angle_alpha  89.999786
_cell_angle_beta   89.998624
_cell_angle_gamma 114.14966
loop_
_atom_site_label
_atom_site_type_symbol
_atom_site_fract_x
_atom_site_fract_y
_atom_site_fract_z
_atom_type_partial_charge
O0 O 0.57049 0.1597 0.07179 0.0
Cd1 Cd 0.58076 0.12206 0.06555 0.0
Cd2 Cd 0.57394 0.11789 0.11677 0.0
O3 O 0.54764 0.14257 0.1086 0.0
O4 O 0.56969 0.11186 0.02926 0.0
O5 O 0.54667 0.08005 0.06153 0.0
C6 C 0.54856 0.08606 0.0373 0.0
C7 C 0.56037 0.09057 0.15544 0.0
C8 C 0.55367 0.16144 0.09007 0.0
C9 C 0.63828 0.13913 0.09257 0.0
O10 O 0.62177 0.13973 0.11163 0.0
O11 O 0.62559 0.12819 0.07133 0.0
O12 O 0.57163 0.12029 0.15444 0.0
O13 O 0.55643 0.07553 0.13422 0.0
O14 O 0.36838 0.55269 0.58965 0.0
Cd15 Cd 0.41502 0.56282 0.5922 0.0
Cd16 Cd 0.40203 0.55757 0.64117 0.0
O17 O 0.35696 0.53454 0.62876 0.0
O18 O 0.42794 0.55535 0.55778 0.0
O19 O 0.42951 0.52849 0.59215 0.0
C20 C 0.43408 0.53362 0.56789 0.0
C21 C 0.41731 0.54201 0.67928 0.0
C22 C 0.34831 0.53947 0.60685 0.0
C23 C 0.43834 0.6214 0.61981 0.0
O24 O 0.42035 0.60528 0.63734 0.0
O25 O 0.44326 0.60814 0.6003 0.0
O26 O 0.42902 0.53857 0.65781 0.0
O27 O 0.39641 0.55286 0.67867 0.0
O28 O 0.8326 0.38346 0.12032 0.0
Cd29 Cd 0.86503 0.36432 0.12122 0.0
Cd30 Cd 0.8685 0.37798 0.07171 0.0
O31 O 0.84574 0.40486 0.08237 0.0
O32 O 0.90784 0.39119 0.13487 0.0
O33 O 0.86922 0.35894 0.15829 0.0
C34 C 0.89724 0.37965 0.15702 0.0
C35 C 0.90896 0.40146 0.04338 0.0
C36 C 0.83049 0.40127 0.10293 0.0
C37 C 0.83986 0.31083 0.08598 0.0
O38 O 0.84278 0.33088 0.06883 0.0
O39 O 0.85083 0.31948 0.10818 0.0
O40 O 0.88049 0.39176 0.03618 0.0
O41 O 0.9146 0.39692 0.06685 0.0
O42 O 0.4266 0.83165 0.57563 0.0
Cd43 Cd 0.41558 0.86878 0.56909 0.0
Cd44 Cd 0.42162 0.87353 0.62008 0.0
O45 O 0.44748 0.84811 0.61321 0.0
O46 O 0.42698 0.87922 0.53289 0.0
O47 O 0.44897 0.91125 0.56527 0.0
C48 C 0.44744 0.90534 0.54104 0.0
C49 C 0.43574 0.90319 0.65753 0.0
C50 C 0.44243 0.82956 0.59454 0.0
C51 C 0.35749 0.85145 0.59566 0.0
O52 O 0.3738 0.85156 0.61507 0.0
O53 O 0.37041 0.86177 0.57437 0.0
O54 O 0.42432 0.87343 0.65781 0.0
O55 O 0.43948 0.91692 0.63569 0.0
O56 O 0.62645 0.43739 0.08453 0.0
Cd57 Cd 0.57979 0.42737 0.08603 0.0
Cd58 Cd 0.59058 0.43214 0.13536 0.0
O59 O 0.63623 0.45428 0.12411 0.0
O60 O 0.56762 0.43654 0.05186 0.0
O61 O 0.56544 0.46172 0.08713 0.0
C62 C 0.56127 0.45775 0.06273 0.0
C63 C 0.5749 0.44822 0.17306 0.0
C64 C 0.64576 0.44984 0.1024 0.0
C65 C 0.55467 0.36848 0.11328 0.0
O66 O 0.57146 0.38442 0.13147 0.0
O67 O 0.55126 0.38191 0.09326 0.0
O68 O 0.59518 0.43658 0.17294 0.0
O69 O 0.56397 0.45205 0.15135 0.0
O70 O 0.16058 0.60432 0.61981 0.0
Cd71 Cd 0.12883 0.62431 0.62012 0.0
Cd72 Cd 0.12726 0.61173 0.57067 0.0
O73 O 0.14895 0.5839 0.58141 0.0
O74 O 0.12436 0.62977 0.65715 0.0
O75 O 0.08559 0.59823 0.63349 0.0
C76 C 0.09611 0.60963 0.65569 0.0
C77 C 0.08609 0.58958 0.54284 0.0
C78 C 0.16324 0.58681 0.60241 0.0
C79 C 0.15638 0.67844 0.58568 0.0
O80 O 0.15396 0.65867 0.56842 0.0
O81 O 0.14427 0.66945 0.60749 0.0
O82 O 0.11433 0.59827 0.53522 0.0
O83 O 0.08116 0.59429 0.56645 0.0
O84 O 0.82767 0.42698 0.4126 0.0
Cd85 Cd 0.86712 0.41862 0.41104 0.0
Cd86 Cd 0.86131 0.42473 0.36266 0.0
O87 O 0.83552 0.44844 0.37453 0.0
O88 O 0.88751 0.42949 0.4447 0.0
O89 O 0.90778 0.45511 0.40886 0.0
C90 C 0.90959 0.45195 0.43329 0.0
C91 C 0.89071 0.44136 0.3254 0.0
C92 C 0.82079 0.44225 0.39554 0.0
C93 C 0.84643 0.36093 0.38332 0.0
O94 O 0.84072 0.37682 0.36608 0.0
O95 O 0.86175 0.37428 0.40297 0.0
O96 O 0.86091 0.4302 0.32523 0.0
O97 O 0.90444 0.44423 0.34718 0.0
O98 O 0.31543 0.85131 0.91756 0.0
Cd99 Cd 0.3628 0.87419 0.91985 0.0
Cd100 Cd 0.36242 0.86487 0.86996 0.0
O101 O 0.31512 0.84664 0.87569 0.0
O102 O 0.3733 0.90263 0.94931 0.0
O103 O 0.38702 0.91794 0.90921 0.0
C104 C 0.38811 0.92449 0.9333 0.0
C105 C 0.37916 0.89123 0.83124 0.0
C106 C 0.30064 0.84214 0.89678 0.0
C107 C 0.39446 0.83489 0.90395 0.0
O108 O 0.38599 0.83838 0.88152 0.0
O109 O 0.38779 0.84771 0.92294 0.0
O110 O 0.36346 0.8617 0.83228 0.0
O111 O 0.38579 0.90642 0.85249 0.0
O112 O 0.58611 0.40021 0.38073 0.0
Cd113 Cd 0.53816 0.38009 0.38096 0.0
Cd114 Cd 0.54869 0.39654 0.42927 0.0
O115 O 0.5925 0.42487 0.41734 0.0
O116 O 0.52897 0.37197 0.34406 0.0
O117 O 0.51607 0.40504 0.36568 0.0
C118 C 0.51742 0.39234 0.34413 0.0
C119 C 0.52322 0.41783 0.45567 0.0
C120 C 0.60376 0.41948 0.39685 0.0
C121 C 0.52618 0.329 0.41728 0.0
O122 O 0.54024 0.35039 0.43329 0.0
O123 O 0.51845 0.33576 0.39563 0.0
O124 O 0.54588 0.41186 0.46397 0.0
O125 O 0.51459 0.41122 0.43217 0.0
O126 O 0.16249 0.57129 0.91244 0.0
Cd127 Cd 0.12248 0.57854 0.90998 0.0
Cd128 Cd 0.12844 0.57052 0.86214 0.0
O129 O 0.1546 0.54775 0.87525 0.0
O130 O 0.10166 0.56802 0.94348 0.0
O131 O 0.08255 0.54121 0.90788 0.0
C132 C 0.08029 0.54477 0.9322 0.0
C133 C 0.099 0.55199 0.82514 0.0
C134 C 0.16949 0.55527 0.89615 0.0
C135 C 0.14241 0.63496 0.88078 0.0
O136 O 0.14858 0.61857 0.86427 0.0
O137 O 0.1269 0.62223 0.90053 0.0
O138 O 0.12881 0.56339 0.82494 0.0
O139 O 0.08529 0.55 0.84683 0.0
O140 O 0.67341 0.14371 0.41858 0.0
Cd141 Cd 0.62605 0.12001 0.41964 0.0
Cd142 Cd 0.62865 0.1289 0.36959 0.0
O143 O 0.67569 0.14739 0.37664 0.0
O144 O 0.61557 0.09312 0.4501 0.0
O145 O 0.603 0.07552 0.41037 0.0
C146 C 0.60172 0.07025 0.4347 0.0
C147 C 0.61336 0.10197 0.33097 0.0
C148 C 0.68915 0.15258 0.39821 0.0
C149 C 0.59477 0.1588 0.40153 0.0
O150 O 0.60465 0.15554 0.37958 0.0
O151 O 0.60028 0.14584 0.42097 0.0
O152 O 0.62921 0.13148 0.33182 0.0
O153 O 0.60578 0.08711 0.35235 0.0
O154 O 0.40441 0.59572 0.88574 0.0
Cd155 Cd 0.45234 0.61543 0.88639 0.0
Cd156 Cd 0.44142 0.59866 0.93416 0.0
O157 O 0.39732 0.57105 0.92238 0.0
O158 O 0.46218 0.62324 0.84955 0.0
O159 O 0.47427 0.59002 0.87175 0.0
C160 C 0.47337 0.60259 0.85002 0.0
C161 C 0.46791 0.57644 0.95834 0.0
C162 C 0.3864 0.57666 0.9018 0.0
C163 C 0.4645 0.66633 0.92297 0.0
O164 O 0.4504 0.64483 0.93889 0.0
O165 O 0.47213 0.65967 0.90124 0.0
O166 O 0.44565 0.58212 0.968 0.0
O167 O 0.47553 0.5839 0.93475 0.0
C168 C 0.57562 0.06013 0.30322 0.0
C169 C 0.60338 0.08665 0.30598 0.0
C170 C 0.56327 0.04973 0.27876 0.0
C171 C 0.57918 0.06635 0.25687 0.0
C172 C 0.60874 0.09118 0.25969 0.0
C173 C 0.62037 0.10103 0.28419 0.0
C174 C 0.53217 0.02262 0.27661 0.0
C175 C 0.62693 0.10933 0.23694 0.0
C176 C 0.56544 0.05247 0.18619 0.0
C177 C 0.55473 0.07539 0.18062 0.0
C178 C 0.56984 0.04579 0.21174 0.0
C179 C 0.56336 0.06252 0.23172 0.0
C180 C 0.54833 0.08227 0.22603 0.0
C181 C 0.54443 0.08864 0.20048 0.0
C182 C 0.5847 0.02361 0.21711 0.0
C183 C 0.54016 0.09997 0.2467 0.0
H184 H 0.56256 0.04876 0.32007 0.0
H185 H 0.6422 0.12113 0.2863 0.0
H186 H 0.5136 0.03128 0.2768 0.0
H187 H 0.53012 0.00959 0.25856 0.0
H188 H 0.52812 0.00649 0.29302 0.0
H189 H 0.65071 0.12594 0.24228 0.0
H190 H 0.62881 0.09342 0.22212 0.0
H191 H 0.61469 0.12264 0.22829 0.0
H192 H 0.57321 0.04205 0.17077 0.0
H193 H 0.53563 0.10598 0.19606 0.0
H194 H 0.57599 0.0109 0.23529 0.0
H195 H 0.61015 0.03684 0.21896 0.0
H196 H 0.58033 0.00659 0.20133 0.0
H197 H 0.52871 0.08454 0.26301 0.0
H198 H 0.52456 0.11054 0.23953 0.0
H199 H 0.56171 0.11883 0.25397 0.0
C200 C 0.41159 0.53479 0.72613 0.0
C201 C 0.42958 0.53765 0.70423 0.0
C202 C 0.42498 0.53988 0.75048 0.0
C203 C 0.45722 0.54796 0.75297 0.0
C204 C 0.47464 0.54691 0.73122 0.0
C205 C 0.46059 0.54187 0.70693 0.0
C206 C 0.4052 0.54009 0.77314 0.0
C207 C 0.5087 0.55394 0.73314 0.0
C208 C 0.48458 0.6092 0.80363 0.0
C209 C 0.4803 0.591 0.82562 0.0
C210 C 0.48091 0.59595 0.77926 0.0
C211 C 0.47283 0.56369 0.7769 0.0
C212 C 0.47296 0.54622 0.79887 0.0
C213 C 0.47656 0.5601 0.82316 0.0
C214 C 0.48181 0.61578 0.75634 0.0
C215 C 0.46608 0.51218 0.79705 0.0
H216 H 0.38742 0.53084 0.72412 0.0
H217 H 0.47454 0.54376 0.69003 0.0
H218 H 0.40866 0.52649 0.78917 0.0
H219 H 0.41214 0.56428 0.77991 0.0
H220 H 0.38011 0.53035 0.76833 0.0
H221 H 0.51585 0.5421 0.71769 0.0
H222 H 0.5224 0.57928 0.73096 0.0
H223 H 0.51453 0.54679 0.75192 0.0
H224 H 0.48823 0.63331 0.80548 0.0
H225 H 0.47366 0.54599 0.84012 0.0
H226 H 0.45787 0.60933 0.74912 0.0
H227 H 0.49556 0.61183 0.74067 0.0
H228 H 0.49194 0.64091 0.76106 0.0
H229 H 0.44061 0.49846 0.79741 0.0
H230 H 0.47627 0.50464 0.81345 0.0
H231 H 0.47514 0.5068 0.77896 0.0
C232 C 0.93606 0.42305 0.18258 0.0
C233 C 0.91439 0.39211 0.18094 0.0
C234 C 0.9446 0.43768 0.20653 0.0
C235 C 0.93072 0.42096 0.22895 0.0
C236 C 0.9124 0.38862 0.22738 0.0
C237 C 0.90455 0.3746 0.20335 0.0
C238 C 0.96584 0.47169 0.2075 0.0
C239 C 0.89767 0.36952 0.25079 0.0
C240 C 0.93534 0.44302 0.2986 0.0
C241 C 0.9075 0.44677 0.30085 0.0
C242 C 0.94601 0.43854 0.27445 0.0
C243 C 0.9281 0.43745 0.25245 0.0
C244 C 0.90238 0.44545 0.25452 0.0
C245 C 0.89249 0.45011 0.27873 0.0
C246 C 0.97463 0.43201 0.27293 0.0
C247 C 0.88287 0.44532 0.23158 0.0
H248 H 0.94422 0.43659 0.16527 0.0
H249 H 0.88847 0.35042 0.20211 0.0
H250 H 0.95189 0.48563 0.20581 0.0
H251 H 0.97886 0.4779 0.22579 0.0
H252 H 0.98258 0.47817 0.19136 0.0
H253 H 0.88675 0.34427 0.24655 0.0
H254 H 0.91518 0.3736 0.26605 0.0
H255 H 0.87952 0.3765 0.25836 0.0
H256 H 0.94735 0.44093 0.31568 0.0
H257 H 0.87141 0.45386 0.28042 0.0
H258 H 0.9862 0.43863 0.25404 0.0
H259 H 0.96807 0.40685 0.27583 0.0
H260 H 0.99142 0.44467 0.28817 0.0
H261 H 0.89774 0.45919 0.2158 0.0
H262 H 0.86549 0.45482 0.23615 0.0
H263 H 0.87033 0.42118 0.22457 0.0
C264 C 0.41646 0.93408 0.80393 0.0
C265 C 0.38989 0.90626 0.80622 0.0
C266 C 0.42945 0.945 0.77974 0.0
C267 C 0.41546 0.92754 0.75763 0.0
C268 C 0.38707 0.901 0.75988 0.0
C269 C 0.37474 0.89073 0.78411 0.0
C270 C 0.45918 0.97387 0.77821 0.0
C271 C 0.37089 0.88181 0.73686 0.0
C272 C 0.4288 0.94118 0.68713 0.0
C273 C 0.4417 0.91985 0.68202 0.0
C274 C 0.42397 0.94797 0.71254 0.0
C275 C 0.4322 0.93292 0.73281 0.0
C276 C 0.44966 0.91537 0.72751 0.0
C277 C 0.45392 0.90879 0.7021 0.0
C278 C 0.40662 0.96802 0.7175 0.0
C279 C 0.45988 0.89972 0.74853 0.0
H280 H 0.42809 0.94635 0.82101 0.0
H281 H 0.35378 0.8696 0.7858 0.0
H282 H 0.47916 0.96737 0.78 0.0
H283 H 0.46134 0.98613 0.75974 0.0
H284 H 0.46072 0.99007 0.79409 0.0
H285 H 0.34786 0.86333 0.74176 0.0
H286 H 0.36757 0.89676 0.72187 0.0
H287 H 0.38539 0.87062 0.7286 0.0
H288 H 0.41954 0.94991 0.67152 0.0
H289 H 0.46436 0.89266 0.698 0.0
H290 H 0.41463 0.98146 0.73545 0.0
H291 H 0.38153 0.95304 0.71959 0.0
H292 H 0.40944 0.98432 0.70141 0.0
H293 H 0.46993 0.91584 0.76474 0.0
H294 H 0.47733 0.89131 0.74166 0.0
H295 H 0.43947 0.87951 0.7558 0.0
C296 C 0.5059 0.38459 0.29785 0.0
C297 C 0.51053 0.40342 0.31949 0.0
C298 C 0.50975 0.39722 0.27325 0.0
C299 C 0.51841 0.42951 0.27028 0.0
C300 C 0.51859 0.44767 0.29187 0.0
C301 C 0.51476 0.43439 0.31642 0.0
C302 C 0.50847 0.37667 0.25075 0.0
C303 C 0.52608 0.48179 0.28939 0.0
C304 C 0.58018 0.45615 0.21985 0.0
C305 C 0.56252 0.45324 0.19774 0.0
C306 C 0.56657 0.45182 0.24408 0.0
C307 C 0.53443 0.44447 0.24625 0.0
C308 C 0.51741 0.44544 0.22422 0.0
C309 C 0.53169 0.44972 0.20004 0.0
C310 C 0.58595 0.45167 0.26704 0.0
C311 C 0.48349 0.43914 0.22575 0.0
H312 H 0.50188 0.36043 0.30019 0.0
H313 H 0.51793 0.44898 0.33311 0.0
H314 H 0.49502 0.38062 0.23483 0.0
H315 H 0.53234 0.38241 0.24368 0.0
H316 H 0.49779 0.35166 0.25588 0.0
H317 H 0.51616 0.49002 0.30555 0.0
H318 H 0.55162 0.49512 0.28967 0.0
H319 H 0.51719 0.48691 0.27112 0.0
H320 H 0.60424 0.45956 0.21812 0.0
H321 H 0.518 0.44779 0.18297 0.0
H322 H 0.57844 0.42758 0.27425 0.0
H323 H 0.58272 0.46586 0.28271 0.0
H324 H 0.61107 0.46078 0.26241 0.0
H325 H 0.46937 0.41386 0.22373 0.0
H326 H 0.47688 0.45106 0.21003 0.0
H327 H 0.47764 0.44672 0.24434 0.0
C328 C 0.05619 0.56703 0.68121 0.0
C329 C 0.07847 0.5977 0.67949 0.0
C330 C 0.04692 0.55278 0.70523 0.0
C331 C 0.06069 0.56959 0.72765 0.0
C332 C 0.07977 0.60175 0.7259 0.0
C333 C 0.08832 0.6154 0.70181 0.0
C334 C 0.02491 0.51901 0.70631 0.0
C335 C 0.09448 0.62097 0.74927 0.0
C336 C 0.05464 0.54959 0.79768 0.0
C337 C 0.08216 0.54536 0.80059 0.0
C338 C 0.04432 0.55332 0.77318 0.0
C339 C 0.06228 0.55321 0.75152 0.0
C340 C 0.08744 0.54447 0.75437 0.0
C341 C 0.097 0.54059 0.77891 0.0
C342 C 0.01616 0.56052 0.77084 0.0
C343 C 0.10688 0.54317 0.73181 0.0
H344 H 0.04805 0.55337 0.66396 0.0
H345 H 0.10489 0.63939 0.70049 0.0
H346 H 0.0382 0.50446 0.70436 0.0
H347 H 0.01206 0.51309 0.72469 0.0
H348 H 0.00801 0.51302 0.6903 0.0
H349 H 0.1063 0.64611 0.74479 0.0
H350 H 0.07676 0.61776 0.76417 0.0
H351 H 0.11189 0.61331 0.75742 0.0
H352 H 0.04273 0.55273 0.81444 0.0
H353 H 0.11781 0.53645 0.78116 0.0
H354 H 0.00462 0.55316 0.75202 0.0
H355 H 0.02325 0.58589 0.77281 0.0
H356 H -0.00081 0.54891 0.78627 0.0
H357 H 0.09189 0.52909 0.71618 0.0
H358 H 0.12364 0.53312 0.73701 0.0
H359 H 0.12012 0.56696 0.72432 0.0
C360 C 0.51492 0.07714 -0.00088 0.0
C361 C 0.52593 0.06495 0.01932 0.0
C362 C 0.49172 0.05755 0.98273 0.0
C363 C 0.48025 0.02508 0.98618 0.0
C364 C 0.49209 0.01268 0.0061 0.0
C365 C 0.51441 0.03287 0.02281 0.0
C366 C 0.47883 0.07157 0.96231 0.0
C367 C 0.48105 0.9781 0.00987 0.0
C368 C 0.4016 0.96714 0.96487 0.0
C369 C 0.40942 0.95484 0.94302 0.0
C370 C 0.42413 0.99205 0.97795 0.0
C371 C 0.45529 0.00383 0.96948 0.0
C372 C 0.46289 0.99263 0.94653 0.0
C373 C 0.43961 0.96851 0.93328 0.0
C374 C 0.41494 0.00429 0.00177 0.0
C375 C 0.49597 0.00405 0.93725 0.0
H376 H 0.52366 0.10208 0.99672 0.0
H377 H 0.52312 0.0236 0.03842 0.0
H378 H 0.48093 0.06239 0.94322 0.0
H379 H 0.45376 0.06494 0.96582 0.0
H380 H 0.4908 0.09729 0.96182 0.0
H381 H 0.49432 0.97231 0.025 0.0
H382 H 0.45617 0.96788 0.01527 0.0
H383 H 0.48325 0.96695 0.99174 0.0
H384 H 0.37814 0.95647 0.97229 0.0
H385 H 0.44563 0.9586 0.91653 0.0
H386 H 0.42583 0.03003 0.002 0.0
H387 H 0.42326 -0.00389 0.0189 0.0
H388 H 0.38939 -0.00366 0.00332 0.0
H389 H 0.50732 0.02975 0.93732 0.0
H390 H 0.49746 0.99564 0.91767 0.0
H391 H 0.50931 0.99567 0.95042 0.0
C392 C 0.46143 0.52783 0.52898 0.0
C393 C 0.44603 0.51529 0.55189 0.0
C394 C 0.47303 0.51095 0.51338 0.0
C395 C 0.46842 0.4805 0.52059 0.0
C396 C 0.45238 0.46747 0.54349 0.0
C397 C 0.44171 0.48523 0.55909 0.0
C398 C 0.49072 0.52592 0.48944 0.0
C399 C 0.44649 0.43482 0.55145 0.0
C400 C 0.47853 0.4306 0.46753 0.0
C401 C 0.50844 0.43274 0.47261 0.0
C402 C 0.4647 0.44519 0.48354 0.0
C403 C 0.48159 0.46291 0.50461 0.0
C404 C 0.51178 0.46506 0.5098 0.0
C405 C 0.52469 0.44962 0.4939 0.0
C406 C 0.43219 0.4419 0.47779 0.0
C407 C 0.5308 0.48435 0.53173 0.0
H408 H 0.46492 0.55115 0.52346 0.0
H409 H 0.42952 0.47542 0.57669 0.0
H410 H 0.51455 0.52687 0.4904 0.0
H411 H 0.47931 0.51185 0.47244 0.0
H412 H 0.49234 0.54985 0.48663 0.0
H413 H 0.43225 0.42757 0.5691 0.0
H414 H 0.43443 0.41833 0.53588 0.0
H415 H 0.46885 0.433 0.55487 0.0
H416 H 0.46587 0.41735 0.45117 0.0
H417 H 0.54792 0.45148 0.49777 0.0
H418 H 0.43253 0.46484 0.47274 0.0
H419 H 0.41734 0.4335 0.49499 0.0
H420 H 0.42145 0.42559 0.46175 0.0
H421 H 0.53447 0.50893 0.52912 0.0
H422 H 0.5538 0.48331 0.5333 0.0
H423 H 0.5182 0.47631 0.55003 0.0
C424 C 0.03984 0.49139 0.93929 0.0
C425 C 0.05454 0.52237 0.94716 0.0
C426 C 0.01664 0.46948 0.95437 0.0
C427 C 0.00752 0.47913 0.97739 0.0
C428 C 0.02199 0.51053 0.98515 0.0
C429 C 0.04565 0.53171 0.97008 0.0
C430 C 0.00212 0.43602 0.94585 0.0
C431 C 0.0123 0.52182 0.00926 0.0
C432 C 0.92745 0.43309 0.00408 0.0
C433 C 0.93408 0.41905 0.02551 0.0
C434 C 0.95113 0.45221 0.98792 0.0
C435 C 0.98208 0.45677 0.99302 0.0
C436 C 0.9888 0.44159 0.014 0.0
C437 C 0.96468 0.42315 0.03026 0.0
C438 C 0.94318 0.46859 0.96607 0.0
C439 C 0.02152 0.44543 0.01961 0.0
H440 H 0.04704 0.48413 0.9217 0.0
H441 H 0.057 0.55572 0.9761 0.0
H442 H 0.00476 0.42089 0.96105 0.0
H443 H 0.9769 0.42867 0.94267 0.0
H444 H 0.01266 0.43213 0.92794 0.0
H445 H 0.02561 0.54711 0.01234 0.0
H446 H 0.98725 0.51686 0.00833 0.0
H447 H 0.0157 0.50927 0.02609 0.0
H448 H 0.90381 0.43012 0.00044 0.0
H449 H 0.96978 0.41212 0.04674 0.0
H450 H 0.9521 0.46359 0.94778 0.0
H451 H 0.95451 0.49405 0.9691 0.0
H452 H 0.91779 0.46162 0.96418 0.0
H453 H 0.03226 0.44075 0.00216 0.0
H454 H 0.0224 0.42972 0.03511 0.0
H455 H 0.03579 0.46971 0.02543 0.0
C456 C 0.55121 0.02491 0.43595 0.0
C457 C 0.58151 0.03996 0.44521 0.0
C458 C 0.52896 0.00047 0.44972 0.0
C459 C 0.53774 0.99037 0.47268 0.0
C460 C 0.56907 0.00372 0.48076 0.0
C461 C 0.59051 0.02891 0.46718 0.0
C462 C 0.49562 0.9874 0.44087 0.0
C463 C 0.57954 0.9927 0.50459 0.0
C464 C 0.47964 0.95907 0.52653 0.0
C465 C 0.46959 0.9271 0.52313 0.0
C466 C 0.50118 0.97992 0.50967 0.0
C467 C 0.51375 0.96836 0.48968 0.0
C468 C 0.50385 0.93601 0.48638 0.0
C469 C 0.48138 0.9157 0.50292 0.0
C470 C 0.5105 0.0143 0.51329 0.0
C471 C 0.51761 0.92293 0.4659 0.0
H472 H 0.54428 0.0339 0.41912 0.0
H473 H 0.61405 0.04069 0.47423 0.0
H474 H 0.48554 0.96168 0.44099 0.0
H475 H 0.48174 0.9948 0.45428 0.0
H476 H 0.49322 0.99543 0.42135 0.0
H477 H 0.60523 0.002 0.50591 0.0
H478 H 0.57077 0.00039 0.52173 0.0
H479 H 0.56996 0.96698 0.50506 0.0
H480 H 0.47031 0.96772 0.54214 0.0
H481 H 0.47377 0.89085 0.50058 0.0
H482 H 0.50729 0.02487 0.49517 0.0
H483 H 0.53543 0.02577 0.51838 0.0
H484 H 0.49686 0.01931 0.52856 0.0
H485 H 0.51433 0.9313 0.44679 0.0
H486 H 0.50712 0.89715 0.46575 0.0
H487 H 0.54297 0.93118 0.46901 0.0
C488 C 0.51339 0.56396 0.96782 0.0
C489 C 0.48341 0.56094 0.97386 0.0
C490 C 0.52798 0.54896 0.98256 0.0
C491 C 0.51179 0.52991 0.00327 0.0
C492 C 0.48148 0.52678 0.00936 0.0
C493 C 0.46781 0.54267 0.99477 0.0
C494 C 0.56061 0.55335 0.9759 0.0
C495 C 0.46317 0.50604 0.0309 0.0
C496 C 0.53397 0.46503 0.02433 0.0
C497 C 0.54928 0.47665 0.04746 0.0
C498 C 0.52186 0.48227 0.00966 0.0
C499 C 0.52588 0.51216 0.01803 0.0
C500 C 0.54201 0.52435 0.04107 0.0
C501 C 0.55317 0.50621 0.05574 0.0
C502 C 0.5041 0.46817 0.98553 0.0
C503 C 0.54733 0.55643 0.05025 0.0
H504 H 0.52553 0.57828 0.95176 0.0
H505 H 0.44452 0.54012 -0.00065 0.0
H506 H 0.57577 0.56134 0.99298 0.0
H507 H 0.56077 0.5309 0.96991 0.0
H508 H 0.57067 0.57044 0.96024 0.0
H509 H 0.43985 0.50619 0.03313 0.0
H510 H 0.46024 0.48184 0.0273 0.0
H511 H 0.47592 0.51352 0.0492 0.0
H512 H 0.53081 0.44209 0.01797 0.0
H513 H 0.5653 0.51532 0.07351 0.0
H514 H 0.51489 0.48332 0.9689 0.0
H515 H 0.47999 0.46633 0.98715 0.0
H516 H 0.50324 0.44472 0.98161 0.0
H517 H 0.55859 0.57372 0.03499 0.0
H518 H 0.56207 0.56325 0.06766 0.0
H519 H 0.52478 0.55742 0.05462 0.0
C520 C 0.95181 0.50448 0.44003 0.0
C521 C 0.93585 0.47374 0.44815 0.0
C522 C 0.97582 0.52575 0.45488 0.0
C523 C 0.98447 0.51564 0.47789 0.0
C524 C 0.96865 0.48448 0.48594 0.0
C525 C 0.94421 0.46399 0.47111 0.0
C526 C 0.99176 0.55901 0.44608 0.0
C527 C 0.97778 0.47266 0.51004 0.0
C528 C 0.06562 0.5581 0.50374 0.0
C529 C 0.06032 0.57298 0.52523 0.0
C530 C 0.04117 0.53989 0.48781 0.0
C531 C 0.01084 0.53717 0.49319 0.0
C532 C 0.00553 0.55326 0.51421 0.0
C533 C 0.03036 0.5707 0.53025 0.0
C534 C 0.0476 0.52248 0.46592 0.0
C535 C 0.97355 0.55141 0.52011 0.0
H536 H 0.94502 0.51206 0.4224 0.0
H537 H 0.9319 0.44015 0.47732 0.0
H538 H 0.99044 0.57482 0.46128 0.0
H539 H 0.01669 0.56498 0.44252 0.0
H540 H 0.98133 0.56343 0.42832 0.0
H541 H 0.96333 0.44763 0.51339 0.0
H542 H 0.00245 0.47618 0.50888 0.0
H543 H 0.97551 0.48593 0.52682 0.0
H544 H 0.08877 0.55967 0.49989 0.0
H545 H 0.02631 0.58242 0.54677 0.0
H546 H 0.03892 0.52796 0.44771 0.0
H547 H 0.03508 0.49713 0.46913 0.0
H548 H 0.07271 0.52806 0.46377 0.0
H549 H 0.96309 0.55661 0.50271 0.0
H550 H 0.97391 0.56775 0.53551 0.0
H551 H 0.95826 0.52752 0.52621 0.0
C552 C 0.52123 0.18729 0.10827 0.0
C553 C 0.54458 0.18783 0.09144 0.0
C554 C 0.5156 0.21394 0.11222 0.0
C555 C 0.53441 0.24186 0.09965 0.0
C556 C 0.55697 0.24206 0.08173 0.0
C557 C 0.56147 0.21491 0.07761 0.0
C558 C 0.49059 0.21258 0.13075 0.0
C559 C 0.57787 0.27146 0.06817 0.0
C560 C 0.52233 0.31601 0.09521 0.0
C561 C 0.54353 0.33433 0.11361 0.0
C562 C 0.51673 0.28466 0.09198 0.0
C563 C 0.53335 0.27174 0.10705 0.0
C564 C 0.55288 0.28946 0.12696 0.0
C565 C 0.55741 0.32044 0.1302 0.0
C566 C 0.49477 0.26609 0.07125 0.0
C567 C 0.57129 0.27668 0.14332 0.0
H568 H 0.50788 0.16627 0.11881 0.0
H569 H 0.57956 0.21549 0.0646 0.0
H570 H 0.50135 0.22368 0.14903 0.0
H571 H 0.47734 0.22546 0.12316 0.0
H572 H 0.47419 0.1883 0.13485 0.0
H573 H 0.59335 0.26735 0.05405 0.0
H574 H 0.56384 0.28189 0.05806 0.0
H575 H 0.59249 0.28868 0.08239 0.0
H576 H 0.51117 0.3265 0.08256 0.0
H577 H 0.57371 0.33439 0.14455 0.0
H578 H 0.48052 0.24212 0.07787 0.0
H579 H 0.50828 0.26444 0.05441 0.0
H580 H 0.47909 0.27703 0.06505 0.0
H581 H 0.55602 0.25374 0.15128 0.0
H582 H 0.5832 0.29241 0.15941 0.0
H583 H 0.58909 0.27332 0.13137 0.0
C584 C 0.29282 0.51907 0.62091 0.0
C585 C 0.31589 0.53559 0.6031 0.0
C586 C 0.26403 0.5212 0.62081 0.0
C587 C 0.25863 0.5409 0.6029 0.0
C588 C 0.28096 0.55579 0.58375 0.0
C589 C 0.30915 0.55259 0.58388 0.0
C590 C 0.24028 0.504 0.6409 0.0
C591 C 0.27628 0.57727 0.56443 0.0
C592 C 0.1817 0.54587 0.59089 0.0
C593 C 0.18515 0.57201 0.60548 0.0
C594 C 0.20448 0.53397 0.59123 0.0
C595 C 0.23169 0.5492 0.60589 0.0
C596 C 0.23461 0.57476 0.62151 0.0
C597 C 0.21107 0.58559 0.62137 0.0
C598 C 0.20005 0.50602 0.57503 0.0
C599 C 0.26348 0.59195 0.63715 0.0
H600 H 0.29775 0.5056 0.63566 0.0
H601 H 0.3268 0.56541 0.57 0.0
H602 H 0.24024 0.52046 0.65601 0.0
H603 H 0.21665 0.49364 0.6325 0.0
H604 H 0.24533 0.48532 0.64999 0.0
H605 H 0.29483 0.58526 0.5497 0.0
H606 H 0.25359 0.56561 0.55469 0.0
H607 H 0.27609 0.59794 0.5744 0.0
H608 H 0.16146 0.53508 0.5788 0.0
H609 H 0.21384 0.60584 0.63262 0.0
H610 H 0.20667 0.48945 0.58586 0.0
H611 H 0.21529 0.51345 0.55798 0.0
H612 H 0.1757 0.49379 0.56841 0.0
H613 H 0.26838 0.57562 0.64975 0.0
H614 H 0.26147 0.61042 0.64918 0.0
H615 H 0.28368 0.60279 0.6242 0.0
C616 C 0.81768 0.25487 0.09876 0.0
C617 C 0.81815 0.27818 0.08191 0.0
C618 C 0.79217 0.22596 0.09942 0.0
C619 C 0.76626 0.22092 0.0836 0.0
C620 C 0.76805 0.24322 0.06484 0.0
C621 C 0.79427 0.27139 0.06394 0.0
C622 C 0.79192 0.20193 0.11852 0.0
C623 C 0.7409 0.23892 0.04764 0.0
C624 C 0.69158 0.14887 0.07697 0.0
C625 C 0.67231 0.15586 0.09389 0.0
C626 C 0.72331 0.1683 0.07514 0.0
C627 C 0.7355 0.19593 0.08974 0.0
C628 C 0.71648 0.20197 0.10798 0.0
C629 C 0.68525 0.18152 0.11015 0.0
C630 C 0.74316 0.16009 0.05652 0.0
C631 C 0.72832 0.23141 0.1237 0.0
H632 H 0.8364 0.2598 0.11238 0.0
H633 H 0.79458 0.2892 0.05073 0.0
H634 H 0.77927 0.20346 0.13596 0.0
H635 H 0.77989 0.17816 0.11061 0.0
H636 H 0.81583 0.20561 0.12421 0.0
H637 H 0.74687 0.25738 0.03288 0.0
H638 H 0.73255 0.21614 0.03787 0.0
H639 H 0.72144 0.23929 0.05932 0.0
H640 H 0.68169 0.12874 0.06462 0.0
H641 H 0.67043 0.187 0.12325 0.0
H642 H 0.76741 0.16818 0.06342 0.0
H643 H 0.74352 0.17142 0.03787 0.0
H644 H 0.73371 0.13465 0.05323 0.0
H645 H 0.71079 0.23207 0.13757 0.0
H646 H 0.73483 0.25181 0.11085 0.0
H647 H 0.74939 0.23379 0.13445 0.0
C648 C 0.43537 0.77638 0.58176 0.0
C649 C 0.45129 0.80305 0.5964 0.0
C650 C 0.43925 0.74898 0.5863 0.0
C651 C 0.46018 0.74848 0.60549 0.0
C652 C 0.47816 0.776 0.61893 0.0
C653 C 0.47317 0.80293 0.61449 0.0
C654 C 0.41929 0.72002 0.57174 0.0
C655 C 0.50147 0.77663 0.63889 0.0
C656 C 0.43414 0.66924 0.63554 0.0
C657 C 0.44932 0.65554 0.62011 0.0
C658 C 0.43905 0.7003 0.6321 0.0
C659 C 0.46025 0.71827 0.61321 0.0
C660 C 0.47794 0.70546 0.59938 0.0
C661 C 0.47197 0.67404 0.60274 0.0
C662 C 0.41946 0.71296 0.64711 0.0
C663 C 0.5016 0.72427 0.57978 0.0
H664 H 0.41841 0.7763 0.56777 0.0
H665 H 0.48578 0.82361 0.62567 0.0
H666 H 0.43391 0.70951 0.56268 0.0
H667 H 0.40329 0.70262 0.58518 0.0
H668 H 0.40524 0.7247 0.55663 0.0
H669 H 0.51761 0.80072 0.64386 0.0
H670 H 0.48913 0.76503 0.65653 0.0
H671 H 0.51519 0.76382 0.63215 0.0
H672 H 0.41669 0.65514 0.64907 0.0
H673 H 0.48411 0.66367 0.59101 0.0
H674 H 0.40288 0.71682 0.63402 0.0
H675 H 0.43418 0.73565 0.65578 0.0
H676 H 0.40605 0.69694 0.66255 0.0
H677 H 0.48954 0.72644 0.56218 0.0
H678 H 0.51754 0.71324 0.57459 0.0
H679 H 0.51549 0.74806 0.58698 0.0
C680 C 0.70045 0.46902 0.11831 0.0
C681 C 0.67819 0.45333 0.09965 0.0
C682 C 0.729 0.46642 0.11907 0.0
C683 C 0.73499 0.4471 0.10114 0.0
C684 C 0.71354 0.43303 0.08122 0.0
C685 C 0.68558 0.43667 0.08052 0.0
C686 C 0.75182 0.4827 0.14003 0.0
C687 C 0.71889 0.412 0.06184 0.0
C688 C 0.81241 0.44241 0.09125 0.0
C689 C 0.8083 0.41582 0.10546 0.0
C690 C 0.7896 0.45426 0.09102 0.0
C691 C 0.7617 0.43855 0.10471 0.0
C692 C 0.75802 0.41246 0.11995 0.0
C693 C 0.78158 0.40166 0.1204 0.0
C694 C 0.79478 0.48272 0.07525 0.0
C695 C 0.72841 0.39477 0.13455 0.0
H696 H 0.69502 0.48219 0.13301 0.0
H697 H 0.66855 0.42447 0.06602 0.0
H698 H 0.75109 0.46561 0.15484 0.0
H699 H 0.77582 0.49329 0.13239 0.0
H700 H 0.74645 0.50108 0.14932 0.0
H701 H 0.70103 0.40463 0.04653 0.0
H702 H 0.74203 0.42377 0.05285 0.0
H703 H 0.71841 0.39094 0.07161 0.0
H704 H 0.83325 0.45364 0.0799 0.0
H705 H 0.7783 0.38105 0.13134 0.0
H706 H 0.78796 0.49908 0.08618 0.0
H707 H 0.7801 0.4759 0.05786 0.0
H708 H 0.81937 0.49499 0.06921 0.0
H709 H 0.7229 0.41068 0.14719 0.0
H710 H 0.72983 0.37589 0.14643 0.0
H711 H 0.70885 0.38439 0.12091 0.0
C712 C 0.1782 0.73422 0.59897 0.0
C713 C 0.17855 0.71106 0.58234 0.0
C714 C 0.20364 0.76315 0.60028 0.0
C715 C 0.23029 0.76836 0.58536 0.0
C716 C 0.22952 0.7461 0.56691 0.0
C717 C 0.20339 0.71792 0.56533 0.0
C718 C 0.20286 0.78705 0.61907 0.0
C719 C 0.25753 0.75052 0.55074 0.0
C720 C 0.30439 0.84101 0.57924 0.0
C721 C 0.32347 0.83457 0.59674 0.0
C722 C 0.2728 0.82123 0.57707 0.0
C723 C 0.26058 0.79381 0.59193 0.0
C724 C 0.27932 0.78841 0.6108 0.0
C725 C 0.31041 0.8092 0.61327 0.0
C726 C 0.25314 0.82873 0.55777 0.0
C727 C 0.26743 0.75924 0.62686 0.0
H728 H 0.15879 0.7292 0.61188 0.0
H729 H 0.20375 0.70018 0.55234 0.0
H730 H 0.21444 0.7853 0.63708 0.0
H731 H 0.21537 0.81089 0.61144 0.0
H732 H 0.17866 0.78337 0.62375 0.0
H733 H 0.25242 0.73196 0.53617 0.0
H734 H 0.26615 0.77321 0.54081 0.0
H735 H 0.27651 0.75044 0.56322 0.0
H736 H 0.31436 0.86092 0.56668 0.0
H737 H 0.32509 0.80416 0.62683 0.0
H738 H 0.22896 0.82132 0.5647 0.0
H739 H 0.25243 0.81623 0.53968 0.0
H740 H 0.26285 0.85397 0.55348 0.0
H741 H 0.2458 0.75654 0.63686 0.0
H742 H 0.28459 0.75923 0.64138 0.0
H743 H 0.26185 0.7387 0.61431 0.0
C744 C 0.78724 0.46888 0.38155 0.0
C745 C 0.79287 0.44867 0.39843 0.0
C746 C 0.75837 0.47079 0.38114 0.0
C747 C 0.73448 0.45149 0.39757 0.0
C748 C 0.7407 0.43253 0.41573 0.0
C749 C 0.76995 0.43163 0.41613 0.0
C750 C 0.7529 0.49203 0.3621 0.0
C751 C 0.71575 0.41136 0.43345 0.0
C752 C 0.65745 0.45619 0.40928 0.0
C753 C 0.63777 0.43213 0.39355 0.0
C754 C 0.68958 0.46456 0.4094 0.0
C755 C 0.70206 0.44795 0.39387 0.0
C756 C 0.68254 0.42502 0.37678 0.0
C757 C 0.65067 0.41765 0.37662 0.0
C758 C 0.70984 0.48985 0.42723 0.0
C759 C 0.69489 0.40658 0.36002 0.0
H760 H 0.80502 0.48238 0.36801 0.0
H761 H 0.77413 0.41598 0.42925 0.0
H762 H 0.73885 0.47813 0.34593 0.0
H763 H 0.73975 0.50427 0.371 0.0
H764 H 0.77501 0.50952 0.3543 0.0
H765 H 0.72492 0.39968 0.44759 0.0
H766 H 0.70474 0.42459 0.44394 0.0
H767 H 0.69736 0.39326 0.42206 0.0
H768 H 0.64764 0.46776 0.42218 0.0
H769 H 0.63563 0.39908 0.36436 0.0
H770 H 0.73165 0.50517 0.41756 0.0
H771 H 0.71626 0.47929 0.44397 0.0
H772 H 0.69783 0.50421 0.4343 0.0
H773 H 0.71511 0.42234 0.34881 0.0
H774 H 0.6771 0.39112 0.34655 0.0
H775 H 0.70293 0.39207 0.3722 0.0
C776 C 0.24898 0.81634 0.87571 0.0
C777 C 0.26776 0.8202 0.89732 0.0
C778 C 0.22145 0.78955 0.87277 0.0
C779 C 0.21357 0.76571 0.89128 0.0
C780 C 0.23065 0.77111 0.91438 0.0
C781 C 0.25729 0.79866 0.91731 0.0
C782 C 0.20248 0.78555 0.84878 0.0
C783 C 0.22312 0.74631 0.93464 0.0
C784 C 0.1447 0.68758 0.89123 0.0
C785 C 0.15764 0.66907 0.87929 0.0
C786 C 0.1616 0.71983 0.89333 0.0
C787 C 0.19257 0.7334 0.88439 0.0
C788 C 0.20509 0.7149 0.87122 0.0
C789 C 0.1872 0.68308 0.86839 0.0
C790 C 0.1467 0.73883 0.90626 0.0
C791 C 0.23824 0.72819 0.86178 0.0
H792 H 0.25677 0.83328 0.8604 0.0
H793 H 0.2717 0.80164 0.9341 0.0
H794 H 0.20887 0.7716 0.8347 0.0
H795 H 0.17735 0.77305 0.85294 0.0
H796 H 0.20669 0.80828 0.83987 0.0
H797 H 0.23708 0.75506 0.95228 0.0
H798 H 0.19822 0.73711 0.93979 0.0
H799 H 0.2278 0.72669 0.92706 0.0
H800 H 0.12166 0.67679 0.89944 0.0
H801 H 0.19729 0.66879 0.85923 0.0
H802 H 0.1562 0.76305 0.89904 0.0
H803 H 0.15105 0.73949 0.92713 0.0
H804 H 0.12118 0.72829 0.90335 0.0
H805 H 0.24219 0.74752 0.84827 0.0
H806 H 0.24432 0.71058 0.85194 0.0
H807 H 0.25434 0.7377 0.87813 0.0
C808 C 0.58584 0.20532 0.38922 0.0
C809 C 0.5781 0.17901 0.40464 0.0
C810 C 0.57233 0.22639 0.39335 0.0
C811 C 0.54976 0.22039 0.41284 0.0
C812 C 0.54065 0.19297 0.42759 0.0
C813 C 0.55541 0.17285 0.42365 0.0
C814 C 0.58323 0.25572 0.37755 0.0
C815 C 0.51586 0.18522 0.44785 0.0
C816 C 0.54706 0.29415 0.43794 0.0
C817 C 0.52549 0.29772 0.42126 0.0
C818 C 0.55374 0.2679 0.43663 0.0
C819 C 0.53773 0.24421 0.41877 0.0
C820 C 0.51339 0.24603 0.40404 0.0
C821 C 0.50784 0.27303 0.40518 0.0
C822 C 0.58019 0.26716 0.45243 0.0
C823 C 0.4949 0.22063 0.38559 0.0
H824 H 0.60349 0.21015 0.37461 0.0
H825 H 0.54917 0.15227 0.4354 0.0
H826 H 0.56334 0.25737 0.36744 0.0
H827 H 0.59338 0.27627 0.39024 0.0
H828 H 0.60093 0.2568 0.36314 0.0
H829 H 0.5085 0.16116 0.45512 0.0
H830 H 0.52469 0.20145 0.46418 0.0
H831 H 0.49526 0.188 0.44015 0.0
H832 H 0.56081 0.31308 0.45046 0.0
H833 H 0.49087 0.27548 0.39245 0.0
H834 H 0.60013 0.27055 0.43972 0.0
H835 H 0.57342 0.24435 0.46193 0.0
H836 H 0.588 0.28558 0.46729 0.0
H837 H 0.5089 0.22236 0.36816 0.0
H838 H 0.47306 0.22237 0.37976 0.0
H839 H 0.48914 0.19743 0.39416 0.0
C840 C 0.20338 0.52839 0.88372 0.0
C841 C 0.19753 0.54921 0.89975 0.0
C842 C 0.23225 0.52647 0.88406 0.0
C843 C 0.2559 0.54633 0.90039 0.0
C844 C 0.24948 0.56603 0.91767 0.0
C845 C 0.22025 0.56697 0.91733 0.0
C846 C 0.23796 0.50452 0.86591 0.0
C847 C 0.27418 0.58781 0.93525 0.0
C848 C 0.33229 0.54111 0.91427 0.0
C849 C 0.35245 0.56445 0.89821 0.0
C850 C 0.30023 0.53319 0.91391 0.0
C851 C 0.28831 0.54949 0.8975 0.0
C852 C 0.30831 0.57169 0.88015 0.0
C853 C 0.34009 0.57866 0.88054 0.0
C854 C 0.27946 0.50871 0.9321 0.0
C855 C 0.29654 0.58977 0.86246 0.0
H856 H 0.18578 0.51434 0.87027 0.0
H857 H 0.2159 0.5831 0.92979 0.0
H858 H 0.25259 0.51785 0.84977 0.0
H859 H 0.25065 0.49235 0.87565 0.0
H860 H 0.21599 0.48696 0.85796 0.0
H861 H 0.26485 0.60007 0.94871 0.0
H862 H 0.28494 0.57491 0.94651 0.0
H863 H 0.29281 0.60541 0.9237 0.0
H864 H 0.34165 0.52977 0.92777 0.0
H865 H 0.35549 0.59666 0.86802 0.0
H866 H 0.25784 0.49309 0.92235 0.0
H867 H 0.27271 0.52001 0.94816 0.0
H868 H 0.29116 0.49454 0.94017 0.0
H869 H 0.27642 0.57378 0.85127 0.0
H870 H 0.31467 0.6046 0.84892 0.0
H871 H 0.28852 0.60486 0.87391 0.0
C872 C 0.74157 0.17915 0.37852 0.0
C873 C 0.72186 0.17493 0.39955 0.0
C874 C 0.76891 0.20624 0.37613 0.0
C875 C 0.7757 0.22999 0.3946 0.0
C876 C 0.75772 0.22426 0.41722 0.0
C877 C 0.73125 0.19645 0.41962 0.0
C878 C 0.78885 0.21065 0.35267 0.0
C879 C 0.7641 0.24895 0.43744 0.0
C880 C 0.84398 0.30863 0.3952 0.0
C881 C 0.83118 0.32678 0.3825 0.0
C882 C 0.82724 0.27638 0.39752 0.0
C883 C 0.79655 0.26245 0.38798 0.0
C884 C 0.78413 0.28061 0.3742 0.0
C885 C 0.80189 0.31244 0.3712 0.0
C886 C 0.842 0.25775 0.4112 0.0
C887 C 0.75126 0.26693 0.36412 0.0
H888 H 0.73464 0.16223 0.36317 0.0
H889 H 0.71615 0.1932 0.43599 0.0
H890 H 0.78284 0.22462 0.33835 0.0
H891 H 0.81377 0.22332 0.35749 0.0
H892 H 0.78521 0.18807 0.34376 0.0
H893 H 0.74966 0.2399 0.4548 0.0
H894 H 0.78885 0.25865 0.44311 0.0
H895 H 0.75914 0.26827 0.42956 0.0
H896 H 0.86681 0.31969 0.40374 0.0
H897 H 0.79191 0.32647 0.36148 0.0
H898 H 0.83305 0.23352 0.40407 0.0
H899 H 0.83684 0.25709 0.43193 0.0
H900 H 0.86762 0.26857 0.40893 0.0
H901 H 0.74795 0.24762 0.35076 0.0
H902 H 0.7452 0.28433 0.35393 0.0
H903 H 0.73473 0.25729 0.38018 0.0
C904 C 0.44317 0.70089 0.94347 0.0
C905 C 0.46509 0.69756 0.92706 0.0
C906 C 0.43617 0.72693 0.94192 0.0
C907 C 0.45223 0.75067 0.92412 0.0
C908 C 0.47699 0.74917 0.90977 0.0
C909 C 0.48285 0.72236 0.91111 0.0
C910 C 0.40927 0.72731 0.95733 0.0
C911 C 0.49556 0.77465 0.89141 0.0
C912 C 0.40393 0.78832 0.89295 0.0
C913 C 0.41105 0.81478 0.90807 0.0
C914 C 0.41761 0.76756 0.89779 0.0
C915 C 0.43977 0.77403 0.91768 0.0
C916 C 0.44818 0.80155 0.93221 0.0
C917 C 0.43322 0.82135 0.92756 0.0
C918 C 0.40743 0.73809 0.88222 0.0
C919 C 0.47254 0.80981 0.95287 0.0
H920 H 0.42934 0.68186 0.95588 0.0
H921 H 0.50009 0.72009 0.89859 0.0
H922 H 0.41546 0.75019 0.96655 0.0
H923 H 0.38939 0.72329 0.94436 0.0
H924 H 0.40163 0.7091 0.97236 0.0
H925 H 0.51771 0.77329 0.88602 0.0
H926 H 0.48188 0.77261 0.87374 0.0
H927 H 0.50077 0.79781 0.89984 0.0
H928 H 0.38668 0.7832 0.87796 0.0
H929 H 0.43896 0.84205 0.93907 0.0
H930 H 0.39747 0.71763 0.89503 0.0
H931 H 0.42766 0.73679 0.8724 0.0
H932 H 0.3898 0.7365 0.86759 0.0
H933 H 0.46366 0.79352 0.96916 0.0
H934 H 0.47924 0.83381 0.96009 0.0
H935 H 0.49357 0.80756 0.94556 0.0
loop_
_geom_bond_atom_site_label_1
_geom_bond_atom_site_label_2
_geom_bond_distance
_geom_bond_site_symmetry_2
_ccdc_geom_bond_type
O0 Cd1 2.223 . S
O0 C8 1.315 . S
Cd1 O0 2.223 . S
Cd1 O4 2.297 . S
Cd1 O5 2.439 . S
Cd1 O11 2.240 . S
Cd2 O3 2.240 . S
Cd2 O10 2.223 . S
Cd2 O12 2.297 . S
Cd2 O13 2.439 . S
O3 Cd2 2.240 . S
O3 C8 1.279 . S
O4 Cd1 2.297 . S
O4 C6 1.247 . S
O5 Cd1 2.439 . S
O5 C6 1.208 . S
C6 O4 1.247 . S
C6 O5 1.208 . S
C7 O12 1.247 . S
C7 O13 1.208 . S
C8 O0 1.315 . S
C8 O3 1.279 . S
C9 O10 1.315 . S
C9 O11 1.279 . S
O10 Cd2 2.223 . S
O10 C9 1.315 . S
O11 Cd1 2.240 . S
O11 C9 1.279 . S
O12 Cd2 2.297 . S
O12 C7 1.247 . S
O13 Cd2 2.439 . S
O13 C7 1.208 . S
O14 Cd15 2.223 . S
O14 C22 1.315 . S
Cd15 O14 2.223 . S
Cd15 O18 2.297 . S
Cd15 O19 2.439 . S
Cd15 O25 2.240 . S
Cd16 O17 2.240 . S
Cd16 O24 2.223 . S
Cd16 O26 2.297 . S
Cd16 O27 2.439 . S
O17 Cd16 2.240 . S
O17 C22 1.279 . S
O18 Cd15 2.297 . S
O18 C20 1.247 . S
O19 Cd15 2.439 . S
O19 C20 1.208 . S
C20 O18 1.247 . S
C20 O19 1.208 . S
C21 O26 1.247 . S
C21 O27 1.208 . S
C22 O14 1.315 . S
C22 O17 1.279 . S
C23 O24 1.315 . S
C23 O25 1.279 . S
O24 Cd16 2.223 . S
O24 C23 1.315 . S
O25 Cd15 2.240 . S
O25 C23 1.279 . S
O26 Cd16 2.297 . S
O26 C21 1.247 . S
O27 Cd16 2.439 . S
O27 C21 1.208 . S
O28 Cd29 2.223 . S
O28 C36 1.315 . S
Cd29 O28 2.223 . S
Cd29 O32 2.297 . S
Cd29 O33 2.439 . S
Cd29 O39 2.240 . S
Cd30 O31 2.240 . S
Cd30 O38 2.223 . S
Cd30 O40 2.297 . S
Cd30 O41 2.439 . S
O31 Cd30 2.240 . S
O31 C36 1.279 . S
O32 Cd29 2.297 . S
O32 C34 1.247 . S
O33 Cd29 2.439 . S
O33 C34 1.208 . S
C34 O32 1.247 . S
C34 O33 1.208 . S
C35 O40 1.247 . S
C35 O41 1.208 . S
C36 O28 1.315 . S
C36 O31 1.279 . S
C37 O38 1.315 . S
C37 O39 1.279 . S
O38 Cd30 2.223 . S
O38 C37 1.315 . S
O39 Cd29 2.240 . S
O39 C37 1.279 . S
O40 Cd30 2.297 . S
O40 C35 1.247 . S
O41 Cd30 2.439 . S
O41 C35 1.208 . S
O42 Cd43 2.223 . S
O42 C50 1.315 . S
Cd43 O42 2.223 . S
Cd43 O46 2.297 . S
Cd43 O47 2.439 . S
Cd43 O53 2.240 . S
Cd44 O45 2.240 . S
Cd44 O52 2.223 . S
Cd44 O54 2.297 . S
Cd44 O55 2.439 . S
O45 Cd44 2.240 . S
O45 C50 1.279 . S
O46 Cd43 2.297 . S
O46 C48 1.247 . S
O47 Cd43 2.439 . S
O47 C48 1.208 . S
C48 O46 1.247 . S
C48 O47 1.208 . S
C49 O54 1.247 . S
C49 O55 1.208 . S
C50 O42 1.315 . S
C50 O45 1.279 . S
C51 O52 1.315 . S
C51 O53 1.279 . S
O52 Cd44 2.223 . S
O52 C51 1.315 . S
O53 Cd43 2.240 . S
O53 C51 1.279 . S
O54 Cd44 2.297 . S
O54 C49 1.247 . S
O55 Cd44 2.439 . S
O55 C49 1.208 . S
O56 Cd57 2.223 . S
O56 C64 1.315 . S
Cd57 O56 2.223 . S
Cd57 O60 2.297 . S
Cd57 O61 2.439 . S
Cd57 O67 2.240 . S
Cd58 O59 2.240 . S
Cd58 O66 2.223 . S
Cd58 O68 2.297 . S
Cd58 O69 2.439 . S
O59 Cd58 2.240 . S
O59 C64 1.279 . S
O60 Cd57 2.297 . S
O60 C62 1.247 . S
O61 Cd57 2.439 . S
O61 C62 1.208 . S
C62 O60 1.247 . S
C62 O61 1.208 . S
C63 O68 1.247 . S
C63 O69 1.208 . S
C64 O56 1.315 . S
C64 O59 1.279 . S
C65 O66 1.315 . S
C65 O67 1.279 . S
O66 Cd58 2.223 . S
O66 C65 1.315 . S
O67 Cd57 2.240 . S
O67 C65 1.279 . S
O68 Cd58 2.297 . S
O68 C63 1.247 . S
O69 Cd58 2.439 . S
O69 C63 1.208 . S
O70 Cd71 2.223 . S
O70 C78 1.315 . S
Cd71 O70 2.223 . S
Cd71 O74 2.297 . S
Cd71 O75 2.439 . S
Cd71 O81 2.240 . S
Cd72 O73 2.240 . S
Cd72 O80 2.223 . S
Cd72 O82 2.297 . S
Cd72 O83 2.439 . S
O73 Cd72 2.240 . S
O73 C78 1.279 . S
O74 Cd71 2.297 . S
O74 C76 1.247 . S
O75 Cd71 2.439 . S
O75 C76 1.208 . S
C76 O74 1.247 . S
C76 O75 1.208 . S
C77 O82 1.247 . S
C77 O83 1.208 . S
C78 O70 1.315 . S
C78 O73 1.279 . S
C79 O80 1.315 . S
C79 O81 1.279 . S
O80 Cd72 2.223 . S
O80 C79 1.315 . S
O81 Cd71 2.240 . S
O81 C79 1.279 . S
O82 Cd72 2.297 . S
O82 C77 1.247 . S
O83 Cd72 2.439 . S
O83 C77 1.208 . S
O84 Cd85 2.223 . S
O84 C92 1.315 . S
Cd85 O84 2.223 . S
Cd85 O88 2.297 . S
Cd85 O89 2.439 . S
Cd85 O95 2.240 . S
Cd86 O87 2.240 . S
Cd86 O94 2.223 . S
Cd86 O96 2.297 . S
Cd86 O97 2.439 . S
O87 Cd86 2.240 . S
O87 C92 1.279 . S
O88 Cd85 2.297 . S
O88 C90 1.247 . S
O89 Cd85 2.439 . S
O89 C90 1.208 . S
C90 O88 1.247 . S
C90 O89 1.208 . S
C91 O96 1.247 . S
C91 O97 1.208 . S
C92 O84 1.315 . S
C92 O87 1.279 . S
C93 O94 1.315 . S
C93 O95 1.279 . S
O94 Cd86 2.223 . S
O94 C93 1.315 . S
O95 Cd85 2.240 . S
O95 C93 1.279 . S
O96 Cd86 2.297 . S
O96 C91 1.247 . S
O97 Cd86 2.439 . S
O97 C91 1.208 . S
O98 Cd99 2.223 . S
O98 C106 1.315 . S
Cd99 O98 2.223 . S
Cd99 O102 2.297 . S
Cd99 O103 2.439 . S
Cd99 O109 2.240 . S
Cd100 O101 2.240 . S
Cd100 O108 2.223 . S
Cd100 O110 2.297 . S
Cd100 O111 2.439 . S
O101 Cd100 2.240 . S
O101 C106 1.279 . S
O102 Cd99 2.297 . S
O102 C104 1.247 . S
O103 Cd99 2.439 . S
O103 C104 1.208 . S
C104 O102 1.247 . S
C104 O103 1.208 . S
C105 O110 1.247 . S
C105 O111 1.208 . S
C106 O98 1.315 . S
C106 O101 1.279 . S
C107 O108 1.315 . S
C107 O109 1.279 . S
O108 Cd100 2.223 . S
O108 C107 1.315 . S
O109 Cd99 2.240 . S
O109 C107 1.279 . S
O110 Cd100 2.297 . S
O110 C105 1.247 . S
O111 Cd100 2.439 . S
O111 C105 1.208 . S
O112 Cd113 2.223 . S
O112 C120 1.315 . S
Cd113 O112 2.223 . S
Cd113 O116 2.297 . S
Cd113 O117 2.439 . S
Cd113 O123 2.240 . S
Cd114 O115 2.240 . S
Cd114 O122 2.223 . S
Cd114 O124 2.297 . S
Cd114 O125 2.439 . S
O115 Cd114 2.240 . S
O115 C120 1.279 . S
O116 Cd113 2.297 . S
O116 C118 1.247 . S
O117 Cd113 2.439 . S
O117 C118 1.208 . S
C118 O116 1.247 . S
C118 O117 1.208 . S
C119 O124 1.247 . S
C119 O125 1.208 . S
C120 O112 1.315 . S
C120 O115 1.279 . S
C121 O122 1.315 . S
C121 O123 1.279 . S
O122 Cd114 2.223 . S
O122 C121 1.315 . S
O123 Cd113 2.240 . S
O123 C121 1.279 . S
O124 Cd114 2.297 . S
O124 C119 1.247 . S
O125 Cd114 2.439 . S
O125 C119 1.208 . S
O126 Cd127 2.223 . S
O126 C134 1.315 . S
Cd127 O126 2.223 . S
Cd127 O130 2.297 . S
Cd127 O131 2.439 . S
Cd127 O137 2.240 . S
Cd128 O129 2.240 . S
Cd128 O136 2.223 . S
Cd128 O138 2.297 . S
Cd128 O139 2.439 . S
O129 Cd128 2.240 . S
O129 C134 1.279 . S
O130 Cd127 2.297 . S
O130 C132 1.247 . S
O131 Cd127 2.439 . S
O131 C132 1.208 . S
C132 O130 1.247 . S
C132 O131 1.208 . S
C133 O138 1.247 . S
C133 O139 1.208 . S
C134 O126 1.315 . S
C134 O129 1.279 . S
C135 O136 1.315 . S
C135 O137 1.279 . S
O136 Cd128 2.223 . S
O136 C135 1.315 . S
O137 Cd127 2.240 . S
O137 C135 1.279 . S
O138 Cd128 2.297 . S
O138 C133 1.247 . S
O139 Cd128 2.439 . S
O139 C133 1.208 . S
O140 Cd141 2.223 . S
O140 C148 1.315 . S
Cd141 O140 2.223 . S
Cd141 O144 2.297 . S
Cd141 O145 2.439 . S
Cd141 O151 2.240 . S
Cd142 O143 2.240 . S
Cd142 O150 2.223 . S
Cd142 O152 2.297 . S
Cd142 O153 2.439 . S
O143 Cd142 2.240 . S
O143 C148 1.279 . S
O144 Cd141 2.297 . S
O144 C146 1.247 . S
O145 Cd141 2.439 . S
O145 C146 1.208 . S
C146 O144 1.247 . S
C146 O145 1.208 . S
C147 O152 1.247 . S
C147 O153 1.208 . S
C148 O140 1.315 . S
C148 O143 1.279 . S
C149 O150 1.315 . S
C149 O151 1.279 . S
O150 Cd142 2.223 . S
O150 C149 1.315 . S
O151 Cd141 2.240 . S
O151 C149 1.279 . S
O152 Cd142 2.297 . S
O152 C147 1.247 . S
O153 Cd142 2.439 . S
O153 C147 1.208 . S
O154 Cd155 2.223 . S
O154 C162 1.315 . S
Cd155 O154 2.223 . S
Cd155 O158 2.297 . S
Cd155 O159 2.439 . S
Cd155 O165 2.240 . S
Cd156 O157 2.240 . S
Cd156 O164 2.223 . S
Cd156 O166 2.297 . S
Cd156 O167 2.439 . S
O157 Cd156 2.240 . S
O157 C162 1.279 . S
O158 Cd155 2.297 . S
O158 C160 1.247 . S
O159 Cd155 2.439 . S
O159 C160 1.208 . S
C160 O158 1.247 . S
C160 O159 1.208 . S
C161 O166 1.247 . S
C161 O167 1.208 . S
C162 O154 1.315 . S
C162 O157 1.279 . S
C163 O164 1.315 . S
C163 O165 1.279 . S
O164 Cd156 2.223 . S
O164 C163 1.315 . S
O165 Cd155 2.240 . S
O165 C163 1.279 . S
O166 Cd156 2.297 . S
O166 C161 1.247 . S
O167 Cd156 2.439 . S
O167 C161 1.208 . S
C168 C169 1.391 . S
C168 C170 1.394 . S
C168 H184 0.931 . S
C169 C168 1.391 . S
C169 C173 1.376 . S
C170 C168 1.394 . S
C170 C171 1.369 . S
C170 C174 1.531 . S
C171 C170 1.369 . S
C171 C172 1.410 . S
C171 C179 1.503 . S
C172 C171 1.410 . S
C172 C173 1.392 . S
C172 C175 1.511 . S
C173 C169 1.376 . S
C173 C172 1.392 . S
C173 H185 0.929 . S
C174 C170 1.531 . S
C174 H186 0.960 . S
C174 H187 0.962 . S
C174 H188 0.960 . S
C175 C172 1.511 . S
C175 H189 0.961 . S
C175 H190 0.961 . S
C175 H191 0.961 . S
C176 C177 1.370 . S
C176 C178 1.363 . S
C176 H192 0.931 . S
C177 C176 1.370 . S
C177 C181 1.408 . S
C178 C176 1.363 . S
C178 C179 1.370 . S
C178 C182 1.524 . S
C179 C171 1.503 . S
C179 C178 1.370 . S
C179 C180 1.403 . S
C180 C179 1.403 . S
C180 C181 1.404 . S
C180 C183 1.539 . S
C181 C177 1.408 . S
C181 C180 1.404 . S
C181 H193 0.930 . S
C182 C178 1.524 . S
C182 H194 0.956 . S
C182 H195 0.961 . S
C182 H196 0.961 . S
C183 C180 1.539 . S
C183 H197 0.958 . S
C183 H198 0.961 . S
C183 H199 0.960 . S
H184 C168 0.931 . S
H185 C173 0.929 . S
H186 C174 0.960 . S
H187 C174 0.962 . S
H188 C174 0.960 . S
H189 C175 0.961 . S
H190 C175 0.961 . S
H191 C175 0.961 . S
H192 C176 0.931 . S
H193 C181 0.930 . S
H194 C182 0.956 . S
H195 C182 0.961 . S
H196 C182 0.961 . S
H197 C183 0.958 . S
H198 C183 0.961 . S
H199 C183 0.960 . S
C200 C201 1.391 . S
C200 C202 1.394 . S
C200 H216 0.931 . S
C201 C200 1.391 . S
C201 C205 1.376 . S
C202 C200 1.394 . S
C202 C203 1.369 . S
C202 C206 1.531 . S
C203 C202 1.369 . S
C203 C204 1.410 . S
C203 C211 1.503 . S
C204 C203 1.410 . S
C204 C205 1.392 . S
C204 C207 1.511 . S
C205 C201 1.376 . S
C205 C204 1.392 . S
C205 H217 0.929 . S
C206 C202 1.531 . S
C206 H218 0.960 . S
C206 H219 0.962 . S
C206 H220 0.960 . S
C207 C204 1.511 . S
C207 H221 0.961 . S
C207 H222 0.961 . S
C207 H223 0.961 . S
C208 C209 1.370 . S
C208 C210 1.363 . S
C208 H224 0.931 . S
C209 C208 1.370 . S
C209 C213 1.408 . S
C210 C208 1.363 . S
C210 C211 1.370 . S
C210 C214 1.524 . S
C211 C203 1.503 . S
C211 C210 1.370 . S
C211 C212 1.403 . S
C212 C211 1.403 . S
C212 C213 1.404 . S
C212 C215 1.539 . S
C213 C209 1.408 . S
C213 C212 1.404 . S
C213 H225 0.930 . S
C214 C210 1.524 . S
C214 H226 0.956 . S
C214 H227 0.961 . S
C214 H228 0.961 . S
C215 C212 1.539 . S
C215 H229 0.958 . S
C215 H230 0.961 . S
C215 H231 0.960 . S
H216 C200 0.931 . S
H217 C205 0.929 . S
H218 C206 0.960 . S
H219 C206 0.962 . S
H220 C206 0.960 . S
H221 C207 0.961 . S
H222 C207 0.961 . S
H223 C207 0.961 . S
H224 C208 0.931 . S
H225 C213 0.930 . S
H226 C214 0.956 . S
H227 C214 0.961 . S
H228 C214 0.961 . S
H229 C215 0.958 . S
H230 C215 0.961 . S
H231 C215 0.960 . S
C232 C233 1.391 . S
C232 C234 1.394 . S
C232 H248 0.931 . S
C233 C232 1.391 . S
C233 C237 1.376 . S
C234 C232 1.394 . S
C234 C235 1.369 . S
C234 C238 1.531 . S
C235 C234 1.369 . S
C235 C236 1.410 . S
C235 C243 1.503 . S
C236 C235 1.410 . S
C236 C237 1.392 . S
C236 C239 1.511 . S
C237 C233 1.376 . S
C237 C236 1.392 . S
C237 H249 0.929 . S
C238 C234 1.531 . S
C238 H250 0.960 . S
C238 H251 0.962 . S
C238 H252 0.960 . S
C239 C236 1.511 . S
C239 H253 0.961 . S
C239 H254 0.961 . S
C239 H255 0.961 . S
C240 C241 1.370 . S
C240 C242 1.363 . S
C240 H256 0.931 . S
C241 C240 1.370 . S
C241 C245 1.408 . S
C242 C240 1.363 . S
C242 C243 1.370 . S
C242 C246 1.524 . S
C243 C235 1.503 . S
C243 C242 1.370 . S
C243 C244 1.403 . S
C244 C243 1.403 . S
C244 C245 1.404 . S
C244 C247 1.539 . S
C245 C241 1.408 . S
C245 C244 1.404 . S
C245 H257 0.930 . S
C246 C242 1.524 . S
C246 H258 0.956 . S
C246 H259 0.961 . S
C246 H260 0.961 . S
C247 C244 1.539 . S
C247 H261 0.958 . S
C247 H262 0.961 . S
C247 H263 0.960 . S
H248 C232 0.931 . S
H249 C237 0.929 . S
H250 C238 0.960 . S
H251 C238 0.962 . S
H252 C238 0.960 . S
H253 C239 0.961 . S
H254 C239 0.961 . S
H255 C239 0.961 . S
H256 C240 0.931 . S
H257 C245 0.930 . S
H258 C246 0.956 . S
H259 C246 0.961 . S
H260 C246 0.961 . S
H261 C247 0.958 . S
H262 C247 0.961 . S
H263 C247 0.960 . S
C264 C265 1.391 . S
C264 C266 1.394 . S
C264 H280 0.931 . S
C265 C264 1.391 . S
C265 C269 1.376 . S
C266 C264 1.394 . S
C266 C267 1.369 . S
C266 C270 1.531 . S
C267 C266 1.369 . S
C267 C268 1.410 . S
C267 C275 1.503 . S
C268 C267 1.410 . S
C268 C269 1.392 . S
C268 C271 1.511 . S
C269 C265 1.376 . S
C269 C268 1.392 . S
C269 H281 0.929 . S
C270 C266 1.531 . S
C270 H282 0.960 . S
C270 H283 0.962 . S
C270 H284 0.960 . S
C271 C268 1.511 . S
C271 H285 0.961 . S
C271 H286 0.961 . S
C271 H287 0.961 . S
C272 C273 1.370 . S
C272 C274 1.363 . S
C272 H288 0.931 . S
C273 C272 1.370 . S
C273 C277 1.408 . S
C274 C272 1.363 . S
C274 C275 1.370 . S
C274 C278 1.524 . S
C275 C267 1.503 . S
C275 C274 1.370 . S
C275 C276 1.403 . S
C276 C275 1.403 . S
C276 C277 1.404 . S
C276 C279 1.539 . S
C277 C273 1.408 . S
C277 C276 1.404 . S
C277 H289 0.930 . S
C278 C274 1.524 . S
C278 H290 0.956 . S
C278 H291 0.961 . S
C278 H292 0.961 . S
C279 C276 1.539 . S
C279 H293 0.958 . S
C279 H294 0.961 . S
C279 H295 0.960 . S
H280 C264 0.931 . S
H281 C269 0.929 . S
H282 C270 0.960 . S
H283 C270 0.962 . S
H284 C270 0.960 . S
H285 C271 0.961 . S
H286 C271 0.961 . S
H287 C271 0.961 . S
H288 C272 0.931 . S
H289 C277 0.930 . S
H290 C278 0.956 . S
H291 C278 0.961 . S
H292 C278 0.961 . S
H293 C279 0.958 . S
H294 C279 0.961 . S
H295 C279 0.960 . S
C296 C297 1.391 . S
C296 C298 1.394 . S
C296 H312 0.931 . S
C297 C296 1.391 . S
C297 C301 1.376 . S
C298 C296 1.394 . S
C298 C299 1.369 . S
C298 C302 1.531 . S
C299 C298 1.369 . S
C299 C300 1.410 . S
C299 C307 1.503 . S
C300 C299 1.410 . S
C300 C301 1.392 . S
C300 C303 1.511 . S
C301 C297 1.376 . S
C301 C300 1.392 . S
C301 H313 0.929 . S
C302 C298 1.531 . S
C302 H314 0.960 . S
C302 H315 0.962 . S
C302 H316 0.960 . S
C303 C300 1.511 . S
C303 H317 0.961 . S
C303 H318 0.961 . S
C303 H319 0.961 . S
C304 C305 1.370 . S
C304 C306 1.363 . S
C304 H320 0.931 . S
C305 C304 1.370 . S
C305 C309 1.408 . S
C306 C304 1.363 . S
C306 C307 1.370 . S
C306 C310 1.524 . S
C307 C299 1.503 . S
C307 C306 1.370 . S
C307 C308 1.403 . S
C308 C307 1.403 . S
C308 C309 1.404 . S
C308 C311 1.539 . S
C309 C305 1.408 . S
C309 C308 1.404 . S
C309 H321 0.930 . S
C310 C306 1.524 . S
C310 H322 0.956 . S
C310 H323 0.961 . S
C310 H324 0.961 . S
C311 C308 1.539 . S
C311 H325 0.958 . S
C311 H326 0.961 . S
C311 H327 0.960 . S
H312 C296 0.931 . S
H313 C301 0.929 . S
H314 C302 0.960 . S
H315 C302 0.962 . S
H316 C302 0.960 . S
H317 C303 0.961 . S
H318 C303 0.961 . S
H319 C303 0.961 . S
H320 C304 0.931 . S
H321 C309 0.930 . S
H322 C310 0.956 . S
H323 C310 0.961 . S
H324 C310 0.961 . S
H325 C311 0.958 . S
H326 C311 0.961 . S
H327 C311 0.960 . S
C328 C329 1.391 . S
C328 C330 1.394 . S
C328 H344 0.931 . S
C329 C328 1.391 . S
C329 C333 1.376 . S
C330 C328 1.394 . S
C330 C331 1.369 . S
C330 C334 1.531 . S
C331 C330 1.369 . S
C331 C332 1.410 . S
C331 C339 1.503 . S
C332 C331 1.410 . S
C332 C333 1.392 . S
C332 C335 1.511 . S
C333 C329 1.376 . S
C333 C332 1.392 . S
C333 H345 0.929 . S
C334 C330 1.531 . S
C334 H346 0.960 . S
C334 H347 0.962 . S
C334 H348 0.960 . S
C335 C332 1.511 . S
C335 H349 0.961 . S
C335 H350 0.961 . S
C335 H351 0.961 . S
C336 C337 1.370 . S
C336 C338 1.363 . S
C336 H352 0.931 . S
C337 C336 1.370 . S
C337 C341 1.408 . S
C338 C336 1.363 . S
C338 C339 1.370 . S
C338 C342 1.524 . S
C339 C331 1.503 . S
C339 C338 1.370 . S
C339 C340 1.403 . S
C340 C339 1.403 . S
C340 C341 1.404 . S
C340 C343 1.539 . S
C341 C337 1.408 . S
C341 C340 1.404 . S
C341 H353 0.930 . S
C342 C338 1.524 . S
C342 H354 0.956 . S
C342 H355 0.961 . S
C342 H356 0.961 . S
C343 C340 1.539 . S
C343 H357 0.958 . S
C343 H358 0.961 . S
C343 H359 0.960 . S
H344 C328 0.931 . S
H345 C333 0.929 . S
H346 C334 0.960 . S
H347 C334 0.962 . S
H348 C334 0.960 . S
H349 C335 0.961 . S
H350 C335 0.961 . S
H351 C335 0.961 . S
H352 C336 0.931 . S
H353 C341 0.930 . S
H354 C342 0.956 . S
H355 C342 0.961 . S
H356 C342 0.961 . S
H357 C343 0.958 . S
H358 C343 0.961 . S
H359 C343 0.960 . S
C360 C361 1.391 . S
C360 C362 1.394 . S
C360 H376 0.931 . S
C361 C360 1.391 . S
C361 C365 1.376 . S
C362 C360 1.394 . S
C362 C363 1.369 . S
C362 C366 1.531 1_554 S
C363 C362 1.369 . S
C363 C364 1.410 . S
C363 C371 1.503 1_544 S
C364 C363 1.410 . S
C364 C365 1.392 . S
C364 C367 1.511 1_545 S
C365 C361 1.376 . S
C365 C364 1.392 . S
C365 H377 0.929 . S
C366 C362 1.531 1_556 S
C366 H378 0.960 . S
C366 H379 0.962 . S
C366 H380 0.960 . S
C367 C364 1.511 1_565 S
C367 H381 0.961 . S
C367 H382 0.961 . S
C367 H383 0.961 . S
C368 C369 1.370 . S
C368 C370 1.363 . S
C368 H384 0.931 . S
C369 C368 1.370 . S
C369 C373 1.408 . S
C370 C368 1.363 . S
C370 C371 1.370 . S
C370 C374 1.524 1_556 S
C371 C363 1.503 1_566 S
C371 C370 1.370 . S
C371 C372 1.403 . S
C372 C371 1.403 . S
C372 C373 1.404 . S
C372 C375 1.539 1_565 S
C373 C369 1.408 . S
C373 C372 1.404 . S
C373 H385 0.930 . S
C374 C370 1.524 1_554 S
C374 H386 0.959 . S
C374 H387 0.961 . S
C374 H388 0.961 . S
C375 C372 1.539 1_545 S
C375 H389 0.958 . S
C375 H390 0.961 1_545 S
C375 H391 0.960 . S
H376 C360 0.931 . S
H377 C365 0.929 . S
H378 C366 0.960 . S
H379 C366 0.962 . S
H380 C366 0.960 . S
H381 C367 0.961 . S
H382 C367 0.961 . S
H383 C367 0.961 . S
H384 C368 0.931 . S
H385 C373 0.930 . S
H386 C374 0.959 . S
H387 C374 0.961 . S
H388 C374 0.961 . S
H389 C375 0.958 . S
H390 C375 0.961 1_565 S
H391 C375 0.960 . S
C392 C393 1.391 . S
C392 C394 1.394 . S
C392 H408 0.931 . S
C393 C392 1.391 . S
C393 C397 1.376 . S
C394 C392 1.394 . S
C394 C395 1.369 . S
C394 C398 1.531 . S
C395 C394 1.369 . S
C395 C396 1.410 . S
C395 C403 1.503 . S
C396 C395 1.410 . S
C396 C397 1.392 . S
C396 C399 1.511 . S
C397 C393 1.376 . S
C397 C396 1.392 . S
C397 H409 0.929 . S
C398 C394 1.531 . S
C398 H410 0.960 . S
C398 H411 0.962 . S
C398 H412 0.960 . S
C399 C396 1.511 . S
C399 H413 0.961 . S
C399 H414 0.961 . S
C399 H415 0.961 . S
C400 C401 1.370 . S
C400 C402 1.363 . S
C400 H416 0.931 . S
C401 C400 1.370 . S
C401 C405 1.408 . S
C402 C400 1.363 . S
C402 C403 1.370 . S
C402 C406 1.524 . S
C403 C395 1.503 . S
C403 C402 1.370 . S
C403 C404 1.403 . S
C404 C403 1.403 . S
C404 C405 1.404 . S
C404 C407 1.539 . S
C405 C401 1.408 . S
C405 C404 1.404 . S
C405 H417 0.930 . S
C406 C402 1.524 . S
C406 H418 0.956 . S
C406 H419 0.961 . S
C406 H420 0.961 . S
C407 C404 1.539 . S
C407 H421 0.958 . S
C407 H422 0.961 . S
C407 H423 0.960 . S
H408 C392 0.931 . S
H409 C397 0.929 . S
H410 C398 0.960 . S
H411 C398 0.962 . S
H412 C398 0.960 . S
H413 C399 0.961 . S
H414 C399 0.961 . S
H415 C399 0.961 . S
H416 C400 0.931 . S
H417 C405 0.930 . S
H418 C406 0.956 . S
H419 C406 0.961 . S
H420 C406 0.961 . S
H421 C407 0.958 . S
H422 C407 0.961 . S
H423 C407 0.960 . S
C424 C425 1.391 . S
C424 C426 1.394 . S
C424 H440 0.931 . S
C425 C424 1.391 . S
C425 C429 1.376 . S
C426 C424 1.394 . S
C426 C427 1.369 . S
C426 C430 1.530 . S
C427 C426 1.369 . S
C427 C428 1.410 1_556 S
C427 C435 1.503 1_456 S
C428 C427 1.410 1_554 S
C428 C429 1.392 1_554 S
C428 C431 1.511 . S
C429 C425 1.376 . S
C429 C428 1.392 1_556 S
C429 H441 0.929 . S
C430 C426 1.530 . S
C430 H442 0.960 1_455 S
C430 H443 0.964 1_455 S
C430 H444 0.959 . S
C431 C428 1.511 . S
C431 H445 0.961 . S
C431 H446 0.961 . S
C431 H447 0.961 . S
C432 C433 1.370 . S
C432 C434 1.363 . S
C432 H448 0.931 . S
C433 C432 1.370 . S
C433 C437 1.408 . S
C434 C432 1.363 . S
C434 C435 1.370 . S
C434 C438 1.524 1_554 S
C435 C427 1.503 1_654 S
C435 C434 1.370 . S
C435 C436 1.403 . S
C436 C435 1.403 . S
C436 C437 1.404 . S
C436 C439 1.539 1_655 S
C437 C433 1.408 . S
C437 C436 1.404 . S
C437 H449 0.930 . S
C438 C434 1.524 1_556 S
C438 H450 0.956 . S
C438 H451 0.961 . S
C438 H452 0.961 . S
C439 C436 1.539 1_455 S
C439 H453 0.958 . S
C439 H454 0.961 . S
C439 H455 0.960 . S
H440 C424 0.931 . S
H441 C429 0.929 . S
H442 C430 0.960 1_655 S
H443 C430 0.964 1_655 S
H444 C430 0.959 . S
H445 C431 0.961 . S
H446 C431 0.961 . S
H447 C431 0.961 . S
H448 C432 0.931 . S
H449 C437 0.930 . S
H450 C438 0.956 . S
H451 C438 0.961 . S
H452 C438 0.961 . S
H453 C439 0.958 . S
H454 C439 0.961 . S
H455 C439 0.960 . S
C456 C457 1.391 . S
C456 C458 1.394 . S
C456 H472 0.931 . S
C457 C456 1.391 . S
C457 C461 1.376 . S
C458 C456 1.394 . S
C458 C459 1.369 . S
C458 C462 1.531 . S
C459 C458 1.369 . S
C459 C460 1.410 . S
C459 C467 1.503 1_545 S
C460 C459 1.410 . S
C460 C461 1.392 . S
C460 C463 1.511 1_545 S
C461 C457 1.376 . S
C461 C460 1.392 . S
C461 H473 0.929 . S
C462 C458 1.531 . S
C462 H474 0.960 1_545 S
C462 H475 0.962 . S
C462 H476 0.960 . S
C463 C460 1.511 1_565 S
C463 H477 0.965 . S
C463 H478 0.961 . S
C463 H479 0.961 . S
C464 C465 1.370 . S
C464 C466 1.363 . S
C464 H480 0.931 . S
C465 C464 1.370 . S
C465 C469 1.408 . S
C466 C464 1.363 . S
C466 C467 1.370 . S
C466 C470 1.524 1_565 S
C467 C459 1.503 1_565 S
C467 C466 1.370 . S
C467 C468 1.403 . S
C468 C467 1.403 . S
C468 C469 1.404 . S
C468 C471 1.539 . S
C469 C465 1.408 . S
C469 C468 1.404 . S
C469 H481 0.930 . S
C470 C466 1.524 1_545 S
C470 H482 0.956 . S
C470 H483 0.961 . S
C470 H484 0.961 . S
C471 C468 1.539 . S
C471 H485 0.958 . S
C471 H486 0.961 . S
C471 H487 0.960 . S
H472 C456 0.931 . S
H473 C461 0.929 . S
H474 C462 0.960 1_565 S
H475 C462 0.962 . S
H476 C462 0.960 . S
H477 C463 0.965 . S
H478 C463 0.961 . S
H479 C463 0.961 . S
H480 C464 0.931 . S
H481 C469 0.930 . S
H482 C470 0.956 . S
H483 C470 0.961 . S
H484 C470 0.961 . S
H485 C471 0.958 . S
H486 C471 0.961 . S
H487 C471 0.960 . S
C488 C489 1.391 . S
C488 C490 1.394 . S
C488 H504 0.931 . S
C489 C488 1.391 . S
C489 C493 1.376 . S
C490 C488 1.394 . S
C490 C491 1.369 . S
C490 C494 1.531 . S
C491 C490 1.369 . S
C491 C492 1.410 . S
C491 C499 1.503 1_556 S
C492 C491 1.410 . S
C492 C493 1.392 . S
C492 C495 1.511 1_556 S
C493 C489 1.376 . S
C493 C492 1.392 . S
C493 H505 0.929 . S
C494 C490 1.531 . S
C494 H506 0.960 . S
C494 H507 0.962 . S
C494 H508 0.960 . S
C495 C492 1.511 1_554 S
C495 H509 0.961 . S
C495 H510 0.961 . S
C495 H511 0.961 . S
C496 C497 1.370 . S
C496 C498 1.363 . S
C496 H512 0.931 . S
C497 C496 1.370 . S
C497 C501 1.408 . S
C498 C496 1.363 . S
C498 C499 1.370 . S
C498 C502 1.524 1_554 S
C499 C491 1.503 1_554 S
C499 C498 1.370 . S
C499 C500 1.403 . S
C500 C499 1.403 . S
C500 C501 1.404 . S
C500 C503 1.539 . S
C501 C497 1.408 . S
C501 C500 1.404 . S
C501 H513 0.930 . S
C502 C498 1.524 1_556 S
C502 H514 0.956 . S
C502 H515 0.961 . S
C502 H516 0.961 . S
C503 C500 1.539 . S
C503 H517 0.958 . S
C503 H518 0.961 . S
C503 H519 0.960 . S
H504 C488 0.931 . S
H505 C493 0.929 . S
H506 C494 0.960 . S
H507 C494 0.962 . S
H508 C494 0.960 . S
H509 C495 0.961 . S
H510 C495 0.961 . S
H511 C495 0.961 . S
H512 C496 0.931 . S
H513 C501 0.930 . S
H514 C502 0.956 . S
H515 C502 0.961 . S
H516 C502 0.961 . S
H517 C503 0.958 . S
H518 C503 0.961 . S
H519 C503 0.960 . S
C520 C521 1.391 . S
C520 C522 1.394 . S
C520 H536 0.931 . S
C521 C520 1.391 . S
C521 C525 1.376 . S
C522 C520 1.394 . S
C522 C523 1.369 . S
C522 C526 1.531 1_655 S
C523 C522 1.369 . S
C523 C524 1.410 . S
C523 C531 1.503 1_655 S
C524 C523 1.410 . S
C524 C525 1.392 . S
C524 C527 1.511 . S
C525 C521 1.376 . S
C525 C524 1.392 . S
C525 H537 0.929 . S
C526 C522 1.531 1_455 S
C526 H538 0.960 . S
C526 H539 0.962 . S
C526 H540 0.960 . S
C527 C524 1.511 . S
C527 H541 0.961 . S
C527 H542 0.961 . S
C527 H543 0.961 . S
C528 C529 1.370 . S
C528 C530 1.363 . S
C528 H544 0.931 . S
C529 C528 1.370 . S
C529 C533 1.408 . S
C530 C528 1.363 . S
C530 C531 1.370 . S
C530 C534 1.524 . S
C531 C523 1.503 1_455 S
C531 C530 1.370 . S
C531 C532 1.403 . S
C532 C531 1.403 . S
C532 C533 1.404 . S
C532 C535 1.539 1_455 S
C533 C529 1.408 . S
C533 C532 1.404 . S
C533 H545 0.930 . S
C534 C530 1.524 . S
C534 H546 0.956 . S
C534 H547 0.961 . S
C534 H548 0.961 . S
C535 C532 1.539 1_655 S
C535 H549 0.958 . S
C535 H550 0.961 . S
C535 H551 0.960 . S
H536 C520 0.931 . S
H537 C525 0.929 . S
H538 C526 0.960 . S
H539 C526 0.962 . S
H540 C526 0.960 . S
H541 C527 0.961 . S
H542 C527 0.961 . S
H543 C527 0.961 . S
H544 C528 0.931 . S
H545 C533 0.930 . S
H546 C534 0.956 . S
H547 C534 0.961 . S
H548 C534 0.961 . S
H549 C535 0.958 . S
H550 C535 0.961 . S
H551 C535 0.960 . S
C552 C553 1.391 . S
C552 C554 1.394 . S
C552 H568 0.931 . S
C553 C552 1.391 . S
C553 C557 1.376 . S
C554 C552 1.394 . S
C554 C555 1.369 . S
C554 C558 1.531 . S
C555 C554 1.369 . S
C555 C556 1.410 . S
C555 C563 1.503 . S
C556 C555 1.410 . S
C556 C557 1.392 . S
C556 C559 1.511 . S
C557 C553 1.376 . S
C557 C556 1.392 . S
C557 H569 0.929 . S
C558 C554 1.531 . S
C558 H570 0.960 . S
C558 H571 0.962 . S
C558 H572 0.960 . S
C559 C556 1.511 . S
C559 H573 0.961 . S
C559 H574 0.961 . S
C559 H575 0.961 . S
C560 C561 1.370 . S
C560 C562 1.363 . S
C560 H576 0.931 . S
C561 C560 1.370 . S
C561 C565 1.408 . S
C562 C560 1.363 . S
C562 C563 1.370 . S
C562 C566 1.524 . S
C563 C555 1.503 . S
C563 C562 1.370 . S
C563 C564 1.403 . S
C564 C563 1.403 . S
C564 C565 1.404 . S
C564 C567 1.539 . S
C565 C561 1.408 . S
C565 C564 1.404 . S
C565 H577 0.930 . S
C566 C562 1.524 . S
C566 H578 0.956 . S
C566 H579 0.961 . S
C566 H580 0.961 . S
C567 C564 1.539 . S
C567 H581 0.958 . S
C567 H582 0.961 . S
C567 H583 0.960 . S
H568 C552 0.931 . S
H569 C557 0.929 . S
H570 C558 0.960 . S
H571 C558 0.962 . S
H572 C558 0.960 . S
H573 C559 0.961 . S
H574 C559 0.961 . S
H575 C559 0.961 . S
H576 C560 0.931 . S
H577 C565 0.930 . S
H578 C566 0.956 . S
H579 C566 0.961 . S
H580 C566 0.961 . S
H581 C567 0.958 . S
H582 C567 0.961 . S
H583 C567 0.960 . S
C584 C585 1.391 . S
C584 C586 1.394 . S
C584 H600 0.931 . S
C585 C584 1.391 . S
C585 C589 1.376 . S
C586 C584 1.394 . S
C586 C587 1.369 . S
C586 C590 1.531 . S
C587 C586 1.369 . S
C587 C588 1.410 . S
C587 C595 1.503 . S
C588 C587 1.410 . S
C588 C589 1.392 . S
C588 C591 1.511 . S
C589 C585 1.376 . S
C589 C588 1.392 . S
C589 H601 0.929 . S
C590 C586 1.531 . S
C590 H602 0.960 . S
C590 H603 0.962 . S
C590 H604 0.960 . S
C591 C588 1.511 . S
C591 H605 0.961 . S
C591 H606 0.961 . S
C591 H607 0.961 . S
C592 C593 1.370 . S
C592 C594 1.363 . S
C592 H608 0.931 . S
C593 C592 1.370 . S
C593 C597 1.408 . S
C594 C592 1.363 . S
C594 C595 1.370 . S
C594 C598 1.524 . S
C595 C587 1.503 . S
C595 C594 1.370 . S
C595 C596 1.403 . S
C596 C595 1.403 . S
C596 C597 1.404 . S
C596 C599 1.539 . S
C597 C593 1.408 . S
C597 C596 1.404 . S
C597 H609 0.930 . S
C598 C594 1.524 . S
C598 H610 0.956 . S
C598 H611 0.961 . S
C598 H612 0.961 . S
C599 C596 1.539 . S
C599 H613 0.958 . S
C599 H614 0.961 . S
C599 H615 0.960 . S
H600 C584 0.931 . S
H601 C589 0.929 . S
H602 C590 0.960 . S
H603 C590 0.962 . S
H604 C590 0.960 . S
H605 C591 0.961 . S
H606 C591 0.961 . S
H607 C591 0.961 . S
H608 C592 0.931 . S
H609 C597 0.930 . S
H610 C598 0.956 . S
H611 C598 0.961 . S
H612 C598 0.961 . S
H613 C599 0.958 . S
H614 C599 0.961 . S
H615 C599 0.960 . S
C616 C617 1.391 . S
C616 C618 1.394 . S
C616 H632 0.931 . S
C617 C616 1.391 . S
C617 C621 1.376 . S
C618 C616 1.394 . S
C618 C619 1.369 . S
C618 C622 1.531 . S
C619 C618 1.369 . S
C619 C620 1.410 . S
C619 C627 1.503 . S
C620 C619 1.410 . S
C620 C621 1.392 . S
C620 C623 1.511 . S
C621 C617 1.376 . S
C621 C620 1.392 . S
C621 H633 0.929 . S
C622 C618 1.531 . S
C622 H634 0.960 . S
C622 H635 0.962 . S
C622 H636 0.960 . S
C623 C620 1.511 . S
C623 H637 0.961 . S
C623 H638 0.961 . S
C623 H639 0.961 . S
C624 C625 1.370 . S
C624 C626 1.363 . S
C624 H640 0.931 . S
C625 C624 1.370 . S
C625 C629 1.408 . S
C626 C624 1.363 . S
C626 C627 1.370 . S
C626 C630 1.524 . S
C627 C619 1.503 . S
C627 C626 1.370 . S
C627 C628 1.403 . S
C628 C627 1.403 . S
C628 C629 1.404 . S
C628 C631 1.539 . S
C629 C625 1.408 . S
C629 C628 1.404 . S
C629 H641 0.930 . S
C630 C626 1.524 . S
C630 H642 0.956 . S
C630 H643 0.961 . S
C630 H644 0.961 . S
C631 C628 1.539 . S
C631 H645 0.958 . S
C631 H646 0.961 . S
C631 H647 0.960 . S
H632 C616 0.931 . S
H633 C621 0.929 . S
H634 C622 0.960 . S
H635 C622 0.962 . S
H636 C622 0.960 . S
H637 C623 0.961 . S
H638 C623 0.961 . S
H639 C623 0.961 . S
H640 C624 0.931 . S
H641 C629 0.930 . S
H642 C630 0.956 . S
H643 C630 0.961 . S
H644 C630 0.961 . S
H645 C631 0.958 . S
H646 C631 0.961 . S
H647 C631 0.960 . S
C648 C649 1.391 . S
C648 C650 1.394 . S
C648 H664 0.931 . S
C649 C648 1.391 . S
C649 C653 1.376 . S
C650 C648 1.394 . S
C650 C651 1.369 . S
C650 C654 1.531 . S
C651 C650 1.369 . S
C651 C652 1.410 . S
C651 C659 1.503 . S
C652 C651 1.410 . S
C652 C653 1.392 . S
C652 C655 1.511 . S
C653 C649 1.376 . S
C653 C652 1.392 . S
C653 H665 0.929 . S
C654 C650 1.531 . S
C654 H666 0.960 . S
C654 H667 0.962 . S
C654 H668 0.960 . S
C655 C652 1.511 . S
C655 H669 0.961 . S
C655 H670 0.961 . S
C655 H671 0.961 . S
C656 C657 1.370 . S
C656 C658 1.363 . S
C656 H672 0.931 . S
C657 C656 1.370 . S
C657 C661 1.408 . S
C658 C656 1.363 . S
C658 C659 1.370 . S
C658 C662 1.524 . S
C659 C651 1.503 . S
C659 C658 1.370 . S
C659 C660 1.403 . S
C660 C659 1.403 . S
C660 C661 1.404 . S
C660 C663 1.539 . S
C661 C657 1.408 . S
C661 C660 1.404 . S
C661 H673 0.930 . S
C662 C658 1.524 . S
C662 H674 0.956 . S
C662 H675 0.961 . S
C662 H676 0.961 . S
C663 C660 1.539 . S
C663 H677 0.958 . S
C663 H678 0.961 . S
C663 H679 0.960 . S
H664 C648 0.931 . S
H665 C653 0.929 . S
H666 C654 0.960 . S
H667 C654 0.962 . S
H668 C654 0.960 . S
H669 C655 0.961 . S
H670 C655 0.961 . S
H671 C655 0.961 . S
H672 C656 0.931 . S
H673 C661 0.930 . S
H674 C662 0.956 . S
H675 C662 0.961 . S
H676 C662 0.961 . S
H677 C663 0.958 . S
H678 C663 0.961 . S
H679 C663 0.960 . S
C680 C681 1.391 . S
C680 C682 1.394 . S
C680 H696 0.931 . S
C681 C680 1.391 . S
C681 C685 1.376 . S
C682 C680 1.394 . S
C682 C683 1.369 . S
C682 C686 1.531 . S
C683 C682 1.369 . S
C683 C684 1.410 . S
C683 C691 1.503 . S
C684 C683 1.410 . S
C684 C685 1.392 . S
C684 C687 1.511 . S
C685 C681 1.376 . S
C685 C684 1.392 . S
C685 H697 0.929 . S
C686 C682 1.531 . S
C686 H698 0.960 . S
C686 H699 0.962 . S
C686 H700 0.960 . S
C687 C684 1.511 . S
C687 H701 0.961 . S
C687 H702 0.961 . S
C687 H703 0.961 . S
C688 C689 1.370 . S
C688 C690 1.363 . S
C688 H704 0.931 . S
C689 C688 1.370 . S
C689 C693 1.408 . S
C690 C688 1.363 . S
C690 C691 1.370 . S
C690 C694 1.524 . S
C691 C683 1.503 . S
C691 C690 1.370 . S
C691 C692 1.403 . S
C692 C691 1.403 . S
C692 C693 1.404 . S
C692 C695 1.539 . S
C693 C689 1.408 . S
C693 C692 1.404 . S
C693 H705 0.930 . S
C694 C690 1.524 . S
C694 H706 0.956 . S
C694 H707 0.961 . S
C694 H708 0.961 . S
C695 C692 1.539 . S
C695 H709 0.958 . S
C695 H710 0.961 . S
C695 H711 0.960 . S
H696 C680 0.931 . S
H697 C685 0.929 . S
H698 C686 0.960 . S
H699 C686 0.962 . S
H700 C686 0.960 . S
H701 C687 0.961 . S
H702 C687 0.961 . S
H703 C687 0.961 . S
H704 C688 0.931 . S
H705 C693 0.930 . S
H706 C694 0.956 . S
H707 C694 0.961 . S
H708 C694 0.961 . S
H709 C695 0.958 . S
H710 C695 0.961 . S
H711 C695 0.960 . S
C712 C713 1.391 . S
C712 C714 1.394 . S
C712 H728 0.931 . S
C713 C712 1.391 . S
C713 C717 1.376 . S
C714 C712 1.394 . S
C714 C715 1.369 . S
C714 C718 1.531 . S
C715 C714 1.369 . S
C715 C716 1.410 . S
C715 C723 1.503 . S
C716 C715 1.410 . S
C716 C717 1.392 . S
C716 C719 1.511 . S
C717 C713 1.376 . S
C717 C716 1.392 . S
C717 H729 0.929 . S
C718 C714 1.531 . S
C718 H730 0.960 . S
C718 H731 0.962 . S
C718 H732 0.960 . S
C719 C716 1.511 . S
C719 H733 0.961 . S
C719 H734 0.961 . S
C719 H735 0.961 . S
C720 C721 1.370 . S
C720 C722 1.363 . S
C720 H736 0.931 . S
C721 C720 1.370 . S
C721 C725 1.408 . S
C722 C720 1.363 . S
C722 C723 1.370 . S
C722 C726 1.524 . S
C723 C715 1.503 . S
C723 C722 1.370 . S
C723 C724 1.403 . S
C724 C723 1.403 . S
C724 C725 1.404 . S
C724 C727 1.539 . S
C725 C721 1.408 . S
C725 C724 1.404 . S
C725 H737 0.930 . S
C726 C722 1.524 . S
C726 H738 0.956 . S
C726 H739 0.961 . S
C726 H740 0.961 . S
C727 C724 1.539 . S
C727 H741 0.958 . S
C727 H742 0.961 . S
C727 H743 0.960 . S
H728 C712 0.931 . S
H729 C717 0.929 . S
H730 C718 0.960 . S
H731 C718 0.962 . S
H732 C718 0.960 . S
H733 C719 0.961 . S
H734 C719 0.961 . S
H735 C719 0.961 . S
H736 C720 0.931 . S
H737 C725 0.930 . S
H738 C726 0.956 . S
H739 C726 0.961 . S
H740 C726 0.961 . S
H741 C727 0.958 . S
H742 C727 0.961 . S
H743 C727 0.960 . S
C744 C745 1.391 . S
C744 C746 1.394 . S
C744 H760 0.931 . S
C745 C744 1.391 . S
C745 C749 1.376 . S
C746 C744 1.394 . S
C746 C747 1.369 . S
C746 C750 1.531 . S
C747 C746 1.369 . S
C747 C748 1.410 . S
C747 C755 1.503 . S
C748 C747 1.410 . S
C748 C749 1.392 . S
C748 C751 1.511 . S
C749 C745 1.376 . S
C749 C748 1.392 . S
C749 H761 0.929 . S
C750 C746 1.531 . S
C750 H762 0.960 . S
C750 H763 0.962 . S
C750 H764 0.960 . S
C751 C748 1.511 . S
C751 H765 0.961 . S
C751 H766 0.961 . S
C751 H767 0.961 . S
C752 C753 1.370 . S
C752 C754 1.363 . S
C752 H768 0.931 . S
C753 C752 1.370 . S
C753 C757 1.408 . S
C754 C752 1.363 . S
C754 C755 1.370 . S
C754 C758 1.524 . S
C755 C747 1.503 . S
C755 C754 1.370 . S
C755 C756 1.403 . S
C756 C755 1.403 . S
C756 C757 1.404 . S
C756 C759 1.539 . S
C757 C753 1.408 . S
C757 C756 1.404 . S
C757 H769 0.930 . S
C758 C754 1.524 . S
C758 H770 0.956 . S
C758 H771 0.961 . S
C758 H772 0.961 . S
C759 C756 1.539 . S
C759 H773 0.958 . S
C759 H774 0.961 . S
C759 H775 0.960 . S
H760 C744 0.931 . S
H761 C749 0.929 . S
H762 C750 0.960 . S
H763 C750 0.962 . S
H764 C750 0.960 . S
H765 C751 0.961 . S
H766 C751 0.961 . S
H767 C751 0.961 . S
H768 C752 0.931 . S
H769 C757 0.930 . S
H770 C758 0.956 . S
H771 C758 0.961 . S
H772 C758 0.961 . S
H773 C759 0.958 . S
H774 C759 0.961 . S
H775 C759 0.960 . S
C776 C777 1.391 . S
C776 C778 1.394 . S
C776 H792 0.931 . S
C777 C776 1.391 . S
C777 C781 1.376 . S
C778 C776 1.394 . S
C778 C779 1.369 . S
C778 C782 1.531 . S
C779 C778 1.369 . S
C779 C780 1.410 . S
C779 C787 1.503 . S
C780 C779 1.410 . S
C780 C781 1.392 . S
C780 C783 1.511 . S
C781 C777 1.376 . S
C781 C780 1.392 . S
C781 H793 0.929 . S
C782 C778 1.531 . S
C782 H794 0.960 . S
C782 H795 0.962 . S
C782 H796 0.960 . S
C783 C780 1.511 . S
C783 H797 0.961 . S
C783 H798 0.961 . S
C783 H799 0.961 . S
C784 C785 1.370 . S
C784 C786 1.363 . S
C784 H800 0.931 . S
C785 C784 1.370 . S
C785 C789 1.408 . S
C786 C784 1.363 . S
C786 C787 1.370 . S
C786 C790 1.524 . S
C787 C779 1.503 . S
C787 C786 1.370 . S
C787 C788 1.403 . S
C788 C787 1.403 . S
C788 C789 1.404 . S
C788 C791 1.539 . S
C789 C785 1.408 . S
C789 C788 1.404 . S
C789 H801 0.930 . S
C790 C786 1.524 . S
C790 H802 0.956 . S
C790 H803 0.961 . S
C790 H804 0.961 . S
C791 C788 1.539 . S
C791 H805 0.958 . S
C791 H806 0.961 . S
C791 H807 0.960 . S
H792 C776 0.931 . S
H793 C781 0.929 . S
H794 C782 0.960 . S
H795 C782 0.962 . S
H796 C782 0.960 . S
H797 C783 0.961 . S
H798 C783 0.961 . S
H799 C783 0.961 . S
H800 C784 0.931 . S
H801 C789 0.930 . S
H802 C790 0.956 . S
H803 C790 0.961 . S
H804 C790 0.961 . S
H805 C791 0.958 . S
H806 C791 0.961 . S
H807 C791 0.960 . S
C808 C809 1.391 . S
C808 C810 1.394 . S
C808 H824 0.931 . S
C809 C808 1.391 . S
C809 C813 1.376 . S
C810 C808 1.394 . S
C810 C811 1.369 . S
C810 C814 1.531 . S
C811 C810 1.369 . S
C811 C812 1.410 . S
C811 C819 1.503 . S
C812 C811 1.410 . S
C812 C813 1.392 . S
C812 C815 1.511 . S
C813 C809 1.376 . S
C813 C812 1.392 . S
C813 H825 0.929 . S
C814 C810 1.531 . S
C814 H826 0.960 . S
C814 H827 0.962 . S
C814 H828 0.960 . S
C815 C812 1.511 . S
C815 H829 0.961 . S
C815 H830 0.961 . S
C815 H831 0.961 . S
C816 C817 1.370 . S
C816 C818 1.363 . S
C816 H832 0.931 . S
C817 C816 1.370 . S
C817 C821 1.408 . S
C818 C816 1.363 . S
C818 C819 1.370 . S
C818 C822 1.524 . S
C819 C811 1.503 . S
C819 C818 1.370 . S
C819 C820 1.403 . S
C820 C819 1.403 . S
C820 C821 1.404 . S
C820 C823 1.539 . S
C821 C817 1.408 . S
C821 C820 1.404 . S
C821 H833 0.930 . S
C822 C818 1.524 . S
C822 H834 0.956 . S
C822 H835 0.961 . S
C822 H836 0.961 . S
C823 C820 1.539 . S
C823 H837 0.958 . S
C823 H838 0.961 . S
C823 H839 0.960 . S
H824 C808 0.931 . S
H825 C813 0.929 . S
H826 C814 0.960 . S
H827 C814 0.962 . S
H828 C814 0.960 . S
H829 C815 0.961 . S
H830 C815 0.961 . S
H831 C815 0.961 . S
H832 C816 0.931 . S
H833 C821 0.930 . S
H834 C822 0.956 . S
H835 C822 0.961 . S
H836 C822 0.961 . S
H837 C823 0.958 . S
H838 C823 0.961 . S
H839 C823 0.960 . S
C840 C841 1.391 . S
C840 C842 1.394 . S
C840 H856 0.931 . S
C841 C840 1.391 . S
C841 C845 1.376 . S
C842 C840 1.394 . S
C842 C843 1.369 . S
C842 C846 1.531 . S
C843 C842 1.369 . S
C843 C844 1.410 . S
C843 C851 1.503 . S
C844 C843 1.410 . S
C844 C845 1.392 . S
C844 C847 1.511 . S
C845 C841 1.376 . S
C845 C844 1.392 . S
C845 H857 0.929 . S
C846 C842 1.531 . S
C846 H858 0.960 . S
C846 H859 0.962 . S
C846 H860 0.960 . S
C847 C844 1.511 . S
C847 H861 0.961 . S
C847 H862 0.961 . S
C847 H863 0.961 . S
C848 C849 1.370 . S
C848 C850 1.363 . S
C848 H864 0.931 . S
C849 C848 1.370 . S
C849 C853 1.408 . S
C850 C848 1.363 . S
C850 C851 1.370 . S
C850 C854 1.524 . S
C851 C843 1.503 . S
C851 C850 1.370 . S
C851 C852 1.403 . S
C852 C851 1.403 . S
C852 C853 1.404 . S
C852 C855 1.539 . S
C853 C849 1.408 . S
C853 C852 1.404 . S
C853 H865 0.930 . S
C854 C850 1.524 . S
C854 H866 0.956 . S
C854 H867 0.961 . S
C854 H868 0.961 . S
C855 C852 1.539 . S
C855 H869 0.958 . S
C855 H870 0.961 . S
C855 H871 0.960 . S
H856 C840 0.931 . S
H857 C845 0.929 . S
H858 C846 0.960 . S
H859 C846 0.962 . S
H860 C846 0.960 . S
H861 C847 0.961 . S
H862 C847 0.961 . S
H863 C847 0.961 . S
H864 C848 0.931 . S
H865 C853 0.930 . S
H866 C854 0.956 . S
H867 C854 0.961 . S
H868 C854 0.961 . S
H869 C855 0.958 . S
H870 C855 0.961 . S
H871 C855 0.960 . S
C872 C873 1.391 . S
C872 C874 1.394 . S
C872 H888 0.931 . S
C873 C872 1.391 . S
C873 C877 1.376 . S
C874 C872 1.394 . S
C874 C875 1.369 . S
C874 C878 1.531 . S
C875 C874 1.369 . S
C875 C876 1.410 . S
C875 C883 1.503 . S
C876 C875 1.410 . S
C876 C877 1.392 . S
C876 C879 1.511 . S
C877 C873 1.376 . S
C877 C876 1.392 . S
C877 H889 0.929 . S
C878 C874 1.531 . S
C878 H890 0.960 . S
C878 H891 0.962 . S
C878 H892 0.960 . S
C879 C876 1.511 . S
C879 H893 0.961 . S
C879 H894 0.961 . S
C879 H895 0.961 . S
C880 C881 1.370 . S
C880 C882 1.363 . S
C880 H896 0.931 . S
C881 C880 1.370 . S
C881 C885 1.408 . S
C882 C880 1.363 . S
C882 C883 1.370 . S
C882 C886 1.524 . S
C883 C875 1.503 . S
C883 C882 1.370 . S
C883 C884 1.403 . S
C884 C883 1.403 . S
C884 C885 1.404 . S
C884 C887 1.539 . S
C885 C881 1.408 . S
C885 C884 1.404 . S
C885 H897 0.930 . S
C886 C882 1.524 . S
C886 H898 0.956 . S
C886 H899 0.961 . S
C886 H900 0.961 . S
C887 C884 1.539 . S
C887 H901 0.958 . S
C887 H902 0.961 . S
C887 H903 0.960 . S
H888 C872 0.931 . S
H889 C877 0.929 . S
H890 C878 0.960 . S
H891 C878 0.962 . S
H892 C878 0.960 . S
H893 C879 0.961 . S
H894 C879 0.961 . S
H895 C879 0.961 . S
H896 C880 0.931 . S
H897 C885 0.930 . S
H898 C886 0.956 . S
H899 C886 0.961 . S
H900 C886 0.961 . S
H901 C887 0.958 . S
H902 C887 0.961 . S
H903 C887 0.960 . S
C904 C905 1.391 . S
C904 C906 1.394 . S
C904 H920 0.931 . S
C905 C904 1.391 . S
C905 C909 1.376 . S
C906 C904 1.394 . S
C906 C907 1.369 . S
C906 C910 1.531 . S
C907 C906 1.369 . S
C907 C908 1.410 . S
C907 C915 1.503 . S
C908 C907 1.410 . S
C908 C909 1.392 . S
C908 C911 1.511 . S
C909 C905 1.376 . S
C909 C908 1.392 . S
C909 H921 0.929 . S
C910 C906 1.531 . S
C910 H922 0.960 . S
C910 H923 0.962 . S
C910 H924 0.960 . S
C911 C908 1.511 . S
C911 H925 0.961 . S
C911 H926 0.961 . S
C911 H927 0.961 . S
C912 C913 1.370 . S
C912 C914 1.363 . S
C912 H928 0.931 . S
C913 C912 1.370 . S
C913 C917 1.408 . S
C914 C912 1.363 . S
C914 C915 1.370 . S
C914 C918 1.524 . S
C915 C907 1.503 . S
C915 C914 1.370 . S
C915 C916 1.403 . S
C916 C915 1.403 . S
C916 C917 1.404 . S
C916 C919 1.539 . S
C917 C913 1.408 . S
C917 C916 1.404 . S
C917 H929 0.930 . S
C918 C914 1.524 . S
C918 H930 0.956 . S
C918 H931 0.961 . S
C918 H932 0.961 . S
C919 C916 1.539 . S
C919 H933 0.958 . S
C919 H934 0.961 . S
C919 H935 0.960 . S
H920 C904 0.931 . S
H921 C909 0.929 . S
H922 C910 0.960 . S
H923 C910 0.962 . S
H924 C910 0.960 . S
H925 C911 0.961 . S
H926 C911 0.961 . S
H927 C911 0.961 . S
H928 C912 0.931 . S
H929 C917 0.930 . S
H930 C918 0.956 . S
H931 C918 0.961 . S
H932 C918 0.961 . S
H933 C919 0.958 . S
H934 C919 0.961 . S
H935 C919 0.960 . S
C169 C147 1.453 . S
C177 C7 1.472 . S
C201 C21 1.369 . S
C209 C160 1.395 . S
C233 C34 1.494 . S
C241 C91 1.461 . S
C265 C105 1.526 . S
C273 C49 1.470 . S
C297 C118 1.345 . S
C305 C63 1.391 . S
C329 C76 1.520 . S
C337 C133 1.467 . S
C361 C6 0.970 . S
C369 C104 0.960 . S
C393 C20 0.887 . S
C401 C119 0.867 . S
C425 C132 0.997 . S
C433 C35 0.993 . S
C457 C146 1.001 . S
C465 C48 0.993 . S
C489 C161 0.878 . S
C497 C62 0.905 . S
C521 C90 1.007 . S
C529 C77 0.994 . S
C553 C8 1.139 . S
C561 C65 1.160 . S
C585 C22 1.236 . S
C593 C78 1.304 . S
C617 C37 1.098 . S
C625 C9 1.156 . S
C649 C50 1.171 . S
C657 C23 1.170 . S
C681 C64 1.258 . S
C689 C36 1.306 . S
C713 C79 1.095 . S
C721 C51 1.155 . S
C745 C92 1.151 . S
C753 C120 1.160 . S
C777 C106 1.120 . S
C785 C135 1.160 . S
C809 C149 1.306 . S
C817 C121 1.276 . S
C841 C134 1.128 . S
C849 C162 1.154 . S
C873 C148 1.104 . S
C881 C93 1.158 . S
C905 C163 1.298 . S
C913 C107 1.312 . S
