# Generated by pormake.
# Topology uoj, (4)-cn, num edge types: 1
# Building blocks:
#     Node 0, Type 0, BuildingBlock: ICAMEG_clean_sbu_1, # of connection points: 4
#     Node 1, Type 0, BuildingBlock: ICAMEG_clean_sbu_1, # of connection points: 4
#     Node 2, Type 0, BuildingBlock: ICAMEG_clean_sbu_1, # of connection points: 4
#     Node 3, Type 0, BuildingBlock: ICAMEG_clean_sbu_1, # of connection points: 4
#     Node 4, Type 0, BuildingBlock: ICAMEG_clean_sbu_1, # of connection points: 4
#     Node 5, Type 0, BuildingBlock: ICAMEG_clean_sbu_1, # of connection points: 4
#     Node 6, Type 0, BuildingBlock: ICAMEG_clean_sbu_1, # of connection points: 4
#     Node 7, Type 0, BuildingBlock: ICAMEG_clean_sbu_1, # of connection points: 4
#     Edge 8, Type (0, 0), BuildingBlock: EZIPEK_clean_linker_0, # of connection points: 2
#     Edge 9, Type (0, 0), BuildingBlock: EZIPEK_clean_linker_0, # of connection points: 2
#     Edge 10, Type (0, 0), BuildingBlock: EZIPEK_clean_linker_0, # of connection points: 2
#     Edge 11, Type (0, 0), BuildingBlock: EZIPEK_clean_linker_0, # of connection points: 2
#     Edge 12, Type (0, 0), BuildingBlock: EZIPEK_clean_linker_0, # of connection points: 2
#     Edge 13, Type (0, 0), BuildingBlock: EZIPEK_clean_linker_0, # of connection points: 2
#     Edge 14, Type (0, 0), BuildingBlock: EZIPEK_clean_linker_0, # of connection points: 2
#     Edge 15, Type (0, 0), BuildingBlock: EZIPEK_clean_linker_0, # of connection points: 2
#     Edge 16, Type (0, 0), BuildingBlock: EZIPEK_clean_linker_0, # of connection points: 2
#     Edge 17, Type (0, 0), BuildingBlock: EZIPEK_clean_linker_0, # of connection points: 2
#     Edge 18, Type (0, 0), BuildingBlock: EZIPEK_clean_linker_0, # of connection points: 2
#     Edge 19, Type (0, 0), BuildingBlock: EZIPEK_clean_linker_0, # of connection points: 2
#     Edge 20, Type (0, 0), BuildingBlock: EZIPEK_clean_linker_0, # of connection points: 2
#     Edge 21, Type (0, 0), BuildingBlock: EZIPEK_clean_linker_0, # of connection points: 2
#     Edge 22, Type (0, 0), BuildingBlock: EZIPEK_clean_linker_0, # of connection points: 2
#     Edge 23, Type (0, 0), BuildingBlock: EZIPEK_clean_linker_0, # of connection points: 2
# Relax obj value: 0.082
# Max RMSD: 0.089
# Mean RMSD: 0.088
data_MOF--net-uoj--node1-ICAMEG_clean_sbu_1--edge1-EZIPEK_clean_linker_0
_symmetry_space_group_name_H-M    P1
_symmetry_Int_Tables_number       1
_symmetry_cell_setting            triclinic
loop_
_symmetry_equiv_pos_as_xyz
'x, y, z'
_cell_length_a     27.256644
_cell_length_b     27.222463
_cell_length_c     24.851335
_cell_angle_alpha  90.31659
_cell_angle_beta   89.791318
_cell_angle_gamma 89.239504
loop_
_atom_site_label
_atom_site_type_symbol
_atom_site_fract_x
_atom_site_fract_y
_atom_site_fract_z
_atom_type_partial_charge
Co0 Co 0.00879 0.30149 0.41505 0.0
Co1 Co 0.12279 0.32102 0.47316 0.0
O2 O 0.06398 0.28244 0.46034 0.0
C3 C 0.93661 0.29916 0.50756 0.0
O4 O 0.94023 0.34648 0.51689 0.0
C5 C 0.1629 0.22569 0.43052 0.0
O6 O 0.13161 0.22826 0.39059 0.0
O7 O 0.13035 0.33307 0.39394 0.0
O8 O 0.05513 0.32313 0.35698 0.0
H9 H 0.23166 0.46991 0.46855 0.0
H10 H 0.0176 0.20096 0.46034 0.0
O11 O 0.96339 0.27769 0.47239 0.0
H12 H 0.9942 0.17741 0.26529 0.0
H13 H 0.83319 0.28905 0.3547 0.0
H14 H 0.98654 0.38062 0.33568 0.0
H15 H 0.99747 0.26074 0.30443 0.0
H16 H 0.90891 0.25957 0.39801 0.0
O17 O 0.16368 0.25914 0.46654 0.0
H18 H 0.15582 0.42472 0.45346 0.0
H19 H 0.21758 0.29845 0.52826 0.0
H20 H 0.91147 0.41255 0.29314 0.0
H21 H 0.01356 0.11696 0.42309 0.0
H22 H 0.83359 0.36696 0.30327 0.0
H23 H 1.00218 0.10475 0.32483 0.0
O24 O 0.00846 0.36976 0.445 0.0
H25 H 0.08906 0.21744 0.63548 0.0
H26 H 0.12792 0.38373 0.57174 0.0
H27 H 0.11649 0.36952 0.6689 0.0
H28 H 0.09691 0.28585 0.70133 0.0
H29 H 0.10071 0.23333 0.53869 0.0
H30 H 0.29413 0.34255 0.54426 0.0
H31 H 0.30186 0.42893 0.51416 0.0
O32 O 0.08302 0.38358 0.48014 0.0
C33 C 0.10085 0.33355 0.35373 0.0
C34 C 0.22913 0.43197 0.48093 0.0
C35 C 0.26416 0.36056 0.5234 0.0
N36 N 0.18257 0.35776 0.48693 0.0
C37 C 0.18623 0.40576 0.47172 0.0
C38 C 0.2207 0.33551 0.51351 0.0
C39 C 0.26844 0.40902 0.50664 0.0
C40 C 0.01265 0.19599 0.41752 0.0
N41 N 0.00851 0.23575 0.38446 0.0
C42 C 0.0103 0.14831 0.39667 0.0
C43 C 1.00389 0.14148 0.34156 0.0
C44 C 0.99946 0.18221 0.30813 0.0
C45 C 1.00156 0.22931 0.33049 0.0
C46 C 0.86664 0.30975 0.35079 0.0
C47 C 0.95302 0.36109 0.34091 0.0
C48 C 0.90975 0.29336 0.37545 0.0
N49 N 0.95199 0.31983 0.37176 0.0
C50 C 0.91054 0.37896 0.31617 0.0
C51 C 0.86692 0.35337 0.32182 0.0
C52 C 0.03974 0.39767 0.46754 0.0
C53 C 0.09763 0.25405 0.62186 0.0
C54 C 0.11935 0.34725 0.58554 0.0
C55 C 0.11298 0.33941 0.64061 0.0
C56 C 0.102 0.29245 0.65878 0.0
N57 N 0.11494 0.30942 0.5496 0.0
C58 C 0.10431 0.26326 0.56711 0.0
Co59 Co 0.32229 0.02056 0.5884 0.0
Co60 Co 0.33896 0.90312 0.53751 0.0
O61 O 0.30039 0.96437 0.5454 0.0
C62 C 0.29559 0.06841 0.48376 0.0
O63 O 0.32115 0.03559 0.45636 0.0
C64 C 0.23396 0.87062 0.5519 0.0
O65 O 0.22376 0.91076 0.57936 0.0
O66 O 0.34173 0.89696 0.61743 0.0
O67 O 0.34917 0.97544 0.64519 0.0
H68 H 0.47216 0.78169 0.58687 0.0
H69 H 0.21807 0.01797 0.55428 0.0
O70 O 0.29365 0.06727 0.53477 0.0
H71 H 0.21329 0.02354 0.75257 0.0
H72 H 0.30491 0.1913 0.66576 0.0
H73 H 0.41716 0.05038 0.63722 0.0
H74 H 0.29233 0.02394 0.7041 0.0
H75 H 0.27554 0.11555 0.62265 0.0
O76 O 0.27751 0.86253 0.53501 0.0
H77 H 0.42439 0.85862 0.59464 0.0
H78 H 0.33282 0.81444 0.46609 0.0
H79 H 0.44774 0.12483 0.6814 0.0
H80 H 0.13817 0.01856 0.60111 0.0
H81 H 0.3918 0.19659 0.69473 0.0
H82 H 0.13544 0.02106 0.70102 0.0
O83 O 0.38694 0.01991 0.5498 0.0
H84 H 0.25831 0.94666 0.36222 0.0
H85 H 0.41301 0.89511 0.44874 0.0
H86 H 0.41155 0.90939 0.35087 0.0
H87 H 0.33373 0.93511 0.30689 0.0
H88 H 0.26146 0.93203 0.45995 0.0
H89 H 0.37906 0.73662 0.45727 0.0
H90 H 0.44963 0.71986 0.51769 0.0
O91 O 0.40198 0.93927 0.53874 0.0
C92 C 0.35002 0.92912 0.65408 0.0
C93 C 0.44175 0.7887 0.55997 0.0
C94 C 0.38945 0.76337 0.48738 0.0
N95 N 0.37632 0.8419 0.53021 0.0
C96 C 0.41472 0.83253 0.56398 0.0
C97 C 0.36326 0.8076 0.49265 0.0
C98 C 0.42903 0.75399 0.52126 0.0
C99 C 0.21719 0.01967 0.5977 0.0
N100 N 0.25986 0.02092 0.62632 0.0
C101 C 0.17183 0.01972 0.62403 0.0
C102 C 0.17033 0.02104 0.68008 0.0
C103 C 0.21399 0.02234 0.70903 0.0
C104 C 0.25867 0.02227 0.68134 0.0
C105 C 0.32961 0.16019 0.66035 0.0
C106 C 0.39189 0.08028 0.64508 0.0
C107 C 0.31306 0.11693 0.63644 0.0
N108 N 0.34405 0.07747 0.62921 0.0
C109 C 0.40972 0.12288 0.66922 0.0
C110 C 0.37837 0.16319 0.67649 0.0
C111 C 0.41585 0.98371 0.53976 0.0
C112 C 0.29235 0.93501 0.38079 0.0
C113 C 0.37889 0.90595 0.42988 0.0
C114 C 0.37833 0.9141 0.37444 0.0
C115 C 0.33468 0.9286 0.34981 0.0
N116 N 0.33701 0.91147 0.45991 0.0
C117 C 0.29433 0.92657 0.43612 0.0
Co118 Co 0.01657 0.69176 0.40311 0.0
Co119 Co 0.90112 0.68174 0.45771 0.0
O120 O 0.96131 0.71898 0.4449 0.0
C121 C 0.06269 0.75751 0.48904 0.0
O122 O 0.01975 0.76944 0.50958 0.0
C123 C 0.86554 0.78239 0.42765 0.0
O124 O 0.89788 0.78257 0.38859 0.0
O125 O 0.89268 0.67361 0.37828 0.0
O126 O 0.97026 0.65796 0.35231 0.0
H127 H 0.78215 0.54504 0.42598 0.0
H128 H 0.99692 0.79979 0.41584 0.0
O129 O 0.06616 0.72667 0.45013 0.0
H130 H 0.01603 0.77186 0.22097 0.0
H131 H 0.18492 0.69431 0.31816 0.0
H132 H 0.04621 0.59041 0.36938 0.0
H133 H 0.02447 0.70316 0.28432 0.0
H134 H 0.10958 0.73122 0.35638 0.0
O135 O 0.86146 0.74491 0.45771 0.0
H136 H 0.85883 0.59039 0.41256 0.0
H137 H 0.81279 0.69788 0.5271 0.0
H138 H 0.12022 0.55194 0.33039 0.0
H139 H 0.98764 0.86945 0.35401 0.0
H140 H 0.19093 0.60384 0.30551 0.0
H141 H 0.99764 0.85588 0.25563 0.0
O142 O 0.01841 0.63347 0.4521 0.0
H143 H 0.9365 0.77595 0.62743 0.0
H144 H 0.90031 0.61295 0.55095 0.0
H145 H 0.91466 0.62133 0.64841 0.0
H146 H 0.93284 0.70332 0.6873 0.0
H147 H 0.92234 0.76584 0.53009 0.0
H148 H 0.73535 0.65396 0.54145 0.0
H149 H 0.71971 0.57682 0.49087 0.0
O150 O 0.93823 0.61741 0.4595 0.0
C151 C 0.92413 0.65951 0.34272 0.0
C152 C 0.78865 0.57846 0.4485 0.0
C153 C 0.76236 0.63962 0.51324 0.0
N154 N 0.8407 0.64634 0.46953 0.0
C155 C 0.83215 0.60418 0.44122 0.0
C156 C 0.80629 0.66434 0.5049 0.0
C157 C 0.75361 0.59635 0.48485 0.0
C158 C 1.0016 0.79345 0.37335 0.0
N159 N 0.01307 0.74756 0.35431 0.0
C160 C 0.99628 0.83315 0.33838 0.0
C161 C 1.00181 0.82551 0.28323 0.0
C162 C 0.01226 0.77843 0.26379 0.0
C163 C 0.01736 0.73969 0.30002 0.0
C164 C 0.15439 0.67125 0.32889 0.0
C165 C 0.07573 0.61359 0.35692 0.0
C166 C 0.11139 0.69206 0.35029 0.0
N167 N 0.07256 0.66334 0.36413 0.0
C168 C 0.11808 0.59142 0.3356 0.0
C169 C 0.15781 0.62051 0.32192 0.0
C170 C 0.98327 0.60437 0.46259 0.0
C171 C 0.92859 0.74004 0.61097 0.0
C172 C 0.90853 0.64871 0.56744 0.0
C173 C 0.91643 0.65325 0.62273 0.0
C174 C 0.92659 0.69926 0.64453 0.0
N175 N 0.91071 0.68886 0.53474 0.0
C176 C 0.92045 0.7341 0.55588 0.0
Co177 Co 0.71834 0.00725 0.59184 0.0
Co178 Co 0.69295 0.11638 0.52709 0.0
O179 O 0.73628 0.06068 0.54411 0.0
C180 C 0.7486 0.95147 0.49275 0.0
O181 O 0.71535 0.97569 0.46506 0.0
C182 C 0.78585 0.16188 0.56138 0.0
O183 O 0.78672 0.13077 0.60147 0.0
O184 O 0.68178 0.13072 0.60497 0.0
O185 O 0.68202 0.05497 0.64044 0.0
H186 H 0.54086 0.22191 0.54407 0.0
H187 H 0.82371 0.01144 0.56155 0.0
O188 O 0.75504 0.96048 0.5426 0.0
H189 H 0.82104 0.04518 0.75625 0.0
H190 H 0.68679 0.82817 0.63294 0.0
H191 H 0.67408 0.99619 0.70511 0.0
H192 H 0.74461 0.03235 0.7077 0.0
H193 H 0.71598 0.89591 0.5798 0.0
O194 O 0.7512 0.16078 0.52713 0.0
H195 H 0.59436 0.15054 0.56355 0.0
H196 H 0.70242 0.20364 0.45573 0.0
H197 H 0.63999 0.92992 0.75489 0.0
H198 H 0.90128 0.02345 0.60914 0.0
H199 H 0.64751 0.84399 0.72165 0.0
H200 H 0.90054 0.04051 0.70736 0.0
O201 O 0.65631 0.99658 0.55151 0.0
H202 H 0.79541 0.07129 0.36534 0.0
H203 H 0.62897 0.11425 0.42992 0.0
H204 H 0.64224 0.09544 0.33368 0.0
H205 H 0.72599 0.07366 0.30085 0.0
H206 H 0.7804 0.09038 0.46114 0.0
H207 H 0.65037 0.27596 0.43568 0.0
H208 H 0.56881 0.2853 0.47975 0.0
O209 O 0.63323 0.07295 0.52699 0.0
C210 C 0.67362 0.10119 0.64349 0.0
C211 C 0.57622 0.21814 0.52442 0.0
C212 C 0.63772 0.24852 0.46366 0.0
N213 N 0.65124 0.17259 0.5104 0.0
C214 C 0.6066 0.17767 0.53513 0.0
C215 C 0.66709 0.20755 0.47531 0.0
C216 C 0.59196 0.25373 0.48839 0.0
C217 C 0.82267 0.01692 0.60451 0.0
N218 N 0.77895 0.01791 0.6318 0.0
C219 C 0.86696 0.02448 0.63121 0.0
C220 C 0.86653 0.03424 0.68621 0.0
C221 C 0.82196 0.03673 0.71364 0.0
C222 C 0.77841 0.02872 0.68567 0.0
C223 C 0.68472 0.86515 0.64914 0.0
C224 C 0.67918 0.96001 0.68846 0.0
C225 C 0.70234 0.90457 0.61929 0.0
N226 N 0.70005 0.95191 0.63879 0.0
C227 C 0.65936 0.92177 0.71809 0.0
C228 C 0.66276 0.87393 0.69879 0.0
C229 C 0.6241 0.02752 0.53514 0.0
C230 C 0.75871 0.08056 0.37915 0.0
C231 C 0.66542 0.10451 0.41594 0.0
C232 C 0.67276 0.09408 0.36139 0.0
C233 C 0.71976 0.08189 0.343 0.0
N234 N 0.70369 0.10274 0.45121 0.0
C235 C 0.74997 0.09132 0.43339 0.0
Co236 Co 0.49701 0.82323 0.92254 0.0
Co237 Co 0.38186 0.82809 0.97677 0.0
O238 O 0.44389 0.79277 0.96314 0.0
C239 C 0.55617 0.78591 0.01698 0.0
O240 O 0.52993 0.81219 0.05124 0.0
C241 C 0.3546 0.72091 0.96254 0.0
O242 O 0.40006 0.7086 0.95073 0.0
O243 O 0.37318 0.83608 0.89809 0.0
O244 O 0.44923 0.85928 0.8753 0.0
H245 H 0.25668 0.96086 0.94026 0.0
H246 H 0.49833 0.71471 0.93337 0.0
O247 O 0.54675 0.78673 0.96684 0.0
H248 H 0.49238 0.74569 0.73817 0.0
H249 H 0.66756 0.82731 0.84694 0.0
H250 H 0.5184 0.92505 0.88814 0.0
H251 H 0.49539 0.81462 0.80272 0.0
H252 H 0.59168 0.78673 0.87571 0.0
O253 O 0.34304 0.76549 0.97319 0.0
H254 H 0.33555 0.91676 0.92907 0.0
H255 H 0.29429 0.81401 0.04823 0.0
H256 H 0.59404 0.96724 0.86125 0.0
H257 H 0.49589 0.64461 0.87015 0.0
H258 H 0.67018 0.91832 0.84405 0.0
H259 H 0.49265 0.65991 0.77178 0.0
O260 O 0.49677 0.87978 0.97384 0.0
H261 H 0.43349 0.73517 0.14225 0.0
H262 H 0.36991 0.89296 0.07401 0.0
H263 H 0.38559 0.88384 0.17081 0.0
H264 H 0.41739 0.80433 0.20574 0.0
H265 H 0.41781 0.74612 0.04573 0.0
H266 H 0.21487 0.85676 0.06058 0.0
H267 H 0.19566 0.93101 0.00654 0.0
O268 O 0.41635 0.89294 0.98069 0.0
C269 C 0.40359 0.85461 0.86508 0.0
C270 C 0.26464 0.92863 0.96417 0.0
C271 C 0.24119 0.87023 0.03167 0.0
N272 N 0.31993 0.86299 0.98837 0.0
C273 C 0.30928 0.90344 0.958 0.0
C274 C 0.28625 0.84603 0.02442 0.0
C275 C 0.23043 0.91186 0.00134 0.0
C276 C 0.49715 0.72165 0.89062 0.0
N277 N 0.49657 0.76871 0.87186 0.0
C278 C 0.49569 0.68182 0.85501 0.0
C279 C 0.49383 0.69043 0.79983 0.0
C280 C 0.49362 0.73854 0.78095 0.0
C281 C 0.4951 0.77744 0.81774 0.0
C282 C 0.63491 0.84902 0.85569 0.0
C283 C 0.55086 0.90344 0.87868 0.0
C284 C 0.59161 0.82621 0.87129 0.0
N285 N 0.55085 0.85355 0.8845 0.0
C286 C 0.59368 0.92756 0.86386 0.0
C287 C 0.63631 0.90009 0.85399 0.0
C288 C 0.46034 0.90752 0.98625 0.0
C289 C 0.41931 0.76991 0.12761 0.0
C290 C 0.38374 0.85832 0.08857 0.0
C291 C 0.39252 0.85332 0.14362 0.0
C292 C 0.41036 0.80873 0.16319 0.0
N293 N 0.39194 0.81992 0.05385 0.0
C294 C 0.41012 0.77632 0.07282 0.0
Co295 Co 0.82008 0.60984 0.02283 0.0
Co296 Co 0.80172 0.49926 0.08798 0.0
O297 O 0.78024 0.55239 0.04042 0.0
C298 C 0.71631 0.64746 0.04444 0.0
O299 O 0.70264 0.6029 0.05624 0.0
C300 C 0.77492 0.43964 0.99068 0.0
O301 O 0.80627 0.46375 0.9609 0.0
O302 O 0.86355 0.49156 0.04667 0.0
O303 O 0.88079 0.56594 0.01424 0.0
H304 H 0.92706 0.40007 0.18896 0.0
H305 H 0.73192 0.57746 0.96154 0.0
O306 O 0.76085 0.65578 0.03099 0.0
H307 H 0.85789 0.60818 0.82371 0.0
H308 H 0.857 0.77516 0.94164 0.0
H309 H 0.91979 0.63993 0.05431 0.0
H310 H 0.87571 0.6219 0.91938 0.0
H311 H 0.80653 0.70259 0.95898 0.0
O312 O 0.76897 0.4502 0.04029 0.0
H313 H 0.8954 0.47314 0.14167 0.0
H314 H 0.75427 0.40951 0.13142 0.0
H315 H 0.97203 0.71134 0.03707 0.0
H316 H 0.71235 0.56419 0.86634 0.0
H317 H 0.94068 0.77972 0.98045 0.0
H318 H 0.77557 0.57929 0.7964 0.0
O319 O 0.83466 0.62105 0.10012 0.0
H320 H 0.61862 0.51224 0.11183 0.0
H321 H 0.77816 0.51242 0.20467 0.0
H322 H 0.70214 0.52416 0.25731 0.0
H323 H 0.62159 0.52409 0.21092 0.0
H324 H 0.69561 0.50171 0.06048 0.0
H325 H 0.78422 0.33609 0.17949 0.0
H326 H 0.87163 0.33028 0.2068 0.0
O327 O 0.83475 0.54612 0.13747 0.0
C328 C 0.89222 0.52062 0.02232 0.0
C329 C 0.88896 0.40204 0.17695 0.0
C330 C 0.80879 0.36613 0.17162 0.0
N331 N 0.82309 0.44556 0.13361 0.0
C332 C 0.87074 0.44345 0.1504 0.0
C333 C 0.79197 0.40796 0.14473 0.0
C334 C 0.85783 0.36294 0.187 0.0
C335 C 0.75986 0.58424 0.93184 0.0
N336 N 0.80528 0.60003 0.94677 0.0
C337 C 0.74844 0.57664 0.87771 0.0
C338 C 0.78389 0.58508 0.8385 0.0
C339 C 0.83007 0.60119 0.8538 0.0
C340 C 0.84011 0.60852 0.9083 0.0
C341 C 0.87111 0.74559 0.96634 0.0
C342 C 0.90601 0.66921 0.0291 0.0
C343 C 0.84245 0.70451 0.97661 0.0
N344 N 0.86013 0.66673 0.00726 0.0
C345 C 0.93571 0.70971 0.01973 0.0
C346 C 0.91807 0.7481 0.98806 0.0
C347 C 0.84203 0.59216 0.13937 0.0
C348 C 0.6535 0.51242 0.1325 0.0
C349 C 0.74337 0.513 0.18396 0.0
C350 C 0.70038 0.51931 0.21411 0.0
C351 C 0.65519 0.51915 0.18808 0.0
N352 N 0.74147 0.507 0.12934 0.0
C353 C 0.69725 0.5062 0.10366 0.0
Co354 Co 0.49308 0.20187 0.90052 0.0
Co355 Co 0.6039 0.17962 0.96569 0.0
O356 O 0.54705 0.2217 0.94751 0.0
C357 C 0.43999 0.23296 0.00098 0.0
O358 O 0.46884 0.20441 0.02959 0.0
C359 C 0.6429 0.28169 0.94482 0.0
O360 O 0.59906 0.29694 0.93081 0.0
O361 O 0.61387 0.16313 0.88847 0.0
O362 O 0.53999 0.16915 0.84889 0.0
H363 H 0.70106 0.02195 0.95317 0.0
H364 H 0.49752 0.30759 0.93045 0.0
O365 O 0.44477 0.23555 0.95013 0.0
H366 H 0.51132 0.30291 0.73265 0.0
H367 H 0.32798 0.22375 0.81315 0.0
H368 H 0.4659 0.10917 0.84577 0.0
H369 H 0.50181 0.22645 0.78401 0.0
H370 H 0.40174 0.25144 0.86119 0.0
O371 O 0.65058 0.23667 0.95711 0.0
H372 H 0.63061 0.0773 0.9368 0.0
H373 H 0.69952 0.19083 0.02531 0.0
H374 H 0.39326 0.08006 0.79689 0.0
H375 H 0.50601 0.38504 0.88058 0.0
H376 H 0.32294 0.13716 0.78185 0.0
H377 H 0.51341 0.38299 0.78094 0.0
O378 O 0.48619 0.13973 0.94098 0.0
H379 H 0.55514 0.29155 0.1197 0.0
H380 H 0.62212 0.12824 0.07162 0.0
H381 H 0.60954 0.14963 0.16658 0.0
H382 H 0.57565 0.23176 0.19153 0.0
H383 H 0.56866 0.26909 0.02524 0.0
H384 H 0.77115 0.1372 0.04148 0.0
H385 H 0.77212 0.0518 0.00578 0.0
O386 O 0.55926 0.12139 0.97611 0.0
C387 C 0.58595 0.15944 0.84771 0.0
C388 C 0.70094 0.05897 0.96931 0.0
C389 C 0.74034 0.12369 0.01867 0.0
N390 N 0.66026 0.13722 0.98093 0.0
C391 C 0.66093 0.09044 0.96055 0.0
C392 C 0.69968 0.15412 0.00908 0.0
C393 C 0.74084 0.07577 -0.00131 0.0
C394 C 0.50016 0.3064 0.8871 0.0
N395 N 0.49961 0.26245 0.86035 0.0
C396 C 0.50521 0.35038 0.85907 0.0
C397 C 0.50944 0.3492 0.80318 0.0
C398 C 0.50837 0.30428 0.77608 0.0
C399 C 0.5033 0.26104 0.80546 0.0
C400 C 0.35829 0.19845 0.81978 0.0
C401 C 0.43634 0.13468 0.83758 0.0
C402 C 0.40029 0.21398 0.84669 0.0
N403 N 0.43849 0.18207 0.8557 0.0
C404 C 0.39495 0.11782 0.81058 0.0
C405 C 0.35547 0.14986 0.80224 0.0
C406 C 0.51412 0.1112 0.96761 0.0
C407 C 0.56957 0.25546 0.10939 0.0
C408 C 0.60696 0.16395 0.0814 0.0
C409 C 0.60011 0.17593 0.13566 0.0
C410 C 0.58113 0.22197 0.14965 0.0
N411 N 0.59516 0.19671 0.04178 0.0
C412 C 0.57698 0.2422 0.05557 0.0
Co413 Co 0.18098 0.39652 0.02421 0.0
Co414 Co 0.18881 0.50536 0.09698 0.0
O415 O 0.21528 0.45618 0.04647 0.0
C416 C 0.27816 0.35927 0.06199 0.0
O417 O 0.27356 0.38702 0.1051 0.0
C418 C 0.21766 0.56436 0.00013 0.0
O419 O 0.19675 0.53309 0.96732 0.0
O420 O 0.12476 0.5077 0.05877 0.0
O421 O 0.11632 0.43274 0.02234 0.0
H422 H 0.05658 0.58042 0.21315 0.0
H423 H 0.26904 0.4254 0.96181 0.0
O424 O 0.24497 0.35909 0.0261 0.0
H425 H 0.13315 0.42507 0.83135 0.0
H426 H 0.17209 0.23398 0.92685 0.0
H427 H 0.07925 0.35515 0.03545 0.0
H428 H 0.11832 0.40469 0.92647 0.0
H429 H 0.21091 0.31025 0.95629 0.0
O430 O 0.21478 0.55891 0.05082 0.0
H431 H 0.09714 0.5141 0.16087 0.0
H432 H 0.22145 0.60403 0.13651 0.0
H433 H 0.03915 0.27959 0.00657 0.0
H434 H 0.28577 0.44428 0.86659 0.0
H435 H 0.08557 0.2179 0.95203 0.0
H436 H 0.21746 0.44465 0.80073 0.0
O437 O 0.16874 0.37859 0.10124 0.0
H438 H 0.37285 0.50352 0.10877 0.0
H439 H 0.21854 0.51257 0.21262 0.0
H440 H 0.2975 0.51622 0.26028 0.0
H441 H 0.37547 0.51121 0.20835 0.0
H442 H 0.29307 0.50094 0.06263 0.0
H443 H 0.18128 0.67167 0.18686 0.0
H444 H 0.09753 0.66051 0.22422 0.0
O445 O 0.16496 0.45139 0.14553 0.0
C446 C 0.09959 0.47532 0.03476 0.0
C447 C 0.09263 0.58586 0.19626 0.0
C448 C 0.16265 0.63712 0.18153 0.0
N449 N 0.16161 0.55507 0.14545 0.0
C450 C 0.11614 0.54823 0.16727 0.0
C451 C 0.18522 0.5986 0.15307 0.0
C452 C 0.11571 0.63084 0.20252 0.0
C453 C 0.23922 0.42481 0.93327 0.0
N454 N 0.1928 0.41374 0.94971 0.0
C455 C 0.24888 0.43573 0.87943 0.0
C456 C 0.21053 0.43602 0.84251 0.0
C457 C 0.16321 0.42511 0.85968 0.0
C458 C 0.155 0.41388 0.91371 0.0
C459 C 0.15172 0.2601 0.95151 0.0
C460 C 0.10044 0.32849 0.01301 0.0
C461 C 0.17377 0.30332 0.96909 0.0
N462 N 0.14854 0.33659 0.00055 0.0
C463 C 0.07718 0.2857 0.99616 0.0
C464 C 0.10317 0.25117 0.96548 0.0
C465 C 0.16121 0.40436 0.14387 0.0
C466 C 0.33915 0.50528 0.13192 0.0
C467 C 0.25224 0.5105 0.18963 0.0
C468 C 0.29689 0.51255 0.2169 0.0
C469 C 0.3406 0.50971 0.18776 0.0
N470 N 0.25104 0.50535 0.13491 0.0
C471 C 0.2938 0.50345 0.10603 0.0
C472 C 0.1744 0.39555 0.24303 0.0
C473 C 0.15056 0.37898 0.19602 0.0
C474 C 0.10724 0.32036 0.25306 0.0
C475 C 0.12049 0.34735 0.2997 0.0
N476 N 0.15977 0.42012 0.33438 0.0
N477 N 0.08887 0.3254 0.15861 0.0
C478 C 0.15246 0.38755 0.2936 0.0
C479 C 0.11549 0.34101 0.20143 0.0
N480 N 0.2195 0.41603 0.23984 0.0
N481 N 0.08969 0.27396 0.25771 0.0
H482 H 0.09287 0.34024 0.12069 0.0
H483 H 0.05988 0.30102 0.16233 0.0
H484 H 0.08932 0.2559 0.29456 0.0
H485 H 0.08251 0.25158 0.22455 0.0
H486 H 0.23928 0.42612 0.27396 0.0
H487 H 0.23912 0.41591 0.20373 0.0
H488 H 0.18129 0.45127 0.32975 0.0
H489 H 0.13855 0.41966 0.36912 0.0
C490 C 0.33834 0.86871 0.73034 0.0
C491 C 0.36101 0.91183 0.71021 0.0
C492 C 0.39887 0.92317 0.79895 0.0
C493 C 0.38515 0.87519 0.81379 0.0
N494 N 0.34804 0.79833 0.78836 0.0
N495 N 0.42261 0.97448 0.72571 0.0
C496 C 0.35656 0.84672 0.7781 0.0
C497 C 0.39374 0.93786 0.74468 0.0
N498 N 0.2977 0.85013 0.70602 0.0
N499 N 0.41617 0.95519 0.83675 0.0
H500 H 0.42427 0.98409 0.68562 0.0
H501 H 0.44987 0.99091 0.7487 0.0
H502 H 0.41857 0.94642 0.87746 0.0
H503 H 0.42254 0.99211 0.82863 0.0
H504 H 0.27811 0.8209 0.7219 0.0
H505 H 0.27969 0.86798 0.67468 0.0
H506 H 0.33124 0.77522 0.76057 0.0
H507 H 0.36196 0.78014 0.82193 0.0
C508 C 0.93016 0.60745 0.25527 0.0
C509 C 0.90608 0.64471 0.28741 0.0
C510 C 0.83879 0.64662 0.22132 0.0
C511 C 0.86444 0.61219 0.18873 0.0
N512 N 0.94059 0.5711 0.16669 0.0
N513 N 0.84673 0.71191 0.2862 0.0
C514 C 0.91196 0.59615 0.20326 0.0
C515 C 0.86289 0.66776 0.26627 0.0
N516 N 0.96898 0.58067 0.2741 0.0
N517 N 0.79115 0.6588 0.21002 0.0
H518 H 0.86674 0.73209 0.31386 0.0
H519 H 0.81766 0.73176 0.26945 0.0
H520 H 0.77236 0.64431 0.17717 0.0
H521 H 0.76922 0.67987 0.23598 0.0
H522 H 0.98142 0.54834 0.25562 0.0
H523 H 0.98658 0.58729 0.30989 0.0
H524 H 0.97759 0.56302 0.1729 0.0
H525 H 0.92894 0.56277 0.1278 0.0
C526 C 0.58652 0.10968 0.76195 0.0
C527 C 0.60868 0.14554 0.79511 0.0
C528 C 0.6753 0.15263 0.72883 0.0
C529 C 0.65017 0.12045 0.69367 0.0
N530 N 0.57294 0.0843 0.67024 0.0
N531 N 0.6674 0.2113 0.80189 0.0
C532 C 0.60303 0.1037 0.70824 0.0
C533 C 0.65125 0.17002 0.77631 0.0
N534 N 0.5515 0.07949 0.78222 0.0
N535 N 0.72237 0.16579 0.71786 0.0
H536 H 0.64928 0.2272 0.83475 0.0
H537 H 0.6955 0.23288 0.78673 0.0
H538 H 0.74093 0.15406 0.68342 0.0
H539 H 0.74407 0.18489 0.74513 0.0
H540 H 0.53683 0.05055 0.7601 0.0
H541 H 0.5421 0.07947 0.82292 0.0
H542 H 0.53661 0.0751 0.67824 0.0
H543 H 0.5827 0.0831 0.62964 0.0
C544 C 0.2153 0.09555 0.44579 0.0
C545 C 0.26506 0.10609 0.45647 0.0
C546 C 0.24934 0.19303 0.43645 0.0
C547 C 0.1982 0.18368 0.43447 0.0
N548 N 0.13174 0.12664 0.44391 0.0
N549 N 0.3301 0.16455 0.4644 0.0
C550 C 0.18093 0.13494 0.43999 0.0
C551 C 0.2824 0.15474 0.45198 0.0
N552 N 0.20085 0.04779 0.44206 0.0
N553 N 0.26632 0.23823 0.42237 0.0
H554 H 0.35573 0.13695 0.47323 0.0
H555 H 0.3436 0.19996 0.46863 0.0
H556 H 0.24319 0.26674 0.40976 0.0
H557 H 0.30341 0.24616 0.41837 0.0
H558 H 0.16605 0.03749 0.42945 0.0
H559 H 0.22526 0.0183 0.44671 0.0
H560 H 0.11704 0.09273 0.45378 0.0
H561 H 0.10556 0.15475 0.44234 0.0
C562 C 0.16048 0.8187 0.57731 0.0
C563 C 0.19355 0.8361 0.53726 0.0
C564 C 0.13836 0.80607 0.46742 0.0
C565 C 0.10748 0.78454 0.50658 0.0
N566 N 0.09481 0.7625 0.59936 0.0
N567 N 0.2197 0.8295 0.44359 0.0
C568 C 0.12002 0.78876 0.56185 0.0
C569 C 0.18462 0.82421 0.48238 0.0
N570 N 0.16802 0.83 0.63022 0.0
N571 N 0.12251 0.81269 0.41601 0.0
H572 H 0.25498 0.84089 0.45095 0.0
H573 H 0.21552 0.81626 0.40444 0.0
H574 H 0.08792 0.80281 0.40363 0.0
H575 H 0.14134 0.83348 0.38771 0.0
H576 H 0.14204 0.82406 0.66025 0.0
H577 H 0.19956 0.84717 0.64391 0.0
H578 H 0.10523 0.76006 0.63954 0.0
H579 H 0.06604 0.7393 0.58943 0.0
C580 C 0.82816 0.91503 0.46051 0.0
C581 C 0.77692 0.91025 0.46777 0.0
C582 C 0.78296 0.82392 0.43872 0.0
C583 C 0.83495 0.82701 0.43901 0.0
N584 N 0.90735 0.87389 0.45903 0.0
N585 N 0.70522 0.85928 0.46846 0.0
C586 C 0.85773 0.87226 0.4518 0.0
C587 C 0.75409 0.86453 0.45775 0.0
N588 N 0.84844 0.96066 0.46107 0.0
N589 N 0.76116 0.78269 0.41889 0.0
H590 H 0.6826 0.88836 0.48109 0.0
H591 H 0.68777 0.82548 0.4684 0.0
H592 H 0.78109 0.75256 0.404 0.0
H593 H 0.72354 0.78007 0.41261 0.0
H594 H 0.88495 0.96703 0.45108 0.0
H595 H 0.8274 0.9927 0.46595 0.0
H596 H 0.9253 0.90467 0.47379 0.0
H597 H 0.93013 0.84301 0.4556 0.0
C598 C 0.81134 0.2491 0.54656 0.0
C599 C 0.82477 0.19931 0.55593 0.0
C600 C 0.91132 0.22226 0.55317 0.0
C601 C 0.89789 0.26925 0.53319 0.0
N602 N 0.83346 0.32446 0.50252 0.0
N603 N 0.88876 0.13698 0.55907 0.0
C604 C 0.84744 0.2823 0.52818 0.0
C605 C 0.87515 0.18543 0.55753 0.0
N606 N 0.76432 0.265 0.55607 0.0
N607 N 0.95883 0.21279 0.56758 0.0
H608 H 0.86362 0.10853 0.55832 0.0
H609 H 0.92503 0.12492 0.55501 0.0
H610 H 0.98597 0.23945 0.56575 0.0
H611 H 0.96992 0.18047 0.58656 0.0
H612 H 0.75378 0.3019 0.55429 0.0
H613 H 0.73727 0.24226 0.57159 0.0
H614 H 0.79709 0.3323 0.49252 0.0
H615 H 0.85808 0.34949 0.48666 0.0
C616 C 0.28422 0.6018 0.94114 0.0
C617 C 0.24632 0.60697 0.98042 0.0
C618 C 0.28164 0.68431 0.00999 0.0
C619 C 0.31653 0.68218 0.96739 0.0
N620 N 0.34024 0.64466 0.88254 0.0
N621 N 0.19994 0.6625 0.03771 0.0
C622 C 0.31446 0.64277 0.92969 0.0
C623 C 0.24186 0.65161 0.00959 0.0
N624 N 0.29382 0.5575 0.91716 0.0
N625 N 0.28844 0.71412 0.05355 0.0
H626 H 0.16924 0.63997 0.03655 0.0
H627 H 0.19411 0.69628 0.05687 0.0
H628 H 0.32054 0.73358 0.05949 0.0
H629 H 0.26542 0.7138 0.08716 0.0
H630 H 0.32433 0.55118 0.89254 0.0
H631 H 0.27434 0.52598 0.9258 0.0
H632 H 0.33658 0.61848 0.85208 0.0
H633 H 0.36069 0.67505 0.87128 0.0
C634 C 0.6404 0.68979 0.08293 0.0
C635 C 0.67826 0.68757 0.04318 0.0
C636 C 0.64381 0.76223 0.0035 0.0
C637 C 0.60039 0.75736 0.03421 0.0
N638 N 0.55565 0.71231 0.10154 0.0
N639 N 0.70608 0.71615 0.95616 0.0
C640 C 0.59821 0.72026 0.07402 0.0
C641 C 0.6778 0.72264 0.0011 0.0
N642 N 0.64512 0.664 0.12965 0.0
N643 N 0.65265 0.8047 0.97654 0.0
H644 H 0.72588 0.68392 0.94851 0.0
H645 H 0.70392 0.73965 0.9232 0.0
H646 H 0.62925 0.83529 0.97971 0.0
H647 H 0.68573 0.81095 0.95663 0.0
H648 H 0.62028 0.66746 0.16147 0.0
H649 H 0.67663 0.64372 0.1391 0.0
H650 H 0.55087 0.68225 0.12673 0.0
H651 H 0.52395 0.73344 0.09601 0.0
C652 C 0.75151 0.35248 0.0011 0.0
C653 C 0.74946 0.39561 0.96975 0.0
C654 C 0.68832 0.35634 0.91218 0.0
C655 C 0.68259 0.31858 0.95108 0.0
N656 N 0.70256 0.28974 0.04074 0.0
N657 N 0.71265 0.44041 0.89634 0.0
C658 C 0.71295 0.31851 0.99751 0.0
C659 C 0.71738 0.39798 0.92499 0.0
N660 N 0.79014 0.34416 0.03481 0.0
N661 N 0.66696 0.35209 0.86277 0.0
H662 H 0.73327 0.47152 0.90438 0.0
H663 H 0.68573 0.44576 0.86721 0.0
H664 H 0.64724 0.32124 0.85115 0.0
H665 H 0.67335 0.37658 0.83153 0.0
H666 H 0.79491 0.31129 0.05564 0.0
H667 H 0.81988 0.36785 0.03699 0.0
H668 H 0.72165 0.29203 0.07695 0.0
H669 H 0.67115 0.26874 0.0433 0.0
C670 C 0.35357 0.24334 0.03481 0.0
C671 C 0.40091 0.26318 0.02714 0.0
C672 C 0.36881 0.34599 0.04691 0.0
C673 C 0.32145 0.32616 0.05499 0.0
N674 N 0.27046 0.25557 0.0683 0.0
N675 N 0.4564 0.33044 0.038 0.0
C676 C 0.31438 0.27461 0.0525 0.0
C677 C 0.4094 0.31363 0.03729 0.0
N678 N 0.34581 0.19489 0.02353 0.0
N679 N 0.37451 0.39577 0.04512 0.0
H680 H 0.48671 0.30745 0.03114 0.0
H681 H 0.46567 0.36576 0.05018 0.0
H682 H 0.34558 0.4206 0.05122 0.0
H683 H 0.40692 0.41254 0.03345 0.0
H684 H 0.31117 0.17938 0.02129 0.0
H685 H 0.3743 0.17044 0.0139 0.0
H686 H 0.26423 0.21812 0.07227 0.0
H687 H 0.24121 0.2774 0.08208 0.0
C688 C 0.01642 0.53121 0.51583 0.0
C689 C 0.99491 0.55091 0.46839 0.0
C690 C 0.01328 0.47438 0.42142 0.0
C691 C 0.02754 0.45135 0.46971 0.0
N692 N 0.0367 0.45693 0.56594 0.0
N693 N 0.95668 0.53179 0.38312 0.0
C694 C 0.0277 0.47954 0.51809 0.0
C695 C 0.98794 0.51955 0.4236 0.0
N696 N 0.0254 0.56142 0.55855 0.0
N697 N 0.02707 0.4552 0.37287 0.0
H698 H 0.93611 0.56415 0.38288 0.0
H699 H 0.94812 0.50708 0.35237 0.0
H700 H 0.05015 0.42451 0.36968 0.0
H701 H 0.02032 0.47334 0.33668 0.0
H702 H 0.04501 0.55019 0.59232 0.0
H703 H 0.01549 0.59859 0.5586 0.0
H704 H 0.03338 0.47468 0.60302 0.0
H705 H 0.04336 0.41922 0.56851 0.0
C706 C 0.55038 0.98808 0.57835 0.0
C707 C 0.57173 0.01154 0.5331 0.0
C708 C 0.48993 0.01807 0.49183 0.0
C709 C 0.46953 0.9924 0.53596 0.0
N710 N 0.48374 0.94162 0.61431 0.0
N711 N 0.5637 0.03395 0.44017 0.0
C712 C 0.50092 0.97331 0.5765 0.0
C713 C 0.54195 0.0226 0.48791 0.0
N714 N 0.57577 0.98332 0.62528 0.0
N715 N 0.45992 0.03728 0.45321 0.0
H716 H 0.60163 0.0317 0.43516 0.0
H717 H 0.54446 0.03902 0.40446 0.0
H718 H 0.42209 0.03208 0.45309 0.0
H719 H 0.47227 0.06076 0.42325 0.0
H720 H 0.56019 0.97143 0.6612 0.0
H721 H 0.61012 0.99808 0.6308 0.0
H722 H 0.5067 0.92097 0.63919 0.0
H723 H 0.44697 0.93343 0.61894 0.0
C724 C 0.52447 0.02965 0.01657 0.0
C725 C 0.49398 0.06225 0.98656 0.0
C726 C 0.43219 0.99716 0.98762 0.0
C727 C 0.46918 0.96123 0.99839 0.0
N728 N 0.55005 0.9463 0.03525 0.0
N729 N 0.4111 0.0758 0.95128 0.0
C730 C 0.51558 0.97826 0.0158 0.0
C731 C 0.44571 0.04572 0.97381 0.0
N732 N 0.5574 0.04838 0.0519 0.0
N733 N 0.38399 0.98726 0.99693 0.0
H734 H 0.41073 0.11381 0.95452 0.0
H735 H 0.38035 0.06187 0.93179 0.0
H736 H 0.37327 0.95691 0.01892 0.0
H737 H 0.35579 0.01313 0.99255 0.0
H738 H 0.57925 0.02693 0.07709 0.0
H739 H 0.55482 0.08512 0.06315 0.0
H740 H 0.58649 0.95623 0.04114 0.0
H741 H 0.54205 0.91035 0.04605 0.0
C742 C 0.01147 0.45442 0.05025 0.0
C743 C 0.04633 0.48552 0.0259 0.0
C744 C 0.97859 0.53168 0.98335 0.0
C745 C 0.94415 0.50234 0.01119 0.0
N746 N 0.93183 0.41876 0.04044 0.0
N747 N 0.06366 0.55466 0.96902 0.0
C748 C 0.96156 0.45845 0.03556 0.0
C749 C 0.03007 0.52449 0.99218 0.0
N750 N 0.02524 0.42289 0.09014 0.0
N751 N 0.96198 0.56189 0.94371 0.0
H752 H 0.10135 0.54856 0.97191 0.0
H753 H 0.05451 0.58701 0.94907 0.0
H754 H 0.92619 0.55894 0.9298 0.0
H755 H 0.98413 0.5835 0.91961 0.0
H756 H 1.00002 0.40271 0.11226 0.0
H757 H 0.06088 0.42132 0.10515 0.0
H758 H 0.89778 0.41703 0.02163 0.0
H759 H 0.94427 0.38502 0.05517 0.0
loop_
_geom_bond_atom_site_label_1
_geom_bond_atom_site_label_2
_geom_bond_distance
_geom_bond_site_symmetry_2
_ccdc_geom_bond_type
Co0 O2 2.143 . S
Co0 O8 2.074 . S
Co0 O11 2.093 1_455 S
Co0 O24 2.097 . S
Co0 N41 2.151 . S
Co0 N49 2.214 1_455 S
Co1 O2 2.160 . S
Co1 O7 2.058 . S
Co1 O17 2.057 . S
Co1 O32 2.037 . S
Co1 N36 2.145 . S
Co1 N57 2.257 . S
O2 Co0 2.143 . S
O2 Co1 2.160 . S
C3 O4 1.278 . S
C3 O11 1.224 . S
O4 C3 1.278 . S
C5 O6 1.245 . S
C5 O17 1.232 . S
O6 C5 1.245 . S
O7 Co1 2.058 . S
O7 C33 1.269 . S
O8 Co0 2.074 . S
O8 C33 1.257 . S
H9 C34 0.930 . S
H10 C40 0.930 . S
O11 Co0 2.093 1_655 S
O11 C3 1.224 . S
H12 C44 0.928 1_455 S
H13 C46 0.930 . S
H14 C47 0.930 . S
H15 C45 0.929 . S
H16 C48 0.928 . S
O17 Co1 2.057 . S
O17 C5 1.232 . S
H18 C37 0.929 . S
H19 C38 0.929 . S
H20 C50 0.931 . S
H21 C42 0.929 . S
H22 C51 0.930 . S
H23 C43 0.931 . S
O24 Co0 2.097 . S
O24 C52 1.214 . S
H25 C53 0.929 . S
H26 C54 0.929 . S
H27 C55 0.930 . S
H28 C56 0.929 . S
H29 C58 0.930 . S
H30 C35 0.930 . S
H31 C39 0.930 . S
O32 Co1 2.037 . S
O32 C52 1.234 . S
C33 O7 1.269 . S
C33 O8 1.257 . S
C34 H9 0.930 . S
C34 C37 1.388 . S
C34 C39 1.418 . S
C35 H30 0.930 . S
C35 C38 1.404 . S
C35 C39 1.353 . S
N36 Co1 2.145 . S
N36 C37 1.397 . S
N36 C38 1.334 . S
C37 H18 0.929 . S
C37 C34 1.388 . S
C37 N36 1.397 . S
C38 H19 0.929 . S
C38 C35 1.404 . S
C38 N36 1.334 . S
C39 H31 0.930 . S
C39 C34 1.418 . S
C39 C35 1.353 . S
C40 H10 0.930 . S
C40 N41 1.326 1_655 S
C40 C42 1.446 . S
N41 Co0 2.151 . S
N41 C40 1.326 1_455 S
N41 C45 1.418 . S
C42 H21 0.929 . S
C42 C40 1.446 . S
C42 C43 1.332 . S
C43 H23 0.931 . S
C43 C42 1.332 . S
C43 C44 1.267 . S
C44 H12 0.928 1_655 S
C44 C43 1.267 . S
C44 C45 1.251 1_655 S
C45 H15 0.929 . S
C45 N41 1.418 . S
C45 C44 1.251 1_455 S
C46 H13 0.930 . S
C46 C48 1.406 . S
C46 C51 1.261 . S
C47 H14 0.930 . S
C47 N49 1.325 . S
C47 C50 1.357 . S
C48 H16 0.928 . S
C48 C46 1.406 . S
C48 N49 1.261 . S
N49 Co0 2.214 1_655 S
N49 C47 1.325 . S
N49 C48 1.261 . S
C50 H20 0.931 . S
C50 C47 1.357 . S
C50 C51 1.312 . S
C51 H22 0.930 . S
C51 C46 1.261 . S
C51 C50 1.312 . S
C52 O24 1.214 . S
C52 O32 1.234 . S
C53 H25 0.929 . S
C53 C56 1.391 . S
C53 C58 1.391 . S
C54 H26 0.929 . S
C54 C55 1.390 . S
C54 N57 1.391 . S
C55 H27 0.930 . S
C55 C54 1.390 . S
C55 C56 1.392 . S
C56 H28 0.929 . S
C56 C53 1.391 . S
C56 C55 1.392 . S
N57 Co1 2.257 . S
N57 C54 1.391 . S
N57 C58 1.388 . S
C58 H29 0.930 . S
C58 C53 1.391 . S
C58 N57 1.388 . S
Co59 O61 2.143 . S
Co59 O67 2.074 . S
Co59 O70 2.093 1_565 S
Co59 O83 2.097 . S
Co59 N100 2.152 . S
Co59 N108 2.214 1_565 S
Co60 O61 2.160 . S
Co60 O66 2.058 . S
Co60 O76 2.057 . S
Co60 O91 2.037 . S
Co60 N95 2.145 . S
Co60 N116 2.257 . S
O61 Co59 2.143 . S
O61 Co60 2.160 . S
C62 O63 1.278 . S
C62 O70 1.224 . S
O63 C62 1.278 . S
C64 O65 1.245 . S
C64 O76 1.232 . S
O65 C64 1.245 . S
O66 Co60 2.058 . S
O66 C92 1.269 . S
O67 Co59 2.074 . S
O67 C92 1.257 . S
H68 C93 0.930 . S
H69 C99 0.930 . S
O70 Co59 2.093 1_545 S
O70 C62 1.224 . S
H71 C103 0.927 1_565 S
H72 C105 0.930 . S
H73 C106 0.930 . S
H74 C104 0.929 . S
H75 C107 0.928 . S
O76 Co60 2.057 . S
O76 C64 1.232 . S
H77 C96 0.929 . S
H78 C97 0.929 . S
H79 C109 0.931 . S
H80 C101 0.929 . S
H81 C110 0.930 . S
H82 C102 0.931 . S
O83 Co59 2.097 . S
O83 C111 1.214 . S
H84 C112 0.929 . S
H85 C113 0.929 . S
H86 C114 0.930 . S
H87 C115 0.929 . S
H88 C117 0.930 . S
H89 C94 0.930 . S
H90 C98 0.930 . S
O91 Co60 2.037 . S
O91 C111 1.234 . S
C92 O66 1.269 . S
C92 O67 1.257 . S
C93 H68 0.930 . S
C93 C96 1.388 . S
C93 C98 1.418 . S
C94 H89 0.930 . S
C94 C97 1.404 . S
C94 C98 1.353 . S
N95 Co60 2.145 . S
N95 C96 1.397 . S
N95 C97 1.334 . S
C96 H77 0.929 . S
C96 C93 1.388 . S
C96 N95 1.397 . S
C97 H78 0.929 . S
C97 C94 1.404 . S
C97 N95 1.334 . S
C98 H90 0.930 . S
C98 C93 1.418 . S
C98 C94 1.353 . S
C99 H69 0.930 . S
C99 N100 1.324 1_545 S
C99 C101 1.446 . S
N100 Co59 2.152 . S
N100 C99 1.324 1_565 S
N100 C104 1.418 . S
C101 H80 0.929 . S
C101 C99 1.446 . S
C101 C102 1.332 . S
C102 H82 0.931 . S
C102 C101 1.332 . S
C102 C103 1.267 . S
C103 H71 0.927 1_545 S
C103 C102 1.267 . S
C103 C104 1.251 1_545 S
C104 H74 0.929 . S
C104 N100 1.418 . S
C104 C103 1.251 1_565 S
C105 H72 0.930 . S
C105 C107 1.406 . S
C105 C110 1.261 . S
C106 H73 0.930 . S
C106 N108 1.325 . S
C106 C109 1.357 . S
C107 H75 0.928 . S
C107 C105 1.406 . S
C107 N108 1.261 . S
N108 Co59 2.214 1_545 S
N108 C106 1.325 . S
N108 C107 1.261 . S
C109 H79 0.931 . S
C109 C106 1.357 . S
C109 C110 1.312 . S
C110 H81 0.930 . S
C110 C105 1.261 . S
C110 C109 1.312 . S
C111 O83 1.214 . S
C111 O91 1.234 . S
C112 H84 0.929 . S
C112 C115 1.391 . S
C112 C117 1.391 . S
C113 H85 0.929 . S
C113 C114 1.390 . S
C113 N116 1.391 . S
C114 H86 0.930 . S
C114 C113 1.390 . S
C114 C115 1.392 . S
C115 H87 0.929 . S
C115 C112 1.391 . S
C115 C114 1.392 . S
N116 Co60 2.257 . S
N116 C113 1.391 . S
N116 C117 1.388 . S
C117 H88 0.930 . S
C117 C112 1.391 . S
C117 N116 1.388 . S
Co118 O120 2.143 . S
Co118 O126 2.074 . S
Co118 O129 2.093 1_655 S
Co118 O142 2.097 . S
Co118 N159 2.151 . S
Co118 N167 2.214 1_655 S
Co119 O120 2.160 . S
Co119 O125 2.058 . S
Co119 O135 2.057 . S
Co119 O150 2.037 . S
Co119 N154 2.145 . S
Co119 N175 2.257 . S
O120 Co118 2.143 . S
O120 Co119 2.160 . S
C121 O122 1.278 . S
C121 O129 1.224 . S
O122 C121 1.278 . S
C123 O124 1.245 . S
C123 O135 1.232 . S
O124 C123 1.245 . S
O125 Co119 2.058 . S
O125 C151 1.269 . S
O126 Co118 2.074 . S
O126 C151 1.257 . S
H127 C152 0.930 . S
H128 C158 0.930 . S
O129 Co118 2.093 1_455 S
O129 C121 1.224 . S
H130 C162 0.928 1_655 S
H131 C164 0.930 . S
H132 C165 0.930 . S
H133 C163 0.929 . S
H134 C166 0.928 . S
O135 Co119 2.057 . S
O135 C123 1.232 . S
H136 C155 0.929 . S
H137 C156 0.929 . S
H138 C168 0.931 . S
H139 C160 0.929 . S
H140 C169 0.930 . S
H141 C161 0.931 . S
O142 Co118 2.097 . S
O142 C170 1.214 . S
H143 C171 0.929 . S
H144 C172 0.929 . S
H145 C173 0.930 . S
H146 C174 0.929 . S
H147 C176 0.930 . S
H148 C153 0.930 . S
H149 C157 0.930 . S
O150 Co119 2.037 . S
O150 C170 1.234 . S
C151 O125 1.269 . S
C151 O126 1.257 . S
C152 H127 0.930 . S
C152 C155 1.388 . S
C152 C157 1.418 . S
C153 H148 0.930 . S
C153 C156 1.404 . S
C153 C157 1.353 . S
N154 Co119 2.145 . S
N154 C155 1.397 . S
N154 C156 1.334 . S
C155 H136 0.929 . S
C155 C152 1.388 . S
C155 N154 1.397 . S
C156 H137 0.929 . S
C156 C153 1.404 . S
C156 N154 1.334 . S
C157 H149 0.930 . S
C157 C152 1.418 . S
C157 C153 1.353 . S
C158 H128 0.930 . S
C158 N159 1.326 1_455 S
C158 C160 1.446 . S
N159 Co118 2.151 . S
N159 C158 1.326 1_655 S
N159 C163 1.418 . S
C160 H139 0.929 . S
C160 C158 1.446 . S
C160 C161 1.332 . S
C161 H141 0.931 . S
C161 C160 1.332 . S
C161 C162 1.267 . S
C162 H130 0.928 1_455 S
C162 C161 1.267 . S
C162 C163 1.251 1_455 S
C163 H133 0.929 . S
C163 N159 1.418 . S
C163 C162 1.251 1_655 S
C164 H131 0.930 . S
C164 C166 1.406 . S
C164 C169 1.261 . S
C165 H132 0.930 . S
C165 N167 1.325 . S
C165 C168 1.357 . S
C166 H134 0.928 . S
C166 C164 1.406 . S
C166 N167 1.261 . S
N167 Co118 2.214 1_455 S
N167 C165 1.325 . S
N167 C166 1.261 . S
C168 H138 0.931 . S
C168 C165 1.357 . S
C168 C169 1.312 . S
C169 H140 0.930 . S
C169 C164 1.261 . S
C169 C168 1.312 . S
C170 O142 1.214 . S
C170 O150 1.234 . S
C171 H143 0.929 . S
C171 C174 1.391 . S
C171 C176 1.391 . S
C172 H144 0.929 . S
C172 C173 1.390 . S
C172 N175 1.391 . S
C173 H145 0.930 . S
C173 C172 1.390 . S
C173 C174 1.392 . S
C174 H146 0.929 . S
C174 C171 1.391 . S
C174 C173 1.392 . S
N175 Co119 2.257 . S
N175 C172 1.391 . S
N175 C176 1.388 . S
C176 H147 0.930 . S
C176 C171 1.391 . S
C176 N175 1.388 . S
Co177 O179 2.143 . S
Co177 O185 2.074 . S
Co177 O188 2.093 1_545 S
Co177 O201 2.097 . S
Co177 N218 2.152 . S
Co177 N226 2.214 1_545 S
Co178 O179 2.160 . S
Co178 O184 2.058 . S
Co178 O194 2.057 . S
Co178 O209 2.037 . S
Co178 N213 2.145 . S
Co178 N234 2.257 . S
O179 Co177 2.143 . S
O179 Co178 2.160 . S
C180 O181 1.278 . S
C180 O188 1.224 . S
O181 C180 1.278 . S
C182 O183 1.245 . S
C182 O194 1.232 . S
O183 C182 1.245 . S
O184 Co178 2.058 . S
O184 C210 1.269 . S
O185 Co177 2.074 . S
O185 C210 1.257 . S
H186 C211 0.930 . S
H187 C217 0.930 . S
O188 Co177 2.093 1_565 S
O188 C180 1.224 . S
H189 C221 0.927 1_545 S
H190 C223 0.930 . S
H191 C224 0.930 . S
H192 C222 0.929 . S
H193 C225 0.928 . S
O194 Co178 2.057 . S
O194 C182 1.232 . S
H195 C214 0.929 . S
H196 C215 0.929 . S
H197 C227 0.931 . S
H198 C219 0.929 . S
H199 C228 0.930 . S
H200 C220 0.931 . S
O201 Co177 2.097 . S
O201 C229 1.214 . S
H202 C230 0.929 . S
H203 C231 0.929 . S
H204 C232 0.930 . S
H205 C233 0.929 . S
H206 C235 0.930 . S
H207 C212 0.930 . S
H208 C216 0.930 . S
O209 Co178 2.037 . S
O209 C229 1.234 . S
C210 O184 1.269 . S
C210 O185 1.257 . S
C211 H186 0.930 . S
C211 C214 1.388 . S
C211 C216 1.418 . S
C212 H207 0.930 . S
C212 C215 1.404 . S
C212 C216 1.353 . S
N213 Co178 2.145 . S
N213 C214 1.397 . S
N213 C215 1.334 . S
C214 H195 0.929 . S
C214 C211 1.388 . S
C214 N213 1.397 . S
C215 H196 0.929 . S
C215 C212 1.404 . S
C215 N213 1.334 . S
C216 H208 0.930 . S
C216 C211 1.418 . S
C216 C212 1.353 . S
C217 H187 0.930 . S
C217 N218 1.324 1_565 S
C217 C219 1.446 . S
N218 Co177 2.152 . S
N218 C217 1.324 1_545 S
N218 C222 1.418 . S
C219 H198 0.929 . S
C219 C217 1.446 . S
C219 C220 1.332 . S
C220 H200 0.931 . S
C220 C219 1.332 . S
C220 C221 1.267 . S
C221 H189 0.927 1_565 S
C221 C220 1.267 . S
C221 C222 1.251 1_565 S
C222 H192 0.929 . S
C222 N218 1.418 . S
C222 C221 1.251 1_545 S
C223 H190 0.930 . S
C223 C225 1.406 . S
C223 C228 1.261 . S
C224 H191 0.930 . S
C224 N226 1.325 . S
C224 C227 1.357 . S
C225 H193 0.928 . S
C225 C223 1.406 . S
C225 N226 1.261 . S
N226 Co177 2.214 1_565 S
N226 C224 1.325 . S
N226 C225 1.261 . S
C227 H197 0.931 . S
C227 C224 1.357 . S
C227 C228 1.312 . S
C228 H199 0.930 . S
C228 C223 1.261 . S
C228 C227 1.312 . S
C229 O201 1.214 . S
C229 O209 1.234 . S
C230 H202 0.929 . S
C230 C233 1.391 . S
C230 C235 1.391 . S
C231 H203 0.929 . S
C231 C232 1.390 . S
C231 N234 1.391 . S
C232 H204 0.930 . S
C232 C231 1.390 . S
C232 C233 1.392 . S
C233 H205 0.929 . S
C233 C230 1.391 . S
C233 C232 1.392 . S
N234 Co178 2.257 . S
N234 C231 1.391 . S
N234 C235 1.388 . S
C235 H206 0.930 . S
C235 C230 1.391 . S
C235 N234 1.388 . S
Co236 O238 2.143 . S
Co236 O244 2.074 . S
Co236 O247 2.093 . S
Co236 O260 2.097 . S
Co236 N277 2.151 . S
Co236 N285 2.214 . S
Co237 O238 2.160 . S
Co237 O243 2.058 . S
Co237 O253 2.053 1_556 S
Co237 O268 2.037 . S
Co237 N272 2.145 1_556 S
Co237 N293 2.257 1_556 S
O238 Co236 2.143 . S
O238 Co237 2.160 . S
C239 O240 1.278 1_556 S
C239 O247 1.224 . S
O240 C239 1.278 1_554 S
C241 O242 1.245 . S
C241 O253 1.227 1_556 S
O242 C241 1.245 . S
O243 Co237 2.058 . S
O243 C269 1.269 . S
O244 Co236 2.074 . S
O244 C269 1.257 . S
H245 C270 0.926 1_556 S
H246 C276 0.930 . S
O247 Co236 2.093 . S
O247 C239 1.224 . S
H248 C280 0.929 . S
H249 C282 0.930 . S
H250 C283 0.930 . S
H251 C281 0.929 . S
H252 C284 0.928 . S
O253 Co237 2.053 1_554 S
O253 C241 1.227 1_554 S
H254 C273 0.929 . S
H255 C274 0.929 . S
H256 C286 0.931 . S
H257 C278 0.929 . S
H258 C287 0.930 . S
H259 C279 0.931 . S
O260 Co236 2.097 . S
O260 C288 1.214 . S
H261 C289 0.929 . S
H262 C290 0.929 . S
H263 C291 0.930 . S
H264 C292 0.929 . S
H265 C294 0.930 . S
H266 C271 0.930 . S
H267 C275 0.930 . S
O268 Co237 2.037 . S
O268 C288 1.234 . S
C269 O243 1.269 . S
C269 O244 1.257 . S
C270 H245 0.926 1_554 S
C270 C273 1.388 1_554 S
C270 C275 1.418 . S
C271 H266 0.930 . S
C271 C274 1.404 . S
C271 C275 1.353 . S
N272 Co237 2.145 1_554 S
N272 C273 1.397 1_554 S
N272 C274 1.334 . S
C273 H254 0.929 . S
C273 C270 1.388 1_556 S
C273 N272 1.397 1_556 S
C274 H255 0.929 . S
C274 C271 1.404 . S
C274 N272 1.334 . S
C275 H267 0.930 . S
C275 C270 1.418 . S
C275 C271 1.353 . S
C276 H246 0.930 . S
C276 N277 1.330 . S
C276 C278 1.446 . S
N277 Co236 2.151 . S
N277 C276 1.330 . S
N277 C281 1.418 . S
C278 H257 0.929 . S
C278 C276 1.446 . S
C278 C279 1.332 . S
C279 H259 0.931 . S
C279 C278 1.332 . S
C279 C280 1.267 . S
C280 H248 0.929 . S
C280 C279 1.267 . S
C280 C281 1.251 . S
C281 H251 0.929 . S
C281 N277 1.418 . S
C281 C280 1.251 . S
C282 H249 0.930 . S
C282 C284 1.406 . S
C282 C287 1.261 . S
C283 H250 0.930 . S
C283 N285 1.325 . S
C283 C286 1.357 . S
C284 H252 0.928 . S
C284 C282 1.406 . S
C284 N285 1.261 . S
N285 Co236 2.214 . S
N285 C283 1.325 . S
N285 C284 1.261 . S
C286 H256 0.931 . S
C286 C283 1.357 . S
C286 C287 1.312 . S
C287 H258 0.930 . S
C287 C282 1.261 . S
C287 C286 1.312 . S
C288 O260 1.214 . S
C288 O268 1.234 . S
C289 H261 0.929 . S
C289 C292 1.391 . S
C289 C294 1.391 . S
C290 H262 0.929 . S
C290 C291 1.390 . S
C290 N293 1.391 . S
C291 H263 0.930 . S
C291 C290 1.390 . S
C291 C292 1.392 . S
C292 H264 0.929 . S
C292 C289 1.391 . S
C292 C291 1.392 . S
N293 Co237 2.257 1_554 S
N293 C290 1.391 . S
N293 C294 1.388 . S
C294 H265 0.930 . S
C294 C289 1.391 . S
C294 N293 1.388 . S
Co295 O297 2.143 . S
Co295 O303 2.074 . S
Co295 O306 2.093 . S
Co295 O319 2.097 . S
Co295 N336 2.151 1_554 S
Co295 N344 2.214 . S
Co296 O297 2.160 . S
Co296 O302 2.058 . S
Co296 O312 2.057 . S
Co296 O327 2.037 . S
Co296 N331 2.145 . S
Co296 N352 2.257 . S
O297 Co295 2.143 . S
O297 Co296 2.160 . S
C298 O299 1.278 . S
C298 O306 1.224 . S
O299 C298 1.278 . S
C300 O301 1.245 1_554 S
C300 O312 1.232 . S
O301 C300 1.245 1_556 S
O302 Co296 2.058 . S
O302 C328 1.269 . S
O303 Co295 2.074 . S
O303 C328 1.257 . S
H304 C329 0.930 . S
H305 C335 0.930 . S
O306 Co295 2.093 . S
O306 C298 1.224 . S
H307 C339 0.929 . S
H308 C341 0.930 . S
H309 C342 0.930 . S
H310 C340 0.929 . S
H311 C343 0.928 . S
O312 Co296 2.057 . S
O312 C300 1.232 . S
H313 C332 0.929 . S
H314 C333 0.929 . S
H315 C345 0.931 . S
H316 C337 0.929 . S
H317 C346 0.930 . S
H318 C338 0.931 . S
O319 Co295 2.097 . S
O319 C347 1.214 . S
H320 C348 0.929 . S
H321 C349 0.929 . S
H322 C350 0.930 . S
H323 C351 0.929 . S
H324 C353 0.930 . S
H325 C330 0.930 . S
H326 C334 0.930 . S
O327 Co296 2.037 . S
O327 C347 1.234 . S
C328 O302 1.269 . S
C328 O303 1.257 . S
C329 H304 0.930 . S
C329 C332 1.388 . S
C329 C334 1.418 . S
C330 H325 0.930 . S
C330 C333 1.404 . S
C330 C334 1.353 . S
N331 Co296 2.145 . S
N331 C332 1.397 . S
N331 C333 1.334 . S
C332 H313 0.929 . S
C332 C329 1.388 . S
C332 N331 1.397 . S
C333 H314 0.929 . S
C333 C330 1.404 . S
C333 N331 1.334 . S
C334 H326 0.930 . S
C334 C329 1.418 . S
C334 C330 1.353 . S
C335 H305 0.930 . S
C335 N336 1.330 . S
C335 C337 1.446 . S
N336 Co295 2.151 1_556 S
N336 C335 1.330 . S
N336 C340 1.418 . S
C337 H316 0.929 . S
C337 C335 1.446 . S
C337 C338 1.332 . S
C338 H318 0.931 . S
C338 C337 1.332 . S
C338 C339 1.267 . S
C339 H307 0.929 . S
C339 C338 1.267 . S
C339 C340 1.251 . S
C340 H310 0.929 . S
C340 N336 1.418 . S
C340 C339 1.251 . S
C341 H308 0.930 . S
C341 C343 1.406 . S
C341 C346 1.261 1_556 S
C342 H309 0.930 . S
C342 N344 1.325 . S
C342 C345 1.357 . S
C343 H311 0.928 . S
C343 C341 1.406 . S
C343 N344 1.261 1_556 S
N344 Co295 2.214 . S
N344 C342 1.325 . S
N344 C343 1.261 1_554 S
C345 H315 0.931 . S
C345 C342 1.357 . S
C345 C346 1.312 . S
C346 H317 0.930 . S
C346 C341 1.261 1_554 S
C346 C345 1.312 . S
C347 O319 1.214 . S
C347 O327 1.234 . S
C348 H320 0.929 . S
C348 C351 1.391 . S
C348 C353 1.391 . S
C349 H321 0.929 . S
C349 C350 1.390 . S
C349 N352 1.391 . S
C350 H322 0.930 . S
C350 C349 1.390 . S
C350 C351 1.392 . S
C351 H323 0.929 . S
C351 C348 1.391 . S
C351 C350 1.392 . S
N352 Co296 2.257 . S
N352 C349 1.391 . S
N352 C353 1.388 . S
C353 H324 0.930 . S
C353 C348 1.391 . S
C353 N352 1.388 . S
Co354 O356 2.143 . S
Co354 O362 2.074 . S
Co354 O365 2.093 . S
Co354 O378 2.097 . S
Co354 N395 2.151 . S
Co354 N403 2.214 . S
Co355 O356 2.160 . S
Co355 O361 2.058 . S
Co355 O371 2.053 1_556 S
Co355 O386 2.037 . S
Co355 N390 2.145 1_556 S
Co355 N411 2.257 1_556 S
O356 Co354 2.143 . S
O356 Co355 2.160 . S
C357 O358 1.278 1_556 S
C357 O365 1.224 . S
O358 C357 1.278 1_554 S
C359 O360 1.245 . S
C359 O371 1.227 1_556 S
O360 C359 1.245 . S
O361 Co355 2.058 . S
O361 C387 1.269 . S
O362 Co354 2.074 . S
O362 C387 1.257 . S
H363 C388 0.926 1_556 S
H364 C394 0.930 . S
O365 Co354 2.093 . S
O365 C357 1.224 . S
H366 C398 0.929 . S
H367 C400 0.930 . S
H368 C401 0.930 . S
H369 C399 0.929 . S
H370 C402 0.928 . S
O371 Co355 2.053 1_554 S
O371 C359 1.227 1_554 S
H372 C391 0.929 . S
H373 C392 0.929 . S
H374 C404 0.931 . S
H375 C396 0.929 . S
H376 C405 0.930 . S
H377 C397 0.931 . S
O378 Co354 2.097 . S
O378 C406 1.214 . S
H379 C407 0.929 . S
H380 C408 0.929 . S
H381 C409 0.930 . S
H382 C410 0.929 . S
H383 C412 0.930 . S
H384 C389 0.930 . S
H385 C393 0.930 . S
O386 Co355 2.037 . S
O386 C406 1.234 . S
C387 O361 1.269 . S
C387 O362 1.257 . S
C388 H363 0.926 1_554 S
C388 C391 1.388 1_554 S
C388 C393 1.418 . S
C389 H384 0.930 . S
C389 C392 1.404 . S
C389 C393 1.353 . S
N390 Co355 2.145 1_554 S
N390 C391 1.397 1_554 S
N390 C392 1.334 . S
C391 H372 0.929 . S
C391 C388 1.388 1_556 S
C391 N390 1.397 1_556 S
C392 H373 0.929 . S
C392 C389 1.404 . S
C392 N390 1.334 . S
C393 H385 0.930 . S
C393 C388 1.418 . S
C393 C389 1.353 . S
C394 H364 0.930 . S
C394 N395 1.330 . S
C394 C396 1.446 . S
N395 Co354 2.151 . S
N395 C394 1.330 . S
N395 C399 1.418 . S
C396 H375 0.929 . S
C396 C394 1.446 . S
C396 C397 1.332 . S
C397 H377 0.931 . S
C397 C396 1.332 . S
C397 C398 1.267 . S
C398 H366 0.929 . S
C398 C397 1.267 . S
C398 C399 1.251 . S
C399 H369 0.929 . S
C399 N395 1.418 . S
C399 C398 1.251 . S
C400 H367 0.930 . S
C400 C402 1.406 . S
C400 C405 1.261 . S
C401 H368 0.930 . S
C401 N403 1.325 . S
C401 C404 1.357 . S
C402 H370 0.928 . S
C402 C400 1.406 . S
C402 N403 1.261 . S
N403 Co354 2.214 . S
N403 C401 1.325 . S
N403 C402 1.261 . S
C404 H374 0.931 . S
C404 C401 1.357 . S
C404 C405 1.312 . S
C405 H376 0.930 . S
C405 C400 1.261 . S
C405 C404 1.312 . S
C406 O378 1.214 . S
C406 O386 1.234 . S
C407 H379 0.929 . S
C407 C410 1.391 . S
C407 C412 1.391 . S
C408 H380 0.929 . S
C408 C409 1.390 . S
C408 N411 1.391 . S
C409 H381 0.930 . S
C409 C408 1.390 . S
C409 C410 1.392 . S
C410 H382 0.929 . S
C410 C407 1.391 . S
C410 C409 1.392 . S
N411 Co355 2.257 1_554 S
N411 C408 1.391 . S
N411 C412 1.388 . S
C412 H383 0.930 . S
C412 C407 1.391 . S
C412 N411 1.388 . S
Co413 O415 2.143 . S
Co413 O421 2.074 . S
Co413 O424 2.093 . S
Co413 O437 2.097 . S
Co413 N454 2.151 1_554 S
Co413 N462 2.214 . S
Co414 O415 2.160 . S
Co414 O420 2.058 . S
Co414 O430 2.057 . S
Co414 O445 2.037 . S
Co414 N449 2.145 . S
Co414 N470 2.257 . S
O415 Co413 2.143 . S
O415 Co414 2.160 . S
C416 O417 1.278 . S
C416 O424 1.224 . S
O417 C416 1.278 . S
C418 O419 1.245 1_554 S
C418 O430 1.232 . S
O419 C418 1.245 1_556 S
O420 Co414 2.058 . S
O420 C446 1.269 . S
O421 Co413 2.074 . S
O421 C446 1.257 . S
H422 C447 0.930 . S
H423 C453 0.930 . S
O424 Co413 2.093 . S
O424 C416 1.224 . S
H425 C457 0.929 . S
H426 C459 0.930 . S
H427 C460 0.930 . S
H428 C458 0.929 . S
H429 C461 0.928 . S
O430 Co414 2.057 . S
O430 C418 1.232 . S
H431 C450 0.929 . S
H432 C451 0.929 . S
H433 C463 0.931 . S
H434 C455 0.929 . S
H435 C464 0.930 . S
H436 C456 0.931 . S
O437 Co413 2.097 . S
O437 C465 1.214 . S
H438 C466 0.929 . S
H439 C467 0.929 . S
H440 C468 0.930 . S
H441 C469 0.929 . S
H442 C471 0.930 . S
H443 C448 0.930 . S
H444 C452 0.930 . S
O445 Co414 2.037 . S
O445 C465 1.234 . S
C446 O420 1.269 . S
C446 O421 1.257 . S
C447 H422 0.930 . S
C447 C450 1.388 . S
C447 C452 1.418 . S
C448 H443 0.930 . S
C448 C451 1.404 . S
C448 C452 1.353 . S
N449 Co414 2.145 . S
N449 C450 1.397 . S
N449 C451 1.334 . S
C450 H431 0.929 . S
C450 C447 1.388 . S
C450 N449 1.397 . S
C451 H432 0.929 . S
C451 C448 1.404 . S
C451 N449 1.334 . S
C452 H444 0.930 . S
C452 C447 1.418 . S
C452 C448 1.353 . S
C453 H423 0.930 . S
C453 N454 1.330 . S
C453 C455 1.446 . S
N454 Co413 2.151 1_556 S
N454 C453 1.330 . S
N454 C458 1.418 . S
C455 H434 0.929 . S
C455 C453 1.446 . S
C455 C456 1.332 . S
C456 H436 0.931 . S
C456 C455 1.332 . S
C456 C457 1.267 . S
C457 H425 0.929 . S
C457 C456 1.267 . S
C457 C458 1.251 . S
C458 H428 0.929 . S
C458 N454 1.418 . S
C458 C457 1.251 . S
C459 H426 0.930 . S
C459 C461 1.406 . S
C459 C464 1.261 1_556 S
C460 H427 0.930 . S
C460 N462 1.325 . S
C460 C463 1.357 . S
C461 H429 0.928 . S
C461 C459 1.406 . S
C461 N462 1.261 1_556 S
N462 Co413 2.214 . S
N462 C460 1.325 . S
N462 C461 1.261 1_554 S
C463 H433 0.931 . S
C463 C460 1.357 . S
C463 C464 1.312 . S
C464 H435 0.930 . S
C464 C459 1.261 1_554 S
C464 C463 1.312 . S
C465 O437 1.214 . S
C465 O445 1.234 . S
C466 H438 0.929 . S
C466 C469 1.391 . S
C466 C471 1.391 . S
C467 H439 0.929 . S
C467 C468 1.390 . S
C467 N470 1.391 . S
C468 H440 0.930 . S
C468 C467 1.390 . S
C468 C469 1.392 . S
C469 H441 0.929 . S
C469 C466 1.391 . S
C469 C468 1.392 . S
N470 Co414 2.257 . S
N470 C467 1.391 . S
N470 C471 1.388 . S
C471 H442 0.930 . S
C471 C466 1.391 . S
C471 N470 1.388 . S
C472 C473 1.363 . S
C472 C478 1.379 . S
C472 N480 1.356 . S
C473 C472 1.363 . S
C473 C479 1.363 . S
C474 C475 1.363 . S
C474 C479 1.379 . S
C474 N481 1.356 . S
C475 C474 1.363 . S
C475 C478 1.363 . S
N476 C478 1.356 . S
N476 H488 0.984 . S
N476 H489 0.985 . S
N477 C479 1.356 . S
N477 H482 0.984 . S
N477 H483 0.985 . S
C478 C472 1.379 . S
C478 C475 1.363 . S
C478 N476 1.356 . S
C479 C473 1.363 . S
C479 C474 1.379 . S
C479 N477 1.356 . S
N480 C472 1.356 . S
N480 H486 0.984 . S
N480 H487 0.984 . S
N481 C474 1.356 . S
N481 H484 0.984 . S
N481 H485 0.985 . S
H482 N477 0.984 . S
H483 N477 0.985 . S
H484 N481 0.984 . S
H485 N481 0.985 . S
H486 N480 0.984 . S
H487 N480 0.984 . S
H488 N476 0.984 . S
H489 N476 0.985 . S
C490 C491 1.363 . S
C490 C496 1.379 . S
C490 N498 1.356 . S
C491 C490 1.363 . S
C491 C497 1.363 . S
C492 C493 1.363 . S
C492 C497 1.379 . S
C492 N499 1.356 . S
C493 C492 1.363 . S
C493 C496 1.363 . S
N494 C496 1.356 . S
N494 H506 0.984 . S
N494 H507 0.985 . S
N495 C497 1.356 . S
N495 H500 0.984 . S
N495 H501 0.985 . S
C496 C490 1.379 . S
C496 C493 1.363 . S
C496 N494 1.356 . S
C497 C491 1.363 . S
C497 C492 1.379 . S
C497 N495 1.356 . S
N498 C490 1.356 . S
N498 H504 0.984 . S
N498 H505 0.984 . S
N499 C492 1.356 . S
N499 H502 0.984 . S
N499 H503 0.985 . S
H500 N495 0.984 . S
H501 N495 0.985 . S
H502 N499 0.984 . S
H503 N499 0.985 . S
H504 N498 0.984 . S
H505 N498 0.984 . S
H506 N494 0.984 . S
H507 N494 0.985 . S
C508 C509 1.363 . S
C508 C514 1.379 . S
C508 N516 1.356 . S
C509 C508 1.363 . S
C509 C515 1.363 . S
C510 C511 1.363 . S
C510 C515 1.379 . S
C510 N517 1.356 . S
C511 C510 1.363 . S
C511 C514 1.363 . S
N512 C514 1.356 . S
N512 H524 0.984 . S
N512 H525 0.985 . S
N513 C515 1.356 . S
N513 H518 0.984 . S
N513 H519 0.985 . S
C514 C508 1.379 . S
C514 C511 1.363 . S
C514 N512 1.356 . S
C515 C509 1.363 . S
C515 C510 1.379 . S
C515 N513 1.356 . S
N516 C508 1.356 . S
N516 H522 0.984 . S
N516 H523 0.984 . S
N517 C510 1.356 . S
N517 H520 0.984 . S
N517 H521 0.985 . S
H518 N513 0.984 . S
H519 N513 0.985 . S
H520 N517 0.984 . S
H521 N517 0.985 . S
H522 N516 0.984 . S
H523 N516 0.984 . S
H524 N512 0.984 . S
H525 N512 0.985 . S
C526 C527 1.363 . S
C526 C532 1.379 . S
C526 N534 1.356 . S
C527 C526 1.363 . S
C527 C533 1.363 . S
C528 C529 1.363 . S
C528 C533 1.379 . S
C528 N535 1.356 . S
C529 C528 1.363 . S
C529 C532 1.363 . S
N530 C532 1.356 . S
N530 H542 0.984 . S
N530 H543 0.985 . S
N531 C533 1.356 . S
N531 H536 0.984 . S
N531 H537 0.985 . S
C532 C526 1.379 . S
C532 C529 1.363 . S
C532 N530 1.356 . S
C533 C527 1.363 . S
C533 C528 1.379 . S
C533 N531 1.356 . S
N534 C526 1.356 . S
N534 H540 0.984 . S
N534 H541 0.984 . S
N535 C528 1.356 . S
N535 H538 0.984 . S
N535 H539 0.985 . S
H536 N531 0.984 . S
H537 N531 0.985 . S
H538 N535 0.984 . S
H539 N535 0.985 . S
H540 N534 0.984 . S
H541 N534 0.984 . S
H542 N530 0.984 . S
H543 N530 0.985 . S
C544 C545 1.363 . S
C544 C550 1.379 . S
C544 N552 1.356 . S
C545 C544 1.363 . S
C545 C551 1.363 . S
C546 C547 1.363 . S
C546 C551 1.379 . S
C546 N553 1.356 . S
C547 C546 1.363 . S
C547 C550 1.363 . S
N548 C550 1.356 . S
N548 H560 0.984 . S
N548 H561 0.985 . S
N549 C551 1.356 . S
N549 H554 0.984 . S
N549 H555 0.985 . S
C550 C544 1.379 . S
C550 C547 1.363 . S
C550 N548 1.356 . S
C551 C545 1.363 . S
C551 C546 1.379 . S
C551 N549 1.356 . S
N552 C544 1.356 . S
N552 H558 0.984 . S
N552 H559 0.984 . S
N553 C546 1.356 . S
N553 H556 0.984 . S
N553 H557 0.985 . S
H554 N549 0.984 . S
H555 N549 0.985 . S
H556 N553 0.984 . S
H557 N553 0.985 . S
H558 N552 0.984 . S
H559 N552 0.984 . S
H560 N548 0.984 . S
H561 N548 0.985 . S
C562 C563 1.363 . S
C562 C568 1.379 . S
C562 N570 1.356 . S
C563 C562 1.363 . S
C563 C569 1.363 . S
C564 C565 1.363 . S
C564 C569 1.379 . S
C564 N571 1.356 . S
C565 C564 1.363 . S
C565 C568 1.363 . S
N566 C568 1.356 . S
N566 H578 0.984 . S
N566 H579 0.985 . S
N567 C569 1.356 . S
N567 H572 0.984 . S
N567 H573 0.985 . S
C568 C562 1.379 . S
C568 C565 1.363 . S
C568 N566 1.356 . S
C569 C563 1.363 . S
C569 C564 1.379 . S
C569 N567 1.356 . S
N570 C562 1.356 . S
N570 H576 0.984 . S
N570 H577 0.984 . S
N571 C564 1.356 . S
N571 H574 0.984 . S
N571 H575 0.985 . S
H572 N567 0.984 . S
H573 N567 0.985 . S
H574 N571 0.984 . S
H575 N571 0.985 . S
H576 N570 0.984 . S
H577 N570 0.984 . S
H578 N566 0.984 . S
H579 N566 0.985 . S
C580 C581 1.363 . S
C580 C586 1.379 . S
C580 N588 1.356 . S
C581 C580 1.363 . S
C581 C587 1.363 . S
C582 C583 1.363 . S
C582 C587 1.379 . S
C582 N589 1.356 . S
C583 C582 1.363 . S
C583 C586 1.363 . S
N584 C586 1.356 . S
N584 H596 0.984 . S
N584 H597 0.985 . S
N585 C587 1.356 . S
N585 H590 0.984 . S
N585 H591 0.985 . S
C586 C580 1.379 . S
C586 C583 1.363 . S
C586 N584 1.356 . S
C587 C581 1.363 . S
C587 C582 1.379 . S
C587 N585 1.356 . S
N588 C580 1.356 . S
N588 H594 0.984 . S
N588 H595 0.984 . S
N589 C582 1.356 . S
N589 H592 0.984 . S
N589 H593 0.985 . S
H590 N585 0.984 . S
H591 N585 0.985 . S
H592 N589 0.984 . S
H593 N589 0.985 . S
H594 N588 0.984 . S
H595 N588 0.984 . S
H596 N584 0.984 . S
H597 N584 0.985 . S
C598 C599 1.363 . S
C598 C604 1.379 . S
C598 N606 1.356 . S
C599 C598 1.363 . S
C599 C605 1.363 . S
C600 C601 1.363 . S
C600 C605 1.379 . S
C600 N607 1.356 . S
C601 C600 1.363 . S
C601 C604 1.363 . S
N602 C604 1.356 . S
N602 H614 0.984 . S
N602 H615 0.985 . S
N603 C605 1.356 . S
N603 H608 0.984 . S
N603 H609 0.985 . S
C604 C598 1.379 . S
C604 C601 1.363 . S
C604 N602 1.356 . S
C605 C599 1.363 . S
C605 C600 1.379 . S
C605 N603 1.356 . S
N606 C598 1.356 . S
N606 H612 0.984 . S
N606 H613 0.984 . S
N607 C600 1.356 . S
N607 H610 0.984 . S
N607 H611 0.985 . S
H608 N603 0.984 . S
H609 N603 0.985 . S
H610 N607 0.984 . S
H611 N607 0.985 . S
H612 N606 0.984 . S
H613 N606 0.984 . S
H614 N602 0.984 . S
H615 N602 0.985 . S
C616 C617 1.363 . S
C616 C622 1.379 . S
C616 N624 1.356 . S
C617 C616 1.363 . S
C617 C623 1.363 1_556 S
C618 C619 1.363 1_554 S
C618 C623 1.379 . S
C618 N625 1.356 . S
C619 C618 1.363 1_556 S
C619 C622 1.363 . S
N620 C622 1.356 . S
N620 H632 0.984 . S
N620 H633 0.985 . S
N621 C623 1.356 . S
N621 H626 0.984 . S
N621 H627 0.985 . S
C622 C616 1.379 . S
C622 C619 1.363 . S
C622 N620 1.356 . S
C623 C617 1.363 1_554 S
C623 C618 1.379 . S
C623 N621 1.356 . S
N624 C616 1.356 . S
N624 H630 0.984 . S
N624 H631 0.984 . S
N625 C618 1.356 . S
N625 H628 0.984 . S
N625 H629 0.985 . S
H626 N621 0.984 . S
H627 N621 0.985 . S
H628 N625 0.984 . S
H629 N625 0.985 . S
H630 N624 0.984 . S
H631 N624 0.984 . S
H632 N620 0.984 . S
H633 N620 0.985 . S
C634 C635 1.363 . S
C634 C640 1.379 . S
C634 N642 1.356 . S
C635 C634 1.363 . S
C635 C641 1.363 1_554 S
C636 C637 1.363 1_556 S
C636 C641 1.379 . S
C636 N643 1.356 . S
C637 C636 1.363 1_554 S
C637 C640 1.363 . S
N638 C640 1.356 . S
N638 H650 0.984 . S
N638 H651 0.985 . S
N639 C641 1.356 . S
N639 H644 0.984 . S
N639 H645 0.985 . S
C640 C634 1.379 . S
C640 C637 1.363 . S
C640 N638 1.356 . S
C641 C635 1.363 1_556 S
C641 C636 1.379 . S
C641 N639 1.356 . S
N642 C634 1.356 . S
N642 H648 0.984 . S
N642 H649 0.984 . S
N643 C636 1.356 . S
N643 H646 0.984 . S
N643 H647 0.985 . S
H644 N639 0.984 . S
H645 N639 0.985 . S
H646 N643 0.984 . S
H647 N643 0.985 . S
H648 N642 0.984 . S
H649 N642 0.984 . S
H650 N638 0.984 . S
H651 N638 0.985 . S
C652 C653 1.363 1_554 S
C652 C658 1.379 . S
C652 N660 1.356 . S
C653 C652 1.363 1_556 S
C653 C659 1.363 . S
C654 C655 1.363 . S
C654 C659 1.379 . S
C654 N661 1.356 . S
C655 C654 1.363 . S
C655 C658 1.363 1_556 S
N656 C658 1.356 . S
N656 H668 0.984 . S
N656 H669 0.985 . S
N657 C659 1.356 . S
N657 H662 0.984 . S
N657 H663 0.985 . S
C658 C652 1.379 . S
C658 C655 1.363 1_554 S
C658 N656 1.356 . S
C659 C653 1.363 . S
C659 C654 1.379 . S
C659 N657 1.356 . S
N660 C652 1.356 . S
N660 H666 0.984 . S
N660 H667 0.984 . S
N661 C654 1.356 . S
N661 H664 0.984 . S
N661 H665 0.985 . S
H662 N657 0.984 . S
H663 N657 0.985 . S
H664 N661 0.984 . S
H665 N661 0.985 . S
H666 N660 0.984 . S
H667 N660 0.984 . S
H668 N656 0.984 . S
H669 N656 0.985 . S
C670 C671 1.363 . S
C670 C676 1.379 . S
C670 N678 1.356 . S
C671 C670 1.363 . S
C671 C677 1.363 1_554 S
C672 C673 1.363 1_556 S
C672 C677 1.379 . S
C672 N679 1.356 . S
C673 C672 1.363 1_554 S
C673 C676 1.363 . S
N674 C676 1.356 . S
N674 H686 0.984 . S
N674 H687 0.985 . S
N675 C677 1.356 . S
N675 H680 0.984 . S
N675 H681 0.985 . S
C676 C670 1.379 . S
C676 C673 1.363 . S
C676 N674 1.356 . S
C677 C671 1.363 1_556 S
C677 C672 1.379 . S
C677 N675 1.356 . S
N678 C670 1.356 . S
N678 H684 0.984 . S
N678 H685 0.984 . S
N679 C672 1.356 . S
N679 H682 0.984 . S
N679 H683 0.985 . S
H680 N675 0.984 . S
H681 N675 0.985 . S
H682 N679 0.984 . S
H683 N679 0.985 . S
H684 N678 0.984 . S
H685 N678 0.984 . S
H686 N674 0.984 . S
H687 N674 0.985 . S
C688 C689 1.363 1_455 S
C688 C694 1.379 . S
C688 N696 1.356 . S
C689 C688 1.363 1_655 S
C689 C695 1.363 . S
C690 C691 1.363 1_655 S
C690 C695 1.379 . S
C690 N697 1.356 . S
C691 C690 1.363 1_455 S
C691 C694 1.363 . S
N692 C694 1.356 . S
N692 H704 0.984 . S
N692 H705 0.985 . S
N693 C695 1.356 . S
N693 H698 0.984 . S
N693 H699 0.985 . S
C694 C688 1.379 . S
C694 C691 1.363 . S
C694 N692 1.356 . S
C695 C689 1.363 . S
C695 C690 1.379 . S
C695 N693 1.356 . S
N696 C688 1.356 . S
N696 H702 0.984 . S
N696 H703 0.984 1_455 S
N697 C690 1.356 . S
N697 H700 0.984 1_655 S
N697 H701 0.985 . S
H698 N693 0.984 . S
H699 N693 0.985 . S
H700 N697 0.984 1_455 S
H701 N697 0.985 . S
H702 N696 0.984 . S
H703 N696 0.984 1_655 S
H704 N692 0.984 . S
H705 N692 0.985 . S
C706 C707 1.363 1_565 S
C706 C712 1.379 . S
C706 N714 1.356 . S
C707 C706 1.363 1_545 S
C707 C713 1.363 . S
C708 C709 1.363 1_545 S
C708 C713 1.379 . S
C708 N715 1.356 . S
C709 C708 1.363 1_565 S
C709 C712 1.363 . S
N710 C712 1.356 . S
N710 H722 0.984 . S
N710 H723 0.985 . S
N711 C713 1.356 . S
N711 H716 0.984 . S
N711 H717 0.985 . S
C712 C706 1.379 . S
C712 C709 1.363 . S
C712 N710 1.356 . S
C713 C707 1.363 . S
C713 C708 1.379 . S
C713 N711 1.356 . S
N714 C706 1.356 . S
N714 H720 0.984 . S
N714 H721 0.984 1_565 S
N715 C708 1.356 . S
N715 H718 0.984 1_545 S
N715 H719 0.985 . S
H716 N711 0.984 . S
H717 N711 0.985 . S
H718 N715 0.984 1_565 S
H719 N715 0.985 . S
H720 N714 0.984 . S
H721 N714 0.984 1_545 S
H722 N710 0.984 . S
H723 N710 0.985 . S
C724 C725 1.363 1_554 S
C724 C730 1.379 1_545 S
C724 N732 1.356 . S
C725 C724 1.363 1_556 S
C725 C731 1.363 . S
C726 C727 1.363 . S
C726 C731 1.379 1_565 S
C726 N733 1.356 . S
C727 C726 1.363 . S
C727 C730 1.363 1_556 S
N728 C730 1.356 . S
N728 H740 0.984 . S
N728 H741 0.985 . S
N729 C731 1.356 . S
N729 H734 0.984 . S
N729 H735 0.985 . S
C730 C724 1.379 1_565 S
C730 C727 1.363 1_554 S
C730 N728 1.356 . S
C731 C725 1.363 . S
C731 C726 1.379 1_545 S
C731 N729 1.356 . S
N732 C724 1.356 . S
N732 H738 0.984 . S
N732 H739 0.984 . S
N733 C726 1.356 . S
N733 H736 0.984 . S
N733 H737 0.985 . S
H734 N729 0.984 . S
H735 N729 0.985 . S
H736 N733 0.984 . S
H737 N733 0.985 . S
H738 N732 0.984 . S
H739 N732 0.984 . S
H740 N728 0.984 . S
H741 N728 0.985 . S
C742 C743 1.363 . S
C742 C748 1.379 1_455 S
C742 N750 1.356 . S
C743 C742 1.363 . S
C743 C749 1.363 1_554 S
C744 C745 1.363 1_556 S
C744 C749 1.379 1_655 S
C744 N751 1.356 . S
C745 C744 1.363 1_554 S
C745 C748 1.363 . S
N746 C748 1.356 . S
N746 H758 0.984 . S
N746 H759 0.985 . S
N747 C749 1.356 . S
N747 H752 0.984 . S
N747 H753 0.985 . S
C748 C742 1.379 1_655 S
C748 C745 1.363 . S
C748 N746 1.356 . S
C749 C743 1.363 1_556 S
C749 C744 1.379 1_455 S
C749 N747 1.356 . S
N750 C742 1.356 . S
N750 H756 0.984 . S
N750 H757 0.984 . S
N751 C744 1.356 . S
N751 H754 0.984 . S
N751 H755 0.985 . S
H752 N747 0.984 . S
H753 N747 0.985 . S
H754 N751 0.984 . S
H755 N751 0.985 . S
H756 N750 0.984 . S
H757 N750 0.984 . S
H758 N746 0.984 . S
H759 N746 0.985 . S
C473 C465 1.611 . S
C475 C33 1.620 . S
C491 C92 1.620 . S
C493 C269 1.620 . S
C509 C151 1.620 . S
C511 C347 1.611 . S
C527 C387 1.620 . S
C529 C210 1.620 . S
C545 C62 1.553 . S
C547 C5 1.541 . S
C563 C64 1.545 . S
C565 C121 1.557 . S
C581 C180 1.553 . S
C583 C123 1.541 . S
C599 C182 1.545 . S
C601 C3 1.557 . S
C617 C418 1.562 1_556 S
C619 C241 1.542 . S
C635 C298 1.539 . S
C637 C239 1.556 1_554 S
C653 C300 1.562 1_556 S
C655 C359 1.542 . S
C671 C357 1.556 1_554 S
C673 C416 1.539 . S
C689 C170 1.352 . S
C691 C52 1.352 . S
C707 C229 1.350 . S
C709 C111 1.350 . S
C725 C406 1.350 . S
C727 C288 1.350 . S
C743 C446 1.346 . S
C745 C328 1.346 . S
