# Generated by pormake.
# Topology crb, (4)-cn, num edge types: 1
# Building blocks:
#     Node 0, Type 0, BuildingBlock: QUQFOY_clean_sbu_3, # of connection points: 4
#     Node 1, Type 0, BuildingBlock: QUQFOY_clean_sbu_3, # of connection points: 4
#     Node 2, Type 0, BuildingBlock: QUQFOY_clean_sbu_3, # of connection points: 4
#     Node 3, Type 0, BuildingBlock: QUQFOY_clean_sbu_3, # of connection points: 4
#     Node 4, Type 0, BuildingBlock: QUQFOY_clean_sbu_3, # of connection points: 4
#     Node 5, Type 0, BuildingBlock: QUQFOY_clean_sbu_3, # of connection points: 4
#     Node 6, Type 0, BuildingBlock: QUQFOY_clean_sbu_3, # of connection points: 4
#     Node 7, Type 0, BuildingBlock: QUQFOY_clean_sbu_3, # of connection points: 4
#     Edge 8, Type (0, 0), BuildingBlock: OJICUG_clean_linker_0, # of connection points: 2
#     Edge 9, Type (0, 0), BuildingBlock: OJICUG_clean_linker_0, # of connection points: 2
#     Edge 10, Type (0, 0), BuildingBlock: OJICUG_clean_linker_0, # of connection points: 2
#     Edge 11, Type (0, 0), BuildingBlock: OJICUG_clean_linker_0, # of connection points: 2
#     Edge 12, Type (0, 0), BuildingBlock: OJICUG_clean_linker_0, # of connection points: 2
#     Edge 13, Type (0, 0), BuildingBlock: OJICUG_clean_linker_0, # of connection points: 2
#     Edge 14, Type (0, 0), BuildingBlock: OJICUG_clean_linker_0, # of connection points: 2
#     Edge 15, Type (0, 0), BuildingBlock: OJICUG_clean_linker_0, # of connection points: 2
#     Edge 16, Type (0, 0), BuildingBlock: OJICUG_clean_linker_0, # of connection points: 2
#     Edge 17, Type (0, 0), BuildingBlock: OJICUG_clean_linker_0, # of connection points: 2
#     Edge 18, Type (0, 0), BuildingBlock: OJICUG_clean_linker_0, # of connection points: 2
#     Edge 19, Type (0, 0), BuildingBlock: OJICUG_clean_linker_0, # of connection points: 2
#     Edge 20, Type (0, 0), BuildingBlock: OJICUG_clean_linker_0, # of connection points: 2
#     Edge 21, Type (0, 0), BuildingBlock: OJICUG_clean_linker_0, # of connection points: 2
#     Edge 22, Type (0, 0), BuildingBlock: OJICUG_clean_linker_0, # of connection points: 2
#     Edge 23, Type (0, 0), BuildingBlock: OJICUG_clean_linker_0, # of connection points: 2
# Relax obj value: 0.113
# Max RMSD: 0.155
# Mean RMSD: 0.155
data_MOF--net-crb--node1-QUQFOY_clean_sbu_3--edge1-OJICUG_clean_linker_0
_symmetry_space_group_name_H-M    P1
_symmetry_Int_Tables_number       1
_symmetry_cell_setting            triclinic
loop_
_symmetry_equiv_pos_as_xyz
'x, y, z'
_cell_length_a     33.976291
_cell_length_b     33.610866
_cell_length_c     18.406088
_cell_angle_alpha  89.960107
_cell_angle_beta   89.858102
_cell_angle_gamma 90.114554
loop_
_atom_site_label
_atom_site_type_symbol
_atom_site_fract_x
_atom_site_fract_y
_atom_site_fract_z
_atom_type_partial_charge
C0 C 0.3935 0.30526 0.05559 0.0
O1 O 0.38341 0.31242 0.12073 0.0
Cd2 Cd 0.31688 0.319 0.15889 0.0
O3 O 0.36761 0.30061 0.00618 0.0
Cd4 Cd 0.29461 0.30055 -0.00186 0.0
C5 C 0.29098 0.39661 0.04965 0.0
O6 O 0.2861 0.26148 0.10608 0.0
O7 O 0.23272 0.28843 0.06751 0.0
O8 O 0.29803 0.25158 0.89901 0.0
C9 C 0.24909 0.26385 0.10995 0.0
O10 O 0.29655 0.38489 0.11461 0.0
C11 C 0.2727 0.26955 0.86037 0.0
O12 O 0.29121 0.37194 -0.00245 0.0
O13 O 0.25872 0.30165 0.88564 0.0
C14 C 0.5588 0.30443 -0.01676 0.0
O15 O 0.56897 0.31064 0.91778 0.0
Cd16 Cd 0.63559 0.31669 0.87962 0.0
O17 O 0.58463 0.3004 0.03291 0.0
Cd18 Cd 0.6576 0.30011 0.04157 0.0
C19 C 0.66179 0.39557 -0.01404 0.0
O20 O 0.66609 0.25992 0.93515 0.0
O21 O 0.71955 0.28713 0.97315 0.0
O22 O 0.65338 0.25189 0.14184 0.0
C23 C 0.70312 0.26222 0.93135 0.0
O24 O 0.65611 0.38303 0.92156 0.0
C25 C 0.67864 0.26999 0.18052 0.0
O26 O 0.66151 0.37156 0.03918 0.0
O27 O 0.69298 0.3019 0.15477 0.0
C28 C 0.55934 0.65576 0.04699 0.0
O29 O 0.56965 0.64951 0.11225 0.0
Cd30 Cd 0.63637 0.64333 0.14913 0.0
O31 O 0.58506 0.65969 -0.00316 0.0
Cd32 Cd 0.65798 0.65971 -0.01321 0.0
C33 C 0.66193 0.5643 0.04274 0.0
O34 O 0.6671 0.69999 0.09287 0.0
O35 O 0.72027 0.67264 0.05383 0.0
O36 O 0.65378 0.7078 0.88637 0.0
C37 C 0.70413 0.69761 0.09591 0.0
O38 O 0.65649 0.57689 0.10722 0.0
C39 C 0.67861 0.68943 0.84712 0.0
O40 O 0.66156 0.58828 -0.01053 0.0
O41 O 0.69276 0.65749 0.87271 0.0
C42 C 0.39385 0.65583 -0.02244 0.0
O43 O 0.38353 0.64883 0.91256 0.0
Cd44 Cd 0.31685 0.64231 0.87565 0.0
O45 O 0.36813 0.66041 0.02749 0.0
Cd46 Cd 0.29517 0.66052 0.0369 0.0
C47 C 0.29109 0.56451 -0.01503 0.0
O48 O 0.28629 0.69968 0.92929 0.0
O49 O 0.23303 0.67248 0.96886 0.0
O50 O 0.29884 0.70939 0.13617 0.0
C51 C 0.24926 0.69717 0.92616 0.0
O52 O 0.29647 0.5763 0.91993 0.0
C53 C 0.27385 0.6911 0.17542 0.0
O54 O 0.29155 0.58914 0.03713 0.0
O55 O 0.25991 0.65892 0.15034 0.0
C56 C 0.8931 0.80392 0.54642 0.0
O57 O 0.88253 0.81011 0.61164 0.0
Cd58 Cd 0.81573 0.81606 0.6485 0.0
O59 O 0.86757 0.79994 0.49618 0.0
Cd60 Cd 0.79465 0.79974 0.48605 0.0
C61 C 0.79029 0.89509 0.54204 0.0
O62 O 0.78542 0.75935 0.5921 0.0
O63 O 0.73227 0.7867 0.55341 0.0
O64 O 0.79897 0.7517 0.38561 0.0
C65 C 0.74838 0.76168 0.59533 0.0
O66 O 0.79553 0.88245 0.60653 0.0
C67 C 0.77412 0.77005 0.34654 0.0
O68 O 0.79091 0.87117 0.48876 0.0
O69 O 0.75997 0.80199 0.37218 0.0
C70 C 0.05887 0.80441 0.47782 0.0
O71 O 0.0694 0.81155 0.41287 0.0
Cd72 Cd 0.13615 0.81823 0.37604 0.0
O73 O 0.08442 0.79981 0.52782 0.0
Cd74 Cd 0.15739 0.79991 0.53727 0.0
C75 C 0.16137 0.89598 0.48544 0.0
O76 O 0.16644 0.76078 0.42976 0.0
O77 O 0.21964 0.78802 0.46888 0.0
O78 O 0.15371 0.75105 0.63678 0.0
C79 C 0.20347 0.76328 0.42642 0.0
O80 O 0.15623 0.88425 0.42037 0.0
C81 C 0.17873 0.76934 0.6757 0.0
O82 O 0.16081 0.87129 0.53756 0.0
O83 O 0.19265 0.80153 0.65037 0.0
C84 C 0.05781 0.15489 0.55616 0.0
O85 O 0.06769 0.14772 0.62134 0.0
Cd86 Cd 0.13417 0.14126 0.65951 0.0
O87 O 0.08386 0.15964 0.50684 0.0
Cd88 Cd 0.15684 0.1599 0.49885 0.0
C89 C 0.16061 0.0638 0.55035 0.0
O90 O 0.16514 0.19886 0.60688 0.0
O91 O 0.21861 0.1721 0.56782 0.0
O92 O 0.15346 0.20895 0.3998 0.0
C93 C 0.20216 0.19655 0.6105 0.0
O94 O 0.15481 0.07544 0.61532 0.0
C95 C 0.17874 0.19098 0.36089 0.0
O96 O 0.16047 0.08852 0.49827 0.0
O97 O 0.19273 0.15887 0.38606 0.0
C98 C 0.8928 0.15533 0.48299 0.0
O99 O 0.88289 0.14921 0.41747 0.0
Cd100 Cd 0.81638 0.14296 0.37924 0.0
O101 O 0.86677 0.15919 0.53257 0.0
Cd102 Cd 0.7938 0.1593 0.54118 0.0
C103 C 0.79008 0.06389 0.48551 0.0
O104 O 0.78538 0.19953 0.4347 0.0
O105 O 0.73194 0.17214 0.47301 0.0
O106 O 0.79792 0.2075 0.64125 0.0
C107 C 0.74836 0.19709 0.43105 0.0
O108 O 0.79596 0.07651 0.42113 0.0
C109 C 0.77267 0.18939 0.68019 0.0
O110 O 0.79008 0.08784 0.53875 0.0
O111 O 0.75833 0.15748 0.65462 0.0
C112 C 0.28616 0.46767 0.08965 0.0
C113 C 0.28688 0.4395 0.03341 0.0
H114 H 0.28652 0.52919 0.11847 0.0
C115 C 0.28597 0.45282 0.9609 0.0
H116 H 0.28662 0.45841 0.14602 0.0
C117 C 0.28611 0.49344 0.94498 0.0
C118 C 0.28693 0.52161 0.00122 0.0
H119 H 0.28634 0.4319 0.91617 0.0
H120 H 0.28652 0.5027 0.88861 0.0
C121 C 0.28607 0.50828 0.07373 0.0
C122 C 0.4643 0.30323 0.09217 0.0
C123 C 0.43574 0.30322 0.037 0.0
H124 H 0.52556 0.30333 0.11853 0.0
C125 C 0.44799 0.30223 0.96411 0.0
H126 H 0.45582 0.30379 0.14893 0.0
C127 C 0.48798 0.30219 0.94672 0.0
C128 C 0.51654 0.30281 0.00188 0.0
H129 H 0.42672 0.30218 0.92037 0.0
H130 H 0.49647 0.30193 0.88996 0.0
C131 C 0.50429 0.30287 0.07479 0.0
C132 C 0.66677 0.46609 0.94265 0.0
C133 C 0.66601 0.43867 0.00021 0.0
H134 H 0.66648 0.52722 0.91093 0.0
C135 C 0.66693 0.45297 0.07205 0.0
H136 H 0.6663 0.45608 0.88673 0.0
C137 C 0.66684 0.49379 0.08604 0.0
C138 C 0.66605 0.52121 0.02849 0.0
H139 H 0.66653 0.43265 0.11775 0.0
H140 H 0.66643 0.5038 0.14196 0.0
C141 C 0.6669 0.50691 0.95664 0.0
C142 C 0.44859 0.65847 0.06809 0.0
C143 C 0.43615 0.65769 -0.00459 0.0
H144 H 0.49726 0.65838 0.14139 0.0
C145 C 0.46457 0.65763 0.93975 0.0
H146 H 0.42743 0.65855 0.11221 0.0
C147 C 0.50461 0.65774 0.95643 0.0
C148 C 0.51704 0.6576 0.02912 0.0
H149 H 0.45595 0.65722 0.88314 0.0
H150 H 0.52576 0.65725 0.9123 0.0
C151 C 0.48863 0.65828 0.08478 0.0
C152 C 0.78499 0.96553 0.58542 0.0
C153 C 0.78609 0.93819 0.52784 0.0
H154 H 0.78498 0.02663 0.61723 0.0
C155 C 0.78545 0.95257 0.456 0.0
H156 H 0.78523 0.95546 0.64133 0.0
C157 C 0.7855 -0.0066 0.44208 0.0
C158 C 0.78595 0.02075 0.49968 0.0
H159 H 0.78611 0.93231 0.41027 0.0
H160 H 0.78614 0.00348 0.38618 0.0
C161 C 0.78481 0.00637 0.57149 0.0
C162 C -0.01169 0.80244 0.43965 0.0
C163 C 0.0165 0.8024 0.49546 0.0
H164 H 0.92724 0.80266 0.41189 0.0
C165 C 0.00376 0.80149 0.56807 0.0
H166 H -0.00283 0.80294 0.38309 0.0
C167 C 0.96366 0.80155 0.58455 0.0
C168 C 0.93547 0.8022 0.52875 0.0
H169 H 0.02474 0.80143 0.6123 0.0
H170 H 0.95479 0.80135 0.64112 0.0
C171 C 0.9482 0.80218 0.45612 0.0
C172 C 0.16613 0.00771 0.46155 0.0
C173 C 0.16492 0.02095 0.53407 0.0
H174 H 0.16602 0.95792 0.38917 0.0
C175 C 0.16556 -0.00728 0.59027 0.0
H176 H 0.16584 0.02869 0.41684 0.0
C177 C 0.16587 0.95212 0.57429 0.0
C178 C 0.16532 0.93888 0.50176 0.0
H179 H 0.16488 0.0019 0.64665 0.0
H180 H 0.16536 0.93115 0.619 0.0
C181 C 0.16622 0.96712 0.44557 0.0
C182 C 0.94693 0.15691 0.57481 0.0
C183 C 0.93498 0.15704 0.50183 0.0
H184 H -0.00491 0.15603 0.6492 0.0
C185 C 0.96377 0.15782 0.44683 0.0
H186 H 0.92548 0.15632 0.61845 0.0
C187 C 0.00369 0.15787 0.46444 0.0
C188 C 0.01563 0.15682 0.53739 0.0
H189 H 0.95551 0.15813 0.39003 0.0
H190 H 0.02513 0.15805 0.42079 0.0
C191 C -0.01316 0.15664 0.5924 0.0
C192 C 0.17606 0.24123 0.25991 0.0
C193 C 0.19355 0.20764 0.2919 0.0
H194 H 0.17967 0.28526 0.17548 0.0
C195 C 0.22722 0.19107 0.25964 0.0
H196 H 0.14996 0.25447 0.28352 0.0
C197 C 0.2443 0.20884 0.19899 0.0
C198 C 0.22778 0.24319 0.16852 0.0
H199 H 0.24133 0.16512 0.28276 0.0
H200 H 0.27102 0.1961 0.17678 0.0
C201 C 0.1929 0.25871 0.1981 0.0
C202 C 0.72678 0.27016 0.28195 0.0
C203 C 0.69314 0.25354 0.24974 0.0
H204 H 0.77048 0.26508 0.36459 0.0
C205 C 0.67548 0.21994 0.2818 0.0
H206 H 0.741 0.29613 0.25879 0.0
C207 C 0.6922 0.20242 0.34347 0.0
C208 C 0.7271 0.21792 0.37288 0.0
H209 H 0.6494 0.20666 0.25825 0.0
H210 H 0.67887 0.17583 0.36603 0.0
C211 C 0.74374 0.25236 0.34249 0.0
C212 C 0.77704 0.72 0.24537 0.0
C213 C 0.75975 0.75381 0.27705 0.0
H214 H 0.77325 0.6758 0.16143 0.0
C215 C 0.7265 0.77079 0.2443 0.0
H216 H 0.80282 0.70644 0.26935 0.0
C217 C 0.70948 0.7531 0.1837 0.0
C218 C 0.72567 0.71842 0.15377 0.0
H219 H 0.71257 0.79693 0.26714 0.0
H220 H 0.68298 0.76607 0.16123 0.0
C221 C 0.76027 0.70259 0.18362 0.0
C222 C 0.20876 0.70806 0.33814 0.0
C223 C 0.22498 0.74273 0.36814 0.0
H224 H 0.21195 0.66427 0.25467 0.0
C225 C 0.25961 0.75872 0.33813 0.0
H226 H 0.18224 0.69498 0.36071 0.0
C227 C 0.27646 0.74139 0.27626 0.0
C228 C 0.25921 0.70752 0.24466 0.0
H229 H 0.2726 0.78551 0.36038 0.0
H230 H 0.30232 0.75502 0.25224 0.0
C231 C 0.22586 0.69045 0.27746 0.0
C232 C 0.17617 0.7191 0.77677 0.0
C233 C 0.19345 0.75291 0.74478 0.0
H234 H 0.18003 0.67503 0.86105 0.0
C235 C 0.2269 0.7699 0.77701 0.0
H236 H 0.15024 0.70553 0.75319 0.0
C237 C 0.24404 0.75229 0.83754 0.0
C238 C 0.22777 0.7177 0.86794 0.0
H239 H 0.24084 0.79604 0.75391 0.0
H240 H 0.27063 0.76533 0.85968 0.0
C241 C 0.19306 0.70177 0.83849 0.0
C242 C 0.27536 0.21937 0.75938 0.0
C243 C 0.2578 0.25286 0.79164 0.0
H244 H 0.27177 0.17539 0.675 0.0
C245 C 0.22397 0.26928 0.75997 0.0
H246 H 0.30158 0.20624 0.78254 0.0
C247 C 0.20682 0.25146 0.69963 0.0
C248 C 0.22344 0.21722 0.66886 0.0
H249 H 0.20979 0.29515 0.78333 0.0
H250 H 0.17999 0.26409 0.67786 0.0
C251 C 0.25846 0.20184 0.69786 0.0
C252 C 0.70768 0.20697 0.84286 0.0
C253 C 0.72436 0.24137 0.87306 0.0
H254 H 0.71031 0.16325 0.75914 0.0
C255 C 0.75926 0.25685 0.84326 0.0
H256 H 0.68093 0.19426 0.86526 0.0
C257 C 0.77592 0.23935 0.78141 0.0
C258 C 0.75821 0.2058 0.74956 0.0
H259 H 0.77263 0.28342 0.86566 0.0
H260 H 0.80201 0.25263 0.75757 0.0
C261 C 0.72458 0.18918 0.78214 0.0
C262 C 0.67562 0.73943 0.74579 0.0
C263 C 0.69292 0.70562 0.77738 0.0
H264 H 0.67935 0.78359 0.66161 0.0
C265 C 0.72609 0.68857 0.74422 0.0
H266 H 0.6499 0.75305 0.77007 0.0
C267 C 0.74304 0.7062 0.68329 0.0
C268 C 0.72685 0.74088 0.65346 0.0
H269 H 0.74001 0.66242 0.76697 0.0
H270 H 0.76948 0.69318 0.66051 0.0
C271 C 0.69232 0.75678 0.68372 0.0
loop_
_geom_bond_atom_site_label_1
_geom_bond_atom_site_label_2
_geom_bond_distance
_geom_bond_site_symmetry_2
_ccdc_geom_bond_type
C0 O1 1.306 . S
C0 O3 1.160 1_554 S
O1 C0 1.306 . S
O1 Cd2 2.228 . S
Cd2 O1 2.228 . S
Cd2 O6 2.273 . S
Cd2 O10 2.277 . S
O3 C0 1.160 1_556 S
O3 Cd4 2.203 1_556 S
Cd4 O3 2.203 1_554 S
Cd4 O6 2.411 . S
Cd4 O7 2.333 . S
Cd4 O8 2.352 1_554 S
Cd4 O12 2.277 1_554 S
Cd4 O13 2.356 1_554 S
C5 O10 1.209 . S
C5 O12 1.226 1_554 S
O6 Cd2 2.273 . S
O6 Cd4 2.411 . S
O6 C9 1.320 . S
O7 Cd4 2.333 . S
O7 C9 1.214 . S
O8 Cd4 2.352 1_556 S
O8 C11 1.258 . S
C9 O6 1.320 . S
C9 O7 1.214 . S
O10 Cd2 2.277 . S
O10 C5 1.209 . S
C11 O8 1.258 . S
C11 O13 1.282 . S
O12 Cd4 2.277 1_556 S
O12 C5 1.226 1_556 S
O13 Cd4 2.356 1_556 S
O13 C11 1.282 . S
C14 O15 1.306 1_554 S
C14 O17 1.160 . S
O15 C14 1.306 1_556 S
O15 Cd16 2.228 . S
Cd16 O15 2.228 . S
Cd16 O20 2.273 . S
Cd16 O24 2.277 . S
O17 C14 1.160 . S
O17 Cd18 2.203 . S
Cd18 O17 2.203 . S
Cd18 O20 2.411 1_554 S
Cd18 O21 2.333 1_554 S
Cd18 O22 2.352 . S
Cd18 O26 2.277 . S
Cd18 O27 2.356 . S
C19 O24 1.209 1_554 S
C19 O26 1.226 . S
O20 Cd16 2.273 . S
O20 Cd18 2.411 1_556 S
O20 C23 1.320 . S
O21 Cd18 2.333 1_556 S
O21 C23 1.214 . S
O22 Cd18 2.352 . S
O22 C25 1.258 . S
C23 O20 1.320 . S
C23 O21 1.214 . S
O24 Cd16 2.277 . S
O24 C19 1.209 1_556 S
C25 O22 1.258 . S
C25 O27 1.282 . S
O26 Cd18 2.277 . S
O26 C19 1.226 . S
O27 Cd18 2.356 . S
O27 C25 1.282 . S
C28 O29 1.306 . S
C28 O31 1.160 1_554 S
O29 C28 1.306 . S
O29 Cd30 2.228 . S
Cd30 O29 2.228 . S
Cd30 O34 2.273 . S
Cd30 O38 2.277 . S
O31 C28 1.160 1_556 S
O31 Cd32 2.203 1_556 S
Cd32 O31 2.203 1_554 S
Cd32 O34 2.411 . S
Cd32 O35 2.333 . S
Cd32 O36 2.352 1_554 S
Cd32 O40 2.277 1_554 S
Cd32 O41 2.356 1_554 S
C33 O38 1.209 . S
C33 O40 1.226 1_554 S
O34 Cd30 2.273 . S
O34 Cd32 2.411 . S
O34 C37 1.320 . S
O35 Cd32 2.333 . S
O35 C37 1.214 . S
O36 Cd32 2.352 1_556 S
O36 C39 1.258 . S
C37 O34 1.320 . S
C37 O35 1.214 . S
O38 Cd30 2.277 . S
O38 C33 1.209 . S
C39 O36 1.258 . S
C39 O41 1.282 . S
O40 Cd32 2.277 1_556 S
O40 C33 1.226 1_556 S
O41 Cd32 2.356 1_556 S
O41 C39 1.282 . S
C42 O43 1.306 1_554 S
C42 O45 1.160 . S
O43 C42 1.306 1_556 S
O43 Cd44 2.228 . S
Cd44 O43 2.228 . S
Cd44 O48 2.273 . S
Cd44 O52 2.277 . S
O45 C42 1.160 . S
O45 Cd46 2.203 . S
Cd46 O45 2.203 . S
Cd46 O48 2.411 1_554 S
Cd46 O49 2.333 1_554 S
Cd46 O50 2.352 . S
Cd46 O54 2.277 . S
Cd46 O55 2.356 . S
C47 O52 1.209 1_554 S
C47 O54 1.226 . S
O48 Cd44 2.273 . S
O48 Cd46 2.411 1_556 S
O48 C51 1.320 . S
O49 Cd46 2.333 1_556 S
O49 C51 1.214 . S
O50 Cd46 2.352 . S
O50 C53 1.258 . S
C51 O48 1.320 . S
C51 O49 1.214 . S
O52 Cd44 2.277 . S
O52 C47 1.209 1_556 S
C53 O50 1.258 . S
C53 O55 1.282 . S
O54 Cd46 2.277 . S
O54 C47 1.226 . S
O55 Cd46 2.356 . S
O55 C53 1.282 . S
C56 O57 1.306 . S
C56 O59 1.160 . S
O57 C56 1.306 . S
O57 Cd58 2.228 . S
Cd58 O57 2.228 . S
Cd58 O62 2.273 . S
Cd58 O66 2.277 . S
O59 C56 1.160 . S
O59 Cd60 2.203 . S
Cd60 O59 2.203 . S
Cd60 O62 2.411 . S
Cd60 O63 2.333 . S
Cd60 O64 2.352 . S
Cd60 O68 2.277 . S
Cd60 O69 2.356 . S
C61 O66 1.209 . S
C61 O68 1.226 . S
O62 Cd58 2.273 . S
O62 Cd60 2.411 . S
O62 C65 1.320 . S
O63 Cd60 2.333 . S
O63 C65 1.214 . S
O64 Cd60 2.352 . S
O64 C67 1.258 . S
C65 O62 1.320 . S
C65 O63 1.214 . S
O66 Cd58 2.277 . S
O66 C61 1.209 . S
C67 O64 1.258 . S
C67 O69 1.282 . S
O68 Cd60 2.277 . S
O68 C61 1.226 . S
O69 Cd60 2.356 . S
O69 C67 1.282 . S
C70 O71 1.306 . S
C70 O73 1.160 . S
O71 C70 1.306 . S
O71 Cd72 2.228 . S
Cd72 O71 2.228 . S
Cd72 O76 2.273 . S
Cd72 O80 2.277 . S
O73 C70 1.160 . S
O73 Cd74 2.203 . S
Cd74 O73 2.203 . S
Cd74 O76 2.411 . S
Cd74 O77 2.333 . S
Cd74 O78 2.352 . S
Cd74 O82 2.277 . S
Cd74 O83 2.356 . S
C75 O80 1.209 . S
C75 O82 1.226 . S
O76 Cd72 2.273 . S
O76 Cd74 2.411 . S
O76 C79 1.320 . S
O77 Cd74 2.333 . S
O77 C79 1.214 . S
O78 Cd74 2.352 . S
O78 C81 1.258 . S
C79 O76 1.320 . S
C79 O77 1.214 . S
O80 Cd72 2.277 . S
O80 C75 1.209 . S
C81 O78 1.258 . S
C81 O83 1.282 . S
O82 Cd74 2.277 . S
O82 C75 1.226 . S
O83 Cd74 2.356 . S
O83 C81 1.282 . S
C84 O85 1.306 . S
C84 O87 1.160 . S
O85 C84 1.306 . S
O85 Cd86 2.228 . S
Cd86 O85 2.228 . S
Cd86 O90 2.273 . S
Cd86 O94 2.277 . S
O87 C84 1.160 . S
O87 Cd88 2.203 . S
Cd88 O87 2.203 . S
Cd88 O90 2.411 . S
Cd88 O91 2.333 . S
Cd88 O92 2.352 . S
Cd88 O96 2.277 . S
Cd88 O97 2.356 . S
C89 O94 1.209 . S
C89 O96 1.226 . S
O90 Cd86 2.273 . S
O90 Cd88 2.411 . S
O90 C93 1.320 . S
O91 Cd88 2.333 . S
O91 C93 1.214 . S
O92 Cd88 2.352 . S
O92 C95 1.258 . S
C93 O90 1.320 . S
C93 O91 1.214 . S
O94 Cd86 2.277 . S
O94 C89 1.209 . S
C95 O92 1.258 . S
C95 O97 1.282 . S
O96 Cd88 2.277 . S
O96 C89 1.226 . S
O97 Cd88 2.356 . S
O97 C95 1.282 . S
C98 O99 1.306 . S
C98 O101 1.160 . S
O99 C98 1.306 . S
O99 Cd100 2.228 . S
Cd100 O99 2.228 . S
Cd100 O104 2.273 . S
Cd100 O108 2.277 . S
O101 C98 1.160 . S
O101 Cd102 2.203 . S
Cd102 O101 2.203 . S
Cd102 O104 2.411 . S
Cd102 O105 2.333 . S
Cd102 O106 2.352 . S
Cd102 O110 2.277 . S
Cd102 O111 2.356 . S
C103 O108 1.209 . S
C103 O110 1.226 . S
O104 Cd100 2.273 . S
O104 Cd102 2.411 . S
O104 C107 1.320 . S
O105 Cd102 2.333 . S
O105 C107 1.214 . S
O106 Cd102 2.352 . S
O106 C109 1.258 . S
C107 O104 1.320 . S
C107 O105 1.214 . S
O108 Cd100 2.277 . S
O108 C103 1.209 . S
C109 O106 1.258 . S
C109 O111 1.282 . S
O110 Cd102 2.277 . S
O110 C103 1.226 . S
O111 Cd102 2.356 . S
O111 C109 1.282 . S
C112 C113 1.387 . S
C112 H116 0.950 . S
C112 C121 1.390 . S
C113 C112 1.387 . S
C113 C115 1.387 . S
H114 C121 0.950 . S
C115 C113 1.387 . S
C115 C117 1.390 . S
C115 H119 0.950 . S
H116 C112 0.950 . S
C117 C115 1.390 . S
C117 C118 1.387 . S
C117 H120 0.950 . S
C118 C117 1.387 . S
C118 C121 1.387 . S
H119 C115 0.950 . S
H120 C117 0.950 . S
C121 C112 1.390 . S
C121 H114 0.950 . S
C121 C118 1.387 . S
C122 C123 1.387 . S
C122 H126 0.950 . S
C122 C131 1.390 . S
C123 C122 1.387 . S
C123 C125 1.387 . S
H124 C131 0.950 . S
C125 C123 1.387 . S
C125 C127 1.390 . S
C125 H129 0.950 . S
H126 C122 0.950 . S
C127 C125 1.390 . S
C127 C128 1.387 . S
C127 H130 0.950 . S
C128 C127 1.387 . S
C128 C131 1.387 . S
H129 C125 0.950 . S
H130 C127 0.950 . S
C131 C122 1.390 . S
C131 H124 0.950 . S
C131 C128 1.387 . S
C132 C133 1.387 . S
C132 H136 0.950 . S
C132 C141 1.390 . S
C133 C132 1.387 . S
C133 C135 1.387 . S
H134 C141 0.950 . S
C135 C133 1.387 . S
C135 C137 1.390 . S
C135 H139 0.950 . S
H136 C132 0.950 . S
C137 C135 1.390 . S
C137 C138 1.387 . S
C137 H140 0.950 . S
C138 C137 1.387 . S
C138 C141 1.387 . S
H139 C135 0.950 . S
H140 C137 0.950 . S
C141 C132 1.390 . S
C141 H134 0.950 . S
C141 C138 1.387 . S
C142 C143 1.387 . S
C142 H146 0.950 . S
C142 C151 1.390 . S
C143 C142 1.387 . S
C143 C145 1.387 . S
H144 C151 0.950 . S
C145 C143 1.387 . S
C145 C147 1.390 . S
C145 H149 0.950 . S
H146 C142 0.950 . S
C147 C145 1.390 . S
C147 C148 1.387 . S
C147 H150 0.950 . S
C148 C147 1.387 . S
C148 C151 1.387 . S
H149 C145 0.950 . S
H150 C147 0.950 . S
C151 C142 1.390 . S
C151 H144 0.950 . S
C151 C148 1.387 . S
C152 C153 1.387 . S
C152 H156 0.950 . S
C152 C161 1.390 1_565 S
C153 C152 1.387 . S
C153 C155 1.387 . S
H154 C161 0.950 . S
C155 C153 1.387 . S
C155 C157 1.390 1_565 S
C155 H159 0.950 . S
H156 C152 0.950 . S
C157 C155 1.390 1_545 S
C157 C158 1.387 . S
C157 H160 0.950 . S
C158 C157 1.387 . S
C158 C161 1.387 . S
H159 C155 0.950 . S
H160 C157 0.950 . S
C161 C152 1.390 1_545 S
C161 H154 0.950 . S
C161 C158 1.387 . S
C162 C163 1.387 . S
C162 H166 0.950 . S
C162 C171 1.390 1_455 S
C163 C162 1.387 . S
C163 C165 1.387 . S
H164 C171 0.950 . S
C165 C163 1.387 . S
C165 C167 1.390 1_455 S
C165 H169 0.950 . S
H166 C162 0.950 . S
C167 C165 1.390 1_655 S
C167 C168 1.387 . S
C167 H170 0.950 . S
C168 C167 1.387 . S
C168 C171 1.387 . S
H169 C165 0.950 . S
H170 C167 0.950 . S
C171 C162 1.390 1_655 S
C171 H164 0.950 . S
C171 C168 1.387 . S
C172 C173 1.387 . S
C172 H176 0.950 . S
C172 C181 1.390 1_545 S
C173 C172 1.387 . S
C173 C175 1.387 . S
H174 C181 0.950 . S
C175 C173 1.387 . S
C175 C177 1.390 1_545 S
C175 H179 0.950 . S
H176 C172 0.950 . S
C177 C175 1.390 1_565 S
C177 C178 1.387 . S
C177 H180 0.950 . S
C178 C177 1.387 . S
C178 C181 1.387 . S
H179 C175 0.950 . S
H180 C177 0.950 . S
C181 C172 1.390 1_565 S
C181 H174 0.950 . S
C181 C178 1.387 . S
C182 C183 1.387 . S
C182 H186 0.950 . S
C182 C191 1.390 1_655 S
C183 C182 1.387 . S
C183 C185 1.387 . S
H184 C191 0.950 . S
C185 C183 1.387 . S
C185 C187 1.390 1_655 S
C185 H189 0.950 . S
H186 C182 0.950 . S
C187 C185 1.390 1_455 S
C187 C188 1.387 . S
C187 H190 0.950 . S
C188 C187 1.387 . S
C188 C191 1.387 . S
H189 C185 0.950 . S
H190 C187 0.950 . S
C191 C182 1.390 1_455 S
C191 H184 0.950 . S
C191 C188 1.387 . S
C192 C193 1.387 . S
C192 H196 0.950 . S
C192 C201 1.390 . S
C193 C192 1.387 . S
C193 C195 1.387 . S
H194 C201 0.950 . S
C195 C193 1.387 . S
C195 C197 1.390 . S
C195 H199 0.950 . S
H196 C192 0.950 . S
C197 C195 1.390 . S
C197 C198 1.387 . S
C197 H200 0.950 . S
C198 C197 1.387 . S
C198 C201 1.387 . S
H199 C195 0.950 . S
H200 C197 0.950 . S
C201 C192 1.390 . S
C201 H194 0.950 . S
C201 C198 1.387 . S
C202 C203 1.387 . S
C202 H206 0.950 . S
C202 C211 1.390 . S
C203 C202 1.387 . S
C203 C205 1.387 . S
H204 C211 0.950 . S
C205 C203 1.387 . S
C205 C207 1.390 . S
C205 H209 0.950 . S
H206 C202 0.950 . S
C207 C205 1.390 . S
C207 C208 1.387 . S
C207 H210 0.950 . S
C208 C207 1.387 . S
C208 C211 1.387 . S
H209 C205 0.950 . S
H210 C207 0.950 . S
C211 C202 1.390 . S
C211 H204 0.950 . S
C211 C208 1.387 . S
C212 C213 1.387 . S
C212 H216 0.950 . S
C212 C221 1.390 . S
C213 C212 1.387 . S
C213 C215 1.387 . S
H214 C221 0.950 . S
C215 C213 1.387 . S
C215 C217 1.390 . S
C215 H219 0.950 . S
H216 C212 0.950 . S
C217 C215 1.390 . S
C217 C218 1.387 . S
C217 H220 0.950 . S
C218 C217 1.387 . S
C218 C221 1.387 . S
H219 C215 0.950 . S
H220 C217 0.950 . S
C221 C212 1.390 . S
C221 H214 0.950 . S
C221 C218 1.387 . S
C222 C223 1.387 . S
C222 H226 0.950 . S
C222 C231 1.390 . S
C223 C222 1.387 . S
C223 C225 1.387 . S
H224 C231 0.950 . S
C225 C223 1.387 . S
C225 C227 1.390 . S
C225 H229 0.950 . S
H226 C222 0.950 . S
C227 C225 1.390 . S
C227 C228 1.387 . S
C227 H230 0.950 . S
C228 C227 1.387 . S
C228 C231 1.387 . S
H229 C225 0.950 . S
H230 C227 0.950 . S
C231 C222 1.390 . S
C231 H224 0.950 . S
C231 C228 1.387 . S
C232 C233 1.387 . S
C232 H236 0.950 . S
C232 C241 1.390 . S
C233 C232 1.387 . S
C233 C235 1.387 . S
H234 C241 0.950 . S
C235 C233 1.387 . S
C235 C237 1.390 . S
C235 H239 0.950 . S
H236 C232 0.950 . S
C237 C235 1.390 . S
C237 C238 1.387 . S
C237 H240 0.950 . S
C238 C237 1.387 . S
C238 C241 1.387 . S
H239 C235 0.950 . S
H240 C237 0.950 . S
C241 C232 1.390 . S
C241 H234 0.950 . S
C241 C238 1.387 . S
C242 C243 1.387 . S
C242 H246 0.950 . S
C242 C251 1.390 . S
C243 C242 1.387 . S
C243 C245 1.387 . S
H244 C251 0.950 . S
C245 C243 1.387 . S
C245 C247 1.390 . S
C245 H249 0.950 . S
H246 C242 0.950 . S
C247 C245 1.390 . S
C247 C248 1.387 . S
C247 H250 0.950 . S
C248 C247 1.387 . S
C248 C251 1.387 . S
H249 C245 0.950 . S
H250 C247 0.950 . S
C251 C242 1.390 . S
C251 H244 0.950 . S
C251 C248 1.387 . S
C252 C253 1.387 . S
C252 H256 0.950 . S
C252 C261 1.390 . S
C253 C252 1.387 . S
C253 C255 1.387 . S
H254 C261 0.950 . S
C255 C253 1.387 . S
C255 C257 1.390 . S
C255 H259 0.950 . S
H256 C252 0.950 . S
C257 C255 1.390 . S
C257 C258 1.387 . S
C257 H260 0.950 . S
C258 C257 1.387 . S
C258 C261 1.387 . S
H259 C255 0.950 . S
H260 C257 0.950 . S
C261 C252 1.390 . S
C261 H254 0.950 . S
C261 C258 1.387 . S
C262 C263 1.387 . S
C262 H266 0.950 . S
C262 C271 1.390 . S
C263 C262 1.387 . S
C263 C265 1.387 . S
H264 C271 0.950 . S
C265 C263 1.387 . S
C265 C267 1.390 . S
C265 H269 0.950 . S
H266 C262 0.950 . S
C267 C265 1.390 . S
C267 C268 1.387 . S
C267 H270 0.950 . S
C268 C267 1.387 . S
C268 C271 1.387 . S
H269 C265 0.950 . S
H270 C267 0.950 . S
C271 C262 1.390 . S
C271 H264 0.950 . S
C271 C268 1.387 . S
C113 C5 1.566 . S
C118 C47 1.566 . S
C123 C0 1.518 . S
C128 C14 1.518 . S
C133 C19 1.564 . S
C138 C33 1.564 . S
C143 C42 1.515 . S
C148 C28 1.515 . S
C153 C61 1.564 . S
C158 C103 1.564 . S
C163 C70 1.518 . S
C168 C56 1.518 . S
C173 C89 1.564 . S
C178 C75 1.564 . S
C183 C98 1.518 . S
C188 C84 1.518 . S
C193 C95 1.495 . S
C198 C9 1.508 . S
C203 C25 1.494 . S
C208 C107 1.507 . S
C213 C67 1.494 . S
C218 C37 1.508 . S
C223 C79 1.508 . S
C228 C53 1.493 . S
C233 C81 1.495 . S
C238 C51 1.508 . S
C243 C11 1.495 . S
C248 C93 1.508 . S
C253 C23 1.508 . S
C258 C109 1.494 . S
C263 C39 1.495 . S
C268 C65 1.508 . S
