# Generated by pormake.
# Topology wiv, (6)-cn, num edge types: 1
# Building blocks:
#     Node 0, Type 0, BuildingBlock: INOVEN_clean_sbu_0, # of connection points: 6
#     Node 1, Type 0, BuildingBlock: INOVEN_clean_sbu_0, # of connection points: 6
#     Node 2, Type 0, BuildingBlock: INOVEN_clean_sbu_0, # of connection points: 6
#     Node 3, Type 0, BuildingBlock: INOVEN_clean_sbu_0, # of connection points: 6
#     Node 4, Type 0, BuildingBlock: INOVEN_clean_sbu_0, # of connection points: 6
#     Node 5, Type 0, BuildingBlock: INOVEN_clean_sbu_0, # of connection points: 6
#     Node 6, Type 0, BuildingBlock: INOVEN_clean_sbu_0, # of connection points: 6
#     Node 7, Type 0, BuildingBlock: INOVEN_clean_sbu_0, # of connection points: 6
#     Node 8, Type 0, BuildingBlock: INOVEN_clean_sbu_0, # of connection points: 6
#     Node 9, Type 0, BuildingBlock: INOVEN_clean_sbu_0, # of connection points: 6
#     Node 10, Type 0, BuildingBlock: INOVEN_clean_sbu_0, # of connection points: 6
#     Node 11, Type 0, BuildingBlock: INOVEN_clean_sbu_0, # of connection points: 6
#     Node 12, Type 0, BuildingBlock: INOVEN_clean_sbu_0, # of connection points: 6
#     Node 13, Type 0, BuildingBlock: INOVEN_clean_sbu_0, # of connection points: 6
#     Node 14, Type 0, BuildingBlock: INOVEN_clean_sbu_0, # of connection points: 6
#     Node 15, Type 0, BuildingBlock: INOVEN_clean_sbu_0, # of connection points: 6
#     Edge 16, Type (0, 0), BuildingBlock: XIVTED_clean_linker_0, # of connection points: 2
#     Edge 17, Type (0, 0), BuildingBlock: XIVTED_clean_linker_0, # of connection points: 2
#     Edge 18, Type (0, 0), BuildingBlock: XIVTED_clean_linker_0, # of connection points: 2
#     Edge 19, Type (0, 0), BuildingBlock: XIVTED_clean_linker_0, # of connection points: 2
#     Edge 20, Type (0, 0), BuildingBlock: XIVTED_clean_linker_0, # of connection points: 2
#     Edge 21, Type (0, 0), BuildingBlock: XIVTED_clean_linker_0, # of connection points: 2
#     Edge 22, Type (0, 0), BuildingBlock: XIVTED_clean_linker_0, # of connection points: 2
#     Edge 23, Type (0, 0), BuildingBlock: XIVTED_clean_linker_0, # of connection points: 2
#     Edge 24, Type (0, 0), BuildingBlock: XIVTED_clean_linker_0, # of connection points: 2
#     Edge 25, Type (0, 0), BuildingBlock: XIVTED_clean_linker_0, # of connection points: 2
#     Edge 26, Type (0, 0), BuildingBlock: XIVTED_clean_linker_0, # of connection points: 2
#     Edge 27, Type (0, 0), BuildingBlock: XIVTED_clean_linker_0, # of connection points: 2
#     Edge 28, Type (0, 0), BuildingBlock: XIVTED_clean_linker_0, # of connection points: 2
#     Edge 29, Type (0, 0), BuildingBlock: XIVTED_clean_linker_0, # of connection points: 2
#     Edge 30, Type (0, 0), BuildingBlock: XIVTED_clean_linker_0, # of connection points: 2
#     Edge 31, Type (0, 0), BuildingBlock: XIVTED_clean_linker_0, # of connection points: 2
#     Edge 32, Type (0, 0), BuildingBlock: XIVTED_clean_linker_0, # of connection points: 2
#     Edge 33, Type (0, 0), BuildingBlock: XIVTED_clean_linker_0, # of connection points: 2
#     Edge 34, Type (0, 0), BuildingBlock: XIVTED_clean_linker_0, # of connection points: 2
#     Edge 35, Type (0, 0), BuildingBlock: XIVTED_clean_linker_0, # of connection points: 2
#     Edge 36, Type (0, 0), BuildingBlock: XIVTED_clean_linker_0, # of connection points: 2
#     Edge 37, Type (0, 0), BuildingBlock: XIVTED_clean_linker_0, # of connection points: 2
#     Edge 38, Type (0, 0), BuildingBlock: XIVTED_clean_linker_0, # of connection points: 2
#     Edge 39, Type (0, 0), BuildingBlock: XIVTED_clean_linker_0, # of connection points: 2
#     Edge 40, Type (0, 0), BuildingBlock: XIVTED_clean_linker_0, # of connection points: 2
#     Edge 41, Type (0, 0), BuildingBlock: XIVTED_clean_linker_0, # of connection points: 2
#     Edge 42, Type (0, 0), BuildingBlock: XIVTED_clean_linker_0, # of connection points: 2
#     Edge 43, Type (0, 0), BuildingBlock: XIVTED_clean_linker_0, # of connection points: 2
#     Edge 44, Type (0, 0), BuildingBlock: XIVTED_clean_linker_0, # of connection points: 2
#     Edge 45, Type (0, 0), BuildingBlock: XIVTED_clean_linker_0, # of connection points: 2
#     Edge 46, Type (0, 0), BuildingBlock: XIVTED_clean_linker_0, # of connection points: 2
#     Edge 47, Type (0, 0), BuildingBlock: XIVTED_clean_linker_0, # of connection points: 2
#     Edge 48, Type (0, 0), BuildingBlock: XIVTED_clean_linker_0, # of connection points: 2
#     Edge 49, Type (0, 0), BuildingBlock: XIVTED_clean_linker_0, # of connection points: 2
#     Edge 50, Type (0, 0), BuildingBlock: XIVTED_clean_linker_0, # of connection points: 2
#     Edge 51, Type (0, 0), BuildingBlock: XIVTED_clean_linker_0, # of connection points: 2
#     Edge 52, Type (0, 0), BuildingBlock: XIVTED_clean_linker_0, # of connection points: 2
#     Edge 53, Type (0, 0), BuildingBlock: XIVTED_clean_linker_0, # of connection points: 2
#     Edge 54, Type (0, 0), BuildingBlock: XIVTED_clean_linker_0, # of connection points: 2
#     Edge 55, Type (0, 0), BuildingBlock: XIVTED_clean_linker_0, # of connection points: 2
#     Edge 56, Type (0, 0), BuildingBlock: XIVTED_clean_linker_0, # of connection points: 2
#     Edge 57, Type (0, 0), BuildingBlock: XIVTED_clean_linker_0, # of connection points: 2
#     Edge 58, Type (0, 0), BuildingBlock: XIVTED_clean_linker_0, # of connection points: 2
#     Edge 59, Type (0, 0), BuildingBlock: XIVTED_clean_linker_0, # of connection points: 2
#     Edge 60, Type (0, 0), BuildingBlock: XIVTED_clean_linker_0, # of connection points: 2
#     Edge 61, Type (0, 0), BuildingBlock: XIVTED_clean_linker_0, # of connection points: 2
#     Edge 62, Type (0, 0), BuildingBlock: XIVTED_clean_linker_0, # of connection points: 2
#     Edge 63, Type (0, 0), BuildingBlock: XIVTED_clean_linker_0, # of connection points: 2
# Relax obj value: 0.112
# Max RMSD: 0.178
# Mean RMSD: 0.178
data_MOF--net-wiv--node1-INOVEN_clean_sbu_0--edge1-XIVTED_clean_linker_0
_symmetry_space_group_name_H-M    P1
_symmetry_Int_Tables_number       1
_symmetry_cell_setting            triclinic
loop_
_symmetry_equiv_pos_as_xyz
'x, y, z'
_cell_length_a     51.221198
_cell_length_b     51.372069
_cell_length_c     24.984494
_cell_angle_alpha  89.940367
_cell_angle_beta   89.937681
_cell_angle_gamma 90.058278
loop_
_atom_site_label
_atom_site_type_symbol
_atom_site_fract_x
_atom_site_fract_y
_atom_site_fract_z
_atom_type_partial_charge
Gd0 Gd 0.34829 0.10942 0.15555 0.0
Gd1 Gd 0.38624 0.11024 0.06619 0.0
C2 C 0.41128 0.11848 0.17942 0.0
C3 C 0.32483 0.10091 0.24608 0.0
C4 C 0.33171 0.10178 0.3039 0.0
C5 C 0.32339 0.12276 0.33569 0.0
C6 C 0.34605 0.08164 0.32828 0.0
C7 C 0.34401 0.10379 0.41465 0.0
C8 C 0.35217 0.08268 0.38288 0.0
C9 C 0.32951 0.1238 0.39025 0.0
C10 C 0.35352 0.15719 0.11136 0.0
C11 C 0.32424 0.10295 0.03869 0.0
C12 C 0.40952 0.1173 0.97518 0.0
C13 C 0.40193 0.11648 0.91782 0.0
C14 C 0.41283 0.09749 0.88413 0.0
C15 C 0.38397 0.13429 0.89603 0.0
C16 C 0.38806 0.11405 0.80803 0.0
C17 C 0.37719 0.13312 0.84175 0.0
C18 C 0.40591 0.0962 0.82999 0.0
C19 C 0.38186 0.06363 0.11617 0.0
O20 O 0.38786 0.11216 0.19825 0.0
O21 O 0.41532 0.12196 0.1278 0.0
O22 O 0.32396 0.12318 0.22082 0.0
O23 O 0.33524 0.08246 0.21702 0.0
O24 O 0.33146 0.14648 0.12439 0.0
O25 O 0.37213 0.14157 0.12072 0.0
O26 O 0.34767 0.11011 1.02241 0.0
O27 O 0.31955 0.09857 0.0901 0.0
O28 O 0.40945 0.09505 1.0006 0.0
O29 O 0.40033 0.1364 1.00434 0.0
O30 O 0.40382 0.07332 0.09979 0.0
O31 O 0.36323 0.07857 0.10393 0.0
H32 H 0.312 0.13841 0.31838 0.0
H33 H 0.35257 0.06503 0.30529 0.0
H34 H 0.36357 0.06702 0.40005 0.0
H35 H 0.32248 0.14014 0.41349 0.0
H36 H 0.42679 0.08359 0.89971 0.0
H37 H 0.37507 0.14911 0.92084 0.0
H38 H 0.36317 0.14699 0.82631 0.0
H39 H 0.41489 0.08146 0.8051 0.0
Gd40 Gd 0.11306 0.62089 0.97946 0.0
Gd41 Gd 0.10967 0.65873 0.88969 0.0
C42 C 0.10303 0.68249 1.00683 0.0
C43 C 0.12318 0.59809 0.06979 0.0
C44 C 0.12186 0.60515 0.12727 0.0
C45 C 0.11128 0.58743 0.16418 0.0
C46 C 0.13069 0.62943 0.14585 0.0
C47 C 0.11824 0.61813 0.23745 0.0
C48 C 0.12887 0.63586 0.20025 0.0
C49 C 0.10948 0.59381 0.21859 0.0
C50 C 0.06546 0.62348 0.93269 0.0
C51 C 0.11992 0.59633 0.86534 0.0
C52 C 0.10041 0.68169 0.79891 0.0
C53 C 0.10145 0.67462 0.74146 0.0
C54 C 0.11155 0.69249 0.70432 0.0
C55 C 0.09281 0.65023 0.72314 0.0
C56 C 0.10452 0.66172 0.63123 0.0
C57 C 0.09433 0.64385 0.66867 0.0
C58 C 0.11307 0.68615 0.64988 0.0
C59 C 0.15818 0.65462 0.93168 0.0
O60 O 0.11114 0.6594 1.02287 0.0
O61 O 0.09823 0.68707 0.95551 0.0
O62 O 0.10084 0.59578 0.04498 0.0
O63 O 0.14092 0.60981 0.04065 0.0
O64 O 0.07594 0.60213 0.95018 0.0
O65 O 0.07999 0.6427 0.94336 0.0
O66 O 0.11128 0.61914 0.84775 0.0
O67 O 0.12566 0.59283 0.91631 0.0
O68 O 0.12277 0.68318 0.82373 0.0
O69 O 0.08237 0.67053 0.82801 0.0
O70 O 0.14694 0.67639 0.91908 0.0
O71 O 0.1429 0.63579 0.92241 0.0
H72 H 0.10438 0.56857 0.15088 0.0
H73 H 0.13886 0.64356 0.11833 0.0
H74 H 0.13547 0.6549 0.21298 0.0
H75 H 0.10153 0.5795 0.24598 0.0
H76 H 0.11827 0.71144 0.71745 0.0
H77 H 0.08496 0.63603 0.75091 0.0
H78 H 0.08787 0.62475 0.65605 0.0
H79 H 0.12067 0.70056 0.62229 0.0
Gd80 Gd 0.65916 0.89815 0.15723 0.0
Gd81 Gd 0.6212 0.89603 0.06802 0.0
C82 C 0.59629 0.88864 0.18176 0.0
C83 C 0.68215 0.90688 0.24818 0.0
C84 C 0.67503 0.90506 0.30554 0.0
C85 C 0.69373 0.89684 0.34286 0.0
C86 C 0.64979 0.91125 0.32362 0.0
C87 C 0.66221 0.9012 0.41581 0.0
C88 C 0.64347 0.90936 0.37808 0.0
C89 C 0.68742 0.89492 0.39732 0.0
C90 C 0.65444 0.84995 0.11482 0.0
C91 C 0.68301 0.90499 0.03998 0.0
C92 C 0.59797 0.88697 0.97768 0.0
C93 C 0.6052 0.88749 0.92024 0.0
C94 C 0.58752 0.89754 0.88272 0.0
C95 C 0.62964 0.8786 0.90234 0.0
C96 C 0.61858 0.88997 0.81012 0.0
C97 C 0.63629 0.8799 0.84794 0.0
C98 C 0.59408 0.89874 0.82831 0.0
C99 C 0.62444 0.94308 0.11673 0.0
O100 O 0.61962 0.89558 0.19994 0.0
O101 O 0.59225 0.88449 0.13038 0.0
O102 O 0.68409 0.88491 0.22227 0.0
O103 O 0.67053 0.92491 0.22007 0.0
O104 O 0.67639 0.86103 0.12718 0.0
O105 O 0.63568 0.86544 0.12385 0.0
O106 O 0.65969 0.89736 1.02411 0.0
O107 O 0.68777 0.90944 0.09136 0.0
O108 O 0.59722 0.90949 1.00188 0.0
O109 O 0.60846 0.86871 1.00727 0.0
O110 O 0.6029 0.93294 0.09913 0.0
O111 O 0.64353 0.92854 0.105 0.0
H112 H 0.71327 0.89182 0.32983 0.0
H113 H 0.63496 0.91765 0.29573 0.0
H114 H 0.62396 0.91468 0.39067 0.0
H115 H 0.70227 0.88816 0.42483 0.0
H116 H 0.56861 0.90463 0.89557 0.0
H117 H 0.64367 0.8707 0.93037 0.0
H118 H 0.6552 0.87272 0.83546 0.0
H119 H 0.58008 0.90695 0.80062 0.0
Gd120 Gd 0.89653 0.38221 0.97797 0.0
Gd121 Gd 0.90679 0.34463 0.88089 0.0
C122 C 0.90929 0.32023 1.00078 0.0
C123 C 0.88313 0.40203 0.06924 0.0
C124 C 0.88555 0.39404 0.12604 0.0
C125 C 0.90763 0.3805 0.14444 0.0
C126 C 0.86573 0.40026 0.1626 0.0
C127 C 0.89029 0.38013 0.2356 0.0
C128 C 0.86804 0.39339 0.21673 0.0
C129 C 0.90997 0.37363 0.19853 0.0
C130 C 0.94491 0.38252 0.93419 0.0
C131 C 0.88897 0.40616 0.86267 0.0
C132 C 0.92943 0.32647 0.79628 0.0
C133 C 0.92405 0.32905 0.73844 0.0
C134 C 0.90057 0.34011 0.72056 0.0
C135 C 0.94312 0.32212 0.70079 0.0
C136 C 0.91547 0.33767 0.62774 0.0
C137 C 0.93888 0.32632 0.646 0.0
C138 C 0.89629 0.3443 0.66584 0.0
C139 C 0.85451 0.3483 0.89584 0.0
O140 O 0.90264 0.34352 1.01874 0.0
O141 O 0.91332 0.31565 0.94894 0.0
O142 O 0.9049 0.40783 0.04444 0.0
O143 O 0.86706 0.38846 0.03949 0.0
O144 O 0.93305 0.40331 0.95098 0.0
O145 O 0.93087 0.36276 0.9428 0.0
O146 O 0.90061 0.38494 0.8436 0.0
O147 O 0.88187 0.40836 0.91338 0.0
O148 O 0.9125 0.31301 0.82451 0.0
O149 O 0.93668 0.34802 0.82 0.0
O150 O 0.86555 0.33351 0.8605 0.0
O151 O 0.872 0.35971 0.92279 0.0
H152 H 0.92321 0.37539 0.11706 0.0
H153 H 0.84846 0.41056 0.14932 0.0
H154 H 0.85227 0.39836 0.24372 0.0
H155 H 0.92751 0.36371 0.21142 0.0
H156 H 0.88567 0.34582 0.74902 0.0
H157 H 0.96152 0.3139 0.71383 0.0
H158 H 0.95426 0.32131 0.61811 0.0
H159 H 0.87791 0.35275 0.65343 0.0
Gd160 Gd 0.34964 0.39855 0.13543 0.0
Gd161 Gd 0.38689 0.39601 0.22549 0.0
C162 C 0.41258 0.38938 0.11232 0.0
C163 C 0.32688 0.40798 0.0446 0.0
C164 C 0.3339 0.40623 0.98727 0.0
C165 C 0.31504 0.39832 0.95002 0.0
C166 C 0.35919 0.41223 0.96914 0.0
C167 C 0.34648 0.40268 0.87706 0.0
C168 C 0.36539 0.41052 0.91463 0.0
C169 C 0.32123 0.39653 0.89554 0.0
C170 C 0.35441 0.34999 0.17629 0.0
C171 C 0.32495 0.40449 0.25205 0.0
C172 C 0.40989 0.38644 0.31582 0.0
C173 C 0.40274 0.38719 0.37321 0.0
C174 C 0.42073 0.39682 0.41054 0.0
C175 C 0.37807 0.37895 0.39121 0.0
C176 C 0.3895 0.3902 0.48323 0.0
C177 C 0.37151 0.38047 0.44559 0.0
C178 C 0.41423 0.39829 0.46491 0.0
C179 C 0.38379 0.44343 0.17821 0.0
O180 O 0.38941 0.39637 0.09347 0.0
O181 O 0.41618 0.38487 0.16369 0.0
O182 O 0.32451 0.38596 0.07024 0.0
O183 O 0.3389 0.42571 0.07282 0.0
O184 O 0.33248 0.36098 0.16363 0.0
O185 O 0.37309 0.36574 0.1684 0.0
O186 O 0.34819 0.39699 0.26856 0.0
O187 O 0.32054 0.40917 0.20065 0.0
O188 O 0.41123 0.40892 0.29149 0.0
O189 O 0.39886 0.36843 0.28643 0.0
O190 O 0.40524 0.43323 0.19601 0.0
O191 O 0.36465 0.42873 0.18893 0.0
H192 H 0.29541 0.39359 0.96309 0.0
H193 H 0.37419 0.41824 0.99705 0.0
H194 H 0.38512 0.41506 0.90202 0.0
H195 H 0.3061 0.39071 0.86776 0.0
H196 H 0.43988 0.40325 0.39761 0.0
H197 H 0.36377 0.37149 0.36326 0.0
H198 H 0.35217 0.3744 0.45795 0.0
H199 H 0.42874 0.40551 0.49267 0.0
Gd200 Gd 0.39421 0.62576 0.82633 0.0
Gd201 Gd 0.40647 0.66396 0.92237 0.0
C202 C 0.40826 0.68765 0.80219 0.0
C203 C 0.37964 0.60576 0.73597 0.0
C204 C 0.38174 0.61317 0.67864 0.0
C205 C 0.38961 0.59449 0.64101 0.0
C206 C 0.3768 0.6387 0.661 0.0
C207 C 0.38784 0.6267 0.56899 0.0
C208 C 0.37988 0.6454 0.60686 0.0
C209 C 0.39261 0.60113 0.58693 0.0
C210 C 0.44299 0.62473 0.86786 0.0
C211 C 0.38815 0.60286 0.94268 0.0
C212 C 0.42921 0.68143 1.00736 0.0
C213 C 0.42525 0.67649 0.06561 0.0
C214 C 0.41801 0.69683 0.10015 0.0
C215 C 0.42824 0.65134 0.08721 0.0
C216 C 0.41622 0.66684 0.1763 0.0
C217 C 0.4238 0.64661 0.14166 0.0
C218 C 0.41355 0.69209 0.1548 0.0
C219 C 0.35387 0.66031 0.90962 0.0
O220 O 0.40082 0.66439 0.78503 0.0
O221 O 0.41291 0.69249 0.85371 0.0
O222 O 0.40156 0.59967 0.75972 0.0
O223 O 0.36416 0.61971 0.7664 0.0
O224 O 0.4305 0.60409 0.8521 0.0
O225 O 0.42931 0.64476 0.85955 0.0
O226 O 0.40171 0.62346 0.95903 0.0
O227 O 0.37893 0.60099 0.89332 0.0
O228 O 0.41089 0.69446 0.98229 0.0
O229 O 0.43822 0.66193 0.97909 0.0
O230 O 0.36526 0.67529 0.94411 0.0
O231 O 0.37121 0.64883 0.88263 0.0
H232 H 0.3937 0.57472 0.65359 0.0
H233 H 0.3707 0.65356 0.68904 0.0
H234 H 0.37575 0.6652 0.59464 0.0
H235 H 0.39916 0.58626 0.55932 0.0
H236 H 0.41556 0.71639 0.08476 0.0
H237 H 0.43395 0.63515 0.06208 0.0
H238 H 0.42657 0.62702 0.15666 0.0
H239 H 0.40752 0.70814 0.17997 0.0
Gd240 Gd 0.66041 0.60867 0.13947 0.0
Gd241 Gd 0.62278 0.61076 0.22955 0.0
C242 C 0.59734 0.61701 0.11611 0.0
C243 C 0.68336 0.59982 0.04847 0.0
C244 C 0.67627 0.60156 0.99117 0.0
C245 C 0.69516 0.60918 0.9536 0.0
C246 C 0.65089 0.5958 0.97339 0.0
C247 C 0.66354 0.60503 0.88101 0.0
C248 C 0.64461 0.59749 0.91893 0.0
C249 C 0.6889 0.61092 0.89914 0.0
C250 C 0.65511 0.65707 0.18074 0.0
C251 C 0.68476 0.60215 0.2563 0.0
C252 C 0.59963 0.62025 0.31983 0.0
C253 C 0.60675 0.61972 0.37724 0.0
C254 C 0.58874 0.61026 0.41484 0.0
C255 C 0.63142 0.62801 0.395 0.0
C256 C 0.61999 0.61705 0.4873 0.0
C257 C 0.63798 0.62663 0.44938 0.0
C258 C 0.59523 0.60897 0.46922 0.0
C259 C 0.62635 0.56353 0.18183 0.0
O260 O 0.62067 0.61036 0.09749 0.0
O261 O 0.5935 0.62147 0.16745 0.0
O262 O 0.68535 0.62183 0.07423 0.0
O263 O 0.67163 0.58185 0.07666 0.0
O264 O 0.67717 0.64629 0.16821 0.0
O265 O 0.63659 0.64118 0.17257 0.0
O266 O 0.66146 0.60966 0.27268 0.0
O267 O 0.68932 0.5977 0.20484 0.0
O268 O 0.59859 0.59768 0.29581 0.0
O269 O 0.61045 0.63832 0.29017 0.0
O270 O 0.60478 0.57341 0.19988 0.0
O271 O 0.64531 0.5784 0.19276 0.0
H272 H 0.71486 0.6137 0.96639 0.0
H273 H 0.63589 0.58998 1.00152 0.0
H274 H 0.62481 0.59316 0.90663 0.0
H275 H 0.70406 0.61649 0.87113 0.0
H276 H 0.56958 0.60382 0.40211 0.0
H277 H 0.64572 0.63537 0.36685 0.0
H278 H 0.65735 0.63269 0.46151 0.0
H279 H 0.58069 0.60188 0.49717 0.0
Gd280 Gd 0.61584 0.38398 0.82169 0.0
Gd281 Gd 0.60902 0.34625 0.91104 0.0
C282 C 0.60403 0.32248 0.79398 0.0
C283 C 0.6276 0.4062 0.73148 0.0
C284 C 0.62534 0.39938 0.67385 0.0
C285 C 0.61449 0.41738 0.63788 0.0
C286 C 0.63352 0.37507 0.65419 0.0
C287 C 0.61988 0.38689 0.56357 0.0
C288 C 0.63078 0.36889 0.5998 0.0
C289 C 0.61181 0.41124 0.58347 0.0
C290 C 0.56732 0.38258 0.86474 0.0
C291 C 0.62106 0.40817 0.93616 0.0
C292 C 0.59666 0.32449 1.00154 0.0
C293 C 0.59792 0.3316 0.05908 0.0
C294 C 0.60755 0.31349 0.09621 0.0
C295 C 0.59012 0.35625 0.07751 0.0
C296 C 0.60173 0.34451 0.16941 0.0
C297 C 0.59201 0.36263 0.13198 0.0
C298 C 0.60945 0.31983 0.15062 0.0
C299 C 0.65873 0.34919 0.87411 0.0
O300 O 0.61338 0.34526 0.7785 0.0
O301 O 0.59783 0.31823 0.84478 0.0
O302 O 0.60571 0.41045 0.75698 0.0
O303 O 0.64438 0.39296 0.76016 0.0
O304 O 0.57909 0.40379 0.8501 0.0
O305 O 0.58138 0.36306 0.85422 0.0
O306 O 0.6102 0.38602 0.95206 0.0
O307 O 0.62924 0.41114 0.88637 0.0
O308 O 0.619 0.32082 0.97753 0.0
O309 O 0.57995 0.33706 0.97154 0.0
O310 O 0.64678 0.32774 0.88644 0.0
O311 O 0.64369 0.36834 0.88161 0.0
H312 H 0.60795 0.43621 0.65197 0.0
H313 H 0.64201 0.36076 0.68082 0.0
H314 H 0.63753 0.35007 0.58607 0.0
H315 H 0.60299 0.42549 0.55716 0.0
H316 H 0.61381 0.2944 0.08302 0.0
H317 H 0.58256 0.37063 0.04986 0.0
H318 H 0.58555 0.3817 0.1448 0.0
H319 H 0.61742 0.30548 0.17781 0.0
Gd320 Gd 0.8468 0.60526 0.66412 0.0
Gd321 Gd 0.88496 0.61071 0.57541 0.0
C322 C 0.90899 0.61672 0.68965 0.0
C323 C 0.82469 0.59365 0.75477 0.0
C324 C 0.83187 0.59487 0.81231 0.0
C325 C 0.81388 0.60477 0.84946 0.0
C326 C 0.85649 0.58673 0.83073 0.0
C327 C 0.84494 0.59857 0.92261 0.0
C328 C 0.86293 0.58853 0.88521 0.0
C329 C 0.8203 0.60662 0.90386 0.0
C330 C 0.8505 0.65461 0.62636 0.0
C331 C 0.82321 0.60055 0.54682 0.0
C332 C 0.90789 0.62095 0.48504 0.0
C333 C 0.90094 0.61921 0.42737 0.0
C334 C 0.91848 0.60776 0.39118 0.0
C335 C 0.87697 0.62858 0.40785 0.0
C336 C 0.88821 0.61489 0.31691 0.0
C337 C 0.87067 0.62639 0.35339 0.0
C338 C 0.91223 0.60563 0.33669 0.0
C339 C 0.88256 0.56267 0.62045 0.0
O340 O 0.88659 0.60633 0.7057 0.0
O341 O 0.91224 0.6243 0.63959 0.0
O342 O 0.8215 0.61594 0.73051 0.0
O343 O 0.8369 0.57664 0.72492 0.0
O344 O 0.82881 0.64302 0.63875 0.0
O345 O 0.86954 0.63937 0.63398 0.0
O346 O 0.84628 0.60945 0.53184 0.0
O347 O 0.81861 0.59448 0.59757 0.0
O348 O 0.9107 0.59889 0.5105 0.0
O349 O 0.89574 0.6385 0.51376 0.0
O350 O 0.90411 0.5741 0.60646 0.0
O351 O 0.8633 0.57686 0.60855 0.0
H352 H 0.79476 0.61113 0.83634 0.0
H353 H 0.87083 0.57908 0.80304 0.0
H354 H 0.88219 0.58242 0.89786 0.0
H355 H 0.80578 0.61409 0.93135 0.0
H356 H 0.93712 0.60046 0.40508 0.0
H357 H 0.86297 0.63745 0.4347 0.0
H358 H 0.85183 0.6334 0.34009 0.0
H359 H 0.92645 0.59702 0.30996 0.0
Gd360 Gd 0.61315 0.12393 0.47384 0.0
Gd361 Gd 0.60709 0.16165 0.38431 0.0
C362 C 0.60232 0.18557 0.50132 0.0
C363 C 0.62422 0.10141 0.56403 0.0
C364 C 0.6223 0.10827 0.62166 0.0
C365 C 0.61144 0.09037 0.6579 0.0
C366 C 0.63085 0.1325 0.64106 0.0
C367 C 0.61762 0.12079 0.73205 0.0
C368 C 0.62851 0.13869 0.69553 0.0
C369 C 0.60912 0.09652 0.71237 0.0
C370 C 0.56486 0.12562 0.42984 0.0
C371 C 0.61879 0.09961 0.35947 0.0
C372 C 0.59505 0.1835 0.29382 0.0
C373 C 0.59629 0.17639 0.23631 0.0
C374 C 0.60602 0.19448 0.19918 0.0
C375 C 0.58839 0.15175 0.21791 0.0
C376 C 0.60018 0.16345 0.12608 0.0
C377 C 0.59028 0.14537 0.16344 0.0
C378 C 0.60796 0.18812 0.14479 0.0
C379 C 0.65672 0.15836 0.42163 0.0
O380 O 0.61126 0.16268 0.51691 0.0
O381 O 0.59626 0.18986 0.45049 0.0
O382 O 0.60216 0.0979 0.53879 0.0
O383 O 0.64141 0.11412 0.5352 0.0
O384 O 0.57641 0.10435 0.44464 0.0
O385 O 0.57902 0.14506 0.44068 0.0
O386 O 0.60824 0.12184 0.34324 0.0
O387 O 0.62659 0.09663 0.40947 0.0
O388 O 0.61741 0.18698 0.31781 0.0
O389 O 0.57818 0.17107 0.32381 0.0
O390 O 0.64505 0.17986 0.40876 0.0
O391 O 0.64141 0.13936 0.41434 0.0
H392 H 0.60475 0.07153 0.64404 0.0
H393 H 0.63922 0.14679 0.61413 0.0
H394 H 0.63492 0.1577 0.70883 0.0
H395 H 0.60097 0.08206 0.73919 0.0
H396 H 0.6122 0.21362 0.21231 0.0
H397 H 0.58089 0.13735 0.24562 0.0
H398 H 0.58438 0.12609 0.15077 0.0
H399 H 0.61532 0.2027 0.11729 0.0
Gd400 Gd 0.16122 0.39518 0.65749 0.0
Gd401 Gd 0.12277 0.39513 0.56782 0.0
C402 C 0.09806 0.38767 0.68178 0.0
C403 C 0.18516 0.4023 0.74796 0.0
C404 C 0.17747 0.40266 0.80512 0.0
C405 C 0.15689 0.38707 0.82413 0.0
C406 C 0.19117 0.41833 0.84145 0.0
C407 C 0.16436 0.40226 0.91554 0.0
C408 C 0.18472 0.41815 0.89601 0.0
C409 C 0.15042 0.38686 0.87865 0.0
C410 C 0.15505 0.34782 0.61216 0.0
C411 C 0.18505 0.402 0.54016 0.0
C412 C 0.09927 0.38744 0.47719 0.0
C413 C 0.10635 0.38913 0.4198 0.0
C414 C 0.12519 0.40695 0.4015 0.0
C415 C 0.09408 0.37274 0.38267 0.0
C416 C 0.11917 0.39209 0.30944 0.0
C417 C 0.10035 0.37422 0.32813 0.0
C418 C 0.1316 0.40836 0.34699 0.0
C419 C 0.12758 0.44147 0.61835 0.0
O420 O 0.12158 0.39386 0.70013 0.0
O421 O 0.09386 0.38376 0.63035 0.0
O422 O 0.18372 0.37984 0.72371 0.0
O423 O 0.1767 0.42143 0.71817 0.0
O424 O 0.17733 0.3581 0.62495 0.0
O425 O 0.13673 0.36368 0.62227 0.0
O426 O 0.16134 0.39577 0.52401 0.0
O427 O 0.19008 0.40569 0.59167 0.0
O428 O 0.09832 0.4094 0.50353 0.0
O429 O 0.11026 0.36875 0.50474 0.0
O430 O 0.10573 0.43265 0.5996 0.0
O431 O 0.14608 0.42624 0.60656 0.0
H432 H 0.14604 0.37476 0.79693 0.0
H433 H 0.20703 0.43061 0.82766 0.0
H434 H 0.19562 0.43062 0.92284 0.0
H435 H 0.13485 0.37414 0.892 0.0
H436 H 0.13492 0.41986 0.42935 0.0
H437 H 0.07956 0.35878 0.39588 0.0
H438 H 0.09064 0.36112 0.30065 0.0
H439 H 0.14597 0.42253 0.33418 0.0
Gd440 Gd 0.39527 0.88559 0.48084 0.0
Gd441 Gd 0.39998 0.84796 0.39138 0.0
C442 C 0.4062 0.82415 0.50844 0.0
C443 C 0.38553 0.90849 0.5712 0.0
C444 C 0.38697 0.9015 0.62876 0.0
C445 C 0.39808 0.9191 0.66513 0.0
C446 C 0.37786 0.8774 0.64791 0.0
C447 C 0.39114 0.88863 0.73898 0.0
C448 C 0.37998 0.87102 0.70233 0.0
C449 C 0.40013 0.91279 0.71955 0.0
C450 C 0.4428 0.88411 0.43326 0.0
C451 C 0.38762 0.91009 0.36696 0.0
C452 C 0.41138 0.82584 0.30093 0.0
C453 C 0.41019 0.83293 0.24344 0.0
C454 C 0.40057 0.81482 0.20637 0.0
C455 C 0.41811 0.85758 0.22501 0.0
C456 C 0.40668 0.8458 0.13312 0.0
C457 C 0.41637 0.86393 0.17051 0.0
C458 C 0.39882 0.82115 0.15193 0.0
C459 C 0.35112 0.85065 0.43246 0.0
O460 O 0.39738 0.84702 0.52425 0.0
O461 O 0.41164 0.81982 0.45732 0.0
O462 O 0.40783 0.91059 0.54607 0.0
O463 O 0.36762 0.89689 0.54238 0.0
O464 O 0.43132 0.90535 0.44835 0.0
O465 O 0.42895 0.86463 0.44542 0.0
O466 O 0.39682 0.88753 0.34923 0.0
O467 O 0.38177 0.91334 0.41796 0.0
O468 O 0.389 0.82278 0.32522 0.0
O469 O 0.42853 0.83803 0.33052 0.0
O470 O 0.36288 0.82924 0.41926 0.0
O471 O 0.36594 0.86993 0.42371 0.0
H472 H 0.40535 0.93776 0.65135 0.0
H473 H 0.36917 0.86341 0.62085 0.0
H474 H 0.37256 0.85237 0.71576 0.0
H475 H 0.40918 0.92671 0.74624 0.0
H476 H 0.39423 0.79574 0.21962 0.0
H477 H 0.42563 0.87197 0.25266 0.0
H478 H 0.42293 0.88298 0.15765 0.0
H479 H 0.39087 0.8068 0.12472 0.0
Gd480 Gd 0.84582 0.9018 0.62853 0.0
Gd481 Gd 0.88416 0.89341 0.7256 0.0
C482 C 0.90804 0.88615 0.61009 0.0
C483 C 0.8266 0.92276 0.54301 0.0
C484 C 0.8285 0.91695 0.48529 0.0
C485 C 0.84353 0.89588 0.46709 0.0
C486 C 0.81725 0.93385 0.44781 0.0
C487 C 0.8369 0.90935 0.37429 0.0
C488 C 0.82135 0.93008 0.39289 0.0
C489 C 0.84764 0.89208 0.41218 0.0
C490 C 0.85102 0.84989 0.64543 0.0
C491 C 0.82182 0.90477 0.74907 0.0
C492 C 0.90463 0.88058 0.8167 0.0
C493 C 0.89672 0.88304 0.8735 0.0
C494 C 0.8814 0.90407 0.89088 0.0
C495 C 0.9046 0.86429 0.91096 0.0
C496 C 0.88215 0.88767 0.9827 0.0
C497 C 0.89744 0.86656 0.96496 0.0
C498 C 0.87414 0.90632 0.94475 0.0
C499 C 0.88298 0.94163 0.68112 0.0
O500 O 0.88628 0.8968 0.59109 0.0
O501 O 0.91075 0.87954 0.66094 0.0
O502 O 0.81352 0.90618 0.57279 0.0
O503 O 0.84852 0.9302 0.56508 0.0
O504 O 0.83571 0.86019 0.61006 0.0
O505 O 0.86211 0.86793 0.67137 0.0
O506 O 0.84537 0.89859 0.76661 0.0
O507 O 0.81693 0.90855 0.69719 0.0
O508 O 0.90996 0.90232 0.79161 0.0
O509 O 0.89111 0.86431 0.78735 0.0
O510 O 0.90395 0.93084 0.70011 0.0
O511 O 0.8636 0.92689 0.68924 0.0
H512 H 0.85266 0.88278 0.49545 0.0
H513 H 0.80575 0.95032 0.46106 0.0
H514 H 0.81246 0.94355 0.36499 0.0
H515 H 0.85998 0.87612 0.39956 0.0
H516 H 0.87498 0.91878 0.86274 0.0
H517 H 0.91649 0.84794 0.89851 0.0
H518 H 0.90429 0.85199 0.99294 0.0
H519 H 0.862 0.92259 0.95651 0.0
Gd520 Gd 0.89409 0.12152 0.32086 0.0
Gd521 Gd 0.90147 0.1591 0.41008 0.0
C522 C 0.90678 0.18277 0.29278 0.0
C523 C 0.88209 0.09937 0.23084 0.0
C524 C 0.8845 0.10595 0.17307 0.0
C525 C 0.89503 0.08763 0.13745 0.0
C526 C 0.87667 0.1303 0.15289 0.0
C527 C 0.88998 0.11782 0.06243 0.0
C528 C 0.87944 0.13618 0.09832 0.0
C529 C 0.89773 0.09346 0.08287 0.0
C530 C 0.94267 0.12239 0.36361 0.0
C531 C 0.88846 0.09736 0.43542 0.0
C532 C 0.91424 0.18075 0.50033 0.0
C533 C 0.91275 0.17391 0.55802 0.0
C534 C 0.90386 0.19253 0.59483 0.0
C535 C 0.91966 0.14907 0.57696 0.0
C536 C 0.90877 0.16169 0.66875 0.0
C537 C 0.9177 0.14304 0.63163 0.0
C538 C 0.90188 0.18653 0.64942 0.0
C539 C 0.8517 0.15708 0.37335 0.0
O540 O 0.897 0.16017 0.27749 0.0
O541 O 0.91314 0.18689 0.34352 0.0
O542 O 0.90388 0.09482 0.2564 0.0
O543 O 0.86551 0.11297 0.25931 0.0
O544 O 0.93063 0.10129 0.34932 0.0
O545 O 0.92882 0.14203 0.35302 0.0
O546 O 0.89969 0.11931 0.45129 0.0
O547 O 0.88022 0.0946 0.38567 0.0
O548 O 0.89202 0.18491 0.47623 0.0
O549 O 0.93065 0.16766 0.4706 0.0
O550 O 0.86402 0.17828 0.38582 0.0
O551 O 0.86643 0.13766 0.38069 0.0
H552 H 0.90129 0.06876 0.15193 0.0
H553 H 0.86841 0.14485 0.17925 0.0
H554 H 0.87296 0.15502 0.08416 0.0
H555 H 0.90627 0.07894 0.05682 0.0
H556 H 0.89828 0.21177 0.58125 0.0
H557 H 0.9266 0.13429 0.54956 0.0
H558 H 0.92351 0.12382 0.64484 0.0
H559 H 0.89451 0.2013 0.67636 0.0
Gd560 Gd 0.16047 0.10522 0.63227 0.0
Gd561 Gd 0.12364 0.10943 0.72303 0.0
C562 C 0.09764 0.11538 0.60991 0.0
C563 C 0.18267 0.09361 0.5418 0.0
C564 C 0.17658 0.09682 0.48443 0.0
C565 C 0.15789 0.11491 0.46706 0.0
C566 C 0.18926 0.08119 0.44655 0.0
C567 C 0.1648 0.10178 0.37412 0.0
C568 C 0.18347 0.08363 0.39201 0.0
C569 C 0.15207 0.11739 0.41247 0.0
C570 C 0.15625 0.15443 0.66977 0.0
C571 C 0.18557 0.10065 0.74874 0.0
C572 C 0.10109 0.12037 0.81333 0.0
C573 C 0.10794 0.11861 0.87069 0.0
C574 C 0.12561 0.09981 0.88943 0.0
C575 C 0.09668 0.13596 0.90729 0.0
C576 C 0.12047 0.11565 0.98098 0.0
C577 C 0.10282 0.13449 0.96184 0.0
C578 C 0.13186 0.09838 0.94395 0.0
C579 C 0.12665 0.06115 0.6795 0.0
O580 O 0.12064 0.10794 0.59086 0.0
O581 O 0.09432 0.12044 0.66116 0.0
O582 O 0.18773 0.11481 0.56868 0.0
O583 O 0.16767 0.07757 0.5683 0.0
O584 O 0.17796 0.14327 0.65624 0.0
O585 O 0.13739 0.13874 0.66357 0.0
O586 O 0.16257 0.10898 0.76514 0.0
O587 O 0.18945 0.09463 0.69774 0.0
O588 O 0.09793 0.09833 0.78806 0.0
O589 O 0.114 0.13753 0.78502 0.0
O590 O 0.10528 0.07162 0.69699 0.0
O591 O 0.14577 0.0761 0.68863 0.0
H592 H 0.14784 0.12715 0.4957 0.0
H593 H 0.20359 0.06696 0.45919 0.0
H594 H 0.19336 0.07097 0.36394 0.0
H595 H 0.13781 0.13177 0.40032 0.0
H596 H 0.13451 0.08615 0.86192 0.0
H597 H 0.08308 0.15068 0.89367 0.0
H598 H 0.09395 0.14834 0.98895 0.0
H599 H 0.1453 0.08345 0.95718 0.0
Gd600 Gd 0.11453 0.87948 0.32798 0.0
Gd601 Gd 0.10263 0.84091 0.42342 0.0
C602 C 0.10106 0.81762 0.30299 0.0
C603 C 0.12842 0.89981 0.23733 0.0
C604 C 0.12591 0.89269 0.17986 0.0
C605 C 0.11515 0.91068 0.1438 0.0
C606 C 0.13354 0.86813 0.16045 0.0
C607 C 0.11965 0.87984 0.06984 0.0
C608 C 0.13042 0.86179 0.10615 0.0
C609 C 0.11202 0.90437 0.08962 0.0
C610 C 0.06574 0.88005 0.36993 0.0
C611 C 0.12096 0.90196 0.44433 0.0
C612 C 0.0798 0.82333 0.50846 0.0
C613 C 0.08356 0.82793 0.56697 0.0
C614 C 0.0958 0.80917 0.59942 0.0
C615 C 0.07513 0.85126 0.59099 0.0
C616 C 0.09188 0.83735 0.678 0.0
C617 C 0.07926 0.85589 0.64557 0.0
C618 C 0.09993 0.81382 0.65418 0.0
C619 C 0.15523 0.84491 0.41087 0.0
O620 O 0.10839 0.84099 0.28624 0.0
O621 O 0.09635 0.81254 0.35444 0.0
O622 O 0.10672 0.90588 0.26201 0.0
O623 O 0.14416 0.88582 0.2671 0.0
O624 O 0.07819 0.90082 0.3547 0.0
O625 O 0.07952 0.86014 0.36112 0.0
O626 O 0.10741 0.88129 0.46055 0.0
O627 O 0.13003 0.90402 0.39486 0.0
O628 O 0.09802 0.81025 0.48307 0.0
O629 O 0.07098 0.84302 0.48049 0.0
O630 O 0.14384 0.82976 0.44517 0.0
O631 O 0.13789 0.85638 0.38376 0.0
H632 H 0.10896 0.92968 0.15767 0.0
H633 H 0.14184 0.85376 0.18719 0.0
H634 H 0.13679 0.84282 0.09257 0.0
H635 H 0.10323 0.91867 0.0634 0.0
H636 H 0.10242 0.79096 0.58236 0.0
H637 H 0.06538 0.86613 0.56765 0.0
H638 H 0.07229 0.87401 0.66244 0.0
H639 H 0.10989 0.79913 0.67761 0.0
H640 H 0.37708 0.96102 0.39142 0.0
H641 H 0.37648 0.01255 0.088 0.0
H642 H 0.39149 0.91049 0.25672 0.0
H643 H 0.38461 0.06262 0.22498 0.0
H644 H 0.37658 0.97449 0.14815 0.0
H645 H 0.37407 0.99797 0.33018 0.0
C646 C 0.37948 0.9576 0.34893 0.0
C647 C 0.38463 0.93247 0.32939 0.0
C648 C 0.37809 0.99383 0.16508 0.0
C649 C 0.38114 0.97501 0.25867 0.0
C650 C 0.37789 0.01549 0.13083 0.0
C651 C 0.37995 0.04071 0.15181 0.0
C652 C 0.38028 0.99749 0.22071 0.0
C653 C 0.38232 0.04355 0.20737 0.0
C654 C 0.37785 0.9788 0.31394 0.0
C655 C 0.38761 0.92945 0.27375 0.0
N656 N 0.3823 0.02226 0.23988 0.0
N657 N 0.38578 0.95042 0.24039 0.0
H658 H 0.91804 0.58704 0.77858 0.0
H659 H 0.04121 0.66586 0.88636 0.0
H660 H 0.95002 0.65136 0.68875 0.0
H661 H 0.03362 0.58287 0.90692 0.0
H662 H 1.00275 0.66527 0.82725 0.0
H663 H 0.95514 0.58973 0.84024 0.0
C664 C 0.93272 0.6019 0.77209 0.0
C665 C 0.93093 0.61897 0.72832 0.0
C666 C 0.00959 0.64724 0.84479 0.0
C667 C 0.9733 0.62232 0.79925 0.0
C668 C 0.03157 0.64754 0.87828 0.0
C669 C 0.04105 0.62429 0.90057 0.0
C670 C 0.99649 0.62366 0.83505 0.0
C671 C 0.02718 0.60122 0.89022 0.0
C672 C 0.95395 0.60332 0.80715 0.0
C673 C 0.95071 0.63771 0.72175 0.0
N674 N 0.0056 0.6015 0.85848 0.0
N675 N 0.97099 0.63901 0.75702 0.0
H676 H 0.6672 0.96682 0.16361 0.0
H677 H 0.58885 0.09025 0.271 0.0
H678 H 0.58409 0.97516 0.14279 0.0
H679 H 0.65343 0.0586 0.36045 0.0
H680 H 0.59136 0.05311 0.20974 0.0
H681 H 0.66691 0.00519 0.22278 0.0
C682 C 0.64891 0.9766 0.17163 0.0
C683 C 0.62554 0.96737 0.14916 0.0
C684 C 0.60505 0.05436 0.24265 0.0
C685 C 0.62527 0.01182 0.21485 0.0
C686 C 0.60374 0.07563 0.27749 0.0
C687 C 0.62093 0.07756 0.32106 0.0
C688 C 0.62407 0.03506 0.25051 0.0
C689 C 0.63968 0.05782 0.32761 0.0
C690 C 0.64879 0.99853 0.20518 0.0
C691 C 0.60255 0.98139 0.15956 0.0
N692 N 0.64087 0.03749 0.29255 0.0
N693 N 0.603 0.00291 0.19133 0.0
H694 H 0.98286 0.34528 0.92424 0.0
H695 H 0.0476 0.40159 0.66264 0.0
H696 H 0.95955 0.42023 0.86328 0.0
H697 H 0.09733 0.37063 0.78636 0.0
H698 H 0.01066 0.40044 0.72535 0.0
H699 H 0.02105 0.34621 0.86392 0.0
C700 C 0.98583 0.3619 0.89822 0.0
C701 C 0.96822 0.38282 0.89898 0.0
C702 C 0.02967 0.39384 0.7386 0.0
C703 C 0.01115 0.38361 0.82921 0.0
C704 C 0.0507 0.39434 0.70287 0.0
C705 C 0.07559 0.38621 0.71934 0.0
C706 C 0.0333 0.3844 0.79076 0.0
C707 C 0.07851 0.3772 0.77214 0.0
C708 C 0.00757 0.36243 0.86406 0.0
C709 C 0.97284 0.40386 0.86432 0.0
N710 N 0.05754 0.37624 0.80586 0.0
N711 N 0.99365 0.40357 0.83033 0.0
H712 H 0.42428 0.47588 0.15558 0.0
H713 H 0.3515 0.56343 0.9406 0.0
H714 H 0.34141 0.46768 0.13053 0.0
H715 H 0.41822 0.59075 0.02959 0.0
H716 H 0.34875 0.52553 1.00083 0.0
H717 H 0.42393 0.51538 0.10102 0.0
C718 C 0.40596 0.48237 0.13857 0.0
C719 C 0.38288 0.46818 0.14714 0.0
C720 C 0.36383 0.53998 1.00729 0.0
C721 C 0.38247 0.5134 0.0836 0.0
C722 C 0.36549 0.56155 0.97285 0.0
C723 C 0.38509 0.5804 0.98004 0.0
C724 C 0.38228 0.5369 0.04841 0.0
C725 C 0.40266 0.57691 1.02264 0.0
C726 C 0.4058 0.50497 0.10742 0.0
C727 C 0.35974 0.47769 0.12412 0.0
N728 N 0.40102 0.55551 0.05467 0.0
N729 N 0.36015 0.49953 0.09284 0.0
H730 H 0.54629 0.60631 0.13801 0.0
H731 H 0.48311 0.65995 0.87284 0.0
H732 H 0.5969 0.63131 1.0098 0.0
H733 H 0.45575 0.58814 0.94245 0.0
H734 H 0.52164 0.65827 0.93206 0.0
H735 H 0.50904 0.60811 0.07638 0.0
C736 C 0.54953 0.61238 0.097 0.0
C737 C 0.57475 0.61869 0.07901 0.0
C738 C 0.50719 0.64289 0.93405 0.0
C739 C 0.53211 0.62124 1.00876 0.0
C740 C 0.48526 0.64386 0.90054 0.0
C741 C 0.46643 0.62402 0.90253 0.0
C742 C 0.50975 0.62242 0.97099 0.0
C743 C 0.47 0.60365 0.93928 0.0
C744 C 0.52831 0.61326 0.0619 0.0
C745 C 0.57781 0.62622 0.02525 0.0
N746 N 0.49104 0.60354 0.97256 0.0
N747 N 0.55668 0.62759 0.9921 0.0
H748 H 0.66918 0.54022 0.13438 0.0
H749 H 0.59077 0.41733 1.02421 0.0
H750 H 0.58609 0.5314 0.15537 0.0
H751 H 0.65587 0.44915 0.93612 0.0
H752 H 0.59323 0.45415 0.08619 0.0
H753 H 0.66898 0.50216 0.07435 0.0
C754 C 0.65092 0.53039 0.12623 0.0
C755 C 0.62753 0.5394 0.14898 0.0
C756 C 0.60704 0.45301 0.05341 0.0
C757 C 0.62735 0.49533 0.0823 0.0
C758 C 0.60576 0.43192 1.01815 0.0
C759 C 0.62313 0.43013 0.97478 0.0
C760 C 0.62619 0.47229 0.04614 0.0
C761 C 0.64199 0.44984 0.96879 0.0
C762 C 0.65085 0.50865 0.09219 0.0
C763 C 0.60456 0.52534 0.1384 0.0
N764 N 0.64314 0.47001 1.00424 0.0
N765 N 0.60507 0.50401 0.10612 0.0
H766 H 0.46358 0.39949 0.13491 0.0
H767 H 0.52851 0.34572 0.87149 0.0
H768 H 0.41334 0.37479 1.00616 0.0
H769 H 0.55379 0.4186 0.93935 0.0
H770 H 0.48984 0.34669 0.9308 0.0
H771 H 0.50111 0.39716 0.07397 0.0
C772 C 0.46048 0.39335 0.09394 0.0
C773 C 0.43529 0.38733 0.07556 0.0
C774 C 0.50392 0.36241 0.93243 0.0
C775 C 0.47824 0.3841 1.00616 0.0
C776 C 0.52593 0.36183 0.89893 0.0
C777 C 0.54416 0.38223 0.9003 0.0
C778 C 0.50074 0.38305 0.96871 0.0
C779 C 0.54003 0.40264 0.93666 0.0
C780 C 0.48186 0.39214 0.05926 0.0
C781 C 0.43241 0.37968 1.02187 0.0
N782 N 0.51896 0.40238 0.96986 0.0
N783 N 0.45369 0.378 0.9891 0.0
H784 H 0.89353 0.45731 0.88983 0.0
H785 H 0.84606 0.52334 0.62274 0.0
H786 H 0.87772 0.4076 0.75471 0.0
H787 H 0.91679 0.54947 0.69903 0.0
H788 H 0.84633 0.48435 0.68095 0.0
H789 H 0.89089 0.4954 0.83063 0.0
C790 C 0.88914 0.45442 0.84785 0.0
C791 C 0.88581 0.42922 0.82719 0.0
C792 C 0.86171 0.49872 0.68475 0.0
C793 C 0.88224 0.47281 0.75964 0.0
C794 C 0.86151 0.52093 0.65188 0.0
C795 C 0.88155 0.53948 0.65588 0.0
C796 C 0.88153 0.49565 0.72308 0.0
C797 C 0.90112 0.53549 0.69433 0.0
C798 C 0.88778 0.47615 0.81417 0.0
C799 C 0.88047 0.42668 0.77223 0.0
N800 N 0.90046 0.51421 0.72686 0.0
N801 N 0.87859 0.44823 0.74037 0.0
H802 H 0.52636 0.16274 0.42176 0.0
H803 H 0.46224 0.10732 0.15844 0.0
H804 H 0.55147 0.08953 0.35525 0.0
H805 H 0.4118 0.13463 0.28473 0.0
H806 H 0.49947 0.10987 0.21988 0.0
H807 H 0.48804 0.16183 0.36168 0.0
C808 C 0.52383 0.14657 0.39444 0.0
C809 C 0.54192 0.12606 0.3937 0.0
C810 C 0.48025 0.11541 0.23397 0.0
C811 C 0.49886 0.12529 0.32441 0.0
C812 C 0.45903 0.11408 0.19897 0.0
C813 C 0.43385 0.12075 0.2165 0.0
C814 C 0.47652 0.1242 0.28654 0.0
C815 C 0.43085 0.1292 0.26967 0.0
C816 C 0.502 0.14602 0.3605 0.0
C817 C 0.53783 0.10559 0.35748 0.0
N818 N 0.452 0.13095 0.30275 0.0
N819 N 0.51694 0.10586 0.32388 0.0
H820 H 0.11437 0.59635 0.75557 0.0
H821 H 0.13201 0.4419 0.72717 0.0
H822 H 0.13199 0.54543 0.88813 0.0
H823 H 0.12465 0.49289 0.59129 0.0
H824 H 0.13214 0.47969 0.78646 0.0
H825 H 0.11777 0.55916 0.6947 0.0
C826 C 0.11897 0.57741 0.77198 0.0
C827 C 0.12279 0.57414 0.82731 0.0
C828 C 0.13087 0.48276 0.74366 0.0
C829 C 0.12672 0.53128 0.75753 0.0
C830 C 0.13119 0.46113 0.70971 0.0
C831 C 0.12939 0.46435 0.65415 0.0
C832 C 0.12816 0.5079 0.72201 0.0
C833 C 0.12667 0.48968 0.63392 0.0
C834 C 0.12098 0.55614 0.73709 0.0
C835 C 0.12887 0.54902 0.84593 0.0
N836 N 0.12614 0.5105 0.66778 0.0
N837 N 0.13053 0.52865 0.81127 0.0
H838 H 0.59705 0.87521 0.2885 0.0
H839 H 0.45318 0.91831 0.35299 0.0
H840 H 0.54467 0.89714 0.16119 0.0
H841 H 0.48317 0.84895 0.42801 0.0
H842 H 0.49045 0.91804 0.29109 0.0
H843 H 0.55939 0.87235 0.34984 0.0
C844 C 0.57768 0.87939 0.27346 0.0
C845 C 0.57397 0.88628 0.21955 0.0
C846 C 0.48887 0.90292 0.32117 0.0
C847 C 0.53113 0.88367 0.28961 0.0
C848 C 0.46773 0.90311 0.35658 0.0
C849 C 0.4652 0.88365 0.39569 0.0
C850 C 0.50812 0.88364 0.32595 0.0
C851 C 0.48446 0.86426 0.39831 0.0
C852 C 0.55626 0.87764 0.30836 0.0
C853 C 0.54841 0.89154 0.20226 0.0
N854 N 0.50538 0.86493 0.36438 0.0
N855 N 0.52805 0.89048 0.23728 0.0
H856 H 0.9248 0.97161 0.65295 0.0
H857 H 0.85249 0.05751 0.43584 0.0
H858 H 0.84109 0.96777 0.63692 0.0
H859 H 0.91913 0.08676 0.52239 0.0
H860 H 0.84989 0.02077 0.499 0.0
H861 H 0.92521 0.01045 0.59591 0.0
C862 C 0.90648 0.97893 0.63745 0.0
C863 C 0.88291 0.96609 0.64902 0.0
C864 C 0.86496 0.03535 0.50423 0.0
C865 C 0.88335 0.01039 0.58278 0.0
C866 C 0.86654 0.05624 0.46811 0.0
C867 C 0.88601 0.07532 0.47389 0.0
C868 C 0.88341 0.03312 0.54558 0.0
C869 C 0.90367 0.07266 0.51659 0.0
C870 C 0.90675 1.00111 0.6049 0.0
C871 C 0.85976 0.9767 0.62814 0.0
N872 N 0.90215 0.05184 0.5503 0.0
N873 N 0.86058 0.99796 0.59532 0.0
H874 H 0.04672 0.10497 0.63296 0.0
H875 H 0.98151 0.15917 0.3701 0.0
H876 H 0.09664 0.1305 0.50407 0.0
H877 H 0.95629 0.08617 0.43796 0.0
H878 H 0.02015 0.15817 0.42923 0.0
H879 H 0.0091 0.10727 0.57236 0.0
C880 C 0.04973 0.11128 0.59203 0.0
C881 C 0.07485 0.11751 0.57347 0.0
C882 C 0.0061 0.14243 0.4309 0.0
C883 C 0.03182 0.12071 0.50447 0.0
C884 C 0.9841 0.14302 0.39748 0.0
C885 C 0.96589 0.12259 0.3989 0.0
C886 C 0.00929 0.12176 0.46717 0.0
C887 C 0.97004 0.10215 0.43522 0.0
C888 C 0.0283 0.11247 0.55753 0.0
C889 C 0.07762 0.1254 0.51987 0.0
N890 N 0.99111 0.10239 0.46836 0.0
N891 N 0.0563 0.12705 0.4873 0.0
H892 H 0.15727 0.94164 0.44117 0.0
H893 H 0.08615 0.02832 0.65946 0.0
H894 H 0.0918 0.91332 0.53321 0.0
H895 H 0.16875 0.03683 0.63098 0.0
H896 H 0.08621 0.98868 0.60538 0.0
H897 H 0.16039 0.97926 0.50176 0.0
C898 C 0.14362 0.94325 0.47414 0.0
C899 C 0.12424 0.92422 0.482 0.0
C900 C 0.10435 0.99918 0.61098 0.0
C901 C 0.12748 0.96744 0.55087 0.0
C902 C 0.10435 0.02185 0.64185 0.0
C903 C 0.12742 0.0362 0.64923 0.0
C904 C 0.1275 0.99085 0.58623 0.0
C905 C 0.15042 0.0267 0.62551 0.0
C906 C 0.1455 0.96467 0.5088 0.0
C907 C 0.10714 0.92737 0.52559 0.0
N908 N 0.14983 0.00482 0.59446 0.0
N909 N 0.10896 0.94865 0.55784 0.0
H910 H 0.05422 0.91487 0.44863 0.0
H911 H 0.9086 0.87441 0.50265 0.0
H912 H 0.02439 0.8461 0.37117 0.0
H913 H 0.95956 0.89213 0.63499 0.0
H914 H 0.94715 0.87156 0.44362 0.0
H915 H 0.01586 0.91495 0.50795 0.0
C916 C 0.03945 0.89994 0.44382 0.0
C917 C 0.04236 0.88049 0.40492 0.0
C918 C 0.94977 0.87593 0.48567 0.0
C919 C 0.99829 0.88087 0.4716 0.0
C920 C 0.92786 0.87763 0.51927 0.0
C921 C 0.93092 0.88332 0.5739 0.0
C922 C 0.97475 0.8809 0.50649 0.0
C923 C 0.95633 0.88742 0.59329 0.0
C924 C 0.01771 0.89993 0.47779 0.0
C925 C 0.0228 0.86142 0.40072 0.0
N926 N 0.97721 0.88652 0.55953 0.0
N927 N 1.00136 0.86227 0.43317 0.0
H928 H 0.31497 0.19262 0.09815 0.0
H929 H 0.39903 0.3201 0.16387 0.0
H930 H 0.39749 0.18735 0.1304 0.0
H931 H 0.31533 0.31436 0.17888 0.0
H932 H 0.40072 0.273 0.1446 0.0
H933 H 0.31666 0.23916 0.11597 0.0
C934 C 0.33358 0.20135 0.10835 0.0
C935 C 0.35607 0.18599 0.1131 0.0
C936 C 0.38207 0.28211 0.15256 0.0
C937 C 0.35813 0.23961 0.13443 0.0
C938 C 0.3811 0.30891 0.16389 0.0
C939 C 0.35697 0.32123 0.17279 0.0
C940 C 0.35872 0.26772 0.14956 0.0
C941 C 0.33435 0.3058 0.172 0.0
C942 C 0.3345 0.22796 0.11899 0.0
C943 C 0.37967 0.19848 0.12624 0.0
N944 N 0.33577 0.28006 0.16012 0.0
N945 N 0.38009 0.22459 0.13675 0.0
H946 H 0.31995 0.69789 0.93524 0.0
H947 H 0.18962 0.61219 0.90864 0.0
H948 H 0.32235 0.61922 0.87569 0.0
H949 H 0.1925 0.69311 0.95381 0.0
H950 H 0.23759 0.61251 0.89857 0.0
H951 H 0.27285 0.6952 0.94161 0.0
C952 C 0.31043 0.68004 0.92286 0.0
C953 C 0.3251 0.65879 0.90474 0.0
C954 C 0.22766 0.63011 0.91093 0.0
C955 C 0.27057 0.65524 0.91309 0.0
C956 C 0.20036 0.62987 0.91718 0.0
C957 C 0.18707 0.65269 0.93216 0.0
C958 C 0.24164 0.65328 0.91999 0.0
C959 C 0.20187 0.6751 0.94215 0.0
C960 C 0.28342 0.67844 0.92676 0.0
C961 C 0.31168 0.63614 0.88933 0.0
N962 N 0.22818 0.67482 0.93579 0.0
N963 N 0.28508 0.63485 0.89429 0.0
H964 H 0.69351 0.81492 0.1034 0.0
H965 H 0.61029 0.68662 0.1678 0.0
H966 H 0.61072 0.81933 0.13353 0.0
H967 H 0.69387 0.69305 0.18399 0.0
H968 H 0.60827 0.73372 0.14862 0.0
H969 H 0.69221 0.7684 0.12169 0.0
C970 C 0.67493 0.80601 0.11327 0.0
C971 C 0.65224 0.82113 0.11724 0.0
C972 C 0.62697 0.72477 0.15683 0.0
C973 C 0.65061 0.7675 0.13906 0.0
C974 C 0.62812 0.69796 0.16811 0.0
C975 C 0.65232 0.68583 0.17731 0.0
C976 C 0.6502 0.73937 0.1542 0.0
C977 C 0.67481 0.70145 0.17687 0.0
C978 C 0.67423 0.77941 0.12416 0.0
C979 C 0.62869 0.8084 0.12997 0.0
N980 N 0.67321 0.7272 0.16505 0.0
N981 N 0.62848 0.78229 0.14071 0.0
H982 H 0.82311 0.3888 0.93285 0.0
H983 H 0.69269 0.30993 0.85602 0.0
H984 H 0.82053 0.3108 0.86964 0.0
H985 H 0.69052 0.39158 0.89547 0.0
H986 H 0.73988 0.31034 0.86636 0.0
H987 H 0.77483 0.39055 0.9273 0.0
C988 C 0.8124 0.37196 0.91884 0.0
C989 C 0.82577 0.3496 0.90176 0.0
C990 C 0.72927 0.3283 0.87258 0.0
C991 C 0.77106 0.35151 0.89466 0.0
C992 C 0.70224 0.32806 0.86642 0.0
C993 C 0.68765 0.35073 0.87471 0.0
C994 C 0.7421 0.35139 0.88754 0.0
C995 C 0.70111 0.37369 0.88833 0.0
C996 C 0.78495 0.37303 0.91511 0.0
C997 C 0.81106 0.32846 0.88311 0.0
N998 N 0.72762 0.37343 0.89462 0.0
N999 N 0.7847 0.32996 0.88004 0.0
H1000 H 0.8113 0.6889 0.6101 0.0
H1001 H 0.89301 0.81883 0.67664 0.0
H1002 H 0.89359 0.686 0.64573 0.0
H1003 H 0.81218 0.81598 0.62928 0.0
H1004 H 0.89449 0.77063 0.67203 0.0
H1005 H 0.81221 0.73589 0.62059 0.0
C1006 C 0.82968 0.69824 0.61971 0.0
C1007 C 0.85237 0.68347 0.62692 0.0
C1008 C 0.87641 0.78066 0.66326 0.0
C1009 C 0.85363 0.7378 0.63988 0.0
C1010 C 0.87551 0.80807 0.66651 0.0
C1011 C 0.85241 0.82135 0.65346 0.0
C1012 C 0.854 0.76671 0.64717 0.0
C1013 C 0.83041 0.80657 0.63957 0.0
C1014 C 0.83021 0.72518 0.62599 0.0
C1015 C 0.87565 0.69671 0.63947 0.0
N1016 N 0.83179 0.78027 0.6367 0.0
N1017 N 0.87569 0.72316 0.6458 0.0
H1018 H 0.81799 0.19771 0.3679 0.0
H1019 H 0.68738 0.11425 0.41483 0.0
H1020 H 0.81947 0.11414 0.38403 0.0
H1021 H 0.69188 0.19799 0.42255 0.0
H1022 H 0.73496 0.1127 0.40069 0.0
H1023 H 0.77092 0.19712 0.38171 0.0
C1024 C 0.80834 0.17915 0.37389 0.0
C1025 C 0.82274 0.15596 0.37501 0.0
C1026 C 0.72551 0.13137 0.40582 0.0
C1027 C 0.7685 0.15511 0.39155 0.0
C1028 C 0.69839 0.13226 0.41419 0.0
C1029 C 0.68562 0.15631 0.41973 0.0
C1030 C 0.73985 0.1547 0.4027 0.0
C1031 C 0.70083 0.17903 0.41829 0.0
C1032 C 0.78141 0.17883 0.38212 0.0
C1033 C 0.80911 0.13248 0.3828 0.0
N1034 N 0.72698 0.17766 0.40963 0.0
N1035 N 0.78273 0.13265 0.391 0.0
H1036 H 0.11053 0.31816 0.62942 0.0
H1037 H 0.19557 0.18955 0.67487 0.0
H1038 H 0.19319 0.31193 0.5991 0.0
H1039 H 0.11195 0.18491 0.6572 0.0
H1040 H 0.19359 0.2361 0.65769 0.0
H1041 H 0.10899 0.27076 0.64565 0.0
C1042 C 0.12822 0.3068 0.62528 0.0
C1043 C 0.15208 0.31905 0.61314 0.0
C1044 C 0.17558 0.22503 0.65763 0.0
C1045 C 0.15055 0.26519 0.63287 0.0
C1046 C 0.17669 0.1984 0.66787 0.0
C1047 C 0.15393 0.18323 0.66714 0.0
C1048 C 0.15149 0.23693 0.64672 0.0
C1049 C 0.12998 0.1959 0.65814 0.0
C1050 C 0.12736 0.27982 0.6349 0.0
C1051 C 0.17441 0.30342 0.60868 0.0
N1052 N 0.12937 0.22207 0.64806 0.0
N1053 N 0.17313 0.2775 0.61902 0.0
H1054 H 0.31786 0.81174 0.45799 0.0
H1055 H 0.18607 0.88506 0.36972 0.0
H1056 H 0.3186 0.89194 0.40713 0.0
H1057 H 0.18994 0.80975 0.44562 0.0
H1058 H 0.23424 0.88825 0.37637 0.0
H1059 H 0.27058 0.81111 0.44924 0.0
C1060 C 0.30797 0.82936 0.44549 0.0
C1061 C 0.32219 0.85191 0.43349 0.0
C1062 C 0.22443 0.87102 0.39123 0.0
C1063 C 0.26764 0.85133 0.42228 0.0
C1064 C 0.19704 0.86911 0.38695 0.0
C1065 C 0.18403 0.84708 0.40705 0.0
C1066 C 0.23866 0.85065 0.41531 0.0
C1067 C 0.19909 0.82712 0.42968 0.0
C1068 C 0.28089 0.829 0.44023 0.0
C1069 C 0.30831 0.87418 0.41722 0.0
N1070 N 0.22539 0.8294 0.43315 0.0
N1071 N 0.28176 0.8733 0.41171 0.0
H1072 H 0.23899 0.09269 0.73522 0.0
H1073 H 0.27066 0.09757 0.05177 0.0
H1074 H 0.18062 0.10396 0.85756 0.0
H1075 H 0.33006 0.10228 0.92954 0.0
H1076 H 0.23733 0.09524 0.98114 0.0
H1077 H 0.27266 0.09157 0.80563 0.0
C1078 C 0.23316 0.09472 0.77667 0.0
C1079 C 0.20676 0.09844 0.79003 0.0
C1080 C 0.25769 0.0967 0.96982 0.0
C1081 C 0.24527 0.09709 0.87118 0.0
C1082 C 0.27676 0.09795 1.01027 0.0
C1083 C 0.30332 0.10024 0.99701 0.0
C1084 C 0.26514 0.09747 0.91545 0.0
C1085 C 0.30988 0.10069 0.94211 0.0
C1086 C 0.25242 0.09417 0.81695 0.0
C1087 C 0.20058 0.10106 0.84482 0.0
N1088 N 0.29105 0.09932 0.90366 0.0
N1089 N 0.21953 0.10032 0.883 0.0
H1090 H 0.0983 0.7362 0.99548 0.0
H1091 H 0.0968 0.76382 0.31408 0.0
H1092 H 0.10017 0.67577 0.11534 0.0
H1093 H 0.09899 0.82431 0.19424 0.0
H1094 H 0.0953 0.73123 0.24198 0.0
H1095 H 0.09583 0.7688 0.06751 0.0
C1096 C 0.09804 0.72972 0.03674 0.0
C1097 C 0.09973 0.70307 0.04897 0.0
C1098 C 0.09604 0.75167 0.23152 0.0
C1099 C 0.09692 0.74039 0.1321 0.0
C1100 C 0.0968 0.77032 0.27283 0.0
C1101 C 0.09826 0.797 0.2607 0.0
C1102 C 0.0966 0.75966 0.17745 0.0
C1103 C 0.09824 0.80406 0.20605 0.0
C1104 C 0.09672 0.74837 0.078 0.0
C1105 C 0.09934 0.69601 0.10356 0.0
N1106 N 0.09751 0.78565 0.16684 0.0
N1107 N 0.09805 0.71441 0.14275 0.0
H1108 H 0.67592 0.90932 0.93178 0.0
H1109 H 0.82793 0.90394 0.85782 0.0
H1110 H 0.73712 0.90766 0.05007 0.0
H1111 H 0.76778 0.91128 0.73807 0.0
H1112 H 0.79505 0.9061 0.92752 0.0
H1113 H 0.70875 0.9108 0.86107 0.0
C1114 C 0.6963 0.90925 0.94313 0.0
C1115 C 0.70358 0.90806 0.99751 0.0
C1116 C 0.7889 0.90737 0.88615 0.0
C1117 C 0.74173 0.90997 0.91549 0.0
C1118 C 0.8078 0.90615 0.8458 0.0
C1119 C 0.80092 0.90743 0.79119 0.0
C1120 C 0.76245 0.90973 0.87265 0.0
C1121 C 0.77422 0.91025 0.77925 0.0
C1122 C 0.7151 0.91022 0.90239 0.0
C1123 C 0.73043 0.90854 1.00904 0.0
N1124 N 0.75603 0.91117 0.81952 0.0
N1125 N 0.74843 0.90928 0.96851 0.0
H1126 H 0.91297 0.26649 0.98731 0.0
H1127 H 0.9145 0.23598 0.30483 0.0
H1128 H 0.91163 0.32565 0.10971 0.0
H1129 H 0.907 0.17665 0.18385 0.0
H1130 H 0.91723 0.26895 0.23356 0.0
H1131 H 0.91443 0.23308 0.05808 0.0
C1132 C 0.9132 0.27253 0.02882 0.0
C1133 C 0.91206 0.2991 0.04209 0.0
C1134 C 0.91504 0.24868 0.22261 0.0
C1135 C 0.91371 0.26084 0.12373 0.0
C1136 C 0.91358 0.22981 0.26343 0.0
C1137 C 0.91024 0.20339 0.25071 0.0
C1138 C 0.91336 0.24117 0.1684 0.0
C1139 C 0.90915 0.19673 0.19597 0.0
C1140 C 0.91393 0.25342 0.06934 0.0
C1141 C 0.91231 0.30555 0.097 0.0
N1142 N 0.91065 0.21536 0.15716 0.0
N1143 N 0.91307 0.28671 0.1354 0.0
H1144 H 0.33122 0.40969 0.36015 0.0
H1145 H 0.17927 0.39774 0.43155 0.0
H1146 H 0.2709 0.40531 0.24022 0.0
H1147 H 0.23848 0.41131 0.551 0.0
H1148 H 0.21233 0.40054 0.36191 0.0
H1149 H 0.29787 0.41042 0.42984 0.0
C1150 C 0.31092 0.40888 0.34825 0.0
C1151 C 0.30403 0.40718 0.29376 0.0
C1152 C 0.21819 0.40304 0.40323 0.0
C1153 C 0.26531 0.40811 0.37454 0.0
C1154 C 0.19921 0.40148 0.44344 0.0
C1155 C 0.20583 0.40439 0.49789 0.0
C1156 C 0.2444 0.40734 0.41687 0.0
C1157 C 0.23226 0.40898 0.50989 0.0
C1158 C 0.29182 0.40942 0.38838 0.0
C1159 C 0.27727 0.40666 0.28141 0.0
N1160 N 0.25052 0.41019 0.46986 0.0
N1161 N 0.25897 0.40693 0.32139 0.0
H1162 H 0.4107 0.74141 0.81441 0.0
H1163 H 0.413 0.77074 0.49648 0.0
H1164 H 0.41259 0.68152 0.6936 0.0
H1165 H 0.407 0.83037 0.61723 0.0
H1166 H 0.41561 0.73785 0.568 0.0
H1167 H 0.41218 0.77442 0.74301 0.0
C1168 C 0.41161 0.73514 0.77308 0.0
C1169 C 0.41123 0.7085 0.76041 0.0
C1170 C 0.41378 0.75817 0.57881 0.0
C1171 C 0.41286 0.74632 0.67797 0.0
C1172 C 0.41238 0.77699 0.53784 0.0
C1173 C 0.40951 0.80349 0.55045 0.0
C1174 C 0.41248 0.76582 0.63299 0.0
C1175 C 0.40879 0.81024 0.60515 0.0
C1176 C 0.41234 0.75402 0.73217 0.0
C1177 C 0.41239 0.70172 0.70572 0.0
N1178 N 0.4102 0.79167 0.64405 0.0
N1179 N 0.41307 0.72036 0.66686 0.0
H1180 H 0.67798 0.59764 0.36446 0.0
H1181 H 0.83027 0.59987 0.43828 0.0
H1182 H 0.73888 0.59927 0.24522 0.0
H1183 H 0.7693 0.59495 0.55697 0.0
H1184 H 0.79744 0.59862 0.36779 0.0
H1185 H 0.71093 0.59561 0.43453 0.0
C1186 C 0.69832 0.59763 0.35277 0.0
C1187 C 0.70547 0.59896 0.29833 0.0
C1188 C 0.79113 0.59774 0.40914 0.0
C1189 C 0.74381 0.59638 0.37968 0.0
C1190 C 0.80994 0.59857 0.44976 0.0
C1191 C 0.80272 0.59783 0.5042 0.0
C1192 C 0.76454 0.59616 0.42241 0.0
C1193 C 0.77594 0.59561 0.51586 0.0
C1194 C 0.71721 0.59633 0.39315 0.0
C1195 C 0.7323 0.59831 0.28635 0.0
N1196 N 0.75791 0.59501 0.47545 0.0
N1197 N 0.75042 0.59723 0.32658 0.0
H1198 H 0.59723 0.23911 0.48878 0.0
H1199 H 0.59752 0.2691 0.80633 0.0
H1200 H 0.60113 0.17955 0.61024 0.0
H1201 H 0.60325 0.32859 0.68502 0.0
H1202 H 0.59514 0.23607 0.7352 0.0
H1203 H 0.59572 0.27224 0.55986 0.0
C1204 C 0.5976 0.23293 0.53023 0.0
C1205 C 0.59956 0.20637 0.54316 0.0
C1206 C 0.59686 0.25639 0.72417 0.0
C1207 C 0.59782 0.24432 0.6252 0.0
C1208 C 0.59812 0.27528 0.7649 0.0
C1209 C 0.60085 0.30179 0.75204 0.0
C1210 C 0.59809 0.26395 0.6699 0.0
C1211 C 0.60156 0.30847 0.69726 0.0
C1212 C 0.59685 0.25188 0.57093 0.0
C1213 C 0.60002 0.19971 0.59794 0.0
N1214 N 0.60023 0.28981 0.65855 0.0
N1215 N 0.5992 0.21841 0.6366 0.0
H1216 H 0.34479 0.06369 0.48791 0.0
H1217 H 0.38249 0.15459 0.73715 0.0
H1218 H 0.35788 0.14647 0.47491 0.0
H1219 H 0.3777 0.07086 0.74667 0.0
H1220 H 0.37155 0.1522 0.64199 0.0
H1221 H 0.35534 0.06605 0.58317 0.0
C1222 C 0.35005 0.08235 0.50488 0.0
C1223 C 0.35044 0.10491 0.47297 0.0
C1224 C 0.37288 0.13434 0.66486 0.0
C1225 C 0.36226 0.1078 0.5827 0.0
C1226 C 0.37897 0.1357 0.71934 0.0
C1227 C 0.38105 0.11289 0.75012 0.0
C1228 C 0.36864 0.10998 0.64075 0.0
C1229 C 0.37662 0.08894 0.7245 0.0
C1230 C 0.35593 0.08371 0.55947 0.0
C1231 C 0.35694 0.12861 0.49781 0.0
N1232 N 0.37059 0.08812 0.67146 0.0
N1233 N 0.36257 0.12941 0.55102 0.0
H1234 H 0.06922 0.63453 0.56963 0.0
H1235 H 0.15356 0.64508 0.2994 0.0
H1236 H 0.14376 0.67348 0.55968 0.0
H1237 H 0.07871 0.60666 0.30867 0.0
H1238 H 0.15016 0.65583 0.3944 0.0
H1239 H 0.07248 0.62384 0.4745 0.0
C1240 C 0.08636 0.64072 0.54764 0.0
C1241 C 0.10624 0.65497 0.57307 0.0
C1242 C 0.13446 0.64505 0.37569 0.0
C1243 C 0.10997 0.64296 0.46344 0.0
C1244 C 0.13631 0.63902 0.32121 0.0
C1245 C 0.11639 0.6249 0.29559 0.0
C1246 C 0.11252 0.63696 0.40519 0.0
C1247 C 0.09474 0.61725 0.32658 0.0
C1248 C 0.08813 0.63473 0.49311 0.0
C1249 C 0.12776 0.66279 0.54191 0.0
N1250 N 0.09339 0.62337 0.37955 0.0
N1251 N 0.12905 0.65667 0.48895 0.0
H1252 H 0.61613 0.88485 0.4621 0.0
H1253 H 0.66577 0.90317 0.76443 0.0
H1254 H 0.69296 0.91309 0.503 0.0
H1255 H 0.58735 0.88 0.7229 0.0
H1256 H 0.67656 0.90555 0.66913 0.0
H1257 H 0.60558 0.88216 0.55732 0.0
C1258 C 0.63077 0.89065 0.49095 0.0
C1259 C 0.65552 0.89927 0.47404 0.0
C1260 C 0.65698 0.89995 0.68085 0.0
C1261 C 0.64358 0.89585 0.58385 0.0
C1262 C 0.65083 0.89842 0.73537 0.0
C1263 C 0.62556 0.89138 0.75203 0.0
C1264 C 0.63779 0.89432 0.64236 0.0
C1265 C 0.60698 0.88585 0.7122 0.0
C1266 C 0.62476 0.88895 0.54549 0.0
C1267 C 0.67377 0.906 0.51379 0.0
N1268 N 0.61347 0.88741 0.65943 0.0
N1269 N 0.66744 0.90416 0.56662 0.0
H1270 H 0.87572 0.40929 0.32308 0.0
H1271 H 0.92975 0.30779 0.5408 0.0
H1272 H 0.91165 0.33607 0.28138 0.0
H1273 H 0.89182 0.38015 0.58122 0.0
H1274 H 0.92346 0.31769 0.44587 0.0
H1275 H 0.88106 0.39858 0.41763 0.0
C1276 C 0.88455 0.39085 0.33364 0.0
C1277 C 0.89319 0.37359 0.29374 0.0
C1278 C 0.91646 0.33138 0.47552 0.0
C1279 C 0.89977 0.36132 0.40276 0.0
C1280 C 0.92018 0.3258 0.52986 0.0
C1281 C 0.91132 0.34312 0.56947 0.0
C1282 C 0.90382 0.3545 0.4603 0.0
C1283 C 0.89869 0.36598 0.55245 0.0
C1284 C 0.88776 0.38481 0.38784 0.0
C1285 C 0.90497 0.3502 0.31042 0.0
N1286 N 0.89539 0.37099 0.49936 0.0
N1287 N 0.90791 0.34479 0.36348 0.0
H1288 H 0.36113 0.35548 0.54409 0.0
H1289 H 0.37619 0.43639 0.81689 0.0
H1290 H 0.40205 0.42877 0.55523 0.0
H1291 H 0.33159 0.36536 0.80423 0.0
H1292 H 0.38656 0.43344 0.72157 0.0
H1293 H 0.35035 0.35857 0.63921 0.0
C1294 C 0.36773 0.37232 0.56634 0.0
C1295 C 0.38258 0.39188 0.54127 0.0
C1296 C 0.3745 0.41849 0.73959 0.0
C1297 C 0.37052 0.39537 0.65086 0.0
C1298 C 0.36869 0.42007 0.7942 0.0
C1299 C 0.35299 0.40108 0.81887 0.0
C1300 C 0.36464 0.3977 0.70914 0.0
C1301 C 0.3435 0.38063 0.78696 0.0
C1302 C 0.36168 0.37399 0.62084 0.0
C1303 C 0.3909 0.413 0.57274 0.0
N1304 N 0.34951 0.37946 0.73392 0.0
N1305 N 0.38478 0.41417 0.6257 0.0
H1306 H 0.39249 0.62395 0.22117 0.0
H1307 H 0.40801 0.67188 0.52534 0.0
H1308 H 0.42775 0.69732 0.26437 0.0
H1309 H 0.37548 0.59757 0.48005 0.0
H1310 H 0.41402 0.68238 0.43049 0.0
H1311 H 0.38523 0.61469 0.31579 0.0
C1312 C 0.39887 0.63811 0.25046 0.0
C1313 C 0.41096 0.66142 0.23431 0.0
C1314 C 0.40556 0.66378 0.44132 0.0
C1315 C 0.4023 0.65097 0.34364 0.0
C1316 C 0.40195 0.6578 0.49559 0.0
C1317 C 0.39126 0.63371 0.51114 0.0
C1318 C 0.39838 0.6456 0.40195 0.0
C1319 C 0.38417 0.6162 0.47038 0.0
C1320 C 0.39454 0.63284 0.30469 0.0
C1321 C 0.41817 0.67919 0.27456 0.0
N1322 N 0.38785 0.62248 0.41795 0.0
N1323 N 0.41381 0.67357 0.32719 0.0
H1324 H 0.63304 0.57173 0.82174 0.0
H1325 H 0.64885 0.65162 0.54742 0.0
H1326 H 0.679 0.64184 0.80726 0.0
H1327 H 0.60704 0.57886 0.56016 0.0
H1328 H 0.65975 0.64864 0.64245 0.0
H1329 H 0.6225 0.57461 0.72653 0.0
C1330 C 0.64081 0.58783 0.79869 0.0
C1331 C 0.65694 0.60658 0.82285 0.0
C1332 C 0.64819 0.63332 0.62445 0.0
C1333 C 0.64509 0.60987 0.71318 0.0
C1334 C 0.64207 0.63492 0.56998 0.0
C1335 C 0.62694 0.61548 0.54536 0.0
C1336 C 0.63913 0.61214 0.65492 0.0
C1337 C 0.6184 0.59455 0.57728 0.0
C1338 C 0.63491 0.58937 0.74413 0.0
C1339 C 0.66675 0.62675 0.79044 0.0
N1340 N 0.62459 0.59346 0.63021 0.0
N1341 N 0.66064 0.62788 0.73745 0.0
H1342 H 0.60597 0.33998 0.51807 0.0
H1343 H 0.61582 0.39139 0.21493 0.0
H1344 H 0.62703 0.41874 0.47582 0.0
H1345 H 0.5929 0.31315 0.25736 0.0
H1346 H 0.61978 0.4018 0.31003 0.0
H1347 H 0.60149 0.32972 0.42298 0.0
C1348 C 0.60981 0.35512 0.48892 0.0
C1349 C 0.61694 0.38032 0.50543 0.0
C1350 C 0.61387 0.38235 0.29856 0.0
C1351 C 0.61152 0.36867 0.39579 0.0
C1352 C 0.61143 0.3764 0.24409 0.0
C1353 C 0.604 0.35129 0.2276 0.0
C1354 C 0.60888 0.3631 0.3373 0.0
C1355 C 0.59905 0.33266 0.26774 0.0
C1356 C 0.60707 0.34926 0.43447 0.0
C1357 C 0.62117 0.39915 0.46538 0.0
N1358 N 0.60158 0.33893 0.32046 0.0
N1359 N 0.61845 0.39295 0.41267 0.0
H1360 H 0.87287 0.5642 0.9852 0.0
H1361 H 0.86184 0.64993 0.25305 0.0
H1362 H 0.83266 0.63787 0.99333 0.0
H1363 H 0.89939 0.57481 0.24696 0.0
H1364 H 0.85127 0.64592 0.15806 0.0
H1365 H 0.88352 0.5681 0.08032 0.0
C1366 C 0.86638 0.58128 1.00677 0.0
C1367 C 0.85177 0.60071 0.98079 0.0
C1368 C 0.86182 0.6303 0.17747 0.0
C1369 C 0.86378 0.60519 0.09049 0.0
C1370 C 0.86775 0.63249 0.232 0.0
C1371 C 0.88157 0.61268 0.25859 0.0
C1372 C 0.86972 0.60812 0.1488 0.0
C1373 C 0.88905 0.59079 0.22838 0.0
C1374 C 0.87236 0.58341 0.06132 0.0
C1375 C 0.84363 0.62219 1.01149 0.0
N1376 N 0.88304 0.58912 0.17535 0.0
N1377 N 0.84975 0.62384 0.06444 0.0
H1378 H 0.65216 0.14783 0.79574 0.0
H1379 H 0.56602 0.13533 0.06341 0.0
H1380 H 0.57763 0.10866 0.80193 0.0
H1381 H 0.63964 0.17608 0.05563 0.0
H1382 H 0.57018 0.12479 0.96829 0.0
H1383 H 0.64789 0.15823 0.89075 0.0
C1384 C 0.6348 0.14153 0.81685 0.0
C1385 C 0.61523 0.12731 0.79032 0.0
C1386 C 0.58543 0.13605 0.98737 0.0
C1387 C 0.61036 0.13897 0.90004 0.0
C1388 C 0.58315 0.14195 0.0419 0.0
C1389 C 0.60248 0.15668 0.06795 0.0
C1390 C 0.60726 0.14482 0.95832 0.0
C1391 C 0.62403 0.16501 0.03739 0.0
C1392 C 0.63245 0.14736 0.87137 0.0
C1393 C 0.59342 0.11934 0.82052 0.0
N1394 N 0.62583 0.15896 0.98444 0.0
N1395 N 0.59158 0.12527 0.87354 0.0
H1396 H 0.08575 0.38902 0.22349 0.0
H1397 H 0.19808 0.4042 1.0014 0.0
H1398 H 0.16724 0.39932 0.26181 0.0
H1399 H 0.11605 0.39826 0.96385 0.0
H1400 H 0.18727 0.40233 0.09661 0.0
H1401 H 0.09662 0.39165 0.12838 0.0
C1402 C 0.10597 0.39169 0.21201 0.0
C1403 C 0.12559 0.39387 0.25108 0.0
C1404 C 0.17162 0.40147 0.06756 0.0
C1405 C 0.13818 0.39719 0.14158 0.0
C1406 C 0.17776 0.40271 1.013 0.0
C1407 C 0.15799 0.40142 0.97406 0.0
C1408 C 0.14546 0.39887 0.08374 0.0
C1409 C 0.13205 0.39897 0.99205 0.0
C1410 C 0.11214 0.39336 0.15755 0.0
C1411 C 0.15138 0.3978 0.23339 0.0
N1412 N 0.12658 0.39777 0.04537 0.0
N1413 N 0.15691 0.39926 0.18011 0.0
H1414 H 0.39281 0.89265 0.08732 0.0
H1415 H 0.40369 0.84139 0.78459 0.0
H1416 H 0.41576 0.81442 0.04555 0.0
H1417 H 0.3839 0.92045 0.82643 0.0
H1418 H 0.40741 0.83094 0.8798 0.0
H1419 H 0.38931 0.9031 0.99216 0.0
C1420 C 0.3973 0.87768 0.05828 0.0
C1421 C 0.40461 0.85256 0.07493 0.0
C1422 C 0.40227 0.85059 0.86818 0.0
C1423 C 0.40026 0.8644 0.96522 0.0
C1424 C 0.39997 0.85655 0.81369 0.0
C1425 C 0.39346 0.88189 0.79709 0.0
C1426 C 0.39798 0.87004 0.90674 0.0
C1427 C 0.38931 0.90075 0.83701 0.0
C1428 C 0.39512 0.88364 1.00378 0.0
C1429 C 0.40969 0.83393 0.03499 0.0
N1430 N 0.3916 0.89444 0.88975 0.0
N1431 N 0.40742 0.84022 0.98222 0.0
H1432 H 0.84702 0.94762 0.30007 0.0
H1433 H 0.86857 0.84919 0.0547 0.0
H1434 H 0.84026 0.86418 0.31498 0.0
H1435 H 0.87901 0.9324 0.04309 0.0
H1436 H 0.85725 0.85421 0.14926 0.0
H1437 H 0.85722 0.94237 0.20521 0.0
C1438 C 0.84744 0.92817 0.2834 0.0
C1439 C 0.84266 0.90632 0.3159 0.0
C1440 C 0.86199 0.87138 0.126 0.0
C1441 C 0.85476 0.90014 0.20675 0.0
C1442 C 0.86862 0.86852 0.07194 0.0
C1443 C 0.87483 0.89039 0.04047 0.0
C1444 C 0.86151 0.8963 0.14913 0.0
C1445 C 0.87406 0.91496 0.06523 0.0
C1446 C 0.85347 0.92519 0.22915 0.0
C1447 C 0.84405 0.8816 0.29185 0.0
N1448 N 0.86757 0.91722 0.11788 0.0
N1449 N 0.84993 0.8792 0.23888 0.0
H1450 H 0.88191 0.08555 0.97592 0.0
H1451 H 0.91903 0.19329 0.75546 0.0
H1452 H 0.90453 0.16421 1.01508 0.0
H1453 H 0.89341 0.11555 0.71617 0.0
H1454 H 0.91437 0.18285 0.85041 0.0
H1455 H 0.88696 0.09589 0.88096 0.0
C1456 C 0.88809 0.10497 0.96472 0.0
C1457 C 0.89282 0.12399 1.00403 0.0
C1458 C 0.90977 0.16805 0.82105 0.0
C1459 C 0.8984 0.13608 0.89455 0.0
C1460 C 0.91229 0.17405 0.7666 0.0
C1461 C 0.90654 0.15534 0.72721 0.0
C1462 C 0.90146 0.14311 0.83676 0.0
C1463 C 0.89839 0.13058 0.74472 0.0
C1464 C 0.89082 0.11091 0.91029 0.0
C1465 C 0.90033 0.14895 0.98652 0.0
N1466 N 0.89607 0.12523 0.79797 0.0
N1467 N 0.90292 0.15422 0.93329 0.0
H1468 H 0.08732 0.1212 0.0669 0.0
H1469 H 0.19847 0.09905 0.28828 0.0
H1470 H 0.16805 0.10608 0.02841 0.0
H1471 H 0.11704 0.11027 0.32644 0.0
H1472 H 0.18785 0.10232 0.19322 0.0
H1473 H 0.09805 0.11844 0.16201 0.0
C1474 C 0.10735 0.11746 0.07835 0.0
C1475 C 0.12679 0.11392 0.03928 0.0
C1476 C 0.1723 0.10408 0.22237 0.0
C1477 C 0.1392 0.11046 0.14868 0.0
C1478 C 0.17832 0.10206 0.2768 0.0
C1479 C 0.15864 0.10429 0.31582 0.0
C1480 C 0.14636 0.10839 0.20641 0.0
C1481 C 0.13296 0.10872 0.29812 0.0
C1482 C 0.11343 0.11572 0.1328 0.0
C1483 C 0.15232 0.10865 0.05688 0.0
N1484 N 0.1276 0.11058 0.24488 0.0
N1485 N 0.15777 0.10713 0.11013 0.0
H1486 H 0.08891 0.80346 0.76383 0.0
H1487 H 0.12623 0.91187 0.98232 0.0
H1488 H 0.10602 0.88361 0.72543 0.0
H1489 H 0.10577 0.83284 1.02384 0.0
H1490 H 0.11982 0.90134 0.88808 0.0
H1491 H 0.09641 0.81316 0.85857 0.0
C1492 C 0.09438 0.82306 0.77511 0.0
C1493 C 0.09671 0.84274 0.73615 0.0
C1494 C 0.11674 0.88626 0.91773 0.0
C1495 C 0.10513 0.85405 0.84519 0.0
C1496 C 0.12024 0.89231 0.97183 0.0
C1497 C 0.11642 0.87331 1.01167 0.0
C1498 C 0.10937 0.86094 0.90271 0.0
C1499 C 0.10923 0.84813 0.99488 0.0
C1500 C 0.09851 0.82862 0.8294 0.0
C1501 C 0.10354 0.86785 0.75374 0.0
N1502 N 0.1059 0.84273 0.94187 0.0
N1503 N 0.10749 0.87274 0.80669 0.0
loop_
_geom_bond_atom_site_label_1
_geom_bond_atom_site_label_2
_geom_bond_distance
_geom_bond_site_symmetry_2
_ccdc_geom_bond_type
Gd0 C3 2.818 . S
Gd0 O20 2.377 . S
Gd0 O22 2.448 . S
Gd0 O23 2.506 . S
Gd0 O24 2.435 . S
Gd0 O25 2.717 . S
Gd0 O27 2.395 . S
Gd0 O31 2.327 . S
Gd1 C12 2.818 1_554 S
Gd1 O21 2.395 . S
Gd1 O25 2.327 . S
Gd1 O26 2.377 . S
Gd1 O28 2.448 1_554 S
Gd1 O29 2.506 1_554 S
Gd1 O30 2.435 . S
Gd1 O31 2.717 . S
C2 O20 1.240 . S
C2 O21 1.240 . S
C3 Gd0 2.818 . S
C3 C4 1.510 . S
C3 O22 1.249 . S
C3 O23 1.252 . S
C4 C3 1.510 . S
C4 C5 1.404 . S
C4 C6 1.352 . S
C5 C4 1.404 . S
C5 C9 1.389 . S
C5 H32 0.930 . S
C6 C4 1.352 . S
C6 C8 1.374 . S
C6 H33 0.931 . S
C7 C8 1.359 . S
C7 C9 1.364 . S
C8 C6 1.374 . S
C8 C7 1.359 . S
C8 H34 0.931 . S
C9 C5 1.389 . S
C9 C7 1.364 . S
C9 H35 0.931 . S
C10 O24 1.256 . S
C10 O25 1.257 . S
C11 O26 1.240 . S
C11 O27 1.240 . S
C12 Gd1 2.818 1_556 S
C12 C13 1.510 . S
C12 O28 1.249 . S
C12 O29 1.252 . S
C13 C12 1.510 . S
C13 C14 1.404 . S
C13 C15 1.352 . S
C14 C13 1.404 . S
C14 C18 1.389 . S
C14 H36 0.930 . S
C15 C13 1.352 . S
C15 C17 1.374 . S
C15 H37 0.931 . S
C16 C17 1.359 . S
C16 C18 1.364 . S
C17 C15 1.374 . S
C17 C16 1.359 . S
C17 H38 0.931 . S
C18 C14 1.389 . S
C18 C16 1.364 . S
C18 H39 0.931 . S
C19 O30 1.256 . S
C19 O31 1.257 . S
O20 Gd0 2.377 . S
O20 C2 1.240 . S
O21 Gd1 2.395 . S
O21 C2 1.240 . S
O22 Gd0 2.448 . S
O22 C3 1.249 . S
O23 Gd0 2.506 . S
O23 C3 1.252 . S
O24 Gd0 2.435 . S
O24 C10 1.256 . S
O25 Gd0 2.717 . S
O25 Gd1 2.327 . S
O25 C10 1.257 . S
O26 Gd1 2.377 . S
O26 C11 1.240 . S
O27 Gd0 2.395 . S
O27 C11 1.240 . S
O28 Gd1 2.448 1_556 S
O28 C12 1.249 . S
O29 Gd1 2.506 1_556 S
O29 C12 1.252 . S
O30 Gd1 2.435 . S
O30 C19 1.256 . S
O31 Gd0 2.327 . S
O31 Gd1 2.717 . S
O31 C19 1.257 . S
H32 C5 0.930 . S
H33 C6 0.931 . S
H34 C8 0.931 . S
H35 C9 0.931 . S
H36 C14 0.930 . S
H37 C15 0.931 . S
H38 C17 0.931 . S
H39 C18 0.931 . S
Gd40 C43 2.818 1_556 S
Gd40 O60 2.377 . S
Gd40 O62 2.448 1_556 S
Gd40 O63 2.506 1_556 S
Gd40 O64 2.435 . S
Gd40 O65 2.717 . S
Gd40 O67 2.395 . S
Gd40 O71 2.327 . S
Gd41 C52 2.818 . S
Gd41 O61 2.395 . S
Gd41 O65 2.327 . S
Gd41 O66 2.377 . S
Gd41 O68 2.448 . S
Gd41 O69 2.506 . S
Gd41 O70 2.435 . S
Gd41 O71 2.717 . S
C42 O60 1.240 . S
C42 O61 1.240 . S
C43 Gd40 2.818 1_554 S
C43 C44 1.510 . S
C43 O62 1.249 . S
C43 O63 1.252 . S
C44 C43 1.510 . S
C44 C45 1.404 . S
C44 C46 1.352 . S
C45 C44 1.404 . S
C45 C49 1.389 . S
C45 H72 0.930 . S
C46 C44 1.352 . S
C46 C48 1.374 . S
C46 H73 0.931 . S
C47 C48 1.359 . S
C47 C49 1.364 . S
C48 C46 1.374 . S
C48 C47 1.359 . S
C48 H74 0.931 . S
C49 C45 1.389 . S
C49 C47 1.364 . S
C49 H75 0.931 . S
C50 O64 1.256 . S
C50 O65 1.257 . S
C51 O66 1.240 . S
C51 O67 1.240 . S
C52 Gd41 2.818 . S
C52 C53 1.510 . S
C52 O68 1.249 . S
C52 O69 1.252 . S
C53 C52 1.510 . S
C53 C54 1.404 . S
C53 C55 1.352 . S
C54 C53 1.404 . S
C54 C58 1.389 . S
C54 H76 0.930 . S
C55 C53 1.352 . S
C55 C57 1.374 . S
C55 H77 0.931 . S
C56 C57 1.359 . S
C56 C58 1.364 . S
C57 C55 1.374 . S
C57 C56 1.359 . S
C57 H78 0.931 . S
C58 C54 1.389 . S
C58 C56 1.364 . S
C58 H79 0.931 . S
C59 O70 1.256 . S
C59 O71 1.257 . S
O60 Gd40 2.377 . S
O60 C42 1.240 . S
O61 Gd41 2.395 . S
O61 C42 1.240 . S
O62 Gd40 2.448 1_554 S
O62 C43 1.249 . S
O63 Gd40 2.506 1_554 S
O63 C43 1.252 . S
O64 Gd40 2.435 . S
O64 C50 1.256 . S
O65 Gd40 2.717 . S
O65 Gd41 2.327 . S
O65 C50 1.257 . S
O66 Gd41 2.377 . S
O66 C51 1.240 . S
O67 Gd40 2.395 . S
O67 C51 1.240 . S
O68 Gd41 2.448 . S
O68 C52 1.249 . S
O69 Gd41 2.506 . S
O69 C52 1.252 . S
O70 Gd41 2.435 . S
O70 C59 1.256 . S
O71 Gd40 2.327 . S
O71 Gd41 2.717 . S
O71 C59 1.257 . S
H72 C45 0.930 . S
H73 C46 0.931 . S
H74 C48 0.931 . S
H75 C49 0.931 . S
H76 C54 0.930 . S
H77 C55 0.931 . S
H78 C57 0.931 . S
H79 C58 0.931 . S
Gd80 C83 2.818 . S
Gd80 O100 2.377 . S
Gd80 O102 2.448 . S
Gd80 O103 2.506 . S
Gd80 O104 2.435 . S
Gd80 O105 2.717 . S
Gd80 O107 2.395 . S
Gd80 O111 2.327 . S
Gd81 C92 2.818 1_554 S
Gd81 O101 2.395 . S
Gd81 O105 2.327 . S
Gd81 O106 2.377 . S
Gd81 O108 2.448 1_554 S
Gd81 O109 2.506 1_554 S
Gd81 O110 2.435 . S
Gd81 O111 2.717 . S
C82 O100 1.240 . S
C82 O101 1.240 . S
C83 Gd80 2.818 . S
C83 C84 1.510 . S
C83 O102 1.249 . S
C83 O103 1.252 . S
C84 C83 1.510 . S
C84 C85 1.404 . S
C84 C86 1.352 . S
C85 C84 1.404 . S
C85 C89 1.389 . S
C85 H112 0.930 . S
C86 C84 1.352 . S
C86 C88 1.374 . S
C86 H113 0.931 . S
C87 C88 1.359 . S
C87 C89 1.364 . S
C88 C86 1.374 . S
C88 C87 1.359 . S
C88 H114 0.931 . S
C89 C85 1.389 . S
C89 C87 1.364 . S
C89 H115 0.931 . S
C90 O104 1.256 . S
C90 O105 1.257 . S
C91 O106 1.240 . S
C91 O107 1.240 . S
C92 Gd81 2.818 1_556 S
C92 C93 1.510 . S
C92 O108 1.249 . S
C92 O109 1.252 . S
C93 C92 1.510 . S
C93 C94 1.404 . S
C93 C95 1.352 . S
C94 C93 1.404 . S
C94 C98 1.389 . S
C94 H116 0.930 . S
C95 C93 1.352 . S
C95 C97 1.374 . S
C95 H117 0.931 . S
C96 C97 1.359 . S
C96 C98 1.364 . S
C97 C95 1.374 . S
C97 C96 1.359 . S
C97 H118 0.931 . S
C98 C94 1.389 . S
C98 C96 1.364 . S
C98 H119 0.931 . S
C99 O110 1.256 . S
C99 O111 1.257 . S
O100 Gd80 2.377 . S
O100 C82 1.240 . S
O101 Gd81 2.395 . S
O101 C82 1.240 . S
O102 Gd80 2.448 . S
O102 C83 1.249 . S
O103 Gd80 2.506 . S
O103 C83 1.252 . S
O104 Gd80 2.435 . S
O104 C90 1.256 . S
O105 Gd80 2.717 . S
O105 Gd81 2.327 . S
O105 C90 1.257 . S
O106 Gd81 2.377 . S
O106 C91 1.240 . S
O107 Gd80 2.395 . S
O107 C91 1.240 . S
O108 Gd81 2.448 1_556 S
O108 C92 1.249 . S
O109 Gd81 2.506 1_556 S
O109 C92 1.252 . S
O110 Gd81 2.435 . S
O110 C99 1.256 . S
O111 Gd80 2.327 . S
O111 Gd81 2.717 . S
O111 C99 1.257 . S
H112 C85 0.930 . S
H113 C86 0.931 . S
H114 C88 0.931 . S
H115 C89 0.931 . S
H116 C94 0.930 . S
H117 C95 0.931 . S
H118 C97 0.931 . S
H119 C98 0.931 . S
Gd120 C123 2.818 1_556 S
Gd120 O140 2.377 . S
Gd120 O142 2.448 1_556 S
Gd120 O143 2.506 1_556 S
Gd120 O144 2.435 . S
Gd120 O145 2.717 . S
Gd120 O147 2.395 . S
Gd120 O151 2.327 . S
Gd121 C132 2.818 . S
Gd121 O141 2.395 . S
Gd121 O145 2.327 . S
Gd121 O146 2.377 . S
Gd121 O148 2.448 . S
Gd121 O149 2.506 . S
Gd121 O150 2.435 . S
Gd121 O151 2.717 . S
C122 O140 1.240 . S
C122 O141 1.240 . S
C123 Gd120 2.818 1_554 S
C123 C124 1.510 . S
C123 O142 1.249 . S
C123 O143 1.252 . S
C124 C123 1.510 . S
C124 C125 1.404 . S
C124 C126 1.352 . S
C125 C124 1.404 . S
C125 C129 1.389 . S
C125 H152 0.930 . S
C126 C124 1.352 . S
C126 C128 1.374 . S
C126 H153 0.931 . S
C127 C128 1.359 . S
C127 C129 1.364 . S
C128 C126 1.374 . S
C128 C127 1.359 . S
C128 H154 0.931 . S
C129 C125 1.389 . S
C129 C127 1.364 . S
C129 H155 0.931 . S
C130 O144 1.256 . S
C130 O145 1.257 . S
C131 O146 1.240 . S
C131 O147 1.240 . S
C132 Gd121 2.818 . S
C132 C133 1.510 . S
C132 O148 1.249 . S
C132 O149 1.252 . S
C133 C132 1.510 . S
C133 C134 1.404 . S
C133 C135 1.352 . S
C134 C133 1.404 . S
C134 C138 1.389 . S
C134 H156 0.930 . S
C135 C133 1.352 . S
C135 C137 1.374 . S
C135 H157 0.931 . S
C136 C137 1.359 . S
C136 C138 1.364 . S
C137 C135 1.374 . S
C137 C136 1.359 . S
C137 H158 0.931 . S
C138 C134 1.389 . S
C138 C136 1.364 . S
C138 H159 0.931 . S
C139 O150 1.256 . S
C139 O151 1.257 . S
O140 Gd120 2.377 . S
O140 C122 1.240 . S
O141 Gd121 2.395 . S
O141 C122 1.240 . S
O142 Gd120 2.448 1_554 S
O142 C123 1.249 . S
O143 Gd120 2.506 1_554 S
O143 C123 1.252 . S
O144 Gd120 2.435 . S
O144 C130 1.256 . S
O145 Gd120 2.717 . S
O145 Gd121 2.327 . S
O145 C130 1.257 . S
O146 Gd121 2.377 . S
O146 C131 1.240 . S
O147 Gd120 2.395 . S
O147 C131 1.240 . S
O148 Gd121 2.448 . S
O148 C132 1.249 . S
O149 Gd121 2.506 . S
O149 C132 1.252 . S
O150 Gd121 2.435 . S
O150 C139 1.256 . S
O151 Gd120 2.327 . S
O151 Gd121 2.717 . S
O151 C139 1.257 . S
H152 C125 0.930 . S
H153 C126 0.931 . S
H154 C128 0.931 . S
H155 C129 0.931 . S
H156 C134 0.930 . S
H157 C135 0.931 . S
H158 C137 0.931 . S
H159 C138 0.931 . S
Gd160 C163 2.818 1_554 S
Gd160 O180 2.377 . S
Gd160 O182 2.448 1_554 S
Gd160 O183 2.506 1_554 S
Gd160 O184 2.435 . S
Gd160 O185 2.717 . S
Gd160 O187 2.395 . S
Gd160 O191 2.327 . S
Gd161 C172 2.818 . S
Gd161 O181 2.395 . S
Gd161 O185 2.327 . S
Gd161 O186 2.377 . S
Gd161 O188 2.448 . S
Gd161 O189 2.506 . S
Gd161 O190 2.435 . S
Gd161 O191 2.717 . S
C162 O180 1.240 . S
C162 O181 1.240 . S
C163 Gd160 2.818 1_556 S
C163 C164 1.510 . S
C163 O182 1.249 . S
C163 O183 1.252 . S
C164 C163 1.510 . S
C164 C165 1.404 . S
C164 C166 1.352 . S
C165 C164 1.404 . S
C165 C169 1.389 . S
C165 H192 0.930 . S
C166 C164 1.352 . S
C166 C168 1.374 . S
C166 H193 0.931 . S
C167 C168 1.359 . S
C167 C169 1.364 . S
C168 C166 1.374 . S
C168 C167 1.359 . S
C168 H194 0.931 . S
C169 C165 1.389 . S
C169 C167 1.364 . S
C169 H195 0.931 . S
C170 O184 1.256 . S
C170 O185 1.257 . S
C171 O186 1.240 . S
C171 O187 1.240 . S
C172 Gd161 2.818 . S
C172 C173 1.510 . S
C172 O188 1.249 . S
C172 O189 1.252 . S
C173 C172 1.510 . S
C173 C174 1.404 . S
C173 C175 1.352 . S
C174 C173 1.404 . S
C174 C178 1.389 . S
C174 H196 0.930 . S
C175 C173 1.352 . S
C175 C177 1.374 . S
C175 H197 0.931 . S
C176 C177 1.359 . S
C176 C178 1.364 . S
C177 C175 1.374 . S
C177 C176 1.359 . S
C177 H198 0.931 . S
C178 C174 1.389 . S
C178 C176 1.364 . S
C178 H199 0.931 . S
C179 O190 1.256 . S
C179 O191 1.257 . S
O180 Gd160 2.377 . S
O180 C162 1.240 . S
O181 Gd161 2.395 . S
O181 C162 1.240 . S
O182 Gd160 2.448 1_556 S
O182 C163 1.249 . S
O183 Gd160 2.506 1_556 S
O183 C163 1.252 . S
O184 Gd160 2.435 . S
O184 C170 1.256 . S
O185 Gd160 2.717 . S
O185 Gd161 2.327 . S
O185 C170 1.257 . S
O186 Gd161 2.377 . S
O186 C171 1.240 . S
O187 Gd160 2.395 . S
O187 C171 1.240 . S
O188 Gd161 2.448 . S
O188 C172 1.249 . S
O189 Gd161 2.506 . S
O189 C172 1.252 . S
O190 Gd161 2.435 . S
O190 C179 1.256 . S
O191 Gd160 2.327 . S
O191 Gd161 2.717 . S
O191 C179 1.257 . S
H192 C165 0.930 . S
H193 C166 0.931 . S
H194 C168 0.931 . S
H195 C169 0.931 . S
H196 C174 0.930 . S
H197 C175 0.931 . S
H198 C177 0.931 . S
H199 C178 0.931 . S
Gd200 C203 2.818 . S
Gd200 O220 2.377 . S
Gd200 O222 2.448 . S
Gd200 O223 2.506 . S
Gd200 O224 2.435 . S
Gd200 O225 2.717 . S
Gd200 O227 2.395 . S
Gd200 O231 2.327 . S
Gd201 C212 2.818 1_556 S
Gd201 O221 2.395 . S
Gd201 O225 2.327 . S
Gd201 O226 2.377 . S
Gd201 O228 2.448 1_556 S
Gd201 O229 2.506 1_556 S
Gd201 O230 2.435 . S
Gd201 O231 2.717 . S
C202 O220 1.240 . S
C202 O221 1.240 . S
C203 Gd200 2.818 . S
C203 C204 1.510 . S
C203 O222 1.249 . S
C203 O223 1.252 . S
C204 C203 1.510 . S
C204 C205 1.404 . S
C204 C206 1.352 . S
C205 C204 1.404 . S
C205 C209 1.389 . S
C205 H232 0.930 . S
C206 C204 1.352 . S
C206 C208 1.374 . S
C206 H233 0.931 . S
C207 C208 1.359 . S
C207 C209 1.364 . S
C208 C206 1.374 . S
C208 C207 1.359 . S
C208 H234 0.931 . S
C209 C205 1.389 . S
C209 C207 1.364 . S
C209 H235 0.931 . S
C210 O224 1.256 . S
C210 O225 1.257 . S
C211 O226 1.240 . S
C211 O227 1.240 . S
C212 Gd201 2.818 1_554 S
C212 C213 1.510 . S
C212 O228 1.249 . S
C212 O229 1.252 . S
C213 C212 1.510 . S
C213 C214 1.404 . S
C213 C215 1.352 . S
C214 C213 1.404 . S
C214 C218 1.389 . S
C214 H236 0.930 . S
C215 C213 1.352 . S
C215 C217 1.374 . S
C215 H237 0.931 . S
C216 C217 1.359 . S
C216 C218 1.364 . S
C217 C215 1.374 . S
C217 C216 1.359 . S
C217 H238 0.931 . S
C218 C214 1.389 . S
C218 C216 1.364 . S
C218 H239 0.931 . S
C219 O230 1.256 . S
C219 O231 1.257 . S
O220 Gd200 2.377 . S
O220 C202 1.240 . S
O221 Gd201 2.395 . S
O221 C202 1.240 . S
O222 Gd200 2.448 . S
O222 C203 1.249 . S
O223 Gd200 2.506 . S
O223 C203 1.252 . S
O224 Gd200 2.435 . S
O224 C210 1.256 . S
O225 Gd200 2.717 . S
O225 Gd201 2.327 . S
O225 C210 1.257 . S
O226 Gd201 2.377 . S
O226 C211 1.240 . S
O227 Gd200 2.395 . S
O227 C211 1.240 . S
O228 Gd201 2.448 1_554 S
O228 C212 1.249 . S
O229 Gd201 2.506 1_554 S
O229 C212 1.252 . S
O230 Gd201 2.435 . S
O230 C219 1.256 . S
O231 Gd200 2.327 . S
O231 Gd201 2.717 . S
O231 C219 1.257 . S
H232 C205 0.930 . S
H233 C206 0.931 . S
H234 C208 0.931 . S
H235 C209 0.931 . S
H236 C214 0.930 . S
H237 C215 0.931 . S
H238 C217 0.931 . S
H239 C218 0.931 . S
Gd240 C243 2.818 1_554 S
Gd240 O260 2.377 . S
Gd240 O262 2.448 1_554 S
Gd240 O263 2.506 1_554 S
Gd240 O264 2.435 . S
Gd240 O265 2.717 . S
Gd240 O267 2.395 . S
Gd240 O271 2.327 . S
Gd241 C252 2.818 . S
Gd241 O261 2.395 . S
Gd241 O265 2.327 . S
Gd241 O266 2.377 . S
Gd241 O268 2.448 . S
Gd241 O269 2.506 . S
Gd241 O270 2.435 . S
Gd241 O271 2.717 . S
C242 O260 1.240 . S
C242 O261 1.240 . S
C243 Gd240 2.818 1_556 S
C243 C244 1.510 . S
C243 O262 1.249 . S
C243 O263 1.252 . S
C244 C243 1.510 . S
C244 C245 1.404 . S
C244 C246 1.352 . S
C245 C244 1.404 . S
C245 C249 1.389 . S
C245 H272 0.930 . S
C246 C244 1.352 . S
C246 C248 1.374 . S
C246 H273 0.931 . S
C247 C248 1.359 . S
C247 C249 1.364 . S
C248 C246 1.374 . S
C248 C247 1.359 . S
C248 H274 0.931 . S
C249 C245 1.389 . S
C249 C247 1.364 . S
C249 H275 0.931 . S
C250 O264 1.256 . S
C250 O265 1.257 . S
C251 O266 1.240 . S
C251 O267 1.240 . S
C252 Gd241 2.818 . S
C252 C253 1.510 . S
C252 O268 1.249 . S
C252 O269 1.252 . S
C253 C252 1.510 . S
C253 C254 1.404 . S
C253 C255 1.352 . S
C254 C253 1.404 . S
C254 C258 1.389 . S
C254 H276 0.930 . S
C255 C253 1.352 . S
C255 C257 1.374 . S
C255 H277 0.931 . S
C256 C257 1.359 . S
C256 C258 1.364 . S
C257 C255 1.374 . S
C257 C256 1.359 . S
C257 H278 0.931 . S
C258 C254 1.389 . S
C258 C256 1.364 . S
C258 H279 0.931 . S
C259 O270 1.256 . S
C259 O271 1.257 . S
O260 Gd240 2.377 . S
O260 C242 1.240 . S
O261 Gd241 2.395 . S
O261 C242 1.240 . S
O262 Gd240 2.448 1_556 S
O262 C243 1.249 . S
O263 Gd240 2.506 1_556 S
O263 C243 1.252 . S
O264 Gd240 2.435 . S
O264 C250 1.256 . S
O265 Gd240 2.717 . S
O265 Gd241 2.327 . S
O265 C250 1.257 . S
O266 Gd241 2.377 . S
O266 C251 1.240 . S
O267 Gd240 2.395 . S
O267 C251 1.240 . S
O268 Gd241 2.448 . S
O268 C252 1.249 . S
O269 Gd241 2.506 . S
O269 C252 1.252 . S
O270 Gd241 2.435 . S
O270 C259 1.256 . S
O271 Gd240 2.327 . S
O271 Gd241 2.717 . S
O271 C259 1.257 . S
H272 C245 0.930 . S
H273 C246 0.931 . S
H274 C248 0.931 . S
H275 C249 0.931 . S
H276 C254 0.930 . S
H277 C255 0.931 . S
H278 C257 0.931 . S
H279 C258 0.931 . S
Gd280 C283 2.818 . S
Gd280 O300 2.377 . S
Gd280 O302 2.448 . S
Gd280 O303 2.506 . S
Gd280 O304 2.435 . S
Gd280 O305 2.717 . S
Gd280 O307 2.395 . S
Gd280 O311 2.327 . S
Gd281 C292 2.818 1_556 S
Gd281 O301 2.395 . S
Gd281 O305 2.327 . S
Gd281 O306 2.377 . S
Gd281 O308 2.448 1_556 S
Gd281 O309 2.506 1_556 S
Gd281 O310 2.435 . S
Gd281 O311 2.717 . S
C282 O300 1.240 . S
C282 O301 1.240 . S
C283 Gd280 2.818 . S
C283 C284 1.510 . S
C283 O302 1.249 . S
C283 O303 1.252 . S
C284 C283 1.510 . S
C284 C285 1.404 . S
C284 C286 1.352 . S
C285 C284 1.404 . S
C285 C289 1.389 . S
C285 H312 0.930 . S
C286 C284 1.352 . S
C286 C288 1.374 . S
C286 H313 0.931 . S
C287 C288 1.359 . S
C287 C289 1.364 . S
C288 C286 1.374 . S
C288 C287 1.359 . S
C288 H314 0.931 . S
C289 C285 1.389 . S
C289 C287 1.364 . S
C289 H315 0.931 . S
C290 O304 1.256 . S
C290 O305 1.257 . S
C291 O306 1.240 . S
C291 O307 1.240 . S
C292 Gd281 2.818 1_554 S
C292 C293 1.510 . S
C292 O308 1.249 . S
C292 O309 1.252 . S
C293 C292 1.510 . S
C293 C294 1.404 . S
C293 C295 1.352 . S
C294 C293 1.404 . S
C294 C298 1.389 . S
C294 H316 0.930 . S
C295 C293 1.352 . S
C295 C297 1.374 . S
C295 H317 0.931 . S
C296 C297 1.359 . S
C296 C298 1.364 . S
C297 C295 1.374 . S
C297 C296 1.359 . S
C297 H318 0.931 . S
C298 C294 1.389 . S
C298 C296 1.364 . S
C298 H319 0.931 . S
C299 O310 1.256 . S
C299 O311 1.257 . S
O300 Gd280 2.377 . S
O300 C282 1.240 . S
O301 Gd281 2.395 . S
O301 C282 1.240 . S
O302 Gd280 2.448 . S
O302 C283 1.249 . S
O303 Gd280 2.506 . S
O303 C283 1.252 . S
O304 Gd280 2.435 . S
O304 C290 1.256 . S
O305 Gd280 2.717 . S
O305 Gd281 2.327 . S
O305 C290 1.257 . S
O306 Gd281 2.377 . S
O306 C291 1.240 . S
O307 Gd280 2.395 . S
O307 C291 1.240 . S
O308 Gd281 2.448 1_554 S
O308 C292 1.249 . S
O309 Gd281 2.506 1_554 S
O309 C292 1.252 . S
O310 Gd281 2.435 . S
O310 C299 1.256 . S
O311 Gd280 2.327 . S
O311 Gd281 2.717 . S
O311 C299 1.257 . S
H312 C285 0.930 . S
H313 C286 0.931 . S
H314 C288 0.931 . S
H315 C289 0.931 . S
H316 C294 0.930 . S
H317 C295 0.931 . S
H318 C297 0.931 . S
H319 C298 0.931 . S
Gd320 C323 2.818 . S
Gd320 O340 2.377 . S
Gd320 O342 2.448 . S
Gd320 O343 2.506 . S
Gd320 O344 2.435 . S
Gd320 O345 2.717 . S
Gd320 O347 2.395 . S
Gd320 O351 2.327 . S
Gd321 C332 2.818 . S
Gd321 O341 2.395 . S
Gd321 O345 2.327 . S
Gd321 O346 2.377 . S
Gd321 O348 2.448 . S
Gd321 O349 2.506 . S
Gd321 O350 2.435 . S
Gd321 O351 2.717 . S
C322 O340 1.240 . S
C322 O341 1.240 . S
C323 Gd320 2.818 . S
C323 C324 1.510 . S
C323 O342 1.249 . S
C323 O343 1.252 . S
C324 C323 1.510 . S
C324 C325 1.404 . S
C324 C326 1.352 . S
C325 C324 1.404 . S
C325 C329 1.389 . S
C325 H352 0.930 . S
C326 C324 1.352 . S
C326 C328 1.374 . S
C326 H353 0.931 . S
C327 C328 1.359 . S
C327 C329 1.364 . S
C328 C326 1.374 . S
C328 C327 1.359 . S
C328 H354 0.931 . S
C329 C325 1.389 . S
C329 C327 1.364 . S
C329 H355 0.931 . S
C330 O344 1.256 . S
C330 O345 1.257 . S
C331 O346 1.240 . S
C331 O347 1.240 . S
C332 Gd321 2.818 . S
C332 C333 1.510 . S
C332 O348 1.249 . S
C332 O349 1.252 . S
C333 C332 1.510 . S
C333 C334 1.404 . S
C333 C335 1.352 . S
C334 C333 1.404 . S
C334 C338 1.389 . S
C334 H356 0.930 . S
C335 C333 1.352 . S
C335 C337 1.374 . S
C335 H357 0.931 . S
C336 C337 1.359 . S
C336 C338 1.364 . S
C337 C335 1.374 . S
C337 C336 1.359 . S
C337 H358 0.931 . S
C338 C334 1.389 . S
C338 C336 1.364 . S
C338 H359 0.931 . S
C339 O350 1.256 . S
C339 O351 1.257 . S
O340 Gd320 2.377 . S
O340 C322 1.240 . S
O341 Gd321 2.395 . S
O341 C322 1.240 . S
O342 Gd320 2.448 . S
O342 C323 1.249 . S
O343 Gd320 2.506 . S
O343 C323 1.252 . S
O344 Gd320 2.435 . S
O344 C330 1.256 . S
O345 Gd320 2.717 . S
O345 Gd321 2.327 . S
O345 C330 1.257 . S
O346 Gd321 2.377 . S
O346 C331 1.240 . S
O347 Gd320 2.395 . S
O347 C331 1.240 . S
O348 Gd321 2.448 . S
O348 C332 1.249 . S
O349 Gd321 2.506 . S
O349 C332 1.252 . S
O350 Gd321 2.435 . S
O350 C339 1.256 . S
O351 Gd320 2.327 . S
O351 Gd321 2.717 . S
O351 C339 1.257 . S
H352 C325 0.930 . S
H353 C326 0.931 . S
H354 C328 0.931 . S
H355 C329 0.931 . S
H356 C334 0.930 . S
H357 C335 0.931 . S
H358 C337 0.931 . S
H359 C338 0.931 . S
Gd360 C363 2.818 . S
Gd360 O380 2.377 . S
Gd360 O382 2.448 . S
Gd360 O383 2.506 . S
Gd360 O384 2.435 . S
Gd360 O385 2.717 . S
Gd360 O387 2.395 . S
Gd360 O391 2.327 . S
Gd361 C372 2.818 . S
Gd361 O381 2.395 . S
Gd361 O385 2.327 . S
Gd361 O386 2.377 . S
Gd361 O388 2.448 . S
Gd361 O389 2.506 . S
Gd361 O390 2.435 . S
Gd361 O391 2.717 . S
C362 O380 1.240 . S
C362 O381 1.240 . S
C363 Gd360 2.818 . S
C363 C364 1.510 . S
C363 O382 1.249 . S
C363 O383 1.252 . S
C364 C363 1.510 . S
C364 C365 1.404 . S
C364 C366 1.352 . S
C365 C364 1.404 . S
C365 C369 1.389 . S
C365 H392 0.930 . S
C366 C364 1.352 . S
C366 C368 1.374 . S
C366 H393 0.931 . S
C367 C368 1.359 . S
C367 C369 1.364 . S
C368 C366 1.374 . S
C368 C367 1.359 . S
C368 H394 0.931 . S
C369 C365 1.389 . S
C369 C367 1.364 . S
C369 H395 0.931 . S
C370 O384 1.256 . S
C370 O385 1.257 . S
C371 O386 1.240 . S
C371 O387 1.240 . S
C372 Gd361 2.818 . S
C372 C373 1.510 . S
C372 O388 1.249 . S
C372 O389 1.252 . S
C373 C372 1.510 . S
C373 C374 1.404 . S
C373 C375 1.352 . S
C374 C373 1.404 . S
C374 C378 1.389 . S
C374 H396 0.930 . S
C375 C373 1.352 . S
C375 C377 1.374 . S
C375 H397 0.931 . S
C376 C377 1.359 . S
C376 C378 1.364 . S
C377 C375 1.374 . S
C377 C376 1.359 . S
C377 H398 0.931 . S
C378 C374 1.389 . S
C378 C376 1.364 . S
C378 H399 0.931 . S
C379 O390 1.256 . S
C379 O391 1.257 . S
O380 Gd360 2.377 . S
O380 C362 1.240 . S
O381 Gd361 2.395 . S
O381 C362 1.240 . S
O382 Gd360 2.448 . S
O382 C363 1.249 . S
O383 Gd360 2.506 . S
O383 C363 1.252 . S
O384 Gd360 2.435 . S
O384 C370 1.256 . S
O385 Gd360 2.717 . S
O385 Gd361 2.327 . S
O385 C370 1.257 . S
O386 Gd361 2.377 . S
O386 C371 1.240 . S
O387 Gd360 2.395 . S
O387 C371 1.240 . S
O388 Gd361 2.448 . S
O388 C372 1.249 . S
O389 Gd361 2.506 . S
O389 C372 1.252 . S
O390 Gd361 2.435 . S
O390 C379 1.256 . S
O391 Gd360 2.327 . S
O391 Gd361 2.717 . S
O391 C379 1.257 . S
H392 C365 0.930 . S
H393 C366 0.931 . S
H394 C368 0.931 . S
H395 C369 0.931 . S
H396 C374 0.930 . S
H397 C375 0.931 . S
H398 C377 0.931 . S
H399 C378 0.931 . S
Gd400 C403 2.818 . S
Gd400 O420 2.377 . S
Gd400 O422 2.448 . S
Gd400 O423 2.506 . S
Gd400 O424 2.435 . S
Gd400 O425 2.717 . S
Gd400 O427 2.395 . S
Gd400 O431 2.327 . S
Gd401 C412 2.818 . S
Gd401 O421 2.395 . S
Gd401 O425 2.327 . S
Gd401 O426 2.377 . S
Gd401 O428 2.448 . S
Gd401 O429 2.506 . S
Gd401 O430 2.435 . S
Gd401 O431 2.717 . S
C402 O420 1.240 . S
C402 O421 1.240 . S
C403 Gd400 2.818 . S
C403 C404 1.510 . S
C403 O422 1.249 . S
C403 O423 1.252 . S
C404 C403 1.510 . S
C404 C405 1.404 . S
C404 C406 1.352 . S
C405 C404 1.404 . S
C405 C409 1.389 . S
C405 H432 0.930 . S
C406 C404 1.352 . S
C406 C408 1.374 . S
C406 H433 0.931 . S
C407 C408 1.359 . S
C407 C409 1.364 . S
C408 C406 1.374 . S
C408 C407 1.359 . S
C408 H434 0.931 . S
C409 C405 1.389 . S
C409 C407 1.364 . S
C409 H435 0.931 . S
C410 O424 1.256 . S
C410 O425 1.257 . S
C411 O426 1.240 . S
C411 O427 1.240 . S
C412 Gd401 2.818 . S
C412 C413 1.510 . S
C412 O428 1.249 . S
C412 O429 1.252 . S
C413 C412 1.510 . S
C413 C414 1.404 . S
C413 C415 1.352 . S
C414 C413 1.404 . S
C414 C418 1.389 . S
C414 H436 0.930 . S
C415 C413 1.352 . S
C415 C417 1.374 . S
C415 H437 0.931 . S
C416 C417 1.359 . S
C416 C418 1.364 . S
C417 C415 1.374 . S
C417 C416 1.359 . S
C417 H438 0.931 . S
C418 C414 1.389 . S
C418 C416 1.364 . S
C418 H439 0.931 . S
C419 O430 1.256 . S
C419 O431 1.257 . S
O420 Gd400 2.377 . S
O420 C402 1.240 . S
O421 Gd401 2.395 . S
O421 C402 1.240 . S
O422 Gd400 2.448 . S
O422 C403 1.249 . S
O423 Gd400 2.506 . S
O423 C403 1.252 . S
O424 Gd400 2.435 . S
O424 C410 1.256 . S
O425 Gd400 2.717 . S
O425 Gd401 2.327 . S
O425 C410 1.257 . S
O426 Gd401 2.377 . S
O426 C411 1.240 . S
O427 Gd400 2.395 . S
O427 C411 1.240 . S
O428 Gd401 2.448 . S
O428 C412 1.249 . S
O429 Gd401 2.506 . S
O429 C412 1.252 . S
O430 Gd401 2.435 . S
O430 C419 1.256 . S
O431 Gd400 2.327 . S
O431 Gd401 2.717 . S
O431 C419 1.257 . S
H432 C405 0.930 . S
H433 C406 0.931 . S
H434 C408 0.931 . S
H435 C409 0.931 . S
H436 C414 0.930 . S
H437 C415 0.931 . S
H438 C417 0.931 . S
H439 C418 0.931 . S
Gd440 C443 2.818 . S
Gd440 O460 2.377 . S
Gd440 O462 2.448 . S
Gd440 O463 2.506 . S
Gd440 O464 2.435 . S
Gd440 O465 2.717 . S
Gd440 O467 2.395 . S
Gd440 O471 2.327 . S
Gd441 C452 2.818 . S
Gd441 O461 2.395 . S
Gd441 O465 2.327 . S
Gd441 O466 2.377 . S
Gd441 O468 2.448 . S
Gd441 O469 2.506 . S
Gd441 O470 2.435 . S
Gd441 O471 2.717 . S
C442 O460 1.240 . S
C442 O461 1.240 . S
C443 Gd440 2.818 . S
C443 C444 1.510 . S
C443 O462 1.249 . S
C443 O463 1.252 . S
C444 C443 1.510 . S
C444 C445 1.404 . S
C444 C446 1.352 . S
C445 C444 1.404 . S
C445 C449 1.389 . S
C445 H472 0.930 . S
C446 C444 1.352 . S
C446 C448 1.374 . S
C446 H473 0.931 . S
C447 C448 1.359 . S
C447 C449 1.364 . S
C448 C446 1.374 . S
C448 C447 1.359 . S
C448 H474 0.931 . S
C449 C445 1.389 . S
C449 C447 1.364 . S
C449 H475 0.931 . S
C450 O464 1.256 . S
C450 O465 1.257 . S
C451 O466 1.240 . S
C451 O467 1.240 . S
C452 Gd441 2.818 . S
C452 C453 1.510 . S
C452 O468 1.249 . S
C452 O469 1.252 . S
C453 C452 1.510 . S
C453 C454 1.404 . S
C453 C455 1.352 . S
C454 C453 1.404 . S
C454 C458 1.389 . S
C454 H476 0.930 . S
C455 C453 1.352 . S
C455 C457 1.374 . S
C455 H477 0.931 . S
C456 C457 1.359 . S
C456 C458 1.364 . S
C457 C455 1.374 . S
C457 C456 1.359 . S
C457 H478 0.931 . S
C458 C454 1.389 . S
C458 C456 1.364 . S
C458 H479 0.931 . S
C459 O470 1.256 . S
C459 O471 1.257 . S
O460 Gd440 2.377 . S
O460 C442 1.240 . S
O461 Gd441 2.395 . S
O461 C442 1.240 . S
O462 Gd440 2.448 . S
O462 C443 1.249 . S
O463 Gd440 2.506 . S
O463 C443 1.252 . S
O464 Gd440 2.435 . S
O464 C450 1.256 . S
O465 Gd440 2.717 . S
O465 Gd441 2.327 . S
O465 C450 1.257 . S
O466 Gd441 2.377 . S
O466 C451 1.240 . S
O467 Gd440 2.395 . S
O467 C451 1.240 . S
O468 Gd441 2.448 . S
O468 C452 1.249 . S
O469 Gd441 2.506 . S
O469 C452 1.252 . S
O470 Gd441 2.435 . S
O470 C459 1.256 . S
O471 Gd440 2.327 . S
O471 Gd441 2.717 . S
O471 C459 1.257 . S
H472 C445 0.930 . S
H473 C446 0.931 . S
H474 C448 0.931 . S
H475 C449 0.931 . S
H476 C454 0.930 . S
H477 C455 0.931 . S
H478 C457 0.931 . S
H479 C458 0.931 . S
Gd480 C483 2.818 . S
Gd480 O500 2.377 . S
Gd480 O502 2.448 . S
Gd480 O503 2.506 . S
Gd480 O504 2.435 . S
Gd480 O505 2.717 . S
Gd480 O507 2.395 . S
Gd480 O511 2.327 . S
Gd481 C492 2.818 . S
Gd481 O501 2.395 . S
Gd481 O505 2.327 . S
Gd481 O506 2.377 . S
Gd481 O508 2.448 . S
Gd481 O509 2.506 . S
Gd481 O510 2.435 . S
Gd481 O511 2.717 . S
C482 O500 1.240 . S
C482 O501 1.240 . S
C483 Gd480 2.818 . S
C483 C484 1.510 . S
C483 O502 1.249 . S
C483 O503 1.252 . S
C484 C483 1.510 . S
C484 C485 1.404 . S
C484 C486 1.352 . S
C485 C484 1.404 . S
C485 C489 1.389 . S
C485 H512 0.930 . S
C486 C484 1.352 . S
C486 C488 1.374 . S
C486 H513 0.931 . S
C487 C488 1.359 . S
C487 C489 1.364 . S
C488 C486 1.374 . S
C488 C487 1.359 . S
C488 H514 0.931 . S
C489 C485 1.389 . S
C489 C487 1.364 . S
C489 H515 0.931 . S
C490 O504 1.256 . S
C490 O505 1.257 . S
C491 O506 1.240 . S
C491 O507 1.240 . S
C492 Gd481 2.818 . S
C492 C493 1.510 . S
C492 O508 1.249 . S
C492 O509 1.252 . S
C493 C492 1.510 . S
C493 C494 1.404 . S
C493 C495 1.352 . S
C494 C493 1.404 . S
C494 C498 1.389 . S
C494 H516 0.930 . S
C495 C493 1.352 . S
C495 C497 1.374 . S
C495 H517 0.931 . S
C496 C497 1.359 . S
C496 C498 1.364 . S
C497 C495 1.374 . S
C497 C496 1.359 . S
C497 H518 0.931 . S
C498 C494 1.389 . S
C498 C496 1.364 . S
C498 H519 0.931 . S
C499 O510 1.256 . S
C499 O511 1.257 . S
O500 Gd480 2.377 . S
O500 C482 1.240 . S
O501 Gd481 2.395 . S
O501 C482 1.240 . S
O502 Gd480 2.448 . S
O502 C483 1.249 . S
O503 Gd480 2.506 . S
O503 C483 1.252 . S
O504 Gd480 2.435 . S
O504 C490 1.256 . S
O505 Gd480 2.717 . S
O505 Gd481 2.327 . S
O505 C490 1.257 . S
O506 Gd481 2.377 . S
O506 C491 1.240 . S
O507 Gd480 2.395 . S
O507 C491 1.240 . S
O508 Gd481 2.448 . S
O508 C492 1.249 . S
O509 Gd481 2.506 . S
O509 C492 1.252 . S
O510 Gd481 2.435 . S
O510 C499 1.256 . S
O511 Gd480 2.327 . S
O511 Gd481 2.717 . S
O511 C499 1.257 . S
H512 C485 0.930 . S
H513 C486 0.931 . S
H514 C488 0.931 . S
H515 C489 0.931 . S
H516 C494 0.930 . S
H517 C495 0.931 . S
H518 C497 0.931 . S
H519 C498 0.931 . S
Gd520 C523 2.818 . S
Gd520 O540 2.377 . S
Gd520 O542 2.448 . S
Gd520 O543 2.506 . S
Gd520 O544 2.435 . S
Gd520 O545 2.717 . S
Gd520 O547 2.395 . S
Gd520 O551 2.327 . S
Gd521 C532 2.818 . S
Gd521 O541 2.395 . S
Gd521 O545 2.327 . S
Gd521 O546 2.377 . S
Gd521 O548 2.448 . S
Gd521 O549 2.506 . S
Gd521 O550 2.435 . S
Gd521 O551 2.717 . S
C522 O540 1.240 . S
C522 O541 1.240 . S
C523 Gd520 2.818 . S
C523 C524 1.510 . S
C523 O542 1.249 . S
C523 O543 1.252 . S
C524 C523 1.510 . S
C524 C525 1.404 . S
C524 C526 1.352 . S
C525 C524 1.404 . S
C525 C529 1.389 . S
C525 H552 0.930 . S
C526 C524 1.352 . S
C526 C528 1.374 . S
C526 H553 0.931 . S
C527 C528 1.359 . S
C527 C529 1.364 . S
C528 C526 1.374 . S
C528 C527 1.359 . S
C528 H554 0.931 . S
C529 C525 1.389 . S
C529 C527 1.364 . S
C529 H555 0.931 . S
C530 O544 1.256 . S
C530 O545 1.257 . S
C531 O546 1.240 . S
C531 O547 1.240 . S
C532 Gd521 2.818 . S
C532 C533 1.510 . S
C532 O548 1.249 . S
C532 O549 1.252 . S
C533 C532 1.510 . S
C533 C534 1.404 . S
C533 C535 1.352 . S
C534 C533 1.404 . S
C534 C538 1.389 . S
C534 H556 0.930 . S
C535 C533 1.352 . S
C535 C537 1.374 . S
C535 H557 0.931 . S
C536 C537 1.359 . S
C536 C538 1.364 . S
C537 C535 1.374 . S
C537 C536 1.359 . S
C537 H558 0.931 . S
C538 C534 1.389 . S
C538 C536 1.364 . S
C538 H559 0.931 . S
C539 O550 1.256 . S
C539 O551 1.257 . S
O540 Gd520 2.377 . S
O540 C522 1.240 . S
O541 Gd521 2.395 . S
O541 C522 1.240 . S
O542 Gd520 2.448 . S
O542 C523 1.249 . S
O543 Gd520 2.506 . S
O543 C523 1.252 . S
O544 Gd520 2.435 . S
O544 C530 1.256 . S
O545 Gd520 2.717 . S
O545 Gd521 2.327 . S
O545 C530 1.257 . S
O546 Gd521 2.377 . S
O546 C531 1.240 . S
O547 Gd520 2.395 . S
O547 C531 1.240 . S
O548 Gd521 2.448 . S
O548 C532 1.249 . S
O549 Gd521 2.506 . S
O549 C532 1.252 . S
O550 Gd521 2.435 . S
O550 C539 1.256 . S
O551 Gd520 2.327 . S
O551 Gd521 2.717 . S
O551 C539 1.257 . S
H552 C525 0.930 . S
H553 C526 0.931 . S
H554 C528 0.931 . S
H555 C529 0.931 . S
H556 C534 0.930 . S
H557 C535 0.931 . S
H558 C537 0.931 . S
H559 C538 0.931 . S
Gd560 C563 2.818 . S
Gd560 O580 2.377 . S
Gd560 O582 2.448 . S
Gd560 O583 2.506 . S
Gd560 O584 2.435 . S
Gd560 O585 2.717 . S
Gd560 O587 2.395 . S
Gd560 O591 2.327 . S
Gd561 C572 2.818 . S
Gd561 O581 2.395 . S
Gd561 O585 2.327 . S
Gd561 O586 2.377 . S
Gd561 O588 2.448 . S
Gd561 O589 2.506 . S
Gd561 O590 2.435 . S
Gd561 O591 2.717 . S
C562 O580 1.240 . S
C562 O581 1.240 . S
C563 Gd560 2.818 . S
C563 C564 1.510 . S
C563 O582 1.249 . S
C563 O583 1.252 . S
C564 C563 1.510 . S
C564 C565 1.404 . S
C564 C566 1.352 . S
C565 C564 1.404 . S
C565 C569 1.389 . S
C565 H592 0.930 . S
C566 C564 1.352 . S
C566 C568 1.374 . S
C566 H593 0.931 . S
C567 C568 1.359 . S
C567 C569 1.364 . S
C568 C566 1.374 . S
C568 C567 1.359 . S
C568 H594 0.931 . S
C569 C565 1.389 . S
C569 C567 1.364 . S
C569 H595 0.931 . S
C570 O584 1.256 . S
C570 O585 1.257 . S
C571 O586 1.240 . S
C571 O587 1.240 . S
C572 Gd561 2.818 . S
C572 C573 1.510 . S
C572 O588 1.249 . S
C572 O589 1.252 . S
C573 C572 1.510 . S
C573 C574 1.404 . S
C573 C575 1.352 . S
C574 C573 1.404 . S
C574 C578 1.389 . S
C574 H596 0.930 . S
C575 C573 1.352 . S
C575 C577 1.374 . S
C575 H597 0.931 . S
C576 C577 1.359 . S
C576 C578 1.364 . S
C577 C575 1.374 . S
C577 C576 1.359 . S
C577 H598 0.931 . S
C578 C574 1.389 . S
C578 C576 1.364 . S
C578 H599 0.931 . S
C579 O590 1.256 . S
C579 O591 1.257 . S
O580 Gd560 2.377 . S
O580 C562 1.240 . S
O581 Gd561 2.395 . S
O581 C562 1.240 . S
O582 Gd560 2.448 . S
O582 C563 1.249 . S
O583 Gd560 2.506 . S
O583 C563 1.252 . S
O584 Gd560 2.435 . S
O584 C570 1.256 . S
O585 Gd560 2.717 . S
O585 Gd561 2.327 . S
O585 C570 1.257 . S
O586 Gd561 2.377 . S
O586 C571 1.240 . S
O587 Gd560 2.395 . S
O587 C571 1.240 . S
O588 Gd561 2.448 . S
O588 C572 1.249 . S
O589 Gd561 2.506 . S
O589 C572 1.252 . S
O590 Gd561 2.435 . S
O590 C579 1.256 . S
O591 Gd560 2.327 . S
O591 Gd561 2.717 . S
O591 C579 1.257 . S
H592 C565 0.930 . S
H593 C566 0.931 . S
H594 C568 0.931 . S
H595 C569 0.931 . S
H596 C574 0.930 . S
H597 C575 0.931 . S
H598 C577 0.931 . S
H599 C578 0.931 . S
Gd600 C603 2.818 . S
Gd600 O620 2.377 . S
Gd600 O622 2.448 . S
Gd600 O623 2.506 . S
Gd600 O624 2.435 . S
Gd600 O625 2.717 . S
Gd600 O627 2.395 . S
Gd600 O631 2.327 . S
Gd601 C612 2.818 . S
Gd601 O621 2.395 . S
Gd601 O625 2.327 . S
Gd601 O626 2.377 . S
Gd601 O628 2.448 . S
Gd601 O629 2.506 . S
Gd601 O630 2.435 . S
Gd601 O631 2.717 . S
C602 O620 1.240 . S
C602 O621 1.240 . S
C603 Gd600 2.818 . S
C603 C604 1.510 . S
C603 O622 1.249 . S
C603 O623 1.252 . S
C604 C603 1.510 . S
C604 C605 1.404 . S
C604 C606 1.352 . S
C605 C604 1.404 . S
C605 C609 1.389 . S
C605 H632 0.930 . S
C606 C604 1.352 . S
C606 C608 1.374 . S
C606 H633 0.931 . S
C607 C608 1.359 . S
C607 C609 1.364 . S
C608 C606 1.374 . S
C608 C607 1.359 . S
C608 H634 0.931 . S
C609 C605 1.389 . S
C609 C607 1.364 . S
C609 H635 0.931 . S
C610 O624 1.256 . S
C610 O625 1.257 . S
C611 O626 1.240 . S
C611 O627 1.240 . S
C612 Gd601 2.818 . S
C612 C613 1.510 . S
C612 O628 1.249 . S
C612 O629 1.252 . S
C613 C612 1.510 . S
C613 C614 1.404 . S
C613 C615 1.352 . S
C614 C613 1.404 . S
C614 C618 1.389 . S
C614 H636 0.930 . S
C615 C613 1.352 . S
C615 C617 1.374 . S
C615 H637 0.931 . S
C616 C617 1.359 . S
C616 C618 1.364 . S
C617 C615 1.374 . S
C617 C616 1.359 . S
C617 H638 0.931 . S
C618 C614 1.389 . S
C618 C616 1.364 . S
C618 H639 0.931 . S
C619 O630 1.256 . S
C619 O631 1.257 . S
O620 Gd600 2.377 . S
O620 C602 1.240 . S
O621 Gd601 2.395 . S
O621 C602 1.240 . S
O622 Gd600 2.448 . S
O622 C603 1.249 . S
O623 Gd600 2.506 . S
O623 C603 1.252 . S
O624 Gd600 2.435 . S
O624 C610 1.256 . S
O625 Gd600 2.717 . S
O625 Gd601 2.327 . S
O625 C610 1.257 . S
O626 Gd601 2.377 . S
O626 C611 1.240 . S
O627 Gd600 2.395 . S
O627 C611 1.240 . S
O628 Gd601 2.448 . S
O628 C612 1.249 . S
O629 Gd601 2.506 . S
O629 C612 1.252 . S
O630 Gd601 2.435 . S
O630 C619 1.256 . S
O631 Gd600 2.327 . S
O631 Gd601 2.717 . S
O631 C619 1.257 . S
H632 C605 0.930 . S
H633 C606 0.931 . S
H634 C608 0.931 . S
H635 C609 0.931 . S
H636 C614 0.930 . S
H637 C615 0.931 . S
H638 C617 0.931 . S
H639 C618 0.931 . S
H640 C646 0.930 . S
H641 C650 0.930 . S
H642 C655 0.929 . S
H643 C653 0.929 . S
H644 C648 0.929 . S
H645 C654 0.929 . S
C646 H640 0.930 . S
C646 C647 1.367 . S
C646 C654 1.378 . S
C647 C646 1.367 . S
C647 C655 1.433 . S
C648 H644 0.929 . S
C648 C650 1.378 1_565 S
C648 C652 1.350 . S
C649 C652 1.463 . S
C649 C654 1.350 . S
C649 N657 1.427 . S
C650 H641 0.930 . S
C650 C648 1.378 1_545 S
C650 C651 1.367 . S
C651 C650 1.367 . S
C651 C653 1.433 . S
C652 C648 1.350 . S
C652 C649 1.463 . S
C652 N656 1.427 1_565 S
C653 H643 0.929 . S
C653 C651 1.433 . S
C653 N656 1.384 . S
C654 H645 0.929 . S
C654 C646 1.378 . S
C654 C649 1.350 . S
C655 H642 0.929 . S
C655 C647 1.433 . S
C655 N657 1.384 . S
N656 C652 1.427 1_545 S
N656 C653 1.384 . S
N657 C649 1.427 . S
N657 C655 1.384 . S
H658 C664 0.930 . S
H659 C668 0.930 . S
H660 C673 0.929 . S
H661 C671 0.929 . S
H662 C666 0.929 . S
H663 C672 0.929 . S
C664 H658 0.930 . S
C664 C665 1.367 . S
C664 C672 1.378 . S
C665 C664 1.367 . S
C665 C673 1.433 . S
C666 H662 0.929 . S
C666 C668 1.378 1_655 S
C666 C670 1.350 . S
C667 C670 1.463 . S
C667 C672 1.350 . S
C667 N675 1.427 . S
C668 H659 0.930 . S
C668 C666 1.378 1_455 S
C668 C669 1.367 . S
C669 C668 1.367 . S
C669 C671 1.433 . S
C670 C666 1.350 . S
C670 C667 1.463 . S
C670 N674 1.408 1_655 S
C671 H661 0.929 . S
C671 C669 1.433 . S
C671 N674 1.422 . S
C672 H663 0.929 . S
C672 C664 1.378 . S
C672 C667 1.350 . S
C673 H660 0.929 . S
C673 C665 1.433 . S
C673 N675 1.384 . S
N674 C670 1.408 1_455 S
N674 C671 1.422 . S
N675 C667 1.427 . S
N675 C673 1.384 . S
H676 C682 0.930 . S
H677 C686 0.930 . S
H678 C691 0.929 . S
H679 C689 0.929 . S
H680 C684 0.929 . S
H681 C690 0.929 . S
C682 H676 0.930 . S
C682 C683 1.367 . S
C682 C690 1.378 . S
C683 C682 1.367 . S
C683 C691 1.433 . S
C684 H680 0.929 . S
C684 C686 1.378 . S
C684 C688 1.350 . S
C685 C688 1.463 . S
C685 C690 1.350 1_545 S
C685 N693 1.427 . S
C686 H677 0.930 . S
C686 C684 1.378 . S
C686 C687 1.367 . S
C687 C686 1.367 . S
C687 C689 1.433 . S
C688 C684 1.350 . S
C688 C685 1.463 . S
C688 N692 1.427 . S
C689 H679 0.929 . S
C689 C687 1.433 . S
C689 N692 1.384 . S
C690 H681 0.929 . S
C690 C682 1.378 . S
C690 C685 1.350 1_565 S
C691 H678 0.929 . S
C691 C683 1.433 . S
C691 N693 1.384 1_565 S
N692 C688 1.427 . S
N692 C689 1.384 . S
N693 C685 1.427 . S
N693 C691 1.384 1_545 S
H694 C700 0.930 . S
H695 C704 0.930 . S
H696 C709 0.929 . S
H697 C707 0.929 . S
H698 C702 0.929 . S
H699 C708 0.929 . S
C700 H694 0.930 . S
C700 C701 1.367 . S
C700 C708 1.378 1_655 S
C701 C700 1.367 . S
C701 C709 1.433 . S
C702 H698 0.929 . S
C702 C704 1.378 . S
C702 C706 1.350 . S
C703 C706 1.463 . S
C703 C708 1.350 . S
C703 N711 1.427 1_455 S
C704 H695 0.930 . S
C704 C702 1.378 . S
C704 C705 1.367 . S
C705 C704 1.367 . S
C705 C707 1.433 . S
C706 C702 1.350 . S
C706 C703 1.463 . S
C706 N710 1.427 . S
C707 H697 0.929 . S
C707 C705 1.433 . S
C707 N710 1.384 . S
C708 H699 0.929 . S
C708 C700 1.378 1_455 S
C708 C703 1.350 . S
C709 H696 0.929 . S
C709 C701 1.433 . S
C709 N711 1.384 . S
N710 C706 1.427 . S
N710 C707 1.384 . S
N711 C703 1.427 1_655 S
N711 C709 1.384 . S
H712 C718 0.930 . S
H713 C722 0.930 . S
H714 C727 0.929 . S
H715 C725 0.929 . S
H716 C720 0.929 . S
H717 C726 0.929 . S
C718 H712 0.930 . S
C718 C719 1.367 . S
C718 C726 1.378 . S
C719 C718 1.367 . S
C719 C727 1.433 . S
C720 H716 0.929 . S
C720 C722 1.378 . S
C720 C724 1.350 1_556 S
C721 C724 1.463 . S
C721 C726 1.350 . S
C721 N729 1.427 . S
C722 H713 0.930 . S
C722 C720 1.378 . S
C722 C723 1.367 . S
C723 C722 1.367 . S
C723 C725 1.433 1_556 S
C724 C720 1.350 1_554 S
C724 C721 1.463 . S
C724 N728 1.427 . S
C725 H715 0.929 . S
C725 C723 1.433 1_554 S
C725 N728 1.384 . S
C726 H717 0.929 . S
C726 C718 1.378 . S
C726 C721 1.350 . S
C727 H714 0.929 . S
C727 C719 1.433 . S
C727 N729 1.384 . S
N728 C724 1.427 . S
N728 C725 1.384 . S
N729 C721 1.427 . S
N729 C727 1.384 . S
H730 C736 0.930 . S
H731 C740 0.930 . S
H732 C745 0.929 . S
H733 C743 0.929 . S
H734 C738 0.929 . S
H735 C744 0.929 . S
C736 H730 0.930 . S
C736 C737 1.367 . S
C736 C744 1.378 . S
C737 C736 1.367 . S
C737 C745 1.433 1_554 S
C738 H734 0.929 . S
C738 C740 1.378 . S
C738 C742 1.350 . S
C739 C742 1.463 . S
C739 C744 1.350 1_556 S
C739 N747 1.427 . S
C740 H731 0.930 . S
C740 C738 1.378 . S
C740 C741 1.367 . S
C741 C740 1.367 . S
C741 C743 1.433 . S
C742 C738 1.350 . S
C742 C739 1.463 . S
C742 N746 1.427 . S
C743 H733 0.929 . S
C743 C741 1.433 . S
C743 N746 1.384 . S
C744 H735 0.929 . S
C744 C736 1.378 . S
C744 C739 1.350 1_554 S
C745 H732 0.929 . S
C745 C737 1.433 1_556 S
C745 N747 1.384 . S
N746 C742 1.427 . S
N746 C743 1.384 . S
N747 C739 1.427 . S
N747 C745 1.384 . S
H748 C754 0.930 . S
H749 C758 0.930 . S
H750 C763 0.929 . S
H751 C761 0.929 . S
H752 C756 0.929 . S
H753 C762 0.929 1_556 S
C754 H748 0.930 . S
C754 C755 1.367 . S
C754 C762 1.378 . S
C755 C754 1.367 . S
C755 C763 1.433 . S
C756 H752 0.929 . S
C756 C758 1.378 . S
C756 C760 1.350 . S
C757 C760 1.463 . S
C757 C762 1.350 . S
C757 N765 1.427 . S
C758 H749 0.930 . S
C758 C756 1.378 . S
C758 C759 1.367 1_554 S
C759 C758 1.367 1_556 S
C759 C761 1.433 . S
C760 C756 1.350 . S
C760 C757 1.463 . S
C760 N764 1.427 1_554 S
C761 H751 0.929 . S
C761 C759 1.433 . S
C761 N764 1.384 . S
C762 H753 0.929 1_554 S
C762 C754 1.378 . S
C762 C757 1.350 . S
C763 H750 0.929 . S
C763 C755 1.433 . S
C763 N765 1.384 . S
N764 C760 1.427 1_556 S
N764 C761 1.384 . S
N765 C757 1.427 . S
N765 C763 1.384 . S
H766 C772 0.930 . S
H767 C776 0.930 . S
H768 C781 0.929 . S
H769 C779 0.929 . S
H770 C774 0.929 . S
H771 C780 0.929 . S
C772 H766 0.930 . S
C772 C773 1.367 . S
C772 C780 1.378 . S
C773 C772 1.367 . S
C773 C781 1.433 . S
C774 H770 0.929 . S
C774 C776 1.378 . S
C774 C778 1.350 . S
C775 C778 1.463 . S
C775 C780 1.350 1_556 S
C775 N783 1.427 . S
C776 H767 0.930 . S
C776 C774 1.378 . S
C776 C777 1.367 . S
C777 C776 1.367 . S
C777 C779 1.433 . S
C778 C774 1.350 . S
C778 C775 1.463 . S
C778 N782 1.427 . S
C779 H769 0.929 . S
C779 C777 1.433 . S
C779 N782 1.384 . S
C780 H771 0.929 . S
C780 C772 1.378 . S
C780 C775 1.350 1_554 S
C781 H768 0.929 . S
C781 C773 1.433 . S
C781 N783 1.384 1_554 S
N782 C778 1.427 . S
N782 C779 1.384 . S
N783 C775 1.427 . S
N783 C781 1.384 1_556 S
H784 C790 0.930 . S
H785 C794 0.930 . S
H786 C799 0.929 . S
H787 C797 0.929 . S
H788 C792 0.929 . S
H789 C798 0.929 . S
C790 H784 0.930 . S
C790 C791 1.367 . S
C790 C798 1.378 . S
C791 C790 1.367 . S
C791 C799 1.433 . S
C792 H788 0.929 . S
C792 C794 1.378 . S
C792 C796 1.350 . S
C793 C796 1.463 . S
C793 C798 1.350 . S
C793 N801 1.427 . S
C794 H785 0.930 . S
C794 C792 1.378 . S
C794 C795 1.367 . S
C795 C794 1.367 . S
C795 C797 1.433 . S
C796 C792 1.350 . S
C796 C793 1.463 . S
C796 N800 1.427 . S
C797 H787 0.929 . S
C797 C795 1.433 . S
C797 N800 1.384 . S
C798 H789 0.929 . S
C798 C790 1.378 . S
C798 C793 1.350 . S
C799 H786 0.929 . S
C799 C791 1.433 . S
C799 N801 1.384 . S
N800 C796 1.427 . S
N800 C797 1.384 . S
N801 C793 1.427 . S
N801 C799 1.384 . S
H802 C808 0.930 . S
H803 C812 0.930 . S
H804 C817 0.929 . S
H805 C815 0.929 . S
H806 C810 0.929 . S
H807 C816 0.929 . S
C808 H802 0.930 . S
C808 C809 1.367 . S
C808 C816 1.378 . S
C809 C808 1.367 . S
C809 C817 1.433 . S
C810 H806 0.929 . S
C810 C812 1.378 . S
C810 C814 1.350 . S
C811 C814 1.463 . S
C811 C816 1.350 . S
C811 N819 1.427 . S
C812 H803 0.930 . S
C812 C810 1.378 . S
C812 C813 1.367 . S
C813 C812 1.367 . S
C813 C815 1.433 . S
C814 C810 1.350 . S
C814 C811 1.463 . S
C814 N818 1.427 . S
C815 H805 0.929 . S
C815 C813 1.433 . S
C815 N818 1.384 . S
C816 H807 0.929 . S
C816 C808 1.378 . S
C816 C811 1.350 . S
C817 H804 0.929 . S
C817 C809 1.433 . S
C817 N819 1.384 . S
N818 C814 1.427 . S
N818 C815 1.384 . S
N819 C811 1.427 . S
N819 C817 1.384 . S
H820 C826 0.930 . S
H821 C830 0.930 . S
H822 C835 0.929 . S
H823 C833 0.929 . S
H824 C828 0.929 . S
H825 C834 0.929 . S
C826 H820 0.930 . S
C826 C827 1.367 . S
C826 C834 1.378 . S
C827 C826 1.367 . S
C827 C835 1.433 . S
C828 H824 0.929 . S
C828 C830 1.378 . S
C828 C832 1.350 . S
C829 C832 1.463 . S
C829 C834 1.350 . S
C829 N837 1.427 . S
C830 H821 0.930 . S
C830 C828 1.378 . S
C830 C831 1.367 . S
C831 C830 1.367 . S
C831 C833 1.433 . S
C832 C828 1.350 . S
C832 C829 1.463 . S
C832 N836 1.427 . S
C833 H823 0.929 . S
C833 C831 1.433 . S
C833 N836 1.384 . S
C834 H825 0.929 . S
C834 C826 1.378 . S
C834 C829 1.350 . S
C835 H822 0.929 . S
C835 C827 1.433 . S
C835 N837 1.384 . S
N836 C832 1.427 . S
N836 C833 1.384 . S
N837 C829 1.427 . S
N837 C835 1.384 . S
H838 C844 0.930 . S
H839 C848 0.930 . S
H840 C853 0.929 . S
H841 C851 0.929 . S
H842 C846 0.929 . S
H843 C852 0.929 . S
C844 H838 0.930 . S
C844 C845 1.367 . S
C844 C852 1.378 . S
C845 C844 1.367 . S
C845 C853 1.433 . S
C846 H842 0.929 . S
C846 C848 1.378 . S
C846 C850 1.350 . S
C847 C850 1.463 . S
C847 C852 1.350 . S
C847 N855 1.427 . S
C848 H839 0.930 . S
C848 C846 1.378 . S
C848 C849 1.367 . S
C849 C848 1.367 . S
C849 C851 1.433 . S
C850 C846 1.350 . S
C850 C847 1.463 . S
C850 N854 1.427 . S
C851 H841 0.929 . S
C851 C849 1.433 . S
C851 N854 1.384 . S
C852 H843 0.929 . S
C852 C844 1.378 . S
C852 C847 1.350 . S
C853 H840 0.929 . S
C853 C845 1.433 . S
C853 N855 1.384 . S
N854 C850 1.427 . S
N854 C851 1.384 . S
N855 C847 1.427 . S
N855 C853 1.384 . S
H856 C862 0.930 . S
H857 C866 0.930 . S
H858 C871 0.929 . S
H859 C869 0.929 . S
H860 C864 0.929 . S
H861 C870 0.929 . S
C862 H856 0.930 . S
C862 C863 1.367 . S
C862 C870 1.378 1_565 S
C863 C862 1.367 . S
C863 C871 1.433 . S
C864 H860 0.929 . S
C864 C866 1.378 . S
C864 C868 1.350 . S
C865 C868 1.463 . S
C865 C870 1.350 . S
C865 N873 1.427 1_545 S
C866 H857 0.930 . S
C866 C864 1.378 . S
C866 C867 1.367 . S
C867 C866 1.367 . S
C867 C869 1.433 . S
C868 C864 1.350 . S
C868 C865 1.463 . S
C868 N872 1.427 . S
C869 H859 0.929 . S
C869 C867 1.433 . S
C869 N872 1.384 . S
C870 H861 0.929 . S
C870 C862 1.378 1_545 S
C870 C865 1.350 . S
C871 H858 0.929 . S
C871 C863 1.433 . S
C871 N873 1.384 . S
N872 C868 1.427 . S
N872 C869 1.384 . S
N873 C865 1.427 1_565 S
N873 C871 1.384 . S
H874 C880 0.930 . S
H875 C884 0.930 . S
H876 C889 0.929 . S
H877 C887 0.929 . S
H878 C882 0.929 . S
H879 C888 0.929 . S
C880 H874 0.930 . S
C880 C881 1.367 . S
C880 C888 1.378 . S
C881 C880 1.367 . S
C881 C889 1.433 . S
C882 H878 0.929 . S
C882 C884 1.378 1_455 S
C882 C886 1.350 . S
C883 C886 1.463 . S
C883 C888 1.350 . S
C883 N891 1.427 . S
C884 H875 0.930 . S
C884 C882 1.378 1_655 S
C884 C885 1.367 . S
C885 C884 1.367 . S
C885 C887 1.433 . S
C886 C882 1.350 . S
C886 C883 1.463 . S
C886 N890 1.427 1_455 S
C887 H877 0.929 . S
C887 C885 1.433 . S
C887 N890 1.384 . S
C888 H879 0.929 . S
C888 C880 1.378 . S
C888 C883 1.350 . S
C889 H876 0.929 . S
C889 C881 1.433 . S
C889 N891 1.384 . S
N890 C886 1.427 1_655 S
N890 C887 1.384 . S
N891 C883 1.427 . S
N891 C889 1.384 . S
H892 C898 0.930 . S
H893 C902 0.930 . S
H894 C907 0.929 . S
H895 C905 0.929 . S
H896 C900 0.934 . S
H897 C906 0.929 . S
C898 H892 0.930 . S
C898 C899 1.367 . S
C898 C906 1.378 . S
C899 C898 1.367 . S
C899 C907 1.433 . S
C900 H896 0.934 . S
C900 C902 1.378 . S
C900 C904 1.350 1_545 S
C901 C904 1.463 . S
C901 C906 1.350 . S
C901 N909 1.427 . S
C902 H893 0.930 . S
C902 C900 1.378 . S
C902 C903 1.367 . S
C903 C902 1.367 . S
C903 C905 1.433 . S
C904 C900 1.350 1_565 S
C904 C901 1.463 . S
C904 N908 1.427 . S
C905 H895 0.929 . S
C905 C903 1.433 . S
C905 N908 1.384 1_545 S
C906 H897 0.929 . S
C906 C898 1.378 . S
C906 C901 1.350 . S
C907 H894 0.929 . S
C907 C899 1.433 . S
C907 N909 1.384 . S
N908 C904 1.427 . S
N908 C905 1.384 1_565 S
N909 C901 1.427 . S
N909 C907 1.384 . S
H910 C916 0.930 . S
H911 C920 0.930 . S
H912 C925 0.929 . S
H913 C923 0.929 . S
H914 C918 0.929 . S
H915 C924 0.929 . S
C916 H910 0.930 . S
C916 C917 1.367 . S
C916 C924 1.378 . S
C917 C916 1.367 . S
C917 C925 1.433 . S
C918 H914 0.929 . S
C918 C920 1.378 . S
C918 C922 1.350 . S
C919 C922 1.463 . S
C919 C924 1.350 1_655 S
C919 N927 1.427 . S
C920 H911 0.930 . S
C920 C918 1.378 . S
C920 C921 1.367 . S
C921 C920 1.367 . S
C921 C923 1.433 . S
C922 C918 1.350 . S
C922 C919 1.463 . S
C922 N926 1.427 . S
C923 H913 0.929 . S
C923 C921 1.433 . S
C923 N926 1.384 . S
C924 H915 0.929 . S
C924 C916 1.378 . S
C924 C919 1.350 1_455 S
C925 H912 0.929 . S
C925 C917 1.433 . S
C925 N927 1.384 1_455 S
N926 C922 1.427 . S
N926 C923 1.384 . S
N927 C919 1.427 . S
N927 C925 1.384 1_655 S
H928 C934 0.930 . S
H929 C938 0.930 . S
H930 C943 0.929 . S
H931 C941 0.929 . S
H932 C936 0.929 . S
H933 C942 0.929 . S
C934 H928 0.930 . S
C934 C935 1.367 . S
C934 C942 1.378 . S
C935 C934 1.367 . S
C935 C943 1.433 . S
C936 H932 0.929 . S
C936 C938 1.378 . S
C936 C940 1.350 . S
C937 C940 1.463 . S
C937 C942 1.350 . S
C937 N945 1.427 . S
C938 H929 0.930 . S
C938 C936 1.378 . S
C938 C939 1.367 . S
C939 C938 1.367 . S
C939 C941 1.433 . S
C940 C936 1.350 . S
C940 C937 1.463 . S
C940 N944 1.427 . S
C941 H931 0.929 . S
C941 C939 1.433 . S
C941 N944 1.384 . S
C942 H933 0.929 . S
C942 C934 1.378 . S
C942 C937 1.350 . S
C943 H930 0.929 . S
C943 C935 1.433 . S
C943 N945 1.384 . S
N944 C940 1.427 . S
N944 C941 1.384 . S
N945 C937 1.427 . S
N945 C943 1.384 . S
H946 C952 0.930 . S
H947 C956 0.930 . S
H948 C961 0.929 . S
H949 C959 0.929 . S
H950 C954 0.929 . S
H951 C960 0.929 . S
C952 H946 0.930 . S
C952 C953 1.367 . S
C952 C960 1.378 . S
C953 C952 1.367 . S
C953 C961 1.433 . S
C954 H950 0.929 . S
C954 C956 1.378 . S
C954 C958 1.350 . S
C955 C958 1.463 . S
C955 C960 1.350 . S
C955 N963 1.427 . S
C956 H947 0.930 . S
C956 C954 1.378 . S
C956 C957 1.367 . S
C957 C956 1.367 . S
C957 C959 1.433 . S
C958 C954 1.350 . S
C958 C955 1.463 . S
C958 N962 1.427 . S
C959 H949 0.929 . S
C959 C957 1.433 . S
C959 N962 1.384 . S
C960 H951 0.929 . S
C960 C952 1.378 . S
C960 C955 1.350 . S
C961 H948 0.929 . S
C961 C953 1.433 . S
C961 N963 1.384 . S
N962 C958 1.427 . S
N962 C959 1.384 . S
N963 C955 1.427 . S
N963 C961 1.384 . S
H964 C970 0.930 . S
H965 C974 0.930 . S
H966 C979 0.929 . S
H967 C977 0.929 . S
H968 C972 0.929 . S
H969 C978 0.929 . S
C970 H964 0.930 . S
C970 C971 1.367 . S
C970 C978 1.378 . S
C971 C970 1.367 . S
C971 C979 1.433 . S
C972 H968 0.929 . S
C972 C974 1.378 . S
C972 C976 1.350 . S
C973 C976 1.463 . S
C973 C978 1.350 . S
C973 N981 1.427 . S
C974 H965 0.930 . S
C974 C972 1.378 . S
C974 C975 1.367 . S
C975 C974 1.367 . S
C975 C977 1.433 . S
C976 C972 1.350 . S
C976 C973 1.463 . S
C976 N980 1.427 . S
C977 H967 0.929 . S
C977 C975 1.433 . S
C977 N980 1.384 . S
C978 H969 0.929 . S
C978 C970 1.378 . S
C978 C973 1.350 . S
C979 H966 0.929 . S
C979 C971 1.433 . S
C979 N981 1.384 . S
N980 C976 1.427 . S
N980 C977 1.384 . S
N981 C973 1.427 . S
N981 C979 1.384 . S
H982 C988 0.930 . S
H983 C992 0.930 . S
H984 C997 0.929 . S
H985 C995 0.929 . S
H986 C990 0.929 . S
H987 C996 0.929 . S
C988 H982 0.930 . S
C988 C989 1.367 . S
C988 C996 1.378 . S
C989 C988 1.367 . S
C989 C997 1.433 . S
C990 H986 0.929 . S
C990 C992 1.378 . S
C990 C994 1.350 . S
C991 C994 1.463 . S
C991 C996 1.350 . S
C991 N999 1.427 . S
C992 H983 0.930 . S
C992 C990 1.378 . S
C992 C993 1.367 . S
C993 C992 1.367 . S
C993 C995 1.433 . S
C994 C990 1.350 . S
C994 C991 1.463 . S
C994 N998 1.427 . S
C995 H985 0.929 . S
C995 C993 1.433 . S
C995 N998 1.384 . S
C996 H987 0.929 . S
C996 C988 1.378 . S
C996 C991 1.350 . S
C997 H984 0.929 . S
C997 C989 1.433 . S
C997 N999 1.384 . S
N998 C994 1.427 . S
N998 C995 1.384 . S
N999 C991 1.427 . S
N999 C997 1.384 . S
H1000 C1006 0.930 . S
H1001 C1010 0.930 . S
H1002 C1015 0.929 . S
H1003 C1013 0.929 . S
H1004 C1008 0.929 . S
H1005 C1014 0.929 . S
C1006 H1000 0.930 . S
C1006 C1007 1.367 . S
C1006 C1014 1.378 . S
C1007 C1006 1.367 . S
C1007 C1015 1.433 . S
C1008 H1004 0.929 . S
C1008 C1010 1.378 . S
C1008 C1012 1.350 . S
C1009 C1012 1.463 . S
C1009 C1014 1.350 . S
C1009 N1017 1.427 . S
C1010 H1001 0.930 . S
C1010 C1008 1.378 . S
C1010 C1011 1.367 . S
C1011 C1010 1.367 . S
C1011 C1013 1.433 . S
C1012 C1008 1.350 . S
C1012 C1009 1.463 . S
C1012 N1016 1.427 . S
C1013 H1003 0.929 . S
C1013 C1011 1.433 . S
C1013 N1016 1.384 . S
C1014 H1005 0.929 . S
C1014 C1006 1.378 . S
C1014 C1009 1.350 . S
C1015 H1002 0.929 . S
C1015 C1007 1.433 . S
C1015 N1017 1.384 . S
N1016 C1012 1.427 . S
N1016 C1013 1.384 . S
N1017 C1009 1.427 . S
N1017 C1015 1.384 . S
H1018 C1024 0.930 . S
H1019 C1028 0.930 . S
H1020 C1033 0.929 . S
H1021 C1031 0.929 . S
H1022 C1026 0.929 . S
H1023 C1032 0.929 . S
C1024 H1018 0.930 . S
C1024 C1025 1.367 . S
C1024 C1032 1.378 . S
C1025 C1024 1.367 . S
C1025 C1033 1.433 . S
C1026 H1022 0.929 . S
C1026 C1028 1.378 . S
C1026 C1030 1.350 . S
C1027 C1030 1.463 . S
C1027 C1032 1.350 . S
C1027 N1035 1.427 . S
C1028 H1019 0.930 . S
C1028 C1026 1.378 . S
C1028 C1029 1.367 . S
C1029 C1028 1.367 . S
C1029 C1031 1.433 . S
C1030 C1026 1.350 . S
C1030 C1027 1.463 . S
C1030 N1034 1.427 . S
C1031 H1021 0.929 . S
C1031 C1029 1.433 . S
C1031 N1034 1.384 . S
C1032 H1023 0.929 . S
C1032 C1024 1.378 . S
C1032 C1027 1.350 . S
C1033 H1020 0.929 . S
C1033 C1025 1.433 . S
C1033 N1035 1.384 . S
N1034 C1030 1.427 . S
N1034 C1031 1.384 . S
N1035 C1027 1.427 . S
N1035 C1033 1.384 . S
H1036 C1042 0.930 . S
H1037 C1046 0.930 . S
H1038 C1051 0.929 . S
H1039 C1049 0.929 . S
H1040 C1044 0.929 . S
H1041 C1050 0.929 . S
C1042 H1036 0.930 . S
C1042 C1043 1.367 . S
C1042 C1050 1.378 . S
C1043 C1042 1.367 . S
C1043 C1051 1.433 . S
C1044 H1040 0.929 . S
C1044 C1046 1.378 . S
C1044 C1048 1.350 . S
C1045 C1048 1.463 . S
C1045 C1050 1.350 . S
C1045 N1053 1.427 . S
C1046 H1037 0.930 . S
C1046 C1044 1.378 . S
C1046 C1047 1.367 . S
C1047 C1046 1.367 . S
C1047 C1049 1.433 . S
C1048 C1044 1.350 . S
C1048 C1045 1.463 . S
C1048 N1052 1.427 . S
C1049 H1039 0.929 . S
C1049 C1047 1.433 . S
C1049 N1052 1.384 . S
C1050 H1041 0.929 . S
C1050 C1042 1.378 . S
C1050 C1045 1.350 . S
C1051 H1038 0.929 . S
C1051 C1043 1.433 . S
C1051 N1053 1.384 . S
N1052 C1048 1.427 . S
N1052 C1049 1.384 . S
N1053 C1045 1.427 . S
N1053 C1051 1.384 . S
H1054 C1060 0.930 . S
H1055 C1064 0.930 . S
H1056 C1069 0.929 . S
H1057 C1067 0.929 . S
H1058 C1062 0.929 . S
H1059 C1068 0.929 . S
C1060 H1054 0.930 . S
C1060 C1061 1.367 . S
C1060 C1068 1.378 . S
C1061 C1060 1.367 . S
C1061 C1069 1.433 . S
C1062 H1058 0.929 . S
C1062 C1064 1.378 . S
C1062 C1066 1.350 . S
C1063 C1066 1.463 . S
C1063 C1068 1.350 . S
C1063 N1071 1.427 . S
C1064 H1055 0.930 . S
C1064 C1062 1.378 . S
C1064 C1065 1.367 . S
C1065 C1064 1.367 . S
C1065 C1067 1.433 . S
C1066 C1062 1.350 . S
C1066 C1063 1.463 . S
C1066 N1070 1.427 . S
C1067 H1057 0.929 . S
C1067 C1065 1.433 . S
C1067 N1070 1.384 . S
C1068 H1059 0.929 . S
C1068 C1060 1.378 . S
C1068 C1063 1.350 . S
C1069 H1056 0.929 . S
C1069 C1061 1.433 . S
C1069 N1071 1.384 . S
N1070 C1066 1.427 . S
N1070 C1067 1.384 . S
N1071 C1063 1.427 . S
N1071 C1069 1.384 . S
H1072 C1078 0.930 . S
H1073 C1082 0.930 1_554 S
H1074 C1087 0.929 . S
H1075 C1085 0.929 . S
H1076 C1080 0.929 . S
H1077 C1086 0.929 . S
C1078 H1072 0.930 . S
C1078 C1079 1.367 . S
C1078 C1086 1.378 . S
C1079 C1078 1.367 . S
C1079 C1087 1.433 . S
C1080 H1076 0.929 . S
C1080 C1082 1.378 . S
C1080 C1084 1.350 . S
C1081 C1084 1.463 . S
C1081 C1086 1.350 . S
C1081 N1089 1.427 . S
C1082 H1073 0.930 1_556 S
C1082 C1080 1.378 . S
C1082 C1083 1.367 . S
C1083 C1082 1.367 . S
C1083 C1085 1.433 . S
C1084 C1080 1.350 . S
C1084 C1081 1.463 . S
C1084 N1088 1.427 . S
C1085 H1075 0.929 . S
C1085 C1083 1.433 . S
C1085 N1088 1.384 . S
C1086 H1077 0.929 . S
C1086 C1078 1.378 . S
C1086 C1081 1.350 . S
C1087 H1074 0.929 . S
C1087 C1079 1.433 . S
C1087 N1089 1.384 . S
N1088 C1084 1.427 . S
N1088 C1085 1.384 . S
N1089 C1081 1.427 . S
N1089 C1087 1.384 . S
H1090 C1096 0.930 . S
H1091 C1100 0.930 . S
H1092 C1105 0.929 . S
H1093 C1103 0.929 . S
H1094 C1098 0.929 . S
H1095 C1104 0.929 . S
C1096 H1090 0.930 . S
C1096 C1097 1.367 . S
C1096 C1104 1.378 . S
C1097 C1096 1.367 . S
C1097 C1105 1.433 . S
C1098 H1094 0.929 . S
C1098 C1100 1.378 . S
C1098 C1102 1.350 . S
C1099 C1102 1.463 . S
C1099 C1104 1.350 . S
C1099 N1107 1.427 . S
C1100 H1091 0.930 . S
C1100 C1098 1.378 . S
C1100 C1101 1.367 . S
C1101 C1100 1.367 . S
C1101 C1103 1.433 . S
C1102 C1098 1.350 . S
C1102 C1099 1.463 . S
C1102 N1106 1.427 . S
C1103 H1093 0.929 . S
C1103 C1101 1.433 . S
C1103 N1106 1.384 . S
C1104 H1095 0.929 . S
C1104 C1096 1.378 . S
C1104 C1099 1.350 . S
C1105 H1092 0.929 . S
C1105 C1097 1.433 . S
C1105 N1107 1.384 . S
N1106 C1102 1.427 . S
N1106 C1103 1.384 . S
N1107 C1099 1.427 . S
N1107 C1105 1.384 . S
H1108 C1114 0.930 . S
H1109 C1118 0.930 . S
H1110 C1123 0.929 . S
H1111 C1121 0.929 . S
H1112 C1116 0.929 . S
H1113 C1122 0.929 . S
C1114 H1108 0.930 . S
C1114 C1115 1.367 . S
C1114 C1122 1.378 . S
C1115 C1114 1.367 . S
C1115 C1123 1.433 . S
C1116 H1112 0.929 . S
C1116 C1118 1.378 . S
C1116 C1120 1.350 . S
C1117 C1120 1.463 . S
C1117 C1122 1.350 . S
C1117 N1125 1.427 . S
C1118 H1109 0.930 . S
C1118 C1116 1.378 . S
C1118 C1119 1.367 . S
C1119 C1118 1.367 . S
C1119 C1121 1.433 . S
C1120 C1116 1.350 . S
C1120 C1117 1.463 . S
C1120 N1124 1.427 . S
C1121 H1111 0.929 . S
C1121 C1119 1.433 . S
C1121 N1124 1.384 . S
C1122 H1113 0.929 . S
C1122 C1114 1.378 . S
C1122 C1117 1.350 . S
C1123 H1110 0.929 . S
C1123 C1115 1.433 . S
C1123 N1125 1.384 . S
N1124 C1120 1.427 . S
N1124 C1121 1.384 . S
N1125 C1117 1.427 . S
N1125 C1123 1.384 . S
H1126 C1132 0.930 1_556 S
H1127 C1136 0.930 . S
H1128 C1141 0.929 . S
H1129 C1139 0.929 . S
H1130 C1134 0.929 . S
H1131 C1140 0.929 . S
C1132 H1126 0.930 1_554 S
C1132 C1133 1.367 . S
C1132 C1140 1.378 . S
C1133 C1132 1.367 . S
C1133 C1141 1.433 . S
C1134 H1130 0.929 . S
C1134 C1136 1.378 . S
C1134 C1138 1.350 . S
C1135 C1138 1.463 . S
C1135 C1140 1.350 . S
C1135 N1143 1.427 . S
C1136 H1127 0.930 . S
C1136 C1134 1.378 . S
C1136 C1137 1.367 . S
C1137 C1136 1.367 . S
C1137 C1139 1.433 . S
C1138 C1134 1.350 . S
C1138 C1135 1.463 . S
C1138 N1142 1.427 . S
C1139 H1129 0.929 . S
C1139 C1137 1.433 . S
C1139 N1142 1.384 . S
C1140 H1131 0.929 . S
C1140 C1132 1.378 . S
C1140 C1135 1.350 . S
C1141 H1128 0.929 . S
C1141 C1133 1.433 . S
C1141 N1143 1.384 . S
N1142 C1138 1.427 . S
N1142 C1139 1.384 . S
N1143 C1135 1.427 . S
N1143 C1141 1.384 . S
H1144 C1150 0.930 . S
H1145 C1154 0.930 . S
H1146 C1159 0.929 . S
H1147 C1157 0.929 . S
H1148 C1152 0.929 . S
H1149 C1158 0.929 . S
C1150 H1144 0.930 . S
C1150 C1151 1.367 . S
C1150 C1158 1.378 . S
C1151 C1150 1.367 . S
C1151 C1159 1.433 . S
C1152 H1148 0.929 . S
C1152 C1154 1.378 . S
C1152 C1156 1.350 . S
C1153 C1156 1.463 . S
C1153 C1158 1.350 . S
C1153 N1161 1.427 . S
C1154 H1145 0.930 . S
C1154 C1152 1.378 . S
C1154 C1155 1.367 . S
C1155 C1154 1.367 . S
C1155 C1157 1.433 . S
C1156 C1152 1.350 . S
C1156 C1153 1.463 . S
C1156 N1160 1.427 . S
C1157 H1147 0.929 . S
C1157 C1155 1.433 . S
C1157 N1160 1.384 . S
C1158 H1149 0.929 . S
C1158 C1150 1.378 . S
C1158 C1153 1.350 . S
C1159 H1146 0.929 . S
C1159 C1151 1.433 . S
C1159 N1161 1.384 . S
N1160 C1156 1.427 . S
N1160 C1157 1.384 . S
N1161 C1153 1.427 . S
N1161 C1159 1.384 . S
H1162 C1168 0.930 . S
H1163 C1172 0.930 . S
H1164 C1177 0.929 . S
H1165 C1175 0.929 . S
H1166 C1170 0.929 . S
H1167 C1176 0.929 . S
C1168 H1162 0.930 . S
C1168 C1169 1.367 . S
C1168 C1176 1.378 . S
C1169 C1168 1.367 . S
C1169 C1177 1.433 . S
C1170 H1166 0.929 . S
C1170 C1172 1.378 . S
C1170 C1174 1.350 . S
C1171 C1174 1.463 . S
C1171 C1176 1.350 . S
C1171 N1179 1.427 . S
C1172 H1163 0.930 . S
C1172 C1170 1.378 . S
C1172 C1173 1.367 . S
C1173 C1172 1.367 . S
C1173 C1175 1.433 . S
C1174 C1170 1.350 . S
C1174 C1171 1.463 . S
C1174 N1178 1.427 . S
C1175 H1165 0.929 . S
C1175 C1173 1.433 . S
C1175 N1178 1.384 . S
C1176 H1167 0.929 . S
C1176 C1168 1.378 . S
C1176 C1171 1.350 . S
C1177 H1164 0.929 . S
C1177 C1169 1.433 . S
C1177 N1179 1.384 . S
N1178 C1174 1.427 . S
N1178 C1175 1.384 . S
N1179 C1171 1.427 . S
N1179 C1177 1.384 . S
H1180 C1186 0.930 . S
H1181 C1190 0.930 . S
H1182 C1195 0.929 . S
H1183 C1193 0.929 . S
H1184 C1188 0.929 . S
H1185 C1194 0.929 . S
C1186 H1180 0.930 . S
C1186 C1187 1.367 . S
C1186 C1194 1.378 . S
C1187 C1186 1.367 . S
C1187 C1195 1.433 . S
C1188 H1184 0.929 . S
C1188 C1190 1.378 . S
C1188 C1192 1.350 . S
C1189 C1192 1.463 . S
C1189 C1194 1.350 . S
C1189 N1197 1.427 . S
C1190 H1181 0.930 . S
C1190 C1188 1.378 . S
C1190 C1191 1.367 . S
C1191 C1190 1.367 . S
C1191 C1193 1.433 . S
C1192 C1188 1.350 . S
C1192 C1189 1.463 . S
C1192 N1196 1.427 . S
C1193 H1183 0.929 . S
C1193 C1191 1.433 . S
C1193 N1196 1.384 . S
C1194 H1185 0.929 . S
C1194 C1186 1.378 . S
C1194 C1189 1.350 . S
C1195 H1182 0.929 . S
C1195 C1187 1.433 . S
C1195 N1197 1.384 . S
N1196 C1192 1.427 . S
N1196 C1193 1.384 . S
N1197 C1189 1.427 . S
N1197 C1195 1.384 . S
H1198 C1204 0.930 . S
H1199 C1208 0.930 . S
H1200 C1213 0.929 . S
H1201 C1211 0.929 . S
H1202 C1206 0.929 . S
H1203 C1212 0.929 . S
C1204 H1198 0.930 . S
C1204 C1205 1.367 . S
C1204 C1212 1.378 . S
C1205 C1204 1.367 . S
C1205 C1213 1.433 . S
C1206 H1202 0.929 . S
C1206 C1208 1.378 . S
C1206 C1210 1.350 . S
C1207 C1210 1.463 . S
C1207 C1212 1.350 . S
C1207 N1215 1.427 . S
C1208 H1199 0.930 . S
C1208 C1206 1.378 . S
C1208 C1209 1.367 . S
C1209 C1208 1.367 . S
C1209 C1211 1.433 . S
C1210 C1206 1.350 . S
C1210 C1207 1.463 . S
C1210 N1214 1.427 . S
C1211 H1201 0.929 . S
C1211 C1209 1.433 . S
C1211 N1214 1.384 . S
C1212 H1203 0.929 . S
C1212 C1204 1.378 . S
C1212 C1207 1.350 . S
C1213 H1200 0.929 . S
C1213 C1205 1.433 . S
C1213 N1215 1.384 . S
N1214 C1210 1.427 . S
N1214 C1211 1.384 . S
N1215 C1207 1.427 . S
N1215 C1213 1.384 . S
H1216 C1222 0.930 . S
H1217 C1226 0.930 . S
H1218 C1231 0.929 . S
H1219 C1229 0.929 . S
H1220 C1224 0.929 . S
H1221 C1230 0.929 . S
C1222 H1216 0.930 . S
C1222 C1223 1.367 . S
C1222 C1230 1.378 . S
C1223 C1222 1.367 . S
C1223 C1231 1.433 . S
C1224 H1220 0.929 . S
C1224 C1226 1.378 . S
C1224 C1228 1.350 . S
C1225 C1228 1.463 . S
C1225 C1230 1.350 . S
C1225 N1233 1.427 . S
C1226 H1217 0.930 . S
C1226 C1224 1.378 . S
C1226 C1227 1.367 . S
C1227 C1226 1.367 . S
C1227 C1229 1.433 . S
C1228 C1224 1.350 . S
C1228 C1225 1.463 . S
C1228 N1232 1.427 . S
C1229 H1219 0.929 . S
C1229 C1227 1.433 . S
C1229 N1232 1.384 . S
C1230 H1221 0.929 . S
C1230 C1222 1.378 . S
C1230 C1225 1.350 . S
C1231 H1218 0.929 . S
C1231 C1223 1.433 . S
C1231 N1233 1.384 . S
N1232 C1228 1.427 . S
N1232 C1229 1.384 . S
N1233 C1225 1.427 . S
N1233 C1231 1.384 . S
H1234 C1240 0.930 . S
H1235 C1244 0.930 . S
H1236 C1249 0.929 . S
H1237 C1247 0.929 . S
H1238 C1242 0.929 . S
H1239 C1248 0.929 . S
C1240 H1234 0.930 . S
C1240 C1241 1.367 . S
C1240 C1248 1.378 . S
C1241 C1240 1.367 . S
C1241 C1249 1.433 . S
C1242 H1238 0.929 . S
C1242 C1244 1.378 . S
C1242 C1246 1.350 . S
C1243 C1246 1.463 . S
C1243 C1248 1.350 . S
C1243 N1251 1.427 . S
C1244 H1235 0.930 . S
C1244 C1242 1.378 . S
C1244 C1245 1.367 . S
C1245 C1244 1.367 . S
C1245 C1247 1.433 . S
C1246 C1242 1.350 . S
C1246 C1243 1.463 . S
C1246 N1250 1.427 . S
C1247 H1237 0.929 . S
C1247 C1245 1.433 . S
C1247 N1250 1.384 . S
C1248 H1239 0.929 . S
C1248 C1240 1.378 . S
C1248 C1243 1.350 . S
C1249 H1236 0.929 . S
C1249 C1241 1.433 . S
C1249 N1251 1.384 . S
N1250 C1246 1.427 . S
N1250 C1247 1.384 . S
N1251 C1243 1.427 . S
N1251 C1249 1.384 . S
H1252 C1258 0.930 . S
H1253 C1262 0.930 . S
H1254 C1267 0.929 . S
H1255 C1265 0.929 . S
H1256 C1260 0.929 . S
H1257 C1266 0.929 . S
C1258 H1252 0.930 . S
C1258 C1259 1.367 . S
C1258 C1266 1.378 . S
C1259 C1258 1.367 . S
C1259 C1267 1.433 . S
C1260 H1256 0.929 . S
C1260 C1262 1.378 . S
C1260 C1264 1.350 . S
C1261 C1264 1.463 . S
C1261 C1266 1.350 . S
C1261 N1269 1.427 . S
C1262 H1253 0.930 . S
C1262 C1260 1.378 . S
C1262 C1263 1.367 . S
C1263 C1262 1.367 . S
C1263 C1265 1.433 . S
C1264 C1260 1.350 . S
C1264 C1261 1.463 . S
C1264 N1268 1.427 . S
C1265 H1255 0.929 . S
C1265 C1263 1.433 . S
C1265 N1268 1.384 . S
C1266 H1257 0.929 . S
C1266 C1258 1.378 . S
C1266 C1261 1.350 . S
C1267 H1254 0.929 . S
C1267 C1259 1.433 . S
C1267 N1269 1.384 . S
N1268 C1264 1.427 . S
N1268 C1265 1.384 . S
N1269 C1261 1.427 . S
N1269 C1267 1.384 . S
H1270 C1276 0.930 . S
H1271 C1280 0.930 . S
H1272 C1285 0.929 . S
H1273 C1283 0.929 . S
H1274 C1278 0.929 . S
H1275 C1284 0.929 . S
C1276 H1270 0.930 . S
C1276 C1277 1.367 . S
C1276 C1284 1.378 . S
C1277 C1276 1.367 . S
C1277 C1285 1.433 . S
C1278 H1274 0.929 . S
C1278 C1280 1.378 . S
C1278 C1282 1.350 . S
C1279 C1282 1.463 . S
C1279 C1284 1.350 . S
C1279 N1287 1.427 . S
C1280 H1271 0.930 . S
C1280 C1278 1.378 . S
C1280 C1281 1.367 . S
C1281 C1280 1.367 . S
C1281 C1283 1.433 . S
C1282 C1278 1.350 . S
C1282 C1279 1.463 . S
C1282 N1286 1.427 . S
C1283 H1273 0.929 . S
C1283 C1281 1.433 . S
C1283 N1286 1.384 . S
C1284 H1275 0.929 . S
C1284 C1276 1.378 . S
C1284 C1279 1.350 . S
C1285 H1272 0.929 . S
C1285 C1277 1.433 . S
C1285 N1287 1.384 . S
N1286 C1282 1.427 . S
N1286 C1283 1.384 . S
N1287 C1279 1.427 . S
N1287 C1285 1.384 . S
H1288 C1294 0.930 . S
H1289 C1298 0.930 . S
H1290 C1303 0.929 . S
H1291 C1301 0.929 . S
H1292 C1296 0.929 . S
H1293 C1302 0.929 . S
C1294 H1288 0.930 . S
C1294 C1295 1.367 . S
C1294 C1302 1.378 . S
C1295 C1294 1.367 . S
C1295 C1303 1.433 . S
C1296 H1292 0.929 . S
C1296 C1298 1.378 . S
C1296 C1300 1.350 . S
C1297 C1300 1.463 . S
C1297 C1302 1.350 . S
C1297 N1305 1.427 . S
C1298 H1289 0.930 . S
C1298 C1296 1.378 . S
C1298 C1299 1.367 . S
C1299 C1298 1.367 . S
C1299 C1301 1.433 . S
C1300 C1296 1.350 . S
C1300 C1297 1.463 . S
C1300 N1304 1.427 . S
C1301 H1291 0.929 . S
C1301 C1299 1.433 . S
C1301 N1304 1.384 . S
C1302 H1293 0.929 . S
C1302 C1294 1.378 . S
C1302 C1297 1.350 . S
C1303 H1290 0.929 . S
C1303 C1295 1.433 . S
C1303 N1305 1.384 . S
N1304 C1300 1.427 . S
N1304 C1301 1.384 . S
N1305 C1297 1.427 . S
N1305 C1303 1.384 . S
H1306 C1312 0.930 . S
H1307 C1316 0.930 . S
H1308 C1321 0.929 . S
H1309 C1319 0.929 . S
H1310 C1314 0.929 . S
H1311 C1320 0.929 . S
C1312 H1306 0.930 . S
C1312 C1313 1.367 . S
C1312 C1320 1.378 . S
C1313 C1312 1.367 . S
C1313 C1321 1.433 . S
C1314 H1310 0.929 . S
C1314 C1316 1.378 . S
C1314 C1318 1.350 . S
C1315 C1318 1.463 . S
C1315 C1320 1.350 . S
C1315 N1323 1.427 . S
C1316 H1307 0.930 . S
C1316 C1314 1.378 . S
C1316 C1317 1.367 . S
C1317 C1316 1.367 . S
C1317 C1319 1.433 . S
C1318 C1314 1.350 . S
C1318 C1315 1.463 . S
C1318 N1322 1.427 . S
C1319 H1309 0.929 . S
C1319 C1317 1.433 . S
C1319 N1322 1.384 . S
C1320 H1311 0.929 . S
C1320 C1312 1.378 . S
C1320 C1315 1.350 . S
C1321 H1308 0.929 . S
C1321 C1313 1.433 . S
C1321 N1323 1.384 . S
N1322 C1318 1.427 . S
N1322 C1319 1.384 . S
N1323 C1315 1.427 . S
N1323 C1321 1.384 . S
H1324 C1330 0.930 . S
H1325 C1334 0.930 . S
H1326 C1339 0.929 . S
H1327 C1337 0.929 . S
H1328 C1332 0.929 . S
H1329 C1338 0.929 . S
C1330 H1324 0.930 . S
C1330 C1331 1.367 . S
C1330 C1338 1.378 . S
C1331 C1330 1.367 . S
C1331 C1339 1.433 . S
C1332 H1328 0.929 . S
C1332 C1334 1.378 . S
C1332 C1336 1.350 . S
C1333 C1336 1.463 . S
C1333 C1338 1.350 . S
C1333 N1341 1.427 . S
C1334 H1325 0.930 . S
C1334 C1332 1.378 . S
C1334 C1335 1.367 . S
C1335 C1334 1.367 . S
C1335 C1337 1.433 . S
C1336 C1332 1.350 . S
C1336 C1333 1.463 . S
C1336 N1340 1.427 . S
C1337 H1327 0.929 . S
C1337 C1335 1.433 . S
C1337 N1340 1.384 . S
C1338 H1329 0.929 . S
C1338 C1330 1.378 . S
C1338 C1333 1.350 . S
C1339 H1326 0.929 . S
C1339 C1331 1.433 . S
C1339 N1341 1.384 . S
N1340 C1336 1.427 . S
N1340 C1337 1.384 . S
N1341 C1333 1.427 . S
N1341 C1339 1.384 . S
H1342 C1348 0.930 . S
H1343 C1352 0.930 . S
H1344 C1357 0.929 . S
H1345 C1355 0.929 . S
H1346 C1350 0.929 . S
H1347 C1356 0.929 . S
C1348 H1342 0.930 . S
C1348 C1349 1.367 . S
C1348 C1356 1.378 . S
C1349 C1348 1.367 . S
C1349 C1357 1.433 . S
C1350 H1346 0.929 . S
C1350 C1352 1.378 . S
C1350 C1354 1.350 . S
C1351 C1354 1.463 . S
C1351 C1356 1.350 . S
C1351 N1359 1.427 . S
C1352 H1343 0.930 . S
C1352 C1350 1.378 . S
C1352 C1353 1.367 . S
C1353 C1352 1.367 . S
C1353 C1355 1.433 . S
C1354 C1350 1.350 . S
C1354 C1351 1.463 . S
C1354 N1358 1.427 . S
C1355 H1345 0.929 . S
C1355 C1353 1.433 . S
C1355 N1358 1.384 . S
C1356 H1347 0.929 . S
C1356 C1348 1.378 . S
C1356 C1351 1.350 . S
C1357 H1344 0.929 . S
C1357 C1349 1.433 . S
C1357 N1359 1.384 . S
N1358 C1354 1.427 . S
N1358 C1355 1.384 . S
N1359 C1351 1.427 . S
N1359 C1357 1.384 . S
H1360 C1366 0.930 1_556 S
H1361 C1370 0.930 . S
H1362 C1375 0.929 . S
H1363 C1373 0.929 . S
H1364 C1368 0.929 . S
H1365 C1374 0.929 . S
C1366 H1360 0.930 1_554 S
C1366 C1367 1.367 1_554 S
C1366 C1374 1.378 . S
C1367 C1366 1.367 1_556 S
C1367 C1375 1.433 1_556 S
C1368 H1364 0.929 . S
C1368 C1370 1.378 . S
C1368 C1372 1.350 . S
C1369 C1372 1.463 . S
C1369 C1374 1.350 . S
C1369 N1377 1.427 . S
C1370 H1361 0.930 . S
C1370 C1368 1.378 . S
C1370 C1371 1.367 . S
C1371 C1370 1.367 . S
C1371 C1373 1.433 . S
C1372 C1368 1.350 . S
C1372 C1369 1.463 . S
C1372 N1376 1.427 . S
C1373 H1363 0.929 . S
C1373 C1371 1.433 . S
C1373 N1376 1.384 . S
C1374 H1365 0.929 . S
C1374 C1366 1.378 . S
C1374 C1369 1.350 . S
C1375 H1362 0.929 . S
C1375 C1367 1.433 1_554 S
C1375 N1377 1.384 . S
N1376 C1372 1.427 . S
N1376 C1373 1.384 . S
N1377 C1369 1.427 . S
N1377 C1375 1.384 . S
H1378 C1384 0.930 . S
H1379 C1388 0.930 1_554 S
H1380 C1393 0.929 . S
H1381 C1391 0.929 . S
H1382 C1386 0.929 . S
H1383 C1392 0.929 . S
C1384 H1378 0.930 . S
C1384 C1385 1.367 . S
C1384 C1392 1.378 . S
C1385 C1384 1.367 . S
C1385 C1393 1.433 . S
C1386 H1382 0.929 . S
C1386 C1388 1.378 . S
C1386 C1390 1.350 . S
C1387 C1390 1.463 . S
C1387 C1392 1.350 . S
C1387 N1395 1.427 . S
C1388 H1379 0.930 1_556 S
C1388 C1386 1.378 . S
C1388 C1389 1.367 1_556 S
C1389 C1388 1.367 1_554 S
C1389 C1391 1.433 1_554 S
C1390 C1386 1.350 . S
C1390 C1387 1.463 . S
C1390 N1394 1.427 . S
C1391 H1381 0.929 . S
C1391 C1389 1.433 1_556 S
C1391 N1394 1.384 . S
C1392 H1383 0.929 . S
C1392 C1384 1.378 . S
C1392 C1387 1.350 . S
C1393 H1380 0.929 . S
C1393 C1385 1.433 . S
C1393 N1395 1.384 . S
N1394 C1390 1.427 . S
N1394 C1391 1.384 . S
N1395 C1387 1.427 . S
N1395 C1393 1.384 . S
H1396 C1402 0.930 . S
H1397 C1406 0.930 . S
H1398 C1411 0.929 . S
H1399 C1409 0.929 . S
H1400 C1404 0.929 . S
H1401 C1410 0.929 . S
C1402 H1396 0.930 . S
C1402 C1403 1.367 . S
C1402 C1410 1.378 . S
C1403 C1402 1.367 . S
C1403 C1411 1.433 . S
C1404 H1400 0.929 . S
C1404 C1406 1.378 . S
C1404 C1408 1.350 . S
C1405 C1408 1.463 . S
C1405 C1410 1.350 . S
C1405 N1413 1.427 . S
C1406 H1397 0.930 . S
C1406 C1404 1.378 . S
C1406 C1407 1.367 1_554 S
C1407 C1406 1.367 1_556 S
C1407 C1409 1.433 1_556 S
C1408 C1404 1.350 . S
C1408 C1405 1.463 . S
C1408 N1412 1.427 . S
C1409 H1399 0.929 . S
C1409 C1407 1.433 1_554 S
C1409 N1412 1.384 . S
C1410 H1401 0.929 . S
C1410 C1402 1.378 . S
C1410 C1405 1.350 . S
C1411 H1398 0.929 . S
C1411 C1403 1.433 . S
C1411 N1413 1.384 . S
N1412 C1408 1.427 . S
N1412 C1409 1.384 . S
N1413 C1405 1.427 . S
N1413 C1411 1.384 . S
H1414 C1420 0.920 1_554 S
H1415 C1424 0.930 . S
H1416 C1429 0.929 . S
H1417 C1427 0.929 . S
H1418 C1422 0.929 . S
H1419 C1428 0.929 . S
C1420 H1414 0.920 1_556 S
C1420 C1421 1.367 1_556 S
C1420 C1428 1.378 . S
C1421 C1420 1.367 1_554 S
C1421 C1429 1.433 1_554 S
C1422 H1418 0.929 . S
C1422 C1424 1.378 . S
C1422 C1426 1.350 . S
C1423 C1426 1.463 . S
C1423 C1428 1.350 . S
C1423 N1431 1.427 . S
C1424 H1415 0.930 . S
C1424 C1422 1.378 . S
C1424 C1425 1.367 . S
C1425 C1424 1.367 . S
C1425 C1427 1.433 . S
C1426 C1422 1.350 . S
C1426 C1423 1.463 . S
C1426 N1430 1.427 . S
C1427 H1417 0.929 . S
C1427 C1425 1.433 . S
C1427 N1430 1.384 . S
C1428 H1419 0.929 . S
C1428 C1420 1.378 . S
C1428 C1423 1.350 . S
C1429 H1416 0.929 . S
C1429 C1421 1.433 1_556 S
C1429 N1431 1.384 . S
N1430 C1426 1.427 . S
N1430 C1427 1.384 . S
N1431 C1423 1.427 . S
N1431 C1429 1.384 . S
H1432 C1438 0.930 . S
H1433 C1442 0.930 1_556 S
H1434 C1447 0.929 . S
H1435 C1445 0.929 . S
H1436 C1440 0.929 . S
H1437 C1446 0.929 . S
C1438 H1432 0.930 . S
C1438 C1439 1.367 . S
C1438 C1446 1.378 . S
C1439 C1438 1.367 . S
C1439 C1447 1.433 . S
C1440 H1436 0.929 . S
C1440 C1442 1.378 . S
C1440 C1444 1.350 . S
C1441 C1444 1.463 . S
C1441 C1446 1.350 . S
C1441 N1449 1.427 . S
C1442 H1433 0.930 1_554 S
C1442 C1440 1.378 . S
C1442 C1443 1.367 1_554 S
C1443 C1442 1.367 1_556 S
C1443 C1445 1.433 1_556 S
C1444 C1440 1.350 . S
C1444 C1441 1.463 . S
C1444 N1448 1.427 . S
C1445 H1435 0.929 . S
C1445 C1443 1.433 1_554 S
C1445 N1448 1.384 . S
C1446 H1437 0.929 . S
C1446 C1438 1.378 . S
C1446 C1441 1.350 . S
C1447 H1434 0.929 . S
C1447 C1439 1.433 . S
C1447 N1449 1.384 . S
N1448 C1444 1.427 . S
N1448 C1445 1.384 . S
N1449 C1441 1.427 . S
N1449 C1447 1.384 . S
H1450 C1456 0.935 . S
H1451 C1460 0.930 . S
H1452 C1465 0.929 1_554 S
H1453 C1463 0.929 . S
H1454 C1458 0.929 . S
H1455 C1464 0.929 . S
C1456 H1450 0.935 . S
C1456 C1457 1.367 1_556 S
C1456 C1464 1.378 . S
C1457 C1456 1.367 1_554 S
C1457 C1465 1.433 1_554 S
C1458 H1454 0.929 . S
C1458 C1460 1.378 . S
C1458 C1462 1.350 . S
C1459 C1462 1.463 . S
C1459 C1464 1.350 . S
C1459 N1467 1.427 . S
C1460 H1451 0.930 . S
C1460 C1458 1.378 . S
C1460 C1461 1.367 . S
C1461 C1460 1.367 . S
C1461 C1463 1.433 . S
C1462 C1458 1.350 . S
C1462 C1459 1.463 . S
C1462 N1466 1.427 . S
C1463 H1453 0.929 . S
C1463 C1461 1.433 . S
C1463 N1466 1.384 . S
C1464 H1455 0.929 . S
C1464 C1456 1.378 . S
C1464 C1459 1.350 . S
C1465 H1452 0.929 1_556 S
C1465 C1457 1.433 1_556 S
C1465 N1467 1.384 . S
N1466 C1462 1.427 . S
N1466 C1463 1.384 . S
N1467 C1459 1.427 . S
N1467 C1465 1.384 . S
H1468 C1474 0.930 1_556 S
H1469 C1478 0.930 . S
H1470 C1483 0.935 . S
H1471 C1481 0.929 . S
H1472 C1476 0.929 . S
H1473 C1482 0.929 . S
C1474 H1468 0.930 1_554 S
C1474 C1475 1.367 1_554 S
C1474 C1482 1.378 . S
C1475 C1474 1.367 1_556 S
C1475 C1483 1.433 1_556 S
C1476 H1472 0.929 . S
C1476 C1478 1.378 . S
C1476 C1480 1.350 . S
C1477 C1480 1.463 . S
C1477 C1482 1.350 . S
C1477 N1485 1.427 . S
C1478 H1469 0.930 . S
C1478 C1476 1.378 . S
C1478 C1479 1.367 . S
C1479 C1478 1.367 . S
C1479 C1481 1.433 . S
C1480 C1476 1.350 . S
C1480 C1477 1.463 . S
C1480 N1484 1.427 . S
C1481 H1471 0.929 . S
C1481 C1479 1.433 . S
C1481 N1484 1.384 . S
C1482 H1473 0.929 . S
C1482 C1474 1.378 . S
C1482 C1477 1.350 . S
C1483 H1470 0.935 . S
C1483 C1475 1.433 1_554 S
C1483 N1485 1.384 . S
N1484 C1480 1.427 . S
N1484 C1481 1.384 . S
N1485 C1477 1.427 . S
N1485 C1483 1.384 . S
H1486 C1492 0.930 . S
H1487 C1496 0.930 . S
H1488 C1501 0.929 . S
H1489 C1499 0.929 1_554 S
H1490 C1494 0.929 . S
H1491 C1500 0.929 . S
C1492 H1486 0.930 . S
C1492 C1493 1.367 . S
C1492 C1500 1.378 . S
C1493 C1492 1.367 . S
C1493 C1501 1.433 . S
C1494 H1490 0.929 . S
C1494 C1496 1.378 . S
C1494 C1498 1.350 . S
C1495 C1498 1.463 . S
C1495 C1500 1.350 . S
C1495 N1503 1.427 . S
C1496 H1487 0.930 . S
C1496 C1494 1.378 . S
C1496 C1497 1.367 1_556 S
C1497 C1496 1.367 1_554 S
C1497 C1499 1.433 1_554 S
C1498 C1494 1.350 . S
C1498 C1495 1.463 . S
C1498 N1502 1.427 . S
C1499 H1489 0.929 1_556 S
C1499 C1497 1.433 1_556 S
C1499 N1502 1.384 . S
C1500 H1491 0.929 . S
C1500 C1492 1.378 . S
C1500 C1495 1.350 . S
C1501 H1488 0.929 . S
C1501 C1493 1.433 . S
C1501 N1503 1.384 . S
N1502 C1498 1.427 . S
N1502 C1499 1.384 . S
N1503 C1495 1.427 . S
N1503 C1501 1.384 . S
C647 C451 1.716 . S
C651 C19 1.718 . S
C665 C322 1.722 . S
C669 C50 1.724 . S
C683 C99 1.723 . S
C687 C371 1.723 . S
C701 C130 1.723 . S
C705 C402 1.720 . S
C719 C179 1.717 . S
C723 C211 1.715 . S
C737 C242 1.716 . S
C741 C210 1.718 . S
C755 C259 1.723 . S
C759 C291 1.723 . S
C773 C162 1.720 . S
C777 C290 1.723 . S
C791 C131 1.715 . S
C795 C339 1.717 . S
C809 C370 1.717 . S
C813 C2 1.715 . S
C827 C51 1.721 . S
C831 C419 1.720 . S
C845 C82 1.717 . S
C849 C450 1.716 . S
C863 C499 1.716 . S
C867 C531 1.714 . S
C881 C562 1.720 . S
C885 C530 1.722 . S
C899 C611 1.717 . S
C903 C579 1.716 . S
C917 C610 1.721 . S
C921 C482 1.722 . S
C935 C10 1.168 . S
C939 C170 1.171 . S
C953 C219 1.172 . S
C957 C59 1.177 . S
C971 C90 1.179 . S
C975 C250 1.185 . S
C989 C139 1.188 . S
C993 C299 1.184 . S
C1007 C330 1.184 . S
C1011 C490 1.189 . S
C1025 C539 1.168 . S
C1029 C379 1.169 . S
C1043 C410 1.169 . S
C1047 C570 1.168 . S
C1061 C459 1.186 . S
C1065 C619 1.190 . S
C1079 C571 2.297 . S
C1083 C11 2.298 1_556 S
C1097 C42 2.295 1_554 S
C1101 C602 2.296 . S
C1115 C91 2.294 1_556 S
C1119 C491 2.293 . S
C1133 C122 2.296 1_554 S
C1137 C522 2.297 . S
C1151 C171 2.293 . S
C1155 C411 2.292 . S
C1169 C202 2.298 . S
C1173 C442 2.298 . S
C1187 C251 2.293 . S
C1191 C331 2.294 . S
C1205 C362 2.298 . S
C1209 C282 2.298 . S
C1223 C7 1.081 . S
C1227 C16 1.081 . S
C1241 C56 1.080 . S
C1245 C47 1.080 . S
C1259 C87 1.080 . S
C1263 C96 1.080 . S
C1277 C127 1.080 . S
C1281 C136 1.080 . S
C1295 C176 1.080 . S
C1299 C167 1.080 . S
C1313 C216 1.082 . S
C1317 C207 1.082 . S
C1331 C247 1.080 . S
C1335 C256 1.080 . S
C1349 C287 1.084 . S
C1353 C296 1.084 . S
C1367 C327 1.080 . S
C1371 C336 1.080 . S
C1385 C367 1.079 . S
C1389 C376 1.079 . S
C1403 C416 1.082 . S
C1407 C407 1.082 . S
C1421 C456 1.082 . S
C1425 C447 1.082 . S
C1439 C487 1.080 . S
C1443 C496 1.080 . S
C1457 C527 1.082 . S
C1461 C536 1.082 . S
C1475 C576 1.081 . S
C1479 C567 1.081 . S
C1493 C616 1.086 . S
C1497 C607 1.086 . S
