# Generated by pormake.
# Topology som, (6)-cn, num edge types: 1
# Building blocks:
#     Node 0, Type 0, BuildingBlock: BETFEN_clean_sbu_0, # of connection points: 6
#     Node 1, Type 0, BuildingBlock: BETFEN_clean_sbu_0, # of connection points: 6
#     Node 2, Type 0, BuildingBlock: BETFEN_clean_sbu_0, # of connection points: 6
#     Node 3, Type 0, BuildingBlock: BETFEN_clean_sbu_0, # of connection points: 6
#     Node 4, Type 0, BuildingBlock: BETFEN_clean_sbu_0, # of connection points: 6
#     Node 5, Type 0, BuildingBlock: BETFEN_clean_sbu_0, # of connection points: 6
#     Node 6, Type 0, BuildingBlock: BETFEN_clean_sbu_0, # of connection points: 6
#     Node 7, Type 0, BuildingBlock: BETFEN_clean_sbu_0, # of connection points: 6
#     Node 8, Type 0, BuildingBlock: BETFEN_clean_sbu_0, # of connection points: 6
#     Node 9, Type 0, BuildingBlock: BETFEN_clean_sbu_0, # of connection points: 6
#     Node 10, Type 0, BuildingBlock: BETFEN_clean_sbu_0, # of connection points: 6
#     Node 11, Type 0, BuildingBlock: BETFEN_clean_sbu_0, # of connection points: 6
#     Node 12, Type 0, BuildingBlock: BETFEN_clean_sbu_0, # of connection points: 6
#     Node 13, Type 0, BuildingBlock: BETFEN_clean_sbu_0, # of connection points: 6
#     Node 14, Type 0, BuildingBlock: BETFEN_clean_sbu_0, # of connection points: 6
#     Node 15, Type 0, BuildingBlock: BETFEN_clean_sbu_0, # of connection points: 6
#     Node 16, Type 0, BuildingBlock: BETFEN_clean_sbu_0, # of connection points: 6
#     Node 17, Type 0, BuildingBlock: BETFEN_clean_sbu_0, # of connection points: 6
#     Node 18, Type 0, BuildingBlock: BETFEN_clean_sbu_0, # of connection points: 6
#     Node 19, Type 0, BuildingBlock: BETFEN_clean_sbu_0, # of connection points: 6
#     Node 20, Type 0, BuildingBlock: BETFEN_clean_sbu_0, # of connection points: 6
#     Node 21, Type 0, BuildingBlock: BETFEN_clean_sbu_0, # of connection points: 6
#     Node 22, Type 0, BuildingBlock: BETFEN_clean_sbu_0, # of connection points: 6
#     Node 23, Type 0, BuildingBlock: BETFEN_clean_sbu_0, # of connection points: 6
#     Node 24, Type 0, BuildingBlock: BETFEN_clean_sbu_0, # of connection points: 6
#     Node 25, Type 0, BuildingBlock: BETFEN_clean_sbu_0, # of connection points: 6
#     Node 26, Type 0, BuildingBlock: BETFEN_clean_sbu_0, # of connection points: 6
#     Node 27, Type 0, BuildingBlock: BETFEN_clean_sbu_0, # of connection points: 6
#     Node 28, Type 0, BuildingBlock: BETFEN_clean_sbu_0, # of connection points: 6
#     Node 29, Type 0, BuildingBlock: BETFEN_clean_sbu_0, # of connection points: 6
#     Node 30, Type 0, BuildingBlock: BETFEN_clean_sbu_0, # of connection points: 6
#     Node 31, Type 0, BuildingBlock: BETFEN_clean_sbu_0, # of connection points: 6
#     Edge 32, Type (0, 0), BuildingBlock: UVAHIK_clean_linker_0, # of connection points: 2
#     Edge 33, Type (0, 0), BuildingBlock: UVAHIK_clean_linker_0, # of connection points: 2
#     Edge 34, Type (0, 0), BuildingBlock: UVAHIK_clean_linker_0, # of connection points: 2
#     Edge 35, Type (0, 0), BuildingBlock: UVAHIK_clean_linker_0, # of connection points: 2
#     Edge 36, Type (0, 0), BuildingBlock: UVAHIK_clean_linker_0, # of connection points: 2
#     Edge 37, Type (0, 0), BuildingBlock: UVAHIK_clean_linker_0, # of connection points: 2
#     Edge 38, Type (0, 0), BuildingBlock: UVAHIK_clean_linker_0, # of connection points: 2
#     Edge 39, Type (0, 0), BuildingBlock: UVAHIK_clean_linker_0, # of connection points: 2
#     Edge 40, Type (0, 0), BuildingBlock: UVAHIK_clean_linker_0, # of connection points: 2
#     Edge 41, Type (0, 0), BuildingBlock: UVAHIK_clean_linker_0, # of connection points: 2
#     Edge 42, Type (0, 0), BuildingBlock: UVAHIK_clean_linker_0, # of connection points: 2
#     Edge 43, Type (0, 0), BuildingBlock: UVAHIK_clean_linker_0, # of connection points: 2
#     Edge 44, Type (0, 0), BuildingBlock: UVAHIK_clean_linker_0, # of connection points: 2
#     Edge 45, Type (0, 0), BuildingBlock: UVAHIK_clean_linker_0, # of connection points: 2
#     Edge 46, Type (0, 0), BuildingBlock: UVAHIK_clean_linker_0, # of connection points: 2
#     Edge 47, Type (0, 0), BuildingBlock: UVAHIK_clean_linker_0, # of connection points: 2
#     Edge 48, Type (0, 0), BuildingBlock: UVAHIK_clean_linker_0, # of connection points: 2
#     Edge 49, Type (0, 0), BuildingBlock: UVAHIK_clean_linker_0, # of connection points: 2
#     Edge 50, Type (0, 0), BuildingBlock: UVAHIK_clean_linker_0, # of connection points: 2
#     Edge 51, Type (0, 0), BuildingBlock: UVAHIK_clean_linker_0, # of connection points: 2
#     Edge 52, Type (0, 0), BuildingBlock: UVAHIK_clean_linker_0, # of connection points: 2
#     Edge 53, Type (0, 0), BuildingBlock: UVAHIK_clean_linker_0, # of connection points: 2
#     Edge 54, Type (0, 0), BuildingBlock: UVAHIK_clean_linker_0, # of connection points: 2
#     Edge 55, Type (0, 0), BuildingBlock: UVAHIK_clean_linker_0, # of connection points: 2
#     Edge 56, Type (0, 0), BuildingBlock: UVAHIK_clean_linker_0, # of connection points: 2
#     Edge 57, Type (0, 0), BuildingBlock: UVAHIK_clean_linker_0, # of connection points: 2
#     Edge 58, Type (0, 0), BuildingBlock: UVAHIK_clean_linker_0, # of connection points: 2
#     Edge 59, Type (0, 0), BuildingBlock: UVAHIK_clean_linker_0, # of connection points: 2
#     Edge 60, Type (0, 0), BuildingBlock: UVAHIK_clean_linker_0, # of connection points: 2
#     Edge 61, Type (0, 0), BuildingBlock: UVAHIK_clean_linker_0, # of connection points: 2
#     Edge 62, Type (0, 0), BuildingBlock: UVAHIK_clean_linker_0, # of connection points: 2
#     Edge 63, Type (0, 0), BuildingBlock: UVAHIK_clean_linker_0, # of connection points: 2
#     Edge 64, Type (0, 0), BuildingBlock: UVAHIK_clean_linker_0, # of connection points: 2
#     Edge 65, Type (0, 0), BuildingBlock: UVAHIK_clean_linker_0, # of connection points: 2
#     Edge 66, Type (0, 0), BuildingBlock: UVAHIK_clean_linker_0, # of connection points: 2
#     Edge 67, Type (0, 0), BuildingBlock: UVAHIK_clean_linker_0, # of connection points: 2
#     Edge 68, Type (0, 0), BuildingBlock: UVAHIK_clean_linker_0, # of connection points: 2
#     Edge 69, Type (0, 0), BuildingBlock: UVAHIK_clean_linker_0, # of connection points: 2
#     Edge 70, Type (0, 0), BuildingBlock: UVAHIK_clean_linker_0, # of connection points: 2
#     Edge 71, Type (0, 0), BuildingBlock: UVAHIK_clean_linker_0, # of connection points: 2
#     Edge 72, Type (0, 0), BuildingBlock: UVAHIK_clean_linker_0, # of connection points: 2
#     Edge 73, Type (0, 0), BuildingBlock: UVAHIK_clean_linker_0, # of connection points: 2
#     Edge 74, Type (0, 0), BuildingBlock: UVAHIK_clean_linker_0, # of connection points: 2
#     Edge 75, Type (0, 0), BuildingBlock: UVAHIK_clean_linker_0, # of connection points: 2
#     Edge 76, Type (0, 0), BuildingBlock: UVAHIK_clean_linker_0, # of connection points: 2
#     Edge 77, Type (0, 0), BuildingBlock: UVAHIK_clean_linker_0, # of connection points: 2
#     Edge 78, Type (0, 0), BuildingBlock: UVAHIK_clean_linker_0, # of connection points: 2
#     Edge 79, Type (0, 0), BuildingBlock: UVAHIK_clean_linker_0, # of connection points: 2
#     Edge 80, Type (0, 0), BuildingBlock: UVAHIK_clean_linker_0, # of connection points: 2
#     Edge 81, Type (0, 0), BuildingBlock: UVAHIK_clean_linker_0, # of connection points: 2
#     Edge 82, Type (0, 0), BuildingBlock: UVAHIK_clean_linker_0, # of connection points: 2
#     Edge 83, Type (0, 0), BuildingBlock: UVAHIK_clean_linker_0, # of connection points: 2
#     Edge 84, Type (0, 0), BuildingBlock: UVAHIK_clean_linker_0, # of connection points: 2
#     Edge 85, Type (0, 0), BuildingBlock: UVAHIK_clean_linker_0, # of connection points: 2
#     Edge 86, Type (0, 0), BuildingBlock: UVAHIK_clean_linker_0, # of connection points: 2
#     Edge 87, Type (0, 0), BuildingBlock: UVAHIK_clean_linker_0, # of connection points: 2
#     Edge 88, Type (0, 0), BuildingBlock: UVAHIK_clean_linker_0, # of connection points: 2
#     Edge 89, Type (0, 0), BuildingBlock: UVAHIK_clean_linker_0, # of connection points: 2
#     Edge 90, Type (0, 0), BuildingBlock: UVAHIK_clean_linker_0, # of connection points: 2
#     Edge 91, Type (0, 0), BuildingBlock: UVAHIK_clean_linker_0, # of connection points: 2
#     Edge 92, Type (0, 0), BuildingBlock: UVAHIK_clean_linker_0, # of connection points: 2
#     Edge 93, Type (0, 0), BuildingBlock: UVAHIK_clean_linker_0, # of connection points: 2
#     Edge 94, Type (0, 0), BuildingBlock: UVAHIK_clean_linker_0, # of connection points: 2
#     Edge 95, Type (0, 0), BuildingBlock: UVAHIK_clean_linker_0, # of connection points: 2
#     Edge 96, Type (0, 0), BuildingBlock: UVAHIK_clean_linker_0, # of connection points: 2
#     Edge 97, Type (0, 0), BuildingBlock: UVAHIK_clean_linker_0, # of connection points: 2
#     Edge 98, Type (0, 0), BuildingBlock: UVAHIK_clean_linker_0, # of connection points: 2
#     Edge 99, Type (0, 0), BuildingBlock: UVAHIK_clean_linker_0, # of connection points: 2
#     Edge 100, Type (0, 0), BuildingBlock: UVAHIK_clean_linker_0, # of connection points: 2
#     Edge 101, Type (0, 0), BuildingBlock: UVAHIK_clean_linker_0, # of connection points: 2
#     Edge 102, Type (0, 0), BuildingBlock: UVAHIK_clean_linker_0, # of connection points: 2
#     Edge 103, Type (0, 0), BuildingBlock: UVAHIK_clean_linker_0, # of connection points: 2
#     Edge 104, Type (0, 0), BuildingBlock: UVAHIK_clean_linker_0, # of connection points: 2
#     Edge 105, Type (0, 0), BuildingBlock: UVAHIK_clean_linker_0, # of connection points: 2
#     Edge 106, Type (0, 0), BuildingBlock: UVAHIK_clean_linker_0, # of connection points: 2
#     Edge 107, Type (0, 0), BuildingBlock: UVAHIK_clean_linker_0, # of connection points: 2
#     Edge 108, Type (0, 0), BuildingBlock: UVAHIK_clean_linker_0, # of connection points: 2
#     Edge 109, Type (0, 0), BuildingBlock: UVAHIK_clean_linker_0, # of connection points: 2
#     Edge 110, Type (0, 0), BuildingBlock: UVAHIK_clean_linker_0, # of connection points: 2
#     Edge 111, Type (0, 0), BuildingBlock: UVAHIK_clean_linker_0, # of connection points: 2
#     Edge 112, Type (0, 0), BuildingBlock: UVAHIK_clean_linker_0, # of connection points: 2
#     Edge 113, Type (0, 0), BuildingBlock: UVAHIK_clean_linker_0, # of connection points: 2
#     Edge 114, Type (0, 0), BuildingBlock: UVAHIK_clean_linker_0, # of connection points: 2
#     Edge 115, Type (0, 0), BuildingBlock: UVAHIK_clean_linker_0, # of connection points: 2
#     Edge 116, Type (0, 0), BuildingBlock: UVAHIK_clean_linker_0, # of connection points: 2
#     Edge 117, Type (0, 0), BuildingBlock: UVAHIK_clean_linker_0, # of connection points: 2
#     Edge 118, Type (0, 0), BuildingBlock: UVAHIK_clean_linker_0, # of connection points: 2
#     Edge 119, Type (0, 0), BuildingBlock: UVAHIK_clean_linker_0, # of connection points: 2
#     Edge 120, Type (0, 0), BuildingBlock: UVAHIK_clean_linker_0, # of connection points: 2
#     Edge 121, Type (0, 0), BuildingBlock: UVAHIK_clean_linker_0, # of connection points: 2
#     Edge 122, Type (0, 0), BuildingBlock: UVAHIK_clean_linker_0, # of connection points: 2
#     Edge 123, Type (0, 0), BuildingBlock: UVAHIK_clean_linker_0, # of connection points: 2
#     Edge 124, Type (0, 0), BuildingBlock: UVAHIK_clean_linker_0, # of connection points: 2
#     Edge 125, Type (0, 0), BuildingBlock: UVAHIK_clean_linker_0, # of connection points: 2
#     Edge 126, Type (0, 0), BuildingBlock: UVAHIK_clean_linker_0, # of connection points: 2
#     Edge 127, Type (0, 0), BuildingBlock: UVAHIK_clean_linker_0, # of connection points: 2
# Relax obj value: 0.068
# Max RMSD: 0.129
# Mean RMSD: 0.129
data_MOF--net-som--node1-BETFEN_clean_sbu_0--edge1-UVAHIK_clean_linker_0
_symmetry_space_group_name_H-M    P1
_symmetry_Int_Tables_number       1
_symmetry_cell_setting            triclinic
loop_
_symmetry_equiv_pos_as_xyz
'x, y, z'
_cell_length_a     30.785987
_cell_length_b     73.438661
_cell_length_c     147.91813
_cell_angle_alpha  89.987397
_cell_angle_beta   90.018118
_cell_angle_gamma 89.950978
loop_
_atom_site_label
_atom_site_type_symbol
_atom_site_fract_x
_atom_site_fract_y
_atom_site_fract_z
_atom_type_partial_charge
Pr0 Pr 0.9886 0.49608 0.07349 0.0
Pr1 Pr 0.07932 0.47904 0.07436 0.0
C2 C 0.90561 0.50572 0.06991 0.0
C3 C 0.85922 0.50076 0.07099 0.0
C4 C 0.83903 0.50029 0.07952 0.0
C5 C 0.79422 0.49723 0.08024 0.0
C6 C 0.76859 0.49456 0.07246 0.0
C7 C 0.78913 0.49465 0.06396 0.0
C8 C 0.83383 0.49775 0.06325 0.0
C9 C 0.02723 0.49629 0.09063 0.0
C10 C 0.99719 0.45169 0.07708 0.0
C11 C 0.16217 0.46986 0.07838 0.0
C12 C 0.20865 0.47463 0.07729 0.0
C13 C 0.22891 0.47485 0.06877 0.0
C14 C 0.27379 0.47775 0.06805 0.0
C15 C 0.29939 0.48049 0.07583 0.0
C16 C 0.27877 0.48064 0.08432 0.0
C17 C 0.234 0.47771 0.08503 0.0
C18 C 0.04344 0.47942 0.05696 0.0
C19 C 0.06803 0.52379 0.07074 0.0
O20 O 0.92921 0.49589 0.0644 0.0
O21 O 0.92708 0.51142 0.07701 0.0
O22 O 0.0274 0.48309 0.08519 0.0
O23 O 1.00514 0.50994 0.08744 0.0
O24 O 0.03868 0.4539 0.07903 0.0
O25 O 0.97334 0.46505 0.07382 0.0
O26 O 0.13832 0.4803 0.08355 0.0
O27 O 0.1411 0.46341 0.0714 0.0
O28 O 0.04132 0.49235 0.06257 0.0
O29 O 0.0661 0.46596 0.06017 0.0
O30 O 0.02757 0.52065 0.06839 0.0
O31 O 0.09316 0.51075 0.07404 0.0
H32 H 0.85766 0.50258 0.08562 0.0
H33 H 0.77959 0.49703 0.0869 0.0
H34 H 0.77045 0.4929 0.05782 0.0
H35 H 0.84842 0.49825 0.05659 0.0
H36 H 0.21028 0.47251 0.06267 0.0
H37 H 0.28847 0.47778 0.0614 0.0
H38 H 0.29742 0.48245 0.09046 0.0
H39 H 0.21931 0.47741 0.09168 0.0
Pr40 Pr 0.28518 0.73768 0.07124 0.0
Pr41 Pr 0.19513 0.75416 0.07189 0.0
C42 C 0.36861 0.72799 0.06817 0.0
C43 C 0.41484 0.73272 0.0697 0.0
C44 C 0.44167 0.72041 0.07435 0.0
C45 C 0.48631 0.72359 0.07513 0.0
C46 C 0.50533 0.73911 0.07122 0.0
C47 C 0.47827 0.75166 0.06673 0.0
C48 C 0.43351 0.74852 0.06598 0.0
C49 C 0.24673 0.73775 0.08842 0.0
C50 C 0.27606 0.78195 0.07455 0.0
C51 C 0.11186 0.76348 0.07544 0.0
C52 C 0.06538 0.75917 0.07388 0.0
C53 C 0.03921 0.77162 0.06915 0.0
C54 C 0.99438 0.76889 0.0684 0.0
C55 C 0.97448 0.75368 0.07244 0.0
C56 C 1.00085 0.741 0.07701 0.0
C57 C 0.04578 0.74371 0.07773 0.0
C58 C 0.23096 0.75354 0.05446 0.0
C59 C 0.2071 0.70949 0.06863 0.0
O60 O 0.34587 0.73812 0.06263 0.0
O61 O 0.34609 0.72198 0.07504 0.0
O62 O 0.2464 0.75087 0.08294 0.0
O63 O 0.26843 0.72403 0.08522 0.0
O64 O 0.23513 0.77926 0.0768 0.0
O65 O 0.29983 0.7688 0.07106 0.0
O66 O 0.13472 0.75254 0.08056 0.0
O67 O 0.13416 0.7704 0.06874 0.0
O68 O 0.23314 0.74067 0.06011 0.0
O69 O 0.20878 0.76711 0.05769 0.0
O70 O 0.24709 0.71293 0.06606 0.0
O71 O 0.18193 0.72242 0.07199 0.0
H72 H 0.42825 0.70804 0.07719 0.0
H73 H 0.50616 0.71352 0.07854 0.0
H74 H 0.49174 0.76387 0.06373 0.0
H75 H 0.41375 0.75828 0.06234 0.0
H76 H 0.05329 0.78379 0.06622 0.0
H77 H 0.9751 0.77906 0.06493 0.0
H78 H 0.98672 0.72903 0.08011 0.0
H79 H 0.06493 0.73387 0.08146 0.0
Pr80 Pr 0.99778 0.73853 0.19306 0.0
Pr81 Pr 0.08887 0.75451 0.19189 0.0
C82 C 0.91479 0.72943 0.1969 0.0
C83 C 0.86846 0.73449 0.19591 0.0
C84 C 0.84868 0.73624 0.18738 0.0
C85 C 0.80385 0.7393 0.18669 0.0
C86 C 0.77787 0.7407 0.19449 0.0
C87 C 0.79805 0.73939 0.203 0.0
C88 C 0.84276 0.73628 0.20369 0.0
C89 C 0.03402 0.73859 0.17568 0.0
C90 C 1.00831 0.78285 0.18978 0.0
C91 C 0.17165 0.76325 0.18765 0.0
C92 C 0.2181 0.75861 0.18882 0.0
C93 C 0.23742 0.75732 0.19741 0.0
C94 C 0.2823 0.75451 0.19824 0.0
C95 C 0.30876 0.75291 0.19052 0.0
C96 C 0.28903 0.75382 0.18195 0.0
C97 C 0.24428 0.75666 0.18112 0.0
C98 C 0.05523 0.75385 0.20949 0.0
C99 C 0.07564 0.7098 0.19507 0.0
O100 O 0.93888 0.73933 0.20228 0.0
O101 O 0.93565 0.72349 0.18978 0.0
O102 O 0.03568 0.75158 0.18123 0.0
O103 O 1.01171 0.72506 0.17889 0.0
O104 O 0.04903 0.78 0.1874 0.0
O105 O 0.98428 0.76976 0.19323 0.0
O106 O 0.1478 0.75236 0.18272 0.0
O107 O 0.15071 0.77026 0.19451 0.0
O108 O 0.05175 0.74113 0.20379 0.0
O109 O 0.07802 0.76721 0.20625 0.0
O110 O 0.0358 0.71331 0.19772 0.0
O111 O 0.10111 0.72269 0.19177 0.0
H112 H 0.86763 0.73494 0.18125 0.0
H113 H 0.78948 0.74047 0.18003 0.0
H114 H 0.77908 0.74015 0.20915 0.0
H115 H 0.85714 0.73482 0.21034 0.0
H116 H 0.21803 0.75874 0.20348 0.0
H117 H 0.2963 0.75364 0.20495 0.0
H118 H 0.30836 0.75291 0.17585 0.0
H119 H 0.23022 0.75777 0.17442 0.0
Pr120 Pr 0.296 0.497 0.19314 0.0
Pr121 Pr 0.20646 0.47936 0.19261 0.0
C122 C 0.37919 0.50732 0.19603 0.0
C123 C 0.4256 0.50269 0.19457 0.0
C124 C 0.45261 0.51528 0.19016 0.0
C125 C 0.49735 0.51216 0.18943 0.0
C126 C 0.5163 0.4964 0.19315 0.0
C127 C 0.48904 0.4836 0.1974 0.0
C128 C 0.4442 0.48669 0.19809 0.0
C129 C 0.25592 0.49693 0.17612 0.0
C130 C 0.28941 0.45257 0.18977 0.0
C131 C 0.12338 0.46953 0.18915 0.0
C132 C 0.07679 0.47392 0.19059 0.0
C133 C 0.05017 0.46136 0.19512 0.0
C134 C 1.00532 0.46423 0.1958 0.0
C135 C 0.98582 0.4797 0.19192 0.0
C136 C 1.01266 0.49247 0.18753 0.0
C137 C 0.0576 0.48962 0.18687 0.0
C138 C 0.24369 0.47991 0.2099 0.0
C139 C 0.21592 0.52413 0.19623 0.0
O140 O 0.3568 0.49741 0.20172 0.0
O141 O 0.35641 0.51282 0.18908 0.0
O142 O 0.25701 0.48367 0.18153 0.0
O143 O 0.27707 0.51081 0.17931 0.0
O144 O 0.24792 0.45454 0.18775 0.0
O145 O 0.31247 0.4661 0.19308 0.0
O146 O 0.14622 0.48009 0.18384 0.0
O147 O 0.14566 0.46321 0.196 0.0
O148 O 0.24466 0.49294 0.20432 0.0
O149 O 0.2219 0.46623 0.20668 0.0
O150 O 0.25651 0.52119 0.19855 0.0
O151 O 0.19139 0.51098 0.19288 0.0
H152 H 0.43925 0.52781 0.18747 0.0
H153 H 0.51728 0.52243 0.18622 0.0
H154 H 0.50241 0.4712 0.20023 0.0
H155 H 0.42429 0.47669 0.20152 0.0
H156 H 0.06393 0.44903 0.19795 0.0
H157 H 0.98575 0.45397 0.19913 0.0
H158 H 0.99889 0.50466 0.18456 0.0
H159 H 0.07712 0.49957 0.18331 0.0
Pr160 Pr 0.9483 0.50359 0.94316 0.0
Pr161 Pr 0.03958 0.48762 0.94442 0.0
C162 C 0.86557 0.5122 0.93877 0.0
C163 C 0.81913 0.5076 0.93995 0.0
C164 C 0.79972 0.50652 0.94853 0.0
C165 C 0.75485 0.50372 0.94935 0.0
C166 C 0.7285 0.50192 0.94162 0.0
C167 C 0.74832 0.50261 0.93305 0.0
C168 C 0.79306 0.50544 0.93224 0.0
C169 C 0.98162 0.50318 0.96078 0.0
C170 C 0.96185 0.45898 0.94656 0.0
C171 C 0.12264 0.4785 0.94823 0.0
C172 C 0.16895 0.4835 0.94716 0.0
C173 C 0.18859 0.48497 0.93861 0.0
C174 C 0.2334 0.488 0.93787 0.0
C175 C 0.25949 0.48965 0.94565 0.0
C176 C 0.23946 0.4886 0.95418 0.0
C177 C 0.19477 0.48553 0.95492 0.0
C178 C 1.00295 0.48748 0.92705 0.0
C179 C 0.02887 0.53186 0.94096 0.0
O180 O 0.88953 0.50112 0.93396 0.0
O181 O 0.88637 0.51945 0.94559 0.0
O182 O 0.98558 0.49043 0.95512 0.0
O183 O 0.9585 0.51643 0.95751 0.0
O184 O 1.00153 0.4626 0.94928 0.0
O185 O 0.93644 0.47176 0.94312 0.0
O186 O 0.09869 0.48853 0.95358 0.0
O187 O 0.10159 0.47244 0.94115 0.0
O188 O 1.00168 0.50053 0.93256 0.0
O189 O 0.02519 0.47393 0.93029 0.0
O190 O 0.98822 0.52894 0.93855 0.0
O191 O 0.05287 0.51886 0.94453 0.0
H192 H 0.81902 0.50811 0.9546 0.0
H193 H 0.74077 0.50303 0.95605 0.0
H194 H 0.72908 0.50153 0.92695 0.0
H195 H 0.8072 0.50638 0.92555 0.0
H196 H 0.16954 0.48348 0.9325 0.0
H197 H 0.24765 0.48897 0.93119 0.0
H198 H 0.25853 0.48956 0.96032 0.0
H199 H 0.18052 0.48427 0.96159 0.0
Pr200 Pr 0.83893 0.22795 0.94299 0.0
Pr201 Pr 0.74903 0.24465 0.94336 0.0
C202 C 0.92225 0.21844 0.93959 0.0
C203 C 0.96875 0.22263 0.94119 0.0
C204 C 0.99527 0.2095 0.94535 0.0
C205 C 0.04011 0.2122 0.94611 0.0
C206 C 0.05965 0.22808 0.94268 0.0
C207 C 0.03289 0.24142 0.9387 0.0
C208 C 0.98795 0.23874 0.93796 0.0
C209 C 0.80225 0.22872 0.96033 0.0
C210 C 0.82746 0.27263 0.94626 0.0
C211 C 0.66556 0.25464 0.94617 0.0
C212 C 0.6193 0.24994 0.94469 0.0
C213 C 0.5918 0.26283 0.94064 0.0
C214 C 0.54715 0.25961 0.93992 0.0
C215 C 0.52881 0.24344 0.94329 0.0
C216 C 0.55657 0.23034 0.94718 0.0
C217 C 0.60135 0.23353 0.94786 0.0
C218 C 0.7889 0.24442 0.9263 0.0
C219 C 0.75775 0.20031 0.94026 0.0
O220 O 0.89971 0.22941 0.93443 0.0
O221 O 0.89967 0.21163 0.94627 0.0
O222 O 0.8002 0.24154 0.95465 0.0
O223 O 0.82471 0.21516 0.95719 0.0
O224 O 0.78709 0.26935 0.94861 0.0
O225 O 0.85274 0.25963 0.94301 0.0
O226 O 0.68803 0.24476 0.95187 0.0
O227 O 0.68828 0.26018 0.93922 0.0
O228 O 0.78837 0.23128 0.93178 0.0
O229 O 0.76735 0.25824 0.92944 0.0
O230 O 0.7989 0.20281 0.93814 0.0
O231 O 0.7339 0.2136 0.94358 0.0
H232 H 0.98145 0.19687 0.9478 0.0
H233 H 0.05967 0.20153 0.94911 0.0
H234 H 0.04673 0.25391 0.93609 0.0
H235 H 0.96845 0.24912 0.9347 0.0
H236 H 0.60474 0.27565 0.93822 0.0
H237 H 0.52679 0.27011 0.937 0.0
H238 H 0.54364 0.21763 0.94974 0.0
H239 H 0.62171 0.22331 0.95101 0.0
Pr240 Pr 0.93909 0.22813 0.82249 0.0
Pr241 Pr 0.0304 0.24367 0.82082 0.0
C242 C 0.85682 0.21971 0.8273 0.0
C243 C 0.81021 0.22393 0.82603 0.0
C244 C 0.79104 0.22476 0.81741 0.0
C245 C 0.7461 0.22733 0.81651 0.0
C246 C 0.71943 0.22914 0.8242 0.0
C247 C 0.73901 0.22866 0.83279 0.0
C248 C 0.78382 0.22606 0.83369 0.0
C249 C 0.96952 0.22912 0.80465 0.0
C250 C 0.95341 0.27282 0.81945 0.0
C251 C 0.11346 0.25246 0.81681 0.0
C252 C 0.15973 0.24736 0.81788 0.0
C253 C 0.17929 0.24583 0.82644 0.0
C254 C 0.22409 0.24275 0.82721 0.0
C255 C 0.25027 0.24111 0.81945 0.0
C256 C 0.23031 0.24218 0.8109 0.0
C257 C 0.18562 0.2453 0.81014 0.0
C258 C 0.99657 0.24312 0.83845 0.0
C259 C 0.0192 0.19951 0.82371 0.0
O260 O 0.88058 0.23151 0.8317 0.0
O261 O 0.87761 0.21169 0.82069 0.0
O262 O 0.97497 0.24158 0.81042 0.0
O263 O 0.94585 0.21604 0.80789 0.0
O264 O 0.99239 0.26905 0.81636 0.0
O265 O 0.9283 0.26004 0.82298 0.0
O266 O 0.08922 0.24233 0.81157 0.0
O267 O 0.09268 0.2588 0.82385 0.0
O268 O 0.99408 0.23034 0.83281 0.0
O269 O 0.01853 0.25669 0.8352 0.0
O270 O 0.97993 0.20274 0.82691 0.0
O271 O 0.04191 0.21241 0.81976 0.0
H272 H 0.81063 0.22319 0.81138 0.0
H273 H 0.73223 0.22787 0.80979 0.0
H274 H 0.71955 0.22974 0.83887 0.0
H275 H 0.7978 0.22532 0.8404 0.0
H276 H 0.16018 0.24733 0.83254 0.0
H277 H 0.23826 0.24176 0.83389 0.0
H278 H 0.24944 0.24122 0.80478 0.0
H279 H 0.17142 0.24659 0.80347 0.0
Pr280 Pr 0.83044 0.50426 0.82473 0.0
Pr281 Pr 0.74009 0.48709 0.82387 0.0
C282 C 0.91329 0.51346 0.82874 0.0
C283 C 0.9598 0.50868 0.82763 0.0
C284 C 0.98042 0.50922 0.81915 0.0
C285 C 0.02533 0.50635 0.81844 0.0
C286 C 0.05063 0.50287 0.82619 0.0
C287 C 0.02967 0.50195 0.83463 0.0
C288 C 0.98487 0.50486 0.83533 0.0
C289 C 0.79468 0.50404 0.80733 0.0
C290 C 0.81967 0.4595 0.82104 0.0
C291 C 0.65707 0.47732 0.82042 0.0
C292 C 0.61065 0.4823 0.82154 0.0
C293 C 0.59015 0.48195 0.83003 0.0
C294 C 0.54533 0.48501 0.83076 0.0
C295 C 0.51998 0.48848 0.82303 0.0
C296 C 0.54081 0.48921 0.81457 0.0
C297 C 0.58552 0.48611 0.81384 0.0
C298 C 0.77912 0.48689 0.84099 0.0
C299 C 0.74797 0.53151 0.82742 0.0
O300 O 0.88947 0.50304 0.83392 0.0
O301 O 0.89213 0.5199 0.82176 0.0
O302 O 0.79245 0.49103 0.8129 0.0
O303 O 0.81727 0.51746 0.81058 0.0
O304 O 0.77923 0.46264 0.81867 0.0
O305 O 0.84461 0.47254 0.82438 0.0
O306 O 0.68049 0.4871 0.81486 0.0
O307 O 0.67878 0.47171 0.82751 0.0
O308 O 0.77864 0.50013 0.83558 0.0
O309 O 0.75755 0.47314 0.83777 0.0
O310 O 0.78955 0.52944 0.82933 0.0
O311 O 0.7243 0.51806 0.82421 0.0
H312 H 0.96206 0.51216 0.81307 0.0
H313 H 0.04026 0.50693 0.81182 0.0
H314 H 0.04809 0.49956 0.84075 0.0
H315 H 0.96994 0.50457 0.84196 0.0
H316 H 0.60853 0.47901 0.83611 0.0
H317 H 0.53049 0.48456 0.8374 0.0
H318 H 0.52234 0.49159 0.80845 0.0
H319 H 0.60031 0.48624 0.80719 0.0
Pr320 Pr 0.99115 -0.00421 0.5741 0.0
Pr321 Pr 0.08123 0.97855 0.57448 0.0
C322 C 0.90789 0.00593 0.57117 0.0
C323 C 0.86156 0.0015 0.57274 0.0
C324 C 0.83409 0.01493 0.57634 0.0
C325 C 0.7894 0.01187 0.57712 0.0
C326 C 0.77098 -0.00469 0.57426 0.0
C327 C 0.79871 0.98169 0.57084 0.0
C328 C 0.84354 0.98474 0.57009 0.0
C329 C 0.03199 -0.00373 0.59102 0.0
C330 C 0.99919 0.95146 0.57775 0.0
C331 C 0.16452 0.96891 0.57783 0.0
C332 C 0.211 0.97315 0.57627 0.0
C333 C 0.23809 0.9597 0.57257 0.0
C334 C 0.28289 0.96254 0.57182 0.0
C335 C 0.30179 0.97891 0.5748 0.0
C336 C 0.27445 -0.00744 0.57833 0.0
C337 C 0.22954 0.98972 0.57905 0.0
C338 C 0.04318 0.9789 0.55726 0.0
C339 C 0.07045 0.0232 0.57075 0.0
O340 O 0.93006 -0.00439 0.56562 0.0
O341 O 0.93081 0.01181 0.57802 0.0
O342 O 0.03121 0.98289 0.58568 0.0
O343 O 1.01 0.00993 0.58783 0.0
O344 O 0.04089 0.95361 0.5795 0.0
O345 O 0.97521 0.96484 0.57456 0.0
O346 O 0.14199 0.97974 0.58307 0.0
O347 O 0.14197 0.96232 0.57109 0.0
O348 O 0.04209 -0.00811 0.56284 0.0
O349 O 0.06561 0.96534 0.56042 0.0
O350 O 0.02985 0.02001 0.56853 0.0
O351 O 0.09565 0.01021 0.57407 0.0
H352 H 0.84709 0.02802 0.57835 0.0
H353 H 0.76908 0.02275 0.57968 0.0
H354 H 0.78574 0.96869 0.56869 0.0
H355 H 0.8639 0.97409 0.56731 0.0
H356 H 0.22473 0.94672 0.57046 0.0
H357 H 0.30288 0.95163 0.56918 0.0
H358 H 0.28778 0.00542 0.58058 0.0
H359 H 0.20953 0.00038 0.58194 0.0
Pr360 Pr 0.29472 0.23522 0.57311 0.0
Pr361 Pr 0.20506 0.25269 0.57374 0.0
C362 C 0.37795 0.22528 0.56994 0.0
C363 C 0.42438 0.23015 0.57129 0.0
C364 C 0.44723 0.22416 0.57897 0.0
C365 C 0.49206 0.22705 0.57974 0.0
C366 C 0.51525 0.23592 0.57282 0.0
C367 C 0.49217 0.24224 0.56523 0.0
C368 C 0.44737 0.23934 0.56446 0.0
C369 C 0.25488 0.23478 0.59014 0.0
C370 C 0.28752 0.27958 0.57685 0.0
C371 C 0.1219 0.2621 0.57739 0.0
C372 C 0.0754 0.25737 0.57605 0.0
C373 C 0.05263 0.2632 0.56833 0.0
C374 C 1.00775 0.26041 0.56759 0.0
C375 C 0.98445 0.2518 0.57457 0.0
C376 C 1.00745 0.24564 0.58221 0.0
C377 C 0.05228 0.24845 0.58295 0.0
C378 C 0.24199 0.2525 0.55642 0.0
C379 C 0.21505 0.20799 0.5699 0.0
O380 O 0.35497 0.23516 0.56433 0.0
O381 O 0.35557 0.21956 0.57691 0.0
O382 O 0.25567 0.24817 0.5848 0.0
O383 O 0.27633 0.22104 0.58688 0.0
O384 O 0.24587 0.27757 0.57867 0.0
O385 O 0.31106 0.26614 0.57357 0.0
O386 O 0.14527 0.25164 0.58266 0.0
O387 O 0.14381 0.26858 0.57053 0.0
O388 O 0.24326 0.2394 0.56195 0.0
O389 O 0.22002 0.26608 0.5597 0.0
O390 O 0.2557 0.21098 0.56766 0.0
O391 O 0.19027 0.22107 0.57325 0.0
H392 H 0.4307 0.21688 0.58433 0.0
H393 H 0.50862 0.2222 0.58573 0.0
H394 H 0.50894 0.24889 0.5597 0.0
H395 H 0.43098 0.24387 0.55838 0.0
H396 H 0.06927 0.27026 0.56292 0.0
H397 H 0.99123 0.26514 0.56157 0.0
H398 H 0.99057 0.2392 0.58778 0.0
H399 H 0.06864 0.24406 0.58906 0.0
Pr400 Pr 0.98832 0.23828 0.69288 0.0
Pr401 Pr 0.0852 0.25622 0.69122 0.0
C402 C 0.9058 0.22931 0.69714 0.0
C403 C 0.85955 0.23431 0.69594 0.0
C404 C 0.84093 0.2366 0.68733 0.0
C405 C 0.79629 0.23997 0.68643 0.0
C406 C 0.76936 0.24117 0.69411 0.0
C407 C 0.7884 0.23924 0.70271 0.0
C408 C 0.83291 0.23582 0.7036 0.0
C409 C 0.02969 0.23634 0.67608 0.0
C410 C 0.99846 0.28282 0.68847 0.0
C411 C 0.16329 0.26521 0.68433 0.0
C412 C 0.21048 0.26275 0.68564 0.0
C413 C 0.22907 0.26137 0.69429 0.0
C414 C 0.27413 0.25928 0.69527 0.0
C415 C 0.30139 0.25844 0.68763 0.0
C416 C 0.28239 0.25973 0.679 0.0
C417 C 0.23748 0.26186 0.67803 0.0
C418 C 0.06098 0.25354 0.7095 0.0
C419 C 0.07128 0.21245 0.6968 0.0
O420 O 0.92982 0.23997 0.70218 0.0
O421 O 0.92668 0.22243 0.69021 0.0
O422 O 0.02997 0.24979 0.68137 0.0
O423 O 1.00545 0.22326 0.67921 0.0
O424 O 0.0414 0.28163 0.68809 0.0
O425 O 0.97295 0.26885 0.69033 0.0
O426 O 0.14124 0.25091 0.68167 0.0
O427 O 0.14236 0.27542 0.69017 0.0
O428 O 0.03927 0.24877 0.70269 0.0
O429 O 0.09766 0.26058 0.70688 0.0
O430 O 0.03108 0.21602 0.69929 0.0
O431 O 0.09588 0.22448 0.69249 0.0
H432 H 0.86069 0.23556 0.6813 0.0
H433 H 0.78284 0.24161 0.67972 0.0
H434 H 0.76869 0.23984 0.70876 0.0
H435 H 0.84644 0.23398 0.7103 0.0
H436 H 0.20881 0.2619 0.70027 0.0
H437 H 0.28756 0.25812 0.70201 0.0
H438 H 0.30231 0.2594 0.67297 0.0
H439 H 0.22379 0.26293 0.67129 0.0
Pr440 Pr 0.2932 -0.00101 0.69433 0.0
Pr441 Pr 0.20236 0.98238 0.69334 0.0
C442 C 0.37624 0.00848 0.69794 0.0
C443 C 0.42259 0.00336 0.69699 0.0
C444 C 0.44223 0.00106 0.68848 0.0
C445 C 0.48704 -0.00208 0.68781 0.0
C446 C 0.51317 -0.00302 0.69561 0.0
C447 C 0.49314 -0.00113 0.70411 0.0
C448 C 0.44845 0.00206 0.70478 0.0
C449 C 0.25583 -0.00135 0.67705 0.0
C450 C 0.28391 0.95453 0.69118 0.0
C451 C 0.11974 0.97323 0.68915 0.0
C452 C 0.0732 0.97787 0.6902 0.0
C453 C 0.05365 0.97971 0.69874 0.0
C454 C 1.00873 0.98255 0.69947 0.0
C455 C 0.98244 0.98364 0.69169 0.0
C456 C 1.0024 0.98217 0.68317 0.0
C457 C 0.04718 0.9793 0.68244 0.0
C458 C 0.23723 0.98293 0.71081 0.0
C459 C 0.21411 0.0272 0.69667 0.0
O460 O 0.35231 -0.00103 0.70352 0.0
O461 O 0.35516 0.01387 0.69073 0.0
O462 O 0.25507 0.98568 0.68263 0.0
O463 O 0.27775 0.01236 0.68019 0.0
O464 O 0.24303 0.95713 0.68883 0.0
O465 O 0.30758 0.96781 0.69457 0.0
O466 O 0.1436 0.98384 0.68407 0.0
O467 O 0.14061 0.96668 0.69614 0.0
O468 O 0.23991 -0.00421 0.70517 0.0
O469 O 0.21452 0.9695 0.7076 0.0
O470 O 0.25462 0.02408 0.69901 0.0
O471 O 0.1888 0.01411 0.69351 0.0
H472 H 0.42317 0.00199 0.68234 0.0
H473 H 0.50126 -0.0037 0.68116 0.0
H474 H 0.51222 -0.00153 0.71026 0.0
H475 H 0.43421 0.00395 0.71141 0.0
H476 H 0.07289 0.97869 0.70485 0.0
H477 H 0.99458 0.98385 0.70614 0.0
H478 H 0.98323 0.98268 0.67703 0.0
H479 H 0.06141 0.97777 0.67578 0.0
Pr480 Pr 0.94761 0.00493 0.44371 0.0
Pr481 Pr 0.03781 0.9882 0.4444 0.0
C482 C 0.86446 0.01437 0.44008 0.0
C483 C 0.81792 0.01038 0.44172 0.0
C484 C 0.79121 0.02406 0.44535 0.0
C485 C 0.74637 0.02143 0.44616 0.0
C486 C 0.72701 0.00505 0.44331 0.0
C487 C 0.75394 0.99119 0.43985 0.0
C488 C 0.7989 -0.00618 0.43907 0.0
C489 C 0.98322 0.00418 0.46115 0.0
C490 C 0.95915 0.96027 0.44707 0.0
C491 C 0.12108 0.97826 0.44748 0.0
C492 C 0.1674 0.98276 0.44594 0.0
C493 C 0.19506 0.96936 0.4424 0.0
C494 C 0.23971 0.97252 0.44161 0.0
C495 C 0.25788 0.98917 0.4444 0.0
C496 C 0.22995 0.00276 0.44778 0.0
C497 C 0.18516 -0.00039 0.44854 0.0
C498 C 0.99888 0.98825 0.42725 0.0
C499 C 0.0291 0.03248 0.44106 0.0
O500 O 0.88695 0.00299 0.43513 0.0
O501 O 0.88701 0.0216 0.44666 0.0
O502 O 0.98568 0.99139 0.45547 0.0
O503 O 0.96076 0.01771 0.45797 0.0
O504 O 0.99917 0.96363 0.44964 0.0
O505 O 0.93416 0.97322 0.44366 0.0
O506 O 0.09863 0.9886 0.45297 0.0
O507 O 0.09844 0.97225 0.44062 0.0
O508 O 0.99902 0.00141 0.43271 0.0
O509 O 0.02056 0.97451 0.43044 0.0
O510 O 0.9881 0.02991 0.43881 0.0
O511 O 0.05273 0.01927 0.44453 0.0
H512 H 0.80492 0.03704 0.44735 0.0
H513 H 0.72669 0.03249 0.44874 0.0
H514 H 0.74024 0.97832 0.4377 0.0
H515 H 0.81856 0.983 0.43624 0.0
H516 H 0.18225 0.9562 0.44043 0.0
H517 H 0.26018 0.96165 0.43909 0.0
H518 H 0.24273 0.01582 0.44989 0.0
H519 H 0.16464 0.01024 0.45129 0.0
Pr520 Pr 0.83569 0.72954 0.44172 0.0
Pr521 Pr 0.74465 0.74576 0.44294 0.0
C522 C 0.91828 0.72074 0.43735 0.0
C523 C 0.96486 0.72521 0.4385 0.0
C524 C 0.98557 0.7241 0.44695 0.0
C525 C 0.03058 0.7266 0.44766 0.0
C526 C 0.05583 0.73022 0.43993 0.0
C527 C 0.03472 0.73181 0.43153 0.0
C528 C 0.98984 0.72929 0.43083 0.0
C529 C 0.80216 0.7299 0.45932 0.0
C530 C 0.82293 0.77419 0.44521 0.0
C531 C 0.66171 0.75505 0.44675 0.0
C532 C 0.61531 0.74998 0.44584 0.0
C533 C 0.59363 0.75078 0.43748 0.0
C534 C 0.54873 0.74781 0.43699 0.0
C535 C 0.52448 0.74405 0.44484 0.0
C536 C 0.54653 0.74276 0.45314 0.0
C537 C 0.59133 0.74575 0.45364 0.0
C538 C 0.78148 0.74593 0.42561 0.0
C539 C 0.7548 0.70148 0.43949 0.0
O540 O 0.89442 0.73185 0.43252 0.0
O541 O 0.89738 0.71352 0.44416 0.0
O542 O 0.79847 0.74271 0.45367 0.0
O543 O 0.82515 0.71661 0.45604 0.0
O544 O 0.78295 0.77073 0.44778 0.0
O545 O 0.84829 0.76132 0.44183 0.0
O546 O 0.68596 0.74534 0.4522 0.0
O547 O 0.68249 0.76077 0.43957 0.0
O548 O 0.78248 0.73283 0.4311 0.0
O549 O 0.75946 0.75953 0.42886 0.0
O550 O 0.79554 0.70428 0.43712 0.0
O551 O 0.73085 0.71456 0.443 0.0
H552 H 0.96724 0.72088 0.453 0.0
H553 H 0.04575 0.72512 0.45423 0.0
H554 H 0.05295 0.73489 0.42546 0.0
H555 H 0.97472 0.73016 0.42422 0.0
H556 H 0.61107 0.75414 0.43135 0.0
H557 H 0.53281 0.74909 0.43049 0.0
H558 H 0.5291 0.7396 0.4593 0.0
H559 H 0.6071 0.74515 0.46018 0.0
Pr560 Pr 0.95456 0.72905 0.32285 0.0
Pr561 Pr 0.04434 0.74656 0.32245 0.0
C562 C 0.87144 0.71929 0.32627 0.0
C563 C 0.82485 0.72347 0.32477 0.0
C564 C 0.79778 0.71001 0.32108 0.0
C565 C 0.75293 0.71281 0.32037 0.0
C566 C 0.7339 0.72915 0.32339 0.0
C567 C 0.7612 0.7428 0.32691 0.0
C568 C 0.80617 0.74001 0.3276 0.0
C569 C 0.9921 0.72954 0.3056 0.0
C570 C 0.96446 0.77376 0.31918 0.0
C571 C 0.12753 0.75689 0.31961 0.0
C572 C 0.1739 0.75241 0.32116 0.0
C573 C 0.20145 0.7658 0.32475 0.0
C574 C 0.24615 0.76268 0.32553 0.0
C575 C 0.26451 0.74608 0.32268 0.0
C576 C 0.23668 0.7325 0.31927 0.0
C577 C 0.19185 0.73561 0.31853 0.0
C578 C 1.0035 0.74662 0.33938 0.0
C579 C 0.03724 0.70218 0.32596 0.0
O580 O 0.894 0.73013 0.3315 0.0
O581 O 0.8939 0.71274 0.31951 0.0
O582 O 0.99339 0.74253 0.31119 0.0
O583 O 0.9698 0.71596 0.30876 0.0
O584 O 1.00508 0.77074 0.31692 0.0
O585 O 0.93971 0.76067 0.32252 0.0
O586 O 0.10545 0.74673 0.31397 0.0
O587 O 0.10453 0.76255 0.32649 0.0
O588 O 1.00487 0.73334 0.334 0.0
O589 O 0.02491 0.76046 0.33622 0.0
O590 O 0.9956 0.70422 0.32781 0.0
O591 O 0.06076 0.71564 0.32272 0.0
H592 H 0.81123 0.69706 0.31895 0.0
H593 H 0.73299 0.70189 0.31774 0.0
H594 H 0.7478 0.75564 0.32919 0.0
H595 H 0.82613 0.75067 0.33048 0.0
H596 H 0.18851 0.77891 0.32676 0.0
H597 H 0.26652 0.77354 0.32808 0.0
H598 H 0.24958 0.71947 0.31713 0.0
H599 H 0.17143 0.72499 0.31575 0.0
Pr600 Pr 0.83759 0.00416 0.32426 0.0
Pr601 Pr 0.74672 0.98789 0.32294 0.0
C602 C 0.92022 0.01291 0.32865 0.0
C603 C 0.96675 0.00838 0.32743 0.0
C604 C 0.98636 0.00804 0.31885 0.0
C605 C 0.03126 0.00529 0.318 0.0
C606 C 0.05749 0.00282 0.32571 0.0
C607 C 0.03748 0.0028 0.33427 0.0
C608 C 0.99271 0.00558 0.3351 0.0
C609 C 0.80456 0.00375 0.30662 0.0
C610 C 0.82499 0.95947 0.32082 0.0
C611 C 0.66372 0.9787 0.31912 0.0
C612 C 0.61735 0.9837 0.32019 0.0
C613 C 0.59734 0.98447 0.32873 0.0
C614 C 0.55251 0.98749 0.32946 0.0
C615 C 0.52671 0.98984 0.32168 0.0
C616 C 0.5471 0.9895 0.31317 0.0
C617 C 0.59182 0.98642 0.31244 0.0
C618 C 0.78297 0.98791 0.34034 0.0
C619 C 0.75635 0.03216 0.32638 0.0
O620 O 0.89644 0.00175 0.33345 0.0
O621 O 0.89921 0.02021 0.32186 0.0
O622 O 0.80079 0.99093 0.31226 0.0
O623 O 0.82724 0.01707 0.30994 0.0
O624 O 0.78518 0.96294 0.31813 0.0
O625 O 0.85016 0.97235 0.32423 0.0
O626 O 0.68762 0.98873 0.31376 0.0
O627 O 0.68484 0.97262 0.32618 0.0
O628 O 0.7841 0.00095 0.33482 0.0
O629 O 0.76112 0.97429 0.33708 0.0
O630 O 0.79701 0.02941 0.32885 0.0
O631 O 0.73286 0.01907 0.32277 0.0
H632 H 0.96719 0.01015 0.3128 0.0
H633 H 0.04546 0.00516 0.31131 0.0
H634 H 0.05662 0.0012 0.34036 0.0
H635 H 0.97845 0.00596 0.3418 0.0
H636 H 0.61611 0.98242 0.33484 0.0
H637 H 0.538 0.9879 0.33612 0.0
H638 H 0.52828 0.991 0.30703 0.0
H639 H 0.60632 0.98571 0.30578 0.0
Pr640 Pr 0.49691 0.49418 0.57302 0.0
Pr641 Pr 0.58771 0.47797 0.57413 0.0
C642 C 0.41377 0.50334 0.5693 0.0
C643 C 0.36744 0.49834 0.57046 0.0
C644 C 0.34642 0.49995 0.57887 0.0
C645 C 0.30159 0.49699 0.57959 0.0
C646 C 0.27676 0.49237 0.57193 0.0
C647 C 0.2981 0.49035 0.56358 0.0
C648 C 0.34284 0.49336 0.56286 0.0
C649 C 0.53379 0.49444 0.59035 0.0
C650 C 0.50699 0.4499 0.57652 0.0
C651 C 0.67069 0.46923 0.57826 0.0
C652 C 0.71709 0.47383 0.5769 0.0
C653 C 0.73739 0.47198 0.56843 0.0
C654 C 0.78223 0.47473 0.56755 0.0
C655 C 0.80776 0.47938 0.5751 0.0
C656 C 0.78712 0.48161 0.58352 0.0
C657 C 0.74239 0.47882 0.5844 0.0
C658 C 0.55356 0.47847 0.55656 0.0
C659 C 0.57499 0.52262 0.57071 0.0
O660 O 0.43756 0.49324 0.56394 0.0
O661 O 0.43514 0.50955 0.5763 0.0
O662 O 0.53506 0.48129 0.58488 0.0
O663 O 0.51155 0.50795 0.58708 0.0
O664 O 0.54781 0.45269 0.57883 0.0
O665 O 0.48304 0.46299 0.57302 0.0
O666 O 0.64711 0.48032 0.58314 0.0
O667 O 0.64923 0.46191 0.57154 0.0
O668 O 0.55042 0.49126 0.56222 0.0
O669 O 0.57626 0.46508 0.55982 0.0
O670 O 0.53506 0.51914 0.56811 0.0
O671 O 0.60032 0.50974 0.57409 0.0
H672 H 0.36435 0.50383 0.58486 0.0
H673 H 0.28632 0.49844 0.58614 0.0
H674 H 0.28001 0.48705 0.55752 0.0
H675 H 0.35803 0.49225 0.55628 0.0
H676 H 0.71884 0.46812 0.56252 0.0
H677 H 0.79696 0.47313 0.56095 0.0
H678 H 0.80576 0.48493 0.5895 0.0
H679 H 0.7277 0.48012 0.59103 0.0
Pr680 Pr 0.79171 0.73627 0.57217 0.0
Pr681 Pr 0.7015 0.75303 0.57281 0.0
C682 C 0.87504 0.72645 0.56908 0.0
C683 C 0.92132 0.73104 0.57062 0.0
C684 C 0.94866 0.71805 0.57464 0.0
C685 C 0.99331 0.7212 0.57541 0.0
C686 C 1.01182 0.73742 0.57213 0.0
C687 C 0.98424 0.75062 0.56828 0.0
C688 C 0.93945 0.74748 0.56754 0.0
C689 C 0.7524 0.73582 0.58926 0.0
C690 C 0.78279 0.78051 0.57582 0.0
C691 C 0.61827 0.76243 0.57635 0.0
C692 C 0.57177 0.75826 0.57474 0.0
C693 C 0.54524 0.77143 0.57062 0.0
C694 C 0.50041 0.76872 0.56984 0.0
C695 C 0.4809 0.75279 0.57321 0.0
C696 C 0.50766 0.73941 0.57716 0.0
C697 C 0.55259 0.7421 0.57792 0.0
C698 C 0.73819 0.75284 0.55547 0.0
C699 C 0.71286 0.70845 0.56917 0.0
O700 O 0.85244 0.73672 0.56358 0.0
O701 O 0.85247 0.72041 0.57595 0.0
O702 O 0.75246 0.74913 0.58388 0.0
O703 O 0.77424 0.72218 0.58601 0.0
O704 O 0.74166 0.77789 0.57792 0.0
O705 O 0.80673 0.76738 0.57237 0.0
O706 O 0.6409 0.75131 0.58142 0.0
O707 O 0.64073 0.76945 0.56971 0.0
O708 O 0.73998 0.73983 0.56103 0.0
O709 O 0.71578 0.76632 0.55871 0.0
O710 O 0.75317 0.71177 0.56678 0.0
O711 O 0.68779 0.72137 0.57258 0.0
H712 H 0.9356 0.70519 0.57698 0.0
H713 H 1.01354 0.71064 0.57831 0.0
H714 H 0.9973 0.76335 0.56578 0.0
H715 H 0.91924 0.75779 0.56441 0.0
H716 H 0.55904 0.7841 0.56821 0.0
H717 H 0.48085 0.77942 0.56686 0.0
H718 H 0.49383 0.72688 0.57973 0.0
H719 H 0.57209 0.73168 0.58115 0.0
Pr720 Pr 0.49204 0.73892 0.69258 0.0
Pr721 Pr 0.58911 0.75656 0.69061 0.0
C722 C 0.40968 0.73024 0.69709 0.0
C723 C 0.36336 0.73523 0.69587 0.0
C724 C 0.34278 0.73416 0.68739 0.0
C725 C 0.29807 0.73743 0.68659 0.0
C726 C 0.27292 0.74181 0.69425 0.0
C727 C 0.2939 0.74328 0.70267 0.0
C728 C 0.3385 0.73998 0.70346 0.0
C729 C 0.53183 0.73708 0.67562 0.0
C730 C 0.50266 0.78344 0.68816 0.0
C731 C 0.66692 0.76542 0.68356 0.0
C732 C 0.71422 0.76316 0.68488 0.0
C733 C 0.73374 0.76498 0.69342 0.0
C734 C 0.7789 0.76336 0.69437 0.0
C735 C 0.80544 0.75986 0.6868 0.0
C736 C 0.78551 0.75778 0.6783 0.0
C737 C 0.74047 0.75943 0.67736 0.0
C738 C 0.56631 0.75381 0.70895 0.0
C739 C 0.57473 0.71276 0.69604 0.0
O740 O 0.43394 0.74116 0.70194 0.0
O741 O 0.43037 0.72287 0.69026 0.0
O742 O 0.53288 0.75044 0.68095 0.0
O743 O 0.50749 0.72406 0.67879 0.0
O744 O 0.54552 0.78209 0.68761 0.0
O745 O 0.47703 0.76956 0.69011 0.0
O746 O 0.64501 0.75098 0.68104 0.0
O747 O 0.64583 0.77589 0.68926 0.0
O748 O 0.54402 0.74915 0.70221 0.0
O749 O 0.60292 0.76075 0.70623 0.0
O750 O 0.53501 0.7165 0.69879 0.0
O751 O 0.59907 0.72475 0.69164 0.0
H752 H 0.36096 0.73044 0.68141 0.0
H753 H 0.28301 0.736 0.68002 0.0
H754 H 0.27581 0.74692 0.70868 0.0
H755 H 0.35348 0.74084 0.71008 0.0
H756 H 0.71419 0.76782 0.69934 0.0
H757 H 0.79308 0.7652 0.70101 0.0
H758 H 0.80468 0.75474 0.67235 0.0
H759 H 0.72609 0.75789 0.67072 0.0
Pr760 Pr 0.78533 0.49727 0.69474 0.0
Pr761 Pr 0.69457 0.48105 0.69358 0.0
C762 C 0.86839 0.50656 0.69846 0.0
C763 C 0.91473 0.50149 0.69744 0.0
C764 C 0.93437 0.49972 0.6889 0.0
C765 C 0.97919 0.49664 0.68818 0.0
C766 C 1.00533 0.49525 0.69596 0.0
C767 C 0.9853 0.49659 0.70449 0.0
C768 C 0.94059 0.49971 0.7052 0.0
C769 C 0.7493 0.4967 0.67733 0.0
C770 C 0.77559 0.45286 0.69175 0.0
C771 C 0.61191 0.47207 0.68931 0.0
C772 C 0.56537 0.47669 0.69041 0.0
C773 C 0.54577 0.47804 0.69897 0.0
C774 C 0.50085 0.48084 0.69973 0.0
C775 C 0.4746 0.48236 0.69196 0.0
C776 C 0.4946 0.48138 0.68342 0.0
C777 C 0.5394 0.47856 0.68267 0.0
C778 C 0.72803 0.48192 0.71118 0.0
C779 C 0.70717 0.52589 0.69659 0.0
O780 O 0.84446 0.4968 0.70392 0.0
O781 O 0.84729 0.51231 0.69132 0.0
O782 O 0.74787 0.48384 0.68295 0.0
O783 O 0.77114 0.51041 0.68049 0.0
O784 O 0.73504 0.45561 0.6892 0.0
O785 O 0.79906 0.46608 0.69525 0.0
O786 O 0.63579 0.48285 0.68433 0.0
O787 O 0.63278 0.46528 0.69625 0.0
O788 O 0.73137 0.49465 0.70548 0.0
O789 O 0.70551 0.46847 0.70795 0.0
O790 O 0.74704 0.52251 0.69928 0.0
O791 O 0.68192 0.51287 0.69334 0.0
H792 H 0.91531 0.50102 0.68278 0.0
H793 H 0.99342 0.49544 0.68151 0.0
H794 H 1.00438 0.49584 0.71063 0.0
H795 H 0.92635 0.5012 0.71186 0.0
H796 H 0.56498 0.47668 0.70507 0.0
H797 H 0.48666 0.48176 0.70641 0.0
H798 H 0.47546 0.48224 0.67729 0.0
H799 H 0.55365 0.4774 0.67599 0.0
Pr800 Pr 0.45536 0.50377 0.44317 0.0
Pr801 Pr 0.54525 0.48634 0.44353 0.0
C802 C 0.37215 0.51347 0.43976 0.0
C803 C 0.32561 0.5092 0.44126 0.0
C804 C 0.29869 0.52234 0.44528 0.0
C805 C 0.25386 0.51952 0.44598 0.0
C806 C 0.23471 0.5035 0.44261 0.0
C807 C 0.26186 0.49016 0.43875 0.0
C808 C 0.3068 0.49296 0.43808 0.0
C809 C 0.49304 0.50327 0.46041 0.0
C810 C 0.46568 0.45908 0.44684 0.0
C811 C 0.62854 0.47609 0.44636 0.0
C812 C 0.67484 0.48064 0.4448 0.0
C813 C 0.70217 0.46757 0.44086 0.0
C814 C 0.74685 0.47069 0.44008 0.0
C815 C 0.7654 0.48697 0.44328 0.0
C816 C 0.7378 0.50026 0.44705 0.0
C817 C 0.693 0.49715 0.4478 0.0
C818 C 0.50429 0.48622 0.42661 0.0
C819 C 0.53775 0.53069 0.44001 0.0
O820 O 0.39483 0.50272 0.43451 0.0
O821 O 0.39456 0.51999 0.44653 0.0
O822 O 0.49439 0.49031 0.4548 0.0
O823 O 0.47063 0.51685 0.45726 0.0
O824 O 0.50634 0.46213 0.44907 0.0
O825 O 0.44072 0.47214 0.44352 0.0
O826 O 0.60636 0.48617 0.45202 0.0
O827 O 0.60556 0.47044 0.43947 0.0
O828 O 0.50556 0.49951 0.43198 0.0
O829 O 0.52586 0.47241 0.42977 0.0
O830 O 0.4961 0.52863 0.43819 0.0
O831 O 0.56144 0.51726 0.44325 0.0
H832 H 0.31222 0.53506 0.44769 0.0
H833 H 0.23402 0.5302 0.44889 0.0
H834 H 0.24834 0.47756 0.43619 0.0
H835 H 0.32662 0.48256 0.43492 0.0
H836 H 0.68909 0.45467 0.43857 0.0
H837 H 0.76707 0.46006 0.43724 0.0
H838 H 0.75086 0.51304 0.44948 0.0
H839 H 0.67278 0.50753 0.45086 0.0
Pr840 Pr 0.33424 0.22916 0.44257 0.0
Pr841 Pr 0.24427 0.24628 0.4434 0.0
C842 C 0.41718 0.21991 0.43864 0.0
C843 C 0.46373 0.22467 0.4398 0.0
C844 C 0.48632 0.22035 0.44779 0.0
C845 C 0.53126 0.22312 0.4484 0.0
C846 C 0.55475 0.23017 0.44102 0.0
C847 C 0.53188 0.23488 0.43312 0.0
C848 C 0.48701 0.23211 0.43251 0.0
C849 C 0.29887 0.22954 0.46001 0.0
C850 C 0.32344 0.27391 0.44616 0.0
C851 C 0.16117 0.25611 0.44677 0.0
C852 C 0.11472 0.25104 0.44571 0.0
C853 C 0.09158 0.25542 0.4378 0.0
C854 C 0.04672 0.25239 0.43726 0.0
C855 C 0.02382 0.24504 0.44464 0.0
C856 C 0.04721 0.24029 0.45247 0.0
C857 C 0.09202 0.2433 0.453 0.0
C858 C 0.28308 0.24647 0.42625 0.0
C859 C 0.25203 0.20193 0.43986 0.0
O860 O 0.39338 0.23038 0.43346 0.0
O861 O 0.39586 0.21338 0.44557 0.0
O862 O 0.29657 0.24251 0.45442 0.0
O863 O 0.32104 0.21602 0.45673 0.0
O864 O 0.28309 0.27078 0.44856 0.0
O865 O 0.3484 0.26086 0.44283 0.0
O866 O 0.18484 0.24662 0.45242 0.0
O867 O 0.18275 0.26148 0.43963 0.0
O868 O 0.28264 0.2332 0.43165 0.0
O869 O 0.26173 0.26025 0.42951 0.0
O870 O 0.29347 0.20406 0.43787 0.0
O871 O 0.22853 0.21532 0.44319 0.0
H872 H 0.46954 0.2144 0.45351 0.0
H873 H 0.54781 0.21914 0.45455 0.0
H874 H 0.54871 0.24059 0.42736 0.0
H875 H 0.47066 0.23542 0.42624 0.0
H876 H 0.10787 0.26163 0.43209 0.0
H877 H 0.02975 0.25642 0.43117 0.0
H878 H 0.03082 0.23436 0.45824 0.0
H879 H 0.10872 0.23994 0.45923 0.0
Pr880 Pr 0.4476 0.22787 0.32325 0.0
Pr881 Pr 0.53836 0.24497 0.32219 0.0
C882 C 0.36497 0.21891 0.32755 0.0
C883 C 0.31839 0.22347 0.32639 0.0
C884 C 0.29818 0.22331 0.31787 0.0
C885 C 0.25325 0.2261 0.31711 0.0
C886 C 0.22756 0.22911 0.32485 0.0
C887 C 0.24814 0.22961 0.33334 0.0
C888 C 0.29295 0.22679 0.33409 0.0
C889 C 0.48266 0.22777 0.30579 0.0
C890 C 0.45868 0.27249 0.31923 0.0
C891 C 0.62129 0.25453 0.31854 0.0
C892 C 0.6677 0.24962 0.31969 0.0
C893 C 0.68777 0.24939 0.32823 0.0
C894 C 0.73259 0.24633 0.329 0.0
C895 C 0.75831 0.2434 0.32126 0.0
C896 C 0.73787 0.24325 0.31275 0.0
C897 C 0.69319 0.24636 0.31198 0.0
C898 C 0.49976 0.24559 0.33935 0.0
C899 C 0.53035 0.20075 0.32617 0.0
O900 O 0.38875 0.2299 0.33245 0.0
O901 O 0.386 0.21185 0.32071 0.0
O902 O 0.48558 0.24077 0.31135 0.0
O903 O 0.45917 0.21462 0.30904 0.0
O904 O 0.49903 0.26925 0.31683 0.0
O905 O 0.43379 0.25958 0.32272 0.0
O906 O 0.59778 0.24444 0.31313 0.0
O907 O 0.59973 0.26053 0.32556 0.0
O908 O 0.49988 0.23226 0.334 0.0
O909 O 0.52163 0.25919 0.33606 0.0
O910 O 0.4888 0.20292 0.32809 0.0
O911 O 0.55391 0.21402 0.32275 0.0
H912 H 0.31689 0.22078 0.3118 0.0
H913 H 0.23861 0.22585 0.31045 0.0
H914 H 0.22944 0.23163 0.33946 0.0
H915 H 0.30762 0.22679 0.34075 0.0
H916 H 0.66907 0.25187 0.3343 0.0
H917 H 0.74713 0.24632 0.33567 0.0
H918 H 0.75663 0.2413 0.30664 0.0
H919 H 0.67867 0.24666 0.30531 0.0
Pr920 Pr 0.33566 0.50328 0.32366 0.0
Pr921 Pr 0.24535 0.48702 0.32297 0.0
C922 C 0.41892 0.5124 0.32729 0.0
C923 C 0.46535 0.50825 0.32562 0.0
C924 C 0.49194 0.52164 0.32172 0.0
C925 C 0.53672 0.5189 0.32089 0.0
C926 C 0.55613 0.50271 0.32398 0.0
C927 C 0.52932 0.48912 0.32771 0.0
C928 C 0.48442 0.49184 0.32852 0.0
C929 C 0.30003 0.50299 0.30622 0.0
C930 C 0.32323 0.45871 0.32017 0.0
C931 C 0.16198 0.47732 0.3199 0.0
C932 C 0.11568 0.48181 0.32146 0.0
C933 C 0.08841 0.46855 0.32526 0.0
C934 C 0.04373 0.47162 0.32604 0.0
C935 C 0.02515 0.48802 0.323 0.0
C936 C 0.05267 0.50148 0.31937 0.0
C937 C 0.09749 0.49842 0.31862 0.0
C938 C 0.28426 0.48683 0.34013 0.0
C939 C 0.25491 0.53125 0.32634 0.0
O940 O 0.39627 0.50109 0.33224 0.0
O941 O 0.39646 0.51973 0.32073 0.0
O942 O 0.2973 0.49008 0.31184 0.0
O943 O 0.32266 0.51637 0.30948 0.0
O944 O 0.28322 0.46231 0.31766 0.0
O945 O 0.34867 0.4715 0.32357 0.0
O946 O 0.18441 0.48774 0.31444 0.0
O947 O 0.18466 0.47114 0.32672 0.0
O948 O 0.28433 0.50001 0.33468 0.0
O949 O 0.26244 0.47317 0.33691 0.0
O950 O 0.29586 0.52846 0.32856 0.0
O951 O 0.23086 0.51816 0.32291 0.0
H952 H 0.4782 0.5345 0.31953 0.0
H953 H 0.55634 0.52977 0.31809 0.0
H954 H 0.54309 0.47639 0.33006 0.0
H955 H 0.46485 0.48125 0.33157 0.0
H956 H 0.10155 0.45556 0.32741 0.0
H957 H 0.02354 0.46086 0.32875 0.0
H958 H 0.03953 0.51435 0.31707 0.0
H959 H 0.11768 0.50893 0.31567 0.0
Pr960 Pr 0.49129 -0.00441 0.07367 0.0
Pr961 Pr 0.58118 0.97806 0.07422 0.0
C962 C 0.40814 0.00579 0.07062 0.0
C963 C 0.36173 0.00135 0.07214 0.0
C964 C 0.33449 0.01448 0.07608 0.0
C965 C 0.28976 0.01145 0.07683 0.0
C966 C 0.27104 -0.00478 0.07361 0.0
C967 C 0.29853 0.98188 0.06984 0.0
C968 C 0.34338 0.9849 0.06913 0.0
C969 C 0.53164 -0.00393 0.09063 0.0
C970 C 0.49855 0.95128 0.07746 0.0
C971 C 0.66439 0.96837 0.07766 0.0
C972 C 0.7109 0.97271 0.07614 0.0
C973 C 0.73784 0.95964 0.07207 0.0
C974 C 0.78264 0.96253 0.07133 0.0
C975 C 0.80173 0.97856 0.0747 0.0
C976 C 0.77455 -0.00817 0.07862 0.0
C977 C 0.72965 0.98895 0.07933 0.0
C978 C 0.54363 0.9783 0.05695 0.0
C979 C 0.57117 0.02271 0.07037 0.0
O980 O 0.43048 -0.00452 0.06509 0.0
O981 O 0.43092 0.0117 0.07748 0.0
O982 O 0.53079 0.98267 0.08532 0.0
O983 O 0.50994 0.00978 0.0874 0.0
O984 O 0.54027 0.95326 0.07924 0.0
O985 O 0.47493 0.9647 0.07419 0.0
O986 O 0.64165 0.97911 0.08291 0.0
O987 O 0.64201 0.96183 0.07088 0.0
O988 O 0.54259 0.99137 0.06249 0.0
O989 O 0.56568 0.9647 0.06019 0.0
O990 O 0.53059 0.01965 0.06809 0.0
O991 O 0.59596 0.00967 0.07377 0.0
H992 H 0.3477 0.02735 0.07837 0.0
H993 H 0.26964 0.02212 0.07967 0.0
H994 H 0.28534 0.96913 0.06741 0.0
H995 H 0.3635 0.97448 0.06607 0.0
H996 H 0.72437 0.94691 0.06965 0.0
H997 H 0.80249 0.9519 0.06838 0.0
H998 H 0.78801 0.00443 0.08118 0.0
H999 H 0.70982 -0.0007 0.08252 0.0
Pr1000 Pr 0.79156 0.23612 0.07301 0.0
Pr1001 Pr 0.70097 0.2525 0.07394 0.0
C1002 C 0.87482 0.22689 0.06947 0.0
C1003 C 0.92111 0.23194 0.07067 0.0
C1004 C 0.94219 0.23009 0.07905 0.0
C1005 C 0.98698 0.23311 0.0798 0.0
C1006 C 1.01173 0.23802 0.07218 0.0
C1007 C 0.99033 0.24028 0.06385 0.0
C1008 C 0.94563 0.23721 0.0631 0.0
C1009 C 0.7535 0.23546 0.09022 0.0
C1010 C 0.78175 0.28038 0.07669 0.0
C1011 C 0.61789 0.26131 0.07793 0.0
C1012 C 0.57147 0.25667 0.07662 0.0
C1013 C 0.55081 0.25879 0.0682 0.0
C1014 C 0.50594 0.25604 0.06737 0.0
C1015 C 0.48074 0.25114 0.07493 0.0
C1016 C 0.50173 0.24865 0.08329 0.0
C1017 C 0.54649 0.25143 0.08412 0.0
C1018 C 0.73628 0.25241 0.05647 0.0
C1019 C 0.71328 0.20792 0.07026 0.0
O1020 O 0.85118 0.23686 0.06402 0.0
O1021 O 0.85324 0.22083 0.07647 0.0
O1022 O 0.75282 0.24877 0.08484 0.0
O1023 O 0.77564 0.22195 0.08691 0.0
O1024 O 0.74071 0.27765 0.07883 0.0
O1025 O 0.80587 0.26729 0.07324 0.0
O1026 O 0.64146 0.2504 0.08292 0.0
O1027 O 0.63938 0.26841 0.07116 0.0
O1028 O 0.73887 0.23945 0.06205 0.0
O1029 O 0.71359 0.26577 0.05975 0.0
O1030 O 0.7535 0.21133 0.06785 0.0
O1031 O 0.68794 0.22078 0.07364 0.0
H1032 H 0.92432 0.22597 0.08502 0.0
H1033 H 1.0023 0.23147 0.08634 0.0
H1034 H 1.00838 0.24379 0.05781 0.0
H1035 H 0.93042 0.2385 0.05653 0.0
H1036 H 0.56908 0.26287 0.06228 0.0
H1037 H 0.49093 0.25786 0.06081 0.0
H1038 H 0.48336 0.24513 0.08928 0.0
H1039 H 0.56145 0.24994 0.09071 0.0
Pr1040 Pr 0.49659 0.2372 0.19405 0.0
Pr1041 Pr 0.594 0.25418 0.19215 0.0
C1042 C 0.41415 0.22861 0.19851 0.0
C1043 C 0.36786 0.2336 0.19737 0.0
C1044 C 0.3475 0.23346 0.18886 0.0
C1045 C 0.30275 0.23667 0.18811 0.0
C1046 C 0.27741 0.24005 0.19586 0.0
C1047 C 0.2982 0.24064 0.20433 0.0
C1048 C 0.34282 0.23741 0.20506 0.0
C1049 C 0.53652 0.23518 0.17708 0.0
C1050 C 0.50848 0.28161 0.1897 0.0
C1051 C 0.67186 0.26284 0.18509 0.0
C1052 C 0.71907 0.26062 0.18644 0.0
C1053 C 0.73803 0.26144 0.19507 0.0
C1054 C 0.78316 0.25987 0.19608 0.0
C1055 C 0.81015 0.25742 0.18848 0.0
C1056 C 0.79076 0.25634 0.17988 0.0
C1057 C 0.74576 0.25794 0.17888 0.0
C1058 C 0.57106 0.2517 0.2105 0.0
C1059 C 0.57827 0.21064 0.19774 0.0
O1060 O 0.43848 0.23943 0.2034 0.0
O1061 O 0.43468 0.22139 0.19162 0.0
O1062 O 0.53783 0.24851 0.18242 0.0
O1063 O 0.512 0.22224 0.18025 0.0
O1064 O 0.55119 0.27983 0.18903 0.0
O1065 O 0.48233 0.26796 0.19176 0.0
O1066 O 0.65002 0.24831 0.18266 0.0
O1067 O 0.65079 0.27342 0.19074 0.0
O1068 O 0.54857 0.24714 0.20376 0.0
O1069 O 0.60786 0.25843 0.20776 0.0
O1070 O 0.53864 0.21471 0.20042 0.0
O1071 O 0.60313 0.22234 0.19328 0.0
H1072 H 0.36589 0.2305 0.18279 0.0
H1073 H 0.28781 0.23594 0.18149 0.0
H1074 H 0.27993 0.24351 0.21042 0.0
H1075 H 0.35769 0.23756 0.21171 0.0
H1076 H 0.71806 0.26345 0.20102 0.0
H1077 H 0.79695 0.26093 0.2028 0.0
H1078 H 0.81034 0.25413 0.1739 0.0
H1079 H 0.73175 0.25718 0.17217 0.0
Pr1080 Pr 0.7973 -0.00181 0.19347 0.0
Pr1081 Pr 0.70744 0.98061 0.19317 0.0
C1082 C 0.8805 0.00851 0.19632 0.0
C1083 C 0.92688 0.00412 0.19476 0.0
C1084 C 0.95472 0.01786 0.19163 0.0
C1085 C 0.99941 0.01475 0.19085 0.0
C1086 C 1.01748 -0.00219 0.19323 0.0
C1087 C 0.98936 0.9839 0.1962 0.0
C1088 C 0.94453 0.98701 0.19694 0.0
C1089 C 0.75627 -0.0018 0.17657 0.0
C1090 C 0.79026 0.95381 0.18994 0.0
C1091 C 0.62437 0.9707 0.18979 0.0
C1092 C 0.57776 0.97477 0.19132 0.0
C1093 C 0.55046 0.96091 0.19453 0.0
C1094 C 0.50562 0.96369 0.19525 0.0
C1095 C 0.48684 0.98043 0.19273 0.0
C1096 C 0.51439 -0.00554 0.18969 0.0
C1097 C 0.55937 0.99168 0.18899 0.0
C1098 C 0.74583 0.98096 0.21034 0.0
C1099 C 0.71725 0.02534 0.19692 0.0
O1100 O 0.85852 -0.00176 0.20192 0.0
O1101 O 0.85745 0.01423 0.18946 0.0
O1102 O 0.75744 0.98497 0.18198 0.0
O1103 O 0.77799 0.01201 0.17967 0.0
O1104 O 0.74852 0.9558 0.18817 0.0
O1105 O 0.81388 0.96729 0.19313 0.0
O1106 O 0.64671 0.98161 0.18457 0.0
O1107 O 0.64698 0.96419 0.19655 0.0
O1108 O 0.74661 -0.00599 0.20478 0.0
O1109 O 0.7235 0.96738 0.20718 0.0
O1110 O 0.75822 0.02243 0.19895 0.0
O1111 O 0.69213 0.0122 0.19375 0.0
H1112 H 0.94198 0.03122 0.18998 0.0
H1113 H 0.01999 0.02586 0.18866 0.0
H1114 H 1.00203 0.97061 0.19797 0.0
H1115 H 0.92384 0.97612 0.19936 0.0
H1116 H 0.56374 0.9477 0.19628 0.0
H1117 H 0.4855 0.95249 0.19751 0.0
H1118 H 0.50118 0.00759 0.1878 0.0
H1119 H 0.57956 0.00265 0.18649 0.0
Pr1120 Pr 0.45312 0.00347 0.94334 0.0
Pr1121 Pr 0.54293 0.98612 0.94384 0.0
C1122 C 0.36998 0.01313 0.93983 0.0
C1123 C 0.32343 0.00875 0.94129 0.0
C1124 C 0.29681 0.02133 0.94582 0.0
C1125 C 0.25198 0.01847 0.94651 0.0
C1126 C 0.23253 0.00299 0.94264 0.0
C1127 C 0.25937 0.9902 0.93826 0.0
C1128 C 0.30429 -0.00696 0.93759 0.0
C1129 C 0.48973 0.00271 0.96067 0.0
C1130 C 0.46359 0.95868 0.94679 0.0
C1131 C 0.62619 0.97589 0.94673 0.0
C1132 C 0.67253 0.98051 0.94521 0.0
C1133 C 0.69949 0.9679 0.9408 0.0
C1134 C 0.7442 0.971 0.94004 0.0
C1135 C 0.76315 0.98677 0.94374 0.0
C1136 C 0.73594 -0.00041 0.94799 0.0
C1137 C 0.69112 -0.00348 0.94871 0.0
C1138 C 0.503 0.98651 0.9268 0.0
C1139 C 0.53559 0.03052 0.94058 0.0
O1140 O 0.39289 0.00248 0.93458 0.0
O1141 O 0.39219 0.01963 0.94665 0.0
O1142 O 0.49146 0.98982 0.95503 0.0
O1143 O 0.46761 0.01635 0.95749 0.0
O1144 O 0.50397 0.96179 0.94919 0.0
O1145 O 0.43875 0.97178 0.94345 0.0
O1146 O 0.60383 0.98588 0.95239 0.0
O1147 O 0.60335 0.97028 0.93981 0.0
O1148 O 0.504 -0.00038 0.93228 0.0
O1149 O 0.52422 0.97257 0.92992 0.0
O1150 O 0.49412 0.02846 0.93858 0.0
O1151 O 0.55896 0.01705 0.94386 0.0
H1152 H 0.31054 0.03367 0.94863 0.0
H1153 H 0.23238 0.02873 0.94983 0.0
H1154 H 0.24562 0.97801 0.9353 0.0
H1155 H 0.32383 0.98308 0.93403 0.0
H1156 H 0.68612 0.95537 0.93813 0.0
H1157 H 0.76412 0.96072 0.93682 0.0
H1158 H 0.74932 0.01199 0.95081 0.0
H1159 H 0.67125 0.00652 0.95215 0.0
Pr1160 Pr 0.33021 0.729 0.94109 0.0
Pr1161 Pr 0.24038 0.74646 0.94135 0.0
C1162 C 0.41346 0.71923 0.93777 0.0
C1163 C 0.45999 0.7234 0.93933 0.0
C1164 C 0.48713 0.70981 0.94289 0.0
C1165 C 0.53196 0.7126 0.94364 0.0
C1166 C 0.55087 0.72907 0.94079 0.0
C1167 C 0.52348 0.74285 0.93739 0.0
C1168 C 0.47854 0.74006 0.93667 0.0
C1169 C 0.29213 0.7294 0.95829 0.0
C1170 C 0.31992 0.77371 0.94479 0.0
C1171 C 0.1571 0.75677 0.94412 0.0
C1172 C 0.11074 0.75229 0.94261 0.0
C1173 C 0.08296 0.76576 0.93916 0.0
C1174 C 0.03826 0.76263 0.93844 0.0
C1175 C 0.02015 0.74593 0.94119 0.0
C1176 C 0.04822 0.73228 0.94447 0.0
C1177 C 0.09305 0.7354 0.94516 0.0
C1178 C 0.28177 0.7466 0.92447 0.0
C1179 C 0.24781 0.70209 0.93786 0.0
O1180 O 0.39102 0.73008 0.93252 0.0
O1181 O 0.39084 0.71269 0.94451 0.0
O1182 O 0.29092 0.74241 0.9527 0.0
O1183 O 0.31455 0.71583 0.95513 0.0
O1184 O 0.27911 0.77069 0.94689 0.0
O1185 O 0.34507 0.76062 0.94156 0.0
O1186 O 0.17922 0.74672 0.94981 0.0
O1187 O 0.18005 0.7623 0.93721 0.0
O1188 O 0.28033 0.73329 0.92984 0.0
O1189 O 0.26018 0.76042 0.92762 0.0
O1190 O 0.28956 0.70409 0.93612 0.0
O1191 O 0.22403 0.71556 0.94101 0.0
H1192 H 0.47377 0.69677 0.9449 0.0
H1193 H 0.55196 0.70159 0.94617 0.0
H1194 H 0.5368 0.75579 0.93524 0.0
H1195 H 0.4585 0.75082 0.93389 0.0
H1196 H 0.09572 0.77894 0.93723 0.0
H1197 H 0.01771 0.77354 0.93599 0.0
H1198 H 0.03551 0.71918 0.94654 0.0
H1199 H 0.11368 0.72472 0.94783 0.0
Pr1200 Pr 0.44454 0.72966 0.82186 0.0
Pr1201 Pr 0.53598 0.74564 0.82039 0.0
C1202 C 0.36211 0.7212 0.82652 0.0
C1203 C 0.31558 0.72569 0.82533 0.0
C1204 C 0.29608 0.72649 0.81674 0.0
C1205 C 0.25117 0.72923 0.81591 0.0
C1206 C 0.22487 0.73124 0.82364 0.0
C1207 C 0.24479 0.73083 0.8322 0.0
C1208 C 0.28957 0.72806 0.83303 0.0
C1209 C 0.47667 0.73013 0.80416 0.0
C1210 C 0.45795 0.7743 0.81847 0.0
C1211 C 0.61886 0.7547 0.81641 0.0
C1212 C 0.66521 0.74977 0.81753 0.0
C1213 C 0.68475 0.74852 0.8261 0.0
C1214 C 0.72956 0.7455 0.8269 0.0
C1215 C 0.75576 0.74364 0.81915 0.0
C1216 C 0.73582 0.74447 0.8106 0.0
C1217 C 0.69113 0.74753 0.80981 0.0
C1218 C 0.50041 0.74561 0.83785 0.0
C1219 C 0.52555 0.70137 0.82379 0.0
O1220 O 0.38612 0.73259 0.83113 0.0
O1221 O 0.38274 0.71356 0.81978 0.0
O1222 O 0.48136 0.7428 0.80985 0.0
O1223 O 0.45278 0.71711 0.8074 0.0
O1224 O 0.49737 0.77065 0.81559 0.0
O1225 O 0.43295 0.76151 0.82202 0.0
O1226 O 0.59495 0.74438 0.81119 0.0
O1227 O 0.59783 0.76109 0.82341 0.0
O1228 O 0.49873 0.73264 0.8323 0.0
O1229 O 0.52259 0.75914 0.83459 0.0
O1230 O 0.48502 0.70426 0.82631 0.0
O1231 O 0.54925 0.71441 0.82019 0.0
H1232 H 0.31534 0.72475 0.81068 0.0
H1233 H 0.23702 0.72972 0.80921 0.0
H1234 H 0.2256 0.73207 0.83831 0.0
H1235 H 0.30379 0.72734 0.83972 0.0
H1236 H 0.66562 0.75017 0.83219 0.0
H1237 H 0.74373 0.74471 0.83359 0.0
H1238 H 0.75497 0.74334 0.80448 0.0
H1239 H 0.67694 0.74861 0.80312 0.0
Pr1240 Pr 0.33706 0.00591 0.82462 0.0
Pr1241 Pr 0.24637 0.98934 0.82303 0.0
C1242 C 0.41935 0.01493 0.82921 0.0
C1243 C 0.46602 0.0106 0.82804 0.0
C1244 C 0.48525 0.00911 0.81945 0.0
C1245 C 0.53021 0.00646 0.8186 0.0
C1246 C 0.55689 0.0052 0.82632 0.0
C1247 C 0.53726 0.00636 0.8349 0.0
C1248 C 0.49243 0.00904 0.83573 0.0
C1249 C 0.30531 0.00507 0.80689 0.0
C1250 C 0.32519 0.96107 0.82137 0.0
C1251 C 0.16343 0.98 0.81915 0.0
C1252 C 0.11704 0.98511 0.82012 0.0
C1253 C 0.09741 0.98726 0.82863 0.0
C1254 C 0.05258 0.99037 0.82933 0.0
C1255 C 0.02638 0.99142 0.82154 0.0
C1256 C 0.04641 0.9897 0.81303 0.0
C1257 C 0.09113 0.98655 0.81234 0.0
C1258 C 0.28139 0.98969 0.84054 0.0
C1259 C 0.25541 0.0337 0.82605 0.0
O1260 O 0.39563 0.00359 0.83391 0.0
O1261 O 0.39844 0.02225 0.82241 0.0
O1262 O 0.30135 -0.00767 0.81257 0.0
O1263 O 0.32768 0.01849 0.8102 0.0
O1264 O 0.28558 0.96436 0.81849 0.0
O1265 O 0.34986 0.97411 0.8248 0.0
O1266 O 0.18761 0.98974 0.81372 0.0
O1267 O 0.18427 0.97427 0.82632 0.0
O1268 O 0.2827 0.00269 0.83499 0.0
O1269 O 0.25999 0.97599 0.83725 0.0
O1270 O 0.29524 0.03099 0.82906 0.0
O1271 O 0.23313 0.02049 0.82223 0.0
H1272 H 0.46569 0.01023 0.81338 0.0
H1273 H 0.54406 0.00539 0.81189 0.0
H1274 H 0.5567 0.00571 0.84099 0.0
H1275 H 0.47846 0.01029 0.84243 0.0
H1276 H 0.11649 0.98624 0.83476 0.0
H1277 H 0.0384 -0.00812 0.83599 0.0
H1278 H 0.0273 0.9902 0.80688 0.0
H1279 H 0.10536 0.98477 0.80569 0.0
C1280 C 0.93013 0.43394 0.08001 0.0
C1281 C 0.97546 0.43426 0.07895 0.0
C1282 C 0.90844 0.41756 0.08131 0.0
C1283 C 0.92372 0.36888 0.08696 0.0
H1284 H 0.81761 0.36341 0.07305 0.0
C1285 C 0.84765 0.29983 0.07795 0.0
C1286 C 0.80223 0.29814 0.07846 0.0
C1287 C 0.86749 0.3166 0.07938 0.0
C1288 C 0.84677 0.36484 0.0771 0.0
H1289 H 0.03391 0.41783 0.07872 0.0
H1290 H 0.99569 0.3889 0.0807 0.0
H1291 H 0.85579 0.39235 0.0729 0.0
H1292 H 0.74204 0.31258 0.08106 0.0
H1293 H 0.77695 0.34212 0.08345 0.0
H1294 H 0.9152 0.34101 0.09085 0.0
C1295 C 0.97705 0.40141 0.08069 0.0
C1296 C 0.86869 0.38141 0.07702 0.0
C1297 C 0.99893 0.41792 0.0795 0.0
C1298 C 0.77708 0.3135 0.08059 0.0
C1299 C 0.79699 0.33037 0.08194 0.0
C1300 C 0.9019 0.35222 0.08698 0.0
C1301 C 0.93147 0.40106 0.08145 0.0
C1302 C 0.90757 0.38359 0.0819 0.0
C1303 C 0.84235 0.33206 0.08128 0.0
C1304 C 0.86345 0.35004 0.08198 0.0
H1305 H 0.91122 0.44639 0.0798 0.0
H1306 H 0.87347 0.41782 0.0821 0.0
H1307 H 0.95324 0.37022 0.09089 0.0
H1308 H 0.86802 0.28822 0.07638 0.0
H1309 H 0.90246 0.31758 0.07872 0.0
C1310 C 0.49896 0.91743 0.07952 0.0
C1311 C 0.47636 0.93401 0.07941 0.0
C1312 C 0.47632 0.90106 0.08056 0.0
C1313 C 0.36642 0.8826 0.07701 0.0
H1314 H 0.41256 0.8402 0.08934 0.0
C1315 C 0.27263 0.81482 0.07902 0.0
C1316 C 0.29709 0.79957 0.0764 0.0
C1317 C 0.29318 0.83145 0.08068 0.0
C1318 C 0.39935 0.85198 0.08588 0.0
H1319 H 0.41308 0.94671 0.08097 0.0
H1320 H 0.37403 0.91836 0.08304 0.0
H1321 H 0.45194 0.86906 0.09008 0.0
H1322 H 0.36232 0.78963 0.07365 0.0
H1323 H 0.39782 0.81856 0.07651 0.0
H1324 H 0.31412 0.86551 0.07274 0.0
C1325 C 0.40883 0.91782 0.082 0.0
C1326 C 0.42193 0.86844 0.08628 0.0
C1327 C 0.43127 0.93407 0.08084 0.0
C1328 C 0.34244 0.80115 0.07562 0.0
C1329 C 0.36292 0.81767 0.07735 0.0
C1330 C 0.34375 0.86622 0.07668 0.0
C1331 C 0.43086 0.90111 0.08162 0.0
C1332 C 0.40595 0.88387 0.08175 0.0
C1333 C 0.3385 0.83299 0.07983 0.0
C1334 C 0.36032 0.85071 0.081 0.0
H1335 H 0.53375 0.91705 0.07844 0.0
H1336 H 0.49418 0.88837 0.08017 0.0
H1337 H 0.35361 0.89412 0.07329 0.0
H1338 H 0.23766 0.81398 0.07971 0.0
H1339 H 0.2737 0.8431 0.08262 0.0
C1340 C 0.78944 0.92006 0.18744 0.0
C1341 C 0.81245 0.9365 0.188 0.0
C1342 C 0.81175 0.90365 0.18622 0.0
C1343 C 0.92072 0.88402 0.18977 0.0
H1344 H 0.87461 0.84353 0.17598 0.0
C1345 C 1.01293 0.81608 0.18604 0.0
C1346 C 0.98786 0.80071 0.18818 0.0
C1347 C 0.99295 0.83298 0.18477 0.0
C1348 C 0.88782 0.85477 0.17984 0.0
H1349 H 0.87638 0.94888 0.18716 0.0
H1350 H 0.91487 0.92048 0.18478 0.0
H1351 H 0.83609 0.87264 0.17597 0.0
H1352 H 0.92217 0.79084 0.19039 0.0
H1353 H 0.88764 0.82024 0.18819 0.0
H1354 H 0.9722 0.86612 0.19369 0.0
C1355 C 0.87992 0.92008 0.1856 0.0
C1356 C 0.86571 0.87137 0.17987 0.0
C1357 C 0.85779 0.93636 0.18693 0.0
C1358 C 0.94249 0.80245 0.18881 0.0
C1359 C 0.92258 0.81924 0.18746 0.0
C1360 C 0.94294 0.86749 0.18967 0.0
C1361 C 0.85733 0.90349 0.18544 0.0
C1362 C 0.88167 0.88611 0.18493 0.0
C1363 C 0.94762 0.83469 0.18551 0.0
C1364 C 0.92637 0.85265 0.18482 0.0
H1365 H 0.75447 0.91982 0.18825 0.0
H1366 H 0.79344 0.89106 0.18621 0.0
H1367 H 0.93351 0.89498 0.19388 0.0
H1368 H 0.04794 0.81512 0.18549 0.0
H1369 H 1.01291 0.84473 0.18324 0.0
C1370 C 0.28901 0.41896 0.18671 0.0
C1371 C 0.31199 0.43524 0.18803 0.0
C1372 C 0.31147 0.40254 0.18559 0.0
C1373 C 0.41759 0.38204 0.19089 0.0
H1374 H 0.38008 0.34374 0.17463 0.0
C1375 C 0.51361 0.31529 0.18715 0.0
C1376 C 0.48828 0.29947 0.18791 0.0
C1377 C 0.49372 0.33222 0.18593 0.0
C1378 C 0.39084 0.35435 0.1792 0.0
H1379 H 0.37636 0.44732 0.18868 0.0
H1380 H 0.4151 0.41894 0.18655 0.0
H1381 H 0.34103 0.37275 0.17485 0.0
H1382 H 0.42231 0.28891 0.18764 0.0
H1383 H 0.38795 0.31835 0.18559 0.0
H1384 H 0.46699 0.36364 0.19532 0.0
C1385 C 0.37992 0.41866 0.18666 0.0
C1386 C 0.36842 0.37088 0.17935 0.0
C1387 C 0.35763 0.43494 0.18785 0.0
C1388 C 0.44286 0.30084 0.18715 0.0
C1389 C 0.42308 0.31769 0.18588 0.0
C1390 C 0.44004 0.36558 0.19071 0.0
C1391 C 0.35719 0.40223 0.1857 0.0
C1392 C 0.38141 0.38484 0.18525 0.0
C1393 C 0.44823 0.33357 0.18539 0.0
C1394 C 0.42665 0.35152 0.18493 0.0
H1395 H 0.25383 0.41882 0.18681 0.0
H1396 H 0.29308 0.39005 0.18493 0.0
H1397 H 0.42792 0.3924 0.19563 0.0
H1398 H 0.54867 0.31467 0.18767 0.0
H1399 H 0.51385 0.34428 0.1855 0.0
C1400 C 0.02461 0.56474 0.93652 0.0
C1401 C 0.04943 0.5496 0.93916 0.0
C1402 C 0.04475 0.58147 0.93488 0.0
C1403 C 0.15037 0.60242 0.92967 0.0
H1404 H 0.10385 0.64442 0.94224 0.0
C1405 C 0.24873 0.66821 0.93591 0.0
C1406 C 0.22583 0.68473 0.93599 0.0
C1407 C 0.22636 0.65177 0.93492 0.0
C1408 C 0.11687 0.63293 0.93853 0.0
H1409 H 0.11488 0.53996 0.94195 0.0
H1410 H 0.14967 0.56905 0.93911 0.0
H1411 H 0.06497 0.61565 0.94282 0.0
H1412 H 0.16228 0.69722 0.93447 0.0
H1413 H 0.12371 0.66872 0.93248 0.0
H1414 H 0.20254 0.61968 0.92544 0.0
C1415 C 0.1148 0.568 0.93826 0.0
C1416 C 0.09455 0.61647 0.93888 0.0
C1417 C 0.09473 0.55139 0.93998 0.0
C1418 C 0.1807 0.68464 0.93461 0.0
C1419 C 0.15854 0.66831 0.9335 0.0
C1420 C 0.17258 0.61896 0.92926 0.0
C1421 C 0.09002 0.5832 0.93576 0.0
C1422 C 0.11143 0.60101 0.93457 0.0
C1423 C 0.18088 0.65166 0.93389 0.0
C1424 C 0.15633 0.63433 0.93378 0.0
H1425 H 0.98968 0.56374 0.93581 0.0
H1426 H 0.025 0.59303 0.93293 0.0
H1427 H 0.1638 0.59068 0.92622 0.0
H1428 H 0.28355 0.66796 0.93695 0.0
H1429 H 0.24448 0.63915 0.93532 0.0
C1430 C 0.76135 0.16705 0.93659 0.0
C1431 C 0.73672 0.18263 0.93859 0.0
C1432 C 0.74081 0.15028 0.93532 0.0
C1433 C 0.63517 0.12906 0.93029 0.0
H1434 H 0.67895 0.08903 0.94474 0.0
C1435 C 0.53512 0.06427 0.93804 0.0
C1436 C 0.55797 0.04779 0.93869 0.0
C1437 C 0.55767 0.08062 0.93681 0.0
C1438 C 0.66669 0.09994 0.94053 0.0
H1439 H 0.67124 0.19304 0.94053 0.0
H1440 H 0.63575 0.16387 0.93834 0.0
H1441 H 0.71846 0.11765 0.94443 0.0
H1442 H 0.62181 0.03524 0.93801 0.0
H1443 H 0.66068 0.0635 0.93564 0.0
H1444 H 0.58314 0.11136 0.92644 0.0
C1445 C 0.67078 0.16459 0.93771 0.0
C1446 C 0.68938 0.11632 0.94036 0.0
C1447 C 0.69123 0.18126 0.93906 0.0
C1448 C 0.60334 0.0478 0.93772 0.0
C1449 C 0.62569 0.064 0.93638 0.0
C1450 C 0.61258 0.11259 0.9304 0.0
C1451 C 0.69537 0.14893 0.93594 0.0
C1452 C 0.67355 0.13109 0.93533 0.0
C1453 C 0.60329 0.08064 0.93612 0.0
C1454 C 0.6279 0.09792 0.9356 0.0
H1455 H 0.79643 0.16773 0.93616 0.0
H1456 H 0.76042 0.13836 0.93392 0.0
H1457 H 0.62251 0.14026 0.92632 0.0
H1458 H 0.50011 0.0646 0.93875 0.0
H1459 H 0.53951 0.09325 0.93671 0.0
C1460 C 0.02558 0.16964 0.83185 0.0
C1461 C 0.04066 0.18184 0.82525 0.0
C1462 C 0.04914 0.15382 0.83381 0.0
C1463 C 0.15907 0.13378 0.83104 0.0
H1464 H 0.09919 0.08759 0.83311 0.0
C1465 C 0.19291 0.0543 0.8232 0.0
C1466 C 0.23326 0.0513 0.82738 0.0
C1467 C 0.16993 0.07028 0.82474 0.0
C1468 C 0.11636 0.10041 0.83258 0.0
H1469 H 0.09113 0.18675 0.81529 0.0
H1470 H 0.13124 0.15914 0.81853 0.0
H1471 H 0.05719 0.11566 0.83226 0.0
H1472 H 0.28143 0.06282 0.83642 0.0
H1473 H 0.2409 0.09106 0.83912 0.0
H1474 H 0.21813 0.11844 0.83078 0.0
C1475 C 0.10217 0.16197 0.82241 0.0
C1476 C 0.09231 0.11649 0.83219 0.0
C1477 C 0.07887 0.17772 0.82048 0.0
C1478 C 0.25049 0.06481 0.83307 0.0
C1479 C 0.22728 0.08091 0.83463 0.0
C1480 C 0.18312 0.11769 0.83137 0.0
C1481 C 0.08801 0.14998 0.82919 0.0
C1482 C 0.11338 0.13328 0.83109 0.0
C1483 C 0.18656 0.0837 0.83053 0.0
C1484 C 0.1619 0.10081 0.83182 0.0
H1485 H 0.99637 0.17256 0.83566 0.0
H1486 H 0.03743 0.14481 0.83907 0.0
H1487 H 0.17623 0.14658 0.8304 0.0
H1488 H 0.1788 0.04427 0.8187 0.0
H1489 H 0.13928 0.07222 0.82127 0.0
C1490 C 0.52216 0.66845 0.82824 0.0
C1491 C 0.54651 0.68366 0.82553 0.0
C1492 C 0.54277 0.65178 0.82985 0.0
C1493 C 0.64923 0.6313 0.83492 0.0
H1494 H 0.6031 0.58884 0.8227 0.0
C1495 C 0.7486 0.56546 0.8291 0.0
C1496 C 0.7259 0.54892 0.82918 0.0
C1497 C 0.72603 0.58192 0.82995 0.0
C1498 C 0.61604 0.60046 0.82631 0.0
H1499 H 0.6116 0.69346 0.82257 0.0
H1500 H 0.64716 0.66451 0.82536 0.0
H1501 H 0.56352 0.61747 0.82202 0.0
H1502 H 0.66256 0.5364 0.83087 0.0
H1503 H 0.62365 0.5649 0.83262 0.0
H1504 H 0.70199 0.61432 0.83916 0.0
C1505 C 0.61232 0.66545 0.82629 0.0
C1506 C 0.59332 0.61685 0.82591 0.0
C1507 C 0.59179 0.68198 0.8246 0.0
C1508 C 0.6808 0.549 0.83059 0.0
C1509 C 0.65845 0.56534 0.83157 0.0
C1510 C 0.67186 0.61485 0.83539 0.0
C1511 C 0.58804 0.65018 0.82888 0.0
C1512 C 0.61 0.63247 0.8301 0.0
C1513 C 0.68056 0.582 0.83101 0.0
C1514 C 0.65574 0.5993 0.831 0.0
H1515 H 0.48726 0.66935 0.82904 0.0
H1516 H 0.52339 0.64017 0.83187 0.0
H1517 H 0.66255 0.64316 0.83828 0.0
H1518 H 0.78339 0.56572 0.82802 0.0
H1519 H 0.74398 0.59455 0.82943 0.0
C1520 C 1.00098 0.91765 0.57995 0.0
C1521 C 0.97757 0.93404 0.57966 0.0
C1522 C 0.97909 0.90112 0.58103 0.0
C1523 C 0.87042 0.8815 0.57736 0.0
H1524 H 0.91767 0.84012 0.59035 0.0
C1525 C 0.77869 0.81346 0.5801 0.0
C1526 C 0.80357 0.79818 0.57769 0.0
C1527 C 0.79883 0.83022 0.58161 0.0
C1528 C 0.90416 0.8516 0.58671 0.0
H1529 H 0.91352 0.9462 0.58087 0.0
H1530 H 0.87576 0.91757 0.58301 0.0
H1531 H 0.95577 0.8693 0.59081 0.0
H1532 H 0.86912 0.7883 0.57525 0.0
H1533 H 0.90396 0.8175 0.57789 0.0
H1534 H 0.81908 0.8638 0.57321 0.0
C1535 C 0.91066 0.91731 0.58209 0.0
C1536 C 0.92601 0.86825 0.58694 0.0
C1537 C 0.93236 0.93373 0.5809 0.0
C1538 C 0.84895 0.79985 0.57704 0.0
C1539 C 0.86903 0.81652 0.57864 0.0
C1540 C 0.84848 0.86493 0.5772 0.0
C1541 C 0.93358 0.90079 0.58194 0.0
C1542 C 0.90958 0.88332 0.58218 0.0
C1543 C 0.84415 0.83189 0.58084 0.0
C1544 C 0.86542 0.84979 0.58177 0.0
H1545 H 0.03588 0.91756 0.57902 0.0
H1546 H 0.99764 0.88859 0.58082 0.0
H1547 H 0.85731 0.89272 0.57347 0.0
H1548 H 0.74369 0.81256 0.58067 0.0
H1549 H 0.77899 0.84189 0.58335 0.0
C1550 C 0.28683 0.31334 0.5793 0.0
C1551 C 0.30973 0.29685 0.57882 0.0
C1552 C 0.30924 0.32971 0.58053 0.0
C1553 C 0.4185 0.34899 0.57707 0.0
H1554 H 0.37244 0.38986 0.59061 0.0
C1555 C 0.51126 0.41677 0.58048 0.0
C1556 C 0.48635 0.43215 0.57823 0.0
C1557 C 0.4911 0.39995 0.58185 0.0
C1558 C 0.38564 0.37851 0.58682 0.0
H1559 H 0.37346 0.28431 0.57985 0.0
H1560 H 0.41212 0.31264 0.58223 0.0
H1561 H 0.33362 0.36084 0.5907 0.0
H1562 H 0.42076 0.44212 0.57594 0.0
H1563 H 0.38593 0.41287 0.57832 0.0
H1564 H 0.47025 0.36668 0.57313 0.0
C1565 C 0.37722 0.31312 0.58135 0.0
C1566 C 0.36336 0.36196 0.58684 0.0
C1567 C 0.35499 0.29688 0.58 0.0
C1568 C 0.44096 0.4305 0.5776 0.0
C1569 C 0.42088 0.41379 0.57906 0.0
C1570 C 0.44088 0.36546 0.57712 0.0
C1571 C 0.35479 0.32977 0.5814 0.0
C1572 C 0.37931 0.34709 0.58187 0.0
C1573 C 0.44575 0.39834 0.5811 0.0
C1574 C 0.42434 0.38043 0.58188 0.0
H1575 H 0.25191 0.31365 0.57841 0.0
H1576 H 0.29106 0.34234 0.58047 0.0
H1577 H 0.43128 0.33791 0.57303 0.0
H1578 H 0.54627 0.41765 0.58104 0.0
H1579 H 0.51093 0.3882 0.58346 0.0
C1580 C 0.99911 0.31693 0.68776 0.0
C1581 C 0.977 0.30038 0.68664 0.0
C1582 C 0.97682 0.33344 0.68688 0.0
C1583 C 0.86566 0.35159 0.68868 0.0
H1584 H 0.91723 0.3955 0.67888 0.0
C1585 C 0.77326 0.42009 0.68694 0.0
C1586 C 0.79677 0.4351 0.6902 0.0
C1587 C 0.7942 0.40347 0.6854 0.0
C1588 C 0.90249 0.38332 0.68165 0.0
H1589 H 0.91512 0.2881 0.68311 0.0
H1590 H 0.87678 0.31676 0.68139 0.0
H1591 H 0.95693 0.36674 0.67797 0.0
H1592 H 0.86073 0.44448 0.69435 0.0
H1593 H 0.89679 0.41561 0.69172 0.0
H1594 H 0.8115 0.3682 0.69245 0.0
C1595 C 0.91084 0.31706 0.68322 0.0
C1596 C 0.92524 0.3669 0.68115 0.0
C1597 C 0.93291 0.30064 0.68418 0.0
C1598 C 0.84154 0.4332 0.69184 0.0
C1599 C 0.8624 0.41669 0.69026 0.0
C1600 C 0.84287 0.36798 0.68913 0.0
C1601 C 0.9322 0.33363 0.68479 0.0
C1602 C 0.90728 0.3509 0.68476 0.0
C1603 C 0.839 0.40167 0.68703 0.0
C1604 C 0.86134 0.38404 0.68575 0.0
H1605 H 0.03309 0.31712 0.68966 0.0
H1606 H 0.99413 0.346 0.68819 0.0
H1607 H 0.85119 0.33958 0.69167 0.0
H1608 H 0.73877 0.42116 0.68559 0.0
H1609 H 0.77546 0.39207 0.68288 0.0
C1610 C 0.43705 0.80157 0.68423 0.0
C1611 C 0.48148 0.8011 0.68641 0.0
C1612 C 0.41546 0.8181 0.68329 0.0
C1613 C 0.43134 0.86773 0.68067 0.0
H1614 H 0.31919 0.87014 0.69259 0.0
C1615 C 0.34999 0.93493 0.69095 0.0
C1616 C 0.30499 0.93678 0.68959 0.0
C1617 C 0.37055 0.91833 0.68942 0.0
C1618 C 0.35011 0.86961 0.6891 0.0
H1619 H 0.53857 0.81756 0.68895 0.0
H1620 H 0.50045 0.84664 0.68752 0.0
H1621 H 0.35796 0.8413 0.69192 0.0
H1622 H 0.24632 0.92267 0.68549 0.0
H1623 H 0.28247 0.89346 0.68289 0.0
H1624 H 0.4238 0.89626 0.6781 0.0
C1625 C 0.48252 0.83416 0.68641 0.0
C1626 C 0.37236 0.8531 0.68871 0.0
C1627 C 0.50432 0.81753 0.68728 0.0
C1628 C 0.28099 0.92165 0.68662 0.0
C1629 C 0.30163 0.90495 0.68515 0.0
C1630 C 0.40912 0.88429 0.68109 0.0
C1631 C 0.43765 0.83458 0.68459 0.0
C1632 C 0.41338 0.852 0.68456 0.0
C1633 C 0.34661 0.90317 0.68654 0.0
C1634 C 0.36851 0.8854 0.6854 0.0
H1635 H 0.41867 0.78912 0.68335 0.0
H1636 H 0.38115 0.81797 0.68166 0.0
H1637 H 0.46258 0.86726 0.67731 0.0
H1638 H 0.36955 0.94631 0.6932 0.0
H1639 H 0.40513 0.91727 0.69069 0.0
C1640 C 0.02593 0.06553 0.43691 0.0
C1641 C 0.0503 0.05008 0.43928 0.0
C1642 C 0.04663 0.0822 0.43545 0.0
C1643 C 0.15285 0.10296 0.43048 0.0
H1644 H 0.1078 0.14414 0.44392 0.0
C1645 C 0.2526 0.16811 0.43762 0.0
C1646 C 0.22983 0.18465 0.43795 0.0
C1647 C 0.23004 0.15174 0.43648 0.0
C1648 C 0.12043 0.1329 0.43997 0.0
H1649 H 0.11554 0.03982 0.44171 0.0
H1650 H 0.15131 0.06882 0.43919 0.0
H1651 H 0.06818 0.11554 0.44399 0.0
H1652 H 0.16631 0.19728 0.4367 0.0
H1653 H 0.12743 0.16897 0.43446 0.0
H1654 H 0.20539 0.1203 0.42653 0.0
C1655 C 0.11636 0.06806 0.43842 0.0
C1656 C 0.09767 0.11652 0.44002 0.0
C1657 C 0.09573 0.0515 0.43995 0.0
C1658 C 0.18464 0.18468 0.43668 0.0
C1659 C 0.16229 0.16844 0.43541 0.0
C1660 C 0.17552 0.11941 0.43037 0.0
C1661 C 0.09201 0.08359 0.43624 0.0
C1662 C 0.11396 0.10135 0.43538 0.0
C1663 C 0.18452 0.15176 0.43554 0.0
C1664 C 0.15976 0.1345 0.4352 0.0
H1665 H 0.9909 0.06482 0.43631 0.0
H1666 H 0.02721 0.09402 0.43374 0.0
H1667 H 0.16587 0.09144 0.42679 0.0
H1668 H 0.28748 0.16777 0.43858 0.0
H1669 H 0.24805 0.13908 0.43667 0.0
C1670 C 0.68893 0.68197 0.43847 0.0
C1671 C 0.7343 0.68369 0.43784 0.0
C1672 C 0.66905 0.6652 0.43709 0.0
C1673 C 0.68972 0.61702 0.43936 0.0
H1674 H 0.58277 0.61167 0.42573 0.0
C1675 C 0.60509 0.54812 0.43691 0.0
C1676 C 0.55979 0.54799 0.43802 0.0
C1677 C 0.62706 0.56439 0.43548 0.0
C1678 C 0.61243 0.613 0.42961 0.0
H1679 H 0.79439 0.66927 0.43509 0.0
H1680 H 0.7594 0.63971 0.4328 0.0
H1681 H 0.62108 0.64082 0.42563 0.0
H1682 H 0.50167 0.56463 0.43825 0.0
H1683 H 0.5404 0.59338 0.43606 0.0
H1684 H 0.68052 0.58959 0.44366 0.0
C1685 C 0.73944 0.65145 0.43436 0.0
C1686 C 0.63441 0.62962 0.42951 0.0
C1687 C 0.75939 0.66833 0.43565 0.0
C1688 C 0.53663 0.5644 0.43742 0.0
C1689 C 0.55879 0.5808 0.43611 0.0
C1690 C 0.66763 0.60049 0.43952 0.0
C1691 C 0.69412 0.64976 0.43512 0.0
C1692 C 0.673 0.63179 0.43447 0.0
C1693 C 0.60435 0.58096 0.43528 0.0
C1694 C 0.62855 0.59834 0.4347 0.0
H1695 H 0.66862 0.69358 0.44008 0.0
H1696 H 0.63412 0.6642 0.43783 0.0
H1697 H 0.71901 0.61845 0.44336 0.0
H1698 H 0.62377 0.53562 0.43716 0.0
H1699 H 0.662 0.564 0.43464 0.0
C1700 C 0.2595 0.56444 0.33011 0.0
C1701 C 0.23439 0.54904 0.32804 0.0
C1702 C 0.23952 0.58133 0.33139 0.0
C1703 C 0.1346 0.60323 0.33637 0.0
H1704 H 0.17986 0.64307 0.322 0.0
C1705 C 0.03631 0.66847 0.32857 0.0
C1706 C 0.05942 0.68487 0.32789 0.0
C1707 C 0.05855 0.65205 0.32983 0.0
C1708 C 0.16721 0.63222 0.3262 0.0
H1709 H 0.16864 0.53909 0.326 0.0
H1710 H 0.13409 0.56849 0.32822 0.0
H1711 H 0.21844 0.61419 0.32231 0.0
H1712 H 0.12348 0.69718 0.32855 0.0
H1713 H 0.16185 0.66878 0.33099 0.0
H1714 H 0.08311 0.62124 0.34021 0.0
C1715 C 0.16906 0.56752 0.32888 0.0
C1716 C 0.18936 0.61568 0.32636 0.0
C1717 C 0.18897 0.55072 0.32752 0.0
C1718 C 0.1048 0.68469 0.32887 0.0
C1719 C 0.12686 0.6684 0.33024 0.0
C1720 C 0.11256 0.61985 0.33626 0.0
C1721 C 0.19415 0.583 0.33072 0.0
C1722 C 0.17295 0.60098 0.33134 0.0
C1723 C 0.10416 0.65185 0.33053 0.0
C1724 C 0.12839 0.63446 0.33109 0.0
H1725 H 0.29455 0.56352 0.33058 0.0
H1726 H 0.2595 0.59311 0.33284 0.0
H1727 H 0.12151 0.59209 0.34032 0.0
H1728 H 1.0013 0.66826 0.32784 0.0
H1729 H 0.04015 0.63949 0.32994 0.0
C1730 C 0.68973 0.05124 0.32731 0.0
C1731 C 0.73511 0.04979 0.32812 0.0
C1732 C 0.66897 0.06778 0.32883 0.0
C1733 C 0.68742 0.11623 0.32739 0.0
H1734 H 0.57809 0.11968 0.34034 0.0
C1735 C 0.59777 0.18396 0.32992 0.0
C1736 C 0.55278 0.18364 0.32836 0.0
C1737 C 0.6205 0.1679 0.33144 0.0
C1738 C 0.60843 0.11888 0.33666 0.0
H1739 H 0.79427 0.06445 0.33131 0.0
H1740 H 0.75771 0.09365 0.33386 0.0
H1741 H 0.61839 0.09098 0.34033 0.0
H1742 H 0.49585 0.16643 0.32752 0.0
H1743 H 0.53602 0.13801 0.32987 0.0
H1744 H 0.67699 0.14378 0.32339 0.0
C1745 C 0.73844 0.08186 0.33206 0.0
C1746 C 0.63155 0.10252 0.33669 0.0
C1747 C 0.7593 0.06519 0.33061 0.0
C1748 C 0.53056 0.16699 0.32868 0.0
C1749 C 0.55354 0.15079 0.33008 0.0
C1750 C 0.66423 0.13252 0.3273 0.0
C1751 C 0.69311 0.08327 0.33113 0.0
C1752 C 0.67097 0.10102 0.33196 0.0
C1753 C 0.59892 0.15109 0.3313 0.0
C1754 C 0.62428 0.13398 0.33186 0.0
H1755 H 0.67005 0.0396 0.32546 0.0
H1756 H 0.63408 0.06856 0.32795 0.0
H1757 H 0.71734 0.11534 0.32356 0.0
H1758 H 0.61564 0.19667 0.32992 0.0
H1759 H 0.6552 0.16865 0.3326 0.0
C1760 C 0.05605 0.51255 0.10427 0.0
C1761 C 0.05016 0.49629 0.09944 0.0
C1762 C 0.07849 0.51261 0.11251 0.0
C1763 C 0.15327 0.48412 0.12672 0.0
H1764 H 0.12011 0.51838 0.14543 0.0
C1765 C 0.21735 0.48035 0.16365 0.0
C1766 C 0.23272 0.49676 0.16734 0.0
C1767 C 0.19539 0.48023 0.15535 0.0
C1768 C 0.1299 0.5088 0.14024 0.0
H1769 H 0.06277 0.46728 0.09949 0.0
H1770 H 0.10024 0.46716 0.114 0.0
H1771 H 0.0807 0.51808 0.13114 0.0
H1772 H 0.23661 0.52593 0.16531 0.0
H1773 H 0.19745 0.52576 0.15089 0.0
H1774 H 0.20167 0.47454 0.13602 0.0
C1775 C 0.08879 0.48004 0.11136 0.0
C1776 C 0.10746 0.50867 0.132 0.0
C1777 C 0.06692 0.48005 0.10305 0.0
C1778 C 0.22529 0.51307 0.16261 0.0
C1779 C 0.20269 0.51298 0.15439 0.0
C1780 C 0.17523 0.48407 0.13501 0.0
C1781 C 0.09511 0.49634 0.11622 0.0
C1782 C 0.11888 0.49638 0.12508 0.0
C1783 C 0.18764 0.49656 0.15064 0.0
C1784 C 0.16394 0.49646 0.14186 0.0
H1785 H 0.04385 0.52532 0.10161 0.0
H1786 H 0.0833 0.52552 0.1159 0.0
H1787 H 0.16383 0.47468 0.12154 0.0
H1788 H 0.2225 0.46758 0.16716 0.0
H1789 H 0.18389 0.46738 0.15267 0.0
C1790 C 0.21921 0.72179 0.10225 0.0
C1791 C 0.22519 0.738 0.09738 0.0
C1792 C 0.19831 0.72195 0.11067 0.0
C1793 C 0.12835 0.75124 0.12554 0.0
H1794 H 0.16227 0.71618 0.14383 0.0
C1795 C 0.0718 0.75494 0.16303 0.0
C1796 C 0.05546 0.73868 0.16671 0.0
C1797 C 0.09218 0.755 0.15456 0.0
C1798 C 0.15229 0.72599 0.13877 0.0
H1799 H 0.21432 0.76713 0.09752 0.0
H1800 H 0.17965 0.76761 0.11233 0.0
H1801 H 0.19907 0.71626 0.12925 0.0
H1802 H 0.04821 0.70969 0.16446 0.0
H1803 H 0.0847 0.70972 0.14975 0.0
H1804 H 0.08249 0.76128 0.13527 0.0
C1805 C 0.18977 0.75462 0.1096 0.0
C1806 C 0.17321 0.72599 0.13036 0.0
C1807 C 0.21004 0.7544 0.10111 0.0
C1808 C 0.06031 0.72245 0.16178 0.0
C1809 C 0.08139 0.72244 0.15339 0.0
C1810 C 0.10797 0.75142 0.13401 0.0
C1811 C 0.18342 0.73838 0.11451 0.0
C1812 C 0.16143 0.73855 0.12357 0.0
C1813 C 0.0974 0.73873 0.14966 0.0
C1814 C 0.11953 0.73873 0.1407 0.0
H1815 H 0.23016 0.70891 0.09951 0.0
H1816 H 0.19335 0.70908 0.11408 0.0
H1817 H 0.11754 0.76091 0.12049 0.0
H1818 H 0.06863 0.76766 0.16669 0.0
H1819 H 0.10448 0.76773 0.1519 0.0
C1820 C 0.80893 0.47067 0.85457 0.0
C1821 C 0.80192 0.48698 0.84982 0.0
C1822 C 0.83118 0.47072 0.86284 0.0
C1823 C 0.85775 0.49956 0.88227 0.0
H1824 H 0.95235 0.46568 0.88634 0.0
C1825 C 0.96399 0.50367 0.91452 0.0
C1826 C 0.9808 0.48747 0.91815 0.0
C1827 C 0.9427 0.50367 0.90615 0.0
C1828 C 0.92556 0.47505 0.88542 0.0
H1829 H 0.81257 0.51614 0.85001 0.0
H1830 H 0.8505 0.51628 0.86457 0.0
H1831 H 0.91363 0.46534 0.87196 0.0
H1832 H 0.98786 0.45848 0.91595 0.0
H1833 H 0.94937 0.45824 0.90155 0.0
H1834 H 0.86835 0.50893 0.89577 0.0
C1835 C 0.83896 0.50345 0.86187 0.0
C1836 C 0.90352 0.4749 0.87713 0.0
C1837 C 0.81738 0.50336 0.85353 0.0
C1838 C 0.9756 0.47122 0.91328 0.0
C1839 C 0.95372 0.47114 0.90497 0.0
C1840 C 0.87928 0.49953 0.89061 0.0
C1841 C 0.84626 0.48712 0.8666 0.0
C1842 C 0.86948 0.4872 0.87544 0.0
C1843 C 0.93699 0.48738 0.90124 0.0
C1844 C 0.9137 0.48732 0.89232 0.0
H1845 H 0.79754 0.45783 0.85185 0.0
H1846 H 0.8361 0.45793 0.86635 0.0
H1847 H 0.8313 0.50906 0.8812 0.0
H1848 H 0.96762 0.51643 0.91812 0.0
H1849 H 0.9312 0.51653 0.90349 0.0
C1850 C 0.97166 0.25906 0.85251 0.0
C1851 C 0.97586 0.2429 0.84751 0.0
C1852 C 0.95116 0.259 0.86097 0.0
C1853 C 0.92485 0.22987 0.88033 0.0
H1854 H 0.83532 0.26555 0.88541 0.0
C1855 C 0.82483 0.22749 0.91358 0.0
C1856 C 0.81035 0.24399 0.91732 0.0
C1857 C 0.84468 0.22713 0.90504 0.0
C1858 C 0.86076 0.25566 0.88421 0.0
H1859 H 0.96215 0.21397 0.84745 0.0
H1860 H 0.92729 0.21378 0.86235 0.0
H1861 H 0.87116 0.26552 0.87073 0.0
H1862 H 0.80627 0.27309 0.91518 0.0
H1863 H 0.84236 0.27267 0.90053 0.0
H1864 H 0.9158 0.22033 0.89386 0.0
C1865 C 0.93966 0.22651 0.8597 0.0
C1866 C 0.88113 0.2556 0.87574 0.0
C1867 C 0.95948 0.22663 0.85117 0.0
C1868 C 0.81669 0.26014 0.91242 0.0
C1869 C 0.83716 0.25984 0.90397 0.0
C1870 C 0.90502 0.23011 0.88886 0.0
C1871 C 0.93504 0.24272 0.86468 0.0
C1872 C 0.91335 0.2427 0.87369 0.0
C1873 C 0.85125 0.24331 0.90009 0.0
C1874 C 0.87256 0.243 0.89095 0.0
H1875 H 0.98382 0.27182 0.84985 0.0
H1876 H 0.94835 0.27168 0.86467 0.0
H1877 H 0.9499 0.21986 0.87898 0.0
H1878 H 0.82028 0.2148 0.91719 0.0
H1879 H 0.85424 0.21407 0.9023 0.0
C1880 C 0.07095 0.98016 0.6036 0.0
C1881 C 0.0551 -0.00361 0.59981 0.0
C1882 C 0.0926 0.98031 0.61194 0.0
C1883 C 0.11181 0.00974 0.6323 0.0
H1884 H 0.20374 0.97487 0.63698 0.0
C1885 C 0.22796 0.01444 0.66318 0.0
C1886 C 0.23368 -0.00168 0.66816 0.0
C1887 C 0.2061 0.01419 0.65487 0.0
C1888 C 0.17795 0.98462 0.63578 0.0
H1889 H 0.05033 0.02556 0.60166 0.0
H1890 H 0.08945 0.02602 0.61597 0.0
H1891 H 0.1667 0.97465 0.62241 0.0
H1892 H 0.22128 0.96928 0.66832 0.0
H1893 H 0.18402 0.96878 0.65369 0.0
H1894 H 0.12432 0.02001 0.64562 0.0
C1895 C 0.08403 0.01302 0.61273 0.0
C1896 C 0.15644 0.98446 0.62743 0.0
C1897 C 0.0618 0.0128 0.60447 0.0
C1898 C 0.21746 0.98192 0.66462 0.0
C1899 C 0.19626 0.98162 0.65624 0.0
C1900 C 0.13383 0.01008 0.64058 0.0
C1901 C 0.0996 -0.00324 0.61664 0.0
C1902 C 0.12288 -0.00302 0.62556 0.0
C1903 C 0.19015 -0.00224 0.65129 0.0
C1904 C 0.16704 -0.00251 0.64244 0.0
H1905 H 0.06616 0.96728 0.60017 0.0
H1906 H 0.10325 0.96745 0.61474 0.0
H1907 H 0.08565 0.01937 0.63125 0.0
H1908 H 0.23998 0.0273 0.66575 0.0
H1909 H 0.20211 0.02683 0.65118 0.0
C1910 C 0.22521 0.21844 0.60369 0.0
C1911 C 0.2322 0.23478 0.59899 0.0
C1912 C 0.20316 0.21839 0.61198 0.0
C1913 C 0.13175 0.24754 0.62663 0.0
H1914 H 0.16233 0.21202 0.64496 0.0
C1915 C 0.07113 0.25185 0.6637 0.0
C1916 C 0.05345 0.23582 0.66736 0.0
C1917 C 0.09282 0.25154 0.65538 0.0
C1918 C 0.15326 0.22195 0.63988 0.0
H1919 H 0.222 0.26395 0.59932 0.0
H1920 H 0.18533 0.26406 0.61391 0.0
H1921 H 0.20082 0.21208 0.63055 0.0
H1922 H 0.04539 0.20683 0.66526 0.0
H1923 H 0.0842 0.20621 0.65078 0.0
H1924 H 0.08514 0.25772 0.63615 0.0
C1925 C 0.19551 0.25112 0.61113 0.0
C1926 C 0.17517 0.22196 0.63157 0.0
C1927 C 0.21695 0.25111 0.60277 0.0
C1928 C 0.05855 0.21941 0.66259 0.0
C1929 C 0.08091 0.21904 0.65433 0.0
C1930 C 0.11039 0.24771 0.63499 0.0
C1931 C 0.18807 0.23474 0.61587 0.0
C1932 C 0.16473 0.23473 0.62478 0.0
C1933 C 0.09798 0.23514 0.65059 0.0
C1934 C 0.12081 0.2349 0.64171 0.0
H1935 H 0.23625 0.20561 0.60089 0.0
H1936 H 0.19746 0.20543 0.61526 0.0
H1937 H 0.12186 0.25736 0.62157 0.0
H1938 H 0.06782 0.2647 0.66723 0.0
H1939 H 0.10596 0.26413 0.65272 0.0
C1940 C 0.97029 0.97213 0.41356 0.0
C1941 C 0.97668 0.98842 0.41836 0.0
C1942 C 0.94872 0.97219 0.40522 0.0
C1943 C 0.92336 0.00101 0.38572 0.0
H1944 H 0.8299 0.96681 0.3813 0.0
C1945 C 0.82042 0.0044 0.35296 0.0
C1946 C 0.80437 0.98809 0.34932 0.0
C1947 C 0.84085 0.00458 0.36143 0.0
C1948 C 0.85639 0.97627 0.38232 0.0
H1949 H 0.96569 0.01756 0.41818 0.0
H1950 H 0.92893 0.01773 0.40348 0.0
H1951 H 0.86715 0.96669 0.39584 0.0
H1952 H 0.79785 0.9591 0.35157 0.0
H1953 H 0.83489 0.95918 0.36614 0.0
H1954 H 0.91393 0.01025 0.37215 0.0
C1955 C 0.94042 0.00491 0.4062 0.0
C1956 C 0.87758 0.97625 0.3907 0.0
C1957 C 0.96132 0.0048 0.41462 0.0
C1958 C 0.80952 0.97192 0.35426 0.0
C1959 C 0.83056 0.97202 0.36266 0.0
C1960 C 0.90269 0.00085 0.37728 0.0
C1961 C 0.93372 0.98859 0.40142 0.0
C1962 C 0.91121 0.98864 0.39251 0.0
C1963 C 0.84645 0.98837 0.36641 0.0
C1964 C 0.86874 0.98851 0.37544 0.0
H1965 H 0.98164 0.95929 0.41629 0.0
H1966 H 0.94428 0.95942 0.40168 0.0
H1967 H 0.94951 0.01059 0.38688 0.0
H1968 H 0.8168 0.0171 0.34931 0.0
H1969 H 0.85175 0.01752 0.36409 0.0
C1970 C 0.96551 0.72998 0.35191 0.0
C1971 C 0.98055 0.74642 0.34819 0.0
C1972 C 0.944 0.72982 0.36026 0.0
C1973 C 0.87923 0.75825 0.37555 0.0
H1974 H 0.9152 0.72433 0.39419 0.0
C1975 C 0.80857 0.76212 0.41179 0.0
C1976 C 0.80345 0.74589 0.41669 0.0
C1977 C 0.83018 0.76215 0.40346 0.0
C1978 C 0.90406 0.7337 0.38904 0.0
H1979 H 0.98426 0.77559 0.35021 0.0
H1980 H 0.94586 0.77535 0.36471 0.0
H1981 H 0.95181 0.72419 0.37958 0.0
H1982 H 0.81651 0.71692 0.41668 0.0
H1983 H 0.8525 0.71674 0.402 0.0
H1984 H 0.83066 0.76746 0.38481 0.0
C1985 C 0.95102 0.76259 0.3612 0.0
C1986 C 0.92532 0.73366 0.38066 0.0
C1987 C 0.97318 0.76271 0.35293 0.0
C1988 C 0.82009 0.72966 0.41306 0.0
C1989 C 0.84112 0.72962 0.40466 0.0
C1990 C 0.85747 0.75811 0.38387 0.0
C1991 C 0.93637 0.74613 0.36499 0.0
C1992 C 0.9133 0.74599 0.37384 0.0
C1993 C 0.84671 0.74589 0.39973 0.0
C1994 C 0.86965 0.74589 0.39078 0.0
H1995 H 0.97063 0.71722 0.3484 0.0
H1996 H 0.9328 0.71695 0.36297 0.0
H1997 H 0.86889 0.76778 0.37039 0.0
H1998 H 0.79644 0.77488 0.41447 0.0
H1999 H 0.83446 0.77503 0.40002 0.0
C2000 C 0.56079 0.51085 0.60409 0.0
C2001 C 0.55553 0.49452 0.59929 0.0
C2002 C 0.58205 0.51103 0.61247 0.0
C2003 C 0.65428 0.48264 0.62732 0.0
H2004 H 0.61936 0.51766 0.64554 0.0
C2005 C 0.71202 0.4799 0.66476 0.0
C2006 C 0.72779 0.49633 0.66836 0.0
C2007 C 0.69147 0.47958 0.65631 0.0
C2008 C 0.62963 0.50787 0.6405 0.0
H2009 H 0.56805 0.46551 0.59952 0.0
H2010 H 0.60334 0.46559 0.61427 0.0
H2011 H 0.58195 0.51704 0.63102 0.0
H2012 H 0.73387 0.52533 0.666 0.0
H2013 H 0.69704 0.52483 0.65131 0.0
H2014 H 0.70102 0.47314 0.63701 0.0
C2015 C 0.59237 0.47844 0.61151 0.0
C2016 C 0.60835 0.50755 0.63212 0.0
C2017 C 0.57174 0.47833 0.60306 0.0
C2018 C 0.72221 0.51246 0.66338 0.0
C2019 C 0.70095 0.51219 0.655 0.0
C2020 C 0.67501 0.48276 0.63576 0.0
C2021 C 0.59804 0.49481 0.61635 0.0
C2022 C 0.62046 0.49499 0.62536 0.0
C2023 C 0.68549 0.49573 0.65135 0.0
C2024 C 0.66309 0.49545 0.64242 0.0
H2025 H 0.54903 0.52358 0.60131 0.0
H2026 H 0.58645 0.524 0.61582 0.0
H2027 H 0.66537 0.47299 0.6223 0.0
H2028 H 0.71575 0.46727 0.66847 0.0
H2029 H 0.67961 0.46673 0.6537 0.0
C2030 C 0.72366 0.71944 0.60286 0.0
C2031 C 0.73018 0.73579 0.59814 0.0
C2032 C 0.70204 0.71935 0.6112 0.0
C2033 C 0.63097 0.74835 0.62596 0.0
H2034 H 0.66297 0.71294 0.64425 0.0
C2035 C 0.57275 0.75258 0.66319 0.0
C2036 C 0.55503 0.73656 0.66685 0.0
C2037 C 0.59398 0.75229 0.65482 0.0
C2038 C 0.65352 0.72284 0.63918 0.0
H2039 H 0.71963 0.76493 0.59848 0.0
H2040 H 0.68372 0.76499 0.61316 0.0
H2041 H 0.7008 0.71309 0.62977 0.0
H2042 H 0.54642 0.70761 0.66471 0.0
H2043 H 0.58449 0.70702 0.65014 0.0
H2044 H 0.58468 0.75842 0.63558 0.0
C2045 C 0.69393 0.75207 0.61036 0.0
C2046 C 0.67504 0.72289 0.63083 0.0
C2047 C 0.71491 0.75209 0.60195 0.0
C2048 C 0.55962 0.72017 0.66204 0.0
C2049 C 0.58155 0.71982 0.65373 0.0
C2050 C 0.61002 0.74848 0.63437 0.0
C2051 C 0.68694 0.73568 0.61511 0.0
C2052 C 0.66405 0.73563 0.62407 0.0
C2053 C 0.59864 0.73591 0.64999 0.0
C2054 C 0.62098 0.7357 0.64106 0.0
H2055 H 0.73473 0.70663 0.60005 0.0
H2056 H 0.69666 0.70638 0.61449 0.0
H2057 H 0.62068 0.75812 0.62092 0.0
H2058 H 0.56983 0.76541 0.66675 0.0
H2059 H 0.60715 0.76486 0.65215 0.0
C2060 C 0.32238 0.50325 0.35271 0.0
C2061 C 0.30638 0.48694 0.34903 0.0
C2062 C 0.34335 0.50331 0.36112 0.0
C2063 C 0.40518 0.4743 0.37668 0.0
H2064 H 0.3717 0.50921 0.39506 0.0
C2065 C 0.47484 0.47018 0.41297 0.0
C2066 C 0.48161 0.48643 0.41777 0.0
C2067 C 0.45312 0.4703 0.40465 0.0
C2068 C 0.38213 0.49954 0.38998 0.0
H2069 H 0.3003 0.45788 0.3512 0.0
H2070 H 0.33773 0.45793 0.36581 0.0
H2071 H 0.33548 0.50954 0.3804 0.0
H2072 H 0.47117 0.51559 0.41759 0.0
H2073 H 0.43492 0.516 0.40293 0.0
H2074 H 0.45268 0.4646 0.38606 0.0
C2075 C 0.33376 0.47068 0.36222 0.0
C2076 C 0.36109 0.4997 0.38158 0.0
C2077 C 0.31215 0.47067 0.35388 0.0
C2078 C 0.46631 0.50283 0.41406 0.0
C2079 C 0.44516 0.50301 0.40566 0.0
C2080 C 0.42671 0.47432 0.38503 0.0
C2081 C 0.34946 0.48701 0.36596 0.0
C2082 C 0.37222 0.48702 0.37485 0.0
C2083 C 0.43812 0.48673 0.40082 0.0
C2084 C 0.4154 0.48688 0.39184 0.0
H2085 H 0.31851 0.516 0.34911 0.0
H2086 H 0.35539 0.51608 0.36379 0.0
H2087 H 0.41486 0.4645 0.37159 0.0
H2088 H 0.4859 0.4573 0.41571 0.0
H2089 H 0.44764 0.45742 0.40129 0.0
C2090 C 0.31143 0.26259 0.41251 0.0
C2091 C 0.30511 0.24632 0.41733 0.0
C2092 C 0.33282 0.2625 0.40415 0.0
C2093 C 0.3582 0.23341 0.38468 0.0
H2094 H 0.45087 0.26785 0.38005 0.0
C2095 C 0.46178 0.2294 0.35202 0.0
C2096 C 0.47771 0.24564 0.34827 0.0
C2097 C 0.44102 0.22943 0.36046 0.0
C2098 C 0.42459 0.25831 0.38112 0.0
H2099 H 0.3161 0.21717 0.41716 0.0
H2100 H 0.35257 0.21696 0.40244 0.0
H2101 H 0.41367 0.26819 0.39459 0.0
H2102 H 0.4836 0.27472 0.35031 0.0
H2103 H 0.44605 0.27498 0.36481 0.0
H2104 H 0.36785 0.22384 0.37118 0.0
C2105 C 0.34113 0.22979 0.40515 0.0
C2106 C 0.40341 0.25847 0.38951 0.0
C2107 C 0.3204 0.22993 0.41359 0.0
C2108 C 0.47203 0.26195 0.35307 0.0
C2109 C 0.4507 0.26205 0.36145 0.0
C2110 C 0.37887 0.23343 0.37624 0.0
C2111 C 0.34774 0.24609 0.40035 0.0
C2112 C 0.37008 0.24598 0.3914 0.0
C2113 C 0.435 0.24577 0.36531 0.0
C2114 C 0.41256 0.24584 0.37432 0.0
H2115 H 0.30015 0.27544 0.41524 0.0
H2116 H 0.33718 0.27526 0.40059 0.0
H2117 H 0.33228 0.22375 0.3859 0.0
H2118 H 0.46578 0.21659 0.34848 0.0
H2119 H 0.43027 0.21655 0.36321 0.0
C2120 C 0.71774 0.98147 0.16416 0.0
C2121 C 0.73344 -0.0021 0.16775 0.0
C2122 C 0.69628 0.98118 0.1558 0.0
C2123 C 0.67739 0.00937 0.13502 0.0
H2124 H 0.58511 0.97446 0.13087 0.0
C2125 C 0.56117 0.01257 0.10413 0.0
C2126 C 0.55458 -0.00384 0.09944 0.0
C2127 C 0.58338 0.01273 0.1124 0.0
C2128 C 0.61102 0.98421 0.13192 0.0
H2129 H 0.73821 0.02696 0.16551 0.0
H2130 H 0.69943 0.02665 0.15114 0.0
H2131 H 0.62208 0.97507 0.14545 0.0
H2132 H 0.56593 0.96705 0.09974 0.0
H2133 H 0.60391 0.96727 0.1143 0.0
H2134 H 0.6651 0.01882 0.12153 0.0
C2135 C 0.70479 0.01383 0.15458 0.0
C2136 C 0.63247 0.98453 0.14027 0.0
C2137 C 0.72682 0.01406 0.16286 0.0
C2138 C 0.57043 0.97989 0.10321 0.0
C2139 C 0.59202 0.98001 0.11156 0.0
C2140 C 0.65546 0.00923 0.12672 0.0
C2141 C 0.68932 -0.00264 0.15088 0.0
C2142 C 0.66613 -0.00292 0.14196 0.0
C2143 C 0.59889 -0.00356 0.11623 0.0
C2144 C 0.62212 -0.00339 0.12506 0.0
H2145 H 0.72248 0.96878 0.16776 0.0
H2146 H 0.6857 0.96817 0.15317 0.0
H2147 H 0.70363 0.019 0.13593 0.0
H2148 H 0.54944 0.02533 0.10137 0.0
H2149 H 0.58793 0.02558 0.11586 0.0
C2150 C 0.72563 0.21882 0.10384 0.0
C2151 C 0.73157 0.23525 0.09915 0.0
C2152 C 0.70425 0.21854 0.1122 0.0
C2153 C 0.63311 0.24715 0.1272 0.0
H2154 H 0.66605 0.21146 0.14528 0.0
C2155 C 0.57688 0.2508 0.16459 0.0
C2156 C 0.55927 0.23474 0.16824 0.0
C2157 C 0.59761 0.25062 0.15616 0.0
C2158 C 0.65632 0.22143 0.14027 0.0
H2159 H 0.72018 0.26432 0.09957 0.0
H2160 H 0.68476 0.26407 0.1143 0.0
H2161 H 0.7033 0.2119 0.13074 0.0
H2162 H 0.55038 0.20584 0.16602 0.0
H2163 H 0.58766 0.20543 0.15135 0.0
H2164 H 0.58719 0.25702 0.13695 0.0
C2165 C 0.69521 0.25122 0.11145 0.0
C2166 C 0.67751 0.22166 0.13188 0.0
C2167 C 0.71594 0.25143 0.10302 0.0
C2168 C 0.5635 0.21843 0.16336 0.0
C2169 C 0.58498 0.21818 0.15499 0.0
C2170 C 0.61251 0.24711 0.13565 0.0
C2171 C 0.68881 0.23475 0.11618 0.0
C2172 C 0.66621 0.2345 0.12519 0.0
C2173 C 0.60193 0.23432 0.15126 0.0
C2174 C 0.6238 0.23424 0.14227 0.0
H2175 H 0.73696 0.20609 0.10098 0.0
H2176 H 0.69933 0.20552 0.11547 0.0
H2177 H 0.62254 0.257 0.12222 0.0
H2178 H 0.57423 0.26358 0.16821 0.0
H2179 H 0.61068 0.26322 0.15351 0.0
C2180 C 0.32015 0.00585 0.85312 0.0
C2181 C 0.30355 0.98965 0.84943 0.0
C2182 C 0.34145 0.00572 0.8615 0.0
C2183 C 0.4032 0.97624 0.87683 0.0
H2184 H 0.37098 0.01081 0.89546 0.0
C2185 C 0.47349 0.97092 0.91304 0.0
C2186 C 0.48054 0.98701 0.91794 0.0
C2187 C 0.45173 0.97134 0.90472 0.0
C2188 C 0.38107 0.00123 0.89031 0.0
H2189 H 0.29668 0.96061 0.85155 0.0
H2190 H 0.33465 0.96033 0.86609 0.0
H2191 H 0.33435 0.01163 0.88085 0.0
H2192 H 0.4707 0.01621 0.91795 0.0
H2193 H 0.43446 0.01714 0.90331 0.0
H2194 H 0.45077 0.96612 0.88609 0.0
C2195 C 0.33091 0.97313 0.86254 0.0
C2196 C 0.3598 0.00167 0.88193 0.0
C2197 C 0.30898 0.97331 0.85424 0.0
C2198 C 0.4656 0.00356 0.91433 0.0
C2199 C 0.44443 0.00404 0.90595 0.0
C2200 C 0.42498 0.97597 0.88515 0.0
C2201 C 0.34728 0.98934 0.86628 0.0
C2202 C 0.37044 0.98911 0.87512 0.0
C2203 C 0.43701 0.98792 0.90101 0.0
C2204 C 0.41411 0.98839 0.89206 0.0
H2205 H 0.31656 0.01864 0.84955 0.0
H2206 H 0.354 0.0184 0.86418 0.0
H2207 H 0.41249 0.96652 0.87167 0.0
H2208 H 0.48428 0.95793 0.91569 0.0
H2209 H 0.44597 0.95856 0.90128 0.0
C2210 C 0.46208 0.72935 0.85045 0.0
C2211 C 0.4788 0.74558 0.8468 0.0
C2212 C 0.44138 0.72935 0.85889 0.0
C2213 C 0.38122 0.7586 0.87458 0.0
H2214 H 0.4136 0.72325 0.89284 0.0
C2215 C 0.31165 0.76264 0.91088 0.0
C2216 C 0.3045 0.74638 0.91564 0.0
C2217 C 0.33339 0.76251 0.90256 0.0
C2218 C 0.40347 0.73305 0.8878 0.0
H2219 H 0.48646 0.77453 0.84907 0.0
H2220 H 0.44948 0.7746 0.86373 0.0
H2221 H 0.44962 0.72286 0.87817 0.0
H2222 H 0.31427 0.71719 0.9154 0.0
H2223 H 0.35047 0.71676 0.90075 0.0
H2224 H 0.33416 0.76849 0.884 0.0
C2225 C 0.4527 0.76187 0.86009 0.0
C2226 C 0.4244 0.73286 0.87938 0.0
C2227 C 0.47406 0.76182 0.85172 0.0
C2228 C 0.31943 0.72996 0.9119 0.0
C2229 C 0.34057 0.72977 0.90351 0.0
C2230 C 0.35977 0.75862 0.88293 0.0
C2231 C 0.43625 0.74563 0.86378 0.0
C2232 C 0.41367 0.74569 0.8727 0.0
C2233 C 0.34799 0.74605 0.89869 0.0
C2234 C 0.37067 0.7459 0.88971 0.0
H2235 H 0.46514 0.71664 0.84679 0.0
H2236 H 0.42875 0.71665 0.86152 0.0
H2237 H 0.37186 0.76852 0.86952 0.0
H2238 H 0.30089 0.77554 0.91364 0.0
H2239 H 0.33917 0.7754 0.89923 0.0
C2240 C 0.14759 0.68623 0.06912 0.0
C2241 C 0.19168 0.69058 0.06803 0.0
C2242 C 0.13423 0.66804 0.0689 0.0
C2243 C 0.17311 0.62248 0.07358 0.0
H2244 H 0.08161 0.60589 0.05759 0.0
C2245 C 0.12887 0.54646 0.0704 0.0
C2246 C 0.08438 0.5425 0.06981 0.0
C2247 C 0.14326 0.56445 0.06966 0.0
C2248 C 0.10688 0.61034 0.06217 0.0
H2249 H 0.25628 0.67941 0.06583 0.0
H2250 H 0.23286 0.64787 0.06559 0.0
H2251 H 0.1021 0.63799 0.05763 0.0
H2252 H 0.02003 0.55422 0.06812 0.0
H2253 H 0.04483 0.58534 0.06714 0.0
H2254 H 0.17723 0.59508 0.07836 0.0
C2255 C 0.20877 0.65845 0.06657 0.0
C2256 C 0.11852 0.62868 0.06218 0.0
C2257 C 0.22201 0.67653 0.06666 0.0
C2258 C 0.05463 0.55677 0.06849 0.0
C2259 C 0.06888 0.57466 0.06787 0.0
C2260 C 0.16107 0.6042 0.07368 0.0
C2261 C 0.16491 0.65407 0.06774 0.0
C2262 C 0.1517 0.63484 0.06788 0.0
C2263 C 0.1133 0.57874 0.06843 0.0
C2264 C 0.12773 0.59794 0.068 0.0
H2265 H 0.12358 0.6968 0.07018 0.0
H2266 H 0.10017 0.66486 0.06983 0.0
H2267 H 0.1987 0.62704 0.07807 0.0
H2268 H 0.15248 0.5357 0.07138 0.0
H2269 H 0.17779 0.56715 0.07002 0.0
C2270 C 0.1352 0.68651 0.1953 0.0
C2271 C 0.09082 0.69085 0.19563 0.0
C2272 C 0.14852 0.66833 0.19579 0.0
C2273 C 0.11223 0.62244 0.19087 0.0
H2274 H 0.19566 0.60679 0.2089 0.0
C2275 C 0.15475 0.54668 0.19575 0.0
C2276 C 0.19888 0.54277 0.19713 0.0
C2277 C 0.13995 0.56466 0.19616 0.0
C2278 C 0.17269 0.61097 0.20376 0.0
H2279 H 0.02558 0.67969 0.19657 0.0
H2280 H 0.04895 0.64813 0.19727 0.0
H2281 H 0.17543 0.63887 0.20796 0.0
H2282 H 0.26207 0.55458 0.20007 0.0
H2283 H 0.23667 0.58566 0.20049 0.0
H2284 H 0.11023 0.59477 0.18645 0.0
C2285 C 0.07331 0.65871 0.19671 0.0
C2286 C 0.16121 0.6293 0.20324 0.0
C2287 C 0.06007 0.67679 0.19637 0.0
C2288 C 0.22774 0.55708 0.19904 0.0
C2289 C 0.21312 0.57496 0.19935 0.0
C2290 C 0.12415 0.60415 0.1913 0.0
C2291 C 0.11754 0.65434 0.19642 0.0
C2292 C 0.13091 0.63513 0.19679 0.0
C2293 C 0.16915 0.579 0.19786 0.0
C2294 C 0.1546 0.59822 0.19774 0.0
H2295 H 0.15949 0.6971 0.19473 0.0
H2296 H 0.18287 0.66516 0.19553 0.0
H2297 H 0.08887 0.62673 0.18582 0.0
H2298 H 0.13177 0.53591 0.1943 0.0
H2299 H 0.10572 0.56733 0.1951 0.0
C2300 C 0.81343 0.30557 0.94852 0.0
C2301 C 0.8434 0.29143 0.94709 0.0
C2302 C 0.82721 0.32355 0.94892 0.0
C2303 C 0.91746 0.35331 0.94218 0.0
H2304 H 0.8601 0.38746 0.95828 0.0
C2305 C 0.97776 0.42606 0.94833 0.0
C2306 C 0.94696 0.44 0.94713 0.0
C2307 C 0.96492 0.40795 0.94853 0.0
C2308 C 0.87604 0.37805 0.95371 0.0
H2309 H 0.91144 0.28493 0.94513 0.0
H2310 H 0.93596 0.31655 0.94612 0.0
H2311 H 0.84056 0.35528 0.95878 0.0
H2312 H 0.8785 0.44597 0.94533 0.0
H2313 H 0.85579 0.41394 0.94587 0.0
H2314 H 0.95373 0.37615 0.9373 0.0
C2315 C 0.90159 0.31368 0.94672 0.0
C2316 C 0.86495 0.35967 0.95398 0.0
C2317 C 0.88766 0.29559 0.94621 0.0
C2318 C 0.90286 0.43548 0.94626 0.0
C2319 C 0.8899 0.41725 0.94659 0.0
C2320 C 0.92897 0.37165 0.942 0.0
C2321 C 0.87138 0.32784 0.94802 0.0
C2322 C 0.88525 0.34713 0.94816 0.0
C2323 C 0.921 0.4034 0.94763 0.0
C2324 C 0.90813 0.38414 0.94773 0.0
H2325 H 0.77897 0.30285 0.94912 0.0
H2326 H 0.80295 0.33412 0.94972 0.0
H2327 H 0.93315 0.34409 0.93749 0.0
H2328 H 1.01206 0.42909 0.94898 0.0
H2329 H 0.98934 0.39746 0.94941 0.0
C2330 C 0.80632 0.42656 0.81861 0.0
C2331 C 0.836 0.44073 0.82016 0.0
C2332 C 0.82035 0.40861 0.81814 0.0
C2333 C 0.91071 0.37871 0.82483 0.0
H2334 H 0.85365 0.345 0.80848 0.0
C2335 C 0.97021 0.30576 0.81824 0.0
C2336 C 0.93904 0.29191 0.81922 0.0
C2337 C 0.95779 0.32395 0.81826 0.0
C2338 C 0.86952 0.35428 0.81311 0.0
H2339 H 0.90386 0.44728 0.82231 0.0
H2340 H 0.92886 0.41571 0.82122 0.0
H2341 H 0.83427 0.37719 0.80811 0.0
H2342 H 0.87045 0.28619 0.8209 0.0
H2343 H 0.84847 0.31834 0.82072 0.0
H2344 H 0.94678 0.3557 0.82963 0.0
C2345 C 0.89449 0.41855 0.82055 0.0
C2346 C 0.85851 0.37268 0.81293 0.0
C2347 C 0.88028 0.43661 0.82112 0.0
C2348 C 0.89506 0.29661 0.82014 0.0
C2349 C 0.88253 0.31491 0.82001 0.0
C2350 C 0.92216 0.36034 0.82492 0.0
C2351 C 0.86454 0.40436 0.8191 0.0
C2352 C 0.87862 0.38507 0.81886 0.0
C2353 C 0.91395 0.32867 0.81914 0.0
C2354 C 0.90137 0.348 0.81911 0.0
H2355 H 0.77185 0.42922 0.81794 0.0
H2356 H 0.79625 0.39803 0.81724 0.0
H2357 H 0.92629 0.38781 0.82959 0.0
H2358 H 1.00443 0.30258 0.81758 0.0
H2359 H 0.98246 0.33436 0.81751 0.0
C2360 C 0.13111 0.04597 0.57045 0.0
C2361 C 0.08668 0.04191 0.56974 0.0
C2362 C 0.14525 0.06401 0.56981 0.0
C2363 C 0.10903 0.11003 0.57409 0.0
H2364 H 0.19739 0.12533 0.55706 0.0
C2365 C 0.15373 0.18557 0.56976 0.0
C2366 C 0.19817 0.18938 0.56887 0.0
C2367 C 0.1389 0.16763 0.56917 0.0
C2368 C 0.17301 0.12124 0.56192 0.0
H2369 H 0.02227 0.05348 0.56777 0.0
H2370 H 0.04704 0.08475 0.56681 0.0
H2371 H 0.17629 0.09332 0.55776 0.0
H2372 H 0.26192 0.17745 0.56663 0.0
H2373 H 0.23639 0.14641 0.5659 0.0
H2374 H 0.10645 0.13768 0.5785 0.0
C2375 C 0.0708 0.07405 0.56781 0.0
C2376 C 0.16103 0.10296 0.5623 0.0
C2377 C 0.05678 0.05611 0.56832 0.0
C2378 C 0.22736 0.17502 0.56727 0.0
C2379 C 0.21269 0.15717 0.56679 0.0
C2380 C 0.12142 0.12825 0.57382 0.0
C2381 C 0.115 0.07814 0.56861 0.0
C2382 C 0.12893 0.09727 0.56838 0.0
C2383 C 0.16836 0.15323 0.56778 0.0
C2384 C 0.15359 0.13406 0.56773 0.0
H2385 H 0.1548 0.03527 0.57153 0.0
H2386 H 0.17957 0.06699 0.57045 0.0
H2387 H 0.08431 0.10584 0.57887 0.0
H2388 H 0.13051 0.1964 0.57095 0.0
H2389 H 0.10442 0.16505 0.56983 0.0
C2390 C 0.05823 0.18007 0.70095 0.0
C2391 C 0.08745 0.19379 0.6983 0.0
C2392 C 0.07179 0.16205 0.70158 0.0
C2393 C 0.16423 0.13242 0.70476 0.0
H2394 H 0.09873 0.09768 0.69045 0.0
C2395 C 0.2274 0.06039 0.69811 0.0
C2396 C 0.19768 0.04594 0.69753 0.0
C2397 C 0.21288 0.07826 0.69879 0.0
C2398 C 0.11687 0.1071 0.69462 0.0
H2399 H 0.15429 0.19947 0.69461 0.0
H2400 H 0.17826 0.16772 0.6959 0.0
H2401 H 0.07636 0.12951 0.69079 0.0
H2402 H 0.12944 0.03878 0.69729 0.0
H2403 H 0.10375 0.07015 0.69878 0.0
H2404 H 0.20421 0.11008 0.70878 0.0
C2405 C 0.14476 0.1711 0.6974 0.0
C2406 C 0.10423 0.12532 0.69476 0.0
C2407 C 0.13103 0.18919 0.69664 0.0
C2408 C 0.15301 0.04969 0.69769 0.0
C2409 C 0.13838 0.06765 0.69851 0.0
C2410 C 0.17651 0.11414 0.70474 0.0
C2411 C 0.11495 0.1574 0.6997 0.0
C2412 C 0.12807 0.13812 0.69976 0.0
C2413 C 0.16824 0.08213 0.69904 0.0
C2414 C 0.15331 0.1013 0.69957 0.0
H2415 H 0.0244 0.1831 0.70229 0.0
H2416 H 0.04841 0.15169 0.70345 0.0
H2417 H 0.1827 0.14208 0.70874 0.0
H2418 H 0.2621 0.05795 0.69788 0.0
H2419 H 0.2368 0.08906 0.69895 0.0
C2420 C 0.88277 0.79729 0.44537 0.0
C2421 C 0.83845 0.79304 0.44597 0.0
C2422 C 0.89642 0.81539 0.44599 0.0
C2423 C 0.85828 0.86115 0.45323 0.0
H2424 H 0.95064 0.87805 0.43753 0.0
C2425 C 0.89945 0.93711 0.44643 0.0
C2426 C 0.94349 0.9414 0.44768 0.0
C2427 C 0.88591 0.91895 0.4466 0.0
C2428 C 0.92487 0.87343 0.44196 0.0
H2429 H 0.7736 0.80433 0.44751 0.0
H2430 H 0.79714 0.83566 0.44828 0.0
H2431 H 0.92959 0.84605 0.4372 0.0
H2432 H 1.0078 0.93013 0.45012 0.0
H2433 H 0.9841 0.89863 0.45028 0.0
H2434 H 0.85297 0.88878 0.45777 0.0
C2435 C 0.82161 0.82514 0.44765 0.0
C2436 C 0.91307 0.85513 0.44184 0.0
C2437 C 0.8081 0.80713 0.44715 0.0
C2438 C 0.97358 0.92731 0.44917 0.0
C2439 C 0.96018 0.90925 0.44921 0.0
C2440 C 0.86969 0.87951 0.45325 0.0
C2441 C 0.86588 0.8295 0.4471 0.0
C2442 C 0.87962 0.84879 0.44747 0.0
C2443 C 0.9164 0.90494 0.44786 0.0
C2444 C 0.90312 0.88573 0.44763 0.0
H2445 H 0.90682 0.78666 0.44449 0.0
H2446 H 0.93085 0.81831 0.44565 0.0
H2447 H 0.83289 0.85664 0.45777 0.0
H2448 H 0.87562 0.94772 0.44528 0.0
H2449 H 0.85192 0.91581 0.44554 0.0
C2450 C 0.90361 0.79645 0.31966 0.0
C2451 C 0.94767 0.79244 0.31826 0.0
C2452 C 0.88908 0.81447 0.3193 0.0
C2453 C 0.9224 0.86082 0.31187 0.0
H2454 H 0.83893 0.87642 0.3299 0.0
C2455 C 0.88479 0.93628 0.32058 0.0
C2456 C 0.84038 0.94056 0.32021 0.0
C2457 C 0.89827 0.91812 0.32005 0.0
C2458 C 0.86222 0.87217 0.32483 0.0
H2459 H 1.01099 0.80409 0.31531 0.0
H2460 H 0.98606 0.83525 0.31497 0.0
H2461 H 0.86005 0.84444 0.32914 0.0
H2462 H 0.77526 0.92932 0.31915 0.0
H2463 H 0.7989 0.89781 0.31839 0.0
H2464 H 0.92529 0.88878 0.30776 0.0
C2465 C 0.96236 0.8246 0.31609 0.0
C2466 C 0.87399 0.85388 0.32433 0.0
C2467 C 0.97671 0.80668 0.31635 0.0
C2468 C 0.80977 0.92647 0.31939 0.0
C2469 C 0.82316 0.90842 0.31901 0.0
C2470 C 0.91108 0.87916 0.31246 0.0
C2471 C 0.91849 0.82875 0.31762 0.0
C2472 C 0.90425 0.848 0.31784 0.0
C2473 C 0.86741 0.90411 0.31934 0.0
C2474 C 0.88088 0.88493 0.31893 0.0
H2475 H 0.88048 0.78573 0.32111 0.0
H2476 H 0.85491 0.81722 0.32038 0.0
H2477 H 0.94526 0.85668 0.30669 0.0
H2478 H 0.90898 0.94691 0.32121 0.0
H2479 H 0.93264 0.91499 0.32033 0.0
C2480 C 0.5599 0.55561 0.56902 0.0
C2481 C 0.59042 0.5415 0.57002 0.0
C2482 C 0.57335 0.57363 0.56863 0.0
C2483 C 0.66199 0.60287 0.56247 0.0
H2484 H 0.60909 0.63753 0.57894 0.0
C2485 C 0.72627 0.67554 0.56656 0.0
C2486 C 0.69671 0.68969 0.5683 0.0
C2487 C 0.71235 0.65756 0.5663 0.0
C2488 C 0.62358 0.62811 0.57418 0.0
H2489 H 0.65894 0.53512 0.57128 0.0
H2490 H 0.68268 0.56699 0.5704 0.0
H2491 H 0.58799 0.60557 0.57958 0.0
H2492 H 0.62912 0.69622 0.57085 0.0
H2493 H 0.60433 0.66465 0.57011 0.0
H2494 H 0.69674 0.62536 0.55688 0.0
C2495 C 0.64835 0.56389 0.56998 0.0
C2496 C 0.6118 0.60982 0.57461 0.0
C2497 C 0.6348 0.54575 0.57052 0.0
C2498 C 0.65263 0.68555 0.56954 0.0
C2499 C 0.63855 0.66749 0.56917 0.0
C2500 C 0.67335 0.62121 0.56194 0.0
C2501 C 0.61757 0.57792 0.56912 0.0
C2502 C 0.63107 0.59709 0.56879 0.0
C2503 C 0.66842 0.65329 0.56766 0.0
C2504 C 0.65448 0.63401 0.56784 0.0
H2505 H 0.52541 0.55278 0.56867 0.0
H2506 H 0.54915 0.58426 0.56789 0.0
H2507 H 0.67672 0.59326 0.55784 0.0
H2508 H 0.76057 0.67824 0.56564 0.0
H2509 H 0.73637 0.64697 0.56529 0.0
C2510 C 0.64748 0.54918 0.69675 0.0
C2511 C 0.6919 0.54486 0.69697 0.0
C2512 C 0.63414 0.56739 0.69704 0.0
C2513 C 0.66971 0.61289 0.69122 0.0
H2514 H 0.59097 0.63015 0.70979 0.0
C2515 C 0.63378 0.68925 0.69547 0.0
C2516 C 0.59048 0.69397 0.69729 0.0
C2517 C 0.64711 0.67108 0.69601 0.0
C2518 C 0.61255 0.62553 0.70448 0.0
H2519 H 0.75716 0.55608 0.69754 0.0
H2520 H 0.73377 0.58767 0.69788 0.0
H2521 H 0.60951 0.59785 0.70907 0.0
H2522 H 0.52735 0.68339 0.70126 0.0
H2523 H 0.55012 0.65194 0.70189 0.0
H2524 H 0.67206 0.64028 0.68643 0.0
C2525 C 0.70939 0.57705 0.69756 0.0
C2526 C 0.62308 0.60706 0.70409 0.0
C2527 C 0.72264 0.55897 0.69743 0.0
C2528 C 0.56108 0.68027 0.69986 0.0
C2529 C 0.57421 0.66217 0.70028 0.0
C2530 C 0.6587 0.63129 0.69152 0.0
C2531 C 0.66513 0.58141 0.69737 0.0
C2532 C 0.65188 0.60066 0.69749 0.0
C2533 C 0.61723 0.65731 0.69828 0.0
C2534 C 0.63009 0.63785 0.69817 0.0
H2535 H 0.62318 0.53854 0.6964 0.0
H2536 H 0.59977 0.57055 0.69687 0.0
H2537 H 0.69189 0.60816 0.68604 0.0
H2538 H 0.65722 0.69953 0.69353 0.0
H2539 H 0.68073 0.66783 0.69459 0.0
C2540 C 0.47838 0.42616 0.44954 0.0
C2541 C 0.44904 0.44042 0.44784 0.0
C2542 C 0.46403 0.40826 0.44995 0.0
C2543 C 0.37411 0.37904 0.44252 0.0
H2544 H 0.42789 0.3443 0.45885 0.0
C2545 C 0.30953 0.30692 0.44811 0.0
C2546 C 0.33956 0.29268 0.44694 0.0
C2547 C 0.32345 0.32487 0.44848 0.0
C2548 C 0.41298 0.35388 0.45422 0.0
H2549 H 0.38144 0.44721 0.44548 0.0
H2550 H 0.3559 0.41576 0.44648 0.0
H2551 H 0.44842 0.37637 0.45962 0.0
H2552 H 0.40779 0.286 0.44541 0.0
H2553 H 0.43242 0.31778 0.44627 0.0
H2554 H 0.33785 0.3565 0.43732 0.0
C2555 C 0.39025 0.41847 0.44728 0.0
C2556 C 0.42461 0.3722 0.45464 0.0
C2557 C 0.40477 0.43647 0.44677 0.0
C2558 C 0.38402 0.29673 0.44631 0.0
C2559 C 0.39806 0.31481 0.44682 0.0
C2560 C 0.36206 0.36078 0.4422 0.0
C2561 C 0.41989 0.40417 0.44878 0.0
C2562 C 0.40553 0.38495 0.44875 0.0
C2563 C 0.3677 0.32896 0.4478 0.0
C2564 C 0.38157 0.34809 0.44801 0.0
H2565 H 0.51283 0.42871 0.45033 0.0
H2566 H 0.48786 0.39758 0.45093 0.0
H2567 H 0.35943 0.38842 0.43776 0.0
H2568 H 0.27499 0.30428 0.44858 0.0
H2569 H 0.29959 0.3356 0.44932 0.0
C2570 C 0.47188 0.30533 0.31643 0.0
C2571 C 0.44237 0.29123 0.31828 0.0
C2572 C 0.45795 0.32331 0.31606 0.0
C2573 C 0.36951 0.35309 0.3238 0.0
H2574 H 0.42316 0.38745 0.30728 0.0
C2575 C 0.30754 0.42582 0.31837 0.0
C2576 C 0.33834 0.43978 0.31943 0.0
C2577 C 0.32057 0.40773 0.318 0.0
C2578 C 0.40829 0.37797 0.31196 0.0
H2579 H 0.37485 0.28481 0.32093 0.0
H2580 H 0.35002 0.31639 0.32 0.0
H2581 H 0.44243 0.35524 0.30644 0.0
H2582 H 0.40696 0.44584 0.32078 0.0
H2583 H 0.42999 0.41384 0.31991 0.0
H2584 H 0.3345 0.37588 0.32912 0.0
C2585 C 0.38422 0.3135 0.31905 0.0
C2586 C 0.41921 0.35957 0.3115 0.0
C2587 C 0.39832 0.29543 0.31953 0.0
C2588 C 0.38262 0.43532 0.31997 0.0
C2589 C 0.39575 0.41711 0.31945 0.0
C2590 C 0.35814 0.37143 0.32416 0.0
C2591 C 0.41406 0.32764 0.31741 0.0
C2592 C 0.40022 0.34695 0.31747 0.0
C2593 C 0.36465 0.40324 0.31856 0.0
C2594 C 0.37765 0.38399 0.31829 0.0
H2595 H 0.50617 0.3026 0.3155 0.0
H2596 H 0.48198 0.33384 0.31497 0.0
H2597 H 0.35491 0.34381 0.32861 0.0
H2598 H 0.27312 0.42879 0.31799 0.0
H2599 H 0.29614 0.39722 0.31724 0.0
C2600 C 0.55835 0.05562 0.0677 0.0
C2601 C 0.58779 0.04137 0.06939 0.0
C2602 C 0.57262 0.07353 0.06733 0.0
C2603 C 0.6639 0.10248 0.06275 0.0
H2604 H 0.60614 0.13689 0.07863 0.0
C2605 C 0.72744 0.17496 0.06806 0.0
C2606 C 0.69742 0.18913 0.06936 0.0
C2607 C 0.71357 0.15699 0.06761 0.0
C2608 C 0.62206 0.12755 0.07404 0.0
H2609 H 0.65547 0.03463 0.07176 0.0
H2610 H 0.6807 0.0663 0.07092 0.0
H2611 H 0.58422 0.10501 0.07871 0.0
H2612 H 0.62925 0.19572 0.07101 0.0
H2613 H 0.60461 0.16417 0.06993 0.0
H2614 H 0.70096 0.12499 0.05786 0.0
C2615 C 0.64652 0.06338 0.06996 0.0
C2616 C 0.60977 0.10931 0.07415 0.0
C2617 C 0.63211 0.04536 0.07046 0.0
C2618 C 0.65307 0.18503 0.07005 0.0
C2619 C 0.63906 0.16697 0.06948 0.0
C2620 C 0.6758 0.12079 0.06253 0.0
C2621 C 0.61665 0.07756 0.06854 0.0
C2622 C 0.63071 0.09667 0.06853 0.0
C2623 C 0.66928 0.15276 0.06834 0.0
C2624 C 0.65517 0.1335 0.06822 0.0
H2625 H 0.52395 0.05305 0.06686 0.0
H2626 H 0.54917 0.08429 0.06614 0.0
H2627 H 0.68001 0.09293 0.05828 0.0
H2628 H 0.76196 0.17766 0.0676 0.0
H2629 H 0.73781 0.14638 0.06693 0.0
C2630 C 0.56316 0.17845 0.20188 0.0
C2631 C 0.59328 0.19183 0.19924 0.0
C2632 C 0.57565 0.16032 0.2026 0.0
C2633 C 0.66604 0.12993 0.2062 0.0
H2634 H 0.60097 0.09562 0.19154 0.0
C2635 C 0.7296 0.05841 0.199 0.0
C2636 C 0.70023 0.04389 0.19814 0.0
C2637 C 0.71468 0.07615 0.19995 0.0
C2638 C 0.61891 0.10492 0.19582 0.0
H2639 H 0.66053 0.19681 0.19564 0.0
H2640 H 0.68265 0.16485 0.1971 0.0
H2641 H 0.57951 0.12758 0.19185 0.0
H2642 H 0.63214 0.03647 0.19771 0.0
H2643 H 0.60572 0.06767 0.19965 0.0
H2644 H 0.70496 0.10737 0.21035 0.0
C2645 C 0.64929 0.16858 0.19852 0.0
C2646 C 0.60681 0.12321 0.19593 0.0
C2647 C 0.63663 0.18679 0.19766 0.0
C2648 C 0.65545 0.04745 0.19833 0.0
C2649 C 0.64042 0.06529 0.19941 0.0
C2650 C 0.67772 0.11159 0.20621 0.0
C2651 C 0.61861 0.15522 0.20083 0.0
C2652 C 0.63068 0.13586 0.20102 0.0
C2653 C 0.66997 0.07984 0.20019 0.0
C2654 C 0.65479 0.09893 0.20089 0.0
H2655 H 0.52946 0.18183 0.20315 0.0
H2656 H 0.55162 0.15021 0.20446 0.0
H2657 H 0.68444 0.13948 0.21026 0.0
H2658 H 0.76436 0.05616 0.19875 0.0
H2659 H 0.73838 0.08702 0.20028 0.0
C2660 C 0.30711 0.80667 0.94725 0.0
C2661 C 0.33662 0.79233 0.9459 0.0
C2662 C 0.32166 0.8245 0.94795 0.0
C2663 C 0.4145 0.8537 0.94221 0.0
H2664 H 0.3557 0.88784 0.95809 0.0
C2665 C 0.47707 0.92571 0.94911 0.0
C2666 C 0.44734 0.93991 0.94755 0.0
C2667 C 0.46319 0.90773 0.9493 0.0
C2668 C 0.37208 0.87843 0.95359 0.0
H2669 H 0.40465 0.78531 0.94441 0.0
H2670 H 0.43049 0.81665 0.94593 0.0
H2671 H 0.33463 0.8558 0.95819 0.0
H2672 H 0.37958 0.94649 0.94519 0.0
H2673 H 0.35501 0.9147 0.94572 0.0
H2674 H 0.45266 0.87637 0.93781 0.0
C2675 C 0.3959 0.81407 0.94623 0.0
C2676 C 0.36011 0.86013 0.95363 0.0
C2677 C 0.3812 0.79613 0.94542 0.0
C2678 C 0.40315 0.9358 0.9464 0.0
C2679 C 0.38912 0.91771 0.94672 0.0
C2680 C 0.42686 0.87194 0.94227 0.0
C2681 C 0.36617 0.82844 0.94745 0.0
C2682 C 0.38092 0.8476 0.94787 0.0
C2683 C 0.41927 0.90358 0.94804 0.0
C2684 C 0.40554 0.88442 0.94792 0.0
H2685 H 0.27244 0.80423 0.94755 0.0
H2686 H 0.29779 0.83525 0.94867 0.0
H2687 H 0.43062 0.8445 0.93757 0.0
H2688 H 0.5114 0.92838 0.95 0.0
H2689 H 0.48685 0.89702 0.95042 0.0
C2690 C 0.47323 0.80722 0.81635 0.0
C2691 C 0.44301 0.79333 0.81808 0.0
C2692 C 0.46062 0.82539 0.81654 0.0
C2693 C 0.37497 0.85552 0.82544 0.0
H2694 H 0.42667 0.89044 0.80895 0.0
C2695 C 0.31057 0.92797 0.82028 0.0
C2696 C 0.34091 0.94219 0.82098 0.0
C2697 C 0.32429 0.90995 0.82009 0.0
C2698 C 0.41243 0.88082 0.81365 0.0
H2699 H 0.37558 0.78751 0.82114 0.0
H2700 H 0.35299 0.81942 0.82117 0.0
H2701 H 0.4457 0.85828 0.80772 0.0
H2702 H 0.40938 0.94878 0.82198 0.0
H2703 H 0.43363 0.9169 0.82141 0.0
H2704 H 0.3406 0.87812 0.83114 0.0
C2705 C 0.38678 0.81622 0.81989 0.0
C2706 C 0.42323 0.86243 0.81296 0.0
C2707 C 0.39958 0.79796 0.81981 0.0
C2708 C 0.38539 0.93805 0.82144 0.0
C2709 C 0.39921 0.91991 0.82109 0.0
C2710 C 0.36373 0.87386 0.82604 0.0
C2711 C 0.41733 0.83014 0.81835 0.0
C2712 C 0.40469 0.84957 0.81886 0.0
C2713 C 0.36862 0.90578 0.82048 0.0
C2714 C 0.38241 0.88662 0.82015 0.0
H2715 H 0.50711 0.80414 0.81508 0.0
H2716 H 0.48518 0.83573 0.8155 0.0
H2717 H 0.36079 0.84605 0.83022 0.0
H2718 H 0.27602 0.93071 0.81999 0.0
H2719 H 0.30022 0.89925 0.81954 0.0
C2720 C 0.69612 0.50307 0.07918 0.0
C2721 C 0.72048 0.49236 0.07314 0.0
C2722 C 0.65079 0.50165 0.07951 0.0
C2723 C 0.55626 0.48628 0.06594 0.0
H2724 H 0.49542 0.48889 0.08884 0.0
C2725 C 0.37181 0.47174 0.06915 0.0
C2726 C 0.34755 0.48256 0.07516 0.0
C2727 C 0.41717 0.47307 0.06882 0.0
C2728 C 0.51182 0.48835 0.08237 0.0
H2729 H 0.71603 0.47133 0.06289 0.0
H2730 H 0.63711 0.46878 0.06349 0.0
H2731 H 0.57448 0.49056 0.08856 0.0
H2732 H 0.35223 0.5037 0.08535 0.0
H2733 H 0.43118 0.50606 0.08476 0.0
H2734 H 0.49359 0.48406 0.05974 0.0
C2735 C 0.65299 0.47856 0.06786 0.0
C2736 C 0.55724 0.4893 0.08221 0.0
C2737 C 0.69831 0.48 0.06753 0.0
C2738 C 0.36986 0.49494 0.08074 0.0
C2739 C 0.4152 0.49627 0.08041 0.0
C2740 C 0.51083 0.48532 0.06609 0.0
C2741 C 0.62855 0.48946 0.07381 0.0
C2742 C 0.58011 0.48829 0.07399 0.0
C2743 C 0.43952 0.48527 0.07449 0.0
C2744 C 0.48797 0.48636 0.07431 0.0
H2745 H 0.71198 0.51295 0.08349 0.0
H2746 H 0.63309 0.51045 0.08408 0.0
H2747 H 0.57265 0.48576 0.05946 0.0
H2748 H 0.35586 0.46185 0.06485 0.0
H2749 H 0.43479 0.4642 0.06427 0.0
C2750 C 0.57709 0.73757 0.0794 0.0
C2751 C 0.55337 0.74176 0.07154 0.0
C2752 C 0.6224 0.73914 0.07954 0.0
C2753 C 0.71545 0.7603 0.06746 0.0
H2754 H 0.78221 0.72281 0.07964 0.0
C2755 C 0.90262 0.75577 0.06431 0.0
C2756 C 0.92629 0.7515 0.07217 0.0
C2757 C 0.85725 0.75445 0.06419 0.0
C2758 C 0.7641 0.73351 0.07629 0.0
H2759 H 0.55902 0.7509 0.05765 0.0
H2760 H 0.63792 0.7536 0.05788 0.0
H2761 H 0.70316 0.72121 0.07962 0.0
H2762 H 0.92043 0.74262 0.0861 0.0
H2763 H 0.84148 0.74032 0.08589 0.0
H2764 H 0.77644 0.77258 0.06412 0.0
C2765 C 0.62146 0.74936 0.064 0.0
C2766 C 0.71868 0.7326 0.07628 0.0
C2767 C 0.57612 0.74782 0.06386 0.0
C2768 C 0.90339 0.74571 0.07988 0.0
C2769 C 0.85802 0.74441 0.07976 0.0
C2770 C 0.76089 0.7612 0.06746 0.0
C2771 C 0.64526 0.74491 0.07182 0.0
C2772 C 0.69371 0.74599 0.07187 0.0
C2773 C 0.8343 0.74885 0.07193 0.0
C2774 C 0.78585 0.74782 0.07188 0.0
H2775 H 0.56059 0.73313 0.08548 0.0
H2776 H 0.63951 0.73593 0.08574 0.0
H2777 H 0.69735 0.771 0.06411 0.0
H2778 H 0.9192 0.76002 0.05821 0.0
H2779 H 0.84016 0.75768 0.05799 0.0
C2780 C 0.70597 0.7328 0.18737 0.0
C2781 C 0.72975 0.74278 0.19381 0.0
C2782 C 0.66061 0.73399 0.18703 0.0
C2783 C 0.56748 0.76275 0.19412 0.0
H2784 H 0.50116 0.7185 0.19045 0.0
C2785 C 0.38026 0.76107 0.19776 0.0
C2786 C 0.35686 0.75093 0.19133 0.0
C2787 C 0.42562 0.75991 0.19822 0.0
C2788 C 0.51914 0.73102 0.19139 0.0
H2789 H 0.72426 0.76222 0.20478 0.0
H2790 H 0.64519 0.76413 0.20426 0.0
H2791 H 0.58026 0.71714 0.19075 0.0
H2792 H 0.36306 0.73122 0.18049 0.0
H2793 H 0.44204 0.72942 0.18118 0.0
H2794 H 0.50636 0.77663 0.19474 0.0
C2795 C 0.66164 0.75544 0.19944 0.0
C2796 C 0.56457 0.73025 0.19155 0.0
C2797 C 0.70699 0.75421 0.19979 0.0
C2798 C 0.38 0.73938 0.18546 0.0
C2799 C 0.42533 0.7382 0.18593 0.0
C2800 C 0.52204 0.76352 0.19395 0.0
C2801 C 0.6378 0.74523 0.1931 0.0
C2802 C 0.58937 0.7461 0.1929 0.0
C2803 C 0.4488 0.74855 0.19226 0.0
C2804 C 0.49724 0.74767 0.19257 0.0
H2805 H 0.72233 0.72371 0.18272 0.0
H2806 H 0.6434 0.72611 0.18199 0.0
H2807 H 0.58549 0.77527 0.19505 0.0
H2808 H 0.36362 0.77024 0.20233 0.0
H2809 H 0.44253 0.76791 0.20326 0.0
C2810 C 0.9149 0.48853 0.18456 0.0
C2811 C 0.93761 0.48212 0.19219 0.0
C2812 C 0.86953 0.49007 0.18467 0.0
C2813 C 0.7747 0.4927 0.20019 0.0
H2814 H 0.70954 0.47851 0.17889 0.0
C2815 C 0.58695 0.48704 0.20045 0.0
C2816 C 0.56443 0.49373 0.19286 0.0
C2817 C 0.63229 0.48536 0.20034 0.0
C2818 C 0.7272 0.48272 0.18487 0.0
H2819 H 0.93002 0.47269 0.20599 0.0
H2820 H 0.85103 0.47511 0.20614 0.0
H2821 H 0.7886 0.47648 0.1788 0.0
H2822 H 0.57224 0.50345 0.17912 0.0
H2823 H 0.6512 0.50071 0.17896 0.0
H2824 H 0.71329 0.49892 0.20626 0.0
C2825 C 0.86832 0.47908 0.20008 0.0
C2826 C 0.77264 0.48157 0.18481 0.0
C2827 C 0.91368 0.47751 0.19996 0.0
C2828 C 0.58847 0.49842 0.18511 0.0
C2829 C 0.63379 0.49667 0.18499 0.0
C2830 C 0.72926 0.49384 0.20025 0.0
C2831 C 0.84555 0.48527 0.19242 0.0
C2832 C 0.79706 0.48656 0.19247 0.0
C2833 C 0.65639 0.49025 0.19263 0.0
C2834 C 0.70486 0.48887 0.19259 0.0
H2835 H 0.93211 0.49203 0.17842 0.0
H2836 H 0.85325 0.4951 0.17868 0.0
H2837 H 0.79234 0.49694 0.20616 0.0
H2838 H 0.56962 0.48347 0.20657 0.0
H2839 H 0.64846 0.48016 0.20631 0.0
C2840 C 0.65687 0.51025 0.94876 0.0
C2841 C 0.6804 0.49994 0.94241 0.0
C2842 C 0.61152 0.50909 0.9492 0.0
C2843 C 0.51825 0.47999 0.94253 0.0
H2844 H 0.45163 0.52431 0.94586 0.0
C2845 C 0.33134 0.48156 0.93855 0.0
C2846 C 0.30758 0.49172 0.94492 0.0
C2847 C 0.37669 0.48276 0.93818 0.0
C2848 C 0.46971 0.51177 0.94502 0.0
H2849 H 0.67443 0.47994 0.9317 0.0
H2850 H 0.59545 0.47813 0.93236 0.0
H2851 H 0.53075 0.5257 0.94555 0.0
H2852 H 0.3131 0.51151 0.95574 0.0
H2853 H 0.39214 0.51343 0.95518 0.0
H2854 H 0.45722 0.46606 0.94199 0.0
C2855 C 0.61207 0.48704 0.93705 0.0
C2856 C 0.51515 0.51256 0.94485 0.0
C2857 C 0.65739 0.48822 0.93661 0.0
C2858 C 0.33035 0.50335 0.95081 0.0
C2859 C 0.37569 0.50459 0.95042 0.0
C2860 C 0.47282 0.4792 0.94269 0.0
C2861 C 0.58847 0.49756 0.94331 0.0
C2862 C 0.54004 0.49668 0.9436 0.0
C2863 C 0.3995 0.49419 0.94416 0.0
C2864 C 0.44793 0.49508 0.94393 0.0
H2865 H 0.67341 0.51955 0.95328 0.0
H2866 H 0.59452 0.51722 0.95418 0.0
H2867 H 0.53631 0.46744 0.94169 0.0
H2868 H 0.31498 0.47232 0.93398 0.0
H2869 H 0.39388 0.47473 0.9332 0.0
C2870 C 0.45627 0.246 0.93547 0.0
C2871 C 0.48078 0.24065 0.94305 0.0
C2872 C 0.41098 0.24426 0.93543 0.0
C2873 C 0.31666 0.24027 0.95086 0.0
H2874 H 0.2558 0.22503 0.9292 0.0
C2875 C 0.13194 0.22477 0.95056 0.0
C2876 C 0.10785 0.23031 0.94295 0.0
C2877 C 0.17732 0.22611 0.95064 0.0
C2878 C 0.27221 0.22953 0.93528 0.0
H2879 H 0.47654 0.22916 0.95653 0.0
H2880 H 0.39769 0.22584 0.9564 0.0
H2881 H 0.33489 0.22671 0.92915 0.0
H2882 H 0.11299 0.24163 0.92945 0.0
H2883 H 0.19191 0.24427 0.92965 0.0
H2884 H 0.25396 0.24312 0.95698 0.0
C2885 C 0.41349 0.23157 0.95051 0.0
C2886 C 0.31764 0.23047 0.93525 0.0
C2887 C 0.45881 0.23326 0.95054 0.0
C2888 C 0.13036 0.23741 0.93546 0.0
C2889 C 0.17574 0.23871 0.93553 0.0
C2890 C 0.27122 0.23933 0.95088 0.0
C2891 C 0.38892 0.23716 0.94298 0.0
C2892 C 0.3405 0.23588 0.94304 0.0
C2893 C 0.19988 0.23297 0.9431 0.0
C2894 C 0.24835 0.23398 0.94309 0.0
H2895 H 0.47211 0.25158 0.92955 0.0
H2896 H 0.39318 0.24885 0.92954 0.0
H2897 H 0.33307 0.24478 0.95693 0.0
H2898 H 0.1157 0.21939 0.95648 0.0
H2899 H 0.19478 0.22142 0.95655 0.0
C2900 C 0.6479 0.2427 0.82907 0.0
C2901 C 0.6713 0.23099 0.82332 0.0
C2902 C 0.60257 0.24381 0.82853 0.0
C2903 C 0.50613 0.21822 0.82053 0.0
H2904 H 0.44784 0.26469 0.82333 0.0
C2905 C 0.32132 0.22744 0.81433 0.0
C2906 C 0.29838 0.23904 0.82021 0.0
C2907 C 0.36668 0.22619 0.81476 0.0
C2908 C 0.46354 0.25156 0.82264 0.0
H2909 H 0.66499 0.2113 0.81248 0.0
H2910 H 0.58609 0.21352 0.81142 0.0
H2911 H 0.52691 0.26334 0.82377 0.0
H2912 H 0.30549 0.25839 0.83118 0.0
H2913 H 0.38437 0.25598 0.83204 0.0
H2914 H 0.4427 0.20646 0.81939 0.0
C2915 C 0.60279 0.2217 0.81642 0.0
C2916 C 0.50896 0.25079 0.82289 0.0
C2917 C 0.64815 0.2206 0.81695 0.0
C2918 C 0.32198 0.24918 0.82661 0.0
C2919 C 0.36732 0.24797 0.82702 0.0
C2920 C 0.46069 0.219 0.82028 0.0
C2921 C 0.57935 0.23324 0.82225 0.0
C2922 C 0.5309 0.2341 0.82185 0.0
C2923 C 0.39032 0.23656 0.82107 0.0
C2924 C 0.43877 0.23568 0.82135 0.0
H2925 H 0.66462 0.25105 0.83399 0.0
H2926 H 0.58567 0.25273 0.83319 0.0
H2927 H 0.52182 0.20509 0.81985 0.0
H2928 H 0.30421 0.2193 0.80937 0.0
H2929 H 0.38327 0.21737 0.81002 0.0
C2930 C 0.12096 0.48794 0.83088 0.0
C2931 C 0.09882 0.50084 0.82555 0.0
C2932 C 0.16631 0.48659 0.83057 0.0
C2933 C 0.26235 0.49874 0.8166 0.0
H2934 H 0.32546 0.49124 0.83899 0.0
C2935 C 0.44987 0.5036 0.81835 0.0
C2936 C 0.47184 0.49068 0.82369 0.0
C2937 C 0.40453 0.50508 0.81867 0.0
C2938 C 0.30837 0.49314 0.83266 0.0
H2939 H 0.10747 0.52247 0.81573 0.0
H2940 H 0.1864 0.5201 0.81518 0.0
H2941 H 0.24641 0.49302 0.83923 0.0
H2942 H 0.46295 0.46914 0.83354 0.0
H2943 H 0.38407 0.47171 0.8341 0.0
H2944 H 0.32432 0.49885 0.81003 0.0
C2945 C 0.16864 0.51083 0.81951 0.0
C2946 C 0.26295 0.49415 0.83279 0.0
C2947 C 0.12328 0.51218 0.81982 0.0
C2948 C 0.44726 0.47944 0.82944 0.0
C2949 C 0.40193 0.48091 0.82975 0.0
C2950 C 0.30778 0.49773 0.81647 0.0
C2951 C 0.19082 0.49809 0.82493 0.0
C2952 C 0.23929 0.49695 0.82477 0.0
C2953 C 0.37989 0.49367 0.82433 0.0
C2954 C 0.33144 0.49491 0.82449 0.0
H2955 H 0.1032 0.47879 0.83526 0.0
H2956 H 0.18216 0.47639 0.83471 0.0
H2957 H 0.24526 0.50064 0.81027 0.0
H2958 H 0.46774 0.51268 0.81394 0.0
H2959 H 0.38881 0.51529 0.81451 0.0
C2960 C 0.37202 0.9896 0.58178 0.0
C2961 C 0.34994 0.98139 0.57452 0.0
C2962 C 0.41737 0.99114 0.58172 0.0
C2963 C 0.51601 0.97133 0.57114 0.0
H2964 H 0.57189 0.01475 0.58044 0.0
C2965 C 0.70099 0.98421 0.56734 0.0
C2966 C 0.72292 -0.00739 0.57457 0.0
C2967 C 0.65566 0.98256 0.56739 0.0
C2968 C 0.55689 0.00242 0.57792 0.0
H2969 H 0.35853 0.96883 0.56137 0.0
H2970 H 0.43747 0.97157 0.56125 0.0
H2971 H 0.49288 0.01281 0.5803 0.0
H2972 H 0.71414 0.00532 0.58767 0.0
H2973 H 0.63526 0.00235 0.5878 0.0
H2974 H 0.58003 0.96094 0.56877 0.0
C2975 C 0.41978 0.97653 0.56708 0.0
C2976 C 0.51148 0.00131 0.57783 0.0
C2977 C 0.37444 0.97498 0.56714 0.0
C2978 C 0.69833 -0.00097 0.58192 0.0
C2979 C 0.65302 -0.00264 0.58199 0.0
C2980 C 0.56143 0.97243 0.57124 0.0
C2981 C 0.44192 0.98452 0.5744 0.0
C2982 C 0.49038 0.98576 0.57444 0.0
C2983 C 0.63099 0.98924 0.57469 0.0
C2984 C 0.58253 0.98799 0.57463 0.0
H2985 H 0.35436 -0.00557 0.58764 0.0
H2986 H 0.43326 -0.00286 0.58753 0.0
H2987 H 0.50099 0.95901 0.56862 0.0
H2988 H 0.71875 0.97935 0.5615 0.0
H2989 H 0.63987 0.97646 0.5616 0.0
C2990 C 0.58407 0.25387 0.57026 0.0
C2991 C 0.56349 0.23792 0.57333 0.0
C2992 C 0.62941 0.25543 0.57044 0.0
C2993 C 0.72993 0.22753 0.57134 0.0
H2994 H 0.78444 0.27316 0.57799 0.0
C2995 C 0.91552 0.23398 0.57719 0.0
C2996 C 0.93621 0.24986 0.57407 0.0
C2997 C 0.87018 0.23246 0.577 0.0
C2998 C 0.76978 0.26037 0.57601 0.0
H2999 H 0.57491 0.21106 0.57896 0.0
H3000 H 0.6537 0.21393 0.57945 0.0
H3001 H 0.70545 0.27077 0.57799 0.0
H3002 H 0.925 0.27664 0.56833 0.0
H3003 H 0.84615 0.27386 0.56784 0.0
H3004 H 0.79426 0.21713 0.56937 0.0
C3005 C 0.63482 0.22519 0.57681 0.0
C3006 C 0.72441 0.25899 0.57602 0.0
C3007 C 0.5895 0.22364 0.57665 0.0
C3008 C 0.91031 0.26412 0.57069 0.0
C3009 C 0.86498 0.26262 0.57052 0.0
C3010 C 0.7753 0.2289 0.57134 0.0
C3011 C 0.65544 0.24106 0.57367 0.0
C3012 C 0.70384 0.24255 0.57368 0.0
C3013 C 0.84426 0.2468 0.57371 0.0
C3014 C 0.79586 0.24534 0.57367 0.0
H3015 H 0.56512 0.26522 0.56774 0.0
H3016 H 0.64409 0.2678 0.56789 0.0
H3017 H 0.71529 0.21473 0.56936 0.0
H3018 H 0.9344 0.22266 0.57976 0.0
H3019 H 0.8554 0.22014 0.57958 0.0
C3020 C 0.69788 0.23451 0.68648 0.0
C3021 C 0.72145 0.24381 0.69319 0.0
C3022 C 0.65267 0.23629 0.6859 0.0
C3023 C 0.56047 0.26576 0.69288 0.0
H3024 H 0.49177 0.22262 0.68805 0.0
C3025 C 0.37241 0.26589 0.69531 0.0
C3026 C 0.34943 0.25634 0.6886 0.0
C3027 C 0.41767 0.26434 0.696 0.0
C3028 C 0.51044 0.23485 0.68931 0.0
H3029 H 0.71573 0.26268 0.70441 0.0
H3030 H 0.63693 0.26559 0.70346 0.0
H3031 H 0.57065 0.22027 0.68882 0.0
H3032 H 0.35628 0.2373 0.67748 0.0
H3033 H 0.435 0.23484 0.67858 0.0
H3034 H 0.50022 0.28034 0.69336 0.0
C3035 C 0.65343 0.25698 0.69861 0.0
C3036 C 0.55576 0.23351 0.68974 0.0
C3037 C 0.69863 0.25517 0.69921 0.0
C3038 C 0.37289 0.24503 0.68267 0.0
C3039 C 0.41807 0.24345 0.68337 0.0
C3040 C 0.51512 0.26711 0.69244 0.0
C3041 C 0.62978 0.24745 0.69199 0.0
C3042 C 0.58143 0.24894 0.69152 0.0
C3043 C 0.44115 0.25315 0.69001 0.0
C3044 C 0.48947 0.25168 0.69063 0.0
H3045 H 0.71426 0.22552 0.68179 0.0
H3046 H 0.63565 0.22892 0.68064 0.0
H3047 H 0.57917 0.27798 0.69414 0.0
H3048 H 0.35551 0.27484 0.69995 0.0
H3049 H 0.43425 0.27185 0.70127 0.0
C3050 C 0.91073 0.97608 0.69902 0.0
C3051 C 0.93429 0.98569 0.69242 0.0
C3052 C 0.86536 0.97731 0.69942 0.0
C3053 C 0.76949 0.98931 0.68542 0.0
H3054 H 0.71002 0.99139 0.70849 0.0
C3055 C 0.58509 0.00413 0.68829 0.0
C3056 C 0.56128 -0.00527 0.69493 0.0
C3057 C 0.63043 0.00275 0.68792 0.0
C3058 C 0.72603 0.99059 0.70199 0.0
H3059 H 0.92834 0.00462 0.68123 0.0
H3060 H 0.84939 0.00679 0.68193 0.0
H3061 H 0.7891 0.98989 0.7081 0.0
H3062 H 0.56672 0.97604 0.70623 0.0
H3063 H 0.64565 0.97355 0.70556 0.0
H3064 H 0.70645 0.99 0.67931 0.0
C3065 C 0.86593 -0.00199 0.6867 0.0
C3066 C 0.77147 0.98974 0.70176 0.0
C3067 C 0.91127 -0.00322 0.68631 0.0
C3068 C 0.58401 0.9837 0.70111 0.0
C3069 C 0.62934 0.98229 0.70073 0.0
C3070 C 0.72406 0.99014 0.68565 0.0
C3071 C 0.8423 0.98819 0.69322 0.0
C3072 C 0.79384 0.98912 0.69348 0.0
C3073 C 0.65322 -0.0081 0.69418 0.0
C3074 C 0.70168 0.99081 0.69393 0.0
H3075 H 0.92723 0.96718 0.70375 0.0
H3076 H 0.84827 0.96936 0.70445 0.0
H3077 H 0.78552 0.98852 0.67892 0.0
H3078 H 0.5688 0.01299 0.68351 0.0
H3079 H 0.64769 0.01055 0.68286 0.0
C3080 C 0.6564 -0.00548 0.43645 0.0
C3081 C 0.67882 0.00279 0.44365 0.0
C3082 C 0.61102 -0.00683 0.43655 0.0
C3083 C 0.51545 -0.0052 0.45186 0.0
H3084 H 0.45177 0.00392 0.4297 0.0
C3085 C 0.32778 0.00054 0.45125 0.0
C3086 C 0.30589 -0.008 0.44406 0.0
C3087 C 0.37309 0.00229 0.45117 0.0
C3088 C 0.46902 0.00115 0.43593 0.0
H3089 H 0.67078 0.01574 0.45672 0.0
H3090 H 0.59174 0.01361 0.45685 0.0
H3091 H 0.53085 0.00568 0.42969 0.0
H3092 H 0.3147 0.97906 0.43101 0.0
H3093 H 0.3936 0.98189 0.43091 0.0
H3094 H 0.45362 0.99025 0.45809 0.0
C3095 C 0.60926 0.00805 0.45113 0.0
C3096 C 0.51445 0.00214 0.43592 0.0
C3097 C 0.65463 0.00944 0.45102 0.0
C3098 C 0.33047 0.98555 0.43671 0.0
C3099 C 0.37575 0.98734 0.43661 0.0
C3100 C 0.47002 -0.00618 0.45186 0.0
C3101 C 0.58679 2e-05 0.44387 0.0
C3102 C 0.53832 -0.00105 0.44389 0.0
C3103 C 0.39774 -0.0044 0.44387 0.0
C3104 C 0.44616 -0.00305 0.44389 0.0
H3105 H 0.67384 0.98942 0.43062 0.0
H3106 H 0.59493 0.98669 0.4309 0.0
H3107 H 0.53271 -0.008 0.45809 0.0
H3108 H 0.31001 0.00551 0.45707 0.0
H3109 H 0.38882 0.00892 0.45683 0.0
C3110 C 0.45603 0.73293 0.43724 0.0
C3111 C 0.47626 0.74214 0.44444 0.0
C3112 C 0.41071 0.73148 0.43683 0.0
C3113 C 0.30978 0.7528 0.44556 0.0
H3114 H 0.25612 0.70773 0.43775 0.0
C3115 C 0.12402 0.74075 0.44783 0.0
C3116 C 0.10409 0.73171 0.44054 0.0
C3117 C 0.16936 0.74197 0.44839 0.0
C3118 C 0.27055 0.72049 0.43985 0.0
H3119 H 0.46428 0.75723 0.4568 0.0
H3120 H 0.38557 0.75436 0.45619 0.0
H3121 H 0.33506 0.70989 0.43851 0.0
H3122 H 0.11656 0.71661 0.42821 0.0
H3123 H 0.19529 0.71907 0.42908 0.0
H3124 H 0.24528 0.76341 0.44689 0.0
C3125 C 0.40468 0.74839 0.45081 0.0
C3126 C 0.31587 0.72172 0.44028 0.0
C3127 C 0.44994 0.74983 0.45122 0.0
C3128 C 0.13069 0.72389 0.43385 0.0
C3129 C 0.17595 0.72509 0.43441 0.0
C3130 C 0.26445 0.75156 0.44512 0.0
C3131 C 0.38442 0.73924 0.4436 0.0
C3132 C 0.33611 0.7379 0.44314 0.0
C3133 C 0.19592 0.73414 0.44169 0.0
C3134 C 0.24422 0.7354 0.44225 0.0
H3135 H 0.47524 0.72672 0.43194 0.0
H3136 H 0.39624 0.72448 0.43114 0.0
H3137 H 0.3242 0.76556 0.44765 0.0
H3138 H 0.10459 0.74704 0.45307 0.0
H3139 H 0.1836 0.74888 0.45413 0.0
C3140 C 0.33446 0.73483 0.31577 0.0
C3141 C 0.31259 0.7433 0.32299 0.0
C3142 C 0.37979 0.73308 0.31584 0.0
C3143 C 0.47594 0.73401 0.33104 0.0
H3144 H 0.53935 0.74311 0.30885 0.0
C3145 C 0.66361 0.7398 0.33039 0.0
C3146 C 0.6857 0.7316 0.32312 0.0
C3147 C 0.61824 0.74134 0.33034 0.0
C3148 C 0.52218 0.74031 0.31509 0.0
H3149 H 0.32154 0.75615 0.33606 0.0
H3150 H 0.40047 0.7533 0.33612 0.0
H3151 H 0.46029 0.74507 0.3089 0.0
H3152 H 0.67703 0.71896 0.31 0.0
H3153 H 0.59804 0.7214 0.30996 0.0
H3154 H 0.53783 0.72924 0.33723 0.0
C3155 C 0.38257 0.74791 0.33042 0.0
C3156 C 0.47675 0.74143 0.31512 0.0
C3157 C 0.33726 0.74971 0.33034 0.0
C3158 C 0.66116 0.7252 0.31575 0.0
C3159 C 0.61581 0.72677 0.31569 0.0
C3160 C 0.52138 0.73288 0.33101 0.0
C3161 C 0.40452 0.7397 0.32313 0.0
C3162 C 0.45297 0.7383 0.32309 0.0
C3163 C 0.59366 0.73476 0.32301 0.0
C3164 C 0.54517 0.73604 0.32304 0.0
H3165 H 0.31664 0.72989 0.30996 0.0
H3166 H 0.39546 0.72649 0.31016 0.0
H3167 H 0.45877 0.73124 0.33728 0.0
H3168 H 0.6813 0.74471 0.33623 0.0
H3169 H 0.60243 0.74777 0.33604 0.0
C3170 C 0.12928 0.01162 0.31878 0.0
C3171 C 0.10562 0.00086 0.32491 0.0
C3172 C 0.17463 0.01041 0.31833 0.0
C3173 C 0.26764 0.98054 0.32443 0.0
H3174 H 0.3348 0.0249 0.32192 0.0
C3175 C 0.45457 0.98129 0.32851 0.0
C3176 C 0.47857 -0.00808 0.32237 0.0
C3177 C 0.40921 0.98256 0.32886 0.0
C3178 C 0.31657 0.01235 0.32252 0.0
H3179 H 0.1114 0.98 0.33523 0.0
H3180 H 0.19037 0.97808 0.33455 0.0
H3181 H 0.25569 0.02648 0.32226 0.0
H3182 H 0.47345 0.01257 0.31195 0.0
H3183 H 0.3944 0.01462 0.31247 0.0
H3184 H 0.32851 0.96642 0.32471 0.0
C3185 C 0.17386 0.9874 0.33003 0.0
C3186 C 0.27113 0.01326 0.32271 0.0
C3187 C 0.12853 0.98864 0.33049 0.0
C3188 C 0.45603 0.00405 0.31669 0.0
C3189 C 0.41067 0.00536 0.31706 0.0
C3190 C 0.31307 0.97964 0.32425 0.0
C3191 C 0.19758 -0.00164 0.32399 0.0
C3192 C 0.24603 -0.00264 0.32367 0.0
C3193 C 0.38661 -0.00547 0.3231 0.0
C3194 C 0.33817 -0.00447 0.32331 0.0
H3195 H 0.11283 0.02132 0.31444 0.0
H3196 H 0.19172 0.01889 0.31351 0.0
H3197 H 0.24943 0.96799 0.32504 0.0
H3198 H 0.47074 0.97166 0.33292 0.0
H3199 H 0.39185 0.97418 0.33367 0.0
C3200 C 0.20387 0.50266 0.57773 0.0
C3201 C 0.22861 0.49041 0.57254 0.0
C3202 C 0.15852 0.50139 0.57797 0.0
C3203 C 0.06699 0.46983 0.57351 0.0
H3204 H 0.99903 0.51427 0.57252 0.0
C3205 C 0.88017 0.46895 0.56908 0.0
C3206 C 0.85587 0.48128 0.57432 0.0
C3207 C 0.92551 0.47018 0.56869 0.0
C3208 C 1.01748 0.50173 0.5729 0.0
H3209 H 0.22482 0.46694 0.56368 0.0
H3210 H 0.14574 0.46487 0.56401 0.0
H3211 H 0.07811 0.51595 0.57235 0.0
H3212 H 0.86044 0.50485 0.5831 0.0
H3213 H 0.93944 0.50683 0.58253 0.0
H3214 H 1.00635 0.45561 0.57407 0.0
C3215 C 0.16145 0.47541 0.56795 0.0
C3216 C 0.06288 0.50269 0.57281 0.0
C3217 C 0.20681 0.4767 0.56769 0.0
C3218 C 0.8781 0.49502 0.57906 0.0
C3219 C 0.92343 0.49627 0.57866 0.0
C3220 C 0.02157 0.46887 0.5736 0.0
C3221 C 0.13667 0.48782 0.57304 0.0
C3222 C 0.08826 0.48676 0.57313 0.0
C3223 C 0.94778 0.48378 0.57352 0.0
C3224 C 0.99619 0.48481 0.57331 0.0
H3225 H 0.21948 0.51351 0.58147 0.0
H3226 H 0.14057 0.51105 0.58206 0.0
H3227 H 0.08545 0.4573 0.5739 0.0
H3228 H 0.86423 0.45808 0.56542 0.0
H3229 H 0.94313 0.46046 0.56458 0.0
C3230 C 0.41013 0.74332 0.58035 0.0
C3231 C 0.43272 0.75053 0.5729 0.0
C3232 C 0.36476 0.74199 0.58025 0.0
C3233 C 0.26956 0.74147 0.56483 0.0
H3234 H 0.20542 0.75384 0.58653 0.0
C3235 C 0.08203 0.74764 0.565 0.0
C3236 C 0.05985 0.74016 0.57244 0.0
C3237 C 0.12735 0.7493 0.56508 0.0
C3238 C 0.22281 0.75016 0.58044 0.0
H3239 H 0.42504 0.76159 0.5594 0.0
H3240 H 0.34598 0.7595 0.55926 0.0
H3241 H 0.28452 0.75553 0.58656 0.0
H3242 H 0.06813 0.72901 0.5859 0.0
H3243 H 0.14708 0.7317 0.58601 0.0
H3244 H 0.20785 0.73609 0.5587 0.0
C3245 C 0.36336 0.75476 0.56518 0.0
C3246 C 0.26824 0.75111 0.58046 0.0
C3247 C 0.40873 0.75613 0.56529 0.0
C3248 C 0.08414 0.73467 0.58002 0.0
C3249 C 0.12944 0.73638 0.58012 0.0
C3250 C 0.22413 0.74053 0.56481 0.0
C3251 C 0.34072 0.74779 0.57268 0.0
C3252 C 0.29226 0.74675 0.57266 0.0
C3253 C 0.1517 0.74358 0.57262 0.0
C3254 C 0.20012 0.74484 0.57261 0.0
H3255 H 0.42743 0.73905 0.58637 0.0
H3256 H 0.34851 0.73635 0.58611 0.0
H3257 H 0.28695 0.73776 0.55874 0.0
H3258 H 0.06447 0.75185 0.55901 0.0
H3259 H 0.14331 0.7551 0.55923 0.0
C3260 C 0.88113 0.76588 0.68105 0.0
C3261 C 0.85367 0.75852 0.68772 0.0
C3262 C 0.92632 0.76443 0.6818 0.0
C3263 C 1.01467 0.75617 0.69836 0.0
H3264 H 0.08254 0.745 0.67698 0.0
C3265 C 0.19708 0.73746 0.70027 0.0
C3266 C 0.22487 0.7443 0.69352 0.0
C3267 C 0.15201 0.73955 0.69958 0.0
C3268 C 0.06418 0.74835 0.683 0.0
H3269 H 0.85268 0.74377 0.70042 0.0
H3270 H 0.93146 0.7413 0.70175 0.0
H3271 H 1.00386 0.74791 0.67579 0.0
H3272 H 0.22664 0.75894 0.68079 0.0
H3273 H 0.14804 0.76257 0.67959 0.0
H3274 H 0.07499 0.75658 0.70557 0.0
C3275 C 0.91798 0.74839 0.69597 0.0
C3276 C 0.01899 0.75001 0.68232 0.0
C3277 C 0.87273 0.74981 0.69521 0.0
C3278 C 0.20628 0.75329 0.68606 0.0
C3279 C 0.16115 0.75537 0.68537 0.0
C3280 C 0.05987 0.75451 0.69904 0.0
C3281 C 0.94538 0.75562 0.68926 0.0
C3282 C 0.99359 0.75392 0.68999 0.0
C3283 C 0.1334 0.74852 0.69212 0.0
C3284 C 0.08525 0.75055 0.69137 0.0
H3285 H 0.86774 0.77299 0.67527 0.0
H3286 H 0.94636 0.77045 0.67658 0.0
H3287 H 0.99628 0.75947 0.70438 0.0
H3288 H 0.21007 0.73015 0.70603 0.0
H3289 H 0.1317 0.73382 0.70483 0.0
C3290 C 0.07627 0.4817 0.70124 0.0
C3291 C 0.05345 0.49311 0.69525 0.0
C3292 C 0.12161 0.48039 0.70085 0.0
C3293 C 0.21881 0.5053 0.69277 0.0
H3294 H 0.2766 0.45887 0.69615 0.0
C3295 C 0.40344 0.49582 0.68678 0.0
C3296 C 0.42645 0.48435 0.69271 0.0
C3297 C 0.35809 0.49705 0.6872 0.0
C3298 C 0.26105 0.472 0.69531 0.0
H3299 H 0.0608 0.51205 0.6841 0.0
H3300 H 0.13969 0.50951 0.6833 0.0
H3301 H 0.19749 0.46039 0.69649 0.0
H3302 H 0.41941 0.4652 0.70378 0.0
H3303 H 0.34051 0.46761 0.70463 0.0
H3304 H 0.28234 0.51692 0.69159 0.0
C3305 C 0.12253 0.50171 0.68839 0.0
C3306 C 0.21561 0.47286 0.69549 0.0
C3307 C 0.07718 0.50298 0.68876 0.0
C3308 C 0.40289 0.47431 0.69916 0.0
C3309 C 0.35752 0.47552 0.69957 0.0
C3310 C 0.26424 0.50444 0.69259 0.0
C3311 C 0.1454 0.49049 0.69446 0.0
C3312 C 0.19385 0.48952 0.69422 0.0
C3313 C 0.33446 0.48682 0.69356 0.0
C3314 C 0.28601 0.48777 0.69385 0.0
H3315 H 0.05906 0.47376 0.70626 0.0
H3316 H 0.13809 0.47172 0.70568 0.0
H3317 H 0.20325 0.51842 0.69192 0.0
H3318 H 0.42048 0.5039 0.68179 0.0
H3319 H 0.3415 0.50577 0.68241 0.0
C3320 C 0.83563 0.49743 0.45035 0.0
C3321 C 0.81346 0.4897 0.44297 0.0
C3322 C 0.88095 0.49912 0.45026 0.0
C3323 C 0.97948 0.4804 0.43912 0.0
H3324 H 0.03548 0.52286 0.44941 0.0
C3325 C 0.16429 0.49361 0.43541 0.0
C3326 C 0.18652 0.50109 0.44285 0.0
C3327 C 0.11893 0.49209 0.43546 0.0
C3328 C 0.02044 0.5108 0.4466 0.0
H3329 H 0.82183 0.47823 0.42957 0.0
H3330 H 0.90069 0.48127 0.42939 0.0
H3331 H 0.95644 0.52089 0.44931 0.0
H3332 H 0.17816 0.51238 0.45628 0.0
H3333 H 0.09921 0.50967 0.45639 0.0
H3334 H 0.04347 0.47031 0.43641 0.0
C3335 C 0.88313 0.4857 0.43534 0.0
C3336 C 0.97501 0.50967 0.44654 0.0
C3337 C 0.83782 0.48398 0.43543 0.0
C3338 C 0.16215 0.50681 0.45038 0.0
C3339 C 0.11679 0.50528 0.45044 0.0
C3340 C 0.0249 0.48153 0.43918 0.0
C3341 C 0.90539 0.49315 0.44278 0.0
C3342 C 0.95387 0.49445 0.44279 0.0
C3343 C 0.09451 0.498 0.44295 0.0
C3344 C 0.04604 0.49674 0.44293 0.0
H3345 H 0.81806 0.50173 0.45632 0.0
H3346 H 0.89692 0.50469 0.45617 0.0
H3347 H 0.96446 0.46832 0.43632 0.0
H3348 H 0.18185 0.48934 0.42944 0.0
H3349 H 0.10294 0.48667 0.42953 0.0
C3350 C 0.95003 0.24733 0.45191 0.0
C3351 C 0.97559 0.24298 0.44432 0.0
C3352 C 0.90474 0.24585 0.45158 0.0
C3353 C 0.81502 0.22394 0.43888 0.0
H3354 H 0.74452 0.26134 0.45017 0.0
C3355 C 0.6288 0.22744 0.4339 0.0
C3356 C 0.60304 0.23198 0.44143 0.0
C3357 C 0.6741 0.22879 0.43429 0.0
C3358 C 0.76367 0.25065 0.44707 0.0
H3359 H 0.9732 0.23341 0.43046 0.0
H3360 H 0.89417 0.23108 0.42985 0.0
H3361 H 0.82348 0.26354 0.45075 0.0
H3362 H 0.60512 0.24171 0.45527 0.0
H3363 H 0.68416 0.24377 0.456 0.0
H3364 H 0.75522 0.21104 0.4352 0.0
C3365 C 0.90924 0.23549 0.43609 0.0
C3366 C 0.80903 0.25192 0.44741 0.0
C3367 C 0.95458 0.23702 0.43641 0.0
C3368 C 0.62388 0.23795 0.44936 0.0
C3369 C 0.66924 0.23932 0.44975 0.0
C3370 C 0.76966 0.22267 0.43855 0.0
C3371 C 0.88369 0.23996 0.44367 0.0
C3372 C 0.83533 0.23858 0.44331 0.0
C3373 C 0.69498 0.23471 0.44222 0.0
C3374 C 0.74335 0.23602 0.44263 0.0
H3375 H 0.96496 0.2522 0.45808 0.0
H3376 H 0.88622 0.24921 0.45758 0.0
H3377 H 0.83418 0.21327 0.43577 0.0
H3378 H 0.61401 0.22256 0.42772 0.0
H3379 H 0.69275 0.22531 0.42833 0.0
C3380 C 0.15519 0.22008 0.31823 0.0
C3381 C 0.17939 0.23114 0.32414 0.0
C3382 C 0.10983 0.22141 0.31787 0.0
C3383 C 0.01767 0.25192 0.32373 0.0
H3384 H 0.94958 0.20767 0.32194 0.0
C3385 C 0.83073 0.25208 0.32795 0.0
C3386 C 0.80642 0.24118 0.32198 0.0
C3387 C 0.87607 0.25067 0.3283 0.0
C3388 C 0.96807 0.22018 0.32234 0.0
H3389 H 0.17453 0.2526 0.33416 0.0
H3390 H 0.09555 0.25471 0.33364 0.0
H3391 H 0.02866 0.20584 0.32219 0.0
H3392 H 0.811 0.21987 0.31188 0.0
H3393 H 0.88999 0.21757 0.31241 0.0
H3394 H 0.95708 0.26626 0.3239 0.0
C3395 C 0.11165 0.24508 0.32923 0.0
C3396 C 1.0135 0.21913 0.32248 0.0
C3397 C 0.15699 0.24373 0.3296 0.0
C3398 C 0.82866 0.22862 0.31649 0.0
C3399 C 0.87399 0.22716 0.31686 0.0
C3400 C 0.97225 0.25296 0.32361 0.0
C3401 C 0.0874 0.23385 0.3234 0.0
C3402 C 0.03894 0.23499 0.32318 0.0
C3403 C 0.89836 0.23827 0.32272 0.0
C3404 C 0.94681 0.23711 0.32291 0.0
H3405 H 0.17122 0.2101 0.314 0.0
H3406 H 0.09233 0.2127 0.31322 0.0
H3407 H 0.03613 0.26443 0.32414 0.0
H3408 H 0.81482 0.26204 0.33221 0.0
H3409 H 0.89367 0.25928 0.33297 0.0
C3410 C 0.95497 0.49858 0.31596 0.0
C3411 C 0.97712 0.49069 0.3233 0.0
C3412 C 0.90963 0.50015 0.31603 0.0
C3413 C 0.81395 0.49989 0.3313 0.0
H3414 H 0.75035 0.48861 0.30938 0.0
C3415 C 0.62684 0.49272 0.33099 0.0
C3416 C 0.60428 0.50041 0.32364 0.0
C3417 C 0.67222 0.49141 0.33088 0.0
C3418 C 0.76759 0.49201 0.31553 0.0
H3419 H 0.96877 0.47872 0.33659 0.0
H3420 H 0.8898 0.48124 0.33667 0.0
H3421 H 0.82948 0.48712 0.30938 0.0
H3422 H 0.61196 0.51232 0.31033 0.0
H3423 H 0.69104 0.51027 0.31019 0.0
H3424 H 0.75208 0.50477 0.33745 0.0
C3425 C 0.90748 0.48632 0.33086 0.0
C3426 C 0.81303 0.49117 0.31553 0.0
C3427 C 0.95278 0.4847 0.33078 0.0
C3428 C 0.62827 0.50649 0.31613 0.0
C3429 C 0.67363 0.50514 0.31602 0.0
C3430 C 0.76852 0.50073 0.3313 0.0
C3431 C 0.88525 0.49392 0.32345 0.0
C3432 C 0.83683 0.49508 0.32342 0.0
C3433 C 0.69626 0.49772 0.32342 0.0
C3434 C 0.7447 0.49677 0.32342 0.0
H3435 H 0.97258 0.50317 0.31005 0.0
H3436 H 0.89368 0.50628 0.31025 0.0
H3437 H 0.83119 0.50327 0.33746 0.0
H3438 H 0.60952 0.48807 0.33692 0.0
H3439 H 0.68846 0.48541 0.33665 0.0
C3440 C 0.87229 0.98851 0.08182 0.0
C3441 C 0.8499 0.98105 0.0744 0.0
C3442 C 0.91764 0.99007 0.08172 0.0
C3443 C 1.01299 0.99064 0.0663 0.0
H3444 H 0.07741 0.97923 0.0881 0.0
C3445 C 0.20073 0.9849 0.06652 0.0
C3446 C 0.22294 -0.00743 0.07391 0.0
C3447 C 0.1554 0.98324 0.06661 0.0
C3448 C 0.05995 0.98266 0.08198 0.0
H3449 H 0.85798 0.9698 0.06095 0.0
H3450 H 0.93696 0.97227 0.06082 0.0
H3451 H 0.99835 0.97725 0.08814 0.0
H3452 H 0.21459 0.00409 0.0873 0.0
H3453 H 0.13563 0.00139 0.08741 0.0
H3454 H 0.07461 -0.00396 0.06013 0.0
C3455 C 0.91944 0.97704 0.06672 0.0
C3456 C 1.01452 0.98154 0.082 0.0
C3457 C 0.8741 0.97544 0.06683 0.0
C3458 C 0.1986 -0.00172 0.08145 0.0
C3459 C 0.15328 -0.00345 0.08155 0.0
C3460 C 0.05843 0.99175 0.06627 0.0
C3461 C 0.9419 0.98426 0.07419 0.0
C3462 C 0.99038 0.98553 0.07416 0.0
C3463 C 0.131 0.98914 0.0741 0.0
C3464 C 0.08255 0.98778 0.07411 0.0
H3465 H 0.85486 -0.0072 0.08781 0.0
H3466 H 0.9337 -0.0041 0.08755 0.0
H3467 H 0.99555 -0.00591 0.06017 0.0
H3468 H 0.2183 0.98053 0.06056 0.0
H3469 H 0.13946 0.97726 0.0608 0.0
C3470 C 0.08153 0.25391 0.06804 0.0
C3471 C 0.05987 0.24002 0.07279 0.0
C3472 C 0.12688 0.25524 0.06829 0.0
C3473 C 0.22559 0.22784 0.07286 0.0
H3474 H 0.28208 0.2749 0.0744 0.0
C3475 C 0.41058 0.23537 0.07889 0.0
C3476 C 0.4326 0.24926 0.07422 0.0
C3477 C 0.36524 0.23413 0.07856 0.0
C3478 C 0.26686 0.26165 0.07385 0.0
H3479 H 0.06924 0.21665 0.08155 0.0
H3480 H 0.14814 0.21917 0.08211 0.0
H3481 H 0.20298 0.27319 0.07432 0.0
H3482 H 0.42386 0.27274 0.0655 0.0
H3483 H 0.34493 0.27037 0.06478 0.0
H3484 H 0.28944 0.2163 0.07239 0.0
C3485 C 0.13008 0.22894 0.07811 0.0
C3486 C 0.22145 0.26068 0.07381 0.0
C3487 C 0.08473 0.22764 0.07788 0.0
C3488 C 0.40808 0.26175 0.06911 0.0
C3489 C 0.36272 0.26053 0.06879 0.0
C3490 C 0.27099 0.22882 0.07289 0.0
C3491 C 0.15179 0.24268 0.07327 0.0
C3492 C 0.20019 0.24376 0.07333 0.0
C3493 C 0.34067 0.24677 0.07355 0.0
C3494 C 0.29226 0.24574 0.0734 0.0
H3495 H 0.06341 0.26379 0.06412 0.0
H3496 H 0.14248 0.26591 0.06442 0.0
H3497 H 0.21037 0.2146 0.07231 0.0
H3498 H 0.42842 0.22541 0.08282 0.0
H3499 H 0.3494 0.22345 0.08237 0.0
C3500 C 0.88596 0.2645 0.18314 0.0
C3501 C 0.85831 0.25613 0.18947 0.0
C3502 C 0.93111 0.26307 0.18395 0.0
C3503 C 1.01718 0.23494 0.19454 0.0
H3504 H 0.09057 0.27639 0.18906 0.0
C3505 C 0.20176 0.23445 0.20167 0.0
C3506 C 0.22935 0.24235 0.19518 0.0
C3507 C 0.15666 0.23635 0.20103 0.0
C3508 C 0.0706 0.26461 0.19052 0.0
H3509 H 0.85685 0.23968 0.20165 0.0
H3510 H 0.93558 0.23751 0.20317 0.0
H3511 H 1.01185 0.27938 0.18796 0.0
H3512 H 0.23079 0.25862 0.18295 0.0
H3513 H 0.15202 0.26167 0.18174 0.0
H3514 H 0.0759 0.22017 0.19708 0.0
C3515 C 0.92228 0.245 0.1975 0.0
C3516 C 0.0254 0.26633 0.18989 0.0
C3517 C 0.87708 0.24643 0.19669 0.0
C3518 C 0.21056 0.25223 0.18803 0.0
C3519 C 0.16539 0.25415 0.18739 0.0
C3520 C 0.06236 0.23323 0.19517 0.0
C3521 C 0.94991 0.25325 0.19112 0.0
C3522 C 0.99808 0.25151 0.19189 0.0
C3523 C 0.13784 0.24619 0.19387 0.0
C3524 C 0.08968 0.24804 0.19317 0.0
H3525 H 0.87274 0.27228 0.17757 0.0
H3526 H 0.95129 0.26946 0.17887 0.0
H3527 H 0.99726 0.22315 0.19598 0.0
H3528 H 0.21496 0.22654 0.20721 0.0
H3529 H 0.13653 0.23021 0.2062 0.0
C3530 C 0.41683 -0.00789 0.186 0.0
C3531 C 0.43864 0.98292 0.19301 0.0
C3532 C 0.37146 -0.00631 0.18603 0.0
C3533 C 0.27486 0.99069 0.20105 0.0
H3534 H 0.21221 0.98465 0.17851 0.0
C3535 C 0.0871 0.98555 0.19989 0.0
C3536 C 0.06555 -0.00503 0.19292 0.0
C3537 C 0.13242 0.98375 0.19985 0.0
C3538 C 0.22917 0.98656 0.18486 0.0
H3539 H 0.42947 0.96858 0.20568 0.0
H3540 H 0.35051 0.97109 0.20568 0.0
H3541 H 0.29125 0.9826 0.17863 0.0
H3542 H 0.07508 0.00944 0.18029 0.0
H3543 H 0.15397 0.0065 0.18027 0.0
H3544 H 0.21277 -0.00535 0.20728 0.0
C3545 C 0.36848 0.9772 0.20016 0.0
C3546 C 0.2746 0.98541 0.18492 0.0
C3547 C 0.41383 0.97559 0.20012 0.0
C3548 C 0.09054 0.00226 0.18582 0.0
C3549 C 0.13583 0.00041 0.18576 0.0
C3550 C 0.22943 -0.00817 0.20099 0.0
C3551 C 0.34661 0.98616 0.19309 0.0
C3552 C 0.29812 0.98748 0.19302 0.0
C3553 C 0.15747 0.99126 0.19281 0.0
C3554 C 0.20592 0.9898 0.19289 0.0
H3555 H 0.43474 -0.00223 0.18036 0.0
H3556 H 0.35587 0.00088 0.18052 0.0
H3557 H 0.29181 -0.00737 0.2074 0.0
H3558 H 0.06904 0.97991 0.20551 0.0
H3559 H 0.14784 0.97642 0.20533 0.0
C3560 C 0.83381 -0.00394 0.95101 0.0
C3561 C 0.81124 0.9894 0.94343 0.0
C3562 C 0.87914 -0.00231 0.9509 0.0
C3563 C 0.97706 0.98051 0.93893 0.0
H3564 H 0.03371 0.02142 0.95055 0.0
C3565 C 0.16169 -0.00581 0.93528 0.0
C3566 C 0.18434 0.0006 0.9429 0.0
C3567 C 0.11633 -0.00732 0.93538 0.0
C3568 C 0.01849 0.00978 0.94736 0.0
H3569 H 0.8189 0.97977 0.92967 0.0
H3570 H 0.89779 0.98274 0.92943 0.0
H3571 H 0.95467 0.01948 0.95054 0.0
H3572 H 0.17673 0.00996 0.95672 0.0
H3573 H 0.09778 0.00725 0.95691 0.0
H3574 H 0.04088 0.97082 0.93574 0.0
C3575 C 0.88053 0.98635 0.93555 0.0
C3576 C 0.97306 0.00867 0.94736 0.0
C3577 C 0.83521 0.98469 0.93568 0.0
C3578 C 0.16039 0.00524 0.95067 0.0
C3579 C 0.11503 0.00371 0.95078 0.0
C3580 C 0.02248 0.98162 0.93893 0.0
C3581 C 0.90319 -0.00725 0.94318 0.0
C3582 C 0.95168 -0.00598 0.94314 0.0
C3583 C 0.09233 -0.00248 0.94311 0.0
C3584 C 0.04386 -0.00373 0.94315 0.0
H3585 H 0.81654 -0.00044 0.95715 0.0
H3586 H 0.89542 0.00242 0.95695 0.0
H3587 H 0.96187 0.96886 0.93575 0.0
H3588 H 0.17891 0.99078 0.92912 0.0
H3589 H 0.10001 0.98811 0.9293 0.0
C3590 C 0.94716 0.74974 0.93366 0.0
C3591 C 0.97209 0.74312 0.94093 0.0
C3592 C 0.90187 0.74792 0.93363 0.0
C3593 C 0.80817 0.74091 0.94899 0.0
H3594 H 0.74659 0.72952 0.92684 0.0
C3595 C 0.62369 0.72483 0.94836 0.0
C3596 C 0.59906 0.73152 0.94106 0.0
C3597 C 0.66904 0.72637 0.94841 0.0
C3598 C 0.76318 0.73294 0.93307 0.0
H3599 H 0.96854 0.7293 0.95386 0.0
H3600 H 0.88973 0.72586 0.95374 0.0
H3601 H 0.82564 0.73147 0.92673 0.0
H3602 H 0.60328 0.74514 0.92808 0.0
H3603 H 0.68215 0.74814 0.92825 0.0
H3604 H 0.7457 0.7424 0.95533 0.0
C3605 C 0.90519 0.73264 0.94809 0.0
C3606 C 0.80861 0.73404 0.93301 0.0
C3607 C 0.95051 0.73441 0.94811 0.0
C3608 C 0.62105 0.74 0.93386 0.0
C3609 C 0.66641 0.74151 0.9339 0.0
C3610 C 0.76273 0.73981 0.94905 0.0
C3611 C 0.8802 0.73948 0.94088 0.0
C3612 C 0.83175 0.73805 0.94096 0.0
C3613 C 0.69109 0.73462 0.94115 0.0
C3614 C 0.73957 0.73584 0.94109 0.0
H3615 H 0.96265 0.75637 0.92797 0.0
H3616 H 0.88376 0.75349 0.92799 0.0
H3617 H 0.82477 0.74433 0.95522 0.0
H3618 H 0.6079 0.71837 0.95406 0.0
H3619 H 0.68689 0.72077 0.95408 0.0
C3620 C 0.15324 0.72272 0.81655 0.0
C3621 C 0.17673 0.73317 0.82284 0.0
C3622 C 0.10788 0.72387 0.8161 0.0
C3623 C 1.01195 0.73752 0.82966 0.0
H3624 H 0.9526 0.73669 0.80655 0.0
C3625 C 0.82754 0.75178 0.82626 0.0
C3626 C 0.80385 0.74153 0.81992 0.0
C3627 C 0.87287 0.75049 0.8267 0.0
C3628 C 0.96859 0.73671 0.81307 0.0
H3629 H 0.17069 0.75348 0.83341 0.0
H3630 H 0.09173 0.75551 0.83262 0.0
H3631 H 0.03169 0.73532 0.80702 0.0
H3632 H 0.80946 0.72143 0.80925 0.0
H3633 H 0.8884 0.71911 0.81003 0.0
H3634 H 0.94887 0.73889 0.83572 0.0
C3635 C 0.10833 0.74615 0.82814 0.0
C3636 C 1.01402 0.73594 0.81334 0.0
C3637 C 0.15367 0.745 0.82858 0.0
C3638 C 0.82667 0.72974 0.81412 0.0
C3639 C 0.872 0.72844 0.81456 0.0
C3640 C 0.96653 0.73828 0.8294 0.0
C3641 C 0.08478 0.7355 0.82194 0.0
C3642 C 0.03633 0.73636 0.82164 0.0
C3643 C 0.89576 0.73889 0.82081 0.0
C3644 C 0.9442 0.73789 0.8211 0.0
H3645 H 0.1698 0.71325 0.81212 0.0
H3646 H 0.09084 0.71528 0.81133 0.0
H3647 H 0.02795 0.73756 0.83619 0.0
H3648 H 0.81116 0.76121 0.83074 0.0
H3649 H 0.89006 0.75895 0.83151 0.0
C3650 C 0.62843 -0.00803 0.83148 0.0
C3651 C 0.60507 0.0032 0.82548 0.0
C3652 C 0.67375 0.99067 0.83094 0.0
C3653 C 0.77065 0.01512 0.82222 0.0
H3654 H 0.82808 0.96879 0.82616 0.0
C3655 C 0.95531 0.00472 0.81613 0.0
C3656 C 0.97822 -0.00638 0.82225 0.0
C3657 C 0.90996 0.00613 0.81656 0.0
C3658 C 0.81264 0.98189 0.82515 0.0
H3659 H 0.61157 0.02186 0.8142 0.0
H3660 H 0.6904 0.01932 0.81315 0.0
H3661 H 0.74905 0.97049 0.82665 0.0
H3662 H 0.97095 0.9753 0.83365 0.0
H3663 H 0.89212 0.978 0.8345 0.0
H3664 H 0.8343 0.0265 0.8207 0.0
C3665 C 0.67368 0.01166 0.81835 0.0
C3666 C 0.76722 0.98287 0.82543 0.0
C3667 C 0.62832 0.01293 0.81887 0.0
C3668 C 0.95454 0.98413 0.82888 0.0
C3669 C 0.90919 0.98549 0.82929 0.0
C3670 C 0.81609 0.01414 0.82193 0.0
C3671 C 0.69707 0.00058 0.82441 0.0
C3672 C 0.74555 -0.0005 0.82398 0.0
C3673 C 0.88622 -0.00358 0.8231 0.0
C3674 C 0.83774 -0.00249 0.82341 0.0
H3675 H 0.61167 0.98412 0.83659 0.0
H3676 H 0.69057 0.98214 0.83578 0.0
H3677 H 0.75523 0.02822 0.82122 0.0
H3678 H 0.97244 0.01237 0.81098 0.0
H3679 H 0.89343 0.01457 0.81163 0.0
C3680 C 1.01581 0.49772 0.04381 0.0
C3681 C 0.03348 0.48145 0.0472 0.0
C3682 C 1.00944 0.50004 0.03449 0.0
C3683 C 1.00129 0.47453 0.01279 0.0
H3684 H 0.0307 0.52115 1.00213 0.0
C3685 C 1.00881 0.48494 0.97399 0.0
C3686 C 0.99085 0.50113 0.97057 0.0
C3687 C 1.01473 0.48262 0.98332 0.0
C3688 C 0.02192 0.5081 1.005 0.0
H3689 H 0.05735 0.4547 0.04352 0.0
H3690 H 0.04663 0.45875 0.02731 0.0
H3691 H 0.03763 0.51687 0.01841 0.0
H3692 H 0.96593 0.52774 0.97421 0.0
H3693 H 0.97602 0.5237 0.99045 0.0
H3694 H 0.98567 0.46575 0.99937 0.0
C3695 C 0.03728 0.4697 0.03181 0.0
C3696 C 0.0258 0.50565 0.01436 0.0
C3697 C 0.04363 0.46739 0.04111 0.0
C3698 C 0.97989 0.51511 0.97664 0.0
C3699 C 0.98587 0.51281 0.98596 0.0
C3700 C 0.99745 0.47698 1.00343 0.0
C3701 C 0.02053 0.48613 0.02835 0.0
C3702 C 1.01556 0.48883 0.01839 0.0
C3703 C 1.00296 0.49647 0.98944 0.0
C3704 C 1.00771 0.49379 0.99941 0.0
H3705 H 1.00749 0.50878 0.04833 0.0
H3706 H 0.99581 0.51276 0.0321 0.0
H3707 H 0.99249 0.46148 0.01565 0.0
H3708 H 0.01773 0.47395 0.96948 0.0
H3709 H 0.0286 0.46997 0.98574 0.0
C3710 C 0.26586 0.74795 0.97148 0.0
C3711 C 0.28202 0.73144 0.96804 0.0
C3712 C 0.25967 0.75025 0.9808 0.0
C3713 C 0.29605 0.73164 1.00289 0.0
H3714 H 0.1974 0.75835 0.01234 0.0
C3715 C 0.2565 0.7349 0.04124 0.0
C3716 C 0.24032 0.7514 0.04469 0.0
C3717 C 0.2623 0.73254 0.03192 0.0
C3718 C 0.22546 0.75105 0.00982 0.0
H3719 H 0.30302 0.70422 0.97164 0.0
H3720 H 0.29177 0.70812 0.98785 0.0
H3721 H 0.20462 0.75395 0.99607 0.0
H3722 H 0.21877 0.77854 0.04107 0.0
H3723 H 0.22942 0.77455 0.02485 0.0
H3724 H 0.31693 0.72876 0.01663 0.0
C3725 C 0.28462 0.71943 0.98339 0.0
C3726 C 0.22957 0.7485 1.00047 0.0
C3727 C 0.29075 0.71714 0.97409 0.0
C3728 C 0.23107 0.76562 0.03863 0.0
C3729 C 0.23686 0.76328 0.02931 0.0
C3730 C 0.29196 0.73419 0.01224 0.0
C3731 C 0.26952 0.73609 0.9869 0.0
C3732 C 0.26491 0.73875 0.99687 0.0
C3733 C 0.25209 0.74664 0.02581 0.0
C3734 C 0.25662 0.74394 0.01584 0.0
H3735 H 0.25888 0.75923 0.96699 0.0
H3736 H 0.24832 0.76331 0.98325 0.0
H3737 H 0.32411 0.72434 1.00037 0.0
H3738 H 0.26386 0.72367 0.04574 0.0
H3739 H 0.27374 0.71949 0.02948 0.0
C3740 C 0.99314 0.7174 0.28978 0.0
C3741 C 1.00231 0.73159 0.29585 0.0
C3742 C 0.99949 0.71971 0.28048 0.0
C3743 C 0.05608 0.74839 0.26349 0.0
H3744 H 0.96795 0.72964 0.24724 0.0
C3745 C 0.05616 0.76575 0.22535 0.0
C3746 C 0.04598 0.7517 0.21927 0.0
C3747 C 0.05021 0.76339 0.23466 0.0
C3748 C 0.99315 0.73479 0.25166 0.0
H3749 H 0.02643 0.75921 0.29696 0.0
H3750 H 0.03741 0.76331 0.28071 0.0
H3751 H 0.9603 0.72516 0.26349 0.0
H3752 H 0.02067 0.72427 0.21816 0.0
H3753 H 1.01056 0.72006 0.23441 0.0
H3754 H 0.08898 0.75799 0.25167 0.0
C3755 C 0.02552 0.75032 0.28313 0.0
C3756 C 0.98877 0.73221 0.261 0.0
C3757 C 0.0191 0.74801 0.29245 0.0
C3758 C 0.02877 0.73536 0.22268 0.0
C3759 C 0.02283 0.73299 0.232 0.0
C3760 C 0.06049 0.75095 0.25415 0.0
C3761 C 1.01527 0.73628 0.27701 0.0
C3762 C 0.02018 0.73897 0.26705 0.0
C3763 C 0.03389 0.74691 0.23813 0.0
C3764 C 0.02907 0.7442 0.2481 0.0
H3765 H 0.98038 0.70455 0.2922 0.0
H3766 H 0.99199 0.70848 0.276 0.0
H3767 H 0.08122 0.75357 0.26792 0.0
H3768 H 0.06926 0.77854 0.22293 0.0
H3769 H 0.05833 0.77454 0.23914 0.0
C3770 C 0.2447 0.4676 0.22568 0.0
C3771 C 0.25339 0.48195 0.21967 0.0
C3772 C 0.2505 0.46986 0.235 0.0
C3773 C 0.25701 0.50566 0.25261 0.0
H3774 H 0.30097 0.46631 0.26751 0.0
C3775 C 0.30034 0.51527 0.29043 0.0
C3776 C 0.29085 0.50098 0.29643 0.0
C3777 C 0.29482 0.51305 0.2811 0.0
C3778 C 0.2881 0.47737 0.26347 0.0
H3779 H 0.27625 0.50977 0.21868 0.0
H3780 H 0.28698 0.51368 0.23495 0.0
H3781 H 0.29553 0.46223 0.2512 0.0
H3782 H 0.267 0.4733 0.29738 0.0
H3783 H 0.25693 0.46944 0.28109 0.0
H3784 H 0.24966 0.52081 0.26489 0.0
C3785 C 0.27492 0.50075 0.23248 0.0
C3786 C 0.28505 0.47504 0.2541 0.0
C3787 C 0.26911 0.49848 0.22315 0.0
C3788 C 0.27474 0.48454 0.29292 0.0
C3789 C 0.26929 0.4823 0.28358 0.0
C3790 C 0.2601 0.508 0.26198 0.0
C3791 C 0.26522 0.48653 0.23855 0.0
C3792 C 0.26943 0.48915 0.24853 0.0
C3793 C 0.27968 0.49647 0.27753 0.0
C3794 C 0.27567 0.49388 0.26755 0.0
H3795 H 0.23249 0.4547 0.22321 0.0
H3796 H 0.24225 0.45866 0.23944 0.0
H3797 H 0.24409 0.51672 0.24857 0.0
H3798 H 0.31285 0.5281 0.29293 0.0
H3799 H 0.30356 0.5242 0.27667 0.0
C3800 C 0.80173 0.21681 0.9762 0.0
C3801 C 0.7923 0.23092 0.97009 0.0
C3802 C 0.79536 0.21921 0.9855 0.0
C3803 C 0.73815 0.24796 1.00241 0.0
H3804 H 0.82564 0.229 0.01877 0.0
C3805 C 0.73621 0.2647 0.04065 0.0
C3806 C 0.74609 0.25051 0.04669 0.0
C3807 C 0.74265 0.26254 0.03134 0.0
C3808 C 0.80062 0.23422 0.01432 0.0
H3809 H 0.76778 0.25848 0.96891 0.0
H3810 H 0.75679 0.26273 0.98515 0.0
H3811 H 0.83393 0.22466 1.00253 0.0
H3812 H 0.7714 0.22305 0.04771 0.0
H3813 H 0.7824 0.21919 0.03146 0.0
H3814 H 0.7048 0.25748 0.0142 0.0
C3815 C 0.76888 0.24974 0.98276 0.0
C3816 C 0.80536 0.23171 1.00498 0.0
C3817 C 0.77532 0.24734 0.97345 0.0
C3818 C 0.76351 0.23425 0.04323 0.0
C3819 C 0.76998 0.23208 0.03391 0.0
C3820 C 0.7334 0.25045 0.01175 0.0
C3821 C 0.77931 0.23577 0.98893 0.0
C3822 C 0.77416 0.23851 0.99889 0.0
C3823 C 0.75921 0.24613 0.02782 0.0
C3824 C 0.76455 0.2436 0.01784 0.0
H3825 H 0.81464 0.20396 0.97382 0.0
H3826 H 0.80299 0.20803 0.99 0.0
H3827 H 0.71315 0.25317 0.99795 0.0
H3828 H 0.72293 0.27743 0.04311 0.0
H3829 H 0.73471 0.27378 0.0269 0.0
C3830 C 0.96057 0.21936 0.78851 0.0
C3831 C 0.9793 0.23119 0.79489 0.0
C3832 C 0.96834 0.22167 0.77926 0.0
C3833 C 0.04632 0.24102 0.76311 0.0
H3834 H 0.9502 0.24015 0.74616 0.0
C3835 C 0.07184 0.2606 0.72581 0.0
C3836 C 0.04819 0.25144 0.71909 0.0
C3837 C 0.06208 0.25817 0.73496 0.0
C3838 C 0.97758 0.24016 0.75076 0.0
H3839 H 0.02144 0.25455 0.79656 0.0
H3840 H 0.03577 0.25839 0.78038 0.0
H3841 H 0.93657 0.23554 0.76227 0.0
H3842 H 0.99546 0.23259 0.71667 0.0
H3843 H 0.97902 0.22782 0.7327 0.0
H3844 H 0.08761 0.24512 0.75169 0.0
C3845 C 1.01484 0.24738 0.78255 0.0
C3846 C 0.96968 0.23759 0.76001 0.0
C3847 C 1.00655 0.24522 0.79181 0.0
C3848 C 1.01407 0.23991 0.72171 0.0
C3849 C 1.00461 0.23726 0.73091 0.0
C3850 C 0.05432 0.24335 0.75387 0.0
C3851 C 0.99558 0.2357 0.77616 0.0
C3852 C 1.00393 0.23813 0.7663 0.0
C3853 C 0.02879 0.24624 0.73768 0.0
C3854 C 0.02004 0.24315 0.74754 0.0
H3855 H 0.93941 0.20841 0.79067 0.0
H3856 H 0.95338 0.21234 0.77452 0.0
H3857 H 0.0735 0.24121 0.76776 0.0
H3858 H 0.09811 0.2697 0.724 0.0
H3859 H 0.08074 0.26575 0.73988 0.0
C3860 C 0.79404 0.51652 0.79158 0.0
C3861 C 0.78449 0.50224 0.79757 0.0
C3862 C 0.78739 0.51448 0.78227 0.0
C3863 C 0.72925 0.48653 0.7652 0.0
H3864 H 0.81696 0.50543 0.74889 0.0
C3865 C 0.72762 0.46986 0.72701 0.0
C3866 C 0.73756 0.484 0.72096 0.0
C3867 C 0.73394 0.47208 0.73632 0.0
C3868 C 0.79189 0.50025 0.75333 0.0
H3869 H 0.75949 0.47474 0.79854 0.0
H3870 H 0.74805 0.4711 0.78228 0.0
H3871 H 0.82549 0.50943 0.76516 0.0
H3872 H 0.76284 0.51143 0.71989 0.0
H3873 H 0.77364 0.5154 0.73615 0.0
H3874 H 0.69565 0.47734 0.75337 0.0
C3875 C 0.76042 0.48396 0.78476 0.0
C3876 C 0.79676 0.50255 0.76268 0.0
C3877 C 0.76713 0.486 0.79409 0.0
C3878 C 0.7549 0.50028 0.72439 0.0
C3879 C 0.76124 0.50251 0.73371 0.0
C3880 C 0.72437 0.48423 0.75585 0.0
C3881 C 0.77095 0.49811 0.77872 0.0
C3882 C 0.76552 0.49572 0.76874 0.0
C3883 C 0.7504 0.4885 0.73982 0.0
C3884 C 0.75565 0.49103 0.74978 0.0
H3885 H 0.80724 0.52924 0.79406 0.0
H3886 H 0.79512 0.52579 0.77785 0.0
H3887 H 0.70421 0.48133 0.76964 0.0
H3888 H 0.71445 0.4571 0.72457 0.0
H3889 H 0.72599 0.46086 0.74077 0.0
C3890 C 0.04231 0.96686 0.54141 0.0
C3891 C 0.03311 0.98101 0.54751 0.0
C3892 C 0.03617 0.96928 0.53211 0.0
C3893 C 0.02776 0.00548 0.51472 0.0
H3894 H 0.98473 0.96631 0.49961 0.0
C3895 C 0.98294 0.016 0.47703 0.0
C3896 C 0.99263 0.00193 0.47092 0.0
C3897 C 0.98879 0.01352 0.48634 0.0
C3898 C 0.99733 0.97733 0.50371 0.0
H3899 H 1.00896 0.00864 0.54866 0.0
H3900 H 0.99768 0.01282 0.53243 0.0
H3901 H 0.99097 0.96178 0.51589 0.0
H3902 H 1.01717 0.97438 0.46975 0.0
H3903 H 0.02787 0.97007 0.48599 0.0
H3904 H 0.0341 0.02103 0.50254 0.0
C3905 C 1.0104 -7e-05 0.53482 0.0
C3906 C 1.00084 0.97474 0.51306 0.0
C3907 C 1.01652 -0.0025 0.54413 0.0
C3908 C 1.00926 0.98545 0.47429 0.0
C3909 C 1.01506 0.98295 0.48361 0.0
C3910 C 0.02423 0.00807 0.50537 0.0
C3911 C 0.02062 0.98593 0.52867 0.0
C3912 C 1.0161 0.98877 0.5187 0.0
C3913 C 1.0045 -0.0031 0.48977 0.0
C3914 C 1.00897 -0.00597 0.49973 0.0
H3915 H 0.05518 0.954 0.54381 0.0
H3916 H 0.04481 0.95825 0.5276 0.0
H3917 H 0.04039 0.01649 0.51882 0.0
H3918 H 0.97002 0.02886 0.47464 0.0
H3919 H 0.97988 0.0245 0.49086 0.0
C3920 C 0.27367 0.248 0.47333 0.0
C3921 C 0.28974 0.23155 0.46981 0.0
C3922 C 0.26819 0.25024 0.48268 0.0
C3923 C 0.30587 0.23143 0.50466 0.0
H3924 H 0.20783 0.25815 0.51438 0.0
C3925 C 0.26736 0.2341 0.54309 0.0
C3926 C 0.25146 0.25057 0.54663 0.0
C3927 C 0.27302 0.23191 0.53375 0.0
C3928 C 0.23573 0.25084 0.51178 0.0
H3929 H 0.31137 0.20436 0.47331 0.0
H3930 H 0.30127 0.20814 0.48956 0.0
H3931 H 0.21428 0.25392 0.49809 0.0
H3932 H 0.23032 0.27784 0.54316 0.0
H3933 H 0.24066 0.27413 0.52691 0.0
H3934 H 0.32728 0.22832 0.51836 0.0
C3935 C 0.29369 0.21947 0.48514 0.0
C3936 C 0.23941 0.2484 0.50242 0.0
C3937 C 0.29916 0.21725 0.47581 0.0
C3938 C 0.24241 0.26494 0.54064 0.0
C3939 C 0.24802 0.26276 0.53131 0.0
C3940 C 0.30218 0.23386 0.51403 0.0
C3941 C 0.27862 0.23607 0.48873 0.0
C3942 C 0.27451 0.23865 0.49872 0.0
C3943 C 0.26291 0.24614 0.52772 0.0
C3944 C 0.26706 0.2436 0.51772 0.0
H3945 H 0.26618 0.25929 0.46888 0.0
H3946 H 0.25686 0.26327 0.48517 0.0
H3947 H 0.33377 0.22412 0.50207 0.0
H3948 H 0.27457 0.22275 0.54753 0.0
H3949 H 0.28422 0.21887 0.53124 0.0
C3950 C 0.30646 0.01719 0.79107 0.0
C3951 C 0.29594 0.0031 0.79711 0.0
C3952 C 0.30003 0.01506 0.78176 0.0
C3953 C 0.24065 0.98738 0.76477 0.0
H3954 H 0.32879 0.00563 0.74839 0.0
C3955 C 0.23761 0.9707 0.72661 0.0
C3956 C 0.24747 0.98485 0.72056 0.0
C3957 C 0.24443 0.97283 0.7359 0.0
C3958 C 0.30362 0.00062 0.75285 0.0
H3959 H 0.26965 0.97583 0.79814 0.0
H3960 H 0.25867 0.97201 0.78188 0.0
H3961 H 0.33777 0.00962 0.76465 0.0
H3962 H 0.27322 0.01221 0.71948 0.0
H3963 H 0.28497 0.01601 0.73573 0.0
H3964 H 0.20652 0.97837 0.75298 0.0
C3965 C 0.27158 0.9848 0.78433 0.0
C3966 C 0.30874 0.00292 0.76219 0.0
C3967 C 0.27803 0.98694 0.79366 0.0
C3968 C 0.26531 0.00105 0.72398 0.0
C3969 C 0.2722 0.00319 0.73329 0.0
C3970 C 0.23554 0.98507 0.75544 0.0
C3971 C 0.28288 -0.00122 0.77825 0.0
C3972 C 0.27732 -0.00366 0.76829 0.0
C3973 C 0.26136 0.98917 0.73939 0.0
C3974 C 0.26697 0.99164 0.74934 0.0
H3975 H 0.3201 0.02985 0.79353 0.0
H3976 H 0.30838 0.02624 0.77732 0.0
H3977 H 0.21544 0.98238 0.76923 0.0
H3978 H 0.22405 0.958 0.72417 0.0
H3979 H 0.23646 0.96162 0.74036 0.0
C3980 C 0.775 0.74807 0.47254 0.0
C3981 C 0.79272 0.73186 0.4691 0.0
C3982 C 0.76886 0.7503 0.48187 0.0
C3983 C 0.8069 0.73227 0.50397 0.0
H3984 H 0.70581 0.75744 0.51335 0.0
C3985 C 0.76546 0.73462 0.54226 0.0
C3986 C 0.74818 0.75092 0.54571 0.0
C3987 C 0.77187 0.73242 0.53294 0.0
C3988 C 0.73452 0.75056 0.51085 0.0
H3989 H 0.81673 0.70508 0.47269 0.0
H3990 H 0.80549 0.70882 0.48891 0.0
H3991 H 0.71368 0.75317 0.49709 0.0
H3992 H 0.7253 0.77788 0.54212 0.0
H3993 H 0.73687 0.77415 0.52591 0.0
H3994 H 0.82767 0.72963 0.51774 0.0
C3995 C 0.79709 0.71998 0.48445 0.0
C3996 C 0.73902 0.74811 0.50151 0.0
C3997 C 0.80323 0.71778 0.47514 0.0
C3998 C 0.73845 0.76512 0.53967 0.0
C3999 C 0.74478 0.76292 0.53036 0.0
C4000 C 0.80237 0.73471 0.51332 0.0
C4001 C 0.78026 0.73635 0.48796 0.0
C4002 C 0.77527 0.73892 0.49794 0.0
C4003 C 0.76111 0.74647 0.52685 0.0
C4004 C 0.76614 0.74391 0.51689 0.0
H4005 H 0.76662 0.75919 0.46805 0.0
H4006 H 0.75619 0.76314 0.48431 0.0
H4007 H 0.83563 0.7254 0.50148 0.0
H4008 H 0.77324 0.72342 0.54675 0.0
H4009 H 0.78418 0.71952 0.53049 0.0
C4010 C 0.74732 0.96864 0.22612 0.0
C4011 C 0.75614 0.98294 0.22008 0.0
C4012 C 0.75363 0.97087 0.23543 0.0
C4013 C 0.76198 0.00668 0.253 0.0
H4014 H 0.80477 0.96705 0.26787 0.0
C4015 C 0.80603 0.01597 0.29082 0.0
C4016 C 0.79576 0.00177 0.29682 0.0
C4017 C 0.80055 0.01378 0.28149 0.0
C4018 C 0.79226 0.9782 0.26384 0.0
H4019 H 0.77978 0.01064 0.21904 0.0
H4020 H 0.79141 0.0145 0.23529 0.0
H4021 H 0.79884 0.963 0.25156 0.0
H4022 H 0.77065 0.97428 0.29775 0.0
H4023 H 0.76069 0.97048 0.28145 0.0
H4024 H 0.75549 0.02188 0.26529 0.0
C4025 C 0.77885 0.00163 0.23285 0.0
C4026 C 0.78892 0.97588 0.25447 0.0
C4027 C 0.77253 -0.00061 0.22353 0.0
C4028 C 0.779 0.98545 0.2933 0.0
C4029 C 0.77361 0.98324 0.28395 0.0
C4030 C 0.76539 0.009 0.26238 0.0
C4031 C 0.769 0.98747 0.23894 0.0
C4032 C 0.77366 0.99008 0.24892 0.0
C4033 C 0.78468 -0.00268 0.27791 0.0
C4034 C 0.78052 -0.00522 0.26793 0.0
H4035 H 0.73461 0.9558 0.22368 0.0
H4036 H 0.74522 0.95973 0.23989 0.0
H4037 H 0.74937 0.01782 0.24898 0.0
H4038 H 0.81905 0.0287 0.29332 0.0
H4039 H 0.80983 0.02485 0.27706 0.0
C4040 C 0.52722 0.49696 0.54336 0.0
C4041 C 0.54439 0.48061 0.54677 0.0
C4042 C 0.52149 0.49938 0.53404 0.0
C4043 C 0.51332 0.47411 0.51231 0.0
H4044 H 0.54506 0.52055 0.50175 0.0
C4045 C 0.52005 0.4847 0.47353 0.0
C4046 C 0.50315 0.50114 0.47016 0.0
C4047 C 0.52634 0.48227 0.48284 0.0
C4048 C 0.53561 0.50755 0.50459 0.0
H4049 H 0.56805 0.45382 0.5431 0.0
H4050 H 0.55826 0.45802 0.52687 0.0
H4051 H 0.55151 0.5161 0.51803 0.0
H4052 H 0.4806 0.52807 0.47388 0.0
H4053 H 0.49119 0.52383 0.49008 0.0
H4054 H 0.49731 0.46556 0.49888 0.0
C4055 C 0.5489 0.46896 0.53137 0.0
C4056 C 0.53925 0.505 0.51394 0.0
C4057 C 0.55471 0.46657 0.54069 0.0
C4058 C 0.49373 0.51524 0.47627 0.0
C4059 C 0.50001 0.51283 0.48556 0.0
C4060 C 0.50964 0.47666 0.50296 0.0
C4061 C 0.53264 0.48547 0.5279 0.0
C4062 C 0.52814 0.48825 0.51794 0.0
C4063 C 0.51594 0.49624 0.489 0.0
C4064 C 0.52071 0.49342 0.49896 0.0
H4065 H 0.51881 0.50801 0.54789 0.0
H4066 H 0.50824 0.51216 0.53163 0.0
H4067 H 0.50389 0.46111 0.51515 0.0
H4068 H 0.52779 0.4736 0.46898 0.0
H4069 H 0.53934 0.46942 0.48521 0.0
C4070 C 0.51398 0.74605 0.79131 0.0
C4071 C 0.48679 0.73202 0.79441 0.0
C4072 C 0.52232 0.74811 0.78205 0.0
C4073 C 0.47682 0.73828 0.75959 0.0
H4074 H 0.59465 0.74542 0.75112 0.0
C4075 C 0.51984 0.74033 0.72126 0.0
C4076 C 0.55406 0.75173 0.71857 0.0
C4077 C 0.51074 0.73773 0.73048 0.0
C4078 C 0.56139 0.74375 0.75334 0.0
H4079 H 0.44713 0.70913 0.79025 0.0
H4080 H 0.46114 0.71291 0.77409 0.0
H4081 H 0.58092 0.74161 0.76721 0.0
H4082 H 0.60461 0.76981 0.72336 0.0
H4083 H 0.58785 0.76597 0.73929 0.0
H4084 H 0.45697 0.74088 0.74577 0.0
C4085 C 0.47603 0.72229 0.77881 0.0
C4086 C 0.55362 0.74148 0.76259 0.0
C4087 C 0.46823 0.72007 0.78807 0.0
C4088 C 0.57823 0.76081 0.72523 0.0
C4089 C 0.56883 0.75844 0.7344 0.0
C4090 C 0.48449 0.74081 0.75033 0.0
C4091 C 0.50313 0.73634 0.77569 0.0
C4092 C 0.51127 0.73873 0.76583 0.0
C4093 C 0.53539 0.74665 0.73719 0.0
C4094 C 0.52692 0.74364 0.74706 0.0
H4095 H 0.52873 0.75546 0.79604 0.0
H4096 H 0.54316 0.75912 0.77984 0.0
H4097 H 0.44374 0.73634 0.76189 0.0
H4098 H 0.50083 0.73307 0.71626 0.0
H4099 H 0.48505 0.72839 0.73232 0.0
C4100 C 0.47543 0.21728 0.28973 0.0
C4101 C 0.49318 0.22951 0.29605 0.0
C4102 C 0.4832 0.21948 0.28047 0.0
C4103 C 0.55957 0.23926 0.26417 0.0
H4104 H 0.46267 0.23804 0.24743 0.0
C4105 C 0.5831 0.25871 0.22678 0.0
C4106 C 0.5589 0.24962 0.22013 0.0
C4107 C 0.57392 0.25628 0.23595 0.0
C4108 C 0.49028 0.23814 0.25196 0.0
H4109 H 0.53376 0.25338 0.29762 0.0
H4110 H 0.54824 0.25697 0.28142 0.0
H4111 H 0.44993 0.23334 0.26355 0.0
H4112 H 0.50584 0.23087 0.21785 0.0
H4113 H 0.49051 0.22604 0.23391 0.0
H4114 H 0.60026 0.2435 0.25267 0.0
C4115 C 0.52801 0.24577 0.28365 0.0
C4116 C 0.48288 0.23552 0.26122 0.0
C4117 C 0.51966 0.24375 0.29291 0.0
C4118 C 0.52486 0.23814 0.22284 0.0
C4119 C 0.51602 0.23546 0.23206 0.0
C4120 C 0.56709 0.24161 0.25491 0.0
C4121 C 0.5095 0.23377 0.27731 0.0
C4122 C 0.51741 0.23619 0.26744 0.0
C4123 C 0.54072 0.24439 0.23877 0.0
C4124 C 0.53253 0.24128 0.24865 0.0
H4125 H 0.45487 0.20618 0.29193 0.0
H4126 H 0.46884 0.20991 0.27576 0.0
H4127 H 0.58694 0.23958 0.26877 0.0
H4128 H 0.60934 0.26777 0.22489 0.0
H4129 H 0.59295 0.26384 0.24083 0.0
C4130 C 0.54303 0.966 0.04116 0.0
C4131 C 0.53413 0.98033 0.04718 0.0
C4132 C 0.53761 0.96831 0.03184 0.0
C4133 C 0.53241 0.00427 0.0143 0.0
H4134 H 0.48808 0.96533 0.9992 0.0
C4135 C 0.49011 0.01475 0.9765 0.0
C4136 C 0.49906 0.0005 0.97044 0.0
C4137 C 0.49555 0.01233 0.98582 0.0
C4138 C 0.50107 0.97627 1.0033 0.0
H4139 H 0.51124 0.00817 0.04816 0.0
H4140 H 0.50124 0.01218 0.03188 0.0
H4141 H 0.49298 0.96099 0.01552 0.0
H4142 H 0.52195 0.97268 0.96938 0.0
H4143 H 0.53196 0.96847 0.98565 0.0
H4144 H 0.5405 0.01956 1.00208 0.0
C4145 C 0.51316 -0.00078 0.03435 0.0
C4146 C 0.5038 0.97379 0.01267 0.0
C4147 C 0.51854 -0.00311 0.04369 0.0
C4148 C 0.51463 0.9839 0.97388 0.0
C4149 C 0.52003 0.98146 0.98322 0.0
C4150 C 0.52968 0.00675 1.00493 0.0
C4151 C 0.52312 0.98503 0.02829 0.0
C4152 C 0.51948 0.98776 0.0183 0.0
C4153 C 0.51011 -0.00442 0.98932 0.0
C4154 C 0.51394 -0.0072 0.99929 0.0
H4155 H 0.55514 0.95308 0.04364 0.0
H4156 H 0.54601 0.95714 0.02739 0.0
H4157 H 0.5454 0.01521 0.01839 0.0
H4158 H 0.47801 0.02771 0.97406 0.0
H4159 H 0.48715 0.02345 0.99029 0.0
loop_
_geom_bond_atom_site_label_1
_geom_bond_atom_site_label_2
_geom_bond_distance
_geom_bond_site_symmetry_2
_ccdc_geom_bond_type
Pr0 C2 2.880 . S
Pr0 O20 2.562 . S
Pr0 O21 2.490 . S
Pr0 O22 2.695 1_655 S
Pr0 O23 2.512 . S
Pr0 O25 2.437 . S
Pr0 O28 2.436 1_655 S
Pr0 O30 2.438 1_655 S
Pr1 C11 2.880 . S
Pr1 O22 2.436 . S
Pr1 O24 2.438 . S
Pr1 O26 2.562 . S
Pr1 O27 2.490 . S
Pr1 O28 2.695 . S
Pr1 O29 2.512 . S
Pr1 O31 2.437 . S
C2 Pr0 2.880 . S
C2 C3 1.491 . S
C2 O20 1.254 . S
C2 O21 1.225 . S
C3 C2 1.491 . S
C3 C4 1.392 . S
C3 C8 1.356 . S
C4 C3 1.392 . S
C4 C5 1.368 . S
C4 H32 0.929 . S
C5 C4 1.368 . S
C5 C6 1.386 . S
C5 H33 0.929 . S
C6 C5 1.386 . S
C6 C7 1.373 . S
C7 C6 1.373 . S
C7 C8 1.409 . S
C7 H34 0.931 . S
C8 C3 1.356 . S
C8 C7 1.409 . S
C8 H35 0.930 . S
C9 O22 1.270 . S
C9 O23 1.248 1_455 S
C10 O24 1.267 1_655 S
C10 O25 1.278 . S
C11 Pr1 2.880 . S
C11 C12 1.491 . S
C11 O26 1.254 . S
C11 O27 1.225 . S
C12 C11 1.491 . S
C12 C13 1.392 . S
C12 C17 1.356 . S
C13 C12 1.392 . S
C13 C14 1.368 . S
C13 H36 0.929 . S
C14 C13 1.368 . S
C14 C15 1.386 . S
C14 H37 0.929 . S
C15 C14 1.386 . S
C15 C16 1.373 . S
C16 C15 1.373 . S
C16 C17 1.409 . S
C16 H38 0.931 . S
C17 C12 1.356 . S
C17 C16 1.409 . S
C17 H39 0.930 . S
C18 O28 1.270 . S
C18 O29 1.248 . S
C19 O30 1.267 . S
C19 O31 1.278 . S
O20 Pr0 2.562 . S
O20 C2 1.254 . S
O21 Pr0 2.490 . S
O21 C2 1.225 . S
O22 Pr0 2.695 1_455 S
O22 Pr1 2.436 . S
O22 C9 1.270 . S
O23 Pr0 2.512 . S
O23 C9 1.248 1_655 S
O24 Pr1 2.438 . S
O24 C10 1.267 1_455 S
O25 Pr0 2.437 . S
O25 C10 1.278 . S
O26 Pr1 2.562 . S
O26 C11 1.254 . S
O27 Pr1 2.490 . S
O27 C11 1.225 . S
O28 Pr0 2.436 1_455 S
O28 Pr1 2.695 . S
O28 C18 1.270 . S
O29 Pr1 2.512 . S
O29 C18 1.248 . S
O30 Pr0 2.438 1_455 S
O30 C19 1.267 . S
O31 Pr1 2.437 . S
O31 C19 1.278 . S
H32 C4 0.929 . S
H33 C5 0.929 . S
H34 C7 0.931 . S
H35 C8 0.930 . S
H36 C13 0.929 . S
H37 C14 0.929 . S
H38 C16 0.931 . S
H39 C17 0.930 . S
Pr40 C42 2.880 . S
Pr40 O60 2.562 . S
Pr40 O61 2.490 . S
Pr40 O62 2.695 . S
Pr40 O63 2.512 . S
Pr40 O65 2.437 . S
Pr40 O68 2.436 . S
Pr40 O70 2.438 . S
Pr41 C51 2.880 . S
Pr41 O62 2.436 . S
Pr41 O64 2.438 . S
Pr41 O66 2.562 . S
Pr41 O67 2.490 . S
Pr41 O68 2.695 . S
Pr41 O69 2.512 . S
Pr41 O71 2.437 . S
C42 Pr40 2.880 . S
C42 C43 1.491 . S
C42 O60 1.254 . S
C42 O61 1.225 . S
C43 C42 1.491 . S
C43 C44 1.392 . S
C43 C48 1.356 . S
C44 C43 1.392 . S
C44 C45 1.368 . S
C44 H72 0.929 . S
C45 C44 1.368 . S
C45 C46 1.386 . S
C45 H73 0.929 . S
C46 C45 1.386 . S
C46 C47 1.373 . S
C47 C46 1.373 . S
C47 C48 1.409 . S
C47 H74 0.931 . S
C48 C43 1.356 . S
C48 C47 1.409 . S
C48 H75 0.930 . S
C49 O62 1.270 . S
C49 O63 1.248 . S
C50 O64 1.267 . S
C50 O65 1.278 . S
C51 Pr41 2.880 . S
C51 C52 1.491 . S
C51 O66 1.254 . S
C51 O67 1.225 . S
C52 C51 1.491 . S
C52 C53 1.392 . S
C52 C57 1.356 . S
C53 C52 1.392 . S
C53 C54 1.368 1_455 S
C53 H76 0.929 . S
C54 C53 1.368 1_655 S
C54 C55 1.386 . S
C54 H77 0.929 . S
C55 C54 1.386 . S
C55 C56 1.373 . S
C56 C55 1.373 . S
C56 C57 1.409 1_655 S
C56 H78 0.931 . S
C57 C52 1.356 . S
C57 C56 1.409 1_455 S
C57 H79 0.930 . S
C58 O68 1.270 . S
C58 O69 1.248 . S
C59 O70 1.267 . S
C59 O71 1.278 . S
O60 Pr40 2.562 . S
O60 C42 1.254 . S
O61 Pr40 2.490 . S
O61 C42 1.225 . S
O62 Pr40 2.695 . S
O62 Pr41 2.436 . S
O62 C49 1.270 . S
O63 Pr40 2.512 . S
O63 C49 1.248 . S
O64 Pr41 2.438 . S
O64 C50 1.267 . S
O65 Pr40 2.437 . S
O65 C50 1.278 . S
O66 Pr41 2.562 . S
O66 C51 1.254 . S
O67 Pr41 2.490 . S
O67 C51 1.225 . S
O68 Pr40 2.436 . S
O68 Pr41 2.695 . S
O68 C58 1.270 . S
O69 Pr41 2.512 . S
O69 C58 1.248 . S
O70 Pr40 2.438 . S
O70 C59 1.267 . S
O71 Pr41 2.437 . S
O71 C59 1.278 . S
H72 C44 0.929 . S
H73 C45 0.929 . S
H74 C47 0.931 . S
H75 C48 0.930 . S
H76 C53 0.929 . S
H77 C54 0.929 . S
H78 C56 0.931 . S
H79 C57 0.930 . S
Pr80 C82 2.880 . S
Pr80 O100 2.562 . S
Pr80 O101 2.490 . S
Pr80 O102 2.695 1_655 S
Pr80 O103 2.512 . S
Pr80 O105 2.437 . S
Pr80 O108 2.436 1_655 S
Pr80 O110 2.438 1_655 S
Pr81 C91 2.880 . S
Pr81 O102 2.436 . S
Pr81 O104 2.438 . S
Pr81 O106 2.562 . S
Pr81 O107 2.490 . S
Pr81 O108 2.695 . S
Pr81 O109 2.512 . S
Pr81 O111 2.437 . S
C82 Pr80 2.880 . S
C82 C83 1.491 . S
C82 O100 1.254 . S
C82 O101 1.225 . S
C83 C82 1.491 . S
C83 C84 1.392 . S
C83 C88 1.356 . S
C84 C83 1.392 . S
C84 C85 1.368 . S
C84 H112 0.929 . S
C85 C84 1.368 . S
C85 C86 1.386 . S
C85 H113 0.929 . S
C86 C85 1.386 . S
C86 C87 1.373 . S
C87 C86 1.373 . S
C87 C88 1.409 . S
C87 H114 0.931 . S
C88 C83 1.356 . S
C88 C87 1.409 . S
C88 H115 0.930 . S
C89 O102 1.270 . S
C89 O103 1.248 1_455 S
C90 O104 1.267 1_655 S
C90 O105 1.278 . S
C91 Pr81 2.880 . S
C91 C92 1.491 . S
C91 O106 1.254 . S
C91 O107 1.225 . S
C92 C91 1.491 . S
C92 C93 1.392 . S
C92 C97 1.356 . S
C93 C92 1.392 . S
C93 C94 1.368 . S
C93 H116 0.929 . S
C94 C93 1.368 . S
C94 C95 1.386 . S
C94 H117 0.929 . S
C95 C94 1.386 . S
C95 C96 1.373 . S
C96 C95 1.373 . S
C96 C97 1.409 . S
C96 H118 0.931 . S
C97 C92 1.356 . S
C97 C96 1.409 . S
C97 H119 0.930 . S
C98 O108 1.270 . S
C98 O109 1.248 . S
C99 O110 1.267 . S
C99 O111 1.278 . S
O100 Pr80 2.562 . S
O100 C82 1.254 . S
O101 Pr80 2.490 . S
O101 C82 1.225 . S
O102 Pr80 2.695 1_455 S
O102 Pr81 2.436 . S
O102 C89 1.270 . S
O103 Pr80 2.512 . S
O103 C89 1.248 1_655 S
O104 Pr81 2.438 . S
O104 C90 1.267 1_455 S
O105 Pr80 2.437 . S
O105 C90 1.278 . S
O106 Pr81 2.562 . S
O106 C91 1.254 . S
O107 Pr81 2.490 . S
O107 C91 1.225 . S
O108 Pr80 2.436 1_455 S
O108 Pr81 2.695 . S
O108 C98 1.270 . S
O109 Pr81 2.512 . S
O109 C98 1.248 . S
O110 Pr80 2.438 1_455 S
O110 C99 1.267 . S
O111 Pr81 2.437 . S
O111 C99 1.278 . S
H112 C84 0.929 . S
H113 C85 0.929 . S
H114 C87 0.931 . S
H115 C88 0.930 . S
H116 C93 0.929 . S
H117 C94 0.929 . S
H118 C96 0.931 . S
H119 C97 0.930 . S
Pr120 C122 2.880 . S
Pr120 O140 2.562 . S
Pr120 O141 2.490 . S
Pr120 O142 2.695 . S
Pr120 O143 2.512 . S
Pr120 O145 2.437 . S
Pr120 O148 2.436 . S
Pr120 O150 2.438 . S
Pr121 C131 2.880 . S
Pr121 O142 2.436 . S
Pr121 O144 2.438 . S
Pr121 O146 2.562 . S
Pr121 O147 2.490 . S
Pr121 O148 2.695 . S
Pr121 O149 2.512 . S
Pr121 O151 2.437 . S
C122 Pr120 2.880 . S
C122 C123 1.491 . S
C122 O140 1.254 . S
C122 O141 1.225 . S
C123 C122 1.491 . S
C123 C124 1.392 . S
C123 C128 1.356 . S
C124 C123 1.392 . S
C124 C125 1.368 . S
C124 H152 0.929 . S
C125 C124 1.368 . S
C125 C126 1.386 . S
C125 H153 0.929 . S
C126 C125 1.386 . S
C126 C127 1.373 . S
C127 C126 1.373 . S
C127 C128 1.409 . S
C127 H154 0.931 . S
C128 C123 1.356 . S
C128 C127 1.409 . S
C128 H155 0.930 . S
C129 O142 1.270 . S
C129 O143 1.248 . S
C130 O144 1.267 . S
C130 O145 1.278 . S
C131 Pr121 2.880 . S
C131 C132 1.491 . S
C131 O146 1.254 . S
C131 O147 1.225 . S
C132 C131 1.491 . S
C132 C133 1.392 . S
C132 C137 1.356 . S
C133 C132 1.392 . S
C133 C134 1.368 1_455 S
C133 H156 0.929 . S
C134 C133 1.368 1_655 S
C134 C135 1.386 . S
C134 H157 0.929 . S
C135 C134 1.386 . S
C135 C136 1.373 . S
C136 C135 1.373 . S
C136 C137 1.409 1_655 S
C136 H158 0.931 . S
C137 C132 1.356 . S
C137 C136 1.409 1_455 S
C137 H159 0.930 . S
C138 O148 1.270 . S
C138 O149 1.248 . S
C139 O150 1.267 . S
C139 O151 1.278 . S
O140 Pr120 2.562 . S
O140 C122 1.254 . S
O141 Pr120 2.490 . S
O141 C122 1.225 . S
O142 Pr120 2.695 . S
O142 Pr121 2.436 . S
O142 C129 1.270 . S
O143 Pr120 2.512 . S
O143 C129 1.248 . S
O144 Pr121 2.438 . S
O144 C130 1.267 . S
O145 Pr120 2.437 . S
O145 C130 1.278 . S
O146 Pr121 2.562 . S
O146 C131 1.254 . S
O147 Pr121 2.490 . S
O147 C131 1.225 . S
O148 Pr120 2.436 . S
O148 Pr121 2.695 . S
O148 C138 1.270 . S
O149 Pr121 2.512 . S
O149 C138 1.248 . S
O150 Pr120 2.438 . S
O150 C139 1.267 . S
O151 Pr121 2.437 . S
O151 C139 1.278 . S
H152 C124 0.929 . S
H153 C125 0.929 . S
H154 C127 0.931 . S
H155 C128 0.930 . S
H156 C133 0.929 . S
H157 C134 0.929 . S
H158 C136 0.931 . S
H159 C137 0.930 . S
Pr160 C162 2.880 . S
Pr160 O180 2.562 . S
Pr160 O181 2.490 . S
Pr160 O182 2.695 . S
Pr160 O183 2.512 . S
Pr160 O185 2.437 . S
Pr160 O188 2.436 . S
Pr160 O190 2.438 . S
Pr161 C171 2.880 . S
Pr161 O182 2.436 1_455 S
Pr161 O184 2.438 1_455 S
Pr161 O186 2.562 . S
Pr161 O187 2.490 . S
Pr161 O188 2.695 1_455 S
Pr161 O189 2.512 . S
Pr161 O191 2.437 . S
C162 Pr160 2.880 . S
C162 C163 1.491 . S
C162 O180 1.254 . S
C162 O181 1.225 . S
C163 C162 1.491 . S
C163 C164 1.392 . S
C163 C168 1.356 . S
C164 C163 1.392 . S
C164 C165 1.368 . S
C164 H192 0.929 . S
C165 C164 1.368 . S
C165 C166 1.386 . S
C165 H193 0.929 . S
C166 C165 1.386 . S
C166 C167 1.373 . S
C167 C166 1.373 . S
C167 C168 1.409 . S
C167 H194 0.931 . S
C168 C163 1.356 . S
C168 C167 1.409 . S
C168 H195 0.930 . S
C169 O182 1.270 . S
C169 O183 1.248 . S
C170 O184 1.267 . S
C170 O185 1.278 . S
C171 Pr161 2.880 . S
C171 C172 1.491 . S
C171 O186 1.254 . S
C171 O187 1.225 . S
C172 C171 1.491 . S
C172 C173 1.392 . S
C172 C177 1.356 . S
C173 C172 1.392 . S
C173 C174 1.368 . S
C173 H196 0.929 . S
C174 C173 1.368 . S
C174 C175 1.386 . S
C174 H197 0.929 . S
C175 C174 1.386 . S
C175 C176 1.373 . S
C176 C175 1.373 . S
C176 C177 1.409 . S
C176 H198 0.931 . S
C177 C172 1.356 . S
C177 C176 1.409 . S
C177 H199 0.930 . S
C178 O188 1.270 . S
C178 O189 1.248 1_655 S
C179 O190 1.267 1_455 S
C179 O191 1.278 . S
O180 Pr160 2.562 . S
O180 C162 1.254 . S
O181 Pr160 2.490 . S
O181 C162 1.225 . S
O182 Pr160 2.695 . S
O182 Pr161 2.436 1_655 S
O182 C169 1.270 . S
O183 Pr160 2.512 . S
O183 C169 1.248 . S
O184 Pr161 2.438 1_655 S
O184 C170 1.267 . S
O185 Pr160 2.437 . S
O185 C170 1.278 . S
O186 Pr161 2.562 . S
O186 C171 1.254 . S
O187 Pr161 2.490 . S
O187 C171 1.225 . S
O188 Pr160 2.436 . S
O188 Pr161 2.695 1_655 S
O188 C178 1.270 . S
O189 Pr161 2.512 . S
O189 C178 1.248 1_455 S
O190 Pr160 2.438 . S
O190 C179 1.267 1_655 S
O191 Pr161 2.437 . S
O191 C179 1.278 . S
H192 C164 0.929 . S
H193 C165 0.929 . S
H194 C167 0.931 . S
H195 C168 0.930 . S
H196 C173 0.929 . S
H197 C174 0.929 . S
H198 C176 0.931 . S
H199 C177 0.930 . S
Pr200 C202 2.880 . S
Pr200 O220 2.562 . S
Pr200 O221 2.490 . S
Pr200 O222 2.695 . S
Pr200 O223 2.512 . S
Pr200 O225 2.437 . S
Pr200 O228 2.436 . S
Pr200 O230 2.438 . S
Pr201 C211 2.880 . S
Pr201 O222 2.436 . S
Pr201 O224 2.438 . S
Pr201 O226 2.562 . S
Pr201 O227 2.490 . S
Pr201 O228 2.695 . S
Pr201 O229 2.512 . S
Pr201 O231 2.437 . S
C202 Pr200 2.880 . S
C202 C203 1.491 . S
C202 O220 1.254 . S
C202 O221 1.225 . S
C203 C202 1.491 . S
C203 C204 1.392 . S
C203 C208 1.356 . S
C204 C203 1.392 . S
C204 C205 1.368 1_655 S
C204 H232 0.929 . S
C205 C204 1.368 1_455 S
C205 C206 1.386 . S
C205 H233 0.929 . S
C206 C205 1.386 . S
C206 C207 1.373 . S
C207 C206 1.373 . S
C207 C208 1.409 1_455 S
C207 H234 0.931 . S
C208 C203 1.356 . S
C208 C207 1.409 1_655 S
C208 H235 0.930 . S
C209 O222 1.270 . S
C209 O223 1.248 . S
C210 O224 1.267 . S
C210 O225 1.278 . S
C211 Pr201 2.880 . S
C211 C212 1.491 . S
C211 O226 1.254 . S
C211 O227 1.225 . S
C212 C211 1.491 . S
C212 C213 1.392 . S
C212 C217 1.356 . S
C213 C212 1.392 . S
C213 C214 1.368 . S
C213 H236 0.929 . S
C214 C213 1.368 . S
C214 C215 1.386 . S
C214 H237 0.929 . S
C215 C214 1.386 . S
C215 C216 1.373 . S
C216 C215 1.373 . S
C216 C217 1.409 . S
C216 H238 0.931 . S
C217 C212 1.356 . S
C217 C216 1.409 . S
C217 H239 0.930 . S
C218 O228 1.270 . S
C218 O229 1.248 . S
C219 O230 1.267 . S
C219 O231 1.278 . S
O220 Pr200 2.562 . S
O220 C202 1.254 . S
O221 Pr200 2.490 . S
O221 C202 1.225 . S
O222 Pr200 2.695 . S
O222 Pr201 2.436 . S
O222 C209 1.270 . S
O223 Pr200 2.512 . S
O223 C209 1.248 . S
O224 Pr201 2.438 . S
O224 C210 1.267 . S
O225 Pr200 2.437 . S
O225 C210 1.278 . S
O226 Pr201 2.562 . S
O226 C211 1.254 . S
O227 Pr201 2.490 . S
O227 C211 1.225 . S
O228 Pr200 2.436 . S
O228 Pr201 2.695 . S
O228 C218 1.270 . S
O229 Pr201 2.512 . S
O229 C218 1.248 . S
O230 Pr200 2.438 . S
O230 C219 1.267 . S
O231 Pr201 2.437 . S
O231 C219 1.278 . S
H232 C204 0.929 . S
H233 C205 0.929 . S
H234 C207 0.931 . S
H235 C208 0.930 . S
H236 C213 0.929 . S
H237 C214 0.929 . S
H238 C216 0.931 . S
H239 C217 0.930 . S
Pr240 C242 2.880 . S
Pr240 O260 2.562 . S
Pr240 O261 2.490 . S
Pr240 O262 2.695 . S
Pr240 O263 2.512 . S
Pr240 O265 2.437 . S
Pr240 O268 2.436 . S
Pr240 O270 2.438 . S
Pr241 C251 2.880 . S
Pr241 O262 2.436 1_455 S
Pr241 O264 2.438 1_455 S
Pr241 O266 2.562 . S
Pr241 O267 2.490 . S
Pr241 O268 2.695 1_455 S
Pr241 O269 2.512 . S
Pr241 O271 2.437 . S
C242 Pr240 2.880 . S
C242 C243 1.491 . S
C242 O260 1.254 . S
C242 O261 1.225 . S
C243 C242 1.491 . S
C243 C244 1.392 . S
C243 C248 1.356 . S
C244 C243 1.392 . S
C244 C245 1.368 . S
C244 H272 0.929 . S
C245 C244 1.368 . S
C245 C246 1.386 . S
C245 H273 0.929 . S
C246 C245 1.386 . S
C246 C247 1.373 . S
C247 C246 1.373 . S
C247 C248 1.409 . S
C247 H274 0.931 . S
C248 C243 1.356 . S
C248 C247 1.409 . S
C248 H275 0.930 . S
C249 O262 1.270 . S
C249 O263 1.248 . S
C250 O264 1.267 . S
C250 O265 1.278 . S
C251 Pr241 2.880 . S
C251 C252 1.491 . S
C251 O266 1.254 . S
C251 O267 1.225 . S
C252 C251 1.491 . S
C252 C253 1.392 . S
C252 C257 1.356 . S
C253 C252 1.392 . S
C253 C254 1.368 . S
C253 H276 0.929 . S
C254 C253 1.368 . S
C254 C255 1.386 . S
C254 H277 0.929 . S
C255 C254 1.386 . S
C255 C256 1.373 . S
C256 C255 1.373 . S
C256 C257 1.409 . S
C256 H278 0.931 . S
C257 C252 1.356 . S
C257 C256 1.409 . S
C257 H279 0.930 . S
C258 O268 1.270 . S
C258 O269 1.248 1_655 S
C259 O270 1.267 1_455 S
C259 O271 1.278 . S
O260 Pr240 2.562 . S
O260 C242 1.254 . S
O261 Pr240 2.490 . S
O261 C242 1.225 . S
O262 Pr240 2.695 . S
O262 Pr241 2.436 1_655 S
O262 C249 1.270 . S
O263 Pr240 2.512 . S
O263 C249 1.248 . S
O264 Pr241 2.438 1_655 S
O264 C250 1.267 . S
O265 Pr240 2.437 . S
O265 C250 1.278 . S
O266 Pr241 2.562 . S
O266 C251 1.254 . S
O267 Pr241 2.490 . S
O267 C251 1.225 . S
O268 Pr240 2.436 . S
O268 Pr241 2.695 1_655 S
O268 C258 1.270 . S
O269 Pr241 2.512 . S
O269 C258 1.248 1_455 S
O270 Pr240 2.438 . S
O270 C259 1.267 1_655 S
O271 Pr241 2.437 . S
O271 C259 1.278 . S
H272 C244 0.929 . S
H273 C245 0.929 . S
H274 C247 0.931 . S
H275 C248 0.930 . S
H276 C253 0.929 . S
H277 C254 0.929 . S
H278 C256 0.931 . S
H279 C257 0.930 . S
Pr280 C282 2.880 . S
Pr280 O300 2.562 . S
Pr280 O301 2.490 . S
Pr280 O302 2.695 . S
Pr280 O303 2.512 . S
Pr280 O305 2.437 . S
Pr280 O308 2.436 . S
Pr280 O310 2.438 . S
Pr281 C291 2.880 . S
Pr281 O302 2.436 . S
Pr281 O304 2.438 . S
Pr281 O306 2.562 . S
Pr281 O307 2.490 . S
Pr281 O308 2.695 . S
Pr281 O309 2.512 . S
Pr281 O311 2.437 . S
C282 Pr280 2.880 . S
C282 C283 1.491 . S
C282 O300 1.254 . S
C282 O301 1.225 . S
C283 C282 1.491 . S
C283 C284 1.392 . S
C283 C288 1.356 . S
C284 C283 1.392 . S
C284 C285 1.368 1_655 S
C284 H312 0.929 . S
C285 C284 1.368 1_455 S
C285 C286 1.386 . S
C285 H313 0.929 . S
C286 C285 1.386 . S
C286 C287 1.373 . S
C287 C286 1.373 . S
C287 C288 1.409 1_455 S
C287 H314 0.931 . S
C288 C283 1.356 . S
C288 C287 1.409 1_655 S
C288 H315 0.930 . S
C289 O302 1.270 . S
C289 O303 1.248 . S
C290 O304 1.267 . S
C290 O305 1.278 . S
C291 Pr281 2.880 . S
C291 C292 1.491 . S
C291 O306 1.254 . S
C291 O307 1.225 . S
C292 C291 1.491 . S
C292 C293 1.392 . S
C292 C297 1.356 . S
C293 C292 1.392 . S
C293 C294 1.368 . S
C293 H316 0.929 . S
C294 C293 1.368 . S
C294 C295 1.386 . S
C294 H317 0.929 . S
C295 C294 1.386 . S
C295 C296 1.373 . S
C296 C295 1.373 . S
C296 C297 1.409 . S
C296 H318 0.931 . S
C297 C292 1.356 . S
C297 C296 1.409 . S
C297 H319 0.930 . S
C298 O308 1.270 . S
C298 O309 1.248 . S
C299 O310 1.267 . S
C299 O311 1.278 . S
O300 Pr280 2.562 . S
O300 C282 1.254 . S
O301 Pr280 2.490 . S
O301 C282 1.225 . S
O302 Pr280 2.695 . S
O302 Pr281 2.436 . S
O302 C289 1.270 . S
O303 Pr280 2.512 . S
O303 C289 1.248 . S
O304 Pr281 2.438 . S
O304 C290 1.267 . S
O305 Pr280 2.437 . S
O305 C290 1.278 . S
O306 Pr281 2.562 . S
O306 C291 1.254 . S
O307 Pr281 2.490 . S
O307 C291 1.225 . S
O308 Pr280 2.436 . S
O308 Pr281 2.695 . S
O308 C298 1.270 . S
O309 Pr281 2.512 . S
O309 C298 1.248 . S
O310 Pr280 2.438 . S
O310 C299 1.267 . S
O311 Pr281 2.437 . S
O311 C299 1.278 . S
H312 C284 0.929 . S
H313 C285 0.929 . S
H314 C287 0.931 . S
H315 C288 0.930 . S
H316 C293 0.929 . S
H317 C294 0.929 . S
H318 C296 0.931 . S
H319 C297 0.930 . S
Pr320 C322 2.880 1_545 S
Pr320 O340 2.562 1_545 S
Pr320 O341 2.490 . S
Pr320 O342 2.695 1_645 S
Pr320 O343 2.512 . S
Pr320 O345 2.437 1_545 S
Pr320 O348 2.436 1_645 S
Pr320 O350 2.438 1_655 S
Pr321 C331 2.880 . S
Pr321 O342 2.436 . S
Pr321 O344 2.438 . S
Pr321 O346 2.562 . S
Pr321 O347 2.490 . S
Pr321 O348 2.695 . S
Pr321 O349 2.512 . S
Pr321 O351 2.437 1_565 S
C322 Pr320 2.880 1_565 S
C322 C323 1.491 . S
C322 O340 1.254 . S
C322 O341 1.225 1_565 S
C323 C322 1.491 . S
C323 C324 1.392 . S
C323 C328 1.356 . S
C324 C323 1.392 . S
C324 C325 1.368 . S
C324 H352 0.924 1_565 S
C325 C324 1.368 . S
C325 C326 1.386 . S
C325 H353 0.929 . S
C326 C325 1.386 . S
C326 C327 1.373 . S
C327 C326 1.373 . S
C327 C328 1.409 . S
C327 H354 0.931 . S
C328 C323 1.356 . S
C328 C327 1.409 . S
C328 H355 0.930 . S
C329 O342 1.270 . S
C329 O343 1.248 1_465 S
C330 O344 1.267 1_655 S
C330 O345 1.278 . S
C331 Pr321 2.880 . S
C331 C332 1.491 . S
C331 O346 1.254 . S
C331 O347 1.225 . S
C332 C331 1.491 . S
C332 C333 1.392 . S
C332 C337 1.356 1_565 S
C333 C332 1.392 . S
C333 C334 1.381 . S
C333 H356 0.929 . S
C334 C333 1.381 . S
C334 C335 1.358 1_565 S
C334 H357 0.948 . S
C335 C334 1.358 1_545 S
C335 C336 1.373 . S
C336 C335 1.373 . S
C336 C337 1.409 . S
C336 H358 0.931 . S
C337 C332 1.356 1_545 S
C337 C336 1.409 . S
C337 H359 0.930 . S
C338 O348 1.270 . S
C338 O349 1.248 . S
C339 O350 1.267 . S
C339 O351 1.278 . S
O340 Pr320 2.562 1_565 S
O340 C322 1.254 . S
O341 Pr320 2.490 . S
O341 C322 1.225 1_545 S
O342 Pr320 2.695 1_465 S
O342 Pr321 2.436 . S
O342 C329 1.270 . S
O343 Pr320 2.512 . S
O343 C329 1.248 1_645 S
O344 Pr321 2.438 . S
O344 C330 1.267 1_455 S
O345 Pr320 2.437 1_565 S
O345 C330 1.278 . S
O346 Pr321 2.562 . S
O346 C331 1.254 . S
O347 Pr321 2.490 . S
O347 C331 1.225 . S
O348 Pr320 2.436 1_465 S
O348 Pr321 2.695 . S
O348 C338 1.270 . S
O349 Pr321 2.512 . S
O349 C338 1.248 . S
O350 Pr320 2.438 1_455 S
O350 C339 1.267 . S
O351 Pr321 2.437 1_545 S
O351 C339 1.278 . S
H352 C324 0.924 1_545 S
H353 C325 0.929 . S
H354 C327 0.931 . S
H355 C328 0.930 . S
H356 C333 0.929 . S
H357 C334 0.948 . S
H358 C336 0.931 . S
H359 C337 0.930 . S
Pr360 C362 2.880 . S
Pr360 O380 2.562 . S
Pr360 O381 2.490 . S
Pr360 O382 2.695 . S
Pr360 O383 2.512 . S
Pr360 O385 2.437 . S
Pr360 O388 2.436 . S
Pr360 O390 2.438 . S
Pr361 C371 2.880 . S
Pr361 O382 2.436 . S
Pr361 O384 2.438 . S
Pr361 O386 2.562 . S
Pr361 O387 2.490 . S
Pr361 O388 2.695 . S
Pr361 O389 2.512 . S
Pr361 O391 2.437 . S
C362 Pr360 2.880 . S
C362 C363 1.491 . S
C362 O380 1.254 . S
C362 O381 1.225 . S
C363 C362 1.491 . S
C363 C364 1.392 . S
C363 C368 1.356 . S
C364 C363 1.392 . S
C364 C365 1.368 . S
C364 H392 0.929 . S
C365 C364 1.368 . S
C365 C366 1.386 . S
C365 H393 0.929 . S
C366 C365 1.386 . S
C366 C367 1.373 . S
C367 C366 1.373 . S
C367 C368 1.409 . S
C367 H394 0.931 . S
C368 C363 1.356 . S
C368 C367 1.409 . S
C368 H395 0.930 . S
C369 O382 1.270 . S
C369 O383 1.248 . S
C370 O384 1.267 . S
C370 O385 1.278 . S
C371 Pr361 2.880 . S
C371 C372 1.491 . S
C371 O386 1.254 . S
C371 O387 1.225 . S
C372 C371 1.491 . S
C372 C373 1.392 . S
C372 C377 1.356 . S
C373 C372 1.392 . S
C373 C374 1.368 1_455 S
C373 H396 0.929 . S
C374 C373 1.368 1_655 S
C374 C375 1.386 . S
C374 H397 0.929 . S
C375 C374 1.386 . S
C375 C376 1.373 . S
C376 C375 1.373 . S
C376 C377 1.409 1_655 S
C376 H398 0.931 . S
C377 C372 1.356 . S
C377 C376 1.409 1_455 S
C377 H399 0.930 . S
C378 O388 1.270 . S
C378 O389 1.248 . S
C379 O390 1.267 . S
C379 O391 1.278 . S
O380 Pr360 2.562 . S
O380 C362 1.254 . S
O381 Pr360 2.490 . S
O381 C362 1.225 . S
O382 Pr360 2.695 . S
O382 Pr361 2.436 . S
O382 C369 1.270 . S
O383 Pr360 2.512 . S
O383 C369 1.248 . S
O384 Pr361 2.438 . S
O384 C370 1.267 . S
O385 Pr360 2.437 . S
O385 C370 1.278 . S
O386 Pr361 2.562 . S
O386 C371 1.254 . S
O387 Pr361 2.490 . S
O387 C371 1.225 . S
O388 Pr360 2.436 . S
O388 Pr361 2.695 . S
O388 C378 1.270 . S
O389 Pr361 2.512 . S
O389 C378 1.248 . S
O390 Pr360 2.438 . S
O390 C379 1.267 . S
O391 Pr361 2.437 . S
O391 C379 1.278 . S
H392 C364 0.929 . S
H393 C365 0.929 . S
H394 C367 0.931 . S
H395 C368 0.930 . S
H396 C373 0.929 . S
H397 C374 0.929 . S
H398 C376 0.931 . S
H399 C377 0.930 . S
Pr400 C402 2.880 . S
Pr400 O420 2.562 . S
Pr400 O421 2.490 . S
Pr400 O422 2.695 1_655 S
Pr400 O423 2.512 . S
Pr400 O425 2.437 . S
Pr400 O428 2.436 1_655 S
Pr400 O430 2.438 1_655 S
Pr401 C411 2.880 . S
Pr401 O422 2.436 . S
Pr401 O424 2.438 . S
Pr401 O426 2.562 . S
Pr401 O427 2.490 . S
Pr401 O428 2.695 . S
Pr401 O429 2.512 . S
Pr401 O431 2.437 . S
C402 Pr400 2.880 . S
C402 C403 1.491 . S
C402 O420 1.254 . S
C402 O421 1.225 . S
C403 C402 1.491 . S
C403 C404 1.392 . S
C403 C408 1.356 . S
C404 C403 1.392 . S
C404 C405 1.368 . S
C404 H432 0.929 . S
C405 C404 1.368 . S
C405 C406 1.386 . S
C405 H433 0.929 . S
C406 C405 1.386 . S
C406 C407 1.373 . S
C407 C406 1.373 . S
C407 C408 1.409 . S
C407 H434 0.931 . S
C408 C403 1.356 . S
C408 C407 1.409 . S
C408 H435 0.930 . S
C409 O422 1.270 . S
C409 O423 1.248 1_455 S
C410 O424 1.267 1_655 S
C410 O425 1.278 . S
C411 Pr401 2.880 . S
C411 C412 1.491 . S
C411 O426 1.254 . S
C411 O427 1.225 . S
C412 C411 1.491 . S
C412 C413 1.392 . S
C412 C417 1.356 . S
C413 C412 1.392 . S
C413 C414 1.368 . S
C413 H436 0.929 . S
C414 C413 1.368 . S
C414 C415 1.386 . S
C414 H437 0.929 . S
C415 C414 1.386 . S
C415 C416 1.373 . S
C416 C415 1.373 . S
C416 C417 1.409 . S
C416 H438 0.931 . S
C417 C412 1.356 . S
C417 C416 1.409 . S
C417 H439 0.930 . S
C418 O428 1.270 . S
C418 O429 1.248 . S
C419 O430 1.267 . S
C419 O431 1.278 . S
O420 Pr400 2.562 . S
O420 C402 1.254 . S
O421 Pr400 2.490 . S
O421 C402 1.225 . S
O422 Pr400 2.695 1_455 S
O422 Pr401 2.436 . S
O422 C409 1.270 . S
O423 Pr400 2.512 . S
O423 C409 1.248 1_655 S
O424 Pr401 2.438 . S
O424 C410 1.267 1_455 S
O425 Pr400 2.437 . S
O425 C410 1.278 . S
O426 Pr401 2.562 . S
O426 C411 1.254 . S
O427 Pr401 2.490 . S
O427 C411 1.225 . S
O428 Pr400 2.436 1_455 S
O428 Pr401 2.695 . S
O428 C418 1.270 . S
O429 Pr401 2.512 . S
O429 C418 1.248 . S
O430 Pr400 2.438 1_455 S
O430 C419 1.267 . S
O431 Pr401 2.437 . S
O431 C419 1.278 . S
H432 C404 0.929 . S
H433 C405 0.929 . S
H434 C407 0.931 . S
H435 C408 0.930 . S
H436 C413 0.929 . S
H437 C414 0.929 . S
H438 C416 0.931 . S
H439 C417 0.930 . S
Pr440 C442 2.880 1_545 S
Pr440 O460 2.562 1_545 S
Pr440 O461 2.490 . S
Pr440 O462 2.695 1_545 S
Pr440 O463 2.512 . S
Pr440 O465 2.437 1_545 S
Pr440 O468 2.436 1_545 S
Pr440 O470 2.438 . S
Pr441 C451 2.880 . S
Pr441 O462 2.436 . S
Pr441 O464 2.438 . S
Pr441 O466 2.562 . S
Pr441 O467 2.490 . S
Pr441 O468 2.695 . S
Pr441 O469 2.512 . S
Pr441 O471 2.437 1_565 S
C442 Pr440 2.880 1_565 S
C442 C443 1.491 . S
C442 O460 1.254 . S
C442 O461 1.225 1_565 S
C443 C442 1.491 . S
C443 C444 1.392 . S
C443 C448 1.356 . S
C444 C443 1.392 . S
C444 C445 1.368 . S
C444 H472 0.924 1_565 S
C445 C444 1.368 . S
C445 C446 1.386 . S
C445 H473 0.929 . S
C446 C445 1.386 . S
C446 C447 1.373 . S
C447 C446 1.373 . S
C447 C448 1.409 . S
C447 H474 0.931 . S
C448 C443 1.356 . S
C448 C447 1.409 . S
C448 H475 0.930 . S
C449 O462 1.270 . S
C449 O463 1.248 1_565 S
C450 O464 1.267 . S
C450 O465 1.278 . S
C451 Pr441 2.880 . S
C451 C452 1.491 . S
C451 O466 1.254 . S
C451 O467 1.225 . S
C452 C451 1.491 . S
C452 C453 1.392 . S
C452 C457 1.356 1_565 S
C453 C452 1.392 . S
C453 C454 1.381 1_455 S
C453 H476 0.929 . S
C454 C453 1.381 1_655 S
C454 C455 1.358 1_565 S
C454 H477 0.948 . S
C455 C454 1.358 1_545 S
C455 C456 1.373 . S
C456 C455 1.373 . S
C456 C457 1.409 1_655 S
C456 H478 0.931 . S
C457 C452 1.356 1_545 S
C457 C456 1.409 1_455 S
C457 H479 0.930 . S
C458 O468 1.270 . S
C458 O469 1.248 . S
C459 O470 1.267 . S
C459 O471 1.278 . S
O460 Pr440 2.562 1_565 S
O460 C442 1.254 . S
O461 Pr440 2.490 . S
O461 C442 1.225 1_545 S
O462 Pr440 2.695 1_565 S
O462 Pr441 2.436 . S
O462 C449 1.270 . S
O463 Pr440 2.512 . S
O463 C449 1.248 1_545 S
O464 Pr441 2.438 . S
O464 C450 1.267 . S
O465 Pr440 2.437 1_565 S
O465 C450 1.278 . S
O466 Pr441 2.562 . S
O466 C451 1.254 . S
O467 Pr441 2.490 . S
O467 C451 1.225 . S
O468 Pr440 2.436 1_565 S
O468 Pr441 2.695 . S
O468 C458 1.270 . S
O469 Pr441 2.512 . S
O469 C458 1.248 . S
O470 Pr440 2.438 . S
O470 C459 1.267 . S
O471 Pr441 2.437 1_545 S
O471 C459 1.278 . S
H472 C444 0.924 1_545 S
H473 C445 0.929 . S
H474 C447 0.931 . S
H475 C448 0.930 . S
H476 C453 0.929 . S
H477 C454 0.948 . S
H478 C456 0.931 . S
H479 C457 0.930 . S
Pr480 C482 2.880 . S
Pr480 O500 2.562 . S
Pr480 O501 2.490 . S
Pr480 O502 2.695 . S
Pr480 O503 2.512 . S
Pr480 O505 2.437 1_545 S
Pr480 O508 2.436 . S
Pr480 O510 2.438 . S
Pr481 C491 2.880 1_565 S
Pr481 O502 2.436 1_465 S
Pr481 O504 2.438 1_455 S
Pr481 O506 2.562 1_565 S
Pr481 O507 2.490 . S
Pr481 O508 2.695 1_465 S
Pr481 O509 2.512 . S
Pr481 O511 2.437 1_565 S
C482 Pr480 2.880 . S
C482 C483 1.491 . S
C482 O500 1.254 . S
C482 O501 1.225 . S
C483 C482 1.491 . S
C483 C484 1.392 . S
C483 C488 1.356 1_545 S
C484 C483 1.392 . S
C484 C485 1.381 . S
C484 H512 0.929 . S
C485 C484 1.381 . S
C485 C486 1.358 1_545 S
C485 H513 0.948 . S
C486 C485 1.358 1_565 S
C486 C487 1.373 . S
C487 C486 1.373 . S
C487 C488 1.409 . S
C487 H514 0.931 . S
C488 C483 1.356 1_565 S
C488 C487 1.409 . S
C488 H515 0.930 . S
C489 O502 1.270 . S
C489 O503 1.248 . S
C490 O504 1.267 . S
C490 O505 1.278 . S
C491 Pr481 2.880 1_545 S
C491 C492 1.491 . S
C491 O506 1.254 . S
C491 O507 1.225 1_545 S
C492 C491 1.491 . S
C492 C493 1.392 . S
C492 C497 1.356 . S
C493 C492 1.392 . S
C493 C494 1.368 . S
C493 H516 0.924 1_545 S
C494 C493 1.368 . S
C494 C495 1.386 . S
C494 H517 0.929 . S
C495 C494 1.386 . S
C495 C496 1.373 . S
C496 C495 1.373 . S
C496 C497 1.409 . S
C496 H518 0.931 . S
C497 C492 1.356 . S
C497 C496 1.409 . S
C497 H519 0.930 . S
C498 O508 1.270 . S
C498 O509 1.248 1_645 S
C499 O510 1.267 1_455 S
C499 O511 1.278 . S
O500 Pr480 2.562 . S
O500 C482 1.254 . S
O501 Pr480 2.490 . S
O501 C482 1.225 . S
O502 Pr480 2.695 . S
O502 Pr481 2.436 1_645 S
O502 C489 1.270 . S
O503 Pr480 2.512 . S
O503 C489 1.248 . S
O504 Pr481 2.438 1_655 S
O504 C490 1.267 . S
O505 Pr480 2.437 1_565 S
O505 C490 1.278 . S
O506 Pr481 2.562 1_545 S
O506 C491 1.254 . S
O507 Pr481 2.490 . S
O507 C491 1.225 1_565 S
O508 Pr480 2.436 . S
O508 Pr481 2.695 1_645 S
O508 C498 1.270 . S
O509 Pr481 2.512 . S
O509 C498 1.248 1_465 S
O510 Pr480 2.438 . S
O510 C499 1.267 1_655 S
O511 Pr481 2.437 1_545 S
O511 C499 1.278 . S
H512 C484 0.929 . S
H513 C485 0.948 . S
H514 C487 0.931 . S
H515 C488 0.930 . S
H516 C493 0.924 1_565 S
H517 C494 0.929 . S
H518 C496 0.931 . S
H519 C497 0.930 . S
Pr520 C522 2.880 . S
Pr520 O540 2.562 . S
Pr520 O541 2.490 . S
Pr520 O542 2.695 . S
Pr520 O543 2.512 . S
Pr520 O545 2.437 . S
Pr520 O548 2.436 . S
Pr520 O550 2.438 . S
Pr521 C531 2.880 . S
Pr521 O542 2.436 . S
Pr521 O544 2.438 . S
Pr521 O546 2.562 . S
Pr521 O547 2.490 . S
Pr521 O548 2.695 . S
Pr521 O549 2.512 . S
Pr521 O551 2.437 . S
C522 Pr520 2.880 . S
C522 C523 1.491 . S
C522 O540 1.254 . S
C522 O541 1.225 . S
C523 C522 1.491 . S
C523 C524 1.392 . S
C523 C528 1.356 . S
C524 C523 1.392 . S
C524 C525 1.368 1_655 S
C524 H552 0.929 . S
C525 C524 1.368 1_455 S
C525 C526 1.386 . S
C525 H553 0.929 . S
C526 C525 1.386 . S
C526 C527 1.373 . S
C527 C526 1.373 . S
C527 C528 1.409 1_455 S
C527 H554 0.931 . S
C528 C523 1.356 . S
C528 C527 1.409 1_655 S
C528 H555 0.930 . S
C529 O542 1.270 . S
C529 O543 1.248 . S
C530 O544 1.267 . S
C530 O545 1.278 . S
C531 Pr521 2.880 . S
C531 C532 1.491 . S
C531 O546 1.254 . S
C531 O547 1.225 . S
C532 C531 1.491 . S
C532 C533 1.392 . S
C532 C537 1.356 . S
C533 C532 1.392 . S
C533 C534 1.368 . S
C533 H556 0.929 . S
C534 C533 1.368 . S
C534 C535 1.386 . S
C534 H557 0.929 . S
C535 C534 1.386 . S
C535 C536 1.373 . S
C536 C535 1.373 . S
C536 C537 1.409 . S
C536 H558 0.931 . S
C537 C532 1.356 . S
C537 C536 1.409 . S
C537 H559 0.930 . S
C538 O548 1.270 . S
C538 O549 1.248 . S
C539 O550 1.267 . S
C539 O551 1.278 . S
O540 Pr520 2.562 . S
O540 C522 1.254 . S
O541 Pr520 2.490 . S
O541 C522 1.225 . S
O542 Pr520 2.695 . S
O542 Pr521 2.436 . S
O542 C529 1.270 . S
O543 Pr520 2.512 . S
O543 C529 1.248 . S
O544 Pr521 2.438 . S
O544 C530 1.267 . S
O545 Pr520 2.437 . S
O545 C530 1.278 . S
O546 Pr521 2.562 . S
O546 C531 1.254 . S
O547 Pr521 2.490 . S
O547 C531 1.225 . S
O548 Pr520 2.436 . S
O548 Pr521 2.695 . S
O548 C538 1.270 . S
O549 Pr521 2.512 . S
O549 C538 1.248 . S
O550 Pr520 2.438 . S
O550 C539 1.267 . S
O551 Pr521 2.437 . S
O551 C539 1.278 . S
H552 C524 0.929 . S
H553 C525 0.929 . S
H554 C527 0.931 . S
H555 C528 0.930 . S
H556 C533 0.929 . S
H557 C534 0.929 . S
H558 C536 0.931 . S
H559 C537 0.930 . S
Pr560 C562 2.880 . S
Pr560 O580 2.562 . S
Pr560 O581 2.490 . S
Pr560 O582 2.695 . S
Pr560 O583 2.512 . S
Pr560 O585 2.437 . S
Pr560 O588 2.436 . S
Pr560 O590 2.438 . S
Pr561 C571 2.880 . S
Pr561 O582 2.436 1_455 S
Pr561 O584 2.438 1_455 S
Pr561 O586 2.562 . S
Pr561 O587 2.490 . S
Pr561 O588 2.695 1_455 S
Pr561 O589 2.512 . S
Pr561 O591 2.437 . S
C562 Pr560 2.880 . S
C562 C563 1.491 . S
C562 O580 1.254 . S
C562 O581 1.225 . S
C563 C562 1.491 . S
C563 C564 1.392 . S
C563 C568 1.356 . S
C564 C563 1.392 . S
C564 C565 1.368 . S
C564 H592 0.929 . S
C565 C564 1.368 . S
C565 C566 1.386 . S
C565 H593 0.929 . S
C566 C565 1.386 . S
C566 C567 1.373 . S
C567 C566 1.373 . S
C567 C568 1.409 . S
C567 H594 0.931 . S
C568 C563 1.356 . S
C568 C567 1.409 . S
C568 H595 0.930 . S
C569 O582 1.270 . S
C569 O583 1.248 . S
C570 O584 1.267 . S
C570 O585 1.278 . S
C571 Pr561 2.880 . S
C571 C572 1.491 . S
C571 O586 1.254 . S
C571 O587 1.225 . S
C572 C571 1.491 . S
C572 C573 1.392 . S
C572 C577 1.356 . S
C573 C572 1.392 . S
C573 C574 1.368 . S
C573 H596 0.929 . S
C574 C573 1.368 . S
C574 C575 1.386 . S
C574 H597 0.929 . S
C575 C574 1.386 . S
C575 C576 1.373 . S
C576 C575 1.373 . S
C576 C577 1.409 . S
C576 H598 0.931 . S
C577 C572 1.356 . S
C577 C576 1.409 . S
C577 H599 0.930 . S
C578 O588 1.270 . S
C578 O589 1.248 1_655 S
C579 O590 1.267 1_455 S
C579 O591 1.278 . S
O580 Pr560 2.562 . S
O580 C562 1.254 . S
O581 Pr560 2.490 . S
O581 C562 1.225 . S
O582 Pr560 2.695 . S
O582 Pr561 2.436 1_655 S
O582 C569 1.270 . S
O583 Pr560 2.512 . S
O583 C569 1.248 . S
O584 Pr561 2.438 1_655 S
O584 C570 1.267 . S
O585 Pr560 2.437 . S
O585 C570 1.278 . S
O586 Pr561 2.562 . S
O586 C571 1.254 . S
O587 Pr561 2.490 . S
O587 C571 1.225 . S
O588 Pr560 2.436 . S
O588 Pr561 2.695 1_655 S
O588 C578 1.270 . S
O589 Pr561 2.512 . S
O589 C578 1.248 1_455 S
O590 Pr560 2.438 . S
O590 C579 1.267 1_655 S
O591 Pr561 2.437 . S
O591 C579 1.278 . S
H592 C564 0.929 . S
H593 C565 0.929 . S
H594 C567 0.931 . S
H595 C568 0.930 . S
H596 C573 0.929 . S
H597 C574 0.929 . S
H598 C576 0.931 . S
H599 C577 0.930 . S
Pr600 C602 2.880 . S
Pr600 O620 2.562 . S
Pr600 O621 2.490 . S
Pr600 O622 2.695 . S
Pr600 O623 2.512 . S
Pr600 O625 2.437 1_545 S
Pr600 O628 2.436 . S
Pr600 O630 2.438 . S
Pr601 C611 2.880 1_565 S
Pr601 O622 2.436 1_565 S
Pr601 O624 2.438 . S
Pr601 O626 2.562 1_565 S
Pr601 O627 2.490 . S
Pr601 O628 2.695 1_565 S
Pr601 O629 2.512 . S
Pr601 O631 2.437 1_565 S
C602 Pr600 2.880 . S
C602 C603 1.491 . S
C602 O620 1.254 . S
C602 O621 1.225 . S
C603 C602 1.491 . S
C603 C604 1.392 . S
C603 C608 1.356 1_545 S
C604 C603 1.392 . S
C604 C605 1.381 1_655 S
C604 H632 0.929 . S
C605 C604 1.381 1_455 S
C605 C606 1.358 1_545 S
C605 H633 0.948 . S
C606 C605 1.358 1_565 S
C606 C607 1.373 . S
C607 C606 1.373 . S
C607 C608 1.409 1_455 S
C607 H634 0.931 . S
C608 C603 1.356 1_565 S
C608 C607 1.409 1_655 S
C608 H635 0.930 . S
C609 O622 1.270 . S
C609 O623 1.248 . S
C610 O624 1.267 . S
C610 O625 1.278 . S
C611 Pr601 2.880 1_545 S
C611 C612 1.491 . S
C611 O626 1.254 . S
C611 O627 1.225 1_545 S
C612 C611 1.491 . S
C612 C613 1.392 . S
C612 C617 1.356 . S
C613 C612 1.392 . S
C613 C614 1.368 . S
C613 H636 0.924 1_545 S
C614 C613 1.368 . S
C614 C615 1.386 . S
C614 H637 0.929 . S
C615 C614 1.386 . S
C615 C616 1.373 . S
C616 C615 1.373 . S
C616 C617 1.409 . S
C616 H638 0.931 . S
C617 C612 1.356 . S
C617 C616 1.409 . S
C617 H639 0.930 . S
C618 O628 1.270 . S
C618 O629 1.248 1_545 S
C619 O630 1.267 . S
C619 O631 1.278 . S
O620 Pr600 2.562 . S
O620 C602 1.254 . S
O621 Pr600 2.490 . S
O621 C602 1.225 . S
O622 Pr600 2.695 . S
O622 Pr601 2.436 1_545 S
O622 C609 1.270 . S
O623 Pr600 2.512 . S
O623 C609 1.248 . S
O624 Pr601 2.438 . S
O624 C610 1.267 . S
O625 Pr600 2.437 1_565 S
O625 C610 1.278 . S
O626 Pr601 2.562 1_545 S
O626 C611 1.254 . S
O627 Pr601 2.490 . S
O627 C611 1.225 1_565 S
O628 Pr600 2.436 . S
O628 Pr601 2.695 1_545 S
O628 C618 1.270 . S
O629 Pr601 2.512 . S
O629 C618 1.248 1_565 S
O630 Pr600 2.438 . S
O630 C619 1.267 . S
O631 Pr601 2.437 1_545 S
O631 C619 1.278 . S
H632 C604 0.929 . S
H633 C605 0.948 . S
H634 C607 0.931 . S
H635 C608 0.930 . S
H636 C613 0.924 1_565 S
H637 C614 0.929 . S
H638 C616 0.931 . S
H639 C617 0.930 . S
Pr640 C642 2.880 . S
Pr640 O660 2.562 . S
Pr640 O661 2.490 . S
Pr640 O662 2.695 . S
Pr640 O663 2.512 . S
Pr640 O665 2.437 . S
Pr640 O668 2.436 . S
Pr640 O670 2.438 . S
Pr641 C651 2.880 . S
Pr641 O662 2.436 . S
Pr641 O664 2.438 . S
Pr641 O666 2.562 . S
Pr641 O667 2.490 . S
Pr641 O668 2.695 . S
Pr641 O669 2.512 . S
Pr641 O671 2.437 . S
C642 Pr640 2.880 . S
C642 C643 1.491 . S
C642 O660 1.254 . S
C642 O661 1.225 . S
C643 C642 1.491 . S
C643 C644 1.392 . S
C643 C648 1.356 . S
C644 C643 1.392 . S
C644 C645 1.368 . S
C644 H672 0.929 . S
C645 C644 1.368 . S
C645 C646 1.386 . S
C645 H673 0.929 . S
C646 C645 1.386 . S
C646 C647 1.373 . S
C647 C646 1.373 . S
C647 C648 1.409 . S
C647 H674 0.931 . S
C648 C643 1.356 . S
C648 C647 1.409 . S
C648 H675 0.930 . S
C649 O662 1.270 . S
C649 O663 1.248 . S
C650 O664 1.267 . S
C650 O665 1.278 . S
C651 Pr641 2.880 . S
C651 C652 1.491 . S
C651 O666 1.254 . S
C651 O667 1.225 . S
C652 C651 1.491 . S
C652 C653 1.392 . S
C652 C657 1.356 . S
C653 C652 1.392 . S
C653 C654 1.368 . S
C653 H676 0.929 . S
C654 C653 1.368 . S
C654 C655 1.386 . S
C654 H677 0.929 . S
C655 C654 1.386 . S
C655 C656 1.373 . S
C656 C655 1.373 . S
C656 C657 1.409 . S
C656 H678 0.931 . S
C657 C652 1.356 . S
C657 C656 1.409 . S
C657 H679 0.930 . S
C658 O668 1.270 . S
C658 O669 1.248 . S
C659 O670 1.267 . S
C659 O671 1.278 . S
O660 Pr640 2.562 . S
O660 C642 1.254 . S
O661 Pr640 2.490 . S
O661 C642 1.225 . S
O662 Pr640 2.695 . S
O662 Pr641 2.436 . S
O662 C649 1.270 . S
O663 Pr640 2.512 . S
O663 C649 1.248 . S
O664 Pr641 2.438 . S
O664 C650 1.267 . S
O665 Pr640 2.437 . S
O665 C650 1.278 . S
O666 Pr641 2.562 . S
O666 C651 1.254 . S
O667 Pr641 2.490 . S
O667 C651 1.225 . S
O668 Pr640 2.436 . S
O668 Pr641 2.695 . S
O668 C658 1.270 . S
O669 Pr641 2.512 . S
O669 C658 1.248 . S
O670 Pr640 2.438 . S
O670 C659 1.267 . S
O671 Pr641 2.437 . S
O671 C659 1.278 . S
H672 C644 0.929 . S
H673 C645 0.929 . S
H674 C647 0.931 . S
H675 C648 0.930 . S
H676 C653 0.929 . S
H677 C654 0.929 . S
H678 C656 0.931 . S
H679 C657 0.930 . S
Pr680 C682 2.880 . S
Pr680 O700 2.562 . S
Pr680 O701 2.490 . S
Pr680 O702 2.695 . S
Pr680 O703 2.512 . S
Pr680 O705 2.437 . S
Pr680 O708 2.436 . S
Pr680 O710 2.438 . S
Pr681 C691 2.880 . S
Pr681 O702 2.436 . S
Pr681 O704 2.438 . S
Pr681 O706 2.562 . S
Pr681 O707 2.490 . S
Pr681 O708 2.695 . S
Pr681 O709 2.512 . S
Pr681 O711 2.437 . S
C682 Pr680 2.880 . S
C682 C683 1.491 . S
C682 O700 1.254 . S
C682 O701 1.225 . S
C683 C682 1.491 . S
C683 C684 1.392 . S
C683 C688 1.356 . S
C684 C683 1.392 . S
C684 C685 1.368 . S
C684 H712 0.929 . S
C685 C684 1.368 . S
C685 C686 1.386 . S
C685 H713 0.929 . S
C686 C685 1.386 . S
C686 C687 1.373 . S
C687 C686 1.373 . S
C687 C688 1.409 . S
C687 H714 0.931 . S
C688 C683 1.356 . S
C688 C687 1.409 . S
C688 H715 0.930 . S
C689 O702 1.270 . S
C689 O703 1.248 . S
C690 O704 1.267 . S
C690 O705 1.278 . S
C691 Pr681 2.880 . S
C691 C692 1.491 . S
C691 O706 1.254 . S
C691 O707 1.225 . S
C692 C691 1.491 . S
C692 C693 1.392 . S
C692 C697 1.356 . S
C693 C692 1.392 . S
C693 C694 1.368 . S
C693 H716 0.929 . S
C694 C693 1.368 . S
C694 C695 1.386 . S
C694 H717 0.929 . S
C695 C694 1.386 . S
C695 C696 1.373 . S
C696 C695 1.373 . S
C696 C697 1.409 . S
C696 H718 0.931 . S
C697 C692 1.356 . S
C697 C696 1.409 . S
C697 H719 0.930 . S
C698 O708 1.270 . S
C698 O709 1.248 . S
C699 O710 1.267 . S
C699 O711 1.278 . S
O700 Pr680 2.562 . S
O700 C682 1.254 . S
O701 Pr680 2.490 . S
O701 C682 1.225 . S
O702 Pr680 2.695 . S
O702 Pr681 2.436 . S
O702 C689 1.270 . S
O703 Pr680 2.512 . S
O703 C689 1.248 . S
O704 Pr681 2.438 . S
O704 C690 1.267 . S
O705 Pr680 2.437 . S
O705 C690 1.278 . S
O706 Pr681 2.562 . S
O706 C691 1.254 . S
O707 Pr681 2.490 . S
O707 C691 1.225 . S
O708 Pr680 2.436 . S
O708 Pr681 2.695 . S
O708 C698 1.270 . S
O709 Pr681 2.512 . S
O709 C698 1.248 . S
O710 Pr680 2.438 . S
O710 C699 1.267 . S
O711 Pr681 2.437 . S
O711 C699 1.278 . S
H712 C684 0.929 . S
H713 C685 0.929 . S
H714 C687 0.931 . S
H715 C688 0.930 . S
H716 C693 0.929 . S
H717 C694 0.929 . S
H718 C696 0.931 . S
H719 C697 0.930 . S
Pr720 C722 2.880 . S
Pr720 O740 2.562 . S
Pr720 O741 2.490 . S
Pr720 O742 2.695 . S
Pr720 O743 2.512 . S
Pr720 O745 2.437 . S
Pr720 O748 2.436 . S
Pr720 O750 2.438 . S
Pr721 C731 2.880 . S
Pr721 O742 2.436 . S
Pr721 O744 2.438 . S
Pr721 O746 2.562 . S
Pr721 O747 2.490 . S
Pr721 O748 2.695 . S
Pr721 O749 2.512 . S
Pr721 O751 2.437 . S
C722 Pr720 2.880 . S
C722 C723 1.491 . S
C722 O740 1.254 . S
C722 O741 1.225 . S
C723 C722 1.491 . S
C723 C724 1.392 . S
C723 C728 1.356 . S
C724 C723 1.392 . S
C724 C725 1.368 . S
C724 H752 0.929 . S
C725 C724 1.368 . S
C725 C726 1.386 . S
C725 H753 0.929 . S
C726 C725 1.386 . S
C726 C727 1.373 . S
C727 C726 1.373 . S
C727 C728 1.409 . S
C727 H754 0.931 . S
C728 C723 1.356 . S
C728 C727 1.409 . S
C728 H755 0.930 . S
C729 O742 1.270 . S
C729 O743 1.248 . S
C730 O744 1.267 . S
C730 O745 1.278 . S
C731 Pr721 2.880 . S
C731 C732 1.491 . S
C731 O746 1.254 . S
C731 O747 1.225 . S
C732 C731 1.491 . S
C732 C733 1.392 . S
C732 C737 1.356 . S
C733 C732 1.392 . S
C733 C734 1.368 . S
C733 H756 0.929 . S
C734 C733 1.368 . S
C734 C735 1.386 . S
C734 H757 0.929 . S
C735 C734 1.386 . S
C735 C736 1.373 . S
C736 C735 1.373 . S
C736 C737 1.409 . S
C736 H758 0.931 . S
C737 C732 1.356 . S
C737 C736 1.409 . S
C737 H759 0.930 . S
C738 O748 1.270 . S
C738 O749 1.248 . S
C739 O750 1.267 . S
C739 O751 1.278 . S
O740 Pr720 2.562 . S
O740 C722 1.254 . S
O741 Pr720 2.490 . S
O741 C722 1.225 . S
O742 Pr720 2.695 . S
O742 Pr721 2.436 . S
O742 C729 1.270 . S
O743 Pr720 2.512 . S
O743 C729 1.248 . S
O744 Pr721 2.438 . S
O744 C730 1.267 . S
O745 Pr720 2.437 . S
O745 C730 1.278 . S
O746 Pr721 2.562 . S
O746 C731 1.254 . S
O747 Pr721 2.490 . S
O747 C731 1.225 . S
O748 Pr720 2.436 . S
O748 Pr721 2.695 . S
O748 C738 1.270 . S
O749 Pr721 2.512 . S
O749 C738 1.248 . S
O750 Pr720 2.438 . S
O750 C739 1.267 . S
O751 Pr721 2.437 . S
O751 C739 1.278 . S
H752 C724 0.929 . S
H753 C725 0.929 . S
H754 C727 0.931 . S
H755 C728 0.930 . S
H756 C733 0.929 . S
H757 C734 0.929 . S
H758 C736 0.931 . S
H759 C737 0.930 . S
Pr760 C762 2.880 . S
Pr760 O780 2.562 . S
Pr760 O781 2.490 . S
Pr760 O782 2.695 . S
Pr760 O783 2.512 . S
Pr760 O785 2.437 . S
Pr760 O788 2.436 . S
Pr760 O790 2.438 . S
Pr761 C771 2.880 . S
Pr761 O782 2.436 . S
Pr761 O784 2.438 . S
Pr761 O786 2.562 . S
Pr761 O787 2.490 . S
Pr761 O788 2.695 . S
Pr761 O789 2.512 . S
Pr761 O791 2.437 . S
C762 Pr760 2.880 . S
C762 C763 1.491 . S
C762 O780 1.254 . S
C762 O781 1.225 . S
C763 C762 1.491 . S
C763 C764 1.392 . S
C763 C768 1.356 . S
C764 C763 1.392 . S
C764 C765 1.368 . S
C764 H792 0.929 . S
C765 C764 1.368 . S
C765 C766 1.386 . S
C765 H793 0.929 . S
C766 C765 1.386 . S
C766 C767 1.373 . S
C767 C766 1.373 . S
C767 C768 1.409 . S
C767 H794 0.931 . S
C768 C763 1.356 . S
C768 C767 1.409 . S
C768 H795 0.930 . S
C769 O782 1.270 . S
C769 O783 1.248 . S
C770 O784 1.267 . S
C770 O785 1.278 . S
C771 Pr761 2.880 . S
C771 C772 1.491 . S
C771 O786 1.254 . S
C771 O787 1.225 . S
C772 C771 1.491 . S
C772 C773 1.392 . S
C772 C777 1.356 . S
C773 C772 1.392 . S
C773 C774 1.368 . S
C773 H796 0.929 . S
C774 C773 1.368 . S
C774 C775 1.386 . S
C774 H797 0.929 . S
C775 C774 1.386 . S
C775 C776 1.373 . S
C776 C775 1.373 . S
C776 C777 1.409 . S
C776 H798 0.931 . S
C777 C772 1.356 . S
C777 C776 1.409 . S
C777 H799 0.930 . S
C778 O788 1.270 . S
C778 O789 1.248 . S
C779 O790 1.267 . S
C779 O791 1.278 . S
O780 Pr760 2.562 . S
O780 C762 1.254 . S
O781 Pr760 2.490 . S
O781 C762 1.225 . S
O782 Pr760 2.695 . S
O782 Pr761 2.436 . S
O782 C769 1.270 . S
O783 Pr760 2.512 . S
O783 C769 1.248 . S
O784 Pr761 2.438 . S
O784 C770 1.267 . S
O785 Pr760 2.437 . S
O785 C770 1.278 . S
O786 Pr761 2.562 . S
O786 C771 1.254 . S
O787 Pr761 2.490 . S
O787 C771 1.225 . S
O788 Pr760 2.436 . S
O788 Pr761 2.695 . S
O788 C778 1.270 . S
O789 Pr761 2.512 . S
O789 C778 1.248 . S
O790 Pr760 2.438 . S
O790 C779 1.267 . S
O791 Pr761 2.437 . S
O791 C779 1.278 . S
H792 C764 0.929 . S
H793 C765 0.929 . S
H794 C767 0.931 . S
H795 C768 0.930 . S
H796 C773 0.929 . S
H797 C774 0.929 . S
H798 C776 0.931 . S
H799 C777 0.930 . S
Pr800 C802 2.880 . S
Pr800 O820 2.562 . S
Pr800 O821 2.490 . S
Pr800 O822 2.695 . S
Pr800 O823 2.512 . S
Pr800 O825 2.437 . S
Pr800 O828 2.436 . S
Pr800 O830 2.438 . S
Pr801 C811 2.880 . S
Pr801 O822 2.436 . S
Pr801 O824 2.438 . S
Pr801 O826 2.562 . S
Pr801 O827 2.490 . S
Pr801 O828 2.695 . S
Pr801 O829 2.512 . S
Pr801 O831 2.437 . S
C802 Pr800 2.880 . S
C802 C803 1.491 . S
C802 O820 1.254 . S
C802 O821 1.225 . S
C803 C802 1.491 . S
C803 C804 1.392 . S
C803 C808 1.356 . S
C804 C803 1.392 . S
C804 C805 1.368 . S
C804 H832 0.929 . S
C805 C804 1.368 . S
C805 C806 1.386 . S
C805 H833 0.929 . S
C806 C805 1.386 . S
C806 C807 1.373 . S
C807 C806 1.373 . S
C807 C808 1.409 . S
C807 H834 0.931 . S
C808 C803 1.356 . S
C808 C807 1.409 . S
C808 H835 0.930 . S
C809 O822 1.270 . S
C809 O823 1.248 . S
C810 O824 1.267 . S
C810 O825 1.278 . S
C811 Pr801 2.880 . S
C811 C812 1.491 . S
C811 O826 1.254 . S
C811 O827 1.225 . S
C812 C811 1.491 . S
C812 C813 1.392 . S
C812 C817 1.356 . S
C813 C812 1.392 . S
C813 C814 1.368 . S
C813 H836 0.929 . S
C814 C813 1.368 . S
C814 C815 1.386 . S
C814 H837 0.929 . S
C815 C814 1.386 . S
C815 C816 1.373 . S
C816 C815 1.373 . S
C816 C817 1.409 . S
C816 H838 0.931 . S
C817 C812 1.356 . S
C817 C816 1.409 . S
C817 H839 0.930 . S
C818 O828 1.270 . S
C818 O829 1.248 . S
C819 O830 1.267 . S
C819 O831 1.278 . S
O820 Pr800 2.562 . S
O820 C802 1.254 . S
O821 Pr800 2.490 . S
O821 C802 1.225 . S
O822 Pr800 2.695 . S
O822 Pr801 2.436 . S
O822 C809 1.270 . S
O823 Pr800 2.512 . S
O823 C809 1.248 . S
O824 Pr801 2.438 . S
O824 C810 1.267 . S
O825 Pr800 2.437 . S
O825 C810 1.278 . S
O826 Pr801 2.562 . S
O826 C811 1.254 . S
O827 Pr801 2.490 . S
O827 C811 1.225 . S
O828 Pr800 2.436 . S
O828 Pr801 2.695 . S
O828 C818 1.270 . S
O829 Pr801 2.512 . S
O829 C818 1.248 . S
O830 Pr800 2.438 . S
O830 C819 1.267 . S
O831 Pr801 2.437 . S
O831 C819 1.278 . S
H832 C804 0.929 . S
H833 C805 0.929 . S
H834 C807 0.931 . S
H835 C808 0.930 . S
H836 C813 0.929 . S
H837 C814 0.929 . S
H838 C816 0.931 . S
H839 C817 0.930 . S
Pr840 C842 2.880 . S
Pr840 O860 2.562 . S
Pr840 O861 2.490 . S
Pr840 O862 2.695 . S
Pr840 O863 2.512 . S
Pr840 O865 2.437 . S
Pr840 O868 2.436 . S
Pr840 O870 2.438 . S
Pr841 C851 2.880 . S
Pr841 O862 2.436 . S
Pr841 O864 2.438 . S
Pr841 O866 2.562 . S
Pr841 O867 2.490 . S
Pr841 O868 2.695 . S
Pr841 O869 2.512 . S
Pr841 O871 2.437 . S
C842 Pr840 2.880 . S
C842 C843 1.491 . S
C842 O860 1.254 . S
C842 O861 1.225 . S
C843 C842 1.491 . S
C843 C844 1.392 . S
C843 C848 1.356 . S
C844 C843 1.392 . S
C844 C845 1.368 . S
C844 H872 0.929 . S
C845 C844 1.368 . S
C845 C846 1.386 . S
C845 H873 0.929 . S
C846 C845 1.386 . S
C846 C847 1.373 . S
C847 C846 1.373 . S
C847 C848 1.409 . S
C847 H874 0.931 . S
C848 C843 1.356 . S
C848 C847 1.409 . S
C848 H875 0.930 . S
C849 O862 1.270 . S
C849 O863 1.248 . S
C850 O864 1.267 . S
C850 O865 1.278 . S
C851 Pr841 2.880 . S
C851 C852 1.491 . S
C851 O866 1.254 . S
C851 O867 1.225 . S
C852 C851 1.491 . S
C852 C853 1.392 . S
C852 C857 1.356 . S
C853 C852 1.392 . S
C853 C854 1.368 . S
C853 H876 0.929 . S
C854 C853 1.368 . S
C854 C855 1.386 . S
C854 H877 0.929 . S
C855 C854 1.386 . S
C855 C856 1.373 . S
C856 C855 1.373 . S
C856 C857 1.409 . S
C856 H878 0.931 . S
C857 C852 1.356 . S
C857 C856 1.409 . S
C857 H879 0.930 . S
C858 O868 1.270 . S
C858 O869 1.248 . S
C859 O870 1.267 . S
C859 O871 1.278 . S
O860 Pr840 2.562 . S
O860 C842 1.254 . S
O861 Pr840 2.490 . S
O861 C842 1.225 . S
O862 Pr840 2.695 . S
O862 Pr841 2.436 . S
O862 C849 1.270 . S
O863 Pr840 2.512 . S
O863 C849 1.248 . S
O864 Pr841 2.438 . S
O864 C850 1.267 . S
O865 Pr840 2.437 . S
O865 C850 1.278 . S
O866 Pr841 2.562 . S
O866 C851 1.254 . S
O867 Pr841 2.490 . S
O867 C851 1.225 . S
O868 Pr840 2.436 . S
O868 Pr841 2.695 . S
O868 C858 1.270 . S
O869 Pr841 2.512 . S
O869 C858 1.248 . S
O870 Pr840 2.438 . S
O870 C859 1.267 . S
O871 Pr841 2.437 . S
O871 C859 1.278 . S
H872 C844 0.929 . S
H873 C845 0.929 . S
H874 C847 0.931 . S
H875 C848 0.930 . S
H876 C853 0.929 . S
H877 C854 0.929 . S
H878 C856 0.931 . S
H879 C857 0.930 . S
Pr880 C882 2.880 . S
Pr880 O900 2.562 . S
Pr880 O901 2.490 . S
Pr880 O902 2.695 . S
Pr880 O903 2.512 . S
Pr880 O905 2.437 . S
Pr880 O908 2.436 . S
Pr880 O910 2.438 . S
Pr881 C891 2.880 . S
Pr881 O902 2.436 . S
Pr881 O904 2.438 . S
Pr881 O906 2.562 . S
Pr881 O907 2.490 . S
Pr881 O908 2.695 . S
Pr881 O909 2.512 . S
Pr881 O911 2.437 . S
C882 Pr880 2.880 . S
C882 C883 1.491 . S
C882 O900 1.254 . S
C882 O901 1.225 . S
C883 C882 1.491 . S
C883 C884 1.392 . S
C883 C888 1.356 . S
C884 C883 1.392 . S
C884 C885 1.368 . S
C884 H912 0.929 . S
C885 C884 1.368 . S
C885 C886 1.386 . S
C885 H913 0.929 . S
C886 C885 1.386 . S
C886 C887 1.373 . S
C887 C886 1.373 . S
C887 C888 1.409 . S
C887 H914 0.931 . S
C888 C883 1.356 . S
C888 C887 1.409 . S
C888 H915 0.930 . S
C889 O902 1.270 . S
C889 O903 1.248 . S
C890 O904 1.267 . S
C890 O905 1.278 . S
C891 Pr881 2.880 . S
C891 C892 1.491 . S
C891 O906 1.254 . S
C891 O907 1.225 . S
C892 C891 1.491 . S
C892 C893 1.392 . S
C892 C897 1.356 . S
C893 C892 1.392 . S
C893 C894 1.368 . S
C893 H916 0.929 . S
C894 C893 1.368 . S
C894 C895 1.386 . S
C894 H917 0.929 . S
C895 C894 1.386 . S
C895 C896 1.373 . S
C896 C895 1.373 . S
C896 C897 1.409 . S
C896 H918 0.931 . S
C897 C892 1.356 . S
C897 C896 1.409 . S
C897 H919 0.930 . S
C898 O908 1.270 . S
C898 O909 1.248 . S
C899 O910 1.267 . S
C899 O911 1.278 . S
O900 Pr880 2.562 . S
O900 C882 1.254 . S
O901 Pr880 2.490 . S
O901 C882 1.225 . S
O902 Pr880 2.695 . S
O902 Pr881 2.436 . S
O902 C889 1.270 . S
O903 Pr880 2.512 . S
O903 C889 1.248 . S
O904 Pr881 2.438 . S
O904 C890 1.267 . S
O905 Pr880 2.437 . S
O905 C890 1.278 . S
O906 Pr881 2.562 . S
O906 C891 1.254 . S
O907 Pr881 2.490 . S
O907 C891 1.225 . S
O908 Pr880 2.436 . S
O908 Pr881 2.695 . S
O908 C898 1.270 . S
O909 Pr881 2.512 . S
O909 C898 1.248 . S
O910 Pr880 2.438 . S
O910 C899 1.267 . S
O911 Pr881 2.437 . S
O911 C899 1.278 . S
H912 C884 0.929 . S
H913 C885 0.929 . S
H914 C887 0.931 . S
H915 C888 0.930 . S
H916 C893 0.929 . S
H917 C894 0.929 . S
H918 C896 0.931 . S
H919 C897 0.930 . S
Pr920 C922 2.880 . S
Pr920 O940 2.562 . S
Pr920 O941 2.490 . S
Pr920 O942 2.695 . S
Pr920 O943 2.512 . S
Pr920 O945 2.437 . S
Pr920 O948 2.436 . S
Pr920 O950 2.438 . S
Pr921 C931 2.880 . S
Pr921 O942 2.436 . S
Pr921 O944 2.438 . S
Pr921 O946 2.562 . S
Pr921 O947 2.490 . S
Pr921 O948 2.695 . S
Pr921 O949 2.512 . S
Pr921 O951 2.437 . S
C922 Pr920 2.880 . S
C922 C923 1.491 . S
C922 O940 1.254 . S
C922 O941 1.225 . S
C923 C922 1.491 . S
C923 C924 1.392 . S
C923 C928 1.356 . S
C924 C923 1.392 . S
C924 C925 1.368 . S
C924 H952 0.929 . S
C925 C924 1.368 . S
C925 C926 1.386 . S
C925 H953 0.929 . S
C926 C925 1.386 . S
C926 C927 1.373 . S
C927 C926 1.373 . S
C927 C928 1.409 . S
C927 H954 0.931 . S
C928 C923 1.356 . S
C928 C927 1.409 . S
C928 H955 0.930 . S
C929 O942 1.270 . S
C929 O943 1.248 . S
C930 O944 1.267 . S
C930 O945 1.278 . S
C931 Pr921 2.880 . S
C931 C932 1.491 . S
C931 O946 1.254 . S
C931 O947 1.225 . S
C932 C931 1.491 . S
C932 C933 1.392 . S
C932 C937 1.356 . S
C933 C932 1.392 . S
C933 C934 1.368 . S
C933 H956 0.929 . S
C934 C933 1.368 . S
C934 C935 1.386 . S
C934 H957 0.929 . S
C935 C934 1.386 . S
C935 C936 1.373 . S
C936 C935 1.373 . S
C936 C937 1.409 . S
C936 H958 0.931 . S
C937 C932 1.356 . S
C937 C936 1.409 . S
C937 H959 0.930 . S
C938 O948 1.270 . S
C938 O949 1.248 . S
C939 O950 1.267 . S
C939 O951 1.278 . S
O940 Pr920 2.562 . S
O940 C922 1.254 . S
O941 Pr920 2.490 . S
O941 C922 1.225 . S
O942 Pr920 2.695 . S
O942 Pr921 2.436 . S
O942 C929 1.270 . S
O943 Pr920 2.512 . S
O943 C929 1.248 . S
O944 Pr921 2.438 . S
O944 C930 1.267 . S
O945 Pr920 2.437 . S
O945 C930 1.278 . S
O946 Pr921 2.562 . S
O946 C931 1.254 . S
O947 Pr921 2.490 . S
O947 C931 1.225 . S
O948 Pr920 2.436 . S
O948 Pr921 2.695 . S
O948 C938 1.270 . S
O949 Pr921 2.512 . S
O949 C938 1.248 . S
O950 Pr920 2.438 . S
O950 C939 1.267 . S
O951 Pr921 2.437 . S
O951 C939 1.278 . S
H952 C924 0.929 . S
H953 C925 0.929 . S
H954 C927 0.931 . S
H955 C928 0.930 . S
H956 C933 0.929 . S
H957 C934 0.929 . S
H958 C936 0.931 . S
H959 C937 0.930 . S
Pr960 C962 2.880 1_545 S
Pr960 O980 2.562 1_545 S
Pr960 O981 2.490 . S
Pr960 O982 2.695 1_545 S
Pr960 O983 2.512 . S
Pr960 O985 2.437 1_545 S
Pr960 O988 2.436 1_545 S
Pr960 O990 2.438 . S
Pr961 C971 2.880 . S
Pr961 O982 2.436 . S
Pr961 O984 2.438 . S
Pr961 O986 2.562 . S
Pr961 O987 2.490 . S
Pr961 O988 2.695 . S
Pr961 O989 2.512 . S
Pr961 O991 2.437 1_565 S
C962 Pr960 2.880 1_565 S
C962 C963 1.491 . S
C962 O980 1.254 . S
C962 O981 1.225 1_565 S
C963 C962 1.491 . S
C963 C964 1.392 . S
C963 C968 1.356 . S
C964 C963 1.392 . S
C964 C965 1.368 . S
C964 H992 0.924 1_565 S
C965 C964 1.368 . S
C965 C966 1.386 . S
C965 H993 0.929 . S
C966 C965 1.386 . S
C966 C967 1.373 . S
C967 C966 1.373 . S
C967 C968 1.409 . S
C967 H994 0.931 . S
C968 C963 1.356 . S
C968 C967 1.409 . S
C968 H995 0.930 . S
C969 O982 1.270 . S
C969 O983 1.248 1_565 S
C970 O984 1.267 . S
C970 O985 1.278 . S
C971 Pr961 2.880 . S
C971 C972 1.491 . S
C971 O986 1.254 . S
C971 O987 1.225 . S
C972 C971 1.491 . S
C972 C973 1.392 . S
C972 C977 1.356 1_565 S
C973 C972 1.392 . S
C973 C974 1.381 . S
C973 H996 0.929 . S
C974 C973 1.381 . S
C974 C975 1.358 1_565 S
C974 H997 0.948 . S
C975 C974 1.358 1_545 S
C975 C976 1.373 . S
C976 C975 1.373 . S
C976 C977 1.409 . S
C976 H998 0.931 . S
C977 C972 1.356 1_545 S
C977 C976 1.409 . S
C977 H999 0.930 . S
C978 O988 1.270 . S
C978 O989 1.248 . S
C979 O990 1.267 . S
C979 O991 1.278 . S
O980 Pr960 2.562 1_565 S
O980 C962 1.254 . S
O981 Pr960 2.490 . S
O981 C962 1.225 1_545 S
O982 Pr960 2.695 1_565 S
O982 Pr961 2.436 . S
O982 C969 1.270 . S
O983 Pr960 2.512 . S
O983 C969 1.248 1_545 S
O984 Pr961 2.438 . S
O984 C970 1.267 . S
O985 Pr960 2.437 1_565 S
O985 C970 1.278 . S
O986 Pr961 2.562 . S
O986 C971 1.254 . S
O987 Pr961 2.490 . S
O987 C971 1.225 . S
O988 Pr960 2.436 1_565 S
O988 Pr961 2.695 . S
O988 C978 1.270 . S
O989 Pr961 2.512 . S
O989 C978 1.248 . S
O990 Pr960 2.438 . S
O990 C979 1.267 . S
O991 Pr961 2.437 1_545 S
O991 C979 1.278 . S
H992 C964 0.924 1_545 S
H993 C965 0.929 . S
H994 C967 0.931 . S
H995 C968 0.930 . S
H996 C973 0.929 . S
H997 C974 0.948 . S
H998 C976 0.931 . S
H999 C977 0.930 . S
Pr1000 C1002 2.880 . S
Pr1000 O1020 2.562 . S
Pr1000 O1021 2.490 . S
Pr1000 O1022 2.695 . S
Pr1000 O1023 2.512 . S
Pr1000 O1025 2.437 . S
Pr1000 O1028 2.436 . S
Pr1000 O1030 2.438 . S
Pr1001 C1011 2.880 . S
Pr1001 O1022 2.436 . S
Pr1001 O1024 2.438 . S
Pr1001 O1026 2.562 . S
Pr1001 O1027 2.490 . S
Pr1001 O1028 2.695 . S
Pr1001 O1029 2.512 . S
Pr1001 O1031 2.437 . S
C1002 Pr1000 2.880 . S
C1002 C1003 1.491 . S
C1002 O1020 1.254 . S
C1002 O1021 1.225 . S
C1003 C1002 1.491 . S
C1003 C1004 1.392 . S
C1003 C1008 1.356 . S
C1004 C1003 1.392 . S
C1004 C1005 1.368 . S
C1004 H1032 0.929 . S
C1005 C1004 1.368 . S
C1005 C1006 1.386 . S
C1005 H1033 0.929 . S
C1006 C1005 1.386 . S
C1006 C1007 1.373 . S
C1007 C1006 1.373 . S
C1007 C1008 1.409 . S
C1007 H1034 0.931 . S
C1008 C1003 1.356 . S
C1008 C1007 1.409 . S
C1008 H1035 0.930 . S
C1009 O1022 1.270 . S
C1009 O1023 1.248 . S
C1010 O1024 1.267 . S
C1010 O1025 1.278 . S
C1011 Pr1001 2.880 . S
C1011 C1012 1.491 . S
C1011 O1026 1.254 . S
C1011 O1027 1.225 . S
C1012 C1011 1.491 . S
C1012 C1013 1.392 . S
C1012 C1017 1.356 . S
C1013 C1012 1.392 . S
C1013 C1014 1.368 . S
C1013 H1036 0.929 . S
C1014 C1013 1.368 . S
C1014 C1015 1.386 . S
C1014 H1037 0.929 . S
C1015 C1014 1.386 . S
C1015 C1016 1.373 . S
C1016 C1015 1.373 . S
C1016 C1017 1.409 . S
C1016 H1038 0.931 . S
C1017 C1012 1.356 . S
C1017 C1016 1.409 . S
C1017 H1039 0.930 . S
C1018 O1028 1.270 . S
C1018 O1029 1.248 . S
C1019 O1030 1.267 . S
C1019 O1031 1.278 . S
O1020 Pr1000 2.562 . S
O1020 C1002 1.254 . S
O1021 Pr1000 2.490 . S
O1021 C1002 1.225 . S
O1022 Pr1000 2.695 . S
O1022 Pr1001 2.436 . S
O1022 C1009 1.270 . S
O1023 Pr1000 2.512 . S
O1023 C1009 1.248 . S
O1024 Pr1001 2.438 . S
O1024 C1010 1.267 . S
O1025 Pr1000 2.437 . S
O1025 C1010 1.278 . S
O1026 Pr1001 2.562 . S
O1026 C1011 1.254 . S
O1027 Pr1001 2.490 . S
O1027 C1011 1.225 . S
O1028 Pr1000 2.436 . S
O1028 Pr1001 2.695 . S
O1028 C1018 1.270 . S
O1029 Pr1001 2.512 . S
O1029 C1018 1.248 . S
O1030 Pr1000 2.438 . S
O1030 C1019 1.267 . S
O1031 Pr1001 2.437 . S
O1031 C1019 1.278 . S
H1032 C1004 0.929 . S
H1033 C1005 0.929 . S
H1034 C1007 0.931 . S
H1035 C1008 0.930 . S
H1036 C1013 0.929 . S
H1037 C1014 0.929 . S
H1038 C1016 0.931 . S
H1039 C1017 0.930 . S
Pr1040 C1042 2.880 . S
Pr1040 O1060 2.562 . S
Pr1040 O1061 2.490 . S
Pr1040 O1062 2.695 . S
Pr1040 O1063 2.512 . S
Pr1040 O1065 2.437 . S
Pr1040 O1068 2.436 . S
Pr1040 O1070 2.438 . S
Pr1041 C1051 2.880 . S
Pr1041 O1062 2.436 . S
Pr1041 O1064 2.438 . S
Pr1041 O1066 2.562 . S
Pr1041 O1067 2.490 . S
Pr1041 O1068 2.695 . S
Pr1041 O1069 2.512 . S
Pr1041 O1071 2.437 . S
C1042 Pr1040 2.880 . S
C1042 C1043 1.491 . S
C1042 O1060 1.254 . S
C1042 O1061 1.225 . S
C1043 C1042 1.491 . S
C1043 C1044 1.392 . S
C1043 C1048 1.356 . S
C1044 C1043 1.392 . S
C1044 C1045 1.368 . S
C1044 H1072 0.929 . S
C1045 C1044 1.368 . S
C1045 C1046 1.386 . S
C1045 H1073 0.929 . S
C1046 C1045 1.386 . S
C1046 C1047 1.373 . S
C1047 C1046 1.373 . S
C1047 C1048 1.409 . S
C1047 H1074 0.931 . S
C1048 C1043 1.356 . S
C1048 C1047 1.409 . S
C1048 H1075 0.930 . S
C1049 O1062 1.270 . S
C1049 O1063 1.248 . S
C1050 O1064 1.267 . S
C1050 O1065 1.278 . S
C1051 Pr1041 2.880 . S
C1051 C1052 1.491 . S
C1051 O1066 1.254 . S
C1051 O1067 1.225 . S
C1052 C1051 1.491 . S
C1052 C1053 1.392 . S
C1052 C1057 1.356 . S
C1053 C1052 1.392 . S
C1053 C1054 1.368 . S
C1053 H1076 0.929 . S
C1054 C1053 1.368 . S
C1054 C1055 1.386 . S
C1054 H1077 0.929 . S
C1055 C1054 1.386 . S
C1055 C1056 1.373 . S
C1056 C1055 1.373 . S
C1056 C1057 1.409 . S
C1056 H1078 0.931 . S
C1057 C1052 1.356 . S
C1057 C1056 1.409 . S
C1057 H1079 0.930 . S
C1058 O1068 1.270 . S
C1058 O1069 1.248 . S
C1059 O1070 1.267 . S
C1059 O1071 1.278 . S
O1060 Pr1040 2.562 . S
O1060 C1042 1.254 . S
O1061 Pr1040 2.490 . S
O1061 C1042 1.225 . S
O1062 Pr1040 2.695 . S
O1062 Pr1041 2.436 . S
O1062 C1049 1.270 . S
O1063 Pr1040 2.512 . S
O1063 C1049 1.248 . S
O1064 Pr1041 2.438 . S
O1064 C1050 1.267 . S
O1065 Pr1040 2.437 . S
O1065 C1050 1.278 . S
O1066 Pr1041 2.562 . S
O1066 C1051 1.254 . S
O1067 Pr1041 2.490 . S
O1067 C1051 1.225 . S
O1068 Pr1040 2.436 . S
O1068 Pr1041 2.695 . S
O1068 C1058 1.270 . S
O1069 Pr1041 2.512 . S
O1069 C1058 1.248 . S
O1070 Pr1040 2.438 . S
O1070 C1059 1.267 . S
O1071 Pr1041 2.437 . S
O1071 C1059 1.278 . S
H1072 C1044 0.929 . S
H1073 C1045 0.929 . S
H1074 C1047 0.931 . S
H1075 C1048 0.930 . S
H1076 C1053 0.929 . S
H1077 C1054 0.929 . S
H1078 C1056 0.931 . S
H1079 C1057 0.930 . S
Pr1080 C1082 2.880 1_545 S
Pr1080 O1100 2.562 1_545 S
Pr1080 O1101 2.490 . S
Pr1080 O1102 2.695 1_545 S
Pr1080 O1103 2.512 . S
Pr1080 O1105 2.437 1_545 S
Pr1080 O1108 2.436 1_545 S
Pr1080 O1110 2.438 . S
Pr1081 C1091 2.880 . S
Pr1081 O1102 2.436 . S
Pr1081 O1104 2.438 . S
Pr1081 O1106 2.562 . S
Pr1081 O1107 2.490 . S
Pr1081 O1108 2.695 . S
Pr1081 O1109 2.512 . S
Pr1081 O1111 2.437 1_565 S
C1082 Pr1080 2.880 1_565 S
C1082 C1083 1.491 . S
C1082 O1100 1.254 . S
C1082 O1101 1.225 1_565 S
C1083 C1082 1.491 . S
C1083 C1084 1.392 . S
C1083 C1088 1.356 . S
C1084 C1083 1.392 . S
C1084 C1085 1.368 . S
C1084 H1112 0.924 1_565 S
C1085 C1084 1.368 . S
C1085 C1086 1.386 . S
C1085 H1113 0.929 . S
C1086 C1085 1.386 . S
C1086 C1087 1.373 . S
C1087 C1086 1.373 . S
C1087 C1088 1.409 . S
C1087 H1114 0.931 . S
C1088 C1083 1.356 . S
C1088 C1087 1.409 . S
C1088 H1115 0.930 . S
C1089 O1102 1.270 . S
C1089 O1103 1.248 1_565 S
C1090 O1104 1.267 . S
C1090 O1105 1.278 . S
C1091 Pr1081 2.880 . S
C1091 C1092 1.491 . S
C1091 O1106 1.254 . S
C1091 O1107 1.225 . S
C1092 C1091 1.491 . S
C1092 C1093 1.392 . S
C1092 C1097 1.356 1_565 S
C1093 C1092 1.392 . S
C1093 C1094 1.381 . S
C1093 H1116 0.929 . S
C1094 C1093 1.381 . S
C1094 C1095 1.358 1_565 S
C1094 H1117 0.948 . S
C1095 C1094 1.358 1_545 S
C1095 C1096 1.373 . S
C1096 C1095 1.373 . S
C1096 C1097 1.409 . S
C1096 H1118 0.931 . S
C1097 C1092 1.356 1_545 S
C1097 C1096 1.409 . S
C1097 H1119 0.930 . S
C1098 O1108 1.270 . S
C1098 O1109 1.248 . S
C1099 O1110 1.267 . S
C1099 O1111 1.278 . S
O1100 Pr1080 2.562 1_565 S
O1100 C1082 1.254 . S
O1101 Pr1080 2.490 . S
O1101 C1082 1.225 1_545 S
O1102 Pr1080 2.695 1_565 S
O1102 Pr1081 2.436 . S
O1102 C1089 1.270 . S
O1103 Pr1080 2.512 . S
O1103 C1089 1.248 1_545 S
O1104 Pr1081 2.438 . S
O1104 C1090 1.267 . S
O1105 Pr1080 2.437 1_565 S
O1105 C1090 1.278 . S
O1106 Pr1081 2.562 . S
O1106 C1091 1.254 . S
O1107 Pr1081 2.490 . S
O1107 C1091 1.225 . S
O1108 Pr1080 2.436 1_565 S
O1108 Pr1081 2.695 . S
O1108 C1098 1.270 . S
O1109 Pr1081 2.512 . S
O1109 C1098 1.248 . S
O1110 Pr1080 2.438 . S
O1110 C1099 1.267 . S
O1111 Pr1081 2.437 1_545 S
O1111 C1099 1.278 . S
H1112 C1084 0.924 1_545 S
H1113 C1085 0.929 . S
H1114 C1087 0.931 . S
H1115 C1088 0.930 . S
H1116 C1093 0.929 . S
H1117 C1094 0.948 . S
H1118 C1096 0.931 . S
H1119 C1097 0.930 . S
Pr1120 C1122 2.880 . S
Pr1120 O1140 2.562 . S
Pr1120 O1141 2.490 . S
Pr1120 O1142 2.695 . S
Pr1120 O1143 2.512 . S
Pr1120 O1145 2.437 1_545 S
Pr1120 O1148 2.436 . S
Pr1120 O1150 2.438 . S
Pr1121 C1131 2.880 1_565 S
Pr1121 O1142 2.436 1_565 S
Pr1121 O1144 2.438 . S
Pr1121 O1146 2.562 1_565 S
Pr1121 O1147 2.490 . S
Pr1121 O1148 2.695 1_565 S
Pr1121 O1149 2.512 . S
Pr1121 O1151 2.437 1_565 S
C1122 Pr1120 2.880 . S
C1122 C1123 1.491 . S
C1122 O1140 1.254 . S
C1122 O1141 1.225 . S
C1123 C1122 1.491 . S
C1123 C1124 1.392 . S
C1123 C1128 1.356 1_545 S
C1124 C1123 1.392 . S
C1124 C1125 1.381 . S
C1124 H1152 0.929 . S
C1125 C1124 1.381 . S
C1125 C1126 1.358 1_545 S
C1125 H1153 0.948 . S
C1126 C1125 1.358 1_565 S
C1126 C1127 1.373 . S
C1127 C1126 1.373 . S
C1127 C1128 1.409 . S
C1127 H1154 0.931 . S
C1128 C1123 1.356 1_565 S
C1128 C1127 1.409 . S
C1128 H1155 0.930 . S
C1129 O1142 1.270 . S
C1129 O1143 1.248 . S
C1130 O1144 1.267 . S
C1130 O1145 1.278 . S
C1131 Pr1121 2.880 1_545 S
C1131 C1132 1.491 . S
C1131 O1146 1.254 . S
C1131 O1147 1.225 1_545 S
C1132 C1131 1.491 . S
C1132 C1133 1.392 . S
C1132 C1137 1.356 . S
C1133 C1132 1.392 . S
C1133 C1134 1.368 . S
C1133 H1156 0.924 1_545 S
C1134 C1133 1.368 . S
C1134 C1135 1.386 . S
C1134 H1157 0.929 . S
C1135 C1134 1.386 . S
C1135 C1136 1.373 . S
C1136 C1135 1.373 . S
C1136 C1137 1.409 . S
C1136 H1158 0.931 . S
C1137 C1132 1.356 . S
C1137 C1136 1.409 . S
C1137 H1159 0.930 . S
C1138 O1148 1.270 . S
C1138 O1149 1.248 1_545 S
C1139 O1150 1.267 . S
C1139 O1151 1.278 . S
O1140 Pr1120 2.562 . S
O1140 C1122 1.254 . S
O1141 Pr1120 2.490 . S
O1141 C1122 1.225 . S
O1142 Pr1120 2.695 . S
O1142 Pr1121 2.436 1_545 S
O1142 C1129 1.270 . S
O1143 Pr1120 2.512 . S
O1143 C1129 1.248 . S
O1144 Pr1121 2.438 . S
O1144 C1130 1.267 . S
O1145 Pr1120 2.437 1_565 S
O1145 C1130 1.278 . S
O1146 Pr1121 2.562 1_545 S
O1146 C1131 1.254 . S
O1147 Pr1121 2.490 . S
O1147 C1131 1.225 1_565 S
O1148 Pr1120 2.436 . S
O1148 Pr1121 2.695 1_545 S
O1148 C1138 1.270 . S
O1149 Pr1121 2.512 . S
O1149 C1138 1.248 1_565 S
O1150 Pr1120 2.438 . S
O1150 C1139 1.267 . S
O1151 Pr1121 2.437 1_545 S
O1151 C1139 1.278 . S
H1152 C1124 0.929 . S
H1153 C1125 0.948 . S
H1154 C1127 0.931 . S
H1155 C1128 0.930 . S
H1156 C1133 0.924 1_565 S
H1157 C1134 0.929 . S
H1158 C1136 0.931 . S
H1159 C1137 0.930 . S
Pr1160 C1162 2.880 . S
Pr1160 O1180 2.562 . S
Pr1160 O1181 2.490 . S
Pr1160 O1182 2.695 . S
Pr1160 O1183 2.512 . S
Pr1160 O1185 2.437 . S
Pr1160 O1188 2.436 . S
Pr1160 O1190 2.438 . S
Pr1161 C1171 2.880 . S
Pr1161 O1182 2.436 . S
Pr1161 O1184 2.438 . S
Pr1161 O1186 2.562 . S
Pr1161 O1187 2.490 . S
Pr1161 O1188 2.695 . S
Pr1161 O1189 2.512 . S
Pr1161 O1191 2.437 . S
C1162 Pr1160 2.880 . S
C1162 C1163 1.491 . S
C1162 O1180 1.254 . S
C1162 O1181 1.225 . S
C1163 C1162 1.491 . S
C1163 C1164 1.392 . S
C1163 C1168 1.356 . S
C1164 C1163 1.392 . S
C1164 C1165 1.368 . S
C1164 H1192 0.929 . S
C1165 C1164 1.368 . S
C1165 C1166 1.386 . S
C1165 H1193 0.929 . S
C1166 C1165 1.386 . S
C1166 C1167 1.373 . S
C1167 C1166 1.373 . S
C1167 C1168 1.409 . S
C1167 H1194 0.931 . S
C1168 C1163 1.356 . S
C1168 C1167 1.409 . S
C1168 H1195 0.930 . S
C1169 O1182 1.270 . S
C1169 O1183 1.248 . S
C1170 O1184 1.267 . S
C1170 O1185 1.278 . S
C1171 Pr1161 2.880 . S
C1171 C1172 1.491 . S
C1171 O1186 1.254 . S
C1171 O1187 1.225 . S
C1172 C1171 1.491 . S
C1172 C1173 1.392 . S
C1172 C1177 1.356 . S
C1173 C1172 1.392 . S
C1173 C1174 1.368 . S
C1173 H1196 0.929 . S
C1174 C1173 1.368 . S
C1174 C1175 1.386 . S
C1174 H1197 0.929 . S
C1175 C1174 1.386 . S
C1175 C1176 1.373 . S
C1176 C1175 1.373 . S
C1176 C1177 1.409 . S
C1176 H1198 0.931 . S
C1177 C1172 1.356 . S
C1177 C1176 1.409 . S
C1177 H1199 0.930 . S
C1178 O1188 1.270 . S
C1178 O1189 1.248 . S
C1179 O1190 1.267 . S
C1179 O1191 1.278 . S
O1180 Pr1160 2.562 . S
O1180 C1162 1.254 . S
O1181 Pr1160 2.490 . S
O1181 C1162 1.225 . S
O1182 Pr1160 2.695 . S
O1182 Pr1161 2.436 . S
O1182 C1169 1.270 . S
O1183 Pr1160 2.512 . S
O1183 C1169 1.248 . S
O1184 Pr1161 2.438 . S
O1184 C1170 1.267 . S
O1185 Pr1160 2.437 . S
O1185 C1170 1.278 . S
O1186 Pr1161 2.562 . S
O1186 C1171 1.254 . S
O1187 Pr1161 2.490 . S
O1187 C1171 1.225 . S
O1188 Pr1160 2.436 . S
O1188 Pr1161 2.695 . S
O1188 C1178 1.270 . S
O1189 Pr1161 2.512 . S
O1189 C1178 1.248 . S
O1190 Pr1160 2.438 . S
O1190 C1179 1.267 . S
O1191 Pr1161 2.437 . S
O1191 C1179 1.278 . S
H1192 C1164 0.929 . S
H1193 C1165 0.929 . S
H1194 C1167 0.931 . S
H1195 C1168 0.930 . S
H1196 C1173 0.929 . S
H1197 C1174 0.929 . S
H1198 C1176 0.931 . S
H1199 C1177 0.930 . S
Pr1200 C1202 2.880 . S
Pr1200 O1220 2.562 . S
Pr1200 O1221 2.490 . S
Pr1200 O1222 2.695 . S
Pr1200 O1223 2.512 . S
Pr1200 O1225 2.437 . S
Pr1200 O1228 2.436 . S
Pr1200 O1230 2.438 . S
Pr1201 C1211 2.880 . S
Pr1201 O1222 2.436 . S
Pr1201 O1224 2.438 . S
Pr1201 O1226 2.562 . S
Pr1201 O1227 2.490 . S
Pr1201 O1228 2.695 . S
Pr1201 O1229 2.512 . S
Pr1201 O1231 2.437 . S
C1202 Pr1200 2.880 . S
C1202 C1203 1.491 . S
C1202 O1220 1.254 . S
C1202 O1221 1.225 . S
C1203 C1202 1.491 . S
C1203 C1204 1.392 . S
C1203 C1208 1.356 . S
C1204 C1203 1.392 . S
C1204 C1205 1.368 . S
C1204 H1232 0.929 . S
C1205 C1204 1.368 . S
C1205 C1206 1.386 . S
C1205 H1233 0.929 . S
C1206 C1205 1.386 . S
C1206 C1207 1.373 . S
C1207 C1206 1.373 . S
C1207 C1208 1.409 . S
C1207 H1234 0.931 . S
C1208 C1203 1.356 . S
C1208 C1207 1.409 . S
C1208 H1235 0.930 . S
C1209 O1222 1.270 . S
C1209 O1223 1.248 . S
C1210 O1224 1.267 . S
C1210 O1225 1.278 . S
C1211 Pr1201 2.880 . S
C1211 C1212 1.491 . S
C1211 O1226 1.254 . S
C1211 O1227 1.225 . S
C1212 C1211 1.491 . S
C1212 C1213 1.392 . S
C1212 C1217 1.356 . S
C1213 C1212 1.392 . S
C1213 C1214 1.368 . S
C1213 H1236 0.929 . S
C1214 C1213 1.368 . S
C1214 C1215 1.386 . S
C1214 H1237 0.929 . S
C1215 C1214 1.386 . S
C1215 C1216 1.373 . S
C1216 C1215 1.373 . S
C1216 C1217 1.409 . S
C1216 H1238 0.931 . S
C1217 C1212 1.356 . S
C1217 C1216 1.409 . S
C1217 H1239 0.930 . S
C1218 O1228 1.270 . S
C1218 O1229 1.248 . S
C1219 O1230 1.267 . S
C1219 O1231 1.278 . S
O1220 Pr1200 2.562 . S
O1220 C1202 1.254 . S
O1221 Pr1200 2.490 . S
O1221 C1202 1.225 . S
O1222 Pr1200 2.695 . S
O1222 Pr1201 2.436 . S
O1222 C1209 1.270 . S
O1223 Pr1200 2.512 . S
O1223 C1209 1.248 . S
O1224 Pr1201 2.438 . S
O1224 C1210 1.267 . S
O1225 Pr1200 2.437 . S
O1225 C1210 1.278 . S
O1226 Pr1201 2.562 . S
O1226 C1211 1.254 . S
O1227 Pr1201 2.490 . S
O1227 C1211 1.225 . S
O1228 Pr1200 2.436 . S
O1228 Pr1201 2.695 . S
O1228 C1218 1.270 . S
O1229 Pr1201 2.512 . S
O1229 C1218 1.248 . S
O1230 Pr1200 2.438 . S
O1230 C1219 1.267 . S
O1231 Pr1201 2.437 . S
O1231 C1219 1.278 . S
H1232 C1204 0.929 . S
H1233 C1205 0.929 . S
H1234 C1207 0.931 . S
H1235 C1208 0.930 . S
H1236 C1213 0.929 . S
H1237 C1214 0.929 . S
H1238 C1216 0.931 . S
H1239 C1217 0.930 . S
Pr1240 C1242 2.880 . S
Pr1240 O1260 2.562 . S
Pr1240 O1261 2.490 . S
Pr1240 O1262 2.695 . S
Pr1240 O1263 2.512 . S
Pr1240 O1265 2.437 1_545 S
Pr1240 O1268 2.436 . S
Pr1240 O1270 2.438 . S
Pr1241 C1251 2.880 1_565 S
Pr1241 O1262 2.436 1_565 S
Pr1241 O1264 2.438 . S
Pr1241 O1266 2.562 1_565 S
Pr1241 O1267 2.490 . S
Pr1241 O1268 2.695 1_565 S
Pr1241 O1269 2.512 . S
Pr1241 O1271 2.437 1_565 S
C1242 Pr1240 2.880 . S
C1242 C1243 1.491 . S
C1242 O1260 1.254 . S
C1242 O1261 1.225 . S
C1243 C1242 1.491 . S
C1243 C1244 1.392 . S
C1243 C1248 1.356 1_545 S
C1244 C1243 1.392 . S
C1244 C1245 1.381 . S
C1244 H1272 0.929 . S
C1245 C1244 1.381 . S
C1245 C1246 1.358 1_545 S
C1245 H1273 0.948 . S
C1246 C1245 1.358 1_565 S
C1246 C1247 1.373 . S
C1247 C1246 1.373 . S
C1247 C1248 1.409 . S
C1247 H1274 0.931 . S
C1248 C1243 1.356 1_565 S
C1248 C1247 1.409 . S
C1248 H1275 0.930 . S
C1249 O1262 1.270 . S
C1249 O1263 1.248 . S
C1250 O1264 1.267 . S
C1250 O1265 1.278 . S
C1251 Pr1241 2.880 1_545 S
C1251 C1252 1.491 . S
C1251 O1266 1.254 . S
C1251 O1267 1.225 1_545 S
C1252 C1251 1.491 . S
C1252 C1253 1.392 . S
C1252 C1257 1.356 . S
C1253 C1252 1.392 . S
C1253 C1254 1.368 . S
C1253 H1276 0.924 1_545 S
C1254 C1253 1.368 . S
C1254 C1255 1.386 . S
C1254 H1277 0.929 . S
C1255 C1254 1.386 . S
C1255 C1256 1.373 . S
C1256 C1255 1.373 . S
C1256 C1257 1.409 . S
C1256 H1278 0.931 . S
C1257 C1252 1.356 . S
C1257 C1256 1.409 . S
C1257 H1279 0.930 . S
C1258 O1268 1.270 . S
C1258 O1269 1.248 1_545 S
C1259 O1270 1.267 . S
C1259 O1271 1.278 . S
O1260 Pr1240 2.562 . S
O1260 C1242 1.254 . S
O1261 Pr1240 2.490 . S
O1261 C1242 1.225 . S
O1262 Pr1240 2.695 . S
O1262 Pr1241 2.436 1_545 S
O1262 C1249 1.270 . S
O1263 Pr1240 2.512 . S
O1263 C1249 1.248 . S
O1264 Pr1241 2.438 . S
O1264 C1250 1.267 . S
O1265 Pr1240 2.437 1_565 S
O1265 C1250 1.278 . S
O1266 Pr1241 2.562 1_545 S
O1266 C1251 1.254 . S
O1267 Pr1241 2.490 . S
O1267 C1251 1.225 1_565 S
O1268 Pr1240 2.436 . S
O1268 Pr1241 2.695 1_545 S
O1268 C1258 1.270 . S
O1269 Pr1241 2.512 . S
O1269 C1258 1.248 1_565 S
O1270 Pr1240 2.438 . S
O1270 C1259 1.267 . S
O1271 Pr1241 2.437 1_545 S
O1271 C1259 1.278 . S
H1272 C1244 0.929 . S
H1273 C1245 0.948 . S
H1274 C1247 0.931 . S
H1275 C1248 0.930 . S
H1276 C1253 0.924 1_565 S
H1277 C1254 0.929 . S
H1278 C1256 0.931 . S
H1279 C1257 0.930 . S
C1280 C1281 1.349 . S
C1280 C1282 1.327 . S
C1280 H1305 0.950 . S
C1281 C1280 1.349 . S
C1281 C1297 1.349 . S
C1282 C1280 1.327 . S
C1282 C1301 1.429 . S
C1282 H1306 0.950 . S
C1283 C1300 1.574 . S
C1283 C1302 1.368 . S
C1283 H1307 0.949 . S
H1284 C1288 0.949 . S
C1285 C1286 1.349 . S
C1285 C1287 1.327 . S
C1285 H1308 0.950 . S
C1286 C1285 1.349 . S
C1286 C1298 1.349 . S
C1287 C1285 1.327 . S
C1287 C1303 1.429 . S
C1287 H1309 0.950 . S
C1288 H1284 0.949 . S
C1288 C1296 1.574 . S
C1288 C1304 1.368 . S
H1289 C1297 0.950 . S
H1290 C1295 0.950 . S
H1291 C1296 0.949 . S
H1292 C1298 0.950 . S
H1293 C1299 0.950 . S
H1294 C1300 0.949 . S
C1295 H1290 0.950 . S
C1295 C1297 1.327 . S
C1295 C1301 1.429 . S
C1296 C1288 1.574 . S
C1296 H1291 0.949 . S
C1296 C1302 1.368 . S
C1297 C1281 1.349 . S
C1297 H1289 0.950 . S
C1297 C1295 1.327 . S
C1298 C1286 1.349 . S
C1298 H1292 0.950 . S
C1298 C1299 1.327 . S
C1299 H1293 0.950 . S
C1299 C1298 1.327 . S
C1299 C1303 1.429 . S
C1300 C1283 1.574 . S
C1300 H1294 0.949 . S
C1300 C1304 1.368 . S
C1301 C1282 1.429 . S
C1301 C1295 1.429 . S
C1301 C1302 1.523 . S
C1302 C1283 1.368 . S
C1302 C1296 1.368 . S
C1302 C1301 1.523 . S
C1303 C1287 1.429 . S
C1303 C1299 1.429 . S
C1303 C1304 1.523 . S
C1304 C1288 1.368 . S
C1304 C1300 1.368 . S
C1304 C1303 1.523 . S
H1305 C1280 0.950 . S
H1306 C1282 0.950 . S
H1307 C1283 0.949 . S
H1308 C1285 0.950 . S
H1309 C1287 0.950 . S
C1310 C1311 1.349 . S
C1310 C1312 1.327 . S
C1310 H1335 0.950 . S
C1311 C1310 1.349 . S
C1311 C1327 1.349 . S
C1312 C1310 1.327 . S
C1312 C1331 1.429 . S
C1312 H1336 0.950 . S
C1313 C1330 1.574 . S
C1313 C1332 1.368 . S
C1313 H1337 0.949 . S
H1314 C1318 0.949 . S
C1315 C1316 1.349 . S
C1315 C1317 1.327 . S
C1315 H1338 0.950 . S
C1316 C1315 1.349 . S
C1316 C1328 1.349 . S
C1317 C1315 1.327 . S
C1317 C1333 1.429 . S
C1317 H1339 0.950 . S
C1318 H1314 0.949 . S
C1318 C1326 1.574 . S
C1318 C1334 1.368 . S
H1319 C1327 0.950 . S
H1320 C1325 0.950 . S
H1321 C1326 0.949 . S
H1322 C1328 0.950 . S
H1323 C1329 0.950 . S
H1324 C1330 0.949 . S
C1325 H1320 0.950 . S
C1325 C1327 1.327 . S
C1325 C1331 1.429 . S
C1326 C1318 1.574 . S
C1326 H1321 0.949 . S
C1326 C1332 1.368 . S
C1327 C1311 1.349 . S
C1327 H1319 0.950 . S
C1327 C1325 1.327 . S
C1328 C1316 1.349 . S
C1328 H1322 0.950 . S
C1328 C1329 1.327 . S
C1329 H1323 0.950 . S
C1329 C1328 1.327 . S
C1329 C1333 1.429 . S
C1330 C1313 1.574 . S
C1330 H1324 0.949 . S
C1330 C1334 1.368 . S
C1331 C1312 1.429 . S
C1331 C1325 1.429 . S
C1331 C1332 1.523 . S
C1332 C1313 1.368 . S
C1332 C1326 1.368 . S
C1332 C1331 1.523 . S
C1333 C1317 1.429 . S
C1333 C1329 1.429 . S
C1333 C1334 1.523 . S
C1334 C1318 1.368 . S
C1334 C1330 1.368 . S
C1334 C1333 1.523 . S
H1335 C1310 0.950 . S
H1336 C1312 0.950 . S
H1337 C1313 0.949 . S
H1338 C1315 0.950 . S
H1339 C1317 0.950 . S
C1340 C1341 1.349 . S
C1340 C1342 1.327 . S
C1340 H1365 0.950 . S
C1341 C1340 1.349 . S
C1341 C1357 1.349 . S
C1342 C1340 1.327 . S
C1342 C1361 1.429 . S
C1342 H1366 0.950 . S
C1343 C1360 1.574 . S
C1343 C1362 1.368 . S
C1343 H1367 0.949 . S
H1344 C1348 0.949 . S
C1345 C1346 1.349 . S
C1345 C1347 1.327 . S
C1345 H1368 0.950 . S
C1346 C1345 1.349 . S
C1346 C1358 1.349 . S
C1347 C1345 1.327 . S
C1347 C1363 1.429 . S
C1347 H1369 0.950 . S
C1348 H1344 0.949 . S
C1348 C1356 1.574 . S
C1348 C1364 1.368 . S
H1349 C1357 0.950 . S
H1350 C1355 0.950 . S
H1351 C1356 0.949 . S
H1352 C1358 0.950 . S
H1353 C1359 0.950 . S
H1354 C1360 0.949 . S
C1355 H1350 0.950 . S
C1355 C1357 1.327 . S
C1355 C1361 1.429 . S
C1356 C1348 1.574 . S
C1356 H1351 0.949 . S
C1356 C1362 1.368 . S
C1357 C1341 1.349 . S
C1357 H1349 0.950 . S
C1357 C1355 1.327 . S
C1358 C1346 1.349 . S
C1358 H1352 0.950 . S
C1358 C1359 1.327 . S
C1359 H1353 0.950 . S
C1359 C1358 1.327 . S
C1359 C1363 1.429 . S
C1360 C1343 1.574 . S
C1360 H1354 0.949 . S
C1360 C1364 1.368 . S
C1361 C1342 1.429 . S
C1361 C1355 1.429 . S
C1361 C1362 1.523 . S
C1362 C1343 1.368 . S
C1362 C1356 1.368 . S
C1362 C1361 1.523 . S
C1363 C1347 1.429 . S
C1363 C1359 1.429 . S
C1363 C1364 1.523 . S
C1364 C1348 1.368 . S
C1364 C1360 1.368 . S
C1364 C1363 1.523 . S
H1365 C1340 0.950 . S
H1366 C1342 0.950 . S
H1367 C1343 0.949 . S
H1368 C1345 0.950 . S
H1369 C1347 0.950 . S
C1370 C1371 1.349 . S
C1370 C1372 1.327 . S
C1370 H1395 0.950 . S
C1371 C1370 1.349 . S
C1371 C1387 1.349 . S
C1372 C1370 1.327 . S
C1372 C1391 1.429 . S
C1372 H1396 0.950 . S
C1373 C1390 1.574 . S
C1373 C1392 1.368 . S
C1373 H1397 0.949 . S
H1374 C1378 0.949 . S
C1375 C1376 1.349 . S
C1375 C1377 1.327 . S
C1375 H1398 0.950 . S
C1376 C1375 1.349 . S
C1376 C1388 1.349 . S
C1377 C1375 1.327 . S
C1377 C1393 1.429 . S
C1377 H1399 0.950 . S
C1378 H1374 0.949 . S
C1378 C1386 1.574 . S
C1378 C1394 1.368 . S
H1379 C1387 0.950 . S
H1380 C1385 0.950 . S
H1381 C1386 0.949 . S
H1382 C1388 0.950 . S
H1383 C1389 0.950 . S
H1384 C1390 0.949 . S
C1385 H1380 0.950 . S
C1385 C1387 1.327 . S
C1385 C1391 1.429 . S
C1386 C1378 1.574 . S
C1386 H1381 0.949 . S
C1386 C1392 1.368 . S
C1387 C1371 1.349 . S
C1387 H1379 0.950 . S
C1387 C1385 1.327 . S
C1388 C1376 1.349 . S
C1388 H1382 0.950 . S
C1388 C1389 1.327 . S
C1389 H1383 0.950 . S
C1389 C1388 1.327 . S
C1389 C1393 1.429 . S
C1390 C1373 1.574 . S
C1390 H1384 0.949 . S
C1390 C1394 1.368 . S
C1391 C1372 1.429 . S
C1391 C1385 1.429 . S
C1391 C1392 1.523 . S
C1392 C1373 1.368 . S
C1392 C1386 1.368 . S
C1392 C1391 1.523 . S
C1393 C1377 1.429 . S
C1393 C1389 1.429 . S
C1393 C1394 1.523 . S
C1394 C1378 1.368 . S
C1394 C1390 1.368 . S
C1394 C1393 1.523 . S
H1395 C1370 0.950 . S
H1396 C1372 0.950 . S
H1397 C1373 0.949 . S
H1398 C1375 0.950 . S
H1399 C1377 0.950 . S
C1400 C1401 1.349 . S
C1400 C1402 1.327 . S
C1400 H1425 0.950 . S
C1401 C1400 1.349 . S
C1401 C1417 1.349 . S
C1402 C1400 1.327 . S
C1402 C1421 1.429 . S
C1402 H1426 0.950 . S
C1403 C1420 1.574 . S
C1403 C1422 1.368 . S
C1403 H1427 0.949 . S
H1404 C1408 0.949 . S
C1405 C1406 1.349 . S
C1405 C1407 1.327 . S
C1405 H1428 0.950 . S
C1406 C1405 1.349 . S
C1406 C1418 1.349 . S
C1407 C1405 1.327 . S
C1407 C1423 1.429 . S
C1407 H1429 0.950 . S
C1408 H1404 0.949 . S
C1408 C1416 1.574 . S
C1408 C1424 1.368 . S
H1409 C1417 0.950 . S
H1410 C1415 0.950 . S
H1411 C1416 0.949 . S
H1412 C1418 0.950 . S
H1413 C1419 0.950 . S
H1414 C1420 0.949 . S
C1415 H1410 0.950 . S
C1415 C1417 1.327 . S
C1415 C1421 1.429 . S
C1416 C1408 1.574 . S
C1416 H1411 0.949 . S
C1416 C1422 1.368 . S
C1417 C1401 1.349 . S
C1417 H1409 0.950 . S
C1417 C1415 1.327 . S
C1418 C1406 1.349 . S
C1418 H1412 0.950 . S
C1418 C1419 1.327 . S
C1419 H1413 0.950 . S
C1419 C1418 1.327 . S
C1419 C1423 1.429 . S
C1420 C1403 1.574 . S
C1420 H1414 0.949 . S
C1420 C1424 1.368 . S
C1421 C1402 1.429 . S
C1421 C1415 1.429 . S
C1421 C1422 1.523 . S
C1422 C1403 1.368 . S
C1422 C1416 1.368 . S
C1422 C1421 1.523 . S
C1423 C1407 1.429 . S
C1423 C1419 1.429 . S
C1423 C1424 1.523 . S
C1424 C1408 1.368 . S
C1424 C1420 1.368 . S
C1424 C1423 1.523 . S
H1425 C1400 0.950 . S
H1426 C1402 0.950 . S
H1427 C1403 0.949 . S
H1428 C1405 0.950 . S
H1429 C1407 0.950 . S
C1430 C1431 1.349 . S
C1430 C1432 1.327 . S
C1430 H1455 0.950 . S
C1431 C1430 1.349 . S
C1431 C1447 1.349 . S
C1432 C1430 1.327 . S
C1432 C1451 1.429 . S
C1432 H1456 0.950 . S
C1433 C1450 1.574 . S
C1433 C1452 1.368 . S
C1433 H1457 0.949 . S
H1434 C1438 0.949 . S
C1435 C1436 1.349 . S
C1435 C1437 1.327 . S
C1435 H1458 0.950 . S
C1436 C1435 1.349 . S
C1436 C1448 1.349 . S
C1437 C1435 1.327 . S
C1437 C1453 1.429 . S
C1437 H1459 0.950 . S
C1438 H1434 0.949 . S
C1438 C1446 1.574 . S
C1438 C1454 1.368 . S
H1439 C1447 0.950 . S
H1440 C1445 0.950 . S
H1441 C1446 0.949 . S
H1442 C1448 0.950 . S
H1443 C1449 0.950 . S
H1444 C1450 0.949 . S
C1445 H1440 0.950 . S
C1445 C1447 1.327 . S
C1445 C1451 1.429 . S
C1446 C1438 1.574 . S
C1446 H1441 0.949 . S
C1446 C1452 1.368 . S
C1447 C1431 1.349 . S
C1447 H1439 0.950 . S
C1447 C1445 1.327 . S
C1448 C1436 1.349 . S
C1448 H1442 0.950 . S
C1448 C1449 1.327 . S
C1449 H1443 0.950 . S
C1449 C1448 1.327 . S
C1449 C1453 1.429 . S
C1450 C1433 1.574 . S
C1450 H1444 0.949 . S
C1450 C1454 1.368 . S
C1451 C1432 1.429 . S
C1451 C1445 1.429 . S
C1451 C1452 1.523 . S
C1452 C1433 1.368 . S
C1452 C1446 1.368 . S
C1452 C1451 1.523 . S
C1453 C1437 1.429 . S
C1453 C1449 1.429 . S
C1453 C1454 1.523 . S
C1454 C1438 1.368 . S
C1454 C1450 1.368 . S
C1454 C1453 1.523 . S
H1455 C1430 0.950 . S
H1456 C1432 0.950 . S
H1457 C1433 0.949 . S
H1458 C1435 0.950 . S
H1459 C1437 0.950 . S
C1460 C1461 1.349 . S
C1460 C1462 1.327 . S
C1460 H1485 0.950 . S
C1461 C1460 1.349 . S
C1461 C1477 1.349 . S
C1462 C1460 1.327 . S
C1462 C1481 1.429 . S
C1462 H1486 0.950 . S
C1463 C1480 1.574 . S
C1463 C1482 1.368 . S
C1463 H1487 0.949 . S
H1464 C1468 0.949 . S
C1465 C1466 1.349 . S
C1465 C1467 1.327 . S
C1465 H1488 0.950 . S
C1466 C1465 1.349 . S
C1466 C1478 1.349 . S
C1467 C1465 1.327 . S
C1467 C1483 1.429 . S
C1467 H1489 0.950 . S
C1468 H1464 0.949 . S
C1468 C1476 1.574 . S
C1468 C1484 1.368 . S
H1469 C1477 0.950 . S
H1470 C1475 0.950 . S
H1471 C1476 0.949 . S
H1472 C1478 0.950 . S
H1473 C1479 0.950 . S
H1474 C1480 0.949 . S
C1475 H1470 0.950 . S
C1475 C1477 1.327 . S
C1475 C1481 1.429 . S
C1476 C1468 1.574 . S
C1476 H1471 0.949 . S
C1476 C1482 1.368 . S
C1477 C1461 1.349 . S
C1477 H1469 0.950 . S
C1477 C1475 1.327 . S
C1478 C1466 1.349 . S
C1478 H1472 0.950 . S
C1478 C1479 1.327 . S
C1479 H1473 0.950 . S
C1479 C1478 1.327 . S
C1479 C1483 1.429 . S
C1480 C1463 1.574 . S
C1480 H1474 0.949 . S
C1480 C1484 1.368 . S
C1481 C1462 1.429 . S
C1481 C1475 1.429 . S
C1481 C1482 1.523 . S
C1482 C1463 1.368 . S
C1482 C1476 1.368 . S
C1482 C1481 1.523 . S
C1483 C1467 1.429 . S
C1483 C1479 1.429 . S
C1483 C1484 1.523 . S
C1484 C1468 1.368 . S
C1484 C1480 1.368 . S
C1484 C1483 1.523 . S
H1485 C1460 0.950 . S
H1486 C1462 0.950 . S
H1487 C1463 0.949 . S
H1488 C1465 0.950 . S
H1489 C1467 0.950 . S
C1490 C1491 1.349 . S
C1490 C1492 1.327 . S
C1490 H1515 0.950 . S
C1491 C1490 1.349 . S
C1491 C1507 1.349 . S
C1492 C1490 1.327 . S
C1492 C1511 1.429 . S
C1492 H1516 0.950 . S
C1493 C1510 1.574 . S
C1493 C1512 1.368 . S
C1493 H1517 0.949 . S
H1494 C1498 0.949 . S
C1495 C1496 1.349 . S
C1495 C1497 1.327 . S
C1495 H1518 0.950 . S
C1496 C1495 1.349 . S
C1496 C1508 1.349 . S
C1497 C1495 1.327 . S
C1497 C1513 1.429 . S
C1497 H1519 0.950 . S
C1498 H1494 0.949 . S
C1498 C1506 1.574 . S
C1498 C1514 1.368 . S
H1499 C1507 0.950 . S
H1500 C1505 0.950 . S
H1501 C1506 0.949 . S
H1502 C1508 0.950 . S
H1503 C1509 0.950 . S
H1504 C1510 0.949 . S
C1505 H1500 0.950 . S
C1505 C1507 1.327 . S
C1505 C1511 1.429 . S
C1506 C1498 1.574 . S
C1506 H1501 0.949 . S
C1506 C1512 1.368 . S
C1507 C1491 1.349 . S
C1507 H1499 0.950 . S
C1507 C1505 1.327 . S
C1508 C1496 1.349 . S
C1508 H1502 0.950 . S
C1508 C1509 1.327 . S
C1509 H1503 0.950 . S
C1509 C1508 1.327 . S
C1509 C1513 1.429 . S
C1510 C1493 1.574 . S
C1510 H1504 0.949 . S
C1510 C1514 1.368 . S
C1511 C1492 1.429 . S
C1511 C1505 1.429 . S
C1511 C1512 1.523 . S
C1512 C1493 1.368 . S
C1512 C1506 1.368 . S
C1512 C1511 1.523 . S
C1513 C1497 1.429 . S
C1513 C1509 1.429 . S
C1513 C1514 1.523 . S
C1514 C1498 1.368 . S
C1514 C1510 1.368 . S
C1514 C1513 1.523 . S
H1515 C1490 0.950 . S
H1516 C1492 0.950 . S
H1517 C1493 0.949 . S
H1518 C1495 0.950 . S
H1519 C1497 0.950 . S
C1520 C1521 1.349 . S
C1520 C1522 1.327 . S
C1520 H1545 0.950 . S
C1521 C1520 1.349 . S
C1521 C1537 1.349 . S
C1522 C1520 1.327 . S
C1522 C1541 1.429 . S
C1522 H1546 0.950 . S
C1523 C1540 1.574 . S
C1523 C1542 1.368 . S
C1523 H1547 0.949 . S
H1524 C1528 0.949 . S
C1525 C1526 1.349 . S
C1525 C1527 1.327 . S
C1525 H1548 0.950 . S
C1526 C1525 1.349 . S
C1526 C1538 1.349 . S
C1527 C1525 1.327 . S
C1527 C1543 1.429 . S
C1527 H1549 0.950 . S
C1528 H1524 0.949 . S
C1528 C1536 1.574 . S
C1528 C1544 1.368 . S
H1529 C1537 0.950 . S
H1530 C1535 0.950 . S
H1531 C1536 0.949 . S
H1532 C1538 0.950 . S
H1533 C1539 0.950 . S
H1534 C1540 0.949 . S
C1535 H1530 0.950 . S
C1535 C1537 1.327 . S
C1535 C1541 1.429 . S
C1536 C1528 1.574 . S
C1536 H1531 0.949 . S
C1536 C1542 1.368 . S
C1537 C1521 1.349 . S
C1537 H1529 0.950 . S
C1537 C1535 1.327 . S
C1538 C1526 1.349 . S
C1538 H1532 0.950 . S
C1538 C1539 1.327 . S
C1539 H1533 0.950 . S
C1539 C1538 1.327 . S
C1539 C1543 1.429 . S
C1540 C1523 1.574 . S
C1540 H1534 0.949 . S
C1540 C1544 1.368 . S
C1541 C1522 1.429 . S
C1541 C1535 1.429 . S
C1541 C1542 1.523 . S
C1542 C1523 1.368 . S
C1542 C1536 1.368 . S
C1542 C1541 1.523 . S
C1543 C1527 1.429 . S
C1543 C1539 1.429 . S
C1543 C1544 1.523 . S
C1544 C1528 1.368 . S
C1544 C1540 1.368 . S
C1544 C1543 1.523 . S
H1545 C1520 0.950 . S
H1546 C1522 0.950 . S
H1547 C1523 0.949 . S
H1548 C1525 0.950 . S
H1549 C1527 0.950 . S
C1550 C1551 1.349 . S
C1550 C1552 1.327 . S
C1550 H1575 0.950 . S
C1551 C1550 1.349 . S
C1551 C1567 1.349 . S
C1552 C1550 1.327 . S
C1552 C1571 1.429 . S
C1552 H1576 0.950 . S
C1553 C1570 1.574 . S
C1553 C1572 1.368 . S
C1553 H1577 0.949 . S
H1554 C1558 0.949 . S
C1555 C1556 1.349 . S
C1555 C1557 1.327 . S
C1555 H1578 0.950 . S
C1556 C1555 1.349 . S
C1556 C1568 1.349 . S
C1557 C1555 1.327 . S
C1557 C1573 1.429 . S
C1557 H1579 0.950 . S
C1558 H1554 0.949 . S
C1558 C1566 1.574 . S
C1558 C1574 1.368 . S
H1559 C1567 0.950 . S
H1560 C1565 0.950 . S
H1561 C1566 0.949 . S
H1562 C1568 0.950 . S
H1563 C1569 0.950 . S
H1564 C1570 0.949 . S
C1565 H1560 0.950 . S
C1565 C1567 1.327 . S
C1565 C1571 1.429 . S
C1566 C1558 1.574 . S
C1566 H1561 0.949 . S
C1566 C1572 1.368 . S
C1567 C1551 1.349 . S
C1567 H1559 0.950 . S
C1567 C1565 1.327 . S
C1568 C1556 1.349 . S
C1568 H1562 0.950 . S
C1568 C1569 1.327 . S
C1569 H1563 0.950 . S
C1569 C1568 1.327 . S
C1569 C1573 1.429 . S
C1570 C1553 1.574 . S
C1570 H1564 0.949 . S
C1570 C1574 1.368 . S
C1571 C1552 1.429 . S
C1571 C1565 1.429 . S
C1571 C1572 1.523 . S
C1572 C1553 1.368 . S
C1572 C1566 1.368 . S
C1572 C1571 1.523 . S
C1573 C1557 1.429 . S
C1573 C1569 1.429 . S
C1573 C1574 1.523 . S
C1574 C1558 1.368 . S
C1574 C1570 1.368 . S
C1574 C1573 1.523 . S
H1575 C1550 0.950 . S
H1576 C1552 0.950 . S
H1577 C1553 0.949 . S
H1578 C1555 0.950 . S
H1579 C1557 0.950 . S
C1580 C1581 1.349 . S
C1580 C1582 1.327 . S
C1580 H1605 0.950 . S
C1581 C1580 1.349 . S
C1581 C1597 1.349 . S
C1582 C1580 1.327 . S
C1582 C1601 1.429 . S
C1582 H1606 0.950 . S
C1583 C1600 1.574 . S
C1583 C1602 1.368 . S
C1583 H1607 0.949 . S
H1584 C1588 0.949 . S
C1585 C1586 1.349 . S
C1585 C1587 1.327 . S
C1585 H1608 0.950 . S
C1586 C1585 1.349 . S
C1586 C1598 1.349 . S
C1587 C1585 1.327 . S
C1587 C1603 1.429 . S
C1587 H1609 0.950 . S
C1588 H1584 0.949 . S
C1588 C1596 1.574 . S
C1588 C1604 1.368 . S
H1589 C1597 0.950 . S
H1590 C1595 0.950 . S
H1591 C1596 0.949 . S
H1592 C1598 0.950 . S
H1593 C1599 0.950 . S
H1594 C1600 0.949 . S
C1595 H1590 0.950 . S
C1595 C1597 1.327 . S
C1595 C1601 1.429 . S
C1596 C1588 1.574 . S
C1596 H1591 0.949 . S
C1596 C1602 1.368 . S
C1597 C1581 1.349 . S
C1597 H1589 0.950 . S
C1597 C1595 1.327 . S
C1598 C1586 1.349 . S
C1598 H1592 0.950 . S
C1598 C1599 1.327 . S
C1599 H1593 0.950 . S
C1599 C1598 1.327 . S
C1599 C1603 1.429 . S
C1600 C1583 1.574 . S
C1600 H1594 0.949 . S
C1600 C1604 1.368 . S
C1601 C1582 1.429 . S
C1601 C1595 1.429 . S
C1601 C1602 1.523 . S
C1602 C1583 1.368 . S
C1602 C1596 1.368 . S
C1602 C1601 1.523 . S
C1603 C1587 1.429 . S
C1603 C1599 1.429 . S
C1603 C1604 1.523 . S
C1604 C1588 1.368 . S
C1604 C1600 1.368 . S
C1604 C1603 1.523 . S
H1605 C1580 0.950 . S
H1606 C1582 0.950 . S
H1607 C1583 0.949 . S
H1608 C1585 0.950 . S
H1609 C1587 0.950 . S
C1610 C1611 1.349 . S
C1610 C1612 1.327 . S
C1610 H1635 0.950 . S
C1611 C1610 1.349 . S
C1611 C1627 1.349 . S
C1612 C1610 1.327 . S
C1612 C1631 1.429 . S
C1612 H1636 0.950 . S
C1613 C1630 1.574 . S
C1613 C1632 1.368 . S
C1613 H1637 0.949 . S
H1614 C1618 0.949 . S
C1615 C1616 1.349 . S
C1615 C1617 1.327 . S
C1615 H1638 0.950 . S
C1616 C1615 1.349 . S
C1616 C1628 1.349 . S
C1617 C1615 1.327 . S
C1617 C1633 1.429 . S
C1617 H1639 0.950 . S
C1618 H1614 0.949 . S
C1618 C1626 1.574 . S
C1618 C1634 1.368 . S
H1619 C1627 0.950 . S
H1620 C1625 0.950 . S
H1621 C1626 0.949 . S
H1622 C1628 0.950 . S
H1623 C1629 0.950 . S
H1624 C1630 0.949 . S
C1625 H1620 0.950 . S
C1625 C1627 1.327 . S
C1625 C1631 1.429 . S
C1626 C1618 1.574 . S
C1626 H1621 0.949 . S
C1626 C1632 1.368 . S
C1627 C1611 1.349 . S
C1627 H1619 0.950 . S
C1627 C1625 1.327 . S
C1628 C1616 1.349 . S
C1628 H1622 0.950 . S
C1628 C1629 1.327 . S
C1629 H1623 0.950 . S
C1629 C1628 1.327 . S
C1629 C1633 1.429 . S
C1630 C1613 1.574 . S
C1630 H1624 0.949 . S
C1630 C1634 1.368 . S
C1631 C1612 1.429 . S
C1631 C1625 1.429 . S
C1631 C1632 1.523 . S
C1632 C1613 1.368 . S
C1632 C1626 1.368 . S
C1632 C1631 1.523 . S
C1633 C1617 1.429 . S
C1633 C1629 1.429 . S
C1633 C1634 1.523 . S
C1634 C1618 1.368 . S
C1634 C1630 1.368 . S
C1634 C1633 1.523 . S
H1635 C1610 0.950 . S
H1636 C1612 0.950 . S
H1637 C1613 0.949 . S
H1638 C1615 0.950 . S
H1639 C1617 0.950 . S
C1640 C1641 1.349 . S
C1640 C1642 1.327 . S
C1640 H1665 0.950 . S
C1641 C1640 1.349 . S
C1641 C1657 1.349 . S
C1642 C1640 1.327 . S
C1642 C1661 1.429 . S
C1642 H1666 0.950 . S
C1643 C1660 1.574 . S
C1643 C1662 1.368 . S
C1643 H1667 0.949 . S
H1644 C1648 0.949 . S
C1645 C1646 1.349 . S
C1645 C1647 1.327 . S
C1645 H1668 0.950 . S
C1646 C1645 1.349 . S
C1646 C1658 1.349 . S
C1647 C1645 1.327 . S
C1647 C1663 1.429 . S
C1647 H1669 0.950 . S
C1648 H1644 0.949 . S
C1648 C1656 1.574 . S
C1648 C1664 1.368 . S
H1649 C1657 0.950 . S
H1650 C1655 0.950 . S
H1651 C1656 0.949 . S
H1652 C1658 0.950 . S
H1653 C1659 0.950 . S
H1654 C1660 0.949 . S
C1655 H1650 0.950 . S
C1655 C1657 1.327 . S
C1655 C1661 1.429 . S
C1656 C1648 1.574 . S
C1656 H1651 0.949 . S
C1656 C1662 1.368 . S
C1657 C1641 1.349 . S
C1657 H1649 0.950 . S
C1657 C1655 1.327 . S
C1658 C1646 1.349 . S
C1658 H1652 0.950 . S
C1658 C1659 1.327 . S
C1659 H1653 0.950 . S
C1659 C1658 1.327 . S
C1659 C1663 1.429 . S
C1660 C1643 1.574 . S
C1660 H1654 0.949 . S
C1660 C1664 1.368 . S
C1661 C1642 1.429 . S
C1661 C1655 1.429 . S
C1661 C1662 1.523 . S
C1662 C1643 1.368 . S
C1662 C1656 1.368 . S
C1662 C1661 1.523 . S
C1663 C1647 1.429 . S
C1663 C1659 1.429 . S
C1663 C1664 1.523 . S
C1664 C1648 1.368 . S
C1664 C1660 1.368 . S
C1664 C1663 1.523 . S
H1665 C1640 0.950 . S
H1666 C1642 0.950 . S
H1667 C1643 0.949 . S
H1668 C1645 0.950 . S
H1669 C1647 0.950 . S
C1670 C1671 1.349 . S
C1670 C1672 1.327 . S
C1670 H1695 0.950 . S
C1671 C1670 1.349 . S
C1671 C1687 1.349 . S
C1672 C1670 1.327 . S
C1672 C1691 1.429 . S
C1672 H1696 0.950 . S
C1673 C1690 1.574 . S
C1673 C1692 1.368 . S
C1673 H1697 0.949 . S
H1674 C1678 0.949 . S
C1675 C1676 1.349 . S
C1675 C1677 1.327 . S
C1675 H1698 0.950 . S
C1676 C1675 1.349 . S
C1676 C1688 1.349 . S
C1677 C1675 1.327 . S
C1677 C1693 1.429 . S
C1677 H1699 0.950 . S
C1678 H1674 0.949 . S
C1678 C1686 1.574 . S
C1678 C1694 1.368 . S
H1679 C1687 0.950 . S
H1680 C1685 0.950 . S
H1681 C1686 0.949 . S
H1682 C1688 0.950 . S
H1683 C1689 0.950 . S
H1684 C1690 0.949 . S
C1685 H1680 0.950 . S
C1685 C1687 1.327 . S
C1685 C1691 1.429 . S
C1686 C1678 1.574 . S
C1686 H1681 0.949 . S
C1686 C1692 1.368 . S
C1687 C1671 1.349 . S
C1687 H1679 0.950 . S
C1687 C1685 1.327 . S
C1688 C1676 1.349 . S
C1688 H1682 0.950 . S
C1688 C1689 1.327 . S
C1689 H1683 0.950 . S
C1689 C1688 1.327 . S
C1689 C1693 1.429 . S
C1690 C1673 1.574 . S
C1690 H1684 0.949 . S
C1690 C1694 1.368 . S
C1691 C1672 1.429 . S
C1691 C1685 1.429 . S
C1691 C1692 1.523 . S
C1692 C1673 1.368 . S
C1692 C1686 1.368 . S
C1692 C1691 1.523 . S
C1693 C1677 1.429 . S
C1693 C1689 1.429 . S
C1693 C1694 1.523 . S
C1694 C1678 1.368 . S
C1694 C1690 1.368 . S
C1694 C1693 1.523 . S
H1695 C1670 0.950 . S
H1696 C1672 0.950 . S
H1697 C1673 0.949 . S
H1698 C1675 0.950 . S
H1699 C1677 0.950 . S
C1700 C1701 1.349 . S
C1700 C1702 1.327 . S
C1700 H1725 0.950 . S
C1701 C1700 1.349 . S
C1701 C1717 1.349 . S
C1702 C1700 1.327 . S
C1702 C1721 1.429 . S
C1702 H1726 0.950 . S
C1703 C1720 1.574 . S
C1703 C1722 1.368 . S
C1703 H1727 0.949 . S
H1704 C1708 0.949 . S
C1705 C1706 1.349 . S
C1705 C1707 1.327 . S
C1705 H1728 0.950 . S
C1706 C1705 1.349 . S
C1706 C1718 1.349 . S
C1707 C1705 1.327 . S
C1707 C1723 1.429 . S
C1707 H1729 0.950 . S
C1708 H1704 0.949 . S
C1708 C1716 1.574 . S
C1708 C1724 1.368 . S
H1709 C1717 0.950 . S
H1710 C1715 0.950 . S
H1711 C1716 0.949 . S
H1712 C1718 0.950 . S
H1713 C1719 0.950 . S
H1714 C1720 0.949 . S
C1715 H1710 0.950 . S
C1715 C1717 1.327 . S
C1715 C1721 1.429 . S
C1716 C1708 1.574 . S
C1716 H1711 0.949 . S
C1716 C1722 1.368 . S
C1717 C1701 1.349 . S
C1717 H1709 0.950 . S
C1717 C1715 1.327 . S
C1718 C1706 1.349 . S
C1718 H1712 0.950 . S
C1718 C1719 1.327 . S
C1719 H1713 0.950 . S
C1719 C1718 1.327 . S
C1719 C1723 1.429 . S
C1720 C1703 1.574 . S
C1720 H1714 0.949 . S
C1720 C1724 1.368 . S
C1721 C1702 1.429 . S
C1721 C1715 1.429 . S
C1721 C1722 1.523 . S
C1722 C1703 1.368 . S
C1722 C1716 1.368 . S
C1722 C1721 1.523 . S
C1723 C1707 1.429 . S
C1723 C1719 1.429 . S
C1723 C1724 1.523 . S
C1724 C1708 1.368 . S
C1724 C1720 1.368 . S
C1724 C1723 1.523 . S
H1725 C1700 0.950 . S
H1726 C1702 0.950 . S
H1727 C1703 0.949 . S
H1728 C1705 0.950 . S
H1729 C1707 0.950 . S
C1730 C1731 1.349 . S
C1730 C1732 1.327 . S
C1730 H1755 0.950 . S
C1731 C1730 1.349 . S
C1731 C1747 1.349 . S
C1732 C1730 1.327 . S
C1732 C1751 1.429 . S
C1732 H1756 0.950 . S
C1733 C1750 1.574 . S
C1733 C1752 1.368 . S
C1733 H1757 0.949 . S
H1734 C1738 0.949 . S
C1735 C1736 1.349 . S
C1735 C1737 1.327 . S
C1735 H1758 0.950 . S
C1736 C1735 1.349 . S
C1736 C1748 1.349 . S
C1737 C1735 1.327 . S
C1737 C1753 1.429 . S
C1737 H1759 0.950 . S
C1738 H1734 0.949 . S
C1738 C1746 1.574 . S
C1738 C1754 1.368 . S
H1739 C1747 0.950 . S
H1740 C1745 0.950 . S
H1741 C1746 0.949 . S
H1742 C1748 0.950 . S
H1743 C1749 0.950 . S
H1744 C1750 0.949 . S
C1745 H1740 0.950 . S
C1745 C1747 1.327 . S
C1745 C1751 1.429 . S
C1746 C1738 1.574 . S
C1746 H1741 0.949 . S
C1746 C1752 1.368 . S
C1747 C1731 1.349 . S
C1747 H1739 0.950 . S
C1747 C1745 1.327 . S
C1748 C1736 1.349 . S
C1748 H1742 0.950 . S
C1748 C1749 1.327 . S
C1749 H1743 0.950 . S
C1749 C1748 1.327 . S
C1749 C1753 1.429 . S
C1750 C1733 1.574 . S
C1750 H1744 0.949 . S
C1750 C1754 1.368 . S
C1751 C1732 1.429 . S
C1751 C1745 1.429 . S
C1751 C1752 1.523 . S
C1752 C1733 1.368 . S
C1752 C1746 1.368 . S
C1752 C1751 1.523 . S
C1753 C1737 1.429 . S
C1753 C1749 1.429 . S
C1753 C1754 1.523 . S
C1754 C1738 1.368 . S
C1754 C1750 1.368 . S
C1754 C1753 1.523 . S
H1755 C1730 0.950 . S
H1756 C1732 0.950 . S
H1757 C1733 0.949 . S
H1758 C1735 0.950 . S
H1759 C1737 0.950 . S
C1760 C1761 1.349 . S
C1760 C1762 1.327 . S
C1760 H1785 0.950 . S
C1761 C1760 1.349 . S
C1761 C1777 1.349 . S
C1762 C1760 1.327 . S
C1762 C1781 1.429 . S
C1762 H1786 0.950 . S
C1763 C1780 1.574 . S
C1763 C1782 1.368 . S
C1763 H1787 0.949 . S
H1764 C1768 0.949 . S
C1765 C1766 1.349 . S
C1765 C1767 1.327 . S
C1765 H1788 0.950 . S
C1766 C1765 1.349 . S
C1766 C1778 1.349 . S
C1767 C1765 1.327 . S
C1767 C1783 1.429 . S
C1767 H1789 0.950 . S
C1768 H1764 0.949 . S
C1768 C1776 1.574 . S
C1768 C1784 1.368 . S
H1769 C1777 0.950 . S
H1770 C1775 0.950 . S
H1771 C1776 0.949 . S
H1772 C1778 0.950 . S
H1773 C1779 0.950 . S
H1774 C1780 0.949 . S
C1775 H1770 0.950 . S
C1775 C1777 1.327 . S
C1775 C1781 1.429 . S
C1776 C1768 1.574 . S
C1776 H1771 0.949 . S
C1776 C1782 1.368 . S
C1777 C1761 1.349 . S
C1777 H1769 0.950 . S
C1777 C1775 1.327 . S
C1778 C1766 1.349 . S
C1778 H1772 0.950 . S
C1778 C1779 1.327 . S
C1779 H1773 0.950 . S
C1779 C1778 1.327 . S
C1779 C1783 1.429 . S
C1780 C1763 1.574 . S
C1780 H1774 0.949 . S
C1780 C1784 1.368 . S
C1781 C1762 1.429 . S
C1781 C1775 1.429 . S
C1781 C1782 1.523 . S
C1782 C1763 1.368 . S
C1782 C1776 1.368 . S
C1782 C1781 1.523 . S
C1783 C1767 1.429 . S
C1783 C1779 1.429 . S
C1783 C1784 1.523 . S
C1784 C1768 1.368 . S
C1784 C1780 1.368 . S
C1784 C1783 1.523 . S
H1785 C1760 0.950 . S
H1786 C1762 0.950 . S
H1787 C1763 0.949 . S
H1788 C1765 0.950 . S
H1789 C1767 0.950 . S
C1790 C1791 1.349 . S
C1790 C1792 1.327 . S
C1790 H1815 0.950 . S
C1791 C1790 1.349 . S
C1791 C1807 1.349 . S
C1792 C1790 1.327 . S
C1792 C1811 1.429 . S
C1792 H1816 0.950 . S
C1793 C1810 1.574 . S
C1793 C1812 1.368 . S
C1793 H1817 0.949 . S
H1794 C1798 0.949 . S
C1795 C1796 1.349 . S
C1795 C1797 1.327 . S
C1795 H1818 0.950 . S
C1796 C1795 1.349 . S
C1796 C1808 1.349 . S
C1797 C1795 1.327 . S
C1797 C1813 1.429 . S
C1797 H1819 0.950 . S
C1798 H1794 0.949 . S
C1798 C1806 1.574 . S
C1798 C1814 1.368 . S
H1799 C1807 0.950 . S
H1800 C1805 0.950 . S
H1801 C1806 0.949 . S
H1802 C1808 0.950 . S
H1803 C1809 0.950 . S
H1804 C1810 0.949 . S
C1805 H1800 0.950 . S
C1805 C1807 1.327 . S
C1805 C1811 1.429 . S
C1806 C1798 1.574 . S
C1806 H1801 0.949 . S
C1806 C1812 1.368 . S
C1807 C1791 1.349 . S
C1807 H1799 0.950 . S
C1807 C1805 1.327 . S
C1808 C1796 1.349 . S
C1808 H1802 0.950 . S
C1808 C1809 1.327 . S
C1809 H1803 0.950 . S
C1809 C1808 1.327 . S
C1809 C1813 1.429 . S
C1810 C1793 1.574 . S
C1810 H1804 0.949 . S
C1810 C1814 1.368 . S
C1811 C1792 1.429 . S
C1811 C1805 1.429 . S
C1811 C1812 1.523 . S
C1812 C1793 1.368 . S
C1812 C1806 1.368 . S
C1812 C1811 1.523 . S
C1813 C1797 1.429 . S
C1813 C1809 1.429 . S
C1813 C1814 1.523 . S
C1814 C1798 1.368 . S
C1814 C1810 1.368 . S
C1814 C1813 1.523 . S
H1815 C1790 0.950 . S
H1816 C1792 0.950 . S
H1817 C1793 0.949 . S
H1818 C1795 0.950 . S
H1819 C1797 0.950 . S
C1820 C1821 1.349 . S
C1820 C1822 1.327 . S
C1820 H1845 0.950 . S
C1821 C1820 1.349 . S
C1821 C1837 1.349 . S
C1822 C1820 1.327 . S
C1822 C1841 1.429 . S
C1822 H1846 0.950 . S
C1823 C1840 1.574 . S
C1823 C1842 1.368 . S
C1823 H1847 0.949 . S
H1824 C1828 0.949 . S
C1825 C1826 1.349 . S
C1825 C1827 1.327 . S
C1825 H1848 0.950 . S
C1826 C1825 1.349 . S
C1826 C1838 1.349 . S
C1827 C1825 1.327 . S
C1827 C1843 1.429 . S
C1827 H1849 0.950 . S
C1828 H1824 0.949 . S
C1828 C1836 1.574 . S
C1828 C1844 1.368 . S
H1829 C1837 0.950 . S
H1830 C1835 0.950 . S
H1831 C1836 0.949 . S
H1832 C1838 0.950 . S
H1833 C1839 0.950 . S
H1834 C1840 0.949 . S
C1835 H1830 0.950 . S
C1835 C1837 1.327 . S
C1835 C1841 1.429 . S
C1836 C1828 1.574 . S
C1836 H1831 0.949 . S
C1836 C1842 1.368 . S
C1837 C1821 1.349 . S
C1837 H1829 0.950 . S
C1837 C1835 1.327 . S
C1838 C1826 1.349 . S
C1838 H1832 0.950 . S
C1838 C1839 1.327 . S
C1839 H1833 0.950 . S
C1839 C1838 1.327 . S
C1839 C1843 1.429 . S
C1840 C1823 1.574 . S
C1840 H1834 0.949 . S
C1840 C1844 1.368 . S
C1841 C1822 1.429 . S
C1841 C1835 1.429 . S
C1841 C1842 1.523 . S
C1842 C1823 1.368 . S
C1842 C1836 1.368 . S
C1842 C1841 1.523 . S
C1843 C1827 1.429 . S
C1843 C1839 1.429 . S
C1843 C1844 1.523 . S
C1844 C1828 1.368 . S
C1844 C1840 1.368 . S
C1844 C1843 1.523 . S
H1845 C1820 0.950 . S
H1846 C1822 0.950 . S
H1847 C1823 0.949 . S
H1848 C1825 0.950 . S
H1849 C1827 0.950 . S
C1850 C1851 1.349 . S
C1850 C1852 1.327 . S
C1850 H1875 0.950 . S
C1851 C1850 1.349 . S
C1851 C1867 1.349 . S
C1852 C1850 1.327 . S
C1852 C1871 1.429 . S
C1852 H1876 0.950 . S
C1853 C1870 1.574 . S
C1853 C1872 1.368 . S
C1853 H1877 0.949 . S
H1854 C1858 0.949 . S
C1855 C1856 1.349 . S
C1855 C1857 1.327 . S
C1855 H1878 0.950 . S
C1856 C1855 1.349 . S
C1856 C1868 1.349 . S
C1857 C1855 1.327 . S
C1857 C1873 1.429 . S
C1857 H1879 0.950 . S
C1858 H1854 0.949 . S
C1858 C1866 1.574 . S
C1858 C1874 1.368 . S
H1859 C1867 0.950 . S
H1860 C1865 0.950 . S
H1861 C1866 0.949 . S
H1862 C1868 0.950 . S
H1863 C1869 0.950 . S
H1864 C1870 0.949 . S
C1865 H1860 0.950 . S
C1865 C1867 1.327 . S
C1865 C1871 1.429 . S
C1866 C1858 1.574 . S
C1866 H1861 0.949 . S
C1866 C1872 1.368 . S
C1867 C1851 1.349 . S
C1867 H1859 0.950 . S
C1867 C1865 1.327 . S
C1868 C1856 1.349 . S
C1868 H1862 0.950 . S
C1868 C1869 1.327 . S
C1869 H1863 0.950 . S
C1869 C1868 1.327 . S
C1869 C1873 1.429 . S
C1870 C1853 1.574 . S
C1870 H1864 0.949 . S
C1870 C1874 1.368 . S
C1871 C1852 1.429 . S
C1871 C1865 1.429 . S
C1871 C1872 1.523 . S
C1872 C1853 1.368 . S
C1872 C1866 1.368 . S
C1872 C1871 1.523 . S
C1873 C1857 1.429 . S
C1873 C1869 1.429 . S
C1873 C1874 1.523 . S
C1874 C1858 1.368 . S
C1874 C1870 1.368 . S
C1874 C1873 1.523 . S
H1875 C1850 0.950 . S
H1876 C1852 0.950 . S
H1877 C1853 0.949 . S
H1878 C1855 0.950 . S
H1879 C1857 0.950 . S
C1880 C1881 1.349 . S
C1880 C1882 1.327 . S
C1880 H1905 0.950 . S
C1881 C1880 1.349 . S
C1881 C1897 1.349 1_565 S
C1882 C1880 1.327 . S
C1882 C1901 1.429 . S
C1882 H1906 0.950 . S
C1883 C1900 1.574 . S
C1883 C1902 1.368 1_545 S
C1883 H1907 0.949 . S
H1884 C1888 0.949 . S
C1885 C1886 1.349 1_545 S
C1885 C1887 1.327 . S
C1885 H1908 0.950 . S
C1886 C1885 1.349 1_565 S
C1886 C1898 1.349 . S
C1887 C1885 1.327 . S
C1887 C1903 1.429 1_545 S
C1887 H1909 0.950 . S
C1888 H1884 0.949 . S
C1888 C1896 1.574 . S
C1888 C1904 1.368 . S
H1889 C1897 0.950 . S
H1890 C1895 0.950 . S
H1891 C1896 0.949 . S
H1892 C1898 0.950 . S
H1893 C1899 0.950 . S
H1894 C1900 0.949 . S
C1895 H1890 0.950 . S
C1895 C1897 1.327 . S
C1895 C1901 1.429 1_545 S
C1896 C1888 1.574 . S
C1896 H1891 0.949 . S
C1896 C1902 1.368 . S
C1897 C1881 1.349 1_545 S
C1897 H1889 0.950 . S
C1897 C1895 1.327 . S
C1898 C1886 1.349 . S
C1898 H1892 0.950 . S
C1898 C1899 1.327 . S
C1899 H1893 0.950 . S
C1899 C1898 1.327 . S
C1899 C1903 1.429 . S
C1900 C1883 1.574 . S
C1900 H1894 0.949 . S
C1900 C1904 1.368 1_545 S
C1901 C1882 1.429 . S
C1901 C1895 1.429 1_565 S
C1901 C1902 1.523 . S
C1902 C1883 1.368 1_565 S
C1902 C1896 1.368 . S
C1902 C1901 1.523 . S
C1903 C1887 1.429 1_565 S
C1903 C1899 1.429 . S
C1903 C1904 1.523 . S
C1904 C1888 1.368 . S
C1904 C1900 1.368 1_565 S
C1904 C1903 1.523 . S
H1905 C1880 0.950 . S
H1906 C1882 0.950 . S
H1907 C1883 0.949 . S
H1908 C1885 0.950 . S
H1909 C1887 0.950 . S
C1910 C1911 1.349 . S
C1910 C1912 1.327 . S
C1910 H1935 0.950 . S
C1911 C1910 1.349 . S
C1911 C1927 1.349 . S
C1912 C1910 1.327 . S
C1912 C1931 1.429 . S
C1912 H1936 0.950 . S
C1913 C1930 1.574 . S
C1913 C1932 1.368 . S
C1913 H1937 0.949 . S
H1914 C1918 0.949 . S
C1915 C1916 1.349 . S
C1915 C1917 1.327 . S
C1915 H1938 0.950 . S
C1916 C1915 1.349 . S
C1916 C1928 1.349 . S
C1917 C1915 1.327 . S
C1917 C1933 1.429 . S
C1917 H1939 0.950 . S
C1918 H1914 0.949 . S
C1918 C1926 1.574 . S
C1918 C1934 1.368 . S
H1919 C1927 0.950 . S
H1920 C1925 0.950 . S
H1921 C1926 0.949 . S
H1922 C1928 0.950 . S
H1923 C1929 0.950 . S
H1924 C1930 0.949 . S
C1925 H1920 0.950 . S
C1925 C1927 1.327 . S
C1925 C1931 1.429 . S
C1926 C1918 1.574 . S
C1926 H1921 0.949 . S
C1926 C1932 1.368 . S
C1927 C1911 1.349 . S
C1927 H1919 0.950 . S
C1927 C1925 1.327 . S
C1928 C1916 1.349 . S
C1928 H1922 0.950 . S
C1928 C1929 1.327 . S
C1929 H1923 0.950 . S
C1929 C1928 1.327 . S
C1929 C1933 1.429 . S
C1930 C1913 1.574 . S
C1930 H1924 0.949 . S
C1930 C1934 1.368 . S
C1931 C1912 1.429 . S
C1931 C1925 1.429 . S
C1931 C1932 1.523 . S
C1932 C1913 1.368 . S
C1932 C1926 1.368 . S
C1932 C1931 1.523 . S
C1933 C1917 1.429 . S
C1933 C1929 1.429 . S
C1933 C1934 1.523 . S
C1934 C1918 1.368 . S
C1934 C1930 1.368 . S
C1934 C1933 1.523 . S
H1935 C1910 0.950 . S
H1936 C1912 0.950 . S
H1937 C1913 0.949 . S
H1938 C1915 0.950 . S
H1939 C1917 0.950 . S
C1940 C1941 1.349 1_565 S
C1940 C1942 1.327 . S
C1940 H1965 0.950 . S
C1941 C1940 1.349 1_545 S
C1941 C1957 1.349 . S
C1942 C1940 1.327 . S
C1942 C1961 1.429 1_565 S
C1942 H1966 0.950 . S
C1943 C1960 1.574 . S
C1943 C1962 1.368 . S
C1943 H1967 0.949 . S
H1944 C1948 0.949 . S
C1945 C1946 1.349 . S
C1945 C1947 1.327 . S
C1945 H1968 0.950 . S
C1946 C1945 1.349 . S
C1946 C1958 1.349 1_545 S
C1947 C1945 1.327 . S
C1947 C1963 1.429 . S
C1947 H1969 0.950 . S
C1948 H1944 0.949 . S
C1948 C1956 1.574 . S
C1948 C1964 1.368 1_565 S
H1949 C1957 0.950 . S
H1950 C1955 0.950 . S
H1951 C1956 0.949 . S
H1952 C1958 0.950 . S
H1953 C1959 0.950 . S
H1954 C1960 0.949 . S
C1955 H1950 0.950 . S
C1955 C1957 1.327 . S
C1955 C1961 1.429 . S
C1956 C1948 1.574 . S
C1956 H1951 0.949 . S
C1956 C1962 1.368 1_565 S
C1957 C1941 1.349 . S
C1957 H1949 0.950 . S
C1957 C1955 1.327 . S
C1958 C1946 1.349 1_565 S
C1958 H1952 0.950 . S
C1958 C1959 1.327 . S
C1959 H1953 0.950 . S
C1959 C1958 1.327 . S
C1959 C1963 1.429 1_565 S
C1960 C1943 1.574 . S
C1960 H1954 0.949 . S
C1960 C1964 1.368 . S
C1961 C1942 1.429 1_545 S
C1961 C1955 1.429 . S
C1961 C1962 1.523 . S
C1962 C1943 1.368 . S
C1962 C1956 1.368 1_545 S
C1962 C1961 1.523 . S
C1963 C1947 1.429 . S
C1963 C1959 1.429 1_545 S
C1963 C1964 1.523 . S
C1964 C1948 1.368 1_545 S
C1964 C1960 1.368 . S
C1964 C1963 1.523 . S
H1965 C1940 0.950 . S
H1966 C1942 0.950 . S
H1967 C1943 0.949 . S
H1968 C1945 0.950 . S
H1969 C1947 0.950 . S
C1970 C1971 1.349 . S
C1970 C1972 1.327 . S
C1970 H1995 0.950 . S
C1971 C1970 1.349 . S
C1971 C1987 1.349 . S
C1972 C1970 1.327 . S
C1972 C1991 1.429 . S
C1972 H1996 0.950 . S
C1973 C1990 1.574 . S
C1973 C1992 1.368 . S
C1973 H1997 0.949 . S
H1974 C1978 0.949 . S
C1975 C1976 1.349 . S
C1975 C1977 1.327 . S
C1975 H1998 0.950 . S
C1976 C1975 1.349 . S
C1976 C1988 1.349 . S
C1977 C1975 1.327 . S
C1977 C1993 1.429 . S
C1977 H1999 0.950 . S
C1978 H1974 0.949 . S
C1978 C1986 1.574 . S
C1978 C1994 1.368 . S
H1979 C1987 0.950 . S
H1980 C1985 0.950 . S
H1981 C1986 0.949 . S
H1982 C1988 0.950 . S
H1983 C1989 0.950 . S
H1984 C1990 0.949 . S
C1985 H1980 0.950 . S
C1985 C1987 1.327 . S
C1985 C1991 1.429 . S
C1986 C1978 1.574 . S
C1986 H1981 0.949 . S
C1986 C1992 1.368 . S
C1987 C1971 1.349 . S
C1987 H1979 0.950 . S
C1987 C1985 1.327 . S
C1988 C1976 1.349 . S
C1988 H1982 0.950 . S
C1988 C1989 1.327 . S
C1989 H1983 0.950 . S
C1989 C1988 1.327 . S
C1989 C1993 1.429 . S
C1990 C1973 1.574 . S
C1990 H1984 0.949 . S
C1990 C1994 1.368 . S
C1991 C1972 1.429 . S
C1991 C1985 1.429 . S
C1991 C1992 1.523 . S
C1992 C1973 1.368 . S
C1992 C1986 1.368 . S
C1992 C1991 1.523 . S
C1993 C1977 1.429 . S
C1993 C1989 1.429 . S
C1993 C1994 1.523 . S
C1994 C1978 1.368 . S
C1994 C1990 1.368 . S
C1994 C1993 1.523 . S
H1995 C1970 0.950 . S
H1996 C1972 0.950 . S
H1997 C1973 0.949 . S
H1998 C1975 0.950 . S
H1999 C1977 0.950 . S
C2000 C2001 1.349 . S
C2000 C2002 1.327 . S
C2000 H2025 0.950 . S
C2001 C2000 1.349 . S
C2001 C2017 1.349 . S
C2002 C2000 1.327 . S
C2002 C2021 1.429 . S
C2002 H2026 0.950 . S
C2003 C2020 1.574 . S
C2003 C2022 1.368 . S
C2003 H2027 0.949 . S
H2004 C2008 0.949 . S
C2005 C2006 1.349 . S
C2005 C2007 1.327 . S
C2005 H2028 0.950 . S
C2006 C2005 1.349 . S
C2006 C2018 1.349 . S
C2007 C2005 1.327 . S
C2007 C2023 1.429 . S
C2007 H2029 0.950 . S
C2008 H2004 0.949 . S
C2008 C2016 1.574 . S
C2008 C2024 1.368 . S
H2009 C2017 0.950 . S
H2010 C2015 0.950 . S
H2011 C2016 0.949 . S
H2012 C2018 0.950 . S
H2013 C2019 0.950 . S
H2014 C2020 0.949 . S
C2015 H2010 0.950 . S
C2015 C2017 1.327 . S
C2015 C2021 1.429 . S
C2016 C2008 1.574 . S
C2016 H2011 0.949 . S
C2016 C2022 1.368 . S
C2017 C2001 1.349 . S
C2017 H2009 0.950 . S
C2017 C2015 1.327 . S
C2018 C2006 1.349 . S
C2018 H2012 0.950 . S
C2018 C2019 1.327 . S
C2019 H2013 0.950 . S
C2019 C2018 1.327 . S
C2019 C2023 1.429 . S
C2020 C2003 1.574 . S
C2020 H2014 0.949 . S
C2020 C2024 1.368 . S
C2021 C2002 1.429 . S
C2021 C2015 1.429 . S
C2021 C2022 1.523 . S
C2022 C2003 1.368 . S
C2022 C2016 1.368 . S
C2022 C2021 1.523 . S
C2023 C2007 1.429 . S
C2023 C2019 1.429 . S
C2023 C2024 1.523 . S
C2024 C2008 1.368 . S
C2024 C2020 1.368 . S
C2024 C2023 1.523 . S
H2025 C2000 0.950 . S
H2026 C2002 0.950 . S
H2027 C2003 0.949 . S
H2028 C2005 0.950 . S
H2029 C2007 0.950 . S
C2030 C2031 1.349 . S
C2030 C2032 1.327 . S
C2030 H2055 0.950 . S
C2031 C2030 1.349 . S
C2031 C2047 1.349 . S
C2032 C2030 1.327 . S
C2032 C2051 1.429 . S
C2032 H2056 0.950 . S
C2033 C2050 1.574 . S
C2033 C2052 1.368 . S
C2033 H2057 0.949 . S
H2034 C2038 0.949 . S
C2035 C2036 1.349 . S
C2035 C2037 1.327 . S
C2035 H2058 0.950 . S
C2036 C2035 1.349 . S
C2036 C2048 1.349 . S
C2037 C2035 1.327 . S
C2037 C2053 1.429 . S
C2037 H2059 0.950 . S
C2038 H2034 0.949 . S
C2038 C2046 1.574 . S
C2038 C2054 1.368 . S
H2039 C2047 0.950 . S
H2040 C2045 0.950 . S
H2041 C2046 0.949 . S
H2042 C2048 0.950 . S
H2043 C2049 0.950 . S
H2044 C2050 0.949 . S
C2045 H2040 0.950 . S
C2045 C2047 1.327 . S
C2045 C2051 1.429 . S
C2046 C2038 1.574 . S
C2046 H2041 0.949 . S
C2046 C2052 1.368 . S
C2047 C2031 1.349 . S
C2047 H2039 0.950 . S
C2047 C2045 1.327 . S
C2048 C2036 1.349 . S
C2048 H2042 0.950 . S
C2048 C2049 1.327 . S
C2049 H2043 0.950 . S
C2049 C2048 1.327 . S
C2049 C2053 1.429 . S
C2050 C2033 1.574 . S
C2050 H2044 0.949 . S
C2050 C2054 1.368 . S
C2051 C2032 1.429 . S
C2051 C2045 1.429 . S
C2051 C2052 1.523 . S
C2052 C2033 1.368 . S
C2052 C2046 1.368 . S
C2052 C2051 1.523 . S
C2053 C2037 1.429 . S
C2053 C2049 1.429 . S
C2053 C2054 1.523 . S
C2054 C2038 1.368 . S
C2054 C2050 1.368 . S
C2054 C2053 1.523 . S
H2055 C2030 0.950 . S
H2056 C2032 0.950 . S
H2057 C2033 0.949 . S
H2058 C2035 0.950 . S
H2059 C2037 0.950 . S
C2060 C2061 1.349 . S
C2060 C2062 1.327 . S
C2060 H2085 0.950 . S
C2061 C2060 1.349 . S
C2061 C2077 1.349 . S
C2062 C2060 1.327 . S
C2062 C2081 1.429 . S
C2062 H2086 0.950 . S
C2063 C2080 1.574 . S
C2063 C2082 1.368 . S
C2063 H2087 0.949 . S
H2064 C2068 0.949 . S
C2065 C2066 1.349 . S
C2065 C2067 1.327 . S
C2065 H2088 0.950 . S
C2066 C2065 1.349 . S
C2066 C2078 1.349 . S
C2067 C2065 1.327 . S
C2067 C2083 1.429 . S
C2067 H2089 0.950 . S
C2068 H2064 0.949 . S
C2068 C2076 1.574 . S
C2068 C2084 1.368 . S
H2069 C2077 0.950 . S
H2070 C2075 0.950 . S
H2071 C2076 0.949 . S
H2072 C2078 0.950 . S
H2073 C2079 0.950 . S
H2074 C2080 0.949 . S
C2075 H2070 0.950 . S
C2075 C2077 1.327 . S
C2075 C2081 1.429 . S
C2076 C2068 1.574 . S
C2076 H2071 0.949 . S
C2076 C2082 1.368 . S
C2077 C2061 1.349 . S
C2077 H2069 0.950 . S
C2077 C2075 1.327 . S
C2078 C2066 1.349 . S
C2078 H2072 0.950 . S
C2078 C2079 1.327 . S
C2079 H2073 0.950 . S
C2079 C2078 1.327 . S
C2079 C2083 1.429 . S
C2080 C2063 1.574 . S
C2080 H2074 0.949 . S
C2080 C2084 1.368 . S
C2081 C2062 1.429 . S
C2081 C2075 1.429 . S
C2081 C2082 1.523 . S
C2082 C2063 1.368 . S
C2082 C2076 1.368 . S
C2082 C2081 1.523 . S
C2083 C2067 1.429 . S
C2083 C2079 1.429 . S
C2083 C2084 1.523 . S
C2084 C2068 1.368 . S
C2084 C2080 1.368 . S
C2084 C2083 1.523 . S
H2085 C2060 0.950 . S
H2086 C2062 0.950 . S
H2087 C2063 0.949 . S
H2088 C2065 0.950 . S
H2089 C2067 0.950 . S
C2090 C2091 1.349 . S
C2090 C2092 1.327 . S
C2090 H2115 0.950 . S
C2091 C2090 1.349 . S
C2091 C2107 1.349 . S
C2092 C2090 1.327 . S
C2092 C2111 1.429 . S
C2092 H2116 0.950 . S
C2093 C2110 1.574 . S
C2093 C2112 1.368 . S
C2093 H2117 0.949 . S
H2094 C2098 0.949 . S
C2095 C2096 1.349 . S
C2095 C2097 1.327 . S
C2095 H2118 0.950 . S
C2096 C2095 1.349 . S
C2096 C2108 1.349 . S
C2097 C2095 1.327 . S
C2097 C2113 1.429 . S
C2097 H2119 0.950 . S
C2098 H2094 0.949 . S
C2098 C2106 1.574 . S
C2098 C2114 1.368 . S
H2099 C2107 0.950 . S
H2100 C2105 0.950 . S
H2101 C2106 0.949 . S
H2102 C2108 0.950 . S
H2103 C2109 0.950 . S
H2104 C2110 0.949 . S
C2105 H2100 0.950 . S
C2105 C2107 1.327 . S
C2105 C2111 1.429 . S
C2106 C2098 1.574 . S
C2106 H2101 0.949 . S
C2106 C2112 1.368 . S
C2107 C2091 1.349 . S
C2107 H2099 0.950 . S
C2107 C2105 1.327 . S
C2108 C2096 1.349 . S
C2108 H2102 0.950 . S
C2108 C2109 1.327 . S
C2109 H2103 0.950 . S
C2109 C2108 1.327 . S
C2109 C2113 1.429 . S
C2110 C2093 1.574 . S
C2110 H2104 0.949 . S
C2110 C2114 1.368 . S
C2111 C2092 1.429 . S
C2111 C2105 1.429 . S
C2111 C2112 1.523 . S
C2112 C2093 1.368 . S
C2112 C2106 1.368 . S
C2112 C2111 1.523 . S
C2113 C2097 1.429 . S
C2113 C2109 1.429 . S
C2113 C2114 1.523 . S
C2114 C2098 1.368 . S
C2114 C2110 1.368 . S
C2114 C2113 1.523 . S
H2115 C2090 0.950 . S
H2116 C2092 0.950 . S
H2117 C2093 0.949 . S
H2118 C2095 0.950 . S
H2119 C2097 0.950 . S
C2120 C2121 1.349 . S
C2120 C2122 1.327 . S
C2120 H2145 0.950 . S
C2121 C2120 1.349 . S
C2121 C2137 1.349 1_565 S
C2122 C2120 1.327 . S
C2122 C2141 1.429 . S
C2122 H2146 0.950 . S
C2123 C2140 1.574 . S
C2123 C2142 1.368 1_545 S
C2123 H2147 0.949 . S
H2124 C2128 0.949 . S
C2125 C2126 1.349 1_545 S
C2125 C2127 1.327 . S
C2125 H2148 0.950 . S
C2126 C2125 1.349 1_565 S
C2126 C2138 1.349 . S
C2127 C2125 1.327 . S
C2127 C2143 1.429 1_545 S
C2127 H2149 0.950 . S
C2128 H2124 0.949 . S
C2128 C2136 1.574 . S
C2128 C2144 1.368 . S
H2129 C2137 0.950 . S
H2130 C2135 0.950 . S
H2131 C2136 0.949 . S
H2132 C2138 0.950 . S
H2133 C2139 0.950 . S
H2134 C2140 0.949 . S
C2135 H2130 0.950 . S
C2135 C2137 1.327 . S
C2135 C2141 1.429 1_545 S
C2136 C2128 1.574 . S
C2136 H2131 0.949 . S
C2136 C2142 1.368 . S
C2137 C2121 1.349 1_545 S
C2137 H2129 0.950 . S
C2137 C2135 1.327 . S
C2138 C2126 1.349 . S
C2138 H2132 0.950 . S
C2138 C2139 1.327 . S
C2139 H2133 0.950 . S
C2139 C2138 1.327 . S
C2139 C2143 1.429 . S
C2140 C2123 1.574 . S
C2140 H2134 0.949 . S
C2140 C2144 1.368 1_545 S
C2141 C2122 1.429 . S
C2141 C2135 1.429 1_565 S
C2141 C2142 1.523 . S
C2142 C2123 1.368 1_565 S
C2142 C2136 1.368 . S
C2142 C2141 1.523 . S
C2143 C2127 1.429 1_565 S
C2143 C2139 1.429 . S
C2143 C2144 1.523 . S
C2144 C2128 1.368 . S
C2144 C2140 1.368 1_565 S
C2144 C2143 1.523 . S
H2145 C2120 0.950 . S
H2146 C2122 0.950 . S
H2147 C2123 0.949 . S
H2148 C2125 0.950 . S
H2149 C2127 0.950 . S
C2150 C2151 1.349 . S
C2150 C2152 1.327 . S
C2150 H2175 0.950 . S
C2151 C2150 1.349 . S
C2151 C2167 1.349 . S
C2152 C2150 1.327 . S
C2152 C2171 1.429 . S
C2152 H2176 0.950 . S
C2153 C2170 1.574 . S
C2153 C2172 1.368 . S
C2153 H2177 0.949 . S
H2154 C2158 0.949 . S
C2155 C2156 1.349 . S
C2155 C2157 1.327 . S
C2155 H2178 0.950 . S
C2156 C2155 1.349 . S
C2156 C2168 1.349 . S
C2157 C2155 1.327 . S
C2157 C2173 1.429 . S
C2157 H2179 0.950 . S
C2158 H2154 0.949 . S
C2158 C2166 1.574 . S
C2158 C2174 1.368 . S
H2159 C2167 0.950 . S
H2160 C2165 0.950 . S
H2161 C2166 0.949 . S
H2162 C2168 0.950 . S
H2163 C2169 0.950 . S
H2164 C2170 0.949 . S
C2165 H2160 0.950 . S
C2165 C2167 1.327 . S
C2165 C2171 1.429 . S
C2166 C2158 1.574 . S
C2166 H2161 0.949 . S
C2166 C2172 1.368 . S
C2167 C2151 1.349 . S
C2167 H2159 0.950 . S
C2167 C2165 1.327 . S
C2168 C2156 1.349 . S
C2168 H2162 0.950 . S
C2168 C2169 1.327 . S
C2169 H2163 0.950 . S
C2169 C2168 1.327 . S
C2169 C2173 1.429 . S
C2170 C2153 1.574 . S
C2170 H2164 0.949 . S
C2170 C2174 1.368 . S
C2171 C2152 1.429 . S
C2171 C2165 1.429 . S
C2171 C2172 1.523 . S
C2172 C2153 1.368 . S
C2172 C2166 1.368 . S
C2172 C2171 1.523 . S
C2173 C2157 1.429 . S
C2173 C2169 1.429 . S
C2173 C2174 1.523 . S
C2174 C2158 1.368 . S
C2174 C2170 1.368 . S
C2174 C2173 1.523 . S
H2175 C2150 0.950 . S
H2176 C2152 0.950 . S
H2177 C2153 0.949 . S
H2178 C2155 0.950 . S
H2179 C2157 0.950 . S
C2180 C2181 1.349 . S
C2180 C2182 1.327 . S
C2180 H2205 0.950 . S
C2181 C2180 1.349 . S
C2181 C2197 1.349 1_545 S
C2182 C2180 1.327 . S
C2182 C2201 1.429 . S
C2182 H2206 0.950 . S
C2183 C2200 1.574 . S
C2183 C2202 1.368 1_565 S
C2183 H2207 0.949 . S
H2184 C2188 0.949 . S
C2185 C2186 1.349 1_565 S
C2185 C2187 1.327 . S
C2185 H2208 0.950 . S
C2186 C2185 1.349 1_545 S
C2186 C2198 1.349 . S
C2187 C2185 1.327 . S
C2187 C2203 1.429 1_565 S
C2187 H2209 0.950 . S
C2188 H2184 0.949 . S
C2188 C2196 1.574 . S
C2188 C2204 1.368 . S
H2189 C2197 0.950 . S
H2190 C2195 0.950 . S
H2191 C2196 0.949 . S
H2192 C2198 0.950 . S
H2193 C2199 0.950 . S
H2194 C2200 0.949 . S
C2195 H2190 0.950 . S
C2195 C2197 1.327 . S
C2195 C2201 1.429 1_565 S
C2196 C2188 1.574 . S
C2196 H2191 0.949 . S
C2196 C2202 1.368 . S
C2197 C2181 1.349 1_565 S
C2197 H2189 0.950 . S
C2197 C2195 1.327 . S
C2198 C2186 1.349 . S
C2198 H2192 0.950 . S
C2198 C2199 1.327 . S
C2199 H2193 0.950 . S
C2199 C2198 1.327 . S
C2199 C2203 1.429 . S
C2200 C2183 1.574 . S
C2200 H2194 0.949 . S
C2200 C2204 1.368 1_565 S
C2201 C2182 1.429 . S
C2201 C2195 1.429 1_545 S
C2201 C2202 1.523 . S
C2202 C2183 1.368 1_545 S
C2202 C2196 1.368 . S
C2202 C2201 1.523 . S
C2203 C2187 1.429 1_545 S
C2203 C2199 1.429 . S
C2203 C2204 1.523 . S
C2204 C2188 1.368 . S
C2204 C2200 1.368 1_545 S
C2204 C2203 1.523 . S
H2205 C2180 0.950 . S
H2206 C2182 0.950 . S
H2207 C2183 0.949 . S
H2208 C2185 0.950 . S
H2209 C2187 0.950 . S
C2210 C2211 1.349 . S
C2210 C2212 1.327 . S
C2210 H2235 0.950 . S
C2211 C2210 1.349 . S
C2211 C2227 1.349 . S
C2212 C2210 1.327 . S
C2212 C2231 1.429 . S
C2212 H2236 0.950 . S
C2213 C2230 1.574 . S
C2213 C2232 1.368 . S
C2213 H2237 0.949 . S
H2214 C2218 0.949 . S
C2215 C2216 1.349 . S
C2215 C2217 1.327 . S
C2215 H2238 0.950 . S
C2216 C2215 1.349 . S
C2216 C2228 1.349 . S
C2217 C2215 1.327 . S
C2217 C2233 1.429 . S
C2217 H2239 0.950 . S
C2218 H2214 0.949 . S
C2218 C2226 1.574 . S
C2218 C2234 1.368 . S
H2219 C2227 0.950 . S
H2220 C2225 0.950 . S
H2221 C2226 0.949 . S
H2222 C2228 0.950 . S
H2223 C2229 0.950 . S
H2224 C2230 0.949 . S
C2225 H2220 0.950 . S
C2225 C2227 1.327 . S
C2225 C2231 1.429 . S
C2226 C2218 1.574 . S
C2226 H2221 0.949 . S
C2226 C2232 1.368 . S
C2227 C2211 1.349 . S
C2227 H2219 0.950 . S
C2227 C2225 1.327 . S
C2228 C2216 1.349 . S
C2228 H2222 0.950 . S
C2228 C2229 1.327 . S
C2229 H2223 0.950 . S
C2229 C2228 1.327 . S
C2229 C2233 1.429 . S
C2230 C2213 1.574 . S
C2230 H2224 0.949 . S
C2230 C2234 1.368 . S
C2231 C2212 1.429 . S
C2231 C2225 1.429 . S
C2231 C2232 1.523 . S
C2232 C2213 1.368 . S
C2232 C2226 1.368 . S
C2232 C2231 1.523 . S
C2233 C2217 1.429 . S
C2233 C2229 1.429 . S
C2233 C2234 1.523 . S
C2234 C2218 1.368 . S
C2234 C2230 1.368 . S
C2234 C2233 1.523 . S
H2235 C2210 0.950 . S
H2236 C2212 0.950 . S
H2237 C2213 0.949 . S
H2238 C2215 0.950 . S
H2239 C2217 0.950 . S
C2240 C2241 1.349 . S
C2240 C2242 1.327 . S
C2240 H2265 0.950 . S
C2241 C2240 1.349 . S
C2241 C2257 1.349 . S
C2242 C2240 1.327 . S
C2242 C2261 1.429 . S
C2242 H2266 0.950 . S
C2243 C2260 1.574 . S
C2243 C2262 1.368 . S
C2243 H2267 0.949 . S
H2244 C2248 0.949 . S
C2245 C2246 1.349 . S
C2245 C2247 1.327 . S
C2245 H2268 0.950 . S
C2246 C2245 1.349 . S
C2246 C2258 1.349 . S
C2247 C2245 1.327 . S
C2247 C2263 1.429 . S
C2247 H2269 0.950 . S
C2248 H2244 0.949 . S
C2248 C2256 1.574 . S
C2248 C2264 1.368 . S
H2249 C2257 0.950 . S
H2250 C2255 0.950 . S
H2251 C2256 0.949 . S
H2252 C2258 0.950 . S
H2253 C2259 0.950 . S
H2254 C2260 0.949 . S
C2255 H2250 0.950 . S
C2255 C2257 1.327 . S
C2255 C2261 1.429 . S
C2256 C2248 1.574 . S
C2256 H2251 0.949 . S
C2256 C2262 1.368 . S
C2257 C2241 1.349 . S
C2257 H2249 0.950 . S
C2257 C2255 1.327 . S
C2258 C2246 1.349 . S
C2258 H2252 0.950 . S
C2258 C2259 1.327 . S
C2259 H2253 0.950 . S
C2259 C2258 1.327 . S
C2259 C2263 1.429 . S
C2260 C2243 1.574 . S
C2260 H2254 0.949 . S
C2260 C2264 1.368 . S
C2261 C2242 1.429 . S
C2261 C2255 1.429 . S
C2261 C2262 1.523 . S
C2262 C2243 1.368 . S
C2262 C2256 1.368 . S
C2262 C2261 1.523 . S
C2263 C2247 1.429 . S
C2263 C2259 1.429 . S
C2263 C2264 1.523 . S
C2264 C2248 1.368 . S
C2264 C2260 1.368 . S
C2264 C2263 1.523 . S
H2265 C2240 0.950 . S
H2266 C2242 0.950 . S
H2267 C2243 0.949 . S
H2268 C2245 0.950 . S
H2269 C2247 0.950 . S
C2270 C2271 1.349 . S
C2270 C2272 1.327 . S
C2270 H2295 0.950 . S
C2271 C2270 1.349 . S
C2271 C2287 1.349 . S
C2272 C2270 1.327 . S
C2272 C2291 1.429 . S
C2272 H2296 0.950 . S
C2273 C2290 1.574 . S
C2273 C2292 1.368 . S
C2273 H2297 0.949 . S
H2274 C2278 0.949 . S
C2275 C2276 1.349 . S
C2275 C2277 1.327 . S
C2275 H2298 0.950 . S
C2276 C2275 1.349 . S
C2276 C2288 1.349 . S
C2277 C2275 1.327 . S
C2277 C2293 1.429 . S
C2277 H2299 0.950 . S
C2278 H2274 0.949 . S
C2278 C2286 1.574 . S
C2278 C2294 1.368 . S
H2279 C2287 0.950 . S
H2280 C2285 0.950 . S
H2281 C2286 0.949 . S
H2282 C2288 0.950 . S
H2283 C2289 0.950 . S
H2284 C2290 0.949 . S
C2285 H2280 0.950 . S
C2285 C2287 1.327 . S
C2285 C2291 1.429 . S
C2286 C2278 1.574 . S
C2286 H2281 0.949 . S
C2286 C2292 1.368 . S
C2287 C2271 1.349 . S
C2287 H2279 0.950 . S
C2287 C2285 1.327 . S
C2288 C2276 1.349 . S
C2288 H2282 0.950 . S
C2288 C2289 1.327 . S
C2289 H2283 0.950 . S
C2289 C2288 1.327 . S
C2289 C2293 1.429 . S
C2290 C2273 1.574 . S
C2290 H2284 0.949 . S
C2290 C2294 1.368 . S
C2291 C2272 1.429 . S
C2291 C2285 1.429 . S
C2291 C2292 1.523 . S
C2292 C2273 1.368 . S
C2292 C2286 1.368 . S
C2292 C2291 1.523 . S
C2293 C2277 1.429 . S
C2293 C2289 1.429 . S
C2293 C2294 1.523 . S
C2294 C2278 1.368 . S
C2294 C2290 1.368 . S
C2294 C2293 1.523 . S
H2295 C2270 0.950 . S
H2296 C2272 0.950 . S
H2297 C2273 0.949 . S
H2298 C2275 0.950 . S
H2299 C2277 0.950 . S
C2300 C2301 1.349 . S
C2300 C2302 1.327 . S
C2300 H2325 0.950 . S
C2301 C2300 1.349 . S
C2301 C2317 1.349 . S
C2302 C2300 1.327 . S
C2302 C2321 1.429 . S
C2302 H2326 0.950 . S
C2303 C2320 1.574 . S
C2303 C2322 1.368 . S
C2303 H2327 0.949 . S
H2304 C2308 0.949 . S
C2305 C2306 1.349 . S
C2305 C2307 1.327 . S
C2305 H2328 0.950 . S
C2306 C2305 1.349 . S
C2306 C2318 1.349 . S
C2307 C2305 1.327 . S
C2307 C2323 1.429 . S
C2307 H2329 0.950 . S
C2308 H2304 0.949 . S
C2308 C2316 1.574 . S
C2308 C2324 1.368 . S
H2309 C2317 0.950 . S
H2310 C2315 0.950 . S
H2311 C2316 0.949 . S
H2312 C2318 0.950 . S
H2313 C2319 0.950 . S
H2314 C2320 0.949 . S
C2315 H2310 0.950 . S
C2315 C2317 1.327 . S
C2315 C2321 1.429 . S
C2316 C2308 1.574 . S
C2316 H2311 0.949 . S
C2316 C2322 1.368 . S
C2317 C2301 1.349 . S
C2317 H2309 0.950 . S
C2317 C2315 1.327 . S
C2318 C2306 1.349 . S
C2318 H2312 0.950 . S
C2318 C2319 1.327 . S
C2319 H2313 0.950 . S
C2319 C2318 1.327 . S
C2319 C2323 1.429 . S
C2320 C2303 1.574 . S
C2320 H2314 0.949 . S
C2320 C2324 1.368 . S
C2321 C2302 1.429 . S
C2321 C2315 1.429 . S
C2321 C2322 1.523 . S
C2322 C2303 1.368 . S
C2322 C2316 1.368 . S
C2322 C2321 1.523 . S
C2323 C2307 1.429 . S
C2323 C2319 1.429 . S
C2323 C2324 1.523 . S
C2324 C2308 1.368 . S
C2324 C2320 1.368 . S
C2324 C2323 1.523 . S
H2325 C2300 0.950 . S
H2326 C2302 0.950 . S
H2327 C2303 0.949 . S
H2328 C2305 0.950 . S
H2329 C2307 0.950 . S
C2330 C2331 1.349 . S
C2330 C2332 1.327 . S
C2330 H2355 0.950 . S
C2331 C2330 1.349 . S
C2331 C2347 1.349 . S
C2332 C2330 1.327 . S
C2332 C2351 1.429 . S
C2332 H2356 0.950 . S
C2333 C2350 1.574 . S
C2333 C2352 1.368 . S
C2333 H2357 0.949 . S
H2334 C2338 0.949 . S
C2335 C2336 1.349 . S
C2335 C2337 1.327 . S
C2335 H2358 0.950 . S
C2336 C2335 1.349 . S
C2336 C2348 1.349 . S
C2337 C2335 1.327 . S
C2337 C2353 1.429 . S
C2337 H2359 0.950 . S
C2338 H2334 0.949 . S
C2338 C2346 1.574 . S
C2338 C2354 1.368 . S
H2339 C2347 0.950 . S
H2340 C2345 0.950 . S
H2341 C2346 0.949 . S
H2342 C2348 0.950 . S
H2343 C2349 0.950 . S
H2344 C2350 0.949 . S
C2345 H2340 0.950 . S
C2345 C2347 1.327 . S
C2345 C2351 1.429 . S
C2346 C2338 1.574 . S
C2346 H2341 0.949 . S
C2346 C2352 1.368 . S
C2347 C2331 1.349 . S
C2347 H2339 0.950 . S
C2347 C2345 1.327 . S
C2348 C2336 1.349 . S
C2348 H2342 0.950 . S
C2348 C2349 1.327 . S
C2349 H2343 0.950 . S
C2349 C2348 1.327 . S
C2349 C2353 1.429 . S
C2350 C2333 1.574 . S
C2350 H2344 0.949 . S
C2350 C2354 1.368 . S
C2351 C2332 1.429 . S
C2351 C2345 1.429 . S
C2351 C2352 1.523 . S
C2352 C2333 1.368 . S
C2352 C2346 1.368 . S
C2352 C2351 1.523 . S
C2353 C2337 1.429 . S
C2353 C2349 1.429 . S
C2353 C2354 1.523 . S
C2354 C2338 1.368 . S
C2354 C2350 1.368 . S
C2354 C2353 1.523 . S
H2355 C2330 0.950 . S
H2356 C2332 0.950 . S
H2357 C2333 0.949 . S
H2358 C2335 0.950 . S
H2359 C2337 0.950 . S
C2360 C2361 1.349 . S
C2360 C2362 1.327 . S
C2360 H2385 0.950 . S
C2361 C2360 1.349 . S
C2361 C2377 1.349 . S
C2362 C2360 1.327 . S
C2362 C2381 1.429 . S
C2362 H2386 0.950 . S
C2363 C2380 1.574 . S
C2363 C2382 1.368 . S
C2363 H2387 0.949 . S
H2364 C2368 0.949 . S
C2365 C2366 1.349 . S
C2365 C2367 1.327 . S
C2365 H2388 0.950 . S
C2366 C2365 1.349 . S
C2366 C2378 1.349 . S
C2367 C2365 1.327 . S
C2367 C2383 1.429 . S
C2367 H2389 0.950 . S
C2368 H2364 0.949 . S
C2368 C2376 1.574 . S
C2368 C2384 1.368 . S
H2369 C2377 0.950 . S
H2370 C2375 0.950 . S
H2371 C2376 0.949 . S
H2372 C2378 0.950 . S
H2373 C2379 0.950 . S
H2374 C2380 0.949 . S
C2375 H2370 0.950 . S
C2375 C2377 1.327 . S
C2375 C2381 1.429 . S
C2376 C2368 1.574 . S
C2376 H2371 0.949 . S
C2376 C2382 1.368 . S
C2377 C2361 1.349 . S
C2377 H2369 0.950 . S
C2377 C2375 1.327 . S
C2378 C2366 1.349 . S
C2378 H2372 0.950 . S
C2378 C2379 1.327 . S
C2379 H2373 0.950 . S
C2379 C2378 1.327 . S
C2379 C2383 1.429 . S
C2380 C2363 1.574 . S
C2380 H2374 0.949 . S
C2380 C2384 1.368 . S
C2381 C2362 1.429 . S
C2381 C2375 1.429 . S
C2381 C2382 1.523 . S
C2382 C2363 1.368 . S
C2382 C2376 1.368 . S
C2382 C2381 1.523 . S
C2383 C2367 1.429 . S
C2383 C2379 1.429 . S
C2383 C2384 1.523 . S
C2384 C2368 1.368 . S
C2384 C2380 1.368 . S
C2384 C2383 1.523 . S
H2385 C2360 0.950 . S
H2386 C2362 0.950 . S
H2387 C2363 0.949 . S
H2388 C2365 0.950 . S
H2389 C2367 0.950 . S
C2390 C2391 1.349 . S
C2390 C2392 1.327 . S
C2390 H2415 0.950 . S
C2391 C2390 1.349 . S
C2391 C2407 1.349 . S
C2392 C2390 1.327 . S
C2392 C2411 1.429 . S
C2392 H2416 0.950 . S
C2393 C2410 1.574 . S
C2393 C2412 1.368 . S
C2393 H2417 0.949 . S
H2394 C2398 0.949 . S
C2395 C2396 1.349 . S
C2395 C2397 1.327 . S
C2395 H2418 0.950 . S
C2396 C2395 1.349 . S
C2396 C2408 1.349 . S
C2397 C2395 1.327 . S
C2397 C2413 1.429 . S
C2397 H2419 0.950 . S
C2398 H2394 0.949 . S
C2398 C2406 1.574 . S
C2398 C2414 1.368 . S
H2399 C2407 0.950 . S
H2400 C2405 0.950 . S
H2401 C2406 0.949 . S
H2402 C2408 0.950 . S
H2403 C2409 0.950 . S
H2404 C2410 0.949 . S
C2405 H2400 0.950 . S
C2405 C2407 1.327 . S
C2405 C2411 1.429 . S
C2406 C2398 1.574 . S
C2406 H2401 0.949 . S
C2406 C2412 1.368 . S
C2407 C2391 1.349 . S
C2407 H2399 0.950 . S
C2407 C2405 1.327 . S
C2408 C2396 1.349 . S
C2408 H2402 0.950 . S
C2408 C2409 1.327 . S
C2409 H2403 0.950 . S
C2409 C2408 1.327 . S
C2409 C2413 1.429 . S
C2410 C2393 1.574 . S
C2410 H2404 0.949 . S
C2410 C2414 1.368 . S
C2411 C2392 1.429 . S
C2411 C2405 1.429 . S
C2411 C2412 1.523 . S
C2412 C2393 1.368 . S
C2412 C2406 1.368 . S
C2412 C2411 1.523 . S
C2413 C2397 1.429 . S
C2413 C2409 1.429 . S
C2413 C2414 1.523 . S
C2414 C2398 1.368 . S
C2414 C2410 1.368 . S
C2414 C2413 1.523 . S
H2415 C2390 0.950 . S
H2416 C2392 0.950 . S
H2417 C2393 0.949 . S
H2418 C2395 0.950 . S
H2419 C2397 0.950 . S
C2420 C2421 1.349 . S
C2420 C2422 1.327 . S
C2420 H2445 0.950 . S
C2421 C2420 1.349 . S
C2421 C2437 1.349 . S
C2422 C2420 1.327 . S
C2422 C2441 1.429 . S
C2422 H2446 0.950 . S
C2423 C2440 1.574 . S
C2423 C2442 1.368 . S
C2423 H2447 0.949 . S
H2424 C2428 0.949 . S
C2425 C2426 1.349 . S
C2425 C2427 1.327 . S
C2425 H2448 0.950 . S
C2426 C2425 1.349 . S
C2426 C2438 1.349 . S
C2427 C2425 1.327 . S
C2427 C2443 1.429 . S
C2427 H2449 0.950 . S
C2428 H2424 0.949 . S
C2428 C2436 1.574 . S
C2428 C2444 1.368 . S
H2429 C2437 0.950 . S
H2430 C2435 0.950 . S
H2431 C2436 0.949 . S
H2432 C2438 0.950 . S
H2433 C2439 0.950 . S
H2434 C2440 0.949 . S
C2435 H2430 0.950 . S
C2435 C2437 1.327 . S
C2435 C2441 1.429 . S
C2436 C2428 1.574 . S
C2436 H2431 0.949 . S
C2436 C2442 1.368 . S
C2437 C2421 1.349 . S
C2437 H2429 0.950 . S
C2437 C2435 1.327 . S
C2438 C2426 1.349 . S
C2438 H2432 0.950 . S
C2438 C2439 1.327 . S
C2439 H2433 0.950 . S
C2439 C2438 1.327 . S
C2439 C2443 1.429 . S
C2440 C2423 1.574 . S
C2440 H2434 0.949 . S
C2440 C2444 1.368 . S
C2441 C2422 1.429 . S
C2441 C2435 1.429 . S
C2441 C2442 1.523 . S
C2442 C2423 1.368 . S
C2442 C2436 1.368 . S
C2442 C2441 1.523 . S
C2443 C2427 1.429 . S
C2443 C2439 1.429 . S
C2443 C2444 1.523 . S
C2444 C2428 1.368 . S
C2444 C2440 1.368 . S
C2444 C2443 1.523 . S
H2445 C2420 0.950 . S
H2446 C2422 0.950 . S
H2447 C2423 0.949 . S
H2448 C2425 0.950 . S
H2449 C2427 0.950 . S
C2450 C2451 1.349 . S
C2450 C2452 1.327 . S
C2450 H2475 0.950 . S
C2451 C2450 1.349 . S
C2451 C2467 1.349 . S
C2452 C2450 1.327 . S
C2452 C2471 1.429 . S
C2452 H2476 0.950 . S
C2453 C2470 1.574 . S
C2453 C2472 1.368 . S
C2453 H2477 0.949 . S
H2454 C2458 0.949 . S
C2455 C2456 1.349 . S
C2455 C2457 1.327 . S
C2455 H2478 0.950 . S
C2456 C2455 1.349 . S
C2456 C2468 1.349 . S
C2457 C2455 1.327 . S
C2457 C2473 1.429 . S
C2457 H2479 0.950 . S
C2458 H2454 0.949 . S
C2458 C2466 1.574 . S
C2458 C2474 1.368 . S
H2459 C2467 0.950 . S
H2460 C2465 0.950 . S
H2461 C2466 0.949 . S
H2462 C2468 0.950 . S
H2463 C2469 0.950 . S
H2464 C2470 0.949 . S
C2465 H2460 0.950 . S
C2465 C2467 1.327 . S
C2465 C2471 1.429 . S
C2466 C2458 1.574 . S
C2466 H2461 0.949 . S
C2466 C2472 1.368 . S
C2467 C2451 1.349 . S
C2467 H2459 0.950 . S
C2467 C2465 1.327 . S
C2468 C2456 1.349 . S
C2468 H2462 0.950 . S
C2468 C2469 1.327 . S
C2469 H2463 0.950 . S
C2469 C2468 1.327 . S
C2469 C2473 1.429 . S
C2470 C2453 1.574 . S
C2470 H2464 0.949 . S
C2470 C2474 1.368 . S
C2471 C2452 1.429 . S
C2471 C2465 1.429 . S
C2471 C2472 1.523 . S
C2472 C2453 1.368 . S
C2472 C2466 1.368 . S
C2472 C2471 1.523 . S
C2473 C2457 1.429 . S
C2473 C2469 1.429 . S
C2473 C2474 1.523 . S
C2474 C2458 1.368 . S
C2474 C2470 1.368 . S
C2474 C2473 1.523 . S
H2475 C2450 0.950 . S
H2476 C2452 0.950 . S
H2477 C2453 0.949 . S
H2478 C2455 0.950 . S
H2479 C2457 0.950 . S
C2480 C2481 1.349 . S
C2480 C2482 1.327 . S
C2480 H2505 0.950 . S
C2481 C2480 1.349 . S
C2481 C2497 1.349 . S
C2482 C2480 1.327 . S
C2482 C2501 1.429 . S
C2482 H2506 0.950 . S
C2483 C2500 1.574 . S
C2483 C2502 1.368 . S
C2483 H2507 0.949 . S
H2484 C2488 0.949 . S
C2485 C2486 1.349 . S
C2485 C2487 1.327 . S
C2485 H2508 0.950 . S
C2486 C2485 1.349 . S
C2486 C2498 1.349 . S
C2487 C2485 1.327 . S
C2487 C2503 1.429 . S
C2487 H2509 0.950 . S
C2488 H2484 0.949 . S
C2488 C2496 1.574 . S
C2488 C2504 1.368 . S
H2489 C2497 0.950 . S
H2490 C2495 0.950 . S
H2491 C2496 0.949 . S
H2492 C2498 0.950 . S
H2493 C2499 0.950 . S
H2494 C2500 0.949 . S
C2495 H2490 0.950 . S
C2495 C2497 1.327 . S
C2495 C2501 1.429 . S
C2496 C2488 1.574 . S
C2496 H2491 0.949 . S
C2496 C2502 1.368 . S
C2497 C2481 1.349 . S
C2497 H2489 0.950 . S
C2497 C2495 1.327 . S
C2498 C2486 1.349 . S
C2498 H2492 0.950 . S
C2498 C2499 1.327 . S
C2499 H2493 0.950 . S
C2499 C2498 1.327 . S
C2499 C2503 1.429 . S
C2500 C2483 1.574 . S
C2500 H2494 0.949 . S
C2500 C2504 1.368 . S
C2501 C2482 1.429 . S
C2501 C2495 1.429 . S
C2501 C2502 1.523 . S
C2502 C2483 1.368 . S
C2502 C2496 1.368 . S
C2502 C2501 1.523 . S
C2503 C2487 1.429 . S
C2503 C2499 1.429 . S
C2503 C2504 1.523 . S
C2504 C2488 1.368 . S
C2504 C2500 1.368 . S
C2504 C2503 1.523 . S
H2505 C2480 0.950 . S
H2506 C2482 0.950 . S
H2507 C2483 0.949 . S
H2508 C2485 0.950 . S
H2509 C2487 0.950 . S
C2510 C2511 1.349 . S
C2510 C2512 1.327 . S
C2510 H2535 0.950 . S
C2511 C2510 1.349 . S
C2511 C2527 1.349 . S
C2512 C2510 1.327 . S
C2512 C2531 1.429 . S
C2512 H2536 0.950 . S
C2513 C2530 1.574 . S
C2513 C2532 1.368 . S
C2513 H2537 0.949 . S
H2514 C2518 0.949 . S
C2515 C2516 1.349 . S
C2515 C2517 1.327 . S
C2515 H2538 0.950 . S
C2516 C2515 1.349 . S
C2516 C2528 1.349 . S
C2517 C2515 1.327 . S
C2517 C2533 1.429 . S
C2517 H2539 0.950 . S
C2518 H2514 0.949 . S
C2518 C2526 1.574 . S
C2518 C2534 1.368 . S
H2519 C2527 0.950 . S
H2520 C2525 0.950 . S
H2521 C2526 0.949 . S
H2522 C2528 0.950 . S
H2523 C2529 0.950 . S
H2524 C2530 0.949 . S
C2525 H2520 0.950 . S
C2525 C2527 1.327 . S
C2525 C2531 1.429 . S
C2526 C2518 1.574 . S
C2526 H2521 0.949 . S
C2526 C2532 1.368 . S
C2527 C2511 1.349 . S
C2527 H2519 0.950 . S
C2527 C2525 1.327 . S
C2528 C2516 1.349 . S
C2528 H2522 0.950 . S
C2528 C2529 1.327 . S
C2529 H2523 0.950 . S
C2529 C2528 1.327 . S
C2529 C2533 1.429 . S
C2530 C2513 1.574 . S
C2530 H2524 0.949 . S
C2530 C2534 1.368 . S
C2531 C2512 1.429 . S
C2531 C2525 1.429 . S
C2531 C2532 1.523 . S
C2532 C2513 1.368 . S
C2532 C2526 1.368 . S
C2532 C2531 1.523 . S
C2533 C2517 1.429 . S
C2533 C2529 1.429 . S
C2533 C2534 1.523 . S
C2534 C2518 1.368 . S
C2534 C2530 1.368 . S
C2534 C2533 1.523 . S
H2535 C2510 0.950 . S
H2536 C2512 0.950 . S
H2537 C2513 0.949 . S
H2538 C2515 0.950 . S
H2539 C2517 0.950 . S
C2540 C2541 1.349 . S
C2540 C2542 1.327 . S
C2540 H2565 0.950 . S
C2541 C2540 1.349 . S
C2541 C2557 1.349 . S
C2542 C2540 1.327 . S
C2542 C2561 1.429 . S
C2542 H2566 0.950 . S
C2543 C2560 1.574 . S
C2543 C2562 1.368 . S
C2543 H2567 0.949 . S
H2544 C2548 0.949 . S
C2545 C2546 1.349 . S
C2545 C2547 1.327 . S
C2545 H2568 0.950 . S
C2546 C2545 1.349 . S
C2546 C2558 1.349 . S
C2547 C2545 1.327 . S
C2547 C2563 1.429 . S
C2547 H2569 0.950 . S
C2548 H2544 0.949 . S
C2548 C2556 1.574 . S
C2548 C2564 1.368 . S
H2549 C2557 0.950 . S
H2550 C2555 0.950 . S
H2551 C2556 0.949 . S
H2552 C2558 0.950 . S
H2553 C2559 0.950 . S
H2554 C2560 0.949 . S
C2555 H2550 0.950 . S
C2555 C2557 1.327 . S
C2555 C2561 1.429 . S
C2556 C2548 1.574 . S
C2556 H2551 0.949 . S
C2556 C2562 1.368 . S
C2557 C2541 1.349 . S
C2557 H2549 0.950 . S
C2557 C2555 1.327 . S
C2558 C2546 1.349 . S
C2558 H2552 0.950 . S
C2558 C2559 1.327 . S
C2559 H2553 0.950 . S
C2559 C2558 1.327 . S
C2559 C2563 1.429 . S
C2560 C2543 1.574 . S
C2560 H2554 0.949 . S
C2560 C2564 1.368 . S
C2561 C2542 1.429 . S
C2561 C2555 1.429 . S
C2561 C2562 1.523 . S
C2562 C2543 1.368 . S
C2562 C2556 1.368 . S
C2562 C2561 1.523 . S
C2563 C2547 1.429 . S
C2563 C2559 1.429 . S
C2563 C2564 1.523 . S
C2564 C2548 1.368 . S
C2564 C2560 1.368 . S
C2564 C2563 1.523 . S
H2565 C2540 0.950 . S
H2566 C2542 0.950 . S
H2567 C2543 0.949 . S
H2568 C2545 0.950 . S
H2569 C2547 0.950 . S
C2570 C2571 1.349 . S
C2570 C2572 1.327 . S
C2570 H2595 0.950 . S
C2571 C2570 1.349 . S
C2571 C2587 1.349 . S
C2572 C2570 1.327 . S
C2572 C2591 1.429 . S
C2572 H2596 0.950 . S
C2573 C2590 1.574 . S
C2573 C2592 1.368 . S
C2573 H2597 0.949 . S
H2574 C2578 0.949 . S
C2575 C2576 1.349 . S
C2575 C2577 1.327 . S
C2575 H2598 0.950 . S
C2576 C2575 1.349 . S
C2576 C2588 1.349 . S
C2577 C2575 1.327 . S
C2577 C2593 1.429 . S
C2577 H2599 0.950 . S
C2578 H2574 0.949 . S
C2578 C2586 1.574 . S
C2578 C2594 1.368 . S
H2579 C2587 0.950 . S
H2580 C2585 0.950 . S
H2581 C2586 0.949 . S
H2582 C2588 0.950 . S
H2583 C2589 0.950 . S
H2584 C2590 0.949 . S
C2585 H2580 0.950 . S
C2585 C2587 1.327 . S
C2585 C2591 1.429 . S
C2586 C2578 1.574 . S
C2586 H2581 0.949 . S
C2586 C2592 1.368 . S
C2587 C2571 1.349 . S
C2587 H2579 0.950 . S
C2587 C2585 1.327 . S
C2588 C2576 1.349 . S
C2588 H2582 0.950 . S
C2588 C2589 1.327 . S
C2589 H2583 0.950 . S
C2589 C2588 1.327 . S
C2589 C2593 1.429 . S
C2590 C2573 1.574 . S
C2590 H2584 0.949 . S
C2590 C2594 1.368 . S
C2591 C2572 1.429 . S
C2591 C2585 1.429 . S
C2591 C2592 1.523 . S
C2592 C2573 1.368 . S
C2592 C2586 1.368 . S
C2592 C2591 1.523 . S
C2593 C2577 1.429 . S
C2593 C2589 1.429 . S
C2593 C2594 1.523 . S
C2594 C2578 1.368 . S
C2594 C2590 1.368 . S
C2594 C2593 1.523 . S
H2595 C2570 0.950 . S
H2596 C2572 0.950 . S
H2597 C2573 0.949 . S
H2598 C2575 0.950 . S
H2599 C2577 0.950 . S
C2600 C2601 1.349 . S
C2600 C2602 1.327 . S
C2600 H2625 0.950 . S
C2601 C2600 1.349 . S
C2601 C2617 1.349 . S
C2602 C2600 1.327 . S
C2602 C2621 1.429 . S
C2602 H2626 0.950 . S
C2603 C2620 1.574 . S
C2603 C2622 1.368 . S
C2603 H2627 0.949 . S
H2604 C2608 0.949 . S
C2605 C2606 1.349 . S
C2605 C2607 1.327 . S
C2605 H2628 0.950 . S
C2606 C2605 1.349 . S
C2606 C2618 1.349 . S
C2607 C2605 1.327 . S
C2607 C2623 1.429 . S
C2607 H2629 0.950 . S
C2608 H2604 0.949 . S
C2608 C2616 1.574 . S
C2608 C2624 1.368 . S
H2609 C2617 0.950 . S
H2610 C2615 0.950 . S
H2611 C2616 0.949 . S
H2612 C2618 0.950 . S
H2613 C2619 0.950 . S
H2614 C2620 0.949 . S
C2615 H2610 0.950 . S
C2615 C2617 1.327 . S
C2615 C2621 1.429 . S
C2616 C2608 1.574 . S
C2616 H2611 0.949 . S
C2616 C2622 1.368 . S
C2617 C2601 1.349 . S
C2617 H2609 0.950 . S
C2617 C2615 1.327 . S
C2618 C2606 1.349 . S
C2618 H2612 0.950 . S
C2618 C2619 1.327 . S
C2619 H2613 0.950 . S
C2619 C2618 1.327 . S
C2619 C2623 1.429 . S
C2620 C2603 1.574 . S
C2620 H2614 0.949 . S
C2620 C2624 1.368 . S
C2621 C2602 1.429 . S
C2621 C2615 1.429 . S
C2621 C2622 1.523 . S
C2622 C2603 1.368 . S
C2622 C2616 1.368 . S
C2622 C2621 1.523 . S
C2623 C2607 1.429 . S
C2623 C2619 1.429 . S
C2623 C2624 1.523 . S
C2624 C2608 1.368 . S
C2624 C2620 1.368 . S
C2624 C2623 1.523 . S
H2625 C2600 0.950 . S
H2626 C2602 0.950 . S
H2627 C2603 0.949 . S
H2628 C2605 0.950 . S
H2629 C2607 0.950 . S
C2630 C2631 1.349 . S
C2630 C2632 1.327 . S
C2630 H2655 0.950 . S
C2631 C2630 1.349 . S
C2631 C2647 1.349 . S
C2632 C2630 1.327 . S
C2632 C2651 1.429 . S
C2632 H2656 0.950 . S
C2633 C2650 1.574 . S
C2633 C2652 1.368 . S
C2633 H2657 0.949 . S
H2634 C2638 0.949 . S
C2635 C2636 1.349 . S
C2635 C2637 1.327 . S
C2635 H2658 0.950 . S
C2636 C2635 1.349 . S
C2636 C2648 1.349 . S
C2637 C2635 1.327 . S
C2637 C2653 1.429 . S
C2637 H2659 0.950 . S
C2638 H2634 0.949 . S
C2638 C2646 1.574 . S
C2638 C2654 1.368 . S
H2639 C2647 0.950 . S
H2640 C2645 0.950 . S
H2641 C2646 0.949 . S
H2642 C2648 0.950 . S
H2643 C2649 0.950 . S
H2644 C2650 0.949 . S
C2645 H2640 0.950 . S
C2645 C2647 1.327 . S
C2645 C2651 1.429 . S
C2646 C2638 1.574 . S
C2646 H2641 0.949 . S
C2646 C2652 1.368 . S
C2647 C2631 1.349 . S
C2647 H2639 0.950 . S
C2647 C2645 1.327 . S
C2648 C2636 1.349 . S
C2648 H2642 0.950 . S
C2648 C2649 1.327 . S
C2649 H2643 0.950 . S
C2649 C2648 1.327 . S
C2649 C2653 1.429 . S
C2650 C2633 1.574 . S
C2650 H2644 0.949 . S
C2650 C2654 1.368 . S
C2651 C2632 1.429 . S
C2651 C2645 1.429 . S
C2651 C2652 1.523 . S
C2652 C2633 1.368 . S
C2652 C2646 1.368 . S
C2652 C2651 1.523 . S
C2653 C2637 1.429 . S
C2653 C2649 1.429 . S
C2653 C2654 1.523 . S
C2654 C2638 1.368 . S
C2654 C2650 1.368 . S
C2654 C2653 1.523 . S
H2655 C2630 0.950 . S
H2656 C2632 0.950 . S
H2657 C2633 0.949 . S
H2658 C2635 0.950 . S
H2659 C2637 0.950 . S
C2660 C2661 1.349 . S
C2660 C2662 1.327 . S
C2660 H2685 0.950 . S
C2661 C2660 1.349 . S
C2661 C2677 1.349 . S
C2662 C2660 1.327 . S
C2662 C2681 1.429 . S
C2662 H2686 0.950 . S
C2663 C2680 1.574 . S
C2663 C2682 1.368 . S
C2663 H2687 0.949 . S
H2664 C2668 0.949 . S
C2665 C2666 1.349 . S
C2665 C2667 1.327 . S
C2665 H2688 0.950 . S
C2666 C2665 1.349 . S
C2666 C2678 1.349 . S
C2667 C2665 1.327 . S
C2667 C2683 1.429 . S
C2667 H2689 0.950 . S
C2668 H2664 0.949 . S
C2668 C2676 1.574 . S
C2668 C2684 1.368 . S
H2669 C2677 0.950 . S
H2670 C2675 0.950 . S
H2671 C2676 0.949 . S
H2672 C2678 0.950 . S
H2673 C2679 0.950 . S
H2674 C2680 0.949 . S
C2675 H2670 0.950 . S
C2675 C2677 1.327 . S
C2675 C2681 1.429 . S
C2676 C2668 1.574 . S
C2676 H2671 0.949 . S
C2676 C2682 1.368 . S
C2677 C2661 1.349 . S
C2677 H2669 0.950 . S
C2677 C2675 1.327 . S
C2678 C2666 1.349 . S
C2678 H2672 0.950 . S
C2678 C2679 1.327 . S
C2679 H2673 0.950 . S
C2679 C2678 1.327 . S
C2679 C2683 1.429 . S
C2680 C2663 1.574 . S
C2680 H2674 0.949 . S
C2680 C2684 1.368 . S
C2681 C2662 1.429 . S
C2681 C2675 1.429 . S
C2681 C2682 1.523 . S
C2682 C2663 1.368 . S
C2682 C2676 1.368 . S
C2682 C2681 1.523 . S
C2683 C2667 1.429 . S
C2683 C2679 1.429 . S
C2683 C2684 1.523 . S
C2684 C2668 1.368 . S
C2684 C2680 1.368 . S
C2684 C2683 1.523 . S
H2685 C2660 0.950 . S
H2686 C2662 0.950 . S
H2687 C2663 0.949 . S
H2688 C2665 0.950 . S
H2689 C2667 0.950 . S
C2690 C2691 1.349 . S
C2690 C2692 1.327 . S
C2690 H2715 0.950 . S
C2691 C2690 1.349 . S
C2691 C2707 1.349 . S
C2692 C2690 1.327 . S
C2692 C2711 1.429 . S
C2692 H2716 0.950 . S
C2693 C2710 1.574 . S
C2693 C2712 1.368 . S
C2693 H2717 0.949 . S
H2694 C2698 0.949 . S
C2695 C2696 1.349 . S
C2695 C2697 1.327 . S
C2695 H2718 0.950 . S
C2696 C2695 1.349 . S
C2696 C2708 1.349 . S
C2697 C2695 1.327 . S
C2697 C2713 1.429 . S
C2697 H2719 0.950 . S
C2698 H2694 0.949 . S
C2698 C2706 1.574 . S
C2698 C2714 1.368 . S
H2699 C2707 0.950 . S
H2700 C2705 0.950 . S
H2701 C2706 0.949 . S
H2702 C2708 0.950 . S
H2703 C2709 0.950 . S
H2704 C2710 0.949 . S
C2705 H2700 0.950 . S
C2705 C2707 1.327 . S
C2705 C2711 1.429 . S
C2706 C2698 1.574 . S
C2706 H2701 0.949 . S
C2706 C2712 1.368 . S
C2707 C2691 1.349 . S
C2707 H2699 0.950 . S
C2707 C2705 1.327 . S
C2708 C2696 1.349 . S
C2708 H2702 0.950 . S
C2708 C2709 1.327 . S
C2709 H2703 0.950 . S
C2709 C2708 1.327 . S
C2709 C2713 1.429 . S
C2710 C2693 1.574 . S
C2710 H2704 0.949 . S
C2710 C2714 1.368 . S
C2711 C2692 1.429 . S
C2711 C2705 1.429 . S
C2711 C2712 1.523 . S
C2712 C2693 1.368 . S
C2712 C2706 1.368 . S
C2712 C2711 1.523 . S
C2713 C2697 1.429 . S
C2713 C2709 1.429 . S
C2713 C2714 1.523 . S
C2714 C2698 1.368 . S
C2714 C2710 1.368 . S
C2714 C2713 1.523 . S
H2715 C2690 0.950 . S
H2716 C2692 0.950 . S
H2717 C2693 0.949 . S
H2718 C2695 0.950 . S
H2719 C2697 0.950 . S
C2720 C2721 1.349 . S
C2720 C2722 1.327 . S
C2720 H2745 0.950 . S
C2721 C2720 1.349 . S
C2721 C2737 1.349 . S
C2722 C2720 1.327 . S
C2722 C2741 1.429 . S
C2722 H2746 0.950 . S
C2723 C2740 1.574 . S
C2723 C2742 1.368 . S
C2723 H2747 0.949 . S
H2724 C2728 0.949 . S
C2725 C2726 1.349 . S
C2725 C2727 1.327 . S
C2725 H2748 0.950 . S
C2726 C2725 1.349 . S
C2726 C2738 1.349 . S
C2727 C2725 1.327 . S
C2727 C2743 1.429 . S
C2727 H2749 0.950 . S
C2728 H2724 0.949 . S
C2728 C2736 1.574 . S
C2728 C2744 1.368 . S
H2729 C2737 0.950 . S
H2730 C2735 0.950 . S
H2731 C2736 0.949 . S
H2732 C2738 0.950 . S
H2733 C2739 0.950 . S
H2734 C2740 0.949 . S
C2735 H2730 0.950 . S
C2735 C2737 1.327 . S
C2735 C2741 1.429 . S
C2736 C2728 1.574 . S
C2736 H2731 0.949 . S
C2736 C2742 1.368 . S
C2737 C2721 1.349 . S
C2737 H2729 0.950 . S
C2737 C2735 1.327 . S
C2738 C2726 1.349 . S
C2738 H2732 0.950 . S
C2738 C2739 1.327 . S
C2739 H2733 0.950 . S
C2739 C2738 1.327 . S
C2739 C2743 1.429 . S
C2740 C2723 1.574 . S
C2740 H2734 0.949 . S
C2740 C2744 1.368 . S
C2741 C2722 1.429 . S
C2741 C2735 1.429 . S
C2741 C2742 1.523 . S
C2742 C2723 1.368 . S
C2742 C2736 1.368 . S
C2742 C2741 1.523 . S
C2743 C2727 1.429 . S
C2743 C2739 1.429 . S
C2743 C2744 1.523 . S
C2744 C2728 1.368 . S
C2744 C2740 1.368 . S
C2744 C2743 1.523 . S
H2745 C2720 0.950 . S
H2746 C2722 0.950 . S
H2747 C2723 0.949 . S
H2748 C2725 0.950 . S
H2749 C2727 0.950 . S
C2750 C2751 1.349 . S
C2750 C2752 1.327 . S
C2750 H2775 0.950 . S
C2751 C2750 1.349 . S
C2751 C2767 1.349 . S
C2752 C2750 1.327 . S
C2752 C2771 1.429 . S
C2752 H2776 0.950 . S
C2753 C2770 1.574 . S
C2753 C2772 1.368 . S
C2753 H2777 0.949 . S
H2754 C2758 0.949 . S
C2755 C2756 1.349 . S
C2755 C2757 1.327 . S
C2755 H2778 0.950 . S
C2756 C2755 1.349 . S
C2756 C2768 1.349 . S
C2757 C2755 1.327 . S
C2757 C2773 1.429 . S
C2757 H2779 0.950 . S
C2758 H2754 0.949 . S
C2758 C2766 1.574 . S
C2758 C2774 1.368 . S
H2759 C2767 0.950 . S
H2760 C2765 0.950 . S
H2761 C2766 0.949 . S
H2762 C2768 0.950 . S
H2763 C2769 0.950 . S
H2764 C2770 0.949 . S
C2765 H2760 0.950 . S
C2765 C2767 1.327 . S
C2765 C2771 1.429 . S
C2766 C2758 1.574 . S
C2766 H2761 0.949 . S
C2766 C2772 1.368 . S
C2767 C2751 1.349 . S
C2767 H2759 0.950 . S
C2767 C2765 1.327 . S
C2768 C2756 1.349 . S
C2768 H2762 0.950 . S
C2768 C2769 1.327 . S
C2769 H2763 0.950 . S
C2769 C2768 1.327 . S
C2769 C2773 1.429 . S
C2770 C2753 1.574 . S
C2770 H2764 0.949 . S
C2770 C2774 1.368 . S
C2771 C2752 1.429 . S
C2771 C2765 1.429 . S
C2771 C2772 1.523 . S
C2772 C2753 1.368 . S
C2772 C2766 1.368 . S
C2772 C2771 1.523 . S
C2773 C2757 1.429 . S
C2773 C2769 1.429 . S
C2773 C2774 1.523 . S
C2774 C2758 1.368 . S
C2774 C2770 1.368 . S
C2774 C2773 1.523 . S
H2775 C2750 0.950 . S
H2776 C2752 0.950 . S
H2777 C2753 0.949 . S
H2778 C2755 0.950 . S
H2779 C2757 0.950 . S
C2780 C2781 1.349 . S
C2780 C2782 1.327 . S
C2780 H2805 0.950 . S
C2781 C2780 1.349 . S
C2781 C2797 1.349 . S
C2782 C2780 1.327 . S
C2782 C2801 1.429 . S
C2782 H2806 0.950 . S
C2783 C2800 1.574 . S
C2783 C2802 1.368 . S
C2783 H2807 0.949 . S
H2784 C2788 0.949 . S
C2785 C2786 1.349 . S
C2785 C2787 1.327 . S
C2785 H2808 0.950 . S
C2786 C2785 1.349 . S
C2786 C2798 1.349 . S
C2787 C2785 1.327 . S
C2787 C2803 1.429 . S
C2787 H2809 0.950 . S
C2788 H2784 0.949 . S
C2788 C2796 1.574 . S
C2788 C2804 1.368 . S
H2789 C2797 0.950 . S
H2790 C2795 0.950 . S
H2791 C2796 0.949 . S
H2792 C2798 0.950 . S
H2793 C2799 0.950 . S
H2794 C2800 0.949 . S
C2795 H2790 0.950 . S
C2795 C2797 1.327 . S
C2795 C2801 1.429 . S
C2796 C2788 1.574 . S
C2796 H2791 0.949 . S
C2796 C2802 1.368 . S
C2797 C2781 1.349 . S
C2797 H2789 0.950 . S
C2797 C2795 1.327 . S
C2798 C2786 1.349 . S
C2798 H2792 0.950 . S
C2798 C2799 1.327 . S
C2799 H2793 0.950 . S
C2799 C2798 1.327 . S
C2799 C2803 1.429 . S
C2800 C2783 1.574 . S
C2800 H2794 0.949 . S
C2800 C2804 1.368 . S
C2801 C2782 1.429 . S
C2801 C2795 1.429 . S
C2801 C2802 1.523 . S
C2802 C2783 1.368 . S
C2802 C2796 1.368 . S
C2802 C2801 1.523 . S
C2803 C2787 1.429 . S
C2803 C2799 1.429 . S
C2803 C2804 1.523 . S
C2804 C2788 1.368 . S
C2804 C2800 1.368 . S
C2804 C2803 1.523 . S
H2805 C2780 0.950 . S
H2806 C2782 0.950 . S
H2807 C2783 0.949 . S
H2808 C2785 0.950 . S
H2809 C2787 0.950 . S
C2810 C2811 1.349 . S
C2810 C2812 1.327 . S
C2810 H2835 0.950 . S
C2811 C2810 1.349 . S
C2811 C2827 1.349 . S
C2812 C2810 1.327 . S
C2812 C2831 1.429 . S
C2812 H2836 0.950 . S
C2813 C2830 1.574 . S
C2813 C2832 1.368 . S
C2813 H2837 0.949 . S
H2814 C2818 0.949 . S
C2815 C2816 1.349 . S
C2815 C2817 1.327 . S
C2815 H2838 0.950 . S
C2816 C2815 1.349 . S
C2816 C2828 1.349 . S
C2817 C2815 1.327 . S
C2817 C2833 1.429 . S
C2817 H2839 0.950 . S
C2818 H2814 0.949 . S
C2818 C2826 1.574 . S
C2818 C2834 1.368 . S
H2819 C2827 0.950 . S
H2820 C2825 0.950 . S
H2821 C2826 0.949 . S
H2822 C2828 0.950 . S
H2823 C2829 0.950 . S
H2824 C2830 0.949 . S
C2825 H2820 0.950 . S
C2825 C2827 1.327 . S
C2825 C2831 1.429 . S
C2826 C2818 1.574 . S
C2826 H2821 0.949 . S
C2826 C2832 1.368 . S
C2827 C2811 1.349 . S
C2827 H2819 0.950 . S
C2827 C2825 1.327 . S
C2828 C2816 1.349 . S
C2828 H2822 0.950 . S
C2828 C2829 1.327 . S
C2829 H2823 0.950 . S
C2829 C2828 1.327 . S
C2829 C2833 1.429 . S
C2830 C2813 1.574 . S
C2830 H2824 0.949 . S
C2830 C2834 1.368 . S
C2831 C2812 1.429 . S
C2831 C2825 1.429 . S
C2831 C2832 1.523 . S
C2832 C2813 1.368 . S
C2832 C2826 1.368 . S
C2832 C2831 1.523 . S
C2833 C2817 1.429 . S
C2833 C2829 1.429 . S
C2833 C2834 1.523 . S
C2834 C2818 1.368 . S
C2834 C2830 1.368 . S
C2834 C2833 1.523 . S
H2835 C2810 0.950 . S
H2836 C2812 0.950 . S
H2837 C2813 0.949 . S
H2838 C2815 0.950 . S
H2839 C2817 0.950 . S
C2840 C2841 1.349 . S
C2840 C2842 1.327 . S
C2840 H2865 0.950 . S
C2841 C2840 1.349 . S
C2841 C2857 1.349 . S
C2842 C2840 1.327 . S
C2842 C2861 1.429 . S
C2842 H2866 0.950 . S
C2843 C2860 1.574 . S
C2843 C2862 1.368 . S
C2843 H2867 0.949 . S
H2844 C2848 0.949 . S
C2845 C2846 1.349 . S
C2845 C2847 1.327 . S
C2845 H2868 0.950 . S
C2846 C2845 1.349 . S
C2846 C2858 1.349 . S
C2847 C2845 1.327 . S
C2847 C2863 1.429 . S
C2847 H2869 0.950 . S
C2848 H2844 0.949 . S
C2848 C2856 1.574 . S
C2848 C2864 1.368 . S
H2849 C2857 0.950 . S
H2850 C2855 0.950 . S
H2851 C2856 0.949 . S
H2852 C2858 0.950 . S
H2853 C2859 0.950 . S
H2854 C2860 0.949 . S
C2855 H2850 0.950 . S
C2855 C2857 1.327 . S
C2855 C2861 1.429 . S
C2856 C2848 1.574 . S
C2856 H2851 0.949 . S
C2856 C2862 1.368 . S
C2857 C2841 1.349 . S
C2857 H2849 0.950 . S
C2857 C2855 1.327 . S
C2858 C2846 1.349 . S
C2858 H2852 0.950 . S
C2858 C2859 1.327 . S
C2859 H2853 0.950 . S
C2859 C2858 1.327 . S
C2859 C2863 1.429 . S
C2860 C2843 1.574 . S
C2860 H2854 0.949 . S
C2860 C2864 1.368 . S
C2861 C2842 1.429 . S
C2861 C2855 1.429 . S
C2861 C2862 1.523 . S
C2862 C2843 1.368 . S
C2862 C2856 1.368 . S
C2862 C2861 1.523 . S
C2863 C2847 1.429 . S
C2863 C2859 1.429 . S
C2863 C2864 1.523 . S
C2864 C2848 1.368 . S
C2864 C2860 1.368 . S
C2864 C2863 1.523 . S
H2865 C2840 0.950 . S
H2866 C2842 0.950 . S
H2867 C2843 0.949 . S
H2868 C2845 0.950 . S
H2869 C2847 0.950 . S
C2870 C2871 1.349 . S
C2870 C2872 1.327 . S
C2870 H2895 0.950 . S
C2871 C2870 1.349 . S
C2871 C2887 1.349 . S
C2872 C2870 1.327 . S
C2872 C2891 1.429 . S
C2872 H2896 0.950 . S
C2873 C2890 1.574 . S
C2873 C2892 1.368 . S
C2873 H2897 0.949 . S
H2874 C2878 0.949 . S
C2875 C2876 1.349 . S
C2875 C2877 1.327 . S
C2875 H2898 0.950 . S
C2876 C2875 1.349 . S
C2876 C2888 1.349 . S
C2877 C2875 1.327 . S
C2877 C2893 1.429 . S
C2877 H2899 0.950 . S
C2878 H2874 0.949 . S
C2878 C2886 1.574 . S
C2878 C2894 1.368 . S
H2879 C2887 0.950 . S
H2880 C2885 0.950 . S
H2881 C2886 0.949 . S
H2882 C2888 0.950 . S
H2883 C2889 0.950 . S
H2884 C2890 0.949 . S
C2885 H2880 0.950 . S
C2885 C2887 1.327 . S
C2885 C2891 1.429 . S
C2886 C2878 1.574 . S
C2886 H2881 0.949 . S
C2886 C2892 1.368 . S
C2887 C2871 1.349 . S
C2887 H2879 0.950 . S
C2887 C2885 1.327 . S
C2888 C2876 1.349 . S
C2888 H2882 0.950 . S
C2888 C2889 1.327 . S
C2889 H2883 0.950 . S
C2889 C2888 1.327 . S
C2889 C2893 1.429 . S
C2890 C2873 1.574 . S
C2890 H2884 0.949 . S
C2890 C2894 1.368 . S
C2891 C2872 1.429 . S
C2891 C2885 1.429 . S
C2891 C2892 1.523 . S
C2892 C2873 1.368 . S
C2892 C2886 1.368 . S
C2892 C2891 1.523 . S
C2893 C2877 1.429 . S
C2893 C2889 1.429 . S
C2893 C2894 1.523 . S
C2894 C2878 1.368 . S
C2894 C2890 1.368 . S
C2894 C2893 1.523 . S
H2895 C2870 0.950 . S
H2896 C2872 0.950 . S
H2897 C2873 0.949 . S
H2898 C2875 0.950 . S
H2899 C2877 0.950 . S
C2900 C2901 1.349 . S
C2900 C2902 1.327 . S
C2900 H2925 0.950 . S
C2901 C2900 1.349 . S
C2901 C2917 1.349 . S
C2902 C2900 1.327 . S
C2902 C2921 1.429 . S
C2902 H2926 0.950 . S
C2903 C2920 1.574 . S
C2903 C2922 1.368 . S
C2903 H2927 0.949 . S
H2904 C2908 0.949 . S
C2905 C2906 1.349 . S
C2905 C2907 1.327 . S
C2905 H2928 0.950 . S
C2906 C2905 1.349 . S
C2906 C2918 1.349 . S
C2907 C2905 1.327 . S
C2907 C2923 1.429 . S
C2907 H2929 0.950 . S
C2908 H2904 0.949 . S
C2908 C2916 1.574 . S
C2908 C2924 1.368 . S
H2909 C2917 0.950 . S
H2910 C2915 0.950 . S
H2911 C2916 0.949 . S
H2912 C2918 0.950 . S
H2913 C2919 0.950 . S
H2914 C2920 0.949 . S
C2915 H2910 0.950 . S
C2915 C2917 1.327 . S
C2915 C2921 1.429 . S
C2916 C2908 1.574 . S
C2916 H2911 0.949 . S
C2916 C2922 1.368 . S
C2917 C2901 1.349 . S
C2917 H2909 0.950 . S
C2917 C2915 1.327 . S
C2918 C2906 1.349 . S
C2918 H2912 0.950 . S
C2918 C2919 1.327 . S
C2919 H2913 0.950 . S
C2919 C2918 1.327 . S
C2919 C2923 1.429 . S
C2920 C2903 1.574 . S
C2920 H2914 0.949 . S
C2920 C2924 1.368 . S
C2921 C2902 1.429 . S
C2921 C2915 1.429 . S
C2921 C2922 1.523 . S
C2922 C2903 1.368 . S
C2922 C2916 1.368 . S
C2922 C2921 1.523 . S
C2923 C2907 1.429 . S
C2923 C2919 1.429 . S
C2923 C2924 1.523 . S
C2924 C2908 1.368 . S
C2924 C2920 1.368 . S
C2924 C2923 1.523 . S
H2925 C2900 0.950 . S
H2926 C2902 0.950 . S
H2927 C2903 0.949 . S
H2928 C2905 0.950 . S
H2929 C2907 0.950 . S
C2930 C2931 1.349 . S
C2930 C2932 1.327 . S
C2930 H2955 0.950 . S
C2931 C2930 1.349 . S
C2931 C2947 1.349 . S
C2932 C2930 1.327 . S
C2932 C2951 1.429 . S
C2932 H2956 0.950 . S
C2933 C2950 1.574 . S
C2933 C2952 1.368 . S
C2933 H2957 0.949 . S
H2934 C2938 0.949 . S
C2935 C2936 1.349 . S
C2935 C2937 1.327 . S
C2935 H2958 0.950 . S
C2936 C2935 1.349 . S
C2936 C2948 1.349 . S
C2937 C2935 1.327 . S
C2937 C2953 1.429 . S
C2937 H2959 0.950 . S
C2938 H2934 0.949 . S
C2938 C2946 1.574 . S
C2938 C2954 1.368 . S
H2939 C2947 0.950 . S
H2940 C2945 0.950 . S
H2941 C2946 0.949 . S
H2942 C2948 0.950 . S
H2943 C2949 0.950 . S
H2944 C2950 0.949 . S
C2945 H2940 0.950 . S
C2945 C2947 1.327 . S
C2945 C2951 1.429 . S
C2946 C2938 1.574 . S
C2946 H2941 0.949 . S
C2946 C2952 1.368 . S
C2947 C2931 1.349 . S
C2947 H2939 0.950 . S
C2947 C2945 1.327 . S
C2948 C2936 1.349 . S
C2948 H2942 0.950 . S
C2948 C2949 1.327 . S
C2949 H2943 0.950 . S
C2949 C2948 1.327 . S
C2949 C2953 1.429 . S
C2950 C2933 1.574 . S
C2950 H2944 0.949 . S
C2950 C2954 1.368 . S
C2951 C2932 1.429 . S
C2951 C2945 1.429 . S
C2951 C2952 1.523 . S
C2952 C2933 1.368 . S
C2952 C2946 1.368 . S
C2952 C2951 1.523 . S
C2953 C2937 1.429 . S
C2953 C2949 1.429 . S
C2953 C2954 1.523 . S
C2954 C2938 1.368 . S
C2954 C2950 1.368 . S
C2954 C2953 1.523 . S
H2955 C2930 0.950 . S
H2956 C2932 0.950 . S
H2957 C2933 0.949 . S
H2958 C2935 0.950 . S
H2959 C2937 0.950 . S
C2960 C2961 1.349 . S
C2960 C2962 1.327 . S
C2960 H2985 0.950 . S
C2961 C2960 1.349 . S
C2961 C2977 1.349 . S
C2962 C2960 1.327 . S
C2962 C2981 1.429 . S
C2962 H2986 0.950 . S
C2963 C2980 1.574 . S
C2963 C2982 1.368 . S
C2963 H2987 0.949 . S
H2964 C2968 0.949 . S
C2965 C2966 1.349 . S
C2965 C2967 1.327 . S
C2965 H2988 0.950 . S
C2966 C2965 1.349 . S
C2966 C2978 1.349 . S
C2967 C2965 1.327 . S
C2967 C2983 1.429 . S
C2967 H2989 0.950 . S
C2968 H2964 0.949 . S
C2968 C2976 1.574 . S
C2968 C2984 1.368 . S
H2969 C2977 0.950 . S
H2970 C2975 0.957 . S
H2971 C2976 0.949 . S
H2972 C2978 0.950 . S
H2973 C2979 0.950 . S
H2974 C2980 0.949 . S
C2975 H2970 0.957 . S
C2975 C2977 1.327 . S
C2975 C2981 1.429 . S
C2976 C2968 1.574 . S
C2976 H2971 0.949 . S
C2976 C2982 1.368 . S
C2977 C2961 1.349 . S
C2977 H2969 0.950 . S
C2977 C2975 1.327 . S
C2978 C2966 1.349 . S
C2978 H2972 0.950 . S
C2978 C2979 1.327 . S
C2979 H2973 0.950 . S
C2979 C2978 1.327 . S
C2979 C2983 1.429 . S
C2980 C2963 1.574 . S
C2980 H2974 0.949 . S
C2980 C2984 1.368 . S
C2981 C2962 1.429 . S
C2981 C2975 1.429 . S
C2981 C2982 1.523 1_545 S
C2982 C2963 1.368 . S
C2982 C2976 1.368 . S
C2982 C2981 1.523 1_565 S
C2983 C2967 1.429 . S
C2983 C2979 1.429 . S
C2983 C2984 1.523 . S
C2984 C2968 1.368 . S
C2984 C2980 1.368 . S
C2984 C2983 1.523 . S
H2985 C2960 0.950 . S
H2986 C2962 0.950 . S
H2987 C2963 0.949 . S
H2988 C2965 0.950 . S
H2989 C2967 0.950 . S
C2990 C2991 1.349 . S
C2990 C2992 1.327 . S
C2990 H3015 0.950 . S
C2991 C2990 1.349 . S
C2991 C3007 1.349 . S
C2992 C2990 1.327 . S
C2992 C3011 1.429 . S
C2992 H3016 0.950 . S
C2993 C3010 1.574 . S
C2993 C3012 1.368 . S
C2993 H3017 0.949 . S
H2994 C2998 0.949 . S
C2995 C2996 1.349 . S
C2995 C2997 1.327 . S
C2995 H3018 0.950 . S
C2996 C2995 1.349 . S
C2996 C3008 1.349 . S
C2997 C2995 1.327 . S
C2997 C3013 1.429 . S
C2997 H3019 0.950 . S
C2998 H2994 0.949 . S
C2998 C3006 1.574 . S
C2998 C3014 1.368 . S
H2999 C3007 0.950 . S
H3000 C3005 0.950 . S
H3001 C3006 0.949 . S
H3002 C3008 0.950 . S
H3003 C3009 0.950 . S
H3004 C3010 0.949 . S
C3005 H3000 0.950 . S
C3005 C3007 1.327 . S
C3005 C3011 1.429 . S
C3006 C2998 1.574 . S
C3006 H3001 0.949 . S
C3006 C3012 1.368 . S
C3007 C2991 1.349 . S
C3007 H2999 0.950 . S
C3007 C3005 1.327 . S
C3008 C2996 1.349 . S
C3008 H3002 0.950 . S
C3008 C3009 1.327 . S
C3009 H3003 0.950 . S
C3009 C3008 1.327 . S
C3009 C3013 1.429 . S
C3010 C2993 1.574 . S
C3010 H3004 0.949 . S
C3010 C3014 1.368 . S
C3011 C2992 1.429 . S
C3011 C3005 1.429 . S
C3011 C3012 1.523 . S
C3012 C2993 1.368 . S
C3012 C3006 1.368 . S
C3012 C3011 1.523 . S
C3013 C2997 1.429 . S
C3013 C3009 1.429 . S
C3013 C3014 1.523 . S
C3014 C2998 1.368 . S
C3014 C3010 1.368 . S
C3014 C3013 1.523 . S
H3015 C2990 0.950 . S
H3016 C2992 0.950 . S
H3017 C2993 0.949 . S
H3018 C2995 0.950 . S
H3019 C2997 0.950 . S
C3020 C3021 1.349 . S
C3020 C3022 1.327 . S
C3020 H3045 0.950 . S
C3021 C3020 1.349 . S
C3021 C3037 1.349 . S
C3022 C3020 1.327 . S
C3022 C3041 1.429 . S
C3022 H3046 0.950 . S
C3023 C3040 1.574 . S
C3023 C3042 1.368 . S
C3023 H3047 0.949 . S
H3024 C3028 0.949 . S
C3025 C3026 1.349 . S
C3025 C3027 1.327 . S
C3025 H3048 0.950 . S
C3026 C3025 1.349 . S
C3026 C3038 1.349 . S
C3027 C3025 1.327 . S
C3027 C3043 1.429 . S
C3027 H3049 0.950 . S
C3028 H3024 0.949 . S
C3028 C3036 1.574 . S
C3028 C3044 1.368 . S
H3029 C3037 0.950 . S
H3030 C3035 0.950 . S
H3031 C3036 0.949 . S
H3032 C3038 0.950 . S
H3033 C3039 0.950 . S
H3034 C3040 0.949 . S
C3035 H3030 0.950 . S
C3035 C3037 1.327 . S
C3035 C3041 1.429 . S
C3036 C3028 1.574 . S
C3036 H3031 0.949 . S
C3036 C3042 1.368 . S
C3037 C3021 1.349 . S
C3037 H3029 0.950 . S
C3037 C3035 1.327 . S
C3038 C3026 1.349 . S
C3038 H3032 0.950 . S
C3038 C3039 1.327 . S
C3039 H3033 0.950 . S
C3039 C3038 1.327 . S
C3039 C3043 1.429 . S
C3040 C3023 1.574 . S
C3040 H3034 0.949 . S
C3040 C3044 1.368 . S
C3041 C3022 1.429 . S
C3041 C3035 1.429 . S
C3041 C3042 1.523 . S
C3042 C3023 1.368 . S
C3042 C3036 1.368 . S
C3042 C3041 1.523 . S
C3043 C3027 1.429 . S
C3043 C3039 1.429 . S
C3043 C3044 1.523 . S
C3044 C3028 1.368 . S
C3044 C3040 1.368 . S
C3044 C3043 1.523 . S
H3045 C3020 0.950 . S
H3046 C3022 0.950 . S
H3047 C3023 0.949 . S
H3048 C3025 0.950 . S
H3049 C3027 0.950 . S
C3050 C3051 1.349 1_565 S
C3050 C3052 1.327 . S
C3050 H3075 0.950 . S
C3051 C3050 1.349 1_545 S
C3051 C3067 1.349 . S
C3052 C3050 1.327 . S
C3052 C3071 1.429 1_565 S
C3052 H3076 0.950 . S
C3053 C3070 1.574 . S
C3053 C3072 1.368 1_545 S
C3053 H3077 0.949 . S
H3054 C3058 0.949 . S
C3055 C3056 1.349 . S
C3055 C3057 1.327 . S
C3055 H3078 0.950 . S
C3056 C3055 1.349 . S
C3056 C3068 1.349 . S
C3057 C3055 1.327 . S
C3057 C3073 1.429 . S
C3057 H3079 0.950 1_565 S
C3058 H3054 0.949 . S
C3058 C3066 1.574 . S
C3058 C3074 1.368 . S
H3059 C3067 0.950 . S
H3060 C3065 0.950 . S
H3061 C3066 0.949 . S
H3062 C3068 0.950 . S
H3063 C3069 0.950 . S
H3064 C3070 0.949 . S
C3065 H3060 0.950 . S
C3065 C3067 1.327 . S
C3065 C3071 1.429 . S
C3066 C3058 1.574 . S
C3066 H3061 0.949 . S
C3066 C3072 1.368 . S
C3067 C3051 1.349 . S
C3067 H3059 0.950 . S
C3067 C3065 1.327 . S
C3068 C3056 1.349 . S
C3068 H3062 0.950 . S
C3068 C3069 1.327 . S
C3069 H3063 0.950 . S
C3069 C3068 1.327 . S
C3069 C3073 1.429 . S
C3070 C3053 1.574 . S
C3070 H3064 0.949 . S
C3070 C3074 1.368 1_545 S
C3071 C3052 1.429 1_545 S
C3071 C3065 1.429 . S
C3071 C3072 1.523 1_545 S
C3072 C3053 1.368 1_565 S
C3072 C3066 1.368 . S
C3072 C3071 1.523 1_565 S
C3073 C3057 1.429 . S
C3073 C3069 1.429 . S
C3073 C3074 1.523 . S
C3074 C3058 1.368 . S
C3074 C3070 1.368 1_565 S
C3074 C3073 1.523 . S
H3075 C3050 0.950 . S
H3076 C3052 0.950 . S
H3077 C3053 0.949 . S
H3078 C3055 0.950 . S
H3079 C3057 0.950 1_545 S
C3080 C3081 1.349 . S
C3080 C3082 1.335 . S
C3080 H3105 0.950 . S
C3081 C3080 1.349 . S
C3081 C3097 1.349 . S
C3082 C3080 1.335 . S
C3082 C3101 1.431 . S
C3082 H3106 0.941 1_565 S
C3083 C3100 1.574 . S
C3083 C3102 1.369 . S
C3083 H3107 0.948 1_545 S
H3084 C3088 0.949 . S
C3085 C3086 1.349 . S
C3085 C3087 1.327 . S
C3085 H3108 0.950 . S
C3086 C3085 1.349 . S
C3086 C3098 1.349 . S
C3087 C3085 1.327 . S
C3087 C3103 1.429 . S
C3087 H3109 0.950 . S
C3088 H3084 0.949 . S
C3088 C3096 1.574 . S
C3088 C3104 1.368 . S
H3089 C3097 0.950 . S
H3090 C3095 0.950 . S
H3091 C3096 0.949 . S
H3092 C3098 0.950 . S
H3093 C3099 0.950 . S
H3094 C3100 0.949 . S
C3095 H3090 0.950 . S
C3095 C3097 1.327 . S
C3095 C3101 1.429 . S
C3096 C3088 1.574 . S
C3096 H3091 0.949 . S
C3096 C3102 1.368 . S
C3097 C3081 1.349 . S
C3097 H3089 0.950 . S
C3097 C3095 1.327 . S
C3098 C3086 1.349 . S
C3098 H3092 0.950 . S
C3098 C3099 1.327 . S
C3099 H3093 0.950 . S
C3099 C3098 1.327 . S
C3099 C3103 1.429 . S
C3100 C3083 1.574 . S
C3100 H3094 0.949 . S
C3100 C3104 1.368 . S
C3101 C3082 1.431 . S
C3101 C3095 1.429 . S
C3101 C3102 1.523 1_565 S
C3102 C3083 1.369 . S
C3102 C3096 1.368 . S
C3102 C3101 1.523 1_545 S
C3103 C3087 1.429 . S
C3103 C3099 1.429 . S
C3103 C3104 1.523 . S
C3104 C3088 1.368 . S
C3104 C3100 1.368 . S
C3104 C3103 1.523 . S
H3105 C3080 0.950 . S
H3106 C3082 0.941 1_545 S
H3107 C3083 0.948 1_565 S
H3108 C3085 0.950 . S
H3109 C3087 0.950 . S
C3110 C3111 1.349 . S
C3110 C3112 1.327 . S
C3110 H3135 0.950 . S
C3111 C3110 1.349 . S
C3111 C3127 1.349 . S
C3112 C3110 1.327 . S
C3112 C3131 1.429 . S
C3112 H3136 0.950 . S
C3113 C3130 1.574 . S
C3113 C3132 1.368 . S
C3113 H3137 0.949 . S
H3114 C3118 0.949 . S
C3115 C3116 1.349 . S
C3115 C3117 1.327 . S
C3115 H3138 0.950 . S
C3116 C3115 1.349 . S
C3116 C3128 1.349 . S
C3117 C3115 1.327 . S
C3117 C3133 1.429 . S
C3117 H3139 0.950 . S
C3118 H3114 0.949 . S
C3118 C3126 1.574 . S
C3118 C3134 1.368 . S
H3119 C3127 0.950 . S
H3120 C3125 0.950 . S
H3121 C3126 0.949 . S
H3122 C3128 0.950 . S
H3123 C3129 0.950 . S
H3124 C3130 0.949 . S
C3125 H3120 0.950 . S
C3125 C3127 1.327 . S
C3125 C3131 1.429 . S
C3126 C3118 1.574 . S
C3126 H3121 0.949 . S
C3126 C3132 1.368 . S
C3127 C3111 1.349 . S
C3127 H3119 0.950 . S
C3127 C3125 1.327 . S
C3128 C3116 1.349 . S
C3128 H3122 0.950 . S
C3128 C3129 1.327 . S
C3129 H3123 0.950 . S
C3129 C3128 1.327 . S
C3129 C3133 1.429 . S
C3130 C3113 1.574 . S
C3130 H3124 0.949 . S
C3130 C3134 1.368 . S
C3131 C3112 1.429 . S
C3131 C3125 1.429 . S
C3131 C3132 1.523 . S
C3132 C3113 1.368 . S
C3132 C3126 1.368 . S
C3132 C3131 1.523 . S
C3133 C3117 1.429 . S
C3133 C3129 1.429 . S
C3133 C3134 1.523 . S
C3134 C3118 1.368 . S
C3134 C3130 1.368 . S
C3134 C3133 1.523 . S
H3135 C3110 0.950 . S
H3136 C3112 0.950 . S
H3137 C3113 0.949 . S
H3138 C3115 0.950 . S
H3139 C3117 0.950 . S
C3140 C3141 1.349 . S
C3140 C3142 1.327 . S
C3140 H3165 0.950 . S
C3141 C3140 1.349 . S
C3141 C3157 1.349 . S
C3142 C3140 1.327 . S
C3142 C3161 1.429 . S
C3142 H3166 0.950 . S
C3143 C3160 1.574 . S
C3143 C3162 1.368 . S
C3143 H3167 0.949 . S
H3144 C3148 0.949 . S
C3145 C3146 1.349 . S
C3145 C3147 1.327 . S
C3145 H3168 0.950 . S
C3146 C3145 1.349 . S
C3146 C3158 1.349 . S
C3147 C3145 1.327 . S
C3147 C3163 1.429 . S
C3147 H3169 0.950 . S
C3148 H3144 0.949 . S
C3148 C3156 1.574 . S
C3148 C3164 1.368 . S
H3149 C3157 0.950 . S
H3150 C3155 0.950 . S
H3151 C3156 0.949 . S
H3152 C3158 0.950 . S
H3153 C3159 0.950 . S
H3154 C3160 0.949 . S
C3155 H3150 0.950 . S
C3155 C3157 1.327 . S
C3155 C3161 1.429 . S
C3156 C3148 1.574 . S
C3156 H3151 0.949 . S
C3156 C3162 1.368 . S
C3157 C3141 1.349 . S
C3157 H3149 0.950 . S
C3157 C3155 1.327 . S
C3158 C3146 1.349 . S
C3158 H3152 0.950 . S
C3158 C3159 1.327 . S
C3159 H3153 0.950 . S
C3159 C3158 1.327 . S
C3159 C3163 1.429 . S
C3160 C3143 1.574 . S
C3160 H3154 0.949 . S
C3160 C3164 1.368 . S
C3161 C3142 1.429 . S
C3161 C3155 1.429 . S
C3161 C3162 1.523 . S
C3162 C3143 1.368 . S
C3162 C3156 1.368 . S
C3162 C3161 1.523 . S
C3163 C3147 1.429 . S
C3163 C3159 1.429 . S
C3163 C3164 1.523 . S
C3164 C3148 1.368 . S
C3164 C3160 1.368 . S
C3164 C3163 1.523 . S
H3165 C3140 0.950 . S
H3166 C3142 0.950 . S
H3167 C3143 0.949 . S
H3168 C3145 0.950 . S
H3169 C3147 0.950 . S
C3170 C3171 1.349 1_545 S
C3170 C3172 1.327 . S
C3170 H3195 0.950 . S
C3171 C3170 1.349 1_565 S
C3171 C3187 1.349 . S
C3172 C3170 1.327 . S
C3172 C3191 1.429 1_545 S
C3172 H3196 0.950 . S
C3173 C3190 1.574 . S
C3173 C3192 1.368 1_565 S
C3173 H3197 0.949 . S
H3174 C3178 0.949 . S
C3175 C3176 1.311 1_565 S
C3175 C3177 1.335 . S
C3175 H3198 0.982 . S
C3176 C3175 1.311 1_545 S
C3176 C3188 1.349 . S
C3177 C3175 1.335 . S
C3177 C3193 1.429 1_565 S
C3177 H3199 0.950 . S
C3178 H3174 0.949 . S
C3178 C3186 1.574 . S
C3178 C3194 1.368 . S
H3179 C3187 0.950 . S
H3180 C3185 0.950 . S
H3181 C3186 0.949 . S
H3182 C3188 0.950 . S
H3183 C3189 0.950 . S
H3184 C3190 0.949 . S
C3185 H3180 0.950 . S
C3185 C3187 1.327 . S
C3185 C3191 1.429 . S
C3186 C3178 1.574 . S
C3186 H3181 0.949 . S
C3186 C3192 1.368 . S
C3187 C3171 1.349 . S
C3187 H3179 0.950 . S
C3187 C3185 1.327 . S
C3188 C3176 1.349 . S
C3188 H3182 0.950 . S
C3188 C3189 1.327 . S
C3189 H3183 0.950 . S
C3189 C3188 1.327 . S
C3189 C3193 1.429 . S
C3190 C3173 1.574 . S
C3190 H3184 0.949 . S
C3190 C3194 1.368 1_565 S
C3191 C3172 1.429 1_565 S
C3191 C3185 1.429 . S
C3191 C3192 1.523 1_565 S
C3192 C3173 1.368 1_545 S
C3192 C3186 1.368 . S
C3192 C3191 1.523 1_545 S
C3193 C3177 1.429 1_545 S
C3193 C3189 1.429 . S
C3193 C3194 1.523 . S
C3194 C3178 1.368 . S
C3194 C3190 1.368 1_545 S
C3194 C3193 1.523 . S
H3195 C3170 0.950 . S
H3196 C3172 0.950 . S
H3197 C3173 0.949 . S
H3198 C3175 0.982 . S
H3199 C3177 0.950 . S
C3200 C3201 1.349 . S
C3200 C3202 1.327 . S
C3200 H3225 0.950 . S
C3201 C3200 1.349 . S
C3201 C3217 1.349 . S
C3202 C3200 1.327 . S
C3202 C3221 1.429 . S
C3202 H3226 0.950 . S
C3203 C3220 1.574 . S
C3203 C3222 1.368 . S
C3203 H3227 0.949 . S
H3204 C3208 0.960 . S
C3205 C3206 1.349 . S
C3205 C3207 1.327 . S
C3205 H3228 0.950 . S
C3206 C3205 1.349 . S
C3206 C3218 1.349 . S
C3207 C3205 1.327 . S
C3207 C3223 1.429 . S
C3207 H3229 0.950 . S
C3208 H3204 0.960 . S
C3208 C3216 1.574 . S
C3208 C3224 1.368 1_455 S
H3209 C3217 0.950 . S
H3210 C3215 0.950 . S
H3211 C3216 0.949 . S
H3212 C3218 0.950 . S
H3213 C3219 0.950 . S
H3214 C3220 0.949 1_655 S
C3215 H3210 0.950 . S
C3215 C3217 1.327 . S
C3215 C3221 1.429 . S
C3216 C3208 1.574 . S
C3216 H3211 0.949 . S
C3216 C3222 1.368 . S
C3217 C3201 1.349 . S
C3217 H3209 0.950 . S
C3217 C3215 1.327 . S
C3218 C3206 1.349 . S
C3218 H3212 0.950 . S
C3218 C3219 1.327 . S
C3219 H3213 0.950 . S
C3219 C3218 1.327 . S
C3219 C3223 1.429 . S
C3220 C3203 1.574 . S
C3220 H3214 0.949 1_455 S
C3220 C3224 1.368 1_455 S
C3221 C3202 1.429 . S
C3221 C3215 1.429 . S
C3221 C3222 1.523 . S
C3222 C3203 1.368 . S
C3222 C3216 1.368 . S
C3222 C3221 1.523 . S
C3223 C3207 1.429 . S
C3223 C3219 1.429 . S
C3223 C3224 1.523 . S
C3224 C3208 1.368 1_655 S
C3224 C3220 1.368 1_655 S
C3224 C3223 1.523 . S
H3225 C3200 0.950 . S
H3226 C3202 0.950 . S
H3227 C3203 0.949 . S
H3228 C3205 0.950 . S
H3229 C3207 0.950 . S
C3230 C3231 1.349 . S
C3230 C3232 1.327 . S
C3230 H3255 0.950 . S
C3231 C3230 1.349 . S
C3231 C3247 1.349 . S
C3232 C3230 1.327 . S
C3232 C3251 1.429 . S
C3232 H3256 0.950 . S
C3233 C3250 1.574 . S
C3233 C3252 1.368 . S
C3233 H3257 0.949 . S
H3234 C3238 0.949 . S
C3235 C3236 1.349 . S
C3235 C3237 1.327 . S
C3235 H3258 0.950 . S
C3236 C3235 1.349 . S
C3236 C3248 1.349 . S
C3237 C3235 1.327 . S
C3237 C3253 1.429 . S
C3237 H3259 0.950 . S
C3238 H3234 0.949 . S
C3238 C3246 1.574 . S
C3238 C3254 1.368 . S
H3239 C3247 0.950 . S
H3240 C3245 0.950 . S
H3241 C3246 0.949 . S
H3242 C3248 0.950 . S
H3243 C3249 0.950 . S
H3244 C3250 0.949 . S
C3245 H3240 0.950 . S
C3245 C3247 1.327 . S
C3245 C3251 1.429 . S
C3246 C3238 1.574 . S
C3246 H3241 0.949 . S
C3246 C3252 1.368 . S
C3247 C3231 1.349 . S
C3247 H3239 0.950 . S
C3247 C3245 1.327 . S
C3248 C3236 1.349 . S
C3248 H3242 0.950 . S
C3248 C3249 1.327 . S
C3249 H3243 0.950 . S
C3249 C3248 1.327 . S
C3249 C3253 1.429 . S
C3250 C3233 1.574 . S
C3250 H3244 0.949 . S
C3250 C3254 1.368 . S
C3251 C3232 1.429 . S
C3251 C3245 1.429 . S
C3251 C3252 1.523 . S
C3252 C3233 1.368 . S
C3252 C3246 1.368 . S
C3252 C3251 1.523 . S
C3253 C3237 1.429 . S
C3253 C3249 1.429 . S
C3253 C3254 1.523 . S
C3254 C3238 1.368 . S
C3254 C3250 1.368 . S
C3254 C3253 1.523 . S
H3255 C3230 0.950 . S
H3256 C3232 0.950 . S
H3257 C3233 0.949 . S
H3258 C3235 0.950 . S
H3259 C3237 0.950 . S
C3260 C3261 1.349 . S
C3260 C3262 1.327 . S
C3260 H3285 0.950 . S
C3261 C3260 1.349 . S
C3261 C3277 1.349 . S
C3262 C3260 1.327 . S
C3262 C3281 1.429 . S
C3262 H3286 0.950 . S
C3263 C3280 1.574 . S
C3263 C3282 1.368 1_455 S
C3263 H3287 0.949 1_455 S
H3264 C3268 0.949 . S
C3265 C3266 1.349 . S
C3265 C3267 1.327 . S
C3265 H3288 0.950 . S
C3266 C3265 1.349 . S
C3266 C3278 1.349 . S
C3267 C3265 1.327 . S
C3267 C3283 1.429 . S
C3267 H3289 0.950 . S
C3268 H3264 0.949 . S
C3268 C3276 1.574 . S
C3268 C3284 1.368 . S
H3269 C3277 0.950 . S
H3270 C3275 0.950 . S
H3271 C3276 0.949 1_655 S
H3272 C3278 0.950 . S
H3273 C3279 0.950 . S
H3274 C3280 0.949 . S
C3275 H3270 0.950 . S
C3275 C3277 1.327 . S
C3275 C3281 1.429 . S
C3276 C3268 1.574 . S
C3276 H3271 0.949 1_455 S
C3276 C3282 1.368 1_455 S
C3277 C3261 1.349 . S
C3277 H3269 0.950 . S
C3277 C3275 1.327 . S
C3278 C3266 1.349 . S
C3278 H3272 0.950 . S
C3278 C3279 1.327 . S
C3279 H3273 0.950 . S
C3279 C3278 1.327 . S
C3279 C3283 1.429 . S
C3280 C3263 1.574 . S
C3280 H3274 0.949 . S
C3280 C3284 1.368 . S
C3281 C3262 1.429 . S
C3281 C3275 1.429 . S
C3281 C3282 1.523 . S
C3282 C3263 1.368 1_655 S
C3282 C3276 1.368 1_655 S
C3282 C3281 1.523 . S
C3283 C3267 1.429 . S
C3283 C3279 1.429 . S
C3283 C3284 1.523 . S
C3284 C3268 1.368 . S
C3284 C3280 1.368 . S
C3284 C3283 1.523 . S
H3285 C3260 0.950 . S
H3286 C3262 0.950 . S
H3287 C3263 0.949 1_655 S
H3288 C3265 0.950 . S
H3289 C3267 0.950 . S
C3290 C3291 1.349 . S
C3290 C3292 1.327 . S
C3290 H3315 0.950 . S
C3291 C3290 1.349 . S
C3291 C3307 1.349 . S
C3292 C3290 1.327 . S
C3292 C3311 1.429 . S
C3292 H3316 0.950 . S
C3293 C3310 1.574 . S
C3293 C3312 1.368 . S
C3293 H3317 0.949 . S
H3294 C3298 0.949 . S
C3295 C3296 1.349 . S
C3295 C3297 1.327 . S
C3295 H3318 0.950 . S
C3296 C3295 1.349 . S
C3296 C3308 1.349 . S
C3297 C3295 1.327 . S
C3297 C3313 1.429 . S
C3297 H3319 0.950 . S
C3298 H3294 0.949 . S
C3298 C3306 1.574 . S
C3298 C3314 1.368 . S
H3299 C3307 0.950 . S
H3300 C3305 0.950 . S
H3301 C3306 0.949 . S
H3302 C3308 0.950 . S
H3303 C3309 0.950 . S
H3304 C3310 0.949 . S
C3305 H3300 0.950 . S
C3305 C3307 1.327 . S
C3305 C3311 1.429 . S
C3306 C3298 1.574 . S
C3306 H3301 0.949 . S
C3306 C3312 1.368 . S
C3307 C3291 1.349 . S
C3307 H3299 0.950 . S
C3307 C3305 1.327 . S
C3308 C3296 1.349 . S
C3308 H3302 0.950 . S
C3308 C3309 1.327 . S
C3309 H3303 0.950 . S
C3309 C3308 1.327 . S
C3309 C3313 1.429 . S
C3310 C3293 1.574 . S
C3310 H3304 0.949 . S
C3310 C3314 1.368 . S
C3311 C3292 1.429 . S
C3311 C3305 1.429 . S
C3311 C3312 1.523 . S
C3312 C3293 1.368 . S
C3312 C3306 1.368 . S
C3312 C3311 1.523 . S
C3313 C3297 1.429 . S
C3313 C3309 1.429 . S
C3313 C3314 1.523 . S
C3314 C3298 1.368 . S
C3314 C3310 1.368 . S
C3314 C3313 1.523 . S
H3315 C3290 0.950 . S
H3316 C3292 0.950 . S
H3317 C3293 0.949 . S
H3318 C3295 0.950 . S
H3319 C3297 0.950 . S
C3320 C3321 1.349 . S
C3320 C3322 1.327 . S
C3320 H3345 0.950 . S
C3321 C3320 1.349 . S
C3321 C3337 1.349 . S
C3322 C3320 1.327 . S
C3322 C3341 1.429 . S
C3322 H3346 0.950 . S
C3323 C3340 1.574 . S
C3323 C3342 1.368 . S
C3323 H3347 0.949 . S
H3324 C3328 0.949 1_455 S
C3325 C3326 1.349 . S
C3325 C3327 1.327 . S
C3325 H3348 0.950 . S
C3326 C3325 1.349 . S
C3326 C3338 1.349 . S
C3327 C3325 1.327 . S
C3327 C3343 1.429 . S
C3327 H3349 0.950 . S
C3328 H3324 0.949 1_655 S
C3328 C3336 1.574 . S
C3328 C3344 1.368 1_655 S
H3329 C3337 0.950 . S
H3330 C3335 0.950 . S
H3331 C3336 0.949 . S
H3332 C3338 0.950 . S
H3333 C3339 0.950 . S
H3334 C3340 0.949 1_455 S
C3335 H3330 0.950 . S
C3335 C3337 1.327 . S
C3335 C3341 1.429 . S
C3336 C3328 1.574 . S
C3336 H3331 0.949 . S
C3336 C3342 1.368 . S
C3337 C3321 1.349 . S
C3337 H3329 0.950 . S
C3337 C3335 1.327 . S
C3338 C3326 1.349 . S
C3338 H3332 0.950 . S
C3338 C3339 1.327 . S
C3339 H3333 0.950 . S
C3339 C3338 1.327 . S
C3339 C3343 1.429 . S
C3340 C3323 1.574 . S
C3340 H3334 0.949 1_655 S
C3340 C3344 1.368 1_655 S
C3341 C3322 1.429 . S
C3341 C3335 1.429 . S
C3341 C3342 1.523 . S
C3342 C3323 1.368 . S
C3342 C3336 1.368 . S
C3342 C3341 1.523 . S
C3343 C3327 1.429 . S
C3343 C3339 1.429 . S
C3343 C3344 1.523 . S
C3344 C3328 1.368 1_455 S
C3344 C3340 1.368 1_455 S
C3344 C3343 1.523 . S
H3345 C3320 0.950 . S
H3346 C3322 0.950 . S
H3347 C3323 0.949 . S
H3348 C3325 0.950 . S
H3349 C3327 0.950 . S
C3350 C3351 1.349 . S
C3350 C3352 1.327 . S
C3350 H3375 0.950 . S
C3351 C3350 1.349 . S
C3351 C3367 1.349 . S
C3352 C3350 1.327 . S
C3352 C3371 1.429 . S
C3352 H3376 0.950 . S
C3353 C3370 1.574 . S
C3353 C3372 1.368 . S
C3353 H3377 0.949 . S
H3354 C3358 0.949 . S
C3355 C3356 1.349 . S
C3355 C3357 1.327 . S
C3355 H3378 0.950 . S
C3356 C3355 1.349 . S
C3356 C3368 1.349 . S
C3357 C3355 1.327 . S
C3357 C3373 1.429 . S
C3357 H3379 0.950 . S
C3358 H3354 0.949 . S
C3358 C3366 1.574 . S
C3358 C3374 1.368 . S
H3359 C3367 0.950 . S
H3360 C3365 0.950 . S
H3361 C3366 0.949 . S
H3362 C3368 0.950 . S
H3363 C3369 0.950 . S
H3364 C3370 0.949 . S
C3365 H3360 0.950 . S
C3365 C3367 1.327 . S
C3365 C3371 1.429 . S
C3366 C3358 1.574 . S
C3366 H3361 0.949 . S
C3366 C3372 1.368 . S
C3367 C3351 1.349 . S
C3367 H3359 0.950 . S
C3367 C3365 1.327 . S
C3368 C3356 1.349 . S
C3368 H3362 0.950 . S
C3368 C3369 1.327 . S
C3369 H3363 0.950 . S
C3369 C3368 1.327 . S
C3369 C3373 1.429 . S
C3370 C3353 1.574 . S
C3370 H3364 0.949 . S
C3370 C3374 1.368 . S
C3371 C3352 1.429 . S
C3371 C3365 1.429 . S
C3371 C3372 1.523 . S
C3372 C3353 1.368 . S
C3372 C3366 1.368 . S
C3372 C3371 1.523 . S
C3373 C3357 1.429 . S
C3373 C3369 1.429 . S
C3373 C3374 1.523 . S
C3374 C3358 1.368 . S
C3374 C3370 1.368 . S
C3374 C3373 1.523 . S
H3375 C3350 0.950 . S
H3376 C3352 0.950 . S
H3377 C3353 0.949 . S
H3378 C3355 0.950 . S
H3379 C3357 0.950 . S
C3380 C3381 1.349 . S
C3380 C3382 1.327 . S
C3380 H3405 0.950 . S
C3381 C3380 1.349 . S
C3381 C3397 1.349 . S
C3382 C3380 1.327 . S
C3382 C3401 1.429 . S
C3382 H3406 0.950 . S
C3383 C3400 1.574 . S
C3383 C3402 1.368 1_655 S
C3383 H3407 0.949 1_655 S
H3384 C3388 0.949 . S
C3385 C3386 1.349 . S
C3385 C3387 1.327 . S
C3385 H3408 0.950 . S
C3386 C3385 1.349 . S
C3386 C3398 1.349 . S
C3387 C3385 1.327 . S
C3387 C3403 1.429 . S
C3387 H3409 0.950 . S
C3388 H3384 0.949 . S
C3388 C3396 1.574 . S
C3388 C3404 1.368 . S
H3389 C3397 0.950 . S
H3390 C3395 0.950 . S
H3391 C3396 0.949 1_455 S
H3392 C3398 0.950 . S
H3393 C3399 0.950 . S
H3394 C3400 0.949 . S
C3395 H3390 0.950 . S
C3395 C3397 1.327 . S
C3395 C3401 1.429 . S
C3396 C3388 1.574 . S
C3396 H3391 0.949 1_655 S
C3396 C3402 1.368 1_655 S
C3397 C3381 1.349 . S
C3397 H3389 0.950 . S
C3397 C3395 1.327 . S
C3398 C3386 1.349 . S
C3398 H3392 0.950 . S
C3398 C3399 1.327 . S
C3399 H3393 0.950 . S
C3399 C3398 1.327 . S
C3399 C3403 1.429 . S
C3400 C3383 1.574 . S
C3400 H3394 0.949 . S
C3400 C3404 1.368 . S
C3401 C3382 1.429 . S
C3401 C3395 1.429 . S
C3401 C3402 1.523 . S
C3402 C3383 1.368 1_455 S
C3402 C3396 1.368 1_455 S
C3402 C3401 1.523 . S
C3403 C3387 1.429 . S
C3403 C3399 1.429 . S
C3403 C3404 1.523 . S
C3404 C3388 1.368 . S
C3404 C3400 1.368 . S
C3404 C3403 1.523 . S
H3405 C3380 0.950 . S
H3406 C3382 0.950 . S
H3407 C3383 0.949 1_455 S
H3408 C3385 0.950 . S
H3409 C3387 0.950 . S
C3410 C3411 1.349 . S
C3410 C3412 1.327 . S
C3410 H3435 0.950 . S
C3411 C3410 1.349 . S
C3411 C3427 1.349 . S
C3412 C3410 1.327 . S
C3412 C3431 1.429 . S
C3412 H3436 0.950 . S
C3413 C3430 1.574 . S
C3413 C3432 1.368 . S
C3413 H3437 0.949 . S
H3414 C3418 0.949 . S
C3415 C3416 1.349 . S
C3415 C3417 1.327 . S
C3415 H3438 0.950 . S
C3416 C3415 1.349 . S
C3416 C3428 1.349 . S
C3417 C3415 1.327 . S
C3417 C3433 1.429 . S
C3417 H3439 0.950 . S
C3418 H3414 0.949 . S
C3418 C3426 1.574 . S
C3418 C3434 1.368 . S
H3419 C3427 0.950 . S
H3420 C3425 0.950 . S
H3421 C3426 0.949 . S
H3422 C3428 0.950 . S
H3423 C3429 0.950 . S
H3424 C3430 0.949 . S
C3425 H3420 0.950 . S
C3425 C3427 1.327 . S
C3425 C3431 1.429 . S
C3426 C3418 1.574 . S
C3426 H3421 0.949 . S
C3426 C3432 1.368 . S
C3427 C3411 1.349 . S
C3427 H3419 0.950 . S
C3427 C3425 1.327 . S
C3428 C3416 1.349 . S
C3428 H3422 0.950 . S
C3428 C3429 1.327 . S
C3429 H3423 0.950 . S
C3429 C3428 1.327 . S
C3429 C3433 1.429 . S
C3430 C3413 1.574 . S
C3430 H3424 0.949 . S
C3430 C3434 1.368 . S
C3431 C3412 1.429 . S
C3431 C3425 1.429 . S
C3431 C3432 1.523 . S
C3432 C3413 1.368 . S
C3432 C3426 1.368 . S
C3432 C3431 1.523 . S
C3433 C3417 1.429 . S
C3433 C3429 1.429 . S
C3433 C3434 1.523 . S
C3434 C3418 1.368 . S
C3434 C3430 1.368 . S
C3434 C3433 1.523 . S
H3435 C3410 0.950 . S
H3436 C3412 0.950 . S
H3437 C3413 0.949 . S
H3438 C3415 0.950 . S
H3439 C3417 0.950 . S
C3440 C3441 1.332 1_565 S
C3440 C3442 1.334 . S
C3440 H3465 0.961 . S
C3441 C3440 1.332 1_545 S
C3441 C3457 1.349 . S
C3442 C3440 1.334 . S
C3442 C3461 1.429 1_565 S
C3442 H3466 0.950 . S
C3443 C3460 1.574 . S
C3443 C3462 1.368 1_445 S
C3443 H3467 0.949 . S
H3444 C3448 0.949 . S
C3445 C3446 1.349 . S
C3445 C3447 1.327 . S
C3445 H3468 0.950 . S
C3446 C3445 1.349 . S
C3446 C3458 1.349 . S
C3447 C3445 1.327 . S
C3447 C3463 1.429 . S
C3447 H3469 0.935 1_565 S
C3448 H3444 0.949 . S
C3448 C3456 1.574 . S
C3448 C3464 1.368 . S
H3449 C3457 0.950 . S
H3450 C3455 0.950 . S
H3451 C3456 0.949 1_655 S
H3452 C3458 0.950 . S
H3453 C3459 0.950 . S
H3454 C3460 0.949 . S
C3455 H3450 0.950 . S
C3455 C3457 1.327 . S
C3455 C3461 1.429 . S
C3456 C3448 1.574 . S
C3456 H3451 0.949 1_455 S
C3456 C3462 1.368 1_455 S
C3457 C3441 1.349 . S
C3457 H3449 0.950 . S
C3457 C3455 1.327 . S
C3458 C3446 1.349 . S
C3458 H3452 0.950 . S
C3458 C3459 1.327 . S
C3459 H3453 0.950 . S
C3459 C3458 1.327 . S
C3459 C3463 1.429 . S
C3460 C3443 1.574 . S
C3460 H3454 0.949 . S
C3460 C3464 1.368 1_545 S
C3461 C3442 1.429 1_545 S
C3461 C3455 1.429 . S
C3461 C3462 1.523 1_545 S
C3462 C3443 1.368 1_665 S
C3462 C3456 1.368 1_655 S
C3462 C3461 1.523 1_565 S
C3463 C3447 1.429 . S
C3463 C3459 1.429 . S
C3463 C3464 1.523 . S
C3464 C3448 1.368 . S
C3464 C3460 1.368 1_565 S
C3464 C3463 1.523 . S
H3465 C3440 0.961 . S
H3466 C3442 0.950 . S
H3467 C3443 0.949 . S
H3468 C3445 0.950 . S
H3469 C3447 0.935 1_545 S
C3470 C3471 1.349 . S
C3470 C3472 1.327 . S
C3470 H3495 0.950 . S
C3471 C3470 1.349 . S
C3471 C3487 1.349 . S
C3472 C3470 1.327 . S
C3472 C3491 1.429 . S
C3472 H3496 0.950 . S
C3473 C3490 1.574 . S
C3473 C3492 1.368 . S
C3473 H3497 0.949 . S
H3474 C3478 0.949 . S
C3475 C3476 1.349 . S
C3475 C3477 1.327 . S
C3475 H3498 0.950 . S
C3476 C3475 1.349 . S
C3476 C3488 1.349 . S
C3477 C3475 1.327 . S
C3477 C3493 1.429 . S
C3477 H3499 0.950 . S
C3478 H3474 0.949 . S
C3478 C3486 1.574 . S
C3478 C3494 1.368 . S
H3479 C3487 0.950 . S
H3480 C3485 0.950 . S
H3481 C3486 0.949 . S
H3482 C3488 0.950 . S
H3483 C3489 0.950 . S
H3484 C3490 0.949 . S
C3485 H3480 0.950 . S
C3485 C3487 1.327 . S
C3485 C3491 1.429 . S
C3486 C3478 1.574 . S
C3486 H3481 0.949 . S
C3486 C3492 1.368 . S
C3487 C3471 1.349 . S
C3487 H3479 0.950 . S
C3487 C3485 1.327 . S
C3488 C3476 1.349 . S
C3488 H3482 0.950 . S
C3488 C3489 1.327 . S
C3489 H3483 0.950 . S
C3489 C3488 1.327 . S
C3489 C3493 1.429 . S
C3490 C3473 1.574 . S
C3490 H3484 0.949 . S
C3490 C3494 1.368 . S
C3491 C3472 1.429 . S
C3491 C3485 1.429 . S
C3491 C3492 1.523 . S
C3492 C3473 1.368 . S
C3492 C3486 1.368 . S
C3492 C3491 1.523 . S
C3493 C3477 1.429 . S
C3493 C3489 1.429 . S
C3493 C3494 1.523 . S
C3494 C3478 1.368 . S
C3494 C3490 1.368 . S
C3494 C3493 1.523 . S
H3495 C3470 0.950 . S
H3496 C3472 0.950 . S
H3497 C3473 0.949 . S
H3498 C3475 0.950 . S
H3499 C3477 0.950 . S
C3500 C3501 1.349 . S
C3500 C3502 1.327 . S
C3500 H3525 0.950 . S
C3501 C3500 1.349 . S
C3501 C3517 1.349 . S
C3502 C3500 1.327 . S
C3502 C3521 1.429 . S
C3502 H3526 0.950 . S
C3503 C3520 1.574 . S
C3503 C3522 1.368 1_455 S
C3503 H3527 0.949 1_455 S
H3504 C3508 0.949 . S
C3505 C3506 1.349 . S
C3505 C3507 1.327 . S
C3505 H3528 0.950 . S
C3506 C3505 1.349 . S
C3506 C3518 1.349 . S
C3507 C3505 1.327 . S
C3507 C3523 1.429 . S
C3507 H3529 0.950 . S
C3508 H3504 0.949 . S
C3508 C3516 1.574 . S
C3508 C3524 1.368 . S
H3509 C3517 0.950 . S
H3510 C3515 0.950 . S
H3511 C3516 0.949 1_655 S
H3512 C3518 0.950 . S
H3513 C3519 0.950 . S
H3514 C3520 0.949 . S
C3515 H3510 0.950 . S
C3515 C3517 1.327 . S
C3515 C3521 1.429 . S
C3516 C3508 1.574 . S
C3516 H3511 0.949 1_455 S
C3516 C3522 1.368 1_455 S
C3517 C3501 1.349 . S
C3517 H3509 0.950 . S
C3517 C3515 1.327 . S
C3518 C3506 1.349 . S
C3518 H3512 0.950 . S
C3518 C3519 1.327 . S
C3519 H3513 0.950 . S
C3519 C3518 1.327 . S
C3519 C3523 1.429 . S
C3520 C3503 1.574 . S
C3520 H3514 0.949 . S
C3520 C3524 1.368 . S
C3521 C3502 1.429 . S
C3521 C3515 1.429 . S
C3521 C3522 1.523 . S
C3522 C3503 1.368 1_655 S
C3522 C3516 1.368 1_655 S
C3522 C3521 1.523 . S
C3523 C3507 1.429 . S
C3523 C3519 1.429 . S
C3523 C3524 1.523 . S
C3524 C3508 1.368 . S
C3524 C3520 1.368 . S
C3524 C3523 1.523 . S
H3525 C3500 0.950 . S
H3526 C3502 0.950 . S
H3527 C3503 0.949 1_655 S
H3528 C3505 0.950 . S
H3529 C3507 0.950 . S
C3530 C3531 1.349 . S
C3530 C3532 1.325 1_545 S
C3530 H3555 0.950 . S
C3531 C3530 1.349 . S
C3531 C3547 1.349 . S
C3532 C3530 1.325 1_565 S
C3532 C3551 1.428 1_565 S
C3532 H3556 0.953 . S
C3533 C3550 1.566 1_545 S
C3533 C3552 1.362 1_545 S
C3533 H3557 0.966 . S
H3534 C3538 0.949 . S
C3535 C3536 1.349 . S
C3535 C3537 1.327 . S
C3535 H3558 0.950 . S
C3536 C3535 1.349 . S
C3536 C3548 1.349 . S
C3537 C3535 1.327 . S
C3537 C3553 1.429 . S
C3537 H3559 0.950 . S
C3538 H3534 0.949 . S
C3538 C3546 1.574 . S
C3538 C3554 1.368 . S
H3539 C3547 0.950 . S
H3540 C3545 0.950 . S
H3541 C3546 0.949 . S
H3542 C3548 0.950 . S
H3543 C3549 0.950 . S
H3544 C3550 0.949 . S
C3545 H3540 0.950 . S
C3545 C3547 1.327 . S
C3545 C3551 1.429 . S
C3546 C3538 1.574 . S
C3546 H3541 0.949 . S
C3546 C3552 1.368 . S
C3547 C3531 1.349 . S
C3547 H3539 0.950 . S
C3547 C3545 1.327 . S
C3548 C3536 1.349 . S
C3548 H3542 0.950 . S
C3548 C3549 1.327 . S
C3549 H3543 0.950 . S
C3549 C3548 1.327 . S
C3549 C3553 1.429 . S
C3550 C3533 1.566 1_565 S
C3550 H3544 0.949 . S
C3550 C3554 1.368 . S
C3551 C3532 1.428 1_545 S
C3551 C3545 1.429 . S
C3551 C3552 1.523 1_545 S
C3552 C3533 1.362 1_565 S
C3552 C3546 1.368 . S
C3552 C3551 1.523 1_565 S
C3553 C3537 1.429 . S
C3553 C3549 1.429 . S
C3553 C3554 1.523 . S
C3554 C3538 1.368 . S
C3554 C3550 1.368 . S
C3554 C3553 1.523 . S
H3555 C3530 0.950 . S
H3556 C3532 0.953 . S
H3557 C3533 0.966 . S
H3558 C3535 0.950 . S
H3559 C3537 0.950 . S
C3560 C3561 1.349 . S
C3560 C3562 1.327 . S
C3560 H3585 0.950 . S
C3561 C3560 1.349 . S
C3561 C3577 1.349 . S
C3562 C3560 1.327 . S
C3562 C3581 1.429 . S
C3562 H3586 0.950 . S
C3563 C3580 1.574 . S
C3563 C3582 1.368 . S
C3563 H3587 0.949 . S
H3564 C3568 0.941 1_465 S
C3565 C3566 1.349 . S
C3565 C3567 1.327 . S
C3565 H3588 0.950 . S
C3566 C3565 1.349 . S
C3566 C3578 1.349 . S
C3567 C3565 1.327 . S
C3567 C3583 1.429 . S
C3567 H3589 0.948 1_565 S
C3568 H3564 0.941 1_645 S
C3568 C3576 1.574 . S
C3568 C3584 1.368 1_655 S
H3569 C3577 0.950 . S
H3570 C3575 0.950 . S
H3571 C3576 0.949 . S
H3572 C3578 0.950 . S
H3573 C3579 0.950 . S
H3574 C3580 0.949 1_455 S
C3575 H3570 0.950 . S
C3575 C3577 1.327 . S
C3575 C3581 1.429 . S
C3576 C3568 1.574 . S
C3576 H3571 0.949 . S
C3576 C3582 1.368 . S
C3577 C3561 1.349 . S
C3577 H3569 0.950 . S
C3577 C3575 1.327 . S
C3578 C3566 1.349 . S
C3578 H3572 0.950 . S
C3578 C3579 1.327 . S
C3579 H3573 0.950 . S
C3579 C3578 1.327 . S
C3579 C3583 1.429 . S
C3580 C3563 1.574 . S
C3580 H3574 0.949 1_655 S
C3580 C3584 1.368 1_655 S
C3581 C3562 1.429 . S
C3581 C3575 1.429 . S
C3581 C3582 1.523 . S
C3582 C3563 1.368 . S
C3582 C3576 1.368 . S
C3582 C3581 1.523 . S
C3583 C3567 1.429 . S
C3583 C3579 1.429 . S
C3583 C3584 1.523 1_565 S
C3584 C3568 1.368 1_455 S
C3584 C3580 1.368 1_455 S
C3584 C3583 1.523 1_545 S
H3585 C3560 0.950 . S
H3586 C3562 0.950 . S
H3587 C3563 0.949 . S
H3588 C3565 0.950 . S
H3589 C3567 0.948 1_545 S
C3590 C3591 1.349 . S
C3590 C3592 1.327 . S
C3590 H3615 0.950 . S
C3591 C3590 1.349 . S
C3591 C3607 1.349 . S
C3592 C3590 1.327 . S
C3592 C3611 1.429 . S
C3592 H3616 0.950 . S
C3593 C3610 1.574 . S
C3593 C3612 1.368 . S
C3593 H3617 0.949 . S
H3594 C3598 0.949 . S
C3595 C3596 1.349 . S
C3595 C3597 1.327 . S
C3595 H3618 0.950 . S
C3596 C3595 1.349 . S
C3596 C3608 1.349 . S
C3597 C3595 1.327 . S
C3597 C3613 1.429 . S
C3597 H3619 0.950 . S
C3598 H3594 0.949 . S
C3598 C3606 1.574 . S
C3598 C3614 1.368 . S
H3599 C3607 0.950 . S
H3600 C3605 0.950 . S
H3601 C3606 0.949 . S
H3602 C3608 0.950 . S
H3603 C3609 0.950 . S
H3604 C3610 0.949 . S
C3605 H3600 0.950 . S
C3605 C3607 1.327 . S
C3605 C3611 1.429 . S
C3606 C3598 1.574 . S
C3606 H3601 0.949 . S
C3606 C3612 1.368 . S
C3607 C3591 1.349 . S
C3607 H3599 0.950 . S
C3607 C3605 1.327 . S
C3608 C3596 1.349 . S
C3608 H3602 0.950 . S
C3608 C3609 1.327 . S
C3609 H3603 0.950 . S
C3609 C3608 1.327 . S
C3609 C3613 1.429 . S
C3610 C3593 1.574 . S
C3610 H3604 0.949 . S
C3610 C3614 1.368 . S
C3611 C3592 1.429 . S
C3611 C3605 1.429 . S
C3611 C3612 1.523 . S
C3612 C3593 1.368 . S
C3612 C3606 1.368 . S
C3612 C3611 1.523 . S
C3613 C3597 1.429 . S
C3613 C3609 1.429 . S
C3613 C3614 1.523 . S
C3614 C3598 1.368 . S
C3614 C3610 1.368 . S
C3614 C3613 1.523 . S
H3615 C3590 0.950 . S
H3616 C3592 0.950 . S
H3617 C3593 0.949 . S
H3618 C3595 0.950 . S
H3619 C3597 0.950 . S
C3620 C3621 1.349 . S
C3620 C3622 1.327 . S
C3620 H3645 0.950 . S
C3621 C3620 1.349 . S
C3621 C3637 1.349 . S
C3622 C3620 1.327 . S
C3622 C3641 1.429 . S
C3622 H3646 0.950 . S
C3623 C3640 1.574 . S
C3623 C3642 1.368 1_655 S
C3623 H3647 0.949 1_655 S
H3624 C3628 0.949 . S
C3625 C3626 1.349 . S
C3625 C3627 1.327 . S
C3625 H3648 0.950 . S
C3626 C3625 1.349 . S
C3626 C3638 1.349 . S
C3627 C3625 1.327 . S
C3627 C3643 1.429 . S
C3627 H3649 0.950 . S
C3628 H3624 0.949 . S
C3628 C3636 1.574 . S
C3628 C3644 1.368 . S
H3629 C3637 0.950 . S
H3630 C3635 0.950 . S
H3631 C3636 0.949 1_455 S
H3632 C3638 0.950 . S
H3633 C3639 0.950 . S
H3634 C3640 0.949 . S
C3635 H3630 0.950 . S
C3635 C3637 1.327 . S
C3635 C3641 1.429 . S
C3636 C3628 1.574 . S
C3636 H3631 0.949 1_655 S
C3636 C3642 1.368 1_655 S
C3637 C3621 1.349 . S
C3637 H3629 0.950 . S
C3637 C3635 1.327 . S
C3638 C3626 1.349 . S
C3638 H3632 0.950 . S
C3638 C3639 1.327 . S
C3639 H3633 0.950 . S
C3639 C3638 1.327 . S
C3639 C3643 1.429 . S
C3640 C3623 1.574 . S
C3640 H3634 0.949 . S
C3640 C3644 1.368 . S
C3641 C3622 1.429 . S
C3641 C3635 1.429 . S
C3641 C3642 1.523 . S
C3642 C3623 1.368 1_455 S
C3642 C3636 1.368 1_455 S
C3642 C3641 1.523 . S
C3643 C3627 1.429 . S
C3643 C3639 1.429 . S
C3643 C3644 1.523 . S
C3644 C3628 1.368 . S
C3644 C3640 1.368 . S
C3644 C3643 1.523 . S
H3645 C3620 0.950 . S
H3646 C3622 0.950 . S
H3647 C3623 0.949 1_455 S
H3648 C3625 0.950 . S
H3649 C3627 0.950 . S
C3650 C3651 1.349 . S
C3650 C3652 1.327 . S
C3650 H3675 0.950 . S
C3651 C3650 1.349 . S
C3651 C3667 1.349 1_565 S
C3652 C3650 1.327 . S
C3652 C3671 1.429 . S
C3652 H3676 0.950 . S
C3653 C3670 1.574 . S
C3653 C3672 1.368 . S
C3653 H3677 0.949 . S
H3654 C3658 0.949 . S
C3655 C3656 1.349 . S
C3655 C3657 1.327 . S
C3655 H3678 0.950 . S
C3656 C3655 1.349 . S
C3656 C3668 1.349 . S
C3657 C3655 1.327 . S
C3657 C3673 1.429 . S
C3657 H3679 0.950 . S
C3658 H3654 0.949 . S
C3658 C3666 1.574 . S
C3658 C3674 1.368 1_565 S
H3659 C3667 0.950 . S
H3660 C3665 0.950 . S
H3661 C3666 0.949 . S
H3662 C3668 0.950 1_565 S
H3663 C3669 0.965 . S
H3664 C3670 0.949 . S
C3665 H3660 0.950 . S
C3665 C3667 1.327 . S
C3665 C3671 1.429 1_545 S
C3666 C3658 1.574 . S
C3666 H3661 0.949 . S
C3666 C3672 1.368 1_565 S
C3667 C3651 1.349 1_545 S
C3667 H3659 0.950 . S
C3667 C3665 1.327 . S
C3668 C3656 1.349 . S
C3668 H3662 0.950 1_545 S
C3668 C3669 1.324 1_545 S
C3669 H3663 0.965 . S
C3669 C3668 1.324 1_565 S
C3669 C3673 1.417 1_565 S
C3670 C3653 1.574 . S
C3670 H3664 0.949 . S
C3670 C3674 1.368 . S
C3671 C3652 1.429 . S
C3671 C3665 1.429 1_565 S
C3671 C3672 1.523 1_565 S
C3672 C3653 1.368 . S
C3672 C3666 1.368 1_545 S
C3672 C3671 1.523 1_545 S
C3673 C3657 1.429 . S
C3673 C3669 1.417 1_545 S
C3673 C3674 1.523 . S
C3674 C3658 1.368 1_545 S
C3674 C3670 1.368 . S
C3674 C3673 1.523 . S
H3675 C3650 0.950 . S
H3676 C3652 0.950 . S
H3677 C3653 0.949 . S
H3678 C3655 0.950 . S
H3679 C3657 0.950 . S
C3680 C3681 1.349 . S
C3680 C3682 1.327 . S
C3680 H3705 0.950 . S
C3681 C3680 1.349 . S
C3681 C3697 1.349 1_455 S
C3682 C3680 1.327 . S
C3682 C3701 1.429 . S
C3682 H3706 0.950 . S
C3683 C3700 1.574 1_554 S
C3683 C3702 1.368 1_655 S
C3683 H3707 0.949 . S
H3684 C3688 0.949 . S
C3685 C3686 1.349 . S
C3685 C3687 1.327 . S
C3685 H3708 0.950 . S
C3686 C3685 1.349 . S
C3686 C3698 1.349 1_655 S
C3687 C3685 1.327 . S
C3687 C3703 1.429 . S
C3687 H3709 0.950 . S
C3688 H3684 0.949 . S
C3688 C3696 1.574 1_556 S
C3688 C3704 1.368 1_455 S
H3689 C3697 0.950 . S
H3690 C3695 0.950 . S
H3691 C3696 0.949 . S
H3692 C3698 0.950 . S
H3693 C3699 0.950 . S
H3694 C3700 0.949 . S
C3695 H3690 0.950 . S
C3695 C3697 1.327 . S
C3695 C3701 1.429 1_655 S
C3696 C3688 1.574 1_554 S
C3696 H3691 0.949 . S
C3696 C3702 1.368 . S
C3697 C3681 1.349 1_655 S
C3697 H3689 0.950 . S
C3697 C3695 1.327 . S
C3698 C3686 1.349 1_455 S
C3698 H3692 0.950 . S
C3698 C3699 1.327 . S
C3699 H3693 0.950 . S
C3699 C3698 1.327 . S
C3699 C3703 1.429 1_455 S
C3700 C3683 1.574 1_556 S
C3700 H3694 0.949 . S
C3700 C3704 1.368 . S
C3701 C3682 1.429 . S
C3701 C3695 1.429 1_455 S
C3701 C3702 1.523 . S
C3702 C3683 1.368 1_455 S
C3702 C3696 1.368 . S
C3702 C3701 1.523 . S
C3703 C3687 1.429 . S
C3703 C3699 1.429 1_655 S
C3703 C3704 1.523 . S
C3704 C3688 1.368 1_655 S
C3704 C3700 1.368 . S
C3704 C3703 1.523 . S
H3705 C3680 0.950 . S
H3706 C3682 0.950 . S
H3707 C3683 0.949 . S
H3708 C3685 0.950 . S
H3709 C3687 0.950 . S
C3710 C3711 1.349 . S
C3710 C3712 1.327 . S
C3710 H3735 0.950 . S
C3711 C3710 1.349 . S
C3711 C3727 1.349 . S
C3712 C3710 1.327 . S
C3712 C3731 1.429 . S
C3712 H3736 0.950 . S
C3713 C3730 1.574 1_556 S
C3713 C3732 1.368 . S
C3713 H3737 0.949 . S
H3714 C3718 0.949 . S
C3715 C3716 1.349 . S
C3715 C3717 1.327 . S
C3715 H3738 0.950 . S
C3716 C3715 1.349 . S
C3716 C3728 1.349 . S
C3717 C3715 1.327 . S
C3717 C3733 1.429 . S
C3717 H3739 0.950 . S
C3718 H3714 0.949 . S
C3718 C3726 1.574 1_554 S
C3718 C3734 1.368 . S
H3719 C3727 0.950 . S
H3720 C3725 0.950 . S
H3721 C3726 0.949 . S
H3722 C3728 0.950 . S
H3723 C3729 0.950 . S
H3724 C3730 0.949 . S
C3725 H3720 0.950 . S
C3725 C3727 1.327 . S
C3725 C3731 1.429 . S
C3726 C3718 1.574 1_556 S
C3726 H3721 0.949 . S
C3726 C3732 1.368 . S
C3727 C3711 1.349 . S
C3727 H3719 0.950 . S
C3727 C3725 1.327 . S
C3728 C3716 1.349 . S
C3728 H3722 0.950 . S
C3728 C3729 1.327 . S
C3729 H3723 0.950 . S
C3729 C3728 1.327 . S
C3729 C3733 1.429 . S
C3730 C3713 1.574 1_554 S
C3730 H3724 0.949 . S
C3730 C3734 1.368 . S
C3731 C3712 1.429 . S
C3731 C3725 1.429 . S
C3731 C3732 1.523 . S
C3732 C3713 1.368 . S
C3732 C3726 1.368 . S
C3732 C3731 1.523 . S
C3733 C3717 1.429 . S
C3733 C3729 1.429 . S
C3733 C3734 1.523 . S
C3734 C3718 1.368 . S
C3734 C3730 1.368 . S
C3734 C3733 1.523 . S
H3735 C3710 0.950 . S
H3736 C3712 0.950 . S
H3737 C3713 0.949 . S
H3738 C3715 0.950 . S
H3739 C3717 0.950 . S
C3740 C3741 1.349 . S
C3740 C3742 1.327 . S
C3740 H3765 0.950 . S
C3741 C3740 1.349 . S
C3741 C3757 1.349 1_655 S
C3742 C3740 1.327 . S
C3742 C3761 1.429 . S
C3742 H3766 0.950 . S
C3743 C3760 1.574 . S
C3743 C3762 1.368 1_455 S
C3743 H3767 0.949 . S
H3744 C3748 0.949 . S
C3745 C3746 1.349 . S
C3745 C3747 1.327 . S
C3745 H3768 0.950 . S
C3746 C3745 1.349 . S
C3746 C3758 1.349 1_455 S
C3747 C3745 1.327 . S
C3747 C3763 1.429 . S
C3747 H3769 0.950 . S
C3748 H3744 0.949 . S
C3748 C3756 1.574 . S
C3748 C3764 1.368 1_655 S
H3749 C3757 0.950 . S
H3750 C3755 0.950 . S
H3751 C3756 0.949 . S
H3752 C3758 0.950 . S
H3753 C3759 0.950 . S
H3754 C3760 0.949 . S
C3755 H3750 0.950 . S
C3755 C3757 1.327 . S
C3755 C3761 1.429 1_455 S
C3756 C3748 1.574 . S
C3756 H3751 0.949 . S
C3756 C3762 1.368 . S
C3757 C3741 1.349 1_455 S
C3757 H3749 0.950 . S
C3757 C3755 1.327 . S
C3758 C3746 1.349 1_655 S
C3758 H3752 0.950 . S
C3758 C3759 1.327 . S
C3759 H3753 0.950 . S
C3759 C3758 1.327 . S
C3759 C3763 1.429 1_655 S
C3760 C3743 1.574 . S
C3760 H3754 0.949 . S
C3760 C3764 1.368 . S
C3761 C3742 1.429 . S
C3761 C3755 1.429 1_655 S
C3761 C3762 1.523 . S
C3762 C3743 1.368 1_655 S
C3762 C3756 1.368 . S
C3762 C3761 1.523 . S
C3763 C3747 1.429 . S
C3763 C3759 1.429 1_455 S
C3763 C3764 1.523 . S
C3764 C3748 1.368 1_455 S
C3764 C3760 1.368 . S
C3764 C3763 1.523 . S
H3765 C3740 0.950 . S
H3766 C3742 0.950 . S
H3767 C3743 0.949 . S
H3768 C3745 0.950 . S
H3769 C3747 0.950 . S
C3770 C3771 1.349 . S
C3770 C3772 1.327 . S
C3770 H3795 0.950 . S
C3771 C3770 1.349 . S
C3771 C3787 1.349 . S
C3772 C3770 1.327 . S
C3772 C3791 1.429 . S
C3772 H3796 0.950 . S
C3773 C3790 1.574 . S
C3773 C3792 1.368 . S
C3773 H3797 0.949 . S
H3774 C3778 0.949 . S
C3775 C3776 1.349 . S
C3775 C3777 1.327 . S
C3775 H3798 0.950 . S
C3776 C3775 1.349 . S
C3776 C3788 1.349 . S
C3777 C3775 1.327 . S
C3777 C3793 1.429 . S
C3777 H3799 0.950 . S
C3778 H3774 0.949 . S
C3778 C3786 1.574 . S
C3778 C3794 1.368 . S
H3779 C3787 0.950 . S
H3780 C3785 0.950 . S
H3781 C3786 0.949 . S
H3782 C3788 0.950 . S
H3783 C3789 0.950 . S
H3784 C3790 0.949 . S
C3785 H3780 0.950 . S
C3785 C3787 1.327 . S
C3785 C3791 1.429 . S
C3786 C3778 1.574 . S
C3786 H3781 0.949 . S
C3786 C3792 1.368 . S
C3787 C3771 1.349 . S
C3787 H3779 0.950 . S
C3787 C3785 1.327 . S
C3788 C3776 1.349 . S
C3788 H3782 0.950 . S
C3788 C3789 1.327 . S
C3789 H3783 0.950 . S
C3789 C3788 1.327 . S
C3789 C3793 1.429 . S
C3790 C3773 1.574 . S
C3790 H3784 0.949 . S
C3790 C3794 1.368 . S
C3791 C3772 1.429 . S
C3791 C3785 1.429 . S
C3791 C3792 1.523 . S
C3792 C3773 1.368 . S
C3792 C3786 1.368 . S
C3792 C3791 1.523 . S
C3793 C3777 1.429 . S
C3793 C3789 1.429 . S
C3793 C3794 1.523 . S
C3794 C3778 1.368 . S
C3794 C3790 1.368 . S
C3794 C3793 1.523 . S
H3795 C3770 0.950 . S
H3796 C3772 0.950 . S
H3797 C3773 0.949 . S
H3798 C3775 0.950 . S
H3799 C3777 0.950 . S
C3800 C3801 1.349 . S
C3800 C3802 1.327 . S
C3800 H3825 0.950 . S
C3801 C3800 1.349 . S
C3801 C3817 1.349 . S
C3802 C3800 1.327 . S
C3802 C3821 1.429 . S
C3802 H3826 0.950 . S
C3803 C3820 1.574 1_556 S
C3803 C3822 1.368 . S
C3803 H3827 0.949 . S
H3804 C3808 0.949 . S
C3805 C3806 1.349 . S
C3805 C3807 1.327 . S
C3805 H3828 0.950 . S
C3806 C3805 1.349 . S
C3806 C3818 1.349 . S
C3807 C3805 1.327 . S
C3807 C3823 1.429 . S
C3807 H3829 0.950 . S
C3808 H3804 0.949 . S
C3808 C3816 1.574 1_554 S
C3808 C3824 1.368 . S
H3809 C3817 0.950 . S
H3810 C3815 0.950 . S
H3811 C3816 0.949 . S
H3812 C3818 0.950 . S
H3813 C3819 0.950 . S
H3814 C3820 0.949 . S
C3815 H3810 0.950 . S
C3815 C3817 1.327 . S
C3815 C3821 1.429 . S
C3816 C3808 1.574 1_556 S
C3816 H3811 0.949 . S
C3816 C3822 1.368 . S
C3817 C3801 1.349 . S
C3817 H3809 0.950 . S
C3817 C3815 1.327 . S
C3818 C3806 1.349 . S
C3818 H3812 0.950 . S
C3818 C3819 1.327 . S
C3819 H3813 0.950 . S
C3819 C3818 1.327 . S
C3819 C3823 1.429 . S
C3820 C3803 1.574 1_554 S
C3820 H3814 0.949 . S
C3820 C3824 1.368 . S
C3821 C3802 1.429 . S
C3821 C3815 1.429 . S
C3821 C3822 1.523 . S
C3822 C3803 1.368 . S
C3822 C3816 1.368 . S
C3822 C3821 1.523 . S
C3823 C3807 1.429 . S
C3823 C3819 1.429 . S
C3823 C3824 1.523 . S
C3824 C3808 1.368 . S
C3824 C3820 1.368 . S
C3824 C3823 1.523 . S
H3825 C3800 0.950 . S
H3826 C3802 0.950 . S
H3827 C3803 0.949 . S
H3828 C3805 0.950 . S
H3829 C3807 0.950 . S
C3830 C3831 1.349 . S
C3830 C3832 1.327 . S
C3830 H3855 0.950 . S
C3831 C3830 1.349 . S
C3831 C3847 1.349 1_655 S
C3832 C3830 1.327 . S
C3832 C3851 1.429 . S
C3832 H3856 0.950 . S
C3833 C3850 1.574 . S
C3833 C3852 1.368 1_455 S
C3833 H3857 0.949 . S
H3834 C3838 0.949 . S
C3835 C3836 1.349 . S
C3835 C3837 1.327 . S
C3835 H3858 0.950 . S
C3836 C3835 1.349 . S
C3836 C3848 1.349 1_455 S
C3837 C3835 1.327 . S
C3837 C3853 1.429 . S
C3837 H3859 0.950 . S
C3838 H3834 0.949 . S
C3838 C3846 1.574 . S
C3838 C3854 1.368 1_655 S
H3839 C3847 0.950 . S
H3840 C3845 0.950 . S
H3841 C3846 0.949 . S
H3842 C3848 0.950 . S
H3843 C3849 0.950 . S
H3844 C3850 0.949 . S
C3845 H3840 0.950 . S
C3845 C3847 1.327 . S
C3845 C3851 1.429 1_455 S
C3846 C3838 1.574 . S
C3846 H3841 0.949 . S
C3846 C3852 1.368 . S
C3847 C3831 1.349 1_455 S
C3847 H3839 0.950 . S
C3847 C3845 1.327 . S
C3848 C3836 1.349 1_655 S
C3848 H3842 0.950 . S
C3848 C3849 1.327 . S
C3849 H3843 0.950 . S
C3849 C3848 1.327 . S
C3849 C3853 1.429 1_655 S
C3850 C3833 1.574 . S
C3850 H3844 0.949 . S
C3850 C3854 1.368 . S
C3851 C3832 1.429 . S
C3851 C3845 1.429 1_655 S
C3851 C3852 1.523 . S
C3852 C3833 1.368 1_655 S
C3852 C3846 1.368 . S
C3852 C3851 1.523 . S
C3853 C3837 1.429 . S
C3853 C3849 1.429 1_455 S
C3853 C3854 1.523 . S
C3854 C3838 1.368 1_455 S
C3854 C3850 1.368 . S
C3854 C3853 1.523 . S
H3855 C3830 0.950 . S
H3856 C3832 0.950 . S
H3857 C3833 0.949 . S
H3858 C3835 0.950 . S
H3859 C3837 0.950 . S
C3860 C3861 1.349 . S
C3860 C3862 1.327 . S
C3860 H3885 0.950 . S
C3861 C3860 1.349 . S
C3861 C3877 1.349 . S
C3862 C3860 1.327 . S
C3862 C3881 1.429 . S
C3862 H3886 0.950 . S
C3863 C3880 1.574 . S
C3863 C3882 1.368 . S
C3863 H3887 0.949 . S
H3864 C3868 0.949 . S
C3865 C3866 1.349 . S
C3865 C3867 1.327 . S
C3865 H3888 0.950 . S
C3866 C3865 1.349 . S
C3866 C3878 1.349 . S
C3867 C3865 1.327 . S
C3867 C3883 1.429 . S
C3867 H3889 0.950 . S
C3868 H3864 0.949 . S
C3868 C3876 1.574 . S
C3868 C3884 1.368 . S
H3869 C3877 0.950 . S
H3870 C3875 0.950 . S
H3871 C3876 0.949 . S
H3872 C3878 0.950 . S
H3873 C3879 0.950 . S
H3874 C3880 0.949 . S
C3875 H3870 0.950 . S
C3875 C3877 1.327 . S
C3875 C3881 1.429 . S
C3876 C3868 1.574 . S
C3876 H3871 0.949 . S
C3876 C3882 1.368 . S
C3877 C3861 1.349 . S
C3877 H3869 0.950 . S
C3877 C3875 1.327 . S
C3878 C3866 1.349 . S
C3878 H3872 0.950 . S
C3878 C3879 1.327 . S
C3879 H3873 0.950 . S
C3879 C3878 1.327 . S
C3879 C3883 1.429 . S
C3880 C3863 1.574 . S
C3880 H3874 0.949 . S
C3880 C3884 1.368 . S
C3881 C3862 1.429 . S
C3881 C3875 1.429 . S
C3881 C3882 1.523 . S
C3882 C3863 1.368 . S
C3882 C3876 1.368 . S
C3882 C3881 1.523 . S
C3883 C3867 1.429 . S
C3883 C3879 1.429 . S
C3883 C3884 1.523 . S
C3884 C3868 1.368 . S
C3884 C3880 1.368 . S
C3884 C3883 1.523 . S
H3885 C3860 0.950 . S
H3886 C3862 0.950 . S
H3887 C3863 0.949 . S
H3888 C3865 0.950 . S
H3889 C3867 0.950 . S
C3890 C3891 1.349 1_655 S
C3890 C3892 1.327 . S
C3890 H3915 0.950 . S
C3891 C3890 1.349 1_455 S
C3891 C3907 1.349 1_565 S
C3892 C3890 1.327 . S
C3892 C3911 1.429 1_655 S
C3892 H3916 0.950 . S
C3893 C3910 1.574 . S
C3893 C3912 1.334 1_545 S
C3893 H3917 0.949 . S
H3894 C3898 0.949 . S
C3895 C3896 1.349 1_455 S
C3895 C3897 1.327 . S
C3895 H3918 0.950 . S
C3896 C3895 1.349 1_655 S
C3896 C3908 1.349 1_545 S
C3897 C3895 1.327 . S
C3897 C3913 1.429 1_455 S
C3897 H3919 0.950 . S
C3898 H3894 0.949 . S
C3898 C3906 1.574 . S
C3898 C3914 1.334 1_565 S
H3899 C3907 0.950 . S
H3900 C3905 0.950 . S
H3901 C3906 0.949 . S
H3902 C3908 0.950 . S
H3903 C3909 0.950 . S
H3904 C3910 0.949 . S
C3905 H3900 0.950 . S
C3905 C3907 1.327 . S
C3905 C3911 1.429 1_545 S
C3906 C3898 1.574 . S
C3906 H3901 0.949 . S
C3906 C3912 1.402 1_655 S
C3907 C3891 1.349 1_545 S
C3907 H3899 0.950 . S
C3907 C3905 1.327 . S
C3908 C3896 1.349 1_565 S
C3908 H3902 0.950 . S
C3908 C3909 1.327 . S
C3909 H3903 0.950 . S
C3909 C3908 1.327 . S
C3909 C3913 1.429 1_565 S
C3910 C3893 1.574 . S
C3910 H3904 0.949 . S
C3910 C3914 1.402 1_455 S
C3911 C3892 1.429 1_455 S
C3911 C3905 1.429 1_565 S
C3911 C3912 1.525 . S
C3912 C3893 1.334 1_565 S
C3912 C3906 1.402 1_455 S
C3912 C3911 1.525 . S
C3913 C3897 1.429 1_655 S
C3913 C3909 1.429 1_545 S
C3913 C3914 1.525 . S
C3914 C3898 1.334 1_545 S
C3914 C3910 1.402 1_655 S
C3914 C3913 1.525 . S
H3915 C3890 0.950 . S
H3916 C3892 0.950 . S
H3917 C3893 0.949 . S
H3918 C3895 0.950 . S
H3919 C3897 0.950 . S
C3920 C3921 1.349 . S
C3920 C3922 1.327 . S
C3920 H3945 0.950 . S
C3921 C3920 1.349 . S
C3921 C3937 1.349 . S
C3922 C3920 1.327 . S
C3922 C3941 1.429 . S
C3922 H3946 0.950 . S
C3923 C3940 1.574 . S
C3923 C3942 1.368 . S
C3923 H3947 0.949 . S
H3924 C3928 0.949 . S
C3925 C3926 1.349 . S
C3925 C3927 1.327 . S
C3925 H3948 0.950 . S
C3926 C3925 1.349 . S
C3926 C3938 1.349 . S
C3927 C3925 1.327 . S
C3927 C3943 1.429 . S
C3927 H3949 0.950 . S
C3928 H3924 0.949 . S
C3928 C3936 1.574 . S
C3928 C3944 1.368 . S
H3929 C3937 0.950 . S
H3930 C3935 0.950 . S
H3931 C3936 0.949 . S
H3932 C3938 0.950 . S
H3933 C3939 0.950 . S
H3934 C3940 0.949 . S
C3935 H3930 0.950 . S
C3935 C3937 1.327 . S
C3935 C3941 1.429 . S
C3936 C3928 1.574 . S
C3936 H3931 0.949 . S
C3936 C3942 1.368 . S
C3937 C3921 1.349 . S
C3937 H3929 0.950 . S
C3937 C3935 1.327 . S
C3938 C3926 1.349 . S
C3938 H3932 0.950 . S
C3938 C3939 1.327 . S
C3939 H3933 0.950 . S
C3939 C3938 1.327 . S
C3939 C3943 1.429 . S
C3940 C3923 1.574 . S
C3940 H3934 0.949 . S
C3940 C3944 1.368 . S
C3941 C3922 1.429 . S
C3941 C3935 1.429 . S
C3941 C3942 1.523 . S
C3942 C3923 1.368 . S
C3942 C3936 1.368 . S
C3942 C3941 1.523 . S
C3943 C3927 1.429 . S
C3943 C3939 1.429 . S
C3943 C3944 1.523 . S
C3944 C3928 1.368 . S
C3944 C3940 1.368 . S
C3944 C3943 1.523 . S
H3945 C3920 0.950 . S
H3946 C3922 0.950 . S
H3947 C3923 0.949 . S
H3948 C3925 0.950 . S
H3949 C3927 0.950 . S
C3950 C3951 1.349 . S
C3950 C3952 1.327 . S
C3950 H3975 0.950 . S
C3951 C3950 1.349 . S
C3951 C3967 1.349 1_545 S
C3952 C3950 1.327 . S
C3952 C3971 1.429 . S
C3952 H3976 0.950 . S
C3953 C3970 1.574 . S
C3953 C3972 1.333 1_565 S
C3953 H3977 0.949 . S
H3954 C3958 0.949 . S
C3955 C3956 1.349 . S
C3955 C3957 1.327 . S
C3955 H3978 0.950 . S
C3956 C3955 1.349 . S
C3956 C3968 1.349 1_565 S
C3957 C3955 1.327 . S
C3957 C3973 1.429 . S
C3957 H3979 0.950 . S
C3958 H3954 0.949 . S
C3958 C3966 1.574 . S
C3958 C3974 1.333 1_545 S
H3959 C3967 0.950 . S
H3960 C3965 0.950 . S
H3961 C3966 0.949 . S
H3962 C3968 0.950 . S
H3963 C3969 0.950 . S
H3964 C3970 0.949 . S
C3965 H3960 0.950 . S
C3965 C3967 1.327 . S
C3965 C3971 1.429 1_565 S
C3966 C3958 1.574 . S
C3966 H3961 0.949 . S
C3966 C3972 1.403 . S
C3967 C3951 1.349 1_565 S
C3967 H3959 0.950 . S
C3967 C3965 1.327 . S
C3968 C3956 1.349 1_545 S
C3968 H3962 0.950 . S
C3968 C3969 1.327 . S
C3969 H3963 0.950 . S
C3969 C3968 1.327 . S
C3969 C3973 1.429 1_545 S
C3970 C3953 1.574 . S
C3970 H3964 0.949 . S
C3970 C3974 1.403 . S
C3971 C3952 1.429 . S
C3971 C3965 1.429 1_545 S
C3971 C3972 1.525 . S
C3972 C3953 1.333 1_545 S
C3972 C3966 1.403 . S
C3972 C3971 1.525 . S
C3973 C3957 1.429 . S
C3973 C3969 1.429 1_565 S
C3973 C3974 1.525 . S
C3974 C3958 1.333 1_565 S
C3974 C3970 1.403 . S
C3974 C3973 1.525 . S
H3975 C3950 0.950 . S
H3976 C3952 0.950 . S
H3977 C3953 0.949 . S
H3978 C3955 0.950 . S
H3979 C3957 0.950 . S
C3980 C3981 1.349 . S
C3980 C3982 1.327 . S
C3980 H4005 0.950 . S
C3981 C3980 1.349 . S
C3981 C3997 1.349 . S
C3982 C3980 1.327 . S
C3982 C4001 1.429 . S
C3982 H4006 0.950 . S
C3983 C4000 1.574 . S
C3983 C4002 1.368 . S
C3983 H4007 0.949 . S
H3984 C3988 0.949 . S
C3985 C3986 1.349 . S
C3985 C3987 1.327 . S
C3985 H4008 0.950 . S
C3986 C3985 1.349 . S
C3986 C3998 1.349 . S
C3987 C3985 1.327 . S
C3987 C4003 1.429 . S
C3987 H4009 0.950 . S
C3988 H3984 0.949 . S
C3988 C3996 1.574 . S
C3988 C4004 1.368 . S
H3989 C3997 0.950 . S
H3990 C3995 0.950 . S
H3991 C3996 0.949 . S
H3992 C3998 0.950 . S
H3993 C3999 0.950 . S
H3994 C4000 0.949 . S
C3995 H3990 0.950 . S
C3995 C3997 1.327 . S
C3995 C4001 1.429 . S
C3996 C3988 1.574 . S
C3996 H3991 0.949 . S
C3996 C4002 1.368 . S
C3997 C3981 1.349 . S
C3997 H3989 0.950 . S
C3997 C3995 1.327 . S
C3998 C3986 1.349 . S
C3998 H3992 0.950 . S
C3998 C3999 1.327 . S
C3999 H3993 0.950 . S
C3999 C3998 1.327 . S
C3999 C4003 1.429 . S
C4000 C3983 1.574 . S
C4000 H3994 0.949 . S
C4000 C4004 1.368 . S
C4001 C3982 1.429 . S
C4001 C3995 1.429 . S
C4001 C4002 1.523 . S
C4002 C3983 1.368 . S
C4002 C3996 1.368 . S
C4002 C4001 1.523 . S
C4003 C3987 1.429 . S
C4003 C3999 1.429 . S
C4003 C4004 1.523 . S
C4004 C3988 1.368 . S
C4004 C4000 1.368 . S
C4004 C4003 1.523 . S
H4005 C3980 0.950 . S
H4006 C3982 0.950 . S
H4007 C3983 0.949 . S
H4008 C3985 0.950 . S
H4009 C3987 0.950 . S
C4010 C4011 1.349 . S
C4010 C4012 1.327 . S
C4010 H4035 0.950 . S
C4011 C4010 1.349 . S
C4011 C4027 1.349 1_565 S
C4012 C4010 1.327 . S
C4012 C4031 1.429 . S
C4012 H4036 0.950 . S
C4013 C4030 1.574 . S
C4013 C4032 1.335 1_545 S
C4013 H4037 0.949 . S
H4014 C4018 0.949 . S
C4015 C4016 1.349 . S
C4015 C4017 1.327 . S
C4015 H4038 0.950 . S
C4016 C4015 1.349 . S
C4016 C4028 1.349 1_545 S
C4017 C4015 1.327 . S
C4017 C4033 1.429 . S
C4017 H4039 0.950 . S
C4018 H4014 0.949 . S
C4018 C4026 1.574 . S
C4018 C4034 1.335 1_565 S
H4019 C4027 0.950 . S
H4020 C4025 0.950 . S
H4021 C4026 0.949 . S
H4022 C4028 0.950 . S
H4023 C4029 0.950 . S
H4024 C4030 0.949 . S
C4025 H4020 0.950 . S
C4025 C4027 1.327 . S
C4025 C4031 1.429 1_545 S
C4026 C4018 1.574 . S
C4026 H4021 0.949 . S
C4026 C4032 1.401 . S
C4027 C4011 1.349 1_545 S
C4027 H4019 0.950 . S
C4027 C4025 1.327 . S
C4028 C4016 1.349 1_565 S
C4028 H4022 0.950 . S
C4028 C4029 1.327 . S
C4029 H4023 0.950 . S
C4029 C4028 1.327 . S
C4029 C4033 1.429 1_565 S
C4030 C4013 1.574 . S
C4030 H4024 0.949 . S
C4030 C4034 1.401 . S
C4031 C4012 1.429 . S
C4031 C4025 1.429 1_565 S
C4031 C4032 1.525 . S
C4032 C4013 1.335 1_565 S
C4032 C4026 1.401 . S
C4032 C4031 1.525 . S
C4033 C4017 1.429 . S
C4033 C4029 1.429 1_545 S
C4033 C4034 1.525 . S
C4034 C4018 1.335 1_545 S
C4034 C4030 1.401 . S
C4034 C4033 1.525 . S
H4035 C4010 0.950 . S
H4036 C4012 0.950 . S
H4037 C4013 0.949 . S
H4038 C4015 0.950 . S
H4039 C4017 0.950 . S
C4040 C4041 1.349 . S
C4040 C4042 1.327 . S
C4040 H4065 0.950 . S
C4041 C4040 1.349 . S
C4041 C4057 1.349 . S
C4042 C4040 1.327 . S
C4042 C4061 1.429 . S
C4042 H4066 0.950 . S
C4043 C4060 1.574 . S
C4043 C4062 1.368 . S
C4043 H4067 0.949 . S
H4044 C4048 0.949 . S
C4045 C4046 1.349 . S
C4045 C4047 1.327 . S
C4045 H4068 0.950 . S
C4046 C4045 1.349 . S
C4046 C4058 1.349 . S
C4047 C4045 1.327 . S
C4047 C4063 1.429 . S
C4047 H4069 0.950 . S
C4048 H4044 0.949 . S
C4048 C4056 1.574 . S
C4048 C4064 1.368 . S
H4049 C4057 0.950 . S
H4050 C4055 0.950 . S
H4051 C4056 0.949 . S
H4052 C4058 0.950 . S
H4053 C4059 0.950 . S
H4054 C4060 0.949 . S
C4055 H4050 0.950 . S
C4055 C4057 1.327 . S
C4055 C4061 1.429 . S
C4056 C4048 1.574 . S
C4056 H4051 0.949 . S
C4056 C4062 1.368 . S
C4057 C4041 1.349 . S
C4057 H4049 0.950 . S
C4057 C4055 1.327 . S
C4058 C4046 1.349 . S
C4058 H4052 0.950 . S
C4058 C4059 1.327 . S
C4059 H4053 0.950 . S
C4059 C4058 1.327 . S
C4059 C4063 1.429 . S
C4060 C4043 1.574 . S
C4060 H4054 0.949 . S
C4060 C4064 1.368 . S
C4061 C4042 1.429 . S
C4061 C4055 1.429 . S
C4061 C4062 1.523 . S
C4062 C4043 1.368 . S
C4062 C4056 1.368 . S
C4062 C4061 1.523 . S
C4063 C4047 1.429 . S
C4063 C4059 1.429 . S
C4063 C4064 1.523 . S
C4064 C4048 1.368 . S
C4064 C4060 1.368 . S
C4064 C4063 1.523 . S
H4065 C4040 0.950 . S
H4066 C4042 0.950 . S
H4067 C4043 0.949 . S
H4068 C4045 0.950 . S
H4069 C4047 0.950 . S
C4070 C4071 1.349 . S
C4070 C4072 1.327 . S
C4070 H4095 0.950 . S
C4071 C4070 1.349 . S
C4071 C4087 1.349 . S
C4072 C4070 1.327 . S
C4072 C4091 1.429 . S
C4072 H4096 0.950 . S
C4073 C4090 1.574 . S
C4073 C4092 1.368 . S
C4073 H4097 0.949 . S
H4074 C4078 0.949 . S
C4075 C4076 1.349 . S
C4075 C4077 1.327 . S
C4075 H4098 0.950 . S
C4076 C4075 1.349 . S
C4076 C4088 1.349 . S
C4077 C4075 1.327 . S
C4077 C4093 1.429 . S
C4077 H4099 0.950 . S
C4078 H4074 0.949 . S
C4078 C4086 1.574 . S
C4078 C4094 1.368 . S
H4079 C4087 0.950 . S
H4080 C4085 0.950 . S
H4081 C4086 0.949 . S
H4082 C4088 0.950 . S
H4083 C4089 0.950 . S
H4084 C4090 0.949 . S
C4085 H4080 0.950 . S
C4085 C4087 1.327 . S
C4085 C4091 1.429 . S
C4086 C4078 1.574 . S
C4086 H4081 0.949 . S
C4086 C4092 1.368 . S
C4087 C4071 1.349 . S
C4087 H4079 0.950 . S
C4087 C4085 1.327 . S
C4088 C4076 1.349 . S
C4088 H4082 0.950 . S
C4088 C4089 1.327 . S
C4089 H4083 0.950 . S
C4089 C4088 1.327 . S
C4089 C4093 1.429 . S
C4090 C4073 1.574 . S
C4090 H4084 0.949 . S
C4090 C4094 1.368 . S
C4091 C4072 1.429 . S
C4091 C4085 1.429 . S
C4091 C4092 1.523 . S
C4092 C4073 1.368 . S
C4092 C4086 1.368 . S
C4092 C4091 1.523 . S
C4093 C4077 1.429 . S
C4093 C4089 1.429 . S
C4093 C4094 1.523 . S
C4094 C4078 1.368 . S
C4094 C4090 1.368 . S
C4094 C4093 1.523 . S
H4095 C4070 0.950 . S
H4096 C4072 0.950 . S
H4097 C4073 0.949 . S
H4098 C4075 0.950 . S
H4099 C4077 0.950 . S
C4100 C4101 1.349 . S
C4100 C4102 1.327 . S
C4100 H4125 0.950 . S
C4101 C4100 1.349 . S
C4101 C4117 1.349 . S
C4102 C4100 1.327 . S
C4102 C4121 1.429 . S
C4102 H4126 0.950 . S
C4103 C4120 1.574 . S
C4103 C4122 1.368 . S
C4103 H4127 0.949 . S
H4104 C4108 0.949 . S
C4105 C4106 1.349 . S
C4105 C4107 1.327 . S
C4105 H4128 0.950 . S
C4106 C4105 1.349 . S
C4106 C4118 1.349 . S
C4107 C4105 1.327 . S
C4107 C4123 1.429 . S
C4107 H4129 0.950 . S
C4108 H4104 0.949 . S
C4108 C4116 1.574 . S
C4108 C4124 1.368 . S
H4109 C4117 0.950 . S
H4110 C4115 0.950 . S
H4111 C4116 0.949 . S
H4112 C4118 0.950 . S
H4113 C4119 0.950 . S
H4114 C4120 0.949 . S
C4115 H4110 0.950 . S
C4115 C4117 1.327 . S
C4115 C4121 1.429 . S
C4116 C4108 1.574 . S
C4116 H4111 0.949 . S
C4116 C4122 1.368 . S
C4117 C4101 1.349 . S
C4117 H4109 0.950 . S
C4117 C4115 1.327 . S
C4118 C4106 1.349 . S
C4118 H4112 0.950 . S
C4118 C4119 1.327 . S
C4119 H4113 0.950 . S
C4119 C4118 1.327 . S
C4119 C4123 1.429 . S
C4120 C4103 1.574 . S
C4120 H4114 0.949 . S
C4120 C4124 1.368 . S
C4121 C4102 1.429 . S
C4121 C4115 1.429 . S
C4121 C4122 1.523 . S
C4122 C4103 1.368 . S
C4122 C4116 1.368 . S
C4122 C4121 1.523 . S
C4123 C4107 1.429 . S
C4123 C4119 1.429 . S
C4123 C4124 1.523 . S
C4124 C4108 1.368 . S
C4124 C4120 1.368 . S
C4124 C4123 1.523 . S
H4125 C4100 0.950 . S
H4126 C4102 0.950 . S
H4127 C4103 0.949 . S
H4128 C4105 0.950 . S
H4129 C4107 0.950 . S
C4130 C4131 1.349 . S
C4130 C4132 1.327 . S
C4130 H4155 0.950 . S
C4131 C4130 1.349 . S
C4131 C4147 1.349 1_565 S
C4132 C4130 1.327 . S
C4132 C4151 1.429 . S
C4132 H4156 0.950 . S
C4133 C4150 1.574 1_554 S
C4133 C4152 1.336 1_545 S
C4133 H4157 0.949 . S
H4134 C4138 0.949 . S
C4135 C4136 1.349 . S
C4135 C4137 1.327 . S
C4135 H4158 0.950 . S
C4136 C4135 1.349 . S
C4136 C4148 1.349 1_545 S
C4137 C4135 1.327 . S
C4137 C4153 1.429 . S
C4137 H4159 0.950 . S
C4138 H4134 0.949 . S
C4138 C4146 1.574 1_556 S
C4138 C4154 1.336 1_565 S
H4139 C4147 0.950 . S
H4140 C4145 0.950 . S
H4141 C4146 0.949 . S
H4142 C4148 0.950 . S
H4143 C4149 0.950 . S
H4144 C4150 0.949 . S
C4145 H4140 0.950 . S
C4145 C4147 1.327 . S
C4145 C4151 1.429 1_545 S
C4146 C4138 1.574 1_554 S
C4146 H4141 0.949 . S
C4146 C4152 1.400 . S
C4147 C4131 1.349 1_545 S
C4147 H4139 0.950 . S
C4147 C4145 1.327 . S
C4148 C4136 1.349 1_565 S
C4148 H4142 0.950 . S
C4148 C4149 1.327 . S
C4149 H4143 0.950 . S
C4149 C4148 1.327 . S
C4149 C4153 1.429 1_565 S
C4150 C4133 1.574 1_556 S
C4150 H4144 0.949 . S
C4150 C4154 1.400 . S
C4151 C4132 1.429 . S
C4151 C4145 1.429 1_565 S
C4151 C4152 1.525 . S
C4152 C4133 1.336 1_565 S
C4152 C4146 1.400 . S
C4152 C4151 1.525 . S
C4153 C4137 1.429 . S
C4153 C4149 1.429 1_545 S
C4153 C4154 1.525 . S
C4154 C4138 1.336 1_545 S
C4154 C4150 1.400 . S
C4154 C4153 1.525 . S
H4155 C4130 0.950 . S
H4156 C4132 0.950 . S
H4157 C4133 0.949 . S
H4158 C4135 0.950 . S
H4159 C4137 0.950 . S
C1281 C10 1.645 . S
C1286 C1010 1.645 . S
C1311 C970 1.645 . S
C1316 C50 1.645 . S
C1341 C1090 1.645 . S
C1346 C90 1.645 . S
C1371 C130 1.645 . S
C1376 C1050 1.645 . S
C1401 C179 1.645 . S
C1406 C1179 1.645 . S
C1431 C219 1.645 . S
C1436 C1139 1.645 . S
C1461 C259 1.645 . S
C1466 C1259 1.645 . S
C1491 C1219 1.645 . S
C1496 C299 1.645 . S
C1521 C330 1.645 . S
C1526 C690 1.645 . S
C1551 C370 1.645 . S
C1556 C650 1.645 . S
C1581 C410 1.645 . S
C1586 C770 1.645 . S
C1611 C730 1.645 . S
C1616 C450 1.645 . S
C1641 C499 1.645 . S
C1646 C859 1.645 . S
C1671 C539 1.645 . S
C1676 C819 1.645 . S
C1701 C939 1.645 . S
C1706 C579 1.645 . S
C1731 C619 1.645 . S
C1736 C899 1.645 . S
C1761 C9 1.579 . S
C1766 C129 1.579 . S
C1791 C49 1.580 . S
C1796 C89 1.580 . S
C1821 C298 1.579 . S
C1826 C178 1.579 . S
C1851 C258 1.579 . S
C1856 C218 1.579 . S
C1881 C329 1.579 . S
C1886 C449 1.579 . S
C1911 C369 1.579 . S
C1916 C409 1.579 . S
C1941 C498 1.579 . S
C1946 C618 1.579 . S
C1971 C578 1.580 . S
C1976 C538 1.580 . S
C2001 C649 1.579 . S
C2006 C769 1.579 . S
C2031 C689 1.580 . S
C2036 C729 1.580 . S
C2061 C938 1.579 . S
C2066 C818 1.579 . S
C2091 C858 1.579 . S
C2096 C898 1.579 . S
C2121 C1089 1.579 . S
C2126 C969 1.579 . S
C2151 C1009 1.579 . S
C2156 C1049 1.579 . S
C2181 C1258 1.579 . S
C2186 C1138 1.579 . S
C2211 C1218 1.580 . S
C2216 C1178 1.580 . S
C2241 C59 1.495 . S
C2246 C19 1.495 . S
C2271 C99 1.495 . S
C2276 C139 1.495 . S
C2301 C210 1.495 . S
C2306 C170 1.495 . S
C2331 C290 1.495 . S
C2336 C250 1.495 . S
C2361 C339 1.495 . S
C2366 C379 1.495 . S
C2391 C419 1.495 . S
C2396 C459 1.495 . S
C2421 C530 1.495 . S
C2426 C490 1.495 . S
C2451 C570 1.495 . S
C2456 C610 1.495 . S
C2481 C659 1.495 . S
C2486 C699 1.495 . S
C2511 C779 1.495 . S
C2516 C739 1.495 . S
C2541 C810 1.495 . S
C2546 C850 1.495 . S
C2571 C890 1.495 . S
C2576 C930 1.495 . S
C2601 C979 1.495 . S
C2606 C1019 1.495 . S
C2631 C1059 1.495 . S
C2636 C1099 1.495 . S
C2661 C1170 1.495 . S
C2666 C1130 1.495 . S
C2691 C1210 1.495 . S
C2696 C1250 1.495 . S
C2721 C6 1.755 . S
C2726 C15 1.755 . S
C2751 C46 1.755 . S
C2756 C55 1.755 . S
C2781 C86 1.755 . S
C2786 C95 1.755 . S
C2811 C135 1.755 . S
C2816 C126 1.755 . S
C2841 C166 1.755 . S
C2846 C175 1.755 . S
C2871 C215 1.755 . S
C2876 C206 1.755 . S
C2901 C246 1.755 . S
C2906 C255 1.755 . S
C2931 C286 1.755 . S
C2936 C295 1.755 . S
C2961 C335 1.755 . S
C2966 C326 1.755 . S
C2991 C366 1.755 . S
C2996 C375 1.755 . S
C3021 C406 1.755 . S
C3026 C415 1.755 . S
C3051 C455 1.755 . S
C3056 C446 1.755 . S
C3081 C486 1.755 . S
C3086 C495 1.755 . S
C3111 C535 1.755 . S
C3116 C526 1.755 . S
C3141 C575 1.755 . S
C3146 C566 1.755 . S
C3171 C606 1.755 . S
C3176 C615 1.755 . S
C3201 C646 1.755 . S
C3206 C655 1.755 . S
C3231 C695 1.755 . S
C3236 C686 1.755 1_455 S
C3261 C735 1.755 . S
C3266 C726 1.755 . S
C3291 C766 1.755 1_455 S
C3296 C775 1.755 . S
C3321 C815 1.755 . S
C3326 C806 1.755 . S
C3351 C855 1.755 1_655 S
C3356 C846 1.755 . S
C3381 C886 1.755 . S
C3386 C895 1.755 . S
C3411 C935 1.755 1_655 S
C3416 C926 1.755 . S
C3441 C975 1.755 . S
C3446 C966 1.755 . S
C3471 C1006 1.755 1_455 S
C3476 C1015 1.755 . S
C3501 C1055 1.755 . S
C3506 C1046 1.755 . S
C3531 C1095 1.755 . S
C3536 C1086 1.755 1_455 S
C3561 C1135 1.755 . S
C3566 C1126 1.755 . S
C3591 C1175 1.755 1_655 S
C3596 C1166 1.755 . S
C3621 C1206 1.755 . S
C3626 C1215 1.755 . S
C3651 C1246 1.755 . S
C3656 C1255 1.755 1_655 S
C3681 C18 1.479 . S
C3686 C169 1.479 . S
C3711 C1169 1.479 . S
C3716 C58 1.479 . S
C3741 C569 1.479 . S
C3746 C98 1.479 . S
C3771 C138 1.479 . S
C3776 C929 1.479 . S
C3801 C209 1.479 . S
C3806 C1018 1.479 . S
C3831 C249 1.479 . S
C3836 C418 1.479 . S
C3861 C289 1.479 . S
C3866 C778 1.479 . S
C3891 C338 1.479 . S
C3896 C489 1.479 . S
C3921 C849 1.479 . S
C3926 C378 1.479 . S
C3951 C1249 1.479 . S
C3956 C458 1.479 . S
C3981 C529 1.479 . S
C3986 C698 1.479 . S
C4011 C1098 1.479 . S
C4016 C609 1.479 . S
C4041 C658 1.479 . S
C4046 C809 1.479 . S
C4071 C1209 1.479 . S
C4076 C738 1.479 . S
C4101 C889 1.479 . S
C4106 C1058 1.479 . S
C4131 C978 1.479 . S
C4136 C1129 1.479 . S
