# Generated by pormake.
# Topology est, (5)-cn, num edge types: 1
# Building blocks:
#     Node 0, Type 0, BuildingBlock: XOMCOT_clean_sbu_0, # of connection points: 5
#     Node 1, Type 0, BuildingBlock: XOMCOT_clean_sbu_0, # of connection points: 5
#     Node 2, Type 0, BuildingBlock: XOMCOT_clean_sbu_0, # of connection points: 5
#     Node 3, Type 0, BuildingBlock: XOMCOT_clean_sbu_0, # of connection points: 5
#     Edge 4, Type (0, 0), BuildingBlock: KIFKEQ_clean_linker_1, # of connection points: 2
#     Edge 5, Type (0, 0), BuildingBlock: KIFKEQ_clean_linker_1, # of connection points: 2
#     Edge 6, Type (0, 0), BuildingBlock: KIFKEQ_clean_linker_1, # of connection points: 2
#     Edge 7, Type (0, 0), BuildingBlock: KIFKEQ_clean_linker_1, # of connection points: 2
#     Edge 8, Type (0, 0), BuildingBlock: KIFKEQ_clean_linker_1, # of connection points: 2
#     Edge 9, Type (0, 0), BuildingBlock: KIFKEQ_clean_linker_1, # of connection points: 2
#     Edge 10, Type (0, 0), BuildingBlock: KIFKEQ_clean_linker_1, # of connection points: 2
#     Edge 11, Type (0, 0), BuildingBlock: KIFKEQ_clean_linker_1, # of connection points: 2
#     Edge 12, Type (0, 0), BuildingBlock: KIFKEQ_clean_linker_1, # of connection points: 2
#     Edge 13, Type (0, 0), BuildingBlock: KIFKEQ_clean_linker_1, # of connection points: 2
# Relax obj value: 0.176
# Max RMSD: 0.239
# Mean RMSD: 0.239
data_MOF--net-est--node1-XOMCOT_clean_sbu_0--edge1-KIFKEQ_clean_linker_1
_symmetry_space_group_name_H-M    P1
_symmetry_Int_Tables_number       1
_symmetry_cell_setting            triclinic
loop_
_symmetry_equiv_pos_as_xyz
'x, y, z'
_cell_length_a     17.29458
_cell_length_b     17.328469
_cell_length_c     54.385921
_cell_angle_alpha  89.674717
_cell_angle_beta   91.819991
_cell_angle_gamma 90.024383
loop_
_atom_site_label
_atom_site_type_symbol
_atom_site_fract_x
_atom_site_fract_y
_atom_site_fract_z
_atom_type_partial_charge
Co0 Co 0.28403 0.17736 0.57692 0.0
C1 C 0.1203 0.22047 0.58107 0.0
C2 C 0.16986 0.27151 0.5494 0.0
C3 C 0.09058 0.27829 0.54714 0.0
N4 N 0.18885 0.23532 0.5708 0.0
N5 N 0.05941 0.24481 0.56693 0.0
H6 H 0.11419 0.18519 0.59716 0.0
H7 H 0.21001 0.28403 0.53506 0.0
C8 C 0.33728 0.33834 0.56488 0.0
O9 O 0.2813 0.36813 0.57757 0.0
N10 N 0.37759 0.11875 0.58236 0.0
C11 C 0.39275 0.06763 0.60061 0.0
C12 C 0.47097 0.05195 0.6013 0.0
C13 C 0.44584 0.13225 0.57192 0.0
N14 N 0.50423 0.09328 0.58334 0.0
C15 C 0.24319 0.18141 0.62759 0.0
C16 C 0.36247 0.27521 0.64439 0.0
C17 C 0.30886 0.24778 0.66113 0.0
C18 C 0.24882 0.20027 0.65246 0.0
C19 C 0.35347 0.2565 0.61939 0.0
N20 N 0.29274 0.21201 0.61107 0.0
H21 H 0.20079 0.1391 0.62199 0.0
H22 H 0.39734 0.27538 0.60704 0.0
H23 H 0.35094 0.04731 0.61353 0.0
H24 H 0.45372 0.17417 0.55745 0.0
O25 O 0.22237 0.08553 0.58119 0.0
O26 O 0.26584 0.12755 0.54566 0.0
O27 O 0.34723 0.26556 0.56425 0.0
C28 C 0.22288 0.07892 0.55735 0.0
H29 H 0.05851 0.29861 0.53096 0.0
H30 H 0.50139 0.01598 0.61475 0.0
H31 H 0.41113 0.31019 0.65059 0.0
H32 H 0.20832 0.17511 0.66502 0.0
Co33 Co 0.78351 0.74377 0.08062 0.0
C34 C 0.7396 0.58075 0.08334 0.0
C35 C 0.69492 0.63333 0.0502 0.0
C36 C 0.689 0.55433 0.04789 0.0
N37 N 0.72636 0.65016 0.07256 0.0
N38 N 0.71852 0.52126 0.06863 0.0
H39 H 0.77158 0.57355 0.10051 0.0
H40 H 0.68516 0.67496 0.03553 0.0
C41 C 0.62398 0.80525 0.0636 0.0
O42 O 0.58676 0.74236 0.06979 0.0
N43 N 0.84178 0.83614 0.0883 0.0
C44 C 0.88591 0.85024 0.1086 0.0
C45 C 0.90047 0.92845 0.10975 0.0
C46 C 0.83231 0.9051 0.07704 0.0
N47 N 0.86554 0.96317 0.09004 0.0
C48 C 0.7874 0.69491 0.131 0.0
C49 C 0.66954 0.78696 0.14727 0.0
C50 C 0.70907 0.7389 0.16435 0.0
C51 C 0.76906 0.69291 0.15577 0.0
C52 C 0.69045 0.78793 0.12255 0.0
N53 N 0.74782 0.74096 0.11448 0.0
H54 H 0.83554 0.66052 0.1254 0.0
H55 H 0.66139 0.82833 0.11036 0.0
H56 H 0.90222 0.80771 0.12242 0.0
H57 H 0.79754 0.91303 0.06042 0.0
O58 O 0.87593 0.68125 0.08443 0.0
O59 O 0.83405 0.7357 0.0496 0.0
O60 O 0.69643 0.81213 0.0682 0.0
C61 C 0.88324 0.69 0.06085 0.0
H62 H 0.6721 0.52382 0.03126 0.0
H63 H 0.93121 0.9576 0.12464 0.0
H64 H 0.62308 0.8241 0.15289 0.0
H65 H 0.80375 0.65704 0.16819 0.0
Co66 Co 0.69591 0.81373 0.43466 0.0
C67 C 0.86065 0.77291 0.43045 0.0
C68 C 0.80752 0.71034 0.4594 0.0
C69 C 0.88662 0.70409 0.46256 0.0
N70 N 0.79072 0.75371 0.4392 0.0
N71 N 0.91972 0.7439 0.44438 0.0
H72 H 0.86932 0.81619 0.41652 0.0
H73 H 0.76582 0.69268 0.47272 0.0
C74 C 0.63751 0.6499 0.44263 0.0
O75 O 0.69109 0.61863 0.42929 0.0
N76 N 0.60215 0.87388 0.4309 0.0
C77 C 0.58726 0.9317 0.41482 0.0
C78 C 0.50915 0.9484 0.41499 0.0
C79 C 0.53365 0.85704 0.44081 0.0
N80 N 0.47536 0.90079 0.43126 0.0
C81 C 0.74024 0.8251 0.38442 0.0
C82 C 0.62232 0.73589 0.36418 0.0
C83 C 0.67762 0.76723 0.34871 0.0
C84 C 0.73686 0.81256 0.3591 0.0
C85 C 0.62899 0.74832 0.38962 0.0
N86 N 0.68898 0.79055 0.39957 0.0
H87 H 0.78278 0.865 0.39161 0.0
H88 H 0.58437 0.72588 0.40108 0.0
H89 H 0.62927 0.95693 0.40284 0.0
H90 H 0.52565 0.81019 0.4536 0.0
O91 O 0.75894 0.90655 0.43432 0.0
O92 O 0.71198 0.8512 0.46747 0.0
O93 O 0.63153 0.7229 0.44421 0.0
C94 C 0.75702 0.90308 0.45826 0.0
H95 H 0.91731 0.6781 0.47816 0.0
H96 H 0.47941 0.99032 0.40331 0.0
H97 H 0.57452 0.7021 0.35669 0.0
H98 H 0.77892 0.84018 0.3476 0.0
Co99 Co 0.2411 0.25613 0.93102 0.0
C100 C 0.28245 0.42035 0.92921 0.0
C101 C 0.33429 0.364 0.96071 0.0
C102 C 0.34291 0.44234 0.96353 0.0
N103 N 0.29731 0.34993 0.93898 0.0
N104 N 0.30926 0.47781 0.94382 0.0
H105 H 0.24451 0.42986 0.91337 0.0
H106 H 0.34776 0.32071 0.9746 0.0
C107 C 0.40494 0.20011 0.94368 0.0
O108 O 0.43772 0.26513 0.93719 0.0
N109 N 0.18451 0.16286 0.92381 0.0
C110 C 0.14077 0.14571 0.90368 0.0
C111 C 0.12902 0.06694 0.90326 0.0
C112 C 0.19689 0.09537 0.93561 0.0
N113 N 0.16545 0.0351 0.92323 0.0
C114 C 0.2252 0.31121 0.88129 0.0
C115 C 0.34104 0.2237 0.86158 0.0
C116 C 0.29729 0.27254 0.84582 0.0
C117 C 0.23845 0.31637 0.85614 0.0
C118 C 0.32506 0.21933 0.88664 0.0
N119 N 0.26869 0.264 0.89642 0.0
H120 H 0.17792 0.34392 0.88838 0.0
H121 H 0.35716 0.1781 0.8977 0.0
H122 H 0.1234 0.18639 0.88942 0.0
H123 H 0.23241 0.09062 0.95224 0.0
O124 O 0.14603 0.31587 0.93039 0.0
O125 O 0.19893 0.25871 0.96329 0.0
O126 O 0.33249 0.18939 0.9405 0.0
C127 C 0.14555 0.30392 0.95405 0.0
H128 H 0.36715 0.47081 0.97967 0.0
H129 H 0.10079 0.03549 0.88838 0.0
H130 H 0.38709 0.1884 0.85468 0.0
H131 H 0.20091 0.3529 0.84483 0.0
H132 H 0.93222 0.31624 0.54709 0.0
H133 H 0.00404 0.12146 0.59227 0.0
H134 H 0.79756 0.27543 0.5502 0.0
H135 H 0.87118 0.08079 0.59502 0.0
H136 H 0.61926 0.08407 0.61826 0.0
H137 H 0.75382 0.12081 0.61397 0.0
H138 H 0.70876 0.17228 0.53702 0.0
H139 H 0.57356 0.13564 0.54138 0.0
C140 C 0.91958 0.26475 0.55757 0.0
C141 C 0.97947 0.22272 0.5695 0.0
C142 C 0.84248 0.24114 0.55927 0.0
C143 C 0.82364 0.17486 0.5729 0.0
C144 C 0.88346 0.13286 0.58474 0.0
C145 C 0.96014 0.15655 0.58315 0.0
C146 C 0.63821 0.10169 0.60031 0.0
C147 C 0.58555 0.10684 0.58016 0.0
C148 C 0.71542 0.12312 0.59786 0.0
C149 C 0.74196 0.14995 0.57517 0.0
C150 C 0.68981 0.15324 0.55485 0.0
C151 C 0.61249 0.13189 0.55732 0.0
H152 H 0.64744 0.39625 0.04831 0.0
H153 H 0.8403 0.4637 0.09584 0.0
H154 H 0.68665 0.26117 0.05273 0.0
H155 H 0.87933 0.32988 0.10014 0.0
H156 H 0.87271 0.07653 0.12447 0.0
H157 H 0.83748 0.21115 0.11897 0.0
H158 H 0.78908 0.17154 0.04168 0.0
H159 H 0.82485 0.03637 0.04712 0.0
C160 C 0.69814 0.3824 0.05965 0.0
C161 C 0.73997 0.4411 0.0719 0.0
C162 C 0.72088 0.30504 0.06211 0.0
C163 C 0.78611 0.28454 0.07686 0.0
C164 C 0.828 0.34329 0.08901 0.0
C165 C 0.80528 0.42038 0.08659 0.0
C166 C 0.8561 0.09636 0.10618 0.0
C167 C 0.85183 0.04487 0.08626 0.0
C168 C 0.83552 0.1739 0.10304 0.0
C169 C 0.81003 0.20229 0.0799 0.0
C170 C 0.80716 0.15137 0.05985 0.0
C171 C 0.82798 0.07376 0.06297 0.0
H172 H 0.40862 0.8311 0.47021 0.0
H173 H 0.3548 0.94284 0.40051 0.0
H174 H 0.27396 0.79503 0.47366 0.0
H175 H 0.21905 0.91097 0.40475 0.0
H176 H 0.00384 0.75769 0.40385 0.0
H177 H 0.13743 0.80227 0.40153 0.0
H178 H 0.14638 0.83536 0.48035 0.0
H179 H 0.01383 0.78772 0.48247 0.0
C180 C 0.36817 0.84869 0.45568 0.0
C181 C 0.39357 0.88889 0.43485 0.0
C182 C 0.2903 0.82877 0.45783 0.0
C183 C 0.23521 0.84918 0.43936 0.0
C184 C 0.25991 0.89262 0.4191 0.0
C185 C 0.33798 0.912 0.41684 0.0
C186 C 0.03495 0.77407 0.42061 0.0
C187 C 0.99928 0.76792 0.44333 0.0
C188 C 0.11117 0.80044 0.41933 0.0
C189 C 0.1532 0.82266 0.44076 0.0
C190 C 0.11673 0.81734 0.46351 0.0
C191 C 0.04082 0.78988 0.46479 0.0
H192 H 0.27613 0.97254 0.95437 0.0
H193 H 0.09132 0.91134 0.90252 0.0
H194 H 0.30901 0.83817 0.95948 0.0
H195 H 0.12574 0.77568 0.90766 0.0
H196 H 0.27813 0.55651 0.90148 0.0
H197 H 0.23783 0.69104 0.89729 0.0
H198 H 0.25602 0.71683 0.97618 0.0
H199 H 0.29509 0.58255 0.98045 0.0
C200 C 0.24149 0.93104 0.94421 0.0
C201 C 0.18093 0.9541 0.92781 0.0
C202 C 0.26076 0.85339 0.94721 0.0
C203 C 0.2203 0.79641 0.93388 0.0
C204 C 0.15876 0.81861 0.91789 0.0
C205 C 0.13904 0.89651 0.91498 0.0
C206 C 0.27321 0.59076 0.91793 0.0
C207 C 0.2902 0.55856 0.94127 0.0
C208 C 0.24987 0.66771 0.91553 0.0
C209 C 0.24351 0.71431 0.93641 0.0
C210 C 0.2612 0.6825 0.95972 0.0
C211 C 0.28412 0.60552 0.96214 0.0
H212 H 0.28008 0.39656 0.81415 0.0
H213 H 0.34324 0.15494 0.81558 0.0
H214 H 0.28929 0.39781 0.76951 0.0
H215 H 0.35626 0.15815 0.77112 0.0
H216 H 0.43226 0.21655 0.69215 0.0
H217 H 0.43794 0.2277 0.7372 0.0
H218 H 0.20829 0.32541 0.73507 0.0
H219 H 0.20214 0.31271 0.69022 0.0
C220 C 0.29611 0.34372 0.8051 0.0
C221 C 0.31007 0.27539 0.81872 0.0
C222 C 0.30196 0.34481 0.7795 0.0
C223 C 0.3235 0.27813 0.76689 0.0
C224 C 0.34041 0.21067 0.78043 0.0
C225 C 0.3332 0.20908 0.80599 0.0
C226 C 0.38371 0.24158 0.70135 0.0
C227 C 0.31684 0.26398 0.68782 0.0
C228 C 0.3867 0.24744 0.72706 0.0
C229 C 0.32352 0.27735 0.73958 0.0
C230 C 0.25801 0.30271 0.72588 0.0
C231 C 0.2544 0.29532 0.70029 0.0
H232 H 0.71608 0.6169 0.19693 0.0
H233 H 0.66162 0.86038 0.19284 0.0
H234 H 0.70253 0.61976 0.24136 0.0
H235 H 0.64416 0.86144 0.23723 0.0
H236 H 0.55833 0.80342 0.31653 0.0
H237 H 0.55682 0.79399 0.27139 0.0
H238 H 0.78582 0.69493 0.27536 0.0
H239 H 0.78797 0.70615 0.32024 0.0
C240 C 0.70096 0.67103 0.20537 0.0
C241 C 0.69127 0.73873 0.19111 0.0
C242 C 0.69264 0.67232 0.23085 0.0
C243 C 0.67268 0.74084 0.2427 0.0
C244 C 0.65907 0.80767 0.22848 0.0
C245 C 0.66879 0.80683 0.203 0.0
C246 C 0.60782 0.77894 0.30767 0.0
C247 C 0.67321 0.75532 0.32175 0.0
C248 C 0.60716 0.77399 0.28194 0.0
C249 C 0.67116 0.74365 0.26995 0.0
C250 C 0.73552 0.71801 0.28415 0.0
C251 C 0.73687 0.72457 0.30976 0.0
H252 H 0.29805 0.47848 0.545 0.0
H253 H 0.47921 0.307 0.5469 0.0
H254 H 0.36644 0.55059 0.51383 0.0
H255 H 0.54904 0.38008 0.51634 0.0
H256 H 0.62082 0.49141 0.44423 0.0
H257 H 0.54695 0.41613 0.4737 0.0
H258 H 0.47676 0.62724 0.50857 0.0
H259 H 0.54755 0.70124 0.47922 0.0
C260 C 0.35325 0.45701 0.53911 0.0
C261 C 0.38323 0.38716 0.54842 0.0
C262 C 0.39252 0.49819 0.52117 0.0
C263 C 0.46324 0.47098 0.51238 0.0
C264 C 0.49399 0.40194 0.52221 0.0
C265 C 0.45431 0.36041 0.53994 0.0
C266 C 0.58875 0.52147 0.45802 0.0
C267 C 0.58956 0.60243 0.45907 0.0
C268 C 0.54693 0.47845 0.47505 0.0
C269 C 0.5056 0.5156 0.49355 0.0
C270 C 0.50624 0.59648 0.49435 0.0
C271 C 0.54727 0.63913 0.47737 0.0
H272 H 0.50078 0.22906 0.98291 0.0
H273 H 0.3984 0.04407 0.94044 0.0
H274 H 0.54608 0.13711 0.01399 0.0
H275 H 0.44861 0.95021 0.97041 0.0
H276 H 0.48538 0.79952 0.03723 0.0
H277 H 0.43366 0.89648 0.00844 0.0
H278 H 0.62902 0.04453 0.02631 0.0
H279 H 0.67441 0.95226 0.0566 0.0
C280 C 0.49079 0.16809 0.97981 0.0
C281 C 0.44719 0.14336 0.9592 0.0
C282 C 0.51654 0.11491 0.99769 0.0
C283 C 0.50107 0.0353 0.99504 0.0
C284 C 0.46019 0.01074 0.97366 0.0
C285 C 0.43262 0.06428 0.95616 0.0
C286 C 0.51598 0.85368 0.03535 0.0
C287 C 0.58524 0.86714 0.04881 0.0
C288 C 0.48723 0.90895 0.01846 0.0
C289 C 0.52779 0.97843 0.01436 0.0
C290 C 0.59523 0.99265 0.02875 0.0
C291 C 0.62254 0.93855 0.04596 0.0
H292 H 0.8686 0.00734 0.4454 0.0
H293 H 0.7878 0.87253 0.5065 0.0
H294 H 0.9838 0.04296 0.46983 0.0
H295 H 0.90419 0.90253 0.53004 0.0
H296 H 0.08916 0.02494 0.57555 0.0
H297 H 0.97338 0.99011 0.55214 0.0
H298 H 0.10176 0.99714 0.48509 0.0
H299 H 0.21617 0.03965 0.50867 0.0
C300 C 0.8749 0.98627 0.46415 0.0
C301 C 0.81859 0.93791 0.47406 0.0
C302 C 0.94178 0.00524 0.47803 0.0
C303 C 0.95446 0.97493 0.50195 0.0
C304 C 0.89664 0.92835 0.51196 0.0
C305 C 0.82935 0.911 0.49836 0.0
C306 C 0.093 0.01784 0.55586 0.0
C307 C 0.16152 0.0357 0.54394 0.0
C308 C 0.02632 0.99757 0.54231 0.0
C309 C 0.02716 0.99177 0.51649 0.0
C310 C 0.09778 0.00359 0.5048 0.0
C311 C 0.16398 0.02635 0.51835 0.0
H312 H 0.93176 0.70893 0.01395 0.0
H313 H 0.9396 0.55037 0.07545 0.0
H314 H 0.99277 0.61239 0.98848 0.0
H315 H 0.99557 0.45214 0.04982 0.0
H316 H 0.16133 0.3159 1.0037 0.0
H317 H 0.10395 0.41136 0.02982 0.0
H318 H 0.96626 0.49684 0.96769 0.0
H319 H 0.02768 0.40337 0.94116 0.0
C320 C 0.94732 0.65361 0.02206 0.0
C321 C 0.93175 0.63742 0.04673 0.0
C322 C 0.98104 0.59769 0.00738 0.0
C323 C 0.99834 0.52371 0.0169 0.0
C324 C 0.98433 0.50854 0.04183 0.0
C325 C 0.95224 0.56501 0.05662 0.0
C326 C 0.11786 0.35419 0.99564 0.0
C327 C 0.0989 0.35194 0.97034 0.0
C328 C 0.08475 0.40918 0.0107 0.0
C329 C 0.03073 0.46269 1.00095 0.0
C330 C 0.00905 0.45796 0.97579 0.0
C331 C 0.04326 0.40356 0.96061 0.0
loop_
_geom_bond_atom_site_label_1
_geom_bond_atom_site_label_2
_geom_bond_distance
_geom_bond_site_symmetry_2
_ccdc_geom_bond_type
Co0 N4 2.148 . S
Co0 N10 2.128 . S
Co0 N20 2.194 . S
Co0 O25 2.351 . S
Co0 O26 2.155 . S
Co0 O27 2.096 . S
C1 N4 1.301 . S
C1 N5 1.328 . S
C1 H6 0.930 . S
C2 C3 1.333 . S
C2 N4 1.317 . S
C2 H7 0.930 . S
C3 C2 1.333 . S
C3 N5 1.350 . S
C3 H29 0.931 . S
N4 Co0 2.148 . S
N4 C1 1.301 . S
N4 C2 1.317 . S
N5 C1 1.328 . S
N5 C3 1.350 . S
H6 C1 0.930 . S
H7 C2 0.930 . S
C8 O9 1.224 . S
C8 O27 1.247 . S
O9 C8 1.224 . S
N10 Co0 2.128 . S
N10 C11 1.355 . S
N10 C13 1.311 . S
C11 N10 1.355 . S
C11 C12 1.363 . S
C11 H23 0.929 . S
C12 C11 1.363 . S
C12 N14 1.375 . S
C12 H30 0.931 . S
C13 N10 1.311 . S
C13 N14 1.347 . S
C13 H24 0.929 . S
N14 C12 1.375 . S
N14 C13 1.347 . S
C15 C18 1.365 . S
C15 N20 1.328 . S
C15 H21 0.929 . S
C16 C17 1.362 . S
C16 C19 1.378 . S
C16 H31 0.929 . S
C17 C16 1.362 . S
C17 C18 1.366 . S
C18 C15 1.365 . S
C18 C17 1.366 . S
C18 H32 0.930 . S
C19 C16 1.378 . S
C19 N20 1.315 . S
C19 H22 0.930 . S
N20 Co0 2.194 . S
N20 C15 1.328 . S
N20 C19 1.315 . S
H21 C15 0.929 . S
H22 C19 0.930 . S
H23 C11 0.929 . S
H24 C13 0.929 . S
O25 Co0 2.351 . S
O25 C28 1.244 . S
O26 Co0 2.155 . S
O26 C28 1.240 . S
O27 Co0 2.096 . S
O27 C8 1.247 . S
C28 O25 1.244 . S
C28 O26 1.240 . S
H29 C3 0.931 . S
H30 C12 0.931 . S
H31 C16 0.929 . S
H32 C18 0.930 . S
Co33 N37 2.148 . S
Co33 N43 2.128 . S
Co33 N53 2.194 . S
Co33 O58 2.351 . S
Co33 O59 2.155 . S
Co33 O60 2.096 . S
C34 N37 1.301 . S
C34 N38 1.328 . S
C34 H39 0.930 . S
C35 C36 1.333 . S
C35 N37 1.317 . S
C35 H40 0.930 . S
C36 C35 1.333 . S
C36 N38 1.350 . S
C36 H62 0.931 . S
N37 Co33 2.148 . S
N37 C34 1.301 . S
N37 C35 1.317 . S
N38 C34 1.328 . S
N38 C36 1.350 . S
H39 C34 0.930 . S
H40 C35 0.930 . S
C41 O42 1.224 . S
C41 O60 1.247 . S
O42 C41 1.224 . S
N43 Co33 2.128 . S
N43 C44 1.355 . S
N43 C46 1.311 . S
C44 N43 1.355 . S
C44 C45 1.363 . S
C44 H56 0.929 . S
C45 C44 1.363 . S
C45 N47 1.375 . S
C45 H63 0.931 . S
C46 N43 1.311 . S
C46 N47 1.347 . S
C46 H57 0.929 . S
N47 C45 1.375 . S
N47 C46 1.347 . S
C48 C51 1.365 . S
C48 N53 1.328 . S
C48 H54 0.929 . S
C49 C50 1.362 . S
C49 C52 1.378 . S
C49 H64 0.929 . S
C50 C49 1.362 . S
C50 C51 1.366 . S
C51 C48 1.365 . S
C51 C50 1.366 . S
C51 H65 0.930 . S
C52 C49 1.378 . S
C52 N53 1.315 . S
C52 H55 0.930 . S
N53 Co33 2.194 . S
N53 C48 1.328 . S
N53 C52 1.315 . S
H54 C48 0.929 . S
H55 C52 0.930 . S
H56 C44 0.929 . S
H57 C46 0.929 . S
O58 Co33 2.351 . S
O58 C61 1.244 . S
O59 Co33 2.155 . S
O59 C61 1.240 . S
O60 Co33 2.096 . S
O60 C41 1.247 . S
C61 O58 1.244 . S
C61 O59 1.240 . S
H62 C36 0.931 . S
H63 C45 0.931 . S
H64 C49 0.929 . S
H65 C51 0.930 . S
Co66 N70 2.148 . S
Co66 N76 2.128 . S
Co66 N86 2.194 . S
Co66 O91 2.351 . S
Co66 O92 2.155 . S
Co66 O93 2.096 . S
C67 N70 1.301 . S
C67 N71 1.328 . S
C67 H72 0.930 . S
C68 C69 1.333 . S
C68 N70 1.317 . S
C68 H73 0.930 . S
C69 C68 1.333 . S
C69 N71 1.350 . S
C69 H95 0.931 . S
N70 Co66 2.148 . S
N70 C67 1.301 . S
N70 C68 1.317 . S
N71 C67 1.328 . S
N71 C69 1.350 . S
H72 C67 0.930 . S
H73 C68 0.930 . S
C74 O75 1.224 . S
C74 O93 1.247 . S
O75 C74 1.224 . S
N76 Co66 2.128 . S
N76 C77 1.355 . S
N76 C79 1.311 . S
C77 N76 1.355 . S
C77 C78 1.363 . S
C77 H89 0.929 . S
C78 C77 1.363 . S
C78 N80 1.375 . S
C78 H96 0.931 . S
C79 N76 1.311 . S
C79 N80 1.347 . S
C79 H90 0.929 . S
N80 C78 1.375 . S
N80 C79 1.347 . S
C81 C84 1.365 . S
C81 N86 1.328 . S
C81 H87 0.929 . S
C82 C83 1.362 . S
C82 C85 1.378 . S
C82 H97 0.929 . S
C83 C82 1.362 . S
C83 C84 1.366 . S
C84 C81 1.365 . S
C84 C83 1.366 . S
C84 H98 0.930 . S
C85 C82 1.378 . S
C85 N86 1.315 . S
C85 H88 0.930 . S
N86 Co66 2.194 . S
N86 C81 1.328 . S
N86 C85 1.315 . S
H87 C81 0.929 . S
H88 C85 0.930 . S
H89 C77 0.929 . S
H90 C79 0.929 . S
O91 Co66 2.351 . S
O91 C94 1.244 . S
O92 Co66 2.155 . S
O92 C94 1.240 . S
O93 Co66 2.096 . S
O93 C74 1.247 . S
C94 O91 1.244 . S
C94 O92 1.240 . S
H95 C69 0.931 . S
H96 C78 0.931 . S
H97 C82 0.929 . S
H98 C84 0.930 . S
Co99 N103 2.148 . S
Co99 N109 2.128 . S
Co99 N119 2.194 . S
Co99 O124 2.351 . S
Co99 O125 2.155 . S
Co99 O126 2.096 . S
C100 N103 1.301 . S
C100 N104 1.328 . S
C100 H105 0.930 . S
C101 C102 1.333 . S
C101 N103 1.317 . S
C101 H106 0.930 . S
C102 C101 1.333 . S
C102 N104 1.350 . S
C102 H128 0.931 . S
N103 Co99 2.148 . S
N103 C100 1.301 . S
N103 C101 1.317 . S
N104 C100 1.328 . S
N104 C102 1.350 . S
H105 C100 0.930 . S
H106 C101 0.930 . S
C107 O108 1.224 . S
C107 O126 1.247 . S
O108 C107 1.224 . S
N109 Co99 2.128 . S
N109 C110 1.355 . S
N109 C112 1.311 . S
C110 N109 1.355 . S
C110 C111 1.363 . S
C110 H122 0.929 . S
C111 C110 1.363 . S
C111 N113 1.375 . S
C111 H129 0.931 . S
C112 N109 1.311 . S
C112 N113 1.347 . S
C112 H123 0.929 . S
N113 C111 1.375 . S
N113 C112 1.347 . S
C114 C117 1.365 . S
C114 N119 1.328 . S
C114 H120 0.929 . S
C115 C116 1.362 . S
C115 C118 1.378 . S
C115 H130 0.929 . S
C116 C115 1.362 . S
C116 C117 1.366 . S
C117 C114 1.365 . S
C117 C116 1.366 . S
C117 H131 0.930 . S
C118 C115 1.378 . S
C118 N119 1.315 . S
C118 H121 0.930 . S
N119 Co99 2.194 . S
N119 C114 1.328 . S
N119 C118 1.315 . S
H120 C114 0.929 . S
H121 C118 0.930 . S
H122 C110 0.929 . S
H123 C112 0.929 . S
O124 Co99 2.351 . S
O124 C127 1.244 . S
O125 Co99 2.155 . S
O125 C127 1.240 . S
O126 Co99 2.096 . S
O126 C107 1.247 . S
C127 O124 1.244 . S
C127 O125 1.240 . S
H128 C102 0.931 . S
H129 C111 0.931 . S
H130 C115 0.929 . S
H131 C117 0.930 . S
H132 C140 0.950 . S
H133 C145 0.950 . S
H134 C142 0.950 . S
H135 C144 0.950 . S
H136 C146 0.950 . S
H137 C148 0.950 . S
H138 C150 0.950 . S
H139 C151 0.950 . S
C140 H132 0.950 . S
C140 C141 1.386 . S
C140 C142 1.391 . S
C141 C140 1.386 . S
C141 C145 1.393 . S
C142 H134 0.950 . S
C142 C140 1.391 . S
C142 C143 1.400 . S
C143 C142 1.400 . S
C143 C144 1.398 . S
C143 C149 1.491 . S
C144 H135 0.950 . S
C144 C143 1.398 . S
C144 C145 1.391 . S
C145 H133 0.950 . S
C145 C141 1.393 . S
C145 C144 1.391 . S
C146 H136 0.950 . S
C146 C147 1.386 . S
C146 C148 1.391 . S
C147 C146 1.386 . S
C147 C151 1.393 . S
C148 H137 0.950 . S
C148 C146 1.391 . S
C148 C149 1.400 . S
C149 C143 1.491 . S
C149 C148 1.400 . S
C149 C150 1.398 . S
C150 H138 0.950 . S
C150 C149 1.398 . S
C150 C151 1.391 . S
C151 H139 0.950 . S
C151 C147 1.393 . S
C151 C150 1.391 . S
H152 C160 0.950 . S
H153 C165 0.950 . S
H154 C162 0.950 . S
H155 C164 0.950 . S
H156 C166 0.950 . S
H157 C168 0.950 . S
H158 C170 0.950 . S
H159 C171 0.950 . S
C160 H152 0.950 . S
C160 C161 1.386 . S
C160 C162 1.391 . S
C161 C160 1.386 . S
C161 C165 1.393 . S
C162 H154 0.950 . S
C162 C160 1.391 . S
C162 C163 1.400 . S
C163 C162 1.400 . S
C163 C164 1.398 . S
C163 C169 1.491 . S
C164 H155 0.950 . S
C164 C163 1.398 . S
C164 C165 1.391 . S
C165 H153 0.950 . S
C165 C161 1.393 . S
C165 C164 1.391 . S
C166 H156 0.950 . S
C166 C167 1.386 . S
C166 C168 1.391 . S
C167 C166 1.386 . S
C167 C171 1.393 . S
C168 H157 0.950 . S
C168 C166 1.391 . S
C168 C169 1.400 . S
C169 C163 1.491 . S
C169 C168 1.400 . S
C169 C170 1.398 . S
C170 H158 0.950 . S
C170 C169 1.398 . S
C170 C171 1.391 . S
C171 H159 0.950 . S
C171 C167 1.393 . S
C171 C170 1.391 . S
H172 C180 0.950 . S
H173 C185 0.950 . S
H174 C182 0.950 . S
H175 C184 0.950 . S
H176 C186 0.950 . S
H177 C188 0.950 . S
H178 C190 0.950 . S
H179 C191 0.950 . S
C180 H172 0.950 . S
C180 C181 1.386 . S
C180 C182 1.391 . S
C181 C180 1.386 . S
C181 C185 1.393 . S
C182 H174 0.950 . S
C182 C180 1.391 . S
C182 C183 1.400 . S
C183 C182 1.400 . S
C183 C184 1.398 . S
C183 C189 1.491 . S
C184 H175 0.950 . S
C184 C183 1.398 . S
C184 C185 1.391 . S
C185 H173 0.950 . S
C185 C181 1.393 . S
C185 C184 1.391 . S
C186 H176 0.950 . S
C186 C187 1.386 . S
C186 C188 1.391 . S
C187 C186 1.386 . S
C187 C191 1.393 . S
C188 H177 0.950 . S
C188 C186 1.391 . S
C188 C189 1.400 . S
C189 C183 1.491 . S
C189 C188 1.400 . S
C189 C190 1.398 . S
C190 H178 0.950 . S
C190 C189 1.398 . S
C190 C191 1.391 . S
C191 H179 0.950 . S
C191 C187 1.393 . S
C191 C190 1.391 . S
H192 C200 0.950 . S
H193 C205 0.950 . S
H194 C202 0.950 . S
H195 C204 0.950 . S
H196 C206 0.950 . S
H197 C208 0.950 . S
H198 C210 0.950 . S
H199 C211 0.950 . S
C200 H192 0.950 . S
C200 C201 1.386 . S
C200 C202 1.391 . S
C201 C200 1.386 . S
C201 C205 1.393 . S
C202 H194 0.950 . S
C202 C200 1.391 . S
C202 C203 1.400 . S
C203 C202 1.400 . S
C203 C204 1.398 . S
C203 C209 1.491 . S
C204 H195 0.950 . S
C204 C203 1.398 . S
C204 C205 1.391 . S
C205 H193 0.950 . S
C205 C201 1.393 . S
C205 C204 1.391 . S
C206 H196 0.950 . S
C206 C207 1.386 . S
C206 C208 1.391 . S
C207 C206 1.386 . S
C207 C211 1.393 . S
C208 H197 0.950 . S
C208 C206 1.391 . S
C208 C209 1.400 . S
C209 C203 1.491 . S
C209 C208 1.400 . S
C209 C210 1.398 . S
C210 H198 0.950 . S
C210 C209 1.398 . S
C210 C211 1.391 . S
C211 H199 0.950 . S
C211 C207 1.393 . S
C211 C210 1.391 . S
H212 C220 0.950 . S
H213 C225 0.950 . S
H214 C222 0.950 . S
H215 C224 0.950 . S
H216 C226 0.950 . S
H217 C228 0.950 . S
H218 C230 0.950 . S
H219 C231 0.950 . S
C220 H212 0.950 . S
C220 C221 1.386 . S
C220 C222 1.391 . S
C221 C220 1.386 . S
C221 C225 1.393 . S
C222 H214 0.950 . S
C222 C220 1.391 . S
C222 C223 1.400 . S
C223 C222 1.400 . S
C223 C224 1.398 . S
C223 C229 1.491 . S
C224 H215 0.950 . S
C224 C223 1.398 . S
C224 C225 1.391 . S
C225 H213 0.950 . S
C225 C221 1.393 . S
C225 C224 1.391 . S
C226 H216 0.950 . S
C226 C227 1.386 . S
C226 C228 1.391 . S
C227 C226 1.386 . S
C227 C231 1.393 . S
C228 H217 0.950 . S
C228 C226 1.391 . S
C228 C229 1.400 . S
C229 C223 1.491 . S
C229 C228 1.400 . S
C229 C230 1.398 . S
C230 H218 0.950 . S
C230 C229 1.398 . S
C230 C231 1.391 . S
C231 H219 0.950 . S
C231 C227 1.393 . S
C231 C230 1.391 . S
H232 C240 0.950 . S
H233 C245 0.950 . S
H234 C242 0.950 . S
H235 C244 0.950 . S
H236 C246 0.950 . S
H237 C248 0.950 . S
H238 C250 0.950 . S
H239 C251 0.950 . S
C240 H232 0.950 . S
C240 C241 1.386 . S
C240 C242 1.391 . S
C241 C240 1.386 . S
C241 C245 1.393 . S
C242 H234 0.950 . S
C242 C240 1.391 . S
C242 C243 1.400 . S
C243 C242 1.400 . S
C243 C244 1.398 . S
C243 C249 1.491 . S
C244 H235 0.950 . S
C244 C243 1.398 . S
C244 C245 1.391 . S
C245 H233 0.950 . S
C245 C241 1.393 . S
C245 C244 1.391 . S
C246 H236 0.950 . S
C246 C247 1.386 . S
C246 C248 1.391 . S
C247 C246 1.386 . S
C247 C251 1.393 . S
C248 H237 0.950 . S
C248 C246 1.391 . S
C248 C249 1.400 . S
C249 C243 1.491 . S
C249 C248 1.400 . S
C249 C250 1.398 . S
C250 H238 0.950 . S
C250 C249 1.398 . S
C250 C251 1.391 . S
C251 H239 0.950 . S
C251 C247 1.393 . S
C251 C250 1.391 . S
H252 C260 0.950 . S
H253 C265 0.950 . S
H254 C262 0.950 . S
H255 C264 0.950 . S
H256 C266 0.950 . S
H257 C268 0.950 . S
H258 C270 0.950 . S
H259 C271 0.950 . S
C260 H252 0.950 . S
C260 C261 1.386 . S
C260 C262 1.391 . S
C261 C260 1.386 . S
C261 C265 1.393 . S
C262 H254 0.950 . S
C262 C260 1.391 . S
C262 C263 1.400 . S
C263 C262 1.400 . S
C263 C264 1.398 . S
C263 C269 1.491 . S
C264 H255 0.950 . S
C264 C263 1.398 . S
C264 C265 1.391 . S
C265 H253 0.950 . S
C265 C261 1.393 . S
C265 C264 1.391 . S
C266 H256 0.950 . S
C266 C267 1.386 . S
C266 C268 1.391 . S
C267 C266 1.386 . S
C267 C271 1.393 . S
C268 H257 0.950 . S
C268 C266 1.391 . S
C268 C269 1.400 . S
C269 C263 1.491 . S
C269 C268 1.400 . S
C269 C270 1.398 . S
C270 H258 0.950 . S
C270 C269 1.398 . S
C270 C271 1.391 . S
C271 H259 0.950 . S
C271 C267 1.393 . S
C271 C270 1.391 . S
H272 C280 0.950 . S
H273 C285 0.950 . S
H274 C282 0.950 1_554 S
H275 C284 0.950 1_565 S
H276 C286 0.950 . S
H277 C288 0.950 1_556 S
H278 C290 0.950 1_545 S
H279 C291 0.950 . S
C280 H272 0.950 . S
C280 C281 1.386 . S
C280 C282 1.391 . S
C281 C280 1.386 . S
C281 C285 1.393 . S
C282 H274 0.950 1_556 S
C282 C280 1.391 . S
C282 C283 1.400 . S
C283 C282 1.400 . S
C283 C284 1.398 . S
C283 C289 1.491 1_546 S
C284 H275 0.950 1_545 S
C284 C283 1.398 . S
C284 C285 1.391 . S
C285 H273 0.950 . S
C285 C281 1.393 . S
C285 C284 1.391 . S
C286 H276 0.950 . S
C286 C287 1.386 . S
C286 C288 1.391 . S
C287 C286 1.386 . S
C287 C291 1.393 . S
C288 H277 0.950 1_554 S
C288 C286 1.391 . S
C288 C289 1.400 . S
C289 C283 1.491 1_564 S
C289 C288 1.400 . S
C289 C290 1.398 . S
C290 H278 0.950 1_565 S
C290 C289 1.398 . S
C290 C291 1.391 . S
C291 H279 0.950 . S
C291 C287 1.393 . S
C291 C290 1.391 . S
H292 C300 0.950 . S
H293 C305 0.950 . S
H294 C302 0.950 1_455 S
H295 C304 0.950 . S
H296 C306 0.950 . S
H297 C308 0.950 1_655 S
H298 C310 0.950 . S
H299 C311 0.950 . S
C300 H292 0.950 . S
C300 C301 1.386 . S
C300 C302 1.391 . S
C301 C300 1.386 . S
C301 C305 1.393 . S
C302 H294 0.950 1_655 S
C302 C300 1.391 . S
C302 C303 1.400 . S
C303 C302 1.400 . S
C303 C304 1.398 1_565 S
C303 C309 1.491 1_665 S
C304 H295 0.950 . S
C304 C303 1.398 1_545 S
C304 C305 1.391 1_545 S
C305 H293 0.950 . S
C305 C301 1.393 . S
C305 C304 1.391 1_565 S
C306 H296 0.950 . S
C306 C307 1.386 . S
C306 C308 1.391 . S
C307 C306 1.386 . S
C307 C311 1.393 . S
C308 H297 0.950 1_455 S
C308 C306 1.391 . S
C308 C309 1.400 . S
C309 C303 1.491 1_445 S
C309 C308 1.400 . S
C309 C310 1.398 1_545 S
C310 H298 0.950 . S
C310 C309 1.398 1_565 S
C310 C311 1.391 1_565 S
C311 H299 0.950 . S
C311 C307 1.393 . S
C311 C310 1.391 1_545 S
H312 C320 0.950 . S
H313 C325 0.950 . S
H314 C322 0.950 1_456 S
H315 C324 0.950 . S
H316 C326 0.950 . S
H317 C328 0.950 1_654 S
H318 C330 0.950 . S
H319 C331 0.950 . S
C320 H312 0.950 . S
C320 C321 1.386 . S
C320 C322 1.391 . S
C321 C320 1.386 . S
C321 C325 1.393 . S
C322 H314 0.950 1_654 S
C322 C320 1.391 . S
C322 C323 1.400 . S
C323 C322 1.400 . S
C323 C324 1.398 . S
C323 C329 1.491 1_654 S
C324 H315 0.950 . S
C324 C323 1.398 . S
C324 C325 1.391 . S
C325 H313 0.950 . S
C325 C321 1.393 . S
C325 C324 1.391 . S
C326 H316 0.950 . S
C326 C327 1.386 . S
C326 C328 1.391 . S
C327 C326 1.386 . S
C327 C331 1.393 . S
C328 H317 0.950 1_456 S
C328 C326 1.391 . S
C328 C329 1.400 . S
C329 C323 1.491 1_456 S
C329 C328 1.400 . S
C329 C330 1.398 . S
C330 H318 0.950 . S
C330 C329 1.398 . S
C330 C331 1.391 . S
C331 H319 0.950 . S
C331 C327 1.393 . S
C331 C330 1.391 . S
C141 N5 1.147 1_655 S
C147 N14 1.145 . S
C161 N38 1.149 . S
C167 N47 1.148 1_545 S
C181 N80 1.156 . S
C187 N71 1.158 1_455 S
C201 N113 1.156 1_565 S
C207 N104 1.159 . S
C221 C116 1.455 . S
C227 C17 1.453 . S
C241 C50 1.457 . S
C247 C83 1.457 . S
C261 C8 1.300 . S
C267 C74 1.300 . S
C281 C107 1.264 . S
C287 C41 1.264 . S
C301 C94 1.244 . S
C307 C28 1.244 . S
C321 C61 1.252 . S
C327 C127 1.252 . S
