# Generated by pormake.
# Topology rob, (6)-cn, num edge types: 1
# Building blocks:
#     Node 0, Type 0, BuildingBlock: KUMBOL_clean_sbu_1, # of connection points: 6
#     Node 1, Type 0, BuildingBlock: KUMBOL_clean_sbu_1, # of connection points: 6
#     Node 2, Type 0, BuildingBlock: KUMBOL_clean_sbu_1, # of connection points: 6
#     Node 3, Type 0, BuildingBlock: KUMBOL_clean_sbu_1, # of connection points: 6
#     Edge 4, Type (0, 0), BuildingBlock: FUNLAD_clean_linker_0, # of connection points: 2
#     Edge 5, Type (0, 0), BuildingBlock: FUNLAD_clean_linker_0, # of connection points: 2
#     Edge 6, Type (0, 0), BuildingBlock: FUNLAD_clean_linker_0, # of connection points: 2
#     Edge 7, Type (0, 0), BuildingBlock: FUNLAD_clean_linker_0, # of connection points: 2
#     Edge 8, Type (0, 0), BuildingBlock: FUNLAD_clean_linker_0, # of connection points: 2
#     Edge 9, Type (0, 0), BuildingBlock: FUNLAD_clean_linker_0, # of connection points: 2
#     Edge 10, Type (0, 0), BuildingBlock: FUNLAD_clean_linker_0, # of connection points: 2
#     Edge 11, Type (0, 0), BuildingBlock: FUNLAD_clean_linker_0, # of connection points: 2
#     Edge 12, Type (0, 0), BuildingBlock: FUNLAD_clean_linker_0, # of connection points: 2
#     Edge 13, Type (0, 0), BuildingBlock: FUNLAD_clean_linker_0, # of connection points: 2
#     Edge 14, Type (0, 0), BuildingBlock: FUNLAD_clean_linker_0, # of connection points: 2
#     Edge 15, Type (0, 0), BuildingBlock: FUNLAD_clean_linker_0, # of connection points: 2
# Relax obj value: 0.018
# Max RMSD: 0.104
# Mean RMSD: 0.104
data_MOF--net-rob--node1-KUMBOL_clean_sbu_1--edge1-FUNLAD_clean_linker_0
_symmetry_space_group_name_H-M    P1
_symmetry_Int_Tables_number       1
_symmetry_cell_setting            triclinic
loop_
_symmetry_equiv_pos_as_xyz
'x, y, z'
_cell_length_a     21.237722
_cell_length_b     27.675241
_cell_length_c     39.022466
_cell_angle_alpha  109.04127
_cell_angle_beta   89.958129
_cell_angle_gamma 90.05818
loop_
_atom_site_label
_atom_site_type_symbol
_atom_site_fract_x
_atom_site_fract_y
_atom_site_fract_z
_atom_type_partial_charge
C0 C 0.10461 0.37455 0.02084 0.0
C1 C 0.00648 0.32966 0.99954 0.0
C2 C 0.06928 0.3297 0.01131 0.0
C3 C 0.98006 0.37489 0.99708 0.0
C4 C 0.07811 0.42004 0.01846 0.0
C5 C 0.0157 0.41991 0.00657 0.0
N6 N 0.16477 0.37369 0.03251 0.0
C7 C 0.20095 0.41684 0.04232 0.0
C8 C 0.11503 0.46443 0.02834 0.0
C9 C 0.17671 0.46277 0.04029 0.0
Gd10 Gd 0.31266 0.20039 0.96293 0.0
Gd11 Gd 0.19878 0.29582 0.03748 0.0
N12 N 0.09612 0.28632 0.01389 0.0
C13 C 0.97164 0.28437 0.99125 0.0
C14 C 0.06106 0.24308 0.00795 0.0
C15 C 0.99889 0.24105 0.99585 0.0
H16 H 0.07962 0.21065 0.01378 0.0
H17 H 0.97161 0.20636 0.99079 0.0
H18 H 0.43221 0.28428 0.99114 0.0
H19 H 0.24792 0.41629 0.05271 0.0
H20 H 0.53804 0.28657 0.01701 0.0
H21 H 0.92324 0.28281 0.98218 0.0
H22 H 0.93184 0.37558 0.98819 0.0
H23 H 0.25756 0.08149 0.948 0.0
H24 H 0.09632 0.50019 0.02705 0.0
H25 H 0.20538 0.497 0.04831 0.0
H26 H 0.56902 0.11639 0.02016 0.0
H27 H 0.99431 0.45447 0.00482 0.0
H28 H 0.4013 0.99546 0.97874 0.0
H29 H 0.29459 0.00063 0.95481 0.0
N30 N 0.34126 0.12233 0.96958 0.0
C31 C 0.40032 0.1203 0.98249 0.0
C32 C 0.30346 0.08012 0.95952 0.0
C33 C 0.38497 0.03129 0.97632 0.0
C34 C 0.32461 0.03408 0.9629 0.0
C35 C 0.42369 0.07465 0.98627 0.0
H36 H 0.50377 0.03882 0.00248 0.0
N37 N 0.41334 0.20803 0.9888 0.0
C38 C 0.43743 0.16427 0.9923 0.0
C39 C 0.53461 0.20817 0.01563 0.0
C40 C 0.49859 0.16336 0.00612 0.0
C41 C 0.44929 0.25106 0.99651 0.0
C42 C 0.50997 0.25209 0.01058 0.0
O43 O 0.18641 0.2944 0.97941 0.0
O44 O 0.21503 0.21261 0.945 0.0
O45 O 0.36533 0.21522 0.9187 0.0
O46 O 0.32626 0.13949 0.91238 0.0
O47 O 0.19552 0.21032 0.02875 0.0
O48 O 0.21577 0.1711 0.96791 0.0
O49 O 0.3222 0.20421 0.02202 0.0
O50 O 0.29863 0.28771 0.0536 0.0
O51 O 0.15316 0.2777 0.08252 0.0
O52 O 0.1835 0.35569 0.08841 0.0
O53 O 0.31649 0.28477 0.9699 0.0
O54 O 0.2934 0.32866 0.02997 0.0
C55 C 0.18865 0.25674 0.94852 0.0
C56 C 0.19107 0.171 0.9987 0.0
C57 C 0.38392 0.14654 0.86074 0.0
C58 C 0.43687 0.15565 0.80758 0.0
C59 C 0.40701 0.07155 0.80875 0.0
C60 C 0.38196 0.09332 0.84336 0.0
C61 C 0.43453 0.10243 0.791 0.0
C62 C 0.41121 0.1779 0.84253 0.0
C63 C 0.35846 0.16786 0.89793 0.0
C64 C 0.52202 0.11785 0.00975 0.0
C65 C 0.48479 0.07364 0.99975 0.0
H66 H 0.5818 0.20902 0.02635 0.0
C67 C 0.32521 0.24425 0.0516 0.0
C68 C 0.32009 0.32579 0.99882 0.0
C69 C 0.13135 0.34507 0.14059 0.0
C70 C 0.09 0.3325 0.1955 0.0
C71 C 0.10111 0.41819 0.19225 0.0
C72 C 0.12473 0.39817 0.15716 0.0
C73 C 0.08405 0.38564 0.21138 0.0
C74 C 0.11325 0.31202 0.15984 0.0
C75 C 0.15581 0.32543 0.10312 0.0
H76 H 0.40526 0.03055 0.79566 0.0
H77 H 0.36142 0.06824 0.85663 0.0
H78 H 0.45372 0.08477 0.76405 0.0
H79 H 0.41304 0.219 0.85542 0.0
H80 H 0.09606 0.45912 0.2047 0.0
H81 H 0.13744 0.42442 0.14289 0.0
H82 H 0.06594 0.40196 0.23871 0.0
H83 H 0.11778 0.27098 0.14746 0.0
C84 C 0.59127 0.88288 0.03101 0.0
C85 C 0.49131 0.83941 0.01201 0.0
C86 C 0.55502 0.83846 0.02185 0.0
C87 C 0.46416 0.88565 0.01203 0.0
C88 C 0.5641 0.9293 0.0309 0.0
C89 C 0.50036 0.93045 0.02155 0.0
N90 N 0.65326 0.88045 0.03928 0.0
C91 C 0.69009 0.92322 0.04873 0.0
C92 C 0.60188 0.97316 0.04007 0.0
C93 C 0.66504 0.97011 0.0491 0.0
Gd94 Gd 0.81739 0.69973 0.96189 0.0
Gd95 Gd 0.68876 0.80029 0.03936 0.0
N96 N 0.58331 0.79369 0.02058 0.0
C97 C 0.45697 0.79369 0.00213 0.0
C98 C 0.54954 0.74949 0.01227 0.0
C99 C 0.48612 0.74863 0.00251 0.0
H100 H 0.57121 0.71507 0.01343 0.0
H101 H 0.45969 0.71328 0.99547 0.0
H102 H 0.93875 0.78147 0.98689 0.0
H103 H 0.73848 0.92164 0.05677 0.0
H104 H 0.04663 0.78238 0.01028 0.0
H105 H 0.4079 0.79283 0.99437 0.0
H106 H 0.41524 0.88716 0.00457 0.0
H107 H 0.76178 0.58112 0.94721 0.0
H108 H 0.58272 0.00959 0.04043 0.0
H109 H 0.69436 0.00397 0.05662 0.0
H110 H 0.07512 0.61327 0.01634 0.0
H111 H 0.47857 0.96576 0.02149 0.0
H112 H 0.90411 0.49455 0.97849 0.0
H113 H 0.79749 0.5004 0.95468 0.0
N114 N 0.84593 0.62146 0.96843 0.0
C115 C 0.90525 0.61875 0.98071 0.0
C116 C 0.80766 0.57956 0.95861 0.0
C117 C 0.88839 0.53033 0.97573 0.0
C118 C 0.82808 0.53352 0.96238 0.0
C119 C 0.92797 0.57315 0.98489 0.0
H120 H 0.00776 0.53703 1.00113 0.0
N121 N 0.91986 0.70538 0.98513 0.0
C122 C 0.94343 0.66187 0.98917 0.0
C123 C 0.04228 0.70452 0.0101 0.0
C124 C 0.00512 0.66043 0.00211 0.0
C125 C 0.95638 0.74798 0.9919 0.0
C126 C 0.01789 0.74838 0.00477 0.0
O127 O 0.65402 0.79459 0.98327 0.0
O128 O 0.73346 0.74649 0.97176 0.0
O129 O 0.86775 0.71202 0.91701 0.0
O130 O 0.80856 0.64379 0.90792 0.0
O131 O 0.69704 0.71409 0.02759 0.0
O132 O 0.7199 0.66876 0.96727 0.0
O133 O 0.83052 0.70687 0.02095 0.0
O134 O 0.79269 0.78809 0.04785 0.0
O135 O 0.6466 0.77859 0.08375 0.0
O136 O 0.68349 0.85582 0.09291 0.0
O137 O 0.82752 0.78496 0.97078 0.0
O138 O 0.7788 0.83571 0.02556 0.0
C139 C 0.68887 0.76613 0.95781 0.0
C140 C 0.68796 0.67495 0.99768 0.0
C141 C 0.86432 0.65227 0.85549 0.0
C142 C 0.92206 0.6647 0.80509 0.0
C143 C 0.86184 0.58706 0.79612 0.0
C144 C 0.8435 0.60455 0.83243 0.0
C145 C 0.90092 0.61696 0.78246 0.0
C146 C 0.90383 0.6824 0.84162 0.0
C147 C 0.84708 0.6693 0.89415 0.0
C148 C 0.02782 0.61514 0.00646 0.0
C149 C 0.98938 0.57166 0.99784 0.0
H150 H 0.08999 0.70493 0.02002 0.0
C151 C 0.81871 0.74614 0.05026 0.0
C152 C 0.81561 0.829 0.99669 0.0
C153 C 0.63668 0.84087 0.14514 0.0
C154 C 0.58061 0.82728 0.19587 0.0
C155 C 0.62995 0.90911 0.2031 0.0
C156 C 0.65067 0.89103 0.1673 0.0
C157 C 0.59485 0.87759 0.21727 0.0
C158 C 0.60191 0.80865 0.15973 0.0
C159 C 0.65489 0.82462 0.10648 0.0
H160 H 0.84589 0.55014 0.77853 0.0
H161 H 0.81356 0.58047 0.84252 0.0
H162 H 0.91476 0.60287 0.75419 0.0
H163 H 0.9206 0.71924 0.85903 0.0
H164 H 0.64066 0.94788 0.21982 0.0
H165 H 0.67697 0.91675 0.15685 0.0
H166 H 0.57879 0.89244 0.24513 0.0
H167 H 0.59015 0.77003 0.14301 0.0
C168 C 0.10018 0.62188 0.48365 0.0
C169 C 1.00108 0.66381 0.50693 0.0
C170 C 0.06296 0.66578 0.49434 0.0
C171 C 0.97777 0.61774 0.50972 0.0
C172 C 0.07655 0.57548 0.48609 0.0
C173 C 0.0154 0.57379 0.49937 0.0
N174 N 0.15882 0.62432 0.47018 0.0
C175 C 0.19562 0.58168 0.45799 0.0
C176 C 0.11473 0.53191 0.47455 0.0
C177 C 0.1744 0.53503 0.46036 0.0
Gd178 Gd 0.31253 0.79282 0.53817 0.0
Gd179 Gd 0.18695 0.70401 0.46593 0.0
N180 N 0.08705 0.71024 0.492 0.0
C181 C 0.96392 0.70795 0.51554 0.0
C182 C 0.05019 0.75257 0.49863 0.0
C183 C 0.98829 0.75229 0.51085 0.0
H184 H 0.06779 0.78618 0.49379 0.0
H185 H 0.95939 0.78618 0.51651 0.0
H186 H 0.42996 0.70811 0.51301 0.0
H187 H 0.2407 0.58304 0.44557 0.0
H188 H 0.53614 0.70238 0.48659 0.0
H189 H 0.91604 0.70789 0.52512 0.0
H190 H 0.93039 0.61552 0.51941 0.0
H191 H 0.26471 0.91433 0.55589 0.0
H192 H 0.09824 0.49554 0.47597 0.0
H193 H 0.20373 0.50132 0.45074 0.0
H194 H 0.57213 0.8697 0.47885 0.0
H195 H 0.99631 0.53849 0.50122 0.0
H196 H 0.41021 0.99548 0.52213 0.0
H197 H 0.30484 0.99391 0.54856 0.0
N198 N 0.34461 0.87021 0.53144 0.0
C199 C 0.40307 0.87031 0.51725 0.0
C200 C 0.30963 0.91391 0.54294 0.0
C201 C 0.39233 0.96006 0.52449 0.0
C202 C 0.3327 0.95932 0.53937 0.0
C203 C 0.42853 0.91536 0.51344 0.0
H204 H 0.5098 0.94882 0.49626 0.0
N205 N 0.41232 0.7825 0.51127 0.0
C206 C 0.43796 0.82529 0.50698 0.0
C207 C 0.53446 0.77944 0.48497 0.0
C208 C 0.49954 0.82469 0.4933 0.0
C209 C 0.44756 0.73951 0.50543 0.0
C210 C 0.50858 0.73685 0.49148 0.0
O211 O 0.17494 0.70949 0.52513 0.0
O212 O 0.21746 0.78659 0.56063 0.0
O213 O 0.36635 0.77347 0.58068 0.0
O214 O 0.33388 0.8513 0.58854 0.0
O215 O 0.18645 0.78969 0.47734 0.0
O216 O 0.2173 0.82885 0.53682 0.0
O217 O 0.31584 0.7922 0.4796 0.0
O218 O 0.2846 0.7109 0.44571 0.0
O219 O 0.14046 0.7286 0.42441 0.0
O220 O 0.15393 0.64816 0.41631 0.0
O221 O 0.30956 0.7068 0.52753 0.0
O222 O 0.2826 0.66952 0.46729 0.0
C223 C 0.18465 0.74512 0.5566 0.0
C224 C 0.18443 0.82808 0.50797 0.0
C225 C 0.39375 0.8412 0.63846 0.0
C226 C 0.44668 0.83149 0.69175 0.0
C227 C 0.42151 0.91608 0.6896 0.0
C228 C 0.39514 0.89457 0.65539 0.0
C229 C 0.44699 0.88491 0.70765 0.0
C230 C 0.42007 0.80936 0.65682 0.0
C231 C 0.3646 0.82095 0.60188 0.0
C232 C 0.52486 0.86943 0.48926 0.0
C233 C 0.48942 0.91457 0.49924 0.0
H234 H 0.58206 0.7775 0.47459 0.0
C235 C 0.31302 0.75417 0.44875 0.0
C236 C 0.31301 0.66902 0.49656 0.0
C237 C 0.14232 0.67161 0.36341 0.0
C238 C 0.10199 0.6735 0.30517 0.0
C239 C 0.19715 0.62609 0.30757 0.0
C240 C 0.19258 0.64082 0.34526 0.0
C241 C 0.15203 0.64208 0.2876 0.0
C242 C 0.09718 0.68828 0.34319 0.0
C243 C 0.1326 0.68198 0.40262 0.0
H244 H 0.42187 0.95718 0.70231 0.0
H245 H 0.37572 0.9201 0.64218 0.0
H246 H 0.46652 0.90263 0.7345 0.0
H247 H 0.41882 0.76817 0.64452 0.0
H248 H 0.23533 0.60158 0.29371 0.0
H249 H 0.2275 0.62716 0.36013 0.0
H250 H 0.15585 0.6296 0.25831 0.0
H251 H 0.05763 0.71137 0.35683 0.0
C252 C 0.59659 0.12131 0.48175 0.0
C253 C 0.49698 0.16394 0.50247 0.0
C254 C 0.55917 0.16491 0.48989 0.0
C255 C 0.47314 0.11893 0.50685 0.0
C256 C 0.57261 0.07603 0.48602 0.0
C257 C 0.51084 0.07515 0.49864 0.0
N258 N 0.65639 0.12322 0.46971 0.0
C259 C 0.69352 0.08071 0.45997 0.0
C260 C 0.6113 0.03277 0.4772 0.0
C261 C 0.6719 0.03509 0.46396 0.0
Gd262 Gd 0.81233 0.29193 0.53557 0.0
Gd263 Gd 0.68601 0.20054 0.46172 0.0
N264 N 0.58371 0.20831 0.48586 0.0
C265 C 0.46057 0.20833 0.51037 0.0
C266 C 0.54767 0.25108 0.49241 0.0
C267 C 0.48595 0.25197 0.50516 0.0
H268 H 0.56548 0.2841 0.48689 0.0
H269 H 0.45766 0.28615 0.51047 0.0
H270 H 0.93303 0.21064 0.5138 0.0
H271 H 0.73923 0.08138 0.44823 0.0
H272 H 0.04383 0.21 0.49441 0.0
H273 H 0.41264 0.20914 0.52009 0.0
H274 H 0.42553 0.11755 0.5165 0.0
H275 H 0.75817 0.41227 0.54973 0.0
H276 H 0.59465 0.99726 0.48002 0.0
H277 H 0.70169 0.00153 0.45637 0.0
H278 H 0.07974 0.38128 0.49463 0.0
H279 H 0.49173 0.04072 0.50199 0.0
H280 H 0.90896 0.50025 0.52828 0.0
H281 H 0.79894 0.49379 0.54686 0.0
N282 N 0.84221 0.37056 0.52926 0.0
C283 C 0.90352 0.37371 0.51996 0.0
C284 C 0.80509 0.41326 0.53942 0.0
C285 C 0.89078 0.46367 0.5283 0.0
C286 C 0.82854 0.46013 0.53866 0.0
C287 C 0.9293 0.42033 0.51906 0.0
H288 H 0.01364 0.45802 0.50926 0.0
N289 N 0.91628 0.28671 0.51495 0.0
C290 C 0.94159 0.33068 0.51269 0.0
C291 C 0.04209 0.28853 0.49593 0.0
C292 C 0.00542 0.33278 0.50324 0.0
C293 C 0.95265 0.2443 0.50984 0.0
C294 C 0.01558 0.24412 0.49933 0.0
O295 O 0.67958 0.20141 0.52027 0.0
O296 O 0.71164 0.28306 0.54997 0.0
O297 O 0.85305 0.2725 0.58177 0.0
O298 O 0.83031 0.3512 0.58582 0.0
O299 O 0.67835 0.28552 0.47116 0.0
O300 O 0.71861 0.32723 0.52876 0.0
O301 O 0.84443 0.26313 0.47657 0.0
O302 O 0.75056 0.25536 0.4464 0.0
O303 O 0.61853 0.19857 0.41919 0.0
O304 O 0.69707 0.14402 0.40817 0.0
O305 O 0.8092 0.20694 0.52597 0.0
O306 O 0.78345 0.16922 0.46538 0.0
C307 C 0.68688 0.24002 0.55038 0.0
C308 C 0.68602 0.32651 0.49982 0.0
C309 C 0.87356 0.34127 0.64002 0.0
C310 C 0.92199 0.33213 0.69422 0.0
C311 C 0.88538 0.41518 0.69453 0.0
C312 C 0.86551 0.39383 0.65876 0.0
C313 C 0.91366 0.38459 0.71216 0.0
C314 C 0.90167 0.31019 0.65808 0.0
C315 C 0.85248 0.32057 0.60186 0.0
C316 C 0.03074 0.37886 0.50167 0.0
C317 C 0.99294 0.42257 0.50984 0.0
H318 H 0.09112 0.28848 0.48822 0.0
C319 C 0.81236 0.25647 0.44655 0.0
C320 C 0.81367 0.16928 0.49497 0.0
C321 C 0.62606 0.13827 0.35778 0.0
C322 C 0.57088 0.14424 0.30432 0.0
C323 C 0.63045 0.06798 0.30095 0.0
C324 C 0.64695 0.08922 0.33734 0.0
C325 C 0.59282 0.09528 0.2845 0.0
C326 C 0.58743 0.16586 0.34115 0.0
C327 C 0.64785 0.16094 0.39559 0.0
H328 H 0.87902 0.45563 0.7086 0.0
H329 H 0.84387 0.41877 0.64579 0.0
H330 H 0.9291 0.40187 0.73996 0.0
H331 H 0.90828 0.26968 0.64417 0.0
H332 H 0.64724 0.0303 0.28534 0.0
H333 H 0.67659 0.06734 0.34945 0.0
H334 H 0.58096 0.07824 0.25608 0.0
H335 H 0.57105 0.20387 0.35648 0.0
C336 C 0.6264 0.59393 0.96954 0.0
C337 C 0.64679 0.63317 1.0005 0.0
C338 C 0.58406 0.55679 0.97272 0.0
C339 C 0.56146 0.55814 0.00704 0.0
C340 C 0.58257 0.59708 0.03786 0.0
C341 C 0.62485 0.63393 0.03471 0.0
C342 C 0.51365 0.52163 0.01201 0.0
C343 C 0.50185 0.47567 0.98728 0.0
C344 C 0.45245 0.43998 0.99165 0.0
C345 C 0.42961 0.40281 0.96036 0.0
C346 C 0.38487 0.36719 0.96277 0.0
C347 C 0.36221 0.36741 0.99668 0.0
H348 H 0.44668 0.46791 0.05061 0.0
C349 C 0.38435 0.40494 0.02814 0.0
C350 C 0.42917 0.44085 0.0257 0.0
H351 H 0.3687 0.40558 0.05471 0.0
H352 H 0.64176 0.59266 0.94279 0.0
H353 H 0.56785 0.52836 0.94808 0.0
H354 H 0.56591 0.59932 0.0646 0.0
H355 H 0.63947 0.66355 0.05925 0.0
H356 H 0.48719 0.53364 0.03718 0.0
H357 H 0.52836 0.46356 0.96214 0.0
H358 H 0.44673 0.40108 0.93381 0.0
H359 H 0.36897 0.3388 0.93794 0.0
C360 C 0.36678 0.60878 0.52267 0.0
C361 C 0.35757 0.62702 0.4935 0.0
C362 C 0.41283 0.57192 0.52079 0.0
C363 C 0.45116 0.55309 0.48975 0.0
C364 C 0.44191 0.57176 0.46072 0.0
C365 C 0.39499 0.60781 0.46233 0.0
C366 C 0.50284 0.51582 0.4873 0.0
C367 C 0.50262 0.48244 0.5059 0.0
C368 C 0.55363 0.4449 0.50442 0.0
C369 C 0.55386 0.4207 0.53098 0.0
C370 C 0.59912 0.38397 0.53042 0.0
C371 C 0.64405 0.36964 0.50268 0.0
H372 H 0.60151 0.44808 0.45569 0.0
C373 C 0.64455 0.3935 0.47608 0.0
C374 C 0.60011 0.43124 0.47706 0.0
H375 H 0.67889 0.38252 0.45434 0.0
H376 H 0.33874 0.62341 0.54708 0.0
H377 H 0.41944 0.55972 0.54419 0.0
H378 H 0.47128 0.55858 0.43674 0.0
H379 H 0.3897 0.62221 0.43979 0.0
H380 H 0.54148 0.51593 0.46916 0.0
H381 H 0.46286 0.48225 0.52335 0.0
H382 H 0.51841 0.42985 0.5521 0.0
H383 H 0.59727 0.36505 0.55074 0.0
C384 C 0.11175 0.10329 0.97037 0.0
C385 C 0.15313 0.12666 0.99905 0.0
C386 C 0.07316 0.06292 0.97159 0.0
C387 C 0.07629 0.04469 1.00126 0.0
C388 C 0.11954 0.06696 0.02918 0.0
C389 C 0.15692 0.10816 0.02839 0.0
C390 C 0.03622 0.00197 0.0037 0.0
C391 C 0.97706 0.99385 0.99047 0.0
C392 C 0.93528 0.95212 0.99356 0.0
C393 C 0.88171 0.93903 0.97121 0.0
C394 C 0.84211 0.89919 0.97242 0.0
C395 C 0.85481 0.87248 0.99652 0.0
H396 H 0.98594 0.93527 0.03698 0.0
C397 C 0.90659 0.88647 0.01987 0.0
C398 C 0.94671 0.92575 0.01836 0.0
H399 H 0.91667 0.86631 0.03884 0.0
H400 H 0.10816 0.11709 0.94746 0.0
H401 H 0.04158 0.04577 0.94913 0.0
H402 H 0.1235 0.0531 0.05205 0.0
H403 H 0.18915 0.12531 0.05055 0.0
H404 H 0.05604 0.97795 0.01801 0.0
H405 H 0.95804 0.01882 0.97657 0.0
H406 H 0.87099 0.95915 0.95231 0.0
H407 H 0.80174 0.88913 0.95452 0.0
C408 C 0.87841 0.12017 0.52607 0.0
C409 C 0.85406 0.12502 0.49382 0.0
C410 C 0.91777 0.07935 0.52523 0.0
C411 C 0.93393 0.04232 0.49202 0.0
C412 C 0.90868 0.04671 0.45989 0.0
C413 C 0.8697 0.08778 0.4607 0.0
C414 C 0.97566 0.9981 0.48966 0.0
C415 C 0.01829 0.99775 0.51526 0.0
C416 C 0.061 0.95389 0.51251 0.0
C417 C 0.0887 0.95019 0.54426 0.0
C418 C 0.12917 0.90972 0.54293 0.0
C419 C 0.14346 0.87224 0.50967 0.0
H420 H 0.05783 0.91877 0.45381 0.0
C421 C 0.11664 0.87641 0.47781 0.0
C422 C 0.07612 0.91673 0.47914 0.0
H423 H 0.12695 0.84847 0.45164 0.0
H424 H 0.86705 0.14794 0.55214 0.0
H425 H 0.9344 0.07673 0.55075 0.0
H426 H 0.91987 0.01858 0.43393 0.0
H427 H 0.85223 0.09045 0.43532 0.0
H428 H 0.97143 0.9651 0.46537 0.0
H429 H 0.0224 0.03079 0.53956 0.0
H430 H 0.07843 0.97843 0.57032 0.0
H431 H 0.14859 0.90755 0.56804 0.0
C432 C 0.55776 0.20661 0.2707 0.0
C433 C 0.53102 0.17117 0.28528 0.0
C434 C 0.52558 0.22091 0.2441 0.0
C435 C 0.46591 0.19987 0.2317 0.0
C436 C 0.43775 0.16744 0.24852 0.0
C437 C 0.47001 0.15305 0.27484 0.0
C438 C 0.43361 0.20612 0.19937 0.0
C439 C 0.45348 0.23639 0.18055 0.0
C440 C 0.42168 0.23721 0.14675 0.0
C441 C 0.41878 0.28316 0.13892 0.0
C442 C 0.38792 0.28527 0.10779 0.0
C443 C 0.36084 0.24109 0.0833 0.0
H444 H 0.39894 0.15625 0.12639 0.0
C445 C 0.36613 0.19456 0.0902 0.0
C446 C 0.39582 0.19267 0.12177 0.0
H447 H 0.34598 0.15988 0.07165 0.0
H448 H 0.60523 0.22048 0.27805 0.0
H449 H 0.54938 0.2461 0.23221 0.0
H450 H 0.39185 0.15082 0.23987 0.0
H451 H 0.44882 0.12521 0.28544 0.0
H452 H 0.39143 0.18335 0.19003 0.0
H453 H 0.4925 0.26252 0.19034 0.0
H454 H 0.43924 0.31778 0.15734 0.0
H455 H 0.3853 0.32155 0.10286 0.0
C456 C 0.47967 0.80843 0.22108 0.0
C457 C 0.54297 0.79584 0.21239 0.0
C458 C 0.44804 0.78947 0.24541 0.0
C459 C 0.4797 0.75833 0.26205 0.0
C460 C 0.54129 0.74215 0.25076 0.0
C461 C 0.57287 0.76099 0.22622 0.0
C462 C 0.45166 0.74527 0.29292 0.0
C463 C 0.41154 0.77701 0.31666 0.0
C464 C 0.38829 0.76966 0.35067 0.0
C465 C 0.36045 0.81156 0.37715 0.0
C466 C 0.33793 0.80705 0.40963 0.0
C467 C 0.34149 0.76014 0.41596 0.0
H468 H 0.41242 0.68917 0.33766 0.0
C469 C 0.3689 0.71804 0.38963 0.0
C470 C 0.39241 0.72271 0.35735 0.0
H471 H 0.37202 0.68139 0.39398 0.0
H472 H 0.45582 0.83527 0.21061 0.0
H473 H 0.39967 0.80095 0.25219 0.0
H474 H 0.56647 0.71759 0.26272 0.0
H475 H 0.62191 0.75121 0.22007 0.0
H476 H 0.46996 0.71181 0.29818 0.0
H477 H 0.39804 0.81248 0.31243 0.0
H478 H 0.35601 0.84806 0.3727 0.0
H479 H 0.31604 0.83983 0.4293 0.0
C480 C 0.64585 0.80354 0.91339 0.0
C481 C 0.67709 0.76238 0.91946 0.0
C482 C 0.62538 0.80088 0.87891 0.0
C483 C 0.63393 0.75618 0.84895 0.0
C484 C 0.66735 0.71536 0.85469 0.0
C485 C 0.68849 0.71831 0.88966 0.0
C486 C 0.60771 0.75145 0.81205 0.0
C487 C 0.56055 0.78172 0.80753 0.0
C488 C 0.52932 0.77924 0.77272 0.0
C489 C 0.46571 0.79363 0.77458 0.0
C490 C 0.43658 0.80421 0.74581 0.0
C491 C 0.47043 0.80136 0.71437 0.0
H492 H 0.61145 0.76127 0.73777 0.0
C493 C 0.53281 0.78305 0.71099 0.0
C494 C 0.56212 0.7717 0.73995 0.0
H495 H 0.56034 0.78159 0.68729 0.0
H496 H 0.63619 0.8382 0.93571 0.0
H497 H 0.60278 0.83446 0.87633 0.0
H498 H 0.67538 0.68048 0.83232 0.0
H499 H 0.71058 0.68541 0.89357 0.0
H500 H 0.62481 0.72083 0.78862 0.0
H501 H 0.53975 0.8093 0.83124 0.0
H502 H 0.43936 0.80002 0.79946 0.0
H503 H 0.38901 0.81918 0.74948 0.0
C504 C 0.60491 0.21528 0.58801 0.0
C505 C 0.66392 0.23652 0.58528 0.0
C506 C 0.58296 0.21389 0.62155 0.0
C507 C 0.62028 0.23302 0.65294 0.0
C508 C 0.67987 0.25317 0.6499 0.0
C509 C 0.70093 0.2557 0.61659 0.0
C510 C 0.60026 0.22952 0.68863 0.0
C511 C 0.53941 0.23054 0.69882 0.0
C512 C 0.51723 0.22063 0.73227 0.0
C513 C 0.45319 0.2284 0.74179 0.0
C514 C 0.42771 0.2115 0.769 0.0
C515 C 0.46586 0.18639 0.78714 0.0
H516 H 0.60544 0.19118 0.74615 0.0
C517 C 0.53051 0.18151 0.77947 0.0
C518 C 0.55612 0.19855 0.75243 0.0
H519 H 0.56053 0.1616 0.79289 0.0
H520 H 0.57527 0.20053 0.56445 0.0
H521 H 0.53745 0.19679 0.62258 0.0
H522 H 0.7101 0.26738 0.67343 0.0
H523 H 0.74665 0.272 0.61528 0.0
H524 H 0.63739 0.22685 0.70697 0.0
H525 H 0.50346 0.23773 0.68129 0.0
H526 H 0.42197 0.24521 0.72685 0.0
H527 H 0.37747 0.21484 0.77408 0.0
C528 C 0.87725 0.70237 0.08764 0.0
C529 C 0.84815 0.74665 0.08495 0.0
C530 C 0.90553 0.70244 0.12001 0.0
C531 C 0.90542 0.74682 0.15069 0.0
C532 C 0.87715 0.79129 0.1479 0.0
C533 C 0.84831 0.79113 0.11553 0.0
C534 C 0.93698 0.7482 0.18519 0.0
C535 C 0.94138 0.70661 0.19594 0.0
C536 C 0.97696 0.70419 0.22839 0.0
C537 C 0.96767 0.66148 0.23983 0.0
C538 C 0.00571 0.65339 0.2667 0.0
C539 C 0.0539 0.68792 0.28284 0.0
H540 H 0.03333 0.77305 0.23765 0.0
C541 C 0.06177 0.73186 0.27282 0.0
C542 C 0.02365 0.74007 0.24586 0.0
H543 H 0.09946 0.75852 0.28456 0.0
H544 H 0.87848 0.66746 0.06465 0.0
H545 H 0.9286 0.66787 0.12059 0.0
H546 H 0.87698 0.82619 0.17092 0.0
H547 H 0.82661 0.826 0.11444 0.0
H548 H 0.95546 0.78465 0.20228 0.0
H549 H 0.9176 0.67178 0.17995 0.0
H550 H 0.93235 0.6331 0.22693 0.0
H551 H 0.99941 0.61887 0.27368 0.0
C552 C 0.90929 0.27114 0.413 0.0
C553 C 0.84591 0.25579 0.41269 0.0
C554 C 0.93934 0.27138 0.38093 0.0
C555 C 0.90672 0.25577 0.34767 0.0
C556 C 0.84381 0.24007 0.34739 0.0
C557 C 0.81391 0.23988 0.37931 0.0
C558 C 0.93432 0.25905 0.31327 0.0
C559 C 0.99645 0.25585 0.30539 0.0
C560 C 0.02328 0.26525 0.27264 0.0
C561 C 0.08597 0.28205 0.27386 0.0
C562 C 0.10981 0.29977 0.2467 0.0
C563 C 0.07182 0.30011 0.2174 0.0
H564 H 0.93972 0.2464 0.23844 0.0
C565 C 0.01124 0.27891 0.21419 0.0
C566 C 0.98721 0.2613 0.24144 0.0
H567 H 0.98112 0.27897 0.1918 0.0
H568 H 0.93548 0.28385 0.43804 0.0
H569 H 0.9873 0.28521 0.38253 0.0
H570 H 0.81738 0.22806 0.32227 0.0
H571 H 0.76538 0.22729 0.37775 0.0
H572 H 0.90114 0.26523 0.294 0.0
H573 H 0.02943 0.24972 0.32483 0.0
H574 H 0.1154 0.28466 0.29706 0.0
H575 H 0.15662 0.31623 0.24973 0.0
C576 C 0.01798 0.30668 0.72009 0.0
C577 C 0.95284 0.302 0.7143 0.0
C578 C 0.04594 0.29034 0.74679 0.0
C579 C 0.00881 0.26991 0.76872 0.0
C580 C 0.94428 0.26178 0.76089 0.0
C581 C 0.91639 0.27799 0.73402 0.0
C582 C 0.03486 0.25897 0.80087 0.0
C583 C 0.08662 0.28236 0.81878 0.0
C584 C 0.11107 0.27465 0.85228 0.0
C585 C 0.17543 0.28309 0.86032 0.0
C586 C 0.20041 0.27745 0.89187 0.0
C587 C 0.16122 0.26417 0.91624 0.0
H588 H 0.02159 0.2564 0.87239 0.0
C589 C 0.09677 0.2565 0.90886 0.0
C590 C 0.07171 0.26167 0.87706 0.0
H591 H 0.06601 0.2462 0.92751 0.0
H592 H 0.04674 0.32546 0.70524 0.0
H593 H 0.09623 0.29524 0.75071 0.0
H594 H 0.91468 0.24551 0.77695 0.0
H595 H 0.86584 0.27473 0.73023 0.0
H596 H 0.00857 0.23286 0.81107 0.0
H597 H 0.11294 0.30865 0.80882 0.0
H598 H 0.20664 0.29364 0.84194 0.0
H599 H 0.25038 0.28344 0.89726 0.0
C600 C 0.18523 0.73693 0.61799 0.0
C601 C 0.15123 0.74196 0.58859 0.0
C602 C 0.15389 0.73688 0.64951 0.0
C603 C 0.08794 0.74281 0.65219 0.0
C604 C 0.05453 0.74826 0.62263 0.0
C605 C 0.08594 0.748 0.59121 0.0
C606 C 0.05127 0.74055 0.68404 0.0
C607 C 0.07596 0.74468 0.71669 0.0
C608 C 0.03761 0.73402 0.7452 0.0
C609 C 0.0655 0.70822 0.76686 0.0
C610 C 0.02816 0.68864 0.78879 0.0
C611 C 0.9627 0.69543 0.78969 0.0
H612 H 0.95008 0.76636 0.73363 0.0
C613 C 0.93545 0.72522 0.77074 0.0
C614 C 0.97268 0.74476 0.74883 0.0
H615 H 0.88496 0.731 0.77136 0.0
H616 H 0.236 0.73275 0.61645 0.0
H617 H 0.18155 0.73136 0.67116 0.0
H618 H 0.00384 0.753 0.62386 0.0
H619 H 0.05936 0.75391 0.56946 0.0
H620 H 1.00121 0.73299 0.67962 0.0
H621 H 0.12602 0.75095 0.72162 0.0
H622 H 0.11553 0.7001 0.76491 0.0
H623 H 0.04983 0.66564 0.80331 0.0
loop_
_geom_bond_atom_site_label_1
_geom_bond_atom_site_label_2
_geom_bond_distance
_geom_bond_site_symmetry_2
_ccdc_geom_bond_type
C0 C2 1.422 . S
C0 C4 1.415 . S
C0 N6 1.369 . S
C1 C2 1.421 1_655 S
C1 C3 1.417 1_554 S
C1 C13 1.422 1_554 S
C2 C0 1.422 . S
C2 C1 1.421 1_455 S
C2 N12 1.359 . S
C3 C1 1.417 1_556 S
C3 C5 1.329 1_556 S
C3 H22 0.930 . S
C4 C0 1.415 . S
C4 C5 1.437 1_455 S
C4 C8 1.413 . S
C5 C3 1.329 1_554 S
C5 C4 1.437 1_655 S
C5 H27 0.929 . S
N6 C0 1.369 . S
N6 C7 1.338 . S
N6 Gd11 2.622 . S
C7 N6 1.338 . S
C7 C9 1.378 . S
C7 H19 0.929 . S
C8 C4 1.413 . S
C8 C9 1.348 . S
C8 H24 0.931 . S
C9 C7 1.378 . S
C9 C8 1.348 . S
C9 H25 0.930 . S
Gd10 N30 2.622 . S
Gd10 N37 2.570 . S
Gd10 O44 2.353 . S
Gd10 O45 2.468 . S
Gd10 O46 2.427 . S
Gd10 O48 2.388 . S
Gd10 O49 2.386 1_556 S
Gd10 O53 2.307 . S
Gd10 C63 2.805 . S
Gd11 N6 2.622 . S
Gd11 N12 2.570 . S
Gd11 O43 2.386 1_554 S
Gd11 O47 2.307 . S
Gd11 O50 2.353 . S
Gd11 O51 2.468 . S
Gd11 O52 2.427 . S
Gd11 O54 2.388 . S
Gd11 C75 2.805 . S
N12 C2 1.359 . S
N12 Gd11 2.570 . S
N12 C14 1.343 . S
C13 C1 1.422 1_556 S
C13 C15 1.321 . S
C13 H21 0.931 . S
C14 N12 1.343 . S
C14 C15 1.390 1_454 S
C14 H16 0.931 . S
C15 C13 1.321 . S
C15 C14 1.390 1_656 S
C15 H17 0.930 . S
H16 C14 0.931 . S
H17 C15 0.930 . S
H18 C41 0.931 . S
H19 C7 0.929 . S
H20 C42 0.930 . S
H21 C13 0.931 . S
H22 C3 0.930 . S
H23 C32 0.929 . S
H24 C8 0.931 . S
H25 C9 0.930 . S
H26 C64 0.930 . S
H27 C5 0.929 . S
H28 C33 0.931 1_565 S
H29 C34 0.930 1_565 S
N30 Gd10 2.622 . S
N30 C31 1.369 . S
N30 C32 1.338 . S
C31 N30 1.369 . S
C31 C35 1.415 . S
C31 C38 1.422 . S
C32 H23 0.929 . S
C32 N30 1.338 . S
C32 C34 1.378 . S
C33 H28 0.931 1_545 S
C33 C34 1.348 . S
C33 C35 1.413 . S
C34 H29 0.930 1_545 S
C34 C32 1.378 . S
C34 C33 1.348 . S
C35 C31 1.415 . S
C35 C33 1.413 . S
C35 C65 1.437 . S
H36 C65 0.929 . S
N37 Gd10 2.570 . S
N37 C38 1.359 . S
N37 C41 1.343 . S
C38 C31 1.422 . S
C38 N37 1.359 . S
C38 C40 1.421 . S
C39 C40 1.422 1_554 S
C39 C42 1.321 . S
C39 H66 0.931 . S
C40 C38 1.421 . S
C40 C39 1.422 1_556 S
C40 C64 1.417 1_556 S
C41 H18 0.931 . S
C41 N37 1.343 . S
C41 C42 1.390 1_556 S
C42 H20 0.930 . S
C42 C39 1.321 . S
C42 C41 1.390 1_554 S
O43 Gd11 2.386 1_556 S
O43 C55 1.265 . S
O44 Gd10 2.353 . S
O44 C55 1.242 . S
O45 Gd10 2.468 . S
O45 C63 1.263 . S
O46 Gd10 2.427 . S
O46 C63 1.252 . S
O47 Gd11 2.307 . S
O47 C56 1.261 1_554 S
O48 Gd10 2.388 . S
O48 C56 1.252 . S
O49 Gd10 2.386 1_554 S
O49 C67 1.265 . S
O50 Gd11 2.353 . S
O50 C67 1.242 . S
O51 Gd11 2.468 . S
O51 C75 1.263 . S
O52 Gd11 2.427 . S
O52 C75 1.252 . S
O53 Gd10 2.307 . S
O53 C68 1.261 1_556 S
O54 Gd11 2.388 . S
O54 C68 1.252 . S
C55 O43 1.265 . S
C55 O44 1.242 . S
C56 O47 1.261 1_556 S
C56 O48 1.252 . S
C57 C60 1.394 . S
C57 C62 1.370 . S
C57 C63 1.500 . S
C58 C61 1.383 . S
C58 C62 1.395 . S
C59 C60 1.396 . S
C59 C61 1.365 . S
C59 H76 0.929 . S
C60 C57 1.394 . S
C60 C59 1.396 . S
C60 H77 0.930 . S
C61 C58 1.383 . S
C61 C59 1.365 . S
C61 H78 0.931 . S
C62 C57 1.370 . S
C62 C58 1.395 . S
C62 H79 0.930 . S
C63 Gd10 2.805 . S
C63 O45 1.263 . S
C63 O46 1.252 . S
C63 C57 1.500 . S
C64 H26 0.930 . S
C64 C40 1.417 1_554 S
C64 C65 1.329 1_554 S
C65 C35 1.437 . S
C65 H36 0.929 . S
C65 C64 1.329 1_556 S
H66 C39 0.931 . S
C67 O49 1.265 . S
C67 O50 1.242 . S
C68 O53 1.261 1_554 S
C68 O54 1.252 . S
C69 C72 1.394 . S
C69 C74 1.370 . S
C69 C75 1.500 . S
C70 C73 1.383 . S
C70 C74 1.395 . S
C71 C72 1.396 . S
C71 C73 1.365 . S
C71 H80 0.929 . S
C72 C69 1.394 . S
C72 C71 1.396 . S
C72 H81 0.930 . S
C73 C70 1.383 . S
C73 C71 1.365 . S
C73 H82 0.931 . S
C74 C69 1.370 . S
C74 C70 1.395 . S
C74 H83 0.930 . S
C75 Gd11 2.805 . S
C75 O51 1.263 . S
C75 O52 1.252 . S
C75 C69 1.500 . S
H76 C59 0.929 . S
H77 C60 0.930 . S
H78 C61 0.931 . S
H79 C62 0.930 . S
H80 C71 0.929 . S
H81 C72 0.930 . S
H82 C73 0.931 . S
H83 C74 0.930 . S
C84 C86 1.422 . S
C84 C88 1.415 . S
C84 N90 1.369 . S
C85 C86 1.421 . S
C85 C87 1.417 1_554 S
C85 C97 1.422 1_554 S
C86 C84 1.422 . S
C86 C85 1.421 . S
C86 N96 1.359 . S
C87 C85 1.417 1_556 S
C87 C89 1.329 1_556 S
C87 H106 0.930 . S
C88 C84 1.415 . S
C88 C89 1.437 . S
C88 C92 1.413 . S
C89 C87 1.329 1_554 S
C89 C88 1.437 . S
C89 H111 0.929 . S
N90 C84 1.369 . S
N90 C91 1.338 . S
N90 Gd95 2.622 . S
C91 N90 1.338 . S
C91 C93 1.378 . S
C91 H103 0.929 . S
C92 C88 1.413 . S
C92 C93 1.348 . S
C92 H108 0.931 1_565 S
C93 C91 1.378 . S
C93 C92 1.348 . S
C93 H109 0.930 1_565 S
Gd94 N114 2.622 . S
Gd94 N121 2.570 . S
Gd94 O128 2.353 . S
Gd94 O129 2.468 . S
Gd94 O130 2.427 . S
Gd94 O132 2.388 . S
Gd94 O133 2.386 1_556 S
Gd94 O137 2.307 . S
Gd94 C147 2.805 . S
Gd95 N90 2.622 . S
Gd95 N96 2.570 . S
Gd95 O127 2.386 1_554 S
Gd95 O131 2.307 . S
Gd95 O134 2.353 . S
Gd95 O135 2.468 . S
Gd95 O136 2.427 . S
Gd95 O138 2.388 . S
Gd95 C159 2.805 . S
N96 C86 1.359 . S
N96 Gd95 2.570 . S
N96 C98 1.343 . S
C97 C85 1.422 1_556 S
C97 C99 1.321 . S
C97 H105 0.931 . S
C98 N96 1.343 . S
C98 C99 1.390 1_554 S
C98 H100 0.931 . S
C99 C97 1.321 . S
C99 C98 1.390 1_556 S
C99 H101 0.930 . S
H100 C98 0.931 . S
H101 C99 0.930 . S
H102 C125 0.931 . S
H103 C91 0.929 . S
H104 C126 0.930 . S
H105 C97 0.931 . S
H106 C87 0.930 . S
H107 C116 0.929 . S
H108 C92 0.931 1_545 S
H109 C93 0.930 1_545 S
H110 C148 0.930 . S
H111 C89 0.929 . S
H112 C117 0.931 . S
H113 C118 0.930 . S
N114 Gd94 2.622 . S
N114 C115 1.369 . S
N114 C116 1.338 . S
C115 N114 1.369 . S
C115 C119 1.415 . S
C115 C122 1.422 . S
C116 H107 0.929 . S
C116 N114 1.338 . S
C116 C118 1.378 . S
C117 H112 0.931 . S
C117 C118 1.348 . S
C117 C119 1.413 . S
C118 H113 0.930 . S
C118 C116 1.378 . S
C118 C117 1.348 . S
C119 C115 1.415 . S
C119 C117 1.413 . S
C119 C149 1.437 1_655 S
H120 C149 0.929 . S
N121 Gd94 2.570 . S
N121 C122 1.359 . S
N121 C125 1.343 . S
C122 C115 1.422 . S
C122 N121 1.359 . S
C122 C124 1.421 1_655 S
C123 C124 1.422 1_554 S
C123 C126 1.321 . S
C123 H150 0.931 . S
C124 C122 1.421 1_455 S
C124 C123 1.422 1_556 S
C124 C148 1.417 1_556 S
C125 H102 0.931 . S
C125 N121 1.343 . S
C125 C126 1.390 1_656 S
C126 H104 0.930 . S
C126 C123 1.321 . S
C126 C125 1.390 1_454 S
O127 Gd95 2.386 1_556 S
O127 C139 1.265 . S
O128 Gd94 2.353 . S
O128 C139 1.242 . S
O129 Gd94 2.468 . S
O129 C147 1.263 . S
O130 Gd94 2.427 . S
O130 C147 1.252 . S
O131 Gd95 2.307 . S
O131 C140 1.261 1_554 S
O132 Gd94 2.388 . S
O132 C140 1.252 . S
O133 Gd94 2.386 1_554 S
O133 C151 1.265 . S
O134 Gd95 2.353 . S
O134 C151 1.242 . S
O135 Gd95 2.468 . S
O135 C159 1.263 . S
O136 Gd95 2.427 . S
O136 C159 1.252 . S
O137 Gd94 2.307 . S
O137 C152 1.261 1_556 S
O138 Gd95 2.388 . S
O138 C152 1.252 . S
C139 O127 1.265 . S
C139 O128 1.242 . S
C140 O131 1.261 1_556 S
C140 O132 1.252 . S
C141 C144 1.394 . S
C141 C146 1.370 . S
C141 C147 1.500 . S
C142 C145 1.383 . S
C142 C146 1.395 . S
C143 C144 1.396 . S
C143 C145 1.365 . S
C143 H160 0.929 . S
C144 C141 1.394 . S
C144 C143 1.396 . S
C144 H161 0.930 . S
C145 C142 1.383 . S
C145 C143 1.365 . S
C145 H162 0.931 . S
C146 C141 1.370 . S
C146 C142 1.395 . S
C146 H163 0.930 . S
C147 Gd94 2.805 . S
C147 O129 1.263 . S
C147 O130 1.252 . S
C147 C141 1.500 . S
C148 H110 0.930 . S
C148 C124 1.417 1_554 S
C148 C149 1.329 1_554 S
C149 C119 1.437 1_455 S
C149 H120 0.929 . S
C149 C148 1.329 1_556 S
H150 C123 0.931 . S
C151 O133 1.265 . S
C151 O134 1.242 . S
C152 O137 1.261 1_554 S
C152 O138 1.252 . S
C153 C156 1.394 . S
C153 C158 1.370 . S
C153 C159 1.500 . S
C154 C157 1.383 . S
C154 C158 1.395 . S
C155 C156 1.396 . S
C155 C157 1.365 . S
C155 H164 0.929 . S
C156 C153 1.394 . S
C156 C155 1.396 . S
C156 H165 0.930 . S
C157 C154 1.383 . S
C157 C155 1.365 . S
C157 H166 0.931 . S
C158 C153 1.370 . S
C158 C154 1.395 . S
C158 H167 0.930 . S
C159 Gd95 2.805 . S
C159 O135 1.263 . S
C159 O136 1.252 . S
C159 C153 1.500 . S
H160 C143 0.929 . S
H161 C144 0.930 . S
H162 C145 0.931 . S
H163 C146 0.930 . S
H164 C155 0.929 . S
H165 C156 0.930 . S
H166 C157 0.931 . S
H167 C158 0.930 . S
C168 C170 1.422 . S
C168 C172 1.415 . S
C168 N174 1.369 . S
C169 C170 1.421 1_655 S
C169 C171 1.417 . S
C169 C181 1.422 . S
C170 C168 1.422 . S
C170 C169 1.421 1_455 S
C170 N180 1.359 . S
C171 C169 1.417 . S
C171 C173 1.329 . S
C171 H190 0.930 . S
C172 C168 1.415 . S
C172 C173 1.437 1_455 S
C172 C176 1.413 . S
C173 C171 1.329 . S
C173 C172 1.437 1_655 S
C173 H195 0.929 . S
N174 C168 1.369 . S
N174 C175 1.338 . S
N174 Gd179 2.622 . S
C175 N174 1.338 . S
C175 C177 1.378 . S
C175 H187 0.929 . S
C176 C172 1.413 . S
C176 C177 1.348 . S
C176 H192 0.931 . S
C177 C175 1.378 . S
C177 C176 1.348 . S
C177 H193 0.930 . S
Gd178 N198 2.622 . S
Gd178 N205 2.570 . S
Gd178 O212 2.353 . S
Gd178 O213 2.468 . S
Gd178 O214 2.427 . S
Gd178 O216 2.388 . S
Gd178 O217 2.386 . S
Gd178 O221 2.307 . S
Gd178 C231 2.805 . S
Gd179 N174 2.622 . S
Gd179 N180 2.570 . S
Gd179 O211 2.386 . S
Gd179 O215 2.307 . S
Gd179 O218 2.353 . S
Gd179 O219 2.468 . S
Gd179 O220 2.427 . S
Gd179 O222 2.388 . S
Gd179 C243 2.805 . S
N180 C170 1.359 . S
N180 Gd179 2.570 . S
N180 C182 1.343 . S
C181 C169 1.422 . S
C181 C183 1.321 . S
C181 H189 0.931 . S
C182 N180 1.343 . S
C182 C183 1.390 1_455 S
C182 H184 0.931 . S
C183 C181 1.321 . S
C183 C182 1.390 1_655 S
C183 H185 0.930 . S
H184 C182 0.931 . S
H185 C183 0.930 . S
H186 C209 0.931 . S
H187 C175 0.929 . S
H188 C210 0.930 . S
H189 C181 0.931 . S
H190 C171 0.930 . S
H191 C200 0.929 . S
H192 C176 0.931 . S
H193 C177 0.930 . S
H194 C232 0.930 . S
H195 C173 0.929 . S
H196 C201 0.931 1_545 S
H197 C202 0.930 1_545 S
N198 Gd178 2.622 . S
N198 C199 1.369 . S
N198 C200 1.338 . S
C199 N198 1.369 . S
C199 C203 1.415 . S
C199 C206 1.422 . S
C200 H191 0.929 . S
C200 N198 1.338 . S
C200 C202 1.378 . S
C201 H196 0.931 1_565 S
C201 C202 1.348 . S
C201 C203 1.413 . S
C202 H197 0.930 1_565 S
C202 C200 1.378 . S
C202 C201 1.348 . S
C203 C199 1.415 . S
C203 C201 1.413 . S
C203 C233 1.437 . S
H204 C233 0.929 . S
N205 Gd178 2.570 . S
N205 C206 1.359 . S
N205 C209 1.343 . S
C206 C199 1.422 . S
C206 N205 1.359 . S
C206 C208 1.421 . S
C207 C208 1.422 . S
C207 C210 1.321 . S
C207 H234 0.931 . S
C208 C206 1.421 . S
C208 C207 1.422 . S
C208 C232 1.417 . S
C209 H186 0.931 . S
C209 N205 1.343 . S
C209 C210 1.390 . S
C210 H188 0.930 . S
C210 C207 1.321 . S
C210 C209 1.390 . S
O211 Gd179 2.386 . S
O211 C223 1.265 . S
O212 Gd178 2.353 . S
O212 C223 1.242 . S
O213 Gd178 2.468 . S
O213 C231 1.263 . S
O214 Gd178 2.427 . S
O214 C231 1.252 . S
O215 Gd179 2.307 . S
O215 C224 1.261 . S
O216 Gd178 2.388 . S
O216 C224 1.252 . S
O217 Gd178 2.386 . S
O217 C235 1.265 . S
O218 Gd179 2.353 . S
O218 C235 1.242 . S
O219 Gd179 2.468 . S
O219 C243 1.263 . S
O220 Gd179 2.427 . S
O220 C243 1.252 . S
O221 Gd178 2.307 . S
O221 C236 1.261 . S
O222 Gd179 2.388 . S
O222 C236 1.252 . S
C223 O211 1.265 . S
C223 O212 1.242 . S
C224 O215 1.261 . S
C224 O216 1.252 . S
C225 C228 1.394 . S
C225 C230 1.370 . S
C225 C231 1.500 . S
C226 C229 1.383 . S
C226 C230 1.395 . S
C227 C228 1.396 . S
C227 C229 1.365 . S
C227 H244 0.929 . S
C228 C225 1.394 . S
C228 C227 1.396 . S
C228 H245 0.930 . S
C229 C226 1.383 . S
C229 C227 1.365 . S
C229 H246 0.931 . S
C230 C225 1.370 . S
C230 C226 1.395 . S
C230 H247 0.930 . S
C231 Gd178 2.805 . S
C231 O213 1.263 . S
C231 O214 1.252 . S
C231 C225 1.500 . S
C232 H194 0.930 . S
C232 C208 1.417 . S
C232 C233 1.329 . S
C233 C203 1.437 . S
C233 H204 0.929 . S
C233 C232 1.329 . S
H234 C207 0.931 . S
C235 O217 1.265 . S
C235 O218 1.242 . S
C236 O221 1.261 . S
C236 O222 1.252 . S
C237 C240 1.394 . S
C237 C242 1.370 . S
C237 C243 1.500 . S
C238 C241 1.383 . S
C238 C242 1.395 . S
C239 C240 1.396 . S
C239 C241 1.365 . S
C239 H248 0.929 . S
C240 C237 1.394 . S
C240 C239 1.396 . S
C240 H249 0.930 . S
C241 C238 1.383 . S
C241 C239 1.365 . S
C241 H250 0.931 . S
C242 C237 1.370 . S
C242 C238 1.395 . S
C242 H251 0.930 . S
C243 Gd179 2.805 . S
C243 O219 1.263 . S
C243 O220 1.252 . S
C243 C237 1.500 . S
H244 C227 0.929 . S
H245 C228 0.930 . S
H246 C229 0.931 . S
H247 C230 0.930 . S
H248 C239 0.929 . S
H249 C240 0.930 . S
H250 C241 0.931 . S
H251 C242 0.930 . S
C252 C254 1.422 . S
C252 C256 1.415 . S
C252 N258 1.369 . S
C253 C254 1.421 . S
C253 C255 1.417 . S
C253 C265 1.422 . S
C254 C252 1.422 . S
C254 C253 1.421 . S
C254 N264 1.359 . S
C255 C253 1.417 . S
C255 C257 1.329 . S
C255 H274 0.930 . S
C256 C252 1.415 . S
C256 C257 1.437 . S
C256 C260 1.413 . S
C257 C255 1.329 . S
C257 C256 1.437 . S
C257 H279 0.929 . S
N258 C252 1.369 . S
N258 C259 1.338 . S
N258 Gd263 2.622 . S
C259 N258 1.338 . S
C259 C261 1.378 . S
C259 H271 0.929 . S
C260 C256 1.413 . S
C260 C261 1.348 . S
C260 H276 0.931 1_545 S
C261 C259 1.378 . S
C261 C260 1.348 . S
C261 H277 0.930 1_545 S
Gd262 N282 2.622 . S
Gd262 N289 2.570 . S
Gd262 O296 2.353 . S
Gd262 O297 2.468 . S
Gd262 O298 2.427 . S
Gd262 O300 2.388 . S
Gd262 O301 2.386 . S
Gd262 O305 2.307 . S
Gd262 C315 2.805 . S
Gd263 N258 2.622 . S
Gd263 N264 2.570 . S
Gd263 O295 2.386 . S
Gd263 O299 2.307 . S
Gd263 O302 2.353 . S
Gd263 O303 2.468 . S
Gd263 O304 2.427 . S
Gd263 O306 2.388 . S
Gd263 C327 2.805 . S
N264 C254 1.359 . S
N264 Gd263 2.570 . S
N264 C266 1.343 . S
C265 C253 1.422 . S
C265 C267 1.321 . S
C265 H273 0.931 . S
C266 N264 1.343 . S
C266 C267 1.390 . S
C266 H268 0.931 . S
C267 C265 1.321 . S
C267 C266 1.390 . S
C267 H269 0.930 . S
H268 C266 0.931 . S
H269 C267 0.930 . S
H270 C293 0.931 . S
H271 C259 0.929 . S
H272 C294 0.930 . S
H273 C265 0.931 . S
H274 C255 0.930 . S
H275 C284 0.929 . S
H276 C260 0.931 1_565 S
H277 C261 0.930 1_565 S
H278 C316 0.930 . S
H279 C257 0.929 . S
H280 C285 0.931 . S
H281 C286 0.930 . S
N282 Gd262 2.622 . S
N282 C283 1.369 . S
N282 C284 1.338 . S
C283 N282 1.369 . S
C283 C287 1.415 . S
C283 C290 1.422 . S
C284 H275 0.929 . S
C284 N282 1.338 . S
C284 C286 1.378 . S
C285 H280 0.931 . S
C285 C286 1.348 . S
C285 C287 1.413 . S
C286 H281 0.930 . S
C286 C284 1.378 . S
C286 C285 1.348 . S
C287 C283 1.415 . S
C287 C285 1.413 . S
C287 C317 1.437 1_655 S
H288 C317 0.929 . S
N289 Gd262 2.570 . S
N289 C290 1.359 . S
N289 C293 1.343 . S
C290 C283 1.422 . S
C290 N289 1.359 . S
C290 C292 1.421 1_655 S
C291 C292 1.422 . S
C291 C294 1.321 . S
C291 H318 0.931 . S
C292 C290 1.421 1_455 S
C292 C291 1.422 . S
C292 C316 1.417 . S
C293 H270 0.931 . S
C293 N289 1.343 . S
C293 C294 1.390 1_655 S
C294 H272 0.930 . S
C294 C291 1.321 . S
C294 C293 1.390 1_455 S
O295 Gd263 2.386 . S
O295 C307 1.265 . S
O296 Gd262 2.353 . S
O296 C307 1.242 . S
O297 Gd262 2.468 . S
O297 C315 1.263 . S
O298 Gd262 2.427 . S
O298 C315 1.252 . S
O299 Gd263 2.307 . S
O299 C308 1.261 . S
O300 Gd262 2.388 . S
O300 C308 1.252 . S
O301 Gd262 2.386 . S
O301 C319 1.265 . S
O302 Gd263 2.353 . S
O302 C319 1.242 . S
O303 Gd263 2.468 . S
O303 C327 1.263 . S
O304 Gd263 2.427 . S
O304 C327 1.252 . S
O305 Gd262 2.307 . S
O305 C320 1.261 . S
O306 Gd263 2.388 . S
O306 C320 1.252 . S
C307 O295 1.265 . S
C307 O296 1.242 . S
C308 O299 1.261 . S
C308 O300 1.252 . S
C309 C312 1.394 . S
C309 C314 1.370 . S
C309 C315 1.500 . S
C310 C313 1.383 . S
C310 C314 1.395 . S
C311 C312 1.396 . S
C311 C313 1.365 . S
C311 H328 0.929 . S
C312 C309 1.394 . S
C312 C311 1.396 . S
C312 H329 0.930 . S
C313 C310 1.383 . S
C313 C311 1.365 . S
C313 H330 0.931 . S
C314 C309 1.370 . S
C314 C310 1.395 . S
C314 H331 0.930 . S
C315 Gd262 2.805 . S
C315 O297 1.263 . S
C315 O298 1.252 . S
C315 C309 1.500 . S
C316 H278 0.930 . S
C316 C292 1.417 . S
C316 C317 1.329 . S
C317 C287 1.437 1_455 S
C317 H288 0.929 . S
C317 C316 1.329 . S
H318 C291 0.931 . S
C319 O301 1.265 . S
C319 O302 1.242 . S
C320 O305 1.261 . S
C320 O306 1.252 . S
C321 C324 1.394 . S
C321 C326 1.370 . S
C321 C327 1.500 . S
C322 C325 1.383 . S
C322 C326 1.395 . S
C323 C324 1.396 . S
C323 C325 1.365 . S
C323 H332 0.929 . S
C324 C321 1.394 . S
C324 C323 1.396 . S
C324 H333 0.930 . S
C325 C322 1.383 . S
C325 C323 1.365 . S
C325 H334 0.931 . S
C326 C321 1.370 . S
C326 C322 1.395 . S
C326 H335 0.930 . S
C327 Gd263 2.805 . S
C327 O303 1.263 . S
C327 O304 1.252 . S
C327 C321 1.500 . S
H328 C311 0.929 . S
H329 C312 0.930 . S
H330 C313 0.931 . S
H331 C314 0.930 . S
H332 C323 0.929 . S
H333 C324 0.930 . S
H334 C325 0.931 . S
H335 C326 0.930 . S
C336 C337 1.386 1_556 S
C336 C338 1.383 . S
C336 H352 0.951 . S
C337 C336 1.386 1_554 S
C337 C341 1.383 . S
C338 C336 1.383 . S
C338 C339 1.402 1_556 S
C338 H353 0.951 . S
C339 C338 1.402 1_554 S
C339 C340 1.375 . S
C339 C342 1.481 . S
C340 C339 1.375 . S
C340 C341 1.367 . S
C340 H354 0.951 . S
C341 C337 1.383 . S
C341 C340 1.367 . S
C341 H355 0.950 . S
C342 C339 1.481 . S
C342 C343 1.297 1_554 S
C342 H356 0.950 . S
C343 C342 1.297 1_556 S
C343 C344 1.471 1_556 S
C343 H357 0.950 . S
C344 C343 1.471 1_554 S
C344 C345 1.359 1_554 S
C344 C350 1.428 . S
C345 C344 1.359 1_556 S
C345 C346 1.369 . S
C345 H358 0.950 . S
C346 C345 1.369 . S
C346 C347 1.392 1_556 S
C346 H359 0.951 . S
C347 C346 1.392 1_554 S
C347 C349 1.384 . S
H348 C350 0.949 . S
C349 C347 1.384 . S
C349 C350 1.385 . S
C349 H351 0.950 . S
C350 C344 1.428 . S
C350 H348 0.949 . S
C350 C349 1.385 . S
H351 C349 0.950 . S
H352 C336 0.951 . S
H353 C338 0.951 . S
H354 C340 0.951 . S
H355 C341 0.950 . S
H356 C342 0.950 . S
H357 C343 0.950 . S
H358 C345 0.950 . S
H359 C346 0.951 . S
C360 C361 1.386 . S
C360 C362 1.383 . S
C360 H376 0.951 . S
C361 C360 1.386 . S
C361 C365 1.383 . S
C362 C360 1.383 . S
C362 C363 1.402 . S
C362 H377 0.951 . S
C363 C362 1.402 . S
C363 C364 1.375 . S
C363 C366 1.481 . S
C364 C363 1.375 . S
C364 C365 1.367 . S
C364 H378 0.951 . S
C365 C361 1.383 . S
C365 C364 1.367 . S
C365 H379 0.950 . S
C366 C363 1.481 . S
C366 C367 1.297 . S
C366 H380 0.950 . S
C367 C366 1.297 . S
C367 C368 1.479 . S
C367 H381 0.950 . S
C368 C367 1.479 . S
C368 C369 1.375 . S
C368 C374 1.404 . S
C369 C368 1.375 . S
C369 C370 1.369 . S
C369 H382 0.950 . S
C370 C369 1.369 . S
C370 C371 1.392 . S
C370 H383 0.951 . S
C371 C370 1.392 . S
C371 C373 1.384 . S
H372 C374 0.949 . S
C373 C371 1.384 . S
C373 C374 1.385 . S
C373 H375 0.950 . S
C374 C368 1.404 . S
C374 H372 0.949 . S
C374 C373 1.385 . S
H375 C373 0.950 . S
H376 C360 0.951 . S
H377 C362 0.951 . S
H378 C364 0.951 . S
H379 C365 0.950 . S
H380 C366 0.950 . S
H381 C367 0.950 . S
H382 C369 0.950 . S
H383 C370 0.951 . S
C384 C385 1.386 . S
C384 C386 1.383 . S
C384 H400 0.951 . S
C385 C384 1.386 . S
C385 C389 1.383 1_556 S
C386 C384 1.383 . S
C386 C387 1.402 . S
C386 H401 0.951 . S
C387 C386 1.402 . S
C387 C388 1.375 1_556 S
C387 C390 1.481 1_545 S
C388 C387 1.375 1_554 S
C388 C389 1.367 . S
C388 H402 0.951 . S
C389 C385 1.383 1_554 S
C389 C388 1.367 . S
C389 H403 0.950 . S
C390 C387 1.481 1_565 S
C390 C391 1.297 1_455 S
C390 H404 0.950 1_556 S
C391 C390 1.297 1_655 S
C391 C392 1.479 . S
C391 H405 0.950 1_565 S
C392 C391 1.479 . S
C392 C393 1.375 . S
C392 C398 1.404 . S
C393 C392 1.375 . S
C393 C394 1.369 . S
C393 H406 0.950 . S
C394 C393 1.369 . S
C394 C395 1.392 . S
C394 H407 0.951 . S
C395 C394 1.392 . S
C395 C397 1.384 1_556 S
H396 C398 0.946 1_454 S
C397 C395 1.384 1_554 S
C397 C398 1.385 1_554 S
C397 H399 0.950 . S
C398 C392 1.404 . S
C398 H396 0.946 1_656 S
C398 C397 1.385 1_556 S
H399 C397 0.950 . S
H400 C384 0.951 . S
H401 C386 0.951 . S
H402 C388 0.951 . S
H403 C389 0.950 . S
H404 C390 0.950 1_554 S
H405 C391 0.950 1_545 S
H406 C393 0.950 . S
H407 C394 0.951 . S
C408 C409 1.386 . S
C408 C410 1.383 . S
C408 H424 0.951 . S
C409 C408 1.386 . S
C409 C413 1.383 . S
C410 C408 1.383 . S
C410 C411 1.402 . S
C410 H425 0.951 . S
C411 C410 1.402 . S
C411 C412 1.375 . S
C411 C414 1.481 1_545 S
C412 C411 1.375 . S
C412 C413 1.367 . S
C412 H426 0.951 . S
C413 C409 1.383 . S
C413 C412 1.367 . S
C413 H427 0.950 . S
C414 C411 1.481 1_565 S
C414 C415 1.297 1_655 S
C414 H428 0.950 . S
C415 C414 1.297 1_455 S
C415 C416 1.479 . S
C415 H429 0.950 1_565 S
C416 C415 1.479 . S
C416 C417 1.375 . S
C416 C422 1.404 . S
C417 C416 1.375 . S
C417 C418 1.369 . S
C417 H430 0.950 . S
C418 C417 1.369 . S
C418 C419 1.392 . S
C418 H431 0.951 . S
C419 C418 1.392 . S
C419 C421 1.384 . S
H420 C422 0.947 . S
C421 C419 1.384 . S
C421 C422 1.385 . S
C421 H423 0.950 . S
C422 C416 1.404 . S
C422 H420 0.947 . S
C422 C421 1.385 . S
H423 C421 0.950 . S
H424 C408 0.951 . S
H425 C410 0.951 . S
H426 C412 0.951 . S
H427 C413 0.950 . S
H428 C414 0.950 . S
H429 C415 0.950 1_545 S
H430 C417 0.950 . S
H431 C418 0.951 . S
C432 C433 1.386 . S
C432 C434 1.383 . S
C432 H448 0.951 . S
C433 C432 1.386 . S
C433 C437 1.383 . S
C434 C432 1.383 . S
C434 C435 1.402 . S
C434 H449 0.951 . S
C435 C434 1.402 . S
C435 C436 1.375 . S
C435 C438 1.481 . S
C436 C435 1.375 . S
C436 C437 1.367 . S
C436 H450 0.951 . S
C437 C433 1.383 . S
C437 C436 1.367 . S
C437 H451 0.950 . S
C438 C435 1.481 . S
C438 C439 1.297 . S
C438 H452 0.950 . S
C439 C438 1.297 . S
C439 C440 1.479 . S
C439 H453 0.950 . S
C440 C439 1.479 . S
C440 C441 1.375 . S
C440 C446 1.404 . S
C441 C440 1.375 . S
C441 C442 1.369 . S
C441 H454 0.950 . S
C442 C441 1.369 . S
C442 C443 1.392 . S
C442 H455 0.951 . S
C443 C442 1.392 . S
C443 C445 1.384 . S
H444 C446 0.949 . S
C445 C443 1.384 . S
C445 C446 1.385 . S
C445 H447 0.950 . S
C446 C440 1.404 . S
C446 H444 0.949 . S
C446 C445 1.385 . S
H447 C445 0.950 . S
H448 C432 0.951 . S
H449 C434 0.951 . S
H450 C436 0.951 . S
H451 C437 0.950 . S
H452 C438 0.950 . S
H453 C439 0.950 . S
H454 C441 0.950 . S
H455 C442 0.951 . S
C456 C457 1.386 . S
C456 C458 1.383 . S
C456 H472 0.951 . S
C457 C456 1.386 . S
C457 C461 1.383 . S
C458 C456 1.383 . S
C458 C459 1.402 . S
C458 H473 0.951 . S
C459 C458 1.402 . S
C459 C460 1.375 . S
C459 C462 1.481 . S
C460 C459 1.375 . S
C460 C461 1.367 . S
C460 H474 0.951 . S
C461 C457 1.383 . S
C461 C460 1.367 . S
C461 H475 0.950 . S
C462 C459 1.481 . S
C462 C463 1.297 . S
C462 H476 0.950 . S
C463 C462 1.297 . S
C463 C464 1.479 . S
C463 H477 0.950 . S
C464 C463 1.479 . S
C464 C465 1.375 . S
C464 C470 1.404 . S
C465 C464 1.375 . S
C465 C466 1.369 . S
C465 H478 0.950 . S
C466 C465 1.369 . S
C466 C467 1.392 . S
C466 H479 0.951 . S
C467 C466 1.392 . S
C467 C469 1.384 . S
H468 C470 0.949 . S
C469 C467 1.384 . S
C469 C470 1.385 . S
C469 H471 0.950 . S
C470 C464 1.404 . S
C470 H468 0.949 . S
C470 C469 1.385 . S
H471 C469 0.950 . S
H472 C456 0.951 . S
H473 C458 0.951 . S
H474 C460 0.951 . S
H475 C461 0.950 . S
H476 C462 0.950 . S
H477 C463 0.950 . S
H478 C465 0.950 . S
H479 C466 0.951 . S
C480 C481 1.386 . S
C480 C482 1.383 . S
C480 H496 0.951 . S
C481 C480 1.386 . S
C481 C485 1.383 . S
C482 C480 1.383 . S
C482 C483 1.402 . S
C482 H497 0.951 . S
C483 C482 1.402 . S
C483 C484 1.375 . S
C483 C486 1.481 . S
C484 C483 1.375 . S
C484 C485 1.367 . S
C484 H498 0.951 . S
C485 C481 1.383 . S
C485 C484 1.367 . S
C485 H499 0.950 . S
C486 C483 1.481 . S
C486 C487 1.297 . S
C486 H500 0.950 . S
C487 C486 1.297 . S
C487 C488 1.479 . S
C487 H501 0.950 . S
C488 C487 1.479 . S
C488 C489 1.375 . S
C488 C494 1.404 . S
C489 C488 1.375 . S
C489 C490 1.369 . S
C489 H502 0.950 . S
C490 C489 1.369 . S
C490 C491 1.392 . S
C490 H503 0.951 . S
C491 C490 1.392 . S
C491 C493 1.384 . S
H492 C494 0.949 . S
C493 C491 1.384 . S
C493 C494 1.385 . S
C493 H495 0.950 . S
C494 C488 1.404 . S
C494 H492 0.949 . S
C494 C493 1.385 . S
H495 C493 0.950 . S
H496 C480 0.951 . S
H497 C482 0.951 . S
H498 C484 0.951 . S
H499 C485 0.950 . S
H500 C486 0.950 . S
H501 C487 0.950 . S
H502 C489 0.950 . S
H503 C490 0.951 . S
C504 C505 1.386 . S
C504 C506 1.383 . S
C504 H520 0.951 . S
C505 C504 1.386 . S
C505 C509 1.383 . S
C506 C504 1.383 . S
C506 C507 1.402 . S
C506 H521 0.951 . S
C507 C506 1.402 . S
C507 C508 1.375 . S
C507 C510 1.481 . S
C508 C507 1.375 . S
C508 C509 1.367 . S
C508 H522 0.951 . S
C509 C505 1.383 . S
C509 C508 1.367 . S
C509 H523 0.950 . S
C510 C507 1.481 . S
C510 C511 1.297 . S
C510 H524 0.950 . S
C511 C510 1.297 . S
C511 C512 1.479 . S
C511 H525 0.950 . S
C512 C511 1.479 . S
C512 C513 1.375 . S
C512 C518 1.404 . S
C513 C512 1.375 . S
C513 C514 1.369 . S
C513 H526 0.950 . S
C514 C513 1.369 . S
C514 C515 1.392 . S
C514 H527 0.951 . S
C515 C514 1.392 . S
C515 C517 1.384 . S
H516 C518 0.949 . S
C517 C515 1.384 . S
C517 C518 1.385 . S
C517 H519 0.950 . S
C518 C512 1.404 . S
C518 H516 0.949 . S
C518 C517 1.385 . S
H519 C517 0.950 . S
H520 C504 0.951 . S
H521 C506 0.951 . S
H522 C508 0.951 . S
H523 C509 0.950 . S
H524 C510 0.950 . S
H525 C511 0.950 . S
H526 C513 0.950 . S
H527 C514 0.951 . S
C528 C529 1.386 . S
C528 C530 1.383 . S
C528 H544 0.951 . S
C529 C528 1.386 . S
C529 C533 1.383 . S
C530 C528 1.383 . S
C530 C531 1.402 . S
C530 H545 0.951 . S
C531 C530 1.402 . S
C531 C532 1.375 . S
C531 C534 1.481 . S
C532 C531 1.375 . S
C532 C533 1.367 . S
C532 H546 0.951 . S
C533 C529 1.383 . S
C533 C532 1.367 . S
C533 H547 0.950 . S
C534 C531 1.481 . S
C534 C535 1.297 . S
C534 H548 0.950 . S
C535 C534 1.297 . S
C535 C536 1.479 . S
C535 H549 0.950 . S
C536 C535 1.479 . S
C536 C537 1.375 1_655 S
C536 C542 1.404 1_655 S
C537 C536 1.375 1_455 S
C537 C538 1.369 . S
C537 H550 0.950 . S
C538 C537 1.369 . S
C538 C539 1.392 . S
C538 H551 0.951 . S
C539 C538 1.392 . S
C539 C541 1.384 . S
H540 C542 0.949 . S
C541 C539 1.384 . S
C541 C542 1.385 . S
C541 H543 0.950 . S
C542 C536 1.404 1_455 S
C542 H540 0.949 . S
C542 C541 1.385 . S
H543 C541 0.950 . S
H544 C528 0.951 . S
H545 C530 0.951 . S
H546 C532 0.951 . S
H547 C533 0.950 . S
H548 C534 0.950 . S
H549 C535 0.950 . S
H550 C537 0.950 . S
H551 C538 0.951 . S
C552 C553 1.386 . S
C552 C554 1.383 . S
C552 H568 0.951 . S
C553 C552 1.386 . S
C553 C557 1.383 . S
C554 C552 1.383 . S
C554 C555 1.402 . S
C554 H569 0.951 . S
C555 C554 1.402 . S
C555 C556 1.375 . S
C555 C558 1.481 . S
C556 C555 1.375 . S
C556 C557 1.367 . S
C556 H570 0.951 . S
C557 C553 1.383 . S
C557 C556 1.367 . S
C557 H571 0.950 . S
C558 C555 1.481 . S
C558 C559 1.297 . S
C558 H572 0.950 . S
C559 C558 1.297 . S
C559 C560 1.479 . S
C559 H573 0.950 . S
C560 C559 1.479 . S
C560 C561 1.375 1_655 S
C560 C566 1.404 . S
C561 C560 1.375 1_455 S
C561 C562 1.369 . S
C561 H574 0.950 . S
C562 C561 1.369 . S
C562 C563 1.392 . S
C562 H575 0.951 . S
C563 C562 1.392 . S
C563 C565 1.384 1_455 S
H564 C566 0.949 . S
C565 C563 1.384 1_655 S
C565 C566 1.385 . S
C565 H567 0.950 . S
C566 C560 1.404 . S
C566 H564 0.949 . S
C566 C565 1.385 . S
H567 C565 0.950 . S
H568 C552 0.951 . S
H569 C554 0.951 . S
H570 C556 0.951 . S
H571 C557 0.950 . S
H572 C558 0.950 . S
H573 C559 0.950 . S
H574 C561 0.950 . S
H575 C562 0.951 . S
C576 C577 1.386 1_455 S
C576 C578 1.383 . S
C576 H592 0.951 . S
C577 C576 1.386 1_655 S
C577 C581 1.383 . S
C578 C576 1.383 . S
C578 C579 1.402 . S
C578 H593 0.951 . S
C579 C578 1.402 . S
C579 C580 1.375 1_455 S
C579 C582 1.481 . S
C580 C579 1.375 1_655 S
C580 C581 1.367 . S
C580 H594 0.951 . S
C581 C577 1.383 . S
C581 C580 1.367 . S
C581 H595 0.950 . S
C582 C579 1.481 . S
C582 C583 1.297 . S
C582 H596 0.950 1_455 S
C583 C582 1.297 . S
C583 C584 1.479 . S
C583 H597 0.950 . S
C584 C583 1.479 . S
C584 C585 1.375 . S
C584 C590 1.404 . S
C585 C584 1.375 . S
C585 C586 1.369 . S
C585 H598 0.950 . S
C586 C585 1.369 . S
C586 C587 1.392 . S
C586 H599 0.951 . S
C587 C586 1.392 . S
C587 C589 1.384 . S
H588 C590 0.949 . S
C589 C587 1.384 . S
C589 C590 1.385 . S
C589 H591 0.950 . S
C590 C584 1.404 . S
C590 H588 0.949 . S
C590 C589 1.385 . S
H591 C589 0.950 . S
H592 C576 0.951 . S
H593 C578 0.951 . S
H594 C580 0.951 . S
H595 C581 0.950 . S
H596 C582 0.950 1_655 S
H597 C583 0.950 . S
H598 C585 0.950 . S
H599 C586 0.951 . S
C600 C601 1.386 . S
C600 C602 1.383 . S
C600 H616 0.951 . S
C601 C600 1.386 . S
C601 C605 1.383 . S
C602 C600 1.383 . S
C602 C603 1.402 . S
C602 H617 0.951 . S
C603 C602 1.402 . S
C603 C604 1.375 . S
C603 C606 1.481 . S
C604 C603 1.375 . S
C604 C605 1.367 . S
C604 H618 0.951 . S
C605 C601 1.383 . S
C605 C604 1.367 . S
C605 H619 0.950 . S
C606 C603 1.481 . S
C606 C607 1.297 . S
C606 H620 0.950 . S
C607 C606 1.297 . S
C607 C608 1.479 . S
C607 H621 0.950 . S
C608 C607 1.479 . S
C608 C609 1.375 . S
C608 C614 1.404 1_455 S
C609 C608 1.375 . S
C609 C610 1.369 . S
C609 H622 0.950 . S
C610 C609 1.369 . S
C610 C611 1.392 1_455 S
C610 H623 0.951 . S
C611 C610 1.392 1_655 S
C611 C613 1.384 . S
H612 C614 0.949 . S
C613 C611 1.384 . S
C613 C614 1.385 . S
C613 H615 0.950 . S
C614 C608 1.404 1_655 S
C614 H612 0.949 . S
C614 C613 1.385 . S
H615 C613 0.950 . S
H616 C600 0.951 . S
H617 C602 0.951 . S
H618 C604 0.951 . S
H619 C605 0.950 . S
H620 C606 0.950 . S
H621 C607 0.950 . S
H622 C609 0.950 . S
H623 C610 0.951 . S
C337 C140 1.518 1_554 S
C347 C68 1.477 . S
C361 C236 1.485 . S
C371 C308 1.517 . S
C385 C56 1.503 . S
C395 C152 1.517 1_556 S
C409 C320 1.505 . S
C419 C224 1.465 . S
C433 C322 1.151 . S
C443 C67 1.288 . S
C457 C154 1.238 . S
C467 C235 1.263 . S
C481 C139 1.271 . S
C491 C226 1.174 . S
C505 C307 1.267 . S
C515 C58 1.118 . S
C529 C151 1.292 . S
C539 C238 1.164 . S
C553 C319 1.282 . S
C563 C70 1.234 . S
C577 C310 1.170 . S
C587 C55 1.274 . S
C601 C223 1.292 . S
C611 C142 1.275 . S
