# Generated by pormake.
# Topology rac, (4)-cn, num edge types: 1
# Building blocks:
#     Node 0, Type 0, BuildingBlock: CEKHIL_clean_sbu_0, # of connection points: 4
#     Node 1, Type 0, BuildingBlock: CEKHIL_clean_sbu_0, # of connection points: 4
#     Node 2, Type 0, BuildingBlock: CEKHIL_clean_sbu_0, # of connection points: 4
#     Node 3, Type 0, BuildingBlock: CEKHIL_clean_sbu_0, # of connection points: 4
#     Node 4, Type 0, BuildingBlock: CEKHIL_clean_sbu_0, # of connection points: 4
#     Node 5, Type 0, BuildingBlock: CEKHIL_clean_sbu_0, # of connection points: 4
#     Node 6, Type 0, BuildingBlock: CEKHIL_clean_sbu_0, # of connection points: 4
#     Node 7, Type 0, BuildingBlock: CEKHIL_clean_sbu_0, # of connection points: 4
#     Edge 8, Type (0, 0), BuildingBlock: UVAHIK_clean_linker_0, # of connection points: 2
#     Edge 9, Type (0, 0), BuildingBlock: UVAHIK_clean_linker_0, # of connection points: 2
#     Edge 10, Type (0, 0), BuildingBlock: UVAHIK_clean_linker_0, # of connection points: 2
#     Edge 11, Type (0, 0), BuildingBlock: UVAHIK_clean_linker_0, # of connection points: 2
#     Edge 12, Type (0, 0), BuildingBlock: UVAHIK_clean_linker_0, # of connection points: 2
#     Edge 13, Type (0, 0), BuildingBlock: UVAHIK_clean_linker_0, # of connection points: 2
#     Edge 14, Type (0, 0), BuildingBlock: UVAHIK_clean_linker_0, # of connection points: 2
#     Edge 15, Type (0, 0), BuildingBlock: UVAHIK_clean_linker_0, # of connection points: 2
#     Edge 16, Type (0, 0), BuildingBlock: UVAHIK_clean_linker_0, # of connection points: 2
#     Edge 17, Type (0, 0), BuildingBlock: UVAHIK_clean_linker_0, # of connection points: 2
#     Edge 18, Type (0, 0), BuildingBlock: UVAHIK_clean_linker_0, # of connection points: 2
#     Edge 19, Type (0, 0), BuildingBlock: UVAHIK_clean_linker_0, # of connection points: 2
#     Edge 20, Type (0, 0), BuildingBlock: UVAHIK_clean_linker_0, # of connection points: 2
#     Edge 21, Type (0, 0), BuildingBlock: UVAHIK_clean_linker_0, # of connection points: 2
#     Edge 22, Type (0, 0), BuildingBlock: UVAHIK_clean_linker_0, # of connection points: 2
#     Edge 23, Type (0, 0), BuildingBlock: UVAHIK_clean_linker_0, # of connection points: 2
# Relax obj value: 0.233
# Max RMSD: 0.070
# Mean RMSD: 0.070
data_MOF--net-rac--node1-CEKHIL_clean_sbu_0--edge1-UVAHIK_clean_linker_0
_symmetry_space_group_name_H-M    P1
_symmetry_Int_Tables_number       1
_symmetry_cell_setting            triclinic
loop_
_symmetry_equiv_pos_as_xyz
'x, y, z'
_cell_length_a     52.992623
_cell_length_b     27.336334
_cell_length_c     46.126284
_cell_angle_alpha  90.001659
_cell_angle_beta   89.989864
_cell_angle_gamma 89.988057
loop_
_atom_site_label
_atom_site_type_symbol
_atom_site_fract_x
_atom_site_fract_y
_atom_site_fract_z
_atom_type_partial_charge
Co0 Co 0.36984 0.27977 0.04597 0.0
O1 O 0.38638 0.34145 0.05126 0.0
O2 O 0.39692 0.28813 0.01747 0.0
C3 C 0.37046 0.26144 0.09364 0.0
O4 O 0.35602 0.21166 0.03508 0.0
Co5 Co 0.31795 0.2615 0.07539 0.0
O6 O 0.32772 0.19254 0.06959 0.0
C7 C 0.32066 0.31502 0.01958 0.0
C8 C 0.40106 0.33025 0.0299 0.0
C9 C 0.34134 0.18078 0.04799 0.0
O10 O 0.34481 0.31103 0.01902 0.0
O11 O 0.30678 0.29896 0.04022 0.0
O12 O 0.38989 0.25192 0.07743 0.0
O13 O 0.35208 0.28386 0.081 0.0
Co14 Co 0.13437 0.71957 0.04547 0.0
O15 O 0.1162 0.66029 0.05267 0.0
O16 O 0.10781 0.71027 0.01639 0.0
C17 C 0.13338 0.744 0.09216 0.0
O18 O 0.15025 0.78495 0.03266 0.0
Co19 Co 0.18642 0.73252 0.07599 0.0
O20 O 0.18078 0.80158 0.0653 0.0
C21 C 0.18252 0.67213 0.02296 0.0
C22 C 0.10244 0.66998 0.03029 0.0
C23 C 0.16683 0.81388 0.04406 0.0
O24 O 0.15902 0.68289 0.02053 0.0
O25 O 0.19631 0.6862 0.04419 0.0
O26 O 0.11444 0.75307 0.07512 0.0
O27 O 0.15116 0.71777 0.08107 0.0
Co28 Co 0.37026 0.22395 0.45086 0.0
O29 O 0.38842 0.16454 0.44401 0.0
O30 O 0.3973 0.21585 0.47948 0.0
C31 C 0.37057 0.24674 0.40385 0.0
O32 O 0.35447 0.28965 0.46322 0.0
Co33 Co 0.31778 0.23572 0.42123 0.0
O34 O 0.32343 0.30514 0.43102 0.0
C35 C 0.32258 0.17675 0.47473 0.0
C36 C 0.4025 0.1751 0.46598 0.0
C37 C 0.33769 0.31816 0.45184 0.0
O38 O 0.34607 0.18789 0.47668 0.0
O39 O 0.30847 0.19009 0.45361 0.0
O40 O 0.38969 0.25656 0.42047 0.0
O41 O 0.35297 0.22082 0.41557 0.0
Co42 Co 0.13607 0.78625 0.44961 0.0
O43 O 0.11989 0.84833 0.44442 0.0
O44 O 0.10933 0.79542 0.47843 0.0
C45 C 0.13482 0.76773 0.40199 0.0
O46 O 0.14954 0.71788 0.46046 0.0
Co47 Co 0.18751 0.76638 0.41958 0.0
O48 O 0.17723 0.69772 0.42552 0.0
C49 C 0.18576 0.82003 0.4754 0.0
C50 C 0.10534 0.83757 0.46596 0.0
C51 C 0.16382 0.68649 0.44739 0.0
O52 O 0.16158 0.81691 0.47619 0.0
O53 O 0.19933 0.80341 0.45464 0.0
O54 O 0.11551 0.75878 0.41849 0.0
O55 O 0.1535 0.78972 0.41433 0.0
Co56 Co 0.63396 0.72064 0.95086 0.0
O57 O 0.61757 0.65887 0.94518 0.0
O58 O 0.60811 0.71004 0.98055 0.0
C59 C 0.63143 0.74211 0.90375 0.0
O60 O 0.64785 0.78836 0.96242 0.0
Co61 Co 0.68464 0.74153 0.91912 0.0
O62 O 0.6748 0.8099 0.92698 0.0
C63 C 0.68437 0.68533 0.97408 0.0
C64 C 0.60373 0.66852 0.96752 0.0
C65 C 0.66196 0.82017 0.94947 0.0
O66 O 0.66023 0.68856 0.97585 0.0
O67 O 0.69736 0.70277 0.95307 0.0
O68 O 0.61253 0.74992 0.92106 0.0
O69 O 0.65036 0.71918 0.91493 0.0
Co70 Co 0.86962 0.27943 0.94936 0.0
O71 O 0.88774 0.33883 0.94233 0.0
O72 O 0.89704 0.2873 0.97752 0.0
C73 C 0.86929 0.25734 0.90223 0.0
O74 O 0.854 0.21363 0.96185 0.0
Co75 Co 0.81678 0.26747 0.92067 0.0
O76 O 0.82281 0.19796 0.9299 0.0
C77 C 0.82225 0.32636 0.97415 0.0
C78 C 0.90214 0.32805 0.96399 0.0
C79 C 0.83724 0.18496 0.95056 0.0
O80 O 0.84579 0.31535 0.9757 0.0
O81 O 0.80789 0.31293 0.95328 0.0
O82 O 0.88861 0.24715 0.91846 0.0
O83 O 0.85182 0.28296 0.91443 0.0
Co84 Co 0.63489 0.78384 0.54639 0.0
O85 O 0.61875 0.84588 0.55175 0.0
O86 O 0.60841 0.7936 0.51732 0.0
C87 C 0.63321 0.76463 0.5939 0.0
O88 O 0.64842 0.7156 0.53532 0.0
Co89 Co 0.68606 0.76348 0.57687 0.0
O90 O 0.67581 0.69493 0.57045 0.0
C91 C 0.68483 0.81786 0.5213 0.0
C92 C 0.60436 0.83556 0.52999 0.0
C93 C 0.66259 0.68402 0.54838 0.0
O94 O 0.66065 0.81481 0.52025 0.0
O95 O 0.69822 0.80092 0.54212 0.0
O96 O 0.61405 0.75594 0.57713 0.0
O97 O 0.65201 0.78675 0.58188 0.0
Co98 Co 0.8693 0.22165 0.54488 0.0
O99 O 0.88747 0.16212 0.55134 0.0
O100 O 0.89647 0.21427 0.51635 0.0
C101 C 0.86942 0.2433 0.59208 0.0
O102 O 0.85355 0.28761 0.53294 0.0
Co103 Co 0.81673 0.23299 0.57435 0.0
O104 O 0.8225 0.30262 0.56521 0.0
C105 C 0.82173 0.17492 0.5205 0.0
C106 C 0.90165 0.17324 0.52955 0.0
C107 C 0.83679 0.31599 0.5445 0.0
O108 O 0.84523 0.1861 0.51868 0.0
O109 O 0.80757 0.18791 0.54165 0.0
O110 O 0.8886 0.25357 0.57564 0.0
O111 O 0.85187 0.2177 0.58005 0.0
C112 C 0.33343 0.09182 0.0511 0.0
C113 C 0.33408 0.13432 0.03408 0.0
C114 C 0.31645 0.05418 0.0447 0.0
C115 C 0.26629 0.01082 0.99334 0.0
H116 H 0.23386 0.97387 0.06541 0.0
C117 C 0.191 0.8566 0.00595 0.0
C118 C 0.17445 0.85964 0.02969 0.0
C119 C 0.20841 0.89416 0.0005 0.0
C120 C 0.24233 0.9843 0.04496 0.0
H121 H 0.31911 0.16902 0.99561 0.0
H122 H 0.28926 0.10359 0.98447 0.0
H123 H 0.27106 0.0248 0.06658 0.0
H124 H 0.16123 0.90616 0.06437 0.0
H125 H 0.19028 0.97303 0.05383 0.0
H126 H 0.23688 0.97059 0.97183 0.0
C127 C 0.30207 0.09875 0.00253 0.0
C128 C 0.26416 0.01276 0.04567 0.0
C129 C 0.31941 0.13613 0.00872 0.0
C130 C 0.17351 0.90324 0.04566 0.0
C131 C 0.19059 0.94106 0.03997 0.0
C132 C 0.24428 0.98205 0.99262 0.0
C133 C 0.2993 0.05877 0.02152 0.0
C134 C 0.27662 0.02628 0.01995 0.0
C135 C 0.20943 0.93553 0.01866 0.0
C136 C 0.23196 0.96856 0.01849 0.0
H137 H 0.34429 0.08979 0.07097 0.0
H138 H 0.31544 0.0232 0.05928 0.0
H139 H 0.27531 0.0206 0.97309 0.0
H140 H 0.19254 0.82283 0.99377 0.0
H141 H 0.22255 0.8885 0.98389 0.0
C142 C 0.1859 0.64215 0.48665 0.0
C143 C 0.17106 0.64013 0.46143 0.0
C144 C 0.2032 0.60469 0.49286 0.0
C145 C 0.24053 0.51759 0.44979 0.0
H146 H 0.26849 0.47688 0.52359 0.0
C147 C 0.33102 0.40747 0.44945 0.0
C148 C 0.33023 0.36433 0.46586 0.0
C149 C 0.31404 0.44551 0.45504 0.0
C150 C 0.2609 0.48792 0.5028 0.0
H151 H 0.16046 0.59518 0.42487 0.0
H152 H 0.18921 0.52844 0.43664 0.0
H153 H 0.23012 0.52705 0.52245 0.0
H154 H 0.31253 0.32858 0.5024 0.0
H155 H 0.28267 0.39462 0.51208 0.0
H156 H 0.27058 0.47808 0.42995 0.0
C157 C 0.18839 0.55965 0.45107 0.0
C158 C 0.23892 0.51678 0.50215 0.0
C159 C 0.17147 0.59738 0.44462 0.0
C160 C 0.31395 0.36201 0.48987 0.0
C161 C 0.29663 0.39978 0.49521 0.0
C162 C 0.26233 0.489 0.45043 0.0
C163 C 0.20573 0.56441 0.47404 0.0
C164 C 0.22836 0.53174 0.47556 0.0
C165 C 0.29543 0.44064 0.47668 0.0
C166 C 0.27295 0.47379 0.47688 0.0
H167 H 0.18638 0.67521 0.4996 0.0
H168 H 0.21615 0.60968 0.51077 0.0
H169 H 0.23346 0.52922 0.42887 0.0
H170 H 0.34309 0.40982 0.43053 0.0
H171 H 0.31423 0.47711 0.44088 0.0
C172 C 0.66953 0.90934 0.94792 0.0
C173 C 0.66963 0.8658 0.96401 0.0
C174 C 0.68674 0.94665 0.95419 0.0
C175 C 0.73912 0.98693 0.00346 0.0
H176 H 0.76856 0.0275 0.93039 0.0
C177 C 0.81439 0.14098 0.98928 0.0
C178 C 0.82994 0.13874 0.96464 0.0
C179 C 0.79705 0.10343 0.99509 0.0
C180 C 0.76092 0.01605 0.95109 0.0
H181 H 0.6862 0.82886 0.00085 0.0
H182 H 0.71645 0.8937 0.01173 0.0
H183 H 0.73118 0.97702 0.93034 0.0
H184 H 0.84156 0.09351 0.92862 0.0
H185 H 0.81266 0.02665 0.93968 0.0
H186 H 0.76954 0.02573 0.02404 0.0
C187 C 0.70289 0.8996 0.99452 0.0
C188 C 0.739 0.98785 0.95107 0.0
C189 C 0.68533 0.86254 0.98849 0.0
C190 C 0.83006 0.09581 0.948 0.0
C191 C 0.81306 0.05801 0.95402 0.0
C192 C 0.76122 0.01547 0.00349 0.0
C193 C 0.70486 0.9407 0.97626 0.0
C194 C 0.72763 0.97302 0.97718 0.0
C195 C 0.79512 0.0629 0.97639 0.0
C196 C 0.77248 0.03021 0.97722 0.0
H197 H 0.65786 0.91251 0.92872 0.0
H198 H 0.68714 0.97849 0.94023 0.0
H199 H 0.73095 0.9761 0.024 0.0
H200 H 0.81349 0.17423 0.00203 0.0
H201 H 0.78361 0.10855 0.01251 0.0
C202 C 0.67015 0.59486 0.55075 0.0
C203 C 0.66996 0.63788 0.53418 0.0
C204 C 0.68713 0.55721 0.54437 0.0
C205 C 0.73834 0.51516 0.49389 0.0
H206 H 0.76901 0.47513 0.56638 0.0
C207 C 0.81339 0.36043 0.50643 0.0
C208 C 0.82935 0.36238 0.53073 0.0
C209 C 0.79607 0.39818 0.50107 0.0
C210 C 0.76104 0.48642 0.54583 0.0
H211 H 0.68578 0.67354 0.49647 0.0
H212 H 0.71567 0.60814 0.48542 0.0
H213 H 0.73187 0.52623 0.56714 0.0
H214 H 0.84166 0.40725 0.56659 0.0
H215 H 0.81281 0.47454 0.55624 0.0
H216 H 0.76822 0.47569 0.47272 0.0
C217 C 0.70249 0.60288 0.50309 0.0
C218 C 0.73923 0.51499 0.54628 0.0
C219 C 0.68513 0.64026 0.50922 0.0
C220 C 0.82984 0.40519 0.54746 0.0
C221 C 0.81286 0.44323 0.54185 0.0
C222 C 0.76033 0.48633 0.49344 0.0
C223 C 0.70477 0.5623 0.52171 0.0
C224 C 0.72741 0.52962 0.52039 0.0
C225 C 0.79455 0.43867 0.51986 0.0
C226 C 0.77204 0.47174 0.51947 0.0
H227 H 0.65889 0.59237 0.57031 0.0
H228 H 0.68775 0.52576 0.55864 0.0
H229 H 0.72981 0.52579 0.47351 0.0
H230 H 0.8122 0.32726 0.49364 0.0
H231 H 0.78235 0.39328 0.48392 0.0
C232 C 0.34806 0.257 0.14104 0.0
C233 C 0.37063 0.25388 0.12526 0.0
C234 C 0.34841 0.25625 0.17128 0.0
C235 C 0.38925 0.22957 0.23506 0.0
H236 H 0.34176 0.31533 0.27404 0.0
C237 C 0.3933 0.26761 0.35809 0.0
C238 C 0.37057 0.25762 0.37259 0.0
C239 C 0.39383 0.27074 0.32785 0.0
C240 C 0.35509 0.29123 0.26339 0.0
H241 H 0.41121 0.24605 0.12854 0.0
H242 H 0.412 0.2462 0.18136 0.0
H243 H 0.34178 0.31071 0.22128 0.0
H244 H 0.3304 0.2458 0.36717 0.0
H245 H 0.33124 0.25253 0.31436 0.0
H246 H 0.40283 0.21107 0.27742 0.0
C247 C 0.39392 0.2482 0.17051 0.0
C248 C 0.355 0.28818 0.23319 0.0
C249 C 0.3935 0.2482 0.1402 0.0
C250 C 0.34818 0.25343 0.3565 0.0
C251 C 0.34865 0.25739 0.32634 0.0
C252 C 0.38957 0.23319 0.26527 0.0
C253 C 0.37139 0.25318 0.18643 0.0
C254 C 0.37187 0.25686 0.21862 0.0
C255 C 0.37157 0.26485 0.31172 0.0
C256 C 0.37233 0.2637 0.27969 0.0
H257 H 0.33012 0.26098 0.13001 0.0
H258 H 0.33063 0.25874 0.18276 0.0
H259 H 0.40229 0.20461 0.22468 0.0
H260 H 0.41085 0.27086 0.36998 0.0
H261 H 0.4117 0.27694 0.31703 0.0
C262 C 0.11116 0.75429 0.35585 0.0
C263 C 0.13423 0.76009 0.37038 0.0
C264 C 0.11035 0.75404 0.32556 0.0
C265 C 0.14841 0.79331 0.26206 0.0
H266 H 0.10069 0.71418 0.21895 0.0
C267 C 0.15547 0.75364 0.13947 0.0
C268 C 0.13313 0.75649 0.12321 0.0
C269 C 0.15485 0.75915 0.16954 0.0
C270 C 0.1139 0.73691 0.23078 0.0
H271 H 0.17467 0.76722 0.3649 0.0
H272 H 0.17346 0.76461 0.31217 0.0
H273 H 0.10151 0.70932 0.27175 0.0
H274 H 0.09277 0.76895 0.12534 0.0
H275 H 0.09165 0.77774 0.17817 0.0
H276 H 0.16134 0.81944 0.22086 0.0
C277 C 0.15584 0.76218 0.32398 0.0
C278 C 0.11438 0.73418 0.26103 0.0
C279 C 0.15659 0.76315 0.35421 0.0
C280 C 0.11028 0.76672 0.13739 0.0
C281 C 0.10959 0.77141 0.16756 0.0
C282 C 0.14814 0.79551 0.23184 0.0
C283 C 0.13265 0.75892 0.30924 0.0
C284 C 0.13178 0.76209 0.27705 0.0
C285 C 0.13183 0.76686 0.1839 0.0
C286 C 0.13098 0.76715 0.21594 0.0
H287 H 0.09361 0.75217 0.36782 0.0
H288 H 0.09214 0.75185 0.31501 0.0
H289 H 0.16162 0.81632 0.27366 0.0
H290 H 0.17335 0.74586 0.12905 0.0
H291 H 0.17224 0.75527 0.18168 0.0
C292 C 0.60728 0.7611 0.85859 0.0
C293 C 0.63051 0.75365 0.87259 0.0
C294 C 0.60626 0.76552 0.82841 0.0
C295 C 0.64407 0.79378 0.76399 0.0
H296 H 0.59944 0.70403 0.72383 0.0
C297 C 0.65441 0.76078 0.64202 0.0
C298 C 0.63229 0.75675 0.62548 0.0
C299 C 0.65328 0.75986 0.67223 0.0
C300 C 0.61174 0.72984 0.73465 0.0
H301 H 0.67093 0.74746 0.86635 0.0
H302 H 0.6692 0.75627 0.81377 0.0
H303 H 0.59836 0.7087 0.77667 0.0
H304 H 0.59175 0.74693 0.62739 0.0
H305 H 0.58963 0.74647 0.68022 0.0
H306 H 0.65732 0.81551 0.72222 0.0
C307 C 0.65179 0.75828 0.82604 0.0
C308 C 0.6111 0.7325 0.7649 0.0
C309 C 0.65277 0.75308 0.8561 0.0
C310 C 0.60912 0.74986 0.63965 0.0
C311 C 0.60793 0.74955 0.66993 0.0
C312 C 0.64453 0.79156 0.73377 0.0
C313 C 0.6285 0.76346 0.81187 0.0
C314 C 0.62752 0.76398 0.77983 0.0
C315 C 0.62996 0.75558 0.68658 0.0
C316 C 0.62868 0.75898 0.71873 0.0
H317 H 0.58983 0.76153 0.87082 0.0
H318 H 0.5881 0.76985 0.81796 0.0
H319 H 0.65672 0.81874 0.775 0.0
H320 H 0.67257 0.76568 0.63163 0.0
H321 H 0.67071 0.76318 0.68432 0.0
C322 C 0.89204 0.26214 0.63821 0.0
C323 C 0.86932 0.25325 0.62345 0.0
C324 C 0.89241 0.26433 0.66848 0.0
C325 C 0.85359 0.28485 0.73275 0.0
H326 H 0.8996 0.19559 0.77123 0.0
C327 C 0.84644 0.25197 0.85517 0.0
C328 C 0.86906 0.24806 0.87079 0.0
C329 C 0.8466 0.25035 0.82494 0.0
C330 C 0.88688 0.22124 0.76092 0.0
H331 H 0.82903 0.24238 0.62844 0.0
H332 H 0.8296 0.24759 0.68133 0.0
H333 H 0.90035 0.20267 0.71851 0.0
H334 H 0.90948 0.23765 0.86727 0.0
H335 H 0.90995 0.23638 0.81447 0.0
H336 H 0.84046 0.30456 0.7749 0.0
C337 C 0.84712 0.25225 0.66952 0.0
C338 C 0.88732 0.22521 0.73072 0.0
C339 C 0.84681 0.24918 0.63932 0.0
C340 C 0.89173 0.24044 0.85573 0.0
C341 C 0.89196 0.23964 0.82543 0.0
C342 C 0.85339 0.28146 0.76294 0.0
C343 C 0.87 0.25863 0.68438 0.0
C344 C 0.87054 0.25675 0.71639 0.0
C345 C 0.86945 0.24568 0.80963 0.0
C346 C 0.86985 0.24924 0.77743 0.0
H347 H 0.90968 0.26523 0.62649 0.0
H348 H 0.91025 0.2697 0.6795 0.0
H349 H 0.84061 0.30972 0.72217 0.0
H350 H 0.82866 0.25742 0.86631 0.0
H351 H 0.8288 0.25365 0.81357 0.0
C352 C 0.44006 0.35206 0.00082 0.0
C353 C 0.42159 0.36442 0.02143 0.0
C354 C 0.45987 0.38467 0.99461 0.0
C355 C 0.47837 0.51587 0.00204 0.0
H356 H 0.54652 0.46642 0.994 0.0
C357 C 0.56545 0.64518 0.99735 0.0
C358 C 0.58375 0.63347 0.97642 0.0
C359 C 0.5459 0.61209 0.00371 0.0
C360 C 0.52757 0.48088 0.99597 0.0
H361 H 0.40938 0.42106 0.05135 0.0
H362 H 0.44358 0.47685 0.0408 0.0
H363 H 0.51173 0.40926 0.00118 0.0
H364 H 0.5961 0.57731 0.94626 0.0
H365 H 0.56233 0.52055 0.95714 0.0
H366 H 0.49419 0.58747 0.99686 0.0
C367 C 0.4428 0.44255 0.02909 0.0
C368 C 0.50759 0.44801 -4e-05 0.0
C369 C 0.42319 0.41019 0.03529 0.0
C370 C 0.58236 0.5877 0.96253 0.0
C371 C 0.56302 0.5548 0.96891 0.0
C372 C 0.49834 0.54873 -0.00192 0.0
C373 C 0.46149 0.43033 0.00877 0.0
C374 C 0.48271 0.46505 0.00312 0.0
C375 C 0.54439 0.56655 0.9894 0.0
C376 C 0.52322 0.53171 0.99496 0.0
H377 H 0.43938 0.3171 0.9898 0.0
H378 H 0.47385 0.37423 0.97864 0.0
H379 H 0.45942 0.53036 0.00397 0.0
H380 H 0.56599 0.68011 0.00841 0.0
H381 H 0.53198 0.62215 0.01983 0.0
C382 C 0.07818 0.59319 0.03867 0.0
C383 C 0.08191 0.6357 0.02198 0.0
C384 C 0.05907 0.56006 0.03195 0.0
C385 C 0.9983 0.54852 0.99365 0.0
H386 H 0.01122 0.4094 0.00164 0.0
C387 C 0.92693 0.404 0.95507 0.0
C388 C 0.92308 0.36168 0.97188 0.0
C389 C 0.94627 0.43678 0.96156 0.0
C390 C 0.00718 0.4481 -0.00031 0.0
H391 H 0.06829 0.67654 0.98493 0.0
H392 H 0.03464 0.61804 0.9729 0.0
H393 H 0.04513 0.46788 0.01039 0.0
H394 H 0.93679 0.32067 0.00882 0.0
H395 H 0.97081 0.37859 0.02047 0.0
H396 H 0.96034 0.52877 0.98298 0.0
C397 C 0.04659 0.61079 0.99145 0.0
C398 C 0.02666 0.48172 0.0046 0.0
C399 C 0.06591 0.64421 -0.00178 0.0
C400 C 0.93925 0.35288 0.99546 0.0
C401 C 0.95878 0.38597 0.00201 0.0
C402 C 0.97882 0.51491 0.98874 0.0
C403 C 0.043 0.56819 0.00825 0.0
C404 C 0.02248 0.53241 0.00171 0.0
C405 C 0.96242 0.4285 0.98516 0.0
C406 C 0.983 0.46422 0.99163 0.0
H407 H 0.09001 0.58536 0.05725 0.0
H408 H 0.05664 0.52833 0.04573 0.0
H409 H 0.99424 0.58721 0.99172 0.0
H410 H 0.91501 0.412 0.9366 0.0
H411 H 0.94874 0.46842 0.94772 0.0
C412 C 0.56621 0.8593 0.5 0.0
C413 C 0.58416 0.87039 0.52143 0.0
C414 C 0.54665 0.89244 0.49372 0.0
C415 C 0.51191 0.99745 0.52612 0.0
H416 H 0.49105 0.02318 0.44711 0.0
C417 C 0.44096 0.15266 0.49588 0.0
C418 C 0.42329 0.14133 0.4742 0.0
C419 C 0.46086 0.12017 0.50205 0.0
C420 C 0.49645 0.01612 0.46936 0.0
H421 H 0.59591 0.9256 0.55252 0.0
H422 H 0.56235 0.98271 0.54146 0.0
H423 H 0.52454 0.96406 0.45641 0.0
H424 H 0.41236 0.08635 0.44257 0.0
H425 H 0.44635 0.03035 0.45352 0.0
H426 H 0.48376 0.04937 0.53909 0.0
C427 C 0.56293 0.94831 0.52982 0.0
C428 C 0.51565 0.98207 0.47466 0.0
C429 C 0.58235 0.9155 0.53601 0.0
C430 C 0.42572 0.09668 0.45925 0.0
C431 C 0.44541 0.0645 0.46538 0.0
C432 C 0.49268 0.03145 0.52082 0.0
C433 C 0.54464 0.93714 0.50885 0.0
C434 C 0.52366 0.97231 0.50311 0.0
C435 C 0.46343 0.07585 0.48662 0.0
C436 C 0.48462 0.04115 0.49237 0.0
H437 H 0.56706 0.82487 0.48843 0.0
H438 H 0.53279 0.88258 0.47749 0.0
H439 H 0.51734 0.99037 0.54836 0.0
H440 H 0.43963 0.18673 0.50776 0.0
H441 H 0.47448 0.1302 0.5185 0.0
C442 C 0.94056 0.15207 0.50007 0.0
C443 C 0.92256 0.13982 0.52123 0.0
C444 C 0.96063 0.11999 0.49392 0.0
C445 C 0.996 0.01532 0.52619 0.0
H446 H 0.0184 0.99245 0.44743 0.0
C447 C 0.06674 0.86028 0.49547 0.0
C448 C 0.08499 0.87209 0.4745 0.0
C449 C 0.04701 0.89308 0.50167 0.0
C450 C 0.01255 0.99873 0.46961 0.0
H451 H 0.91122 0.0836 0.55189 0.0
H452 H 0.94554 0.02829 0.54097 0.0
H453 H 0.98445 0.05071 0.45658 0.0
H454 H 0.09712 0.92825 0.44421 0.0
H455 H 0.06328 0.98482 0.45518 0.0
H456 H 0.02403 0.96323 0.53921 0.0
C457 C 0.9447 0.06285 0.52953 0.0
C458 C 0.9931 0.0323 0.47484 0.0
C459 C 0.92483 0.09464 0.53563 0.0
C460 C 0.08332 0.9176 0.46035 0.0
C461 C 0.06374 0.95009 0.46648 0.0
C462 C 0.01542 0.98172 0.52096 0.0
C463 C 0.96306 0.07516 0.50885 0.0
C464 C 0.98449 0.04093 0.5032 0.0
C465 C 0.04514 0.93819 0.48695 0.0
C466 C 0.02397 0.97299 0.4926 0.0
H467 H 0.93935 0.18657 0.48863 0.0
H468 H 0.97452 0.13073 0.47792 0.0
H469 H 0.99016 0.02157 0.54838 0.0
H470 H 0.06746 0.82551 0.50669 0.0
H471 H 0.03291 0.88264 0.5175 0.0
C472 C 0.22044 0.63806 -0.00195 0.0
C473 C 0.19408 0.64042 0.00072 0.0
C474 C 0.2316 0.60328 0.98008 0.0
C475 C 0.21919 0.47939 0.96299 0.0
H476 H 0.28599 0.4878 0.92915 0.0
C477 C 0.28521 0.32511 0.98484 0.0
C478 C 0.30813 0.34205 0.99618 0.0
C479 C 0.27067 0.35526 0.96705 0.0
C480 C 0.26728 0.48461 0.93839 0.0
H481 H 0.15865 0.61124 0.98464 0.0
H482 H 0.1783 0.54937 0.95374 0.0
H483 H 0.25937 0.56059 0.93128 0.0
H484 H 0.33517 0.40127 0.99597 0.0
H485 H 0.30921 0.45542 0.96691 0.0
H486 H 0.22765 0.40565 0.97328 0.0
C487 C 0.19025 0.57469 0.96548 0.0
C488 C 0.25198 0.52624 0.93935 0.0
C489 C 0.17905 0.60993 0.98327 0.0
C490 C 0.31742 0.38769 0.98752 0.0
C491 C 0.30253 0.41852 0.97052 0.0
C492 C 0.23457 0.43812 0.96249 0.0
C493 C 0.21664 0.56982 0.96463 0.0
C494 C 0.2285 0.52462 0.95344 0.0
C495 C 0.2783 0.40368 0.9614 0.0
C496 C 0.25952 0.4411 0.95209 0.0
H497 H 0.23252 0.66166 0.01083 0.0
H498 H 0.25198 0.60013 0.98017 0.0
H499 H 0.20119 0.47692 0.97403 0.0
H500 H 0.27802 0.2894 0.9908 0.0
H501 H 0.25261 0.34178 0.95952 0.0
C502 C 0.32688 0.11455 0.5143 0.0
C503 C 0.31148 0.14508 0.49729 0.0
C504 C 0.31606 0.07882 0.53205 0.0
C505 C 0.25483 0.02822 0.55835 0.0
H506 H 0.27933 0.90973 0.52202 0.0
C507 C 0.18941 0.89162 0.50829 0.0
C508 C 0.19869 0.84644 0.49877 0.0
C509 C 0.20441 0.92175 0.5256 0.0
C510 C 0.27237 0.94154 0.53347 0.0
H511 H 0.27284 0.16607 0.48807 0.0
H512 H 0.25403 0.10372 0.51867 0.0
H513 H 0.30554 0.98131 0.52234 0.0
H514 H 0.22897 0.79379 0.50289 0.0
H515 H 0.25459 0.84491 0.53465 0.0
H516 H 0.22102 0.98886 0.56814 0.0
C517 C 0.2744 0.10717 0.51843 0.0
C518 C 0.28761 0.983 0.53359 0.0
C519 C 0.28518 0.14243 0.50049 0.0
C520 C 0.22178 0.8292 0.50949 0.0
C521 C 0.23644 0.85861 0.52758 0.0
C522 C 0.23968 0.98637 0.55868 0.0
C523 C 0.28971 0.0735 0.53329 0.0
C524 C 0.27821 0.02763 0.544 0.0
C525 C 0.22874 0.90664 0.5342 0.0
C526 C 0.24748 0.9437 0.54409 0.0
H527 H 0.34725 0.11608 0.51251 0.0
H528 H 0.32826 0.05337 0.54334 0.0
H529 H 0.24737 0.06206 0.56707 0.0
H530 H 0.17153 0.90543 0.50036 0.0
H531 H 0.19768 0.95839 0.52994 0.0
C532 C 0.6889 0.61315 0.00643 0.0
C533 C 0.69797 0.65836 0.99671 0.0
C534 C 0.70424 0.58298 0.02332 0.0
C535 C 0.77229 0.56287 0.03013 0.0
H536 H 0.74781 0.44393 0.06613 0.0
C537 C 0.82694 0.38963 0.01304 0.0
C538 C 0.81141 0.35826 0.99675 0.0
C539 C 0.81623 0.42595 0.03047 0.0
C540 C 0.75513 0.47736 0.05672 0.0
H541 H 0.7284 0.71087 -5e-05 0.0
H542 H 0.75467 0.65962 0.03093 0.0
H543 H 0.72136 0.51705 0.06629 0.0
H544 H 0.77273 0.3363 0.98863 0.0
H545 H 0.75413 0.39964 0.01867 0.0
H546 H 0.80538 0.52272 0.01921 0.0
C547 C 0.73637 0.64598 0.02436 0.0
C548 C 0.73991 0.51914 0.05654 0.0
C549 C 0.72134 0.67545 0.0067 0.0
C550 C 0.78516 0.36059 0.00049 0.0
C551 C 0.7745 0.39645 0.01811 0.0
C552 C 0.78758 0.5215 0.03074 0.0
C553 C 0.72872 0.59808 0.03132 0.0
C554 C 0.74753 0.56116 0.04121 0.0
C555 C 0.78988 0.43103 0.03209 0.0
C556 C 0.77837 0.47736 0.04208 0.0
H557 H 0.67082 0.59944 -0.00095 0.0
H558 H 0.69758 0.54638 0.02792 0.0
H559 H 0.77906 0.59419 0.01809 0.0
H560 H 0.84728 0.38835 0.01082 0.0
H561 H 0.8285 0.45206 0.04111 0.0
C562 C 0.72115 0.82713 0.48761 0.0
C563 C 0.69797 0.84436 0.49811 0.0
C564 C 0.73587 0.85644 0.46951 0.0
C565 C 0.73898 0.98356 0.43755 0.0
H566 H 0.80488 0.97951 0.47382 0.0
C567 C 0.78442 0.14082 0.4945 0.0
C568 C 0.81072 0.14338 0.49783 0.0
C569 C 0.77368 0.10535 0.47668 0.0
C570 C 0.78694 0.98089 0.46258 0.0
H571 H 0.67075 0.90323 0.49616 0.0
H572 H 0.697 0.95601 0.46655 0.0
H573 H 0.77869 0.90791 0.47482 0.0
H574 H 0.84651 0.11412 0.48288 0.0
H575 H 0.82758 0.05105 0.45226 0.0
H576 H 0.74665 0.05904 0.42846 0.0
C577 C 0.70375 0.91945 0.47108 0.0
C578 C 0.77172 0.93942 0.4631 0.0
C579 C 0.6887 0.88944 0.48841 0.0
C580 C 0.82615 0.11265 0.48099 0.0
C581 C 0.81536 0.07671 0.46336 0.0
C582 C 0.75413 0.02543 0.43747 0.0
C583 C 0.72812 0.90433 0.46263 0.0
C584 C 0.74682 0.94128 0.45249 0.0
C585 C 0.78901 0.07139 0.46209 0.0
C586 C 0.77752 0.02524 0.45178 0.0
H587 H 0.72833 0.79179 0.49434 0.0
H588 H 0.75406 0.84272 0.46258 0.0
H589 H 0.72032 0.98578 0.4281 0.0
H590 H 0.77206 0.16462 0.50679 0.0
H591 H 0.75331 0.10194 0.47641 0.0
loop_
_geom_bond_atom_site_label_1
_geom_bond_atom_site_label_2
_geom_bond_distance
_geom_bond_site_symmetry_2
_ccdc_geom_bond_type
Co0 O1 2.216 . S
Co0 O2 2.091 . S
Co0 O4 2.004 . S
Co0 O10 2.021 . S
Co0 O12 2.137 . S
Co0 O13 2.244 . S
O1 Co0 2.216 . S
O1 C8 1.247 . S
O2 Co0 2.091 . S
O2 C8 1.261 . S
C3 O12 1.247 . S
C3 O13 1.272 . S
O4 Co0 2.004 . S
O4 C9 1.259 . S
Co5 O6 2.061 . S
Co5 O11 2.052 . S
Co5 O13 2.135 . S
O6 Co5 2.061 . S
O6 C9 1.235 . S
C7 O10 1.238 . S
C7 O11 1.241 . S
C8 O1 1.247 . S
C8 O2 1.261 . S
C9 O4 1.259 . S
C9 O6 1.235 . S
O10 Co0 2.021 . S
O10 C7 1.238 . S
O11 Co5 2.052 . S
O11 C7 1.241 . S
O12 Co0 2.137 . S
O12 C3 1.247 . S
O13 Co0 2.244 . S
O13 C3 1.272 . S
O13 Co5 2.135 . S
Co14 O15 2.216 . S
Co14 O16 2.091 . S
Co14 O18 2.004 . S
Co14 O24 2.021 . S
Co14 O26 2.137 . S
Co14 O27 2.244 . S
O15 Co14 2.216 . S
O15 C22 1.247 . S
O16 Co14 2.091 . S
O16 C22 1.261 . S
C17 O26 1.247 . S
C17 O27 1.272 . S
O18 Co14 2.004 . S
O18 C23 1.259 . S
Co19 O20 2.061 . S
Co19 O25 2.052 . S
Co19 O27 2.135 . S
O20 Co19 2.061 . S
O20 C23 1.235 . S
C21 O24 1.238 . S
C21 O25 1.241 . S
C22 O15 1.247 . S
C22 O16 1.261 . S
C23 O18 1.259 . S
C23 O20 1.235 . S
O24 Co14 2.021 . S
O24 C21 1.238 . S
O25 Co19 2.052 . S
O25 C21 1.241 . S
O26 Co14 2.137 . S
O26 C17 1.247 . S
O27 Co14 2.244 . S
O27 C17 1.272 . S
O27 Co19 2.135 . S
Co28 O29 2.216 . S
Co28 O30 2.091 . S
Co28 O32 2.004 . S
Co28 O38 2.021 . S
Co28 O40 2.137 . S
Co28 O41 2.244 . S
O29 Co28 2.216 . S
O29 C36 1.247 . S
O30 Co28 2.091 . S
O30 C36 1.261 . S
C31 O40 1.247 . S
C31 O41 1.272 . S
O32 Co28 2.004 . S
O32 C37 1.259 . S
Co33 O34 2.061 . S
Co33 O39 2.052 . S
Co33 O41 2.135 . S
O34 Co33 2.061 . S
O34 C37 1.235 . S
C35 O38 1.238 . S
C35 O39 1.241 . S
C36 O29 1.247 . S
C36 O30 1.261 . S
C37 O32 1.259 . S
C37 O34 1.235 . S
O38 Co28 2.021 . S
O38 C35 1.238 . S
O39 Co33 2.052 . S
O39 C35 1.241 . S
O40 Co28 2.137 . S
O40 C31 1.247 . S
O41 Co28 2.244 . S
O41 C31 1.272 . S
O41 Co33 2.135 . S
Co42 O43 2.216 . S
Co42 O44 2.091 . S
Co42 O46 2.004 . S
Co42 O52 2.021 . S
Co42 O54 2.137 . S
Co42 O55 2.244 . S
O43 Co42 2.216 . S
O43 C50 1.247 . S
O44 Co42 2.091 . S
O44 C50 1.261 . S
C45 O54 1.247 . S
C45 O55 1.272 . S
O46 Co42 2.004 . S
O46 C51 1.259 . S
Co47 O48 2.061 . S
Co47 O53 2.052 . S
Co47 O55 2.135 . S
O48 Co47 2.061 . S
O48 C51 1.235 . S
C49 O52 1.238 . S
C49 O53 1.241 . S
C50 O43 1.247 . S
C50 O44 1.261 . S
C51 O46 1.259 . S
C51 O48 1.235 . S
O52 Co42 2.021 . S
O52 C49 1.238 . S
O53 Co47 2.052 . S
O53 C49 1.241 . S
O54 Co42 2.137 . S
O54 C45 1.247 . S
O55 Co42 2.244 . S
O55 C45 1.272 . S
O55 Co47 2.135 . S
Co56 O57 2.216 . S
Co56 O58 2.091 . S
Co56 O60 2.004 . S
Co56 O66 2.021 . S
Co56 O68 2.137 . S
Co56 O69 2.244 . S
O57 Co56 2.216 . S
O57 C64 1.247 . S
O58 Co56 2.091 . S
O58 C64 1.261 . S
C59 O68 1.247 . S
C59 O69 1.272 . S
O60 Co56 2.004 . S
O60 C65 1.259 . S
Co61 O62 2.061 . S
Co61 O67 2.052 . S
Co61 O69 2.135 . S
O62 Co61 2.061 . S
O62 C65 1.235 . S
C63 O66 1.238 . S
C63 O67 1.241 . S
C64 O57 1.247 . S
C64 O58 1.261 . S
C65 O60 1.259 . S
C65 O62 1.235 . S
O66 Co56 2.021 . S
O66 C63 1.238 . S
O67 Co61 2.052 . S
O67 C63 1.241 . S
O68 Co56 2.137 . S
O68 C59 1.247 . S
O69 Co56 2.244 . S
O69 C59 1.272 . S
O69 Co61 2.135 . S
Co70 O71 2.216 . S
Co70 O72 2.091 . S
Co70 O74 2.004 . S
Co70 O80 2.021 . S
Co70 O82 2.137 . S
Co70 O83 2.244 . S
O71 Co70 2.216 . S
O71 C78 1.247 . S
O72 Co70 2.091 . S
O72 C78 1.261 . S
C73 O82 1.247 . S
C73 O83 1.272 . S
O74 Co70 2.004 . S
O74 C79 1.259 . S
Co75 O76 2.061 . S
Co75 O81 2.052 . S
Co75 O83 2.135 . S
O76 Co75 2.061 . S
O76 C79 1.235 . S
C77 O80 1.238 . S
C77 O81 1.241 . S
C78 O71 1.247 . S
C78 O72 1.261 . S
C79 O74 1.259 . S
C79 O76 1.235 . S
O80 Co70 2.021 . S
O80 C77 1.238 . S
O81 Co75 2.052 . S
O81 C77 1.241 . S
O82 Co70 2.137 . S
O82 C73 1.247 . S
O83 Co70 2.244 . S
O83 C73 1.272 . S
O83 Co75 2.135 . S
Co84 O85 2.216 . S
Co84 O86 2.091 . S
Co84 O88 2.004 . S
Co84 O94 2.021 . S
Co84 O96 2.137 . S
Co84 O97 2.244 . S
O85 Co84 2.216 . S
O85 C92 1.247 . S
O86 Co84 2.091 . S
O86 C92 1.261 . S
C87 O96 1.247 . S
C87 O97 1.272 . S
O88 Co84 2.004 . S
O88 C93 1.259 . S
Co89 O90 2.061 . S
Co89 O95 2.052 . S
Co89 O97 2.135 . S
O90 Co89 2.061 . S
O90 C93 1.235 . S
C91 O94 1.238 . S
C91 O95 1.241 . S
C92 O85 1.247 . S
C92 O86 1.261 . S
C93 O88 1.259 . S
C93 O90 1.235 . S
O94 Co84 2.021 . S
O94 C91 1.238 . S
O95 Co89 2.052 . S
O95 C91 1.241 . S
O96 Co84 2.137 . S
O96 C87 1.247 . S
O97 Co84 2.244 . S
O97 C87 1.272 . S
O97 Co89 2.135 . S
Co98 O99 2.216 . S
Co98 O100 2.091 . S
Co98 O102 2.004 . S
Co98 O108 2.021 . S
Co98 O110 2.137 . S
Co98 O111 2.244 . S
O99 Co98 2.216 . S
O99 C106 1.247 . S
O100 Co98 2.091 . S
O100 C106 1.261 . S
C101 O110 1.247 . S
C101 O111 1.272 . S
O102 Co98 2.004 . S
O102 C107 1.259 . S
Co103 O104 2.061 . S
Co103 O109 2.052 . S
Co103 O111 2.135 . S
O104 Co103 2.061 . S
O104 C107 1.235 . S
C105 O108 1.238 . S
C105 O109 1.241 . S
C106 O99 1.247 . S
C106 O100 1.261 . S
C107 O102 1.259 . S
C107 O104 1.235 . S
O108 Co98 2.021 . S
O108 C105 1.238 . S
O109 Co103 2.052 . S
O109 C105 1.241 . S
O110 Co98 2.137 . S
O110 C101 1.247 . S
O111 Co98 2.244 . S
O111 C101 1.272 . S
O111 Co103 2.135 . S
C112 C113 1.349 . S
C112 C114 1.327 . S
C112 H137 0.950 . S
C113 C112 1.349 . S
C113 C129 1.349 . S
C114 C112 1.327 . S
C114 C133 1.429 . S
C114 H138 0.950 . S
C115 C132 1.574 1_545 S
C115 C134 1.368 . S
C115 H139 0.949 1_554 S
H116 C120 0.949 . S
C117 C118 1.349 . S
C117 C119 1.327 . S
C117 H140 0.950 1_554 S
C118 C117 1.349 . S
C118 C130 1.349 . S
C119 C117 1.327 . S
C119 C135 1.429 . S
C119 H141 0.950 1_554 S
C120 H116 0.949 . S
C120 C128 1.574 1_565 S
C120 C136 1.368 . S
H121 C129 0.950 1_556 S
H122 C127 0.950 1_556 S
H123 C128 0.949 . S
H124 C130 0.950 . S
H125 C131 0.950 . S
H126 C132 0.949 1_556 S
C127 H122 0.950 1_554 S
C127 C129 1.327 . S
C127 C133 1.429 . S
C128 C120 1.574 1_545 S
C128 H123 0.949 . S
C128 C134 1.368 . S
C129 C113 1.349 . S
C129 H121 0.950 1_554 S
C129 C127 1.327 . S
C130 C118 1.349 . S
C130 H124 0.950 . S
C130 C131 1.327 . S
C131 H125 0.950 . S
C131 C130 1.327 . S
C131 C135 1.429 . S
C132 C115 1.574 1_565 S
C132 H126 0.949 1_554 S
C132 C136 1.368 . S
C133 C114 1.429 . S
C133 C127 1.429 . S
C133 C134 1.523 . S
C134 C115 1.368 . S
C134 C128 1.368 . S
C134 C133 1.523 . S
C135 C119 1.429 . S
C135 C131 1.429 . S
C135 C136 1.523 . S
C136 C120 1.368 . S
C136 C132 1.368 . S
C136 C135 1.523 . S
H137 C112 0.950 . S
H138 C114 0.950 . S
H139 C115 0.949 1_556 S
H140 C117 0.950 1_556 S
H141 C119 0.950 1_556 S
C142 C143 1.349 . S
C142 C144 1.327 . S
C142 H167 0.950 . S
C143 C142 1.349 . S
C143 C159 1.349 . S
C144 C142 1.327 . S
C144 C163 1.429 . S
C144 H168 0.950 . S
C145 C162 1.574 . S
C145 C164 1.368 . S
C145 H169 0.949 . S
H146 C150 0.949 . S
C147 C148 1.349 . S
C147 C149 1.327 . S
C147 H170 0.950 . S
C148 C147 1.349 . S
C148 C160 1.349 . S
C149 C147 1.327 . S
C149 C165 1.429 . S
C149 H171 0.950 . S
C150 H146 0.949 . S
C150 C158 1.574 . S
C150 C166 1.368 . S
H151 C159 0.950 . S
H152 C157 0.950 . S
H153 C158 0.949 . S
H154 C160 0.950 . S
H155 C161 0.950 . S
H156 C162 0.949 . S
C157 H152 0.950 . S
C157 C159 1.327 . S
C157 C163 1.429 . S
C158 C150 1.574 . S
C158 H153 0.949 . S
C158 C164 1.368 . S
C159 C143 1.349 . S
C159 H151 0.950 . S
C159 C157 1.327 . S
C160 C148 1.349 . S
C160 H154 0.950 . S
C160 C161 1.327 . S
C161 H155 0.950 . S
C161 C160 1.327 . S
C161 C165 1.429 . S
C162 C145 1.574 . S
C162 H156 0.949 . S
C162 C166 1.368 . S
C163 C144 1.429 . S
C163 C157 1.429 . S
C163 C164 1.523 . S
C164 C145 1.368 . S
C164 C158 1.368 . S
C164 C163 1.523 . S
C165 C149 1.429 . S
C165 C161 1.429 . S
C165 C166 1.523 . S
C166 C150 1.368 . S
C166 C162 1.368 . S
C166 C165 1.523 . S
H167 C142 0.950 . S
H168 C144 0.950 . S
H169 C145 0.949 . S
H170 C147 0.950 . S
H171 C149 0.950 . S
C172 C173 1.349 . S
C172 C174 1.327 . S
C172 H197 0.950 . S
C173 C172 1.349 . S
C173 C189 1.349 . S
C174 C172 1.327 . S
C174 C193 1.429 . S
C174 H198 0.950 . S
C175 C192 1.574 1_565 S
C175 C194 1.368 . S
C175 H199 0.949 1_556 S
H176 C180 0.949 . S
C177 C178 1.349 . S
C177 C179 1.327 . S
C177 H200 0.950 1_556 S
C178 C177 1.349 . S
C178 C190 1.349 . S
C179 C177 1.327 . S
C179 C195 1.429 . S
C179 H201 0.950 1_556 S
C180 H176 0.949 . S
C180 C188 1.574 1_545 S
C180 C196 1.368 . S
H181 C189 0.950 1_554 S
H182 C187 0.950 1_554 S
H183 C188 0.949 . S
H184 C190 0.950 . S
H185 C191 0.950 . S
H186 C192 0.949 1_554 S
C187 H182 0.950 1_556 S
C187 C189 1.327 . S
C187 C193 1.429 . S
C188 C180 1.574 1_565 S
C188 H183 0.949 . S
C188 C194 1.368 . S
C189 C173 1.349 . S
C189 H181 0.950 1_556 S
C189 C187 1.327 . S
C190 C178 1.349 . S
C190 H184 0.950 . S
C190 C191 1.327 . S
C191 H185 0.950 . S
C191 C190 1.327 . S
C191 C195 1.429 . S
C192 C175 1.574 1_545 S
C192 H186 0.949 1_556 S
C192 C196 1.368 . S
C193 C174 1.429 . S
C193 C187 1.429 . S
C193 C194 1.523 . S
C194 C175 1.368 . S
C194 C188 1.368 . S
C194 C193 1.523 . S
C195 C179 1.429 . S
C195 C191 1.429 . S
C195 C196 1.523 . S
C196 C180 1.368 . S
C196 C192 1.368 . S
C196 C195 1.523 . S
H197 C172 0.950 . S
H198 C174 0.950 . S
H199 C175 0.949 1_554 S
H200 C177 0.950 1_554 S
H201 C179 0.950 1_554 S
C202 C203 1.349 . S
C202 C204 1.327 . S
C202 H227 0.950 . S
C203 C202 1.349 . S
C203 C219 1.349 . S
C204 C202 1.327 . S
C204 C223 1.429 . S
C204 H228 0.950 . S
C205 C222 1.574 . S
C205 C224 1.368 . S
C205 H229 0.949 . S
H206 C210 0.949 . S
C207 C208 1.349 . S
C207 C209 1.327 . S
C207 H230 0.950 . S
C208 C207 1.349 . S
C208 C220 1.349 . S
C209 C207 1.327 . S
C209 C225 1.429 . S
C209 H231 0.950 . S
C210 H206 0.949 . S
C210 C218 1.574 . S
C210 C226 1.368 . S
H211 C219 0.950 . S
H212 C217 0.950 . S
H213 C218 0.949 . S
H214 C220 0.950 . S
H215 C221 0.950 . S
H216 C222 0.949 . S
C217 H212 0.950 . S
C217 C219 1.327 . S
C217 C223 1.429 . S
C218 C210 1.574 . S
C218 H213 0.949 . S
C218 C224 1.368 . S
C219 C203 1.349 . S
C219 H211 0.950 . S
C219 C217 1.327 . S
C220 C208 1.349 . S
C220 H214 0.950 . S
C220 C221 1.327 . S
C221 H215 0.950 . S
C221 C220 1.327 . S
C221 C225 1.429 . S
C222 C205 1.574 . S
C222 H216 0.949 . S
C222 C226 1.368 . S
C223 C204 1.429 . S
C223 C217 1.429 . S
C223 C224 1.523 . S
C224 C205 1.368 . S
C224 C218 1.368 . S
C224 C223 1.523 . S
C225 C209 1.429 . S
C225 C221 1.429 . S
C225 C226 1.523 . S
C226 C210 1.368 . S
C226 C222 1.368 . S
C226 C225 1.523 . S
H227 C202 0.950 . S
H228 C204 0.950 . S
H229 C205 0.949 . S
H230 C207 0.950 . S
H231 C209 0.950 . S
C232 C233 1.349 . S
C232 C234 1.327 . S
C232 H257 0.950 . S
C233 C232 1.349 . S
C233 C249 1.349 . S
C234 C232 1.327 . S
C234 C253 1.429 . S
C234 H258 0.950 . S
C235 C252 1.574 . S
C235 C254 1.368 . S
C235 H259 0.949 . S
H236 C240 0.949 . S
C237 C238 1.349 . S
C237 C239 1.327 . S
C237 H260 0.950 . S
C238 C237 1.349 . S
C238 C250 1.349 . S
C239 C237 1.327 . S
C239 C255 1.429 . S
C239 H261 0.950 . S
C240 H236 0.949 . S
C240 C248 1.574 . S
C240 C256 1.368 . S
H241 C249 0.950 . S
H242 C247 0.950 . S
H243 C248 0.949 . S
H244 C250 0.950 . S
H245 C251 0.950 . S
H246 C252 0.949 . S
C247 H242 0.950 . S
C247 C249 1.327 . S
C247 C253 1.429 . S
C248 C240 1.574 . S
C248 H243 0.949 . S
C248 C254 1.368 . S
C249 C233 1.349 . S
C249 H241 0.950 . S
C249 C247 1.327 . S
C250 C238 1.349 . S
C250 H244 0.950 . S
C250 C251 1.327 . S
C251 H245 0.950 . S
C251 C250 1.327 . S
C251 C255 1.429 . S
C252 C235 1.574 . S
C252 H246 0.949 . S
C252 C256 1.368 . S
C253 C234 1.429 . S
C253 C247 1.429 . S
C253 C254 1.523 . S
C254 C235 1.368 . S
C254 C248 1.368 . S
C254 C253 1.523 . S
C255 C239 1.429 . S
C255 C251 1.429 . S
C255 C256 1.523 . S
C256 C240 1.368 . S
C256 C252 1.368 . S
C256 C255 1.523 . S
H257 C232 0.950 . S
H258 C234 0.950 . S
H259 C235 0.949 . S
H260 C237 0.950 . S
H261 C239 0.950 . S
C262 C263 1.349 . S
C262 C264 1.327 . S
C262 H287 0.950 . S
C263 C262 1.349 . S
C263 C279 1.349 . S
C264 C262 1.327 . S
C264 C283 1.429 . S
C264 H288 0.950 . S
C265 C282 1.574 . S
C265 C284 1.368 . S
C265 H289 0.949 . S
H266 C270 0.949 . S
C267 C268 1.349 . S
C267 C269 1.327 . S
C267 H290 0.950 . S
C268 C267 1.349 . S
C268 C280 1.349 . S
C269 C267 1.327 . S
C269 C285 1.429 . S
C269 H291 0.950 . S
C270 H266 0.949 . S
C270 C278 1.574 . S
C270 C286 1.368 . S
H271 C279 0.950 . S
H272 C277 0.950 . S
H273 C278 0.949 . S
H274 C280 0.950 . S
H275 C281 0.950 . S
H276 C282 0.949 . S
C277 H272 0.950 . S
C277 C279 1.327 . S
C277 C283 1.429 . S
C278 C270 1.574 . S
C278 H273 0.949 . S
C278 C284 1.368 . S
C279 C263 1.349 . S
C279 H271 0.950 . S
C279 C277 1.327 . S
C280 C268 1.349 . S
C280 H274 0.950 . S
C280 C281 1.327 . S
C281 H275 0.950 . S
C281 C280 1.327 . S
C281 C285 1.429 . S
C282 C265 1.574 . S
C282 H276 0.949 . S
C282 C286 1.368 . S
C283 C264 1.429 . S
C283 C277 1.429 . S
C283 C284 1.523 . S
C284 C265 1.368 . S
C284 C278 1.368 . S
C284 C283 1.523 . S
C285 C269 1.429 . S
C285 C281 1.429 . S
C285 C286 1.523 . S
C286 C270 1.368 . S
C286 C282 1.368 . S
C286 C285 1.523 . S
H287 C262 0.950 . S
H288 C264 0.950 . S
H289 C265 0.949 . S
H290 C267 0.950 . S
H291 C269 0.950 . S
C292 C293 1.349 . S
C292 C294 1.327 . S
C292 H317 0.950 . S
C293 C292 1.349 . S
C293 C309 1.349 . S
C294 C292 1.327 . S
C294 C313 1.429 . S
C294 H318 0.950 . S
C295 C312 1.574 . S
C295 C314 1.368 . S
C295 H319 0.949 . S
H296 C300 0.949 . S
C297 C298 1.349 . S
C297 C299 1.327 . S
C297 H320 0.950 . S
C298 C297 1.349 . S
C298 C310 1.349 . S
C299 C297 1.327 . S
C299 C315 1.429 . S
C299 H321 0.950 . S
C300 H296 0.949 . S
C300 C308 1.574 . S
C300 C316 1.368 . S
H301 C309 0.950 . S
H302 C307 0.950 . S
H303 C308 0.949 . S
H304 C310 0.950 . S
H305 C311 0.950 . S
H306 C312 0.949 . S
C307 H302 0.950 . S
C307 C309 1.327 . S
C307 C313 1.429 . S
C308 C300 1.574 . S
C308 H303 0.949 . S
C308 C314 1.368 . S
C309 C293 1.349 . S
C309 H301 0.950 . S
C309 C307 1.327 . S
C310 C298 1.349 . S
C310 H304 0.950 . S
C310 C311 1.327 . S
C311 H305 0.950 . S
C311 C310 1.327 . S
C311 C315 1.429 . S
C312 C295 1.574 . S
C312 H306 0.949 . S
C312 C316 1.368 . S
C313 C294 1.429 . S
C313 C307 1.429 . S
C313 C314 1.523 . S
C314 C295 1.368 . S
C314 C308 1.368 . S
C314 C313 1.523 . S
C315 C299 1.429 . S
C315 C311 1.429 . S
C315 C316 1.523 . S
C316 C300 1.368 . S
C316 C312 1.368 . S
C316 C315 1.523 . S
H317 C292 0.950 . S
H318 C294 0.950 . S
H319 C295 0.949 . S
H320 C297 0.950 . S
H321 C299 0.950 . S
C322 C323 1.349 . S
C322 C324 1.327 . S
C322 H347 0.950 . S
C323 C322 1.349 . S
C323 C339 1.349 . S
C324 C322 1.327 . S
C324 C343 1.429 . S
C324 H348 0.950 . S
C325 C342 1.574 . S
C325 C344 1.368 . S
C325 H349 0.949 . S
H326 C330 0.949 . S
C327 C328 1.349 . S
C327 C329 1.327 . S
C327 H350 0.950 . S
C328 C327 1.349 . S
C328 C340 1.349 . S
C329 C327 1.327 . S
C329 C345 1.429 . S
C329 H351 0.950 . S
C330 H326 0.949 . S
C330 C338 1.574 . S
C330 C346 1.368 . S
H331 C339 0.950 . S
H332 C337 0.950 . S
H333 C338 0.949 . S
H334 C340 0.950 . S
H335 C341 0.950 . S
H336 C342 0.949 . S
C337 H332 0.950 . S
C337 C339 1.327 . S
C337 C343 1.429 . S
C338 C330 1.574 . S
C338 H333 0.949 . S
C338 C344 1.368 . S
C339 C323 1.349 . S
C339 H331 0.950 . S
C339 C337 1.327 . S
C340 C328 1.349 . S
C340 H334 0.950 . S
C340 C341 1.327 . S
C341 H335 0.950 . S
C341 C340 1.327 . S
C341 C345 1.429 . S
C342 C325 1.574 . S
C342 H336 0.949 . S
C342 C346 1.368 . S
C343 C324 1.429 . S
C343 C337 1.429 . S
C343 C344 1.523 . S
C344 C325 1.368 . S
C344 C338 1.368 . S
C344 C343 1.523 . S
C345 C329 1.429 . S
C345 C341 1.429 . S
C345 C346 1.523 . S
C346 C330 1.368 . S
C346 C342 1.368 . S
C346 C345 1.523 . S
H347 C322 0.950 . S
H348 C324 0.950 . S
H349 C325 0.949 . S
H350 C327 0.950 . S
H351 C329 0.950 . S
C352 C353 1.349 1_556 S
C352 C354 1.327 . S
C352 H377 0.950 . S
C353 C352 1.349 1_554 S
C353 C369 1.349 . S
C354 C352 1.327 . S
C354 C373 1.429 1_556 S
C354 H378 0.950 . S
C355 C372 1.574 . S
C355 C374 1.368 . S
C355 H379 0.949 . S
H356 C360 0.949 . S
C357 C358 1.349 1_554 S
C357 C359 1.327 . S
C357 H380 0.950 . S
C358 C357 1.349 1_556 S
C358 C370 1.349 . S
C359 C357 1.327 . S
C359 C375 1.429 1_554 S
C359 H381 0.950 . S
C360 H356 0.949 . S
C360 C368 1.574 . S
C360 C376 1.368 . S
H361 C369 0.950 . S
H362 C367 0.950 . S
H363 C368 0.949 . S
H364 C370 0.950 . S
H365 C371 0.950 . S
H366 C372 0.949 . S
C367 H362 0.950 . S
C367 C369 1.327 . S
C367 C373 1.429 . S
C368 C360 1.574 . S
C368 H363 0.949 . S
C368 C374 1.368 1_556 S
C369 C353 1.349 . S
C369 H361 0.950 . S
C369 C367 1.327 . S
C370 C358 1.349 . S
C370 H364 0.950 . S
C370 C371 1.327 . S
C371 H365 0.950 . S
C371 C370 1.327 . S
C371 C375 1.429 . S
C372 C355 1.574 . S
C372 H366 0.949 . S
C372 C376 1.368 1_554 S
C373 C354 1.429 1_554 S
C373 C367 1.429 . S
C373 C374 1.523 . S
C374 C355 1.368 . S
C374 C368 1.368 1_554 S
C374 C373 1.523 . S
C375 C359 1.429 1_556 S
C375 C371 1.429 . S
C375 C376 1.523 . S
C376 C360 1.368 . S
C376 C372 1.368 1_556 S
C376 C375 1.523 . S
H377 C352 0.950 . S
H378 C354 0.950 . S
H379 C355 0.949 . S
H380 C357 0.950 . S
H381 C359 0.950 . S
C382 C383 1.349 . S
C382 C384 1.327 . S
C382 H407 0.950 . S
C383 C382 1.349 . S
C383 C399 1.349 1_554 S
C384 C382 1.327 . S
C384 C403 1.429 . S
C384 H408 0.950 . S
C385 C402 1.574 . S
C385 C404 1.368 1_556 S
C385 H409 0.949 . S
H386 C390 0.949 . S
C387 C388 1.349 . S
C387 C389 1.327 . S
C387 H410 0.950 . S
C388 C387 1.349 . S
C388 C400 1.349 1_556 S
C389 C387 1.327 . S
C389 C405 1.429 . S
C389 H411 0.950 . S
C390 H386 0.949 . S
C390 C398 1.574 . S
C390 C406 1.368 1_554 S
H391 C399 0.950 . S
H392 C397 0.950 . S
H393 C398 0.949 . S
H394 C400 0.950 . S
H395 C401 0.950 . S
H396 C402 0.949 . S
C397 H392 0.950 . S
C397 C399 1.327 . S
C397 C403 1.429 1_556 S
C398 C390 1.574 . S
C398 H393 0.949 . S
C398 C404 1.368 1_655 S
C399 C383 1.349 1_556 S
C399 H391 0.950 . S
C399 C397 1.327 . S
C400 C388 1.349 1_554 S
C400 H394 0.950 . S
C400 C401 1.327 . S
C401 H395 0.950 . S
C401 C400 1.327 . S
C401 C405 1.429 1_554 S
C402 C385 1.574 . S
C402 H396 0.949 . S
C402 C406 1.368 1_455 S
C403 C384 1.429 . S
C403 C397 1.429 1_554 S
C403 C404 1.523 . S
C404 C385 1.368 1_554 S
C404 C398 1.368 1_455 S
C404 C403 1.523 . S
C405 C389 1.429 . S
C405 C401 1.429 1_556 S
C405 C406 1.523 . S
C406 C390 1.368 1_556 S
C406 C402 1.368 1_655 S
C406 C405 1.523 . S
H407 C382 0.950 . S
H408 C384 0.950 . S
H409 C385 0.949 . S
H410 C387 0.950 . S
H411 C389 0.950 . S
C412 C413 1.349 . S
C412 C414 1.327 . S
C412 H437 0.950 . S
C413 C412 1.349 . S
C413 C429 1.349 . S
C414 C412 1.327 . S
C414 C433 1.429 . S
C414 H438 0.950 . S
C415 C432 1.573 . S
C415 C434 1.369 1_545 S
C415 H439 0.949 1_545 S
H416 C420 0.949 1_545 S
C417 C418 1.349 . S
C417 C419 1.327 . S
C417 H440 0.950 . S
C418 C417 1.349 . S
C418 C430 1.349 . S
C419 C417 1.327 . S
C419 C435 1.429 . S
C419 H441 0.950 . S
C420 H416 0.949 1_565 S
C420 C428 1.573 . S
C420 C436 1.369 1_565 S
H421 C429 0.950 . S
H422 C427 0.950 . S
H423 C428 0.949 . S
H424 C430 0.950 . S
H425 C431 0.950 . S
H426 C432 0.949 . S
C427 H422 0.950 . S
C427 C429 1.327 . S
C427 C433 1.429 . S
C428 C420 1.573 . S
C428 H423 0.949 . S
C428 C434 1.368 . S
C429 C413 1.349 . S
C429 H421 0.950 . S
C429 C427 1.327 . S
C430 C418 1.349 . S
C430 H424 0.950 . S
C430 C431 1.327 . S
C431 H425 0.950 . S
C431 C430 1.327 . S
C431 C435 1.429 . S
C432 C415 1.573 . S
C432 H426 0.949 . S
C432 C436 1.368 . S
C433 C414 1.429 . S
C433 C427 1.429 . S
C433 C434 1.523 . S
C434 C415 1.369 1_565 S
C434 C428 1.368 . S
C434 C433 1.523 . S
C435 C419 1.429 . S
C435 C431 1.429 . S
C435 C436 1.523 . S
C436 C420 1.369 1_545 S
C436 C432 1.368 . S
C436 C435 1.523 . S
H437 C412 0.950 . S
H438 C414 0.950 . S
H439 C415 0.949 1_565 S
H440 C417 0.950 . S
H441 C419 0.950 . S
C442 C443 1.349 . S
C442 C444 1.327 . S
C442 H467 0.950 . S
C443 C442 1.349 . S
C443 C459 1.349 . S
C444 C442 1.327 . S
C444 C463 1.429 . S
C444 H468 0.950 . S
C445 C462 1.574 . S
C445 C464 1.368 1_565 S
C445 H469 0.949 . S
H446 C450 0.949 . S
C447 C448 1.349 . S
C447 C449 1.327 . S
C447 H470 0.950 . S
C448 C447 1.349 . S
C448 C460 1.349 . S
C449 C447 1.327 . S
C449 C465 1.429 . S
C449 H471 0.950 . S
C450 H446 0.949 . S
C450 C458 1.574 . S
C450 C466 1.368 1_545 S
H451 C459 0.950 . S
H452 C457 0.950 . S
H453 C458 0.949 . S
H454 C460 0.950 . S
H455 C461 0.950 . S
H456 C462 0.949 . S
C457 H452 0.950 . S
C457 C459 1.327 . S
C457 C463 1.429 . S
C458 C450 1.574 . S
C458 H453 0.949 . S
C458 C464 1.368 1_455 S
C459 C443 1.349 . S
C459 H451 0.950 . S
C459 C457 1.327 . S
C460 C448 1.349 . S
C460 H454 0.950 . S
C460 C461 1.327 . S
C461 H455 0.950 . S
C461 C460 1.327 . S
C461 C465 1.429 . S
C462 C445 1.574 . S
C462 H456 0.949 . S
C462 C466 1.368 1_655 S
C463 C444 1.429 . S
C463 C457 1.429 . S
C463 C464 1.523 . S
C464 C445 1.368 1_545 S
C464 C458 1.368 1_655 S
C464 C463 1.523 . S
C465 C449 1.429 . S
C465 C461 1.429 . S
C465 C466 1.523 . S
C466 C450 1.368 1_565 S
C466 C462 1.368 1_455 S
C466 C465 1.523 . S
H467 C442 0.950 . S
H468 C444 0.950 . S
H469 C445 0.949 . S
H470 C447 0.950 . S
H471 C449 0.950 . S
C472 C473 1.349 1_556 S
C472 C474 1.327 . S
C472 H497 0.950 . S
C473 C472 1.349 1_554 S
C473 C489 1.349 . S
C474 C472 1.327 . S
C474 C493 1.429 1_556 S
C474 H498 0.950 . S
C475 C492 1.574 . S
C475 C494 1.368 . S
C475 H499 0.949 . S
H476 C480 0.949 . S
C477 C478 1.349 . S
C477 C479 1.327 . S
C477 H500 0.950 . S
C478 C477 1.349 . S
C478 C490 1.349 1_554 S
C479 C477 1.327 . S
C479 C495 1.429 . S
C479 H501 0.950 . S
C480 H476 0.949 . S
C480 C488 1.574 . S
C480 C496 1.368 1_556 S
H481 C489 0.950 . S
H482 C487 0.950 . S
H483 C488 0.949 . S
H484 C490 0.950 . S
H485 C491 0.950 . S
H486 C492 0.949 . S
C487 H482 0.950 . S
C487 C489 1.327 . S
C487 C493 1.429 . S
C488 C480 1.574 . S
C488 H483 0.949 . S
C488 C494 1.368 1_556 S
C489 C473 1.349 . S
C489 H481 0.950 . S
C489 C487 1.327 . S
C490 C478 1.349 1_556 S
C490 H484 0.950 . S
C490 C491 1.327 . S
C491 H485 0.950 . S
C491 C490 1.327 . S
C491 C495 1.429 1_556 S
C492 C475 1.574 . S
C492 H486 0.949 . S
C492 C496 1.368 . S
C493 C474 1.429 1_554 S
C493 C487 1.429 . S
C493 C494 1.523 . S
C494 C475 1.368 . S
C494 C488 1.368 1_554 S
C494 C493 1.523 . S
C495 C479 1.429 . S
C495 C491 1.429 1_554 S
C495 C496 1.523 . S
C496 C480 1.368 1_554 S
C496 C492 1.368 . S
C496 C495 1.523 . S
H497 C472 0.950 . S
H498 C474 0.950 . S
H499 C475 0.949 . S
H500 C477 0.950 . S
H501 C479 0.950 . S
C502 C503 1.349 . S
C502 C504 1.327 . S
C502 H527 0.950 . S
C503 C502 1.349 . S
C503 C519 1.349 . S
C504 C502 1.327 . S
C504 C523 1.429 . S
C504 H528 0.950 . S
C505 C522 1.574 1_545 S
C505 C524 1.368 . S
C505 H529 0.949 . S
H506 C510 0.949 . S
C507 C508 1.349 . S
C507 C509 1.327 . S
C507 H530 0.950 . S
C508 C507 1.349 . S
C508 C520 1.349 . S
C509 C507 1.327 . S
C509 C525 1.429 . S
C509 H531 0.950 . S
C510 H506 0.949 . S
C510 C518 1.574 1_565 S
C510 C526 1.368 . S
H511 C519 0.950 . S
H512 C517 0.950 . S
H513 C518 0.949 . S
H514 C520 0.950 . S
H515 C521 0.950 . S
H516 C522 0.949 . S
C517 H512 0.950 . S
C517 C519 1.327 . S
C517 C523 1.429 . S
C518 C510 1.574 1_545 S
C518 H513 0.949 . S
C518 C524 1.368 . S
C519 C503 1.349 . S
C519 H511 0.950 . S
C519 C517 1.327 . S
C520 C508 1.349 . S
C520 H514 0.950 . S
C520 C521 1.327 . S
C521 H515 0.950 . S
C521 C520 1.327 . S
C521 C525 1.429 . S
C522 C505 1.574 1_565 S
C522 H516 0.949 . S
C522 C526 1.368 . S
C523 C504 1.429 . S
C523 C517 1.429 . S
C523 C524 1.523 . S
C524 C505 1.368 . S
C524 C518 1.368 . S
C524 C523 1.523 . S
C525 C509 1.429 . S
C525 C521 1.429 . S
C525 C526 1.523 . S
C526 C510 1.368 . S
C526 C522 1.368 . S
C526 C525 1.523 . S
H527 C502 0.950 . S
H528 C504 0.950 . S
H529 C505 0.949 . S
H530 C507 0.950 . S
H531 C509 0.950 . S
C532 C533 1.349 1_554 S
C532 C534 1.327 . S
C532 H557 0.950 . S
C533 C532 1.349 1_556 S
C533 C549 1.349 . S
C534 C532 1.327 . S
C534 C553 1.429 1_554 S
C534 H558 0.950 . S
C535 C552 1.574 . S
C535 C554 1.368 . S
C535 H559 0.949 . S
H536 C540 0.949 . S
C537 C538 1.349 . S
C537 C539 1.327 . S
C537 H560 0.950 . S
C538 C537 1.349 . S
C538 C550 1.349 1_556 S
C539 C537 1.327 . S
C539 C555 1.429 . S
C539 H561 0.950 . S
C540 H536 0.949 . S
C540 C548 1.574 . S
C540 C556 1.368 1_554 S
H541 C549 0.950 . S
H542 C547 0.950 . S
H543 C548 0.949 . S
H544 C550 0.950 . S
H545 C551 0.950 . S
H546 C552 0.949 . S
C547 H542 0.950 . S
C547 C549 1.327 . S
C547 C553 1.429 . S
C548 C540 1.574 . S
C548 H543 0.949 . S
C548 C554 1.368 1_554 S
C549 C533 1.349 . S
C549 H541 0.950 . S
C549 C547 1.327 . S
C550 C538 1.349 1_554 S
C550 H544 0.950 . S
C550 C551 1.327 . S
C551 H545 0.950 . S
C551 C550 1.327 . S
C551 C555 1.429 1_554 S
C552 C535 1.574 . S
C552 H546 0.949 . S
C552 C556 1.368 . S
C553 C534 1.429 1_556 S
C553 C547 1.429 . S
C553 C554 1.523 . S
C554 C535 1.368 . S
C554 C548 1.368 1_556 S
C554 C553 1.523 . S
C555 C539 1.429 . S
C555 C551 1.429 1_556 S
C555 C556 1.523 . S
C556 C540 1.368 1_556 S
C556 C552 1.368 . S
C556 C555 1.523 . S
H557 C532 0.950 . S
H558 C534 0.950 . S
H559 C535 0.949 . S
H560 C537 0.950 . S
H561 C539 0.950 . S
C562 C563 1.349 . S
C562 C564 1.327 . S
C562 H587 0.950 . S
C563 C562 1.349 . S
C563 C579 1.349 . S
C564 C562 1.327 . S
C564 C583 1.429 . S
C564 H588 0.950 . S
C565 C582 1.574 1_565 S
C565 C584 1.368 . S
C565 H589 0.949 . S
H566 C570 0.949 . S
C567 C568 1.349 . S
C567 C569 1.327 . S
C567 H590 0.950 . S
C568 C567 1.349 . S
C568 C580 1.349 . S
C569 C567 1.327 . S
C569 C585 1.429 . S
C569 H591 0.950 . S
C570 H566 0.949 . S
C570 C578 1.574 1_545 S
C570 C586 1.368 . S
H571 C579 0.950 . S
H572 C577 0.950 . S
H573 C578 0.949 . S
H574 C580 0.950 . S
H575 C581 0.950 . S
H576 C582 0.949 . S
C577 H572 0.950 . S
C577 C579 1.327 . S
C577 C583 1.429 . S
C578 C570 1.574 1_565 S
C578 H573 0.949 . S
C578 C584 1.368 . S
C579 C563 1.349 . S
C579 H571 0.950 . S
C579 C577 1.327 . S
C580 C568 1.349 . S
C580 H574 0.950 . S
C580 C581 1.327 . S
C581 H575 0.950 . S
C581 C580 1.327 . S
C581 C585 1.429 . S
C582 C565 1.574 1_545 S
C582 H576 0.949 . S
C582 C586 1.368 . S
C583 C564 1.429 . S
C583 C577 1.429 . S
C583 C584 1.523 . S
C584 C565 1.368 . S
C584 C578 1.368 . S
C584 C583 1.523 . S
C585 C569 1.429 . S
C585 C581 1.429 . S
C585 C586 1.523 . S
C586 C570 1.368 . S
C586 C582 1.368 . S
C586 C585 1.523 . S
H587 C562 0.950 . S
H588 C564 0.950 . S
H589 C565 0.949 . S
H590 C567 0.950 . S
H591 C569 0.950 . S
C113 C9 1.535 . S
C118 C23 1.535 . S
C143 C51 1.535 . S
C148 C37 1.535 . S
C173 C65 1.535 . S
C178 C79 1.535 . S
C203 C93 1.535 . S
C208 C107 1.535 . S
C233 C3 1.647 . S
C238 C31 1.647 . S
C263 C45 1.647 . S
C268 C17 1.647 . S
C293 C59 1.647 . S
C298 C87 1.647 . S
C323 C101 1.647 . S
C328 C73 1.647 . S
C353 C8 1.345 . S
C358 C64 1.345 . S
C383 C22 1.345 . S
C388 C78 1.345 . S
C413 C92 1.345 . S
C418 C36 1.345 . S
C443 C106 1.345 . S
C448 C50 1.345 . S
C473 C21 0.791 . S
C478 C7 0.791 . S
C503 C35 0.790 . S
C508 C49 0.790 . S
C533 C63 0.790 . S
C538 C77 0.790 . S
C563 C91 0.790 . S
C568 C105 0.790 . S
