# Generated by pormake.
# Topology smd, (6)-cn, num edge types: 1
# Building blocks:
#     Node 0, Type 0, BuildingBlock: UKALOJ_clean_sbu_0, # of connection points: 6
#     Node 1, Type 0, BuildingBlock: UKALOJ_clean_sbu_0, # of connection points: 6
#     Node 2, Type 0, BuildingBlock: UKALOJ_clean_sbu_0, # of connection points: 6
#     Node 3, Type 0, BuildingBlock: UKALOJ_clean_sbu_0, # of connection points: 6
#     Node 4, Type 0, BuildingBlock: UKALOJ_clean_sbu_0, # of connection points: 6
#     Node 5, Type 0, BuildingBlock: UKALOJ_clean_sbu_0, # of connection points: 6
#     Node 6, Type 0, BuildingBlock: UKALOJ_clean_sbu_0, # of connection points: 6
#     Node 7, Type 0, BuildingBlock: UKALOJ_clean_sbu_0, # of connection points: 6
#     Node 8, Type 0, BuildingBlock: UKALOJ_clean_sbu_0, # of connection points: 6
#     Node 9, Type 0, BuildingBlock: UKALOJ_clean_sbu_0, # of connection points: 6
#     Node 10, Type 0, BuildingBlock: UKALOJ_clean_sbu_0, # of connection points: 6
#     Node 11, Type 0, BuildingBlock: UKALOJ_clean_sbu_0, # of connection points: 6
#     Node 12, Type 0, BuildingBlock: UKALOJ_clean_sbu_0, # of connection points: 6
#     Node 13, Type 0, BuildingBlock: UKALOJ_clean_sbu_0, # of connection points: 6
#     Node 14, Type 0, BuildingBlock: UKALOJ_clean_sbu_0, # of connection points: 6
#     Node 15, Type 0, BuildingBlock: UKALOJ_clean_sbu_0, # of connection points: 6
#     Node 16, Type 0, BuildingBlock: UKALOJ_clean_sbu_0, # of connection points: 6
#     Node 17, Type 0, BuildingBlock: UKALOJ_clean_sbu_0, # of connection points: 6
#     Edge 18, Type (0, 0), BuildingBlock: OJICUG_clean_linker_0, # of connection points: 2
#     Edge 19, Type (0, 0), BuildingBlock: OJICUG_clean_linker_0, # of connection points: 2
#     Edge 20, Type (0, 0), BuildingBlock: OJICUG_clean_linker_0, # of connection points: 2
#     Edge 21, Type (0, 0), BuildingBlock: OJICUG_clean_linker_0, # of connection points: 2
#     Edge 22, Type (0, 0), BuildingBlock: OJICUG_clean_linker_0, # of connection points: 2
#     Edge 23, Type (0, 0), BuildingBlock: OJICUG_clean_linker_0, # of connection points: 2
#     Edge 24, Type (0, 0), BuildingBlock: OJICUG_clean_linker_0, # of connection points: 2
#     Edge 25, Type (0, 0), BuildingBlock: OJICUG_clean_linker_0, # of connection points: 2
#     Edge 26, Type (0, 0), BuildingBlock: OJICUG_clean_linker_0, # of connection points: 2
#     Edge 27, Type (0, 0), BuildingBlock: OJICUG_clean_linker_0, # of connection points: 2
#     Edge 28, Type (0, 0), BuildingBlock: OJICUG_clean_linker_0, # of connection points: 2
#     Edge 29, Type (0, 0), BuildingBlock: OJICUG_clean_linker_0, # of connection points: 2
#     Edge 30, Type (0, 0), BuildingBlock: OJICUG_clean_linker_0, # of connection points: 2
#     Edge 31, Type (0, 0), BuildingBlock: OJICUG_clean_linker_0, # of connection points: 2
#     Edge 32, Type (0, 0), BuildingBlock: OJICUG_clean_linker_0, # of connection points: 2
#     Edge 33, Type (0, 0), BuildingBlock: OJICUG_clean_linker_0, # of connection points: 2
#     Edge 34, Type (0, 0), BuildingBlock: OJICUG_clean_linker_0, # of connection points: 2
#     Edge 35, Type (0, 0), BuildingBlock: OJICUG_clean_linker_0, # of connection points: 2
#     Edge 36, Type (0, 0), BuildingBlock: OJICUG_clean_linker_0, # of connection points: 2
#     Edge 37, Type (0, 0), BuildingBlock: OJICUG_clean_linker_0, # of connection points: 2
#     Edge 38, Type (0, 0), BuildingBlock: OJICUG_clean_linker_0, # of connection points: 2
#     Edge 39, Type (0, 0), BuildingBlock: OJICUG_clean_linker_0, # of connection points: 2
#     Edge 40, Type (0, 0), BuildingBlock: OJICUG_clean_linker_0, # of connection points: 2
#     Edge 41, Type (0, 0), BuildingBlock: OJICUG_clean_linker_0, # of connection points: 2
#     Edge 42, Type (0, 0), BuildingBlock: OJICUG_clean_linker_0, # of connection points: 2
#     Edge 43, Type (0, 0), BuildingBlock: OJICUG_clean_linker_0, # of connection points: 2
#     Edge 44, Type (0, 0), BuildingBlock: OJICUG_clean_linker_0, # of connection points: 2
#     Edge 45, Type (0, 0), BuildingBlock: OJICUG_clean_linker_0, # of connection points: 2
#     Edge 46, Type (0, 0), BuildingBlock: OJICUG_clean_linker_0, # of connection points: 2
#     Edge 47, Type (0, 0), BuildingBlock: OJICUG_clean_linker_0, # of connection points: 2
#     Edge 48, Type (0, 0), BuildingBlock: OJICUG_clean_linker_0, # of connection points: 2
#     Edge 49, Type (0, 0), BuildingBlock: OJICUG_clean_linker_0, # of connection points: 2
#     Edge 50, Type (0, 0), BuildingBlock: OJICUG_clean_linker_0, # of connection points: 2
#     Edge 51, Type (0, 0), BuildingBlock: OJICUG_clean_linker_0, # of connection points: 2
#     Edge 52, Type (0, 0), BuildingBlock: OJICUG_clean_linker_0, # of connection points: 2
#     Edge 53, Type (0, 0), BuildingBlock: OJICUG_clean_linker_0, # of connection points: 2
#     Edge 54, Type (0, 0), BuildingBlock: OJICUG_clean_linker_0, # of connection points: 2
#     Edge 55, Type (0, 0), BuildingBlock: OJICUG_clean_linker_0, # of connection points: 2
#     Edge 56, Type (0, 0), BuildingBlock: OJICUG_clean_linker_0, # of connection points: 2
#     Edge 57, Type (0, 0), BuildingBlock: OJICUG_clean_linker_0, # of connection points: 2
#     Edge 58, Type (0, 0), BuildingBlock: OJICUG_clean_linker_0, # of connection points: 2
#     Edge 59, Type (0, 0), BuildingBlock: OJICUG_clean_linker_0, # of connection points: 2
#     Edge 60, Type (0, 0), BuildingBlock: OJICUG_clean_linker_0, # of connection points: 2
#     Edge 61, Type (0, 0), BuildingBlock: OJICUG_clean_linker_0, # of connection points: 2
#     Edge 62, Type (0, 0), BuildingBlock: OJICUG_clean_linker_0, # of connection points: 2
#     Edge 63, Type (0, 0), BuildingBlock: OJICUG_clean_linker_0, # of connection points: 2
#     Edge 64, Type (0, 0), BuildingBlock: OJICUG_clean_linker_0, # of connection points: 2
#     Edge 65, Type (0, 0), BuildingBlock: OJICUG_clean_linker_0, # of connection points: 2
#     Edge 66, Type (0, 0), BuildingBlock: OJICUG_clean_linker_0, # of connection points: 2
#     Edge 67, Type (0, 0), BuildingBlock: OJICUG_clean_linker_0, # of connection points: 2
#     Edge 68, Type (0, 0), BuildingBlock: OJICUG_clean_linker_0, # of connection points: 2
#     Edge 69, Type (0, 0), BuildingBlock: OJICUG_clean_linker_0, # of connection points: 2
#     Edge 70, Type (0, 0), BuildingBlock: OJICUG_clean_linker_0, # of connection points: 2
#     Edge 71, Type (0, 0), BuildingBlock: OJICUG_clean_linker_0, # of connection points: 2
# Relax obj value: 0.307
# Max RMSD: 0.256
# Mean RMSD: 0.205
data_MOF--net-smd--node1-UKALOJ_clean_sbu_0--edge1-OJICUG_clean_linker_0
_symmetry_space_group_name_H-M    P1
_symmetry_Int_Tables_number       1
_symmetry_cell_setting            triclinic
loop_
_symmetry_equiv_pos_as_xyz
'x, y, z'
_cell_length_a     65.911948
_cell_length_b     58.314873
_cell_length_c     11.2731
_cell_angle_alpha  88.32557
_cell_angle_beta   88.42131
_cell_angle_gamma 120.35989
loop_
_atom_site_label
_atom_site_type_symbol
_atom_site_fract_x
_atom_site_fract_y
_atom_site_fract_z
_atom_type_partial_charge
Zn0 Zn 0.07262 0.35063 0.35335 0.0
O1 O 0.05164 0.30983 0.36141 0.0
C2 C 0.09055 0.35135 0.59769 0.0
Zn3 Zn 0.10413 0.34652 0.35506 0.0
C4 C 0.05978 0.29467 0.3801 0.0
O5 O 0.08175 0.30453 0.38759 0.0
C6 C 0.11691 0.40278 0.31509 0.0
O7 O 0.10109 0.34254 0.16785 0.0
O8 O 0.0715 0.35011 0.168 0.0
N9 N 0.1315 0.34038 0.35796 0.0
C10 C 0.15106 0.34763 0.28955 0.0
C11 C 0.15115 0.32432 0.43886 0.0
N12 N 0.1316 0.32586 0.45015 0.0
N13 N 0.16373 0.33778 0.33899 0.0
C14 C 1.02481 0.33967 0.45558 0.0
C15 C 1.02578 0.37614 0.4176 0.0
N16 N 0.04322 0.3542 0.37711 0.0
N17 N 0.04358 0.37675 0.35256 0.0
N18 N 1.01388 0.35315 0.484 0.0
H19 H 1.01251 0.29847 0.4304 0.0
H20 H 1.00113 0.30389 0.56438 0.0
H21 H 0.0314 0.31192 0.55374 0.0
C22 C 1.01713 0.31205 0.50459 0.0
C23 C 0.15796 0.36503 0.17807 0.0
H24 H 0.14931 0.37709 0.17678 0.0
H25 H 0.15219 0.3523 0.10055 0.0
H26 H 0.17735 0.37831 0.16913 0.0
O27 O 0.12645 0.38854 0.32212 0.0
O28 O 0.09477 0.39207 0.33498 0.0
C29 C 0.08629 0.34605 0.11118 0.0
O30 O 0.07413 0.35134 0.54173 0.0
O31 O 0.10692 0.3507 0.53959 0.0
Zn32 Zn 0.86707 0.93227 0.58174 0.0
O33 O 0.87214 0.97024 0.56494 0.0
C34 C 0.88708 0.9379 0.33549 0.0
Zn35 Zn 0.90561 0.94867 0.57711 0.0
C36 C 0.89279 0.99018 0.5551 0.0
O37 O 0.91033 0.98695 0.55835 0.0
C38 C 0.87922 0.89031 0.61127 0.0
O39 O 0.90507 0.95073 0.76201 0.0
O40 O 0.86671 0.93397 0.77046 0.0
N41 N 0.94099 0.96639 0.56954 0.0
C42 C 0.95638 0.95921 0.60489 0.0
C43 C 0.97597 0.99646 0.50733 0.0
N44 N 0.95324 0.98971 0.51037 0.0
N45 N 0.97843 0.97781 0.56729 0.0
C46 C 0.81869 0.91973 0.49606 0.0
C47 C 0.79532 0.88459 0.60035 0.0
N48 N 0.83145 0.91629 0.57893 0.0
N49 N 0.81679 0.89469 0.64507 0.0
N50 N 0.79602 0.89999 0.50687 0.0
H51 H 0.8475 0.95457 0.39912 0.0
H52 H 0.81947 0.95239 0.40002 0.0
H53 H 0.82463 0.93104 0.30965 0.0
C54 C 0.82845 0.94066 0.39606 0.0
C55 C 0.94969 0.9333 0.66882 0.0
H56 H 0.9353 0.92811 0.73651 0.0
H57 H 0.96491 0.93427 0.71296 0.0
H58 H 0.94344 0.91743 0.60398 0.0
O59 O 0.90028 0.90972 0.60139 0.0
O60 O 0.86223 0.89446 0.60065 0.0
C61 C 0.88595 0.94255 0.82304 0.0
O62 O 0.86809 0.93008 0.39631 0.0
O63 O 0.90618 0.9466 0.38857 0.0
Zn64 Zn 0.33092 0.16162 0.26915 0.0
O65 O 0.32378 0.19249 0.27674 0.0
C66 C 0.31075 0.14399 0.51915 0.0
Zn67 Zn 0.29246 0.1328 0.27912 0.0
C68 C 0.30312 0.18885 0.28011 0.0
O69 O 0.28554 0.16533 0.28005 0.0
C70 C 0.32167 0.10669 0.25871 0.0
O71 O 0.29342 0.1346 0.09239 0.0
O72 O 0.33141 0.16417 0.08079 0.0
N73 N 0.25728 0.10628 0.29133 0.0
C74 C 0.24439 0.08044 0.26634 0.0
C75 C 0.22196 0.09003 0.3659 0.0
N76 N 0.24326 0.11223 0.35243 0.0
N77 N 0.22225 0.0697 0.31377 0.0
C78 C 0.37718 0.20227 0.37018 0.0
C79 C 0.40065 0.19192 0.2886 0.0
N80 N 0.36639 0.18769 0.27647 0.0
N81 N 0.38136 0.18194 0.22391 0.0
N82 N 0.39837 0.20448 0.38228 0.0
H83 H 0.34833 0.20714 0.4388 0.0
H84 H 0.37736 0.23466 0.45488 0.0
H85 H 0.36676 0.20545 0.54917 0.0
C86 C 0.36647 0.21263 0.45757 0.0
C87 C 0.25304 0.06625 0.18999 0.0
H88 H 0.26707 0.08044 0.12504 0.0
H89 H 0.23835 0.05057 0.14177 0.0
H90 H 0.26027 0.05657 0.24694 0.0
O91 O 0.3004 0.10104 0.27432 0.0
O92 O 0.33794 0.13083 0.25693 0.0
C93 C 0.3123 0.14941 0.02989 0.0
O94 O 0.32968 0.15756 0.45662 0.0
O95 O 0.29159 0.13115 0.46748 0.0
Zn96 Zn 0.1164 0.90586 0.46412 0.0
O97 O 0.14839 0.94322 0.42806 0.0
C98 C 0.1005 0.9108 0.22077 0.0
Zn99 Zn 0.09471 0.92484 0.46323 0.0
C100 C 0.14611 0.96349 0.41509 0.0
O101 O 0.12586 0.96065 0.42853 0.0
C102 C 0.06429 0.86801 0.52299 0.0
O103 O 0.0988 0.92841 0.649 0.0
O104 O 0.12053 0.90968 0.65002 0.0
N105 N 0.07861 0.94626 0.46286 0.0
C106 C 0.06022 0.94467 0.52515 0.0
C107 C 0.07283 0.97751 0.39864 0.0
N108 N 0.08654 0.96679 0.38522 0.0
N109 N 0.05635 0.96416 0.48653 0.0
C110 C 0.1487 0.8861 0.36436 0.0
C111 C 0.14247 0.85485 0.48893 0.0
N112 N 0.13458 0.88601 0.45368 0.0
N113 N 0.13093 0.86672 0.53175 0.0
N114 N 0.15384 0.86681 0.38432 0.0
H115 H 0.1549 0.92173 0.26364 0.0
H116 H 0.17658 0.91203 0.23899 0.0
H117 H 0.1485 0.89348 0.17756 0.0
C118 C 0.15753 0.9046 0.25575 0.0
C119 C 0.04484 0.92267 0.61478 0.0
H120 H 0.05458 0.9138 0.65517 0.0
H121 H 0.03799 0.92992 0.68625 0.0
H122 H 0.02957 0.90704 0.56972 0.0
O123 O 0.06305 0.88871 0.50015 0.0
O124 O 0.08405 0.86916 0.50722 0.0
C125 C 0.10991 0.91949 0.70642 0.0
O126 O 0.11132 0.90158 0.27814 0.0
O127 O 0.09072 0.92142 0.27738 0.0
Zn128 Zn 0.34878 0.34994 0.20781 0.0
O129 O 0.33513 0.3087 0.23017 0.0
C130 C 0.32849 0.34773 0.45603 0.0
Zn131 Zn 0.31177 0.34127 0.21631 0.0
C132 C 0.31333 0.29159 0.2399 0.0
O133 O 0.29846 0.29924 0.2345 0.0
C134 C 0.34687 0.39967 0.17883 0.0
O135 O 0.31434 0.34014 0.03019 0.0
O136 O 0.35066 0.34781 0.01983 0.0
N137 N 0.27838 0.33332 0.20292 0.0
C138 C 0.26714 0.34573 0.24209 0.0
C139 C 0.24278 0.31264 0.14609 0.0
N140 N 0.26328 0.31285 0.14309 0.0
N141 N 0.24479 0.33312 0.20719 0.0
C142 C 0.38932 0.34572 0.31412 0.0
C143 C 0.41749 0.38571 0.29343 0.0
N144 N 0.38293 0.3582 0.23316 0.0
N145 N 0.40073 0.38302 0.21939 0.0
N146 N 0.41052 0.36267 0.35605 0.0
H147 H 0.3688 0.30483 0.27128 0.0
H148 H 0.38573 0.30996 0.39888 0.0
H149 H 0.36003 0.31341 0.40969 0.0
C150 C 0.37512 0.31678 0.35087 0.0
C151 C 0.27893 0.37169 0.30231 0.0
H152 H 0.28872 0.38804 0.23378 0.0
H153 H 0.2663 0.37586 0.34928 0.0
H154 H 0.29167 0.37208 0.36552 0.0
O155 O 0.32496 0.38335 0.19552 0.0
O156 O 0.36115 0.39107 0.18172 0.0
C157 C 0.33217 0.34364 0.96822 0.0
O158 O 0.34651 0.35223 0.39344 0.0
O159 O 0.30972 0.3423 0.40482 0.0
Zn160 Zn 0.86881 0.11638 0.58214 0.0
O161 O 0.87444 0.0848 0.57224 0.0
C162 C 0.88886 0.13468 0.33429 0.0
Zn163 Zn 0.90748 0.14402 0.57615 0.0
C164 C 0.89492 0.08834 0.55524 0.0
O165 O 0.91269 0.1116 0.55266 0.0
C166 C 0.88059 0.17151 0.61238 0.0
O167 O 0.90652 0.13867 0.76179 0.0
O168 O 0.86794 0.11363 0.77195 0.0
N169 N 0.94303 0.16749 0.5753 0.0
C170 C 0.95837 0.18934 0.50875 0.0
C171 C 0.9784 0.17838 0.6174 0.0
N172 N 0.95548 0.16068 0.6426 0.0
N173 N 0.98076 0.19643 0.53252 0.0
C174 C 0.82113 0.07141 0.50455 0.0
C175 C 0.79715 0.08334 0.56458 0.0
N176 N 0.83292 0.0918 0.57579 0.0
N177 N 0.81788 0.09903 0.614 0.0
N178 N 0.79884 0.06598 0.49452 0.0
H179 H 0.83626 0.04693 0.52244 0.0
H180 H 0.81784 0.03901 0.39989 0.0
H181 H 0.84649 0.06894 0.39035 0.0
C182 C 0.83097 0.05576 0.45001 0.0
C183 C 0.95116 0.2042 0.4255 0.0
H184 H 0.93309 0.19978 0.44869 0.0
H185 H 0.96344 0.22596 0.4275 0.0
H186 H 0.95138 0.19791 0.33378 0.0
O187 O 0.90171 0.17631 0.60814 0.0
O188 O 0.86392 0.14842 0.59275 0.0
C189 C 0.88732 0.12588 0.82388 0.0
O190 O 0.87012 0.11975 0.39643 0.0
O191 O 0.90787 0.14888 0.38636 0.0
Zn192 Zn 0.758 0.67744 0.01563 0.0
O193 O 0.75928 0.67893 0.20207 0.0
C194 C 0.73392 0.71198 0.01863 0.0
Zn195 Zn 0.78388 0.72084 0.00712 0.0
C196 C 0.77179 0.70024 0.25493 0.0
O197 O 0.78454 0.72193 0.1941 0.0
C198 C 0.76949 0.69778 0.76773 0.0
O199 O 0.81219 0.71284 0.00584 0.0
O200 O 0.78896 0.66985 0.00883 0.0
N201 N 0.80843 0.76028 -0.01332 0.0
C202 C 0.82563 0.77326 0.90099 0.0
C203 C 0.82591 0.80248 0.01072 0.0
N204 N 0.80881 0.77846 0.0558 0.0
N205 N 0.83678 0.79963 0.91407 0.0
C206 C 0.71353 0.62066 -0.01325 0.0
C207 C 0.72124 0.59649 0.10055 0.0
N208 N 0.7344 0.63693 0.03417 0.0
N209 N 0.73908 0.6218 0.10473 0.0
N210 N 0.70495 0.59513 0.02696 0.0
H211 H 0.69578 0.64251 0.96393 0.0
H212 H 0.68446 0.61378 0.87708 0.0
H213 H 0.71249 0.64308 0.83469 0.0
C214 C 0.70078 0.63031 0.91055 0.0
C215 C 0.8319 0.76062 0.8032 0.0
H216 H 0.82647 0.73972 0.82566 0.0
H217 H 0.85119 0.77204 0.78254 0.0
H218 H 0.82323 0.7613 0.72165 0.0
O219 O 0.78217 0.71903 0.82034 0.0
O220 O 0.75698 0.67619 0.82899 0.0
C221 C 0.81 0.68995 0.00539 0.0
O222 O 0.72855 0.68748 0.0228 0.0
O223 O 0.75576 0.7296 0.01102 0.0
Zn224 Zn 0.49938 0.21267 0.9316 0.0
O225 O 0.51416 0.25421 0.92017 0.0
C226 C 0.51789 0.21372 0.68439 0.0
Zn227 Zn 0.53524 0.21785 0.92538 0.0
C228 C 0.53607 0.27069 0.91239 0.0
O229 O 0.55022 0.26179 0.91316 0.0
C230 C 0.49638 0.15937 0.94772 0.0
O231 O 0.53432 0.21847 0.11168 0.0
O232 O 0.49887 0.2136 0.11937 0.0
N233 N 0.56879 0.22429 0.91662 0.0
C234 C 0.58119 0.21596 0.97967 0.0
C235 C 0.60378 0.24145 0.83584 0.0
N236 N 0.58294 0.24015 0.82775 0.0
N237 N 0.60329 0.22648 0.93039 0.0
C238 C 0.45928 0.21893 0.8341 0.0
C239 C 0.42862 0.1858 0.91611 0.0
N240 N 0.4665 0.2081 0.9188 0.0
N241 N 0.44734 0.18773 0.97092 0.0
N242 N 0.43565 0.20528 0.83024 0.0
H243 H 0.49368 0.24694 0.74689 0.0
H244 H 0.47326 0.25846 0.75876 0.0
H245 H 0.46948 0.23456 0.65269 0.0
C246 C 0.47503 0.24082 0.74381 0.0
C247 C 0.57121 0.19671 0.08526 0.0
H248 H 0.57578 0.20798 0.16738 0.0
H249 H 0.57873 0.18345 0.0874 0.0
H250 H 0.55178 0.18465 0.08415 0.0
O251 O 0.51889 0.17356 0.93934 0.0
O252 O 0.48459 0.17116 0.94607 0.0
C253 C 0.51671 0.21611 0.17221 0.0
O254 O 0.50028 0.21076 0.74541 0.0
O255 O 0.53589 0.21725 0.7373 0.0
Zn256 Zn 0.93691 0.39578 0.03421 0.0
O257 O 0.90205 0.36392 0.03878 0.0
C258 C 0.93196 0.41302 0.78793 0.0
Zn259 Zn 0.92447 0.42492 0.03104 0.0
C260 C 0.88403 0.36649 0.03832 0.0
O261 O 0.88726 0.3901 0.03457 0.0
C262 C 0.97834 0.45157 0.03145 0.0
O263 O 0.92367 0.42293 0.21806 0.0
O264 O 0.93614 0.39427 0.22239 0.0
N265 N 0.91186 0.45097 0.02965 0.0
C266 C 0.92043 0.47641 0.06014 0.0
C267 C 0.88826 0.46444 0.97587 0.0
N268 N 0.89179 0.44363 0.97829 0.0
N269 N 0.90591 0.48529 0.02701 0.0
C270 C 0.947 0.35486 0.93058 0.0
C271 C 0.98038 0.36654 -0.00095 0.0
N272 N 0.94981 0.3705 0.02186 0.0
N273 N 0.9704 0.37731 0.06577 0.0
N274 N 0.9663 0.35272 0.91159 0.0
H275 H 0.90928 0.33066 0.93702 0.0
H276 H 0.92392 0.32229 0.82422 0.0
H277 H 0.92165 0.35166 0.80458 0.0
C278 C 0.92423 0.33901 0.87033 0.0
C279 C 0.94378 0.49295 0.11309 0.0
H280 H 0.94732 0.48045 0.17551 0.0
H281 H 0.9445 0.50971 0.16042 0.0
H282 H 0.95775 0.50132 0.0408 0.0
O283 O 0.96239 0.45798 0.02847 0.0
O284 O 0.97188 0.42711 0.0321 0.0
C285 C 0.92977 0.40863 0.27697 0.0
O286 O 0.93799 0.39871 0.84644 0.0
O287 O 0.92525 0.42681 0.8435 0.0
Zn288 Zn 0.74566 0.21615 0.03938 0.0
O289 O 0.74675 0.21464 0.22598 0.0
C290 C 0.72541 0.15488 0.04109 0.0
Zn291 Zn 0.77269 0.20416 0.03997 0.0
C292 C 0.75938 0.20792 0.28373 0.0
O293 O 0.77264 0.20144 0.22768 0.0
C294 C 0.75844 0.21195 0.79545 0.0
O295 O 0.79774 0.24457 0.04651 0.0
O296 O 0.77368 0.25974 0.03417 0.0
N297 N 0.80016 0.19734 0.01705 0.0
C298 C 0.81776 0.208 0.93181 0.0
C299 C 0.82099 0.17844 0.03053 0.0
N300 N 0.80237 0.17917 0.07923 0.0
N301 N 0.83093 0.19642 0.93813 0.0
C302 C 0.69802 0.21482 0.01282 0.0
C303 C 0.70279 0.24679 0.11834 0.0
N304 N 0.71971 0.22565 0.05591 0.0
N305 N 0.7226 0.24548 0.12144 0.0
N306 N 0.68705 0.22775 0.05099 0.0
H307 H 0.68023 0.17252 0.00906 0.0
H308 H 0.67168 0.18745 0.89574 0.0
H309 H 0.69997 0.18958 0.88256 0.0
C310 C 0.68686 0.18989 0.94505 0.0
C311 C 0.82254 0.2298 0.84084 0.0
H312 H 0.81586 0.24271 0.8696 0.0
H313 H 0.84175 0.24229 0.8196 0.0
H314 H 0.81407 0.221 0.75762 0.0
O315 O 0.77174 0.20634 0.85306 0.0
O316 O 0.74482 0.21774 0.85187 0.0
C317 C 0.79474 0.26436 0.04168 0.0
O318 O 0.71898 0.17224 0.04543 0.0
O319 O 0.74737 0.16306 0.03762 0.0
Zn320 Zn 0.93562 0.66846 -0.00883 0.0
O321 O 0.93527 0.66926 0.17726 0.0
C322 C 0.98961 0.69496 -0.00919 0.0
Zn323 Zn 0.95328 0.71289 -0.01958 0.0
C324 C 0.94352 0.691 0.22971 0.0
O325 O 0.95198 0.71293 0.16872 0.0
C326 C 0.94561 0.68964 0.74148 0.0
O327 O 0.91905 0.7106 0.97766 0.0
O328 O 0.90084 0.66699 -0.00668 0.0
N329 N 0.97215 0.7539 0.96478 0.0
C330 C 0.97645 0.7704 0.86863 0.0
C331 C 1.00577 0.78975 0.97719 0.0
N332 N 0.99024 0.76632 0.0332 0.0
N333 N 0.99767 0.79279 0.87291 0.0
C334 C 0.92476 0.60971 0.04157 0.0
C335 C 0.8934 0.5879 0.94834 0.0
N336 N 0.91875 0.62733 -0.00053 0.0
N337 N 0.89912 0.6136 0.94273 0.0
N338 N 0.90914 0.58481 0.01014 0.0
H339 H 0.95228 0.63539 0.15405 0.0
H340 H 0.94479 0.60106 0.16534 0.0
H341 H 0.96111 0.62142 0.03625 0.0
C342 C 0.94694 0.61732 0.10358 0.0
C343 C 0.96028 0.76457 0.76882 0.0
H344 H 0.94316 0.74604 0.78808 0.0
H345 H 0.95701 0.78131 0.75509 0.0
H346 H 0.96894 0.76345 0.68546 0.0
O347 O 0.95464 0.71143 0.79338 0.0
O348 O 0.93597 0.66788 0.8035 0.0
C349 C 0.89966 0.68829 -0.01384 0.0
O350 O 0.97106 0.67197 -0.00997 0.0
O351 O 0.987 0.71511 -0.01385 0.0
Zn352 Zn 0.55493 0.43142 0.90437 0.0
O353 O 0.55341 0.42939 0.0909 0.0
C354 C 0.5239 0.45567 0.92011 0.0
Zn355 Zn 0.51664 0.40049 0.91567 0.0
C356 C 0.53496 0.41367 0.15424 0.0
O357 O 0.51603 0.39788 0.10429 0.0
C358 C 0.53714 0.41852 0.66497 0.0
O359 O 0.52418 0.36979 0.90701 0.0
O360 O 0.56233 0.39808 0.90362 0.0
N361 N 0.48103 0.37459 0.90894 0.0
C362 C 0.47079 0.36052 0.81351 0.0
C363 C 0.44772 0.37245 0.8866 0.0
N364 N 0.46636 0.38149 0.95576 0.0
N365 N 0.4502 0.35952 0.79526 0.0
C366 C 0.60329 0.48196 0.95887 0.0
C367 C 0.62614 0.48134 0.82327 0.0
N368 N 0.59047 0.45975 0.89851 0.0
N369 N 0.6048 0.45944 0.81475 0.0
N370 N 0.62575 0.49587 0.91315 0.0
H371 H 0.59915 0.48681 0.14331 0.0
H372 H 0.60055 0.51263 0.04663 0.0
H373 H 0.57412 0.48022 0.06102 0.0
C374 C 0.59354 0.49088 0.05732 0.0
C375 C 0.47944 0.34497 0.7464 0.0
H376 H 0.4758 0.32729 0.80306 0.0
H377 H 0.47024 0.33785 0.66273 0.0
H378 H 0.49864 0.35646 0.72735 0.0
O379 O 0.51835 0.4042 0.72784 0.0
O380 O 0.55613 0.43304 0.71592 0.0
C381 C 0.5451 0.37407 0.90313 0.0
O382 O 0.54565 0.4629 0.90614 0.0
O383 O 0.50888 0.43104 0.92554 0.0
Zn384 Zn 0.38813 0.99574 0.04413 0.0
O385 O 0.36011 0.95651 0.05632 0.0
C386 C 0.40222 0.98937 0.28622 0.0
Zn387 Zn 0.41534 0.9832 0.04053 0.0
C388 C 0.36295 0.93656 0.05738 0.0
O389 O 0.38411 0.94083 0.0527 0.0
C390 C 0.43773 0.04334 0.01981 0.0
O391 O 0.41458 0.98311 0.85428 0.0
O392 O 0.38793 0.99536 0.85646 0.0
N393 N 0.43942 0.96947 0.04133 0.0
C394 C 0.46282 0.98042 0.01388 0.0
C395 C 0.4508 0.94188 0.0934 0.0
N396 N 0.43215 0.94544 0.0898 0.0
N397 N 0.47037 0.96346 0.04591 0.0
C398 C 0.36557 0.02963 0.11017 0.0
C399 C 0.33196 1.00898 0.03492 0.0
N400 N 0.3645 1.00896 0.05357 0.0
N401 N 0.34357 0.99614 0.00717 0.0
N402 N 0.34542 0.03011 0.09932 0.0
H403 H 0.37919 0.05475 0.25904 0.0
H404 H 0.39781 0.06641 0.12542 0.0
H405 H 0.39595 0.03961 0.21486 0.0
C406 C 0.3857 0.04845 0.18197 0.0
C407 C 0.47841 1.00828 0.96402 0.0
H408 H 0.46925 1.01299 0.89474 0.0
H409 H 0.49523 1.01117 0.92541 0.0
H410 H 0.48244 0.02225 0.03634 0.0
O411 O 0.44416 0.026 0.02613 0.0
O412 O 0.41589 0.03523 0.02781 0.0
C413 C 0.40126 0.98919 0.79869 0.0
O414 O 0.3888 0.99516 0.23064 0.0
O415 O 0.41565 0.98354 0.22811 0.0
Zn416 Zn 0.15424 0.55595 0.09278 0.0
O417 O 0.16274 0.59506 0.07879 0.0
C418 C 0.17343 0.56096 0.84755 0.0
Zn419 Zn 0.19411 0.5699 0.08908 0.0
C420 C 0.18335 0.61522 0.06883 0.0
O421 O 0.20112 0.61173 0.06943 0.0
C422 C 0.16176 0.51029 0.11937 0.0
O423 O 0.19423 0.57201 0.27462 0.0
O424 O 0.15607 0.55766 0.28069 0.0
N425 N 0.23132 0.58223 0.07398 0.0
C426 C 0.24469 0.5712 0.10276 0.0
C427 C 0.26745 0.60767 0.00617 0.0
N428 N 0.24585 0.60496 0.01449 0.0
N429 N 0.26757 0.58684 0.06084 0.0
C430 C 0.0982 0.52345 0.05773 0.0
C431 C 0.08689 0.54609 0.15441 0.0
N432 N 0.11772 0.54373 0.10307 0.0
N433 N 0.11044 0.55768 0.16275 0.0
N434 N 0.07848 0.52437 0.08912 0.0
H435 H 0.11662 0.51167 0.93498 0.0
H436 H 0.08585 0.49875 0.90761 0.0
H437 H 0.09426 0.48541 0.03021 0.0
C438 C 0.09884 0.50383 0.97724 0.0
C439 C 0.23475 0.54423 0.16317 0.0
H440 H 0.2222 0.54174 0.23704 0.0
H441 H 0.24872 0.541 0.19758 0.0
H442 H 0.22495 0.52891 0.09833 0.0
O443 O 0.18366 0.52796 0.11339 0.0
O444 O 0.14649 0.51724 0.10797 0.0
C445 C 0.17508 0.56497 0.33422 0.0
O446 O 0.15459 0.55519 0.90679 0.0
O447 O 0.19214 0.56711 0.90155 0.0
Zn448 Zn 0.63208 0.7734 0.0556 0.0
O449 O 0.63237 0.77518 0.86882 0.0
C450 C 0.66953 0.75605 0.04106 0.0
Zn451 Zn 0.66898 0.80842 0.04487 0.0
C452 C 0.65036 0.79239 0.8063 0.0
O453 O 0.66854 0.80952 0.85719 0.0
C454 C 0.65061 0.78888 0.29476 0.0
O455 O 0.65784 0.83644 0.051 0.0
O456 O 0.62091 0.8047 0.06049 0.0
N457 N 0.70333 0.83835 0.04166 0.0
C458 C 0.71471 0.85661 0.12281 0.0
C459 C 0.74062 0.85372 0.01868 0.0
N460 N 0.71955 0.83703 0.97528 0.0
N461 N 0.73808 0.86626 0.11164 0.0
C462 C 0.57981 0.72221 0.01636 0.0
C463 C 0.56091 0.72959 0.15147 0.0
N464 N 0.59586 0.74395 0.07198 0.0
N465 N 0.58381 0.74823 0.15553 0.0
N466 N 0.55757 0.71281 0.06468 0.0
H467 H 0.60284 0.72668 0.86663 0.0
H468 H 0.57178 0.70422 0.84695 0.0
H469 H 0.5881 0.69455 0.94165 0.0
C470 C 0.58596 0.71142 0.91115 0.0
C471 C 0.70309 0.86344 0.2209 0.0
H472 H 0.68385 0.8535 0.215 0.0
H473 H 0.71024 0.88524 0.21666 0.0
H474 H 0.70741 0.8582 0.30818 0.0
O475 O 0.6686 0.80583 0.23233 0.0
O476 O 0.63238 0.77234 0.24332 0.0
C477 C 0.63629 0.82962 0.05841 0.0
O478 O 0.64683 0.74449 0.04964 0.0
O479 O 0.68102 0.78128 0.03806 0.0
Zn480 Zn 0.44187 0.55784 0.04337 0.0
O481 O 0.46868 0.59645 0.03265 0.0
C482 C 0.42833 0.56446 0.80313 0.0
Zn483 Zn 0.41467 0.5716 0.05041 0.0
C484 C 0.46676 0.61696 0.03061 0.0
O485 O 0.44598 0.61398 0.037 0.0
C486 C 0.39346 0.51161 0.06366 0.0
O487 O 0.41521 0.57198 0.23615 0.0
O488 O 0.4409 0.55825 0.23193 0.0
N489 N 0.38851 0.5839 0.04656 0.0
C490 C 0.36524 0.57253 0.08183 0.0
C491 C 0.37469 0.60893 -0.01199 0.0
N492 N 0.39405 0.60658 -0.01106 0.0
N493 N 0.35607 0.5879 0.04584 0.0
C494 C 0.46848 0.52604 -0.00807 0.0
C495 C 0.50006 0.54838 0.08268 0.0
N496 N 0.46708 0.54594 0.04328 0.0
N497 N 0.48681 0.55975 0.09929 0.0
N498 N 0.48903 0.52706 0.01567 0.0
H499 H 0.45868 0.50119 0.8416 0.0
H500 H 0.43801 0.48832 0.96792 0.0
H501 H 0.43994 0.51475 0.87423 0.0
C502 C 0.45029 0.5066 0.91366 0.0
C503 C 0.3513 0.54548 0.14252 0.0
H504 H 0.36213 0.54263 0.20846 0.0
H505 H 0.33487 0.54243 0.18702 0.0
H506 H 0.3465 0.53027 0.07527 0.0
O507 O 0.38705 0.529 0.06578 0.0
O508 O 0.41515 0.51911 0.05377 0.0
C509 C 0.42812 0.56508 0.29062 0.0
O510 O 0.44172 0.55832 0.85738 0.0
O511 O 0.41515 0.57062 0.86215 0.0
Zn512 Zn 0.66556 0.98657 0.05144 0.0
O513 O 0.65555 0.94644 0.06367 0.0
C514 C 0.64682 0.98301 0.29878 0.0
Zn515 Zn 0.62859 0.97874 0.05807 0.0
C516 C 0.63414 0.92807 0.06601 0.0
O517 O 0.61824 0.93468 0.06244 0.0
C518 C 0.66448 0.03821 0.04368 0.0
O519 O 0.62912 0.97945 0.87128 0.0
O520 O 0.66506 0.98576 0.86414 0.0
N521 N 0.59304 0.96833 0.071 0.0
C522 C 0.57949 0.97756 0.02539 0.0
C523 C 0.55792 0.94639 0.15327 0.0
N524 N 0.57936 0.94885 0.14963 0.0
N525 N 0.55729 0.96416 0.07645 0.0
C526 C 0.71236 0.99514 0.13742 0.0
C527 C 0.73663 0.02989 0.03333 0.0
N528 N 0.70045 0.9982 0.04906 0.0
N529 N 0.71567 0.01957 -0.0168 0.0
N530 N 0.73498 1.01519 0.13162 0.0
H531 H 0.69101 0.95291 0.17292 0.0
H532 H 0.71713 0.96883 0.25697 0.0
H533 H 0.69228 0.97234 0.29576 0.0
C534 C 0.70265 0.97096 0.22058 0.0
C535 C 0.58834 1.0003 0.93526 0.0
H536 H 0.60778 1.01111 0.92462 0.0
H537 H 0.58116 0.99248 0.84814 0.0
H538 H 0.58219 1.01408 0.96118 0.0
O539 O 0.64199 0.02338 0.05429 0.0
O540 O 0.67649 0.02684 0.03948 0.0
C541 C 0.64708 0.98265 0.81102 0.0
O542 O 0.66513 0.98765 0.23823 0.0
O543 O 0.62844 0.9781 0.24552 0.0
Zn544 Zn 0.20159 0.77464 0.06064 0.0
O545 O 0.20088 0.7712 0.24676 0.0
C546 C 0.17765 0.80648 0.08856 0.0
Zn547 Zn 0.16078 0.74926 0.06585 0.0
C548 C 0.18135 0.75933 0.3074 0.0
O549 O 0.16196 0.748 0.2547 0.0
C550 C 0.18106 0.76464 0.819 0.0
O551 O 0.16455 0.71485 0.0582 0.0
O552 O 0.20342 0.7388 0.04947 0.0
N553 N 0.12273 0.7262 0.07288 0.0
C554 C 0.10617 0.73111 0.0285 0.0
C555 C 0.08761 0.69331 0.12067 0.0
N556 N 0.1109 0.70258 0.12987 0.0
N557 N 0.08383 0.71078 0.05788 0.0
C558 C 0.25434 0.82351 0.09 0.0
C559 C 0.2748 0.81317 0.97919 0.0
N560 N 0.23916 0.79945 0.04721 0.0
N561 N 0.25214 0.7932 0.97883 0.0
N562 N 0.2769 0.83278 0.04772 0.0
H563 H 0.23188 0.82196 0.23566 0.0
H564 H 0.26185 0.84938 0.23567 0.0
H565 H 0.24179 0.84984 0.13104 0.0
C566 C 0.2471 0.83694 0.17876 0.0
C567 C 0.11207 0.75517 0.95092 0.0
H568 H 0.12961 0.76341 0.90514 0.0
H569 H 0.09865 0.75019 0.88368 0.0
H570 H 0.11243 0.77069 0.00684 0.0
O571 O 0.16166 0.75173 0.87968 0.0
O572 O 0.20034 0.77681 0.87185 0.0
C573 C 0.18452 0.71609 0.05181 0.0
O574 O 0.19783 0.80857 0.07898 0.0
O575 O 0.15922 0.78406 0.07721 0.0
C576 C 0.1654 0.47373 0.22522 0.0
C577 C 0.15291 0.48197 0.15315 0.0
H578 H 0.16372 0.44175 0.33473 0.0
C579 C 0.12953 0.46342 0.12943 0.0
H580 H 0.18341 0.48765 0.24556 0.0
C581 C 0.1182 0.43804 0.18345 0.0
C582 C 0.13006 0.43007 0.26054 0.0
H583 H 0.11955 0.46887 0.07236 0.0
H584 H 0.09996 0.42458 0.16468 0.0
C585 C 0.15407 0.44771 0.27763 0.0
C586 C 0.77233 0.90735 0.3612 0.0
C587 C 0.78008 0.89104 0.41211 0.0
H588 H 0.75316 0.91244 0.22147 0.0
C589 C 0.7745 0.86711 0.3602 0.0
H590 H 0.77659 0.92596 0.39983 0.0
C591 C 0.76152 0.85964 0.25868 0.0
C592 C 0.75376 0.87588 0.20737 0.0
H593 H 0.78071 0.85451 0.39685 0.0
H594 H 0.75709 0.84085 0.2213 0.0
C595 C 0.75918 0.89978 0.2594 0.0
C596 C 0.3502 0.0947 0.17438 0.0
C597 C 0.32773 0.08634 0.22645 0.0
H598 H 0.3729 0.08356 0.08783 0.0
C599 C 0.31111 0.05896 0.23661 0.0
H600 H 0.36334 0.11564 0.16256 0.0
C601 C 0.3169 0.04043 0.195 0.0
C602 C 0.33939 0.04898 0.14295 0.0
H603 H 0.29367 0.05187 0.276 0.0
H604 H 0.3039 0.01942 0.20379 0.0
C605 C 0.35582 0.0763 0.13196 0.0
C606 C 0.41649 0.2277 0.56389 0.0
C607 C 0.40825 0.20526 0.49523 0.0
H608 H 0.43092 0.24486 0.72918 0.0
C609 C 0.40686 0.18207 0.54444 0.0
H610 H 0.41728 0.24559 0.52834 0.0
C611 C 0.4142 0.18151 0.65871 0.0
C612 C 0.42312 0.20413 0.72622 0.0
H613 H 0.3999 0.16427 0.49444 0.0
H614 H 0.41391 0.16377 0.69255 0.0
C615 C 0.42385 0.22712 0.67878 0.0
C616 C 0.96813 0.35226 0.6911 0.0
C617 C 0.97494 0.34749 0.80251 0.0
H618 H 0.97541 0.35802 0.50204 0.0
C619 C 0.9936 0.34244 0.80506 0.0
H620 H 0.95424 0.35672 0.68454 0.0
C621 C 1.00582 0.34345 0.70015 0.0
C622 C 0.99952 0.3492 0.58972 0.0
H623 H 0.99952 0.33908 0.88901 0.0
H624 H 1.02086 0.34081 0.70586 0.0
C625 C 0.98039 0.35328 0.58597 0.0
C626 C 0.88388 0.86424 0.77349 0.0
C627 C 0.87366 0.86462 0.66615 0.0
H628 H 0.87935 0.84282 0.93999 0.0
C629 C 0.85318 0.84173 0.63453 0.0
H630 H 0.89933 0.88195 0.80106 0.0
C631 C 0.84188 0.81965 0.71368 0.0
C632 C 0.85087 0.82017 0.82558 0.0
H633 H 0.84475 0.84185 0.55349 0.0
H634 H 0.82508 0.80305 0.69157 0.0
C635 C 0.87232 0.84218 0.85368 0.0
C636 C 1.02371 0.84513 0.62334 0.0
C637 C 0.04467 0.84519 0.5933 0.0
H638 H 0.99227 0.82838 0.73767 0.0
C639 C 0.04848 0.82592 0.64932 0.0
H640 H 1.02019 0.85967 0.58212 0.0
C641 C 0.03265 0.80838 0.7387 0.0
C642 C 1.01253 0.80945 0.77352 0.0
H643 H 0.06437 0.82534 0.62918 0.0
H644 H 0.03644 0.79437 0.7834 0.0
C645 C 1.00775 0.82736 0.71259 0.0
C646 C 0.4059 0.34634 0.5669 0.0
C647 C 0.42045 0.35992 0.46456 0.0
H648 H 0.40406 0.3351 0.75207 0.0
C649 C 0.44492 0.37299 0.4736 0.0
H650 H 0.38701 0.33722 0.56549 0.0
C651 C 0.45454 0.3722 0.58156 0.0
C652 C 0.44 0.35795 0.68237 0.0
H653 H 0.45655 0.38432 0.39783 0.0
H654 H 0.47338 0.38372 0.58817 0.0
C655 C 0.41558 0.34526 0.67437 0.0
C656 C 0.86852 0.19963 0.87659 0.0
C657 C 0.8469 0.19693 0.84748 0.0
H658 H 0.89757 0.19528 0.81854 0.0
C659 C 0.83987 0.19208 0.73 0.0
H660 H 0.87413 0.20326 0.96691 0.0
C661 C 0.85335 0.18809 0.645 0.0
C662 C 0.87391 0.1884 0.67645 0.0
H663 H 0.82292 0.18902 0.70622 0.0
H664 H 0.84634 0.1818 0.55841 0.0
C665 C 0.88213 0.19569 0.79104 0.0
C666 C 0.77544 0.04069 0.19755 0.0
C667 C 0.75122 0.02494 0.22559 0.0
H668 H 0.80951 0.06677 0.26098 0.0
C669 C 0.743 0.0225 0.34472 0.0
H670 H 0.78216 0.04354 0.10628 0.0
C671 C 0.75866 0.03543 0.4336 0.0
C672 C 0.78281 0.05116 0.4051 0.0
H673 H 0.7244 1.01176 0.36879 0.0
H674 H 0.75193 0.03366 0.52419 0.0
C675 C 0.79104 0.05384 0.28609 0.0
C676 C 0.18295 0.85518 0.31341 0.0
C677 C 0.16211 0.85551 0.298 0.0
H678 H 0.20484 0.84008 0.25434 0.0
C679 C 0.14841 0.84306 0.20131 0.0
H680 H 0.19362 0.86467 0.38791 0.0
C681 C 0.15468 0.829 0.125 0.0
C682 C 0.17493 0.82745 0.14353 0.0
H683 H 0.13216 0.84306 0.18899 0.0
H684 H 0.14302 0.8181 0.0557 0.0
C685 C 0.18948 0.84148 0.23583 0.0
C686 C 0.38329 0.46617 0.01559 0.0
C687 C 0.37695 0.48253 0.07604 0.0
H688 H 0.3792 0.4276 0.00333 0.0
C689 C 0.35839 0.47078 0.16324 0.0
H690 H 0.39716 0.47453 0.94628 0.0
C691 C 0.34761 0.44336 0.19462 0.0
C692 C 0.35572 0.42777 0.14091 0.0
H693 H 0.35331 0.48297 0.212 0.0
H694 H 0.33394 0.43473 0.26502 0.0
C695 C 0.3731 0.4393 0.04869 0.0
C696 C 1.02008 0.46171 0.04958 0.0
C697 C 1.00425 0.47125 0.03968 0.0
H698 H 0.0551 0.47027 0.07707 0.0
C699 C 1.01361 0.49891 0.0431 0.0
H700 H 1.01378 0.44059 0.04915 0.0
C701 C 0.03795 0.51627 0.05667 0.0
C702 C 0.05368 0.50655 0.06675 0.0
H703 H 1.00213 0.5071 0.03675 0.0
H704 H 0.04451 0.5374 0.06007 0.0
C705 C 0.04418 0.47893 0.06383 0.0
C706 C 0.72416 0.74865 0.01068 0.0
C707 C 0.71587 0.72118 0.02255 0.0
H708 H 0.71697 0.78029 0.0061 0.0
C709 C 0.69109 0.70419 0.03893 0.0
H710 H 0.74283 0.76278 -0.00252 0.0
C711 C 0.6755 0.71463 0.04433 0.0
C712 C 0.68422 0.74239 0.03342 0.0
H713 H 0.68374 0.68287 0.04848 0.0
H714 H 0.65675 0.70101 0.05791 0.0
C715 C 0.70893 0.75887 0.01582 0.0
C716 C 0.45859 0.11606 0.94496 0.0
C717 C 0.48299 0.12943 0.95984 0.0
H718 H 0.42602 0.07961 0.94974 0.0
C719 C 0.49315 0.11386 -0.00952 0.0
H720 H 0.44992 0.12694 0.91998 0.0
C721 C 0.47895 0.08576 0.00876 0.0
C722 C 0.45435 0.07277 -0.00301 0.0
H723 H 0.51188 0.12339 0.00276 0.0
H724 H 0.48711 0.07435 0.03412 0.0
C725 C 0.44468 0.08853 0.96283 0.0
C726 C 0.68371 0.113 0.06398 0.0
C727 C 0.70824 0.12532 0.03702 0.0
H728 H 0.65027 0.07593 0.08806 0.0
C729 C 0.71711 0.10874 0.00662 0.0
H730 H 0.67611 0.12503 0.08743 0.0
C731 C 0.70253 0.08115 0.00587 0.0
C732 C 0.67818 0.06837 0.0364 0.0
H733 H 0.73566 0.11705 -0.01645 0.0
H734 H 0.71075 0.06975 -0.01767 0.0
C735 C 0.66884 0.08481 0.06405 0.0
C736 C 0.04093 0.68141 0.02258 0.0
C737 C 0.06061 0.70715 0.0339 0.0
H738 H 1.00365 0.65724 -0.00082 0.0
C739 C 0.05645 0.72862 0.0297 0.0
H740 H 0.04318 0.66426 0.02646 0.0
C741 C 0.03371 0.72456 0.01338 0.0
C742 C 1.01404 0.69885 0.00221 0.0
H743 H 0.07056 0.74859 0.04298 0.0
H744 H 0.03151 0.74176 0.01203 0.0
C745 C 1.01812 0.67734 0.00677 0.0
C746 C 0.52204 0.51961 0.96073 0.0
C747 C 0.49776 0.50952 -0.01576 0.0
H748 H 0.54953 0.51086 0.92088 0.0
C749 C 0.48253 0.48188 -0.01531 0.0
H750 H 0.5343 0.54081 0.96122 0.0
C751 C 0.49114 0.46487 0.96054 0.0
C752 C 0.51539 0.47481 0.93724 0.0
H753 H 0.46399 0.47315 0.0079 0.0
H754 H 0.47865 0.44369 0.9632 0.0
C755 C 0.53077 0.50248 0.93728 0.0
C756 C 0.19072 0.33789 0.18208 0.0
C757 C 0.18568 0.34015 0.30153 0.0
H758 H 0.21416 0.33424 0.05834 0.0
C759 C 0.2011 0.34144 0.38803 0.0
H760 H 0.17866 0.3357 0.11433 0.0
C761 C 0.22085 0.33982 0.35653 0.0
C762 C 0.22591 0.33758 0.2375 0.0
H763 H 0.19736 0.34272 0.48095 0.0
H764 H 0.23165 0.33921 0.42579 0.0
C765 C 0.21077 0.33667 0.15031 0.0
C766 C 0.88062 0.0443 0.47524 0.0
C767 C 0.89751 0.06527 0.53829 0.0
H768 H 0.86579 1.00374 0.43246 0.0
C769 C 0.91513 0.06274 0.59338 0.0
H770 H 0.86774 0.04637 0.42649 0.0
C771 C 0.91448 0.03842 0.59384 0.0
C772 C 0.89608 1.01672 0.54022 0.0
H773 H 0.92847 0.07892 0.64142 0.0
H774 H 0.92743 0.03614 0.6417 0.0
C775 C 0.87967 0.02005 0.47751 0.0
C776 C 0.16177 1.01072 0.34799 0.0
C777 C 0.16619 0.99026 0.38138 0.0
H778 H 0.17637 0.05196 0.29816 0.0
C779 C 0.18957 0.99596 0.38341 0.0
H780 H 0.14396 1.00701 0.34428 0.0
C781 C 0.20816 0.02193 0.3567 0.0
C782 C 0.20361 0.04241 0.32581 0.0
H783 H 0.19348 0.98062 0.40908 0.0
H784 H 0.226 0.02615 0.36556 0.0
C785 C 0.18026 0.03646 0.32081 0.0
C786 C 0.31691 0.25711 0.3541 0.0
C787 C 0.30601 0.26343 0.26437 0.0
H788 H 0.32407 0.22816 0.43032 0.0
C789 C 0.29052 0.24331 0.19194 0.0
H790 H 0.32815 0.27192 0.41403 0.0
C791 C 0.28775 0.21777 0.20287 0.0
C792 C 0.3005 0.2124 0.28609 0.0
H793 H 0.28187 0.24778 0.12227 0.0
H794 H 0.27711 0.20297 0.14102 0.0
C795 C 0.31434 0.23195 0.36435 0.0
C796 C 1.00554 0.22816 0.36774 0.0
C797 C 1.00264 0.21882 0.4868 0.0
H798 H 1.02642 0.2602 0.24004 0.0
C799 C 1.02128 0.23222 0.56264 0.0
H800 H 0.99218 0.21744 0.30522 0.0
C801 C 0.04146 0.25594 0.52333 0.0
C802 C 0.04309 0.26654 0.40806 0.0
H803 H 1.01965 0.22518 0.6543 0.0
H804 H 0.05483 0.26703 0.58574 0.0
C805 C 1.02538 0.25219 0.32943 0.0
C806 C 1.02293 0.96653 0.41519 0.0
C807 C 0.03637 0.96694 0.50995 0.0
H808 H 0.9935 0.96956 0.36102 0.0
C809 C 0.03065 0.97111 0.62504 0.0
H810 H 0.02724 0.9634 0.32596 0.0
C811 C 1.01136 0.97453 0.64502 0.0
C812 C 0.99799 0.97404 0.54972 0.0
H813 H 0.04132 0.97219 0.69831 0.0
H814 H 1.00699 0.97785 0.73374 0.0
C815 C 1.00384 0.97004 0.43498 0.0
C816 C 0.85405 0.66374 0.00052 0.0
C817 C 0.8762 0.68764 -0.01051 0.0
H818 H 0.81602 0.64525 0.01404 0.0
C819 C 0.87583 0.7116 -0.01705 0.0
H820 H 0.85332 0.64477 0.00594 0.0
C821 C 0.85454 0.71184 -0.01213 0.0
C822 C 0.83234 0.68815 -0.00054 0.0
H823 H 0.89217 0.7305 0.97432 0.0
H824 H 0.85563 0.73101 -0.01747 0.0
C825 C 0.83251 0.66399 0.00524 0.0
C826 C 0.53433 0.33168 0.80956 0.0
C827 C 0.54823 0.35064 0.89027 0.0
H828 H 0.52057 0.29234 0.7507 0.0
C829 C 0.5614 0.34449 0.96801 0.0
H830 H 0.52408 0.33579 0.74808 0.0
C831 C 0.55918 0.319 0.97022 0.0
C832 C 0.54382 0.29948 0.89448 0.0
H833 H 0.57204 0.35858 0.0323 0.0
H834 H 0.56814 0.31401 0.03625 0.0
C835 C 0.53224 0.30663 0.81138 0.0
C836 C 0.81714 0.31595 0.02081 0.0
C837 C 0.81642 0.29164 0.04586 0.0
H838 H 0.83889 0.35891 -0.0016 0.0
C839 C 0.83774 0.29298 0.07272 0.0
H840 H 0.80118 0.31587 -0.00028 0.0
C841 C 0.85892 0.31715 0.07191 0.0
C842 C 0.86011 0.34149 0.04417 0.0
H843 H 0.83832 0.27508 0.09387 0.0
H844 H 0.87459 0.31655 0.09275 0.0
C845 C 0.83878 0.34065 0.02006 0.0
C846 C 0.9115 0.54927 0.12509 0.0
C847 C 0.91062 0.56097 0.01591 0.0
H848 H 0.91078 0.51564 0.21419 0.0
C849 C 0.90931 0.54792 0.91125 0.0
H850 H 0.91168 0.55847 0.20734 0.0
C851 C 0.90865 0.52359 0.91529 0.0
C852 C 0.90936 0.51174 0.02402 0.0
H853 H 0.90841 0.55643 0.82627 0.0
H854 H 0.90716 0.51369 0.83346 0.0
C855 C 0.91095 0.52484 0.12906 0.0
C856 C 0.65948 0.54022 0.85218 0.0
C857 C 0.64501 0.52144 0.94291 0.0
H858 H 0.69001 0.57844 0.80786 0.0
C859 C 0.65045 0.52761 0.06168 0.0
H860 H 0.65589 0.53583 0.75986 0.0
C861 C 0.66978 0.55209 0.08896 0.0
C862 C 0.68402 0.57096 -0.00175 0.0
H863 H 0.64027 0.51323 0.13336 0.0
H864 H 0.67383 0.55622 0.18107 0.0
C865 C 0.67878 0.56469 0.87951 0.0
C866 C 0.65889 0.22414 0.90321 0.0
C867 C 0.66462 0.2244 0.02213 0.0
H868 H 0.63441 0.22381 0.78163 0.0
C869 C 0.64931 0.22423 0.11182 0.0
H870 H 0.67091 0.22549 0.83226 0.0
C871 C 0.62857 0.22379 0.08295 0.0
C872 C 0.62285 0.22356 0.96364 0.0
H873 H 0.65373 0.22509 0.20402 0.0
H874 H 0.6177 0.22492 0.15341 0.0
C875 C 0.63817 0.22353 0.87439 0.0
C876 C 0.52982 0.97239 0.95656 0.0
C877 C 0.53718 0.9679 0.06679 0.0
H878 H 0.50258 0.97455 0.86327 0.0
C879 C 0.52291 0.96415 0.16924 0.0
H880 H 0.53988 0.97457 0.87538 0.0
C881 C 0.50167 0.96395 0.16201 0.0
C882 C 0.49394 0.96768 0.05223 0.0
H883 H 0.52794 0.96061 0.25546 0.0
H884 H 0.49083 0.96016 0.24238 0.0
C885 C 0.5084 0.97229 0.94944 0.0
C886 C 0.16449 0.66669 0.03899 0.0
C887 C 0.18541 0.69097 0.04959 0.0
H888 H 0.14763 0.62464 0.03484 0.0
C889 C 0.20652 0.69052 0.06116 0.0
H890 H 0.14791 0.66606 0.02896 0.0
C891 C 0.20642 0.6662 0.06511 0.0
C892 C 0.18521 0.64189 0.05735 0.0
H893 H 0.22302 0.70888 0.06941 0.0
H894 H 0.22277 0.6664 0.07648 0.0
C895 C 0.1644 0.64273 0.0425 0.0
C896 C 0.53273 0.66624 0.00346 0.0
C897 C 0.53476 0.69004 0.0401 0.0
H898 H 0.5102 0.62549 0.96842 0.0
C899 C 0.51365 0.69026 0.06523 0.0
H900 H 0.54814 0.66458 -0.01243 0.0
C901 C 0.4913 0.66719 0.05708 0.0
C902 C 0.48948 0.64321 0.02405 0.0
H903 H 0.51445 0.70821 0.09445 0.0
H904 H 0.47561 0.66789 0.08113 0.0
C905 C 0.51061 0.64344 -0.00548 0.0
C906 C 0.61524 0.85532 0.00269 0.0
C907 C 0.63051 0.85133 0.07481 0.0
H908 H 0.60396 0.88265 0.94288 0.0
C909 C 0.6438 0.87116 0.15385 0.0
H910 H 0.60497 0.8407 0.93944 0.0
C911 C 0.64313 0.89478 0.1563 0.0
C912 C 0.62923 0.89986 0.07938 0.0
H913 H 0.65566 0.86893 0.21123 0.0
H914 H 0.6545 0.90981 0.21553 0.0
C915 C 0.61463 0.87939 0.00481 0.0
C916 C 0.34186 0.88549 0.05727 0.0
C917 C 0.34115 0.90921 0.06084 0.0
H918 H 0.32204 0.8427 0.05137 0.0
C919 C 0.31873 0.90692 0.06389 0.0
H920 H 0.35862 0.88624 0.05414 0.0
C921 C 0.2979 0.88213 0.06197 0.0
C922 C 0.29845 0.85839 0.05866 0.0
H923 H 0.31714 0.92451 0.06537 0.0
H924 H 0.28139 0.88181 0.05873 0.0
C925 C 0.32082 0.86048 0.05569 0.0
C926 C 0.31854 0.57807 0.15826 0.0
C927 C 0.33206 0.5835 0.05055 0.0
H928 H 0.28759 0.57489 0.24698 0.0
C929 C 0.32286 0.5882 0.94721 0.0
H930 H 0.32532 0.5754 0.24063 0.0
C931 C 0.30134 0.58793 0.95085 0.0
C932 C 0.28791 0.58293 0.05802 0.0
H933 H 0.33276 0.59283 0.86301 0.0
H934 H 0.29541 0.59236 0.86933 0.0
C935 C 0.2968 0.57779 0.16193 0.0
C936 C 0.10412 0.3438 0.91585 0.0
C937 C 0.08712 0.34689 0.9798 0.0
H938 H 0.11867 0.34298 0.74501 0.0
C939 C 0.07155 0.35196 0.9169 0.0
H940 H 0.11646 0.34002 0.96155 0.0
C941 C 0.07294 0.35383 0.79286 0.0
C942 C 0.08986 0.35063 0.72895 0.0
H943 H 0.05836 0.35467 0.96335 0.0
H944 H 0.06081 0.3579 0.74702 0.0
C945 C 0.10549 0.34567 0.79171 0.0
C946 C 0.90799 0.95046 0.13454 0.0
C947 C 0.88686 0.9383 0.20432 0.0
H948 H 0.92427 0.96158 0.95954 0.0
C949 C 0.86539 0.92761 0.14762 0.0
H950 H 0.92481 0.95896 0.17542 0.0
C951 C 0.86506 0.92936 0.02395 0.0
C952 C 0.88618 0.94168 0.95418 0.0
H953 H 0.84878 0.91787 0.19872 0.0
H954 H 0.84823 0.92084 -0.01687 0.0
C955 C 0.90765 0.9521 0.01079 0.0
C956 C 0.33308 0.15871 0.82973 0.0
C957 C 0.312 0.14833 0.89915 0.0
H958 H 0.34914 0.1644 0.65586 0.0
C959 C 0.29046 0.13572 0.84297 0.0
H960 H 0.34993 0.16811 0.87057 0.0
C961 C 0.29001 0.1339 0.71971 0.0
C962 C 0.31109 0.14449 0.65012 0.0
H963 H 0.2739 0.12737 0.89415 0.0
H964 H 0.27316 0.12445 0.67894 0.0
C965 C 0.33261 0.15661 0.70661 0.0
C966 C 0.11461 0.90182 0.90291 0.0
C967 C 0.10818 0.91793 0.83816 0.0
H968 H 0.1161 0.88586 0.07348 0.0
C969 C 0.09814 0.93067 0.90014 0.0
H970 H 0.12189 0.89123 0.85788 0.0
C971 C 0.09499 0.92774 0.02408 0.0
C972 C 0.10165 0.91183 0.08893 0.0
H973 H 0.0927 0.94296 0.85289 0.0
H974 H 0.08766 0.93827 0.06912 0.0
C975 C 0.11122 0.89867 0.02667 0.0
C976 C 0.35172 0.35287 0.7641 0.0
C977 C 0.33131 0.34414 0.83704 0.0
H978 H 0.36692 0.36168 0.58686 0.0
C979 C 0.30998 0.33714 0.78358 0.0
H980 H 0.36846 0.35869 0.8023 0.0
C981 C 0.30905 0.33871 0.66007 0.0
C982 C 0.32944 0.34738 0.58714 0.0
H983 H 0.2939 0.33042 0.8372 0.0
H984 H 0.29232 0.3329 0.62184 0.0
C985 C 0.35081 0.3546 0.64058 0.0
C986 C 0.90948 0.14636 0.13224 0.0
C987 C 0.88851 0.13344 0.20322 0.0
H988 H 0.92558 0.15375 0.95739 0.0
C989 C 0.86712 0.11764 0.14852 0.0
H990 H 0.92625 0.15851 0.17156 0.0
C991 C 0.86671 0.11474 0.02579 0.0
C992 C 0.88769 0.12751 0.95485 0.0
H993 H 0.85062 0.1073 0.20063 0.0
H994 H 0.84993 0.10259 -0.0134 0.0
C995 C 0.90908 0.1434 0.0095 0.0
C996 C 0.75937 0.67523 0.45248 0.0
C997 C 0.77115 0.69965 0.38607 0.0
H998 H 0.74964 0.65546 0.62517 0.0
C999 C 0.78196 0.7234 0.4462 0.0
H1000 H 0.7508 0.65655 0.40871 0.0
C1001 C 0.78109 0.72275 0.57015 0.0
C1002 C 0.76965 0.69834 0.63662 0.0
H1003 H 0.79093 0.74253 0.39763 0.0
H1004 H 0.78925 0.74142 0.61368 0.0
C1005 C 0.75866 0.67458 0.57652 0.0
C1006 C 0.53743 0.21879 0.48405 0.0
C1007 C 0.51751 0.21389 0.55346 0.0
H1008 H 0.55284 0.22349 0.30934 0.0
C1009 C 0.49727 0.20976 0.4965 0.0
H1010 H 0.55329 0.2221 0.52523 0.0
C1011 C 0.49703 0.2107 0.37268 0.0
C1012 C 0.51698 0.21567 0.30325 0.0
H1013 H 0.48157 0.20578 0.54746 0.0
H1014 H 0.48117 0.2074 0.33155 0.0
C1015 C 0.53717 0.21965 0.36026 0.0
C1016 C 0.91958 0.42182 0.46892 0.0
C1017 C 0.93021 0.40962 0.40773 0.0
H1018 H 0.91172 0.43244 0.6372 0.0
C1019 C 0.94197 0.39929 0.47227 0.0
H1020 H 0.91048 0.43011 0.42159 0.0
C1021 C 0.94299 0.40106 0.59541 0.0
C1022 C 0.93195 0.41272 0.65692 0.0
H1023 H 0.9507 0.39019 0.42763 0.0
H1024 H 0.95261 0.39353 0.64256 0.0
C1025 C 0.92038 0.42329 0.59236 0.0
C1026 C 0.7712 0.19932 0.48197 0.0
C1027 C 0.75889 0.2085 0.41478 0.0
H1028 H 0.78025 0.19266 0.65478 0.0
C1029 C 0.74624 0.21866 0.47391 0.0
H1030 H 0.78098 0.19122 0.43926 0.0
C1031 C 0.74608 0.21985 0.59748 0.0
C1032 C 0.75856 0.21088 0.66458 0.0
H1033 H 0.73655 0.22592 0.42472 0.0
H1034 H 0.73628 0.2279 0.64027 0.0
C1035 C 0.77093 0.20036 0.60556 0.0
C1036 C 0.95839 0.71409 0.41836 0.0
C1037 C 0.94397 0.69066 0.36055 0.0
H1038 H 0.97108 0.73181 0.58338 0.0
C1039 C 0.93062 0.66666 0.42871 0.0
H1040 H 0.96923 0.73279 0.36815 0.0
C1041 C 0.93136 0.66622 0.55246 0.0
C1042 C 0.9456 0.68973 0.61038 0.0
H1043 H 0.91943 0.64822 0.38655 0.0
H1044 H 0.92058 0.64751 0.60269 0.0
C1045 C 0.95936 0.71356 0.54185 0.0
C1046 C 0.55459 0.43602 0.33787 0.0
C1047 C 0.53565 0.4146 0.28491 0.0
H1048 H 0.5698 0.45427 0.49954 0.0
C1049 C 0.5175 0.39436 0.35795 0.0
H1050 H 0.56888 0.45196 0.28396 0.0
C1051 C 0.51826 0.39556 0.4813 0.0
C1052 C 0.53683 0.4173 0.5343 0.0
H1053 H 0.50285 0.37742 0.32001 0.0
H1054 H 0.50447 0.37917 0.53498 0.0
C1055 C 0.55515 0.43739 0.46135 0.0
C1056 C 0.38739 0.99625 0.48076 0.0
C1057 C 0.40205 0.98939 0.41725 0.0
H1058 H 0.37559 1.00155 0.65093 0.0
C1059 C 0.41645 0.98248 0.48016 0.0
H1060 H 0.3761 1.00172 0.43487 0.0
C1061 C 0.41615 0.9824 0.60405 0.0
C1062 C 0.40145 0.98921 0.66761 0.0
H1063 H 0.42795 0.9771 0.43384 0.0
H1064 H 0.42747 0.97698 0.64989 0.0
C1065 C 0.38708 0.99616 0.60465 0.0
C1066 C 0.19482 0.56956 0.64942 0.0
C1067 C 0.17379 0.56154 0.71627 0.0
H1068 H 0.21177 0.5771 0.47655 0.0
C1069 C 0.15322 0.55485 0.65641 0.0
H1070 H 0.21099 0.57492 0.69278 0.0
C1071 C 0.15368 0.55619 0.5324 0.0
C1072 C 0.17472 0.56427 0.46553 0.0
H1073 H 0.13672 0.54862 0.70526 0.0
H1074 H 0.13751 0.55083 0.48908 0.0
C1075 C 0.19528 0.57092 0.52539 0.0
C1076 C 0.62973 0.77423 0.61893 0.0
C1077 C 0.65036 0.79169 0.67541 0.0
H1078 H 0.61361 0.75961 0.45445 0.0
C1079 C 0.67116 0.80777 0.60583 0.0
H1080 H 0.61342 0.76149 0.67007 0.0
C1081 C 0.67131 0.80646 0.48241 0.0
C1082 C 0.65063 0.78925 0.42577 0.0
H1083 H 0.68742 0.82121 0.64667 0.0
H1084 H 0.68768 0.81891 0.43156 0.0
C1085 C 0.62985 0.77306 0.49536 0.0
C1086 C 0.4139 0.57186 0.6108 0.0
C1087 C 0.42818 0.56451 0.67209 0.0
H1088 H 0.40268 0.57782 0.4424 0.0
C1089 C 0.44241 0.55729 0.60693 0.0
H1090 H 0.40273 0.57753 0.65837 0.0
C1091 C 0.4424 0.55747 0.48306 0.0
C1092 C 0.42817 0.56489 0.42173 0.0
H1093 H 0.45359 0.55147 0.6515 0.0
H1094 H 0.45358 0.55181 0.43551 0.0
C1095 C 0.41389 0.57205 0.48693 0.0
C1096 C 0.62631 0.9762 0.6216 0.0
C1097 C 0.64702 0.98286 0.68004 0.0
H1098 H 0.60996 0.97087 0.45535 0.0
C1099 C 0.6677 0.98989 0.6121 0.0
H1100 H 0.61009 0.97073 0.67148 0.0
C1101 C 0.66766 0.99018 0.48832 0.0
C1102 C 0.6469 0.98319 0.42979 0.0
H1103 H 0.684 0.99535 0.65439 0.0
H1104 H 0.68395 0.996 0.4387 0.0
C1105 C 0.62624 0.97629 0.49773 0.0
C1106 C 0.20254 0.77431 0.49612 0.0
C1107 C 0.18127 0.76025 0.43847 0.0
H1108 H 0.21919 0.78696 0.66109 0.0
C1109 C 0.15995 0.74822 0.50684 0.0
H1110 H 0.2193 0.78401 0.44603 0.0
C1111 C 0.1599 0.75008 0.63011 0.0
C1112 C 0.18117 0.76402 0.68784 0.0
H1113 H 0.14325 0.73742 0.46522 0.0
H1114 H 0.14315 0.74042 0.68016 0.0
C1115 C 0.2025 0.77617 0.61942 0.0
loop_
_geom_bond_atom_site_label_1
_geom_bond_atom_site_label_2
_geom_bond_distance
_geom_bond_site_symmetry_2
_ccdc_geom_bond_type
Zn0 O1 2.055 . S
Zn0 O8 2.046 . S
Zn0 N16 2.036 . S
Zn0 O28 2.053 . S
Zn0 O30 2.066 . S
O1 Zn0 2.055 . S
O1 C4 1.259 . S
C2 O30 1.256 . S
C2 O31 1.244 . S
Zn3 O5 2.046 . S
Zn3 O7 2.055 . S
Zn3 N9 2.036 . S
Zn3 O27 2.066 . S
Zn3 O31 2.053 . S
C4 O1 1.259 . S
C4 O5 1.254 . S
O5 Zn3 2.046 . S
O5 C4 1.254 . S
C6 O27 1.256 . S
C6 O28 1.244 . S
O7 Zn3 2.055 . S
O7 C29 1.259 . S
O8 Zn0 2.046 . S
O8 C29 1.254 . S
N9 Zn3 2.036 . S
N9 C10 1.298 . S
N9 N12 1.398 . S
C10 N9 1.298 . S
C10 N13 1.367 . S
C10 C23 1.481 . S
C11 N12 1.299 . S
C11 N13 1.379 . S
N12 N9 1.398 . S
N12 C11 1.299 . S
N13 C10 1.367 . S
N13 C11 1.379 . S
C14 N16 1.298 1_655 S
C14 N18 1.367 . S
C14 C22 1.481 . S
C15 N17 1.299 . S
C15 N18 1.379 1_455 S
N16 Zn0 2.036 . S
N16 C14 1.298 1_455 S
N16 N17 1.398 . S
N17 C15 1.299 . S
N17 N16 1.398 . S
N18 C14 1.367 . S
N18 C15 1.379 1_655 S
H19 C22 0.980 . S
H20 C22 0.981 . S
H21 C22 0.981 . S
C22 C14 1.481 . S
C22 H19 0.980 . S
C22 H20 0.981 . S
C22 H21 0.981 . S
C23 C10 1.481 . S
C23 H24 0.980 . S
C23 H25 0.981 . S
C23 H26 0.981 . S
H24 C23 0.980 . S
H25 C23 0.981 . S
H26 C23 0.981 . S
O27 Zn3 2.066 . S
O27 C6 1.256 . S
O28 Zn0 2.053 . S
O28 C6 1.244 . S
C29 O7 1.259 . S
C29 O8 1.254 . S
O30 Zn0 2.066 . S
O30 C2 1.256 . S
O31 C2 1.244 . S
O31 Zn3 2.053 . S
Zn32 O33 2.055 . S
Zn32 O40 2.046 . S
Zn32 N48 2.036 . S
Zn32 O60 2.053 . S
Zn32 O62 2.066 . S
O33 Zn32 2.055 . S
O33 C36 1.259 . S
C34 O62 1.256 . S
C34 O63 1.244 . S
Zn35 O37 2.046 . S
Zn35 O39 2.055 . S
Zn35 N41 2.036 . S
Zn35 O59 2.066 . S
Zn35 O63 2.053 . S
C36 O33 1.259 . S
C36 O37 1.254 . S
O37 Zn35 2.046 . S
O37 C36 1.254 . S
C38 O59 1.256 . S
C38 O60 1.244 . S
O39 Zn35 2.055 . S
O39 C61 1.259 . S
O40 Zn32 2.046 . S
O40 C61 1.254 . S
N41 Zn35 2.036 . S
N41 C42 1.298 . S
N41 N44 1.398 . S
C42 N41 1.298 . S
C42 N45 1.367 . S
C42 C55 1.481 . S
C43 N44 1.299 . S
C43 N45 1.379 . S
N44 N41 1.398 . S
N44 C43 1.299 . S
N45 C42 1.367 . S
N45 C43 1.379 . S
C46 N48 1.298 . S
C46 N50 1.367 . S
C46 C54 1.481 . S
C47 N49 1.299 . S
C47 N50 1.379 . S
N48 Zn32 2.036 . S
N48 C46 1.298 . S
N48 N49 1.398 . S
N49 C47 1.299 . S
N49 N48 1.398 . S
N50 C46 1.367 . S
N50 C47 1.379 . S
H51 C54 0.980 . S
H52 C54 0.981 . S
H53 C54 0.981 . S
C54 C46 1.481 . S
C54 H51 0.980 . S
C54 H52 0.981 . S
C54 H53 0.981 . S
C55 C42 1.481 . S
C55 H56 0.980 . S
C55 H57 0.981 . S
C55 H58 0.981 . S
H56 C55 0.980 . S
H57 C55 0.981 . S
H58 C55 0.981 . S
O59 Zn35 2.066 . S
O59 C38 1.256 . S
O60 Zn32 2.053 . S
O60 C38 1.244 . S
C61 O39 1.259 . S
C61 O40 1.254 . S
O62 Zn32 2.066 . S
O62 C34 1.256 . S
O63 C34 1.244 . S
O63 Zn35 2.053 . S
Zn64 O65 2.055 . S
Zn64 O72 2.046 . S
Zn64 N80 2.036 . S
Zn64 O92 2.053 . S
Zn64 O94 2.066 . S
O65 Zn64 2.055 . S
O65 C68 1.259 . S
C66 O94 1.256 . S
C66 O95 1.244 . S
Zn67 O69 2.046 . S
Zn67 O71 2.055 . S
Zn67 N73 2.036 . S
Zn67 O91 2.066 . S
Zn67 O95 2.053 . S
C68 O65 1.259 . S
C68 O69 1.254 . S
O69 Zn67 2.046 . S
O69 C68 1.254 . S
C70 O91 1.256 . S
C70 O92 1.244 . S
O71 Zn67 2.055 . S
O71 C93 1.259 . S
O72 Zn64 2.046 . S
O72 C93 1.254 . S
N73 Zn67 2.036 . S
N73 C74 1.298 . S
N73 N76 1.398 . S
C74 N73 1.298 . S
C74 N77 1.367 . S
C74 C87 1.481 . S
C75 N76 1.299 . S
C75 N77 1.379 . S
N76 N73 1.398 . S
N76 C75 1.299 . S
N77 C74 1.367 . S
N77 C75 1.379 . S
C78 N80 1.298 . S
C78 N82 1.367 . S
C78 C86 1.481 . S
C79 N81 1.299 . S
C79 N82 1.379 . S
N80 Zn64 2.036 . S
N80 C78 1.298 . S
N80 N81 1.398 . S
N81 C79 1.299 . S
N81 N80 1.398 . S
N82 C78 1.367 . S
N82 C79 1.379 . S
H83 C86 0.980 . S
H84 C86 0.981 . S
H85 C86 0.981 . S
C86 C78 1.481 . S
C86 H83 0.980 . S
C86 H84 0.981 . S
C86 H85 0.981 . S
C87 C74 1.481 . S
C87 H88 0.980 . S
C87 H89 0.981 . S
C87 H90 0.981 . S
H88 C87 0.980 . S
H89 C87 0.981 . S
H90 C87 0.981 . S
O91 Zn67 2.066 . S
O91 C70 1.256 . S
O92 Zn64 2.053 . S
O92 C70 1.244 . S
C93 O71 1.259 . S
C93 O72 1.254 . S
O94 Zn64 2.066 . S
O94 C66 1.256 . S
O95 C66 1.244 . S
O95 Zn67 2.053 . S
Zn96 O97 2.055 . S
Zn96 O104 2.046 . S
Zn96 N112 2.036 . S
Zn96 O124 2.053 . S
Zn96 O126 2.066 . S
O97 Zn96 2.055 . S
O97 C100 1.259 . S
C98 O126 1.256 . S
C98 O127 1.244 . S
Zn99 O101 2.046 . S
Zn99 O103 2.055 . S
Zn99 N105 2.036 . S
Zn99 O123 2.066 . S
Zn99 O127 2.053 . S
C100 O97 1.259 . S
C100 O101 1.254 . S
O101 Zn99 2.046 . S
O101 C100 1.254 . S
C102 O123 1.256 . S
C102 O124 1.244 . S
O103 Zn99 2.055 . S
O103 C125 1.259 . S
O104 Zn96 2.046 . S
O104 C125 1.254 . S
N105 Zn99 2.036 . S
N105 C106 1.298 . S
N105 N108 1.398 . S
C106 N105 1.298 . S
C106 N109 1.367 . S
C106 C119 1.481 . S
C107 N108 1.299 . S
C107 N109 1.379 . S
N108 N105 1.398 . S
N108 C107 1.299 . S
N109 C106 1.367 . S
N109 C107 1.379 . S
C110 N112 1.298 . S
C110 N114 1.367 . S
C110 C118 1.481 . S
C111 N113 1.299 . S
C111 N114 1.379 . S
N112 Zn96 2.036 . S
N112 C110 1.298 . S
N112 N113 1.398 . S
N113 C111 1.299 . S
N113 N112 1.398 . S
N114 C110 1.367 . S
N114 C111 1.379 . S
H115 C118 0.980 . S
H116 C118 0.981 . S
H117 C118 0.981 . S
C118 C110 1.481 . S
C118 H115 0.980 . S
C118 H116 0.981 . S
C118 H117 0.981 . S
C119 C106 1.481 . S
C119 H120 0.980 . S
C119 H121 0.981 . S
C119 H122 0.981 . S
H120 C119 0.980 . S
H121 C119 0.981 . S
H122 C119 0.981 . S
O123 Zn99 2.066 . S
O123 C102 1.256 . S
O124 Zn96 2.053 . S
O124 C102 1.244 . S
C125 O103 1.259 . S
C125 O104 1.254 . S
O126 Zn96 2.066 . S
O126 C98 1.256 . S
O127 C98 1.244 . S
O127 Zn99 2.053 . S
Zn128 O129 2.055 . S
Zn128 O136 2.046 . S
Zn128 N144 2.036 . S
Zn128 O156 2.053 . S
Zn128 O158 2.066 . S
O129 Zn128 2.055 . S
O129 C132 1.259 . S
C130 O158 1.256 . S
C130 O159 1.244 . S
Zn131 O133 2.046 . S
Zn131 O135 2.055 . S
Zn131 N137 2.036 . S
Zn131 O155 2.066 . S
Zn131 O159 2.053 . S
C132 O129 1.259 . S
C132 O133 1.254 . S
O133 Zn131 2.046 . S
O133 C132 1.254 . S
C134 O155 1.256 . S
C134 O156 1.244 . S
O135 Zn131 2.055 . S
O135 C157 1.259 . S
O136 Zn128 2.046 . S
O136 C157 1.254 . S
N137 Zn131 2.036 . S
N137 C138 1.298 . S
N137 N140 1.398 . S
C138 N137 1.298 . S
C138 N141 1.367 . S
C138 C151 1.481 . S
C139 N140 1.299 . S
C139 N141 1.379 . S
N140 N137 1.398 . S
N140 C139 1.299 . S
N141 C138 1.367 . S
N141 C139 1.379 . S
C142 N144 1.298 . S
C142 N146 1.367 . S
C142 C150 1.481 . S
C143 N145 1.299 . S
C143 N146 1.379 . S
N144 Zn128 2.036 . S
N144 C142 1.298 . S
N144 N145 1.398 . S
N145 C143 1.299 . S
N145 N144 1.398 . S
N146 C142 1.367 . S
N146 C143 1.379 . S
H147 C150 0.980 . S
H148 C150 0.981 . S
H149 C150 0.981 . S
C150 C142 1.481 . S
C150 H147 0.980 . S
C150 H148 0.981 . S
C150 H149 0.981 . S
C151 C138 1.481 . S
C151 H152 0.980 . S
C151 H153 0.981 . S
C151 H154 0.981 . S
H152 C151 0.980 . S
H153 C151 0.981 . S
H154 C151 0.981 . S
O155 Zn131 2.066 . S
O155 C134 1.256 . S
O156 Zn128 2.053 . S
O156 C134 1.244 . S
C157 O135 1.259 . S
C157 O136 1.254 . S
O158 Zn128 2.066 . S
O158 C130 1.256 . S
O159 C130 1.244 . S
O159 Zn131 2.053 . S
Zn160 O161 2.055 . S
Zn160 O168 2.046 . S
Zn160 N176 2.036 . S
Zn160 O188 2.053 . S
Zn160 O190 2.066 . S
O161 Zn160 2.055 . S
O161 C164 1.259 . S
C162 O190 1.256 . S
C162 O191 1.244 . S
Zn163 O165 2.046 . S
Zn163 O167 2.055 . S
Zn163 N169 2.036 . S
Zn163 O187 2.066 . S
Zn163 O191 2.053 . S
C164 O161 1.259 . S
C164 O165 1.254 . S
O165 Zn163 2.046 . S
O165 C164 1.254 . S
C166 O187 1.256 . S
C166 O188 1.244 . S
O167 Zn163 2.055 . S
O167 C189 1.259 . S
O168 Zn160 2.046 . S
O168 C189 1.254 . S
N169 Zn163 2.036 . S
N169 C170 1.298 . S
N169 N172 1.398 . S
C170 N169 1.298 . S
C170 N173 1.367 . S
C170 C183 1.481 . S
C171 N172 1.299 . S
C171 N173 1.379 . S
N172 N169 1.398 . S
N172 C171 1.299 . S
N173 C170 1.367 . S
N173 C171 1.379 . S
C174 N176 1.298 . S
C174 N178 1.367 . S
C174 C182 1.481 . S
C175 N177 1.299 . S
C175 N178 1.379 . S
N176 Zn160 2.036 . S
N176 C174 1.298 . S
N176 N177 1.398 . S
N177 C175 1.299 . S
N177 N176 1.398 . S
N178 C174 1.367 . S
N178 C175 1.379 . S
H179 C182 0.980 . S
H180 C182 0.981 1_565 S
H181 C182 0.981 . S
C182 C174 1.481 . S
C182 H179 0.980 . S
C182 H180 0.981 1_545 S
C182 H181 0.981 . S
C183 C170 1.481 . S
C183 H184 0.980 . S
C183 H185 0.981 . S
C183 H186 0.981 . S
H184 C183 0.980 . S
H185 C183 0.981 . S
H186 C183 0.981 . S
O187 Zn163 2.066 . S
O187 C166 1.256 . S
O188 Zn160 2.053 . S
O188 C166 1.244 . S
C189 O167 1.259 . S
C189 O168 1.254 . S
O190 Zn160 2.066 . S
O190 C162 1.256 . S
O191 C162 1.244 . S
O191 Zn163 2.053 . S
Zn192 O193 2.055 1_556 S
Zn192 O200 2.046 . S
Zn192 N208 2.036 . S
Zn192 O220 2.053 . S
Zn192 O222 2.066 . S
O193 Zn192 2.055 1_554 S
O193 C196 1.259 . S
C194 O222 1.256 . S
C194 O223 1.244 . S
Zn195 O197 2.046 1_556 S
Zn195 O199 2.055 . S
Zn195 N201 2.036 . S
Zn195 O219 2.066 . S
Zn195 O223 2.053 . S
C196 O193 1.259 . S
C196 O197 1.254 . S
O197 Zn195 2.046 1_554 S
O197 C196 1.254 . S
C198 O219 1.256 . S
C198 O220 1.244 . S
O199 Zn195 2.055 . S
O199 C221 1.259 . S
O200 Zn192 2.046 . S
O200 C221 1.254 . S
N201 Zn195 2.036 . S
N201 C202 1.298 . S
N201 N204 1.398 . S
C202 N201 1.298 . S
C202 N205 1.367 . S
C202 C215 1.481 . S
C203 N204 1.299 . S
C203 N205 1.379 . S
N204 N201 1.398 . S
N204 C203 1.299 . S
N205 C202 1.367 . S
N205 C203 1.379 . S
C206 N208 1.298 1_554 S
C206 N210 1.367 1_554 S
C206 C214 1.481 . S
C207 N209 1.299 . S
C207 N210 1.379 . S
N208 Zn192 2.036 . S
N208 C206 1.298 1_556 S
N208 N209 1.398 . S
N209 C207 1.299 . S
N209 N208 1.398 . S
N210 C206 1.367 1_556 S
N210 C207 1.379 . S
H211 C214 0.980 . S
H212 C214 0.981 . S
H213 C214 0.981 . S
C214 C206 1.481 . S
C214 H211 0.980 . S
C214 H212 0.981 . S
C214 H213 0.981 . S
C215 C202 1.481 . S
C215 H216 0.980 . S
C215 H217 0.981 . S
C215 H218 0.981 . S
H216 C215 0.980 . S
H217 C215 0.981 . S
H218 C215 0.981 . S
O219 Zn195 2.066 . S
O219 C198 1.256 . S
O220 Zn192 2.053 . S
O220 C198 1.244 . S
C221 O199 1.259 . S
C221 O200 1.254 . S
O222 Zn192 2.066 . S
O222 C194 1.256 . S
O223 C194 1.244 . S
O223 Zn195 2.053 . S
Zn224 O225 2.055 . S
Zn224 O232 2.046 1_556 S
Zn224 N240 2.036 . S
Zn224 O252 2.053 . S
Zn224 O254 2.066 . S
O225 Zn224 2.055 . S
O225 C228 1.259 . S
C226 O254 1.256 . S
C226 O255 1.244 . S
Zn227 O229 2.046 . S
Zn227 O231 2.055 1_556 S
Zn227 N233 2.036 . S
Zn227 O251 2.066 . S
Zn227 O255 2.053 . S
C228 O225 1.259 . S
C228 O229 1.254 . S
O229 Zn227 2.046 . S
O229 C228 1.254 . S
C230 O251 1.256 . S
C230 O252 1.244 . S
O231 Zn227 2.055 1_554 S
O231 C253 1.259 . S
O232 Zn224 2.046 1_554 S
O232 C253 1.254 . S
N233 Zn227 2.036 . S
N233 C234 1.298 . S
N233 N236 1.398 . S
C234 N233 1.298 . S
C234 N237 1.367 . S
C234 C247 1.481 1_556 S
C235 N236 1.299 . S
C235 N237 1.379 . S
N236 N233 1.398 . S
N236 C235 1.299 . S
N237 C234 1.367 . S
N237 C235 1.379 . S
C238 N240 1.298 . S
C238 N242 1.367 . S
C238 C246 1.481 . S
C239 N241 1.299 . S
C239 N242 1.379 . S
N240 Zn224 2.036 . S
N240 C238 1.298 . S
N240 N241 1.398 . S
N241 C239 1.299 . S
N241 N240 1.398 . S
N242 C238 1.367 . S
N242 C239 1.379 . S
H243 C246 0.980 . S
H244 C246 0.981 . S
H245 C246 0.981 . S
C246 C238 1.481 . S
C246 H243 0.980 . S
C246 H244 0.981 . S
C246 H245 0.981 . S
C247 C234 1.481 1_554 S
C247 H248 0.980 . S
C247 H249 0.981 . S
C247 H250 0.981 . S
H248 C247 0.980 . S
H249 C247 0.981 . S
H250 C247 0.981 . S
O251 Zn227 2.066 . S
O251 C230 1.256 . S
O252 Zn224 2.053 . S
O252 C230 1.244 . S
C253 O231 1.259 . S
C253 O232 1.254 . S
O254 Zn224 2.066 . S
O254 C226 1.256 . S
O255 C226 1.244 . S
O255 Zn227 2.053 . S
Zn256 O257 2.055 . S
Zn256 O264 2.046 1_556 S
Zn256 N272 2.036 . S
Zn256 O284 2.053 . S
Zn256 O286 2.066 . S
O257 Zn256 2.055 . S
O257 C260 1.259 . S
C258 O286 1.256 . S
C258 O287 1.244 . S
Zn259 O261 2.046 . S
Zn259 O263 2.055 1_556 S
Zn259 N265 2.036 . S
Zn259 O283 2.066 . S
Zn259 O287 2.053 . S
C260 O257 1.259 . S
C260 O261 1.254 . S
O261 Zn259 2.046 . S
O261 C260 1.254 . S
C262 O283 1.256 . S
C262 O284 1.244 . S
O263 Zn259 2.055 1_554 S
O263 C285 1.259 . S
O264 Zn256 2.046 1_554 S
O264 C285 1.254 . S
N265 Zn259 2.036 . S
N265 C266 1.298 1_556 S
N265 N268 1.398 . S
C266 N265 1.298 1_554 S
C266 N269 1.367 1_554 S
C266 C279 1.481 . S
C267 N268 1.299 . S
C267 N269 1.379 . S
N268 N265 1.398 . S
N268 C267 1.299 . S
N269 C266 1.367 1_556 S
N269 C267 1.379 . S
C270 N272 1.298 . S
C270 N274 1.367 . S
C270 C278 1.481 . S
C271 N273 1.299 . S
C271 N274 1.379 . S
N272 Zn256 2.036 . S
N272 C270 1.298 . S
N272 N273 1.398 . S
N273 C271 1.299 . S
N273 N272 1.398 . S
N274 C270 1.367 . S
N274 C271 1.379 . S
H275 C278 0.980 . S
H276 C278 0.981 . S
H277 C278 0.981 . S
C278 C270 1.481 . S
C278 H275 0.980 . S
C278 H276 0.981 . S
C278 H277 0.981 . S
C279 C266 1.481 . S
C279 H280 0.980 . S
C279 H281 0.981 . S
C279 H282 0.981 . S
H280 C279 0.980 . S
H281 C279 0.981 . S
H282 C279 0.981 . S
O283 Zn259 2.066 . S
O283 C262 1.256 . S
O284 Zn256 2.053 . S
O284 C262 1.244 . S
C285 O263 1.259 . S
C285 O264 1.254 . S
O286 Zn256 2.066 . S
O286 C258 1.256 . S
O287 C258 1.244 . S
O287 Zn259 2.053 . S
Zn288 O289 2.055 1_556 S
Zn288 O296 2.046 . S
Zn288 N304 2.036 . S
Zn288 O316 2.053 . S
Zn288 O318 2.066 . S
O289 Zn288 2.055 1_554 S
O289 C292 1.259 . S
C290 O318 1.256 . S
C290 O319 1.244 . S
Zn291 O293 2.046 1_556 S
Zn291 O295 2.055 . S
Zn291 N297 2.036 . S
Zn291 O315 2.066 . S
Zn291 O319 2.053 . S
C292 O289 1.259 . S
C292 O293 1.254 . S
O293 Zn291 2.046 1_554 S
O293 C292 1.254 . S
C294 O315 1.256 . S
C294 O316 1.244 . S
O295 Zn291 2.055 . S
O295 C317 1.259 . S
O296 Zn288 2.046 . S
O296 C317 1.254 . S
N297 Zn291 2.036 . S
N297 C298 1.298 . S
N297 N300 1.398 . S
C298 N297 1.298 . S
C298 N301 1.367 . S
C298 C311 1.481 . S
C299 N300 1.299 . S
C299 N301 1.379 . S
N300 N297 1.398 . S
N300 C299 1.299 . S
N301 C298 1.367 . S
N301 C299 1.379 . S
C302 N304 1.298 . S
C302 N306 1.367 . S
C302 C310 1.481 1_556 S
C303 N305 1.299 . S
C303 N306 1.379 . S
N304 Zn288 2.036 . S
N304 C302 1.298 . S
N304 N305 1.398 . S
N305 C303 1.299 . S
N305 N304 1.398 . S
N306 C302 1.367 . S
N306 C303 1.379 . S
H307 C310 0.980 . S
H308 C310 0.981 . S
H309 C310 0.981 . S
C310 C302 1.481 1_554 S
C310 H307 0.980 . S
C310 H308 0.981 . S
C310 H309 0.981 . S
C311 C298 1.481 . S
C311 H312 0.980 . S
C311 H313 0.981 . S
C311 H314 0.981 . S
H312 C311 0.980 . S
H313 C311 0.981 . S
H314 C311 0.981 . S
O315 Zn291 2.066 . S
O315 C294 1.256 . S
O316 Zn288 2.053 . S
O316 C294 1.244 . S
C317 O295 1.259 . S
C317 O296 1.254 . S
O318 Zn288 2.066 . S
O318 C290 1.256 . S
O319 C290 1.244 . S
O319 Zn291 2.053 . S
Zn320 O321 2.055 1_556 S
Zn320 O328 2.046 . S
Zn320 N336 2.036 . S
Zn320 O348 2.053 . S
Zn320 O350 2.066 . S
O321 Zn320 2.055 1_554 S
O321 C324 1.259 . S
C322 O350 1.256 . S
C322 O351 1.244 . S
Zn323 O325 2.046 1_556 S
Zn323 O327 2.055 . S
Zn323 N329 2.036 . S
Zn323 O347 2.066 . S
Zn323 O351 2.053 . S
C324 O321 1.259 . S
C324 O325 1.254 . S
O325 Zn323 2.046 1_554 S
O325 C324 1.254 . S
C326 O347 1.256 . S
C326 O348 1.244 . S
O327 Zn323 2.055 . S
O327 C349 1.259 . S
O328 Zn320 2.046 . S
O328 C349 1.254 . S
N329 Zn323 2.036 . S
N329 C330 1.298 . S
N329 N332 1.398 . S
C330 N329 1.298 . S
C330 N333 1.367 . S
C330 C343 1.481 . S
C331 N332 1.299 . S
C331 N333 1.379 . S
N332 N329 1.398 . S
N332 C331 1.299 . S
N333 C330 1.367 . S
N333 C331 1.379 . S
C334 N336 1.298 1_554 S
C334 N338 1.367 1_554 S
C334 C342 1.481 . S
C335 N337 1.299 . S
C335 N338 1.379 . S
N336 Zn320 2.036 . S
N336 C334 1.298 1_556 S
N336 N337 1.398 . S
N337 C335 1.299 . S
N337 N336 1.398 . S
N338 C334 1.367 1_556 S
N338 C335 1.379 . S
H339 C342 0.980 . S
H340 C342 0.981 . S
H341 C342 0.981 . S
C342 C334 1.481 . S
C342 H339 0.980 . S
C342 H340 0.981 . S
C342 H341 0.981 . S
C343 C330 1.481 . S
C343 H344 0.980 . S
C343 H345 0.981 . S
C343 H346 0.981 . S
H344 C343 0.980 . S
H345 C343 0.981 . S
H346 C343 0.981 . S
O347 Zn323 2.066 . S
O347 C326 1.256 . S
O348 Zn320 2.053 . S
O348 C326 1.244 . S
C349 O327 1.259 . S
C349 O328 1.254 . S
O350 Zn320 2.066 . S
O350 C322 1.256 . S
O351 C322 1.244 . S
O351 Zn323 2.053 . S
Zn352 O353 2.055 1_556 S
Zn352 O360 2.046 . S
Zn352 N368 2.036 . S
Zn352 O380 2.053 . S
Zn352 O382 2.066 . S
O353 Zn352 2.055 1_554 S
O353 C356 1.259 . S
C354 O382 1.256 . S
C354 O383 1.244 . S
Zn355 O357 2.046 1_556 S
Zn355 O359 2.055 . S
Zn355 N361 2.036 . S
Zn355 O379 2.066 . S
Zn355 O383 2.053 . S
C356 O353 1.259 . S
C356 O357 1.254 . S
O357 Zn355 2.046 1_554 S
O357 C356 1.254 . S
C358 O379 1.256 . S
C358 O380 1.244 . S
O359 Zn355 2.055 . S
O359 C381 1.259 . S
O360 Zn352 2.046 . S
O360 C381 1.254 . S
N361 Zn355 2.036 . S
N361 C362 1.298 . S
N361 N364 1.398 . S
C362 N361 1.298 . S
C362 N365 1.367 . S
C362 C375 1.481 . S
C363 N364 1.299 . S
C363 N365 1.379 . S
N364 N361 1.398 . S
N364 C363 1.299 . S
N365 C362 1.367 . S
N365 C363 1.379 . S
C366 N368 1.298 . S
C366 N370 1.367 . S
C366 C374 1.481 1_556 S
C367 N369 1.299 . S
C367 N370 1.379 . S
N368 Zn352 2.036 . S
N368 C366 1.298 . S
N368 N369 1.398 . S
N369 C367 1.299 . S
N369 N368 1.398 . S
N370 C366 1.367 . S
N370 C367 1.379 . S
H371 C374 0.980 . S
H372 C374 0.981 . S
H373 C374 0.981 . S
C374 C366 1.481 1_554 S
C374 H371 0.980 . S
C374 H372 0.981 . S
C374 H373 0.981 . S
C375 C362 1.481 . S
C375 H376 0.980 . S
C375 H377 0.981 . S
C375 H378 0.981 . S
H376 C375 0.980 . S
H377 C375 0.981 . S
H378 C375 0.981 . S
O379 Zn355 2.066 . S
O379 C358 1.256 . S
O380 Zn352 2.053 . S
O380 C358 1.244 . S
C381 O359 1.259 . S
C381 O360 1.254 . S
O382 Zn352 2.066 . S
O382 C354 1.256 . S
O383 C354 1.244 . S
O383 Zn355 2.053 . S
Zn384 O385 2.055 1_545 S
Zn384 O392 2.046 1_544 S
Zn384 N400 2.036 . S
Zn384 O412 2.053 . S
Zn384 O414 2.066 . S
O385 Zn384 2.055 1_565 S
O385 C388 1.259 . S
C386 O414 1.256 1_565 S
C386 O415 1.244 . S
Zn387 O389 2.046 . S
Zn387 O391 2.055 1_554 S
Zn387 N393 2.036 . S
Zn387 O411 2.066 1_565 S
Zn387 O415 2.053 . S
C388 O385 1.259 . S
C388 O389 1.254 . S
O389 Zn387 2.046 . S
O389 C388 1.254 . S
C390 O411 1.256 . S
C390 O412 1.244 . S
O391 Zn387 2.055 1_556 S
O391 C413 1.259 . S
O392 Zn384 2.046 1_566 S
O392 C413 1.254 . S
N393 Zn387 2.036 . S
N393 C394 1.298 . S
N393 N396 1.398 . S
C394 N393 1.298 . S
C394 N397 1.367 . S
C394 C407 1.481 1_554 S
C395 N396 1.299 . S
C395 N397 1.379 . S
N396 N393 1.398 . S
N396 C395 1.299 . S
N397 C394 1.367 . S
N397 C395 1.379 . S
C398 N400 1.298 . S
C398 N402 1.367 . S
C398 C406 1.481 1_545 S
C399 N401 1.299 . S
C399 N402 1.379 . S
N400 Zn384 2.036 . S
N400 C398 1.298 . S
N400 N401 1.398 . S
N401 C399 1.299 . S
N401 N400 1.398 . S
N402 C398 1.367 . S
N402 C399 1.379 . S
H403 C406 0.980 . S
H404 C406 0.981 . S
H405 C406 0.981 . S
C406 C398 1.481 1_565 S
C406 H403 0.980 . S
C406 H404 0.981 . S
C406 H405 0.981 . S
C407 C394 1.481 1_556 S
C407 H408 0.980 . S
C407 H409 0.981 . S
C407 H410 0.981 1_565 S
H408 C407 0.980 . S
H409 C407 0.981 . S
H410 C407 0.981 1_545 S
O411 Zn387 2.066 1_545 S
O411 C390 1.256 . S
O412 Zn384 2.053 . S
O412 C390 1.244 . S
C413 O391 1.259 . S
C413 O392 1.254 . S
O414 Zn384 2.066 . S
O414 C386 1.256 1_545 S
O415 C386 1.244 . S
O415 Zn387 2.053 . S
Zn416 O417 2.055 . S
Zn416 O424 2.046 . S
Zn416 N432 2.036 . S
Zn416 O444 2.053 . S
Zn416 O446 2.066 . S
O417 Zn416 2.055 . S
O417 C420 1.259 . S
C418 O446 1.256 1_556 S
C418 O447 1.244 1_556 S
Zn419 O421 2.046 . S
Zn419 O423 2.055 . S
Zn419 N425 2.036 . S
Zn419 O443 2.066 . S
Zn419 O447 2.053 . S
C420 O417 1.259 . S
C420 O421 1.254 . S
O421 Zn419 2.046 . S
O421 C420 1.254 . S
C422 O443 1.256 . S
C422 O444 1.244 . S
O423 Zn419 2.055 . S
O423 C445 1.259 . S
O424 Zn416 2.046 . S
O424 C445 1.254 . S
N425 Zn419 2.036 . S
N425 C426 1.298 . S
N425 N428 1.398 . S
C426 N425 1.298 . S
C426 N429 1.367 . S
C426 C439 1.481 . S
C427 N428 1.299 . S
C427 N429 1.379 . S
N428 N425 1.398 . S
N428 C427 1.299 . S
N429 C426 1.367 . S
N429 C427 1.379 . S
C430 N432 1.298 . S
C430 N434 1.367 . S
C430 C438 1.481 . S
C431 N433 1.299 . S
C431 N434 1.379 . S
N432 Zn416 2.036 . S
N432 C430 1.298 . S
N432 N433 1.398 . S
N433 C431 1.299 . S
N433 N432 1.398 . S
N434 C430 1.367 . S
N434 C431 1.379 . S
H435 C438 0.980 . S
H436 C438 0.981 . S
H437 C438 0.981 1_556 S
C438 C430 1.481 . S
C438 H435 0.980 . S
C438 H436 0.981 . S
C438 H437 0.981 1_554 S
C439 C426 1.481 . S
C439 H440 0.980 . S
C439 H441 0.981 . S
C439 H442 0.981 . S
H440 C439 0.980 . S
H441 C439 0.981 . S
H442 C439 0.981 . S
O443 Zn419 2.066 . S
O443 C422 1.256 . S
O444 Zn416 2.053 . S
O444 C422 1.244 . S
C445 O423 1.259 . S
C445 O424 1.254 . S
O446 Zn416 2.066 . S
O446 C418 1.256 1_554 S
O447 C418 1.244 1_554 S
O447 Zn419 2.053 . S
Zn448 O449 2.055 1_554 S
Zn448 O456 2.046 . S
Zn448 N464 2.036 . S
Zn448 O476 2.053 . S
Zn448 O478 2.066 . S
O449 Zn448 2.055 1_556 S
O449 C452 1.259 . S
C450 O478 1.256 . S
C450 O479 1.244 . S
Zn451 O453 2.046 1_554 S
Zn451 O455 2.055 . S
Zn451 N457 2.036 . S
Zn451 O475 2.066 . S
Zn451 O479 2.053 . S
C452 O449 1.259 . S
C452 O453 1.254 . S
O453 Zn451 2.046 1_556 S
O453 C452 1.254 . S
C454 O475 1.256 . S
C454 O476 1.244 . S
O455 Zn451 2.055 . S
O455 C477 1.259 . S
O456 Zn448 2.046 . S
O456 C477 1.254 . S
N457 Zn451 2.036 . S
N457 C458 1.298 . S
N457 N460 1.398 . S
C458 N457 1.298 . S
C458 N461 1.367 . S
C458 C471 1.481 . S
C459 N460 1.299 . S
C459 N461 1.379 . S
N460 N457 1.398 . S
N460 C459 1.299 . S
N461 C458 1.367 . S
N461 C459 1.379 . S
C462 N464 1.298 . S
C462 N466 1.367 . S
C462 C470 1.481 1_554 S
C463 N465 1.299 . S
C463 N466 1.379 . S
N464 Zn448 2.036 . S
N464 C462 1.298 . S
N464 N465 1.398 . S
N465 C463 1.299 . S
N465 N464 1.398 . S
N466 C462 1.367 . S
N466 C463 1.379 . S
H467 C470 0.980 . S
H468 C470 0.981 . S
H469 C470 0.981 . S
C470 C462 1.481 1_556 S
C470 H467 0.980 . S
C470 H468 0.981 . S
C470 H469 0.981 . S
C471 C458 1.481 . S
C471 H472 0.980 . S
C471 H473 0.981 . S
C471 H474 0.981 . S
H472 C471 0.980 . S
H473 C471 0.981 . S
H474 C471 0.981 . S
O475 Zn451 2.066 . S
O475 C454 1.256 . S
O476 Zn448 2.053 . S
O476 C454 1.244 . S
C477 O455 1.259 . S
C477 O456 1.254 . S
O478 Zn448 2.066 . S
O478 C450 1.256 . S
O479 C450 1.244 . S
O479 Zn451 2.053 . S
Zn480 O481 2.055 . S
Zn480 O488 2.046 . S
Zn480 N496 2.036 . S
Zn480 O508 2.053 . S
Zn480 O510 2.066 1_554 S
O481 Zn480 2.055 . S
O481 C484 1.259 . S
C482 O510 1.256 . S
C482 O511 1.244 . S
Zn483 O485 2.046 . S
Zn483 O487 2.055 . S
Zn483 N489 2.036 . S
Zn483 O507 2.066 . S
Zn483 O511 2.053 1_554 S
C484 O481 1.259 . S
C484 O485 1.254 . S
O485 Zn483 2.046 . S
O485 C484 1.254 . S
C486 O507 1.256 . S
C486 O508 1.244 . S
O487 Zn483 2.055 . S
O487 C509 1.259 . S
O488 Zn480 2.046 . S
O488 C509 1.254 . S
N489 Zn483 2.036 . S
N489 C490 1.298 . S
N489 N492 1.398 . S
C490 N489 1.298 . S
C490 N493 1.367 . S
C490 C503 1.481 . S
C491 N492 1.299 . S
C491 N493 1.379 . S
N492 N489 1.398 . S
N492 C491 1.299 . S
N493 C490 1.367 . S
N493 C491 1.379 . S
C494 N496 1.298 . S
C494 N498 1.367 . S
C494 C502 1.481 . S
C495 N497 1.299 . S
C495 N498 1.379 . S
N496 Zn480 2.036 . S
N496 C494 1.298 . S
N496 N497 1.398 . S
N497 C495 1.299 . S
N497 N496 1.398 . S
N498 C494 1.367 . S
N498 C495 1.379 . S
H499 C502 0.980 . S
H500 C502 0.981 . S
H501 C502 0.981 1_556 S
C502 C494 1.481 . S
C502 H499 0.980 . S
C502 H500 0.981 . S
C502 H501 0.981 1_554 S
C503 C490 1.481 . S
C503 H504 0.980 . S
C503 H505 0.981 . S
C503 H506 0.981 . S
H504 C503 0.980 . S
H505 C503 0.981 . S
H506 C503 0.981 . S
O507 Zn483 2.066 . S
O507 C486 1.256 . S
O508 Zn480 2.053 . S
O508 C486 1.244 . S
C509 O487 1.259 . S
C509 O488 1.254 . S
O510 Zn480 2.066 1_556 S
O510 C482 1.256 . S
O511 C482 1.244 . S
O511 Zn483 2.053 1_556 S
Zn512 O513 2.055 . S
Zn512 O520 2.046 1_554 S
Zn512 N528 2.036 . S
Zn512 O540 2.053 1_565 S
Zn512 O542 2.066 . S
O513 Zn512 2.055 . S
O513 C516 1.259 . S
C514 O542 1.256 . S
C514 O543 1.244 . S
Zn515 O517 2.046 . S
Zn515 O519 2.055 1_554 S
Zn515 N521 2.036 . S
Zn515 O539 2.066 . S
Zn515 O543 2.053 . S
C516 O513 1.259 . S
C516 O517 1.254 . S
O517 Zn515 2.046 . S
O517 C516 1.254 . S
C518 O539 1.256 1_545 S
C518 O540 1.244 . S
O519 Zn515 2.055 1_556 S
O519 C541 1.259 . S
O520 Zn512 2.046 1_556 S
O520 C541 1.254 . S
N521 Zn515 2.036 . S
N521 C522 1.298 . S
N521 N524 1.398 . S
C522 N521 1.298 . S
C522 N525 1.367 . S
C522 C535 1.481 1_554 S
C523 N524 1.299 . S
C523 N525 1.379 . S
N524 N521 1.398 . S
N524 C523 1.299 . S
N525 C522 1.367 . S
N525 C523 1.379 . S
C526 N528 1.298 . S
C526 N530 1.367 . S
C526 C534 1.481 . S
C527 N529 1.299 . S
C527 N530 1.379 1_545 S
N528 Zn512 2.036 . S
N528 C526 1.298 . S
N528 N529 1.398 1_565 S
N529 C527 1.299 . S
N529 N528 1.398 1_545 S
N530 C526 1.367 . S
N530 C527 1.379 1_565 S
H531 C534 0.980 . S
H532 C534 0.981 . S
H533 C534 0.981 . S
C534 C526 1.481 . S
C534 H531 0.980 . S
C534 H532 0.981 . S
C534 H533 0.981 . S
C535 C522 1.481 1_556 S
C535 H536 0.980 . S
C535 H537 0.981 . S
C535 H538 0.981 . S
H536 C535 0.980 . S
H537 C535 0.981 . S
H538 C535 0.981 . S
O539 Zn515 2.066 . S
O539 C518 1.256 1_565 S
O540 Zn512 2.053 1_545 S
O540 C518 1.244 . S
C541 O519 1.259 . S
C541 O520 1.254 . S
O542 Zn512 2.066 . S
O542 C514 1.256 . S
O543 C514 1.244 . S
O543 Zn515 2.053 . S
Zn544 O545 2.055 . S
Zn544 O552 2.046 . S
Zn544 N560 2.036 . S
Zn544 O572 2.053 . S
Zn544 O574 2.066 . S
O545 Zn544 2.055 . S
O545 C548 1.259 . S
C546 O574 1.256 . S
C546 O575 1.244 . S
Zn547 O549 2.046 . S
Zn547 O551 2.055 . S
Zn547 N553 2.036 . S
Zn547 O571 2.066 . S
Zn547 O575 2.053 . S
C548 O545 1.259 . S
C548 O549 1.254 . S
O549 Zn547 2.046 . S
O549 C548 1.254 . S
C550 O571 1.256 1_556 S
C550 O572 1.244 1_556 S
O551 Zn547 2.055 . S
O551 C573 1.259 . S
O552 Zn544 2.046 . S
O552 C573 1.254 . S
N553 Zn547 2.036 . S
N553 C554 1.298 . S
N553 N556 1.398 . S
C554 N553 1.298 . S
C554 N557 1.367 . S
C554 C567 1.481 . S
C555 N556 1.299 . S
C555 N557 1.379 . S
N556 N553 1.398 . S
N556 C555 1.299 . S
N557 C554 1.367 . S
N557 C555 1.379 . S
C558 N560 1.298 . S
C558 N562 1.367 . S
C558 C566 1.481 . S
C559 N561 1.299 . S
C559 N562 1.379 . S
N560 Zn544 2.036 . S
N560 C558 1.298 . S
N560 N561 1.398 . S
N561 C559 1.299 . S
N561 N560 1.398 . S
N562 C558 1.367 . S
N562 C559 1.379 . S
H563 C566 0.980 . S
H564 C566 0.981 . S
H565 C566 0.981 . S
C566 C558 1.481 . S
C566 H563 0.980 . S
C566 H564 0.981 . S
C566 H565 0.981 . S
C567 C554 1.481 . S
C567 H568 0.980 . S
C567 H569 0.981 . S
C567 H570 0.981 1_554 S
H568 C567 0.980 . S
H569 C567 0.981 . S
H570 C567 0.981 1_556 S
O571 Zn547 2.066 . S
O571 C550 1.256 1_554 S
O572 Zn544 2.053 . S
O572 C550 1.244 1_554 S
C573 O551 1.259 . S
C573 O552 1.254 . S
O574 Zn544 2.066 . S
O574 C546 1.256 . S
O575 C546 1.244 . S
O575 Zn547 2.053 . S
C576 C577 1.387 . S
C576 H580 0.950 . S
C576 C585 1.390 . S
C577 C576 1.387 . S
C577 C579 1.387 . S
H578 C585 0.950 . S
C579 C577 1.387 . S
C579 C581 1.390 . S
C579 H583 0.950 . S
H580 C576 0.950 . S
C581 C579 1.390 . S
C581 C582 1.387 . S
C581 H584 0.950 . S
C582 C581 1.387 . S
C582 C585 1.387 . S
H583 C579 0.950 . S
H584 C581 0.950 . S
C585 C576 1.390 . S
C585 H578 0.950 . S
C585 C582 1.387 . S
C586 C587 1.387 . S
C586 H590 0.950 . S
C586 C595 1.390 . S
C587 C586 1.387 . S
C587 C589 1.387 . S
H588 C595 0.950 . S
C589 C587 1.387 . S
C589 C591 1.390 . S
C589 H593 0.950 . S
H590 C586 0.950 . S
C591 C589 1.390 . S
C591 C592 1.387 . S
C591 H594 0.950 . S
C592 C591 1.387 . S
C592 C595 1.387 . S
H593 C589 0.950 . S
H594 C591 0.950 . S
C595 C586 1.390 . S
C595 H588 0.950 . S
C595 C592 1.387 . S
C596 C597 1.387 . S
C596 H600 0.950 . S
C596 C605 1.390 . S
C597 C596 1.387 . S
C597 C599 1.387 . S
H598 C605 0.950 . S
C599 C597 1.387 . S
C599 C601 1.390 . S
C599 H603 0.950 . S
H600 C596 0.950 . S
C601 C599 1.390 . S
C601 C602 1.387 . S
C601 H604 0.950 . S
C602 C601 1.387 . S
C602 C605 1.387 . S
H603 C599 0.950 . S
H604 C601 0.950 . S
C605 C596 1.390 . S
C605 H598 0.950 . S
C605 C602 1.387 . S
C606 C607 1.387 . S
C606 H610 0.950 . S
C606 C615 1.390 . S
C607 C606 1.387 . S
C607 C609 1.387 . S
H608 C615 0.950 . S
C609 C607 1.387 . S
C609 C611 1.390 . S
C609 H613 0.950 . S
H610 C606 0.950 . S
C611 C609 1.390 . S
C611 C612 1.387 . S
C611 H614 0.950 . S
C612 C611 1.387 . S
C612 C615 1.387 . S
H613 C609 0.950 . S
H614 C611 0.950 . S
C615 C606 1.390 . S
C615 H608 0.950 . S
C615 C612 1.387 . S
C616 C617 1.387 . S
C616 H620 0.950 . S
C616 C625 1.390 . S
C617 C616 1.387 . S
C617 C619 1.387 . S
H618 C625 0.950 . S
C619 C617 1.387 . S
C619 C621 1.390 . S
C619 H623 0.950 . S
H620 C616 0.950 . S
C621 C619 1.390 . S
C621 C622 1.387 . S
C621 H624 0.950 . S
C622 C621 1.387 . S
C622 C625 1.387 . S
H623 C619 0.950 . S
H624 C621 0.950 . S
C625 C616 1.390 . S
C625 H618 0.950 . S
C625 C622 1.387 . S
C626 C627 1.387 . S
C626 H630 0.950 . S
C626 C635 1.390 . S
C627 C626 1.387 . S
C627 C629 1.387 . S
H628 C635 0.950 . S
C629 C627 1.387 . S
C629 C631 1.390 . S
C629 H633 0.950 . S
H630 C626 0.950 . S
C631 C629 1.390 . S
C631 C632 1.387 . S
C631 H634 0.950 . S
C632 C631 1.387 . S
C632 C635 1.387 . S
H633 C629 0.950 . S
H634 C631 0.950 . S
C635 C626 1.390 . S
C635 H628 0.950 . S
C635 C632 1.387 . S
C636 C637 1.387 . S
C636 H640 0.950 . S
C636 C645 1.390 . S
C637 C636 1.387 . S
C637 C639 1.387 . S
H638 C645 0.951 . S
C639 C637 1.387 . S
C639 C641 1.390 1_455 S
C639 H643 0.950 . S
H640 C636 0.950 . S
C641 C639 1.390 1_655 S
C641 C642 1.387 . S
C641 H644 0.950 . S
C642 C641 1.387 . S
C642 C645 1.387 1_655 S
H643 C639 0.950 . S
H644 C641 0.950 . S
C645 C636 1.390 . S
C645 H638 0.951 . S
C645 C642 1.387 1_455 S
C646 C647 1.387 . S
C646 H650 0.950 . S
C646 C655 1.390 . S
C647 C646 1.387 . S
C647 C649 1.387 . S
H648 C655 0.950 . S
C649 C647 1.387 . S
C649 C651 1.390 . S
C649 H653 0.950 . S
H650 C646 0.950 . S
C651 C649 1.390 . S
C651 C652 1.387 . S
C651 H654 0.950 . S
C652 C651 1.387 . S
C652 C655 1.387 . S
H653 C649 0.950 . S
H654 C651 0.950 . S
C655 C646 1.390 . S
C655 H648 0.950 . S
C655 C652 1.387 . S
C656 C657 1.387 . S
C656 H660 0.950 . S
C656 C665 1.390 . S
C657 C656 1.387 . S
C657 C659 1.387 . S
H658 C665 0.950 . S
C659 C657 1.387 . S
C659 C661 1.390 . S
C659 H663 0.950 . S
H660 C656 0.950 . S
C661 C659 1.390 . S
C661 C662 1.387 . S
C661 H664 0.950 . S
C662 C661 1.387 . S
C662 C665 1.387 . S
H663 C659 0.950 . S
H664 C661 0.950 . S
C665 C656 1.390 . S
C665 H658 0.950 . S
C665 C662 1.387 . S
C666 C667 1.387 1_545 S
C666 H670 0.950 . S
C666 C675 1.390 . S
C667 C666 1.387 1_565 S
C667 C669 1.387 . S
H668 C675 0.950 . S
C669 C667 1.387 . S
C669 C671 1.390 . S
C669 H673 0.950 . S
H670 C666 0.950 . S
C671 C669 1.390 . S
C671 C672 1.387 1_565 S
C671 H674 0.950 . S
C672 C671 1.387 1_545 S
C672 C675 1.387 . S
H673 C669 0.950 . S
H674 C671 0.950 . S
C675 C666 1.390 . S
C675 H668 0.950 . S
C675 C672 1.387 . S
C676 C677 1.387 . S
C676 H680 0.950 . S
C676 C685 1.390 . S
C677 C676 1.387 . S
C677 C679 1.387 . S
H678 C685 0.950 . S
C679 C677 1.387 . S
C679 C681 1.390 . S
C679 H683 0.950 . S
H680 C676 0.950 . S
C681 C679 1.390 . S
C681 C682 1.387 . S
C681 H684 0.950 . S
C682 C681 1.387 . S
C682 C685 1.387 . S
H683 C679 0.950 . S
H684 C681 0.950 . S
C685 C676 1.390 . S
C685 H678 0.950 . S
C685 C682 1.387 . S
C686 C687 1.387 . S
C686 H690 0.950 . S
C686 C695 1.390 . S
C687 C686 1.387 . S
C687 C689 1.387 . S
H688 C695 0.950 . S
C689 C687 1.387 . S
C689 C691 1.390 . S
C689 H693 0.950 . S
H690 C686 0.950 . S
C691 C689 1.390 . S
C691 C692 1.387 . S
C691 H694 0.950 . S
C692 C691 1.387 . S
C692 C695 1.387 . S
H693 C689 0.950 . S
H694 C691 0.950 . S
C695 C686 1.390 . S
C695 H688 0.950 . S
C695 C692 1.387 . S
C696 C697 1.387 1_556 S
C696 H700 0.950 . S
C696 C705 1.390 1_655 S
C697 C696 1.387 1_554 S
C697 C699 1.387 . S
H698 C705 0.950 . S
C699 C697 1.387 . S
C699 C701 1.390 1_655 S
C699 H703 0.950 . S
H700 C696 0.950 . S
C701 C699 1.390 1_455 S
C701 C702 1.387 . S
C701 H704 0.950 . S
C702 C701 1.387 . S
C702 C705 1.387 1_554 S
H703 C699 0.950 . S
H704 C701 0.950 . S
C705 C696 1.390 1_455 S
C705 H698 0.950 . S
C705 C702 1.387 1_556 S
C706 C707 1.387 . S
C706 H710 0.950 . S
C706 C715 1.390 . S
C707 C706 1.387 . S
C707 C709 1.387 1_556 S
H708 C715 0.950 . S
C709 C707 1.387 1_554 S
C709 C711 1.390 . S
C709 H713 0.950 . S
H710 C706 0.950 . S
C711 C709 1.390 . S
C711 C712 1.387 . S
C711 H714 0.950 . S
C712 C711 1.387 . S
C712 C715 1.387 1_554 S
H713 C709 0.950 . S
H714 C711 0.950 . S
C715 C706 1.390 . S
C715 H708 0.950 . S
C715 C712 1.387 1_556 S
C716 C717 1.387 1_554 S
C716 H720 0.950 . S
C716 C725 1.390 . S
C717 C716 1.387 1_556 S
C717 C719 1.387 . S
H718 C725 0.950 . S
C719 C717 1.387 . S
C719 C721 1.390 . S
C719 H723 0.950 . S
H720 C716 0.950 . S
C721 C719 1.390 . S
C721 C722 1.387 1_556 S
C721 H724 0.950 . S
C722 C721 1.387 1_554 S
C722 C725 1.387 . S
H723 C719 0.950 . S
H724 C721 0.950 . S
C725 C716 1.390 . S
C725 H718 0.950 . S
C725 C722 1.387 . S
C726 C727 1.387 . S
C726 H730 0.950 . S
C726 C735 1.390 . S
C727 C726 1.387 . S
C727 C729 1.387 1_556 S
H728 C735 0.950 . S
C729 C727 1.387 1_554 S
C729 C731 1.390 . S
C729 H733 0.950 . S
H730 C726 0.950 . S
C731 C729 1.390 . S
C731 C732 1.387 . S
C731 H734 0.950 . S
C732 C731 1.387 . S
C732 C735 1.387 1_554 S
H733 C729 0.950 . S
H734 C731 0.950 . S
C735 C726 1.390 . S
C735 H728 0.950 . S
C735 C732 1.387 1_556 S
C736 C737 1.387 . S
C736 H740 0.950 1_554 S
C736 C745 1.390 1_454 S
C737 C736 1.387 . S
C737 C739 1.387 . S
H738 C745 0.950 . S
C739 C737 1.387 . S
C739 C741 1.390 . S
C739 H743 0.950 . S
H740 C736 0.950 1_556 S
C741 C739 1.390 . S
C741 C742 1.387 1_455 S
C741 H744 0.950 . S
C742 C741 1.387 1_655 S
C742 C745 1.387 1_554 S
H743 C739 0.950 . S
H744 C741 0.950 . S
C745 C736 1.390 1_656 S
C745 H738 0.950 . S
C745 C742 1.387 1_556 S
C746 C747 1.387 1_556 S
C746 H750 0.950 . S
C746 C755 1.390 . S
C747 C746 1.387 1_554 S
C747 C749 1.387 . S
H748 C755 0.950 . S
C749 C747 1.387 . S
C749 C751 1.390 . S
C749 H753 0.950 . S
H750 C746 0.950 . S
C751 C749 1.390 . S
C751 C752 1.387 1_554 S
C751 H754 0.950 . S
C752 C751 1.387 1_556 S
C752 C755 1.387 . S
H753 C749 0.950 . S
H754 C751 0.950 . S
C755 C746 1.390 . S
C755 H748 0.950 . S
C755 C752 1.387 . S
C756 C757 1.387 . S
C756 H760 0.950 . S
C756 C765 1.390 . S
C757 C756 1.387 . S
C757 C759 1.387 . S
H758 C765 0.950 . S
C759 C757 1.387 . S
C759 C761 1.390 . S
C759 H763 0.950 . S
H760 C756 0.950 . S
C761 C759 1.390 . S
C761 C762 1.387 . S
C761 H764 0.950 . S
C762 C761 1.387 . S
C762 C765 1.387 . S
H763 C759 0.950 . S
H764 C761 0.950 . S
C765 C756 1.390 . S
C765 H758 0.950 . S
C765 C762 1.387 . S
C766 C767 1.387 . S
C766 H770 0.950 . S
C766 C775 1.390 . S
C767 C766 1.387 . S
C767 C769 1.387 . S
H768 C775 0.950 . S
C769 C767 1.387 . S
C769 C771 1.390 . S
C769 H773 0.950 . S
H770 C766 0.950 . S
C771 C769 1.390 . S
C771 C772 1.387 1_545 S
C771 H774 0.950 1_545 S
C772 C771 1.387 1_565 S
C772 C775 1.387 1_565 S
H773 C769 0.950 . S
H774 C771 0.950 1_565 S
C775 C766 1.390 . S
C775 H768 0.950 . S
C775 C772 1.387 1_545 S
C776 C777 1.387 . S
C776 H780 0.950 . S
C776 C785 1.390 1_565 S
C777 C776 1.387 . S
C777 C779 1.387 . S
H778 C785 0.950 . S
C779 C777 1.387 . S
C779 C781 1.390 1_565 S
C779 H783 0.950 . S
H780 C776 0.950 . S
C781 C779 1.390 1_545 S
C781 C782 1.387 . S
C781 H784 0.950 . S
C782 C781 1.387 . S
C782 C785 1.387 . S
H783 C779 0.950 . S
H784 C781 0.950 . S
C785 C776 1.390 1_545 S
C785 H778 0.950 . S
C785 C782 1.387 . S
C786 C787 1.387 . S
C786 H790 0.950 . S
C786 C795 1.390 . S
C787 C786 1.387 . S
C787 C789 1.387 . S
H788 C795 0.950 . S
C789 C787 1.387 . S
C789 C791 1.390 . S
C789 H793 0.950 . S
H790 C786 0.950 . S
C791 C789 1.390 . S
C791 C792 1.387 . S
C791 H794 0.950 . S
C792 C791 1.387 . S
C792 C795 1.387 . S
H793 C789 0.950 . S
H794 C791 0.950 . S
C795 C786 1.390 . S
C795 H788 0.950 . S
C795 C792 1.387 . S
C796 C797 1.387 . S
C796 H800 0.950 . S
C796 C805 1.407 . S
C797 C796 1.387 . S
C797 C799 1.387 . S
H798 C805 0.944 1_455 S
C799 C797 1.387 . S
C799 C801 1.390 1_655 S
C799 H803 0.950 . S
H800 C796 0.950 . S
C801 C799 1.390 1_455 S
C801 C802 1.387 . S
C801 H804 0.950 . S
C802 C801 1.387 . S
C802 C805 1.379 1_455 S
H803 C799 0.950 . S
H804 C801 0.950 . S
C805 C796 1.407 . S
C805 H798 0.944 1_655 S
C805 C802 1.379 1_655 S
C806 C807 1.387 . S
C806 H810 0.950 . S
C806 C815 1.390 . S
C807 C806 1.387 . S
C807 C809 1.387 . S
H808 C815 0.950 . S
C809 C807 1.387 . S
C809 C811 1.390 . S
C809 H813 0.950 . S
H810 C806 0.950 . S
C811 C809 1.390 . S
C811 C812 1.387 . S
C811 H814 0.950 . S
C812 C811 1.387 . S
C812 C815 1.387 . S
H813 C809 0.950 . S
H814 C811 0.950 . S
C815 C806 1.390 . S
C815 H808 0.950 . S
C815 C812 1.387 . S
C816 C817 1.387 . S
C816 H820 0.950 . S
C816 C825 1.390 . S
C817 C816 1.387 . S
C817 C819 1.387 . S
H818 C825 0.950 . S
C819 C817 1.387 . S
C819 C821 1.390 . S
C819 H823 0.950 . S
H820 C816 0.950 . S
C821 C819 1.390 . S
C821 C822 1.387 . S
C821 H824 0.950 . S
C822 C821 1.387 . S
C822 C825 1.387 . S
H823 C819 0.950 . S
H824 C821 0.950 . S
C825 C816 1.390 . S
C825 H818 0.950 . S
C825 C822 1.387 . S
C826 C827 1.387 . S
C826 H830 0.950 . S
C826 C835 1.390 . S
C827 C826 1.387 . S
C827 C829 1.387 . S
H828 C835 0.950 . S
C829 C827 1.387 . S
C829 C831 1.390 . S
C829 H833 0.950 1_556 S
H830 C826 0.950 . S
C831 C829 1.390 . S
C831 C832 1.387 . S
C831 H834 0.950 1_556 S
C832 C831 1.387 . S
C832 C835 1.387 . S
H833 C829 0.950 1_554 S
H834 C831 0.950 1_554 S
C835 C826 1.390 . S
C835 H828 0.950 . S
C835 C832 1.387 . S
C836 C837 1.387 . S
C836 H840 0.950 1_556 S
C836 C845 1.390 . S
C837 C836 1.387 . S
C837 C839 1.387 . S
H838 C845 0.950 1_554 S
C839 C837 1.387 . S
C839 C841 1.390 . S
C839 H843 0.950 . S
H840 C836 0.950 1_554 S
C841 C839 1.390 . S
C841 C842 1.387 . S
C841 H844 0.950 . S
C842 C841 1.387 . S
C842 C845 1.387 . S
H843 C839 0.950 . S
H844 C841 0.950 . S
C845 C836 1.390 . S
C845 H838 0.950 1_556 S
C845 C842 1.387 . S
C846 C847 1.387 . S
C846 H850 0.950 . S
C846 C855 1.390 . S
C847 C846 1.387 . S
C847 C849 1.387 1_554 S
H848 C855 0.950 . S
C849 C847 1.387 1_556 S
C849 C851 1.390 . S
C849 H853 0.950 . S
H850 C846 0.950 . S
C851 C849 1.390 . S
C851 C852 1.387 1_556 S
C851 H854 0.950 . S
C852 C851 1.387 1_554 S
C852 C855 1.387 . S
H853 C849 0.950 . S
H854 C851 0.950 . S
C855 C846 1.390 . S
C855 H848 0.950 . S
C855 C852 1.387 . S
C856 C857 1.387 . S
C856 H860 0.950 . S
C856 C865 1.390 . S
C857 C856 1.387 . S
C857 C859 1.387 1_556 S
H858 C865 0.950 . S
C859 C857 1.387 1_554 S
C859 C861 1.390 . S
C859 H863 0.950 . S
H860 C856 0.950 . S
C861 C859 1.390 . S
C861 C862 1.387 1_554 S
C861 H864 0.950 . S
C862 C861 1.387 1_556 S
C862 C865 1.387 . S
H863 C859 0.950 . S
H864 C861 0.950 . S
C865 C856 1.390 . S
C865 H858 0.950 . S
C865 C862 1.387 . S
C866 C867 1.387 . S
C866 H870 0.950 . S
C866 C875 1.390 . S
C867 C866 1.387 . S
C867 C869 1.387 1_556 S
H868 C875 0.950 . S
C869 C867 1.387 1_554 S
C869 C871 1.390 . S
C869 H873 0.950 . S
H870 C866 0.950 . S
C871 C869 1.390 . S
C871 C872 1.387 1_554 S
C871 H874 0.950 . S
C872 C871 1.387 1_556 S
C872 C875 1.387 . S
H873 C869 0.950 . S
H874 C871 0.950 . S
C875 C866 1.390 . S
C875 H868 0.950 . S
C875 C872 1.387 . S
C876 C877 1.387 1_556 S
C876 H880 0.950 . S
C876 C885 1.390 . S
C877 C876 1.387 1_554 S
C877 C879 1.387 . S
H878 C885 0.950 . S
C879 C877 1.387 . S
C879 C881 1.390 . S
C879 H883 0.950 . S
H880 C876 0.950 . S
C881 C879 1.390 . S
C881 C882 1.387 . S
C881 H884 0.950 . S
C882 C881 1.387 . S
C882 C885 1.387 1_554 S
H883 C879 0.950 . S
H884 C881 0.950 . S
C885 C876 1.390 . S
C885 H878 0.950 . S
C885 C882 1.387 1_556 S
C886 C887 1.387 . S
C886 H890 0.950 1_554 S
C886 C895 1.390 . S
C887 C886 1.387 . S
C887 C889 1.387 . S
H888 C895 0.950 1_556 S
C889 C887 1.387 . S
C889 C891 1.390 . S
C889 H893 0.950 . S
H890 C886 0.950 1_556 S
C891 C889 1.390 . S
C891 C892 1.387 . S
C891 H894 0.950 . S
C892 C891 1.387 . S
C892 C895 1.387 . S
H893 C889 0.950 . S
H894 C891 0.950 . S
C895 C886 1.390 . S
C895 H888 0.950 1_554 S
C895 C892 1.387 . S
C896 C897 1.387 1_556 S
C896 H900 0.950 . S
C896 C905 1.390 . S
C897 C896 1.387 1_554 S
C897 C899 1.387 . S
H898 C905 0.950 . S
C899 C897 1.387 . S
C899 C901 1.390 . S
C899 H903 0.950 . S
H900 C896 0.950 . S
C901 C899 1.390 . S
C901 C902 1.387 . S
C901 H904 0.950 . S
C902 C901 1.387 . S
C902 C905 1.387 1_554 S
H903 C899 0.950 . S
H904 C901 0.950 . S
C905 C896 1.390 . S
C905 H898 0.950 . S
C905 C902 1.387 1_556 S
C906 C907 1.387 . S
C906 H910 0.950 1_554 S
C906 C915 1.390 . S
C907 C906 1.387 . S
C907 C909 1.387 . S
H908 C915 0.950 1_556 S
C909 C907 1.387 . S
C909 C911 1.390 . S
C909 H913 0.950 . S
H910 C906 0.950 1_556 S
C911 C909 1.390 . S
C911 C912 1.387 . S
C911 H914 0.950 . S
C912 C911 1.387 . S
C912 C915 1.387 . S
H913 C909 0.950 . S
H914 C911 0.950 . S
C915 C906 1.390 . S
C915 H908 0.950 1_554 S
C915 C912 1.387 . S
C916 C917 1.387 . S
C916 H920 0.950 1_554 S
C916 C925 1.390 . S
C917 C916 1.387 . S
C917 C919 1.387 . S
H918 C925 0.950 1_556 S
C919 C917 1.387 . S
C919 C921 1.390 . S
C919 H923 0.950 . S
H920 C916 0.950 1_556 S
C921 C919 1.390 . S
C921 C922 1.387 . S
C921 H924 0.950 . S
C922 C921 1.387 . S
C922 C925 1.387 . S
H923 C919 0.950 . S
H924 C921 0.950 . S
C925 C916 1.390 . S
C925 H918 0.950 1_554 S
C925 C922 1.387 . S
C926 C927 1.387 . S
C926 H930 0.950 . S
C926 C935 1.390 . S
C927 C926 1.387 . S
C927 C929 1.387 . S
H928 C935 0.950 . S
C929 C927 1.387 . S
C929 C931 1.390 . S
C929 H933 0.950 . S
H930 C926 0.950 . S
C931 C929 1.390 . S
C931 C932 1.387 . S
C931 H934 0.950 . S
C932 C931 1.387 . S
C932 C935 1.387 . S
H933 C929 0.950 . S
H934 C931 0.950 . S
C935 C926 1.390 . S
C935 H928 0.950 . S
C935 C932 1.387 . S
C936 C937 1.387 1_556 S
C936 H940 0.950 1_556 S
C936 C945 1.390 . S
C937 C936 1.387 1_554 S
C937 C939 1.387 1_554 S
H938 C945 0.950 . S
C939 C937 1.387 1_556 S
C939 C941 1.390 . S
C939 H943 0.950 . S
H940 C936 0.950 1_554 S
C941 C939 1.390 . S
C941 C942 1.387 . S
C941 H944 0.950 . S
C942 C941 1.387 . S
C942 C945 1.387 . S
H943 C939 0.950 . S
H944 C941 0.950 . S
C945 C936 1.390 . S
C945 H938 0.950 . S
C945 C942 1.387 . S
C946 C947 1.387 . S
C946 H950 0.950 . S
C946 C955 1.390 1_554 S
C947 C946 1.387 . S
C947 C949 1.387 . S
H948 C955 0.950 . S
C949 C947 1.387 . S
C949 C951 1.390 1_554 S
C949 H953 0.950 . S
H950 C946 0.950 . S
C951 C949 1.390 1_556 S
C951 C952 1.387 . S
C951 H954 0.950 . S
C952 C951 1.387 . S
C952 C955 1.387 . S
H953 C949 0.950 . S
H954 C951 0.950 . S
C955 C946 1.390 1_556 S
C955 H948 0.950 . S
C955 C952 1.387 . S
C956 C957 1.387 1_556 S
C956 H960 0.950 . S
C956 C965 1.390 . S
C957 C956 1.387 1_554 S
C957 C959 1.387 1_554 S
H958 C965 0.950 . S
C959 C957 1.387 1_556 S
C959 C961 1.390 . S
C959 H963 0.950 1_556 S
H960 C956 0.950 . S
C961 C959 1.390 . S
C961 C962 1.387 . S
C961 H964 0.950 . S
C962 C961 1.387 . S
C962 C965 1.387 . S
H963 C959 0.950 1_554 S
H964 C961 0.950 . S
C965 C956 1.390 . S
C965 H958 0.950 . S
C965 C962 1.387 . S
C966 C967 1.387 . S
C966 H970 0.950 . S
C966 C975 1.390 1_556 S
C967 C966 1.387 . S
C967 C969 1.387 . S
H968 C975 0.950 . S
C969 C967 1.387 . S
C969 C971 1.390 1_556 S
C969 H973 0.950 . S
H970 C966 0.950 . S
C971 C969 1.390 1_554 S
C971 C972 1.387 . S
C971 H974 0.950 . S
C972 C971 1.387 . S
C972 C975 1.387 . S
H973 C969 0.950 . S
H974 C971 0.950 . S
C975 C966 1.390 1_554 S
C975 H968 0.950 . S
C975 C972 1.387 . S
C976 C977 1.387 1_556 S
C976 H980 0.950 1_556 S
C976 C985 1.390 . S
C977 C976 1.387 1_554 S
C977 C979 1.387 1_554 S
H978 C985 0.950 . S
C979 C977 1.387 1_556 S
C979 C981 1.390 . S
C979 H983 0.950 . S
H980 C976 0.950 1_554 S
C981 C979 1.390 . S
C981 C982 1.387 . S
C981 H984 0.950 . S
C982 C981 1.387 . S
C982 C985 1.387 . S
H983 C979 0.950 . S
H984 C981 0.950 . S
C985 C976 1.390 . S
C985 H978 0.950 . S
C985 C982 1.387 . S
C986 C987 1.387 . S
C986 H990 0.950 . S
C986 C995 1.390 1_554 S
C987 C986 1.387 . S
C987 C989 1.387 . S
H988 C995 0.950 . S
C989 C987 1.387 . S
C989 C991 1.390 1_554 S
C989 H993 0.950 . S
H990 C986 0.950 . S
C991 C989 1.390 1_556 S
C991 C992 1.387 . S
C991 H994 0.950 . S
C992 C991 1.387 . S
C992 C995 1.387 . S
H993 C989 0.950 . S
H994 C991 0.950 . S
C995 C986 1.390 1_556 S
C995 H988 0.950 . S
C995 C992 1.387 . S
C996 C997 1.387 . S
C996 H1000 0.950 . S
C996 C1005 1.390 . S
C997 C996 1.387 . S
C997 C999 1.387 . S
H998 C1005 0.950 . S
C999 C997 1.387 . S
C999 C1001 1.390 . S
C999 H1003 0.950 . S
H1000 C996 0.950 . S
C1001 C999 1.390 . S
C1001 C1002 1.387 . S
C1001 H1004 0.950 . S
C1002 C1001 1.387 . S
C1002 C1005 1.387 . S
H1003 C999 0.950 . S
H1004 C1001 0.950 . S
C1005 C996 1.390 . S
C1005 H998 0.950 . S
C1005 C1002 1.387 . S
C1006 C1007 1.387 . S
C1006 H1010 0.950 . S
C1006 C1015 1.390 . S
C1007 C1006 1.387 . S
C1007 C1009 1.387 . S
H1008 C1015 0.950 . S
C1009 C1007 1.387 . S
C1009 C1011 1.390 . S
C1009 H1013 0.950 . S
H1010 C1006 0.950 . S
C1011 C1009 1.390 . S
C1011 C1012 1.387 . S
C1011 H1014 0.950 . S
C1012 C1011 1.387 . S
C1012 C1015 1.387 . S
H1013 C1009 0.950 . S
H1014 C1011 0.950 . S
C1015 C1006 1.390 . S
C1015 H1008 0.950 . S
C1015 C1012 1.387 . S
C1016 C1017 1.387 . S
C1016 H1020 0.950 . S
C1016 C1025 1.390 . S
C1017 C1016 1.387 . S
C1017 C1019 1.387 . S
H1018 C1025 0.950 . S
C1019 C1017 1.387 . S
C1019 C1021 1.390 . S
C1019 H1023 0.950 . S
H1020 C1016 0.950 . S
C1021 C1019 1.390 . S
C1021 C1022 1.387 . S
C1021 H1024 0.950 . S
C1022 C1021 1.387 . S
C1022 C1025 1.387 . S
H1023 C1019 0.950 . S
H1024 C1021 0.950 . S
C1025 C1016 1.390 . S
C1025 H1018 0.950 . S
C1025 C1022 1.387 . S
C1026 C1027 1.387 . S
C1026 H1030 0.950 . S
C1026 C1035 1.390 . S
C1027 C1026 1.387 . S
C1027 C1029 1.387 . S
H1028 C1035 0.950 . S
C1029 C1027 1.387 . S
C1029 C1031 1.390 . S
C1029 H1033 0.950 . S
H1030 C1026 0.950 . S
C1031 C1029 1.390 . S
C1031 C1032 1.387 . S
C1031 H1034 0.950 . S
C1032 C1031 1.387 . S
C1032 C1035 1.387 . S
H1033 C1029 0.950 . S
H1034 C1031 0.950 . S
C1035 C1026 1.390 . S
C1035 H1028 0.950 . S
C1035 C1032 1.387 . S
C1036 C1037 1.387 . S
C1036 H1040 0.950 . S
C1036 C1045 1.390 . S
C1037 C1036 1.387 . S
C1037 C1039 1.387 . S
H1038 C1045 0.950 . S
C1039 C1037 1.387 . S
C1039 C1041 1.390 . S
C1039 H1043 0.950 . S
H1040 C1036 0.950 . S
C1041 C1039 1.390 . S
C1041 C1042 1.387 . S
C1041 H1044 0.950 . S
C1042 C1041 1.387 . S
C1042 C1045 1.387 . S
H1043 C1039 0.950 . S
H1044 C1041 0.950 . S
C1045 C1036 1.390 . S
C1045 H1038 0.950 . S
C1045 C1042 1.387 . S
C1046 C1047 1.387 . S
C1046 H1050 0.950 . S
C1046 C1055 1.390 . S
C1047 C1046 1.387 . S
C1047 C1049 1.387 . S
H1048 C1055 0.950 . S
C1049 C1047 1.387 . S
C1049 C1051 1.390 . S
C1049 H1053 0.950 . S
H1050 C1046 0.950 . S
C1051 C1049 1.390 . S
C1051 C1052 1.387 . S
C1051 H1054 0.950 . S
C1052 C1051 1.387 . S
C1052 C1055 1.387 . S
H1053 C1049 0.950 . S
H1054 C1051 0.950 . S
C1055 C1046 1.390 . S
C1055 H1048 0.950 . S
C1055 C1052 1.387 . S
C1056 C1057 1.387 1_545 S
C1056 H1060 0.950 . S
C1056 C1065 1.390 . S
C1057 C1056 1.387 1_565 S
C1057 C1059 1.387 . S
H1058 C1065 0.950 . S
C1059 C1057 1.387 . S
C1059 C1061 1.390 . S
C1059 H1063 0.950 . S
H1060 C1056 0.950 . S
C1061 C1059 1.390 . S
C1061 C1062 1.387 . S
C1061 H1064 0.950 . S
C1062 C1061 1.387 . S
C1062 C1065 1.387 1_565 S
H1063 C1059 0.950 . S
H1064 C1061 0.950 . S
C1065 C1056 1.390 . S
C1065 H1058 0.950 . S
C1065 C1062 1.387 1_545 S
C1066 C1067 1.387 . S
C1066 H1070 0.950 . S
C1066 C1075 1.390 . S
C1067 C1066 1.387 . S
C1067 C1069 1.387 . S
H1068 C1075 0.950 . S
C1069 C1067 1.387 . S
C1069 C1071 1.390 . S
C1069 H1073 0.950 . S
H1070 C1066 0.950 . S
C1071 C1069 1.390 . S
C1071 C1072 1.387 . S
C1071 H1074 0.950 . S
C1072 C1071 1.387 . S
C1072 C1075 1.387 . S
H1073 C1069 0.950 . S
H1074 C1071 0.950 . S
C1075 C1066 1.390 . S
C1075 H1068 0.950 . S
C1075 C1072 1.387 . S
C1076 C1077 1.387 . S
C1076 H1080 0.950 . S
C1076 C1085 1.390 . S
C1077 C1076 1.387 . S
C1077 C1079 1.387 . S
H1078 C1085 0.950 . S
C1079 C1077 1.387 . S
C1079 C1081 1.390 . S
C1079 H1083 0.950 . S
H1080 C1076 0.950 . S
C1081 C1079 1.390 . S
C1081 C1082 1.387 . S
C1081 H1084 0.950 . S
C1082 C1081 1.387 . S
C1082 C1085 1.387 . S
H1083 C1079 0.950 . S
H1084 C1081 0.950 . S
C1085 C1076 1.390 . S
C1085 H1078 0.950 . S
C1085 C1082 1.387 . S
C1086 C1087 1.387 . S
C1086 H1090 0.950 . S
C1086 C1095 1.390 . S
C1087 C1086 1.387 . S
C1087 C1089 1.387 . S
H1088 C1095 0.950 . S
C1089 C1087 1.387 . S
C1089 C1091 1.390 . S
C1089 H1093 0.950 . S
H1090 C1086 0.950 . S
C1091 C1089 1.390 . S
C1091 C1092 1.387 . S
C1091 H1094 0.950 . S
C1092 C1091 1.387 . S
C1092 C1095 1.387 . S
H1093 C1089 0.950 . S
H1094 C1091 0.950 . S
C1095 C1086 1.390 . S
C1095 H1088 0.950 . S
C1095 C1092 1.387 . S
C1096 C1097 1.387 . S
C1096 H1100 0.950 1_565 S
C1096 C1105 1.390 . S
C1097 C1096 1.387 . S
C1097 C1099 1.387 . S
H1098 C1105 0.950 1_545 S
C1099 C1097 1.387 . S
C1099 C1101 1.390 . S
C1099 H1103 0.950 . S
H1100 C1096 0.950 1_545 S
C1101 C1099 1.390 . S
C1101 C1102 1.387 . S
C1101 H1104 0.950 . S
C1102 C1101 1.387 . S
C1102 C1105 1.387 . S
H1103 C1099 0.950 . S
H1104 C1101 0.950 . S
C1105 C1096 1.390 . S
C1105 H1098 0.950 1_565 S
C1105 C1102 1.387 . S
C1106 C1107 1.387 . S
C1106 H1110 0.950 . S
C1106 C1115 1.390 . S
C1107 C1106 1.387 . S
C1107 C1109 1.387 . S
H1108 C1115 0.950 . S
C1109 C1107 1.387 . S
C1109 C1111 1.390 . S
C1109 H1113 0.950 . S
H1110 C1106 0.950 . S
C1111 C1109 1.390 . S
C1111 C1112 1.387 . S
C1111 H1114 0.950 . S
C1112 C1111 1.387 . S
C1112 C1115 1.387 . S
H1113 C1109 0.950 . S
H1114 C1111 0.950 . S
C1115 C1106 1.390 . S
C1115 H1108 0.950 . S
C1115 C1112 1.387 . S
C577 C422 2.158 . S
C582 C6 2.132 . S
C587 N50 1.264 . S
C592 N461 1.339 . S
C597 C70 1.604 . S
C602 N402 1.575 . S
C607 N82 1.186 . S
C612 N242 1.260 . S
C617 N274 1.057 . S
C622 N18 1.203 . S
C627 C38 1.362 . S
C632 N205 1.322 . S
C637 C102 1.601 . S
C642 N333 1.422 . S
C647 N146 1.278 . S
C652 N365 1.191 . S
C657 N301 1.617 . S
C662 C166 1.625 . S
C667 N530 1.294 . S
C672 N178 1.257 . S
C677 N114 1.502 . S
C682 C546 1.592 . S
C687 C486 2.184 . S
C692 C134 2.175 . S
C697 C262 2.086 1_554 S
C702 N434 1.982 . S
C707 C194 2.915 . S
C712 C450 2.844 . S
C717 C230 2.364 . S
C722 C390 2.397 . S
C727 C290 2.501 . S
C732 C518 2.458 . S
C737 N557 2.120 . S
C742 C322 2.351 1_554 S
C747 N498 1.708 . S
C752 C354 1.753 . S
C757 N13 1.187 . S
C762 N141 1.217 . S
C767 C164 0.607 . S
C772 C36 0.600 . S
C777 C100 1.171 . S
C782 N77 1.131 . S
C787 C132 1.127 . S
C792 C68 1.118 . S
C797 N173 1.204 . S
C802 C4 1.246 . S
C807 N109 1.271 1_655 S
C812 N45 1.279 . S
C817 C349 2.101 . S
C822 C221 2.092 . S
C827 C381 1.457 . S
C832 C228 1.461 . S
C837 C317 1.833 . S
C842 C260 1.827 . S
C847 N338 1.343 1_554 S
C852 N269 1.353 1_554 S
C857 N370 1.477 . S
C862 N210 1.407 . S
C867 N306 1.463 . S
C872 N237 1.480 . S
C877 N525 1.659 . S
C882 N397 1.651 . S
C887 C573 2.167 . S
C892 C420 2.167 . S
C897 N466 1.814 . S
C902 C484 1.854 . S
C907 C477 1.812 . S
C912 C516 1.825 . S
C917 C388 2.105 . S
C922 N562 2.069 . S
C927 N493 2.020 . S
C932 N429 2.046 . S
C937 C29 1.467 . S
C942 C2 1.472 . S
C947 C34 1.473 . S
C952 C61 1.472 . S
C957 C93 1.474 . S
C962 C66 1.475 . S
C967 C125 1.466 . S
C972 C98 1.468 . S
C977 C157 1.471 . S
C982 C130 1.476 . S
C987 C162 1.475 . S
C992 C189 1.475 . S
C997 C196 1.463 . S
C1002 C198 1.471 . S
C1007 C226 1.476 . S
C1012 C253 1.471 . S
C1017 C285 1.481 . S
C1022 C258 1.480 . S
C1027 C292 1.467 . S
C1032 C294 1.475 . S
C1037 C324 1.465 . S
C1042 C326 1.468 . S
C1047 C356 1.483 . S
C1052 C358 1.484 . S
C1057 C386 1.468 . S
C1062 C413 1.461 . S
C1067 C418 1.468 . S
C1072 C445 1.463 . S
C1077 C452 1.470 . S
C1082 C454 1.474 . S
C1087 C482 1.468 . S
C1092 C509 1.462 . S
C1097 C541 1.467 . S
C1102 C514 1.472 . S
C1107 C548 1.467 . S
C1112 C550 1.469 . S
