# Generated by pormake.
# Topology ana, (4)-cn, num edge types: 1
# Building blocks:
#     Node 0, Type 0, BuildingBlock: QUQFOY_clean_sbu_1, # of connection points: 4
#     Node 1, Type 0, BuildingBlock: QUQFOY_clean_sbu_1, # of connection points: 4
#     Node 2, Type 0, BuildingBlock: QUQFOY_clean_sbu_1, # of connection points: 4
#     Node 3, Type 0, BuildingBlock: QUQFOY_clean_sbu_1, # of connection points: 4
#     Node 4, Type 0, BuildingBlock: QUQFOY_clean_sbu_1, # of connection points: 4
#     Node 5, Type 0, BuildingBlock: QUQFOY_clean_sbu_1, # of connection points: 4
#     Node 6, Type 0, BuildingBlock: QUQFOY_clean_sbu_1, # of connection points: 4
#     Node 7, Type 0, BuildingBlock: QUQFOY_clean_sbu_1, # of connection points: 4
#     Node 8, Type 0, BuildingBlock: QUQFOY_clean_sbu_1, # of connection points: 4
#     Node 9, Type 0, BuildingBlock: QUQFOY_clean_sbu_1, # of connection points: 4
#     Node 10, Type 0, BuildingBlock: QUQFOY_clean_sbu_1, # of connection points: 4
#     Node 11, Type 0, BuildingBlock: QUQFOY_clean_sbu_1, # of connection points: 4
#     Node 12, Type 0, BuildingBlock: QUQFOY_clean_sbu_1, # of connection points: 4
#     Node 13, Type 0, BuildingBlock: QUQFOY_clean_sbu_1, # of connection points: 4
#     Node 14, Type 0, BuildingBlock: QUQFOY_clean_sbu_1, # of connection points: 4
#     Node 15, Type 0, BuildingBlock: QUQFOY_clean_sbu_1, # of connection points: 4
#     Node 16, Type 0, BuildingBlock: QUQFOY_clean_sbu_1, # of connection points: 4
#     Node 17, Type 0, BuildingBlock: QUQFOY_clean_sbu_1, # of connection points: 4
#     Node 18, Type 0, BuildingBlock: QUQFOY_clean_sbu_1, # of connection points: 4
#     Node 19, Type 0, BuildingBlock: QUQFOY_clean_sbu_1, # of connection points: 4
#     Node 20, Type 0, BuildingBlock: QUQFOY_clean_sbu_1, # of connection points: 4
#     Node 21, Type 0, BuildingBlock: QUQFOY_clean_sbu_1, # of connection points: 4
#     Node 22, Type 0, BuildingBlock: QUQFOY_clean_sbu_1, # of connection points: 4
#     Node 23, Type 0, BuildingBlock: QUQFOY_clean_sbu_1, # of connection points: 4
#     Node 24, Type 0, BuildingBlock: QUQFOY_clean_sbu_1, # of connection points: 4
#     Node 25, Type 0, BuildingBlock: QUQFOY_clean_sbu_1, # of connection points: 4
#     Node 26, Type 0, BuildingBlock: QUQFOY_clean_sbu_1, # of connection points: 4
#     Node 27, Type 0, BuildingBlock: QUQFOY_clean_sbu_1, # of connection points: 4
#     Node 28, Type 0, BuildingBlock: QUQFOY_clean_sbu_1, # of connection points: 4
#     Node 29, Type 0, BuildingBlock: QUQFOY_clean_sbu_1, # of connection points: 4
#     Node 30, Type 0, BuildingBlock: QUQFOY_clean_sbu_1, # of connection points: 4
#     Node 31, Type 0, BuildingBlock: QUQFOY_clean_sbu_1, # of connection points: 4
#     Node 32, Type 0, BuildingBlock: QUQFOY_clean_sbu_1, # of connection points: 4
#     Node 33, Type 0, BuildingBlock: QUQFOY_clean_sbu_1, # of connection points: 4
#     Node 34, Type 0, BuildingBlock: QUQFOY_clean_sbu_1, # of connection points: 4
#     Node 35, Type 0, BuildingBlock: QUQFOY_clean_sbu_1, # of connection points: 4
#     Node 36, Type 0, BuildingBlock: QUQFOY_clean_sbu_1, # of connection points: 4
#     Node 37, Type 0, BuildingBlock: QUQFOY_clean_sbu_1, # of connection points: 4
#     Node 38, Type 0, BuildingBlock: QUQFOY_clean_sbu_1, # of connection points: 4
#     Node 39, Type 0, BuildingBlock: QUQFOY_clean_sbu_1, # of connection points: 4
#     Node 40, Type 0, BuildingBlock: QUQFOY_clean_sbu_1, # of connection points: 4
#     Node 41, Type 0, BuildingBlock: QUQFOY_clean_sbu_1, # of connection points: 4
#     Node 42, Type 0, BuildingBlock: QUQFOY_clean_sbu_1, # of connection points: 4
#     Node 43, Type 0, BuildingBlock: QUQFOY_clean_sbu_1, # of connection points: 4
#     Node 44, Type 0, BuildingBlock: QUQFOY_clean_sbu_1, # of connection points: 4
#     Node 45, Type 0, BuildingBlock: QUQFOY_clean_sbu_1, # of connection points: 4
#     Node 46, Type 0, BuildingBlock: QUQFOY_clean_sbu_1, # of connection points: 4
#     Node 47, Type 0, BuildingBlock: QUQFOY_clean_sbu_1, # of connection points: 4
#     Edge 48, Type (0, 0), BuildingBlock: CIFDUS_clean_linker_0, # of connection points: 2
#     Edge 49, Type (0, 0), BuildingBlock: CIFDUS_clean_linker_0, # of connection points: 2
#     Edge 50, Type (0, 0), BuildingBlock: CIFDUS_clean_linker_0, # of connection points: 2
#     Edge 51, Type (0, 0), BuildingBlock: CIFDUS_clean_linker_0, # of connection points: 2
#     Edge 52, Type (0, 0), BuildingBlock: CIFDUS_clean_linker_0, # of connection points: 2
#     Edge 53, Type (0, 0), BuildingBlock: CIFDUS_clean_linker_0, # of connection points: 2
#     Edge 54, Type (0, 0), BuildingBlock: CIFDUS_clean_linker_0, # of connection points: 2
#     Edge 55, Type (0, 0), BuildingBlock: CIFDUS_clean_linker_0, # of connection points: 2
#     Edge 56, Type (0, 0), BuildingBlock: CIFDUS_clean_linker_0, # of connection points: 2
#     Edge 57, Type (0, 0), BuildingBlock: CIFDUS_clean_linker_0, # of connection points: 2
#     Edge 58, Type (0, 0), BuildingBlock: CIFDUS_clean_linker_0, # of connection points: 2
#     Edge 59, Type (0, 0), BuildingBlock: CIFDUS_clean_linker_0, # of connection points: 2
#     Edge 60, Type (0, 0), BuildingBlock: CIFDUS_clean_linker_0, # of connection points: 2
#     Edge 61, Type (0, 0), BuildingBlock: CIFDUS_clean_linker_0, # of connection points: 2
#     Edge 62, Type (0, 0), BuildingBlock: CIFDUS_clean_linker_0, # of connection points: 2
#     Edge 63, Type (0, 0), BuildingBlock: CIFDUS_clean_linker_0, # of connection points: 2
#     Edge 64, Type (0, 0), BuildingBlock: CIFDUS_clean_linker_0, # of connection points: 2
#     Edge 65, Type (0, 0), BuildingBlock: CIFDUS_clean_linker_0, # of connection points: 2
#     Edge 66, Type (0, 0), BuildingBlock: CIFDUS_clean_linker_0, # of connection points: 2
#     Edge 67, Type (0, 0), BuildingBlock: CIFDUS_clean_linker_0, # of connection points: 2
#     Edge 68, Type (0, 0), BuildingBlock: CIFDUS_clean_linker_0, # of connection points: 2
#     Edge 69, Type (0, 0), BuildingBlock: CIFDUS_clean_linker_0, # of connection points: 2
#     Edge 70, Type (0, 0), BuildingBlock: CIFDUS_clean_linker_0, # of connection points: 2
#     Edge 71, Type (0, 0), BuildingBlock: CIFDUS_clean_linker_0, # of connection points: 2
#     Edge 72, Type (0, 0), BuildingBlock: CIFDUS_clean_linker_0, # of connection points: 2
#     Edge 73, Type (0, 0), BuildingBlock: CIFDUS_clean_linker_0, # of connection points: 2
#     Edge 74, Type (0, 0), BuildingBlock: CIFDUS_clean_linker_0, # of connection points: 2
#     Edge 75, Type (0, 0), BuildingBlock: CIFDUS_clean_linker_0, # of connection points: 2
#     Edge 76, Type (0, 0), BuildingBlock: CIFDUS_clean_linker_0, # of connection points: 2
#     Edge 77, Type (0, 0), BuildingBlock: CIFDUS_clean_linker_0, # of connection points: 2
#     Edge 78, Type (0, 0), BuildingBlock: CIFDUS_clean_linker_0, # of connection points: 2
#     Edge 79, Type (0, 0), BuildingBlock: CIFDUS_clean_linker_0, # of connection points: 2
#     Edge 80, Type (0, 0), BuildingBlock: CIFDUS_clean_linker_0, # of connection points: 2
#     Edge 81, Type (0, 0), BuildingBlock: CIFDUS_clean_linker_0, # of connection points: 2
#     Edge 82, Type (0, 0), BuildingBlock: CIFDUS_clean_linker_0, # of connection points: 2
#     Edge 83, Type (0, 0), BuildingBlock: CIFDUS_clean_linker_0, # of connection points: 2
#     Edge 84, Type (0, 0), BuildingBlock: CIFDUS_clean_linker_0, # of connection points: 2
#     Edge 85, Type (0, 0), BuildingBlock: CIFDUS_clean_linker_0, # of connection points: 2
#     Edge 86, Type (0, 0), BuildingBlock: CIFDUS_clean_linker_0, # of connection points: 2
#     Edge 87, Type (0, 0), BuildingBlock: CIFDUS_clean_linker_0, # of connection points: 2
#     Edge 88, Type (0, 0), BuildingBlock: CIFDUS_clean_linker_0, # of connection points: 2
#     Edge 89, Type (0, 0), BuildingBlock: CIFDUS_clean_linker_0, # of connection points: 2
#     Edge 90, Type (0, 0), BuildingBlock: CIFDUS_clean_linker_0, # of connection points: 2
#     Edge 91, Type (0, 0), BuildingBlock: CIFDUS_clean_linker_0, # of connection points: 2
#     Edge 92, Type (0, 0), BuildingBlock: CIFDUS_clean_linker_0, # of connection points: 2
#     Edge 93, Type (0, 0), BuildingBlock: CIFDUS_clean_linker_0, # of connection points: 2
#     Edge 94, Type (0, 0), BuildingBlock: CIFDUS_clean_linker_0, # of connection points: 2
#     Edge 95, Type (0, 0), BuildingBlock: CIFDUS_clean_linker_0, # of connection points: 2
#     Edge 96, Type (0, 0), BuildingBlock: CIFDUS_clean_linker_0, # of connection points: 2
#     Edge 97, Type (0, 0), BuildingBlock: CIFDUS_clean_linker_0, # of connection points: 2
#     Edge 98, Type (0, 0), BuildingBlock: CIFDUS_clean_linker_0, # of connection points: 2
#     Edge 99, Type (0, 0), BuildingBlock: CIFDUS_clean_linker_0, # of connection points: 2
#     Edge 100, Type (0, 0), BuildingBlock: CIFDUS_clean_linker_0, # of connection points: 2
#     Edge 101, Type (0, 0), BuildingBlock: CIFDUS_clean_linker_0, # of connection points: 2
#     Edge 102, Type (0, 0), BuildingBlock: CIFDUS_clean_linker_0, # of connection points: 2
#     Edge 103, Type (0, 0), BuildingBlock: CIFDUS_clean_linker_0, # of connection points: 2
#     Edge 104, Type (0, 0), BuildingBlock: CIFDUS_clean_linker_0, # of connection points: 2
#     Edge 105, Type (0, 0), BuildingBlock: CIFDUS_clean_linker_0, # of connection points: 2
#     Edge 106, Type (0, 0), BuildingBlock: CIFDUS_clean_linker_0, # of connection points: 2
#     Edge 107, Type (0, 0), BuildingBlock: CIFDUS_clean_linker_0, # of connection points: 2
#     Edge 108, Type (0, 0), BuildingBlock: CIFDUS_clean_linker_0, # of connection points: 2
#     Edge 109, Type (0, 0), BuildingBlock: CIFDUS_clean_linker_0, # of connection points: 2
#     Edge 110, Type (0, 0), BuildingBlock: CIFDUS_clean_linker_0, # of connection points: 2
#     Edge 111, Type (0, 0), BuildingBlock: CIFDUS_clean_linker_0, # of connection points: 2
#     Edge 112, Type (0, 0), BuildingBlock: CIFDUS_clean_linker_0, # of connection points: 2
#     Edge 113, Type (0, 0), BuildingBlock: CIFDUS_clean_linker_0, # of connection points: 2
#     Edge 114, Type (0, 0), BuildingBlock: CIFDUS_clean_linker_0, # of connection points: 2
#     Edge 115, Type (0, 0), BuildingBlock: CIFDUS_clean_linker_0, # of connection points: 2
#     Edge 116, Type (0, 0), BuildingBlock: CIFDUS_clean_linker_0, # of connection points: 2
#     Edge 117, Type (0, 0), BuildingBlock: CIFDUS_clean_linker_0, # of connection points: 2
#     Edge 118, Type (0, 0), BuildingBlock: CIFDUS_clean_linker_0, # of connection points: 2
#     Edge 119, Type (0, 0), BuildingBlock: CIFDUS_clean_linker_0, # of connection points: 2
#     Edge 120, Type (0, 0), BuildingBlock: CIFDUS_clean_linker_0, # of connection points: 2
#     Edge 121, Type (0, 0), BuildingBlock: CIFDUS_clean_linker_0, # of connection points: 2
#     Edge 122, Type (0, 0), BuildingBlock: CIFDUS_clean_linker_0, # of connection points: 2
#     Edge 123, Type (0, 0), BuildingBlock: CIFDUS_clean_linker_0, # of connection points: 2
#     Edge 124, Type (0, 0), BuildingBlock: CIFDUS_clean_linker_0, # of connection points: 2
#     Edge 125, Type (0, 0), BuildingBlock: CIFDUS_clean_linker_0, # of connection points: 2
#     Edge 126, Type (0, 0), BuildingBlock: CIFDUS_clean_linker_0, # of connection points: 2
#     Edge 127, Type (0, 0), BuildingBlock: CIFDUS_clean_linker_0, # of connection points: 2
#     Edge 128, Type (0, 0), BuildingBlock: CIFDUS_clean_linker_0, # of connection points: 2
#     Edge 129, Type (0, 0), BuildingBlock: CIFDUS_clean_linker_0, # of connection points: 2
#     Edge 130, Type (0, 0), BuildingBlock: CIFDUS_clean_linker_0, # of connection points: 2
#     Edge 131, Type (0, 0), BuildingBlock: CIFDUS_clean_linker_0, # of connection points: 2
#     Edge 132, Type (0, 0), BuildingBlock: CIFDUS_clean_linker_0, # of connection points: 2
#     Edge 133, Type (0, 0), BuildingBlock: CIFDUS_clean_linker_0, # of connection points: 2
#     Edge 134, Type (0, 0), BuildingBlock: CIFDUS_clean_linker_0, # of connection points: 2
#     Edge 135, Type (0, 0), BuildingBlock: CIFDUS_clean_linker_0, # of connection points: 2
#     Edge 136, Type (0, 0), BuildingBlock: CIFDUS_clean_linker_0, # of connection points: 2
#     Edge 137, Type (0, 0), BuildingBlock: CIFDUS_clean_linker_0, # of connection points: 2
#     Edge 138, Type (0, 0), BuildingBlock: CIFDUS_clean_linker_0, # of connection points: 2
#     Edge 139, Type (0, 0), BuildingBlock: CIFDUS_clean_linker_0, # of connection points: 2
#     Edge 140, Type (0, 0), BuildingBlock: CIFDUS_clean_linker_0, # of connection points: 2
#     Edge 141, Type (0, 0), BuildingBlock: CIFDUS_clean_linker_0, # of connection points: 2
#     Edge 142, Type (0, 0), BuildingBlock: CIFDUS_clean_linker_0, # of connection points: 2
#     Edge 143, Type (0, 0), BuildingBlock: CIFDUS_clean_linker_0, # of connection points: 2
# Relax obj value: 0.113
# Max RMSD: 0.187
# Mean RMSD: 0.142
data_MOF--net-ana--node1-QUQFOY_clean_sbu_1--edge1-CIFDUS_clean_linker_0
_symmetry_space_group_name_H-M    P1
_symmetry_Int_Tables_number       1
_symmetry_cell_setting            triclinic
loop_
_symmetry_equiv_pos_as_xyz
'x, y, z'
_cell_length_a     58.932891
_cell_length_b     60.653668
_cell_length_c     59.499682
_cell_angle_alpha  91.175498
_cell_angle_beta   91.880774
_cell_angle_gamma 95.896668
loop_
_atom_site_label
_atom_site_type_symbol
_atom_site_fract_x
_atom_site_fract_y
_atom_site_fract_z
_atom_type_partial_charge
O0 O 0.13716 0.13312 0.4463 0.0
Cd1 Cd 0.13986 0.13914 0.41234 0.0
Cd2 Cd 0.12705 0.17963 0.42688 0.0
O3 O 0.13338 0.16717 0.45822 0.0
O4 O 0.15683 0.1145 0.40125 0.0
O5 O 0.1708 0.1497 0.40066 0.0
C6 C 0.17358 0.12907 0.39713 0.0
C7 C 0.13634 0.21738 0.42028 0.0
C8 C 0.13548 0.14698 0.46232 0.0
C9 C 0.09404 0.15032 0.39655 0.0
O10 O 0.09736 0.16669 0.41034 0.0
O11 O 0.10979 0.13791 0.39313 0.0
O12 O 0.12103 0.21064 0.43421 0.0
O13 O 0.14728 0.2027 0.41052 0.0
O14 O 0.0964 0.92501 0.6479 0.0
Cd15 Cd 0.08163 0.89936 0.666 0.0
Cd16 Cd 0.09612 0.87507 0.63035 0.0
O17 O 0.11485 0.90525 0.62439 0.0
O18 O 0.08079 0.91219 0.69686 0.0
O19 O 0.1003 0.88394 0.68844 0.0
C20 C 0.09442 0.89802 0.70321 0.0
C21 C 0.11266 0.84239 0.62242 0.0
C22 C 0.11058 0.92388 0.63246 0.0
C23 C 0.04479 0.87597 0.63787 0.0
O24 O 0.06077 0.87104 0.6254 0.0
O25 O 0.04932 0.88673 0.65624 0.0
O26 O 0.10585 0.8547 0.60672 0.0
O27 O 0.11101 0.84913 0.64299 0.0
O28 O 0.41402 0.82234 0.91848 0.0
Cd29 Cd 0.38247 0.81013 0.92949 0.0
Cd30 Cd 0.37458 0.85296 0.91822 0.0
O31 O 0.40472 0.85224 0.90135 0.0
O32 O 0.38796 0.77943 0.93766 0.0
O33 O 0.36414 0.78633 0.90992 0.0
C34 C 0.37402 0.77207 0.92152 0.0
C35 C 0.34072 0.86223 0.90129 0.0
C36 C 0.4192 0.83868 0.90595 0.0
C37 C 0.37296 0.84188 0.96663 0.0
O38 O 0.37631 0.85747 0.9528 0.0
O39 O 0.37223 0.8218 0.95988 0.0
O40 O 0.35739 0.87719 0.90639 0.0
O41 O 0.34383 0.84174 0.90466 0.0
O42 O 0.42658 0.14474 0.13442 0.0
Cd43 Cd 0.39212 0.14011 0.13984 0.0
Cd44 Cd 0.41116 0.12922 0.18402 0.0
O45 O 0.44132 0.13819 0.16799 0.0
O46 O 0.37872 0.15259 0.11233 0.0
O47 O 0.37547 0.16694 0.14634 0.0
C48 C 0.37173 0.1679 0.12488 0.0
C49 C 0.40973 0.13522 0.22294 0.0
C50 C 0.44379 0.14347 0.14758 0.0
C51 C 0.37928 0.09461 0.1569 0.0
O52 O 0.39203 0.10022 0.17412 0.0
O53 O 0.3767 0.10802 0.14113 0.0
O54 O 0.42274 0.1217 0.21445 0.0
O55 O 0.39813 0.1464 0.20931 0.0
O56 O 0.09944 0.81011 0.11191 0.0
Cd57 Cd 0.1058 0.84238 0.10133 0.0
Cd58 Cd 0.11654 0.82138 0.0641 0.0
O59 O 0.1033 0.793 0.07942 0.0
O60 O 0.0905 0.86025 0.12351 0.0
O61 O 0.07983 0.8572 0.08751 0.0
C62 C 0.07658 0.86476 0.10749 0.0
C63 C 0.1074 0.82991 0.02715 0.0
C64 C 0.09867 0.79231 0.10011 0.0
C65 C 0.15459 0.84849 0.0895 0.0
O66 O 0.149 0.83354 0.07452 0.0
O67 O 0.13943 0.85595 0.1014 0.0
O68 O 0.11899 0.81356 0.03176 0.0
O69 O 0.0997 0.84073 0.0437 0.0
O70 O 0.38545 0.87501 0.30605 0.0
Cd71 Cd 0.39157 0.8768 0.34048 0.0
Cd72 Cd 0.43274 0.87523 0.32834 0.0
O73 O 0.42011 0.89063 0.30065 0.0
O74 O 0.36722 0.89269 0.35398 0.0
O75 O 0.40332 0.90702 0.35254 0.0
C76 C 0.38246 0.90942 0.35742 0.0
C77 C 0.46932 0.88531 0.34346 0.0
C78 C 0.39982 0.88501 0.29334 0.0
C79 C 0.40957 0.83491 0.34815 0.0
O80 O 0.42297 0.84191 0.33296 0.0
O81 O 0.39665 0.84796 0.35696 0.0
O82 O 0.46596 0.87588 0.32386 0.0
O83 O 0.45174 0.89052 0.35403 0.0
O84 O 0.33142 0.17579 0.5843 0.0
Cd85 Cd 0.36104 0.1885 0.56993 0.0
Cd86 Cd 0.38069 0.17744 0.61008 0.0
O87 O 0.34844 0.16115 0.61317 0.0
O88 O 0.35527 0.18822 0.53685 0.0
O89 O 0.37891 0.16706 0.55376 0.0
C90 C 0.3691 0.17314 0.53549 0.0
C91 C 0.41111 0.16004 0.62553 0.0
C92 C 0.33046 0.16392 0.60166 0.0
C93 C 0.38175 0.22627 0.59826 0.0
O94 O 0.3851 0.2118 0.61285 0.0
O95 O 0.37334 0.22037 0.57891 0.0
O96 O 0.39695 0.16902 0.63793 0.0
O97 O 0.40781 0.16051 0.60398 0.0
O98 O 0.11899 0.09826 0.81954 0.0
Cd99 Cd 0.11429 0.09827 0.85387 0.0
Cd100 Cd 0.07184 0.11201 0.83592 0.0
O101 O 0.08434 0.10202 0.80585 0.0
O102 O 0.14238 0.08537 0.86473 0.0
O103 O 0.10786 0.06822 0.86809 0.0
C104 C 0.1297 0.06794 0.87039 0.0
C105 C 0.03252 0.10899 0.84151 0.0
C106 C 0.10499 0.09876 0.80288 0.0
C107 C 0.10332 0.1442 0.86535 0.0
O108 O 0.0873 0.14082 0.85051 0.0
O109 O 0.11509 0.12861 0.87103 0.0
O110 O 0.04168 0.12135 0.82626 0.0
O111 O 0.04547 0.09705 0.85291 0.0
O112 O 0.11435 0.44799 0.12027 0.0
Cd113 Cd 0.1214 0.41516 0.12072 0.0
Cd114 Cd 0.16129 0.43397 0.10526 0.0
O115 O 0.14939 0.46316 0.11559 0.0
O116 O 0.09613 0.40083 0.13842 0.0
O117 O 0.13227 0.40336 0.15024 0.0
C118 C 0.11104 0.39758 0.15401 0.0
C119 C 0.19848 0.42644 0.11467 0.0
C120 C 0.1286 0.46515 0.11938 0.0
C121 C 0.13223 0.4034 0.0737 0.0
O122 O 0.14777 0.41955 0.07544 0.0
O123 O 0.12097 0.39713 0.0907 0.0
O124 O 0.19445 0.44145 0.10047 0.0
O125 O 0.18131 0.416 0.12424 0.0
O126 O 0.66243 0.09103 0.83084 0.0
Cd127 Cd 0.6756 0.07869 0.85988 0.0
Cd128 Cd 0.65737 0.1135 0.87923 0.0
O129 O 0.64158 0.1142 0.84768 0.0
O130 O 0.68085 0.04735 0.85344 0.0
O131 O 0.6546 0.05716 0.87651 0.0
C132 C 0.66438 0.04171 0.86657 0.0
C133 C 0.6371 0.1192 0.9115 0.0
C134 C 0.64748 0.1047 0.82986 0.0
C135 C 0.7086 0.11358 0.88141 0.0
O136 O 0.69158 0.12461 0.88361 0.0
O137 O 0.70584 0.0939 0.87338 0.0
O138 O 0.64251 0.13502 0.89795 0.0
O139 O 0.64215 0.09959 0.90608 0.0
O140 O 0.84247 0.91073 0.3331 0.0
Cd141 Cd 0.83247 0.92211 0.36356 0.0
Cd142 Cd 0.85036 0.88703 0.37747 0.0
O143 O 0.86722 0.88955 0.34745 0.0
O144 O 0.8297 0.95436 0.36055 0.0
O145 O 0.85682 0.94088 0.38125 0.0
C146 C 0.84812 0.95779 0.37303 0.0
C147 C 0.86693 0.88574 0.41318 0.0
C148 C 0.85893 0.899 0.33062 0.0
C149 C 0.80009 0.88617 0.37916 0.0
O150 O 0.81658 0.87444 0.37709 0.0
O151 O 0.8032 0.90701 0.37676 0.0
O152 O 0.86551 0.8687 0.39963 0.0
O153 O 0.86089 0.90413 0.40557 0.0
O154 O 0.79838 0.11561 0.12508 0.0
Cd155 Cd 0.83225 0.10909 0.12697 0.0
Cd156 Cd 0.81306 0.07038 0.14005 0.0
O157 O 0.78285 0.08132 0.12862 0.0
O158 O 0.84847 0.13342 0.10987 0.0
O159 O 0.84623 0.09819 0.09893 0.0
C160 C 0.85283 0.1187 0.09512 0.0
C161 C 0.8265 0.03763 0.12738 0.0
C162 C 0.78076 0.10161 0.125 0.0
C163 C 0.84139 0.09769 0.17454 0.0
O164 O 0.82537 0.08214 0.17133 0.0
O165 O 0.84865 0.10935 0.15826 0.0
O166 O 0.80949 0.03732 0.14054 0.0
O167 O 0.83532 0.05661 0.12058 0.0
O168 O 0.30185 0.61615 0.6236 0.0
Cd169 Cd 0.33658 0.61248 0.62425 0.0
Cd170 Cd 0.32176 0.57222 0.64058 0.0
O171 O 0.29042 0.58124 0.63015 0.0
O172 O 0.35024 0.63653 0.60514 0.0
O173 O 0.35014 0.60093 0.59624 0.0
C174 C 0.35531 0.62142 0.59116 0.0
C175 C 0.33087 0.53653 0.63172 0.0
C176 C 0.28582 0.60059 0.62518 0.0
C177 C 0.35142 0.6031 0.67139 0.0
O178 O 0.33678 0.58619 0.67009 0.0
O179 O 0.35542 0.61497 0.65434 0.0
O180 O 0.31578 0.53996 0.64622 0.0
O181 O 0.3407 0.55344 0.62171 0.0
O182 O 0.17696 0.57982 0.32739 0.0
Cd183 Cd 0.18939 0.56825 0.35712 0.0
Cd184 Cd 0.17013 0.60253 0.37469 0.0
O185 O 0.15509 0.603 0.34271 0.0
O186 O 0.19482 0.53678 0.35183 0.0
O187 O 0.16809 0.54725 0.37395 0.0
C188 C 0.17805 0.53152 0.36474 0.0
C189 C 0.14975 0.60591 0.40731 0.0
C190 C 0.16193 0.59332 0.3254 0.0
C191 C 0.22133 0.60412 0.37804 0.0
O192 O 0.20396 0.6148 0.37943 0.0
O193 O 0.21919 0.58417 0.37079 0.0
O194 O 0.15413 0.62244 0.39431 0.0
O195 O 0.15563 0.58687 0.40094 0.0
O196 O 0.33973 0.41073 0.83648 0.0
Cd197 Cd 0.32663 0.42027 0.86637 0.0
Cd198 Cd 0.34638 0.38614 0.88092 0.0
O199 O 0.36512 0.39118 0.85232 0.0
O200 O 0.32019 0.45161 0.86317 0.0
O201 O 0.34796 0.44127 0.88542 0.0
C202 C 0.33754 0.45694 0.87669 0.0
C203 C 0.36139 0.3813 0.91677 0.0
C204 C 0.35736 0.4004 0.83509 0.0
C205 C 0.2959 0.38169 0.8794 0.0
O206 O 0.31342 0.37125 0.87801 0.0
O207 O 0.29769 0.40262 0.87758 0.0
O208 O 0.36169 0.36622 0.90119 0.0
O209 O 0.35456 0.40012 0.91129 0.0
O210 O 0.86994 0.86841 0.55486 0.0
Cd211 Cd 0.86676 0.86821 0.58937 0.0
Cd212 Cd 0.876 0.82417 0.58216 0.0
O213 O 0.86886 0.83227 0.54947 0.0
O214 O 0.8521 0.89571 0.59579 0.0
O215 O 0.83533 0.86223 0.60202 0.0
C216 C 0.83436 0.88342 0.60198 0.0
C217 C 0.86778 0.78668 0.59065 0.0
C218 C 0.86919 0.85161 0.54164 0.0
C219 C 0.91136 0.85649 0.60727 0.0
O220 O 0.9065 0.83822 0.5965 0.0
O221 O 0.89676 0.87047 0.60862 0.0
O222 O 0.88291 0.79318 0.57652 0.0
O223 O 0.85676 0.80144 0.60012 0.0
O224 O 0.9147 0.08069 0.34117 0.0
Cd225 Cd 0.92897 0.10787 0.3248 0.0
Cd226 Cd 0.91138 0.13079 0.35791 0.0
O227 O 0.89304 0.10013 0.36177 0.0
O228 O 0.93111 0.10023 0.29238 0.0
O229 O 0.90758 0.12345 0.30554 0.0
C230 C 0.91523 0.113 0.28869 0.0
C231 C 0.89262 0.16249 0.36368 0.0
C232 C 0.89866 0.08158 0.35479 0.0
C233 C 0.96304 0.13194 0.35559 0.0
O234 O 0.94593 0.13568 0.36703 0.0
O235 O 0.96015 0.12204 0.33658 0.0
O236 O 0.89799 0.15025 0.38004 0.0
O237 O 0.89717 0.15627 0.34357 0.0
O238 O 0.57448 0.16059 0.09031 0.0
Cd239 Cd 0.60439 0.17171 0.07534 0.0
Cd240 Cd 0.61504 0.13099 0.09057 0.0
O241 O 0.58622 0.13282 0.10933 0.0
O242 O 0.59841 0.202 0.06614 0.0
O243 O 0.62444 0.19617 0.0923 0.0
C244 C 0.61354 0.20996 0.08103 0.0
C245 C 0.64978 0.12252 0.10627 0.0
C246 C 0.571 0.14564 0.10482 0.0
C247 C 0.61205 0.13662 0.04082 0.0
O248 O 0.61121 0.12287 0.05668 0.0
O249 O 0.61178 0.15721 0.04511 0.0
O250 O 0.63263 0.10759 0.10342 0.0
O251 O 0.64676 0.14272 0.10141 0.0
O252 O 0.55457 0.86794 0.86239 0.0
Cd253 Cd 0.58971 0.8732 0.85938 0.0
Cd254 Cd 0.57377 0.88809 0.81815 0.0
O255 O 0.54247 0.8743 0.82788 0.0
O256 O 0.60051 0.85952 0.88744 0.0
O257 O 0.6071 0.84654 0.85366 0.0
C258 C 0.6087 0.84469 0.87523 0.0
C259 C 0.5854 0.88285 0.78137 0.0
C260 C 0.53836 0.86835 0.84779 0.0
C261 C 0.59908 0.92157 0.85016 0.0
O262 O 0.58531 0.91809 0.8333 0.0
O263 O 0.60518 0.90557 0.86161 0.0
O264 O 0.56913 0.89474 0.78578 0.0
O265 O 0.59486 0.87326 0.79789 0.0
O266 O 0.89325 0.20097 0.89561 0.0
Cd267 Cd 0.88939 0.1671 0.9009 0.0
Cd268 Cd 0.87238 0.18136 0.94034 0.0
O269 O 0.88391 0.21222 0.92921 0.0
O270 O 0.90736 0.15421 0.87707 0.0
O271 O 0.91564 0.15159 0.91334 0.0
C272 C 0.92034 0.14735 0.89273 0.0
C273 C 0.87786 0.17336 0.97819 0.0
C274 C 0.89062 0.2166 0.90958 0.0
C275 C 0.83994 0.15403 0.90833 0.0
O276 O 0.84233 0.16667 0.92571 0.0
O277 O 0.85702 0.15072 0.8967 0.0
O278 O 0.86446 0.18769 0.97184 0.0
O279 O 0.88886 0.16376 0.96302 0.0
O280 O 0.58581 0.16608 0.65858 0.0
Cd281 Cd 0.57228 0.1365 0.67127 0.0
Cd282 Cd 0.60805 0.12235 0.65228 0.0
O283 O 0.60847 0.15167 0.63489 0.0
O284 O 0.5404 0.14155 0.6778 0.0
O285 O 0.54919 0.11855 0.65081 0.0
C286 C 0.53388 0.12842 0.66098 0.0
C287 C 0.60958 0.08769 0.63532 0.0
C288 C 0.599 0.16823 0.64212 0.0
C289 C 0.60772 0.1227 0.70252 0.0
O290 O 0.61993 0.12316 0.6853 0.0
O291 O 0.58672 0.12563 0.70052 0.0
O292 O 0.62735 0.10202 0.637 0.0
O293 O 0.59036 0.09376 0.64174 0.0
O294 O 0.669 0.82961 0.41769 0.0
Cd295 Cd 0.63845 0.81502 0.42839 0.0
Cd296 Cd 0.62054 0.83339 0.39165 0.0
O297 O 0.65314 0.84959 0.39215 0.0
O298 O 0.64061 0.81192 0.46154 0.0
O299 O 0.61917 0.83508 0.44446 0.0
C300 C 0.62713 0.82735 0.46288 0.0
C301 C 0.59124 0.85401 0.37923 0.0
C302 C 0.67071 0.84456 0.40304 0.0
C303 C 0.61883 0.78304 0.39338 0.0
O304 O 0.61578 0.8001 0.38204 0.0
O305 O 0.62669 0.78508 0.41352 0.0
O306 O 0.6059 0.84736 0.36577 0.0
O307 O 0.59334 0.84925 0.4002 0.0
O308 O 0.87689 0.89076 0.18519 0.0
Cd309 Cd 0.88308 0.88909 0.15125 0.0
Cd310 Cd 0.92529 0.88398 0.16949 0.0
O311 O 0.91242 0.89557 0.19858 0.0
O312 O 0.85488 0.89973 0.1379 0.0
O313 O 0.88891 0.91846 0.13593 0.0
C314 C 0.86706 0.91756 0.13243 0.0
C315 C 0.96319 0.89382 0.16055 0.0
C316 C 0.89114 0.89492 0.2016 0.0
C317 C 0.89895 0.84475 0.14556 0.0
O318 O 0.91422 0.85178 0.16028 0.0
O319 O 0.88578 0.85793 0.137 0.0
O320 O 0.95794 0.88238 0.17795 0.0
O321 O 0.94683 0.9008 0.14857 0.0
O322 O 0.87334 0.55029 0.87797 0.0
Cd323 Cd 0.87276 0.58412 0.8737 0.0
Cd324 Cd 0.83003 0.57362 0.89345 0.0
O325 O 0.83739 0.54169 0.88639 0.0
O326 O 0.90022 0.59166 0.85565 0.0
O327 O 0.86526 0.59539 0.84284 0.0
C328 C 0.8869 0.59685 0.83945 0.0
C329 C 0.79253 0.5826 0.88725 0.0
C330 C 0.85686 0.5358 0.88187 0.0
C331 C 0.86591 0.60393 0.91915 0.0
O332 O 0.8478 0.59071 0.92002 0.0
O333 O 0.87724 0.60549 0.90136 0.0
O334 O 0.79773 0.56957 0.90299 0.0
O335 O 0.80859 0.59037 0.87445 0.0
O336 O 0.33842 0.91695 0.16978 0.0
Cd337 Cd 0.32088 0.93046 0.14378 0.0
Cd338 Cd 0.3296 0.89161 0.12308 0.0
O339 O 0.34488 0.88524 0.15358 0.0
O340 O 0.31923 0.96113 0.15518 0.0
O341 O 0.33727 0.95347 0.12441 0.0
C342 C 0.33139 0.96803 0.13865 0.0
C343 C 0.34748 0.88603 0.08943 0.0
C344 C 0.34655 0.89838 0.17057 0.0
C345 C 0.28046 0.90026 0.12655 0.0
O346 O 0.29469 0.88726 0.12025 0.0
O347 O 0.28728 0.91861 0.13643 0.0
O348 O 0.33927 0.86965 0.10117 0.0
O349 O 0.34651 0.90588 0.09741 0.0
O350 O 0.15685 0.0918 0.67126 0.0
Cd351 Cd 0.16931 0.08443 0.64037 0.0
Cd352 Cd 0.15136 0.12118 0.6294 0.0
O353 O 0.13397 0.11579 0.6589 0.0
O354 O 0.17335 0.05221 0.63982 0.0
O355 O 0.14707 0.06691 0.6191 0.0
C356 C 0.1561 0.04953 0.62574 0.0
C357 C 0.13502 0.1266 0.59418 0.0
C358 C 0.14087 0.10392 0.67462 0.0
C359 C 0.20191 0.12268 0.62916 0.0
O360 O 0.1851 0.13404 0.63103 0.0
O361 O 0.19906 0.1017 0.63048 0.0
O362 O 0.13604 0.14183 0.60977 0.0
O363 O 0.14137 0.10751 0.59936 0.0
O364 O 0.19283 0.86516 0.87499 0.0
Cd365 Cd 0.1587 0.8693 0.87172 0.0
Cd366 Cd 0.17566 0.9119 0.86394 0.0
O367 O 0.20662 0.90024 0.87326 0.0
O368 O 0.14313 0.84313 0.88655 0.0
O369 O 0.14223 0.87754 0.89931 0.0
C370 C 0.1369 0.85653 0.90172 0.0
C371 C 0.16492 0.94565 0.87758 0.0
C372 C 0.20973 0.87997 0.87592 0.0
C373 C 0.14879 0.88567 0.82616 0.0
O374 O 0.16131 0.9032 0.83241 0.0
O375 O 0.14467 0.86991 0.83965 0.0
O376 O 0.18128 0.94492 0.8638 0.0
O377 O 0.15542 0.92709 0.88476 0.0
O378 O 0.70147 0.37989 0.37302 0.0
Cd379 Cd 0.66649 0.37872 0.37296 0.0
Cd380 Cd 0.67638 0.4249 0.36428 0.0
O381 O 0.70912 0.41619 0.37109 0.0
O382 O 0.65615 0.35133 0.38904 0.0
O383 O 0.65139 0.385 0.4019 0.0
C384 C 0.64913 0.3638 0.40462 0.0
C385 C 0.66849 0.46118 0.37291 0.0
C386 C 0.71583 0.397 0.37307 0.0
C387 C 0.64771 0.3941 0.33001 0.0
O388 O 0.65793 0.41297 0.33566 0.0
O389 O 0.64861 0.37763 0.34269 0.0
O390 O 0.68242 0.45699 0.35757 0.0
O391 O 0.65974 0.44481 0.38442 0.0
O392 O 0.8414 0.41468 0.66725 0.0
Cd393 Cd 0.82869 0.42704 0.63809 0.0
Cd394 Cd 0.84547 0.39269 0.61948 0.0
O395 O 0.86284 0.39218 0.65027 0.0
O396 O 0.82682 0.45929 0.64304 0.0
O397 O 0.8512 0.44554 0.62025 0.0
C398 C 0.84356 0.46256 0.62963 0.0
C399 C 0.86334 0.3901 0.58536 0.0
C400 C 0.85676 0.40145 0.66815 0.0
C401 C 0.79455 0.39262 0.61855 0.0
O402 O 0.81128 0.38111 0.61698 0.0
O403 O 0.79786 0.41276 0.62515 0.0
O404 O 0.85981 0.37319 0.59805 0.0
O405 O 0.85802 0.40898 0.59281 0.0
O406 O 0.65953 0.57465 0.07119 0.0
Cd407 Cd 0.67175 0.56443 0.10139 0.0
Cd408 Cd 0.63206 0.57549 0.11423 0.0
O409 O 0.6324 0.5931 0.08441 0.0
O410 O 0.7047 0.56516 0.09599 0.0
O411 O 0.69075 0.58664 0.12159 0.0
C412 C 0.70803 0.58108 0.11079 0.0
C413 C 0.62558 0.59148 0.14911 0.0
C414 C 0.64453 0.58796 0.06819 0.0
C415 C 0.63974 0.52691 0.11317 0.0
O416 O 0.62527 0.54112 0.11325 0.0
O417 O 0.6607 0.533 0.11054 0.0
O418 O 0.60913 0.5865 0.13445 0.0
O419 O 0.64605 0.58854 0.14341 0.0
O420 O 0.63956 0.64274 0.93825 0.0
Cd421 Cd 0.64212 0.64891 0.90435 0.0
Cd422 Cd 0.62768 0.68776 0.92045 0.0
O423 O 0.63576 0.67618 0.95183 0.0
O424 O 0.65892 0.62381 0.89395 0.0
O425 O 0.67331 0.65879 0.89257 0.0
C426 C 0.67594 0.63803 0.88978 0.0
C427 C 0.63602 0.72475 0.91057 0.0
C428 C 0.63818 0.65588 0.95496 0.0
C429 C 0.59514 0.65766 0.89045 0.0
O430 O 0.59788 0.67321 0.90522 0.0
O431 O 0.61175 0.64686 0.8854 0.0
O432 O 0.62149 0.71909 0.92566 0.0
O433 O 0.64701 0.70948 0.90188 0.0
O434 O 0.57314 0.4034 0.16437 0.0
Cd435 Cd 0.56287 0.37356 0.17815 0.0
Cd436 Cd 0.57646 0.35853 0.13907 0.0
O437 O 0.5908 0.39093 0.1354 0.0
O438 O 0.56296 0.38113 0.21066 0.0
O439 O 0.5852 0.35753 0.19621 0.0
C440 C 0.57905 0.36846 0.21346 0.0
C441 C 0.5967 0.32834 0.1308 0.0
C442 C 0.58529 0.40702 0.14737 0.0
C443 C 0.52574 0.35324 0.14854 0.0
O444 O 0.54132 0.35214 0.13437 0.0
O445 O 0.5307 0.36018 0.16854 0.0
O446 O 0.58892 0.34022 0.11517 0.0
O447 O 0.5939 0.33427 0.15143 0.0
O448 O 0.91841 0.33132 0.40642 0.0
Cd449 Cd 0.88857 0.31902 0.42082 0.0
Cd450 Cd 0.87838 0.36047 0.41144 0.0
O451 O 0.90727 0.362 0.39246 0.0
O452 O 0.89439 0.28806 0.42719 0.0
O453 O 0.86775 0.29607 0.40258 0.0
C454 C 0.87854 0.28137 0.41254 0.0
C455 C 0.84207 0.36371 0.39624 0.0
C456 C 0.92219 0.34838 0.39452 0.0
C457 C 0.88202 0.34993 0.45977 0.0
O458 O 0.88227 0.36557 0.44587 0.0
O459 O 0.8823 0.33005 0.45274 0.0
O460 O 0.85652 0.38097 0.40011 0.0
O461 O 0.84873 0.34442 0.40007 0.0
O462 O 0.93799 0.64129 0.63162 0.0
Cd463 Cd 0.90449 0.63723 0.64196 0.0
Cd464 Cd 0.9256 0.61633 0.6746 0.0
O465 O 0.95564 0.62991 0.66179 0.0
O466 O 0.88901 0.65596 0.6205 0.0
O467 O 0.89214 0.66351 0.65699 0.0
C468 C 0.88559 0.66899 0.63712 0.0
C469 C 0.91621 0.62083 0.71196 0.0
C470 C 0.95638 0.63838 0.64246 0.0
C471 C 0.89244 0.58838 0.64518 0.0
O472 O 0.90994 0.58849 0.65821 0.0
O473 O 0.88567 0.60645 0.63853 0.0
O474 O 0.9315 0.60818 0.70627 0.0
O475 O 0.90686 0.63181 0.69639 0.0
O476 O 0.60692 0.31034 0.61271 0.0
Cd477 Cd 0.61249 0.34341 0.60427 0.0
Cd478 Cd 0.6286 0.32451 0.56739 0.0
O479 O 0.61565 0.29501 0.58064 0.0
O480 O 0.59645 0.35881 0.62784 0.0
O481 O 0.58614 0.35879 0.59181 0.0
C482 C 0.5827 0.36465 0.61231 0.0
C483 C 0.62137 0.3335 0.53022 0.0
C484 C 0.6086 0.29315 0.60052 0.0
C485 C 0.66233 0.35317 0.59626 0.0
O486 O 0.65946 0.33841 0.58071 0.0
O487 O 0.64539 0.35887 0.6068 0.0
O488 O 0.63413 0.31816 0.53532 0.0
O489 O 0.61166 0.34313 0.54634 0.0
O490 O 0.88404 0.38056 0.812 0.0
Cd491 Cd 0.89535 0.37993 0.8452 0.0
Cd492 Cd 0.93215 0.37024 0.82595 0.0
O493 O 0.9182 0.38336 0.79775 0.0
O494 O 0.87595 0.39933 0.86188 0.0
O495 O 0.91276 0.40825 0.85663 0.0
C496 C 0.89358 0.41386 0.86365 0.0
C497 C 0.96973 0.37844 0.83897 0.0
C498 C 0.8968 0.38405 0.79535 0.0
C499 C 0.90676 0.33417 0.85054 0.0
O500 O 0.91936 0.33881 0.83404 0.0
O501 O 0.89701 0.34936 0.86024 0.0
O502 O 0.96474 0.36746 0.82036 0.0
O503 O 0.95335 0.38636 0.8494 0.0
O504 O 0.83251 0.66295 0.07738 0.0
Cd505 Cd 0.86347 0.67933 0.06985 0.0
Cd506 Cd 0.87187 0.67238 0.11451 0.0
O507 O 0.83993 0.65488 0.1127 0.0
O508 O 0.8632 0.67833 0.03646 0.0
O509 O 0.88582 0.65965 0.05765 0.0
C510 C 0.87799 0.66414 0.0379 0.0
C511 C 0.90229 0.65606 0.13082 0.0
C512 C 0.82656 0.65353 0.09544 0.0
C513 C 0.87428 0.71979 0.09918 0.0
O514 O 0.87478 0.70658 0.11547 0.0
O515 O 0.87073 0.71234 0.07913 0.0
O516 O 0.8871 0.66398 0.14288 0.0
O517 O 0.89988 0.65691 0.10919 0.0
O518 O 0.63008 0.61388 0.29664 0.0
Cd519 Cd 0.62658 0.61405 0.33128 0.0
Cd520 Cd 0.58429 0.6252 0.31722 0.0
O521 O 0.59401 0.61484 0.28608 0.0
O522 O 0.65395 0.60017 0.34224 0.0
O523 O 0.61876 0.58469 0.3462 0.0
C524 C 0.64048 0.58361 0.34872 0.0
C525 C 0.54727 0.61737 0.32969 0.0
C526 C 0.61455 0.6129 0.28118 0.0
C527 C 0.61483 0.65928 0.34396 0.0
O528 O 0.59839 0.65556 0.32961 0.0
O529 O 0.62732 0.64404 0.34884 0.0
O530 O 0.55162 0.63007 0.31295 0.0
O531 O 0.56381 0.60762 0.33845 0.0
O532 O 0.62839 0.9508 0.61789 0.0
Cd533 Cd 0.62906 0.91672 0.61983 0.0
Cd534 Cd 0.67204 0.92819 0.60536 0.0
O535 O 0.66537 0.95956 0.61503 0.0
O536 O 0.60152 0.90733 0.63712 0.0
O537 O 0.63656 0.90398 0.65001 0.0
C538 C 0.61487 0.9019 0.65322 0.0
C539 C 0.70791 0.91628 0.61356 0.0
C540 C 0.64547 0.96539 0.61742 0.0
C541 C 0.63846 0.90213 0.57353 0.0
O542 O 0.65648 0.91551 0.57565 0.0
O543 O 0.62594 0.8979 0.59021 0.0
O544 O 0.70524 0.93146 0.59916 0.0
O545 O 0.69019 0.90812 0.62398 0.0
O546 O 0.35404 0.37188 0.0641 0.0
Cd547 Cd 0.35023 0.36452 0.09768 0.0
Cd548 Cd 0.3581 0.32428 0.08206 0.0
O549 O 0.35249 0.33747 0.05099 0.0
O550 O 0.33307 0.38845 0.10994 0.0
O551 O 0.31889 0.35321 0.10751 0.0
C552 C 0.31603 0.37362 0.11229 0.0
C553 C 0.34579 0.28769 0.09067 0.0
C554 C 0.35344 0.35816 0.0476 0.0
C555 C 0.39416 0.34925 0.11235 0.0
O556 O 0.38917 0.33415 0.09741 0.0
O557 O 0.37974 0.36268 0.11724 0.0
O558 O 0.36046 0.29234 0.07546 0.0
O559 O 0.33667 0.30389 0.10001 0.0
O560 O 0.41898 0.57639 0.84376 0.0
Cd561 Cd 0.42792 0.60562 0.82792 0.0
Cd562 Cd 0.41179 0.62382 0.86438 0.0
O563 O 0.3976 0.59138 0.86845 0.0
O564 O 0.42603 0.60053 0.79472 0.0
O565 O 0.40222 0.61975 0.8133 0.0
C566 C 0.40832 0.61144 0.79453 0.0
C567 C 0.39078 0.65373 0.87178 0.0
C568 C 0.40476 0.57435 0.85936 0.0
C569 C 0.4628 0.63091 0.85691 0.0
O570 O 0.4466 0.63171 0.87043 0.0
O571 O 0.4589 0.62236 0.83734 0.0
O572 O 0.39818 0.64197 0.8877 0.0
O573 O 0.39426 0.64776 0.85132 0.0
O574 O 0.0841 0.66973 0.58149 0.0
Cd575 Cd 0.11292 0.68333 0.56609 0.0
Cd576 Cd 0.12726 0.64347 0.57813 0.0
O577 O 0.09815 0.64106 0.59692 0.0
O578 O 0.10526 0.71363 0.55891 0.0
O579 O 0.13284 0.70767 0.58338 0.0
C580 C 0.12102 0.72149 0.57321 0.0
C581 C 0.16328 0.6397 0.59417 0.0
C582 C 0.08194 0.65321 0.59433 0.0
C583 C 0.12257 0.65133 0.52897 0.0
O584 O 0.12404 0.63678 0.54387 0.0
O585 O 0.12002 0.6712 0.5347 0.0
O586 O 0.14848 0.62273 0.59025 0.0
O587 O 0.1572 0.6591 0.58984 0.0
O588 O 0.06746 0.35819 0.36548 0.0
Cd589 Cd 0.10175 0.36367 0.35827 0.0
Cd590 Cd 0.08213 0.37984 0.32071 0.0
O591 O 0.05194 0.36569 0.33264 0.0
O592 O 0.11626 0.34706 0.38244 0.0
O593 O 0.117 0.3376 0.34647 0.0
C594 C 0.12175 0.33338 0.3672 0.0
C595 C 0.09135 0.37505 0.28321 0.0
C596 C 0.04991 0.35903 0.35262 0.0
C597 C 0.11027 0.41234 0.35128 0.0
O598 O 0.09475 0.40946 0.33587 0.0
O599 O 0.11763 0.39587 0.36101 0.0
O600 O 0.07524 0.3867 0.28882 0.0
O601 O 0.10198 0.36541 0.29894 0.0
O602 O 0.40222 0.70071 0.38916 0.0
Cd603 Cd 0.4002 0.66649 0.39152 0.0
Cd604 Cd 0.38266 0.67926 0.43451 0.0
O605 O 0.39324 0.71042 0.42346 0.0
O606 O 0.41344 0.65809 0.36258 0.0
O607 O 0.42895 0.65098 0.39551 0.0
C608 C 0.42953 0.65003 0.37384 0.0
C609 C 0.38538 0.67261 0.47308 0.0
C610 C 0.39938 0.71564 0.40384 0.0
C611 C 0.35145 0.65092 0.40168 0.0
O612 O 0.35361 0.66331 0.41923 0.0
O613 O 0.36835 0.64873 0.3894 0.0
O614 O 0.37211 0.68628 0.46502 0.0
O615 O 0.39794 0.66302 0.45932 0.0
O616 O 0.07779 0.66852 0.16515 0.0
Cd617 Cd 0.06463 0.63915 0.1785 0.0
Cd618 Cd 0.10273 0.62485 0.16132 0.0
O619 O 0.10257 0.6541 0.14379 0.0
O620 O 0.03248 0.64383 0.18413 0.0
O621 O 0.04221 0.62008 0.1583 0.0
C622 C 0.02648 0.62993 0.16782 0.0
C623 C 0.11004 0.59192 0.14328 0.0
C624 C 0.09197 0.67046 0.14952 0.0
C625 C 0.09889 0.62602 0.21177 0.0
O626 O 0.11194 0.62552 0.19521 0.0
O627 O 0.07817 0.62956 0.20864 0.0
O628 O 0.12596 0.60786 0.14729 0.0
O629 O 0.08948 0.59515 0.14845 0.0
O630 O 0.16753 0.32109 0.92044 0.0
Cd631 Cd 0.1377 0.30733 0.93353 0.0
Cd632 Cd 0.11755 0.32218 0.89504 0.0
O633 O 0.15019 0.33797 0.89331 0.0
O634 O 0.1411 0.30736 0.96685 0.0
O635 O 0.11865 0.32856 0.94823 0.0
C636 C 0.12727 0.32255 0.96713 0.0
C637 C 0.0887 0.34155 0.87926 0.0
C638 C 0.16829 0.33439 0.90422 0.0
C639 C 0.11577 0.2722 0.9028 0.0
O640 O 0.11185 0.28805 0.89004 0.0
O641 O 0.12538 0.27613 0.92206 0.0
O642 O 0.10301 0.33254 0.86709 0.0
O643 O 0.09084 0.33985 0.90081 0.0
O644 O 0.38606 0.39446 0.69146 0.0
Cd645 Cd 0.39585 0.39307 0.65845 0.0
Cd646 Cd 0.43459 0.38559 0.67917 0.0
O647 O 0.42045 0.39736 0.70755 0.0
O648 O 0.37177 0.4077 0.64207 0.0
O649 O 0.40784 0.42204 0.64511 0.0
C650 C 0.38698 0.42407 0.63876 0.0
C651 C 0.47217 0.39565 0.66987 0.0
C652 C 0.39905 0.39772 0.70894 0.0
C653 C 0.40947 0.34784 0.65284 0.0
O654 O 0.42347 0.35366 0.66906 0.0
O655 O 0.39786 0.36204 0.64371 0.0
O656 O 0.46728 0.38435 0.68748 0.0
O657 O 0.45562 0.40261 0.65814 0.0
O658 O 0.37289 0.05321 0.37623 0.0
Cd659 Cd 0.36512 0.08584 0.37816 0.0
Cd660 Cd 0.32708 0.0659 0.39539 0.0
O661 O 0.33877 0.03713 0.38348 0.0
O662 O 0.38718 0.10226 0.35822 0.0
O663 O 0.34989 0.09853 0.35123 0.0
C664 C 0.3701 0.10577 0.34515 0.0
C665 C 0.28963 0.07397 0.38816 0.0
C666 C 0.35921 0.03572 0.37791 0.0
C667 C 0.35773 0.09541 0.42651 0.0
O668 O 0.34206 0.07938 0.425 0.0
O669 O 0.36792 0.10234 0.4091 0.0
O670 O 0.29419 0.0584 0.40151 0.0
O671 O 0.30637 0.08458 0.3781 0.0
H672 H 0.12763 0.31848 0.40933 0.0
H673 H 0.13564 0.30081 0.33964 0.0
H674 H 0.14451 0.26382 0.35045 0.0
H675 H 0.14511 0.23507 0.37939 0.0
H676 H 0.13347 0.25251 0.44837 0.0
H677 H 0.13124 0.29105 0.43825 0.0
C678 C 0.1317 0.30671 0.39648 0.0
C679 C 0.13079 0.31238 0.37368 0.0
C680 C 0.13602 0.28532 0.40274 0.0
C681 C 0.13612 0.29686 0.35731 0.0
C682 C 0.14112 0.27567 0.36348 0.0
C683 C 0.14267 0.24748 0.39223 0.0
C684 C 0.13949 0.24105 0.41459 0.0
C685 C 0.14044 0.26949 0.3861 0.0
C686 C 0.13594 0.25713 0.43106 0.0
C687 C 0.13457 0.27913 0.42526 0.0
H688 H 0.00676 0.89316 0.6523 0.0
H689 H 0.02897 0.84346 0.60741 0.0
H690 H 0.98949 0.83231 0.59511 0.0
H691 H 0.94899 0.83731 0.59623 0.0
H692 H 0.92649 0.88832 0.63926 0.0
H693 H 0.96582 0.89827 0.65328 0.0
C694 C 0.00293 0.87981 0.63992 0.0
C695 C 0.02077 0.86914 0.63079 0.0
C696 C 0.98019 0.87374 0.6326 0.0
C697 C 0.01557 0.85202 0.61461 0.0
C698 C 0.993 0.84559 0.6076 0.0
C699 C 0.95261 0.85048 0.60884 0.0
C700 C 0.93482 0.86198 0.61678 0.0
C701 C 0.97522 0.85642 0.61638 0.0
C702 C 0.93989 0.87921 0.63288 0.0
C703 C 0.96236 0.88491 0.64088 0.0
H704 H 0.36597 0.75205 0.88014 0.0
H705 H 0.37651 0.73851 0.95038 0.0
H706 H 0.37923 0.69954 0.94117 0.0
H707 H 0.3838 0.67067 0.91311 0.0
H708 H 0.37633 0.68423 0.8425 0.0
H709 H 0.36689 0.72163 0.85184 0.0
C710 C 0.36829 0.7404 0.89341 0.0
C711 C 0.37114 0.7481 0.91589 0.0
C712 C 0.37069 0.71808 0.88789 0.0
C713 C 0.37441 0.73296 0.93294 0.0
C714 C 0.37604 0.71069 0.92769 0.0
C715 C 0.37974 0.68163 0.89971 0.0
C716 C 0.38104 0.67472 0.87713 0.0
C717 C 0.37502 0.70325 0.90519 0.0
C718 C 0.37558 0.68915 0.86003 0.0
C719 C 0.37027 0.7106 0.86537 0.0
H720 H 0.48266 0.12645 0.16204 0.0
H721 H 0.45651 0.16911 0.11239 0.0
H722 H 0.49371 0.17397 0.09534 0.0
H723 H 0.53304 0.16515 0.09359 0.0
H724 H 0.55928 0.12103 0.14173 0.0
H725 H 0.52263 0.11761 0.16025 0.0
C726 C 0.48522 0.13699 0.14764 0.0
C727 C 0.46688 0.14746 0.13852 0.0
C728 C 0.50657 0.13928 0.13753 0.0
C729 C 0.47033 0.16082 0.11968 0.0
C730 C 0.49159 0.1636 0.10991 0.0
C731 C 0.53084 0.15482 0.10819 0.0
C732 C 0.54892 0.14337 0.11624 0.0
C733 C 0.50972 0.15272 0.11853 0.0
C734 C 0.54564 0.12996 0.13511 0.0
C735 C 0.52469 0.12804 0.14574 0.0
H736 H 0.07662 0.7097 0.16117 0.0
H737 H 0.11472 0.67884 0.11069 0.0
H738 H 0.11888 0.71346 0.0902 0.0
H739 H 0.11205 0.75265 0.08685 0.0
H740 H 0.07548 0.78375 0.13834 0.0
H741 H 0.07014 0.74877 0.15806 0.0
C742 C 0.08586 0.7105 0.14569 0.0
C743 C 0.09533 0.69166 0.1375 0.0
C744 C 0.08832 0.73047 0.13409 0.0
C745 C 0.10733 0.69309 0.11745 0.0
C746 C 0.10964 0.71286 0.10567 0.0
C747 C 0.10268 0.75168 0.10225 0.0
C748 C 0.09402 0.77072 0.11104 0.0
C749 C 0.10018 0.73165 0.11381 0.0
C750 C 0.08228 0.76932 0.13122 0.0
C751 C 0.07926 0.74935 0.14253 0.0
H752 H 0.50948 0.88562 0.32299 0.0
H753 H 0.48052 0.88768 0.38851 0.0
H754 H 0.51707 0.88041 0.40609 0.0
H755 H 0.55546 0.8679 0.40207 0.0
H756 H 0.5835 0.86546 0.336 0.0
H757 H 0.54922 0.87853 0.3195 0.0
C758 C 0.51131 0.88497 0.34117 0.0
C759 C 0.4923 0.88687 0.35441 0.0
C760 C 0.53214 0.88033 0.35105 0.0
C761 C 0.49494 0.88627 0.37795 0.0
C762 C 0.51578 0.88188 0.38799 0.0
C763 C 0.55419 0.87058 0.38413 0.0
C764 C 0.57185 0.86526 0.37026 0.0
C765 C 0.53423 0.87799 0.37461 0.0
C766 C 0.57006 0.86909 0.34706 0.0
C767 C 0.55044 0.87658 0.33756 0.0
H768 H 0.40447 0.24456 0.63563 0.0
H769 H 0.36945 0.26165 0.57457 0.0
H770 H 0.37487 0.30081 0.58595 0.0
H771 H 0.38858 0.33017 0.6139 0.0
H772 H 0.42425 0.31265 0.67447 0.0
H773 H 0.41947 0.27378 0.6626 0.0
C774 C 0.39809 0.25684 0.62474 0.0
C775 C 0.38648 0.25013 0.60434 0.0
C776 C 0.40127 0.2793 0.63135 0.0
C777 C 0.37849 0.26632 0.59037 0.0
C778 C 0.3815 0.28874 0.5969 0.0
C779 C 0.39528 0.31783 0.62448 0.0
C780 C 0.40663 0.32435 0.64509 0.0
C781 C 0.39267 0.29541 0.61747 0.0
C782 C 0.41543 0.30816 0.65851 0.0
C783 C 0.4127 0.28588 0.65176 0.0
H784 H 0.01419 0.10679 0.88284 0.0
H785 H 0.99769 0.11656 0.81285 0.0
H786 H 0.96036 0.12732 0.82256 0.0
H787 H 0.93441 0.13798 0.85104 0.0
H788 H 0.95159 0.13094 0.92141 0.0
H789 H 0.9866 0.11507 0.91151 0.0
C790 C 0.00214 0.11071 0.86972 0.0
C791 C 0.00858 0.11081 0.84715 0.0
C792 C 0.98102 0.11778 0.87553 0.0
C793 C 0.99304 0.11634 0.83032 0.0
C794 C 0.97177 0.12262 0.83587 0.0
C795 C 0.94566 0.13278 0.86426 0.0
C796 C 0.94047 0.13586 0.88695 0.0
C797 C 0.9659 0.12409 0.85846 0.0
C798 C 0.95524 0.12891 0.90381 0.0
C799 C 0.97527 0.11982 0.89815 0.0
H800 H 0.37035 0.13775 0.24486 0.0
H801 H 0.44227 0.1325 0.25562 0.0
H802 H 0.43654 0.12561 0.29545 0.0
H803 H 0.41064 0.11651 0.32587 0.0
H804 H 0.33813 0.11823 0.31469 0.0
H805 H 0.34448 0.13116 0.27648 0.0
C806 C 0.3848 0.1357 0.25612 0.0
C807 C 0.40672 0.13575 0.24744 0.0
C808 C 0.38119 0.13072 0.27882 0.0
C809 C 0.42527 0.13259 0.26201 0.0
C810 C 0.42198 0.12852 0.28473 0.0
C811 C 0.39621 0.12001 0.31523 0.0
C812 C 0.37392 0.11624 0.3231 0.0
C813 C 0.39993 0.12682 0.29313 0.0
C814 C 0.35546 0.12086 0.30902 0.0
C815 C 0.35908 0.12824 0.28715 0.0
H816 H 0.12344 0.1693 0.49954 0.0
H817 H 0.14644 0.10721 0.4779 0.0
H818 H 0.14596 0.09448 0.51654 0.0
H819 H 0.14093 0.10169 0.55672 0.0
H820 H 0.11842 0.16396 0.57843 0.0
H821 H 0.11633 0.17566 0.53947 0.0
C822 C 0.12839 0.15299 0.50326 0.0
C823 C 0.1352 0.13935 0.48583 0.0
C824 C 0.12796 0.1457 0.52552 0.0
C825 C 0.14124 0.11813 0.49096 0.0
C826 C 0.14092 0.1108 0.51307 0.0
C827 C 0.13516 0.11766 0.55292 0.0
C828 C 0.12987 0.13193 0.5705 0.0
C829 C 0.13448 0.1245 0.53051 0.0
C830 C 0.12259 0.15263 0.56524 0.0
C831 C 0.12154 0.15941 0.54296 0.0
H832 H 0.1352 0.91894 0.80135 0.0
H833 H 0.13942 0.8484 0.79961 0.0
H834 H 0.12341 0.84586 0.76098 0.0
H835 H 0.10846 0.864 0.72752 0.0
H836 H 0.10146 0.93409 0.73101 0.0
H837 H 0.11826 0.93654 0.76911 0.0
C838 C 0.13265 0.90303 0.79246 0.0
C839 C 0.13865 0.88392 0.80312 0.0
C840 C 0.12291 0.90164 0.7706 0.0
C841 C 0.1349 0.86333 0.79166 0.0
C842 C 0.12581 0.86189 0.76959 0.0
C843 C 0.11063 0.87976 0.7367 0.0
C844 C 0.10386 0.89885 0.7265 0.0
C845 C 0.11979 0.88096 0.75887 0.0
C846 C 0.10647 0.91915 0.73858 0.0
C847 C 0.11614 0.92059 0.76033 0.0
H848 H 0.37447 0.88257 0.98771 0.0
H849 H 0.364 0.81231 -0.00015 0.0
H850 H 0.357 0.81996 0.03916 0.0
H851 H 0.35192 0.84626 0.06962 0.0
H852 H 0.36166 0.91657 0.0581 0.0
H853 H 0.37122 0.90918 0.01911 0.0
C854 C 0.37074 0.86893 0.99897 0.0
C855 C 0.3696 0.84689 0.99071 0.0
C856 C 0.36666 0.87342 0.02169 0.0
C857 C 0.36488 0.82944 0.00562 0.0
C858 C 0.36089 0.83378 0.02816 0.0
C859 C 0.35634 0.86003 0.05868 0.0
C860 C 0.35596 0.88193 0.06674 0.0
C861 C 0.36147 0.85567 0.0363 0.0
C862 C 0.36183 0.89953 0.05232 0.0
C863 C 0.36718 0.89532 0.03 0.0
H864 H 0.37556 0.85802 0.26258 0.0
H865 H 0.40879 0.92429 0.27291 0.0
H866 H 0.39547 0.93436 0.23543 0.0
H867 H 0.37306 0.92457 0.20035 0.0
H868 H 0.34293 0.85735 0.18851 0.0
H869 H 0.35654 0.84719 0.22584 0.0
C870 C 0.37988 0.87462 0.2565 0.0
C871 C 0.39281 0.89053 0.27039 0.0
C872 C 0.37279 0.88003 0.23472 0.0
C873 C 0.39877 0.91186 0.26238 0.0
C874 C 0.39114 0.91761 0.24103 0.0
C875 C 0.36968 0.90767 0.20594 0.0
C876 C 0.3569 0.89174 0.19192 0.0
C877 C 0.37798 0.90188 0.22715 0.0
C878 C 0.35282 0.86983 0.19908 0.0
C879 C 0.36047 0.86406 0.22043 0.0
H880 H 0.36945 0.12928 0.52737 0.0
H881 H 0.37404 0.19236 0.49494 0.0
H882 H 0.37373 0.17371 0.45801 0.0
H883 H 0.3685 0.13931 0.43492 0.0
H884 H 0.35875 0.07631 0.46735 0.0
H885 H 0.36478 0.09488 0.50429 0.0
C886 C 0.37085 0.13887 0.51219 0.0
C887 C 0.37202 0.16208 0.51371 0.0
C888 C 0.36946 0.12799 0.49105 0.0
C889 C 0.37325 0.17444 0.49403 0.0
C890 C 0.37298 0.16379 0.47297 0.0
C891 C 0.36805 0.1297 0.4501 0.0
C892 C 0.3633 0.10654 0.44853 0.0
C893 C 0.37055 0.14056 0.47125 0.0
C894 C 0.36234 0.0942 0.46825 0.0
C895 C 0.36579 0.10479 0.48933 0.0
H896 H 0.08683 0.11352 0.76392 0.0
H897 H 0.14219 0.07916 0.79023 0.0
H898 H 0.15768 0.07722 0.75281 0.0
H899 H 0.15632 0.08629 0.71301 0.0
H900 H 0.10216 0.12217 0.68658 0.0
H901 H 0.08544 0.12256 0.72367 0.0
C902 C 0.10215 0.10542 0.76139 0.0
C903 C 0.11331 0.09644 0.77983 0.0
C904 C 0.11128 0.10478 0.73986 0.0
C905 C 0.13331 0.08624 0.77635 0.0
C906 C 0.14219 0.08514 0.75495 0.0
C907 C 0.1408 0.09414 0.71528 0.0
C908 C 0.13053 0.10418 0.697 0.0
C909 C 0.13146 0.09454 0.73665 0.0
C910 C 0.11049 0.11438 0.70036 0.0
C911 C 0.10089 0.11457 0.72156 0.0
H912 H 0.11043 0.80544 0.98911 0.0
H913 H 0.10126 0.87148 0.01284 0.0
H914 H 0.10733 0.88558 0.97501 0.0
H915 H 0.12048 0.87975 0.9365 0.0
H916 H 0.12923 0.81333 0.91326 0.0
H917 H 0.11787 0.79881 0.94947 0.0
C918 C 0.10929 0.82285 0.98589 0.0
C919 C 0.10571 0.83744 0.00376 0.0
C920 C 0.11301 0.83083 0.96423 0.0
C921 C 0.104 0.8599 0.99934 0.0
C922 C 0.10767 0.868 0.97775 0.0
C923 C 0.11951 0.86207 0.93924 0.0
C924 C 0.1261 0.84773 0.92229 0.0
C925 C 0.113 0.85374 0.96025 0.0
C926 C 0.12448 0.82481 0.92604 0.0
C927 C 0.11803 0.81645 0.94679 0.0
H928 H 0.30313 0.41518 0.11354 0.0
H929 H 0.27779 0.34689 0.12335 0.0
H930 H 0.23925 0.35769 0.12784 0.0
H931 H 0.21212 0.38618 0.1251 0.0
H932 H 0.23764 0.45372 0.11196 0.0
H933 H 0.27671 0.44366 0.11289 0.0
C934 C 0.28928 0.40266 0.11702 0.0
C935 C 0.29336 0.38025 0.11805 0.0
C936 C 0.26711 0.40889 0.11885 0.0
C937 C 0.27512 0.36426 0.12242 0.0
C938 C 0.25306 0.37043 0.12493 0.0
C939 C 0.22631 0.39872 0.12289 0.0
C940 C 0.22205 0.42066 0.11848 0.0
C941 C 0.24874 0.39263 0.12263 0.0
C942 C 0.24052 0.43672 0.11531 0.0
C943 C 0.26285 0.43097 0.11579 0.0
H944 H 0.74927 0.10008 0.86971 0.0
H945 H 0.71969 0.14978 0.90898 0.0
H946 H 0.75773 0.16625 0.92119 0.0
H947 H 0.79928 0.16664 0.92067 0.0
H948 H 0.8291 0.1181 0.8801 0.0
H949 H 0.79102 0.10104 0.86846 0.0
C950 C 0.75116 0.11449 0.88097 0.0
C951 C 0.73169 0.12365 0.88847 0.0
C952 C 0.77309 0.12407 0.8877 0.0
C953 C 0.73441 0.14245 0.90289 0.0
C954 C 0.75614 0.15185 0.90994 0.0
C955 C 0.79746 0.15226 0.90936 0.0
C956 C 0.81697 0.14357 0.90136 0.0
C957 C 0.77558 0.14279 0.90246 0.0
C958 C 0.81433 0.12512 0.88648 0.0
C959 C 0.79258 0.11534 0.87984 0.0
H960 H 0.15348 0.50518 0.1154 0.0
H961 H 0.08635 0.4754 0.1312 0.0
H962 H 0.07407 0.51208 0.1382 0.0
H963 H 0.08296 0.5526 0.14174 0.0
H964 H 0.15034 0.58209 0.12651 0.0
H965 H 0.16178 0.5456 0.11713 0.0
C966 C 0.13613 0.50667 0.12031 0.0
C967 C 0.12095 0.48749 0.12292 0.0
C968 C 0.12917 0.52782 0.12436 0.0
C969 C 0.09847 0.48983 0.12914 0.0
C970 C 0.0914 0.51083 0.13314 0.0
C971 C 0.10004 0.55107 0.13606 0.0
C972 C 0.11576 0.57007 0.13489 0.0
C973 C 0.10667 0.52994 0.13103 0.0
C974 C 0.13788 0.56776 0.12763 0.0
C975 C 0.14449 0.54687 0.12232 0.0
H976 H 0.71172 0.82898 0.40997 0.0
H977 H 0.68025 0.88504 0.38451 0.0
H978 H 0.71765 0.90314 0.37524 0.0
H979 H 0.75921 0.90275 0.37392 0.0
H980 H 0.79031 0.84569 0.3975 0.0
H981 H 0.75309 0.82822 0.40788 0.0
C982 C 0.71308 0.84523 0.40254 0.0
C983 C 0.69333 0.85573 0.39804 0.0
C984 C 0.73453 0.85529 0.3968 0.0
C985 C 0.69526 0.87662 0.3881 0.0
C986 C 0.71661 0.88698 0.38281 0.0
C987 C 0.75783 0.88651 0.38136 0.0
C988 C 0.77746 0.87555 0.38497 0.0
C989 C 0.73634 0.87641 0.38699 0.0
C990 C 0.77541 0.85443 0.39444 0.0
C991 C 0.75416 0.84445 0.40046 0.0
H992 H 0.88716 0.95841 0.12107 0.0
H993 H 0.82148 0.92126 0.12896 0.0
H994 H 0.80281 0.95508 0.12599 0.0
H995 H 0.80551 0.99571 0.12613 0.0
H996 H 0.87066 0.0332 0.1172 0.0
H997 H 0.88905 0.99883 0.11535 0.0
C998 C 0.86872 0.95765 0.12165 0.0
C999 C 0.85584 0.93732 0.12561 0.0
C1000 C 0.85798 0.97729 0.12002 0.0
C1001 C 0.83192 0.93665 0.12612 0.0
C1002 C 0.82117 0.95604 0.12453 0.0
C1003 C 0.82368 0.99632 0.1234 0.0
C1004 C 0.83676 0.01694 0.12212 0.0
C1005 C 0.83409 0.97653 0.12229 0.0
C1006 C 0.86022 0.0175 0.11827 0.0
C1007 C 0.87077 0.99786 0.11734 0.0
H1008 H 0.17996 0.60121 0.60549 0.0
H1009 H 0.19984 0.67132 0.60004 0.0
H1010 H 0.23948 0.66557 0.60955 0.0
H1011 H 0.26879 0.64029 0.61782 0.0
H1012 H 0.24832 0.57019 0.62315 0.0
H1013 H 0.20871 0.57635 0.61525 0.0
C1014 C 0.1929 0.6153 0.60654 0.0
C1015 C 0.18691 0.63666 0.60197 0.0
C1016 C 0.21565 0.61186 0.61185 0.0
C1017 C 0.20395 0.6547 0.60349 0.0
C1018 C 0.22665 0.65141 0.60884 0.0
C1019 C 0.25567 0.62637 0.6173 0.0
C1020 C 0.26166 0.60479 0.62096 0.0
C1021 C 0.23276 0.63 0.61277 0.0
C1022 C 0.24433 0.58698 0.62037 0.0
C1023 C 0.2216 0.59047 0.61584 0.0
H1024 H 0.15462 0.42791 0.35976 0.0
H1025 H 0.08645 0.44774 0.35657 0.0
H1026 H 0.10145 0.48639 0.36388 0.0
H1027 H 0.13409 0.51489 0.36761 0.0
H1028 H 0.20246 0.4958 0.36589 0.0
H1029 H 0.18745 0.45658 0.36437 0.0
C1030 C 0.14313 0.44072 0.36102 0.0
C1031 C 0.11953 0.43514 0.3577 0.0
C1032 C 0.15196 0.46303 0.36426 0.0
C1033 C 0.10472 0.45179 0.35899 0.0
C1034 C 0.11327 0.47385 0.36318 0.0
C1035 C 0.14566 0.50209 0.36736 0.0
C1036 C 0.16928 0.50808 0.36703 0.0
C1037 C 0.13688 0.47972 0.36535 0.0
C1038 C 0.18417 0.49146 0.36621 0.0
C1039 C 0.17561 0.46908 0.36526 0.0
H1040 H 0.36175 0.5599 0.87101 0.0
H1041 H 0.4287 0.53869 0.86304 0.0
H1042 H 0.41421 0.50068 0.87163 0.0
H1043 H 0.38183 0.47291 0.87757 0.0
H1044 H 0.31398 0.49311 0.88037 0.0
H1045 H 0.32936 0.53208 0.87806 0.0
C1046 C 0.37316 0.54696 0.87151 0.0
C1047 C 0.39621 0.55197 0.86644 0.0
C1048 C 0.3645 0.52498 0.87552 0.0
C1049 C 0.41084 0.5351 0.86678 0.0
C1050 C 0.40259 0.51341 0.87171 0.0
C1051 C 0.37053 0.48593 0.87825 0.0
C1052 C 0.3469 0.48032 0.87941 0.0
C1053 C 0.37936 0.50807 0.87562 0.0
C1054 C 0.33228 0.49718 0.87964 0.0
C1055 C 0.34105 0.5194 0.87819 0.0
H1056 H 0.87362 0.68496 0.59688 0.0
H1057 H 0.87765 0.70153 0.66787 0.0
H1058 H 0.86862 0.73917 0.65982 0.0
H1059 H 0.86466 0.76868 0.63209 0.0
H1060 H 0.86448 0.75206 0.5613 0.0
H1061 H 0.86657 0.71309 0.56972 0.0
C1062 C 0.87219 0.69665 0.61068 0.0
C1063 C 0.87655 0.6905 0.63293 0.0
C1064 C 0.86775 0.71835 0.60588 0.0
C1065 C 0.8745 0.70588 0.65056 0.0
C1066 C 0.86941 0.72743 0.64596 0.0
C1067 C 0.86446 0.75635 0.61861 0.0
C1068 C 0.86435 0.76306 0.59613 0.0
C1069 C 0.86671 0.73406 0.62362 0.0
C1070 C 0.86454 0.74714 0.57871 0.0
C1071 C 0.86584 0.72492 0.58352 0.0
H1072 H 0.00263 0.11724 0.34206 0.0
H1073 H 0.97589 0.16151 0.38991 0.0
H1074 H 0.01423 0.17173 0.40601 0.0
H1075 H 0.05497 0.16733 0.40727 0.0
H1076 H 0.08183 0.12186 0.36077 0.0
H1077 H 0.04373 0.11291 0.3433 0.0
C1078 C 0.00522 0.12924 0.35592 0.0
C1079 C 0.98642 0.13862 0.36476 0.0
C1080 C 0.02728 0.13477 0.36536 0.0
C1081 C 0.99004 0.15398 0.38284 0.0
C1082 C 0.01196 0.15985 0.39205 0.0
C1083 C 0.05258 0.15556 0.39321 0.0
C1084 C 0.07126 0.14531 0.38531 0.0
C1085 C 0.03065 0.15023 0.38355 0.0
C1086 C 0.06775 0.12995 0.36721 0.0
C1087 C 0.04598 0.12484 0.35721 0.0
H1088 H 0.62363 0.23073 0.12167 0.0
H1089 H 0.60854 0.24294 0.05189 0.0
H1090 H 0.60517 0.28185 0.06098 0.0
H1091 H 0.60139 0.31091 0.08915 0.0
H1092 H 0.61335 0.29846 0.15947 0.0
H1093 H 0.62332 0.26132 0.14982 0.0
C1094 C 0.62021 0.2421 0.10843 0.0
C1095 C 0.6163 0.23403 0.08615 0.0
C1096 C 0.61739 0.26433 0.11394 0.0
C1097 C 0.61154 0.24879 0.06917 0.0
C1098 C 0.60952 0.27101 0.07437 0.0
C1099 C 0.60654 0.30025 0.10239 0.0
C1100 C 0.60637 0.3074 0.12502 0.0
C1101 C 0.61159 0.27875 0.09678 0.0
C1102 C 0.61319 0.29334 0.14191 0.0
C1103 C 0.61883 0.27206 0.13641 0.0
H1104 H 0.43326 0.86032 0.86826 0.0
H1105 H 0.45751 0.82413 0.92434 0.0
H1106 H 0.49631 0.82961 0.91103 0.0
H1107 H 0.52358 0.84533 0.88404 0.0
H1108 H 0.49952 0.88002 0.82682 0.0
H1109 H 0.46047 0.87426 0.83983 0.0
C1110 C 0.44707 0.85368 0.87754 0.0
C1111 C 0.44254 0.84199 0.89734 0.0
C1112 C 0.46937 0.85652 0.86955 0.0
C1113 C 0.46053 0.83319 0.90904 0.0
C1114 C 0.48275 0.83633 0.90146 0.0
C1115 C 0.50978 0.85155 0.87435 0.0
C1116 C 0.51449 0.86319 0.85458 0.0
C1117 C 0.48739 0.84803 0.88181 0.0
C1118 C 0.49637 0.87093 0.84208 0.0
C1119 C 0.47404 0.86775 0.84957 0.0
H1120 H 0.90454 0.23202 0.86915 0.0
H1121 H 0.88325 0.25385 0.93394 0.0
H1122 H 0.88554 0.29201 0.92129 0.0
H1123 H 0.89312 0.31929 0.89153 0.0
H1124 H 0.91511 0.29713 0.82714 0.0
H1125 H 0.91279 0.25911 0.8399 0.0
C1126 C 0.90052 0.24511 0.88058 0.0
C1127 C 0.89372 0.23999 0.90246 0.0
C1128 C 0.9018 0.26703 0.8732 0.0
C1129 C 0.88859 0.25725 0.91701 0.0
C1130 C 0.8898 0.27912 0.90976 0.0
C1131 C 0.89725 0.3061 0.88027 0.0
C1132 C 0.90418 0.31107 0.85839 0.0
C1133 C 0.89621 0.28419 0.88783 0.0
C1134 C 0.90974 0.29381 0.84409 0.0
C1135 C 0.90845 0.27203 0.85136 0.0
H1136 H 0.44348 0.13817 0.6049 0.0
H1137 H 0.4239 0.16147 0.66983 0.0
H1138 H 0.45907 0.15098 0.68705 0.0
H1139 H 0.49713 0.13916 0.68312 0.0
H1140 H 0.51739 0.1157 0.61864 0.0
H1141 H 0.48008 0.12179 0.60195 0.0
C1142 C 0.4468 0.14069 0.62285 0.0
C1143 C 0.43122 0.15094 0.63595 0.0
C1144 C 0.46721 0.13461 0.63276 0.0
C1145 C 0.43565 0.15383 0.65926 0.0
C1146 C 0.4558 0.14784 0.66917 0.0
C1147 C 0.49323 0.13498 0.6655 0.0
C1148 C 0.51005 0.12725 0.65209 0.0
C1149 C 0.47195 0.1388 0.656 0.0
C1150 C 0.5047 0.12167 0.62934 0.0
C1151 C 0.48343 0.12534 0.61975 0.0
H1152 H 0.63772 0.7457 0.40505 0.0
H1153 H 0.59103 0.77073 0.35682 0.0
H1154 H 0.58584 0.73466 0.33728 0.0
H1155 H 0.59499 0.69637 0.33353 0.0
H1156 H 0.64284 0.67151 0.38075 0.0
H1157 H 0.64733 0.7073 0.40093 0.0
C1158 C 0.62623 0.74318 0.3904 0.0
C1159 C 0.61465 0.76081 0.38248 0.0
C1160 C 0.62373 0.72254 0.37894 0.0
C1161 C 0.60012 0.75741 0.36326 0.0
C1162 C 0.59718 0.73682 0.35205 0.0
C1163 C 0.60645 0.69873 0.34822 0.0
C1164 C 0.61855 0.68124 0.35561 0.0
C1165 C 0.60902 0.71933 0.35966 0.0
C1166 C 0.63339 0.6847 0.37462 0.0
C1167 C 0.63589 0.70514 0.38624 0.0
H1168 H 0.06547 0.88095 0.14794 0.0
H1169 H 0.04184 0.87401 0.07849 0.0
H1170 H 0.00528 0.88664 0.08848 0.0
H1171 H 0.97818 0.89404 0.11787 0.0
H1172 H 0.00139 0.89768 0.18746 0.0
H1173 H 0.04005 0.8924 0.1765 0.0
C1174 C 0.0525 0.88256 0.13488 0.0
C1175 C 0.05626 0.87622 0.11255 0.0
C1176 C 0.03135 0.88917 0.14084 0.0
C1177 C 0.03932 0.87861 0.09584 0.0
C1178 C 0.01837 0.88576 0.10157 0.0
C1179 C 0.99189 0.89435 0.13052 0.0
C1180 C 0.98702 0.89618 0.15343 0.0
C1181 C 0.0139 0.89031 0.12414 0.0
C1182 C 0.00479 0.89623 0.16973 0.0
C1183 C 0.02685 0.89308 0.16348 0.0
H1184 H 0.63739 0.88722 0.69021 0.0
H1185 H 0.57097 0.90201 0.66571 0.0
H1186 H 0.55574 0.89588 0.7028 0.0
H1187 H 0.5618 0.88944 0.74285 0.0
H1188 H 0.62752 0.87367 0.76794 0.0
H1189 H 0.6424 0.87679 0.73 0.0
C1190 C 0.61953 0.88883 0.69295 0.0
C1191 C 0.60545 0.89532 0.6752 0.0
C1192 C 0.61075 0.88522 0.71447 0.0
C1193 C 0.58228 0.89715 0.67901 0.0
C1194 C 0.57351 0.8937 0.70028 0.0
C1195 C 0.57933 0.88645 0.73998 0.0
C1196 C 0.59361 0.88157 0.75818 0.0
C1197 C 0.58769 0.88822 0.71822 0.0
C1198 C 0.61618 0.87744 0.75417 0.0
C1199 C 0.62472 0.87935 0.73251 0.0
H1200 H 0.87381 0.89039 0.51897 0.0
H1201 H 0.86618 0.81925 0.50881 0.0
H1202 H 0.86751 0.8237 0.46827 0.0
H1203 H 0.86893 0.84758 0.43564 0.0
H1204 H 0.87522 0.91867 0.44538 0.0
H1205 H 0.87685 0.91441 0.48615 0.0
C1206 C 0.87241 0.87585 0.5079 0.0
C1207 C 0.8697 0.85452 0.51699 0.0
C1208 C 0.87319 0.87849 0.48452 0.0
C1209 C 0.86813 0.83588 0.50234 0.0
C1210 C 0.86897 0.83838 0.47912 0.0
C1211 C 0.87109 0.86217 0.44665 0.0
C1212 C 0.87199 0.88341 0.43747 0.0
C1213 C 0.87134 0.85959 0.47003 0.0
C1214 C 0.87454 0.90213 0.45201 0.0
C1215 C 0.87531 0.8997 0.47533 0.0
H1216 H 0.88593 0.1093 0.1859 0.0
H1217 H 0.81963 0.09553 0.21404 0.0
H1218 H 0.8365 0.1018 0.25206 0.0
H1219 H 0.87042 0.10916 0.27734 0.0
H1220 H 0.93717 0.11802 0.24942 0.0
H1221 H 0.91998 0.116 0.21125 0.0
C1222 C 0.87523 0.10788 0.2004 0.0
C1223 C 0.85162 0.10209 0.19731 0.0
C1224 C 0.88516 0.11067 0.22218 0.0
C1225 C 0.83788 0.09991 0.21613 0.0
C1226 C 0.8475 0.10354 0.23781 0.0
C1227 C 0.8811 0.11101 0.26284 0.0
C1228 C 0.90492 0.11406 0.26598 0.0
C1229 C 0.87114 0.10869 0.24105 0.0
C1230 C 0.91875 0.11583 0.24723 0.0
C1231 C 0.90894 0.1146 0.22548 0.0
H1232 H 0.63245 0.09232 0.94764 0.0
H1233 H 0.62076 0.15749 0.92496 0.0
H1234 H 0.61068 0.16816 0.96275 0.0
H1235 H 0.60838 0.16018 0.00278 0.0
H1236 H 0.62057 0.09532 0.02597 0.0
H1237 H 0.62714 0.08336 0.98748 0.0
C1238 C 0.62731 0.10872 0.95089 0.0
C1239 C 0.62753 0.12412 0.93352 0.0
C1240 C 0.62188 0.11492 0.97283 0.0
C1241 C 0.62088 0.14534 0.93804 0.0
C1242 C 0.61518 0.1515 0.95968 0.0
C1243 C 0.61234 0.14338 0.99943 0.0
C1244 C 0.61423 0.12878 0.0173 0.0
C1245 C 0.61619 0.13663 0.97731 0.0
C1246 C 0.6191 0.10697 0.01257 0.0
C1247 C 0.6229 0.10011 0.99055 0.0
H1248 H 0.66347 0.09682 0.78857 0.0
H1249 H 0.60804 0.12378 0.82172 0.0
H1250 H 0.59062 0.1315 0.78524 0.0
H1251 H 0.59112 0.13046 0.74385 0.0
H1252 H 0.64757 0.10487 0.71107 0.0
H1253 H 0.66457 0.09678 0.74749 0.0
C1254 C 0.64754 0.10433 0.78783 0.0
C1255 C 0.63701 0.1096 0.80782 0.0
C1256 C 0.6378 0.109 0.76686 0.0
C1257 C 0.61652 0.11958 0.80657 0.0
C1258 C 0.60652 0.12396 0.78572 0.0
C1259 C 0.60713 0.12309 0.74469 0.0
C1260 C 0.61801 0.11823 0.72476 0.0
C1261 C 0.61701 0.11872 0.76574 0.0
C1262 C 0.63886 0.10886 0.72614 0.0
C1263 C 0.64859 0.10417 0.74697 0.0
H1264 H 0.62638 0.87082 0.4722 0.0
H1265 H 0.62085 0.80683 0.50281 0.0
H1266 H 0.62079 0.82455 0.54021 0.0
H1267 H 0.6265 0.85846 0.5643 0.0
H1268 H 0.6376 0.92213 0.53341 0.0
H1269 H 0.63121 0.90453 0.49606 0.0
C1270 C 0.62462 0.8608 0.48706 0.0
C1271 C 0.62336 0.83763 0.48489 0.0
C1272 C 0.6259 0.87113 0.50846 0.0
C1273 C 0.6217 0.82474 0.5042 0.0
C1274 C 0.62178 0.83486 0.52554 0.0
C1275 C 0.62712 0.86841 0.54934 0.0
C1276 C 0.63237 0.89148 0.55142 0.0
C1277 C 0.6245 0.85806 0.52791 0.0
C1278 C 0.63359 0.9043 0.53205 0.0
C1279 C 0.62995 0.89426 0.51075 0.0
H1280 H 0.83948 0.90894 0.2908 0.0
H1281 H 0.89971 0.88422 0.31982 0.0
H1282 H 0.91562 0.88191 0.28246 0.0
H1283 H 0.91216 0.88668 0.24145 0.0
H1284 H 0.85087 0.90961 0.21271 0.0
H1285 H 0.83571 0.91307 0.25016 0.0
C1286 C 0.85611 0.90307 0.289 0.0
C1287 C 0.86842 0.89683 0.30807 0.0
C1288 C 0.865 0.90157 0.26753 0.0
C1289 C 0.88985 0.88906 0.30539 0.0
C1290 C 0.89899 0.88781 0.28405 0.0
C1291 C 0.89558 0.89263 0.24345 0.0
C1292 C 0.8827 0.89802 0.2244 0.0
C1293 C 0.88671 0.89406 0.26501 0.0
C1294 C 0.86109 0.90535 0.22714 0.0
C1295 C 0.8524 0.90731 0.24853 0.0
H1296 H 0.88221 0.13262 0.99507 0.0
H1297 H 0.87487 0.20035 0.01445 0.0
H1298 H 0.86956 0.18959 0.05339 0.0
H1299 H 0.86227 0.16052 0.08069 0.0
H1300 H 0.86605 0.09214 0.06109 0.0
H1301 H 0.8777 0.10351 0.02358 0.0
C1302 C 0.87999 0.14504 0.00798 0.0
C1303 C 0.87891 0.16722 0.00201 0.0
C1304 C 0.876 0.13855 0.0302 0.0
C1305 C 0.87568 0.18316 0.01872 0.0
C1306 C 0.87258 0.17701 0.04095 0.0
C1307 C 0.86598 0.14809 0.06836 0.0
C1308 C 0.8631 0.1255 0.07363 0.0
C1309 C 0.87195 0.15467 0.04671 0.0
C1310 C 0.86801 0.10964 0.05742 0.0
C1311 C 0.87462 0.11613 0.03595 0.0
H1312 H 0.77869 0.62197 0.87351 0.0
H1313 H 0.75357 0.55724 0.89628 0.0
H1314 H 0.71484 0.56807 0.89661 0.0
H1315 H 0.6887 0.59665 0.89359 0.0
H1316 H 0.71372 0.66261 0.87414 0.0
H1317 H 0.75176 0.65063 0.86918 0.0
C1318 C 0.76463 0.61019 0.87817 0.0
C1319 C 0.76895 0.58881 0.88481 0.0
C1320 C 0.74241 0.61681 0.87909 0.0
C1321 C 0.75067 0.57379 0.89116 0.0
C1322 C 0.72852 0.57998 0.89137 0.0
C1323 C 0.70236 0.60838 0.88793 0.0
C1324 C 0.69833 0.6305 0.88421 0.0
C1325 C 0.72427 0.60157 0.88584 0.0
C1326 C 0.71634 0.64548 0.87713 0.0
C1327 C 0.73812 0.63864 0.87435 0.0
H1328 H 0.26147 0.86776 0.09808 0.0
H1329 H 0.2442 0.91868 0.14435 0.0
H1330 H 0.20355 0.9074 0.13675 0.0
H1331 H 0.17299 0.88252 0.11736 0.0
H1332 H 0.19107 0.83228 0.07059 0.0
H1333 H 0.23136 0.84398 0.078 0.0
C1334 C 0.24885 0.8764 0.10658 0.0
C1335 C 0.25585 0.89391 0.12189 0.0
C1336 C 0.22564 0.86998 0.10201 0.0
C1337 C 0.23925 0.9051 0.1325 0.0
C1338 C 0.21601 0.89865 0.12818 0.0
C1339 C 0.18575 0.87418 0.10875 0.0
C1340 C 0.17896 0.85649 0.09351 0.0
C1341 C 0.20902 0.88104 0.11302 0.0
C1342 C 0.19574 0.84594 0.08241 0.0
C1343 C 0.21883 0.85258 0.08665 0.0
H1344 H 0.89698 0.51742 0.87802 0.0
H1345 H 0.82451 0.50025 0.88395 0.0
H1346 H 0.82985 0.46095 0.88106 0.0
H1347 H 0.85466 0.43153 0.87453 0.0
H1348 H 0.92705 0.44858 0.8681 0.0
H1349 H 0.92217 0.48778 0.87391 0.0
C1350 C 0.88234 0.5051 0.87875 0.0
C1351 C 0.86034 0.51188 0.88098 0.0
C1352 C 0.88551 0.48246 0.87709 0.0
C1353 C 0.84163 0.4956 0.88213 0.0
C1354 C 0.84466 0.47308 0.88049 0.0
C1355 C 0.86945 0.44376 0.87475 0.0
C1356 C 0.89119 0.43707 0.8708 0.0
C1357 C 0.86647 0.46632 0.8777 0.0
C1358 C 0.91012 0.45321 0.8711 0.0
C1359 C 0.90732 0.47567 0.87428 0.0
H1360 H 0.24328 0.10755 0.63645 0.0
H1361 H 0.21108 0.16275 0.60991 0.0
H1362 H 0.24801 0.18016 0.59861 0.0
H1363 H 0.28931 0.17929 0.59544 0.0
H1364 H 0.32199 0.12539 0.62404 0.0
H1365 H 0.285 0.10781 0.63533 0.0
C1366 C 0.2444 0.12343 0.62827 0.0
C1367 C 0.22451 0.1338 0.62392 0.0
C1368 C 0.26572 0.1335 0.62209 0.0
C1369 C 0.22618 0.15448 0.61353 0.0
C1370 C 0.24726 0.1644 0.60696 0.0
C1371 C 0.28828 0.16367 0.60409 0.0
C1372 C 0.30822 0.1535 0.60871 0.0
C1373 C 0.2671 0.15397 0.61099 0.0
C1374 C 0.3068 0.13348 0.62029 0.0
C1375 C 0.28569 0.12343 0.62672 0.0
H1376 H 0.18757 0.98676 0.87635 0.0
H1377 H 0.12186 0.95251 0.88987 0.0
H1378 H 0.10515 0.98785 0.891 0.0
H1379 H 0.10846 0.02808 0.88354 0.0
H1380 H 0.17478 0.06188 0.87091 0.0
H1381 H 0.19194 0.02727 0.87432 0.0
C1382 C 0.16968 0.98707 0.87995 0.0
C1383 C 0.15593 0.96705 0.88277 0.0
C1384 C 0.16022 0.0074 0.88053 0.0
C1385 C 0.13283 0.96771 0.88766 0.0
C1386 C 0.12323 0.98792 0.88814 0.0
C1387 C 0.12672 0.02793 0.88194 0.0
C1388 C 0.1402 0.04757 0.87663 0.0
C1389 C 0.13662 0.00782 0.88391 0.0
C1390 C 0.16389 0.04707 0.87483 0.0
C1391 C 0.17378 0.02722 0.87669 0.0
H1392 H 0.82274 0.40201 0.38956 0.0
H1393 H 0.80739 0.33083 0.38744 0.0
H1394 H 0.76714 0.3349 0.37941 0.0
H1395 H 0.73606 0.35861 0.37487 0.0
H1396 H 0.75136 0.42982 0.37738 0.0
H1397 H 0.79188 0.42572 0.38337 0.0
C1398 C 0.81065 0.38736 0.38713 0.0
C1399 C 0.81811 0.36614 0.38918 0.0
C1400 C 0.78748 0.38981 0.38276 0.0
C1401 C 0.80216 0.34736 0.38598 0.0
C1402 C 0.7791 0.34967 0.38146 0.0
C1403 C 0.74823 0.37327 0.37666 0.0
C1404 C 0.74057 0.39451 0.37582 0.0
C1405 C 0.77152 0.37081 0.38014 0.0
C1406 C 0.75669 0.41327 0.37802 0.0
C1407 C 0.7799 0.41095 0.38145 0.0
H1408 H 0.825 0.50154 0.63308 0.0
H1409 H 0.88813 0.4738 0.62093 0.0
H1410 H 0.90892 0.5108 0.62351 0.0
H1411 H 0.90959 0.55052 0.63314 0.0
H1412 H 0.84634 0.57874 0.64288 0.0
H1413 H 0.82501 0.54208 0.63718 0.0
C1414 C 0.84325 0.50369 0.63064 0.0
C1415 C 0.8551 0.48504 0.6271 0.0
C1416 C 0.85504 0.52502 0.63192 0.0
C1417 C 0.87867 0.48796 0.62365 0.0
C1418 C 0.89058 0.50908 0.62529 0.0
C1419 C 0.89111 0.5486 0.63372 0.0
C1420 C 0.87948 0.56706 0.63871 0.0
C1421 C 0.87902 0.52763 0.63003 0.0
C1422 C 0.85556 0.56463 0.63908 0.0
C1423 C 0.84341 0.54371 0.63593 0.0
H1424 H 0.60134 0.50989 0.13295 0.0
H1425 H 0.66156 0.49096 0.10146 0.0
H1426 H 0.64957 0.45191 0.1082 0.0
H1427 H 0.62231 0.42315 0.12405 0.0
H1428 H 0.56354 0.44292 0.15762 0.0
H1429 H 0.57458 0.48154 0.149 0.0
C1430 C 0.61176 0.49721 0.12742 0.0
C1431 C 0.63223 0.50328 0.11666 0.0
C1432 C 0.60505 0.4749 0.13179 0.0
C1433 C 0.64572 0.48669 0.10985 0.0
C1434 C 0.63887 0.46436 0.11367 0.0
C1435 C 0.61191 0.43593 0.12934 0.0
C1436 C 0.59217 0.4302 0.14144 0.0
C1437 C 0.61863 0.45827 0.12477 0.0
C1438 C 0.57892 0.44693 0.1484 0.0
C1439 C 0.58517 0.46903 0.14345 0.0
H1440 H 0.62635 0.76191 0.93253 0.0
H1441 H 0.64911 0.73858 0.86903 0.0
H1442 H 0.64442 0.77459 0.85254 0.0
H1443 H 0.62948 0.81126 0.85519 0.0
H1444 H 0.60757 0.83421 0.91935 0.0
H1445 H 0.61647 0.79995 0.93651 0.0
C1446 C 0.63068 0.76484 0.91519 0.0
C1447 C 0.63783 0.74756 0.90196 0.0
C1448 C 0.62785 0.78548 0.90584 0.0
C1449 C 0.64361 0.75165 0.87959 0.0
C1450 C 0.64075 0.77218 0.8701 0.0
C1451 C 0.62698 0.80888 0.87299 0.0
C1452 C 0.61753 0.8252 0.88584 0.0
C1453 C 0.6322 0.78901 0.88289 0.0
C1454 C 0.61465 0.82193 0.90896 0.0
C1455 C 0.61968 0.80228 0.91883 0.0
H1456 H 0.48877 0.37002 0.16562 0.0
H1457 H 0.50886 0.3254 0.11425 0.0
H1458 H 0.46954 0.31942 0.09942 0.0
H1459 H 0.43023 0.32841 0.09971 0.0
H1460 H 0.41004 0.3748 0.14937 0.0
H1461 H 0.44876 0.37861 0.16625 0.0
C1462 C 0.48443 0.35875 0.15138 0.0
C1463 C 0.50163 0.34808 0.14107 0.0
C1464 C 0.46191 0.35591 0.14253 0.0
C1465 C 0.4959 0.3338 0.12243 0.0
C1466 C 0.47346 0.33042 0.11393 0.0
C1467 C 0.43417 0.33927 0.11433 0.0
C1468 C 0.41724 0.35132 0.12326 0.0
C1469 C 0.45644 0.34165 0.12363 0.0
C1470 C 0.42277 0.36541 0.14212 0.0
C1471 C 0.44489 0.36756 0.15178 0.0
H1472 H 0.88347 0.17946 0.40431 0.0
H1473 H 0.88204 0.19403 0.33363 0.0
H1474 H 0.87353 0.23186 0.34251 0.0
H1475 H 0.87188 0.26216 0.37085 0.0
H1476 H 0.87708 0.24757 0.44132 0.0
H1477 H 0.87835 0.20832 0.4321 0.0
C1478 C 0.88095 0.19075 0.39077 0.0
C1479 C 0.88368 0.184 0.36836 0.0
C1480 C 0.87682 0.21256 0.39603 0.0
C1481 C 0.88018 0.19885 0.35105 0.0
C1482 C 0.87539 0.22051 0.35613 0.0
C1483 C 0.87265 0.25021 0.3841 0.0
C1484 C 0.87436 0.25758 0.4067 0.0
C1485 C 0.87442 0.22777 0.37862 0.0
C1486 C 0.87577 0.24215 0.42381 0.0
C1487 C 0.8766 0.21977 0.41854 0.0
H1488 H 0.9971 0.62279 0.65288 0.0
H1489 H 0.96544 0.66686 0.60836 0.0
H1490 H 0.00157 0.67561 0.58999 0.0
H1491 H 0.0418 0.67024 0.58599 0.0
H1492 H 0.07339 0.62496 0.62916 0.0
H1493 H 0.03759 0.61713 0.64858 0.0
C1494 C 0.99817 0.63443 0.63927 0.0
C1495 C 0.97861 0.64422 0.63206 0.0
C1496 C 0.01892 0.63907 0.62845 0.0
C1497 C 0.9802 0.65906 0.61421 0.0
C1498 C 0.00086 0.66408 0.60369 0.0
C1499 C 0.04093 0.65869 0.59969 0.0
C1500 C 0.0603 0.64824 0.60612 0.0
C1501 C 0.02027 0.65408 0.61057 0.0
C1502 C 0.05874 0.63319 0.62381 0.0
C1503 C 0.03829 0.62875 0.63496 0.0
H1504 H 0.62187 0.25404 0.5851 0.0
H1505 H 0.58447 0.28241 0.63775 0.0
H1506 H 0.57815 0.24626 0.65504 0.0
H1507 H 0.58395 0.20697 0.65577 0.0
H1508 H 0.62231 0.17851 0.60394 0.0
H1509 H 0.62765 0.21442 0.58584 0.0
C1510 C 0.61216 0.25227 0.60025 0.0
C1511 C 0.6036 0.27091 0.61008 0.0
C1512 C 0.60892 0.23149 0.61035 0.0
C1513 C 0.59127 0.26836 0.62985 0.0
C1514 C 0.58767 0.2477 0.63977 0.0
C1515 C 0.59349 0.20855 0.64051 0.0
C1516 C 0.60274 0.19002 0.63126 0.0
C1517 C 0.59658 0.22922 0.63027 0.0
C1518 C 0.61508 0.19248 0.61148 0.0
C1519 C 0.61808 0.21301 0.60109 0.0
H1520 H 0.05527 0.36224 0.89951 0.0
H1521 H 0.07969 0.34486 0.83449 0.0
H1522 H 0.04633 0.35789 0.81606 0.0
H1523 H 0.00824 0.36996 0.81847 0.0
H1524 H 0.98298 0.38714 0.88305 0.0
H1525 H 0.01882 0.37903 0.90147 0.0
C1526 C 0.05341 0.36158 0.88131 0.0
C1527 C 0.06978 0.35221 0.86846 0.0
C1528 C 0.03401 0.36906 0.87069 0.0
C1529 C 0.06725 0.35173 0.84486 0.0
C1530 C 0.04815 0.35919 0.83424 0.0
C1531 C 0.01073 0.37236 0.83653 0.0
C1532 C 0.99289 0.37886 0.84939 0.0
C1533 C 0.03113 0.36727 0.84701 0.0
C1534 C 0.99647 0.38215 0.87275 0.0
C1535 C 0.01688 0.3773 0.88333 0.0
H1536 H 0.89454 0.7408 0.1362 0.0
H1537 H 0.86164 0.75307 0.07251 0.0
H1538 H 0.86596 0.79295 0.0812 0.0
H1539 H 0.87868 0.82438 0.10742 0.0
H1540 H 0.91316 0.81137 0.17018 0.0
H1541 H 0.90857 0.77181 0.16132 0.0
C1542 C 0.88829 0.75218 0.1242 0.0
C1543 C 0.87765 0.74398 0.10383 0.0
C1544 C 0.89109 0.775 0.12917 0.0
C1545 C 0.86993 0.75898 0.08833 0.0
C1546 C 0.87233 0.78178 0.09332 0.0
C1547 C 0.88515 0.81285 0.11912 0.0
C1548 C 0.89617 0.82083 0.13945 0.0
C1549 C 0.88279 0.78999 0.11377 0.0
C1550 C 0.90468 0.80571 0.15436 0.0
C1551 C 0.90204 0.78305 0.14936 0.0
H1552 H 0.46465 0.6288 0.39166 0.0
H1553 H 0.437 0.65138 0.32911 0.0
H1554 H 0.46979 0.64061 0.30943 0.0
H1555 H 0.50795 0.62833 0.31047 0.0
H1556 H 0.53628 0.60555 0.37249 0.0
H1557 H 0.50144 0.61232 0.39171 0.0
C1558 C 0.46572 0.63114 0.3737 0.0
C1559 C 0.44852 0.6412 0.36198 0.0
C1560 C 0.48474 0.62485 0.36234 0.0
C1561 C 0.45003 0.64386 0.33863 0.0
C1562 C 0.46881 0.63771 0.32731 0.0
C1563 C 0.50635 0.62446 0.32811 0.0
C1564 C 0.52474 0.61666 0.34008 0.0
C1565 C 0.48649 0.62869 0.33907 0.0
C1566 C 0.52233 0.61152 0.36286 0.0
C1567 C 0.50249 0.61559 0.37392 0.0
H1568 H 0.86561 0.61525 0.80388 0.0
H1569 H 0.92949 0.59202 0.82542 0.0
H1570 H 0.94465 0.59881 0.78837 0.0
H1571 H 0.93908 0.60891 0.74917 0.0
H1572 H 0.87597 0.6332 0.72723 0.0
H1573 H 0.86135 0.62875 0.76511 0.0
C1574 C 0.8829 0.61185 0.80048 0.0
C1575 C 0.89629 0.60293 0.81737 0.0
C1576 C 0.89167 0.61597 0.77906 0.0
C1577 C 0.91875 0.59883 0.81276 0.0
C1578 C 0.92747 0.60267 0.79153 0.0
C1579 C 0.92221 0.61346 0.75273 0.0
C1580 C 0.90856 0.62119 0.73539 0.0
C1581 C 0.91397 0.61088 0.77447 0.0
C1582 C 0.88684 0.62725 0.74031 0.0
C1583 C 0.87842 0.62457 0.76194 0.0
H1584 H 0.63306 0.62921 0.05743 0.0
H1585 H 0.65092 0.56779 0.02845 0.0
H1586 H 0.65058 0.58344 0.9911 0.0
H1587 H 0.64651 0.61458 0.96681 0.0
H1588 H 0.63 0.67688 0.99491 0.0
H1589 H 0.6288 0.661 0.03245 0.0
C1590 C 0.63656 0.61925 0.04285 0.0
C1591 C 0.64192 0.59736 0.04566 0.0
C1592 C 0.63691 0.62857 0.02133 0.0
C1593 C 0.64679 0.58469 0.02671 0.0
C1594 C 0.64666 0.59363 0.00535 0.0
C1595 C 0.64265 0.62478 0.98109 0.0
C1596 C 0.63839 0.64692 0.97799 0.0
C1597 C 0.64203 0.6156 0.0025 0.0
C1598 C 0.63348 0.65981 0.9968 0.0
C1599 C 0.63268 0.65071 0.01827 0.0
H1600 H 0.58442 0.40173 0.24411 0.0
H1601 H 0.60214 0.33551 0.23138 0.0
H1602 H 0.62429 0.33705 0.26718 0.0
H1603 H 0.63946 0.35801 0.30165 0.0
H1604 H 0.6242 0.42554 0.31158 0.0
H1605 H 0.60023 0.42276 0.27727 0.0
C1606 C 0.59292 0.38752 0.24928 0.0
C1607 C 0.59146 0.36843 0.23536 0.0
C1608 C 0.60618 0.38887 0.26929 0.0
C1609 C 0.60297 0.35034 0.24196 0.0
C1610 C 0.61563 0.35125 0.26237 0.0
C1611 C 0.6308 0.37203 0.29625 0.0
C1612 C 0.63353 0.39193 0.30907 0.0
C1613 C 0.61751 0.37053 0.2761 0.0
C1614 C 0.62246 0.41011 0.30187 0.0
C1615 C 0.6087 0.40851 0.28232 0.0
H1616 H 0.87278 0.35201 0.56489 0.0
H1617 H 0.87006 0.42172 0.55331 0.0
H1618 H 0.87671 0.41567 0.51339 0.0
H1619 H 0.88028 0.38999 0.48131 0.0
H1620 H 0.88188 0.32015 0.49343 0.0
H1621 H 0.8786 0.32692 0.53355 0.0
C1622 C 0.87394 0.36597 0.55373 0.0
C1623 C 0.8708 0.38726 0.56207 0.0
C1624 C 0.87728 0.36231 0.5308 0.0
C1625 C 0.8724 0.40514 0.54734 0.0
C1626 C 0.87607 0.40168 0.52448 0.0
C1627 C 0.88004 0.37627 0.49274 0.0
C1628 C 0.88111 0.35457 0.48426 0.0
C1629 C 0.87801 0.38023 0.51593 0.0
C1630 C 0.8809 0.33702 0.49938 0.0
C1631 C 0.87907 0.34085 0.52239 0.0
H1632 H 0.9144 0.37822 0.75424 0.0
H1633 H 0.85609 0.40023 0.78685 0.0
H1634 H 0.83882 0.40788 0.75037 0.0
H1635 H 0.84013 0.40815 0.70932 0.0
H1636 H 0.89734 0.38436 0.67632 0.0
H1637 H 0.91517 0.37749 0.71287 0.0
C1638 C 0.89796 0.38478 0.75333 0.0
C1639 C 0.88658 0.38876 0.7732 0.0
C1640 C 0.88791 0.38875 0.73227 0.0
C1641 C 0.86516 0.39698 0.77179 0.0
C1642 C 0.85528 0.40139 0.75095 0.0
C1643 C 0.85653 0.40151 0.71011 0.0
C1644 C 0.86745 0.39688 0.69016 0.0
C1645 C 0.86649 0.3973 0.7311 0.0
C1646 C 0.88856 0.38803 0.69145 0.0
C1647 C 0.89879 0.38415 0.71233 0.0
H1648 H 0.87624 0.59177 0.96136 0.0
H1649 H 0.87088 0.64875 0.92024 0.0
H1650 H 0.87682 0.6733 0.95361 0.0
H1651 H 0.87906 0.67784 0.99489 0.0
H1652 H 0.88686 0.62109 0.03583 0.0
H1653 H 0.8851 0.59712 0.00212 0.0
C1654 C 0.87678 0.6096 0.95979 0.0
C1655 C 0.87288 0.61858 0.93864 0.0
C1656 C 0.88067 0.62356 0.97895 0.0
C1657 C 0.87383 0.64163 0.9365 0.0
C1658 C 0.87716 0.65561 0.95554 0.0
C1659 C 0.88095 0.66031 0.99634 0.0
C1660 C 0.88286 0.65116 0.01774 0.0
C1661 C 0.87999 0.64669 0.97691 0.0
C1662 C 0.88548 0.6285 0.01949 0.0
C1663 C 0.88423 0.61476 0.00025 0.0
H1664 H 0.58667 0.61321 0.24368 0.0
H1665 H 0.65611 0.60555 0.265 0.0
H1666 H 0.66604 0.59984 0.22598 0.0
H1667 H 0.65474 0.59558 0.18583 0.0
H1668 H 0.58517 0.6027 0.16466 0.0
H1669 H 0.57572 0.61031 0.20349 0.0
C1670 C 0.604 0.61031 0.23983 0.0
C1671 C 0.62055 0.60969 0.25735 0.0
C1672 C 0.60964 0.60703 0.21731 0.0
C1673 C 0.64295 0.60605 0.25193 0.0
C1674 C 0.64869 0.6028 0.22958 0.0
C1675 C 0.63758 0.59907 0.18967 0.0
C1676 C 0.6207 0.59855 0.17232 0.0
C1677 C 0.63214 0.60311 0.21213 0.0
C1678 C 0.59851 0.60297 0.17765 0.0
C1679 C 0.59305 0.60725 0.19989 0.0
H1680 H 0.6298 0.31057 0.49255 0.0
H1681 H 0.61054 0.37369 0.51554 0.0
H1682 H 0.61572 0.38846 0.47784 0.0
H1683 H 0.62999 0.38448 0.43949 0.0
H1684 H 0.64881 0.3209 0.41702 0.0
H1685 H 0.6394 0.30528 0.4533 0.0
C1686 C 0.62638 0.32746 0.48922 0.0
C1687 C 0.62007 0.3411 0.50682 0.0
C1688 C 0.62956 0.33584 0.46764 0.0
C1689 C 0.61541 0.36285 0.50223 0.0
C1690 C 0.61855 0.37135 0.48073 0.0
C1691 C 0.63175 0.36715 0.44245 0.0
C1692 C 0.64042 0.35399 0.42565 0.0
C1693 C 0.62629 0.35818 0.46347 0.0
C1694 C 0.64234 0.33148 0.42967 0.0
C1695 C 0.637 0.3225 0.45046 0.0
H1696 H 0.74916 0.9378 0.60551 0.0
H1697 H 0.71712 0.87555 0.62836 0.0
H1698 H 0.75389 0.85997 0.62821 0.0
H1699 H 0.79462 0.86325 0.61831 0.0
H1700 H 0.82618 0.92626 0.59647 0.0
H1701 H 0.79023 0.9423 0.59969 0.0
C1702 C 0.75027 0.92089 0.61071 0.0
C1703 C 0.73044 0.90777 0.6167 0.0
C1704 C 0.77139 0.91212 0.61063 0.0
C1705 C 0.73217 0.88599 0.62368 0.0
C1706 C 0.75317 0.87704 0.62347 0.0
C1707 C 0.79368 0.88055 0.61453 0.0
C1708 C 0.81307 0.89342 0.60691 0.0
C1709 C 0.77282 0.88981 0.61648 0.0
C1710 C 0.81157 0.91589 0.60227 0.0
C1711 C 0.79096 0.92511 0.60404 0.0
H1712 H 0.26246 0.59247 0.36562 0.0
H1713 H 0.23119 0.64043 0.40564 0.0
H1714 H 0.26879 0.65871 0.41696 0.0
H1715 H 0.31039 0.66129 0.41521 0.0
H1716 H 0.3418 0.61463 0.37369 0.0
H1717 H 0.30423 0.59558 0.36321 0.0
C1718 C 0.2639 0.60687 0.37689 0.0
C1719 C 0.24411 0.61505 0.38485 0.0
C1720 C 0.28555 0.61753 0.38302 0.0
C1721 C 0.24619 0.63387 0.39923 0.0
C1722 C 0.26767 0.6443 0.40575 0.0
C1723 C 0.30904 0.64688 0.40395 0.0
C1724 C 0.32883 0.6393 0.39533 0.0
C1725 C 0.28743 0.63629 0.3977 0.0
C1726 C 0.32679 0.6208 0.38052 0.0
C1727 C 0.30534 0.60989 0.37455 0.0
H1728 H 0.64862 0.06947 0.62681 0.0
H1729 H 0.57575 0.0533 0.62973 0.0
H1730 H 0.58036 0.01398 0.62396 0.0
H1731 H 0.60536 0.98404 0.62033 0.0
H1732 H 0.67832 0.00061 0.6184 0.0
H1733 H 0.67334 0.03991 0.6217 0.0
C1734 C 0.63368 0.05742 0.62588 0.0
C1735 C 0.61186 0.06435 0.62871 0.0
C1736 C 0.63649 0.03484 0.62305 0.0
C1737 C 0.59273 0.04844 0.62757 0.0
C1738 C 0.59537 0.02593 0.6244 0.0
C1739 C 0.62018 0.99623 0.62061 0.0
C1740 C 0.6422 0.98928 0.61927 0.0
C1741 C 0.61722 0.0189 0.62254 0.0
C1742 C 0.66118 0.00539 0.61951 0.0
C1743 C 0.65835 0.02792 0.62135 0.0
H1744 H 0.21027 0.32061 0.91067 0.0
H1745 H 0.17555 0.37381 0.88325 0.0
H1746 H 0.21202 0.39317 0.87298 0.0
H1747 H 0.25381 0.39518 0.87225 0.0
H1748 H 0.28832 0.341 0.89786 0.0
H1749 H 0.25188 0.32174 0.90823 0.0
C1750 C 0.21073 0.33647 0.90251 0.0
C1751 C 0.19034 0.34587 0.89788 0.0
C1752 C 0.23168 0.34728 0.89624 0.0
C1753 C 0.19108 0.36625 0.88697 0.0
C1754 C 0.2119 0.37734 0.88112 0.0
C1755 C 0.25332 0.37913 0.88005 0.0
C1756 C 0.2737 0.36958 0.88437 0.0
C1757 C 0.23231 0.36803 0.88573 0.0
C1758 C 0.27283 0.34867 0.89427 0.0
C1759 C 0.25202 0.33769 0.9003 0.0
H1760 H 0.34395 0.43543 0.63384 0.0
H1761 H 0.41432 0.46117 0.62696 0.0
H1762 H 0.40268 0.49827 0.62092 0.0
H1763 H 0.37281 0.52415 0.62243 0.0
H1764 H 0.30322 0.49818 0.63318 0.0
H1765 H 0.31416 0.46045 0.63267 0.0
C1766 C 0.35676 0.44903 0.63057 0.0
C1767 C 0.37999 0.44551 0.63095 0.0
C1768 C 0.35004 0.47039 0.62803 0.0
C1769 C 0.39632 0.46341 0.62681 0.0
C1770 C 0.38967 0.48466 0.62346 0.0
C1771 C 0.36003 0.51015 0.62417 0.0
C1772 C 0.33726 0.51388 0.62787 0.0
C1773 C 0.36663 0.48848 0.62475 0.0
C1774 C 0.32087 0.49568 0.63042 0.0
C1775 C 0.32712 0.47412 0.63016 0.0
H1776 H 0.73942 0.07769 0.12923 0.0
H1777 H 0.77037 0.14271 0.11274 0.0
H1778 H 0.73267 0.15538 0.10699 0.0
H1779 H 0.69081 0.14774 0.10553 0.0
H1780 H 0.66001 0.08259 0.12171 0.0
H1781 H 0.69769 0.07041 0.12895 0.0
C1782 C 0.73796 0.09463 0.12434 0.0
C1783 C 0.75777 0.10915 0.12131 0.0
C1784 C 0.7162 0.10187 0.12114 0.0
C1785 C 0.75546 0.13111 0.11515 0.0
C1786 C 0.73388 0.13841 0.11188 0.0
C1787 C 0.69233 0.13096 0.11092 0.0
C1788 C 0.67258 0.11612 0.11307 0.0
C1789 C 0.71412 0.12392 0.11475 0.0
C1790 C 0.6749 0.09438 0.1199 0.0
C1791 C 0.69647 0.08735 0.12397 0.0
H1792 H 0.62042 0.02449 0.86638 0.0
H1793 H 0.68925 0.00647 0.86956 0.0
H1794 H 0.6749 0.96707 0.86742 0.0
H1795 H 0.64272 0.9379 0.86113 0.0
H1796 H 0.57443 0.95663 0.85276 0.0
H1797 H 0.5884 0.99551 0.86049 0.0
C1798 C 0.63219 0.01187 0.86706 0.0
C1799 C 0.65577 0.01819 0.86837 0.0
C1800 C 0.62385 0.98939 0.86462 0.0
C1801 C 0.67099 0.00183 0.86866 0.0
C1802 C 0.6628 0.97937 0.86735 0.0
C1803 C 0.63097 0.95053 0.86132 0.0
C1804 C 0.60764 0.94457 0.85649 0.0
C1805 C 0.63927 0.97296 0.8648 0.0
C1806 C 0.59249 0.96098 0.85638 0.0
C1807 C 0.60045 0.98316 0.86081 0.0
H1808 H 0.91591 0.04383 0.36668 0.0
H1809 H 0.85277 0.07327 0.35819 0.0
H1810 H 0.83107 0.03752 0.36505 0.0
H1811 H 0.83031 0.99719 0.36988 0.0
H1812 H 0.89362 0.9684 0.38075 0.0
H1813 H 0.91508 0.0047 0.37705 0.0
C1814 C 0.8974 0.04238 0.3666 0.0
C1815 C 0.88584 0.06088 0.36163 0.0
C1816 C 0.88514 0.02197 0.37101 0.0
C1817 C 0.86192 0.0591 0.36194 0.0
C1818 C 0.84956 0.0387 0.36578 0.0
C1819 C 0.84878 0.99898 0.37183 0.0
C1820 C 0.8604 0.98018 0.37531 0.0
C1821 C 0.861 0.01992 0.36984 0.0
C1822 C 0.8843 0.98268 0.3781 0.0
C1823 C 0.89659 0.00338 0.3758 0.0
H1824 H 0.35102 0.2497 0.06785 0.0
H1825 H 0.33403 0.27476 0.13281 0.0
H1826 H 0.33842 0.23868 0.1492 0.0
H1827 H 0.35256 0.20172 0.1459 0.0
H1828 H 0.36901 0.17708 0.08044 0.0
H1829 H 0.35918 0.21113 0.06346 0.0
C1830 C 0.34774 0.24709 0.08549 0.0
C1831 C 0.34247 0.26489 0.09915 0.0
C1832 C 0.35055 0.22644 0.0948 0.0
C1833 C 0.33805 0.26127 0.12192 0.0
C1834 C 0.3408 0.2407 0.13135 0.0
C1835 C 0.35361 0.20367 0.12788 0.0
C1836 C 0.36192 0.187 0.11456 0.0
C1837 C 0.34791 0.22342 0.11811 0.0
C1838 C 0.36288 0.18968 0.09117 0.0
C1839 C 0.35731 0.2092 0.0814 0.0
H1840 H 0.55539 0.6714 0.90394 0.0
H1841 H 0.58293 0.63007 0.85388 0.0
H1842 H 0.54439 0.61914 0.83817 0.0
H1843 H 0.5027 0.62027 0.8397 0.0
H1844 H 0.47567 0.66024 0.89128 0.0
H1845 H 0.51428 0.67284 0.90527 0.0
C1846 C 0.55306 0.66011 0.88948 0.0
C1847 C 0.57206 0.65159 0.88009 0.0
C1848 C 0.53092 0.65362 0.88084 0.0
C1849 C 0.56861 0.63685 0.86147 0.0
C1850 C 0.54658 0.6306 0.85248 0.0
C1851 C 0.50529 0.63189 0.85388 0.0
C1852 C 0.48633 0.63932 0.86443 0.0
C1853 C 0.52758 0.63873 0.86217 0.0
C1854 C 0.48995 0.6542 0.88292 0.0
C1855 C 0.51203 0.66142 0.89093 0.0
H1856 H 0.13259 0.74227 0.61367 0.0
H1857 H 0.11557 0.75438 0.54427 0.0
H1858 H 0.11439 0.79368 0.55314 0.0
H1859 H 0.11388 0.82353 0.581 0.0
H1860 H 0.12769 0.81157 0.65111 0.0
H1861 H 0.13468 0.77341 0.64162 0.0
C1862 C 0.12913 0.75367 0.60048 0.0
C1863 C 0.12416 0.74553 0.57836 0.0
C1864 C 0.12763 0.7762 0.60588 0.0
C1865 C 0.11936 0.76032 0.56143 0.0
C1866 C 0.11863 0.78276 0.56649 0.0
C1867 C 0.11873 0.81273 0.59423 0.0
C1868 C 0.12008 0.82038 0.61676 0.0
C1869 C 0.12205 0.79073 0.58874 0.0
C1870 C 0.12644 0.80609 0.63364 0.0
C1871 C 0.13037 0.78424 0.62822 0.0
H1872 H 0.01039 0.37519 0.3395 0.0
H1873 H 0.03829 0.33062 0.38609 0.0
H1874 H 0.00095 0.32284 0.40254 0.0
H1875 H 0.9609 0.32965 0.40455 0.0
H1876 H 0.93324 0.37602 0.35978 0.0
H1877 H 0.97004 0.38226 0.34177 0.0
C1878 C 0.00819 0.3636 0.3531 0.0
C1879 C 0.027 0.35338 0.36151 0.0
C1880 C 0.98682 0.3597 0.36289 0.0
C1881 C 0.02405 0.33869 0.37936 0.0
C1882 C 0.00273 0.33426 0.38877 0.0
C1883 C 0.96285 0.34106 0.39078 0.0
C1884 C 0.94433 0.35231 0.38347 0.0
C1885 C 0.98408 0.34483 0.38082 0.0
C1886 C 0.94725 0.36721 0.36577 0.0
C1887 C 0.96826 0.37073 0.35543 0.0
H1888 H 0.39444 0.8177 0.38752 0.0
H1889 H 0.42484 0.80019 0.32549 0.0
H1890 H 0.42513 0.762 0.33752 0.0
H1891 H 0.41617 0.73339 0.36532 0.0
H1892 H 0.38689 0.75105 0.42794 0.0
H1893 H 0.38704 0.78934 0.41612 0.0
C1894 C 0.40104 0.80549 0.37661 0.0
C1895 C 0.40943 0.81175 0.35557 0.0
C1896 C 0.40152 0.7836 0.38379 0.0
C1897 C 0.41825 0.79582 0.34176 0.0
C1898 C 0.41844 0.77396 0.34863 0.0
C1899 C 0.40994 0.74562 0.37646 0.0
C1900 C 0.40146 0.73926 0.39746 0.0
C1901 C 0.41008 0.76765 0.36959 0.0
C1902 C 0.39358 0.75543 0.4117 0.0
C1903 C 0.39354 0.77735 0.40492 0.0
H1904 H 0.98906 0.63955 0.18952 0.0
H1905 H 0.0107 0.61597 0.12563 0.0
H1906 H 0.97307 0.62025 0.10858 0.0
H1907 H 0.93569 0.63515 0.11097 0.0
H1908 H 0.91459 0.65852 0.17529 0.0
H1909 H 0.95027 0.64976 0.193 0.0
C1910 C 0.98541 0.63495 0.17196 0.0
C1911 C 0.00268 0.62771 0.15879 0.0
C1912 C 0.96391 0.6377 0.16226 0.0
C1913 C 0.99765 0.62156 0.13613 0.0
C1914 C 0.97621 0.6242 0.12633 0.0
C1915 C 0.9388 0.63805 0.1289 0.0
C1916 C 0.92263 0.64782 0.14169 0.0
C1917 C 0.95946 0.63297 0.13907 0.0
C1918 C 0.92678 0.6512 0.16498 0.0
C1919 C 0.94722 0.64622 0.17516 0.0
H1920 H 0.13306 0.23495 0.91795 0.0
H1921 H 0.08564 0.25758 0.86884 0.0
H1922 H 0.07743 0.21995 0.85346 0.0
H1923 H 0.08442 0.18113 0.8531 0.0
H1924 H 0.13271 0.15798 0.90098 0.0
H1925 H 0.13995 0.19542 0.91766 0.0
C1926 C 0.12078 0.23159 0.90401 0.0
C1927 C 0.10995 0.24906 0.89458 0.0
C1928 C 0.11643 0.20991 0.89493 0.0
C1929 C 0.09426 0.24448 0.87637 0.0
C1930 C 0.08956 0.22296 0.86755 0.0
C1931 C 0.09651 0.18415 0.86724 0.0
C1932 C 0.108 0.16671 0.87576 0.0
C1933 C 0.10069 0.20563 0.87655 0.0
C1934 C 0.12367 0.17108 0.89403 0.0
C1935 C 0.12778 0.19248 0.9036 0.0
H1936 H 0.5731 0.38004 0.65353 0.0
H1937 H 0.5472 0.37484 0.58474 0.0
H1938 H 0.51145 0.38822 0.59626 0.0
H1939 H 0.48571 0.39606 0.62672 0.0
H1940 H 0.5112 0.39823 0.69558 0.0
H1941 H 0.54911 0.39185 0.68319 0.0
C1942 C 0.55979 0.38213 0.64096 0.0
C1943 C 0.56268 0.37611 0.61836 0.0
C1944 C 0.53916 0.38927 0.64778 0.0
C1945 C 0.54535 0.37918 0.60228 0.0
C1946 C 0.52487 0.38678 0.60888 0.0
C1947 C 0.49977 0.39581 0.63891 0.0
C1948 C 0.49574 0.39755 0.66202 0.0
C1949 C 0.5213 0.39116 0.63169 0.0
C1950 C 0.51395 0.39688 0.67771 0.0
C1951 C 0.53557 0.39309 0.67064 0.0
H1952 H 0.06453 0.37889 0.24618 0.0
H1953 H 0.13352 0.36974 0.26731 0.0
H1954 H 0.14581 0.37443 0.22856 0.0
H1955 H 0.13735 0.38477 0.18931 0.0
H1956 H 0.06773 0.39253 0.16868 0.0
H1957 H 0.0553 0.38453 0.20648 0.0
C1958 C 0.0822 0.37762 0.24224 0.0
C1959 C 0.09815 0.37423 0.25955 0.0
C1960 C 0.08906 0.38024 0.22002 0.0
C1961 C 0.12093 0.37232 0.25421 0.0
C1962 C 0.12797 0.37515 0.2321 0.0
C1963 C 0.11943 0.3844 0.19304 0.0
C1964 C 0.10357 0.38953 0.17621 0.0
C1965 C 0.11228 0.37966 0.21494 0.0
C1966 C 0.08036 0.38875 0.18127 0.0
C1967 C 0.07319 0.38425 0.20295 0.0
H1968 H 0.35333 0.40566 0.95411 0.0
H1969 H 0.37769 0.34405 0.93292 0.0
H1970 H 0.37734 0.33149 0.97158 0.0
H1971 H 0.36748 0.33678 0.0109 0.0
H1972 H 0.34347 0.39839 0.03242 0.0
H1973 H 0.34613 0.41207 0.99412 0.0
C1974 C 0.35899 0.38967 0.95801 0.0
C1975 C 0.36543 0.3758 0.9406 0.0
C1976 C 0.35839 0.38235 0.98027 0.0
C1977 C 0.37261 0.35507 0.94596 0.0
C1978 C 0.37227 0.34779 0.96806 0.0
C1979 C 0.36276 0.35318 0.0072 0.0
C1980 C 0.35496 0.36642 0.0244 0.0
C1981 C 0.36463 0.36104 0.98524 0.0
C1982 C 0.34937 0.38781 0.01943 0.0
C1983 C 0.35094 0.39566 0.99755 0.0
H1984 H 0.33602 0.60342 0.71377 0.0
H1985 H 0.39717 0.6136 0.67592 0.0
H1986 H 0.42048 0.61779 0.71088 0.0
H1987 H 0.42348 0.61613 0.75224 0.0
H1988 H 0.36219 0.60948 0.79017 0.0
H1989 H 0.33882 0.60661 0.75524 0.0
C1990 C 0.35444 0.60678 0.71328 0.0
C1991 C 0.36498 0.60799 0.69246 0.0
C1992 C 0.36764 0.60977 0.73342 0.0
C1993 C 0.38877 0.61264 0.69186 0.0
C1994 C 0.40208 0.61494 0.7118 0.0
C1995 C 0.405 0.61432 0.75278 0.0
C1996 C 0.3945 0.61281 0.77362 0.0
C1997 C 0.39171 0.61319 0.73267 0.0
C1998 C 0.37058 0.61075 0.77425 0.0
C1999 C 0.35724 0.60897 0.75431 0.0
H2000 H 0.12758 0.61063 0.51013 0.0
H2001 H 0.12176 0.67883 0.49333 0.0
H2002 H 0.12729 0.67013 0.4539 0.0
H2003 H 0.13652 0.64403 0.42464 0.0
H2004 H 0.14323 0.57596 0.44098 0.0
H2005 H 0.13419 0.58369 0.48002 0.0
C2006 C 0.12738 0.62357 0.49784 0.0
C2007 C 0.12449 0.64542 0.50482 0.0
C2008 C 0.13068 0.61849 0.47507 0.0
C2009 C 0.1241 0.6619 0.48856 0.0
C2010 C 0.12725 0.65696 0.46595 0.0
C2011 C 0.13571 0.63077 0.43663 0.0
C2012 C 0.1407 0.60948 0.4299 0.0
C2013 C 0.13093 0.63542 0.45908 0.0
C2014 C 0.13947 0.5925 0.44569 0.0
C2015 C 0.13444 0.59695 0.46806 0.0
H2016 H 0.13715 0.6069 0.22303 0.0
H2017 H 0.08044 0.63564 0.25198 0.0
H2018 H 0.09507 0.6284 0.28976 0.0
H2019 H 0.12394 0.61365 0.31457 0.0
H2020 H 0.17962 0.58355 0.28512 0.0
H2021 H 0.16537 0.59156 0.24759 0.0
C2022 C 0.12803 0.61169 0.2376 0.0
C2023 C 0.10781 0.6219 0.23468 0.0
C2024 C 0.13631 0.60717 0.25921 0.0
C2025 C 0.09605 0.62774 0.25375 0.0
C2026 C 0.10441 0.62362 0.27536 0.0
C2027 C 0.13296 0.60888 0.29994 0.0
C2028 C 0.15285 0.59805 0.3027 0.0
C2029 C 0.12452 0.6133 0.2783 0.0
C2030 C 0.16423 0.59183 0.28353 0.0
C2031 C 0.15613 0.59645 0.26202 0.0
H2032 H 0.12298 0.35911 0.06645 0.0
H2033 H 0.13261 0.42114 0.03221 0.0
H2034 H 0.1286 0.40143 0.99578 0.0
H2035 H 0.12563 0.36643 0.97379 0.0
H2036 H 0.1212 0.30438 0.00815 0.0
H2037 H 0.1196 0.32403 0.04437 0.0
C2038 C 0.12386 0.36825 0.05096 0.0
C2039 C 0.12797 0.39148 0.05189 0.0
C2040 C 0.12253 0.35675 0.03014 0.0
C2041 C 0.1295 0.40322 0.03181 0.0
C2042 C 0.1272 0.39197 0.01101 0.0
C2043 C 0.12385 0.35726 0.98921 0.0
C2044 C 0.12327 0.33406 0.98843 0.0
C2045 C 0.12414 0.36873 0.00998 0.0
C2046 C 0.12155 0.32228 0.00847 0.0
C2047 C 0.12072 0.3335 0.02913 0.0
H2048 H 0.34076 0.41094 0.7941 0.0
H2049 H 0.39951 0.38723 0.82724 0.0
H2050 H 0.41818 0.38553 0.79124 0.0
H2051 H 0.41742 0.39005 0.7502 0.0
H2052 H 0.35775 0.41201 0.71712 0.0
H2053 H 0.33991 0.41529 0.75332 0.0
C2054 C 0.35769 0.40546 0.7935 0.0
C2055 C 0.36872 0.39924 0.81335 0.0
C2056 C 0.36817 0.40426 0.77276 0.0
C2057 C 0.39059 0.39203 0.81221 0.0
C2058 C 0.4013 0.39111 0.79164 0.0
C2059 C 0.4006 0.39575 0.75096 0.0
C2060 C 0.38895 0.40086 0.73103 0.0
C2061 C 0.39022 0.39712 0.77179 0.0
C2062 C 0.36705 0.40794 0.73223 0.0
C2063 C 0.35683 0.40981 0.75291 0.0
H2064 H 0.3892 0.63261 0.49196 0.0
H2065 H 0.37866 0.70043 0.50773 0.0
H2066 H 0.37073 0.69081 0.54653 0.0
H2067 H 0.36289 0.66266 0.57469 0.0
H2068 H 0.37025 0.59411 0.55866 0.0
H2069 H 0.3834 0.60442 0.52132 0.0
C2070 C 0.38567 0.64531 0.50408 0.0
C2071 C 0.38457 0.6672 0.49711 0.0
C2072 C 0.38023 0.63946 0.52619 0.0
C2073 C 0.37958 0.68348 0.51278 0.0
C2074 C 0.37496 0.67797 0.53492 0.0
C2075 C 0.36761 0.64996 0.56316 0.0
C2076 C 0.36544 0.62763 0.56942 0.0
C2077 C 0.37459 0.65592 0.54162 0.0
C2078 C 0.37165 0.61142 0.55423 0.0
C2079 C 0.37915 0.6173 0.53286 0.0
H2080 H 0.18585 0.08725 0.39583 0.0
H2081 H 0.21154 0.15507 0.38402 0.0
H2082 H 0.24945 0.14354 0.37748 0.0
H2083 H 0.2761 0.11454 0.37867 0.0
H2084 H 0.25035 0.04743 0.39342 0.0
H2085 H 0.21168 0.05826 0.39501 0.0
C2086 C 0.19963 0.09952 0.39152 0.0
C2087 C 0.19585 0.12201 0.3905 0.0
C2088 C 0.22146 0.09287 0.38841 0.0
C2089 C 0.21398 0.13765 0.38498 0.0
C2090 C 0.23569 0.13107 0.38129 0.0
C2091 C 0.26193 0.10225 0.38181 0.0
C2092 C 0.26606 0.08021 0.38593 0.0
C2093 C 0.23976 0.10877 0.38345 0.0
C2094 C 0.24761 0.0645 0.39028 0.0
C2095 C 0.22549 0.07069 0.39124 0.0
H2096 H 0.75453 0.40821 0.62909 0.0
H2097 H 0.78225 0.35423 0.5946 0.0
H2098 H 0.74377 0.33755 0.58435 0.0
H2099 H 0.70237 0.33821 0.58522 0.0
H2100 H 0.67443 0.39134 0.62089 0.0
H2101 H 0.71296 0.40845 0.63065 0.0
C2102 C 0.75214 0.39283 0.61929 0.0
C2103 C 0.77121 0.38252 0.61256 0.0
C2104 C 0.72997 0.38317 0.61367 0.0
C2105 C 0.76785 0.36248 0.60004 0.0
C2106 C 0.74586 0.35294 0.59413 0.0
C2107 C 0.70469 0.35358 0.59506 0.0
C2108 C 0.68558 0.36354 0.60223 0.0
C2109 C 0.72682 0.36314 0.60085 0.0
C2110 C 0.68888 0.38332 0.61519 0.0
C2111 C 0.71088 0.39313 0.62075 0.0
H2112 H 0.40761 0.94964 0.35648 0.0
H2113 H 0.34177 0.91827 0.37424 0.0
H2114 H 0.32887 0.95449 0.38233 0.0
H2115 H 0.33564 0.9951 0.38279 0.0
H2116 H 0.40123 0.02657 0.36429 0.0
H2117 H 0.41475 0.99032 0.35796 0.0
C2118 C 0.39054 0.9507 0.36242 0.0
C2119 C 0.37571 0.93124 0.36479 0.0
C2120 C 0.38306 0.97164 0.36665 0.0
C2121 C 0.35356 0.93297 0.37228 0.0
C2122 C 0.34612 0.95369 0.37683 0.0
C2123 C 0.3529 0.99407 0.37737 0.0
C2124 C 0.36732 0.01362 0.37392 0.0
C2125 C 0.36061 0.97315 0.37375 0.0
C2126 C 0.38969 0.01187 0.36701 0.0
C2127 C 0.39748 0.99111 0.36342 0.0
H2128 H 0.79889 0.64433 0.13076 0.0
H2129 H 0.80561 0.63062 0.05993 0.0
H2130 H 0.77048 0.60569 0.05916 0.0
H2131 H 0.73771 0.58827 0.07813 0.0
H2132 H 0.72789 0.60413 0.14785 0.0
H2133 H 0.76448 0.62766 0.14969 0.0
C2134 C 0.79257 0.63586 0.11522 0.0
C2135 C 0.80476 0.63927 0.09543 0.0
C2136 C 0.77195 0.62189 0.11474 0.0
C2137 C 0.7964 0.62839 0.07532 0.0
C2138 C 0.77639 0.61405 0.07488 0.0
C2139 C 0.74371 0.59666 0.09383 0.0
C2140 C 0.73044 0.59424 0.11293 0.0
C2141 C 0.76407 0.6107 0.09444 0.0
C2142 C 0.73802 0.60566 0.13299 0.0
C2143 C 0.75885 0.61912 0.134 0.0
H2144 H 0.61802 0.54754 0.36847 0.0
H2145 H 0.68437 0.57402 0.34683 0.0
H2146 H 0.6995 0.53906 0.35472 0.0
H2147 H 0.69303 0.4998 0.36377 0.0
H2148 H 0.62743 0.47294 0.38652 0.0
H2149 H 0.61301 0.50922 0.38261 0.0
C2150 C 0.63585 0.54573 0.36579 0.0
C2151 C 0.64992 0.56332 0.35675 0.0
C2152 C 0.64459 0.52548 0.3705 0.0
C2153 C 0.67308 0.56078 0.35364 0.0
C2154 C 0.68178 0.54073 0.35809 0.0
C2155 C 0.67569 0.50201 0.36828 0.0
C2156 C 0.66124 0.48373 0.37521 0.0
C2157 C 0.66757 0.52281 0.36594 0.0
C2158 C 0.63891 0.48681 0.38122 0.0
C2159 C 0.6306 0.50751 0.37879 0.0
H2160 H 0.25058 0.90609 0.87682 0.0
H2161 H 0.22139 0.83842 0.88399 0.0
H2162 H 0.25925 0.82679 0.89087 0.0
H2163 H 0.30061 0.8358 0.8962 0.0
H2164 H 0.33005 0.9034 0.88973 0.0
H2165 H 0.2923 0.91492 0.881 0.0
C2166 C 0.25249 0.8888 0.87987 0.0
C2167 C 0.23304 0.87324 0.87997 0.0
C2168 C 0.27443 0.88212 0.88386 0.0
C2169 C 0.23595 0.85086 0.88386 0.0
C2170 C 0.25765 0.84412 0.88778 0.0
C2171 C 0.29882 0.85301 0.89262 0.0
C2172 C 0.31817 0.86868 0.89363 0.0
C2173 C 0.27701 0.85961 0.88795 0.0
C2174 C 0.31547 0.89096 0.88908 0.0
C2175 C 0.29385 0.8976 0.88416 0.0
H2176 H 0.33198 0.99896 0.17173 0.0
H2177 H 0.34889 0.99037 0.10233 0.0
H2178 H 0.36345 0.02969 0.10111 0.0
H2179 H 0.37314 0.06615 0.12069 0.0
H2180 H 0.35895 0.07281 0.19102 0.0
H2181 H 0.34131 0.03462 0.19096 0.0
C2182 C 0.33865 0.00569 0.15624 0.0
C2183 C 0.33929 0.99184 0.13713 0.0
C2184 C 0.34748 0.02798 0.15589 0.0
C2185 C 0.34825 0.00075 0.11728 0.0
C2186 C 0.35655 0.0232 0.11658 0.0
C2187 C 0.36589 0.05921 0.13585 0.0
C2188 C 0.36718 0.07215 0.15581 0.0
C2189 C 0.35648 0.03693 0.13589 0.0
C2190 C 0.35814 0.06304 0.17551 0.0
C2191 C 0.34809 0.04125 0.17548 0.0
H2192 H 0.0923 0.96062 0.61959 0.0
H2193 H 0.15648 0.93351 0.62983 0.0
H2194 H 0.17705 0.97045 0.62614 0.0
H2195 H 0.17604 0.01105 0.62535 0.0
H2196 H 0.1117 0.03766 0.61337 0.0
H2197 H 0.09188 0.00027 0.6119 0.0
C2198 C 0.11082 0.96281 0.62045 0.0
C2199 C 0.12297 0.94463 0.62517 0.0
C2200 C 0.12242 0.98397 0.61817 0.0
C2201 C 0.1469 0.94739 0.62612 0.0
C2202 C 0.1586 0.96849 0.62419 0.0
C2203 C 0.15775 0.00858 0.62193 0.0
C2204 C 0.14528 0.02704 0.61984 0.0
C2205 C 0.14646 0.98701 0.62101 0.0
C2206 C 0.12166 0.0237 0.61509 0.0
C2207 C 0.11028 0.00233 0.61441 0.0
loop_
_geom_bond_atom_site_label_1
_geom_bond_atom_site_label_2
_geom_bond_distance
_geom_bond_site_symmetry_2
_ccdc_geom_bond_type
O0 Cd1 2.223 . S
O0 C8 1.315 . S
Cd1 O0 2.223 . S
Cd1 O4 2.297 . S
Cd1 O5 2.439 . S
Cd1 O11 2.240 . S
Cd2 O3 2.240 . S
Cd2 O10 2.223 . S
Cd2 O12 2.297 . S
Cd2 O13 2.439 . S
O3 Cd2 2.240 . S
O3 C8 1.279 . S
O4 Cd1 2.297 . S
O4 C6 1.247 . S
O5 Cd1 2.439 . S
O5 C6 1.208 . S
C6 O4 1.247 . S
C6 O5 1.208 . S
C7 O12 1.247 . S
C7 O13 1.208 . S
C8 O0 1.315 . S
C8 O3 1.279 . S
C9 O10 1.315 . S
C9 O11 1.279 . S
O10 Cd2 2.223 . S
O10 C9 1.315 . S
O11 Cd1 2.240 . S
O11 C9 1.279 . S
O12 Cd2 2.297 . S
O12 C7 1.247 . S
O13 Cd2 2.439 . S
O13 C7 1.208 . S
O14 Cd15 2.223 . S
O14 C22 1.315 . S
Cd15 O14 2.223 . S
Cd15 O18 2.297 . S
Cd15 O19 2.439 . S
Cd15 O25 2.240 . S
Cd16 O17 2.240 . S
Cd16 O24 2.223 . S
Cd16 O26 2.297 . S
Cd16 O27 2.439 . S
O17 Cd16 2.240 . S
O17 C22 1.279 . S
O18 Cd15 2.297 . S
O18 C20 1.247 . S
O19 Cd15 2.439 . S
O19 C20 1.208 . S
C20 O18 1.247 . S
C20 O19 1.208 . S
C21 O26 1.247 . S
C21 O27 1.208 . S
C22 O14 1.315 . S
C22 O17 1.279 . S
C23 O24 1.315 . S
C23 O25 1.279 . S
O24 Cd16 2.223 . S
O24 C23 1.315 . S
O25 Cd15 2.240 . S
O25 C23 1.279 . S
O26 Cd16 2.297 . S
O26 C21 1.247 . S
O27 Cd16 2.439 . S
O27 C21 1.208 . S
O28 Cd29 2.223 . S
O28 C36 1.315 . S
Cd29 O28 2.223 . S
Cd29 O32 2.297 . S
Cd29 O33 2.439 . S
Cd29 O39 2.240 . S
Cd30 O31 2.240 . S
Cd30 O38 2.223 . S
Cd30 O40 2.297 . S
Cd30 O41 2.439 . S
O31 Cd30 2.240 . S
O31 C36 1.279 . S
O32 Cd29 2.297 . S
O32 C34 1.247 . S
O33 Cd29 2.439 . S
O33 C34 1.208 . S
C34 O32 1.247 . S
C34 O33 1.208 . S
C35 O40 1.247 . S
C35 O41 1.208 . S
C36 O28 1.315 . S
C36 O31 1.279 . S
C37 O38 1.315 . S
C37 O39 1.279 . S
O38 Cd30 2.223 . S
O38 C37 1.315 . S
O39 Cd29 2.240 . S
O39 C37 1.279 . S
O40 Cd30 2.297 . S
O40 C35 1.247 . S
O41 Cd30 2.439 . S
O41 C35 1.208 . S
O42 Cd43 2.223 . S
O42 C50 1.315 . S
Cd43 O42 2.223 . S
Cd43 O46 2.297 . S
Cd43 O47 2.439 . S
Cd43 O53 2.240 . S
Cd44 O45 2.240 . S
Cd44 O52 2.223 . S
Cd44 O54 2.297 . S
Cd44 O55 2.439 . S
O45 Cd44 2.240 . S
O45 C50 1.279 . S
O46 Cd43 2.297 . S
O46 C48 1.247 . S
O47 Cd43 2.439 . S
O47 C48 1.208 . S
C48 O46 1.247 . S
C48 O47 1.208 . S
C49 O54 1.247 . S
C49 O55 1.208 . S
C50 O42 1.315 . S
C50 O45 1.279 . S
C51 O52 1.315 . S
C51 O53 1.279 . S
O52 Cd44 2.223 . S
O52 C51 1.315 . S
O53 Cd43 2.240 . S
O53 C51 1.279 . S
O54 Cd44 2.297 . S
O54 C49 1.247 . S
O55 Cd44 2.439 . S
O55 C49 1.208 . S
O56 Cd57 2.223 . S
O56 C64 1.315 . S
Cd57 O56 2.223 . S
Cd57 O60 2.297 . S
Cd57 O61 2.439 . S
Cd57 O67 2.240 . S
Cd58 O59 2.240 . S
Cd58 O66 2.223 . S
Cd58 O68 2.297 . S
Cd58 O69 2.439 . S
O59 Cd58 2.240 . S
O59 C64 1.279 . S
O60 Cd57 2.297 . S
O60 C62 1.247 . S
O61 Cd57 2.439 . S
O61 C62 1.208 . S
C62 O60 1.247 . S
C62 O61 1.208 . S
C63 O68 1.247 . S
C63 O69 1.208 . S
C64 O56 1.315 . S
C64 O59 1.279 . S
C65 O66 1.315 . S
C65 O67 1.279 . S
O66 Cd58 2.223 . S
O66 C65 1.315 . S
O67 Cd57 2.240 . S
O67 C65 1.279 . S
O68 Cd58 2.297 . S
O68 C63 1.247 . S
O69 Cd58 2.439 . S
O69 C63 1.208 . S
O70 Cd71 2.223 . S
O70 C78 1.315 . S
Cd71 O70 2.223 . S
Cd71 O74 2.297 . S
Cd71 O75 2.439 . S
Cd71 O81 2.240 . S
Cd72 O73 2.240 . S
Cd72 O80 2.223 . S
Cd72 O82 2.297 . S
Cd72 O83 2.439 . S
O73 Cd72 2.240 . S
O73 C78 1.279 . S
O74 Cd71 2.297 . S
O74 C76 1.247 . S
O75 Cd71 2.439 . S
O75 C76 1.208 . S
C76 O74 1.247 . S
C76 O75 1.208 . S
C77 O82 1.247 . S
C77 O83 1.208 . S
C78 O70 1.315 . S
C78 O73 1.279 . S
C79 O80 1.315 . S
C79 O81 1.279 . S
O80 Cd72 2.223 . S
O80 C79 1.315 . S
O81 Cd71 2.240 . S
O81 C79 1.279 . S
O82 Cd72 2.297 . S
O82 C77 1.247 . S
O83 Cd72 2.439 . S
O83 C77 1.208 . S
O84 Cd85 2.223 . S
O84 C92 1.315 . S
Cd85 O84 2.223 . S
Cd85 O88 2.297 . S
Cd85 O89 2.439 . S
Cd85 O95 2.240 . S
Cd86 O87 2.240 . S
Cd86 O94 2.223 . S
Cd86 O96 2.297 . S
Cd86 O97 2.439 . S
O87 Cd86 2.240 . S
O87 C92 1.279 . S
O88 Cd85 2.297 . S
O88 C90 1.247 . S
O89 Cd85 2.439 . S
O89 C90 1.208 . S
C90 O88 1.247 . S
C90 O89 1.208 . S
C91 O96 1.247 . S
C91 O97 1.208 . S
C92 O84 1.315 . S
C92 O87 1.279 . S
C93 O94 1.315 . S
C93 O95 1.279 . S
O94 Cd86 2.223 . S
O94 C93 1.315 . S
O95 Cd85 2.240 . S
O95 C93 1.279 . S
O96 Cd86 2.297 . S
O96 C91 1.247 . S
O97 Cd86 2.439 . S
O97 C91 1.208 . S
O98 Cd99 2.223 . S
O98 C106 1.315 . S
Cd99 O98 2.223 . S
Cd99 O102 2.297 . S
Cd99 O103 2.439 . S
Cd99 O109 2.240 . S
Cd100 O101 2.240 . S
Cd100 O108 2.223 . S
Cd100 O110 2.297 . S
Cd100 O111 2.439 . S
O101 Cd100 2.240 . S
O101 C106 1.279 . S
O102 Cd99 2.297 . S
O102 C104 1.247 . S
O103 Cd99 2.439 . S
O103 C104 1.208 . S
C104 O102 1.247 . S
C104 O103 1.208 . S
C105 O110 1.247 . S
C105 O111 1.208 . S
C106 O98 1.315 . S
C106 O101 1.279 . S
C107 O108 1.315 . S
C107 O109 1.279 . S
O108 Cd100 2.223 . S
O108 C107 1.315 . S
O109 Cd99 2.240 . S
O109 C107 1.279 . S
O110 Cd100 2.297 . S
O110 C105 1.247 . S
O111 Cd100 2.439 . S
O111 C105 1.208 . S
O112 Cd113 2.223 . S
O112 C120 1.315 . S
Cd113 O112 2.223 . S
Cd113 O116 2.297 . S
Cd113 O117 2.439 . S
Cd113 O123 2.240 . S
Cd114 O115 2.240 . S
Cd114 O122 2.223 . S
Cd114 O124 2.297 . S
Cd114 O125 2.439 . S
O115 Cd114 2.240 . S
O115 C120 1.279 . S
O116 Cd113 2.297 . S
O116 C118 1.247 . S
O117 Cd113 2.439 . S
O117 C118 1.208 . S
C118 O116 1.247 . S
C118 O117 1.208 . S
C119 O124 1.247 . S
C119 O125 1.208 . S
C120 O112 1.315 . S
C120 O115 1.279 . S
C121 O122 1.315 . S
C121 O123 1.279 . S
O122 Cd114 2.223 . S
O122 C121 1.315 . S
O123 Cd113 2.240 . S
O123 C121 1.279 . S
O124 Cd114 2.297 . S
O124 C119 1.247 . S
O125 Cd114 2.439 . S
O125 C119 1.208 . S
O126 Cd127 2.223 . S
O126 C134 1.315 . S
Cd127 O126 2.223 . S
Cd127 O130 2.297 . S
Cd127 O131 2.439 . S
Cd127 O137 2.240 . S
Cd128 O129 2.240 . S
Cd128 O136 2.223 . S
Cd128 O138 2.297 . S
Cd128 O139 2.439 . S
O129 Cd128 2.240 . S
O129 C134 1.279 . S
O130 Cd127 2.297 . S
O130 C132 1.247 . S
O131 Cd127 2.439 . S
O131 C132 1.208 . S
C132 O130 1.247 . S
C132 O131 1.208 . S
C133 O138 1.247 . S
C133 O139 1.208 . S
C134 O126 1.315 . S
C134 O129 1.279 . S
C135 O136 1.315 . S
C135 O137 1.279 . S
O136 Cd128 2.223 . S
O136 C135 1.315 . S
O137 Cd127 2.240 . S
O137 C135 1.279 . S
O138 Cd128 2.297 . S
O138 C133 1.247 . S
O139 Cd128 2.439 . S
O139 C133 1.208 . S
O140 Cd141 2.223 . S
O140 C148 1.315 . S
Cd141 O140 2.223 . S
Cd141 O144 2.297 . S
Cd141 O145 2.439 . S
Cd141 O151 2.240 . S
Cd142 O143 2.240 . S
Cd142 O150 2.223 . S
Cd142 O152 2.297 . S
Cd142 O153 2.439 . S
O143 Cd142 2.240 . S
O143 C148 1.279 . S
O144 Cd141 2.297 . S
O144 C146 1.247 . S
O145 Cd141 2.439 . S
O145 C146 1.208 . S
C146 O144 1.247 . S
C146 O145 1.208 . S
C147 O152 1.247 . S
C147 O153 1.208 . S
C148 O140 1.315 . S
C148 O143 1.279 . S
C149 O150 1.315 . S
C149 O151 1.279 . S
O150 Cd142 2.223 . S
O150 C149 1.315 . S
O151 Cd141 2.240 . S
O151 C149 1.279 . S
O152 Cd142 2.297 . S
O152 C147 1.247 . S
O153 Cd142 2.439 . S
O153 C147 1.208 . S
O154 Cd155 2.223 . S
O154 C162 1.315 . S
Cd155 O154 2.223 . S
Cd155 O158 2.297 . S
Cd155 O159 2.439 . S
Cd155 O165 2.240 . S
Cd156 O157 2.240 . S
Cd156 O164 2.223 . S
Cd156 O166 2.297 . S
Cd156 O167 2.439 . S
O157 Cd156 2.240 . S
O157 C162 1.279 . S
O158 Cd155 2.297 . S
O158 C160 1.247 . S
O159 Cd155 2.439 . S
O159 C160 1.208 . S
C160 O158 1.247 . S
C160 O159 1.208 . S
C161 O166 1.247 . S
C161 O167 1.208 . S
C162 O154 1.315 . S
C162 O157 1.279 . S
C163 O164 1.315 . S
C163 O165 1.279 . S
O164 Cd156 2.223 . S
O164 C163 1.315 . S
O165 Cd155 2.240 . S
O165 C163 1.279 . S
O166 Cd156 2.297 . S
O166 C161 1.247 . S
O167 Cd156 2.439 . S
O167 C161 1.208 . S
O168 Cd169 2.223 . S
O168 C176 1.315 . S
Cd169 O168 2.223 . S
Cd169 O172 2.297 . S
Cd169 O173 2.439 . S
Cd169 O179 2.240 . S
Cd170 O171 2.240 . S
Cd170 O178 2.223 . S
Cd170 O180 2.297 . S
Cd170 O181 2.439 . S
O171 Cd170 2.240 . S
O171 C176 1.279 . S
O172 Cd169 2.297 . S
O172 C174 1.247 . S
O173 Cd169 2.439 . S
O173 C174 1.208 . S
C174 O172 1.247 . S
C174 O173 1.208 . S
C175 O180 1.247 . S
C175 O181 1.208 . S
C176 O168 1.315 . S
C176 O171 1.279 . S
C177 O178 1.315 . S
C177 O179 1.279 . S
O178 Cd170 2.223 . S
O178 C177 1.315 . S
O179 Cd169 2.240 . S
O179 C177 1.279 . S
O180 Cd170 2.297 . S
O180 C175 1.247 . S
O181 Cd170 2.439 . S
O181 C175 1.208 . S
O182 Cd183 2.223 . S
O182 C190 1.315 . S
Cd183 O182 2.223 . S
Cd183 O186 2.297 . S
Cd183 O187 2.439 . S
Cd183 O193 2.240 . S
Cd184 O185 2.240 . S
Cd184 O192 2.223 . S
Cd184 O194 2.297 . S
Cd184 O195 2.439 . S
O185 Cd184 2.240 . S
O185 C190 1.279 . S
O186 Cd183 2.297 . S
O186 C188 1.247 . S
O187 Cd183 2.439 . S
O187 C188 1.208 . S
C188 O186 1.247 . S
C188 O187 1.208 . S
C189 O194 1.247 . S
C189 O195 1.208 . S
C190 O182 1.315 . S
C190 O185 1.279 . S
C191 O192 1.315 . S
C191 O193 1.279 . S
O192 Cd184 2.223 . S
O192 C191 1.315 . S
O193 Cd183 2.240 . S
O193 C191 1.279 . S
O194 Cd184 2.297 . S
O194 C189 1.247 . S
O195 Cd184 2.439 . S
O195 C189 1.208 . S
O196 Cd197 2.223 . S
O196 C204 1.315 . S
Cd197 O196 2.223 . S
Cd197 O200 2.297 . S
Cd197 O201 2.439 . S
Cd197 O207 2.240 . S
Cd198 O199 2.240 . S
Cd198 O206 2.223 . S
Cd198 O208 2.297 . S
Cd198 O209 2.439 . S
O199 Cd198 2.240 . S
O199 C204 1.279 . S
O200 Cd197 2.297 . S
O200 C202 1.247 . S
O201 Cd197 2.439 . S
O201 C202 1.208 . S
C202 O200 1.247 . S
C202 O201 1.208 . S
C203 O208 1.247 . S
C203 O209 1.208 . S
C204 O196 1.315 . S
C204 O199 1.279 . S
C205 O206 1.315 . S
C205 O207 1.279 . S
O206 Cd198 2.223 . S
O206 C205 1.315 . S
O207 Cd197 2.240 . S
O207 C205 1.279 . S
O208 Cd198 2.297 . S
O208 C203 1.247 . S
O209 Cd198 2.439 . S
O209 C203 1.208 . S
O210 Cd211 2.223 . S
O210 C218 1.315 . S
Cd211 O210 2.223 . S
Cd211 O214 2.297 . S
Cd211 O215 2.439 . S
Cd211 O221 2.240 . S
Cd212 O213 2.240 . S
Cd212 O220 2.223 . S
Cd212 O222 2.297 . S
Cd212 O223 2.439 . S
O213 Cd212 2.240 . S
O213 C218 1.279 . S
O214 Cd211 2.297 . S
O214 C216 1.247 . S
O215 Cd211 2.439 . S
O215 C216 1.208 . S
C216 O214 1.247 . S
C216 O215 1.208 . S
C217 O222 1.247 . S
C217 O223 1.208 . S
C218 O210 1.315 . S
C218 O213 1.279 . S
C219 O220 1.315 . S
C219 O221 1.279 . S
O220 Cd212 2.223 . S
O220 C219 1.315 . S
O221 Cd211 2.240 . S
O221 C219 1.279 . S
O222 Cd212 2.297 . S
O222 C217 1.247 . S
O223 Cd212 2.439 . S
O223 C217 1.208 . S
O224 Cd225 2.223 . S
O224 C232 1.315 . S
Cd225 O224 2.223 . S
Cd225 O228 2.297 . S
Cd225 O229 2.439 . S
Cd225 O235 2.240 . S
Cd226 O227 2.240 . S
Cd226 O234 2.223 . S
Cd226 O236 2.297 . S
Cd226 O237 2.439 . S
O227 Cd226 2.240 . S
O227 C232 1.279 . S
O228 Cd225 2.297 . S
O228 C230 1.247 . S
O229 Cd225 2.439 . S
O229 C230 1.208 . S
C230 O228 1.247 . S
C230 O229 1.208 . S
C231 O236 1.247 . S
C231 O237 1.208 . S
C232 O224 1.315 . S
C232 O227 1.279 . S
C233 O234 1.315 . S
C233 O235 1.279 . S
O234 Cd226 2.223 . S
O234 C233 1.315 . S
O235 Cd225 2.240 . S
O235 C233 1.279 . S
O236 Cd226 2.297 . S
O236 C231 1.247 . S
O237 Cd226 2.439 . S
O237 C231 1.208 . S
O238 Cd239 2.223 . S
O238 C246 1.315 . S
Cd239 O238 2.223 . S
Cd239 O242 2.297 . S
Cd239 O243 2.439 . S
Cd239 O249 2.240 . S
Cd240 O241 2.240 . S
Cd240 O248 2.223 . S
Cd240 O250 2.297 . S
Cd240 O251 2.439 . S
O241 Cd240 2.240 . S
O241 C246 1.279 . S
O242 Cd239 2.297 . S
O242 C244 1.247 . S
O243 Cd239 2.439 . S
O243 C244 1.208 . S
C244 O242 1.247 . S
C244 O243 1.208 . S
C245 O250 1.247 . S
C245 O251 1.208 . S
C246 O238 1.315 . S
C246 O241 1.279 . S
C247 O248 1.315 . S
C247 O249 1.279 . S
O248 Cd240 2.223 . S
O248 C247 1.315 . S
O249 Cd239 2.240 . S
O249 C247 1.279 . S
O250 Cd240 2.297 . S
O250 C245 1.247 . S
O251 Cd240 2.439 . S
O251 C245 1.208 . S
O252 Cd253 2.223 . S
O252 C260 1.315 . S
Cd253 O252 2.223 . S
Cd253 O256 2.297 . S
Cd253 O257 2.439 . S
Cd253 O263 2.240 . S
Cd254 O255 2.240 . S
Cd254 O262 2.223 . S
Cd254 O264 2.297 . S
Cd254 O265 2.439 . S
O255 Cd254 2.240 . S
O255 C260 1.279 . S
O256 Cd253 2.297 . S
O256 C258 1.247 . S
O257 Cd253 2.439 . S
O257 C258 1.208 . S
C258 O256 1.247 . S
C258 O257 1.208 . S
C259 O264 1.247 . S
C259 O265 1.208 . S
C260 O252 1.315 . S
C260 O255 1.279 . S
C261 O262 1.315 . S
C261 O263 1.279 . S
O262 Cd254 2.223 . S
O262 C261 1.315 . S
O263 Cd253 2.240 . S
O263 C261 1.279 . S
O264 Cd254 2.297 . S
O264 C259 1.247 . S
O265 Cd254 2.439 . S
O265 C259 1.208 . S
O266 Cd267 2.223 . S
O266 C274 1.315 . S
Cd267 O266 2.223 . S
Cd267 O270 2.297 . S
Cd267 O271 2.439 . S
Cd267 O277 2.240 . S
Cd268 O269 2.240 . S
Cd268 O276 2.223 . S
Cd268 O278 2.297 . S
Cd268 O279 2.439 . S
O269 Cd268 2.240 . S
O269 C274 1.279 . S
O270 Cd267 2.297 . S
O270 C272 1.247 . S
O271 Cd267 2.439 . S
O271 C272 1.208 . S
C272 O270 1.247 . S
C272 O271 1.208 . S
C273 O278 1.247 . S
C273 O279 1.208 . S
C274 O266 1.315 . S
C274 O269 1.279 . S
C275 O276 1.315 . S
C275 O277 1.279 . S
O276 Cd268 2.223 . S
O276 C275 1.315 . S
O277 Cd267 2.240 . S
O277 C275 1.279 . S
O278 Cd268 2.297 . S
O278 C273 1.247 . S
O279 Cd268 2.439 . S
O279 C273 1.208 . S
O280 Cd281 2.223 . S
O280 C288 1.315 . S
Cd281 O280 2.223 . S
Cd281 O284 2.297 . S
Cd281 O285 2.439 . S
Cd281 O291 2.240 . S
Cd282 O283 2.240 . S
Cd282 O290 2.223 . S
Cd282 O292 2.297 . S
Cd282 O293 2.439 . S
O283 Cd282 2.240 . S
O283 C288 1.279 . S
O284 Cd281 2.297 . S
O284 C286 1.247 . S
O285 Cd281 2.439 . S
O285 C286 1.208 . S
C286 O284 1.247 . S
C286 O285 1.208 . S
C287 O292 1.247 . S
C287 O293 1.208 . S
C288 O280 1.315 . S
C288 O283 1.279 . S
C289 O290 1.315 . S
C289 O291 1.279 . S
O290 Cd282 2.223 . S
O290 C289 1.315 . S
O291 Cd281 2.240 . S
O291 C289 1.279 . S
O292 Cd282 2.297 . S
O292 C287 1.247 . S
O293 Cd282 2.439 . S
O293 C287 1.208 . S
O294 Cd295 2.223 . S
O294 C302 1.315 . S
Cd295 O294 2.223 . S
Cd295 O298 2.297 . S
Cd295 O299 2.439 . S
Cd295 O305 2.240 . S
Cd296 O297 2.240 . S
Cd296 O304 2.223 . S
Cd296 O306 2.297 . S
Cd296 O307 2.439 . S
O297 Cd296 2.240 . S
O297 C302 1.279 . S
O298 Cd295 2.297 . S
O298 C300 1.247 . S
O299 Cd295 2.439 . S
O299 C300 1.208 . S
C300 O298 1.247 . S
C300 O299 1.208 . S
C301 O306 1.247 . S
C301 O307 1.208 . S
C302 O294 1.315 . S
C302 O297 1.279 . S
C303 O304 1.315 . S
C303 O305 1.279 . S
O304 Cd296 2.223 . S
O304 C303 1.315 . S
O305 Cd295 2.240 . S
O305 C303 1.279 . S
O306 Cd296 2.297 . S
O306 C301 1.247 . S
O307 Cd296 2.439 . S
O307 C301 1.208 . S
O308 Cd309 2.223 . S
O308 C316 1.315 . S
Cd309 O308 2.223 . S
Cd309 O312 2.297 . S
Cd309 O313 2.439 . S
Cd309 O319 2.240 . S
Cd310 O311 2.240 . S
Cd310 O318 2.223 . S
Cd310 O320 2.297 . S
Cd310 O321 2.439 . S
O311 Cd310 2.240 . S
O311 C316 1.279 . S
O312 Cd309 2.297 . S
O312 C314 1.247 . S
O313 Cd309 2.439 . S
O313 C314 1.208 . S
C314 O312 1.247 . S
C314 O313 1.208 . S
C315 O320 1.247 . S
C315 O321 1.208 . S
C316 O308 1.315 . S
C316 O311 1.279 . S
C317 O318 1.315 . S
C317 O319 1.279 . S
O318 Cd310 2.223 . S
O318 C317 1.315 . S
O319 Cd309 2.240 . S
O319 C317 1.279 . S
O320 Cd310 2.297 . S
O320 C315 1.247 . S
O321 Cd310 2.439 . S
O321 C315 1.208 . S
O322 Cd323 2.223 . S
O322 C330 1.315 . S
Cd323 O322 2.223 . S
Cd323 O326 2.297 . S
Cd323 O327 2.439 . S
Cd323 O333 2.240 . S
Cd324 O325 2.240 . S
Cd324 O332 2.223 . S
Cd324 O334 2.297 . S
Cd324 O335 2.439 . S
O325 Cd324 2.240 . S
O325 C330 1.279 . S
O326 Cd323 2.297 . S
O326 C328 1.247 . S
O327 Cd323 2.439 . S
O327 C328 1.208 . S
C328 O326 1.247 . S
C328 O327 1.208 . S
C329 O334 1.247 . S
C329 O335 1.208 . S
C330 O322 1.315 . S
C330 O325 1.279 . S
C331 O332 1.315 . S
C331 O333 1.279 . S
O332 Cd324 2.223 . S
O332 C331 1.315 . S
O333 Cd323 2.240 . S
O333 C331 1.279 . S
O334 Cd324 2.297 . S
O334 C329 1.247 . S
O335 Cd324 2.439 . S
O335 C329 1.208 . S
O336 Cd337 2.223 . S
O336 C344 1.315 . S
Cd337 O336 2.223 . S
Cd337 O340 2.297 . S
Cd337 O341 2.439 . S
Cd337 O347 2.240 . S
Cd338 O339 2.240 . S
Cd338 O346 2.223 . S
Cd338 O348 2.297 . S
Cd338 O349 2.439 . S
O339 Cd338 2.240 . S
O339 C344 1.279 . S
O340 Cd337 2.297 . S
O340 C342 1.247 . S
O341 Cd337 2.439 . S
O341 C342 1.208 . S
C342 O340 1.247 . S
C342 O341 1.208 . S
C343 O348 1.247 . S
C343 O349 1.208 . S
C344 O336 1.315 . S
C344 O339 1.279 . S
C345 O346 1.315 . S
C345 O347 1.279 . S
O346 Cd338 2.223 . S
O346 C345 1.315 . S
O347 Cd337 2.240 . S
O347 C345 1.279 . S
O348 Cd338 2.297 . S
O348 C343 1.247 . S
O349 Cd338 2.439 . S
O349 C343 1.208 . S
O350 Cd351 2.223 . S
O350 C358 1.315 . S
Cd351 O350 2.223 . S
Cd351 O354 2.297 . S
Cd351 O355 2.439 . S
Cd351 O361 2.240 . S
Cd352 O353 2.240 . S
Cd352 O360 2.223 . S
Cd352 O362 2.297 . S
Cd352 O363 2.439 . S
O353 Cd352 2.240 . S
O353 C358 1.279 . S
O354 Cd351 2.297 . S
O354 C356 1.247 . S
O355 Cd351 2.439 . S
O355 C356 1.208 . S
C356 O354 1.247 . S
C356 O355 1.208 . S
C357 O362 1.247 . S
C357 O363 1.208 . S
C358 O350 1.315 . S
C358 O353 1.279 . S
C359 O360 1.315 . S
C359 O361 1.279 . S
O360 Cd352 2.223 . S
O360 C359 1.315 . S
O361 Cd351 2.240 . S
O361 C359 1.279 . S
O362 Cd352 2.297 . S
O362 C357 1.247 . S
O363 Cd352 2.439 . S
O363 C357 1.208 . S
O364 Cd365 2.223 . S
O364 C372 1.315 . S
Cd365 O364 2.223 . S
Cd365 O368 2.297 . S
Cd365 O369 2.439 . S
Cd365 O375 2.240 . S
Cd366 O367 2.240 . S
Cd366 O374 2.223 . S
Cd366 O376 2.297 . S
Cd366 O377 2.439 . S
O367 Cd366 2.240 . S
O367 C372 1.279 . S
O368 Cd365 2.297 . S
O368 C370 1.247 . S
O369 Cd365 2.439 . S
O369 C370 1.208 . S
C370 O368 1.247 . S
C370 O369 1.208 . S
C371 O376 1.247 . S
C371 O377 1.208 . S
C372 O364 1.315 . S
C372 O367 1.279 . S
C373 O374 1.315 . S
C373 O375 1.279 . S
O374 Cd366 2.223 . S
O374 C373 1.315 . S
O375 Cd365 2.240 . S
O375 C373 1.279 . S
O376 Cd366 2.297 . S
O376 C371 1.247 . S
O377 Cd366 2.439 . S
O377 C371 1.208 . S
O378 Cd379 2.223 . S
O378 C386 1.315 . S
Cd379 O378 2.223 . S
Cd379 O382 2.297 . S
Cd379 O383 2.439 . S
Cd379 O389 2.240 . S
Cd380 O381 2.240 . S
Cd380 O388 2.223 . S
Cd380 O390 2.297 . S
Cd380 O391 2.439 . S
O381 Cd380 2.240 . S
O381 C386 1.279 . S
O382 Cd379 2.297 . S
O382 C384 1.247 . S
O383 Cd379 2.439 . S
O383 C384 1.208 . S
C384 O382 1.247 . S
C384 O383 1.208 . S
C385 O390 1.247 . S
C385 O391 1.208 . S
C386 O378 1.315 . S
C386 O381 1.279 . S
C387 O388 1.315 . S
C387 O389 1.279 . S
O388 Cd380 2.223 . S
O388 C387 1.315 . S
O389 Cd379 2.240 . S
O389 C387 1.279 . S
O390 Cd380 2.297 . S
O390 C385 1.247 . S
O391 Cd380 2.439 . S
O391 C385 1.208 . S
O392 Cd393 2.223 . S
O392 C400 1.315 . S
Cd393 O392 2.223 . S
Cd393 O396 2.297 . S
Cd393 O397 2.439 . S
Cd393 O403 2.240 . S
Cd394 O395 2.240 . S
Cd394 O402 2.223 . S
Cd394 O404 2.297 . S
Cd394 O405 2.439 . S
O395 Cd394 2.240 . S
O395 C400 1.279 . S
O396 Cd393 2.297 . S
O396 C398 1.247 . S
O397 Cd393 2.439 . S
O397 C398 1.208 . S
C398 O396 1.247 . S
C398 O397 1.208 . S
C399 O404 1.247 . S
C399 O405 1.208 . S
C400 O392 1.315 . S
C400 O395 1.279 . S
C401 O402 1.315 . S
C401 O403 1.279 . S
O402 Cd394 2.223 . S
O402 C401 1.315 . S
O403 Cd393 2.240 . S
O403 C401 1.279 . S
O404 Cd394 2.297 . S
O404 C399 1.247 . S
O405 Cd394 2.439 . S
O405 C399 1.208 . S
O406 Cd407 2.223 . S
O406 C414 1.315 . S
Cd407 O406 2.223 . S
Cd407 O410 2.297 . S
Cd407 O411 2.439 . S
Cd407 O417 2.240 . S
Cd408 O409 2.240 . S
Cd408 O416 2.223 . S
Cd408 O418 2.297 . S
Cd408 O419 2.439 . S
O409 Cd408 2.240 . S
O409 C414 1.279 . S
O410 Cd407 2.297 . S
O410 C412 1.247 . S
O411 Cd407 2.439 . S
O411 C412 1.208 . S
C412 O410 1.247 . S
C412 O411 1.208 . S
C413 O418 1.247 . S
C413 O419 1.208 . S
C414 O406 1.315 . S
C414 O409 1.279 . S
C415 O416 1.315 . S
C415 O417 1.279 . S
O416 Cd408 2.223 . S
O416 C415 1.315 . S
O417 Cd407 2.240 . S
O417 C415 1.279 . S
O418 Cd408 2.297 . S
O418 C413 1.247 . S
O419 Cd408 2.439 . S
O419 C413 1.208 . S
O420 Cd421 2.223 . S
O420 C428 1.315 . S
Cd421 O420 2.223 . S
Cd421 O424 2.297 . S
Cd421 O425 2.439 . S
Cd421 O431 2.240 . S
Cd422 O423 2.240 . S
Cd422 O430 2.223 . S
Cd422 O432 2.297 . S
Cd422 O433 2.439 . S
O423 Cd422 2.240 . S
O423 C428 1.279 . S
O424 Cd421 2.297 . S
O424 C426 1.247 . S
O425 Cd421 2.439 . S
O425 C426 1.208 . S
C426 O424 1.247 . S
C426 O425 1.208 . S
C427 O432 1.247 . S
C427 O433 1.208 . S
C428 O420 1.315 . S
C428 O423 1.279 . S
C429 O430 1.315 . S
C429 O431 1.279 . S
O430 Cd422 2.223 . S
O430 C429 1.315 . S
O431 Cd421 2.240 . S
O431 C429 1.279 . S
O432 Cd422 2.297 . S
O432 C427 1.247 . S
O433 Cd422 2.439 . S
O433 C427 1.208 . S
O434 Cd435 2.223 . S
O434 C442 1.315 . S
Cd435 O434 2.223 . S
Cd435 O438 2.297 . S
Cd435 O439 2.439 . S
Cd435 O445 2.240 . S
Cd436 O437 2.240 . S
Cd436 O444 2.223 . S
Cd436 O446 2.297 . S
Cd436 O447 2.439 . S
O437 Cd436 2.240 . S
O437 C442 1.279 . S
O438 Cd435 2.297 . S
O438 C440 1.247 . S
O439 Cd435 2.439 . S
O439 C440 1.208 . S
C440 O438 1.247 . S
C440 O439 1.208 . S
C441 O446 1.247 . S
C441 O447 1.208 . S
C442 O434 1.315 . S
C442 O437 1.279 . S
C443 O444 1.315 . S
C443 O445 1.279 . S
O444 Cd436 2.223 . S
O444 C443 1.315 . S
O445 Cd435 2.240 . S
O445 C443 1.279 . S
O446 Cd436 2.297 . S
O446 C441 1.247 . S
O447 Cd436 2.439 . S
O447 C441 1.208 . S
O448 Cd449 2.223 . S
O448 C456 1.315 . S
Cd449 O448 2.223 . S
Cd449 O452 2.297 . S
Cd449 O453 2.439 . S
Cd449 O459 2.240 . S
Cd450 O451 2.240 . S
Cd450 O458 2.223 . S
Cd450 O460 2.297 . S
Cd450 O461 2.439 . S
O451 Cd450 2.240 . S
O451 C456 1.279 . S
O452 Cd449 2.297 . S
O452 C454 1.247 . S
O453 Cd449 2.439 . S
O453 C454 1.208 . S
C454 O452 1.247 . S
C454 O453 1.208 . S
C455 O460 1.247 . S
C455 O461 1.208 . S
C456 O448 1.315 . S
C456 O451 1.279 . S
C457 O458 1.315 . S
C457 O459 1.279 . S
O458 Cd450 2.223 . S
O458 C457 1.315 . S
O459 Cd449 2.240 . S
O459 C457 1.279 . S
O460 Cd450 2.297 . S
O460 C455 1.247 . S
O461 Cd450 2.439 . S
O461 C455 1.208 . S
O462 Cd463 2.223 . S
O462 C470 1.315 . S
Cd463 O462 2.223 . S
Cd463 O466 2.297 . S
Cd463 O467 2.439 . S
Cd463 O473 2.240 . S
Cd464 O465 2.240 . S
Cd464 O472 2.223 . S
Cd464 O474 2.297 . S
Cd464 O475 2.439 . S
O465 Cd464 2.240 . S
O465 C470 1.279 . S
O466 Cd463 2.297 . S
O466 C468 1.247 . S
O467 Cd463 2.439 . S
O467 C468 1.208 . S
C468 O466 1.247 . S
C468 O467 1.208 . S
C469 O474 1.247 . S
C469 O475 1.208 . S
C470 O462 1.315 . S
C470 O465 1.279 . S
C471 O472 1.315 . S
C471 O473 1.279 . S
O472 Cd464 2.223 . S
O472 C471 1.315 . S
O473 Cd463 2.240 . S
O473 C471 1.279 . S
O474 Cd464 2.297 . S
O474 C469 1.247 . S
O475 Cd464 2.439 . S
O475 C469 1.208 . S
O476 Cd477 2.223 . S
O476 C484 1.315 . S
Cd477 O476 2.223 . S
Cd477 O480 2.297 . S
Cd477 O481 2.439 . S
Cd477 O487 2.240 . S
Cd478 O479 2.240 . S
Cd478 O486 2.223 . S
Cd478 O488 2.297 . S
Cd478 O489 2.439 . S
O479 Cd478 2.240 . S
O479 C484 1.279 . S
O480 Cd477 2.297 . S
O480 C482 1.247 . S
O481 Cd477 2.439 . S
O481 C482 1.208 . S
C482 O480 1.247 . S
C482 O481 1.208 . S
C483 O488 1.247 . S
C483 O489 1.208 . S
C484 O476 1.315 . S
C484 O479 1.279 . S
C485 O486 1.315 . S
C485 O487 1.279 . S
O486 Cd478 2.223 . S
O486 C485 1.315 . S
O487 Cd477 2.240 . S
O487 C485 1.279 . S
O488 Cd478 2.297 . S
O488 C483 1.247 . S
O489 Cd478 2.439 . S
O489 C483 1.208 . S
O490 Cd491 2.223 . S
O490 C498 1.315 . S
Cd491 O490 2.223 . S
Cd491 O494 2.297 . S
Cd491 O495 2.439 . S
Cd491 O501 2.240 . S
Cd492 O493 2.240 . S
Cd492 O500 2.223 . S
Cd492 O502 2.297 . S
Cd492 O503 2.439 . S
O493 Cd492 2.240 . S
O493 C498 1.279 . S
O494 Cd491 2.297 . S
O494 C496 1.247 . S
O495 Cd491 2.439 . S
O495 C496 1.208 . S
C496 O494 1.247 . S
C496 O495 1.208 . S
C497 O502 1.247 . S
C497 O503 1.208 . S
C498 O490 1.315 . S
C498 O493 1.279 . S
C499 O500 1.315 . S
C499 O501 1.279 . S
O500 Cd492 2.223 . S
O500 C499 1.315 . S
O501 Cd491 2.240 . S
O501 C499 1.279 . S
O502 Cd492 2.297 . S
O502 C497 1.247 . S
O503 Cd492 2.439 . S
O503 C497 1.208 . S
O504 Cd505 2.223 . S
O504 C512 1.315 . S
Cd505 O504 2.223 . S
Cd505 O508 2.297 . S
Cd505 O509 2.439 . S
Cd505 O515 2.240 . S
Cd506 O507 2.240 . S
Cd506 O514 2.223 . S
Cd506 O516 2.297 . S
Cd506 O517 2.439 . S
O507 Cd506 2.240 . S
O507 C512 1.279 . S
O508 Cd505 2.297 . S
O508 C510 1.247 . S
O509 Cd505 2.439 . S
O509 C510 1.208 . S
C510 O508 1.247 . S
C510 O509 1.208 . S
C511 O516 1.247 . S
C511 O517 1.208 . S
C512 O504 1.315 . S
C512 O507 1.279 . S
C513 O514 1.315 . S
C513 O515 1.279 . S
O514 Cd506 2.223 . S
O514 C513 1.315 . S
O515 Cd505 2.240 . S
O515 C513 1.279 . S
O516 Cd506 2.297 . S
O516 C511 1.247 . S
O517 Cd506 2.439 . S
O517 C511 1.208 . S
O518 Cd519 2.223 . S
O518 C526 1.315 . S
Cd519 O518 2.223 . S
Cd519 O522 2.297 . S
Cd519 O523 2.439 . S
Cd519 O529 2.240 . S
Cd520 O521 2.240 . S
Cd520 O528 2.223 . S
Cd520 O530 2.297 . S
Cd520 O531 2.439 . S
O521 Cd520 2.240 . S
O521 C526 1.279 . S
O522 Cd519 2.297 . S
O522 C524 1.247 . S
O523 Cd519 2.439 . S
O523 C524 1.208 . S
C524 O522 1.247 . S
C524 O523 1.208 . S
C525 O530 1.247 . S
C525 O531 1.208 . S
C526 O518 1.315 . S
C526 O521 1.279 . S
C527 O528 1.315 . S
C527 O529 1.279 . S
O528 Cd520 2.223 . S
O528 C527 1.315 . S
O529 Cd519 2.240 . S
O529 C527 1.279 . S
O530 Cd520 2.297 . S
O530 C525 1.247 . S
O531 Cd520 2.439 . S
O531 C525 1.208 . S
O532 Cd533 2.223 . S
O532 C540 1.315 . S
Cd533 O532 2.223 . S
Cd533 O536 2.297 . S
Cd533 O537 2.439 . S
Cd533 O543 2.240 . S
Cd534 O535 2.240 . S
Cd534 O542 2.223 . S
Cd534 O544 2.297 . S
Cd534 O545 2.439 . S
O535 Cd534 2.240 . S
O535 C540 1.279 . S
O536 Cd533 2.297 . S
O536 C538 1.247 . S
O537 Cd533 2.439 . S
O537 C538 1.208 . S
C538 O536 1.247 . S
C538 O537 1.208 . S
C539 O544 1.247 . S
C539 O545 1.208 . S
C540 O532 1.315 . S
C540 O535 1.279 . S
C541 O542 1.315 . S
C541 O543 1.279 . S
O542 Cd534 2.223 . S
O542 C541 1.315 . S
O543 Cd533 2.240 . S
O543 C541 1.279 . S
O544 Cd534 2.297 . S
O544 C539 1.247 . S
O545 Cd534 2.439 . S
O545 C539 1.208 . S
O546 Cd547 2.223 . S
O546 C554 1.315 . S
Cd547 O546 2.223 . S
Cd547 O550 2.297 . S
Cd547 O551 2.439 . S
Cd547 O557 2.240 . S
Cd548 O549 2.240 . S
Cd548 O556 2.223 . S
Cd548 O558 2.297 . S
Cd548 O559 2.439 . S
O549 Cd548 2.240 . S
O549 C554 1.279 . S
O550 Cd547 2.297 . S
O550 C552 1.247 . S
O551 Cd547 2.439 . S
O551 C552 1.208 . S
C552 O550 1.247 . S
C552 O551 1.208 . S
C553 O558 1.247 . S
C553 O559 1.208 . S
C554 O546 1.315 . S
C554 O549 1.279 . S
C555 O556 1.315 . S
C555 O557 1.279 . S
O556 Cd548 2.223 . S
O556 C555 1.315 . S
O557 Cd547 2.240 . S
O557 C555 1.279 . S
O558 Cd548 2.297 . S
O558 C553 1.247 . S
O559 Cd548 2.439 . S
O559 C553 1.208 . S
O560 Cd561 2.223 . S
O560 C568 1.315 . S
Cd561 O560 2.223 . S
Cd561 O564 2.297 . S
Cd561 O565 2.439 . S
Cd561 O571 2.240 . S
Cd562 O563 2.240 . S
Cd562 O570 2.223 . S
Cd562 O572 2.297 . S
Cd562 O573 2.439 . S
O563 Cd562 2.240 . S
O563 C568 1.279 . S
O564 Cd561 2.297 . S
O564 C566 1.247 . S
O565 Cd561 2.439 . S
O565 C566 1.208 . S
C566 O564 1.247 . S
C566 O565 1.208 . S
C567 O572 1.247 . S
C567 O573 1.208 . S
C568 O560 1.315 . S
C568 O563 1.279 . S
C569 O570 1.315 . S
C569 O571 1.279 . S
O570 Cd562 2.223 . S
O570 C569 1.315 . S
O571 Cd561 2.240 . S
O571 C569 1.279 . S
O572 Cd562 2.297 . S
O572 C567 1.247 . S
O573 Cd562 2.439 . S
O573 C567 1.208 . S
O574 Cd575 2.223 . S
O574 C582 1.315 . S
Cd575 O574 2.223 . S
Cd575 O578 2.297 . S
Cd575 O579 2.439 . S
Cd575 O585 2.240 . S
Cd576 O577 2.240 . S
Cd576 O584 2.223 . S
Cd576 O586 2.297 . S
Cd576 O587 2.439 . S
O577 Cd576 2.240 . S
O577 C582 1.279 . S
O578 Cd575 2.297 . S
O578 C580 1.247 . S
O579 Cd575 2.439 . S
O579 C580 1.208 . S
C580 O578 1.247 . S
C580 O579 1.208 . S
C581 O586 1.247 . S
C581 O587 1.208 . S
C582 O574 1.315 . S
C582 O577 1.279 . S
C583 O584 1.315 . S
C583 O585 1.279 . S
O584 Cd576 2.223 . S
O584 C583 1.315 . S
O585 Cd575 2.240 . S
O585 C583 1.279 . S
O586 Cd576 2.297 . S
O586 C581 1.247 . S
O587 Cd576 2.439 . S
O587 C581 1.208 . S
O588 Cd589 2.223 . S
O588 C596 1.315 . S
Cd589 O588 2.223 . S
Cd589 O592 2.297 . S
Cd589 O593 2.439 . S
Cd589 O599 2.240 . S
Cd590 O591 2.240 . S
Cd590 O598 2.223 . S
Cd590 O600 2.297 . S
Cd590 O601 2.439 . S
O591 Cd590 2.240 . S
O591 C596 1.279 . S
O592 Cd589 2.297 . S
O592 C594 1.247 . S
O593 Cd589 2.439 . S
O593 C594 1.208 . S
C594 O592 1.247 . S
C594 O593 1.208 . S
C595 O600 1.247 . S
C595 O601 1.208 . S
C596 O588 1.315 . S
C596 O591 1.279 . S
C597 O598 1.315 . S
C597 O599 1.279 . S
O598 Cd590 2.223 . S
O598 C597 1.315 . S
O599 Cd589 2.240 . S
O599 C597 1.279 . S
O600 Cd590 2.297 . S
O600 C595 1.247 . S
O601 Cd590 2.439 . S
O601 C595 1.208 . S
O602 Cd603 2.223 . S
O602 C610 1.315 . S
Cd603 O602 2.223 . S
Cd603 O606 2.297 . S
Cd603 O607 2.439 . S
Cd603 O613 2.240 . S
Cd604 O605 2.240 . S
Cd604 O612 2.223 . S
Cd604 O614 2.297 . S
Cd604 O615 2.439 . S
O605 Cd604 2.240 . S
O605 C610 1.279 . S
O606 Cd603 2.297 . S
O606 C608 1.247 . S
O607 Cd603 2.439 . S
O607 C608 1.208 . S
C608 O606 1.247 . S
C608 O607 1.208 . S
C609 O614 1.247 . S
C609 O615 1.208 . S
C610 O602 1.315 . S
C610 O605 1.279 . S
C611 O612 1.315 . S
C611 O613 1.279 . S
O612 Cd604 2.223 . S
O612 C611 1.315 . S
O613 Cd603 2.240 . S
O613 C611 1.279 . S
O614 Cd604 2.297 . S
O614 C609 1.247 . S
O615 Cd604 2.439 . S
O615 C609 1.208 . S
O616 Cd617 2.223 . S
O616 C624 1.315 . S
Cd617 O616 2.223 . S
Cd617 O620 2.297 . S
Cd617 O621 2.439 . S
Cd617 O627 2.240 . S
Cd618 O619 2.240 . S
Cd618 O626 2.223 . S
Cd618 O628 2.297 . S
Cd618 O629 2.439 . S
O619 Cd618 2.240 . S
O619 C624 1.279 . S
O620 Cd617 2.297 . S
O620 C622 1.247 . S
O621 Cd617 2.439 . S
O621 C622 1.208 . S
C622 O620 1.247 . S
C622 O621 1.208 . S
C623 O628 1.247 . S
C623 O629 1.208 . S
C624 O616 1.315 . S
C624 O619 1.279 . S
C625 O626 1.315 . S
C625 O627 1.279 . S
O626 Cd618 2.223 . S
O626 C625 1.315 . S
O627 Cd617 2.240 . S
O627 C625 1.279 . S
O628 Cd618 2.297 . S
O628 C623 1.247 . S
O629 Cd618 2.439 . S
O629 C623 1.208 . S
O630 Cd631 2.223 . S
O630 C638 1.315 . S
Cd631 O630 2.223 . S
Cd631 O634 2.297 . S
Cd631 O635 2.439 . S
Cd631 O641 2.240 . S
Cd632 O633 2.240 . S
Cd632 O640 2.223 . S
Cd632 O642 2.297 . S
Cd632 O643 2.439 . S
O633 Cd632 2.240 . S
O633 C638 1.279 . S
O634 Cd631 2.297 . S
O634 C636 1.247 . S
O635 Cd631 2.439 . S
O635 C636 1.208 . S
C636 O634 1.247 . S
C636 O635 1.208 . S
C637 O642 1.247 . S
C637 O643 1.208 . S
C638 O630 1.315 . S
C638 O633 1.279 . S
C639 O640 1.315 . S
C639 O641 1.279 . S
O640 Cd632 2.223 . S
O640 C639 1.315 . S
O641 Cd631 2.240 . S
O641 C639 1.279 . S
O642 Cd632 2.297 . S
O642 C637 1.247 . S
O643 Cd632 2.439 . S
O643 C637 1.208 . S
O644 Cd645 2.223 . S
O644 C652 1.315 . S
Cd645 O644 2.223 . S
Cd645 O648 2.297 . S
Cd645 O649 2.439 . S
Cd645 O655 2.240 . S
Cd646 O647 2.240 . S
Cd646 O654 2.223 . S
Cd646 O656 2.297 . S
Cd646 O657 2.439 . S
O647 Cd646 2.240 . S
O647 C652 1.279 . S
O648 Cd645 2.297 . S
O648 C650 1.247 . S
O649 Cd645 2.439 . S
O649 C650 1.208 . S
C650 O648 1.247 . S
C650 O649 1.208 . S
C651 O656 1.247 . S
C651 O657 1.208 . S
C652 O644 1.315 . S
C652 O647 1.279 . S
C653 O654 1.315 . S
C653 O655 1.279 . S
O654 Cd646 2.223 . S
O654 C653 1.315 . S
O655 Cd645 2.240 . S
O655 C653 1.279 . S
O656 Cd646 2.297 . S
O656 C651 1.247 . S
O657 Cd646 2.439 . S
O657 C651 1.208 . S
O658 Cd659 2.223 . S
O658 C666 1.315 . S
Cd659 O658 2.223 . S
Cd659 O662 2.297 . S
Cd659 O663 2.439 . S
Cd659 O669 2.240 . S
Cd660 O661 2.240 . S
Cd660 O668 2.223 . S
Cd660 O670 2.297 . S
Cd660 O671 2.439 . S
O661 Cd660 2.240 . S
O661 C666 1.279 . S
O662 Cd659 2.297 . S
O662 C664 1.247 . S
O663 Cd659 2.439 . S
O663 C664 1.208 . S
C664 O662 1.247 . S
C664 O663 1.208 . S
C665 O670 1.247 . S
C665 O671 1.208 . S
C666 O658 1.315 . S
C666 O661 1.279 . S
C667 O668 1.315 . S
C667 O669 1.279 . S
O668 Cd660 2.223 . S
O668 C667 1.315 . S
O669 Cd659 2.240 . S
O669 C667 1.279 . S
O670 Cd660 2.297 . S
O670 C665 1.247 . S
O671 Cd660 2.439 . S
O671 C665 1.208 . S
H672 C678 0.930 . S
H673 C681 0.930 . S
H674 C682 0.930 . S
H675 C683 0.930 . S
H676 C686 0.930 . S
H677 C687 0.930 . S
C678 H672 0.930 . S
C678 C679 1.355 . S
C678 C680 1.415 . S
C679 C678 1.355 . S
C679 C681 1.419 . S
C680 C678 1.415 . S
C680 C685 1.425 . S
C680 C687 1.409 . S
C681 H673 0.930 . S
C681 C679 1.419 . S
C681 C682 1.362 . S
C682 H674 0.930 . S
C682 C681 1.362 . S
C682 C685 1.409 . S
C683 H675 0.930 . S
C683 C684 1.355 . S
C683 C685 1.415 . S
C684 C683 1.355 . S
C684 C686 1.419 . S
C685 C680 1.425 . S
C685 C682 1.409 . S
C685 C683 1.415 . S
C686 H676 0.930 . S
C686 C684 1.419 . S
C686 C687 1.362 . S
C687 H677 0.930 . S
C687 C680 1.409 . S
C687 C686 1.362 . S
H688 C694 0.930 . S
H689 C697 0.930 . S
H690 C698 0.930 . S
H691 C699 0.930 . S
H692 C702 0.930 . S
H693 C703 0.930 . S
C694 H688 0.930 . S
C694 C695 1.355 . S
C694 C696 1.415 . S
C695 C694 1.355 . S
C695 C697 1.419 . S
C696 C694 1.415 . S
C696 C701 1.425 1_455 S
C696 C703 1.409 1_455 S
C697 H689 0.930 . S
C697 C695 1.419 . S
C697 C698 1.362 . S
C698 H690 0.930 . S
C698 C697 1.362 . S
C698 C701 1.409 1_455 S
C699 H691 0.930 . S
C699 C700 1.355 . S
C699 C701 1.415 . S
C700 C699 1.355 . S
C700 C702 1.419 . S
C701 C696 1.425 1_655 S
C701 C698 1.409 1_655 S
C701 C699 1.415 . S
C702 H692 0.930 . S
C702 C700 1.419 . S
C702 C703 1.362 . S
C703 H693 0.930 . S
C703 C696 1.409 1_655 S
C703 C702 1.362 . S
H704 C710 0.930 . S
H705 C713 0.930 . S
H706 C714 0.930 . S
H707 C715 0.930 . S
H708 C718 0.930 . S
H709 C719 0.930 . S
C710 H704 0.930 . S
C710 C711 1.355 . S
C710 C712 1.415 . S
C711 C710 1.355 . S
C711 C713 1.419 . S
C712 C710 1.415 . S
C712 C717 1.425 . S
C712 C719 1.409 . S
C713 H705 0.930 . S
C713 C711 1.419 . S
C713 C714 1.362 . S
C714 H706 0.930 . S
C714 C713 1.362 . S
C714 C717 1.409 . S
C715 H707 0.930 . S
C715 C716 1.355 . S
C715 C717 1.415 . S
C716 C715 1.355 . S
C716 C718 1.419 . S
C717 C712 1.425 . S
C717 C714 1.409 . S
C717 C715 1.415 . S
C718 H708 0.930 . S
C718 C716 1.419 . S
C718 C719 1.362 . S
C719 H709 0.930 . S
C719 C712 1.409 . S
C719 C718 1.362 . S
H720 C726 0.930 . S
H721 C729 0.930 . S
H722 C730 0.930 . S
H723 C731 0.930 . S
H724 C734 0.930 . S
H725 C735 0.930 . S
C726 H720 0.930 . S
C726 C727 1.355 . S
C726 C728 1.415 . S
C727 C726 1.355 . S
C727 C729 1.419 . S
C728 C726 1.415 . S
C728 C733 1.425 . S
C728 C735 1.409 . S
C729 H721 0.930 . S
C729 C727 1.419 . S
C729 C730 1.362 . S
C730 H722 0.930 . S
C730 C729 1.362 . S
C730 C733 1.409 . S
C731 H723 0.930 . S
C731 C732 1.355 . S
C731 C733 1.415 . S
C732 C731 1.355 . S
C732 C734 1.419 . S
C733 C728 1.425 . S
C733 C730 1.409 . S
C733 C731 1.415 . S
C734 H724 0.930 . S
C734 C732 1.419 . S
C734 C735 1.362 . S
C735 H725 0.930 . S
C735 C728 1.409 . S
C735 C734 1.362 . S
H736 C742 0.930 . S
H737 C745 0.930 . S
H738 C746 0.930 . S
H739 C747 0.930 . S
H740 C750 0.930 . S
H741 C751 0.930 . S
C742 H736 0.930 . S
C742 C743 1.355 . S
C742 C744 1.415 . S
C743 C742 1.355 . S
C743 C745 1.419 . S
C744 C742 1.415 . S
C744 C749 1.425 . S
C744 C751 1.409 . S
C745 H737 0.930 . S
C745 C743 1.419 . S
C745 C746 1.362 . S
C746 H738 0.930 . S
C746 C745 1.362 . S
C746 C749 1.409 . S
C747 H739 0.930 . S
C747 C748 1.355 . S
C747 C749 1.415 . S
C748 C747 1.355 . S
C748 C750 1.419 . S
C749 C744 1.425 . S
C749 C746 1.409 . S
C749 C747 1.415 . S
C750 H740 0.930 . S
C750 C748 1.419 . S
C750 C751 1.362 . S
C751 H741 0.930 . S
C751 C744 1.409 . S
C751 C750 1.362 . S
H752 C758 0.930 . S
H753 C761 0.930 . S
H754 C762 0.930 . S
H755 C763 0.930 . S
H756 C766 0.930 . S
H757 C767 0.930 . S
C758 H752 0.930 . S
C758 C759 1.355 . S
C758 C760 1.415 . S
C759 C758 1.355 . S
C759 C761 1.419 . S
C760 C758 1.415 . S
C760 C765 1.425 . S
C760 C767 1.409 . S
C761 H753 0.930 . S
C761 C759 1.419 . S
C761 C762 1.362 . S
C762 H754 0.930 . S
C762 C761 1.362 . S
C762 C765 1.409 . S
C763 H755 0.930 . S
C763 C764 1.355 . S
C763 C765 1.415 . S
C764 C763 1.355 . S
C764 C766 1.419 . S
C765 C760 1.425 . S
C765 C762 1.409 . S
C765 C763 1.415 . S
C766 H756 0.930 . S
C766 C764 1.419 . S
C766 C767 1.362 . S
C767 H757 0.930 . S
C767 C760 1.409 . S
C767 C766 1.362 . S
H768 C774 0.930 . S
H769 C777 0.930 . S
H770 C778 0.930 . S
H771 C779 0.930 . S
H772 C782 0.930 . S
H773 C783 0.930 . S
C774 H768 0.930 . S
C774 C775 1.355 . S
C774 C776 1.415 . S
C775 C774 1.355 . S
C775 C777 1.419 . S
C776 C774 1.415 . S
C776 C781 1.425 . S
C776 C783 1.409 . S
C777 H769 0.930 . S
C777 C775 1.419 . S
C777 C778 1.362 . S
C778 H770 0.930 . S
C778 C777 1.362 . S
C778 C781 1.409 . S
C779 H771 0.930 . S
C779 C780 1.355 . S
C779 C781 1.415 . S
C780 C779 1.355 . S
C780 C782 1.419 . S
C781 C776 1.425 . S
C781 C778 1.409 . S
C781 C779 1.415 . S
C782 H772 0.930 . S
C782 C780 1.419 . S
C782 C783 1.362 . S
C783 H773 0.930 . S
C783 C776 1.409 . S
C783 C782 1.362 . S
H784 C790 0.930 . S
H785 C793 0.930 . S
H786 C794 0.930 . S
H787 C795 0.930 . S
H788 C798 0.930 . S
H789 C799 0.930 . S
C790 H784 0.930 . S
C790 C791 1.355 . S
C790 C792 1.415 1_455 S
C791 C790 1.355 . S
C791 C793 1.419 . S
C792 C790 1.415 1_655 S
C792 C797 1.425 . S
C792 C799 1.409 . S
C793 H785 0.930 . S
C793 C791 1.419 . S
C793 C794 1.362 1_455 S
C794 H786 0.930 . S
C794 C793 1.362 1_655 S
C794 C797 1.409 . S
C795 H787 0.930 . S
C795 C796 1.355 . S
C795 C797 1.415 . S
C796 C795 1.355 . S
C796 C798 1.419 . S
C797 C792 1.425 . S
C797 C794 1.409 . S
C797 C795 1.415 . S
C798 H788 0.930 . S
C798 C796 1.419 . S
C798 C799 1.362 . S
C799 H789 0.930 . S
C799 C792 1.409 . S
C799 C798 1.362 . S
H800 C806 0.930 . S
H801 C809 0.930 . S
H802 C810 0.930 . S
H803 C811 0.930 . S
H804 C814 0.930 . S
H805 C815 0.930 . S
C806 H800 0.930 . S
C806 C807 1.355 . S
C806 C808 1.415 . S
C807 C806 1.355 . S
C807 C809 1.419 . S
C808 C806 1.415 . S
C808 C813 1.425 . S
C808 C815 1.409 . S
C809 H801 0.930 . S
C809 C807 1.419 . S
C809 C810 1.362 . S
C810 H802 0.930 . S
C810 C809 1.362 . S
C810 C813 1.409 . S
C811 H803 0.930 . S
C811 C812 1.355 . S
C811 C813 1.415 . S
C812 C811 1.355 . S
C812 C814 1.419 . S
C813 C808 1.425 . S
C813 C810 1.409 . S
C813 C811 1.415 . S
C814 H804 0.930 . S
C814 C812 1.419 . S
C814 C815 1.362 . S
C815 H805 0.930 . S
C815 C808 1.409 . S
C815 C814 1.362 . S
H816 C822 0.930 . S
H817 C825 0.930 . S
H818 C826 0.930 . S
H819 C827 0.930 . S
H820 C830 0.930 . S
H821 C831 0.930 . S
C822 H816 0.930 . S
C822 C823 1.355 . S
C822 C824 1.415 . S
C823 C822 1.355 . S
C823 C825 1.419 . S
C824 C822 1.415 . S
C824 C829 1.425 . S
C824 C831 1.409 . S
C825 H817 0.930 . S
C825 C823 1.419 . S
C825 C826 1.362 . S
C826 H818 0.930 . S
C826 C825 1.362 . S
C826 C829 1.409 . S
C827 H819 0.930 . S
C827 C828 1.355 . S
C827 C829 1.415 . S
C828 C827 1.355 . S
C828 C830 1.419 . S
C829 C824 1.425 . S
C829 C826 1.409 . S
C829 C827 1.415 . S
C830 H820 0.930 . S
C830 C828 1.419 . S
C830 C831 1.362 . S
C831 H821 0.930 . S
C831 C824 1.409 . S
C831 C830 1.362 . S
H832 C838 0.930 . S
H833 C841 0.930 . S
H834 C842 0.930 . S
H835 C843 0.930 . S
H836 C846 0.930 . S
H837 C847 0.930 . S
C838 H832 0.930 . S
C838 C839 1.355 . S
C838 C840 1.415 . S
C839 C838 1.355 . S
C839 C841 1.419 . S
C840 C838 1.415 . S
C840 C845 1.425 . S
C840 C847 1.409 . S
C841 H833 0.930 . S
C841 C839 1.419 . S
C841 C842 1.362 . S
C842 H834 0.930 . S
C842 C841 1.362 . S
C842 C845 1.409 . S
C843 H835 0.930 . S
C843 C844 1.355 . S
C843 C845 1.415 . S
C844 C843 1.355 . S
C844 C846 1.419 . S
C845 C840 1.425 . S
C845 C842 1.409 . S
C845 C843 1.415 . S
C846 H836 0.930 . S
C846 C844 1.419 . S
C846 C847 1.362 . S
C847 H837 0.930 . S
C847 C840 1.409 . S
C847 C846 1.362 . S
H848 C854 0.930 . S
H849 C857 0.930 . S
H850 C858 0.930 1_554 S
H851 C859 0.930 . S
H852 C862 0.930 . S
H853 C863 0.930 . S
C854 H848 0.930 . S
C854 C855 1.355 . S
C854 C856 1.382 1_556 S
C855 C854 1.355 . S
C855 C857 1.419 . S
C856 C854 1.382 1_554 S
C856 C861 1.439 . S
C856 C863 1.429 . S
C857 H849 0.930 . S
C857 C855 1.419 . S
C857 C858 1.362 . S
C858 H850 0.930 1_556 S
C858 C857 1.362 . S
C858 C861 1.409 1_556 S
C859 H851 0.930 . S
C859 C860 1.355 . S
C859 C861 1.415 . S
C860 C859 1.355 . S
C860 C862 1.419 . S
C861 C856 1.439 . S
C861 C858 1.409 1_554 S
C861 C859 1.415 . S
C862 H852 0.930 . S
C862 C860 1.419 . S
C862 C863 1.362 . S
C863 H853 0.930 . S
C863 C856 1.429 . S
C863 C862 1.362 . S
H864 C870 0.930 . S
H865 C873 0.930 . S
H866 C874 0.930 . S
H867 C875 0.930 . S
H868 C878 0.930 . S
H869 C879 0.930 . S
C870 H864 0.930 . S
C870 C871 1.355 . S
C870 C872 1.415 . S
C871 C870 1.355 . S
C871 C873 1.419 . S
C872 C870 1.415 . S
C872 C877 1.425 . S
C872 C879 1.409 . S
C873 H865 0.930 . S
C873 C871 1.419 . S
C873 C874 1.362 . S
C874 H866 0.930 . S
C874 C873 1.362 . S
C874 C877 1.409 . S
C875 H867 0.930 . S
C875 C876 1.355 . S
C875 C877 1.415 . S
C876 C875 1.355 . S
C876 C878 1.419 . S
C877 C872 1.425 . S
C877 C874 1.409 . S
C877 C875 1.415 . S
C878 H868 0.930 . S
C878 C876 1.419 . S
C878 C879 1.362 . S
C879 H869 0.930 . S
C879 C872 1.409 . S
C879 C878 1.362 . S
H880 C886 0.930 . S
H881 C889 0.930 . S
H882 C890 0.930 . S
H883 C891 0.930 . S
H884 C894 0.930 . S
H885 C895 0.930 . S
C886 H880 0.930 . S
C886 C887 1.355 . S
C886 C888 1.415 . S
C887 C886 1.355 . S
C887 C889 1.419 . S
C888 C886 1.415 . S
C888 C893 1.425 . S
C888 C895 1.409 . S
C889 H881 0.930 . S
C889 C887 1.419 . S
C889 C890 1.362 . S
C890 H882 0.930 . S
C890 C889 1.362 . S
C890 C893 1.409 . S
C891 H883 0.930 . S
C891 C892 1.355 . S
C891 C893 1.415 . S
C892 C891 1.355 . S
C892 C894 1.419 . S
C893 C888 1.425 . S
C893 C890 1.409 . S
C893 C891 1.415 . S
C894 H884 0.930 . S
C894 C892 1.419 . S
C894 C895 1.362 . S
C895 H885 0.930 . S
C895 C888 1.409 . S
C895 C894 1.362 . S
H896 C902 0.930 . S
H897 C905 0.930 . S
H898 C906 0.930 . S
H899 C907 0.930 . S
H900 C910 0.930 . S
H901 C911 0.930 . S
C902 H896 0.930 . S
C902 C903 1.355 . S
C902 C904 1.415 . S
C903 C902 1.355 . S
C903 C905 1.419 . S
C904 C902 1.415 . S
C904 C909 1.425 . S
C904 C911 1.409 . S
C905 H897 0.930 . S
C905 C903 1.419 . S
C905 C906 1.362 . S
C906 H898 0.930 . S
C906 C905 1.362 . S
C906 C909 1.409 . S
C907 H899 0.930 . S
C907 C908 1.355 . S
C907 C909 1.415 . S
C908 C907 1.355 . S
C908 C910 1.419 . S
C909 C904 1.425 . S
C909 C906 1.409 . S
C909 C907 1.415 . S
C910 H900 0.930 . S
C910 C908 1.419 . S
C910 C911 1.362 . S
C911 H901 0.930 . S
C911 C904 1.409 . S
C911 C910 1.362 . S
H912 C918 0.930 . S
H913 C921 0.930 . S
H914 C922 0.930 . S
H915 C923 0.930 . S
H916 C926 0.930 . S
H917 C927 0.930 . S
C918 H912 0.930 . S
C918 C919 1.355 . S
C918 C920 1.415 . S
C919 C918 1.355 . S
C919 C921 1.419 . S
C920 C918 1.415 . S
C920 C925 1.424 1_554 S
C920 C927 1.409 1_554 S
C921 H913 0.930 . S
C921 C919 1.419 . S
C921 C922 1.362 . S
C922 H914 0.930 . S
C922 C921 1.362 . S
C922 C925 1.392 1_554 S
C923 H915 0.930 . S
C923 C924 1.355 . S
C923 C925 1.433 . S
C924 C923 1.355 . S
C924 C926 1.419 . S
C925 C920 1.424 1_556 S
C925 C922 1.392 1_556 S
C925 C923 1.433 . S
C926 H916 0.930 . S
C926 C924 1.419 . S
C926 C927 1.362 . S
C927 H917 0.930 . S
C927 C920 1.409 1_556 S
C927 C926 1.362 . S
H928 C934 0.930 . S
H929 C937 0.930 . S
H930 C938 0.930 . S
H931 C939 0.930 . S
H932 C942 0.930 . S
H933 C943 0.930 . S
C934 H928 0.930 . S
C934 C935 1.355 . S
C934 C936 1.415 . S
C935 C934 1.355 . S
C935 C937 1.419 . S
C936 C934 1.415 . S
C936 C941 1.425 . S
C936 C943 1.409 . S
C937 H929 0.930 . S
C937 C935 1.419 . S
C937 C938 1.362 . S
C938 H930 0.930 . S
C938 C937 1.362 . S
C938 C941 1.409 . S
C939 H931 0.930 . S
C939 C940 1.355 . S
C939 C941 1.415 . S
C940 C939 1.355 . S
C940 C942 1.419 . S
C941 C936 1.425 . S
C941 C938 1.409 . S
C941 C939 1.415 . S
C942 H932 0.930 . S
C942 C940 1.419 . S
C942 C943 1.362 . S
C943 H933 0.930 . S
C943 C936 1.409 . S
C943 C942 1.362 . S
H944 C950 0.930 . S
H945 C953 0.930 . S
H946 C954 0.930 . S
H947 C955 0.930 . S
H948 C958 0.930 . S
H949 C959 0.930 . S
C950 H944 0.930 . S
C950 C951 1.355 . S
C950 C952 1.415 . S
C951 C950 1.355 . S
C951 C953 1.419 . S
C952 C950 1.415 . S
C952 C957 1.425 . S
C952 C959 1.409 . S
C953 H945 0.930 . S
C953 C951 1.419 . S
C953 C954 1.362 . S
C954 H946 0.930 . S
C954 C953 1.362 . S
C954 C957 1.409 . S
C955 H947 0.930 . S
C955 C956 1.355 . S
C955 C957 1.415 . S
C956 C955 1.355 . S
C956 C958 1.419 . S
C957 C952 1.425 . S
C957 C954 1.409 . S
C957 C955 1.415 . S
C958 H948 0.930 . S
C958 C956 1.419 . S
C958 C959 1.362 . S
C959 H949 0.930 . S
C959 C952 1.409 . S
C959 C958 1.362 . S
H960 C966 0.930 . S
H961 C969 0.930 . S
H962 C970 0.930 . S
H963 C971 0.930 . S
H964 C974 0.930 . S
H965 C975 0.930 . S
C966 H960 0.930 . S
C966 C967 1.355 . S
C966 C968 1.415 . S
C967 C966 1.355 . S
C967 C969 1.419 . S
C968 C966 1.415 . S
C968 C973 1.425 . S
C968 C975 1.409 . S
C969 H961 0.930 . S
C969 C967 1.419 . S
C969 C970 1.362 . S
C970 H962 0.930 . S
C970 C969 1.362 . S
C970 C973 1.409 . S
C971 H963 0.930 . S
C971 C972 1.355 . S
C971 C973 1.415 . S
C972 C971 1.355 . S
C972 C974 1.419 . S
C973 C968 1.425 . S
C973 C970 1.409 . S
C973 C971 1.415 . S
C974 H964 0.930 . S
C974 C972 1.419 . S
C974 C975 1.362 . S
C975 H965 0.930 . S
C975 C968 1.409 . S
C975 C974 1.362 . S
H976 C982 0.930 . S
H977 C985 0.930 . S
H978 C986 0.930 . S
H979 C987 0.930 . S
H980 C990 0.930 . S
H981 C991 0.930 . S
C982 H976 0.930 . S
C982 C983 1.355 . S
C982 C984 1.415 . S
C983 C982 1.355 . S
C983 C985 1.419 . S
C984 C982 1.415 . S
C984 C989 1.425 . S
C984 C991 1.409 . S
C985 H977 0.930 . S
C985 C983 1.419 . S
C985 C986 1.362 . S
C986 H978 0.930 . S
C986 C985 1.362 . S
C986 C989 1.409 . S
C987 H979 0.930 . S
C987 C988 1.355 . S
C987 C989 1.415 . S
C988 C987 1.355 . S
C988 C990 1.419 . S
C989 C984 1.425 . S
C989 C986 1.409 . S
C989 C987 1.415 . S
C990 H980 0.930 . S
C990 C988 1.419 . S
C990 C991 1.362 . S
C991 H981 0.930 . S
C991 C984 1.409 . S
C991 C990 1.362 . S
H992 C998 0.930 . S
H993 C1001 0.930 . S
H994 C1002 0.930 . S
H995 C1003 0.930 . S
H996 C1006 0.930 . S
H997 C1007 0.930 . S
C998 H992 0.930 . S
C998 C999 1.355 . S
C998 C1000 1.415 . S
C999 C998 1.355 . S
C999 C1001 1.419 . S
C1000 C998 1.415 . S
C1000 C1005 1.425 . S
C1000 C1007 1.409 . S
C1001 H993 0.930 . S
C1001 C999 1.419 . S
C1001 C1002 1.362 . S
C1002 H994 0.930 . S
C1002 C1001 1.362 . S
C1002 C1005 1.409 . S
C1003 H995 0.930 . S
C1003 C1004 1.355 1_565 S
C1003 C1005 1.415 . S
C1004 C1003 1.355 1_545 S
C1004 C1006 1.419 . S
C1005 C1000 1.425 . S
C1005 C1002 1.409 . S
C1005 C1003 1.415 . S
C1006 H996 0.930 . S
C1006 C1004 1.419 . S
C1006 C1007 1.362 1_545 S
C1007 H997 0.930 . S
C1007 C1000 1.409 . S
C1007 C1006 1.362 1_565 S
H1008 C1014 0.930 . S
H1009 C1017 0.930 . S
H1010 C1018 0.930 . S
H1011 C1019 0.930 . S
H1012 C1022 0.930 . S
H1013 C1023 0.930 . S
C1014 H1008 0.930 . S
C1014 C1015 1.355 . S
C1014 C1016 1.415 . S
C1015 C1014 1.355 . S
C1015 C1017 1.419 . S
C1016 C1014 1.415 . S
C1016 C1021 1.425 . S
C1016 C1023 1.409 . S
C1017 H1009 0.930 . S
C1017 C1015 1.419 . S
C1017 C1018 1.362 . S
C1018 H1010 0.930 . S
C1018 C1017 1.362 . S
C1018 C1021 1.409 . S
C1019 H1011 0.930 . S
C1019 C1020 1.355 . S
C1019 C1021 1.415 . S
C1020 C1019 1.355 . S
C1020 C1022 1.419 . S
C1021 C1016 1.425 . S
C1021 C1018 1.409 . S
C1021 C1019 1.415 . S
C1022 H1012 0.930 . S
C1022 C1020 1.419 . S
C1022 C1023 1.362 . S
C1023 H1013 0.930 . S
C1023 C1016 1.409 . S
C1023 C1022 1.362 . S
H1024 C1030 0.930 . S
H1025 C1033 0.930 . S
H1026 C1034 0.930 . S
H1027 C1035 0.930 . S
H1028 C1038 0.930 . S
H1029 C1039 0.930 . S
C1030 H1024 0.930 . S
C1030 C1031 1.355 . S
C1030 C1032 1.415 . S
C1031 C1030 1.355 . S
C1031 C1033 1.419 . S
C1032 C1030 1.415 . S
C1032 C1037 1.425 . S
C1032 C1039 1.409 . S
C1033 H1025 0.930 . S
C1033 C1031 1.419 . S
C1033 C1034 1.362 . S
C1034 H1026 0.930 . S
C1034 C1033 1.362 . S
C1034 C1037 1.409 . S
C1035 H1027 0.930 . S
C1035 C1036 1.355 . S
C1035 C1037 1.415 . S
C1036 C1035 1.355 . S
C1036 C1038 1.419 . S
C1037 C1032 1.425 . S
C1037 C1034 1.409 . S
C1037 C1035 1.415 . S
C1038 H1028 0.930 . S
C1038 C1036 1.419 . S
C1038 C1039 1.362 . S
C1039 H1029 0.930 . S
C1039 C1032 1.409 . S
C1039 C1038 1.362 . S
H1040 C1046 0.930 . S
H1041 C1049 0.930 . S
H1042 C1050 0.930 . S
H1043 C1051 0.930 . S
H1044 C1054 0.930 . S
H1045 C1055 0.930 . S
C1046 H1040 0.930 . S
C1046 C1047 1.355 . S
C1046 C1048 1.415 . S
C1047 C1046 1.355 . S
C1047 C1049 1.419 . S
C1048 C1046 1.415 . S
C1048 C1053 1.425 . S
C1048 C1055 1.409 . S
C1049 H1041 0.930 . S
C1049 C1047 1.419 . S
C1049 C1050 1.362 . S
C1050 H1042 0.930 . S
C1050 C1049 1.362 . S
C1050 C1053 1.409 . S
C1051 H1043 0.930 . S
C1051 C1052 1.355 . S
C1051 C1053 1.415 . S
C1052 C1051 1.355 . S
C1052 C1054 1.419 . S
C1053 C1048 1.425 . S
C1053 C1050 1.409 . S
C1053 C1051 1.415 . S
C1054 H1044 0.930 . S
C1054 C1052 1.419 . S
C1054 C1055 1.362 . S
C1055 H1045 0.930 . S
C1055 C1048 1.409 . S
C1055 C1054 1.362 . S
H1056 C1062 0.930 . S
H1057 C1065 0.930 . S
H1058 C1066 0.930 . S
H1059 C1067 0.930 . S
H1060 C1070 0.930 . S
H1061 C1071 0.930 . S
C1062 H1056 0.930 . S
C1062 C1063 1.355 . S
C1062 C1064 1.415 . S
C1063 C1062 1.355 . S
C1063 C1065 1.419 . S
C1064 C1062 1.415 . S
C1064 C1069 1.425 . S
C1064 C1071 1.409 . S
C1065 H1057 0.930 . S
C1065 C1063 1.419 . S
C1065 C1066 1.362 . S
C1066 H1058 0.930 . S
C1066 C1065 1.362 . S
C1066 C1069 1.409 . S
C1067 H1059 0.930 . S
C1067 C1068 1.355 . S
C1067 C1069 1.415 . S
C1068 C1067 1.355 . S
C1068 C1070 1.419 . S
C1069 C1064 1.425 . S
C1069 C1066 1.409 . S
C1069 C1067 1.415 . S
C1070 H1060 0.930 . S
C1070 C1068 1.419 . S
C1070 C1071 1.362 . S
C1071 H1061 0.930 . S
C1071 C1064 1.409 . S
C1071 C1070 1.362 . S
H1072 C1078 0.930 . S
H1073 C1081 0.930 . S
H1074 C1082 0.930 . S
H1075 C1083 0.930 . S
H1076 C1086 0.930 . S
H1077 C1087 0.930 . S
C1078 H1072 0.930 . S
C1078 C1079 1.355 . S
C1078 C1080 1.415 . S
C1079 C1078 1.355 . S
C1079 C1081 1.419 . S
C1080 C1078 1.415 . S
C1080 C1085 1.417 1_655 S
C1080 C1087 1.409 1_655 S
C1081 H1073 0.930 . S
C1081 C1079 1.419 . S
C1081 C1082 1.362 . S
C1082 H1074 0.930 . S
C1082 C1081 1.362 . S
C1082 C1085 1.389 1_655 S
C1083 H1075 0.930 . S
C1083 C1084 1.355 . S
C1083 C1085 1.444 . S
C1084 C1083 1.355 . S
C1084 C1086 1.419 . S
C1085 C1080 1.417 1_455 S
C1085 C1082 1.389 1_455 S
C1085 C1083 1.444 . S
C1086 H1076 0.930 . S
C1086 C1084 1.419 . S
C1086 C1087 1.362 . S
C1087 H1077 0.930 . S
C1087 C1080 1.409 1_455 S
C1087 C1086 1.362 . S
H1088 C1094 0.930 . S
H1089 C1097 0.930 . S
H1090 C1098 0.930 . S
H1091 C1099 0.930 . S
H1092 C1102 0.930 . S
H1093 C1103 0.930 . S
C1094 H1088 0.930 . S
C1094 C1095 1.355 . S
C1094 C1096 1.415 . S
C1095 C1094 1.355 . S
C1095 C1097 1.419 . S
C1096 C1094 1.415 . S
C1096 C1101 1.425 . S
C1096 C1103 1.409 . S
C1097 H1089 0.930 . S
C1097 C1095 1.419 . S
C1097 C1098 1.362 . S
C1098 H1090 0.930 . S
C1098 C1097 1.362 . S
C1098 C1101 1.409 . S
C1099 H1091 0.930 . S
C1099 C1100 1.355 . S
C1099 C1101 1.415 . S
C1100 C1099 1.355 . S
C1100 C1102 1.419 . S
C1101 C1096 1.425 . S
C1101 C1098 1.409 . S
C1101 C1099 1.415 . S
C1102 H1092 0.930 . S
C1102 C1100 1.419 . S
C1102 C1103 1.362 . S
C1103 H1093 0.930 . S
C1103 C1096 1.409 . S
C1103 C1102 1.362 . S
H1104 C1110 0.930 . S
H1105 C1113 0.930 . S
H1106 C1114 0.930 . S
H1107 C1115 0.930 . S
H1108 C1118 0.930 . S
H1109 C1119 0.930 . S
C1110 H1104 0.930 . S
C1110 C1111 1.355 . S
C1110 C1112 1.415 . S
C1111 C1110 1.355 . S
C1111 C1113 1.419 . S
C1112 C1110 1.415 . S
C1112 C1117 1.425 . S
C1112 C1119 1.409 . S
C1113 H1105 0.930 . S
C1113 C1111 1.419 . S
C1113 C1114 1.362 . S
C1114 H1106 0.930 . S
C1114 C1113 1.362 . S
C1114 C1117 1.409 . S
C1115 H1107 0.930 . S
C1115 C1116 1.355 . S
C1115 C1117 1.415 . S
C1116 C1115 1.355 . S
C1116 C1118 1.419 . S
C1117 C1112 1.425 . S
C1117 C1114 1.409 . S
C1117 C1115 1.415 . S
C1118 H1108 0.930 . S
C1118 C1116 1.419 . S
C1118 C1119 1.362 . S
C1119 H1109 0.930 . S
C1119 C1112 1.409 . S
C1119 C1118 1.362 . S
H1120 C1126 0.930 . S
H1121 C1129 0.930 . S
H1122 C1130 0.930 . S
H1123 C1131 0.930 . S
H1124 C1134 0.930 . S
H1125 C1135 0.930 . S
C1126 H1120 0.930 . S
C1126 C1127 1.355 . S
C1126 C1128 1.415 . S
C1127 C1126 1.355 . S
C1127 C1129 1.419 . S
C1128 C1126 1.415 . S
C1128 C1133 1.425 . S
C1128 C1135 1.409 . S
C1129 H1121 0.930 . S
C1129 C1127 1.419 . S
C1129 C1130 1.362 . S
C1130 H1122 0.930 . S
C1130 C1129 1.362 . S
C1130 C1133 1.409 . S
C1131 H1123 0.930 . S
C1131 C1132 1.355 . S
C1131 C1133 1.415 . S
C1132 C1131 1.355 . S
C1132 C1134 1.419 . S
C1133 C1128 1.425 . S
C1133 C1130 1.409 . S
C1133 C1131 1.415 . S
C1134 H1124 0.930 . S
C1134 C1132 1.419 . S
C1134 C1135 1.362 . S
C1135 H1125 0.930 . S
C1135 C1128 1.409 . S
C1135 C1134 1.362 . S
H1136 C1142 0.930 . S
H1137 C1145 0.930 . S
H1138 C1146 0.930 . S
H1139 C1147 0.930 . S
H1140 C1150 0.930 . S
H1141 C1151 0.930 . S
C1142 H1136 0.930 . S
C1142 C1143 1.355 . S
C1142 C1144 1.415 . S
C1143 C1142 1.355 . S
C1143 C1145 1.419 . S
C1144 C1142 1.415 . S
C1144 C1149 1.425 . S
C1144 C1151 1.409 . S
C1145 H1137 0.930 . S
C1145 C1143 1.419 . S
C1145 C1146 1.362 . S
C1146 H1138 0.930 . S
C1146 C1145 1.362 . S
C1146 C1149 1.409 . S
C1147 H1139 0.930 . S
C1147 C1148 1.355 . S
C1147 C1149 1.415 . S
C1148 C1147 1.355 . S
C1148 C1150 1.419 . S
C1149 C1144 1.425 . S
C1149 C1146 1.409 . S
C1149 C1147 1.415 . S
C1150 H1140 0.930 . S
C1150 C1148 1.419 . S
C1150 C1151 1.362 . S
C1151 H1141 0.930 . S
C1151 C1144 1.409 . S
C1151 C1150 1.362 . S
H1152 C1158 0.930 . S
H1153 C1161 0.930 . S
H1154 C1162 0.930 . S
H1155 C1163 0.930 . S
H1156 C1166 0.930 . S
H1157 C1167 0.930 . S
C1158 H1152 0.930 . S
C1158 C1159 1.355 . S
C1158 C1160 1.415 . S
C1159 C1158 1.355 . S
C1159 C1161 1.419 . S
C1160 C1158 1.415 . S
C1160 C1165 1.425 . S
C1160 C1167 1.409 . S
C1161 H1153 0.930 . S
C1161 C1159 1.419 . S
C1161 C1162 1.362 . S
C1162 H1154 0.930 . S
C1162 C1161 1.362 . S
C1162 C1165 1.409 . S
C1163 H1155 0.930 . S
C1163 C1164 1.355 . S
C1163 C1165 1.415 . S
C1164 C1163 1.355 . S
C1164 C1166 1.419 . S
C1165 C1160 1.425 . S
C1165 C1162 1.409 . S
C1165 C1163 1.415 . S
C1166 H1156 0.930 . S
C1166 C1164 1.419 . S
C1166 C1167 1.362 . S
C1167 H1157 0.930 . S
C1167 C1160 1.409 . S
C1167 C1166 1.362 . S
H1168 C1174 0.930 . S
H1169 C1177 0.930 . S
H1170 C1178 0.930 . S
H1171 C1179 0.930 . S
H1172 C1182 0.930 . S
H1173 C1183 0.930 . S
C1174 H1168 0.930 . S
C1174 C1175 1.355 . S
C1174 C1176 1.415 . S
C1175 C1174 1.355 . S
C1175 C1177 1.419 . S
C1176 C1174 1.415 . S
C1176 C1181 1.425 . S
C1176 C1183 1.409 . S
C1177 H1169 0.930 . S
C1177 C1175 1.419 . S
C1177 C1178 1.362 . S
C1178 H1170 0.930 . S
C1178 C1177 1.362 . S
C1178 C1181 1.409 . S
C1179 H1171 0.930 . S
C1179 C1180 1.355 . S
C1179 C1181 1.415 1_655 S
C1180 C1179 1.355 . S
C1180 C1182 1.419 . S
C1181 C1176 1.425 . S
C1181 C1178 1.409 . S
C1181 C1179 1.415 1_455 S
C1182 H1172 0.930 . S
C1182 C1180 1.419 . S
C1182 C1183 1.362 1_655 S
C1183 H1173 0.930 . S
C1183 C1176 1.409 . S
C1183 C1182 1.362 1_455 S
H1184 C1190 0.930 . S
H1185 C1193 0.930 . S
H1186 C1194 0.930 . S
H1187 C1195 0.930 . S
H1188 C1198 0.930 . S
H1189 C1199 0.930 . S
C1190 H1184 0.930 . S
C1190 C1191 1.355 . S
C1190 C1192 1.415 . S
C1191 C1190 1.355 . S
C1191 C1193 1.419 . S
C1192 C1190 1.415 . S
C1192 C1197 1.425 . S
C1192 C1199 1.409 . S
C1193 H1185 0.930 . S
C1193 C1191 1.419 . S
C1193 C1194 1.362 . S
C1194 H1186 0.930 . S
C1194 C1193 1.362 . S
C1194 C1197 1.409 . S
C1195 H1187 0.930 . S
C1195 C1196 1.355 . S
C1195 C1197 1.415 . S
C1196 C1195 1.355 . S
C1196 C1198 1.419 . S
C1197 C1192 1.425 . S
C1197 C1194 1.409 . S
C1197 C1195 1.415 . S
C1198 H1188 0.930 . S
C1198 C1196 1.419 . S
C1198 C1199 1.362 . S
C1199 H1189 0.930 . S
C1199 C1192 1.409 . S
C1199 C1198 1.362 . S
H1200 C1206 0.930 . S
H1201 C1209 0.930 . S
H1202 C1210 0.930 . S
H1203 C1211 0.930 . S
H1204 C1214 0.930 . S
H1205 C1215 0.930 . S
C1206 H1200 0.930 . S
C1206 C1207 1.355 . S
C1206 C1208 1.415 . S
C1207 C1206 1.355 . S
C1207 C1209 1.419 . S
C1208 C1206 1.415 . S
C1208 C1213 1.425 . S
C1208 C1215 1.409 . S
C1209 H1201 0.930 . S
C1209 C1207 1.419 . S
C1209 C1210 1.362 . S
C1210 H1202 0.930 . S
C1210 C1209 1.362 . S
C1210 C1213 1.409 . S
C1211 H1203 0.930 . S
C1211 C1212 1.355 . S
C1211 C1213 1.415 . S
C1212 C1211 1.355 . S
C1212 C1214 1.419 . S
C1213 C1208 1.425 . S
C1213 C1210 1.409 . S
C1213 C1211 1.415 . S
C1214 H1204 0.930 . S
C1214 C1212 1.419 . S
C1214 C1215 1.362 . S
C1215 H1205 0.930 . S
C1215 C1208 1.409 . S
C1215 C1214 1.362 . S
H1216 C1222 0.930 . S
H1217 C1225 0.930 . S
H1218 C1226 0.930 . S
H1219 C1227 0.930 . S
H1220 C1230 0.930 . S
H1221 C1231 0.930 . S
C1222 H1216 0.930 . S
C1222 C1223 1.355 . S
C1222 C1224 1.415 . S
C1223 C1222 1.355 . S
C1223 C1225 1.419 . S
C1224 C1222 1.415 . S
C1224 C1229 1.425 . S
C1224 C1231 1.409 . S
C1225 H1217 0.930 . S
C1225 C1223 1.419 . S
C1225 C1226 1.362 . S
C1226 H1218 0.930 . S
C1226 C1225 1.362 . S
C1226 C1229 1.409 . S
C1227 H1219 0.930 . S
C1227 C1228 1.355 . S
C1227 C1229 1.415 . S
C1228 C1227 1.355 . S
C1228 C1230 1.419 . S
C1229 C1224 1.425 . S
C1229 C1226 1.409 . S
C1229 C1227 1.415 . S
C1230 H1220 0.930 . S
C1230 C1228 1.419 . S
C1230 C1231 1.362 . S
C1231 H1221 0.930 . S
C1231 C1224 1.409 . S
C1231 C1230 1.362 . S
H1232 C1238 0.930 . S
H1233 C1241 0.930 . S
H1234 C1242 0.930 . S
H1235 C1243 0.930 . S
H1236 C1246 0.930 . S
H1237 C1247 0.930 . S
C1238 H1232 0.930 . S
C1238 C1239 1.355 . S
C1238 C1240 1.415 . S
C1239 C1238 1.355 . S
C1239 C1241 1.419 . S
C1240 C1238 1.415 . S
C1240 C1245 1.437 . S
C1240 C1247 1.409 1_556 S
C1241 H1233 0.930 . S
C1241 C1239 1.419 . S
C1241 C1242 1.362 . S
C1242 H1234 0.930 . S
C1242 C1241 1.362 . S
C1242 C1245 1.444 . S
C1243 H1235 0.930 . S
C1243 C1244 1.355 . S
C1243 C1245 1.369 1_554 S
C1244 C1243 1.355 . S
C1244 C1246 1.419 . S
C1245 C1240 1.437 . S
C1245 C1242 1.444 . S
C1245 C1243 1.369 1_556 S
C1246 H1236 0.930 . S
C1246 C1244 1.419 . S
C1246 C1247 1.362 . S
C1247 H1237 0.930 . S
C1247 C1240 1.409 1_554 S
C1247 C1246 1.362 . S
H1248 C1254 0.930 . S
H1249 C1257 0.930 . S
H1250 C1258 0.930 . S
H1251 C1259 0.930 . S
H1252 C1262 0.930 . S
H1253 C1263 0.930 . S
C1254 H1248 0.930 . S
C1254 C1255 1.355 . S
C1254 C1256 1.415 . S
C1255 C1254 1.355 . S
C1255 C1257 1.419 . S
C1256 C1254 1.415 . S
C1256 C1261 1.425 . S
C1256 C1263 1.409 . S
C1257 H1249 0.930 . S
C1257 C1255 1.419 . S
C1257 C1258 1.362 . S
C1258 H1250 0.930 . S
C1258 C1257 1.362 . S
C1258 C1261 1.409 . S
C1259 H1251 0.930 . S
C1259 C1260 1.355 . S
C1259 C1261 1.415 . S
C1260 C1259 1.355 . S
C1260 C1262 1.419 . S
C1261 C1256 1.425 . S
C1261 C1258 1.409 . S
C1261 C1259 1.415 . S
C1262 H1252 0.930 . S
C1262 C1260 1.419 . S
C1262 C1263 1.362 . S
C1263 H1253 0.930 . S
C1263 C1256 1.409 . S
C1263 C1262 1.362 . S
H1264 C1270 0.930 . S
H1265 C1273 0.930 . S
H1266 C1274 0.930 . S
H1267 C1275 0.930 . S
H1268 C1278 0.930 . S
H1269 C1279 0.930 . S
C1270 H1264 0.930 . S
C1270 C1271 1.355 . S
C1270 C1272 1.415 . S
C1271 C1270 1.355 . S
C1271 C1273 1.419 . S
C1272 C1270 1.415 . S
C1272 C1277 1.425 . S
C1272 C1279 1.409 . S
C1273 H1265 0.930 . S
C1273 C1271 1.419 . S
C1273 C1274 1.362 . S
C1274 H1266 0.930 . S
C1274 C1273 1.362 . S
C1274 C1277 1.409 . S
C1275 H1267 0.930 . S
C1275 C1276 1.355 . S
C1275 C1277 1.415 . S
C1276 C1275 1.355 . S
C1276 C1278 1.419 . S
C1277 C1272 1.425 . S
C1277 C1274 1.409 . S
C1277 C1275 1.415 . S
C1278 H1268 0.930 . S
C1278 C1276 1.419 . S
C1278 C1279 1.362 . S
C1279 H1269 0.930 . S
C1279 C1272 1.409 . S
C1279 C1278 1.362 . S
H1280 C1286 0.930 . S
H1281 C1289 0.930 . S
H1282 C1290 0.930 . S
H1283 C1291 0.930 . S
H1284 C1294 0.930 . S
H1285 C1295 0.930 . S
C1286 H1280 0.930 . S
C1286 C1287 1.355 . S
C1286 C1288 1.415 . S
C1287 C1286 1.355 . S
C1287 C1289 1.419 . S
C1288 C1286 1.415 . S
C1288 C1293 1.425 . S
C1288 C1295 1.409 . S
C1289 H1281 0.930 . S
C1289 C1287 1.419 . S
C1289 C1290 1.362 . S
C1290 H1282 0.930 . S
C1290 C1289 1.362 . S
C1290 C1293 1.409 . S
C1291 H1283 0.930 . S
C1291 C1292 1.355 . S
C1291 C1293 1.415 . S
C1292 C1291 1.355 . S
C1292 C1294 1.419 . S
C1293 C1288 1.425 . S
C1293 C1290 1.409 . S
C1293 C1291 1.415 . S
C1294 H1284 0.930 . S
C1294 C1292 1.419 . S
C1294 C1295 1.362 . S
C1295 H1285 0.930 . S
C1295 C1288 1.409 . S
C1295 C1294 1.362 . S
H1296 C1302 0.930 . S
H1297 C1305 0.930 . S
H1298 C1306 0.930 1_554 S
H1299 C1307 0.930 . S
H1300 C1310 0.930 . S
H1301 C1311 0.930 1_556 S
C1302 H1296 0.930 . S
C1302 C1303 1.355 . S
C1302 C1304 1.415 . S
C1303 C1302 1.355 . S
C1303 C1305 1.419 . S
C1304 C1302 1.415 . S
C1304 C1309 1.425 1_556 S
C1304 C1311 1.409 1_556 S
C1305 H1297 0.930 . S
C1305 C1303 1.419 . S
C1305 C1306 1.362 . S
C1306 H1298 0.930 1_556 S
C1306 C1305 1.362 . S
C1306 C1309 1.409 1_556 S
C1307 H1299 0.930 . S
C1307 C1308 1.355 . S
C1307 C1309 1.415 . S
C1308 C1307 1.355 . S
C1308 C1310 1.419 . S
C1309 C1304 1.425 1_554 S
C1309 C1306 1.409 1_554 S
C1309 C1307 1.415 . S
C1310 H1300 0.930 . S
C1310 C1308 1.419 . S
C1310 C1311 1.362 . S
C1311 H1301 0.930 1_554 S
C1311 C1304 1.409 1_554 S
C1311 C1310 1.362 . S
H1312 C1318 0.930 . S
H1313 C1321 0.930 . S
H1314 C1322 0.930 . S
H1315 C1323 0.930 . S
H1316 C1326 0.930 . S
H1317 C1327 0.930 . S
C1318 H1312 0.930 . S
C1318 C1319 1.355 . S
C1318 C1320 1.415 . S
C1319 C1318 1.355 . S
C1319 C1321 1.419 . S
C1320 C1318 1.415 . S
C1320 C1325 1.425 . S
C1320 C1327 1.409 . S
C1321 H1313 0.930 . S
C1321 C1319 1.419 . S
C1321 C1322 1.362 . S
C1322 H1314 0.930 . S
C1322 C1321 1.362 . S
C1322 C1325 1.409 . S
C1323 H1315 0.930 . S
C1323 C1324 1.355 . S
C1323 C1325 1.415 . S
C1324 C1323 1.355 . S
C1324 C1326 1.419 . S
C1325 C1320 1.425 . S
C1325 C1322 1.409 . S
C1325 C1323 1.415 . S
C1326 H1316 0.930 . S
C1326 C1324 1.419 . S
C1326 C1327 1.362 . S
C1327 H1317 0.930 . S
C1327 C1320 1.409 . S
C1327 C1326 1.362 . S
H1328 C1334 0.930 . S
H1329 C1337 0.930 . S
H1330 C1338 0.930 . S
H1331 C1339 0.930 . S
H1332 C1342 0.930 . S
H1333 C1343 0.930 . S
C1334 H1328 0.930 . S
C1334 C1335 1.355 . S
C1334 C1336 1.415 . S
C1335 C1334 1.355 . S
C1335 C1337 1.419 . S
C1336 C1334 1.415 . S
C1336 C1341 1.425 . S
C1336 C1343 1.409 . S
C1337 H1329 0.930 . S
C1337 C1335 1.419 . S
C1337 C1338 1.362 . S
C1338 H1330 0.930 . S
C1338 C1337 1.362 . S
C1338 C1341 1.409 . S
C1339 H1331 0.930 . S
C1339 C1340 1.355 . S
C1339 C1341 1.415 . S
C1340 C1339 1.355 . S
C1340 C1342 1.419 . S
C1341 C1336 1.425 . S
C1341 C1338 1.409 . S
C1341 C1339 1.415 . S
C1342 H1332 0.930 . S
C1342 C1340 1.419 . S
C1342 C1343 1.362 . S
C1343 H1333 0.930 . S
C1343 C1336 1.409 . S
C1343 C1342 1.362 . S
H1344 C1350 0.930 . S
H1345 C1353 0.930 . S
H1346 C1354 0.930 . S
H1347 C1355 0.930 . S
H1348 C1358 0.930 . S
H1349 C1359 0.930 . S
C1350 H1344 0.930 . S
C1350 C1351 1.355 . S
C1350 C1352 1.415 . S
C1351 C1350 1.355 . S
C1351 C1353 1.419 . S
C1352 C1350 1.415 . S
C1352 C1357 1.425 . S
C1352 C1359 1.409 . S
C1353 H1345 0.930 . S
C1353 C1351 1.419 . S
C1353 C1354 1.362 . S
C1354 H1346 0.930 . S
C1354 C1353 1.362 . S
C1354 C1357 1.409 . S
C1355 H1347 0.930 . S
C1355 C1356 1.355 . S
C1355 C1357 1.415 . S
C1356 C1355 1.355 . S
C1356 C1358 1.419 . S
C1357 C1352 1.425 . S
C1357 C1354 1.409 . S
C1357 C1355 1.415 . S
C1358 H1348 0.930 . S
C1358 C1356 1.419 . S
C1358 C1359 1.362 . S
C1359 H1349 0.930 . S
C1359 C1352 1.409 . S
C1359 C1358 1.362 . S
H1360 C1366 0.930 . S
H1361 C1369 0.930 . S
H1362 C1370 0.930 . S
H1363 C1371 0.930 . S
H1364 C1374 0.930 . S
H1365 C1375 0.930 . S
C1366 H1360 0.930 . S
C1366 C1367 1.355 . S
C1366 C1368 1.415 . S
C1367 C1366 1.355 . S
C1367 C1369 1.419 . S
C1368 C1366 1.415 . S
C1368 C1373 1.425 . S
C1368 C1375 1.409 . S
C1369 H1361 0.930 . S
C1369 C1367 1.419 . S
C1369 C1370 1.362 . S
C1370 H1362 0.930 . S
C1370 C1369 1.362 . S
C1370 C1373 1.409 . S
C1371 H1363 0.930 . S
C1371 C1372 1.355 . S
C1371 C1373 1.415 . S
C1372 C1371 1.355 . S
C1372 C1374 1.419 . S
C1373 C1368 1.425 . S
C1373 C1370 1.409 . S
C1373 C1371 1.415 . S
C1374 H1364 0.930 . S
C1374 C1372 1.419 . S
C1374 C1375 1.362 . S
C1375 H1365 0.930 . S
C1375 C1368 1.409 . S
C1375 C1374 1.362 . S
H1376 C1382 0.930 . S
H1377 C1385 0.930 . S
H1378 C1386 0.930 . S
H1379 C1387 0.930 . S
H1380 C1390 0.930 . S
H1381 C1391 0.930 . S
C1382 H1376 0.930 . S
C1382 C1383 1.371 . S
C1382 C1384 1.415 . S
C1383 C1382 1.371 . S
C1383 C1385 1.434 . S
C1384 C1382 1.415 . S
C1384 C1389 1.425 . S
C1384 C1391 1.409 . S
C1385 H1377 0.930 . S
C1385 C1383 1.434 . S
C1385 C1386 1.362 . S
C1386 H1378 0.930 . S
C1386 C1385 1.362 . S
C1386 C1389 1.409 . S
C1387 H1379 0.930 . S
C1387 C1388 1.355 . S
C1387 C1389 1.415 . S
C1388 C1387 1.355 . S
C1388 C1390 1.419 . S
C1389 C1384 1.425 . S
C1389 C1386 1.409 . S
C1389 C1387 1.415 . S
C1390 H1380 0.930 . S
C1390 C1388 1.419 . S
C1390 C1391 1.362 . S
C1391 H1381 0.930 . S
C1391 C1384 1.409 . S
C1391 C1390 1.362 . S
H1392 C1398 0.930 . S
H1393 C1401 0.930 . S
H1394 C1402 0.930 . S
H1395 C1403 0.930 . S
H1396 C1406 0.930 . S
H1397 C1407 0.930 . S
C1398 H1392 0.930 . S
C1398 C1399 1.355 . S
C1398 C1400 1.415 . S
C1399 C1398 1.355 . S
C1399 C1401 1.419 . S
C1400 C1398 1.415 . S
C1400 C1405 1.425 . S
C1400 C1407 1.409 . S
C1401 H1393 0.930 . S
C1401 C1399 1.419 . S
C1401 C1402 1.362 . S
C1402 H1394 0.930 . S
C1402 C1401 1.362 . S
C1402 C1405 1.409 . S
C1403 H1395 0.930 . S
C1403 C1404 1.355 . S
C1403 C1405 1.415 . S
C1404 C1403 1.355 . S
C1404 C1406 1.419 . S
C1405 C1400 1.425 . S
C1405 C1402 1.409 . S
C1405 C1403 1.415 . S
C1406 H1396 0.930 . S
C1406 C1404 1.419 . S
C1406 C1407 1.362 . S
C1407 H1397 0.930 . S
C1407 C1400 1.409 . S
C1407 C1406 1.362 . S
H1408 C1414 0.930 . S
H1409 C1417 0.930 . S
H1410 C1418 0.930 . S
H1411 C1419 0.930 . S
H1412 C1422 0.930 . S
H1413 C1423 0.930 . S
C1414 H1408 0.930 . S
C1414 C1415 1.355 . S
C1414 C1416 1.415 . S
C1415 C1414 1.355 . S
C1415 C1417 1.419 . S
C1416 C1414 1.415 . S
C1416 C1421 1.425 . S
C1416 C1423 1.409 . S
C1417 H1409 0.930 . S
C1417 C1415 1.419 . S
C1417 C1418 1.362 . S
C1418 H1410 0.930 . S
C1418 C1417 1.362 . S
C1418 C1421 1.409 . S
C1419 H1411 0.930 . S
C1419 C1420 1.355 . S
C1419 C1421 1.415 . S
C1420 C1419 1.355 . S
C1420 C1422 1.419 . S
C1421 C1416 1.425 . S
C1421 C1418 1.409 . S
C1421 C1419 1.415 . S
C1422 H1412 0.930 . S
C1422 C1420 1.419 . S
C1422 C1423 1.362 . S
C1423 H1413 0.930 . S
C1423 C1416 1.409 . S
C1423 C1422 1.362 . S
H1424 C1430 0.930 . S
H1425 C1433 0.930 . S
H1426 C1434 0.930 . S
H1427 C1435 0.930 . S
H1428 C1438 0.930 . S
H1429 C1439 0.930 . S
C1430 H1424 0.930 . S
C1430 C1431 1.355 . S
C1430 C1432 1.415 . S
C1431 C1430 1.355 . S
C1431 C1433 1.419 . S
C1432 C1430 1.415 . S
C1432 C1437 1.425 . S
C1432 C1439 1.409 . S
C1433 H1425 0.930 . S
C1433 C1431 1.419 . S
C1433 C1434 1.362 . S
C1434 H1426 0.930 . S
C1434 C1433 1.362 . S
C1434 C1437 1.409 . S
C1435 H1427 0.930 . S
C1435 C1436 1.355 . S
C1435 C1437 1.415 . S
C1436 C1435 1.355 . S
C1436 C1438 1.419 . S
C1437 C1432 1.425 . S
C1437 C1434 1.409 . S
C1437 C1435 1.415 . S
C1438 H1428 0.930 . S
C1438 C1436 1.419 . S
C1438 C1439 1.362 . S
C1439 H1429 0.930 . S
C1439 C1432 1.409 . S
C1439 C1438 1.362 . S
H1440 C1446 0.930 . S
H1441 C1449 0.930 . S
H1442 C1450 0.930 . S
H1443 C1451 0.930 . S
H1444 C1454 0.930 . S
H1445 C1455 0.930 . S
C1446 H1440 0.930 . S
C1446 C1447 1.355 . S
C1446 C1448 1.415 . S
C1447 C1446 1.355 . S
C1447 C1449 1.419 . S
C1448 C1446 1.415 . S
C1448 C1453 1.425 . S
C1448 C1455 1.409 . S
C1449 H1441 0.930 . S
C1449 C1447 1.419 . S
C1449 C1450 1.362 . S
C1450 H1442 0.930 . S
C1450 C1449 1.362 . S
C1450 C1453 1.409 . S
C1451 H1443 0.930 . S
C1451 C1452 1.355 . S
C1451 C1453 1.415 . S
C1452 C1451 1.355 . S
C1452 C1454 1.419 . S
C1453 C1448 1.425 . S
C1453 C1450 1.409 . S
C1453 C1451 1.415 . S
C1454 H1444 0.930 . S
C1454 C1452 1.419 . S
C1454 C1455 1.362 . S
C1455 H1445 0.930 . S
C1455 C1448 1.409 . S
C1455 C1454 1.362 . S
H1456 C1462 0.930 . S
H1457 C1465 0.930 . S
H1458 C1466 0.930 . S
H1459 C1467 0.930 . S
H1460 C1470 0.930 . S
H1461 C1471 0.930 . S
C1462 H1456 0.930 . S
C1462 C1463 1.355 . S
C1462 C1464 1.415 . S
C1463 C1462 1.355 . S
C1463 C1465 1.419 . S
C1464 C1462 1.415 . S
C1464 C1469 1.425 . S
C1464 C1471 1.409 . S
C1465 H1457 0.930 . S
C1465 C1463 1.419 . S
C1465 C1466 1.362 . S
C1466 H1458 0.930 . S
C1466 C1465 1.362 . S
C1466 C1469 1.409 . S
C1467 H1459 0.930 . S
C1467 C1468 1.355 . S
C1467 C1469 1.415 . S
C1468 C1467 1.355 . S
C1468 C1470 1.419 . S
C1469 C1464 1.425 . S
C1469 C1466 1.409 . S
C1469 C1467 1.415 . S
C1470 H1460 0.930 . S
C1470 C1468 1.419 . S
C1470 C1471 1.362 . S
C1471 H1461 0.930 . S
C1471 C1464 1.409 . S
C1471 C1470 1.362 . S
H1472 C1478 0.930 . S
H1473 C1481 0.930 . S
H1474 C1482 0.930 . S
H1475 C1483 0.930 . S
H1476 C1486 0.930 . S
H1477 C1487 0.930 . S
C1478 H1472 0.930 . S
C1478 C1479 1.355 . S
C1478 C1480 1.415 . S
C1479 C1478 1.355 . S
C1479 C1481 1.419 . S
C1480 C1478 1.415 . S
C1480 C1485 1.425 . S
C1480 C1487 1.409 . S
C1481 H1473 0.930 . S
C1481 C1479 1.419 . S
C1481 C1482 1.362 . S
C1482 H1474 0.930 . S
C1482 C1481 1.362 . S
C1482 C1485 1.409 . S
C1483 H1475 0.930 . S
C1483 C1484 1.355 . S
C1483 C1485 1.415 . S
C1484 C1483 1.355 . S
C1484 C1486 1.419 . S
C1485 C1480 1.425 . S
C1485 C1482 1.409 . S
C1485 C1483 1.415 . S
C1486 H1476 0.930 . S
C1486 C1484 1.419 . S
C1486 C1487 1.362 . S
C1487 H1477 0.930 . S
C1487 C1480 1.409 . S
C1487 C1486 1.362 . S
H1488 C1494 0.930 . S
H1489 C1497 0.930 . S
H1490 C1498 0.930 . S
H1491 C1499 0.930 . S
H1492 C1502 0.930 . S
H1493 C1503 0.930 . S
C1494 H1488 0.930 . S
C1494 C1495 1.355 . S
C1494 C1496 1.415 1_655 S
C1495 C1494 1.355 . S
C1495 C1497 1.419 . S
C1496 C1494 1.415 1_455 S
C1496 C1501 1.425 . S
C1496 C1503 1.409 . S
C1497 H1489 0.930 . S
C1497 C1495 1.419 . S
C1497 C1498 1.362 1_655 S
C1498 H1490 0.930 . S
C1498 C1497 1.362 1_455 S
C1498 C1501 1.409 . S
C1499 H1491 0.930 . S
C1499 C1500 1.355 . S
C1499 C1501 1.415 . S
C1500 C1499 1.355 . S
C1500 C1502 1.419 . S
C1501 C1496 1.425 . S
C1501 C1498 1.409 . S
C1501 C1499 1.415 . S
C1502 H1492 0.930 . S
C1502 C1500 1.419 . S
C1502 C1503 1.362 . S
C1503 H1493 0.930 . S
C1503 C1496 1.409 . S
C1503 C1502 1.362 . S
H1504 C1510 0.930 . S
H1505 C1513 0.930 . S
H1506 C1514 0.930 . S
H1507 C1515 0.930 . S
H1508 C1518 0.930 . S
H1509 C1519 0.930 . S
C1510 H1504 0.930 . S
C1510 C1511 1.355 . S
C1510 C1512 1.415 . S
C1511 C1510 1.355 . S
C1511 C1513 1.419 . S
C1512 C1510 1.415 . S
C1512 C1517 1.425 . S
C1512 C1519 1.409 . S
C1513 H1505 0.930 . S
C1513 C1511 1.419 . S
C1513 C1514 1.362 . S
C1514 H1506 0.930 . S
C1514 C1513 1.362 . S
C1514 C1517 1.409 . S
C1515 H1507 0.930 . S
C1515 C1516 1.355 . S
C1515 C1517 1.415 . S
C1516 C1515 1.355 . S
C1516 C1518 1.419 . S
C1517 C1512 1.425 . S
C1517 C1514 1.409 . S
C1517 C1515 1.415 . S
C1518 H1508 0.930 . S
C1518 C1516 1.419 . S
C1518 C1519 1.362 . S
C1519 H1509 0.930 . S
C1519 C1512 1.409 . S
C1519 C1518 1.362 . S
H1520 C1526 0.930 . S
H1521 C1529 0.930 . S
H1522 C1530 0.930 . S
H1523 C1531 0.930 . S
H1524 C1534 0.930 . S
H1525 C1535 0.930 . S
C1526 H1520 0.930 . S
C1526 C1527 1.355 . S
C1526 C1528 1.415 . S
C1527 C1526 1.355 . S
C1527 C1529 1.419 . S
C1528 C1526 1.415 . S
C1528 C1533 1.425 . S
C1528 C1535 1.409 . S
C1529 H1521 0.930 . S
C1529 C1527 1.419 . S
C1529 C1530 1.362 . S
C1530 H1522 0.930 . S
C1530 C1529 1.362 . S
C1530 C1533 1.409 . S
C1531 H1523 0.930 . S
C1531 C1532 1.355 . S
C1531 C1533 1.415 1_655 S
C1532 C1531 1.355 . S
C1532 C1534 1.419 . S
C1533 C1528 1.425 . S
C1533 C1530 1.409 . S
C1533 C1531 1.415 1_455 S
C1534 H1524 0.930 . S
C1534 C1532 1.419 . S
C1534 C1535 1.362 1_655 S
C1535 H1525 0.930 . S
C1535 C1528 1.409 . S
C1535 C1534 1.362 1_455 S
H1536 C1542 0.930 . S
H1537 C1545 0.930 . S
H1538 C1546 0.930 . S
H1539 C1547 0.930 . S
H1540 C1550 0.930 . S
H1541 C1551 0.930 . S
C1542 H1536 0.930 . S
C1542 C1543 1.355 . S
C1542 C1544 1.415 . S
C1543 C1542 1.355 . S
C1543 C1545 1.419 . S
C1544 C1542 1.415 . S
C1544 C1549 1.425 . S
C1544 C1551 1.409 . S
C1545 H1537 0.930 . S
C1545 C1543 1.419 . S
C1545 C1546 1.362 . S
C1546 H1538 0.930 . S
C1546 C1545 1.362 . S
C1546 C1549 1.409 . S
C1547 H1539 0.930 . S
C1547 C1548 1.355 . S
C1547 C1549 1.415 . S
C1548 C1547 1.355 . S
C1548 C1550 1.419 . S
C1549 C1544 1.425 . S
C1549 C1546 1.409 . S
C1549 C1547 1.415 . S
C1550 H1540 0.930 . S
C1550 C1548 1.419 . S
C1550 C1551 1.362 . S
C1551 H1541 0.930 . S
C1551 C1544 1.409 . S
C1551 C1550 1.362 . S
H1552 C1558 0.930 . S
H1553 C1561 0.930 . S
H1554 C1562 0.930 . S
H1555 C1563 0.930 . S
H1556 C1566 0.930 . S
H1557 C1567 0.930 . S
C1558 H1552 0.930 . S
C1558 C1559 1.355 . S
C1558 C1560 1.415 . S
C1559 C1558 1.355 . S
C1559 C1561 1.419 . S
C1560 C1558 1.415 . S
C1560 C1565 1.425 . S
C1560 C1567 1.409 . S
C1561 H1553 0.930 . S
C1561 C1559 1.419 . S
C1561 C1562 1.362 . S
C1562 H1554 0.930 . S
C1562 C1561 1.362 . S
C1562 C1565 1.409 . S
C1563 H1555 0.930 . S
C1563 C1564 1.355 . S
C1563 C1565 1.415 . S
C1564 C1563 1.355 . S
C1564 C1566 1.419 . S
C1565 C1560 1.425 . S
C1565 C1562 1.409 . S
C1565 C1563 1.415 . S
C1566 H1556 0.930 . S
C1566 C1564 1.419 . S
C1566 C1567 1.362 . S
C1567 H1557 0.930 . S
C1567 C1560 1.409 . S
C1567 C1566 1.362 . S
H1568 C1574 0.930 . S
H1569 C1577 0.930 . S
H1570 C1578 0.930 . S
H1571 C1579 0.930 . S
H1572 C1582 0.930 . S
H1573 C1583 0.930 . S
C1574 H1568 0.930 . S
C1574 C1575 1.355 . S
C1574 C1576 1.415 . S
C1575 C1574 1.355 . S
C1575 C1577 1.419 . S
C1576 C1574 1.415 . S
C1576 C1581 1.425 . S
C1576 C1583 1.409 . S
C1577 H1569 0.930 . S
C1577 C1575 1.419 . S
C1577 C1578 1.362 . S
C1578 H1570 0.930 . S
C1578 C1577 1.362 . S
C1578 C1581 1.409 . S
C1579 H1571 0.930 . S
C1579 C1580 1.355 . S
C1579 C1581 1.415 . S
C1580 C1579 1.355 . S
C1580 C1582 1.419 . S
C1581 C1576 1.425 . S
C1581 C1578 1.409 . S
C1581 C1579 1.415 . S
C1582 H1572 0.930 . S
C1582 C1580 1.419 . S
C1582 C1583 1.362 . S
C1583 H1573 0.930 . S
C1583 C1576 1.409 . S
C1583 C1582 1.362 . S
H1584 C1590 0.930 . S
H1585 C1593 0.930 . S
H1586 C1594 0.930 . S
H1587 C1595 0.930 . S
H1588 C1598 0.930 . S
H1589 C1599 0.930 . S
C1590 H1584 0.930 . S
C1590 C1591 1.355 . S
C1590 C1592 1.415 . S
C1591 C1590 1.355 . S
C1591 C1593 1.419 . S
C1592 C1590 1.415 . S
C1592 C1597 1.425 . S
C1592 C1599 1.409 . S
C1593 H1585 0.930 . S
C1593 C1591 1.419 . S
C1593 C1594 1.362 . S
C1594 H1586 0.930 . S
C1594 C1593 1.362 . S
C1594 C1597 1.409 . S
C1595 H1587 0.930 . S
C1595 C1596 1.355 . S
C1595 C1597 1.415 1_556 S
C1596 C1595 1.355 . S
C1596 C1598 1.419 . S
C1597 C1592 1.425 . S
C1597 C1594 1.409 . S
C1597 C1595 1.415 1_554 S
C1598 H1588 0.930 . S
C1598 C1596 1.419 . S
C1598 C1599 1.362 1_556 S
C1599 H1589 0.930 . S
C1599 C1592 1.409 . S
C1599 C1598 1.362 1_554 S
H1600 C1606 0.930 . S
H1601 C1609 0.930 . S
H1602 C1610 0.930 . S
H1603 C1611 0.930 . S
H1604 C1614 0.930 . S
H1605 C1615 0.930 . S
C1606 H1600 0.930 . S
C1606 C1607 1.355 . S
C1606 C1608 1.415 . S
C1607 C1606 1.355 . S
C1607 C1609 1.419 . S
C1608 C1606 1.415 . S
C1608 C1613 1.425 . S
C1608 C1615 1.409 . S
C1609 H1601 0.930 . S
C1609 C1607 1.419 . S
C1609 C1610 1.362 . S
C1610 H1602 0.930 . S
C1610 C1609 1.362 . S
C1610 C1613 1.409 . S
C1611 H1603 0.930 . S
C1611 C1612 1.355 . S
C1611 C1613 1.415 . S
C1612 C1611 1.355 . S
C1612 C1614 1.419 . S
C1613 C1608 1.425 . S
C1613 C1610 1.409 . S
C1613 C1611 1.415 . S
C1614 H1604 0.930 . S
C1614 C1612 1.419 . S
C1614 C1615 1.362 . S
C1615 H1605 0.930 . S
C1615 C1608 1.409 . S
C1615 C1614 1.362 . S
H1616 C1622 0.930 . S
H1617 C1625 0.930 . S
H1618 C1626 0.930 . S
H1619 C1627 0.930 . S
H1620 C1630 0.930 . S
H1621 C1631 0.930 . S
C1622 H1616 0.930 . S
C1622 C1623 1.355 . S
C1622 C1624 1.415 . S
C1623 C1622 1.355 . S
C1623 C1625 1.419 . S
C1624 C1622 1.415 . S
C1624 C1629 1.425 . S
C1624 C1631 1.409 . S
C1625 H1617 0.930 . S
C1625 C1623 1.419 . S
C1625 C1626 1.362 . S
C1626 H1618 0.930 . S
C1626 C1625 1.362 . S
C1626 C1629 1.409 . S
C1627 H1619 0.930 . S
C1627 C1628 1.355 . S
C1627 C1629 1.415 . S
C1628 C1627 1.355 . S
C1628 C1630 1.419 . S
C1629 C1624 1.425 . S
C1629 C1626 1.409 . S
C1629 C1627 1.415 . S
C1630 H1620 0.930 . S
C1630 C1628 1.419 . S
C1630 C1631 1.362 . S
C1631 H1621 0.930 . S
C1631 C1624 1.409 . S
C1631 C1630 1.362 . S
H1632 C1638 0.930 . S
H1633 C1641 0.930 . S
H1634 C1642 0.930 . S
H1635 C1643 0.930 . S
H1636 C1646 0.930 . S
H1637 C1647 0.930 . S
C1638 H1632 0.930 . S
C1638 C1639 1.355 . S
C1638 C1640 1.415 . S
C1639 C1638 1.355 . S
C1639 C1641 1.419 . S
C1640 C1638 1.415 . S
C1640 C1645 1.425 . S
C1640 C1647 1.409 . S
C1641 H1633 0.930 . S
C1641 C1639 1.419 . S
C1641 C1642 1.362 . S
C1642 H1634 0.930 . S
C1642 C1641 1.362 . S
C1642 C1645 1.409 . S
C1643 H1635 0.930 . S
C1643 C1644 1.355 . S
C1643 C1645 1.415 . S
C1644 C1643 1.355 . S
C1644 C1646 1.419 . S
C1645 C1640 1.425 . S
C1645 C1642 1.409 . S
C1645 C1643 1.415 . S
C1646 H1636 0.930 . S
C1646 C1644 1.419 . S
C1646 C1647 1.362 . S
C1647 H1637 0.930 . S
C1647 C1640 1.409 . S
C1647 C1646 1.362 . S
H1648 C1654 0.930 . S
H1649 C1657 0.930 . S
H1650 C1658 0.930 . S
H1651 C1659 0.930 . S
H1652 C1662 0.930 . S
H1653 C1663 0.930 . S
C1654 H1648 0.930 . S
C1654 C1655 1.355 . S
C1654 C1656 1.415 . S
C1655 C1654 1.355 . S
C1655 C1657 1.419 . S
C1656 C1654 1.415 . S
C1656 C1661 1.425 . S
C1656 C1663 1.409 . S
C1657 H1649 0.930 . S
C1657 C1655 1.419 . S
C1657 C1658 1.362 . S
C1658 H1650 0.930 . S
C1658 C1657 1.362 . S
C1658 C1661 1.409 . S
C1659 H1651 0.930 . S
C1659 C1660 1.355 1_556 S
C1659 C1661 1.415 . S
C1660 C1659 1.355 1_554 S
C1660 C1662 1.419 . S
C1661 C1656 1.425 . S
C1661 C1658 1.409 . S
C1661 C1659 1.415 . S
C1662 H1652 0.930 . S
C1662 C1660 1.419 . S
C1662 C1663 1.362 1_554 S
C1663 H1653 0.930 . S
C1663 C1656 1.409 . S
C1663 C1662 1.362 1_556 S
H1664 C1670 0.930 . S
H1665 C1673 0.930 . S
H1666 C1674 0.930 . S
H1667 C1675 0.930 . S
H1668 C1678 0.930 . S
H1669 C1679 0.930 . S
C1670 H1664 0.930 . S
C1670 C1671 1.355 . S
C1670 C1672 1.415 . S
C1671 C1670 1.355 . S
C1671 C1673 1.419 . S
C1672 C1670 1.415 . S
C1672 C1677 1.425 . S
C1672 C1679 1.409 . S
C1673 H1665 0.930 . S
C1673 C1671 1.419 . S
C1673 C1674 1.362 . S
C1674 H1666 0.930 . S
C1674 C1673 1.362 . S
C1674 C1677 1.409 . S
C1675 H1667 0.930 . S
C1675 C1676 1.355 . S
C1675 C1677 1.415 . S
C1676 C1675 1.355 . S
C1676 C1678 1.419 . S
C1677 C1672 1.425 . S
C1677 C1674 1.409 . S
C1677 C1675 1.415 . S
C1678 H1668 0.930 . S
C1678 C1676 1.419 . S
C1678 C1679 1.362 . S
C1679 H1669 0.930 . S
C1679 C1672 1.409 . S
C1679 C1678 1.362 . S
H1680 C1686 0.930 . S
H1681 C1689 0.930 . S
H1682 C1690 0.930 . S
H1683 C1691 0.930 . S
H1684 C1694 0.930 . S
H1685 C1695 0.930 . S
C1686 H1680 0.930 . S
C1686 C1687 1.355 . S
C1686 C1688 1.415 . S
C1687 C1686 1.355 . S
C1687 C1689 1.419 . S
C1688 C1686 1.415 . S
C1688 C1693 1.425 . S
C1688 C1695 1.409 . S
C1689 H1681 0.930 . S
C1689 C1687 1.419 . S
C1689 C1690 1.362 . S
C1690 H1682 0.930 . S
C1690 C1689 1.362 . S
C1690 C1693 1.409 . S
C1691 H1683 0.930 . S
C1691 C1692 1.355 . S
C1691 C1693 1.415 . S
C1692 C1691 1.355 . S
C1692 C1694 1.419 . S
C1693 C1688 1.425 . S
C1693 C1690 1.409 . S
C1693 C1691 1.415 . S
C1694 H1684 0.930 . S
C1694 C1692 1.419 . S
C1694 C1695 1.362 . S
C1695 H1685 0.930 . S
C1695 C1688 1.409 . S
C1695 C1694 1.362 . S
H1696 C1702 0.930 . S
H1697 C1705 0.930 . S
H1698 C1706 0.930 . S
H1699 C1707 0.930 . S
H1700 C1710 0.930 . S
H1701 C1711 0.930 . S
C1702 H1696 0.930 . S
C1702 C1703 1.355 . S
C1702 C1704 1.415 . S
C1703 C1702 1.355 . S
C1703 C1705 1.419 . S
C1704 C1702 1.415 . S
C1704 C1709 1.425 . S
C1704 C1711 1.409 . S
C1705 H1697 0.930 . S
C1705 C1703 1.419 . S
C1705 C1706 1.362 . S
C1706 H1698 0.930 . S
C1706 C1705 1.362 . S
C1706 C1709 1.409 . S
C1707 H1699 0.930 . S
C1707 C1708 1.355 . S
C1707 C1709 1.415 . S
C1708 C1707 1.355 . S
C1708 C1710 1.419 . S
C1709 C1704 1.425 . S
C1709 C1706 1.409 . S
C1709 C1707 1.415 . S
C1710 H1700 0.930 . S
C1710 C1708 1.419 . S
C1710 C1711 1.362 . S
C1711 H1701 0.930 . S
C1711 C1704 1.409 . S
C1711 C1710 1.362 . S
H1712 C1718 0.930 . S
H1713 C1721 0.930 . S
H1714 C1722 0.930 . S
H1715 C1723 0.930 . S
H1716 C1726 0.930 . S
H1717 C1727 0.930 . S
C1718 H1712 0.930 . S
C1718 C1719 1.355 . S
C1718 C1720 1.415 . S
C1719 C1718 1.355 . S
C1719 C1721 1.419 . S
C1720 C1718 1.415 . S
C1720 C1725 1.425 . S
C1720 C1727 1.409 . S
C1721 H1713 0.930 . S
C1721 C1719 1.419 . S
C1721 C1722 1.362 . S
C1722 H1714 0.930 . S
C1722 C1721 1.362 . S
C1722 C1725 1.409 . S
C1723 H1715 0.930 . S
C1723 C1724 1.355 . S
C1723 C1725 1.415 . S
C1724 C1723 1.355 . S
C1724 C1726 1.419 . S
C1725 C1720 1.425 . S
C1725 C1722 1.409 . S
C1725 C1723 1.415 . S
C1726 H1716 0.930 . S
C1726 C1724 1.419 . S
C1726 C1727 1.362 . S
C1727 H1717 0.930 . S
C1727 C1720 1.409 . S
C1727 C1726 1.362 . S
H1728 C1734 0.930 . S
H1729 C1737 0.930 . S
H1730 C1738 0.930 . S
H1731 C1739 0.930 . S
H1732 C1742 0.930 . S
H1733 C1743 0.930 . S
C1734 H1728 0.930 . S
C1734 C1735 1.355 . S
C1734 C1736 1.415 . S
C1735 C1734 1.355 . S
C1735 C1737 1.419 . S
C1736 C1734 1.415 . S
C1736 C1741 1.425 . S
C1736 C1743 1.409 . S
C1737 H1729 0.930 . S
C1737 C1735 1.419 . S
C1737 C1738 1.362 . S
C1738 H1730 0.930 . S
C1738 C1737 1.362 . S
C1738 C1741 1.409 . S
C1739 H1731 0.930 . S
C1739 C1740 1.355 . S
C1739 C1741 1.415 1_565 S
C1740 C1739 1.355 . S
C1740 C1742 1.419 . S
C1741 C1736 1.425 . S
C1741 C1738 1.409 . S
C1741 C1739 1.415 1_545 S
C1742 H1732 0.930 . S
C1742 C1740 1.419 . S
C1742 C1743 1.362 1_565 S
C1743 H1733 0.930 . S
C1743 C1736 1.409 . S
C1743 C1742 1.362 1_545 S
H1744 C1750 0.930 . S
H1745 C1753 0.930 . S
H1746 C1754 0.930 . S
H1747 C1755 0.930 . S
H1748 C1758 0.930 . S
H1749 C1759 0.930 . S
C1750 H1744 0.930 . S
C1750 C1751 1.355 . S
C1750 C1752 1.415 . S
C1751 C1750 1.355 . S
C1751 C1753 1.419 . S
C1752 C1750 1.415 . S
C1752 C1757 1.425 . S
C1752 C1759 1.409 . S
C1753 H1745 0.930 . S
C1753 C1751 1.419 . S
C1753 C1754 1.362 . S
C1754 H1746 0.930 . S
C1754 C1753 1.362 . S
C1754 C1757 1.409 . S
C1755 H1747 0.930 . S
C1755 C1756 1.355 . S
C1755 C1757 1.415 . S
C1756 C1755 1.355 . S
C1756 C1758 1.419 . S
C1757 C1752 1.425 . S
C1757 C1754 1.409 . S
C1757 C1755 1.415 . S
C1758 H1748 0.930 . S
C1758 C1756 1.419 . S
C1758 C1759 1.362 . S
C1759 H1749 0.930 . S
C1759 C1752 1.409 . S
C1759 C1758 1.362 . S
H1760 C1766 0.930 . S
H1761 C1769 0.930 . S
H1762 C1770 0.930 . S
H1763 C1771 0.930 . S
H1764 C1774 0.930 . S
H1765 C1775 0.930 . S
C1766 H1760 0.930 . S
C1766 C1767 1.355 . S
C1766 C1768 1.415 . S
C1767 C1766 1.355 . S
C1767 C1769 1.419 . S
C1768 C1766 1.415 . S
C1768 C1773 1.425 . S
C1768 C1775 1.409 . S
C1769 H1761 0.930 . S
C1769 C1767 1.419 . S
C1769 C1770 1.362 . S
C1770 H1762 0.930 . S
C1770 C1769 1.362 . S
C1770 C1773 1.409 . S
C1771 H1763 0.930 . S
C1771 C1772 1.355 . S
C1771 C1773 1.415 . S
C1772 C1771 1.355 . S
C1772 C1774 1.419 . S
C1773 C1768 1.425 . S
C1773 C1770 1.409 . S
C1773 C1771 1.415 . S
C1774 H1764 0.930 . S
C1774 C1772 1.419 . S
C1774 C1775 1.362 . S
C1775 H1765 0.930 . S
C1775 C1768 1.409 . S
C1775 C1774 1.362 . S
H1776 C1782 0.930 . S
H1777 C1785 0.930 . S
H1778 C1786 0.930 . S
H1779 C1787 0.930 . S
H1780 C1790 0.930 . S
H1781 C1791 0.930 . S
C1782 H1776 0.930 . S
C1782 C1783 1.355 . S
C1782 C1784 1.415 . S
C1783 C1782 1.355 . S
C1783 C1785 1.419 . S
C1784 C1782 1.415 . S
C1784 C1789 1.425 . S
C1784 C1791 1.409 . S
C1785 H1777 0.930 . S
C1785 C1783 1.419 . S
C1785 C1786 1.362 . S
C1786 H1778 0.930 . S
C1786 C1785 1.362 . S
C1786 C1789 1.409 . S
C1787 H1779 0.930 . S
C1787 C1788 1.355 . S
C1787 C1789 1.415 . S
C1788 C1787 1.355 . S
C1788 C1790 1.419 . S
C1789 C1784 1.425 . S
C1789 C1786 1.409 . S
C1789 C1787 1.415 . S
C1790 H1780 0.930 . S
C1790 C1788 1.419 . S
C1790 C1791 1.362 . S
C1791 H1781 0.930 . S
C1791 C1784 1.409 . S
C1791 C1790 1.362 . S
H1792 C1798 0.930 . S
H1793 C1801 0.930 . S
H1794 C1802 0.930 . S
H1795 C1803 0.930 . S
H1796 C1806 0.930 . S
H1797 C1807 0.930 . S
C1798 H1792 0.930 . S
C1798 C1799 1.355 . S
C1798 C1800 1.415 1_545 S
C1799 C1798 1.355 . S
C1799 C1801 1.419 . S
C1800 C1798 1.415 1_565 S
C1800 C1805 1.425 . S
C1800 C1807 1.409 . S
C1801 H1793 0.930 . S
C1801 C1799 1.419 . S
C1801 C1802 1.362 1_545 S
C1802 H1794 0.930 . S
C1802 C1801 1.362 1_565 S
C1802 C1805 1.409 . S
C1803 H1795 0.930 . S
C1803 C1804 1.355 . S
C1803 C1805 1.415 . S
C1804 C1803 1.355 . S
C1804 C1806 1.419 . S
C1805 C1800 1.425 . S
C1805 C1802 1.409 . S
C1805 C1803 1.415 . S
C1806 H1796 0.930 . S
C1806 C1804 1.419 . S
C1806 C1807 1.362 . S
C1807 H1797 0.930 . S
C1807 C1800 1.409 . S
C1807 C1806 1.362 . S
H1808 C1814 0.930 . S
H1809 C1817 0.930 . S
H1810 C1818 0.930 . S
H1811 C1819 0.930 . S
H1812 C1822 0.930 . S
H1813 C1823 0.930 . S
C1814 H1808 0.930 . S
C1814 C1815 1.355 . S
C1814 C1816 1.415 . S
C1815 C1814 1.355 . S
C1815 C1817 1.419 . S
C1816 C1814 1.415 . S
C1816 C1821 1.425 . S
C1816 C1823 1.409 . S
C1817 H1809 0.930 . S
C1817 C1815 1.419 . S
C1817 C1818 1.362 . S
C1818 H1810 0.930 . S
C1818 C1817 1.362 . S
C1818 C1821 1.409 . S
C1819 H1811 0.930 . S
C1819 C1820 1.355 . S
C1819 C1821 1.415 1_565 S
C1820 C1819 1.355 . S
C1820 C1822 1.419 . S
C1821 C1816 1.425 . S
C1821 C1818 1.409 . S
C1821 C1819 1.415 1_545 S
C1822 H1812 0.930 . S
C1822 C1820 1.419 . S
C1822 C1823 1.362 1_565 S
C1823 H1813 0.930 . S
C1823 C1816 1.409 . S
C1823 C1822 1.362 1_545 S
H1824 C1830 0.930 . S
H1825 C1833 0.930 . S
H1826 C1834 0.930 . S
H1827 C1835 0.930 . S
H1828 C1838 0.930 . S
H1829 C1839 0.930 . S
C1830 H1824 0.930 . S
C1830 C1831 1.355 . S
C1830 C1832 1.415 . S
C1831 C1830 1.355 . S
C1831 C1833 1.419 . S
C1832 C1830 1.415 . S
C1832 C1837 1.425 . S
C1832 C1839 1.409 . S
C1833 H1825 0.930 . S
C1833 C1831 1.419 . S
C1833 C1834 1.362 . S
C1834 H1826 0.930 . S
C1834 C1833 1.362 . S
C1834 C1837 1.409 . S
C1835 H1827 0.930 . S
C1835 C1836 1.355 . S
C1835 C1837 1.415 . S
C1836 C1835 1.355 . S
C1836 C1838 1.419 . S
C1837 C1832 1.425 . S
C1837 C1834 1.409 . S
C1837 C1835 1.415 . S
C1838 H1828 0.930 . S
C1838 C1836 1.419 . S
C1838 C1839 1.362 . S
C1839 H1829 0.930 . S
C1839 C1832 1.409 . S
C1839 C1838 1.362 . S
H1840 C1846 0.930 . S
H1841 C1849 0.930 . S
H1842 C1850 0.930 . S
H1843 C1851 0.930 . S
H1844 C1854 0.930 . S
H1845 C1855 0.930 . S
C1846 H1840 0.930 . S
C1846 C1847 1.355 . S
C1846 C1848 1.415 . S
C1847 C1846 1.355 . S
C1847 C1849 1.419 . S
C1848 C1846 1.415 . S
C1848 C1853 1.425 . S
C1848 C1855 1.409 . S
C1849 H1841 0.930 . S
C1849 C1847 1.419 . S
C1849 C1850 1.362 . S
C1850 H1842 0.930 . S
C1850 C1849 1.362 . S
C1850 C1853 1.409 . S
C1851 H1843 0.930 . S
C1851 C1852 1.355 . S
C1851 C1853 1.415 . S
C1852 C1851 1.355 . S
C1852 C1854 1.419 . S
C1853 C1848 1.425 . S
C1853 C1850 1.409 . S
C1853 C1851 1.415 . S
C1854 H1844 0.930 . S
C1854 C1852 1.419 . S
C1854 C1855 1.362 . S
C1855 H1845 0.930 . S
C1855 C1848 1.409 . S
C1855 C1854 1.362 . S
H1856 C1862 0.930 . S
H1857 C1865 0.930 . S
H1858 C1866 0.930 . S
H1859 C1867 0.930 . S
H1860 C1870 0.930 . S
H1861 C1871 0.930 . S
C1862 H1856 0.930 . S
C1862 C1863 1.355 . S
C1862 C1864 1.415 . S
C1863 C1862 1.355 . S
C1863 C1865 1.419 . S
C1864 C1862 1.415 . S
C1864 C1869 1.425 . S
C1864 C1871 1.409 . S
C1865 H1857 0.930 . S
C1865 C1863 1.419 . S
C1865 C1866 1.362 . S
C1866 H1858 0.930 . S
C1866 C1865 1.362 . S
C1866 C1869 1.409 . S
C1867 H1859 0.930 . S
C1867 C1868 1.355 . S
C1867 C1869 1.415 . S
C1868 C1867 1.355 . S
C1868 C1870 1.419 . S
C1869 C1864 1.425 . S
C1869 C1866 1.409 . S
C1869 C1867 1.415 . S
C1870 H1860 0.930 . S
C1870 C1868 1.419 . S
C1870 C1871 1.362 . S
C1871 H1861 0.930 . S
C1871 C1864 1.409 . S
C1871 C1870 1.362 . S
H1872 C1878 0.937 . S
H1873 C1881 0.930 . S
H1874 C1882 0.930 . S
H1875 C1883 0.930 . S
H1876 C1886 0.930 . S
H1877 C1887 0.930 . S
C1878 H1872 0.937 . S
C1878 C1879 1.355 1_655 S
C1878 C1880 1.415 . S
C1879 C1878 1.355 1_455 S
C1879 C1881 1.419 . S
C1880 C1878 1.415 . S
C1880 C1885 1.425 . S
C1880 C1887 1.409 . S
C1881 H1873 0.930 . S
C1881 C1879 1.419 . S
C1881 C1882 1.362 1_455 S
C1882 H1874 0.930 . S
C1882 C1881 1.362 1_655 S
C1882 C1885 1.409 . S
C1883 H1875 0.930 . S
C1883 C1884 1.355 . S
C1883 C1885 1.415 . S
C1884 C1883 1.355 . S
C1884 C1886 1.419 . S
C1885 C1880 1.425 . S
C1885 C1882 1.409 . S
C1885 C1883 1.415 . S
C1886 H1876 0.930 . S
C1886 C1884 1.419 . S
C1886 C1887 1.362 . S
C1887 H1877 0.930 . S
C1887 C1880 1.409 . S
C1887 C1886 1.362 . S
H1888 C1894 0.930 . S
H1889 C1897 0.930 . S
H1890 C1898 0.930 . S
H1891 C1899 0.930 . S
H1892 C1902 0.930 . S
H1893 C1903 0.930 . S
C1894 H1888 0.930 . S
C1894 C1895 1.355 . S
C1894 C1896 1.415 . S
C1895 C1894 1.355 . S
C1895 C1897 1.419 . S
C1896 C1894 1.415 . S
C1896 C1901 1.425 . S
C1896 C1903 1.409 . S
C1897 H1889 0.930 . S
C1897 C1895 1.419 . S
C1897 C1898 1.362 . S
C1898 H1890 0.930 . S
C1898 C1897 1.362 . S
C1898 C1901 1.409 . S
C1899 H1891 0.930 . S
C1899 C1900 1.355 . S
C1899 C1901 1.415 . S
C1900 C1899 1.355 . S
C1900 C1902 1.419 . S
C1901 C1896 1.425 . S
C1901 C1898 1.409 . S
C1901 C1899 1.415 . S
C1902 H1892 0.930 . S
C1902 C1900 1.419 . S
C1902 C1903 1.362 . S
C1903 H1893 0.930 . S
C1903 C1896 1.409 . S
C1903 C1902 1.362 . S
H1904 C1910 0.930 . S
H1905 C1913 0.930 . S
H1906 C1914 0.930 . S
H1907 C1915 0.930 . S
H1908 C1918 0.930 . S
H1909 C1919 0.930 . S
C1910 H1904 0.930 . S
C1910 C1911 1.355 . S
C1910 C1912 1.415 1_455 S
C1911 C1910 1.355 . S
C1911 C1913 1.419 . S
C1912 C1910 1.415 1_655 S
C1912 C1917 1.425 . S
C1912 C1919 1.409 . S
C1913 H1905 0.930 . S
C1913 C1911 1.419 . S
C1913 C1914 1.362 . S
C1914 H1906 0.930 . S
C1914 C1913 1.362 . S
C1914 C1917 1.409 1_455 S
C1915 H1907 0.930 . S
C1915 C1916 1.355 . S
C1915 C1917 1.415 . S
C1916 C1915 1.355 . S
C1916 C1918 1.419 . S
C1917 C1912 1.425 . S
C1917 C1914 1.409 1_655 S
C1917 C1915 1.415 . S
C1918 H1908 0.930 . S
C1918 C1916 1.419 . S
C1918 C1919 1.362 . S
C1919 H1909 0.930 . S
C1919 C1912 1.409 . S
C1919 C1918 1.362 . S
H1920 C1926 0.930 . S
H1921 C1929 0.930 . S
H1922 C1930 0.930 . S
H1923 C1931 0.930 . S
H1924 C1934 0.930 . S
H1925 C1935 0.930 . S
C1926 H1920 0.930 . S
C1926 C1927 1.355 . S
C1926 C1928 1.415 . S
C1927 C1926 1.355 . S
C1927 C1929 1.419 . S
C1928 C1926 1.415 . S
C1928 C1933 1.425 . S
C1928 C1935 1.409 . S
C1929 H1921 0.930 . S
C1929 C1927 1.419 . S
C1929 C1930 1.362 . S
C1930 H1922 0.930 . S
C1930 C1929 1.362 . S
C1930 C1933 1.409 . S
C1931 H1923 0.930 . S
C1931 C1932 1.355 . S
C1931 C1933 1.415 . S
C1932 C1931 1.355 . S
C1932 C1934 1.419 . S
C1933 C1928 1.425 . S
C1933 C1930 1.409 . S
C1933 C1931 1.415 . S
C1934 H1924 0.930 . S
C1934 C1932 1.419 . S
C1934 C1935 1.362 . S
C1935 H1925 0.930 . S
C1935 C1928 1.409 . S
C1935 C1934 1.362 . S
H1936 C1942 0.930 . S
H1937 C1945 0.930 . S
H1938 C1946 0.930 . S
H1939 C1947 0.930 . S
H1940 C1950 0.930 . S
H1941 C1951 0.930 . S
C1942 H1936 0.930 . S
C1942 C1943 1.355 . S
C1942 C1944 1.415 . S
C1943 C1942 1.355 . S
C1943 C1945 1.419 . S
C1944 C1942 1.415 . S
C1944 C1949 1.425 . S
C1944 C1951 1.409 . S
C1945 H1937 0.930 . S
C1945 C1943 1.419 . S
C1945 C1946 1.362 . S
C1946 H1938 0.930 . S
C1946 C1945 1.362 . S
C1946 C1949 1.409 . S
C1947 H1939 0.930 . S
C1947 C1948 1.355 . S
C1947 C1949 1.415 . S
C1948 C1947 1.355 . S
C1948 C1950 1.419 . S
C1949 C1944 1.425 . S
C1949 C1946 1.409 . S
C1949 C1947 1.415 . S
C1950 H1940 0.930 . S
C1950 C1948 1.419 . S
C1950 C1951 1.362 . S
C1951 H1941 0.930 . S
C1951 C1944 1.409 . S
C1951 C1950 1.362 . S
H1952 C1958 0.930 . S
H1953 C1961 0.930 . S
H1954 C1962 0.930 . S
H1955 C1963 0.930 . S
H1956 C1966 0.930 . S
H1957 C1967 0.930 . S
C1958 H1952 0.930 . S
C1958 C1959 1.355 . S
C1958 C1960 1.415 . S
C1959 C1958 1.355 . S
C1959 C1961 1.419 . S
C1960 C1958 1.415 . S
C1960 C1965 1.425 . S
C1960 C1967 1.409 . S
C1961 H1953 0.930 . S
C1961 C1959 1.419 . S
C1961 C1962 1.362 . S
C1962 H1954 0.930 . S
C1962 C1961 1.362 . S
C1962 C1965 1.409 . S
C1963 H1955 0.930 . S
C1963 C1964 1.355 . S
C1963 C1965 1.415 . S
C1964 C1963 1.355 . S
C1964 C1966 1.419 . S
C1965 C1960 1.425 . S
C1965 C1962 1.409 . S
C1965 C1963 1.415 . S
C1966 H1956 0.930 . S
C1966 C1964 1.419 . S
C1966 C1967 1.362 . S
C1967 H1957 0.930 . S
C1967 C1960 1.409 . S
C1967 C1966 1.362 . S
H1968 C1974 0.930 . S
H1969 C1977 0.930 . S
H1970 C1978 0.930 . S
H1971 C1979 0.930 . S
H1972 C1982 0.930 . S
H1973 C1983 0.930 1_556 S
C1974 H1968 0.930 . S
C1974 C1975 1.355 . S
C1974 C1976 1.415 . S
C1975 C1974 1.355 . S
C1975 C1977 1.419 . S
C1976 C1974 1.415 . S
C1976 C1981 1.425 . S
C1976 C1983 1.409 1_556 S
C1977 H1969 0.930 . S
C1977 C1975 1.419 . S
C1977 C1978 1.362 . S
C1978 H1970 0.930 . S
C1978 C1977 1.362 . S
C1978 C1981 1.409 . S
C1979 H1971 0.930 . S
C1979 C1980 1.355 . S
C1979 C1981 1.415 1_554 S
C1980 C1979 1.355 . S
C1980 C1982 1.419 . S
C1981 C1976 1.425 . S
C1981 C1978 1.409 . S
C1981 C1979 1.415 1_556 S
C1982 H1972 0.930 . S
C1982 C1980 1.419 . S
C1982 C1983 1.362 . S
C1983 H1973 0.930 1_554 S
C1983 C1976 1.409 1_554 S
C1983 C1982 1.362 . S
H1984 C1990 0.930 . S
H1985 C1993 0.930 . S
H1986 C1994 0.930 . S
H1987 C1995 0.930 . S
H1988 C1998 0.930 . S
H1989 C1999 0.930 . S
C1990 H1984 0.930 . S
C1990 C1991 1.355 . S
C1990 C1992 1.415 . S
C1991 C1990 1.355 . S
C1991 C1993 1.419 . S
C1992 C1990 1.415 . S
C1992 C1997 1.425 . S
C1992 C1999 1.409 . S
C1993 H1985 0.930 . S
C1993 C1991 1.419 . S
C1993 C1994 1.362 . S
C1994 H1986 0.930 . S
C1994 C1993 1.362 . S
C1994 C1997 1.409 . S
C1995 H1987 0.930 . S
C1995 C1996 1.355 . S
C1995 C1997 1.415 . S
C1996 C1995 1.355 . S
C1996 C1998 1.419 . S
C1997 C1992 1.425 . S
C1997 C1994 1.409 . S
C1997 C1995 1.415 . S
C1998 H1988 0.930 . S
C1998 C1996 1.419 . S
C1998 C1999 1.362 . S
C1999 H1989 0.930 . S
C1999 C1992 1.409 . S
C1999 C1998 1.362 . S
H2000 C2006 0.930 . S
H2001 C2009 0.930 . S
H2002 C2010 0.930 . S
H2003 C2011 0.930 . S
H2004 C2014 0.930 . S
H2005 C2015 0.930 . S
C2006 H2000 0.930 . S
C2006 C2007 1.355 . S
C2006 C2008 1.415 . S
C2007 C2006 1.355 . S
C2007 C2009 1.419 . S
C2008 C2006 1.415 . S
C2008 C2013 1.425 . S
C2008 C2015 1.409 . S
C2009 H2001 0.930 . S
C2009 C2007 1.419 . S
C2009 C2010 1.362 . S
C2010 H2002 0.930 . S
C2010 C2009 1.362 . S
C2010 C2013 1.409 . S
C2011 H2003 0.930 . S
C2011 C2012 1.355 . S
C2011 C2013 1.415 . S
C2012 C2011 1.355 . S
C2012 C2014 1.419 . S
C2013 C2008 1.425 . S
C2013 C2010 1.409 . S
C2013 C2011 1.415 . S
C2014 H2004 0.930 . S
C2014 C2012 1.419 . S
C2014 C2015 1.362 . S
C2015 H2005 0.930 . S
C2015 C2008 1.409 . S
C2015 C2014 1.362 . S
H2016 C2022 0.930 . S
H2017 C2025 0.930 . S
H2018 C2026 0.930 . S
H2019 C2027 0.930 . S
H2020 C2030 0.930 . S
H2021 C2031 0.930 . S
C2022 H2016 0.930 . S
C2022 C2023 1.355 . S
C2022 C2024 1.415 . S
C2023 C2022 1.355 . S
C2023 C2025 1.419 . S
C2024 C2022 1.415 . S
C2024 C2029 1.425 . S
C2024 C2031 1.409 . S
C2025 H2017 0.930 . S
C2025 C2023 1.419 . S
C2025 C2026 1.362 . S
C2026 H2018 0.930 . S
C2026 C2025 1.362 . S
C2026 C2029 1.409 . S
C2027 H2019 0.930 . S
C2027 C2028 1.355 . S
C2027 C2029 1.415 . S
C2028 C2027 1.355 . S
C2028 C2030 1.419 . S
C2029 C2024 1.425 . S
C2029 C2026 1.409 . S
C2029 C2027 1.415 . S
C2030 H2020 0.930 . S
C2030 C2028 1.419 . S
C2030 C2031 1.362 . S
C2031 H2021 0.930 . S
C2031 C2024 1.409 . S
C2031 C2030 1.362 . S
H2032 C2038 0.930 . S
H2033 C2041 0.930 . S
H2034 C2042 0.930 . S
H2035 C2043 0.930 . S
H2036 C2046 0.930 . S
H2037 C2047 0.930 . S
C2038 H2032 0.930 . S
C2038 C2039 1.355 . S
C2038 C2040 1.415 . S
C2039 C2038 1.355 . S
C2039 C2041 1.419 . S
C2040 C2038 1.415 . S
C2040 C2045 1.425 . S
C2040 C2047 1.409 . S
C2041 H2033 0.930 . S
C2041 C2039 1.419 . S
C2041 C2042 1.362 . S
C2042 H2034 0.930 . S
C2042 C2041 1.362 . S
C2042 C2045 1.409 . S
C2043 H2035 0.930 . S
C2043 C2044 1.355 . S
C2043 C2045 1.415 1_556 S
C2044 C2043 1.355 . S
C2044 C2046 1.419 . S
C2045 C2040 1.425 . S
C2045 C2042 1.409 . S
C2045 C2043 1.415 1_554 S
C2046 H2036 0.930 . S
C2046 C2044 1.419 . S
C2046 C2047 1.362 1_556 S
C2047 H2037 0.930 . S
C2047 C2040 1.409 . S
C2047 C2046 1.362 1_554 S
H2048 C2054 0.930 . S
H2049 C2057 0.930 . S
H2050 C2058 0.930 . S
H2051 C2059 0.930 . S
H2052 C2062 0.930 . S
H2053 C2063 0.930 . S
C2054 H2048 0.930 . S
C2054 C2055 1.355 . S
C2054 C2056 1.415 . S
C2055 C2054 1.355 . S
C2055 C2057 1.419 . S
C2056 C2054 1.415 . S
C2056 C2061 1.425 . S
C2056 C2063 1.409 . S
C2057 H2049 0.930 . S
C2057 C2055 1.419 . S
C2057 C2058 1.362 . S
C2058 H2050 0.930 . S
C2058 C2057 1.362 . S
C2058 C2061 1.409 . S
C2059 H2051 0.930 . S
C2059 C2060 1.355 . S
C2059 C2061 1.415 . S
C2060 C2059 1.355 . S
C2060 C2062 1.419 . S
C2061 C2056 1.425 . S
C2061 C2058 1.409 . S
C2061 C2059 1.415 . S
C2062 H2052 0.930 . S
C2062 C2060 1.419 . S
C2062 C2063 1.362 . S
C2063 H2053 0.930 . S
C2063 C2056 1.409 . S
C2063 C2062 1.362 . S
H2064 C2070 0.930 . S
H2065 C2073 0.930 . S
H2066 C2074 0.930 . S
H2067 C2075 0.930 . S
H2068 C2078 0.930 . S
H2069 C2079 0.930 . S
C2070 H2064 0.930 . S
C2070 C2071 1.355 . S
C2070 C2072 1.415 . S
C2071 C2070 1.355 . S
C2071 C2073 1.419 . S
C2072 C2070 1.415 . S
C2072 C2077 1.425 . S
C2072 C2079 1.409 . S
C2073 H2065 0.930 . S
C2073 C2071 1.419 . S
C2073 C2074 1.362 . S
C2074 H2066 0.930 . S
C2074 C2073 1.362 . S
C2074 C2077 1.409 . S
C2075 H2067 0.930 . S
C2075 C2076 1.355 . S
C2075 C2077 1.415 . S
C2076 C2075 1.355 . S
C2076 C2078 1.419 . S
C2077 C2072 1.425 . S
C2077 C2074 1.409 . S
C2077 C2075 1.415 . S
C2078 H2068 0.930 . S
C2078 C2076 1.419 . S
C2078 C2079 1.362 . S
C2079 H2069 0.930 . S
C2079 C2072 1.409 . S
C2079 C2078 1.362 . S
H2080 C2086 0.930 . S
H2081 C2089 0.930 . S
H2082 C2090 0.930 . S
H2083 C2091 0.930 . S
H2084 C2094 0.930 . S
H2085 C2095 0.930 . S
C2086 H2080 0.930 . S
C2086 C2087 1.355 . S
C2086 C2088 1.415 . S
C2087 C2086 1.355 . S
C2087 C2089 1.419 . S
C2088 C2086 1.415 . S
C2088 C2093 1.425 . S
C2088 C2095 1.409 . S
C2089 H2081 0.930 . S
C2089 C2087 1.419 . S
C2089 C2090 1.362 . S
C2090 H2082 0.930 . S
C2090 C2089 1.362 . S
C2090 C2093 1.409 . S
C2091 H2083 0.930 . S
C2091 C2092 1.355 . S
C2091 C2093 1.415 . S
C2092 C2091 1.355 . S
C2092 C2094 1.419 . S
C2093 C2088 1.425 . S
C2093 C2090 1.409 . S
C2093 C2091 1.415 . S
C2094 H2084 0.930 . S
C2094 C2092 1.419 . S
C2094 C2095 1.362 . S
C2095 H2085 0.930 . S
C2095 C2088 1.409 . S
C2095 C2094 1.362 . S
H2096 C2102 0.930 . S
H2097 C2105 0.930 . S
H2098 C2106 0.930 . S
H2099 C2107 0.930 . S
H2100 C2110 0.930 . S
H2101 C2111 0.930 . S
C2102 H2096 0.930 . S
C2102 C2103 1.355 . S
C2102 C2104 1.415 . S
C2103 C2102 1.355 . S
C2103 C2105 1.419 . S
C2104 C2102 1.415 . S
C2104 C2109 1.425 . S
C2104 C2111 1.409 . S
C2105 H2097 0.930 . S
C2105 C2103 1.419 . S
C2105 C2106 1.362 . S
C2106 H2098 0.930 . S
C2106 C2105 1.362 . S
C2106 C2109 1.409 . S
C2107 H2099 0.930 . S
C2107 C2108 1.355 . S
C2107 C2109 1.415 . S
C2108 C2107 1.355 . S
C2108 C2110 1.419 . S
C2109 C2104 1.425 . S
C2109 C2106 1.409 . S
C2109 C2107 1.415 . S
C2110 H2100 0.930 . S
C2110 C2108 1.419 . S
C2110 C2111 1.362 . S
C2111 H2101 0.930 . S
C2111 C2104 1.409 . S
C2111 C2110 1.362 . S
H2112 C2118 0.930 . S
H2113 C2121 0.930 . S
H2114 C2122 0.930 . S
H2115 C2123 0.930 . S
H2116 C2126 0.930 . S
H2117 C2127 0.929 1_565 S
C2118 H2112 0.930 . S
C2118 C2119 1.355 . S
C2118 C2120 1.415 . S
C2119 C2118 1.355 . S
C2119 C2121 1.419 . S
C2120 C2118 1.415 . S
C2120 C2125 1.425 . S
C2120 C2127 1.406 1_565 S
C2121 H2113 0.930 . S
C2121 C2119 1.419 . S
C2121 C2122 1.362 . S
C2122 H2114 0.930 . S
C2122 C2121 1.362 . S
C2122 C2125 1.409 . S
C2123 H2115 0.930 . S
C2123 C2124 1.355 . S
C2123 C2125 1.415 1_545 S
C2124 C2123 1.355 . S
C2124 C2126 1.419 . S
C2125 C2120 1.425 . S
C2125 C2122 1.409 . S
C2125 C2123 1.415 1_565 S
C2126 H2116 0.930 . S
C2126 C2124 1.419 . S
C2126 C2127 1.366 . S
C2127 H2117 0.929 1_545 S
C2127 C2120 1.406 1_545 S
C2127 C2126 1.366 . S
H2128 C2134 0.930 . S
H2129 C2137 0.930 . S
H2130 C2138 0.930 . S
H2131 C2139 0.930 . S
H2132 C2142 0.930 . S
H2133 C2143 0.930 . S
C2134 H2128 0.930 . S
C2134 C2135 1.355 . S
C2134 C2136 1.415 . S
C2135 C2134 1.355 . S
C2135 C2137 1.419 . S
C2136 C2134 1.415 . S
C2136 C2141 1.425 . S
C2136 C2143 1.409 . S
C2137 H2129 0.930 . S
C2137 C2135 1.419 . S
C2137 C2138 1.362 . S
C2138 H2130 0.930 . S
C2138 C2137 1.362 . S
C2138 C2141 1.409 . S
C2139 H2131 0.930 . S
C2139 C2140 1.355 . S
C2139 C2141 1.415 . S
C2140 C2139 1.355 . S
C2140 C2142 1.419 . S
C2141 C2136 1.425 . S
C2141 C2138 1.409 . S
C2141 C2139 1.415 . S
C2142 H2132 0.930 . S
C2142 C2140 1.419 . S
C2142 C2143 1.362 . S
C2143 H2133 0.930 . S
C2143 C2136 1.409 . S
C2143 C2142 1.362 . S
H2144 C2150 0.930 . S
H2145 C2153 0.930 . S
H2146 C2154 0.930 . S
H2147 C2155 0.930 . S
H2148 C2158 0.930 . S
H2149 C2159 0.930 . S
C2150 H2144 0.930 . S
C2150 C2151 1.355 . S
C2150 C2152 1.415 . S
C2151 C2150 1.355 . S
C2151 C2153 1.419 . S
C2152 C2150 1.415 . S
C2152 C2157 1.425 . S
C2152 C2159 1.409 . S
C2153 H2145 0.930 . S
C2153 C2151 1.419 . S
C2153 C2154 1.362 . S
C2154 H2146 0.930 . S
C2154 C2153 1.362 . S
C2154 C2157 1.409 . S
C2155 H2147 0.930 . S
C2155 C2156 1.355 . S
C2155 C2157 1.415 . S
C2156 C2155 1.355 . S
C2156 C2158 1.419 . S
C2157 C2152 1.425 . S
C2157 C2154 1.409 . S
C2157 C2155 1.415 . S
C2158 H2148 0.930 . S
C2158 C2156 1.419 . S
C2158 C2159 1.362 . S
C2159 H2149 0.930 . S
C2159 C2152 1.409 . S
C2159 C2158 1.362 . S
H2160 C2166 0.930 . S
H2161 C2169 0.930 . S
H2162 C2170 0.930 . S
H2163 C2171 0.930 . S
H2164 C2174 0.930 . S
H2165 C2175 0.930 . S
C2166 H2160 0.930 . S
C2166 C2167 1.355 . S
C2166 C2168 1.415 . S
C2167 C2166 1.355 . S
C2167 C2169 1.419 . S
C2168 C2166 1.415 . S
C2168 C2173 1.425 . S
C2168 C2175 1.409 . S
C2169 H2161 0.930 . S
C2169 C2167 1.419 . S
C2169 C2170 1.362 . S
C2170 H2162 0.930 . S
C2170 C2169 1.362 . S
C2170 C2173 1.409 . S
C2171 H2163 0.930 . S
C2171 C2172 1.355 . S
C2171 C2173 1.415 . S
C2172 C2171 1.355 . S
C2172 C2174 1.419 . S
C2173 C2168 1.425 . S
C2173 C2170 1.409 . S
C2173 C2171 1.415 . S
C2174 H2164 0.930 . S
C2174 C2172 1.419 . S
C2174 C2175 1.362 . S
C2175 H2165 0.930 . S
C2175 C2168 1.409 . S
C2175 C2174 1.362 . S
H2176 C2182 0.930 . S
H2177 C2185 0.930 . S
H2178 C2186 0.930 . S
H2179 C2187 0.930 . S
H2180 C2190 0.930 . S
H2181 C2191 0.930 . S
C2182 H2176 0.930 . S
C2182 C2183 1.355 . S
C2182 C2184 1.415 1_565 S
C2183 C2182 1.355 . S
C2183 C2185 1.419 . S
C2184 C2182 1.415 1_545 S
C2184 C2189 1.425 . S
C2184 C2191 1.409 . S
C2185 H2177 0.930 . S
C2185 C2183 1.419 . S
C2185 C2186 1.362 1_565 S
C2186 H2178 0.930 . S
C2186 C2185 1.362 1_545 S
C2186 C2189 1.409 . S
C2187 H2179 0.930 . S
C2187 C2188 1.355 . S
C2187 C2189 1.415 . S
C2188 C2187 1.355 . S
C2188 C2190 1.419 . S
C2189 C2184 1.425 . S
C2189 C2186 1.409 . S
C2189 C2187 1.415 . S
C2190 H2180 0.930 . S
C2190 C2188 1.419 . S
C2190 C2191 1.362 . S
C2191 H2181 0.930 . S
C2191 C2184 1.409 . S
C2191 C2190 1.362 . S
H2192 C2198 0.930 . S
H2193 C2201 0.930 . S
H2194 C2202 0.930 . S
H2195 C2203 0.930 . S
H2196 C2206 0.930 . S
H2197 C2207 0.930 . S
C2198 H2192 0.930 . S
C2198 C2199 1.355 . S
C2198 C2200 1.415 . S
C2199 C2198 1.355 . S
C2199 C2201 1.419 . S
C2200 C2198 1.415 . S
C2200 C2205 1.425 . S
C2200 C2207 1.409 . S
C2201 H2193 0.930 . S
C2201 C2199 1.419 . S
C2201 C2202 1.362 . S
C2202 H2194 0.930 . S
C2202 C2201 1.362 . S
C2202 C2205 1.409 . S
C2203 H2195 0.930 . S
C2203 C2204 1.355 . S
C2203 C2205 1.415 1_545 S
C2204 C2203 1.355 . S
C2204 C2206 1.419 . S
C2205 C2200 1.425 . S
C2205 C2202 1.409 . S
C2205 C2203 1.415 1_565 S
C2206 H2196 0.930 . S
C2206 C2204 1.419 . S
C2206 C2207 1.362 1_545 S
C2207 H2197 0.930 . S
C2207 C2200 1.409 . S
C2207 C2206 1.362 1_565 S
C679 C594 1.295 . S
C684 C7 1.193 . S
C695 C23 1.515 . S
C700 C219 1.530 . S
C711 C34 1.284 . S
C716 C567 1.326 . S
C727 C50 1.510 . S
C732 C246 1.506 . S
C743 C624 1.576 . S
C748 C64 1.633 . S
C759 C77 1.401 . S
C764 C301 1.525 . S
C775 C93 1.670 . S
C780 C653 1.584 . S
C791 C105 1.396 . S
C796 C272 1.517 . S
C807 C49 1.188 . S
C812 C664 1.241 . S
C823 C8 1.444 . S
C828 C357 1.444 . S
C839 C373 1.387 . S
C844 C20 1.343 . S
C855 C37 1.572 . S
C860 C343 1.569 . S
C871 C78 1.708 . S
C876 C344 1.686 . S
C887 C90 1.509 . S
C892 C667 1.510 . S
C903 C106 1.613 . S
C908 C358 1.641 . S
C919 C63 1.411 . S
C924 C370 1.355 . S
C935 C552 1.200 . S
C940 C119 1.123 . S
C951 C135 1.695 . S
C956 C275 1.586 . S
C967 C120 1.430 . S
C972 C623 1.467 . S
C983 C302 1.762 . S
C988 C149 1.761 . S
C999 C314 1.358 . S
C1004 C161 1.377 . S
C1015 C581 1.264 . S
C1020 C176 1.236 . S
C1031 C597 1.429 . S
C1036 C188 1.396 . S
C1047 C568 1.421 . S
C1052 C202 1.350 . S
C1063 C468 1.280 . S
C1068 C217 1.195 . S
C1079 C233 1.543 . S
C1084 C9 1.466 . S
C1095 C244 1.323 . S
C1100 C441 1.431 . S
C1111 C36 1.418 . S
C1116 C260 1.498 . S
C1127 C274 1.624 . S
C1132 C499 1.587 . S
C1143 C91 1.528 . S
C1148 C286 1.476 . S
C1159 C303 1.646 . S
C1164 C527 1.579 . S
C1175 C62 1.502 . S
C1180 C315 1.428 . S
C1191 C538 1.235 . S
C1196 C259 1.284 . S
C1207 C218 1.477 . S
C1212 C147 1.495 . S
C1223 C163 1.300 . S
C1228 C230 1.287 . S
C1239 C133 1.542 . S
C1244 C247 1.526 . S
C1255 C134 1.709 . S
C1260 C289 1.710 . S
C1271 C300 1.508 . S
C1276 C541 1.533 . S
C1287 C148 1.702 . S
C1292 C316 1.658 . S
C1303 C273 1.338 . S
C1308 C160 1.384 . S
C1319 C329 1.195 . S
C1324 C426 1.277 . S
C1335 C345 1.663 . S
C1340 C65 1.586 . S
C1351 C330 1.451 . S
C1356 C496 1.460 . S
C1367 C359 1.732 . S
C1372 C92 1.651 . S
C1383 C371 1.306 1_545 S
C1388 C104 1.345 . S
C1399 C455 1.311 . S
C1404 C386 1.328 . S
C1415 C398 1.462 . S
C1420 C471 1.406 . S
C1431 C415 1.763 . S
C1436 C442 1.672 . S
C1447 C427 1.388 . S
C1452 C258 1.420 . S
C1463 C443 1.537 . S
C1468 C555 1.533 . S
C1479 C231 1.347 . S
C1484 C454 1.233 . S
C1495 C470 1.492 . S
C1500 C582 1.445 . S
C1511 C484 1.614 . S
C1516 C288 1.631 . S
C1527 C637 1.508 . S
C1532 C497 1.427 . S
C1543 C513 1.664 . S
C1548 C317 1.571 . S
C1559 C608 1.375 . S
C1564 C525 1.329 . S
C1575 C328 1.169 . S
C1580 C469 1.230 . S
C1591 C414 1.637 . S
C1596 C428 1.654 . S
C1607 C440 1.507 . S
C1612 C387 1.455 . S
C1623 C399 1.589 . S
C1628 C457 1.550 . S
C1639 C498 1.702 . S
C1644 C400 1.689 . S
C1655 C331 1.386 . S
C1660 C510 1.449 . S
C1671 C526 1.420 . S
C1676 C413 1.425 . S
C1687 C483 1.418 . S
C1692 C384 1.390 . S
C1703 C539 1.180 . S
C1708 C216 1.172 . S
C1719 C191 1.623 . S
C1724 C611 1.593 . S
C1735 C287 1.496 . S
C1740 C540 1.460 . S
C1751 C638 1.612 . S
C1756 C205 1.708 . S
C1767 C650 1.347 . S
C1772 C175 1.293 . S
C1783 C162 1.269 . S
C1788 C245 1.248 . S
C1799 C132 1.451 . S
C1804 C261 1.443 . S
C1815 C232 1.509 . S
C1820 C146 1.509 . S
C1831 C553 1.255 . S
C1836 C48 1.292 . S
C1847 C429 1.510 . S
C1852 C569 1.545 . S
C1863 C580 1.195 . S
C1868 C21 1.332 . S
C1879 C596 1.505 . S
C1884 C456 1.454 . S
C1895 C79 1.589 . S
C1900 C610 1.661 . S
C1911 C622 1.364 . S
C1916 C511 1.418 . S
C1927 C639 1.639 . S
C1932 C107 1.647 . S
C1943 C482 1.522 . S
C1948 C651 1.424 . S
C1959 C595 1.248 . S
C1964 C118 1.211 . S
C1975 C203 1.402 . S
C1980 C554 1.399 . S
C1991 C177 1.388 . S
C1996 C566 1.348 . S
C2007 C583 1.588 . S
C2012 C189 1.582 . S
C2023 C625 1.763 . S
C2028 C190 1.656 . S
C2039 C121 1.553 . S
C2044 C636 1.545 . S
C2055 C204 1.631 . S
C2060 C652 1.585 . S
C2071 C609 1.334 . S
C2076 C174 1.372 . S
C2087 C6 1.231 . S
C2092 C665 1.152 . S
C2103 C401 1.698 . S
C2108 C485 1.613 . S
C2119 C76 1.458 . S
C2124 C666 1.460 . S
C2135 C512 1.400 . S
C2140 C412 1.412 . S
C2151 C524 1.262 . S
C2156 C385 1.300 . S
C2167 C372 1.280 . S
C2172 C35 1.252 . S
C2183 C342 1.441 . S
C2188 C51 1.419 . S
C2199 C22 1.502 . S
C2204 C356 1.481 . S
