# Generated by pormake.
# Topology umu, (4)-cn, num edge types: 1
# Building blocks:
#     Node 0, Type 0, BuildingBlock: CEKHIL_clean_sbu_0, # of connection points: 4
#     Node 1, Type 0, BuildingBlock: CEKHIL_clean_sbu_0, # of connection points: 4
#     Node 2, Type 0, BuildingBlock: CEKHIL_clean_sbu_0, # of connection points: 4
#     Node 3, Type 0, BuildingBlock: CEKHIL_clean_sbu_0, # of connection points: 4
#     Node 4, Type 0, BuildingBlock: CEKHIL_clean_sbu_0, # of connection points: 4
#     Node 5, Type 0, BuildingBlock: CEKHIL_clean_sbu_0, # of connection points: 4
#     Node 6, Type 0, BuildingBlock: CEKHIL_clean_sbu_0, # of connection points: 4
#     Node 7, Type 0, BuildingBlock: CEKHIL_clean_sbu_0, # of connection points: 4
#     Node 8, Type 0, BuildingBlock: CEKHIL_clean_sbu_0, # of connection points: 4
#     Node 9, Type 0, BuildingBlock: CEKHIL_clean_sbu_0, # of connection points: 4
#     Node 10, Type 0, BuildingBlock: CEKHIL_clean_sbu_0, # of connection points: 4
#     Node 11, Type 0, BuildingBlock: CEKHIL_clean_sbu_0, # of connection points: 4
#     Node 12, Type 0, BuildingBlock: CEKHIL_clean_sbu_0, # of connection points: 4
#     Node 13, Type 0, BuildingBlock: CEKHIL_clean_sbu_0, # of connection points: 4
#     Node 14, Type 0, BuildingBlock: CEKHIL_clean_sbu_0, # of connection points: 4
#     Node 15, Type 0, BuildingBlock: CEKHIL_clean_sbu_0, # of connection points: 4
#     Node 16, Type 0, BuildingBlock: CEKHIL_clean_sbu_0, # of connection points: 4
#     Node 17, Type 0, BuildingBlock: CEKHIL_clean_sbu_0, # of connection points: 4
#     Node 18, Type 0, BuildingBlock: CEKHIL_clean_sbu_0, # of connection points: 4
#     Node 19, Type 0, BuildingBlock: CEKHIL_clean_sbu_0, # of connection points: 4
#     Node 20, Type 0, BuildingBlock: CEKHIL_clean_sbu_0, # of connection points: 4
#     Node 21, Type 0, BuildingBlock: CEKHIL_clean_sbu_0, # of connection points: 4
#     Node 22, Type 0, BuildingBlock: CEKHIL_clean_sbu_0, # of connection points: 4
#     Node 23, Type 0, BuildingBlock: CEKHIL_clean_sbu_0, # of connection points: 4
#     Node 24, Type 0, BuildingBlock: CEKHIL_clean_sbu_0, # of connection points: 4
#     Node 25, Type 0, BuildingBlock: CEKHIL_clean_sbu_0, # of connection points: 4
#     Node 26, Type 0, BuildingBlock: CEKHIL_clean_sbu_0, # of connection points: 4
#     Node 27, Type 0, BuildingBlock: CEKHIL_clean_sbu_0, # of connection points: 4
#     Node 28, Type 0, BuildingBlock: CEKHIL_clean_sbu_0, # of connection points: 4
#     Node 29, Type 0, BuildingBlock: CEKHIL_clean_sbu_0, # of connection points: 4
#     Node 30, Type 0, BuildingBlock: CEKHIL_clean_sbu_0, # of connection points: 4
#     Node 31, Type 0, BuildingBlock: CEKHIL_clean_sbu_0, # of connection points: 4
#     Edge 32, Type (0, 0), BuildingBlock: UVAHIK_clean_linker_0, # of connection points: 2
#     Edge 33, Type (0, 0), BuildingBlock: UVAHIK_clean_linker_0, # of connection points: 2
#     Edge 34, Type (0, 0), BuildingBlock: UVAHIK_clean_linker_0, # of connection points: 2
#     Edge 35, Type (0, 0), BuildingBlock: UVAHIK_clean_linker_0, # of connection points: 2
#     Edge 36, Type (0, 0), BuildingBlock: UVAHIK_clean_linker_0, # of connection points: 2
#     Edge 37, Type (0, 0), BuildingBlock: UVAHIK_clean_linker_0, # of connection points: 2
#     Edge 38, Type (0, 0), BuildingBlock: UVAHIK_clean_linker_0, # of connection points: 2
#     Edge 39, Type (0, 0), BuildingBlock: UVAHIK_clean_linker_0, # of connection points: 2
#     Edge 40, Type (0, 0), BuildingBlock: UVAHIK_clean_linker_0, # of connection points: 2
#     Edge 41, Type (0, 0), BuildingBlock: UVAHIK_clean_linker_0, # of connection points: 2
#     Edge 42, Type (0, 0), BuildingBlock: UVAHIK_clean_linker_0, # of connection points: 2
#     Edge 43, Type (0, 0), BuildingBlock: UVAHIK_clean_linker_0, # of connection points: 2
#     Edge 44, Type (0, 0), BuildingBlock: UVAHIK_clean_linker_0, # of connection points: 2
#     Edge 45, Type (0, 0), BuildingBlock: UVAHIK_clean_linker_0, # of connection points: 2
#     Edge 46, Type (0, 0), BuildingBlock: UVAHIK_clean_linker_0, # of connection points: 2
#     Edge 47, Type (0, 0), BuildingBlock: UVAHIK_clean_linker_0, # of connection points: 2
#     Edge 48, Type (0, 0), BuildingBlock: UVAHIK_clean_linker_0, # of connection points: 2
#     Edge 49, Type (0, 0), BuildingBlock: UVAHIK_clean_linker_0, # of connection points: 2
#     Edge 50, Type (0, 0), BuildingBlock: UVAHIK_clean_linker_0, # of connection points: 2
#     Edge 51, Type (0, 0), BuildingBlock: UVAHIK_clean_linker_0, # of connection points: 2
#     Edge 52, Type (0, 0), BuildingBlock: UVAHIK_clean_linker_0, # of connection points: 2
#     Edge 53, Type (0, 0), BuildingBlock: UVAHIK_clean_linker_0, # of connection points: 2
#     Edge 54, Type (0, 0), BuildingBlock: UVAHIK_clean_linker_0, # of connection points: 2
#     Edge 55, Type (0, 0), BuildingBlock: UVAHIK_clean_linker_0, # of connection points: 2
#     Edge 56, Type (0, 0), BuildingBlock: UVAHIK_clean_linker_0, # of connection points: 2
#     Edge 57, Type (0, 0), BuildingBlock: UVAHIK_clean_linker_0, # of connection points: 2
#     Edge 58, Type (0, 0), BuildingBlock: UVAHIK_clean_linker_0, # of connection points: 2
#     Edge 59, Type (0, 0), BuildingBlock: UVAHIK_clean_linker_0, # of connection points: 2
#     Edge 60, Type (0, 0), BuildingBlock: UVAHIK_clean_linker_0, # of connection points: 2
#     Edge 61, Type (0, 0), BuildingBlock: UVAHIK_clean_linker_0, # of connection points: 2
#     Edge 62, Type (0, 0), BuildingBlock: UVAHIK_clean_linker_0, # of connection points: 2
#     Edge 63, Type (0, 0), BuildingBlock: UVAHIK_clean_linker_0, # of connection points: 2
#     Edge 64, Type (0, 0), BuildingBlock: UVAHIK_clean_linker_0, # of connection points: 2
#     Edge 65, Type (0, 0), BuildingBlock: UVAHIK_clean_linker_0, # of connection points: 2
#     Edge 66, Type (0, 0), BuildingBlock: UVAHIK_clean_linker_0, # of connection points: 2
#     Edge 67, Type (0, 0), BuildingBlock: UVAHIK_clean_linker_0, # of connection points: 2
#     Edge 68, Type (0, 0), BuildingBlock: UVAHIK_clean_linker_0, # of connection points: 2
#     Edge 69, Type (0, 0), BuildingBlock: UVAHIK_clean_linker_0, # of connection points: 2
#     Edge 70, Type (0, 0), BuildingBlock: UVAHIK_clean_linker_0, # of connection points: 2
#     Edge 71, Type (0, 0), BuildingBlock: UVAHIK_clean_linker_0, # of connection points: 2
#     Edge 72, Type (0, 0), BuildingBlock: UVAHIK_clean_linker_0, # of connection points: 2
#     Edge 73, Type (0, 0), BuildingBlock: UVAHIK_clean_linker_0, # of connection points: 2
#     Edge 74, Type (0, 0), BuildingBlock: UVAHIK_clean_linker_0, # of connection points: 2
#     Edge 75, Type (0, 0), BuildingBlock: UVAHIK_clean_linker_0, # of connection points: 2
#     Edge 76, Type (0, 0), BuildingBlock: UVAHIK_clean_linker_0, # of connection points: 2
#     Edge 77, Type (0, 0), BuildingBlock: UVAHIK_clean_linker_0, # of connection points: 2
#     Edge 78, Type (0, 0), BuildingBlock: UVAHIK_clean_linker_0, # of connection points: 2
#     Edge 79, Type (0, 0), BuildingBlock: UVAHIK_clean_linker_0, # of connection points: 2
#     Edge 80, Type (0, 0), BuildingBlock: UVAHIK_clean_linker_0, # of connection points: 2
#     Edge 81, Type (0, 0), BuildingBlock: UVAHIK_clean_linker_0, # of connection points: 2
#     Edge 82, Type (0, 0), BuildingBlock: UVAHIK_clean_linker_0, # of connection points: 2
#     Edge 83, Type (0, 0), BuildingBlock: UVAHIK_clean_linker_0, # of connection points: 2
#     Edge 84, Type (0, 0), BuildingBlock: UVAHIK_clean_linker_0, # of connection points: 2
#     Edge 85, Type (0, 0), BuildingBlock: UVAHIK_clean_linker_0, # of connection points: 2
#     Edge 86, Type (0, 0), BuildingBlock: UVAHIK_clean_linker_0, # of connection points: 2
#     Edge 87, Type (0, 0), BuildingBlock: UVAHIK_clean_linker_0, # of connection points: 2
#     Edge 88, Type (0, 0), BuildingBlock: UVAHIK_clean_linker_0, # of connection points: 2
#     Edge 89, Type (0, 0), BuildingBlock: UVAHIK_clean_linker_0, # of connection points: 2
#     Edge 90, Type (0, 0), BuildingBlock: UVAHIK_clean_linker_0, # of connection points: 2
#     Edge 91, Type (0, 0), BuildingBlock: UVAHIK_clean_linker_0, # of connection points: 2
#     Edge 92, Type (0, 0), BuildingBlock: UVAHIK_clean_linker_0, # of connection points: 2
#     Edge 93, Type (0, 0), BuildingBlock: UVAHIK_clean_linker_0, # of connection points: 2
#     Edge 94, Type (0, 0), BuildingBlock: UVAHIK_clean_linker_0, # of connection points: 2
#     Edge 95, Type (0, 0), BuildingBlock: UVAHIK_clean_linker_0, # of connection points: 2
# Relax obj value: 0.134
# Max RMSD: 0.098
# Mean RMSD: 0.098
data_MOF--net-umu--node1-CEKHIL_clean_sbu_0--edge1-UVAHIK_clean_linker_0
_symmetry_space_group_name_H-M    P1
_symmetry_Int_Tables_number       1
_symmetry_cell_setting            triclinic
loop_
_symmetry_equiv_pos_as_xyz
'x, y, z'
_cell_length_a     105.54919
_cell_length_b     105.54415
_cell_length_c     33.445928
_cell_angle_alpha  89.92107
_cell_angle_beta   89.974593
_cell_angle_gamma 90.034546
loop_
_atom_site_label
_atom_site_type_symbol
_atom_site_fract_x
_atom_site_fract_y
_atom_site_fract_z
_atom_type_partial_charge
Co0 Co 0.21074 0.15839 0.0921 0.0
O1 O 0.20564 0.14149 0.07727 0.0
O2 O 0.19425 0.15878 0.06688 0.0
C3 C 0.21778 0.15322 0.1537 0.0
O4 O 0.21233 0.1773 0.10386 0.0
Co5 Co 0.23848 0.16549 0.11517 0.0
O6 O 0.23071 0.18135 0.13513 0.0
C7 C 0.23147 0.16111 0.03033 0.0
C8 C 0.19535 0.14657 0.06323 0.0
C9 C 0.21981 0.1848 0.12297 0.0
O10 O 0.21957 0.16046 0.03893 0.0
O11 O 0.24021 0.16219 0.05663 0.0
O12 O 0.20575 0.15532 0.14814 0.0
O13 O 0.22474 0.15366 0.12226 0.0
Co14 Co 0.09903 0.9611 0.34087 0.0
O15 O 0.11622 0.95505 0.3375 0.0
O16 O 0.09936 0.94463 0.31584 0.0
C17 C 0.09963 0.96821 0.40432 0.0
O18 O 0.07989 0.96395 0.34014 0.0
Co19 Co 0.09343 0.98982 0.35421 0.0
O20 O 0.07557 0.98408 0.35746 0.0
C21 C 0.10467 0.9811 0.27921 0.0
C22 C 0.1116 0.94512 0.31976 0.0
C23 C 0.07202 0.97288 0.34865 0.0
O24 O 0.10121 0.96967 0.28723 0.0
O25 O 0.1038 0.99017 0.30434 0.0
O26 O 0.09794 0.95618 0.39768 0.0
O27 O 0.10221 0.97498 0.37339 0.0
Co28 Co 0.30051 0.84693 0.59146 0.0
O29 O 0.30601 0.86423 0.58469 0.0
O30 O 0.31718 0.8474 0.56713 0.0
C31 C 0.29297 0.84882 0.65441 0.0
O32 O 0.29814 0.82766 0.59479 0.0
Co33 Co 0.27182 0.84094 0.60502 0.0
O34 O 0.27818 0.82356 0.61487 0.0
C35 C 0.28072 0.85067 0.52791 0.0
C36 C 0.31622 0.85969 0.56845 0.0
C37 C 0.28938 0.81993 0.60638 0.0
O38 O 0.2922 0.8477 0.53705 0.0
O39 O 0.27153 0.85008 0.55279 0.0
O40 O 0.30508 0.84727 0.64878 0.0
O41 O 0.28638 0.85044 0.62254 0.0
Co42 Co 0.40972 0.05019 0.8443 0.0
O43 O 0.3928 0.05608 0.83274 0.0
O44 O 0.41038 0.0661 0.81533 0.0
C45 C 0.40629 0.0448 0.90875 0.0
O46 O 0.42875 0.0475 0.85166 0.0
Co47 Co 0.41497 0.02218 0.86869 0.0
O48 O 0.43223 0.02858 0.88064 0.0
C49 C 0.40847 0.02842 0.78512 0.0
C50 C 0.39806 0.06566 0.81482 0.0
C51 C 0.43615 0.03931 0.86809 0.0
O52 O 0.40978 0.04034 0.79244 0.0
O53 O 0.40903 0.01989 0.81231 0.0
O54 O 0.4087 0.05653 0.89958 0.0
O55 O 0.40502 0.03716 0.8791 0.0
Co56 Co 0.21133 0.85182 0.07092 0.0
O57 O 0.20658 0.86871 0.08673 0.0
O58 O 0.19501 0.85151 0.09727 0.0
C59 C 0.21804 0.85713 0.0091 0.0
O60 O 0.21267 0.83293 0.05845 0.0
Co61 Co 0.23892 0.84465 0.04626 0.0
O62 O 0.23096 0.82885 0.02662 0.0
C63 C 0.23238 0.84891 0.13145 0.0
C64 C 0.19635 0.86369 0.10148 0.0
C65 C 0.22006 0.82543 0.03905 0.0
O66 O 0.22045 0.8495 0.12343 0.0
O67 O 0.24101 0.84793 0.10471 0.0
O68 O 0.20603 0.85512 0.01535 0.0
O69 O 0.22519 0.85654 0.04008 0.0
Co70 Co 0.40894 0.96109 0.32077 0.0
O71 O 0.39202 0.95545 0.33375 0.0
O72 O 0.40958 0.94515 0.34945 0.0
C73 C 0.40495 0.9666 0.25679 0.0
O74 O 0.42794 0.96343 0.31187 0.0
Co75 Co 0.4148 0.98885 0.29541 0.0
O76 O 0.43146 0.98176 0.2795 0.0
C77 C 0.4093 0.98288 0.38013 0.0
C78 C 0.39729 0.94575 0.35098 0.0
C79 C 0.4353 0.97115 0.29311 0.0
O80 O 0.40963 0.9709 0.37261 0.0
O81 O 0.41021 0.99139 0.35296 0.0
O82 O 0.40735 0.95484 0.2656 0.0
O83 O 0.40413 0.97425 0.28656 0.0
Co84 Co 0.30038 0.16265 0.5715 0.0
O85 O 0.30613 0.14544 0.57842 0.0
O86 O 0.31702 0.16245 0.59601 0.0
C87 C 0.29294 0.16068 0.50843 0.0
O88 O 0.29779 0.18188 0.56809 0.0
Co89 Co 0.27166 0.1683 0.55768 0.0
O90 O 0.2778 0.18579 0.54815 0.0
C91 C 0.28054 0.15867 0.63485 0.0
C92 C 0.31625 0.15015 0.59476 0.0
C93 C 0.28897 0.18952 0.55662 0.0
O94 O 0.292 0.16178 0.62584 0.0
O95 O 0.27139 0.15913 0.60984 0.0
O96 O 0.30502 0.16238 0.51421 0.0
O97 O 0.28633 0.15895 0.54023 0.0
Co98 Co 0.09804 0.04866 0.82357 0.0
O99 O 0.11496 0.05414 0.83617 0.0
O100 O 0.09758 0.06505 0.84964 0.0
C101 C 0.10253 0.04201 0.76121 0.0
O102 O 0.07901 0.04638 0.81418 0.0
Co103 Co 0.09191 0.02058 0.80165 0.0
O104 O 0.07529 0.02752 0.78529 0.0
C105 C 0.09793 0.02773 0.88508 0.0
C106 C 0.10986 0.06418 0.85172 0.0
C107 C 0.07155 0.03838 0.797 0.0
O108 O 0.09716 0.03962 0.87667 0.0
O109 O 0.09711 0.01895 0.85884 0.0
O110 O 0.10012 0.05395 0.76738 0.0
O111 O 0.10281 0.03495 0.79248 0.0
Co112 Co 0.80034 0.84751 0.06975 0.0
O113 O 0.80601 0.86471 0.07732 0.0
O114 O 0.81699 0.84766 0.09416 0.0
C115 C 0.79284 0.84974 0.00685 0.0
O116 O 0.79783 0.8283 0.06567 0.0
Co117 Co 0.77164 0.84176 0.05604 0.0
O118 O 0.77784 0.82435 0.04576 0.0
C119 C 0.78057 0.85108 0.13346 0.0
C120 C 0.81614 0.85996 0.09351 0.0
C121 C 0.78903 0.82065 0.05404 0.0
O122 O 0.79203 0.84807 0.12418 0.0
O123 O 0.77139 0.85069 0.10857 0.0
O124 O 0.80494 0.84808 0.01245 0.0
O125 O 0.78625 0.85128 0.03878 0.0
Co126 Co 0.90999 0.04969 0.82068 0.0
O127 O 0.8931 0.0559 0.83025 0.0
O128 O 0.91067 0.06629 0.84531 0.0
C129 C 0.90641 0.0424 0.75827 0.0
O130 O 0.92901 0.04666 0.81439 0.0
Co131 Co 0.91522 0.02107 0.80365 0.0
O132 O 0.93256 0.02705 0.79063 0.0
C133 C 0.90663 0.02966 0.88299 0.0
C134 C 0.89835 0.06585 0.84592 0.0
C135 C 0.93646 0.03806 0.80045 0.0
O136 O 0.90972 0.04117 0.87469 0.0
O137 O 0.90682 0.02068 0.85729 0.0
O138 O 0.90899 0.05436 0.76353 0.0
O139 O 0.90528 0.03581 0.79032 0.0
Co140 Co 0.71105 0.16168 0.57191 0.0
O141 O 0.70581 0.14475 0.58594 0.0
O142 O 0.69444 0.16202 0.59665 0.0
C143 C 0.71831 0.15667 0.5104 0.0
O144 O 0.71291 0.18067 0.56075 0.0
Co145 Co 0.73906 0.16839 0.55042 0.0
O146 O 0.73165 0.18451 0.53124 0.0
C147 C 0.73155 0.16372 0.63465 0.0
C148 C 0.6955 0.14979 0.59994 0.0
C149 C 0.72072 0.18812 0.54263 0.0
O150 O 0.71968 0.1634 0.62553 0.0
O151 O 0.74045 0.1647 0.6088 0.0
O152 O 0.70628 0.15887 0.51554 0.0
O153 O 0.72512 0.15692 0.54216 0.0
Co154 Co 0.59771 0.96081 0.31935 0.0
O155 O 0.61505 0.95567 0.3271 0.0
O156 O 0.59832 0.94388 0.34165 0.0
C157 C 0.60018 0.96922 0.2577 0.0
O158 O 0.57845 0.96263 0.31438 0.0
Co159 Co 0.59064 0.9893 0.30765 0.0
O160 O 0.57401 0.98223 0.2917 0.0
C161 C 0.60032 0.98 0.38462 0.0
C162 C 0.61059 0.94516 0.34161 0.0
C163 C 0.57068 0.97094 0.30032 0.0
O164 O 0.59774 0.9685 0.37462 0.0
O165 O 0.59945 0.98937 0.36047 0.0
O166 O 0.59876 0.95701 0.26161 0.0
O167 O 0.60118 0.97541 0.29056 0.0
Co168 Co 0.80081 0.1618 0.09085 0.0
O169 O 0.80687 0.14465 0.08503 0.0
O170 O 0.81744 0.16181 0.0665 0.0
C171 C 0.79332 0.16017 0.15396 0.0
O172 O 0.79798 0.18096 0.09275 0.0
Co173 Co 0.77205 0.16725 0.10395 0.0
O174 O 0.77788 0.18496 0.11124 0.0
C175 C 0.78109 0.15725 0.02756 0.0
C176 C 0.81689 0.14952 0.06837 0.0
C177 C 0.78906 0.18867 0.10275 0.0
O178 O 0.79251 0.1605 0.0365 0.0
O179 O 0.77191 0.15774 0.05247 0.0
O180 O 0.80539 0.16197 0.14814 0.0
O181 O 0.78677 0.15811 0.12227 0.0
Co182 Co 0.59791 0.05104 0.8379 0.0
O183 O 0.61483 0.0559 0.82264 0.0
O184 O 0.59774 0.06766 0.81311 0.0
C185 C 0.60323 0.04365 0.899 0.0
O186 O 0.57896 0.04949 0.85036 0.0
Co187 Co 0.59085 0.02311 0.8601 0.0
O188 O 0.57518 0.03092 0.88116 0.0
C189 C 0.59496 0.03058 0.77549 0.0
C190 C 0.60992 0.06631 0.80889 0.0
C191 C 0.5716 0.04185 0.86958 0.0
O192 O 0.59563 0.04244 0.78449 0.0
O193 O 0.59397 0.0217 0.80143 0.0
O194 O 0.60126 0.05573 0.89405 0.0
O195 O 0.60259 0.03688 0.86724 0.0
Co196 Co 0.71098 0.85204 0.59051 0.0
O197 O 0.70643 0.8689 0.57352 0.0
O198 O 0.69459 0.85183 0.56465 0.0
C199 C 0.71797 0.85765 0.65172 0.0
O200 O 0.71203 0.83321 0.60447 0.0
Co201 Co 0.73847 0.84449 0.61504 0.0
O202 O 0.73019 0.82913 0.637 0.0
C203 C 0.73182 0.84833 0.52969 0.0
C204 C 0.69608 0.86395 0.55949 0.0
C205 C 0.71924 0.8258 0.62491 0.0
O206 O 0.71992 0.84922 0.53794 0.0
O207 O 0.74049 0.84732 0.55629 0.0
O208 O 0.7059 0.85581 0.64598 0.0
O209 O 0.72502 0.85672 0.62058 0.0
Co210 Co 0.91021 0.95986 0.33746 0.0
O211 O 0.89307 0.95365 0.33249 0.0
O212 O 0.91022 0.94316 0.3138 0.0
C213 C 0.90891 0.96762 0.40027 0.0
O214 O 0.92933 0.96281 0.33853 0.0
Co215 Co 0.91553 0.98873 0.34853 0.0
O216 O 0.93339 0.98317 0.35375 0.0
C217 C 0.90501 0.9792 0.27369 0.0
C218 C 0.89793 0.94363 0.31594 0.0
C219 C 0.93708 0.9719 0.34659 0.0
O220 O 0.90866 0.96792 0.28281 0.0
O221 O 0.90542 0.98847 0.29817 0.0
O222 O 0.91067 0.95553 0.39496 0.0
O223 O 0.90663 0.97403 0.36836 0.0
Co224 Co 0.7115 0.66513 0.58694 0.0
O225 O 0.70809 0.64788 0.57105 0.0
O226 O 0.69462 0.66382 0.56477 0.0
C227 C 0.72037 0.66049 0.6467 0.0
O228 O 0.71128 0.68406 0.60062 0.0
Co229 Co 0.73885 0.67504 0.60402 0.0
O230 O 0.72979 0.68927 0.62953 0.0
C231 C 0.73045 0.67023 0.52101 0.0
C232 C 0.69708 0.65189 0.55912 0.0
C233 C 0.71838 0.69184 0.62014 0.0
O234 O 0.71889 0.66856 0.53227 0.0
O235 O 0.73966 0.67203 0.54524 0.0
O236 O 0.70808 0.66093 0.64345 0.0
O237 O 0.72655 0.66189 0.61389 0.0
Co238 Co 0.59847 0.46127 0.83871 0.0
O239 O 0.61536 0.45586 0.82514 0.0
O240 O 0.598 0.44471 0.81355 0.0
C241 C 0.6034 0.46832 0.90051 0.0
O242 O 0.57947 0.46344 0.84933 0.0
Co243 Co 0.59227 0.4894 0.86013 0.0
O244 O 0.57606 0.48218 0.87926 0.0
C245 C 0.5971 0.48191 0.77607 0.0
C246 C 0.61026 0.44566 0.81063 0.0
C247 C 0.5722 0.47136 0.86763 0.0
O248 O 0.59707 0.47003 0.78516 0.0
O249 O 0.59625 0.4908 0.80193 0.0
O250 O 0.60103 0.45633 0.8951 0.0
O251 O 0.60338 0.47519 0.86884 0.0
Co252 Co 0.79988 0.35116 0.08982 0.0
O253 O 0.80571 0.3684 0.08379 0.0
O254 O 0.81649 0.3514 0.06534 0.0
C255 C 0.79243 0.35269 0.15301 0.0
O256 O 0.7973 0.33197 0.09197 0.0
Co257 Co 0.7712 0.34533 0.10324 0.0
O258 O 0.77727 0.32772 0.11084 0.0
C259 C 0.78004 0.35533 0.02653 0.0
C260 C 0.81579 0.36368 0.06715 0.0
C261 C 0.78848 0.32415 0.10224 0.0
O262 O 0.79152 0.35231 0.03552 0.0
O263 O 0.77088 0.35473 0.05148 0.0
O264 O 0.80452 0.35107 0.14708 0.0
O265 O 0.78582 0.35466 0.12136 0.0
Co266 Co 0.91211 0.54928 0.34406 0.0
O267 O 0.89532 0.55543 0.33281 0.0
O268 O 0.91303 0.56543 0.31651 0.0
C269 C 0.90795 0.54332 0.40743 0.0
O270 O 0.9311 0.54626 0.35162 0.0
Co271 Co 0.91718 0.52116 0.36784 0.0
O272 O 0.93433 0.52747 0.38158 0.0
C273 C 0.90978 0.52791 0.28517 0.0
C274 C 0.9007 0.56512 0.31592 0.0
C275 C 0.93839 0.53809 0.36868 0.0
O276 O 0.91198 0.53975 0.2918 0.0
O277 O 0.9102 0.51943 0.31254 0.0
O278 O 0.91089 0.55508 0.40001 0.0
O279 O 0.90703 0.53606 0.37686 0.0
Co280 Co 0.70995 0.34981 0.57076 0.0
O281 O 0.7047 0.36669 0.58512 0.0
O282 O 0.6933 0.34939 0.5953 0.0
C283 C 0.71733 0.35498 0.50945 0.0
O284 O 0.71185 0.33085 0.55928 0.0
Co285 Co 0.73803 0.34322 0.54962 0.0
O286 O 0.73066 0.32714 0.53007 0.0
C287 C 0.73035 0.34759 0.63382 0.0
C288 C 0.69439 0.36161 0.59901 0.0
C289 C 0.71972 0.32346 0.54124 0.0
O290 O 0.7185 0.34794 0.62448 0.0
O291 O 0.73929 0.3467 0.60812 0.0
O292 O 0.70528 0.35277 0.51434 0.0
O293 O 0.72407 0.35467 0.54133 0.0
Co294 Co 0.91333 0.46145 0.82457 0.0
O295 O 0.89596 0.45617 0.83208 0.0
O296 O 0.91276 0.44527 0.85169 0.0
C297 C 0.91172 0.46784 0.7603 0.0
O298 O 0.9326 0.46342 0.82141 0.0
Co299 Co 0.91997 0.48972 0.80576 0.0
O300 O 0.93756 0.48331 0.80277 0.0
C301 C 0.91075 0.48252 0.88536 0.0
C302 C 0.9005 0.44622 0.85001 0.0
C303 C 0.94074 0.47202 0.81173 0.0
O304 O 0.9126 0.47072 0.87744 0.0
O305 O 0.91179 0.49131 0.85919 0.0
O306 O 0.91306 0.45584 0.76828 0.0
O307 O 0.91011 0.47508 0.79074 0.0
Co308 Co 0.80146 0.65852 0.06874 0.0
O309 O 0.80777 0.64177 0.07985 0.0
O310 O 0.81801 0.65956 0.09349 0.0
C311 C 0.79431 0.65433 0.00653 0.0
O312 O 0.79827 0.67745 0.06107 0.0
Co313 Co 0.77283 0.66331 0.05044 0.0
O314 O 0.77862 0.68072 0.03727 0.0
C315 C 0.78125 0.65601 0.13133 0.0
C316 C 0.81768 0.64725 0.09509 0.0
C317 C 0.78957 0.68478 0.04712 0.0
O318 O 0.79284 0.65869 0.1226 0.0
O319 O 0.7723 0.6559 0.1055 0.0
O320 O 0.80624 0.65706 0.01179 0.0
O321 O 0.78768 0.65342 0.03854 0.0
Co322 Co 0.60287 0.55067 0.32006 0.0
O323 O 0.62012 0.55668 0.32406 0.0
O324 O 0.6032 0.56723 0.34447 0.0
C325 C 0.60364 0.54324 0.2568 0.0
O326 O 0.58372 0.54799 0.32043 0.0
Co327 Co 0.59696 0.52197 0.30757 0.0
O328 O 0.57907 0.52771 0.3059 0.0
C329 C 0.60769 0.53083 0.38313 0.0
C330 C 0.61546 0.56669 0.34126 0.0
C331 C 0.57571 0.53903 0.31379 0.0
O332 O 0.60465 0.54231 0.37422 0.0
O333 O 0.60689 0.52166 0.3583 0.0
O334 O 0.60206 0.55532 0.2629 0.0
O335 O 0.60604 0.53661 0.28815 0.0
Co336 Co 0.30029 0.35185 0.56839 0.0
O337 O 0.30658 0.36867 0.57836 0.0
O338 O 0.31675 0.351 0.59383 0.0
C339 C 0.29342 0.35578 0.50575 0.0
O340 O 0.29715 0.33285 0.56197 0.0
Co341 Co 0.2718 0.34679 0.54895 0.0
O342 O 0.2777 0.32938 0.53684 0.0
C343 C 0.27979 0.3548 0.62967 0.0
C344 C 0.31644 0.36332 0.59428 0.0
C345 C 0.28858 0.32541 0.54773 0.0
O346 O 0.29143 0.35209 0.62184 0.0
O347 O 0.27098 0.35459 0.60338 0.0
O348 O 0.30529 0.35294 0.51155 0.0
O349 O 0.28663 0.35679 0.53738 0.0
Co350 Co 0.41403 0.54975 0.32166 0.0
O351 O 0.39673 0.55553 0.32683 0.0
O352 O 0.41355 0.56564 0.35013 0.0
C353 C 0.41317 0.54394 0.25678 0.0
O354 O 0.43324 0.54736 0.32142 0.0
Co355 Co 0.4205 0.52158 0.30137 0.0
O356 O 0.43829 0.52751 0.30296 0.0
C357 C 0.41073 0.52819 0.38098 0.0
C358 C 0.40131 0.56516 0.3463 0.0
C359 C 0.44143 0.53869 0.31333 0.0
O360 O 0.41236 0.54008 0.37369 0.0
O361 O 0.41216 0.51956 0.35454 0.0
O362 O 0.41475 0.55583 0.26585 0.0
O363 O 0.41099 0.53647 0.28635 0.0
Co364 Co 0.21014 0.66351 0.07077 0.0
O365 O 0.20485 0.6462 0.08053 0.0
O366 O 0.19369 0.66324 0.09609 0.0
C367 C 0.21742 0.66073 0.00767 0.0
O368 O 0.21179 0.68275 0.06422 0.0
Co369 Co 0.23826 0.67078 0.05342 0.0
O370 O 0.23091 0.68734 0.03836 0.0
C371 C 0.23055 0.66346 0.13473 0.0
C372 C 0.19466 0.65097 0.09638 0.0
C373 C 0.21976 0.69058 0.04857 0.0
O374 O 0.21874 0.6639 0.12494 0.0
O375 O 0.23959 0.66482 0.10963 0.0
O376 O 0.20531 0.6621 0.01385 0.0
O377 O 0.22426 0.6599 0.03934 0.0
Co378 Co 0.10233 0.46076 0.82003 0.0
O379 O 0.11963 0.45502 0.82522 0.0
O380 O 0.10272 0.44402 0.84345 0.0
C381 C 0.10359 0.46865 0.75732 0.0
O382 O 0.08312 0.46312 0.81859 0.0
Co383 Co 0.09607 0.48944 0.80871 0.0
O384 O 0.07843 0.48328 0.80252 0.0
C385 C 0.10657 0.48021 0.88425 0.0
C386 C 0.11499 0.44481 0.84138 0.0
C387 C 0.0751 0.47191 0.80997 0.0
O388 O 0.10355 0.46877 0.87479 0.0
O389 O 0.10579 0.48951 0.85984 0.0
O390 O 0.10213 0.45651 0.76254 0.0
O391 O 0.10557 0.4751 0.78929 0.0
Co392 Co 0.29922 0.65758 0.59029 0.0
O393 O 0.30571 0.64078 0.58058 0.0
O394 O 0.3154 0.65855 0.56316 0.0
C395 C 0.29292 0.65383 0.65369 0.0
O396 O 0.29601 0.67658 0.59627 0.0
Co397 Co 0.27095 0.66262 0.61223 0.0
O398 O 0.27693 0.68005 0.62391 0.0
C399 C 0.27813 0.65468 0.5306 0.0
C400 C 0.31533 0.64623 0.56346 0.0
C401 C 0.28765 0.68403 0.61157 0.0
O402 O 0.28991 0.65706 0.5376 0.0
O403 O 0.26953 0.65511 0.55755 0.0
O404 O 0.30471 0.65679 0.64676 0.0
O405 O 0.28587 0.65264 0.62272 0.0
Co406 Co 0.10053 0.55022 0.33866 0.0
O407 O 0.11733 0.55622 0.3258 0.0
O408 O 0.0996 0.56638 0.3112 0.0
C409 C 0.10527 0.54401 0.40154 0.0
O410 O 0.08155 0.54751 0.34827 0.0
Co411 Co 0.09503 0.52219 0.36308 0.0
O412 O 0.07847 0.52906 0.38044 0.0
C413 C 0.10004 0.52886 0.2784 0.0
C414 C 0.1119 0.56598 0.30953 0.0
C415 C 0.07438 0.53962 0.3672 0.0
O416 O 0.09978 0.54082 0.28615 0.0
O417 O 0.09922 0.52023 0.30521 0.0
O418 O 0.10251 0.55584 0.39465 0.0
O419 O 0.10569 0.53682 0.37069 0.0
Co420 Co 0.21112 0.34637 0.08713 0.0
O421 O 0.20719 0.36377 0.07433 0.0
O422 O 0.19452 0.34747 0.06284 0.0
C423 C 0.21892 0.34982 0.14913 0.0
O424 O 0.21151 0.32719 0.097 0.0
Co425 Co 0.23873 0.33745 0.10468 0.0
O426 O 0.23017 0.32212 0.12521 0.0
C427 C 0.2311 0.34395 0.02252 0.0
C428 C 0.19654 0.35959 0.05996 0.0
C429 C 0.21889 0.31931 0.11501 0.0
O430 O 0.21934 0.34446 0.03282 0.0
O431 O 0.24015 0.34228 0.04736 0.0
O432 O 0.20672 0.34914 0.14382 0.0
O433 O 0.22562 0.34956 0.11704 0.0
Co434 Co 0.41022 0.46183 0.84284 0.0
O435 O 0.39348 0.45551 0.83161 0.0
O436 O 0.4113 0.4456 0.81611 0.0
C437 C 0.40613 0.46805 0.90599 0.0
O438 O 0.42917 0.46499 0.85043 0.0
Co439 Co 0.41511 0.4901 0.86479 0.0
O440 O 0.43231 0.484 0.87891 0.0
C441 C 0.40799 0.48289 0.78239 0.0
C442 C 0.39898 0.44583 0.81511 0.0
C443 C 0.43642 0.47331 0.86687 0.0
O444 O 0.41014 0.47111 0.78998 0.0
O445 O 0.40832 0.49155 0.80915 0.0
O446 O 0.40904 0.45626 0.89906 0.0
O447 O 0.40508 0.47517 0.87504 0.0
C448 C 0.1126 0.08528 0.88582 0.0
C449 C 0.11772 0.07369 0.87282 0.0
C450 C 0.12008 0.09391 0.90728 0.0
C451 C 0.14787 0.09495 0.9728 0.0
H452 H 0.15078 0.13036 0.94323 0.0
C453 C 0.18792 0.12598 0.03479 0.0
C454 C 0.18554 0.13878 0.04322 0.0
C455 C 0.17884 0.11858 0.01539 0.0
C456 C 0.14992 0.12055 0.95236 0.0
H457 H 0.13472 0.06214 0.87184 0.0
H458 H 0.14762 0.07705 0.90951 0.0
H459 H 0.13616 0.11657 0.90676 0.0
H460 H 0.17172 0.15388 0.03802 0.0
H461 H 0.15569 0.14085 0.00489 0.0
H462 H 0.16145 0.0988 0.01852 0.0
C463 C 0.13785 0.07948 0.90319 0.0
C464 C 0.14157 0.11266 0.93136 0.0
C465 C 0.13047 0.07097 0.88138 0.0
C466 C 0.17384 0.14403 0.03188 0.0
C467 C 0.16468 0.13658 0.01267 0.0
C468 C 0.15609 0.10283 -0.00599 0.0
C469 C 0.13274 0.09099 0.91664 0.0
C470 C 0.14067 0.09972 0.94087 0.0
C471 C 0.16707 0.12373 0.00421 0.0
C472 C 0.15746 0.11568 0.98355 0.0
H473 H 0.10281 0.08764 0.87965 0.0
H474 H 0.1159 0.10271 0.91737 0.0
H475 H 0.14719 0.08506 0.98128 0.0
H476 H 0.19688 0.12167 0.04277 0.0
H477 H 0.18117 0.10882 0.00862 0.0
C478 C 0.13304 0.93778 0.29809 0.0
C479 C 0.11998 0.93545 0.30165 0.0
C480 C 0.14083 0.92937 0.27725 0.0
C481 C 0.1441 0.89682 0.24123 0.0
H482 H 0.16558 0.91203 0.16023 0.0
C483 C 0.17503 0.86658 0.13373 0.0
C484 C 0.18698 0.87146 0.12342 0.0
C485 C 0.16633 0.87401 0.15501 0.0
C486 C 0.15981 0.9076 0.18309 0.0
H487 H 0.10493 0.92219 0.28757 0.0
H488 H 0.11866 0.90732 0.25169 0.0
H489 H 0.15171 0.92539 0.20008 0.0
H490 H 0.19929 0.88785 0.12801 0.0
H491 H 0.18441 0.90058 0.16598 0.0
H492 H 0.15246 0.87906 0.22509 0.0
C493 C 0.12281 0.91573 0.26485 0.0
C494 C 0.15181 0.91528 0.20581 0.0
C495 C 0.11496 0.92425 0.28529 0.0
C496 C 0.1901 0.88385 0.13506 0.0
C497 C 0.1815 0.8912 0.15668 0.0
C498 C 0.15226 0.88912 0.21882 0.0
C499 C 0.13577 0.91836 0.25991 0.0
C500 C 0.14396 0.91 0.23533 0.0
C501 C 0.16946 0.88643 0.16681 0.0
C502 C 0.16032 0.89444 0.18966 0.0
H503 H 0.13721 0.94631 0.31034 0.0
H504 H 0.15081 0.93155 0.27429 0.0
H505 H 0.13816 0.89252 0.26389 0.0
H506 H 0.17235 0.85706 0.12511 0.0
H507 H 0.15711 0.87004 0.16178 0.0
C508 C 0.37691 0.93875 0.38244 0.0
C509 C 0.38963 0.93621 0.37297 0.0
C510 C 0.36979 0.93012 0.40491 0.0
C511 C 0.36699 0.89674 0.43307 0.0
H512 H 0.34786 0.90968 0.52314 0.0
C513 C 0.33739 0.86348 0.53565 0.0
C514 C 0.32576 0.86818 0.54977 0.0
C515 C 0.346 0.8715 0.51609 0.0
C516 C 0.35297 0.90588 0.49779 0.0
H517 H 0.40478 0.92247 0.37892 0.0
H518 H 0.39218 0.90722 0.41754 0.0
H519 H 0.36098 0.92402 0.48391 0.0
H520 H 0.31407 0.88499 0.55431 0.0
H521 H 0.32875 0.8988 0.5194 0.0
H522 H 0.35866 0.87868 0.44589 0.0
C523 C 0.38779 0.91596 0.40775 0.0
C524 C 0.36056 0.91413 0.47542 0.0
C525 C 0.395 0.92471 0.38577 0.0
C526 C 0.32299 0.88107 0.54418 0.0
C527 C 0.3315 0.88904 0.52428 0.0
C528 C 0.35924 0.88849 0.45512 0.0
C529 C 0.37515 0.91866 0.41797 0.0
C530 C 0.36756 0.90969 0.4426 0.0
C531 C 0.34313 0.8844 0.50981 0.0
C532 C 0.352 0.89297 0.48759 0.0
H533 H 0.37249 0.94753 0.3731 0.0
H534 H 0.36004 0.9324 0.41196 0.0
H535 H 0.37223 0.89306 0.40777 0.0
H536 H 0.33982 0.85358 0.53955 0.0
H537 H 0.35492 0.86759 0.50599 0.0
C538 C 0.39575 0.08658 0.77923 0.0
C539 C 0.39037 0.07518 0.79294 0.0
C540 C 0.3885 0.09524 0.75705 0.0
C541 C 0.36119 0.09665 0.68994 0.0
H542 H 0.35905 0.13224 0.71761 0.0
C543 C 0.32328 0.12895 0.6198 0.0
C544 C 0.3259 0.14186 0.61367 0.0
C545 C 0.33189 0.12118 0.64001 0.0
C546 C 0.35969 0.12239 0.70889 0.0
H547 H 0.37314 0.06397 0.7943 0.0
H548 H 0.36063 0.07892 0.75508 0.0
H549 H 0.37277 0.11818 0.7563 0.0
H550 H 0.33978 0.15667 0.62323 0.0
H551 H 0.35506 0.14302 0.65726 0.0
H552 H 0.34842 0.10074 0.64213 0.0
C553 C 0.37042 0.08119 0.76159 0.0
C554 C 0.36753 0.11432 0.73127 0.0
C555 C 0.37758 0.07267 0.78426 0.0
C556 C 0.33747 0.14677 0.62756 0.0
C557 C 0.34618 0.13894 0.64739 0.0
C558 C 0.35353 0.10472 0.66721 0.0
C559 C 0.37581 0.09253 0.74753 0.0
C560 C 0.36818 0.10133 0.72244 0.0
C561 C 0.34347 0.12603 0.65422 0.0
C562 C 0.35245 0.11767 0.67676 0.0
H563 H 0.40557 0.08879 0.78546 0.0
H564 H 0.3929 0.10389 0.74651 0.0
H565 H 0.36167 0.08672 0.682 0.0
H566 H 0.3144 0.12487 0.60989 0.0
H567 H 0.32925 0.11141 0.64531 0.0
C568 C 0.83724 0.86328 0.12706 0.0
C569 C 0.82567 0.86819 0.1132 0.0
C570 C 0.8458 0.871 0.14791 0.0
C571 C 0.8527 0.90507 0.17116 0.0
H572 H 0.87181 0.89088 0.25952 0.0
C573 C 0.87698 0.93638 0.2894 0.0
C574 C 0.88985 0.93388 0.29674 0.0
C575 C 0.86961 0.92788 0.26732 0.0
C576 C 0.86659 0.89494 0.23476 0.0
H577 H 0.81402 0.88508 0.11045 0.0
H578 H 0.82859 0.89835 0.14763 0.0
H579 H 0.85827 0.87711 0.21927 0.0
H580 H 0.90495 0.92025 0.28797 0.0
H581 H 0.89193 0.9052 0.25017 0.0
H582 H 0.86071 0.92297 0.18769 0.0
C583 C 0.83135 0.88867 0.14155 0.0
C584 C 0.85887 0.88704 0.21146 0.0
C585 C 0.82291 0.88101 0.12032 0.0
C586 C 0.89506 0.92244 0.28283 0.0
C587 C 0.88762 0.91382 0.26125 0.0
C588 C 0.86024 0.91296 0.19481 0.0
C589 C 0.84292 0.8838 0.15582 0.0
C590 C 0.85171 0.89202 0.17949 0.0
C591 C 0.87488 0.91659 0.25258 0.0
C592 C 0.86719 0.90801 0.22704 0.0
H593 H 0.83966 0.85344 0.12198 0.0
H594 H 0.85467 0.86692 0.15776 0.0
H595 H 0.84766 0.90925 0.14626 0.0
H596 H 0.87267 0.94511 0.29958 0.0
H597 H 0.85979 0.93019 0.26146 0.0
C598 C 0.87766 0.07352 0.87291 0.0
C599 C 0.89061 0.07568 0.86606 0.0
C600 C 0.87037 0.08228 0.89407 0.0
C601 C 0.87293 0.1095 0.96449 0.0
H602 H 0.83732 0.1131 0.93836 0.0
C603 C 0.83815 0.14651 0.03563 0.0
C604 C 0.82657 0.14141 0.04897 0.0
C605 C 0.84673 0.13901 0.01406 0.0
C606 C 0.84724 0.11215 0.94609 0.0
H607 H 0.90603 0.0889 0.87553 0.0
H608 H 0.89319 0.10447 0.91141 0.0
H609 H 0.85074 0.09968 0.89714 0.0
H610 H 0.81505 0.1244 0.05082 0.0
H611 H 0.82988 0.11145 0.01262 0.0
H612 H 0.8693 0.12232 0.01306 0.0
C613 C 0.88872 0.09583 0.90121 0.0
C614 C 0.85495 0.1044 0.92259 0.0
C615 C 0.89607 0.08696 0.88034 0.0
C616 C 0.82389 0.12861 0.04108 0.0
C617 C 0.83234 0.12121 0.01899 0.0
C618 C 0.86521 0.11744 0.98768 0.0
C619 C 0.87576 0.09357 0.90859 0.0
C620 C 0.86786 0.10273 0.93188 0.0
C621 C 0.84377 0.12637 0.00482 0.0
C622 C 0.85224 0.11863 0.97913 0.0
H623 H 0.87317 0.06487 0.86273 0.0
H624 H 0.86054 0.07999 0.89982 0.0
H625 H 0.88276 0.10839 0.97293 0.0
H626 H 0.84048 0.15634 0.04126 0.0
H627 H 0.85547 0.14322 0.00343 0.0
C628 C 0.67404 0.1471 0.63186 0.0
C629 C 0.68568 0.1419 0.61969 0.0
C630 C 0.66493 0.13952 0.65096 0.0
C631 C 0.65626 0.10565 0.66764 0.0
H632 H 0.63676 0.11875 0.75677 0.0
C633 C 0.63045 0.07287 0.77785 0.0
C634 C 0.61786 0.07582 0.78788 0.0
C635 C 0.6379 0.08146 0.75647 0.0
C636 C 0.64204 0.11501 0.73165 0.0
H637 H 0.69694 0.12473 0.61854 0.0
H638 H 0.68131 0.11168 0.65239 0.0
H639 H 0.6513 0.13277 0.72072 0.0
H640 H 0.60331 0.09026 0.78404 0.0
H641 H 0.61649 0.10543 0.747 0.0
H642 H 0.64728 0.08784 0.67928 0.0
C643 C 0.67899 0.12149 0.64641 0.0
C644 C 0.65036 0.12304 0.71089 0.0
C645 C 0.68803 0.12902 0.62716 0.0
C646 C 0.61297 0.0877 0.7767 0.0
C647 C 0.62052 0.0964 0.75564 0.0
C648 C 0.64807 0.09764 0.68857 0.0
C649 C 0.66729 0.1266 0.65845 0.0
C650 C 0.65773 0.11841 0.67897 0.0
C651 C 0.63302 0.09329 0.74487 0.0
C652 C 0.64101 0.10216 0.72117 0.0
H653 H 0.67194 0.157 0.62651 0.0
H654 H 0.65599 0.14377 0.65944 0.0
H655 H 0.66149 0.10181 0.6426 0.0
H656 H 0.63452 0.06381 0.786 0.0
H657 H 0.64755 0.07885 0.7491 0.0
C658 C 0.61435 0.92401 0.37446 0.0
C659 C 0.61908 0.93563 0.36017 0.0
C660 C 0.62229 0.91557 0.39496 0.0
C661 C 0.65095 0.91547 0.45662 0.0
H662 H 0.65257 0.87946 0.43452 0.0
C663 C 0.68968 0.88423 0.52645 0.0
C664 C 0.6867 0.87173 0.53747 0.0
C665 C 0.68104 0.89158 0.5049 0.0
C666 C 0.6521 0.88946 0.44154 0.0
H667 H 0.63592 0.94733 0.3553 0.0
H668 H 0.64966 0.93269 0.39122 0.0
H669 H 0.63814 0.89291 0.39611 0.0
H670 H 0.67226 0.85715 0.53466 0.0
H671 H 0.65699 0.87011 0.49798 0.0
H672 H 0.66465 0.91214 0.5024 0.0
C673 C 0.63983 0.93012 0.38676 0.0
C674 C 0.64386 0.89716 0.41939 0.0
C675 C 0.63196 0.93848 0.36595 0.0
C676 C 0.67484 0.86675 0.52656 0.0
C677 C 0.66612 0.87416 0.50526 0.0
C678 C 0.65906 0.90778 0.479 0.0
C679 C 0.63505 0.91866 0.40199 0.0
C680 C 0.64334 0.91028 0.42635 0.0
C681 C 0.66911 0.88669 0.49415 0.0
C682 C 0.65991 0.8947 0.47144 0.0
H683 H 0.60447 0.92155 0.37046 0.0
H684 H 0.61834 0.90681 0.40645 0.0
H685 H 0.65057 0.9255 0.46322 0.0
H686 H 0.69878 0.88831 0.53401 0.0
H687 H 0.68383 0.90106 0.49619 0.0
C688 C 0.67579 0.64745 0.52842 0.0
C689 C 0.68812 0.6434 0.53793 0.0
C690 C 0.66761 0.6396 0.50661 0.0
C691 C 0.66791 0.61327 0.43474 0.0
H692 H 0.63303 0.60799 0.4671 0.0
C693 C 0.6368 0.57436 0.36345 0.0
C694 C 0.62373 0.57649 0.35936 0.0
C695 C 0.64446 0.58306 0.3837 0.0
C696 C 0.64268 0.60951 0.45714 0.0
H697 H 0.70147 0.62789 0.53229 0.0
H698 H 0.68725 0.61429 0.49405 0.0
H699 H 0.64658 0.6221 0.50593 0.0
H700 H 0.60851 0.58965 0.37227 0.0
H701 H 0.62192 0.60504 0.40644 0.0
H702 H 0.66405 0.60089 0.38568 0.0
C703 C 0.68392 0.62353 0.50334 0.0
C704 C 0.65046 0.61757 0.47958 0.0
C705 C 0.69203 0.6313 0.52551 0.0
C706 C 0.61855 0.5877 0.37504 0.0
C707 C 0.62624 0.59648 0.39497 0.0
C708 C 0.66011 0.60533 0.41207 0.0
C709 C 0.67164 0.62762 0.4934 0.0
C710 C 0.6632 0.61943 0.46888 0.0
C711 C 0.63928 0.59421 0.40007 0.0
C712 C 0.64741 0.60321 0.42316 0.0
H713 H 0.67249 0.65672 0.53754 0.0
H714 H 0.65822 0.64304 0.49925 0.0
H715 H 0.67763 0.61468 0.42532 0.0
H716 H 0.64107 0.56577 0.35203 0.0
H717 H 0.6544 0.58083 0.38748 0.0
C718 C 0.61294 0.42431 0.77784 0.0
C719 C 0.61812 0.43591 0.79051 0.0
C720 C 0.62054 0.4153 0.75837 0.0
C721 C 0.65449 0.40692 0.74129 0.0
H722 H 0.6415 0.38763 0.65163 0.0
C723 C 0.68746 0.38203 0.62986 0.0
C724 C 0.68473 0.36939 0.61986 0.0
C725 C 0.67876 0.3893 0.65136 0.0
C726 C 0.64521 0.39286 0.67688 0.0
H727 H 0.63528 0.44721 0.79204 0.0
H728 H 0.64833 0.4318 0.75755 0.0
H729 H 0.62736 0.40186 0.68832 0.0
H730 H 0.67055 0.35457 0.62381 0.0
H731 H 0.65518 0.36743 0.661 0.0
H732 H 0.67239 0.39823 0.72912 0.0
C733 C 0.63853 0.42941 0.76348 0.0
C734 C 0.63711 0.401 0.69802 0.0
C735 C 0.631 0.43832 0.7831 0.0
C736 C 0.67294 0.36427 0.63111 0.0
C737 C 0.66413 0.37164 0.65226 0.0
C738 C 0.66257 0.39893 0.71997 0.0
C739 C 0.63346 0.41774 0.75099 0.0
C740 C 0.6417 0.40831 0.73013 0.0
C741 C 0.66704 0.38418 0.66309 0.0
C742 C 0.65809 0.39195 0.68716 0.0
H743 H 0.60305 0.42217 0.78311 0.0
H744 H 0.61631 0.40639 0.74953 0.0
H745 H 0.65832 0.41209 0.76649 0.0
H746 H 0.69643 0.38628 0.62167 0.0
H747 H 0.6812 0.39898 0.65879 0.0
C748 C 0.87931 0.43987 0.87717 0.0
C749 C 0.8921 0.43692 0.87009 0.0
C750 C 0.87158 0.43159 0.89896 0.0
C751 C 0.86744 0.39858 0.92997 0.0
H752 H 0.84812 0.4129 0.01755 0.0
C753 C 0.83706 0.36697 0.03483 0.0
C754 C 0.82547 0.37195 0.0483 0.0
C755 C 0.8458 0.37468 0.0147 0.0
C756 C 0.85327 0.40873 -0.00712 0.0
H757 H 0.9067 0.42277 0.87927 0.0
H758 H 0.89306 0.40814 0.91661 0.0
H759 H 0.86177 0.42653 0.97756 0.0
H760 H 0.81398 0.38893 0.05114 0.0
H761 H 0.82891 0.40223 0.01513 0.0
H762 H 0.85866 0.38086 0.94421 0.0
C763 C 0.88908 0.41693 0.90553 0.0
C764 C 0.86116 0.41656 0.97006 0.0
C765 C 0.89688 0.42531 0.88426 0.0
C766 C 0.82288 0.38482 0.04155 0.0
C767 C 0.83151 0.39248 0.02099 0.0
C768 C 0.85939 0.39075 0.95242 0.0
C769 C 0.8764 0.42008 0.91365 0.0
C770 C 0.86827 0.4116 0.93824 0.0
C771 C 0.8431 0.38754 0.00708 0.0
C772 C 0.85212 0.39573 0.98409 0.0
H773 H 0.87533 0.44874 0.86675 0.0
H774 H 0.86181 0.43421 0.90441 0.0
H775 H 0.87276 0.39452 0.90545 0.0
H776 H 0.83935 0.35708 0.03967 0.0
H777 H 0.85468 0.37055 0.00517 0.0
C778 C 0.82512 0.6271 0.12629 0.0
C779 C 0.82753 0.63979 0.11607 0.0
C780 C 0.83384 0.6202 0.14891 0.0
C781 C 0.86692 0.61704 0.17655 0.0
H782 H 0.85356 0.59995 0.27023 0.0
C783 C 0.89859 0.58613 0.28068 0.0
C784 C 0.89305 0.57496 0.29552 0.0
C785 C 0.89121 0.59517 0.26058 0.0
C786 C 0.85746 0.60451 0.24395 0.0
H787 H 0.84118 0.65508 0.12046 0.0
H788 H 0.85666 0.64281 0.15935 0.0
H789 H 0.83973 0.61336 0.2303 0.0
H790 H 0.87545 0.56445 0.30048 0.0
H791 H 0.86276 0.57987 0.26476 0.0
H792 H 0.88453 0.60777 0.18914 0.0
C793 C 0.84792 0.63831 0.15006 0.0
C794 C 0.84952 0.61226 0.22123 0.0
C795 C 0.83906 0.64532 0.12792 0.0
C796 C 0.88001 0.57301 0.28982 0.0
C797 C 0.87269 0.58194 0.26949 0.0
C798 C 0.87485 0.60911 0.19901 0.0
C799 C 0.84526 0.62576 0.16135 0.0
C800 C 0.8541 0.61843 0.18695 0.0
C801 C 0.87814 0.59318 0.25467 0.0
C802 C 0.87015 0.60254 0.23261 0.0
H803 H 0.81633 0.62255 0.11772 0.0
H804 H 0.83162 0.61049 0.15686 0.0
H805 H 0.87066 0.62169 0.15016 0.0
H806 H 0.90862 0.58791 0.28464 0.0
H807 H 0.89572 0.60375 0.24996 0.0
C808 C 0.33767 0.36548 0.62799 0.0
C809 C 0.32639 0.371 0.61399 0.0
C810 C 0.34676 0.37285 0.64792 0.0
C811 C 0.35589 0.4066 0.66595 0.0
H812 H 0.37358 0.39299 0.7581 0.0
C813 C 0.37875 0.43842 0.78438 0.0
C814 C 0.39151 0.43607 0.79373 0.0
C815 C 0.37181 0.42978 0.76163 0.0
C816 C 0.36878 0.39685 0.73218 0.0
H817 H 0.31575 0.38853 0.6103 0.0
H818 H 0.33124 0.40119 0.64574 0.0
H819 H 0.35962 0.37923 0.719 0.0
H820 H 0.40689 0.4226 0.78765 0.0
H821 H 0.39455 0.40726 0.7485 0.0
H822 H 0.36464 0.42433 0.68023 0.0
C823 C 0.33336 0.3913 0.64045 0.0
C824 C 0.36082 0.38898 0.70963 0.0
C825 C 0.3244 0.384 0.62027 0.0
C826 C 0.39708 0.42468 0.78084 0.0
C827 C 0.39003 0.4159 0.75857 0.0
C828 C 0.36366 0.41447 0.68877 0.0
C829 C 0.3447 0.38587 0.65452 0.0
C830 C 0.35408 0.39382 0.67661 0.0
C831 C 0.3774 0.4185 0.74818 0.0
C832 C 0.37002 0.40975 0.72246 0.0
H833 H 0.33948 0.35548 0.62358 0.0
H834 H 0.35541 0.36835 0.65792 0.0
H835 H 0.35118 0.41061 0.64011 0.0
H836 H 0.37417 0.4471 0.79379 0.0
H837 H 0.36204 0.43195 0.75438 0.0
C838 C 0.32604 0.62554 0.54976 0.0
C839 C 0.32528 0.63867 0.54328 0.0
C840 C 0.33477 0.61817 0.52866 0.0
C841 C 0.36368 0.61993 0.46448 0.0
H842 H 0.35264 0.5864 0.43269 0.0
C843 C 0.39783 0.58325 0.3936 0.0
C844 C 0.39295 0.57468 0.36539 0.0
C845 C 0.3898 0.59159 0.41394 0.0
C846 C 0.35586 0.59579 0.44077 0.0
H847 H 0.33324 0.65441 0.51002 0.0
H848 H 0.34826 0.64151 0.4723 0.0
H849 H 0.33843 0.59986 0.47051 0.0
H850 H 0.37586 0.56849 0.3353 0.0
H851 H 0.36191 0.5833 0.36967 0.0
H852 H 0.38096 0.61598 0.43336 0.0
C853 C 0.34229 0.63691 0.4943 0.0
C854 C 0.34775 0.60347 0.46321 0.0
C855 C 0.33364 0.64431 0.51582 0.0
C856 C 0.37991 0.57491 0.35708 0.0
C857 C 0.37189 0.58335 0.37709 0.0
C858 C 0.37177 0.61227 0.44169 0.0
C859 C 0.34286 0.62369 0.50004 0.0
C860 C 0.35156 0.61562 0.47567 0.0
C861 C 0.37668 0.59168 0.40631 0.0
C862 C 0.36799 0.60006 0.42964 0.0
H863 H 0.31981 0.62092 0.571 0.0
H864 H 0.33512 0.6081 0.53475 0.0
H865 H 0.36702 0.62917 0.47374 0.0
H866 H 0.40784 0.58327 0.40085 0.0
H867 H 0.39386 0.59771 0.43653 0.0
C868 C 0.13243 0.57723 0.29722 0.0
C869 C 0.11945 0.57585 0.28879 0.0
C870 C 0.13977 0.58612 0.27651 0.0
C871 C 0.14245 0.60238 0.18117 0.0
H872 H 0.16436 0.62588 0.23744 0.0
C873 C 0.18437 0.62981 0.10787 0.0
C874 C 0.18497 0.64287 0.11587 0.0
C875 C 0.17555 0.6221 0.1277 0.0
C876 C 0.15825 0.6194 0.22135 0.0
H877 H 0.104 0.58269 0.252 0.0
H878 H 0.11698 0.59803 0.21491 0.0
H879 H 0.15046 0.61167 0.27541 0.0
H880 H 0.17678 0.65808 0.15087 0.0
H881 H 0.16164 0.64454 0.18627 0.0
H882 H 0.15054 0.60985 0.12712 0.0
C883 C 0.12138 0.59231 0.23792 0.0
C884 C 0.15035 0.61124 0.24305 0.0
C885 C 0.11396 0.58359 0.25928 0.0
C886 C 0.17652 0.64806 0.14393 0.0
C887 C 0.1679 0.64031 0.16435 0.0
C888 C 0.15054 0.61036 0.15947 0.0
C889 C 0.13437 0.59364 0.24632 0.0
C890 C 0.14238 0.60264 0.2232 0.0
C891 C 0.16735 0.62725 0.15654 0.0
C892 C 0.15853 0.61895 0.17935 0.0
H893 H 0.13693 0.57141 0.31981 0.0
H894 H 0.14977 0.5869 0.28344 0.0
H895 H 0.13646 0.59577 0.16514 0.0
H896 H 0.19074 0.62553 0.08638 0.0
H897 H 0.17538 0.61204 0.12127 0.0
C898 C 0.11823 0.42363 0.87425 0.0
C899 C 0.12329 0.43509 0.85981 0.0
C900 C 0.1259 0.41498 0.89487 0.0
C901 C 0.15446 0.41389 0.95687 0.0
H902 H 0.15444 0.37782 0.9353 0.0
C903 C 0.19113 0.38058 0.02945 0.0
C904 C 0.18753 0.36814 0.03921 0.0
C905 C 0.18297 0.38849 0.00797 0.0
C906 C 0.15443 0.38783 0.94223 0.0
H907 H 0.14044 0.4463 0.85493 0.0
H908 H 0.15376 0.43129 0.89121 0.0
H909 H 0.14086 0.39186 0.89614 0.0
H910 H 0.17241 0.35431 0.03466 0.0
H911 H 0.15797 0.36824 -0.00171 0.0
H912 H 0.16774 0.40997 0.00344 0.0
C913 C 0.14386 0.42901 0.88665 0.0
C914 C 0.14668 0.39588 0.91959 0.0
C915 C 0.13624 0.43757 0.86562 0.0
C916 C 0.17548 0.36385 0.02751 0.0
C917 C 0.16724 0.37182 0.00634 0.0
C918 C 0.16208 0.40585 0.9798 0.0
C919 C 0.13874 0.41769 0.90195 0.0
C920 C 0.14672 0.40902 0.92639 0.0
C921 C 0.1709 0.38424 -0.00398 0.0
C922 C 0.1623 0.39271 0.97257 0.0
H923 H 0.10828 0.42144 0.87026 0.0
H924 H 0.12168 0.40636 0.90642 0.0
H925 H 0.15452 0.42394 0.96333 0.0
H926 H 0.20039 0.38415 0.03767 0.0
H927 H 0.18627 0.39787 2e-05 0.0
C928 C 0.24766 0.16496 0.9778 0.0
C929 C 0.23563 0.16031 0.98831 0.0
C930 C 0.25245 0.16313 0.93955 0.0
C931 C 0.24359 0.15596 0.83618 0.0
H932 H 0.27929 0.14754 0.82699 0.0
C933 C 0.2662 0.14809 0.68342 0.0
C934 C 0.27726 0.15516 0.67625 0.0
C935 C 0.26167 0.14646 0.72215 0.0
C936 C 0.26933 0.14991 0.82913 0.0
H937 H 0.21898 0.15047 0.96652 0.0
H938 H 0.22746 0.14718 0.89907 0.0
H939 H 0.2696 0.14935 0.893 0.0
H940 H 0.29279 0.16526 0.70412 0.0
H941 H 0.28476 0.16255 0.77226 0.0
H942 H 0.24335 0.1567 0.77236 0.0
C943 C 0.23313 0.15228 0.92069 0.0
C944 C 0.26378 0.15097 0.86684 0.0
C945 C 0.22826 0.15418 0.95918 0.0
C946 C 0.28423 0.1598 0.70883 0.0
C947 C 0.27963 0.15822 0.74777 0.0
C948 C 0.24913 0.15485 0.79848 0.0
C949 C 0.24538 0.15654 0.91081 0.0
C950 C 0.25091 0.15425 0.87076 0.0
C951 C 0.26807 0.15192 0.75457 0.0
C952 C 0.26209 0.152 0.79459 0.0
H953 H 0.25349 0.16991 -0.00062 0.0
H954 H 0.26175 0.16687 0.93253 0.0
H955 H 0.2337 0.15862 0.83822 0.0
H956 H 0.26076 0.14416 0.6589 0.0
H957 H 0.25291 0.14129 0.72661 0.0
C958 C 0.10542 0.97703 0.20543 0.0
C959 C 0.1089 0.98442 0.23851 0.0
C960 C 0.1075 0.98155 0.16666 0.0
C961 C 0.10895 0.01196 0.1159 0.0
H962 H 0.11697 0.99181 0.02252 0.0
C963 C 0.10575 0.03193 0.95472 0.0
C964 C 0.10024 0.02371 0.92669 0.0
C965 C 0.10895 0.0275 -0.00714 0.0
C966 C 0.11467 0.99755 0.04836 0.0
H967 H 0.11851 1.00164 0.25711 0.0
H968 H 0.12218 0.00941 0.18965 0.0
H969 H 0.11958 0.98265 0.08909 0.0
H970 H 0.09328 1.00458 0.91712 0.0
H971 H 0.09851 0.99703 0.98344 0.0
H972 H 0.10353 0.02666 0.07537 0.0
C973 C 0.11756 1.00033 0.19359 0.0
C974 C 0.1162 0.99231 0.08637 0.0
C975 C 0.11545 0.99586 0.23217 0.0
C976 C 0.09766 0.01113 0.93784 0.0
C977 C 0.10078 0.00675 0.97578 0.0
C978 C 0.10735 0.01717 0.07792 0.0
C979 C 0.11315 0.99347 0.16054 0.0
C980 C 0.11311 0.99938 0.12045 0.0
C981 C 0.10663 0.0148 0.00353 0.0
C982 C 0.10988 0.00991 0.04374 0.0
H983 H 0.10041 0.96816 0.20944 0.0
H984 H 0.10397 0.97608 0.14165 0.0
H985 H 0.10634 0.01759 0.14167 0.0
H986 H 0.10792 0.04165 0.94684 0.0
H987 H 0.11346 0.03393 0.01367 0.0
C988 C 0.22918 0.85546 0.2029 0.0
C989 C 0.23667 0.84971 0.17333 0.0
C990 C 0.23402 0.85726 0.24142 0.0
C991 C 0.26459 0.8589 0.29564 0.0
H992 H 0.24403 0.85221 0.38929 0.0
C993 C 0.28466 0.84979 0.45402 0.0
C994 C 0.27749 0.85419 0.4865 0.0
C995 C 0.28019 0.85141 0.41497 0.0
C996 C 0.24984 0.85432 0.36342 0.0
H997 H 0.2548 0.84075 0.1614 0.0
H998 H 0.26304 0.84361 0.22838 0.0
H999 H 0.23461 0.85043 0.32313 0.0
H1000 H 0.26075 0.86483 0.50362 0.0
H1001 H 0.2531 0.86777 0.43574 0.0
H1002 H 0.27992 0.86246 0.3361 0.0
C1003 C 0.25363 0.84712 0.22169 0.0
C1004 C 0.24443 0.8533 0.32554 0.0
C1005 C 0.24885 0.84539 0.18335 0.0
C1006 C 0.26634 0.86108 0.47917 0.0
C1007 C 0.26193 0.86275 0.44035 0.0
C1008 C 0.27001 0.85987 0.33356 0.0
C1009 C 0.24638 0.85328 0.25095 0.0
C1010 C 0.2518 0.85538 0.29123 0.0
C1011 C 0.26855 0.85752 0.40799 0.0
C1012 C 0.26272 0.85745 0.36778 0.0
H1013 H 0.21977 0.85892 0.19594 0.0
H1014 H 0.22821 0.86206 0.2634 0.0
H1015 H 0.27045 0.86081 0.26973 0.0
H1016 H 0.29331 0.84448 0.45884 0.0
H1017 H 0.28548 0.84727 0.39051 0.0
C1018 C 0.40802 0.03249 0.71087 0.0
C1019 C 0.40667 0.02411 0.74333 0.0
C1020 C 0.40714 0.02801 0.67156 0.0
C1021 C 0.41091 0.99859 0.61365 0.0
H1022 H 0.39395 0.01728 0.52946 0.0
C1023 C 0.40589 0.97861 0.45349 0.0
C1024 C 0.40801 0.98722 0.42208 0.0
C1025 C 0.4048 0.98291 0.49292 0.0
C1026 C 0.39881 0.01199 0.55259 0.0
H1027 H 0.40273 1.00456 0.75973 0.0
H1028 H 0.4011 0.9969 0.69162 0.0
H1029 H 0.39376 0.02549 0.59764 0.0
H1030 H 0.41064 0.00715 0.40776 0.0
H1031 H 0.40896 0.01453 0.47608 0.0
H1032 H 0.41614 0.98519 0.56868 0.0
C1033 C 0.40312 0.00684 0.69644 0.0
C1034 C 0.3987 0.01671 0.59162 0.0
C1035 C 0.404 0.01128 0.73556 0.0
C1036 C 0.40895 1.00022 0.43105 0.0
C1037 C 0.40789 1.00449 0.47031 0.0
C1038 C 0.41105 0.99389 0.57465 0.0
C1039 C 0.40488 0.01509 0.66399 0.0
C1040 C 0.40479 0.01008 0.62255 0.0
C1041 C 0.40581 0.99591 0.50175 0.0
C1042 C 0.40507 1.00057 0.5436 0.0
H1043 H 0.41006 0.04242 0.71577 0.0
H1044 H 0.40861 0.0346 0.64713 0.0
H1045 H 0.41585 0.99335 0.63671 0.0
H1046 H 0.40506 0.96855 0.44766 0.0
H1047 H 0.40307 0.97607 0.51645 0.0
C1048 C 0.7663 0.8614 0.18265 0.0
C1049 C 0.77737 0.85441 0.17502 0.0
C1050 C 0.76188 0.86288 0.22154 0.0
C1051 C 0.76978 0.8591 0.32823 0.0
H1052 H 0.7342 0.85024 0.3377 0.0
C1053 C 0.74811 0.84428 0.47758 0.0
C1054 C 0.73606 0.84893 0.48772 0.0
C1055 C 0.75295 0.84599 0.43928 0.0
C1056 C 0.74408 0.85293 0.33557 0.0
H1057 H 0.79302 0.84431 0.20223 0.0
H1058 H 0.78516 0.84674 0.27065 0.0
H1059 H 0.74375 0.8523 0.27177 0.0
H1060 H 0.71943 0.85868 0.46529 0.0
H1061 H 0.72797 0.86176 0.39788 0.0
H1062 H 0.77014 0.85958 0.39212 0.0
C1063 C 0.77995 0.85112 0.2464 0.0
C1064 C 0.74956 0.85413 0.29782 0.0
C1065 C 0.78445 0.8497 0.2073 0.0
C1066 C 0.72873 0.85494 0.45824 0.0
C1067 C 0.73363 0.85672 0.41975 0.0
C1068 C 0.76429 0.85796 0.36602 0.0
C1069 C 0.76838 0.85734 0.25364 0.0
C1070 C 0.7625 0.85706 0.29378 0.0
C1071 C 0.74589 0.85246 0.41018 0.0
C1072 C 0.75143 0.85465 0.37007 0.0
H1073 H 0.76079 0.86538 0.15837 0.0
H1074 H 0.75311 0.86799 0.22636 0.0
H1075 H 0.77973 0.86153 0.32597 0.0
H1076 H 0.75393 0.83944 0.49948 0.0
H1077 H 0.76226 0.84226 0.43252 0.0
C1078 C 0.89422 0.01631 0.92975 0.0
C1079 C 0.90292 0.02621 0.92395 0.0
C1080 C 0.89189 0.01159 0.96788 0.0
C1081 C 0.89698 0.01735 0.07587 0.0
H1082 H 0.89631 0.98061 0.08101 0.0
C1083 C 0.89249 0.9921 0.22601 0.0
C1084 C 0.90108 0.98216 0.23258 0.0
C1085 C 0.89044 0.99674 0.1876 0.0
C1086 C 0.89651 0.99086 0.08009 0.0
H1087 H 0.91548 0.03946 0.95342 0.0
H1088 H 0.9117 0.03094 0.02047 0.0
H1089 H 0.89728 0.99112 0.01635 0.0
H1090 H 0.91363 0.96868 0.20416 0.0
H1091 H 0.9103 0.97698 0.13673 0.0
H1092 H 0.89688 0.01707 0.13968 0.0
C1093 C 0.90653 0.02695 -0.00447 0.0
C1094 C 0.8969 0.99691 0.04302 0.0
C1095 C 0.90873 0.03182 0.95722 0.0
C1096 C 0.90694 0.97633 0.19978 0.0
C1097 C 0.90501 0.98109 0.16123 0.0
C1098 C 0.89666 0.01129 0.11296 0.0
C1099 C 0.89835 0.01653 0.00103 0.0
C1100 C 0.89723 0.01023 0.0405 0.0
C1101 C 0.89707 0.99164 0.155 0.0
C1102 C 0.89652 0.99798 0.11548 0.0
H1103 H 0.88943 0.01199 0.90456 0.0
H1104 H 0.88526 1.00382 0.97124 0.0
H1105 H 0.89712 0.02761 0.07495 0.0
H1106 H 0.8877 0.99662 0.25085 0.0
H1107 H 0.88399 1.00462 0.18364 0.0
C1108 C 0.78468 0.15858 0.95361 0.0
C1109 C 0.77786 0.1537 0.9862 0.0
C1110 C 0.77999 0.15716 0.91477 0.0
C1111 C 0.7493 0.15396 0.86533 0.0
H1112 H 0.7695 0.15008 0.7694 0.0
C1113 C 0.72819 0.15584 0.70478 0.0
C1114 C 0.73552 0.16252 0.67674 0.0
C1115 C 0.73304 0.15335 0.74297 0.0
C1116 C 0.76374 0.15124 0.79598 0.0
H1117 H 0.76157 0.1424 0.00362 0.0
H1118 H 0.75355 0.13978 0.93601 0.0
H1119 H 0.77941 0.1473 0.83472 0.0
H1120 H 0.75324 0.17257 0.66737 0.0
H1121 H 0.76148 0.1685 0.73373 0.0
H1122 H 0.73372 0.15824 0.82668 0.0
C1123 C 0.76226 0.14502 0.94041 0.0
C1124 C 0.76942 0.14962 0.83329 0.0
C1125 C 0.76689 0.1465 0.97908 0.0
C1126 C 0.74745 0.1672 0.68812 0.0
C1127 C 0.75223 0.16478 0.72605 0.0
C1128 C 0.74363 0.15561 0.82801 0.0
C1129 C 0.76847 0.15077 0.90806 0.0
C1130 C 0.7623 0.15118 0.86835 0.0
C1131 C 0.74525 0.15756 0.75356 0.0
C1132 C 0.75086 0.15454 0.793 0.0
H1133 H 0.79317 0.16416 0.95829 0.0
H1134 H 0.78497 0.16172 0.89035 0.0
H1135 H 0.74359 0.15539 0.89187 0.0
H1136 H 0.71899 0.15209 0.6967 0.0
H1137 H 0.72744 0.14779 0.76369 0.0
C1138 C 0.60301 0.03347 0.70548 0.0
C1139 C 0.59585 0.02657 0.73345 0.0
C1140 C 0.60537 0.02838 0.66755 0.0
C1141 C 0.6062 0.99744 0.61592 0.0
H1142 H 0.60357 0.01742 0.51907 0.0
C1143 C 0.59864 0.97643 0.45847 0.0
C1144 C 0.60389 0.98303 0.42601 0.0
C1145 C 0.60018 0.98109 0.49732 0.0
C1146 C 0.60458 0.01175 0.5459 0.0
H1147 H 0.58482 0.00947 0.74296 0.0
H1148 H 0.58867 1.00083 0.67694 0.0
H1149 H 0.60083 0.02765 0.58367 0.0
H1150 H 0.61598 0.99873 0.40868 0.0
H1151 H 0.61887 0.00665 0.4763 0.0
H1152 H 0.60961 0.98146 0.57801 0.0
C1153 C 0.59284 0.00989 0.68452 0.0
C1154 C 0.60299 0.01763 0.58287 0.0
C1155 C 0.59055 0.01491 0.72221 0.0
C1156 C 0.6116 0.99363 0.4332 0.0
C1157 C 0.61322 0.99819 0.47185 0.0
C1158 C 0.60777 0.99155 0.57893 0.0
C1159 C 0.60056 0.01639 0.65718 0.0
C1160 C 0.60351 0.01048 0.61819 0.0
C1161 C 0.60708 0.99231 0.50407 0.0
C1162 C 0.60676 0.99861 0.54353 0.0
H1163 H 0.60725 0.04246 0.71352 0.0
H1164 H 0.61133 0.03361 0.64695 0.0
H1165 H 0.60692 0.99174 0.64278 0.0
H1166 H 0.59268 0.96822 0.45363 0.0
H1167 H 0.59531 0.97636 0.52165 0.0
C1168 C 0.72687 0.66131 0.45247 0.0
C1169 C 0.73378 0.66919 0.47836 0.0
C1170 C 0.73164 0.65847 0.41445 0.0
C1171 C 0.76222 0.65675 0.36231 0.0
H1172 H 0.74239 0.65727 0.26492 0.0
C1173 C 0.78411 0.65956 0.20476 0.0
C1174 C 0.77758 0.65374 0.17322 0.0
C1175 C 0.77909 0.65926 0.24344 0.0
C1176 C 0.74802 0.65684 0.29196 0.0
H1177 H 0.75045 0.68111 0.48375 0.0
H1178 H 0.75859 0.67633 0.41759 0.0
H1179 H 0.7321 0.66164 0.32871 0.0
H1180 H 0.76144 0.64197 0.15783 0.0
H1181 H 0.75287 0.64122 0.22529 0.0
H1182 H 0.77817 0.65214 0.32564 0.0
C1183 C 0.74974 0.67203 0.42692 0.0
C1184 C 0.74211 0.65938 0.32841 0.0
C1185 C 0.74502 0.67484 0.46467 0.0
C1186 C 0.76654 0.64677 0.18151 0.0
C1187 C 0.76159 0.64637 0.22007 0.0
C1188 C 0.76812 0.65417 0.32592 0.0
C1189 C 0.74335 0.66349 0.40199 0.0
C1190 C 0.74922 0.65965 0.36377 0.0
C1191 C 0.76754 0.65303 0.25112 0.0
C1192 C 0.76113 0.65442 0.29027 0.0
H1193 H 0.7182 0.65679 0.46238 0.0
H1194 H 0.7265 0.6519 0.39562 0.0
H1195 H 0.76787 0.65663 0.38934 0.0
H1196 H 0.79264 0.66499 0.19916 0.0
H1197 H 0.78387 0.66452 0.26677 0.0
C1198 C 0.61764 0.51617 0.43212 0.0
C1199 C 0.61107 0.52751 0.42458 0.0
C1200 C 0.6187 0.51149 0.47091 0.0
C1201 C 0.61405 0.51896 0.57777 0.0
H1202 H 0.60326 0.48383 0.58425 0.0
C1203 C 0.59472 0.49804 0.72251 0.0
C1204 C 0.59866 0.48586 0.73404 0.0
C1205 C 0.59752 0.50269 0.68463 0.0
C1206 C 0.60649 0.49357 0.58296 0.0
H1207 H 0.6014 0.54339 0.45197 0.0
H1208 H 0.60314 0.53513 0.52005 0.0
H1209 H 0.607 0.49349 0.51911 0.0
H1210 H 0.60817 0.46877 0.71436 0.0
H1211 H 0.61313 0.47697 0.64753 0.0
H1212 H 0.6133 0.51909 0.64163 0.0
C1213 C 0.60751 0.52989 0.49588 0.0
C1214 C 0.60865 0.49911 0.54568 0.0
C1215 C 0.60649 0.53462 0.45693 0.0
C1216 C 0.60498 0.47817 0.70619 0.0
C1217 C 0.60785 0.48289 0.66807 0.0
C1218 C 0.61192 0.5134 0.61505 0.0
C1219 C 0.61319 0.51804 0.50296 0.0
C1220 C 0.61224 0.51192 0.54269 0.0
C1221 C 0.60438 0.49531 0.65733 0.0
C1222 C 0.60784 0.50074 0.61797 0.0
H1223 H 0.62148 0.5106 0.40779 0.0
H1224 H 0.62341 0.50249 0.47562 0.0
H1225 H 0.61697 0.52879 0.57637 0.0
H1226 H 0.58965 0.50412 0.74309 0.0
H1227 H 0.59437 0.51214 0.67683 0.0
C1228 C 0.74613 0.34396 0.68753 0.0
C1229 C 0.73424 0.34868 0.676 0.0
C1230 C 0.75089 0.34637 0.72548 0.0
C1231 C 0.74236 0.35572 0.82725 0.0
H1232 H 0.77807 0.36438 0.83329 0.0
C1233 C 0.76566 0.36568 0.97768 0.0
C1234 C 0.77674 0.35868 0.98505 0.0
C1235 C 0.76097 0.36691 0.939 0.0
C1236 C 0.76811 0.36195 0.83205 0.0
H1237 H 0.71772 0.35914 0.69574 0.0
H1238 H 0.72613 0.36342 0.76276 0.0
H1239 H 0.76813 0.36127 0.76819 0.0
H1240 H 0.79216 0.34833 0.95752 0.0
H1241 H 0.78385 0.35035 0.88956 0.0
H1242 H 0.74237 0.35615 0.89109 0.0
C1243 C 0.73173 0.35784 0.74215 0.0
C1244 C 0.76241 0.36015 0.79486 0.0
C1245 C 0.7269 0.35536 0.70394 0.0
C1246 C 0.78359 0.35376 0.95265 0.0
C1247 C 0.77883 0.35494 0.91379 0.0
C1248 C 0.74804 0.35754 0.86445 0.0
C1249 C 0.74392 0.35362 0.75284 0.0
C1250 C 0.74955 0.35674 0.79213 0.0
C1251 C 0.76722 0.36112 0.90688 0.0
C1252 C 0.76103 0.36046 0.86724 0.0
H1253 H 0.75192 0.33859 0.66685 0.0
H1254 H 0.76014 0.34266 0.73326 0.0
H1255 H 0.73247 0.353 0.82609 0.0
H1256 H 0.7603 0.36979 0.00208 0.0
H1257 H 0.75217 0.372 0.93443 0.0
C1258 C 0.90828 0.53158 0.21093 0.0
C1259 C 0.90682 0.52357 0.24421 0.0
C1260 C 0.90625 0.52692 0.17229 0.0
C1261 C 0.90771 0.49712 0.11739 0.0
H1262 H 0.89064 0.51566 0.03313 0.0
C1263 C 0.9051 0.47756 0.95681 0.0
C1264 C 0.90776 0.48647 0.92668 0.0
C1265 C 0.90274 0.48158 -0.00403 0.0
C1266 C 0.89549 0.51039 0.05633 0.0
H1267 H 0.90133 0.5046 0.26306 0.0
H1268 H 0.89785 0.49662 0.1961 0.0
H1269 H 0.89094 0.52424 0.10092 0.0
H1270 H 0.90979 0.50659 0.91405 0.0
H1271 H 0.90605 0.51344 0.98179 0.0
H1272 H 0.91272 0.48353 0.07288 0.0
C1273 C 0.90078 0.50639 0.19976 0.0
C1274 C 0.89565 0.51531 0.09505 0.0
C1275 C 0.90278 0.51101 0.23814 0.0
C1276 C 0.90775 0.49943 0.93637 0.0
C1277 C 0.90547 0.50341 0.97531 0.0
C1278 C 0.90766 0.49226 0.07868 0.0
C1279 C 0.90274 0.5142 0.16644 0.0
C1280 C 0.9019 0.50879 0.1258 0.0
C1281 C 0.90304 0.49456 0.00567 0.0
C1282 C 0.90173 0.49894 0.04756 0.0
H1283 H 0.91131 0.54132 0.21461 0.0
H1284 H 0.90788 0.53313 0.14698 0.0
H1285 H 0.91272 0.49195 0.1405 0.0
H1286 H 0.90493 0.46752 0.95023 0.0
H1287 H 0.90075 0.47453 0.01868 0.0
C1288 C 0.26449 0.36416 0.67779 0.0
C1289 C 0.27594 0.35772 0.67101 0.0
C1290 C 0.25967 0.36538 0.71631 0.0
C1291 C 0.26713 0.36168 0.82353 0.0
H1292 H 0.23198 0.35106 0.83115 0.0
C1293 C 0.24675 0.34176 0.96762 0.0
C1294 C 0.23474 0.34583 0.98037 0.0
C1295 C 0.2512 0.34486 0.92978 0.0
C1296 C 0.24172 0.35426 0.82948 0.0
H1297 H 0.29179 0.34828 0.69944 0.0
H1298 H 0.28325 0.35023 0.76711 0.0
H1299 H 0.24155 0.35435 0.76563 0.0
H1300 H 0.21772 0.3559 0.96281 0.0
H1301 H 0.22555 0.3613 0.89578 0.0
H1302 H 0.26737 0.36125 0.88742 0.0
C1303 C 0.27805 0.35442 0.74251 0.0
C1304 C 0.24721 0.35616 0.79201 0.0
C1305 C 0.28293 0.35325 0.70381 0.0
C1306 C 0.227 0.3526 0.95369 0.0
C1307 C 0.23149 0.35573 0.91551 0.0
C1308 C 0.26163 0.3598 0.86097 0.0
C1309 C 0.26617 0.36014 0.7489 0.0
C1310 C 0.26005 0.35961 0.78867 0.0
C1311 C 0.24376 0.35212 0.90368 0.0
C1312 C 0.24898 0.35573 0.86425 0.0
H1313 H 0.25901 0.36795 0.65313 0.0
H1314 H 0.25065 0.3701 0.72046 0.0
H1315 H 0.27697 0.36455 0.82184 0.0
H1316 H 0.25288 0.33636 0.98724 0.0
H1317 H 0.26053 0.34162 0.92102 0.0
C1318 C 0.40458 0.53269 0.45229 0.0
C1319 C 0.40764 0.52398 0.42206 0.0
C1320 C 0.40226 0.52849 0.49132 0.0
C1321 C 0.39583 0.49929 0.55112 0.0
H1322 H 0.41151 0.51847 0.63653 0.0
C1323 C 0.40731 0.47888 0.70821 0.0
C1324 C 0.40529 0.48698 0.74093 0.0
C1325 C 0.40565 0.48336 0.66912 0.0
C1326 C 0.40694 0.51308 0.61307 0.0
H1327 H 0.41046 0.50399 0.40915 0.0
H1328 H 0.40679 0.49681 0.47673 0.0
H1329 H 0.41187 0.52681 0.56876 0.0
H1330 H 0.39912 0.50585 0.75825 0.0
H1331 H 0.39624 0.51351 0.69054 0.0
H1332 H 0.39132 0.48534 0.59559 0.0
C1333 C 0.40586 0.50683 0.47039 0.0
C1334 C 0.40709 0.51789 0.57423 0.0
C1335 C 0.40808 0.511 0.43154 0.0
C1336 C 0.40102 0.49941 0.7338 0.0
C1337 C 0.39936 0.50384 0.69497 0.0
C1338 C 0.39578 0.49442 0.58998 0.0
C1339 C 0.40303 0.51551 0.50086 0.0
C1340 C 0.40169 0.51098 0.54269 0.0
C1341 C 0.40193 0.49597 0.66224 0.0
C1342 C 0.40143 0.50123 0.62124 0.0
H1343 H 0.40408 0.54275 0.44591 0.0
H1344 H 0.39995 0.5354 0.51406 0.0
H1345 H 0.39139 0.49382 0.5276 0.0
H1346 H 0.41054 0.46925 0.7127 0.0
H1347 H 0.40773 0.4771 0.64433 0.0
C1348 C 0.26191 0.6464 0.48336 0.0
C1349 C 0.27392 0.65185 0.48949 0.0
C1350 C 0.25702 0.64511 0.44496 0.0
C1351 C 0.26502 0.6459 0.33775 0.0
H1352 H 0.23094 0.65924 0.32611 0.0
C1353 C 0.24673 0.66401 0.18858 0.0
C1354 C 0.23425 0.66122 0.17673 0.0
C1355 C 0.25089 0.66112 0.22688 0.0
C1356 C 0.24035 0.65525 0.32893 0.0
H1357 H 0.29054 0.6595 0.45998 0.0
H1358 H 0.28189 0.65736 0.39249 0.0
H1359 H 0.24006 0.65681 0.39262 0.0
H1360 H 0.21623 0.65353 0.19628 0.0
H1361 H 0.22359 0.64844 0.26408 0.0
H1362 H 0.26541 0.64461 0.274 0.0
C1363 C 0.27631 0.65404 0.41759 0.0
C1364 C 0.24559 0.65388 0.36698 0.0
C1365 C 0.28126 0.6553 0.45618 0.0
C1366 C 0.22589 0.6558 0.20461 0.0
C1367 C 0.2301 0.65286 0.24327 0.0
C1368 C 0.25977 0.64724 0.29973 0.0
C1369 C 0.264 0.64925 0.41177 0.0
C1370 C 0.25808 0.64945 0.37169 0.0
C1371 C 0.24272 0.65533 0.25446 0.0
C1372 C 0.24751 0.65225 0.2949 0.0
H1373 H 0.2561 0.6434 0.50836 0.0
H1374 H 0.24762 0.64113 0.4413 0.0
H1375 H 0.27457 0.64226 0.34056 0.0
H1376 H 0.25339 0.66838 0.16813 0.0
H1377 H 0.26054 0.6635 0.23495 0.0
C1378 C 0.10746 0.53215 0.20776 0.0
C1379 C 0.10158 0.52452 0.23679 0.0
C1380 C 0.10996 0.52729 0.16965 0.0
C1381 C 0.1132 0.49661 0.11649 0.0
H1382 H 0.10716 0.51677 0.02154 0.0
C1383 C 0.10563 0.47611 0.95802 0.0
C1384 C 0.11016 0.48329 0.92568 0.0
C1385 C 0.10703 0.48061 -0.0029 0.0
C1386 C 0.1091 0.51108 0.0478 0.0
H1387 H 0.0931 0.50611 0.24809 0.0
H1388 H 0.09712 0.49783 0.18181 0.0
H1389 H 0.10438 0.52631 0.08715 0.0
H1390 H 0.12087 0.50004 0.90887 0.0
H1391 H 0.12342 0.50775 0.97684 0.0
H1392 H 0.11752 0.48126 0.07691 0.0
C1393 C 0.10023 0.50737 0.18865 0.0
C1394 C 0.10751 0.51655 0.08538 0.0
C1395 C 0.09783 0.51217 0.22658 0.0
C1396 C 0.11703 0.49444 0.93322 0.0
C1397 C 0.11848 0.49888 0.97208 0.0
C1398 C 0.11473 0.49111 0.07888 0.0
C1399 C 0.10654 0.51476 0.15998 0.0
C1400 C 0.10933 0.50932 0.12013 0.0
C1401 C 0.11305 0.4923 0.00423 0.0
C1402 C 0.11253 0.49825 0.04419 0.0
H1403 H 0.1105 0.54169 0.21489 0.0
H1404 H 0.11485 0.53321 0.14813 0.0
H1405 H 0.11493 0.49086 0.14277 0.0
H1406 H 0.10032 0.46747 0.95303 0.0
H1407 H 0.10274 0.47534 0.0214 0.0
C1408 C 0.20707 0.20396 0.10325 0.0
C1409 C 0.21622 0.19827 0.12805 0.0
C1410 C 0.20509 0.21709 0.10442 0.0
C1411 C 0.22278 0.24589 0.13082 0.0
H1412 H 0.19063 0.26337 0.12007 0.0
C1413 C 0.22063 0.299 0.1523 0.0
C1414 C 0.21479 0.30608 0.12189 0.0
C1415 C 0.21871 0.28598 0.15512 0.0
C1416 C 0.19966 0.25858 0.12284 0.0
H1417 H 0.22969 0.20175 0.17576 0.0
H1418 H 0.22605 0.22446 0.1784 0.0
H1419 H 0.19113 0.24008 0.12179 0.0
H1420 H 0.2016 0.30521 0.07231 0.0
H1421 H 0.19832 0.2822 0.07702 0.0
H1422 H 0.23136 0.26419 0.13176 0.0
C1423 C 0.22069 0.21889 0.15713 0.0
C1424 C 0.19996 0.24528 0.12381 0.0
C1425 C 0.22273 0.20585 0.15575 0.0
C1426 C 0.20623 0.29998 0.09603 0.0
C1427 C 0.20436 0.28683 0.09873 0.0
C1428 C 0.22248 0.25907 0.12998 0.0
C1429 C 0.21217 0.22474 0.13056 0.0
C1430 C 0.21153 0.23881 0.12844 0.0
C1431 C 0.21097 0.27966 0.12741 0.0
C1432 C 0.21093 0.26559 0.12663 0.0
H1433 H 0.20187 0.19838 0.0816 0.0
H1434 H 0.19847 0.2213 0.08355 0.0
H1435 H 0.2319 0.24124 0.13306 0.0
H1436 H 0.22709 0.30346 0.17315 0.0
H1437 H 0.22368 0.28075 0.17818 0.0
C1438 C 0.0497 0.97959 0.36167 0.0
C1439 C 0.05821 0.9702 0.34881 0.0
C1440 C 0.03673 0.97724 0.36286 0.0
C1441 C 0.01129 0.95817 0.32054 0.0
H1442 H 0.99299 0.97082 0.41282 0.0
C1443 C 0.95597 0.9576 0.33588 0.0
C1444 C 0.9509 0.96934 0.34787 0.0
C1445 C 0.96909 0.95546 0.33726 0.0
C1446 C 0.99796 0.96722 0.38687 0.0
H1447 H 0.05961 0.95094 0.32647 0.0
H1448 H 0.03672 0.94688 0.32838 0.0
H1449 H 0.01605 0.97104 0.41282 0.0
H1450 H 0.95574 0.988 0.37061 0.0
H1451 H 0.97835 0.98426 0.37295 0.0
H1452 H 0.99305 0.95474 0.29418 0.0
C1453 C 0.04024 0.95606 0.3376 0.0
C1454 C 0.01116 0.96734 0.38687 0.0
C1455 C 0.05334 0.95839 0.33664 0.0
C1456 C 0.95923 0.97883 0.36123 0.0
C1457 C 0.97223 0.97666 0.36287 0.0
C1458 C 0.998 0.95805 0.32054 0.0
C1459 C 0.03184 0.96545 0.35117 0.0
C1460 C 0.01797 0.96325 0.3532 0.0
C1461 C 0.97732 0.96496 0.35112 0.0
C1462 C 0.99123 0.963 0.3532 0.0
H1463 H 0.05303 0.98883 0.3711 0.0
H1464 H 0.03047 0.98476 0.37269 0.0
H1465 H 0.01631 0.95495 0.29419 0.0
H1466 H 0.94984 0.95009 0.32532 0.0
H1467 H 0.97277 0.94634 0.32802 0.0
C1468 C 0.28349 0.79833 0.63027 0.0
C1469 C 0.29197 0.80612 0.60907 0.0
C1470 C 0.28482 0.78521 0.62994 0.0
C1471 C 0.30613 0.75841 0.61119 0.0
H1472 H 0.27435 0.74086 0.59317 0.0
C1473 C 0.30075 0.70327 0.59367 0.0
C1474 C 0.29018 0.69789 0.61304 0.0
C1475 C 0.30238 0.71647 0.59246 0.0
C1476 C 0.2833 0.74558 0.59857 0.0
H1477 H 0.30897 0.80617 0.57262 0.0
H1478 H 0.31127 0.78297 0.57198 0.0
H1479 H 0.27487 0.76385 0.59206 0.0
H1480 H 0.27344 0.70223 0.64822 0.0
H1481 H 0.27634 0.72502 0.64635 0.0
H1482 H 0.31448 0.73995 0.61806 0.0
C1483 C 0.30358 0.78717 0.58878 0.0
C1484 C 0.2836 0.75878 0.59786 0.0
C1485 C 0.30225 0.80043 0.58913 0.0
C1486 C 0.28159 0.70599 0.6325 0.0
C1487 C 0.28322 0.7191 0.63129 0.0
C1488 C 0.30582 0.7451 0.61192 0.0
C1489 C 0.29464 0.77943 0.60834 0.0
C1490 C 0.29493 0.76537 0.60516 0.0
C1491 C 0.29346 0.72453 0.61052 0.0
C1492 C 0.29431 0.73857 0.60659 0.0
H1493 H 0.27561 0.80234 0.64666 0.0
H1494 H 0.27797 0.77954 0.64619 0.0
H1495 H 0.31501 0.76324 0.61684 0.0
H1496 H 0.30758 0.69733 0.57846 0.0
H1497 H 0.31036 0.72037 0.57622 0.0
C1498 C 0.45753 0.03465 0.89663 0.0
C1499 C 0.44989 0.04211 0.87155 0.0
C1500 C 0.47061 0.03645 0.89789 0.0
C1501 C 0.49687 0.05833 0.87217 0.0
H1502 H 0.51625 0.02714 0.87374 0.0
C1503 C 0.552 0.05417 0.85086 0.0
C1504 C 0.55804 0.04512 0.87521 0.0
C1505 C 0.53877 0.05553 0.85187 0.0
C1506 C 0.511 0.03595 0.87374 0.0
H1507 H 0.45001 0.05772 0.8293 0.0
H1508 H 0.47302 0.06074 0.83106 0.0
H1509 H 0.4933 0.02621 0.87197 0.0
H1510 H 0.55504 0.03122 0.92216 0.0
H1511 H 0.53217 0.03367 0.92413 0.0
H1512 H 0.5148 0.06802 0.87343 0.0
C1513 C 0.4688 0.05355 0.84998 0.0
C1514 C 0.49781 0.03542 0.87278 0.0
C1515 C 0.45563 0.05179 0.84887 0.0
C1516 C 0.55069 0.03812 0.90247 0.0
C1517 C 0.53756 0.03949 0.90352 0.0
C1518 C 0.51016 0.05887 0.87297 0.0
C1519 C 0.47647 0.04569 0.87387 0.0
C1520 C 0.49055 0.04658 0.87274 0.0
C1521 C 0.5314 0.04785 0.87726 0.0
C1522 C 0.51734 0.04765 0.87453 0.0
H1523 H 0.45343 0.02726 0.91507 0.0
H1524 H 0.47618 0.03046 0.91746 0.0
H1525 H 0.49154 0.0671 0.87214 0.0
H1526 H 0.55739 0.05972 0.82955 0.0
H1527 H 0.53428 0.06207 0.83134 0.0
C1528 C 0.22314 0.80426 0.0072 0.0
C1529 C 0.21645 0.81194 0.0342 0.0
C1530 C 0.22123 0.79119 0.0066 0.0
C1531 C 0.20079 0.76467 0.03966 0.0
H1532 H 0.23272 0.74652 0.03826 0.0
C1533 C 0.20718 0.70999 0.06764 0.0
C1534 C 0.21629 0.70407 0.04328 0.0
C1535 C 0.20538 0.72316 0.06554 0.0
C1536 C 0.2237 0.75141 0.03823 0.0
H1537 H 0.20186 0.81198 0.07995 0.0
H1538 H 0.19864 0.789 0.07917 0.0
H1539 H 0.23273 0.76947 0.03552 0.0
H1540 H 0.22981 0.70711 -0.00468 0.0
H1541 H 0.22654 0.72981 -0.00871 0.0
H1542 H 0.19182 0.74638 0.04259 0.0
C1543 C 0.20533 0.79316 0.05838 0.0
C1544 C 0.22371 0.76459 0.03661 0.0
C1545 C 0.2072 0.80632 0.05885 0.0
C1546 C 0.22292 0.7114 0.01513 0.0
C1547 C 0.22107 0.72444 0.01287 0.0
C1548 C 0.20078 0.75137 0.04128 0.0
C1549 C 0.21265 0.78543 0.03318 0.0
C1550 C 0.21228 0.77139 0.03652 0.0
C1551 C 0.21262 0.73055 0.03894 0.0
C1552 C 0.21226 0.74462 0.03978 0.0
H1553 H 0.23017 0.80829 0.9873 0.0
H1554 H 0.22678 0.78552 0.98608 0.0
H1555 H 0.19183 0.76968 0.03985 0.0
H1556 H 0.2019 0.70456 0.08955 0.0
H1557 H 0.19878 0.72762 0.08595 0.0
C1558 C 0.45646 0.97466 0.26134 0.0
C1559 C 0.44896 0.9681 0.28925 0.0
C1560 C 0.46956 0.97295 0.26037 0.0
C1561 C 0.4963 0.95288 0.29463 0.0
H1562 H 0.51468 0.98457 0.28557 0.0
C1563 C 0.55102 0.95881 0.31985 0.0
C1564 C 0.55713 0.96768 0.29502 0.0
C1565 C 0.53782 0.95722 0.3178 0.0
C1566 C 0.50974 0.9756 0.28759 0.0
H1567 H 0.44932 0.95407 0.33669 0.0
H1568 H 0.47234 0.95124 0.33543 0.0
H1569 H 0.49175 0.9847 0.28404 0.0
H1570 H 0.55441 0.98099 0.24636 0.0
H1571 H 0.53165 0.97799 0.24207 0.0
H1572 H 0.51451 0.94384 0.29848 0.0
C1573 C 0.46801 0.95764 0.31408 0.0
C1574 C 0.49655 0.97567 0.28669 0.0
C1575 C 0.45483 0.95929 0.31487 0.0
C1576 C 0.54995 0.97428 0.26648 0.0
C1577 C 0.53688 0.9726 0.26414 0.0
C1578 C 0.50961 0.9528 0.29549 0.0
C1579 C 0.47555 0.96472 0.28753 0.0
C1580 C 0.48964 0.96433 0.28961 0.0
C1581 C 0.53057 0.9644 0.29066 0.0
C1582 C 0.51647 0.96417 0.29136 0.0
H1583 H 0.45223 0.98134 0.24065 0.0
H1584 H 0.47505 0.9783 0.23879 0.0
H1585 H 0.49125 0.94398 0.29702 0.0
H1586 H 0.55633 0.95358 0.34213 0.0
H1587 H 0.53325 0.95082 0.33864 0.0
C1588 C 0.30208 0.209 0.57226 0.0
C1589 C 0.29148 0.20335 0.55394 0.0
C1590 C 0.30352 0.22225 0.57222 0.0
C1591 C 0.2838 0.2509 0.56491 0.0
H1592 H 0.3147 0.26914 0.53976 0.0
C1593 C 0.2822 0.30347 0.5276 0.0
C1594 C 0.29104 0.31155 0.54605 0.0
C1595 C 0.28369 0.29036 0.52912 0.0
C1596 C 0.30605 0.26416 0.54727 0.0
H1597 H 0.27456 0.20721 0.51901 0.0
H1598 H 0.27712 0.22999 0.51881 0.0
H1599 H 0.31486 0.24585 0.54203 0.0
H1600 H 0.30875 0.31206 0.57899 0.0
H1601 H 0.3113 0.28899 0.58172 0.0
H1602 H 0.27491 0.26898 0.56984 0.0
C1603 C 0.28415 0.22429 0.53408 0.0
C1604 C 0.30615 0.25085 0.54861 0.0
C1605 C 0.28272 0.21118 0.53413 0.0
C1606 C 0.30173 0.30613 0.56457 0.0
C1607 C 0.30323 0.29292 0.56607 0.0
C1608 C 0.2837 0.26409 0.56356 0.0
C1609 C 0.29437 0.23003 0.55393 0.0
C1610 C 0.29492 0.24409 0.55645 0.0
C1611 C 0.29404 0.2849 0.54918 0.0
C1612 C 0.29472 0.27089 0.55375 0.0
H1613 H 0.30903 0.20325 0.58766 0.0
H1614 H 0.31151 0.22642 0.58767 0.0
H1615 H 0.27508 0.24599 0.57211 0.0
H1616 H 0.27395 0.30726 0.51255 0.0
H1617 H 0.2766 0.28445 0.51497 0.0
C1618 C 0.95812 0.03241 0.77545 0.0
C1619 C 0.95022 0.04082 0.79648 0.0
C1620 C 0.97113 0.03463 0.77266 0.0
C1621 C 0.99751 0.05026 0.82375 0.0
H1622 H 0.01525 0.04298 0.72488 0.0
C1623 C 0.05244 0.05197 0.81177 0.0
C1624 C 0.05788 0.04146 0.79246 0.0
C1625 C 0.03934 0.05412 0.80975 0.0
C1626 C 0.01045 0.04502 0.75277 0.0
H1627 H 0.94988 0.05826 0.83075 0.0
H1628 H 0.97272 0.06207 0.82601 0.0
H1629 H 0.99217 0.04262 0.72619 0.0
H1630 H 0.05379 0.02521 0.7548 0.0
H1631 H 0.03116 0.02889 0.7516 0.0
H1632 H 0.01583 0.05225 0.85063 0.0
C1633 C 0.96876 0.05375 0.81177 0.0
C1634 C 0.99722 0.04482 0.7535 0.0
C1635 C 0.95567 0.05159 0.8143 0.0
C1636 C 0.04997 0.0334 0.77016 0.0
C1637 C 0.03696 0.03557 0.76803 0.0
C1638 C 0.01078 0.05042 0.82305 0.0
C1639 C 0.97663 0.04527 0.79095 0.0
C1640 C 0.9906 0.04711 0.78921 0.0
C1641 C 0.03143 0.04586 0.78812 0.0
C1642 C 0.01741 0.04746 0.78778 0.0
H1643 H 0.95428 0.02403 0.76127 0.0
H1644 H 0.97693 0.0278 0.7569 0.0
H1645 H 0.99268 0.052 0.85179 0.0
H1646 H 0.05824 0.05838 0.8292 0.0
H1647 H 0.03539 0.0622 0.8253 0.0
C1648 C 0.783 0.70658 0.02611 0.0
C1649 C 0.79193 0.69865 0.04468 0.0
C1650 C 0.78439 0.71972 0.02716 0.0
C1651 C 0.80654 0.74617 0.04446 0.0
H1652 H 0.77545 0.76408 0.06922 0.0
C1653 C 0.80226 0.80124 0.0693 0.0
C1654 C 0.79161 0.80685 0.05115 0.0
C1655 C 0.80377 0.78801 0.06917 0.0
C1656 C 0.78421 0.75924 0.06202 0.0
H1657 H 0.8097 0.69839 0.07734 0.0
H1658 H 0.81207 0.72148 0.07927 0.0
H1659 H 0.77545 0.74108 0.06726 0.0
H1660 H 0.77466 0.80294 0.01645 0.0
H1661 H 0.77733 0.78017 0.01608 0.0
H1662 H 0.81522 0.76455 0.03898 0.0
C1663 C 0.804 0.71743 0.06386 0.0
C1664 C 0.78421 0.74605 0.06084 0.0
C1665 C 0.80262 0.70421 0.0628 0.0
C1666 C 0.78286 0.79899 0.03141 0.0
C1667 C 0.78436 0.78589 0.03128 0.0
C1668 C 0.80654 0.75948 0.04563 0.0
C1669 C 0.79472 0.72533 0.04689 0.0
C1670 C 0.79527 0.73935 0.0511 0.0
C1671 C 0.79463 0.7802 0.05096 0.0
C1672 C 0.79527 0.76614 0.05346 0.0
H1673 H 0.77475 0.70268 0.01136 0.0
H1674 H 0.77722 0.72553 0.01295 0.0
H1675 H 0.81523 0.74126 0.037 0.0
H1676 H 0.8092 0.80702 0.08465 0.0
H1677 H 0.8118 0.78387 0.08452 0.0
C1678 C 0.72533 0.20953 0.5141 0.0
C1679 C 0.71751 0.20174 0.53765 0.0
C1680 C 0.72355 0.22261 0.51323 0.0
C1681 C 0.70177 0.24898 0.53497 0.0
H1682 H 0.7333 0.26747 0.54721 0.0
C1683 C 0.70658 0.3041 0.55743 0.0
C1684 C 0.71661 0.30982 0.53624 0.0
C1685 C 0.70498 0.29089 0.5568 0.0
C1686 C 0.72441 0.26247 0.5434 0.0
H1687 H 0.70112 0.2016 0.57688 0.0
H1688 H 0.69804 0.22463 0.57536 0.0
H1689 H 0.73352 0.24448 0.54762 0.0
H1690 H 0.73216 0.30619 0.49531 0.0
H1691 H 0.72932 0.28339 0.4941 0.0
H1692 H 0.69273 0.2672 0.53075 0.0
C1693 C 0.70557 0.22051 0.55765 0.0
C1694 C 0.72454 0.24928 0.54363 0.0
C1695 C 0.70736 0.20733 0.55854 0.0
C1696 C 0.72447 0.30213 0.51256 0.0
C1697 C 0.72287 0.28903 0.51195 0.0
C1698 C 0.70164 0.26229 0.53476 0.0
C1699 C 0.71391 0.22831 0.53592 0.0
C1700 C 0.71329 0.24236 0.5385 0.0
C1701 C 0.71339 0.2832 0.53502 0.0
C1702 C 0.71303 0.26915 0.53806 0.0
H1703 H 0.73312 0.20558 0.49708 0.0
H1704 H 0.72995 0.22833 0.49541 0.0
H1705 H 0.69295 0.24388 0.53111 0.0
H1706 H 0.70032 0.30974 0.57589 0.0
H1707 H 0.69756 0.28666 0.57479 0.0
C1708 C 0.78188 0.30196 0.11793 0.0
C1709 C 0.7911 0.31032 0.10284 0.0
C1710 C 0.78361 0.28891 0.11589 0.0
C1711 C 0.8065 0.26315 0.1061 0.0
H1712 H 0.77682 0.24487 0.06932 0.0
C1713 C 0.8028 0.20774 0.08766 0.0
C1714 C 0.79153 0.20253 0.10318 0.0
C1715 C 0.80443 0.22094 0.08561 0.0
C1716 C 0.78519 0.24982 0.07973 0.0
H1717 H 0.80971 0.31138 0.07537 0.0
H1718 H 0.81272 0.28833 0.07189 0.0
H1719 H 0.77675 0.26789 0.06928 0.0
H1720 H 0.77347 0.20718 0.13069 0.0
H1721 H 0.77633 0.22991 0.12715 0.0
H1722 H 0.8148 0.24486 0.11728 0.0
C1723 C 0.80414 0.29204 0.08517 0.0
C1724 C 0.78515 0.263 0.0797 0.0
C1725 C 0.80239 0.30522 0.08712 0.0
C1726 C 0.78219 0.21079 0.11794 0.0
C1727 C 0.7838 0.22386 0.11581 0.0
C1728 C 0.80654 0.24984 0.10614 0.0
C1729 C 0.7946 0.28378 0.09873 0.0
C1730 C 0.79562 0.26983 0.09404 0.0
C1731 C 0.79479 0.22911 0.09886 0.0
C1732 C 0.79571 0.24307 0.09412 0.0
H1733 H 0.77316 0.30548 0.13085 0.0
H1734 H 0.77622 0.28278 0.12746 0.0
H1735 H 0.81472 0.26818 0.1172 0.0
H1736 H 0.81021 0.20166 0.07617 0.0
H1737 H 0.81302 0.22474 0.07249 0.0
C1738 C 0.71926 0.71157 0.66066 0.0
C1739 C 0.71387 0.70482 0.62878 0.0
C1740 C 0.71712 0.72453 0.66478 0.0
C1741 C 0.69846 0.75222 0.63035 0.0
H1742 H 0.73037 0.76959 0.64761 0.0
C1743 C 0.70657 0.8065 0.60624 0.0
C1744 C 0.71532 0.81249 0.63173 0.0
C1745 C 0.70441 0.79342 0.60918 0.0
C1746 C 0.72132 0.76494 0.64349 0.0
H1747 H 0.70122 0.70614 0.57792 0.0
H1748 H 0.69763 0.729 0.58475 0.0
H1749 H 0.72983 0.74667 0.64729 0.0
H1750 H 0.7278 0.80967 0.68244 0.0
H1751 H 0.7238 0.78706 0.68824 0.0
H1752 H 0.69003 0.7707 0.62601 0.0
C1753 C 0.70344 0.7242 0.60672 0.0
C1754 C 0.72101 0.75176 0.64326 0.0
C1755 C 0.7055 0.71112 0.60279 0.0
C1756 C 0.72118 0.80531 0.66187 0.0
C1757 C 0.71893 0.79233 0.66506 0.0
C1758 C 0.69876 0.76552 0.63067 0.0
C1759 C 0.70966 0.73111 0.63685 0.0
C1760 C 0.70959 0.74521 0.63706 0.0
C1761 C 0.71089 0.78612 0.63786 0.0
C1762 C 0.7102 0.77203 0.6376 0.0
H1763 H 0.72558 0.70693 0.68156 0.0
H1764 H 0.72177 0.72952 0.68897 0.0
H1765 H 0.68952 0.74743 0.62539 0.0
H1766 H 0.70189 0.81177 0.5827 0.0
H1767 H 0.69817 0.78894 0.58771 0.0
C1768 C 0.55105 0.47614 0.89761 0.0
C1769 C 0.5585 0.46849 0.87253 0.0
C1770 C 0.53791 0.47486 0.89832 0.0
C1771 C 0.51066 0.45466 0.8727 0.0
H1772 H 0.49354 0.48706 0.86419 0.0
C1773 C 0.45596 0.46067 0.84951 0.0
C1774 C 0.45022 0.47076 0.87024 0.0
C1775 C 0.46916 0.45908 0.85026 0.0
C1776 C 0.49813 0.47793 0.86708 0.0
H1777 H 0.55796 0.45287 0.83043 0.0
H1778 H 0.53482 0.45066 0.8317 0.0
H1779 H 0.51652 0.48635 0.86534 0.0
H1780 H 0.45386 0.48662 0.9099 0.0
H1781 H 0.47665 0.48374 0.91164 0.0
H1782 H 0.4921 0.44628 0.87465 0.0
C1783 C 0.53926 0.45767 0.85073 0.0
C1784 C 0.51132 0.47753 0.86767 0.0
C1785 C 0.5525 0.45895 0.84999 0.0
C1786 C 0.45793 0.47886 0.89303 0.0
C1787 C 0.47104 0.47725 0.89389 0.0
C1788 C 0.49735 0.45507 0.87225 0.0
C1789 C 0.53182 0.46591 0.87397 0.0
C1790 C 0.51776 0.46593 0.8712 0.0
C1791 C 0.47687 0.46754 0.87179 0.0
C1792 C 0.49095 0.46675 0.87016 0.0
H1793 H 0.55533 0.48344 0.91592 0.0
H1794 H 0.53246 0.48114 0.9173 0.0
H1795 H 0.51537 0.44558 0.87535 0.0
H1796 H 0.45031 0.45423 0.83172 0.0
H1797 H 0.47334 0.45152 0.83286 0.0
C1798 C 0.95801 0.55034 0.34916 0.0
C1799 C 0.9522 0.54067 0.37171 0.0
C1800 C 0.97123 0.55183 0.34952 0.0
C1801 C 1.00002 0.533 0.36924 0.0
H1802 H 0.01765 0.56524 0.37132 0.0
C1803 C 0.0532 0.53474 0.39701 0.0
C1804 C 0.06062 0.54227 0.37134 0.0
C1805 C 0.04005 0.53599 0.39778 0.0
C1806 C 0.01284 0.55618 0.37039 0.0
H1807 H 0.95573 0.52551 0.41419 0.0
H1808 H 0.97855 0.52823 0.41525 0.0
H1809 H 0.99439 0.56479 0.3713 0.0
H1810 H 0.05998 0.55754 0.3279 0.0
H1811 H 0.03685 0.55966 0.32914 0.0
H1812 H 0.01829 0.52435 0.3684 0.0
C1813 C 0.97299 0.53445 0.3964 0.0
C1814 C 0.99953 0.55592 0.37035 0.0
C1815 C 0.95986 0.53293 0.39592 0.0
C1816 C 0.05456 0.55157 0.34795 0.0
C1817 C 0.04131 0.5528 0.34869 0.0
C1818 C 0.01322 0.53327 0.36937 0.0
C1819 C 0.97888 0.54369 0.37248 0.0
C1820 C 0.99298 0.54429 0.37047 0.0
C1821 C 0.0339 0.54476 0.37282 0.0
C1822 C 0.01981 0.54483 0.37064 0.0
H1823 H 0.9524 0.55649 0.33022 0.0
H1824 H 0.97547 0.55904 0.33072 0.0
H1825 H 0.99531 0.52389 0.3681 0.0
H1826 H 0.05752 0.52763 0.41597 0.0
H1827 H 0.03465 0.52987 0.41746 0.0
C1828 C 0.95911 0.45696 0.82226 0.0
C1829 C 0.95446 0.46889 0.8104 0.0
C1830 C 0.97215 0.45434 0.82048 0.0
C1831 C 1.00121 0.46511 0.76963 0.0
H1832 H 0.01964 0.45323 0.86267 0.0
C1833 C 0.05274 0.47807 0.79489 0.0
C1834 C 0.06136 0.46888 0.8085 0.0
C1835 C 0.03982 0.47548 0.79321 0.0
C1836 C 0.0146 0.45631 0.8362 0.0
H1837 H 0.95997 0.48741 0.78769 0.0
H1838 H 0.98237 0.48284 0.78471 0.0
H1839 H 0.99638 0.45315 0.86315 0.0
H1840 H 0.06302 0.44969 0.83139 0.0
H1841 H 0.04021 0.44519 0.82864 0.0
H1842 H 0.01928 0.46876 0.74318 0.0
C1843 C 0.97601 0.47545 0.7949 0.0
C1844 C 1.00131 0.45627 0.83647 0.0
C1845 C 0.96312 0.47809 0.7969 0.0
C1846 C 0.05666 0.45698 0.82065 0.0
C1847 C 0.04361 0.45441 0.81923 0.0
C1848 C 0.01441 0.46517 0.76937 0.0
C1849 C 0.98069 0.46355 0.80636 0.0
C1850 C 0.99452 0.46114 0.80373 0.0
C1851 C 0.03509 0.46363 0.80516 0.0
C1852 C 0.02125 0.46124 0.80319 0.0
H1853 H 0.95272 0.44967 0.83289 0.0
H1854 H 0.97553 0.44508 0.82958 0.0
H1855 H 0.99622 0.46868 0.74366 0.0
H1856 H 0.05595 0.48735 0.7854 0.0
H1857 H 0.03347 0.48286 0.78297 0.0
C1858 C 0.46382 0.53144 0.31973 0.0
C1859 C 0.45513 0.5415 0.31741 0.0
C1860 C 0.47672 0.53378 0.32422 0.0
C1861 C 0.50183 0.55626 0.30429 0.0
H1862 H 0.52012 0.53514 0.37971 0.0
C1863 C 0.55726 0.5542 0.31828 0.0
C1864 C 0.56194 0.54171 0.31696 0.0
C1865 C 0.54421 0.55646 0.32214 0.0
C1866 C 0.51515 0.54115 0.35865 0.0
H1867 H 0.45327 0.56198 0.31745 0.0
H1868 H 0.4761 0.56606 0.32465 0.0
H1869 H 0.49703 0.53514 0.38009 0.0
H1870 H 0.55653 0.52185 0.31863 0.0
H1871 H 0.53402 0.52581 0.32561 0.0
H1872 H 0.52009 0.56185 0.28184 0.0
C1873 C 0.47275 0.55637 0.32329 0.0
C1874 C 0.50195 0.54116 0.35888 0.0
C1875 C 0.45972 0.55402 0.31931 0.0
C1876 C 0.55331 0.53159 0.31949 0.0
C1877 C 0.54039 0.53385 0.32382 0.0
C1878 C 0.51512 0.55625 0.30405 0.0
C1879 C 0.48134 0.54624 0.3262 0.0
C1880 C 0.49516 0.54832 0.33071 0.0
C1881 C 0.53569 0.54627 0.32545 0.0
C1882 C 0.52187 0.54829 0.33023 0.0
H1883 H 0.46067 0.52168 0.31846 0.0
H1884 H 0.48314 0.52578 0.32572 0.0
H1885 H 0.49681 0.56185 0.28224 0.0
H1886 H 0.56365 0.5622 0.31627 0.0
H1887 H 0.54081 0.56613 0.32322 0.0
C1888 C 0.2358 0.14623 0.19518 0.0
C1889 C 0.22394 0.15221 0.1931 0.0
C1890 C 0.24313 0.14695 0.22965 0.0
C1891 C 0.24812 0.16732 0.31713 0.0
H1892 H 0.26982 0.13974 0.35178 0.0
C1893 C 0.27417 0.1663 0.46747 0.0
C1894 C 0.28665 0.16171 0.46913 0.0
C1895 C 0.26733 0.16602 0.43199 0.0
C1896 C 0.26397 0.14758 0.34197 0.0
H1897 H 0.21012 0.16318 0.22599 0.0
H1898 H 0.22293 0.16432 0.28728 0.0
H1899 H 0.25494 0.13639 0.29699 0.0
H1900 H 0.30192 0.15354 0.43453 0.0
H1901 H 0.2897 0.15272 0.37179 0.0
H1902 H 0.25699 0.17839 0.36291 0.0
C1903 C 0.22661 0.15919 0.26178 0.0
C1904 C 0.25538 0.14566 0.31077 0.0
C1905 C 0.2192 0.15841 0.22701 0.0
C1906 C 0.29234 0.15719 0.43399 0.0
C1907 C 0.28533 0.15666 0.39831 0.0
C1908 C 0.25665 0.1692 0.34854 0.0
C1909 C 0.23879 0.15369 0.2631 0.0
C1910 C 0.24735 0.15551 0.29795 0.0
C1911 C 0.27269 0.16093 0.39726 0.0
C1912 C 0.26463 0.15934 0.36133 0.0
H1913 H 0.23968 0.14137 0.16941 0.0
H1914 H 0.25247 0.14272 0.22929 0.0
H1915 H 0.24229 0.17519 0.30748 0.0
H1916 H 0.26948 0.16988 0.49379 0.0
H1917 H 0.25759 0.16927 0.43226 0.0
C1918 C 0.09255 0.98654 0.44476 0.0
C1919 C 0.0977 0.97429 0.44347 0.0
C1920 C 0.09217 0.99331 0.48036 0.0
C1921 C 0.11006 0.9973 0.57078 0.0
H1922 H 0.08147 0.01761 0.60555 0.0
C1923 C 0.10998 0.02445 0.71884 0.0
C1924 C 0.10359 0.03608 0.72158 0.0
C1925 C 0.10956 0.01736 0.6839 0.0
C1926 C 0.0896 0.01217 0.59579 0.0
H1927 H 0.10612 0.95927 0.47863 0.0
H1928 H 0.10581 0.97137 0.54156 0.0
H1929 H 0.07899 1.00298 0.54951 0.0
H1930 H 0.09217 0.04973 0.68949 0.0
H1931 H 0.09153 0.03731 0.62734 0.0
H1932 H 0.12079 0.00666 0.61612 0.0
C1933 C 0.10193 0.97562 0.51473 0.0
C1934 C 0.08813 1.00368 0.56408 0.0
C1935 C 0.10205 0.96868 0.47896 0.0
C1936 C 0.09724 0.04083 0.68795 0.0
C1937 C 0.09676 0.03365 0.65269 0.0
C1938 C 0.11157 0.00586 0.6022 0.0
C1939 C 0.09718 0.98808 0.51544 0.0
C1940 C 0.09834 0.99616 0.55135 0.0
C1941 C 0.10273 0.02171 0.65065 0.0
C1942 C 0.10134 0.01336 0.61521 0.0
H1943 H 0.08909 0.99112 0.41807 0.0
H1944 H 0.08854 1.00291 0.47992 0.0
H1945 H 0.11816 0.99184 0.56092 0.0
H1946 H 0.11499 0.02057 0.74436 0.0
H1947 H 0.11413 0.00818 0.6837 0.0
C1948 C 0.23574 0.86438 0.96671 0.0
C1949 C 0.22396 0.85826 0.96939 0.0
C1950 C 0.24294 0.86367 0.93195 0.0
C1951 C 0.24791 0.84294 0.84548 0.0
H1952 H 0.26942 0.87049 0.80914 0.0
C1953 C 0.27422 0.84315 0.69543 0.0
C1954 C 0.28665 0.84789 0.69367 0.0
C1955 C 0.2673 0.8436 0.73075 0.0
C1956 C 0.26362 0.86267 0.81942 0.0
H1957 H 0.21013 0.84706 0.93731 0.0
H1958 H 0.22272 0.84593 0.87554 0.0
H1959 H 0.2545 0.87405 0.86373 0.0
H1960 H 0.30176 0.85649 0.72793 0.0
H1961 H 0.2894 0.85759 0.79039 0.0
H1962 H 0.25688 0.83166 0.80044 0.0
C1963 C 0.22643 0.85117 0.90076 0.0
C1964 C 0.25501 0.86471 0.85049 0.0
C1965 C 0.21915 0.85194 0.9358 0.0
C1966 C 0.29222 0.85272 0.72858 0.0
C1967 C 0.28513 0.85342 0.76407 0.0
C1968 C 0.25646 0.84094 0.81421 0.0
C1969 C 0.23856 0.85679 0.89887 0.0
C1970 C 0.24706 0.85487 0.86394 0.0
C1971 C 0.27253 0.84901 0.76519 0.0
C1972 C 0.26439 0.85078 0.80084 0.0
H1973 H 0.23967 0.86932 -0.00776 0.0
H1974 H 0.25225 0.868 0.93186 0.0
H1975 H 0.24214 0.83509 0.85564 0.0
H1976 H 0.26963 0.83934 0.66925 0.0
H1977 H 0.2576 0.84023 0.73054 0.0
C1978 C 0.39515 0.0359 0.96753 0.0
C1979 C 0.40651 0.03979 0.94974 0.0
C1980 C 0.39528 0.02816 0.00148 0.0
C1981 C 0.41647 0.01377 0.07944 0.0
H1982 H 0.38967 0.98861 0.08278 0.0
C1983 C 0.41586 0.97189 0.19269 0.0
C1984 C 0.40477 0.97165 0.21583 0.0
C1985 C 0.41646 0.97938 0.15806 0.0
C1986 C 0.39723 0.99557 0.08216 0.0
H1987 H 0.42694 0.03903 0.95367 0.0
H1988 H 0.42729 0.02512 0.01204 0.0
H1989 H 0.39004 1.00419 0.02911 0.0
H1990 H 0.38558 0.97861 0.2209 0.0
H1991 H 0.38638 0.99117 0.15945 0.0
H1992 H 0.42375 1.00478 0.13226 0.0
C1993 C 0.41821 0.02829 0.00083 0.0
C1994 C 0.39738 1.00463 0.05166 0.0
C1995 C 0.41805 0.03627 0.96731 0.0
C1996 C 0.39414 0.97848 0.20298 0.0
C1997 C 0.39462 0.98569 0.16799 0.0
C1998 C 0.41642 1.00454 0.10962 0.0
C1999 C 0.40681 0.02379 0.01765 0.0
C2000 C 0.40688 0.01402 0.05015 0.0
C2001 C 0.40589 0.98652 0.14578 0.0
C2002 C 0.4067 0.99546 0.11156 0.0
H2003 H 0.38614 0.0384 0.95412 0.0
H2004 H 0.3863 0.02527 0.01419 0.0
H2005 H 0.42388 0.02086 0.07967 0.0
H2006 H 0.42427 0.96692 0.20267 0.0
H2007 H 0.42526 0.97985 0.14141 0.0
C2008 C 0.79224 0.85341 0.93247 0.0
C2009 C 0.78652 0.84888 0.96758 0.0
C2010 C 0.78524 0.85407 0.89681 0.0
C2011 C 0.75642 0.8418 0.84709 0.0
H2012 H 0.75515 0.8746 0.79502 0.0
C2013 C 0.71917 0.85284 0.72531 0.0
C2014 C 0.72403 0.85886 0.69118 0.0
C2015 C 0.72653 0.8521 0.76019 0.0
C2016 C 0.75547 0.86534 0.80897 0.0
H2017 H 0.76928 0.8408 -0.00782 0.0
H2018 H 0.75738 0.84164 0.9307 0.0
H2019 H 0.76996 0.87112 0.84994 0.0
H2020 H 0.73993 0.86943 0.66718 0.0
H2021 H 0.75263 0.86817 0.72732 0.0
H2022 H 0.742 0.83596 0.80611 0.0
C2023 C 0.76714 0.84481 0.93044 0.0
C2024 C 0.76402 0.86334 0.84024 0.0
C2025 C 0.77399 0.84441 0.96589 0.0
C2026 C 0.73596 0.86472 0.69315 0.0
C2027 C 0.74323 0.86405 0.72775 0.0
C2028 C 0.74793 0.84377 0.81566 0.0
C2029 C 0.77256 0.84991 0.89573 0.0
C2030 C 0.76452 0.85158 0.85977 0.0
C2031 C 0.73878 0.85746 0.7614 0.0
C2032 C 0.7473 0.85558 0.7963 0.0
H2033 H 0.80187 0.85697 0.93302 0.0
H2034 H 0.78965 0.85801 0.8703 0.0
H2035 H 0.75665 0.83262 0.86157 0.0
H2036 H 0.71005 0.84815 0.72438 0.0
H2037 H 0.72277 0.84709 0.78586 0.0
C2038 C 0.91213 0.04091 0.68513 0.0
C2039 C 0.90616 0.03592 0.71921 0.0
C2040 C 0.91301 0.0336 0.65017 0.0
C2041 C 0.91245 1.00015 0.61743 0.0
H2042 H 0.90542 0.01395 0.5125 0.0
C2043 C 0.90674 0.96883 0.47518 0.0
C2044 C 0.91072 0.97418 0.43884 0.0
C2045 C 0.90699 0.97609 0.51038 0.0
C2046 C 0.90762 0.00996 0.5415 0.0
H2047 H 0.89586 0.01975 0.74287 0.0
H2048 H 0.89725 0.00724 0.68235 0.0
H2049 H 0.9044 0.02772 0.57071 0.0
H2050 H 0.91898 0.99091 0.41159 0.0
H2051 H 0.92003 1.00312 0.4722 0.0
H2052 H 0.91574 0.98239 0.5883 0.0
C2053 C 0.90154 0.01657 0.68264 0.0
C2054 C 0.90701 0.01788 0.57485 0.0
C2055 C 0.90067 0.0238 0.71723 0.0
C2056 C 0.91563 0.98654 0.43877 0.0
C2057 C 0.91613 0.99364 0.4737 0.0
C2058 C 0.91316 0.99223 0.58403 0.0
C2059 C 0.90794 0.02124 0.64899 0.0
C2060 C 0.90932 0.01305 0.61321 0.0
C2061 C 0.91142 0.98871 0.50972 0.0
C2062 C 0.91072 0.99702 0.54561 0.0
H2063 H 0.9165 0.05019 0.68597 0.0
H2064 H 0.91799 0.03744 0.62457 0.0
H2065 H 0.91443 0.99618 0.64666 0.0
H2066 H 0.90288 0.95933 0.47601 0.0
H2067 H 0.90327 0.97198 0.53764 0.0
C2068 C 0.79271 0.15763 0.22883 0.0
C2069 C 0.78697 0.16157 0.19305 0.0
C2070 C 0.78571 0.15753 0.26458 0.0
C2071 C 0.75693 0.17055 0.31251 0.0
H2072 H 0.75566 0.13861 0.36965 0.0
C2073 C 0.71977 0.16119 0.43652 0.0
C2074 C 0.72462 0.15552 0.47124 0.0
C2075 C 0.72715 0.16161 0.40159 0.0
C2076 C 0.75598 0.14764 0.35429 0.0
H2077 H 0.7697 0.16915 0.16727 0.0
H2078 H 0.75781 0.16928 0.22885 0.0
H2079 H 0.77041 0.1412 0.31406 0.0
H2080 H 0.74057 0.14528 0.49627 0.0
H2081 H 0.7533 0.14605 0.43619 0.0
H2082 H 0.74258 0.17705 0.35279 0.0
C2083 C 0.76758 0.16615 0.22957 0.0
C2084 C 0.7645 0.14914 0.32262 0.0
C2085 C 0.77442 0.166 0.19407 0.0
C2086 C 0.7366 0.14975 0.46993 0.0
C2087 C 0.74389 0.15012 0.43532 0.0
C2088 C 0.74848 0.16909 0.34438 0.0
C2089 C 0.77302 0.16167 0.26504 0.0
C2090 C 0.765 0.16057 0.30128 0.0
C2091 C 0.73941 0.15627 0.40092 0.0
C2092 C 0.74787 0.15761 0.3656 0.0
H2093 H 0.80235 0.15412 0.22882 0.0
H2094 H 0.79013 0.15406 0.29167 0.0
H2095 H 0.75715 0.17949 0.29658 0.0
H2096 H 0.71059 0.16577 0.43688 0.0
H2097 H 0.72336 0.16629 0.37537 0.0
C2098 C 0.59773 0.9893 0.21979 0.0
C2099 C 0.59952 0.97609 0.21924 0.0
C2100 C 0.59761 0.99628 0.18456 0.0
C2101 C 0.61089 0.99714 0.0859 0.0
H2102 H 0.58512 0.02251 0.06494 0.0
C2103 C 0.60885 0.02469 0.93848 0.0
C2104 C 0.60449 0.03726 0.93804 0.0
C2105 C 0.60865 0.01758 0.97344 0.0
C2106 C 0.59251 0.01564 0.07072 0.0
H2107 H 0.60257 0.95983 0.18104 0.0
H2108 H 0.60277 0.97226 0.11857 0.0
H2109 H 0.58297 0.00844 0.12256 0.0
H2110 H 0.59697 0.05247 0.97431 0.0
H2111 H 0.59686 0.04003 0.03652 0.0
H2112 H 0.62069 1.00453 0.03507 0.0
C2113 C 0.60127 0.97707 0.14676 0.0
C2114 C 0.59119 0.00748 0.10339 0.0
C2115 C 0.60112 0.96998 0.18232 0.0
C2116 C 0.60041 0.04281 0.9739 0.0
C2117 C 0.60023 0.03563 0.00929 0.0
C2118 C 0.6123 0.0054 0.05353 0.0
C2119 C 0.59953 0.9903 0.14776 0.0
C2120 C 0.60036 0.99815 0.1112 0.0
C2121 C 0.60416 0.02285 0.00921 0.0
C2122 C 0.6031 0.01471 0.04539 0.0
H2123 H 0.59657 0.9944 0.24753 0.0
H2124 H 0.59643 0.00646 0.18625 0.0
H2125 H 0.61823 0.99021 0.09183 0.0
H2126 H 0.6121 0.02014 0.91132 0.0
H2127 H 0.61157 0.00776 0.97192 0.0
C2128 C 0.77552 0.64876 0.96609 0.0
C2129 C 0.7879 0.65366 0.96738 0.0
C2130 C 0.76846 0.64917 0.93107 0.0
C2131 C 0.76602 0.66638 0.83557 0.0
H2132 H 0.74206 0.63962 0.81046 0.0
C2133 C 0.74045 0.66206 0.68501 0.0
C2134 C 0.72728 0.66 0.68514 0.0
C2135 C 0.74739 0.66167 0.72028 0.0
C2136 C 0.74858 0.64723 0.81749 0.0
H2137 H 0.80279 0.66245 0.93249 0.0
H2138 H 0.79044 0.66294 0.8702 0.0
H2139 H 0.75621 0.63728 0.86765 0.0
H2140 H 0.71107 0.65576 0.72257 0.0
H2141 H 0.72344 0.65467 0.78499 0.0
H2142 H 0.7586 0.6761 0.78442 0.0
C2143 C 0.78615 0.65897 0.89683 0.0
C2144 C 0.75673 0.6459 0.85014 0.0
C2145 C 0.79328 0.65858 0.93228 0.0
C2146 C 0.72119 0.65742 0.7216 0.0
C2147 C 0.72825 0.65678 0.75715 0.0
C2148 C 0.75798 0.66763 0.80263 0.0
C2149 C 0.77358 0.6544 0.89606 0.0
C2150 C 0.76552 0.65548 0.85972 0.0
C2151 C 0.74141 0.65898 0.75665 0.0
C2152 C 0.74918 0.65807 0.79335 0.0
H2153 H 0.7711 0.64485 -0.00738 0.0
H2154 H 0.75879 0.64575 0.93197 0.0
H2155 H 0.77247 0.67405 0.84247 0.0
H2156 H 0.74553 0.66394 0.65754 0.0
H2157 H 0.75754 0.6632 0.71896 0.0
C2158 C 0.60592 0.54234 0.18201 0.0
C2159 C 0.60161 0.53696 0.21793 0.0
C2160 C 0.60557 0.53525 0.14652 0.0
C2161 C 0.59106 0.50701 0.09931 0.0
H2162 H 0.6229 0.50437 0.04221 0.0
C2163 C 0.59885 0.46975 0.97439 0.0
C2164 C 0.60469 0.4745 0.9398 0.0
C2165 C 0.59869 0.47703 0.00952 0.0
C2166 C 0.6139 0.50507 0.05758 0.0
H2167 H 0.5928 0.52036 0.24428 0.0
H2168 H 0.59195 0.50828 0.18304 0.0
H2169 H 0.621 0.51915 0.09782 0.0
H2170 H 0.61547 0.49018 0.91515 0.0
H2171 H 0.61518 0.50273 0.97558 0.0
H2172 H 0.58391 0.49299 0.05892 0.0
C2173 C 0.59572 0.51783 0.18202 0.0
C2174 C 0.6128 0.51361 0.08926 0.0
C2175 C 0.5963 0.52476 0.2173 0.0
C2176 C 0.61086 0.48628 0.94139 0.0
C2177 C 0.61076 0.49347 0.9762 0.0
C2178 C 0.59212 0.49852 0.0674 0.0
C2179 C 0.60064 0.52284 0.14644 0.0
C2180 C 0.60139 0.51464 0.11053 0.0
C2181 C 0.60449 0.48908 0.01051 0.0
C2182 C 0.60356 0.49745 0.04613 0.0
H2183 H 0.6101 0.55171 0.18176 0.0
H2184 H 0.60936 0.53936 0.11934 0.0
H2185 H 0.58213 0.50763 0.11516 0.0
H2186 H 0.59395 0.46073 0.9738 0.0
H2187 H 0.59388 0.47333 0.03565 0.0
C2188 C 0.73571 0.36198 0.46942 0.0
C2189 C 0.72372 0.3562 0.47042 0.0
C2190 C 0.74309 0.36166 0.43498 0.0
C2191 C 0.74787 0.34291 0.3438 0.0
H2192 H 0.7697 0.37099 0.31405 0.0
C2193 C 0.77361 0.34666 0.19331 0.0
C2194 C 0.78614 0.35117 0.19218 0.0
C2195 C 0.76684 0.34633 0.22894 0.0
C2196 C 0.76382 0.36301 0.32246 0.0
H2197 H 0.70979 0.34595 0.43569 0.0
H2198 H 0.72271 0.34554 0.37448 0.0
H2199 H 0.75495 0.37336 0.3697 0.0
H2200 H 0.80154 0.35858 0.22787 0.0
H2201 H 0.78944 0.35835 0.29095 0.0
H2202 H 0.75657 0.3327 0.29576 0.0
C2203 C 0.72643 0.35019 0.40081 0.0
C2204 C 0.75531 0.36437 0.35416 0.0
C2205 C 0.71897 0.35055 0.43557 0.0
C2206 C 0.79192 0.35501 0.22796 0.0
C2207 C 0.78499 0.35494 0.26385 0.0
C2208 C 0.75632 0.34159 0.31189 0.0
C2209 C 0.73868 0.35556 0.40044 0.0
C2210 C 0.74722 0.35434 0.36523 0.0
C2211 C 0.77232 0.35072 0.26443 0.0
C2212 C 0.76436 0.35164 0.30083 0.0
H2213 H 0.73961 0.36642 0.49588 0.0
H2214 H 0.75249 0.36576 0.43609 0.0
H2215 H 0.74199 0.33491 0.35202 0.0
H2216 H 0.76885 0.34356 0.16654 0.0
H2217 H 0.75708 0.34314 0.22831 0.0
C2218 C 0.9205 0.48447 0.71604 0.0
C2219 C 0.91329 0.47337 0.72017 0.0
C2220 C 0.92055 0.49122 0.68033 0.0
C2221 C 0.89976 0.49887 0.59857 0.0
H2222 H 0.92964 0.5146 0.55249 0.0
C2223 C 0.89861 0.52737 0.45238 0.0
C2224 C 0.90681 0.53773 0.44755 0.0
C2225 C 0.89902 0.52 0.48682 0.0
C2226 C 0.92119 0.51045 0.56546 0.0
H2227 H 0.90073 0.46035 0.68983 0.0
H2228 H 0.90049 0.47247 0.62677 0.0
H2229 H 0.93197 0.49912 0.60632 0.0
H2230 H 0.92151 0.54893 0.47548 0.0
H2231 H 0.92218 0.53603 0.53676 0.0
H2232 H 0.88895 0.51037 0.5585 0.0
C2233 C 0.90626 0.47579 0.65139 0.0
C2234 C 0.92254 0.50147 0.5959 0.0
C2235 C 0.90647 0.46882 0.68719 0.0
C2236 C 0.915 0.54106 0.47881 0.0
C2237 C 0.91549 0.53357 0.51349 0.0
C2238 C 0.89841 0.50791 0.56833 0.0
C2239 C 0.91315 0.48719 0.64803 0.0
C2240 C 0.91184 0.49561 0.61281 0.0
C2241 C 0.9077 0.52276 0.51735 0.0
C2242 C 0.90911 0.51381 0.55141 0.0
H2243 H 0.9258 0.48826 0.74082 0.0
H2244 H 0.92585 0.5 0.67884 0.0
H2245 H 0.89134 0.49471 0.61169 0.0
H2246 H 0.89222 0.52461 0.42857 0.0
H2247 H 0.89299 0.51171 0.48847 0.0
C2248 C 0.21914 0.35376 0.22354 0.0
C2249 C 0.22514 0.34937 0.1887 0.0
C2250 C 0.22584 0.35419 0.25983 0.0
C2251 C 0.25338 0.34072 0.31208 0.0
H2252 H 0.25711 0.37362 0.36201 0.0
C2253 C 0.29138 0.34971 0.43322 0.0
C2254 C 0.2872 0.35662 0.46645 0.0
C2255 C 0.28386 0.34911 0.39866 0.0
C2256 C 0.25607 0.36432 0.34876 0.0
H2257 H 0.2427 0.34163 0.1652 0.0
H2258 H 0.25395 0.34192 0.22776 0.0
H2259 H 0.2422 0.37097 0.30689 0.0
H2260 H 0.27234 0.36888 0.48907 0.0
H2261 H 0.25934 0.36777 0.42972 0.0
H2262 H 0.26715 0.33399 0.35391 0.0
C2263 C 0.2442 0.34513 0.22724 0.0
C2264 C 0.24747 0.36282 0.31739 0.0
C2265 C 0.2377 0.34502 0.19119 0.0
C2266 C 0.27579 0.36342 0.46388 0.0
C2267 C 0.26835 0.36285 0.42966 0.0
C2268 C 0.26188 0.34218 0.34373 0.0
C2269 C 0.23846 0.34989 0.26176 0.0
C2270 C 0.24615 0.35104 0.29851 0.0
C2271 C 0.27212 0.35548 0.3969 0.0
C2272 C 0.26342 0.35402 0.36225 0.0
H2273 H 0.2095 0.35724 0.22244 0.0
H2274 H 0.22124 0.35795 0.28622 0.0
H2275 H 0.25251 0.33154 0.29791 0.0
H2276 H 0.30011 0.34432 0.43461 0.0
H2277 H 0.28712 0.34347 0.37365 0.0
C2278 C 0.41382 0.47036 0.97674 0.0
C2279 C 0.40551 0.47386 0.94592 0.0
C2280 C 0.41476 0.47789 0.01119 0.0
C2281 C 0.39863 0.50381 0.06702 0.0
H2282 H 0.4326 0.51225 0.10217 0.0
C2283 C 0.40747 0.54289 0.18422 0.0
C2284 C 0.41489 0.53871 0.2164 0.0
C2285 C 0.40707 0.53583 0.14872 0.0
C2286 C 0.42305 0.50998 0.09266 0.0
H2287 H 0.39124 0.4874 0.92751 0.0
H2288 H 0.39276 0.50034 0.98713 0.0
H2289 H 0.42963 0.49672 0.04889 0.0
H2290 H 0.42828 0.52448 0.23594 0.0
H2291 H 0.42787 0.51245 0.17439 0.0
H2292 H 0.39206 0.51708 0.11072 0.0
C2293 C 0.39854 0.49189 0.98524 0.0
C2294 C 0.42135 0.50098 0.06246 0.0
C2295 C 0.39769 0.48449 0.95097 0.0
C2296 C 0.42252 0.52794 0.21164 0.0
C2297 C 0.4223 0.52105 0.17621 0.0
C2298 C 0.40034 0.51283 0.09707 0.0
C2299 C 0.40731 0.4889 0.01533 0.0
C2300 C 0.40911 0.49779 0.0493 0.0
C2301 C 0.41425 0.52464 0.14486 0.0
C2302 C 0.41256 0.51599 0.1103 0.0
H2303 H 0.42005 0.46228 0.97325 0.0
H2304 H 0.42152 0.47527 0.03411 0.0
H2305 H 0.38907 0.50147 0.05788 0.0
H2306 H 0.40139 0.5511 0.18743 0.0
H2307 H 0.40083 0.53886 0.12484 0.0
C2308 C 0.23569 0.66682 0.965 0.0
C2309 C 0.22349 0.66156 0.96791 0.0
C2310 C 0.24233 0.66665 0.92914 0.0
C2311 C 0.24718 0.64744 0.84283 0.0
H2312 H 0.26558 0.67652 0.80169 0.0
C2313 C 0.27608 0.64555 0.69753 0.0
C2314 C 0.287 0.65305 0.69351 0.0
C2315 C 0.26859 0.64629 0.73165 0.0
C2316 C 0.26069 0.66827 0.81321 0.0
H2317 H 0.20857 0.65211 0.93507 0.0
H2318 H 0.22056 0.6513 0.87172 0.0
H2319 H 0.2505 0.67927 0.8564 0.0
H2320 H 0.29906 0.66678 0.72277 0.0
H2321 H 0.28603 0.66791 0.78366 0.0
H2322 H 0.25765 0.63632 0.80095 0.0
C2323 C 0.22478 0.65581 0.89756 0.0
C2324 C 0.25192 0.66988 0.8441 0.0
C2325 C 0.21792 0.65632 0.93358 0.0
C2326 C 0.29073 0.66082 0.72535 0.0
C2327 C 0.28317 0.66159 0.75984 0.0
C2328 C 0.25605 0.6458 0.81226 0.0
C2329 C 0.2371 0.66091 0.8953 0.0
C2330 C 0.24511 0.65948 0.85926 0.0
C2331 C 0.27183 0.65453 0.76289 0.0
C2332 C 0.26294 0.65619 0.79706 0.0
H2333 H 0.24036 0.67089 0.99056 0.0
H2334 H 0.25184 0.67051 0.92844 0.0
H2335 H 0.24227 0.63923 0.85463 0.0
H2336 H 0.27298 0.63946 0.67336 0.0
H2337 H 0.25991 0.64082 0.73253 0.0
C2338 C 0.11337 0.52688 0.44464 0.0
C2339 C 0.10652 0.53823 0.44149 0.0
C2340 C 0.11311 0.51977 0.47965 0.0
C2341 C 0.0932 0.5139 0.56799 0.0
H2342 H 0.12227 0.49414 0.60204 0.0
C2343 C 0.09664 0.48739 0.71808 0.0
C2344 C 0.1019 0.47516 0.71858 0.0
C2345 C 0.09627 0.49447 0.68299 0.0
C2346 C 0.11403 0.49945 0.59246 0.0
H2347 H 0.09441 0.55139 0.47306 0.0
H2348 H 0.09411 0.53899 0.53542 0.0
H2349 H 0.12449 0.50919 0.54716 0.0
H2350 H 0.1106 0.46058 0.68239 0.0
H2351 H 0.11032 0.47324 0.62043 0.0
H2352 H 0.08288 0.50435 0.61433 0.0
C2353 C 0.09956 0.53553 0.51029 0.0
C2354 C 0.11529 0.50813 0.56115 0.0
C2355 C 0.09986 0.54272 0.4749 0.0
C2356 C 0.10644 0.46996 0.68275 0.0
C2357 C 0.10634 0.47721 0.64751 0.0
C2358 C 0.09198 0.50531 0.59964 0.0
C2359 C 0.10601 0.52383 0.51271 0.0
C2360 C 0.10488 0.51541 0.54829 0.0
C2361 C 0.1014 0.48961 0.64758 0.0
C2362 C 0.10237 0.49796 0.61205 0.0
H2363 H 0.1186 0.52319 0.41932 0.0
H2364 H 0.11804 0.51078 0.48001 0.0
H2365 H 0.08492 0.51915 0.55845 0.0
H2366 H 0.09301 0.49168 0.74499 0.0
H2367 H 0.09249 0.504 0.68406 0.0
loop_
_geom_bond_atom_site_label_1
_geom_bond_atom_site_label_2
_geom_bond_distance
_geom_bond_site_symmetry_2
_ccdc_geom_bond_type
Co0 O1 2.216 . S
Co0 O2 2.091 . S
Co0 O4 2.004 . S
Co0 O10 2.021 . S
Co0 O12 2.137 . S
Co0 O13 2.244 . S
O1 Co0 2.216 . S
O1 C8 1.247 . S
O2 Co0 2.091 . S
O2 C8 1.261 . S
C3 O12 1.247 . S
C3 O13 1.272 . S
O4 Co0 2.004 . S
O4 C9 1.259 . S
Co5 O6 2.061 . S
Co5 O11 2.052 . S
Co5 O13 2.135 . S
O6 Co5 2.061 . S
O6 C9 1.235 . S
C7 O10 1.238 . S
C7 O11 1.241 . S
C8 O1 1.247 . S
C8 O2 1.261 . S
C9 O4 1.259 . S
C9 O6 1.235 . S
O10 Co0 2.021 . S
O10 C7 1.238 . S
O11 Co5 2.052 . S
O11 C7 1.241 . S
O12 Co0 2.137 . S
O12 C3 1.247 . S
O13 Co0 2.244 . S
O13 C3 1.272 . S
O13 Co5 2.135 . S
Co14 O15 2.216 . S
Co14 O16 2.091 . S
Co14 O18 2.004 . S
Co14 O24 2.021 . S
Co14 O26 2.137 . S
Co14 O27 2.244 . S
O15 Co14 2.216 . S
O15 C22 1.247 . S
O16 Co14 2.091 . S
O16 C22 1.261 . S
C17 O26 1.247 . S
C17 O27 1.272 . S
O18 Co14 2.004 . S
O18 C23 1.259 . S
Co19 O20 2.061 . S
Co19 O25 2.052 . S
Co19 O27 2.135 . S
O20 Co19 2.061 . S
O20 C23 1.235 . S
C21 O24 1.238 . S
C21 O25 1.241 . S
C22 O15 1.247 . S
C22 O16 1.261 . S
C23 O18 1.259 . S
C23 O20 1.235 . S
O24 Co14 2.021 . S
O24 C21 1.238 . S
O25 Co19 2.052 . S
O25 C21 1.241 . S
O26 Co14 2.137 . S
O26 C17 1.247 . S
O27 Co14 2.244 . S
O27 C17 1.272 . S
O27 Co19 2.135 . S
Co28 O29 2.216 . S
Co28 O30 2.091 . S
Co28 O32 2.004 . S
Co28 O38 2.021 . S
Co28 O40 2.137 . S
Co28 O41 2.244 . S
O29 Co28 2.216 . S
O29 C36 1.247 . S
O30 Co28 2.091 . S
O30 C36 1.261 . S
C31 O40 1.247 . S
C31 O41 1.272 . S
O32 Co28 2.004 . S
O32 C37 1.259 . S
Co33 O34 2.061 . S
Co33 O39 2.052 . S
Co33 O41 2.135 . S
O34 Co33 2.061 . S
O34 C37 1.235 . S
C35 O38 1.238 . S
C35 O39 1.241 . S
C36 O29 1.247 . S
C36 O30 1.261 . S
C37 O32 1.259 . S
C37 O34 1.235 . S
O38 Co28 2.021 . S
O38 C35 1.238 . S
O39 Co33 2.052 . S
O39 C35 1.241 . S
O40 Co28 2.137 . S
O40 C31 1.247 . S
O41 Co28 2.244 . S
O41 C31 1.272 . S
O41 Co33 2.135 . S
Co42 O43 2.216 . S
Co42 O44 2.091 . S
Co42 O46 2.004 . S
Co42 O52 2.021 . S
Co42 O54 2.137 . S
Co42 O55 2.244 . S
O43 Co42 2.216 . S
O43 C50 1.247 . S
O44 Co42 2.091 . S
O44 C50 1.261 . S
C45 O54 1.247 . S
C45 O55 1.272 . S
O46 Co42 2.004 . S
O46 C51 1.259 . S
Co47 O48 2.061 . S
Co47 O53 2.052 . S
Co47 O55 2.135 . S
O48 Co47 2.061 . S
O48 C51 1.235 . S
C49 O52 1.238 . S
C49 O53 1.241 . S
C50 O43 1.247 . S
C50 O44 1.261 . S
C51 O46 1.259 . S
C51 O48 1.235 . S
O52 Co42 2.021 . S
O52 C49 1.238 . S
O53 Co47 2.052 . S
O53 C49 1.241 . S
O54 Co42 2.137 . S
O54 C45 1.247 . S
O55 Co42 2.244 . S
O55 C45 1.272 . S
O55 Co47 2.135 . S
Co56 O57 2.216 . S
Co56 O58 2.091 . S
Co56 O60 2.004 . S
Co56 O66 2.021 . S
Co56 O68 2.137 . S
Co56 O69 2.244 . S
O57 Co56 2.216 . S
O57 C64 1.247 . S
O58 Co56 2.091 . S
O58 C64 1.261 . S
C59 O68 1.247 . S
C59 O69 1.272 . S
O60 Co56 2.004 . S
O60 C65 1.259 . S
Co61 O62 2.061 . S
Co61 O67 2.052 . S
Co61 O69 2.135 . S
O62 Co61 2.061 . S
O62 C65 1.235 . S
C63 O66 1.238 . S
C63 O67 1.241 . S
C64 O57 1.247 . S
C64 O58 1.261 . S
C65 O60 1.259 . S
C65 O62 1.235 . S
O66 Co56 2.021 . S
O66 C63 1.238 . S
O67 Co61 2.052 . S
O67 C63 1.241 . S
O68 Co56 2.137 . S
O68 C59 1.247 . S
O69 Co56 2.244 . S
O69 C59 1.272 . S
O69 Co61 2.135 . S
Co70 O71 2.216 . S
Co70 O72 2.091 . S
Co70 O74 2.004 . S
Co70 O80 2.021 . S
Co70 O82 2.137 . S
Co70 O83 2.244 . S
O71 Co70 2.216 . S
O71 C78 1.247 . S
O72 Co70 2.091 . S
O72 C78 1.261 . S
C73 O82 1.247 . S
C73 O83 1.272 . S
O74 Co70 2.004 . S
O74 C79 1.259 . S
Co75 O76 2.061 . S
Co75 O81 2.052 . S
Co75 O83 2.135 . S
O76 Co75 2.061 . S
O76 C79 1.235 . S
C77 O80 1.238 . S
C77 O81 1.241 . S
C78 O71 1.247 . S
C78 O72 1.261 . S
C79 O74 1.259 . S
C79 O76 1.235 . S
O80 Co70 2.021 . S
O80 C77 1.238 . S
O81 Co75 2.052 . S
O81 C77 1.241 . S
O82 Co70 2.137 . S
O82 C73 1.247 . S
O83 Co70 2.244 . S
O83 C73 1.272 . S
O83 Co75 2.135 . S
Co84 O85 2.216 . S
Co84 O86 2.091 . S
Co84 O88 2.004 . S
Co84 O94 2.021 . S
Co84 O96 2.137 . S
Co84 O97 2.244 . S
O85 Co84 2.216 . S
O85 C92 1.247 . S
O86 Co84 2.091 . S
O86 C92 1.261 . S
C87 O96 1.247 . S
C87 O97 1.272 . S
O88 Co84 2.004 . S
O88 C93 1.259 . S
Co89 O90 2.061 . S
Co89 O95 2.052 . S
Co89 O97 2.135 . S
O90 Co89 2.061 . S
O90 C93 1.235 . S
C91 O94 1.238 . S
C91 O95 1.241 . S
C92 O85 1.247 . S
C92 O86 1.261 . S
C93 O88 1.259 . S
C93 O90 1.235 . S
O94 Co84 2.021 . S
O94 C91 1.238 . S
O95 Co89 2.052 . S
O95 C91 1.241 . S
O96 Co84 2.137 . S
O96 C87 1.247 . S
O97 Co84 2.244 . S
O97 C87 1.272 . S
O97 Co89 2.135 . S
Co98 O99 2.216 . S
Co98 O100 2.091 . S
Co98 O102 2.004 . S
Co98 O108 2.021 . S
Co98 O110 2.137 . S
Co98 O111 2.244 . S
O99 Co98 2.216 . S
O99 C106 1.247 . S
O100 Co98 2.091 . S
O100 C106 1.261 . S
C101 O110 1.247 . S
C101 O111 1.272 . S
O102 Co98 2.004 . S
O102 C107 1.259 . S
Co103 O104 2.061 . S
Co103 O109 2.052 . S
Co103 O111 2.135 . S
O104 Co103 2.061 . S
O104 C107 1.235 . S
C105 O108 1.238 . S
C105 O109 1.241 . S
C106 O99 1.247 . S
C106 O100 1.261 . S
C107 O102 1.259 . S
C107 O104 1.235 . S
O108 Co98 2.021 . S
O108 C105 1.238 . S
O109 Co103 2.052 . S
O109 C105 1.241 . S
O110 Co98 2.137 . S
O110 C101 1.247 . S
O111 Co98 2.244 . S
O111 C101 1.272 . S
O111 Co103 2.135 . S
Co112 O113 2.216 . S
Co112 O114 2.091 . S
Co112 O116 2.004 . S
Co112 O122 2.021 . S
Co112 O124 2.137 . S
Co112 O125 2.244 . S
O113 Co112 2.216 . S
O113 C120 1.247 . S
O114 Co112 2.091 . S
O114 C120 1.261 . S
C115 O124 1.247 . S
C115 O125 1.272 . S
O116 Co112 2.004 . S
O116 C121 1.259 . S
Co117 O118 2.061 . S
Co117 O123 2.052 . S
Co117 O125 2.135 . S
O118 Co117 2.061 . S
O118 C121 1.235 . S
C119 O122 1.238 . S
C119 O123 1.241 . S
C120 O113 1.247 . S
C120 O114 1.261 . S
C121 O116 1.259 . S
C121 O118 1.235 . S
O122 Co112 2.021 . S
O122 C119 1.238 . S
O123 Co117 2.052 . S
O123 C119 1.241 . S
O124 Co112 2.137 . S
O124 C115 1.247 . S
O125 Co112 2.244 . S
O125 C115 1.272 . S
O125 Co117 2.135 . S
Co126 O127 2.216 . S
Co126 O128 2.091 . S
Co126 O130 2.004 . S
Co126 O136 2.021 . S
Co126 O138 2.137 . S
Co126 O139 2.244 . S
O127 Co126 2.216 . S
O127 C134 1.247 . S
O128 Co126 2.091 . S
O128 C134 1.261 . S
C129 O138 1.247 . S
C129 O139 1.272 . S
O130 Co126 2.004 . S
O130 C135 1.259 . S
Co131 O132 2.061 . S
Co131 O137 2.052 . S
Co131 O139 2.135 . S
O132 Co131 2.061 . S
O132 C135 1.235 . S
C133 O136 1.238 . S
C133 O137 1.241 . S
C134 O127 1.247 . S
C134 O128 1.261 . S
C135 O130 1.259 . S
C135 O132 1.235 . S
O136 Co126 2.021 . S
O136 C133 1.238 . S
O137 Co131 2.052 . S
O137 C133 1.241 . S
O138 Co126 2.137 . S
O138 C129 1.247 . S
O139 Co126 2.244 . S
O139 C129 1.272 . S
O139 Co131 2.135 . S
Co140 O141 2.216 . S
Co140 O142 2.091 . S
Co140 O144 2.004 . S
Co140 O150 2.021 . S
Co140 O152 2.137 . S
Co140 O153 2.244 . S
O141 Co140 2.216 . S
O141 C148 1.247 . S
O142 Co140 2.091 . S
O142 C148 1.261 . S
C143 O152 1.247 . S
C143 O153 1.272 . S
O144 Co140 2.004 . S
O144 C149 1.259 . S
Co145 O146 2.061 . S
Co145 O151 2.052 . S
Co145 O153 2.135 . S
O146 Co145 2.061 . S
O146 C149 1.235 . S
C147 O150 1.238 . S
C147 O151 1.241 . S
C148 O141 1.247 . S
C148 O142 1.261 . S
C149 O144 1.259 . S
C149 O146 1.235 . S
O150 Co140 2.021 . S
O150 C147 1.238 . S
O151 Co145 2.052 . S
O151 C147 1.241 . S
O152 Co140 2.137 . S
O152 C143 1.247 . S
O153 Co140 2.244 . S
O153 C143 1.272 . S
O153 Co145 2.135 . S
Co154 O155 2.216 . S
Co154 O156 2.091 . S
Co154 O158 2.004 . S
Co154 O164 2.021 . S
Co154 O166 2.137 . S
Co154 O167 2.244 . S
O155 Co154 2.216 . S
O155 C162 1.247 . S
O156 Co154 2.091 . S
O156 C162 1.261 . S
C157 O166 1.247 . S
C157 O167 1.272 . S
O158 Co154 2.004 . S
O158 C163 1.259 . S
Co159 O160 2.061 . S
Co159 O165 2.052 . S
Co159 O167 2.135 . S
O160 Co159 2.061 . S
O160 C163 1.235 . S
C161 O164 1.238 . S
C161 O165 1.241 . S
C162 O155 1.247 . S
C162 O156 1.261 . S
C163 O158 1.259 . S
C163 O160 1.235 . S
O164 Co154 2.021 . S
O164 C161 1.238 . S
O165 Co159 2.052 . S
O165 C161 1.241 . S
O166 Co154 2.137 . S
O166 C157 1.247 . S
O167 Co154 2.244 . S
O167 C157 1.272 . S
O167 Co159 2.135 . S
Co168 O169 2.216 . S
Co168 O170 2.091 . S
Co168 O172 2.004 . S
Co168 O178 2.021 . S
Co168 O180 2.137 . S
Co168 O181 2.244 . S
O169 Co168 2.216 . S
O169 C176 1.247 . S
O170 Co168 2.091 . S
O170 C176 1.261 . S
C171 O180 1.247 . S
C171 O181 1.272 . S
O172 Co168 2.004 . S
O172 C177 1.259 . S
Co173 O174 2.061 . S
Co173 O179 2.052 . S
Co173 O181 2.135 . S
O174 Co173 2.061 . S
O174 C177 1.235 . S
C175 O178 1.238 . S
C175 O179 1.241 . S
C176 O169 1.247 . S
C176 O170 1.261 . S
C177 O172 1.259 . S
C177 O174 1.235 . S
O178 Co168 2.021 . S
O178 C175 1.238 . S
O179 Co173 2.052 . S
O179 C175 1.241 . S
O180 Co168 2.137 . S
O180 C171 1.247 . S
O181 Co168 2.244 . S
O181 C171 1.272 . S
O181 Co173 2.135 . S
Co182 O183 2.216 . S
Co182 O184 2.091 . S
Co182 O186 2.004 . S
Co182 O192 2.021 . S
Co182 O194 2.137 . S
Co182 O195 2.244 . S
O183 Co182 2.216 . S
O183 C190 1.247 . S
O184 Co182 2.091 . S
O184 C190 1.261 . S
C185 O194 1.247 . S
C185 O195 1.272 . S
O186 Co182 2.004 . S
O186 C191 1.259 . S
Co187 O188 2.061 . S
Co187 O193 2.052 . S
Co187 O195 2.135 . S
O188 Co187 2.061 . S
O188 C191 1.235 . S
C189 O192 1.238 . S
C189 O193 1.241 . S
C190 O183 1.247 . S
C190 O184 1.261 . S
C191 O186 1.259 . S
C191 O188 1.235 . S
O192 Co182 2.021 . S
O192 C189 1.238 . S
O193 Co187 2.052 . S
O193 C189 1.241 . S
O194 Co182 2.137 . S
O194 C185 1.247 . S
O195 Co182 2.244 . S
O195 C185 1.272 . S
O195 Co187 2.135 . S
Co196 O197 2.216 . S
Co196 O198 2.091 . S
Co196 O200 2.004 . S
Co196 O206 2.021 . S
Co196 O208 2.137 . S
Co196 O209 2.244 . S
O197 Co196 2.216 . S
O197 C204 1.247 . S
O198 Co196 2.091 . S
O198 C204 1.261 . S
C199 O208 1.247 . S
C199 O209 1.272 . S
O200 Co196 2.004 . S
O200 C205 1.259 . S
Co201 O202 2.061 . S
Co201 O207 2.052 . S
Co201 O209 2.135 . S
O202 Co201 2.061 . S
O202 C205 1.235 . S
C203 O206 1.238 . S
C203 O207 1.241 . S
C204 O197 1.247 . S
C204 O198 1.261 . S
C205 O200 1.259 . S
C205 O202 1.235 . S
O206 Co196 2.021 . S
O206 C203 1.238 . S
O207 Co201 2.052 . S
O207 C203 1.241 . S
O208 Co196 2.137 . S
O208 C199 1.247 . S
O209 Co196 2.244 . S
O209 C199 1.272 . S
O209 Co201 2.135 . S
Co210 O211 2.216 . S
Co210 O212 2.091 . S
Co210 O214 2.004 . S
Co210 O220 2.021 . S
Co210 O222 2.137 . S
Co210 O223 2.244 . S
O211 Co210 2.216 . S
O211 C218 1.247 . S
O212 Co210 2.091 . S
O212 C218 1.261 . S
C213 O222 1.247 . S
C213 O223 1.272 . S
O214 Co210 2.004 . S
O214 C219 1.259 . S
Co215 O216 2.061 . S
Co215 O221 2.052 . S
Co215 O223 2.135 . S
O216 Co215 2.061 . S
O216 C219 1.235 . S
C217 O220 1.238 . S
C217 O221 1.241 . S
C218 O211 1.247 . S
C218 O212 1.261 . S
C219 O214 1.259 . S
C219 O216 1.235 . S
O220 Co210 2.021 . S
O220 C217 1.238 . S
O221 Co215 2.052 . S
O221 C217 1.241 . S
O222 Co210 2.137 . S
O222 C213 1.247 . S
O223 Co210 2.244 . S
O223 C213 1.272 . S
O223 Co215 2.135 . S
Co224 O225 2.216 . S
Co224 O226 2.091 . S
Co224 O228 2.004 . S
Co224 O234 2.021 . S
Co224 O236 2.137 . S
Co224 O237 2.244 . S
O225 Co224 2.216 . S
O225 C232 1.247 . S
O226 Co224 2.091 . S
O226 C232 1.261 . S
C227 O236 1.247 . S
C227 O237 1.272 . S
O228 Co224 2.004 . S
O228 C233 1.259 . S
Co229 O230 2.061 . S
Co229 O235 2.052 . S
Co229 O237 2.135 . S
O230 Co229 2.061 . S
O230 C233 1.235 . S
C231 O234 1.238 . S
C231 O235 1.241 . S
C232 O225 1.247 . S
C232 O226 1.261 . S
C233 O228 1.259 . S
C233 O230 1.235 . S
O234 Co224 2.021 . S
O234 C231 1.238 . S
O235 Co229 2.052 . S
O235 C231 1.241 . S
O236 Co224 2.137 . S
O236 C227 1.247 . S
O237 Co224 2.244 . S
O237 C227 1.272 . S
O237 Co229 2.135 . S
Co238 O239 2.216 . S
Co238 O240 2.091 . S
Co238 O242 2.004 . S
Co238 O248 2.021 . S
Co238 O250 2.137 . S
Co238 O251 2.244 . S
O239 Co238 2.216 . S
O239 C246 1.247 . S
O240 Co238 2.091 . S
O240 C246 1.261 . S
C241 O250 1.247 . S
C241 O251 1.272 . S
O242 Co238 2.004 . S
O242 C247 1.259 . S
Co243 O244 2.061 . S
Co243 O249 2.052 . S
Co243 O251 2.135 . S
O244 Co243 2.061 . S
O244 C247 1.235 . S
C245 O248 1.238 . S
C245 O249 1.241 . S
C246 O239 1.247 . S
C246 O240 1.261 . S
C247 O242 1.259 . S
C247 O244 1.235 . S
O248 Co238 2.021 . S
O248 C245 1.238 . S
O249 Co243 2.052 . S
O249 C245 1.241 . S
O250 Co238 2.137 . S
O250 C241 1.247 . S
O251 Co238 2.244 . S
O251 C241 1.272 . S
O251 Co243 2.135 . S
Co252 O253 2.216 . S
Co252 O254 2.091 . S
Co252 O256 2.004 . S
Co252 O262 2.021 . S
Co252 O264 2.137 . S
Co252 O265 2.244 . S
O253 Co252 2.216 . S
O253 C260 1.247 . S
O254 Co252 2.091 . S
O254 C260 1.261 . S
C255 O264 1.247 . S
C255 O265 1.272 . S
O256 Co252 2.004 . S
O256 C261 1.259 . S
Co257 O258 2.061 . S
Co257 O263 2.052 . S
Co257 O265 2.135 . S
O258 Co257 2.061 . S
O258 C261 1.235 . S
C259 O262 1.238 . S
C259 O263 1.241 . S
C260 O253 1.247 . S
C260 O254 1.261 . S
C261 O256 1.259 . S
C261 O258 1.235 . S
O262 Co252 2.021 . S
O262 C259 1.238 . S
O263 Co257 2.052 . S
O263 C259 1.241 . S
O264 Co252 2.137 . S
O264 C255 1.247 . S
O265 Co252 2.244 . S
O265 C255 1.272 . S
O265 Co257 2.135 . S
Co266 O267 2.216 . S
Co266 O268 2.091 . S
Co266 O270 2.004 . S
Co266 O276 2.021 . S
Co266 O278 2.137 . S
Co266 O279 2.244 . S
O267 Co266 2.216 . S
O267 C274 1.247 . S
O268 Co266 2.091 . S
O268 C274 1.261 . S
C269 O278 1.247 . S
C269 O279 1.272 . S
O270 Co266 2.004 . S
O270 C275 1.259 . S
Co271 O272 2.061 . S
Co271 O277 2.052 . S
Co271 O279 2.135 . S
O272 Co271 2.061 . S
O272 C275 1.235 . S
C273 O276 1.238 . S
C273 O277 1.241 . S
C274 O267 1.247 . S
C274 O268 1.261 . S
C275 O270 1.259 . S
C275 O272 1.235 . S
O276 Co266 2.021 . S
O276 C273 1.238 . S
O277 Co271 2.052 . S
O277 C273 1.241 . S
O278 Co266 2.137 . S
O278 C269 1.247 . S
O279 Co266 2.244 . S
O279 C269 1.272 . S
O279 Co271 2.135 . S
Co280 O281 2.216 . S
Co280 O282 2.091 . S
Co280 O284 2.004 . S
Co280 O290 2.021 . S
Co280 O292 2.137 . S
Co280 O293 2.244 . S
O281 Co280 2.216 . S
O281 C288 1.247 . S
O282 Co280 2.091 . S
O282 C288 1.261 . S
C283 O292 1.247 . S
C283 O293 1.272 . S
O284 Co280 2.004 . S
O284 C289 1.259 . S
Co285 O286 2.061 . S
Co285 O291 2.052 . S
Co285 O293 2.135 . S
O286 Co285 2.061 . S
O286 C289 1.235 . S
C287 O290 1.238 . S
C287 O291 1.241 . S
C288 O281 1.247 . S
C288 O282 1.261 . S
C289 O284 1.259 . S
C289 O286 1.235 . S
O290 Co280 2.021 . S
O290 C287 1.238 . S
O291 Co285 2.052 . S
O291 C287 1.241 . S
O292 Co280 2.137 . S
O292 C283 1.247 . S
O293 Co280 2.244 . S
O293 C283 1.272 . S
O293 Co285 2.135 . S
Co294 O295 2.216 . S
Co294 O296 2.091 . S
Co294 O298 2.004 . S
Co294 O304 2.021 . S
Co294 O306 2.137 . S
Co294 O307 2.244 . S
O295 Co294 2.216 . S
O295 C302 1.247 . S
O296 Co294 2.091 . S
O296 C302 1.261 . S
C297 O306 1.247 . S
C297 O307 1.272 . S
O298 Co294 2.004 . S
O298 C303 1.259 . S
Co299 O300 2.061 . S
Co299 O305 2.052 . S
Co299 O307 2.135 . S
O300 Co299 2.061 . S
O300 C303 1.235 . S
C301 O304 1.238 . S
C301 O305 1.241 . S
C302 O295 1.247 . S
C302 O296 1.261 . S
C303 O298 1.259 . S
C303 O300 1.235 . S
O304 Co294 2.021 . S
O304 C301 1.238 . S
O305 Co299 2.052 . S
O305 C301 1.241 . S
O306 Co294 2.137 . S
O306 C297 1.247 . S
O307 Co294 2.244 . S
O307 C297 1.272 . S
O307 Co299 2.135 . S
Co308 O309 2.216 . S
Co308 O310 2.091 . S
Co308 O312 2.004 . S
Co308 O318 2.021 . S
Co308 O320 2.137 . S
Co308 O321 2.244 . S
O309 Co308 2.216 . S
O309 C316 1.247 . S
O310 Co308 2.091 . S
O310 C316 1.261 . S
C311 O320 1.247 . S
C311 O321 1.272 . S
O312 Co308 2.004 . S
O312 C317 1.259 . S
Co313 O314 2.061 . S
Co313 O319 2.052 . S
Co313 O321 2.135 . S
O314 Co313 2.061 . S
O314 C317 1.235 . S
C315 O318 1.238 . S
C315 O319 1.241 . S
C316 O309 1.247 . S
C316 O310 1.261 . S
C317 O312 1.259 . S
C317 O314 1.235 . S
O318 Co308 2.021 . S
O318 C315 1.238 . S
O319 Co313 2.052 . S
O319 C315 1.241 . S
O320 Co308 2.137 . S
O320 C311 1.247 . S
O321 Co308 2.244 . S
O321 C311 1.272 . S
O321 Co313 2.135 . S
Co322 O323 2.216 . S
Co322 O324 2.091 . S
Co322 O326 2.004 . S
Co322 O332 2.021 . S
Co322 O334 2.137 . S
Co322 O335 2.244 . S
O323 Co322 2.216 . S
O323 C330 1.247 . S
O324 Co322 2.091 . S
O324 C330 1.261 . S
C325 O334 1.247 . S
C325 O335 1.272 . S
O326 Co322 2.004 . S
O326 C331 1.259 . S
Co327 O328 2.061 . S
Co327 O333 2.052 . S
Co327 O335 2.135 . S
O328 Co327 2.061 . S
O328 C331 1.235 . S
C329 O332 1.238 . S
C329 O333 1.241 . S
C330 O323 1.247 . S
C330 O324 1.261 . S
C331 O326 1.259 . S
C331 O328 1.235 . S
O332 Co322 2.021 . S
O332 C329 1.238 . S
O333 Co327 2.052 . S
O333 C329 1.241 . S
O334 Co322 2.137 . S
O334 C325 1.247 . S
O335 Co322 2.244 . S
O335 C325 1.272 . S
O335 Co327 2.135 . S
Co336 O337 2.216 . S
Co336 O338 2.091 . S
Co336 O340 2.004 . S
Co336 O346 2.021 . S
Co336 O348 2.137 . S
Co336 O349 2.244 . S
O337 Co336 2.216 . S
O337 C344 1.247 . S
O338 Co336 2.091 . S
O338 C344 1.261 . S
C339 O348 1.247 . S
C339 O349 1.272 . S
O340 Co336 2.004 . S
O340 C345 1.259 . S
Co341 O342 2.061 . S
Co341 O347 2.052 . S
Co341 O349 2.135 . S
O342 Co341 2.061 . S
O342 C345 1.235 . S
C343 O346 1.238 . S
C343 O347 1.241 . S
C344 O337 1.247 . S
C344 O338 1.261 . S
C345 O340 1.259 . S
C345 O342 1.235 . S
O346 Co336 2.021 . S
O346 C343 1.238 . S
O347 Co341 2.052 . S
O347 C343 1.241 . S
O348 Co336 2.137 . S
O348 C339 1.247 . S
O349 Co336 2.244 . S
O349 C339 1.272 . S
O349 Co341 2.135 . S
Co350 O351 2.216 . S
Co350 O352 2.091 . S
Co350 O354 2.004 . S
Co350 O360 2.021 . S
Co350 O362 2.137 . S
Co350 O363 2.244 . S
O351 Co350 2.216 . S
O351 C358 1.247 . S
O352 Co350 2.091 . S
O352 C358 1.261 . S
C353 O362 1.247 . S
C353 O363 1.272 . S
O354 Co350 2.004 . S
O354 C359 1.259 . S
Co355 O356 2.061 . S
Co355 O361 2.052 . S
Co355 O363 2.135 . S
O356 Co355 2.061 . S
O356 C359 1.235 . S
C357 O360 1.238 . S
C357 O361 1.241 . S
C358 O351 1.247 . S
C358 O352 1.261 . S
C359 O354 1.259 . S
C359 O356 1.235 . S
O360 Co350 2.021 . S
O360 C357 1.238 . S
O361 Co355 2.052 . S
O361 C357 1.241 . S
O362 Co350 2.137 . S
O362 C353 1.247 . S
O363 Co350 2.244 . S
O363 C353 1.272 . S
O363 Co355 2.135 . S
Co364 O365 2.216 . S
Co364 O366 2.091 . S
Co364 O368 2.004 . S
Co364 O374 2.021 . S
Co364 O376 2.137 . S
Co364 O377 2.244 . S
O365 Co364 2.216 . S
O365 C372 1.247 . S
O366 Co364 2.091 . S
O366 C372 1.261 . S
C367 O376 1.247 . S
C367 O377 1.272 . S
O368 Co364 2.004 . S
O368 C373 1.259 . S
Co369 O370 2.061 . S
Co369 O375 2.052 . S
Co369 O377 2.135 . S
O370 Co369 2.061 . S
O370 C373 1.235 . S
C371 O374 1.238 . S
C371 O375 1.241 . S
C372 O365 1.247 . S
C372 O366 1.261 . S
C373 O368 1.259 . S
C373 O370 1.235 . S
O374 Co364 2.021 . S
O374 C371 1.238 . S
O375 Co369 2.052 . S
O375 C371 1.241 . S
O376 Co364 2.137 . S
O376 C367 1.247 . S
O377 Co364 2.244 . S
O377 C367 1.272 . S
O377 Co369 2.135 . S
Co378 O379 2.216 . S
Co378 O380 2.091 . S
Co378 O382 2.004 . S
Co378 O388 2.021 . S
Co378 O390 2.137 . S
Co378 O391 2.244 . S
O379 Co378 2.216 . S
O379 C386 1.247 . S
O380 Co378 2.091 . S
O380 C386 1.261 . S
C381 O390 1.247 . S
C381 O391 1.272 . S
O382 Co378 2.004 . S
O382 C387 1.259 . S
Co383 O384 2.061 . S
Co383 O389 2.052 . S
Co383 O391 2.135 . S
O384 Co383 2.061 . S
O384 C387 1.235 . S
C385 O388 1.238 . S
C385 O389 1.241 . S
C386 O379 1.247 . S
C386 O380 1.261 . S
C387 O382 1.259 . S
C387 O384 1.235 . S
O388 Co378 2.021 . S
O388 C385 1.238 . S
O389 Co383 2.052 . S
O389 C385 1.241 . S
O390 Co378 2.137 . S
O390 C381 1.247 . S
O391 Co378 2.244 . S
O391 C381 1.272 . S
O391 Co383 2.135 . S
Co392 O393 2.216 . S
Co392 O394 2.091 . S
Co392 O396 2.004 . S
Co392 O402 2.021 . S
Co392 O404 2.137 . S
Co392 O405 2.244 . S
O393 Co392 2.216 . S
O393 C400 1.247 . S
O394 Co392 2.091 . S
O394 C400 1.261 . S
C395 O404 1.247 . S
C395 O405 1.272 . S
O396 Co392 2.004 . S
O396 C401 1.259 . S
Co397 O398 2.061 . S
Co397 O403 2.052 . S
Co397 O405 2.135 . S
O398 Co397 2.061 . S
O398 C401 1.235 . S
C399 O402 1.238 . S
C399 O403 1.241 . S
C400 O393 1.247 . S
C400 O394 1.261 . S
C401 O396 1.259 . S
C401 O398 1.235 . S
O402 Co392 2.021 . S
O402 C399 1.238 . S
O403 Co397 2.052 . S
O403 C399 1.241 . S
O404 Co392 2.137 . S
O404 C395 1.247 . S
O405 Co392 2.244 . S
O405 C395 1.272 . S
O405 Co397 2.135 . S
Co406 O407 2.216 . S
Co406 O408 2.091 . S
Co406 O410 2.004 . S
Co406 O416 2.021 . S
Co406 O418 2.137 . S
Co406 O419 2.244 . S
O407 Co406 2.216 . S
O407 C414 1.247 . S
O408 Co406 2.091 . S
O408 C414 1.261 . S
C409 O418 1.247 . S
C409 O419 1.272 . S
O410 Co406 2.004 . S
O410 C415 1.259 . S
Co411 O412 2.061 . S
Co411 O417 2.052 . S
Co411 O419 2.135 . S
O412 Co411 2.061 . S
O412 C415 1.235 . S
C413 O416 1.238 . S
C413 O417 1.241 . S
C414 O407 1.247 . S
C414 O408 1.261 . S
C415 O410 1.259 . S
C415 O412 1.235 . S
O416 Co406 2.021 . S
O416 C413 1.238 . S
O417 Co411 2.052 . S
O417 C413 1.241 . S
O418 Co406 2.137 . S
O418 C409 1.247 . S
O419 Co406 2.244 . S
O419 C409 1.272 . S
O419 Co411 2.135 . S
Co420 O421 2.216 . S
Co420 O422 2.091 . S
Co420 O424 2.004 . S
Co420 O430 2.021 . S
Co420 O432 2.137 . S
Co420 O433 2.244 . S
O421 Co420 2.216 . S
O421 C428 1.247 . S
O422 Co420 2.091 . S
O422 C428 1.261 . S
C423 O432 1.247 . S
C423 O433 1.272 . S
O424 Co420 2.004 . S
O424 C429 1.259 . S
Co425 O426 2.061 . S
Co425 O431 2.052 . S
Co425 O433 2.135 . S
O426 Co425 2.061 . S
O426 C429 1.235 . S
C427 O430 1.238 . S
C427 O431 1.241 . S
C428 O421 1.247 . S
C428 O422 1.261 . S
C429 O424 1.259 . S
C429 O426 1.235 . S
O430 Co420 2.021 . S
O430 C427 1.238 . S
O431 Co425 2.052 . S
O431 C427 1.241 . S
O432 Co420 2.137 . S
O432 C423 1.247 . S
O433 Co420 2.244 . S
O433 C423 1.272 . S
O433 Co425 2.135 . S
Co434 O435 2.216 . S
Co434 O436 2.091 . S
Co434 O438 2.004 . S
Co434 O444 2.021 . S
Co434 O446 2.137 . S
Co434 O447 2.244 . S
O435 Co434 2.216 . S
O435 C442 1.247 . S
O436 Co434 2.091 . S
O436 C442 1.261 . S
C437 O446 1.247 . S
C437 O447 1.272 . S
O438 Co434 2.004 . S
O438 C443 1.259 . S
Co439 O440 2.061 . S
Co439 O445 2.052 . S
Co439 O447 2.135 . S
O440 Co439 2.061 . S
O440 C443 1.235 . S
C441 O444 1.238 . S
C441 O445 1.241 . S
C442 O435 1.247 . S
C442 O436 1.261 . S
C443 O438 1.259 . S
C443 O440 1.235 . S
O444 Co434 2.021 . S
O444 C441 1.238 . S
O445 Co439 2.052 . S
O445 C441 1.241 . S
O446 Co434 2.137 . S
O446 C437 1.247 . S
O447 Co434 2.244 . S
O447 C437 1.272 . S
O447 Co439 2.135 . S
C448 C449 1.349 . S
C448 C450 1.327 . S
C448 H473 0.950 . S
C449 C448 1.349 . S
C449 C465 1.349 . S
C450 C448 1.327 . S
C450 C469 1.429 . S
C450 H474 0.950 . S
C451 C468 1.574 1_556 S
C451 C470 1.368 . S
C451 H475 0.941 1_556 S
H452 C456 0.949 . S
C453 C454 1.349 . S
C453 C455 1.327 . S
C453 H476 0.950 . S
C454 C453 1.349 . S
C454 C466 1.349 . S
C455 C453 1.327 . S
C455 C471 1.429 . S
C455 H477 0.950 . S
C456 H452 0.949 . S
C456 C464 1.574 . S
C456 C472 1.368 . S
H457 C465 0.950 . S
H458 C463 0.950 . S
H459 C464 0.949 . S
H460 C466 0.950 1_556 S
H461 C467 0.950 . S
H462 C468 0.949 . S
C463 H458 0.950 . S
C463 C465 1.327 . S
C463 C469 1.429 . S
C464 C456 1.574 . S
C464 H459 0.949 . S
C464 C470 1.368 . S
C465 C449 1.349 . S
C465 H457 0.950 . S
C465 C463 1.327 . S
C466 C454 1.349 . S
C466 H460 0.950 1_554 S
C466 C467 1.327 1_554 S
C467 H461 0.950 . S
C467 C466 1.327 1_556 S
C467 C471 1.429 1_556 S
C468 C451 1.574 1_554 S
C468 H462 0.949 . S
C468 C472 1.368 1_554 S
C469 C450 1.429 . S
C469 C463 1.429 . S
C469 C470 1.523 . S
C470 C451 1.368 . S
C470 C464 1.368 . S
C470 C469 1.523 . S
C471 C455 1.429 . S
C471 C467 1.429 1_554 S
C471 C472 1.523 1_554 S
C472 C456 1.368 . S
C472 C468 1.368 1_556 S
C472 C471 1.523 1_556 S
H473 C448 0.950 . S
H474 C450 0.950 . S
H475 C451 0.941 1_554 S
H476 C453 0.950 . S
H477 C455 0.950 . S
C478 C479 1.349 . S
C478 C480 1.327 . S
C478 H503 0.950 . S
C479 C478 1.349 . S
C479 C495 1.349 . S
C480 C478 1.327 . S
C480 C499 1.429 . S
C480 H504 0.950 . S
C481 C498 1.574 . S
C481 C500 1.368 . S
C481 H505 0.949 . S
H482 C486 0.949 . S
C483 C484 1.349 . S
C483 C485 1.327 . S
C483 H506 0.950 . S
C484 C483 1.349 . S
C484 C496 1.349 . S
C485 C483 1.327 . S
C485 C501 1.429 . S
C485 H507 0.950 . S
C486 H482 0.949 . S
C486 C494 1.574 . S
C486 C502 1.368 . S
H487 C495 0.950 . S
H488 C493 0.950 . S
H489 C494 0.949 . S
H490 C496 0.950 . S
H491 C497 0.950 . S
H492 C498 0.949 . S
C493 H488 0.950 . S
C493 C495 1.327 . S
C493 C499 1.429 . S
C494 C486 1.574 . S
C494 H489 0.949 . S
C494 C500 1.368 . S
C495 C479 1.349 . S
C495 H487 0.950 . S
C495 C493 1.327 . S
C496 C484 1.349 . S
C496 H490 0.950 . S
C496 C497 1.327 . S
C497 H491 0.950 . S
C497 C496 1.327 . S
C497 C501 1.429 . S
C498 C481 1.574 . S
C498 H492 0.949 . S
C498 C502 1.368 . S
C499 C480 1.429 . S
C499 C493 1.429 . S
C499 C500 1.523 . S
C500 C481 1.368 . S
C500 C494 1.368 . S
C500 C499 1.523 . S
C501 C485 1.429 . S
C501 C497 1.429 . S
C501 C502 1.523 . S
C502 C486 1.368 . S
C502 C498 1.368 . S
C502 C501 1.523 . S
H503 C478 0.950 . S
H504 C480 0.950 . S
H505 C481 0.949 . S
H506 C483 0.950 . S
H507 C485 0.950 . S
C508 C509 1.349 . S
C508 C510 1.327 . S
C508 H533 0.950 . S
C509 C508 1.349 . S
C509 C525 1.349 . S
C510 C508 1.327 . S
C510 C529 1.429 . S
C510 H534 0.950 . S
C511 C528 1.574 . S
C511 C530 1.368 . S
C511 H535 0.949 . S
H512 C516 0.949 . S
C513 C514 1.349 . S
C513 C515 1.327 . S
C513 H536 0.950 . S
C514 C513 1.349 . S
C514 C526 1.349 . S
C515 C513 1.327 . S
C515 C531 1.429 . S
C515 H537 0.950 . S
C516 H512 0.949 . S
C516 C524 1.574 . S
C516 C532 1.368 . S
H517 C525 0.950 . S
H518 C523 0.950 . S
H519 C524 0.949 . S
H520 C526 0.950 . S
H521 C527 0.950 . S
H522 C528 0.949 . S
C523 H518 0.950 . S
C523 C525 1.327 . S
C523 C529 1.429 . S
C524 C516 1.574 . S
C524 H519 0.949 . S
C524 C530 1.368 . S
C525 C509 1.349 . S
C525 H517 0.950 . S
C525 C523 1.327 . S
C526 C514 1.349 . S
C526 H520 0.950 . S
C526 C527 1.327 . S
C527 H521 0.950 . S
C527 C526 1.327 . S
C527 C531 1.429 . S
C528 C511 1.574 . S
C528 H522 0.949 . S
C528 C532 1.368 . S
C529 C510 1.429 . S
C529 C523 1.429 . S
C529 C530 1.523 . S
C530 C511 1.368 . S
C530 C524 1.368 . S
C530 C529 1.523 . S
C531 C515 1.429 . S
C531 C527 1.429 . S
C531 C532 1.523 . S
C532 C516 1.368 . S
C532 C528 1.368 . S
C532 C531 1.523 . S
H533 C508 0.950 . S
H534 C510 0.950 . S
H535 C511 0.949 . S
H536 C513 0.950 . S
H537 C515 0.950 . S
C538 C539 1.349 . S
C538 C540 1.327 . S
C538 H563 0.950 . S
C539 C538 1.349 . S
C539 C555 1.349 . S
C540 C538 1.327 . S
C540 C559 1.429 . S
C540 H564 0.950 . S
C541 C558 1.574 . S
C541 C560 1.368 . S
C541 H565 0.949 . S
H542 C546 0.949 . S
C543 C544 1.349 . S
C543 C545 1.327 . S
C543 H566 0.950 . S
C544 C543 1.349 . S
C544 C556 1.349 . S
C545 C543 1.327 . S
C545 C561 1.429 . S
C545 H567 0.950 . S
C546 H542 0.949 . S
C546 C554 1.574 . S
C546 C562 1.368 . S
H547 C555 0.950 . S
H548 C553 0.950 . S
H549 C554 0.949 . S
H550 C556 0.950 . S
H551 C557 0.950 . S
H552 C558 0.949 . S
C553 H548 0.950 . S
C553 C555 1.327 . S
C553 C559 1.429 . S
C554 C546 1.574 . S
C554 H549 0.949 . S
C554 C560 1.368 . S
C555 C539 1.349 . S
C555 H547 0.950 . S
C555 C553 1.327 . S
C556 C544 1.349 . S
C556 H550 0.950 . S
C556 C557 1.327 . S
C557 H551 0.950 . S
C557 C556 1.327 . S
C557 C561 1.429 . S
C558 C541 1.574 . S
C558 H552 0.949 . S
C558 C562 1.368 . S
C559 C540 1.429 . S
C559 C553 1.429 . S
C559 C560 1.523 . S
C560 C541 1.368 . S
C560 C554 1.368 . S
C560 C559 1.523 . S
C561 C545 1.429 . S
C561 C557 1.429 . S
C561 C562 1.523 . S
C562 C546 1.368 . S
C562 C558 1.368 . S
C562 C561 1.523 . S
H563 C538 0.950 . S
H564 C540 0.950 . S
H565 C541 0.949 . S
H566 C543 0.950 . S
H567 C545 0.950 . S
C568 C569 1.349 . S
C568 C570 1.327 . S
C568 H593 0.950 . S
C569 C568 1.349 . S
C569 C585 1.349 . S
C570 C568 1.327 . S
C570 C589 1.429 . S
C570 H594 0.950 . S
C571 C588 1.574 . S
C571 C590 1.368 . S
C571 H595 0.949 . S
H572 C576 0.949 . S
C573 C574 1.349 . S
C573 C575 1.327 . S
C573 H596 0.950 . S
C574 C573 1.349 . S
C574 C586 1.349 . S
C575 C573 1.327 . S
C575 C591 1.429 . S
C575 H597 0.950 . S
C576 H572 0.949 . S
C576 C584 1.574 . S
C576 C592 1.368 . S
H577 C585 0.950 . S
H578 C583 0.950 . S
H579 C584 0.949 . S
H580 C586 0.950 . S
H581 C587 0.950 . S
H582 C588 0.949 . S
C583 H578 0.950 . S
C583 C585 1.327 . S
C583 C589 1.429 . S
C584 C576 1.574 . S
C584 H579 0.949 . S
C584 C590 1.368 . S
C585 C569 1.349 . S
C585 H577 0.950 . S
C585 C583 1.327 . S
C586 C574 1.349 . S
C586 H580 0.950 . S
C586 C587 1.327 . S
C587 H581 0.950 . S
C587 C586 1.327 . S
C587 C591 1.429 . S
C588 C571 1.574 . S
C588 H582 0.949 . S
C588 C592 1.368 . S
C589 C570 1.429 . S
C589 C583 1.429 . S
C589 C590 1.523 . S
C590 C571 1.368 . S
C590 C584 1.368 . S
C590 C589 1.523 . S
C591 C575 1.429 . S
C591 C587 1.429 . S
C591 C592 1.523 . S
C592 C576 1.368 . S
C592 C588 1.368 . S
C592 C591 1.523 . S
H593 C568 0.950 . S
H594 C570 0.950 . S
H595 C571 0.949 . S
H596 C573 0.950 . S
H597 C575 0.950 . S
C598 C599 1.349 . S
C598 C600 1.327 . S
C598 H623 0.950 . S
C599 C598 1.349 . S
C599 C615 1.349 . S
C600 C598 1.327 . S
C600 C619 1.429 . S
C600 H624 0.950 . S
C601 C618 1.574 1_556 S
C601 C620 1.368 . S
C601 H625 0.949 1_556 S
H602 C606 0.949 . S
C603 C604 1.349 . S
C603 C605 1.327 . S
C603 H626 0.950 . S
C604 C603 1.349 . S
C604 C616 1.349 . S
C605 C603 1.327 . S
C605 C621 1.429 . S
C605 H627 0.950 . S
C606 H602 0.949 . S
C606 C614 1.574 . S
C606 C622 1.368 . S
H607 C615 0.950 . S
H608 C613 0.950 . S
H609 C614 0.949 . S
H610 C616 0.950 1_556 S
H611 C617 0.950 . S
H612 C618 0.949 . S
C613 H608 0.950 . S
C613 C615 1.327 . S
C613 C619 1.429 . S
C614 C606 1.574 . S
C614 H609 0.949 . S
C614 C620 1.368 . S
C615 C599 1.349 . S
C615 H607 0.950 . S
C615 C613 1.327 . S
C616 C604 1.349 . S
C616 H610 0.950 1_554 S
C616 C617 1.327 1_554 S
C617 H611 0.950 . S
C617 C616 1.327 1_556 S
C617 C621 1.429 1_556 S
C618 C601 1.574 1_554 S
C618 H612 0.949 . S
C618 C622 1.368 1_554 S
C619 C600 1.429 . S
C619 C613 1.429 . S
C619 C620 1.523 . S
C620 C601 1.368 . S
C620 C614 1.368 . S
C620 C619 1.523 . S
C621 C605 1.429 . S
C621 C617 1.429 1_554 S
C621 C622 1.523 1_554 S
C622 C606 1.368 . S
C622 C618 1.368 1_556 S
C622 C621 1.523 1_556 S
H623 C598 0.950 . S
H624 C600 0.950 . S
H625 C601 0.949 1_554 S
H626 C603 0.950 . S
H627 C605 0.950 . S
C628 C629 1.349 . S
C628 C630 1.327 . S
C628 H653 0.950 . S
C629 C628 1.349 . S
C629 C645 1.349 . S
C630 C628 1.327 . S
C630 C649 1.429 . S
C630 H654 0.950 . S
C631 C648 1.574 . S
C631 C650 1.368 . S
C631 H655 0.949 . S
H632 C636 0.949 . S
C633 C634 1.349 . S
C633 C635 1.327 . S
C633 H656 0.950 . S
C634 C633 1.349 . S
C634 C646 1.349 . S
C635 C633 1.327 . S
C635 C651 1.429 . S
C635 H657 0.950 . S
C636 H632 0.949 . S
C636 C644 1.574 . S
C636 C652 1.368 . S
H637 C645 0.950 . S
H638 C643 0.950 . S
H639 C644 0.949 . S
H640 C646 0.950 . S
H641 C647 0.950 . S
H642 C648 0.949 . S
C643 H638 0.950 . S
C643 C645 1.327 . S
C643 C649 1.429 . S
C644 C636 1.574 . S
C644 H639 0.949 . S
C644 C650 1.368 . S
C645 C629 1.349 . S
C645 H637 0.950 . S
C645 C643 1.327 . S
C646 C634 1.349 . S
C646 H640 0.950 . S
C646 C647 1.327 . S
C647 H641 0.950 . S
C647 C646 1.327 . S
C647 C651 1.429 . S
C648 C631 1.574 . S
C648 H642 0.949 . S
C648 C652 1.368 . S
C649 C630 1.429 . S
C649 C643 1.429 . S
C649 C650 1.523 . S
C650 C631 1.368 . S
C650 C644 1.368 . S
C650 C649 1.523 . S
C651 C635 1.429 . S
C651 C647 1.429 . S
C651 C652 1.523 . S
C652 C636 1.368 . S
C652 C648 1.368 . S
C652 C651 1.523 . S
H653 C628 0.950 . S
H654 C630 0.950 . S
H655 C631 0.949 . S
H656 C633 0.950 . S
H657 C635 0.950 . S
C658 C659 1.349 . S
C658 C660 1.327 . S
C658 H683 0.950 . S
C659 C658 1.349 . S
C659 C675 1.349 . S
C660 C658 1.327 . S
C660 C679 1.429 . S
C660 H684 0.950 . S
C661 C678 1.574 . S
C661 C680 1.368 . S
C661 H685 0.949 . S
H662 C666 0.949 . S
C663 C664 1.349 . S
C663 C665 1.327 . S
C663 H686 0.950 . S
C664 C663 1.349 . S
C664 C676 1.349 . S
C665 C663 1.327 . S
C665 C681 1.429 . S
C665 H687 0.950 . S
C666 H662 0.949 . S
C666 C674 1.574 . S
C666 C682 1.368 . S
H667 C675 0.950 . S
H668 C673 0.950 . S
H669 C674 0.949 . S
H670 C676 0.950 . S
H671 C677 0.950 . S
H672 C678 0.949 . S
C673 H668 0.950 . S
C673 C675 1.327 . S
C673 C679 1.429 . S
C674 C666 1.574 . S
C674 H669 0.949 . S
C674 C680 1.368 . S
C675 C659 1.349 . S
C675 H667 0.950 . S
C675 C673 1.327 . S
C676 C664 1.349 . S
C676 H670 0.950 . S
C676 C677 1.327 . S
C677 H671 0.950 . S
C677 C676 1.327 . S
C677 C681 1.429 . S
C678 C661 1.574 . S
C678 H672 0.949 . S
C678 C682 1.368 . S
C679 C660 1.429 . S
C679 C673 1.429 . S
C679 C680 1.523 . S
C680 C661 1.368 . S
C680 C674 1.368 . S
C680 C679 1.523 . S
C681 C665 1.429 . S
C681 C677 1.429 . S
C681 C682 1.523 . S
C682 C666 1.368 . S
C682 C678 1.368 . S
C682 C681 1.523 . S
H683 C658 0.950 . S
H684 C660 0.950 . S
H685 C661 0.949 . S
H686 C663 0.950 . S
H687 C665 0.950 . S
C688 C689 1.349 . S
C688 C690 1.327 . S
C688 H713 0.950 . S
C689 C688 1.349 . S
C689 C705 1.349 . S
C690 C688 1.327 . S
C690 C709 1.429 . S
C690 H714 0.950 . S
C691 C708 1.574 . S
C691 C710 1.368 . S
C691 H715 0.949 . S
H692 C696 0.949 . S
C693 C694 1.349 . S
C693 C695 1.327 . S
C693 H716 0.950 . S
C694 C693 1.349 . S
C694 C706 1.349 . S
C695 C693 1.327 . S
C695 C711 1.429 . S
C695 H717 0.950 . S
C696 H692 0.949 . S
C696 C704 1.574 . S
C696 C712 1.368 . S
H697 C705 0.950 . S
H698 C703 0.950 . S
H699 C704 0.949 . S
H700 C706 0.950 . S
H701 C707 0.950 . S
H702 C708 0.949 . S
C703 H698 0.950 . S
C703 C705 1.327 . S
C703 C709 1.429 . S
C704 C696 1.574 . S
C704 H699 0.949 . S
C704 C710 1.368 . S
C705 C689 1.349 . S
C705 H697 0.950 . S
C705 C703 1.327 . S
C706 C694 1.349 . S
C706 H700 0.950 . S
C706 C707 1.327 . S
C707 H701 0.950 . S
C707 C706 1.327 . S
C707 C711 1.429 . S
C708 C691 1.574 . S
C708 H702 0.949 . S
C708 C712 1.368 . S
C709 C690 1.429 . S
C709 C703 1.429 . S
C709 C710 1.523 . S
C710 C691 1.368 . S
C710 C704 1.368 . S
C710 C709 1.523 . S
C711 C695 1.429 . S
C711 C707 1.429 . S
C711 C712 1.523 . S
C712 C696 1.368 . S
C712 C708 1.368 . S
C712 C711 1.523 . S
H713 C688 0.950 . S
H714 C690 0.950 . S
H715 C691 0.949 . S
H716 C693 0.950 . S
H717 C695 0.950 . S
C718 C719 1.349 . S
C718 C720 1.327 . S
C718 H743 0.950 . S
C719 C718 1.349 . S
C719 C735 1.349 . S
C720 C718 1.327 . S
C720 C739 1.429 . S
C720 H744 0.950 . S
C721 C738 1.574 . S
C721 C740 1.368 . S
C721 H745 0.949 . S
H722 C726 0.949 . S
C723 C724 1.349 . S
C723 C725 1.327 . S
C723 H746 0.950 . S
C724 C723 1.349 . S
C724 C736 1.349 . S
C725 C723 1.327 . S
C725 C741 1.429 . S
C725 H747 0.950 . S
C726 H722 0.949 . S
C726 C734 1.574 . S
C726 C742 1.368 . S
H727 C735 0.950 . S
H728 C733 0.950 . S
H729 C734 0.949 . S
H730 C736 0.950 . S
H731 C737 0.950 . S
H732 C738 0.949 . S
C733 H728 0.950 . S
C733 C735 1.327 . S
C733 C739 1.429 . S
C734 C726 1.574 . S
C734 H729 0.949 . S
C734 C740 1.368 . S
C735 C719 1.349 . S
C735 H727 0.950 . S
C735 C733 1.327 . S
C736 C724 1.349 . S
C736 H730 0.950 . S
C736 C737 1.327 . S
C737 H731 0.950 . S
C737 C736 1.327 . S
C737 C741 1.429 . S
C738 C721 1.574 . S
C738 H732 0.949 . S
C738 C742 1.368 . S
C739 C720 1.429 . S
C739 C733 1.429 . S
C739 C740 1.523 . S
C740 C721 1.368 . S
C740 C734 1.368 . S
C740 C739 1.523 . S
C741 C725 1.429 . S
C741 C737 1.429 . S
C741 C742 1.523 . S
C742 C726 1.368 . S
C742 C738 1.368 . S
C742 C741 1.523 . S
H743 C718 0.950 . S
H744 C720 0.950 . S
H745 C721 0.949 . S
H746 C723 0.950 . S
H747 C725 0.950 . S
C748 C749 1.349 . S
C748 C750 1.327 . S
C748 H773 0.950 . S
C749 C748 1.349 . S
C749 C765 1.349 . S
C750 C748 1.327 . S
C750 C769 1.429 . S
C750 H774 0.950 . S
C751 C768 1.574 . S
C751 C770 1.368 . S
C751 H775 0.949 . S
H752 C756 0.949 1_554 S
C753 C754 1.349 . S
C753 C755 1.327 . S
C753 H776 0.950 . S
C754 C753 1.349 . S
C754 C766 1.349 . S
C755 C753 1.327 . S
C755 C771 1.429 . S
C755 H777 0.950 1_554 S
C756 H752 0.949 1_556 S
C756 C764 1.574 . S
C756 C772 1.368 . S
H757 C765 0.950 . S
H758 C763 0.950 . S
H759 C764 0.949 . S
H760 C766 0.950 . S
H761 C767 0.950 . S
H762 C768 0.949 . S
C763 H758 0.950 . S
C763 C765 1.327 . S
C763 C769 1.429 . S
C764 C756 1.574 . S
C764 H759 0.949 . S
C764 C770 1.368 . S
C765 C749 1.349 . S
C765 H757 0.950 . S
C765 C763 1.327 . S
C766 C754 1.349 . S
C766 H760 0.950 . S
C766 C767 1.327 . S
C767 H761 0.950 . S
C767 C766 1.327 . S
C767 C771 1.429 . S
C768 C751 1.574 . S
C768 H762 0.949 . S
C768 C772 1.368 . S
C769 C750 1.429 . S
C769 C763 1.429 . S
C769 C770 1.523 . S
C770 C751 1.368 . S
C770 C764 1.368 . S
C770 C769 1.523 . S
C771 C755 1.429 . S
C771 C767 1.429 . S
C771 C772 1.523 1_554 S
C772 C756 1.368 . S
C772 C768 1.368 . S
C772 C771 1.523 1_556 S
H773 C748 0.950 . S
H774 C750 0.950 . S
H775 C751 0.949 . S
H776 C753 0.950 . S
H777 C755 0.950 1_556 S
C778 C779 1.349 . S
C778 C780 1.327 . S
C778 H803 0.950 . S
C779 C778 1.349 . S
C779 C795 1.349 . S
C780 C778 1.327 . S
C780 C799 1.429 . S
C780 H804 0.950 . S
C781 C798 1.574 . S
C781 C800 1.368 . S
C781 H805 0.949 . S
H782 C786 0.949 . S
C783 C784 1.349 . S
C783 C785 1.327 . S
C783 H806 0.950 . S
C784 C783 1.349 . S
C784 C796 1.349 . S
C785 C783 1.327 . S
C785 C801 1.429 . S
C785 H807 0.950 . S
C786 H782 0.949 . S
C786 C794 1.574 . S
C786 C802 1.368 . S
H787 C795 0.950 . S
H788 C793 0.950 . S
H789 C794 0.949 . S
H790 C796 0.950 . S
H791 C797 0.950 . S
H792 C798 0.949 . S
C793 H788 0.950 . S
C793 C795 1.327 . S
C793 C799 1.429 . S
C794 C786 1.574 . S
C794 H789 0.949 . S
C794 C800 1.368 . S
C795 C779 1.349 . S
C795 H787 0.950 . S
C795 C793 1.327 . S
C796 C784 1.349 . S
C796 H790 0.950 . S
C796 C797 1.327 . S
C797 H791 0.950 . S
C797 C796 1.327 . S
C797 C801 1.429 . S
C798 C781 1.574 . S
C798 H792 0.949 . S
C798 C802 1.368 . S
C799 C780 1.429 . S
C799 C793 1.429 . S
C799 C800 1.523 . S
C800 C781 1.368 . S
C800 C794 1.368 . S
C800 C799 1.523 . S
C801 C785 1.429 . S
C801 C797 1.429 . S
C801 C802 1.523 . S
C802 C786 1.368 . S
C802 C798 1.368 . S
C802 C801 1.523 . S
H803 C778 0.950 . S
H804 C780 0.950 . S
H805 C781 0.949 . S
H806 C783 0.950 . S
H807 C785 0.950 . S
C808 C809 1.349 . S
C808 C810 1.327 . S
C808 H833 0.950 . S
C809 C808 1.349 . S
C809 C825 1.349 . S
C810 C808 1.327 . S
C810 C829 1.429 . S
C810 H834 0.950 . S
C811 C828 1.574 . S
C811 C830 1.368 . S
C811 H835 0.949 . S
H812 C816 0.949 . S
C813 C814 1.349 . S
C813 C815 1.327 . S
C813 H836 0.950 . S
C814 C813 1.349 . S
C814 C826 1.349 . S
C815 C813 1.327 . S
C815 C831 1.429 . S
C815 H837 0.950 . S
C816 H812 0.949 . S
C816 C824 1.574 . S
C816 C832 1.368 . S
H817 C825 0.950 . S
H818 C823 0.950 . S
H819 C824 0.949 . S
H820 C826 0.950 . S
H821 C827 0.950 . S
H822 C828 0.949 . S
C823 H818 0.950 . S
C823 C825 1.327 . S
C823 C829 1.429 . S
C824 C816 1.574 . S
C824 H819 0.949 . S
C824 C830 1.368 . S
C825 C809 1.349 . S
C825 H817 0.950 . S
C825 C823 1.327 . S
C826 C814 1.349 . S
C826 H820 0.950 . S
C826 C827 1.327 . S
C827 H821 0.950 . S
C827 C826 1.327 . S
C827 C831 1.429 . S
C828 C811 1.574 . S
C828 H822 0.949 . S
C828 C832 1.368 . S
C829 C810 1.429 . S
C829 C823 1.429 . S
C829 C830 1.523 . S
C830 C811 1.368 . S
C830 C824 1.368 . S
C830 C829 1.523 . S
C831 C815 1.429 . S
C831 C827 1.429 . S
C831 C832 1.523 . S
C832 C816 1.368 . S
C832 C828 1.368 . S
C832 C831 1.523 . S
H833 C808 0.950 . S
H834 C810 0.950 . S
H835 C811 0.949 . S
H836 C813 0.950 . S
H837 C815 0.950 . S
C838 C839 1.349 . S
C838 C840 1.327 . S
C838 H863 0.950 . S
C839 C838 1.349 . S
C839 C855 1.349 . S
C840 C838 1.327 . S
C840 C859 1.429 . S
C840 H864 0.950 . S
C841 C858 1.574 . S
C841 C860 1.368 . S
C841 H865 0.949 . S
H842 C846 0.949 . S
C843 C844 1.349 . S
C843 C845 1.327 . S
C843 H866 0.950 . S
C844 C843 1.349 . S
C844 C856 1.349 . S
C845 C843 1.327 . S
C845 C861 1.429 . S
C845 H867 0.950 . S
C846 H842 0.949 . S
C846 C854 1.574 . S
C846 C862 1.368 . S
H847 C855 0.950 . S
H848 C853 0.950 . S
H849 C854 0.949 . S
H850 C856 0.950 . S
H851 C857 0.950 . S
H852 C858 0.949 . S
C853 H848 0.950 . S
C853 C855 1.327 . S
C853 C859 1.429 . S
C854 C846 1.574 . S
C854 H849 0.949 . S
C854 C860 1.368 . S
C855 C839 1.349 . S
C855 H847 0.950 . S
C855 C853 1.327 . S
C856 C844 1.349 . S
C856 H850 0.950 . S
C856 C857 1.327 . S
C857 H851 0.950 . S
C857 C856 1.327 . S
C857 C861 1.429 . S
C858 C841 1.574 . S
C858 H852 0.949 . S
C858 C862 1.368 . S
C859 C840 1.429 . S
C859 C853 1.429 . S
C859 C860 1.523 . S
C860 C841 1.368 . S
C860 C854 1.368 . S
C860 C859 1.523 . S
C861 C845 1.429 . S
C861 C857 1.429 . S
C861 C862 1.523 . S
C862 C846 1.368 . S
C862 C858 1.368 . S
C862 C861 1.523 . S
H863 C838 0.950 . S
H864 C840 0.950 . S
H865 C841 0.949 . S
H866 C843 0.950 . S
H867 C845 0.950 . S
C868 C869 1.349 . S
C868 C870 1.327 . S
C868 H893 0.950 . S
C869 C868 1.349 . S
C869 C885 1.349 . S
C870 C868 1.327 . S
C870 C889 1.429 . S
C870 H894 0.950 . S
C871 C888 1.574 . S
C871 C890 1.368 . S
C871 H895 0.949 . S
H872 C876 0.949 . S
C873 C874 1.349 . S
C873 C875 1.327 . S
C873 H896 0.950 . S
C874 C873 1.349 . S
C874 C886 1.349 . S
C875 C873 1.327 . S
C875 C891 1.429 . S
C875 H897 0.950 . S
C876 H872 0.949 . S
C876 C884 1.574 . S
C876 C892 1.368 . S
H877 C885 0.950 . S
H878 C883 0.950 . S
H879 C884 0.949 . S
H880 C886 0.950 . S
H881 C887 0.950 . S
H882 C888 0.949 . S
C883 H878 0.950 . S
C883 C885 1.327 . S
C883 C889 1.429 . S
C884 C876 1.574 . S
C884 H879 0.949 . S
C884 C890 1.368 . S
C885 C869 1.349 . S
C885 H877 0.950 . S
C885 C883 1.327 . S
C886 C874 1.349 . S
C886 H880 0.950 . S
C886 C887 1.327 . S
C887 H881 0.950 . S
C887 C886 1.327 . S
C887 C891 1.429 . S
C888 C871 1.574 . S
C888 H882 0.949 . S
C888 C892 1.368 . S
C889 C870 1.429 . S
C889 C883 1.429 . S
C889 C890 1.523 . S
C890 C871 1.368 . S
C890 C884 1.368 . S
C890 C889 1.523 . S
C891 C875 1.429 . S
C891 C887 1.429 . S
C891 C892 1.523 . S
C892 C876 1.368 . S
C892 C888 1.368 . S
C892 C891 1.523 . S
H893 C868 0.950 . S
H894 C870 0.950 . S
H895 C871 0.949 . S
H896 C873 0.950 . S
H897 C875 0.950 . S
C898 C899 1.349 . S
C898 C900 1.327 . S
C898 H923 0.950 . S
C899 C898 1.349 . S
C899 C915 1.349 . S
C900 C898 1.327 . S
C900 C919 1.429 . S
C900 H924 0.950 . S
C901 C918 1.574 1_556 S
C901 C920 1.368 . S
C901 H925 0.939 1_556 S
H902 C906 0.949 . S
C903 C904 1.349 . S
C903 C905 1.327 . S
C903 H926 0.950 . S
C904 C903 1.349 . S
C904 C916 1.349 . S
C905 C903 1.327 . S
C905 C921 1.429 . S
C905 H927 0.950 . S
C906 H902 0.949 . S
C906 C914 1.574 . S
C906 C922 1.368 . S
H907 C915 0.950 . S
H908 C913 0.950 . S
H909 C914 0.949 . S
H910 C916 0.950 1_556 S
H911 C917 0.950 . S
H912 C918 0.949 . S
C913 H908 0.950 . S
C913 C915 1.327 . S
C913 C919 1.429 . S
C914 C906 1.574 . S
C914 H909 0.949 . S
C914 C920 1.368 . S
C915 C899 1.349 . S
C915 H907 0.950 . S
C915 C913 1.327 . S
C916 C904 1.349 . S
C916 H910 0.950 1_554 S
C916 C917 1.327 1_554 S
C917 H911 0.950 . S
C917 C916 1.327 1_556 S
C917 C921 1.429 1_556 S
C918 C901 1.574 1_554 S
C918 H912 0.949 . S
C918 C922 1.368 1_554 S
C919 C900 1.429 . S
C919 C913 1.429 . S
C919 C920 1.523 . S
C920 C901 1.368 . S
C920 C914 1.368 . S
C920 C919 1.523 . S
C921 C905 1.429 . S
C921 C917 1.429 1_554 S
C921 C922 1.523 1_554 S
C922 C906 1.368 . S
C922 C918 1.368 1_556 S
C922 C921 1.523 1_556 S
H923 C898 0.950 . S
H924 C900 0.950 . S
H925 C901 0.939 1_554 S
H926 C903 0.950 . S
H927 C905 0.950 . S
C928 C929 1.349 . S
C928 C930 1.327 . S
C928 H953 0.950 1_556 S
C929 C928 1.349 . S
C929 C945 1.349 . S
C930 C928 1.327 . S
C930 C949 1.429 . S
C930 H954 0.950 . S
C931 C948 1.574 . S
C931 C950 1.368 . S
C931 H955 0.949 . S
H932 C936 0.949 . S
C933 C934 1.349 . S
C933 C935 1.327 . S
C933 H956 0.950 . S
C934 C933 1.349 . S
C934 C946 1.349 . S
C935 C933 1.327 . S
C935 C951 1.429 . S
C935 H957 0.950 . S
C936 H932 0.949 . S
C936 C944 1.574 . S
C936 C952 1.368 . S
H937 C945 0.950 . S
H938 C943 0.950 . S
H939 C944 0.949 . S
H940 C946 0.950 . S
H941 C947 0.950 . S
H942 C948 0.949 . S
C943 H938 0.950 . S
C943 C945 1.327 . S
C943 C949 1.429 . S
C944 C936 1.574 . S
C944 H939 0.949 . S
C944 C950 1.368 . S
C945 C929 1.349 . S
C945 H937 0.950 . S
C945 C943 1.327 . S
C946 C934 1.349 . S
C946 H940 0.950 . S
C946 C947 1.327 . S
C947 H941 0.950 . S
C947 C946 1.327 . S
C947 C951 1.429 . S
C948 C931 1.574 . S
C948 H942 0.949 . S
C948 C952 1.368 . S
C949 C930 1.429 . S
C949 C943 1.429 . S
C949 C950 1.523 . S
C950 C931 1.368 . S
C950 C944 1.368 . S
C950 C949 1.523 . S
C951 C935 1.429 . S
C951 C947 1.429 . S
C951 C952 1.523 . S
C952 C936 1.368 . S
C952 C948 1.368 . S
C952 C951 1.523 . S
H953 C928 0.950 1_554 S
H954 C930 0.950 . S
H955 C931 0.949 . S
H956 C933 0.950 . S
H957 C935 0.950 . S
C958 C959 1.349 . S
C958 C960 1.327 . S
C958 H983 0.950 . S
C959 C958 1.349 . S
C959 C975 1.349 . S
C960 C958 1.327 . S
C960 C979 1.429 . S
C960 H984 0.950 . S
C961 C978 1.574 . S
C961 C980 1.368 1_545 S
C961 H985 0.949 . S
H962 C966 0.949 . S
C963 C964 1.349 . S
C963 C965 1.327 1_556 S
C963 H986 0.950 . S
C964 C963 1.349 . S
C964 C976 1.349 . S
C965 C963 1.327 1_554 S
C965 C981 1.429 . S
C965 H987 0.950 . S
C966 H962 0.949 . S
C966 C974 1.574 . S
C966 C982 1.368 1_565 S
H967 C975 0.950 . S
H968 C973 0.950 1_545 S
H969 C974 0.949 . S
H970 C976 0.950 . S
H971 C977 0.950 1_565 S
H972 C978 0.949 . S
C973 H968 0.950 1_565 S
C973 C975 1.327 . S
C973 C979 1.429 . S
C974 C966 1.574 . S
C974 H969 0.949 . S
C974 C980 1.368 . S
C975 C959 1.349 . S
C975 H967 0.950 . S
C975 C973 1.327 . S
C976 C964 1.349 . S
C976 H970 0.950 . S
C976 C977 1.327 . S
C977 H971 0.950 1_545 S
C977 C976 1.327 . S
C977 C981 1.429 1_556 S
C978 C961 1.574 . S
C978 H972 0.949 . S
C978 C982 1.368 . S
C979 C960 1.429 . S
C979 C973 1.429 . S
C979 C980 1.523 . S
C980 C961 1.368 1_565 S
C980 C974 1.368 . S
C980 C979 1.523 . S
C981 C965 1.429 . S
C981 C977 1.429 1_554 S
C981 C982 1.523 . S
C982 C966 1.368 1_545 S
C982 C978 1.368 . S
C982 C981 1.523 . S
H983 C958 0.950 . S
H984 C960 0.950 . S
H985 C961 0.949 . S
H986 C963 0.950 . S
H987 C965 0.950 . S
C988 C989 1.349 . S
C988 C990 1.327 . S
C988 H1013 0.950 . S
C989 C988 1.349 . S
C989 C1005 1.349 . S
C990 C988 1.327 . S
C990 C1009 1.429 . S
C990 H1014 0.950 . S
C991 C1008 1.574 . S
C991 C1010 1.368 . S
C991 H1015 0.949 . S
H992 C996 0.949 . S
C993 C994 1.349 . S
C993 C995 1.327 . S
C993 H1016 0.950 . S
C994 C993 1.349 . S
C994 C1006 1.349 . S
C995 C993 1.327 . S
C995 C1011 1.429 . S
C995 H1017 0.950 . S
C996 H992 0.949 . S
C996 C1004 1.574 . S
C996 C1012 1.368 . S
H997 C1005 0.950 . S
H998 C1003 0.950 . S
H999 C1004 0.949 . S
H1000 C1006 0.950 . S
H1001 C1007 0.950 . S
H1002 C1008 0.949 . S
C1003 H998 0.950 . S
C1003 C1005 1.327 . S
C1003 C1009 1.429 . S
C1004 C996 1.574 . S
C1004 H999 0.949 . S
C1004 C1010 1.368 . S
C1005 C989 1.349 . S
C1005 H997 0.950 . S
C1005 C1003 1.327 . S
C1006 C994 1.349 . S
C1006 H1000 0.950 . S
C1006 C1007 1.327 . S
C1007 H1001 0.950 . S
C1007 C1006 1.327 . S
C1007 C1011 1.429 . S
C1008 C991 1.574 . S
C1008 H1002 0.949 . S
C1008 C1012 1.368 . S
C1009 C990 1.429 . S
C1009 C1003 1.429 . S
C1009 C1010 1.523 . S
C1010 C991 1.368 . S
C1010 C1004 1.368 . S
C1010 C1009 1.523 . S
C1011 C995 1.429 . S
C1011 C1007 1.429 . S
C1011 C1012 1.523 . S
C1012 C996 1.368 . S
C1012 C1008 1.368 . S
C1012 C1011 1.523 . S
H1013 C988 0.950 . S
H1014 C990 0.950 . S
H1015 C991 0.949 . S
H1016 C993 0.950 . S
H1017 C995 0.950 . S
C1018 C1019 1.349 . S
C1018 C1020 1.327 . S
C1018 H1043 0.950 . S
C1019 C1018 1.349 . S
C1019 C1035 1.349 . S
C1020 C1018 1.327 . S
C1020 C1039 1.429 . S
C1020 H1044 0.950 . S
C1021 C1038 1.574 . S
C1021 C1040 1.368 1_565 S
C1021 H1045 0.949 . S
H1022 C1026 0.949 . S
C1023 C1024 1.349 . S
C1023 C1025 1.327 . S
C1023 H1046 0.950 . S
C1024 C1023 1.349 . S
C1024 C1036 1.349 . S
C1025 C1023 1.327 . S
C1025 C1041 1.429 . S
C1025 H1047 0.950 . S
C1026 H1022 0.949 . S
C1026 C1034 1.574 . S
C1026 C1042 1.368 1_545 S
H1027 C1035 0.950 . S
H1028 C1033 0.950 1_565 S
H1029 C1034 0.949 . S
H1030 C1036 0.950 . S
H1031 C1037 0.950 1_545 S
H1032 C1038 0.949 . S
C1033 H1028 0.950 1_545 S
C1033 C1035 1.327 . S
C1033 C1039 1.429 . S
C1034 C1026 1.574 . S
C1034 H1029 0.949 . S
C1034 C1040 1.368 . S
C1035 C1019 1.349 . S
C1035 H1027 0.950 . S
C1035 C1033 1.327 . S
C1036 C1024 1.349 . S
C1036 H1030 0.950 . S
C1036 C1037 1.327 . S
C1037 H1031 0.950 1_565 S
C1037 C1036 1.327 . S
C1037 C1041 1.429 . S
C1038 C1021 1.574 . S
C1038 H1032 0.949 . S
C1038 C1042 1.368 . S
C1039 C1020 1.429 . S
C1039 C1033 1.429 . S
C1039 C1040 1.523 . S
C1040 C1021 1.368 1_545 S
C1040 C1034 1.368 . S
C1040 C1039 1.523 . S
C1041 C1025 1.429 . S
C1041 C1037 1.429 . S
C1041 C1042 1.523 . S
C1042 C1026 1.368 1_565 S
C1042 C1038 1.368 . S
C1042 C1041 1.523 . S
H1043 C1018 0.950 . S
H1044 C1020 0.950 . S
H1045 C1021 0.949 . S
H1046 C1023 0.950 . S
H1047 C1025 0.950 . S
C1048 C1049 1.349 . S
C1048 C1050 1.327 . S
C1048 H1073 0.950 . S
C1049 C1048 1.349 . S
C1049 C1065 1.349 . S
C1050 C1048 1.327 . S
C1050 C1069 1.429 . S
C1050 H1074 0.950 . S
C1051 C1068 1.574 . S
C1051 C1070 1.368 . S
C1051 H1075 0.949 . S
H1052 C1056 0.949 . S
C1053 C1054 1.349 . S
C1053 C1055 1.327 . S
C1053 H1076 0.950 . S
C1054 C1053 1.349 . S
C1054 C1066 1.349 . S
C1055 C1053 1.327 . S
C1055 C1071 1.429 . S
C1055 H1077 0.950 . S
C1056 H1052 0.949 . S
C1056 C1064 1.574 . S
C1056 C1072 1.368 . S
H1057 C1065 0.950 . S
H1058 C1063 0.950 . S
H1059 C1064 0.949 . S
H1060 C1066 0.950 . S
H1061 C1067 0.950 . S
H1062 C1068 0.949 . S
C1063 H1058 0.950 . S
C1063 C1065 1.327 . S
C1063 C1069 1.429 . S
C1064 C1056 1.574 . S
C1064 H1059 0.949 . S
C1064 C1070 1.368 . S
C1065 C1049 1.349 . S
C1065 H1057 0.950 . S
C1065 C1063 1.327 . S
C1066 C1054 1.349 . S
C1066 H1060 0.950 . S
C1066 C1067 1.327 . S
C1067 H1061 0.950 . S
C1067 C1066 1.327 . S
C1067 C1071 1.429 . S
C1068 C1051 1.574 . S
C1068 H1062 0.949 . S
C1068 C1072 1.368 . S
C1069 C1050 1.429 . S
C1069 C1063 1.429 . S
C1069 C1070 1.523 . S
C1070 C1051 1.368 . S
C1070 C1064 1.368 . S
C1070 C1069 1.523 . S
C1071 C1055 1.429 . S
C1071 C1067 1.429 . S
C1071 C1072 1.523 . S
C1072 C1056 1.368 . S
C1072 C1068 1.368 . S
C1072 C1071 1.523 . S
H1073 C1048 0.950 . S
H1074 C1050 0.950 . S
H1075 C1051 0.949 . S
H1076 C1053 0.950 . S
H1077 C1055 0.950 . S
C1078 C1079 1.349 . S
C1078 C1080 1.327 . S
C1078 H1103 0.950 . S
C1079 C1078 1.349 . S
C1079 C1095 1.349 . S
C1080 C1078 1.327 . S
C1080 C1099 1.429 1_556 S
C1080 H1104 0.950 1_545 S
C1081 C1098 1.574 . S
C1081 C1100 1.368 . S
C1081 H1105 0.949 . S
H1082 C1086 0.949 . S
C1083 C1084 1.349 . S
C1083 C1085 1.327 . S
C1083 H1106 0.950 . S
C1084 C1083 1.349 . S
C1084 C1096 1.349 . S
C1085 C1083 1.327 . S
C1085 C1101 1.429 . S
C1085 H1107 0.950 1_565 S
C1086 H1082 0.949 . S
C1086 C1094 1.574 . S
C1086 C1102 1.368 . S
H1087 C1095 0.950 . S
H1088 C1093 0.950 . S
H1089 C1094 0.949 . S
H1090 C1096 0.950 . S
H1091 C1097 0.950 . S
H1092 C1098 0.949 . S
C1093 H1088 0.950 . S
C1093 C1095 1.327 1_554 S
C1093 C1099 1.429 . S
C1094 C1086 1.574 . S
C1094 H1089 0.949 . S
C1094 C1100 1.368 1_565 S
C1095 C1079 1.349 . S
C1095 H1087 0.950 . S
C1095 C1093 1.327 1_556 S
C1096 C1084 1.349 . S
C1096 H1090 0.950 . S
C1096 C1097 1.327 . S
C1097 H1091 0.950 . S
C1097 C1096 1.327 . S
C1097 C1101 1.429 . S
C1098 C1081 1.574 . S
C1098 H1092 0.949 . S
C1098 C1102 1.368 1_545 S
C1099 C1080 1.429 1_554 S
C1099 C1093 1.429 . S
C1099 C1100 1.523 . S
C1100 C1081 1.368 . S
C1100 C1094 1.368 1_545 S
C1100 C1099 1.523 . S
C1101 C1085 1.429 . S
C1101 C1097 1.429 . S
C1101 C1102 1.523 . S
C1102 C1086 1.368 . S
C1102 C1098 1.368 1_565 S
C1102 C1101 1.523 . S
H1103 C1078 0.950 . S
H1104 C1080 0.950 1_565 S
H1105 C1081 0.949 . S
H1106 C1083 0.950 . S
H1107 C1085 0.950 1_545 S
C1108 C1109 1.349 . S
C1108 C1110 1.327 . S
C1108 H1133 0.950 . S
C1109 C1108 1.349 . S
C1109 C1125 1.349 . S
C1110 C1108 1.327 . S
C1110 C1129 1.429 . S
C1110 H1134 0.950 . S
C1111 C1128 1.574 . S
C1111 C1130 1.368 . S
C1111 H1135 0.949 . S
H1112 C1116 0.949 . S
C1113 C1114 1.349 . S
C1113 C1115 1.327 . S
C1113 H1136 0.950 . S
C1114 C1113 1.349 . S
C1114 C1126 1.349 . S
C1115 C1113 1.327 . S
C1115 C1131 1.429 . S
C1115 H1137 0.950 . S
C1116 H1112 0.949 . S
C1116 C1124 1.574 . S
C1116 C1132 1.368 . S
H1117 C1125 0.950 1_554 S
H1118 C1123 0.950 . S
H1119 C1124 0.949 . S
H1120 C1126 0.950 . S
H1121 C1127 0.950 . S
H1122 C1128 0.949 . S
C1123 H1118 0.950 . S
C1123 C1125 1.327 . S
C1123 C1129 1.429 . S
C1124 C1116 1.574 . S
C1124 H1119 0.949 . S
C1124 C1130 1.368 . S
C1125 C1109 1.349 . S
C1125 H1117 0.950 1_556 S
C1125 C1123 1.327 . S
C1126 C1114 1.349 . S
C1126 H1120 0.950 . S
C1126 C1127 1.327 . S
C1127 H1121 0.950 . S
C1127 C1126 1.327 . S
C1127 C1131 1.429 . S
C1128 C1111 1.574 . S
C1128 H1122 0.949 . S
C1128 C1132 1.368 . S
C1129 C1110 1.429 . S
C1129 C1123 1.429 . S
C1129 C1130 1.523 . S
C1130 C1111 1.368 . S
C1130 C1124 1.368 . S
C1130 C1129 1.523 . S
C1131 C1115 1.429 . S
C1131 C1127 1.429 . S
C1131 C1132 1.523 . S
C1132 C1116 1.368 . S
C1132 C1128 1.368 . S
C1132 C1131 1.523 . S
H1133 C1108 0.950 . S
H1134 C1110 0.950 . S
H1135 C1111 0.949 . S
H1136 C1113 0.950 . S
H1137 C1115 0.950 . S
C1138 C1139 1.349 . S
C1138 C1140 1.327 . S
C1138 H1163 0.950 . S
C1139 C1138 1.349 . S
C1139 C1155 1.349 . S
C1140 C1138 1.327 . S
C1140 C1159 1.429 . S
C1140 H1164 0.950 . S
C1141 C1158 1.574 . S
C1141 C1160 1.368 1_565 S
C1141 H1165 0.949 . S
H1142 C1146 0.949 . S
C1143 C1144 1.349 . S
C1143 C1145 1.327 . S
C1143 H1166 0.950 . S
C1144 C1143 1.349 . S
C1144 C1156 1.349 . S
C1145 C1143 1.327 . S
C1145 C1161 1.429 . S
C1145 H1167 0.950 . S
C1146 H1142 0.949 . S
C1146 C1154 1.574 . S
C1146 C1162 1.368 1_545 S
H1147 C1155 0.950 . S
H1148 C1153 0.950 1_565 S
H1149 C1154 0.949 . S
H1150 C1156 0.950 . S
H1151 C1157 0.950 1_545 S
H1152 C1158 0.949 . S
C1153 H1148 0.950 1_545 S
C1153 C1155 1.327 . S
C1153 C1159 1.429 . S
C1154 C1146 1.574 . S
C1154 H1149 0.949 . S
C1154 C1160 1.368 . S
C1155 C1139 1.349 . S
C1155 H1147 0.950 . S
C1155 C1153 1.327 . S
C1156 C1144 1.349 . S
C1156 H1150 0.950 . S
C1156 C1157 1.327 . S
C1157 H1151 0.950 1_565 S
C1157 C1156 1.327 . S
C1157 C1161 1.429 . S
C1158 C1141 1.574 . S
C1158 H1152 0.949 . S
C1158 C1162 1.368 . S
C1159 C1140 1.429 . S
C1159 C1153 1.429 . S
C1159 C1160 1.523 . S
C1160 C1141 1.368 1_545 S
C1160 C1154 1.368 . S
C1160 C1159 1.523 . S
C1161 C1145 1.429 . S
C1161 C1157 1.429 . S
C1161 C1162 1.523 . S
C1162 C1146 1.368 1_565 S
C1162 C1158 1.368 . S
C1162 C1161 1.523 . S
H1163 C1138 0.950 . S
H1164 C1140 0.950 . S
H1165 C1141 0.949 . S
H1166 C1143 0.950 . S
H1167 C1145 0.950 . S
C1168 C1169 1.349 . S
C1168 C1170 1.327 . S
C1168 H1193 0.950 . S
C1169 C1168 1.349 . S
C1169 C1185 1.349 . S
C1170 C1168 1.327 . S
C1170 C1189 1.429 . S
C1170 H1194 0.950 . S
C1171 C1188 1.574 . S
C1171 C1190 1.368 . S
C1171 H1195 0.949 . S
H1172 C1176 0.949 . S
C1173 C1174 1.349 . S
C1173 C1175 1.327 . S
C1173 H1196 0.950 . S
C1174 C1173 1.349 . S
C1174 C1186 1.349 . S
C1175 C1173 1.327 . S
C1175 C1191 1.429 . S
C1175 H1197 0.950 . S
C1176 H1172 0.949 . S
C1176 C1184 1.574 . S
C1176 C1192 1.368 . S
H1177 C1185 0.950 . S
H1178 C1183 0.950 . S
H1179 C1184 0.949 . S
H1180 C1186 0.950 . S
H1181 C1187 0.950 . S
H1182 C1188 0.949 . S
C1183 H1178 0.950 . S
C1183 C1185 1.327 . S
C1183 C1189 1.429 . S
C1184 C1176 1.574 . S
C1184 H1179 0.949 . S
C1184 C1190 1.368 . S
C1185 C1169 1.349 . S
C1185 H1177 0.950 . S
C1185 C1183 1.327 . S
C1186 C1174 1.349 . S
C1186 H1180 0.950 . S
C1186 C1187 1.327 . S
C1187 H1181 0.950 . S
C1187 C1186 1.327 . S
C1187 C1191 1.429 . S
C1188 C1171 1.574 . S
C1188 H1182 0.949 . S
C1188 C1192 1.368 . S
C1189 C1170 1.429 . S
C1189 C1183 1.429 . S
C1189 C1190 1.523 . S
C1190 C1171 1.368 . S
C1190 C1184 1.368 . S
C1190 C1189 1.523 . S
C1191 C1175 1.429 . S
C1191 C1187 1.429 . S
C1191 C1192 1.523 . S
C1192 C1176 1.368 . S
C1192 C1188 1.368 . S
C1192 C1191 1.523 . S
H1193 C1168 0.950 . S
H1194 C1170 0.950 . S
H1195 C1171 0.949 . S
H1196 C1173 0.950 . S
H1197 C1175 0.950 . S
C1198 C1199 1.349 . S
C1198 C1200 1.327 . S
C1198 H1223 0.950 . S
C1199 C1198 1.349 . S
C1199 C1215 1.349 . S
C1200 C1198 1.327 . S
C1200 C1219 1.429 . S
C1200 H1224 0.950 . S
C1201 C1218 1.574 . S
C1201 C1220 1.368 . S
C1201 H1225 0.949 . S
H1202 C1206 0.949 . S
C1203 C1204 1.349 . S
C1203 C1205 1.327 . S
C1203 H1226 0.950 . S
C1204 C1203 1.349 . S
C1204 C1216 1.349 . S
C1205 C1203 1.327 . S
C1205 C1221 1.429 . S
C1205 H1227 0.950 . S
C1206 H1202 0.949 . S
C1206 C1214 1.574 . S
C1206 C1222 1.368 . S
H1207 C1215 0.950 . S
H1208 C1213 0.950 . S
H1209 C1214 0.949 . S
H1210 C1216 0.950 . S
H1211 C1217 0.950 . S
H1212 C1218 0.949 . S
C1213 H1208 0.950 . S
C1213 C1215 1.327 . S
C1213 C1219 1.429 . S
C1214 C1206 1.574 . S
C1214 H1209 0.949 . S
C1214 C1220 1.368 . S
C1215 C1199 1.349 . S
C1215 H1207 0.950 . S
C1215 C1213 1.327 . S
C1216 C1204 1.349 . S
C1216 H1210 0.950 . S
C1216 C1217 1.327 . S
C1217 H1211 0.950 . S
C1217 C1216 1.327 . S
C1217 C1221 1.429 . S
C1218 C1201 1.574 . S
C1218 H1212 0.949 . S
C1218 C1222 1.368 . S
C1219 C1200 1.429 . S
C1219 C1213 1.429 . S
C1219 C1220 1.523 . S
C1220 C1201 1.368 . S
C1220 C1214 1.368 . S
C1220 C1219 1.523 . S
C1221 C1205 1.429 . S
C1221 C1217 1.429 . S
C1221 C1222 1.523 . S
C1222 C1206 1.368 . S
C1222 C1218 1.368 . S
C1222 C1221 1.523 . S
H1223 C1198 0.950 . S
H1224 C1200 0.950 . S
H1225 C1201 0.949 . S
H1226 C1203 0.950 . S
H1227 C1205 0.950 . S
C1228 C1229 1.349 . S
C1228 C1230 1.327 . S
C1228 H1253 0.950 . S
C1229 C1228 1.349 . S
C1229 C1245 1.349 . S
C1230 C1228 1.327 . S
C1230 C1249 1.429 . S
C1230 H1254 0.950 . S
C1231 C1248 1.574 . S
C1231 C1250 1.368 . S
C1231 H1255 0.949 . S
H1232 C1236 0.949 . S
C1233 C1234 1.349 . S
C1233 C1235 1.327 . S
C1233 H1256 0.950 1_556 S
C1234 C1233 1.349 . S
C1234 C1246 1.349 . S
C1235 C1233 1.327 . S
C1235 C1251 1.429 . S
C1235 H1257 0.950 . S
C1236 H1232 0.949 . S
C1236 C1244 1.574 . S
C1236 C1252 1.368 . S
H1237 C1245 0.950 . S
H1238 C1243 0.950 . S
H1239 C1244 0.949 . S
H1240 C1246 0.950 . S
H1241 C1247 0.950 . S
H1242 C1248 0.949 . S
C1243 H1238 0.950 . S
C1243 C1245 1.327 . S
C1243 C1249 1.429 . S
C1244 C1236 1.574 . S
C1244 H1239 0.949 . S
C1244 C1250 1.368 . S
C1245 C1229 1.349 . S
C1245 H1237 0.950 . S
C1245 C1243 1.327 . S
C1246 C1234 1.349 . S
C1246 H1240 0.950 . S
C1246 C1247 1.327 . S
C1247 H1241 0.950 . S
C1247 C1246 1.327 . S
C1247 C1251 1.429 . S
C1248 C1231 1.574 . S
C1248 H1242 0.949 . S
C1248 C1252 1.368 . S
C1249 C1230 1.429 . S
C1249 C1243 1.429 . S
C1249 C1250 1.523 . S
C1250 C1231 1.368 . S
C1250 C1244 1.368 . S
C1250 C1249 1.523 . S
C1251 C1235 1.429 . S
C1251 C1247 1.429 . S
C1251 C1252 1.523 . S
C1252 C1236 1.368 . S
C1252 C1248 1.368 . S
C1252 C1251 1.523 . S
H1253 C1228 0.950 . S
H1254 C1230 0.950 . S
H1255 C1231 0.949 . S
H1256 C1233 0.950 1_554 S
H1257 C1235 0.950 . S
C1258 C1259 1.349 . S
C1258 C1260 1.327 . S
C1258 H1283 0.950 . S
C1259 C1258 1.349 . S
C1259 C1275 1.349 . S
C1260 C1258 1.327 . S
C1260 C1279 1.429 . S
C1260 H1284 0.950 . S
C1261 C1278 1.574 . S
C1261 C1280 1.368 . S
C1261 H1285 0.949 . S
H1262 C1266 0.949 . S
C1263 C1264 1.349 . S
C1263 C1265 1.327 . S
C1263 H1286 0.950 . S
C1264 C1263 1.349 . S
C1264 C1276 1.349 . S
C1265 C1263 1.327 . S
C1265 C1281 1.429 1_556 S
C1265 H1287 0.950 1_556 S
C1266 H1262 0.949 . S
C1266 C1274 1.574 . S
C1266 C1282 1.368 . S
H1267 C1275 0.950 . S
H1268 C1273 0.950 . S
H1269 C1274 0.949 . S
H1270 C1276 0.950 . S
H1271 C1277 0.950 . S
H1272 C1278 0.949 . S
C1273 H1268 0.950 . S
C1273 C1275 1.327 . S
C1273 C1279 1.429 . S
C1274 C1266 1.574 . S
C1274 H1269 0.949 . S
C1274 C1280 1.368 . S
C1275 C1259 1.349 . S
C1275 H1267 0.950 . S
C1275 C1273 1.327 . S
C1276 C1264 1.349 . S
C1276 H1270 0.950 . S
C1276 C1277 1.327 . S
C1277 H1271 0.950 . S
C1277 C1276 1.327 . S
C1277 C1281 1.429 1_556 S
C1278 C1261 1.574 . S
C1278 H1272 0.949 . S
C1278 C1282 1.368 . S
C1279 C1260 1.429 . S
C1279 C1273 1.429 . S
C1279 C1280 1.523 . S
C1280 C1261 1.368 . S
C1280 C1274 1.368 . S
C1280 C1279 1.523 . S
C1281 C1265 1.429 1_554 S
C1281 C1277 1.429 1_554 S
C1281 C1282 1.523 . S
C1282 C1266 1.368 . S
C1282 C1278 1.368 . S
C1282 C1281 1.523 . S
H1283 C1258 0.950 . S
H1284 C1260 0.950 . S
H1285 C1261 0.949 . S
H1286 C1263 0.950 . S
H1287 C1265 0.950 1_554 S
C1288 C1289 1.349 . S
C1288 C1290 1.327 . S
C1288 H1313 0.950 . S
C1289 C1288 1.349 . S
C1289 C1305 1.349 . S
C1290 C1288 1.327 . S
C1290 C1309 1.429 . S
C1290 H1314 0.950 . S
C1291 C1308 1.574 . S
C1291 C1310 1.368 . S
C1291 H1315 0.949 . S
H1292 C1296 0.949 . S
C1293 C1294 1.349 . S
C1293 C1295 1.327 . S
C1293 H1316 0.950 1_556 S
C1294 C1293 1.349 . S
C1294 C1306 1.349 . S
C1295 C1293 1.327 . S
C1295 C1311 1.429 . S
C1295 H1317 0.950 . S
C1296 H1292 0.949 . S
C1296 C1304 1.574 . S
C1296 C1312 1.368 . S
H1297 C1305 0.950 . S
H1298 C1303 0.950 . S
H1299 C1304 0.949 . S
H1300 C1306 0.950 . S
H1301 C1307 0.950 . S
H1302 C1308 0.949 . S
C1303 H1298 0.950 . S
C1303 C1305 1.327 . S
C1303 C1309 1.429 . S
C1304 C1296 1.574 . S
C1304 H1299 0.949 . S
C1304 C1310 1.368 . S
C1305 C1289 1.349 . S
C1305 H1297 0.950 . S
C1305 C1303 1.327 . S
C1306 C1294 1.349 . S
C1306 H1300 0.950 . S
C1306 C1307 1.327 . S
C1307 H1301 0.950 . S
C1307 C1306 1.327 . S
C1307 C1311 1.429 . S
C1308 C1291 1.574 . S
C1308 H1302 0.949 . S
C1308 C1312 1.368 . S
C1309 C1290 1.429 . S
C1309 C1303 1.429 . S
C1309 C1310 1.523 . S
C1310 C1291 1.368 . S
C1310 C1304 1.368 . S
C1310 C1309 1.523 . S
C1311 C1295 1.429 . S
C1311 C1307 1.429 . S
C1311 C1312 1.523 . S
C1312 C1296 1.368 . S
C1312 C1308 1.368 . S
C1312 C1311 1.523 . S
H1313 C1288 0.950 . S
H1314 C1290 0.950 . S
H1315 C1291 0.949 . S
H1316 C1293 0.950 1_554 S
H1317 C1295 0.950 . S
C1318 C1319 1.349 . S
C1318 C1320 1.327 . S
C1318 H1343 0.950 . S
C1319 C1318 1.349 . S
C1319 C1335 1.349 . S
C1320 C1318 1.327 . S
C1320 C1339 1.429 . S
C1320 H1344 0.950 . S
C1321 C1338 1.574 . S
C1321 C1340 1.368 . S
C1321 H1345 0.949 . S
H1322 C1326 0.949 . S
C1323 C1324 1.349 . S
C1323 C1325 1.327 . S
C1323 H1346 0.950 . S
C1324 C1323 1.349 . S
C1324 C1336 1.349 . S
C1325 C1323 1.327 . S
C1325 C1341 1.429 . S
C1325 H1347 0.950 . S
C1326 H1322 0.949 . S
C1326 C1334 1.574 . S
C1326 C1342 1.368 . S
H1327 C1335 0.950 . S
H1328 C1333 0.950 . S
H1329 C1334 0.949 . S
H1330 C1336 0.950 . S
H1331 C1337 0.950 . S
H1332 C1338 0.949 . S
C1333 H1328 0.950 . S
C1333 C1335 1.327 . S
C1333 C1339 1.429 . S
C1334 C1326 1.574 . S
C1334 H1329 0.949 . S
C1334 C1340 1.368 . S
C1335 C1319 1.349 . S
C1335 H1327 0.950 . S
C1335 C1333 1.327 . S
C1336 C1324 1.349 . S
C1336 H1330 0.950 . S
C1336 C1337 1.327 . S
C1337 H1331 0.950 . S
C1337 C1336 1.327 . S
C1337 C1341 1.429 . S
C1338 C1321 1.574 . S
C1338 H1332 0.949 . S
C1338 C1342 1.368 . S
C1339 C1320 1.429 . S
C1339 C1333 1.429 . S
C1339 C1340 1.523 . S
C1340 C1321 1.368 . S
C1340 C1334 1.368 . S
C1340 C1339 1.523 . S
C1341 C1325 1.429 . S
C1341 C1337 1.429 . S
C1341 C1342 1.523 . S
C1342 C1326 1.368 . S
C1342 C1338 1.368 . S
C1342 C1341 1.523 . S
H1343 C1318 0.950 . S
H1344 C1320 0.950 . S
H1345 C1321 0.949 . S
H1346 C1323 0.950 . S
H1347 C1325 0.950 . S
C1348 C1349 1.349 . S
C1348 C1350 1.327 . S
C1348 H1373 0.950 . S
C1349 C1348 1.349 . S
C1349 C1365 1.349 . S
C1350 C1348 1.327 . S
C1350 C1369 1.429 . S
C1350 H1374 0.950 . S
C1351 C1368 1.574 . S
C1351 C1370 1.368 . S
C1351 H1375 0.949 . S
H1352 C1356 0.949 . S
C1353 C1354 1.349 . S
C1353 C1355 1.327 . S
C1353 H1376 0.950 . S
C1354 C1353 1.349 . S
C1354 C1366 1.349 . S
C1355 C1353 1.327 . S
C1355 C1371 1.429 . S
C1355 H1377 0.950 . S
C1356 H1352 0.949 . S
C1356 C1364 1.574 . S
C1356 C1372 1.368 . S
H1357 C1365 0.950 . S
H1358 C1363 0.950 . S
H1359 C1364 0.949 . S
H1360 C1366 0.950 . S
H1361 C1367 0.950 . S
H1362 C1368 0.949 . S
C1363 H1358 0.950 . S
C1363 C1365 1.327 . S
C1363 C1369 1.429 . S
C1364 C1356 1.574 . S
C1364 H1359 0.949 . S
C1364 C1370 1.368 . S
C1365 C1349 1.349 . S
C1365 H1357 0.950 . S
C1365 C1363 1.327 . S
C1366 C1354 1.349 . S
C1366 H1360 0.950 . S
C1366 C1367 1.327 . S
C1367 H1361 0.950 . S
C1367 C1366 1.327 . S
C1367 C1371 1.429 . S
C1368 C1351 1.574 . S
C1368 H1362 0.949 . S
C1368 C1372 1.368 . S
C1369 C1350 1.429 . S
C1369 C1363 1.429 . S
C1369 C1370 1.523 . S
C1370 C1351 1.368 . S
C1370 C1364 1.368 . S
C1370 C1369 1.523 . S
C1371 C1355 1.429 . S
C1371 C1367 1.429 . S
C1371 C1372 1.523 . S
C1372 C1356 1.368 . S
C1372 C1368 1.368 . S
C1372 C1371 1.523 . S
H1373 C1348 0.950 . S
H1374 C1350 0.950 . S
H1375 C1351 0.949 . S
H1376 C1353 0.950 . S
H1377 C1355 0.950 . S
C1378 C1379 1.349 . S
C1378 C1380 1.327 . S
C1378 H1403 0.950 . S
C1379 C1378 1.349 . S
C1379 C1395 1.349 . S
C1380 C1378 1.327 . S
C1380 C1399 1.429 . S
C1380 H1404 0.950 . S
C1381 C1398 1.574 . S
C1381 C1400 1.368 . S
C1381 H1405 0.949 . S
H1382 C1386 0.949 . S
C1383 C1384 1.349 . S
C1383 C1385 1.327 . S
C1383 H1406 0.950 . S
C1384 C1383 1.349 . S
C1384 C1396 1.349 . S
C1385 C1383 1.327 . S
C1385 C1401 1.429 1_556 S
C1385 H1407 0.950 1_556 S
C1386 H1382 0.949 . S
C1386 C1394 1.574 . S
C1386 C1402 1.368 . S
H1387 C1395 0.950 . S
H1388 C1393 0.950 . S
H1389 C1394 0.949 . S
H1390 C1396 0.950 . S
H1391 C1397 0.950 . S
H1392 C1398 0.949 . S
C1393 H1388 0.950 . S
C1393 C1395 1.327 . S
C1393 C1399 1.429 . S
C1394 C1386 1.574 . S
C1394 H1389 0.949 . S
C1394 C1400 1.368 . S
C1395 C1379 1.349 . S
C1395 H1387 0.950 . S
C1395 C1393 1.327 . S
C1396 C1384 1.349 . S
C1396 H1390 0.950 . S
C1396 C1397 1.327 . S
C1397 H1391 0.950 . S
C1397 C1396 1.327 . S
C1397 C1401 1.429 1_556 S
C1398 C1381 1.574 . S
C1398 H1392 0.949 . S
C1398 C1402 1.368 . S
C1399 C1380 1.429 . S
C1399 C1393 1.429 . S
C1399 C1400 1.523 . S
C1400 C1381 1.368 . S
C1400 C1394 1.368 . S
C1400 C1399 1.523 . S
C1401 C1385 1.429 1_554 S
C1401 C1397 1.429 1_554 S
C1401 C1402 1.523 . S
C1402 C1386 1.368 . S
C1402 C1398 1.368 . S
C1402 C1401 1.523 . S
H1403 C1378 0.950 . S
H1404 C1380 0.950 . S
H1405 C1381 0.949 . S
H1406 C1383 0.950 . S
H1407 C1385 0.950 1_554 S
C1408 C1409 1.349 . S
C1408 C1410 1.327 . S
C1408 H1433 0.950 . S
C1409 C1408 1.349 . S
C1409 C1425 1.349 . S
C1410 C1408 1.327 . S
C1410 C1429 1.429 . S
C1410 H1434 0.950 . S
C1411 C1428 1.574 . S
C1411 C1430 1.368 . S
C1411 H1435 0.949 . S
H1412 C1416 0.949 . S
C1413 C1414 1.349 . S
C1413 C1415 1.327 . S
C1413 H1436 0.950 . S
C1414 C1413 1.349 . S
C1414 C1426 1.349 . S
C1415 C1413 1.327 . S
C1415 C1431 1.429 . S
C1415 H1437 0.950 . S
C1416 H1412 0.949 . S
C1416 C1424 1.574 . S
C1416 C1432 1.368 . S
H1417 C1425 0.950 . S
H1418 C1423 0.950 . S
H1419 C1424 0.949 . S
H1420 C1426 0.950 . S
H1421 C1427 0.950 . S
H1422 C1428 0.949 . S
C1423 H1418 0.950 . S
C1423 C1425 1.327 . S
C1423 C1429 1.429 . S
C1424 C1416 1.574 . S
C1424 H1419 0.949 . S
C1424 C1430 1.368 . S
C1425 C1409 1.349 . S
C1425 H1417 0.950 . S
C1425 C1423 1.327 . S
C1426 C1414 1.349 . S
C1426 H1420 0.950 . S
C1426 C1427 1.327 . S
C1427 H1421 0.950 . S
C1427 C1426 1.327 . S
C1427 C1431 1.429 . S
C1428 C1411 1.574 . S
C1428 H1422 0.949 . S
C1428 C1432 1.368 . S
C1429 C1410 1.429 . S
C1429 C1423 1.429 . S
C1429 C1430 1.523 . S
C1430 C1411 1.368 . S
C1430 C1424 1.368 . S
C1430 C1429 1.523 . S
C1431 C1415 1.429 . S
C1431 C1427 1.429 . S
C1431 C1432 1.523 . S
C1432 C1416 1.368 . S
C1432 C1428 1.368 . S
C1432 C1431 1.523 . S
H1433 C1408 0.950 . S
H1434 C1410 0.950 . S
H1435 C1411 0.949 . S
H1436 C1413 0.950 . S
H1437 C1415 0.950 . S
C1438 C1439 1.349 . S
C1438 C1440 1.327 . S
C1438 H1463 0.950 . S
C1439 C1438 1.349 . S
C1439 C1455 1.349 . S
C1440 C1438 1.327 . S
C1440 C1459 1.429 . S
C1440 H1464 0.950 . S
C1441 C1458 1.574 1_455 S
C1441 C1460 1.368 . S
C1441 H1465 0.949 . S
H1442 C1446 0.949 . S
C1443 C1444 1.349 . S
C1443 C1445 1.327 . S
C1443 H1466 0.950 . S
C1444 C1443 1.349 . S
C1444 C1456 1.349 . S
C1445 C1443 1.327 . S
C1445 C1461 1.429 . S
C1445 H1467 0.950 . S
C1446 H1442 0.949 . S
C1446 C1454 1.574 1_655 S
C1446 C1462 1.368 . S
H1447 C1455 0.950 . S
H1448 C1453 0.950 . S
H1449 C1454 0.949 . S
H1450 C1456 0.950 . S
H1451 C1457 0.950 . S
H1452 C1458 0.949 . S
C1453 H1448 0.950 . S
C1453 C1455 1.327 . S
C1453 C1459 1.429 . S
C1454 C1446 1.574 1_455 S
C1454 H1449 0.949 . S
C1454 C1460 1.368 . S
C1455 C1439 1.349 . S
C1455 H1447 0.950 . S
C1455 C1453 1.327 . S
C1456 C1444 1.349 . S
C1456 H1450 0.950 . S
C1456 C1457 1.327 . S
C1457 H1451 0.950 . S
C1457 C1456 1.327 . S
C1457 C1461 1.429 . S
C1458 C1441 1.574 1_655 S
C1458 H1452 0.949 . S
C1458 C1462 1.368 . S
C1459 C1440 1.429 . S
C1459 C1453 1.429 . S
C1459 C1460 1.523 . S
C1460 C1441 1.368 . S
C1460 C1454 1.368 . S
C1460 C1459 1.523 . S
C1461 C1445 1.429 . S
C1461 C1457 1.429 . S
C1461 C1462 1.523 . S
C1462 C1446 1.368 . S
C1462 C1458 1.368 . S
C1462 C1461 1.523 . S
H1463 C1438 0.950 . S
H1464 C1440 0.950 . S
H1465 C1441 0.949 . S
H1466 C1443 0.950 . S
H1467 C1445 0.950 . S
C1468 C1469 1.349 . S
C1468 C1470 1.327 . S
C1468 H1493 0.950 . S
C1469 C1468 1.349 . S
C1469 C1485 1.349 . S
C1470 C1468 1.327 . S
C1470 C1489 1.429 . S
C1470 H1494 0.950 . S
C1471 C1488 1.574 . S
C1471 C1490 1.368 . S
C1471 H1495 0.949 . S
H1472 C1476 0.949 . S
C1473 C1474 1.349 . S
C1473 C1475 1.327 . S
C1473 H1496 0.950 . S
C1474 C1473 1.349 . S
C1474 C1486 1.349 . S
C1475 C1473 1.327 . S
C1475 C1491 1.429 . S
C1475 H1497 0.950 . S
C1476 H1472 0.949 . S
C1476 C1484 1.574 . S
C1476 C1492 1.368 . S
H1477 C1485 0.950 . S
H1478 C1483 0.950 . S
H1479 C1484 0.949 . S
H1480 C1486 0.950 . S
H1481 C1487 0.950 . S
H1482 C1488 0.949 . S
C1483 H1478 0.950 . S
C1483 C1485 1.327 . S
C1483 C1489 1.429 . S
C1484 C1476 1.574 . S
C1484 H1479 0.949 . S
C1484 C1490 1.368 . S
C1485 C1469 1.349 . S
C1485 H1477 0.950 . S
C1485 C1483 1.327 . S
C1486 C1474 1.349 . S
C1486 H1480 0.950 . S
C1486 C1487 1.327 . S
C1487 H1481 0.950 . S
C1487 C1486 1.327 . S
C1487 C1491 1.429 . S
C1488 C1471 1.574 . S
C1488 H1482 0.949 . S
C1488 C1492 1.368 . S
C1489 C1470 1.429 . S
C1489 C1483 1.429 . S
C1489 C1490 1.523 . S
C1490 C1471 1.368 . S
C1490 C1484 1.368 . S
C1490 C1489 1.523 . S
C1491 C1475 1.429 . S
C1491 C1487 1.429 . S
C1491 C1492 1.523 . S
C1492 C1476 1.368 . S
C1492 C1488 1.368 . S
C1492 C1491 1.523 . S
H1493 C1468 0.950 . S
H1494 C1470 0.950 . S
H1495 C1471 0.949 . S
H1496 C1473 0.950 . S
H1497 C1475 0.950 . S
C1498 C1499 1.349 . S
C1498 C1500 1.327 . S
C1498 H1523 0.950 . S
C1499 C1498 1.349 . S
C1499 C1515 1.349 . S
C1500 C1498 1.327 . S
C1500 C1519 1.429 . S
C1500 H1524 0.950 . S
C1501 C1518 1.574 . S
C1501 C1520 1.368 . S
C1501 H1525 0.949 . S
H1502 C1506 0.949 . S
C1503 C1504 1.349 . S
C1503 C1505 1.327 . S
C1503 H1526 0.950 . S
C1504 C1503 1.349 . S
C1504 C1516 1.349 . S
C1505 C1503 1.327 . S
C1505 C1521 1.429 . S
C1505 H1527 0.950 . S
C1506 H1502 0.949 . S
C1506 C1514 1.574 . S
C1506 C1522 1.368 . S
H1507 C1515 0.950 . S
H1508 C1513 0.950 . S
H1509 C1514 0.949 . S
H1510 C1516 0.950 . S
H1511 C1517 0.950 . S
H1512 C1518 0.949 . S
C1513 H1508 0.950 . S
C1513 C1515 1.327 . S
C1513 C1519 1.429 . S
C1514 C1506 1.574 . S
C1514 H1509 0.949 . S
C1514 C1520 1.368 . S
C1515 C1499 1.349 . S
C1515 H1507 0.950 . S
C1515 C1513 1.327 . S
C1516 C1504 1.349 . S
C1516 H1510 0.950 . S
C1516 C1517 1.327 . S
C1517 H1511 0.950 . S
C1517 C1516 1.327 . S
C1517 C1521 1.429 . S
C1518 C1501 1.574 . S
C1518 H1512 0.949 . S
C1518 C1522 1.368 . S
C1519 C1500 1.429 . S
C1519 C1513 1.429 . S
C1519 C1520 1.523 . S
C1520 C1501 1.368 . S
C1520 C1514 1.368 . S
C1520 C1519 1.523 . S
C1521 C1505 1.429 . S
C1521 C1517 1.429 . S
C1521 C1522 1.523 . S
C1522 C1506 1.368 . S
C1522 C1518 1.368 . S
C1522 C1521 1.523 . S
H1523 C1498 0.950 . S
H1524 C1500 0.950 . S
H1525 C1501 0.949 . S
H1526 C1503 0.950 . S
H1527 C1505 0.950 . S
C1528 C1529 1.349 . S
C1528 C1530 1.327 . S
C1528 H1553 0.950 . S
C1529 C1528 1.349 . S
C1529 C1545 1.349 . S
C1530 C1528 1.327 . S
C1530 C1549 1.429 . S
C1530 H1554 0.950 . S
C1531 C1548 1.574 . S
C1531 C1550 1.368 . S
C1531 H1555 0.949 . S
H1532 C1536 0.949 . S
C1533 C1534 1.349 . S
C1533 C1535 1.327 . S
C1533 H1556 0.950 . S
C1534 C1533 1.349 . S
C1534 C1546 1.349 . S
C1535 C1533 1.327 . S
C1535 C1551 1.429 . S
C1535 H1557 0.950 . S
C1536 H1532 0.949 . S
C1536 C1544 1.574 . S
C1536 C1552 1.368 . S
H1537 C1545 0.950 . S
H1538 C1543 0.950 . S
H1539 C1544 0.949 . S
H1540 C1546 0.950 . S
H1541 C1547 0.950 . S
H1542 C1548 0.949 . S
C1543 H1538 0.950 . S
C1543 C1545 1.327 . S
C1543 C1549 1.429 . S
C1544 C1536 1.574 . S
C1544 H1539 0.949 . S
C1544 C1550 1.368 . S
C1545 C1529 1.349 . S
C1545 H1537 0.950 . S
C1545 C1543 1.327 . S
C1546 C1534 1.349 . S
C1546 H1540 0.950 . S
C1546 C1547 1.327 . S
C1547 H1541 0.950 . S
C1547 C1546 1.327 . S
C1547 C1551 1.429 . S
C1548 C1531 1.574 . S
C1548 H1542 0.949 . S
C1548 C1552 1.368 . S
C1549 C1530 1.429 . S
C1549 C1543 1.429 . S
C1549 C1550 1.523 . S
C1550 C1531 1.368 . S
C1550 C1544 1.368 . S
C1550 C1549 1.523 . S
C1551 C1535 1.429 . S
C1551 C1547 1.429 . S
C1551 C1552 1.523 . S
C1552 C1536 1.368 . S
C1552 C1548 1.368 . S
C1552 C1551 1.523 . S
H1553 C1528 0.950 . S
H1554 C1530 0.950 . S
H1555 C1531 0.949 . S
H1556 C1533 0.950 . S
H1557 C1535 0.950 . S
C1558 C1559 1.349 . S
C1558 C1560 1.327 . S
C1558 H1583 0.950 . S
C1559 C1558 1.349 . S
C1559 C1575 1.349 . S
C1560 C1558 1.327 . S
C1560 C1579 1.429 . S
C1560 H1584 0.950 . S
C1561 C1578 1.574 . S
C1561 C1580 1.368 . S
C1561 H1585 0.949 . S
H1562 C1566 0.949 . S
C1563 C1564 1.349 . S
C1563 C1565 1.327 . S
C1563 H1586 0.950 . S
C1564 C1563 1.349 . S
C1564 C1576 1.349 . S
C1565 C1563 1.327 . S
C1565 C1581 1.429 . S
C1565 H1587 0.950 . S
C1566 H1562 0.949 . S
C1566 C1574 1.574 . S
C1566 C1582 1.368 . S
H1567 C1575 0.950 . S
H1568 C1573 0.950 . S
H1569 C1574 0.949 . S
H1570 C1576 0.950 . S
H1571 C1577 0.950 . S
H1572 C1578 0.949 . S
C1573 H1568 0.950 . S
C1573 C1575 1.327 . S
C1573 C1579 1.429 . S
C1574 C1566 1.574 . S
C1574 H1569 0.949 . S
C1574 C1580 1.368 . S
C1575 C1559 1.349 . S
C1575 H1567 0.950 . S
C1575 C1573 1.327 . S
C1576 C1564 1.349 . S
C1576 H1570 0.950 . S
C1576 C1577 1.327 . S
C1577 H1571 0.950 . S
C1577 C1576 1.327 . S
C1577 C1581 1.429 . S
C1578 C1561 1.574 . S
C1578 H1572 0.949 . S
C1578 C1582 1.368 . S
C1579 C1560 1.429 . S
C1579 C1573 1.429 . S
C1579 C1580 1.523 . S
C1580 C1561 1.368 . S
C1580 C1574 1.368 . S
C1580 C1579 1.523 . S
C1581 C1565 1.429 . S
C1581 C1577 1.429 . S
C1581 C1582 1.523 . S
C1582 C1566 1.368 . S
C1582 C1578 1.368 . S
C1582 C1581 1.523 . S
H1583 C1558 0.950 . S
H1584 C1560 0.950 . S
H1585 C1561 0.949 . S
H1586 C1563 0.950 . S
H1587 C1565 0.950 . S
C1588 C1589 1.349 . S
C1588 C1590 1.327 . S
C1588 H1613 0.950 . S
C1589 C1588 1.349 . S
C1589 C1605 1.349 . S
C1590 C1588 1.327 . S
C1590 C1609 1.429 . S
C1590 H1614 0.950 . S
C1591 C1608 1.574 . S
C1591 C1610 1.368 . S
C1591 H1615 0.949 . S
H1592 C1596 0.949 . S
C1593 C1594 1.349 . S
C1593 C1595 1.327 . S
C1593 H1616 0.950 . S
C1594 C1593 1.349 . S
C1594 C1606 1.349 . S
C1595 C1593 1.327 . S
C1595 C1611 1.429 . S
C1595 H1617 0.950 . S
C1596 H1592 0.949 . S
C1596 C1604 1.574 . S
C1596 C1612 1.368 . S
H1597 C1605 0.950 . S
H1598 C1603 0.950 . S
H1599 C1604 0.949 . S
H1600 C1606 0.950 . S
H1601 C1607 0.950 . S
H1602 C1608 0.949 . S
C1603 H1598 0.950 . S
C1603 C1605 1.327 . S
C1603 C1609 1.429 . S
C1604 C1596 1.574 . S
C1604 H1599 0.949 . S
C1604 C1610 1.368 . S
C1605 C1589 1.349 . S
C1605 H1597 0.950 . S
C1605 C1603 1.327 . S
C1606 C1594 1.349 . S
C1606 H1600 0.950 . S
C1606 C1607 1.327 . S
C1607 H1601 0.950 . S
C1607 C1606 1.327 . S
C1607 C1611 1.429 . S
C1608 C1591 1.574 . S
C1608 H1602 0.949 . S
C1608 C1612 1.368 . S
C1609 C1590 1.429 . S
C1609 C1603 1.429 . S
C1609 C1610 1.523 . S
C1610 C1591 1.368 . S
C1610 C1604 1.368 . S
C1610 C1609 1.523 . S
C1611 C1595 1.429 . S
C1611 C1607 1.429 . S
C1611 C1612 1.523 . S
C1612 C1596 1.368 . S
C1612 C1608 1.368 . S
C1612 C1611 1.523 . S
H1613 C1588 0.950 . S
H1614 C1590 0.950 . S
H1615 C1591 0.949 . S
H1616 C1593 0.950 . S
H1617 C1595 0.950 . S
C1618 C1619 1.349 . S
C1618 C1620 1.327 . S
C1618 H1643 0.950 . S
C1619 C1618 1.349 . S
C1619 C1635 1.349 . S
C1620 C1618 1.327 . S
C1620 C1639 1.429 . S
C1620 H1644 0.950 . S
C1621 C1638 1.574 1_655 S
C1621 C1640 1.368 . S
C1621 H1645 0.949 . S
H1622 C1626 0.949 . S
C1623 C1624 1.349 . S
C1623 C1625 1.327 . S
C1623 H1646 0.950 . S
C1624 C1623 1.349 . S
C1624 C1636 1.349 . S
C1625 C1623 1.327 . S
C1625 C1641 1.429 . S
C1625 H1647 0.950 . S
C1626 H1622 0.949 . S
C1626 C1634 1.574 1_455 S
C1626 C1642 1.368 . S
H1627 C1635 0.950 . S
H1628 C1633 0.950 . S
H1629 C1634 0.949 . S
H1630 C1636 0.950 . S
H1631 C1637 0.950 . S
H1632 C1638 0.949 . S
C1633 H1628 0.950 . S
C1633 C1635 1.327 . S
C1633 C1639 1.429 . S
C1634 C1626 1.574 1_655 S
C1634 H1629 0.949 . S
C1634 C1640 1.368 . S
C1635 C1619 1.349 . S
C1635 H1627 0.950 . S
C1635 C1633 1.327 . S
C1636 C1624 1.349 . S
C1636 H1630 0.950 . S
C1636 C1637 1.327 . S
C1637 H1631 0.950 . S
C1637 C1636 1.327 . S
C1637 C1641 1.429 . S
C1638 C1621 1.574 1_455 S
C1638 H1632 0.949 . S
C1638 C1642 1.368 . S
C1639 C1620 1.429 . S
C1639 C1633 1.429 . S
C1639 C1640 1.523 . S
C1640 C1621 1.368 . S
C1640 C1634 1.368 . S
C1640 C1639 1.523 . S
C1641 C1625 1.429 . S
C1641 C1637 1.429 . S
C1641 C1642 1.523 . S
C1642 C1626 1.368 . S
C1642 C1638 1.368 . S
C1642 C1641 1.523 . S
H1643 C1618 0.950 . S
H1644 C1620 0.950 . S
H1645 C1621 0.949 . S
H1646 C1623 0.950 . S
H1647 C1625 0.950 . S
C1648 C1649 1.349 . S
C1648 C1650 1.327 . S
C1648 H1673 0.950 . S
C1649 C1648 1.349 . S
C1649 C1665 1.349 . S
C1650 C1648 1.327 . S
C1650 C1669 1.429 . S
C1650 H1674 0.950 . S
C1651 C1668 1.574 . S
C1651 C1670 1.368 . S
C1651 H1675 0.949 . S
H1652 C1656 0.949 . S
C1653 C1654 1.349 . S
C1653 C1655 1.327 . S
C1653 H1676 0.950 . S
C1654 C1653 1.349 . S
C1654 C1666 1.349 . S
C1655 C1653 1.327 . S
C1655 C1671 1.429 . S
C1655 H1677 0.950 . S
C1656 H1652 0.949 . S
C1656 C1664 1.574 . S
C1656 C1672 1.368 . S
H1657 C1665 0.950 . S
H1658 C1663 0.950 . S
H1659 C1664 0.949 . S
H1660 C1666 0.950 . S
H1661 C1667 0.950 . S
H1662 C1668 0.949 . S
C1663 H1658 0.950 . S
C1663 C1665 1.327 . S
C1663 C1669 1.429 . S
C1664 C1656 1.574 . S
C1664 H1659 0.949 . S
C1664 C1670 1.368 . S
C1665 C1649 1.349 . S
C1665 H1657 0.950 . S
C1665 C1663 1.327 . S
C1666 C1654 1.349 . S
C1666 H1660 0.950 . S
C1666 C1667 1.327 . S
C1667 H1661 0.950 . S
C1667 C1666 1.327 . S
C1667 C1671 1.429 . S
C1668 C1651 1.574 . S
C1668 H1662 0.949 . S
C1668 C1672 1.368 . S
C1669 C1650 1.429 . S
C1669 C1663 1.429 . S
C1669 C1670 1.523 . S
C1670 C1651 1.368 . S
C1670 C1664 1.368 . S
C1670 C1669 1.523 . S
C1671 C1655 1.429 . S
C1671 C1667 1.429 . S
C1671 C1672 1.523 . S
C1672 C1656 1.368 . S
C1672 C1668 1.368 . S
C1672 C1671 1.523 . S
H1673 C1648 0.950 . S
H1674 C1650 0.950 . S
H1675 C1651 0.949 . S
H1676 C1653 0.950 . S
H1677 C1655 0.950 . S
C1678 C1679 1.349 . S
C1678 C1680 1.327 . S
C1678 H1703 0.950 . S
C1679 C1678 1.349 . S
C1679 C1695 1.349 . S
C1680 C1678 1.327 . S
C1680 C1699 1.429 . S
C1680 H1704 0.950 . S
C1681 C1698 1.574 . S
C1681 C1700 1.368 . S
C1681 H1705 0.949 . S
H1682 C1686 0.949 . S
C1683 C1684 1.349 . S
C1683 C1685 1.327 . S
C1683 H1706 0.950 . S
C1684 C1683 1.349 . S
C1684 C1696 1.349 . S
C1685 C1683 1.327 . S
C1685 C1701 1.429 . S
C1685 H1707 0.950 . S
C1686 H1682 0.949 . S
C1686 C1694 1.574 . S
C1686 C1702 1.368 . S
H1687 C1695 0.950 . S
H1688 C1693 0.950 . S
H1689 C1694 0.949 . S
H1690 C1696 0.950 . S
H1691 C1697 0.950 . S
H1692 C1698 0.949 . S
C1693 H1688 0.950 . S
C1693 C1695 1.327 . S
C1693 C1699 1.429 . S
C1694 C1686 1.574 . S
C1694 H1689 0.949 . S
C1694 C1700 1.368 . S
C1695 C1679 1.349 . S
C1695 H1687 0.950 . S
C1695 C1693 1.327 . S
C1696 C1684 1.349 . S
C1696 H1690 0.950 . S
C1696 C1697 1.327 . S
C1697 H1691 0.950 . S
C1697 C1696 1.327 . S
C1697 C1701 1.429 . S
C1698 C1681 1.574 . S
C1698 H1692 0.949 . S
C1698 C1702 1.368 . S
C1699 C1680 1.429 . S
C1699 C1693 1.429 . S
C1699 C1700 1.523 . S
C1700 C1681 1.368 . S
C1700 C1694 1.368 . S
C1700 C1699 1.523 . S
C1701 C1685 1.429 . S
C1701 C1697 1.429 . S
C1701 C1702 1.523 . S
C1702 C1686 1.368 . S
C1702 C1698 1.368 . S
C1702 C1701 1.523 . S
H1703 C1678 0.950 . S
H1704 C1680 0.950 . S
H1705 C1681 0.949 . S
H1706 C1683 0.950 . S
H1707 C1685 0.950 . S
C1708 C1709 1.349 . S
C1708 C1710 1.327 . S
C1708 H1733 0.950 . S
C1709 C1708 1.349 . S
C1709 C1725 1.349 . S
C1710 C1708 1.327 . S
C1710 C1729 1.429 . S
C1710 H1734 0.950 . S
C1711 C1728 1.574 . S
C1711 C1730 1.368 . S
C1711 H1735 0.949 . S
H1712 C1716 0.949 . S
C1713 C1714 1.349 . S
C1713 C1715 1.327 . S
C1713 H1736 0.950 . S
C1714 C1713 1.349 . S
C1714 C1726 1.349 . S
C1715 C1713 1.327 . S
C1715 C1731 1.429 . S
C1715 H1737 0.950 . S
C1716 H1712 0.949 . S
C1716 C1724 1.574 . S
C1716 C1732 1.368 . S
H1717 C1725 0.950 . S
H1718 C1723 0.950 . S
H1719 C1724 0.949 . S
H1720 C1726 0.950 . S
H1721 C1727 0.950 . S
H1722 C1728 0.949 . S
C1723 H1718 0.950 . S
C1723 C1725 1.327 . S
C1723 C1729 1.429 . S
C1724 C1716 1.574 . S
C1724 H1719 0.949 . S
C1724 C1730 1.368 . S
C1725 C1709 1.349 . S
C1725 H1717 0.950 . S
C1725 C1723 1.327 . S
C1726 C1714 1.349 . S
C1726 H1720 0.950 . S
C1726 C1727 1.327 . S
C1727 H1721 0.950 . S
C1727 C1726 1.327 . S
C1727 C1731 1.429 . S
C1728 C1711 1.574 . S
C1728 H1722 0.949 . S
C1728 C1732 1.368 . S
C1729 C1710 1.429 . S
C1729 C1723 1.429 . S
C1729 C1730 1.523 . S
C1730 C1711 1.368 . S
C1730 C1724 1.368 . S
C1730 C1729 1.523 . S
C1731 C1715 1.429 . S
C1731 C1727 1.429 . S
C1731 C1732 1.523 . S
C1732 C1716 1.368 . S
C1732 C1728 1.368 . S
C1732 C1731 1.523 . S
H1733 C1708 0.950 . S
H1734 C1710 0.950 . S
H1735 C1711 0.949 . S
H1736 C1713 0.950 . S
H1737 C1715 0.950 . S
C1738 C1739 1.349 . S
C1738 C1740 1.327 . S
C1738 H1763 0.950 . S
C1739 C1738 1.349 . S
C1739 C1755 1.349 . S
C1740 C1738 1.327 . S
C1740 C1759 1.429 . S
C1740 H1764 0.950 . S
C1741 C1758 1.574 . S
C1741 C1760 1.368 . S
C1741 H1765 0.949 . S
H1742 C1746 0.949 . S
C1743 C1744 1.349 . S
C1743 C1745 1.327 . S
C1743 H1766 0.950 . S
C1744 C1743 1.349 . S
C1744 C1756 1.349 . S
C1745 C1743 1.327 . S
C1745 C1761 1.429 . S
C1745 H1767 0.950 . S
C1746 H1742 0.949 . S
C1746 C1754 1.574 . S
C1746 C1762 1.368 . S
H1747 C1755 0.950 . S
H1748 C1753 0.950 . S
H1749 C1754 0.949 . S
H1750 C1756 0.950 . S
H1751 C1757 0.950 . S
H1752 C1758 0.949 . S
C1753 H1748 0.950 . S
C1753 C1755 1.327 . S
C1753 C1759 1.429 . S
C1754 C1746 1.574 . S
C1754 H1749 0.949 . S
C1754 C1760 1.368 . S
C1755 C1739 1.349 . S
C1755 H1747 0.950 . S
C1755 C1753 1.327 . S
C1756 C1744 1.349 . S
C1756 H1750 0.950 . S
C1756 C1757 1.327 . S
C1757 H1751 0.950 . S
C1757 C1756 1.327 . S
C1757 C1761 1.429 . S
C1758 C1741 1.574 . S
C1758 H1752 0.949 . S
C1758 C1762 1.368 . S
C1759 C1740 1.429 . S
C1759 C1753 1.429 . S
C1759 C1760 1.523 . S
C1760 C1741 1.368 . S
C1760 C1754 1.368 . S
C1760 C1759 1.523 . S
C1761 C1745 1.429 . S
C1761 C1757 1.429 . S
C1761 C1762 1.523 . S
C1762 C1746 1.368 . S
C1762 C1758 1.368 . S
C1762 C1761 1.523 . S
H1763 C1738 0.950 . S
H1764 C1740 0.950 . S
H1765 C1741 0.949 . S
H1766 C1743 0.950 . S
H1767 C1745 0.950 . S
C1768 C1769 1.349 . S
C1768 C1770 1.327 . S
C1768 H1793 0.950 . S
C1769 C1768 1.349 . S
C1769 C1785 1.349 . S
C1770 C1768 1.327 . S
C1770 C1789 1.429 . S
C1770 H1794 0.950 . S
C1771 C1788 1.574 . S
C1771 C1790 1.368 . S
C1771 H1795 0.949 . S
H1772 C1776 0.949 . S
C1773 C1774 1.349 . S
C1773 C1775 1.327 . S
C1773 H1796 0.950 . S
C1774 C1773 1.349 . S
C1774 C1786 1.349 . S
C1775 C1773 1.327 . S
C1775 C1791 1.429 . S
C1775 H1797 0.950 . S
C1776 H1772 0.949 . S
C1776 C1784 1.574 . S
C1776 C1792 1.368 . S
H1777 C1785 0.950 . S
H1778 C1783 0.950 . S
H1779 C1784 0.949 . S
H1780 C1786 0.950 . S
H1781 C1787 0.950 . S
H1782 C1788 0.949 . S
C1783 H1778 0.950 . S
C1783 C1785 1.327 . S
C1783 C1789 1.429 . S
C1784 C1776 1.574 . S
C1784 H1779 0.949 . S
C1784 C1790 1.368 . S
C1785 C1769 1.349 . S
C1785 H1777 0.950 . S
C1785 C1783 1.327 . S
C1786 C1774 1.349 . S
C1786 H1780 0.950 . S
C1786 C1787 1.327 . S
C1787 H1781 0.950 . S
C1787 C1786 1.327 . S
C1787 C1791 1.429 . S
C1788 C1771 1.574 . S
C1788 H1782 0.949 . S
C1788 C1792 1.368 . S
C1789 C1770 1.429 . S
C1789 C1783 1.429 . S
C1789 C1790 1.523 . S
C1790 C1771 1.368 . S
C1790 C1784 1.368 . S
C1790 C1789 1.523 . S
C1791 C1775 1.429 . S
C1791 C1787 1.429 . S
C1791 C1792 1.523 . S
C1792 C1776 1.368 . S
C1792 C1788 1.368 . S
C1792 C1791 1.523 . S
H1793 C1768 0.950 . S
H1794 C1770 0.950 . S
H1795 C1771 0.949 . S
H1796 C1773 0.950 . S
H1797 C1775 0.950 . S
C1798 C1799 1.349 . S
C1798 C1800 1.327 . S
C1798 H1823 0.950 . S
C1799 C1798 1.349 . S
C1799 C1815 1.349 . S
C1800 C1798 1.327 . S
C1800 C1819 1.429 . S
C1800 H1824 0.950 . S
C1801 C1818 1.574 1_655 S
C1801 C1820 1.368 . S
C1801 H1825 0.949 . S
H1802 C1806 0.949 . S
C1803 C1804 1.349 . S
C1803 C1805 1.327 . S
C1803 H1826 0.950 . S
C1804 C1803 1.349 . S
C1804 C1816 1.349 . S
C1805 C1803 1.327 . S
C1805 C1821 1.429 . S
C1805 H1827 0.950 . S
C1806 H1802 0.949 . S
C1806 C1814 1.574 1_455 S
C1806 C1822 1.368 . S
H1807 C1815 0.950 . S
H1808 C1813 0.950 . S
H1809 C1814 0.949 . S
H1810 C1816 0.950 . S
H1811 C1817 0.950 . S
H1812 C1818 0.949 . S
C1813 H1808 0.950 . S
C1813 C1815 1.327 . S
C1813 C1819 1.429 . S
C1814 C1806 1.574 1_655 S
C1814 H1809 0.949 . S
C1814 C1820 1.368 . S
C1815 C1799 1.349 . S
C1815 H1807 0.950 . S
C1815 C1813 1.327 . S
C1816 C1804 1.349 . S
C1816 H1810 0.950 . S
C1816 C1817 1.327 . S
C1817 H1811 0.950 . S
C1817 C1816 1.327 . S
C1817 C1821 1.429 . S
C1818 C1801 1.574 1_455 S
C1818 H1812 0.949 . S
C1818 C1822 1.368 . S
C1819 C1800 1.429 . S
C1819 C1813 1.429 . S
C1819 C1820 1.523 . S
C1820 C1801 1.368 . S
C1820 C1814 1.368 . S
C1820 C1819 1.523 . S
C1821 C1805 1.429 . S
C1821 C1817 1.429 . S
C1821 C1822 1.523 . S
C1822 C1806 1.368 . S
C1822 C1818 1.368 . S
C1822 C1821 1.523 . S
H1823 C1798 0.950 . S
H1824 C1800 0.950 . S
H1825 C1801 0.949 . S
H1826 C1803 0.950 . S
H1827 C1805 0.950 . S
C1828 C1829 1.349 . S
C1828 C1830 1.327 . S
C1828 H1853 0.950 . S
C1829 C1828 1.349 . S
C1829 C1845 1.349 . S
C1830 C1828 1.327 . S
C1830 C1849 1.429 . S
C1830 H1854 0.950 . S
C1831 C1848 1.574 1_655 S
C1831 C1850 1.368 . S
C1831 H1855 0.949 . S
H1832 C1836 0.949 . S
C1833 C1834 1.349 . S
C1833 C1835 1.327 . S
C1833 H1856 0.950 . S
C1834 C1833 1.349 . S
C1834 C1846 1.349 . S
C1835 C1833 1.327 . S
C1835 C1851 1.429 . S
C1835 H1857 0.950 . S
C1836 H1832 0.949 . S
C1836 C1844 1.574 1_455 S
C1836 C1852 1.368 . S
H1837 C1845 0.950 . S
H1838 C1843 0.950 . S
H1839 C1844 0.949 . S
H1840 C1846 0.950 . S
H1841 C1847 0.950 . S
H1842 C1848 0.949 . S
C1843 H1838 0.950 . S
C1843 C1845 1.327 . S
C1843 C1849 1.429 . S
C1844 C1836 1.574 1_655 S
C1844 H1839 0.949 . S
C1844 C1850 1.368 . S
C1845 C1829 1.349 . S
C1845 H1837 0.950 . S
C1845 C1843 1.327 . S
C1846 C1834 1.349 . S
C1846 H1840 0.950 . S
C1846 C1847 1.327 . S
C1847 H1841 0.950 . S
C1847 C1846 1.327 . S
C1847 C1851 1.429 . S
C1848 C1831 1.574 1_455 S
C1848 H1842 0.949 . S
C1848 C1852 1.368 . S
C1849 C1830 1.429 . S
C1849 C1843 1.429 . S
C1849 C1850 1.523 . S
C1850 C1831 1.368 . S
C1850 C1844 1.368 . S
C1850 C1849 1.523 . S
C1851 C1835 1.429 . S
C1851 C1847 1.429 . S
C1851 C1852 1.523 . S
C1852 C1836 1.368 . S
C1852 C1848 1.368 . S
C1852 C1851 1.523 . S
H1853 C1828 0.950 . S
H1854 C1830 0.950 . S
H1855 C1831 0.949 . S
H1856 C1833 0.950 . S
H1857 C1835 0.950 . S
C1858 C1859 1.349 . S
C1858 C1860 1.327 . S
C1858 H1883 0.950 . S
C1859 C1858 1.349 . S
C1859 C1875 1.349 . S
C1860 C1858 1.327 . S
C1860 C1879 1.429 . S
C1860 H1884 0.950 . S
C1861 C1878 1.574 . S
C1861 C1880 1.368 . S
C1861 H1885 0.949 . S
H1862 C1866 0.949 . S
C1863 C1864 1.349 . S
C1863 C1865 1.327 . S
C1863 H1886 0.950 . S
C1864 C1863 1.349 . S
C1864 C1876 1.349 . S
C1865 C1863 1.327 . S
C1865 C1881 1.429 . S
C1865 H1887 0.950 . S
C1866 H1862 0.949 . S
C1866 C1874 1.574 . S
C1866 C1882 1.368 . S
H1867 C1875 0.950 . S
H1868 C1873 0.950 . S
H1869 C1874 0.949 . S
H1870 C1876 0.950 . S
H1871 C1877 0.950 . S
H1872 C1878 0.949 . S
C1873 H1868 0.950 . S
C1873 C1875 1.327 . S
C1873 C1879 1.429 . S
C1874 C1866 1.574 . S
C1874 H1869 0.949 . S
C1874 C1880 1.368 . S
C1875 C1859 1.349 . S
C1875 H1867 0.950 . S
C1875 C1873 1.327 . S
C1876 C1864 1.349 . S
C1876 H1870 0.950 . S
C1876 C1877 1.327 . S
C1877 H1871 0.950 . S
C1877 C1876 1.327 . S
C1877 C1881 1.429 . S
C1878 C1861 1.574 . S
C1878 H1872 0.949 . S
C1878 C1882 1.368 . S
C1879 C1860 1.429 . S
C1879 C1873 1.429 . S
C1879 C1880 1.523 . S
C1880 C1861 1.368 . S
C1880 C1874 1.368 . S
C1880 C1879 1.523 . S
C1881 C1865 1.429 . S
C1881 C1877 1.429 . S
C1881 C1882 1.523 . S
C1882 C1866 1.368 . S
C1882 C1878 1.368 . S
C1882 C1881 1.523 . S
H1883 C1858 0.950 . S
H1884 C1860 0.950 . S
H1885 C1861 0.949 . S
H1886 C1863 0.950 . S
H1887 C1865 0.950 . S
C1888 C1889 1.349 . S
C1888 C1890 1.327 . S
C1888 H1913 0.950 . S
C1889 C1888 1.349 . S
C1889 C1905 1.349 . S
C1890 C1888 1.327 . S
C1890 C1909 1.429 . S
C1890 H1914 0.950 . S
C1891 C1908 1.574 . S
C1891 C1910 1.368 . S
C1891 H1915 0.949 . S
H1892 C1896 0.949 . S
C1893 C1894 1.349 . S
C1893 C1895 1.327 . S
C1893 H1916 0.950 . S
C1894 C1893 1.349 . S
C1894 C1906 1.349 . S
C1895 C1893 1.327 . S
C1895 C1911 1.429 . S
C1895 H1917 0.950 . S
C1896 H1892 0.949 . S
C1896 C1904 1.574 . S
C1896 C1912 1.368 . S
H1897 C1905 0.950 . S
H1898 C1903 0.950 . S
H1899 C1904 0.949 . S
H1900 C1906 0.950 . S
H1901 C1907 0.950 . S
H1902 C1908 0.949 . S
C1903 H1898 0.950 . S
C1903 C1905 1.327 . S
C1903 C1909 1.429 . S
C1904 C1896 1.574 . S
C1904 H1899 0.949 . S
C1904 C1910 1.368 . S
C1905 C1889 1.349 . S
C1905 H1897 0.950 . S
C1905 C1903 1.327 . S
C1906 C1894 1.349 . S
C1906 H1900 0.950 . S
C1906 C1907 1.327 . S
C1907 H1901 0.950 . S
C1907 C1906 1.327 . S
C1907 C1911 1.429 . S
C1908 C1891 1.574 . S
C1908 H1902 0.949 . S
C1908 C1912 1.368 . S
C1909 C1890 1.429 . S
C1909 C1903 1.429 . S
C1909 C1910 1.523 . S
C1910 C1891 1.368 . S
C1910 C1904 1.368 . S
C1910 C1909 1.523 . S
C1911 C1895 1.429 . S
C1911 C1907 1.429 . S
C1911 C1912 1.523 . S
C1912 C1896 1.368 . S
C1912 C1908 1.368 . S
C1912 C1911 1.523 . S
H1913 C1888 0.950 . S
H1914 C1890 0.950 . S
H1915 C1891 0.949 . S
H1916 C1893 0.950 . S
H1917 C1895 0.950 . S
C1918 C1919 1.349 . S
C1918 C1920 1.327 . S
C1918 H1943 0.950 . S
C1919 C1918 1.349 . S
C1919 C1935 1.349 . S
C1920 C1918 1.327 . S
C1920 C1939 1.429 . S
C1920 H1944 0.950 1_565 S
C1921 C1938 1.574 . S
C1921 C1940 1.368 . S
C1921 H1945 0.949 . S
H1922 C1926 0.949 . S
C1923 C1924 1.349 . S
C1923 C1925 1.327 . S
C1923 H1946 0.950 . S
C1924 C1923 1.349 . S
C1924 C1936 1.349 . S
C1925 C1923 1.327 . S
C1925 C1941 1.429 . S
C1925 H1947 0.950 1_545 S
C1926 H1922 0.949 . S
C1926 C1934 1.574 . S
C1926 C1942 1.368 . S
H1927 C1935 0.950 . S
H1928 C1933 0.950 . S
H1929 C1934 0.949 . S
H1930 C1936 0.950 . S
H1931 C1937 0.950 . S
H1932 C1938 0.949 . S
C1933 H1928 0.950 . S
C1933 C1935 1.327 . S
C1933 C1939 1.429 . S
C1934 C1926 1.574 . S
C1934 H1929 0.949 . S
C1934 C1940 1.368 1_545 S
C1935 C1919 1.349 . S
C1935 H1927 0.950 . S
C1935 C1933 1.327 . S
C1936 C1924 1.349 . S
C1936 H1930 0.950 . S
C1936 C1937 1.327 . S
C1937 H1931 0.950 . S
C1937 C1936 1.327 . S
C1937 C1941 1.429 . S
C1938 C1921 1.574 . S
C1938 H1932 0.949 . S
C1938 C1942 1.368 1_565 S
C1939 C1920 1.429 . S
C1939 C1933 1.429 . S
C1939 C1940 1.523 . S
C1940 C1921 1.368 . S
C1940 C1934 1.368 1_565 S
C1940 C1939 1.523 . S
C1941 C1925 1.429 . S
C1941 C1937 1.429 . S
C1941 C1942 1.523 . S
C1942 C1926 1.368 . S
C1942 C1938 1.368 1_545 S
C1942 C1941 1.523 . S
H1943 C1918 0.950 . S
H1944 C1920 0.950 1_545 S
H1945 C1921 0.949 . S
H1946 C1923 0.950 . S
H1947 C1925 0.950 1_565 S
C1948 C1949 1.349 . S
C1948 C1950 1.327 . S
C1948 H1973 0.950 1_556 S
C1949 C1948 1.349 . S
C1949 C1965 1.349 . S
C1950 C1948 1.327 . S
C1950 C1969 1.429 . S
C1950 H1974 0.950 . S
C1951 C1968 1.574 . S
C1951 C1970 1.368 . S
C1951 H1975 0.949 . S
H1952 C1956 0.949 . S
C1953 C1954 1.349 . S
C1953 C1955 1.327 . S
C1953 H1976 0.950 . S
C1954 C1953 1.349 . S
C1954 C1966 1.349 . S
C1955 C1953 1.327 . S
C1955 C1971 1.429 . S
C1955 H1977 0.950 . S
C1956 H1952 0.949 . S
C1956 C1964 1.574 . S
C1956 C1972 1.368 . S
H1957 C1965 0.950 . S
H1958 C1963 0.950 . S
H1959 C1964 0.949 . S
H1960 C1966 0.950 . S
H1961 C1967 0.950 . S
H1962 C1968 0.949 . S
C1963 H1958 0.950 . S
C1963 C1965 1.327 . S
C1963 C1969 1.429 . S
C1964 C1956 1.574 . S
C1964 H1959 0.949 . S
C1964 C1970 1.368 . S
C1965 C1949 1.349 . S
C1965 H1957 0.950 . S
C1965 C1963 1.327 . S
C1966 C1954 1.349 . S
C1966 H1960 0.950 . S
C1966 C1967 1.327 . S
C1967 H1961 0.950 . S
C1967 C1966 1.327 . S
C1967 C1971 1.429 . S
C1968 C1951 1.574 . S
C1968 H1962 0.949 . S
C1968 C1972 1.368 . S
C1969 C1950 1.429 . S
C1969 C1963 1.429 . S
C1969 C1970 1.523 . S
C1970 C1951 1.368 . S
C1970 C1964 1.368 . S
C1970 C1969 1.523 . S
C1971 C1955 1.429 . S
C1971 C1967 1.429 . S
C1971 C1972 1.523 . S
C1972 C1956 1.368 . S
C1972 C1968 1.368 . S
C1972 C1971 1.523 . S
H1973 C1948 0.950 1_554 S
H1974 C1950 0.950 . S
H1975 C1951 0.949 . S
H1976 C1953 0.950 . S
H1977 C1955 0.950 . S
C1978 C1979 1.349 . S
C1978 C1980 1.327 . S
C1978 H2003 0.950 . S
C1979 C1978 1.349 . S
C1979 C1995 1.349 . S
C1980 C1978 1.327 . S
C1980 C1999 1.429 1_556 S
C1980 H2004 0.950 1_556 S
C1981 C1998 1.574 1_545 S
C1981 C2000 1.368 . S
C1981 H2005 0.949 . S
H1982 C1986 0.949 . S
C1983 C1984 1.349 . S
C1983 C1985 1.327 . S
C1983 H2006 0.950 . S
C1984 C1983 1.349 . S
C1984 C1996 1.349 . S
C1985 C1983 1.327 . S
C1985 C2001 1.429 . S
C1985 H2007 0.950 . S
C1986 H1982 0.949 . S
C1986 C1994 1.574 1_565 S
C1986 C2002 1.368 . S
H1987 C1995 0.950 . S
H1988 C1993 0.950 . S
H1989 C1994 0.949 . S
H1990 C1996 0.950 . S
H1991 C1997 0.950 . S
H1992 C1998 0.949 . S
C1993 H1988 0.950 . S
C1993 C1995 1.327 . S
C1993 C1999 1.429 1_556 S
C1994 C1986 1.574 1_545 S
C1994 H1989 0.949 . S
C1994 C2000 1.368 . S
C1995 C1979 1.349 . S
C1995 H1987 0.950 . S
C1995 C1993 1.327 . S
C1996 C1984 1.349 . S
C1996 H1990 0.950 . S
C1996 C1997 1.327 . S
C1997 H1991 0.950 . S
C1997 C1996 1.327 . S
C1997 C2001 1.429 . S
C1998 C1981 1.574 1_565 S
C1998 H1992 0.949 . S
C1998 C2002 1.368 . S
C1999 C1980 1.429 1_554 S
C1999 C1993 1.429 1_554 S
C1999 C2000 1.523 . S
C2000 C1981 1.368 . S
C2000 C1994 1.368 . S
C2000 C1999 1.523 . S
C2001 C1985 1.429 . S
C2001 C1997 1.429 . S
C2001 C2002 1.523 . S
C2002 C1986 1.368 . S
C2002 C1998 1.368 . S
C2002 C2001 1.523 . S
H2003 C1978 0.950 . S
H2004 C1980 0.950 1_554 S
H2005 C1981 0.949 . S
H2006 C1983 0.950 . S
H2007 C1985 0.950 . S
C2008 C2009 1.349 . S
C2008 C2010 1.327 . S
C2008 H2033 0.950 . S
C2009 C2008 1.349 . S
C2009 C2025 1.349 . S
C2010 C2008 1.327 . S
C2010 C2029 1.429 . S
C2010 H2034 0.950 . S
C2011 C2028 1.574 . S
C2011 C2030 1.368 . S
C2011 H2035 0.949 . S
H2012 C2016 0.949 . S
C2013 C2014 1.349 . S
C2013 C2015 1.327 . S
C2013 H2036 0.950 . S
C2014 C2013 1.349 . S
C2014 C2026 1.349 . S
C2015 C2013 1.327 . S
C2015 C2031 1.429 . S
C2015 H2037 0.950 . S
C2016 H2012 0.949 . S
C2016 C2024 1.574 . S
C2016 C2032 1.368 . S
H2017 C2025 0.950 1_554 S
H2018 C2023 0.950 . S
H2019 C2024 0.949 . S
H2020 C2026 0.950 . S
H2021 C2027 0.950 . S
H2022 C2028 0.949 . S
C2023 H2018 0.950 . S
C2023 C2025 1.327 . S
C2023 C2029 1.429 . S
C2024 C2016 1.574 . S
C2024 H2019 0.949 . S
C2024 C2030 1.368 . S
C2025 C2009 1.349 . S
C2025 H2017 0.950 1_556 S
C2025 C2023 1.327 . S
C2026 C2014 1.349 . S
C2026 H2020 0.950 . S
C2026 C2027 1.327 . S
C2027 H2021 0.950 . S
C2027 C2026 1.327 . S
C2027 C2031 1.429 . S
C2028 C2011 1.574 . S
C2028 H2022 0.949 . S
C2028 C2032 1.368 . S
C2029 C2010 1.429 . S
C2029 C2023 1.429 . S
C2029 C2030 1.523 . S
C2030 C2011 1.368 . S
C2030 C2024 1.368 . S
C2030 C2029 1.523 . S
C2031 C2015 1.429 . S
C2031 C2027 1.429 . S
C2031 C2032 1.523 . S
C2032 C2016 1.368 . S
C2032 C2028 1.368 . S
C2032 C2031 1.523 . S
H2033 C2008 0.950 . S
H2034 C2010 0.950 . S
H2035 C2011 0.949 . S
H2036 C2013 0.950 . S
H2037 C2015 0.950 . S
C2038 C2039 1.349 . S
C2038 C2040 1.327 . S
C2038 H2063 0.950 . S
C2039 C2038 1.349 . S
C2039 C2055 1.349 . S
C2040 C2038 1.327 . S
C2040 C2059 1.429 . S
C2040 H2064 0.950 . S
C2041 C2058 1.574 . S
C2041 C2060 1.368 1_565 S
C2041 H2065 0.949 . S
H2042 C2046 0.949 . S
C2043 C2044 1.349 . S
C2043 C2045 1.327 . S
C2043 H2066 0.950 . S
C2044 C2043 1.349 . S
C2044 C2056 1.349 . S
C2045 C2043 1.327 . S
C2045 C2061 1.429 . S
C2045 H2067 0.950 . S
C2046 H2042 0.949 . S
C2046 C2054 1.574 . S
C2046 C2062 1.368 1_545 S
H2047 C2055 0.950 . S
H2048 C2053 0.875 1_565 S
H2049 C2054 0.949 . S
H2050 C2056 0.950 . S
H2051 C2057 0.950 1_545 S
H2052 C2058 0.949 . S
C2053 H2048 0.875 1_545 S
C2053 C2055 1.327 . S
C2053 C2059 1.429 . S
C2054 C2046 1.574 . S
C2054 H2049 0.949 . S
C2054 C2060 1.368 . S
C2055 C2039 1.349 . S
C2055 H2047 0.950 . S
C2055 C2053 1.327 . S
C2056 C2044 1.349 . S
C2056 H2050 0.950 . S
C2056 C2057 1.327 . S
C2057 H2051 0.950 1_565 S
C2057 C2056 1.327 . S
C2057 C2061 1.429 . S
C2058 C2041 1.574 . S
C2058 H2052 0.949 . S
C2058 C2062 1.368 . S
C2059 C2040 1.429 . S
C2059 C2053 1.429 . S
C2059 C2060 1.523 . S
C2060 C2041 1.368 1_545 S
C2060 C2054 1.368 . S
C2060 C2059 1.523 . S
C2061 C2045 1.429 . S
C2061 C2057 1.429 . S
C2061 C2062 1.523 . S
C2062 C2046 1.368 1_565 S
C2062 C2058 1.368 . S
C2062 C2061 1.523 . S
H2063 C2038 0.950 . S
H2064 C2040 0.950 . S
H2065 C2041 0.949 . S
H2066 C2043 0.950 . S
H2067 C2045 0.950 . S
C2068 C2069 1.349 . S
C2068 C2070 1.327 . S
C2068 H2093 0.950 . S
C2069 C2068 1.349 . S
C2069 C2085 1.349 . S
C2070 C2068 1.327 . S
C2070 C2089 1.429 . S
C2070 H2094 0.950 . S
C2071 C2088 1.574 . S
C2071 C2090 1.368 . S
C2071 H2095 0.949 . S
H2072 C2076 0.949 . S
C2073 C2074 1.349 . S
C2073 C2075 1.327 . S
C2073 H2096 0.950 . S
C2074 C2073 1.349 . S
C2074 C2086 1.349 . S
C2075 C2073 1.327 . S
C2075 C2091 1.429 . S
C2075 H2097 0.950 . S
C2076 H2072 0.949 . S
C2076 C2084 1.574 . S
C2076 C2092 1.368 . S
H2077 C2085 0.950 . S
H2078 C2083 0.950 . S
H2079 C2084 0.949 . S
H2080 C2086 0.950 . S
H2081 C2087 0.950 . S
H2082 C2088 0.949 . S
C2083 H2078 0.950 . S
C2083 C2085 1.327 . S
C2083 C2089 1.429 . S
C2084 C2076 1.574 . S
C2084 H2079 0.949 . S
C2084 C2090 1.368 . S
C2085 C2069 1.349 . S
C2085 H2077 0.950 . S
C2085 C2083 1.327 . S
C2086 C2074 1.349 . S
C2086 H2080 0.950 . S
C2086 C2087 1.327 . S
C2087 H2081 0.950 . S
C2087 C2086 1.327 . S
C2087 C2091 1.429 . S
C2088 C2071 1.574 . S
C2088 H2082 0.949 . S
C2088 C2092 1.368 . S
C2089 C2070 1.429 . S
C2089 C2083 1.429 . S
C2089 C2090 1.523 . S
C2090 C2071 1.368 . S
C2090 C2084 1.368 . S
C2090 C2089 1.523 . S
C2091 C2075 1.429 . S
C2091 C2087 1.429 . S
C2091 C2092 1.523 . S
C2092 C2076 1.368 . S
C2092 C2088 1.368 . S
C2092 C2091 1.523 . S
H2093 C2068 0.950 . S
H2094 C2070 0.950 . S
H2095 C2071 0.949 . S
H2096 C2073 0.950 . S
H2097 C2075 0.950 . S
C2098 C2099 1.349 . S
C2098 C2100 1.327 . S
C2098 H2123 0.950 . S
C2099 C2098 1.349 . S
C2099 C2115 1.349 . S
C2100 C2098 1.327 . S
C2100 C2119 1.429 . S
C2100 H2124 0.950 1_565 S
C2101 C2118 1.574 . S
C2101 C2120 1.368 . S
C2101 H2125 0.949 . S
H2102 C2106 0.949 . S
C2103 C2104 1.349 . S
C2103 C2105 1.327 . S
C2103 H2126 0.950 . S
C2104 C2103 1.349 . S
C2104 C2116 1.349 . S
C2105 C2103 1.327 . S
C2105 C2121 1.429 1_556 S
C2105 H2127 0.950 1_545 S
C2106 H2102 0.949 . S
C2106 C2114 1.574 . S
C2106 C2122 1.368 . S
H2107 C2115 0.950 . S
H2108 C2113 0.950 . S
H2109 C2114 0.949 . S
H2110 C2116 0.950 . S
H2111 C2117 0.950 . S
H2112 C2118 0.949 . S
C2113 H2108 0.950 . S
C2113 C2115 1.327 . S
C2113 C2119 1.429 . S
C2114 C2106 1.574 . S
C2114 H2109 0.949 . S
C2114 C2120 1.368 1_545 S
C2115 C2099 1.349 . S
C2115 H2107 0.950 . S
C2115 C2113 1.327 . S
C2116 C2104 1.349 . S
C2116 H2110 0.950 . S
C2116 C2117 1.327 1_556 S
C2117 H2111 0.950 . S
C2117 C2116 1.327 1_554 S
C2117 C2121 1.429 . S
C2118 C2101 1.574 . S
C2118 H2112 0.949 . S
C2118 C2122 1.368 1_565 S
C2119 C2100 1.429 . S
C2119 C2113 1.429 . S
C2119 C2120 1.523 . S
C2120 C2101 1.368 . S
C2120 C2114 1.368 1_565 S
C2120 C2119 1.523 . S
C2121 C2105 1.429 1_554 S
C2121 C2117 1.429 . S
C2121 C2122 1.523 . S
C2122 C2106 1.368 . S
C2122 C2118 1.368 1_545 S
C2122 C2121 1.523 . S
H2123 C2098 0.950 . S
H2124 C2100 0.950 1_545 S
H2125 C2101 0.949 . S
H2126 C2103 0.950 . S
H2127 C2105 0.950 1_565 S
C2128 C2129 1.349 . S
C2128 C2130 1.327 . S
C2128 H2153 0.950 1_556 S
C2129 C2128 1.349 . S
C2129 C2145 1.349 . S
C2130 C2128 1.327 . S
C2130 C2149 1.429 . S
C2130 H2154 0.950 . S
C2131 C2148 1.574 . S
C2131 C2150 1.368 . S
C2131 H2155 0.949 . S
H2132 C2136 0.949 . S
C2133 C2134 1.349 . S
C2133 C2135 1.327 . S
C2133 H2156 0.950 . S
C2134 C2133 1.349 . S
C2134 C2146 1.349 . S
C2135 C2133 1.327 . S
C2135 C2151 1.429 . S
C2135 H2157 0.950 . S
C2136 H2132 0.949 . S
C2136 C2144 1.574 . S
C2136 C2152 1.368 . S
H2137 C2145 0.950 . S
H2138 C2143 0.950 . S
H2139 C2144 0.949 . S
H2140 C2146 0.950 . S
H2141 C2147 0.950 . S
H2142 C2148 0.949 . S
C2143 H2138 0.950 . S
C2143 C2145 1.327 . S
C2143 C2149 1.429 . S
C2144 C2136 1.574 . S
C2144 H2139 0.949 . S
C2144 C2150 1.368 . S
C2145 C2129 1.349 . S
C2145 H2137 0.950 . S
C2145 C2143 1.327 . S
C2146 C2134 1.349 . S
C2146 H2140 0.950 . S
C2146 C2147 1.327 . S
C2147 H2141 0.950 . S
C2147 C2146 1.327 . S
C2147 C2151 1.429 . S
C2148 C2131 1.574 . S
C2148 H2142 0.949 . S
C2148 C2152 1.368 . S
C2149 C2130 1.429 . S
C2149 C2143 1.429 . S
C2149 C2150 1.523 . S
C2150 C2131 1.368 . S
C2150 C2144 1.368 . S
C2150 C2149 1.523 . S
C2151 C2135 1.429 . S
C2151 C2147 1.429 . S
C2151 C2152 1.523 . S
C2152 C2136 1.368 . S
C2152 C2148 1.368 . S
C2152 C2151 1.523 . S
H2153 C2128 0.950 1_554 S
H2154 C2130 0.950 . S
H2155 C2131 0.949 . S
H2156 C2133 0.950 . S
H2157 C2135 0.950 . S
C2158 C2159 1.349 . S
C2158 C2160 1.327 . S
C2158 H2183 0.950 . S
C2159 C2158 1.349 . S
C2159 C2175 1.349 . S
C2160 C2158 1.327 . S
C2160 C2179 1.429 . S
C2160 H2184 0.950 . S
C2161 C2178 1.574 . S
C2161 C2180 1.368 . S
C2161 H2185 0.949 . S
H2162 C2166 0.949 . S
C2163 C2164 1.349 . S
C2163 C2165 1.327 1_556 S
C2163 H2186 0.950 . S
C2164 C2163 1.349 . S
C2164 C2176 1.349 . S
C2165 C2163 1.327 1_554 S
C2165 C2181 1.429 . S
C2165 H2187 0.950 . S
C2166 H2162 0.949 . S
C2166 C2174 1.574 . S
C2166 C2182 1.368 . S
H2167 C2175 0.950 . S
H2168 C2173 0.950 . S
H2169 C2174 0.949 . S
H2170 C2176 0.950 . S
H2171 C2177 0.950 . S
H2172 C2178 0.949 . S
C2173 H2168 0.950 . S
C2173 C2175 1.327 . S
C2173 C2179 1.429 . S
C2174 C2166 1.574 . S
C2174 H2169 0.949 . S
C2174 C2180 1.368 . S
C2175 C2159 1.349 . S
C2175 H2167 0.950 . S
C2175 C2173 1.327 . S
C2176 C2164 1.349 . S
C2176 H2170 0.950 . S
C2176 C2177 1.327 . S
C2177 H2171 0.950 . S
C2177 C2176 1.327 . S
C2177 C2181 1.429 1_556 S
C2178 C2161 1.574 . S
C2178 H2172 0.949 . S
C2178 C2182 1.368 . S
C2179 C2160 1.429 . S
C2179 C2173 1.429 . S
C2179 C2180 1.523 . S
C2180 C2161 1.368 . S
C2180 C2174 1.368 . S
C2180 C2179 1.523 . S
C2181 C2165 1.429 . S
C2181 C2177 1.429 1_554 S
C2181 C2182 1.523 . S
C2182 C2166 1.368 . S
C2182 C2178 1.368 . S
C2182 C2181 1.523 . S
H2183 C2158 0.950 . S
H2184 C2160 0.950 . S
H2185 C2161 0.949 . S
H2186 C2163 0.950 . S
H2187 C2165 0.950 . S
C2188 C2189 1.349 . S
C2188 C2190 1.327 . S
C2188 H2213 0.950 . S
C2189 C2188 1.349 . S
C2189 C2205 1.349 . S
C2190 C2188 1.327 . S
C2190 C2209 1.429 . S
C2190 H2214 0.950 . S
C2191 C2208 1.574 . S
C2191 C2210 1.368 . S
C2191 H2215 0.949 . S
H2192 C2196 0.949 . S
C2193 C2194 1.349 . S
C2193 C2195 1.327 . S
C2193 H2216 0.950 . S
C2194 C2193 1.349 . S
C2194 C2206 1.349 . S
C2195 C2193 1.327 . S
C2195 C2211 1.429 . S
C2195 H2217 0.950 . S
C2196 H2192 0.949 . S
C2196 C2204 1.574 . S
C2196 C2212 1.368 . S
H2197 C2205 0.950 . S
H2198 C2203 0.950 . S
H2199 C2204 0.949 . S
H2200 C2206 0.950 . S
H2201 C2207 0.950 . S
H2202 C2208 0.949 . S
C2203 H2198 0.950 . S
C2203 C2205 1.327 . S
C2203 C2209 1.429 . S
C2204 C2196 1.574 . S
C2204 H2199 0.949 . S
C2204 C2210 1.368 . S
C2205 C2189 1.349 . S
C2205 H2197 0.950 . S
C2205 C2203 1.327 . S
C2206 C2194 1.349 . S
C2206 H2200 0.950 . S
C2206 C2207 1.327 . S
C2207 H2201 0.950 . S
C2207 C2206 1.327 . S
C2207 C2211 1.429 . S
C2208 C2191 1.574 . S
C2208 H2202 0.949 . S
C2208 C2212 1.368 . S
C2209 C2190 1.429 . S
C2209 C2203 1.429 . S
C2209 C2210 1.523 . S
C2210 C2191 1.368 . S
C2210 C2204 1.368 . S
C2210 C2209 1.523 . S
C2211 C2195 1.429 . S
C2211 C2207 1.429 . S
C2211 C2212 1.523 . S
C2212 C2196 1.368 . S
C2212 C2208 1.368 . S
C2212 C2211 1.523 . S
H2213 C2188 0.950 . S
H2214 C2190 0.950 . S
H2215 C2191 0.949 . S
H2216 C2193 0.950 . S
H2217 C2195 0.950 . S
C2218 C2219 1.349 . S
C2218 C2220 1.327 . S
C2218 H2243 0.950 . S
C2219 C2218 1.349 . S
C2219 C2235 1.349 . S
C2220 C2218 1.327 . S
C2220 C2239 1.429 . S
C2220 H2244 0.950 . S
C2221 C2238 1.574 . S
C2221 C2240 1.368 . S
C2221 H2245 0.949 . S
H2222 C2226 0.949 . S
C2223 C2224 1.349 . S
C2223 C2225 1.327 . S
C2223 H2246 0.950 . S
C2224 C2223 1.349 . S
C2224 C2236 1.349 . S
C2225 C2223 1.327 . S
C2225 C2241 1.429 . S
C2225 H2247 0.950 . S
C2226 H2222 0.949 . S
C2226 C2234 1.574 . S
C2226 C2242 1.368 . S
H2227 C2235 0.950 . S
H2228 C2233 0.950 . S
H2229 C2234 0.949 . S
H2230 C2236 0.950 . S
H2231 C2237 0.950 . S
H2232 C2238 0.949 . S
C2233 H2228 0.950 . S
C2233 C2235 1.327 . S
C2233 C2239 1.429 . S
C2234 C2226 1.574 . S
C2234 H2229 0.949 . S
C2234 C2240 1.368 . S
C2235 C2219 1.349 . S
C2235 H2227 0.950 . S
C2235 C2233 1.327 . S
C2236 C2224 1.349 . S
C2236 H2230 0.950 . S
C2236 C2237 1.327 . S
C2237 H2231 0.950 . S
C2237 C2236 1.327 . S
C2237 C2241 1.429 . S
C2238 C2221 1.574 . S
C2238 H2232 0.949 . S
C2238 C2242 1.368 . S
C2239 C2220 1.429 . S
C2239 C2233 1.429 . S
C2239 C2240 1.523 . S
C2240 C2221 1.368 . S
C2240 C2234 1.368 . S
C2240 C2239 1.523 . S
C2241 C2225 1.429 . S
C2241 C2237 1.429 . S
C2241 C2242 1.523 . S
C2242 C2226 1.368 . S
C2242 C2238 1.368 . S
C2242 C2241 1.523 . S
H2243 C2218 0.950 . S
H2244 C2220 0.950 . S
H2245 C2221 0.949 . S
H2246 C2223 0.950 . S
H2247 C2225 0.950 . S
C2248 C2249 1.349 . S
C2248 C2250 1.327 . S
C2248 H2273 0.950 . S
C2249 C2248 1.349 . S
C2249 C2265 1.349 . S
C2250 C2248 1.327 . S
C2250 C2269 1.429 . S
C2250 H2274 0.950 . S
C2251 C2268 1.574 . S
C2251 C2270 1.368 . S
C2251 H2275 0.949 . S
H2252 C2256 0.949 . S
C2253 C2254 1.349 . S
C2253 C2255 1.327 . S
C2253 H2276 0.950 . S
C2254 C2253 1.349 . S
C2254 C2266 1.349 . S
C2255 C2253 1.327 . S
C2255 C2271 1.429 . S
C2255 H2277 0.950 . S
C2256 H2252 0.949 . S
C2256 C2264 1.574 . S
C2256 C2272 1.368 . S
H2257 C2265 0.950 . S
H2258 C2263 0.950 . S
H2259 C2264 0.949 . S
H2260 C2266 0.950 . S
H2261 C2267 0.950 . S
H2262 C2268 0.949 . S
C2263 H2258 0.950 . S
C2263 C2265 1.327 . S
C2263 C2269 1.429 . S
C2264 C2256 1.574 . S
C2264 H2259 0.949 . S
C2264 C2270 1.368 . S
C2265 C2249 1.349 . S
C2265 H2257 0.950 . S
C2265 C2263 1.327 . S
C2266 C2254 1.349 . S
C2266 H2260 0.950 . S
C2266 C2267 1.327 . S
C2267 H2261 0.950 . S
C2267 C2266 1.327 . S
C2267 C2271 1.429 . S
C2268 C2251 1.574 . S
C2268 H2262 0.949 . S
C2268 C2272 1.368 . S
C2269 C2250 1.429 . S
C2269 C2263 1.429 . S
C2269 C2270 1.523 . S
C2270 C2251 1.368 . S
C2270 C2264 1.368 . S
C2270 C2269 1.523 . S
C2271 C2255 1.429 . S
C2271 C2267 1.429 . S
C2271 C2272 1.523 . S
C2272 C2256 1.368 . S
C2272 C2268 1.368 . S
C2272 C2271 1.523 . S
H2273 C2248 0.950 . S
H2274 C2250 0.950 . S
H2275 C2251 0.949 . S
H2276 C2253 0.950 . S
H2277 C2255 0.950 . S
C2278 C2279 1.349 . S
C2278 C2280 1.327 1_556 S
C2278 H2303 0.950 . S
C2279 C2278 1.349 . S
C2279 C2295 1.349 . S
C2280 C2278 1.327 1_554 S
C2280 C2299 1.429 . S
C2280 H2304 0.950 . S
C2281 C2298 1.574 . S
C2281 C2300 1.368 . S
C2281 H2305 0.949 . S
H2282 C2286 0.949 . S
C2283 C2284 1.349 . S
C2283 C2285 1.327 . S
C2283 H2306 0.950 . S
C2284 C2283 1.349 . S
C2284 C2296 1.349 . S
C2285 C2283 1.327 . S
C2285 C2301 1.429 . S
C2285 H2307 0.950 . S
C2286 H2282 0.949 . S
C2286 C2294 1.574 . S
C2286 C2302 1.368 . S
H2287 C2295 0.950 . S
H2288 C2293 0.950 . S
H2289 C2294 0.949 . S
H2290 C2296 0.950 . S
H2291 C2297 0.950 . S
H2292 C2298 0.949 . S
C2293 H2288 0.950 . S
C2293 C2295 1.327 . S
C2293 C2299 1.429 1_556 S
C2294 C2286 1.574 . S
C2294 H2289 0.949 . S
C2294 C2300 1.368 . S
C2295 C2279 1.349 . S
C2295 H2287 0.950 . S
C2295 C2293 1.327 . S
C2296 C2284 1.349 . S
C2296 H2290 0.950 . S
C2296 C2297 1.327 . S
C2297 H2291 0.950 . S
C2297 C2296 1.327 . S
C2297 C2301 1.429 . S
C2298 C2281 1.574 . S
C2298 H2292 0.949 . S
C2298 C2302 1.368 . S
C2299 C2280 1.429 . S
C2299 C2293 1.429 1_554 S
C2299 C2300 1.523 . S
C2300 C2281 1.368 . S
C2300 C2294 1.368 . S
C2300 C2299 1.523 . S
C2301 C2285 1.429 . S
C2301 C2297 1.429 . S
C2301 C2302 1.523 . S
C2302 C2286 1.368 . S
C2302 C2298 1.368 . S
C2302 C2301 1.523 . S
H2303 C2278 0.950 . S
H2304 C2280 0.950 . S
H2305 C2281 0.949 . S
H2306 C2283 0.950 . S
H2307 C2285 0.950 . S
C2308 C2309 1.349 . S
C2308 C2310 1.327 . S
C2308 H2333 0.950 1_556 S
C2309 C2308 1.349 . S
C2309 C2325 1.349 . S
C2310 C2308 1.327 . S
C2310 C2329 1.429 . S
C2310 H2334 0.950 . S
C2311 C2328 1.574 . S
C2311 C2330 1.368 . S
C2311 H2335 0.949 . S
H2312 C2316 0.949 . S
C2313 C2314 1.349 . S
C2313 C2315 1.327 . S
C2313 H2336 0.950 . S
C2314 C2313 1.349 . S
C2314 C2326 1.349 . S
C2315 C2313 1.327 . S
C2315 C2331 1.429 . S
C2315 H2337 0.950 . S
C2316 H2312 0.949 . S
C2316 C2324 1.574 . S
C2316 C2332 1.368 . S
H2317 C2325 0.950 . S
H2318 C2323 0.950 . S
H2319 C2324 0.949 . S
H2320 C2326 0.950 . S
H2321 C2327 0.950 . S
H2322 C2328 0.949 . S
C2323 H2318 0.950 . S
C2323 C2325 1.327 . S
C2323 C2329 1.429 . S
C2324 C2316 1.574 . S
C2324 H2319 0.949 . S
C2324 C2330 1.368 . S
C2325 C2309 1.349 . S
C2325 H2317 0.950 . S
C2325 C2323 1.327 . S
C2326 C2314 1.349 . S
C2326 H2320 0.950 . S
C2326 C2327 1.327 . S
C2327 H2321 0.950 . S
C2327 C2326 1.327 . S
C2327 C2331 1.429 . S
C2328 C2311 1.574 . S
C2328 H2322 0.949 . S
C2328 C2332 1.368 . S
C2329 C2310 1.429 . S
C2329 C2323 1.429 . S
C2329 C2330 1.523 . S
C2330 C2311 1.368 . S
C2330 C2324 1.368 . S
C2330 C2329 1.523 . S
C2331 C2315 1.429 . S
C2331 C2327 1.429 . S
C2331 C2332 1.523 . S
C2332 C2316 1.368 . S
C2332 C2328 1.368 . S
C2332 C2331 1.523 . S
H2333 C2308 0.950 1_554 S
H2334 C2310 0.950 . S
H2335 C2311 0.949 . S
H2336 C2313 0.950 . S
H2337 C2315 0.950 . S
C2338 C2339 1.349 . S
C2338 C2340 1.327 . S
C2338 H2363 0.950 . S
C2339 C2338 1.349 . S
C2339 C2355 1.349 . S
C2340 C2338 1.327 . S
C2340 C2359 1.429 . S
C2340 H2364 0.950 . S
C2341 C2358 1.574 . S
C2341 C2360 1.368 . S
C2341 H2365 0.949 . S
H2342 C2346 0.949 . S
C2343 C2344 1.349 . S
C2343 C2345 1.327 . S
C2343 H2366 0.950 . S
C2344 C2343 1.349 . S
C2344 C2356 1.349 . S
C2345 C2343 1.327 . S
C2345 C2361 1.429 . S
C2345 H2367 0.950 . S
C2346 H2342 0.949 . S
C2346 C2354 1.574 . S
C2346 C2362 1.368 . S
H2347 C2355 0.950 . S
H2348 C2353 0.950 . S
H2349 C2354 0.949 . S
H2350 C2356 0.950 . S
H2351 C2357 0.950 . S
H2352 C2358 0.949 . S
C2353 H2348 0.950 . S
C2353 C2355 1.327 . S
C2353 C2359 1.429 . S
C2354 C2346 1.574 . S
C2354 H2349 0.949 . S
C2354 C2360 1.368 . S
C2355 C2339 1.349 . S
C2355 H2347 0.950 . S
C2355 C2353 1.327 . S
C2356 C2344 1.349 . S
C2356 H2350 0.950 . S
C2356 C2357 1.327 . S
C2357 H2351 0.950 . S
C2357 C2356 1.327 . S
C2357 C2361 1.429 . S
C2358 C2341 1.574 . S
C2358 H2352 0.949 . S
C2358 C2362 1.368 . S
C2359 C2340 1.429 . S
C2359 C2353 1.429 . S
C2359 C2360 1.523 . S
C2360 C2341 1.368 . S
C2360 C2354 1.368 . S
C2360 C2359 1.523 . S
C2361 C2345 1.429 . S
C2361 C2357 1.429 . S
C2361 C2362 1.523 . S
C2362 C2346 1.368 . S
C2362 C2358 1.368 . S
C2362 C2361 1.523 . S
H2363 C2338 0.950 . S
H2364 C2340 0.950 . S
H2365 C2341 0.949 . S
H2366 C2343 0.950 . S
H2367 C2345 0.950 . S
C449 C106 1.529 . S
C454 C8 1.529 . S
C479 C22 1.530 . S
C484 C64 1.530 . S
C509 C78 1.529 . S
C514 C36 1.529 . S
C539 C50 1.530 . S
C544 C92 1.530 . S
C569 C120 1.530 . S
C574 C218 1.530 . S
C599 C134 1.529 . S
C604 C176 1.529 . S
C629 C148 1.530 . S
C634 C190 1.530 . S
C659 C162 1.529 . S
C664 C204 1.529 . S
C689 C232 1.529 . S
C694 C330 1.529 . S
C719 C246 1.529 . S
C724 C288 1.529 . S
C749 C302 1.530 . S
C754 C260 1.530 . S
C779 C316 1.530 . S
C784 C274 1.530 . S
C809 C344 1.529 . S
C814 C442 1.529 . S
C839 C400 1.529 . S
C844 C358 1.529 . S
C869 C414 1.530 . S
C874 C372 1.530 . S
C899 C386 1.530 . S
C904 C428 1.530 . S
C929 C7 0.372 1_556 S
C934 C91 0.372 . S
C959 C21 0.372 . S
C964 C105 0.372 . S
C989 C63 0.372 . S
C994 C35 0.372 . S
C1019 C49 0.372 . S
C1024 C77 0.372 . S
C1049 C119 0.372 . S
C1054 C203 0.372 . S
C1079 C133 0.372 . S
C1084 C217 0.372 . S
C1109 C175 0.372 1_556 S
C1114 C147 0.372 . S
C1139 C189 0.372 . S
C1144 C161 0.372 . S
C1169 C231 0.372 . S
C1174 C315 0.372 . S
C1199 C329 0.372 . S
C1204 C245 0.372 . S
C1229 C287 0.372 . S
C1234 C259 0.372 1_556 S
C1259 C273 0.372 . S
C1264 C301 0.372 . S
C1289 C343 0.372 . S
C1294 C427 0.372 1_556 S
C1319 C357 0.372 . S
C1324 C441 0.372 . S
C1349 C399 0.372 . S
C1354 C371 0.372 . S
C1379 C413 0.372 . S
C1384 C385 0.372 . S
C1409 C9 1.532 . S
C1414 C429 1.532 . S
C1439 C23 1.532 . S
C1444 C219 1.532 . S
C1469 C37 1.532 . S
C1474 C401 1.532 . S
C1499 C51 1.532 . S
C1504 C191 1.532 . S
C1529 C65 1.532 . S
C1534 C373 1.532 . S
C1559 C79 1.532 . S
C1564 C163 1.532 . S
C1589 C93 1.532 . S
C1594 C345 1.532 . S
C1619 C135 1.532 . S
C1624 C107 1.532 . S
C1649 C317 1.532 . S
C1654 C121 1.532 . S
C1679 C149 1.532 . S
C1684 C289 1.532 . S
C1709 C261 1.532 . S
C1714 C177 1.532 . S
C1739 C233 1.532 . S
C1744 C205 1.532 . S
C1769 C247 1.532 . S
C1774 C443 1.532 . S
C1799 C275 1.532 . S
C1804 C415 1.532 . S
C1829 C303 1.532 . S
C1834 C387 1.532 . S
C1859 C359 1.532 . S
C1864 C331 1.532 . S
C1889 C3 1.623 . S
C1894 C87 1.623 . S
C1919 C17 1.623 . S
C1924 C101 1.623 . S
C1949 C59 1.623 1_556 S
C1954 C31 1.623 . S
C1979 C45 1.623 . S
C1984 C73 1.623 . S
C2009 C115 1.623 1_556 S
C2014 C199 1.623 . S
C2039 C129 1.623 . S
C2044 C213 1.623 . S
C2069 C171 1.623 . S
C2074 C143 1.623 . S
C2099 C157 1.623 . S
C2104 C185 1.623 . S
C2129 C311 1.623 1_556 S
C2134 C227 1.623 . S
C2159 C325 1.623 . S
C2164 C241 1.623 . S
C2189 C283 1.623 . S
C2194 C255 1.623 . S
C2219 C297 1.623 . S
C2224 C269 1.623 . S
C2249 C423 1.623 . S
C2254 C339 1.623 . S
C2279 C437 1.623 . S
C2284 C353 1.623 . S
C2309 C367 1.623 1_556 S
C2314 C395 1.623 . S
C2339 C409 1.623 . S
C2344 C381 1.623 . S
